# Generated by pormake.
# Topology xfh, (7)-cn, num edge types: 1
# Building blocks:
#     Node 0, Type 0, BuildingBlock: NUHQUE_clean_sbu_2, # of connection points: 7
#     Node 1, Type 0, BuildingBlock: NUHQUE_clean_sbu_2, # of connection points: 7
#     Node 2, Type 0, BuildingBlock: NUHQUE_clean_sbu_2, # of connection points: 7
#     Node 3, Type 0, BuildingBlock: NUHQUE_clean_sbu_2, # of connection points: 7
#     Node 4, Type 0, BuildingBlock: NUHQUE_clean_sbu_2, # of connection points: 7
#     Node 5, Type 0, BuildingBlock: NUHQUE_clean_sbu_2, # of connection points: 7
#     Node 6, Type 0, BuildingBlock: NUHQUE_clean_sbu_2, # of connection points: 7
#     Node 7, Type 0, BuildingBlock: NUHQUE_clean_sbu_2, # of connection points: 7
#     Node 8, Type 0, BuildingBlock: NUHQUE_clean_sbu_2, # of connection points: 7
#     Node 9, Type 0, BuildingBlock: NUHQUE_clean_sbu_2, # of connection points: 7
#     Node 10, Type 0, BuildingBlock: NUHQUE_clean_sbu_2, # of connection points: 7
#     Node 11, Type 0, BuildingBlock: NUHQUE_clean_sbu_2, # of connection points: 7
#     Node 12, Type 0, BuildingBlock: NUHQUE_clean_sbu_2, # of connection points: 7
#     Node 13, Type 0, BuildingBlock: NUHQUE_clean_sbu_2, # of connection points: 7
#     Node 14, Type 0, BuildingBlock: NUHQUE_clean_sbu_2, # of connection points: 7
#     Node 15, Type 0, BuildingBlock: NUHQUE_clean_sbu_2, # of connection points: 7
#     Edge 16, Type (0, 0), BuildingBlock: AJUNOK_clean_linker_0, # of connection points: 2
#     Edge 17, Type (0, 0), BuildingBlock: AJUNOK_clean_linker_0, # of connection points: 2
#     Edge 18, Type (0, 0), BuildingBlock: AJUNOK_clean_linker_0, # of connection points: 2
#     Edge 19, Type (0, 0), BuildingBlock: AJUNOK_clean_linker_0, # of connection points: 2
#     Edge 20, Type (0, 0), BuildingBlock: AJUNOK_clean_linker_0, # of connection points: 2
#     Edge 21, Type (0, 0), BuildingBlock: AJUNOK_clean_linker_0, # of connection points: 2
#     Edge 22, Type (0, 0), BuildingBlock: AJUNOK_clean_linker_0, # of connection points: 2
#     Edge 23, Type (0, 0), BuildingBlock: AJUNOK_clean_linker_0, # of connection points: 2
#     Edge 24, Type (0, 0), BuildingBlock: AJUNOK_clean_linker_0, # of connection points: 2
#     Edge 25, Type (0, 0), BuildingBlock: AJUNOK_clean_linker_0, # of connection points: 2
#     Edge 26, Type (0, 0), BuildingBlock: AJUNOK_clean_linker_0, # of connection points: 2
#     Edge 27, Type (0, 0), BuildingBlock: AJUNOK_clean_linker_0, # of connection points: 2
#     Edge 28, Type (0, 0), BuildingBlock: AJUNOK_clean_linker_0, # of connection points: 2
#     Edge 29, Type (0, 0), BuildingBlock: AJUNOK_clean_linker_0, # of connection points: 2
#     Edge 30, Type (0, 0), BuildingBlock: AJUNOK_clean_linker_0, # of connection points: 2
#     Edge 31, Type (0, 0), BuildingBlock: AJUNOK_clean_linker_0, # of connection points: 2
#     Edge 32, Type (0, 0), BuildingBlock: AJUNOK_clean_linker_0, # of connection points: 2
#     Edge 33, Type (0, 0), BuildingBlock: AJUNOK_clean_linker_0, # of connection points: 2
#     Edge 34, Type (0, 0), BuildingBlock: AJUNOK_clean_linker_0, # of connection points: 2
#     Edge 35, Type (0, 0), BuildingBlock: AJUNOK_clean_linker_0, # of connection points: 2
#     Edge 36, Type (0, 0), BuildingBlock: AJUNOK_clean_linker_0, # of connection points: 2
#     Edge 37, Type (0, 0), BuildingBlock: AJUNOK_clean_linker_0, # of connection points: 2
#     Edge 38, Type (0, 0), BuildingBlock: AJUNOK_clean_linker_0, # of connection points: 2
#     Edge 39, Type (0, 0), BuildingBlock: AJUNOK_clean_linker_0, # of connection points: 2
#     Edge 40, Type (0, 0), BuildingBlock: AJUNOK_clean_linker_0, # of connection points: 2
#     Edge 41, Type (0, 0), BuildingBlock: AJUNOK_clean_linker_0, # of connection points: 2
#     Edge 42, Type (0, 0), BuildingBlock: AJUNOK_clean_linker_0, # of connection points: 2
#     Edge 43, Type (0, 0), BuildingBlock: AJUNOK_clean_linker_0, # of connection points: 2
#     Edge 44, Type (0, 0), BuildingBlock: AJUNOK_clean_linker_0, # of connection points: 2
#     Edge 45, Type (0, 0), BuildingBlock: AJUNOK_clean_linker_0, # of connection points: 2
#     Edge 46, Type (0, 0), BuildingBlock: AJUNOK_clean_linker_0, # of connection points: 2
#     Edge 47, Type (0, 0), BuildingBlock: AJUNOK_clean_linker_0, # of connection points: 2
#     Edge 48, Type (0, 0), BuildingBlock: AJUNOK_clean_linker_0, # of connection points: 2
#     Edge 49, Type (0, 0), BuildingBlock: AJUNOK_clean_linker_0, # of connection points: 2
#     Edge 50, Type (0, 0), BuildingBlock: AJUNOK_clean_linker_0, # of connection points: 2
#     Edge 51, Type (0, 0), BuildingBlock: AJUNOK_clean_linker_0, # of connection points: 2
#     Edge 52, Type (0, 0), BuildingBlock: AJUNOK_clean_linker_0, # of connection points: 2
#     Edge 53, Type (0, 0), BuildingBlock: AJUNOK_clean_linker_0, # of connection points: 2
#     Edge 54, Type (0, 0), BuildingBlock: AJUNOK_clean_linker_0, # of connection points: 2
#     Edge 55, Type (0, 0), BuildingBlock: AJUNOK_clean_linker_0, # of connection points: 2
#     Edge 56, Type (0, 0), BuildingBlock: AJUNOK_clean_linker_0, # of connection points: 2
#     Edge 57, Type (0, 0), BuildingBlock: AJUNOK_clean_linker_0, # of connection points: 2
#     Edge 58, Type (0, 0), BuildingBlock: AJUNOK_clean_linker_0, # of connection points: 2
#     Edge 59, Type (0, 0), BuildingBlock: AJUNOK_clean_linker_0, # of connection points: 2
#     Edge 60, Type (0, 0), BuildingBlock: AJUNOK_clean_linker_0, # of connection points: 2
#     Edge 61, Type (0, 0), BuildingBlock: AJUNOK_clean_linker_0, # of connection points: 2
#     Edge 62, Type (0, 0), BuildingBlock: AJUNOK_clean_linker_0, # of connection points: 2
#     Edge 63, Type (0, 0), BuildingBlock: AJUNOK_clean_linker_0, # of connection points: 2
#     Edge 64, Type (0, 0), BuildingBlock: AJUNOK_clean_linker_0, # of connection points: 2
#     Edge 65, Type (0, 0), BuildingBlock: AJUNOK_clean_linker_0, # of connection points: 2
#     Edge 66, Type (0, 0), BuildingBlock: AJUNOK_clean_linker_0, # of connection points: 2
#     Edge 67, Type (0, 0), BuildingBlock: AJUNOK_clean_linker_0, # of connection points: 2
#     Edge 68, Type (0, 0), BuildingBlock: AJUNOK_clean_linker_0, # of connection points: 2
#     Edge 69, Type (0, 0), BuildingBlock: AJUNOK_clean_linker_0, # of connection points: 2
#     Edge 70, Type (0, 0), BuildingBlock: AJUNOK_clean_linker_0, # of connection points: 2
#     Edge 71, Type (0, 0), BuildingBlock: AJUNOK_clean_linker_0, # of connection points: 2
# Relax obj value: 0.269
# Max RMSD: 0.281
# Mean RMSD: 0.269
data_MOF--net-xfh--node1-NUHQUE_clean_sbu_2--edge1-AJUNOK_clean_linker_0
_symmetry_space_group_name_H-M    P1
_symmetry_Int_Tables_number       1
_symmetry_cell_setting            triclinic
loop_
_symmetry_equiv_pos_as_xyz
'x, y, z'
_cell_length_a     27.057466
_cell_length_b     26.224759
_cell_length_c     54.573532
_cell_angle_alpha  90.22163
_cell_angle_beta   89.482689
_cell_angle_gamma 90.529494
loop_
_atom_site_label
_atom_site_type_symbol
_atom_site_fract_x
_atom_site_fract_y
_atom_site_fract_z
_atom_type_partial_charge
O0 O 0.23056 0.06851 0.06728 0.0
Tb1 Tb 0.22328 0.06465 0.10695 0.0
Eu2 Eu 0.32833 0.07386 0.14734 0.0
C3 C 0.21338 0.10805 0.05543 0.0
O4 O 0.19261 0.14496 0.06807 0.0
C5 C 0.25444 0.16349 0.13571 0.0
O6 O 0.35135 0.06575 0.18649 0.0
C7 C 0.40484 0.08919 0.1192 0.0
C8 C 0.31847 0.04895 0.20244 0.0
O9 O 0.27427 0.03628 0.19455 0.0
C10 C 0.28155 0.96886 0.12757 0.0
C11 C 0.44756 0.06123 0.10851 0.0
C12 C 0.45144 0.05654 0.08285 0.0
C13 C 0.49231 0.03251 0.072 0.0
C14 C 0.52961 1.01357 0.08681 0.0
C15 C 0.52717 0.01802 0.11237 0.0
C16 C 0.48613 0.04225 0.12325 0.0
O17 O 0.24736 0.14338 0.11389 0.0
O18 O 0.27542 0.13767 0.15318 0.0
O19 O 0.14536 0.06002 0.09709 0.0
O20 O 0.16396 0.05147 0.13444 0.0
C21 C 0.12742 0.05226 0.11896 0.0
O22 O 0.3009 0.99398 0.14599 0.0
O23 O 0.25997 0.99073 0.10881 0.0
O24 O 0.40495 0.09758 0.14298 0.0
O25 O 0.36053 0.07832 0.11057 0.0
H26 H 0.423 0.07217 0.07128 0.0
H27 H 0.56223 0.99743 0.07818 0.0
H28 H 0.48468 0.04671 0.14299 0.0
O29 O 0.71944 0.71629 0.39341 0.0
Tb30 Tb 0.7137 0.63401 0.40188 0.0
Eu31 Eu 0.72595 0.51228 0.36803 0.0
C32 C 0.74847 0.74689 0.40638 0.0
O33 O 0.77542 0.7268 0.42371 0.0
C34 C 0.81029 0.57246 0.39336 0.0
O35 O 0.73033 0.42458 0.3674 0.0
C36 C 0.74632 0.55963 0.32704 0.0
C37 C 0.72712 0.39925 0.38834 0.0
O38 O 0.72135 0.42617 0.4085 0.0
C39 C 0.62229 0.56218 0.38556 0.0
C40 C 0.73043 0.57602 0.30228 0.0
C41 C 0.74226 0.62589 0.29388 0.0
C42 C 0.73179 0.64013 0.26958 0.0
C43 C 0.71042 0.60422 0.25386 0.0
C44 C 0.69934 0.55457 0.26157 0.0
C45 C 0.70902 0.54066 0.28588 0.0
O46 O 0.78865 0.61638 0.38898 0.0
O47 O 0.78423 0.53027 0.39541 0.0
O48 O 0.69811 0.66256 0.43887 0.0
O49 O 0.72396 0.58704 0.43471 0.0
C50 C 0.71032 0.62154 0.45055 0.0
O51 O 0.64756 0.52035 0.38107 0.0
O52 O 0.64224 0.6086 0.38672 0.0
O53 O 0.75421 0.51077 0.33062 0.0
O54 O 0.7274 0.58262 0.34635 0.0
H55 H 0.76062 0.65283 0.30593 0.0
H56 H 0.70553 0.61429 0.23477 0.0
H57 H 0.70154 0.50186 0.2917 0.0
O58 O 0.32898 0.90843 0.57255 0.0
Tb59 Tb 0.32566 0.93492 0.61042 0.0
Eu60 Eu 0.1884 0.92093 0.61973 0.0
C61 C 0.29302 0.91626 0.55698 0.0
O62 O 0.2519 0.93691 0.56501 0.0
C63 C 0.27012 0.83667 0.62589 0.0
O64 O 0.16783 0.92555 0.6599 0.0
C65 C 0.10854 0.92328 0.59371 0.0
C66 C 0.20253 0.92622 0.67663 0.0
O67 O 0.2484 0.91852 0.66971 0.0
C68 C 0.25361 0.02844 0.61643 0.0
C69 C 0.06297 0.95278 0.58922 0.0
C70 C 0.04969 0.96342 0.5649 0.0
C71 C 1.00456 0.98713 0.55955 0.0
C72 C 0.97277 1.00019 0.579 0.0
C73 C 0.98532 0.99006 0.60347 0.0
C74 C 0.03055 0.96643 0.60849 0.0
O75 O 0.29961 0.87313 0.63347 0.0
O76 O 0.23041 0.84754 0.61339 0.0
O77 O 0.40578 0.92848 0.60655 0.0
O78 O 0.37679 0.96681 0.63767 0.0
C79 C 0.41715 0.9518 0.62683 0.0
O80 O 0.21735 1.00107 0.62614 0.0
O81 O 0.29147 1.00848 0.60465 0.0
O82 O 0.11163 0.89931 0.61478 0.0
O83 O 0.15103 0.94268 0.58601 0.0
H84 H 0.07435 0.95248 0.55005 0.0
H85 H 0.93702 0.01642 0.57506 0.0
H86 H 0.04002 0.9581 0.6273 0.0
O87 O 0.83136 0.55253 0.82488 0.0
Tb88 Tb 0.82231 0.58486 0.86135 0.0
Eu89 Eu 0.83084 0.46241 0.87854 0.0
C90 C 0.86491 0.56858 0.80906 0.0
O91 O 0.89807 0.60233 0.81614 0.0
C92 C 0.9186 0.54137 0.88112 0.0
O93 O 0.83652 0.43501 0.91776 0.0
C94 C 0.81325 0.3932 0.84595 0.0
C95 C 0.83206 0.46989 0.93513 0.0
O96 O 0.82799 0.51773 0.92845 0.0
C97 C 0.72862 0.52494 0.88072 0.0
C98 C 0.77673 0.35275 0.84071 0.0
C99 C 0.76141 0.34384 0.81651 0.0
C100 C 0.73405 0.29964 0.81063 0.0
C101 C 0.722 0.26473 0.82915 0.0
C102 C 0.73782 0.27314 0.85317 0.0
C103 C 0.76332 0.31799 0.85907 0.0
O104 O 0.88442 0.57493 0.88605 0.0
O105 O 0.90582 0.49762 0.8715 0.0
O106 O 0.83516 0.66233 0.84777 0.0
O107 O 0.78667 0.64953 0.87825 0.0
C108 C 0.80625 0.68376 0.86396 0.0
O109 O 0.75694 0.49183 0.89168 0.0
O110 O 0.74657 0.5574 0.8647 0.0
O111 O 0.84159 0.38588 0.86514 0.0
O112 O 0.79883 0.44074 0.84339 0.0
H113 H 0.77377 0.36922 0.80204 0.0
H114 H 0.70414 0.22885 0.82444 0.0
H115 H 0.77678 0.32312 0.87759 0.0
O116 O 0.81021 0.98348 0.94765 0.0
Tb117 Tb 0.83263 0.99403 0.90937 0.0
Eu118 Eu 0.70341 0.97688 0.90024 0.0
C119 C 0.80801 0.93811 0.95795 0.0
O120 O 0.81702 0.89733 0.9447 0.0
C121 C 0.78422 0.89542 0.89068 0.0
O122 O 0.70677 0.97719 0.85834 0.0
C123 C 0.61706 0.96497 0.91988 0.0
C124 C 0.68836 1.01492 0.84545 0.0
O125 O 0.66611 0.05192 0.8573 0.0
C126 C 0.75992 0.08025 0.89947 0.0
C127 C 0.58014 0.99927 0.93118 0.0
C128 C 0.57296 1.00003 0.95679 0.0
C129 C 0.53519 0.02954 0.96742 0.0
C130 C 0.50491 0.05828 0.95219 0.0
C131 C 0.5118 0.05821 0.9267 0.0
C132 C 0.5501 0.02947 0.91639 0.0
O133 O 0.81713 0.93046 0.88504 0.0
O134 O 0.74737 0.90625 0.90544 0.0
O135 O 0.89462 0.04815 0.91004 0.0
O136 O 0.90888 0.96963 0.90437 0.0
C137 C 0.92883 1.0148 0.90581 0.0
O138 O 0.7257 0.05562 0.91168 0.0
O139 O 0.79804 0.05606 0.89035 0.0
O140 O 0.62413 0.96868 0.89603 0.0
O141 O 0.65815 0.95874 0.93216 0.0
H142 H 0.5964 0.97728 0.96836 0.0
H143 H 0.47341 0.07772 0.96016 0.0
H144 H 0.5546 0.02871 0.89663 0.0
O145 O 0.31754 0.5303 0.71055 0.0
Tb146 Tb 0.3242 0.53297 0.67108 0.0
Eu147 Eu 0.33206 0.43571 0.63004 0.0
C148 C 0.35336 0.54614 0.72486 0.0
O149 O 0.39494 0.56258 0.71497 0.0
C150 C 0.42338 0.5056 0.64479 0.0
O151 O 0.32615 0.41074 0.59085 0.0
C152 C 0.33876 0.3582 0.65923 0.0
C153 C 0.31298 0.4458 0.57518 0.0
O154 O 0.30281 0.49157 0.58361 0.0
C155 C 0.23004 0.48192 0.64809 0.0
C156 C 0.30853 0.31307 0.66668 0.0
C157 C 0.29341 0.30726 0.69139 0.0
C158 C 0.26612 0.26393 0.69863 0.0
C159 C 0.25472 0.2263 0.68131 0.0
C160 C 0.27021 0.2305 0.65691 0.0
C161 C 0.29716 0.27398 0.64961 0.0
O162 O 0.40191 0.51103 0.66637 0.0
O163 O 0.39814 0.48761 0.62625 0.0
O164 O 0.32249 0.61481 0.67787 0.0
O165 O 0.30754 0.58755 0.64192 0.0
C166 C 0.31098 0.62814 0.65573 0.0
O167 O 0.25511 0.46603 0.62892 0.0
O168 O 0.25217 0.49469 0.66863 0.0
O169 O 0.35607 0.35845 0.63661 0.0
O170 O 0.32396 0.40342 0.6668 0.0
H171 H 0.30336 0.33581 0.70493 0.0
H172 H 0.23592 0.19173 0.68731 0.0
H173 H 0.30976 0.27673 0.63075 0.0
O174 O 0.72043 0.06288 0.46043 0.0
Tb175 Tb 0.71183 0.0723 0.42122 0.0
Eu176 Eu 0.80396 0.07342 0.37904 0.0
C177 C 0.70891 0.09769 0.47683 0.0
O178 O 0.69101 0.14145 0.46957 0.0
C179 C 0.74723 0.17445 0.39563 0.0
O180 O 0.82729 0.06499 0.33959 0.0
C181 C 0.88036 0.07947 0.40786 0.0
C182 C 0.79235 0.06352 0.32304 0.0
O183 O 0.74622 0.06674 0.33056 0.0
C184 C 0.75489 0.97092 0.39857 0.0
C185 C 0.923 0.05275 0.41924 0.0
C186 C 0.92195 0.04147 0.44459 0.0
C187 C 0.9638 0.02136 0.45618 0.0
C188 C 1.00667 1.01278 0.44231 0.0
C189 C 1.00904 0.02364 0.41722 0.0
C190 C 0.96721 0.04408 0.40576 0.0
O191 O 0.73905 0.15106 0.41671 0.0
O192 O 0.7625 0.1482 0.37643 0.0
O193 O 0.63307 0.07281 0.43044 0.0
O194 O 0.65448 0.06047 0.39334 0.0
C195 C 0.61683 0.06426 0.40839 0.0
O196 O 0.76846 0.9947 0.37843 0.0
O197 O 0.74641 0.99705 0.41879 0.0
O198 O 0.88232 0.08842 0.38417 0.0
O199 O 0.83518 0.06971 0.41594 0.0
H200 H 0.88902 0.04918 0.45538 0.0
H201 H 0.03949 0.99942 0.45148 0.0
H202 H 0.9695 0.05384 0.38651 0.0
O203 O 0.20437 0.47869 0.21526 0.0
Tb204 Tb 0.20113 0.47016 0.17572 0.0
Eu205 Eu 0.19416 0.57834 0.13884 0.0
C206 C 0.16792 0.46448 0.2299 0.0
O207 O 0.12697 0.44625 0.22037 0.0
C208 C 0.10705 0.49632 0.14659 0.0
O209 O 0.20178 0.60726 0.10026 0.0
C210 C 0.18508 0.64844 0.17229 0.0
C211 C 0.20662 0.57008 0.08417 0.0
O212 O 0.20794 0.52329 0.09263 0.0
C213 C 0.29549 0.52154 0.1502 0.0
C214 C 0.21208 0.69515 0.18027 0.0
C215 C 0.21941 0.70582 0.20543 0.0
C216 C 0.24163 0.75232 0.21288 0.0
C217 C 0.25744 0.78695 0.19498 0.0
C218 C 0.25088 0.77661 0.17001 0.0
C219 C 0.22817 0.73098 0.16272 0.0
O220 O 0.12365 0.48841 0.1688 0.0
O221 O 0.13209 0.52429 0.13104 0.0
O222 O 0.20535 0.38903 0.18375 0.0
O223 O 0.21094 0.41338 0.14664 0.0
C224 C 0.21108 0.37403 0.16113 0.0
O225 O 0.27026 0.54811 0.13446 0.0
O226 O 0.27562 0.50209 0.17028 0.0
O227 O 0.16396 0.65058 0.15064 0.0
O228 O 0.20583 0.60408 0.17663 0.0
H229 H 0.20677 0.67875 0.21913 0.0
H230 H 0.27443 0.82275 0.20054 0.0
H231 H 0.22258 0.72387 0.14336 0.0
O232 O 0.73063 0.57192 0.5696 0.0
Tb233 Tb 0.72572 0.56803 0.60948 0.0
Eu234 Eu 0.83257 0.57086 0.64972 0.0
C235 C 0.71166 0.6103 0.5575 0.0
O236 O 0.69085 0.64742 0.56999 0.0
C237 C 0.76103 0.66442 0.63938 0.0
O238 O 0.85929 0.5612 0.68842 0.0
C239 C 0.90768 0.58736 0.62058 0.0
C240 C 0.82956 0.5407 0.70491 0.0
O241 O 0.78572 0.52463 0.69797 0.0
C242 C 0.77921 0.46865 0.62969 0.0
C243 C 0.95287 0.56321 0.61014 0.0
C244 C 0.96006 0.56318 0.58451 0.0
C245 C 1.00436 0.54526 0.57403 0.0
C246 C 0.04072 0.52568 0.58932 0.0
C247 C 0.03501 0.52583 0.61485 0.0
C248 C 0.991 0.5448 0.62529 0.0
O249 O 0.7514 0.64611 0.61738 0.0
O250 O 0.78075 0.63586 0.6563 0.0
O251 O 0.64687 0.56291 0.60124 0.0
O252 O 0.66894 0.55542 0.63819 0.0
C253 C 0.63108 0.55525 0.62353 0.0
O254 O 0.80175 0.49168 0.64792 0.0
O255 O 0.76042 0.49288 0.61083 0.0
O256 O 0.9077 0.59812 0.64412 0.0
O257 O 0.86418 0.57184 0.61258 0.0
H258 H 0.93187 0.57874 0.57277 0.0
H259 H 0.07457 0.51118 0.58122 0.0
H260 H 0.9868 0.54559 0.64505 0.0
O261 O 0.21605 0.22586 0.89616 0.0
Tb262 Tb 0.22041 0.14237 0.90078 0.0
Eu263 Eu 0.24007 0.01699 0.87315 0.0
C264 C 0.25548 0.25485 0.89185 0.0
O265 O 0.29805 0.23284 0.88756 0.0
C266 C 0.3214 0.08999 0.89206 0.0
O267 O 0.24634 0.93001 0.87414 0.0
C268 C 0.24852 0.05704 0.82977 0.0
C269 C 0.23821 0.90512 0.89483 0.0
O270 O 0.22643 0.93196 0.91437 0.0
C271 C 0.13577 0.0632 0.88825 0.0
C272 C 0.22723 0.06904 0.80562 0.0
C273 C 0.23028 0.11978 0.79724 0.0
C274 C 0.21591 0.13208 0.77337 0.0
C275 C 0.19844 0.0933 0.7579 0.0
C276 C 0.19655 0.04234 0.76554 0.0
C277 C 0.21068 0.03034 0.78957 0.0
O278 O 0.29489 0.13001 0.88629 0.0
O279 O 0.3011 0.0453 0.89644 0.0
O280 O 0.20952 0.16966 0.9382 0.0
O281 O 0.2299 0.0926 0.93269 0.0
C282 C 0.21949 0.12714 0.94911 0.0
O283 O 0.16564 0.0243 0.89029 0.0
O284 O 0.15197 0.11068 0.88522 0.0
O285 O 0.26012 1.00956 0.83462 0.0
O286 O 0.23252 0.08252 0.84897 0.0
H287 H 0.24578 0.14932 0.80891 0.0
H288 H 0.1906 0.10231 0.73894 0.0
H289 H 0.21081 0.99082 0.7953 0.0
O290 O 0.81499 0.44864 0.05664 0.0
Tb291 Tb 0.82178 0.42905 0.09529 0.0
Eu292 Eu 0.6896 0.42533 0.11688 0.0
C293 C 0.83038 0.41695 0.03941 0.0
O294 O 0.84887 0.37299 0.04602 0.0
C295 C 0.76717 0.33058 0.11361 0.0
O296 O 0.67997 0.46074 0.15417 0.0
C297 C 0.6022 0.40374 0.10031 0.0
C298 C 0.68498 0.43372 0.17424 0.0
O299 O 0.69758 0.3856 0.17263 0.0
C300 C 0.75526 0.52312 0.10769 0.0
C301 C 0.55761 0.4317 0.09218 0.0
C302 C 0.55184 0.4449 0.06737 0.0
C303 C 0.50936 0.47047 0.05956 0.0
C304 C 0.47249 0.48275 0.07665 0.0
C305 C 0.4774 0.47026 0.10148 0.0
C306 C 0.5198 0.44433 0.10913 0.0
O307 O 0.79254 0.35137 0.09553 0.0
O308 O 0.73485 0.35632 0.12678 0.0
O309 O 0.90138 0.43555 0.08832 0.0
O310 O 0.87624 0.42123 0.12454 0.0
C311 C 0.91518 0.42924 0.11091 0.0
O312 O 0.71458 0.50017 0.10055 0.0
O313 O 0.79417 0.49676 0.11382 0.0
O314 O 0.6125 0.40655 0.12377 0.0
O315 O 0.64196 0.40542 0.08614 0.0
H316 H 0.58009 0.43498 0.05402 0.0
H317 H 0.43976 0.50245 0.07057 0.0
H318 H 0.52343 0.43455 0.12829 0.0
O319 O 0.30947 0.04564 0.322 0.0
Tb320 Tb 0.31015 0.06008 0.36107 0.0
Eu321 Eu 0.31676 0.96133 0.3997 0.0
C322 C 0.3467 0.05955 0.30785 0.0
O323 O 0.38526 0.08203 0.31777 0.0
C324 C 0.40652 0.03184 0.38815 0.0
O325 O 0.30367 0.91945 0.43528 0.0
C326 C 0.32703 0.90155 0.36177 0.0
C327 C 0.33723 0.92126 0.45256 0.0
O328 O 0.38104 0.94041 0.44721 0.0
C329 C 0.21394 1.01204 0.38693 0.0
C330 C 0.30546 0.85394 0.35131 0.0
C331 C 0.29582 0.84948 0.32585 0.0
C332 C 0.2797 0.80237 0.31573 0.0
C333 C 0.273 0.76082 0.33145 0.0
C334 C 0.28451 0.76419 0.35626 0.0
C335 C 0.29923 0.81082 0.36636 0.0
O336 O 0.3867 0.03526 0.36631 0.0
O337 O 0.37897 0.01644 0.40654 0.0
O338 O 0.30617 0.13963 0.34985 0.0
O339 O 0.31117 0.12268 0.38783 0.0
C340 C 0.30786 0.15918 0.37179 0.0
O341 O 0.24039 0.99149 0.40422 0.0
O342 O 0.23416 0.0318 0.367 0.0
O343 O 0.35198 0.89673 0.38225 0.0
O344 O 0.30004 0.94302 0.36134 0.0
H345 H 0.30266 0.88183 0.31397 0.0
H346 H 0.26034 0.72444 0.32419 0.0
H347 H 0.30812 0.81265 0.38567 0.0
O348 O 0.31169 0.46813 0.4571 0.0
Tb349 Tb 0.32504 0.47951 0.41843 0.0
Eu350 Eu 0.19931 0.46499 0.39099 0.0
C351 C 0.32818 0.42897 0.46938 0.0
O352 O 0.35371 0.39369 0.45791 0.0
C353 C 0.28093 0.37274 0.39658 0.0
O354 O 0.17196 0.46333 0.35216 0.0
C355 C 0.12903 0.47607 0.42326 0.0
C356 C 0.20616 0.46177 0.3349 0.0
O357 O 0.25266 0.46015 0.34161 0.0
C358 C 0.26247 0.56506 0.3966 0.0
C359 C 0.08892 0.50898 0.43297 0.0
C360 C 0.08452 0.51614 0.45851 0.0
C361 C 0.0426 0.53984 0.46873 0.0
C362 C 1.0057 0.55742 0.45318 0.0
C363 C 1.00882 0.55001 0.4278 0.0
C364 C 0.05086 0.52638 0.41768 0.0
O365 O 0.31767 0.40085 0.40526 0.0
O366 O 0.23592 0.38884 0.39221 0.0
O367 O 0.39984 0.50259 0.42942 0.0
O368 O 0.38197 0.50243 0.39163 0.0
C369 C 0.41667 0.512 0.40743 0.0
O370 O 0.23877 0.53701 0.38072 0.0
O371 O 0.27782 0.54609 0.41723 0.0
O372 O 0.12258 0.45498 0.40157 0.0
O373 O 0.17537 0.48888 0.42772 0.0
H374 H 0.11227 0.50057 0.4705 0.0
H375 H 0.97275 0.57435 0.4611 0.0
H376 H 0.05271 0.51951 0.3981 0.0
O377 O 0.80796 0.03251 0.2032 0.0
Tb378 Tb 0.81964 0.0303 0.16385 0.0
Eu379 Eu 0.82607 0.93899 0.11875 0.0
C380 C 0.84278 0.04178 0.21928 0.0
O381 O 0.8888 0.04727 0.21182 0.0
C382 C 0.9184 1.00489 0.1378 0.0
O383 O 0.82967 0.9299 0.07747 0.0
C384 C 0.83481 0.85559 0.14421 0.0
C385 C 0.79182 0.91536 0.06404 0.0
O386 O 0.75067 0.90036 0.07487 0.0
C387 C 0.72541 0.97976 0.14055 0.0
C388 C 0.80691 0.81091 0.15452 0.0
C389 C 0.79879 0.80617 0.18016 0.0
C390 C 0.7762 0.76182 0.18987 0.0
C391 C 0.76187 0.72249 0.17396 0.0
C392 C 0.77084 0.72559 0.14873 0.0
C393 C 0.79328 0.76978 0.13909 0.0
O394 O 0.89707 1.0072 0.15959 0.0
O395 O 0.89304 0.99035 0.11858 0.0
O396 O 0.81406 0.11256 0.16876 0.0
O397 O 0.80866 0.08178 0.13274 0.0
C398 C 0.80782 0.12359 0.14578 0.0
O399 O 0.74907 0.96886 0.12016 0.0
O400 O 0.74896 0.98948 0.16106 0.0
O401 O 0.84046 0.85779 0.12022 0.0
O402 O 0.82848 0.90077 0.15439 0.0
H403 H 0.81097 0.83612 0.1925 0.0
H404 H 0.74614 0.68767 0.18154 0.0
H405 H 0.80125 0.77125 0.11961 0.0
O406 O 0.21857 0.56925 0.96317 0.0
Tb407 Tb 0.21748 0.57913 0.92377 0.0
Eu408 Eu 0.31932 0.58272 0.88475 0.0
C409 C 0.20826 0.60619 0.9787 0.0
O410 O 0.19705 0.65141 0.97026 0.0
C411 C 0.25918 0.68115 0.90087 0.0
O412 O 0.34392 0.57369 0.84568 0.0
C413 C 0.39634 0.58802 0.913 0.0
C414 C 0.31011 0.56427 0.82914 0.0
O415 O 0.2637 0.5608 0.8363 0.0
C416 C 0.26322 0.47847 0.90037 0.0
C417 C 0.44032 0.56026 0.92227 0.0
C418 C 0.4422 0.54653 0.94723 0.0
C419 C 0.48546 0.52597 0.95718 0.0
C420 C 0.52625 0.51739 0.94183 0.0
C421 C 0.52621 0.53195 0.91719 0.0
C422 C 0.483 0.55329 0.9074 0.0
O423 O 0.24904 0.65647 0.92133 0.0
O424 O 0.27665 0.65628 0.88178 0.0
O425 O 0.13781 0.5864 0.92985 0.0
O426 O 0.16418 0.56832 0.89408 0.0
C427 C 0.12471 0.57608 0.90747 0.0
O428 O 0.28533 0.50388 0.88259 0.0
O429 O 0.24686 0.50159 0.92034 0.0
O430 O 0.39674 0.60179 0.88985 0.0
O431 O 0.35196 0.57478 0.92114 0.0
H432 H 0.4108 0.55389 0.95917 0.0
H433 H 0.55938 0.50107 0.94948 0.0
H434 H 0.48308 0.56522 0.88842 0.0
O435 O 0.71513 0.97497 0.72522 0.0
Tb436 Tb 0.71638 0.97194 0.68489 0.0
Eu437 Eu 0.70187 0.06152 0.63712 0.0
C438 C 0.6997 0.01551 0.7374 0.0
O439 O 0.68507 0.05505 0.72478 0.0
C440 C 0.6209 0.98705 0.65538 0.0
O441 O 0.70597 0.08599 0.59768 0.0
C442 C 0.67907 0.13675 0.66591 0.0
C443 C 0.71921 0.0518 0.58128 0.0
O444 O 0.72996 1.0058 0.5889 0.0
C445 C 0.80738 0.0244 0.65632 0.0
C446 C 0.69787 0.18702 0.67414 0.0
C447 C 0.69789 0.19795 0.6994 0.0
C448 C 0.71332 0.24598 0.70799 0.0
C449 C 0.72994 0.28259 0.6912 0.0
C450 C 0.7303 0.27247 0.666 0.0
C451 C 0.71383 0.22478 0.65737 0.0
O452 O 0.63923 0.9928 0.67756 0.0
O453 O 0.64859 0.9966 0.63621 0.0
O454 O 0.72528 0.89036 0.69168 0.0
O455 O 0.72269 0.91598 0.65493 0.0
C456 C 0.72707 0.87605 0.66882 0.0
O457 O 0.78081 0.03975 0.63781 0.0
O458 O 0.78831 1.00951 0.67763 0.0
O459 O 0.66405 0.13309 0.64311 0.0
O460 O 0.70277 0.09619 0.67351 0.0
H461 H 0.68508 0.16935 0.71234 0.0
H462 H 0.74294 0.31939 0.69779 0.0
H463 H 0.71378 0.21719 0.63784 0.0
C464 C 0.22605 0.28359 0.17178 0.0
C465 C 0.21966 0.32062 0.15362 0.0
C466 C 0.23664 0.23305 0.16564 0.0
C467 C 0.24097 0.21718 0.14102 0.0
H468 H 0.22359 0.29378 0.19101 0.0
H469 H 0.2416 0.20624 0.18044 0.0
S470 S 0.22583 0.29937 0.08641 0.0
N471 N 0.21723 0.33822 0.10993 0.0
N472 N 0.23681 0.24277 0.09827 0.0
C473 C 0.23358 0.25367 0.12258 0.0
C474 C 0.22311 0.3055 0.12891 0.0
C475 C 0.48957 0.51541 0.37871 0.0
C476 C 0.46781 0.52913 0.40129 0.0
C477 C 0.53927 0.52761 0.37332 0.0
C478 C 0.56838 0.55577 0.3899 0.0
H479 H 0.46865 0.49332 0.3655 0.0
H480 H 0.55526 0.51432 0.35621 0.0
S481 S 0.52822 0.60349 0.45084 0.0
N482 N 0.47897 0.57352 0.44005 0.0
N483 N 0.57143 0.59839 0.42941 0.0
C484 C 0.54646 0.57156 0.41206 0.0
C485 C 0.49641 0.55776 0.41788 0.0
C486 C 0.26462 0.74168 0.61942 0.0
C487 C 0.2796 0.78357 0.63386 0.0
C488 C 0.27563 0.69137 0.6263 0.0
C489 C 0.30119 0.68125 0.64808 0.0
H490 H 0.24501 0.74782 0.60248 0.0
H491 H 0.26357 0.66023 0.61464 0.0
S492 S 0.34677 0.77725 0.69284 0.0
N493 N 0.32049 0.81119 0.67124 0.0
N494 N 0.34033 0.71718 0.68423 0.0
C495 C 0.31571 0.72273 0.66281 0.0
C496 C 0.30514 0.77374 0.65569 0.0
C497 C 0.03392 0.59051 0.91345 0.0
C498 C 0.07274 0.56968 0.89938 0.0
C499 C 0.98419 0.58245 0.90706 0.0
C500 C 0.97137 0.5521 0.88674 0.0
H501 H 0.04201 0.61305 0.92963 0.0
H502 H 0.95558 0.5989 0.91855 0.0
S503 S 0.05905 0.49005 0.84349 0.0
N504 N 0.09491 0.51892 0.86368 0.0
N505 N 1.00172 0.50252 0.85209 0.0
C506 C 1.00987 0.53151 0.87237 0.0
C507 C 0.06046 0.54065 0.87857 0.0
C508 C 0.7605 0.75435 0.88312 0.0
C509 C 0.79936 0.73859 0.86778 0.0
C510 C 0.75559 0.80529 0.88991 0.0
C511 C 0.7896 0.84254 0.88175 0.0
H512 H 0.73407 0.72691 0.89042 0.0
H513 H 0.72533 0.81512 0.90211 0.0
S514 S 0.89652 0.82084 0.83992 0.0
N515 N 0.87118 0.76379 0.84353 0.0
N516 N 0.86231 0.86032 0.85635 0.0
C517 C 0.82785 0.82752 0.86565 0.0
C518 C 0.83261 0.77531 0.8586 0.0
C519 C 0.4941 0.52619 0.61644 0.0
C520 C 0.47651 0.51982 0.64065 0.0
C521 C 0.54369 0.53844 0.61136 0.0
C522 C 0.57844 0.54448 0.63019 0.0
H523 H 0.46931 0.52176 0.60109 0.0
H524 H 0.55496 0.54258 0.59237 0.0
S525 S 0.55223 0.53269 0.69681 0.0
N526 N 0.49827 0.52146 0.68381 0.0
N527 N 0.59179 0.54381 0.67416 0.0
C528 C 0.56163 0.53868 0.65453 0.0
C529 C 0.51069 0.52662 0.65977 0.0
C530 C 0.75206 0.25821 0.37186 0.0
C531 C 0.74097 0.23169 0.39381 0.0
C532 C 0.74692 0.31183 0.36996 0.0
C533 C 0.73058 0.34177 0.38994 0.0
H534 H 0.76517 0.23745 0.35592 0.0
H535 H 0.75648 0.32999 0.35275 0.0
S536 S 0.69418 0.29149 0.45132 0.0
N537 N 0.71108 0.24043 0.43575 0.0
N538 N 0.70158 0.33974 0.4323 0.0
C539 C 0.7187 0.31558 0.41187 0.0
C540 C 0.72382 0.26119 0.41377 0.0
C541 C 0.974 0.44655 0.14546 0.0
C542 C 0.96575 0.43931 0.12019 0.0
C543 C 0.02029 0.46318 0.15423 0.0
C544 C 0.05975 0.47343 0.13798 0.0
H545 H 0.944 0.44117 0.1585 0.0
H546 H 0.02456 0.46995 0.17369 0.0
S547 S 0.0592 0.4531 0.07047 0.0
N548 N 1.00237 0.4386 0.07941 0.0
N549 N 0.08891 0.46932 0.09563 0.0
C550 C 0.05258 0.46344 0.11281 0.0
C551 C 1.00572 0.44654 0.10398 0.0
C552 C 0.74368 0.78464 0.67771 0.0
C553 C 0.73435 0.82268 0.66036 0.0
C554 C 0.7518 0.73398 0.67062 0.0
C555 C 0.75071 0.71876 0.6458 0.0
H556 H 0.74513 0.79405 0.69704 0.0
H557 H 0.75898 0.70652 0.68489 0.0
S558 S 0.72701 0.8039 0.59304 0.0
N559 N 0.72399 0.84197 0.61719 0.0
N560 N 0.7389 0.74652 0.60377 0.0
C561 C 0.74081 0.75641 0.6282 0.0
C562 C 0.73281 0.80836 0.63548 0.0
C563 C 0.04923 0.08923 0.89919 0.0
C564 C 0.08222 0.05191 0.89065 0.0
C565 C 0.99951 0.07694 0.90417 0.0
C566 C 0.98127 0.02696 0.90082 0.0
H567 H 0.06213 0.12777 0.90271 0.0
H568 H 0.97537 0.10665 0.91095 0.0
S569 S 0.05119 0.91647 0.87656 0.0
N570 N 0.09188 0.96367 0.87728 0.0
N571 N 0.9991 0.94081 0.88705 0.0
C572 C 0.01346 0.98973 0.89166 0.0
C573 C 0.06376 1.00217 0.88643 0.0
C574 C 0.7804 0.21269 0.1531 0.0
C575 C 0.79793 0.17556 0.13664 0.0
C576 C 0.76991 0.26223 0.14531 0.0
C577 C 0.7775 0.27711 0.12079 0.0
H578 H 0.7742 0.20333 0.17221 0.0
H579 H 0.75648 0.28932 0.15879 0.0
S580 S 0.82364 0.19419 0.07041 0.0
N581 N 0.82236 0.15665 0.09466 0.0
N582 N 0.804 0.25036 0.08003 0.0
C583 C 0.7955 0.2404 0.10412 0.0
C584 C 0.80528 0.18948 0.11202 0.0
C585 C 0.52828 0.05491 0.42118 0.0
C586 C 0.56364 0.05758 0.40216 0.0
C587 C 0.47792 0.04699 0.41634 0.0
C588 C 0.46034 0.04188 0.39221 0.0
H589 H 0.5396 0.05833 0.44011 0.0
H590 H 0.45257 0.04484 0.43178 0.0
S591 S 0.53768 0.04735 0.33566 0.0
N592 N 0.57759 0.05521 0.35812 0.0
N593 N 0.48286 0.04101 0.34893 0.0
C594 C 0.49525 0.04534 0.37292 0.0
C595 C 0.54683 0.05294 0.37791 0.0
C596 C 0.31738 0.23336 0.40065 0.0
C597 C 0.30347 0.21418 0.37754 0.0
C598 C 0.3118 0.2853 0.40658 0.0
C599 C 0.29094 0.31925 0.38978 0.0
H600 H 0.33254 0.20808 0.41425 0.0
H601 H 0.3224 0.29861 0.42461 0.0
S602 S 0.25003 0.28876 0.3267 0.0
N603 N 0.26975 0.23395 0.33754 0.0
N604 N 0.25791 0.33073 0.34898 0.0
C605 C 0.27748 0.30066 0.36659 0.0
C606 C 0.2841 0.24831 0.36038 0.0
C607 C 1.00682 0.01598 0.15242 0.0
C608 C 0.97115 0.02073 0.1339 0.0
C609 C 0.05731 0.02711 0.14779 0.0
C610 C 0.07385 0.04372 0.12454 0.0
H611 H 0.99593 1.00215 0.17037 0.0
H612 H 0.08364 0.02165 0.16236 0.0
S613 S 0.99458 0.06855 0.07074 0.0
N614 N 0.95586 0.04764 0.09203 0.0
N615 N 0.04961 0.06824 0.08349 0.0
C616 C 0.03819 0.0506 0.10627 0.0
C617 C 0.98721 0.03923 0.11091 0.0
C618 C 0.26465 0.76528 0.87794 0.0
C619 C 0.25328 0.73825 0.89967 0.0
C620 C 0.25947 0.81877 0.8764 0.0
C621 C 0.24272 0.848 0.89653 0.0
H622 H 0.2778 0.74502 0.86186 0.0
H623 H 0.26895 0.83733 0.85929 0.0
S624 S 0.20693 0.79631 0.95766 0.0
N625 N 0.22375 0.74569 0.94173 0.0
N626 N 0.21404 0.84508 0.93892 0.0
C627 C 0.23094 0.82141 0.91832 0.0
C628 C 0.23617 0.76706 0.91987 0.0
C629 C 0.50775 0.94169 0.62135 0.0
C630 C 0.46821 0.95875 0.63594 0.0
C631 C 0.55673 0.9491 0.62857 0.0
C632 C 0.56845 0.97363 0.6508 0.0
H633 H 0.50097 0.92324 0.60388 0.0
H634 H 0.58581 0.93629 0.61629 0.0
S635 S 0.47845 0.02298 0.69645 0.0
N636 N 0.44374 0.99935 0.67429 0.0
N637 N 0.53637 1.01318 0.68792 0.0
C638 C 0.52934 0.98921 0.66611 0.0
C639 C 0.47909 0.98193 0.65863 0.0
C640 C 0.20357 0.16102 0.99104 0.0
C641 C 0.21884 0.12037 0.97601 0.0
C642 C 0.20219 0.15652 0.01658 0.0
C643 C 0.21626 0.1112 0.02825 0.0
H644 H 0.19235 0.19678 0.98303 0.0
H645 H 0.18998 0.18909 0.02722 0.0
S646 S 0.25973 0.9934 0.99706 0.0
N647 N 0.24863 0.0333 0.97447 0.0
N648 N 0.24636 0.02463 0.02258 0.0
C649 C 0.23198 0.07018 0.01341 0.0
C650 C 0.23315 0.0748 0.98728 0.0
C651 C 0.71415 0.47257 0.2394 0.0
C652 C 0.68531 0.51649 0.24263 0.0
C653 C 0.71164 0.44389 0.21768 0.0
C654 C 0.68079 0.45874 0.19842 0.0
H655 H 0.74146 0.46245 0.25289 0.0
H656 H 0.73644 0.412 0.21535 0.0
S657 S 0.59082 0.56445 0.19984 0.0
N658 N 0.6191 0.56829 0.22649 0.0
N659 N 0.61575 0.51552 0.18533 0.0
C660 C 0.64889 0.49996 0.20224 0.0
C661 C 0.65071 0.52846 0.22449 0.0
C662 C 0.35084 0.90496 0.52127 0.0
C663 C 0.30205 0.90938 0.5302 0.0
C664 C 0.3615 0.90612 0.49607 0.0
C665 C 0.32384 0.91103 0.47863 0.0
H666 H 0.3815 0.90299 0.53384 0.0
H667 H 0.39987 0.90488 0.49027 0.0
S668 S 0.18921 0.91767 0.4922 0.0
N669 N 0.21518 0.91441 0.51941 0.0
N670 N 0.23511 0.91594 0.47208 0.0
C671 C 0.27455 0.91215 0.4872 0.0
C672 C 0.26371 0.91156 0.51294 0.0
C673 C 0.88968 0.57987 0.76492 0.0
C674 C 0.86027 0.5548 0.78267 0.0
C675 C 0.88106 0.57326 0.73976 0.0
C676 C 0.84256 0.54147 0.73132 0.0
H677 H 0.91842 0.60644 0.77043 0.0
H678 H 0.90347 0.59497 0.72691 0.0
S679 S 0.75938 0.46156 0.77 0.0
N680 N 0.79439 0.49257 0.78978 0.0
N681 N 0.77817 0.48048 0.74265 0.0
C682 C 0.81484 0.51381 0.74879 0.0
C683 C 0.82371 0.52035 0.77439 0.0
C684 C 0.82486 0.95856 0.02633 0.0
C685 C 0.79454 0.92044 0.03691 0.0
C686 C 0.8275 0.96525 1.0008 0.0
C687 C 0.80102 0.93317 0.98483 0.0
H688 H 0.84639 0.9839 0.03787 0.0
H689 H 0.85155 0.99488 0.99351 0.0
S690 S 0.71574 0.82819 1.00295 0.0
N691 N 0.73622 0.85122 0.02924 0.0
N692 N 0.74297 0.86245 0.98127 0.0
C693 C 0.7706 0.89495 0.99507 0.0
C694 C 0.76684 0.88898 0.0211 0.0
C695 C 0.29657 0.54108 0.76099 0.0
C696 C 0.34467 0.5489 0.75167 0.0
C697 C 0.28608 0.54577 0.78601 0.0
C698 C 0.32333 0.55825 0.80288 0.0
H699 H 0.26622 0.532 0.74883 0.0
H700 H 0.24829 0.53986 0.79207 0.0
S701 S 0.45617 0.57998 0.78819 0.0
N702 N 0.43048 0.56797 0.76143 0.0
N703 N 0.41087 0.57663 0.8086 0.0
C704 C 0.37191 0.56515 0.79395 0.0
C705 C 0.3826 0.56055 0.76834 0.0
C706 C 0.70026 0.11029 0.54633 0.0
C707 C 0.71949 0.06384 0.55467 0.0
C708 C 0.69767 0.12131 0.52121 0.0
C709 C 0.7143 0.08632 0.50337 0.0
H710 H 0.68622 0.1382 0.55927 0.0
H711 H 0.68183 0.15723 0.51578 0.0
S712 S 0.77128 0.96053 0.51562 0.0
N713 N 0.75782 0.98359 0.54301 0.0
N714 N 0.75313 1.00412 0.49603 0.0
C715 C 0.73488 0.04026 0.51151 0.0
C716 C 0.73744 0.02904 0.53706 0.0
C717 C 0.22311 0.47313 0.2661 0.0
C718 C 0.17524 0.46543 0.25686 0.0
C719 C 0.2323 0.47193 0.29126 0.0
C720 C 0.19401 0.46345 0.30844 0.0
H721 H 0.2542 0.47937 0.2538 0.0
H722 H 0.27003 0.47773 0.29723 0.0
S723 S 0.06147 0.4431 0.29405 0.0
N724 N 0.08856 0.45022 0.26702 0.0
N725 N 0.10591 0.44845 0.31447 0.0
C726 C 0.1457 0.45662 0.29959 0.0
C727 C 0.13633 0.45743 0.2738 0.0
C728 C 0.69217 0.65655 0.49224 0.0
C729 C 0.7106 0.61661 0.47763 0.0
C730 C 0.69284 0.65403 0.51791 0.0
C731 C 0.71218 0.61152 0.53015 0.0
H732 H 0.67707 0.69024 0.48379 0.0
H733 H 0.67807 0.68595 0.52819 0.0
S734 S 0.76543 0.49667 0.50019 0.0
N735 N 0.7489 0.5332 0.47715 0.0
N736 N 0.75046 0.52831 0.52537 0.0
C737 C 0.73084 0.5712 0.5157 0.0
C738 C 0.72993 0.57377 0.48948 0.0
C739 C 0.22881 0.93939 0.71996 0.0
C740 C 0.19268 0.94555 0.7018 0.0
C741 C 0.22695 0.96709 0.74198 0.0
C742 C 0.18903 1.00221 0.7466 0.0
H743 H 0.2605 0.91534 0.71655 0.0
H744 H 0.25763 0.96409 0.7545 0.0
S745 S 0.08122 0.02653 0.70699 0.0
N746 N 0.11439 0.9847 0.69142 0.0
N747 N 0.11115 0.03676 0.73281 0.0
C748 C 0.15031 1.00524 0.72966 0.0
C749 C 0.15202 0.97685 0.70726 0.0
C750 C 0.84692 0.40897 0.96984 0.0
C751 C 0.83001 0.45644 0.96167 0.0
C752 C 0.84653 0.39651 0.99491 0.0
C753 C 0.82882 0.43082 0.01289 0.0
H754 H 0.86132 0.38142 0.95684 0.0
H755 H 0.86061 0.35966 1.00018 0.0
S756 S 0.77691 0.55887 1.00094 0.0
N757 N 0.79272 0.53712 0.97359 0.0
N758 N 0.79181 0.51365 0.02039 0.0
C759 C 0.81074 0.478 1.00487 0.0
C760 C 0.8114 0.4908 0.97939 0.0
C761 C 0.29242 0.03051 0.2455 0.0
C762 C 0.32907 0.04806 0.22905 0.0
C763 C 0.2992 0.03308 0.27085 0.0
C764 C 0.3429 0.0534 0.2809 0.0
H765 H 0.25761 0.0155 0.23883 0.0
H766 H 0.26927 0.01995 0.28261 0.0
S767 S 0.45239 0.10019 0.2458 0.0
N768 N 0.41224 0.08328 0.22461 0.0
N769 N 0.42498 0.08814 0.27232 0.0
C770 C 0.38079 0.06919 0.26468 0.0
C771 C 0.37387 0.0665 0.23877 0.0
C772 C 0.29512 0.46845 0.50761 0.0
C773 C 0.32088 0.42815 0.49634 0.0
C774 C 0.29142 0.47252 0.53305 0.0
C775 C 0.31305 0.43634 0.54844 0.0
H776 H 0.27855 0.4982 0.49676 0.0
H777 H 0.27221 0.50507 0.54067 0.0
S778 S 0.38046 0.32058 0.52838 0.0
N779 N 0.36544 0.34909 0.50261 0.0
N780 N 0.35823 0.35669 0.55068 0.0
C781 C 0.33682 0.39434 0.53755 0.0
C782 C 0.34083 0.39026 0.51146 0.0
C783 C 0.85353 0.04993 0.28876 0.0
C784 C 0.80446 0.05828 0.29652 0.0
C785 C 0.86574 0.04473 0.2638 0.0
C786 C 0.82931 0.04743 0.24561 0.0
H787 H 0.88289 0.04719 0.30205 0.0
H788 H 0.90395 0.03814 0.25877 0.0
S789 S 0.69553 0.07122 0.25607 0.0
N790 N 0.71941 0.07063 0.28377 0.0
N791 N 0.7422 0.06081 0.23712 0.0
C792 C 0.78015 0.05618 0.25311 0.0
C793 C 0.76775 0.06162 0.27847 0.0
C794 C 0.20462 0.62859 0.04776 0.0
C795 C 0.20834 0.57902 0.0573 0.0
C796 C 0.20468 0.63713 0.02235 0.0
C797 C 0.20864 0.59646 1.0055 0.0
H798 H 0.20131 0.66105 0.05998 0.0
H799 H 0.20164 0.67598 0.01591 0.0
S800 S 0.21902 0.45912 0.02099 0.0
N801 N 0.21605 0.48852 0.04771 0.0
N802 N 0.2161 0.50461 1.0003 0.0
C803 C 0.2126 0.54673 0.01483 0.0
C804 C 0.21246 0.53801 0.04061 0.0
C805 C 0.71063 0.97308 0.77871 0.0
C806 C 0.69782 0.01643 0.76497 0.0
C807 C 0.708 0.97291 0.80458 0.0
C808 C 0.69223 0.01602 0.81796 0.0
H809 H 0.72252 0.93868 0.76943 0.0
H810 H 0.71793 0.93841 0.81413 0.0
S811 S 0.65672 0.14044 0.79108 0.0
N812 N 0.67037 0.1045 0.76713 0.0
N813 N 0.66537 0.10413 0.81525 0.0
C814 C 0.68003 0.0599 0.80446 0.0
C815 C 0.68284 0.06012 0.77818 0.0
C816 C 0.51433 0.07498 1.00659 0.0
C817 C 0.52455 0.0289 0.99422 0.0
C818 C 0.50169 0.07566 0.03154 0.0
C819 C 0.49916 0.03033 0.04509 0.0
H820 H 0.51659 0.11096 0.99694 0.0
H821 H 0.49534 0.11202 0.04046 0.0
S822 S 0.51923 0.89942 0.02139 0.0
N823 N 0.52834 0.93647 0.99733 0.0
N824 N 0.50601 0.93807 0.04444 0.0
C825 C 0.50865 0.98398 0.033 0.0
C826 C 0.5211 0.98317 1.00754 0.0
C827 C 0.79607 0.69472 0.24945 0.0
C828 C 0.7472 0.68946 0.25824 0.0
C829 C 0.80723 0.72541 0.22893 0.0
C830 C 0.76994 0.75194 0.21658 0.0
H831 H 0.82463 0.67025 0.2565 0.0
H832 H 0.84405 0.72359 0.22101 0.0
S833 S 0.63796 0.75736 0.23479 0.0
N834 N 0.66282 0.71892 0.25509 0.0
N835 N 0.68374 0.77613 0.21662 0.0
C836 C 0.7223 0.75167 0.22699 0.0
C837 C 0.71098 0.72065 0.24784 0.0
C838 C 0.98366 0.96432 0.49137 0.0
C839 C 0.9657 1.01138 0.48304 0.0
C840 C 0.99524 0.95667 0.51609 0.0
C841 C 0.98951 0.99578 0.53359 0.0
H842 H 0.99028 0.93358 0.47846 0.0
H843 H 1.00939 0.9199 0.52147 0.0
S844 S 0.94311 0.12601 0.52133 0.0
N845 N 0.94178 0.09735 0.49433 0.0
N846 N 0.9637 0.08326 0.5408 0.0
C847 C 0.97004 0.04256 0.52565 0.0
C848 C 0.95808 0.05026 0.50042 0.0
C849 C 0.73869 0.22594 0.75078 0.0
C850 C 0.7139 0.25809 0.73454 0.0
C851 C 0.74435 0.23947 0.77546 0.0
C852 C 0.72524 0.28547 0.78476 0.0
H853 H 0.75523 0.19094 0.7442 0.0
H854 H 0.76484 0.21427 0.78725 0.0
S855 S 0.6522 0.37972 0.7505 0.0
N856 N 0.66654 0.33582 0.72991 0.0
N857 N 0.67727 0.36104 0.77642 0.0
C858 C 0.69891 0.31703 0.76896 0.0
C859 C 0.69312 0.30332 0.74383 0.0
C860 C 0.2764 0.19729 0.75833 0.0
C861 C 0.2268 0.18264 0.76233 0.0
C862 C 0.28928 0.23171 0.73958 0.0
C863 C 0.25287 0.25248 0.72443 0.0
H864 H 0.30571 0.17759 0.76769 0.0
H865 H 0.32803 0.23701 0.735 0.0
S866 S 0.11751 0.23486 0.73112 0.0
N867 N 0.14098 0.19825 0.75258 0.0
N868 N 0.16516 0.26295 0.71747 0.0
C869 C 0.20303 0.24357 0.73059 0.0
C870 C 0.18996 0.20847 0.74951 0.0
C871 C 0.27812 0.73384 0.2539 0.0
C872 C 0.24956 0.76561 0.23917 0.0
C873 C 0.28961 0.74757 0.27808 0.0
C874 C 0.27223 0.79327 0.28887 0.0
H875 H 0.29253 0.69851 0.24651 0.0
H876 H 0.31213 0.72172 0.28854 0.0
S877 S 0.19604 0.88997 0.25781 0.0
N878 N 0.20487 0.84547 0.23675 0.0
N879 N 0.22514 0.87041 0.28249 0.0
C880 C 0.2441 0.82573 0.27418 0.0
C881 C 0.23291 0.81201 0.24936 0.0
C882 C 0.97892 0.52635 0.53085 0.0
C883 C 0.01377 0.54695 0.54713 0.0
C884 C 0.98887 0.52386 0.50561 0.0
C885 C 0.034 0.54194 0.49566 0.0
H886 H 0.94422 0.51092 0.53772 0.0
H887 H 0.96118 0.50701 0.49377 0.0
S888 S 0.1359 0.60311 0.5302 0.0
N889 N 0.09408 0.5886 0.55134 0.0
N890 N 0.11273 0.5833 0.5039 0.0
C891 C 0.06882 0.56332 0.51166 0.0
C892 C 0.05866 0.56611 0.53736 0.0
C893 C 0.4609 0.47059 0.02056 0.0
C894 C 0.50338 0.48551 0.0336 0.0
C895 C 0.4544 0.48501 0.99603 0.0
C896 C 0.49001 0.51515 0.9838 0.0
H897 H 0.43291 0.44688 0.02929 0.0
H898 H 0.42198 0.47141 0.98641 0.0
S899 S 0.60454 0.56952 1.01094 0.0
N900 N 0.57948 0.53518 0.03319 0.0
N901 N 0.56697 0.56342 0.98742 0.0
C902 C 0.53164 0.53199 0.99705 0.0
C903 C 0.53845 0.51682 0.02184 0.0
C904 C 0.22635 0.83958 0.13845 0.0
C905 C 0.26391 0.81658 0.15208 0.0
C906 C 0.2341 0.88738 0.12753 0.0
C907 C 0.27951 0.91316 0.13014 0.0
H908 H 0.18955 0.82295 0.13819 0.0
H909 H 0.20298 0.90633 0.11929 0.0
S910 S 0.39255 0.86336 0.15907 0.0
N911 N 0.35027 0.81853 0.16377 0.0
N912 N 0.36484 0.90845 0.14339 0.0
C913 C 0.31888 0.88766 0.14116 0.0
C914 C 0.31105 0.83922 0.15216 0.0
C915 C 0.93877 0.60619 0.41571 0.0
C916 C 0.96386 0.55957 0.41318 0.0
C917 C 0.88988 0.61144 0.40773 0.0
C918 C 0.86429 0.56999 0.39727 0.0
H919 H 0.95611 0.63788 0.42522 0.0
H920 H 0.8711 0.64708 0.41123 0.0
S921 S 0.9155 0.44199 0.38361 0.0
N922 N 0.961 0.47294 0.39728 0.0
N923 N 0.86954 0.48277 0.38211 0.0
C924 C 0.89023 0.52446 0.39297 0.0
C925 C 0.93998 0.51927 0.40092 0.0
C926 C 0.29985 0.11148 0.62064 0.0
C927 C 0.25463 0.08428 0.62147 0.0
C928 C 0.30383 0.16127 0.63007 0.0
C929 C 0.2627 0.18573 0.64053 0.0
H930 H 0.33326 0.09311 0.61422 0.0
H931 H 0.34006 0.1791 0.63086 0.0
S932 S 0.13411 0.13564 0.64276 0.0
N933 N 0.16642 0.08889 0.63039 0.0
N934 N 0.17408 0.18234 0.6479 0.0
C935 C 0.21647 0.16094 0.63934 0.0
C936 C 0.21239 0.11026 0.6299 0.0
C937 C 0.6515 0.48255 0.89681 0.0
C938 C 0.67485 0.52603 0.88686 0.0
C939 C 0.60199 0.48365 0.90466 0.0
C940 C 0.57375 0.52844 0.90319 0.0
H941 H 0.67191 0.44755 0.89905 0.0
H942 H 0.58626 0.44967 0.91298 0.0
S943 S 0.61663 0.65222 0.87768 0.0
N944 N 0.66495 0.61461 0.87479 0.0
N945 N 0.5724 0.61687 0.89018 0.0
C946 C 0.59589 0.57154 0.89228 0.0
C947 C 0.64629 0.57032 0.88403 0.0
C948 C 0.79369 0.16323 0.88594 0.0
C949 C 0.75227 0.13354 0.89246 0.0
C950 C 0.78815 0.21055 0.8749 0.0
C951 C 0.741 0.22943 0.86973 0.0
H952 H 0.83074 0.14888 0.88842 0.0
H953 H 0.82107 0.23103 0.86893 0.0
S954 S 0.62071 0.16976 0.8859 0.0
N955 N 0.66234 0.1291 0.89571 0.0
N956 N 0.65225 0.21769 0.87364 0.0
C957 C 0.6992 0.20179 0.87742 0.0
C958 C 0.70478 0.15393 0.88927 0.0
C959 C 0.14935 0.45269 0.6312 0.0
C960 C 0.17592 0.48788 0.64556 0.0
C961 C 0.1011 0.46285 0.62363 0.0
C962 C 0.07782 0.5091 0.62969 0.0
H963 H 0.16693 0.41817 0.62468 0.0
H964 H 0.0832 0.43596 0.61138 0.0
S965 S 0.13009 0.61207 0.66863 0.0
N966 N 0.17402 0.56877 0.66739 0.0
N967 N 0.08369 0.58863 0.65249 0.0
C968 C 0.10257 0.54293 0.64555 0.0
C969 C 0.15163 0.53218 0.6536 0.0
C970 C 0.7612 0.88863 0.42188 0.0
C971 C 0.75315 0.91368 0.39949 0.0
C972 C 0.75971 0.83512 0.42368 0.0
C973 C 0.74889 0.80376 0.40333 0.0
H974 H 0.76938 0.91053 0.43825 0.0
H975 H 0.76663 0.8182 0.44138 0.0
S976 S 0.72388 0.84969 0.34045 0.0
N977 N 0.73388 0.90249 0.35635 0.0
N978 N 0.72959 0.80209 0.35995 0.0
C979 C 0.74007 0.82814 0.38085 0.0
C980 C 0.74269 0.88288 0.37887 0.0
C981 C 0.41913 0.53489 0.11849 0.0
C982 C 0.43732 0.48481 0.1189 0.0
C983 C 0.37501 0.5476 0.13053 0.0
C984 C 0.34759 0.51088 0.1437 0.0
H985 H 0.43781 0.56389 0.10765 0.0
H986 H 0.36089 0.58586 0.12842 0.0
S987 S 0.38119 0.37536 0.15217 0.0
N988 N 0.42624 0.39907 0.1349 0.0
N989 N 0.34349 0.42322 0.15793 0.0
C990 C 0.36722 0.46163 0.14586 0.0
C991 C 0.4121 0.44852 0.13336 0.0
C992 C 0.72447 0.39151 0.62788 0.0
C993 C 0.77163 0.41296 0.63187 0.0
C994 C 0.71233 0.34259 0.6367 0.0
C995 C 0.74721 0.31371 0.64944 0.0
H996 H 0.69554 0.41429 0.61994 0.0
H997 H 0.67443 0.32923 0.63543 0.0
S998 S 0.8781 0.34873 0.66031 0.0
N999 N 0.85509 0.39871 0.64621 0.0
N1000 N 0.83232 0.30684 0.66251 0.0
C1001 C 0.7957 0.33269 0.65123 0.0
C1002 C 0.80792 0.38238 0.6425 0.0
C1003 C 0.45072 0.04432 0.89392 0.0
C1004 C 0.47201 0.07788 0.91107 0.0
C1005 C 0.40296 0.05204 0.88553 0.0
C1006 C 0.37515 0.09359 0.8939 0.0
H1007 H 0.46858 1.00888 0.88899 0.0
H1008 H 0.38611 0.02282 0.87415 0.0
S1009 S 0.4186 0.19914 0.93365 0.0
N1010 N 0.46578 0.15966 0.93205 0.0
N1011 N 0.3748 0.17351 0.91651 0.0
C1012 C 0.39815 0.13105 0.9083 0.0
C1013 C 0.44708 0.12329 0.91685 0.0
C1014 C 0.8036 0.65578 0.12216 0.0
C1015 C 0.76283 0.6792 0.1335 0.0
C1016 C 0.79993 0.60613 0.11264 0.0
C1017 C 0.75518 0.57832 0.11375 0.0
H1018 H 0.83941 0.67462 0.12208 0.0
H1019 H 0.83296 0.5886 0.10521 0.0
S1020 S 0.63631 0.62483 0.13937 0.0
N1021 N 0.67548 0.67263 0.14374 0.0
N1022 N 0.66823 0.57962 0.12544 0.0
C1023 C 0.71327 0.60268 0.12355 0.0
C1024 C 0.71723 0.65301 0.13356 0.0
C1025 C 0.13113 0.05501 0.38511 0.0
C1026 C 0.15939 1.01153 0.39016 0.0
C1027 C 0.08091 0.05758 0.39217 0.0
C1028 C 0.0573 0.01647 0.40421 0.0
H1029 H 0.14864 0.08837 0.37707 0.0
H1030 H 0.06144 0.09304 0.38961 0.0
S1031 S 0.11275 0.89064 0.41725 0.0
N1032 N 0.15847 0.92435 0.40503 0.0
N1033 N 0.06434 0.92852 0.41752 0.0
C1034 C 0.08424 0.97132 0.40731 0.0
C1035 C 0.13522 0.96904 0.40053 0.0
C1036 C 0.25109 0.70718 0.38918 0.0
C1037 C 0.28592 0.71671 0.37047 0.0
C1038 C 0.24547 0.65798 0.39895 0.0
C1039 C 0.27458 0.61766 0.39016 0.0
H1040 H 0.22625 0.73699 0.39518 0.0
H1041 H 0.21656 0.65085 0.4124 0.0
S1042 S 0.37442 0.62469 0.34351 0.0
N1043 N 0.35292 0.68335 0.34533 0.0
N1044 N 0.34154 0.5909 0.36337 0.0
C1045 C 0.31131 0.62751 0.37258 0.0
C1046 C 0.3173 0.67725 0.36284 0.0
C1047 C 0.5978 0.03728 0.14052 0.0
C1048 C 0.57096 1.0015 0.12652 0.0
C1049 C 0.64708 0.02802 0.14716 0.0
C1050 C 0.67099 0.98304 0.13971 0.0
H1051 H 0.58219 0.07431 0.14453 0.0
H1052 H 0.66777 0.058 0.1563 0.0
S1053 S 0.61396 0.87342 0.10724 0.0
N1054 N 0.56945 0.91597 0.10917 0.0
N1055 N 0.6623 0.89961 0.12082 0.0
C1056 C 0.64316 0.94521 0.12778 0.0
C1057 C 0.59298 0.95412 0.12147 0.0
C1058 C 0.29277 0.39459 0.88327 0.0
C1059 C 0.25908 0.42154 0.89817 0.0
C1060 C 0.29051 0.34113 0.88106 0.0
C1061 C 0.25379 0.31193 0.89318 0.0
H1062 H 0.32194 0.41483 0.87355 0.0
H1063 H 0.31811 0.32249 0.86975 0.0
S1064 S 0.15503 0.36372 0.93359 0.0
N1065 N 0.18683 0.41465 0.92483 0.0
N1066 N 0.18205 0.31451 0.92026 0.0
C1067 C 0.21903 0.33839 0.90766 0.0
C1068 C 0.22187 0.39294 0.91029 0.0
C1069 C 0.92736 0.05051 0.62405 0.0
C1070 C 0.94879 1.00188 0.62319 0.0
C1071 C 0.88418 0.05943 0.6377 0.0
C1072 C 0.86088 0.02016 0.65112 0.0
H1073 H 0.94208 0.08093 0.61267 0.0
H1074 H 0.86661 0.09623 0.6361 0.0
S1075 S 0.90517 0.88763 0.65723 0.0
N1076 N 0.94618 0.91523 0.63885 0.0
N1077 N 0.86493 0.93225 0.66463 0.0
C1078 C 0.88445 0.97274 0.65233 0.0
C1079 C 0.92847 0.96351 0.6383 0.0
loop_
_geom_bond_atom_site_label_1
_geom_bond_atom_site_label_2
_geom_bond_distance
_geom_bond_site_symmetry_2
_ccdc_geom_bond_type
O0 Tb1 2.292 . S
O0 C3 1.255 . S
Tb1 O0 2.292 . S
Tb1 O17 2.326 . S
Tb1 O19 2.500 . S
Tb1 O20 2.473 . S
Tb1 O23 2.324 1_545 S
Eu2 O6 2.292 . S
Eu2 C7 2.852 . S
Eu2 O18 2.324 . S
Eu2 O22 2.326 . S
Eu2 O24 2.500 . S
Eu2 O25 2.473 . S
C3 O0 1.255 . S
C3 O4 1.247 . S
O4 C3 1.247 . S
C5 O17 1.242 . S
C5 O18 1.258 . S
O6 Eu2 2.292 . S
O6 C8 1.255 . S
C7 Eu2 2.852 . S
C7 C11 1.503 . S
C7 O24 1.273 . S
C7 O25 1.257 . S
C8 O6 1.255 . S
C8 O9 1.247 . S
O9 C8 1.247 . S
C10 O22 1.242 1_565 S
C10 O23 1.258 . S
C11 C7 1.503 . S
C11 C12 1.379 . S
C11 C16 1.392 . S
C12 C11 1.379 . S
C12 C13 1.404 . S
C12 H26 0.929 . S
C13 C12 1.404 . S
C13 C14 1.389 . S
C14 C13 1.389 . S
C14 C15 1.399 . S
C14 H27 0.931 . S
C15 C14 1.399 . S
C15 C16 1.390 . S
C16 C11 1.392 . S
C16 C15 1.390 . S
C16 H28 0.929 . S
O17 Tb1 2.326 . S
O17 C5 1.242 . S
O18 Eu2 2.324 . S
O18 C5 1.258 . S
O19 Tb1 2.500 . S
O19 C21 1.273 . S
O20 Tb1 2.473 . S
O20 C21 1.257 . S
C21 O19 1.273 . S
C21 O20 1.257 . S
O22 Eu2 2.326 . S
O22 C10 1.242 1_545 S
O23 Tb1 2.324 1_565 S
O23 C10 1.258 . S
O24 Eu2 2.500 . S
O24 C7 1.273 . S
O25 Eu2 2.473 . S
O25 C7 1.257 . S
H26 C12 0.929 . S
H27 C14 0.931 . S
H28 C16 0.929 . S
O29 Tb30 2.292 . S
O29 C32 1.255 . S
Tb30 O29 2.292 . S
Tb30 O46 2.326 . S
Tb30 O48 2.500 . S
Tb30 O49 2.473 . S
Tb30 O52 2.324 . S
Eu31 O35 2.292 . S
Eu31 C36 2.852 . S
Eu31 O47 2.324 . S
Eu31 O51 2.326 . S
Eu31 O53 2.500 . S
Eu31 O54 2.473 . S
C32 O29 1.255 . S
C32 O33 1.247 . S
O33 C32 1.247 . S
C34 O46 1.242 . S
C34 O47 1.258 . S
O35 Eu31 2.292 . S
O35 C37 1.255 . S
C36 Eu31 2.852 . S
C36 C40 1.503 . S
C36 O53 1.273 . S
C36 O54 1.257 . S
C37 O35 1.255 . S
C37 O38 1.247 . S
O38 C37 1.247 . S
C39 O51 1.242 . S
C39 O52 1.258 . S
C40 C36 1.503 . S
C40 C41 1.379 . S
C40 C45 1.392 . S
C41 C40 1.379 . S
C41 C42 1.404 . S
C41 H55 0.929 . S
C42 C41 1.404 . S
C42 C43 1.389 . S
C43 C42 1.389 . S
C43 C44 1.399 . S
C43 H56 0.931 . S
C44 C43 1.399 . S
C44 C45 1.390 . S
C45 C40 1.392 . S
C45 C44 1.390 . S
C45 H57 0.929 . S
O46 Tb30 2.326 . S
O46 C34 1.242 . S
O47 Eu31 2.324 . S
O47 C34 1.258 . S
O48 Tb30 2.500 . S
O48 C50 1.273 . S
O49 Tb30 2.473 . S
O49 C50 1.257 . S
C50 O48 1.273 . S
C50 O49 1.257 . S
O51 Eu31 2.326 . S
O51 C39 1.242 . S
O52 Tb30 2.324 . S
O52 C39 1.258 . S
O53 Eu31 2.500 . S
O53 C36 1.273 . S
O54 Eu31 2.473 . S
O54 C36 1.257 . S
H55 C41 0.929 . S
H56 C43 0.931 . S
H57 C45 0.929 . S
O58 Tb59 2.292 . S
O58 C61 1.255 . S
Tb59 O58 2.292 . S
Tb59 O75 2.326 . S
Tb59 O77 2.500 . S
Tb59 O78 2.473 . S
Tb59 O81 2.324 1_565 S
Eu60 O64 2.292 . S
Eu60 C65 2.852 . S
Eu60 O76 2.324 . S
Eu60 O80 2.326 . S
Eu60 O82 2.500 . S
Eu60 O83 2.473 . S
C61 O58 1.255 . S
C61 O62 1.247 . S
O62 C61 1.247 . S
C63 O75 1.242 . S
C63 O76 1.258 . S
O64 Eu60 2.292 . S
O64 C66 1.255 . S
C65 Eu60 2.852 . S
C65 C69 1.503 . S
C65 O82 1.273 . S
C65 O83 1.257 . S
C66 O64 1.255 . S
C66 O67 1.247 . S
O67 C66 1.247 . S
C68 O80 1.242 1_545 S
C68 O81 1.258 . S
C69 C65 1.503 . S
C69 C70 1.379 . S
C69 C74 1.392 . S
C70 C69 1.379 . S
C70 C71 1.404 . S
C70 H84 0.929 . S
C71 C70 1.404 . S
C71 C72 1.389 1_455 S
C72 C71 1.389 1_655 S
C72 C73 1.399 . S
C72 H85 0.931 . S
C73 C72 1.399 . S
C73 C74 1.390 1_655 S
C74 C69 1.392 . S
C74 C73 1.390 1_455 S
C74 H86 0.929 . S
O75 Tb59 2.326 . S
O75 C63 1.242 . S
O76 Eu60 2.324 . S
O76 C63 1.258 . S
O77 Tb59 2.500 . S
O77 C79 1.273 . S
O78 Tb59 2.473 . S
O78 C79 1.257 . S
C79 O77 1.273 . S
C79 O78 1.257 . S
O80 Eu60 2.326 . S
O80 C68 1.242 1_565 S
O81 Tb59 2.324 1_545 S
O81 C68 1.258 . S
O82 Eu60 2.500 . S
O82 C65 1.273 . S
O83 Eu60 2.473 . S
O83 C65 1.257 . S
H84 C70 0.929 . S
H85 C72 0.931 . S
H86 C74 0.929 . S
O87 Tb88 2.292 . S
O87 C90 1.255 . S
Tb88 O87 2.292 . S
Tb88 O104 2.326 . S
Tb88 O106 2.500 . S
Tb88 O107 2.473 . S
Tb88 O110 2.324 . S
Eu89 O93 2.292 . S
Eu89 C94 2.852 . S
Eu89 O105 2.324 . S
Eu89 O109 2.326 . S
Eu89 O111 2.500 . S
Eu89 O112 2.473 . S
C90 O87 1.255 . S
C90 O91 1.247 . S
O91 C90 1.247 . S
C92 O104 1.242 . S
C92 O105 1.258 . S
O93 Eu89 2.292 . S
O93 C95 1.255 . S
C94 Eu89 2.852 . S
C94 C98 1.503 . S
C94 O111 1.273 . S
C94 O112 1.257 . S
C95 O93 1.255 . S
C95 O96 1.247 . S
O96 C95 1.247 . S
C97 O109 1.242 . S
C97 O110 1.258 . S
C98 C94 1.503 . S
C98 C99 1.379 . S
C98 C103 1.392 . S
C99 C98 1.379 . S
C99 C100 1.404 . S
C99 H113 0.929 . S
C100 C99 1.404 . S
C100 C101 1.389 . S
C101 C100 1.389 . S
C101 C102 1.399 . S
C101 H114 0.931 . S
C102 C101 1.399 . S
C102 C103 1.390 . S
C103 C98 1.392 . S
C103 C102 1.390 . S
C103 H115 0.929 . S
O104 Tb88 2.326 . S
O104 C92 1.242 . S
O105 Eu89 2.324 . S
O105 C92 1.258 . S
O106 Tb88 2.500 . S
O106 C108 1.273 . S
O107 Tb88 2.473 . S
O107 C108 1.257 . S
C108 O106 1.273 . S
C108 O107 1.257 . S
O109 Eu89 2.326 . S
O109 C97 1.242 . S
O110 Tb88 2.324 . S
O110 C97 1.258 . S
O111 Eu89 2.500 . S
O111 C94 1.273 . S
O112 Eu89 2.473 . S
O112 C94 1.257 . S
H113 C99 0.929 . S
H114 C101 0.931 . S
H115 C103 0.929 . S
O116 Tb117 2.292 . S
O116 C119 1.255 . S
Tb117 O116 2.292 . S
Tb117 O133 2.326 . S
Tb117 O135 2.500 . S
Tb117 O136 2.473 . S
Tb117 O139 2.324 1_565 S
Eu118 O122 2.292 . S
Eu118 C123 2.852 . S
Eu118 O134 2.324 . S
Eu118 O138 2.326 . S
Eu118 O140 2.500 . S
Eu118 O141 2.473 . S
C119 O116 1.255 . S
C119 O120 1.247 . S
O120 C119 1.247 . S
C121 O133 1.242 . S
C121 O134 1.258 . S
O122 Eu118 2.292 . S
O122 C124 1.255 . S
C123 Eu118 2.852 . S
C123 C127 1.503 . S
C123 O140 1.273 . S
C123 O141 1.257 . S
C124 O122 1.255 . S
C124 O125 1.247 . S
O125 C124 1.247 . S
C126 O138 1.242 1_545 S
C126 O139 1.258 . S
C127 C123 1.503 . S
C127 C128 1.379 . S
C127 C132 1.392 . S
C128 C127 1.379 . S
C128 C129 1.404 . S
C128 H142 0.929 . S
C129 C128 1.404 . S
C129 C130 1.389 . S
C130 C129 1.389 . S
C130 C131 1.399 1_565 S
C130 H143 0.931 1_565 S
C131 C130 1.399 1_545 S
C131 C132 1.390 1_545 S
C132 C127 1.392 . S
C132 C131 1.390 1_565 S
C132 H144 0.929 . S
O133 Tb117 2.326 . S
O133 C121 1.242 . S
O134 Eu118 2.324 . S
O134 C121 1.258 . S
O135 Tb117 2.500 . S
O135 C137 1.273 . S
O136 Tb117 2.473 . S
O136 C137 1.257 . S
C137 O135 1.273 . S
C137 O136 1.257 . S
O138 Eu118 2.326 . S
O138 C126 1.242 1_565 S
O139 Tb117 2.324 1_545 S
O139 C126 1.258 . S
O140 Eu118 2.500 . S
O140 C123 1.273 . S
O141 Eu118 2.473 . S
O141 C123 1.257 . S
H142 C128 0.929 . S
H143 C130 0.931 1_545 S
H144 C132 0.929 . S
O145 Tb146 2.292 . S
O145 C148 1.255 . S
Tb146 O145 2.292 . S
Tb146 O162 2.326 . S
Tb146 O164 2.500 . S
Tb146 O165 2.473 . S
Tb146 O168 2.324 . S
Eu147 O151 2.292 . S
Eu147 C152 2.852 . S
Eu147 O163 2.324 . S
Eu147 O167 2.326 . S
Eu147 O169 2.500 . S
Eu147 O170 2.473 . S
C148 O145 1.255 . S
C148 O149 1.247 . S
O149 C148 1.247 . S
C150 O162 1.242 . S
C150 O163 1.258 . S
O151 Eu147 2.292 . S
O151 C153 1.255 . S
C152 Eu147 2.852 . S
C152 C156 1.503 . S
C152 O169 1.273 . S
C152 O170 1.257 . S
C153 O151 1.255 . S
C153 O154 1.247 . S
O154 C153 1.247 . S
C155 O167 1.242 . S
C155 O168 1.258 . S
C156 C152 1.503 . S
C156 C157 1.379 . S
C156 C161 1.392 . S
C157 C156 1.379 . S
C157 C158 1.404 . S
C157 H171 0.929 . S
C158 C157 1.404 . S
C158 C159 1.389 . S
C159 C158 1.389 . S
C159 C160 1.399 . S
C159 H172 0.931 . S
C160 C159 1.399 . S
C160 C161 1.390 . S
C161 C156 1.392 . S
C161 C160 1.390 . S
C161 H173 0.929 . S
O162 Tb146 2.326 . S
O162 C150 1.242 . S
O163 Eu147 2.324 . S
O163 C150 1.258 . S
O164 Tb146 2.500 . S
O164 C166 1.273 . S
O165 Tb146 2.473 . S
O165 C166 1.257 . S
C166 O164 1.273 . S
C166 O165 1.257 . S
O167 Eu147 2.326 . S
O167 C155 1.242 . S
O168 Tb146 2.324 . S
O168 C155 1.258 . S
O169 Eu147 2.500 . S
O169 C152 1.273 . S
O170 Eu147 2.473 . S
O170 C152 1.257 . S
H171 C157 0.929 . S
H172 C159 0.931 . S
H173 C161 0.929 . S
O174 Tb175 2.292 . S
O174 C177 1.255 . S
Tb175 O174 2.292 . S
Tb175 O191 2.326 . S
Tb175 O193 2.500 . S
Tb175 O194 2.473 . S
Tb175 O197 2.324 1_545 S
Eu176 O180 2.292 . S
Eu176 C181 2.852 . S
Eu176 O192 2.324 . S
Eu176 O196 2.326 . S
Eu176 O198 2.500 . S
Eu176 O199 2.473 . S
C177 O174 1.255 . S
C177 O178 1.247 . S
O178 C177 1.247 . S
C179 O191 1.242 . S
C179 O192 1.258 . S
O180 Eu176 2.292 . S
O180 C182 1.255 . S
C181 Eu176 2.852 . S
C181 C185 1.503 . S
C181 O198 1.273 . S
C181 O199 1.257 . S
C182 O180 1.255 . S
C182 O183 1.247 . S
O183 C182 1.247 . S
C184 O196 1.242 1_565 S
C184 O197 1.258 . S
C185 C181 1.503 . S
C185 C186 1.379 . S
C185 C190 1.392 . S
C186 C185 1.379 . S
C186 C187 1.404 . S
C186 H200 0.929 . S
C187 C186 1.404 . S
C187 C188 1.389 1_655 S
C188 C187 1.389 1_455 S
C188 C189 1.399 . S
C188 H201 0.931 . S
C189 C188 1.399 . S
C189 C190 1.390 1_455 S
C190 C185 1.392 . S
C190 C189 1.390 1_655 S
C190 H202 0.929 . S
O191 Tb175 2.326 . S
O191 C179 1.242 . S
O192 Eu176 2.324 . S
O192 C179 1.258 . S
O193 Tb175 2.500 . S
O193 C195 1.273 . S
O194 Tb175 2.473 . S
O194 C195 1.257 . S
C195 O193 1.273 . S
C195 O194 1.257 . S
O196 Eu176 2.326 . S
O196 C184 1.242 1_545 S
O197 Tb175 2.324 1_565 S
O197 C184 1.258 . S
O198 Eu176 2.500 . S
O198 C181 1.273 . S
O199 Eu176 2.473 . S
O199 C181 1.257 . S
H200 C186 0.929 . S
H201 C188 0.931 . S
H202 C190 0.929 . S
O203 Tb204 2.292 . S
O203 C206 1.255 . S
Tb204 O203 2.292 . S
Tb204 O220 2.326 . S
Tb204 O222 2.500 . S
Tb204 O223 2.473 . S
Tb204 O226 2.324 . S
Eu205 O209 2.292 . S
Eu205 C210 2.852 . S
Eu205 O221 2.324 . S
Eu205 O225 2.326 . S
Eu205 O227 2.500 . S
Eu205 O228 2.473 . S
C206 O203 1.255 . S
C206 O207 1.247 . S
O207 C206 1.247 . S
C208 O220 1.242 . S
C208 O221 1.258 . S
O209 Eu205 2.292 . S
O209 C211 1.255 . S
C210 Eu205 2.852 . S
C210 C214 1.503 . S
C210 O227 1.273 . S
C210 O228 1.257 . S
C211 O209 1.255 . S
C211 O212 1.247 . S
O212 C211 1.247 . S
C213 O225 1.242 . S
C213 O226 1.258 . S
C214 C210 1.503 . S
C214 C215 1.379 . S
C214 C219 1.392 . S
C215 C214 1.379 . S
C215 C216 1.404 . S
C215 H229 0.929 . S
C216 C215 1.404 . S
C216 C217 1.389 . S
C217 C216 1.389 . S
C217 C218 1.399 . S
C217 H230 0.931 . S
C218 C217 1.399 . S
C218 C219 1.390 . S
C219 C214 1.392 . S
C219 C218 1.390 . S
C219 H231 0.929 . S
O220 Tb204 2.326 . S
O220 C208 1.242 . S
O221 Eu205 2.324 . S
O221 C208 1.258 . S
O222 Tb204 2.500 . S
O222 C224 1.273 . S
O223 Tb204 2.473 . S
O223 C224 1.257 . S
C224 O222 1.273 . S
C224 O223 1.257 . S
O225 Eu205 2.326 . S
O225 C213 1.242 . S
O226 Tb204 2.324 . S
O226 C213 1.258 . S
O227 Eu205 2.500 . S
O227 C210 1.273 . S
O228 Eu205 2.473 . S
O228 C210 1.257 . S
H229 C215 0.929 . S
H230 C217 0.931 . S
H231 C219 0.929 . S
O232 Tb233 2.292 . S
O232 C235 1.255 . S
Tb233 O232 2.292 . S
Tb233 O249 2.326 . S
Tb233 O251 2.500 . S
Tb233 O252 2.473 . S
Tb233 O255 2.324 . S
Eu234 O238 2.292 . S
Eu234 C239 2.852 . S
Eu234 O250 2.324 . S
Eu234 O254 2.326 . S
Eu234 O256 2.500 . S
Eu234 O257 2.473 . S
C235 O232 1.255 . S
C235 O236 1.247 . S
O236 C235 1.247 . S
C237 O249 1.242 . S
C237 O250 1.258 . S
O238 Eu234 2.292 . S
O238 C240 1.255 . S
C239 Eu234 2.852 . S
C239 C243 1.503 . S
C239 O256 1.273 . S
C239 O257 1.257 . S
C240 O238 1.255 . S
C240 O241 1.247 . S
O241 C240 1.247 . S
C242 O254 1.242 . S
C242 O255 1.258 . S
C243 C239 1.503 . S
C243 C244 1.379 . S
C243 C248 1.392 . S
C244 C243 1.379 . S
C244 C245 1.404 . S
C244 H258 0.929 . S
C245 C244 1.404 . S
C245 C246 1.389 1_655 S
C246 C245 1.389 1_455 S
C246 C247 1.399 . S
C246 H259 0.931 . S
C247 C246 1.399 . S
C247 C248 1.390 1_455 S
C248 C243 1.392 . S
C248 C247 1.390 1_655 S
C248 H260 0.929 . S
O249 Tb233 2.326 . S
O249 C237 1.242 . S
O250 Eu234 2.324 . S
O250 C237 1.258 . S
O251 Tb233 2.500 . S
O251 C253 1.273 . S
O252 Tb233 2.473 . S
O252 C253 1.257 . S
C253 O251 1.273 . S
C253 O252 1.257 . S
O254 Eu234 2.326 . S
O254 C242 1.242 . S
O255 Tb233 2.324 . S
O255 C242 1.258 . S
O256 Eu234 2.500 . S
O256 C239 1.273 . S
O257 Eu234 2.473 . S
O257 C239 1.257 . S
H258 C244 0.929 . S
H259 C246 0.931 . S
H260 C248 0.929 . S
O261 Tb262 2.292 . S
O261 C264 1.255 . S
Tb262 O261 2.292 . S
Tb262 O278 2.326 . S
Tb262 O280 2.500 . S
Tb262 O281 2.473 . S
Tb262 O284 2.324 . S
Eu263 O267 2.292 . S
Eu263 C268 2.852 1_565 S
Eu263 O279 2.324 1_565 S
Eu263 O283 2.326 1_565 S
Eu263 O285 2.500 . S
Eu263 O286 2.473 1_565 S
C264 O261 1.255 . S
C264 O265 1.247 . S
O265 C264 1.247 . S
C266 O278 1.242 . S
C266 O279 1.258 . S
O267 Eu263 2.292 . S
O267 C269 1.255 . S
C268 Eu263 2.852 1_545 S
C268 C272 1.503 . S
C268 O285 1.273 1_545 S
C268 O286 1.257 . S
C269 O267 1.255 . S
C269 O270 1.247 . S
O270 C269 1.247 . S
C271 O283 1.242 . S
C271 O284 1.258 . S
C272 C268 1.503 . S
C272 C273 1.379 . S
C272 C277 1.392 . S
C273 C272 1.379 . S
C273 C274 1.404 . S
C273 H287 0.929 . S
C274 C273 1.404 . S
C274 C275 1.389 . S
C275 C274 1.389 . S
C275 C276 1.399 . S
C275 H288 0.931 . S
C276 C275 1.399 . S
C276 C277 1.390 . S
C277 C272 1.392 . S
C277 C276 1.390 . S
C277 H289 0.929 . S
O278 Tb262 2.326 . S
O278 C266 1.242 . S
O279 Eu263 2.324 1_545 S
O279 C266 1.258 . S
O280 Tb262 2.500 . S
O280 C282 1.273 . S
O281 Tb262 2.473 . S
O281 C282 1.257 . S
C282 O280 1.273 . S
C282 O281 1.257 . S
O283 Eu263 2.326 1_545 S
O283 C271 1.242 . S
O284 Tb262 2.324 . S
O284 C271 1.258 . S
O285 Eu263 2.500 . S
O285 C268 1.273 1_565 S
O286 Eu263 2.473 1_545 S
O286 C268 1.257 . S
H287 C273 0.929 . S
H288 C275 0.931 . S
H289 C277 0.929 . S
O290 Tb291 2.292 . S
O290 C293 1.255 . S
Tb291 O290 2.292 . S
Tb291 O307 2.326 . S
Tb291 O309 2.500 . S
Tb291 O310 2.473 . S
Tb291 O313 2.324 . S
Eu292 O296 2.292 . S
Eu292 C297 2.852 . S
Eu292 O308 2.324 . S
Eu292 O312 2.326 . S
Eu292 O314 2.500 . S
Eu292 O315 2.473 . S
C293 O290 1.255 . S
C293 O294 1.247 . S
O294 C293 1.247 . S
C295 O307 1.242 . S
C295 O308 1.258 . S
O296 Eu292 2.292 . S
O296 C298 1.255 . S
C297 Eu292 2.852 . S
C297 C301 1.503 . S
C297 O314 1.273 . S
C297 O315 1.257 . S
C298 O296 1.255 . S
C298 O299 1.247 . S
O299 C298 1.247 . S
C300 O312 1.242 . S
C300 O313 1.258 . S
C301 C297 1.503 . S
C301 C302 1.379 . S
C301 C306 1.392 . S
C302 C301 1.379 . S
C302 C303 1.404 . S
C302 H316 0.929 . S
C303 C302 1.404 . S
C303 C304 1.389 . S
C304 C303 1.389 . S
C304 C305 1.399 . S
C304 H317 0.931 . S
C305 C304 1.399 . S
C305 C306 1.390 . S
C306 C301 1.392 . S
C306 C305 1.390 . S
C306 H318 0.929 . S
O307 Tb291 2.326 . S
O307 C295 1.242 . S
O308 Eu292 2.324 . S
O308 C295 1.258 . S
O309 Tb291 2.500 . S
O309 C311 1.273 . S
O310 Tb291 2.473 . S
O310 C311 1.257 . S
C311 O309 1.273 . S
C311 O310 1.257 . S
O312 Eu292 2.326 . S
O312 C300 1.242 . S
O313 Tb291 2.324 . S
O313 C300 1.258 . S
O314 Eu292 2.500 . S
O314 C297 1.273 . S
O315 Eu292 2.473 . S
O315 C297 1.257 . S
H316 C302 0.929 . S
H317 C304 0.931 . S
H318 C306 0.929 . S
O319 Tb320 2.292 . S
O319 C322 1.255 . S
Tb320 O319 2.292 . S
Tb320 O336 2.326 . S
Tb320 O338 2.500 . S
Tb320 O339 2.473 . S
Tb320 O342 2.324 1_545 S
Eu321 O325 2.292 . S
Eu321 C326 2.852 . S
Eu321 O337 2.324 . S
Eu321 O341 2.326 . S
Eu321 O343 2.500 . S
Eu321 O344 2.473 . S
C322 O319 1.255 . S
C322 O323 1.247 1_545 S
O323 C322 1.247 1_565 S
C324 O336 1.242 1_565 S
C324 O337 1.258 . S
O325 Eu321 2.292 . S
O325 C327 1.255 . S
C326 Eu321 2.852 . S
C326 C330 1.503 . S
C326 O343 1.273 . S
C326 O344 1.257 . S
C327 O325 1.255 . S
C327 O328 1.247 . S
O328 C327 1.247 . S
C329 O341 1.242 . S
C329 O342 1.258 . S
C330 C326 1.503 . S
C330 C331 1.379 . S
C330 C335 1.392 . S
C331 C330 1.379 . S
C331 C332 1.404 . S
C331 H345 0.929 . S
C332 C331 1.404 . S
C332 C333 1.389 . S
C333 C332 1.389 . S
C333 C334 1.399 . S
C333 H346 0.931 . S
C334 C333 1.399 . S
C334 C335 1.390 . S
C335 C330 1.392 . S
C335 C334 1.390 . S
C335 H347 0.929 . S
O336 Tb320 2.326 . S
O336 C324 1.242 1_545 S
O337 Eu321 2.324 . S
O337 C324 1.258 . S
O338 Tb320 2.500 . S
O338 C340 1.273 . S
O339 Tb320 2.473 . S
O339 C340 1.257 . S
C340 O338 1.273 . S
C340 O339 1.257 . S
O341 Eu321 2.326 . S
O341 C329 1.242 . S
O342 Tb320 2.324 1_565 S
O342 C329 1.258 . S
O343 Eu321 2.500 . S
O343 C326 1.273 . S
O344 Eu321 2.473 . S
O344 C326 1.257 . S
H345 C331 0.929 . S
H346 C333 0.931 . S
H347 C335 0.929 . S
O348 Tb349 2.292 . S
O348 C351 1.255 . S
Tb349 O348 2.292 . S
Tb349 O365 2.326 . S
Tb349 O367 2.500 . S
Tb349 O368 2.473 . S
Tb349 O371 2.324 . S
Eu350 O354 2.292 . S
Eu350 C355 2.852 . S
Eu350 O366 2.324 . S
Eu350 O370 2.326 . S
Eu350 O372 2.500 . S
Eu350 O373 2.473 . S
C351 O348 1.255 . S
C351 O352 1.247 . S
O352 C351 1.247 . S
C353 O365 1.242 . S
C353 O366 1.258 . S
O354 Eu350 2.292 . S
O354 C356 1.255 . S
C355 Eu350 2.852 . S
C355 C359 1.503 . S
C355 O372 1.273 . S
C355 O373 1.257 . S
C356 O354 1.255 . S
C356 O357 1.247 . S
O357 C356 1.247 . S
C358 O370 1.242 . S
C358 O371 1.258 . S
C359 C355 1.503 . S
C359 C360 1.379 . S
C359 C364 1.392 . S
C360 C359 1.379 . S
C360 C361 1.404 . S
C360 H374 0.929 . S
C361 C360 1.404 . S
C361 C362 1.389 1_455 S
C362 C361 1.389 1_655 S
C362 C363 1.399 . S
C362 H375 0.931 . S
C363 C362 1.399 . S
C363 C364 1.390 1_655 S
C364 C359 1.392 . S
C364 C363 1.390 1_455 S
C364 H376 0.929 . S
O365 Tb349 2.326 . S
O365 C353 1.242 . S
O366 Eu350 2.324 . S
O366 C353 1.258 . S
O367 Tb349 2.500 . S
O367 C369 1.273 . S
O368 Tb349 2.473 . S
O368 C369 1.257 . S
C369 O367 1.273 . S
C369 O368 1.257 . S
O370 Eu350 2.326 . S
O370 C358 1.242 . S
O371 Tb349 2.324 . S
O371 C358 1.258 . S
O372 Eu350 2.500 . S
O372 C355 1.273 . S
O373 Eu350 2.473 . S
O373 C355 1.257 . S
H374 C360 0.929 . S
H375 C362 0.931 . S
H376 C364 0.929 . S
O377 Tb378 2.292 . S
O377 C380 1.255 1_545 S
Tb378 O377 2.292 . S
Tb378 O394 2.326 1_545 S
Tb378 O396 2.500 . S
Tb378 O397 2.473 . S
Tb378 O400 2.324 1_545 S
Eu379 O383 2.292 . S
Eu379 C384 2.852 . S
Eu379 O395 2.324 . S
Eu379 O399 2.326 . S
Eu379 O401 2.500 . S
Eu379 O402 2.473 . S
C380 O377 1.255 1_565 S
C380 O381 1.247 . S
O381 C380 1.247 . S
C382 O394 1.242 . S
C382 O395 1.258 . S
O383 Eu379 2.292 . S
O383 C385 1.255 . S
C384 Eu379 2.852 . S
C384 C388 1.503 . S
C384 O401 1.273 . S
C384 O402 1.257 . S
C385 O383 1.255 . S
C385 O386 1.247 . S
O386 C385 1.247 . S
C387 O399 1.242 . S
C387 O400 1.258 . S
C388 C384 1.503 . S
C388 C389 1.379 . S
C388 C393 1.392 . S
C389 C388 1.379 . S
C389 C390 1.404 . S
C389 H403 0.929 . S
C390 C389 1.404 . S
C390 C391 1.389 . S
C391 C390 1.389 . S
C391 C392 1.399 . S
C391 H404 0.931 . S
C392 C391 1.399 . S
C392 C393 1.390 . S
C393 C388 1.392 . S
C393 C392 1.390 . S
C393 H405 0.929 . S
O394 Tb378 2.326 1_565 S
O394 C382 1.242 . S
O395 Eu379 2.324 . S
O395 C382 1.258 . S
O396 Tb378 2.500 . S
O396 C398 1.273 . S
O397 Tb378 2.473 . S
O397 C398 1.257 . S
C398 O396 1.273 . S
C398 O397 1.257 . S
O399 Eu379 2.326 . S
O399 C387 1.242 . S
O400 Tb378 2.324 1_565 S
O400 C387 1.258 . S
O401 Eu379 2.500 . S
O401 C384 1.273 . S
O402 Eu379 2.473 . S
O402 C384 1.257 . S
H403 C389 0.929 . S
H404 C391 0.931 . S
H405 C393 0.929 . S
O406 Tb407 2.292 . S
O406 C409 1.255 . S
Tb407 O406 2.292 . S
Tb407 O423 2.326 . S
Tb407 O425 2.500 . S
Tb407 O426 2.473 . S
Tb407 O429 2.324 . S
Eu408 O412 2.292 . S
Eu408 C413 2.852 . S
Eu408 O424 2.324 . S
Eu408 O428 2.326 . S
Eu408 O430 2.500 . S
Eu408 O431 2.473 . S
C409 O406 1.255 . S
C409 O410 1.247 . S
O410 C409 1.247 . S
C411 O423 1.242 . S
C411 O424 1.258 . S
O412 Eu408 2.292 . S
O412 C414 1.255 . S
C413 Eu408 2.852 . S
C413 C417 1.503 . S
C413 O430 1.273 . S
C413 O431 1.257 . S
C414 O412 1.255 . S
C414 O415 1.247 . S
O415 C414 1.247 . S
C416 O428 1.242 . S
C416 O429 1.258 . S
C417 C413 1.503 . S
C417 C418 1.379 . S
C417 C422 1.392 . S
C418 C417 1.379 . S
C418 C419 1.404 . S
C418 H432 0.929 . S
C419 C418 1.404 . S
C419 C420 1.389 . S
C420 C419 1.389 . S
C420 C421 1.399 . S
C420 H433 0.931 . S
C421 C420 1.399 . S
C421 C422 1.390 . S
C422 C417 1.392 . S
C422 C421 1.390 . S
C422 H434 0.929 . S
O423 Tb407 2.326 . S
O423 C411 1.242 . S
O424 Eu408 2.324 . S
O424 C411 1.258 . S
O425 Tb407 2.500 . S
O425 C427 1.273 . S
O426 Tb407 2.473 . S
O426 C427 1.257 . S
C427 O425 1.273 . S
C427 O426 1.257 . S
O428 Eu408 2.326 . S
O428 C416 1.242 . S
O429 Tb407 2.324 . S
O429 C416 1.258 . S
O430 Eu408 2.500 . S
O430 C413 1.273 . S
O431 Eu408 2.473 . S
O431 C413 1.257 . S
H432 C418 0.929 . S
H433 C420 0.931 . S
H434 C422 0.929 . S
O435 Tb436 2.292 . S
O435 C438 1.249 1_565 S
Tb436 O435 2.292 . S
Tb436 O452 2.326 . S
Tb436 O454 2.500 . S
Tb436 O455 2.473 . S
Tb436 O458 2.324 1_565 S
Eu437 O441 2.292 . S
Eu437 C442 2.852 . S
Eu437 O453 2.324 . S
Eu437 O457 2.326 . S
Eu437 O459 2.500 . S
Eu437 O460 2.473 . S
C438 O435 1.249 1_545 S
C438 O439 1.258 . S
O439 C438 1.258 . S
C440 O452 1.242 1_545 S
C440 O453 1.258 . S
O441 Eu437 2.292 . S
O441 C443 1.255 . S
C442 Eu437 2.852 . S
C442 C446 1.503 . S
C442 O459 1.273 . S
C442 O460 1.257 . S
C443 O441 1.255 . S
C443 O444 1.247 . S
O444 C443 1.247 . S
C445 O457 1.242 . S
C445 O458 1.258 . S
C446 C442 1.503 . S
C446 C447 1.379 . S
C446 C451 1.392 . S
C447 C446 1.379 . S
C447 C448 1.404 . S
C447 H461 0.929 . S
C448 C447 1.404 . S
C448 C449 1.389 . S
C449 C448 1.389 . S
C449 C450 1.399 . S
C449 H462 0.931 . S
C450 C449 1.399 . S
C450 C451 1.390 . S
C451 C446 1.392 . S
C451 C450 1.390 . S
C451 H463 0.929 . S
O452 Tb436 2.326 . S
O452 C440 1.242 1_565 S
O453 Eu437 2.324 . S
O453 C440 1.258 . S
O454 Tb436 2.500 . S
O454 C456 1.273 . S
O455 Tb436 2.473 . S
O455 C456 1.257 . S
C456 O454 1.273 . S
C456 O455 1.257 . S
O457 Eu437 2.326 . S
O457 C445 1.242 . S
O458 Tb436 2.324 1_545 S
O458 C445 1.258 . S
O459 Eu437 2.500 . S
O459 C442 1.273 . S
O460 Eu437 2.473 . S
O460 C442 1.257 . S
H461 C447 0.929 . S
H462 C449 0.931 . S
H463 C451 0.929 . S
C464 C465 1.369 . S
C464 C466 1.419 . S
C464 H468 0.930 . S
C465 C464 1.369 . S
C465 C474 1.429 . S
C466 C464 1.419 . S
C466 C467 1.363 . S
C466 H469 0.929 . S
C467 C466 1.363 . S
C467 C473 1.428 . S
H468 C464 0.930 . S
H469 C466 0.929 . S
S470 N471 1.613 . S
S470 N472 1.610 . S
N471 S470 1.613 . S
N471 C474 1.350 . S
N472 S470 1.610 . S
N472 C473 1.351 . S
C473 C467 1.428 . S
C473 N472 1.351 . S
C473 C474 1.434 . S
C474 C465 1.429 . S
C474 N471 1.350 . S
C474 C473 1.434 . S
C475 C476 1.369 . S
C475 C477 1.419 . S
C475 H479 0.930 . S
C476 C475 1.369 . S
C476 C485 1.429 . S
C477 C475 1.419 . S
C477 C478 1.363 . S
C477 H480 0.929 . S
C478 C477 1.363 . S
C478 C484 1.428 . S
H479 C475 0.930 . S
H480 C477 0.929 . S
S481 N482 1.613 . S
S481 N483 1.610 . S
N482 S481 1.613 . S
N482 C485 1.350 . S
N483 S481 1.610 . S
N483 C484 1.351 . S
C484 C478 1.428 . S
C484 N483 1.351 . S
C484 C485 1.434 . S
C485 C476 1.429 . S
C485 N482 1.350 . S
C485 C484 1.434 . S
C486 C487 1.369 . S
C486 C488 1.419 . S
C486 H490 0.930 . S
C487 C486 1.369 . S
C487 C496 1.429 . S
C488 C486 1.419 . S
C488 C489 1.363 . S
C488 H491 0.929 . S
C489 C488 1.363 . S
C489 C495 1.428 . S
H490 C486 0.930 . S
H491 C488 0.929 . S
S492 N493 1.613 . S
S492 N494 1.610 . S
N493 S492 1.613 . S
N493 C496 1.350 . S
N494 S492 1.610 . S
N494 C495 1.351 . S
C495 C489 1.428 . S
C495 N494 1.351 . S
C495 C496 1.434 . S
C496 C487 1.429 . S
C496 N493 1.350 . S
C496 C495 1.434 . S
C497 C498 1.369 . S
C497 C499 1.419 1_455 S
C497 H501 0.930 . S
C498 C497 1.369 . S
C498 C507 1.429 . S
C499 C497 1.419 1_655 S
C499 C500 1.363 . S
C499 H502 0.929 . S
C500 C499 1.363 . S
C500 C506 1.428 1_655 S
H501 C497 0.930 . S
H502 C499 0.929 . S
S503 N504 1.613 . S
S503 N505 1.610 . S
N504 S503 1.613 . S
N504 C507 1.350 . S
N505 S503 1.610 . S
N505 C506 1.351 . S
C506 C500 1.428 1_455 S
C506 N505 1.351 . S
C506 C507 1.434 . S
C507 C498 1.429 . S
C507 N504 1.350 . S
C507 C506 1.434 . S
C508 C509 1.369 . S
C508 C510 1.419 . S
C508 H512 0.930 . S
C509 C508 1.369 . S
C509 C518 1.429 . S
C510 C508 1.419 . S
C510 C511 1.363 . S
C510 H513 0.929 . S
C511 C510 1.363 . S
C511 C517 1.428 . S
H512 C508 0.930 . S
H513 C510 0.929 . S
S514 N515 1.613 . S
S514 N516 1.610 . S
N515 S514 1.613 . S
N515 C518 1.350 . S
N516 S514 1.610 . S
N516 C517 1.351 . S
C517 C511 1.428 . S
C517 N516 1.351 . S
C517 C518 1.434 . S
C518 C509 1.429 . S
C518 N515 1.350 . S
C518 C517 1.434 . S
C519 C520 1.369 . S
C519 C521 1.419 . S
C519 H523 0.930 . S
C520 C519 1.369 . S
C520 C529 1.429 . S
C521 C519 1.419 . S
C521 C522 1.363 . S
C521 H524 0.929 . S
C522 C521 1.363 . S
C522 C528 1.428 . S
H523 C519 0.930 . S
H524 C521 0.929 . S
S525 N526 1.613 . S
S525 N527 1.610 . S
N526 S525 1.613 . S
N526 C529 1.350 . S
N527 S525 1.610 . S
N527 C528 1.351 . S
C528 C522 1.428 . S
C528 N527 1.351 . S
C528 C529 1.434 . S
C529 C520 1.429 . S
C529 N526 1.350 . S
C529 C528 1.434 . S
C530 C531 1.369 . S
C530 C532 1.419 . S
C530 H534 0.930 . S
C531 C530 1.369 . S
C531 C540 1.429 . S
C532 C530 1.419 . S
C532 C533 1.363 . S
C532 H535 0.929 . S
C533 C532 1.363 . S
C533 C539 1.428 . S
H534 C530 0.930 . S
H535 C532 0.929 . S
S536 N537 1.613 . S
S536 N538 1.610 . S
N537 S536 1.613 . S
N537 C540 1.350 . S
N538 S536 1.610 . S
N538 C539 1.351 . S
C539 C533 1.428 . S
C539 N538 1.351 . S
C539 C540 1.434 . S
C540 C531 1.429 . S
C540 N537 1.350 . S
C540 C539 1.434 . S
C541 C542 1.369 . S
C541 C543 1.419 . S
C541 H545 0.930 . S
C542 C541 1.369 . S
C542 C551 1.429 . S
C543 C541 1.419 . S
C543 C544 1.363 1_655 S
C543 H546 0.929 . S
C544 C543 1.363 1_455 S
C544 C550 1.428 . S
H545 C541 0.930 . S
H546 C543 0.929 . S
S547 N548 1.613 1_455 S
S547 N549 1.610 . S
N548 S547 1.613 1_655 S
N548 C551 1.350 . S
N549 S547 1.610 . S
N549 C550 1.351 . S
C550 C544 1.428 . S
C550 N549 1.351 . S
C550 C551 1.434 1_455 S
C551 C542 1.429 . S
C551 N548 1.350 . S
C551 C550 1.434 1_655 S
C552 C553 1.369 . S
C552 C554 1.419 . S
C552 H556 0.930 . S
C553 C552 1.369 . S
C553 C562 1.429 . S
C554 C552 1.419 . S
C554 C555 1.363 . S
C554 H557 0.929 . S
C555 C554 1.363 . S
C555 C561 1.428 . S
H556 C552 0.930 . S
H557 C554 0.929 . S
S558 N559 1.613 . S
S558 N560 1.610 . S
N559 S558 1.613 . S
N559 C562 1.350 . S
N560 S558 1.610 . S
N560 C561 1.351 . S
C561 C555 1.428 . S
C561 N560 1.351 . S
C561 C562 1.434 . S
C562 C553 1.429 . S
C562 N559 1.350 . S
C562 C561 1.434 . S
C563 C564 1.369 . S
C563 C565 1.419 1_445 S
C563 H567 0.930 . S
C564 C563 1.369 . S
C564 C573 1.429 1_545 S
C565 C563 1.419 1_665 S
C565 C566 1.363 . S
C565 H568 0.929 . S
C566 C565 1.363 . S
C566 C572 1.428 . S
H567 C563 0.930 . S
H568 C565 0.929 . S
S569 N570 1.613 1_655 S
S569 N571 1.610 . S
N570 S569 1.613 1_455 S
N570 C573 1.350 . S
N571 S569 1.610 . S
N571 C572 1.351 . S
C572 C566 1.428 . S
C572 N571 1.351 . S
C572 C573 1.434 1_655 S
C573 C564 1.429 1_565 S
C573 N570 1.350 . S
C573 C572 1.434 1_455 S
C574 C575 1.369 . S
C574 C576 1.419 . S
C574 H578 0.930 . S
C575 C574 1.369 . S
C575 C584 1.429 . S
C576 C574 1.419 . S
C576 C577 1.363 . S
C576 H579 0.929 . S
C577 C576 1.363 . S
C577 C583 1.428 . S
H578 C574 0.930 . S
H579 C576 0.929 . S
S580 N581 1.613 . S
S580 N582 1.610 . S
N581 S580 1.613 . S
N581 C584 1.350 . S
N582 S580 1.610 . S
N582 C583 1.351 . S
C583 C577 1.428 . S
C583 N582 1.351 . S
C583 C584 1.434 . S
C584 C575 1.429 . S
C584 N581 1.350 . S
C584 C583 1.434 . S
C585 C586 1.369 . S
C585 C587 1.419 1_545 S
C585 H589 0.930 1_545 S
C586 C585 1.369 . S
C586 C595 1.429 . S
C587 C585 1.419 1_565 S
C587 C588 1.363 1_565 S
C587 H590 0.929 . S
C588 C587 1.363 1_545 S
C588 C594 1.428 . S
H589 C585 0.930 1_565 S
H590 C587 0.929 . S
S591 N592 1.613 . S
S591 N593 1.610 . S
N592 S591 1.613 . S
N592 C595 1.350 . S
N593 S591 1.610 . S
N593 C594 1.351 . S
C594 C588 1.428 . S
C594 N593 1.351 . S
C594 C595 1.434 . S
C595 C586 1.429 . S
C595 N592 1.350 . S
C595 C594 1.434 . S
C596 C597 1.369 . S
C596 C598 1.419 . S
C596 H600 0.930 . S
C597 C596 1.369 . S
C597 C606 1.429 . S
C598 C596 1.419 . S
C598 C599 1.363 . S
C598 H601 0.929 . S
C599 C598 1.363 . S
C599 C605 1.428 . S
H600 C596 0.930 . S
H601 C598 0.929 . S
S602 N603 1.613 . S
S602 N604 1.610 . S
N603 S602 1.613 . S
N603 C606 1.350 . S
N604 S602 1.610 . S
N604 C605 1.351 . S
C605 C599 1.428 . S
C605 N604 1.351 . S
C605 C606 1.434 . S
C606 C597 1.429 . S
C606 N603 1.350 . S
C606 C605 1.434 . S
C607 C608 1.369 1_465 S
C607 C609 1.419 1_565 S
C607 H611 0.930 . S
C608 C607 1.369 1_645 S
C608 C617 1.429 . S
C609 C607 1.419 1_545 S
C609 C610 1.363 . S
C609 H612 0.929 1_545 S
C610 C609 1.363 . S
C610 C616 1.428 . S
H611 C607 0.930 . S
H612 C609 0.929 1_565 S
S613 N614 1.613 . S
S613 N615 1.610 1_655 S
N614 S613 1.613 . S
N614 C617 1.350 . S
N615 S613 1.610 1_455 S
N615 C616 1.351 . S
C616 C610 1.428 . S
C616 N615 1.351 . S
C616 C617 1.434 1_455 S
C617 C608 1.429 . S
C617 N614 1.350 . S
C617 C616 1.434 1_655 S
C618 C619 1.369 . S
C618 C620 1.419 . S
C618 H622 0.930 . S
C619 C618 1.369 . S
C619 C628 1.429 . S
C620 C618 1.419 . S
C620 C621 1.363 . S
C620 H623 0.929 . S
C621 C620 1.363 . S
C621 C627 1.428 . S
H622 C618 0.930 . S
H623 C620 0.929 . S
S624 N625 1.613 . S
S624 N626 1.610 . S
N625 S624 1.613 . S
N625 C628 1.350 . S
N626 S624 1.610 . S
N626 C627 1.351 . S
C627 C621 1.428 . S
C627 N626 1.351 . S
C627 C628 1.434 . S
C628 C619 1.429 . S
C628 N625 1.350 . S
C628 C627 1.434 . S
C629 C630 1.369 . S
C629 C631 1.419 . S
C629 H633 0.930 . S
C630 C629 1.369 . S
C630 C639 1.429 . S
C631 C629 1.419 . S
C631 C632 1.363 . S
C631 H634 0.929 . S
C632 C631 1.363 . S
C632 C638 1.428 . S
H633 C629 0.930 . S
H634 C631 0.929 . S
S635 N636 1.613 . S
S635 N637 1.610 . S
N636 S635 1.613 . S
N636 C639 1.350 . S
N637 S635 1.610 . S
N637 C638 1.351 . S
C638 C632 1.428 . S
C638 N637 1.351 . S
C638 C639 1.434 . S
C639 C630 1.429 . S
C639 N636 1.350 . S
C639 C638 1.434 . S
C640 C641 1.369 . S
C640 C642 1.419 . S
C640 H644 0.930 . S
C641 C640 1.369 . S
C641 C650 1.429 . S
C642 C640 1.419 . S
C642 C643 1.363 1_556 S
C642 H645 0.932 . S
C643 C642 1.363 1_554 S
C643 C649 1.428 . S
H644 C640 0.930 . S
H645 C642 0.932 . S
S646 N647 1.613 1_564 S
S646 N648 1.610 1_565 S
N647 S646 1.613 1_546 S
N647 C650 1.350 . S
N648 S646 1.610 1_545 S
N648 C649 1.351 . S
C649 C643 1.428 . S
C649 N648 1.351 . S
C649 C650 1.434 1_554 S
C650 C641 1.429 . S
C650 N647 1.350 . S
C650 C649 1.434 1_556 S
C651 C652 1.369 . S
C651 C653 1.419 . S
C651 H655 0.930 . S
C652 C651 1.369 . S
C652 C661 1.429 . S
C653 C651 1.419 . S
C653 C654 1.363 . S
C653 H656 0.929 . S
C654 C653 1.363 . S
C654 C660 1.428 . S
H655 C651 0.930 . S
H656 C653 0.929 . S
S657 N658 1.613 . S
S657 N659 1.610 . S
N658 S657 1.613 . S
N658 C661 1.350 . S
N659 S657 1.610 . S
N659 C660 1.351 . S
C660 C654 1.428 . S
C660 N659 1.351 . S
C660 C661 1.434 . S
C661 C652 1.429 . S
C661 N658 1.350 . S
C661 C660 1.434 . S
C662 C663 1.369 . S
C662 C664 1.419 . S
C662 H666 0.930 . S
C663 C662 1.369 . S
C663 C672 1.429 . S
C664 C662 1.419 . S
C664 C665 1.363 . S
C664 H667 0.929 . S
C665 C664 1.363 . S
C665 C671 1.428 . S
H666 C662 0.930 . S
H667 C664 0.929 . S
S668 N669 1.613 . S
S668 N670 1.610 . S
N669 S668 1.613 . S
N669 C672 1.350 . S
N670 S668 1.610 . S
N670 C671 1.351 . S
C671 C665 1.428 . S
C671 N670 1.351 . S
C671 C672 1.434 . S
C672 C663 1.429 . S
C672 N669 1.350 . S
C672 C671 1.434 . S
C673 C674 1.369 . S
C673 C675 1.419 . S
C673 H677 0.930 . S
C674 C673 1.369 . S
C674 C683 1.429 . S
C675 C673 1.419 . S
C675 C676 1.363 . S
C675 H678 0.929 . S
C676 C675 1.363 . S
C676 C682 1.428 . S
H677 C673 0.930 . S
H678 C675 0.929 . S
S679 N680 1.613 . S
S679 N681 1.610 . S
N680 S679 1.613 . S
N680 C683 1.350 . S
N681 S679 1.610 . S
N681 C682 1.351 . S
C682 C676 1.428 . S
C682 N681 1.351 . S
C682 C683 1.434 . S
C683 C674 1.429 . S
C683 N680 1.350 . S
C683 C682 1.434 . S
C684 C685 1.369 . S
C684 C686 1.419 . S
C684 H688 0.930 . S
C685 C684 1.369 . S
C685 C694 1.429 . S
C686 C684 1.419 . S
C686 C687 1.363 1_554 S
C686 H689 0.929 1_554 S
C687 C686 1.363 1_556 S
C687 C693 1.440 . S
H688 C684 0.930 . S
H689 C686 0.929 1_556 S
S690 N691 1.613 . S
S690 N692 1.610 1_554 S
N691 S690 1.613 . S
N691 C694 1.350 . S
N692 S690 1.610 1_556 S
N692 C693 1.361 . S
C693 C687 1.440 . S
C693 N692 1.361 . S
C693 C694 1.410 1_556 S
C694 C685 1.429 . S
C694 N691 1.350 . S
C694 C693 1.410 1_554 S
C695 C696 1.369 . S
C695 C697 1.419 . S
C695 H699 0.930 . S
C696 C695 1.369 . S
C696 C705 1.429 . S
C697 C695 1.419 . S
C697 C698 1.363 . S
C697 H700 0.929 . S
C698 C697 1.363 . S
C698 C704 1.428 . S
H699 C695 0.930 . S
H700 C697 0.929 . S
S701 N702 1.613 . S
S701 N703 1.610 . S
N702 S701 1.613 . S
N702 C705 1.350 . S
N703 S701 1.610 . S
N703 C704 1.351 . S
C704 C698 1.428 . S
C704 N703 1.351 . S
C704 C705 1.434 . S
C705 C696 1.429 . S
C705 N702 1.350 . S
C705 C704 1.434 . S
C706 C707 1.369 . S
C706 C708 1.419 . S
C706 H710 0.930 . S
C707 C706 1.369 . S
C707 C716 1.429 . S
C708 C706 1.419 . S
C708 C709 1.363 . S
C708 H711 0.929 . S
C709 C708 1.363 . S
C709 C715 1.428 . S
H710 C706 0.930 . S
H711 C708 0.929 . S
S712 N713 1.613 1_565 S
S712 N714 1.610 1_565 S
N713 S712 1.613 1_545 S
N713 C716 1.350 . S
N714 S712 1.610 1_545 S
N714 C715 1.351 . S
C715 C709 1.428 . S
C715 N714 1.351 . S
C715 C716 1.434 . S
C716 C707 1.429 . S
C716 N713 1.350 . S
C716 C715 1.434 . S
C717 C718 1.369 . S
C717 C719 1.419 . S
C717 H721 0.930 . S
C718 C717 1.369 . S
C718 C727 1.429 . S
C719 C717 1.419 . S
C719 C720 1.363 . S
C719 H722 0.929 . S
C720 C719 1.363 . S
C720 C726 1.428 . S
H721 C717 0.930 . S
H722 C719 0.929 . S
S723 N724 1.613 . S
S723 N725 1.610 . S
N724 S723 1.613 . S
N724 C727 1.350 . S
N725 S723 1.610 . S
N725 C726 1.351 . S
C726 C720 1.428 . S
C726 N725 1.351 . S
C726 C727 1.434 . S
C727 C718 1.429 . S
C727 N724 1.350 . S
C727 C726 1.434 . S
C728 C729 1.369 . S
C728 C730 1.419 . S
C728 H732 0.930 . S
C729 C728 1.369 . S
C729 C738 1.429 . S
C730 C728 1.419 . S
C730 C731 1.363 . S
C730 H733 0.929 . S
C731 C730 1.363 . S
C731 C737 1.428 . S
H732 C728 0.930 . S
H733 C730 0.929 . S
S734 N735 1.613 . S
S734 N736 1.610 . S
N735 S734 1.613 . S
N735 C738 1.350 . S
N736 S734 1.610 . S
N736 C737 1.351 . S
C737 C731 1.428 . S
C737 N736 1.351 . S
C737 C738 1.434 . S
C738 C729 1.429 . S
C738 N735 1.350 . S
C738 C737 1.434 . S
C739 C740 1.369 . S
C739 C741 1.419 . S
C739 H743 0.930 . S
C740 C739 1.369 . S
C740 C749 1.429 1_565 S
C741 C739 1.419 . S
C741 C742 1.363 1_565 S
C741 H744 0.929 . S
C742 C741 1.363 1_545 S
C742 C748 1.428 . S
H743 C739 0.930 . S
H744 C741 0.929 . S
S745 N746 1.613 . S
S745 N747 1.610 . S
N746 S745 1.613 . S
N746 C749 1.350 . S
N747 S745 1.610 . S
N747 C748 1.351 . S
C748 C742 1.428 . S
C748 N747 1.351 . S
C748 C749 1.434 . S
C749 C740 1.429 1_545 S
C749 N746 1.350 . S
C749 C748 1.434 . S
C750 C751 1.369 . S
C750 C752 1.419 . S
C750 H754 0.930 . S
C751 C750 1.369 . S
C751 C760 1.429 . S
C752 C750 1.419 . S
C752 C753 1.363 1_556 S
C752 H755 0.929 . S
C753 C752 1.363 1_554 S
C753 C759 1.428 . S
H754 C750 0.930 . S
H755 C752 0.929 . S
S756 N757 1.613 1_554 S
S756 N758 1.610 . S
N757 S756 1.613 1_556 S
N757 C760 1.350 . S
N758 S756 1.610 . S
N758 C759 1.351 . S
C759 C753 1.428 . S
C759 N758 1.351 . S
C759 C760 1.434 1_554 S
C760 C751 1.429 . S
C760 N757 1.350 . S
C760 C759 1.434 1_556 S
C761 C762 1.369 . S
C761 C763 1.419 . S
C761 H765 0.930 . S
C762 C761 1.369 . S
C762 C771 1.429 . S
C763 C761 1.419 . S
C763 C764 1.363 . S
C763 H766 0.929 . S
C764 C763 1.363 . S
C764 C770 1.428 . S
H765 C761 0.930 . S
H766 C763 0.929 . S
S767 N768 1.613 1_565 S
S767 N769 1.610 1_565 S
N768 S767 1.613 1_545 S
N768 C771 1.350 . S
N769 S767 1.610 1_545 S
N769 C770 1.351 . S
C770 C764 1.428 . S
C770 N769 1.351 . S
C770 C771 1.434 . S
C771 C762 1.429 . S
C771 N768 1.350 . S
C771 C770 1.434 . S
C772 C773 1.369 . S
C772 C774 1.419 . S
C772 H776 0.930 . S
C773 C772 1.369 . S
C773 C782 1.429 . S
C774 C772 1.419 . S
C774 C775 1.363 . S
C774 H777 0.929 . S
C775 C774 1.363 . S
C775 C781 1.428 . S
H776 C772 0.930 . S
H777 C774 0.929 . S
S778 N779 1.613 . S
S778 N780 1.610 . S
N779 S778 1.613 . S
N779 C782 1.350 . S
N780 S778 1.610 . S
N780 C781 1.351 . S
C781 C775 1.428 . S
C781 N780 1.351 . S
C781 C782 1.434 . S
C782 C773 1.429 . S
C782 N779 1.350 . S
C782 C781 1.434 . S
C783 C784 1.359 1_565 S
C783 C785 1.419 . S
C783 H787 0.930 . S
C784 C783 1.359 1_545 S
C784 C793 1.438 . S
C785 C783 1.419 . S
C785 C786 1.363 . S
C785 H788 0.929 . S
C786 C785 1.363 . S
C786 C792 1.428 1_565 S
H787 C783 0.930 . S
H788 C785 0.929 . S
S789 N790 1.613 . S
S789 N791 1.610 . S
N790 S789 1.613 . S
N790 C793 1.350 . S
N791 S789 1.610 . S
N791 C792 1.351 . S
C792 C786 1.428 1_545 S
C792 N791 1.351 . S
C792 C793 1.434 . S
C793 C784 1.438 . S
C793 N790 1.350 . S
C793 C792 1.434 . S
C794 C795 1.369 . S
C794 C796 1.419 . S
C794 H798 0.930 . S
C795 C794 1.369 . S
C795 C804 1.429 . S
C796 C794 1.419 . S
C796 C797 1.363 1_554 S
C796 H799 0.929 . S
C797 C796 1.363 1_556 S
C797 C803 1.428 . S
H798 C794 0.930 . S
H799 C796 0.929 . S
S800 N801 1.613 1_556 S
S800 N802 1.610 . S
N801 S800 1.613 1_554 S
N801 C804 1.350 . S
N802 S800 1.610 . S
N802 C803 1.351 . S
C803 C797 1.428 . S
C803 N802 1.351 . S
C803 C804 1.434 1_556 S
C804 C795 1.429 . S
C804 N801 1.350 . S
C804 C803 1.434 1_554 S
C805 C806 1.369 . S
C805 C807 1.419 . S
C805 H809 0.930 . S
C806 C805 1.369 . S
C806 C815 1.429 1_565 S
C807 C805 1.419 . S
C807 C808 1.363 1_565 S
C807 H810 0.929 . S
C808 C807 1.363 1_545 S
C808 C814 1.428 . S
H809 C805 0.930 . S
H810 C807 0.929 . S
S811 N812 1.613 . S
S811 N813 1.610 . S
N812 S811 1.613 . S
N812 C815 1.350 . S
N813 S811 1.610 . S
N813 C814 1.351 . S
C814 C808 1.428 . S
C814 N813 1.351 . S
C814 C815 1.434 . S
C815 C806 1.429 1_545 S
C815 N812 1.350 . S
C815 C814 1.434 . S
C816 C817 1.369 1_545 S
C816 C818 1.419 1_556 S
C816 H820 0.930 . S
C817 C816 1.369 1_565 S
C817 C826 1.429 1_556 S
C818 C816 1.419 1_554 S
C818 C819 1.363 . S
C818 H821 0.929 . S
C819 C818 1.363 . S
C819 C825 1.428 1_545 S
H820 C816 0.930 . S
H821 C818 0.929 . S
S822 N823 1.613 . S
S822 N824 1.610 . S
N823 S822 1.613 . S
N823 C826 1.350 . S
N824 S822 1.610 . S
N824 C825 1.351 . S
C825 C819 1.428 1_565 S
C825 N824 1.351 . S
C825 C826 1.434 . S
C826 C817 1.429 1_554 S
C826 N823 1.350 . S
C826 C825 1.434 . S
C827 C828 1.369 . S
C827 C829 1.419 . S
C827 H831 0.930 . S
C828 C827 1.369 . S
C828 C837 1.429 . S
C829 C827 1.419 . S
C829 C830 1.363 . S
C829 H832 0.929 . S
C830 C829 1.363 . S
C830 C836 1.428 . S
H831 C827 0.930 . S
H832 C829 0.929 . S
S833 N834 1.613 . S
S833 N835 1.610 . S
N834 S833 1.613 . S
N834 C837 1.350 . S
N835 S833 1.610 . S
N835 C836 1.351 . S
C836 C830 1.428 . S
C836 N835 1.351 . S
C836 C837 1.434 . S
C837 C828 1.429 . S
C837 N834 1.350 . S
C837 C836 1.434 . S
C838 C839 1.369 1_465 S
C838 C840 1.419 . S
C838 H842 0.930 . S
C839 C838 1.369 1_645 S
C839 C848 1.429 . S
C840 C838 1.419 . S
C840 C841 1.363 . S
C840 H843 0.929 . S
C841 C840 1.363 . S
C841 C847 1.428 1_465 S
H842 C838 0.930 . S
H843 C840 0.929 . S
S844 N845 1.613 . S
S844 N846 1.610 1_655 S
N845 S844 1.613 . S
N845 C848 1.350 . S
N846 S844 1.610 1_455 S
N846 C847 1.351 1_455 S
C847 C841 1.428 1_645 S
C847 N846 1.351 1_655 S
C847 C848 1.434 . S
C848 C839 1.429 . S
C848 N845 1.350 . S
C848 C847 1.434 . S
C849 C850 1.369 . S
C849 C851 1.419 . S
C849 H853 0.930 . S
C850 C849 1.369 . S
C850 C859 1.429 . S
C851 C849 1.419 . S
C851 C852 1.363 . S
C851 H854 0.929 . S
C852 C851 1.363 . S
C852 C858 1.428 . S
H853 C849 0.930 . S
H854 C851 0.929 . S
S855 N856 1.613 . S
S855 N857 1.610 . S
N856 S855 1.613 . S
N856 C859 1.350 . S
N857 S855 1.610 . S
N857 C858 1.351 . S
C858 C852 1.428 . S
C858 N857 1.351 . S
C858 C859 1.434 . S
C859 C850 1.429 . S
C859 N856 1.350 . S
C859 C858 1.434 . S
C860 C861 1.369 . S
C860 C862 1.419 . S
C860 H864 0.930 . S
C861 C860 1.369 . S
C861 C870 1.429 . S
C862 C860 1.419 . S
C862 C863 1.363 . S
C862 H865 0.929 . S
C863 C862 1.363 . S
C863 C869 1.428 . S
H864 C860 0.930 . S
H865 C862 0.929 . S
S866 N867 1.613 . S
S866 N868 1.610 . S
N867 S866 1.613 . S
N867 C870 1.350 . S
N868 S866 1.610 . S
N868 C869 1.351 . S
C869 C863 1.428 . S
C869 N868 1.351 . S
C869 C870 1.434 . S
C870 C861 1.429 . S
C870 N867 1.350 . S
C870 C869 1.434 . S
C871 C872 1.369 . S
C871 C873 1.419 . S
C871 H875 0.930 . S
C872 C871 1.369 . S
C872 C881 1.429 . S
C873 C871 1.419 . S
C873 C874 1.363 . S
C873 H876 0.929 . S
C874 C873 1.363 . S
C874 C880 1.428 . S
H875 C871 0.930 . S
H876 C873 0.929 . S
S877 N878 1.613 . S
S877 N879 1.610 . S
N878 S877 1.613 . S
N878 C881 1.350 . S
N879 S877 1.610 . S
N879 C880 1.351 . S
C880 C874 1.428 . S
C880 N879 1.351 . S
C880 C881 1.434 . S
C881 C872 1.429 . S
C881 N878 1.350 . S
C881 C880 1.434 . S
C882 C883 1.361 1_655 S
C882 C884 1.419 . S
C882 H886 0.930 . S
C883 C882 1.361 1_455 S
C883 C892 1.438 . S
C884 C882 1.419 . S
C884 C885 1.363 1_655 S
C884 H887 0.929 . S
C885 C884 1.363 1_455 S
C885 C891 1.428 . S
H886 C882 0.930 . S
H887 C884 0.929 . S
S888 N889 1.613 . S
S888 N890 1.610 . S
N889 S888 1.613 . S
N889 C892 1.350 . S
N890 S888 1.610 . S
N890 C891 1.351 . S
C891 C885 1.428 . S
C891 N890 1.351 . S
C891 C892 1.434 . S
C892 C883 1.438 . S
C892 N889 1.350 . S
C892 C891 1.434 . S
C893 C894 1.369 . S
C893 C895 1.419 1_554 S
C893 H897 0.930 . S
C894 C893 1.369 . S
C894 C903 1.429 . S
C895 C893 1.419 1_556 S
C895 C896 1.363 . S
C895 H898 0.929 . S
C896 C895 1.363 . S
C896 C902 1.428 . S
H897 C893 0.930 . S
H898 C895 0.929 . S
S899 N900 1.613 . S
S899 N901 1.610 1_554 S
N900 S899 1.613 . S
N900 C903 1.350 . S
N901 S899 1.610 1_556 S
N901 C902 1.351 . S
C902 C896 1.428 . S
C902 N901 1.351 . S
C902 C903 1.434 1_556 S
C903 C894 1.429 . S
C903 N900 1.350 . S
C903 C902 1.434 1_554 S
C904 C905 1.369 . S
C904 C906 1.419 . S
C904 H908 0.930 . S
C905 C904 1.369 . S
C905 C914 1.429 . S
C906 C904 1.419 . S
C906 C907 1.363 . S
C906 H909 0.929 . S
C907 C906 1.363 . S
C907 C913 1.428 . S
H908 C904 0.930 . S
H909 C906 0.929 . S
S910 N911 1.613 . S
S910 N912 1.610 . S
N911 S910 1.613 . S
N911 C914 1.350 . S
N912 S910 1.610 . S
N912 C913 1.351 . S
C913 C907 1.428 . S
C913 N912 1.351 . S
C913 C914 1.434 . S
C914 C905 1.429 . S
C914 N911 1.350 . S
C914 C913 1.434 . S
C915 C916 1.369 . S
C915 C917 1.419 . S
C915 H919 0.930 . S
C916 C915 1.369 . S
C916 C925 1.429 . S
C917 C915 1.419 . S
C917 C918 1.363 . S
C917 H920 0.929 . S
C918 C917 1.363 . S
C918 C924 1.428 . S
H919 C915 0.930 . S
H920 C917 0.929 . S
S921 N922 1.613 . S
S921 N923 1.610 . S
N922 S921 1.613 . S
N922 C925 1.350 . S
N923 S921 1.610 . S
N923 C924 1.351 . S
C924 C918 1.428 . S
C924 N923 1.351 . S
C924 C925 1.434 . S
C925 C916 1.429 . S
C925 N922 1.350 . S
C925 C924 1.434 . S
C926 C927 1.369 . S
C926 C928 1.419 . S
C926 H930 0.930 . S
C927 C926 1.369 . S
C927 C936 1.429 . S
C928 C926 1.419 . S
C928 C929 1.363 . S
C928 H931 0.929 . S
C929 C928 1.363 . S
C929 C935 1.428 . S
H930 C926 0.930 . S
H931 C928 0.929 . S
S932 N933 1.613 . S
S932 N934 1.610 . S
N933 S932 1.613 . S
N933 C936 1.350 . S
N934 S932 1.610 . S
N934 C935 1.351 . S
C935 C929 1.428 . S
C935 N934 1.351 . S
C935 C936 1.434 . S
C936 C927 1.429 . S
C936 N933 1.350 . S
C936 C935 1.434 . S
C937 C938 1.369 . S
C937 C939 1.419 . S
C937 H941 0.930 . S
C938 C937 1.369 . S
C938 C947 1.429 . S
C939 C937 1.419 . S
C939 C940 1.363 . S
C939 H942 0.929 . S
C940 C939 1.363 . S
C940 C946 1.428 . S
H941 C937 0.930 . S
H942 C939 0.929 . S
S943 N944 1.613 . S
S943 N945 1.610 . S
N944 S943 1.613 . S
N944 C947 1.350 . S
N945 S943 1.610 . S
N945 C946 1.351 . S
C946 C940 1.428 . S
C946 N945 1.351 . S
C946 C947 1.434 . S
C947 C938 1.429 . S
C947 N944 1.350 . S
C947 C946 1.434 . S
C948 C949 1.369 . S
C948 C950 1.419 . S
C948 H952 0.930 . S
C949 C948 1.369 . S
C949 C958 1.429 . S
C950 C948 1.419 . S
C950 C951 1.363 . S
C950 H953 0.929 . S
C951 C950 1.363 . S
C951 C957 1.428 . S
H952 C948 0.930 . S
H953 C950 0.929 . S
S954 N955 1.613 . S
S954 N956 1.610 . S
N955 S954 1.613 . S
N955 C958 1.350 . S
N956 S954 1.610 . S
N956 C957 1.351 . S
C957 C951 1.428 . S
C957 N956 1.351 . S
C957 C958 1.434 . S
C958 C949 1.429 . S
C958 N955 1.350 . S
C958 C957 1.434 . S
C959 C960 1.369 . S
C959 C961 1.419 . S
C959 H963 0.930 . S
C960 C959 1.369 . S
C960 C969 1.429 . S
C961 C959 1.419 . S
C961 C962 1.363 . S
C961 H964 0.929 . S
C962 C961 1.363 . S
C962 C968 1.428 . S
H963 C959 0.930 . S
H964 C961 0.929 . S
S965 N966 1.613 . S
S965 N967 1.610 . S
N966 S965 1.613 . S
N966 C969 1.350 . S
N967 S965 1.610 . S
N967 C968 1.351 . S
C968 C962 1.428 . S
C968 N967 1.351 . S
C968 C969 1.434 . S
C969 C960 1.429 . S
C969 N966 1.350 . S
C969 C968 1.434 . S
C970 C971 1.369 . S
C970 C972 1.419 . S
C970 H974 0.930 . S
C971 C970 1.369 . S
C971 C980 1.429 . S
C972 C970 1.419 . S
C972 C973 1.363 . S
C972 H975 0.929 . S
C973 C972 1.363 . S
C973 C979 1.428 . S
H974 C970 0.930 . S
H975 C972 0.929 . S
S976 N977 1.613 . S
S976 N978 1.610 . S
N977 S976 1.613 . S
N977 C980 1.350 . S
N978 S976 1.610 . S
N978 C979 1.351 . S
C979 C973 1.428 . S
C979 N978 1.351 . S
C979 C980 1.434 . S
C980 C971 1.429 . S
C980 N977 1.350 . S
C980 C979 1.434 . S
C981 C982 1.369 . S
C981 C983 1.419 . S
C981 H985 0.930 . S
C982 C981 1.369 . S
C982 C991 1.429 . S
C983 C981 1.419 . S
C983 C984 1.363 . S
C983 H986 0.929 . S
C984 C983 1.363 . S
C984 C990 1.428 . S
H985 C981 0.930 . S
H986 C983 0.929 . S
S987 N988 1.613 . S
S987 N989 1.610 . S
N988 S987 1.613 . S
N988 C991 1.350 . S
N989 S987 1.610 . S
N989 C990 1.351 . S
C990 C984 1.428 . S
C990 N989 1.351 . S
C990 C991 1.434 . S
C991 C982 1.429 . S
C991 N988 1.350 . S
C991 C990 1.434 . S
C992 C993 1.369 . S
C992 C994 1.419 . S
C992 H996 0.930 . S
C993 C992 1.369 . S
C993 C1002 1.429 . S
C994 C992 1.419 . S
C994 C995 1.363 . S
C994 H997 0.929 . S
C995 C994 1.363 . S
C995 C1001 1.428 . S
H996 C992 0.930 . S
H997 C994 0.929 . S
S998 N999 1.613 . S
S998 N1000 1.610 . S
N999 S998 1.613 . S
N999 C1002 1.350 . S
N1000 S998 1.610 . S
N1000 C1001 1.351 . S
C1001 C995 1.428 . S
C1001 N1000 1.351 . S
C1001 C1002 1.434 . S
C1002 C993 1.429 . S
C1002 N999 1.350 . S
C1002 C1001 1.434 . S
C1003 C1004 1.369 . S
C1003 C1005 1.419 . S
C1003 H1007 0.930 1_545 S
C1004 C1003 1.369 . S
C1004 C1013 1.429 . S
C1005 C1003 1.419 . S
C1005 C1006 1.363 . S
C1005 H1008 0.929 . S
C1006 C1005 1.363 . S
C1006 C1012 1.428 . S
H1007 C1003 0.930 1_565 S
H1008 C1005 0.929 . S
S1009 N1010 1.613 . S
S1009 N1011 1.610 . S
N1010 S1009 1.613 . S
N1010 C1013 1.350 . S
N1011 S1009 1.610 . S
N1011 C1012 1.351 . S
C1012 C1006 1.428 . S
C1012 N1011 1.351 . S
C1012 C1013 1.434 . S
C1013 C1004 1.429 . S
C1013 N1010 1.350 . S
C1013 C1012 1.434 . S
C1014 C1015 1.369 . S
C1014 C1016 1.419 . S
C1014 H1018 0.930 . S
C1015 C1014 1.369 . S
C1015 C1024 1.429 . S
C1016 C1014 1.419 . S
C1016 C1017 1.363 . S
C1016 H1019 0.929 . S
C1017 C1016 1.363 . S
C1017 C1023 1.428 . S
H1018 C1014 0.930 . S
H1019 C1016 0.929 . S
S1020 N1021 1.613 . S
S1020 N1022 1.610 . S
N1021 S1020 1.613 . S
N1021 C1024 1.350 . S
N1022 S1020 1.610 . S
N1022 C1023 1.351 . S
C1023 C1017 1.428 . S
C1023 N1022 1.351 . S
C1023 C1024 1.434 . S
C1024 C1015 1.429 . S
C1024 N1021 1.350 . S
C1024 C1023 1.434 . S
C1025 C1026 1.369 . S
C1025 C1027 1.419 . S
C1025 H1029 0.930 . S
C1026 C1025 1.369 . S
C1026 C1035 1.429 . S
C1027 C1025 1.419 . S
C1027 C1028 1.363 . S
C1027 H1030 0.929 . S
C1028 C1027 1.363 . S
C1028 C1034 1.428 . S
H1029 C1025 0.930 . S
H1030 C1027 0.929 . S
S1031 N1032 1.613 . S
S1031 N1033 1.610 . S
N1032 S1031 1.613 . S
N1032 C1035 1.350 . S
N1033 S1031 1.610 . S
N1033 C1034 1.351 . S
C1034 C1028 1.428 . S
C1034 N1033 1.351 . S
C1034 C1035 1.434 . S
C1035 C1026 1.429 . S
C1035 N1032 1.350 . S
C1035 C1034 1.434 . S
C1036 C1037 1.369 . S
C1036 C1038 1.419 . S
C1036 H1040 0.930 . S
C1037 C1036 1.369 . S
C1037 C1046 1.429 . S
C1038 C1036 1.419 . S
C1038 C1039 1.363 . S
C1038 H1041 0.929 . S
C1039 C1038 1.363 . S
C1039 C1045 1.428 . S
H1040 C1036 0.930 . S
H1041 C1038 0.929 . S
S1042 N1043 1.613 . S
S1042 N1044 1.610 . S
N1043 S1042 1.613 . S
N1043 C1046 1.350 . S
N1044 S1042 1.610 . S
N1044 C1045 1.351 . S
C1045 C1039 1.428 . S
C1045 N1044 1.351 . S
C1045 C1046 1.434 . S
C1046 C1037 1.429 . S
C1046 N1043 1.350 . S
C1046 C1045 1.434 . S
C1047 C1048 1.369 1_545 S
C1047 C1049 1.419 1_545 S
C1047 H1051 0.930 . S
C1048 C1047 1.369 1_565 S
C1048 C1057 1.429 . S
C1049 C1047 1.419 1_565 S
C1049 C1050 1.363 . S
C1049 H1052 0.929 1_565 S
C1050 C1049 1.363 . S
C1050 C1056 1.428 . S
H1051 C1047 0.930 . S
H1052 C1049 0.929 1_545 S
S1053 N1054 1.613 . S
S1053 N1055 1.610 . S
N1054 S1053 1.613 . S
N1054 C1057 1.350 . S
N1055 S1053 1.610 . S
N1055 C1056 1.351 . S
C1056 C1050 1.428 . S
C1056 N1055 1.351 . S
C1056 C1057 1.434 . S
C1057 C1048 1.429 . S
C1057 N1054 1.350 . S
C1057 C1056 1.434 . S
C1058 C1059 1.369 . S
C1058 C1060 1.419 . S
C1058 H1062 0.930 . S
C1059 C1058 1.369 . S
C1059 C1068 1.429 . S
C1060 C1058 1.419 . S
C1060 C1061 1.363 . S
C1060 H1063 0.929 . S
C1061 C1060 1.363 . S
C1061 C1067 1.428 . S
H1062 C1058 0.930 . S
H1063 C1060 0.929 . S
S1064 N1065 1.613 . S
S1064 N1066 1.610 . S
N1065 S1064 1.613 . S
N1065 C1068 1.350 . S
N1066 S1064 1.610 . S
N1066 C1067 1.351 . S
C1067 C1061 1.428 . S
C1067 N1066 1.351 . S
C1067 C1068 1.434 . S
C1068 C1059 1.429 . S
C1068 N1065 1.350 . S
C1068 C1067 1.434 . S
C1069 C1070 1.369 . S
C1069 C1071 1.419 . S
C1069 H1073 0.930 . S
C1070 C1069 1.369 . S
C1070 C1079 1.429 1_545 S
C1071 C1069 1.419 . S
C1071 C1072 1.363 . S
C1071 H1074 0.929 . S
C1072 C1071 1.363 . S
C1072 C1078 1.428 . S
H1073 C1069 0.930 . S
H1074 C1071 0.929 . S
S1075 N1076 1.613 . S
S1075 N1077 1.610 . S
N1076 S1075 1.613 . S
N1076 C1079 1.350 . S
N1077 S1075 1.610 . S
N1077 C1078 1.351 1_565 S
C1078 C1072 1.428 . S
C1078 N1077 1.351 1_545 S
C1078 C1079 1.434 1_545 S
C1079 C1070 1.429 1_565 S
C1079 N1076 1.350 . S
C1079 C1078 1.434 1_565 S
C465 C224 2.096 . S
C467 C5 2.138 . S
C476 C369 2.362 . S
C478 C39 2.509 . S
C487 C63 2.414 . S
C489 C166 2.412 . S
C498 C427 2.218 . S
C500 C92 2.211 . S
C509 C108 2.294 . S
C511 C121 2.283 . S
C520 C150 2.398 . S
C522 C253 2.302 . S
C531 C179 2.423 . S
C533 C37 2.171 . S
C542 C311 2.382 . S
C544 C208 2.342 . S
C553 C456 2.092 . S
C555 C237 2.139 . S
C564 C271 2.511 . S
C566 C137 2.367 . S
C575 C398 2.414 . S
C577 C295 2.416 . S
C586 C195 2.222 . S
C588 C324 2.208 1_545 S
C597 C340 2.291 . S
C599 C353 2.281 . S
C608 C382 2.395 1_545 S
C610 C21 2.300 . S
C619 C411 2.427 . S
C621 C269 2.164 . S
C630 C79 2.378 . S
C632 C440 2.345 1_565 S
C641 C282 1.292 . S
C643 C3 1.264 . S
C652 C44 0.977 . S
C654 C298 1.080 . S
C663 C61 0.972 . S
C665 C327 1.084 . S
C674 C90 1.162 . S
C676 C240 1.322 . S
C685 C385 0.858 . S
C687 C119 0.822 . S
C696 C148 1.463 . S
C698 C414 1.589 . S
C707 C443 1.255 . S
C709 C177 1.138 . S
C718 C206 1.430 . S
C720 C356 1.600 . S
C729 C50 1.292 . S
C731 C235 1.263 . S
C740 C66 1.080 . S
C742 C276 0.965 . S
C751 C95 1.076 . S
C753 C293 0.967 . S
C762 C8 1.325 . S
C764 C322 1.175 . S
C773 C351 0.828 . S
C775 C153 0.855 . S
C784 C182 1.590 . S
C786 C380 1.456 . S
C795 C211 1.254 . S
C797 C409 1.138 . S
C806 C438 1.423 1_565 S
C808 C124 1.601 1_545 S
C817 C129 2.231 . S
C819 C13 2.228 . S
C828 C42 1.848 . S
C830 C390 1.996 . S
C839 C187 2.059 . S
C841 C71 2.056 . S
C850 C448 2.414 . S
C852 C100 2.408 . S
C861 C274 1.853 . S
C863 C158 1.996 . S
C872 C216 2.411 . S
C874 C332 2.410 . S
C883 C245 2.231 1_455 S
C885 C361 2.227 . S
C894 C303 2.057 . S
C896 C419 2.057 . S
C905 C218 1.504 . S
C907 C10 1.456 . S
C916 C363 1.665 . S
C918 C34 1.526 . S
C927 C68 1.216 . S
C929 C160 1.251 . S
C938 C97 1.681 . S
C940 C421 1.701 . S
C949 C126 1.408 . S
C951 C102 1.440 . S
C960 C155 1.607 . S
C962 C247 1.704 . S
C971 C184 1.945 . S
C973 C32 1.998 . S
C982 C305 1.801 . S
C984 C213 1.757 . S
C993 C242 1.452 . S
C995 C450 1.508 . S
C1004 C131 1.668 . S
C1006 C266 1.535 . S
C1015 C392 1.251 . S
C1017 C300 1.215 . S
C1026 C329 1.687 . S
C1028 C189 1.704 1_565 S
C1037 C334 1.436 . S
C1039 C358 1.402 . S
C1048 C15 1.704 1_565 S
C1050 C387 1.609 . S
C1059 C416 1.940 . S
C1061 C264 2.002 . S
C1070 C73 1.801 1_545 S
C1072 C445 1.756 . S
