# Generated by pormake.
# Topology gme, (4)-cn, num edge types: 1
# Building blocks:
#     Node 0, Type 0, BuildingBlock: UXUYUI_clean_sbu_0, # of connection points: 4
#     Node 1, Type 0, BuildingBlock: UXUYUI_clean_sbu_0, # of connection points: 4
#     Node 2, Type 0, BuildingBlock: UXUYUI_clean_sbu_0, # of connection points: 4
#     Node 3, Type 0, BuildingBlock: UXUYUI_clean_sbu_0, # of connection points: 4
#     Node 4, Type 0, BuildingBlock: UXUYUI_clean_sbu_0, # of connection points: 4
#     Node 5, Type 0, BuildingBlock: UXUYUI_clean_sbu_0, # of connection points: 4
#     Node 6, Type 0, BuildingBlock: UXUYUI_clean_sbu_0, # of connection points: 4
#     Node 7, Type 0, BuildingBlock: UXUYUI_clean_sbu_0, # of connection points: 4
#     Node 8, Type 0, BuildingBlock: UXUYUI_clean_sbu_0, # of connection points: 4
#     Node 9, Type 0, BuildingBlock: UXUYUI_clean_sbu_0, # of connection points: 4
#     Node 10, Type 0, BuildingBlock: UXUYUI_clean_sbu_0, # of connection points: 4
#     Node 11, Type 0, BuildingBlock: UXUYUI_clean_sbu_0, # of connection points: 4
#     Node 12, Type 0, BuildingBlock: UXUYUI_clean_sbu_0, # of connection points: 4
#     Node 13, Type 0, BuildingBlock: UXUYUI_clean_sbu_0, # of connection points: 4
#     Node 14, Type 0, BuildingBlock: UXUYUI_clean_sbu_0, # of connection points: 4
#     Node 15, Type 0, BuildingBlock: UXUYUI_clean_sbu_0, # of connection points: 4
#     Node 16, Type 0, BuildingBlock: UXUYUI_clean_sbu_0, # of connection points: 4
#     Node 17, Type 0, BuildingBlock: UXUYUI_clean_sbu_0, # of connection points: 4
#     Node 18, Type 0, BuildingBlock: UXUYUI_clean_sbu_0, # of connection points: 4
#     Node 19, Type 0, BuildingBlock: UXUYUI_clean_sbu_0, # of connection points: 4
#     Node 20, Type 0, BuildingBlock: UXUYUI_clean_sbu_0, # of connection points: 4
#     Node 21, Type 0, BuildingBlock: UXUYUI_clean_sbu_0, # of connection points: 4
#     Node 22, Type 0, BuildingBlock: UXUYUI_clean_sbu_0, # of connection points: 4
#     Node 23, Type 0, BuildingBlock: UXUYUI_clean_sbu_0, # of connection points: 4
#     Edge 24, Type (0, 0), BuildingBlock: MIFKUJ_clean_linker_0, # of connection points: 2
#     Edge 25, Type (0, 0), BuildingBlock: MIFKUJ_clean_linker_0, # of connection points: 2
#     Edge 26, Type (0, 0), BuildingBlock: MIFKUJ_clean_linker_0, # of connection points: 2
#     Edge 27, Type (0, 0), BuildingBlock: MIFKUJ_clean_linker_0, # of connection points: 2
#     Edge 28, Type (0, 0), BuildingBlock: MIFKUJ_clean_linker_0, # of connection points: 2
#     Edge 29, Type (0, 0), BuildingBlock: MIFKUJ_clean_linker_0, # of connection points: 2
#     Edge 30, Type (0, 0), BuildingBlock: MIFKUJ_clean_linker_0, # of connection points: 2
#     Edge 31, Type (0, 0), BuildingBlock: MIFKUJ_clean_linker_0, # of connection points: 2
#     Edge 32, Type (0, 0), BuildingBlock: MIFKUJ_clean_linker_0, # of connection points: 2
#     Edge 33, Type (0, 0), BuildingBlock: MIFKUJ_clean_linker_0, # of connection points: 2
#     Edge 34, Type (0, 0), BuildingBlock: MIFKUJ_clean_linker_0, # of connection points: 2
#     Edge 35, Type (0, 0), BuildingBlock: MIFKUJ_clean_linker_0, # of connection points: 2
#     Edge 36, Type (0, 0), BuildingBlock: MIFKUJ_clean_linker_0, # of connection points: 2
#     Edge 37, Type (0, 0), BuildingBlock: MIFKUJ_clean_linker_0, # of connection points: 2
#     Edge 38, Type (0, 0), BuildingBlock: MIFKUJ_clean_linker_0, # of connection points: 2
#     Edge 39, Type (0, 0), BuildingBlock: MIFKUJ_clean_linker_0, # of connection points: 2
#     Edge 40, Type (0, 0), BuildingBlock: MIFKUJ_clean_linker_0, # of connection points: 2
#     Edge 41, Type (0, 0), BuildingBlock: MIFKUJ_clean_linker_0, # of connection points: 2
#     Edge 42, Type (0, 0), BuildingBlock: MIFKUJ_clean_linker_0, # of connection points: 2
#     Edge 43, Type (0, 0), BuildingBlock: MIFKUJ_clean_linker_0, # of connection points: 2
#     Edge 44, Type (0, 0), BuildingBlock: MIFKUJ_clean_linker_0, # of connection points: 2
#     Edge 45, Type (0, 0), BuildingBlock: MIFKUJ_clean_linker_0, # of connection points: 2
#     Edge 46, Type (0, 0), BuildingBlock: MIFKUJ_clean_linker_0, # of connection points: 2
#     Edge 47, Type (0, 0), BuildingBlock: MIFKUJ_clean_linker_0, # of connection points: 2
#     Edge 48, Type (0, 0), BuildingBlock: MIFKUJ_clean_linker_0, # of connection points: 2
#     Edge 49, Type (0, 0), BuildingBlock: MIFKUJ_clean_linker_0, # of connection points: 2
#     Edge 50, Type (0, 0), BuildingBlock: MIFKUJ_clean_linker_0, # of connection points: 2
#     Edge 51, Type (0, 0), BuildingBlock: MIFKUJ_clean_linker_0, # of connection points: 2
#     Edge 52, Type (0, 0), BuildingBlock: MIFKUJ_clean_linker_0, # of connection points: 2
#     Edge 53, Type (0, 0), BuildingBlock: MIFKUJ_clean_linker_0, # of connection points: 2
#     Edge 54, Type (0, 0), BuildingBlock: MIFKUJ_clean_linker_0, # of connection points: 2
#     Edge 55, Type (0, 0), BuildingBlock: MIFKUJ_clean_linker_0, # of connection points: 2
#     Edge 56, Type (0, 0), BuildingBlock: MIFKUJ_clean_linker_0, # of connection points: 2
#     Edge 57, Type (0, 0), BuildingBlock: MIFKUJ_clean_linker_0, # of connection points: 2
#     Edge 58, Type (0, 0), BuildingBlock: MIFKUJ_clean_linker_0, # of connection points: 2
#     Edge 59, Type (0, 0), BuildingBlock: MIFKUJ_clean_linker_0, # of connection points: 2
#     Edge 60, Type (0, 0), BuildingBlock: MIFKUJ_clean_linker_0, # of connection points: 2
#     Edge 61, Type (0, 0), BuildingBlock: MIFKUJ_clean_linker_0, # of connection points: 2
#     Edge 62, Type (0, 0), BuildingBlock: MIFKUJ_clean_linker_0, # of connection points: 2
#     Edge 63, Type (0, 0), BuildingBlock: MIFKUJ_clean_linker_0, # of connection points: 2
#     Edge 64, Type (0, 0), BuildingBlock: MIFKUJ_clean_linker_0, # of connection points: 2
#     Edge 65, Type (0, 0), BuildingBlock: MIFKUJ_clean_linker_0, # of connection points: 2
#     Edge 66, Type (0, 0), BuildingBlock: MIFKUJ_clean_linker_0, # of connection points: 2
#     Edge 67, Type (0, 0), BuildingBlock: MIFKUJ_clean_linker_0, # of connection points: 2
#     Edge 68, Type (0, 0), BuildingBlock: MIFKUJ_clean_linker_0, # of connection points: 2
#     Edge 69, Type (0, 0), BuildingBlock: MIFKUJ_clean_linker_0, # of connection points: 2
#     Edge 70, Type (0, 0), BuildingBlock: MIFKUJ_clean_linker_0, # of connection points: 2
#     Edge 71, Type (0, 0), BuildingBlock: MIFKUJ_clean_linker_0, # of connection points: 2
# Relax obj value: 0.245
# Max RMSD: 0.175
# Mean RMSD: 0.174
data_MOF--net-gme--node1-UXUYUI_clean_sbu_0--edge1-MIFKUJ_clean_linker_0
_symmetry_space_group_name_H-M    P1
_symmetry_Int_Tables_number       1
_symmetry_cell_setting            triclinic
loop_
_symmetry_equiv_pos_as_xyz
'x, y, z'
_cell_length_a     113.99364
_cell_length_b     113.96465
_cell_length_c     81.265312
_cell_angle_alpha  90.006673
_cell_angle_beta   89.998181
_cell_angle_gamma 119.99233
loop_
_atom_site_label
_atom_site_type_symbol
_atom_site_fract_x
_atom_site_fract_y
_atom_site_fract_z
_atom_type_partial_charge
Li0 Li 0.43637 0.12006 0.08239 0.0
Li1 Li 0.4324 0.10445 0.10522 0.0
Li2 Li 0.45038 0.1092 0.08395 0.0
Li3 Li 0.42627 0.09524 0.07799 0.0
C4 C 0.45822 0.13469 0.10485 0.0
N5 N 0.47649 0.16083 0.11465 0.0
C6 C 0.45646 0.13965 0.11984 0.0
C7 C 0.4694 0.14296 0.095 0.0
C8 C 0.46577 0.15291 0.12453 0.0
C9 C 0.47849 0.15616 0.10013 0.0
C10 C 0.40857 0.10363 0.1003 0.0
C11 C 0.3892 0.08992 0.1175 0.0
N12 N 0.38802 0.10099 0.12076 0.0
C13 C 0.40708 0.11484 0.10369 0.0
C14 C 0.39949 0.09104 0.10713 0.0
C15 C 0.39665 0.11331 0.1141 0.0
C16 C 0.43056 0.13485 0.05985 0.0
N17 N 0.43548 0.13538 0.07524 0.0
C18 C 0.43715 0.1568 0.08014 0.0
C19 C 0.43877 0.14606 0.08539 0.0
C20 C 0.43194 0.15647 0.06437 0.0
C21 C 0.42876 0.14537 0.05409 0.0
H22 H 0.4278 0.12609 0.05217 0.0
H23 H 0.44228 0.1461 0.09771 0.0
C24 C 0.42973 0.09132 0.13533 0.0
N25 N 0.42815 0.10114 0.12793 0.0
C26 C 0.42722 0.08881 0.15212 0.0
C27 C 0.42128 0.10641 0.15333 0.0
C28 C 0.42406 0.10868 0.13655 0.0
C29 C 0.423 0.09646 0.16132 0.0
H30 H 0.43317 0.08559 0.12823 0.0
H31 H 0.4232 0.11665 0.13048 0.0
C32 C 0.44822 0.11609 0.05124 0.0
N33 N 0.46426 0.12763 0.0238 0.0
C34 C 0.44708 0.10807 0.03763 0.0
C35 C 0.45736 0.13002 0.05075 0.0
C36 C 0.45532 0.11408 0.02392 0.0
C37 C 0.46542 0.13565 0.03681 0.0
C38 C 0.43261 0.07822 0.09262 0.0
C39 C 0.44067 0.07388 0.08474 0.0
C40 C 0.41988 0.06865 0.09864 0.0
C41 C 0.43574 0.06001 0.08274 0.0
C42 C 0.4153 0.05487 0.09638 0.0
N43 N 0.42325 0.05087 0.08852 0.0
C44 C 0.47738 0.11759 0.09225 0.0
C45 C 0.47042 0.10641 0.06652 0.0
C46 C 0.49021 0.11905 0.09037 0.0
N47 N 0.46784 0.11144 0.08036 0.0
C48 C 0.48309 0.10759 0.06415 0.0
C49 C 0.49318 0.11393 0.07621 0.0
H50 H 0.47498 0.12125 0.1033 0.0
H51 H 0.46252 0.10115 0.05752 0.0
C52 C 0.4004 0.07722 0.06498 0.0
N53 N 0.41365 0.08061 0.06512 0.0
C54 C 0.39118 0.06673 0.0549 0.0
C55 C 0.40947 0.06346 0.04544 0.0
C56 C 0.41831 0.07405 0.05559 0.0
C57 C 0.39572 0.05976 0.04489 0.0
H58 H 0.39703 0.08281 0.07247 0.0
H59 H 0.42894 0.07711 0.05579 0.0
O60 O 0.4492 0.12171 0.10011 0.0
O61 O 0.41876 0.10495 0.0902 0.0
O62 O 0.44021 0.11034 0.06477 0.0
O63 O 0.4372 0.09176 0.09451 0.0
H64 H 0.44797 0.13336 0.12772 0.0
H65 H 0.47117 0.13919 0.08362 0.0
H66 H 0.46448 0.1569 0.13604 0.0
H67 H 0.48716 0.16267 0.09259 0.0
H68 H 0.38216 0.08026 0.12295 0.0
H69 H 0.41393 0.12463 0.09843 0.0
H70 H 0.40038 0.08223 0.10449 0.0
H71 H 0.39543 0.12192 0.11691 0.0
H72 H 0.43986 0.16523 0.08841 0.0
H73 H 0.42454 0.14463 0.04194 0.0
H74 H 0.42867 0.08105 0.15789 0.0
H75 H 0.41829 0.11268 0.1601 0.0
H76 H 0.43995 0.09731 0.0377 0.0
H77 H 0.45812 0.13644 0.06093 0.0
H78 H 0.45461 0.10798 0.01336 0.0
H79 H 0.47255 0.14642 0.0363 0.0
H80 H 0.45059 0.08113 0.08014 0.0
H81 H 0.41359 0.07183 0.10495 0.0
H82 H 0.44183 0.05651 0.07657 0.0
H83 H 0.40542 0.04736 0.10088 0.0
H84 H 0.4977 0.1241 0.09993 0.0
H85 H 0.48483 0.10324 0.05322 0.0
H86 H 0.3807 0.0643 0.0547 0.0
H87 H 0.41338 0.05822 0.03816 0.0
Li88 Li 0.3174 0.43566 0.58076 0.0
Li89 Li 0.32749 0.43208 0.60412 0.0
Li90 Li 0.34125 0.44951 0.5833 0.0
Li91 Li 0.3301 0.42469 0.57657 0.0
C92 C 0.31892 0.45042 0.60902 0.0
N93 N 0.30191 0.45334 0.63075 0.0
C94 C 0.30637 0.43926 0.61311 0.0
C95 C 0.32282 0.46305 0.61599 0.0
C96 C 0.29792 0.44095 0.62412 0.0
C97 C 0.31407 0.46433 0.62694 0.0
C98 C 0.30963 0.40528 0.59582 0.0
C99 C 0.31573 0.38957 0.6074 0.0
N100 N 0.3024 0.37993 0.6081 0.0
C101 C 0.296 0.39521 0.59664 0.0
C102 C 0.31959 0.40244 0.60123 0.0
C103 C 0.29255 0.38247 0.60289 0.0
C104 C 0.29097 0.42464 0.56794 0.0
N105 N 0.30195 0.43618 0.57338 0.0
C106 C 0.29087 0.44891 0.56863 0.0
C107 C 0.30217 0.4482 0.57369 0.0
C108 C 0.27927 0.43712 0.56321 0.0
C109 C 0.27944 0.42489 0.56269 0.0
H110 H 0.29117 0.41525 0.56779 0.0
H111 H 0.31113 0.45724 0.57788 0.0
C112 C 0.33797 0.43807 0.63566 0.0
N113 N 0.32689 0.429 0.62709 0.0
C114 C 0.33843 0.43701 0.6527 0.0
C115 C 0.316 0.41728 0.65182 0.0
C116 C 0.31594 0.41879 0.63477 0.0
C117 C 0.32733 0.42652 0.66098 0.0
H118 H 0.34644 0.44619 0.6292 0.0
H119 H 0.30708 0.41194 0.62776 0.0
C120 C 0.32443 0.44067 0.55005 0.0
N121 N 0.30973 0.4423 0.524 0.0
C122 C 0.31639 0.42924 0.54044 0.0
C123 C 0.32506 0.45296 0.54635 0.0
C124 C 0.30902 0.43027 0.52734 0.0
C125 C 0.31753 0.45357 0.53315 0.0
C126 C 0.35657 0.43669 0.59629 0.0
C127 C 0.36741 0.44439 0.58568 0.0
C128 C 0.35858 0.43057 0.61008 0.0
C129 C 0.38008 0.44583 0.58905 0.0
C130 C 0.37141 0.43226 0.61302 0.0
N131 N 0.38181 0.43979 0.60254 0.0
C132 C 0.36461 0.47277 0.59399 0.0
C133 C 0.36049 0.47225 0.5653 0.0
C134 C 0.37652 0.48523 0.59244 0.0
N135 N 0.35693 0.46659 0.58051 0.0
C136 C 0.37219 0.4848 0.56323 0.0
C137 C 0.38038 0.49138 0.5769 0.0
H138 H 0.36152 0.46794 0.6059 0.0
H139 H 0.35434 0.46695 0.55476 0.0
C140 C 0.32085 0.40013 0.55912 0.0
N141 N 0.33203 0.41146 0.56467 0.0
C142 C 0.3222 0.39051 0.54994 0.0
C143 C 0.34651 0.40437 0.55259 0.0
C144 C 0.34469 0.41371 0.5616 0.0
C145 C 0.33519 0.39266 0.54646 0.0
H146 H 0.31088 0.39867 0.56159 0.0
H147 H 0.35339 0.42282 0.56597 0.0
O148 O 0.32744 0.44907 0.59831 0.0
O149 O 0.31305 0.41778 0.58971 0.0
O150 O 0.33146 0.43977 0.56317 0.0
O151 O 0.34413 0.43537 0.59341 0.0
H152 H 0.30315 0.42939 0.60787 0.0
H153 H 0.33251 0.47178 0.61296 0.0
H154 H 0.28818 0.4324 0.62738 0.0
H155 H 0.31696 0.47405 0.63243 0.0
H156 H 0.32334 0.38724 0.61161 0.0
H157 H 0.28816 0.39725 0.5925 0.0
H158 H 0.33018 0.41002 0.60065 0.0
H159 H 0.28203 0.37459 0.6036 0.0
H160 H 0.29119 0.45856 0.569 0.0
H161 H 0.27064 0.41557 0.55873 0.0
H162 H 0.34739 0.44428 0.65932 0.0
H163 H 0.30715 0.4092 0.6578 0.0
H164 H 0.31575 0.41966 0.54316 0.0
H165 H 0.33106 0.46186 0.55381 0.0
H166 H 0.3027 0.42148 0.51985 0.0
H167 H 0.31783 0.46297 0.53024 0.0
H168 H 0.36602 0.44907 0.57485 0.0
H169 H 0.35033 0.42457 0.61843 0.0
H170 H 0.38854 0.45174 0.58093 0.0
H171 H 0.3731 0.42758 0.62365 0.0
H172 H 0.38259 0.49005 0.60325 0.0
H173 H 0.37498 0.48919 0.55104 0.0
H174 H 0.31321 0.38169 0.54529 0.0
H175 H 0.35671 0.40634 0.55041 0.0
Li176 Li 0.89192 0.3269 0.10339 0.0
Li177 Li 0.87839 0.31681 0.07898 0.0
Li178 Li 0.90295 0.32993 0.07689 0.0
Li179 Li 0.88972 0.34114 0.08205 0.0
C180 C 0.89801 0.30645 0.09589 0.0
N181 N 0.91061 0.29368 0.1102 0.0
C182 C 0.89094 0.2924 0.098 0.0
C183 C 0.91148 0.314 0.10098 0.0
C184 C 0.89749 0.28613 0.10529 0.0
C185 C 0.91768 0.30736 0.1082 0.0
C186 C 0.86481 0.31883 0.10661 0.0
C187 C 0.84581 0.31449 0.12379 0.0
N188 N 0.84381 0.30193 0.12721 0.0
C189 C 0.86256 0.30588 0.11028 0.0
C190 C 0.85638 0.32318 0.1134 0.0
C191 C 0.85189 0.29749 0.12072 0.0
C192 C 0.89864 0.33747 0.13492 0.0
N193 N 0.89382 0.3257 0.1264 0.0
C194 C 0.89225 0.31359 0.15106 0.0
C195 C 0.89053 0.31384 0.13407 0.0
C196 C 0.89731 0.32563 0.16018 0.0
C197 C 0.90053 0.33769 0.15188 0.0
H198 H 0.90107 0.34672 0.12848 0.0
H199 H 0.88646 0.30456 0.12709 0.0
C200 C 0.86498 0.29199 0.06264 0.0
N201 N 0.86302 0.30151 0.07017 0.0
C202 C 0.854 0.28037 0.05606 0.0
C203 C 0.83927 0.28873 0.06501 0.0
C204 C 0.85053 0.30019 0.07132 0.0
C205 C 0.84091 0.27858 0.05732 0.0
H206 H 0.87508 0.29341 0.06181 0.0
H207 H 0.84929 0.30798 0.07728 0.0
C208 C 0.91868 0.35441 0.09665 0.0
N209 N 0.94423 0.376 0.10297 0.0
C210 C 0.92341 0.36659 0.08808 0.0
C211 C 0.92688 0.35328 0.1086 0.0
C212 C 0.93638 0.37737 0.09141 0.0
C213 C 0.93979 0.36429 0.11157 0.0
C214 C 0.88109 0.33109 0.05033 0.0
C215 C 0.88401 0.33075 0.0337 0.0
C216 C 0.86953 0.33165 0.05479 0.0
C217 C 0.87532 0.33101 0.02177 0.0
C218 C 0.86109 0.33189 0.04249 0.0
N219 N 0.86414 0.33157 0.02637 0.0
C220 C 0.91623 0.31896 0.05939 0.0
C221 C 0.92984 0.34257 0.06407 0.0
C222 C 0.9268 0.31872 0.05102 0.0
N223 N 0.91796 0.33075 0.06578 0.0
C224 C 0.94069 0.3428 0.05587 0.0
C225 C 0.93923 0.33076 0.04923 0.0
H226 H 0.9066 0.30973 0.06079 0.0
H227 H 0.9309 0.35187 0.06883 0.0
C228 C 0.88393 0.3613 0.09128 0.0
N229 N 0.88876 0.35708 0.07871 0.0
C230 C 0.88303 0.37301 0.08962 0.0
C231 C 0.89209 0.37578 0.06208 0.0
C232 C 0.89284 0.36402 0.06429 0.0
C233 C 0.88715 0.38043 0.07487 0.0
H234 H 0.88086 0.3556 0.10264 0.0
H235 H 0.89672 0.36045 0.05453 0.0
O236 O 0.89165 0.3127 0.08893 0.0
O237 O 0.8752 0.32729 0.09644 0.0
O238 O 0.90594 0.3438 0.09367 0.0
O239 O 0.88948 0.33074 0.06212 0.0
H240 H 0.88049 0.28642 0.09412 0.0
H241 H 0.91711 0.32484 0.09929 0.0
H242 H 0.89213 0.27527 0.10705 0.0
H243 H 0.92812 0.31308 0.1122 0.0
H244 H 0.8392 0.31772 0.12914 0.0
H245 H 0.86892 0.30229 0.1051 0.0
H246 H 0.85798 0.33317 0.11066 0.0
H247 H 0.85004 0.28745 0.12366 0.0
H248 H 0.88941 0.30403 0.15701 0.0
H249 H 0.90458 0.34722 0.1584 0.0
H250 H 0.85575 0.27289 0.05008 0.0
H251 H 0.82935 0.28768 0.06652 0.0
H252 H 0.91721 0.36767 0.07882 0.0
H253 H 0.92331 0.34404 0.11561 0.0
H254 H 0.9402 0.38681 0.08478 0.0
H255 H 0.94625 0.36353 0.12075 0.0
H256 H 0.8929 0.33028 0.03007 0.0
H257 H 0.86709 0.33191 0.06759 0.0
H258 H 0.87746 0.33075 0.00885 0.0
H259 H 0.85212 0.33233 0.04576 0.0
H260 H 0.92528 0.30924 0.04607 0.0
H261 H 0.95001 0.35236 0.05441 0.0
H262 H 0.87938 0.37634 0.0999 0.0
H263 H 0.89526 0.38111 0.05046 0.0
Li264 Li 0.56512 0.89533 0.60522 0.0
Li265 Li 0.56226 0.88112 0.58141 0.0
Li266 Li 0.57239 0.9055 0.57876 0.0
Li267 Li 0.54814 0.89107 0.58408 0.0
C268 C 0.59258 0.90159 0.58722 0.0
N269 N 0.61944 0.91477 0.57765 0.0
C270 C 0.59729 0.89529 0.57647 0.0
C271 C 0.60155 0.91457 0.5932 0.0
C272 C 0.6109 0.90213 0.57176 0.0
C273 C 0.61508 0.92107 0.58817 0.0
C274 C 0.5439 0.8647 0.60278 0.0
C275 C 0.53005 0.84105 0.59585 0.0
N276 N 0.53455 0.83769 0.60957 0.0
C277 C 0.54834 0.86101 0.61686 0.0
C278 C 0.53462 0.85465 0.59223 0.0
C279 C 0.5435 0.8473 0.62007 0.0
C280 C 0.55795 0.89397 0.63848 0.0
N281 N 0.56855 0.89748 0.62813 0.0
C282 C 0.58392 0.90405 0.65076 0.0
C283 C 0.58135 0.90237 0.63389 0.0
C284 C 0.57318 0.90062 0.66177 0.0
C285 C 0.56004 0.89551 0.65543 0.0
H286 H 0.54785 0.88995 0.63352 0.0
H287 H 0.58957 0.90494 0.62539 0.0
C288 C 0.55931 0.8613 0.55831 0.0
N289 N 0.56298 0.8658 0.57399 0.0
C290 C 0.55924 0.84961 0.55305 0.0
C291 C 0.56696 0.84763 0.58011 0.0
C292 C 0.56709 0.85946 0.58475 0.0
C293 C 0.56286 0.84253 0.56414 0.0
H294 H 0.55631 0.8667 0.54996 0.0
H295 H 0.57027 0.8635 0.59701 0.0
C296 C 0.56046 0.9155 0.60771 0.0
N297 N 0.55918 0.92864 0.63564 0.0
C298 C 0.5479 0.91236 0.61433 0.0
C299 C 0.57236 0.92539 0.61522 0.0
C300 C 0.54747 0.91912 0.62847 0.0
C301 C 0.5715 0.93189 0.62936 0.0
C302 C 0.55074 0.89082 0.55174 0.0
C303 C 0.5543 0.90257 0.54271 0.0
C304 C 0.53883 0.87882 0.54791 0.0
C305 C 0.5458 0.90214 0.53006 0.0
C306 C 0.53058 0.87882 0.5352 0.0
N307 N 0.53421 0.89038 0.52661 0.0
C308 C 0.59251 0.91933 0.55479 0.0
C309 C 0.58682 0.93317 0.57085 0.0
C310 C 0.60193 0.93056 0.54585 0.0
N311 N 0.58531 0.92088 0.56709 0.0
C312 C 0.59594 0.94462 0.56204 0.0
C313 C 0.60358 0.94334 0.54937 0.0
H314 H 0.59083 0.90936 0.55183 0.0
H315 H 0.58078 0.93403 0.58051 0.0
C316 C 0.51978 0.87804 0.58752 0.0
N317 N 0.53067 0.88877 0.58046 0.0
C318 C 0.50689 0.87646 0.58581 0.0
C319 C 0.51663 0.89688 0.56937 0.0
C320 C 0.52937 0.89818 0.57163 0.0
C321 C 0.50524 0.88597 0.57666 0.0
H322 H 0.52114 0.87086 0.59476 0.0
H323 H 0.53826 0.90681 0.56655 0.0
O324 O 0.57926 0.89511 0.59185 0.0
O325 O 0.5487 0.87807 0.59927 0.0
O326 O 0.5611 0.90879 0.5941 0.0
O327 O 0.55886 0.89106 0.56429 0.0
H328 H 0.5905 0.88527 0.5717 0.0
H329 H 0.59806 0.91965 0.60141 0.0
H330 H 0.61468 0.89739 0.5634 0.0
H331 H 0.6221 0.93116 0.59258 0.0
H332 H 0.52296 0.83318 0.58772 0.0
H333 H 0.55556 0.86865 0.62513 0.0
H334 H 0.53112 0.85733 0.58126 0.0
H335 H 0.5469 0.8443 0.63087 0.0
H336 H 0.59421 0.90811 0.65512 0.0
H337 H 0.55144 0.89251 0.66349 0.0
H338 H 0.55603 0.84593 0.54064 0.0
H339 H 0.56999 0.84251 0.58889 0.0
H340 H 0.53859 0.9047 0.60872 0.0
H341 H 0.58216 0.92788 0.6103 0.0
H342 H 0.53783 0.91675 0.63377 0.0
H343 H 0.58063 0.93949 0.63537 0.0
H344 H 0.56347 0.91195 0.54551 0.0
H345 H 0.53592 0.86965 0.55481 0.0
H346 H 0.54839 0.91117 0.52301 0.0
H347 H 0.52129 0.86963 0.53218 0.0
H348 H 0.60752 0.92921 0.53595 0.0
H349 H 0.59695 0.95435 0.56499 0.0
H350 H 0.49832 0.86794 0.59164 0.0
H351 H 0.51576 0.90454 0.56247 0.0
Li352 Li 0.66834 0.57449 0.0781 0.0
Li353 Li 0.65647 0.55092 0.08327 0.0
Li354 Li 0.67084 0.56681 0.10431 0.0
Li355 Li 0.68067 0.56288 0.07937 0.0
C356 C 0.64202 0.56376 0.08997 0.0
N357 N 0.6177 0.56146 0.08033 0.0
C358 C 0.63834 0.56204 0.07335 0.0
C359 C 0.63333 0.56431 0.10167 0.0
C360 C 0.62601 0.56091 0.06873 0.0
C361 C 0.62108 0.56312 0.09656 0.0
C362 C 0.66564 0.55072 0.05179 0.0
C363 C 0.66432 0.52942 0.04537 0.0
N364 N 0.66355 0.5317 0.02908 0.0
C365 C 0.66483 0.55285 0.03499 0.0
C366 C 0.66538 0.5389 0.05703 0.0
C367 C 0.66378 0.54312 0.02371 0.0
C368 C 0.67131 0.59144 0.05143 0.0
N369 N 0.66753 0.5888 0.06745 0.0
C370 C 0.66153 0.60606 0.06798 0.0
C371 C 0.66288 0.59595 0.07587 0.0
C372 C 0.66482 0.60867 0.05121 0.0
C373 C 0.67001 0.60139 0.04299 0.0
H374 H 0.67502 0.58558 0.04512 0.0
H375 H 0.66 0.59363 0.08864 0.0
C376 C 0.63547 0.5263 0.09441 0.0
N377 N 0.64016 0.53412 0.08071 0.0
C378 C 0.62366 0.5137 0.09373 0.0
C379 C 0.62173 0.51743 0.0648 0.0
C380 C 0.6335 0.53004 0.06609 0.0
C381 C 0.6167 0.5091 0.07875 0.0
H382 H 0.64096 0.52987 0.10587 0.0
H383 H 0.6373 0.53655 0.05543 0.0
C384 C 0.69087 0.59402 0.09099 0.0
N385 N 0.70111 0.62171 0.09198 0.0
C386 C 0.70087 0.6025 0.07984 0.0
C387 C 0.6861 0.59965 0.10267 0.0
C388 C 0.70591 0.61646 0.08052 0.0
C389 C 0.6914 0.61366 0.10297 0.0
C390 C 0.67768 0.5469 0.10769 0.0
C391 C 0.69099 0.55685 0.11134 0.0
C392 C 0.67221 0.53411 0.11493 0.0
C393 C 0.69862 0.55381 0.12215 0.0
C394 C 0.68017 0.53146 0.12569 0.0
N395 N 0.6931 0.54128 0.12905 0.0
C396 C 0.661 0.5636 0.13628 0.0
C397 C 0.68475 0.57827 0.13426 0.0
C398 C 0.66144 0.56567 0.15322 0.0
N399 N 0.67253 0.56992 0.12722 0.0
C400 C 0.68566 0.58064 0.15119 0.0
C401 C 0.67388 0.57434 0.16089 0.0
H402 H 0.65146 0.55696 0.13028 0.0
H403 H 0.69375 0.58319 0.1267 0.0
C404 C 0.70335 0.57139 0.05917 0.0
N405 N 0.69519 0.56155 0.06993 0.0
C406 C 0.71421 0.57103 0.05176 0.0
C407 C 0.70764 0.55004 0.06609 0.0
C408 C 0.69693 0.55082 0.07318 0.0
C409 C 0.71653 0.56031 0.05534 0.0
H410 H 0.70135 0.57947 0.05625 0.0
H411 H 0.69 0.54282 0.08126 0.0
O412 O 0.65405 0.56494 0.09489 0.0
O413 O 0.66674 0.56025 0.06289 0.0
O414 O 0.68562 0.58028 0.09034 0.0
O415 O 0.66993 0.54964 0.09728 0.0
H416 H 0.64491 0.56164 0.06407 0.0
H417 H 0.63603 0.56565 0.11458 0.0
H418 H 0.62305 0.55959 0.05592 0.0
H419 H 0.61426 0.56353 0.1055 0.0
H420 H 0.6641 0.52023 0.04926 0.0
H421 H 0.66501 0.56193 0.03073 0.0
H422 H 0.66592 0.537 0.06995 0.0
H423 H 0.66314 0.54464 0.01067 0.0
H424 H 0.65768 0.61155 0.07485 0.0
H425 H 0.67248 0.60292 0.03001 0.0
H426 H 0.62013 0.50753 0.10473 0.0
H427 H 0.61652 0.51429 0.05309 0.0
H428 H 0.7047 0.59837 0.07072 0.0
H429 H 0.67817 0.59325 0.11118 0.0
H430 H 0.71363 0.62313 0.07194 0.0
H431 H 0.68773 0.61812 0.11187 0.0
H432 H 0.69542 0.5668 0.10583 0.0
H433 H 0.66191 0.5263 0.11226 0.0
H434 H 0.70893 0.56141 0.12506 0.0
H435 H 0.67607 0.52159 0.13137 0.0
H436 H 0.65215 0.56043 0.16027 0.0
H437 H 0.69544 0.58748 0.15657 0.0
H438 H 0.72068 0.57901 0.0433 0.0
H439 H 0.70911 0.54164 0.06929 0.0
Li440 Li 0.11699 0.68191 0.57991 0.0
Li441 Li 0.10312 0.67142 0.60468 0.0
Li442 Li 0.10731 0.65841 0.58387 0.0
Li443 Li 0.09295 0.66833 0.57697 0.0
C444 C 0.12811 0.66732 0.60368 0.0
N445 N 0.14228 0.65478 0.61383 0.0
C446 C 0.12613 0.66178 0.61946 0.0
C447 C 0.13746 0.66665 0.59314 0.0
C448 C 0.13335 0.65544 0.62435 0.0
C449 C 0.14447 0.66021 0.59847 0.0
C450 C 0.09454 0.68942 0.59639 0.0
C451 C 0.07329 0.68409 0.60901 0.0
N452 N 0.07749 0.69754 0.60988 0.0
C453 C 0.09864 0.70318 0.5974 0.0
C454 C 0.08176 0.67978 0.60224 0.0
C455 C 0.08988 0.70709 0.60426 0.0
C456 C 0.1297 0.70555 0.56086 0.0
N457 N 0.132 0.69786 0.57172 0.0
C458 C 0.15584 0.71299 0.57038 0.0
C459 C 0.14472 0.70136 0.57664 0.0
C460 C 0.15384 0.72105 0.55888 0.0
C461 C 0.14053 0.71717 0.5541 0.0
H462 H 0.11943 0.70256 0.55733 0.0
H463 H 0.14622 0.69518 0.58553 0.0
C464 C 0.0945 0.66078 0.63599 0.0
N465 N 0.10031 0.67257 0.6274 0.0
C466 C 0.09245 0.66082 0.65288 0.0
C467 C 0.10211 0.68514 0.65172 0.0
C468 C 0.10411 0.68464 0.63483 0.0
C469 C 0.09635 0.67312 0.66095 0.0
H470 H 0.09168 0.65136 0.62974 0.0
H471 H 0.10883 0.69388 0.62768 0.0
C472 C 0.11328 0.67338 0.54908 0.0
N473 N 0.12665 0.68614 0.52043 0.0
C474 C 0.10711 0.67775 0.53766 0.0
C475 C 0.12618 0.67534 0.5458 0.0
C476 C 0.11404 0.68421 0.52328 0.0
C477 C 0.1328 0.68187 0.53129 0.0
C478 C 0.07822 0.64227 0.59392 0.0
C479 C 0.07635 0.63244 0.58228 0.0
C480 C 0.06816 0.63936 0.60567 0.0
C481 C 0.06441 0.6199 0.58253 0.0
C482 C 0.05636 0.6267 0.6055 0.0
N483 N 0.05475 0.61731 0.59404 0.0
C484 C 0.10571 0.63435 0.59472 0.0
C485 C 0.1141 0.64049 0.56752 0.0
C486 C 0.10691 0.62278 0.59388 0.0
N487 N 0.10932 0.64291 0.58167 0.0
C488 C 0.11551 0.62905 0.56615 0.0
C489 C 0.11188 0.62 0.57945 0.0
H490 H 0.10182 0.6365 0.60576 0.0
H491 H 0.1168 0.64743 0.5573 0.0
C492 C 0.0776 0.67811 0.56085 0.0
N493 N 0.07791 0.66665 0.56478 0.0
C494 C 0.06719 0.67739 0.5511 0.0
C495 C 0.05775 0.65314 0.54933 0.0
C496 C 0.0683 0.65433 0.55916 0.0
C497 C 0.05717 0.66478 0.54509 0.0
H498 H 0.08566 0.68787 0.56486 0.0
H499 H 0.06897 0.64545 0.56188 0.0
O500 O 0.12089 0.67328 0.59853 0.0
O501 O 0.10309 0.68549 0.5898 0.0
O502 O 0.10671 0.66718 0.56334 0.0
O503 O 0.08998 0.65451 0.59419 0.0
H504 H 0.11904 0.66229 0.62784 0.0
H505 H 0.13915 0.6709 0.5809 0.0
H506 H 0.13185 0.65104 0.6365 0.0
H507 H 0.15163 0.65951 0.59038 0.0
H508 H 0.06337 0.67674 0.61357 0.0
H509 H 0.10852 0.71076 0.59293 0.0
H510 H 0.07839 0.6691 0.60151 0.0
H511 H 0.09293 0.71771 0.60512 0.0
H512 H 0.16586 0.71575 0.57477 0.0
H513 H 0.13849 0.72298 0.5452 0.0
H514 H 0.08789 0.65133 0.65958 0.0
H515 H 0.10536 0.69483 0.65756 0.0
H516 H 0.0971 0.67622 0.53989 0.0
H517 H 0.13112 0.67203 0.55446 0.0
H518 H 0.10941 0.6877 0.51438 0.0
H519 H 0.14284 0.68356 0.52869 0.0
H520 H 0.08391 0.63455 0.57295 0.0
H521 H 0.06946 0.64679 0.61485 0.0
H522 H 0.06281 0.61224 0.57354 0.0
H523 H 0.0485 0.62432 0.61451 0.0
H524 H 0.10374 0.61598 0.60432 0.0
H525 H 0.1195 0.62737 0.55486 0.0
H526 H 0.06723 0.68662 0.54782 0.0
H527 H 0.05019 0.64322 0.54496 0.0
Li528 Li 0.89083 0.54895 0.41565 0.0
Li529 Li 0.9049 0.57323 0.42033 0.0
Li530 Li 0.88041 0.56247 0.41984 0.0
Li531 Li 0.89326 0.56543 0.39473 0.0
C532 C 0.8922 0.55158 0.44786 0.0
N533 N 0.89355 0.53512 0.47188 0.0
C534 C 0.90436 0.55557 0.45617 0.0
C535 C 0.88072 0.53922 0.4518 0.0
C536 C 0.90483 0.54712 0.46828 0.0
C537 C 0.88161 0.53104 0.46395 0.0
C538 C 0.91329 0.56103 0.38969 0.0
C539 C 0.92735 0.57128 0.36582 0.0
N540 N 0.92394 0.55876 0.36008 0.0
C541 C 0.90993 0.54827 0.38355 0.0
C542 C 0.9221 0.57264 0.38078 0.0
C543 C 0.91543 0.54733 0.36857 0.0
C544 C 0.87833 0.52033 0.41406 0.0
N545 N 0.88951 0.53185 0.41912 0.0
C546 C 0.89964 0.51924 0.42894 0.0
C547 C 0.90011 0.53156 0.42631 0.0
C548 C 0.88824 0.50711 0.42379 0.0
C549 C 0.87748 0.50777 0.41629 0.0
H550 H 0.87017 0.52089 0.40806 0.0
H551 H 0.90896 0.54092 0.42997 0.0
C552 C 0.91928 0.59199 0.44532 0.0
N553 N 0.92064 0.58689 0.43079 0.0
C554 C 0.93063 0.60235 0.45315 0.0
C555 C 0.9445 0.60204 0.43081 0.0
C556 C 0.9329 0.59163 0.42349 0.0
C557 C 0.94346 0.60749 0.44589 0.0
H558 H 0.90937 0.58795 0.45083 0.0
H559 H 0.93367 0.58736 0.41196 0.0
C560 C 0.86317 0.5444 0.39969 0.0
N561 N 0.83606 0.53615 0.3958 0.0
C562 C 0.85905 0.55003 0.38727 0.0
C563 C 0.85351 0.53454 0.41009 0.0
C564 C 0.84529 0.54572 0.3855 0.0
C565 C 0.83985 0.53053 0.40795 0.0
C566 C 0.90014 0.59279 0.41372 0.0
C567 C 0.89503 0.5969 0.42677 0.0
C568 C 0.9123 0.60219 0.40622 0.0
C569 C 0.90216 0.61036 0.43206 0.0
C570 C 0.91914 0.61555 0.4119 0.0
N571 N 0.91397 0.61933 0.42459 0.0
C572 C 0.85934 0.55645 0.4428 0.0
C573 C 0.86036 0.56969 0.41974 0.0
C574 C 0.84779 0.55639 0.4486 0.0
N575 N 0.86523 0.5629 0.4285 0.0
C576 C 0.84893 0.57002 0.42517 0.0
C577 C 0.84246 0.5632 0.4397 0.0
H578 H 0.86352 0.55127 0.4496 0.0
H579 H 0.8653 0.57474 0.40842 0.0
C580 C 0.88904 0.55727 0.36173 0.0
N581 N 0.89384 0.56831 0.37167 0.0
C582 C 0.88955 0.55879 0.34468 0.0
C583 C 0.89995 0.58302 0.34841 0.0
C584 C 0.89911 0.58101 0.36541 0.0
C585 C 0.89512 0.5718 0.33785 0.0
H586 H 0.88489 0.54729 0.3671 0.0
H587 H 0.90267 0.58959 0.37358 0.0
O588 O 0.89156 0.55966 0.43585 0.0
O589 O 0.90777 0.56215 0.40416 0.0
O590 O 0.87663 0.54876 0.40192 0.0
O591 O 0.89346 0.57957 0.40859 0.0
H592 H 0.91338 0.56503 0.45321 0.0
H593 H 0.87128 0.53584 0.4453 0.0
H594 H 0.91419 0.55006 0.47477 0.0
H595 H 0.87284 0.52141 0.46703 0.0
H596 H 0.93408 0.58017 0.35873 0.0
H597 H 0.90307 0.53916 0.39017 0.0
H598 H 0.92461 0.5826 0.38515 0.0
H599 H 0.91288 0.53752 0.36366 0.0
H600 H 0.90811 0.51923 0.43494 0.0
H601 H 0.86862 0.49875 0.4118 0.0
H602 H 0.92939 0.60609 0.4649 0.0
H603 H 0.95416 0.60579 0.42469 0.0
H604 H 0.86639 0.55778 0.37922 0.0
H605 H 0.85653 0.53018 0.41989 0.0
H606 H 0.84196 0.55004 0.376 0.0
H607 H 0.83227 0.52298 0.41599 0.0
H608 H 0.88577 0.58976 0.43291 0.0
H609 H 0.9166 0.59915 0.39639 0.0
H610 H 0.89834 0.61366 0.44217 0.0
H611 H 0.92861 0.62289 0.4063 0.0
H612 H 0.84309 0.5511 0.45992 0.0
H613 H 0.84501 0.57524 0.41787 0.0
H614 H 0.88581 0.5499 0.33691 0.0
H615 H 0.90417 0.5932 0.34358 0.0
Li616 Li 0.3313 0.90523 0.92074 0.0
Li617 Li 0.34217 0.89225 0.9172 0.0
Li618 Li 0.32849 0.89509 0.89446 0.0
Li619 Li 0.31757 0.88176 0.92012 0.0
C620 C 0.35603 0.92138 0.90768 0.0
N621 N 0.3766 0.94742 0.91415 0.0
C622 C 0.3626 0.92451 0.92291 0.0
C623 C 0.35996 0.93145 0.89569 0.0
C624 C 0.37296 0.93775 0.92596 0.0
C625 C 0.37038 0.94457 0.89921 0.0
C626 C 0.33239 0.88397 0.94842 0.0
C627 C 0.33225 0.86332 0.95541 0.0
N628 N 0.33394 0.86699 0.97153 0.0
C629 C 0.33418 0.88755 0.96506 0.0
C630 C 0.33146 0.87176 0.94355 0.0
C631 C 0.33491 0.87883 0.97656 0.0
C632 C 0.33084 0.9208 0.9471 0.0
N633 N 0.33286 0.921 0.93061 0.0
C634 C 0.33614 0.94333 0.92853 0.0
C635 C 0.33531 0.93187 0.92124 0.0
C636 C 0.33435 0.94351 0.9456 0.0
C637 C 0.33155 0.93202 0.9549 0.0
H638 H 0.32868 0.91191 0.95416 0.0
H639 H 0.33651 0.93158 0.90807 0.0
C640 C 0.36162 0.88595 0.90698 0.0
N641 N 0.35756 0.89027 0.92024 0.0
C642 C 0.37288 0.88425 0.90808 0.0
C643 C 0.37552 0.89136 0.93652 0.0
C644 C 0.36428 0.89308 0.93481 0.0
C645 C 0.37999 0.88692 0.92302 0.0
H646 H 0.35612 0.88393 0.89551 0.0
H647 H 0.36092 0.89662 0.94513 0.0
C648 C 0.3071 0.90089 0.91334 0.0
N649 N 0.29345 0.91374 0.92427 0.0
C650 C 0.30047 0.89743 0.92853 0.0
C651 C 0.30676 0.91086 0.90368 0.0
C652 C 0.29363 0.90405 0.93384 0.0
C653 C 0.29981 0.91725 0.90943 0.0
C654 C 0.32145 0.86598 0.89527 0.0
C655 C 0.31132 0.86316 0.88368 0.0
C656 C 0.3251 0.85622 0.89873 0.0
C657 C 0.30477 0.85049 0.87603 0.0
C658 C 0.31833 0.84367 0.89081 0.0
N659 N 0.30837 0.84108 0.87973 0.0
C660 C 0.33696 0.896 0.86206 0.0
C661 C 0.31686 0.89721 0.86467 0.0
C662 C 0.33641 0.89662 0.84496 0.0
N663 N 0.32727 0.8963 0.87147 0.0
C664 C 0.316 0.89803 0.84762 0.0
C665 C 0.32583 0.89768 0.83757 0.0
H666 H 0.34507 0.8952 0.86789 0.0
H667 H 0.30915 0.89713 0.87247 0.0
C668 C 0.29845 0.86214 0.94327 0.0
N669 N 0.30099 0.86668 0.92745 0.0
C670 C 0.2857 0.85153 0.94771 0.0
C671 C 0.27825 0.85081 0.9197 0.0
C672 C 0.29111 0.8614 0.91582 0.0
C673 C 0.27542 0.84574 0.93583 0.0
H674 H 0.3061 0.8669 0.95262 0.0
H675 H 0.29315 0.86563 0.90358 0.0
O676 O 0.34573 0.90854 0.90455 0.0
O677 O 0.33193 0.89259 0.93704 0.0
O678 O 0.31412 0.89473 0.90814 0.0
O679 O 0.32811 0.87841 0.90274 0.0
H680 H 0.35959 0.91684 0.93235 0.0
H681 H 0.35495 0.92915 0.88384 0.0
H682 H 0.37808 0.94035 0.93773 0.0
H683 H 0.37351 0.95248 0.89008 0.0
H684 H 0.33152 0.85384 0.95179 0.0
H685 H 0.33504 0.89701 0.96906 0.0
H686 H 0.33009 0.86882 0.9308 0.0
H687 H 0.33628 0.88149 0.98947 0.0
H688 H 0.3382 0.95195 0.92092 0.0
H689 H 0.33031 0.93183 0.96813 0.0
H690 H 0.3761 0.88109 0.89724 0.0
H691 H 0.38057 0.89341 0.94833 0.0
H692 H 0.30077 0.88986 0.93627 0.0
H693 H 0.31203 0.91385 0.89202 0.0
H694 H 0.28852 0.90152 0.94562 0.0
H695 H 0.29955 0.92506 0.90214 0.0
H696 H 0.30846 0.87064 0.88068 0.0
H697 H 0.33315 0.85832 0.90735 0.0
H698 H 0.29684 0.84815 0.86713 0.0
H699 H 0.32102 0.836 0.89342 0.0
H700 H 0.34421 0.89639 0.83759 0.0
H701 H 0.3076 0.89864 0.84233 0.0
H702 H 0.28383 0.84809 0.96037 0.0
H703 H 0.27063 0.84661 0.91014 0.0
Li704 Li 0.44758 0.34273 0.41563 0.0
Li705 Li 0.42366 0.33124 0.41927 0.0
Li706 Li 0.43527 0.31849 0.41735 0.0
Li707 Li 0.4323 0.32967 0.39258 0.0
C708 C 0.44511 0.33603 0.44823 0.0
N709 N 0.46183 0.34612 0.4754 0.0
C710 C 0.44142 0.34129 0.46153 0.0
C711 C 0.45727 0.33585 0.4488 0.0
C712 C 0.45002 0.34635 0.47514 0.0
C713 C 0.4656 0.34101 0.46263 0.0
C714 C 0.43573 0.35831 0.40855 0.0
C715 C 0.43923 0.38051 0.4022 0.0
N716 N 0.43887 0.38291 0.41854 0.0
C717 C 0.43536 0.36098 0.42527 0.0
C718 C 0.43765 0.36814 0.39691 0.0
C719 C 0.43698 0.37347 0.43008 0.0
C720 C 0.47423 0.36184 0.40805 0.0
N721 N 0.46458 0.35864 0.41974 0.0
C722 C 0.47972 0.37799 0.43569 0.0
C723 C 0.46701 0.36654 0.43329 0.0
C724 C 0.48995 0.38153 0.42385 0.0
C725 C 0.48701 0.3733 0.40983 0.0
H726 H 0.47196 0.35553 0.39725 0.0
H727 H 0.45915 0.36399 0.44229 0.0
C728 C 0.4048 0.3257 0.44443 0.0
N729 N 0.40865 0.33113 0.42916 0.0
C730 C 0.3939 0.32566 0.45223 0.0
C731 C 0.39088 0.33638 0.42816 0.0
C732 C 0.40184 0.33621 0.42083 0.0
C733 C 0.38693 0.33126 0.44417 0.0
H734 H 0.41032 0.32154 0.45059 0.0
H735 H 0.40505 0.34025 0.40857 0.0
C736 C 0.45552 0.32309 0.3964 0.0
N737 N 0.46845 0.30879 0.38853 0.0
C738 C 0.45043 0.31337 0.3839 0.0
C739 C 0.46731 0.3257 0.40472 0.0
C740 C 0.45707 0.3062 0.38016 0.0
C741 C 0.47367 0.31832 0.4006 0.0
C742 C 0.40501 0.3073 0.40826 0.0
C743 C 0.39995 0.29842 0.42161 0.0
C744 C 0.3961 0.30881 0.39784 0.0
C745 C 0.38599 0.29123 0.42441 0.0
C746 C 0.3822 0.30144 0.40107 0.0
N747 N 0.37748 0.29289 0.41418 0.0
C748 C 0.43765 0.30047 0.43971 0.0
C749 C 0.42954 0.29209 0.41293 0.0
C750 C 0.43597 0.28795 0.44448 0.0
N751 N 0.43454 0.3023 0.42412 0.0
C752 C 0.42769 0.27944 0.41714 0.0
C753 C 0.43085 0.27724 0.43313 0.0
H754 H 0.44109 0.30855 0.44859 0.0
H755 H 0.42675 0.29374 0.40078 0.0
C756 C 0.43515 0.34005 0.3607 0.0
N757 N 0.42929 0.32848 0.36973 0.0
C758 C 0.43302 0.33952 0.34375 0.0
C759 C 0.41891 0.31517 0.34577 0.0
C760 C 0.42123 0.31619 0.36271 0.0
C761 C 0.42486 0.32695 0.33603 0.0
H762 H 0.44147 0.34967 0.36669 0.0
H763 H 0.41671 0.30717 0.37028 0.0
O764 O 0.43689 0.33118 0.43471 0.0
O765 O 0.43418 0.34616 0.40352 0.0
O766 O 0.44909 0.33013 0.40034 0.0
O767 O 0.41865 0.31471 0.40559 0.0
H768 H 0.43206 0.34154 0.46132 0.0
H769 H 0.46023 0.33176 0.43867 0.0
H770 H 0.44732 0.35049 0.48549 0.0
H771 H 0.47505 0.34095 0.4632 0.0
H772 H 0.44074 0.38822 0.39332 0.0
H773 H 0.43387 0.35352 0.43445 0.0
H774 H 0.43792 0.36623 0.38391 0.0
H775 H 0.43674 0.37567 0.44299 0.0
H776 H 0.4815 0.38391 0.44678 0.0
H777 H 0.49442 0.37576 0.40016 0.0
H778 H 0.3913 0.32179 0.46466 0.0
H779 H 0.38568 0.34067 0.42149 0.0
H780 H 0.44136 0.31128 0.37728 0.0
H781 H 0.47159 0.3334 0.41415 0.0
H782 H 0.45317 0.29856 0.37061 0.0
H783 H 0.48278 0.32021 0.40698 0.0
H784 H 0.40675 0.29721 0.42983 0.0
H785 H 0.39989 0.31571 0.38751 0.0
H786 H 0.38192 0.28437 0.43476 0.0
H787 H 0.37518 0.30255 0.39318 0.0
H788 H 0.43833 0.28658 0.45699 0.0
H789 H 0.42384 0.27148 0.40797 0.0
H790 H 0.43765 0.34888 0.3368 0.0
H791 H 0.41271 0.30525 0.34035 0.0
Li792 Li 0.09054 0.42195 0.92441 0.0
Li793 Li 0.10257 0.44574 0.91715 0.0
Li794 Li 0.09981 0.42931 0.89652 0.0
Li795 Li 0.1141 0.43341 0.9206 0.0
C796 C 0.07732 0.43672 0.90898 0.0
N797 N 0.06188 0.44906 0.91244 0.0
C798 C 0.0721 0.43719 0.92437 0.0
C799 C 0.07467 0.4425 0.89534 0.0
C800 C 0.06431 0.44348 0.92587 0.0
C801 C 0.06685 0.4487 0.89735 0.0
C802 C 0.1138 0.44353 0.94931 0.0
C803 C 0.13406 0.46322 0.95912 0.0
N804 N 0.13424 0.45599 0.97234 0.0
C805 C 0.11418 0.43631 0.963 0.0
C806 C 0.12382 0.4571 0.94734 0.0
C807 C 0.1246 0.44279 0.9745 0.0
C808 C 0.0788 0.40236 0.94939 0.0
N809 N 0.07599 0.40794 0.93628 0.0
C810 C 0.05231 0.39256 0.93923 0.0
C811 C 0.06309 0.40321 0.93099 0.0
C812 C 0.05487 0.38676 0.95302 0.0
C813 C 0.06832 0.39174 0.95808 0.0
H814 H 0.0892 0.40604 0.95294 0.0
H815 H 0.06119 0.40765 0.92029 0.0
C816 C 0.10769 0.47096 0.90594 0.0
N817 N 0.10351 0.46273 0.91932 0.0
C818 C 0.10888 0.48373 0.9067 0.0
C819 C 0.10128 0.47924 0.93498 0.0
C820 C 0.10028 0.46655 0.93368 0.0
C821 C 0.10567 0.48804 0.92137 0.0
H822 H 0.11017 0.4676 0.89469 0.0
H823 H 0.09693 0.45974 0.9441 0.0
C824 C 0.09171 0.40217 0.91013 0.0
N825 N 0.07229 0.37498 0.90969 0.0
C826 C 0.09386 0.39277 0.91869 0.0
C827 C 0.07968 0.39771 0.90132 0.0
C828 C 0.08392 0.37908 0.91832 0.0
C829 C 0.06999 0.38394 0.90124 0.0
C830 C 0.12672 0.44827 0.89206 0.0
C831 C 0.12868 0.43747 0.88782 0.0
C832 C 0.13522 0.46111 0.88543 0.0
C833 C 0.13914 0.43973 0.87703 0.0
C834 C 0.14557 0.46295 0.87468 0.0
N835 N 0.1473 0.45232 0.87074 0.0
C836 C 0.09808 0.43599 0.86414 0.0
C837 C 0.09701 0.41477 0.86672 0.0
C838 C 0.09703 0.43464 0.84708 0.0
N839 N 0.09791 0.42607 0.87356 0.0
C840 C 0.09578 0.41291 0.8497 0.0
C841 C 0.09576 0.42293 0.83961 0.0
H842 H 0.09923 0.44506 0.86993 0.0
H843 H 0.09733 0.40722 0.87445 0.0
C844 C 0.13035 0.4241 0.93554 0.0
N845 N 0.13054 0.43492 0.92827 0.0
C846 C 0.1424 0.42491 0.94076 0.0
C847 C 0.1545 0.44821 0.93158 0.0
C848 C 0.14224 0.44692 0.92651 0.0
C849 C 0.15471 0.43704 0.93853 0.0
H850 H 0.12085 0.41483 0.9372 0.0
H851 H 0.14206 0.4555 0.92112 0.0
O852 O 0.0852 0.43086 0.90736 0.0
O853 O 0.10387 0.43728 0.93768 0.0
O854 O 0.10112 0.4157 0.91072 0.0
O855 O 0.11653 0.44638 0.90256 0.0
H856 H 0.0742 0.43292 0.9351 0.0
H857 H 0.07864 0.44223 0.88334 0.0
H858 H 0.06026 0.44398 0.93772 0.0
H859 H 0.06473 0.45324 0.88691 0.0
H860 H 0.14192 0.47368 0.95769 0.0
H861 H 0.10656 0.42581 0.96472 0.0
H862 H 0.12388 0.46279 0.93667 0.0
H863 H 0.12503 0.4373 0.98513 0.0
H864 H 0.04206 0.38907 0.93505 0.0
H865 H 0.07068 0.38742 0.96855 0.0
H866 H 0.11248 0.49023 0.89598 0.0
H867 H 0.09852 0.48207 0.94645 0.0
H868 H 0.10307 0.39597 0.92558 0.0
H869 H 0.07773 0.40485 0.89481 0.0
H870 H 0.08544 0.37171 0.92493 0.0
H871 H 0.06061 0.38038 0.89455 0.0
H872 H 0.12225 0.42746 0.89279 0.0
H873 H 0.13383 0.46957 0.88858 0.0
H874 H 0.14078 0.43148 0.87366 0.0
H875 H 0.15223 0.47284 0.86947 0.0
H876 H 0.09747 0.44282 0.83983 0.0
H877 H 0.09478 0.40369 0.84454 0.0
H878 H 0.1421 0.41604 0.94602 0.0
H879 H 0.16372 0.45784 0.92999 0.0
Li880 Li 0.65689 0.10555 0.41452 0.0
Li881 Li 0.6677 0.09247 0.41661 0.0
Li882 Li 0.6812 0.11708 0.41731 0.0
Li883 Li 0.66924 0.10411 0.39117 0.0
C884 C 0.66585 0.10807 0.44876 0.0
N885 N 0.6625 0.11435 0.48064 0.0
C886 C 0.65887 0.09775 0.46027 0.0
C887 C 0.67129 0.12159 0.45355 0.0
C888 C 0.65723 0.10113 0.4763 0.0
C889 C 0.66944 0.12456 0.4697 0.0
C890 C 0.64104 0.07805 0.40579 0.0
C891 C 0.62117 0.05684 0.39886 0.0
N892 N 0.61719 0.05523 0.41488 0.0
C893 C 0.63674 0.07619 0.42216 0.0
C894 C 0.6332 0.06832 0.39402 0.0
C895 C 0.62466 0.06459 0.42652 0.0
C896 C 0.63131 0.10181 0.40725 0.0
N897 N 0.64091 0.10656 0.41924 0.0
C898 C 0.62788 0.11349 0.43537 0.0
C899 C 0.63939 0.1123 0.43316 0.0
C900 C 0.61787 0.10877 0.4231 0.0
C901 C 0.61966 0.10279 0.40893 0.0
H902 H 0.63284 0.09746 0.39619 0.0
H903 H 0.64718 0.11627 0.44239 0.0
C904 C 0.67302 0.07825 0.44052 0.0
N905 N 0.667 0.0769 0.42568 0.0
C906 C 0.67208 0.06695 0.44838 0.0
C907 C 0.65924 0.05321 0.42519 0.0
C908 C 0.66048 0.06479 0.41774 0.0
C909 C 0.66485 0.05419 0.44085 0.0
H910 H 0.67826 0.08807 0.4464 0.0
H911 H 0.65605 0.0641 0.40577 0.0
C912 C 0.66394 0.12794 0.39842 0.0
N913 N 0.64966 0.14144 0.39427 0.0
C914 C 0.65623 0.12587 0.38421 0.0
C915 C 0.6645 0.13698 0.41044 0.0
C916 C 0.64906 0.13277 0.38236 0.0
C917 C 0.65718 0.14368 0.40814 0.0
C918 C 0.68969 0.09592 0.40241 0.0
C919 C 0.69981 0.09732 0.41328 0.0
C920 C 0.68466 0.08559 0.39066 0.0
C921 C 0.70469 0.08828 0.41226 0.0
C922 C 0.68982 0.07676 0.39002 0.0
N923 N 0.69964 0.07827 0.40076 0.0
C924 C 0.70398 0.12987 0.43785 0.0
C925 C 0.70025 0.14463 0.42085 0.0
C926 C 0.71544 0.14083 0.44472 0.0
N927 N 0.69676 0.13199 0.42608 0.0
C928 C 0.71146 0.15588 0.42761 0.0
C929 C 0.7192 0.154 0.43963 0.0
H930 H 0.70077 0.11967 0.44193 0.0
H931 H 0.6943 0.14597 0.41145 0.0
C932 C 0.65843 0.09739 0.35948 0.0
N933 N 0.6702 0.10326 0.36814 0.0
C934 C 0.65864 0.09599 0.34245 0.0
C935 C 0.68306 0.10658 0.34366 0.0
C936 C 0.68239 0.10788 0.36066 0.0
C937 C 0.67106 0.10057 0.33436 0.0
H938 H 0.64889 0.09371 0.36585 0.0
H939 H 0.69155 0.11242 0.36795 0.0
O940 O 0.66782 0.10492 0.43312 0.0
O941 O 0.6529 0.08927 0.4012 0.0
O942 O 0.6707 0.12096 0.40067 0.0
O943 O 0.68447 0.1044 0.40352 0.0
H944 H 0.65479 0.08723 0.45691 0.0
H945 H 0.67672 0.12972 0.44488 0.0
H946 H 0.6518 0.09325 0.48531 0.0
H947 H 0.67351 0.13497 0.47352 0.0
H948 H 0.61501 0.04922 0.38989 0.0
H949 H 0.64263 0.08364 0.43138 0.0
H950 H 0.63641 0.0696 0.38129 0.0
H951 H 0.62122 0.06304 0.43915 0.0
H952 H 0.62701 0.11835 0.44637 0.0
H953 H 0.61214 0.09889 0.39924 0.0
H954 H 0.67641 0.06809 0.46055 0.0
H955 H 0.65369 0.04355 0.41895 0.0
H956 H 0.65568 0.11891 0.3748 0.0
H957 H 0.67037 0.13867 0.42153 0.0
H958 H 0.64298 0.13119 0.37149 0.0
H959 H 0.65743 0.15062 0.4174 0.0
H960 H 0.70378 0.10523 0.42248 0.0
H961 H 0.6767 0.08425 0.38229 0.0
H962 H 0.71248 0.0892 0.42064 0.0
H963 H 0.68597 0.06866 0.38105 0.0
H964 H 0.72123 0.13908 0.45398 0.0
H965 H 0.71422 0.16593 0.42327 0.0
H966 H 0.64916 0.09118 0.33572 0.0
H967 H 0.69284 0.11033 0.33783 0.0
Li968 Li 0.57015 0.66788 0.92003 0.0
Li969 Li 0.54596 0.65639 0.91382 0.0
Li970 Li 0.56382 0.67154 0.89323 0.0
Li971 Li 0.55863 0.68126 0.91713 0.0
C972 C 0.5657 0.64581 0.90426 0.0
N973 N 0.57719 0.62962 0.90795 0.0
C974 C 0.55851 0.63326 0.91211 0.0
C975 C 0.57866 0.65006 0.8981 0.0
C976 C 0.56451 0.62523 0.91389 0.0
C977 C 0.58432 0.64175 0.90015 0.0
C978 C 0.54696 0.66518 0.94653 0.0
C979 C 0.52767 0.66564 0.95795 0.0
N980 N 0.52981 0.66124 0.9726 0.0
C981 C 0.54901 0.66072 0.96171 0.0
C982 C 0.53623 0.66769 0.94463 0.0
C983 C 0.54021 0.65875 0.97473 0.0
C984 C 0.59639 0.6754 0.93213 0.0
N985 N 0.58299 0.66599 0.93263 0.0
C986 C 0.58695 0.65287 0.9523 0.0
C987 C 0.57814 0.65496 0.94254 0.0
C988 C 0.60089 0.66239 0.95213 0.0
C989 C 0.60559 0.67378 0.94185 0.0
H990 H 0.59991 0.68421 0.92436 0.0
H991 H 0.56739 0.64776 0.9428 0.0
C992 C 0.51966 0.63608 0.90479 0.0
N993 N 0.52912 0.64031 0.91693 0.0
C994 C 0.50711 0.62438 0.90688 0.0
C995 C 0.51451 0.62126 0.93359 0.0
C996 C 0.52685 0.63313 0.93108 0.0
C997 C 0.50444 0.61682 0.92142 0.0
H998 H 0.52188 0.64183 0.8935 0.0
H999 H 0.53467 0.63656 0.94036 0.0
C1000 C 0.58657 0.69541 0.89958 0.0
N1001 N 0.60646 0.71559 0.88044 0.0
C1002 C 0.5868 0.70769 0.89738 0.0
C1003 C 0.59651 0.69344 0.89215 0.0
C1004 C 0.59694 0.71777 0.88764 0.0
C1005 C 0.60646 0.70375 0.88248 0.0
C1006 C 0.53744 0.67428 0.89317 0.0
C1007 C 0.54146 0.68403 0.88076 0.0
C1008 C 0.52432 0.66849 0.8996 0.0
C1009 C 0.5323 0.68784 0.875 0.0
C1010 C 0.51547 0.67258 0.89352 0.0
N1011 N 0.51961 0.68209 0.88145 0.0
C1012 C 0.56699 0.66235 0.8625 0.0
C1013 C 0.57286 0.68543 0.86243 0.0
C1014 C 0.5701 0.66297 0.8458 0.0
N1015 N 0.56843 0.67348 0.87045 0.0
C1016 C 0.57618 0.68655 0.84577 0.0
C1017 C 0.57474 0.6752 0.83719 0.0
H1018 H 0.56329 0.65291 0.86909 0.0
H1019 H 0.57382 0.69413 0.86891 0.0
C1020 C 0.56837 0.70396 0.93706 0.0
N1021 N 0.55831 0.6965 0.92614 0.0
C1022 C 0.56933 0.71556 0.9442 0.0
C1023 C 0.54939 0.71139 0.92898 0.0
C1024 C 0.54884 0.69993 0.92213 0.0
C1025 C 0.55976 0.71941 0.94012 0.0
H1026 H 0.57572 0.70094 0.94008 0.0
H1027 H 0.54088 0.6939 0.91358 0.0
O1028 O 0.5601 0.65393 0.90266 0.0
O1029 O 0.55542 0.66702 0.93365 0.0
O1030 O 0.57675 0.68544 0.90908 0.0
O1031 O 0.54624 0.67032 0.89886 0.0
H1032 H 0.54844 0.6298 0.91687 0.0
H1033 H 0.58431 0.6597 0.89189 0.0
H1034 H 0.55909 0.61553 0.92003 0.0
H1035 H 0.59438 0.64494 0.89555 0.0
H1036 H 0.51932 0.66754 0.95665 0.0
H1037 H 0.55728 0.65874 0.96338 0.0
H1038 H 0.53455 0.6712 0.93301 0.0
H1039 H 0.54165 0.65526 0.98653 0.0
H1040 H 0.58288 0.64382 0.9598 0.0
H1041 H 0.61621 0.68146 0.9415 0.0
H1042 H 0.49967 0.62113 0.8971 0.0
H1043 H 0.51282 0.61566 0.94495 0.0
H1044 H 0.57918 0.7094 0.90299 0.0
H1045 H 0.5965 0.68401 0.89374 0.0
H1046 H 0.5972 0.72729 0.88576 0.0
H1047 H 0.61416 0.70232 0.87658 0.0
H1048 H 0.55155 0.68867 0.8757 0.0
H1049 H 0.52101 0.66099 0.90926 0.0
H1050 H 0.53529 0.69539 0.86541 0.0
H1051 H 0.50532 0.66822 0.89843 0.0
H1052 H 0.56859 0.65389 0.83964 0.0
H1053 H 0.57985 0.69622 0.8397 0.0
H1054 H 0.57745 0.72144 0.95279 0.0
H1055 H 0.54194 0.71413 0.92528 0.0
Li1056 Li 0.57301 0.90609 0.92068 0.0
Li1057 Li 0.56224 0.88191 0.91827 0.0
Li1058 Li 0.56545 0.89575 0.89384 0.0
Li1059 Li 0.54878 0.89202 0.91472 0.0
C1060 C 0.59203 0.90406 0.90165 0.0
N1061 N 0.61733 0.92111 0.88852 0.0
C1062 C 0.60182 0.90011 0.90131 0.0
C1063 C 0.59511 0.9167 0.89534 0.0
C1064 C 0.61455 0.90887 0.89461 0.0
C1065 C 0.60796 0.92517 0.88874 0.0
C1066 C 0.55631 0.88471 0.94873 0.0
C1067 C 0.54286 0.86394 0.9638 0.0
N1068 N 0.55212 0.86875 0.97618 0.0
C1069 C 0.56559 0.88951 0.96171 0.0
C1070 C 0.54476 0.87188 0.94988 0.0
C1071 C 0.56333 0.88127 0.97545 0.0
C1072 C 0.59016 0.93408 0.92969 0.0
N1073 N 0.58745 0.92112 0.93164 0.0
C1074 C 0.60631 0.9284 0.94983 0.0
C1075 C 0.59547 0.91818 0.94112 0.0
C1076 C 0.60898 0.9418 0.94867 0.0
C1077 C 0.60083 0.9446 0.93825 0.0
H1078 H 0.5841 0.93635 0.92153 0.0
H1079 H 0.59338 0.90783 0.94193 0.0
C1080 C 0.55301 0.85412 0.92148 0.0
N1081 N 0.56282 0.86665 0.92624 0.0
C1082 C 0.55289 0.84265 0.92759 0.0
C1083 C 0.5731 0.8572 0.94323 0.0
C1084 C 0.57283 0.86842 0.93679 0.0
C1085 C 0.563 0.8441 0.93867 0.0
H1086 H 0.54528 0.85305 0.91293 0.0
H1087 H 0.5805 0.87855 0.94031 0.0
C1088 C 0.55932 0.91942 0.90906 0.0
N1089 N 0.55341 0.93907 0.91913 0.0
C1090 C 0.55636 0.92026 0.92559 0.0
C1091 C 0.55914 0.92851 0.89766 0.0
C1092 C 0.55343 0.93028 0.93043 0.0
C1093 C 0.55617 0.93839 0.903 0.0
C1094 C 0.53669 0.87176 0.89344 0.0
C1095 C 0.53446 0.87507 0.87762 0.0
C1096 C 0.5258 0.86183 0.90245 0.0
C1097 C 0.52134 0.8685 0.87117 0.0
C1098 C 0.51283 0.85551 0.89559 0.0
N1099 N 0.51088 0.85896 0.88022 0.0
C1100 C 0.57036 0.88794 0.86291 0.0
C1101 C 0.57187 0.90945 0.86355 0.0
C1102 C 0.57298 0.88916 0.84603 0.0
N1103 N 0.56972 0.89796 0.8712 0.0
C1104 C 0.57452 0.91111 0.84671 0.0
C1105 C 0.57495 0.90082 0.83769 0.0
H1106 H 0.56859 0.87891 0.8694 0.0
H1107 H 0.57146 0.9173 0.87053 0.0
C1108 C 0.52525 0.88708 0.93273 0.0
N1109 N 0.5314 0.89024 0.91776 0.0
C1110 C 0.51238 0.88554 0.93462 0.0
C1111 C 0.51252 0.89067 0.90572 0.0
C1112 C 0.52547 0.89236 0.90446 0.0
C1113 C 0.50582 0.88716 0.92093 0.0
H1114 H 0.53033 0.88579 0.94319 0.0
H1115 H 0.53079 0.89529 0.89284 0.0
O1116 O 0.57954 0.89557 0.90824 0.0
O1117 O 0.55848 0.89252 0.93502 0.0
O1118 O 0.56189 0.90947 0.90388 0.0
O1119 O 0.54945 0.8782 0.90005 0.0
H1120 H 0.59958 0.89037 0.90619 0.0
H1121 H 0.5877 0.91997 0.89556 0.0
H1122 H 0.62223 0.90594 0.89426 0.0
H1123 H 0.61048 0.93497 0.88382 0.0
H1124 H 0.53404 0.85394 0.96474 0.0
H1125 H 0.57443 0.8995 0.96124 0.0
H1126 H 0.53743 0.86804 0.94001 0.0
H1127 H 0.57047 0.88484 0.98554 0.0
H1128 H 0.61249 0.92581 0.95742 0.0
H1129 H 0.60244 0.95476 0.93702 0.0
H1130 H 0.54509 0.83275 0.92345 0.0
H1131 H 0.58104 0.85875 0.95178 0.0
H1132 H 0.55635 0.91333 0.93464 0.0
H1133 H 0.5612 0.92792 0.88479 0.0
H1134 H 0.55117 0.93107 0.94318 0.0
H1135 H 0.55603 0.9455 0.8943 0.0
H1136 H 0.54271 0.88275 0.87045 0.0
H1137 H 0.52729 0.85907 0.91467 0.0
H1138 H 0.51947 0.87103 0.85899 0.0
H1139 H 0.5043 0.84788 0.90248 0.0
H1140 H 0.57309 0.88093 0.83951 0.0
H1141 H 0.57621 0.92035 0.84082 0.0
H1142 H 0.50751 0.8829 0.94656 0.0
H1143 H 0.50787 0.89226 0.89497 0.0
Li1144 Li 0.66712 0.57268 0.42037 0.0
Li1145 Li 0.68001 0.56111 0.4179 0.0
Li1146 Li 0.66917 0.5646 0.39299 0.0
Li1147 Li 0.65593 0.54765 0.41404 0.0
C1148 C 0.69106 0.59194 0.40417 0.0
N1149 N 0.70569 0.61945 0.3979 0.0
C1150 C 0.70393 0.59989 0.41105 0.0
C1151 C 0.68575 0.59797 0.39389 0.0
C1152 C 0.71113 0.61378 0.4078 0.0
C1153 C 0.69327 0.61189 0.39092 0.0
C1154 C 0.67096 0.55618 0.4486 0.0
C1155 C 0.67678 0.543 0.46654 0.0
N1156 N 0.6824 0.55353 0.47732 0.0
C1157 C 0.67667 0.56682 0.45993 0.0
C1158 C 0.67089 0.54412 0.45199 0.0
C1159 C 0.68244 0.5653 0.47436 0.0
C1160 C 0.65305 0.58449 0.43441 0.0
N1161 N 0.66561 0.58623 0.43197 0.0
C1162 C 0.67572 0.60698 0.44707 0.0
C1163 C 0.67685 0.59712 0.43819 0.0
C1164 C 0.66289 0.60552 0.44967 0.0
C1165 C 0.65145 0.5941 0.44319 0.0
H1166 H 0.64427 0.57555 0.42966 0.0
H1167 H 0.68666 0.59803 0.43655 0.0
C1168 C 0.69827 0.5514 0.42125 0.0
N1169 N 0.69552 0.56116 0.42621 0.0
C1170 C 0.70951 0.55113 0.42748 0.0
C1171 C 0.71496 0.57102 0.44369 0.0
C1172 C 0.70359 0.5709 0.43715 0.0
C1173 C 0.71802 0.56103 0.43886 0.0
H1174 H 0.6918 0.54391 0.41236 0.0
H1175 H 0.70114 0.57854 0.44084 0.0
C1176 C 0.64373 0.56414 0.39559 0.0
N1177 N 0.62591 0.5691 0.37795 0.0
C1178 C 0.63177 0.55337 0.38927 0.0
C1179 C 0.64646 0.57742 0.39321 0.0
C1180 C 0.62294 0.55608 0.3803 0.0
C1181 C 0.63737 0.57972 0.38419 0.0
C1182 C 0.66558 0.53554 0.39379 0.0
C1183 C 0.66197 0.53253 0.37725 0.0
C1184 C 0.66419 0.5253 0.40445 0.0
C1185 C 0.65683 0.51924 0.37169 0.0
C1186 C 0.65899 0.51213 0.39842 0.0
N1187 N 0.65544 0.5094 0.38231 0.0
C1188 C 0.68323 0.57689 0.36362 0.0
C1189 C 0.65954 0.5626 0.36048 0.0
C1190 C 0.68465 0.58 0.34686 0.0
N1191 N 0.67079 0.56846 0.37009 0.0
C1192 C 0.66047 0.56542 0.34369 0.0
C1193 C 0.67314 0.57427 0.33669 0.0
H1194 H 0.69207 0.58121 0.37148 0.0
H1195 H 0.64986 0.55551 0.36576 0.0
C1196 C 0.63599 0.52633 0.4332 0.0
N1197 N 0.64025 0.53044 0.41754 0.0
C1198 C 0.62456 0.51371 0.43613 0.0
C1199 C 0.62219 0.50978 0.40677 0.0
C1200 C 0.63354 0.52253 0.40441 0.0
C1201 C 0.61757 0.50525 0.4228 0.0
H1202 H 0.64143 0.53289 0.44342 0.0
H1203 H 0.63697 0.52614 0.39207 0.0
O1204 O 0.68385 0.57832 0.40733 0.0
O1205 O 0.66547 0.55756 0.43426 0.0
O1206 O 0.65246 0.56163 0.40445 0.0
O1207 O 0.67055 0.54849 0.39946 0.0
H1208 H 0.70829 0.59539 0.41886 0.0
H1209 H 0.67603 0.59194 0.38806 0.0
H1210 H 0.72105 0.62006 0.41313 0.0
H1211 H 0.68925 0.61667 0.383 0.0
H1212 H 0.67689 0.53377 0.46926 0.0
H1213 H 0.67673 0.57618 0.45757 0.0
H1214 H 0.66639 0.53574 0.44344 0.0
H1215 H 0.68697 0.57349 0.48319 0.0
H1216 H 0.68479 0.61562 0.45188 0.0
H1217 H 0.64133 0.59242 0.44523 0.0
H1218 H 0.71168 0.54342 0.42316 0.0
H1219 H 0.72125 0.5788 0.45247 0.0
H1220 H 0.62937 0.54303 0.39115 0.0
H1221 H 0.65538 0.58588 0.39847 0.0
H1222 H 0.61372 0.54784 0.37523 0.0
H1223 H 0.63939 0.58996 0.38224 0.0
H1224 H 0.66311 0.54034 0.36878 0.0
H1225 H 0.66699 0.52745 0.41725 0.0
H1226 H 0.65394 0.51675 0.35893 0.0
H1227 H 0.65778 0.50409 0.40657 0.0
H1228 H 0.69461 0.58687 0.34194 0.0
H1229 H 0.6514 0.56049 0.33621 0.0
H1230 H 0.62128 0.51055 0.44867 0.0
H1231 H 0.61691 0.50364 0.39616 0.0
Li1232 Li 0.11634 0.67933 0.91802 0.0
Li1233 Li 0.09193 0.66505 0.91982 0.0
Li1234 Li 0.10639 0.65473 0.91365 0.0
Li1235 Li 0.102 0.66781 0.89319 0.0
C1236 C 0.11198 0.66447 0.94832 0.0
N1237 N 0.12429 0.66458 0.97767 0.0
C1238 C 0.10704 0.66643 0.9632 0.0
C1239 C 0.12307 0.6624 0.9484 0.0
C1240 C 0.11344 0.6665 0.9779 0.0
C1241 C 0.12918 0.66253 0.96335 0.0
C1242 C 0.09605 0.68936 0.91082 0.0
C1243 C 0.0774 0.69348 0.90744 0.0
N1244 N 0.08314 0.70368 0.91866 0.0
C1245 C 0.10183 0.69996 0.92222 0.0
C1246 C 0.0838 0.68616 0.90326 0.0
C1247 C 0.09512 0.70705 0.92605 0.0
C1248 C 0.1382 0.70478 0.91332 0.0
N1249 N 0.13135 0.69564 0.92538 0.0
C1250 C 0.14541 0.71126 0.94605 0.0
C1251 C 0.13468 0.69861 0.94152 0.0
C1252 C 0.15251 0.72094 0.93384 0.0
C1253 C 0.14886 0.71759 0.91729 0.0
H1254 H 0.1352 0.70214 0.90061 0.0
H1255 H 0.12891 0.69134 0.95094 0.0
C1256 C 0.06424 0.65264 0.92824 0.0
N1257 N 0.07683 0.66303 0.93171 0.0
C1258 C 0.05317 0.65082 0.93754 0.0
C1259 C 0.06825 0.67063 0.95351 0.0
C1260 C 0.07902 0.67197 0.94402 0.0
C1261 C 0.05517 0.65983 0.95044 0.0
H1262 H 0.06283 0.64561 0.91848 0.0
H1263 H 0.0892 0.68 0.94666 0.0
C1264 C 0.13173 0.67064 0.89596 0.0
N1265 N 0.15626 0.67258 0.88823 0.0
C1266 C 0.13402 0.66737 0.88015 0.0
C1267 C 0.14203 0.67515 0.90774 0.0
C1268 C 0.14645 0.66834 0.87651 0.0
C1269 C 0.15433 0.676 0.90361 0.0
C1270 C 0.08034 0.64283 0.89151 0.0
C1271 C 0.08093 0.63159 0.88569 0.0
C1272 C 0.07127 0.64622 0.88441 0.0
C1273 C 0.07258 0.62407 0.87263 0.0
C1274 C 0.06309 0.63845 0.87136 0.0
N1275 N 0.06392 0.62764 0.86578 0.0
C1276 C 0.10433 0.63204 0.93051 0.0
C1277 C 0.11415 0.63587 0.90394 0.0
C1278 C 0.10552 0.6205 0.93244 0.0
N1279 N 0.1087 0.63947 0.91646 0.0
C1280 C 0.1155 0.62441 0.90531 0.0
C1281 C 0.11109 0.61651 0.91967 0.0
H1282 H 0.09975 0.63497 0.94013 0.0
H1283 H 0.11716 0.6417 0.89271 0.0
C1284 C 0.09895 0.67987 0.8642 0.0
N1285 N 0.10009 0.66938 0.87027 0.0
C1286 C 0.09754 0.68098 0.84728 0.0
C1287 C 0.0984 0.66039 0.8433 0.0
C1288 C 0.09999 0.65981 0.86022 0.0
C1289 C 0.09723 0.67113 0.83657 0.0
H1290 H 0.09925 0.68744 0.87248 0.0
H1291 H 0.1011 0.65168 0.86537 0.0
O1292 O 0.10582 0.6644 0.93384 0.0
O1293 O 0.10239 0.6822 0.90705 0.0
O1294 O 0.11964 0.66987 0.89965 0.0
O1295 O 0.08857 0.65042 0.90415 0.0
H1296 H 0.09839 0.66791 0.96341 0.0
H1297 H 0.12683 0.66054 0.93708 0.0
H1298 H 0.10976 0.66806 0.9895 0.0
H1299 H 0.13778 0.66095 0.96357 0.0
H1300 H 0.06787 0.69106 0.90175 0.0
H1301 H 0.11132 0.7026 0.92817 0.0
H1302 H 0.07925 0.67809 0.89431 0.0
H1303 H 0.09943 0.71521 0.93493 0.0
H1304 H 0.1479 0.71357 0.95894 0.0
H1305 H 0.15423 0.72478 0.90753 0.0
H1306 H 0.0432 0.64236 0.93484 0.0
H1307 H 0.07019 0.67763 0.96355 0.0
H1308 H 0.12625 0.66404 0.87081 0.0
H1309 H 0.14064 0.67813 0.91987 0.0
H1310 H 0.14831 0.66574 0.86436 0.0
H1311 H 0.16236 0.67944 0.91263 0.0
H1312 H 0.08781 0.62875 0.89113 0.0
H1313 H 0.07062 0.65482 0.88884 0.0
H1314 H 0.07298 0.6154 0.86793 0.0
H1315 H 0.0561 0.64103 0.86567 0.0
H1316 H 0.10179 0.61457 0.9436 0.0
H1317 H 0.1199 0.62173 0.8952 0.0
H1318 H 0.09692 0.68956 0.84266 0.0
H1319 H 0.09799 0.65243 0.83563 0.0
Li1320 Li 0.42686 0.09337 0.42111 0.0
Li1321 Li 0.43759 0.11771 0.41762 0.0
Li1322 Li 0.43531 0.10309 0.39428 0.0
Li1323 Li 0.45131 0.10743 0.41686 0.0
C1324 C 0.40735 0.09738 0.40902 0.0
N1325 N 0.3797 0.08429 0.41414 0.0
C1326 C 0.4018 0.10284 0.41985 0.0
C1327 C 0.39883 0.08534 0.40068 0.0
C1328 C 0.38779 0.09605 0.42229 0.0
C1329 C 0.38488 0.07885 0.40348 0.0
C1330 C 0.44774 0.10782 0.44865 0.0
C1331 C 0.46744 0.11933 0.46605 0.0
N1332 N 0.46349 0.10755 0.47431 0.0
C1333 C 0.44385 0.09585 0.45735 0.0
C1334 C 0.45959 0.11968 0.45306 0.0
C1335 C 0.45196 0.09592 0.47028 0.0
C1336 C 0.41032 0.06574 0.42858 0.0
N1337 N 0.41285 0.07841 0.43227 0.0
C1338 C 0.39489 0.06968 0.45194 0.0
C1339 C 0.40553 0.0806 0.44383 0.0
C1340 C 0.39193 0.05643 0.44828 0.0
C1341 C 0.39987 0.05456 0.43649 0.0
H1342 H 0.41652 0.06433 0.41966 0.0
H1343 H 0.40798 0.09083 0.44672 0.0
C1344 C 0.43076 0.13762 0.41244 0.0
N1345 N 0.43605 0.13279 0.42375 0.0
C1346 C 0.42865 0.1483 0.41645 0.0
C1347 C 0.43733 0.14872 0.44375 0.0
C1348 C 0.43934 0.13805 0.43917 0.0
C1349 C 0.43184 0.15392 0.43232 0.0
H1350 H 0.42807 0.13307 0.40035 0.0
H1351 H 0.4433 0.1338 0.44797 0.0
C1352 C 0.43876 0.08121 0.39512 0.0
N1353 N 0.43937 0.06419 0.37134 0.0
C1354 C 0.45099 0.08189 0.39101 0.0
C1355 C 0.42682 0.07182 0.38721 0.0
C1356 C 0.45109 0.07321 0.37895 0.0
C1357 C 0.42735 0.06333 0.37519 0.0
C1358 C 0.45615 0.13363 0.39678 0.0
C1359 C 0.45223 0.13695 0.38202 0.0
C1360 C 0.46458 0.14392 0.40768 0.0
C1361 C 0.4567 0.15054 0.37846 0.0
C1362 C 0.46881 0.15738 0.40369 0.0
N1363 N 0.46481 0.16039 0.38929 0.0
C1364 C 0.42181 0.10168 0.36479 0.0
C1365 C 0.44083 0.09873 0.36156 0.0
C1366 C 0.41951 0.10048 0.34784 0.0
N1367 N 0.43229 0.10073 0.37127 0.0
C1368 C 0.43868 0.09707 0.34463 0.0
C1369 C 0.42798 0.09808 0.33746 0.0
H1370 H 0.41541 0.10367 0.37275 0.0
H1371 H 0.44935 0.09846 0.36695 0.0
C1372 C 0.46951 0.09965 0.42985 0.0
N1373 N 0.46856 0.10954 0.42164 0.0
C1374 C 0.48215 0.1008 0.43244 0.0
C1375 C 0.49254 0.12225 0.41807 0.0
C1376 C 0.47972 0.12072 0.41584 0.0
C1377 C 0.49385 0.11213 0.42631 0.0
H1378 H 0.46041 0.09074 0.43403 0.0
H1379 H 0.47866 0.12833 0.40917 0.0
O1380 O 0.42104 0.10378 0.40663 0.0
O1381 O 0.44005 0.10792 0.4358 0.0
O1382 O 0.43846 0.08964 0.4069 0.0
O1383 O 0.45167 0.12037 0.40063 0.0
H1384 H 0.40824 0.11213 0.42645 0.0
H1385 H 0.40296 0.08103 0.39219 0.0
H1386 H 0.38336 0.10011 0.4307 0.0
H1387 H 0.37818 0.06948 0.39717 0.0
H1388 H 0.47668 0.1284 0.46953 0.0
H1389 H 0.43473 0.08658 0.45407 0.0
H1390 H 0.46277 0.12902 0.4464 0.0
H1391 H 0.44911 0.08672 0.47708 0.0
H1392 H 0.38904 0.0716 0.46095 0.0
H1393 H 0.39826 0.04457 0.43365 0.0
H1394 H 0.42462 0.15214 0.40717 0.0
H1395 H 0.4398 0.15267 0.45616 0.0
H1396 H 0.46033 0.08912 0.39696 0.0
H1397 H 0.41727 0.07116 0.39022 0.0
H1398 H 0.46049 0.07366 0.3756 0.0
H1399 H 0.4182 0.05606 0.36891 0.0
H1400 H 0.44573 0.12913 0.37344 0.0
H1401 H 0.46765 0.14151 0.4192 0.0
H1402 H 0.45369 0.15326 0.36711 0.0
H1403 H 0.47524 0.16544 0.41206 0.0
H1404 H 0.41137 0.10173 0.34298 0.0
H1405 H 0.44539 0.09504 0.33731 0.0
H1406 H 0.48271 0.09268 0.43866 0.0
H1407 H 0.50132 0.13118 0.41326 0.0
Li1408 Li 0.31644 0.43479 0.91808 0.0
Li1409 Li 0.32963 0.42353 0.9206 0.0
Li1410 Li 0.34067 0.44811 0.91696 0.0
Li1411 Li 0.32836 0.43242 0.89446 0.0
C1412 C 0.33641 0.44411 0.949 0.0
N1413 N 0.35176 0.45903 0.97555 0.0
C1414 C 0.34363 0.43951 0.95831 0.0
C1415 C 0.33694 0.45625 0.95326 0.0
C1416 C 0.35134 0.44721 0.97168 0.0
C1417 C 0.34479 0.46366 0.9667 0.0
C1418 C 0.30578 0.40457 0.91014 0.0
C1419 C 0.30175 0.3818 0.90704 0.0
N1420 N 0.2913 0.37734 0.91789 0.0
C1421 C 0.29497 0.39976 0.92121 0.0
C1422 C 0.30917 0.39552 0.90292 0.0
C1423 C 0.28778 0.38595 0.92498 0.0
C1424 C 0.29019 0.43041 0.91381 0.0
N1425 N 0.30043 0.43446 0.92486 0.0
C1426 C 0.28773 0.43845 0.94521 0.0
C1427 C 0.29938 0.43825 0.94039 0.0
C1428 C 0.27718 0.43477 0.93387 0.0
C1429 C 0.27843 0.43059 0.91803 0.0
H1430 H 0.29124 0.42719 0.90165 0.0
H1431 H 0.30761 0.44122 0.94899 0.0
C1432 C 0.33997 0.40609 0.92664 0.0
N1433 N 0.33057 0.40936 0.93146 0.0
C1434 C 0.34085 0.39571 0.93454 0.0
C1435 C 0.3223 0.39224 0.95221 0.0
C1436 C 0.32185 0.40276 0.94401 0.0
C1437 C 0.33195 0.38864 0.94754 0.0
H1438 H 0.34691 0.41167 0.91681 0.0
H1439 H 0.31457 0.40572 0.94767 0.0
C1440 C 0.31988 0.45417 0.89772 0.0
N1441 N 0.30291 0.4643 0.89075 0.0
C1442 C 0.31206 0.45019 0.88338 0.0
C1443 C 0.31916 0.46338 0.90844 0.0
C1444 C 0.30353 0.45542 0.88008 0.0
C1445 C 0.31048 0.46835 0.90472 0.0
C1446 C 0.35305 0.43594 0.89337 0.0
C1447 C 0.36391 0.44851 0.88871 0.0
C1448 C 0.35035 0.42432 0.88455 0.0
C1449 C 0.37182 0.44925 0.87519 0.0
C1450 C 0.35848 0.42549 0.87108 0.0
N1451 N 0.36896 0.43783 0.86672 0.0
C1452 C 0.36621 0.46595 0.9314 0.0
C1453 C 0.35714 0.47632 0.91434 0.0
C1454 C 0.37786 0.47843 0.93418 0.0
N1455 N 0.35613 0.46516 0.92171 0.0
C1456 C 0.36869 0.48896 0.91654 0.0
C1457 C 0.37931 0.49016 0.92654 0.0
H1458 H 0.36529 0.45686 0.9368 0.0
H1459 H 0.34912 0.47535 0.90636 0.0
C1460 C 0.3189 0.41839 0.86418 0.0
N1461 N 0.32799 0.43029 0.87132 0.0
C1462 C 0.31874 0.41691 0.84712 0.0
C1463 C 0.33729 0.43997 0.84516 0.0
C1464 C 0.33698 0.44104 0.86222 0.0
C1465 C 0.32806 0.42779 0.83735 0.0
H1466 H 0.3117 0.41009 0.87172 0.0
H1467 H 0.34396 0.45044 0.86826 0.0
O1468 O 0.32888 0.43677 0.9358 0.0
O1469 O 0.3131 0.41808 0.90652 0.0
O1470 O 0.32807 0.44894 0.90135 0.0
O1471 O 0.34505 0.43503 0.90642 0.0
H1472 H 0.34337 0.43016 0.95517 0.0
H1473 H 0.33147 0.45999 0.94613 0.0
H1474 H 0.35702 0.4438 0.97896 0.0
H1475 H 0.34535 0.47312 0.97006 0.0
H1476 H 0.30432 0.3747 0.90164 0.0
H1477 H 0.29224 0.40662 0.92697 0.0
H1478 H 0.31756 0.39909 0.8944 0.0
H1479 H 0.27943 0.38209 0.93359 0.0
H1480 H 0.28712 0.44176 0.95752 0.0
H1481 H 0.27041 0.42748 0.90904 0.0
H1482 H 0.34866 0.3935 0.93079 0.0
H1483 H 0.31521 0.38703 0.96209 0.0
H1484 H 0.31245 0.44304 0.87497 0.0
H1485 H 0.32513 0.46653 0.9196 0.0
H1486 H 0.29736 0.45238 0.86908 0.0
H1487 H 0.30974 0.4754 0.91297 0.0
H1488 H 0.36614 0.45761 0.89536 0.0
H1489 H 0.34194 0.41453 0.88792 0.0
H1490 H 0.38021 0.45892 0.8714 0.0
H1491 H 0.35644 0.4166 0.86407 0.0
H1492 H 0.38566 0.47882 0.94214 0.0
H1493 H 0.36943 0.4976 0.91005 0.0
H1494 H 0.31126 0.40742 0.84164 0.0
H1495 H 0.34477 0.44857 0.83821 0.0
Li1496 Li 0.87862 0.31738 0.41687 0.0
Li1497 Li 0.90308 0.33018 0.41908 0.0
Li1498 Li 0.88977 0.34146 0.41526 0.0
Li1499 Li 0.89268 0.3287 0.39285 0.0
C1500 C 0.89036 0.33815 0.4472 0.0
N1501 N 0.8924 0.35494 0.47291 0.0
C1502 C 0.90254 0.34539 0.45582 0.0
C1503 C 0.87919 0.33938 0.45172 0.0
C1504 C 0.90337 0.35383 0.46878 0.0
C1505 C 0.88044 0.34795 0.46472 0.0
C1506 C 0.89786 0.30615 0.40808 0.0
C1507 C 0.91626 0.30187 0.40318 0.0
N1508 N 0.91054 0.29128 0.41387 0.0
C1509 C 0.89213 0.29519 0.41896 0.0
C1510 C 0.90998 0.30949 0.40005 0.0
C1511 C 0.89871 0.2878 0.42173 0.0
C1512 C 0.85756 0.29046 0.4143 0.0
N1513 N 0.86312 0.30151 0.42426 0.0
C1514 C 0.84677 0.28947 0.44519 0.0
C1515 C 0.85805 0.30124 0.43947 0.0
C1516 C 0.84081 0.27788 0.43518 0.0
C1517 C 0.84632 0.27846 0.41954 0.0
H1518 H 0.86193 0.29099 0.40231 0.0
H1519 H 0.86281 0.31012 0.44721 0.0
C1520 C 0.93076 0.34123 0.42571 0.0
N1521 N 0.9182 0.33105 0.42972 0.0
C1522 C 0.94211 0.34235 0.43361 0.0
C1523 C 0.92738 0.3224 0.44956 0.0
C1524 C 0.91629 0.32178 0.44148 0.0
C1525 C 0.94052 0.33285 0.44573 0.0
H1526 H 0.93194 0.34865 0.41661 0.0
H1527 H 0.90614 0.31397 0.44465 0.0
C1528 C 0.86261 0.32016 0.39656 0.0
N1529 N 0.83557 0.30224 0.39039 0.0
C1530 C 0.85879 0.31189 0.38261 0.0
C1531 C 0.85268 0.31939 0.40733 0.0
C1532 C 0.84506 0.30289 0.37971 0.0
C1533 C 0.83906 0.31023 0.40401 0.0
C1534 C 0.91467 0.35351 0.3919 0.0
C1535 C 0.91355 0.36472 0.38725 0.0
C1536 C 0.9237 0.35068 0.38357 0.0
C1537 C 0.92141 0.37285 0.37422 0.0
C1538 C 0.93136 0.35904 0.37059 0.0
N1539 N 0.93007 0.36985 0.36622 0.0
C1540 C 0.89911 0.36768 0.42817 0.0
C1541 C 0.87784 0.35796 0.4147 0.0
C1542 C 0.89874 0.37953 0.43128 0.0
N1543 N 0.88874 0.35721 0.42005 0.0
C1544 C 0.87709 0.36965 0.41743 0.0
C1545 C 0.88768 0.38069 0.42574 0.0
H1546 H 0.90774 0.36686 0.43207 0.0
H1547 H 0.86986 0.34958 0.40801 0.0
C1548 C 0.89536 0.31736 0.36312 0.0
N1549 N 0.89449 0.32784 0.36975 0.0
C1550 C 0.89689 0.31671 0.34616 0.0
C1551 C 0.8966 0.33767 0.34321 0.0
C1552 C 0.89479 0.33775 0.36016 0.0
C1553 C 0.89765 0.32703 0.33593 0.0
H1554 H 0.89474 0.30943 0.37099 0.0
H1555 H 0.89374 0.34579 0.36572 0.0
O1556 O 0.88938 0.32993 0.43437 0.0
O1557 O 0.89166 0.3136 0.40534 0.0
O1558 O 0.87601 0.3288 0.39982 0.0
O1559 O 0.90699 0.34538 0.40455 0.0
H1560 H 0.9113 0.34459 0.45249 0.0
H1561 H 0.86973 0.33397 0.44507 0.0
H1562 H 0.91274 0.35953 0.47552 0.0
H1563 H 0.87191 0.34909 0.46826 0.0
H1564 H 0.92568 0.30439 0.39713 0.0
H1565 H 0.8828 0.2925 0.42535 0.0
H1566 H 0.91455 0.31794 0.3916 0.0
H1567 H 0.89443 0.27933 0.43018 0.0
H1568 H 0.84289 0.28937 0.45739 0.0
H1569 H 0.84191 0.26978 0.41139 0.0
H1570 H 0.95198 0.35082 0.4306 0.0
H1571 H 0.92567 0.31485 0.45878 0.0
H1572 H 0.86635 0.31232 0.37419 0.0
H1573 H 0.85548 0.32565 0.41825 0.0
H1574 H 0.84196 0.29638 0.36901 0.0
H1575 H 0.83127 0.30945 0.4123 0.0
H1576 H 0.9066 0.36706 0.39351 0.0
H1577 H 0.9247 0.34205 0.38701 0.0
H1578 H 0.9206 0.38152 0.37044 0.0
H1579 H 0.93833 0.35691 0.36398 0.0
H1580 H 0.90707 0.38771 0.43788 0.0
H1581 H 0.86851 0.37018 0.41262 0.0
H1582 H 0.89728 0.30812 0.34115 0.0
H1583 H 0.89729 0.34596 0.33596 0.0
Li1584 Li 0.10558 0.45009 0.58467 0.0
Li1585 Li 0.10215 0.43218 0.60632 0.0
Li1586 Li 0.11631 0.43631 0.58164 0.0
Li1587 Li 0.09272 0.42594 0.57894 0.0
C1588 C 0.13285 0.4564 0.60008 0.0
N1589 N 0.16082 0.46978 0.59958 0.0
C1590 C 0.13993 0.4538 0.61222 0.0
C1591 C 0.13999 0.46587 0.58774 0.0
C1592 C 0.15407 0.46065 0.61174 0.0
C1593 C 0.15413 0.47252 0.58769 0.0
C1594 C 0.07485 0.42954 0.59416 0.0
C1595 C 0.05288 0.40989 0.59871 0.0
N1596 N 0.04712 0.41568 0.5896 0.0
C1597 C 0.06871 0.43533 0.58492 0.0
C1598 C 0.06688 0.41675 0.60119 0.0
C1599 C 0.05467 0.42815 0.58273 0.0
C1600 C 0.10032 0.46956 0.57009 0.0
N1601 N 0.10755 0.46743 0.58181 0.0
C1602 C 0.11788 0.49048 0.59053 0.0
C1603 C 0.11624 0.47755 0.59192 0.0
C1604 C 0.11025 0.49297 0.57889 0.0
C1605 C 0.10141 0.48227 0.56851 0.0
H1606 H 0.09356 0.46131 0.56214 0.0
H1607 H 0.12187 0.47557 0.60112 0.0
C1608 C 0.10838 0.42511 0.63714 0.0
N1609 N 0.09986 0.42819 0.62903 0.0
C1610 C 0.10711 0.4229 0.65411 0.0
C1611 C 0.08785 0.42638 0.65383 0.0
C1612 C 0.08968 0.42879 0.63696 0.0
C1613 C 0.09679 0.42364 0.66275 0.0
H1614 H 0.1163 0.42458 0.63044 0.0
H1615 H 0.08306 0.43128 0.63019 0.0
C1616 C 0.10756 0.43726 0.54924 0.0
N1617 N 0.10978 0.43031 0.5173 0.0
C1618 C 0.10583 0.42448 0.54578 0.0
C1619 C 0.11038 0.4465 0.53646 0.0
C1620 C 0.10699 0.42116 0.52955 0.0
C1621 C 0.11148 0.4428 0.52039 0.0
C1622 C 0.09863 0.40573 0.59305 0.0
C1623 C 0.10323 0.39941 0.58215 0.0
C1624 C 0.08987 0.39823 0.60585 0.0
C1625 C 0.09871 0.38561 0.58399 0.0
C1626 C 0.08559 0.38445 0.60727 0.0
N1627 N 0.09005 0.37847 0.59639 0.0
C1628 C 0.1366 0.42967 0.58409 0.0
C1629 C 0.13867 0.44271 0.56036 0.0
C1630 C 0.14829 0.42938 0.57984 0.0
N1631 N 0.13208 0.43629 0.57439 0.0
C1632 C 0.15028 0.44248 0.55549 0.0
C1633 C 0.15522 0.43582 0.56537 0.0
H1634 H 0.13118 0.42475 0.59523 0.0
H1635 H 0.13505 0.44819 0.55309 0.0
C1636 C 0.07395 0.4183 0.55358 0.0
N1637 N 0.07761 0.41307 0.56631 0.0
C1638 C 0.06347 0.40978 0.54308 0.0
C1639 C 0.06035 0.39063 0.55927 0.0
C1640 C 0.07094 0.39954 0.56944 0.0
C1641 C 0.05662 0.39573 0.54578 0.0
H1642 H 0.07925 0.42912 0.55156 0.0
H1643 H 0.07375 0.39558 0.57978 0.0
O1644 O 0.11899 0.44944 0.59995 0.0
O1645 O 0.08862 0.43622 0.59602 0.0
O1646 O 0.10646 0.44078 0.56501 0.0
O1647 O 0.10308 0.41927 0.59158 0.0
H1648 H 0.13457 0.4465 0.62184 0.0
H1649 H 0.13465 0.46789 0.57814 0.0
H1650 H 0.15969 0.45869 0.62101 0.0
H1651 H 0.15978 0.47979 0.57815 0.0
H1652 H 0.04661 0.39993 0.60398 0.0
H1653 H 0.07471 0.44522 0.57941 0.0
H1654 H 0.07148 0.41208 0.60829 0.0
H1655 H 0.04979 0.43248 0.57554 0.0
H1656 H 0.12506 0.4984 0.59854 0.0
H1657 H 0.09517 0.48358 0.5595 0.0
H1658 H 0.11436 0.42099 0.6604 0.0
H1659 H 0.07955 0.42675 0.65978 0.0
H1660 H 0.10351 0.4172 0.55551 0.0
H1661 H 0.11173 0.45643 0.53896 0.0
H1662 H 0.10565 0.41129 0.5267 0.0
H1663 H 0.11369 0.44986 0.51037 0.0
H1664 H 0.11029 0.4051 0.57244 0.0
H1665 H 0.08633 0.40296 0.61452 0.0
H1666 H 0.10214 0.38058 0.57559 0.0
H1667 H 0.07874 0.37851 0.61704 0.0
H1668 H 0.15185 0.42415 0.58773 0.0
H1669 H 0.15554 0.44774 0.54439 0.0
H1670 H 0.0607 0.41415 0.53304 0.0
H1671 H 0.0553 0.37986 0.56178 0.0
Li1672 Li 0.65517 0.10582 0.08115 0.0
Li1673 Li 0.66911 0.10275 0.10152 0.0
Li1674 Li 0.6796 0.11709 0.07771 0.0
Li1675 Li 0.66744 0.09299 0.07518 0.0
C1676 C 0.6774 0.12994 0.10613 0.0
N1677 N 0.69409 0.15042 0.12752 0.0
C1678 C 0.68998 0.13158 0.11066 0.0
C1679 C 0.67335 0.13877 0.1125 0.0
C1680 C 0.69825 0.14198 0.12148 0.0
C1681 C 0.68193 0.14905 0.12329 0.0
C1682 C 0.64402 0.08075 0.10344 0.0
C1683 C 0.6376 0.06327 0.12397 0.0
N1684 N 0.62761 0.06557 0.12925 0.0
C1685 C 0.63354 0.08277 0.10893 0.0
C1686 C 0.64593 0.07077 0.11088 0.0
C1687 C 0.62541 0.07506 0.12203 0.0
C1688 C 0.63159 0.10177 0.06419 0.0
N1689 N 0.63964 0.10742 0.07757 0.0
C1690 C 0.62547 0.11579 0.08733 0.0
C1691 C 0.63688 0.11441 0.08897 0.0
C1692 C 0.6168 0.10992 0.0738 0.0
C1693 C 0.62003 0.10293 0.06203 0.0
H1694 H 0.63409 0.09629 0.05531 0.0
H1695 H 0.64344 0.11869 0.09952 0.0
C1696 C 0.68063 0.09953 0.13121 0.0
N1697 N 0.67044 0.10091 0.12456 0.0
C1698 C 0.68141 0.09839 0.14824 0.0
C1699 C 0.66121 0.10009 0.15116 0.0
C1700 C 0.661 0.10148 0.13416 0.0
C1701 C 0.67157 0.09859 0.15849 0.0
H1702 H 0.68827 0.09954 0.12335 0.0
H1703 H 0.65327 0.10302 0.12858 0.0
C1704 C 0.66889 0.11486 0.04825 0.0
N1705 N 0.67671 0.13301 0.02245 0.0
C1706 C 0.67509 0.11309 0.03439 0.0
C1707 C 0.66659 0.1258 0.04897 0.0
C1708 C 0.67899 0.12239 0.02147 0.0
C1709 C 0.67064 0.13488 0.03581 0.0
C1710 C 0.69121 0.09738 0.08774 0.0
C1711 C 0.70415 0.10332 0.08081 0.0
C1712 C 0.68548 0.08439 0.09445 0.0
C1713 C 0.71097 0.09599 0.08029 0.0
C1714 C 0.6926 0.07737 0.09368 0.0
N1715 N 0.70509 0.08326 0.08665 0.0
C1716 C 0.69631 0.14548 0.07218 0.0
C1717 C 0.70293 0.1314 0.05837 0.0
C1718 C 0.70749 0.15704 0.06588 0.0
N1719 N 0.69448 0.133 0.06873 0.0
C1720 C 0.71425 0.14268 0.05178 0.0
C1721 C 0.71675 0.15572 0.05575 0.0
H1722 H 0.68916 0.1465 0.07989 0.0
H1723 H 0.70083 0.12132 0.05518 0.0
C1724 C 0.65672 0.06556 0.06726 0.0
N1725 N 0.66679 0.0783 0.0637 0.0
C1726 C 0.65628 0.05446 0.05945 0.0
C1727 C 0.6765 0.06984 0.04435 0.0
C1728 C 0.6766 0.08065 0.05253 0.0
C1729 C 0.66625 0.05654 0.04782 0.0
H1730 H 0.64904 0.06403 0.07615 0.0
H1731 H 0.68455 0.09092 0.05012 0.0
O1732 O 0.66901 0.11976 0.09565 0.0
O1733 O 0.65218 0.08833 0.09068 0.0
O1734 O 0.66534 0.10609 0.06122 0.0
O1735 O 0.68424 0.1043 0.08808 0.0
H1736 H 0.69338 0.12494 0.10589 0.0
H1737 H 0.66371 0.13774 0.10911 0.0
H1738 H 0.70799 0.14333 0.12508 0.0
H1739 H 0.67891 0.15594 0.12829 0.0
H1740 H 0.63906 0.05559 0.1299 0.0
H1741 H 0.63174 0.09028 0.10326 0.0
H1742 H 0.65371 0.06875 0.10663 0.0
H1743 H 0.61735 0.07663 0.12647 0.0
H1744 H 0.62347 0.12142 0.09657 0.0
H1745 H 0.61356 0.09817 0.05149 0.0
H1746 H 0.68977 0.0976 0.15329 0.0
H1747 H 0.65328 0.10014 0.15843 0.0
H1748 H 0.67696 0.10468 0.03366 0.0
H1749 H 0.66193 0.12739 0.0597 0.0
H1750 H 0.68385 0.12119 0.01068 0.0
H1751 H 0.66901 0.14344 0.03624 0.0
H1752 H 0.70898 0.11352 0.07604 0.0
H1753 H 0.67562 0.07975 0.10009 0.0
H1754 H 0.72097 0.10045 0.07489 0.0
H1755 H 0.68819 0.06724 0.09869 0.0
H1756 H 0.70904 0.1669 0.06927 0.0
H1757 H 0.72097 0.14121 0.04371 0.0
H1758 H 0.64806 0.04438 0.06225 0.0
H1759 H 0.6844 0.07183 0.03551 0.0
Li1760 Li 0.56406 0.66954 0.60607 0.0
Li1761 Li 0.54754 0.65559 0.58383 0.0
Li1762 Li 0.57157 0.66688 0.57897 0.0
Li1763 Li 0.5598 0.67944 0.58186 0.0
C1764 C 0.56885 0.64669 0.59805 0.0
N1765 N 0.58489 0.63511 0.60251 0.0
C1766 C 0.56444 0.63353 0.59249 0.0
C1767 C 0.58139 0.65396 0.60592 0.0
C1768 C 0.57271 0.62786 0.59486 0.0
C1769 C 0.58935 0.64793 0.60804 0.0
C1770 C 0.54138 0.67657 0.60408 0.0
C1771 C 0.52666 0.68573 0.5989 0.0
N1772 N 0.53117 0.69318 0.61292 0.0
C1773 C 0.54571 0.6842 0.61856 0.0
C1774 C 0.53162 0.67721 0.59428 0.0
C1775 C 0.54049 0.69257 0.62278 0.0
C1776 C 0.57606 0.68343 0.63548 0.0
N1777 N 0.56826 0.67098 0.62871 0.0
C1778 C 0.56667 0.66025 0.6545 0.0
C1779 C 0.56359 0.65948 0.63778 0.0
C1780 C 0.57448 0.673 0.6619 0.0
C1781 C 0.57921 0.68469 0.65221 0.0
H1782 H 0.57963 0.69238 0.62791 0.0
H1783 H 0.55746 0.64971 0.63199 0.0
C1784 C 0.53077 0.62943 0.57088 0.0
N1785 N 0.53088 0.63961 0.57972 0.0
C1786 C 0.51856 0.61755 0.56782 0.0
C1787 C 0.50684 0.62705 0.58265 0.0
C1788 C 0.51928 0.63867 0.58558 0.0
C1789 C 0.50641 0.61627 0.57378 0.0
H1790 H 0.54017 0.63058 0.56619 0.0
H1791 H 0.51971 0.64693 0.59259 0.0
C1792 C 0.58777 0.69514 0.58442 0.0
N1793 N 0.6082 0.71808 0.56952 0.0
C1794 C 0.58818 0.69641 0.56728 0.0
C1795 C 0.59774 0.70555 0.59397 0.0
C1796 C 0.59859 0.70808 0.55999 0.0
C1797 C 0.60799 0.71706 0.5862 0.0
C1798 C 0.54909 0.66042 0.55131 0.0
C1799 C 0.55319 0.65546 0.53809 0.0
C1800 C 0.5363 0.65925 0.55097 0.0
C1801 C 0.54426 0.64905 0.52503 0.0
C1802 C 0.52764 0.65276 0.53772 0.0
N1803 N 0.53176 0.64781 0.52514 0.0
C1804 C 0.58096 0.65387 0.5585 0.0
C1805 C 0.59873 0.67379 0.57053 0.0
C1806 C 0.59022 0.65187 0.54953 0.0
N1807 N 0.58531 0.6649 0.56832 0.0
C1808 C 0.60838 0.67218 0.56181 0.0
C1809 C 0.60411 0.66124 0.5509 0.0
H1810 H 0.57025 0.64663 0.55761 0.0
H1811 H 0.602 0.68217 0.57896 0.0
C1812 C 0.56321 0.70538 0.58543 0.0
N1813 N 0.55959 0.69509 0.57454 0.0
C1814 C 0.56321 0.71711 0.58068 0.0
C1815 C 0.55651 0.70778 0.5533 0.0
C1816 C 0.55644 0.69611 0.55867 0.0
C1817 C 0.55978 0.71836 0.56445 0.0
H1818 H 0.5661 0.70444 0.59782 0.0
H1819 H 0.55394 0.68792 0.55015 0.0
O1820 O 0.56107 0.65256 0.59548 0.0
O1821 O 0.54656 0.66845 0.59965 0.0
O1822 O 0.57756 0.68391 0.59191 0.0
O1823 O 0.55767 0.66662 0.56431 0.0
H1824 H 0.55477 0.62778 0.58637 0.0
H1825 H 0.58502 0.66422 0.61011 0.0
H1826 H 0.56945 0.61769 0.59059 0.0
H1827 H 0.59911 0.65345 0.61402 0.0
H1828 H 0.51921 0.68639 0.59133 0.0
H1829 H 0.55306 0.68371 0.62645 0.0
H1830 H 0.52793 0.67126 0.58321 0.0
H1831 H 0.54384 0.69859 0.6339 0.0
H1832 H 0.56275 0.65102 0.66164 0.0
H1833 H 0.58532 0.69469 0.65749 0.0
H1834 H 0.5186 0.60948 0.56082 0.0
H1835 H 0.4977 0.62636 0.58759 0.0
H1836 H 0.58056 0.6885 0.55966 0.0
H1837 H 0.59758 0.70475 0.60724 0.0
H1838 H 0.59902 0.7092 0.54675 0.0
H1839 H 0.61578 0.72519 0.59344 0.0
H1840 H 0.56322 0.65671 0.53773 0.0
H1841 H 0.53305 0.66321 0.56091 0.0
H1842 H 0.54729 0.64513 0.51476 0.0
H1843 H 0.51765 0.65166 0.53745 0.0
H1844 H 0.58655 0.64306 0.54164 0.0
H1845 H 0.61902 0.67955 0.56332 0.0
H1846 H 0.56601 0.72519 0.58953 0.0
H1847 H 0.55384 0.70844 0.54068 0.0
Li1848 Li 0.89084 0.56432 0.10565 0.0
Li1849 Li 0.88847 0.54751 0.08395 0.0
Li1850 Li 0.90138 0.57165 0.079 0.0
Li1851 Li 0.87753 0.56051 0.07931 0.0
C1852 C 0.91812 0.56535 0.09351 0.0
N1853 N 0.94523 0.57487 0.08726 0.0
C1854 C 0.92198 0.55928 0.08133 0.0
C1855 C 0.92805 0.57622 0.10256 0.0
C1856 C 0.93574 0.56426 0.07834 0.0
C1857 C 0.9417 0.58089 0.0992 0.0
C1858 C 0.86694 0.53487 0.104 0.0
C1859 C 0.85136 0.51098 0.10032 0.0
N1860 N 0.85297 0.50883 0.11641 0.0
C1861 C 0.86837 0.53243 0.12053 0.0
C1862 C 0.85829 0.52408 0.09383 0.0
C1863 C 0.86124 0.51918 0.12656 0.0
C1864 C 0.88318 0.5709 0.13572 0.0
N1865 N 0.8921 0.56792 0.12842 0.0
C1866 C 0.90316 0.56984 0.15403 0.0
C1867 C 0.90191 0.56727 0.13717 0.0
C1868 C 0.89409 0.57293 0.16196 0.0
C1869 C 0.88398 0.57342 0.15262 0.0
H1870 H 0.87545 0.57128 0.1284 0.0
H1871 H 0.90868 0.5646 0.13106 0.0
C1872 C 0.88758 0.52607 0.06536 0.0
N1873 N 0.88772 0.5306 0.08088 0.0
C1874 C 0.88711 0.51372 0.06289 0.0
C1875 C 0.88701 0.51098 0.09241 0.0
C1876 C 0.88774 0.5235 0.0943 0.0
C1877 C 0.88669 0.50598 0.07654 0.0
H1878 H 0.88795 0.5321 0.0549 0.0
H1879 H 0.88834 0.52756 0.10648 0.0
C1880 C 0.89672 0.59149 0.08965 0.0
N1881 N 0.91016 0.61943 0.08746 0.0
C1882 C 0.89833 0.59779 0.07439 0.0
C1883 C 0.9019 0.59942 0.10381 0.0
C1884 C 0.90518 0.61192 0.07353 0.0
C1885 C 0.90867 0.61352 0.10244 0.0
C1886 C 0.88186 0.55541 0.04962 0.0
C1887 C 0.88581 0.56602 0.03838 0.0
C1888 C 0.87031 0.54291 0.04645 0.0
C1889 C 0.87808 0.56397 0.02421 0.0
C1890 C 0.86283 0.54127 0.03217 0.0
N1891 N 0.86683 0.55174 0.02144 0.0
C1892 C 0.92054 0.58183 0.05387 0.0
C1893 C 0.9263 0.59703 0.07632 0.0
C1894 C 0.93252 0.59075 0.04582 0.0
N1895 N 0.9176 0.58514 0.06876 0.0
C1896 C 0.93832 0.60635 0.0686 0.0
C1897 C 0.94154 0.60317 0.05321 0.0
H1898 H 0.91371 0.57212 0.0484 0.0
H1899 H 0.92408 0.59917 0.0885 0.0
C1900 C 0.84942 0.54962 0.07539 0.0
N1901 N 0.86172 0.55986 0.0706 0.0
C1902 C 0.8376 0.54878 0.06925 0.0
C1903 C 0.85133 0.56905 0.05334 0.0
C1904 C 0.86287 0.56953 0.05987 0.0
C1905 C 0.83847 0.5586 0.05808 0.0
H1906 H 0.84876 0.54219 0.08413 0.0
H1907 H 0.87273 0.57758 0.05627 0.0
O1908 O 0.9047 0.5609 0.09622 0.0
O1909 O 0.87392 0.54777 0.09784 0.0
O1910 O 0.88997 0.57767 0.09082 0.0
O1911 O 0.88918 0.55727 0.0637 0.0
H1912 H 0.91443 0.55096 0.07409 0.0
H1913 H 0.92524 0.58117 0.11185 0.0
H1914 H 0.93887 0.55972 0.06888 0.0
H1915 H 0.94949 0.58935 0.10602 0.0
H1916 H 0.84471 0.50253 0.09255 0.0
H1917 H 0.87497 0.54063 0.12861 0.0
H1918 H 0.85703 0.52577 0.08102 0.0
H1919 H 0.8623 0.51714 0.13931 0.0
H1920 H 0.91093 0.56912 0.16087 0.0
H1921 H 0.87683 0.57582 0.1583 0.0
H1922 H 0.88695 0.51019 0.05047 0.0
H1923 H 0.88695 0.50539 0.10321 0.0
H1924 H 0.89468 0.59185 0.06327 0.0
H1925 H 0.90077 0.59474 0.11572 0.0
H1926 H 0.9066 0.61692 0.06178 0.0
H1927 H 0.91276 0.61978 0.11329 0.0
H1928 H 0.89463 0.57582 0.04068 0.0
H1929 H 0.8671 0.53459 0.055 0.0
H1930 H 0.88097 0.57212 0.01547 0.0
H1931 H 0.85383 0.53167 0.02962 0.0
H1932 H 0.93472 0.58795 0.03396 0.0
H1933 H 0.94521 0.61573 0.07479 0.0
H1934 H 0.82789 0.54071 0.07351 0.0
H1935 H 0.85248 0.57676 0.04466 0.0
Li1936 Li 0.32563 0.89303 0.60485 0.0
Li1937 Li 0.34047 0.88995 0.58542 0.0
Li1938 Li 0.33 0.90368 0.57879 0.0
Li1939 Li 0.31611 0.8791 0.58009 0.0
C1940 C 0.35236 0.92023 0.59358 0.0
N1941 N 0.36983 0.94724 0.58658 0.0
C1942 C 0.36463 0.92418 0.58556 0.0
C1943 C 0.34903 0.93004 0.59816 0.0
C1944 C 0.37332 0.93788 0.58211 0.0
C1945 C 0.35798 0.94363 0.59446 0.0
C1946 C 0.32779 0.86589 0.60283 0.0
C1947 C 0.33165 0.8477 0.59493 0.0
N1948 N 0.3338 0.84595 0.61097 0.0
C1949 C 0.33001 0.8639 0.61925 0.0
C1950 C 0.32858 0.85772 0.59057 0.0
C1951 C 0.33305 0.85376 0.62311 0.0
C1952 C 0.31334 0.88301 0.63566 0.0
N1953 N 0.32273 0.89425 0.62759 0.0
C1954 C 0.32903 0.90705 0.65251 0.0
C1955 C 0.33047 0.90616 0.63559 0.0
C1956 C 0.31967 0.89552 0.66126 0.0
C1957 C 0.31164 0.88341 0.65261 0.0
H1958 H 0.30737 0.87366 0.62894 0.0
H1959 H 0.33797 0.91488 0.6289 0.0
C1960 C 0.36261 0.8912 0.56838 0.0
N1961 N 0.35616 0.88831 0.58313 0.0
C1962 C 0.37445 0.89054 0.56649 0.0
C1963 C 0.37256 0.88363 0.59493 0.0
C1964 C 0.36099 0.88478 0.59636 0.0
C1965 C 0.3796 0.88667 0.57988 0.0
H1966 H 0.35872 0.89431 0.55816 0.0
H1967 H 0.35591 0.88293 0.60809 0.0
C1968 C 0.30265 0.89195 0.60008 0.0
N1969 N 0.28392 0.88969 0.62331 0.0
C1970 C 0.29109 0.87941 0.60305 0.0
C1971 C 0.30465 0.90335 0.60887 0.0
C1972 C 0.28174 0.87848 0.61484 0.0
C1973 C 0.29508 0.90199 0.62059 0.0
C1974 C 0.32816 0.88492 0.54958 0.0
C1975 C 0.3223 0.88987 0.53849 0.0
C1976 C 0.33062 0.87459 0.54468 0.0
C1977 C 0.31878 0.88424 0.52275 0.0
C1978 C 0.32697 0.86923 0.52883 0.0
N1979 N 0.32116 0.87412 0.51829 0.0
C1980 C 0.34213 0.92338 0.55453 0.0
C1981 C 0.32439 0.9242 0.5688 0.0
C1982 C 0.3439 0.93393 0.54428 0.0
N1983 N 0.33246 0.91872 0.5664 0.0
C1984 C 0.32591 0.93489 0.55893 0.0
C1985 C 0.33566 0.93974 0.54637 0.0
H1986 H 0.34833 0.91874 0.55291 0.0
H1987 H 0.31668 0.92015 0.57822 0.0
C1988 C 0.29637 0.85132 0.57676 0.0
N1989 N 0.30088 0.86395 0.57067 0.0
C1990 C 0.28485 0.84028 0.57016 0.0
C1991 C 0.28273 0.85549 0.55125 0.0
C1992 C 0.29422 0.86624 0.55833 0.0
C1993 C 0.27785 0.84228 0.55721 0.0
H1994 H 0.30149 0.84983 0.58703 0.0
H1995 H 0.29771 0.87647 0.55418 0.0
O1996 O 0.34358 0.90682 0.59672 0.0
O1997 O 0.32494 0.87586 0.5988 0.0
O1998 O 0.31207 0.89301 0.58885 0.0
O1999 O 0.3317 0.89033 0.56504 0.0
H2000 H 0.36739 0.91675 0.58195 0.0
H2001 H 0.33951 0.92715 0.60419 0.0
H2002 H 0.38282 0.94108 0.57586 0.0
H2003 H 0.35547 0.95131 0.59779 0.0
H2004 H 0.33231 0.84131 0.58555 0.0
H2005 H 0.32952 0.87019 0.62889 0.0
H2006 H 0.32682 0.85909 0.57783 0.0
H2007 H 0.33483 0.85213 0.63576 0.0
H2008 H 0.33555 0.91652 0.65877 0.0
H2009 H 0.30425 0.87432 0.65892 0.0
H2010 H 0.37962 0.89332 0.55476 0.0
H2011 H 0.3759 0.88038 0.60558 0.0
H2012 H 0.2894 0.87046 0.59643 0.0
H2013 H 0.31361 0.9131 0.60688 0.0
H2014 H 0.27278 0.86883 0.61731 0.0
H2015 H 0.29655 0.91071 0.62757 0.0
H2016 H 0.3203 0.89785 0.54207 0.0
H2017 H 0.33537 0.8708 0.55298 0.0
H2018 H 0.31415 0.88791 0.51409 0.0
H2019 H 0.32878 0.86121 0.52489 0.0
H2020 H 0.35165 0.93753 0.53484 0.0
H2021 H 0.31934 0.93909 0.56081 0.0
H2022 H 0.28123 0.83036 0.57552 0.0
H2023 H 0.27766 0.85753 0.54132 0.0
Li2024 Li 0.43307 0.32923 0.10401 0.0
Li2025 Li 0.44989 0.34246 0.08357 0.0
Li2026 Li 0.42576 0.33258 0.07718 0.0
Li2027 Li 0.43639 0.31897 0.07912 0.0
C2028 C 0.43886 0.35911 0.08974 0.0
N2029 N 0.44364 0.38449 0.08058 0.0
C2030 C 0.44317 0.36388 0.07375 0.0
C2031 C 0.43699 0.36727 0.10105 0.0
C2032 C 0.44554 0.37673 0.06937 0.0
C2033 C 0.43945 0.38006 0.09618 0.0
C2034 C 0.46184 0.33327 0.10373 0.0
C2035 C 0.48531 0.33953 0.10056 0.0
N2036 N 0.48795 0.34506 0.11589 0.0
C2037 C 0.46477 0.33886 0.11954 0.0
C2038 C 0.47216 0.33346 0.09424 0.0
C2039 C 0.47804 0.34482 0.12543 0.0
C2040 C 0.42245 0.31474 0.13382 0.0
N2041 N 0.4289 0.32719 0.12668 0.0
C2042 C 0.43042 0.33792 0.1524 0.0
C2043 C 0.4328 0.33866 0.13552 0.0
C2044 C 0.42396 0.32524 0.16024 0.0
C2045 C 0.41981 0.31352 0.15072 0.0
H2046 H 0.41949 0.3058 0.12642 0.0
H2047 H 0.43799 0.3484 0.12948 0.0
C2048 C 0.47383 0.36155 0.06655 0.0
N2049 N 0.46731 0.35808 0.08127 0.0
C2050 C 0.48644 0.37333 0.06513 0.0
C2051 C 0.48537 0.37761 0.09408 0.0
C2052 C 0.47272 0.3659 0.09485 0.0
C2053 C 0.4924 0.38156 0.07903 0.0
H2054 H 0.46915 0.35532 0.05585 0.0
H2055 H 0.46716 0.36303 0.10631 0.0
C2056 C 0.40642 0.31116 0.09536 0.0
N2057 N 0.38076 0.30258 0.10752 0.0
C2058 C 0.39635 0.29757 0.09397 0.0
C2059 C 0.40345 0.3204 0.10289 0.0
C2060 C 0.38343 0.29343 0.10021 0.0
C2061 C 0.39042 0.31586 0.10898 0.0
C2062 C 0.44264 0.32883 0.04865 0.0
C2063 C 0.43379 0.32572 0.03535 0.0
C2064 C 0.45384 0.32701 0.04715 0.0
C2065 C 0.43611 0.32053 0.02092 0.0
C2066 C 0.45581 0.32178 0.03254 0.0
N2067 N 0.44697 0.31866 0.01983 0.0
C2068 C 0.40875 0.34358 0.068 0.0
C2069 C 0.40364 0.32247 0.0564 0.0
C2070 C 0.39822 0.3435 0.05918 0.0
N2071 N 0.41148 0.33333 0.06611 0.0
C2072 C 0.39297 0.32193 0.04741 0.0
C2073 C 0.39028 0.33266 0.04854 0.0
H2074 H 0.41472 0.35188 0.07623 0.0
H2075 H 0.4058 0.31427 0.05555 0.0
C2076 C 0.44305 0.29839 0.07807 0.0
N2077 N 0.43536 0.30301 0.07092 0.0
C2078 C 0.44172 0.28608 0.07312 0.0
C2079 C 0.4249 0.28374 0.05319 0.0
C2080 C 0.42639 0.296 0.05872 0.0
C2081 C 0.43246 0.27857 0.06065 0.0
H2082 H 0.44995 0.30411 0.08789 0.0
H2083 H 0.42022 0.29983 0.05352 0.0
O2084 O 0.43661 0.34661 0.09446 0.0
O2085 O 0.44893 0.32755 0.09766 0.0
O2086 O 0.41906 0.31534 0.08914 0.0
O2087 O 0.44043 0.33378 0.06295 0.0
H2088 H 0.44465 0.35776 0.06476 0.0
H2089 H 0.43361 0.36375 0.11345 0.0
H2090 H 0.44888 0.38054 0.05705 0.0
H2091 H 0.43802 0.38647 0.10481 0.0
H2092 H 0.4934 0.33983 0.09328 0.0
H2093 H 0.45693 0.33872 0.12713 0.0
H2094 H 0.47006 0.32898 0.08212 0.0
H2095 H 0.48046 0.34928 0.13759 0.0
H2096 H 0.43363 0.34719 0.15925 0.0
H2097 H 0.41491 0.30356 0.15632 0.0
H2098 H 0.49131 0.37607 0.05321 0.0
H2099 H 0.48958 0.38347 0.10519 0.0
H2100 H 0.39849 0.29032 0.0881 0.0
H2101 H 0.41109 0.33098 0.104 0.0
H2102 H 0.37553 0.28294 0.09922 0.0
H2103 H 0.38798 0.32289 0.11484 0.0
H2104 H 0.42525 0.32736 0.0361 0.0
H2105 H 0.46087 0.32952 0.05722 0.0
H2106 H 0.4293 0.31802 0.01057 0.0
H2107 H 0.46438 0.32021 0.03129 0.0
H2108 H 0.39658 0.35204 0.06036 0.0
H2109 H 0.38695 0.31326 0.03961 0.0
H2110 H 0.44771 0.28236 0.07911 0.0
H2111 H 0.41755 0.2781 0.04368 0.0
H2112 H 0.40402 0.08802 0.32014 0.0
H2113 H 0.40104 0.08736 0.29043 0.0
H2114 H 0.44403 0.10393 0.28373 0.0
H2115 H 0.44731 0.10601 0.31326 0.0
H2116 H 0.43658 0.11554 0.26373 0.0
H2117 H 0.41821 0.06843 0.27829 0.0
H2118 H 0.40303 0.04719 0.29296 0.0
H2119 H 0.36836 0.04713 0.27218 0.0
H2120 H 0.38334 0.06846 0.25754 0.0
H2121 H 0.44036 0.09521 0.18321 0.0
H2122 H 0.43863 0.09432 0.21324 0.0
H2123 H 0.40024 0.09304 0.21022 0.0
H2124 H 0.40195 0.09405 0.18003 0.0
H2125 H 0.40297 0.07396 0.23448 0.0
H2126 H 0.42283 0.12098 0.21842 0.0
H2127 H 0.43901 0.14131 0.20294 0.0
H2128 H 0.47228 0.14034 0.22638 0.0
H2129 H 0.45627 0.11986 0.24181 0.0
C2130 C 0.41291 0.09175 0.3124 0.0
C2131 C 0.42593 0.09704 0.31928 0.0
C2132 C 0.41113 0.09113 0.29533 0.0
C2133 C 0.42227 0.09536 0.28476 0.0
C2134 C 0.43525 0.10056 0.29158 0.0
C2135 C 0.43708 0.10153 0.30859 0.0
C2136 C 0.42063 0.09476 0.26658 0.0
C2137 C 0.42929 0.10637 0.25742 0.0
C2138 C 0.41088 0.08295 0.25822 0.0
C2139 C 0.40188 0.07011 0.26697 0.0
C2140 C 0.40734 0.06393 0.27694 0.0
C2141 C 0.39878 0.05187 0.28523 0.0
C2142 C 0.38474 0.04584 0.28354 0.0
C2143 C 0.37923 0.05183 0.27351 0.0
C2144 C 0.38776 0.06389 0.2652 0.0
C2145 C 0.43144 0.09451 0.18893 0.0
C2146 C 0.4213 0.09472 0.17935 0.0
C2147 C 0.43049 0.09404 0.20604 0.0
C2148 C 0.41933 0.09365 0.21384 0.0
C2149 C 0.40891 0.09331 0.20434 0.0
C2150 C 0.40994 0.09397 0.18718 0.0
C2151 C 0.41916 0.09455 0.23193 0.0
C2152 C 0.41015 0.08308 0.24097 0.0
C2153 C 0.42872 0.10639 0.24022 0.0
C2154 C 0.43835 0.11883 0.23117 0.0
C2155 C 0.43359 0.12504 0.22018 0.0
C2156 C 0.44273 0.1366 0.21143 0.0
C2157 C 0.45666 0.1421 0.21365 0.0
C2158 C 0.46148 0.13607 0.22467 0.0
C2159 C 0.45238 0.1245 0.23343 0.0
H2160 H 0.46373 0.15104 0.20686 0.0
H2161 H 0.37812 0.0365 0.28998 0.0
H2162 H 0.33533 0.44689 0.68335 0.0
H2163 H 0.33579 0.44533 0.71326 0.0
H2164 H 0.32017 0.40224 0.70959 0.0
H2165 H 0.31951 0.40374 0.67954 0.0
H2166 H 0.30775 0.40748 0.73352 0.0
H2167 H 0.35358 0.42385 0.71859 0.0
H2168 H 0.37533 0.43843 0.70463 0.0
H2169 H 0.37941 0.47315 0.73045 0.0
H2170 H 0.35758 0.45881 0.74441 0.0
H2171 H 0.32365 0.40566 0.81908 0.0
H2172 H 0.32355 0.40374 0.78908 0.0
H2173 H 0.33277 0.44518 0.78444 0.0
H2174 H 0.33241 0.44708 0.81431 0.0
H2175 H 0.34922 0.43848 0.76489 0.0
H2176 H 0.3018 0.42124 0.77794 0.0
H2177 H 0.2803 0.40588 0.79197 0.0
H2178 H 0.27998 0.37154 0.76972 0.0
H2179 H 0.30159 0.38671 0.75574 0.0
C2180 C 0.3321 0.4371 0.68891 0.0
C2181 C 0.32749 0.42546 0.67913 0.0
C2182 C 0.33238 0.43622 0.706 0.0
C2183 C 0.32825 0.4237 0.71365 0.0
C2184 C 0.32344 0.41201 0.70393 0.0
C2185 C 0.32305 0.41287 0.6868 0.0
C2186 C 0.32879 0.42292 0.73182 0.0
C2187 C 0.31689 0.41408 0.74036 0.0
C2188 C 0.3407 0.43158 0.74076 0.0
C2189 C 0.35388 0.44026 0.73246 0.0
C2190 C 0.35907 0.43461 0.72121 0.0
C2191 C 0.37142 0.44283 0.71331 0.0
C2192 C 0.37874 0.45671 0.71663 0.0
C2193 C 0.37373 0.4624 0.72789 0.0
C2194 C 0.36137 0.45422 0.73581 0.0
C2195 C 0.32549 0.41432 0.8117 0.0
C2196 C 0.32805 0.42653 0.81915 0.0
C2197 C 0.3255 0.41322 0.79457 0.0
C2198 C 0.32815 0.42432 0.78461 0.0
C2199 C 0.3308 0.43653 0.79196 0.0
C2200 C 0.33065 0.43761 0.80905 0.0
C2201 C 0.32813 0.42331 0.76648 0.0
C2202 C 0.34015 0.43179 0.75798 0.0
C2203 C 0.31641 0.41419 0.75761 0.0
C2204 C 0.30339 0.40509 0.76595 0.0
C2205 C 0.29721 0.41041 0.77616 0.0
C2206 C 0.28499 0.40174 0.78408 0.0
C2207 C 0.2788 0.38774 0.78178 0.0
C2208 C 0.2848 0.38238 0.77151 0.0
C2209 C 0.29703 0.39101 0.76358 0.0
H2210 H 0.26934 0.38105 0.78791 0.0
H2211 H 0.3883 0.46306 0.7105 0.0
H2212 H 0.90729 0.31213 0.17803 0.0
H2213 H 0.90981 0.31207 0.20796 0.0
H2214 H 0.89374 0.33906 0.21303 0.0
H2215 H 0.89112 0.33911 0.18324 0.0
H2216 H 0.91569 0.34695 0.23221 0.0
H2217 H 0.8742 0.30532 0.22032 0.0
H2218 H 0.86029 0.28317 0.20685 0.0
H2219 H 0.88497 0.26856 0.22839 0.0
H2220 H 0.89916 0.29071 0.24181 0.0
H2221 H 0.8869 0.33554 0.31162 0.0
H2222 H 0.8901 0.33541 0.28201 0.0
H2223 H 0.91451 0.31669 0.28911 0.0
H2224 H 0.91211 0.3175 0.31895 0.0
H2225 H 0.8917 0.30423 0.26421 0.0
H2226 H 0.93156 0.34547 0.27874 0.0
H2227 H 0.94473 0.36755 0.2926 0.0
H2228 H 0.9225 0.38284 0.26631 0.0
H2229 H 0.90903 0.36076 0.2525 0.0
C2230 C 0.90422 0.31798 0.18555 0.0
C2231 C 0.899 0.32562 0.17827 0.0
C2232 C 0.9057 0.31797 0.20262 0.0
C2233 C 0.9019 0.32551 0.2127 0.0
C2234 C 0.89682 0.33323 0.20546 0.0
C2235 C 0.89535 0.33327 0.18843 0.0
C2236 C 0.90295 0.32525 0.23084 0.0
C2237 C 0.9104 0.33761 0.2392 0.0
C2238 C 0.89636 0.31303 0.23993 0.0
C2239 C 0.88784 0.29972 0.2319 0.0
C2240 C 0.87673 0.29742 0.22207 0.0
C2241 C 0.86878 0.28487 0.21446 0.0
C2242 C 0.87177 0.27448 0.21672 0.0
C2243 C 0.88269 0.27663 0.22662 0.0
C2244 C 0.89069 0.28918 0.23424 0.0
C2245 C 0.89319 0.33163 0.30702 0.0
C2246 C 0.89933 0.32662 0.3178 0.0
C2247 C 0.8949 0.33146 0.29005 0.0
C2248 C 0.90257 0.32609 0.28347 0.0
C2249 C 0.90853 0.32085 0.29404 0.0
C2250 C 0.90705 0.32124 0.31108 0.0
C2251 C 0.90416 0.32593 0.26547 0.0
C2252 C 0.89719 0.31352 0.25717 0.0
C2253 C 0.91113 0.3381 0.25642 0.0
C2254 C 0.91919 0.35141 0.2647 0.0
C2255 C 0.92938 0.35349 0.27604 0.0
C2256 C 0.93692 0.36602 0.28386 0.0
C2257 C 0.93443 0.37658 0.28037 0.0
C2258 C 0.92441 0.37464 0.26902 0.0
C2259 C 0.91682 0.36212 0.26118 0.0
H2260 H 0.94029 0.38627 0.28643 0.0
H2261 H 0.8656 0.26476 0.21083 0.0
H2262 H 0.5896 0.89446 0.67995 0.0
H2263 H 0.59283 0.89615 0.70978 0.0
H2264 H 0.56518 0.91147 0.71414 0.0
H2265 H 0.56224 0.91024 0.68427 0.0
H2266 H 0.58709 0.92514 0.73395 0.0
H2267 H 0.55466 0.87838 0.72142 0.0
H2268 H 0.54677 0.85645 0.70753 0.0
H2269 H 0.57957 0.8534 0.729 0.0
H2270 H 0.58775 0.87541 0.74285 0.0
H2271 H 0.56363 0.91024 0.81557 0.0
H2272 H 0.56638 0.91177 0.78576 0.0
H2273 H 0.59333 0.89553 0.78895 0.0
H2274 H 0.59064 0.89399 0.81893 0.0
H2275 H 0.5747 0.88317 0.76532 0.0
H2276 H 0.60576 0.92885 0.78029 0.0
H2277 H 0.61351 0.95069 0.79432 0.0
H2278 H 0.58359 0.95592 0.76849 0.0
H2279 H 0.57551 0.93401 0.75447 0.0
C2280 C 0.58437 0.89838 0.68723 0.0
C2281 C 0.57559 0.90213 0.67977 0.0
C2282 C 0.58614 0.89924 0.70428 0.0
C2283 C 0.57911 0.90378 0.71417 0.0
C2284 C 0.57066 0.9079 0.70672 0.0
C2285 C 0.56889 0.90706 0.68968 0.0
C2286 C 0.58014 0.9038 0.73233 0.0
C2287 C 0.5843 0.91596 0.74084 0.0
C2288 C 0.57687 0.89188 0.74125 0.0
C2289 C 0.5719 0.87861 0.73302 0.0
C2290 C 0.56024 0.87308 0.72308 0.0
C2291 C 0.55571 0.86063 0.71523 0.0
C2292 C 0.56269 0.85355 0.71734 0.0
C2293 C 0.57419 0.8589 0.72735 0.0
C2294 C 0.57877 0.87136 0.73521 0.0
C2295 C 0.57031 0.90719 0.80997 0.0
C2296 C 0.57697 0.90206 0.81961 0.0
C2297 C 0.57187 0.90807 0.79292 0.0
C2298 C 0.58021 0.90394 0.78516 0.0
C2299 C 0.58688 0.8988 0.79472 0.0
C2300 C 0.58529 0.89788 0.81182 0.0
C2301 C 0.58143 0.90448 0.767 0.0
C2302 C 0.57768 0.89241 0.75846 0.0
C2303 C 0.5851 0.91649 0.75807 0.0
C2304 C 0.58997 0.92972 0.76641 0.0
C2305 C 0.60076 0.93461 0.77768 0.0
C2306 C 0.60523 0.94701 0.78562 0.0
C2307 C 0.59903 0.95468 0.78232 0.0
C2308 C 0.58837 0.94997 0.77104 0.0
C2309 C 0.58386 0.93756 0.76308 0.0
H2310 H 0.6025 0.96428 0.78848 0.0
H2311 H 0.55916 0.84391 0.71126 0.0
H2312 H 0.65653 0.57936 0.31742 0.0
H2313 H 0.65736 0.5821 0.28753 0.0
H2314 H 0.69318 0.57837 0.2856 0.0
H2315 H 0.69239 0.57558 0.31549 0.0
H2316 H 0.69481 0.59801 0.26456 0.0
H2317 H 0.66277 0.55138 0.27786 0.0
H2318 H 0.64275 0.53312 0.29185 0.0
H2319 H 0.61738 0.54625 0.26881 0.0
H2320 H 0.63729 0.56472 0.25486 0.0
H2321 H 0.69292 0.57575 0.18255 0.0
H2322 H 0.69345 0.57867 0.21237 0.0
H2323 H 0.65682 0.58094 0.20985 0.0
H2324 H 0.65629 0.57813 0.17998 0.0
H2325 H 0.65516 0.56353 0.23314 0.0
H2326 H 0.68679 0.60902 0.21795 0.0
H2327 H 0.70672 0.62737 0.20397 0.0
H2328 H 0.73276 0.61673 0.23025 0.0
H2329 H 0.71296 0.59818 0.24422 0.0
C2330 C 0.6646 0.57915 0.31063 0.0
C2331 C 0.67432 0.57711 0.31878 0.0
C2332 C 0.66509 0.58076 0.29357 0.0
C2333 C 0.67523 0.58025 0.28436 0.0
C2334 C 0.68528 0.5788 0.29251 0.0
C2335 C 0.68482 0.57722 0.30958 0.0
C2336 C 0.67492 0.58041 0.26616 0.0
C2337 C 0.68621 0.59042 0.25765 0.0
C2338 C 0.66353 0.57069 0.25721 0.0
C2339 C 0.65153 0.55951 0.26546 0.0
C2340 C 0.65293 0.55043 0.27587 0.0
C2341 C 0.64161 0.54003 0.28378 0.0
C2342 C 0.62881 0.53855 0.28125 0.0
C2343 C 0.6273 0.54743 0.27077 0.0
C2344 C 0.6386 0.55786 0.26286 0.0
C2345 C 0.6851 0.57709 0.1883 0.0
C2346 C 0.67454 0.57668 0.1789 0.0
C2347 C 0.68541 0.57876 0.20535 0.0
C2348 C 0.67523 0.58013 0.2133 0.0
C2349 C 0.66477 0.57988 0.20394 0.0
C2350 C 0.66444 0.57821 0.1869 0.0
C2351 C 0.67512 0.58108 0.23146 0.0
C2352 C 0.66374 0.57123 0.23999 0.0
C2353 C 0.68641 0.59096 0.24039 0.0
C2354 C 0.69837 0.60212 0.23203 0.0
C2355 C 0.69675 0.61052 0.22065 0.0
C2356 C 0.70803 0.62097 0.21274 0.0
C2357 C 0.721 0.6232 0.21619 0.0
C2358 C 0.72271 0.61499 0.22758 0.0
C2359 C 0.71146 0.60451 0.23551 0.0
H2360 H 0.72972 0.6313 0.21006 0.0
H2361 H 0.62005 0.53049 0.28739 0.0
H2362 H 0.10372 0.66074 0.68393 0.0
H2363 H 0.10129 0.66088 0.71372 0.0
H2364 H 0.08321 0.68614 0.70865 0.0
H2365 H 0.08594 0.68628 0.67866 0.0
H2366 H 0.10037 0.69482 0.73329 0.0
H2367 H 0.06366 0.65218 0.71807 0.0
H2368 H 0.05171 0.63004 0.70408 0.0
H2369 H 0.07582 0.61691 0.73028 0.0
H2370 H 0.08807 0.63905 0.74425 0.0
H2371 H 0.0821 0.68002 0.8199 0.0
H2372 H 0.07985 0.6812 0.79005 0.0
H2373 H 0.10651 0.66507 0.7825 0.0
H2374 H 0.10939 0.66446 0.81213 0.0
H2375 H 0.08084 0.65171 0.76457 0.0
H2376 H 0.11911 0.69657 0.77691 0.0
H2377 H 0.1298 0.71869 0.79103 0.0
H2378 H 0.10015 0.72715 0.77038 0.0
H2379 H 0.08916 0.70498 0.75631 0.0
C2380 C 0.09913 0.66624 0.68916 0.0
C2381 C 0.09489 0.67339 0.67901 0.0
C2382 C 0.09771 0.66629 0.70617 0.0
C2383 C 0.09178 0.67327 0.7134 0.0
C2384 C 0.08773 0.68062 0.70332 0.0
C2385 C 0.08931 0.6807 0.68624 0.0
C2386 C 0.09016 0.67303 0.73153 0.0
C2387 C 0.09583 0.68537 0.7401 0.0
C2388 C 0.08422 0.66071 0.74046 0.0
C2389 C 0.07685 0.64732 0.73215 0.0
C2390 C 0.06648 0.64461 0.72077 0.0
C2391 C 0.05965 0.63205 0.71285 0.0
C2392 C 0.06302 0.62208 0.71627 0.0
C2393 C 0.07322 0.62465 0.72764 0.0
C2394 C 0.0801 0.63719 0.73559 0.0
C2395 C 0.08766 0.67692 0.81191 0.0
C2396 C 0.09588 0.67207 0.81848 0.0
C2397 C 0.08627 0.67751 0.79487 0.0
C2398 C 0.09297 0.67316 0.78417 0.0
C2399 C 0.10117 0.66836 0.79063 0.0
C2400 C 0.10272 0.66794 0.80759 0.0
C2401 C 0.09146 0.67346 0.76616 0.0
C2402 C 0.08514 0.66111 0.75767 0.0
C2403 C 0.09656 0.68573 0.75734 0.0
C2404 C 0.10321 0.69906 0.76574 0.0
C2405 C 0.11479 0.70309 0.77552 0.0
C2406 C 0.12092 0.71565 0.78348 0.0
C2407 C 0.11563 0.7243 0.78165 0.0
C2408 C 0.10422 0.72043 0.77181 0.0
C2409 C 0.09804 0.70788 0.76384 0.0
H2410 H 0.1204 0.73402 0.78782 0.0
H2411 H 0.05772 0.61237 0.71013 0.0
H2412 H 0.87344 0.56226 0.18419 0.0
H2413 H 0.875 0.56486 0.21407 0.0
H2414 H 0.91825 0.59131 0.21027 0.0
H2415 H 0.91675 0.5885 0.18033 0.0
H2416 H 0.91308 0.57378 0.2335 0.0
H2417 H 0.89671 0.60357 0.2204 0.0
H2418 H 0.88206 0.61113 0.20745 0.0
H2419 H 0.84764 0.58034 0.23354 0.0
H2420 H 0.86205 0.57245 0.24647 0.0
H2421 H 0.91671 0.58991 0.3195 0.0
H2422 H 0.91783 0.59263 0.28949 0.0
H2423 H 0.87622 0.56061 0.28559 0.0
H2424 H 0.87504 0.55786 0.31554 0.0
H2425 H 0.88264 0.58396 0.26654 0.0
H2426 H 0.90003 0.55355 0.27764 0.0
H2427 H 0.91561 0.54723 0.29073 0.0
H2428 H 0.94958 0.58152 0.26837 0.0
H2429 H 0.9342 0.58815 0.25534 0.0
C2430 C 0.88325 0.56878 0.18972 0.0
C2431 C 0.89497 0.5752 0.17996 0.0
C2432 C 0.88413 0.57029 0.20679 0.0
C2433 C 0.89673 0.57844 0.21442 0.0
C2434 C 0.90843 0.58499 0.20466 0.0
C2435 C 0.90757 0.58337 0.18759 0.0
C2436 C 0.89769 0.57951 0.23262 0.0
C2437 C 0.90661 0.57628 0.24069 0.0
C2438 C 0.88918 0.58265 0.24206 0.0
C2439 C 0.88045 0.58735 0.23431 0.0
C2440 C 0.886 0.59834 0.22328 0.0
C2441 C 0.87774 0.60269 0.21596 0.0
C2442 C 0.86392 0.5962 0.21964 0.0
C2443 C 0.85834 0.58535 0.23069 0.0
C2444 C 0.86655 0.58094 0.23804 0.0
C2445 C 0.90779 0.58353 0.31222 0.0
C2446 C 0.8958 0.57365 0.31979 0.0
C2447 C 0.90846 0.58505 0.29513 0.0
C2448 C 0.89712 0.57678 0.28539 0.0
C2449 C 0.88507 0.56708 0.29294 0.0
C2450 C 0.88444 0.56546 0.30999 0.0
C2451 C 0.8978 0.57798 0.26726 0.0
C2452 C 0.88921 0.58165 0.25926 0.0
C2453 C 0.90676 0.57546 0.2579 0.0
C2454 C 0.91598 0.57143 0.26568 0.0
C2455 C 0.91083 0.55981 0.27564 0.0
C2456 C 0.91962 0.55615 0.28302 0.0
C2457 C 0.93358 0.56399 0.28042 0.0
C2458 C 0.93877 0.57547 0.2704 0.0
C2459 C 0.93002 0.57918 0.263 0.0
H2460 H 0.94037 0.56114 0.28614 0.0
H2461 H 0.85755 0.59959 0.21396 0.0
H2462 H 0.32813 0.88119 0.81516 0.0
H2463 H 0.32677 0.88198 0.78522 0.0
H2464 H 0.32042 0.91617 0.78913 0.0
H2465 H 0.3214 0.91516 0.8192 0.0
H2466 H 0.30423 0.89953 0.76677 0.0
H2467 H 0.35141 0.9201 0.77738 0.0
H2468 H 0.37236 0.92248 0.78935 0.0
H2469 H 0.36576 0.88667 0.76387 0.0
H2470 H 0.34465 0.88396 0.75192 0.0
H2471 H 0.31905 0.91498 0.68039 0.0
H2472 H 0.31963 0.91632 0.71054 0.0
H2473 H 0.31949 0.87845 0.71314 0.0
H2474 H 0.31903 0.8771 0.6831 0.0
H2475 H 0.33986 0.89926 0.73198 0.0
H2476 H 0.29158 0.87906 0.7223 0.0
H2477 H 0.27138 0.87825 0.71011 0.0
H2478 H 0.28151 0.91593 0.73354 0.0
H2479 H 0.30189 0.91706 0.74569 0.0
C2480 C 0.32651 0.88892 0.80961 0.0
C2481 C 0.32497 0.89818 0.81945 0.0
C2482 C 0.32577 0.88938 0.79252 0.0
C2483 C 0.32375 0.8993 0.7849 0.0
C2484 C 0.32201 0.90846 0.79473 0.0
C2485 C 0.32258 0.90788 0.81187 0.0
C2486 C 0.32337 0.89999 0.7667 0.0
C2487 C 0.31213 0.89969 0.75917 0.0
C2488 C 0.33366 0.90015 0.75675 0.0
C2489 C 0.34638 0.90176 0.76386 0.0
C2490 C 0.35437 0.91267 0.77442 0.0
C2491 C 0.36629 0.91409 0.78119 0.0
C2492 C 0.37038 0.90472 0.7774 0.0
C2493 C 0.36258 0.89392 0.7668 0.0
C2494 C 0.35064 0.89244 0.76001 0.0
C2495 C 0.31908 0.90692 0.68743 0.0
C2496 C 0.31897 0.89592 0.67943 0.0
C2497 C 0.31935 0.90767 0.70461 0.0
C2498 C 0.31957 0.89746 0.71401 0.0
C2499 C 0.31931 0.88641 0.70606 0.0
C2500 C 0.31893 0.8856 0.68893 0.0
C2501 C 0.3206 0.89847 0.73215 0.0
C2502 C 0.33202 0.89917 0.73963 0.0
C2503 C 0.31062 0.89893 0.742 0.0
C2504 C 0.29833 0.89821 0.73476 0.0
C2505 C 0.28956 0.88723 0.72474 0.0
C2506 C 0.27807 0.8867 0.71786 0.0
C2507 C 0.27518 0.89705 0.72101 0.0
C2508 C 0.28377 0.90793 0.73109 0.0
C2509 C 0.29529 0.90851 0.73798 0.0
H2510 H 0.26628 0.89663 0.71568 0.0
H2511 H 0.37961 0.90583 0.78265 0.0
H2512 H 0.40163 0.31037 0.31876 0.0
H2513 H 0.39857 0.30884 0.28886 0.0
H2514 H 0.44017 0.34026 0.28252 0.0
H2515 H 0.44345 0.34161 0.31225 0.0
H2516 H 0.42205 0.34415 0.26348 0.0
H2517 H 0.4316 0.30815 0.27682 0.0
H2518 H 0.42729 0.28729 0.29117 0.0
H2519 H 0.38754 0.26576 0.26984 0.0
H2520 H 0.39156 0.28655 0.25553 0.0
H2521 H 0.44216 0.34115 0.18351 0.0
H2522 H 0.43906 0.34027 0.21324 0.0
H2523 H 0.39849 0.30645 0.2078 0.0
H2524 H 0.40154 0.30729 0.17783 0.0
H2525 H 0.41177 0.30242 0.23279 0.0
H2526 H 0.40287 0.33718 0.21669 0.0
H2527 H 0.40662 0.3578 0.20225 0.0
H2528 H 0.4438 0.38142 0.22873 0.0
H2529 H 0.44039 0.36091 0.24316 0.0
C2530 C 0.41017 0.31687 0.311 0.0
C2531 C 0.4228 0.32612 0.31793 0.0
C2532 C 0.40837 0.31602 0.29394 0.0
C2533 C 0.41916 0.32442 0.28353 0.0
C2534 C 0.4317 0.33375 0.29038 0.0
C2535 C 0.43353 0.33455 0.30739 0.0
C2536 C 0.41757 0.32348 0.26544 0.0
C2537 C 0.41987 0.33506 0.25674 0.0
C2538 C 0.4142 0.31144 0.25675 0.0
C2539 C 0.41182 0.29894 0.26527 0.0
C2540 C 0.4219 0.29899 0.2753 0.0
C2541 C 0.41952 0.28718 0.28341 0.0
C2542 C 0.40713 0.27522 0.28146 0.0
C2543 C 0.39712 0.27504 0.27136 0.0
C2544 C 0.39945 0.28683 0.26325 0.0
C2545 C 0.43251 0.33361 0.1886 0.0
C2546 C 0.42203 0.32439 0.17833 0.0
C2547 C 0.43076 0.33311 0.2056 0.0
C2548 C 0.41845 0.32346 0.2127 0.0
C2549 C 0.40804 0.31402 0.20254 0.0
C2550 C 0.40981 0.31449 0.18546 0.0
C2551 C 0.4167 0.32325 0.23077 0.0
C2552 C 0.41373 0.31145 0.23949 0.0
C2553 C 0.41933 0.33507 0.23951 0.0
C2554 C 0.42141 0.34748 0.23094 0.0
C2555 C 0.4119 0.34676 0.21935 0.0
C2556 C 0.41396 0.35843 0.21118 0.0
C2557 C 0.42545 0.37091 0.21455 0.0
C2558 C 0.4349 0.37175 0.22613 0.0
C2559 C 0.4329 0.3601 0.23433 0.0
H2560 H 0.42703 0.37993 0.20821 0.0
H2561 H 0.40531 0.26608 0.28774 0.0
H2562 H 0.08894 0.43678 0.68459 0.0
H2563 H 0.08756 0.4348 0.71433 0.0
H2564 H 0.10181 0.40616 0.7125 0.0
H2565 H 0.10212 0.40718 0.68247 0.0
H2566 H 0.08344 0.39861 0.73513 0.0
H2567 H 0.12315 0.44048 0.72232 0.0
H2568 H 0.1367 0.4628 0.70912 0.0
H2569 H 0.11302 0.4773 0.73361 0.0
H2570 H 0.0992 0.455 0.74679 0.0
H2571 H 0.10672 0.41146 0.81955 0.0
H2572 H 0.10558 0.40973 0.78954 0.0
H2573 H 0.08183 0.42958 0.78832 0.0
H2574 H 0.08234 0.43082 0.81832 0.0
H2575 H 0.10572 0.44119 0.76759 0.0
H2576 H 0.06615 0.39818 0.7805 0.0
H2577 H 0.05397 0.37585 0.79402 0.0
H2578 H 0.07967 0.3637 0.76977 0.0
H2579 H 0.09214 0.38604 0.75628 0.0
C2580 C 0.09149 0.42979 0.69038 0.0
C2581 C 0.09569 0.42216 0.68099 0.0
C2582 C 0.09091 0.42885 0.70749 0.0
C2583 C 0.09491 0.42059 0.71571 0.0
C2584 C 0.09879 0.4127 0.70644 0.0
C2585 C 0.09913 0.41343 0.68925 0.0
C2586 C 0.09524 0.42042 0.73397 0.0
C2587 C 0.08848 0.40792 0.74221 0.0
C2588 C 0.10173 0.43256 0.74326 0.0
C2589 C 0.11007 0.44603 0.73543 0.0
C2590 C 0.12078 0.4484 0.72481 0.0
C2591 C 0.12851 0.46105 0.71734 0.0
C2592 C 0.12571 0.47145 0.7205 0.0
C2593 C 0.11518 0.46923 0.73117 0.0
C2594 C 0.1074 0.45659 0.73865 0.0
C2595 C 0.101 0.4152 0.81297 0.0
C2596 C 0.09467 0.42134 0.82141 0.0
C2597 C 0.10043 0.41426 0.79581 0.0
C2598 C 0.09363 0.41954 0.7868 0.0
C2599 C 0.08718 0.42551 0.79512 0.0
C2600 C 0.08758 0.4263 0.81226 0.0
C2601 C 0.09379 0.41944 0.76863 0.0
C2602 C 0.10071 0.43191 0.76045 0.0
C2603 C 0.08769 0.40728 0.75945 0.0
C2604 C 0.08018 0.39384 0.76753 0.0
C2605 C 0.06929 0.39079 0.77818 0.0
C2606 C 0.06231 0.37812 0.78581 0.0
C2607 C 0.06607 0.36837 0.7828 0.0
C2608 C 0.07678 0.37126 0.77211 0.0
C2609 C 0.0838 0.38393 0.76446 0.0
H2610 H 0.06065 0.35857 0.78871 0.0
H2611 H 0.13171 0.48124 0.7147 0.0
H2612 H 0.68553 0.09149 0.31705 0.0
H2613 H 0.68605 0.08896 0.28718 0.0
H2614 H 0.65817 0.10387 0.28118 0.0
H2615 H 0.65746 0.1062 0.31099 0.0
H2616 H 0.65103 0.0828 0.26201 0.0
H2617 H 0.69278 0.12394 0.2742 0.0
H2618 H 0.71481 0.13781 0.28794 0.0
H2619 H 0.7293 0.11266 0.26747 0.0
H2620 H 0.70727 0.09853 0.25378 0.0
H2621 H 0.66455 0.11117 0.18211 0.0
H2622 H 0.66459 0.10863 0.21186 0.0
H2623 H 0.68079 0.08186 0.20627 0.0
H2624 H 0.68004 0.08361 0.1763 0.0
H2625 H 0.69422 0.10585 0.23082 0.0
H2626 H 0.65244 0.06611 0.2163 0.0
H2627 H 0.63051 0.05344 0.202 0.0
H2628 H 0.61619 0.07724 0.22658 0.0
H2629 H 0.63813 0.09022 0.24082 0.0
C2630 C 0.67958 0.09429 0.30932 0.0
C2631 C 0.67148 0.09908 0.31631 0.0
C2632 C 0.67988 0.09283 0.29228 0.0
C2633 C 0.67225 0.09634 0.28193 0.0
C2634 C 0.66409 0.10104 0.28892 0.0
C2635 C 0.6637 0.10238 0.30594 0.0
C2636 C 0.67274 0.09524 0.2638 0.0
C2637 C 0.66048 0.08789 0.25522 0.0
C2638 C 0.6851 0.1016 0.25493 0.0
C2639 C 0.69833 0.11009 0.26314 0.0
C2640 C 0.70063 0.12131 0.27274 0.0
C2641 C 0.71312 0.12922 0.2805 0.0
C2642 C 0.72343 0.12609 0.27862 0.0
C2643 C 0.72129 0.11506 0.26894 0.0
C2644 C 0.70881 0.10709 0.26118 0.0
C2645 C 0.6679 0.10452 0.18708 0.0
C2646 C 0.67215 0.09748 0.17669 0.0
C2647 C 0.66803 0.1032 0.20412 0.0
C2648 C 0.67263 0.09502 0.21114 0.0
C2649 C 0.67722 0.08823 0.20097 0.0
C2650 C 0.67686 0.08933 0.18386 0.0
C2651 C 0.67252 0.09367 0.22919 0.0
C2652 C 0.68483 0.10057 0.23771 0.0
C2653 C 0.66022 0.08702 0.23801 0.0
C2654 C 0.64699 0.07923 0.2295 0.0
C2655 C 0.64467 0.06874 0.21852 0.0
C2656 C 0.63222 0.06148 0.21046 0.0
C2657 C 0.62197 0.06455 0.21334 0.0
C2658 C 0.62414 0.07488 0.22434 0.0
C2659 C 0.63658 0.08219 0.23242 0.0
H2660 H 0.61234 0.05892 0.20709 0.0
H2661 H 0.7331 0.13224 0.28464 0.0
H2662 H 0.58387 0.65925 0.6801 0.0
H2663 H 0.5875 0.66043 0.70991 0.0
H2664 H 0.57452 0.69002 0.71372 0.0
H2665 H 0.57131 0.68916 0.68393 0.0
H2666 H 0.59512 0.69685 0.73326 0.0
H2667 H 0.55316 0.65528 0.72215 0.0
H2668 H 0.53898 0.63293 0.70922 0.0
H2669 H 0.5635 0.61833 0.73128 0.0
H2670 H 0.57792 0.64066 0.74417 0.0
H2671 H 0.56897 0.68875 0.81368 0.0
H2672 H 0.57279 0.68932 0.78411 0.0
H2673 H 0.59023 0.66363 0.79026 0.0
H2674 H 0.58676 0.66325 0.82003 0.0
H2675 H 0.57066 0.65463 0.76606 0.0
H2676 H 0.61056 0.69579 0.78044 0.0
H2677 H 0.62389 0.71807 0.79381 0.0
H2678 H 0.60246 0.73347 0.76604 0.0
H2679 H 0.58885 0.71123 0.75266 0.0
C2680 C 0.58185 0.66603 0.68734 0.0
C2681 C 0.57726 0.67408 0.67978 0.0
C2682 C 0.58391 0.66669 0.70435 0.0
C2683 C 0.58109 0.67516 0.7141 0.0
C2684 C 0.5768 0.68343 0.70646 0.0
C2685 C 0.57495 0.68293 0.68946 0.0
C2686 C 0.58213 0.67517 0.73229 0.0
C2687 C 0.5897 0.68763 0.74043 0.0
C2688 C 0.57539 0.6631 0.74166 0.0
C2689 C 0.5667 0.64967 0.73396 0.0
C2690 C 0.55558 0.64733 0.72414 0.0
C2691 C 0.54749 0.63466 0.71684 0.0
C2692 C 0.55036 0.62423 0.71938 0.0
C2693 C 0.5613 0.62643 0.72929 0.0
C2694 C 0.56943 0.63908 0.7366 0.0
C2695 C 0.57388 0.68344 0.80884 0.0
C2696 C 0.57758 0.67597 0.81926 0.0
C2697 C 0.57602 0.68376 0.79191 0.0
C2698 C 0.5819 0.67662 0.78504 0.0
C2699 C 0.58569 0.66921 0.79536 0.0
C2700 C 0.58362 0.66895 0.81234 0.0
C2701 C 0.58333 0.67633 0.76697 0.0
C2702 C 0.57624 0.66383 0.75887 0.0
C2703 C 0.59041 0.68837 0.75766 0.0
C2704 C 0.59862 0.7018 0.76562 0.0
C2705 C 0.60862 0.7039 0.77727 0.0
C2706 C 0.61624 0.71653 0.78483 0.0
C2707 C 0.61401 0.72717 0.7808 0.0
C2708 C 0.60417 0.72522 0.76916 0.0
C2709 C 0.59652 0.7126 0.76156 0.0
H2710 H 0.61992 0.73694 0.78667 0.0
H2711 H 0.54409 0.61443 0.71372 0.0
H2712 H 0.42128 0.16897 0.08251 0.0
H2713 H 0.41832 0.18787 0.07445 0.0
H2714 H 0.43328 0.18739 0.02581 0.0
H2715 H 0.43684 0.1687 0.03408 0.0
H2716 H 0.44517 0.21227 0.03731 0.0
H2717 H 0.39976 0.17794 0.03143 0.0
H2718 H 0.37821 0.15739 0.03823 0.0
H2719 H 0.37409 0.17688 0.08128 0.0
H2720 H 0.39572 0.19749 0.07491 0.0
H2721 H 0.43298 0.26881 0.03006 0.0
H2722 H 0.42982 0.24633 0.02337 0.0
H2723 H 0.42319 0.23548 0.07477 0.0
H2724 H 0.42651 0.25784 0.08148 0.0
H2725 H 0.40438 0.21496 0.05227 0.0
H2726 H 0.45317 0.24639 0.06043 0.0
H2727 H 0.47476 0.26678 0.05319 0.0
H2728 H 0.47159 0.25199 0.00384 0.0
H2729 H 0.44987 0.23158 0.01077 0.0
C2730 C 0.42399 0.1729 0.0701 0.0
C2731 C 0.42942 0.16743 0.05898 0.0
C2732 C 0.42208 0.18357 0.06541 0.0
C2733 C 0.42535 0.18889 0.04942 0.0
C2734 C 0.43058 0.18334 0.03816 0.0
C2735 C 0.43255 0.17265 0.04288 0.0
C2736 C 0.42433 0.201 0.04521 0.0
C2737 C 0.43611 0.21274 0.04009 0.0
C2738 C 0.41251 0.20163 0.04878 0.0
C2739 C 0.39941 0.18928 0.05269 0.0
C2740 C 0.39431 0.17783 0.0424 0.0
C2741 C 0.38206 0.16616 0.04618 0.0
C2742 C 0.37479 0.16583 0.06018 0.0
C2743 C 0.37973 0.17716 0.07042 0.0
C2744 C 0.39198 0.18885 0.06671 0.0
C2745 C 0.43076 0.26154 0.03985 0.0
C2746 C 0.4301 0.26501 0.05628 0.0
C2747 C 0.42895 0.24877 0.03603 0.0
C2748 C 0.42625 0.23931 0.0486 0.0
C2749 C 0.4252 0.24265 0.06492 0.0
C2750 C 0.42721 0.25543 0.06875 0.0
C2751 C 0.42536 0.22617 0.04522 0.0
C2752 C 0.41323 0.21428 0.0489 0.0
C2753 C 0.43678 0.22536 0.04015 0.0
C2754 C 0.44983 0.23758 0.03604 0.0
C2755 C 0.45702 0.24755 0.048 0.0
C2756 C 0.46929 0.25909 0.04396 0.0
C2757 C 0.47452 0.2607 0.02804 0.0
C2758 C 0.46751 0.25075 0.01615 0.0
C2759 C 0.45522 0.2392 0.02012 0.0
H2760 H 0.48402 0.26964 0.02494 0.0
H2761 H 0.36531 0.15678 0.06308 0.0
H2762 H 0.17719 0.44358 0.58479 0.0
H2763 H 0.19831 0.44409 0.57776 0.0
H2764 H 0.18286 0.42894 0.52921 0.0
H2765 H 0.16167 0.42862 0.53613 0.0
H2766 H 0.1954 0.41526 0.5486 0.0
H2767 H 0.20462 0.45827 0.52798 0.0
H2768 H 0.20494 0.48004 0.52894 0.0
H2769 H 0.23117 0.49212 0.57106 0.0
H2770 H 0.23084 0.47032 0.57052 0.0
H2771 H 0.26229 0.42529 0.53691 0.0
H2772 H 0.24125 0.4254 0.53086 0.0
H2773 H 0.24722 0.44967 0.5742 0.0
H2774 H 0.26816 0.44969 0.58017 0.0
H2775 H 0.23899 0.45874 0.54933 0.0
H2776 H 0.22597 0.41487 0.57372 0.0
H2777 H 0.22498 0.39276 0.57498 0.0
H2778 H 0.20552 0.38211 0.52774 0.0
H2779 H 0.20655 0.40424 0.52612 0.0
C2780 C 0.1783 0.44034 0.57264 0.0
C2781 C 0.16787 0.43604 0.56099 0.0
C2782 C 0.19034 0.44068 0.56862 0.0
C2783 C 0.19209 0.43661 0.55296 0.0
C2784 C 0.18164 0.43215 0.54133 0.0
C2785 C 0.16963 0.43202 0.54526 0.0
C2786 C 0.20491 0.437 0.54911 0.0
C2787 C 0.20494 0.42474 0.54828 0.0
C2788 C 0.21727 0.44941 0.54897 0.0
C2789 C 0.21764 0.46262 0.54925 0.0
C2790 C 0.21038 0.46552 0.53752 0.0
C2791 C 0.21058 0.47788 0.53798 0.0
C2792 C 0.21806 0.48745 0.55006 0.0
C2793 C 0.22539 0.4847 0.5617 0.0
C2794 C 0.22521 0.47235 0.56131 0.0
C2795 C 0.25908 0.43066 0.54509 0.0
C2796 C 0.26684 0.4375 0.559 0.0
C2797 C 0.24711 0.43073 0.54162 0.0
C2798 C 0.24265 0.43749 0.55213 0.0
C2799 C 0.25053 0.44449 0.56585 0.0
C2800 C 0.2625 0.4445 0.56925 0.0
C2801 C 0.22956 0.43696 0.54948 0.0
C2802 C 0.22946 0.44923 0.5491 0.0
C2803 C 0.21715 0.42455 0.54871 0.0
C2804 C 0.2165 0.41126 0.5497 0.0
C2805 C 0.22158 0.40785 0.56355 0.0
C2806 C 0.22099 0.39531 0.56434 0.0
C2807 C 0.21524 0.38606 0.55142 0.0
C2808 C 0.21001 0.3893 0.53771 0.0
C2809 C 0.21059 0.40184 0.53685 0.0
H2810 H 0.21479 0.37635 0.55206 0.0
H2811 H 0.21819 0.49702 0.5504 0.0
H2812 H 0.81846 0.276 0.04166 0.0
H2813 H 0.79743 0.25503 0.03558 0.0
H2814 H 0.81522 0.2317 0.05308 0.0
H2815 H 0.83616 0.25259 0.05963 0.0
H2816 H 0.79802 0.22036 0.02466 0.0
H2817 H 0.79806 0.23749 0.07908 0.0
H2818 H 0.80082 0.25509 0.09888 0.0
H2819 H 0.7691 0.25846 0.07479 0.0
H2820 H 0.76632 0.24102 0.05466 0.0
H2821 H 0.74236 0.15954 0.05498 0.0
H2822 H 0.76336 0.18046 0.04895 0.0
H2823 H 0.74062 0.20048 0.03813 0.0
H2824 H 0.71951 0.17952 0.04412 0.0
H2825 H 0.75991 0.21427 0.0601 0.0
H2826 H 0.75776 0.19444 0.00777 0.0
H2827 H 0.75523 0.17673 0.9883 0.0
H2828 H 0.79066 0.17797 0.00843 0.0
H2829 H 0.79329 0.19555 0.0282 0.0
C2830 C 0.81793 0.26642 0.04413 0.0
C2831 C 0.82891 0.26597 0.05138 0.0
C2832 C 0.80597 0.25446 0.04051 0.0
C2833 C 0.80479 0.24187 0.04402 0.0
C2834 C 0.81599 0.24135 0.05022 0.0
C2835 C 0.82795 0.25331 0.05395 0.0
C2836 C 0.79145 0.22937 0.04311 0.0
C2837 C 0.78967 0.21895 0.03242 0.0
C2838 C 0.78056 0.22771 0.05306 0.0
C2839 C 0.7821 0.23808 0.06525 0.0
C2840 C 0.79176 0.24207 0.07792 0.0
C2841 C 0.79331 0.252 0.08921 0.0
C2842 C 0.78517 0.25792 0.08806 0.0
C2843 C 0.77542 0.25389 0.07564 0.0
C2844 C 0.77385 0.24398 0.06429 0.0
C2845 C 0.74179 0.16829 0.05091 0.0
C2846 C 0.72929 0.16791 0.05012 0.0
C2847 C 0.75382 0.18025 0.04745 0.0
C2848 C 0.75355 0.19201 0.043 0.0
C2849 C 0.74104 0.19151 0.04156 0.0
C2850 C 0.72901 0.17956 0.04506 0.0
C2851 C 0.76635 0.20511 0.04162 0.0
C2852 C 0.76811 0.21568 0.05205 0.0
C2853 C 0.77719 0.20682 0.03145 0.0
C2854 C 0.77566 0.19625 0.01957 0.0
C2855 C 0.76495 0.19086 0.00815 0.0
C2856 C 0.76351 0.18086 0.99704 0.0
C2857 C 0.77276 0.17621 0.99715 0.0
C2858 C 0.78349 0.18158 0.00836 0.0
C2859 C 0.78497 0.19158 0.01951 0.0
H2860 H 0.77163 0.16847 0.98854 0.0
H2861 H 0.78638 0.26561 0.09682 0.0
H2862 H 0.5471 0.72995 0.57999 0.0
H2863 H 0.54717 0.75073 0.5724 0.0
H2864 H 0.57184 0.75525 0.52996 0.0
H2865 H 0.57174 0.7343 0.53753 0.0
H2866 H 0.58161 0.77884 0.5495 0.0
H2867 H 0.54132 0.74788 0.52221 0.0
H2868 H 0.51923 0.72714 0.51841 0.0
H2869 H 0.50234 0.73931 0.55759 0.0
H2870 H 0.5244 0.76003 0.56182 0.0
H2871 H 0.57369 0.83736 0.53698 0.0
H2872 H 0.57283 0.81593 0.52996 0.0
H2873 H 0.54896 0.7974 0.57347 0.0
H2874 H 0.54989 0.81871 0.58055 0.0
H2875 H 0.53937 0.78108 0.54462 0.0
H2876 H 0.58116 0.80881 0.57541 0.0
H2877 H 0.60338 0.8293 0.5798 0.0
H2878 H 0.61737 0.82287 0.53344 0.0
H2879 H 0.59513 0.80242 0.52868 0.0
C2880 C 0.55249 0.73536 0.56901 0.0
C2881 C 0.55944 0.73061 0.55935 0.0
C2882 C 0.55244 0.74714 0.56462 0.0
C2883 C 0.5594 0.75441 0.55054 0.0
C2884 C 0.56634 0.74969 0.5408 0.0
C2885 C 0.56625 0.73776 0.54509 0.0
C2886 C 0.55991 0.76733 0.54679 0.0
C2887 C 0.57243 0.77935 0.54792 0.0
C2888 C 0.5479 0.76794 0.54486 0.0
C2889 C 0.53456 0.7555 0.54238 0.0
C2890 C 0.53293 0.74609 0.53011 0.0
C2891 C 0.5204 0.73434 0.52786 0.0
C2892 C 0.50939 0.7319 0.53776 0.0
C2893 C 0.51088 0.74122 0.54992 0.0
C2894 C 0.52339 0.75299 0.55223 0.0
C2895 C 0.56818 0.82864 0.54492 0.0
C2896 C 0.56195 0.82962 0.55936 0.0
C2897 C 0.56771 0.81647 0.54092 0.0
C2898 C 0.56083 0.80515 0.55122 0.0
C2899 C 0.55426 0.80604 0.56535 0.0
C2900 C 0.55489 0.8182 0.56946 0.0
C2901 C 0.56098 0.79249 0.548 0.0
C2902 C 0.54859 0.78055 0.5456 0.0
C2903 C 0.5731 0.79196 0.54871 0.0
C2904 C 0.58644 0.80422 0.55158 0.0
C2905 C 0.58893 0.81185 0.56608 0.0
C2906 C 0.60153 0.82343 0.56866 0.0
C2907 C 0.61176 0.82741 0.55688 0.0
C2908 C 0.60942 0.81979 0.54253 0.0
C2909 C 0.59682 0.80821 0.53989 0.0
H2910 H 0.62152 0.83638 0.5589 0.0
H2911 H 0.4997 0.7228 0.536 0.0
H2912 H 0.71785 0.53855 0.0434 0.0
H2913 H 0.73831 0.53756 0.03714 0.0
H2914 H 0.76272 0.58052 0.04587 0.0
H2915 H 0.74235 0.58159 0.05238 0.0
H2916 H 0.77279 0.57103 0.02015 0.0
H2917 H 0.75775 0.56103 0.07658 0.0
H2918 H 0.7409 0.54899 0.09838 0.0
H2919 H 0.73629 0.51111 0.08186 0.0
H2920 H 0.75296 0.52294 0.05974 0.0
H2921 H 0.83421 0.57999 0.05392 0.0
H2922 H 0.8131 0.57922 0.04652 0.0
H2923 H 0.79336 0.53576 0.04164 0.0
H2924 H 0.81454 0.53645 0.04878 0.0
H2925 H 0.78 0.54368 0.06221 0.0
H2926 H 0.79843 0.55502 0.00809 0.0
H2927 H 0.81563 0.56784 0.98692 0.0
H2928 H 0.81467 0.60391 -0.00032 0.0
H2929 H 0.79761 0.59136 0.02111 0.0
C2930 C 0.72756 0.54782 0.04378 0.0
C2931 C 0.72852 0.5601 0.04868 0.0
C2932 C 0.73921 0.54725 0.04007 0.0
C2933 C 0.75199 0.55894 0.04125 0.0
C2934 C 0.75292 0.57141 0.04485 0.0
C2935 C 0.74127 0.57199 0.04858 0.0
C2936 C 0.76436 0.55785 0.04109 0.0
C2937 C 0.77443 0.56509 0.02933 0.0
C2938 C 0.76635 0.54995 0.05298 0.0
C2939 C 0.75647 0.54284 0.06639 0.0
C2940 C 0.75306 0.55012 0.07751 0.0
C2941 C 0.74355 0.54334 0.08993 0.0
C2942 C 0.7375 0.52929 0.09147 0.0
C2943 C 0.74097 0.522 0.08062 0.0
C2944 C 0.75045 0.52873 0.06814 0.0
C2945 C 0.82548 0.57029 0.05086 0.0
C2946 C 0.82603 0.55826 0.05204 0.0
C2947 C 0.81343 0.56988 0.04662 0.0
C2948 C 0.80171 0.55744 0.04343 0.0
C2949 C 0.80231 0.54546 0.04405 0.0
C2950 C 0.81438 0.54586 0.04825 0.0
C2951 C 0.78855 0.55686 0.04125 0.0
C2952 C 0.77832 0.54939 0.05274 0.0
C2953 C 0.78653 0.56465 0.0292 0.0
C2954 C 0.7968 0.57226 0.0163 0.0
C2955 C 0.80196 0.56571 0.00648 0.0
C2956 C 0.81168 0.57293 0.99441 0.0
C2957 C 0.81626 0.58669 0.99198 0.0
C2958 C 0.81112 0.59325 0.00159 0.0
C2959 C 0.80141 0.58609 0.01368 0.0
H2960 H 0.82378 0.59225 0.98262 0.0
H2961 H 0.73014 0.52405 0.1011 0.0
H2962 H 0.25468 0.84228 0.54819 0.0
H2963 H 0.23286 0.82276 0.54099 0.0
H2964 H 0.24997 0.79663 0.54542 0.0
H2965 H 0.27204 0.8162 0.55177 0.0
H2966 H 0.23115 0.78808 0.52102 0.0
H2967 H 0.23475 0.80229 0.57819 0.0
H2968 H 0.23871 0.8188 0.60016 0.0
H2969 H 0.20612 0.82368 0.58164 0.0
H2970 H 0.20209 0.80731 0.55942 0.0
H2971 H 0.17916 0.72559 0.55103 0.0
H2972 H 0.1991 0.74711 0.54411 0.0
H2973 H 0.17492 0.76658 0.54434 0.0
H2974 H 0.15511 0.74527 0.55238 0.0
H2975 H 0.1959 0.78011 0.56237 0.0
H2976 H 0.18957 0.76232 0.5081 0.0
H2977 H 0.18561 0.74552 0.48653 0.0
H2978 H 0.22283 0.74692 0.49928 0.0
H2979 H 0.22694 0.76359 0.52109 0.0
C2980 C 0.25394 0.83246 0.54715 0.0
C2981 C 0.26508 0.83077 0.55081 0.0
C2982 C 0.24142 0.82129 0.54314 0.0
C2983 C 0.23975 0.80823 0.543 0.0
C2984 C 0.25103 0.80662 0.54556 0.0
C2985 C 0.26359 0.81779 0.5494 0.0
C2986 C 0.22607 0.79613 0.54206 0.0
C2987 C 0.22341 0.78627 0.53003 0.0
C2988 C 0.21589 0.79399 0.5536 0.0
C2989 C 0.21823 0.80371 0.56705 0.0
C2990 C 0.22849 0.80695 0.57875 0.0
C2991 C 0.23074 0.81627 0.59125 0.0
C2992 C 0.2227 0.82232 0.59227 0.0
C2993 C 0.21236 0.81901 0.58082 0.0
C2994 C 0.21008 0.80971 0.56827 0.0
C2995 C 0.17806 0.73443 0.54961 0.0
C2996 C 0.16555 0.73371 0.55249 0.0
C2997 C 0.18944 0.74671 0.54534 0.0
C2998 C 0.1885 0.75846 0.54353 0.0
C2999 C 0.17588 0.75763 0.54562 0.0
C3000 C 0.16453 0.74539 0.5501 0.0
C3001 C 0.20093 0.77182 0.54144 0.0
C3002 C 0.20343 0.78195 0.55302 0.0
C3003 C 0.21091 0.77415 0.52949 0.0
C3004 C 0.20852 0.76417 0.51631 0.0
C3005 C 0.19687 0.75899 0.50638 0.0
C3006 C 0.1946 0.74949 0.4941 0.0
C3007 C 0.20395 0.74514 0.49155 0.0
C3008 C 0.2156 0.7503 0.50127 0.0
C3009 C 0.21791 0.75979 0.51358 0.0
H3010 H 0.20218 0.73779 0.48204 0.0
H3011 H 0.22445 0.82954 0.60195 0.0
H3012 H 0.83765 0.58431 0.44197 0.0
H3013 H 0.81604 0.58314 0.44798 0.0
H3014 H 0.79728 0.53998 0.45532 0.0
H3015 H 0.81886 0.54108 0.44925 0.0
H3016 H 0.78412 0.54736 0.43255 0.0
H3017 H 0.80101 0.55912 0.48739 0.0
H3018 H 0.81758 0.57238 0.50898 0.0
H3019 H 0.81584 0.60779 0.49494 0.0
H3020 H 0.7994 0.5948 0.47308 0.0
H3021 H 0.72044 0.53952 0.44912 0.0
H3022 H 0.74138 0.5394 0.45525 0.0
H3023 H 0.76431 0.58272 0.44849 0.0
H3024 H 0.74342 0.58292 0.44227 0.0
H3025 H 0.77471 0.57383 0.47367 0.0
H3026 H 0.7609 0.56361 0.41708 0.0
H3027 H 0.74485 0.55128 0.39462 0.0
H3028 H 0.74176 0.51401 0.41098 0.0
H3029 H 0.75764 0.5261 0.43372 0.0
C3030 C 0.82894 0.57461 0.44507 0.0
C3031 C 0.82987 0.56277 0.44509 0.0
C3032 C 0.81666 0.57397 0.44863 0.0
C3033 C 0.80512 0.56148 0.45218 0.0
C3034 C 0.80612 0.54971 0.45269 0.0
C3035 C 0.81843 0.55036 0.44929 0.0
C3036 C 0.79177 0.56055 0.45362 0.0
C3037 C 0.78194 0.55289 0.44179 0.0
C3038 C 0.78916 0.56814 0.46535 0.0
C3039 C 0.79904 0.576 0.47849 0.0
C3040 C 0.80424 0.56977 0.4888 0.0
C3041 C 0.8136 0.57723 0.50111 0.0
C3042 C 0.81779 0.59093 0.5033 0.0
C3043 C 0.8126 0.59718 0.49321 0.0
C3044 C 0.80325 0.58977 0.48087 0.0
C3045 C 0.72993 0.54904 0.44912 0.0
C3046 C 0.73034 0.5612 0.44495 0.0
C3047 C 0.74185 0.54896 0.45272 0.0
C3048 C 0.75437 0.56102 0.4521 0.0
C3049 C 0.75473 0.57331 0.44906 0.0
C3050 C 0.7428 0.5734 0.44549 0.0
C3051 C 0.76711 0.56061 0.45263 0.0
C3052 C 0.77683 0.5681 0.46467 0.0
C3053 C 0.76975 0.553 0.44097 0.0
C3054 C 0.76032 0.54572 0.42721 0.0
C3055 C 0.75671 0.55276 0.41596 0.0
C3056 C 0.74766 0.54583 0.40317 0.0
C3057 C 0.74226 0.53187 0.4014 0.0
C3058 C 0.74593 0.52482 0.41239 0.0
C3059 C 0.75496 0.53171 0.42523 0.0
H3060 H 0.73526 0.52651 0.39149 0.0
H3061 H 0.82503 0.59668 0.51284 0.0
H3062 H 0.15606 0.74516 0.92344 0.0
H3063 H 0.17571 0.76759 0.92819 0.0
H3064 H 0.19377 0.74981 0.95859 0.0
H3065 H 0.17395 0.72732 0.95413 0.0
H3066 H 0.19923 0.77457 0.97038 0.0
H3067 H 0.202 0.75543 0.91892 0.0
H3068 H 0.19382 0.74471 0.89179 0.0
H3069 H 0.19138 0.77924 0.87539 0.0
H3070 H 0.19934 0.79008 0.90253 0.0
H3071 H 0.26917 0.8236 0.95491 0.0
H3072 H 0.24679 0.80367 0.95909 0.0
H3073 H 0.22867 0.82228 0.93032 0.0
H3074 H 0.25094 0.84229 0.92628 0.0
H3075 H 0.22286 0.79746 0.91876 0.0
H3076 H 0.22218 0.81735 0.97049 0.0
H3077 H 0.23095 0.82766 0.99765 0.0
H3078 H 0.23062 0.79156 0.01354 0.0
H3079 H 0.22203 0.7811 0.98638 0.0
C3080 C 0.16417 0.74608 0.93127 0.0
C3081 C 0.16365 0.73455 0.93821 0.0
C3082 C 0.17534 0.75887 0.93402 0.0
C3083 C 0.18627 0.76029 0.94348 0.0
C3084 C 0.18543 0.74889 0.95123 0.0
C3085 C 0.17416 0.73608 0.94864 0.0
C3086 C 0.19905 0.77342 0.94391 0.0
C3087 C 0.20449 0.77956 0.95913 0.0
C3088 C 0.20579 0.77993 0.92919 0.0
C3089 C 0.20113 0.7735 0.9128 0.0
C3090 C 0.19963 0.76069 0.90956 0.0
C3091 C 0.19504 0.7546 0.89419 0.0
C3092 C 0.19205 0.76127 0.88189 0.0
C3093 C 0.19368 0.77407 0.88494 0.0
C3094 C 0.19823 0.7802 0.90031 0.0
C3095 C 0.26037 0.82358 0.94982 0.0
C3096 C 0.26181 0.83441 0.94007 0.0
C3097 C 0.24761 0.8122 0.95224 0.0
C3098 C 0.23612 0.81154 0.94501 0.0
C3099 C 0.23745 0.82261 0.93595 0.0
C3100 C 0.25018 0.83397 0.93356 0.0
C3101 C 0.22301 0.79876 0.94521 0.0
C3102 C 0.21756 0.79259 0.93004 0.0
C3103 C 0.21642 0.79222 0.95998 0.0
C3104 C 0.22158 0.79849 0.97633 0.0
C3105 C 0.2241 0.81165 0.97972 0.0
C3106 C 0.22901 0.81751 0.99513 0.0
C3107 C 0.23137 0.81028 0.0073 0.0
C3108 C 0.2288 0.79716 0.00409 0.0
C3109 C 0.22389 0.79125 0.9887 0.0
H3110 H 0.23518 0.81484 0.01922 0.0
H3111 H 0.1885 0.75654 0.86999 0.0
H3112 H 0.44824 0.17655 0.45049 0.0
H3113 H 0.44535 0.19613 0.45537 0.0
H3114 H 0.40755 0.17654 0.42878 0.0
H3115 H 0.41017 0.1568 0.42418 0.0
H3116 H 0.42575 0.20176 0.41674 0.0
H3117 H 0.40681 0.18118 0.4685 0.0
H3118 H 0.40587 0.17057 0.49527 0.0
H3119 H 0.44148 0.2068 0.51116 0.0
H3120 H 0.44275 0.21757 0.48438 0.0
H3121 H 0.40917 0.25249 0.426 0.0
H3122 H 0.40712 0.23035 0.43047 0.0
H3123 H 0.44569 0.2494 0.4554 0.0
H3124 H 0.44789 0.27166 0.45083 0.0
H3125 H 0.42607 0.22399 0.46941 0.0
H3126 H 0.44614 0.24364 0.4171 0.0
H3127 H 0.4473 0.25449 0.39044 0.0
H3128 H 0.40984 0.21977 0.37564 0.0
H3129 H 0.40835 0.20881 0.40236 0.0
C3130 C 0.43915 0.17627 0.44603 0.0
C3131 C 0.42952 0.1652 0.43676 0.0
C3132 C 0.43752 0.18746 0.44883 0.0
C3133 C 0.42624 0.18773 0.44242 0.0
C3134 C 0.41634 0.17649 0.43376 0.0
C3135 C 0.41792 0.16529 0.43104 0.0
C3136 C 0.42548 0.20027 0.44319 0.0
C3137 C 0.42556 0.20648 0.42827 0.0
C3138 C 0.42565 0.20659 0.45825 0.0
C3139 C 0.42496 0.20013 0.47435 0.0
C3140 C 0.41452 0.18684 0.47764 0.0
C3141 C 0.41391 0.18081 0.49283 0.0
C3142 C 0.42363 0.18799 0.50489 0.0
C3143 C 0.43397 0.20124 0.50179 0.0
C3144 C 0.43463 0.20732 0.48661 0.0
C3145 C 0.41717 0.25196 0.43255 0.0
C3146 C 0.42881 0.2638 0.43779 0.0
C3147 C 0.41592 0.23931 0.43521 0.0
C3148 C 0.42633 0.23831 0.44308 0.0
C3149 C 0.43755 0.25001 0.44933 0.0
C3150 C 0.4388 0.2627 0.44668 0.0
C3151 C 0.42623 0.22532 0.44298 0.0
C3152 C 0.42611 0.21914 0.45795 0.0
C3153 C 0.4261 0.21899 0.42796 0.0
C3154 C 0.42706 0.22547 0.4118 0.0
C3155 C 0.4381 0.23837 0.40821 0.0
C3156 C 0.43882 0.24453 0.39309 0.0
C3157 C 0.42863 0.23784 0.38137 0.0
C3158 C 0.41771 0.22495 0.38474 0.0
C3159 C 0.41693 0.21876 0.39987 0.0
H3160 H 0.42921 0.24262 0.36966 0.0
H3161 H 0.42314 0.18331 0.51665 0.0
H3162 H 0.2619 0.42555 0.9619 0.0
H3163 H 0.24151 0.4267 0.96875 0.0
H3164 H 0.24488 0.44702 0.92271 0.0
H3165 H 0.26522 0.44599 0.91589 0.0
H3166 H 0.23944 0.45892 0.94946 0.0
H3167 H 0.22354 0.41399 0.92598 0.0
H3168 H 0.22149 0.39141 0.92521 0.0
H3169 H 0.20409 0.38288 0.97364 0.0
H3170 H 0.20621 0.40551 0.97477 0.0
H3171 H 0.17798 0.44915 0.92059 0.0
H3172 H 0.19921 0.44976 0.92634 0.0
H3173 H 0.1823 0.427 0.97099 0.0
H3174 H 0.16089 0.42646 0.96539 0.0
H3175 H 0.19488 0.41664 0.95279 0.0
H3176 H 0.20646 0.45973 0.97389 0.0
H3177 H 0.20815 0.48215 0.97464 0.0
H3178 H 0.23359 0.49433 0.9318 0.0
H3179 H 0.23189 0.47192 0.93062 0.0
C3180 C 0.25831 0.43035 0.95333 0.0
C3181 C 0.26504 0.43561 0.93832 0.0
C3182 C 0.24668 0.43096 0.95723 0.0
C3183 C 0.24171 0.43691 0.9462 0.0
C3184 C 0.24859 0.4424 0.93139 0.0
C3185 C 0.26012 0.4417 0.92744 0.0
C3186 C 0.2291 0.43713 0.94964 0.0
C3187 C 0.22968 0.4497 0.95021 0.0
C3188 C 0.21647 0.42507 0.95126 0.0
C3189 C 0.2152 0.41149 0.95056 0.0
C3190 C 0.2194 0.40735 0.93653 0.0
C3191 C 0.2182 0.39453 0.93601 0.0
C3192 C 0.21271 0.38573 0.94939 0.0
C3193 C 0.20837 0.38972 0.9633 0.0
C3194 C 0.20957 0.40253 0.96389 0.0
C3195 C 0.17883 0.44451 0.93183 0.0
C3196 C 0.16778 0.43785 0.9426 0.0
C3197 C 0.19098 0.44485 0.93509 0.0
C3198 C 0.1924 0.4386 0.94922 0.0
C3199 C 0.18142 0.43194 0.96005 0.0
C3200 C 0.1692 0.4316 0.9568 0.0
C3201 C 0.20515 0.43845 0.95191 0.0
C3202 C 0.20463 0.4259 0.95252 0.0
C3203 C 0.21786 0.45053 0.95147 0.0
C3204 C 0.219 0.4641 0.95214 0.0
C3205 C 0.21235 0.46715 0.96456 0.0
C3206 C 0.21332 0.47987 0.96507 0.0
C3207 C 0.22096 0.48965 0.95327 0.0
C3208 C 0.22767 0.48675 0.94094 0.0
C3209 C 0.22673 0.47404 0.94036 0.0
H3210 H 0.2217 0.49949 0.95368 0.0
H3211 H 0.21179 0.37581 0.94897 0.0
H3212 H 0.72114 0.17638 0.45413 0.0
H3213 H 0.74197 0.1975 0.46068 0.0
H3214 H 0.76567 0.17944 0.44536 0.0
H3215 H 0.74482 0.15815 0.43948 0.0
H3216 H 0.77827 0.19706 0.4697 0.0
H3217 H 0.75711 0.1969 0.4182 0.0
H3218 H 0.73823 0.19418 0.4007 0.0
H3219 H 0.73681 0.22608 0.42712 0.0
H3220 H 0.75556 0.22884 0.44496 0.0
H3221 H 0.8361 0.252 0.4326 0.0
H3222 H 0.81546 0.23108 0.44005 0.0
H3223 H 0.79784 0.2544 0.45827 0.0
H3224 H 0.81838 0.27537 0.45055 0.0
H3225 H 0.78169 0.23509 0.43627 0.0
H3226 H 0.80631 0.23728 0.48489 0.0
H3227 H 0.8258 0.23965 0.50079 0.0
H3228 H 0.82175 0.20385 0.47789 0.0
H3229 H 0.80235 0.20137 0.46166 0.0
C3230 C 0.73082 0.17688 0.45256 0.0
C3231 C 0.73148 0.1658 0.44614 0.0
C3232 C 0.74268 0.1889 0.45627 0.0
C3233 C 0.75536 0.19012 0.45312 0.0
C3234 C 0.75599 0.17872 0.44784 0.0
C3235 C 0.74411 0.1666 0.44444 0.0
C3236 C 0.7678 0.20358 0.45331 0.0
C3237 C 0.77906 0.20538 0.46239 0.0
C3238 C 0.76875 0.21448 0.44389 0.0
C3239 C 0.75762 0.21297 0.43302 0.0
C3240 C 0.75272 0.20328 0.42033 0.0
C3241 C 0.74205 0.20173 0.41035 0.0
C3242 C 0.7363 0.20992 0.41283 0.0
C3243 C 0.74125 0.21972 0.42525 0.0
C3244 C 0.7519 0.22128 0.4353 0.0
C3245 C 0.82785 0.25266 0.43827 0.0
C3246 C 0.82879 0.26529 0.4409 0.0
C3247 C 0.81614 0.24072 0.4427 0.0
C3248 C 0.8052 0.24122 0.44985 0.0
C3249 C 0.80624 0.25383 0.45286 0.0
C3250 C 0.81797 0.26578 0.4485 0.0
C3251 C 0.79222 0.22858 0.45259 0.0
C3252 C 0.78086 0.22689 0.44391 0.0
C3253 C 0.7913 0.21778 0.46215 0.0
C3254 C 0.80292 0.21919 0.47197 0.0
C3255 C 0.80963 0.22997 0.48315 0.0
C3256 C 0.82066 0.23132 0.49224 0.0
C3257 C 0.82502 0.22192 0.49033 0.0
C3258 C 0.81836 0.21113 0.47935 0.0
C3259 C 0.80733 0.20973 0.47022 0.0
H3260 H 0.83356 0.22299 0.49738 0.0
H3261 H 0.72804 0.20871 0.40509 0.0
H3262 H 0.5394 0.72312 0.95174 0.0
H3263 H 0.54055 0.74468 0.95771 0.0
H3264 H 0.58366 0.76581 0.9492 0.0
H3265 H 0.58259 0.74425 0.94308 0.0
H3266 H 0.57561 0.77762 0.97453 0.0
H3267 H 0.56503 0.76276 0.91839 0.0
H3268 H 0.55245 0.74637 0.89633 0.0
H3269 H 0.5156 0.74451 0.91209 0.0
H3270 H 0.52794 0.76071 0.93446 0.0
H3271 H 0.58488 0.8405 0.94231 0.0
H3272 H 0.58462 0.81946 0.9491 0.0
H3273 H 0.54127 0.79918 0.95542 0.0
H3274 H 0.54146 0.8202 0.94891 0.0
H3275 H 0.54926 0.78679 0.93301 0.0
H3276 H 0.56108 0.804 0.9879 0.0
H3277 H 0.57441 0.8207 0.00935 0.0
H3278 H 0.60982 0.81904 0.99509 0.0
H3279 H 0.59675 0.80248 0.97338 0.0
C3280 C 0.54915 0.73233 0.95138 0.0
C3281 C 0.56086 0.73204 0.94665 0.0
C3282 C 0.54981 0.74462 0.95491 0.0
C3283 C 0.56216 0.75681 0.95365 0.0
C3284 C 0.57405 0.75648 0.95024 0.0
C3285 C 0.57341 0.74416 0.94673 0.0
C3286 C 0.5623 0.76984 0.9536 0.0
C3287 C 0.56994 0.77971 0.96543 0.0
C3288 C 0.5548 0.77244 0.94176 0.0
C3289 C 0.54737 0.76282 0.92821 0.0
C3290 C 0.55422 0.75876 0.91724 0.0
C3291 C 0.54714 0.74952 0.90467 0.0
C3292 C 0.53322 0.74437 0.90284 0.0
C3293 C 0.52637 0.74849 0.91355 0.0
C3294 C 0.5334 0.7577 0.92618 0.0
C3295 C 0.57534 0.83166 0.94558 0.0
C3296 C 0.56316 0.83195 0.94487 0.0
C3297 C 0.57521 0.81965 0.94946 0.0
C3298 C 0.56292 0.80779 0.95275 0.0
C3299 C 0.55085 0.80823 0.95286 0.0
C3300 C 0.55097 0.82021 0.94903 0.0
C3301 C 0.56242 0.79461 0.95409 0.0
C3302 C 0.5548 0.7847 0.94231 0.0
C3303 C 0.57006 0.79211 0.96586 0.0
C3304 C 0.57796 0.80209 0.9789 0.0
C3305 C 0.57174 0.80729 0.98923 0.0
C3306 C 0.57924 0.81671 0.00146 0.0
C3307 C 0.59296 0.82096 0.00356 0.0
C3308 C 0.5992 0.81576 0.99344 0.0
C3309 C 0.59174 0.80634 0.98118 0.0
H3310 H 0.59875 0.82825 0.01304 0.0
H3311 H 0.52776 0.73722 0.8931 0.0
H3312 H 0.35451 0.96928 0.93981 0.0
H3313 H 0.36053 0.98928 0.95651 0.0
H3314 H 0.32557 0.96601 0.98724 0.0
H3315 H 0.3193 0.94584 0.97037 0.0
H3316 H 0.33387 0.99565 0.98049 0.0
H3317 H 0.34964 0.96675 0.00201 0.0
H3318 H 0.35982 0.95214 -0.00018 0.0
H3319 H 0.3968 0.98579 0.98188 0.0
H3320 H 0.38673 0.00054 0.98366 0.0
H3321 H 0.36954 0.03984 0.05115 0.0
H3322 H 0.35499 0.02038 0.03364 0.0
H3323 H 0.38619 0.03506 0.99655 0.0
H3324 H 0.40057 0.05471 0.01357 0.0
H3325 H 0.37691 0.00796 0.00936 0.0
H3326 H 0.36045 0.03669 0.98766 0.0
H3327 H 0.34982 0.0509 0.98976 0.0
H3328 H 0.31369 0.01721 0.00937 0.0
H3329 H 0.32419 0.00285 0.00762 0.0
C3330 C 0.34783 0.96849 0.94977 0.0
C3331 C 0.33652 0.95598 0.95392 0.0
C3332 C 0.3513 0.97992 0.95929 0.0
C3333 C 0.34352 0.97902 0.9731 0.0
C3334 C 0.33164 0.96684 0.97657 0.0
C3335 C 0.32818 0.95534 0.96706 0.0
C3336 C 0.34912 0.99017 0.98514 0.0
C3337 C 0.34314 0.99826 0.98707 0.0
C3338 C 0.36119 0.99346 0.99364 0.0
C3339 C 0.36739 0.98471 0.99282 0.0
C3340 C 0.3599 0.971 0.99746 0.0
C3341 C 0.36565 0.9627 0.99631 0.0
C3342 C 0.37894 0.96803 0.99068 0.0
C3343 C 0.3865 0.98167 0.98622 0.0
C3344 C 0.38078 0.99001 0.98731 0.0
C3345 C 0.37317 0.03909 0.0391 0.0
C3346 C 0.3863 0.0487 0.03384 0.0
C3347 C 0.36486 0.02797 0.02916 0.0
C3348 C 0.3696 0.02634 0.01391 0.0
C3349 C 0.38243 0.03618 0.00835 0.0
C3350 C 0.39066 0.04731 0.01816 0.0
C3351 C 0.36193 0.01375 0.00439 0.0
C3352 C 0.36753 0.0053 0.00301 0.0
C3353 C 0.34947 0.01011 0.99663 0.0
C3354 C 0.34318 0.01875 0.99773 0.0
C3355 C 0.3503 0.03235 0.99261 0.0
C3356 C 0.34428 0.04042 0.99369 0.0
C3357 C 0.33111 0.03497 -0.00025 0.0
C3358 C 0.3239 0.02143 0.00471 0.0
C3359 C 0.32988 0.01332 0.00367 0.0
H3360 H 0.32646 0.04123 0.00057 0.0
H3361 H 0.38337 0.96158 0.98979 0.0
H3362 H 0.38427 0.35364 0.44458 0.0
H3363 H 0.3701 0.35822 0.46284 0.0
H3364 H 0.35244 0.31787 0.48281 0.0
H3365 H 0.3666 0.31307 0.46433 0.0
H3366 H 0.33479 0.33376 0.47592 0.0
H3367 H 0.37089 0.33264 0.50669 0.0
H3368 H 0.39429 0.33701 0.50936 0.0
H3369 H 0.40965 0.3795 0.50158 0.0
H3370 H 0.38632 0.37533 0.49856 0.0
H3371 H 0.32063 0.36481 0.54687 0.0
H3372 H 0.32485 0.34922 0.53036 0.0
H3373 H 0.35828 0.38332 0.50643 0.0
H3374 H 0.35398 0.39884 0.52241 0.0
H3375 H 0.36485 0.36465 0.51957 0.0
H3376 H 0.32976 0.3659 0.48656 0.0
H3377 H 0.30683 0.36234 0.48192 0.0
H3378 H 0.28958 0.3201 0.49332 0.0
H3379 H 0.31244 0.32346 0.49825 0.0
C3380 C 0.37705 0.34555 0.45242 0.0
C3381 C 0.3766 0.33302 0.45311 0.0
C3382 C 0.36898 0.3482 0.46285 0.0
C3383 C 0.3603 0.33838 0.4741 0.0
C3384 C 0.35906 0.32552 0.47409 0.0
C3385 C 0.36723 0.32286 0.46368 0.0
C3386 C 0.35441 0.34257 0.48739 0.0
C3387 C 0.34116 0.34018 0.48581 0.0
C3388 C 0.36285 0.35104 0.50008 0.0
C3389 C 0.37688 0.35365 0.50229 0.0
C3390 C 0.37926 0.34289 0.50543 0.0
C3391 C 0.39251 0.34534 0.50702 0.0
C3392 C 0.40345 0.35852 0.50561 0.0
C3393 C 0.40116 0.36929 0.50266 0.0
C3394 C 0.38793 0.36689 0.50103 0.0
C3395 C 0.32876 0.36895 0.53792 0.0
C3396 C 0.3371 0.38305 0.53608 0.0
C3397 C 0.33117 0.36005 0.52858 0.0
C3398 C 0.34193 0.36517 0.51732 0.0
C3399 C 0.35002 0.3792 0.51521 0.0
C3400 C 0.34759 0.38805 0.52442 0.0
C3401 C 0.34529 0.35616 0.50794 0.0
C3402 C 0.3582 0.35776 0.51018 0.0
C3403 C 0.33648 0.34696 0.49596 0.0
C3404 C 0.32278 0.34497 0.493 0.0
C3405 C 0.32107 0.35588 0.48824 0.0
C3406 C 0.30809 0.3539 0.48552 0.0
C3407 C 0.29675 0.34101 0.48739 0.0
C3408 C 0.29837 0.33008 0.49193 0.0
C3409 C 0.31134 0.33202 0.49468 0.0
H3410 H 0.28671 0.33949 0.48527 0.0
H3411 H 0.4137 0.36039 0.50684 0.0
H3412 H 0.03248 0.36428 0.94118 0.0
H3413 H 0.01227 0.34845 0.95671 0.0
H3414 H 0.03132 0.36955 0.00167 0.0
H3415 H 0.05156 0.38523 0.98627 0.0
H3416 H 0.01572 0.34266 0.00713 0.0
H3417 H 0.01146 0.37806 0.97931 0.0
H3418 H 0.01153 0.39107 0.95502 0.0
H3419 H 0.97965 0.35477 0.93317 0.0
H3420 H 0.97953 0.34151 0.95726 0.0
H3421 H 0.96604 0.34381 0.05735 0.0
H3422 H 0.98491 0.3469 0.04011 0.0
H3423 H 0.9568 0.32135 0.00277 0.0
H3424 H 0.93785 0.31848 0.01984 0.0
H3425 H 0.97523 0.3454 0.99073 0.0
H3426 H 0.97651 0.31123 0.02274 0.0
H3427 H 0.97657 0.29928 0.04799 0.0
H3428 H 0.01394 0.33393 0.06312 0.0
H3429 H 0.01401 0.34619 0.03809 0.0
C3430 C 0.03239 0.36539 0.95441 0.0
C3431 C 0.04348 0.37607 0.96252 0.0
C3432 C 0.02089 0.35634 0.96326 0.0
C3433 C 0.02023 0.35798 0.98029 0.0
C3434 C 0.03163 0.3681 0.98854 0.0
C3435 C 0.04318 0.37706 0.97973 0.0
C3436 C 0.00727 0.35032 0.98928 0.0
C3437 C 0.00684 0.34322 0.00358 0.0
C3438 C 0.99561 0.35081 0.98439 0.0
C3439 C 0.9956 0.35878 0.96997 0.0
C3440 C 0.00453 0.37285 0.96927 0.0
C3441 C 0.00458 0.38026 0.95555 0.0
C3442 C 0.99563 0.37375 0.94253 0.0
C3443 C 0.98659 0.3598 0.94324 0.0
C3444 C 0.98654 0.35233 0.95692 0.0
C3445 C 0.96388 0.33872 0.04555 0.0
C3446 C 0.95049 0.33102 0.03986 0.0
C3447 C 0.97466 0.34035 0.0358 0.0
C3448 C 0.97225 0.33426 0.02022 0.0
C3449 C 0.95886 0.32606 0.01481 0.0
C3450 C 0.94805 0.3244 0.02459 0.0
C3451 C 0.98372 0.33797 0.00886 0.0
C3452 C 0.98392 0.34444 0.99409 0.0
C3453 C 0.99518 0.337 0.01347 0.0
C3454 C 0.99522 0.32966 0.02854 0.0
C3455 C 0.98469 0.31635 0.0315 0.0
C3456 C 0.98471 0.30951 0.04577 0.0
C3457 C 0.99524 0.31584 0.05716 0.0
C3458 C 0.00579 0.32903 0.05429 0.0
C3459 C 0.00582 0.33592 0.04004 0.0
H3460 H 0.99524 0.31053 0.0682 0.0
H3461 H 0.99568 0.37951 0.93192 0.0
H3462 H 0.64053 0.0312 0.44392 0.0
H3463 H 0.63462 0.01244 0.46285 0.0
H3464 H 0.67631 0.03062 0.47816 0.0
H3465 H 0.68238 0.0496 0.45915 0.0
H3466 H 0.65621 0.99736 0.4722 0.0
H3467 H 0.66484 0.03774 0.50328 0.0
H3468 H 0.66304 0.05829 0.50662 0.0
H3469 H 0.61966 0.03417 0.50491 0.0
H3470 H 0.62123 0.0135 0.50125 0.0
H3471 H 0.63027 0.95298 0.54217 0.0
H3472 H 0.64493 0.97254 0.52478 0.0
H3473 H 0.61134 0.97915 0.51568 0.0
H3474 H 0.59697 0.96009 0.53353 0.0
H3475 H 0.63253 0.00205 0.52085 0.0
H3476 H 0.62269 0.96267 0.48766 0.0
H3477 H 0.62267 0.94146 0.48152 0.0
H3478 H 0.66606 0.96242 0.48498 0.0
H3479 H 0.66632 0.98373 0.49133 0.0
C3480 C 0.64853 0.03102 0.45092 0.0
C3481 C 0.66191 0.04186 0.45013 0.0
C3482 C 0.64513 0.02032 0.46174 0.0
C3483 C 0.65505 0.02025 0.47183 0.0
C3484 C 0.66858 0.03056 0.47035 0.0
C3485 C 0.67199 0.04139 0.45962 0.0
C3486 C 0.65073 0.01032 0.4853 0.0
C3487 C 0.65132 0.99845 0.48309 0.0
C3488 C 0.64415 0.01175 0.49921 0.0
C3489 C 0.64317 0.02411 0.50187 0.0
C3490 C 0.65493 0.03684 0.50349 0.0
C3491 C 0.65395 0.04851 0.50546 0.0
C3492 C 0.64124 0.04755 0.50594 0.0
C3493 C 0.62949 0.03491 0.50452 0.0
C3494 C 0.63042 0.02321 0.50252 0.0
C3495 C 0.62612 0.95871 0.53646 0.0
C3496 C 0.61257 0.95515 0.53916 0.0
C3497 C 0.63444 0.96981 0.52651 0.0
C3498 C 0.6292 0.97724 0.51879 0.0
C3499 C 0.61565 0.97364 0.52158 0.0
C3500 C 0.60744 0.96276 0.53175 0.0
C3501 C 0.6376 0.98874 0.50768 0.0
C3502 C 0.63775 0.00099 0.51029 0.0
C3503 C 0.64468 0.98752 0.49403 0.0
C3504 C 0.64451 0.97474 0.49016 0.0
C3505 C 0.63222 0.96273 0.48722 0.0
C3506 C 0.63216 0.95069 0.48369 0.0
C3507 C 0.64435 0.95058 0.48292 0.0
C3508 C 0.65663 0.96251 0.48562 0.0
C3509 C 0.65673 0.97457 0.48918 0.0
H3510 H 0.64429 0.94125 0.48018 0.0
H3511 H 0.6405 0.05659 0.50745 0.0
H3512 H 0.64247 0.61128 0.05461 0.0
H3513 H 0.63549 0.62408 0.03728 0.0
H3514 H 0.6722 0.63921 0.0089 0.0
H3515 H 0.6796 0.62672 0.02669 0.0
H3516 H 0.66312 0.65863 0.01394 0.0
H3517 H 0.64696 0.6139 0.99365 0.0
H3518 H 0.63655 0.58909 0.99571 0.0
H3519 H 0.59934 0.58597 0.01231 0.0
H3520 H 0.6096 0.61081 0.01063 0.0
H3521 H 0.62655 0.66757 0.94458 0.0
H3522 H 0.64111 0.66208 0.96123 0.0
H3523 H 0.61098 0.64662 -0.00038 0.0
H3524 H 0.59665 0.65253 0.98351 0.0
H3525 H 0.61955 0.62815 0.98596 0.0
H3526 H 0.637 0.67359 0.00773 0.0
H3527 H 0.6479 0.69843 0.00541 0.0
H3528 H 0.68326 0.70012 0.98435 0.0
H3529 H 0.67247 0.67524 0.98633 0.0
C3530 C 0.64931 0.61764 0.04504 0.0
C3531 C 0.66157 0.6179 0.04197 0.0
C3532 C 0.64524 0.62488 0.03507 0.0
C3533 C 0.65326 0.6324 0.02172 0.0
C3534 C 0.66588 0.6334 0.01915 0.0
C3535 C 0.67001 0.62616 0.02919 0.0
C3536 C 0.64762 0.63793 0.00964 0.0
C3537 C 0.65373 0.65199 0.00756 0.0
C3538 C 0.6354 0.62921 0.00134 0.0
C3539 C 0.62908 0.61423 0.00212 0.0
C3540 C 0.63658 0.60794 0.99785 0.0
C3541 C 0.63071 0.59387 0.99894 0.0
C3542 C 0.6173 0.58596 0.00416 0.0
C3543 C 0.60973 0.59211 0.00827 0.0
C3544 C 0.61556 0.60619 0.00724 0.0
C3545 C 0.62316 0.6633 0.95673 0.0
C3546 C 0.61034 0.6603 0.96262 0.0
C3547 C 0.63148 0.66015 0.96617 0.0
C3548 C 0.62703 0.65391 0.98154 0.0
C3549 C 0.61451 0.65137 0.9877 0.0
C3550 C 0.60629 0.65465 0.97841 0.0
C3551 C 0.63476 0.64886 0.99072 0.0
C3552 C 0.62904 0.63481 0.99214 0.0
C3553 C 0.64739 0.6576 0.99818 0.0
C3554 C 0.65385 0.67254 0.99696 0.0
C3555 C 0.64703 0.67924 0.00243 0.0
C3556 C 0.65321 0.69333 0.00122 0.0
C3557 C 0.66624 0.70084 0.99468 0.0
C3558 C 0.67315 0.69428 0.98938 0.0
C3559 C 0.66701 0.68019 0.99055 0.0
H3560 H 0.67101 0.71175 0.99376 0.0
H3561 H 0.61277 0.57507 0.005 0.0
H3562 H 0.04862 0.6503 0.51674 0.0
H3563 H 0.03026 0.64742 0.49881 0.0
H3564 H 0.02342 0.67427 0.52965 0.0
H3565 H 0.04176 0.67697 0.54799 0.0
H3566 H 0.00014 0.65098 0.52297 0.0
H3567 H 0.03574 0.68473 0.49154 0.0
H3568 H 0.05809 0.69675 0.47809 0.0
H3569 H 0.04691 0.66258 0.44646 0.0
H3570 H 0.02456 0.65026 0.45988 0.0
H3571 H 0.94675 0.62971 0.4631 0.0
H3572 H 0.96675 0.64595 0.47871 0.0
H3573 H 0.98788 0.62526 0.4633 0.0
H3574 H 0.968 0.60891 0.44807 0.0
H3575 H 0.00408 0.65318 0.4621 0.0
H3576 H 0.97177 0.6181 0.49977 0.0
H3577 H 0.94964 0.60567 0.51374 0.0
H3578 H 0.95511 0.64297 0.53373 0.0
H3579 H 0.97721 0.65563 0.51968 0.0
C3580 C 0.04322 0.6556 0.51972 0.0
C3581 C 0.04652 0.66376 0.53382 0.0
C3582 C 0.03285 0.6541 0.50934 0.0
C3583 C 0.02563 0.66081 0.51277 0.0
C3584 C 0.02898 0.66912 0.52673 0.0
C3585 C 0.03944 0.67067 0.53714 0.0
C3586 C 0.01388 0.65803 0.50235 0.0
C3587 C 0.00102 0.65186 0.50967 0.0
C3588 C 0.01504 0.65917 0.48502 0.0
C3589 C 0.02845 0.66656 0.47676 0.0
C3590 C 0.03806 0.67975 0.48178 0.0
C3591 C 0.05074 0.68662 0.47415 0.0
C3592 C 0.05392 0.68044 0.46143 0.0
C3593 C 0.04442 0.66737 0.4563 0.0
C3594 C 0.03173 0.66044 0.46389 0.0
C3595 C 0.95567 0.62864 0.46305 0.0
C3596 C 0.95577 0.61799 0.45439 0.0
C3597 C 0.96709 0.63797 0.47186 0.0
C3598 C 0.97875 0.63677 0.47214 0.0
C3599 C 0.97901 0.62643 0.46309 0.0
C3600 C 0.96763 0.6171 0.45436 0.0
C3601 C 0.99044 0.64551 0.48272 0.0
C3602 C 0.00327 0.65282 0.47541 0.0
C3603 C 0.98926 0.64544 0.50005 0.0
C3604 C 0.97602 0.63782 0.50851 0.0
C3605 C 0.96819 0.62365 0.50704 0.0
C3606 C 0.95567 0.61657 0.51499 0.0
C3607 C 0.95094 0.62353 0.52457 0.0
C3608 C 0.95876 0.63759 0.52626 0.0
C3609 C 0.97128 0.64473 0.51831 0.0
H3610 H 0.94125 0.61803 0.53072 0.0
H3611 H 0.06374 0.68577 0.45555 0.0
H3612 H 0.61562 0.94007 0.98058 0.0
H3613 H 0.63064 0.95865 0.99864 0.0
H3614 H 0.64086 0.98686 0.95848 0.0
H3615 H 0.62639 0.96823 0.94007 0.0
H3616 H 0.66238 0.99451 0.97908 0.0
H3617 H 0.61471 0.9803 0.98352 0.0
H3618 H 0.59058 0.96371 0.98817 0.0
H3619 H 0.59987 0.95564 0.03662 0.0
H3620 H 0.6241 0.97206 0.03215 0.0
H3621 H 0.66953 0.05446 0.0149 0.0
H3622 H 0.66501 0.03415 -0.00032 0.0
H3623 H 0.65657 0.01191 0.04524 0.0
H3624 H 0.66102 0.03222 0.06053 0.0
H3625 H 0.63622 -0.00026 0.02446 0.0
H3626 H 0.68388 0.01783 0.0212 0.0
H3627 H 0.70769 0.03508 0.01598 0.0
H3628 H 0.69847 0.03682 0.96511 0.0
H3629 H 0.67456 0.01971 0.97007 0.0
C3630 C 0.62139 0.95014 0.97542 0.0
C3631 C 0.61961 0.9527 0.95893 0.0
C3632 C 0.62991 0.96077 0.98581 0.0
C3633 C 0.63663 0.97415 0.97997 0.0
C3634 C 0.63569 0.97661 0.96325 0.0
C3635 C 0.62727 0.96598 0.95281 0.0
C3636 C 0.64317 0.98566 0.99157 0.0
C3637 C 0.65671 0.99571 0.98902 0.0
C3638 C 0.63579 0.98706 0.00469 0.0
C3639 C 0.62122 0.97727 0.00743 0.0
C3640 C 0.61161 0.97491 0.99512 0.0
C3641 C 0.59792 0.96555 0.99772 0.0
C3642 C 0.5937 0.95859 0.01266 0.0
C3643 C 0.60316 0.96101 0.02504 0.0
C3644 C 0.61687 0.97034 0.02248 0.0
C3645 C 0.66707 0.04534 0.0217 0.0
C3646 C 0.66549 0.04487 0.03887 0.0
C3647 C 0.66453 0.03375 0.01299 0.0
C3648 C 0.66051 0.02153 0.02134 0.0
C3649 C 0.65964 0.02123 0.03857 0.0
C3650 C 0.66211 0.0328 0.04727 0.0
C3651 C 0.65547 0.00875 0.01197 0.0
C3652 C 0.64209 0.99846 0.01484 0.0
C3653 C 0.66299 0.00726 -0.00089 0.0
C3654 C 0.67739 0.01753 0.99604 0.0
C3655 C 0.6869 0.02196 0.00892 0.0
C3656 C 0.70042 0.0317 0.00601 0.0
C3657 C 0.70459 0.03706 0.99023 0.0
C3658 C 0.69524 0.03266 0.97733 0.0
C3659 C 0.6817 0.02292 0.98018 0.0
H3660 H 0.71506 0.04461 0.988 0.0
H3661 H 0.58309 0.95135 0.01466 0.0
H3662 H 0.64621 0.6158 0.44362 0.0
H3663 H 0.64174 0.63028 0.46155 0.0
H3664 H 0.67168 0.63263 0.49597 0.0
H3665 H 0.67584 0.6177 0.47833 0.0
H3666 H 0.64863 0.62568 0.51104 0.0
H3667 H 0.67701 0.6608 0.47429 0.0
H3668 H 0.68588 0.67195 0.44754 0.0
H3669 H 0.64769 0.66908 0.43653 0.0
H3670 H 0.63851 0.65773 0.4631 0.0
H3671 H 0.62839 0.664 0.56059 0.0
H3672 H 0.64385 0.65971 0.54405 0.0
H3673 H 0.6174 0.65031 0.50211 0.0
H3674 H 0.60215 0.65489 0.51839 0.0
H3675 H 0.64412 0.66489 0.49331 0.0
H3676 H 0.61487 0.62545 0.52682 0.0
H3677 H 0.60546 0.61368 0.55314 0.0
H3678 H 0.64541 0.62455 0.56971 0.0
H3679 H 0.65507 0.63655 0.54355 0.0
C3680 C 0.65189 0.61946 0.45496 0.0
C3681 C 0.6613 0.61553 0.45963 0.0
C3682 C 0.64947 0.62789 0.4651 0.0
C3683 C 0.65649 0.63267 0.48001 0.0
C3684 C 0.66622 0.62913 0.48445 0.0
C3685 C 0.66863 0.62066 0.47433 0.0
C3686 C 0.65257 0.6401 0.49164 0.0
C3687 C 0.64801 0.6345 0.50732 0.0
C3688 C 0.65157 0.65147 0.48669 0.0
C3689 C 0.65705 0.65835 0.47069 0.0
C3690 C 0.67047 0.66246 0.46612 0.0
C3691 C 0.67555 0.66883 0.45099 0.0
C3692 C 0.66735 0.67121 0.44033 0.0
C3693 C 0.65404 0.66724 0.4448 0.0
C3694 C 0.64889 0.66086 0.45991 0.0
C3695 C 0.62602 0.66125 0.54777 0.0
C3696 C 0.61399 0.6596 0.54081 0.0
C3697 C 0.63482 0.65876 0.53837 0.0
C3698 C 0.63168 0.65458 0.52192 0.0
C3699 C 0.62 0.65353 0.51478 0.0
C3700 C 0.61122 0.65598 0.52415 0.0
C3701 C 0.63985 0.65019 0.51238 0.0
C3702 C 0.64515 0.65634 0.49714 0.0
C3703 C 0.64151 0.63929 0.51767 0.0
C3704 C 0.6357 0.63204 0.53334 0.0
C3705 C 0.62165 0.62542 0.53614 0.0
C3706 C 0.61628 0.6187 0.55101 0.0
C3707 C 0.62484 0.61841 0.56311 0.0
C3708 C 0.63879 0.62481 0.56034 0.0
C3709 C 0.64423 0.63157 0.5455 0.0
H3710 H 0.62066 0.6132 0.57462 0.0
H3711 H 0.67131 0.67614 0.42862 0.0
H3712 H 0.95246 0.6303 0.04754 0.0
H3713 H 0.97352 0.64529 0.03262 0.0
H3714 H 0.98065 0.6118 0.0259 0.0
H3715 H 0.95975 0.59689 0.04071 0.0
H3716 H 0.00378 0.63579 0.03535 0.0
H3717 H 0.96634 0.61981 0.9961 0.0
H3718 H 0.94491 0.61745 0.98581 0.0
H3719 H 0.96299 0.66074 0.98417 0.0
H3720 H 0.98449 0.66334 0.99468 0.0
H3721 H 0.03736 0.63602 0.96479 0.0
H3722 H 0.01967 0.63191 0.9847 0.0
H3723 H 0.02992 0.67375 0.98141 0.0
H3724 H 0.04782 0.67799 0.96137 0.0
H3725 H 0.00044 0.65265 0.98021 0.0
H3726 H 0.03965 0.66804 0.0135 0.0
H3727 H 0.06102 0.66967 0.02272 0.0
H3728 H 0.03976 0.62743 0.03532 0.0
H3729 H 0.01828 0.62548 0.02592 0.0
C3730 C 0.95864 0.62624 0.043 0.0
C3731 C 0.9545 0.61246 0.04509 0.0
C3732 C 0.97059 0.63476 0.03449 0.0
C3733 C 0.97856 0.6296 0.02817 0.0
C3734 C 0.97463 0.61596 0.03074 0.0
C3735 C 0.96266 0.60744 0.03906 0.0
C3736 C 0.99069 0.63804 0.01811 0.0
C3737 C 0.0031 0.63959 0.02335 0.0
C3738 C 0.98984 0.64334 0.00269 0.0
C3739 C 0.97694 0.64177 0.99639 0.0
C3740 C 0.9657 0.62882 0.99369 0.0
C3741 C 0.95355 0.62744 0.98779 0.0
C3742 C 0.95257 0.63894 0.9844 0.0
C3743 C 0.96376 0.65184 0.98685 0.0
C3744 C 0.97592 0.65328 0.99278 0.0
C3745 C 0.03573 0.64431 0.96812 0.0
C3746 C 0.0439 0.65731 0.96155 0.0
C3747 C 0.02571 0.64197 0.97956 0.0
C3748 C 0.02364 0.65257 0.98456 0.0
C3749 C 0.03147 0.66549 0.97769 0.0
C3750 C 0.04166 0.66789 0.96634 0.0
C3751 C 0.01334 0.64987 0.99721 0.0
C3752 C 0.00127 0.64935 0.99246 0.0
C3753 C 0.01449 0.6455 0.0131 0.0
C3754 C 0.02735 0.64661 0.01893 0.0
C3755 C 0.03954 0.65907 0.01813 0.0
C3756 C 0.05167 0.66006 0.0234 0.0
C3757 C 0.05175 0.64866 0.02959 0.0
C3758 C 0.03968 0.63625 0.03053 0.0
C3759 C 0.02752 0.63521 0.02526 0.0
H3760 H 0.06115 0.64944 0.03366 0.0
H3761 H 0.94316 0.63785 0.97982 0.0
H3762 H 0.33763 0.9638 0.555 0.0
H3763 H 0.34254 0.98287 0.53687 0.0
H3764 H 0.34201 0.95942 0.49486 0.0
H3765 H 0.33737 0.94046 0.51298 0.0
H3766 H 0.3641 0.98274 0.49493 0.0
H3767 H 0.31723 0.96813 0.50104 0.0
H3768 H 0.29579 0.96108 0.51572 0.0
H3769 H 0.31336 -0.0001 0.53942 0.0
H3770 H 0.33498 0.00712 0.52507 0.0
H3771 H 0.37413 0.03135 0.43603 0.0
H3772 H 0.35974 0.01085 0.45183 0.0
H3773 H 0.37073 0.03425 0.4966 0.0
H3774 H 0.38555 0.05475 0.48103 0.0
H3775 H 0.34171 0.01055 0.49373 0.0
H3776 H 0.38937 0.02326 0.48985 0.0
H3777 H 0.41034 0.03026 0.47411 0.0
H3778 H 0.39003 0.99397 0.44511 0.0
H3779 H 0.36885 0.98689 0.46051 0.0
C3780 C 0.33834 0.96267 0.54186 0.0
C3781 C 0.33727 0.95076 0.53537 0.0
C3782 C 0.34108 0.97353 0.53151 0.0
C3783 C 0.34257 0.97254 0.5145 0.0
C3784 C 0.34094 0.96041 0.50796 0.0
C3785 C 0.33835 0.94963 0.5183 0.0
C3786 C 0.3472 0.98454 0.50375 0.0
C3787 C 0.359 0.98863 0.49447 0.0
C3788 C 0.34076 0.99242 0.50339 0.0
C3789 C 0.32778 0.98812 0.51209 0.0
C3790 C 0.31657 0.97512 0.5095 0.0
C3791 C 0.30437 0.9711 0.51773 0.0
C3792 C 0.30323 0.98002 0.52853 0.0
C3793 C 0.31427 0.99299 0.53107 0.0
C3794 C 0.32649 0.99706 0.52287 0.0
C3795 C 0.37337 0.03218 0.44921 0.0
C3796 C 0.38122 0.04463 0.45732 0.0
C3797 C 0.36502 0.02049 0.45817 0.0
C3798 C 0.36429 0.0211 0.47533 0.0
C3799 C 0.37113 0.03366 0.48333 0.0
C3800 C 0.37961 0.04535 0.47439 0.0
C3801 C 0.35844 0.00852 0.48505 0.0
C3802 C 0.34658 0.00445 0.49414 0.0
C3803 C 0.36473 0.00054 0.48521 0.0
C3804 C 0.37751 0.00463 0.47619 0.0
C3805 C 0.38935 0.01683 0.48003 0.0
C3806 C 0.40128 0.02081 0.47118 0.0
C3807 C 0.40151 0.01258 0.45858 0.0
C3808 C 0.38983 0.00034 0.45485 0.0
C3809 C 0.37787 0.99634 0.46363 0.0
H3810 H 0.41075 0.01567 0.45174 0.0
H3811 H 0.29377 0.97689 0.53489 0.0
H3812 H 0.3846 0.32498 0.01632 0.0
H3813 H 0.36988 0.32867 0.99785 0.0
H3814 H 0.35822 0.34547 0.03797 0.0
H3815 H 0.37247 0.34126 0.05673 0.0
H3816 H 0.3372 0.33144 0.01655 0.0
H3817 H 0.38443 0.36594 0.01419 0.0
H3818 H 0.40886 0.37442 0.01063 0.0
H3819 H 0.40167 0.35828 0.96157 0.0
H3820 H 0.37715 0.34952 0.96495 0.0
H3821 H 0.32993 0.38423 0.98077 0.0
H3822 H 0.33493 0.36888 0.99613 0.0
H3823 H 0.34261 0.3543 0.95072 0.0
H3824 H 0.3373 0.36943 0.93516 0.0
H3825 H 0.36379 0.36386 0.97221 0.0
H3826 H 0.31629 0.33304 0.97376 0.0
H3827 H 0.29221 0.32577 0.97814 0.0
H3828 H 0.3 0.33626 0.02929 0.0
H3829 H 0.32418 0.3438 0.02518 0.0
C3830 C 0.37859 0.32907 0.02136 0.0
C3831 C 0.37987 0.33303 0.03795 0.0
C3832 C 0.37025 0.33124 0.01075 0.0
C3833 C 0.36318 0.33757 0.0165 0.0
C3834 C 0.36366 0.34063 0.03328 0.0
C3835 C 0.37193 0.33838 0.04393 0.0
C3836 C 0.35668 0.3425 0.00479 0.0
C3837 C 0.34297 0.33854 0.00685 0.0
C3838 C 0.36421 0.3516 0.992 0.0
C3839 C 0.37895 0.35693 0.9899 0.0
C3840 C 0.38805 0.36411 0.00269 0.0
C3841 C 0.40191 0.36898 0.0007 0.0
C3842 C 0.40681 0.36685 0.9859 0.0
C3843 C 0.39786 0.35989 0.97304 0.0
C3844 C 0.38398 0.35497 0.97499 0.0
C3845 C 0.33228 0.37748 0.97399 0.0
C3846 C 0.33333 0.37814 0.95673 0.0
C3847 C 0.33514 0.36871 0.98281 0.0
C3848 C 0.33908 0.36043 0.97454 0.0
C3849 C 0.33958 0.36062 0.9573 0.0
C3850 C 0.33665 0.36935 0.94846 0.0
C3851 C 0.34429 0.35291 0.984 0.0
C3852 C 0.35785 0.3565 0.98161 0.0
C3853 C 0.33664 0.34363 0.99657 0.0
C3854 C 0.32209 0.33908 -0.00087 0.0
C3855 C 0.3129 0.33391 0.98592 0.0
C3856 C 0.29922 0.32971 0.98836 0.0
C3857 C 0.29458 0.33057 0.00397 0.0
C3858 C 0.30361 0.3356 0.01719 0.0
C3859 C 0.3173 0.33982 0.01482 0.0
H3860 H 0.28399 0.32732 0.00584 0.0
H3861 H 0.41754 0.37063 0.98438 0.0
H3862 H 0.0321 0.37403 0.5541 0.0
H3863 H 0.01331 0.35985 0.53567 0.0
H3864 H 0.03736 0.38254 0.49393 0.0
H3865 H 0.05619 0.3967 0.51227 0.0
H3866 H 0.01332 0.38099 0.49388 0.0
H3867 H 0.02956 0.35001 0.49983 0.0
H3868 H 0.03726 0.33614 0.51451 0.0
H3869 H -0.00164 0.31354 0.53771 0.0
H3870 H 0.99048 0.32741 0.52335 0.0
H3871 H 0.96601 0.34114 0.43398 0.0
H3872 H 0.98651 0.34821 0.45021 0.0
H3873 H 0.96264 0.33503 0.49458 0.0
H3874 H 0.94214 0.32849 0.47863 0.0
H3875 H 0.98714 0.33072 0.49191 0.0
H3876 H 0.97259 0.36424 0.48859 0.0
H3877 H 0.96486 0.37779 0.47322 0.0
H3878 H 0.00136 0.39551 0.44448 0.0
H3879 H 0.00918 0.38185 0.45951 0.0
C3880 C 0.03346 0.37582 0.54097 0.0
C3881 C 0.04557 0.38653 0.53462 0.0
C3882 C 0.02274 0.36771 0.53046 0.0
C3883 C 0.02399 0.37011 0.51343 0.0
C3884 C 0.0362 0.38055 0.50704 0.0
C3885 C 0.0469 0.38867 0.51752 0.0
C3886 C 0.01219 0.36254 0.50248 0.0
C3887 C 0.00778 0.37001 0.49325 0.0
C3888 C 0.00478 0.3482 0.50193 0.0
C3889 C 0.00947 0.33984 0.51062 0.0
C3890 C 0.02268 0.34216 0.50818 0.0
C3891 C 0.02707 0.33429 0.51642 0.0
C3892 C 0.01832 0.32399 0.52707 0.0
C3893 C 0.00514 0.32153 0.52947 0.0
C3894 C 0.0007 0.32939 0.52127 0.0
C3895 C 0.96508 0.33962 0.44717 0.0
C3896 C 0.95246 0.33453 0.45503 0.0
C3897 C 0.97677 0.34349 0.45637 0.0
C3898 C 0.97601 0.34217 0.47354 0.0
C3899 C 0.96335 0.33601 0.48131 0.0
C3900 C 0.95165 0.33229 0.47214 0.0
C3901 C 0.98845 0.34923 0.48346 0.0
C3902 C 0.99287 0.3417 0.4925 0.0
C3903 C 0.99595 0.36352 0.48386 0.0
C3904 C 0.99139 0.37191 0.47502 0.0
C3905 C 0.97891 0.37094 0.47889 0.0
C3906 C 0.97452 0.37864 0.47026 0.0
C3907 C 0.98259 0.38747 0.45784 0.0
C3908 C 0.9951 0.38864 0.45407 0.0
C3909 C -0.00048 0.38092 0.46264 0.0
H3910 H 0.97918 0.39344 0.45117 0.0
H3911 H 0.02173 0.3179 0.53343 0.0
H3912 H 0.50796 0.11015 0.09993 0.0
H3913 H 0.52979 0.11132 0.09696 0.0
H3914 H 0.5304 0.12031 0.04531 0.0
H3915 H 0.50855 0.11937 0.04822 0.0
H3916 H 0.53741 0.10091 0.05094 0.0
H3917 H 0.55064 0.14511 0.07074 0.0
H3918 H 0.55011 0.16217 0.08888 0.0
H3919 H 0.56105 0.14617 0.1302 0.0
H3920 H 0.56145 0.12886 0.11236 0.0
H3921 H 0.60633 0.115 0.04605 0.0
H3922 H 0.58597 0.11705 0.04399 0.0
H3923 H 0.57886 0.10909 0.09601 0.0
H3924 H 0.59907 0.10697 0.09814 0.0
H3925 H 0.5763 0.13043 0.08694 0.0
H3926 H 0.56062 0.08479 0.06739 0.0
H3927 H 0.56095 0.06764 0.04919 0.0
H3928 H 0.55471 0.08666 0.00712 0.0
H3929 H 0.55452 0.10404 0.02506 0.0
C3930 C 0.5128 0.11259 0.08798 0.0
C3931 C 0.50654 0.11477 0.07434 0.0
C3932 C 0.52527 0.11321 0.08629 0.0
C3933 C 0.53179 0.11607 0.07096 0.0
C3934 C 0.52554 0.11811 0.05726 0.0
C3935 C 0.51304 0.11753 0.05894 0.0
C3936 C 0.545 0.11662 0.06933 0.0
C3937 C 0.54602 0.10754 0.05857 0.0
C3938 C 0.55615 0.12518 0.07943 0.0
C3939 C 0.55598 0.13561 0.09022 0.0
C3940 C 0.55284 0.14515 0.08372 0.0
C3941 C 0.55257 0.15489 0.09395 0.0
C3942 C 0.55552 0.15524 0.11069 0.0
C3943 C 0.55877 0.14588 0.11723 0.0
C3944 C 0.55903 0.13611 0.10706 0.0
C3945 C 0.60035 0.11357 0.057 0.0
C3946 C 0.60434 0.11088 0.07227 0.0
C3947 C 0.58875 0.11477 0.05582 0.0
C3948 C 0.5809 0.11319 0.06985 0.0
C3949 C 0.58483 0.11044 0.08505 0.0
C3950 C 0.5964 0.10927 0.08625 0.0
C3951 C 0.56858 0.11444 0.0689 0.0
C3952 C 0.56776 0.12391 0.07915 0.0
C3953 C 0.55764 0.10626 0.05831 0.0
C3954 C 0.55772 0.0958 0.04754 0.0
C3955 C 0.55944 0.08538 0.05424 0.0
C3956 C 0.55958 0.07561 0.04398 0.0
C3957 C 0.5579 0.07609 0.02701 0.0
C3958 C 0.55604 0.08632 0.02027 0.0
C3959 C 0.55591 0.09613 0.03048 0.0
H3960 H 0.55801 0.06851 0.01908 0.0
H3961 H 0.55532 0.16278 0.11859 0.0
H3962 H 0.48244 0.61357 0.56326 0.0
H3963 H 0.46057 0.59264 0.56093 0.0
H3964 H 0.47913 0.56957 0.57691 0.0
H3965 H 0.50104 0.59043 0.57882 0.0
H3966 H 0.46181 0.55647 0.55341 0.0
H3967 H 0.46087 0.57861 0.60345 0.0
H3968 H 0.46268 0.59746 0.62028 0.0
H3969 H 0.43033 0.59709 0.59279 0.0
H3970 H 0.42845 0.57835 0.57564 0.0
H3971 H 0.40553 0.49815 0.58788 0.0
H3972 H 0.42656 0.51984 0.58444 0.0
H3973 H 0.40472 0.53583 0.55822 0.0
H3974 H 0.38364 0.51405 0.56144 0.0
H3975 H 0.42266 0.55284 0.58454 0.0
H3976 H 0.42271 0.52885 0.53609 0.0
H3977 H 0.42091 0.50941 0.52063 0.0
H3978 H 0.4551 0.51265 0.54688 0.0
H3979 H 0.45698 0.532 0.5627 0.0
C3980 C 0.48182 0.60401 0.5662 0.0
C3981 C 0.49338 0.60359 0.57131 0.0
C3982 C 0.46934 0.59207 0.56489 0.0
C3983 C 0.46816 0.57956 0.56903 0.0
C3984 C 0.47979 0.57911 0.57366 0.0
C3985 C 0.4923 0.59101 0.57475 0.0
C3986 C 0.45477 0.56696 0.56906 0.0
C3987 C 0.45329 0.55567 0.56033 0.0
C3988 C 0.44355 0.56596 0.57781 0.0
C3989 C 0.44462 0.57719 0.58815 0.0
C3990 C 0.45421 0.58262 0.60092 0.0
C3991 C 0.45524 0.59328 0.61052 0.0
C3992 C 0.44666 0.5985 0.60757 0.0
C3993 C 0.43699 0.59305 0.59504 0.0
C3994 C 0.43593 0.58241 0.58538 0.0
C3995 C 0.40524 0.50631 0.58142 0.0
C3996 C 0.39302 0.50449 0.57492 0.0
C3997 C 0.41722 0.51863 0.5794 0.0
C3998 C 0.41714 0.52935 0.57102 0.0
C3999 C 0.40494 0.52763 0.56469 0.0
C4000 C 0.39297 0.51522 0.56647 0.0
C4001 C 0.42984 0.54241 0.56911 0.0
C4002 C 0.43117 0.55374 0.5775 0.0
C4003 C 0.44096 0.5434 0.56023 0.0
C4004 C 0.43991 0.5318 0.55069 0.0
C4005 C 0.42977 0.52535 0.53868 0.0
C4006 C 0.42875 0.51436 0.52983 0.0
C4007 C 0.43787 0.50978 0.5328 0.0
C4008 C 0.44804 0.5162 0.5446 0.0
C4009 C 0.4491 0.52719 0.5535 0.0
H4010 H 0.43706 0.50127 0.52593 0.0
H4011 H 0.44747 0.60675 0.61502 0.0
H4012 H 0.9058 0.40418 0.06027 0.0
H4013 H 0.9052 0.42525 0.05819 0.0
H4014 H 0.86688 0.40663 0.08369 0.0
H4015 H 0.86714 0.38534 0.08524 0.0
H4016 H 0.86681 0.42201 0.05891 0.0
H4017 H 0.89621 0.42729 0.10388 0.0
H4018 H 0.9154 0.4272 0.11775 0.0
H4019 H 0.9432 0.4579 0.08465 0.0
H4020 H 0.92414 0.45804 0.07043 0.0
H4021 H 0.86906 0.48178 0.09063 0.0
H4022 H 0.86871 0.46018 0.08768 0.0
H4023 H 0.90294 0.47912 0.05481 0.0
H4024 H 0.90321 0.50071 0.05752 0.0
H4025 H 0.90536 0.46393 0.08191 0.0
H4026 H 0.87507 0.45918 0.03812 0.0
H4027 H 0.8554 0.45924 0.02562 0.0
H4028 H 0.82868 0.42746 0.05835 0.0
H4029 H 0.84823 0.42736 0.07123 0.0
C4030 C 0.89714 0.40449 0.06521 0.0
C4031 C 0.88655 0.39309 0.07302 0.0
C4032 C 0.89687 0.41658 0.06414 0.0
C4033 C 0.88609 0.41757 0.071 0.0
C4034 C 0.87533 0.40611 0.07838 0.0
C4035 C 0.87556 0.394 0.0794 0.0
C4036 C 0.88623 0.43065 0.07093 0.0
C4037 C 0.87518 0.43115 0.06408 0.0
C4038 C 0.89725 0.44262 0.07745 0.0
C4039 C 0.90874 0.44257 0.08597 0.0
C4040 C 0.9064 0.43394 0.09947 0.0
C4041 C 0.91726 0.43389 0.10741 0.0
C4042 C 0.93051 0.44251 0.10205 0.0
C4043 C 0.93293 0.45122 0.08877 0.0
C4044 C 0.92211 0.45129 0.08077 0.0
C4045 C 0.87646 0.48129 0.08272 0.0
C4046 C 0.88616 0.49286 0.0743 0.0
C4047 C 0.87621 0.46898 0.08099 0.0
C4048 C 0.88577 0.4681 0.07099 0.0
C4049 C 0.89547 0.47963 0.06254 0.0
C4050 C 0.89557 0.4919 0.06404 0.0
C4051 C 0.88596 0.45525 0.06992 0.0
C4052 C 0.89706 0.4548 0.07662 0.0
C4053 C 0.87492 0.44332 0.06346 0.0
C4054 C 0.86314 0.44336 0.05576 0.0
C4055 C 0.86502 0.4523 0.04277 0.0
C4056 C 0.85388 0.45232 0.03559 0.0
C4057 C 0.8408 0.44339 0.04122 0.0
C4058 C 0.83882 0.43439 0.05402 0.0
C4059 C 0.84993 0.43434 0.06125 0.0
H4060 H 0.83219 0.44341 0.03564 0.0
H4061 H 0.9389 0.44246 0.10822 0.0
H4062 H 0.38954 0.88006 0.55262 0.0
H4063 H 0.41081 0.88004 0.55009 0.0
H4064 H 0.41937 0.89085 0.60136 0.0
H4065 H 0.39891 0.89228 0.60358 0.0
H4066 H 0.44099 0.90448 0.58587 0.0
H4067 H 0.40726 0.85716 0.58472 0.0
H4068 H 0.38691 0.83666 0.57469 0.0
H4069 H 0.40521 0.84182 0.52709 0.0
H4070 H 0.42561 0.86244 0.53678 0.0
H4071 H 0.48796 0.88235 0.60173 0.0
H4072 H 0.46633 0.882 0.60015 0.0
H4073 H 0.4706 0.88693 0.54749 0.0
H4074 H 0.49241 0.88748 0.54901 0.0
H4075 H 0.44317 0.86574 0.56133 0.0
H4076 H 0.47772 0.9131 0.56474 0.0
H4077 H 0.498 0.93243 0.5769 0.0
H4078 H 0.47744 0.92548 0.62323 0.0
H4079 H 0.4571 0.90598 0.6114 0.0
C4080 C 0.39603 0.88266 0.56332 0.0
C4081 C 0.39236 0.88612 0.57834 0.0
C4082 C 0.40812 0.8824 0.56191 0.0
C4083 C 0.41662 0.88518 0.57561 0.0
C4084 C 0.41299 0.88861 0.5906 0.0
C4085 C 0.4011 0.88921 0.59191 0.0
C4086 C 0.42948 0.88485 0.57439 0.0
C4087 C 0.44136 0.89591 0.58064 0.0
C4088 C 0.43014 0.87383 0.56726 0.0
C4089 C 0.4179 0.86142 0.56142 0.0
C4090 C 0.4069 0.85397 0.57208 0.0
C4091 C 0.39536 0.84232 0.56646 0.0
C4092 C 0.39475 0.83796 0.55025 0.0
C4093 C 0.40569 0.84522 0.53963 0.0
C4094 C 0.41725 0.85688 0.54518 0.0
C4095 C 0.48421 0.8832 0.5898 0.0
C4096 C 0.49182 0.88495 0.57549 0.0
C4097 C 0.47191 0.88304 0.58893 0.0
C4098 C 0.46695 0.88446 0.57371 0.0
C4099 C 0.4743 0.88579 0.55932 0.0
C4100 C 0.48674 0.88618 0.56022 0.0
C4101 C 0.45439 0.88519 0.57308 0.0
C4102 C 0.44266 0.87427 0.56645 0.0
C4103 C 0.45377 0.89618 0.58016 0.0
C4104 C 0.46593 0.90801 0.58723 0.0
C4105 C 0.47756 0.91563 0.57756 0.0
C4106 C 0.48906 0.92663 0.58439 0.0
C4107 C 0.48902 0.93016 0.60084 0.0
C4108 C 0.47746 0.92273 0.61049 0.0
C4109 C 0.46594 0.91171 0.60373 0.0
H4110 H 0.49793 0.93868 0.60611 0.0
H4111 H 0.38581 0.82894 0.54593 0.0
H4112 H 0.61023 0.48936 0.05569 0.0
H4113 H 0.58983 0.46696 0.05452 0.0
H4114 H 0.5746 0.47638 0.09822 0.0
H4115 H 0.59512 0.4986 0.09964 0.0
H4116 H 0.57073 0.45199 0.10062 0.0
H4117 H 0.56273 0.4768 0.05836 0.0
H4118 H 0.56786 0.49058 0.03316 0.0
H4119 H 0.5685 0.45897 0.0051 0.0
H4120 H 0.56355 0.44508 0.03019 0.0
H4121 H 0.50049 0.40555 0.09513 0.0
H4122 H 0.52252 0.42618 0.09401 0.0
H4123 H 0.53634 0.40763 0.05857 0.0
H4124 H 0.5145 0.3866 0.06017 0.0
H4125 H 0.54178 0.43518 0.05081 0.0
H4126 H 0.54798 0.40982 0.09358 0.0
H4127 H 0.54196 0.39622 0.119 0.0
H4128 H 0.54387 0.42936 0.14637 0.0
H4129 H 0.54969 0.44309 0.12104 0.0
C4130 C 0.60247 0.48665 0.06496 0.0
C4131 C 0.60422 0.49569 0.07775 0.0
C4132 C 0.59082 0.47387 0.06428 0.0
C4133 C 0.5806 0.47003 0.07618 0.0
C4134 C 0.58236 0.47909 0.08893 0.0
C4135 C 0.59407 0.49178 0.08974 0.0
C4136 C 0.56812 0.45653 0.07558 0.0
C4137 C 0.56436 0.4484 0.08976 0.0
C4138 C 0.55996 0.45164 0.06128 0.0
C4139 C 0.56292 0.45997 0.04618 0.0
C4140 C 0.56407 0.47284 0.04684 0.0
C4141 C 0.56693 0.48066 0.03257 0.0
C4142 C 0.56855 0.47567 0.01755 0.0
C4143 C 0.56727 0.46283 0.01675 0.0
C4144 C 0.56443 0.45498 0.03099 0.0
C4145 C 0.50824 0.40571 0.08728 0.0
C4146 C 0.5057 0.3943 0.07787 0.0
C4147 C 0.52079 0.41757 0.08656 0.0
C4148 C 0.53103 0.41835 0.07628 0.0
C4149 C 0.52852 0.40718 0.06656 0.0
C4150 C 0.516 0.3952 0.06744 0.0
C4151 C 0.54436 0.43089 0.07591 0.0
C4152 C 0.54827 0.43879 0.06157 0.0
C4153 C 0.55259 0.43564 0.0901 0.0
C4154 C 0.54915 0.42744 0.10538 0.0
C4155 C 0.547 0.41416 0.10499 0.0
C4156 C 0.54364 0.40644 0.11939 0.0
C4157 C 0.5425 0.41191 0.13428 0.0
C4158 C 0.54474 0.42513 0.13482 0.0
C4159 C 0.54808 0.43289 0.12044 0.0
H4160 H 0.53991 0.40591 0.14542 0.0
H4161 H 0.57075 0.48174 0.00651 0.0
H4162 H 0.11453 0.51062 0.60421 0.0
H4163 H 0.11601 0.53259 0.60287 0.0
H4164 H 0.10847 0.5277 0.5506 0.0
H4165 H 0.10817 0.50614 0.55154 0.0
H4166 H 0.12637 0.55265 0.55645 0.0
H4167 H 0.08311 0.52208 0.57963 0.0
H4168 H 0.06702 0.50466 0.59876 0.0
H4169 H 0.08607 0.53154 0.63956 0.0
H4170 H 0.1024 0.54906 0.62069 0.0
H4171 H 0.10595 0.603 0.55299 0.0
H4172 H 0.10676 0.58198 0.55163 0.0
H4173 H 0.12078 0.5877 0.60186 0.0
H4174 H 0.1203 0.60887 0.60324 0.0
H4175 H 0.09892 0.56217 0.59584 0.0
H4176 H 0.14228 0.59282 0.5713 0.0
H4177 H 0.1574 0.60993 0.55121 0.0
H4178 H 0.13651 0.58236 0.51157 0.0
H4179 H 0.12113 0.56514 0.53142 0.0
C4180 C 0.11347 0.51427 0.59232 0.0
C4181 C 0.1112 0.50649 0.57798 0.0
C4182 C 0.11409 0.52679 0.59163 0.0
C4183 C 0.11201 0.53167 0.57671 0.0
C4184 C 0.10999 0.52409 0.5623 0.0
C4185 C 0.10964 0.51166 0.56291 0.0
C4186 C 0.11185 0.54462 0.57624 0.0
C4187 C 0.12021 0.55464 0.56491 0.0
C4188 C 0.10392 0.54731 0.58738 0.0
C4189 C 0.09404 0.53684 0.59875 0.0
C4190 C 0.08392 0.52424 0.59269 0.0
C4191 C 0.07475 0.51436 0.60349 0.0
C4192 C 0.07554 0.51698 0.62037 0.0
C4193 C 0.08548 0.52952 0.62648 0.0
C4194 C 0.09468 0.53943 0.61574 0.0
C4195 C 0.10944 0.59993 0.56366 0.0
C4196 C 0.11301 0.6076 0.57826 0.0
C4197 C 0.10986 0.58789 0.56287 0.0
C4198 C 0.11386 0.58333 0.57664 0.0
C4199 C 0.1176 0.59104 0.59113 0.0
C4200 C 0.11726 0.60309 0.59191 0.0
C4201 C 0.11356 0.5702 0.57625 0.0
C4202 C 0.10505 0.56013 0.58738 0.0
C4203 C 0.12117 0.56742 0.56477 0.0
C4204 C 0.13047 0.57774 0.55284 0.0
C4205 C 0.14084 0.59044 0.5583 0.0
C4206 C 0.14947 0.60015 0.54695 0.0
C4207 C 0.1479 0.59725 0.53012 0.0
C4208 C 0.13771 0.58461 0.52461 0.0
C4209 C 0.12904 0.57486 0.5359 0.0
H4210 H 0.15459 0.60478 0.52136 0.0
H4211 H 0.06844 0.50932 0.62871 0.0
H4212 H 0.8664 0.48231 0.43163 0.0
H4213 H 0.86565 0.46054 0.43329 0.0
H4214 H 0.90842 0.48034 0.42265 0.0
H4215 H 0.90911 0.50196 0.42003 0.0
H4216 H 0.89533 0.45853 0.40465 0.0
H4217 H 0.89502 0.469 0.46217 0.0
H4218 H 0.8864 0.4748 0.48688 0.0
H4219 H 0.84813 0.43816 0.48157 0.0
H4220 H 0.85647 0.43223 0.4567 0.0
H4221 H 0.90896 0.40661 0.42316 0.0
H4222 H 0.90842 0.42768 0.42491 0.0
H4223 H 0.86538 0.40511 0.4339 0.0
H4224 H 0.86593 0.38393 0.43299 0.0
H4225 H 0.87738 0.4276 0.45264 0.0
H4226 H 0.8775 0.41695 0.39559 0.0
H4227 H 0.8858 0.41092 0.3708 0.0
H4228 H 0.924 0.44779 0.37498 0.0
H4229 H 0.91598 0.45396 0.39994 0.0
C4230 C 0.87563 0.48203 0.42953 0.0
C4231 C 0.88782 0.49392 0.4257 0.0
C4232 C 0.87522 0.46959 0.4307 0.0
C4233 C 0.88701 0.46882 0.42829 0.0
C4234 C 0.8992 0.48068 0.42461 0.0
C4235 C 0.8996 0.49308 0.42329 0.0
C4236 C 0.88665 0.45563 0.42889 0.0
C4237 C 0.89158 0.45187 0.41525 0.0
C4238 C 0.88132 0.44671 0.44249 0.0
C4239 C 0.87633 0.45024 0.45748 0.0
C4240 C 0.88474 0.46223 0.4662 0.0
C4241 C 0.8799 0.46553 0.48025 0.0
C4242 C 0.86671 0.45687 0.48577 0.0
C4243 C 0.85834 0.44487 0.47727 0.0
C4244 C 0.86312 0.44153 0.46321 0.0
C4245 C 0.89942 0.40609 0.42586 0.0
C4246 C 0.88747 0.39354 0.42783 0.0
C4247 C 0.8991 0.41816 0.42666 0.0
C4248 C 0.88682 0.41794 0.42921 0.0
C4249 C 0.87495 0.40549 0.4318 0.0
C4250 C 0.87527 0.3934 0.43111 0.0
C4251 C 0.88632 0.43069 0.42854 0.0
C4252 C 0.88115 0.4343 0.44208 0.0
C4253 C 0.89138 0.43948 0.41483 0.0
C4254 C 0.89618 0.43586 0.39972 0.0
C4255 C 0.8877 0.42373 0.39129 0.0
C4256 C 0.89235 0.42029 0.37719 0.0
C4257 C 0.90543 0.42895 0.37133 0.0
C4258 C 0.91387 0.44109 0.37953 0.0
C4259 C 0.90928 0.44457 0.39365 0.0
H4260 H 0.90901 0.42626 0.36042 0.0
H4261 H 0.86299 0.45945 0.49664 0.0
H4262 H 0.497 0.89874 0.94343 0.0
H4263 H 0.47465 0.89678 0.94492 0.0
H4264 H 0.46132 0.86926 0.90361 0.0
H4265 H 0.48385 0.87166 0.90173 0.0
H4266 H 0.45357 0.88641 0.89906 0.0
H4267 H 0.45051 0.85877 0.94459 0.0
H4268 H 0.45747 0.85265 0.97044 0.0
H4269 H 0.45575 0.88489 0.99561 0.0
H4270 H 0.44896 0.89132 0.96985 0.0
H4271 H 0.38417 0.86746 0.90881 0.0
H4272 H 0.40475 0.86585 0.90953 0.0
H4273 H 0.42372 0.90071 0.9414 0.0
H4274 H 0.40342 0.90278 0.94027 0.0
H4275 H 0.42751 0.87824 0.95082 0.0
H4276 H 0.43145 0.90591 0.90337 0.0
H4277 H 0.42347 0.91046 0.87723 0.0
H4278 H 0.42224 0.87554 0.85542 0.0
H4279 H 0.43003 0.87067 0.88153 0.0
C4280 C 0.48923 0.89218 0.9348 0.0
C4281 C 0.49209 0.88536 0.92246 0.0
C4282 C 0.47644 0.891 0.93569 0.0
C4283 C 0.4662 0.88271 0.92452 0.0
C4284 C 0.46904 0.87572 0.91235 0.0
C4285 C 0.48189 0.87709 0.91128 0.0
C4286 C 0.45279 0.8819 0.92496 0.0
C4287 C 0.44779 0.88437 0.91035 0.0
C4288 C 0.44527 0.87943 0.93971 0.0
C4289 C 0.44934 0.8756 0.95524 0.0
C4290 C 0.45172 0.86462 0.95561 0.0
C4291 C 0.45562 0.86109 0.97025 0.0
C4292 C 0.45708 0.8684 0.98465 0.0
C4293 C 0.45462 0.87924 0.98444 0.0
C4294 C 0.45073 0.88283 0.96983 0.0
C4295 C 0.39274 0.87486 0.91589 0.0
C4296 C 0.39215 0.88533 0.92436 0.0
C4297 C 0.40444 0.87384 0.91639 0.0
C4298 C 0.41573 0.8832 0.92546 0.0
C4299 C 0.41506 0.89336 0.9344 0.0
C4300 C 0.40341 0.89449 0.93377 0.0
C4301 C 0.42848 0.8828 0.925 0.0
C4302 C 0.43332 0.88014 0.93957 0.0
C4303 C 0.43574 0.88484 0.91018 0.0
C4304 C 0.43118 0.88784 0.89445 0.0
C4305 C 0.42937 0.89914 0.89304 0.0
C4306 C 0.4249 0.90178 0.87823 0.0
C4307 C 0.42231 0.89327 0.86469 0.0
C4308 C 0.42423 0.88211 0.86593 0.0
C4309 C 0.42868 0.87941 0.88072 0.0
H4310 H 0.41885 0.89534 0.85323 0.0
H4311 H 0.4601 0.86565 0.99597 0.0
H4312 H 0.51479 0.38514 0.41491 0.0
H4313 H 0.53675 0.40576 0.41679 0.0
H4314 H 0.51805 0.42624 0.44032 0.0
H4315 H 0.4959 0.40598 0.43737 0.0
H4316 H 0.53447 0.44186 0.41831 0.0
H4317 H 0.53825 0.41552 0.46161 0.0
H4318 H 0.53744 0.39551 0.47441 0.0
H4319 H 0.56843 0.39888 0.44147 0.0
H4320 H 0.5693 0.4188 0.42831 0.0
H4321 H 0.596 0.49958 0.44249 0.0
H4322 H 0.5748 0.47795 0.44509 0.0
H4323 H 0.5901 0.45936 0.41167 0.0
H4324 H 0.61134 0.48098 0.40899 0.0
H4325 H 0.57574 0.44303 0.43999 0.0
H4326 H 0.57072 0.46888 0.39615 0.0
H4327 H 0.57168 0.48925 0.38426 0.0
H4328 H 0.5428 0.48692 0.41995 0.0
H4329 H 0.54183 0.46664 0.43222 0.0
C4330 C 0.51529 0.39405 0.42034 0.0
C4331 C 0.5035 0.39385 0.42593 0.0
C4332 C 0.52793 0.4058 0.42166 0.0
C4333 C 0.52912 0.41752 0.42893 0.0
C4334 C 0.51741 0.41731 0.43472 0.0
C4335 C 0.50474 0.40564 0.43319 0.0
C4336 C 0.54244 0.43021 0.42973 0.0
C4337 C 0.54341 0.44212 0.42334 0.0
C4338 C 0.55423 0.43055 0.43596 0.0
C4339 C 0.55376 0.41859 0.44388 0.0
C4340 C 0.54483 0.41194 0.45701 0.0
C4341 C 0.54437 0.40062 0.46435 0.0
C4342 C 0.55286 0.39591 0.45873 0.0
C4343 C 0.56185 0.40253 0.4458 0.0
C4344 C 0.56234 0.41384 0.43841 0.0
C4345 C 0.59491 0.49082 0.43591 0.0
C4346 C 0.60525 0.49194 0.42546 0.0
C4347 C 0.58281 0.47852 0.43736 0.0
C4348 C 0.58091 0.46713 0.42849 0.0
C4349 C 0.59142 0.46806 0.4186 0.0
C4350 C 0.60346 0.48041 0.41699 0.0
C4351 C 0.56762 0.45451 0.42866 0.0
C4352 C 0.56671 0.44268 0.43514 0.0
C4353 C 0.55585 0.45423 0.42267 0.0
C4354 C 0.55631 0.46633 0.41521 0.0
C4355 C 0.56466 0.47278 0.40155 0.0
C4356 C 0.56519 0.4843 0.39473 0.0
C4357 C 0.55734 0.4894 0.40138 0.0
C4358 C 0.5489 0.48297 0.41483 0.0
C4359 C 0.54835 0.47146 0.42172 0.0
H4360 H 0.55776 0.49832 0.39608 0.0
H4361 H 0.55248 0.38714 0.46443 0.0
H4362 H 0.11534 0.50599 0.94713 0.0
H4363 H 0.11773 0.52853 0.94856 0.0
H4364 H 0.10167 0.52356 0.89939 0.0
H4365 H 0.09902 0.50096 0.89795 0.0
H4366 H 0.12466 0.54834 0.90397 0.0
H4367 H 0.08212 0.51992 0.93201 0.0
H4368 H 0.06764 0.50361 0.95322 0.0
H4369 H 0.09207 0.53126 0.99121 0.0
H4370 H 0.10682 0.54767 0.9702 0.0
H4371 H 0.10492 0.59727 0.89607 0.0
H4372 H 0.10596 0.57647 0.89814 0.0
H4373 H 0.11973 0.58622 0.94837 0.0
H4374 H 0.11872 0.60716 0.94637 0.0
H4375 H 0.1004 0.5602 0.94556 0.0
H4376 H 0.14174 0.58949 0.91824 0.0
H4377 H 0.15669 0.60604 0.89754 0.0
H4378 H 0.13564 0.57731 0.85899 0.0
H4379 H 0.12042 0.56065 0.87943 0.0
C4380 C 0.11217 0.50962 0.9367 0.0
C4381 C 0.10698 0.50166 0.92243 0.0
C4382 C 0.1136 0.52253 0.93751 0.0
C4383 C 0.10984 0.52768 0.92409 0.0
C4384 C 0.1047 0.51979 0.90984 0.0
C4385 C 0.10323 0.50689 0.90903 0.0
C4386 C 0.11119 0.54129 0.9248 0.0
C4387 C 0.11927 0.55092 0.91297 0.0
C4388 C 0.10456 0.54477 0.93693 0.0
C4389 C 0.09566 0.53495 0.94955 0.0
C4390 C 0.08447 0.52247 0.94489 0.0
C4391 C 0.0762 0.51322 0.95687 0.0
C4392 C 0.07896 0.51638 0.97355 0.0
C4393 C 0.08997 0.52882 0.97828 0.0
C4394 C 0.09827 0.5381 0.96635 0.0
C4395 C 0.10835 0.5951 0.9075 0.0
C4396 C 0.11184 0.60392 0.92102 0.0
C4397 C 0.10892 0.58319 0.90867 0.0
C4398 C 0.11313 0.5799 0.92333 0.0
C4399 C 0.1165 0.5886 0.93693 0.0
C4400 C 0.11588 0.60052 0.93578 0.0
C4401 C 0.11362 0.56717 0.92446 0.0
C4402 C 0.10592 0.55771 0.93666 0.0
C4403 C 0.12071 0.56387 0.91274 0.0
C4404 C 0.12987 0.57385 0.90038 0.0
C4405 C 0.14023 0.58673 0.90534 0.0
C4406 C 0.14876 0.59613 0.89365 0.0
C4407 C 0.1471 0.59274 0.87696 0.0
C4408 C 0.13691 0.57993 0.87192 0.0
C4409 C 0.12834 0.57049 0.88356 0.0
H4410 H 0.15371 0.60003 0.86793 0.0
H4411 H 0.07255 0.50921 0.98281 0.0
H4412 H 0.60258 0.1047 0.45078 0.0
H4413 H 0.58234 0.1068 0.45356 0.0
H4414 H 0.58528 0.11794 0.40236 0.0
H4415 H 0.60577 0.11631 0.39962 0.0
H4416 H 0.57921 0.13363 0.42138 0.0
H4417 H 0.56322 0.08583 0.41498 0.0
H4418 H 0.56176 0.06411 0.42215 0.0
H4419 H 0.54717 0.06574 0.47033 0.0
H4420 H 0.54871 0.08757 0.46351 0.0
H4421 H 0.5131 0.11956 0.40249 0.0
H4422 H 0.53488 0.12043 0.40436 0.0
H4423 H 0.52672 0.10765 0.45508 0.0
H4424 H 0.50476 0.10662 0.45321 0.0
H4425 H 0.53598 0.09374 0.43907 0.0
H4426 H 0.55006 0.14066 0.44463 0.0
H4427 H 0.55143 0.16232 0.43737 0.0
H4428 H 0.56962 0.16255 0.391 0.0
H4429 H 0.56818 0.14079 0.39788 0.0
C4430 C 0.599 0.10775 0.44016 0.0
C4431 C 0.60572 0.11024 0.42494 0.0
C4432 C 0.58738 0.10884 0.44174 0.0
C4433 C 0.58222 0.11237 0.42811 0.0
C4434 C 0.58907 0.11516 0.41301 0.0
C4435 C 0.60069 0.11408 0.41143 0.0
C4436 C 0.56951 0.11286 0.42941 0.0
C4437 C 0.56973 0.12489 0.42512 0.0
C4438 C 0.55724 0.10156 0.43474 0.0
C4439 C 0.55622 0.0884 0.4388 0.0
C4440 C 0.5598 0.0816 0.42715 0.0
C4441 C 0.55894 0.06927 0.43113 0.0
C4442 C 0.55441 0.06357 0.4467 0.0
C4443 C 0.5507 0.07017 0.45829 0.0
C4444 C 0.55155 0.08252 0.45437 0.0
C4445 C 0.51603 0.11712 0.41412 0.0
C4446 C 0.50727 0.1131 0.42774 0.0
C4447 C 0.52849 0.11763 0.41518 0.0
C4448 C 0.53253 0.11431 0.42994 0.0
C4449 C 0.52381 0.11029 0.44358 0.0
C4450 C 0.51128 0.10969 0.4425 0.0
C4451 C 0.54561 0.11447 0.43083 0.0
C4452 C 0.54548 0.10256 0.43551 0.0
C4453 C 0.55796 0.12589 0.42588 0.0
C4454 C 0.55892 0.13903 0.42173 0.0
C4455 C 0.55427 0.14528 0.43284 0.0
C4456 C 0.55507 0.15758 0.4288 0.0
C4457 C 0.56058 0.16379 0.41372 0.0
C4458 C 0.56534 0.15773 0.40267 0.0
C4459 C 0.56455 0.14542 0.40665 0.0
H4460 H 0.56119 0.17332 0.41061 0.0
H4461 H 0.55376 0.05401 0.44976 0.0
H4462 H 0.50033 0.59223 0.93144 0.0
H4463 H 0.47869 0.57104 0.93395 0.0
H4464 H 0.45742 0.59171 0.91906 0.0
H4465 H 0.47907 0.61296 0.91643 0.0
H4466 H 0.44575 0.57336 0.94698 0.0
H4467 H 0.46128 0.57463 0.89146 0.0
H4468 H 0.47797 0.57714 0.87043 0.0
H4469 H 0.47964 0.54327 0.89091 0.0
H4470 H 0.46309 0.54069 0.91224 0.0
H4471 H 0.38225 0.51562 0.9279 0.0
H4472 H 0.40325 0.53734 0.92835 0.0
H4473 H 0.42621 0.51664 0.93068 0.0
H4474 H 0.40534 0.49491 0.92892 0.0
H4475 H 0.43714 0.53556 0.9094 0.0
H4476 H 0.42169 0.5337 0.96472 0.0
H4477 H 0.40556 0.53119 0.98655 0.0
H4478 H 0.40424 0.56575 0.96788 0.0
H4479 H 0.42022 0.56836 0.9458 0.0
C4480 C 0.49102 0.59227 0.92887 0.0
C4481 C 0.49134 0.60419 0.92369 0.0
C4482 C 0.4787 0.58019 0.93026 0.0
C4483 C 0.46651 0.57985 0.92662 0.0
C4484 C 0.46675 0.59181 0.92192 0.0
C4485 C 0.47909 0.60387 0.92032 0.0
C4486 C 0.45357 0.56687 0.92704 0.0
C4487 C 0.44374 0.56511 0.93868 0.0
C4488 C 0.45119 0.55608 0.91643 0.0
C4489 C 0.46106 0.55756 0.90354 0.0
C4490 C 0.46529 0.56779 0.89157 0.0
C4491 C 0.47471 0.56921 0.87958 0.0
C4492 C 0.47989 0.56039 0.87936 0.0
C4493 C 0.47563 0.55011 0.89111 0.0
C4494 C 0.46623 0.54865 0.90314 0.0
C4495 C 0.39175 0.51565 0.92838 0.0
C4496 C 0.39203 0.50344 0.92832 0.0
C4497 C 0.40378 0.52812 0.9289 0.0
C4498 C 0.41634 0.52866 0.92977 0.0
C4499 C 0.41664 0.5165 0.93005 0.0
C4500 C 0.40465 0.50404 0.92926 0.0
C4501 C 0.42921 0.54185 0.92953 0.0
C4502 C 0.43906 0.54372 0.91782 0.0
C4503 C 0.43164 0.55267 0.94022 0.0
C4504 C 0.42205 0.55115 0.95351 0.0
C4505 C 0.41788 0.5407 0.9652 0.0
C4506 C 0.40878 0.53928 0.97763 0.0
C4507 C 0.40385 0.54829 0.97858 0.0
C4508 C 0.40805 0.55877 0.96712 0.0
C4509 C 0.41714 0.56024 0.95465 0.0
H4510 H 0.39681 0.54716 0.98821 0.0
H4511 H 0.48718 0.56151 0.87007 0.0
loop_
_geom_bond_atom_site_label_1
_geom_bond_atom_site_label_2
_geom_bond_distance
_geom_bond_site_symmetry_2
_ccdc_geom_bond_type
Li0 N17 1.990 . S
Li0 O60 1.956 . S
Li0 O61 1.970 . S
Li0 O62 1.961 . S
Li1 N25 1.990 . S
Li1 O60 1.970 . S
Li1 O61 1.956 . S
Li1 O63 1.961 . S
Li2 N47 1.990 . S
Li2 O60 1.961 . S
Li2 O62 1.956 . S
Li2 O63 1.970 . S
Li3 N53 1.990 . S
Li3 O61 1.961 . S
Li3 O62 1.970 . S
Li3 O63 1.956 . S
C4 C6 1.348 . S
C4 C7 1.356 . S
C4 O60 1.325 . S
N5 C8 1.314 . S
N5 C9 1.279 . S
C6 C4 1.348 . S
C6 C8 1.353 . S
C6 H64 0.929 . S
C7 C4 1.356 . S
C7 C9 1.358 . S
C7 H65 0.930 . S
C8 N5 1.314 . S
C8 C6 1.353 . S
C8 H66 0.930 . S
C9 N5 1.279 . S
C9 C7 1.358 . S
C9 H67 0.930 . S
C10 C13 1.348 . S
C10 C14 1.356 . S
C10 O61 1.325 . S
C11 N12 1.279 . S
C11 C14 1.358 . S
C11 H68 0.930 . S
N12 C11 1.279 . S
N12 C15 1.314 . S
C13 C10 1.348 . S
C13 C15 1.353 . S
C13 H69 0.929 . S
C14 C10 1.356 . S
C14 C11 1.358 . S
C14 H70 0.930 . S
C15 N12 1.314 . S
C15 C13 1.353 . S
C15 H71 0.930 . S
C16 N17 1.314 . S
C16 C21 1.353 . S
C16 H22 0.930 . S
N17 Li0 1.990 . S
N17 C16 1.314 . S
N17 C19 1.279 . S
C18 C19 1.358 . S
C18 C20 1.356 . S
C18 H72 0.930 . S
C19 N17 1.279 . S
C19 C18 1.358 . S
C19 H23 0.930 . S
C20 C18 1.356 . S
C20 C21 1.348 . S
C21 C16 1.353 . S
C21 C20 1.348 . S
C21 H73 0.929 . S
H22 C16 0.930 . S
H23 C19 0.930 . S
C24 N25 1.314 . S
C24 C26 1.353 . S
C24 H30 0.930 . S
N25 Li1 1.990 . S
N25 C24 1.314 . S
N25 C28 1.279 . S
C26 C24 1.353 . S
C26 C29 1.348 . S
C26 H74 0.929 . S
C27 C28 1.358 . S
C27 C29 1.356 . S
C27 H75 0.930 . S
C28 N25 1.279 . S
C28 C27 1.358 . S
C28 H31 0.930 . S
C29 C26 1.348 . S
C29 C27 1.356 . S
H30 C24 0.930 . S
H31 C28 0.930 . S
C32 C34 1.348 . S
C32 C35 1.356 . S
C32 O62 1.325 . S
N33 C36 1.314 . S
N33 C37 1.279 . S
C34 C32 1.348 . S
C34 C36 1.353 . S
C34 H76 0.929 . S
C35 C32 1.356 . S
C35 C37 1.358 . S
C35 H77 0.930 . S
C36 N33 1.314 . S
C36 C34 1.353 . S
C36 H78 0.930 . S
C37 N33 1.279 . S
C37 C35 1.358 . S
C37 H79 0.930 . S
C38 C39 1.348 . S
C38 C40 1.356 . S
C38 O63 1.325 . S
C39 C38 1.348 . S
C39 C41 1.353 . S
C39 H80 0.929 . S
C40 C38 1.356 . S
C40 C42 1.358 . S
C40 H81 0.930 . S
C41 C39 1.353 . S
C41 N43 1.314 . S
C41 H82 0.930 . S
C42 C40 1.358 . S
C42 N43 1.279 . S
C42 H83 0.930 . S
N43 C41 1.314 . S
N43 C42 1.279 . S
C44 C46 1.353 . S
C44 N47 1.314 . S
C44 H50 0.930 . S
C45 N47 1.279 . S
C45 C48 1.358 . S
C45 H51 0.930 . S
C46 C44 1.353 . S
C46 C49 1.348 . S
C46 H84 0.929 . S
N47 Li2 1.990 . S
N47 C44 1.314 . S
N47 C45 1.279 . S
C48 C45 1.358 . S
C48 C49 1.356 . S
C48 H85 0.930 . S
C49 C46 1.348 . S
C49 C48 1.356 . S
H50 C44 0.930 . S
H51 C45 0.930 . S
C52 N53 1.314 . S
C52 C54 1.353 . S
C52 H58 0.930 . S
N53 Li3 1.990 . S
N53 C52 1.314 . S
N53 C56 1.279 . S
C54 C52 1.353 . S
C54 C57 1.348 . S
C54 H86 0.929 . S
C55 C56 1.358 . S
C55 C57 1.356 . S
C55 H87 0.930 . S
C56 N53 1.279 . S
C56 C55 1.358 . S
C56 H59 0.930 . S
C57 C54 1.348 . S
C57 C55 1.356 . S
H58 C52 0.930 . S
H59 C56 0.930 . S
O60 Li0 1.956 . S
O60 Li1 1.970 . S
O60 Li2 1.961 . S
O60 C4 1.325 . S
O61 Li0 1.970 . S
O61 Li1 1.956 . S
O61 Li3 1.961 . S
O61 C10 1.325 . S
O62 Li0 1.961 . S
O62 Li2 1.956 . S
O62 Li3 1.970 . S
O62 C32 1.325 . S
O63 Li1 1.961 . S
O63 Li2 1.970 . S
O63 Li3 1.956 . S
O63 C38 1.325 . S
H64 C6 0.929 . S
H65 C7 0.930 . S
H66 C8 0.930 . S
H67 C9 0.930 . S
H68 C11 0.930 . S
H69 C13 0.929 . S
H70 C14 0.930 . S
H71 C15 0.930 . S
H72 C18 0.930 . S
H73 C21 0.929 . S
H74 C26 0.929 . S
H75 C27 0.930 . S
H76 C34 0.929 . S
H77 C35 0.930 . S
H78 C36 0.930 . S
H79 C37 0.930 . S
H80 C39 0.929 . S
H81 C40 0.930 . S
H82 C41 0.930 . S
H83 C42 0.930 . S
H84 C46 0.929 . S
H85 C48 0.930 . S
H86 C54 0.929 . S
H87 C55 0.930 . S
Li88 N105 1.990 . S
Li88 O148 1.956 . S
Li88 O149 1.970 . S
Li88 O150 1.961 . S
Li89 N113 1.990 . S
Li89 O148 1.970 . S
Li89 O149 1.956 . S
Li89 O151 1.961 . S
Li90 N135 1.990 . S
Li90 O148 1.961 . S
Li90 O150 1.956 . S
Li90 O151 1.970 . S
Li91 N141 1.990 . S
Li91 O149 1.961 . S
Li91 O150 1.970 . S
Li91 O151 1.956 . S
C92 C94 1.348 . S
C92 C95 1.356 . S
C92 O148 1.325 . S
N93 C96 1.314 . S
N93 C97 1.279 . S
C94 C92 1.348 . S
C94 C96 1.353 . S
C94 H152 0.929 . S
C95 C92 1.356 . S
C95 C97 1.358 . S
C95 H153 0.930 . S
C96 N93 1.314 . S
C96 C94 1.353 . S
C96 H154 0.930 . S
C97 N93 1.279 . S
C97 C95 1.358 . S
C97 H155 0.930 . S
C98 C101 1.348 . S
C98 C102 1.356 . S
C98 O149 1.325 . S
C99 N100 1.279 . S
C99 C102 1.358 . S
C99 H156 0.930 . S
N100 C99 1.279 . S
N100 C103 1.314 . S
C101 C98 1.348 . S
C101 C103 1.353 . S
C101 H157 0.929 . S
C102 C98 1.356 . S
C102 C99 1.358 . S
C102 H158 0.930 . S
C103 N100 1.314 . S
C103 C101 1.353 . S
C103 H159 0.930 . S
C104 N105 1.314 . S
C104 C109 1.353 . S
C104 H110 0.930 . S
N105 Li88 1.990 . S
N105 C104 1.314 . S
N105 C107 1.279 . S
C106 C107 1.358 . S
C106 C108 1.356 . S
C106 H160 0.930 . S
C107 N105 1.279 . S
C107 C106 1.358 . S
C107 H111 0.930 . S
C108 C106 1.356 . S
C108 C109 1.348 . S
C109 C104 1.353 . S
C109 C108 1.348 . S
C109 H161 0.929 . S
H110 C104 0.930 . S
H111 C107 0.930 . S
C112 N113 1.314 . S
C112 C114 1.353 . S
C112 H118 0.930 . S
N113 Li89 1.990 . S
N113 C112 1.314 . S
N113 C116 1.279 . S
C114 C112 1.353 . S
C114 C117 1.348 . S
C114 H162 0.929 . S
C115 C116 1.358 . S
C115 C117 1.356 . S
C115 H163 0.930 . S
C116 N113 1.279 . S
C116 C115 1.358 . S
C116 H119 0.930 . S
C117 C114 1.348 . S
C117 C115 1.356 . S
H118 C112 0.930 . S
H119 C116 0.930 . S
C120 C122 1.348 . S
C120 C123 1.356 . S
C120 O150 1.325 . S
N121 C124 1.314 . S
N121 C125 1.279 . S
C122 C120 1.348 . S
C122 C124 1.353 . S
C122 H164 0.929 . S
C123 C120 1.356 . S
C123 C125 1.358 . S
C123 H165 0.930 . S
C124 N121 1.314 . S
C124 C122 1.353 . S
C124 H166 0.930 . S
C125 N121 1.279 . S
C125 C123 1.358 . S
C125 H167 0.930 . S
C126 C127 1.348 . S
C126 C128 1.356 . S
C126 O151 1.325 . S
C127 C126 1.348 . S
C127 C129 1.353 . S
C127 H168 0.929 . S
C128 C126 1.356 . S
C128 C130 1.358 . S
C128 H169 0.930 . S
C129 C127 1.353 . S
C129 N131 1.314 . S
C129 H170 0.930 . S
C130 C128 1.358 . S
C130 N131 1.279 . S
C130 H171 0.930 . S
N131 C129 1.314 . S
N131 C130 1.279 . S
C132 C134 1.353 . S
C132 N135 1.314 . S
C132 H138 0.930 . S
C133 N135 1.279 . S
C133 C136 1.358 . S
C133 H139 0.930 . S
C134 C132 1.353 . S
C134 C137 1.348 . S
C134 H172 0.929 . S
N135 Li90 1.990 . S
N135 C132 1.314 . S
N135 C133 1.279 . S
C136 C133 1.358 . S
C136 C137 1.356 . S
C136 H173 0.930 . S
C137 C134 1.348 . S
C137 C136 1.356 . S
H138 C132 0.930 . S
H139 C133 0.930 . S
C140 N141 1.314 . S
C140 C142 1.353 . S
C140 H146 0.930 . S
N141 Li91 1.990 . S
N141 C140 1.314 . S
N141 C144 1.279 . S
C142 C140 1.353 . S
C142 C145 1.348 . S
C142 H174 0.929 . S
C143 C144 1.358 . S
C143 C145 1.356 . S
C143 H175 0.930 . S
C144 N141 1.279 . S
C144 C143 1.358 . S
C144 H147 0.930 . S
C145 C142 1.348 . S
C145 C143 1.356 . S
H146 C140 0.930 . S
H147 C144 0.930 . S
O148 Li88 1.956 . S
O148 Li89 1.970 . S
O148 Li90 1.961 . S
O148 C92 1.325 . S
O149 Li88 1.970 . S
O149 Li89 1.956 . S
O149 Li91 1.961 . S
O149 C98 1.325 . S
O150 Li88 1.961 . S
O150 Li90 1.956 . S
O150 Li91 1.970 . S
O150 C120 1.325 . S
O151 Li89 1.961 . S
O151 Li90 1.970 . S
O151 Li91 1.956 . S
O151 C126 1.325 . S
H152 C94 0.929 . S
H153 C95 0.930 . S
H154 C96 0.930 . S
H155 C97 0.930 . S
H156 C99 0.930 . S
H157 C101 0.929 . S
H158 C102 0.930 . S
H159 C103 0.930 . S
H160 C106 0.930 . S
H161 C109 0.929 . S
H162 C114 0.929 . S
H163 C115 0.930 . S
H164 C122 0.929 . S
H165 C123 0.930 . S
H166 C124 0.930 . S
H167 C125 0.930 . S
H168 C127 0.929 . S
H169 C128 0.930 . S
H170 C129 0.930 . S
H171 C130 0.930 . S
H172 C134 0.929 . S
H173 C136 0.930 . S
H174 C142 0.929 . S
H175 C143 0.930 . S
Li176 N193 1.990 . S
Li176 O236 1.956 . S
Li176 O237 1.970 . S
Li176 O238 1.961 . S
Li177 N201 1.990 . S
Li177 O236 1.970 . S
Li177 O237 1.956 . S
Li177 O239 1.961 . S
Li178 N223 1.990 . S
Li178 O236 1.961 . S
Li178 O238 1.956 . S
Li178 O239 1.970 . S
Li179 N229 1.990 . S
Li179 O237 1.961 . S
Li179 O238 1.970 . S
Li179 O239 1.956 . S
C180 C182 1.348 . S
C180 C183 1.356 . S
C180 O236 1.325 . S
N181 C184 1.314 . S
N181 C185 1.279 . S
C182 C180 1.348 . S
C182 C184 1.353 . S
C182 H240 0.929 . S
C183 C180 1.356 . S
C183 C185 1.358 . S
C183 H241 0.930 . S
C184 N181 1.314 . S
C184 C182 1.353 . S
C184 H242 0.930 . S
C185 N181 1.279 . S
C185 C183 1.358 . S
C185 H243 0.930 . S
C186 C189 1.348 . S
C186 C190 1.356 . S
C186 O237 1.325 . S
C187 N188 1.279 . S
C187 C190 1.358 . S
C187 H244 0.930 . S
N188 C187 1.279 . S
N188 C191 1.314 . S
C189 C186 1.348 . S
C189 C191 1.353 . S
C189 H245 0.929 . S
C190 C186 1.356 . S
C190 C187 1.358 . S
C190 H246 0.930 . S
C191 N188 1.314 . S
C191 C189 1.353 . S
C191 H247 0.930 . S
C192 N193 1.314 . S
C192 C197 1.353 . S
C192 H198 0.930 . S
N193 Li176 1.990 . S
N193 C192 1.314 . S
N193 C195 1.279 . S
C194 C195 1.358 . S
C194 C196 1.356 . S
C194 H248 0.930 . S
C195 N193 1.279 . S
C195 C194 1.358 . S
C195 H199 0.930 . S
C196 C194 1.356 . S
C196 C197 1.348 . S
C197 C192 1.353 . S
C197 C196 1.348 . S
C197 H249 0.929 . S
H198 C192 0.930 . S
H199 C195 0.930 . S
C200 N201 1.314 . S
C200 C202 1.353 . S
C200 H206 0.930 . S
N201 Li177 1.990 . S
N201 C200 1.314 . S
N201 C204 1.279 . S
C202 C200 1.353 . S
C202 C205 1.348 . S
C202 H250 0.929 . S
C203 C204 1.358 . S
C203 C205 1.356 . S
C203 H251 0.930 . S
C204 N201 1.279 . S
C204 C203 1.358 . S
C204 H207 0.930 . S
C205 C202 1.348 . S
C205 C203 1.356 . S
H206 C200 0.930 . S
H207 C204 0.930 . S
C208 C210 1.348 . S
C208 C211 1.356 . S
C208 O238 1.325 . S
N209 C212 1.314 . S
N209 C213 1.279 . S
C210 C208 1.348 . S
C210 C212 1.353 . S
C210 H252 0.929 . S
C211 C208 1.356 . S
C211 C213 1.358 . S
C211 H253 0.930 . S
C212 N209 1.314 . S
C212 C210 1.353 . S
C212 H254 0.930 . S
C213 N209 1.279 . S
C213 C211 1.358 . S
C213 H255 0.930 . S
C214 C215 1.348 . S
C214 C216 1.356 . S
C214 O239 1.325 . S
C215 C214 1.348 . S
C215 C217 1.353 . S
C215 H256 0.929 . S
C216 C214 1.356 . S
C216 C218 1.358 . S
C216 H257 0.930 . S
C217 C215 1.353 . S
C217 N219 1.314 . S
C217 H258 0.930 . S
C218 C216 1.358 . S
C218 N219 1.279 . S
C218 H259 0.930 . S
N219 C217 1.314 . S
N219 C218 1.279 . S
C220 C222 1.353 . S
C220 N223 1.314 . S
C220 H226 0.930 . S
C221 N223 1.279 . S
C221 C224 1.358 . S
C221 H227 0.930 . S
C222 C220 1.353 . S
C222 C225 1.348 . S
C222 H260 0.929 . S
N223 Li178 1.990 . S
N223 C220 1.314 . S
N223 C221 1.279 . S
C224 C221 1.358 . S
C224 C225 1.356 . S
C224 H261 0.930 . S
C225 C222 1.348 . S
C225 C224 1.356 . S
H226 C220 0.930 . S
H227 C221 0.930 . S
C228 N229 1.314 . S
C228 C230 1.353 . S
C228 H234 0.930 . S
N229 Li179 1.990 . S
N229 C228 1.314 . S
N229 C232 1.279 . S
C230 C228 1.353 . S
C230 C233 1.348 . S
C230 H262 0.929 . S
C231 C232 1.358 . S
C231 C233 1.356 . S
C231 H263 0.930 . S
C232 N229 1.279 . S
C232 C231 1.358 . S
C232 H235 0.930 . S
C233 C230 1.348 . S
C233 C231 1.356 . S
H234 C228 0.930 . S
H235 C232 0.930 . S
O236 Li176 1.956 . S
O236 Li177 1.970 . S
O236 Li178 1.961 . S
O236 C180 1.325 . S
O237 Li176 1.970 . S
O237 Li177 1.956 . S
O237 Li179 1.961 . S
O237 C186 1.325 . S
O238 Li176 1.961 . S
O238 Li178 1.956 . S
O238 Li179 1.970 . S
O238 C208 1.325 . S
O239 Li177 1.961 . S
O239 Li178 1.970 . S
O239 Li179 1.956 . S
O239 C214 1.325 . S
H240 C182 0.929 . S
H241 C183 0.930 . S
H242 C184 0.930 . S
H243 C185 0.930 . S
H244 C187 0.930 . S
H245 C189 0.929 . S
H246 C190 0.930 . S
H247 C191 0.930 . S
H248 C194 0.930 . S
H249 C197 0.929 . S
H250 C202 0.929 . S
H251 C203 0.930 . S
H252 C210 0.929 . S
H253 C211 0.930 . S
H254 C212 0.930 . S
H255 C213 0.930 . S
H256 C215 0.929 . S
H257 C216 0.930 . S
H258 C217 0.930 . S
H259 C218 0.930 . S
H260 C222 0.929 . S
H261 C224 0.930 . S
H262 C230 0.929 . S
H263 C231 0.930 . S
Li264 N281 1.990 . S
Li264 O324 1.956 . S
Li264 O325 1.970 . S
Li264 O326 1.961 . S
Li265 N289 1.990 . S
Li265 O324 1.970 . S
Li265 O325 1.956 . S
Li265 O327 1.961 . S
Li266 N311 1.990 . S
Li266 O324 1.961 . S
Li266 O326 1.956 . S
Li266 O327 1.970 . S
Li267 N317 1.990 . S
Li267 O325 1.961 . S
Li267 O326 1.970 . S
Li267 O327 1.956 . S
C268 C270 1.348 . S
C268 C271 1.356 . S
C268 O324 1.325 . S
N269 C272 1.314 . S
N269 C273 1.279 . S
C270 C268 1.348 . S
C270 C272 1.353 . S
C270 H328 0.929 . S
C271 C268 1.356 . S
C271 C273 1.358 . S
C271 H329 0.930 . S
C272 N269 1.314 . S
C272 C270 1.353 . S
C272 H330 0.930 . S
C273 N269 1.279 . S
C273 C271 1.358 . S
C273 H331 0.930 . S
C274 C277 1.348 . S
C274 C278 1.356 . S
C274 O325 1.325 . S
C275 N276 1.279 . S
C275 C278 1.358 . S
C275 H332 0.930 . S
N276 C275 1.279 . S
N276 C279 1.314 . S
C277 C274 1.348 . S
C277 C279 1.353 . S
C277 H333 0.929 . S
C278 C274 1.356 . S
C278 C275 1.358 . S
C278 H334 0.930 . S
C279 N276 1.314 . S
C279 C277 1.353 . S
C279 H335 0.930 . S
C280 N281 1.314 . S
C280 C285 1.353 . S
C280 H286 0.930 . S
N281 Li264 1.990 . S
N281 C280 1.314 . S
N281 C283 1.279 . S
C282 C283 1.358 . S
C282 C284 1.356 . S
C282 H336 0.930 . S
C283 N281 1.279 . S
C283 C282 1.358 . S
C283 H287 0.930 . S
C284 C282 1.356 . S
C284 C285 1.348 . S
C285 C280 1.353 . S
C285 C284 1.348 . S
C285 H337 0.929 . S
H286 C280 0.930 . S
H287 C283 0.930 . S
C288 N289 1.314 . S
C288 C290 1.353 . S
C288 H294 0.930 . S
N289 Li265 1.990 . S
N289 C288 1.314 . S
N289 C292 1.279 . S
C290 C288 1.353 . S
C290 C293 1.348 . S
C290 H338 0.929 . S
C291 C292 1.358 . S
C291 C293 1.356 . S
C291 H339 0.930 . S
C292 N289 1.279 . S
C292 C291 1.358 . S
C292 H295 0.930 . S
C293 C290 1.348 . S
C293 C291 1.356 . S
H294 C288 0.930 . S
H295 C292 0.930 . S
C296 C298 1.348 . S
C296 C299 1.356 . S
C296 O326 1.325 . S
N297 C300 1.314 . S
N297 C301 1.279 . S
C298 C296 1.348 . S
C298 C300 1.353 . S
C298 H340 0.929 . S
C299 C296 1.356 . S
C299 C301 1.358 . S
C299 H341 0.930 . S
C300 N297 1.314 . S
C300 C298 1.353 . S
C300 H342 0.930 . S
C301 N297 1.279 . S
C301 C299 1.358 . S
C301 H343 0.930 . S
C302 C303 1.348 . S
C302 C304 1.356 . S
C302 O327 1.325 . S
C303 C302 1.348 . S
C303 C305 1.353 . S
C303 H344 0.929 . S
C304 C302 1.356 . S
C304 C306 1.358 . S
C304 H345 0.930 . S
C305 C303 1.353 . S
C305 N307 1.314 . S
C305 H346 0.930 . S
C306 C304 1.358 . S
C306 N307 1.279 . S
C306 H347 0.930 . S
N307 C305 1.314 . S
N307 C306 1.279 . S
C308 C310 1.353 . S
C308 N311 1.314 . S
C308 H314 0.930 . S
C309 N311 1.279 . S
C309 C312 1.358 . S
C309 H315 0.930 . S
C310 C308 1.353 . S
C310 C313 1.348 . S
C310 H348 0.929 . S
N311 Li266 1.990 . S
N311 C308 1.314 . S
N311 C309 1.279 . S
C312 C309 1.358 . S
C312 C313 1.356 . S
C312 H349 0.930 . S
C313 C310 1.348 . S
C313 C312 1.356 . S
H314 C308 0.930 . S
H315 C309 0.930 . S
C316 N317 1.314 . S
C316 C318 1.353 . S
C316 H322 0.930 . S
N317 Li267 1.990 . S
N317 C316 1.314 . S
N317 C320 1.279 . S
C318 C316 1.353 . S
C318 C321 1.348 . S
C318 H350 0.929 . S
C319 C320 1.358 . S
C319 C321 1.356 . S
C319 H351 0.930 . S
C320 N317 1.279 . S
C320 C319 1.358 . S
C320 H323 0.930 . S
C321 C318 1.348 . S
C321 C319 1.356 . S
H322 C316 0.930 . S
H323 C320 0.930 . S
O324 Li264 1.956 . S
O324 Li265 1.970 . S
O324 Li266 1.961 . S
O324 C268 1.325 . S
O325 Li264 1.970 . S
O325 Li265 1.956 . S
O325 Li267 1.961 . S
O325 C274 1.325 . S
O326 Li264 1.961 . S
O326 Li266 1.956 . S
O326 Li267 1.970 . S
O326 C296 1.325 . S
O327 Li265 1.961 . S
O327 Li266 1.970 . S
O327 Li267 1.956 . S
O327 C302 1.325 . S
H328 C270 0.929 . S
H329 C271 0.930 . S
H330 C272 0.930 . S
H331 C273 0.930 . S
H332 C275 0.930 . S
H333 C277 0.929 . S
H334 C278 0.930 . S
H335 C279 0.930 . S
H336 C282 0.930 . S
H337 C285 0.929 . S
H338 C290 0.929 . S
H339 C291 0.930 . S
H340 C298 0.929 . S
H341 C299 0.930 . S
H342 C300 0.930 . S
H343 C301 0.930 . S
H344 C303 0.929 . S
H345 C304 0.930 . S
H346 C305 0.930 . S
H347 C306 0.930 . S
H348 C310 0.929 . S
H349 C312 0.930 . S
H350 C318 0.929 . S
H351 C319 0.930 . S
Li352 N369 1.990 . S
Li352 O412 1.956 . S
Li352 O413 1.970 . S
Li352 O414 1.961 . S
Li353 N377 1.990 . S
Li353 O412 1.970 . S
Li353 O413 1.956 . S
Li353 O415 1.961 . S
Li354 N399 1.990 . S
Li354 O412 1.961 . S
Li354 O414 1.956 . S
Li354 O415 1.970 . S
Li355 N405 1.990 . S
Li355 O413 1.961 . S
Li355 O414 1.970 . S
Li355 O415 1.956 . S
C356 C358 1.348 . S
C356 C359 1.356 . S
C356 O412 1.325 . S
N357 C360 1.314 . S
N357 C361 1.279 . S
C358 C356 1.348 . S
C358 C360 1.353 . S
C358 H416 0.929 . S
C359 C356 1.356 . S
C359 C361 1.358 . S
C359 H417 0.930 . S
C360 N357 1.314 . S
C360 C358 1.353 . S
C360 H418 0.930 . S
C361 N357 1.279 . S
C361 C359 1.358 . S
C361 H419 0.930 . S
C362 C365 1.348 . S
C362 C366 1.356 . S
C362 O413 1.325 . S
C363 N364 1.279 . S
C363 C366 1.358 . S
C363 H420 0.930 . S
N364 C363 1.279 . S
N364 C367 1.314 . S
C365 C362 1.348 . S
C365 C367 1.353 . S
C365 H421 0.929 . S
C366 C362 1.356 . S
C366 C363 1.358 . S
C366 H422 0.930 . S
C367 N364 1.314 . S
C367 C365 1.353 . S
C367 H423 0.930 . S
C368 N369 1.314 . S
C368 C373 1.353 . S
C368 H374 0.930 . S
N369 Li352 1.990 . S
N369 C368 1.314 . S
N369 C371 1.279 . S
C370 C371 1.358 . S
C370 C372 1.356 . S
C370 H424 0.930 . S
C371 N369 1.279 . S
C371 C370 1.358 . S
C371 H375 0.930 . S
C372 C370 1.356 . S
C372 C373 1.348 . S
C373 C368 1.353 . S
C373 C372 1.348 . S
C373 H425 0.929 . S
H374 C368 0.930 . S
H375 C371 0.930 . S
C376 N377 1.314 . S
C376 C378 1.353 . S
C376 H382 0.930 . S
N377 Li353 1.990 . S
N377 C376 1.314 . S
N377 C380 1.279 . S
C378 C376 1.353 . S
C378 C381 1.348 . S
C378 H426 0.929 . S
C379 C380 1.358 . S
C379 C381 1.356 . S
C379 H427 0.930 . S
C380 N377 1.279 . S
C380 C379 1.358 . S
C380 H383 0.930 . S
C381 C378 1.348 . S
C381 C379 1.356 . S
H382 C376 0.930 . S
H383 C380 0.930 . S
C384 C386 1.348 . S
C384 C387 1.356 . S
C384 O414 1.325 . S
N385 C388 1.314 . S
N385 C389 1.279 . S
C386 C384 1.348 . S
C386 C388 1.353 . S
C386 H428 0.929 . S
C387 C384 1.356 . S
C387 C389 1.358 . S
C387 H429 0.930 . S
C388 N385 1.314 . S
C388 C386 1.353 . S
C388 H430 0.930 . S
C389 N385 1.279 . S
C389 C387 1.358 . S
C389 H431 0.930 . S
C390 C391 1.348 . S
C390 C392 1.356 . S
C390 O415 1.325 . S
C391 C390 1.348 . S
C391 C393 1.353 . S
C391 H432 0.929 . S
C392 C390 1.356 . S
C392 C394 1.358 . S
C392 H433 0.930 . S
C393 C391 1.353 . S
C393 N395 1.314 . S
C393 H434 0.930 . S
C394 C392 1.358 . S
C394 N395 1.279 . S
C394 H435 0.930 . S
N395 C393 1.314 . S
N395 C394 1.279 . S
C396 C398 1.353 . S
C396 N399 1.314 . S
C396 H402 0.930 . S
C397 N399 1.279 . S
C397 C400 1.358 . S
C397 H403 0.930 . S
C398 C396 1.353 . S
C398 C401 1.348 . S
C398 H436 0.929 . S
N399 Li354 1.990 . S
N399 C396 1.314 . S
N399 C397 1.279 . S
C400 C397 1.358 . S
C400 C401 1.356 . S
C400 H437 0.930 . S
C401 C398 1.348 . S
C401 C400 1.356 . S
H402 C396 0.930 . S
H403 C397 0.930 . S
C404 N405 1.314 . S
C404 C406 1.353 . S
C404 H410 0.930 . S
N405 Li355 1.990 . S
N405 C404 1.314 . S
N405 C408 1.279 . S
C406 C404 1.353 . S
C406 C409 1.348 . S
C406 H438 0.929 . S
C407 C408 1.358 . S
C407 C409 1.356 . S
C407 H439 0.930 . S
C408 N405 1.279 . S
C408 C407 1.358 . S
C408 H411 0.930 . S
C409 C406 1.348 . S
C409 C407 1.356 . S
H410 C404 0.930 . S
H411 C408 0.930 . S
O412 Li352 1.956 . S
O412 Li353 1.970 . S
O412 Li354 1.961 . S
O412 C356 1.325 . S
O413 Li352 1.970 . S
O413 Li353 1.956 . S
O413 Li355 1.961 . S
O413 C362 1.325 . S
O414 Li352 1.961 . S
O414 Li354 1.956 . S
O414 Li355 1.970 . S
O414 C384 1.325 . S
O415 Li353 1.961 . S
O415 Li354 1.970 . S
O415 Li355 1.956 . S
O415 C390 1.325 . S
H416 C358 0.929 . S
H417 C359 0.930 . S
H418 C360 0.930 . S
H419 C361 0.930 . S
H420 C363 0.930 . S
H421 C365 0.929 . S
H422 C366 0.930 . S
H423 C367 0.930 . S
H424 C370 0.930 . S
H425 C373 0.929 . S
H426 C378 0.929 . S
H427 C379 0.930 . S
H428 C386 0.929 . S
H429 C387 0.930 . S
H430 C388 0.930 . S
H431 C389 0.930 . S
H432 C391 0.929 . S
H433 C392 0.930 . S
H434 C393 0.930 . S
H435 C394 0.930 . S
H436 C398 0.929 . S
H437 C400 0.930 . S
H438 C406 0.929 . S
H439 C407 0.930 . S
Li440 N457 1.990 . S
Li440 O500 1.956 . S
Li440 O501 1.970 . S
Li440 O502 1.961 . S
Li441 N465 1.990 . S
Li441 O500 1.970 . S
Li441 O501 1.956 . S
Li441 O503 1.961 . S
Li442 N487 1.990 . S
Li442 O500 1.961 . S
Li442 O502 1.956 . S
Li442 O503 1.970 . S
Li443 N493 1.990 . S
Li443 O501 1.961 . S
Li443 O502 1.970 . S
Li443 O503 1.956 . S
C444 C446 1.348 . S
C444 C447 1.356 . S
C444 O500 1.325 . S
N445 C448 1.314 . S
N445 C449 1.279 . S
C446 C444 1.348 . S
C446 C448 1.353 . S
C446 H504 0.929 . S
C447 C444 1.356 . S
C447 C449 1.358 . S
C447 H505 0.930 . S
C448 N445 1.314 . S
C448 C446 1.353 . S
C448 H506 0.930 . S
C449 N445 1.279 . S
C449 C447 1.358 . S
C449 H507 0.930 . S
C450 C453 1.348 . S
C450 C454 1.356 . S
C450 O501 1.325 . S
C451 N452 1.279 . S
C451 C454 1.358 . S
C451 H508 0.930 . S
N452 C451 1.279 . S
N452 C455 1.314 . S
C453 C450 1.348 . S
C453 C455 1.353 . S
C453 H509 0.929 . S
C454 C450 1.356 . S
C454 C451 1.358 . S
C454 H510 0.930 . S
C455 N452 1.314 . S
C455 C453 1.353 . S
C455 H511 0.930 . S
C456 N457 1.314 . S
C456 C461 1.353 . S
C456 H462 0.930 . S
N457 Li440 1.990 . S
N457 C456 1.314 . S
N457 C459 1.279 . S
C458 C459 1.358 . S
C458 C460 1.356 . S
C458 H512 0.930 . S
C459 N457 1.279 . S
C459 C458 1.358 . S
C459 H463 0.930 . S
C460 C458 1.356 . S
C460 C461 1.348 . S
C461 C456 1.353 . S
C461 C460 1.348 . S
C461 H513 0.929 . S
H462 C456 0.930 . S
H463 C459 0.930 . S
C464 N465 1.314 . S
C464 C466 1.353 . S
C464 H470 0.930 . S
N465 Li441 1.990 . S
N465 C464 1.314 . S
N465 C468 1.279 . S
C466 C464 1.353 . S
C466 C469 1.348 . S
C466 H514 0.929 . S
C467 C468 1.358 . S
C467 C469 1.356 . S
C467 H515 0.930 . S
C468 N465 1.279 . S
C468 C467 1.358 . S
C468 H471 0.930 . S
C469 C466 1.348 . S
C469 C467 1.356 . S
H470 C464 0.930 . S
H471 C468 0.930 . S
C472 C474 1.348 . S
C472 C475 1.356 . S
C472 O502 1.325 . S
N473 C476 1.314 . S
N473 C477 1.279 . S
C474 C472 1.348 . S
C474 C476 1.353 . S
C474 H516 0.929 . S
C475 C472 1.356 . S
C475 C477 1.358 . S
C475 H517 0.930 . S
C476 N473 1.314 . S
C476 C474 1.353 . S
C476 H518 0.930 . S
C477 N473 1.279 . S
C477 C475 1.358 . S
C477 H519 0.930 . S
C478 C479 1.348 . S
C478 C480 1.356 . S
C478 O503 1.325 . S
C479 C478 1.348 . S
C479 C481 1.353 . S
C479 H520 0.929 . S
C480 C478 1.356 . S
C480 C482 1.358 . S
C480 H521 0.930 . S
C481 C479 1.353 . S
C481 N483 1.314 . S
C481 H522 0.930 . S
C482 C480 1.358 . S
C482 N483 1.279 . S
C482 H523 0.930 . S
N483 C481 1.314 . S
N483 C482 1.279 . S
C484 C486 1.353 . S
C484 N487 1.314 . S
C484 H490 0.930 . S
C485 N487 1.279 . S
C485 C488 1.358 . S
C485 H491 0.930 . S
C486 C484 1.353 . S
C486 C489 1.348 . S
C486 H524 0.929 . S
N487 Li442 1.990 . S
N487 C484 1.314 . S
N487 C485 1.279 . S
C488 C485 1.358 . S
C488 C489 1.356 . S
C488 H525 0.930 . S
C489 C486 1.348 . S
C489 C488 1.356 . S
H490 C484 0.930 . S
H491 C485 0.930 . S
C492 N493 1.314 . S
C492 C494 1.353 . S
C492 H498 0.930 . S
N493 Li443 1.990 . S
N493 C492 1.314 . S
N493 C496 1.279 . S
C494 C492 1.353 . S
C494 C497 1.348 . S
C494 H526 0.929 . S
C495 C496 1.358 . S
C495 C497 1.356 . S
C495 H527 0.930 . S
C496 N493 1.279 . S
C496 C495 1.358 . S
C496 H499 0.930 . S
C497 C494 1.348 . S
C497 C495 1.356 . S
H498 C492 0.930 . S
H499 C496 0.930 . S
O500 Li440 1.956 . S
O500 Li441 1.970 . S
O500 Li442 1.961 . S
O500 C444 1.325 . S
O501 Li440 1.970 . S
O501 Li441 1.956 . S
O501 Li443 1.961 . S
O501 C450 1.325 . S
O502 Li440 1.961 . S
O502 Li442 1.956 . S
O502 Li443 1.970 . S
O502 C472 1.325 . S
O503 Li441 1.961 . S
O503 Li442 1.970 . S
O503 Li443 1.956 . S
O503 C478 1.325 . S
H504 C446 0.929 . S
H505 C447 0.930 . S
H506 C448 0.930 . S
H507 C449 0.930 . S
H508 C451 0.930 . S
H509 C453 0.929 . S
H510 C454 0.930 . S
H511 C455 0.930 . S
H512 C458 0.930 . S
H513 C461 0.929 . S
H514 C466 0.929 . S
H515 C467 0.930 . S
H516 C474 0.929 . S
H517 C475 0.930 . S
H518 C476 0.930 . S
H519 C477 0.930 . S
H520 C479 0.929 . S
H521 C480 0.930 . S
H522 C481 0.930 . S
H523 C482 0.930 . S
H524 C486 0.929 . S
H525 C488 0.930 . S
H526 C494 0.929 . S
H527 C495 0.930 . S
Li528 N545 1.990 . S
Li528 O588 1.956 . S
Li528 O589 1.970 . S
Li528 O590 1.961 . S
Li529 N553 1.990 . S
Li529 O588 1.970 . S
Li529 O589 1.956 . S
Li529 O591 1.961 . S
Li530 N575 1.990 . S
Li530 O588 1.961 . S
Li530 O590 1.956 . S
Li530 O591 1.970 . S
Li531 N581 1.990 . S
Li531 O589 1.961 . S
Li531 O590 1.970 . S
Li531 O591 1.956 . S
C532 C534 1.348 . S
C532 C535 1.356 . S
C532 O588 1.325 . S
N533 C536 1.314 . S
N533 C537 1.279 . S
C534 C532 1.348 . S
C534 C536 1.353 . S
C534 H592 0.929 . S
C535 C532 1.356 . S
C535 C537 1.358 . S
C535 H593 0.930 . S
C536 N533 1.314 . S
C536 C534 1.353 . S
C536 H594 0.930 . S
C537 N533 1.279 . S
C537 C535 1.358 . S
C537 H595 0.930 . S
C538 C541 1.348 . S
C538 C542 1.356 . S
C538 O589 1.325 . S
C539 N540 1.279 . S
C539 C542 1.358 . S
C539 H596 0.930 . S
N540 C539 1.279 . S
N540 C543 1.314 . S
C541 C538 1.348 . S
C541 C543 1.353 . S
C541 H597 0.929 . S
C542 C538 1.356 . S
C542 C539 1.358 . S
C542 H598 0.930 . S
C543 N540 1.314 . S
C543 C541 1.353 . S
C543 H599 0.930 . S
C544 N545 1.314 . S
C544 C549 1.353 . S
C544 H550 0.930 . S
N545 Li528 1.990 . S
N545 C544 1.314 . S
N545 C547 1.279 . S
C546 C547 1.358 . S
C546 C548 1.356 . S
C546 H600 0.930 . S
C547 N545 1.279 . S
C547 C546 1.358 . S
C547 H551 0.930 . S
C548 C546 1.356 . S
C548 C549 1.348 . S
C549 C544 1.353 . S
C549 C548 1.348 . S
C549 H601 0.929 . S
H550 C544 0.930 . S
H551 C547 0.930 . S
C552 N553 1.314 . S
C552 C554 1.353 . S
C552 H558 0.930 . S
N553 Li529 1.990 . S
N553 C552 1.314 . S
N553 C556 1.279 . S
C554 C552 1.353 . S
C554 C557 1.348 . S
C554 H602 0.929 . S
C555 C556 1.358 . S
C555 C557 1.356 . S
C555 H603 0.930 . S
C556 N553 1.279 . S
C556 C555 1.358 . S
C556 H559 0.930 . S
C557 C554 1.348 . S
C557 C555 1.356 . S
H558 C552 0.930 . S
H559 C556 0.930 . S
C560 C562 1.348 . S
C560 C563 1.356 . S
C560 O590 1.325 . S
N561 C564 1.314 . S
N561 C565 1.279 . S
C562 C560 1.348 . S
C562 C564 1.353 . S
C562 H604 0.929 . S
C563 C560 1.356 . S
C563 C565 1.358 . S
C563 H605 0.930 . S
C564 N561 1.314 . S
C564 C562 1.353 . S
C564 H606 0.930 . S
C565 N561 1.279 . S
C565 C563 1.358 . S
C565 H607 0.930 . S
C566 C567 1.348 . S
C566 C568 1.356 . S
C566 O591 1.325 . S
C567 C566 1.348 . S
C567 C569 1.353 . S
C567 H608 0.929 . S
C568 C566 1.356 . S
C568 C570 1.358 . S
C568 H609 0.930 . S
C569 C567 1.353 . S
C569 N571 1.314 . S
C569 H610 0.930 . S
C570 C568 1.358 . S
C570 N571 1.279 . S
C570 H611 0.930 . S
N571 C569 1.314 . S
N571 C570 1.279 . S
C572 C574 1.353 . S
C572 N575 1.314 . S
C572 H578 0.930 . S
C573 N575 1.279 . S
C573 C576 1.358 . S
C573 H579 0.930 . S
C574 C572 1.353 . S
C574 C577 1.348 . S
C574 H612 0.929 . S
N575 Li530 1.990 . S
N575 C572 1.314 . S
N575 C573 1.279 . S
C576 C573 1.358 . S
C576 C577 1.356 . S
C576 H613 0.930 . S
C577 C574 1.348 . S
C577 C576 1.356 . S
H578 C572 0.930 . S
H579 C573 0.930 . S
C580 N581 1.314 . S
C580 C582 1.353 . S
C580 H586 0.930 . S
N581 Li531 1.990 . S
N581 C580 1.314 . S
N581 C584 1.279 . S
C582 C580 1.353 . S
C582 C585 1.348 . S
C582 H614 0.929 . S
C583 C584 1.358 . S
C583 C585 1.356 . S
C583 H615 0.930 . S
C584 N581 1.279 . S
C584 C583 1.358 . S
C584 H587 0.930 . S
C585 C582 1.348 . S
C585 C583 1.356 . S
H586 C580 0.930 . S
H587 C584 0.930 . S
O588 Li528 1.956 . S
O588 Li529 1.970 . S
O588 Li530 1.961 . S
O588 C532 1.325 . S
O589 Li528 1.970 . S
O589 Li529 1.956 . S
O589 Li531 1.961 . S
O589 C538 1.325 . S
O590 Li528 1.961 . S
O590 Li530 1.956 . S
O590 Li531 1.970 . S
O590 C560 1.325 . S
O591 Li529 1.961 . S
O591 Li530 1.970 . S
O591 Li531 1.956 . S
O591 C566 1.325 . S
H592 C534 0.929 . S
H593 C535 0.930 . S
H594 C536 0.930 . S
H595 C537 0.930 . S
H596 C539 0.930 . S
H597 C541 0.929 . S
H598 C542 0.930 . S
H599 C543 0.930 . S
H600 C546 0.930 . S
H601 C549 0.929 . S
H602 C554 0.929 . S
H603 C555 0.930 . S
H604 C562 0.929 . S
H605 C563 0.930 . S
H606 C564 0.930 . S
H607 C565 0.930 . S
H608 C567 0.929 . S
H609 C568 0.930 . S
H610 C569 0.930 . S
H611 C570 0.930 . S
H612 C574 0.929 . S
H613 C576 0.930 . S
H614 C582 0.929 . S
H615 C583 0.930 . S
Li616 N633 1.990 . S
Li616 O676 1.956 . S
Li616 O677 1.970 . S
Li616 O678 1.961 . S
Li617 N641 1.990 . S
Li617 O676 1.970 . S
Li617 O677 1.956 . S
Li617 O679 1.961 . S
Li618 N663 1.990 . S
Li618 O676 1.961 . S
Li618 O678 1.956 . S
Li618 O679 1.970 . S
Li619 N669 1.990 . S
Li619 O677 1.961 . S
Li619 O678 1.970 . S
Li619 O679 1.956 . S
C620 C622 1.348 . S
C620 C623 1.356 . S
C620 O676 1.325 . S
N621 C624 1.314 . S
N621 C625 1.279 . S
C622 C620 1.348 . S
C622 C624 1.353 . S
C622 H680 0.929 . S
C623 C620 1.356 . S
C623 C625 1.358 . S
C623 H681 0.930 . S
C624 N621 1.314 . S
C624 C622 1.353 . S
C624 H682 0.930 . S
C625 N621 1.279 . S
C625 C623 1.358 . S
C625 H683 0.930 . S
C626 C629 1.348 . S
C626 C630 1.356 . S
C626 O677 1.325 . S
C627 N628 1.279 . S
C627 C630 1.358 . S
C627 H684 0.930 . S
N628 C627 1.279 . S
N628 C631 1.314 . S
C629 C626 1.348 . S
C629 C631 1.353 . S
C629 H685 0.929 . S
C630 C626 1.356 . S
C630 C627 1.358 . S
C630 H686 0.930 . S
C631 N628 1.314 . S
C631 C629 1.353 . S
C631 H687 0.930 . S
C632 N633 1.314 . S
C632 C637 1.353 . S
C632 H638 0.930 . S
N633 Li616 1.990 . S
N633 C632 1.314 . S
N633 C635 1.279 . S
C634 C635 1.358 . S
C634 C636 1.356 . S
C634 H688 0.930 . S
C635 N633 1.279 . S
C635 C634 1.358 . S
C635 H639 0.930 . S
C636 C634 1.356 . S
C636 C637 1.348 . S
C637 C632 1.353 . S
C637 C636 1.348 . S
C637 H689 0.929 . S
H638 C632 0.930 . S
H639 C635 0.930 . S
C640 N641 1.314 . S
C640 C642 1.353 . S
C640 H646 0.930 . S
N641 Li617 1.990 . S
N641 C640 1.314 . S
N641 C644 1.279 . S
C642 C640 1.353 . S
C642 C645 1.348 . S
C642 H690 0.929 . S
C643 C644 1.358 . S
C643 C645 1.356 . S
C643 H691 0.930 . S
C644 N641 1.279 . S
C644 C643 1.358 . S
C644 H647 0.930 . S
C645 C642 1.348 . S
C645 C643 1.356 . S
H646 C640 0.930 . S
H647 C644 0.930 . S
C648 C650 1.348 . S
C648 C651 1.356 . S
C648 O678 1.325 . S
N649 C652 1.314 . S
N649 C653 1.279 . S
C650 C648 1.348 . S
C650 C652 1.353 . S
C650 H692 0.929 . S
C651 C648 1.356 . S
C651 C653 1.358 . S
C651 H693 0.930 . S
C652 N649 1.314 . S
C652 C650 1.353 . S
C652 H694 0.930 . S
C653 N649 1.279 . S
C653 C651 1.358 . S
C653 H695 0.930 . S
C654 C655 1.348 . S
C654 C656 1.356 . S
C654 O679 1.325 . S
C655 C654 1.348 . S
C655 C657 1.353 . S
C655 H696 0.929 . S
C656 C654 1.356 . S
C656 C658 1.358 . S
C656 H697 0.930 . S
C657 C655 1.353 . S
C657 N659 1.314 . S
C657 H698 0.930 . S
C658 C656 1.358 . S
C658 N659 1.279 . S
C658 H699 0.930 . S
N659 C657 1.314 . S
N659 C658 1.279 . S
C660 C662 1.353 . S
C660 N663 1.314 . S
C660 H666 0.930 . S
C661 N663 1.279 . S
C661 C664 1.358 . S
C661 H667 0.930 . S
C662 C660 1.353 . S
C662 C665 1.348 . S
C662 H700 0.929 . S
N663 Li618 1.990 . S
N663 C660 1.314 . S
N663 C661 1.279 . S
C664 C661 1.358 . S
C664 C665 1.356 . S
C664 H701 0.930 . S
C665 C662 1.348 . S
C665 C664 1.356 . S
H666 C660 0.930 . S
H667 C661 0.930 . S
C668 N669 1.314 . S
C668 C670 1.353 . S
C668 H674 0.930 . S
N669 Li619 1.990 . S
N669 C668 1.314 . S
N669 C672 1.279 . S
C670 C668 1.353 . S
C670 C673 1.348 . S
C670 H702 0.929 . S
C671 C672 1.358 . S
C671 C673 1.356 . S
C671 H703 0.930 . S
C672 N669 1.279 . S
C672 C671 1.358 . S
C672 H675 0.930 . S
C673 C670 1.348 . S
C673 C671 1.356 . S
H674 C668 0.930 . S
H675 C672 0.930 . S
O676 Li616 1.956 . S
O676 Li617 1.970 . S
O676 Li618 1.961 . S
O676 C620 1.325 . S
O677 Li616 1.970 . S
O677 Li617 1.956 . S
O677 Li619 1.961 . S
O677 C626 1.325 . S
O678 Li616 1.961 . S
O678 Li618 1.956 . S
O678 Li619 1.970 . S
O678 C648 1.325 . S
O679 Li617 1.961 . S
O679 Li618 1.970 . S
O679 Li619 1.956 . S
O679 C654 1.325 . S
H680 C622 0.929 . S
H681 C623 0.930 . S
H682 C624 0.930 . S
H683 C625 0.930 . S
H684 C627 0.930 . S
H685 C629 0.929 . S
H686 C630 0.930 . S
H687 C631 0.930 . S
H688 C634 0.930 . S
H689 C637 0.929 . S
H690 C642 0.929 . S
H691 C643 0.930 . S
H692 C650 0.929 . S
H693 C651 0.930 . S
H694 C652 0.930 . S
H695 C653 0.930 . S
H696 C655 0.929 . S
H697 C656 0.930 . S
H698 C657 0.930 . S
H699 C658 0.930 . S
H700 C662 0.929 . S
H701 C664 0.930 . S
H702 C670 0.929 . S
H703 C671 0.930 . S
Li704 N721 1.990 . S
Li704 O764 1.956 . S
Li704 O765 1.970 . S
Li704 O766 1.961 . S
Li705 N729 1.990 . S
Li705 O764 1.970 . S
Li705 O765 1.956 . S
Li705 O767 1.961 . S
Li706 N751 1.990 . S
Li706 O764 1.961 . S
Li706 O766 1.956 . S
Li706 O767 1.970 . S
Li707 N757 1.990 . S
Li707 O765 1.961 . S
Li707 O766 1.970 . S
Li707 O767 1.956 . S
C708 C710 1.348 . S
C708 C711 1.356 . S
C708 O764 1.325 . S
N709 C712 1.314 . S
N709 C713 1.279 . S
C710 C708 1.348 . S
C710 C712 1.353 . S
C710 H768 0.929 . S
C711 C708 1.356 . S
C711 C713 1.358 . S
C711 H769 0.930 . S
C712 N709 1.314 . S
C712 C710 1.353 . S
C712 H770 0.930 . S
C713 N709 1.279 . S
C713 C711 1.358 . S
C713 H771 0.930 . S
C714 C717 1.348 . S
C714 C718 1.356 . S
C714 O765 1.325 . S
C715 N716 1.279 . S
C715 C718 1.358 . S
C715 H772 0.930 . S
N716 C715 1.279 . S
N716 C719 1.314 . S
C717 C714 1.348 . S
C717 C719 1.353 . S
C717 H773 0.929 . S
C718 C714 1.356 . S
C718 C715 1.358 . S
C718 H774 0.930 . S
C719 N716 1.314 . S
C719 C717 1.353 . S
C719 H775 0.930 . S
C720 N721 1.314 . S
C720 C725 1.353 . S
C720 H726 0.930 . S
N721 Li704 1.990 . S
N721 C720 1.314 . S
N721 C723 1.279 . S
C722 C723 1.358 . S
C722 C724 1.356 . S
C722 H776 0.930 . S
C723 N721 1.279 . S
C723 C722 1.358 . S
C723 H727 0.930 . S
C724 C722 1.356 . S
C724 C725 1.348 . S
C725 C720 1.353 . S
C725 C724 1.348 . S
C725 H777 0.929 . S
H726 C720 0.930 . S
H727 C723 0.930 . S
C728 N729 1.314 . S
C728 C730 1.353 . S
C728 H734 0.930 . S
N729 Li705 1.990 . S
N729 C728 1.314 . S
N729 C732 1.279 . S
C730 C728 1.353 . S
C730 C733 1.348 . S
C730 H778 0.929 . S
C731 C732 1.358 . S
C731 C733 1.356 . S
C731 H779 0.930 . S
C732 N729 1.279 . S
C732 C731 1.358 . S
C732 H735 0.930 . S
C733 C730 1.348 . S
C733 C731 1.356 . S
H734 C728 0.930 . S
H735 C732 0.930 . S
C736 C738 1.348 . S
C736 C739 1.356 . S
C736 O766 1.325 . S
N737 C740 1.314 . S
N737 C741 1.279 . S
C738 C736 1.348 . S
C738 C740 1.353 . S
C738 H780 0.929 . S
C739 C736 1.356 . S
C739 C741 1.358 . S
C739 H781 0.930 . S
C740 N737 1.314 . S
C740 C738 1.353 . S
C740 H782 0.930 . S
C741 N737 1.279 . S
C741 C739 1.358 . S
C741 H783 0.930 . S
C742 C743 1.348 . S
C742 C744 1.356 . S
C742 O767 1.325 . S
C743 C742 1.348 . S
C743 C745 1.353 . S
C743 H784 0.929 . S
C744 C742 1.356 . S
C744 C746 1.358 . S
C744 H785 0.930 . S
C745 C743 1.353 . S
C745 N747 1.314 . S
C745 H786 0.930 . S
C746 C744 1.358 . S
C746 N747 1.279 . S
C746 H787 0.930 . S
N747 C745 1.314 . S
N747 C746 1.279 . S
C748 C750 1.353 . S
C748 N751 1.314 . S
C748 H754 0.930 . S
C749 N751 1.279 . S
C749 C752 1.358 . S
C749 H755 0.930 . S
C750 C748 1.353 . S
C750 C753 1.348 . S
C750 H788 0.929 . S
N751 Li706 1.990 . S
N751 C748 1.314 . S
N751 C749 1.279 . S
C752 C749 1.358 . S
C752 C753 1.356 . S
C752 H789 0.930 . S
C753 C750 1.348 . S
C753 C752 1.356 . S
H754 C748 0.930 . S
H755 C749 0.930 . S
C756 N757 1.314 . S
C756 C758 1.353 . S
C756 H762 0.930 . S
N757 Li707 1.990 . S
N757 C756 1.314 . S
N757 C760 1.279 . S
C758 C756 1.353 . S
C758 C761 1.348 . S
C758 H790 0.929 . S
C759 C760 1.358 . S
C759 C761 1.356 . S
C759 H791 0.930 . S
C760 N757 1.279 . S
C760 C759 1.358 . S
C760 H763 0.930 . S
C761 C758 1.348 . S
C761 C759 1.356 . S
H762 C756 0.930 . S
H763 C760 0.930 . S
O764 Li704 1.956 . S
O764 Li705 1.970 . S
O764 Li706 1.961 . S
O764 C708 1.325 . S
O765 Li704 1.970 . S
O765 Li705 1.956 . S
O765 Li707 1.961 . S
O765 C714 1.325 . S
O766 Li704 1.961 . S
O766 Li706 1.956 . S
O766 Li707 1.970 . S
O766 C736 1.325 . S
O767 Li705 1.961 . S
O767 Li706 1.970 . S
O767 Li707 1.956 . S
O767 C742 1.325 . S
H768 C710 0.929 . S
H769 C711 0.930 . S
H770 C712 0.930 . S
H771 C713 0.930 . S
H772 C715 0.930 . S
H773 C717 0.929 . S
H774 C718 0.930 . S
H775 C719 0.930 . S
H776 C722 0.930 . S
H777 C725 0.929 . S
H778 C730 0.929 . S
H779 C731 0.930 . S
H780 C738 0.929 . S
H781 C739 0.930 . S
H782 C740 0.930 . S
H783 C741 0.930 . S
H784 C743 0.929 . S
H785 C744 0.930 . S
H786 C745 0.930 . S
H787 C746 0.930 . S
H788 C750 0.929 . S
H789 C752 0.930 . S
H790 C758 0.929 . S
H791 C759 0.930 . S
Li792 N809 1.990 . S
Li792 O852 1.956 . S
Li792 O853 1.970 . S
Li792 O854 1.961 . S
Li793 N817 1.990 . S
Li793 O852 1.970 . S
Li793 O853 1.956 . S
Li793 O855 1.961 . S
Li794 N839 1.990 . S
Li794 O852 1.961 . S
Li794 O854 1.956 . S
Li794 O855 1.970 . S
Li795 N845 1.990 . S
Li795 O853 1.961 . S
Li795 O854 1.970 . S
Li795 O855 1.956 . S
C796 C798 1.348 . S
C796 C799 1.356 . S
C796 O852 1.325 . S
N797 C800 1.314 . S
N797 C801 1.279 . S
C798 C796 1.348 . S
C798 C800 1.353 . S
C798 H856 0.929 . S
C799 C796 1.356 . S
C799 C801 1.358 . S
C799 H857 0.930 . S
C800 N797 1.314 . S
C800 C798 1.353 . S
C800 H858 0.930 . S
C801 N797 1.279 . S
C801 C799 1.358 . S
C801 H859 0.930 . S
C802 C805 1.348 . S
C802 C806 1.356 . S
C802 O853 1.325 . S
C803 N804 1.279 . S
C803 C806 1.358 . S
C803 H860 0.930 . S
N804 C803 1.279 . S
N804 C807 1.314 . S
C805 C802 1.348 . S
C805 C807 1.353 . S
C805 H861 0.929 . S
C806 C802 1.356 . S
C806 C803 1.358 . S
C806 H862 0.930 . S
C807 N804 1.314 . S
C807 C805 1.353 . S
C807 H863 0.930 . S
C808 N809 1.314 . S
C808 C813 1.353 . S
C808 H814 0.930 . S
N809 Li792 1.990 . S
N809 C808 1.314 . S
N809 C811 1.279 . S
C810 C811 1.358 . S
C810 C812 1.356 . S
C810 H864 0.930 . S
C811 N809 1.279 . S
C811 C810 1.358 . S
C811 H815 0.930 . S
C812 C810 1.356 . S
C812 C813 1.348 . S
C813 C808 1.353 . S
C813 C812 1.348 . S
C813 H865 0.929 . S
H814 C808 0.930 . S
H815 C811 0.930 . S
C816 N817 1.314 . S
C816 C818 1.353 . S
C816 H822 0.930 . S
N817 Li793 1.990 . S
N817 C816 1.314 . S
N817 C820 1.279 . S
C818 C816 1.353 . S
C818 C821 1.348 . S
C818 H866 0.929 . S
C819 C820 1.358 . S
C819 C821 1.356 . S
C819 H867 0.930 . S
C820 N817 1.279 . S
C820 C819 1.358 . S
C820 H823 0.930 . S
C821 C818 1.348 . S
C821 C819 1.356 . S
H822 C816 0.930 . S
H823 C820 0.930 . S
C824 C826 1.348 . S
C824 C827 1.356 . S
C824 O854 1.325 . S
N825 C828 1.314 . S
N825 C829 1.279 . S
C826 C824 1.348 . S
C826 C828 1.353 . S
C826 H868 0.929 . S
C827 C824 1.356 . S
C827 C829 1.358 . S
C827 H869 0.930 . S
C828 N825 1.314 . S
C828 C826 1.353 . S
C828 H870 0.930 . S
C829 N825 1.279 . S
C829 C827 1.358 . S
C829 H871 0.930 . S
C830 C831 1.348 . S
C830 C832 1.356 . S
C830 O855 1.325 . S
C831 C830 1.348 . S
C831 C833 1.353 . S
C831 H872 0.929 . S
C832 C830 1.356 . S
C832 C834 1.358 . S
C832 H873 0.930 . S
C833 C831 1.353 . S
C833 N835 1.314 . S
C833 H874 0.930 . S
C834 C832 1.358 . S
C834 N835 1.279 . S
C834 H875 0.930 . S
N835 C833 1.314 . S
N835 C834 1.279 . S
C836 C838 1.353 . S
C836 N839 1.314 . S
C836 H842 0.930 . S
C837 N839 1.279 . S
C837 C840 1.358 . S
C837 H843 0.930 . S
C838 C836 1.353 . S
C838 C841 1.348 . S
C838 H876 0.929 . S
N839 Li794 1.990 . S
N839 C836 1.314 . S
N839 C837 1.279 . S
C840 C837 1.358 . S
C840 C841 1.356 . S
C840 H877 0.930 . S
C841 C838 1.348 . S
C841 C840 1.356 . S
H842 C836 0.930 . S
H843 C837 0.930 . S
C844 N845 1.314 . S
C844 C846 1.353 . S
C844 H850 0.930 . S
N845 Li795 1.990 . S
N845 C844 1.314 . S
N845 C848 1.279 . S
C846 C844 1.353 . S
C846 C849 1.348 . S
C846 H878 0.929 . S
C847 C848 1.358 . S
C847 C849 1.356 . S
C847 H879 0.930 . S
C848 N845 1.279 . S
C848 C847 1.358 . S
C848 H851 0.930 . S
C849 C846 1.348 . S
C849 C847 1.356 . S
H850 C844 0.930 . S
H851 C848 0.930 . S
O852 Li792 1.956 . S
O852 Li793 1.970 . S
O852 Li794 1.961 . S
O852 C796 1.325 . S
O853 Li792 1.970 . S
O853 Li793 1.956 . S
O853 Li795 1.961 . S
O853 C802 1.325 . S
O854 Li792 1.961 . S
O854 Li794 1.956 . S
O854 Li795 1.970 . S
O854 C824 1.325 . S
O855 Li793 1.961 . S
O855 Li794 1.970 . S
O855 Li795 1.956 . S
O855 C830 1.325 . S
H856 C798 0.929 . S
H857 C799 0.930 . S
H858 C800 0.930 . S
H859 C801 0.930 . S
H860 C803 0.930 . S
H861 C805 0.929 . S
H862 C806 0.930 . S
H863 C807 0.930 . S
H864 C810 0.930 . S
H865 C813 0.929 . S
H866 C818 0.929 . S
H867 C819 0.930 . S
H868 C826 0.929 . S
H869 C827 0.930 . S
H870 C828 0.930 . S
H871 C829 0.930 . S
H872 C831 0.929 . S
H873 C832 0.930 . S
H874 C833 0.930 . S
H875 C834 0.930 . S
H876 C838 0.929 . S
H877 C840 0.930 . S
H878 C846 0.929 . S
H879 C847 0.930 . S
Li880 N897 1.990 . S
Li880 O940 1.956 . S
Li880 O941 1.970 . S
Li880 O942 1.961 . S
Li881 N905 1.990 . S
Li881 O940 1.970 . S
Li881 O941 1.956 . S
Li881 O943 1.961 . S
Li882 N927 1.990 . S
Li882 O940 1.961 . S
Li882 O942 1.956 . S
Li882 O943 1.970 . S
Li883 N933 1.990 . S
Li883 O941 1.961 . S
Li883 O942 1.970 . S
Li883 O943 1.956 . S
C884 C886 1.348 . S
C884 C887 1.356 . S
C884 O940 1.325 . S
N885 C888 1.314 . S
N885 C889 1.279 . S
C886 C884 1.348 . S
C886 C888 1.353 . S
C886 H944 0.929 . S
C887 C884 1.356 . S
C887 C889 1.358 . S
C887 H945 0.930 . S
C888 N885 1.314 . S
C888 C886 1.353 . S
C888 H946 0.930 . S
C889 N885 1.279 . S
C889 C887 1.358 . S
C889 H947 0.930 . S
C890 C893 1.348 . S
C890 C894 1.356 . S
C890 O941 1.325 . S
C891 N892 1.279 . S
C891 C894 1.358 . S
C891 H948 0.930 . S
N892 C891 1.279 . S
N892 C895 1.314 . S
C893 C890 1.348 . S
C893 C895 1.353 . S
C893 H949 0.929 . S
C894 C890 1.356 . S
C894 C891 1.358 . S
C894 H950 0.930 . S
C895 N892 1.314 . S
C895 C893 1.353 . S
C895 H951 0.930 . S
C896 N897 1.314 . S
C896 C901 1.353 . S
C896 H902 0.930 . S
N897 Li880 1.990 . S
N897 C896 1.314 . S
N897 C899 1.279 . S
C898 C899 1.358 . S
C898 C900 1.356 . S
C898 H952 0.930 . S
C899 N897 1.279 . S
C899 C898 1.358 . S
C899 H903 0.930 . S
C900 C898 1.356 . S
C900 C901 1.348 . S
C901 C896 1.353 . S
C901 C900 1.348 . S
C901 H953 0.929 . S
H902 C896 0.930 . S
H903 C899 0.930 . S
C904 N905 1.314 . S
C904 C906 1.353 . S
C904 H910 0.930 . S
N905 Li881 1.990 . S
N905 C904 1.314 . S
N905 C908 1.279 . S
C906 C904 1.353 . S
C906 C909 1.348 . S
C906 H954 0.929 . S
C907 C908 1.358 . S
C907 C909 1.356 . S
C907 H955 0.930 . S
C908 N905 1.279 . S
C908 C907 1.358 . S
C908 H911 0.930 . S
C909 C906 1.348 . S
C909 C907 1.356 . S
H910 C904 0.930 . S
H911 C908 0.930 . S
C912 C914 1.348 . S
C912 C915 1.356 . S
C912 O942 1.325 . S
N913 C916 1.314 . S
N913 C917 1.279 . S
C914 C912 1.348 . S
C914 C916 1.353 . S
C914 H956 0.929 . S
C915 C912 1.356 . S
C915 C917 1.358 . S
C915 H957 0.930 . S
C916 N913 1.314 . S
C916 C914 1.353 . S
C916 H958 0.930 . S
C917 N913 1.279 . S
C917 C915 1.358 . S
C917 H959 0.930 . S
C918 C919 1.348 . S
C918 C920 1.356 . S
C918 O943 1.325 . S
C919 C918 1.348 . S
C919 C921 1.353 . S
C919 H960 0.929 . S
C920 C918 1.356 . S
C920 C922 1.358 . S
C920 H961 0.930 . S
C921 C919 1.353 . S
C921 N923 1.314 . S
C921 H962 0.930 . S
C922 C920 1.358 . S
C922 N923 1.279 . S
C922 H963 0.930 . S
N923 C921 1.314 . S
N923 C922 1.279 . S
C924 C926 1.353 . S
C924 N927 1.314 . S
C924 H930 0.930 . S
C925 N927 1.279 . S
C925 C928 1.358 . S
C925 H931 0.930 . S
C926 C924 1.353 . S
C926 C929 1.348 . S
C926 H964 0.929 . S
N927 Li882 1.990 . S
N927 C924 1.314 . S
N927 C925 1.279 . S
C928 C925 1.358 . S
C928 C929 1.356 . S
C928 H965 0.930 . S
C929 C926 1.348 . S
C929 C928 1.356 . S
H930 C924 0.930 . S
H931 C925 0.930 . S
C932 N933 1.314 . S
C932 C934 1.353 . S
C932 H938 0.930 . S
N933 Li883 1.990 . S
N933 C932 1.314 . S
N933 C936 1.279 . S
C934 C932 1.353 . S
C934 C937 1.348 . S
C934 H966 0.929 . S
C935 C936 1.358 . S
C935 C937 1.356 . S
C935 H967 0.930 . S
C936 N933 1.279 . S
C936 C935 1.358 . S
C936 H939 0.930 . S
C937 C934 1.348 . S
C937 C935 1.356 . S
H938 C932 0.930 . S
H939 C936 0.930 . S
O940 Li880 1.956 . S
O940 Li881 1.970 . S
O940 Li882 1.961 . S
O940 C884 1.325 . S
O941 Li880 1.970 . S
O941 Li881 1.956 . S
O941 Li883 1.961 . S
O941 C890 1.325 . S
O942 Li880 1.961 . S
O942 Li882 1.956 . S
O942 Li883 1.970 . S
O942 C912 1.325 . S
O943 Li881 1.961 . S
O943 Li882 1.970 . S
O943 Li883 1.956 . S
O943 C918 1.325 . S
H944 C886 0.929 . S
H945 C887 0.930 . S
H946 C888 0.930 . S
H947 C889 0.930 . S
H948 C891 0.930 . S
H949 C893 0.929 . S
H950 C894 0.930 . S
H951 C895 0.930 . S
H952 C898 0.930 . S
H953 C901 0.929 . S
H954 C906 0.929 . S
H955 C907 0.930 . S
H956 C914 0.929 . S
H957 C915 0.930 . S
H958 C916 0.930 . S
H959 C917 0.930 . S
H960 C919 0.929 . S
H961 C920 0.930 . S
H962 C921 0.930 . S
H963 C922 0.930 . S
H964 C926 0.929 . S
H965 C928 0.930 . S
H966 C934 0.929 . S
H967 C935 0.930 . S
Li968 N985 1.990 . S
Li968 O1028 1.956 . S
Li968 O1029 1.970 . S
Li968 O1030 1.961 . S
Li969 N993 1.990 . S
Li969 O1028 1.970 . S
Li969 O1029 1.956 . S
Li969 O1031 1.961 . S
Li970 N1015 1.990 . S
Li970 O1028 1.961 . S
Li970 O1030 1.956 . S
Li970 O1031 1.970 . S
Li971 N1021 1.990 . S
Li971 O1029 1.961 . S
Li971 O1030 1.970 . S
Li971 O1031 1.956 . S
C972 C974 1.348 . S
C972 C975 1.356 . S
C972 O1028 1.325 . S
N973 C976 1.314 . S
N973 C977 1.279 . S
C974 C972 1.348 . S
C974 C976 1.353 . S
C974 H1032 0.929 . S
C975 C972 1.356 . S
C975 C977 1.358 . S
C975 H1033 0.930 . S
C976 N973 1.314 . S
C976 C974 1.353 . S
C976 H1034 0.930 . S
C977 N973 1.279 . S
C977 C975 1.358 . S
C977 H1035 0.930 . S
C978 C981 1.348 . S
C978 C982 1.356 . S
C978 O1029 1.325 . S
C979 N980 1.279 . S
C979 C982 1.358 . S
C979 H1036 0.930 . S
N980 C979 1.279 . S
N980 C983 1.314 . S
C981 C978 1.348 . S
C981 C983 1.353 . S
C981 H1037 0.929 . S
C982 C978 1.356 . S
C982 C979 1.358 . S
C982 H1038 0.930 . S
C983 N980 1.314 . S
C983 C981 1.353 . S
C983 H1039 0.930 . S
C984 N985 1.314 . S
C984 C989 1.353 . S
C984 H990 0.930 . S
N985 Li968 1.990 . S
N985 C984 1.314 . S
N985 C987 1.279 . S
C986 C987 1.358 . S
C986 C988 1.356 . S
C986 H1040 0.930 . S
C987 N985 1.279 . S
C987 C986 1.358 . S
C987 H991 0.930 . S
C988 C986 1.356 . S
C988 C989 1.348 . S
C989 C984 1.353 . S
C989 C988 1.348 . S
C989 H1041 0.929 . S
H990 C984 0.930 . S
H991 C987 0.930 . S
C992 N993 1.314 . S
C992 C994 1.353 . S
C992 H998 0.930 . S
N993 Li969 1.990 . S
N993 C992 1.314 . S
N993 C996 1.279 . S
C994 C992 1.353 . S
C994 C997 1.348 . S
C994 H1042 0.929 . S
C995 C996 1.358 . S
C995 C997 1.356 . S
C995 H1043 0.930 . S
C996 N993 1.279 . S
C996 C995 1.358 . S
C996 H999 0.930 . S
C997 C994 1.348 . S
C997 C995 1.356 . S
H998 C992 0.930 . S
H999 C996 0.930 . S
C1000 C1002 1.348 . S
C1000 C1003 1.356 . S
C1000 O1030 1.325 . S
N1001 C1004 1.314 . S
N1001 C1005 1.279 . S
C1002 C1000 1.348 . S
C1002 C1004 1.353 . S
C1002 H1044 0.929 . S
C1003 C1000 1.356 . S
C1003 C1005 1.358 . S
C1003 H1045 0.930 . S
C1004 N1001 1.314 . S
C1004 C1002 1.353 . S
C1004 H1046 0.930 . S
C1005 N1001 1.279 . S
C1005 C1003 1.358 . S
C1005 H1047 0.930 . S
C1006 C1007 1.348 . S
C1006 C1008 1.356 . S
C1006 O1031 1.325 . S
C1007 C1006 1.348 . S
C1007 C1009 1.353 . S
C1007 H1048 0.929 . S
C1008 C1006 1.356 . S
C1008 C1010 1.358 . S
C1008 H1049 0.930 . S
C1009 C1007 1.353 . S
C1009 N1011 1.314 . S
C1009 H1050 0.930 . S
C1010 C1008 1.358 . S
C1010 N1011 1.279 . S
C1010 H1051 0.930 . S
N1011 C1009 1.314 . S
N1011 C1010 1.279 . S
C1012 C1014 1.353 . S
C1012 N1015 1.314 . S
C1012 H1018 0.930 . S
C1013 N1015 1.279 . S
C1013 C1016 1.358 . S
C1013 H1019 0.930 . S
C1014 C1012 1.353 . S
C1014 C1017 1.348 . S
C1014 H1052 0.929 . S
N1015 Li970 1.990 . S
N1015 C1012 1.314 . S
N1015 C1013 1.279 . S
C1016 C1013 1.358 . S
C1016 C1017 1.356 . S
C1016 H1053 0.930 . S
C1017 C1014 1.348 . S
C1017 C1016 1.356 . S
H1018 C1012 0.930 . S
H1019 C1013 0.930 . S
C1020 N1021 1.314 . S
C1020 C1022 1.353 . S
C1020 H1026 0.930 . S
N1021 Li971 1.990 . S
N1021 C1020 1.314 . S
N1021 C1024 1.279 . S
C1022 C1020 1.353 . S
C1022 C1025 1.348 . S
C1022 H1054 0.929 . S
C1023 C1024 1.358 . S
C1023 C1025 1.356 . S
C1023 H1055 0.930 . S
C1024 N1021 1.279 . S
C1024 C1023 1.358 . S
C1024 H1027 0.930 . S
C1025 C1022 1.348 . S
C1025 C1023 1.356 . S
H1026 C1020 0.930 . S
H1027 C1024 0.930 . S
O1028 Li968 1.956 . S
O1028 Li969 1.970 . S
O1028 Li970 1.961 . S
O1028 C972 1.325 . S
O1029 Li968 1.970 . S
O1029 Li969 1.956 . S
O1029 Li971 1.961 . S
O1029 C978 1.325 . S
O1030 Li968 1.961 . S
O1030 Li970 1.956 . S
O1030 Li971 1.970 . S
O1030 C1000 1.325 . S
O1031 Li969 1.961 . S
O1031 Li970 1.970 . S
O1031 Li971 1.956 . S
O1031 C1006 1.325 . S
H1032 C974 0.929 . S
H1033 C975 0.930 . S
H1034 C976 0.930 . S
H1035 C977 0.930 . S
H1036 C979 0.930 . S
H1037 C981 0.929 . S
H1038 C982 0.930 . S
H1039 C983 0.930 . S
H1040 C986 0.930 . S
H1041 C989 0.929 . S
H1042 C994 0.929 . S
H1043 C995 0.930 . S
H1044 C1002 0.929 . S
H1045 C1003 0.930 . S
H1046 C1004 0.930 . S
H1047 C1005 0.930 . S
H1048 C1007 0.929 . S
H1049 C1008 0.930 . S
H1050 C1009 0.930 . S
H1051 C1010 0.930 . S
H1052 C1014 0.929 . S
H1053 C1016 0.930 . S
H1054 C1022 0.929 . S
H1055 C1023 0.930 . S
Li1056 N1073 1.990 . S
Li1056 O1116 1.956 . S
Li1056 O1117 1.970 . S
Li1056 O1118 1.961 . S
Li1057 N1081 1.990 . S
Li1057 O1116 1.970 . S
Li1057 O1117 1.956 . S
Li1057 O1119 1.961 . S
Li1058 N1103 1.990 . S
Li1058 O1116 1.961 . S
Li1058 O1118 1.956 . S
Li1058 O1119 1.970 . S
Li1059 N1109 1.990 . S
Li1059 O1117 1.961 . S
Li1059 O1118 1.970 . S
Li1059 O1119 1.956 . S
C1060 C1062 1.348 . S
C1060 C1063 1.356 . S
C1060 O1116 1.325 . S
N1061 C1064 1.314 . S
N1061 C1065 1.279 . S
C1062 C1060 1.348 . S
C1062 C1064 1.353 . S
C1062 H1120 0.929 . S
C1063 C1060 1.356 . S
C1063 C1065 1.358 . S
C1063 H1121 0.930 . S
C1064 N1061 1.314 . S
C1064 C1062 1.353 . S
C1064 H1122 0.930 . S
C1065 N1061 1.279 . S
C1065 C1063 1.358 . S
C1065 H1123 0.930 . S
C1066 C1069 1.348 . S
C1066 C1070 1.356 . S
C1066 O1117 1.325 . S
C1067 N1068 1.279 . S
C1067 C1070 1.358 . S
C1067 H1124 0.930 . S
N1068 C1067 1.279 . S
N1068 C1071 1.314 . S
C1069 C1066 1.348 . S
C1069 C1071 1.353 . S
C1069 H1125 0.929 . S
C1070 C1066 1.356 . S
C1070 C1067 1.358 . S
C1070 H1126 0.930 . S
C1071 N1068 1.314 . S
C1071 C1069 1.353 . S
C1071 H1127 0.930 . S
C1072 N1073 1.314 . S
C1072 C1077 1.353 . S
C1072 H1078 0.930 . S
N1073 Li1056 1.990 . S
N1073 C1072 1.314 . S
N1073 C1075 1.279 . S
C1074 C1075 1.358 . S
C1074 C1076 1.356 . S
C1074 H1128 0.930 . S
C1075 N1073 1.279 . S
C1075 C1074 1.358 . S
C1075 H1079 0.930 . S
C1076 C1074 1.356 . S
C1076 C1077 1.348 . S
C1077 C1072 1.353 . S
C1077 C1076 1.348 . S
C1077 H1129 0.929 . S
H1078 C1072 0.930 . S
H1079 C1075 0.930 . S
C1080 N1081 1.314 . S
C1080 C1082 1.353 . S
C1080 H1086 0.930 . S
N1081 Li1057 1.990 . S
N1081 C1080 1.314 . S
N1081 C1084 1.279 . S
C1082 C1080 1.353 . S
C1082 C1085 1.348 . S
C1082 H1130 0.929 . S
C1083 C1084 1.358 . S
C1083 C1085 1.356 . S
C1083 H1131 0.930 . S
C1084 N1081 1.279 . S
C1084 C1083 1.358 . S
C1084 H1087 0.930 . S
C1085 C1082 1.348 . S
C1085 C1083 1.356 . S
H1086 C1080 0.930 . S
H1087 C1084 0.930 . S
C1088 C1090 1.348 . S
C1088 C1091 1.356 . S
C1088 O1118 1.325 . S
N1089 C1092 1.314 . S
N1089 C1093 1.279 . S
C1090 C1088 1.348 . S
C1090 C1092 1.353 . S
C1090 H1132 0.929 . S
C1091 C1088 1.356 . S
C1091 C1093 1.358 . S
C1091 H1133 0.930 . S
C1092 N1089 1.314 . S
C1092 C1090 1.353 . S
C1092 H1134 0.930 . S
C1093 N1089 1.279 . S
C1093 C1091 1.358 . S
C1093 H1135 0.930 . S
C1094 C1095 1.348 . S
C1094 C1096 1.356 . S
C1094 O1119 1.325 . S
C1095 C1094 1.348 . S
C1095 C1097 1.353 . S
C1095 H1136 0.929 . S
C1096 C1094 1.356 . S
C1096 C1098 1.358 . S
C1096 H1137 0.930 . S
C1097 C1095 1.353 . S
C1097 N1099 1.314 . S
C1097 H1138 0.930 . S
C1098 C1096 1.358 . S
C1098 N1099 1.279 . S
C1098 H1139 0.930 . S
N1099 C1097 1.314 . S
N1099 C1098 1.279 . S
C1100 C1102 1.353 . S
C1100 N1103 1.314 . S
C1100 H1106 0.930 . S
C1101 N1103 1.279 . S
C1101 C1104 1.358 . S
C1101 H1107 0.930 . S
C1102 C1100 1.353 . S
C1102 C1105 1.348 . S
C1102 H1140 0.929 . S
N1103 Li1058 1.990 . S
N1103 C1100 1.314 . S
N1103 C1101 1.279 . S
C1104 C1101 1.358 . S
C1104 C1105 1.356 . S
C1104 H1141 0.930 . S
C1105 C1102 1.348 . S
C1105 C1104 1.356 . S
H1106 C1100 0.930 . S
H1107 C1101 0.930 . S
C1108 N1109 1.314 . S
C1108 C1110 1.353 . S
C1108 H1114 0.930 . S
N1109 Li1059 1.990 . S
N1109 C1108 1.314 . S
N1109 C1112 1.279 . S
C1110 C1108 1.353 . S
C1110 C1113 1.348 . S
C1110 H1142 0.929 . S
C1111 C1112 1.358 . S
C1111 C1113 1.356 . S
C1111 H1143 0.930 . S
C1112 N1109 1.279 . S
C1112 C1111 1.358 . S
C1112 H1115 0.930 . S
C1113 C1110 1.348 . S
C1113 C1111 1.356 . S
H1114 C1108 0.930 . S
H1115 C1112 0.930 . S
O1116 Li1056 1.956 . S
O1116 Li1057 1.970 . S
O1116 Li1058 1.961 . S
O1116 C1060 1.325 . S
O1117 Li1056 1.970 . S
O1117 Li1057 1.956 . S
O1117 Li1059 1.961 . S
O1117 C1066 1.325 . S
O1118 Li1056 1.961 . S
O1118 Li1058 1.956 . S
O1118 Li1059 1.970 . S
O1118 C1088 1.325 . S
O1119 Li1057 1.961 . S
O1119 Li1058 1.970 . S
O1119 Li1059 1.956 . S
O1119 C1094 1.325 . S
H1120 C1062 0.929 . S
H1121 C1063 0.930 . S
H1122 C1064 0.930 . S
H1123 C1065 0.930 . S
H1124 C1067 0.930 . S
H1125 C1069 0.929 . S
H1126 C1070 0.930 . S
H1127 C1071 0.930 . S
H1128 C1074 0.930 . S
H1129 C1077 0.929 . S
H1130 C1082 0.929 . S
H1131 C1083 0.930 . S
H1132 C1090 0.929 . S
H1133 C1091 0.930 . S
H1134 C1092 0.930 . S
H1135 C1093 0.930 . S
H1136 C1095 0.929 . S
H1137 C1096 0.930 . S
H1138 C1097 0.930 . S
H1139 C1098 0.930 . S
H1140 C1102 0.929 . S
H1141 C1104 0.930 . S
H1142 C1110 0.929 . S
H1143 C1111 0.930 . S
Li1144 N1161 1.990 . S
Li1144 O1204 1.956 . S
Li1144 O1205 1.970 . S
Li1144 O1206 1.961 . S
Li1145 N1169 1.990 . S
Li1145 O1204 1.970 . S
Li1145 O1205 1.956 . S
Li1145 O1207 1.961 . S
Li1146 N1191 1.990 . S
Li1146 O1204 1.961 . S
Li1146 O1206 1.956 . S
Li1146 O1207 1.970 . S
Li1147 N1197 1.990 . S
Li1147 O1205 1.961 . S
Li1147 O1206 1.970 . S
Li1147 O1207 1.956 . S
C1148 C1150 1.348 . S
C1148 C1151 1.356 . S
C1148 O1204 1.325 . S
N1149 C1152 1.314 . S
N1149 C1153 1.279 . S
C1150 C1148 1.348 . S
C1150 C1152 1.353 . S
C1150 H1208 0.929 . S
C1151 C1148 1.356 . S
C1151 C1153 1.358 . S
C1151 H1209 0.930 . S
C1152 N1149 1.314 . S
C1152 C1150 1.353 . S
C1152 H1210 0.930 . S
C1153 N1149 1.279 . S
C1153 C1151 1.358 . S
C1153 H1211 0.930 . S
C1154 C1157 1.348 . S
C1154 C1158 1.356 . S
C1154 O1205 1.325 . S
C1155 N1156 1.279 . S
C1155 C1158 1.358 . S
C1155 H1212 0.930 . S
N1156 C1155 1.279 . S
N1156 C1159 1.314 . S
C1157 C1154 1.348 . S
C1157 C1159 1.353 . S
C1157 H1213 0.929 . S
C1158 C1154 1.356 . S
C1158 C1155 1.358 . S
C1158 H1214 0.930 . S
C1159 N1156 1.314 . S
C1159 C1157 1.353 . S
C1159 H1215 0.930 . S
C1160 N1161 1.314 . S
C1160 C1165 1.353 . S
C1160 H1166 0.930 . S
N1161 Li1144 1.990 . S
N1161 C1160 1.314 . S
N1161 C1163 1.279 . S
C1162 C1163 1.358 . S
C1162 C1164 1.356 . S
C1162 H1216 0.930 . S
C1163 N1161 1.279 . S
C1163 C1162 1.358 . S
C1163 H1167 0.930 . S
C1164 C1162 1.356 . S
C1164 C1165 1.348 . S
C1165 C1160 1.353 . S
C1165 C1164 1.348 . S
C1165 H1217 0.929 . S
H1166 C1160 0.930 . S
H1167 C1163 0.930 . S
C1168 N1169 1.314 . S
C1168 C1170 1.353 . S
C1168 H1174 0.930 . S
N1169 Li1145 1.990 . S
N1169 C1168 1.314 . S
N1169 C1172 1.279 . S
C1170 C1168 1.353 . S
C1170 C1173 1.348 . S
C1170 H1218 0.929 . S
C1171 C1172 1.358 . S
C1171 C1173 1.356 . S
C1171 H1219 0.930 . S
C1172 N1169 1.279 . S
C1172 C1171 1.358 . S
C1172 H1175 0.930 . S
C1173 C1170 1.348 . S
C1173 C1171 1.356 . S
H1174 C1168 0.930 . S
H1175 C1172 0.930 . S
C1176 C1178 1.348 . S
C1176 C1179 1.356 . S
C1176 O1206 1.325 . S
N1177 C1180 1.314 . S
N1177 C1181 1.279 . S
C1178 C1176 1.348 . S
C1178 C1180 1.353 . S
C1178 H1220 0.929 . S
C1179 C1176 1.356 . S
C1179 C1181 1.358 . S
C1179 H1221 0.930 . S
C1180 N1177 1.314 . S
C1180 C1178 1.353 . S
C1180 H1222 0.930 . S
C1181 N1177 1.279 . S
C1181 C1179 1.358 . S
C1181 H1223 0.930 . S
C1182 C1183 1.348 . S
C1182 C1184 1.356 . S
C1182 O1207 1.325 . S
C1183 C1182 1.348 . S
C1183 C1185 1.353 . S
C1183 H1224 0.929 . S
C1184 C1182 1.356 . S
C1184 C1186 1.358 . S
C1184 H1225 0.930 . S
C1185 C1183 1.353 . S
C1185 N1187 1.314 . S
C1185 H1226 0.930 . S
C1186 C1184 1.358 . S
C1186 N1187 1.279 . S
C1186 H1227 0.930 . S
N1187 C1185 1.314 . S
N1187 C1186 1.279 . S
C1188 C1190 1.353 . S
C1188 N1191 1.314 . S
C1188 H1194 0.930 . S
C1189 N1191 1.279 . S
C1189 C1192 1.358 . S
C1189 H1195 0.930 . S
C1190 C1188 1.353 . S
C1190 C1193 1.348 . S
C1190 H1228 0.929 . S
N1191 Li1146 1.990 . S
N1191 C1188 1.314 . S
N1191 C1189 1.279 . S
C1192 C1189 1.358 . S
C1192 C1193 1.356 . S
C1192 H1229 0.930 . S
C1193 C1190 1.348 . S
C1193 C1192 1.356 . S
H1194 C1188 0.930 . S
H1195 C1189 0.930 . S
C1196 N1197 1.314 . S
C1196 C1198 1.353 . S
C1196 H1202 0.930 . S
N1197 Li1147 1.990 . S
N1197 C1196 1.314 . S
N1197 C1200 1.279 . S
C1198 C1196 1.353 . S
C1198 C1201 1.348 . S
C1198 H1230 0.929 . S
C1199 C1200 1.358 . S
C1199 C1201 1.356 . S
C1199 H1231 0.930 . S
C1200 N1197 1.279 . S
C1200 C1199 1.358 . S
C1200 H1203 0.930 . S
C1201 C1198 1.348 . S
C1201 C1199 1.356 . S
H1202 C1196 0.930 . S
H1203 C1200 0.930 . S
O1204 Li1144 1.956 . S
O1204 Li1145 1.970 . S
O1204 Li1146 1.961 . S
O1204 C1148 1.325 . S
O1205 Li1144 1.970 . S
O1205 Li1145 1.956 . S
O1205 Li1147 1.961 . S
O1205 C1154 1.325 . S
O1206 Li1144 1.961 . S
O1206 Li1146 1.956 . S
O1206 Li1147 1.970 . S
O1206 C1176 1.325 . S
O1207 Li1145 1.961 . S
O1207 Li1146 1.970 . S
O1207 Li1147 1.956 . S
O1207 C1182 1.325 . S
H1208 C1150 0.929 . S
H1209 C1151 0.930 . S
H1210 C1152 0.930 . S
H1211 C1153 0.930 . S
H1212 C1155 0.930 . S
H1213 C1157 0.929 . S
H1214 C1158 0.930 . S
H1215 C1159 0.930 . S
H1216 C1162 0.930 . S
H1217 C1165 0.929 . S
H1218 C1170 0.929 . S
H1219 C1171 0.930 . S
H1220 C1178 0.929 . S
H1221 C1179 0.930 . S
H1222 C1180 0.930 . S
H1223 C1181 0.930 . S
H1224 C1183 0.929 . S
H1225 C1184 0.930 . S
H1226 C1185 0.930 . S
H1227 C1186 0.930 . S
H1228 C1190 0.929 . S
H1229 C1192 0.930 . S
H1230 C1198 0.929 . S
H1231 C1199 0.930 . S
Li1232 N1249 1.990 . S
Li1232 O1292 1.956 . S
Li1232 O1293 1.970 . S
Li1232 O1294 1.961 . S
Li1233 N1257 1.990 . S
Li1233 O1292 1.970 . S
Li1233 O1293 1.956 . S
Li1233 O1295 1.961 . S
Li1234 N1279 1.990 . S
Li1234 O1292 1.961 . S
Li1234 O1294 1.956 . S
Li1234 O1295 1.970 . S
Li1235 N1285 1.990 . S
Li1235 O1293 1.961 . S
Li1235 O1294 1.970 . S
Li1235 O1295 1.956 . S
C1236 C1238 1.348 . S
C1236 C1239 1.356 . S
C1236 O1292 1.325 . S
N1237 C1240 1.314 . S
N1237 C1241 1.279 . S
C1238 C1236 1.348 . S
C1238 C1240 1.353 . S
C1238 H1296 0.929 . S
C1239 C1236 1.356 . S
C1239 C1241 1.358 . S
C1239 H1297 0.930 . S
C1240 N1237 1.314 . S
C1240 C1238 1.353 . S
C1240 H1298 0.930 . S
C1241 N1237 1.279 . S
C1241 C1239 1.358 . S
C1241 H1299 0.930 . S
C1242 C1245 1.348 . S
C1242 C1246 1.356 . S
C1242 O1293 1.325 . S
C1243 N1244 1.279 . S
C1243 C1246 1.358 . S
C1243 H1300 0.930 . S
N1244 C1243 1.279 . S
N1244 C1247 1.314 . S
C1245 C1242 1.348 . S
C1245 C1247 1.353 . S
C1245 H1301 0.929 . S
C1246 C1242 1.356 . S
C1246 C1243 1.358 . S
C1246 H1302 0.930 . S
C1247 N1244 1.314 . S
C1247 C1245 1.353 . S
C1247 H1303 0.930 . S
C1248 N1249 1.314 . S
C1248 C1253 1.353 . S
C1248 H1254 0.930 . S
N1249 Li1232 1.990 . S
N1249 C1248 1.314 . S
N1249 C1251 1.279 . S
C1250 C1251 1.358 . S
C1250 C1252 1.356 . S
C1250 H1304 0.930 . S
C1251 N1249 1.279 . S
C1251 C1250 1.358 . S
C1251 H1255 0.930 . S
C1252 C1250 1.356 . S
C1252 C1253 1.348 . S
C1253 C1248 1.353 . S
C1253 C1252 1.348 . S
C1253 H1305 0.929 . S
H1254 C1248 0.930 . S
H1255 C1251 0.930 . S
C1256 N1257 1.314 . S
C1256 C1258 1.353 . S
C1256 H1262 0.930 . S
N1257 Li1233 1.990 . S
N1257 C1256 1.314 . S
N1257 C1260 1.279 . S
C1258 C1256 1.353 . S
C1258 C1261 1.348 . S
C1258 H1306 0.929 . S
C1259 C1260 1.358 . S
C1259 C1261 1.356 . S
C1259 H1307 0.930 . S
C1260 N1257 1.279 . S
C1260 C1259 1.358 . S
C1260 H1263 0.930 . S
C1261 C1258 1.348 . S
C1261 C1259 1.356 . S
H1262 C1256 0.930 . S
H1263 C1260 0.930 . S
C1264 C1266 1.348 . S
C1264 C1267 1.356 . S
C1264 O1294 1.325 . S
N1265 C1268 1.314 . S
N1265 C1269 1.279 . S
C1266 C1264 1.348 . S
C1266 C1268 1.353 . S
C1266 H1308 0.929 . S
C1267 C1264 1.356 . S
C1267 C1269 1.358 . S
C1267 H1309 0.930 . S
C1268 N1265 1.314 . S
C1268 C1266 1.353 . S
C1268 H1310 0.930 . S
C1269 N1265 1.279 . S
C1269 C1267 1.358 . S
C1269 H1311 0.930 . S
C1270 C1271 1.348 . S
C1270 C1272 1.356 . S
C1270 O1295 1.325 . S
C1271 C1270 1.348 . S
C1271 C1273 1.353 . S
C1271 H1312 0.929 . S
C1272 C1270 1.356 . S
C1272 C1274 1.358 . S
C1272 H1313 0.930 . S
C1273 C1271 1.353 . S
C1273 N1275 1.314 . S
C1273 H1314 0.930 . S
C1274 C1272 1.358 . S
C1274 N1275 1.279 . S
C1274 H1315 0.930 . S
N1275 C1273 1.314 . S
N1275 C1274 1.279 . S
C1276 C1278 1.353 . S
C1276 N1279 1.314 . S
C1276 H1282 0.930 . S
C1277 N1279 1.279 . S
C1277 C1280 1.358 . S
C1277 H1283 0.930 . S
C1278 C1276 1.353 . S
C1278 C1281 1.348 . S
C1278 H1316 0.929 . S
N1279 Li1234 1.990 . S
N1279 C1276 1.314 . S
N1279 C1277 1.279 . S
C1280 C1277 1.358 . S
C1280 C1281 1.356 . S
C1280 H1317 0.930 . S
C1281 C1278 1.348 . S
C1281 C1280 1.356 . S
H1282 C1276 0.930 . S
H1283 C1277 0.930 . S
C1284 N1285 1.314 . S
C1284 C1286 1.353 . S
C1284 H1290 0.930 . S
N1285 Li1235 1.990 . S
N1285 C1284 1.314 . S
N1285 C1288 1.279 . S
C1286 C1284 1.353 . S
C1286 C1289 1.348 . S
C1286 H1318 0.929 . S
C1287 C1288 1.358 . S
C1287 C1289 1.356 . S
C1287 H1319 0.930 . S
C1288 N1285 1.279 . S
C1288 C1287 1.358 . S
C1288 H1291 0.930 . S
C1289 C1286 1.348 . S
C1289 C1287 1.356 . S
H1290 C1284 0.930 . S
H1291 C1288 0.930 . S
O1292 Li1232 1.956 . S
O1292 Li1233 1.970 . S
O1292 Li1234 1.961 . S
O1292 C1236 1.325 . S
O1293 Li1232 1.970 . S
O1293 Li1233 1.956 . S
O1293 Li1235 1.961 . S
O1293 C1242 1.325 . S
O1294 Li1232 1.961 . S
O1294 Li1234 1.956 . S
O1294 Li1235 1.970 . S
O1294 C1264 1.325 . S
O1295 Li1233 1.961 . S
O1295 Li1234 1.970 . S
O1295 Li1235 1.956 . S
O1295 C1270 1.325 . S
H1296 C1238 0.929 . S
H1297 C1239 0.930 . S
H1298 C1240 0.930 . S
H1299 C1241 0.930 . S
H1300 C1243 0.930 . S
H1301 C1245 0.929 . S
H1302 C1246 0.930 . S
H1303 C1247 0.930 . S
H1304 C1250 0.930 . S
H1305 C1253 0.929 . S
H1306 C1258 0.929 . S
H1307 C1259 0.930 . S
H1308 C1266 0.929 . S
H1309 C1267 0.930 . S
H1310 C1268 0.930 . S
H1311 C1269 0.930 . S
H1312 C1271 0.929 . S
H1313 C1272 0.930 . S
H1314 C1273 0.930 . S
H1315 C1274 0.930 . S
H1316 C1278 0.929 . S
H1317 C1280 0.930 . S
H1318 C1286 0.929 . S
H1319 C1287 0.930 . S
Li1320 N1337 1.990 . S
Li1320 O1380 1.956 . S
Li1320 O1381 1.970 . S
Li1320 O1382 1.961 . S
Li1321 N1345 1.990 . S
Li1321 O1380 1.970 . S
Li1321 O1381 1.956 . S
Li1321 O1383 1.961 . S
Li1322 N1367 1.990 . S
Li1322 O1380 1.961 . S
Li1322 O1382 1.956 . S
Li1322 O1383 1.970 . S
Li1323 N1373 1.990 . S
Li1323 O1381 1.961 . S
Li1323 O1382 1.970 . S
Li1323 O1383 1.956 . S
C1324 C1326 1.348 . S
C1324 C1327 1.356 . S
C1324 O1380 1.325 . S
N1325 C1328 1.314 . S
N1325 C1329 1.279 . S
C1326 C1324 1.348 . S
C1326 C1328 1.353 . S
C1326 H1384 0.929 . S
C1327 C1324 1.356 . S
C1327 C1329 1.358 . S
C1327 H1385 0.930 . S
C1328 N1325 1.314 . S
C1328 C1326 1.353 . S
C1328 H1386 0.930 . S
C1329 N1325 1.279 . S
C1329 C1327 1.358 . S
C1329 H1387 0.930 . S
C1330 C1333 1.348 . S
C1330 C1334 1.356 . S
C1330 O1381 1.325 . S
C1331 N1332 1.279 . S
C1331 C1334 1.358 . S
C1331 H1388 0.930 . S
N1332 C1331 1.279 . S
N1332 C1335 1.314 . S
C1333 C1330 1.348 . S
C1333 C1335 1.353 . S
C1333 H1389 0.929 . S
C1334 C1330 1.356 . S
C1334 C1331 1.358 . S
C1334 H1390 0.930 . S
C1335 N1332 1.314 . S
C1335 C1333 1.353 . S
C1335 H1391 0.930 . S
C1336 N1337 1.314 . S
C1336 C1341 1.353 . S
C1336 H1342 0.930 . S
N1337 Li1320 1.990 . S
N1337 C1336 1.314 . S
N1337 C1339 1.279 . S
C1338 C1339 1.358 . S
C1338 C1340 1.356 . S
C1338 H1392 0.930 . S
C1339 N1337 1.279 . S
C1339 C1338 1.358 . S
C1339 H1343 0.930 . S
C1340 C1338 1.356 . S
C1340 C1341 1.348 . S
C1341 C1336 1.353 . S
C1341 C1340 1.348 . S
C1341 H1393 0.929 . S
H1342 C1336 0.930 . S
H1343 C1339 0.930 . S
C1344 N1345 1.314 . S
C1344 C1346 1.353 . S
C1344 H1350 0.930 . S
N1345 Li1321 1.990 . S
N1345 C1344 1.314 . S
N1345 C1348 1.279 . S
C1346 C1344 1.353 . S
C1346 C1349 1.348 . S
C1346 H1394 0.929 . S
C1347 C1348 1.358 . S
C1347 C1349 1.356 . S
C1347 H1395 0.930 . S
C1348 N1345 1.279 . S
C1348 C1347 1.358 . S
C1348 H1351 0.930 . S
C1349 C1346 1.348 . S
C1349 C1347 1.356 . S
H1350 C1344 0.930 . S
H1351 C1348 0.930 . S
C1352 C1354 1.348 . S
C1352 C1355 1.356 . S
C1352 O1382 1.325 . S
N1353 C1356 1.314 . S
N1353 C1357 1.279 . S
C1354 C1352 1.348 . S
C1354 C1356 1.353 . S
C1354 H1396 0.929 . S
C1355 C1352 1.356 . S
C1355 C1357 1.358 . S
C1355 H1397 0.930 . S
C1356 N1353 1.314 . S
C1356 C1354 1.353 . S
C1356 H1398 0.930 . S
C1357 N1353 1.279 . S
C1357 C1355 1.358 . S
C1357 H1399 0.930 . S
C1358 C1359 1.348 . S
C1358 C1360 1.356 . S
C1358 O1383 1.325 . S
C1359 C1358 1.348 . S
C1359 C1361 1.353 . S
C1359 H1400 0.929 . S
C1360 C1358 1.356 . S
C1360 C1362 1.358 . S
C1360 H1401 0.930 . S
C1361 C1359 1.353 . S
C1361 N1363 1.314 . S
C1361 H1402 0.930 . S
C1362 C1360 1.358 . S
C1362 N1363 1.279 . S
C1362 H1403 0.930 . S
N1363 C1361 1.314 . S
N1363 C1362 1.279 . S
C1364 C1366 1.353 . S
C1364 N1367 1.314 . S
C1364 H1370 0.930 . S
C1365 N1367 1.279 . S
C1365 C1368 1.358 . S
C1365 H1371 0.930 . S
C1366 C1364 1.353 . S
C1366 C1369 1.348 . S
C1366 H1404 0.929 . S
N1367 Li1322 1.990 . S
N1367 C1364 1.314 . S
N1367 C1365 1.279 . S
C1368 C1365 1.358 . S
C1368 C1369 1.356 . S
C1368 H1405 0.930 . S
C1369 C1366 1.348 . S
C1369 C1368 1.356 . S
H1370 C1364 0.930 . S
H1371 C1365 0.930 . S
C1372 N1373 1.314 . S
C1372 C1374 1.353 . S
C1372 H1378 0.930 . S
N1373 Li1323 1.990 . S
N1373 C1372 1.314 . S
N1373 C1376 1.279 . S
C1374 C1372 1.353 . S
C1374 C1377 1.348 . S
C1374 H1406 0.929 . S
C1375 C1376 1.358 . S
C1375 C1377 1.356 . S
C1375 H1407 0.930 . S
C1376 N1373 1.279 . S
C1376 C1375 1.358 . S
C1376 H1379 0.930 . S
C1377 C1374 1.348 . S
C1377 C1375 1.356 . S
H1378 C1372 0.930 . S
H1379 C1376 0.930 . S
O1380 Li1320 1.956 . S
O1380 Li1321 1.970 . S
O1380 Li1322 1.961 . S
O1380 C1324 1.325 . S
O1381 Li1320 1.970 . S
O1381 Li1321 1.956 . S
O1381 Li1323 1.961 . S
O1381 C1330 1.325 . S
O1382 Li1320 1.961 . S
O1382 Li1322 1.956 . S
O1382 Li1323 1.970 . S
O1382 C1352 1.325 . S
O1383 Li1321 1.961 . S
O1383 Li1322 1.970 . S
O1383 Li1323 1.956 . S
O1383 C1358 1.325 . S
H1384 C1326 0.929 . S
H1385 C1327 0.930 . S
H1386 C1328 0.930 . S
H1387 C1329 0.930 . S
H1388 C1331 0.930 . S
H1389 C1333 0.929 . S
H1390 C1334 0.930 . S
H1391 C1335 0.930 . S
H1392 C1338 0.930 . S
H1393 C1341 0.929 . S
H1394 C1346 0.929 . S
H1395 C1347 0.930 . S
H1396 C1354 0.929 . S
H1397 C1355 0.930 . S
H1398 C1356 0.930 . S
H1399 C1357 0.930 . S
H1400 C1359 0.929 . S
H1401 C1360 0.930 . S
H1402 C1361 0.930 . S
H1403 C1362 0.930 . S
H1404 C1366 0.929 . S
H1405 C1368 0.930 . S
H1406 C1374 0.929 . S
H1407 C1375 0.930 . S
Li1408 N1425 1.990 . S
Li1408 O1468 1.956 . S
Li1408 O1469 1.970 . S
Li1408 O1470 1.961 . S
Li1409 N1433 1.990 . S
Li1409 O1468 1.970 . S
Li1409 O1469 1.956 . S
Li1409 O1471 1.961 . S
Li1410 N1455 1.990 . S
Li1410 O1468 1.961 . S
Li1410 O1470 1.956 . S
Li1410 O1471 1.970 . S
Li1411 N1461 1.990 . S
Li1411 O1469 1.961 . S
Li1411 O1470 1.970 . S
Li1411 O1471 1.956 . S
C1412 C1414 1.348 . S
C1412 C1415 1.356 . S
C1412 O1468 1.325 . S
N1413 C1416 1.314 . S
N1413 C1417 1.279 . S
C1414 C1412 1.348 . S
C1414 C1416 1.353 . S
C1414 H1472 0.929 . S
C1415 C1412 1.356 . S
C1415 C1417 1.358 . S
C1415 H1473 0.930 . S
C1416 N1413 1.314 . S
C1416 C1414 1.353 . S
C1416 H1474 0.930 . S
C1417 N1413 1.279 . S
C1417 C1415 1.358 . S
C1417 H1475 0.930 . S
C1418 C1421 1.348 . S
C1418 C1422 1.356 . S
C1418 O1469 1.325 . S
C1419 N1420 1.279 . S
C1419 C1422 1.358 . S
C1419 H1476 0.930 . S
N1420 C1419 1.279 . S
N1420 C1423 1.314 . S
C1421 C1418 1.348 . S
C1421 C1423 1.353 . S
C1421 H1477 0.929 . S
C1422 C1418 1.356 . S
C1422 C1419 1.358 . S
C1422 H1478 0.930 . S
C1423 N1420 1.314 . S
C1423 C1421 1.353 . S
C1423 H1479 0.930 . S
C1424 N1425 1.314 . S
C1424 C1429 1.353 . S
C1424 H1430 0.930 . S
N1425 Li1408 1.990 . S
N1425 C1424 1.314 . S
N1425 C1427 1.279 . S
C1426 C1427 1.358 . S
C1426 C1428 1.356 . S
C1426 H1480 0.930 . S
C1427 N1425 1.279 . S
C1427 C1426 1.358 . S
C1427 H1431 0.930 . S
C1428 C1426 1.356 . S
C1428 C1429 1.348 . S
C1429 C1424 1.353 . S
C1429 C1428 1.348 . S
C1429 H1481 0.929 . S
H1430 C1424 0.930 . S
H1431 C1427 0.930 . S
C1432 N1433 1.314 . S
C1432 C1434 1.353 . S
C1432 H1438 0.930 . S
N1433 Li1409 1.990 . S
N1433 C1432 1.314 . S
N1433 C1436 1.279 . S
C1434 C1432 1.353 . S
C1434 C1437 1.348 . S
C1434 H1482 0.929 . S
C1435 C1436 1.358 . S
C1435 C1437 1.356 . S
C1435 H1483 0.930 . S
C1436 N1433 1.279 . S
C1436 C1435 1.358 . S
C1436 H1439 0.930 . S
C1437 C1434 1.348 . S
C1437 C1435 1.356 . S
H1438 C1432 0.930 . S
H1439 C1436 0.930 . S
C1440 C1442 1.348 . S
C1440 C1443 1.356 . S
C1440 O1470 1.325 . S
N1441 C1444 1.314 . S
N1441 C1445 1.279 . S
C1442 C1440 1.348 . S
C1442 C1444 1.353 . S
C1442 H1484 0.929 . S
C1443 C1440 1.356 . S
C1443 C1445 1.358 . S
C1443 H1485 0.930 . S
C1444 N1441 1.314 . S
C1444 C1442 1.353 . S
C1444 H1486 0.930 . S
C1445 N1441 1.279 . S
C1445 C1443 1.358 . S
C1445 H1487 0.930 . S
C1446 C1447 1.348 . S
C1446 C1448 1.356 . S
C1446 O1471 1.325 . S
C1447 C1446 1.348 . S
C1447 C1449 1.353 . S
C1447 H1488 0.929 . S
C1448 C1446 1.356 . S
C1448 C1450 1.358 . S
C1448 H1489 0.930 . S
C1449 C1447 1.353 . S
C1449 N1451 1.314 . S
C1449 H1490 0.930 . S
C1450 C1448 1.358 . S
C1450 N1451 1.279 . S
C1450 H1491 0.930 . S
N1451 C1449 1.314 . S
N1451 C1450 1.279 . S
C1452 C1454 1.353 . S
C1452 N1455 1.314 . S
C1452 H1458 0.930 . S
C1453 N1455 1.279 . S
C1453 C1456 1.358 . S
C1453 H1459 0.930 . S
C1454 C1452 1.353 . S
C1454 C1457 1.348 . S
C1454 H1492 0.929 . S
N1455 Li1410 1.990 . S
N1455 C1452 1.314 . S
N1455 C1453 1.279 . S
C1456 C1453 1.358 . S
C1456 C1457 1.356 . S
C1456 H1493 0.930 . S
C1457 C1454 1.348 . S
C1457 C1456 1.356 . S
H1458 C1452 0.930 . S
H1459 C1453 0.930 . S
C1460 N1461 1.314 . S
C1460 C1462 1.353 . S
C1460 H1466 0.930 . S
N1461 Li1411 1.990 . S
N1461 C1460 1.314 . S
N1461 C1464 1.279 . S
C1462 C1460 1.353 . S
C1462 C1465 1.348 . S
C1462 H1494 0.929 . S
C1463 C1464 1.358 . S
C1463 C1465 1.356 . S
C1463 H1495 0.930 . S
C1464 N1461 1.279 . S
C1464 C1463 1.358 . S
C1464 H1467 0.930 . S
C1465 C1462 1.348 . S
C1465 C1463 1.356 . S
H1466 C1460 0.930 . S
H1467 C1464 0.930 . S
O1468 Li1408 1.956 . S
O1468 Li1409 1.970 . S
O1468 Li1410 1.961 . S
O1468 C1412 1.325 . S
O1469 Li1408 1.970 . S
O1469 Li1409 1.956 . S
O1469 Li1411 1.961 . S
O1469 C1418 1.325 . S
O1470 Li1408 1.961 . S
O1470 Li1410 1.956 . S
O1470 Li1411 1.970 . S
O1470 C1440 1.325 . S
O1471 Li1409 1.961 . S
O1471 Li1410 1.970 . S
O1471 Li1411 1.956 . S
O1471 C1446 1.325 . S
H1472 C1414 0.929 . S
H1473 C1415 0.930 . S
H1474 C1416 0.930 . S
H1475 C1417 0.930 . S
H1476 C1419 0.930 . S
H1477 C1421 0.929 . S
H1478 C1422 0.930 . S
H1479 C1423 0.930 . S
H1480 C1426 0.930 . S
H1481 C1429 0.929 . S
H1482 C1434 0.929 . S
H1483 C1435 0.930 . S
H1484 C1442 0.929 . S
H1485 C1443 0.930 . S
H1486 C1444 0.930 . S
H1487 C1445 0.930 . S
H1488 C1447 0.929 . S
H1489 C1448 0.930 . S
H1490 C1449 0.930 . S
H1491 C1450 0.930 . S
H1492 C1454 0.929 . S
H1493 C1456 0.930 . S
H1494 C1462 0.929 . S
H1495 C1463 0.930 . S
Li1496 N1513 1.990 . S
Li1496 O1556 1.956 . S
Li1496 O1557 1.970 . S
Li1496 O1558 1.961 . S
Li1497 N1521 1.990 . S
Li1497 O1556 1.970 . S
Li1497 O1557 1.956 . S
Li1497 O1559 1.961 . S
Li1498 N1543 1.990 . S
Li1498 O1556 1.961 . S
Li1498 O1558 1.956 . S
Li1498 O1559 1.970 . S
Li1499 N1549 1.990 . S
Li1499 O1557 1.961 . S
Li1499 O1558 1.970 . S
Li1499 O1559 1.956 . S
C1500 C1502 1.348 . S
C1500 C1503 1.356 . S
C1500 O1556 1.325 . S
N1501 C1504 1.314 . S
N1501 C1505 1.279 . S
C1502 C1500 1.348 . S
C1502 C1504 1.353 . S
C1502 H1560 0.929 . S
C1503 C1500 1.356 . S
C1503 C1505 1.358 . S
C1503 H1561 0.930 . S
C1504 N1501 1.314 . S
C1504 C1502 1.353 . S
C1504 H1562 0.930 . S
C1505 N1501 1.279 . S
C1505 C1503 1.358 . S
C1505 H1563 0.930 . S
C1506 C1509 1.348 . S
C1506 C1510 1.356 . S
C1506 O1557 1.325 . S
C1507 N1508 1.279 . S
C1507 C1510 1.358 . S
C1507 H1564 0.930 . S
N1508 C1507 1.279 . S
N1508 C1511 1.314 . S
C1509 C1506 1.348 . S
C1509 C1511 1.353 . S
C1509 H1565 0.929 . S
C1510 C1506 1.356 . S
C1510 C1507 1.358 . S
C1510 H1566 0.930 . S
C1511 N1508 1.314 . S
C1511 C1509 1.353 . S
C1511 H1567 0.930 . S
C1512 N1513 1.314 . S
C1512 C1517 1.353 . S
C1512 H1518 0.930 . S
N1513 Li1496 1.990 . S
N1513 C1512 1.314 . S
N1513 C1515 1.279 . S
C1514 C1515 1.358 . S
C1514 C1516 1.356 . S
C1514 H1568 0.930 . S
C1515 N1513 1.279 . S
C1515 C1514 1.358 . S
C1515 H1519 0.930 . S
C1516 C1514 1.356 . S
C1516 C1517 1.348 . S
C1517 C1512 1.353 . S
C1517 C1516 1.348 . S
C1517 H1569 0.929 . S
H1518 C1512 0.930 . S
H1519 C1515 0.930 . S
C1520 N1521 1.314 . S
C1520 C1522 1.353 . S
C1520 H1526 0.930 . S
N1521 Li1497 1.990 . S
N1521 C1520 1.314 . S
N1521 C1524 1.279 . S
C1522 C1520 1.353 . S
C1522 C1525 1.348 . S
C1522 H1570 0.929 . S
C1523 C1524 1.358 . S
C1523 C1525 1.356 . S
C1523 H1571 0.930 . S
C1524 N1521 1.279 . S
C1524 C1523 1.358 . S
C1524 H1527 0.930 . S
C1525 C1522 1.348 . S
C1525 C1523 1.356 . S
H1526 C1520 0.930 . S
H1527 C1524 0.930 . S
C1528 C1530 1.348 . S
C1528 C1531 1.356 . S
C1528 O1558 1.325 . S
N1529 C1532 1.314 . S
N1529 C1533 1.279 . S
C1530 C1528 1.348 . S
C1530 C1532 1.353 . S
C1530 H1572 0.929 . S
C1531 C1528 1.356 . S
C1531 C1533 1.358 . S
C1531 H1573 0.930 . S
C1532 N1529 1.314 . S
C1532 C1530 1.353 . S
C1532 H1574 0.930 . S
C1533 N1529 1.279 . S
C1533 C1531 1.358 . S
C1533 H1575 0.930 . S
C1534 C1535 1.348 . S
C1534 C1536 1.356 . S
C1534 O1559 1.325 . S
C1535 C1534 1.348 . S
C1535 C1537 1.353 . S
C1535 H1576 0.929 . S
C1536 C1534 1.356 . S
C1536 C1538 1.358 . S
C1536 H1577 0.930 . S
C1537 C1535 1.353 . S
C1537 N1539 1.314 . S
C1537 H1578 0.930 . S
C1538 C1536 1.358 . S
C1538 N1539 1.279 . S
C1538 H1579 0.930 . S
N1539 C1537 1.314 . S
N1539 C1538 1.279 . S
C1540 C1542 1.353 . S
C1540 N1543 1.314 . S
C1540 H1546 0.930 . S
C1541 N1543 1.279 . S
C1541 C1544 1.358 . S
C1541 H1547 0.930 . S
C1542 C1540 1.353 . S
C1542 C1545 1.348 . S
C1542 H1580 0.929 . S
N1543 Li1498 1.990 . S
N1543 C1540 1.314 . S
N1543 C1541 1.279 . S
C1544 C1541 1.358 . S
C1544 C1545 1.356 . S
C1544 H1581 0.930 . S
C1545 C1542 1.348 . S
C1545 C1544 1.356 . S
H1546 C1540 0.930 . S
H1547 C1541 0.930 . S
C1548 N1549 1.314 . S
C1548 C1550 1.353 . S
C1548 H1554 0.930 . S
N1549 Li1499 1.990 . S
N1549 C1548 1.314 . S
N1549 C1552 1.279 . S
C1550 C1548 1.353 . S
C1550 C1553 1.348 . S
C1550 H1582 0.929 . S
C1551 C1552 1.358 . S
C1551 C1553 1.356 . S
C1551 H1583 0.930 . S
C1552 N1549 1.279 . S
C1552 C1551 1.358 . S
C1552 H1555 0.930 . S
C1553 C1550 1.348 . S
C1553 C1551 1.356 . S
H1554 C1548 0.930 . S
H1555 C1552 0.930 . S
O1556 Li1496 1.956 . S
O1556 Li1497 1.970 . S
O1556 Li1498 1.961 . S
O1556 C1500 1.325 . S
O1557 Li1496 1.970 . S
O1557 Li1497 1.956 . S
O1557 Li1499 1.961 . S
O1557 C1506 1.325 . S
O1558 Li1496 1.961 . S
O1558 Li1498 1.956 . S
O1558 Li1499 1.970 . S
O1558 C1528 1.325 . S
O1559 Li1497 1.961 . S
O1559 Li1498 1.970 . S
O1559 Li1499 1.956 . S
O1559 C1534 1.325 . S
H1560 C1502 0.929 . S
H1561 C1503 0.930 . S
H1562 C1504 0.930 . S
H1563 C1505 0.930 . S
H1564 C1507 0.930 . S
H1565 C1509 0.929 . S
H1566 C1510 0.930 . S
H1567 C1511 0.930 . S
H1568 C1514 0.930 . S
H1569 C1517 0.929 . S
H1570 C1522 0.929 . S
H1571 C1523 0.930 . S
H1572 C1530 0.929 . S
H1573 C1531 0.930 . S
H1574 C1532 0.930 . S
H1575 C1533 0.930 . S
H1576 C1535 0.929 . S
H1577 C1536 0.930 . S
H1578 C1537 0.930 . S
H1579 C1538 0.930 . S
H1580 C1542 0.929 . S
H1581 C1544 0.930 . S
H1582 C1550 0.929 . S
H1583 C1551 0.930 . S
Li1584 N1601 1.990 . S
Li1584 O1644 1.956 . S
Li1584 O1645 1.970 . S
Li1584 O1646 1.961 . S
Li1585 N1609 1.990 . S
Li1585 O1644 1.970 . S
Li1585 O1645 1.956 . S
Li1585 O1647 1.961 . S
Li1586 N1631 1.990 . S
Li1586 O1644 1.961 . S
Li1586 O1646 1.956 . S
Li1586 O1647 1.970 . S
Li1587 N1637 1.990 . S
Li1587 O1645 1.961 . S
Li1587 O1646 1.970 . S
Li1587 O1647 1.956 . S
C1588 C1590 1.348 . S
C1588 C1591 1.356 . S
C1588 O1644 1.325 . S
N1589 C1592 1.314 . S
N1589 C1593 1.279 . S
C1590 C1588 1.348 . S
C1590 C1592 1.353 . S
C1590 H1648 0.929 . S
C1591 C1588 1.356 . S
C1591 C1593 1.358 . S
C1591 H1649 0.930 . S
C1592 N1589 1.314 . S
C1592 C1590 1.353 . S
C1592 H1650 0.930 . S
C1593 N1589 1.279 . S
C1593 C1591 1.358 . S
C1593 H1651 0.930 . S
C1594 C1597 1.348 . S
C1594 C1598 1.356 . S
C1594 O1645 1.325 . S
C1595 N1596 1.279 . S
C1595 C1598 1.358 . S
C1595 H1652 0.930 . S
N1596 C1595 1.279 . S
N1596 C1599 1.314 . S
C1597 C1594 1.348 . S
C1597 C1599 1.353 . S
C1597 H1653 0.929 . S
C1598 C1594 1.356 . S
C1598 C1595 1.358 . S
C1598 H1654 0.930 . S
C1599 N1596 1.314 . S
C1599 C1597 1.353 . S
C1599 H1655 0.930 . S
C1600 N1601 1.314 . S
C1600 C1605 1.353 . S
C1600 H1606 0.930 . S
N1601 Li1584 1.990 . S
N1601 C1600 1.314 . S
N1601 C1603 1.279 . S
C1602 C1603 1.358 . S
C1602 C1604 1.356 . S
C1602 H1656 0.930 . S
C1603 N1601 1.279 . S
C1603 C1602 1.358 . S
C1603 H1607 0.930 . S
C1604 C1602 1.356 . S
C1604 C1605 1.348 . S
C1605 C1600 1.353 . S
C1605 C1604 1.348 . S
C1605 H1657 0.929 . S
H1606 C1600 0.930 . S
H1607 C1603 0.930 . S
C1608 N1609 1.314 . S
C1608 C1610 1.353 . S
C1608 H1614 0.930 . S
N1609 Li1585 1.990 . S
N1609 C1608 1.314 . S
N1609 C1612 1.279 . S
C1610 C1608 1.353 . S
C1610 C1613 1.348 . S
C1610 H1658 0.929 . S
C1611 C1612 1.358 . S
C1611 C1613 1.356 . S
C1611 H1659 0.930 . S
C1612 N1609 1.279 . S
C1612 C1611 1.358 . S
C1612 H1615 0.930 . S
C1613 C1610 1.348 . S
C1613 C1611 1.356 . S
H1614 C1608 0.930 . S
H1615 C1612 0.930 . S
C1616 C1618 1.348 . S
C1616 C1619 1.356 . S
C1616 O1646 1.325 . S
N1617 C1620 1.314 . S
N1617 C1621 1.279 . S
C1618 C1616 1.348 . S
C1618 C1620 1.353 . S
C1618 H1660 0.929 . S
C1619 C1616 1.356 . S
C1619 C1621 1.358 . S
C1619 H1661 0.930 . S
C1620 N1617 1.314 . S
C1620 C1618 1.353 . S
C1620 H1662 0.930 . S
C1621 N1617 1.279 . S
C1621 C1619 1.358 . S
C1621 H1663 0.930 . S
C1622 C1623 1.348 . S
C1622 C1624 1.356 . S
C1622 O1647 1.325 . S
C1623 C1622 1.348 . S
C1623 C1625 1.353 . S
C1623 H1664 0.929 . S
C1624 C1622 1.356 . S
C1624 C1626 1.358 . S
C1624 H1665 0.930 . S
C1625 C1623 1.353 . S
C1625 N1627 1.314 . S
C1625 H1666 0.930 . S
C1626 C1624 1.358 . S
C1626 N1627 1.279 . S
C1626 H1667 0.930 . S
N1627 C1625 1.314 . S
N1627 C1626 1.279 . S
C1628 C1630 1.353 . S
C1628 N1631 1.314 . S
C1628 H1634 0.930 . S
C1629 N1631 1.279 . S
C1629 C1632 1.358 . S
C1629 H1635 0.930 . S
C1630 C1628 1.353 . S
C1630 C1633 1.348 . S
C1630 H1668 0.929 . S
N1631 Li1586 1.990 . S
N1631 C1628 1.314 . S
N1631 C1629 1.279 . S
C1632 C1629 1.358 . S
C1632 C1633 1.356 . S
C1632 H1669 0.930 . S
C1633 C1630 1.348 . S
C1633 C1632 1.356 . S
H1634 C1628 0.930 . S
H1635 C1629 0.930 . S
C1636 N1637 1.314 . S
C1636 C1638 1.353 . S
C1636 H1642 0.930 . S
N1637 Li1587 1.990 . S
N1637 C1636 1.314 . S
N1637 C1640 1.279 . S
C1638 C1636 1.353 . S
C1638 C1641 1.348 . S
C1638 H1670 0.929 . S
C1639 C1640 1.358 . S
C1639 C1641 1.356 . S
C1639 H1671 0.930 . S
C1640 N1637 1.279 . S
C1640 C1639 1.358 . S
C1640 H1643 0.930 . S
C1641 C1638 1.348 . S
C1641 C1639 1.356 . S
H1642 C1636 0.930 . S
H1643 C1640 0.930 . S
O1644 Li1584 1.956 . S
O1644 Li1585 1.970 . S
O1644 Li1586 1.961 . S
O1644 C1588 1.325 . S
O1645 Li1584 1.970 . S
O1645 Li1585 1.956 . S
O1645 Li1587 1.961 . S
O1645 C1594 1.325 . S
O1646 Li1584 1.961 . S
O1646 Li1586 1.956 . S
O1646 Li1587 1.970 . S
O1646 C1616 1.325 . S
O1647 Li1585 1.961 . S
O1647 Li1586 1.970 . S
O1647 Li1587 1.956 . S
O1647 C1622 1.325 . S
H1648 C1590 0.929 . S
H1649 C1591 0.930 . S
H1650 C1592 0.930 . S
H1651 C1593 0.930 . S
H1652 C1595 0.930 . S
H1653 C1597 0.929 . S
H1654 C1598 0.930 . S
H1655 C1599 0.930 . S
H1656 C1602 0.930 . S
H1657 C1605 0.929 . S
H1658 C1610 0.929 . S
H1659 C1611 0.930 . S
H1660 C1618 0.929 . S
H1661 C1619 0.930 . S
H1662 C1620 0.930 . S
H1663 C1621 0.930 . S
H1664 C1623 0.929 . S
H1665 C1624 0.930 . S
H1666 C1625 0.930 . S
H1667 C1626 0.930 . S
H1668 C1630 0.929 . S
H1669 C1632 0.930 . S
H1670 C1638 0.929 . S
H1671 C1639 0.930 . S
Li1672 N1689 1.990 . S
Li1672 O1732 1.956 . S
Li1672 O1733 1.970 . S
Li1672 O1734 1.961 . S
Li1673 N1697 1.990 . S
Li1673 O1732 1.970 . S
Li1673 O1733 1.956 . S
Li1673 O1735 1.961 . S
Li1674 N1719 1.990 . S
Li1674 O1732 1.961 . S
Li1674 O1734 1.956 . S
Li1674 O1735 1.970 . S
Li1675 N1725 1.990 . S
Li1675 O1733 1.961 . S
Li1675 O1734 1.970 . S
Li1675 O1735 1.956 . S
C1676 C1678 1.348 . S
C1676 C1679 1.356 . S
C1676 O1732 1.325 . S
N1677 C1680 1.314 . S
N1677 C1681 1.279 . S
C1678 C1676 1.348 . S
C1678 C1680 1.353 . S
C1678 H1736 0.929 . S
C1679 C1676 1.356 . S
C1679 C1681 1.358 . S
C1679 H1737 0.930 . S
C1680 N1677 1.314 . S
C1680 C1678 1.353 . S
C1680 H1738 0.930 . S
C1681 N1677 1.279 . S
C1681 C1679 1.358 . S
C1681 H1739 0.930 . S
C1682 C1685 1.348 . S
C1682 C1686 1.356 . S
C1682 O1733 1.325 . S
C1683 N1684 1.279 . S
C1683 C1686 1.358 . S
C1683 H1740 0.930 . S
N1684 C1683 1.279 . S
N1684 C1687 1.314 . S
C1685 C1682 1.348 . S
C1685 C1687 1.353 . S
C1685 H1741 0.929 . S
C1686 C1682 1.356 . S
C1686 C1683 1.358 . S
C1686 H1742 0.930 . S
C1687 N1684 1.314 . S
C1687 C1685 1.353 . S
C1687 H1743 0.930 . S
C1688 N1689 1.314 . S
C1688 C1693 1.353 . S
C1688 H1694 0.930 . S
N1689 Li1672 1.990 . S
N1689 C1688 1.314 . S
N1689 C1691 1.279 . S
C1690 C1691 1.358 . S
C1690 C1692 1.356 . S
C1690 H1744 0.930 . S
C1691 N1689 1.279 . S
C1691 C1690 1.358 . S
C1691 H1695 0.930 . S
C1692 C1690 1.356 . S
C1692 C1693 1.348 . S
C1693 C1688 1.353 . S
C1693 C1692 1.348 . S
C1693 H1745 0.929 . S
H1694 C1688 0.930 . S
H1695 C1691 0.930 . S
C1696 N1697 1.314 . S
C1696 C1698 1.353 . S
C1696 H1702 0.930 . S
N1697 Li1673 1.990 . S
N1697 C1696 1.314 . S
N1697 C1700 1.279 . S
C1698 C1696 1.353 . S
C1698 C1701 1.348 . S
C1698 H1746 0.929 . S
C1699 C1700 1.358 . S
C1699 C1701 1.356 . S
C1699 H1747 0.930 . S
C1700 N1697 1.279 . S
C1700 C1699 1.358 . S
C1700 H1703 0.930 . S
C1701 C1698 1.348 . S
C1701 C1699 1.356 . S
H1702 C1696 0.930 . S
H1703 C1700 0.930 . S
C1704 C1706 1.348 . S
C1704 C1707 1.356 . S
C1704 O1734 1.325 . S
N1705 C1708 1.314 . S
N1705 C1709 1.279 . S
C1706 C1704 1.348 . S
C1706 C1708 1.353 . S
C1706 H1748 0.929 . S
C1707 C1704 1.356 . S
C1707 C1709 1.358 . S
C1707 H1749 0.930 . S
C1708 N1705 1.314 . S
C1708 C1706 1.353 . S
C1708 H1750 0.930 . S
C1709 N1705 1.279 . S
C1709 C1707 1.358 . S
C1709 H1751 0.930 . S
C1710 C1711 1.348 . S
C1710 C1712 1.356 . S
C1710 O1735 1.325 . S
C1711 C1710 1.348 . S
C1711 C1713 1.353 . S
C1711 H1752 0.929 . S
C1712 C1710 1.356 . S
C1712 C1714 1.358 . S
C1712 H1753 0.930 . S
C1713 C1711 1.353 . S
C1713 N1715 1.314 . S
C1713 H1754 0.930 . S
C1714 C1712 1.358 . S
C1714 N1715 1.279 . S
C1714 H1755 0.930 . S
N1715 C1713 1.314 . S
N1715 C1714 1.279 . S
C1716 C1718 1.353 . S
C1716 N1719 1.314 . S
C1716 H1722 0.930 . S
C1717 N1719 1.279 . S
C1717 C1720 1.358 . S
C1717 H1723 0.930 . S
C1718 C1716 1.353 . S
C1718 C1721 1.348 . S
C1718 H1756 0.929 . S
N1719 Li1674 1.990 . S
N1719 C1716 1.314 . S
N1719 C1717 1.279 . S
C1720 C1717 1.358 . S
C1720 C1721 1.356 . S
C1720 H1757 0.930 . S
C1721 C1718 1.348 . S
C1721 C1720 1.356 . S
H1722 C1716 0.930 . S
H1723 C1717 0.930 . S
C1724 N1725 1.314 . S
C1724 C1726 1.353 . S
C1724 H1730 0.930 . S
N1725 Li1675 1.990 . S
N1725 C1724 1.314 . S
N1725 C1728 1.279 . S
C1726 C1724 1.353 . S
C1726 C1729 1.348 . S
C1726 H1758 0.929 . S
C1727 C1728 1.358 . S
C1727 C1729 1.356 . S
C1727 H1759 0.930 . S
C1728 N1725 1.279 . S
C1728 C1727 1.358 . S
C1728 H1731 0.930 . S
C1729 C1726 1.348 . S
C1729 C1727 1.356 . S
H1730 C1724 0.930 . S
H1731 C1728 0.930 . S
O1732 Li1672 1.956 . S
O1732 Li1673 1.970 . S
O1732 Li1674 1.961 . S
O1732 C1676 1.325 . S
O1733 Li1672 1.970 . S
O1733 Li1673 1.956 . S
O1733 Li1675 1.961 . S
O1733 C1682 1.325 . S
O1734 Li1672 1.961 . S
O1734 Li1674 1.956 . S
O1734 Li1675 1.970 . S
O1734 C1704 1.325 . S
O1735 Li1673 1.961 . S
O1735 Li1674 1.970 . S
O1735 Li1675 1.956 . S
O1735 C1710 1.325 . S
H1736 C1678 0.929 . S
H1737 C1679 0.930 . S
H1738 C1680 0.930 . S
H1739 C1681 0.930 . S
H1740 C1683 0.930 . S
H1741 C1685 0.929 . S
H1742 C1686 0.930 . S
H1743 C1687 0.930 . S
H1744 C1690 0.930 . S
H1745 C1693 0.929 . S
H1746 C1698 0.929 . S
H1747 C1699 0.930 . S
H1748 C1706 0.929 . S
H1749 C1707 0.930 . S
H1750 C1708 0.930 . S
H1751 C1709 0.930 . S
H1752 C1711 0.929 . S
H1753 C1712 0.930 . S
H1754 C1713 0.930 . S
H1755 C1714 0.930 . S
H1756 C1718 0.929 . S
H1757 C1720 0.930 . S
H1758 C1726 0.929 . S
H1759 C1727 0.930 . S
Li1760 N1777 1.990 . S
Li1760 O1820 1.956 . S
Li1760 O1821 1.970 . S
Li1760 O1822 1.961 . S
Li1761 N1785 1.990 . S
Li1761 O1820 1.970 . S
Li1761 O1821 1.956 . S
Li1761 O1823 1.961 . S
Li1762 N1807 1.990 . S
Li1762 O1820 1.961 . S
Li1762 O1822 1.956 . S
Li1762 O1823 1.970 . S
Li1763 N1813 1.990 . S
Li1763 O1821 1.961 . S
Li1763 O1822 1.970 . S
Li1763 O1823 1.956 . S
C1764 C1766 1.348 . S
C1764 C1767 1.356 . S
C1764 O1820 1.325 . S
N1765 C1768 1.314 . S
N1765 C1769 1.279 . S
C1766 C1764 1.348 . S
C1766 C1768 1.353 . S
C1766 H1824 0.929 . S
C1767 C1764 1.356 . S
C1767 C1769 1.358 . S
C1767 H1825 0.930 . S
C1768 N1765 1.314 . S
C1768 C1766 1.353 . S
C1768 H1826 0.930 . S
C1769 N1765 1.279 . S
C1769 C1767 1.358 . S
C1769 H1827 0.930 . S
C1770 C1773 1.348 . S
C1770 C1774 1.356 . S
C1770 O1821 1.325 . S
C1771 N1772 1.279 . S
C1771 C1774 1.358 . S
C1771 H1828 0.930 . S
N1772 C1771 1.279 . S
N1772 C1775 1.314 . S
C1773 C1770 1.348 . S
C1773 C1775 1.353 . S
C1773 H1829 0.929 . S
C1774 C1770 1.356 . S
C1774 C1771 1.358 . S
C1774 H1830 0.930 . S
C1775 N1772 1.314 . S
C1775 C1773 1.353 . S
C1775 H1831 0.930 . S
C1776 N1777 1.314 . S
C1776 C1781 1.353 . S
C1776 H1782 0.930 . S
N1777 Li1760 1.990 . S
N1777 C1776 1.314 . S
N1777 C1779 1.279 . S
C1778 C1779 1.358 . S
C1778 C1780 1.356 . S
C1778 H1832 0.930 . S
C1779 N1777 1.279 . S
C1779 C1778 1.358 . S
C1779 H1783 0.930 . S
C1780 C1778 1.356 . S
C1780 C1781 1.348 . S
C1781 C1776 1.353 . S
C1781 C1780 1.348 . S
C1781 H1833 0.929 . S
H1782 C1776 0.930 . S
H1783 C1779 0.930 . S
C1784 N1785 1.314 . S
C1784 C1786 1.353 . S
C1784 H1790 0.930 . S
N1785 Li1761 1.990 . S
N1785 C1784 1.314 . S
N1785 C1788 1.279 . S
C1786 C1784 1.353 . S
C1786 C1789 1.348 . S
C1786 H1834 0.929 . S
C1787 C1788 1.358 . S
C1787 C1789 1.356 . S
C1787 H1835 0.930 . S
C1788 N1785 1.279 . S
C1788 C1787 1.358 . S
C1788 H1791 0.930 . S
C1789 C1786 1.348 . S
C1789 C1787 1.356 . S
H1790 C1784 0.930 . S
H1791 C1788 0.930 . S
C1792 C1794 1.348 . S
C1792 C1795 1.356 . S
C1792 O1822 1.325 . S
N1793 C1796 1.314 . S
N1793 C1797 1.279 . S
C1794 C1792 1.348 . S
C1794 C1796 1.353 . S
C1794 H1836 0.929 . S
C1795 C1792 1.356 . S
C1795 C1797 1.358 . S
C1795 H1837 0.930 . S
C1796 N1793 1.314 . S
C1796 C1794 1.353 . S
C1796 H1838 0.930 . S
C1797 N1793 1.279 . S
C1797 C1795 1.358 . S
C1797 H1839 0.930 . S
C1798 C1799 1.348 . S
C1798 C1800 1.356 . S
C1798 O1823 1.325 . S
C1799 C1798 1.348 . S
C1799 C1801 1.353 . S
C1799 H1840 0.929 . S
C1800 C1798 1.356 . S
C1800 C1802 1.358 . S
C1800 H1841 0.930 . S
C1801 C1799 1.353 . S
C1801 N1803 1.314 . S
C1801 H1842 0.930 . S
C1802 C1800 1.358 . S
C1802 N1803 1.279 . S
C1802 H1843 0.930 . S
N1803 C1801 1.314 . S
N1803 C1802 1.279 . S
C1804 C1806 1.353 . S
C1804 N1807 1.314 . S
C1804 H1810 0.930 . S
C1805 N1807 1.279 . S
C1805 C1808 1.358 . S
C1805 H1811 0.930 . S
C1806 C1804 1.353 . S
C1806 C1809 1.348 . S
C1806 H1844 0.929 . S
N1807 Li1762 1.990 . S
N1807 C1804 1.314 . S
N1807 C1805 1.279 . S
C1808 C1805 1.358 . S
C1808 C1809 1.356 . S
C1808 H1845 0.930 . S
C1809 C1806 1.348 . S
C1809 C1808 1.356 . S
H1810 C1804 0.930 . S
H1811 C1805 0.930 . S
C1812 N1813 1.314 . S
C1812 C1814 1.353 . S
C1812 H1818 0.930 . S
N1813 Li1763 1.990 . S
N1813 C1812 1.314 . S
N1813 C1816 1.279 . S
C1814 C1812 1.353 . S
C1814 C1817 1.348 . S
C1814 H1846 0.929 . S
C1815 C1816 1.358 . S
C1815 C1817 1.356 . S
C1815 H1847 0.930 . S
C1816 N1813 1.279 . S
C1816 C1815 1.358 . S
C1816 H1819 0.930 . S
C1817 C1814 1.348 . S
C1817 C1815 1.356 . S
H1818 C1812 0.930 . S
H1819 C1816 0.930 . S
O1820 Li1760 1.956 . S
O1820 Li1761 1.970 . S
O1820 Li1762 1.961 . S
O1820 C1764 1.325 . S
O1821 Li1760 1.970 . S
O1821 Li1761 1.956 . S
O1821 Li1763 1.961 . S
O1821 C1770 1.325 . S
O1822 Li1760 1.961 . S
O1822 Li1762 1.956 . S
O1822 Li1763 1.970 . S
O1822 C1792 1.325 . S
O1823 Li1761 1.961 . S
O1823 Li1762 1.970 . S
O1823 Li1763 1.956 . S
O1823 C1798 1.325 . S
H1824 C1766 0.929 . S
H1825 C1767 0.930 . S
H1826 C1768 0.930 . S
H1827 C1769 0.930 . S
H1828 C1771 0.930 . S
H1829 C1773 0.929 . S
H1830 C1774 0.930 . S
H1831 C1775 0.930 . S
H1832 C1778 0.930 . S
H1833 C1781 0.929 . S
H1834 C1786 0.929 . S
H1835 C1787 0.930 . S
H1836 C1794 0.929 . S
H1837 C1795 0.930 . S
H1838 C1796 0.930 . S
H1839 C1797 0.930 . S
H1840 C1799 0.929 . S
H1841 C1800 0.930 . S
H1842 C1801 0.930 . S
H1843 C1802 0.930 . S
H1844 C1806 0.929 . S
H1845 C1808 0.930 . S
H1846 C1814 0.929 . S
H1847 C1815 0.930 . S
Li1848 N1865 1.990 . S
Li1848 O1908 1.956 . S
Li1848 O1909 1.970 . S
Li1848 O1910 1.961 . S
Li1849 N1873 1.990 . S
Li1849 O1908 1.970 . S
Li1849 O1909 1.956 . S
Li1849 O1911 1.961 . S
Li1850 N1895 1.990 . S
Li1850 O1908 1.961 . S
Li1850 O1910 1.956 . S
Li1850 O1911 1.970 . S
Li1851 N1901 1.990 . S
Li1851 O1909 1.961 . S
Li1851 O1910 1.970 . S
Li1851 O1911 1.956 . S
C1852 C1854 1.348 . S
C1852 C1855 1.356 . S
C1852 O1908 1.325 . S
N1853 C1856 1.314 . S
N1853 C1857 1.279 . S
C1854 C1852 1.348 . S
C1854 C1856 1.353 . S
C1854 H1912 0.929 . S
C1855 C1852 1.356 . S
C1855 C1857 1.358 . S
C1855 H1913 0.930 . S
C1856 N1853 1.314 . S
C1856 C1854 1.353 . S
C1856 H1914 0.930 . S
C1857 N1853 1.279 . S
C1857 C1855 1.358 . S
C1857 H1915 0.930 . S
C1858 C1861 1.348 . S
C1858 C1862 1.356 . S
C1858 O1909 1.325 . S
C1859 N1860 1.279 . S
C1859 C1862 1.358 . S
C1859 H1916 0.930 . S
N1860 C1859 1.279 . S
N1860 C1863 1.314 . S
C1861 C1858 1.348 . S
C1861 C1863 1.353 . S
C1861 H1917 0.929 . S
C1862 C1858 1.356 . S
C1862 C1859 1.358 . S
C1862 H1918 0.930 . S
C1863 N1860 1.314 . S
C1863 C1861 1.353 . S
C1863 H1919 0.930 . S
C1864 N1865 1.314 . S
C1864 C1869 1.353 . S
C1864 H1870 0.930 . S
N1865 Li1848 1.990 . S
N1865 C1864 1.314 . S
N1865 C1867 1.279 . S
C1866 C1867 1.358 . S
C1866 C1868 1.356 . S
C1866 H1920 0.930 . S
C1867 N1865 1.279 . S
C1867 C1866 1.358 . S
C1867 H1871 0.930 . S
C1868 C1866 1.356 . S
C1868 C1869 1.348 . S
C1869 C1864 1.353 . S
C1869 C1868 1.348 . S
C1869 H1921 0.929 . S
H1870 C1864 0.930 . S
H1871 C1867 0.930 . S
C1872 N1873 1.314 . S
C1872 C1874 1.353 . S
C1872 H1878 0.930 . S
N1873 Li1849 1.990 . S
N1873 C1872 1.314 . S
N1873 C1876 1.279 . S
C1874 C1872 1.353 . S
C1874 C1877 1.348 . S
C1874 H1922 0.929 . S
C1875 C1876 1.358 . S
C1875 C1877 1.356 . S
C1875 H1923 0.930 . S
C1876 N1873 1.279 . S
C1876 C1875 1.358 . S
C1876 H1879 0.930 . S
C1877 C1874 1.348 . S
C1877 C1875 1.356 . S
H1878 C1872 0.930 . S
H1879 C1876 0.930 . S
C1880 C1882 1.348 . S
C1880 C1883 1.356 . S
C1880 O1910 1.325 . S
N1881 C1884 1.314 . S
N1881 C1885 1.279 . S
C1882 C1880 1.348 . S
C1882 C1884 1.353 . S
C1882 H1924 0.929 . S
C1883 C1880 1.356 . S
C1883 C1885 1.358 . S
C1883 H1925 0.930 . S
C1884 N1881 1.314 . S
C1884 C1882 1.353 . S
C1884 H1926 0.930 . S
C1885 N1881 1.279 . S
C1885 C1883 1.358 . S
C1885 H1927 0.930 . S
C1886 C1887 1.348 . S
C1886 C1888 1.356 . S
C1886 O1911 1.325 . S
C1887 C1886 1.348 . S
C1887 C1889 1.353 . S
C1887 H1928 0.929 . S
C1888 C1886 1.356 . S
C1888 C1890 1.358 . S
C1888 H1929 0.930 . S
C1889 C1887 1.353 . S
C1889 N1891 1.314 . S
C1889 H1930 0.930 . S
C1890 C1888 1.358 . S
C1890 N1891 1.279 . S
C1890 H1931 0.930 . S
N1891 C1889 1.314 . S
N1891 C1890 1.279 . S
C1892 C1894 1.353 . S
C1892 N1895 1.314 . S
C1892 H1898 0.930 . S
C1893 N1895 1.279 . S
C1893 C1896 1.358 . S
C1893 H1899 0.930 . S
C1894 C1892 1.353 . S
C1894 C1897 1.348 . S
C1894 H1932 0.929 . S
N1895 Li1850 1.990 . S
N1895 C1892 1.314 . S
N1895 C1893 1.279 . S
C1896 C1893 1.358 . S
C1896 C1897 1.356 . S
C1896 H1933 0.930 . S
C1897 C1894 1.348 . S
C1897 C1896 1.356 . S
H1898 C1892 0.930 . S
H1899 C1893 0.930 . S
C1900 N1901 1.314 . S
C1900 C1902 1.353 . S
C1900 H1906 0.930 . S
N1901 Li1851 1.990 . S
N1901 C1900 1.314 . S
N1901 C1904 1.279 . S
C1902 C1900 1.353 . S
C1902 C1905 1.348 . S
C1902 H1934 0.929 . S
C1903 C1904 1.358 . S
C1903 C1905 1.356 . S
C1903 H1935 0.930 . S
C1904 N1901 1.279 . S
C1904 C1903 1.358 . S
C1904 H1907 0.930 . S
C1905 C1902 1.348 . S
C1905 C1903 1.356 . S
H1906 C1900 0.930 . S
H1907 C1904 0.930 . S
O1908 Li1848 1.956 . S
O1908 Li1849 1.970 . S
O1908 Li1850 1.961 . S
O1908 C1852 1.325 . S
O1909 Li1848 1.970 . S
O1909 Li1849 1.956 . S
O1909 Li1851 1.961 . S
O1909 C1858 1.325 . S
O1910 Li1848 1.961 . S
O1910 Li1850 1.956 . S
O1910 Li1851 1.970 . S
O1910 C1880 1.325 . S
O1911 Li1849 1.961 . S
O1911 Li1850 1.970 . S
O1911 Li1851 1.956 . S
O1911 C1886 1.325 . S
H1912 C1854 0.929 . S
H1913 C1855 0.930 . S
H1914 C1856 0.930 . S
H1915 C1857 0.930 . S
H1916 C1859 0.930 . S
H1917 C1861 0.929 . S
H1918 C1862 0.930 . S
H1919 C1863 0.930 . S
H1920 C1866 0.930 . S
H1921 C1869 0.929 . S
H1922 C1874 0.929 . S
H1923 C1875 0.930 . S
H1924 C1882 0.929 . S
H1925 C1883 0.930 . S
H1926 C1884 0.930 . S
H1927 C1885 0.930 . S
H1928 C1887 0.929 . S
H1929 C1888 0.930 . S
H1930 C1889 0.930 . S
H1931 C1890 0.930 . S
H1932 C1894 0.929 . S
H1933 C1896 0.930 . S
H1934 C1902 0.929 . S
H1935 C1903 0.930 . S
Li1936 N1953 1.990 . S
Li1936 O1996 1.956 . S
Li1936 O1997 1.970 . S
Li1936 O1998 1.961 . S
Li1937 N1961 1.990 . S
Li1937 O1996 1.970 . S
Li1937 O1997 1.956 . S
Li1937 O1999 1.961 . S
Li1938 N1983 1.990 . S
Li1938 O1996 1.961 . S
Li1938 O1998 1.956 . S
Li1938 O1999 1.970 . S
Li1939 N1989 1.990 . S
Li1939 O1997 1.961 . S
Li1939 O1998 1.970 . S
Li1939 O1999 1.956 . S
C1940 C1942 1.348 . S
C1940 C1943 1.356 . S
C1940 O1996 1.325 . S
N1941 C1944 1.314 . S
N1941 C1945 1.279 . S
C1942 C1940 1.348 . S
C1942 C1944 1.353 . S
C1942 H2000 0.929 . S
C1943 C1940 1.356 . S
C1943 C1945 1.358 . S
C1943 H2001 0.930 . S
C1944 N1941 1.314 . S
C1944 C1942 1.353 . S
C1944 H2002 0.930 . S
C1945 N1941 1.279 . S
C1945 C1943 1.358 . S
C1945 H2003 0.930 . S
C1946 C1949 1.348 . S
C1946 C1950 1.356 . S
C1946 O1997 1.325 . S
C1947 N1948 1.279 . S
C1947 C1950 1.358 . S
C1947 H2004 0.930 . S
N1948 C1947 1.279 . S
N1948 C1951 1.314 . S
C1949 C1946 1.348 . S
C1949 C1951 1.353 . S
C1949 H2005 0.929 . S
C1950 C1946 1.356 . S
C1950 C1947 1.358 . S
C1950 H2006 0.930 . S
C1951 N1948 1.314 . S
C1951 C1949 1.353 . S
C1951 H2007 0.930 . S
C1952 N1953 1.314 . S
C1952 C1957 1.353 . S
C1952 H1958 0.930 . S
N1953 Li1936 1.990 . S
N1953 C1952 1.314 . S
N1953 C1955 1.279 . S
C1954 C1955 1.358 . S
C1954 C1956 1.356 . S
C1954 H2008 0.930 . S
C1955 N1953 1.279 . S
C1955 C1954 1.358 . S
C1955 H1959 0.930 . S
C1956 C1954 1.356 . S
C1956 C1957 1.348 . S
C1957 C1952 1.353 . S
C1957 C1956 1.348 . S
C1957 H2009 0.929 . S
H1958 C1952 0.930 . S
H1959 C1955 0.930 . S
C1960 N1961 1.314 . S
C1960 C1962 1.353 . S
C1960 H1966 0.930 . S
N1961 Li1937 1.990 . S
N1961 C1960 1.314 . S
N1961 C1964 1.279 . S
C1962 C1960 1.353 . S
C1962 C1965 1.348 . S
C1962 H2010 0.929 . S
C1963 C1964 1.358 . S
C1963 C1965 1.356 . S
C1963 H2011 0.930 . S
C1964 N1961 1.279 . S
C1964 C1963 1.358 . S
C1964 H1967 0.930 . S
C1965 C1962 1.348 . S
C1965 C1963 1.356 . S
H1966 C1960 0.930 . S
H1967 C1964 0.930 . S
C1968 C1970 1.348 . S
C1968 C1971 1.356 . S
C1968 O1998 1.325 . S
N1969 C1972 1.314 . S
N1969 C1973 1.279 . S
C1970 C1968 1.348 . S
C1970 C1972 1.353 . S
C1970 H2012 0.929 . S
C1971 C1968 1.356 . S
C1971 C1973 1.358 . S
C1971 H2013 0.930 . S
C1972 N1969 1.314 . S
C1972 C1970 1.353 . S
C1972 H2014 0.930 . S
C1973 N1969 1.279 . S
C1973 C1971 1.358 . S
C1973 H2015 0.930 . S
C1974 C1975 1.348 . S
C1974 C1976 1.356 . S
C1974 O1999 1.325 . S
C1975 C1974 1.348 . S
C1975 C1977 1.353 . S
C1975 H2016 0.929 . S
C1976 C1974 1.356 . S
C1976 C1978 1.358 . S
C1976 H2017 0.930 . S
C1977 C1975 1.353 . S
C1977 N1979 1.314 . S
C1977 H2018 0.930 . S
C1978 C1976 1.358 . S
C1978 N1979 1.279 . S
C1978 H2019 0.930 . S
N1979 C1977 1.314 . S
N1979 C1978 1.279 . S
C1980 C1982 1.353 . S
C1980 N1983 1.314 . S
C1980 H1986 0.930 . S
C1981 N1983 1.279 . S
C1981 C1984 1.358 . S
C1981 H1987 0.930 . S
C1982 C1980 1.353 . S
C1982 C1985 1.348 . S
C1982 H2020 0.929 . S
N1983 Li1938 1.990 . S
N1983 C1980 1.314 . S
N1983 C1981 1.279 . S
C1984 C1981 1.358 . S
C1984 C1985 1.356 . S
C1984 H2021 0.930 . S
C1985 C1982 1.348 . S
C1985 C1984 1.356 . S
H1986 C1980 0.930 . S
H1987 C1981 0.930 . S
C1988 N1989 1.314 . S
C1988 C1990 1.353 . S
C1988 H1994 0.930 . S
N1989 Li1939 1.990 . S
N1989 C1988 1.314 . S
N1989 C1992 1.279 . S
C1990 C1988 1.353 . S
C1990 C1993 1.348 . S
C1990 H2022 0.929 . S
C1991 C1992 1.358 . S
C1991 C1993 1.356 . S
C1991 H2023 0.930 . S
C1992 N1989 1.279 . S
C1992 C1991 1.358 . S
C1992 H1995 0.930 . S
C1993 C1990 1.348 . S
C1993 C1991 1.356 . S
H1994 C1988 0.930 . S
H1995 C1992 0.930 . S
O1996 Li1936 1.956 . S
O1996 Li1937 1.970 . S
O1996 Li1938 1.961 . S
O1996 C1940 1.325 . S
O1997 Li1936 1.970 . S
O1997 Li1937 1.956 . S
O1997 Li1939 1.961 . S
O1997 C1946 1.325 . S
O1998 Li1936 1.961 . S
O1998 Li1938 1.956 . S
O1998 Li1939 1.970 . S
O1998 C1968 1.325 . S
O1999 Li1937 1.961 . S
O1999 Li1938 1.970 . S
O1999 Li1939 1.956 . S
O1999 C1974 1.325 . S
H2000 C1942 0.929 . S
H2001 C1943 0.930 . S
H2002 C1944 0.930 . S
H2003 C1945 0.930 . S
H2004 C1947 0.930 . S
H2005 C1949 0.929 . S
H2006 C1950 0.930 . S
H2007 C1951 0.930 . S
H2008 C1954 0.930 . S
H2009 C1957 0.929 . S
H2010 C1962 0.929 . S
H2011 C1963 0.930 . S
H2012 C1970 0.929 . S
H2013 C1971 0.930 . S
H2014 C1972 0.930 . S
H2015 C1973 0.930 . S
H2016 C1975 0.929 . S
H2017 C1976 0.930 . S
H2018 C1977 0.930 . S
H2019 C1978 0.930 . S
H2020 C1982 0.929 . S
H2021 C1984 0.930 . S
H2022 C1990 0.929 . S
H2023 C1991 0.930 . S
Li2024 N2041 1.990 . S
Li2024 O2084 1.956 . S
Li2024 O2085 1.970 . S
Li2024 O2086 1.961 . S
Li2025 N2049 1.990 . S
Li2025 O2084 1.970 . S
Li2025 O2085 1.956 . S
Li2025 O2087 1.961 . S
Li2026 N2071 1.990 . S
Li2026 O2084 1.961 . S
Li2026 O2086 1.956 . S
Li2026 O2087 1.970 . S
Li2027 N2077 1.990 . S
Li2027 O2085 1.961 . S
Li2027 O2086 1.970 . S
Li2027 O2087 1.956 . S
C2028 C2030 1.348 . S
C2028 C2031 1.356 . S
C2028 O2084 1.325 . S
N2029 C2032 1.314 . S
N2029 C2033 1.279 . S
C2030 C2028 1.348 . S
C2030 C2032 1.353 . S
C2030 H2088 0.929 . S
C2031 C2028 1.356 . S
C2031 C2033 1.358 . S
C2031 H2089 0.930 . S
C2032 N2029 1.314 . S
C2032 C2030 1.353 . S
C2032 H2090 0.930 . S
C2033 N2029 1.279 . S
C2033 C2031 1.358 . S
C2033 H2091 0.930 . S
C2034 C2037 1.348 . S
C2034 C2038 1.356 . S
C2034 O2085 1.325 . S
C2035 N2036 1.279 . S
C2035 C2038 1.358 . S
C2035 H2092 0.930 . S
N2036 C2035 1.279 . S
N2036 C2039 1.314 . S
C2037 C2034 1.348 . S
C2037 C2039 1.353 . S
C2037 H2093 0.929 . S
C2038 C2034 1.356 . S
C2038 C2035 1.358 . S
C2038 H2094 0.930 . S
C2039 N2036 1.314 . S
C2039 C2037 1.353 . S
C2039 H2095 0.930 . S
C2040 N2041 1.314 . S
C2040 C2045 1.353 . S
C2040 H2046 0.930 . S
N2041 Li2024 1.990 . S
N2041 C2040 1.314 . S
N2041 C2043 1.279 . S
C2042 C2043 1.358 . S
C2042 C2044 1.356 . S
C2042 H2096 0.930 . S
C2043 N2041 1.279 . S
C2043 C2042 1.358 . S
C2043 H2047 0.930 . S
C2044 C2042 1.356 . S
C2044 C2045 1.348 . S
C2045 C2040 1.353 . S
C2045 C2044 1.348 . S
C2045 H2097 0.929 . S
H2046 C2040 0.930 . S
H2047 C2043 0.930 . S
C2048 N2049 1.314 . S
C2048 C2050 1.353 . S
C2048 H2054 0.930 . S
N2049 Li2025 1.990 . S
N2049 C2048 1.314 . S
N2049 C2052 1.279 . S
C2050 C2048 1.353 . S
C2050 C2053 1.348 . S
C2050 H2098 0.929 . S
C2051 C2052 1.358 . S
C2051 C2053 1.356 . S
C2051 H2099 0.930 . S
C2052 N2049 1.279 . S
C2052 C2051 1.358 . S
C2052 H2055 0.930 . S
C2053 C2050 1.348 . S
C2053 C2051 1.356 . S
H2054 C2048 0.930 . S
H2055 C2052 0.930 . S
C2056 C2058 1.348 . S
C2056 C2059 1.356 . S
C2056 O2086 1.325 . S
N2057 C2060 1.314 . S
N2057 C2061 1.279 . S
C2058 C2056 1.348 . S
C2058 C2060 1.353 . S
C2058 H2100 0.929 . S
C2059 C2056 1.356 . S
C2059 C2061 1.358 . S
C2059 H2101 0.930 . S
C2060 N2057 1.314 . S
C2060 C2058 1.353 . S
C2060 H2102 0.930 . S
C2061 N2057 1.279 . S
C2061 C2059 1.358 . S
C2061 H2103 0.930 . S
C2062 C2063 1.348 . S
C2062 C2064 1.356 . S
C2062 O2087 1.325 . S
C2063 C2062 1.348 . S
C2063 C2065 1.353 . S
C2063 H2104 0.929 . S
C2064 C2062 1.356 . S
C2064 C2066 1.358 . S
C2064 H2105 0.930 . S
C2065 C2063 1.353 . S
C2065 N2067 1.314 . S
C2065 H2106 0.930 . S
C2066 C2064 1.358 . S
C2066 N2067 1.279 . S
C2066 H2107 0.930 . S
N2067 C2065 1.314 . S
N2067 C2066 1.279 . S
C2068 C2070 1.353 . S
C2068 N2071 1.314 . S
C2068 H2074 0.930 . S
C2069 N2071 1.279 . S
C2069 C2072 1.358 . S
C2069 H2075 0.930 . S
C2070 C2068 1.353 . S
C2070 C2073 1.348 . S
C2070 H2108 0.929 . S
N2071 Li2026 1.990 . S
N2071 C2068 1.314 . S
N2071 C2069 1.279 . S
C2072 C2069 1.358 . S
C2072 C2073 1.356 . S
C2072 H2109 0.930 . S
C2073 C2070 1.348 . S
C2073 C2072 1.356 . S
H2074 C2068 0.930 . S
H2075 C2069 0.930 . S
C2076 N2077 1.314 . S
C2076 C2078 1.353 . S
C2076 H2082 0.930 . S
N2077 Li2027 1.990 . S
N2077 C2076 1.314 . S
N2077 C2080 1.279 . S
C2078 C2076 1.353 . S
C2078 C2081 1.348 . S
C2078 H2110 0.929 . S
C2079 C2080 1.358 . S
C2079 C2081 1.356 . S
C2079 H2111 0.930 . S
C2080 N2077 1.279 . S
C2080 C2079 1.358 . S
C2080 H2083 0.930 . S
C2081 C2078 1.348 . S
C2081 C2079 1.356 . S
H2082 C2076 0.930 . S
H2083 C2080 0.930 . S
O2084 Li2024 1.956 . S
O2084 Li2025 1.970 . S
O2084 Li2026 1.961 . S
O2084 C2028 1.325 . S
O2085 Li2024 1.970 . S
O2085 Li2025 1.956 . S
O2085 Li2027 1.961 . S
O2085 C2034 1.325 . S
O2086 Li2024 1.961 . S
O2086 Li2026 1.956 . S
O2086 Li2027 1.970 . S
O2086 C2056 1.325 . S
O2087 Li2025 1.961 . S
O2087 Li2026 1.970 . S
O2087 Li2027 1.956 . S
O2087 C2062 1.325 . S
H2088 C2030 0.929 . S
H2089 C2031 0.930 . S
H2090 C2032 0.930 . S
H2091 C2033 0.930 . S
H2092 C2035 0.930 . S
H2093 C2037 0.929 . S
H2094 C2038 0.930 . S
H2095 C2039 0.930 . S
H2096 C2042 0.930 . S
H2097 C2045 0.929 . S
H2098 C2050 0.929 . S
H2099 C2051 0.930 . S
H2100 C2058 0.929 . S
H2101 C2059 0.930 . S
H2102 C2060 0.930 . S
H2103 C2061 0.930 . S
H2104 C2063 0.929 . S
H2105 C2064 0.930 . S
H2106 C2065 0.930 . S
H2107 C2066 0.930 . S
H2108 C2070 0.929 . S
H2109 C2072 0.930 . S
H2110 C2078 0.929 . S
H2111 C2079 0.930 . S
H2112 C2130 0.951 . S
H2113 C2132 0.951 . S
H2114 C2134 0.950 . S
H2115 C2135 0.950 . S
H2116 C2137 0.950 . S
H2117 C2140 0.950 . S
H2118 C2141 0.950 . S
H2119 C2143 0.950 . S
H2120 C2144 0.950 . S
H2121 C2145 0.951 . S
H2122 C2147 0.951 . S
H2123 C2149 0.950 . S
H2124 C2150 0.950 . S
H2125 C2152 0.950 . S
H2126 C2155 0.950 . S
H2127 C2156 0.950 . S
H2128 C2158 0.950 . S
H2129 C2159 0.950 . S
C2130 H2112 0.951 . S
C2130 C2131 1.366 . S
C2130 C2132 1.388 . S
C2131 C2130 1.366 . S
C2131 C2135 1.385 . S
C2132 H2113 0.951 . S
C2132 C2130 1.388 . S
C2132 C2133 1.366 . S
C2133 C2132 1.366 . S
C2133 C2134 1.414 . S
C2133 C2136 1.499 . S
C2134 H2114 0.950 . S
C2134 C2133 1.414 . S
C2134 C2135 1.374 . S
C2135 H2115 0.950 . S
C2135 C2131 1.385 . S
C2135 C2134 1.374 . S
C2136 C2133 1.499 . S
C2136 C2137 1.373 . S
C2136 C2138 1.389 . S
C2137 H2116 0.950 . S
C2137 C2136 1.373 . S
C2137 C2153 1.377 . S
C2138 C2136 1.389 . S
C2138 C2139 1.524 . S
C2138 C2152 1.377 . S
C2139 C2138 1.524 . S
C2139 C2140 1.397 . S
C2139 C2144 1.363 . S
C2140 H2117 0.950 . S
C2140 C2139 1.397 . S
C2140 C2141 1.334 . S
C2141 H2118 0.950 . S
C2141 C2140 1.334 . S
C2141 C2142 1.287 . S
C2142 C2141 1.287 . S
C2142 C2143 1.524 . S
C2142 H2161 0.913 . S
C2143 H2119 0.950 . S
C2143 C2142 1.524 . S
C2143 C2144 1.415 . S
C2144 H2120 0.950 . S
C2144 C2139 1.363 . S
C2144 C2143 1.415 . S
C2145 H2121 0.951 . S
C2145 C2146 1.366 . S
C2145 C2147 1.388 . S
C2146 C2145 1.366 . S
C2146 C2150 1.385 . S
C2147 H2122 0.951 . S
C2147 C2145 1.388 . S
C2147 C2148 1.366 . S
C2148 C2147 1.366 . S
C2148 C2149 1.414 . S
C2148 C2151 1.499 . S
C2149 H2123 0.950 . S
C2149 C2148 1.414 . S
C2149 C2150 1.374 . S
C2150 H2124 0.950 . S
C2150 C2146 1.385 . S
C2150 C2149 1.374 . S
C2151 C2148 1.499 . S
C2151 C2152 1.373 . S
C2151 C2153 1.389 . S
C2152 H2125 0.950 . S
C2152 C2138 1.377 . S
C2152 C2151 1.373 . S
C2153 C2137 1.377 . S
C2153 C2151 1.389 . S
C2153 C2154 1.524 . S
C2154 C2153 1.524 . S
C2154 C2155 1.397 . S
C2154 C2159 1.363 . S
C2155 H2126 0.950 . S
C2155 C2154 1.397 . S
C2155 C2156 1.334 . S
C2156 H2127 0.950 . S
C2156 C2155 1.334 . S
C2156 C2157 1.287 . S
C2157 C2156 1.287 . S
C2157 C2158 1.524 . S
C2157 H2160 0.999 . S
C2158 H2128 0.950 . S
C2158 C2157 1.524 . S
C2158 C2159 1.415 . S
C2159 H2129 0.950 . S
C2159 C2154 1.363 . S
C2159 C2158 1.415 . S
H2160 C2157 0.999 . S
H2161 C2142 0.913 . S
H2162 C2180 0.951 . S
H2163 C2182 0.951 . S
H2164 C2184 0.950 . S
H2165 C2185 0.950 . S
H2166 C2187 0.950 . S
H2167 C2190 0.950 . S
H2168 C2191 0.950 . S
H2169 C2193 0.950 . S
H2170 C2194 0.950 . S
H2171 C2195 0.951 . S
H2172 C2197 0.951 . S
H2173 C2199 0.950 . S
H2174 C2200 0.950 . S
H2175 C2202 0.950 . S
H2176 C2205 0.950 . S
H2177 C2206 0.950 . S
H2178 C2208 0.950 . S
H2179 C2209 0.950 . S
C2180 H2162 0.951 . S
C2180 C2181 1.366 . S
C2180 C2182 1.388 . S
C2181 C2180 1.366 . S
C2181 C2185 1.385 . S
C2182 H2163 0.951 . S
C2182 C2180 1.388 . S
C2182 C2183 1.366 . S
C2183 C2182 1.366 . S
C2183 C2184 1.414 . S
C2183 C2186 1.499 . S
C2184 H2164 0.950 . S
C2184 C2183 1.414 . S
C2184 C2185 1.374 . S
C2185 H2165 0.950 . S
C2185 C2181 1.385 . S
C2185 C2184 1.374 . S
C2186 C2183 1.499 . S
C2186 C2187 1.373 . S
C2186 C2188 1.389 . S
C2187 H2166 0.950 . S
C2187 C2186 1.373 . S
C2187 C2203 1.377 . S
C2188 C2186 1.389 . S
C2188 C2189 1.524 . S
C2188 C2202 1.377 . S
C2189 C2188 1.524 . S
C2189 C2190 1.397 . S
C2189 C2194 1.363 . S
C2190 H2167 0.950 . S
C2190 C2189 1.397 . S
C2190 C2191 1.334 . S
C2191 H2168 0.950 . S
C2191 C2190 1.334 . S
C2191 C2192 1.287 . S
C2192 C2191 1.287 . S
C2192 C2193 1.524 . S
C2192 H2211 0.913 . S
C2193 H2169 0.950 . S
C2193 C2192 1.524 . S
C2193 C2194 1.415 . S
C2194 H2170 0.950 . S
C2194 C2189 1.363 . S
C2194 C2193 1.415 . S
C2195 H2171 0.951 . S
C2195 C2196 1.366 . S
C2195 C2197 1.388 . S
C2196 C2195 1.366 . S
C2196 C2200 1.385 . S
C2197 H2172 0.951 . S
C2197 C2195 1.388 . S
C2197 C2198 1.366 . S
C2198 C2197 1.366 . S
C2198 C2199 1.414 . S
C2198 C2201 1.499 . S
C2199 H2173 0.950 . S
C2199 C2198 1.414 . S
C2199 C2200 1.374 . S
C2200 H2174 0.950 . S
C2200 C2196 1.385 . S
C2200 C2199 1.374 . S
C2201 C2198 1.499 . S
C2201 C2202 1.373 . S
C2201 C2203 1.389 . S
C2202 H2175 0.950 . S
C2202 C2188 1.377 . S
C2202 C2201 1.373 . S
C2203 C2187 1.377 . S
C2203 C2201 1.389 . S
C2203 C2204 1.524 . S
C2204 C2203 1.524 . S
C2204 C2205 1.397 . S
C2204 C2209 1.363 . S
C2205 H2176 0.950 . S
C2205 C2204 1.397 . S
C2205 C2206 1.334 . S
C2206 H2177 0.950 . S
C2206 C2205 1.334 . S
C2206 C2207 1.287 . S
C2207 C2206 1.287 . S
C2207 C2208 1.524 . S
C2207 H2210 0.999 . S
C2208 H2178 0.950 . S
C2208 C2207 1.524 . S
C2208 C2209 1.415 . S
C2209 H2179 0.950 . S
C2209 C2204 1.363 . S
C2209 C2208 1.415 . S
H2210 C2207 0.999 . S
H2211 C2192 0.913 . S
H2212 C2230 0.951 . S
H2213 C2232 0.951 . S
H2214 C2234 0.950 . S
H2215 C2235 0.950 . S
H2216 C2237 0.950 . S
H2217 C2240 0.950 . S
H2218 C2241 0.950 . S
H2219 C2243 0.950 . S
H2220 C2244 0.950 . S
H2221 C2245 0.951 . S
H2222 C2247 0.951 . S
H2223 C2249 0.950 . S
H2224 C2250 0.950 . S
H2225 C2252 0.950 . S
H2226 C2255 0.950 . S
H2227 C2256 0.950 . S
H2228 C2258 0.950 . S
H2229 C2259 0.950 . S
C2230 H2212 0.951 . S
C2230 C2231 1.366 . S
C2230 C2232 1.388 . S
C2231 C2230 1.366 . S
C2231 C2235 1.385 . S
C2232 H2213 0.951 . S
C2232 C2230 1.388 . S
C2232 C2233 1.366 . S
C2233 C2232 1.366 . S
C2233 C2234 1.414 . S
C2233 C2236 1.499 . S
C2234 H2214 0.950 . S
C2234 C2233 1.414 . S
C2234 C2235 1.374 . S
C2235 H2215 0.950 . S
C2235 C2231 1.385 . S
C2235 C2234 1.374 . S
C2236 C2233 1.499 . S
C2236 C2237 1.373 . S
C2236 C2238 1.389 . S
C2237 H2216 0.950 . S
C2237 C2236 1.373 . S
C2237 C2253 1.377 . S
C2238 C2236 1.389 . S
C2238 C2239 1.524 . S
C2238 C2252 1.377 . S
C2239 C2238 1.524 . S
C2239 C2240 1.397 . S
C2239 C2244 1.363 . S
C2240 H2217 0.950 . S
C2240 C2239 1.397 . S
C2240 C2241 1.334 . S
C2241 H2218 0.950 . S
C2241 C2240 1.334 . S
C2241 C2242 1.287 . S
C2242 C2241 1.287 . S
C2242 C2243 1.524 . S
C2242 H2261 0.913 . S
C2243 H2219 0.950 . S
C2243 C2242 1.524 . S
C2243 C2244 1.415 . S
C2244 H2220 0.950 . S
C2244 C2239 1.363 . S
C2244 C2243 1.415 . S
C2245 H2221 0.951 . S
C2245 C2246 1.366 . S
C2245 C2247 1.388 . S
C2246 C2245 1.366 . S
C2246 C2250 1.385 . S
C2247 H2222 0.951 . S
C2247 C2245 1.388 . S
C2247 C2248 1.366 . S
C2248 C2247 1.366 . S
C2248 C2249 1.414 . S
C2248 C2251 1.499 . S
C2249 H2223 0.950 . S
C2249 C2248 1.414 . S
C2249 C2250 1.374 . S
C2250 H2224 0.950 . S
C2250 C2246 1.385 . S
C2250 C2249 1.374 . S
C2251 C2248 1.499 . S
C2251 C2252 1.373 . S
C2251 C2253 1.389 . S
C2252 H2225 0.950 . S
C2252 C2238 1.377 . S
C2252 C2251 1.373 . S
C2253 C2237 1.377 . S
C2253 C2251 1.389 . S
C2253 C2254 1.524 . S
C2254 C2253 1.524 . S
C2254 C2255 1.397 . S
C2254 C2259 1.363 . S
C2255 H2226 0.950 . S
C2255 C2254 1.397 . S
C2255 C2256 1.334 . S
C2256 H2227 0.950 . S
C2256 C2255 1.334 . S
C2256 C2257 1.287 . S
C2257 C2256 1.287 . S
C2257 C2258 1.524 . S
C2257 H2260 0.999 . S
C2258 H2228 0.950 . S
C2258 C2257 1.524 . S
C2258 C2259 1.415 . S
C2259 H2229 0.950 . S
C2259 C2254 1.363 . S
C2259 C2258 1.415 . S
H2260 C2257 0.999 . S
H2261 C2242 0.913 . S
H2262 C2280 0.951 . S
H2263 C2282 0.951 . S
H2264 C2284 0.950 . S
H2265 C2285 0.950 . S
H2266 C2287 0.950 . S
H2267 C2290 0.950 . S
H2268 C2291 0.950 . S
H2269 C2293 0.950 . S
H2270 C2294 0.950 . S
H2271 C2295 0.951 . S
H2272 C2297 0.951 . S
H2273 C2299 0.950 . S
H2274 C2300 0.950 . S
H2275 C2302 0.950 . S
H2276 C2305 0.950 . S
H2277 C2306 0.950 . S
H2278 C2308 0.950 . S
H2279 C2309 0.950 . S
C2280 H2262 0.951 . S
C2280 C2281 1.366 . S
C2280 C2282 1.388 . S
C2281 C2280 1.366 . S
C2281 C2285 1.385 . S
C2282 H2263 0.951 . S
C2282 C2280 1.388 . S
C2282 C2283 1.366 . S
C2283 C2282 1.366 . S
C2283 C2284 1.414 . S
C2283 C2286 1.499 . S
C2284 H2264 0.950 . S
C2284 C2283 1.414 . S
C2284 C2285 1.374 . S
C2285 H2265 0.950 . S
C2285 C2281 1.385 . S
C2285 C2284 1.374 . S
C2286 C2283 1.499 . S
C2286 C2287 1.373 . S
C2286 C2288 1.389 . S
C2287 H2266 0.950 . S
C2287 C2286 1.373 . S
C2287 C2303 1.377 . S
C2288 C2286 1.389 . S
C2288 C2289 1.524 . S
C2288 C2302 1.377 . S
C2289 C2288 1.524 . S
C2289 C2290 1.397 . S
C2289 C2294 1.363 . S
C2290 H2267 0.950 . S
C2290 C2289 1.397 . S
C2290 C2291 1.334 . S
C2291 H2268 0.950 . S
C2291 C2290 1.334 . S
C2291 C2292 1.287 . S
C2292 C2291 1.287 . S
C2292 C2293 1.524 . S
C2292 H2311 0.913 . S
C2293 H2269 0.950 . S
C2293 C2292 1.524 . S
C2293 C2294 1.415 . S
C2294 H2270 0.950 . S
C2294 C2289 1.363 . S
C2294 C2293 1.415 . S
C2295 H2271 0.951 . S
C2295 C2296 1.366 . S
C2295 C2297 1.388 . S
C2296 C2295 1.366 . S
C2296 C2300 1.385 . S
C2297 H2272 0.951 . S
C2297 C2295 1.388 . S
C2297 C2298 1.366 . S
C2298 C2297 1.366 . S
C2298 C2299 1.414 . S
C2298 C2301 1.499 . S
C2299 H2273 0.950 . S
C2299 C2298 1.414 . S
C2299 C2300 1.374 . S
C2300 H2274 0.950 . S
C2300 C2296 1.385 . S
C2300 C2299 1.374 . S
C2301 C2298 1.499 . S
C2301 C2302 1.373 . S
C2301 C2303 1.389 . S
C2302 H2275 0.950 . S
C2302 C2288 1.377 . S
C2302 C2301 1.373 . S
C2303 C2287 1.377 . S
C2303 C2301 1.389 . S
C2303 C2304 1.524 . S
C2304 C2303 1.524 . S
C2304 C2305 1.397 . S
C2304 C2309 1.363 . S
C2305 H2276 0.950 . S
C2305 C2304 1.397 . S
C2305 C2306 1.334 . S
C2306 H2277 0.950 . S
C2306 C2305 1.334 . S
C2306 C2307 1.287 . S
C2307 C2306 1.287 . S
C2307 C2308 1.524 . S
C2307 H2310 0.999 . S
C2308 H2278 0.950 . S
C2308 C2307 1.524 . S
C2308 C2309 1.415 . S
C2309 H2279 0.950 . S
C2309 C2304 1.363 . S
C2309 C2308 1.415 . S
H2310 C2307 0.999 . S
H2311 C2292 0.913 . S
H2312 C2330 0.951 . S
H2313 C2332 0.951 . S
H2314 C2334 0.950 . S
H2315 C2335 0.950 . S
H2316 C2337 0.950 . S
H2317 C2340 0.950 . S
H2318 C2341 0.950 . S
H2319 C2343 0.950 . S
H2320 C2344 0.950 . S
H2321 C2345 0.951 . S
H2322 C2347 0.951 . S
H2323 C2349 0.950 . S
H2324 C2350 0.950 . S
H2325 C2352 0.950 . S
H2326 C2355 0.950 . S
H2327 C2356 0.950 . S
H2328 C2358 0.950 . S
H2329 C2359 0.950 . S
C2330 H2312 0.951 . S
C2330 C2331 1.366 . S
C2330 C2332 1.388 . S
C2331 C2330 1.366 . S
C2331 C2335 1.385 . S
C2332 H2313 0.951 . S
C2332 C2330 1.388 . S
C2332 C2333 1.366 . S
C2333 C2332 1.366 . S
C2333 C2334 1.414 . S
C2333 C2336 1.499 . S
C2334 H2314 0.950 . S
C2334 C2333 1.414 . S
C2334 C2335 1.374 . S
C2335 H2315 0.950 . S
C2335 C2331 1.385 . S
C2335 C2334 1.374 . S
C2336 C2333 1.499 . S
C2336 C2337 1.373 . S
C2336 C2338 1.389 . S
C2337 H2316 0.950 . S
C2337 C2336 1.373 . S
C2337 C2353 1.377 . S
C2338 C2336 1.389 . S
C2338 C2339 1.524 . S
C2338 C2352 1.377 . S
C2339 C2338 1.524 . S
C2339 C2340 1.397 . S
C2339 C2344 1.363 . S
C2340 H2317 0.950 . S
C2340 C2339 1.397 . S
C2340 C2341 1.334 . S
C2341 H2318 0.950 . S
C2341 C2340 1.334 . S
C2341 C2342 1.287 . S
C2342 C2341 1.287 . S
C2342 C2343 1.524 . S
C2342 H2361 0.913 . S
C2343 H2319 0.950 . S
C2343 C2342 1.524 . S
C2343 C2344 1.415 . S
C2344 H2320 0.950 . S
C2344 C2339 1.363 . S
C2344 C2343 1.415 . S
C2345 H2321 0.951 . S
C2345 C2346 1.366 . S
C2345 C2347 1.388 . S
C2346 C2345 1.366 . S
C2346 C2350 1.385 . S
C2347 H2322 0.951 . S
C2347 C2345 1.388 . S
C2347 C2348 1.366 . S
C2348 C2347 1.366 . S
C2348 C2349 1.414 . S
C2348 C2351 1.499 . S
C2349 H2323 0.950 . S
C2349 C2348 1.414 . S
C2349 C2350 1.374 . S
C2350 H2324 0.950 . S
C2350 C2346 1.385 . S
C2350 C2349 1.374 . S
C2351 C2348 1.499 . S
C2351 C2352 1.373 . S
C2351 C2353 1.389 . S
C2352 H2325 0.950 . S
C2352 C2338 1.377 . S
C2352 C2351 1.373 . S
C2353 C2337 1.377 . S
C2353 C2351 1.389 . S
C2353 C2354 1.524 . S
C2354 C2353 1.524 . S
C2354 C2355 1.397 . S
C2354 C2359 1.363 . S
C2355 H2326 0.950 . S
C2355 C2354 1.397 . S
C2355 C2356 1.334 . S
C2356 H2327 0.950 . S
C2356 C2355 1.334 . S
C2356 C2357 1.287 . S
C2357 C2356 1.287 . S
C2357 C2358 1.524 . S
C2357 H2360 0.999 . S
C2358 H2328 0.950 . S
C2358 C2357 1.524 . S
C2358 C2359 1.415 . S
C2359 H2329 0.950 . S
C2359 C2354 1.363 . S
C2359 C2358 1.415 . S
H2360 C2357 0.999 . S
H2361 C2342 0.913 . S
H2362 C2380 0.951 . S
H2363 C2382 0.951 . S
H2364 C2384 0.950 . S
H2365 C2385 0.950 . S
H2366 C2387 0.950 . S
H2367 C2390 0.950 . S
H2368 C2391 0.950 . S
H2369 C2393 0.950 . S
H2370 C2394 0.950 . S
H2371 C2395 0.951 . S
H2372 C2397 0.951 . S
H2373 C2399 0.950 . S
H2374 C2400 0.950 . S
H2375 C2402 0.950 . S
H2376 C2405 0.950 . S
H2377 C2406 0.950 . S
H2378 C2408 0.950 . S
H2379 C2409 0.950 . S
C2380 H2362 0.951 . S
C2380 C2381 1.366 . S
C2380 C2382 1.388 . S
C2381 C2380 1.366 . S
C2381 C2385 1.385 . S
C2382 H2363 0.951 . S
C2382 C2380 1.388 . S
C2382 C2383 1.366 . S
C2383 C2382 1.366 . S
C2383 C2384 1.414 . S
C2383 C2386 1.499 . S
C2384 H2364 0.950 . S
C2384 C2383 1.414 . S
C2384 C2385 1.374 . S
C2385 H2365 0.950 . S
C2385 C2381 1.385 . S
C2385 C2384 1.374 . S
C2386 C2383 1.499 . S
C2386 C2387 1.373 . S
C2386 C2388 1.389 . S
C2387 H2366 0.950 . S
C2387 C2386 1.373 . S
C2387 C2403 1.377 . S
C2388 C2386 1.389 . S
C2388 C2389 1.524 . S
C2388 C2402 1.377 . S
C2389 C2388 1.524 . S
C2389 C2390 1.397 . S
C2389 C2394 1.363 . S
C2390 H2367 0.950 . S
C2390 C2389 1.397 . S
C2390 C2391 1.334 . S
C2391 H2368 0.950 . S
C2391 C2390 1.334 . S
C2391 C2392 1.287 . S
C2392 C2391 1.287 . S
C2392 C2393 1.524 . S
C2392 H2411 0.913 . S
C2393 H2369 0.950 . S
C2393 C2392 1.524 . S
C2393 C2394 1.415 . S
C2394 H2370 0.950 . S
C2394 C2389 1.363 . S
C2394 C2393 1.415 . S
C2395 H2371 0.951 . S
C2395 C2396 1.366 . S
C2395 C2397 1.388 . S
C2396 C2395 1.366 . S
C2396 C2400 1.385 . S
C2397 H2372 0.951 . S
C2397 C2395 1.388 . S
C2397 C2398 1.366 . S
C2398 C2397 1.366 . S
C2398 C2399 1.414 . S
C2398 C2401 1.499 . S
C2399 H2373 0.950 . S
C2399 C2398 1.414 . S
C2399 C2400 1.374 . S
C2400 H2374 0.950 . S
C2400 C2396 1.385 . S
C2400 C2399 1.374 . S
C2401 C2398 1.499 . S
C2401 C2402 1.373 . S
C2401 C2403 1.389 . S
C2402 H2375 0.950 . S
C2402 C2388 1.377 . S
C2402 C2401 1.373 . S
C2403 C2387 1.377 . S
C2403 C2401 1.389 . S
C2403 C2404 1.524 . S
C2404 C2403 1.524 . S
C2404 C2405 1.397 . S
C2404 C2409 1.363 . S
C2405 H2376 0.950 . S
C2405 C2404 1.397 . S
C2405 C2406 1.334 . S
C2406 H2377 0.950 . S
C2406 C2405 1.334 . S
C2406 C2407 1.287 . S
C2407 C2406 1.287 . S
C2407 C2408 1.524 . S
C2407 H2410 0.999 . S
C2408 H2378 0.950 . S
C2408 C2407 1.524 . S
C2408 C2409 1.415 . S
C2409 H2379 0.950 . S
C2409 C2404 1.363 . S
C2409 C2408 1.415 . S
H2410 C2407 0.999 . S
H2411 C2392 0.913 . S
H2412 C2430 0.951 . S
H2413 C2432 0.951 . S
H2414 C2434 0.950 . S
H2415 C2435 0.950 . S
H2416 C2437 0.950 . S
H2417 C2440 0.950 . S
H2418 C2441 0.950 . S
H2419 C2443 0.950 . S
H2420 C2444 0.950 . S
H2421 C2445 0.951 . S
H2422 C2447 0.951 . S
H2423 C2449 0.950 . S
H2424 C2450 0.950 . S
H2425 C2452 0.950 . S
H2426 C2455 0.950 . S
H2427 C2456 0.950 . S
H2428 C2458 0.950 . S
H2429 C2459 0.950 . S
C2430 H2412 0.951 . S
C2430 C2431 1.366 . S
C2430 C2432 1.388 . S
C2431 C2430 1.366 . S
C2431 C2435 1.385 . S
C2432 H2413 0.951 . S
C2432 C2430 1.388 . S
C2432 C2433 1.366 . S
C2433 C2432 1.366 . S
C2433 C2434 1.414 . S
C2433 C2436 1.499 . S
C2434 H2414 0.950 . S
C2434 C2433 1.414 . S
C2434 C2435 1.374 . S
C2435 H2415 0.950 . S
C2435 C2431 1.385 . S
C2435 C2434 1.374 . S
C2436 C2433 1.499 . S
C2436 C2437 1.373 . S
C2436 C2438 1.389 . S
C2437 H2416 0.950 . S
C2437 C2436 1.373 . S
C2437 C2453 1.377 . S
C2438 C2436 1.389 . S
C2438 C2439 1.524 . S
C2438 C2452 1.377 . S
C2439 C2438 1.524 . S
C2439 C2440 1.397 . S
C2439 C2444 1.363 . S
C2440 H2417 0.950 . S
C2440 C2439 1.397 . S
C2440 C2441 1.334 . S
C2441 H2418 0.950 . S
C2441 C2440 1.334 . S
C2441 C2442 1.287 . S
C2442 C2441 1.287 . S
C2442 C2443 1.524 . S
C2442 H2461 0.913 . S
C2443 H2419 0.950 . S
C2443 C2442 1.524 . S
C2443 C2444 1.415 . S
C2444 H2420 0.950 . S
C2444 C2439 1.363 . S
C2444 C2443 1.415 . S
C2445 H2421 0.951 . S
C2445 C2446 1.366 . S
C2445 C2447 1.388 . S
C2446 C2445 1.366 . S
C2446 C2450 1.385 . S
C2447 H2422 0.951 . S
C2447 C2445 1.388 . S
C2447 C2448 1.366 . S
C2448 C2447 1.366 . S
C2448 C2449 1.414 . S
C2448 C2451 1.499 . S
C2449 H2423 0.950 . S
C2449 C2448 1.414 . S
C2449 C2450 1.374 . S
C2450 H2424 0.950 . S
C2450 C2446 1.385 . S
C2450 C2449 1.374 . S
C2451 C2448 1.499 . S
C2451 C2452 1.373 . S
C2451 C2453 1.389 . S
C2452 H2425 0.950 . S
C2452 C2438 1.377 . S
C2452 C2451 1.373 . S
C2453 C2437 1.377 . S
C2453 C2451 1.389 . S
C2453 C2454 1.524 . S
C2454 C2453 1.524 . S
C2454 C2455 1.397 . S
C2454 C2459 1.363 . S
C2455 H2426 0.950 . S
C2455 C2454 1.397 . S
C2455 C2456 1.334 . S
C2456 H2427 0.950 . S
C2456 C2455 1.334 . S
C2456 C2457 1.287 . S
C2457 C2456 1.287 . S
C2457 C2458 1.524 . S
C2457 H2460 0.999 . S
C2458 H2428 0.950 . S
C2458 C2457 1.524 . S
C2458 C2459 1.415 . S
C2459 H2429 0.950 . S
C2459 C2454 1.363 . S
C2459 C2458 1.415 . S
H2460 C2457 0.999 . S
H2461 C2442 0.913 . S
H2462 C2480 0.951 . S
H2463 C2482 0.951 . S
H2464 C2484 0.950 . S
H2465 C2485 0.950 . S
H2466 C2487 0.950 . S
H2467 C2490 0.950 . S
H2468 C2491 0.950 . S
H2469 C2493 0.950 . S
H2470 C2494 0.950 . S
H2471 C2495 0.951 . S
H2472 C2497 0.951 . S
H2473 C2499 0.950 . S
H2474 C2500 0.950 . S
H2475 C2502 0.950 . S
H2476 C2505 0.950 . S
H2477 C2506 0.950 . S
H2478 C2508 0.950 . S
H2479 C2509 0.950 . S
C2480 H2462 0.951 . S
C2480 C2481 1.366 . S
C2480 C2482 1.388 . S
C2481 C2480 1.366 . S
C2481 C2485 1.385 . S
C2482 H2463 0.951 . S
C2482 C2480 1.388 . S
C2482 C2483 1.366 . S
C2483 C2482 1.366 . S
C2483 C2484 1.414 . S
C2483 C2486 1.499 . S
C2484 H2464 0.950 . S
C2484 C2483 1.414 . S
C2484 C2485 1.374 . S
C2485 H2465 0.950 . S
C2485 C2481 1.385 . S
C2485 C2484 1.374 . S
C2486 C2483 1.499 . S
C2486 C2487 1.373 . S
C2486 C2488 1.389 . S
C2487 H2466 0.950 . S
C2487 C2486 1.373 . S
C2487 C2503 1.377 . S
C2488 C2486 1.389 . S
C2488 C2489 1.524 . S
C2488 C2502 1.377 . S
C2489 C2488 1.524 . S
C2489 C2490 1.397 . S
C2489 C2494 1.363 . S
C2490 H2467 0.950 . S
C2490 C2489 1.397 . S
C2490 C2491 1.334 . S
C2491 H2468 0.950 . S
C2491 C2490 1.334 . S
C2491 C2492 1.287 . S
C2492 C2491 1.287 . S
C2492 C2493 1.524 . S
C2492 H2511 0.913 . S
C2493 H2469 0.950 . S
C2493 C2492 1.524 . S
C2493 C2494 1.415 . S
C2494 H2470 0.950 . S
C2494 C2489 1.363 . S
C2494 C2493 1.415 . S
C2495 H2471 0.951 . S
C2495 C2496 1.366 . S
C2495 C2497 1.388 . S
C2496 C2495 1.366 . S
C2496 C2500 1.385 . S
C2497 H2472 0.951 . S
C2497 C2495 1.388 . S
C2497 C2498 1.366 . S
C2498 C2497 1.366 . S
C2498 C2499 1.414 . S
C2498 C2501 1.499 . S
C2499 H2473 0.950 . S
C2499 C2498 1.414 . S
C2499 C2500 1.374 . S
C2500 H2474 0.950 . S
C2500 C2496 1.385 . S
C2500 C2499 1.374 . S
C2501 C2498 1.499 . S
C2501 C2502 1.373 . S
C2501 C2503 1.389 . S
C2502 H2475 0.950 . S
C2502 C2488 1.377 . S
C2502 C2501 1.373 . S
C2503 C2487 1.377 . S
C2503 C2501 1.389 . S
C2503 C2504 1.524 . S
C2504 C2503 1.524 . S
C2504 C2505 1.397 . S
C2504 C2509 1.363 . S
C2505 H2476 0.950 . S
C2505 C2504 1.397 . S
C2505 C2506 1.334 . S
C2506 H2477 0.950 . S
C2506 C2505 1.334 . S
C2506 C2507 1.287 . S
C2507 C2506 1.287 . S
C2507 C2508 1.524 . S
C2507 H2510 0.999 . S
C2508 H2478 0.950 . S
C2508 C2507 1.524 . S
C2508 C2509 1.415 . S
C2509 H2479 0.950 . S
C2509 C2504 1.363 . S
C2509 C2508 1.415 . S
H2510 C2507 0.999 . S
H2511 C2492 0.913 . S
H2512 C2530 0.951 . S
H2513 C2532 0.951 . S
H2514 C2534 0.950 . S
H2515 C2535 0.950 . S
H2516 C2537 0.950 . S
H2517 C2540 0.950 . S
H2518 C2541 0.950 . S
H2519 C2543 0.950 . S
H2520 C2544 0.950 . S
H2521 C2545 0.951 . S
H2522 C2547 0.951 . S
H2523 C2549 0.950 . S
H2524 C2550 0.950 . S
H2525 C2552 0.950 . S
H2526 C2555 0.950 . S
H2527 C2556 0.950 . S
H2528 C2558 0.950 . S
H2529 C2559 0.950 . S
C2530 H2512 0.951 . S
C2530 C2531 1.366 . S
C2530 C2532 1.388 . S
C2531 C2530 1.366 . S
C2531 C2535 1.385 . S
C2532 H2513 0.951 . S
C2532 C2530 1.388 . S
C2532 C2533 1.366 . S
C2533 C2532 1.366 . S
C2533 C2534 1.414 . S
C2533 C2536 1.499 . S
C2534 H2514 0.950 . S
C2534 C2533 1.414 . S
C2534 C2535 1.374 . S
C2535 H2515 0.950 . S
C2535 C2531 1.385 . S
C2535 C2534 1.374 . S
C2536 C2533 1.499 . S
C2536 C2537 1.373 . S
C2536 C2538 1.389 . S
C2537 H2516 0.950 . S
C2537 C2536 1.373 . S
C2537 C2553 1.377 . S
C2538 C2536 1.389 . S
C2538 C2539 1.524 . S
C2538 C2552 1.377 . S
C2539 C2538 1.524 . S
C2539 C2540 1.397 . S
C2539 C2544 1.363 . S
C2540 H2517 0.950 . S
C2540 C2539 1.397 . S
C2540 C2541 1.334 . S
C2541 H2518 0.950 . S
C2541 C2540 1.334 . S
C2541 C2542 1.287 . S
C2542 C2541 1.287 . S
C2542 C2543 1.524 . S
C2542 H2561 0.913 . S
C2543 H2519 0.950 . S
C2543 C2542 1.524 . S
C2543 C2544 1.415 . S
C2544 H2520 0.950 . S
C2544 C2539 1.363 . S
C2544 C2543 1.415 . S
C2545 H2521 0.951 . S
C2545 C2546 1.366 . S
C2545 C2547 1.388 . S
C2546 C2545 1.366 . S
C2546 C2550 1.385 . S
C2547 H2522 0.951 . S
C2547 C2545 1.388 . S
C2547 C2548 1.366 . S
C2548 C2547 1.366 . S
C2548 C2549 1.414 . S
C2548 C2551 1.499 . S
C2549 H2523 0.950 . S
C2549 C2548 1.414 . S
C2549 C2550 1.374 . S
C2550 H2524 0.950 . S
C2550 C2546 1.385 . S
C2550 C2549 1.374 . S
C2551 C2548 1.499 . S
C2551 C2552 1.373 . S
C2551 C2553 1.389 . S
C2552 H2525 0.950 . S
C2552 C2538 1.377 . S
C2552 C2551 1.373 . S
C2553 C2537 1.377 . S
C2553 C2551 1.389 . S
C2553 C2554 1.524 . S
C2554 C2553 1.524 . S
C2554 C2555 1.397 . S
C2554 C2559 1.363 . S
C2555 H2526 0.950 . S
C2555 C2554 1.397 . S
C2555 C2556 1.334 . S
C2556 H2527 0.950 . S
C2556 C2555 1.334 . S
C2556 C2557 1.287 . S
C2557 C2556 1.287 . S
C2557 C2558 1.524 . S
C2557 H2560 0.999 . S
C2558 H2528 0.950 . S
C2558 C2557 1.524 . S
C2558 C2559 1.415 . S
C2559 H2529 0.950 . S
C2559 C2554 1.363 . S
C2559 C2558 1.415 . S
H2560 C2557 0.999 . S
H2561 C2542 0.913 . S
H2562 C2580 0.951 . S
H2563 C2582 0.951 . S
H2564 C2584 0.950 . S
H2565 C2585 0.950 . S
H2566 C2587 0.950 . S
H2567 C2590 0.950 . S
H2568 C2591 0.950 . S
H2569 C2593 0.950 . S
H2570 C2594 0.950 . S
H2571 C2595 0.951 . S
H2572 C2597 0.951 . S
H2573 C2599 0.950 . S
H2574 C2600 0.950 . S
H2575 C2602 0.950 . S
H2576 C2605 0.950 . S
H2577 C2606 0.950 . S
H2578 C2608 0.950 . S
H2579 C2609 0.950 . S
C2580 H2562 0.951 . S
C2580 C2581 1.366 . S
C2580 C2582 1.388 . S
C2581 C2580 1.366 . S
C2581 C2585 1.385 . S
C2582 H2563 0.951 . S
C2582 C2580 1.388 . S
C2582 C2583 1.366 . S
C2583 C2582 1.366 . S
C2583 C2584 1.414 . S
C2583 C2586 1.499 . S
C2584 H2564 0.950 . S
C2584 C2583 1.414 . S
C2584 C2585 1.374 . S
C2585 H2565 0.950 . S
C2585 C2581 1.385 . S
C2585 C2584 1.374 . S
C2586 C2583 1.499 . S
C2586 C2587 1.373 . S
C2586 C2588 1.389 . S
C2587 H2566 0.950 . S
C2587 C2586 1.373 . S
C2587 C2603 1.377 . S
C2588 C2586 1.389 . S
C2588 C2589 1.524 . S
C2588 C2602 1.377 . S
C2589 C2588 1.524 . S
C2589 C2590 1.397 . S
C2589 C2594 1.363 . S
C2590 H2567 0.950 . S
C2590 C2589 1.397 . S
C2590 C2591 1.334 . S
C2591 H2568 0.950 . S
C2591 C2590 1.334 . S
C2591 C2592 1.287 . S
C2592 C2591 1.287 . S
C2592 C2593 1.524 . S
C2592 H2611 0.913 . S
C2593 H2569 0.950 . S
C2593 C2592 1.524 . S
C2593 C2594 1.415 . S
C2594 H2570 0.950 . S
C2594 C2589 1.363 . S
C2594 C2593 1.415 . S
C2595 H2571 0.951 . S
C2595 C2596 1.366 . S
C2595 C2597 1.388 . S
C2596 C2595 1.366 . S
C2596 C2600 1.385 . S
C2597 H2572 0.951 . S
C2597 C2595 1.388 . S
C2597 C2598 1.366 . S
C2598 C2597 1.366 . S
C2598 C2599 1.414 . S
C2598 C2601 1.499 . S
C2599 H2573 0.950 . S
C2599 C2598 1.414 . S
C2599 C2600 1.374 . S
C2600 H2574 0.950 . S
C2600 C2596 1.385 . S
C2600 C2599 1.374 . S
C2601 C2598 1.499 . S
C2601 C2602 1.373 . S
C2601 C2603 1.389 . S
C2602 H2575 0.950 . S
C2602 C2588 1.377 . S
C2602 C2601 1.373 . S
C2603 C2587 1.377 . S
C2603 C2601 1.389 . S
C2603 C2604 1.524 . S
C2604 C2603 1.524 . S
C2604 C2605 1.397 . S
C2604 C2609 1.363 . S
C2605 H2576 0.950 . S
C2605 C2604 1.397 . S
C2605 C2606 1.334 . S
C2606 H2577 0.950 . S
C2606 C2605 1.334 . S
C2606 C2607 1.287 . S
C2607 C2606 1.287 . S
C2607 C2608 1.524 . S
C2607 H2610 0.999 . S
C2608 H2578 0.950 . S
C2608 C2607 1.524 . S
C2608 C2609 1.415 . S
C2609 H2579 0.950 . S
C2609 C2604 1.363 . S
C2609 C2608 1.415 . S
H2610 C2607 0.999 . S
H2611 C2592 0.913 . S
H2612 C2630 0.951 . S
H2613 C2632 0.951 . S
H2614 C2634 0.950 . S
H2615 C2635 0.950 . S
H2616 C2637 0.950 . S
H2617 C2640 0.950 . S
H2618 C2641 0.950 . S
H2619 C2643 0.950 . S
H2620 C2644 0.950 . S
H2621 C2645 0.951 . S
H2622 C2647 0.951 . S
H2623 C2649 0.950 . S
H2624 C2650 0.950 . S
H2625 C2652 0.950 . S
H2626 C2655 0.950 . S
H2627 C2656 0.950 . S
H2628 C2658 0.950 . S
H2629 C2659 0.950 . S
C2630 H2612 0.951 . S
C2630 C2631 1.366 . S
C2630 C2632 1.388 . S
C2631 C2630 1.366 . S
C2631 C2635 1.385 . S
C2632 H2613 0.951 . S
C2632 C2630 1.388 . S
C2632 C2633 1.366 . S
C2633 C2632 1.366 . S
C2633 C2634 1.414 . S
C2633 C2636 1.499 . S
C2634 H2614 0.950 . S
C2634 C2633 1.414 . S
C2634 C2635 1.374 . S
C2635 H2615 0.950 . S
C2635 C2631 1.385 . S
C2635 C2634 1.374 . S
C2636 C2633 1.499 . S
C2636 C2637 1.373 . S
C2636 C2638 1.389 . S
C2637 H2616 0.950 . S
C2637 C2636 1.373 . S
C2637 C2653 1.377 . S
C2638 C2636 1.389 . S
C2638 C2639 1.524 . S
C2638 C2652 1.377 . S
C2639 C2638 1.524 . S
C2639 C2640 1.397 . S
C2639 C2644 1.363 . S
C2640 H2617 0.950 . S
C2640 C2639 1.397 . S
C2640 C2641 1.334 . S
C2641 H2618 0.950 . S
C2641 C2640 1.334 . S
C2641 C2642 1.287 . S
C2642 C2641 1.287 . S
C2642 C2643 1.524 . S
C2642 H2661 0.913 . S
C2643 H2619 0.950 . S
C2643 C2642 1.524 . S
C2643 C2644 1.415 . S
C2644 H2620 0.950 . S
C2644 C2639 1.363 . S
C2644 C2643 1.415 . S
C2645 H2621 0.951 . S
C2645 C2646 1.366 . S
C2645 C2647 1.388 . S
C2646 C2645 1.366 . S
C2646 C2650 1.385 . S
C2647 H2622 0.951 . S
C2647 C2645 1.388 . S
C2647 C2648 1.366 . S
C2648 C2647 1.366 . S
C2648 C2649 1.414 . S
C2648 C2651 1.499 . S
C2649 H2623 0.950 . S
C2649 C2648 1.414 . S
C2649 C2650 1.374 . S
C2650 H2624 0.950 . S
C2650 C2646 1.385 . S
C2650 C2649 1.374 . S
C2651 C2648 1.499 . S
C2651 C2652 1.373 . S
C2651 C2653 1.389 . S
C2652 H2625 0.950 . S
C2652 C2638 1.377 . S
C2652 C2651 1.373 . S
C2653 C2637 1.377 . S
C2653 C2651 1.389 . S
C2653 C2654 1.524 . S
C2654 C2653 1.524 . S
C2654 C2655 1.397 . S
C2654 C2659 1.363 . S
C2655 H2626 0.950 . S
C2655 C2654 1.397 . S
C2655 C2656 1.334 . S
C2656 H2627 0.950 . S
C2656 C2655 1.334 . S
C2656 C2657 1.287 . S
C2657 C2656 1.287 . S
C2657 C2658 1.524 . S
C2657 H2660 0.999 . S
C2658 H2628 0.950 . S
C2658 C2657 1.524 . S
C2658 C2659 1.415 . S
C2659 H2629 0.950 . S
C2659 C2654 1.363 . S
C2659 C2658 1.415 . S
H2660 C2657 0.999 . S
H2661 C2642 0.913 . S
H2662 C2680 0.951 . S
H2663 C2682 0.951 . S
H2664 C2684 0.950 . S
H2665 C2685 0.950 . S
H2666 C2687 0.950 . S
H2667 C2690 0.950 . S
H2668 C2691 0.950 . S
H2669 C2693 0.950 . S
H2670 C2694 0.950 . S
H2671 C2695 0.951 . S
H2672 C2697 0.951 . S
H2673 C2699 0.950 . S
H2674 C2700 0.950 . S
H2675 C2702 0.950 . S
H2676 C2705 0.950 . S
H2677 C2706 0.950 . S
H2678 C2708 0.950 . S
H2679 C2709 0.950 . S
C2680 H2662 0.951 . S
C2680 C2681 1.366 . S
C2680 C2682 1.388 . S
C2681 C2680 1.366 . S
C2681 C2685 1.385 . S
C2682 H2663 0.951 . S
C2682 C2680 1.388 . S
C2682 C2683 1.366 . S
C2683 C2682 1.366 . S
C2683 C2684 1.414 . S
C2683 C2686 1.499 . S
C2684 H2664 0.950 . S
C2684 C2683 1.414 . S
C2684 C2685 1.374 . S
C2685 H2665 0.950 . S
C2685 C2681 1.385 . S
C2685 C2684 1.374 . S
C2686 C2683 1.499 . S
C2686 C2687 1.373 . S
C2686 C2688 1.389 . S
C2687 H2666 0.950 . S
C2687 C2686 1.373 . S
C2687 C2703 1.377 . S
C2688 C2686 1.389 . S
C2688 C2689 1.524 . S
C2688 C2702 1.377 . S
C2689 C2688 1.524 . S
C2689 C2690 1.397 . S
C2689 C2694 1.363 . S
C2690 H2667 0.950 . S
C2690 C2689 1.397 . S
C2690 C2691 1.334 . S
C2691 H2668 0.950 . S
C2691 C2690 1.334 . S
C2691 C2692 1.287 . S
C2692 C2691 1.287 . S
C2692 C2693 1.524 . S
C2692 H2711 0.913 . S
C2693 H2669 0.950 . S
C2693 C2692 1.524 . S
C2693 C2694 1.415 . S
C2694 H2670 0.950 . S
C2694 C2689 1.363 . S
C2694 C2693 1.415 . S
C2695 H2671 0.951 . S
C2695 C2696 1.366 . S
C2695 C2697 1.388 . S
C2696 C2695 1.366 . S
C2696 C2700 1.385 . S
C2697 H2672 0.951 . S
C2697 C2695 1.388 . S
C2697 C2698 1.366 . S
C2698 C2697 1.366 . S
C2698 C2699 1.414 . S
C2698 C2701 1.499 . S
C2699 H2673 0.950 . S
C2699 C2698 1.414 . S
C2699 C2700 1.374 . S
C2700 H2674 0.950 . S
C2700 C2696 1.385 . S
C2700 C2699 1.374 . S
C2701 C2698 1.499 . S
C2701 C2702 1.373 . S
C2701 C2703 1.389 . S
C2702 H2675 0.950 . S
C2702 C2688 1.377 . S
C2702 C2701 1.373 . S
C2703 C2687 1.377 . S
C2703 C2701 1.389 . S
C2703 C2704 1.524 . S
C2704 C2703 1.524 . S
C2704 C2705 1.397 . S
C2704 C2709 1.363 . S
C2705 H2676 0.950 . S
C2705 C2704 1.397 . S
C2705 C2706 1.334 . S
C2706 H2677 0.950 . S
C2706 C2705 1.334 . S
C2706 C2707 1.287 . S
C2707 C2706 1.287 . S
C2707 C2708 1.524 . S
C2707 H2710 0.999 . S
C2708 H2678 0.950 . S
C2708 C2707 1.524 . S
C2708 C2709 1.415 . S
C2709 H2679 0.950 . S
C2709 C2704 1.363 . S
C2709 C2708 1.415 . S
H2710 C2707 0.999 . S
H2711 C2692 0.913 . S
H2712 C2730 0.951 . S
H2713 C2732 0.951 . S
H2714 C2734 0.950 . S
H2715 C2735 0.950 . S
H2716 C2737 0.950 . S
H2717 C2740 0.950 . S
H2718 C2741 0.950 . S
H2719 C2743 0.950 . S
H2720 C2744 0.950 . S
H2721 C2745 0.951 . S
H2722 C2747 0.951 . S
H2723 C2749 0.950 . S
H2724 C2750 0.950 . S
H2725 C2752 0.950 . S
H2726 C2755 0.950 . S
H2727 C2756 0.950 . S
H2728 C2758 0.950 . S
H2729 C2759 0.950 . S
C2730 H2712 0.951 . S
C2730 C2731 1.366 . S
C2730 C2732 1.388 . S
C2731 C2730 1.366 . S
C2731 C2735 1.385 . S
C2732 H2713 0.951 . S
C2732 C2730 1.388 . S
C2732 C2733 1.366 . S
C2733 C2732 1.366 . S
C2733 C2734 1.414 . S
C2733 C2736 1.499 . S
C2734 H2714 0.950 . S
C2734 C2733 1.414 . S
C2734 C2735 1.374 . S
C2735 H2715 0.950 . S
C2735 C2731 1.385 . S
C2735 C2734 1.374 . S
C2736 C2733 1.499 . S
C2736 C2737 1.373 . S
C2736 C2738 1.389 . S
C2737 H2716 0.950 . S
C2737 C2736 1.373 . S
C2737 C2753 1.377 . S
C2738 C2736 1.389 . S
C2738 C2739 1.524 . S
C2738 C2752 1.377 . S
C2739 C2738 1.524 . S
C2739 C2740 1.397 . S
C2739 C2744 1.363 . S
C2740 H2717 0.950 . S
C2740 C2739 1.397 . S
C2740 C2741 1.334 . S
C2741 H2718 0.950 . S
C2741 C2740 1.334 . S
C2741 C2742 1.287 . S
C2742 C2741 1.287 . S
C2742 C2743 1.524 . S
C2742 H2761 0.913 . S
C2743 H2719 0.950 . S
C2743 C2742 1.524 . S
C2743 C2744 1.415 . S
C2744 H2720 0.950 . S
C2744 C2739 1.363 . S
C2744 C2743 1.415 . S
C2745 H2721 0.951 . S
C2745 C2746 1.366 . S
C2745 C2747 1.388 . S
C2746 C2745 1.366 . S
C2746 C2750 1.385 . S
C2747 H2722 0.951 . S
C2747 C2745 1.388 . S
C2747 C2748 1.366 . S
C2748 C2747 1.366 . S
C2748 C2749 1.414 . S
C2748 C2751 1.499 . S
C2749 H2723 0.950 . S
C2749 C2748 1.414 . S
C2749 C2750 1.374 . S
C2750 H2724 0.950 . S
C2750 C2746 1.385 . S
C2750 C2749 1.374 . S
C2751 C2748 1.499 . S
C2751 C2752 1.373 . S
C2751 C2753 1.389 . S
C2752 H2725 0.950 . S
C2752 C2738 1.377 . S
C2752 C2751 1.373 . S
C2753 C2737 1.377 . S
C2753 C2751 1.389 . S
C2753 C2754 1.524 . S
C2754 C2753 1.524 . S
C2754 C2755 1.397 . S
C2754 C2759 1.363 . S
C2755 H2726 0.950 . S
C2755 C2754 1.397 . S
C2755 C2756 1.334 . S
C2756 H2727 0.950 . S
C2756 C2755 1.334 . S
C2756 C2757 1.287 . S
C2757 C2756 1.287 . S
C2757 C2758 1.524 . S
C2757 H2760 0.999 . S
C2758 H2728 0.950 . S
C2758 C2757 1.524 . S
C2758 C2759 1.415 . S
C2759 H2729 0.950 . S
C2759 C2754 1.363 . S
C2759 C2758 1.415 . S
H2760 C2757 0.999 . S
H2761 C2742 0.913 . S
H2762 C2780 0.951 . S
H2763 C2782 0.951 . S
H2764 C2784 0.950 . S
H2765 C2785 0.950 . S
H2766 C2787 0.950 . S
H2767 C2790 0.950 . S
H2768 C2791 0.950 . S
H2769 C2793 0.950 . S
H2770 C2794 0.950 . S
H2771 C2795 0.951 . S
H2772 C2797 0.951 . S
H2773 C2799 0.950 . S
H2774 C2800 0.950 . S
H2775 C2802 0.950 . S
H2776 C2805 0.950 . S
H2777 C2806 0.950 . S
H2778 C2808 0.950 . S
H2779 C2809 0.950 . S
C2780 H2762 0.951 . S
C2780 C2781 1.366 . S
C2780 C2782 1.388 . S
C2781 C2780 1.366 . S
C2781 C2785 1.385 . S
C2782 H2763 0.951 . S
C2782 C2780 1.388 . S
C2782 C2783 1.366 . S
C2783 C2782 1.366 . S
C2783 C2784 1.414 . S
C2783 C2786 1.499 . S
C2784 H2764 0.950 . S
C2784 C2783 1.414 . S
C2784 C2785 1.374 . S
C2785 H2765 0.950 . S
C2785 C2781 1.385 . S
C2785 C2784 1.374 . S
C2786 C2783 1.499 . S
C2786 C2787 1.373 . S
C2786 C2788 1.389 . S
C2787 H2766 0.950 . S
C2787 C2786 1.373 . S
C2787 C2803 1.377 . S
C2788 C2786 1.389 . S
C2788 C2789 1.524 . S
C2788 C2802 1.377 . S
C2789 C2788 1.524 . S
C2789 C2790 1.397 . S
C2789 C2794 1.363 . S
C2790 H2767 0.950 . S
C2790 C2789 1.397 . S
C2790 C2791 1.334 . S
C2791 H2768 0.950 . S
C2791 C2790 1.334 . S
C2791 C2792 1.287 . S
C2792 C2791 1.287 . S
C2792 C2793 1.524 . S
C2792 H2811 0.913 . S
C2793 H2769 0.950 . S
C2793 C2792 1.524 . S
C2793 C2794 1.415 . S
C2794 H2770 0.950 . S
C2794 C2789 1.363 . S
C2794 C2793 1.415 . S
C2795 H2771 0.951 . S
C2795 C2796 1.366 . S
C2795 C2797 1.388 . S
C2796 C2795 1.366 . S
C2796 C2800 1.385 . S
C2797 H2772 0.951 . S
C2797 C2795 1.388 . S
C2797 C2798 1.366 . S
C2798 C2797 1.366 . S
C2798 C2799 1.414 . S
C2798 C2801 1.499 . S
C2799 H2773 0.950 . S
C2799 C2798 1.414 . S
C2799 C2800 1.374 . S
C2800 H2774 0.950 . S
C2800 C2796 1.385 . S
C2800 C2799 1.374 . S
C2801 C2798 1.499 . S
C2801 C2802 1.373 . S
C2801 C2803 1.389 . S
C2802 H2775 0.950 . S
C2802 C2788 1.377 . S
C2802 C2801 1.373 . S
C2803 C2787 1.377 . S
C2803 C2801 1.389 . S
C2803 C2804 1.524 . S
C2804 C2803 1.524 . S
C2804 C2805 1.397 . S
C2804 C2809 1.363 . S
C2805 H2776 0.950 . S
C2805 C2804 1.397 . S
C2805 C2806 1.334 . S
C2806 H2777 0.950 . S
C2806 C2805 1.334 . S
C2806 C2807 1.287 . S
C2807 C2806 1.287 . S
C2807 C2808 1.524 . S
C2807 H2810 0.999 . S
C2808 H2778 0.950 . S
C2808 C2807 1.524 . S
C2808 C2809 1.415 . S
C2809 H2779 0.950 . S
C2809 C2804 1.363 . S
C2809 C2808 1.415 . S
H2810 C2807 0.999 . S
H2811 C2792 0.913 . S
H2812 C2830 0.951 . S
H2813 C2832 0.951 . S
H2814 C2834 0.950 . S
H2815 C2835 0.950 . S
H2816 C2837 0.950 . S
H2817 C2840 0.950 . S
H2818 C2841 0.950 . S
H2819 C2843 0.950 . S
H2820 C2844 0.950 . S
H2821 C2845 0.951 . S
H2822 C2847 0.951 . S
H2823 C2849 0.950 . S
H2824 C2850 0.950 . S
H2825 C2852 0.950 . S
H2826 C2855 0.950 . S
H2827 C2856 0.950 . S
H2828 C2858 0.950 . S
H2829 C2859 0.950 . S
C2830 H2812 0.951 . S
C2830 C2831 1.366 . S
C2830 C2832 1.388 . S
C2831 C2830 1.366 . S
C2831 C2835 1.385 . S
C2832 H2813 0.951 . S
C2832 C2830 1.388 . S
C2832 C2833 1.366 . S
C2833 C2832 1.366 . S
C2833 C2834 1.414 . S
C2833 C2836 1.499 . S
C2834 H2814 0.950 . S
C2834 C2833 1.414 . S
C2834 C2835 1.374 . S
C2835 H2815 0.950 . S
C2835 C2831 1.385 . S
C2835 C2834 1.374 . S
C2836 C2833 1.499 . S
C2836 C2837 1.373 . S
C2836 C2838 1.389 . S
C2837 H2816 0.950 . S
C2837 C2836 1.373 . S
C2837 C2853 1.377 . S
C2838 C2836 1.389 . S
C2838 C2839 1.524 . S
C2838 C2852 1.377 . S
C2839 C2838 1.524 . S
C2839 C2840 1.397 . S
C2839 C2844 1.363 . S
C2840 H2817 0.950 . S
C2840 C2839 1.397 . S
C2840 C2841 1.334 . S
C2841 H2818 0.950 . S
C2841 C2840 1.334 . S
C2841 C2842 1.287 . S
C2842 C2841 1.287 . S
C2842 C2843 1.524 . S
C2842 H2861 0.913 . S
C2843 H2819 0.950 . S
C2843 C2842 1.524 . S
C2843 C2844 1.415 . S
C2844 H2820 0.950 . S
C2844 C2839 1.363 . S
C2844 C2843 1.415 . S
C2845 H2821 0.951 . S
C2845 C2846 1.366 . S
C2845 C2847 1.388 . S
C2846 C2845 1.366 . S
C2846 C2850 1.385 . S
C2847 H2822 0.951 . S
C2847 C2845 1.388 . S
C2847 C2848 1.366 . S
C2848 C2847 1.366 . S
C2848 C2849 1.414 . S
C2848 C2851 1.499 . S
C2849 H2823 0.950 . S
C2849 C2848 1.414 . S
C2849 C2850 1.374 . S
C2850 H2824 0.950 . S
C2850 C2846 1.385 . S
C2850 C2849 1.374 . S
C2851 C2848 1.499 . S
C2851 C2852 1.373 . S
C2851 C2853 1.389 . S
C2852 H2825 0.950 . S
C2852 C2838 1.377 . S
C2852 C2851 1.373 . S
C2853 C2837 1.377 . S
C2853 C2851 1.389 . S
C2853 C2854 1.524 . S
C2854 C2853 1.524 . S
C2854 C2855 1.397 . S
C2854 C2859 1.363 . S
C2855 H2826 0.950 . S
C2855 C2854 1.397 . S
C2855 C2856 1.334 . S
C2856 H2827 0.950 . S
C2856 C2855 1.334 . S
C2856 C2857 1.287 . S
C2857 C2856 1.287 . S
C2857 C2858 1.524 . S
C2857 H2860 0.999 . S
C2858 H2828 0.950 . S
C2858 C2857 1.524 . S
C2858 C2859 1.415 . S
C2859 H2829 0.950 . S
C2859 C2854 1.363 . S
C2859 C2858 1.415 . S
H2860 C2857 0.999 . S
H2861 C2842 0.913 . S
H2862 C2880 0.951 . S
H2863 C2882 0.951 . S
H2864 C2884 0.950 . S
H2865 C2885 0.950 . S
H2866 C2887 0.950 . S
H2867 C2890 0.950 . S
H2868 C2891 0.950 . S
H2869 C2893 0.950 . S
H2870 C2894 0.950 . S
H2871 C2895 0.951 . S
H2872 C2897 0.951 . S
H2873 C2899 0.950 . S
H2874 C2900 0.950 . S
H2875 C2902 0.950 . S
H2876 C2905 0.950 . S
H2877 C2906 0.950 . S
H2878 C2908 0.950 . S
H2879 C2909 0.950 . S
C2880 H2862 0.951 . S
C2880 C2881 1.366 . S
C2880 C2882 1.388 . S
C2881 C2880 1.366 . S
C2881 C2885 1.385 . S
C2882 H2863 0.951 . S
C2882 C2880 1.388 . S
C2882 C2883 1.366 . S
C2883 C2882 1.366 . S
C2883 C2884 1.414 . S
C2883 C2886 1.499 . S
C2884 H2864 0.950 . S
C2884 C2883 1.414 . S
C2884 C2885 1.374 . S
C2885 H2865 0.950 . S
C2885 C2881 1.385 . S
C2885 C2884 1.374 . S
C2886 C2883 1.499 . S
C2886 C2887 1.373 . S
C2886 C2888 1.389 . S
C2887 H2866 0.950 . S
C2887 C2886 1.373 . S
C2887 C2903 1.377 . S
C2888 C2886 1.389 . S
C2888 C2889 1.524 . S
C2888 C2902 1.377 . S
C2889 C2888 1.524 . S
C2889 C2890 1.397 . S
C2889 C2894 1.363 . S
C2890 H2867 0.950 . S
C2890 C2889 1.397 . S
C2890 C2891 1.334 . S
C2891 H2868 0.950 . S
C2891 C2890 1.334 . S
C2891 C2892 1.287 . S
C2892 C2891 1.287 . S
C2892 C2893 1.524 . S
C2892 H2911 0.913 . S
C2893 H2869 0.950 . S
C2893 C2892 1.524 . S
C2893 C2894 1.415 . S
C2894 H2870 0.950 . S
C2894 C2889 1.363 . S
C2894 C2893 1.415 . S
C2895 H2871 0.951 . S
C2895 C2896 1.366 . S
C2895 C2897 1.388 . S
C2896 C2895 1.366 . S
C2896 C2900 1.385 . S
C2897 H2872 0.951 . S
C2897 C2895 1.388 . S
C2897 C2898 1.366 . S
C2898 C2897 1.366 . S
C2898 C2899 1.414 . S
C2898 C2901 1.499 . S
C2899 H2873 0.950 . S
C2899 C2898 1.414 . S
C2899 C2900 1.374 . S
C2900 H2874 0.950 . S
C2900 C2896 1.385 . S
C2900 C2899 1.374 . S
C2901 C2898 1.499 . S
C2901 C2902 1.373 . S
C2901 C2903 1.389 . S
C2902 H2875 0.950 . S
C2902 C2888 1.377 . S
C2902 C2901 1.373 . S
C2903 C2887 1.377 . S
C2903 C2901 1.389 . S
C2903 C2904 1.524 . S
C2904 C2903 1.524 . S
C2904 C2905 1.397 . S
C2904 C2909 1.363 . S
C2905 H2876 0.950 . S
C2905 C2904 1.397 . S
C2905 C2906 1.334 . S
C2906 H2877 0.950 . S
C2906 C2905 1.334 . S
C2906 C2907 1.287 . S
C2907 C2906 1.287 . S
C2907 C2908 1.524 . S
C2907 H2910 0.999 . S
C2908 H2878 0.950 . S
C2908 C2907 1.524 . S
C2908 C2909 1.415 . S
C2909 H2879 0.950 . S
C2909 C2904 1.363 . S
C2909 C2908 1.415 . S
H2910 C2907 0.999 . S
H2911 C2892 0.913 . S
H2912 C2930 0.951 . S
H2913 C2932 0.951 . S
H2914 C2934 0.950 . S
H2915 C2935 0.950 . S
H2916 C2937 0.950 . S
H2917 C2940 0.950 . S
H2918 C2941 0.950 . S
H2919 C2943 0.950 . S
H2920 C2944 0.950 . S
H2921 C2945 0.951 . S
H2922 C2947 0.951 . S
H2923 C2949 0.950 . S
H2924 C2950 0.950 . S
H2925 C2952 0.950 . S
H2926 C2955 0.950 . S
H2927 C2956 0.950 . S
H2928 C2958 0.950 . S
H2929 C2959 0.950 . S
C2930 H2912 0.951 . S
C2930 C2931 1.366 . S
C2930 C2932 1.388 . S
C2931 C2930 1.366 . S
C2931 C2935 1.385 . S
C2932 H2913 0.951 . S
C2932 C2930 1.388 . S
C2932 C2933 1.366 . S
C2933 C2932 1.366 . S
C2933 C2934 1.414 . S
C2933 C2936 1.499 . S
C2934 H2914 0.950 . S
C2934 C2933 1.414 . S
C2934 C2935 1.374 . S
C2935 H2915 0.950 . S
C2935 C2931 1.385 . S
C2935 C2934 1.374 . S
C2936 C2933 1.499 . S
C2936 C2937 1.373 . S
C2936 C2938 1.389 . S
C2937 H2916 0.950 . S
C2937 C2936 1.373 . S
C2937 C2953 1.377 . S
C2938 C2936 1.389 . S
C2938 C2939 1.524 . S
C2938 C2952 1.377 . S
C2939 C2938 1.524 . S
C2939 C2940 1.397 . S
C2939 C2944 1.363 . S
C2940 H2917 0.950 . S
C2940 C2939 1.397 . S
C2940 C2941 1.334 . S
C2941 H2918 0.950 . S
C2941 C2940 1.334 . S
C2941 C2942 1.287 . S
C2942 C2941 1.287 . S
C2942 C2943 1.524 . S
C2942 H2961 0.913 . S
C2943 H2919 0.950 . S
C2943 C2942 1.524 . S
C2943 C2944 1.415 . S
C2944 H2920 0.950 . S
C2944 C2939 1.363 . S
C2944 C2943 1.415 . S
C2945 H2921 0.951 . S
C2945 C2946 1.366 . S
C2945 C2947 1.388 . S
C2946 C2945 1.366 . S
C2946 C2950 1.385 . S
C2947 H2922 0.951 . S
C2947 C2945 1.388 . S
C2947 C2948 1.366 . S
C2948 C2947 1.366 . S
C2948 C2949 1.414 . S
C2948 C2951 1.499 . S
C2949 H2923 0.950 . S
C2949 C2948 1.414 . S
C2949 C2950 1.374 . S
C2950 H2924 0.950 . S
C2950 C2946 1.385 . S
C2950 C2949 1.374 . S
C2951 C2948 1.499 . S
C2951 C2952 1.373 . S
C2951 C2953 1.389 . S
C2952 H2925 0.950 . S
C2952 C2938 1.377 . S
C2952 C2951 1.373 . S
C2953 C2937 1.377 . S
C2953 C2951 1.389 . S
C2953 C2954 1.524 . S
C2954 C2953 1.524 . S
C2954 C2955 1.397 . S
C2954 C2959 1.363 . S
C2955 H2926 0.950 . S
C2955 C2954 1.397 . S
C2955 C2956 1.334 . S
C2956 H2927 0.950 . S
C2956 C2955 1.334 . S
C2956 C2957 1.287 . S
C2957 C2956 1.287 . S
C2957 C2958 1.524 . S
C2957 H2960 0.999 1_554 S
C2958 H2928 0.950 . S
C2958 C2957 1.524 . S
C2958 C2959 1.415 . S
C2959 H2929 0.950 . S
C2959 C2954 1.363 . S
C2959 C2958 1.415 . S
H2960 C2957 0.999 1_556 S
H2961 C2942 0.913 . S
H2962 C2980 0.951 . S
H2963 C2982 0.951 . S
H2964 C2984 0.950 . S
H2965 C2985 0.950 . S
H2966 C2987 0.950 . S
H2967 C2990 0.950 . S
H2968 C2991 0.950 . S
H2969 C2993 0.950 . S
H2970 C2994 0.950 . S
H2971 C2995 0.951 . S
H2972 C2997 0.951 . S
H2973 C2999 0.950 . S
H2974 C3000 0.950 . S
H2975 C3002 0.950 . S
H2976 C3005 0.950 . S
H2977 C3006 0.950 . S
H2978 C3008 0.950 . S
H2979 C3009 0.950 . S
C2980 H2962 0.951 . S
C2980 C2981 1.366 . S
C2980 C2982 1.388 . S
C2981 C2980 1.366 . S
C2981 C2985 1.385 . S
C2982 H2963 0.951 . S
C2982 C2980 1.388 . S
C2982 C2983 1.366 . S
C2983 C2982 1.366 . S
C2983 C2984 1.414 . S
C2983 C2986 1.499 . S
C2984 H2964 0.950 . S
C2984 C2983 1.414 . S
C2984 C2985 1.374 . S
C2985 H2965 0.950 . S
C2985 C2981 1.385 . S
C2985 C2984 1.374 . S
C2986 C2983 1.499 . S
C2986 C2987 1.373 . S
C2986 C2988 1.389 . S
C2987 H2966 0.950 . S
C2987 C2986 1.373 . S
C2987 C3003 1.377 . S
C2988 C2986 1.389 . S
C2988 C2989 1.524 . S
C2988 C3002 1.377 . S
C2989 C2988 1.524 . S
C2989 C2990 1.397 . S
C2989 C2994 1.363 . S
C2990 H2967 0.950 . S
C2990 C2989 1.397 . S
C2990 C2991 1.334 . S
C2991 H2968 0.950 . S
C2991 C2990 1.334 . S
C2991 C2992 1.287 . S
C2992 C2991 1.287 . S
C2992 C2993 1.524 . S
C2992 H3011 0.913 . S
C2993 H2969 0.950 . S
C2993 C2992 1.524 . S
C2993 C2994 1.415 . S
C2994 H2970 0.950 . S
C2994 C2989 1.363 . S
C2994 C2993 1.415 . S
C2995 H2971 0.951 . S
C2995 C2996 1.366 . S
C2995 C2997 1.388 . S
C2996 C2995 1.366 . S
C2996 C3000 1.385 . S
C2997 H2972 0.951 . S
C2997 C2995 1.388 . S
C2997 C2998 1.366 . S
C2998 C2997 1.366 . S
C2998 C2999 1.414 . S
C2998 C3001 1.499 . S
C2999 H2973 0.950 . S
C2999 C2998 1.414 . S
C2999 C3000 1.374 . S
C3000 H2974 0.950 . S
C3000 C2996 1.385 . S
C3000 C2999 1.374 . S
C3001 C2998 1.499 . S
C3001 C3002 1.373 . S
C3001 C3003 1.389 . S
C3002 H2975 0.950 . S
C3002 C2988 1.377 . S
C3002 C3001 1.373 . S
C3003 C2987 1.377 . S
C3003 C3001 1.389 . S
C3003 C3004 1.524 . S
C3004 C3003 1.524 . S
C3004 C3005 1.397 . S
C3004 C3009 1.363 . S
C3005 H2976 0.950 . S
C3005 C3004 1.397 . S
C3005 C3006 1.334 . S
C3006 H2977 0.950 . S
C3006 C3005 1.334 . S
C3006 C3007 1.287 . S
C3007 C3006 1.287 . S
C3007 C3008 1.524 . S
C3007 H3010 0.999 . S
C3008 H2978 0.950 . S
C3008 C3007 1.524 . S
C3008 C3009 1.415 . S
C3009 H2979 0.950 . S
C3009 C3004 1.363 . S
C3009 C3008 1.415 . S
H3010 C3007 0.999 . S
H3011 C2992 0.913 . S
H3012 C3030 0.951 . S
H3013 C3032 0.951 . S
H3014 C3034 0.950 . S
H3015 C3035 0.950 . S
H3016 C3037 0.950 . S
H3017 C3040 0.950 . S
H3018 C3041 0.950 . S
H3019 C3043 0.950 . S
H3020 C3044 0.950 . S
H3021 C3045 0.951 . S
H3022 C3047 0.951 . S
H3023 C3049 0.950 . S
H3024 C3050 0.950 . S
H3025 C3052 0.950 . S
H3026 C3055 0.950 . S
H3027 C3056 0.950 . S
H3028 C3058 0.950 . S
H3029 C3059 0.950 . S
C3030 H3012 0.951 . S
C3030 C3031 1.366 . S
C3030 C3032 1.388 . S
C3031 C3030 1.366 . S
C3031 C3035 1.385 . S
C3032 H3013 0.951 . S
C3032 C3030 1.388 . S
C3032 C3033 1.366 . S
C3033 C3032 1.366 . S
C3033 C3034 1.414 . S
C3033 C3036 1.499 . S
C3034 H3014 0.950 . S
C3034 C3033 1.414 . S
C3034 C3035 1.374 . S
C3035 H3015 0.950 . S
C3035 C3031 1.385 . S
C3035 C3034 1.374 . S
C3036 C3033 1.499 . S
C3036 C3037 1.373 . S
C3036 C3038 1.389 . S
C3037 H3016 0.950 . S
C3037 C3036 1.373 . S
C3037 C3053 1.377 . S
C3038 C3036 1.389 . S
C3038 C3039 1.524 . S
C3038 C3052 1.377 . S
C3039 C3038 1.524 . S
C3039 C3040 1.397 . S
C3039 C3044 1.363 . S
C3040 H3017 0.950 . S
C3040 C3039 1.397 . S
C3040 C3041 1.334 . S
C3041 H3018 0.950 . S
C3041 C3040 1.334 . S
C3041 C3042 1.287 . S
C3042 C3041 1.287 . S
C3042 C3043 1.524 . S
C3042 H3061 0.913 . S
C3043 H3019 0.950 . S
C3043 C3042 1.524 . S
C3043 C3044 1.415 . S
C3044 H3020 0.950 . S
C3044 C3039 1.363 . S
C3044 C3043 1.415 . S
C3045 H3021 0.951 . S
C3045 C3046 1.366 . S
C3045 C3047 1.388 . S
C3046 C3045 1.366 . S
C3046 C3050 1.385 . S
C3047 H3022 0.951 . S
C3047 C3045 1.388 . S
C3047 C3048 1.366 . S
C3048 C3047 1.366 . S
C3048 C3049 1.414 . S
C3048 C3051 1.499 . S
C3049 H3023 0.950 . S
C3049 C3048 1.414 . S
C3049 C3050 1.374 . S
C3050 H3024 0.950 . S
C3050 C3046 1.385 . S
C3050 C3049 1.374 . S
C3051 C3048 1.499 . S
C3051 C3052 1.373 . S
C3051 C3053 1.389 . S
C3052 H3025 0.950 . S
C3052 C3038 1.377 . S
C3052 C3051 1.373 . S
C3053 C3037 1.377 . S
C3053 C3051 1.389 . S
C3053 C3054 1.524 . S
C3054 C3053 1.524 . S
C3054 C3055 1.397 . S
C3054 C3059 1.363 . S
C3055 H3026 0.950 . S
C3055 C3054 1.397 . S
C3055 C3056 1.334 . S
C3056 H3027 0.950 . S
C3056 C3055 1.334 . S
C3056 C3057 1.287 . S
C3057 C3056 1.287 . S
C3057 C3058 1.524 . S
C3057 H3060 0.999 . S
C3058 H3028 0.950 . S
C3058 C3057 1.524 . S
C3058 C3059 1.415 . S
C3059 H3029 0.950 . S
C3059 C3054 1.363 . S
C3059 C3058 1.415 . S
H3060 C3057 0.999 . S
H3061 C3042 0.913 . S
H3062 C3080 0.951 . S
H3063 C3082 0.951 . S
H3064 C3084 0.950 . S
H3065 C3085 0.950 . S
H3066 C3087 0.950 . S
H3067 C3090 0.950 . S
H3068 C3091 0.950 . S
H3069 C3093 0.950 . S
H3070 C3094 0.950 . S
H3071 C3095 0.951 . S
H3072 C3097 0.951 . S
H3073 C3099 0.950 . S
H3074 C3100 0.950 . S
H3075 C3102 0.950 . S
H3076 C3105 0.950 . S
H3077 C3106 0.950 . S
H3078 C3108 0.950 1_554 S
H3079 C3109 0.950 . S
C3080 H3062 0.951 . S
C3080 C3081 1.366 . S
C3080 C3082 1.388 . S
C3081 C3080 1.366 . S
C3081 C3085 1.385 . S
C3082 H3063 0.951 . S
C3082 C3080 1.388 . S
C3082 C3083 1.366 . S
C3083 C3082 1.366 . S
C3083 C3084 1.414 . S
C3083 C3086 1.499 . S
C3084 H3064 0.950 . S
C3084 C3083 1.414 . S
C3084 C3085 1.374 . S
C3085 H3065 0.950 . S
C3085 C3081 1.385 . S
C3085 C3084 1.374 . S
C3086 C3083 1.499 . S
C3086 C3087 1.373 . S
C3086 C3088 1.389 . S
C3087 H3066 0.950 . S
C3087 C3086 1.373 . S
C3087 C3103 1.377 . S
C3088 C3086 1.389 . S
C3088 C3089 1.524 . S
C3088 C3102 1.377 . S
C3089 C3088 1.524 . S
C3089 C3090 1.397 . S
C3089 C3094 1.363 . S
C3090 H3067 0.950 . S
C3090 C3089 1.397 . S
C3090 C3091 1.334 . S
C3091 H3068 0.950 . S
C3091 C3090 1.334 . S
C3091 C3092 1.287 . S
C3092 C3091 1.287 . S
C3092 C3093 1.524 . S
C3092 H3111 0.913 . S
C3093 H3069 0.950 . S
C3093 C3092 1.524 . S
C3093 C3094 1.415 . S
C3094 H3070 0.950 . S
C3094 C3089 1.363 . S
C3094 C3093 1.415 . S
C3095 H3071 0.951 . S
C3095 C3096 1.366 . S
C3095 C3097 1.388 . S
C3096 C3095 1.366 . S
C3096 C3100 1.385 . S
C3097 H3072 0.951 . S
C3097 C3095 1.388 . S
C3097 C3098 1.366 . S
C3098 C3097 1.366 . S
C3098 C3099 1.414 . S
C3098 C3101 1.499 . S
C3099 H3073 0.950 . S
C3099 C3098 1.414 . S
C3099 C3100 1.374 . S
C3100 H3074 0.950 . S
C3100 C3096 1.385 . S
C3100 C3099 1.374 . S
C3101 C3098 1.499 . S
C3101 C3102 1.373 . S
C3101 C3103 1.389 . S
C3102 H3075 0.950 . S
C3102 C3088 1.377 . S
C3102 C3101 1.373 . S
C3103 C3087 1.377 . S
C3103 C3101 1.389 . S
C3103 C3104 1.524 . S
C3104 C3103 1.524 . S
C3104 C3105 1.397 . S
C3104 C3109 1.363 . S
C3105 H3076 0.950 . S
C3105 C3104 1.397 . S
C3105 C3106 1.334 . S
C3106 H3077 0.950 . S
C3106 C3105 1.334 . S
C3106 C3107 1.262 1_556 S
C3107 C3106 1.262 1_554 S
C3107 C3108 1.521 1_554 S
C3107 H3110 1.032 . S
C3108 H3078 0.950 1_556 S
C3108 C3107 1.521 1_556 S
C3108 C3109 1.415 . S
C3109 H3079 0.950 . S
C3109 C3104 1.363 . S
C3109 C3108 1.415 . S
H3110 C3107 1.032 . S
H3111 C3092 0.913 . S
H3112 C3130 0.951 . S
H3113 C3132 0.951 . S
H3114 C3134 0.950 . S
H3115 C3135 0.950 . S
H3116 C3137 0.950 . S
H3117 C3140 0.950 . S
H3118 C3141 0.950 . S
H3119 C3143 0.950 . S
H3120 C3144 0.950 . S
H3121 C3145 0.951 . S
H3122 C3147 0.951 . S
H3123 C3149 0.950 . S
H3124 C3150 0.950 . S
H3125 C3152 0.950 . S
H3126 C3155 0.950 . S
H3127 C3156 0.950 . S
H3128 C3158 0.950 . S
H3129 C3159 0.950 . S
C3130 H3112 0.951 . S
C3130 C3131 1.366 . S
C3130 C3132 1.388 . S
C3131 C3130 1.366 . S
C3131 C3135 1.385 . S
C3132 H3113 0.951 . S
C3132 C3130 1.388 . S
C3132 C3133 1.366 . S
C3133 C3132 1.366 . S
C3133 C3134 1.414 . S
C3133 C3136 1.499 . S
C3134 H3114 0.950 . S
C3134 C3133 1.414 . S
C3134 C3135 1.374 . S
C3135 H3115 0.950 . S
C3135 C3131 1.385 . S
C3135 C3134 1.374 . S
C3136 C3133 1.499 . S
C3136 C3137 1.373 . S
C3136 C3138 1.389 . S
C3137 H3116 0.950 . S
C3137 C3136 1.373 . S
C3137 C3153 1.377 . S
C3138 C3136 1.389 . S
C3138 C3139 1.524 . S
C3138 C3152 1.377 . S
C3139 C3138 1.524 . S
C3139 C3140 1.397 . S
C3139 C3144 1.363 . S
C3140 H3117 0.950 . S
C3140 C3139 1.397 . S
C3140 C3141 1.334 . S
C3141 H3118 0.950 . S
C3141 C3140 1.334 . S
C3141 C3142 1.287 . S
C3142 C3141 1.287 . S
C3142 C3143 1.524 . S
C3142 H3161 0.913 . S
C3143 H3119 0.950 . S
C3143 C3142 1.524 . S
C3143 C3144 1.415 . S
C3144 H3120 0.950 . S
C3144 C3139 1.363 . S
C3144 C3143 1.415 . S
C3145 H3121 0.951 . S
C3145 C3146 1.366 . S
C3145 C3147 1.388 . S
C3146 C3145 1.366 . S
C3146 C3150 1.385 . S
C3147 H3122 0.951 . S
C3147 C3145 1.388 . S
C3147 C3148 1.366 . S
C3148 C3147 1.366 . S
C3148 C3149 1.414 . S
C3148 C3151 1.499 . S
C3149 H3123 0.950 . S
C3149 C3148 1.414 . S
C3149 C3150 1.374 . S
C3150 H3124 0.950 . S
C3150 C3146 1.385 . S
C3150 C3149 1.374 . S
C3151 C3148 1.499 . S
C3151 C3152 1.373 . S
C3151 C3153 1.389 . S
C3152 H3125 0.950 . S
C3152 C3138 1.377 . S
C3152 C3151 1.373 . S
C3153 C3137 1.377 . S
C3153 C3151 1.389 . S
C3153 C3154 1.524 . S
C3154 C3153 1.524 . S
C3154 C3155 1.397 . S
C3154 C3159 1.363 . S
C3155 H3126 0.950 . S
C3155 C3154 1.397 . S
C3155 C3156 1.334 . S
C3156 H3127 0.950 . S
C3156 C3155 1.334 . S
C3156 C3157 1.287 . S
C3157 C3156 1.287 . S
C3157 C3158 1.524 . S
C3157 H3160 0.999 . S
C3158 H3128 0.950 . S
C3158 C3157 1.524 . S
C3158 C3159 1.415 . S
C3159 H3129 0.950 . S
C3159 C3154 1.363 . S
C3159 C3158 1.415 . S
H3160 C3157 0.999 . S
H3161 C3142 0.913 . S
H3162 C3180 0.951 . S
H3163 C3182 0.951 . S
H3164 C3184 0.950 . S
H3165 C3185 0.950 . S
H3166 C3187 0.950 . S
H3167 C3190 0.950 . S
H3168 C3191 0.950 . S
H3169 C3193 0.950 . S
H3170 C3194 0.950 . S
H3171 C3195 0.951 . S
H3172 C3197 0.951 . S
H3173 C3199 0.950 . S
H3174 C3200 0.950 . S
H3175 C3202 0.950 . S
H3176 C3205 0.950 . S
H3177 C3206 0.950 . S
H3178 C3208 0.950 . S
H3179 C3209 0.950 . S
C3180 H3162 0.951 . S
C3180 C3181 1.366 . S
C3180 C3182 1.388 . S
C3181 C3180 1.366 . S
C3181 C3185 1.385 . S
C3182 H3163 0.951 . S
C3182 C3180 1.388 . S
C3182 C3183 1.366 . S
C3183 C3182 1.366 . S
C3183 C3184 1.414 . S
C3183 C3186 1.499 . S
C3184 H3164 0.950 . S
C3184 C3183 1.414 . S
C3184 C3185 1.374 . S
C3185 H3165 0.950 . S
C3185 C3181 1.385 . S
C3185 C3184 1.374 . S
C3186 C3183 1.499 . S
C3186 C3187 1.373 . S
C3186 C3188 1.389 . S
C3187 H3166 0.950 . S
C3187 C3186 1.373 . S
C3187 C3203 1.377 . S
C3188 C3186 1.389 . S
C3188 C3189 1.524 . S
C3188 C3202 1.377 . S
C3189 C3188 1.524 . S
C3189 C3190 1.397 . S
C3189 C3194 1.363 . S
C3190 H3167 0.950 . S
C3190 C3189 1.397 . S
C3190 C3191 1.334 . S
C3191 H3168 0.950 . S
C3191 C3190 1.334 . S
C3191 C3192 1.287 . S
C3192 C3191 1.287 . S
C3192 C3193 1.524 . S
C3192 H3211 0.913 . S
C3193 H3169 0.950 . S
C3193 C3192 1.524 . S
C3193 C3194 1.415 . S
C3194 H3170 0.950 . S
C3194 C3189 1.363 . S
C3194 C3193 1.415 . S
C3195 H3171 0.951 . S
C3195 C3196 1.366 . S
C3195 C3197 1.388 . S
C3196 C3195 1.366 . S
C3196 C3200 1.385 . S
C3197 H3172 0.951 . S
C3197 C3195 1.388 . S
C3197 C3198 1.366 . S
C3198 C3197 1.366 . S
C3198 C3199 1.414 . S
C3198 C3201 1.499 . S
C3199 H3173 0.950 . S
C3199 C3198 1.414 . S
C3199 C3200 1.374 . S
C3200 H3174 0.950 . S
C3200 C3196 1.385 . S
C3200 C3199 1.374 . S
C3201 C3198 1.499 . S
C3201 C3202 1.373 . S
C3201 C3203 1.389 . S
C3202 H3175 0.950 . S
C3202 C3188 1.377 . S
C3202 C3201 1.373 . S
C3203 C3187 1.377 . S
C3203 C3201 1.389 . S
C3203 C3204 1.524 . S
C3204 C3203 1.524 . S
C3204 C3205 1.397 . S
C3204 C3209 1.363 . S
C3205 H3176 0.950 . S
C3205 C3204 1.397 . S
C3205 C3206 1.334 . S
C3206 H3177 0.950 . S
C3206 C3205 1.334 . S
C3206 C3207 1.287 . S
C3207 C3206 1.287 . S
C3207 C3208 1.524 . S
C3207 H3210 0.999 . S
C3208 H3178 0.950 . S
C3208 C3207 1.524 . S
C3208 C3209 1.415 . S
C3209 H3179 0.950 . S
C3209 C3204 1.363 . S
C3209 C3208 1.415 . S
H3210 C3207 0.999 . S
H3211 C3192 0.913 . S
H3212 C3230 0.951 . S
H3213 C3232 0.951 . S
H3214 C3234 0.950 . S
H3215 C3235 0.950 . S
H3216 C3237 0.950 . S
H3217 C3240 0.950 . S
H3218 C3241 0.950 . S
H3219 C3243 0.950 . S
H3220 C3244 0.950 . S
H3221 C3245 0.951 . S
H3222 C3247 0.951 . S
H3223 C3249 0.950 . S
H3224 C3250 0.950 . S
H3225 C3252 0.950 . S
H3226 C3255 0.950 . S
H3227 C3256 0.950 . S
H3228 C3258 0.950 . S
H3229 C3259 0.950 . S
C3230 H3212 0.951 . S
C3230 C3231 1.366 . S
C3230 C3232 1.388 . S
C3231 C3230 1.366 . S
C3231 C3235 1.385 . S
C3232 H3213 0.951 . S
C3232 C3230 1.388 . S
C3232 C3233 1.366 . S
C3233 C3232 1.366 . S
C3233 C3234 1.414 . S
C3233 C3236 1.499 . S
C3234 H3214 0.950 . S
C3234 C3233 1.414 . S
C3234 C3235 1.374 . S
C3235 H3215 0.950 . S
C3235 C3231 1.385 . S
C3235 C3234 1.374 . S
C3236 C3233 1.499 . S
C3236 C3237 1.373 . S
C3236 C3238 1.389 . S
C3237 H3216 0.950 . S
C3237 C3236 1.373 . S
C3237 C3253 1.377 . S
C3238 C3236 1.389 . S
C3238 C3239 1.524 . S
C3238 C3252 1.377 . S
C3239 C3238 1.524 . S
C3239 C3240 1.397 . S
C3239 C3244 1.363 . S
C3240 H3217 0.950 . S
C3240 C3239 1.397 . S
C3240 C3241 1.334 . S
C3241 H3218 0.950 . S
C3241 C3240 1.334 . S
C3241 C3242 1.287 . S
C3242 C3241 1.287 . S
C3242 C3243 1.524 . S
C3242 H3261 0.913 . S
C3243 H3219 0.950 . S
C3243 C3242 1.524 . S
C3243 C3244 1.415 . S
C3244 H3220 0.950 . S
C3244 C3239 1.363 . S
C3244 C3243 1.415 . S
C3245 H3221 0.951 . S
C3245 C3246 1.366 . S
C3245 C3247 1.388 . S
C3246 C3245 1.366 . S
C3246 C3250 1.385 . S
C3247 H3222 0.951 . S
C3247 C3245 1.388 . S
C3247 C3248 1.366 . S
C3248 C3247 1.366 . S
C3248 C3249 1.414 . S
C3248 C3251 1.499 . S
C3249 H3223 0.950 . S
C3249 C3248 1.414 . S
C3249 C3250 1.374 . S
C3250 H3224 0.950 . S
C3250 C3246 1.385 . S
C3250 C3249 1.374 . S
C3251 C3248 1.499 . S
C3251 C3252 1.373 . S
C3251 C3253 1.389 . S
C3252 H3225 0.950 . S
C3252 C3238 1.377 . S
C3252 C3251 1.373 . S
C3253 C3237 1.377 . S
C3253 C3251 1.389 . S
C3253 C3254 1.524 . S
C3254 C3253 1.524 . S
C3254 C3255 1.397 . S
C3254 C3259 1.363 . S
C3255 H3226 0.950 . S
C3255 C3254 1.397 . S
C3255 C3256 1.334 . S
C3256 H3227 0.950 . S
C3256 C3255 1.334 . S
C3256 C3257 1.287 . S
C3257 C3256 1.287 . S
C3257 C3258 1.524 . S
C3257 H3260 0.999 . S
C3258 H3228 0.950 . S
C3258 C3257 1.524 . S
C3258 C3259 1.415 . S
C3259 H3229 0.950 . S
C3259 C3254 1.363 . S
C3259 C3258 1.415 . S
H3260 C3257 0.999 . S
H3261 C3242 0.913 . S
H3262 C3280 0.951 . S
H3263 C3282 0.951 . S
H3264 C3284 0.950 . S
H3265 C3285 0.950 . S
H3266 C3287 0.950 . S
H3267 C3290 0.950 . S
H3268 C3291 0.950 . S
H3269 C3293 0.950 . S
H3270 C3294 0.950 . S
H3271 C3295 0.951 . S
H3272 C3297 0.951 . S
H3273 C3299 0.950 . S
H3274 C3300 0.950 . S
H3275 C3302 0.950 . S
H3276 C3305 0.950 . S
H3277 C3306 0.950 . S
H3278 C3308 0.950 . S
H3279 C3309 0.950 . S
C3280 H3262 0.951 . S
C3280 C3281 1.366 . S
C3280 C3282 1.388 . S
C3281 C3280 1.366 . S
C3281 C3285 1.385 . S
C3282 H3263 0.951 . S
C3282 C3280 1.388 . S
C3282 C3283 1.366 . S
C3283 C3282 1.366 . S
C3283 C3284 1.414 . S
C3283 C3286 1.499 . S
C3284 H3264 0.950 . S
C3284 C3283 1.414 . S
C3284 C3285 1.374 . S
C3285 H3265 0.950 . S
C3285 C3281 1.385 . S
C3285 C3284 1.374 . S
C3286 C3283 1.499 . S
C3286 C3287 1.373 . S
C3286 C3288 1.389 . S
C3287 H3266 0.950 . S
C3287 C3286 1.373 . S
C3287 C3303 1.377 . S
C3288 C3286 1.389 . S
C3288 C3289 1.524 . S
C3288 C3302 1.377 . S
C3289 C3288 1.524 . S
C3289 C3290 1.397 . S
C3289 C3294 1.363 . S
C3290 H3267 0.950 . S
C3290 C3289 1.397 . S
C3290 C3291 1.334 . S
C3291 H3268 0.950 . S
C3291 C3290 1.334 . S
C3291 C3292 1.287 . S
C3292 C3291 1.287 . S
C3292 C3293 1.524 . S
C3292 H3311 0.913 . S
C3293 H3269 0.950 . S
C3293 C3292 1.524 . S
C3293 C3294 1.415 . S
C3294 H3270 0.950 . S
C3294 C3289 1.363 . S
C3294 C3293 1.415 . S
C3295 H3271 0.951 . S
C3295 C3296 1.366 . S
C3295 C3297 1.388 . S
C3296 C3295 1.366 . S
C3296 C3300 1.385 . S
C3297 H3272 0.951 . S
C3297 C3295 1.388 . S
C3297 C3298 1.366 . S
C3298 C3297 1.366 . S
C3298 C3299 1.414 . S
C3298 C3301 1.499 . S
C3299 H3273 0.950 . S
C3299 C3298 1.414 . S
C3299 C3300 1.374 . S
C3300 H3274 0.950 . S
C3300 C3296 1.385 . S
C3300 C3299 1.374 . S
C3301 C3298 1.499 . S
C3301 C3302 1.373 . S
C3301 C3303 1.389 . S
C3302 H3275 0.950 . S
C3302 C3288 1.377 . S
C3302 C3301 1.373 . S
C3303 C3287 1.377 . S
C3303 C3301 1.389 . S
C3303 C3304 1.524 . S
C3304 C3303 1.524 . S
C3304 C3305 1.397 . S
C3304 C3309 1.363 . S
C3305 H3276 0.950 . S
C3305 C3304 1.397 . S
C3305 C3306 1.334 . S
C3306 H3277 0.950 . S
C3306 C3305 1.334 . S
C3306 C3307 1.287 . S
C3307 C3306 1.287 . S
C3307 C3308 1.524 . S
C3307 H3310 0.999 1_556 S
C3308 H3278 0.950 . S
C3308 C3307 1.524 . S
C3308 C3309 1.415 . S
C3309 H3279 0.950 . S
C3309 C3304 1.363 . S
C3309 C3308 1.415 . S
H3310 C3307 0.999 1_554 S
H3311 C3292 0.913 . S
H3312 C3330 0.951 . S
H3313 C3332 0.951 . S
H3314 C3334 0.950 . S
H3315 C3335 0.950 . S
H3316 C3337 0.950 . S
H3317 C3340 0.950 . S
H3318 C3341 0.950 . S
H3319 C3343 0.950 . S
H3320 C3344 0.950 1_556 S
H3321 C3345 0.951 . S
H3322 C3347 0.951 . S
H3323 C3349 0.950 . S
H3324 C3350 0.950 . S
H3325 C3352 0.950 . S
H3326 C3355 0.950 . S
H3327 C3356 0.950 . S
H3328 C3358 0.950 . S
H3329 C3359 0.950 1_554 S
C3330 H3312 0.951 . S
C3330 C3331 1.366 . S
C3330 C3332 1.388 . S
C3331 C3330 1.366 . S
C3331 C3335 1.385 . S
C3332 H3313 0.951 . S
C3332 C3330 1.388 . S
C3332 C3333 1.366 . S
C3333 C3332 1.366 . S
C3333 C3334 1.414 . S
C3333 C3336 1.499 . S
C3334 H3314 0.950 . S
C3334 C3333 1.414 . S
C3334 C3335 1.374 . S
C3335 H3315 0.950 . S
C3335 C3331 1.385 . S
C3335 C3334 1.374 . S
C3336 C3333 1.499 . S
C3336 C3337 1.373 . S
C3336 C3338 1.389 1_556 S
C3337 H3316 0.950 . S
C3337 C3336 1.373 . S
C3337 C3353 1.377 1_565 S
C3338 C3336 1.389 1_554 S
C3338 C3339 1.524 . S
C3338 C3352 1.377 1_565 S
C3339 C3338 1.524 . S
C3339 C3340 1.397 . S
C3339 C3344 1.363 . S
C3340 H3317 0.950 . S
C3340 C3339 1.397 . S
C3340 C3341 1.334 . S
C3341 H3318 0.950 . S
C3341 C3340 1.334 . S
C3341 C3342 1.287 . S
C3342 C3341 1.287 . S
C3342 C3343 1.524 . S
C3342 H3361 0.913 . S
C3343 H3319 0.950 . S
C3343 C3342 1.524 . S
C3343 C3344 1.415 . S
C3344 H3320 0.950 1_554 S
C3344 C3339 1.363 . S
C3344 C3343 1.415 . S
C3345 H3321 0.951 . S
C3345 C3346 1.366 . S
C3345 C3347 1.388 . S
C3346 C3345 1.366 . S
C3346 C3350 1.385 . S
C3347 H3322 0.951 . S
C3347 C3345 1.388 . S
C3347 C3348 1.366 . S
C3348 C3347 1.366 . S
C3348 C3349 1.414 . S
C3348 C3351 1.499 . S
C3349 H3323 0.950 . S
C3349 C3348 1.414 . S
C3349 C3350 1.374 . S
C3350 H3324 0.950 . S
C3350 C3346 1.385 . S
C3350 C3349 1.374 . S
C3351 C3348 1.499 . S
C3351 C3352 1.373 . S
C3351 C3353 1.389 1_554 S
C3352 H3325 0.950 . S
C3352 C3338 1.377 1_545 S
C3352 C3351 1.373 . S
C3353 C3337 1.377 1_545 S
C3353 C3351 1.389 1_556 S
C3353 C3354 1.524 . S
C3354 C3353 1.524 . S
C3354 C3355 1.397 . S
C3354 C3359 1.363 . S
C3355 H3326 0.950 . S
C3355 C3354 1.397 . S
C3355 C3356 1.334 . S
C3356 H3327 0.950 . S
C3356 C3355 1.334 . S
C3356 C3357 1.287 . S
C3357 C3356 1.287 . S
C3357 C3358 1.524 . S
C3357 H3360 0.999 . S
C3358 H3328 0.950 . S
C3358 C3357 1.524 . S
C3358 C3359 1.415 . S
C3359 H3329 0.950 1_556 S
C3359 C3354 1.363 . S
C3359 C3358 1.415 . S
H3360 C3357 0.999 . S
H3361 C3342 0.913 . S
H3362 C3380 0.951 . S
H3363 C3382 0.951 . S
H3364 C3384 0.950 . S
H3365 C3385 0.950 . S
H3366 C3387 0.950 . S
H3367 C3390 0.950 . S
H3368 C3391 0.950 . S
H3369 C3393 0.950 . S
H3370 C3394 0.950 . S
H3371 C3395 0.951 . S
H3372 C3397 0.951 . S
H3373 C3399 0.950 . S
H3374 C3400 0.950 . S
H3375 C3402 0.950 . S
H3376 C3405 0.950 . S
H3377 C3406 0.950 . S
H3378 C3408 0.950 . S
H3379 C3409 0.950 . S
C3380 H3362 0.951 . S
C3380 C3381 1.366 . S
C3380 C3382 1.388 . S
C3381 C3380 1.366 . S
C3381 C3385 1.385 . S
C3382 H3363 0.951 . S
C3382 C3380 1.388 . S
C3382 C3383 1.366 . S
C3383 C3382 1.366 . S
C3383 C3384 1.414 . S
C3383 C3386 1.499 . S
C3384 H3364 0.950 . S
C3384 C3383 1.414 . S
C3384 C3385 1.374 . S
C3385 H3365 0.950 . S
C3385 C3381 1.385 . S
C3385 C3384 1.374 . S
C3386 C3383 1.499 . S
C3386 C3387 1.373 . S
C3386 C3388 1.389 . S
C3387 H3366 0.950 . S
C3387 C3386 1.373 . S
C3387 C3403 1.377 . S
C3388 C3386 1.389 . S
C3388 C3389 1.524 . S
C3388 C3402 1.377 . S
C3389 C3388 1.524 . S
C3389 C3390 1.397 . S
C3389 C3394 1.363 . S
C3390 H3367 0.950 . S
C3390 C3389 1.397 . S
C3390 C3391 1.334 . S
C3391 H3368 0.950 . S
C3391 C3390 1.334 . S
C3391 C3392 1.287 . S
C3392 C3391 1.287 . S
C3392 C3393 1.524 . S
C3392 H3411 0.913 . S
C3393 H3369 0.950 . S
C3393 C3392 1.524 . S
C3393 C3394 1.415 . S
C3394 H3370 0.950 . S
C3394 C3389 1.363 . S
C3394 C3393 1.415 . S
C3395 H3371 0.951 . S
C3395 C3396 1.366 . S
C3395 C3397 1.388 . S
C3396 C3395 1.366 . S
C3396 C3400 1.385 . S
C3397 H3372 0.951 . S
C3397 C3395 1.388 . S
C3397 C3398 1.366 . S
C3398 C3397 1.366 . S
C3398 C3399 1.414 . S
C3398 C3401 1.499 . S
C3399 H3373 0.950 . S
C3399 C3398 1.414 . S
C3399 C3400 1.374 . S
C3400 H3374 0.950 . S
C3400 C3396 1.385 . S
C3400 C3399 1.374 . S
C3401 C3398 1.499 . S
C3401 C3402 1.373 . S
C3401 C3403 1.389 . S
C3402 H3375 0.950 . S
C3402 C3388 1.377 . S
C3402 C3401 1.373 . S
C3403 C3387 1.377 . S
C3403 C3401 1.389 . S
C3403 C3404 1.524 . S
C3404 C3403 1.524 . S
C3404 C3405 1.397 . S
C3404 C3409 1.363 . S
C3405 H3376 0.950 . S
C3405 C3404 1.397 . S
C3405 C3406 1.334 . S
C3406 H3377 0.950 . S
C3406 C3405 1.334 . S
C3406 C3407 1.287 . S
C3407 C3406 1.287 . S
C3407 C3408 1.524 . S
C3407 H3410 0.999 . S
C3408 H3378 0.950 . S
C3408 C3407 1.524 . S
C3408 C3409 1.415 . S
C3409 H3379 0.950 . S
C3409 C3404 1.363 . S
C3409 C3408 1.415 . S
H3410 C3407 0.999 . S
H3411 C3392 0.913 . S
H3412 C3430 0.951 . S
H3413 C3432 0.951 . S
H3414 C3434 0.930 1_554 S
H3415 C3435 0.950 . S
H3416 C3437 0.950 . S
H3417 C3440 0.950 . S
H3418 C3441 0.950 . S
H3419 C3443 0.950 . S
H3420 C3444 0.950 . S
H3421 C3445 0.951 . S
H3422 C3447 0.951 . S
H3423 C3449 0.934 1_556 S
H3424 C3450 0.950 . S
H3425 C3452 0.950 . S
H3426 C3455 0.950 . S
H3427 C3456 0.950 . S
H3428 C3458 0.950 . S
H3429 C3459 0.950 . S
C3430 H3412 0.951 . S
C3430 C3431 1.366 . S
C3430 C3432 1.388 . S
C3431 C3430 1.366 . S
C3431 C3435 1.385 . S
C3432 H3413 0.951 . S
C3432 C3430 1.388 . S
C3432 C3433 1.366 . S
C3433 C3432 1.366 . S
C3433 C3434 1.414 . S
C3433 C3436 1.499 . S
C3434 H3414 0.930 1_556 S
C3434 C3433 1.414 . S
C3434 C3435 1.374 . S
C3435 H3415 0.950 . S
C3435 C3431 1.385 . S
C3435 C3434 1.374 . S
C3436 C3433 1.499 . S
C3436 C3437 1.373 1_556 S
C3436 C3438 1.447 . S
C3437 H3416 0.950 . S
C3437 C3436 1.373 1_554 S
C3437 C3453 1.338 1_455 S
C3438 C3436 1.447 . S
C3438 C3439 1.524 . S
C3438 C3452 1.335 1_455 S
C3439 C3438 1.524 . S
C3439 C3440 1.412 . S
C3439 C3444 1.328 1_455 S
C3440 H3417 0.950 . S
C3440 C3439 1.412 . S
C3440 C3441 1.334 . S
C3441 H3418 0.950 . S
C3441 C3440 1.334 . S
C3441 C3442 1.287 . S
C3442 C3441 1.287 . S
C3442 C3443 1.524 1_455 S
C3442 H3461 0.913 . S
C3443 H3419 0.950 . S
C3443 C3442 1.524 1_655 S
C3443 C3444 1.415 . S
C3444 H3420 0.950 . S
C3444 C3439 1.328 1_655 S
C3444 C3443 1.415 . S
C3445 H3421 0.951 . S
C3445 C3446 1.366 . S
C3445 C3447 1.388 . S
C3446 C3445 1.366 . S
C3446 C3450 1.385 . S
C3447 H3422 0.951 . S
C3447 C3445 1.388 . S
C3447 C3448 1.366 . S
C3448 C3447 1.366 . S
C3448 C3449 1.414 . S
C3448 C3451 1.499 . S
C3449 H3423 0.934 1_554 S
C3449 C3448 1.414 . S
C3449 C3450 1.374 . S
C3450 H3424 0.950 . S
C3450 C3446 1.385 . S
C3450 C3449 1.374 . S
C3451 C3448 1.499 . S
C3451 C3452 1.373 1_554 S
C3451 C3453 1.442 . S
C3452 H3425 0.950 . S
C3452 C3438 1.335 1_655 S
C3452 C3451 1.373 1_556 S
C3453 C3437 1.338 1_655 S
C3453 C3451 1.442 . S
C3453 C3454 1.524 . S
C3454 C3453 1.524 . S
C3454 C3455 1.411 . S
C3454 C3459 1.331 1_655 S
C3455 H3426 0.950 . S
C3455 C3454 1.411 . S
C3455 C3456 1.334 . S
C3456 H3427 0.950 . S
C3456 C3455 1.334 . S
C3456 C3457 1.287 . S
C3457 C3456 1.287 . S
C3457 C3458 1.524 1_655 S
C3457 H3460 0.999 . S
C3458 H3428 0.950 . S
C3458 C3457 1.524 1_455 S
C3458 C3459 1.415 . S
C3459 H3429 0.950 . S
C3459 C3454 1.331 1_455 S
C3459 C3458 1.415 . S
H3460 C3457 0.999 . S
H3461 C3442 0.913 . S
H3462 C3480 0.951 . S
H3463 C3482 0.951 . S
H3464 C3484 0.950 . S
H3465 C3485 0.950 . S
H3466 C3487 0.950 . S
H3467 C3490 0.950 . S
H3468 C3491 0.950 . S
H3469 C3493 0.950 . S
H3470 C3494 0.950 . S
H3471 C3495 0.951 . S
H3472 C3497 0.951 . S
H3473 C3499 0.950 . S
H3474 C3500 0.950 . S
H3475 C3502 0.950 . S
H3476 C3505 0.950 . S
H3477 C3506 0.950 . S
H3478 C3508 0.950 . S
H3479 C3509 0.950 . S
C3480 H3462 0.951 . S
C3480 C3481 1.366 . S
C3480 C3482 1.388 . S
C3481 C3480 1.366 . S
C3481 C3485 1.385 . S
C3482 H3463 0.951 . S
C3482 C3480 1.388 . S
C3482 C3483 1.366 . S
C3483 C3482 1.366 . S
C3483 C3484 1.414 . S
C3483 C3486 1.499 . S
C3484 H3464 0.950 . S
C3484 C3483 1.414 . S
C3484 C3485 1.374 . S
C3485 H3465 0.950 . S
C3485 C3481 1.385 . S
C3485 C3484 1.374 . S
C3486 C3483 1.499 . S
C3486 C3487 1.373 . S
C3486 C3488 1.389 . S
C3487 H3466 0.950 . S
C3487 C3486 1.373 . S
C3487 C3503 1.377 1_545 S
C3488 C3486 1.389 . S
C3488 C3489 1.524 . S
C3488 C3502 1.377 1_545 S
C3489 C3488 1.524 . S
C3489 C3490 1.397 . S
C3489 C3494 1.363 . S
C3490 H3467 0.950 . S
C3490 C3489 1.397 . S
C3490 C3491 1.334 . S
C3491 H3468 0.950 . S
C3491 C3490 1.334 . S
C3491 C3492 1.287 . S
C3492 C3491 1.287 . S
C3492 C3493 1.524 . S
C3492 H3511 0.913 . S
C3493 H3469 0.950 . S
C3493 C3492 1.524 . S
C3493 C3494 1.415 . S
C3494 H3470 0.950 . S
C3494 C3489 1.363 . S
C3494 C3493 1.415 . S
C3495 H3471 0.951 . S
C3495 C3496 1.366 . S
C3495 C3497 1.388 . S
C3496 C3495 1.366 . S
C3496 C3500 1.385 . S
C3497 H3472 0.951 . S
C3497 C3495 1.388 . S
C3497 C3498 1.366 . S
C3498 C3497 1.366 . S
C3498 C3499 1.414 . S
C3498 C3501 1.499 . S
C3499 H3473 0.950 . S
C3499 C3498 1.414 . S
C3499 C3500 1.374 . S
C3500 H3474 0.950 . S
C3500 C3496 1.385 . S
C3500 C3499 1.374 . S
C3501 C3498 1.499 . S
C3501 C3502 1.373 . S
C3501 C3503 1.389 . S
C3502 H3475 0.950 . S
C3502 C3488 1.377 1_565 S
C3502 C3501 1.373 . S
C3503 C3487 1.377 1_565 S
C3503 C3501 1.389 . S
C3503 C3504 1.524 . S
C3504 C3503 1.524 . S
C3504 C3505 1.397 . S
C3504 C3509 1.363 . S
C3505 H3476 0.950 . S
C3505 C3504 1.397 . S
C3505 C3506 1.334 . S
C3506 H3477 0.950 . S
C3506 C3505 1.334 . S
C3506 C3507 1.287 . S
C3507 C3506 1.287 . S
C3507 C3508 1.524 . S
C3507 H3510 0.999 . S
C3508 H3478 0.950 . S
C3508 C3507 1.524 . S
C3508 C3509 1.415 . S
C3509 H3479 0.950 . S
C3509 C3504 1.363 . S
C3509 C3508 1.415 . S
H3510 C3507 0.999 . S
H3511 C3492 0.913 . S
H3512 C3530 0.951 . S
H3513 C3532 0.951 . S
H3514 C3534 0.950 . S
H3515 C3535 0.950 . S
H3516 C3537 0.950 . S
H3517 C3540 0.950 . S
H3518 C3541 0.950 . S
H3519 C3543 0.954 . S
H3520 C3544 0.953 . S
H3521 C3545 0.951 . S
H3522 C3547 0.951 . S
H3523 C3549 0.950 . S
H3524 C3550 0.950 . S
H3525 C3552 0.950 . S
H3526 C3555 0.950 . S
H3527 C3556 0.950 . S
H3528 C3558 0.954 . S
H3529 C3559 0.953 . S
C3530 H3512 0.951 . S
C3530 C3531 1.366 . S
C3530 C3532 1.388 . S
C3531 C3530 1.366 . S
C3531 C3535 1.385 . S
C3532 H3513 0.951 . S
C3532 C3530 1.388 . S
C3532 C3533 1.366 . S
C3533 C3532 1.366 . S
C3533 C3534 1.414 . S
C3533 C3536 1.499 . S
C3534 H3514 0.950 . S
C3534 C3533 1.414 . S
C3534 C3535 1.374 . S
C3535 H3515 0.950 . S
C3535 C3531 1.385 . S
C3535 C3534 1.374 . S
C3536 C3533 1.499 . S
C3536 C3537 1.373 . S
C3536 C3538 1.379 1_554 S
C3537 H3516 0.950 . S
C3537 C3536 1.373 . S
C3537 C3553 1.387 . S
C3538 C3536 1.379 1_556 S
C3538 C3539 1.527 . S
C3538 C3552 1.387 . S
C3539 C3538 1.527 . S
C3539 C3540 1.397 . S
C3539 C3544 1.362 1_556 S
C3540 H3517 0.950 . S
C3540 C3539 1.397 . S
C3540 C3541 1.334 . S
C3541 H3518 0.950 . S
C3541 C3540 1.334 . S
C3541 C3542 1.287 . S
C3542 C3541 1.287 . S
C3542 C3543 1.524 . S
C3542 H3561 0.913 . S
C3543 H3519 0.954 . S
C3543 C3542 1.524 . S
C3543 C3544 1.414 1_556 S
C3544 H3520 0.953 . S
C3544 C3539 1.362 1_554 S
C3544 C3543 1.414 1_554 S
C3545 H3521 0.951 . S
C3545 C3546 1.366 . S
C3545 C3547 1.388 . S
C3546 C3545 1.366 . S
C3546 C3550 1.385 . S
C3547 H3522 0.951 . S
C3547 C3545 1.388 . S
C3547 C3548 1.366 . S
C3548 C3547 1.366 . S
C3548 C3549 1.414 . S
C3548 C3551 1.499 . S
C3549 H3523 0.950 . S
C3549 C3548 1.414 . S
C3549 C3550 1.374 . S
C3550 H3524 0.950 . S
C3550 C3546 1.385 . S
C3550 C3549 1.374 . S
C3551 C3548 1.499 . S
C3551 C3552 1.373 . S
C3551 C3553 1.378 1_556 S
C3552 H3525 0.950 . S
C3552 C3538 1.387 . S
C3552 C3551 1.373 . S
C3553 C3537 1.387 . S
C3553 C3551 1.378 1_554 S
C3553 C3554 1.527 . S
C3554 C3553 1.527 . S
C3554 C3555 1.397 . S
C3554 C3559 1.362 1_554 S
C3555 H3526 0.950 . S
C3555 C3554 1.397 . S
C3555 C3556 1.334 . S
C3556 H3527 0.950 . S
C3556 C3555 1.334 . S
C3556 C3557 1.287 . S
C3557 C3556 1.287 . S
C3557 C3558 1.524 . S
C3557 H3560 0.999 . S
C3558 H3528 0.954 . S
C3558 C3557 1.524 . S
C3558 C3559 1.414 1_554 S
C3559 H3529 0.953 . S
C3559 C3554 1.362 1_556 S
C3559 C3558 1.414 1_556 S
H3560 C3557 0.999 . S
H3561 C3542 0.913 . S
H3562 C3580 0.951 . S
H3563 C3582 0.951 . S
H3564 C3584 0.950 . S
H3565 C3585 0.950 . S
H3566 C3587 0.950 . S
H3567 C3590 0.950 . S
H3568 C3591 0.950 . S
H3569 C3593 0.950 . S
H3570 C3594 0.950 . S
H3571 C3595 0.951 . S
H3572 C3597 0.951 . S
H3573 C3599 0.950 . S
H3574 C3600 0.950 . S
H3575 C3602 0.950 . S
H3576 C3605 0.950 . S
H3577 C3606 0.950 . S
H3578 C3608 0.950 . S
H3579 C3609 0.950 . S
C3580 H3562 0.951 . S
C3580 C3581 1.366 . S
C3580 C3582 1.388 . S
C3581 C3580 1.366 . S
C3581 C3585 1.385 . S
C3582 H3563 0.951 . S
C3582 C3580 1.388 . S
C3582 C3583 1.366 . S
C3583 C3582 1.366 . S
C3583 C3584 1.414 . S
C3583 C3586 1.499 . S
C3584 H3564 0.950 . S
C3584 C3583 1.414 . S
C3584 C3585 1.374 . S
C3585 H3565 0.950 . S
C3585 C3581 1.385 . S
C3585 C3584 1.374 . S
C3586 C3583 1.499 . S
C3586 C3587 1.381 . S
C3586 C3588 1.389 . S
C3587 H3566 0.950 . S
C3587 C3586 1.381 . S
C3587 C3603 1.370 1_455 S
C3588 C3586 1.389 . S
C3588 C3589 1.524 . S
C3588 C3602 1.367 1_455 S
C3589 C3588 1.524 . S
C3589 C3590 1.397 . S
C3589 C3594 1.363 . S
C3590 H3567 0.950 . S
C3590 C3589 1.397 . S
C3590 C3591 1.334 . S
C3591 H3568 0.950 . S
C3591 C3590 1.334 . S
C3591 C3592 1.287 . S
C3592 C3591 1.287 . S
C3592 C3593 1.524 . S
C3592 H3611 0.913 . S
C3593 H3569 0.950 . S
C3593 C3592 1.524 . S
C3593 C3594 1.415 . S
C3594 H3570 0.950 . S
C3594 C3589 1.363 . S
C3594 C3593 1.415 . S
C3595 H3571 0.951 . S
C3595 C3596 1.366 . S
C3595 C3597 1.388 . S
C3596 C3595 1.366 . S
C3596 C3600 1.385 . S
C3597 H3572 0.951 . S
C3597 C3595 1.388 . S
C3597 C3598 1.366 . S
C3598 C3597 1.366 . S
C3598 C3599 1.414 . S
C3598 C3601 1.499 . S
C3599 H3573 0.950 . S
C3599 C3598 1.414 . S
C3599 C3600 1.374 . S
C3600 H3574 0.950 . S
C3600 C3596 1.385 . S
C3600 C3599 1.374 . S
C3601 C3598 1.499 . S
C3601 C3602 1.384 . S
C3601 C3603 1.389 . S
C3602 H3575 0.950 . S
C3602 C3588 1.367 1_655 S
C3602 C3601 1.384 . S
C3603 C3587 1.370 1_655 S
C3603 C3601 1.389 . S
C3603 C3604 1.524 . S
C3604 C3603 1.524 . S
C3604 C3605 1.397 . S
C3604 C3609 1.363 . S
C3605 H3576 0.950 . S
C3605 C3604 1.397 . S
C3605 C3606 1.334 . S
C3606 H3577 0.950 . S
C3606 C3605 1.334 . S
C3606 C3607 1.287 . S
C3607 C3606 1.287 . S
C3607 C3608 1.524 . S
C3607 H3610 0.999 . S
C3608 H3578 0.950 . S
C3608 C3607 1.524 . S
C3608 C3609 1.415 . S
C3609 H3579 0.950 . S
C3609 C3604 1.363 . S
C3609 C3608 1.415 . S
H3610 C3607 0.999 . S
H3611 C3592 0.913 . S
H3612 C3630 0.951 . S
H3613 C3632 0.939 1_554 S
H3614 C3634 0.950 . S
H3615 C3635 0.950 . S
H3616 C3637 0.950 . S
H3617 C3640 0.950 . S
H3618 C3641 0.950 . S
H3619 C3643 0.950 . S
H3620 C3644 0.950 . S
H3621 C3645 0.951 . S
H3622 C3647 0.935 1_556 S
H3623 C3649 0.950 . S
H3624 C3650 0.950 . S
H3625 C3652 0.950 . S
H3626 C3655 0.950 . S
H3627 C3656 0.950 . S
H3628 C3658 0.950 . S
H3629 C3659 0.950 . S
C3630 H3612 0.951 . S
C3630 C3631 1.366 . S
C3630 C3632 1.388 . S
C3631 C3630 1.366 . S
C3631 C3635 1.385 . S
C3632 H3613 0.939 1_556 S
C3632 C3630 1.388 . S
C3632 C3633 1.366 . S
C3633 C3632 1.366 . S
C3633 C3634 1.414 . S
C3633 C3636 1.499 . S
C3634 H3614 0.950 . S
C3634 C3633 1.414 . S
C3634 C3635 1.374 . S
C3635 H3615 0.950 . S
C3635 C3631 1.385 . S
C3635 C3634 1.374 . S
C3636 C3633 1.499 . S
C3636 C3637 1.373 . S
C3636 C3638 1.389 1_556 S
C3637 H3616 0.950 . S
C3637 C3636 1.373 . S
C3637 C3653 1.377 1_565 S
C3638 C3636 1.389 1_554 S
C3638 C3639 1.524 . S
C3638 C3652 1.377 1_565 S
C3639 C3638 1.524 . S
C3639 C3640 1.397 1_554 S
C3639 C3644 1.363 . S
C3640 H3617 0.950 . S
C3640 C3639 1.397 1_556 S
C3640 C3641 1.334 . S
C3641 H3618 0.950 . S
C3641 C3640 1.334 . S
C3641 C3642 1.287 1_556 S
C3642 C3641 1.287 1_554 S
C3642 C3643 1.524 . S
C3642 H3661 0.913 . S
C3643 H3619 0.950 . S
C3643 C3642 1.524 . S
C3643 C3644 1.415 . S
C3644 H3620 0.950 . S
C3644 C3639 1.363 . S
C3644 C3643 1.415 . S
C3645 H3621 0.951 . S
C3645 C3646 1.366 . S
C3645 C3647 1.388 . S
C3646 C3645 1.366 . S
C3646 C3650 1.385 . S
C3647 H3622 0.935 1_554 S
C3647 C3645 1.388 . S
C3647 C3648 1.366 . S
C3648 C3647 1.366 . S
C3648 C3649 1.414 . S
C3648 C3651 1.499 . S
C3649 H3623 0.950 . S
C3649 C3648 1.414 . S
C3649 C3650 1.374 . S
C3650 H3624 0.950 . S
C3650 C3646 1.385 . S
C3650 C3649 1.374 . S
C3651 C3648 1.499 . S
C3651 C3652 1.373 . S
C3651 C3653 1.389 1_554 S
C3652 H3625 0.950 . S
C3652 C3638 1.377 1_545 S
C3652 C3651 1.373 . S
C3653 C3637 1.377 1_545 S
C3653 C3651 1.389 1_556 S
C3653 C3654 1.524 . S
C3654 C3653 1.524 . S
C3654 C3655 1.397 1_556 S
C3654 C3659 1.363 . S
C3655 H3626 0.950 . S
C3655 C3654 1.397 1_554 S
C3655 C3656 1.334 . S
C3656 H3627 0.950 . S
C3656 C3655 1.334 . S
C3656 C3657 1.287 1_554 S
C3657 C3656 1.287 1_556 S
C3657 C3658 1.524 . S
C3657 H3660 0.999 . S
C3658 H3628 0.950 . S
C3658 C3657 1.524 . S
C3658 C3659 1.415 . S
C3659 H3629 0.950 . S
C3659 C3654 1.363 . S
C3659 C3658 1.415 . S
H3660 C3657 0.999 . S
H3661 C3642 0.913 . S
H3662 C3680 0.951 . S
H3663 C3682 0.951 . S
H3664 C3684 0.950 . S
H3665 C3685 0.950 . S
H3666 C3687 0.950 . S
H3667 C3690 0.950 . S
H3668 C3691 0.950 . S
H3669 C3693 0.950 . S
H3670 C3694 0.950 . S
H3671 C3695 0.951 . S
H3672 C3697 0.951 . S
H3673 C3699 0.950 . S
H3674 C3700 0.950 . S
H3675 C3702 0.950 . S
H3676 C3705 0.950 . S
H3677 C3706 0.950 . S
H3678 C3708 0.950 . S
H3679 C3709 0.950 . S
C3680 H3662 0.951 . S
C3680 C3681 1.366 . S
C3680 C3682 1.388 . S
C3681 C3680 1.366 . S
C3681 C3685 1.385 . S
C3682 H3663 0.951 . S
C3682 C3680 1.388 . S
C3682 C3683 1.366 . S
C3683 C3682 1.366 . S
C3683 C3684 1.414 . S
C3683 C3686 1.499 . S
C3684 H3664 0.950 . S
C3684 C3683 1.414 . S
C3684 C3685 1.374 . S
C3685 H3665 0.950 . S
C3685 C3681 1.385 . S
C3685 C3684 1.374 . S
C3686 C3683 1.499 . S
C3686 C3687 1.373 . S
C3686 C3688 1.389 . S
C3687 H3666 0.950 . S
C3687 C3686 1.373 . S
C3687 C3703 1.377 . S
C3688 C3686 1.389 . S
C3688 C3689 1.524 . S
C3688 C3702 1.377 . S
C3689 C3688 1.524 . S
C3689 C3690 1.397 . S
C3689 C3694 1.363 . S
C3690 H3667 0.950 . S
C3690 C3689 1.397 . S
C3690 C3691 1.334 . S
C3691 H3668 0.950 . S
C3691 C3690 1.334 . S
C3691 C3692 1.287 . S
C3692 C3691 1.287 . S
C3692 C3693 1.524 . S
C3692 H3711 0.913 . S
C3693 H3669 0.950 . S
C3693 C3692 1.524 . S
C3693 C3694 1.415 . S
C3694 H3670 0.950 . S
C3694 C3689 1.363 . S
C3694 C3693 1.415 . S
C3695 H3671 0.951 . S
C3695 C3696 1.366 . S
C3695 C3697 1.388 . S
C3696 C3695 1.366 . S
C3696 C3700 1.385 . S
C3697 H3672 0.951 . S
C3697 C3695 1.388 . S
C3697 C3698 1.366 . S
C3698 C3697 1.366 . S
C3698 C3699 1.414 . S
C3698 C3701 1.499 . S
C3699 H3673 0.950 . S
C3699 C3698 1.414 . S
C3699 C3700 1.374 . S
C3700 H3674 0.950 . S
C3700 C3696 1.385 . S
C3700 C3699 1.374 . S
C3701 C3698 1.499 . S
C3701 C3702 1.373 . S
C3701 C3703 1.389 . S
C3702 H3675 0.950 . S
C3702 C3688 1.377 . S
C3702 C3701 1.373 . S
C3703 C3687 1.377 . S
C3703 C3701 1.389 . S
C3703 C3704 1.524 . S
C3704 C3703 1.524 . S
C3704 C3705 1.397 . S
C3704 C3709 1.363 . S
C3705 H3676 0.950 . S
C3705 C3704 1.397 . S
C3705 C3706 1.334 . S
C3706 H3677 0.950 . S
C3706 C3705 1.334 . S
C3706 C3707 1.287 . S
C3707 C3706 1.287 . S
C3707 C3708 1.524 . S
C3707 H3710 0.999 . S
C3708 H3678 0.950 . S
C3708 C3707 1.524 . S
C3708 C3709 1.415 . S
C3709 H3679 0.950 . S
C3709 C3704 1.363 . S
C3709 C3708 1.415 . S
H3710 C3707 0.999 . S
H3711 C3692 0.913 . S
H3712 C3730 0.951 . S
H3713 C3732 0.951 . S
H3714 C3734 0.950 . S
H3715 C3735 0.950 . S
H3716 C3737 0.950 . S
H3717 C3740 0.950 . S
H3718 C3741 0.950 . S
H3719 C3743 0.950 . S
H3720 C3744 0.950 . S
H3721 C3745 0.951 . S
H3722 C3747 0.951 . S
H3723 C3749 0.950 . S
H3724 C3750 0.950 . S
H3725 C3752 0.950 . S
H3726 C3755 0.950 . S
H3727 C3756 0.950 . S
H3728 C3758 0.950 . S
H3729 C3759 0.950 . S
C3730 H3712 0.951 . S
C3730 C3731 1.366 . S
C3730 C3732 1.388 . S
C3731 C3730 1.366 . S
C3731 C3735 1.385 . S
C3732 H3713 0.951 . S
C3732 C3730 1.388 . S
C3732 C3733 1.366 . S
C3733 C3732 1.366 . S
C3733 C3734 1.414 . S
C3733 C3736 1.499 . S
C3734 H3714 0.950 . S
C3734 C3733 1.414 . S
C3734 C3735 1.374 . S
C3735 H3715 0.950 . S
C3735 C3731 1.385 . S
C3735 C3734 1.374 . S
C3736 C3733 1.499 . S
C3736 C3737 1.373 . S
C3736 C3738 1.389 1_554 S
C3737 H3716 0.950 . S
C3737 C3736 1.373 . S
C3737 C3753 1.377 1_655 S
C3738 C3736 1.389 1_556 S
C3738 C3739 1.524 . S
C3738 C3752 1.377 1_655 S
C3739 C3738 1.524 . S
C3739 C3740 1.397 . S
C3739 C3744 1.363 . S
C3740 H3717 0.950 . S
C3740 C3739 1.397 . S
C3740 C3741 1.334 . S
C3741 H3718 0.950 . S
C3741 C3740 1.334 . S
C3741 C3742 1.287 . S
C3742 C3741 1.287 . S
C3742 C3743 1.524 . S
C3742 H3761 0.913 . S
C3743 H3719 0.950 . S
C3743 C3742 1.524 . S
C3743 C3744 1.415 . S
C3744 H3720 0.950 . S
C3744 C3739 1.363 . S
C3744 C3743 1.415 . S
C3745 H3721 0.951 . S
C3745 C3746 1.366 . S
C3745 C3747 1.388 . S
C3746 C3745 1.366 . S
C3746 C3750 1.385 . S
C3747 H3722 0.951 . S
C3747 C3745 1.388 . S
C3747 C3748 1.366 . S
C3748 C3747 1.366 . S
C3748 C3749 1.414 . S
C3748 C3751 1.499 . S
C3749 H3723 0.950 . S
C3749 C3748 1.414 . S
C3749 C3750 1.374 . S
C3750 H3724 0.950 . S
C3750 C3746 1.385 . S
C3750 C3749 1.374 . S
C3751 C3748 1.499 . S
C3751 C3752 1.373 . S
C3751 C3753 1.389 1_556 S
C3752 H3725 0.950 . S
C3752 C3738 1.377 1_455 S
C3752 C3751 1.373 . S
C3753 C3737 1.377 1_455 S
C3753 C3751 1.389 1_554 S
C3753 C3754 1.524 . S
C3754 C3753 1.524 . S
C3754 C3755 1.397 . S
C3754 C3759 1.363 . S
C3755 H3726 0.950 . S
C3755 C3754 1.397 . S
C3755 C3756 1.334 . S
C3756 H3727 0.950 . S
C3756 C3755 1.334 . S
C3756 C3757 1.287 . S
C3757 C3756 1.287 . S
C3757 C3758 1.524 . S
C3757 H3760 0.999 . S
C3758 H3728 0.950 . S
C3758 C3757 1.524 . S
C3758 C3759 1.415 . S
C3759 H3729 0.950 . S
C3759 C3754 1.363 . S
C3759 C3758 1.415 . S
H3760 C3757 0.999 . S
H3761 C3742 0.913 . S
H3762 C3780 0.951 . S
H3763 C3782 0.951 . S
H3764 C3784 0.950 . S
H3765 C3785 0.950 . S
H3766 C3787 0.950 . S
H3767 C3790 0.950 . S
H3768 C3791 0.950 . S
H3769 C3793 0.950 1_545 S
H3770 C3794 0.950 . S
H3771 C3795 0.951 . S
H3772 C3797 0.951 . S
H3773 C3799 0.950 . S
H3774 C3800 0.950 . S
H3775 C3802 0.950 . S
H3776 C3805 0.950 . S
H3777 C3806 0.950 . S
H3778 C3808 0.950 1_565 S
H3779 C3809 0.950 . S
C3780 H3762 0.951 . S
C3780 C3781 1.366 . S
C3780 C3782 1.388 . S
C3781 C3780 1.366 . S
C3781 C3785 1.385 . S
C3782 H3763 0.951 . S
C3782 C3780 1.388 . S
C3782 C3783 1.366 . S
C3783 C3782 1.366 . S
C3783 C3784 1.414 . S
C3783 C3786 1.499 . S
C3784 H3764 0.950 . S
C3784 C3783 1.414 . S
C3784 C3785 1.374 . S
C3785 H3765 0.950 . S
C3785 C3781 1.385 . S
C3785 C3784 1.374 . S
C3786 C3783 1.499 . S
C3786 C3787 1.373 . S
C3786 C3788 1.389 . S
C3787 H3766 0.950 . S
C3787 C3786 1.373 . S
C3787 C3803 1.377 1_565 S
C3788 C3786 1.389 . S
C3788 C3789 1.524 . S
C3788 C3802 1.377 1_565 S
C3789 C3788 1.524 . S
C3789 C3790 1.397 . S
C3789 C3794 1.363 1_565 S
C3790 H3767 0.950 . S
C3790 C3789 1.397 . S
C3790 C3791 1.334 . S
C3791 H3768 0.950 . S
C3791 C3790 1.334 . S
C3791 C3792 1.287 . S
C3792 C3791 1.287 . S
C3792 C3793 1.524 . S
C3792 H3811 0.913 . S
C3793 H3769 0.950 1_565 S
C3793 C3792 1.524 . S
C3793 C3794 1.415 1_565 S
C3794 H3770 0.950 . S
C3794 C3789 1.363 1_545 S
C3794 C3793 1.415 1_545 S
C3795 H3771 0.951 . S
C3795 C3796 1.366 . S
C3795 C3797 1.388 . S
C3796 C3795 1.366 . S
C3796 C3800 1.385 . S
C3797 H3772 0.951 . S
C3797 C3795 1.388 . S
C3797 C3798 1.366 . S
C3798 C3797 1.366 . S
C3798 C3799 1.414 . S
C3798 C3801 1.499 . S
C3799 H3773 0.950 . S
C3799 C3798 1.414 . S
C3799 C3800 1.374 . S
C3800 H3774 0.950 . S
C3800 C3796 1.385 . S
C3800 C3799 1.374 . S
C3801 C3798 1.499 . S
C3801 C3802 1.373 . S
C3801 C3803 1.389 . S
C3802 H3775 0.950 . S
C3802 C3788 1.377 1_545 S
C3802 C3801 1.373 . S
C3803 C3787 1.377 1_545 S
C3803 C3801 1.389 . S
C3803 C3804 1.524 . S
C3804 C3803 1.524 . S
C3804 C3805 1.397 . S
C3804 C3809 1.363 1_545 S
C3805 H3776 0.950 . S
C3805 C3804 1.397 . S
C3805 C3806 1.334 . S
C3806 H3777 0.950 . S
C3806 C3805 1.334 . S
C3806 C3807 1.287 . S
C3807 C3806 1.287 . S
C3807 C3808 1.524 . S
C3807 H3810 0.999 . S
C3808 H3778 0.950 1_545 S
C3808 C3807 1.524 . S
C3808 C3809 1.415 1_545 S
C3809 H3779 0.950 . S
C3809 C3804 1.363 1_565 S
C3809 C3808 1.415 1_565 S
H3810 C3807 0.999 . S
H3811 C3792 0.913 . S
H3812 C3830 0.951 . S
H3813 C3832 1.004 . S
H3814 C3834 0.950 . S
H3815 C3835 0.950 . S
H3816 C3837 0.950 . S
H3817 C3840 0.950 . S
H3818 C3841 0.950 . S
H3819 C3843 0.950 . S
H3820 C3844 0.950 . S
H3821 C3845 0.951 . S
H3822 C3847 1.004 . S
H3823 C3849 0.950 . S
H3824 C3850 0.950 . S
H3825 C3852 0.950 . S
H3826 C3855 0.950 . S
H3827 C3856 0.950 . S
H3828 C3858 0.950 . S
H3829 C3859 0.950 . S
C3830 H3812 0.951 . S
C3830 C3831 1.366 . S
C3830 C3832 1.388 . S
C3831 C3830 1.366 . S
C3831 C3835 1.385 . S
C3832 H3813 1.004 . S
C3832 C3830 1.388 . S
C3832 C3833 1.366 . S
C3833 C3832 1.366 . S
C3833 C3834 1.414 . S
C3833 C3836 1.499 . S
C3834 H3814 0.950 . S
C3834 C3833 1.414 . S
C3834 C3835 1.374 . S
C3835 H3815 0.950 . S
C3835 C3831 1.385 . S
C3835 C3834 1.374 . S
C3836 C3833 1.499 . S
C3836 C3837 1.373 . S
C3836 C3838 1.394 1_554 S
C3837 H3816 0.950 . S
C3837 C3836 1.373 . S
C3837 C3853 1.381 1_554 S
C3838 C3836 1.394 1_556 S
C3838 C3839 1.524 1_556 S
C3838 C3852 1.372 . S
C3839 C3838 1.524 1_554 S
C3839 C3840 1.402 . S
C3839 C3844 1.358 1_554 S
C3840 H3817 0.950 . S
C3840 C3839 1.402 . S
C3840 C3841 1.334 . S
C3841 H3818 0.950 . S
C3841 C3840 1.334 . S
C3841 C3842 1.287 . S
C3842 C3841 1.287 . S
C3842 C3843 1.524 1_554 S
C3842 H3861 0.913 . S
C3843 H3819 0.950 . S
C3843 C3842 1.524 1_556 S
C3843 C3844 1.415 . S
C3844 H3820 0.950 . S
C3844 C3839 1.358 1_556 S
C3844 C3843 1.415 . S
C3845 H3821 0.951 . S
C3845 C3846 1.366 . S
C3845 C3847 1.388 . S
C3846 C3845 1.366 . S
C3846 C3850 1.385 . S
C3847 H3822 1.004 . S
C3847 C3845 1.388 . S
C3847 C3848 1.366 . S
C3848 C3847 1.366 . S
C3848 C3849 1.414 . S
C3848 C3851 1.499 . S
C3849 H3823 0.950 . S
C3849 C3848 1.414 . S
C3849 C3850 1.374 . S
C3850 H3824 0.950 . S
C3850 C3846 1.385 . S
C3850 C3849 1.374 . S
C3851 C3848 1.499 . S
C3851 C3852 1.373 . S
C3851 C3853 1.385 . S
C3852 H3825 0.950 . S
C3852 C3838 1.372 . S
C3852 C3851 1.373 . S
C3853 C3837 1.381 1_556 S
C3853 C3851 1.385 . S
C3853 C3854 1.524 . S
C3854 C3853 1.524 . S
C3854 C3855 1.402 . S
C3854 C3859 1.357 1_556 S
C3855 H3826 0.950 . S
C3855 C3854 1.402 . S
C3855 C3856 1.334 . S
C3856 H3827 0.950 . S
C3856 C3855 1.334 . S
C3856 C3857 1.287 . S
C3857 C3856 1.287 . S
C3857 C3858 1.524 1_556 S
C3857 H3860 0.999 . S
C3858 H3828 0.950 . S
C3858 C3857 1.524 1_554 S
C3858 C3859 1.415 . S
C3859 H3829 0.950 . S
C3859 C3854 1.357 1_554 S
C3859 C3858 1.415 . S
H3860 C3857 0.999 . S
H3861 C3842 0.913 . S
H3862 C3880 0.951 . S
H3863 C3882 0.951 . S
H3864 C3884 0.950 . S
H3865 C3885 0.950 . S
H3866 C3887 0.950 . S
H3867 C3890 0.950 . S
H3868 C3891 0.950 . S
H3869 C3893 0.950 . S
H3870 C3894 0.950 1_655 S
H3871 C3895 0.951 . S
H3872 C3897 0.951 . S
H3873 C3899 0.950 . S
H3874 C3900 0.950 . S
H3875 C3902 0.950 . S
H3876 C3905 0.950 . S
H3877 C3906 0.950 . S
H3878 C3908 0.950 . S
H3879 C3909 0.950 1_455 S
C3880 H3862 0.951 . S
C3880 C3881 1.366 . S
C3880 C3882 1.388 . S
C3881 C3880 1.366 . S
C3881 C3885 1.385 . S
C3882 H3863 0.951 . S
C3882 C3880 1.388 . S
C3882 C3883 1.366 . S
C3883 C3882 1.366 . S
C3883 C3884 1.414 . S
C3883 C3886 1.499 . S
C3884 H3864 0.950 . S
C3884 C3883 1.414 . S
C3884 C3885 1.374 . S
C3885 H3865 0.950 . S
C3885 C3881 1.385 . S
C3885 C3884 1.374 . S
C3886 C3883 1.499 . S
C3886 C3887 1.373 . S
C3886 C3888 1.389 . S
C3887 H3866 0.950 . S
C3887 C3886 1.373 . S
C3887 C3903 1.377 1_455 S
C3888 C3886 1.389 . S
C3888 C3889 1.524 . S
C3888 C3902 1.377 1_455 S
C3889 C3888 1.524 . S
C3889 C3890 1.397 . S
C3889 C3894 1.363 . S
C3890 H3867 0.950 . S
C3890 C3889 1.397 . S
C3890 C3891 1.334 . S
C3891 H3868 0.950 . S
C3891 C3890 1.334 . S
C3891 C3892 1.287 . S
C3892 C3891 1.287 . S
C3892 C3893 1.524 . S
C3892 H3911 0.913 . S
C3893 H3869 0.950 . S
C3893 C3892 1.524 . S
C3893 C3894 1.415 . S
C3894 H3870 0.950 1_455 S
C3894 C3889 1.363 . S
C3894 C3893 1.415 . S
C3895 H3871 0.951 . S
C3895 C3896 1.366 . S
C3895 C3897 1.388 . S
C3896 C3895 1.366 . S
C3896 C3900 1.385 . S
C3897 H3872 0.951 . S
C3897 C3895 1.388 . S
C3897 C3898 1.366 . S
C3898 C3897 1.366 . S
C3898 C3899 1.414 . S
C3898 C3901 1.499 . S
C3899 H3873 0.950 . S
C3899 C3898 1.414 . S
C3899 C3900 1.374 . S
C3900 H3874 0.950 . S
C3900 C3896 1.385 . S
C3900 C3899 1.374 . S
C3901 C3898 1.499 . S
C3901 C3902 1.373 . S
C3901 C3903 1.389 . S
C3902 H3875 0.950 . S
C3902 C3888 1.377 1_655 S
C3902 C3901 1.373 . S
C3903 C3887 1.377 1_655 S
C3903 C3901 1.389 . S
C3903 C3904 1.524 . S
C3904 C3903 1.524 . S
C3904 C3905 1.397 . S
C3904 C3909 1.363 . S
C3905 H3876 0.950 . S
C3905 C3904 1.397 . S
C3905 C3906 1.334 . S
C3906 H3877 0.950 . S
C3906 C3905 1.334 . S
C3906 C3907 1.287 . S
C3907 C3906 1.287 . S
C3907 C3908 1.524 . S
C3907 H3910 0.999 . S
C3908 H3878 0.950 . S
C3908 C3907 1.524 . S
C3908 C3909 1.415 . S
C3909 H3879 0.950 1_655 S
C3909 C3904 1.363 . S
C3909 C3908 1.415 . S
H3910 C3907 0.999 . S
H3911 C3892 0.913 . S
H3912 C3930 0.951 . S
H3913 C3932 0.951 . S
H3914 C3934 0.950 . S
H3915 C3935 0.950 . S
H3916 C3937 0.950 . S
H3917 C3940 0.950 . S
H3918 C3941 0.950 . S
H3919 C3943 0.950 . S
H3920 C3944 0.950 . S
H3921 C3945 0.951 . S
H3922 C3947 0.951 . S
H3923 C3949 0.950 . S
H3924 C3950 0.950 . S
H3925 C3952 0.950 . S
H3926 C3955 0.950 . S
H3927 C3956 0.950 . S
H3928 C3958 0.950 . S
H3929 C3959 0.950 . S
C3930 H3912 0.951 . S
C3930 C3931 1.366 . S
C3930 C3932 1.388 . S
C3931 C3930 1.366 . S
C3931 C3935 1.385 . S
C3932 H3913 0.951 . S
C3932 C3930 1.388 . S
C3932 C3933 1.366 . S
C3933 C3932 1.366 . S
C3933 C3934 1.414 . S
C3933 C3936 1.499 . S
C3934 H3914 0.950 . S
C3934 C3933 1.414 . S
C3934 C3935 1.374 . S
C3935 H3915 0.950 . S
C3935 C3931 1.385 . S
C3935 C3934 1.374 . S
C3936 C3933 1.499 . S
C3936 C3937 1.373 . S
C3936 C3938 1.389 . S
C3937 H3916 0.950 . S
C3937 C3936 1.373 . S
C3937 C3953 1.377 . S
C3938 C3936 1.389 . S
C3938 C3939 1.524 . S
C3938 C3952 1.377 . S
C3939 C3938 1.524 . S
C3939 C3940 1.397 . S
C3939 C3944 1.363 . S
C3940 H3917 0.950 . S
C3940 C3939 1.397 . S
C3940 C3941 1.334 . S
C3941 H3918 0.950 . S
C3941 C3940 1.334 . S
C3941 C3942 1.287 . S
C3942 C3941 1.287 . S
C3942 C3943 1.524 . S
C3942 H3961 0.913 . S
C3943 H3919 0.950 . S
C3943 C3942 1.524 . S
C3943 C3944 1.415 . S
C3944 H3920 0.950 . S
C3944 C3939 1.363 . S
C3944 C3943 1.415 . S
C3945 H3921 0.951 . S
C3945 C3946 1.366 . S
C3945 C3947 1.388 . S
C3946 C3945 1.366 . S
C3946 C3950 1.385 . S
C3947 H3922 0.951 . S
C3947 C3945 1.388 . S
C3947 C3948 1.366 . S
C3948 C3947 1.366 . S
C3948 C3949 1.414 . S
C3948 C3951 1.499 . S
C3949 H3923 0.950 . S
C3949 C3948 1.414 . S
C3949 C3950 1.374 . S
C3950 H3924 0.950 . S
C3950 C3946 1.385 . S
C3950 C3949 1.374 . S
C3951 C3948 1.499 . S
C3951 C3952 1.373 . S
C3951 C3953 1.389 . S
C3952 H3925 0.950 . S
C3952 C3938 1.377 . S
C3952 C3951 1.373 . S
C3953 C3937 1.377 . S
C3953 C3951 1.389 . S
C3953 C3954 1.524 . S
C3954 C3953 1.524 . S
C3954 C3955 1.397 . S
C3954 C3959 1.363 . S
C3955 H3926 0.950 . S
C3955 C3954 1.397 . S
C3955 C3956 1.334 . S
C3956 H3927 0.950 . S
C3956 C3955 1.334 . S
C3956 C3957 1.287 . S
C3957 C3956 1.287 . S
C3957 C3958 1.524 . S
C3957 H3960 0.999 . S
C3958 H3928 0.950 . S
C3958 C3957 1.524 . S
C3958 C3959 1.415 . S
C3959 H3929 0.950 . S
C3959 C3954 1.363 . S
C3959 C3958 1.415 . S
H3960 C3957 0.999 . S
H3961 C3942 0.913 . S
H3962 C3980 0.951 . S
H3963 C3982 0.951 . S
H3964 C3984 0.950 . S
H3965 C3985 0.950 . S
H3966 C3987 0.950 . S
H3967 C3990 0.950 . S
H3968 C3991 0.950 . S
H3969 C3993 0.950 . S
H3970 C3994 0.950 . S
H3971 C3995 0.951 . S
H3972 C3997 0.951 . S
H3973 C3999 0.950 . S
H3974 C4000 0.950 . S
H3975 C4002 0.950 . S
H3976 C4005 0.950 . S
H3977 C4006 0.950 . S
H3978 C4008 0.950 . S
H3979 C4009 0.950 . S
C3980 H3962 0.951 . S
C3980 C3981 1.366 . S
C3980 C3982 1.388 . S
C3981 C3980 1.366 . S
C3981 C3985 1.385 . S
C3982 H3963 0.951 . S
C3982 C3980 1.388 . S
C3982 C3983 1.366 . S
C3983 C3982 1.366 . S
C3983 C3984 1.414 . S
C3983 C3986 1.499 . S
C3984 H3964 0.950 . S
C3984 C3983 1.414 . S
C3984 C3985 1.374 . S
C3985 H3965 0.950 . S
C3985 C3981 1.385 . S
C3985 C3984 1.374 . S
C3986 C3983 1.499 . S
C3986 C3987 1.373 . S
C3986 C3988 1.389 . S
C3987 H3966 0.950 . S
C3987 C3986 1.373 . S
C3987 C4003 1.377 . S
C3988 C3986 1.389 . S
C3988 C3989 1.524 . S
C3988 C4002 1.377 . S
C3989 C3988 1.524 . S
C3989 C3990 1.397 . S
C3989 C3994 1.363 . S
C3990 H3967 0.950 . S
C3990 C3989 1.397 . S
C3990 C3991 1.334 . S
C3991 H3968 0.950 . S
C3991 C3990 1.334 . S
C3991 C3992 1.287 . S
C3992 C3991 1.287 . S
C3992 C3993 1.524 . S
C3992 H4011 0.913 . S
C3993 H3969 0.950 . S
C3993 C3992 1.524 . S
C3993 C3994 1.415 . S
C3994 H3970 0.950 . S
C3994 C3989 1.363 . S
C3994 C3993 1.415 . S
C3995 H3971 0.951 . S
C3995 C3996 1.366 . S
C3995 C3997 1.388 . S
C3996 C3995 1.366 . S
C3996 C4000 1.385 . S
C3997 H3972 0.951 . S
C3997 C3995 1.388 . S
C3997 C3998 1.366 . S
C3998 C3997 1.366 . S
C3998 C3999 1.414 . S
C3998 C4001 1.499 . S
C3999 H3973 0.950 . S
C3999 C3998 1.414 . S
C3999 C4000 1.374 . S
C4000 H3974 0.950 . S
C4000 C3996 1.385 . S
C4000 C3999 1.374 . S
C4001 C3998 1.499 . S
C4001 C4002 1.373 . S
C4001 C4003 1.389 . S
C4002 H3975 0.950 . S
C4002 C3988 1.377 . S
C4002 C4001 1.373 . S
C4003 C3987 1.377 . S
C4003 C4001 1.389 . S
C4003 C4004 1.524 . S
C4004 C4003 1.524 . S
C4004 C4005 1.397 . S
C4004 C4009 1.363 . S
C4005 H3976 0.950 . S
C4005 C4004 1.397 . S
C4005 C4006 1.334 . S
C4006 H3977 0.950 . S
C4006 C4005 1.334 . S
C4006 C4007 1.287 . S
C4007 C4006 1.287 . S
C4007 C4008 1.524 . S
C4007 H4010 0.999 . S
C4008 H3978 0.950 . S
C4008 C4007 1.524 . S
C4008 C4009 1.415 . S
C4009 H3979 0.950 . S
C4009 C4004 1.363 . S
C4009 C4008 1.415 . S
H4010 C4007 0.999 . S
H4011 C3992 0.913 . S
H4012 C4030 0.951 . S
H4013 C4032 0.951 . S
H4014 C4034 0.950 . S
H4015 C4035 0.950 . S
H4016 C4037 0.950 . S
H4017 C4040 0.950 . S
H4018 C4041 0.950 . S
H4019 C4043 0.950 . S
H4020 C4044 0.950 . S
H4021 C4045 0.951 . S
H4022 C4047 0.951 . S
H4023 C4049 0.950 . S
H4024 C4050 0.950 . S
H4025 C4052 0.950 . S
H4026 C4055 0.950 . S
H4027 C4056 0.950 . S
H4028 C4058 0.950 . S
H4029 C4059 0.950 . S
C4030 H4012 0.951 . S
C4030 C4031 1.366 . S
C4030 C4032 1.388 . S
C4031 C4030 1.366 . S
C4031 C4035 1.385 . S
C4032 H4013 0.951 . S
C4032 C4030 1.388 . S
C4032 C4033 1.366 . S
C4033 C4032 1.366 . S
C4033 C4034 1.414 . S
C4033 C4036 1.499 . S
C4034 H4014 0.950 . S
C4034 C4033 1.414 . S
C4034 C4035 1.374 . S
C4035 H4015 0.950 . S
C4035 C4031 1.385 . S
C4035 C4034 1.374 . S
C4036 C4033 1.499 . S
C4036 C4037 1.373 . S
C4036 C4038 1.389 . S
C4037 H4016 0.950 . S
C4037 C4036 1.373 . S
C4037 C4053 1.377 . S
C4038 C4036 1.389 . S
C4038 C4039 1.524 . S
C4038 C4052 1.377 . S
C4039 C4038 1.524 . S
C4039 C4040 1.397 . S
C4039 C4044 1.363 . S
C4040 H4017 0.950 . S
C4040 C4039 1.397 . S
C4040 C4041 1.334 . S
C4041 H4018 0.950 . S
C4041 C4040 1.334 . S
C4041 C4042 1.287 . S
C4042 C4041 1.287 . S
C4042 C4043 1.524 . S
C4042 H4061 0.913 . S
C4043 H4019 0.950 . S
C4043 C4042 1.524 . S
C4043 C4044 1.415 . S
C4044 H4020 0.950 . S
C4044 C4039 1.363 . S
C4044 C4043 1.415 . S
C4045 H4021 0.951 . S
C4045 C4046 1.366 . S
C4045 C4047 1.388 . S
C4046 C4045 1.366 . S
C4046 C4050 1.385 . S
C4047 H4022 0.951 . S
C4047 C4045 1.388 . S
C4047 C4048 1.366 . S
C4048 C4047 1.366 . S
C4048 C4049 1.414 . S
C4048 C4051 1.499 . S
C4049 H4023 0.950 . S
C4049 C4048 1.414 . S
C4049 C4050 1.374 . S
C4050 H4024 0.950 . S
C4050 C4046 1.385 . S
C4050 C4049 1.374 . S
C4051 C4048 1.499 . S
C4051 C4052 1.373 . S
C4051 C4053 1.389 . S
C4052 H4025 0.950 . S
C4052 C4038 1.377 . S
C4052 C4051 1.373 . S
C4053 C4037 1.377 . S
C4053 C4051 1.389 . S
C4053 C4054 1.524 . S
C4054 C4053 1.524 . S
C4054 C4055 1.397 . S
C4054 C4059 1.363 . S
C4055 H4026 0.950 . S
C4055 C4054 1.397 . S
C4055 C4056 1.334 . S
C4056 H4027 0.950 . S
C4056 C4055 1.334 . S
C4056 C4057 1.287 . S
C4057 C4056 1.287 . S
C4057 C4058 1.524 . S
C4057 H4060 0.999 . S
C4058 H4028 0.950 . S
C4058 C4057 1.524 . S
C4058 C4059 1.415 . S
C4059 H4029 0.950 . S
C4059 C4054 1.363 . S
C4059 C4058 1.415 . S
H4060 C4057 0.999 . S
H4061 C4042 0.913 . S
H4062 C4080 0.951 . S
H4063 C4082 0.951 . S
H4064 C4084 0.950 . S
H4065 C4085 0.950 . S
H4066 C4087 0.950 . S
H4067 C4090 0.950 . S
H4068 C4091 0.950 . S
H4069 C4093 0.950 . S
H4070 C4094 0.950 . S
H4071 C4095 0.951 . S
H4072 C4097 0.951 . S
H4073 C4099 0.950 . S
H4074 C4100 0.950 . S
H4075 C4102 0.950 . S
H4076 C4105 0.950 . S
H4077 C4106 0.950 . S
H4078 C4108 0.950 . S
H4079 C4109 0.950 . S
C4080 H4062 0.951 . S
C4080 C4081 1.366 . S
C4080 C4082 1.388 . S
C4081 C4080 1.366 . S
C4081 C4085 1.385 . S
C4082 H4063 0.951 . S
C4082 C4080 1.388 . S
C4082 C4083 1.366 . S
C4083 C4082 1.366 . S
C4083 C4084 1.414 . S
C4083 C4086 1.499 . S
C4084 H4064 0.950 . S
C4084 C4083 1.414 . S
C4084 C4085 1.374 . S
C4085 H4065 0.950 . S
C4085 C4081 1.385 . S
C4085 C4084 1.374 . S
C4086 C4083 1.499 . S
C4086 C4087 1.373 . S
C4086 C4088 1.389 . S
C4087 H4066 0.950 . S
C4087 C4086 1.373 . S
C4087 C4103 1.377 . S
C4088 C4086 1.389 . S
C4088 C4089 1.524 . S
C4088 C4102 1.377 . S
C4089 C4088 1.524 . S
C4089 C4090 1.397 . S
C4089 C4094 1.363 . S
C4090 H4067 0.950 . S
C4090 C4089 1.397 . S
C4090 C4091 1.334 . S
C4091 H4068 0.950 . S
C4091 C4090 1.334 . S
C4091 C4092 1.287 . S
C4092 C4091 1.287 . S
C4092 C4093 1.524 . S
C4092 H4111 0.913 . S
C4093 H4069 0.950 . S
C4093 C4092 1.524 . S
C4093 C4094 1.415 . S
C4094 H4070 0.950 . S
C4094 C4089 1.363 . S
C4094 C4093 1.415 . S
C4095 H4071 0.951 . S
C4095 C4096 1.366 . S
C4095 C4097 1.388 . S
C4096 C4095 1.366 . S
C4096 C4100 1.385 . S
C4097 H4072 0.951 . S
C4097 C4095 1.388 . S
C4097 C4098 1.366 . S
C4098 C4097 1.366 . S
C4098 C4099 1.414 . S
C4098 C4101 1.499 . S
C4099 H4073 0.950 . S
C4099 C4098 1.414 . S
C4099 C4100 1.374 . S
C4100 H4074 0.950 . S
C4100 C4096 1.385 . S
C4100 C4099 1.374 . S
C4101 C4098 1.499 . S
C4101 C4102 1.373 . S
C4101 C4103 1.389 . S
C4102 H4075 0.950 . S
C4102 C4088 1.377 . S
C4102 C4101 1.373 . S
C4103 C4087 1.377 . S
C4103 C4101 1.389 . S
C4103 C4104 1.524 . S
C4104 C4103 1.524 . S
C4104 C4105 1.397 . S
C4104 C4109 1.363 . S
C4105 H4076 0.950 . S
C4105 C4104 1.397 . S
C4105 C4106 1.334 . S
C4106 H4077 0.950 . S
C4106 C4105 1.334 . S
C4106 C4107 1.287 . S
C4107 C4106 1.287 . S
C4107 C4108 1.524 . S
C4107 H4110 0.999 . S
C4108 H4078 0.950 . S
C4108 C4107 1.524 . S
C4108 C4109 1.415 . S
C4109 H4079 0.950 . S
C4109 C4104 1.363 . S
C4109 C4108 1.415 . S
H4110 C4107 0.999 . S
H4111 C4092 0.913 . S
H4112 C4130 0.951 . S
H4113 C4132 0.951 . S
H4114 C4134 0.950 . S
H4115 C4135 0.950 . S
H4116 C4137 0.950 . S
H4117 C4140 0.950 . S
H4118 C4141 0.950 . S
H4119 C4143 0.950 . S
H4120 C4144 0.950 . S
H4121 C4145 0.951 . S
H4122 C4147 0.951 . S
H4123 C4149 0.950 . S
H4124 C4150 0.950 . S
H4125 C4152 0.950 . S
H4126 C4155 0.950 . S
H4127 C4156 0.950 . S
H4128 C4158 0.950 . S
H4129 C4159 0.950 . S
C4130 H4112 0.951 . S
C4130 C4131 1.366 . S
C4130 C4132 1.388 . S
C4131 C4130 1.366 . S
C4131 C4135 1.385 . S
C4132 H4113 0.951 . S
C4132 C4130 1.388 . S
C4132 C4133 1.366 . S
C4133 C4132 1.366 . S
C4133 C4134 1.414 . S
C4133 C4136 1.499 . S
C4134 H4114 0.950 . S
C4134 C4133 1.414 . S
C4134 C4135 1.374 . S
C4135 H4115 0.950 . S
C4135 C4131 1.385 . S
C4135 C4134 1.374 . S
C4136 C4133 1.499 . S
C4136 C4137 1.373 . S
C4136 C4138 1.389 . S
C4137 H4116 0.950 . S
C4137 C4136 1.373 . S
C4137 C4153 1.377 . S
C4138 C4136 1.389 . S
C4138 C4139 1.524 . S
C4138 C4152 1.377 . S
C4139 C4138 1.524 . S
C4139 C4140 1.397 . S
C4139 C4144 1.363 . S
C4140 H4117 0.950 . S
C4140 C4139 1.397 . S
C4140 C4141 1.334 . S
C4141 H4118 0.950 . S
C4141 C4140 1.334 . S
C4141 C4142 1.287 . S
C4142 C4141 1.287 . S
C4142 C4143 1.524 . S
C4142 H4161 0.913 . S
C4143 H4119 0.950 . S
C4143 C4142 1.524 . S
C4143 C4144 1.415 . S
C4144 H4120 0.950 . S
C4144 C4139 1.363 . S
C4144 C4143 1.415 . S
C4145 H4121 0.951 . S
C4145 C4146 1.366 . S
C4145 C4147 1.388 . S
C4146 C4145 1.366 . S
C4146 C4150 1.385 . S
C4147 H4122 0.951 . S
C4147 C4145 1.388 . S
C4147 C4148 1.366 . S
C4148 C4147 1.366 . S
C4148 C4149 1.414 . S
C4148 C4151 1.499 . S
C4149 H4123 0.950 . S
C4149 C4148 1.414 . S
C4149 C4150 1.374 . S
C4150 H4124 0.950 . S
C4150 C4146 1.385 . S
C4150 C4149 1.374 . S
C4151 C4148 1.499 . S
C4151 C4152 1.373 . S
C4151 C4153 1.389 . S
C4152 H4125 0.950 . S
C4152 C4138 1.377 . S
C4152 C4151 1.373 . S
C4153 C4137 1.377 . S
C4153 C4151 1.389 . S
C4153 C4154 1.524 . S
C4154 C4153 1.524 . S
C4154 C4155 1.397 . S
C4154 C4159 1.363 . S
C4155 H4126 0.950 . S
C4155 C4154 1.397 . S
C4155 C4156 1.334 . S
C4156 H4127 0.950 . S
C4156 C4155 1.334 . S
C4156 C4157 1.287 . S
C4157 C4156 1.287 . S
C4157 C4158 1.524 . S
C4157 H4160 0.999 . S
C4158 H4128 0.950 . S
C4158 C4157 1.524 . S
C4158 C4159 1.415 . S
C4159 H4129 0.950 . S
C4159 C4154 1.363 . S
C4159 C4158 1.415 . S
H4160 C4157 0.999 . S
H4161 C4142 0.913 . S
H4162 C4180 0.951 . S
H4163 C4182 0.951 . S
H4164 C4184 0.950 . S
H4165 C4185 0.950 . S
H4166 C4187 0.950 . S
H4167 C4190 0.950 . S
H4168 C4191 0.950 . S
H4169 C4193 0.950 . S
H4170 C4194 0.950 . S
H4171 C4195 0.951 . S
H4172 C4197 0.951 . S
H4173 C4199 0.950 . S
H4174 C4200 0.950 . S
H4175 C4202 0.950 . S
H4176 C4205 0.950 . S
H4177 C4206 0.950 . S
H4178 C4208 0.950 . S
H4179 C4209 0.950 . S
C4180 H4162 0.951 . S
C4180 C4181 1.366 . S
C4180 C4182 1.388 . S
C4181 C4180 1.366 . S
C4181 C4185 1.385 . S
C4182 H4163 0.951 . S
C4182 C4180 1.388 . S
C4182 C4183 1.366 . S
C4183 C4182 1.366 . S
C4183 C4184 1.414 . S
C4183 C4186 1.499 . S
C4184 H4164 0.950 . S
C4184 C4183 1.414 . S
C4184 C4185 1.374 . S
C4185 H4165 0.950 . S
C4185 C4181 1.385 . S
C4185 C4184 1.374 . S
C4186 C4183 1.499 . S
C4186 C4187 1.373 . S
C4186 C4188 1.389 . S
C4187 H4166 0.950 . S
C4187 C4186 1.373 . S
C4187 C4203 1.377 . S
C4188 C4186 1.389 . S
C4188 C4189 1.524 . S
C4188 C4202 1.377 . S
C4189 C4188 1.524 . S
C4189 C4190 1.397 . S
C4189 C4194 1.363 . S
C4190 H4167 0.950 . S
C4190 C4189 1.397 . S
C4190 C4191 1.334 . S
C4191 H4168 0.950 . S
C4191 C4190 1.334 . S
C4191 C4192 1.287 . S
C4192 C4191 1.287 . S
C4192 C4193 1.524 . S
C4192 H4211 0.913 . S
C4193 H4169 0.950 . S
C4193 C4192 1.524 . S
C4193 C4194 1.415 . S
C4194 H4170 0.950 . S
C4194 C4189 1.363 . S
C4194 C4193 1.415 . S
C4195 H4171 0.951 . S
C4195 C4196 1.366 . S
C4195 C4197 1.388 . S
C4196 C4195 1.366 . S
C4196 C4200 1.385 . S
C4197 H4172 0.951 . S
C4197 C4195 1.388 . S
C4197 C4198 1.366 . S
C4198 C4197 1.366 . S
C4198 C4199 1.414 . S
C4198 C4201 1.499 . S
C4199 H4173 0.950 . S
C4199 C4198 1.414 . S
C4199 C4200 1.374 . S
C4200 H4174 0.950 . S
C4200 C4196 1.385 . S
C4200 C4199 1.374 . S
C4201 C4198 1.499 . S
C4201 C4202 1.373 . S
C4201 C4203 1.389 . S
C4202 H4175 0.950 . S
C4202 C4188 1.377 . S
C4202 C4201 1.373 . S
C4203 C4187 1.377 . S
C4203 C4201 1.389 . S
C4203 C4204 1.524 . S
C4204 C4203 1.524 . S
C4204 C4205 1.397 . S
C4204 C4209 1.363 . S
C4205 H4176 0.950 . S
C4205 C4204 1.397 . S
C4205 C4206 1.334 . S
C4206 H4177 0.950 . S
C4206 C4205 1.334 . S
C4206 C4207 1.287 . S
C4207 C4206 1.287 . S
C4207 C4208 1.524 . S
C4207 H4210 0.999 . S
C4208 H4178 0.950 . S
C4208 C4207 1.524 . S
C4208 C4209 1.415 . S
C4209 H4179 0.950 . S
C4209 C4204 1.363 . S
C4209 C4208 1.415 . S
H4210 C4207 0.999 . S
H4211 C4192 0.913 . S
H4212 C4230 0.951 . S
H4213 C4232 0.951 . S
H4214 C4234 0.950 . S
H4215 C4235 0.950 . S
H4216 C4237 0.950 . S
H4217 C4240 0.950 . S
H4218 C4241 0.950 . S
H4219 C4243 0.950 . S
H4220 C4244 0.950 . S
H4221 C4245 0.951 . S
H4222 C4247 0.951 . S
H4223 C4249 0.950 . S
H4224 C4250 0.950 . S
H4225 C4252 0.950 . S
H4226 C4255 0.950 . S
H4227 C4256 0.950 . S
H4228 C4258 0.950 . S
H4229 C4259 0.950 . S
C4230 H4212 0.951 . S
C4230 C4231 1.366 . S
C4230 C4232 1.388 . S
C4231 C4230 1.366 . S
C4231 C4235 1.385 . S
C4232 H4213 0.951 . S
C4232 C4230 1.388 . S
C4232 C4233 1.366 . S
C4233 C4232 1.366 . S
C4233 C4234 1.414 . S
C4233 C4236 1.499 . S
C4234 H4214 0.950 . S
C4234 C4233 1.414 . S
C4234 C4235 1.374 . S
C4235 H4215 0.950 . S
C4235 C4231 1.385 . S
C4235 C4234 1.374 . S
C4236 C4233 1.499 . S
C4236 C4237 1.373 . S
C4236 C4238 1.389 . S
C4237 H4216 0.950 . S
C4237 C4236 1.373 . S
C4237 C4253 1.377 . S
C4238 C4236 1.389 . S
C4238 C4239 1.524 . S
C4238 C4252 1.377 . S
C4239 C4238 1.524 . S
C4239 C4240 1.397 . S
C4239 C4244 1.363 . S
C4240 H4217 0.950 . S
C4240 C4239 1.397 . S
C4240 C4241 1.334 . S
C4241 H4218 0.950 . S
C4241 C4240 1.334 . S
C4241 C4242 1.287 . S
C4242 C4241 1.287 . S
C4242 C4243 1.524 . S
C4242 H4261 0.913 . S
C4243 H4219 0.950 . S
C4243 C4242 1.524 . S
C4243 C4244 1.415 . S
C4244 H4220 0.950 . S
C4244 C4239 1.363 . S
C4244 C4243 1.415 . S
C4245 H4221 0.951 . S
C4245 C4246 1.366 . S
C4245 C4247 1.388 . S
C4246 C4245 1.366 . S
C4246 C4250 1.385 . S
C4247 H4222 0.951 . S
C4247 C4245 1.388 . S
C4247 C4248 1.366 . S
C4248 C4247 1.366 . S
C4248 C4249 1.414 . S
C4248 C4251 1.499 . S
C4249 H4223 0.950 . S
C4249 C4248 1.414 . S
C4249 C4250 1.374 . S
C4250 H4224 0.950 . S
C4250 C4246 1.385 . S
C4250 C4249 1.374 . S
C4251 C4248 1.499 . S
C4251 C4252 1.373 . S
C4251 C4253 1.389 . S
C4252 H4225 0.950 . S
C4252 C4238 1.377 . S
C4252 C4251 1.373 . S
C4253 C4237 1.377 . S
C4253 C4251 1.389 . S
C4253 C4254 1.524 . S
C4254 C4253 1.524 . S
C4254 C4255 1.397 . S
C4254 C4259 1.363 . S
C4255 H4226 0.950 . S
C4255 C4254 1.397 . S
C4255 C4256 1.334 . S
C4256 H4227 0.950 . S
C4256 C4255 1.334 . S
C4256 C4257 1.287 . S
C4257 C4256 1.287 . S
C4257 C4258 1.524 . S
C4257 H4260 0.999 . S
C4258 H4228 0.950 . S
C4258 C4257 1.524 . S
C4258 C4259 1.415 . S
C4259 H4229 0.950 . S
C4259 C4254 1.363 . S
C4259 C4258 1.415 . S
H4260 C4257 0.999 . S
H4261 C4242 0.913 . S
H4262 C4280 0.951 . S
H4263 C4282 0.951 . S
H4264 C4284 0.950 . S
H4265 C4285 0.950 . S
H4266 C4287 0.950 . S
H4267 C4290 0.950 . S
H4268 C4291 0.950 . S
H4269 C4293 0.950 . S
H4270 C4294 0.950 . S
H4271 C4295 0.951 . S
H4272 C4297 0.951 . S
H4273 C4299 0.950 . S
H4274 C4300 0.950 . S
H4275 C4302 0.950 . S
H4276 C4305 0.950 . S
H4277 C4306 0.950 . S
H4278 C4308 0.950 . S
H4279 C4309 0.950 . S
C4280 H4262 0.951 . S
C4280 C4281 1.366 . S
C4280 C4282 1.388 . S
C4281 C4280 1.366 . S
C4281 C4285 1.385 . S
C4282 H4263 0.951 . S
C4282 C4280 1.388 . S
C4282 C4283 1.366 . S
C4283 C4282 1.366 . S
C4283 C4284 1.414 . S
C4283 C4286 1.499 . S
C4284 H4264 0.950 . S
C4284 C4283 1.414 . S
C4284 C4285 1.374 . S
C4285 H4265 0.950 . S
C4285 C4281 1.385 . S
C4285 C4284 1.374 . S
C4286 C4283 1.499 . S
C4286 C4287 1.373 . S
C4286 C4288 1.389 . S
C4287 H4266 0.950 . S
C4287 C4286 1.373 . S
C4287 C4303 1.377 . S
C4288 C4286 1.389 . S
C4288 C4289 1.524 . S
C4288 C4302 1.377 . S
C4289 C4288 1.524 . S
C4289 C4290 1.397 . S
C4289 C4294 1.363 . S
C4290 H4267 0.950 . S
C4290 C4289 1.397 . S
C4290 C4291 1.334 . S
C4291 H4268 0.950 . S
C4291 C4290 1.334 . S
C4291 C4292 1.287 . S
C4292 C4291 1.287 . S
C4292 C4293 1.524 . S
C4292 H4311 0.913 . S
C4293 H4269 0.950 . S
C4293 C4292 1.524 . S
C4293 C4294 1.415 . S
C4294 H4270 0.950 . S
C4294 C4289 1.363 . S
C4294 C4293 1.415 . S
C4295 H4271 0.951 . S
C4295 C4296 1.366 . S
C4295 C4297 1.388 . S
C4296 C4295 1.366 . S
C4296 C4300 1.385 . S
C4297 H4272 0.951 . S
C4297 C4295 1.388 . S
C4297 C4298 1.366 . S
C4298 C4297 1.366 . S
C4298 C4299 1.414 . S
C4298 C4301 1.499 . S
C4299 H4273 0.950 . S
C4299 C4298 1.414 . S
C4299 C4300 1.374 . S
C4300 H4274 0.950 . S
C4300 C4296 1.385 . S
C4300 C4299 1.374 . S
C4301 C4298 1.499 . S
C4301 C4302 1.373 . S
C4301 C4303 1.389 . S
C4302 H4275 0.950 . S
C4302 C4288 1.377 . S
C4302 C4301 1.373 . S
C4303 C4287 1.377 . S
C4303 C4301 1.389 . S
C4303 C4304 1.524 . S
C4304 C4303 1.524 . S
C4304 C4305 1.397 . S
C4304 C4309 1.363 . S
C4305 H4276 0.950 . S
C4305 C4304 1.397 . S
C4305 C4306 1.334 . S
C4306 H4277 0.950 . S
C4306 C4305 1.334 . S
C4306 C4307 1.287 . S
C4307 C4306 1.287 . S
C4307 C4308 1.524 . S
C4307 H4310 0.999 . S
C4308 H4278 0.950 . S
C4308 C4307 1.524 . S
C4308 C4309 1.415 . S
C4309 H4279 0.950 . S
C4309 C4304 1.363 . S
C4309 C4308 1.415 . S
H4310 C4307 0.999 . S
H4311 C4292 0.913 . S
H4312 C4330 0.951 . S
H4313 C4332 0.951 . S
H4314 C4334 0.950 . S
H4315 C4335 0.950 . S
H4316 C4337 0.950 . S
H4317 C4340 0.950 . S
H4318 C4341 0.950 . S
H4319 C4343 0.950 . S
H4320 C4344 0.950 . S
H4321 C4345 0.951 . S
H4322 C4347 0.951 . S
H4323 C4349 0.950 . S
H4324 C4350 0.950 . S
H4325 C4352 0.950 . S
H4326 C4355 0.950 . S
H4327 C4356 0.950 . S
H4328 C4358 0.950 . S
H4329 C4359 0.950 . S
C4330 H4312 0.951 . S
C4330 C4331 1.366 . S
C4330 C4332 1.388 . S
C4331 C4330 1.366 . S
C4331 C4335 1.385 . S
C4332 H4313 0.951 . S
C4332 C4330 1.388 . S
C4332 C4333 1.366 . S
C4333 C4332 1.366 . S
C4333 C4334 1.414 . S
C4333 C4336 1.499 . S
C4334 H4314 0.950 . S
C4334 C4333 1.414 . S
C4334 C4335 1.374 . S
C4335 H4315 0.950 . S
C4335 C4331 1.385 . S
C4335 C4334 1.374 . S
C4336 C4333 1.499 . S
C4336 C4337 1.373 . S
C4336 C4338 1.389 . S
C4337 H4316 0.950 . S
C4337 C4336 1.373 . S
C4337 C4353 1.377 . S
C4338 C4336 1.389 . S
C4338 C4339 1.524 . S
C4338 C4352 1.377 . S
C4339 C4338 1.524 . S
C4339 C4340 1.397 . S
C4339 C4344 1.363 . S
C4340 H4317 0.950 . S
C4340 C4339 1.397 . S
C4340 C4341 1.334 . S
C4341 H4318 0.950 . S
C4341 C4340 1.334 . S
C4341 C4342 1.287 . S
C4342 C4341 1.287 . S
C4342 C4343 1.524 . S
C4342 H4361 0.913 . S
C4343 H4319 0.950 . S
C4343 C4342 1.524 . S
C4343 C4344 1.415 . S
C4344 H4320 0.950 . S
C4344 C4339 1.363 . S
C4344 C4343 1.415 . S
C4345 H4321 0.951 . S
C4345 C4346 1.366 . S
C4345 C4347 1.388 . S
C4346 C4345 1.366 . S
C4346 C4350 1.385 . S
C4347 H4322 0.951 . S
C4347 C4345 1.388 . S
C4347 C4348 1.366 . S
C4348 C4347 1.366 . S
C4348 C4349 1.414 . S
C4348 C4351 1.499 . S
C4349 H4323 0.950 . S
C4349 C4348 1.414 . S
C4349 C4350 1.374 . S
C4350 H4324 0.950 . S
C4350 C4346 1.385 . S
C4350 C4349 1.374 . S
C4351 C4348 1.499 . S
C4351 C4352 1.373 . S
C4351 C4353 1.389 . S
C4352 H4325 0.950 . S
C4352 C4338 1.377 . S
C4352 C4351 1.373 . S
C4353 C4337 1.377 . S
C4353 C4351 1.389 . S
C4353 C4354 1.524 . S
C4354 C4353 1.524 . S
C4354 C4355 1.397 . S
C4354 C4359 1.363 . S
C4355 H4326 0.950 . S
C4355 C4354 1.397 . S
C4355 C4356 1.334 . S
C4356 H4327 0.950 . S
C4356 C4355 1.334 . S
C4356 C4357 1.287 . S
C4357 C4356 1.287 . S
C4357 C4358 1.524 . S
C4357 H4360 0.999 . S
C4358 H4328 0.950 . S
C4358 C4357 1.524 . S
C4358 C4359 1.415 . S
C4359 H4329 0.950 . S
C4359 C4354 1.363 . S
C4359 C4358 1.415 . S
H4360 C4357 0.999 . S
H4361 C4342 0.913 . S
H4362 C4380 0.951 . S
H4363 C4382 0.951 . S
H4364 C4384 0.950 . S
H4365 C4385 0.950 . S
H4366 C4387 0.950 . S
H4367 C4390 0.950 . S
H4368 C4391 0.950 . S
H4369 C4393 0.950 . S
H4370 C4394 0.950 . S
H4371 C4395 0.951 . S
H4372 C4397 0.951 . S
H4373 C4399 0.950 . S
H4374 C4400 0.950 . S
H4375 C4402 0.950 . S
H4376 C4405 0.950 . S
H4377 C4406 0.950 . S
H4378 C4408 0.950 . S
H4379 C4409 0.950 . S
C4380 H4362 0.951 . S
C4380 C4381 1.366 . S
C4380 C4382 1.388 . S
C4381 C4380 1.366 . S
C4381 C4385 1.385 . S
C4382 H4363 0.951 . S
C4382 C4380 1.388 . S
C4382 C4383 1.366 . S
C4383 C4382 1.366 . S
C4383 C4384 1.414 . S
C4383 C4386 1.499 . S
C4384 H4364 0.950 . S
C4384 C4383 1.414 . S
C4384 C4385 1.374 . S
C4385 H4365 0.950 . S
C4385 C4381 1.385 . S
C4385 C4384 1.374 . S
C4386 C4383 1.499 . S
C4386 C4387 1.373 . S
C4386 C4388 1.389 . S
C4387 H4366 0.950 . S
C4387 C4386 1.373 . S
C4387 C4403 1.377 . S
C4388 C4386 1.389 . S
C4388 C4389 1.524 . S
C4388 C4402 1.377 . S
C4389 C4388 1.524 . S
C4389 C4390 1.397 . S
C4389 C4394 1.363 . S
C4390 H4367 0.950 . S
C4390 C4389 1.397 . S
C4390 C4391 1.334 . S
C4391 H4368 0.950 . S
C4391 C4390 1.334 . S
C4391 C4392 1.287 . S
C4392 C4391 1.287 . S
C4392 C4393 1.524 . S
C4392 H4411 0.913 . S
C4393 H4369 0.950 . S
C4393 C4392 1.524 . S
C4393 C4394 1.415 . S
C4394 H4370 0.950 . S
C4394 C4389 1.363 . S
C4394 C4393 1.415 . S
C4395 H4371 0.951 . S
C4395 C4396 1.366 . S
C4395 C4397 1.388 . S
C4396 C4395 1.366 . S
C4396 C4400 1.385 . S
C4397 H4372 0.951 . S
C4397 C4395 1.388 . S
C4397 C4398 1.366 . S
C4398 C4397 1.366 . S
C4398 C4399 1.414 . S
C4398 C4401 1.499 . S
C4399 H4373 0.950 . S
C4399 C4398 1.414 . S
C4399 C4400 1.374 . S
C4400 H4374 0.950 . S
C4400 C4396 1.385 . S
C4400 C4399 1.374 . S
C4401 C4398 1.499 . S
C4401 C4402 1.373 . S
C4401 C4403 1.389 . S
C4402 H4375 0.950 . S
C4402 C4388 1.377 . S
C4402 C4401 1.373 . S
C4403 C4387 1.377 . S
C4403 C4401 1.389 . S
C4403 C4404 1.524 . S
C4404 C4403 1.524 . S
C4404 C4405 1.397 . S
C4404 C4409 1.363 . S
C4405 H4376 0.950 . S
C4405 C4404 1.397 . S
C4405 C4406 1.334 . S
C4406 H4377 0.950 . S
C4406 C4405 1.334 . S
C4406 C4407 1.287 . S
C4407 C4406 1.287 . S
C4407 C4408 1.524 . S
C4407 H4410 0.999 . S
C4408 H4378 0.950 . S
C4408 C4407 1.524 . S
C4408 C4409 1.415 . S
C4409 H4379 0.950 . S
C4409 C4404 1.363 . S
C4409 C4408 1.415 . S
H4410 C4407 0.999 . S
H4411 C4392 0.913 . S
H4412 C4430 0.951 . S
H4413 C4432 0.951 . S
H4414 C4434 0.950 . S
H4415 C4435 0.950 . S
H4416 C4437 0.950 . S
H4417 C4440 0.950 . S
H4418 C4441 0.950 . S
H4419 C4443 0.950 . S
H4420 C4444 0.950 . S
H4421 C4445 0.951 . S
H4422 C4447 0.951 . S
H4423 C4449 0.950 . S
H4424 C4450 0.950 . S
H4425 C4452 0.950 . S
H4426 C4455 0.950 . S
H4427 C4456 0.950 . S
H4428 C4458 0.950 . S
H4429 C4459 0.950 . S
C4430 H4412 0.951 . S
C4430 C4431 1.366 . S
C4430 C4432 1.388 . S
C4431 C4430 1.366 . S
C4431 C4435 1.385 . S
C4432 H4413 0.951 . S
C4432 C4430 1.388 . S
C4432 C4433 1.366 . S
C4433 C4432 1.366 . S
C4433 C4434 1.414 . S
C4433 C4436 1.499 . S
C4434 H4414 0.950 . S
C4434 C4433 1.414 . S
C4434 C4435 1.374 . S
C4435 H4415 0.950 . S
C4435 C4431 1.385 . S
C4435 C4434 1.374 . S
C4436 C4433 1.499 . S
C4436 C4437 1.373 . S
C4436 C4438 1.389 . S
C4437 H4416 0.950 . S
C4437 C4436 1.373 . S
C4437 C4453 1.377 . S
C4438 C4436 1.389 . S
C4438 C4439 1.524 . S
C4438 C4452 1.377 . S
C4439 C4438 1.524 . S
C4439 C4440 1.397 . S
C4439 C4444 1.363 . S
C4440 H4417 0.950 . S
C4440 C4439 1.397 . S
C4440 C4441 1.334 . S
C4441 H4418 0.950 . S
C4441 C4440 1.334 . S
C4441 C4442 1.287 . S
C4442 C4441 1.287 . S
C4442 C4443 1.524 . S
C4442 H4461 0.913 . S
C4443 H4419 0.950 . S
C4443 C4442 1.524 . S
C4443 C4444 1.415 . S
C4444 H4420 0.950 . S
C4444 C4439 1.363 . S
C4444 C4443 1.415 . S
C4445 H4421 0.951 . S
C4445 C4446 1.366 . S
C4445 C4447 1.388 . S
C4446 C4445 1.366 . S
C4446 C4450 1.385 . S
C4447 H4422 0.951 . S
C4447 C4445 1.388 . S
C4447 C4448 1.366 . S
C4448 C4447 1.366 . S
C4448 C4449 1.414 . S
C4448 C4451 1.499 . S
C4449 H4423 0.950 . S
C4449 C4448 1.414 . S
C4449 C4450 1.374 . S
C4450 H4424 0.950 . S
C4450 C4446 1.385 . S
C4450 C4449 1.374 . S
C4451 C4448 1.499 . S
C4451 C4452 1.373 . S
C4451 C4453 1.389 . S
C4452 H4425 0.950 . S
C4452 C4438 1.377 . S
C4452 C4451 1.373 . S
C4453 C4437 1.377 . S
C4453 C4451 1.389 . S
C4453 C4454 1.524 . S
C4454 C4453 1.524 . S
C4454 C4455 1.397 . S
C4454 C4459 1.363 . S
C4455 H4426 0.950 . S
C4455 C4454 1.397 . S
C4455 C4456 1.334 . S
C4456 H4427 0.950 . S
C4456 C4455 1.334 . S
C4456 C4457 1.287 . S
C4457 C4456 1.287 . S
C4457 C4458 1.524 . S
C4457 H4460 0.999 . S
C4458 H4428 0.950 . S
C4458 C4457 1.524 . S
C4458 C4459 1.415 . S
C4459 H4429 0.950 . S
C4459 C4454 1.363 . S
C4459 C4458 1.415 . S
H4460 C4457 0.999 . S
H4461 C4442 0.913 . S
H4462 C4480 0.951 . S
H4463 C4482 0.951 . S
H4464 C4484 0.950 . S
H4465 C4485 0.950 . S
H4466 C4487 0.950 . S
H4467 C4490 0.950 . S
H4468 C4491 0.950 . S
H4469 C4493 0.950 . S
H4470 C4494 0.950 . S
H4471 C4495 0.951 . S
H4472 C4497 0.951 . S
H4473 C4499 0.950 . S
H4474 C4500 0.950 . S
H4475 C4502 0.950 . S
H4476 C4505 0.950 . S
H4477 C4506 0.950 . S
H4478 C4508 0.950 . S
H4479 C4509 0.950 . S
C4480 H4462 0.951 . S
C4480 C4481 1.366 . S
C4480 C4482 1.388 . S
C4481 C4480 1.366 . S
C4481 C4485 1.385 . S
C4482 H4463 0.951 . S
C4482 C4480 1.388 . S
C4482 C4483 1.366 . S
C4483 C4482 1.366 . S
C4483 C4484 1.414 . S
C4483 C4486 1.499 . S
C4484 H4464 0.950 . S
C4484 C4483 1.414 . S
C4484 C4485 1.374 . S
C4485 H4465 0.950 . S
C4485 C4481 1.385 . S
C4485 C4484 1.374 . S
C4486 C4483 1.499 . S
C4486 C4487 1.373 . S
C4486 C4488 1.389 . S
C4487 H4466 0.950 . S
C4487 C4486 1.373 . S
C4487 C4503 1.377 . S
C4488 C4486 1.389 . S
C4488 C4489 1.524 . S
C4488 C4502 1.377 . S
C4489 C4488 1.524 . S
C4489 C4490 1.397 . S
C4489 C4494 1.363 . S
C4490 H4467 0.950 . S
C4490 C4489 1.397 . S
C4490 C4491 1.334 . S
C4491 H4468 0.950 . S
C4491 C4490 1.334 . S
C4491 C4492 1.287 . S
C4492 C4491 1.287 . S
C4492 C4493 1.524 . S
C4492 H4511 0.913 . S
C4493 H4469 0.950 . S
C4493 C4492 1.524 . S
C4493 C4494 1.415 . S
C4494 H4470 0.950 . S
C4494 C4489 1.363 . S
C4494 C4493 1.415 . S
C4495 H4471 0.951 . S
C4495 C4496 1.366 . S
C4495 C4497 1.388 . S
C4496 C4495 1.366 . S
C4496 C4500 1.385 . S
C4497 H4472 0.951 . S
C4497 C4495 1.388 . S
C4497 C4498 1.366 . S
C4498 C4497 1.366 . S
C4498 C4499 1.414 . S
C4498 C4501 1.499 . S
C4499 H4473 0.950 . S
C4499 C4498 1.414 . S
C4499 C4500 1.374 . S
C4500 H4474 0.950 . S
C4500 C4496 1.385 . S
C4500 C4499 1.374 . S
C4501 C4498 1.499 . S
C4501 C4502 1.373 . S
C4501 C4503 1.389 . S
C4502 H4475 0.950 . S
C4502 C4488 1.377 . S
C4502 C4501 1.373 . S
C4503 C4487 1.377 . S
C4503 C4501 1.389 . S
C4503 C4504 1.524 . S
C4504 C4503 1.524 . S
C4504 C4505 1.397 . S
C4504 C4509 1.363 . S
C4505 H4476 0.950 . S
C4505 C4504 1.397 . S
C4505 C4506 1.334 . S
C4506 H4477 0.950 . S
C4506 C4505 1.334 . S
C4506 C4507 1.287 . S
C4507 C4506 1.287 . S
C4507 C4508 1.524 . S
C4507 H4510 0.999 . S
C4508 H4478 0.950 . S
C4508 C4507 1.524 . S
C4508 C4509 1.415 . S
C4509 H4479 0.950 . S
C4509 C4504 1.363 . S
C4509 C4508 1.415 . S
H4510 C4507 0.999 . S
H4511 C4492 0.913 . S
C2131 C1369 1.426 . S
C2146 C29 1.428 . S
C2181 C117 1.427 . S
C2196 C1465 1.426 . S
C2231 C196 1.428 . S
C2246 C1553 1.427 . S
C2281 C284 1.428 . S
C2296 C1105 1.426 . S
C2331 C1193 1.427 . S
C2346 C401 1.427 . S
C2381 C469 1.428 . S
C2396 C1289 1.427 . S
C2431 C1868 1.427 . S
C2446 C585 1.427 . S
C2481 C665 1.428 . S
C2496 C1956 1.427 . S
C2531 C761 1.427 . S
C2546 C2044 1.426 . S
C2581 C1613 1.427 . S
C2596 C841 1.427 . S
C2631 C937 1.428 . S
C2646 C1701 1.427 . S
C2681 C1780 1.427 . S
C2696 C1017 1.427 . S
C2731 C20 0.841 . S
C2746 C2081 0.841 . S
C2781 C1633 0.841 . S
C2796 C108 0.840 . S
C2831 C205 0.841 . S
C2846 C1721 0.841 . S
C2881 C1817 0.841 . S
C2896 C293 0.840 . S
C2931 C409 0.841 . S
C2946 C1905 0.840 . S
C2981 C1993 0.841 . S
C2996 C460 0.840 . S
C3031 C577 0.841 . S
C3046 C1173 0.843 . S
C3081 C1252 0.842 . S
C3096 C673 0.840 . S
C3131 C1349 0.841 . S
C3146 C753 0.841 . S
C3181 C1428 0.840 . S
C3196 C849 0.840 . S
C3231 C929 0.841 . S
C3246 C1516 0.841 . S
C3281 C1025 0.841 . S
C3296 C1085 0.841 . S
C3331 C636 0.747 . S
C3346 C57 0.746 . S
C3381 C733 0.747 . S
C3396 C145 0.747 . S
C3431 C812 0.748 . S
C3446 C225 0.747 . S
C3481 C909 0.747 . S
C3496 C313 0.747 . S
C3531 C372 0.747 . S
C3546 C988 0.746 . S
C3581 C497 0.746 . S
C3596 C557 0.747 . S
C3631 C1076 0.742 . S
C3646 C1729 0.741 . S
C3681 C1164 0.741 . S
C3696 C1809 0.742 . S
C3731 C1897 0.741 . S
C3746 C1261 0.742 . S
C3781 C1985 0.741 . S
C3796 C1340 0.742 . S
C3831 C2073 0.742 . S
C3846 C1437 0.741 . S
C3881 C1641 0.741 . S
C3896 C1525 0.743 . S
C3931 C49 1.469 . S
C3946 C1692 1.469 . S
C3981 C1789 1.469 . S
C3996 C137 1.470 . S
C4031 C233 1.471 . S
C4046 C1877 1.469 . S
C4081 C1965 1.469 . S
C4096 C321 1.470 . S
C4131 C381 1.470 . S
C4146 C2053 1.469 . S
C4181 C1604 1.470 . S
C4196 C489 1.470 . S
C4231 C548 1.469 . S
C4246 C1545 1.468 . S
C4281 C1113 1.469 . S
C4296 C645 1.470 . S
C4331 C724 1.470 . S
C4346 C1201 1.469 . S
C4381 C821 1.471 . S
C4396 C1281 1.470 . S
C4431 C900 1.470 . S
C4446 C1377 1.469 . S
C4481 C997 1.470 . S
C4496 C1457 1.469 . S
