# Generated by pormake.
# Topology reo, (8)-cn, num edge types: 1
# Building blocks:
#     Node 0, Type 0, BuildingBlock: GIZVER_clean_sbu_0, # of connection points: 8
#     Node 1, Type 0, BuildingBlock: GIZVER_clean_sbu_0, # of connection points: 8
#     Node 2, Type 0, BuildingBlock: GIZVER_clean_sbu_0, # of connection points: 8
#     Edge 3, Type (0, 0), BuildingBlock: XIVTED_clean_linker_0, # of connection points: 2
#     Edge 4, Type (0, 0), BuildingBlock: XIVTED_clean_linker_0, # of connection points: 2
#     Edge 5, Type (0, 0), BuildingBlock: XIVTED_clean_linker_0, # of connection points: 2
#     Edge 6, Type (0, 0), BuildingBlock: XIVTED_clean_linker_0, # of connection points: 2
#     Edge 7, Type (0, 0), BuildingBlock: XIVTED_clean_linker_0, # of connection points: 2
#     Edge 8, Type (0, 0), BuildingBlock: XIVTED_clean_linker_0, # of connection points: 2
#     Edge 9, Type (0, 0), BuildingBlock: XIVTED_clean_linker_0, # of connection points: 2
#     Edge 10, Type (0, 0), BuildingBlock: XIVTED_clean_linker_0, # of connection points: 2
#     Edge 11, Type (0, 0), BuildingBlock: XIVTED_clean_linker_0, # of connection points: 2
#     Edge 12, Type (0, 0), BuildingBlock: XIVTED_clean_linker_0, # of connection points: 2
#     Edge 13, Type (0, 0), BuildingBlock: XIVTED_clean_linker_0, # of connection points: 2
#     Edge 14, Type (0, 0), BuildingBlock: XIVTED_clean_linker_0, # of connection points: 2
# Relax obj value: 0.091
# Max RMSD: 0.199
# Mean RMSD: 0.142
data_MOF--net-reo--node1-GIZVER_clean_sbu_0--edge1-XIVTED_clean_linker_0
_symmetry_space_group_name_H-M    P1
_symmetry_Int_Tables_number       1
_symmetry_cell_setting            triclinic
loop_
_symmetry_equiv_pos_as_xyz
'x, y, z'
_cell_length_a     24.397926
_cell_length_b     25.273946
_cell_length_c     25.664966
_cell_angle_alpha  107.28455
_cell_angle_beta   93.119047
_cell_angle_gamma 77.811999
loop_
_atom_site_label
_atom_site_type_symbol
_atom_site_fract_x
_atom_site_fract_y
_atom_site_fract_z
_atom_type_partial_charge
Co0 Co 0.0481 0.97383 0.60831 0.0
Co1 Co 0.11952 1.00419 0.55693 0.0
Co2 Co 1.00701 1.02439 0.49956 0.0
O3 O 0.05899 0.97134 0.5336 0.0
H4 H 0.0706 0.93347 0.50939 0.0
O5 O 0.95486 0.07692 0.46552 0.0
Co6 Co 0.96884 0.08721 0.39571 0.0
Co7 Co 0.89942 0.04107 0.43021 0.0
H8 H 0.93849 0.11208 0.49206 0.0
O9 O 0.18655 0.96107 0.56742 0.0
O10 O 0.11635 1.00668 0.62924 0.0
O11 O 0.11563 0.08152 0.55649 0.0
O12 O 0.02297 0.0966 0.55265 0.0
O13 O 0.06904 1.0226 0.4516 0.0
O14 O 0.97861 0.1017 0.33398 0.0
O15 O 0.92649 0.15935 0.40632 0.0
O16 O 0.01967 1.01479 0.37565 0.0
O17 O 0.99376 0.95163 0.44553 0.0
O18 O 0.90634 0.96079 0.41614 0.0
O19 O 0.90059 0.05569 0.36433 0.0
O20 O 0.83141 0.08342 0.42886 0.0
C21 C 0.06934 0.92026 0.65701 0.0
C22 C 0.95186 0.04258 0.60127 0.0
C23 C 0.06827 0.11518 0.56473 0.0
C24 C 0.16827 0.97996 0.61754 0.0
C25 C 0.94599 0.15002 0.35714 0.0
C26 C 0.06699 1.01253 0.3999 0.0
C27 C 0.95379 0.93017 0.41954 0.0
C28 C 0.84822 0.07825 0.38001 0.0
O29 O 0.04033 0.97144 0.67563 0.0
O30 O 0.08838 0.90298 0.6067 0.0
O31 O 0.94491 1.02713 0.54954 0.0
O32 O 1.00107 0.04534 0.6196 0.0
Co33 Co 0.62696 1.0251 0.93351 0.0
Co34 Co 0.56563 0.12258 0.98871 0.0
Co35 Co 0.51235 1.0281 0.00781 0.0
O36 O 0.5497 0.05178 0.95384 0.0
H37 H 0.52628 0.05428 0.92267 0.0
O38 O 0.47348 1.00317 0.06105 0.0
Co39 Co 0.41662 0.04525 0.11757 0.0
Co40 Co 0.40896 0.98919 0.02724 0.0
H41 H 0.49536 0.96966 0.06848 0.0
O42 O 0.58426 0.16922 0.95131 0.0
O43 O 0.64185 0.09914 0.97645 0.0
O44 O 0.55879 0.14974 0.06675 0.0
O45 O 0.55652 0.06411 0.07228 0.0
O46 O 0.45579 0.10109 0.01878 0.0
O47 O 0.36785 0.08017 0.17198 0.0
O48 O 0.42829 0.99666 0.15942 0.0
O49 O 0.39512 0.10125 0.08121 0.0
O50 O 0.46984 0.99065 0.94169 0.0
O51 O 0.38259 1.02109 0.9708 0.0
O52 O 0.35742 1.00396 0.07816 0.0
O53 O 0.40064 0.91971 0.01909 0.0
C54 C 0.6761 1.02452 0.87 0.0
C55 C 0.62335 0.95524 0.99763 0.0
C56 C 0.56656 0.11366 0.0931 0.0
C57 C 0.63454 0.14237 0.95768 0.0
C58 C 0.38657 0.03476 0.18673 0.0
C59 C 0.41063 0.12258 0.0468 0.0
C60 C 0.41826 1.00863 0.93324 0.0
C61 C 0.36317 0.94907 0.05652 0.0
O62 O 0.69773 1.0034 0.90884 0.0
O63 O 0.62235 0.04578 0.87102 0.0
O64 O 0.57071 0.95621 0.99577 0.0
O65 O 0.64153 0.99809 0.99521 0.0
Co66 Co 0.99092 0.42689 0.06582 0.0
Co67 Co 0.97228 0.41589 0.97455 0.0
Co68 Co 1.01305 0.52432 0.99475 0.0
O69 O 0.9668 0.48319 0.02606 0.0
H70 H 0.92822 0.50283 0.03301 0.0
O71 O 0.05864 0.56394 0.96272 0.0
Co72 Co 0.03445 0.63945 0.95846 0.0
Co73 Co 0.11001 0.59046 0.01352 0.0
H74 H 0.07829 0.53912 0.92991 0.0
O75 O 0.90677 0.40448 0.94828 0.0
O76 O 0.96347 0.36483 0.00687 0.0
O77 O 0.02975 0.39044 0.91989 0.0
O78 O 1.00656 0.47778 0.91535 0.0
O79 O 0.94214 0.57857 0.98657 0.0
O80 O 0.01638 0.70829 0.94882 0.0
O81 O 0.08111 0.63378 0.90297 0.0
O82 O 0.98051 0.65407 0.01396 0.0
O83 O 0.01659 0.57302 0.07284 0.0
O84 O 0.10257 0.58946 0.08762 0.0
O85 O 0.09037 0.66534 0.01403 0.0
O86 O 0.17458 0.60542 0.99393 0.0
C87 C 0.95878 0.39775 0.12272 0.0
C88 C 0.09692 0.42428 0.01219 0.0
C89 C 0.02879 0.42567 0.89383 0.0
C90 C 0.92062 0.36588 0.97344 0.0
C91 C 0.0537 0.68574 0.90981 0.0
C92 C 0.93719 0.63231 1.00289 0.0
C93 C 0.05456 0.59123 0.10528 0.0
C94 C 0.14428 0.65645 0.00652 0.0
O95 O 1.00971 0.37886 0.10423 0.0
O96 O 0.92646 0.43819 0.10627 0.0
O97 O 0.08647 0.47179 1.00187 0.0
O98 O 0.06061 0.4065 0.03208 0.0
H99 H 0.97587 0.28548 0.09939 0.0
H100 H 0.91415 0.26803 0.39364 0.0
H101 H 0.90121 0.43721 0.2231 0.0
H102 H 0.9445 0.12678 0.24746 0.0
H103 H 0.90401 0.33313 0.33646 0.0
H104 H 0.95952 0.22912 0.1557 0.0
C105 C 0.95433 0.30698 0.13804 0.0
C106 C 0.9386 0.36614 0.1557 0.0
C107 C 0.91199 0.28787 0.31714 0.0
C108 C 0.9223 0.3011 0.22326 0.0
C109 C 0.91771 0.25074 0.34969 0.0
C110 C 0.93117 0.19175 0.32542 0.0
C111 C 0.91963 0.26553 0.26016 0.0
C112 C 0.93524 0.17175 0.26831 0.0
C113 C 0.9455 0.27461 0.17078 0.0
C114 C 0.91295 0.39158 0.20744 0.0
N115 N 0.92995 0.20828 0.23808 0.0
N116 N 0.90634 0.35889 0.23996 0.0
H117 H 0.73508 0.10071 0.39366 0.0
H118 H 0.65312 0.16922 0.11417 0.0
H119 H 0.86239 0.08969 0.27809 0.0
H120 H 0.56047 0.07711 0.18202 0.0
H121 H 0.72211 0.16807 0.1873 0.0
H122 H 0.66315 0.1196 0.32846 0.0
C123 C 0.7481 0.10287 0.35479 0.0
C124 C 0.80513 0.0933 0.34121 0.0
C125 C 0.68611 0.14905 0.1865 0.0
C126 C 0.72237 0.11571 0.26684 0.0
C127 C 0.64642 0.15029 0.14542 0.0
C128 C 0.60093 0.12351 0.14253 0.0
C129 C 0.67934 0.12203 0.2254 0.0
C130 C 0.59487 0.09838 0.18312 0.0
C131 C 0.70683 0.11355 0.31766 0.0
C132 C 0.81904 0.09667 0.29013 0.0
N133 N 0.63368 0.09834 0.22308 0.0
N134 N 0.77778 0.10771 0.2546 0.0
H135 H 0.05406 0.85398 0.40733 0.0
H136 H 0.94919 0.63029 0.15129 0.0
H137 H 0.88231 0.869 0.35309 0.0
H138 H 0.12329 0.63426 0.18843 0.0
H139 H 0.92252 0.70439 0.23711 0.0
H140 H 0.0776 0.76125 0.33978 0.0
C141 C 0.02098 0.8375 0.3819 0.0
C142 C 0.96615 0.86997 0.38557 0.0
C143 C 0.96658 0.68838 0.22688 0.0
C144 C 0.99319 0.76349 0.30762 0.0
C145 C 0.98197 0.6457 0.17798 0.0
C146 C 0.03867 0.62634 0.16208 0.0
C147 C 1.00814 0.71182 0.26036 0.0
C148 C 0.07907 0.64819 0.19857 0.0
C149 C 0.03461 0.78448 0.34313 0.0
C150 C 0.92522 0.84591 0.35151 0.0
N151 N 0.063 0.69014 0.2456 0.0
N152 N 0.9397 0.79446 0.3136 0.0
H153 H 0.36074 0.93429 0.18719 0.0
H154 H 0.15305 0.06486 0.44143 0.0
H155 H 0.33301 0.11131 0.27693 0.0
H156 H 0.09944 0.95588 0.29259 0.0
H157 H 0.23752 0.06475 0.39433 0.0
H158 H 0.2835 0.92391 0.23911 0.0
C159 C 0.33945 0.97053 0.2187 0.0
C160 C 0.35301 1.02379 0.22745 0.0
C161 C 0.2075 0.04046 0.37217 0.0
C162 C 0.26588 1.01207 0.28747 0.0
C163 C 0.15928 0.04033 0.39892 0.0
C164 C 0.11888 1.01041 0.37084 0.0
C165 C 0.21651 1.00926 0.31718 0.0
C166 C 0.12929 0.97978 0.31563 0.0
C167 C 0.29516 0.96469 0.24787 0.0
C168 C 0.32401 0.06947 0.2689 0.0
N169 N 0.17737 0.97965 0.29059 0.0
N170 N 0.28202 0.06255 0.29744 0.0
H171 H 0.10998 0.80389 0.63252 0.0
H172 H 0.02158 0.7998 0.92764 0.0
H173 H 0.04753 0.95216 0.76595 0.0
H174 H 0.1087 0.64907 0.80986 0.0
H175 H 0.0324 0.85495 0.86708 0.0
H176 H 0.11255 0.74515 0.69459 0.0
C177 C 0.09751 0.82418 0.67481 0.0
C178 C 0.07813 0.88316 0.69372 0.0
C179 C 0.04954 0.80986 0.8543 0.0
C180 C 0.08043 0.8163 0.76471 0.0
C181 C 0.04325 0.7782 0.88902 0.0
C182 C 0.06406 0.71952 0.87392 0.0
C183 C 0.07642 0.78298 0.80335 0.0
C184 C 0.09206 0.69422 0.82328 0.0
C185 C 0.0988 0.79063 0.71017 0.0
C186 C 0.06232 0.90696 0.74901 0.0
N187 N 0.09702 0.72596 0.78959 0.0
N188 N 0.06348 0.87363 0.78209 0.0
H189 H 0.34446 0.09302 0.91045 0.0
H190 H 0.27513 0.91681 0.61116 0.0
H191 H 0.44121 0.92578 0.83541 0.0
H192 H 0.15468 0.04293 0.72395 0.0
H193 H 0.34599 0.92653 0.68316 0.0
H194 H 0.28727 0.0858 0.82886 0.0
C195 C 0.3544 0.05529 0.87596 0.0
C196 C 0.39686 1.00965 0.87932 0.0
C197 C 0.30394 0.95176 0.69187 0.0
C198 C 0.33088 1.00035 0.787 0.0
C199 C 0.2635 0.94616 0.65112 0.0
C200 C 0.20907 0.97934 0.66169 0.0
C201 C 0.28978 0.99147 0.74285 0.0
C202 C 0.19606 1.01651 0.71402 0.0
C203 C 0.32149 0.05093 0.8298 0.0
C204 C 0.40865 0.96175 0.83386 0.0
N205 N 0.23634 1.02194 0.75251 0.0
N206 N 0.37496 0.95782 0.7894 0.0
H207 H 0.12788 0.36505 0.8477 0.0
H208 H 0.97496 0.20052 0.59429 0.0
H209 H 0.95748 0.4282 0.80856 0.0
H210 H 0.15474 0.16552 0.61335 0.0
H211 H 0.9694 0.29141 0.66447 0.0
H212 H 0.14169 0.30083 0.75504 0.0
C213 C 0.09403 0.36672 0.81869 0.0
C214 C 0.04173 0.40209 0.83525 0.0
C215 C 1.01018 0.26435 0.65251 0.0
C216 C 0.05602 0.32682 0.73006 0.0
C217 C 1.0134 0.21232 0.61243 0.0
C218 C 0.0653 0.17466 0.59856 0.0
C219 C 0.0591 0.27856 0.67943 0.0
C220 C 0.11368 0.19267 0.62315 0.0
C221 C 0.10167 0.32977 0.76592 0.0
C222 C 0.99867 0.40197 0.79683 0.0
N223 N 0.10928 0.24276 0.66304 0.0
N224 N 1.00634 0.36387 0.74624 0.0
H225 H 0.64828 0.04216 0.76984 0.0
H226 H 0.95755 0.07017 0.71224 0.0
H227 H 0.78914 1.01727 0.87525 0.0
H228 H 0.84371 1.02371 0.57968 0.0
H229 H 0.88876 0.06752 0.77592 0.0
H230 H 0.71244 0.05005 0.7028 0.0
C231 C 0.69258 0.03826 0.77885 0.0
C232 C 0.71343 1.02848 0.82804 0.0
C233 C 0.87866 0.05795 0.73293 0.0
C234 C 0.7865 0.03859 0.75227 0.0
C235 C 0.91797 0.05952 0.69633 0.0
C236 C 0.90699 0.04624 0.6401 0.0
C237 C 0.82719 0.04374 0.71375 0.0
C238 C 0.85425 0.03382 0.62254 0.0
C239 C 0.72907 0.04268 0.74059 0.0
C240 C 0.77117 1.02409 0.83769 0.0
N241 N 0.81627 0.03275 0.65925 0.0
N242 N 0.80545 1.02949 0.80043 0.0
H243 H 0.11371 0.31522 0.95245 0.0
H244 H 0.43243 0.21706 0.02515 0.0
H245 H 0.20321 0.44281 0.04366 0.0
H246 H 0.29825 0.13489 0.0391 0.0
H247 H 0.36213 0.29494 1.00539 0.0
H248 H 0.19719 0.24247 0.95186 0.0
C249 C 0.15166 0.32804 0.97091 0.0
C250 C 0.15161 0.38497 0.9984 0.0
C251 C 0.34857 0.25961 0.01269 0.0
C252 C 0.24692 0.30164 0.99897 0.0
C253 C 0.38836 0.21538 0.02384 0.0
C254 C 0.37082 0.17 0.03439 0.0
C255 C 0.29156 0.25682 0.01016 0.0
C256 C 0.31345 0.16948 0.03204 0.0
C257 C 0.19906 0.28647 0.97093 0.0
C258 C 0.20183 0.39929 0.02188 0.0
N259 N 0.27606 0.21188 0.01977 0.0
N260 N 0.24759 0.35758 0.02251 0.0
H261 H 0.09669 0.76894 0.02324 0.0
H262 H 0.39441 0.85492 0.08717 0.0
H263 H 0.2555 0.65411 0.02261 0.0
H264 H 0.24837 0.97144 0.05736 0.0
H265 H 0.33607 0.78792 0.08688 0.0
H266 H 0.14515 0.84868 0.0522 0.0
C267 C 0.14165 0.76052 0.02907 0.0
C268 C 0.17228 0.70485 0.02015 0.0
C269 C 0.31632 0.82839 0.08116 0.0
C270 C 0.22716 0.79531 0.05432 0.0
C271 C 0.34956 0.86669 0.08181 0.0
C272 C 0.32584 0.91809 0.0719 0.0
C273 C 0.25928 0.84083 0.06851 0.0
C274 C 0.26775 0.93195 0.06529 0.0
C275 C 0.16906 0.80596 0.04588 0.0
C276 C 0.23025 0.69619 0.02844 0.0
N277 N 0.23625 0.89272 0.06244 0.0
N278 N 0.25568 0.74093 0.04511 0.0
H279 H 0.63922 0.21141 0.89496 0.0
H280 H 0.93005 0.27788 0.01781 0.0
H281 H 0.74127 0.11741 0.99355 0.0
H282 H 0.837 0.351 0.89937 0.0
H283 H 0.86789 0.21034 1.00193 0.0
H284 H 0.71799 0.25374 0.88664 0.0
C285 C 0.67843 0.19944 0.9145 0.0
C286 C 0.68353 0.16214 0.94607 0.0
C287 C 0.86161 0.24084 0.97905 0.0
C288 C 0.77345 0.21068 0.93748 0.0
C289 C 0.89674 0.27966 0.98855 0.0
C290 C 0.88757 0.32129 0.96142 0.0
C291 C 0.81724 0.24396 0.94205 0.0
C292 C 0.84487 0.32065 0.92243 0.0
C293 C 0.72348 0.22338 0.90962 0.0
C294 C 0.73551 0.14684 0.96954 0.0
N295 N 0.81097 0.28305 0.91441 0.0
N296 N 0.77831 0.17209 0.96566 0.0
H297 H 0.91665 0.69052 0.92917 0.0
H298 H 0.60835 0.86234 0.02758 0.0
H299 H 0.83763 0.65936 0.06009 0.0
H300 H 0.73339 0.92936 0.96894 0.0
H301 H 0.68027 0.77668 0.02599 0.0
H302 H 0.83612 0.76542 0.9263 0.0
C303 C 0.88202 0.69942 0.95717 0.0
C304 C 0.88405 0.66972 0.99557 0.0
C305 C 0.69149 0.81038 0.01353 0.0
C306 C 0.79138 0.75518 0.99243 0.0
C307 C 0.65064 0.85907 0.01431 0.0
C308 C 0.66481 0.9032 0.9984 0.0
C309 C 0.74615 0.80555 0.99537 0.0
C310 C 0.72029 0.89678 0.98171 0.0
C311 C 0.83605 0.74206 0.9555 0.0
C312 C 0.83741 0.68166 0.02998 0.0
N313 N 0.75854 0.84893 0.98026 0.0
N314 N 0.79282 0.72404 0.02797 0.0
loop_
_geom_bond_atom_site_label_1
_geom_bond_atom_site_label_2
_geom_bond_distance
_geom_bond_site_symmetry_2
_ccdc_geom_bond_type
Co0 O3 2.042 . S
Co0 O10 2.264 . S
Co0 O29 2.286 . S
Co0 O30 2.069 . S
Co0 O32 2.015 1_455 S
Co1 O3 2.122 1_545 S
Co1 O9 2.073 1_545 S
Co1 O10 2.327 1_545 S
Co1 O11 1.976 . S
Co2 O3 2.087 1_545 S
Co2 O5 2.087 1_455 S
Co2 O12 2.111 . S
Co2 O13 2.143 . S
Co2 O17 2.111 1_445 S
Co2 O31 2.143 1_445 S
O3 Co0 2.042 . S
O3 Co1 2.122 1_565 S
O3 Co2 2.087 1_565 S
O3 H4 0.980 . S
H4 O3 0.980 . S
O5 Co2 2.087 1_655 S
O5 Co6 2.042 . S
O5 Co7 2.122 1_545 S
O5 H8 0.980 . S
Co6 O5 2.042 . S
Co6 O14 2.286 . S
Co6 O15 2.069 . S
Co6 O16 2.015 1_655 S
Co6 O19 2.264 . S
Co7 O5 2.122 1_565 S
Co7 O18 1.976 . S
Co7 O19 2.327 1_565 S
Co7 O20 2.073 1_565 S
H8 O5 0.980 . S
O9 Co1 2.073 1_565 S
O9 C24 1.245 . S
O10 Co0 2.264 . S
O10 Co1 2.327 1_565 S
O10 C24 1.257 . S
O11 Co1 1.976 . S
O11 C23 1.251 . S
O12 Co2 2.111 . S
O12 C23 1.274 . S
O13 Co2 2.143 . S
O13 C26 1.246 1_545 S
O14 Co6 2.286 . S
O14 C25 1.259 . S
O15 Co6 2.069 . S
O15 C25 1.289 . S
O16 Co6 2.015 1_455 S
O16 C26 1.257 1_545 S
O17 Co2 2.111 1_665 S
O17 C27 1.274 . S
O18 Co7 1.976 . S
O18 C27 1.251 . S
O19 Co6 2.264 . S
O19 Co7 2.327 1_545 S
O19 C28 1.257 . S
O20 Co7 2.073 1_545 S
O20 C28 1.245 . S
C21 O29 1.259 . S
C21 O30 1.289 . S
C22 O31 1.246 1_545 S
C22 O32 1.257 1_545 S
C23 O11 1.251 . S
C23 O12 1.274 . S
C24 O9 1.245 . S
C24 O10 1.257 . S
C25 O14 1.259 . S
C25 O15 1.289 . S
C26 O13 1.246 1_565 S
C26 O16 1.257 1_565 S
C27 O17 1.274 . S
C27 O18 1.251 . S
C28 O19 1.257 . S
C28 O20 1.245 . S
O29 Co0 2.286 . S
O29 C21 1.259 . S
O30 Co0 2.069 . S
O30 C21 1.289 . S
O31 Co2 2.143 1_665 S
O31 C22 1.246 1_565 S
O32 Co0 2.015 1_655 S
O32 C22 1.257 1_565 S
Co33 O36 2.042 . S
Co33 O43 2.264 . S
Co33 O62 2.286 1_545 S
Co33 O63 2.069 . S
Co33 O65 2.015 1_545 S
Co34 O36 2.122 1_554 S
Co34 O42 2.073 . S
Co34 O43 2.327 1_554 S
Co34 O44 1.976 . S
Co35 O36 2.087 1_554 S
Co35 O38 2.087 1_545 S
Co35 O45 2.111 . S
Co35 O46 2.143 . S
Co35 O50 2.111 1_544 S
Co35 O64 2.143 1_544 S
O36 Co33 2.042 . S
O36 Co34 2.122 1_556 S
O36 Co35 2.087 1_556 S
O36 H37 0.980 . S
H37 O36 0.980 . S
O38 Co35 2.087 1_565 S
O38 Co39 2.042 . S
O38 Co40 2.122 1_554 S
O38 H41 0.980 . S
Co39 O38 2.042 . S
Co39 O47 2.286 1_565 S
Co39 O48 2.069 . S
Co39 O49 2.015 1_565 S
Co39 O52 2.264 . S
Co40 O38 2.122 1_556 S
Co40 O51 1.976 . S
Co40 O52 2.327 1_556 S
Co40 O53 2.073 . S
H41 O38 0.980 . S
O42 Co34 2.073 . S
O42 C57 1.245 1_554 S
O43 Co33 2.264 . S
O43 Co34 2.327 1_556 S
O43 C57 1.257 . S
O44 Co34 1.976 . S
O44 C56 1.251 . S
O45 Co35 2.111 . S
O45 C56 1.274 . S
O46 Co35 2.143 . S
O46 C59 1.246 . S
O47 Co39 2.286 1_545 S
O47 C58 1.259 1_545 S
O48 Co39 2.069 . S
O48 C58 1.289 . S
O49 Co39 2.015 1_545 S
O49 C59 1.257 . S
O50 Co35 2.111 1_566 S
O50 C60 1.274 . S
O51 Co40 1.976 . S
O51 C60 1.251 . S
O52 Co39 2.264 . S
O52 Co40 2.327 1_554 S
O52 C61 1.257 . S
O53 Co40 2.073 . S
O53 C61 1.245 1_556 S
C54 O62 1.259 1_545 S
C54 O63 1.289 . S
C55 O64 1.246 . S
C55 O65 1.257 . S
C56 O44 1.251 . S
C56 O45 1.274 . S
C57 O42 1.245 1_556 S
C57 O43 1.257 . S
C58 O47 1.259 1_565 S
C58 O48 1.289 . S
C59 O46 1.246 . S
C59 O49 1.257 . S
C60 O50 1.274 . S
C60 O51 1.251 . S
C61 O52 1.257 . S
C61 O53 1.245 1_554 S
O62 Co33 2.286 1_565 S
O62 C54 1.259 1_565 S
O63 Co33 2.069 . S
O63 C54 1.289 . S
O64 Co35 2.143 1_566 S
O64 C55 1.246 . S
O65 Co33 2.015 1_565 S
O65 C55 1.257 . S
Co66 O69 2.042 . S
Co66 O76 2.264 . S
Co66 O95 2.286 1_655 S
Co66 O96 2.069 . S
Co66 O98 2.015 1_655 S
Co67 O69 2.122 1_556 S
Co67 O75 2.073 1_556 S
Co67 O76 2.327 1_556 S
Co67 O77 1.976 . S
Co68 O69 2.087 1_455 S
Co68 O71 2.087 1_554 S
Co68 O78 2.111 1_454 S
Co68 O79 2.143 1_454 S
Co68 O83 2.111 . S
Co68 O97 2.143 . S
O69 Co66 2.042 . S
O69 Co67 2.122 1_554 S
O69 Co68 2.087 1_655 S
O69 H70 0.980 . S
H70 O69 0.980 . S
O71 Co68 2.087 1_556 S
O71 Co72 2.042 . S
O71 Co73 2.122 1_556 S
O71 H74 0.980 . S
Co72 O71 2.042 . S
Co72 O80 2.286 1_455 S
Co72 O81 2.069 . S
Co72 O82 2.015 1_455 S
Co72 O85 2.264 . S
Co73 O71 2.122 1_554 S
Co73 O84 1.976 . S
Co73 O85 2.327 1_554 S
Co73 O86 2.073 1_554 S
H74 O71 0.980 . S
O75 Co67 2.073 1_554 S
O75 C90 1.245 . S
O76 Co66 2.264 . S
O76 Co67 2.327 1_554 S
O76 C90 1.257 . S
O77 Co67 1.976 . S
O77 C89 1.251 . S
O78 Co68 2.111 1_656 S
O78 C89 1.274 . S
O79 Co68 2.143 1_656 S
O79 C92 1.249 1_556 S
O80 Co72 2.286 1_655 S
O80 C91 1.259 1_655 S
O81 Co72 2.069 . S
O81 C91 1.289 . S
O82 Co72 2.015 1_655 S
O82 C92 1.247 1_556 S
O83 Co68 2.111 . S
O83 C93 1.274 . S
O84 Co73 1.976 . S
O84 C93 1.251 . S
O85 Co72 2.264 . S
O85 Co73 2.327 1_556 S
O85 C94 1.257 . S
O86 Co73 2.073 1_556 S
O86 C94 1.245 . S
C87 O95 1.259 1_655 S
C87 O96 1.289 . S
C88 O97 1.248 1_556 S
C88 O98 1.250 1_556 S
C89 O77 1.251 . S
C89 O78 1.274 . S
C90 O75 1.245 . S
C90 O76 1.257 . S
C91 O80 1.259 1_455 S
C91 O81 1.289 . S
C92 O79 1.249 1_554 S
C92 O82 1.247 1_554 S
C93 O83 1.274 . S
C93 O84 1.251 . S
C94 O85 1.257 . S
C94 O86 1.245 . S
O95 Co66 2.286 1_455 S
O95 C87 1.259 1_455 S
O96 Co66 2.069 . S
O96 C87 1.289 . S
O97 Co68 2.143 . S
O97 C88 1.248 1_554 S
O98 Co66 2.015 1_455 S
O98 C88 1.250 1_554 S
H99 C105 0.930 . S
H100 C109 0.930 . S
H101 C114 0.929 . S
H102 C112 0.929 . S
H103 C107 0.929 . S
H104 C113 0.929 . S
C105 H99 0.930 . S
C105 C106 1.367 . S
C105 C113 1.378 . S
C106 C105 1.367 . S
C106 C114 1.433 . S
C107 H103 0.929 . S
C107 C109 1.378 . S
C107 C111 1.350 . S
C108 C111 1.463 . S
C108 C113 1.350 . S
C108 N116 1.427 . S
C109 H100 0.930 . S
C109 C107 1.378 . S
C109 C110 1.367 . S
C110 C109 1.367 . S
C110 C112 1.433 . S
C111 C107 1.350 . S
C111 C108 1.463 . S
C111 N115 1.427 . S
C112 H102 0.929 . S
C112 C110 1.433 . S
C112 N115 1.384 . S
C113 H104 0.929 . S
C113 C105 1.378 . S
C113 C108 1.350 . S
C114 H101 0.929 . S
C114 C106 1.433 . S
C114 N116 1.384 . S
N115 C111 1.427 . S
N115 C112 1.384 . S
N116 C108 1.427 . S
N116 C114 1.384 . S
H117 C123 0.930 . S
H118 C127 0.930 . S
H119 C132 0.929 . S
H120 C130 0.929 . S
H121 C125 0.929 . S
H122 C131 0.929 . S
C123 H117 0.930 . S
C123 C124 1.367 . S
C123 C131 1.378 . S
C124 C123 1.367 . S
C124 C132 1.433 . S
C125 H121 0.929 . S
C125 C127 1.378 . S
C125 C129 1.350 . S
C126 C129 1.463 . S
C126 C131 1.350 . S
C126 N134 1.427 . S
C127 H118 0.930 . S
C127 C125 1.378 . S
C127 C128 1.367 . S
C128 C127 1.367 . S
C128 C130 1.433 1_545 S
C129 C125 1.350 . S
C129 C126 1.463 . S
C129 N133 1.427 . S
C130 H120 0.929 . S
C130 C128 1.433 1_565 S
C130 N133 1.384 1_565 S
C131 H122 0.929 . S
C131 C123 1.378 . S
C131 C126 1.350 . S
C132 H119 0.929 . S
C132 C124 1.433 . S
C132 N134 1.384 . S
N133 C129 1.427 . S
N133 C130 1.384 1_545 S
N134 C126 1.427 . S
N134 C132 1.384 . S
H135 C141 0.930 . S
H136 C145 0.930 . S
H137 C150 0.929 . S
H138 C148 0.929 . S
H139 C143 0.929 . S
H140 C149 0.929 . S
C141 H135 0.930 . S
C141 C142 1.367 . S
C141 C149 1.378 . S
C142 C141 1.367 . S
C142 C150 1.433 1_455 S
C143 H139 0.929 . S
C143 C145 1.378 . S
C143 C147 1.350 . S
C144 C147 1.463 1_455 S
C144 C149 1.350 . S
C144 N152 1.427 1_455 S
C145 H136 0.930 . S
C145 C143 1.378 . S
C145 C146 1.367 . S
C146 C145 1.367 . S
C146 C148 1.433 1_655 S
C147 C143 1.350 . S
C147 C144 1.463 1_655 S
C147 N151 1.427 1_655 S
C148 H138 0.929 . S
C148 C146 1.433 1_455 S
C148 N151 1.384 . S
C149 H140 0.929 . S
C149 C141 1.378 . S
C149 C144 1.350 . S
C150 H137 0.929 . S
C150 C142 1.433 1_655 S
C150 N152 1.384 . S
N151 C147 1.427 1_455 S
N151 C148 1.384 . S
N152 C144 1.427 1_655 S
N152 C150 1.384 . S
H153 C159 0.930 . S
H154 C163 0.930 . S
H155 C168 0.929 . S
H156 C166 0.929 . S
H157 C161 0.929 . S
H158 C167 0.929 . S
C159 H153 0.930 . S
C159 C160 1.367 . S
C159 C167 1.378 . S
C160 C159 1.367 . S
C160 C168 1.433 1_565 S
C161 H157 0.929 . S
C161 C163 1.378 . S
C161 C165 1.350 1_545 S
C162 C165 1.463 . S
C162 C167 1.350 . S
C162 N170 1.427 1_565 S
C163 H154 0.930 . S
C163 C161 1.378 . S
C163 C164 1.367 1_545 S
C164 C163 1.367 1_565 S
C164 C166 1.433 . S
C165 C161 1.350 1_565 S
C165 C162 1.463 . S
C165 N169 1.427 . S
C166 H156 0.929 . S
C166 C164 1.433 . S
C166 N169 1.384 . S
C167 H158 0.929 . S
C167 C159 1.378 . S
C167 C162 1.350 . S
C168 H155 0.929 . S
C168 C160 1.433 1_545 S
C168 N170 1.384 . S
N169 C165 1.427 . S
N169 C166 1.384 . S
N170 C162 1.427 1_545 S
N170 C168 1.384 . S
H171 C177 0.930 . S
H172 C181 0.930 . S
H173 C186 0.929 . S
H174 C184 0.929 . S
H175 C179 0.929 . S
H176 C185 0.929 . S
C177 H171 0.930 . S
C177 C178 1.367 . S
C177 C185 1.378 . S
C178 C177 1.367 . S
C178 C186 1.433 . S
C179 H175 0.929 . S
C179 C181 1.378 . S
C179 C183 1.350 . S
C180 C183 1.463 . S
C180 C185 1.350 . S
C180 N188 1.427 . S
C181 H172 0.930 . S
C181 C179 1.378 . S
C181 C182 1.367 . S
C182 C181 1.367 . S
C182 C184 1.433 . S
C183 C179 1.350 . S
C183 C180 1.463 . S
C183 N187 1.427 . S
C184 H174 0.929 . S
C184 C182 1.433 . S
C184 N187 1.384 . S
C185 H176 0.929 . S
C185 C177 1.378 . S
C185 C180 1.350 . S
C186 H173 0.929 . S
C186 C178 1.433 . S
C186 N188 1.384 . S
N187 C183 1.427 . S
N187 C184 1.384 . S
N188 C180 1.427 . S
N188 C186 1.384 . S
H189 C195 0.930 . S
H190 C199 0.930 . S
H191 C204 0.929 . S
H192 C202 0.929 . S
H193 C197 0.929 . S
H194 C203 0.929 . S
C195 H189 0.930 . S
C195 C196 1.367 1_545 S
C195 C203 1.378 . S
C196 C195 1.367 1_565 S
C196 C204 1.433 . S
C197 H193 0.929 . S
C197 C199 1.378 . S
C197 C201 1.350 . S
C198 C201 1.463 . S
C198 C203 1.350 1_565 S
C198 N206 1.427 . S
C199 H190 0.930 . S
C199 C197 1.378 . S
C199 C200 1.367 . S
C200 C199 1.367 . S
C200 C202 1.433 1_565 S
C201 C197 1.350 . S
C201 C198 1.463 . S
C201 N205 1.427 1_565 S
C202 H192 0.929 . S
C202 C200 1.433 1_545 S
C202 N205 1.384 . S
C203 H194 0.929 . S
C203 C195 1.378 . S
C203 C198 1.350 1_545 S
C204 H191 0.929 . S
C204 C196 1.433 . S
C204 N206 1.384 . S
N205 C201 1.427 1_545 S
N205 C202 1.384 . S
N206 C198 1.427 . S
N206 C204 1.384 . S
H207 C213 0.930 . S
H208 C217 0.930 . S
H209 C222 0.929 . S
H210 C220 0.929 . S
H211 C215 0.929 . S
H212 C221 0.929 . S
C213 H207 0.930 . S
C213 C214 1.367 . S
C213 C221 1.378 . S
C214 C213 1.367 . S
C214 C222 1.433 1_455 S
C215 H211 0.929 . S
C215 C217 1.378 . S
C215 C219 1.350 . S
C216 C219 1.463 1_455 S
C216 C221 1.350 . S
C216 N224 1.427 1_455 S
C217 H208 0.930 . S
C217 C215 1.378 . S
C217 C218 1.367 . S
C218 C217 1.367 . S
C218 C220 1.433 1_655 S
C219 C215 1.350 . S
C219 C216 1.463 1_655 S
C219 N223 1.427 1_655 S
C220 H210 0.929 . S
C220 C218 1.433 1_455 S
C220 N223 1.384 . S
C221 H212 0.929 . S
C221 C213 1.378 . S
C221 C216 1.350 . S
C222 H209 0.929 . S
C222 C214 1.433 1_655 S
C222 N224 1.384 . S
N223 C219 1.427 1_455 S
N223 C220 1.384 . S
N224 C216 1.427 1_655 S
N224 C222 1.384 . S
H225 C231 0.930 . S
H226 C235 0.930 . S
H227 C240 0.929 . S
H228 C238 0.929 . S
H229 C233 0.929 . S
H230 C239 0.929 . S
C231 H225 0.930 . S
C231 C232 1.367 1_565 S
C231 C239 1.378 . S
C232 C231 1.367 1_545 S
C232 C240 1.433 . S
C233 H229 0.929 . S
C233 C235 1.378 . S
C233 C237 1.350 . S
C234 C237 1.463 . S
C234 C239 1.350 1_545 S
C234 N242 1.427 . S
C235 H226 0.930 . S
C235 C233 1.378 . S
C235 C236 1.367 . S
C236 C235 1.367 . S
C236 C238 1.433 1_545 S
C237 C233 1.350 . S
C237 C234 1.463 . S
C237 N241 1.427 1_545 S
C238 H228 0.929 . S
C238 C236 1.433 1_565 S
C238 N241 1.384 . S
C239 H230 0.929 . S
C239 C231 1.378 . S
C239 C234 1.350 1_565 S
C240 H227 0.929 . S
C240 C232 1.433 . S
C240 N242 1.384 . S
N241 C237 1.427 1_565 S
N241 C238 1.384 . S
N242 C234 1.427 . S
N242 C240 1.384 . S
H243 C249 0.930 . S
H244 C253 0.930 . S
H245 C258 0.929 . S
H246 C256 0.929 . S
H247 C251 0.929 . S
H248 C257 0.929 . S
C249 H243 0.930 . S
C249 C250 1.367 . S
C249 C257 1.378 . S
C250 C249 1.367 . S
C250 C258 1.433 . S
C251 H247 0.929 . S
C251 C253 1.378 . S
C251 C255 1.350 1_554 S
C252 C255 1.462 . S
C252 C257 1.350 . S
C252 N260 1.427 . S
C253 H244 0.930 . S
C253 C251 1.378 . S
C253 C254 1.367 . S
C254 C253 1.367 . S
C254 C256 1.433 . S
C255 C251 1.350 1_556 S
C255 C252 1.462 . S
C255 N259 1.428 1_556 S
C256 H246 0.929 . S
C256 C254 1.433 . S
C256 N259 1.384 . S
C257 H248 0.929 . S
C257 C249 1.378 . S
C257 C252 1.350 . S
C258 H245 0.929 . S
C258 C250 1.433 . S
C258 N260 1.384 . S
N259 C255 1.428 1_554 S
N259 C256 1.384 . S
N260 C252 1.427 . S
N260 C258 1.384 . S
H261 C267 0.930 . S
H262 C271 0.930 . S
H263 C276 0.929 . S
H264 C274 0.929 . S
H265 C269 0.929 . S
H266 C275 0.929 . S
C267 H261 0.930 . S
C267 C268 1.367 . S
C267 C275 1.378 . S
C268 C267 1.367 . S
C268 C276 1.433 1_556 S
C269 H265 0.929 . S
C269 C271 1.378 . S
C269 C273 1.350 . S
C270 C273 1.463 1_556 S
C270 C275 1.350 . S
C270 N278 1.427 1_556 S
C271 H262 0.930 . S
C271 C269 1.378 . S
C271 C272 1.367 . S
C272 C271 1.367 . S
C272 C274 1.433 1_554 S
C273 C269 1.350 . S
C273 C270 1.463 1_554 S
C273 N277 1.427 1_554 S
C274 H264 0.929 . S
C274 C272 1.433 1_556 S
C274 N277 1.384 . S
C275 H266 0.929 . S
C275 C267 1.378 . S
C275 C270 1.350 . S
C276 H263 0.929 . S
C276 C268 1.433 1_554 S
C276 N278 1.384 . S
N277 C273 1.427 1_556 S
N277 C274 1.384 . S
N278 C270 1.427 1_554 S
N278 C276 1.384 . S
H279 C285 0.930 . S
H280 C289 0.930 . S
H281 C294 0.929 . S
H282 C292 0.929 . S
H283 C287 0.929 . S
H284 C293 0.929 . S
C285 H279 0.930 . S
C285 C286 1.367 . S
C285 C293 1.378 . S
C286 C285 1.367 . S
C286 C294 1.433 1_556 S
C287 H283 0.929 . S
C287 C289 1.378 . S
C287 C291 1.350 . S
C288 C291 1.463 1_556 S
C288 C293 1.350 . S
C288 N296 1.427 1_556 S
C289 H280 0.930 . S
C289 C287 1.378 . S
C289 C290 1.367 . S
C290 C289 1.367 . S
C290 C292 1.433 1_554 S
C291 C287 1.350 . S
C291 C288 1.463 1_554 S
C291 N295 1.427 1_554 S
C292 H282 0.929 . S
C292 C290 1.433 1_556 S
C292 N295 1.384 . S
C293 H284 0.929 . S
C293 C285 1.378 . S
C293 C288 1.350 . S
C294 H281 0.929 . S
C294 C286 1.433 1_554 S
C294 N296 1.384 . S
N295 C291 1.427 1_556 S
N295 C292 1.384 . S
N296 C288 1.427 1_554 S
N296 C294 1.384 . S
H297 C303 0.930 . S
H298 C307 0.930 . S
H299 C312 0.929 . S
H300 C310 0.929 . S
H301 C305 0.929 . S
H302 C311 0.929 . S
C303 H297 0.930 . S
C303 C304 1.367 1_556 S
C303 C311 1.378 . S
C304 C303 1.367 1_554 S
C304 C312 1.433 . S
C305 H301 0.929 . S
C305 C307 1.378 . S
C305 C309 1.350 . S
C306 C309 1.463 . S
C306 C311 1.350 1_554 S
C306 N314 1.427 . S
C307 H298 0.930 . S
C307 C305 1.378 . S
C307 C308 1.367 1_554 S
C308 C307 1.367 1_556 S
C308 C310 1.433 . S
C309 C305 1.350 . S
C309 C306 1.463 . S
C309 N313 1.427 1_554 S
C310 H300 0.929 . S
C310 C308 1.433 . S
C310 N313 1.384 . S
C311 H302 0.929 . S
C311 C303 1.378 . S
C311 C306 1.350 1_556 S
C312 H299 0.929 . S
C312 C304 1.433 . S
C312 N314 1.384 . S
N313 C309 1.427 1_556 S
N313 C310 1.384 . S
N314 C306 1.427 . S
N314 C312 1.384 . S
C106 C87 1.738 . S
C110 C25 1.696 . S
C124 C28 1.170 . S
C128 C56 1.158 . S
C142 C27 1.126 1_455 S
C146 C93 1.139 1_655 S
C160 C58 1.969 . S
C164 C26 1.835 . S
C178 C21 1.692 . S
C182 C91 1.741 . S
C196 C60 1.179 . S
C200 C24 1.190 . S
C214 C89 1.143 1_455 S
C218 C23 1.132 1_655 S
C232 C54 1.967 . S
C236 C22 1.841 . S
C250 C88 2.065 . S
C254 C59 2.143 . S
C268 C94 1.123 . S
C272 C61 1.126 . S
C286 C57 1.130 . S
C290 C90 1.126 . S
C304 C92 2.065 . S
C308 C55 2.144 . S
