# Generated by pormake.
# Topology fcr, (5)-cn, num edge types: 1
# Building blocks:
#     Node 0, Type 0, BuildingBlock: BEQFEK_clean_sbu_0, # of connection points: 5
#     Node 1, Type 0, BuildingBlock: BEQFEK_clean_sbu_0, # of connection points: 5
#     Node 2, Type 0, BuildingBlock: BEQFEK_clean_sbu_0, # of connection points: 5
#     Node 3, Type 0, BuildingBlock: BEQFEK_clean_sbu_0, # of connection points: 5
#     Node 4, Type 0, BuildingBlock: BEQFEK_clean_sbu_0, # of connection points: 5
#     Node 5, Type 0, BuildingBlock: BEQFEK_clean_sbu_0, # of connection points: 5
#     Node 6, Type 0, BuildingBlock: BEQFEK_clean_sbu_0, # of connection points: 5
#     Node 7, Type 0, BuildingBlock: BEQFEK_clean_sbu_0, # of connection points: 5
#     Node 8, Type 0, BuildingBlock: BEQFEK_clean_sbu_0, # of connection points: 5
#     Node 9, Type 0, BuildingBlock: BEQFEK_clean_sbu_0, # of connection points: 5
#     Node 10, Type 0, BuildingBlock: BEQFEK_clean_sbu_0, # of connection points: 5
#     Node 11, Type 0, BuildingBlock: BEQFEK_clean_sbu_0, # of connection points: 5
#     Node 12, Type 0, BuildingBlock: BEQFEK_clean_sbu_0, # of connection points: 5
#     Node 13, Type 0, BuildingBlock: BEQFEK_clean_sbu_0, # of connection points: 5
#     Node 14, Type 0, BuildingBlock: BEQFEK_clean_sbu_0, # of connection points: 5
#     Node 15, Type 0, BuildingBlock: BEQFEK_clean_sbu_0, # of connection points: 5
#     Node 16, Type 0, BuildingBlock: BEQFEK_clean_sbu_0, # of connection points: 5
#     Node 17, Type 0, BuildingBlock: BEQFEK_clean_sbu_0, # of connection points: 5
#     Node 18, Type 0, BuildingBlock: BEQFEK_clean_sbu_0, # of connection points: 5
#     Node 19, Type 0, BuildingBlock: BEQFEK_clean_sbu_0, # of connection points: 5
#     Node 20, Type 0, BuildingBlock: BEQFEK_clean_sbu_0, # of connection points: 5
#     Node 21, Type 0, BuildingBlock: BEQFEK_clean_sbu_0, # of connection points: 5
#     Node 22, Type 0, BuildingBlock: BEQFEK_clean_sbu_0, # of connection points: 5
#     Node 23, Type 0, BuildingBlock: BEQFEK_clean_sbu_0, # of connection points: 5
#     Node 24, Type 0, BuildingBlock: BEQFEK_clean_sbu_0, # of connection points: 5
#     Node 25, Type 0, BuildingBlock: BEQFEK_clean_sbu_0, # of connection points: 5
#     Node 26, Type 0, BuildingBlock: BEQFEK_clean_sbu_0, # of connection points: 5
#     Node 27, Type 0, BuildingBlock: BEQFEK_clean_sbu_0, # of connection points: 5
#     Node 28, Type 0, BuildingBlock: BEQFEK_clean_sbu_0, # of connection points: 5
#     Node 29, Type 0, BuildingBlock: BEQFEK_clean_sbu_0, # of connection points: 5
#     Node 30, Type 0, BuildingBlock: BEQFEK_clean_sbu_0, # of connection points: 5
#     Node 31, Type 0, BuildingBlock: BEQFEK_clean_sbu_0, # of connection points: 5
#     Node 32, Type 0, BuildingBlock: BEQFEK_clean_sbu_0, # of connection points: 5
#     Node 33, Type 0, BuildingBlock: BEQFEK_clean_sbu_0, # of connection points: 5
#     Node 34, Type 0, BuildingBlock: BEQFEK_clean_sbu_0, # of connection points: 5
#     Node 35, Type 0, BuildingBlock: BEQFEK_clean_sbu_0, # of connection points: 5
#     Node 36, Type 0, BuildingBlock: BEQFEK_clean_sbu_0, # of connection points: 5
#     Node 37, Type 0, BuildingBlock: BEQFEK_clean_sbu_0, # of connection points: 5
#     Node 38, Type 0, BuildingBlock: BEQFEK_clean_sbu_0, # of connection points: 5
#     Node 39, Type 0, BuildingBlock: BEQFEK_clean_sbu_0, # of connection points: 5
#     Node 40, Type 0, BuildingBlock: BEQFEK_clean_sbu_0, # of connection points: 5
#     Node 41, Type 0, BuildingBlock: BEQFEK_clean_sbu_0, # of connection points: 5
#     Node 42, Type 0, BuildingBlock: BEQFEK_clean_sbu_0, # of connection points: 5
#     Node 43, Type 0, BuildingBlock: BEQFEK_clean_sbu_0, # of connection points: 5
#     Node 44, Type 0, BuildingBlock: BEQFEK_clean_sbu_0, # of connection points: 5
#     Node 45, Type 0, BuildingBlock: BEQFEK_clean_sbu_0, # of connection points: 5
#     Node 46, Type 0, BuildingBlock: BEQFEK_clean_sbu_0, # of connection points: 5
#     Node 47, Type 0, BuildingBlock: BEQFEK_clean_sbu_0, # of connection points: 5
#     Edge 48, Type (0, 0), BuildingBlock: KIFKEQ_clean_linker_1, # of connection points: 2
#     Edge 49, Type (0, 0), BuildingBlock: KIFKEQ_clean_linker_1, # of connection points: 2
#     Edge 50, Type (0, 0), BuildingBlock: KIFKEQ_clean_linker_1, # of connection points: 2
#     Edge 51, Type (0, 0), BuildingBlock: KIFKEQ_clean_linker_1, # of connection points: 2
#     Edge 52, Type (0, 0), BuildingBlock: KIFKEQ_clean_linker_1, # of connection points: 2
#     Edge 53, Type (0, 0), BuildingBlock: KIFKEQ_clean_linker_1, # of connection points: 2
#     Edge 54, Type (0, 0), BuildingBlock: KIFKEQ_clean_linker_1, # of connection points: 2
#     Edge 55, Type (0, 0), BuildingBlock: KIFKEQ_clean_linker_1, # of connection points: 2
#     Edge 56, Type (0, 0), BuildingBlock: KIFKEQ_clean_linker_1, # of connection points: 2
#     Edge 57, Type (0, 0), BuildingBlock: KIFKEQ_clean_linker_1, # of connection points: 2
#     Edge 58, Type (0, 0), BuildingBlock: KIFKEQ_clean_linker_1, # of connection points: 2
#     Edge 59, Type (0, 0), BuildingBlock: KIFKEQ_clean_linker_1, # of connection points: 2
#     Edge 60, Type (0, 0), BuildingBlock: KIFKEQ_clean_linker_1, # of connection points: 2
#     Edge 61, Type (0, 0), BuildingBlock: KIFKEQ_clean_linker_1, # of connection points: 2
#     Edge 62, Type (0, 0), BuildingBlock: KIFKEQ_clean_linker_1, # of connection points: 2
#     Edge 63, Type (0, 0), BuildingBlock: KIFKEQ_clean_linker_1, # of connection points: 2
#     Edge 64, Type (0, 0), BuildingBlock: KIFKEQ_clean_linker_1, # of connection points: 2
#     Edge 65, Type (0, 0), BuildingBlock: KIFKEQ_clean_linker_1, # of connection points: 2
#     Edge 66, Type (0, 0), BuildingBlock: KIFKEQ_clean_linker_1, # of connection points: 2
#     Edge 67, Type (0, 0), BuildingBlock: KIFKEQ_clean_linker_1, # of connection points: 2
#     Edge 68, Type (0, 0), BuildingBlock: KIFKEQ_clean_linker_1, # of connection points: 2
#     Edge 69, Type (0, 0), BuildingBlock: KIFKEQ_clean_linker_1, # of connection points: 2
#     Edge 70, Type (0, 0), BuildingBlock: KIFKEQ_clean_linker_1, # of connection points: 2
#     Edge 71, Type (0, 0), BuildingBlock: KIFKEQ_clean_linker_1, # of connection points: 2
#     Edge 72, Type (0, 0), BuildingBlock: KIFKEQ_clean_linker_1, # of connection points: 2
#     Edge 73, Type (0, 0), BuildingBlock: KIFKEQ_clean_linker_1, # of connection points: 2
#     Edge 74, Type (0, 0), BuildingBlock: KIFKEQ_clean_linker_1, # of connection points: 2
#     Edge 75, Type (0, 0), BuildingBlock: KIFKEQ_clean_linker_1, # of connection points: 2
#     Edge 76, Type (0, 0), BuildingBlock: KIFKEQ_clean_linker_1, # of connection points: 2
#     Edge 77, Type (0, 0), BuildingBlock: KIFKEQ_clean_linker_1, # of connection points: 2
#     Edge 78, Type (0, 0), BuildingBlock: KIFKEQ_clean_linker_1, # of connection points: 2
#     Edge 79, Type (0, 0), BuildingBlock: KIFKEQ_clean_linker_1, # of connection points: 2
#     Edge 80, Type (0, 0), BuildingBlock: KIFKEQ_clean_linker_1, # of connection points: 2
#     Edge 81, Type (0, 0), BuildingBlock: KIFKEQ_clean_linker_1, # of connection points: 2
#     Edge 82, Type (0, 0), BuildingBlock: KIFKEQ_clean_linker_1, # of connection points: 2
#     Edge 83, Type (0, 0), BuildingBlock: KIFKEQ_clean_linker_1, # of connection points: 2
#     Edge 84, Type (0, 0), BuildingBlock: KIFKEQ_clean_linker_1, # of connection points: 2
#     Edge 85, Type (0, 0), BuildingBlock: KIFKEQ_clean_linker_1, # of connection points: 2
#     Edge 86, Type (0, 0), BuildingBlock: KIFKEQ_clean_linker_1, # of connection points: 2
#     Edge 87, Type (0, 0), BuildingBlock: KIFKEQ_clean_linker_1, # of connection points: 2
#     Edge 88, Type (0, 0), BuildingBlock: KIFKEQ_clean_linker_1, # of connection points: 2
#     Edge 89, Type (0, 0), BuildingBlock: KIFKEQ_clean_linker_1, # of connection points: 2
#     Edge 90, Type (0, 0), BuildingBlock: KIFKEQ_clean_linker_1, # of connection points: 2
#     Edge 91, Type (0, 0), BuildingBlock: KIFKEQ_clean_linker_1, # of connection points: 2
#     Edge 92, Type (0, 0), BuildingBlock: KIFKEQ_clean_linker_1, # of connection points: 2
#     Edge 93, Type (0, 0), BuildingBlock: KIFKEQ_clean_linker_1, # of connection points: 2
#     Edge 94, Type (0, 0), BuildingBlock: KIFKEQ_clean_linker_1, # of connection points: 2
#     Edge 95, Type (0, 0), BuildingBlock: KIFKEQ_clean_linker_1, # of connection points: 2
#     Edge 96, Type (0, 0), BuildingBlock: KIFKEQ_clean_linker_1, # of connection points: 2
#     Edge 97, Type (0, 0), BuildingBlock: KIFKEQ_clean_linker_1, # of connection points: 2
#     Edge 98, Type (0, 0), BuildingBlock: KIFKEQ_clean_linker_1, # of connection points: 2
#     Edge 99, Type (0, 0), BuildingBlock: KIFKEQ_clean_linker_1, # of connection points: 2
#     Edge 100, Type (0, 0), BuildingBlock: KIFKEQ_clean_linker_1, # of connection points: 2
#     Edge 101, Type (0, 0), BuildingBlock: KIFKEQ_clean_linker_1, # of connection points: 2
#     Edge 102, Type (0, 0), BuildingBlock: KIFKEQ_clean_linker_1, # of connection points: 2
#     Edge 103, Type (0, 0), BuildingBlock: KIFKEQ_clean_linker_1, # of connection points: 2
#     Edge 104, Type (0, 0), BuildingBlock: KIFKEQ_clean_linker_1, # of connection points: 2
#     Edge 105, Type (0, 0), BuildingBlock: KIFKEQ_clean_linker_1, # of connection points: 2
#     Edge 106, Type (0, 0), BuildingBlock: KIFKEQ_clean_linker_1, # of connection points: 2
#     Edge 107, Type (0, 0), BuildingBlock: KIFKEQ_clean_linker_1, # of connection points: 2
#     Edge 108, Type (0, 0), BuildingBlock: KIFKEQ_clean_linker_1, # of connection points: 2
#     Edge 109, Type (0, 0), BuildingBlock: KIFKEQ_clean_linker_1, # of connection points: 2
#     Edge 110, Type (0, 0), BuildingBlock: KIFKEQ_clean_linker_1, # of connection points: 2
#     Edge 111, Type (0, 0), BuildingBlock: KIFKEQ_clean_linker_1, # of connection points: 2
#     Edge 112, Type (0, 0), BuildingBlock: KIFKEQ_clean_linker_1, # of connection points: 2
#     Edge 113, Type (0, 0), BuildingBlock: KIFKEQ_clean_linker_1, # of connection points: 2
#     Edge 114, Type (0, 0), BuildingBlock: KIFKEQ_clean_linker_1, # of connection points: 2
#     Edge 115, Type (0, 0), BuildingBlock: KIFKEQ_clean_linker_1, # of connection points: 2
#     Edge 116, Type (0, 0), BuildingBlock: KIFKEQ_clean_linker_1, # of connection points: 2
#     Edge 117, Type (0, 0), BuildingBlock: KIFKEQ_clean_linker_1, # of connection points: 2
#     Edge 118, Type (0, 0), BuildingBlock: KIFKEQ_clean_linker_1, # of connection points: 2
#     Edge 119, Type (0, 0), BuildingBlock: KIFKEQ_clean_linker_1, # of connection points: 2
#     Edge 120, Type (0, 0), BuildingBlock: KIFKEQ_clean_linker_1, # of connection points: 2
#     Edge 121, Type (0, 0), BuildingBlock: KIFKEQ_clean_linker_1, # of connection points: 2
#     Edge 122, Type (0, 0), BuildingBlock: KIFKEQ_clean_linker_1, # of connection points: 2
#     Edge 123, Type (0, 0), BuildingBlock: KIFKEQ_clean_linker_1, # of connection points: 2
#     Edge 124, Type (0, 0), BuildingBlock: KIFKEQ_clean_linker_1, # of connection points: 2
#     Edge 125, Type (0, 0), BuildingBlock: KIFKEQ_clean_linker_1, # of connection points: 2
#     Edge 126, Type (0, 0), BuildingBlock: KIFKEQ_clean_linker_1, # of connection points: 2
#     Edge 127, Type (0, 0), BuildingBlock: KIFKEQ_clean_linker_1, # of connection points: 2
#     Edge 128, Type (0, 0), BuildingBlock: KIFKEQ_clean_linker_1, # of connection points: 2
#     Edge 129, Type (0, 0), BuildingBlock: KIFKEQ_clean_linker_1, # of connection points: 2
#     Edge 130, Type (0, 0), BuildingBlock: KIFKEQ_clean_linker_1, # of connection points: 2
#     Edge 131, Type (0, 0), BuildingBlock: KIFKEQ_clean_linker_1, # of connection points: 2
#     Edge 132, Type (0, 0), BuildingBlock: KIFKEQ_clean_linker_1, # of connection points: 2
#     Edge 133, Type (0, 0), BuildingBlock: KIFKEQ_clean_linker_1, # of connection points: 2
#     Edge 134, Type (0, 0), BuildingBlock: KIFKEQ_clean_linker_1, # of connection points: 2
#     Edge 135, Type (0, 0), BuildingBlock: KIFKEQ_clean_linker_1, # of connection points: 2
#     Edge 136, Type (0, 0), BuildingBlock: KIFKEQ_clean_linker_1, # of connection points: 2
#     Edge 137, Type (0, 0), BuildingBlock: KIFKEQ_clean_linker_1, # of connection points: 2
#     Edge 138, Type (0, 0), BuildingBlock: KIFKEQ_clean_linker_1, # of connection points: 2
#     Edge 139, Type (0, 0), BuildingBlock: KIFKEQ_clean_linker_1, # of connection points: 2
#     Edge 140, Type (0, 0), BuildingBlock: KIFKEQ_clean_linker_1, # of connection points: 2
#     Edge 141, Type (0, 0), BuildingBlock: KIFKEQ_clean_linker_1, # of connection points: 2
#     Edge 142, Type (0, 0), BuildingBlock: KIFKEQ_clean_linker_1, # of connection points: 2
#     Edge 143, Type (0, 0), BuildingBlock: KIFKEQ_clean_linker_1, # of connection points: 2
#     Edge 144, Type (0, 0), BuildingBlock: KIFKEQ_clean_linker_1, # of connection points: 2
#     Edge 145, Type (0, 0), BuildingBlock: KIFKEQ_clean_linker_1, # of connection points: 2
#     Edge 146, Type (0, 0), BuildingBlock: KIFKEQ_clean_linker_1, # of connection points: 2
#     Edge 147, Type (0, 0), BuildingBlock: KIFKEQ_clean_linker_1, # of connection points: 2
#     Edge 148, Type (0, 0), BuildingBlock: KIFKEQ_clean_linker_1, # of connection points: 2
#     Edge 149, Type (0, 0), BuildingBlock: KIFKEQ_clean_linker_1, # of connection points: 2
#     Edge 150, Type (0, 0), BuildingBlock: KIFKEQ_clean_linker_1, # of connection points: 2
#     Edge 151, Type (0, 0), BuildingBlock: KIFKEQ_clean_linker_1, # of connection points: 2
#     Edge 152, Type (0, 0), BuildingBlock: KIFKEQ_clean_linker_1, # of connection points: 2
#     Edge 153, Type (0, 0), BuildingBlock: KIFKEQ_clean_linker_1, # of connection points: 2
#     Edge 154, Type (0, 0), BuildingBlock: KIFKEQ_clean_linker_1, # of connection points: 2
#     Edge 155, Type (0, 0), BuildingBlock: KIFKEQ_clean_linker_1, # of connection points: 2
#     Edge 156, Type (0, 0), BuildingBlock: KIFKEQ_clean_linker_1, # of connection points: 2
#     Edge 157, Type (0, 0), BuildingBlock: KIFKEQ_clean_linker_1, # of connection points: 2
#     Edge 158, Type (0, 0), BuildingBlock: KIFKEQ_clean_linker_1, # of connection points: 2
#     Edge 159, Type (0, 0), BuildingBlock: KIFKEQ_clean_linker_1, # of connection points: 2
#     Edge 160, Type (0, 0), BuildingBlock: KIFKEQ_clean_linker_1, # of connection points: 2
#     Edge 161, Type (0, 0), BuildingBlock: KIFKEQ_clean_linker_1, # of connection points: 2
#     Edge 162, Type (0, 0), BuildingBlock: KIFKEQ_clean_linker_1, # of connection points: 2
#     Edge 163, Type (0, 0), BuildingBlock: KIFKEQ_clean_linker_1, # of connection points: 2
#     Edge 164, Type (0, 0), BuildingBlock: KIFKEQ_clean_linker_1, # of connection points: 2
#     Edge 165, Type (0, 0), BuildingBlock: KIFKEQ_clean_linker_1, # of connection points: 2
#     Edge 166, Type (0, 0), BuildingBlock: KIFKEQ_clean_linker_1, # of connection points: 2
#     Edge 167, Type (0, 0), BuildingBlock: KIFKEQ_clean_linker_1, # of connection points: 2
# Relax obj value: 0.276
# Max RMSD: 0.173
# Mean RMSD: 0.173
data_MOF--net-fcr--node1-BEQFEK_clean_sbu_0--edge1-KIFKEQ_clean_linker_1
_symmetry_space_group_name_H-M    P1
_symmetry_Int_Tables_number       1
_symmetry_cell_setting            triclinic
loop_
_symmetry_equiv_pos_as_xyz
'x, y, z'
_cell_length_a     65.924438
_cell_length_b     65.94323
_cell_length_c     65.948073
_cell_angle_alpha  89.997334
_cell_angle_beta   90.035372
_cell_angle_gamma 90.022712
loop_
_atom_site_label
_atom_site_type_symbol
_atom_site_fract_x
_atom_site_fract_y
_atom_site_fract_z
_atom_type_partial_charge
Co0 Co 0.11465 0.30592 0.2615 0.0
Co1 Co 0.09656 0.34143 0.23568 0.0
C2 C 0.11315 0.34762 0.27842 0.0
O3 O 0.1176 0.32892 0.2802 0.0
O4 O 0.10453 0.35441 0.26242 0.0
C5 C 0.13412 0.27865 0.29045 0.0
O6 O 0.13269 0.29342 0.30374 0.0
C7 C 0.10196 0.37921 0.21265 0.0
C8 C 0.07815 0.37645 0.18928 0.0
C9 C 0.09471 0.38812 0.19498 0.0
N10 N 0.09042 0.36288 0.21694 0.0
N11 N 0.07589 0.36166 0.20319 0.0
C12 C 0.1211 0.38443 0.2237 0.0
H13 H 0.12691 0.37106 0.23212 0.0
H14 H 0.13285 0.39002 0.21303 0.0
H15 H 0.11784 0.39669 0.23475 0.0
C16 C 0.1445 0.30547 0.22858 0.0
N17 N 0.1273 0.31256 0.23693 0.0
N18 N 0.11938 0.3266 0.22517 0.0
C19 C 0.13111 0.32831 0.20842 0.0
C20 C 0.14749 0.31517 0.21019 0.0
C21 C 0.15866 0.29116 0.23909 0.0
H22 H 0.15241 0.27556 0.23818 0.0
H23 H 0.15995 0.29535 0.25533 0.0
H24 H 0.17402 0.29135 0.23224 0.0
O25 O 0.08623 0.29817 0.25664 0.0
O26 O 0.07222 0.32262 0.2383 0.0
H27 H 0.10976 0.34233 0.18819 0.0
H28 H 0.13329 0.33481 0.17646 0.0
C29 C 0.12636 0.34124 0.19039 0.0
H30 H 0.13277 0.3566 0.19267 0.0
H31 H 0.06528 0.34993 0.2025 0.0
O32 O 0.12758 0.28129 0.27253 0.0
C33 C 0.07105 0.30544 0.24722 0.0
Co34 Co 0.55626 0.65248 1.00877 0.0
Co35 Co 0.5921 0.67098 0.03415 0.0
C36 C 0.59755 0.65483 0.99104 0.0
O37 O 0.57892 0.64992 0.98954 0.0
O38 O 0.60438 0.66352 1.00697 0.0
C39 C 0.52866 0.63172 0.98075 0.0
O40 O 0.54329 0.63228 0.96725 0.0
C41 C 0.63111 0.66657 0.05575 0.0
C42 C 0.62785 0.68896 0.08039 0.0
C43 C 0.64018 0.67331 0.07363 0.0
N44 N 0.61389 0.6772 0.05268 0.0
N45 N 0.61232 0.69087 0.06723 0.0
C46 C 0.63865 0.65054 0.04154 0.0
H47 H 0.63685 0.65574 0.02568 0.0
H48 H 0.6295 0.63654 0.04338 0.0
H49 H 0.6549 0.64711 0.04418 0.0
C50 C 0.55683 0.62256 0.04161 0.0
N51 N 0.56356 0.63986 0.0332 0.0
N52 N 0.57781 0.64783 0.0447 0.0
C53 C 0.58004 0.63597 0.06132 0.0
C54 C 0.56706 0.61948 0.05965 0.0
C55 C 0.54091 0.60924 0.03239 0.0
H56 H 0.5265 0.61785 0.03124 0.0
H57 H 0.54558 0.60488 0.01683 0.0
H58 H 0.53817 0.5954 0.04154 0.0
O59 O 0.54828 0.68076 0.01389 0.0
O60 O 0.57275 0.69498 0.0321 0.0
H61 H 0.59524 0.6562 0.08177 0.0
H62 H 0.59022 0.63145 0.09217 0.0
C63 C 0.59465 0.6398 0.07827 0.0
H64 H 0.60993 0.63449 0.0738 0.0
H65 H 0.60007 0.70075 0.06882 0.0
O66 O 0.53156 0.63923 0.99824 0.0
C67 C 0.55543 0.69596 0.02337 0.0
Co68 Co 0.90345 0.21163 0.2639 0.0
Co69 Co 0.92157 0.17889 0.23448 0.0
C70 C 0.9078 0.16895 0.27749 0.0
O71 O 0.90309 0.18729 0.28135 0.0
O72 O 0.91511 0.16386 0.26029 0.0
C73 C 0.89699 0.24789 0.28824 0.0
O74 O 0.91645 0.24689 0.29242 0.0
C75 C 0.91642 0.1424 0.20953 0.0
C76 C 0.93962 0.14666 0.1858 0.0
C77 C 0.92355 0.13429 0.19144 0.0
N78 N 0.92757 0.15889 0.21416 0.0
N79 N 0.9417 0.16108 0.20013 0.0
C80 C 0.89771 0.13622 0.2208 0.0
H81 H 0.892 0.14891 0.23025 0.0
H82 H 0.88569 0.13123 0.2101 0.0
H83 H 0.90143 0.12326 0.23087 0.0
C84 C 0.8723 0.21325 0.23187 0.0
N85 N 0.88985 0.20599 0.23934 0.0
N86 N 0.89796 0.19343 0.22614 0.0
C87 C 0.88603 0.19288 0.20946 0.0
C88 C 0.86933 0.20527 0.21267 0.0
C89 C 0.858 0.22639 0.2436 0.0
H90 H 0.85729 0.22117 0.25957 0.0
H91 H 0.84247 0.22606 0.23712 0.0
H92 H 0.8637 0.24222 0.24338 0.0
O93 O 0.93122 0.22139 0.25802 0.0
O94 O 0.94509 0.19852 0.23757 0.0
H95 H 0.90763 0.18176 0.18777 0.0
H96 H 0.88362 0.18933 0.17704 0.0
C97 C 0.89102 0.18193 0.19023 0.0
H98 H 0.88534 0.16615 0.19114 0.0
H99 H 0.95201 0.17309 0.1997 0.0
O100 O 0.8889 0.2342 0.27735 0.0
C101 C 0.94612 0.21522 0.24741 0.0
Co102 Co 0.46553 0.8651 0.0104 0.0
Co103 Co 0.43001 0.84662 0.03595 0.0
C104 C 0.42396 0.8646 0.99349 0.0
O105 O 0.44266 0.86911 0.99167 0.0
O106 O 0.41736 0.85554 1.00931 0.0
C107 C 0.49272 0.88829 0.98404 0.0
O108 O 0.4768 0.89222 0.97271 0.0
C109 C 0.39289 0.85413 0.05905 0.0
C110 C 0.39098 0.82739 0.07905 0.0
C111 C 0.38186 0.84599 0.07516 0.0
N112 N 0.40784 0.84112 0.05406 0.0
N113 N 0.40637 0.82499 0.06584 0.0
C114 C 0.39087 0.87479 0.04983 0.0
H115 H 0.40479 0.87893 0.04135 0.0
H116 H 0.38788 0.88633 0.0617 0.0
H117 H 0.37795 0.87476 0.03903 0.0
C118 C 0.46718 0.89326 0.04485 0.0
N119 N 0.45929 0.87696 0.03549 0.0
N120 N 0.4456 0.86846 0.04724 0.0
C121 C 0.44505 0.87871 0.065 0.0
C122 C 0.45852 0.89489 0.06394 0.0
C123 C 0.48151 0.9078 0.03488 0.0
H124 H 0.49709 0.90145 0.0354 0.0
H125 H 0.47717 0.90986 0.01876 0.0
H126 H 0.48143 0.92282 0.04243 0.0
O127 O 0.47255 0.8363 0.01454 0.0
O128 O 0.44825 0.822 0.03289 0.0
H129 H 0.43115 0.85564 0.08343 0.0
H130 H 0.44141 0.87688 0.09739 0.0
C131 C 0.43333 0.8723 0.08334 0.0
H132 H 0.41834 0.87988 0.08338 0.0
H133 H 0.41646 0.81281 0.06551 0.0
O134 O 0.49071 0.87753 0.99987 0.0
C135 C 0.46532 0.82095 0.02372 0.0
Co136 Co 0.11646 0.71393 0.25895 0.0
Co137 Co 0.09872 0.67853 0.28519 0.0
C138 C 0.11513 0.67232 0.2422 0.0
O139 O 0.11958 0.691 0.24019 0.0
O140 O 0.10665 0.66572 0.25834 0.0
C141 C 0.13863 0.74102 0.23157 0.0
O142 O 0.14176 0.7252 0.21988 0.0
C143 C 0.10602 0.64124 0.30835 0.0
C144 C 0.07984 0.64036 0.32915 0.0
C145 C 0.09802 0.63061 0.32482 0.0
N146 N 0.09335 0.65658 0.30363 0.0
N147 N 0.07754 0.65571 0.31588 0.0
C148 C 0.12625 0.63841 0.29842 0.0
H149 H 0.13057 0.65212 0.28968 0.0
H150 H 0.13811 0.6351 0.30989 0.0
H151 H 0.12536 0.62543 0.28777 0.0
C152 C 0.14624 0.71506 0.292 0.0
N153 N 0.12926 0.70756 0.28355 0.0
N154 N 0.12123 0.69385 0.29561 0.0
C155 C 0.13255 0.69288 0.3127 0.0
C156 C 0.14888 0.70607 0.31081 0.0
C157 C 0.16045 0.72922 0.28134 0.0
H158 H 0.1542 0.74483 0.28198 0.0
H159 H 0.16181 0.72475 0.26519 0.0
H160 H 0.17577 0.72913 0.28828 0.0
O161 O 0.08795 0.72122 0.26407 0.0
O162 O 0.07413 0.69696 0.28281 0.0
H163 H 0.11054 0.67883 0.33228 0.0
H164 H 0.13262 0.68885 0.34508 0.0
C165 C 0.12718 0.68095 0.33124 0.0
H166 H 0.13472 0.66596 0.33068 0.0
H167 H 0.06567 0.66617 0.31582 0.0
O168 O 0.12871 0.73894 0.24794 0.0
C169 C 0.07286 0.71404 0.27371 0.0
Co170 Co 0.96339 0.65676 0.01196 0.0
Co171 Co 0.9275 0.67379 0.98569 0.0
C172 C 0.92177 0.65842 0.02901 0.0
O173 O 0.94049 0.65406 0.03086 0.0
O174 O 0.91495 0.66661 0.01282 0.0
C175 C 0.98959 0.63276 0.03857 0.0
O176 O 0.97311 0.62736 0.04837 0.0
C177 C 0.88866 0.66822 0.96391 0.0
C178 C 0.89182 0.68999 0.93871 0.0
C179 C 0.87957 0.67443 0.94584 0.0
N180 N 0.90579 0.67907 0.96676 0.0
N181 N 0.90729 0.69237 0.95184 0.0
C182 C 0.88115 0.65254 0.97853 0.0
H183 H 0.88256 0.65834 0.99423 0.0
H184 H 0.8906 0.63868 0.97737 0.0
H185 H 0.86502 0.64869 0.97575 0.0
C186 C 0.96418 0.62617 0.97961 0.0
N187 N 0.95687 0.64342 0.98765 0.0
N188 N 0.94248 0.65073 0.97587 0.0
C189 C 0.94067 0.63844 0.95951 0.0
C190 C 0.95413 0.62239 0.96159 0.0
C191 C 0.98043 0.6135 0.98915 0.0
H192 H 0.99419 0.6229 0.99145 0.0
H193 H 0.97518 0.60815 1.00421 0.0
H194 H 0.98449 0.60025 0.97962 0.0
O195 O 0.97075 0.68504 1.00624 0.0
O196 O 0.9463 0.69836 0.98737 0.0
H197 H 0.92505 0.65762 0.93841 0.0
H198 H 0.93029 0.63256 0.92893 0.0
C199 C 0.92589 0.64138 0.94254 0.0
H200 H 0.91072 0.63606 0.94736 0.0
H201 H 0.91946 0.70233 0.95005 0.0
O202 O 0.98822 0.64467 0.0235 0.0
C203 C 0.96348 0.69987 0.9963 0.0
Co204 Co 0.90536 0.80665 0.25741 0.0
Co205 Co 0.92292 0.84025 0.28607 0.0
C206 C 0.90848 0.84897 0.2428 0.0
O207 O 0.90407 0.83047 0.23928 0.0
O208 O 0.91593 0.85449 0.25984 0.0
C209 C 0.88344 0.78025 0.22855 0.0
O210 O 0.88177 0.79575 0.21614 0.0
C211 C 0.9172 0.87704 0.31057 0.0
C212 C 0.94024 0.87308 0.33453 0.0
C213 C 0.92406 0.8852 0.32875 0.0
N214 N 0.92861 0.86071 0.30603 0.0
N215 N 0.94267 0.85874 0.32019 0.0
C216 C 0.89848 0.88296 0.29915 0.0
H217 H 0.89297 0.87017 0.28971 0.0
H218 H 0.88635 0.88786 0.30974 0.0
H219 H 0.90213 0.89592 0.28907 0.0
C220 C 0.874 0.80539 0.28909 0.0
N221 N 0.89167 0.81249 0.28176 0.0
N222 N 0.89958 0.82541 0.29475 0.0
C223 C 0.88738 0.82637 0.31119 0.0
C224 C 0.8707 0.81392 0.308 0.0
C225 C 0.85982 0.79212 0.27731 0.0
H226 H 0.8656 0.77632 0.27751 0.0
H227 H 0.85919 0.7973 0.26133 0.0
H228 H 0.84426 0.79235 0.28368 0.0
O229 O 0.93336 0.798 0.2633 0.0
O230 O 0.94696 0.82118 0.2835 0.0
H231 H 0.90855 0.83839 0.33288 0.0
H232 H 0.88453 0.83069 0.34346 0.0
C233 C 0.89198 0.83789 0.33019 0.0
H234 H 0.88604 0.85354 0.32883 0.0
H235 H 0.9531 0.84684 0.32074 0.0
O236 O 0.89253 0.78243 0.24538 0.0
C237 C 0.94821 0.80444 0.2738 0.0
Co238 Co 0.05767 0.86665 0.01257 0.0
Co239 Co 0.09131 0.84877 0.98411 0.0
C240 C 0.09999 0.86214 0.0275 0.0
O241 O 0.08152 0.86682 0.03067 0.0
O242 O 0.10571 0.85494 0.01045 0.0
C243 C 0.02151 0.87239 0.03673 0.0
O244 O 0.02334 0.85303 0.04107 0.0
C245 C 0.12871 0.85352 0.96029 0.0
C246 C 0.12394 0.83159 0.93547 0.0
C247 C 0.13675 0.84697 0.94195 0.0
N248 N 0.11178 0.84274 0.96423 0.0
N249 N 0.10933 0.8293 0.94957 0.0
C250 C 0.13539 0.87149 0.97245 0.0
H251 H 0.12261 0.87757 0.98154 0.0
H252 H 0.14149 0.88357 0.96244 0.0
H253 H 0.14766 0.86672 0.98294 0.0
C254 C 0.05694 0.89812 0.98091 0.0
N255 N 0.06394 0.88045 0.98832 0.0
N256 N 0.07706 0.8726 0.97549 0.0
C257 C 0.07826 0.88489 0.9591 0.0
C258 C 0.06581 0.90156 0.96222 0.0
C259 C 0.04163 0.91117 0.99139 0.0
H260 H 0.04711 0.9149 1.00686 0.0
H261 H 0.03855 0.92537 0.98292 0.0
H262 H 0.02724 0.90257 0.99285 0.0
O263 O 0.04802 0.83906 1.00622 0.0
O264 O 0.07143 0.82522 0.98641 0.0
H265 H 0.09172 0.86484 0.93729 0.0
H266 H 0.0857 0.8896 0.9275 0.0
C267 C 0.09134 0.88122 0.94093 0.0
H268 H 0.10691 0.88664 0.94411 0.0
H269 H 0.09696 0.81948 0.94851 0.0
O270 O 0.03485 0.88093 0.02575 0.0
C271 C 0.05442 0.82421 0.99572 0.0
Co272 Co 0.26156 0.11654 0.30643 0.0
Co273 Co 0.23535 0.09815 0.3415 0.0
C274 C 0.27815 0.11448 0.34827 0.0
O275 O 0.28014 0.11915 0.32963 0.0
O276 O 0.26203 0.10586 0.35476 0.0
C277 C 0.28777 0.14169 0.28072 0.0
O278 O 0.29773 0.14686 0.29718 0.0
C279 C 0.21233 0.1029 0.37939 0.0
C280 C 0.18852 0.07965 0.37585 0.0
C281 C 0.19446 0.09576 0.388 0.0
N282 N 0.21647 0.09176 0.36276 0.0
N283 N 0.20245 0.07753 0.36108 0.0
C284 C 0.22378 0.12164 0.3852 0.0
H285 H 0.23208 0.12785 0.37195 0.0
H286 H 0.2134 0.13332 0.39142 0.0
H287 H 0.23498 0.11769 0.39713 0.0
C288 C 0.22851 0.14636 0.30582 0.0
N289 N 0.23688 0.12917 0.31289 0.0
N290 N 0.22497 0.12114 0.32677 0.0
C291 C 0.20815 0.13281 0.32834 0.0
C292 C 0.2101 0.14927 0.3154 0.0
C293 C 0.2381 0.15981 0.29025 0.0
H294 H 0.24056 0.15106 0.27611 0.0
H295 H 0.25309 0.16501 0.29586 0.0
H296 H 0.22852 0.17317 0.2867 0.0
O297 O 0.2566 0.08828 0.29829 0.0
O298 O 0.23794 0.07408 0.32237 0.0
H299 H 0.18784 0.11232 0.34342 0.0
H300 H 0.17666 0.13629 0.33667 0.0
C301 C 0.19066 0.12881 0.34222 0.0
H302 H 0.19407 0.13509 0.35742 0.0
H303 H 0.20161 0.06728 0.34905 0.0
O304 O 0.27293 0.12949 0.28199 0.0
C305 C 0.24697 0.07309 0.30524 0.0
Co306 Co 0.36338 0.50599 0.96399 0.0
Co307 Co 0.34681 0.53447 0.92971 0.0
C308 C 0.36239 0.49126 0.92183 0.0
O309 O 0.36643 0.488 0.94043 0.0
O310 O 0.35469 0.50808 0.91603 0.0
C311 C 0.38675 0.47862 0.99028 0.0
O312 O 0.39215 0.46865 0.97391 0.0
C313 C 0.35453 0.55809 0.89277 0.0
C314 C 0.32903 0.57974 0.89249 0.0
C315 C 0.34689 0.57489 0.8824 0.0
N316 N 0.34196 0.55363 0.90826 0.0
N317 N 0.32656 0.56641 0.90777 0.0
C318 C 0.37438 0.54755 0.88949 0.0
H319 H 0.37877 0.53875 0.90314 0.0
H320 H 0.38649 0.55864 0.88584 0.0
H321 H 0.37286 0.53688 0.87658 0.0
C322 C 0.39396 0.53849 0.96681 0.0
N323 N 0.3767 0.53085 0.95901 0.0
N324 N 0.36914 0.54375 0.94578 0.0
C325 C 0.38101 0.56048 0.94548 0.0
C326 C 0.3973 0.55745 0.95846 0.0
C327 C 0.40709 0.52765 0.98183 0.0
H328 H 0.39831 0.52496 0.99592 0.0
H329 H 0.41158 0.5127 0.97556 0.0
H330 H 0.42086 0.5365 0.98571 0.0
O331 O 0.33462 0.51059 0.9706 0.0
O332 O 0.32195 0.5318 0.94773 0.0
H333 H 0.36092 0.58085 0.9298 0.0
H334 H 0.38308 0.59271 0.94048 0.0
C335 C 0.37732 0.57891 0.93278 0.0
H336 H 0.38563 0.57746 0.91826 0.0
H337 H 0.31482 0.5666 0.91838 0.0
O338 O 0.37506 0.49384 0.98874 0.0
C339 C 0.31996 0.52111 0.9638 0.0
Co340 Co 0.75903 0.40322 0.30613 0.0
Co341 Co 0.78648 0.42223 0.34005 0.0
C342 C 0.74372 0.40588 0.34816 0.0
O343 O 0.74089 0.40106 0.32967 0.0
O344 O 0.76026 0.41419 0.35397 0.0
C345 C 0.7351 0.39666 0.26972 0.0
O346 O 0.72868 0.41532 0.27237 0.0
C347 C 0.81028 0.41685 0.3772 0.0
C348 C 0.83292 0.44139 0.37494 0.0
C349 C 0.82766 0.4245 0.38634 0.0
N350 N 0.80567 0.42852 0.36107 0.0
N351 N 0.81903 0.44343 0.36009 0.0
C352 C 0.79982 0.39728 0.38203 0.0
H353 H 0.79103 0.39179 0.36877 0.0
H354 H 0.81099 0.38559 0.3867 0.0
H355 H 0.78922 0.39977 0.39485 0.0
C356 C 0.79279 0.37385 0.30501 0.0
N357 N 0.78419 0.39089 0.31222 0.0
N358 N 0.7966 0.39955 0.32522 0.0
C359 C 0.81396 0.38868 0.32598 0.0
C360 C 0.81202 0.37191 0.31337 0.0
C361 C 0.78201 0.35893 0.29171 0.0
H362 H 0.76577 0.35808 0.29601 0.0
H363 H 0.7887 0.34356 0.29296 0.0
H364 H 0.78306 0.36409 0.27573 0.0
O365 O 0.76303 0.4318 0.29781 0.0
O366 O 0.7831 0.44605 0.32083 0.0
H367 H 0.83387 0.41164 0.33776 0.0
H368 H 0.84645 0.38872 0.3298 0.0
C369 C 0.83268 0.39491 0.33723 0.0
H370 H 0.83208 0.38887 0.35289 0.0
H371 H 0.81938 0.45429 0.34857 0.0
O372 O 0.7472 0.38889 0.28255 0.0
C373 C 0.7729 0.44706 0.30435 0.0
Co374 Co 0.65777 0.01277 0.96443 0.0
Co375 Co 0.67374 0.98502 0.92927 0.0
C376 C 0.657 0.02795 0.9224 0.0
O377 O 0.65316 0.03056 0.94113 0.0
O378 O 0.66543 0.01167 0.91609 0.0
C379 C 0.63666 0.04103 0.99124 0.0
O380 O 0.63271 0.05183 0.97497 0.0
C381 C 0.66389 0.96145 0.89295 0.0
C382 C 0.69074 0.94197 0.88871 0.0
C383 C 0.67162 0.94601 0.88094 0.0
N384 N 0.67764 0.96616 0.90731 0.0
N385 N 0.69377 0.95458 0.90456 0.0
C386 C 0.644 0.97213 0.89045 0.0
H387 H 0.64019 0.98095 0.90425 0.0
H388 H 0.63166 0.96121 0.88708 0.0
H389 H 0.64511 0.9827 0.8774 0.0
C390 C 0.62797 0.9798 0.96804 0.0
N391 N 0.64476 0.98782 0.95969 0.0
N392 N 0.65201 0.97533 0.94594 0.0
C393 C 0.64043 0.95842 0.94581 0.0
C394 C 0.62466 0.96084 0.95955 0.0
C395 C 0.61435 0.99111 0.98226 0.0
H396 H 0.62121 0.99111 0.99763 0.0
H397 H 0.61289 1.00707 0.97717 0.0
H398 H 0.59901 0.98428 0.98305 0.0
O399 O 0.68689 1.00859 0.96992 0.0
O400 O 0.6991 0.98754 0.94663 0.0
H401 H 0.66139 0.93828 0.93097 0.0
H402 H 0.63953 0.92601 0.94208 0.0
C403 C 0.64489 0.93968 0.93383 0.0
H404 H 0.63668 0.94032 0.9192 0.0
H405 H 0.70664 0.95493 0.91377 0.0
O406 O 0.64674 0.02471 0.98962 0.0
C407 C 0.70144 0.99822 0.96266 0.0
Co408 Co 0.26392 0.90583 0.21333 0.0
Co409 Co 0.23582 0.92283 0.17901 0.0
C410 C 0.2792 0.90787 0.17132 0.0
O411 O 0.28236 0.90374 0.18993 0.0
O412 O 0.26232 0.91538 0.16544 0.0
C413 C 0.29192 0.88355 0.24003 0.0
O414 O 0.30321 0.87977 0.22406 0.0
C415 C 0.212 0.91484 0.14231 0.0
C416 C 0.19046 0.94043 0.14179 0.0
C417 C 0.19515 0.92239 0.13195 0.0
N418 N 0.21663 0.92764 0.15757 0.0
N419 N 0.20391 0.94308 0.15694 0.0
C420 C 0.2224 0.89488 0.1393 0.0
H421 H 0.23146 0.89077 0.15286 0.0
H422 H 0.21118 0.88274 0.13613 0.0
H423 H 0.23284 0.89605 0.12617 0.0
C424 C 0.23172 0.87498 0.21522 0.0
N425 N 0.23948 0.89222 0.20758 0.0
N426 N 0.22663 0.90011 0.19452 0.0
C427 C 0.20978 0.88842 0.19409 0.0
C428 C 0.2126 0.872 0.20697 0.0
C429 C 0.24323 0.86091 0.22884 0.0
H430 H 0.24301 0.86698 0.24453 0.0
H431 H 0.25924 0.85998 0.22378 0.0
H432 H 0.23665 0.84543 0.22883 0.0
O433 O 0.25801 0.93406 0.22102 0.0
O434 O 0.2381 0.94744 0.19744 0.0
H435 H 0.18918 0.91014 0.18109 0.0
H436 H 0.17726 0.88766 0.19126 0.0
C437 C 0.19068 0.89351 0.18294 0.0
H438 H 0.19085 0.8862 0.16782 0.0
H439 H 0.20385 0.95496 0.16739 0.0
O440 O 0.27576 0.89383 0.23806 0.0
C441 C 0.24768 0.94888 0.21426 0.0
Co442 Co 0.1534 0.50723 0.05634 0.0
Co443 Co 0.17103 0.5347 0.09089 0.0
C444 C 0.15403 0.49218 0.09865 0.0
O445 O 0.1496 0.48967 0.08001 0.0
O446 O 0.16287 0.50835 0.10477 0.0
C447 C 0.1327 0.47825 0.02966 0.0
O448 O 0.1318 0.46581 0.04519 0.0
C449 C 0.16543 0.55886 0.12795 0.0
C450 C 0.18911 0.58228 0.12457 0.0
C451 C 0.17264 0.57676 0.13643 0.0
N452 N 0.17692 0.55425 0.11169 0.0
N453 N 0.19135 0.56807 0.11008 0.0
C454 C 0.1464 0.5478 0.13351 0.0
H455 H 0.14053 0.53913 0.12033 0.0
H456 H 0.13463 0.55853 0.13897 0.0
H457 H 0.14982 0.53699 0.14593 0.0
C458 C 0.12393 0.54045 0.05372 0.0
N459 N 0.14092 0.53231 0.06152 0.0
N460 N 0.14852 0.54457 0.07532 0.0
C461 C 0.13681 0.56138 0.07616 0.0
C462 C 0.12077 0.55918 0.06268 0.0
C463 C 0.10999 0.52943 0.03955 0.0
H464 H 0.10828 0.51347 0.04459 0.0
H465 H 0.09476 0.53653 0.03888 0.0
H466 H 0.11672 0.52936 0.02413 0.0
O467 O 0.1822 0.51094 0.04939 0.0
O468 O 0.19547 0.53162 0.07238 0.0
H469 H 0.13408 0.59343 0.08203 0.0
H470 H 0.13475 0.57761 0.10414 0.0
C471 C 0.14117 0.57973 0.08877 0.0
H472 H 0.15774 0.58221 0.08992 0.0
H473 H 0.20193 0.56851 0.09832 0.0
O474 O 0.14097 0.49551 0.03174 0.0
C475 C 0.19712 0.5211 0.05618 0.0
Co476 Co 0.75725 0.61484 0.21423 0.0
Co477 Co 0.78539 0.5983 0.1797 0.0
C478 C 0.74277 0.61491 0.17168 0.0
O479 O 0.73981 0.61906 0.19032 0.0
O480 O 0.75915 0.60636 0.1658 0.0
C481 C 0.73015 0.63871 0.24039 0.0
O482 O 0.7206 0.64453 0.2239 0.0
C483 C 0.8092 0.6043 0.14241 0.0
C484 C 0.83372 0.58186 0.14631 0.0
C485 C 0.82747 0.59783 0.13413 0.0
N486 N 0.8051 0.59292 0.15889 0.0
N487 N 0.81957 0.57918 0.16079 0.0
C488 C 0.79722 0.62264 0.13643 0.0
H489 H 0.78881 0.62875 0.14965 0.0
H490 H 0.80725 0.63456 0.13006 0.0
H491 H 0.78607 0.61825 0.12461 0.0
C492 C 0.79016 0.6449 0.21755 0.0
N493 N 0.78239 0.62775 0.20965 0.0
N494 N 0.79485 0.62063 0.19577 0.0
C495 C 0.81134 0.63283 0.19497 0.0
C496 C 0.80869 0.64874 0.20848 0.0
C497 C 0.77971 0.65767 0.23314 0.0
H498 H 0.77664 0.64835 0.2468 0.0
H499 H 0.76497 0.66299 0.227 0.0
H500 H 0.78902 0.67093 0.23767 0.0
O501 O 0.76108 0.58581 0.22059 0.0
O502 O 0.78239 0.57349 0.19766 0.0
H503 H 0.83257 0.61388 0.17921 0.0
H504 H 0.84255 0.63823 0.18635 0.0
C505 C 0.82888 0.63016 0.18082 0.0
H506 H 0.82493 0.63657 0.16581 0.0
H507 H 0.82049 0.56887 0.17276 0.0
O508 O 0.74503 0.62656 0.23898 0.0
C509 C 0.7716 0.57124 0.2136 0.0
Co510 Co 0.86828 1.00969 0.05603 0.0
Co511 Co 0.84906 0.98391 0.09098 0.0
C512 C 0.86718 0.02648 0.0973 0.0
O513 O 0.87222 0.02818 0.07878 0.0
O514 O 0.85776 0.01077 0.10368 0.0
C515 C 0.87444 0.03311 0.01943 0.0
O516 O 0.85624 0.04043 0.02289 0.0
C517 C 0.85815 0.96018 0.12718 0.0
C518 C 0.83001 0.94302 0.13294 0.0
C519 C 0.84978 0.94552 0.13973 0.0
N520 N 0.84417 0.96584 0.11339 0.0
N521 N 0.82728 0.95566 0.11705 0.0
C522 C 0.87898 0.96915 0.12866 0.0
H523 H 0.88061 0.98233 0.11837 0.0
H524 H 0.89057 0.95771 0.12454 0.0
H525 H 0.882 0.97386 0.14453 0.0
C526 C 0.89608 0.97487 0.0546 0.0
N527 N 0.87983 0.98444 0.06234 0.0
N528 N 0.87075 0.97255 0.07549 0.0
C529 C 0.88031 0.95443 0.07561 0.0
C530 C 0.89689 0.95544 0.06265 0.0
C531 C 0.91121 0.98478 0.04089 0.0
H532 H 0.91278 1.00105 0.04484 0.0
H533 H 0.92631 0.97746 0.04206 0.0
H534 H 0.9058 0.98362 0.02499 0.0
O535 O 0.83928 1.00627 0.04891 0.0
O536 O 0.82468 0.98696 0.07241 0.0
H537 H 0.85583 0.93683 0.08824 0.0
H538 H 0.8756 0.92217 0.07616 0.0
C539 C 0.8724 0.93568 0.08568 0.0
H540 H 0.88019 0.93341 0.10036 0.0
H541 H 0.81408 0.95694 0.10841 0.0
O542 O 0.88211 0.02051 0.03182 0.0
C543 C 0.82381 0.99694 0.05577 0.0
Co544 Co 0.30508 0.26592 0.11385 0.0
Co545 Co 0.3386 0.23637 0.0975 0.0
C546 C 0.3477 0.27958 0.11213 0.0
O547 O 0.32919 0.28328 0.11627 0.0
O548 O 0.35314 0.26252 0.10467 0.0
C549 C 0.27892 0.2945 0.13625 0.0
O550 O 0.29523 0.30484 0.14117 0.0
C551 C 0.37521 0.21161 0.10398 0.0
C552 C 0.37122 0.18739 0.08123 0.0
C553 C 0.38336 0.19334 0.09735 0.0
N554 N 0.35888 0.21604 0.09248 0.0
N555 N 0.35689 0.2017 0.07862 0.0
C556 C 0.38119 0.22329 0.1225 0.0
H557 H 0.36835 0.23266 0.128 0.0
H558 H 0.3863 0.21288 0.13471 0.0
H559 H 0.39402 0.23347 0.11863 0.0
C560 C 0.3019 0.23416 0.14509 0.0
N561 N 0.30968 0.24126 0.12761 0.0
N562 N 0.32285 0.22813 0.12038 0.0
C563 C 0.32335 0.21187 0.13285 0.0
C564 C 0.3103 0.21529 0.14899 0.0
C565 C 0.28834 0.24626 0.15869 0.0
H566 H 0.27295 0.24703 0.15189 0.0
H567 H 0.29428 0.26193 0.16001 0.0
H568 H 0.28725 0.23959 0.17408 0.0
O569 O 0.29802 0.26101 0.08532 0.0
O570 O 0.32024 0.23906 0.07288 0.0
H571 H 0.33613 0.18972 0.11269 0.0
H572 H 0.32819 0.17979 0.1369 0.0
C573 C 0.33528 0.19294 0.12914 0.0
H574 H 0.35081 0.19481 0.13529 0.0
H575 H 0.34504 0.20107 0.06814 0.0
O576 O 0.28056 0.2787 0.12537 0.0
C577 C 0.30443 0.25007 0.07081 0.0
Co578 Co 0.30724 0.75845 0.40542 0.0
Co579 Co 0.34178 0.78642 0.42243 0.0
C580 C 0.34923 0.74301 0.40757 0.0
O581 O 0.33059 0.73992 0.40349 0.0
O582 O 0.35526 0.75989 0.41496 0.0
C583 C 0.28038 0.73019 0.38365 0.0
O584 O 0.29633 0.71883 0.38001 0.0
C585 C 0.37852 0.81045 0.41476 0.0
C586 C 0.3788 0.83171 0.44057 0.0
C587 C 0.38877 0.82728 0.42254 0.0
N588 N 0.3632 0.80562 0.42741 0.0
N589 N 0.36369 0.81818 0.44299 0.0
C590 C 0.38173 0.80015 0.39477 0.0
H591 H 0.36829 0.79093 0.39058 0.0
H592 H 0.38479 0.81145 0.38269 0.0
H593 H 0.395 0.78988 0.39595 0.0
C594 C 0.30569 0.7905 0.37443 0.0
N595 N 0.31315 0.78281 0.39178 0.0
N596 N 0.32626 0.79562 0.39968 0.0
C597 C 0.32689 0.81237 0.38788 0.0
C598 C 0.31413 0.80951 0.37136 0.0
C599 C 0.29207 0.779 0.36036 0.0
H600 H 0.27632 0.7795 0.36627 0.0
H601 H 0.29692 0.76291 0.35968 0.0
H602 H 0.29231 0.7854 0.34481 0.0
O603 O 0.29963 0.76443 0.43362 0.0
O604 O 0.32339 0.78408 0.44706 0.0
H605 H 0.33994 0.83299 0.40957 0.0
H606 H 0.32975 0.84486 0.38707 0.0
C607 C 0.33808 0.83146 0.39295 0.0
H608 H 0.35318 0.83128 0.38561 0.0
H609 H 0.35318 0.81808 0.45481 0.0
O610 O 0.28241 0.74657 0.39356 0.0
C611 C 0.3065 0.77463 0.44847 0.0
Co612 Co 1.00736 0.4657 0.86518 0.0
Co613 Co 0.03318 0.4299 0.84735 0.0
C614 C 0.99007 0.42412 0.86314 0.0
O615 O 0.98839 0.4428 0.86775 0.0
O616 O 1.00612 0.41732 0.85467 0.0
C617 C 0.97911 0.49206 0.8869 0.0
O618 O 0.96685 0.47638 0.88792 0.0
C619 C 0.05484 0.39097 0.85185 0.0
C620 C 0.07993 0.39457 0.83002 0.0
C621 C 0.07286 0.38202 0.84536 0.0
N622 N 0.05196 0.40831 0.84139 0.0
N623 N 0.0668 0.41008 0.82804 0.0
C624 C 0.04028 0.38316 0.86745 0.0
H625 H 0.02458 0.38441 0.86161 0.0
H626 H 0.04129 0.39254 0.88138 0.0
H627 H 0.04324 0.36704 0.87119 0.0
C628 C 0.03994 0.46573 0.89548 0.0
N629 N 0.03177 0.45882 0.87812 0.0
N630 N 0.04338 0.44447 0.87051 0.0
C631 C 0.05978 0.44231 0.8827 0.0
C632 C 0.0579 0.45548 0.899 0.0
C633 C 0.0305 0.48176 0.90849 0.0
H634 H 0.02889 0.49591 0.89955 0.0
H635 H 0.01511 0.47681 0.91316 0.0
H636 H 0.03976 0.48506 0.92215 0.0
O637 O 0.01268 0.47353 0.83689 0.0
O638 O 0.03116 0.44902 0.82316 0.0
H639 H 0.08064 0.42678 0.8632 0.0
H640 H 0.09027 0.43152 0.88832 0.0
C641 C 0.07658 0.4274 0.87947 0.0
H642 H 0.0716 0.4122 0.88454 0.0
H643 H 0.06856 0.42246 0.81834 0.0
O644 O 0.99616 0.49025 0.87814 0.0
C645 C 0.02236 0.46627 0.82188 0.0
Co646 Co 0.71321 0.76446 0.40519 0.0
Co647 Co 0.67906 0.73622 0.42213 0.0
C648 C 0.6711 0.77933 0.40634 0.0
O649 O 0.68969 0.78249 0.40216 0.0
O650 O 0.6653 0.76258 0.41421 0.0
C651 C 0.73964 0.79229 0.38264 0.0
O652 O 0.72346 0.80315 0.37846 0.0
C653 C 0.6424 0.71229 0.41457 0.0
C654 C 0.64214 0.69096 0.44034 0.0
C655 C 0.63213 0.69552 0.42236 0.0
N656 N 0.65777 0.71703 0.42719 0.0
N657 N 0.6573 0.70444 0.44275 0.0
C658 C 0.6392 0.72255 0.39455 0.0
H659 H 0.65278 0.73147 0.3902 0.0
H660 H 0.63581 0.71125 0.38255 0.0
H661 H 0.62615 0.73308 0.39578 0.0
C662 C 0.71586 0.73174 0.37484 0.0
N663 N 0.70808 0.73958 0.392 0.0
N664 N 0.69483 0.72682 0.39972 0.0
C665 C 0.69438 0.71 0.38802 0.0
C666 C 0.70744 0.71271 0.37174 0.0
C667 C 0.7296 0.74317 0.36084 0.0
H668 H 0.7451 0.74354 0.36739 0.0
H669 H 0.72417 0.75901 0.35933 0.0
H670 H 0.73023 0.73619 0.34556 0.0
O671 O 0.72011 0.75998 0.43393 0.0
O672 O 0.69726 0.7389 0.44682 0.0
H673 H 0.6808 0.68944 0.40942 0.0
H674 H 0.69099 0.67755 0.38694 0.0
C675 C 0.68284 0.69105 0.39283 0.0
H676 H 0.6678 0.69156 0.38535 0.0
H677 H 0.66786 0.70448 0.45454 0.0
O678 O 0.73793 0.77636 0.39332 0.0
C679 C 0.71338 0.74952 0.44867 0.0
Co680 Co 0.51322 0.55769 0.36601 0.0
Co681 Co 0.48489 0.59145 0.34802 0.0
C682 C 0.52818 0.59984 0.36227 0.0
O683 O 0.53143 0.58135 0.36682 0.0
O684 O 0.51118 0.60552 0.35492 0.0
C685 C 0.53682 0.52091 0.37208 0.0
O686 O 0.54139 0.5223 0.35274 0.0
C687 C 0.46083 0.62807 0.35494 0.0
C688 C 0.43933 0.62789 0.3293 0.0
C689 C 0.44397 0.63818 0.34711 0.0
N690 N 0.46554 0.61254 0.34252 0.0
N691 N 0.45284 0.61273 0.32704 0.0
C692 C 0.47118 0.63156 0.37486 0.0
H693 H 0.48032 0.61815 0.37929 0.0
H694 H 0.45992 0.63489 0.3869 0.0
H695 H 0.48156 0.64473 0.37346 0.0
C696 C 0.48087 0.55645 0.3967 0.0
N697 N 0.48876 0.56384 0.37942 0.0
N698 N 0.47583 0.57659 0.37115 0.0
C699 C 0.45884 0.57701 0.3826 0.0
C700 C 0.46161 0.56445 0.39926 0.0
C701 C 0.49222 0.54307 0.41111 0.0
H702 H 0.49153 0.52721 0.40554 0.0
H703 H 0.50834 0.54782 0.41183 0.0
H704 H 0.48573 0.54371 0.42661 0.0
O705 O 0.50718 0.54865 0.33809 0.0
O706 O 0.48751 0.57221 0.32417 0.0
H707 H 0.43828 0.58912 0.36033 0.0
H708 H 0.42626 0.57934 0.38292 0.0
C709 C 0.43962 0.58772 0.37701 0.0
H710 H 0.43951 0.60303 0.38393 0.0
H711 H 0.45283 0.602 0.31541 0.0
O712 O 0.52592 0.53453 0.38025 0.0
C713 C 0.4969 0.55525 0.32313 0.0
Co714 Co 0.21362 0.75573 0.61527 0.0
Co715 Co 0.18036 0.78515 0.5983 0.0
C716 C 0.17099 0.74188 0.61222 0.0
O717 O 0.18946 0.738 0.61649 0.0
O718 O 0.16573 0.75909 0.605 0.0
C719 C 0.23923 0.7273 0.63868 0.0
O720 O 0.22289 0.71679 0.64309 0.0
C721 C 0.1439 0.81009 0.60435 0.0
C722 C 0.14802 0.83409 0.58139 0.0
C723 C 0.13586 0.82834 0.59755 0.0
N724 N 0.16019 0.80548 0.59292 0.0
N725 N 0.16227 0.81967 0.57893 0.0
C726 C 0.13788 0.79862 0.62299 0.0
H727 H 0.15057 0.789 0.62841 0.0
H728 H 0.13313 0.8092 0.63518 0.0
H729 H 0.12479 0.7887 0.6193 0.0
C730 C 0.21579 0.7872 0.64688 0.0
N731 N 0.2083 0.78006 0.62929 0.0
N732 N 0.1955 0.7933 0.62162 0.0
C733 C 0.19499 0.80971 0.63389 0.0
C734 C 0.20763 0.80625 0.65037 0.0
C735 C 0.22906 0.77515 0.66081 0.0
H736 H 0.24465 0.77456 0.65449 0.0
H737 H 0.22321 0.75943 0.66191 0.0
H738 H 0.22963 0.78176 0.67626 0.0
O739 O 0.2222 0.76193 0.58731 0.0
O740 O 0.19925 0.78269 0.57418 0.0
H741 H 0.18317 0.83172 0.61298 0.0
H742 H 0.19113 0.84203 0.63704 0.0
C743 C 0.18372 0.82891 0.62952 0.0
H744 H 0.16806 0.8277 0.6355 0.0
H745 H 0.17414 0.82015 0.56847 0.0
O746 O 0.23777 0.74301 0.62764 0.0
C747 C 0.21585 0.77279 0.5727 0.0
Co748 Co 1.00784 0.55594 0.65267 0.0
Co749 Co 0.0343 0.59117 0.6706 0.0
C750 C 0.99116 0.5975 0.65454 0.0
O751 O 0.98911 0.57886 0.65 0.0
O752 O 1.00738 0.60403 0.66292 0.0
C753 C 0.98402 0.51938 0.64728 0.0
O754 O 0.9773 0.5228 0.66571 0.0
C755 C 0.05755 0.62795 0.66203 0.0
C756 C 0.07678 0.63173 0.68915 0.0
C757 C 0.07295 0.63981 0.67012 0.0
N758 N 0.0527 0.61336 0.67548 0.0
N759 N 0.0641 0.61586 0.69179 0.0
C760 C 0.0472 0.63072 0.642 0.0
H761 H 0.03739 0.61752 0.63844 0.0
H762 H 0.05842 0.63289 0.6297 0.0
H763 H 0.0377 0.64459 0.64264 0.0
C764 C 0.04082 0.5551 0.62277 0.0
N765 N 0.03235 0.56246 0.63979 0.0
N766 N 0.04455 0.5759 0.64807 0.0
C767 C 0.06175 0.57673 0.63694 0.0
C768 C 0.05977 0.56385 0.62041 0.0
C769 C 0.03021 0.54114 0.60835 0.0
H770 H 0.03171 0.52535 0.61394 0.0
H771 H 0.01386 0.54502 0.60756 0.0
H772 H 0.03674 0.54209 0.59288 0.0
O773 O 0.01322 0.54822 0.68111 0.0
O774 O 0.03196 0.57251 0.69504 0.0
H775 H 0.08116 0.59047 0.65934 0.0
H776 H 0.09422 0.57968 0.63779 0.0
C777 C 0.0805 0.5881 0.64272 0.0
H778 H 0.0806 0.60292 0.63487 0.0
H779 H 0.06368 0.60638 0.70445 0.0
O780 O 0.99634 0.53181 0.63921 0.0
C781 C 0.02291 0.55537 0.69621 0.0
Co782 Co 0.01239 0.96425 0.65425 0.0
Co783 Co 0.98674 0.92872 0.6726 0.0
C784 C 0.02957 0.92287 0.65561 0.0
O785 O 0.03132 0.94154 0.65101 0.0
O786 O 0.01361 0.91617 0.66435 0.0
C787 C 0.03878 0.99127 0.63088 0.0
O788 O 0.04993 0.9753 0.62673 0.0
C789 C 0.9637 0.89135 0.66555 0.0
C790 C 0.94336 0.89019 0.69206 0.0
C791 C 0.94741 0.8806 0.67374 0.0
N792 N 0.96859 0.9066 0.67825 0.0
N793 N 0.95662 0.90557 0.69426 0.0
C794 C 0.97325 0.88873 0.64511 0.0
H795 H 0.98195 0.90246 0.64079 0.0
H796 H 0.96155 0.88555 0.63343 0.0
H797 H 0.9839 0.87572 0.64565 0.0
C798 C 0.97872 0.96508 0.62519 0.0
N799 N 0.98764 0.95761 0.64192 0.0
N800 N 0.97582 0.94388 0.65027 0.0
C801 C 0.95842 0.94288 0.63944 0.0
C802 C 0.95985 0.95607 0.62308 0.0
C803 C 0.98895 0.97929 0.61073 0.0
H804 H 0.98847 0.99489 0.61702 0.0
H805 H 1.00507 0.97485 0.6089 0.0
H806 H 0.98159 0.97921 0.59561 0.0
O807 O 1.0076 0.97162 0.68276 0.0
O808 O 0.98923 0.94731 0.69701 0.0
H809 H 0.93944 0.92893 0.66202 0.0
H810 H 0.92603 0.9389 0.6403 0.0
C811 C 0.94001 0.93099 0.64537 0.0
H812 H 0.94033 0.91598 0.63785 0.0
H813 H 0.95684 0.91595 0.7062 0.0
O814 O 0.02304 0.98931 0.64179 0.0
C815 C 0.9982 0.96449 0.69801 0.0
Co816 Co 0.615 0.80712 0.76367 0.0
Co817 Co 0.5979 0.84059 0.73464 0.0
C818 C 0.6131 0.84937 0.77791 0.0
O819 O 0.61749 0.83091 0.78156 0.0
O820 O 0.60538 0.8547 0.76093 0.0
C821 C 0.63781 0.78065 0.79157 0.0
O822 O 0.64247 0.7968 0.80227 0.0
C823 C 0.6055 0.87703 0.71032 0.0
C824 C 0.5799 0.87692 0.68877 0.0
C825 C 0.5978 0.88709 0.69337 0.0
N826 N 0.59292 0.86164 0.71511 0.0
N827 N 0.57747 0.86189 0.70237 0.0
C828 C 0.6254 0.88046 0.72075 0.0
H829 H 0.6297 0.86706 0.72996 0.0
H830 H 0.63752 0.88367 0.70953 0.0
H831 H 0.62403 0.8937 0.73103 0.0
C832 C 0.64596 0.80474 0.73147 0.0
N833 N 0.62848 0.81219 0.73892 0.0
N834 N 0.62061 0.82499 0.7258 0.0
C835 C 0.63251 0.82542 0.70914 0.0
C836 C 0.64911 0.81288 0.71233 0.0
C837 C 0.66017 0.79162 0.74336 0.0
H838 H 0.65417 0.77589 0.74372 0.0
H839 H 0.66112 0.79724 0.75918 0.0
H840 H 0.67562 0.79148 0.73675 0.0
O841 O 0.58635 0.79985 0.75878 0.0
O842 O 0.57338 0.82215 0.73719 0.0
H843 H 0.61095 0.83807 0.68813 0.0
H844 H 0.6337 0.82802 0.67663 0.0
C845 C 0.62758 0.8364 0.68989 0.0
H846 H 0.63476 0.85158 0.69005 0.0
H847 H 0.56573 0.85127 0.70242 0.0
O848 O 0.62688 0.78247 0.77582 0.0
C849 C 0.57163 0.80616 0.74802 0.0
Co850 Co 0.05602 0.15656 0.50658 0.0
Co851 Co 0.09095 0.17315 0.53435 0.0
C852 C 0.09838 0.15606 0.49176 0.0
O853 O 0.07965 0.1521 0.48908 0.0
O854 O 0.10462 0.16469 0.508 0.0
C855 C 0.02902 0.13417 0.47903 0.0
O856 O 0.04512 0.12958 0.46824 0.0
C857 C 0.12787 0.16624 0.55855 0.0
C858 C 0.12512 0.18974 0.58221 0.0
C859 C 0.13652 0.173 0.57655 0.0
N860 N 0.11195 0.17825 0.55401 0.0
N861 N 0.11073 0.19256 0.56798 0.0
C862 C 0.13291 0.14718 0.54732 0.0
H863 H 0.11955 0.1417 0.53867 0.0
H864 H 0.13816 0.1352 0.55793 0.0
H865 H 0.14536 0.15039 0.53646 0.0
C866 C 0.05274 0.12688 0.53963 0.0
N867 N 0.06081 0.14384 0.53167 0.0
N868 N 0.07469 0.1511 0.54404 0.0
C869 C 0.07528 0.13925 0.56077 0.0
C870 C 0.0616 0.12342 0.55838 0.0
C871 C 0.03861 0.11314 0.52832 0.0
H872 H 0.02331 0.12013 0.52781 0.0
H873 H 0.04406 0.11127 0.51253 0.0
H874 H 0.0375 0.09795 0.53543 0.0
O875 O 0.05 0.18561 0.51027 0.0
O876 O 0.07313 0.19811 0.5313 0.0
H877 H 0.08932 0.15981 0.58178 0.0
H878 H 0.08094 0.13625 0.59283 0.0
C879 C 0.08788 0.14328 0.57921 0.0
H880 H 0.10314 0.13658 0.57716 0.0
H881 H 0.09927 0.20347 0.56851 0.0
O882 O 0.03094 0.14502 0.49482 0.0
C883 C 0.05712 0.20028 0.52056 0.0
Co884 Co 0.40597 0.71233 0.76412 0.0
Co885 Co 0.42247 0.67862 0.73493 0.0
C886 C 0.408 0.66987 0.77828 0.0
O887 O 0.4038 0.6884 0.78178 0.0
O888 O 0.41543 0.66427 0.76125 0.0
C889 C 0.38388 0.73866 0.79277 0.0
O890 O 0.37933 0.72244 0.80342 0.0
C891 C 0.41614 0.64182 0.71037 0.0
C892 C 0.43895 0.64574 0.6862 0.0
C893 C 0.42283 0.6336 0.69216 0.0
N894 N 0.4276 0.65819 0.71476 0.0
N895 N 0.44149 0.66014 0.70046 0.0
C896 C 0.39761 0.63586 0.72205 0.0
H897 H 0.3921 0.64872 0.73138 0.0
H898 H 0.38542 0.63071 0.71164 0.0
H899 H 0.4015 0.62308 0.73228 0.0
C900 C 0.37447 0.71482 0.73249 0.0
N901 N 0.39209 0.70733 0.73958 0.0
N902 N 0.39942 0.69411 0.72656 0.0
C903 C 0.38689 0.69332 0.71035 0.0
C904 C 0.37057 0.70619 0.71371 0.0
C905 C 0.36079 0.72838 0.7445 0.0
H906 H 0.36731 0.74389 0.74485 0.0
H907 H 0.35982 0.72276 0.76032 0.0
H908 H 0.34529 0.72903 0.73802 0.0
O909 O 0.43446 0.71961 0.75901 0.0
O910 O 0.44701 0.69719 0.73734 0.0
H911 H 0.40722 0.6806 0.68832 0.0
H912 H 0.38301 0.68841 0.67826 0.0
C913 C 0.39074 0.68137 0.69145 0.0
H914 H 0.38465 0.66583 0.69331 0.0
H915 H 0.45195 0.67201 0.6998 0.0
O916 O 0.39438 0.7369 0.77674 0.0
C917 C 0.449 0.71318 0.74812 0.0
Co918 Co 0.9631 0.36712 0.50998 0.0
Co919 Co 0.92822 0.3471 0.53532 0.0
C920 C 0.92129 0.36605 0.49355 0.0
O921 O 0.93986 0.37106 0.49194 0.0
O922 O 0.91487 0.35629 0.50902 0.0
C923 C 0.99942 0.37488 0.48639 0.0
O924 O 0.99668 0.35661 0.47894 0.0
C925 C 0.89079 0.35192 0.5587 0.0
C926 C 0.89257 0.32663 0.58053 0.0
C927 C 0.88148 0.34387 0.57579 0.0
N928 N 0.90676 0.34015 0.55378 0.0
N929 N 0.90742 0.32477 0.56661 0.0
C930 C 0.88638 0.37194 0.54895 0.0
H931 H 0.89988 0.37761 0.54066 0.0
H932 H 0.88161 0.38325 0.56046 0.0
H933 H 0.87376 0.37 0.53798 0.0
C934 C 0.96472 0.39397 0.54548 0.0
N935 N 0.95691 0.37791 0.53563 0.0
N936 N 0.94313 0.36911 0.54706 0.0
C937 C 0.94236 0.37898 0.56503 0.0
C938 C 0.95589 0.39511 0.56451 0.0
C939 C 0.97914 0.40878 0.53609 0.0
H940 H 0.97464 0.41175 0.52016 0.0
H941 H 0.97939 0.42341 0.54438 0.0
H942 H 0.99461 0.40217 0.53612 0.0
O943 O 0.97101 0.3383 0.51246 0.0
O944 O 0.94747 0.32336 0.53142 0.0
H945 H 0.92919 0.35564 0.58353 0.0
H946 H 0.93722 0.37785 0.59732 0.0
C947 C 0.93021 0.37238 0.58302 0.0
H948 H 0.91475 0.37889 0.58201 0.0
H949 H 0.9188 0.31378 0.5667 0.0
O950 O 0.98677 0.38193 0.49908 0.0
C951 C 0.96416 0.32268 0.52153 0.0
Co952 Co 0.61605 0.21298 0.75707 0.0
Co953 Co 0.59906 0.17853 0.78504 0.0
C954 C 0.61345 0.17078 0.7417 0.0
O955 O 0.61765 0.18941 0.73865 0.0
O956 O 0.60608 0.16477 0.75859 0.0
C957 C 0.63978 0.23929 0.72967 0.0
O958 O 0.64548 0.22304 0.71967 0.0
C959 C 0.60433 0.14102 0.80879 0.0
C960 C 0.58184 0.14533 0.83318 0.0
C961 C 0.59758 0.13284 0.827 0.0
N962 N 0.59332 0.15775 0.80467 0.0
N963 N 0.57955 0.15989 0.81906 0.0
C964 C 0.62258 0.13464 0.7969 0.0
H965 H 0.62852 0.14749 0.78781 0.0
H966 H 0.63464 0.12882 0.80711 0.0
H967 H 0.61817 0.12223 0.78642 0.0
C968 C 0.64732 0.21445 0.78898 0.0
N969 N 0.62984 0.20711 0.78142 0.0
N970 N 0.62228 0.1936 0.79405 0.0
C971 C 0.63456 0.19247 0.81045 0.0
C972 C 0.65094 0.20538 0.80756 0.0
C973 C 0.66023 0.22994 0.77855 0.0
H974 H 0.65122 0.24393 0.77611 0.0
H975 H 0.6649 0.22407 0.7635 0.0
H976 H 0.6739 0.23386 0.78754 0.0
O977 O 0.58802 0.22108 0.76309 0.0
O978 O 0.57475 0.19735 0.78283 0.0
H979 H 0.61493 0.17774 0.83183 0.0
H980 H 0.63942 0.18436 0.84189 0.0
C981 C 0.6313 0.1788 0.82827 0.0
H982 H 0.63729 0.16353 0.82472 0.0
H983 H 0.56947 0.17206 0.81994 0.0
O984 O 0.62805 0.23753 0.74483 0.0
C985 C 0.57328 0.21426 0.77346 0.0
Co986 Co 0.46331 0.15573 0.51329 0.0
Co987 Co 0.42845 0.17292 0.48611 0.0
C988 C 0.42119 0.15701 0.52904 0.0
O989 O 0.43989 0.15279 0.53147 0.0
O990 O 0.41481 0.16528 0.51269 0.0
C991 C 0.49013 0.13417 0.54161 0.0
O992 O 0.47429 0.1311 0.5533 0.0
C993 C 0.39134 0.16669 0.46214 0.0
C994 C 0.39442 0.19018 0.4385 0.0
C995 C 0.38277 0.17361 0.44417 0.0
N996 N 0.40746 0.17845 0.46664 0.0
N997 N 0.40888 0.19277 0.4527 0.0
C998 C 0.38604 0.14768 0.47335 0.0
H999 H 0.39923 0.14217 0.48223 0.0
H1000 H 0.38089 0.13571 0.4627 0.0
H1001 H 0.37343 0.15098 0.48399 0.0
C1002 C 0.46525 0.12538 0.4808 0.0
N1003 N 0.45757 0.14251 0.48876 0.0
N1004 N 0.44383 0.15009 0.47643 0.0
C1005 C 0.44291 0.1382 0.45973 0.0
C1006 C 0.45628 0.12208 0.46208 0.0
C1007 C 0.47948 0.1116 0.49192 0.0
H1008 H 0.49496 0.1182 0.49161 0.0
H1009 H 0.47466 0.11027 0.50797 0.0
H1010 H 0.47989 0.09621 0.48514 0.0
O1011 O 0.47085 0.1841 0.50805 0.0
O1012 O 0.44696 0.19754 0.48862 0.0
H1013 H 0.42937 0.15919 0.43881 0.0
H1014 H 0.43746 0.13561 0.42759 0.0
C1015 C 0.43053 0.14262 0.44122 0.0
H1016 H 0.41514 0.13613 0.44309 0.0
H1017 H 0.42052 0.20348 0.45215 0.0
O1018 O 0.48805 0.14374 0.52504 0.0
C1019 C 0.46386 0.19901 0.49805 0.0
Co1020 Co 0.40571 0.30567 0.75807 0.0
Co1021 Co 0.42292 0.33996 0.78613 0.0
C1022 C 0.40818 0.34769 0.74275 0.0
O1023 O 0.40393 0.32911 0.73961 0.0
O1024 O 0.41566 0.35356 0.75964 0.0
C1025 C 0.38299 0.2795 0.72998 0.0
O1026 O 0.37902 0.29575 0.71916 0.0
C1027 C 0.41551 0.37684 0.80986 0.0
C1028 C 0.44118 0.37701 0.83131 0.0
C1029 C 0.4233 0.38714 0.82663 0.0
N1030 N 0.42802 0.36135 0.80526 0.0
N1031 N 0.44353 0.36177 0.81793 0.0
C1032 C 0.39559 0.38017 0.79943 0.0
H1033 H 0.39125 0.36667 0.79039 0.0
H1034 H 0.3835 0.38354 0.81063 0.0
H1035 H 0.39698 0.39328 0.78898 0.0
C1036 C 0.37467 0.30421 0.79009 0.0
N1037 N 0.39207 0.31158 0.78244 0.0
N1038 N 0.40001 0.32465 0.79526 0.0
C1039 C 0.38818 0.32536 0.81197 0.0
C1040 C 0.37161 0.31267 0.8091 0.0
C1041 C 0.36051 0.2907 0.77855 0.0
H1042 H 0.36652 0.27498 0.77871 0.0
H1043 H 0.35961 0.29583 0.76257 0.0
H1044 H 0.34503 0.29075 0.78512 0.0
O1045 O 0.43388 0.29776 0.76407 0.0
O1046 O 0.44736 0.32138 0.78386 0.0
H1047 H 0.40984 0.33837 0.83265 0.0
H1048 H 0.38716 0.32847 0.84444 0.0
C1049 C 0.3932 0.33664 0.83102 0.0
H1050 H 0.38601 0.35181 0.83065 0.0
H1051 H 0.45524 0.35113 0.818 0.0
O1052 O 0.39353 0.28108 0.74603 0.0
C1053 C 0.44872 0.30452 0.77438 0.0
Co1054 Co 0.55769 0.36685 0.51075 0.0
Co1055 Co 0.5913 0.34764 0.48318 0.0
C1056 C 0.59976 0.3636 0.52597 0.0
O1057 O 0.58132 0.36843 0.52911 0.0
O1058 O 0.60527 0.35552 0.50926 0.0
C1059 C 0.52158 0.37338 0.53489 0.0
O1060 O 0.52428 0.35463 0.54107 0.0
C1061 C 0.62806 0.35423 0.45934 0.0
C1062 C 0.62876 0.32778 0.43889 0.0
C1063 C 0.63866 0.34594 0.44303 0.0
N1064 N 0.61267 0.34171 0.46426 0.0
N1065 N 0.61338 0.32576 0.45219 0.0
C1066 C 0.63097 0.37464 0.46889 0.0
H1067 H 0.61735 0.37914 0.47765 0.0
H1068 H 0.63421 0.38626 0.45717 0.0
H1069 H 0.64403 0.37396 0.47949 0.0
C1070 C 0.55642 0.39619 0.47699 0.0
N1071 N 0.56385 0.37932 0.48573 0.0
N1072 N 0.57644 0.37035 0.47315 0.0
C1073 C 0.57671 0.38084 0.45554 0.0
C1074 C 0.56422 0.39768 0.45749 0.0
C1075 C 0.54314 0.41116 0.48769 0.0
H1076 H 0.54756 0.4122 0.50388 0.0
H1077 H 0.54429 0.42645 0.48078 0.0
H1078 H 0.52717 0.40593 0.4868 0.0
O1079 O 0.54864 0.33864 0.50574 0.0
O1080 O 0.57204 0.32385 0.48655 0.0
H1081 H 0.57865 0.37916 0.42298 0.0
H1082 H 0.60253 0.38073 0.43589 0.0
C1083 C 0.58714 0.37401 0.43658 0.0
H1084 H 0.58838 0.35726 0.43625 0.0
H1085 H 0.60287 0.31392 0.45246 0.0
O1086 O 0.53432 0.38129 0.52279 0.0
C1087 C 0.5551 0.32326 0.49601 0.0
Co1088 Co 0.76285 0.61545 0.80594 0.0
Co1089 Co 0.73478 0.59773 0.83986 0.0
C1090 C 0.77738 0.61451 0.84835 0.0
O1091 O 0.78031 0.61904 0.82981 0.0
O1092 O 0.76102 0.60574 0.85405 0.0
C1093 C 0.79056 0.63871 0.77989 0.0
O1094 O 0.80129 0.64292 0.79615 0.0
C1095 C 0.71046 0.60349 0.87676 0.0
C1096 C 0.68675 0.58012 0.87318 0.0
C1097 C 0.6924 0.59651 0.8851 0.0
N1098 N 0.71503 0.59196 0.86051 0.0
N1099 N 0.70103 0.57771 0.85878 0.0
C1100 C 0.72172 0.62238 0.8824 0.0
H1101 H 0.73043 0.62823 0.86925 0.0
H1102 H 0.71112 0.63424 0.88792 0.0
H1103 H 0.73253 0.6188 0.89479 0.0
C1104 C 0.72994 0.64544 0.80345 0.0
N1105 N 0.73777 0.62815 0.81095 0.0
N1106 N 0.72524 0.62042 0.82441 0.0
C1107 C 0.70857 0.63232 0.82531 0.0
C1108 C 0.71114 0.64865 0.81228 0.0
C1109 C 0.74135 0.6596 0.78985 0.0
H1110 H 0.74201 0.65304 0.77437 0.0
H1111 H 0.75709 0.66133 0.7955 0.0
H1112 H 0.73421 0.67479 0.7891 0.0
O1113 O 0.75898 0.58668 0.79871 0.0
O1114 O 0.73783 0.57337 0.82121 0.0
H1115 H 0.68741 0.61134 0.83848 0.0
H1116 H 0.67645 0.63516 0.83072 0.0
C1117 C 0.69 0.6279 0.83758 0.0
H1118 H 0.69191 0.63413 0.85306 0.0
H1119 H 0.70052 0.56716 0.84699 0.0
O1120 O 0.77479 0.62777 0.78143 0.0
C1121 C 0.74859 0.57177 0.80516 0.0
Co1122 Co 0.86515 1.00762 0.46485 0.0
Co1123 Co 0.84825 0.03382 0.42903 0.0
C1124 C 0.86464 0.99069 0.42341 0.0
O1125 O 0.8688 0.98873 0.44216 0.0
O1126 O 0.85628 1.00681 0.41665 0.0
C1127 C 0.88623 0.98008 0.49244 0.0
O1128 O 0.8897 0.96849 0.47662 0.0
C1129 C 0.85766 0.05642 0.39209 0.0
C1130 C 0.83076 0.0758 0.3876 0.0
C1131 C 0.84987 0.07166 0.37986 0.0
N1132 N 0.84397 0.05195 0.40656 0.0
N1133 N 0.8278 0.06344 0.40364 0.0
C1134 C 0.87761 0.0458 0.38978 0.0
H1135 H 0.88125 0.03684 0.40353 0.0
H1136 H 0.88997 0.05676 0.38673 0.0
H1137 H 0.87671 0.03539 0.37659 0.0
C1138 C 0.89514 0.04052 0.46644 0.0
N1139 N 0.87822 0.03212 0.45875 0.0
N1140 N 0.87041 0.04418 0.44491 0.0
C1141 C 0.88179 0.06121 0.44407 0.0
C1142 C 0.89799 0.05929 0.4574 0.0
C1143 C 0.90911 0.02984 0.48081 0.0
H1144 H 0.90279 0.03077 0.49637 0.0
H1145 H 0.91026 0.0136 0.47658 0.0
H1146 H 0.92453 0.03657 0.48072 0.0
O1147 O 0.83647 0.01292 0.47125 0.0
O1148 O 0.82313 0.03176 0.44678 0.0
H1149 H 0.86008 0.08065 0.42933 0.0
H1150 H 0.88178 0.09358 0.44004 0.0
C1151 C 0.87665 0.0797 0.43199 0.0
H1152 H 0.8847 0.07912 0.4173 0.0
H1153 H 0.815 0.06327 0.41294 0.0
O1154 O 0.87657 0.99658 0.49021 0.0
C1155 C 0.82153 0.02261 0.46382 0.0
Co1156 Co 0.26051 0.90394 0.80692 0.0
Co1157 Co 0.28696 0.92188 0.84205 0.0
C1158 C 0.24404 0.90573 0.84878 0.0
O1159 O 0.24202 0.90135 0.83008 0.0
O1160 O 0.26023 0.91415 0.85541 0.0
C1161 C 0.23279 0.88111 0.78075 0.0
O1162 O 0.22145 0.87799 0.79683 0.0
C1163 C 0.31062 0.91645 0.87955 0.0
C1164 C 0.33407 0.94012 0.87633 0.0
C1165 C 0.32848 0.92365 0.88817 0.0
N1166 N 0.30614 0.92792 0.86322 0.0
N1167 N 0.31997 0.94235 0.86172 0.0
C1168 C 0.29949 0.89744 0.88504 0.0
H1169 H 0.29071 0.89169 0.87187 0.0
H1170 H 0.31018 0.8856 0.8904 0.0
H1171 H 0.28875 0.90083 0.89754 0.0
C1172 C 0.29318 0.87381 0.80608 0.0
N1173 N 0.28504 0.89104 0.8133 0.0
N1174 N 0.29707 0.89889 0.82716 0.0
C1175 C 0.31377 0.88705 0.82862 0.0
C1176 C 0.31171 0.87071 0.8155 0.0
C1177 C 0.28238 0.85971 0.7919 0.0
H1178 H 0.28257 0.86625 0.7764 0.0
H1179 H 0.26635 0.8581 0.79671 0.0
H1180 H 0.28944 0.84446 0.79157 0.0
O1181 O 0.26563 0.93218 0.79896 0.0
O1182 O 0.2844 0.9462 0.82306 0.0
H1183 H 0.33439 0.90826 0.84231 0.0
H1184 H 0.34581 0.88462 0.83469 0.0
C1185 C 0.33203 0.89167 0.84129 0.0
H1186 H 0.32991 0.88534 0.8567 0.0
H1187 H 0.32053 0.9529 0.84993 0.0
O1188 O 0.24906 0.89128 0.78237 0.0
C1189 C 0.27531 0.94731 0.80595 0.0
Co1190 Co 0.15582 0.51196 0.46319 0.0
Co1191 Co 0.17335 0.4838 0.42924 0.0
C1192 C 0.15839 0.52697 0.42098 0.0
O1193 O 0.15401 0.53016 0.43953 0.0
O1194 O 0.16601 0.51011 0.41523 0.0
C1195 C 0.13377 0.54045 0.48963 0.0
O1196 O 0.13033 0.55187 0.47367 0.0
C1197 C 0.16676 0.45955 0.39255 0.0
C1198 C 0.19053 0.43614 0.39516 0.0
C1199 C 0.17372 0.44171 0.3838 0.0
N1200 N 0.17875 0.46413 0.40846 0.0
N1201 N 0.19321 0.45032 0.40963 0.0
C1202 C 0.14751 0.47053 0.38762 0.0
H1203 H 0.14245 0.47983 0.40069 0.0
H1204 H 0.1354 0.45963 0.38333 0.0
H1205 H 0.15023 0.4807 0.3745 0.0
C1206 C 0.12549 0.47925 0.46549 0.0
N1207 N 0.14244 0.48736 0.45756 0.0
N1208 N 0.15044 0.47461 0.44449 0.0
C1209 C 0.13909 0.45753 0.44426 0.0
C1210 C 0.12282 0.46001 0.4574 0.0
C1211 C 0.11152 0.49039 0.47949 0.0
H1212 H 0.11793 0.49014 0.49505 0.0
H1213 H 0.1102 0.50642 0.47459 0.0
H1214 H 0.09616 0.48352 0.47973 0.0
O1215 O 0.18397 0.50631 0.47133 0.0
O1216 O 0.19767 0.48639 0.44799 0.0
H1217 H 0.13797 0.42502 0.44074 0.0
H1218 H 0.13812 0.43922 0.41753 0.0
C1219 C 0.14446 0.43853 0.43308 0.0
H1220 H 0.16114 0.4368 0.43223 0.0
H1221 H 0.20415 0.44987 0.42107 0.0
O1222 O 0.14365 0.52405 0.48768 0.0
C1223 C 0.19889 0.49602 0.46477 0.0
Co1224 Co 0.76199 0.40522 0.7137 0.0
Co1225 Co 0.73502 0.422 0.67836 0.0
C1226 C 0.77769 0.40443 0.67187 0.0
O1227 O 0.78 0.40036 0.69059 0.0
O1228 O 0.76168 0.4133 0.66543 0.0
C1229 C 0.78919 0.38301 0.74078 0.0
O1230 O 0.80017 0.37886 0.72469 0.0
C1231 C 0.71182 0.41309 0.64156 0.0
C1232 C 0.69234 0.44003 0.63782 0.0
C1233 C 0.69641 0.42109 0.62966 0.0
N1234 N 0.71647 0.42652 0.65623 0.0
N1235 N 0.70492 0.44272 0.65376 0.0
C1236 C 0.7224 0.3932 0.63877 0.0
H1237 H 0.73035 0.38866 0.65289 0.0
H1238 H 0.7116 0.38118 0.63415 0.0
H1239 H 0.73381 0.39482 0.62651 0.0
C1240 C 0.72862 0.37584 0.7165 0.0
N1241 N 0.73689 0.39271 0.70854 0.0
N1242 N 0.72471 0.40021 0.69463 0.0
C1243 C 0.70778 0.38866 0.69396 0.0
C1244 C 0.70986 0.3727 0.70754 0.0
C1245 C 0.73961 0.36192 0.7307 0.0
H1246 H 0.73991 0.3688 0.74605 0.0
H1247 H 0.75549 0.36 0.72552 0.0
H1248 H 0.73236 0.34678 0.73158 0.0
O1249 O 0.75833 0.43435 0.71945 0.0
O1250 O 0.73778 0.44716 0.69603 0.0
H1251 H 0.6755 0.38766 0.68926 0.0
H1252 H 0.6905 0.38498 0.66683 0.0
C1253 C 0.68938 0.39313 0.68145 0.0
H1254 H 0.688 0.40963 0.67864 0.0
H1255 H 0.7052 0.45536 0.66328 0.0
O1256 O 0.77327 0.39367 0.73893 0.0
C1257 C 0.7483 0.44917 0.71222 0.0
Co1258 Co 0.65324 1.00741 0.55599 0.0
Co1259 Co 0.67193 0.03497 0.59002 0.0
C1260 C 0.65717 0.99173 0.59786 0.0
O1261 O 0.6524 0.98881 0.57937 0.0
O1262 O 0.66481 1.00854 0.60372 0.0
C1263 C 0.64663 0.98427 0.51906 0.0
O1264 O 0.6658 0.97905 0.52065 0.0
C1265 C 0.66552 0.05865 0.62699 0.0
C1266 C 0.69129 0.07999 0.62679 0.0
C1267 C 0.6735 0.07543 0.63714 0.0
N1268 N 0.67782 0.05395 0.61137 0.0
N1269 N 0.69339 0.06654 0.61156 0.0
C1270 C 0.64554 0.04842 0.63052 0.0
H1271 H 0.64101 0.03933 0.61712 0.0
H1272 H 0.63356 0.05974 0.6339 0.0
H1273 H 0.64693 0.03802 0.64368 0.0
C1274 C 0.62277 0.04005 0.55579 0.0
N1275 N 0.64016 0.03192 0.5627 0.0
N1276 N 0.64875 0.04455 0.57554 0.0
C1277 C 0.63741 0.06159 0.57651 0.0
C1278 C 0.62047 0.05914 0.56425 0.0
C1279 C 0.60803 0.02907 0.54246 0.0
H1280 H 0.60739 0.01283 0.5468 0.0
H1281 H 0.59257 0.03559 0.54361 0.0
H1282 H 0.61323 0.03017 0.52651 0.0
O1283 O 0.6812 0.01322 0.54679 0.0
O1284 O 0.69558 0.03235 0.57052 0.0
H1285 H 0.63747 0.09411 0.57924 0.0
H1286 H 0.63656 0.08064 0.60277 0.0
C1287 C 0.64333 0.0806 0.5874 0.0
H1288 H 0.66005 0.08176 0.58863 0.0
H1289 H 0.70494 0.06655 0.60075 0.0
O1290 O 0.63868 0.99536 0.53266 0.0
C1291 C 0.69636 0.0232 0.55342 0.0
Co1292 Co 0.25717 0.11507 0.71452 0.0
Co1293 Co 0.28396 0.09768 0.6794 0.0
C1294 C 0.24082 0.11334 0.6726 0.0
O1295 O 0.23861 0.11771 0.69129 0.0
O1296 O 0.25713 0.10508 0.66611 0.0
C1297 C 0.22949 0.13733 0.74142 0.0
O1298 O 0.21797 0.14088 0.72555 0.0
C1299 C 0.30743 0.1039 0.64197 0.0
C1300 C 0.33122 0.08054 0.64484 0.0
C1301 C 0.32535 0.09708 0.63324 0.0
N1302 N 0.30315 0.09215 0.65814 0.0
N1303 N 0.31717 0.07789 0.65943 0.0
C1304 C 0.29609 0.12286 0.63676 0.0
H1305 H 0.28729 0.12833 0.65001 0.0
H1306 H 0.30664 0.13489 0.63153 0.0
H1307 H 0.28536 0.11951 0.62423 0.0
C1308 C 0.28958 0.14558 0.71566 0.0
N1309 N 0.28157 0.12834 0.70827 0.0
N1310 N 0.29373 0.12067 0.69445 0.0
C1311 C 0.31039 0.1326 0.6932 0.0
C1312 C 0.30815 0.14885 0.70641 0.0
C1313 C 0.27864 0.15947 0.72991 0.0
H1314 H 0.27906 0.15294 0.74541 0.0
H1315 H 0.26255 0.16083 0.7252 0.0
H1316 H 0.28548 0.17483 0.73021 0.0
O1317 O 0.26273 0.08678 0.72224 0.0
O1318 O 0.28191 0.07327 0.6982 0.0
H1319 H 0.33119 0.1115 0.67966 0.0
H1320 H 0.34249 0.13514 0.68751 0.0
C1321 C 0.32879 0.12808 0.68072 0.0
H1322 H 0.32681 0.13447 0.66531 0.0
H1323 H 0.31791 0.0672 0.67107 0.0
O1324 O 0.24574 0.12724 0.73935 0.0
C1325 C 0.27276 0.07189 0.71525 0.0
Co1326 Co 0.3666 0.50938 0.55658 0.0
Co1327 Co 0.34823 0.48356 0.59184 0.0
C1328 C 0.36552 0.52623 0.59812 0.0
O1329 O 0.37008 0.52807 0.57946 0.0
O1330 O 0.35668 0.51028 0.60471 0.0
C1331 C 0.38792 0.53722 0.52951 0.0
O1332 O 0.38997 0.54938 0.54516 0.0
C1333 C 0.35552 0.46025 0.62887 0.0
C1334 C 0.32881 0.44015 0.63038 0.0
C1335 C 0.34731 0.44405 0.63972 0.0
N1336 N 0.34264 0.46527 0.61381 0.0
N1337 N 0.32652 0.45344 0.61503 0.0
C1338 C 0.37612 0.46956 0.63117 0.0
H1339 H 0.38035 0.47818 0.61737 0.0
H1340 H 0.38769 0.45773 0.63419 0.0
H1341 H 0.37591 0.48025 0.64416 0.0
C1342 C 0.39517 0.47531 0.5549 0.0
N1343 N 0.3788 0.48447 0.56284 0.0
N1344 N 0.37038 0.47257 0.57644 0.0
C1345 C 0.38078 0.45489 0.5769 0.0
C1346 C 0.39695 0.45617 0.56344 0.0
C1347 C 0.40952 0.48544 0.54051 0.0
H1348 H 0.40324 0.48456 0.52492 0.0
H1349 H 0.41122 0.50166 0.54461 0.0
H1350 H 0.4247 0.4782 0.54075 0.0
O1351 O 0.33802 0.50482 0.54924 0.0
O1352 O 0.3237 0.48634 0.57341 0.0
H1353 H 0.35779 0.43619 0.59057 0.0
H1354 H 0.37913 0.42245 0.58028 0.0
C1355 C 0.37446 0.4364 0.58845 0.0
H1356 H 0.382 0.4363 0.60346 0.0
H1357 H 0.31443 0.45379 0.60482 0.0
O1358 O 0.37897 0.52031 0.53166 0.0
C1359 C 0.32271 0.49546 0.55632 0.0
Co1360 Co 0.80709 0.76481 0.61473 0.0
Co1361 Co 0.8406 0.73577 0.59759 0.0
C1362 C 0.84959 0.77886 0.61277 0.0
O1363 O 0.8311 0.78241 0.61717 0.0
O1364 O 0.85501 0.76194 0.60498 0.0
C1365 C 0.78065 0.7928 0.63768 0.0
O1366 O 0.79671 0.80379 0.64199 0.0
C1367 C 0.87724 0.71108 0.60366 0.0
C1368 C 0.87337 0.68719 0.58054 0.0
C1369 C 0.88541 0.69291 0.59681 0.0
N1370 N 0.86098 0.71568 0.59214 0.0
N1371 N 0.85906 0.70157 0.57805 0.0
C1372 C 0.88309 0.72244 0.62242 0.0
H1373 H 0.87024 0.73178 0.62794 0.0
H1374 H 0.88805 0.71182 0.63451 0.0
H1375 H 0.896 0.73263 0.61883 0.0
C1376 C 0.80455 0.73262 0.64557 0.0
N1377 N 0.81209 0.74003 0.62812 0.0
N1378 N 0.82517 0.72705 0.62049 0.0
C1379 C 0.82581 0.71055 0.63263 0.0
C1380 C 0.81298 0.71367 0.64901 0.0
C1381 C 0.79116 0.74444 0.65957 0.0
H1382 H 0.7969 0.7602 0.66084 0.0
H1383 H 0.79058 0.73767 0.67495 0.0
H1384 H 0.77559 0.74499 0.65319 0.0
O1385 O 0.79965 0.76016 0.58617 0.0
O1386 O 0.82196 0.73857 0.57324 0.0
H1387 H 0.83036 0.67832 0.63574 0.0
H1388 H 0.85312 0.69316 0.63445 0.0
C1389 C 0.83755 0.69161 0.62832 0.0
H1390 H 0.83828 0.68885 0.61179 0.0
H1391 H 0.84724 0.70108 0.56753 0.0
O1392 O 0.78254 0.777 0.62684 0.0
C1393 C 0.80599 0.74942 0.57147 0.0
Co1394 Co 0.80689 0.25727 0.90568 0.0
Co1395 Co 0.84051 0.28615 0.92288 0.0
C1396 C 0.8493 0.2431 0.90759 0.0
O1397 O 0.83078 0.23969 0.90326 0.0
O1398 O 0.85491 0.25998 0.91535 0.0
C1399 C 0.78081 0.22806 0.88428 0.0
O1400 O 0.79656 0.21596 0.88281 0.0
C1401 C 0.87702 0.31089 0.91649 0.0
C1402 C 0.8735 0.33472 0.93971 0.0
C1403 C 0.88528 0.32907 0.92323 0.0
N1404 N 0.86097 0.30623 0.92825 0.0
N1405 N 0.85927 0.3203 0.94241 0.0
C1406 C 0.88253 0.2996 0.89759 0.0
H1407 H 0.86958 0.29027 0.89225 0.0
H1408 H 0.88725 0.31026 0.88545 0.0
H1409 H 0.8955 0.28941 0.90092 0.0
C1410 C 0.80424 0.28959 0.87505 0.0
N1411 N 0.8119 0.28207 0.8924 0.0
N1412 N 0.82499 0.29502 0.90008 0.0
C1413 C 0.82547 0.31165 0.88811 0.0
C1414 C 0.81254 0.30862 0.87176 0.0
C1415 C 0.79079 0.27783 0.86101 0.0
H1416 H 0.77513 0.27769 0.86718 0.0
H1417 H 0.79619 0.26194 0.86 0.0
H1418 H 0.79054 0.28444 0.84556 0.0
O1419 O 0.79943 0.26177 0.93422 0.0
O1420 O 0.82188 0.2832 0.94726 0.0
H1421 H 0.82968 0.34396 0.88541 0.0
H1422 H 0.85259 0.32936 0.88636 0.0
C1423 C 0.83705 0.33065 0.8926 0.0
H1424 H 0.83789 0.33319 0.90917 0.0
H1425 H 0.84761 0.32076 0.9531 0.0
O1426 O 0.78262 0.24502 0.8932 0.0
C1427 C 0.80587 0.27239 0.94897 0.0
Co1428 Co 0.50861 0.96521 0.36383 0.0
Co1429 Co 0.53563 0.93059 0.34561 0.0
C1430 C 0.49277 0.92331 0.36214 0.0
O1431 O 0.48998 0.94192 0.36649 0.0
O1432 O 0.50931 0.9173 0.35405 0.0
C1433 C 0.48138 0.99158 0.38718 0.0
O1434 O 0.47042 0.97539 0.391 0.0
C1435 C 0.55925 0.89375 0.35308 0.0
C1436 C 0.57957 0.89237 0.32657 0.0
C1437 C 0.57551 0.88293 0.34497 0.0
N1438 N 0.55431 0.90886 0.34023 0.0
N1439 N 0.5663 0.90773 0.32424 0.0
C1440 C 0.54977 0.89133 0.37358 0.0
H1441 H 0.5411 0.9051 0.37781 0.0
H1442 H 0.56152 0.88828 0.38523 0.0
H1443 H 0.53909 0.87833 0.37321 0.0
C1444 C 0.54237 0.9669 0.39311 0.0
N1445 N 0.53359 0.9592 0.37638 0.0
N1446 N 0.54596 0.94613 0.36781 0.0
C1447 C 0.56351 0.9458 0.37841 0.0
C1448 C 0.56171 0.95875 0.39494 0.0
C1449 C 0.5317 0.98058 0.40774 0.0
H1450 H 0.53216 0.99636 0.40191 0.0
H1451 H 0.51561 0.97593 0.40915 0.0
H1452 H 0.53881 0.98014 0.42298 0.0
O1453 O 0.51344 0.97281 0.33526 0.0
O1454 O 0.53246 0.94894 0.3211 0.0
H1455 H 0.59604 0.94319 0.37699 0.0
H1456 H 0.58268 0.91963 0.37917 0.0
C1457 C 0.58231 0.93482 0.372 0.0
H1458 H 0.58269 0.93308 0.35529 0.0
H1459 H 0.566 0.91796 0.31217 0.0
O1460 O 0.49728 0.98998 0.37642 0.0
C1461 C 0.52302 0.96585 0.32002 0.0
Co1462 Co 0.21214 0.26392 0.90415 0.0
Co1463 Co 0.17763 0.23655 0.92183 0.0
C1464 C 0.17011 0.27906 0.90419 0.0
O1465 O 0.18872 0.28175 0.89976 0.0
O1466 O 0.1642 0.26289 0.91314 0.0
C1467 C 0.23941 0.29116 0.88178 0.0
O1468 O 0.22357 0.30254 0.87771 0.0
C1469 C 0.1409 0.2126 0.91454 0.0
C1470 C 0.14013 0.19214 0.94099 0.0
C1471 C 0.13041 0.19613 0.92272 0.0
N1472 N 0.15611 0.21767 0.92723 0.0
N1473 N 0.15533 0.20561 0.94318 0.0
C1474 C 0.13807 0.22223 0.89416 0.0
H1475 H 0.15176 0.23097 0.88976 0.0
H1476 H 0.13484 0.21058 0.88246 0.0
H1477 H 0.12504 0.23286 0.89485 0.0
C1478 C 0.21485 0.23027 0.87505 0.0
N1479 N 0.207 0.23868 0.89188 0.0
N1480 N 0.19356 0.22629 0.89988 0.0
C1481 C 0.19313 0.20909 0.88875 0.0
C1482 C 0.20637 0.21119 0.87251 0.0
C1483 C 0.22861 0.24127 0.86072 0.0
H1484 H 0.24423 0.24132 0.867 0.0
H1485 H 0.22353 0.25722 0.85914 0.0
H1486 H 0.22881 0.23415 0.8455 0.0
O1487 O 0.2186 0.26036 0.93317 0.0
O1488 O 0.19565 0.23967 0.9465 0.0
H1489 H 0.1793 0.18934 0.91074 0.0
H1490 H 0.18962 0.17664 0.88877 0.0
C1491 C 0.18147 0.19036 0.89412 0.0
H1492 H 0.1665 0.19066 0.88651 0.0
H1493 H 0.16572 0.20598 0.95513 0.0
O1494 O 0.23722 0.27517 0.89227 0.0
C1495 C 0.21179 0.2503 0.94814 0.0
Co1496 Co 0.01116 0.05758 0.86522 0.0
Co1497 Co 0.98401 0.09186 0.84663 0.0
C1498 C 0.02685 0.09946 0.86292 0.0
O1499 O 0.02967 0.08093 0.86756 0.0
O1500 O 0.01029 0.10533 0.85475 0.0
C1501 C 0.04013 0.03102 0.88598 0.0
O1502 O 0.05308 0.04615 0.88544 0.0
C1503 C 0.96053 0.12871 0.85385 0.0
C1504 C 0.94004 0.13 0.82743 0.0
C1505 C 0.94428 0.13955 0.84575 0.0
N1506 N 0.96532 0.1135 0.84108 0.0
N1507 N 0.95324 0.11457 0.82514 0.0
C1508 C 0.97011 0.13121 0.8743 0.0
H1509 H 0.9787 0.11742 0.87862 0.0
H1510 H 0.95842 0.13442 0.88596 0.0
H1511 H 0.98087 0.14414 0.87381 0.0
C1512 C 0.97725 0.05551 0.89408 0.0
N1513 N 0.98618 0.06355 0.87762 0.0
N1514 N 0.97378 0.07661 0.86903 0.0
C1515 C 0.95614 0.07669 0.87946 0.0
C1516 C 0.95786 0.06347 0.89576 0.0
C1517 C 0.98769 0.04139 0.9085 0.0
H1518 H 1.00377 0.04597 0.91034 0.0
H1519 H 0.98029 0.04138 0.9236 0.0
H1520 H 0.98731 0.02579 0.90219 0.0
O1521 O 1.00629 0.0495 0.83688 0.0
O1522 O 0.98709 0.07309 0.82243 0.0
H1523 H 0.92359 0.07934 0.87803 0.0
H1524 H 0.93701 0.10287 0.88031 0.0
C1525 C 0.93734 0.08771 0.87308 0.0
H1526 H 0.93695 0.08952 0.85638 0.0
H1527 H 0.95341 0.10425 0.81315 0.0
O1528 O 0.02256 0.03324 0.87841 0.0
C1529 C 0.99657 0.05617 0.8216 0.0
Co1530 Co 0.71291 0.25966 0.11515 0.0
Co1531 Co 0.67807 0.2862 0.09697 0.0
C1532 C 0.671 0.244 0.11533 0.0
O1533 O 0.68963 0.24179 0.11986 0.0
O1534 O 0.66479 0.25983 0.10601 0.0
C1535 C 0.73956 0.23205 0.1373 0.0
O1536 O 0.72354 0.22056 0.14019 0.0
C1537 C 0.64138 0.30982 0.10449 0.0
C1538 C 0.63969 0.32987 0.07777 0.0
C1539 C 0.63049 0.32601 0.09633 0.0
N1540 N 0.65631 0.30474 0.09152 0.0
N1541 N 0.65499 0.31655 0.0754 0.0
C1542 C 0.63926 0.3006 0.12514 0.0
H1543 H 0.65317 0.29214 0.12936 0.0
H1544 H 0.6362 0.31246 0.13667 0.0
H1545 H 0.62637 0.28978 0.12504 0.0
C1546 C 0.71591 0.29427 0.14313 0.0
N1547 N 0.70767 0.28512 0.12688 0.0
N1548 N 0.69408 0.29715 0.1186 0.0
C1549 C 0.69396 0.31487 0.12891 0.0
C1550 C 0.70759 0.31352 0.14495 0.0
C1551 C 0.73012 0.28394 0.15754 0.0
H1552 H 0.74566 0.28418 0.1511 0.0
H1553 H 0.72548 0.2679 0.15955 0.0
H1554 H 0.73028 0.29143 0.1726 0.0
O1555 O 0.71933 0.26272 0.08604 0.0
O1556 O 0.69607 0.28283 0.07232 0.0
H1557 H 0.69064 0.34733 0.12739 0.0
H1558 H 0.66743 0.3335 0.13034 0.0
C1559 C 0.6824 0.3334 0.12272 0.0
H1560 H 0.68017 0.33365 0.10607 0.0
H1561 H 0.66509 0.31612 0.06323 0.0
O1562 O 0.73784 0.24848 0.12742 0.0
C1563 C 0.71235 0.2724 0.07088 0.0
Co1564 Co 0.50783 0.05752 0.15141 0.0
Co1565 Co 0.53365 0.09263 0.17045 0.0
C1566 C 0.49093 0.09923 0.15396 0.0
O1567 O 0.48916 0.08062 0.14912 0.0
O1568 O 0.50696 0.10584 0.16266 0.0
C1569 C 0.48441 0.02097 0.14515 0.0
O1570 O 0.47783 0.02404 0.1637 0.0
C1571 C 0.55707 0.13026 0.16578 0.0
C1572 C 0.57979 0.1274 0.19021 0.0
C1573 C 0.57457 0.13912 0.17353 0.0
N1574 N 0.55243 0.11392 0.17716 0.0
N1575 N 0.5658 0.11262 0.19204 0.0
C1576 C 0.54653 0.13553 0.14638 0.0
H1577 H 0.53783 0.12234 0.14058 0.0
H1578 H 0.55761 0.14063 0.13478 0.0
H1579 H 0.53581 0.14817 0.14926 0.0
C1580 C 0.54146 0.05721 0.12226 0.0
N1581 N 0.53259 0.06441 0.13913 0.0
N1582 N 0.54434 0.0782 0.14752 0.0
C1583 C 0.56157 0.0796 0.13646 0.0
C1584 C 0.56017 0.0665 0.12003 0.0
C1585 C 0.53142 0.04285 0.10781 0.0
H1586 H 0.51517 0.04685 0.10616 0.0
H1587 H 0.53861 0.04323 0.09262 0.0
H1588 H 0.53247 0.02724 0.11399 0.0
O1589 O 0.51264 0.04891 0.17966 0.0
O1590 O 0.53081 0.07321 0.19423 0.0
H1591 H 0.58132 0.09278 0.15878 0.0
H1592 H 0.59378 0.08523 0.13565 0.0
C1593 C 0.57976 0.09196 0.14209 0.0
H1594 H 0.57815 0.10746 0.13583 0.0
H1595 H 0.56616 0.10087 0.20264 0.0
O1596 O 0.49649 0.0337 0.13717 0.0
C1597 C 0.52199 0.05594 0.19501 0.0
Co1598 Co 0.51214 0.46384 0.15546 0.0
Co1599 Co 0.48431 0.42952 0.17283 0.0
C1600 C 0.52754 0.42184 0.15788 0.0
O1601 O 0.53058 0.44042 0.1536 0.0
O1602 O 0.51072 0.41591 0.16545 0.0
C1603 C 0.54183 0.49026 0.13564 0.0
O1604 O 0.55448 0.47488 0.13602 0.0
C1605 C 0.46065 0.39261 0.16568 0.0
C1606 C 0.4392 0.39255 0.19134 0.0
C1607 C 0.44388 0.38236 0.1735 0.0
N1608 N 0.46526 0.40815 0.17813 0.0
N1609 N 0.45261 0.40779 0.19364 0.0
C1610 C 0.47101 0.38922 0.14576 0.0
H1611 H 0.47999 0.40273 0.14132 0.0
H1612 H 0.45978 0.38574 0.13372 0.0
H1613 H 0.48152 0.37616 0.14718 0.0
C1614 C 0.47991 0.46525 0.12463 0.0
N1615 N 0.48768 0.4579 0.142 0.0
N1616 N 0.47496 0.44474 0.14995 0.0
C1617 C 0.45821 0.44394 0.13815 0.0
C1618 C 0.46094 0.45667 0.1216 0.0
C1619 C 0.49126 0.47895 0.11053 0.0
H1620 H 0.49063 0.4947 0.11643 0.0
H1621 H 0.5074 0.47426 0.10982 0.0
H1622 H 0.4848 0.47864 0.095 0.0
O1623 O 0.50644 0.47184 0.18366 0.0
O1624 O 0.48682 0.44811 0.19723 0.0
H1625 H 0.43764 0.43075 0.15979 0.0
H1626 H 0.42575 0.44059 0.13715 0.0
C1627 C 0.43924 0.43251 0.14317 0.0
H1628 H 0.4397 0.41736 0.13594 0.0
H1629 H 0.45254 0.41849 0.20529 0.0
O1630 O 0.5241 0.48821 0.14288 0.0
C1631 C 0.49629 0.46499 0.19856 0.0
H1632 H 0.1713 0.15204 0.30152 0.0
H1633 H 0.22034 0.1873 0.32659 0.0
H1634 H 0.15105 0.18299 0.2975 0.0
H1635 H 0.20042 0.21829 0.32235 0.0
H1636 H 0.1529 0.2683 0.32609 0.0
H1637 H 0.1696 0.23621 0.33425 0.0
H1638 H 0.15365 0.21291 0.27514 0.0
H1639 H 0.13687 0.24471 0.26705 0.0
C1640 C 0.17757 0.16643 0.30636 0.0
C1641 C 0.19724 0.16748 0.31433 0.0
C1642 C 0.16612 0.18411 0.30397 0.0
C1643 C 0.17418 0.20307 0.30958 0.0
C1644 C 0.1937 0.20391 0.31812 0.0
C1645 C 0.20514 0.18626 0.32042 0.0
C1646 C 0.15285 0.25627 0.31491 0.0
C1647 C 0.14362 0.25908 0.29591 0.0
C1648 C 0.16246 0.23794 0.31956 0.0
C1649 C 0.16289 0.22204 0.30534 0.0
C1650 C 0.15332 0.22475 0.28652 0.0
C1651 C 0.14384 0.24306 0.28184 0.0
H1652 H 0.40135 0.59576 0.97344 0.0
H1653 H 0.43503 0.54635 0.94706 0.0
H1654 H 0.4328 0.61529 0.97708 0.0
H1655 H 0.46655 0.56549 0.95105 0.0
H1656 H 0.51723 0.61221 0.94582 0.0
H1657 H 0.48478 0.59564 0.93884 0.0
H1658 H 0.46325 0.6128 0.99826 0.0
H1659 H 0.49536 0.62953 1.00514 0.0
C1660 C 0.41551 0.58922 0.96829 0.0
C1661 C 0.41595 0.56967 0.95999 0.0
C1662 C 0.43349 0.60026 0.97049 0.0
C1663 C 0.45217 0.5919 0.96438 0.0
C1664 C 0.45241 0.57245 0.95567 0.0
C1665 C 0.43445 0.56144 0.95354 0.0
C1666 C 0.50552 0.61253 0.95733 0.0
C1667 C 0.50891 0.62214 0.97605 0.0
C1668 C 0.48698 0.60299 0.95336 0.0
C1669 C 0.47145 0.60294 0.968 0.0
C1670 C 0.47478 0.61282 0.98656 0.0
C1671 C 0.49328 0.62228 0.99055 0.0
H1672 H 0.90883 0.28036 0.31152 0.0
H1673 H 0.85776 0.25628 0.27812 0.0
H1674 H 0.88947 0.31136 0.31838 0.0
H1675 H 0.83884 0.28722 0.28463 0.0
H1676 H 0.82322 0.35455 0.27766 0.0
H1677 H 0.84442 0.32453 0.27282 0.0
H1678 H 0.85543 0.32173 0.33728 0.0
H1679 H 0.83357 0.35138 0.34223 0.0
C1680 C 0.8935 0.2816 0.30574 0.0
C1681 C 0.88493 0.26591 0.29408 0.0
C1682 C 0.88246 0.29932 0.30968 0.0
C1683 C 0.86282 0.30172 0.30176 0.0
C1684 C 0.8541 0.28585 0.2906 0.0
C1685 C 0.86495 0.2681 0.28694 0.0
C1686 C 0.83013 0.34748 0.29079 0.0
C1687 C 0.82659 0.35511 0.31033 0.0
C1688 C 0.84228 0.33039 0.28802 0.0
C1689 C 0.85137 0.32078 0.30471 0.0
C1690 C 0.84863 0.32895 0.32418 0.0
C1691 C 0.83621 0.34592 0.32698 0.0
H1692 H 0.52863 0.88115 1.00331 0.0
H1693 H 0.5023 0.91527 0.95391 0.0
H1694 H 0.56147 0.89648 0.99652 0.0
H1695 H 0.53516 0.93105 0.94744 0.0
H1696 H 0.60046 0.94418 0.93053 0.0
H1697 H 0.56936 0.92465 0.93549 0.0
H1698 H 0.57715 0.92921 1.00043 0.0
H1699 H 0.60865 0.94798 0.99532 0.0
C1700 C 0.52984 0.89193 0.99097 0.0
C1701 C 0.51281 0.89706 0.97919 0.0
C1702 C 0.54867 0.9008 0.98715 0.0
C1703 C 0.55093 0.91508 0.97152 0.0
C1704 C 0.53399 0.91992 0.95946 0.0
C1705 C 0.51513 0.91097 0.96324 0.0
C1706 C 0.59571 0.94058 0.94583 0.0
C1707 C 0.60687 0.94754 0.96257 0.0
C1708 C 0.57777 0.92966 0.94868 0.0
C1709 C 0.57068 0.92549 0.96835 0.0
C1710 C 0.58226 0.93197 0.98508 0.0
C1711 C 0.6002 0.94285 0.98219 0.0
H1712 H 0.16449 0.75062 0.20047 0.0
H1713 H 0.13263 0.77676 0.25142 0.0
H1714 H 0.18056 0.78333 0.19387 0.0
H1715 H 0.14823 0.80943 0.24452 0.0
H1716 H 0.2008 0.85525 0.24272 0.0
H1717 H 0.18156 0.82404 0.24772 0.0
H1718 H 0.17444 0.81806 0.18282 0.0
H1719 H 0.19442 0.84894 0.17793 0.0
C1720 C 0.16074 0.76338 0.2101 0.0
C1721 C 0.14742 0.76104 0.22655 0.0
C1722 C 0.16984 0.78216 0.20625 0.0
C1723 C 0.16575 0.79896 0.21874 0.0
C1724 C 0.15198 0.79671 0.23482 0.0
C1725 C 0.14296 0.77798 0.23871 0.0
C1726 C 0.19503 0.84726 0.22958 0.0
C1727 C 0.19913 0.85436 0.20997 0.0
C1728 C 0.18387 0.82949 0.2324 0.0
C1729 C 0.17651 0.81851 0.21565 0.0
C1730 C 0.18012 0.82602 0.19602 0.0
C1731 C 0.19131 0.84381 0.19321 0.0
H1732 H 0.0964 0.57467 0.09216 0.0
H1733 H 0.1051 0.57341 0.02735 0.0
H1734 H 0.06532 0.59446 0.08765 0.0
H1735 H 0.07381 0.59266 0.02269 0.0
H1736 H 0.99827 0.60426 0.06759 0.0
H1737 H 0.031 0.58829 0.07433 0.0
H1738 H 0.05881 0.62585 0.02842 0.0
H1739 H 0.02617 0.6415 0.02142 0.0
C1740 C 0.09174 0.57888 0.07698 0.0
C1741 C 0.10302 0.57258 0.06007 0.0
C1742 C 0.07387 0.58998 0.07438 0.0
C1743 C 0.06705 0.59504 0.05482 0.0
C1744 C 0.07874 0.58919 0.03797 0.0
C1745 C 0.09656 0.57807 0.04059 0.0
C1746 C 0.0114 0.6092 0.05905 0.0
C1747 C 1.00957 0.62403 0.04387 0.0
C1748 C 0.03018 0.60014 0.06299 0.0
C1749 C 0.04747 0.60573 0.05182 0.0
C1750 C 0.04571 0.62098 0.03706 0.0
C1751 C 0.027 0.63001 0.03313 0.0
H1752 H 0.84794 0.65291 0.22071 0.0
H1753 H 0.79623 0.68674 0.19935 0.0
H1754 H 0.86748 0.68439 0.22347 0.0
H1755 H 0.81537 0.71833 0.20265 0.0
H1756 H 0.8608 0.76983 0.19514 0.0
H1757 H 0.84388 0.73746 0.18864 0.0
H1758 H 0.86717 0.714 0.24523 0.0
H1759 H 0.88428 0.74595 0.25152 0.0
C1760 C 0.84086 0.66713 0.21653 0.0
C1761 C 0.82069 0.66756 0.20985 0.0
C1762 C 0.85192 0.68513 0.21822 0.0
C1763 C 0.84296 0.70388 0.2133 0.0
C1764 C 0.82281 0.70415 0.2063 0.0
C1765 C 0.81179 0.68615 0.20461 0.0
C1766 C 0.86242 0.75769 0.20609 0.0
C1767 C 0.87385 0.7605 0.22385 0.0
C1768 C 0.85265 0.73919 0.20242 0.0
C1769 C 0.85418 0.72316 0.21643 0.0
C1770 C 0.86592 0.72591 0.23398 0.0
C1771 C 0.87563 0.74433 0.23764 0.0
H1772 H 0.98956 0.8593 0.06002 0.0
H1773 H 0.01148 0.91113 0.02635 0.0
H1774 H 0.95777 0.87738 0.0668 0.0
H1775 H 0.9798 0.92878 0.03281 0.0
H1776 H 0.91293 0.94347 0.02658 0.0
H1777 H 0.94274 0.9221 0.0213 0.0
H1778 H 0.94625 0.91086 0.08569 0.0
H1779 H 0.91675 0.93281 0.09105 0.0
C1780 C 0.98767 0.87453 0.05415 0.0
C1781 C 1.00299 0.88369 0.04246 0.0
C1782 C 0.9695 0.88482 0.05803 0.0
C1783 C 0.96628 0.90429 0.05003 0.0
C1784 C 0.98178 0.91361 0.03882 0.0
C1785 C 0.99997 0.9035 0.0352 0.0
C1786 C 0.92002 0.93636 0.03958 0.0
C1787 C 0.91277 0.94 0.05923 0.0
C1788 C 0.93702 0.92414 0.03656 0.0
C1789 C 0.94688 0.91509 0.05314 0.0
C1790 C 0.93885 0.91765 0.07268 0.0
C1791 C 0.92195 0.93011 0.07572 0.0
H1792 H 0.31669 0.17037 0.27211 0.0
H1793 H 0.26962 0.13405 0.24438 0.0
H1794 H 0.32279 0.18705 0.23958 0.0
H1795 H 0.27596 0.15043 0.212 0.0
H1796 H 0.27488 0.20272 0.16589 0.0
H1797 H 0.27038 0.18404 0.19757 0.0
H1798 H 0.33546 0.18084 0.20491 0.0
H1799 H 0.33982 0.20004 0.17345 0.0
C1800 C 0.30779 0.16581 0.25906 0.0
C1801 C 0.2926 0.15098 0.26088 0.0
C1802 C 0.31135 0.17528 0.24042 0.0
C1803 C 0.29976 0.17013 0.22326 0.0
C1804 C 0.28491 0.15496 0.225 0.0
C1805 C 0.28138 0.1455 0.24357 0.0
C1806 C 0.28817 0.19795 0.17431 0.0
C1807 C 0.30766 0.20278 0.16735 0.0
C1808 C 0.28564 0.18715 0.19234 0.0
C1809 C 0.30258 0.18098 0.20375 0.0
C1810 C 0.32212 0.18557 0.19656 0.0
C1811 C 0.32463 0.19634 0.17848 0.0
H1812 H 0.37882 0.49693 0.02647 0.0
H1813 H 0.41454 0.44904 0.99951 0.0
H1814 H 0.39479 0.49057 0.05908 0.0
H1815 H 0.43078 0.44288 0.03227 0.0
H1816 H 0.44428 0.42686 0.09841 0.0
H1817 H 0.42443 0.43086 0.06728 0.0
H1818 H 0.42869 0.496 0.0732 0.0
H1819 H 0.44806 0.49188 0.10451 0.0
C1820 C 0.39002 0.48496 0.02751 0.0
C1821 C 0.3955 0.47356 0.01033 0.0
C1822 C 0.39924 0.4814 0.04621 0.0
C1823 C 0.41416 0.46634 0.04822 0.0
C1824 C 0.41921 0.45449 0.03122 0.0
C1825 C 0.40998 0.45808 0.01244 0.0
C1826 C 0.44062 0.442 0.09318 0.0
C1827 C 0.44763 0.45909 0.10375 0.0
C1828 C 0.42948 0.44429 0.07528 0.0
C1829 C 0.42506 0.46373 0.06774 0.0
C1830 C 0.43167 0.48081 0.0787 0.0
C1831 C 0.44285 0.4785 0.09653 0.0
H1832 H 0.70899 0.40777 0.23923 0.0
H1833 H 0.74933 0.35964 0.25805 0.0
H1834 H 0.70202 0.38941 0.20768 0.0
H1835 H 0.74247 0.34158 0.22668 0.0
H1836 H 0.74398 0.32609 0.15982 0.0
H1837 H 0.75005 0.34736 0.18957 0.0
H1838 H 0.6855 0.35596 0.19656 0.0
H1839 H 0.67944 0.33431 0.16701 0.0
C1840 C 0.71631 0.39329 0.2367 0.0
C1841 C 0.7298 0.38523 0.25112 0.0
C1842 C 0.7123 0.3828 0.21866 0.0
C1843 C 0.72191 0.36422 0.21466 0.0
C1844 C 0.73514 0.35606 0.22921 0.0
C1845 C 0.73896 0.36638 0.24726 0.0
C1846 C 0.73112 0.33261 0.16769 0.0
C1847 C 0.71126 0.32842 0.1613 0.0
C1848 C 0.73458 0.34475 0.18468 0.0
C1849 C 0.71822 0.35311 0.19548 0.0
C1850 C 0.69837 0.34978 0.18845 0.0
C1851 C 0.69492 0.33746 0.17153 0.0
H1852 H 0.60994 0.07167 0.99987 0.0
H1853 H 0.64425 0.0233 0.02781 0.0
H1854 H 0.59385 0.07892 0.03239 0.0
H1855 H 0.62859 0.03087 0.06031 0.0
H1856 H 0.57479 0.0311 0.10497 0.0
H1857 H 0.59528 0.02633 0.07459 0.0
H1858 H 0.59894 0.09134 0.06686 0.0
H1859 H 0.57775 0.09596 0.09699 0.0
C1860 C 0.61427 0.06278 0.01299 0.0
C1861 C 0.62821 0.04678 0.01121 0.0
C1862 C 0.60514 0.06702 0.03166 0.0
C1863 C 0.60984 0.05538 0.04892 0.0
C1864 C 0.62437 0.03989 0.04724 0.0
C1865 C 0.63341 0.03561 0.02861 0.0
C1866 C 0.58012 0.04433 0.09681 0.0
C1867 C 0.57463 0.06386 0.10314 0.0
C1868 C 0.59199 0.04164 0.07952 0.0
C1869 C 0.59869 0.05847 0.06824 0.0
C1870 C 0.5938 0.07807 0.07507 0.0
C1871 C 0.58188 0.08074 0.09241 0.0
H1872 H 0.34378 0.82682 0.34844 0.0
H1873 H 0.27878 0.82171 0.35401 0.0
H1874 H 0.33962 0.84668 0.31738 0.0
H1875 H 0.27451 0.84092 0.32266 0.0
H1876 H 0.27249 0.89036 0.27582 0.0
H1877 H 0.27886 0.8745 0.30845 0.0
H1878 H 0.32851 0.84064 0.28239 0.0
H1879 H 0.3224 0.85689 0.24965 0.0
C1880 C 0.32861 0.83018 0.34311 0.0
C1881 C 0.31157 0.82279 0.35352 0.0
C1882 C 0.32622 0.84131 0.32522 0.0
C1883 C 0.30675 0.8453 0.3175 0.0
C1884 C 0.28972 0.8383 0.3283 0.0
C1885 C 0.29213 0.82718 0.34614 0.0
C1886 C 0.28488 0.87965 0.27702 0.0
C1887 C 0.29687 0.87479 0.26007 0.0
C1888 C 0.28845 0.87048 0.29574 0.0
C1889 C 0.30407 0.85618 0.29798 0.0
C1890 C 0.31647 0.85174 0.28119 0.0
C1891 C 0.31291 0.86096 0.26241 0.0
H1892 H 0.09749 0.46675 0.90243 0.0
H1893 H 0.04603 0.44618 0.93712 0.0
H1894 H 0.11736 0.46994 0.93371 0.0
H1895 H 0.06556 0.44976 0.96844 0.0
H1896 H 0.11115 0.444 0.01988 0.0
H1897 H 0.09459 0.43626 0.9876 0.0
H1898 H 0.11647 0.49285 0.96287 0.0
H1899 H 0.13317 0.50044 0.99481 0.0
C1900 C 0.09057 0.46274 0.91678 0.0
C1901 C 0.07035 0.45626 0.91755 0.0
C1902 C 0.10183 0.46468 0.93465 0.0
C1903 C 0.093 0.46015 0.95355 0.0
C1904 C 0.07288 0.45313 0.95413 0.0
C1905 C 0.06165 0.45124 0.93628 0.0
C1906 C 0.11255 0.45469 1.00749 0.0
C1907 C 0.12341 0.47285 1.00995 0.0
C1908 C 0.10301 0.4503 0.98904 0.0
C1909 C 0.10424 0.46394 0.97269 0.0
C1910 C 0.11547 0.48188 0.97506 0.0
C1911 C 0.12493 0.48629 0.99346 0.0
H1912 H 0.70086 0.66685 0.24941 0.0
H1913 H 0.74814 0.63055 0.27674 0.0
H1914 H 0.69461 0.68308 0.28212 0.0
H1915 H 0.74168 0.64653 0.30933 0.0
H1916 H 0.74282 0.69956 0.35513 0.0
H1917 H 0.7472 0.68027 0.32379 0.0
H1918 H 0.6821 0.67668 0.31689 0.0
H1919 H 0.67785 0.69643 0.34801 0.0
C1920 C 0.70975 0.66217 0.26241 0.0
C1921 C 0.72508 0.6475 0.26042 0.0
C1922 C 0.7061 0.67139 0.28117 0.0
C1923 C 0.71774 0.66616 0.29828 0.0
C1924 C 0.73267 0.6511 0.29637 0.0
C1925 C 0.73628 0.64187 0.27769 0.0
C1926 C 0.7295 0.69451 0.34692 0.0
C1927 C 0.71003 0.69945 0.35387 0.0
C1928 C 0.73196 0.68337 0.32908 0.0
C1929 C 0.71498 0.67699 0.31783 0.0
C1930 C 0.69547 0.68156 0.3251 0.0
C1931 C 0.69302 0.69265 0.34301 0.0
H1932 H 0.86332 0.0599 0.98956 0.0
H1933 H 0.91091 0.01828 1.00695 0.0
H1934 H 0.88158 0.06742 0.95811 0.0
H1935 H 0.92897 0.02581 0.97579 0.0
H1936 H 0.94573 0.02665 0.9097 0.0
H1937 H 0.92405 0.01966 0.93891 0.0
H1938 H 0.91443 0.08393 0.94714 0.0
H1939 H 0.93631 0.09087 0.91795 0.0
C1940 C 0.87766 0.05241 0.98673 0.0
C1941 C 0.88561 0.03843 1.00073 0.0
C1942 C 0.8881 0.05675 0.96876 0.0
C1943 C 0.90657 0.04703 0.96443 0.0
C1944 C 0.91458 0.03324 0.97854 0.0
C1945 C 0.90426 0.02903 0.99648 0.0
C1946 C 0.93888 0.03924 0.91773 0.0
C1947 C 0.94283 0.05928 0.91182 0.0
C1948 C 0.92651 0.03527 0.93441 0.0
C1949 C 0.91778 0.05128 0.94544 0.0
C1950 C 0.92089 0.07131 0.93886 0.0
C1951 C 0.93337 0.07528 0.92218 0.0
H1952 H 0.2425 0.27735 0.12693 0.0
H1953 H 0.26978 0.32351 0.16468 0.0
H1954 H 0.20976 0.28377 0.14256 0.0
H1955 H 0.23691 0.32965 0.18066 0.0
H1956 H 0.17114 0.34559 0.19526 0.0
H1957 H 0.20221 0.34225 0.17521 0.0
H1958 H 0.19515 0.27708 0.1756 0.0
H1959 H 0.16387 0.28058 0.19506 0.0
C1960 C 0.24151 0.28895 0.13852 0.0
C1961 C 0.25881 0.29982 0.14468 0.0
C1962 C 0.22273 0.29255 0.14754 0.0
C1963 C 0.22077 0.30706 0.16299 0.0
C1964 C 0.2379 0.31847 0.16867 0.0
C1965 C 0.25675 0.31489 0.15959 0.0
C1966 C 0.1761 0.33061 0.19068 0.0
C1967 C 0.16523 0.31331 0.19665 0.0
C1968 C 0.19397 0.32868 0.17943 0.0
C1969 C 0.20119 0.3094 0.17388 0.0
C1970 C 0.1899 0.29216 0.17942 0.0
C1971 C 0.17209 0.29411 0.19068 0.0
H1972 H 0.17219 0.67652 0.32786 0.0
H1973 H 0.16488 0.74144 0.32458 0.0
H1974 H 0.20315 0.68096 0.34788 0.0
H1975 H 0.19611 0.74602 0.34389 0.0
H1976 H 0.24433 0.74871 0.39162 0.0
H1977 H 0.21137 0.7416 0.37672 0.0
H1978 H 0.23765 0.69286 0.34172 0.0
H1979 H 0.27069 0.69965 0.35709 0.0
C1980 C 0.17709 0.69172 0.3317 0.0
C1981 C 0.16628 0.70866 0.32469 0.0
C1982 C 0.19492 0.69428 0.34292 0.0
C1983 C 0.20218 0.71384 0.34737 0.0
C1984 C 0.19086 0.73074 0.34092 0.0
C1985 C 0.17307 0.72816 0.32974 0.0
C1986 C 0.2431 0.73636 0.38086 0.0
C1987 C 0.26019 0.72484 0.37541 0.0
C1988 C 0.22419 0.73235 0.37225 0.0
C1989 C 0.2219 0.71679 0.3579 0.0
C1990 C 0.23886 0.70484 0.35289 0.0
C1991 C 0.25782 0.7088 0.36159 0.0
H1992 H 1.00101 0.52713 0.8866 0.0
H1993 H 0.94494 0.5013 0.90869 0.0
H1994 H 0.99306 0.55895 0.90338 0.0
H1995 H 0.93684 0.53342 0.9253 0.0
H1996 H 0.94566 0.58414 0.97359 0.0
H1997 H 0.95002 0.55282 0.95425 0.0
H1998 H 0.96968 0.58777 0.9024 0.0
H1999 H 0.9657 0.61906 0.92209 0.0
C2000 C 0.98688 0.52829 0.89489 0.0
C2001 C 0.97364 0.51163 0.89638 0.0
C2002 C 0.98226 0.54661 0.90438 0.0
C2003 C 0.96431 0.54872 0.91563 0.0
C2004 C 0.95089 0.53218 0.91688 0.0
C2005 C 0.95549 0.51382 0.90732 0.0
C2006 C 0.95077 0.58502 0.958 0.0
C2007 C 0.95539 0.60383 0.94923 0.0
C2008 C 0.95312 0.56717 0.94689 0.0
C2009 C 0.9602 0.56782 0.9268 0.0
C2010 C 0.96438 0.58678 0.91791 0.0
C2011 C 0.96198 0.60465 0.92905 0.0
H2012 H 0.84763 0.84379 0.3247 0.0
H2013 H 0.8531 0.77876 0.32021 0.0
H2014 H 0.81652 0.83985 0.34457 0.0
H2015 H 0.82175 0.77471 0.33949 0.0
H2016 H 0.77567 0.77336 0.38965 0.0
H2017 H 0.80811 0.77966 0.37338 0.0
H2018 H 0.78137 0.82844 0.33877 0.0
H2019 H 0.74879 0.82239 0.35539 0.0
C2020 C 0.84223 0.82866 0.32816 0.0
C2021 C 0.85264 0.81155 0.321 0.0
C2022 C 0.82434 0.82641 0.33931 0.0
C2023 C 0.81665 0.80698 0.34355 0.0
C2024 C 0.82739 0.78988 0.33668 0.0
C2025 C 0.84522 0.79216 0.32552 0.0
C2026 C 0.77668 0.78555 0.37868 0.0
C2027 C 0.75959 0.7973 0.37371 0.0
C2028 C 0.79528 0.78908 0.36929 0.0
C2029 C 0.79726 0.80441 0.35465 0.0
C2030 C 0.78035 0.81661 0.35011 0.0
C2031 C 0.76167 0.81308 0.35956 0.0
H2032 H 0.56035 0.48868 0.36011 0.0
H2033 H 0.52616 0.51192 0.41099 0.0
H2034 H 0.56749 0.45765 0.37931 0.0
H2035 H 0.53305 0.48101 0.4298 0.0
H2036 H 0.52801 0.41434 0.44678 0.0
H2037 H 0.52229 0.4439 0.42518 0.0
H2038 H 0.58646 0.44719 0.41255 0.0
H2039 H 0.59226 0.41791 0.43469 0.0
C2040 C 0.55444 0.48724 0.37537 0.0
C2041 C 0.54253 0.50272 0.38394 0.0
C2042 C 0.55854 0.46951 0.38632 0.0
C2043 C 0.55057 0.46688 0.4059 0.0
C2044 C 0.53907 0.48252 0.41459 0.0
C2045 C 0.53521 0.50027 0.40381 0.0
C2046 C 0.54088 0.4214 0.43939 0.0
C2047 C 0.56059 0.41405 0.44259 0.0
C2048 C 0.53761 0.43825 0.42703 0.0
C2049 C 0.55398 0.44791 0.4174 0.0
C2050 C 0.57359 0.43995 0.41975 0.0
C2051 C 0.57689 0.42319 0.43234 0.0
H2052 H 0.24794 0.69787 0.66683 0.0
H2053 H 0.27549 0.7458 0.6316 0.0
H2054 H 0.28032 0.69206 0.68397 0.0
H2055 H 0.30772 0.73976 0.6484 0.0
H2056 H 0.35304 0.74134 0.70118 0.0
H2057 H 0.32149 0.74534 0.68215 0.0
H2058 H 0.31532 0.68017 0.67868 0.0
H2059 H 0.34662 0.6763 0.69828 0.0
C2060 C 0.26092 0.70698 0.66257 0.0
C2061 C 0.25908 0.72238 0.64796 0.0
C2062 C 0.27949 0.70361 0.67233 0.0
C2063 C 0.29654 0.71558 0.66765 0.0
C2064 C 0.29479 0.73053 0.65261 0.0
C2065 C 0.27631 0.7339 0.64289 0.0
C2066 C 0.3449 0.72792 0.69631 0.0
C2067 C 0.35216 0.70855 0.70115 0.0
C2068 C 0.32694 0.73017 0.68529 0.0
C2069 C 0.3159 0.71305 0.67889 0.0
C2070 C 0.32337 0.69364 0.68356 0.0
C2071 C 0.34137 0.69142 0.69456 0.0
H2072 H 0.99882 0.50635 0.61103 0.0
H2073 H 0.95715 0.48967 0.65881 0.0
H2074 H 0.99165 0.47471 0.59366 0.0
H2075 H 0.94984 0.45779 0.6411 0.0
H2076 H 0.92758 0.41733 0.5849 0.0
H2077 H 0.93374 0.44656 0.60705 0.0
H2078 H 0.99832 0.43754 0.60083 0.0
H2079 H 0.99212 0.40825 0.57899 0.0
C2080 C 0.98811 0.49595 0.61785 0.0
C2081 C 0.97866 0.50051 0.63639 0.0
C2082 C 0.9841 0.47775 0.60793 0.0
C2083 C 0.9704 0.46371 0.61618 0.0
C2084 C 0.96051 0.46838 0.63446 0.0
C2085 C 0.96471 0.48659 0.64457 0.0
C2086 C 0.94305 0.42136 0.5887 0.0
C2087 C 0.95941 0.41081 0.58009 0.0
C2088 C 0.94656 0.43805 0.60132 0.0
C2089 C 0.96649 0.44444 0.60537 0.0
C2090 C 0.9828 0.43313 0.59764 0.0
C2091 C 0.97929 0.41642 0.58518 0.0
H2092 H 0.02016 0.02728 0.63887 0.0
H2093 H 0.06817 1.0007 0.60304 0.0
H2094 H 0.02668 0.06009 0.6234 0.0
H2095 H 0.07436 0.03355 0.58714 0.0
H2096 H 0.09111 0.09901 0.57377 0.0
H2097 H 0.0867 0.06775 0.59322 0.0
H2098 H 0.02164 0.07566 0.59077 0.0
H2099 H 0.02623 0.10727 0.57205 0.0
C2100 C 0.03214 0.02843 0.62769 0.0
C2101 C 0.04359 0.01134 0.6221 0.0
C2102 C 0.0358 0.04724 0.61875 0.0
C2103 C 0.05094 0.04942 0.60394 0.0
C2104 C 0.06272 0.03243 0.59867 0.0
C2105 C 0.05911 0.01358 0.60769 0.0
C2106 C 0.07592 0.09421 0.57778 0.0
C2107 C 0.05898 0.10544 0.57147 0.0
C2108 C 0.07337 0.07621 0.58867 0.0
C2109 C 0.05383 0.06914 0.59345 0.0
C2110 C 0.03692 0.08076 0.58754 0.0
C2111 C 0.03949 0.09876 0.57671 0.0
H2112 H 0.69579 0.67234 0.84239 0.0
H2113 H 0.69743 0.66566 0.77735 0.0
H2114 H 0.67616 0.70362 0.83875 0.0
H2115 H 0.6784 0.6972 0.77356 0.0
H2116 H 0.62942 0.74456 0.7733 0.0
H2117 H 0.64521 0.71185 0.77944 0.0
H2118 H 0.682 0.73838 0.82675 0.0
H2119 H 0.66585 0.77121 0.82088 0.0
C2120 C 0.69173 0.6775 0.82734 0.0
C2121 C 0.69805 0.66669 0.81013 0.0
C2122 C 0.68072 0.69549 0.82524 0.0
C2123 C 0.67579 0.70294 0.80588 0.0
C2124 C 0.68175 0.69177 0.7887 0.0
C2125 C 0.69275 0.67382 0.79082 0.0
C2126 C 0.64077 0.74344 0.78514 0.0
C2127 C 0.64648 0.76055 0.79652 0.0
C2128 C 0.64989 0.72468 0.78857 0.0
C2129 C 0.66499 0.72254 0.80344 0.0
C2130 C 0.67028 0.7395 0.81528 0.0
C2131 C 0.66111 0.75833 0.81186 0.0
H2132 H 0.91448 0.07322 0.49256 0.0
H2133 H 0.92127 0.07577 0.42756 0.0
H2134 H 0.94563 0.09284 0.49665 0.0
H2135 H 0.95208 0.09605 0.4315 0.0
H2136 H 0.01951 0.10669 0.44927 0.0
H2137 H 0.98676 0.09047 0.44326 0.0
H2138 H 0.96028 0.12606 0.49146 0.0
H2139 H 0.99298 0.14191 0.49776 0.0
C2140 C 0.92255 0.07824 0.47916 0.0
C2141 C 0.91558 0.07298 0.45978 0.0
C2142 C 0.94028 0.0896 0.48146 0.0
C2143 C 0.95138 0.09597 0.46438 0.0
C2144 C 0.94401 0.09118 0.44495 0.0
C2145 C 0.92626 0.07981 0.44268 0.0
C2146 C 1.00666 0.11116 0.45846 0.0
C2147 C 1.00891 0.12547 0.47408 0.0
C2148 C 0.98786 0.10195 0.45495 0.0
C2149 C 0.97093 0.10688 0.46698 0.0
C2150 C 0.97309 0.12166 0.48216 0.0
C2151 C 0.99184 0.13082 0.48569 0.0
H2152 H 0.32697 0.84675 0.84551 0.0
H2153 H 0.32632 0.85458 0.78058 0.0
H2154 H 0.34665 0.8155 0.84161 0.0
H2155 H 0.34537 0.82314 0.77652 0.0
H2156 H 0.39318 0.77499 0.77549 0.0
H2157 H 0.37815 0.8079 0.78241 0.0
H2158 H 0.34064 0.78104 0.82893 0.0
H2159 H 0.35608 0.748 0.8223 0.0
C2160 C 0.33129 0.84187 0.83043 0.0
C2161 C 0.32516 0.85294 0.81331 0.0
C2162 C 0.34233 0.8239 0.82818 0.0
C2163 C 0.3475 0.81678 0.80876 0.0
C2164 C 0.34185 0.82829 0.7917 0.0
C2165 C 0.33082 0.8462 0.79398 0.0
C2166 C 0.38184 0.77608 0.78733 0.0
C2167 C 0.3757 0.75882 0.79824 0.0
C2168 C 0.37317 0.79496 0.79122 0.0
C2169 C 0.35806 0.79706 0.80607 0.0
C2170 C 0.35238 0.77995 0.81749 0.0
C2171 C 0.36113 0.761 0.81363 0.0
H2172 H 0.0105 0.41179 0.50138 0.0
H2173 H 0.0297 0.36509 0.45959 0.0
H2174 H 0.0411 0.43098 0.49411 0.0
H2175 H 0.06053 0.38448 0.45233 0.0
H2176 H 0.10011 0.4394 0.42965 0.0
H2177 H 0.07069 0.41769 0.43614 0.0
H2178 H 0.07816 0.42711 0.50054 0.0
H2179 H 0.10767 0.44855 0.49401 0.0
C2180 C 0.02124 0.40559 0.49063 0.0
C2181 C 0.01768 0.38683 0.48114 0.0
C2182 C 0.03885 0.41656 0.48657 0.0
C2183 C 0.05328 0.40913 0.47281 0.0
C2184 C 0.04961 0.39058 0.46297 0.0
C2185 C 0.032 0.37948 0.46716 0.0
C2186 C 0.09562 0.43652 0.44518 0.0
C2187 C 0.10598 0.44574 0.46135 0.0
C2188 C 0.0788 0.42413 0.44889 0.0
C2189 C 0.07203 0.42088 0.46883 0.0
C2190 C 0.08283 0.42964 0.485 0.0
C2191 C 0.09968 0.4419 0.48128 0.0
H2192 H 0.69523 0.35656 0.74249 0.0
H2193 H 0.69533 0.34826 0.67762 0.0
H2194 H 0.67678 0.3247 0.74659 0.0
H2195 H 0.67633 0.31662 0.68154 0.0
H2196 H 0.62958 0.27548 0.74679 0.0
H2197 H 0.64423 0.30864 0.7402 0.0
H2198 H 0.68332 0.28239 0.69468 0.0
H2199 H 0.66834 0.24908 0.70101 0.0
C2200 C 0.69099 0.34801 0.72912 0.0
C2201 C 0.69666 0.35475 0.70978 0.0
C2202 C 0.68034 0.32985 0.73141 0.0
C2203 C 0.67514 0.31809 0.71437 0.0
C2204 C 0.68032 0.32522 0.69496 0.0
C2205 C 0.69094 0.34342 0.69269 0.0
C2206 C 0.6412 0.27674 0.73525 0.0
C2207 C 0.6479 0.25957 0.72451 0.0
C2208 C 0.64965 0.29577 0.73156 0.0
C2209 C 0.66504 0.29813 0.71704 0.0
C2210 C 0.67135 0.2811 0.70584 0.0
C2211 C 0.66285 0.26199 0.70954 0.0
H2212 H 0.60327 0.07158 0.52898 0.0
H2213 H 0.59851 0.07757 0.59394 0.0
H2214 H 0.57233 0.0914 0.52478 0.0
H2215 H 0.56781 0.09806 0.58984 0.0
H2216 H 0.5259 0.14078 0.5221 0.0
H2217 H 0.55857 0.12514 0.52878 0.0
H2218 H 0.5326 0.09218 0.5791 0.0
H2219 H 0.49982 0.10825 0.57269 0.0
C2220 C 0.59567 0.0774 0.54233 0.0
C2221 C 0.60311 0.07303 0.56176 0.0
C2222 C 0.57807 0.08888 0.53997 0.0
C2223 C 0.56758 0.09627 0.557 0.0
C2224 C 0.57543 0.09238 0.57645 0.0
C2225 C 0.59309 0.08089 0.5788 0.0
C2226 C 0.52714 0.13031 0.53471 0.0
C2227 C 0.5102 0.12561 0.54677 0.0
C2228 C 0.54588 0.12129 0.53847 0.0
C2229 C 0.54814 0.10728 0.55434 0.0
C2230 C 0.53138 0.10306 0.56686 0.0
C2231 C 0.51258 0.11217 0.56312 0.0
H2232 H 0.35529 0.27078 0.70016 0.0
H2233 H 0.39076 0.24307 0.74784 0.0
H2234 H 0.33894 0.2382 0.69352 0.0
H2235 H 0.37482 0.21058 0.74089 0.0
H2236 H 0.32216 0.1649 0.74165 0.0
H2237 H 0.34164 0.19605 0.74611 0.0
H2238 H 0.34426 0.20366 0.68105 0.0
H2239 H 0.32412 0.17277 0.67675 0.0
C2240 C 0.35978 0.25771 0.70903 0.0
C2241 C 0.37418 0.25957 0.72464 0.0
C2242 C 0.3505 0.23902 0.70516 0.0
C2243 C 0.35548 0.22183 0.71679 0.0
C2244 C 0.37037 0.2236 0.73191 0.0
C2245 C 0.37958 0.24223 0.73582 0.0
C2246 C 0.327 0.17324 0.72835 0.0
C2247 C 0.32162 0.16658 0.7089 0.0
C2248 C 0.33828 0.19097 0.73085 0.0
C2249 C 0.34448 0.20237 0.71391 0.0
C2250 C 0.33952 0.19535 0.69439 0.0
C2251 C 0.32821 0.17758 0.69192 0.0
H2252 H 0.49142 0.36201 0.56125 0.0
H2253 H 0.50967 0.41044 0.521 0.0
H2254 H 0.45986 0.38021 0.5686 0.0
H2255 H 0.4783 0.42834 0.52824 0.0
H2256 H 0.41144 0.44341 0.52703 0.0
H2257 H 0.44116 0.42219 0.52081 0.0
H2258 H 0.44864 0.41364 0.58531 0.0
H2259 H 0.41906 0.43525 0.59151 0.0
C2260 C 0.48876 0.37653 0.55404 0.0
C2261 C 0.50302 0.38471 0.54045 0.0
C2262 C 0.47073 0.38692 0.55827 0.0
C2263 C 0.46656 0.40554 0.54878 0.0
C2264 C 0.48096 0.41384 0.53548 0.0
C2265 C 0.49901 0.40361 0.53144 0.0
C2266 C 0.4194 0.43691 0.53985 0.0
C2267 C 0.41318 0.44115 0.55973 0.0
C2268 C 0.43638 0.4248 0.53631 0.0
C2269 C 0.44733 0.41651 0.5526 0.0
C2270 C 0.44042 0.4198 0.57248 0.0
C2271 C 0.4235 0.4321 0.57602 0.0
H2272 H 0.82043 0.66634 0.77108 0.0
H2273 H 0.77185 0.6318 0.74371 0.0
H2274 H 0.82658 0.68315 0.73863 0.0
H2275 H 0.77826 0.64825 0.71138 0.0
H2276 H 0.84263 0.69735 0.67265 0.0
H2277 H 0.83842 0.67753 0.70374 0.0
H2278 H 0.77329 0.68198 0.69747 0.0
H2279 H 0.77763 0.7012 0.66611 0.0
C2280 C 0.81124 0.66216 0.75812 0.0
C2281 C 0.79556 0.64785 0.76003 0.0
C2282 C 0.81482 0.67172 0.73951 0.0
C2283 C 0.8028 0.66713 0.72248 0.0
C2284 C 0.78754 0.65238 0.72429 0.0
C2285 C 0.78396 0.64288 0.74283 0.0
C2286 C 0.82745 0.69376 0.67782 0.0
C2287 C 0.81043 0.70073 0.66709 0.0
C2288 C 0.82503 0.68264 0.6957 0.0
C2289 C 0.80553 0.67824 0.7031 0.0
C2290 C 0.78852 0.68492 0.69206 0.0
C2291 C 0.79096 0.69603 0.67422 0.0
H2292 H 0.94217 0.92649 0.60033 0.0
H2293 H 0.94562 0.99142 0.6075 0.0
H2294 H 0.92159 0.93088 0.56976 0.0
H2295 H 0.92579 0.99596 0.57662 0.0
H2296 H 0.87821 0.9988 0.52837 0.0
H2297 H 0.89296 0.99166 0.5614 0.0
H2298 H 0.92769 0.9426 0.53533 0.0
H2299 H 0.91246 0.94939 0.50227 0.0
C2300 C 0.93823 0.94168 0.5955 0.0
C2301 C 0.94549 0.95864 0.60611 0.0
C2302 C 0.92669 0.94422 0.57789 0.0
C2303 C 0.92219 0.96377 0.57065 0.0
C2304 C 0.9288 0.98069 0.58185 0.0
C2305 C 0.94029 0.97813 0.59943 0.0
C2306 C 0.88888 0.98637 0.52968 0.0
C2307 C 0.89431 0.97475 0.51265 0.0
C2308 C 0.89738 0.98234 0.54862 0.0
C2309 C 0.91162 0.96667 0.55098 0.0
C2310 C 0.91659 0.95464 0.53408 0.0
C2311 C 0.90798 0.95861 0.5151 0.0
H2312 H 0.2434 0.81774 0.66727 0.0
H2313 H 0.17858 0.82368 0.67393 0.0
H2314 H 0.24848 0.83691 0.69851 0.0
H2315 H 0.18355 0.84355 0.70489 0.0
H2316 H 0.20194 0.85456 0.77206 0.0
H2317 H 0.19516 0.83783 0.73971 0.0
H2318 H 0.24487 0.87063 0.71238 0.0
H2319 H 0.25194 0.88693 0.74465 0.0
C2320 C 0.23027 0.82335 0.67538 0.0
C2321 C 0.21064 0.81923 0.66835 0.0
C2322 C 0.23313 0.83446 0.69315 0.0
C2323 C 0.2164 0.84174 0.70419 0.0
C2324 C 0.19673 0.83795 0.69685 0.0
C2325 C 0.19388 0.82681 0.67905 0.0
C2326 C 0.21132 0.85827 0.75911 0.0
C2327 C 0.22757 0.87193 0.76097 0.0
C2328 C 0.20737 0.84878 0.74055 0.0
C2329 C 0.21958 0.85281 0.72352 0.0
C2330 C 0.23543 0.86692 0.72529 0.0
C2331 C 0.2394 0.87634 0.74379 0.0
H2332 H 0.10735 0.57115 0.4992 0.0
H2333 H 0.14121 0.52161 0.5256 0.0
H2334 H 0.09165 0.57778 0.5321 0.0
H2335 H 0.12596 0.52853 0.55839 0.0
H2336 H 0.0731 0.52853 0.60399 0.0
H2337 H 0.09268 0.52415 0.57293 0.0
H2338 H 0.09771 0.58925 0.56693 0.0
H2339 H 0.07745 0.5935 0.59773 0.0
C2340 C 0.11163 0.56186 0.51205 0.0
C2341 C 0.12536 0.54574 0.50973 0.0
C2342 C 0.10274 0.56572 0.53093 0.0
C2343 C 0.10746 0.55357 0.54783 0.0
C2344 C 0.12172 0.53793 0.5456 0.0
C2345 C 0.13053 0.53403 0.52679 0.0
C2346 C 0.07854 0.54185 0.59606 0.0
C2347 C 0.07375 0.56132 0.60311 0.0
C2348 C 0.08987 0.53939 0.57838 0.0
C2349 C 0.0967 0.55637 0.56741 0.0
C2350 C 0.09247 0.57588 0.5749 0.0
C2351 C 0.08111 0.57832 0.59264 0.0
H2352 H 0.76994 0.38966 0.77674 0.0
H2353 H 0.81958 0.3562 0.75005 0.0
H2354 H 0.77652 0.37358 0.80925 0.0
H2355 H 0.82588 0.33974 0.78261 0.0
H2356 H 0.77699 0.3207 0.85476 0.0
H2357 H 0.77233 0.33997 0.82349 0.0
H2358 H 0.83738 0.34566 0.8174 0.0
H2359 H 0.84191 0.32574 0.84835 0.0
C2360 C 0.78232 0.37891 0.77781 0.0
C2361 C 0.79418 0.37412 0.76076 0.0
C2362 C 0.786 0.36962 0.79644 0.0
C2363 C 0.80161 0.35528 0.79848 0.0
C2364 C 0.81386 0.35088 0.78158 0.0
C2365 C 0.81018 0.36022 0.7629 0.0
C2366 C 0.79023 0.32615 0.84671 0.0
C2367 C 0.80977 0.32174 0.85383 0.0
C2368 C 0.78761 0.33731 0.82892 0.0
C2369 C 0.8045 0.34433 0.81794 0.0
C2370 C 0.82407 0.34028 0.82539 0.0
C2371 C 0.82668 0.3291 0.8432 0.0
H2372 H 0.65801 0.96012 0.48711 0.0
H2373 H 0.60834 0.99661 0.50945 0.0
H2374 H 0.6389 0.95355 0.4559 0.0
H2375 H 0.5896 0.99025 0.47836 0.0
H2376 H 0.57321 0.99482 0.41142 0.0
H2377 H 0.59465 1.00023 0.44119 0.0
H2378 H 0.60529 0.93577 0.44532 0.0
H2379 H 0.58333 0.93031 0.41586 0.0
C2380 C 0.64304 0.96667 0.48543 0.0
C2381 C 0.63478 0.97902 0.50072 0.0
C2382 C 0.63213 0.96289 0.46759 0.0
C2383 C 0.61292 0.97162 0.46466 0.0
C2384 C 0.60454 0.98363 0.48009 0.0
C2385 C 0.61527 0.98718 0.49795 0.0
C2386 C 0.58013 0.98183 0.41871 0.0
C2387 C 0.57646 0.96215 0.41152 0.0
C2388 C 0.5924 0.98492 0.43568 0.0
C2389 C 0.60145 0.96838 0.44563 0.0
C2390 C 0.59857 0.94877 0.43786 0.0
C2391 C 0.58608 0.94566 0.42098 0.0
H2392 H 0.17686 0.19377 0.84946 0.0
H2393 H 0.24181 0.19809 0.8561 0.0
H2394 H 0.18124 0.17369 0.8186 0.0
H2395 H 0.24633 0.1787 0.82491 0.0
H2396 H 0.24877 0.13018 0.77726 0.0
H2397 H 0.24211 0.14559 0.81005 0.0
H2398 H 0.19264 0.17976 0.78396 0.0
H2399 H 0.199 0.16391 0.75111 0.0
C2400 C 0.19206 0.19015 0.84443 0.0
C2401 C 0.20902 0.19743 0.85506 0.0
C2402 C 0.19458 0.1789 0.82665 0.0
C2403 C 0.21412 0.1747 0.81922 0.0
C2404 C 0.23107 0.18148 0.8303 0.0
C2405 C 0.22853 0.19269 0.84807 0.0
C2406 C 0.23636 0.14087 0.7785 0.0
C2407 C 0.22448 0.14593 0.76152 0.0
C2408 C 0.23262 0.14977 0.79731 0.0
C2409 C 0.21696 0.16402 0.7996 0.0
C2410 C 0.2047 0.16868 0.78275 0.0
C2411 C 0.20841 0.15969 0.7639 0.0
H2412 H 0.38251 0.51727 0.49376 0.0
H2413 H 0.41254 0.56934 0.51995 0.0
H2414 H 0.39762 0.52491 0.46105 0.0
H2415 H 0.42819 0.57667 0.48721 0.0
H2416 H 0.44212 0.593 0.42185 0.0
H2417 H 0.4219 0.58751 0.45248 0.0
H2418 H 0.43091 0.52284 0.44655 0.0
H2419 H 0.45032 0.5284 0.41561 0.0
C2420 C 0.39235 0.53037 0.49255 0.0
C2421 C 0.39645 0.54262 0.5095 0.0
C2422 C 0.40108 0.5347 0.47379 0.0
C2423 C 0.41424 0.5513 0.47155 0.0
C2424 C 0.41794 0.56389 0.48838 0.0
C2425 C 0.40909 0.55961 0.50717 0.0
C2426 C 0.43935 0.57763 0.42693 0.0
C2427 C 0.44779 0.5611 0.41653 0.0
C2428 C 0.42802 0.57449 0.44457 0.0
C2429 C 0.42492 0.55475 0.45204 0.0
C2430 C 0.43283 0.53822 0.44113 0.0
C2431 C 0.44409 0.54138 0.42352 0.0
H2432 H 0.66716 0.77776 0.70043 0.0
H2433 H 0.67192 0.84281 0.69539 0.0
H2434 H 0.69864 0.77395 0.68127 0.0
H2435 H 0.70311 0.8391 0.67566 0.0
H2436 H 0.77099 0.82283 0.66485 0.0
H2437 H 0.73836 0.82833 0.68156 0.0
H2438 H 0.71247 0.77874 0.64742 0.0
H2439 H 0.74496 0.77302 0.63105 0.0
C2440 C 0.67489 0.79121 0.69501 0.0
C2441 C 0.66721 0.81055 0.69935 0.0
C2442 C 0.69281 0.78907 0.68393 0.0
C2443 C 0.70339 0.80624 0.67695 0.0
C2444 C 0.69543 0.8256 0.681 0.0
C2445 C 0.67747 0.82772 0.69206 0.0
C2446 C 0.75828 0.81322 0.66081 0.0
C2447 C 0.76063 0.79741 0.64673 0.0
C2448 C 0.73957 0.81642 0.67031 0.0
C2449 C 0.72287 0.80386 0.66591 0.0
C2450 C 0.72512 0.78845 0.6514 0.0
C2451 C 0.74375 0.78526 0.64194 0.0
H2452 H 0.74621 0.25061 0.88413 0.0
H2453 H 0.77113 0.19405 0.86227 0.0
H2454 H 0.71465 0.24361 0.86658 0.0
H2455 H 0.73912 0.18682 0.84494 0.0
H2456 H 0.68922 0.19604 0.79612 0.0
H2457 H 0.7204 0.19992 0.81583 0.0
H2458 H 0.68528 0.22168 0.86672 0.0
H2459 H 0.65423 0.2184 0.8466 0.0
C2460 C 0.74489 0.23654 0.87576 0.0
C2461 C 0.76125 0.22291 0.87454 0.0
C2462 C 0.72669 0.23247 0.86579 0.0
C2463 C 0.72434 0.21465 0.85438 0.0
C2464 C 0.74055 0.2008 0.85345 0.0
C2465 C 0.75884 0.20488 0.86345 0.0
C2466 C 0.68828 0.2016 0.81155 0.0
C2467 C 0.66949 0.20695 0.81994 0.0
C2468 C 0.70605 0.20364 0.8229 0.0
C2469 C 0.70532 0.21109 0.84286 0.0
C2470 C 0.68637 0.21609 0.85132 0.0
C2471 C 0.66861 0.21408 0.83992 0.0
H2472 H 0.49991 0.02792 0.38037 0.0
H2473 H 0.4512 1.00028 0.41444 0.0
H2474 H 0.49277 0.06036 0.39633 0.0
H2475 H 0.44438 0.03276 0.43083 0.0
H2476 H 0.42711 0.09797 0.44542 0.0
H2477 H 0.43202 0.06714 0.42537 0.0
H2478 H 0.49699 0.07518 0.42941 0.0
H2479 H 0.49192 0.10631 0.44875 0.0
C2480 C 0.48764 0.02876 0.39126 0.0
C2481 C 0.47619 0.01146 0.39621 0.0
C2482 C 0.48362 0.04737 0.40049 0.0
C2483 C 0.46811 0.04915 0.41497 0.0
C2484 C 0.45631 0.03196 0.41958 0.0
C2485 C 0.46029 0.01331 0.41027 0.0
C2486 C 0.44239 0.09328 0.44165 0.0
C2487 C 0.45916 0.1044 0.44861 0.0
C2488 C 0.44523 0.07552 0.4304 0.0
C2489 C 0.4649 0.06862 0.42587 0.0
C2490 C 0.48163 0.08015 0.43242 0.0
C2491 C 0.47877 0.09788 0.44363 0.0
H2492 H 0.34867 0.34241 0.82619 0.0
H2493 H 0.35417 0.2774 0.82138 0.0
H2494 H 0.31743 0.33837 0.84579 0.0
H2495 H 0.32264 0.27326 0.84032 0.0
H2496 H 0.275 0.27145 0.88901 0.0
H2497 H 0.30789 0.27764 0.8736 0.0
H2498 H 0.28253 0.32741 0.83935 0.0
H2499 H 0.24955 0.32149 0.85516 0.0
C2500 C 0.34328 0.32726 0.82957 0.0
C2501 C 0.35371 0.31019 0.82232 0.0
C2502 C 0.3253 0.32495 0.84055 0.0
C2503 C 0.31749 0.3055 0.84453 0.0
C2504 C 0.32833 0.28844 0.83771 0.0
C2505 C 0.34628 0.29078 0.82674 0.0
C2506 C 0.27642 0.28382 0.8783 0.0
C2507 C 0.2596 0.29591 0.87321 0.0
C2508 C 0.29529 0.2873 0.8694 0.0
C2509 C 0.2978 0.3029 0.85513 0.0
C2510 C 0.28113 0.31537 0.85044 0.0
C2511 C 0.26221 0.31192 0.8594 0.0
H2512 H 0.0167 0.99708 0.88876 0.0
H2513 H 0.07546 0.02094 0.90553 0.0
H2514 H 0.02453 0.96549 0.906 0.0
H2515 H 0.08341 0.989 0.92262 0.0
H2516 H 0.07663 0.9397 0.97271 0.0
H2517 H 0.07189 0.97081 0.95308 0.0
H2518 H 0.04646 0.9357 0.90388 0.0
H2519 H 0.05082 0.90468 0.92388 0.0
C2520 C 0.03138 0.99554 0.89599 0.0
C2521 C 0.04545 0.01158 0.89582 0.0
C2522 C 0.03591 0.97734 0.90575 0.0
C2523 C 0.0546 0.97472 0.91563 0.0
C2524 C 0.0688 0.99065 0.91528 0.0
C2525 C 0.06428 1.0089 0.90544 0.0
C2526 C 0.07015 0.93874 0.95763 0.0
C2527 C 0.06407 0.91997 0.9497 0.0
C2528 C 0.06758 0.95646 0.94634 0.0
C2529 C 0.05879 0.95571 0.92693 0.0
C2530 C 0.05309 0.93678 0.91887 0.0
C2531 C 0.05571 0.91905 0.93019 0.0
H2532 H 0.7756 0.25163 0.13218 0.0
H2533 H 0.74844 0.20041 0.16278 0.0
H2534 H 0.80794 0.24416 0.14822 0.0
H2535 H 0.78082 0.19323 0.17927 0.0
H2536 H 0.84633 0.17661 0.19376 0.0
H2537 H 0.81568 0.18201 0.17348 0.0
H2538 H 0.82178 0.24673 0.18198 0.0
H2539 H 0.8527 0.24125 0.20155 0.0
C2540 C 0.77653 0.23874 0.14231 0.0
C2541 C 0.75939 0.22668 0.1463 0.0
C2542 C 0.79507 0.23453 0.15158 0.0
C2543 C 0.79693 0.2182 0.16514 0.0
C2544 C 0.77994 0.2058 0.16873 0.0
C2545 C 0.76135 0.20998 0.15939 0.0
C2546 C 0.84124 0.19196 0.19093 0.0
C2547 C 0.85173 0.20853 0.1992 0.0
C2548 C 0.82361 0.19506 0.17955 0.0
C2549 C 0.81624 0.21479 0.1762 0.0
C2550 C 0.82714 0.23135 0.18408 0.0
C2551 C 0.84473 0.22824 0.19542 0.0
H2552 H 0.42996 0.9169 0.08418 0.0
H2553 H 0.49464 0.9096 0.07734 0.0
H2554 H 0.43559 0.94673 0.10558 0.0
H2555 H 0.5003 0.93958 0.09838 0.0
H2556 H 0.49921 1.00839 0.10869 0.0
H2557 H 0.49269 0.97653 0.09137 0.0
H2558 H 0.45162 0.95867 0.13911 0.0
H2559 H 0.45824 0.99072 0.15672 0.0
C2560 C 0.44537 0.92145 0.08761 0.0
C2561 C 0.46189 0.91116 0.07897 0.0
C2562 C 0.44858 0.93852 0.09979 0.0
C2563 C 0.46837 0.9456 0.10337 0.0
C2564 C 0.48488 0.93465 0.09554 0.0
C2565 C 0.48166 0.91753 0.08354 0.0
C2566 C 0.48877 0.99774 0.11556 0.0
C2567 C 0.47934 1.00207 0.13417 0.0
C2568 C 0.48515 0.97942 0.10568 0.0
C2569 C 0.47185 0.96505 0.11404 0.0
C2570 C 0.46196 0.96951 0.13237 0.0
C2571 C 0.46577 0.98783 0.14242 0.0
H2572 H 0.57732 0.58129 0.04898 0.0
H2573 H 0.55476 0.61685 0.09895 0.0
H2574 H 0.57327 0.55033 0.06898 0.0
H2575 H 0.55102 0.58595 0.11929 0.0
H2576 H 0.51957 0.52503 0.13437 0.0
H2577 H 0.52799 0.55672 0.11761 0.0
H2578 H 0.58564 0.53177 0.09906 0.0
H2579 H 0.57711 0.49974 0.11571 0.0
C2580 C 0.57176 0.5824 0.0644 0.0
C2581 C 0.56627 0.60126 0.07252 0.0
C2582 C 0.56958 0.56476 0.07589 0.0
C2583 C 0.56179 0.5657 0.0957 0.0
C2584 C 0.55687 0.58474 0.104 0.0
C2585 C 0.55912 0.6024 0.09248 0.0
C2586 C 0.53412 0.52628 0.12684 0.0
C2587 C 0.54764 0.5098 0.12629 0.0
C2588 C 0.539 0.54454 0.11737 0.0
C2589 C 0.55749 0.54677 0.10705 0.0
C2590 C 0.5712 0.53043 0.10677 0.0
C2591 C 0.56634 0.51212 0.11635 0.0
H2592 H 0.03243 0.3163 0.2347 0.0
H2593 H 0.06729 0.26543 0.25686 0.0
H2594 H 1.00217 0.29459 0.23322 0.0
H2595 H 0.03738 0.24403 0.2553 0.0
H2596 H 0.98394 0.2061 0.2319 0.0
H2597 H 0.01374 0.22828 0.23027 0.0
H2598 H 0.97941 0.27659 0.258 0.0
H2599 H 0.94981 0.25461 0.2597 0.0
C2600 C 0.03368 0.30056 0.23921 0.0
C2601 C 0.05232 0.29274 0.24602 0.0
C2602 C 0.01635 0.28812 0.23841 0.0
C2603 C 0.01737 0.26751 0.24407 0.0
C2604 C 0.03607 0.25971 0.25058 0.0
C2605 C 0.05322 0.27213 0.25165 0.0
C2606 C 0.98275 0.22144 0.23763 0.0
C2607 C 0.96446 0.22843 0.24608 0.0
C2608 C 0.99983 0.23416 0.23673 0.0
C2609 C 0.99896 0.25426 0.24399 0.0
C2610 C 0.98058 0.26132 0.25207 0.0
C2611 C 0.96363 0.24858 0.25321 0.0
H2612 H 0.51538 0.69933 0.01364 0.0
H2613 H 0.56577 0.7345 0.03647 0.0
H2614 H 0.49368 0.72902 0.01524 0.0
H2615 H 0.54377 0.76449 0.03805 0.0
H2616 H 0.50469 0.81684 0.0117 0.0
H2617 H 0.52632 0.78711 0.01334 0.0
H2618 H 0.47721 0.75271 0.03959 0.0
H2619 H 0.45527 0.78273 0.03799 0.0
C2620 C 0.5219 0.71341 0.01903 0.0
C2621 C 0.54249 0.71448 0.02478 0.0
C2622 C 0.5093 0.73043 0.02012 0.0
C2623 C 0.5169 0.74915 0.0268 0.0
C2624 C 0.53745 0.7503 0.0327 0.0
C2625 C 0.55007 0.73312 0.03183 0.0
C2626 C 0.49835 0.80298 0.01783 0.0
C2627 C 0.47807 0.80224 0.02459 0.0
C2628 C 0.51092 0.78594 0.01895 0.0
C2629 C 0.5036 0.76752 0.02668 0.0
C2630 C 0.48331 0.76666 0.03344 0.0
C2631 C 0.47073 0.78386 0.03254 0.0
H2632 H 0.98623 0.81395 0.28882 0.0
H2633 H 0.95182 0.76488 0.26228 0.0
H2634 H 0.01607 0.79179 0.29054 0.0
H2635 H 0.98139 0.74297 0.26408 0.0
H2636 H 0.03443 0.70351 0.28704 0.0
H2637 H 1.00434 0.72539 0.28882 0.0
H2638 H 0.03939 0.77551 0.2655 0.0
H2639 H 0.06914 0.75394 0.26364 0.0
C2640 C 0.98498 0.7985 0.28341 0.0
C2641 C 0.96661 0.79134 0.27525 0.0
C2642 C 1.00208 0.78579 0.28436 0.0
C2643 C 1.00111 0.76555 0.27748 0.0
C2644 C 0.98264 0.75835 0.26972 0.0
C2645 C 0.96571 0.77106 0.26852 0.0
C2646 C 0.03568 0.71918 0.28231 0.0
C2647 C 0.05423 0.72682 0.27505 0.0
C2648 C 0.01845 0.73173 0.2833 0.0
C2649 C 0.01948 0.75227 0.27737 0.0
C2650 C 0.03809 0.7599 0.27044 0.0
C2651 C 0.05514 0.74737 0.26919 0.0
H2652 H 0.95279 0.73826 0.98278 0.0
H2653 H 1.00354 0.70363 1.00559 0.0
H2654 H 0.97469 0.76836 0.98066 0.0
H2655 H 0.02509 0.73335 1.00343 0.0
H2656 H 0.0636 0.78625 0.98044 0.0
H2657 H 0.04123 0.75658 0.97855 0.0
H2658 H 0.99257 0.79145 1.00495 0.0
H2659 H 0.01469 0.82089 1.00688 0.0
C2660 C 0.96854 0.73702 0.98728 0.0
C2661 C 0.97626 0.71849 0.99451 0.0
C2662 C 0.9811 0.75426 0.98611 0.0
C2663 C 1.00172 0.75326 0.9918 0.0
C2664 C 1.00942 0.73465 0.99866 0.0
C2665 C 0.9969 0.71761 1.00008 0.0
C2666 C 0.04813 0.78759 0.98579 0.0
C2667 C 0.0411 0.80597 0.99398 0.0
C2668 C 0.0353 0.77058 0.98474 0.0
C2669 C 0.01505 0.77162 0.99159 0.0
C2670 C 1.00795 0.79013 0.99933 0.0
C2671 C 0.02078 0.80699 1.00061 0.0
H2672 H 0.23272 0.9869 0.2045 0.0
H2673 H 0.25892 0.95265 0.25385 0.0
H2674 H 0.23073 0.01676 0.22667 0.0
H2675 H 0.25686 0.98217 0.2757 0.0
H2676 H 0.23356 0.03458 0.31526 0.0
H2677 H 0.23189 1.00473 0.29308 0.0
H2678 H 0.25535 0.04029 0.24341 0.0
H2679 H 0.25708 0.06984 0.2653 0.0
C2680 C 0.23802 0.9857 0.22 0.0
C2681 C 0.24614 0.96736 0.22724 0.0
C2682 C 0.2369 1.0028 0.23271 0.0
C2683 C 0.24358 1.00184 0.25302 0.0
C2684 C 0.25135 0.98341 0.26028 0.0
C2685 C 0.25271 0.9665 0.24758 0.0
C2686 C 0.23833 0.03601 0.29962 0.0
C2687 C 0.24562 0.05463 0.29221 0.0
C2688 C 0.2374 0.01891 0.28689 0.0
C2689 C 0.24344 0.02013 0.26641 0.0
C2690 C 0.25035 0.03884 0.25898 0.0
C2691 C 0.25152 0.05577 0.27169 0.0
H2692 H 0.29127 0.55147 0.96733 0.0
H2693 H 0.3059 0.49116 0.98821 0.0
H2694 H 0.26204 0.5522 0.99057 0.0
H2695 H 0.27695 0.49186 0.01103 0.0
H2696 H 0.21014 0.49172 0.03049 0.0
H2697 H 0.23898 0.49247 1.00752 0.0
H2698 H 0.25571 0.55157 0.0301 0.0
H2699 H 0.2266 0.55079 0.05347 0.0
C2700 C 0.28809 0.5383 0.97662 0.0
C2701 C 0.30086 0.52123 0.97583 0.0
C2702 C 0.27154 0.53882 0.9901 0.0
C2703 C 0.26724 0.52211 1.00272 0.0
C2704 C 0.27976 0.50494 1.00149 0.0
C2705 C 0.29637 0.50455 0.98836 0.0
C2706 C 0.22003 0.50484 0.03076 0.0
C2707 C 0.2161 0.52115 0.04395 0.0
C2708 C 0.23658 0.50526 0.01755 0.0
C2709 C 0.24959 0.52211 0.01689 0.0
C2710 C 0.24583 0.53845 0.03013 0.0
C2711 C 0.22934 0.53789 0.04368 0.0
H2712 H 0.74151 0.5562 0.23739 0.0
H2713 H 0.80225 0.54296 0.21689 0.0
H2714 H 0.74237 0.52657 0.25946 0.0
H2715 H 0.80321 0.51322 0.23944 0.0
H2716 H 0.80162 0.47748 0.30239 0.0
H2717 H 0.80195 0.50682 0.27932 0.0
H2718 H 0.74427 0.48806 0.25473 0.0
H2719 H 0.74402 0.45885 0.27734 0.0
C2720 C 0.75502 0.54685 0.23748 0.0
C2721 C 0.77177 0.5519 0.22526 0.0
C2722 C 0.75551 0.52987 0.25016 0.0
C2723 C 0.77289 0.51761 0.2513 0.0
C2724 C 0.78966 0.5225 0.239 0.0
C2725 C 0.78902 0.53936 0.22593 0.0
C2726 C 0.78896 0.47975 0.29216 0.0
C2727 C 0.77277 0.46584 0.29179 0.0
C2728 C 0.78926 0.4964 0.27881 0.0
C2729 C 0.77317 0.4997 0.26515 0.0
C2730 C 0.75686 0.48599 0.26509 0.0
C2731 C 0.75674 0.46923 0.27808 0.0
H2732 H 0.81254 0.02582 0.02866 0.0
H2733 H 0.79309 0.9685 0.05363 0.0
H2734 H 0.78398 0.02548 1.00527 0.0
H2735 H 0.76429 0.96811 0.02983 0.0
H2736 H 0.72923 0.96719 0.96697 0.0
H2737 H 0.75847 0.96627 0.99022 0.0
H2738 H 0.74588 0.02787 1.00833 0.0
H2739 H 0.71685 0.02872 0.98552 0.0
C2740 C 0.80207 0.01317 0.02926 0.0
C2741 C 0.80507 0.99723 0.04314 0.0
C2742 C 0.78568 0.01299 0.01581 0.0
C2743 C 0.77192 0.99673 0.01559 0.0
C2744 C 0.77477 0.98076 0.02951 0.0
C2745 C 0.79109 0.9811 0.04329 0.0
C2746 C 0.73295 0.9806 0.9757 0.0
C2747 C 0.72078 0.99807 0.9743 0.0
C2748 C 0.7495 0.97999 0.98919 0.0
C2749 C 0.75442 0.99697 1.0012 0.0
C2750 C 0.74258 0.01456 0.99927 0.0
C2751 C 0.72594 0.01505 0.98615 0.0
H2752 H 0.23777 0.27956 0.96098 0.0
H2753 H 0.21419 0.22082 0.9778 0.0
H2754 H 0.26079 0.27875 0.98981 0.0
H2755 H 0.23758 0.21999 1.00689 0.0
H2756 H 0.30034 0.21953 0.04239 0.0
H2757 H 0.27702 0.21891 0.0132 0.0
H2758 H 0.25743 0.27963 0.02773 0.0
H2759 H 0.28034 0.28022 0.05662 0.0
C2760 C 0.23737 0.26651 0.97095 0.0
C2761 C 0.22401 0.25031 0.96712 0.0
C2762 C 0.25061 0.26605 0.98749 0.0
C2763 C 0.25111 0.24927 1.00059 0.0
C2764 C 0.23768 0.23305 0.99694 0.0
C2765 C 0.22412 0.23364 0.98046 0.0
C2766 C 0.29122 0.23279 0.03915 0.0
C2767 C 0.29228 0.24995 0.05179 0.0
C2768 C 0.27771 0.23235 0.02261 0.0
C2769 C 0.26531 0.2492 0.01821 0.0
C2770 C 0.2668 0.26644 0.03062 0.0
C2771 C 0.27997 0.26676 0.0472 0.0
H2772 H 0.26647 0.76513 0.45179 0.0
H2773 H 0.31698 0.78759 0.48704 0.0
H2774 H 0.24481 0.76662 0.48149 0.0
H2775 H 0.29501 0.78898 0.5171 0.0
H2776 H 0.25529 0.76096 0.56879 0.0
H2777 H 0.27727 0.76349 0.53932 0.0
H2778 H 0.22869 0.79132 0.5054 0.0
H2779 H 0.20647 0.78888 0.53513 0.0
C2780 C 0.27302 0.77041 0.4659 0.0
C2781 C 0.29362 0.77608 0.46699 0.0
C2782 C 0.26046 0.77144 0.48292 0.0
C2783 C 0.2681 0.77796 0.50167 0.0
C2784 C 0.28867 0.78379 0.50286 0.0
C2785 C 0.30126 0.78303 0.48565 0.0
C2786 C 0.24918 0.76764 0.55508 0.0
C2787 C 0.22895 0.77455 0.55435 0.0
C2788 C 0.26193 0.76928 0.53822 0.0
C2789 C 0.25481 0.77765 0.52 0.0
C2790 C 0.23462 0.78469 0.5192 0.0
C2791 C 0.22188 0.7833 0.53623 0.0
H2792 H 0.03601 0.45557 0.78364 0.0
H2793 H 0.0124 0.50619 0.81788 0.0
H2794 H 0.03787 0.47723 0.75342 0.0
H2795 H 0.01429 0.52755 0.78797 0.0
H2796 H 0.03721 0.56565 0.73433 0.0
H2797 H 0.03887 0.54391 0.76449 0.0
H2798 H 0.01342 0.4943 0.7302 0.0
H2799 H 0.01173 0.51574 0.70032 0.0
C2800 C 0.03126 0.47125 0.78477 0.0
C2801 C 0.0239 0.479 0.80322 0.0
C2802 C 0.03229 0.48367 0.76745 0.0
C2803 C 0.02627 0.50419 0.76827 0.0
C2804 C 0.01928 0.51195 0.7868 0.0
C2805 C 0.01802 0.49955 0.80395 0.0
C2806 C 0.032 0.55011 0.73324 0.0
C2807 C 0.0242 0.54259 0.71487 0.0
C2808 C 0.03291 0.53764 0.75052 0.0
C2809 C 0.02633 0.5173 0.74976 0.0
C2810 C 0.01886 0.50976 0.73131 0.0
C2811 C 0.01772 0.52221 0.71418 0.0
H2812 H 0.71641 0.71943 0.4777 0.0
H2813 H 0.73858 0.77909 0.46227 0.0
H2814 H 0.73964 0.7186 0.50695 0.0
H2815 H 0.76139 0.77829 0.49125 0.0
H2816 H 0.78063 0.77897 0.55813 0.0
H2817 H 0.75766 0.77823 0.52927 0.0
H2818 H 0.77924 0.71856 0.51336 0.0
H2819 H 0.80263 0.71932 0.54248 0.0
C2820 C 0.72599 0.73244 0.48069 0.0
C2821 C 0.72555 0.74936 0.4677 0.0
C2822 C 0.73946 0.73186 0.49727 0.0
C2823 C 0.75242 0.74836 0.50136 0.0
C2824 C 0.75157 0.76538 0.4886 0.0
C2825 C 0.73846 0.76582 0.47196 0.0
C2826 C 0.78067 0.76571 0.54843 0.0
C2827 C 0.79359 0.74924 0.55259 0.0
C2828 C 0.76746 0.7653 0.53187 0.0
C2829 C 0.76654 0.74831 0.51906 0.0
C2830 C 0.77948 0.73179 0.52308 0.0
C2831 C 0.79303 0.73233 0.53958 0.0
H2832 H 0.48238 0.4547 0.2368 0.0
H2833 H 0.50697 0.50472 0.20233 0.0
H2834 H 0.4808 0.47657 0.26689 0.0
H2835 H 0.50531 0.5263 0.2321 0.0
H2836 H 0.48222 0.565 0.28511 0.0
H2837 H 0.48029 0.5429 0.25526 0.0
H2838 H 0.50588 0.49367 0.28997 0.0
H2839 H 0.50787 0.51552 0.31959 0.0
C2840 C 0.4874 0.47029 0.2356 0.0
C2841 C 0.49494 0.47782 0.21713 0.0
C2842 C 0.48653 0.48282 0.25283 0.0
C2843 C 0.49287 0.50323 0.25188 0.0
C2844 C 0.50007 0.51077 0.23334 0.0
C2845 C 0.50119 0.49826 0.21628 0.0
C2846 C 0.48739 0.54946 0.28637 0.0
C2847 C 0.49535 0.54216 0.30476 0.0
C2848 C 0.48632 0.5368 0.26927 0.0
C2849 C 0.4929 0.51647 0.27025 0.0
C2850 C 0.50047 0.50912 0.28873 0.0
C2851 C 0.50179 0.52179 0.30568 0.0
H2852 H 1.00803 0.01658 0.81854 0.0
H2853 H 0.98265 0.06555 0.78312 0.0
H2854 H 1.00672 0.99443 0.78917 0.0
H2855 H 0.98141 0.0431 0.75346 0.0
H2856 H 1.00883 1.00428 0.70142 0.0
H2857 H 1.0067 0.02625 0.73083 0.0
H2858 H 0.98223 0.97685 0.7661 0.0
H2859 H 0.98429 0.95454 0.73636 0.0
C2860 C 1.00216 0.0227 0.80447 0.0
C2861 C 0.99559 0.04302 0.80323 0.0
C2862 C 1.00123 1.00984 0.78765 0.0
C2863 C 0.99391 0.01692 0.76897 0.0
C2864 C 0.98725 0.0372 0.76764 0.0
C2865 C 0.98794 0.05007 0.78462 0.0
C2866 C 1.00299 0.99795 0.7154 0.0
C2867 C 0.99688 0.97747 0.71648 0.0
C2868 C 1.00158 0.01071 0.73225 0.0
C2869 C 0.99422 1.00339 0.75081 0.0
C2870 C 0.98807 0.98294 0.75201 0.0
C2871 C 0.98924 0.97015 0.73499 0.0
H2872 H 0.47763 0.71673 0.71766 0.0
H2873 H 0.46288 0.73811 0.77775 0.0
H2874 H 0.50684 0.74004 0.71677 0.0
H2875 H 0.49178 0.761 0.77689 0.0
H2876 H 0.5585 0.78042 0.77734 0.0
H2877 H 0.52971 0.75739 0.77649 0.0
H2878 H 0.5134 0.77957 0.71713 0.0
H2879 H 0.54248 0.80301 0.718 0.0
C2880 C 0.48075 0.72616 0.73074 0.0
C2881 C 0.46796 0.72546 0.7478 0.0
C2882 C 0.4973 0.73967 0.73014 0.0
C2883 C 0.50158 0.75243 0.74674 0.0
C2884 C 0.489 0.75135 0.76389 0.0
C2885 C 0.4724 0.73818 0.76436 0.0
C2886 C 0.54874 0.78058 0.76412 0.0
C2887 C 0.55278 0.7937 0.74778 0.0
C2888 C 0.5322 0.76733 0.76365 0.0
C2889 C 0.51929 0.76656 0.74672 0.0
C2890 C 0.52319 0.77969 0.73032 0.0
C2891 C 0.53968 0.79327 0.73092 0.0
H2892 H 0.96608 0.29179 0.54971 0.0
H2893 H 0.99156 0.31167 0.49278 0.0
H2894 H 0.9898 0.26299 0.55008 0.0
H2895 H 0.01486 0.283 0.49306 0.0
H2896 H 0.03414 0.21542 0.48996 0.0
H2897 H 0.01144 0.24457 0.49062 0.0
H2898 H 0.02965 0.25751 0.55212 0.0
H2899 H 0.05282 0.22824 0.55138 0.0
C2900 C 0.97651 0.28988 0.53717 0.0
C2901 C 0.97683 0.30399 0.52116 0.0
C2902 C 0.99025 0.27355 0.53751 0.0
C2903 C 1.00428 0.27079 0.52164 0.0
C2904 C 1.00423 0.28466 0.50548 0.0
C2905 C 0.99084 0.30109 0.50532 0.0
C2906 C 0.03355 0.22461 0.50357 0.0
C2907 C 0.04542 0.21957 0.52058 0.0
C2908 C 0.0205 0.24131 0.50394 0.0
C2909 C 0.01863 0.25328 0.52146 0.0
C2910 C 0.03064 0.24845 0.53846 0.0
C2911 C 0.04408 0.23187 0.53796 0.0
H2912 H 0.45232 0.26475 0.76381 0.0
H2913 H 0.48692 0.31459 0.78863 0.0
H2914 H 0.48199 0.24303 0.76563 0.0
H2915 H 0.51691 0.29258 0.79038 0.0
H2916 H 0.56949 0.25404 0.76296 0.0
H2917 H 0.53984 0.27575 0.76524 0.0
H2918 H 0.50533 0.22614 0.79039 0.0
H2919 H 0.53529 0.20414 0.78818 0.0
C2920 C 0.46628 0.27114 0.76968 0.0
C2921 C 0.46721 0.29158 0.77591 0.0
C2922 C 0.48327 0.25853 0.77091 0.0
C2923 C 0.50183 0.26599 0.77819 0.0
C2924 C 0.50283 0.28639 0.78458 0.0
C2925 C 0.48567 0.299 0.78361 0.0
C2926 C 0.55563 0.24763 0.76902 0.0
C2927 C 0.5548 0.22718 0.77523 0.0
C2928 C 0.53865 0.26023 0.77051 0.0
C2929 C 0.52021 0.25275 0.77804 0.0
C2930 C 0.51931 0.23235 0.7844 0.0
C2931 C 0.53646 0.21974 0.78317 0.0
H2932 H 0.51538 0.3203 0.5074 0.0
H2933 H 0.56436 0.28472 0.48237 0.0
H2934 H 0.4932 0.29084 0.50626 0.0
H2935 H 0.54196 0.25504 0.48133 0.0
H2936 H 0.50354 0.20294 0.5089 0.0
H2937 H 0.52524 0.23258 0.50684 0.0
H2938 H 0.47566 0.26726 0.48187 0.0
H2939 H 0.45364 0.23724 0.48383 0.0
C2940 C 0.52148 0.30619 0.50164 0.0
C2941 C 0.54182 0.30492 0.49512 0.0
C2942 C 0.50862 0.28931 0.50082 0.0
C2943 C 0.51573 0.27057 0.49368 0.0
C2944 C 0.53602 0.26925 0.48705 0.0
C2945 C 0.54888 0.28626 0.48762 0.0
C2946 C 0.49711 0.21683 0.50296 0.0
C2947 C 0.47668 0.21764 0.49666 0.0
C2948 C 0.50971 0.23383 0.5016 0.0
C2949 C 0.50228 0.2523 0.49411 0.0
C2950 C 0.48185 0.25325 0.4878 0.0
C2951 C 0.46922 0.23606 0.4889 0.0
H2952 H 0.7188 0.54242 0.80191 0.0
H2953 H 0.77806 0.55889 0.77945 0.0
H2954 H 0.71806 0.51352 0.77827 0.0
H2955 H 0.77735 0.53025 0.75621 0.0
H2956 H 0.77846 0.46331 0.73638 0.0
H2957 H 0.77789 0.49229 0.75921 0.0
H2958 H 0.71752 0.50732 0.73885 0.0
H2959 H 0.71814 0.47808 0.7156 0.0
C2960 C 0.73174 0.53974 0.79217 0.0
C2961 C 0.74853 0.55292 0.79268 0.0
C2962 C 0.73121 0.52336 0.77846 0.0
C2963 C 0.74761 0.51964 0.76528 0.0
C2964 C 0.76451 0.5326 0.76618 0.0
C2965 C 0.7649 0.54904 0.77955 0.0
C2966 C 0.76511 0.4729 0.73653 0.0
C2967 C 0.74839 0.46842 0.72403 0.0
C2968 C 0.7648 0.48953 0.74966 0.0
C2969 C 0.74763 0.50207 0.75096 0.0
C2970 C 0.73091 0.49781 0.73833 0.0
C2971 C 0.73136 0.48125 0.72484 0.0
H2972 H 0.69972 0.0122 0.51363 0.0
H2973 H 0.73452 0.03759 0.56304 0.0
H2974 H 0.72936 0.01384 0.49176 0.0
H2975 H 0.76436 0.03918 0.54094 0.0
H2976 H 0.81715 0.01203 0.50348 0.0
H2977 H 0.7872 0.01395 0.52468 0.0
H2978 H 0.75297 0.03825 0.47445 0.0
H2979 H 0.78332 0.0364 0.45289 0.0
C2980 C 0.7137 0.01816 0.51988 0.0
C2981 C 0.71471 0.0246 0.54026 0.0
C2982 C 0.73067 0.01928 0.5072 0.0
C2983 C 0.74925 0.02665 0.51453 0.0
C2984 C 0.75029 0.03328 0.53484 0.0
C2985 C 0.73319 0.0324 0.54752 0.0
C2986 C 0.80329 0.01781 0.49679 0.0
C2987 C 0.8027 0.02394 0.47631 0.0
C2988 C 0.78612 0.01908 0.50911 0.0
C2989 C 0.76769 0.02634 0.50136 0.0
C2990 C 0.76695 0.0325 0.48088 0.0
C2991 C 0.78432 0.03147 0.46852 0.0
H2992 H 0.26529 0.95059 0.76599 0.0
H2993 H 0.2883 0.98599 0.81612 0.0
H2994 H 0.26651 0.98023 0.74423 0.0
H2995 H 0.28947 0.01597 0.79404 0.0
H2996 H 0.26179 0.0679 0.75492 0.0
H2997 H 0.26436 0.03836 0.77673 0.0
H2998 H 0.29046 1.00413 0.72746 0.0
H2999 H 0.28794 0.03398 0.70535 0.0
C3000 C 0.27064 0.96472 0.77245 0.0
C3001 C 0.27654 0.96585 0.79298 0.0
C3002 C 0.27152 0.98172 0.75981 0.0
C3003 C 0.27813 1.00051 0.76729 0.0
C3004 C 0.28418 1.00173 0.7878 0.0
C3005 C 0.28355 0.98456 0.80046 0.0
C3006 C 0.2681 0.05412 0.74859 0.0
C3007 C 0.27451 0.05337 0.7282 0.0
C3008 C 0.26976 0.03719 0.76126 0.0
C3009 C 0.27767 0.01885 0.75394 0.0
C3010 C 0.28418 0.01801 0.73357 0.0
C3011 C 0.28275 0.03511 0.72088 0.0
H3012 H 0.28413 0.48218 0.56633 0.0
H3013 H 0.31942 0.50595 0.51649 0.0
H3014 H 0.25429 0.48057 0.54407 0.0
H3015 H 0.28991 0.50426 0.49455 0.0
H3016 H 0.23701 0.48114 0.4554 0.0
H3017 H 0.2667 0.47931 0.47782 0.0
H3018 H 0.23167 0.50553 0.52646 0.0
H3019 H 0.20229 0.50744 0.50434 0.0
C3020 C 0.28556 0.48704 0.55071 0.0
C3021 C 0.30419 0.49435 0.54335 0.0
C3022 C 0.26848 0.48614 0.53795 0.0
C3023 C 0.26975 0.49221 0.51747 0.0
C3024 C 0.28843 0.49921 0.51012 0.0
C3025 C 0.30534 0.50037 0.52285 0.0
C3026 C 0.23567 0.4865 0.47087 0.0
C3027 C 0.21726 0.4946 0.47792 0.0
C3028 C 0.25266 0.48547 0.48372 0.0
C3029 C 0.25153 0.49222 0.50399 0.0
C3030 C 0.23304 0.49997 0.51107 0.0
C3031 C 0.21621 0.50124 0.49823 0.0
H3032 H 0.71499 0.30175 0.04116 0.0
H3033 H 0.73809 0.2429 0.05817 0.0
H3034 H 0.73855 0.30245 0.01222 0.0
H3035 H 0.76125 0.24354 0.02944 0.0
H3036 H 0.78134 0.24231 0.96263 0.0
H3037 H 0.75816 0.24286 0.99131 0.0
H3038 H 0.77817 0.30328 1.00653 0.0
H3039 H 0.80178 0.3027 0.9776 0.0
C3040 C 0.72484 0.28887 0.03856 0.0
C3041 C 0.72457 0.27222 0.05191 0.0
C3042 C 0.73849 0.28938 0.02217 0.0
C3043 C 0.75184 0.27309 0.01861 0.0
C3044 C 0.75114 0.2563 0.03169 0.0
C3045 C 0.73783 0.25593 0.04817 0.0
C3046 C 0.781 0.25569 0.97216 0.0
C3047 C 0.79352 0.27243 0.96786 0.0
C3048 C 0.76768 0.25598 0.98862 0.0
C3049 C 0.76623 0.27314 1.00114 0.0
C3050 C 0.77882 0.28991 0.99702 0.0
C3051 C 0.7925 0.28948 0.98064 0.0
H3052 H 0.53678 0.95576 0.28167 0.0
H3053 H 0.51134 1.00533 0.31613 0.0
H3054 H 0.53794 0.97763 0.25157 0.0
H3055 H 0.51256 0.02691 0.28633 0.0
H3056 H 0.53555 0.06605 0.23339 0.0
H3057 H 0.53722 0.04405 0.26334 0.0
H3058 H 0.51308 0.99434 0.22824 0.0
H3059 H 0.51136 0.01608 0.19854 0.0
C3060 C 0.53145 0.97124 0.28286 0.0
C3061 C 0.52384 0.97864 0.30136 0.0
C3062 C 0.53208 0.98378 0.26562 0.0
C3063 C 0.52541 1.00409 0.26655 0.0
C3064 C 0.51806 0.01148 0.2851 0.0
C3065 C 0.51719 0.99895 0.30218 0.0
C3066 C 0.53061 0.05044 0.23208 0.0
C3067 C 0.52319 0.04297 0.21353 0.0
C3068 C 0.53153 0.03783 0.24924 0.0
C3069 C 0.52533 0.01738 0.24819 0.0
C3070 C 0.51821 1.00989 0.22957 0.0
C3071 C 0.51706 0.0225 0.21255 0.0
H3072 H 0.1652 0.48711 0.13876 0.0
H3073 H 0.12645 0.46226 0.09213 0.0
H3074 H 0.15246 0.46168 0.16267 0.0
H3075 H 0.11303 0.43795 0.11591 0.0
H3076 H 0.10346 0.38421 0.15517 0.0
H3077 H 0.11985 0.40846 0.13286 0.0
H3078 H 0.12479 0.45092 0.18263 0.0
H3079 H 0.10935 0.42578 0.20527 0.0
C3080 C 0.15399 0.47625 0.13361 0.0
C3081 C 0.14708 0.4766 0.11342 0.0
C3082 C 0.14653 0.46176 0.14737 0.0
C3083 C 0.13177 0.44747 0.14131 0.0
C3084 C 0.12479 0.44814 0.12115 0.0
C3085 C 0.13245 0.46229 0.10743 0.0
C3086 C 0.10808 0.39874 0.16133 0.0
C3087 C 0.10496 0.40322 0.18187 0.0
C3088 C 0.1174 0.41277 0.1485 0.0
C3089 C 0.1234 0.43198 0.1557 0.0
C3090 C 0.12058 0.4363 0.17647 0.0
C3091 C 0.1116 0.42198 0.18945 0.0
H3092 H 0.74027 0.60539 0.13103 0.0
H3093 H 0.71099 0.64071 0.17782 0.0
H3094 H 0.71638 0.6191 0.10598 0.0
H3095 H 0.68757 0.65447 0.15284 0.0
H3096 H 0.66614 0.69284 0.09905 0.0
H3097 H 0.6912 0.67803 0.12199 0.0
H3098 H 0.67702 0.61839 0.09915 0.0
H3099 H 0.65133 0.633 0.07689 0.0
C3100 C 0.72871 0.61593 0.13602 0.0
C3101 C 0.72757 0.62187 0.15649 0.0
C3102 C 0.71506 0.62378 0.12167 0.0
C3103 C 0.70025 0.63801 0.12743 0.0
C3104 C 0.69898 0.64374 0.14789 0.0
C3105 C 0.71234 0.63569 0.16225 0.0
C3106 C 0.66852 0.67659 0.09872 0.0
C3107 C 0.65707 0.66425 0.08563 0.0
C3108 C 0.68283 0.66811 0.11191 0.0
C3109 C 0.68613 0.64705 0.1123 0.0
C3110 C 0.67505 0.6347 0.09892 0.0
C3111 C 0.66049 0.64316 0.08593 0.0
H3112 H 0.91618 0.13659 0.15115 0.0
H3113 H 0.90929 0.09668 0.20247 0.0
H3114 H 0.90072 0.11136 0.12922 0.0
H3115 H 0.89465 0.07069 0.18033 0.0
H3116 H 0.85498 0.03317 0.13686 0.0
H3117 H 0.86721 0.05945 0.1601 0.0
H3118 H 0.90812 0.0811 0.11366 0.0
H3119 H 0.89526 0.05587 0.09047 0.0
C3120 C 0.91153 0.12225 0.15769 0.0
C3121 C 0.91401 0.11857 0.17848 0.0
C3122 C 0.90272 0.10767 0.14509 0.0
C3123 C 0.8966 0.0887 0.15282 0.0
C3124 C 0.89891 0.08513 0.17378 0.0
C3125 C 0.9074 0.09996 0.18649 0.0
C3126 C 0.86643 0.04372 0.13162 0.0
C3127 C 0.87392 0.04252 0.11169 0.0
C3128 C 0.87359 0.05871 0.145 0.0
C3129 C 0.8886 0.07267 0.13882 0.0
C3130 C 0.89617 0.07115 0.11894 0.0
C3131 C 0.88883 0.05648 0.10557 0.0
H3132 H 0.35242 0.87432 0.06479 0.0
H3133 H 0.37502 0.83918 0.11523 0.0
H3134 H 0.32879 0.8915 0.08733 0.0
H3135 H 0.35051 0.85525 0.13742 0.0
H3136 H 0.31924 0.89954 0.17798 0.0
H3137 H 0.34383 0.88595 0.15413 0.0
H3138 H 0.2987 0.88774 0.10659 0.0
H3139 H 0.27431 0.90216 0.13038 0.0
C3140 C 0.35257 0.87037 0.08069 0.0
C3141 C 0.36618 0.85577 0.08823 0.0
C3142 C 0.33868 0.88001 0.09361 0.0
C3143 C 0.33785 0.87508 0.11438 0.0
C3144 C 0.35102 0.85996 0.1217 0.0
C3145 C 0.36496 0.85049 0.10885 0.0
C3146 C 0.31462 0.89729 0.16238 0.0
C3147 C 0.29476 0.9019 0.15614 0.0
C3148 C 0.3287 0.88928 0.14869 0.0
C3149 C 0.32325 0.88534 0.12841 0.0
C3150 C 0.30357 0.89066 0.12199 0.0
C3151 C 0.28953 0.89893 0.13567 0.0
H3152 H 0.12553 0.6004 0.31424 0.0
H3153 H 0.09161 0.6241 0.36498 0.0
H3154 H 0.14242 0.57648 0.33672 0.0
H3155 H 0.10731 0.59931 0.3871 0.0
H3156 H 0.151 0.56718 0.42746 0.0
H3157 H 0.13788 0.59197 0.40355 0.0
H3158 H 0.13836 0.54661 0.35623 0.0
H3159 H 0.15238 0.52202 0.38008 0.0
C3160 C 0.1218 0.60074 0.33018 0.0
C3161 C 0.10763 0.61476 0.33782 0.0
C3162 C 0.13125 0.58668 0.34308 0.0
C3163 C 0.12656 0.58606 0.36391 0.0
C3164 C 0.11185 0.59963 0.37133 0.0
C3165 C 0.10259 0.61374 0.35851 0.0
C3166 C 0.14856 0.56255 0.41189 0.0
C3167 C 0.15269 0.54257 0.40574 0.0
C3168 C 0.14082 0.57674 0.39817 0.0
C3169 C 0.13663 0.5713 0.37794 0.0
C3170 C 0.14148 0.55148 0.37159 0.0
C3171 C 0.14951 0.53732 0.3853 0.0
H3172 H 0.80944 0.63993 0.84222 0.0
H3173 H 0.77955 0.6053 0.88917 0.0
H3174 H 0.83266 0.65391 0.86721 0.0
H3175 H 0.80331 0.61925 0.91427 0.0
H3176 H 0.86863 0.63399 0.94337 0.0
H3177 H 0.84296 0.61882 0.9214 0.0
H3178 H 0.82833 0.67798 0.89766 0.0
H3179 H 0.85336 0.69334 0.92028 0.0
C3180 C 0.80791 0.63509 0.85784 0.0
C3181 C 0.79254 0.62143 0.86362 0.0
C3182 C 0.82117 0.64327 0.87219 0.0
C3183 C 0.81968 0.63785 0.89272 0.0
C3184 C 0.80479 0.62371 0.89854 0.0
C3185 C 0.79121 0.61572 0.88416 0.0
C3186 C 0.85936 0.64393 0.93419 0.0
C3187 C 0.86267 0.66504 0.93411 0.0
C3188 C 0.84481 0.63515 0.92138 0.0
C3189 C 0.83364 0.6472 0.90782 0.0
C3190 C 0.83678 0.66829 0.90789 0.0
C3191 C 0.85108 0.67708 0.92088 0.0
H3192 H 0.89143 0.96025 0.43104 0.0
H3193 H 0.85391 0.98494 0.38336 0.0
H3194 H 0.90497 0.93544 0.4078 0.0
H3195 H 0.8667 0.95908 0.36005 0.0
H3196 H 0.91003 0.92303 0.31837 0.0
H3197 H 0.89457 0.94827 0.34076 0.0
H3198 H 0.89869 0.90591 0.3907 0.0
H3199 H 0.9151 0.88149 0.36858 0.0
C3200 C 0.88571 0.96013 0.41564 0.0
C3201 C 0.87144 0.97458 0.40916 0.0
C3202 C 0.89344 0.9457 0.40223 0.0
C3203 C 0.88688 0.94493 0.38192 0.0
C3204 C 0.87237 0.95926 0.37545 0.0
C3205 C 0.86486 0.974 0.38887 0.0
C3206 C 0.90758 0.91924 0.33416 0.0
C3207 C 0.91394 0.90043 0.34182 0.0
C3208 C 0.89859 0.93364 0.34701 0.0
C3209 C 0.89547 0.92937 0.36774 0.0
C3210 C 0.90132 0.91016 0.37507 0.0
C3211 C 0.91066 0.89603 0.36236 0.0
H3212 H 0.13334 0.85769 0.90253 0.0
H3213 H 0.17514 0.8592 0.9528 0.0
H3214 H 0.15833 0.87404 0.88101 0.0
H3215 H 0.20093 0.87464 0.93094 0.0
H3216 H 0.23894 0.91557 0.88925 0.0
H3217 H 0.21277 0.90294 0.9124 0.0
H3218 H 0.18761 0.86682 0.86377 0.0
H3219 H 0.2127 0.88013 0.84078 0.0
C3220 C 0.14806 0.86133 0.90889 0.0
C3221 C 0.15237 0.85703 0.92927 0.0
C3222 C 0.16251 0.87064 0.89652 0.0
C3223 C 0.18195 0.87546 0.904 0.0
C3224 C 0.18614 0.8714 0.92459 0.0
C3225 C 0.17143 0.86241 0.93712 0.0
C3226 C 0.22761 0.90514 0.88352 0.0
C3227 C 0.22784 0.8991 0.86306 0.0
C3228 C 0.21269 0.89772 0.89684 0.0
C3229 C 0.19782 0.88389 0.89005 0.0
C3230 C 0.19829 0.87785 0.8696 0.0
C3231 C 0.21289 0.88545 0.85632 0.0
H3232 H 0.20465 0.10954 0.42603 0.0
H3233 H 0.15482 0.10523 0.3839 0.0
H3234 H 0.18208 0.12508 0.45115 0.0
H3235 H 0.13259 0.12169 0.40815 0.0
H3236 H 0.09149 0.12881 0.46161 0.0
H3237 H 0.1152 0.115 0.43744 0.0
H3238 H 0.16265 0.15314 0.4619 0.0
H3239 H 0.1388 0.16627 0.48715 0.0
C3240 C 0.18891 0.11215 0.42211 0.0
C3241 C 0.18139 0.10594 0.40318 0.0
C3242 C 0.17597 0.12118 0.43642 0.0
C3243 C 0.1553 0.12449 0.43193 0.0
C3244 C 0.14815 0.11887 0.41258 0.0
C3245 C 0.16093 0.1095 0.39855 0.0
C3246 C 0.10693 0.13444 0.46182 0.0
C3247 C 0.11313 0.14884 0.47628 0.0
C3248 C 0.12062 0.12655 0.44777 0.0
C3249 C 0.14095 0.13306 0.44735 0.0
C3250 C 0.14721 0.14756 0.46179 0.0
C3251 C 0.13349 0.15526 0.47618 0.0
H3252 H 0.40219 0.67594 0.81874 0.0
H3253 H 0.40053 0.62923 0.7729 0.0
H3254 H 0.38889 0.65219 0.84355 0.0
H3255 H 0.38632 0.60553 0.79759 0.0
H3256 H 0.37323 0.56348 0.85148 0.0
H3257 H 0.39037 0.58549 0.82726 0.0
H3258 H 0.35773 0.63698 0.85126 0.0
H3259 H 0.34181 0.6153 0.87628 0.0
C3260 C 0.39905 0.66053 0.81397 0.0
C3261 C 0.40235 0.65453 0.79379 0.0
C3262 C 0.3912 0.64691 0.82818 0.0
C3263 C 0.38607 0.62695 0.82258 0.0
C3264 C 0.39016 0.6207 0.80256 0.0
C3265 C 0.3983 0.63431 0.78836 0.0
C3266 C 0.37011 0.57955 0.85199 0.0
C3267 C 0.35659 0.58763 0.8664 0.0
C3268 C 0.3797 0.59218 0.83778 0.0
C3269 C 0.37579 0.61318 0.83742 0.0
C3270 C 0.36169 0.62105 0.85137 0.0
C3271 C 0.35229 0.6085 0.86562 0.0
H3272 H 0.92784 0.39571 0.46574 0.0
H3273 H 0.88208 0.35331 0.48572 0.0
H3274 H 0.90477 0.40915 0.44073 0.0
H3275 H 0.85898 0.36613 0.45957 0.0
H3276 H 0.81621 0.40821 0.42296 0.0
H3277 H 0.83819 0.39321 0.44887 0.0
H3278 H 0.89006 0.40285 0.40989 0.0
H3279 H 0.86825 0.41871 0.38482 0.0
C3280 C 0.9129 0.38895 0.46455 0.0
C3281 C 0.90693 0.37325 0.47769 0.0
C3282 C 0.89961 0.39662 0.45 0.0
C3283 C 0.87995 0.38862 0.44773 0.0
C3284 C 0.8739 0.37286 0.46089 0.0
C3285 C 0.88719 0.36537 0.4758 0.0
C3286 C 0.83233 0.40705 0.42005 0.0
C3287 C 0.84057 0.41478 0.40199 0.0
C3288 C 0.84496 0.39835 0.43483 0.0
C3289 C 0.86608 0.39692 0.43173 0.0
C3290 C 0.87405 0.40416 0.41327 0.0
C3291 C 0.86153 0.41319 0.39876 0.0
H3292 H 0.68382 0.93906 0.84209 0.0
H3293 H 0.63632 0.9249 0.88472 0.0
H3294 H 0.66758 0.91705 0.81677 0.0
H3295 H 0.62018 0.90283 0.8596 0.0
H3296 H 0.6188 0.84427 0.81863 0.0
H3297 H 0.63137 0.86909 0.8431 0.0
H3298 H 0.63368 0.9145 0.79605 0.0
H3299 H 0.62072 0.88974 0.77153 0.0
C3300 C 0.66976 0.93145 0.8459 0.0
C3301 C 0.66109 0.93397 0.86517 0.0
C3302 C 0.66044 0.91893 0.83144 0.0
C3303 C 0.64256 0.90829 0.83619 0.0
C3304 C 0.63392 0.91086 0.8555 0.0
C3305 C 0.64304 0.92364 0.8698 0.0
C3306 C 0.62171 0.85962 0.81354 0.0
C3307 C 0.6187 0.86502 0.79312 0.0
C3308 C 0.62887 0.87384 0.82757 0.0
C3309 C 0.63357 0.89371 0.82147 0.0
C3310 C 0.63028 0.89925 0.80114 0.0
C3311 C 0.62272 0.88512 0.78716 0.0
H3312 H 0.15472 0.92758 0.12588 0.0
H3313 H 0.20631 0.89552 0.1014 0.0
H3314 H 0.13291 0.91156 0.101 0.0
H3315 H 0.18418 0.8783 0.07738 0.0
H3316 H 0.14083 0.86864 0.02272 0.0
H3317 H 0.16448 0.88241 0.04765 0.0
H3318 H 0.11728 0.88068 0.09309 0.0
H3319 H 0.09354 0.86781 0.06797 0.0
C3320 C 0.16144 0.91693 0.11534 0.0
C3321 C 0.18229 0.91252 0.11613 0.0
C3322 C 0.14881 0.90747 0.10117 0.0
C3323 C 0.15659 0.89321 0.08734 0.0
C3324 C 0.17755 0.88912 0.08779 0.0
C3325 C 0.19026 0.89876 0.1019 0.0
C3326 C 0.13561 0.87093 0.03812 0.0
C3327 C 0.11524 0.86727 0.04329 0.0
C3328 C 0.1492 0.87883 0.05247 0.0
C3329 C 0.14279 0.88304 0.07241 0.0
C3330 C 0.12268 0.87825 0.07779 0.0
C3331 C 0.10907 0.87065 0.0634 0.0
H3332 H 0.15816 0.56643 0.1741 0.0
H3333 H 0.16452 0.61679 0.13292 0.0
H3334 H 0.14317 0.58903 0.19946 0.0
H3335 H 0.14857 0.63913 0.15744 0.0
H3336 H 0.14221 0.67937 0.2119 0.0
H3337 H 0.15524 0.6559 0.18703 0.0
H3338 H 0.11583 0.60897 0.21044 0.0
H3339 H 0.10354 0.6325 0.23636 0.0
C3340 C 0.15608 0.5823 0.17042 0.0
C3341 C 0.16269 0.58993 0.15168 0.0
C3342 C 0.14736 0.59528 0.18488 0.0
C3343 C 0.14477 0.61611 0.18075 0.0
C3344 C 0.15082 0.62341 0.16159 0.0
C3345 C 0.15989 0.61057 0.14741 0.0
C3346 C 0.13613 0.6641 0.21171 0.0
C3347 C 0.12168 0.65792 0.22611 0.0
C3348 C 0.14357 0.65056 0.19726 0.0
C3349 C 0.13653 0.63042 0.19639 0.0
C3350 C 0.12186 0.62424 0.21069 0.0
C3351 C 0.11464 0.63779 0.22547 0.0
H3352 H 0.88144 0.6685 0.03427 0.0
H3353 H 0.92973 0.63271 0.0603 0.0
H3354 H 0.8581 0.65556 0.06005 0.0
H3355 H 0.90652 0.61906 0.08507 0.0
H3356 H 0.86683 0.60844 0.13844 0.0
H3357 H 0.88877 0.62537 0.11421 0.0
H3358 H 0.83944 0.62715 0.07094 0.0
H3359 H 0.81716 0.61115 0.09601 0.0
C3360 C 0.8871 0.65793 0.04549 0.0
C3361 C 0.90755 0.65183 0.04527 0.0
C3362 C 0.87366 0.65033 0.06019 0.0
C3363 C 0.8803 0.63624 0.07486 0.0
C3364 C 0.90079 0.63025 0.07451 0.0
C3365 C 0.9142 0.63804 0.06011 0.0
C3366 C 0.8607 0.61248 0.12374 0.0
C3367 C 0.84037 0.60834 0.11902 0.0
C3368 C 0.87331 0.62212 0.10972 0.0
C3369 C 0.86612 0.62745 0.09031 0.0
C3370 C 0.84557 0.62354 0.08573 0.0
C3371 C 0.83279 0.61423 0.10001 0.0
H3372 H 0.88522 0.92445 0.13608 0.0
H3373 H 0.83702 0.93764 0.17826 0.0
H3374 H 0.90128 0.90238 0.16112 0.0
H3375 H 0.85322 0.91555 0.20352 0.0
H3376 H 0.90056 0.88926 0.24899 0.0
H3377 H 0.88732 0.91376 0.22439 0.0
H3378 H 0.89024 0.86827 0.17747 0.0
H3379 H 0.90309 0.84366 0.20204 0.0
C3380 C 0.8783 0.92301 0.15087 0.0
C3381 C 0.86007 0.93308 0.15537 0.0
C3382 C 0.88738 0.91018 0.16513 0.0
C3383 C 0.87857 0.90733 0.1843 0.0
C3384 C 0.86048 0.91765 0.18893 0.0
C3385 C 0.85118 0.9302 0.1745 0.0
C3386 C 0.89866 0.88457 0.23336 0.0
C3387 C 0.90292 0.8645 0.22747 0.0
C3388 C 0.89091 0.89855 0.21934 0.0
C3389 C 0.88769 0.8929 0.19905 0.0
C3390 C 0.89267 0.87308 0.19299 0.0
C3391 C 0.9 0.85899 0.20707 0.0
H3392 H 0.46015 0.09187 0.12748 0.0
H3393 H 0.48501 0.1391 0.16549 0.0
H3394 H 0.43484 0.11506 0.11484 0.0
H3395 H 0.45864 0.16236 0.15355 0.0
H3396 H 0.4212 0.20419 0.11112 0.0
H3397 H 0.44699 0.182 0.12606 0.0
H3398 H 0.40518 0.13155 0.12223 0.0
H3399 H 0.38021 0.15346 0.10636 0.0
C3400 C 0.45998 0.10716 0.13349 0.0
C3401 C 0.47461 0.11352 0.14765 0.0
C3402 C 0.44526 0.12054 0.12629 0.0
C3403 C 0.44435 0.14069 0.13326 0.0
C3404 C 0.4589 0.14706 0.14761 0.0
C3405 C 0.47394 0.13367 0.15462 0.0
C3406 C 0.41764 0.18834 0.11356 0.0
C3407 C 0.39882 0.18048 0.1074 0.0
C3408 C 0.43235 0.17561 0.12224 0.0
C3409 C 0.42841 0.15479 0.12522 0.0
C3410 C 0.40918 0.14726 0.11967 0.0
C3411 C 0.39473 0.15986 0.11065 0.0
H3412 H 0.39517 0.86748 0.42904 0.0
H3413 H 0.41914 0.81687 0.39508 0.0
H3414 H 0.42004 0.88966 0.4136 0.0
H3415 H 0.44303 0.83943 0.37836 0.0
H3416 H 0.49741 0.88241 0.36813 0.0
H3417 H 0.47276 0.85872 0.38226 0.0
H3418 H 0.42786 0.90648 0.38357 0.0
H3419 H 0.45278 0.93025 0.3704 0.0
C3420 C 0.40558 0.86105 0.41808 0.0
C3421 C 0.40461 0.84036 0.41297 0.0
C3422 C 0.41974 0.87391 0.40896 0.0
C3423 C 0.4334 0.86657 0.3943 0.0
C3424 C 0.43278 0.84575 0.38951 0.0
C3425 C 0.41871 0.8328 0.39885 0.0
C3426 C 0.4822 0.88777 0.37125 0.0
C3427 C 0.47712 0.90827 0.36824 0.0
C3428 C 0.46799 0.87415 0.37933 0.0
C3429 C 0.44826 0.88062 0.38438 0.0
C3430 C 0.44301 0.90096 0.38047 0.0
C3431 C 0.45727 0.91461 0.37269 0.0
H3432 H 0.12948 0.28185 0.91377 0.0
H3433 H 0.17643 0.31062 0.87818 0.0
H3434 H 0.10457 0.3058 0.89993 0.0
H3435 H 0.1516 0.33411 0.86433 0.0
H3436 H 0.09819 0.35597 0.82593 0.0
H3437 H 0.12088 0.33075 0.84085 0.0
H3438 H 0.09782 0.34499 0.90036 0.0
H3439 H 0.07576 0.37078 0.88563 0.0
C3440 C 0.13453 0.29331 0.90314 0.0
C3441 C 0.155 0.29429 0.89715 0.0
C3442 C 0.12026 0.307 0.89522 0.0
C3443 C 0.12611 0.32168 0.88089 0.0
C3444 C 0.14658 0.32279 0.87513 0.0
C3445 C 0.16084 0.30939 0.88323 0.0
C3446 C 0.09776 0.35356 0.84217 0.0
C3447 C 0.08467 0.36505 0.85445 0.0
C3448 C 0.1108 0.33916 0.85072 0.0
C3449 C 0.11107 0.33585 0.87177 0.0
C3450 C 0.09769 0.34697 0.88406 0.0
C3451 C 0.08482 0.36159 0.87553 0.0
H3452 H 0.6263 0.65511 0.42777 0.0
H3453 H 0.60129 0.70649 0.39576 0.0
H3454 H 0.60145 0.63313 0.41193 0.0
H3455 H 0.57732 0.6842 0.37868 0.0
H3456 H 0.52302 0.64052 0.36909 0.0
H3457 H 0.54777 0.6643 0.38295 0.0
H3458 H 0.59363 0.61749 0.38104 0.0
H3459 H 0.56867 0.59361 0.36808 0.0
C3460 C 0.61564 0.66175 0.41717 0.0
C3461 C 0.61628 0.68258 0.41269 0.0
C3462 C 0.6015 0.64903 0.40783 0.0
C3463 C 0.58755 0.6567 0.3936 0.0
C3464 C 0.58783 0.67766 0.38947 0.0
C3465 C 0.6019 0.69045 0.39902 0.0
C3466 C 0.53847 0.63542 0.37137 0.0
C3467 C 0.54383 0.61512 0.36762 0.0
C3468 C 0.55271 0.64908 0.37932 0.0
C3469 C 0.57272 0.64282 0.38348 0.0
C3470 C 0.57826 0.62277 0.37864 0.0
C3471 C 0.56399 0.60908 0.37099 0.0
H3472 H 0.38992 0.74781 0.40034 0.0
H3473 H 0.34245 0.70269 0.40107 0.0
H3474 H 0.41334 0.72296 0.38613 0.0
H3475 H 0.36598 0.67761 0.3878 0.0
H3476 H 0.40355 0.6442 0.34162 0.0
H3477 H 0.38171 0.66931 0.35721 0.0
H3478 H 0.43297 0.69344 0.39023 0.0
H3479 H 0.4551 0.66928 0.37335 0.0
C3480 C 0.38461 0.73245 0.3979 0.0
C3481 C 0.36427 0.72728 0.40173 0.0
C3482 C 0.39807 0.71814 0.38976 0.0
C3483 C 0.39158 0.69823 0.38548 0.0
C3484 C 0.37146 0.69289 0.39029 0.0
C3485 C 0.35797 0.70724 0.39813 0.0
C3486 C 0.41025 0.65492 0.35211 0.0
C3487 C 0.4311 0.6542 0.35659 0.0
C3488 C 0.39761 0.66922 0.36132 0.0
C3489 C 0.40537 0.68325 0.37542 0.0
C3490 C 0.42634 0.6829 0.37953 0.0
C3491 C 0.43905 0.66868 0.37011 0.0
H3492 H 0.13926 0.86829 0.60613 0.0
H3493 H 0.09808 0.81779 0.61163 0.0
H3494 H 0.11461 0.8904 0.62222 0.0
H3495 H 0.07263 0.84015 0.62681 0.0
H3496 H 0.03567 0.88305 0.66698 0.0
H3497 H 0.06173 0.85976 0.65454 0.0
H3498 H 0.08486 0.90705 0.61543 0.0
H3499 H 0.05983 0.93029 0.62858 0.0
C3500 C 0.12476 0.86199 0.61061 0.0
C3501 C 0.12053 0.84138 0.60755 0.0
C3502 C 0.1105 0.8747 0.61976 0.0
C3503 C 0.09134 0.86727 0.62564 0.0
C3504 C 0.08724 0.84647 0.62276 0.0
C3505 C 0.10175 0.83363 0.61395 0.0
C3506 C 0.04652 0.88847 0.65592 0.0
C3507 C 0.04575 0.90863 0.64898 0.0
C3508 C 0.06138 0.87506 0.64861 0.0
C3509 C 0.07563 0.88142 0.63398 0.0
C3510 C 0.07465 0.90159 0.62706 0.0
C3511 C 0.0601 0.91499 0.63456 0.0
H3512 H 0.09427 0.63599 0.63496 0.0
H3513 H 0.08051 0.67849 0.68267 0.0
H3514 H 0.1167 0.66083 0.6191 0.0
H3515 H 0.10297 0.70359 0.66669 0.0
H3516 H 0.13071 0.74863 0.61985 0.0
H3517 H 0.10575 0.72438 0.63285 0.0
H3518 H 0.15063 0.67684 0.63035 0.0
H3519 H 0.17568 0.70105 0.61771 0.0
C3520 C 0.09568 0.65082 0.6418 0.0
C3521 C 0.08533 0.65548 0.65982 0.0
C3522 C 0.1087 0.66497 0.63284 0.0
C3523 C 0.11152 0.68418 0.6416 0.0
C3524 C 0.1009 0.68898 0.65947 0.0
C3525 C 0.08813 0.67465 0.66864 0.0
C3526 C 0.13518 0.73295 0.6218 0.0
C3527 C 0.1552 0.72677 0.6177 0.0
C3528 C 0.12093 0.71912 0.62941 0.0
C3529 C 0.12626 0.69875 0.63267 0.0
C3530 C 0.14605 0.69242 0.62788 0.0
C3531 C 0.1604 0.7063 0.62066 0.0
H3532 H 0.89045 0.77316 0.61861 0.0
H3533 H 0.84382 0.81908 0.62058 0.0
H3534 H 0.91476 0.79723 0.63282 0.0
H3535 H 0.86817 0.84332 0.63393 0.0
H3536 H 0.90726 0.87426 0.68052 0.0
H3537 H 0.88479 0.84985 0.6647 0.0
H3538 H 0.93468 0.82702 0.62889 0.0
H3539 H 0.95752 0.85059 0.64586 0.0
C3540 C 0.88549 0.78851 0.62166 0.0
C3541 C 0.86513 0.79413 0.61859 0.0
C3542 C 0.89946 0.80237 0.6298 0.0
C3543 C 0.89344 0.82223 0.63488 0.0
C3544 C 0.8733 0.82804 0.63081 0.0
C3545 C 0.85933 0.81416 0.62294 0.0
C3546 C 0.91355 0.86398 0.66937 0.0
C3547 C 0.93421 0.86489 0.66414 0.0
C3548 C 0.90054 0.85009 0.66004 0.0
C3549 C 0.90771 0.83666 0.64509 0.0
C3550 C 0.92851 0.83715 0.64024 0.0
C3551 C 0.94162 0.85099 0.64975 0.0
H3552 H 0.65092 0.95136 0.5912 0.0
H3553 H 0.65076 0.99645 0.63865 0.0
H3554 H 0.63816 0.9262 0.61495 0.0
H3555 H 0.63704 0.97154 0.6623 0.0
H3556 H 0.62443 0.91799 0.70421 0.0
H3557 H 0.64129 0.94202 0.6819 0.0
H3558 H 0.60773 0.91794 0.63098 0.0
H3559 H 0.59217 0.89297 0.65297 0.0
C3560 C 0.64822 0.95588 0.60676 0.0
C3561 C 0.6518 0.97594 0.61299 0.0
C3562 C 0.64067 0.94149 0.62038 0.0
C3563 C 0.63613 0.94681 0.64056 0.0
C3564 C 0.64046 0.96673 0.64698 0.0
C3565 C 0.64831 0.98108 0.63339 0.0
C3566 C 0.62107 0.91737 0.6882 0.0
C3567 C 0.60739 0.90296 0.68039 0.0
C3568 C 0.63049 0.93151 0.67538 0.0
C3569 C 0.6262 0.93184 0.65445 0.0
C3570 C 0.61198 0.91786 0.64684 0.0
C3571 C 0.60278 0.90364 0.65958 0.0
H3572 H 0.23567 0.10247 0.63244 0.0
H3573 H 0.20996 0.13977 0.67971 0.0
H3574 H 0.21001 0.11504 0.60873 0.0
H3575 H 0.18541 0.15312 0.65611 0.0
H3576 H 0.13222 0.16373 0.61624 0.0
H3577 H 0.15623 0.14702 0.6386 0.0
H3578 H 0.19909 0.14258 0.58913 0.0
H3579 H 0.17417 0.15827 0.56646 0.0
C3580 C 0.22455 0.11331 0.63779 0.0
C3581 C 0.22479 0.11989 0.65808 0.0
C3582 C 0.20992 0.12071 0.62413 0.0
C3583 C 0.19537 0.13511 0.63036 0.0
C3584 C 0.19582 0.14166 0.65068 0.0
C3585 C 0.21011 0.13404 0.66432 0.0
C3586 C 0.14677 0.15912 0.61017 0.0
C3587 C 0.15142 0.16244 0.58969 0.0
C3588 C 0.16068 0.14962 0.62303 0.0
C3589 C 0.17995 0.14366 0.61594 0.0
C3590 C 0.18443 0.14671 0.59523 0.0
C3591 C 0.17023 0.15584 0.58221 0.0
H3592 H 0.40871 0.59591 0.70312 0.0
H3593 H 0.4143 0.63646 0.65215 0.0
H3594 H 0.39378 0.57009 0.68096 0.0
H3595 H 0.39848 0.61144 0.63025 0.0
H3596 H 0.39276 0.55635 0.59086 0.0
H3597 H 0.40569 0.58156 0.61403 0.0
H3598 H 0.36627 0.55865 0.66116 0.0
H3599 H 0.35402 0.5324 0.63793 0.0
C3600 C 0.40646 0.59937 0.68722 0.0
C3601 C 0.41283 0.61809 0.67929 0.0
C3602 C 0.3978 0.58463 0.6745 0.0
C3603 C 0.39505 0.58844 0.65362 0.0
C3604 C 0.40085 0.60755 0.64602 0.0
C3605 C 0.40984 0.62203 0.65861 0.0
C3606 C 0.38667 0.5567 0.60611 0.0
C3607 C 0.37219 0.54237 0.61243 0.0
C3608 C 0.39405 0.57135 0.61948 0.0
C3609 C 0.38694 0.57249 0.63957 0.0
C3610 C 0.37232 0.55821 0.64591 0.0
C3611 C 0.36513 0.54324 0.63254 0.0
H3612 H 0.8447 0.36042 0.56542 0.0
H3613 H 0.88436 0.34975 0.61628 0.0
H3614 H 0.81965 0.3758 0.5881 0.0
H3615 H 0.86025 0.36611 0.63876 0.0
H3616 H 0.80595 0.37518 0.67844 0.0
H3617 H 0.83015 0.36107 0.6549 0.0
H3618 H 0.80968 0.40286 0.60866 0.0
H3619 H 0.78432 0.41622 0.63223 0.0
C3620 C 0.8481 0.36159 0.58144 0.0
C3621 C 0.86632 0.3537 0.58916 0.0
C3622 C 0.83384 0.37054 0.59447 0.0
C3623 C 0.83766 0.37212 0.61547 0.0
C3624 C 0.85629 0.36469 0.6229 0.0
C3625 C 0.87025 0.35537 0.60998 0.0
C3626 C 0.80665 0.38153 0.6633 0.0
C3627 C 0.79326 0.397 0.65732 0.0
C3628 C 0.82072 0.37346 0.64972 0.0
C3629 C 0.82226 0.38089 0.62975 0.0
C3630 C 0.8089 0.39651 0.62377 0.0
C3631 C 0.79445 0.40434 0.63734 0.0
H3632 H 0.63024 0.05847 0.92952 0.0
H3633 H 0.66707 0.03257 0.88199 0.0
H3634 H 0.61667 0.08295 0.90595 0.0
H3635 H 0.65419 0.05809 0.85828 0.0
H3636 H 0.61066 0.09461 0.81667 0.0
H3637 H 0.62603 0.06923 0.83908 0.0
H3638 H 0.62385 0.11221 0.88859 0.0
H3639 H 0.60759 0.13676 0.86653 0.0
C3640 C 0.63578 0.05823 0.91406 0.0
C3641 C 0.64993 0.04359 0.90775 0.0
C3642 C 0.62804 0.07246 0.90046 0.0
C3643 C 0.63444 0.07285 0.88011 0.0
C3644 C 0.6487 0.05823 0.87374 0.0
C3645 C 0.65625 0.04368 0.88738 0.0
C3646 C 0.61352 0.09848 0.83237 0.0
C3647 C 0.60772 0.11751 0.83995 0.0
C3648 C 0.62245 0.08402 0.84522 0.0
C3649 C 0.62603 0.08844 0.86585 0.0
C3650 C 0.62081 0.10786 0.87306 0.0
C3651 C 0.61156 0.12206 0.86037 0.0
H3652 H 0.38693 0.16456 0.40442 0.0
H3653 H 0.34507 0.15904 0.4543 0.0
H3654 H 0.36279 0.14801 0.38206 0.0
H3655 H 0.32006 0.14347 0.43164 0.0
H3656 H 0.28357 0.10329 0.38828 0.0
H3657 H 0.30929 0.1158 0.41196 0.0
H3658 H 0.33344 0.15444 0.36479 0.0
H3659 H 0.30879 0.14119 0.3412 0.0
C3660 C 0.37237 0.15997 0.41052 0.0
C3661 C 0.36778 0.16322 0.43102 0.0
C3662 C 0.3584 0.15056 0.39767 0.0
C3663 C 0.33915 0.14461 0.4048 0.0
C3664 C 0.33472 0.14759 0.42552 0.0
C3665 C 0.34897 0.15665 0.43853 0.0
C3666 C 0.2946 0.11424 0.38297 0.0
C3667 C 0.29421 0.12102 0.36274 0.0
C3668 C 0.30925 0.1216 0.3966 0.0
C3669 C 0.32369 0.13613 0.39041 0.0
C3670 C 0.3231 0.14288 0.37016 0.0
C3671 C 0.30876 0.13532 0.35654 0.0
H3672 H 0.42907 0.39344 0.86693 0.0
H3673 H 0.39661 0.41794 0.81557 0.0
H3674 H 0.41342 0.41846 0.88878 0.0
H3675 H 0.37971 0.44208 0.83776 0.0
H3676 H 0.36946 0.49641 0.88113 0.0
H3677 H 0.38375 0.47177 0.85748 0.0
H3678 H 0.38267 0.42619 0.90459 0.0
H3679 H 0.36931 0.45101 0.9283 0.0
C3680 C 0.41841 0.40401 0.86027 0.0
C3681 C 0.41375 0.40315 0.83947 0.0
C3682 C 0.40917 0.41827 0.87292 0.0
C3683 C 0.39486 0.43212 0.86524 0.0
C3684 C 0.39057 0.43165 0.84432 0.0
C3685 C 0.40002 0.41746 0.83158 0.0
C3686 C 0.37207 0.48105 0.88633 0.0
C3687 C 0.36838 0.47573 0.90666 0.0
C3688 C 0.38025 0.46687 0.87275 0.0
C3689 C 0.38472 0.44696 0.87911 0.0
C3690 C 0.38004 0.44148 0.89921 0.0
C3691 C 0.37216 0.45569 0.91281 0.0
H3692 H 0.64557 0.33928 0.40294 0.0
H3693 H 0.6692 0.37292 0.45394 0.0
H3694 H 0.67085 0.35467 0.38111 0.0
H3695 H 0.69354 0.38952 0.43177 0.0
H3696 H 0.74835 0.39964 0.38907 0.0
H3697 H 0.72352 0.38545 0.4126 0.0
H3698 H 0.6786 0.38517 0.3648 0.0
H3699 H 0.70363 0.39845 0.34124 0.0
C3700 C 0.65601 0.35013 0.40952 0.0
C3701 C 0.65482 0.35523 0.43018 0.0
C3702 C 0.67041 0.35921 0.39688 0.0
C3703 C 0.68407 0.37378 0.40446 0.0
C3704 C 0.68328 0.37847 0.42528 0.0
C3705 C 0.66896 0.36919 0.43799 0.0
C3706 C 0.73309 0.39676 0.38369 0.0
C3707 C 0.72802 0.40004 0.36323 0.0
C3708 C 0.7188 0.38863 0.3972 0.0
C3709 C 0.69903 0.3838 0.39062 0.0
C3710 C 0.69379 0.38807 0.37037 0.0
C3711 C 0.70811 0.39591 0.35685 0.0
H3712 H 0.65241 0.60492 0.8815 0.0
H3713 H 0.70279 0.61105 0.92275 0.0
H3714 H 0.63017 0.62121 0.9059 0.0
H3715 H 0.68029 0.6264 0.94798 0.0
H3716 H 0.6373 0.66646 0.98475 0.0
H3717 H 0.6606 0.65402 0.95872 0.0
H3718 H 0.61331 0.61488 0.93554 0.0
H3719 H 0.59005 0.62804 0.96054 0.0
C3720 C 0.65865 0.60958 0.89597 0.0
C3721 C 0.67927 0.60662 0.90029 0.0
C3722 C 0.64587 0.61884 0.91009 0.0
C3723 C 0.65321 0.62495 0.92922 0.0
C3724 C 0.67402 0.62218 0.9334 0.0
C3725 C 0.68694 0.61325 0.91902 0.0
C3726 C 0.63187 0.6554 0.97387 0.0
C3727 C 0.61171 0.64843 0.97467 0.0
C3728 C 0.6453 0.64809 0.95904 0.0
C3729 C 0.63897 0.63342 0.9448 0.0
C3730 C 0.61877 0.62653 0.94574 0.0
C3731 C 0.60535 0.63404 0.96027 0.0
H3732 H 0.83771 0.07874 0.34099 0.0
H3733 H 0.88523 0.09266 0.38373 0.0
H3734 H 0.85401 0.10084 0.3158 0.0
H3735 H 0.90144 0.11471 0.35876 0.0
H3736 H 0.90281 0.17357 0.31835 0.0
H3737 H 0.89043 0.14848 0.34262 0.0
H3738 H 0.88777 0.10358 0.2951 0.0
H3739 H 0.90051 0.12861 0.27077 0.0
C3740 C 0.85179 0.08629 0.34485 0.0
C3741 C 0.86045 0.08367 0.36412 0.0
C3742 C 0.86114 0.09885 0.33047 0.0
C3743 C 0.87905 0.10942 0.3353 0.0
C3744 C 0.88769 0.10674 0.3546 0.0
C3745 C 0.87852 0.09394 0.36881 0.0
C3746 C 0.89989 0.15827 0.31312 0.0
C3747 C 0.90269 0.15309 0.29263 0.0
C3748 C 0.89283 0.14389 0.32703 0.0
C3749 C 0.88804 0.1241 0.32073 0.0
C3750 C 0.89122 0.11876 0.30034 0.0
C3751 C 0.89867 0.13305 0.28647 0.0
H3752 H 0.31802 0.90846 0.92558 0.0
H3753 H 0.36866 0.91609 0.88498 0.0
H3754 H 0.34059 0.89328 0.95089 0.0
H3755 H 0.39099 0.9 0.90944 0.0
H3756 H 0.43095 0.89264 0.96402 0.0
H3757 H 0.40749 0.90617 0.93934 0.0
H3758 H 0.36071 0.86586 0.96146 0.0
H3759 H 0.3842 0.85305 0.98718 0.0
C3760 C 0.33394 0.90663 0.92201 0.0
C3761 C 0.34164 0.91363 0.90343 0.0
C3762 C 0.34691 0.89781 0.93644 0.0
C3763 C 0.36782 0.89551 0.93246 0.0
C3764 C 0.37521 0.902 0.91349 0.0
C3765 C 0.36237 0.91115 0.89933 0.0
C3766 C 0.41571 0.88649 0.96359 0.0
C3767 C 0.40956 0.87161 0.97756 0.0
C3768 C 0.40218 0.89421 0.94924 0.0
C3769 C 0.38208 0.88705 0.94806 0.0
C3770 C 0.37593 0.87199 0.96196 0.0
C3771 C 0.38946 0.86447 0.97662 0.0
H3772 H 0.15856 0.45243 0.34654 0.0
H3773 H 0.16524 0.40174 0.38725 0.0
H3774 H 0.14271 0.43019 0.32137 0.0
H3775 H 0.14839 0.37976 0.36297 0.0
H3776 H 0.14047 0.34001 0.30836 0.0
H3777 H 0.15417 0.36311 0.33319 0.0
H3778 H 0.11497 0.41067 0.31073 0.0
H3779 H 0.10202 0.3875 0.28478 0.0
C3780 C 0.15637 0.43656 0.35016 0.0
C3781 C 0.16332 0.42872 0.3687 0.0
C3782 C 0.14715 0.4238 0.33582 0.0
C3783 C 0.14437 0.40297 0.33989 0.0
C3784 C 0.15076 0.39547 0.35886 0.0
C3785 C 0.16035 0.4081 0.37291 0.0
C3786 C 0.13457 0.35534 0.30875 0.0
C3787 C 0.12 0.36181 0.29459 0.0
C3788 C 0.14239 0.36867 0.32319 0.0
C3789 C 0.13562 0.38888 0.32431 0.0
C3790 C 0.1208 0.39534 0.31028 0.0
C3791 C 0.1132 0.382 0.29549 0.0
H3792 H 0.59412 0.36992 0.56655 0.0
H3793 H 0.64031 0.3705 0.52013 0.0
H3794 H 0.61885 0.38235 0.59125 0.0
H3795 H 0.66494 0.38333 0.54484 0.0
H3796 H 0.68979 0.43344 0.59077 0.0
H3797 H 0.66762 0.41755 0.56535 0.0
H3798 H 0.65243 0.37043 0.60816 0.0
H3799 H 0.6747 0.38617 0.63335 0.0
C3800 C 0.60959 0.37252 0.56166 0.0
C3801 C 0.61524 0.36916 0.54137 0.0
C3802 C 0.62375 0.3796 0.57582 0.0
C3803 C 0.64379 0.38388 0.56995 0.0
C3804 C 0.64956 0.38026 0.54975 0.0
C3805 C 0.63549 0.37277 0.53566 0.0
C3806 C 0.68192 0.41952 0.59456 0.0
C3807 C 0.68423 0.4108 0.61384 0.0
C3808 C 0.66931 0.41041 0.58005 0.0
C3809 C 0.65836 0.3927 0.58477 0.0
C3810 C 0.66069 0.38404 0.6041 0.0
C3811 C 0.67358 0.39293 0.61844 0.0
H3812 H 0.62016 0.13001 0.74644 0.0
H3813 H 0.62028 0.17754 0.70142 0.0
H3814 H 0.63427 0.10648 0.72168 0.0
H3815 H 0.63344 0.15389 0.67639 0.0
H3816 H 0.67933 0.1158 0.64316 0.0
H3817 H 0.66381 0.13781 0.66816 0.0
H3818 H 0.63026 0.08689 0.69222 0.0
H3819 H 0.64708 0.06458 0.66819 0.0
C3820 C 0.62276 0.13532 0.73112 0.0
C3821 C 0.61919 0.15571 0.72596 0.0
C3822 C 0.63084 0.12179 0.71685 0.0
C3823 C 0.63533 0.12824 0.69698 0.0
C3824 C 0.63079 0.14843 0.69164 0.0
C3825 C 0.62301 0.16199 0.70596 0.0
C3826 C 0.66874 0.1092 0.65384 0.0
C3827 C 0.6641 0.0884 0.65314 0.0
C3828 C 0.65957 0.12195 0.66808 0.0
C3829 C 0.64534 0.11434 0.68206 0.0
C3830 C 0.64106 0.09341 0.68172 0.0
C3831 C 0.65046 0.08059 0.66758 0.0
H3832 H 0.36492 0.10683 0.63756 0.0
H3833 H 0.31514 0.11133 0.59542 0.0
H3834 H 0.38715 0.12357 0.61346 0.0
H3835 H 0.3377 0.12706 0.57042 0.0
H3836 H 0.38088 0.16752 0.53385 0.0
H3837 H 0.35713 0.15483 0.55941 0.0
H3838 H 0.40467 0.11714 0.58435 0.0
H3839 H 0.42829 0.13058 0.55988 0.0
C3840 C 0.35882 0.11123 0.62294 0.0
C3841 C 0.33839 0.10762 0.61826 0.0
C3842 C 0.3716 0.12074 0.60899 0.0
C3843 C 0.36448 0.12644 0.58966 0.0
C3844 C 0.34381 0.12312 0.58514 0.0
C3845 C 0.33086 0.11397 0.59938 0.0
C3846 C 0.38624 0.15674 0.54501 0.0
C3847 C 0.40659 0.1503 0.54491 0.0
C3848 C 0.37257 0.14928 0.55959 0.0
C3849 C 0.37886 0.13498 0.57422 0.0
C3850 C 0.39921 0.12854 0.57387 0.0
C3851 C 0.41286 0.13621 0.55964 0.0
H3852 H 0.34045 0.40396 0.64635 0.0
H3853 H 0.37536 0.45436 0.66946 0.0
H3854 H 0.35631 0.38169 0.67095 0.0
H3855 H 0.39236 0.43174 0.69316 0.0
H3856 H 0.40251 0.38861 0.74761 0.0
H3857 H 0.38833 0.41244 0.72312 0.0
H3858 H 0.38692 0.36497 0.67793 0.0
H3859 H 0.40024 0.34106 0.70264 0.0
C3860 C 0.35167 0.41031 0.65654 0.0
C3861 C 0.35695 0.43094 0.65544 0.0
C3862 C 0.36102 0.39742 0.67053 0.0
C3863 C 0.37602 0.40472 0.68386 0.0
C3864 C 0.38095 0.42549 0.68314 0.0
C3865 C 0.37143 0.43846 0.66921 0.0
C3866 C 0.39941 0.38334 0.73236 0.0
C3867 C 0.4024 0.36288 0.72714 0.0
C3868 C 0.39129 0.39704 0.71826 0.0
C3869 C 0.38615 0.39065 0.69853 0.0
C3870 C 0.39011 0.37038 0.6931 0.0
C3871 C 0.39797 0.35667 0.70724 0.0
H3872 H 0.96027 0.5903 0.62815 0.0
H3873 H 0.98575 0.6375 0.66577 0.0
H3874 H 0.93537 0.61377 0.61519 0.0
H3875 H 0.95979 0.66105 0.65356 0.0
H3876 H 0.92333 0.70318 0.61073 0.0
H3877 H 0.94864 0.68064 0.62594 0.0
H3878 H 0.90601 0.63088 0.62208 0.0
H3879 H 0.88154 0.65312 0.60589 0.0
C3880 C 0.96031 0.60565 0.63402 0.0
C3881 C 0.97501 0.61192 0.64815 0.0
C3882 C 0.94583 0.61919 0.62663 0.0
C3883 C 0.94524 0.63943 0.63339 0.0
C3884 C 0.95982 0.6457 0.64775 0.0
C3885 C 0.97463 0.63214 0.65493 0.0
C3886 C 0.9195 0.6874 0.6132 0.0
C3887 C 0.90061 0.67981 0.60694 0.0
C3888 C 0.93393 0.67446 0.62205 0.0
C3889 C 0.92961 0.65373 0.62512 0.0
C3890 C 0.9103 0.6465 0.61945 0.0
C3891 C 0.89614 0.65929 0.61025 0.0
H3892 H 0.88126 0.36892 0.91441 0.0
H3893 H 0.92286 0.31887 0.90848 0.0
H3894 H 0.90532 0.39118 0.89762 0.0
H3895 H 0.94777 0.3414 0.89264 0.0
H3896 H 0.98397 0.38423 0.85193 0.0
H3897 H 0.95817 0.36086 0.86475 0.0
H3898 H 0.93487 0.40837 0.90347 0.0
H3899 H 0.95962 0.43167 0.88993 0.0
C3900 C 0.89574 0.36276 0.90969 0.0
C3901 C 0.90026 0.34223 0.91285 0.0
C3902 C 0.90967 0.37556 0.90013 0.0
C3903 C 0.9288 0.36832 0.89393 0.0
C3904 C 0.93318 0.34759 0.89691 0.0
C3905 C 0.91898 0.33465 0.90612 0.0
C3906 C 0.97311 0.38969 0.86297 0.0
C3907 C 0.9738 0.40992 0.86971 0.0
C3908 C 0.9584 0.37623 0.8705 0.0
C3909 C 0.94421 0.38259 0.88519 0.0
C3910 C 0.94503 0.40286 0.89183 0.0
C3911 C 0.95942 0.41632 0.88409 0.0
H3912 H 0.67777 0.81937 0.39836 0.0
H3913 H 0.63019 0.77438 0.40009 0.0
H3914 H 0.65402 0.84407 0.38481 0.0
H3915 H 0.60648 0.79891 0.38568 0.0
H3916 H 0.56484 0.85302 0.37271 0.0
H3917 H 0.58719 0.82901 0.38963 0.0
H3918 H 0.63759 0.85112 0.35408 0.0
H3919 H 0.61559 0.87601 0.3383 0.0
C3920 C 0.66218 0.81475 0.3959 0.0
C3921 C 0.65593 0.79485 0.40026 0.0
C3922 C 0.64856 0.8289 0.38791 0.0
C3923 C 0.62832 0.82349 0.38373 0.0
C3924 C 0.62186 0.80375 0.38878 0.0
C3925 C 0.63549 0.78963 0.39704 0.0
C3926 C 0.58076 0.85318 0.36888 0.0
C3927 C 0.58845 0.86703 0.35457 0.0
C3928 C 0.59357 0.83907 0.37835 0.0
C3929 C 0.61437 0.83823 0.37355 0.0
C3930 C 0.62184 0.85162 0.35869 0.0
C3931 C 0.6091 0.86579 0.34939 0.0
H3932 H 0.12392 0.15606 0.92978 0.0
H3933 H 0.10025 0.20626 0.89499 0.0
H3934 H 0.09913 0.1337 0.91439 0.0
H3935 H 0.07644 0.18352 0.87835 0.0
H3936 H 0.02209 0.1404 0.86843 0.0
H3937 H 0.04665 0.16427 0.88243 0.0
H3938 H 0.09168 0.11665 0.88429 0.0
H3939 H 0.06685 0.0927 0.87123 0.0
C3940 C 0.11358 0.16235 0.91866 0.0
C3941 C 0.1146 0.18296 0.91328 0.0
C3942 C 0.09948 0.14939 0.90958 0.0
C3943 C 0.08595 0.15658 0.89471 0.0
C3944 C 0.0866 0.17733 0.88967 0.0
C3945 C 0.10061 0.19037 0.89897 0.0
C3946 C 0.03731 0.13511 0.87162 0.0
C3947 C 0.04246 0.1146 0.86883 0.0
C3948 C 0.05146 0.14883 0.87963 0.0
C3949 C 0.07118 0.14243 0.88482 0.0
C3950 C 0.07652 0.12209 0.88108 0.0
C3951 C 0.06232 0.10835 0.87337 0.0
H3952 H 0.84302 0.20284 0.90073 0.0
H3953 H 0.89006 0.24843 0.90066 0.0
H3954 H 0.86673 0.17821 0.88703 0.0
H3955 H 0.91374 0.22392 0.88611 0.0
H3956 H 0.95548 0.16978 0.87289 0.0
H3957 H 0.93341 0.19389 0.89004 0.0
H3958 H 0.88232 0.17124 0.85575 0.0
H3959 H 0.90407 0.1463 0.83972 0.0
C3960 C 0.85849 0.20759 0.89785 0.0
C3961 C 0.8646 0.22765 0.90171 0.0
C3962 C 0.87208 0.19349 0.88978 0.0
C3963 C 0.89213 0.19909 0.88502 0.0
C3964 C 0.89849 0.21896 0.88965 0.0
C3965 C 0.8849 0.23306 0.89799 0.0
C3966 C 0.93947 0.16954 0.86938 0.0
C3967 C 0.93151 0.15554 0.85537 0.0
C3968 C 0.92682 0.1837 0.87898 0.0
C3969 C 0.90592 0.18438 0.87462 0.0
C3970 C 0.89818 0.17086 0.86003 0.0
C3971 C 0.91076 0.15666 0.85059 0.0
H3972 H 0.56762 0.4286 0.14992 0.0
H3973 H 0.52272 0.38095 0.152 0.0
H3974 H 0.59233 0.40482 0.1364 0.0
H3975 H 0.5472 0.35726 0.13763 0.0
H3976 H 0.60085 0.31552 0.12433 0.0
H3977 H 0.57718 0.33801 0.1415 0.0
H3978 H 0.59923 0.38828 0.10569 0.0
H3979 H 0.62382 0.36612 0.08967 0.0
C3980 C 0.56304 0.413 0.14757 0.0
C3981 C 0.54316 0.40672 0.152 0.0
C3982 C 0.57717 0.39936 0.1396 0.0
C3983 C 0.57176 0.37911 0.13552 0.0
C3984 C 0.55205 0.37264 0.14067 0.0
C3985 C 0.53796 0.38626 0.14891 0.0
C3986 C 0.60107 0.33145 0.12049 0.0
C3987 C 0.6148 0.33906 0.10604 0.0
C3988 C 0.58716 0.34434 0.13011 0.0
C3989 C 0.5864 0.36513 0.12529 0.0
C3990 C 0.59968 0.37253 0.11031 0.0
C3991 C 0.61366 0.35971 0.10087 0.0
H3992 H 0.67716 0.21542 0.14438 0.0
H3993 H 0.6314 0.23765 0.10312 0.0
H3994 H 0.65344 0.19099 0.15783 0.0
H3995 H 0.60764 0.21212 0.11588 0.0
H3996 H 0.56415 0.17631 0.15779 0.0
H3997 H 0.58686 0.20171 0.14295 0.0
H3998 H 0.63747 0.16083 0.15147 0.0
H3999 H 0.61499 0.13631 0.16719 0.0
C4000 C 0.66208 0.21484 0.13787 0.0
C4001 C 0.6563 0.22844 0.1225 0.0
C4002 C 0.6484 0.20063 0.14554 0.0
C4003 C 0.62853 0.1992 0.13785 0.0
C4004 C 0.62269 0.21281 0.1224 0.0
C4005 C 0.63638 0.22736 0.11492 0.0
C4006 C 0.58016 0.1729 0.15644 0.0
C4007 C 0.58786 0.15447 0.16383 0.0
C4008 C 0.5932 0.18738 0.14782 0.0
C4009 C 0.61419 0.18358 0.14612 0.0
C4010 C 0.62161 0.16475 0.15301 0.0
C4011 C 0.60868 0.15055 0.16196 0.0
H4012 H 0.40342 0.37664 0.17873 0.0
H4013 H 0.45492 0.35131 0.14719 0.0
H4014 H 0.38142 0.3519 0.16276 0.0
H4015 H 0.43261 0.32741 0.13 0.0
H4016 H 0.38823 0.27366 0.11966 0.0
H4017 H 0.41222 0.29798 0.13401 0.0
H4018 H 0.36615 0.34456 0.13152 0.0
H4019 H 0.3421 0.32008 0.11807 0.0
C4020 C 0.41009 0.36592 0.16822 0.0
C4021 C 0.43096 0.36646 0.16388 0.0
C4022 C 0.39736 0.35184 0.1588 0.0
C4023 C 0.40506 0.33786 0.14464 0.0
C4024 C 0.42605 0.33797 0.14072 0.0
C4025 C 0.43886 0.352 0.15033 0.0
C4026 C 0.38334 0.28917 0.12194 0.0
C4027 C 0.36319 0.29488 0.11788 0.0
C4028 C 0.39712 0.30316 0.13016 0.0
C4029 C 0.3911 0.32324 0.1343 0.0
C4030 C 0.37123 0.32912 0.12916 0.0
C4031 C 0.35744 0.31511 0.12123 0.0
loop_
_geom_bond_atom_site_label_1
_geom_bond_atom_site_label_2
_geom_bond_distance
_geom_bond_site_symmetry_2
_ccdc_geom_bond_type
Co0 O3 1.970 . S
Co0 N17 1.989 . S
Co0 O25 1.967 . S
Co0 O32 1.920 . S
Co1 O4 1.966 . S
Co1 N10 2.022 . S
Co1 N18 1.993 . S
Co1 O26 1.941 . S
C2 O3 1.258 . S
C2 O4 1.263 . S
O3 Co0 1.970 . S
O3 C2 1.258 . S
O4 Co1 1.966 . S
O4 C2 1.263 . S
C5 O6 1.235 . S
C5 O32 1.289 . S
O6 C5 1.235 . S
C7 C9 1.400 . S
C7 N10 1.351 . S
C7 C12 1.501 . S
C8 C9 1.387 . S
C8 N11 1.341 . S
C9 C7 1.400 . S
C9 C8 1.387 . S
N10 Co1 2.022 . S
N10 C7 1.351 . S
N10 N11 1.365 . S
N11 C8 1.341 . S
N11 N10 1.365 . S
N11 H31 0.862 . S
C12 C7 1.501 . S
C12 H13 0.961 . S
C12 H14 0.961 . S
C12 H15 0.960 . S
H13 C12 0.961 . S
H14 C12 0.961 . S
H15 C12 0.960 . S
C16 N17 1.342 . S
C16 C20 1.401 . S
C16 C21 1.499 . S
N17 Co0 1.989 . S
N17 C16 1.342 . S
N17 N18 1.388 . S
N18 Co1 1.993 . S
N18 N17 1.388 . S
N18 C19 1.346 . S
C19 N18 1.346 . S
C19 C20 1.396 . S
C19 C29 1.510 . S
C20 C16 1.401 . S
C20 C19 1.396 . S
C21 C16 1.499 . S
C21 H22 0.959 . S
C21 H23 0.960 . S
C21 H24 0.961 . S
H22 C21 0.959 . S
H23 C21 0.960 . S
H24 C21 0.961 . S
O25 Co0 1.967 . S
O25 C33 1.258 . S
O26 Co1 1.941 . S
O26 C33 1.266 . S
H27 C29 0.959 . S
H28 C29 0.961 . S
C29 C19 1.510 . S
C29 H27 0.959 . S
C29 H28 0.961 . S
C29 H30 0.960 . S
H30 C29 0.960 . S
H31 N11 0.862 . S
O32 Co0 1.920 . S
O32 C5 1.289 . S
C33 O25 1.258 . S
C33 O26 1.266 . S
Co34 O37 1.970 . S
Co34 N51 1.989 . S
Co34 O59 1.967 . S
Co34 O66 1.920 . S
Co35 O38 1.966 . S
Co35 N44 2.022 . S
Co35 N52 1.993 . S
Co35 O60 1.941 . S
C36 O37 1.258 . S
C36 O38 1.263 . S
O37 Co34 1.970 . S
O37 C36 1.258 . S
O38 Co35 1.966 . S
O38 C36 1.263 . S
C39 O40 1.235 . S
C39 O66 1.289 . S
O40 C39 1.235 . S
C41 C43 1.400 . S
C41 N44 1.351 . S
C41 C46 1.501 . S
C42 C43 1.387 . S
C42 N45 1.341 . S
C43 C41 1.400 . S
C43 C42 1.387 . S
N44 Co35 2.022 . S
N44 C41 1.351 . S
N44 N45 1.365 . S
N45 C42 1.341 . S
N45 N44 1.365 . S
N45 H65 0.862 . S
C46 C41 1.501 . S
C46 H47 0.961 . S
C46 H48 0.961 . S
C46 H49 0.960 . S
H47 C46 0.961 . S
H48 C46 0.961 . S
H49 C46 0.960 . S
C50 N51 1.342 . S
C50 C54 1.401 . S
C50 C55 1.499 . S
N51 Co34 1.989 . S
N51 C50 1.342 . S
N51 N52 1.388 . S
N52 Co35 1.993 . S
N52 N51 1.388 . S
N52 C53 1.346 . S
C53 N52 1.346 . S
C53 C54 1.396 . S
C53 C63 1.510 . S
C54 C50 1.401 . S
C54 C53 1.396 . S
C55 C50 1.499 . S
C55 H56 0.959 . S
C55 H57 0.960 . S
C55 H58 0.961 . S
H56 C55 0.959 . S
H57 C55 0.960 . S
H58 C55 0.961 . S
O59 Co34 1.967 . S
O59 C67 1.258 . S
O60 Co35 1.941 . S
O60 C67 1.266 . S
H61 C63 0.959 . S
H62 C63 0.961 . S
C63 C53 1.510 . S
C63 H61 0.959 . S
C63 H62 0.961 . S
C63 H64 0.960 . S
H64 C63 0.960 . S
H65 N45 0.862 . S
O66 Co34 1.920 . S
O66 C39 1.289 . S
C67 O59 1.258 . S
C67 O60 1.266 . S
Co68 O71 1.970 . S
Co68 N85 1.989 . S
Co68 O93 1.967 . S
Co68 O100 1.920 . S
Co69 O72 1.966 . S
Co69 N78 2.022 . S
Co69 N86 1.993 . S
Co69 O94 1.941 . S
C70 O71 1.258 . S
C70 O72 1.263 . S
O71 Co68 1.970 . S
O71 C70 1.258 . S
O72 Co69 1.966 . S
O72 C70 1.263 . S
C73 O74 1.235 . S
C73 O100 1.289 . S
O74 C73 1.235 . S
C75 C77 1.400 . S
C75 N78 1.351 . S
C75 C80 1.501 . S
C76 C77 1.387 . S
C76 N79 1.341 . S
C77 C75 1.400 . S
C77 C76 1.387 . S
N78 Co69 2.022 . S
N78 C75 1.351 . S
N78 N79 1.365 . S
N79 C76 1.341 . S
N79 N78 1.365 . S
N79 H99 0.862 . S
C80 C75 1.501 . S
C80 H81 0.961 . S
C80 H82 0.961 . S
C80 H83 0.960 . S
H81 C80 0.961 . S
H82 C80 0.961 . S
H83 C80 0.960 . S
C84 N85 1.342 . S
C84 C88 1.401 . S
C84 C89 1.499 . S
N85 Co68 1.989 . S
N85 C84 1.342 . S
N85 N86 1.388 . S
N86 Co69 1.993 . S
N86 N85 1.388 . S
N86 C87 1.346 . S
C87 N86 1.346 . S
C87 C88 1.396 . S
C87 C97 1.510 . S
C88 C84 1.401 . S
C88 C87 1.396 . S
C89 C84 1.499 . S
C89 H90 0.959 . S
C89 H91 0.960 . S
C89 H92 0.961 . S
H90 C89 0.959 . S
H91 C89 0.960 . S
H92 C89 0.961 . S
O93 Co68 1.967 . S
O93 C101 1.258 . S
O94 Co69 1.941 . S
O94 C101 1.266 . S
H95 C97 0.959 . S
H96 C97 0.961 . S
C97 C87 1.510 . S
C97 H95 0.959 . S
C97 H96 0.961 . S
C97 H98 0.960 . S
H98 C97 0.960 . S
H99 N79 0.862 . S
O100 Co68 1.920 . S
O100 C73 1.289 . S
C101 O93 1.258 . S
C101 O94 1.266 . S
Co102 O105 1.970 . S
Co102 N119 1.989 . S
Co102 O127 1.967 . S
Co102 O134 1.920 . S
Co103 O106 1.966 . S
Co103 N112 2.022 . S
Co103 N120 1.993 . S
Co103 O128 1.941 . S
C104 O105 1.258 . S
C104 O106 1.263 . S
O105 Co102 1.970 . S
O105 C104 1.258 . S
O106 Co103 1.966 . S
O106 C104 1.263 . S
C107 O108 1.235 . S
C107 O134 1.289 . S
O108 C107 1.235 . S
C109 C111 1.400 . S
C109 N112 1.351 . S
C109 C114 1.501 . S
C110 C111 1.387 . S
C110 N113 1.341 . S
C111 C109 1.400 . S
C111 C110 1.387 . S
N112 Co103 2.022 . S
N112 C109 1.351 . S
N112 N113 1.365 . S
N113 C110 1.341 . S
N113 N112 1.365 . S
N113 H133 0.862 . S
C114 C109 1.501 . S
C114 H115 0.961 . S
C114 H116 0.961 . S
C114 H117 0.960 . S
H115 C114 0.961 . S
H116 C114 0.961 . S
H117 C114 0.960 . S
C118 N119 1.342 . S
C118 C122 1.401 . S
C118 C123 1.499 . S
N119 Co102 1.989 . S
N119 C118 1.342 . S
N119 N120 1.388 . S
N120 Co103 1.993 . S
N120 N119 1.388 . S
N120 C121 1.346 . S
C121 N120 1.346 . S
C121 C122 1.396 . S
C121 C131 1.510 . S
C122 C118 1.401 . S
C122 C121 1.396 . S
C123 C118 1.499 . S
C123 H124 0.959 . S
C123 H125 0.960 . S
C123 H126 0.961 . S
H124 C123 0.959 . S
H125 C123 0.960 . S
H126 C123 0.961 . S
O127 Co102 1.967 . S
O127 C135 1.258 . S
O128 Co103 1.941 . S
O128 C135 1.266 . S
H129 C131 0.959 . S
H130 C131 0.961 . S
C131 C121 1.510 . S
C131 H129 0.959 . S
C131 H130 0.961 . S
C131 H132 0.960 . S
H132 C131 0.960 . S
H133 N113 0.862 . S
O134 Co102 1.920 . S
O134 C107 1.289 . S
C135 O127 1.258 . S
C135 O128 1.266 . S
Co136 O139 1.970 . S
Co136 N153 1.989 . S
Co136 O161 1.967 . S
Co136 O168 1.920 . S
Co137 O140 1.966 . S
Co137 N146 2.022 . S
Co137 N154 1.993 . S
Co137 O162 1.941 . S
C138 O139 1.258 . S
C138 O140 1.263 . S
O139 Co136 1.970 . S
O139 C138 1.258 . S
O140 Co137 1.966 . S
O140 C138 1.263 . S
C141 O142 1.235 . S
C141 O168 1.289 . S
O142 C141 1.235 . S
C143 C145 1.400 . S
C143 N146 1.351 . S
C143 C148 1.501 . S
C144 C145 1.387 . S
C144 N147 1.341 . S
C145 C143 1.400 . S
C145 C144 1.387 . S
N146 Co137 2.022 . S
N146 C143 1.351 . S
N146 N147 1.365 . S
N147 C144 1.341 . S
N147 N146 1.365 . S
N147 H167 0.862 . S
C148 C143 1.501 . S
C148 H149 0.961 . S
C148 H150 0.961 . S
C148 H151 0.960 . S
H149 C148 0.961 . S
H150 C148 0.961 . S
H151 C148 0.960 . S
C152 N153 1.342 . S
C152 C156 1.401 . S
C152 C157 1.499 . S
N153 Co136 1.989 . S
N153 C152 1.342 . S
N153 N154 1.388 . S
N154 Co137 1.993 . S
N154 N153 1.388 . S
N154 C155 1.346 . S
C155 N154 1.346 . S
C155 C156 1.396 . S
C155 C165 1.510 . S
C156 C152 1.401 . S
C156 C155 1.396 . S
C157 C152 1.499 . S
C157 H158 0.959 . S
C157 H159 0.960 . S
C157 H160 0.961 . S
H158 C157 0.959 . S
H159 C157 0.960 . S
H160 C157 0.961 . S
O161 Co136 1.967 . S
O161 C169 1.258 . S
O162 Co137 1.941 . S
O162 C169 1.266 . S
H163 C165 0.959 . S
H164 C165 0.961 . S
C165 C155 1.510 . S
C165 H163 0.959 . S
C165 H164 0.961 . S
C165 H166 0.960 . S
H166 C165 0.960 . S
H167 N147 0.862 . S
O168 Co136 1.920 . S
O168 C141 1.289 . S
C169 O161 1.258 . S
C169 O162 1.266 . S
Co170 O173 1.970 . S
Co170 N187 1.989 . S
Co170 O195 1.967 . S
Co170 O202 1.920 . S
Co171 O174 1.966 . S
Co171 N180 2.022 . S
Co171 N188 1.993 . S
Co171 O196 1.941 . S
C172 O173 1.258 . S
C172 O174 1.263 . S
O173 Co170 1.970 . S
O173 C172 1.258 . S
O174 Co171 1.966 . S
O174 C172 1.263 . S
C175 O176 1.235 . S
C175 O202 1.289 . S
O176 C175 1.235 . S
C177 C179 1.400 . S
C177 N180 1.351 . S
C177 C182 1.501 . S
C178 C179 1.387 . S
C178 N181 1.341 . S
C179 C177 1.400 . S
C179 C178 1.387 . S
N180 Co171 2.022 . S
N180 C177 1.351 . S
N180 N181 1.365 . S
N181 C178 1.341 . S
N181 N180 1.365 . S
N181 H201 0.862 . S
C182 C177 1.501 . S
C182 H183 0.961 . S
C182 H184 0.961 . S
C182 H185 0.960 . S
H183 C182 0.961 . S
H184 C182 0.961 . S
H185 C182 0.960 . S
C186 N187 1.342 . S
C186 C190 1.401 . S
C186 C191 1.499 . S
N187 Co170 1.989 . S
N187 C186 1.342 . S
N187 N188 1.388 . S
N188 Co171 1.993 . S
N188 N187 1.388 . S
N188 C189 1.346 . S
C189 N188 1.346 . S
C189 C190 1.396 . S
C189 C199 1.510 . S
C190 C186 1.401 . S
C190 C189 1.396 . S
C191 C186 1.499 . S
C191 H192 0.959 . S
C191 H193 0.960 . S
C191 H194 0.961 . S
H192 C191 0.959 . S
H193 C191 0.960 . S
H194 C191 0.961 . S
O195 Co170 1.967 . S
O195 C203 1.258 . S
O196 Co171 1.941 . S
O196 C203 1.266 . S
H197 C199 0.959 . S
H198 C199 0.961 . S
C199 C189 1.510 . S
C199 H197 0.959 . S
C199 H198 0.961 . S
C199 H200 0.960 . S
H200 C199 0.960 . S
H201 N181 0.862 . S
O202 Co170 1.920 . S
O202 C175 1.289 . S
C203 O195 1.258 . S
C203 O196 1.266 . S
Co204 O207 1.970 . S
Co204 N221 1.989 . S
Co204 O229 1.967 . S
Co204 O236 1.920 . S
Co205 O208 1.966 . S
Co205 N214 2.022 . S
Co205 N222 1.993 . S
Co205 O230 1.941 . S
C206 O207 1.258 . S
C206 O208 1.263 . S
O207 Co204 1.970 . S
O207 C206 1.258 . S
O208 Co205 1.966 . S
O208 C206 1.263 . S
C209 O210 1.235 . S
C209 O236 1.289 . S
O210 C209 1.235 . S
C211 C213 1.400 . S
C211 N214 1.351 . S
C211 C216 1.501 . S
C212 C213 1.387 . S
C212 N215 1.341 . S
C213 C211 1.400 . S
C213 C212 1.387 . S
N214 Co205 2.022 . S
N214 C211 1.351 . S
N214 N215 1.365 . S
N215 C212 1.341 . S
N215 N214 1.365 . S
N215 H235 0.862 . S
C216 C211 1.501 . S
C216 H217 0.961 . S
C216 H218 0.961 . S
C216 H219 0.960 . S
H217 C216 0.961 . S
H218 C216 0.961 . S
H219 C216 0.960 . S
C220 N221 1.342 . S
C220 C224 1.401 . S
C220 C225 1.499 . S
N221 Co204 1.989 . S
N221 C220 1.342 . S
N221 N222 1.388 . S
N222 Co205 1.993 . S
N222 N221 1.388 . S
N222 C223 1.346 . S
C223 N222 1.346 . S
C223 C224 1.396 . S
C223 C233 1.510 . S
C224 C220 1.401 . S
C224 C223 1.396 . S
C225 C220 1.499 . S
C225 H226 0.959 . S
C225 H227 0.960 . S
C225 H228 0.961 . S
H226 C225 0.959 . S
H227 C225 0.960 . S
H228 C225 0.961 . S
O229 Co204 1.967 . S
O229 C237 1.258 . S
O230 Co205 1.941 . S
O230 C237 1.266 . S
H231 C233 0.959 . S
H232 C233 0.961 . S
C233 C223 1.510 . S
C233 H231 0.959 . S
C233 H232 0.961 . S
C233 H234 0.960 . S
H234 C233 0.960 . S
H235 N215 0.862 . S
O236 Co204 1.920 . S
O236 C209 1.289 . S
C237 O229 1.258 . S
C237 O230 1.266 . S
Co238 O241 1.970 . S
Co238 N255 1.989 . S
Co238 O263 1.967 . S
Co238 O270 1.920 . S
Co239 O242 1.966 . S
Co239 N248 2.022 . S
Co239 N256 1.993 . S
Co239 O264 1.941 . S
C240 O241 1.258 . S
C240 O242 1.263 . S
O241 Co238 1.970 . S
O241 C240 1.258 . S
O242 Co239 1.966 . S
O242 C240 1.263 . S
C243 O244 1.235 . S
C243 O270 1.289 . S
O244 C243 1.235 . S
C245 C247 1.400 . S
C245 N248 1.351 . S
C245 C250 1.501 . S
C246 C247 1.387 . S
C246 N249 1.341 . S
C247 C245 1.400 . S
C247 C246 1.387 . S
N248 Co239 2.022 . S
N248 C245 1.351 . S
N248 N249 1.365 . S
N249 C246 1.341 . S
N249 N248 1.365 . S
N249 H269 0.862 . S
C250 C245 1.501 . S
C250 H251 0.961 . S
C250 H252 0.961 . S
C250 H253 0.960 . S
H251 C250 0.961 . S
H252 C250 0.961 . S
H253 C250 0.960 . S
C254 N255 1.342 . S
C254 C258 1.401 . S
C254 C259 1.499 . S
N255 Co238 1.989 . S
N255 C254 1.342 . S
N255 N256 1.388 . S
N256 Co239 1.993 . S
N256 N255 1.388 . S
N256 C257 1.346 . S
C257 N256 1.346 . S
C257 C258 1.396 . S
C257 C267 1.510 . S
C258 C254 1.401 . S
C258 C257 1.396 . S
C259 C254 1.499 . S
C259 H260 0.959 . S
C259 H261 0.960 . S
C259 H262 0.961 . S
H260 C259 0.959 . S
H261 C259 0.960 . S
H262 C259 0.961 . S
O263 Co238 1.967 . S
O263 C271 1.258 . S
O264 Co239 1.941 . S
O264 C271 1.266 . S
H265 C267 0.959 . S
H266 C267 0.961 . S
C267 C257 1.510 . S
C267 H265 0.959 . S
C267 H266 0.961 . S
C267 H268 0.960 . S
H268 C267 0.960 . S
H269 N249 0.862 . S
O270 Co238 1.920 . S
O270 C243 1.289 . S
C271 O263 1.258 . S
C271 O264 1.266 . S
Co272 O275 1.970 . S
Co272 N289 1.989 . S
Co272 O297 1.967 . S
Co272 O304 1.920 . S
Co273 O276 1.966 . S
Co273 N282 2.022 . S
Co273 N290 1.993 . S
Co273 O298 1.941 . S
C274 O275 1.258 . S
C274 O276 1.263 . S
O275 Co272 1.970 . S
O275 C274 1.258 . S
O276 Co273 1.966 . S
O276 C274 1.263 . S
C277 O278 1.235 . S
C277 O304 1.289 . S
O278 C277 1.235 . S
C279 C281 1.400 . S
C279 N282 1.351 . S
C279 C284 1.501 . S
C280 C281 1.387 . S
C280 N283 1.341 . S
C281 C279 1.400 . S
C281 C280 1.387 . S
N282 Co273 2.022 . S
N282 C279 1.351 . S
N282 N283 1.365 . S
N283 C280 1.341 . S
N283 N282 1.365 . S
N283 H303 0.862 . S
C284 C279 1.501 . S
C284 H285 0.961 . S
C284 H286 0.961 . S
C284 H287 0.960 . S
H285 C284 0.961 . S
H286 C284 0.961 . S
H287 C284 0.960 . S
C288 N289 1.342 . S
C288 C292 1.401 . S
C288 C293 1.499 . S
N289 Co272 1.989 . S
N289 C288 1.342 . S
N289 N290 1.388 . S
N290 Co273 1.993 . S
N290 N289 1.388 . S
N290 C291 1.346 . S
C291 N290 1.346 . S
C291 C292 1.396 . S
C291 C301 1.510 . S
C292 C288 1.401 . S
C292 C291 1.396 . S
C293 C288 1.499 . S
C293 H294 0.959 . S
C293 H295 0.960 . S
C293 H296 0.961 . S
H294 C293 0.959 . S
H295 C293 0.960 . S
H296 C293 0.961 . S
O297 Co272 1.967 . S
O297 C305 1.258 . S
O298 Co273 1.941 . S
O298 C305 1.266 . S
H299 C301 0.959 . S
H300 C301 0.961 . S
C301 C291 1.510 . S
C301 H299 0.959 . S
C301 H300 0.961 . S
C301 H302 0.960 . S
H302 C301 0.960 . S
H303 N283 0.862 . S
O304 Co272 1.920 . S
O304 C277 1.289 . S
C305 O297 1.258 . S
C305 O298 1.266 . S
Co306 O309 1.970 . S
Co306 N323 1.989 . S
Co306 O331 1.967 . S
Co306 O338 1.920 . S
Co307 O310 1.966 . S
Co307 N316 2.022 . S
Co307 N324 1.993 . S
Co307 O332 1.941 . S
C308 O309 1.258 . S
C308 O310 1.263 . S
O309 Co306 1.970 . S
O309 C308 1.258 . S
O310 Co307 1.966 . S
O310 C308 1.263 . S
C311 O312 1.235 . S
C311 O338 1.289 . S
O312 C311 1.235 . S
C313 C315 1.400 . S
C313 N316 1.351 . S
C313 C318 1.501 . S
C314 C315 1.387 . S
C314 N317 1.341 . S
C315 C313 1.400 . S
C315 C314 1.387 . S
N316 Co307 2.022 . S
N316 C313 1.351 . S
N316 N317 1.365 . S
N317 C314 1.341 . S
N317 N316 1.365 . S
N317 H337 0.862 . S
C318 C313 1.501 . S
C318 H319 0.961 . S
C318 H320 0.961 . S
C318 H321 0.960 . S
H319 C318 0.961 . S
H320 C318 0.961 . S
H321 C318 0.960 . S
C322 N323 1.342 . S
C322 C326 1.401 . S
C322 C327 1.499 . S
N323 Co306 1.989 . S
N323 C322 1.342 . S
N323 N324 1.388 . S
N324 Co307 1.993 . S
N324 N323 1.388 . S
N324 C325 1.346 . S
C325 N324 1.346 . S
C325 C326 1.396 . S
C325 C335 1.510 . S
C326 C322 1.401 . S
C326 C325 1.396 . S
C327 C322 1.499 . S
C327 H328 0.959 . S
C327 H329 0.960 . S
C327 H330 0.961 . S
H328 C327 0.959 . S
H329 C327 0.960 . S
H330 C327 0.961 . S
O331 Co306 1.967 . S
O331 C339 1.258 . S
O332 Co307 1.941 . S
O332 C339 1.266 . S
H333 C335 0.959 . S
H334 C335 0.961 . S
C335 C325 1.510 . S
C335 H333 0.959 . S
C335 H334 0.961 . S
C335 H336 0.960 . S
H336 C335 0.960 . S
H337 N317 0.862 . S
O338 Co306 1.920 . S
O338 C311 1.289 . S
C339 O331 1.258 . S
C339 O332 1.266 . S
Co340 O343 1.970 . S
Co340 N357 1.989 . S
Co340 O365 1.967 . S
Co340 O372 1.920 . S
Co341 O344 1.966 . S
Co341 N350 2.022 . S
Co341 N358 1.993 . S
Co341 O366 1.941 . S
C342 O343 1.258 . S
C342 O344 1.263 . S
O343 Co340 1.970 . S
O343 C342 1.258 . S
O344 Co341 1.966 . S
O344 C342 1.263 . S
C345 O346 1.235 . S
C345 O372 1.289 . S
O346 C345 1.235 . S
C347 C349 1.400 . S
C347 N350 1.351 . S
C347 C352 1.501 . S
C348 C349 1.387 . S
C348 N351 1.341 . S
C349 C347 1.400 . S
C349 C348 1.387 . S
N350 Co341 2.022 . S
N350 C347 1.351 . S
N350 N351 1.365 . S
N351 C348 1.341 . S
N351 N350 1.365 . S
N351 H371 0.862 . S
C352 C347 1.501 . S
C352 H353 0.961 . S
C352 H354 0.961 . S
C352 H355 0.960 . S
H353 C352 0.961 . S
H354 C352 0.961 . S
H355 C352 0.960 . S
C356 N357 1.342 . S
C356 C360 1.401 . S
C356 C361 1.499 . S
N357 Co340 1.989 . S
N357 C356 1.342 . S
N357 N358 1.388 . S
N358 Co341 1.993 . S
N358 N357 1.388 . S
N358 C359 1.346 . S
C359 N358 1.346 . S
C359 C360 1.396 . S
C359 C369 1.510 . S
C360 C356 1.401 . S
C360 C359 1.396 . S
C361 C356 1.499 . S
C361 H362 0.959 . S
C361 H363 0.960 . S
C361 H364 0.961 . S
H362 C361 0.959 . S
H363 C361 0.960 . S
H364 C361 0.961 . S
O365 Co340 1.967 . S
O365 C373 1.258 . S
O366 Co341 1.941 . S
O366 C373 1.266 . S
H367 C369 0.959 . S
H368 C369 0.961 . S
C369 C359 1.510 . S
C369 H367 0.959 . S
C369 H368 0.961 . S
C369 H370 0.960 . S
H370 C369 0.960 . S
H371 N351 0.862 . S
O372 Co340 1.920 . S
O372 C345 1.289 . S
C373 O365 1.258 . S
C373 O366 1.266 . S
Co374 O377 1.970 . S
Co374 N391 1.989 . S
Co374 O399 1.967 . S
Co374 O406 1.920 . S
Co375 O378 1.966 . S
Co375 N384 2.022 . S
Co375 N392 1.993 . S
Co375 O400 1.941 . S
C376 O377 1.258 . S
C376 O378 1.263 . S
O377 Co374 1.970 . S
O377 C376 1.258 . S
O378 Co375 1.966 . S
O378 C376 1.263 . S
C379 O380 1.235 . S
C379 O406 1.289 . S
O380 C379 1.235 . S
C381 C383 1.400 . S
C381 N384 1.351 . S
C381 C386 1.501 . S
C382 C383 1.387 . S
C382 N385 1.341 . S
C383 C381 1.400 . S
C383 C382 1.387 . S
N384 Co375 2.022 . S
N384 C381 1.351 . S
N384 N385 1.365 . S
N385 C382 1.341 . S
N385 N384 1.365 . S
N385 H405 0.862 . S
C386 C381 1.501 . S
C386 H387 0.961 . S
C386 H388 0.961 . S
C386 H389 0.960 . S
H387 C386 0.961 . S
H388 C386 0.961 . S
H389 C386 0.960 . S
C390 N391 1.342 . S
C390 C394 1.401 . S
C390 C395 1.499 . S
N391 Co374 1.989 . S
N391 C390 1.342 . S
N391 N392 1.388 . S
N392 Co375 1.993 . S
N392 N391 1.388 . S
N392 C393 1.346 . S
C393 N392 1.346 . S
C393 C394 1.396 . S
C393 C403 1.510 . S
C394 C390 1.401 . S
C394 C393 1.396 . S
C395 C390 1.499 . S
C395 H396 0.959 . S
C395 H397 0.960 . S
C395 H398 0.961 . S
H396 C395 0.959 . S
H397 C395 0.960 . S
H398 C395 0.961 . S
O399 Co374 1.967 . S
O399 C407 1.258 . S
O400 Co375 1.941 . S
O400 C407 1.266 . S
H401 C403 0.959 . S
H402 C403 0.961 . S
C403 C393 1.510 . S
C403 H401 0.959 . S
C403 H402 0.961 . S
C403 H404 0.960 . S
H404 C403 0.960 . S
H405 N385 0.862 . S
O406 Co374 1.920 . S
O406 C379 1.289 . S
C407 O399 1.258 . S
C407 O400 1.266 . S
Co408 O411 1.970 . S
Co408 N425 1.989 . S
Co408 O433 1.967 . S
Co408 O440 1.920 . S
Co409 O412 1.966 . S
Co409 N418 2.022 . S
Co409 N426 1.993 . S
Co409 O434 1.941 . S
C410 O411 1.258 . S
C410 O412 1.263 . S
O411 Co408 1.970 . S
O411 C410 1.258 . S
O412 Co409 1.966 . S
O412 C410 1.263 . S
C413 O414 1.235 . S
C413 O440 1.289 . S
O414 C413 1.235 . S
C415 C417 1.400 . S
C415 N418 1.351 . S
C415 C420 1.501 . S
C416 C417 1.387 . S
C416 N419 1.341 . S
C417 C415 1.400 . S
C417 C416 1.387 . S
N418 Co409 2.022 . S
N418 C415 1.351 . S
N418 N419 1.365 . S
N419 C416 1.341 . S
N419 N418 1.365 . S
N419 H439 0.862 . S
C420 C415 1.501 . S
C420 H421 0.961 . S
C420 H422 0.961 . S
C420 H423 0.960 . S
H421 C420 0.961 . S
H422 C420 0.961 . S
H423 C420 0.960 . S
C424 N425 1.342 . S
C424 C428 1.401 . S
C424 C429 1.499 . S
N425 Co408 1.989 . S
N425 C424 1.342 . S
N425 N426 1.388 . S
N426 Co409 1.993 . S
N426 N425 1.388 . S
N426 C427 1.346 . S
C427 N426 1.346 . S
C427 C428 1.396 . S
C427 C437 1.510 . S
C428 C424 1.401 . S
C428 C427 1.396 . S
C429 C424 1.499 . S
C429 H430 0.959 . S
C429 H431 0.960 . S
C429 H432 0.961 . S
H430 C429 0.959 . S
H431 C429 0.960 . S
H432 C429 0.961 . S
O433 Co408 1.967 . S
O433 C441 1.258 . S
O434 Co409 1.941 . S
O434 C441 1.266 . S
H435 C437 0.959 . S
H436 C437 0.961 . S
C437 C427 1.510 . S
C437 H435 0.959 . S
C437 H436 0.961 . S
C437 H438 0.960 . S
H438 C437 0.960 . S
H439 N419 0.862 . S
O440 Co408 1.920 . S
O440 C413 1.289 . S
C441 O433 1.258 . S
C441 O434 1.266 . S
Co442 O445 1.970 . S
Co442 N459 1.989 . S
Co442 O467 1.967 . S
Co442 O474 1.920 . S
Co443 O446 1.966 . S
Co443 N452 2.022 . S
Co443 N460 1.993 . S
Co443 O468 1.941 . S
C444 O445 1.258 . S
C444 O446 1.263 . S
O445 Co442 1.970 . S
O445 C444 1.258 . S
O446 Co443 1.966 . S
O446 C444 1.263 . S
C447 O448 1.235 . S
C447 O474 1.289 . S
O448 C447 1.235 . S
C449 C451 1.400 . S
C449 N452 1.351 . S
C449 C454 1.501 . S
C450 C451 1.387 . S
C450 N453 1.341 . S
C451 C449 1.400 . S
C451 C450 1.387 . S
N452 Co443 2.022 . S
N452 C449 1.351 . S
N452 N453 1.365 . S
N453 C450 1.341 . S
N453 N452 1.365 . S
N453 H473 0.862 . S
C454 C449 1.501 . S
C454 H455 0.961 . S
C454 H456 0.961 . S
C454 H457 0.960 . S
H455 C454 0.961 . S
H456 C454 0.961 . S
H457 C454 0.960 . S
C458 N459 1.342 . S
C458 C462 1.401 . S
C458 C463 1.499 . S
N459 Co442 1.989 . S
N459 C458 1.342 . S
N459 N460 1.388 . S
N460 Co443 1.993 . S
N460 N459 1.388 . S
N460 C461 1.346 . S
C461 N460 1.346 . S
C461 C462 1.396 . S
C461 C471 1.510 . S
C462 C458 1.401 . S
C462 C461 1.396 . S
C463 C458 1.499 . S
C463 H464 0.959 . S
C463 H465 0.960 . S
C463 H466 0.961 . S
H464 C463 0.959 . S
H465 C463 0.960 . S
H466 C463 0.961 . S
O467 Co442 1.967 . S
O467 C475 1.258 . S
O468 Co443 1.941 . S
O468 C475 1.266 . S
H469 C471 0.959 . S
H470 C471 0.961 . S
C471 C461 1.510 . S
C471 H469 0.959 . S
C471 H470 0.961 . S
C471 H472 0.960 . S
H472 C471 0.960 . S
H473 N453 0.862 . S
O474 Co442 1.920 . S
O474 C447 1.289 . S
C475 O467 1.258 . S
C475 O468 1.266 . S
Co476 O479 1.970 . S
Co476 N493 1.989 . S
Co476 O501 1.967 . S
Co476 O508 1.920 . S
Co477 O480 1.966 . S
Co477 N486 2.022 . S
Co477 N494 1.993 . S
Co477 O502 1.941 . S
C478 O479 1.258 . S
C478 O480 1.263 . S
O479 Co476 1.970 . S
O479 C478 1.258 . S
O480 Co477 1.966 . S
O480 C478 1.263 . S
C481 O482 1.235 . S
C481 O508 1.289 . S
O482 C481 1.235 . S
C483 C485 1.400 . S
C483 N486 1.351 . S
C483 C488 1.501 . S
C484 C485 1.387 . S
C484 N487 1.341 . S
C485 C483 1.400 . S
C485 C484 1.387 . S
N486 Co477 2.022 . S
N486 C483 1.351 . S
N486 N487 1.365 . S
N487 C484 1.341 . S
N487 N486 1.365 . S
N487 H507 0.862 . S
C488 C483 1.501 . S
C488 H489 0.961 . S
C488 H490 0.961 . S
C488 H491 0.960 . S
H489 C488 0.961 . S
H490 C488 0.961 . S
H491 C488 0.960 . S
C492 N493 1.342 . S
C492 C496 1.401 . S
C492 C497 1.499 . S
N493 Co476 1.989 . S
N493 C492 1.342 . S
N493 N494 1.388 . S
N494 Co477 1.993 . S
N494 N493 1.388 . S
N494 C495 1.346 . S
C495 N494 1.346 . S
C495 C496 1.396 . S
C495 C505 1.510 . S
C496 C492 1.401 . S
C496 C495 1.396 . S
C497 C492 1.499 . S
C497 H498 0.959 . S
C497 H499 0.960 . S
C497 H500 0.961 . S
H498 C497 0.959 . S
H499 C497 0.960 . S
H500 C497 0.961 . S
O501 Co476 1.967 . S
O501 C509 1.258 . S
O502 Co477 1.941 . S
O502 C509 1.266 . S
H503 C505 0.959 . S
H504 C505 0.961 . S
C505 C495 1.510 . S
C505 H503 0.959 . S
C505 H504 0.961 . S
C505 H506 0.960 . S
H506 C505 0.960 . S
H507 N487 0.862 . S
O508 Co476 1.920 . S
O508 C481 1.289 . S
C509 O501 1.258 . S
C509 O502 1.266 . S
Co510 O513 1.970 . S
Co510 N527 1.989 . S
Co510 O535 1.967 . S
Co510 O542 1.920 . S
Co511 O514 1.966 . S
Co511 N520 2.022 . S
Co511 N528 1.993 . S
Co511 O536 1.941 . S
C512 O513 1.258 . S
C512 O514 1.263 . S
O513 Co510 1.970 . S
O513 C512 1.258 . S
O514 Co511 1.966 . S
O514 C512 1.263 . S
C515 O516 1.235 . S
C515 O542 1.289 . S
O516 C515 1.235 . S
C517 C519 1.400 . S
C517 N520 1.351 . S
C517 C522 1.501 . S
C518 C519 1.387 . S
C518 N521 1.341 . S
C519 C517 1.400 . S
C519 C518 1.387 . S
N520 Co511 2.022 . S
N520 C517 1.351 . S
N520 N521 1.365 . S
N521 C518 1.341 . S
N521 N520 1.365 . S
N521 H541 0.862 . S
C522 C517 1.501 . S
C522 H523 0.961 . S
C522 H524 0.961 . S
C522 H525 0.960 . S
H523 C522 0.961 . S
H524 C522 0.961 . S
H525 C522 0.960 . S
C526 N527 1.342 . S
C526 C530 1.401 . S
C526 C531 1.499 . S
N527 Co510 1.989 . S
N527 C526 1.342 . S
N527 N528 1.388 . S
N528 Co511 1.993 . S
N528 N527 1.388 . S
N528 C529 1.346 . S
C529 N528 1.346 . S
C529 C530 1.396 . S
C529 C539 1.510 . S
C530 C526 1.401 . S
C530 C529 1.396 . S
C531 C526 1.499 . S
C531 H532 0.959 . S
C531 H533 0.960 . S
C531 H534 0.961 . S
H532 C531 0.959 . S
H533 C531 0.960 . S
H534 C531 0.961 . S
O535 Co510 1.967 . S
O535 C543 1.258 . S
O536 Co511 1.941 . S
O536 C543 1.266 . S
H537 C539 0.959 . S
H538 C539 0.961 . S
C539 C529 1.510 . S
C539 H537 0.959 . S
C539 H538 0.961 . S
C539 H540 0.960 . S
H540 C539 0.960 . S
H541 N521 0.862 . S
O542 Co510 1.920 . S
O542 C515 1.289 . S
C543 O535 1.258 . S
C543 O536 1.266 . S
Co544 O547 1.970 . S
Co544 N561 1.989 . S
Co544 O569 1.967 . S
Co544 O576 1.920 . S
Co545 O548 1.966 . S
Co545 N554 2.022 . S
Co545 N562 1.993 . S
Co545 O570 1.941 . S
C546 O547 1.258 . S
C546 O548 1.263 . S
O547 Co544 1.970 . S
O547 C546 1.258 . S
O548 Co545 1.966 . S
O548 C546 1.263 . S
C549 O550 1.235 . S
C549 O576 1.289 . S
O550 C549 1.235 . S
C551 C553 1.400 . S
C551 N554 1.351 . S
C551 C556 1.501 . S
C552 C553 1.387 . S
C552 N555 1.341 . S
C553 C551 1.400 . S
C553 C552 1.387 . S
N554 Co545 2.022 . S
N554 C551 1.351 . S
N554 N555 1.365 . S
N555 C552 1.341 . S
N555 N554 1.365 . S
N555 H575 0.862 . S
C556 C551 1.501 . S
C556 H557 0.961 . S
C556 H558 0.961 . S
C556 H559 0.960 . S
H557 C556 0.961 . S
H558 C556 0.961 . S
H559 C556 0.960 . S
C560 N561 1.342 . S
C560 C564 1.401 . S
C560 C565 1.499 . S
N561 Co544 1.989 . S
N561 C560 1.342 . S
N561 N562 1.388 . S
N562 Co545 1.993 . S
N562 N561 1.388 . S
N562 C563 1.346 . S
C563 N562 1.346 . S
C563 C564 1.396 . S
C563 C573 1.510 . S
C564 C560 1.401 . S
C564 C563 1.396 . S
C565 C560 1.499 . S
C565 H566 0.959 . S
C565 H567 0.960 . S
C565 H568 0.961 . S
H566 C565 0.959 . S
H567 C565 0.960 . S
H568 C565 0.961 . S
O569 Co544 1.967 . S
O569 C577 1.258 . S
O570 Co545 1.941 . S
O570 C577 1.266 . S
H571 C573 0.959 . S
H572 C573 0.961 . S
C573 C563 1.510 . S
C573 H571 0.959 . S
C573 H572 0.961 . S
C573 H574 0.960 . S
H574 C573 0.960 . S
H575 N555 0.862 . S
O576 Co544 1.920 . S
O576 C549 1.289 . S
C577 O569 1.258 . S
C577 O570 1.266 . S
Co578 O581 1.970 . S
Co578 N595 1.989 . S
Co578 O603 1.967 . S
Co578 O610 1.920 . S
Co579 O582 1.966 . S
Co579 N588 2.022 . S
Co579 N596 1.993 . S
Co579 O604 1.941 . S
C580 O581 1.258 . S
C580 O582 1.263 . S
O581 Co578 1.970 . S
O581 C580 1.258 . S
O582 Co579 1.966 . S
O582 C580 1.263 . S
C583 O584 1.235 . S
C583 O610 1.289 . S
O584 C583 1.235 . S
C585 C587 1.400 . S
C585 N588 1.351 . S
C585 C590 1.501 . S
C586 C587 1.387 . S
C586 N589 1.341 . S
C587 C585 1.400 . S
C587 C586 1.387 . S
N588 Co579 2.022 . S
N588 C585 1.351 . S
N588 N589 1.365 . S
N589 C586 1.341 . S
N589 N588 1.365 . S
N589 H609 0.862 . S
C590 C585 1.501 . S
C590 H591 0.961 . S
C590 H592 0.961 . S
C590 H593 0.960 . S
H591 C590 0.961 . S
H592 C590 0.961 . S
H593 C590 0.960 . S
C594 N595 1.342 . S
C594 C598 1.401 . S
C594 C599 1.499 . S
N595 Co578 1.989 . S
N595 C594 1.342 . S
N595 N596 1.388 . S
N596 Co579 1.993 . S
N596 N595 1.388 . S
N596 C597 1.346 . S
C597 N596 1.346 . S
C597 C598 1.396 . S
C597 C607 1.510 . S
C598 C594 1.401 . S
C598 C597 1.396 . S
C599 C594 1.499 . S
C599 H600 0.959 . S
C599 H601 0.960 . S
C599 H602 0.961 . S
H600 C599 0.959 . S
H601 C599 0.960 . S
H602 C599 0.961 . S
O603 Co578 1.967 . S
O603 C611 1.258 . S
O604 Co579 1.941 . S
O604 C611 1.266 . S
H605 C607 0.959 . S
H606 C607 0.961 . S
C607 C597 1.510 . S
C607 H605 0.959 . S
C607 H606 0.961 . S
C607 H608 0.960 . S
H608 C607 0.960 . S
H609 N589 0.862 . S
O610 Co578 1.920 . S
O610 C583 1.289 . S
C611 O603 1.258 . S
C611 O604 1.266 . S
Co612 O615 1.970 . S
Co612 N629 1.989 . S
Co612 O637 1.967 . S
Co612 O644 1.920 . S
Co613 O616 1.966 . S
Co613 N622 2.022 . S
Co613 N630 1.993 . S
Co613 O638 1.941 . S
C614 O615 1.258 . S
C614 O616 1.263 . S
O615 Co612 1.970 . S
O615 C614 1.258 . S
O616 Co613 1.966 . S
O616 C614 1.263 . S
C617 O618 1.235 . S
C617 O644 1.289 . S
O618 C617 1.235 . S
C619 C621 1.400 . S
C619 N622 1.351 . S
C619 C624 1.501 . S
C620 C621 1.387 . S
C620 N623 1.341 . S
C621 C619 1.400 . S
C621 C620 1.387 . S
N622 Co613 2.022 . S
N622 C619 1.351 . S
N622 N623 1.365 . S
N623 C620 1.341 . S
N623 N622 1.365 . S
N623 H643 0.862 . S
C624 C619 1.501 . S
C624 H625 0.961 . S
C624 H626 0.961 . S
C624 H627 0.960 . S
H625 C624 0.961 . S
H626 C624 0.961 . S
H627 C624 0.960 . S
C628 N629 1.342 . S
C628 C632 1.401 . S
C628 C633 1.499 . S
N629 Co612 1.989 . S
N629 C628 1.342 . S
N629 N630 1.388 . S
N630 Co613 1.993 . S
N630 N629 1.388 . S
N630 C631 1.346 . S
C631 N630 1.346 . S
C631 C632 1.396 . S
C631 C641 1.510 . S
C632 C628 1.401 . S
C632 C631 1.396 . S
C633 C628 1.499 . S
C633 H634 0.959 . S
C633 H635 0.960 . S
C633 H636 0.961 . S
H634 C633 0.959 . S
H635 C633 0.960 . S
H636 C633 0.961 . S
O637 Co612 1.967 . S
O637 C645 1.258 . S
O638 Co613 1.941 . S
O638 C645 1.266 . S
H639 C641 0.959 . S
H640 C641 0.961 . S
C641 C631 1.510 . S
C641 H639 0.959 . S
C641 H640 0.961 . S
C641 H642 0.960 . S
H642 C641 0.960 . S
H643 N623 0.862 . S
O644 Co612 1.920 . S
O644 C617 1.289 . S
C645 O637 1.258 . S
C645 O638 1.266 . S
Co646 O649 1.970 . S
Co646 N663 1.989 . S
Co646 O671 1.967 . S
Co646 O678 1.920 . S
Co647 O650 1.966 . S
Co647 N656 2.022 . S
Co647 N664 1.993 . S
Co647 O672 1.941 . S
C648 O649 1.258 . S
C648 O650 1.263 . S
O649 Co646 1.970 . S
O649 C648 1.258 . S
O650 Co647 1.966 . S
O650 C648 1.263 . S
C651 O652 1.235 . S
C651 O678 1.289 . S
O652 C651 1.235 . S
C653 C655 1.400 . S
C653 N656 1.351 . S
C653 C658 1.501 . S
C654 C655 1.387 . S
C654 N657 1.341 . S
C655 C653 1.400 . S
C655 C654 1.387 . S
N656 Co647 2.022 . S
N656 C653 1.351 . S
N656 N657 1.365 . S
N657 C654 1.341 . S
N657 N656 1.365 . S
N657 H677 0.862 . S
C658 C653 1.501 . S
C658 H659 0.961 . S
C658 H660 0.961 . S
C658 H661 0.960 . S
H659 C658 0.961 . S
H660 C658 0.961 . S
H661 C658 0.960 . S
C662 N663 1.342 . S
C662 C666 1.401 . S
C662 C667 1.499 . S
N663 Co646 1.989 . S
N663 C662 1.342 . S
N663 N664 1.388 . S
N664 Co647 1.993 . S
N664 N663 1.388 . S
N664 C665 1.346 . S
C665 N664 1.346 . S
C665 C666 1.396 . S
C665 C675 1.510 . S
C666 C662 1.401 . S
C666 C665 1.396 . S
C667 C662 1.499 . S
C667 H668 0.959 . S
C667 H669 0.960 . S
C667 H670 0.961 . S
H668 C667 0.959 . S
H669 C667 0.960 . S
H670 C667 0.961 . S
O671 Co646 1.967 . S
O671 C679 1.258 . S
O672 Co647 1.941 . S
O672 C679 1.266 . S
H673 C675 0.959 . S
H674 C675 0.961 . S
C675 C665 1.510 . S
C675 H673 0.959 . S
C675 H674 0.961 . S
C675 H676 0.960 . S
H676 C675 0.960 . S
H677 N657 0.862 . S
O678 Co646 1.920 . S
O678 C651 1.289 . S
C679 O671 1.258 . S
C679 O672 1.266 . S
Co680 O683 1.970 . S
Co680 N697 1.989 . S
Co680 O705 1.967 . S
Co680 O712 1.920 . S
Co681 O684 1.966 . S
Co681 N690 2.022 . S
Co681 N698 1.993 . S
Co681 O706 1.941 . S
C682 O683 1.258 . S
C682 O684 1.263 . S
O683 Co680 1.970 . S
O683 C682 1.258 . S
O684 Co681 1.966 . S
O684 C682 1.263 . S
C685 O686 1.235 . S
C685 O712 1.289 . S
O686 C685 1.235 . S
C687 C689 1.400 . S
C687 N690 1.351 . S
C687 C692 1.501 . S
C688 C689 1.387 . S
C688 N691 1.341 . S
C689 C687 1.400 . S
C689 C688 1.387 . S
N690 Co681 2.022 . S
N690 C687 1.351 . S
N690 N691 1.365 . S
N691 C688 1.341 . S
N691 N690 1.365 . S
N691 H711 0.862 . S
C692 C687 1.501 . S
C692 H693 0.961 . S
C692 H694 0.961 . S
C692 H695 0.960 . S
H693 C692 0.961 . S
H694 C692 0.961 . S
H695 C692 0.960 . S
C696 N697 1.342 . S
C696 C700 1.401 . S
C696 C701 1.499 . S
N697 Co680 1.989 . S
N697 C696 1.342 . S
N697 N698 1.388 . S
N698 Co681 1.993 . S
N698 N697 1.388 . S
N698 C699 1.346 . S
C699 N698 1.346 . S
C699 C700 1.396 . S
C699 C709 1.510 . S
C700 C696 1.401 . S
C700 C699 1.396 . S
C701 C696 1.499 . S
C701 H702 0.959 . S
C701 H703 0.960 . S
C701 H704 0.961 . S
H702 C701 0.959 . S
H703 C701 0.960 . S
H704 C701 0.961 . S
O705 Co680 1.967 . S
O705 C713 1.258 . S
O706 Co681 1.941 . S
O706 C713 1.266 . S
H707 C709 0.959 . S
H708 C709 0.961 . S
C709 C699 1.510 . S
C709 H707 0.959 . S
C709 H708 0.961 . S
C709 H710 0.960 . S
H710 C709 0.960 . S
H711 N691 0.862 . S
O712 Co680 1.920 . S
O712 C685 1.289 . S
C713 O705 1.258 . S
C713 O706 1.266 . S
Co714 O717 1.970 . S
Co714 N731 1.989 . S
Co714 O739 1.967 . S
Co714 O746 1.920 . S
Co715 O718 1.966 . S
Co715 N724 2.022 . S
Co715 N732 1.993 . S
Co715 O740 1.941 . S
C716 O717 1.258 . S
C716 O718 1.263 . S
O717 Co714 1.970 . S
O717 C716 1.258 . S
O718 Co715 1.966 . S
O718 C716 1.263 . S
C719 O720 1.235 . S
C719 O746 1.289 . S
O720 C719 1.235 . S
C721 C723 1.400 . S
C721 N724 1.351 . S
C721 C726 1.501 . S
C722 C723 1.387 . S
C722 N725 1.341 . S
C723 C721 1.400 . S
C723 C722 1.387 . S
N724 Co715 2.022 . S
N724 C721 1.351 . S
N724 N725 1.365 . S
N725 C722 1.341 . S
N725 N724 1.365 . S
N725 H745 0.862 . S
C726 C721 1.501 . S
C726 H727 0.961 . S
C726 H728 0.961 . S
C726 H729 0.960 . S
H727 C726 0.961 . S
H728 C726 0.961 . S
H729 C726 0.960 . S
C730 N731 1.342 . S
C730 C734 1.401 . S
C730 C735 1.499 . S
N731 Co714 1.989 . S
N731 C730 1.342 . S
N731 N732 1.388 . S
N732 Co715 1.993 . S
N732 N731 1.388 . S
N732 C733 1.346 . S
C733 N732 1.346 . S
C733 C734 1.396 . S
C733 C743 1.510 . S
C734 C730 1.401 . S
C734 C733 1.396 . S
C735 C730 1.499 . S
C735 H736 0.959 . S
C735 H737 0.960 . S
C735 H738 0.961 . S
H736 C735 0.959 . S
H737 C735 0.960 . S
H738 C735 0.961 . S
O739 Co714 1.967 . S
O739 C747 1.258 . S
O740 Co715 1.941 . S
O740 C747 1.266 . S
H741 C743 0.959 . S
H742 C743 0.961 . S
C743 C733 1.510 . S
C743 H741 0.959 . S
C743 H742 0.961 . S
C743 H744 0.960 . S
H744 C743 0.960 . S
H745 N725 0.862 . S
O746 Co714 1.920 . S
O746 C719 1.289 . S
C747 O739 1.258 . S
C747 O740 1.266 . S
Co748 O751 1.970 . S
Co748 N765 1.989 . S
Co748 O773 1.967 . S
Co748 O780 1.920 . S
Co749 O752 1.966 . S
Co749 N758 2.022 . S
Co749 N766 1.993 . S
Co749 O774 1.941 . S
C750 O751 1.258 . S
C750 O752 1.263 . S
O751 Co748 1.970 . S
O751 C750 1.258 . S
O752 Co749 1.966 . S
O752 C750 1.263 . S
C753 O754 1.235 . S
C753 O780 1.289 . S
O754 C753 1.235 . S
C755 C757 1.400 . S
C755 N758 1.351 . S
C755 C760 1.501 . S
C756 C757 1.387 . S
C756 N759 1.341 . S
C757 C755 1.400 . S
C757 C756 1.387 . S
N758 Co749 2.022 . S
N758 C755 1.351 . S
N758 N759 1.365 . S
N759 C756 1.341 . S
N759 N758 1.365 . S
N759 H779 0.862 . S
C760 C755 1.501 . S
C760 H761 0.961 . S
C760 H762 0.961 . S
C760 H763 0.960 . S
H761 C760 0.961 . S
H762 C760 0.961 . S
H763 C760 0.960 . S
C764 N765 1.342 . S
C764 C768 1.401 . S
C764 C769 1.499 . S
N765 Co748 1.989 . S
N765 C764 1.342 . S
N765 N766 1.388 . S
N766 Co749 1.993 . S
N766 N765 1.388 . S
N766 C767 1.346 . S
C767 N766 1.346 . S
C767 C768 1.396 . S
C767 C777 1.510 . S
C768 C764 1.401 . S
C768 C767 1.396 . S
C769 C764 1.499 . S
C769 H770 0.959 . S
C769 H771 0.960 . S
C769 H772 0.961 . S
H770 C769 0.959 . S
H771 C769 0.960 . S
H772 C769 0.961 . S
O773 Co748 1.967 . S
O773 C781 1.258 . S
O774 Co749 1.941 . S
O774 C781 1.266 . S
H775 C777 0.959 . S
H776 C777 0.961 . S
C777 C767 1.510 . S
C777 H775 0.959 . S
C777 H776 0.961 . S
C777 H778 0.960 . S
H778 C777 0.960 . S
H779 N759 0.862 . S
O780 Co748 1.920 . S
O780 C753 1.289 . S
C781 O773 1.258 . S
C781 O774 1.266 . S
Co782 O785 1.970 . S
Co782 N799 1.989 . S
Co782 O807 1.967 . S
Co782 O814 1.920 . S
Co783 O786 1.966 . S
Co783 N792 2.022 . S
Co783 N800 1.993 . S
Co783 O808 1.941 . S
C784 O785 1.258 . S
C784 O786 1.263 . S
O785 Co782 1.970 . S
O785 C784 1.258 . S
O786 Co783 1.966 . S
O786 C784 1.263 . S
C787 O788 1.235 . S
C787 O814 1.289 . S
O788 C787 1.235 . S
C789 C791 1.400 . S
C789 N792 1.351 . S
C789 C794 1.501 . S
C790 C791 1.387 . S
C790 N793 1.341 . S
C791 C789 1.400 . S
C791 C790 1.387 . S
N792 Co783 2.022 . S
N792 C789 1.351 . S
N792 N793 1.365 . S
N793 C790 1.341 . S
N793 N792 1.365 . S
N793 H813 0.862 . S
C794 C789 1.501 . S
C794 H795 0.961 . S
C794 H796 0.961 . S
C794 H797 0.960 . S
H795 C794 0.961 . S
H796 C794 0.961 . S
H797 C794 0.960 . S
C798 N799 1.342 . S
C798 C802 1.401 . S
C798 C803 1.499 . S
N799 Co782 1.989 . S
N799 C798 1.342 . S
N799 N800 1.388 . S
N800 Co783 1.993 . S
N800 N799 1.388 . S
N800 C801 1.346 . S
C801 N800 1.346 . S
C801 C802 1.396 . S
C801 C811 1.510 . S
C802 C798 1.401 . S
C802 C801 1.396 . S
C803 C798 1.499 . S
C803 H804 0.959 . S
C803 H805 0.960 . S
C803 H806 0.961 . S
H804 C803 0.959 . S
H805 C803 0.960 . S
H806 C803 0.961 . S
O807 Co782 1.967 . S
O807 C815 1.258 . S
O808 Co783 1.941 . S
O808 C815 1.266 . S
H809 C811 0.959 . S
H810 C811 0.961 . S
C811 C801 1.510 . S
C811 H809 0.959 . S
C811 H810 0.961 . S
C811 H812 0.960 . S
H812 C811 0.960 . S
H813 N793 0.862 . S
O814 Co782 1.920 . S
O814 C787 1.289 . S
C815 O807 1.258 . S
C815 O808 1.266 . S
Co816 O819 1.970 . S
Co816 N833 1.989 . S
Co816 O841 1.967 . S
Co816 O848 1.920 . S
Co817 O820 1.966 . S
Co817 N826 2.022 . S
Co817 N834 1.993 . S
Co817 O842 1.941 . S
C818 O819 1.258 . S
C818 O820 1.263 . S
O819 Co816 1.970 . S
O819 C818 1.258 . S
O820 Co817 1.966 . S
O820 C818 1.263 . S
C821 O822 1.235 . S
C821 O848 1.289 . S
O822 C821 1.235 . S
C823 C825 1.400 . S
C823 N826 1.351 . S
C823 C828 1.501 . S
C824 C825 1.387 . S
C824 N827 1.341 . S
C825 C823 1.400 . S
C825 C824 1.387 . S
N826 Co817 2.022 . S
N826 C823 1.351 . S
N826 N827 1.365 . S
N827 C824 1.341 . S
N827 N826 1.365 . S
N827 H847 0.862 . S
C828 C823 1.501 . S
C828 H829 0.961 . S
C828 H830 0.961 . S
C828 H831 0.960 . S
H829 C828 0.961 . S
H830 C828 0.961 . S
H831 C828 0.960 . S
C832 N833 1.342 . S
C832 C836 1.401 . S
C832 C837 1.499 . S
N833 Co816 1.989 . S
N833 C832 1.342 . S
N833 N834 1.388 . S
N834 Co817 1.993 . S
N834 N833 1.388 . S
N834 C835 1.346 . S
C835 N834 1.346 . S
C835 C836 1.396 . S
C835 C845 1.510 . S
C836 C832 1.401 . S
C836 C835 1.396 . S
C837 C832 1.499 . S
C837 H838 0.959 . S
C837 H839 0.960 . S
C837 H840 0.961 . S
H838 C837 0.959 . S
H839 C837 0.960 . S
H840 C837 0.961 . S
O841 Co816 1.967 . S
O841 C849 1.258 . S
O842 Co817 1.941 . S
O842 C849 1.266 . S
H843 C845 0.959 . S
H844 C845 0.961 . S
C845 C835 1.510 . S
C845 H843 0.959 . S
C845 H844 0.961 . S
C845 H846 0.960 . S
H846 C845 0.960 . S
H847 N827 0.862 . S
O848 Co816 1.920 . S
O848 C821 1.289 . S
C849 O841 1.258 . S
C849 O842 1.266 . S
Co850 O853 1.970 . S
Co850 N867 1.989 . S
Co850 O875 1.967 . S
Co850 O882 1.920 . S
Co851 O854 1.966 . S
Co851 N860 2.022 . S
Co851 N868 1.993 . S
Co851 O876 1.941 . S
C852 O853 1.258 . S
C852 O854 1.263 . S
O853 Co850 1.970 . S
O853 C852 1.258 . S
O854 Co851 1.966 . S
O854 C852 1.263 . S
C855 O856 1.235 . S
C855 O882 1.289 . S
O856 C855 1.235 . S
C857 C859 1.400 . S
C857 N860 1.351 . S
C857 C862 1.501 . S
C858 C859 1.387 . S
C858 N861 1.341 . S
C859 C857 1.400 . S
C859 C858 1.387 . S
N860 Co851 2.022 . S
N860 C857 1.351 . S
N860 N861 1.365 . S
N861 C858 1.341 . S
N861 N860 1.365 . S
N861 H881 0.862 . S
C862 C857 1.501 . S
C862 H863 0.961 . S
C862 H864 0.961 . S
C862 H865 0.960 . S
H863 C862 0.961 . S
H864 C862 0.961 . S
H865 C862 0.960 . S
C866 N867 1.342 . S
C866 C870 1.401 . S
C866 C871 1.499 . S
N867 Co850 1.989 . S
N867 C866 1.342 . S
N867 N868 1.388 . S
N868 Co851 1.993 . S
N868 N867 1.388 . S
N868 C869 1.346 . S
C869 N868 1.346 . S
C869 C870 1.396 . S
C869 C879 1.510 . S
C870 C866 1.401 . S
C870 C869 1.396 . S
C871 C866 1.499 . S
C871 H872 0.959 . S
C871 H873 0.960 . S
C871 H874 0.961 . S
H872 C871 0.959 . S
H873 C871 0.960 . S
H874 C871 0.961 . S
O875 Co850 1.967 . S
O875 C883 1.258 . S
O876 Co851 1.941 . S
O876 C883 1.266 . S
H877 C879 0.959 . S
H878 C879 0.961 . S
C879 C869 1.510 . S
C879 H877 0.959 . S
C879 H878 0.961 . S
C879 H880 0.960 . S
H880 C879 0.960 . S
H881 N861 0.862 . S
O882 Co850 1.920 . S
O882 C855 1.289 . S
C883 O875 1.258 . S
C883 O876 1.266 . S
Co884 O887 1.970 . S
Co884 N901 1.989 . S
Co884 O909 1.967 . S
Co884 O916 1.920 . S
Co885 O888 1.966 . S
Co885 N894 2.022 . S
Co885 N902 1.993 . S
Co885 O910 1.941 . S
C886 O887 1.258 . S
C886 O888 1.263 . S
O887 Co884 1.970 . S
O887 C886 1.258 . S
O888 Co885 1.966 . S
O888 C886 1.263 . S
C889 O890 1.235 . S
C889 O916 1.289 . S
O890 C889 1.235 . S
C891 C893 1.400 . S
C891 N894 1.351 . S
C891 C896 1.501 . S
C892 C893 1.387 . S
C892 N895 1.341 . S
C893 C891 1.400 . S
C893 C892 1.387 . S
N894 Co885 2.022 . S
N894 C891 1.351 . S
N894 N895 1.365 . S
N895 C892 1.341 . S
N895 N894 1.365 . S
N895 H915 0.862 . S
C896 C891 1.501 . S
C896 H897 0.961 . S
C896 H898 0.961 . S
C896 H899 0.960 . S
H897 C896 0.961 . S
H898 C896 0.961 . S
H899 C896 0.960 . S
C900 N901 1.342 . S
C900 C904 1.401 . S
C900 C905 1.499 . S
N901 Co884 1.989 . S
N901 C900 1.342 . S
N901 N902 1.388 . S
N902 Co885 1.993 . S
N902 N901 1.388 . S
N902 C903 1.346 . S
C903 N902 1.346 . S
C903 C904 1.396 . S
C903 C913 1.510 . S
C904 C900 1.401 . S
C904 C903 1.396 . S
C905 C900 1.499 . S
C905 H906 0.959 . S
C905 H907 0.960 . S
C905 H908 0.961 . S
H906 C905 0.959 . S
H907 C905 0.960 . S
H908 C905 0.961 . S
O909 Co884 1.967 . S
O909 C917 1.258 . S
O910 Co885 1.941 . S
O910 C917 1.266 . S
H911 C913 0.959 . S
H912 C913 0.961 . S
C913 C903 1.510 . S
C913 H911 0.959 . S
C913 H912 0.961 . S
C913 H914 0.960 . S
H914 C913 0.960 . S
H915 N895 0.862 . S
O916 Co884 1.920 . S
O916 C889 1.289 . S
C917 O909 1.258 . S
C917 O910 1.266 . S
Co918 O921 1.970 . S
Co918 N935 1.989 . S
Co918 O943 1.967 . S
Co918 O950 1.920 . S
Co919 O922 1.966 . S
Co919 N928 2.022 . S
Co919 N936 1.993 . S
Co919 O944 1.941 . S
C920 O921 1.258 . S
C920 O922 1.263 . S
O921 Co918 1.970 . S
O921 C920 1.258 . S
O922 Co919 1.966 . S
O922 C920 1.263 . S
C923 O924 1.235 . S
C923 O950 1.289 . S
O924 C923 1.235 . S
C925 C927 1.400 . S
C925 N928 1.351 . S
C925 C930 1.501 . S
C926 C927 1.387 . S
C926 N929 1.341 . S
C927 C925 1.400 . S
C927 C926 1.387 . S
N928 Co919 2.022 . S
N928 C925 1.351 . S
N928 N929 1.365 . S
N929 C926 1.341 . S
N929 N928 1.365 . S
N929 H949 0.862 . S
C930 C925 1.501 . S
C930 H931 0.961 . S
C930 H932 0.961 . S
C930 H933 0.960 . S
H931 C930 0.961 . S
H932 C930 0.961 . S
H933 C930 0.960 . S
C934 N935 1.342 . S
C934 C938 1.401 . S
C934 C939 1.499 . S
N935 Co918 1.989 . S
N935 C934 1.342 . S
N935 N936 1.388 . S
N936 Co919 1.993 . S
N936 N935 1.388 . S
N936 C937 1.346 . S
C937 N936 1.346 . S
C937 C938 1.396 . S
C937 C947 1.510 . S
C938 C934 1.401 . S
C938 C937 1.396 . S
C939 C934 1.499 . S
C939 H940 0.959 . S
C939 H941 0.960 . S
C939 H942 0.961 . S
H940 C939 0.959 . S
H941 C939 0.960 . S
H942 C939 0.961 . S
O943 Co918 1.967 . S
O943 C951 1.258 . S
O944 Co919 1.941 . S
O944 C951 1.266 . S
H945 C947 0.959 . S
H946 C947 0.961 . S
C947 C937 1.510 . S
C947 H945 0.959 . S
C947 H946 0.961 . S
C947 H948 0.960 . S
H948 C947 0.960 . S
H949 N929 0.862 . S
O950 Co918 1.920 . S
O950 C923 1.289 . S
C951 O943 1.258 . S
C951 O944 1.266 . S
Co952 O955 1.970 . S
Co952 N969 1.989 . S
Co952 O977 1.967 . S
Co952 O984 1.920 . S
Co953 O956 1.966 . S
Co953 N962 2.022 . S
Co953 N970 1.993 . S
Co953 O978 1.941 . S
C954 O955 1.258 . S
C954 O956 1.263 . S
O955 Co952 1.970 . S
O955 C954 1.258 . S
O956 Co953 1.966 . S
O956 C954 1.263 . S
C957 O958 1.235 . S
C957 O984 1.289 . S
O958 C957 1.235 . S
C959 C961 1.400 . S
C959 N962 1.351 . S
C959 C964 1.501 . S
C960 C961 1.387 . S
C960 N963 1.341 . S
C961 C959 1.400 . S
C961 C960 1.387 . S
N962 Co953 2.022 . S
N962 C959 1.351 . S
N962 N963 1.365 . S
N963 C960 1.341 . S
N963 N962 1.365 . S
N963 H983 0.862 . S
C964 C959 1.501 . S
C964 H965 0.961 . S
C964 H966 0.961 . S
C964 H967 0.960 . S
H965 C964 0.961 . S
H966 C964 0.961 . S
H967 C964 0.960 . S
C968 N969 1.342 . S
C968 C972 1.401 . S
C968 C973 1.499 . S
N969 Co952 1.989 . S
N969 C968 1.342 . S
N969 N970 1.388 . S
N970 Co953 1.993 . S
N970 N969 1.388 . S
N970 C971 1.346 . S
C971 N970 1.346 . S
C971 C972 1.396 . S
C971 C981 1.510 . S
C972 C968 1.401 . S
C972 C971 1.396 . S
C973 C968 1.499 . S
C973 H974 0.959 . S
C973 H975 0.960 . S
C973 H976 0.961 . S
H974 C973 0.959 . S
H975 C973 0.960 . S
H976 C973 0.961 . S
O977 Co952 1.967 . S
O977 C985 1.258 . S
O978 Co953 1.941 . S
O978 C985 1.266 . S
H979 C981 0.959 . S
H980 C981 0.961 . S
C981 C971 1.510 . S
C981 H979 0.959 . S
C981 H980 0.961 . S
C981 H982 0.960 . S
H982 C981 0.960 . S
H983 N963 0.862 . S
O984 Co952 1.920 . S
O984 C957 1.289 . S
C985 O977 1.258 . S
C985 O978 1.266 . S
Co986 O989 1.970 . S
Co986 N1003 1.989 . S
Co986 O1011 1.967 . S
Co986 O1018 1.920 . S
Co987 O990 1.966 . S
Co987 N996 2.022 . S
Co987 N1004 1.993 . S
Co987 O1012 1.941 . S
C988 O989 1.258 . S
C988 O990 1.263 . S
O989 Co986 1.970 . S
O989 C988 1.258 . S
O990 Co987 1.966 . S
O990 C988 1.263 . S
C991 O992 1.235 . S
C991 O1018 1.289 . S
O992 C991 1.235 . S
C993 C995 1.400 . S
C993 N996 1.351 . S
C993 C998 1.501 . S
C994 C995 1.387 . S
C994 N997 1.341 . S
C995 C993 1.400 . S
C995 C994 1.387 . S
N996 Co987 2.022 . S
N996 C993 1.351 . S
N996 N997 1.365 . S
N997 C994 1.341 . S
N997 N996 1.365 . S
N997 H1017 0.862 . S
C998 C993 1.501 . S
C998 H999 0.961 . S
C998 H1000 0.961 . S
C998 H1001 0.960 . S
H999 C998 0.961 . S
H1000 C998 0.961 . S
H1001 C998 0.960 . S
C1002 N1003 1.342 . S
C1002 C1006 1.401 . S
C1002 C1007 1.499 . S
N1003 Co986 1.989 . S
N1003 C1002 1.342 . S
N1003 N1004 1.388 . S
N1004 Co987 1.993 . S
N1004 N1003 1.388 . S
N1004 C1005 1.346 . S
C1005 N1004 1.346 . S
C1005 C1006 1.396 . S
C1005 C1015 1.510 . S
C1006 C1002 1.401 . S
C1006 C1005 1.396 . S
C1007 C1002 1.499 . S
C1007 H1008 0.959 . S
C1007 H1009 0.960 . S
C1007 H1010 0.961 . S
H1008 C1007 0.959 . S
H1009 C1007 0.960 . S
H1010 C1007 0.961 . S
O1011 Co986 1.967 . S
O1011 C1019 1.258 . S
O1012 Co987 1.941 . S
O1012 C1019 1.266 . S
H1013 C1015 0.959 . S
H1014 C1015 0.961 . S
C1015 C1005 1.510 . S
C1015 H1013 0.959 . S
C1015 H1014 0.961 . S
C1015 H1016 0.960 . S
H1016 C1015 0.960 . S
H1017 N997 0.862 . S
O1018 Co986 1.920 . S
O1018 C991 1.289 . S
C1019 O1011 1.258 . S
C1019 O1012 1.266 . S
Co1020 O1023 1.970 . S
Co1020 N1037 1.989 . S
Co1020 O1045 1.967 . S
Co1020 O1052 1.920 . S
Co1021 O1024 1.966 . S
Co1021 N1030 2.022 . S
Co1021 N1038 1.993 . S
Co1021 O1046 1.941 . S
C1022 O1023 1.258 . S
C1022 O1024 1.263 . S
O1023 Co1020 1.970 . S
O1023 C1022 1.258 . S
O1024 Co1021 1.966 . S
O1024 C1022 1.263 . S
C1025 O1026 1.235 . S
C1025 O1052 1.289 . S
O1026 C1025 1.235 . S
C1027 C1029 1.400 . S
C1027 N1030 1.351 . S
C1027 C1032 1.501 . S
C1028 C1029 1.387 . S
C1028 N1031 1.341 . S
C1029 C1027 1.400 . S
C1029 C1028 1.387 . S
N1030 Co1021 2.022 . S
N1030 C1027 1.351 . S
N1030 N1031 1.365 . S
N1031 C1028 1.341 . S
N1031 N1030 1.365 . S
N1031 H1051 0.862 . S
C1032 C1027 1.501 . S
C1032 H1033 0.961 . S
C1032 H1034 0.961 . S
C1032 H1035 0.960 . S
H1033 C1032 0.961 . S
H1034 C1032 0.961 . S
H1035 C1032 0.960 . S
C1036 N1037 1.342 . S
C1036 C1040 1.401 . S
C1036 C1041 1.499 . S
N1037 Co1020 1.989 . S
N1037 C1036 1.342 . S
N1037 N1038 1.388 . S
N1038 Co1021 1.993 . S
N1038 N1037 1.388 . S
N1038 C1039 1.346 . S
C1039 N1038 1.346 . S
C1039 C1040 1.396 . S
C1039 C1049 1.510 . S
C1040 C1036 1.401 . S
C1040 C1039 1.396 . S
C1041 C1036 1.499 . S
C1041 H1042 0.959 . S
C1041 H1043 0.960 . S
C1041 H1044 0.961 . S
H1042 C1041 0.959 . S
H1043 C1041 0.960 . S
H1044 C1041 0.961 . S
O1045 Co1020 1.967 . S
O1045 C1053 1.258 . S
O1046 Co1021 1.941 . S
O1046 C1053 1.266 . S
H1047 C1049 0.959 . S
H1048 C1049 0.961 . S
C1049 C1039 1.510 . S
C1049 H1047 0.959 . S
C1049 H1048 0.961 . S
C1049 H1050 0.960 . S
H1050 C1049 0.960 . S
H1051 N1031 0.862 . S
O1052 Co1020 1.920 . S
O1052 C1025 1.289 . S
C1053 O1045 1.258 . S
C1053 O1046 1.266 . S
Co1054 O1057 1.970 . S
Co1054 N1071 1.989 . S
Co1054 O1079 1.967 . S
Co1054 O1086 1.920 . S
Co1055 O1058 1.966 . S
Co1055 N1064 2.022 . S
Co1055 N1072 1.993 . S
Co1055 O1080 1.941 . S
C1056 O1057 1.258 . S
C1056 O1058 1.263 . S
O1057 Co1054 1.970 . S
O1057 C1056 1.258 . S
O1058 Co1055 1.966 . S
O1058 C1056 1.263 . S
C1059 O1060 1.235 . S
C1059 O1086 1.289 . S
O1060 C1059 1.235 . S
C1061 C1063 1.400 . S
C1061 N1064 1.351 . S
C1061 C1066 1.501 . S
C1062 C1063 1.387 . S
C1062 N1065 1.341 . S
C1063 C1061 1.400 . S
C1063 C1062 1.387 . S
N1064 Co1055 2.022 . S
N1064 C1061 1.351 . S
N1064 N1065 1.365 . S
N1065 C1062 1.341 . S
N1065 N1064 1.365 . S
N1065 H1085 0.862 . S
C1066 C1061 1.501 . S
C1066 H1067 0.961 . S
C1066 H1068 0.961 . S
C1066 H1069 0.960 . S
H1067 C1066 0.961 . S
H1068 C1066 0.961 . S
H1069 C1066 0.960 . S
C1070 N1071 1.342 . S
C1070 C1074 1.401 . S
C1070 C1075 1.499 . S
N1071 Co1054 1.989 . S
N1071 C1070 1.342 . S
N1071 N1072 1.388 . S
N1072 Co1055 1.993 . S
N1072 N1071 1.388 . S
N1072 C1073 1.346 . S
C1073 N1072 1.346 . S
C1073 C1074 1.396 . S
C1073 C1083 1.510 . S
C1074 C1070 1.401 . S
C1074 C1073 1.396 . S
C1075 C1070 1.499 . S
C1075 H1076 0.959 . S
C1075 H1077 0.960 . S
C1075 H1078 0.961 . S
H1076 C1075 0.959 . S
H1077 C1075 0.960 . S
H1078 C1075 0.961 . S
O1079 Co1054 1.967 . S
O1079 C1087 1.258 . S
O1080 Co1055 1.941 . S
O1080 C1087 1.266 . S
H1081 C1083 0.959 . S
H1082 C1083 0.961 . S
C1083 C1073 1.510 . S
C1083 H1081 0.959 . S
C1083 H1082 0.961 . S
C1083 H1084 0.960 . S
H1084 C1083 0.960 . S
H1085 N1065 0.862 . S
O1086 Co1054 1.920 . S
O1086 C1059 1.289 . S
C1087 O1079 1.258 . S
C1087 O1080 1.266 . S
Co1088 O1091 1.970 . S
Co1088 N1105 1.989 . S
Co1088 O1113 1.967 . S
Co1088 O1120 1.920 . S
Co1089 O1092 1.966 . S
Co1089 N1098 2.022 . S
Co1089 N1106 1.993 . S
Co1089 O1114 1.941 . S
C1090 O1091 1.258 . S
C1090 O1092 1.263 . S
O1091 Co1088 1.970 . S
O1091 C1090 1.258 . S
O1092 Co1089 1.966 . S
O1092 C1090 1.263 . S
C1093 O1094 1.235 . S
C1093 O1120 1.289 . S
O1094 C1093 1.235 . S
C1095 C1097 1.400 . S
C1095 N1098 1.351 . S
C1095 C1100 1.501 . S
C1096 C1097 1.387 . S
C1096 N1099 1.341 . S
C1097 C1095 1.400 . S
C1097 C1096 1.387 . S
N1098 Co1089 2.022 . S
N1098 C1095 1.351 . S
N1098 N1099 1.365 . S
N1099 C1096 1.341 . S
N1099 N1098 1.365 . S
N1099 H1119 0.862 . S
C1100 C1095 1.501 . S
C1100 H1101 0.961 . S
C1100 H1102 0.961 . S
C1100 H1103 0.960 . S
H1101 C1100 0.961 . S
H1102 C1100 0.961 . S
H1103 C1100 0.960 . S
C1104 N1105 1.342 . S
C1104 C1108 1.401 . S
C1104 C1109 1.499 . S
N1105 Co1088 1.989 . S
N1105 C1104 1.342 . S
N1105 N1106 1.388 . S
N1106 Co1089 1.993 . S
N1106 N1105 1.388 . S
N1106 C1107 1.346 . S
C1107 N1106 1.346 . S
C1107 C1108 1.396 . S
C1107 C1117 1.510 . S
C1108 C1104 1.401 . S
C1108 C1107 1.396 . S
C1109 C1104 1.499 . S
C1109 H1110 0.959 . S
C1109 H1111 0.960 . S
C1109 H1112 0.961 . S
H1110 C1109 0.959 . S
H1111 C1109 0.960 . S
H1112 C1109 0.961 . S
O1113 Co1088 1.967 . S
O1113 C1121 1.258 . S
O1114 Co1089 1.941 . S
O1114 C1121 1.266 . S
H1115 C1117 0.959 . S
H1116 C1117 0.961 . S
C1117 C1107 1.510 . S
C1117 H1115 0.959 . S
C1117 H1116 0.961 . S
C1117 H1118 0.960 . S
H1118 C1117 0.960 . S
H1119 N1099 0.862 . S
O1120 Co1088 1.920 . S
O1120 C1093 1.289 . S
C1121 O1113 1.258 . S
C1121 O1114 1.266 . S
Co1122 O1125 1.970 . S
Co1122 N1139 1.989 . S
Co1122 O1147 1.967 . S
Co1122 O1154 1.920 . S
Co1123 O1126 1.966 . S
Co1123 N1132 2.022 . S
Co1123 N1140 1.993 . S
Co1123 O1148 1.941 . S
C1124 O1125 1.258 . S
C1124 O1126 1.263 . S
O1125 Co1122 1.970 . S
O1125 C1124 1.258 . S
O1126 Co1123 1.966 . S
O1126 C1124 1.263 . S
C1127 O1128 1.235 . S
C1127 O1154 1.289 . S
O1128 C1127 1.235 . S
C1129 C1131 1.400 . S
C1129 N1132 1.351 . S
C1129 C1134 1.501 . S
C1130 C1131 1.387 . S
C1130 N1133 1.341 . S
C1131 C1129 1.400 . S
C1131 C1130 1.387 . S
N1132 Co1123 2.022 . S
N1132 C1129 1.351 . S
N1132 N1133 1.365 . S
N1133 C1130 1.341 . S
N1133 N1132 1.365 . S
N1133 H1153 0.862 . S
C1134 C1129 1.501 . S
C1134 H1135 0.961 . S
C1134 H1136 0.961 . S
C1134 H1137 0.960 . S
H1135 C1134 0.961 . S
H1136 C1134 0.961 . S
H1137 C1134 0.960 . S
C1138 N1139 1.342 . S
C1138 C1142 1.401 . S
C1138 C1143 1.499 . S
N1139 Co1122 1.989 . S
N1139 C1138 1.342 . S
N1139 N1140 1.388 . S
N1140 Co1123 1.993 . S
N1140 N1139 1.388 . S
N1140 C1141 1.346 . S
C1141 N1140 1.346 . S
C1141 C1142 1.396 . S
C1141 C1151 1.510 . S
C1142 C1138 1.401 . S
C1142 C1141 1.396 . S
C1143 C1138 1.499 . S
C1143 H1144 0.959 . S
C1143 H1145 0.960 . S
C1143 H1146 0.961 . S
H1144 C1143 0.959 . S
H1145 C1143 0.960 . S
H1146 C1143 0.961 . S
O1147 Co1122 1.967 . S
O1147 C1155 1.258 . S
O1148 Co1123 1.941 . S
O1148 C1155 1.266 . S
H1149 C1151 0.959 . S
H1150 C1151 0.961 . S
C1151 C1141 1.510 . S
C1151 H1149 0.959 . S
C1151 H1150 0.961 . S
C1151 H1152 0.960 . S
H1152 C1151 0.960 . S
H1153 N1133 0.862 . S
O1154 Co1122 1.920 . S
O1154 C1127 1.289 . S
C1155 O1147 1.258 . S
C1155 O1148 1.266 . S
Co1156 O1159 1.970 . S
Co1156 N1173 1.989 . S
Co1156 O1181 1.967 . S
Co1156 O1188 1.920 . S
Co1157 O1160 1.966 . S
Co1157 N1166 2.022 . S
Co1157 N1174 1.993 . S
Co1157 O1182 1.941 . S
C1158 O1159 1.258 . S
C1158 O1160 1.263 . S
O1159 Co1156 1.970 . S
O1159 C1158 1.258 . S
O1160 Co1157 1.966 . S
O1160 C1158 1.263 . S
C1161 O1162 1.235 . S
C1161 O1188 1.289 . S
O1162 C1161 1.235 . S
C1163 C1165 1.400 . S
C1163 N1166 1.351 . S
C1163 C1168 1.501 . S
C1164 C1165 1.387 . S
C1164 N1167 1.341 . S
C1165 C1163 1.400 . S
C1165 C1164 1.387 . S
N1166 Co1157 2.022 . S
N1166 C1163 1.351 . S
N1166 N1167 1.365 . S
N1167 C1164 1.341 . S
N1167 N1166 1.365 . S
N1167 H1187 0.862 . S
C1168 C1163 1.501 . S
C1168 H1169 0.961 . S
C1168 H1170 0.961 . S
C1168 H1171 0.960 . S
H1169 C1168 0.961 . S
H1170 C1168 0.961 . S
H1171 C1168 0.960 . S
C1172 N1173 1.342 . S
C1172 C1176 1.401 . S
C1172 C1177 1.499 . S
N1173 Co1156 1.989 . S
N1173 C1172 1.342 . S
N1173 N1174 1.388 . S
N1174 Co1157 1.993 . S
N1174 N1173 1.388 . S
N1174 C1175 1.346 . S
C1175 N1174 1.346 . S
C1175 C1176 1.396 . S
C1175 C1185 1.510 . S
C1176 C1172 1.401 . S
C1176 C1175 1.396 . S
C1177 C1172 1.499 . S
C1177 H1178 0.959 . S
C1177 H1179 0.960 . S
C1177 H1180 0.961 . S
H1178 C1177 0.959 . S
H1179 C1177 0.960 . S
H1180 C1177 0.961 . S
O1181 Co1156 1.967 . S
O1181 C1189 1.258 . S
O1182 Co1157 1.941 . S
O1182 C1189 1.266 . S
H1183 C1185 0.959 . S
H1184 C1185 0.961 . S
C1185 C1175 1.510 . S
C1185 H1183 0.959 . S
C1185 H1184 0.961 . S
C1185 H1186 0.960 . S
H1186 C1185 0.960 . S
H1187 N1167 0.862 . S
O1188 Co1156 1.920 . S
O1188 C1161 1.289 . S
C1189 O1181 1.258 . S
C1189 O1182 1.266 . S
Co1190 O1193 1.970 . S
Co1190 N1207 1.989 . S
Co1190 O1215 1.967 . S
Co1190 O1222 1.920 . S
Co1191 O1194 1.966 . S
Co1191 N1200 2.022 . S
Co1191 N1208 1.993 . S
Co1191 O1216 1.941 . S
C1192 O1193 1.258 . S
C1192 O1194 1.263 . S
O1193 Co1190 1.970 . S
O1193 C1192 1.258 . S
O1194 Co1191 1.966 . S
O1194 C1192 1.263 . S
C1195 O1196 1.235 . S
C1195 O1222 1.289 . S
O1196 C1195 1.235 . S
C1197 C1199 1.400 . S
C1197 N1200 1.351 . S
C1197 C1202 1.501 . S
C1198 C1199 1.387 . S
C1198 N1201 1.341 . S
C1199 C1197 1.400 . S
C1199 C1198 1.387 . S
N1200 Co1191 2.022 . S
N1200 C1197 1.351 . S
N1200 N1201 1.365 . S
N1201 C1198 1.341 . S
N1201 N1200 1.365 . S
N1201 H1221 0.862 . S
C1202 C1197 1.501 . S
C1202 H1203 0.961 . S
C1202 H1204 0.961 . S
C1202 H1205 0.960 . S
H1203 C1202 0.961 . S
H1204 C1202 0.961 . S
H1205 C1202 0.960 . S
C1206 N1207 1.342 . S
C1206 C1210 1.401 . S
C1206 C1211 1.499 . S
N1207 Co1190 1.989 . S
N1207 C1206 1.342 . S
N1207 N1208 1.388 . S
N1208 Co1191 1.993 . S
N1208 N1207 1.388 . S
N1208 C1209 1.346 . S
C1209 N1208 1.346 . S
C1209 C1210 1.396 . S
C1209 C1219 1.510 . S
C1210 C1206 1.401 . S
C1210 C1209 1.396 . S
C1211 C1206 1.499 . S
C1211 H1212 0.959 . S
C1211 H1213 0.960 . S
C1211 H1214 0.961 . S
H1212 C1211 0.959 . S
H1213 C1211 0.960 . S
H1214 C1211 0.961 . S
O1215 Co1190 1.967 . S
O1215 C1223 1.258 . S
O1216 Co1191 1.941 . S
O1216 C1223 1.266 . S
H1217 C1219 0.959 . S
H1218 C1219 0.961 . S
C1219 C1209 1.510 . S
C1219 H1217 0.959 . S
C1219 H1218 0.961 . S
C1219 H1220 0.960 . S
H1220 C1219 0.960 . S
H1221 N1201 0.862 . S
O1222 Co1190 1.920 . S
O1222 C1195 1.289 . S
C1223 O1215 1.258 . S
C1223 O1216 1.266 . S
Co1224 O1227 1.970 . S
Co1224 N1241 1.989 . S
Co1224 O1249 1.967 . S
Co1224 O1256 1.920 . S
Co1225 O1228 1.966 . S
Co1225 N1234 2.022 . S
Co1225 N1242 1.993 . S
Co1225 O1250 1.941 . S
C1226 O1227 1.258 . S
C1226 O1228 1.263 . S
O1227 Co1224 1.970 . S
O1227 C1226 1.258 . S
O1228 Co1225 1.966 . S
O1228 C1226 1.263 . S
C1229 O1230 1.235 . S
C1229 O1256 1.289 . S
O1230 C1229 1.235 . S
C1231 C1233 1.400 . S
C1231 N1234 1.351 . S
C1231 C1236 1.501 . S
C1232 C1233 1.387 . S
C1232 N1235 1.341 . S
C1233 C1231 1.400 . S
C1233 C1232 1.387 . S
N1234 Co1225 2.022 . S
N1234 C1231 1.351 . S
N1234 N1235 1.365 . S
N1235 C1232 1.341 . S
N1235 N1234 1.365 . S
N1235 H1255 0.862 . S
C1236 C1231 1.501 . S
C1236 H1237 0.961 . S
C1236 H1238 0.961 . S
C1236 H1239 0.960 . S
H1237 C1236 0.961 . S
H1238 C1236 0.961 . S
H1239 C1236 0.960 . S
C1240 N1241 1.342 . S
C1240 C1244 1.401 . S
C1240 C1245 1.499 . S
N1241 Co1224 1.989 . S
N1241 C1240 1.342 . S
N1241 N1242 1.388 . S
N1242 Co1225 1.993 . S
N1242 N1241 1.388 . S
N1242 C1243 1.346 . S
C1243 N1242 1.346 . S
C1243 C1244 1.396 . S
C1243 C1253 1.510 . S
C1244 C1240 1.401 . S
C1244 C1243 1.396 . S
C1245 C1240 1.499 . S
C1245 H1246 0.959 . S
C1245 H1247 0.960 . S
C1245 H1248 0.961 . S
H1246 C1245 0.959 . S
H1247 C1245 0.960 . S
H1248 C1245 0.961 . S
O1249 Co1224 1.967 . S
O1249 C1257 1.258 . S
O1250 Co1225 1.941 . S
O1250 C1257 1.266 . S
H1251 C1253 0.959 . S
H1252 C1253 0.961 . S
C1253 C1243 1.510 . S
C1253 H1251 0.959 . S
C1253 H1252 0.961 . S
C1253 H1254 0.960 . S
H1254 C1253 0.960 . S
H1255 N1235 0.862 . S
O1256 Co1224 1.920 . S
O1256 C1229 1.289 . S
C1257 O1249 1.258 . S
C1257 O1250 1.266 . S
Co1258 O1261 1.970 . S
Co1258 N1275 1.989 . S
Co1258 O1283 1.967 . S
Co1258 O1290 1.920 . S
Co1259 O1262 1.966 . S
Co1259 N1268 2.022 . S
Co1259 N1276 1.993 . S
Co1259 O1284 1.941 . S
C1260 O1261 1.258 . S
C1260 O1262 1.263 . S
O1261 Co1258 1.970 . S
O1261 C1260 1.258 . S
O1262 Co1259 1.966 . S
O1262 C1260 1.263 . S
C1263 O1264 1.235 . S
C1263 O1290 1.289 . S
O1264 C1263 1.235 . S
C1265 C1267 1.400 . S
C1265 N1268 1.351 . S
C1265 C1270 1.501 . S
C1266 C1267 1.387 . S
C1266 N1269 1.341 . S
C1267 C1265 1.400 . S
C1267 C1266 1.387 . S
N1268 Co1259 2.022 . S
N1268 C1265 1.351 . S
N1268 N1269 1.365 . S
N1269 C1266 1.341 . S
N1269 N1268 1.365 . S
N1269 H1289 0.862 . S
C1270 C1265 1.501 . S
C1270 H1271 0.961 . S
C1270 H1272 0.961 . S
C1270 H1273 0.960 . S
H1271 C1270 0.961 . S
H1272 C1270 0.961 . S
H1273 C1270 0.960 . S
C1274 N1275 1.342 . S
C1274 C1278 1.401 . S
C1274 C1279 1.499 . S
N1275 Co1258 1.989 . S
N1275 C1274 1.342 . S
N1275 N1276 1.388 . S
N1276 Co1259 1.993 . S
N1276 N1275 1.388 . S
N1276 C1277 1.346 . S
C1277 N1276 1.346 . S
C1277 C1278 1.396 . S
C1277 C1287 1.510 . S
C1278 C1274 1.401 . S
C1278 C1277 1.396 . S
C1279 C1274 1.499 . S
C1279 H1280 0.959 . S
C1279 H1281 0.960 . S
C1279 H1282 0.961 . S
H1280 C1279 0.959 . S
H1281 C1279 0.960 . S
H1282 C1279 0.961 . S
O1283 Co1258 1.967 . S
O1283 C1291 1.258 . S
O1284 Co1259 1.941 . S
O1284 C1291 1.266 . S
H1285 C1287 0.959 . S
H1286 C1287 0.961 . S
C1287 C1277 1.510 . S
C1287 H1285 0.959 . S
C1287 H1286 0.961 . S
C1287 H1288 0.960 . S
H1288 C1287 0.960 . S
H1289 N1269 0.862 . S
O1290 Co1258 1.920 . S
O1290 C1263 1.289 . S
C1291 O1283 1.258 . S
C1291 O1284 1.266 . S
Co1292 O1295 1.970 . S
Co1292 N1309 1.989 . S
Co1292 O1317 1.967 . S
Co1292 O1324 1.920 . S
Co1293 O1296 1.966 . S
Co1293 N1302 2.022 . S
Co1293 N1310 1.993 . S
Co1293 O1318 1.941 . S
C1294 O1295 1.258 . S
C1294 O1296 1.263 . S
O1295 Co1292 1.970 . S
O1295 C1294 1.258 . S
O1296 Co1293 1.966 . S
O1296 C1294 1.263 . S
C1297 O1298 1.235 . S
C1297 O1324 1.289 . S
O1298 C1297 1.235 . S
C1299 C1301 1.400 . S
C1299 N1302 1.351 . S
C1299 C1304 1.501 . S
C1300 C1301 1.387 . S
C1300 N1303 1.341 . S
C1301 C1299 1.400 . S
C1301 C1300 1.387 . S
N1302 Co1293 2.022 . S
N1302 C1299 1.351 . S
N1302 N1303 1.365 . S
N1303 C1300 1.341 . S
N1303 N1302 1.365 . S
N1303 H1323 0.862 . S
C1304 C1299 1.501 . S
C1304 H1305 0.961 . S
C1304 H1306 0.961 . S
C1304 H1307 0.960 . S
H1305 C1304 0.961 . S
H1306 C1304 0.961 . S
H1307 C1304 0.960 . S
C1308 N1309 1.342 . S
C1308 C1312 1.401 . S
C1308 C1313 1.499 . S
N1309 Co1292 1.989 . S
N1309 C1308 1.342 . S
N1309 N1310 1.388 . S
N1310 Co1293 1.993 . S
N1310 N1309 1.388 . S
N1310 C1311 1.346 . S
C1311 N1310 1.346 . S
C1311 C1312 1.396 . S
C1311 C1321 1.510 . S
C1312 C1308 1.401 . S
C1312 C1311 1.396 . S
C1313 C1308 1.499 . S
C1313 H1314 0.959 . S
C1313 H1315 0.960 . S
C1313 H1316 0.961 . S
H1314 C1313 0.959 . S
H1315 C1313 0.960 . S
H1316 C1313 0.961 . S
O1317 Co1292 1.967 . S
O1317 C1325 1.258 . S
O1318 Co1293 1.941 . S
O1318 C1325 1.266 . S
H1319 C1321 0.959 . S
H1320 C1321 0.961 . S
C1321 C1311 1.510 . S
C1321 H1319 0.959 . S
C1321 H1320 0.961 . S
C1321 H1322 0.960 . S
H1322 C1321 0.960 . S
H1323 N1303 0.862 . S
O1324 Co1292 1.920 . S
O1324 C1297 1.289 . S
C1325 O1317 1.258 . S
C1325 O1318 1.266 . S
Co1326 O1329 1.970 . S
Co1326 N1343 1.989 . S
Co1326 O1351 1.967 . S
Co1326 O1358 1.920 . S
Co1327 O1330 1.966 . S
Co1327 N1336 2.022 . S
Co1327 N1344 1.993 . S
Co1327 O1352 1.941 . S
C1328 O1329 1.258 . S
C1328 O1330 1.263 . S
O1329 Co1326 1.970 . S
O1329 C1328 1.258 . S
O1330 Co1327 1.966 . S
O1330 C1328 1.263 . S
C1331 O1332 1.235 . S
C1331 O1358 1.289 . S
O1332 C1331 1.235 . S
C1333 C1335 1.400 . S
C1333 N1336 1.351 . S
C1333 C1338 1.501 . S
C1334 C1335 1.387 . S
C1334 N1337 1.341 . S
C1335 C1333 1.400 . S
C1335 C1334 1.387 . S
N1336 Co1327 2.022 . S
N1336 C1333 1.351 . S
N1336 N1337 1.365 . S
N1337 C1334 1.341 . S
N1337 N1336 1.365 . S
N1337 H1357 0.862 . S
C1338 C1333 1.501 . S
C1338 H1339 0.961 . S
C1338 H1340 0.961 . S
C1338 H1341 0.960 . S
H1339 C1338 0.961 . S
H1340 C1338 0.961 . S
H1341 C1338 0.960 . S
C1342 N1343 1.342 . S
C1342 C1346 1.401 . S
C1342 C1347 1.499 . S
N1343 Co1326 1.989 . S
N1343 C1342 1.342 . S
N1343 N1344 1.388 . S
N1344 Co1327 1.993 . S
N1344 N1343 1.388 . S
N1344 C1345 1.346 . S
C1345 N1344 1.346 . S
C1345 C1346 1.396 . S
C1345 C1355 1.510 . S
C1346 C1342 1.401 . S
C1346 C1345 1.396 . S
C1347 C1342 1.499 . S
C1347 H1348 0.959 . S
C1347 H1349 0.960 . S
C1347 H1350 0.961 . S
H1348 C1347 0.959 . S
H1349 C1347 0.960 . S
H1350 C1347 0.961 . S
O1351 Co1326 1.967 . S
O1351 C1359 1.258 . S
O1352 Co1327 1.941 . S
O1352 C1359 1.266 . S
H1353 C1355 0.959 . S
H1354 C1355 0.961 . S
C1355 C1345 1.510 . S
C1355 H1353 0.959 . S
C1355 H1354 0.961 . S
C1355 H1356 0.960 . S
H1356 C1355 0.960 . S
H1357 N1337 0.862 . S
O1358 Co1326 1.920 . S
O1358 C1331 1.289 . S
C1359 O1351 1.258 . S
C1359 O1352 1.266 . S
Co1360 O1363 1.970 . S
Co1360 N1377 1.989 . S
Co1360 O1385 1.967 . S
Co1360 O1392 1.920 . S
Co1361 O1364 1.966 . S
Co1361 N1370 2.022 . S
Co1361 N1378 1.993 . S
Co1361 O1386 1.941 . S
C1362 O1363 1.258 . S
C1362 O1364 1.263 . S
O1363 Co1360 1.970 . S
O1363 C1362 1.258 . S
O1364 Co1361 1.966 . S
O1364 C1362 1.263 . S
C1365 O1366 1.235 . S
C1365 O1392 1.289 . S
O1366 C1365 1.235 . S
C1367 C1369 1.400 . S
C1367 N1370 1.351 . S
C1367 C1372 1.501 . S
C1368 C1369 1.387 . S
C1368 N1371 1.341 . S
C1369 C1367 1.400 . S
C1369 C1368 1.387 . S
N1370 Co1361 2.022 . S
N1370 C1367 1.351 . S
N1370 N1371 1.365 . S
N1371 C1368 1.341 . S
N1371 N1370 1.365 . S
N1371 H1391 0.862 . S
C1372 C1367 1.501 . S
C1372 H1373 0.961 . S
C1372 H1374 0.961 . S
C1372 H1375 0.960 . S
H1373 C1372 0.961 . S
H1374 C1372 0.961 . S
H1375 C1372 0.960 . S
C1376 N1377 1.342 . S
C1376 C1380 1.401 . S
C1376 C1381 1.499 . S
N1377 Co1360 1.989 . S
N1377 C1376 1.342 . S
N1377 N1378 1.388 . S
N1378 Co1361 1.993 . S
N1378 N1377 1.388 . S
N1378 C1379 1.346 . S
C1379 N1378 1.346 . S
C1379 C1380 1.396 . S
C1379 C1389 1.510 . S
C1380 C1376 1.401 . S
C1380 C1379 1.396 . S
C1381 C1376 1.499 . S
C1381 H1382 0.959 . S
C1381 H1383 0.960 . S
C1381 H1384 0.961 . S
H1382 C1381 0.959 . S
H1383 C1381 0.960 . S
H1384 C1381 0.961 . S
O1385 Co1360 1.967 . S
O1385 C1393 1.258 . S
O1386 Co1361 1.941 . S
O1386 C1393 1.266 . S
H1387 C1389 0.959 . S
H1388 C1389 0.961 . S
C1389 C1379 1.510 . S
C1389 H1387 0.959 . S
C1389 H1388 0.961 . S
C1389 H1390 0.960 . S
H1390 C1389 0.960 . S
H1391 N1371 0.862 . S
O1392 Co1360 1.920 . S
O1392 C1365 1.289 . S
C1393 O1385 1.258 . S
C1393 O1386 1.266 . S
Co1394 O1397 1.970 . S
Co1394 N1411 1.989 . S
Co1394 O1419 1.967 . S
Co1394 O1426 1.920 . S
Co1395 O1398 1.966 . S
Co1395 N1404 2.022 . S
Co1395 N1412 1.993 . S
Co1395 O1420 1.941 . S
C1396 O1397 1.258 . S
C1396 O1398 1.263 . S
O1397 Co1394 1.970 . S
O1397 C1396 1.258 . S
O1398 Co1395 1.966 . S
O1398 C1396 1.263 . S
C1399 O1400 1.235 . S
C1399 O1426 1.289 . S
O1400 C1399 1.235 . S
C1401 C1403 1.400 . S
C1401 N1404 1.351 . S
C1401 C1406 1.501 . S
C1402 C1403 1.387 . S
C1402 N1405 1.341 . S
C1403 C1401 1.400 . S
C1403 C1402 1.387 . S
N1404 Co1395 2.022 . S
N1404 C1401 1.351 . S
N1404 N1405 1.365 . S
N1405 C1402 1.341 . S
N1405 N1404 1.365 . S
N1405 H1425 0.862 . S
C1406 C1401 1.501 . S
C1406 H1407 0.961 . S
C1406 H1408 0.961 . S
C1406 H1409 0.960 . S
H1407 C1406 0.961 . S
H1408 C1406 0.961 . S
H1409 C1406 0.960 . S
C1410 N1411 1.342 . S
C1410 C1414 1.401 . S
C1410 C1415 1.499 . S
N1411 Co1394 1.989 . S
N1411 C1410 1.342 . S
N1411 N1412 1.388 . S
N1412 Co1395 1.993 . S
N1412 N1411 1.388 . S
N1412 C1413 1.346 . S
C1413 N1412 1.346 . S
C1413 C1414 1.396 . S
C1413 C1423 1.510 . S
C1414 C1410 1.401 . S
C1414 C1413 1.396 . S
C1415 C1410 1.499 . S
C1415 H1416 0.959 . S
C1415 H1417 0.960 . S
C1415 H1418 0.961 . S
H1416 C1415 0.959 . S
H1417 C1415 0.960 . S
H1418 C1415 0.961 . S
O1419 Co1394 1.967 . S
O1419 C1427 1.258 . S
O1420 Co1395 1.941 . S
O1420 C1427 1.266 . S
H1421 C1423 0.959 . S
H1422 C1423 0.961 . S
C1423 C1413 1.510 . S
C1423 H1421 0.959 . S
C1423 H1422 0.961 . S
C1423 H1424 0.960 . S
H1424 C1423 0.960 . S
H1425 N1405 0.862 . S
O1426 Co1394 1.920 . S
O1426 C1399 1.289 . S
C1427 O1419 1.258 . S
C1427 O1420 1.266 . S
Co1428 O1431 1.970 . S
Co1428 N1445 1.989 . S
Co1428 O1453 1.967 . S
Co1428 O1460 1.920 . S
Co1429 O1432 1.966 . S
Co1429 N1438 2.022 . S
Co1429 N1446 1.993 . S
Co1429 O1454 1.941 . S
C1430 O1431 1.258 . S
C1430 O1432 1.263 . S
O1431 Co1428 1.970 . S
O1431 C1430 1.258 . S
O1432 Co1429 1.966 . S
O1432 C1430 1.263 . S
C1433 O1434 1.235 . S
C1433 O1460 1.289 . S
O1434 C1433 1.235 . S
C1435 C1437 1.400 . S
C1435 N1438 1.351 . S
C1435 C1440 1.501 . S
C1436 C1437 1.387 . S
C1436 N1439 1.341 . S
C1437 C1435 1.400 . S
C1437 C1436 1.387 . S
N1438 Co1429 2.022 . S
N1438 C1435 1.351 . S
N1438 N1439 1.365 . S
N1439 C1436 1.341 . S
N1439 N1438 1.365 . S
N1439 H1459 0.862 . S
C1440 C1435 1.501 . S
C1440 H1441 0.961 . S
C1440 H1442 0.961 . S
C1440 H1443 0.960 . S
H1441 C1440 0.961 . S
H1442 C1440 0.961 . S
H1443 C1440 0.960 . S
C1444 N1445 1.342 . S
C1444 C1448 1.401 . S
C1444 C1449 1.499 . S
N1445 Co1428 1.989 . S
N1445 C1444 1.342 . S
N1445 N1446 1.388 . S
N1446 Co1429 1.993 . S
N1446 N1445 1.388 . S
N1446 C1447 1.346 . S
C1447 N1446 1.346 . S
C1447 C1448 1.396 . S
C1447 C1457 1.510 . S
C1448 C1444 1.401 . S
C1448 C1447 1.396 . S
C1449 C1444 1.499 . S
C1449 H1450 0.959 . S
C1449 H1451 0.960 . S
C1449 H1452 0.961 . S
H1450 C1449 0.959 . S
H1451 C1449 0.960 . S
H1452 C1449 0.961 . S
O1453 Co1428 1.967 . S
O1453 C1461 1.258 . S
O1454 Co1429 1.941 . S
O1454 C1461 1.266 . S
H1455 C1457 0.959 . S
H1456 C1457 0.961 . S
C1457 C1447 1.510 . S
C1457 H1455 0.959 . S
C1457 H1456 0.961 . S
C1457 H1458 0.960 . S
H1458 C1457 0.960 . S
H1459 N1439 0.862 . S
O1460 Co1428 1.920 . S
O1460 C1433 1.289 . S
C1461 O1453 1.258 . S
C1461 O1454 1.266 . S
Co1462 O1465 1.970 . S
Co1462 N1479 1.989 . S
Co1462 O1487 1.967 . S
Co1462 O1494 1.920 . S
Co1463 O1466 1.966 . S
Co1463 N1472 2.022 . S
Co1463 N1480 1.993 . S
Co1463 O1488 1.941 . S
C1464 O1465 1.258 . S
C1464 O1466 1.263 . S
O1465 Co1462 1.970 . S
O1465 C1464 1.258 . S
O1466 Co1463 1.966 . S
O1466 C1464 1.263 . S
C1467 O1468 1.235 . S
C1467 O1494 1.289 . S
O1468 C1467 1.235 . S
C1469 C1471 1.400 . S
C1469 N1472 1.351 . S
C1469 C1474 1.501 . S
C1470 C1471 1.387 . S
C1470 N1473 1.341 . S
C1471 C1469 1.400 . S
C1471 C1470 1.387 . S
N1472 Co1463 2.022 . S
N1472 C1469 1.351 . S
N1472 N1473 1.365 . S
N1473 C1470 1.341 . S
N1473 N1472 1.365 . S
N1473 H1493 0.862 . S
C1474 C1469 1.501 . S
C1474 H1475 0.961 . S
C1474 H1476 0.961 . S
C1474 H1477 0.960 . S
H1475 C1474 0.961 . S
H1476 C1474 0.961 . S
H1477 C1474 0.960 . S
C1478 N1479 1.342 . S
C1478 C1482 1.401 . S
C1478 C1483 1.499 . S
N1479 Co1462 1.989 . S
N1479 C1478 1.342 . S
N1479 N1480 1.388 . S
N1480 Co1463 1.993 . S
N1480 N1479 1.388 . S
N1480 C1481 1.346 . S
C1481 N1480 1.346 . S
C1481 C1482 1.396 . S
C1481 C1491 1.510 . S
C1482 C1478 1.401 . S
C1482 C1481 1.396 . S
C1483 C1478 1.499 . S
C1483 H1484 0.959 . S
C1483 H1485 0.960 . S
C1483 H1486 0.961 . S
H1484 C1483 0.959 . S
H1485 C1483 0.960 . S
H1486 C1483 0.961 . S
O1487 Co1462 1.967 . S
O1487 C1495 1.258 . S
O1488 Co1463 1.941 . S
O1488 C1495 1.266 . S
H1489 C1491 0.959 . S
H1490 C1491 0.961 . S
C1491 C1481 1.510 . S
C1491 H1489 0.959 . S
C1491 H1490 0.961 . S
C1491 H1492 0.960 . S
H1492 C1491 0.960 . S
H1493 N1473 0.862 . S
O1494 Co1462 1.920 . S
O1494 C1467 1.289 . S
C1495 O1487 1.258 . S
C1495 O1488 1.266 . S
Co1496 O1499 1.970 . S
Co1496 N1513 1.989 . S
Co1496 O1521 1.967 . S
Co1496 O1528 1.920 . S
Co1497 O1500 1.966 . S
Co1497 N1506 2.022 . S
Co1497 N1514 1.993 . S
Co1497 O1522 1.941 . S
C1498 O1499 1.258 . S
C1498 O1500 1.263 . S
O1499 Co1496 1.970 . S
O1499 C1498 1.258 . S
O1500 Co1497 1.966 . S
O1500 C1498 1.263 . S
C1501 O1502 1.235 . S
C1501 O1528 1.289 . S
O1502 C1501 1.235 . S
C1503 C1505 1.400 . S
C1503 N1506 1.351 . S
C1503 C1508 1.501 . S
C1504 C1505 1.387 . S
C1504 N1507 1.341 . S
C1505 C1503 1.400 . S
C1505 C1504 1.387 . S
N1506 Co1497 2.022 . S
N1506 C1503 1.351 . S
N1506 N1507 1.365 . S
N1507 C1504 1.341 . S
N1507 N1506 1.365 . S
N1507 H1527 0.862 . S
C1508 C1503 1.501 . S
C1508 H1509 0.961 . S
C1508 H1510 0.961 . S
C1508 H1511 0.960 . S
H1509 C1508 0.961 . S
H1510 C1508 0.961 . S
H1511 C1508 0.960 . S
C1512 N1513 1.342 . S
C1512 C1516 1.401 . S
C1512 C1517 1.499 . S
N1513 Co1496 1.989 . S
N1513 C1512 1.342 . S
N1513 N1514 1.388 . S
N1514 Co1497 1.993 . S
N1514 N1513 1.388 . S
N1514 C1515 1.346 . S
C1515 N1514 1.346 . S
C1515 C1516 1.396 . S
C1515 C1525 1.510 . S
C1516 C1512 1.401 . S
C1516 C1515 1.396 . S
C1517 C1512 1.499 . S
C1517 H1518 0.959 . S
C1517 H1519 0.960 . S
C1517 H1520 0.961 . S
H1518 C1517 0.959 . S
H1519 C1517 0.960 . S
H1520 C1517 0.961 . S
O1521 Co1496 1.967 . S
O1521 C1529 1.258 . S
O1522 Co1497 1.941 . S
O1522 C1529 1.266 . S
H1523 C1525 0.959 . S
H1524 C1525 0.961 . S
C1525 C1515 1.510 . S
C1525 H1523 0.959 . S
C1525 H1524 0.961 . S
C1525 H1526 0.960 . S
H1526 C1525 0.960 . S
H1527 N1507 0.862 . S
O1528 Co1496 1.920 . S
O1528 C1501 1.289 . S
C1529 O1521 1.258 . S
C1529 O1522 1.266 . S
Co1530 O1533 1.970 . S
Co1530 N1547 1.989 . S
Co1530 O1555 1.967 . S
Co1530 O1562 1.920 . S
Co1531 O1534 1.966 . S
Co1531 N1540 2.022 . S
Co1531 N1548 1.993 . S
Co1531 O1556 1.941 . S
C1532 O1533 1.258 . S
C1532 O1534 1.263 . S
O1533 Co1530 1.970 . S
O1533 C1532 1.258 . S
O1534 Co1531 1.966 . S
O1534 C1532 1.263 . S
C1535 O1536 1.235 . S
C1535 O1562 1.289 . S
O1536 C1535 1.235 . S
C1537 C1539 1.400 . S
C1537 N1540 1.351 . S
C1537 C1542 1.501 . S
C1538 C1539 1.387 . S
C1538 N1541 1.341 . S
C1539 C1537 1.400 . S
C1539 C1538 1.387 . S
N1540 Co1531 2.022 . S
N1540 C1537 1.351 . S
N1540 N1541 1.365 . S
N1541 C1538 1.341 . S
N1541 N1540 1.365 . S
N1541 H1561 0.862 . S
C1542 C1537 1.501 . S
C1542 H1543 0.961 . S
C1542 H1544 0.961 . S
C1542 H1545 0.960 . S
H1543 C1542 0.961 . S
H1544 C1542 0.961 . S
H1545 C1542 0.960 . S
C1546 N1547 1.342 . S
C1546 C1550 1.401 . S
C1546 C1551 1.499 . S
N1547 Co1530 1.989 . S
N1547 C1546 1.342 . S
N1547 N1548 1.388 . S
N1548 Co1531 1.993 . S
N1548 N1547 1.388 . S
N1548 C1549 1.346 . S
C1549 N1548 1.346 . S
C1549 C1550 1.396 . S
C1549 C1559 1.510 . S
C1550 C1546 1.401 . S
C1550 C1549 1.396 . S
C1551 C1546 1.499 . S
C1551 H1552 0.959 . S
C1551 H1553 0.960 . S
C1551 H1554 0.961 . S
H1552 C1551 0.959 . S
H1553 C1551 0.960 . S
H1554 C1551 0.961 . S
O1555 Co1530 1.967 . S
O1555 C1563 1.258 . S
O1556 Co1531 1.941 . S
O1556 C1563 1.266 . S
H1557 C1559 0.959 . S
H1558 C1559 0.961 . S
C1559 C1549 1.510 . S
C1559 H1557 0.959 . S
C1559 H1558 0.961 . S
C1559 H1560 0.960 . S
H1560 C1559 0.960 . S
H1561 N1541 0.862 . S
O1562 Co1530 1.920 . S
O1562 C1535 1.289 . S
C1563 O1555 1.258 . S
C1563 O1556 1.266 . S
Co1564 O1567 1.970 . S
Co1564 N1581 1.989 . S
Co1564 O1589 1.967 . S
Co1564 O1596 1.920 . S
Co1565 O1568 1.966 . S
Co1565 N1574 2.022 . S
Co1565 N1582 1.993 . S
Co1565 O1590 1.941 . S
C1566 O1567 1.258 . S
C1566 O1568 1.263 . S
O1567 Co1564 1.970 . S
O1567 C1566 1.258 . S
O1568 Co1565 1.966 . S
O1568 C1566 1.263 . S
C1569 O1570 1.235 . S
C1569 O1596 1.289 . S
O1570 C1569 1.235 . S
C1571 C1573 1.400 . S
C1571 N1574 1.351 . S
C1571 C1576 1.501 . S
C1572 C1573 1.387 . S
C1572 N1575 1.341 . S
C1573 C1571 1.400 . S
C1573 C1572 1.387 . S
N1574 Co1565 2.022 . S
N1574 C1571 1.351 . S
N1574 N1575 1.365 . S
N1575 C1572 1.341 . S
N1575 N1574 1.365 . S
N1575 H1595 0.862 . S
C1576 C1571 1.501 . S
C1576 H1577 0.961 . S
C1576 H1578 0.961 . S
C1576 H1579 0.960 . S
H1577 C1576 0.961 . S
H1578 C1576 0.961 . S
H1579 C1576 0.960 . S
C1580 N1581 1.342 . S
C1580 C1584 1.401 . S
C1580 C1585 1.499 . S
N1581 Co1564 1.989 . S
N1581 C1580 1.342 . S
N1581 N1582 1.388 . S
N1582 Co1565 1.993 . S
N1582 N1581 1.388 . S
N1582 C1583 1.346 . S
C1583 N1582 1.346 . S
C1583 C1584 1.396 . S
C1583 C1593 1.510 . S
C1584 C1580 1.401 . S
C1584 C1583 1.396 . S
C1585 C1580 1.499 . S
C1585 H1586 0.959 . S
C1585 H1587 0.960 . S
C1585 H1588 0.961 . S
H1586 C1585 0.959 . S
H1587 C1585 0.960 . S
H1588 C1585 0.961 . S
O1589 Co1564 1.967 . S
O1589 C1597 1.258 . S
O1590 Co1565 1.941 . S
O1590 C1597 1.266 . S
H1591 C1593 0.959 . S
H1592 C1593 0.961 . S
C1593 C1583 1.510 . S
C1593 H1591 0.959 . S
C1593 H1592 0.961 . S
C1593 H1594 0.960 . S
H1594 C1593 0.960 . S
H1595 N1575 0.862 . S
O1596 Co1564 1.920 . S
O1596 C1569 1.289 . S
C1597 O1589 1.258 . S
C1597 O1590 1.266 . S
Co1598 O1601 1.970 . S
Co1598 N1615 1.989 . S
Co1598 O1623 1.967 . S
Co1598 O1630 1.920 . S
Co1599 O1602 1.966 . S
Co1599 N1608 2.022 . S
Co1599 N1616 1.993 . S
Co1599 O1624 1.941 . S
C1600 O1601 1.258 . S
C1600 O1602 1.263 . S
O1601 Co1598 1.970 . S
O1601 C1600 1.258 . S
O1602 Co1599 1.966 . S
O1602 C1600 1.263 . S
C1603 O1604 1.235 . S
C1603 O1630 1.289 . S
O1604 C1603 1.235 . S
C1605 C1607 1.400 . S
C1605 N1608 1.351 . S
C1605 C1610 1.501 . S
C1606 C1607 1.387 . S
C1606 N1609 1.341 . S
C1607 C1605 1.400 . S
C1607 C1606 1.387 . S
N1608 Co1599 2.022 . S
N1608 C1605 1.351 . S
N1608 N1609 1.365 . S
N1609 C1606 1.341 . S
N1609 N1608 1.365 . S
N1609 H1629 0.862 . S
C1610 C1605 1.501 . S
C1610 H1611 0.961 . S
C1610 H1612 0.961 . S
C1610 H1613 0.960 . S
H1611 C1610 0.961 . S
H1612 C1610 0.961 . S
H1613 C1610 0.960 . S
C1614 N1615 1.342 . S
C1614 C1618 1.401 . S
C1614 C1619 1.499 . S
N1615 Co1598 1.989 . S
N1615 C1614 1.342 . S
N1615 N1616 1.388 . S
N1616 Co1599 1.993 . S
N1616 N1615 1.388 . S
N1616 C1617 1.346 . S
C1617 N1616 1.346 . S
C1617 C1618 1.396 . S
C1617 C1627 1.510 . S
C1618 C1614 1.401 . S
C1618 C1617 1.396 . S
C1619 C1614 1.499 . S
C1619 H1620 0.959 . S
C1619 H1621 0.960 . S
C1619 H1622 0.961 . S
H1620 C1619 0.959 . S
H1621 C1619 0.960 . S
H1622 C1619 0.961 . S
O1623 Co1598 1.967 . S
O1623 C1631 1.258 . S
O1624 Co1599 1.941 . S
O1624 C1631 1.266 . S
H1625 C1627 0.959 . S
H1626 C1627 0.961 . S
C1627 C1617 1.510 . S
C1627 H1625 0.959 . S
C1627 H1626 0.961 . S
C1627 H1628 0.960 . S
H1628 C1627 0.960 . S
H1629 N1609 0.862 . S
O1630 Co1598 1.920 . S
O1630 C1603 1.289 . S
C1631 O1623 1.258 . S
C1631 O1624 1.266 . S
H1632 C1640 0.950 . S
H1633 C1645 0.950 . S
H1634 C1642 0.950 . S
H1635 C1644 0.950 . S
H1636 C1646 0.950 . S
H1637 C1648 0.950 . S
H1638 C1650 0.950 . S
H1639 C1651 0.950 . S
C1640 H1632 0.950 . S
C1640 C1641 1.386 . S
C1640 C1642 1.391 . S
C1641 C1640 1.386 . S
C1641 C1645 1.393 . S
C1642 H1634 0.950 . S
C1642 C1640 1.391 . S
C1642 C1643 1.400 . S
C1643 C1642 1.400 . S
C1643 C1644 1.398 . S
C1643 C1649 1.491 . S
C1644 H1635 0.950 . S
C1644 C1643 1.398 . S
C1644 C1645 1.391 . S
C1645 H1633 0.950 . S
C1645 C1641 1.393 . S
C1645 C1644 1.391 . S
C1646 H1636 0.950 . S
C1646 C1647 1.386 . S
C1646 C1648 1.391 . S
C1647 C1646 1.386 . S
C1647 C1651 1.393 . S
C1648 H1637 0.950 . S
C1648 C1646 1.391 . S
C1648 C1649 1.400 . S
C1649 C1643 1.491 . S
C1649 C1648 1.400 . S
C1649 C1650 1.398 . S
C1650 H1638 0.950 . S
C1650 C1649 1.398 . S
C1650 C1651 1.391 . S
C1651 H1639 0.950 . S
C1651 C1647 1.393 . S
C1651 C1650 1.391 . S
H1652 C1660 0.950 . S
H1653 C1665 0.950 . S
H1654 C1662 0.950 1_554 S
H1655 C1664 0.950 . S
H1656 C1666 0.950 . S
H1657 C1668 0.950 . S
H1658 C1670 0.950 . S
H1659 C1671 0.950 . S
C1660 H1652 0.950 . S
C1660 C1661 1.386 . S
C1660 C1662 1.391 . S
C1661 C1660 1.386 . S
C1661 C1665 1.393 . S
C1662 H1654 0.950 1_556 S
C1662 C1660 1.391 . S
C1662 C1663 1.400 . S
C1663 C1662 1.400 . S
C1663 C1664 1.398 . S
C1663 C1669 1.491 . S
C1664 H1655 0.950 . S
C1664 C1663 1.398 . S
C1664 C1665 1.391 . S
C1665 H1653 0.950 . S
C1665 C1661 1.393 . S
C1665 C1664 1.391 . S
C1666 H1656 0.950 . S
C1666 C1667 1.386 . S
C1666 C1668 1.391 . S
C1667 C1666 1.386 . S
C1667 C1671 1.393 1_556 S
C1668 H1657 0.950 . S
C1668 C1666 1.391 . S
C1668 C1669 1.400 . S
C1669 C1663 1.491 . S
C1669 C1668 1.400 . S
C1669 C1670 1.398 1_556 S
C1670 H1658 0.950 . S
C1670 C1669 1.398 1_554 S
C1670 C1671 1.391 . S
C1671 H1659 0.950 . S
C1671 C1667 1.393 1_554 S
C1671 C1670 1.391 . S
H1672 C1680 0.950 . S
H1673 C1685 0.950 . S
H1674 C1682 0.950 . S
H1675 C1684 0.950 . S
H1676 C1686 0.950 . S
H1677 C1688 0.950 . S
H1678 C1690 0.950 . S
H1679 C1691 0.950 . S
C1680 H1672 0.950 . S
C1680 C1681 1.386 . S
C1680 C1682 1.391 . S
C1681 C1680 1.386 . S
C1681 C1685 1.393 . S
C1682 H1674 0.950 . S
C1682 C1680 1.391 . S
C1682 C1683 1.400 . S
C1683 C1682 1.400 . S
C1683 C1684 1.398 . S
C1683 C1689 1.491 . S
C1684 H1675 0.950 . S
C1684 C1683 1.398 . S
C1684 C1685 1.391 . S
C1685 H1673 0.950 . S
C1685 C1681 1.393 . S
C1685 C1684 1.391 . S
C1686 H1676 0.950 . S
C1686 C1687 1.386 . S
C1686 C1688 1.391 . S
C1687 C1686 1.386 . S
C1687 C1691 1.393 . S
C1688 H1677 0.950 . S
C1688 C1686 1.391 . S
C1688 C1689 1.400 . S
C1689 C1683 1.491 . S
C1689 C1688 1.400 . S
C1689 C1690 1.398 . S
C1690 H1678 0.950 . S
C1690 C1689 1.398 . S
C1690 C1691 1.391 . S
C1691 H1679 0.950 . S
C1691 C1687 1.393 . S
C1691 C1690 1.391 . S
H1692 C1700 0.950 . S
H1693 C1705 0.950 . S
H1694 C1702 0.932 1_554 S
H1695 C1704 0.950 . S
H1696 C1706 0.950 . S
H1697 C1708 0.950 . S
H1698 C1710 0.950 . S
H1699 C1711 0.950 . S
C1700 H1692 0.950 . S
C1700 C1701 1.386 1_554 S
C1700 C1702 1.391 1_554 S
C1701 C1700 1.386 1_556 S
C1701 C1705 1.393 . S
C1702 H1694 0.932 1_556 S
C1702 C1700 1.391 1_556 S
C1702 C1703 1.400 . S
C1703 C1702 1.400 . S
C1703 C1704 1.398 . S
C1703 C1709 1.491 . S
C1704 H1695 0.950 . S
C1704 C1703 1.398 . S
C1704 C1705 1.391 . S
C1705 H1693 0.950 . S
C1705 C1701 1.393 . S
C1705 C1704 1.391 . S
C1706 H1696 0.950 . S
C1706 C1707 1.386 . S
C1706 C1708 1.391 . S
C1707 C1706 1.386 . S
C1707 C1711 1.393 . S
C1708 H1697 0.950 . S
C1708 C1706 1.391 . S
C1708 C1709 1.400 . S
C1709 C1703 1.491 . S
C1709 C1708 1.400 . S
C1709 C1710 1.398 . S
C1710 H1698 0.950 . S
C1710 C1709 1.398 . S
C1710 C1711 1.391 . S
C1711 H1699 0.950 . S
C1711 C1707 1.393 . S
C1711 C1710 1.391 . S
H1712 C1720 0.950 . S
H1713 C1725 0.950 . S
H1714 C1722 0.950 . S
H1715 C1724 0.950 . S
H1716 C1726 0.950 . S
H1717 C1728 0.950 . S
H1718 C1730 0.950 . S
H1719 C1731 0.950 . S
C1720 H1712 0.950 . S
C1720 C1721 1.386 . S
C1720 C1722 1.391 . S
C1721 C1720 1.386 . S
C1721 C1725 1.393 . S
C1722 H1714 0.950 . S
C1722 C1720 1.391 . S
C1722 C1723 1.400 . S
C1723 C1722 1.400 . S
C1723 C1724 1.398 . S
C1723 C1729 1.491 . S
C1724 H1715 0.950 . S
C1724 C1723 1.398 . S
C1724 C1725 1.391 . S
C1725 H1713 0.950 . S
C1725 C1721 1.393 . S
C1725 C1724 1.391 . S
C1726 H1716 0.950 . S
C1726 C1727 1.386 . S
C1726 C1728 1.391 . S
C1727 C1726 1.386 . S
C1727 C1731 1.393 . S
C1728 H1717 0.950 . S
C1728 C1726 1.391 . S
C1728 C1729 1.400 . S
C1729 C1723 1.491 . S
C1729 C1728 1.400 . S
C1729 C1730 1.398 . S
C1730 H1718 0.950 . S
C1730 C1729 1.398 . S
C1730 C1731 1.391 . S
C1731 H1719 0.950 . S
C1731 C1727 1.393 . S
C1731 C1730 1.391 . S
H1732 C1740 0.950 . S
H1733 C1745 0.950 . S
H1734 C1742 0.950 . S
H1735 C1744 0.950 . S
H1736 C1746 0.950 . S
H1737 C1748 0.950 1_556 S
H1738 C1750 0.950 . S
H1739 C1751 0.950 . S
C1740 H1732 0.950 . S
C1740 C1741 1.386 . S
C1740 C1742 1.391 . S
C1741 C1740 1.386 . S
C1741 C1745 1.393 . S
C1742 H1734 0.950 . S
C1742 C1740 1.391 . S
C1742 C1743 1.400 . S
C1743 C1742 1.400 . S
C1743 C1744 1.398 . S
C1743 C1749 1.491 . S
C1744 H1735 0.950 . S
C1744 C1743 1.398 . S
C1744 C1745 1.391 . S
C1745 H1733 0.950 . S
C1745 C1741 1.393 . S
C1745 C1744 1.391 . S
C1746 H1736 0.950 . S
C1746 C1747 1.366 1_456 S
C1746 C1748 1.391 1_556 S
C1747 C1746 1.366 1_654 S
C1747 C1751 1.374 1_655 S
C1748 H1737 0.950 1_554 S
C1748 C1746 1.391 1_554 S
C1748 C1749 1.400 . S
C1749 C1743 1.491 . S
C1749 C1748 1.400 . S
C1749 C1750 1.398 . S
C1750 H1738 0.950 . S
C1750 C1749 1.398 . S
C1750 C1751 1.391 . S
C1751 H1739 0.950 . S
C1751 C1747 1.374 1_455 S
C1751 C1750 1.391 . S
H1752 C1760 0.950 . S
H1753 C1765 0.950 . S
H1754 C1762 0.950 . S
H1755 C1764 0.950 . S
H1756 C1766 0.950 . S
H1757 C1768 0.950 . S
H1758 C1770 0.950 . S
H1759 C1771 0.950 . S
C1760 H1752 0.950 . S
C1760 C1761 1.386 . S
C1760 C1762 1.391 . S
C1761 C1760 1.386 . S
C1761 C1765 1.393 . S
C1762 H1754 0.950 . S
C1762 C1760 1.391 . S
C1762 C1763 1.400 . S
C1763 C1762 1.400 . S
C1763 C1764 1.398 . S
C1763 C1769 1.491 . S
C1764 H1755 0.950 . S
C1764 C1763 1.398 . S
C1764 C1765 1.391 . S
C1765 H1753 0.950 . S
C1765 C1761 1.393 . S
C1765 C1764 1.391 . S
C1766 H1756 0.950 . S
C1766 C1767 1.386 . S
C1766 C1768 1.391 . S
C1767 C1766 1.386 . S
C1767 C1771 1.393 . S
C1768 H1757 0.950 . S
C1768 C1766 1.391 . S
C1768 C1769 1.400 . S
C1769 C1763 1.491 . S
C1769 C1768 1.400 . S
C1769 C1770 1.398 . S
C1770 H1758 0.950 . S
C1770 C1769 1.398 . S
C1770 C1771 1.391 . S
C1771 H1759 0.950 . S
C1771 C1767 1.393 . S
C1771 C1770 1.391 . S
H1772 C1780 0.950 1_455 S
H1773 C1785 0.950 . S
H1774 C1782 0.950 . S
H1775 C1784 0.950 . S
H1776 C1786 0.950 . S
H1777 C1788 0.950 1_556 S
H1778 C1790 0.950 . S
H1779 C1791 0.950 . S
C1780 H1772 0.950 1_655 S
C1780 C1781 1.380 1_655 S
C1780 C1782 1.391 . S
C1781 C1780 1.380 1_455 S
C1781 C1785 1.367 1_454 S
C1782 H1774 0.950 . S
C1782 C1780 1.391 . S
C1782 C1783 1.400 . S
C1783 C1782 1.400 . S
C1783 C1784 1.398 1_554 S
C1783 C1789 1.491 . S
C1784 H1775 0.950 . S
C1784 C1783 1.398 1_556 S
C1784 C1785 1.391 . S
C1785 H1773 0.950 . S
C1785 C1781 1.367 1_656 S
C1785 C1784 1.391 . S
C1786 H1776 0.950 . S
C1786 C1787 1.386 . S
C1786 C1788 1.391 . S
C1787 C1786 1.386 . S
C1787 C1791 1.393 . S
C1788 H1777 0.950 1_554 S
C1788 C1786 1.391 . S
C1788 C1789 1.400 . S
C1789 C1783 1.491 . S
C1789 C1788 1.400 . S
C1789 C1790 1.398 . S
C1790 H1778 0.950 . S
C1790 C1789 1.398 . S
C1790 C1791 1.391 . S
C1791 H1779 0.950 . S
C1791 C1787 1.393 . S
C1791 C1790 1.391 . S
H1792 C1800 0.950 . S
H1793 C1805 0.950 . S
H1794 C1802 0.950 . S
H1795 C1804 0.950 . S
H1796 C1806 0.950 . S
H1797 C1808 0.950 . S
H1798 C1810 0.950 . S
H1799 C1811 0.950 . S
C1800 H1792 0.950 . S
C1800 C1801 1.386 . S
C1800 C1802 1.391 . S
C1801 C1800 1.386 . S
C1801 C1805 1.393 . S
C1802 H1794 0.950 . S
C1802 C1800 1.391 . S
C1802 C1803 1.400 . S
C1803 C1802 1.400 . S
C1803 C1804 1.398 . S
C1803 C1809 1.491 . S
C1804 H1795 0.950 . S
C1804 C1803 1.398 . S
C1804 C1805 1.391 . S
C1805 H1793 0.950 . S
C1805 C1801 1.393 . S
C1805 C1804 1.391 . S
C1806 H1796 0.950 . S
C1806 C1807 1.386 . S
C1806 C1808 1.391 . S
C1807 C1806 1.386 . S
C1807 C1811 1.393 . S
C1808 H1797 0.950 . S
C1808 C1806 1.391 . S
C1808 C1809 1.400 . S
C1809 C1803 1.491 . S
C1809 C1808 1.400 . S
C1809 C1810 1.398 . S
C1810 H1798 0.950 . S
C1810 C1809 1.398 . S
C1810 C1811 1.391 . S
C1811 H1799 0.950 . S
C1811 C1807 1.393 . S
C1811 C1810 1.391 . S
H1812 C1820 0.950 . S
H1813 C1825 0.950 1_556 S
H1814 C1822 0.950 . S
H1815 C1824 0.950 . S
H1816 C1826 0.950 . S
H1817 C1828 0.950 . S
H1818 C1830 0.950 . S
H1819 C1831 0.950 . S
C1820 H1812 0.950 . S
C1820 C1821 1.357 1_554 S
C1820 C1822 1.391 . S
C1821 C1820 1.357 1_556 S
C1821 C1825 1.388 1_556 S
C1822 H1814 0.950 . S
C1822 C1820 1.391 . S
C1822 C1823 1.400 . S
C1823 C1822 1.400 . S
C1823 C1824 1.398 . S
C1823 C1829 1.491 . S
C1824 H1815 0.950 . S
C1824 C1823 1.398 . S
C1824 C1825 1.391 . S
C1825 H1813 0.950 1_554 S
C1825 C1821 1.388 1_554 S
C1825 C1824 1.391 . S
C1826 H1816 0.950 . S
C1826 C1827 1.386 . S
C1826 C1828 1.391 . S
C1827 C1826 1.386 . S
C1827 C1831 1.393 . S
C1828 H1817 0.950 . S
C1828 C1826 1.391 . S
C1828 C1829 1.400 . S
C1829 C1823 1.491 . S
C1829 C1828 1.400 . S
C1829 C1830 1.398 . S
C1830 H1818 0.950 . S
C1830 C1829 1.398 . S
C1830 C1831 1.391 . S
C1831 H1819 0.950 . S
C1831 C1827 1.393 . S
C1831 C1830 1.391 . S
H1832 C1840 0.950 . S
H1833 C1845 0.950 . S
H1834 C1842 0.950 . S
H1835 C1844 0.950 . S
H1836 C1846 0.950 . S
H1837 C1848 0.950 . S
H1838 C1850 0.950 . S
H1839 C1851 0.950 . S
C1840 H1832 0.950 . S
C1840 C1841 1.386 . S
C1840 C1842 1.391 . S
C1841 C1840 1.386 . S
C1841 C1845 1.393 . S
C1842 H1834 0.950 . S
C1842 C1840 1.391 . S
C1842 C1843 1.400 . S
C1843 C1842 1.400 . S
C1843 C1844 1.398 . S
C1843 C1849 1.491 . S
C1844 H1835 0.950 . S
C1844 C1843 1.398 . S
C1844 C1845 1.391 . S
C1845 H1833 0.950 . S
C1845 C1841 1.393 . S
C1845 C1844 1.391 . S
C1846 H1836 0.950 . S
C1846 C1847 1.386 . S
C1846 C1848 1.391 . S
C1847 C1846 1.386 . S
C1847 C1851 1.393 . S
C1848 H1837 0.950 . S
C1848 C1846 1.391 . S
C1848 C1849 1.400 . S
C1849 C1843 1.491 . S
C1849 C1848 1.400 . S
C1849 C1850 1.398 . S
C1850 H1838 0.950 . S
C1850 C1849 1.398 . S
C1850 C1851 1.391 . S
C1851 H1839 0.950 . S
C1851 C1847 1.393 . S
C1851 C1850 1.391 . S
H1852 C1860 0.950 1_556 S
H1853 C1865 0.950 . S
H1854 C1862 0.950 . S
H1855 C1864 0.950 . S
H1856 C1866 0.950 . S
H1857 C1868 1.001 . S
H1858 C1870 0.950 . S
H1859 C1871 0.950 . S
C1860 H1852 0.950 1_554 S
C1860 C1861 1.383 1_554 S
C1860 C1862 1.391 . S
C1861 C1860 1.383 1_556 S
C1861 C1865 1.371 1_546 S
C1862 H1854 0.950 . S
C1862 C1860 1.391 . S
C1862 C1863 1.400 . S
C1863 C1862 1.400 . S
C1863 C1864 1.398 1_545 S
C1863 C1869 1.491 . S
C1864 H1855 0.950 . S
C1864 C1863 1.398 1_565 S
C1864 C1865 1.391 . S
C1865 H1853 0.950 . S
C1865 C1861 1.371 1_564 S
C1865 C1864 1.391 . S
C1866 H1856 0.950 . S
C1866 C1867 1.386 . S
C1866 C1868 1.391 . S
C1867 C1866 1.386 . S
C1867 C1871 1.393 . S
C1868 H1857 1.001 . S
C1868 C1866 1.391 . S
C1868 C1869 1.400 . S
C1869 C1863 1.491 . S
C1869 C1868 1.400 . S
C1869 C1870 1.398 . S
C1870 H1858 0.950 . S
C1870 C1869 1.398 . S
C1870 C1871 1.391 . S
C1871 H1859 0.950 . S
C1871 C1867 1.393 . S
C1871 C1870 1.391 . S
H1872 C1880 0.950 . S
H1873 C1885 0.950 . S
H1874 C1882 0.950 . S
H1875 C1884 0.950 . S
H1876 C1886 0.950 . S
H1877 C1888 0.950 . S
H1878 C1890 0.950 . S
H1879 C1891 0.950 . S
C1880 H1872 0.950 . S
C1880 C1881 1.386 . S
C1880 C1882 1.391 . S
C1881 C1880 1.386 . S
C1881 C1885 1.393 . S
C1882 H1874 0.950 . S
C1882 C1880 1.391 . S
C1882 C1883 1.400 . S
C1883 C1882 1.400 . S
C1883 C1884 1.398 . S
C1883 C1889 1.491 . S
C1884 H1875 0.950 . S
C1884 C1883 1.398 . S
C1884 C1885 1.391 . S
C1885 H1873 0.950 . S
C1885 C1881 1.393 . S
C1885 C1884 1.391 . S
C1886 H1876 0.950 . S
C1886 C1887 1.386 . S
C1886 C1888 1.391 . S
C1887 C1886 1.386 . S
C1887 C1891 1.393 . S
C1888 H1877 0.950 . S
C1888 C1886 1.391 . S
C1888 C1889 1.400 . S
C1889 C1883 1.491 . S
C1889 C1888 1.400 . S
C1889 C1890 1.398 . S
C1890 H1878 0.950 . S
C1890 C1889 1.398 . S
C1890 C1891 1.391 . S
C1891 H1879 0.950 . S
C1891 C1887 1.393 . S
C1891 C1890 1.391 . S
H1892 C1900 0.950 . S
H1893 C1905 0.950 . S
H1894 C1902 0.950 . S
H1895 C1904 0.950 . S
H1896 C1906 0.958 . S
H1897 C1908 0.950 . S
H1898 C1910 0.950 . S
H1899 C1911 0.950 . S
C1900 H1892 0.950 . S
C1900 C1901 1.386 . S
C1900 C1902 1.391 . S
C1901 C1900 1.386 . S
C1901 C1905 1.393 . S
C1902 H1894 0.950 . S
C1902 C1900 1.391 . S
C1902 C1903 1.400 . S
C1903 C1902 1.400 . S
C1903 C1904 1.398 . S
C1903 C1909 1.491 . S
C1904 H1895 0.950 . S
C1904 C1903 1.398 . S
C1904 C1905 1.391 . S
C1905 H1893 0.950 . S
C1905 C1901 1.393 . S
C1905 C1904 1.391 . S
C1906 H1896 0.958 . S
C1906 C1907 1.369 1_556 S
C1906 C1908 1.391 . S
C1907 C1906 1.369 1_554 S
C1907 C1911 1.371 1_554 S
C1908 H1897 0.950 . S
C1908 C1906 1.391 . S
C1908 C1909 1.400 . S
C1909 C1903 1.491 . S
C1909 C1908 1.400 . S
C1909 C1910 1.398 . S
C1910 H1898 0.950 . S
C1910 C1909 1.398 . S
C1910 C1911 1.391 . S
C1911 H1899 0.950 . S
C1911 C1907 1.371 1_556 S
C1911 C1910 1.391 . S
H1912 C1920 0.950 . S
H1913 C1925 0.950 . S
H1914 C1922 0.950 . S
H1915 C1924 0.950 . S
H1916 C1926 0.950 . S
H1917 C1928 0.950 . S
H1918 C1930 0.950 . S
H1919 C1931 0.950 . S
C1920 H1912 0.950 . S
C1920 C1921 1.386 . S
C1920 C1922 1.391 . S
C1921 C1920 1.386 . S
C1921 C1925 1.393 . S
C1922 H1914 0.950 . S
C1922 C1920 1.391 . S
C1922 C1923 1.400 . S
C1923 C1922 1.400 . S
C1923 C1924 1.398 . S
C1923 C1929 1.491 . S
C1924 H1915 0.950 . S
C1924 C1923 1.398 . S
C1924 C1925 1.391 . S
C1925 H1913 0.950 . S
C1925 C1921 1.393 . S
C1925 C1924 1.391 . S
C1926 H1916 0.950 . S
C1926 C1927 1.386 . S
C1926 C1928 1.391 . S
C1927 C1926 1.386 . S
C1927 C1931 1.393 . S
C1928 H1917 0.950 . S
C1928 C1926 1.391 . S
C1928 C1929 1.400 . S
C1929 C1923 1.491 . S
C1929 C1928 1.400 . S
C1929 C1930 1.398 . S
C1930 H1918 0.950 . S
C1930 C1929 1.398 . S
C1930 C1931 1.391 . S
C1931 H1919 0.950 . S
C1931 C1927 1.393 . S
C1931 C1930 1.391 . S
H1932 C1940 0.950 1_554 S
H1933 C1945 0.950 . S
H1934 C1942 0.950 . S
H1935 C1944 0.950 . S
H1936 C1946 0.950 . S
H1937 C1948 0.950 1_565 S
H1938 C1950 0.950 . S
H1939 C1951 0.950 . S
C1940 H1932 0.950 1_556 S
C1940 C1941 1.378 1_556 S
C1940 C1942 1.391 . S
C1941 C1940 1.378 1_554 S
C1941 C1945 1.367 1_544 S
C1942 H1934 0.950 . S
C1942 C1940 1.391 . S
C1942 C1943 1.400 . S
C1943 C1942 1.400 . S
C1943 C1944 1.398 1_545 S
C1943 C1949 1.491 . S
C1944 H1935 0.950 . S
C1944 C1943 1.398 1_565 S
C1944 C1945 1.391 . S
C1945 H1933 0.950 . S
C1945 C1941 1.367 1_566 S
C1945 C1944 1.391 . S
C1946 H1936 0.950 . S
C1946 C1947 1.386 . S
C1946 C1948 1.391 . S
C1947 C1946 1.386 . S
C1947 C1951 1.393 . S
C1948 H1937 0.950 1_545 S
C1948 C1946 1.391 . S
C1948 C1949 1.400 . S
C1949 C1943 1.491 . S
C1949 C1948 1.400 . S
C1949 C1950 1.398 . S
C1950 H1938 0.950 . S
C1950 C1949 1.398 . S
C1950 C1951 1.391 . S
C1951 H1939 0.950 . S
C1951 C1947 1.393 . S
C1951 C1950 1.391 . S
H1952 C1960 0.950 . S
H1953 C1965 0.950 . S
H1954 C1962 0.950 . S
H1955 C1964 0.950 . S
H1956 C1966 0.950 . S
H1957 C1968 0.950 . S
H1958 C1970 0.950 . S
H1959 C1971 0.950 . S
C1960 H1952 0.950 . S
C1960 C1961 1.386 . S
C1960 C1962 1.391 . S
C1961 C1960 1.386 . S
C1961 C1965 1.393 . S
C1962 H1954 0.950 . S
C1962 C1960 1.391 . S
C1962 C1963 1.400 . S
C1963 C1962 1.400 . S
C1963 C1964 1.398 . S
C1963 C1969 1.491 . S
C1964 H1955 0.950 . S
C1964 C1963 1.398 . S
C1964 C1965 1.391 . S
C1965 H1953 0.950 . S
C1965 C1961 1.393 . S
C1965 C1964 1.391 . S
C1966 H1956 0.950 . S
C1966 C1967 1.386 . S
C1966 C1968 1.391 . S
C1967 C1966 1.386 . S
C1967 C1971 1.393 . S
C1968 H1957 0.950 . S
C1968 C1966 1.391 . S
C1968 C1969 1.400 . S
C1969 C1963 1.491 . S
C1969 C1968 1.400 . S
C1969 C1970 1.398 . S
C1970 H1958 0.950 . S
C1970 C1969 1.398 . S
C1970 C1971 1.391 . S
C1971 H1959 0.950 . S
C1971 C1967 1.393 . S
C1971 C1970 1.391 . S
H1972 C1980 0.950 . S
H1973 C1985 0.950 . S
H1974 C1982 0.950 . S
H1975 C1984 0.950 . S
H1976 C1986 0.950 . S
H1977 C1988 0.950 . S
H1978 C1990 0.950 . S
H1979 C1991 0.950 . S
C1980 H1972 0.950 . S
C1980 C1981 1.386 . S
C1980 C1982 1.391 . S
C1981 C1980 1.386 . S
C1981 C1985 1.393 . S
C1982 H1974 0.950 . S
C1982 C1980 1.391 . S
C1982 C1983 1.400 . S
C1983 C1982 1.400 . S
C1983 C1984 1.398 . S
C1983 C1989 1.491 . S
C1984 H1975 0.950 . S
C1984 C1983 1.398 . S
C1984 C1985 1.391 . S
C1985 H1973 0.950 . S
C1985 C1981 1.393 . S
C1985 C1984 1.391 . S
C1986 H1976 0.950 . S
C1986 C1987 1.386 . S
C1986 C1988 1.391 . S
C1987 C1986 1.386 . S
C1987 C1991 1.393 . S
C1988 H1977 0.950 . S
C1988 C1986 1.391 . S
C1988 C1989 1.400 . S
C1989 C1983 1.491 . S
C1989 C1988 1.400 . S
C1989 C1990 1.398 . S
C1990 H1978 0.950 . S
C1990 C1989 1.398 . S
C1990 C1991 1.391 . S
C1991 H1979 0.950 . S
C1991 C1987 1.393 . S
C1991 C1990 1.391 . S
H1992 C2000 0.950 . S
H1993 C2005 0.950 . S
H1994 C2002 0.950 . S
H1995 C2004 0.950 1_455 S
H1996 C2006 0.950 . S
H1997 C2008 0.950 . S
H1998 C2010 0.950 . S
H1999 C2011 0.950 . S
C2000 H1992 0.950 . S
C2000 C2001 1.386 . S
C2000 C2002 1.391 . S
C2001 C2000 1.386 . S
C2001 C2005 1.393 1_655 S
C2002 H1994 0.950 . S
C2002 C2000 1.391 . S
C2002 C2003 1.400 . S
C2003 C2002 1.400 . S
C2003 C2004 1.398 . S
C2003 C2009 1.491 . S
C2004 H1995 0.950 1_655 S
C2004 C2003 1.398 . S
C2004 C2005 1.391 1_655 S
C2005 H1993 0.950 . S
C2005 C2001 1.393 1_455 S
C2005 C2004 1.391 1_455 S
C2006 H1996 0.950 . S
C2006 C2007 1.386 . S
C2006 C2008 1.391 . S
C2007 C2006 1.386 . S
C2007 C2011 1.393 . S
C2008 H1997 0.950 . S
C2008 C2006 1.391 . S
C2008 C2009 1.400 . S
C2009 C2003 1.491 . S
C2009 C2008 1.400 . S
C2009 C2010 1.398 . S
C2010 H1998 0.950 . S
C2010 C2009 1.398 . S
C2010 C2011 1.391 . S
C2011 H1999 0.950 . S
C2011 C2007 1.393 . S
C2011 C2010 1.391 . S
H2012 C2020 0.950 . S
H2013 C2025 0.950 . S
H2014 C2022 0.950 . S
H2015 C2024 0.950 . S
H2016 C2026 0.950 . S
H2017 C2028 0.950 . S
H2018 C2030 0.950 . S
H2019 C2031 0.950 . S
C2020 H2012 0.950 . S
C2020 C2021 1.386 . S
C2020 C2022 1.391 . S
C2021 C2020 1.386 . S
C2021 C2025 1.393 . S
C2022 H2014 0.950 . S
C2022 C2020 1.391 . S
C2022 C2023 1.400 . S
C2023 C2022 1.400 . S
C2023 C2024 1.398 . S
C2023 C2029 1.491 . S
C2024 H2015 0.950 . S
C2024 C2023 1.398 . S
C2024 C2025 1.391 . S
C2025 H2013 0.950 . S
C2025 C2021 1.393 . S
C2025 C2024 1.391 . S
C2026 H2016 0.950 . S
C2026 C2027 1.386 . S
C2026 C2028 1.391 . S
C2027 C2026 1.386 . S
C2027 C2031 1.393 . S
C2028 H2017 0.950 . S
C2028 C2026 1.391 . S
C2028 C2029 1.400 . S
C2029 C2023 1.491 . S
C2029 C2028 1.400 . S
C2029 C2030 1.398 . S
C2030 H2018 0.950 . S
C2030 C2029 1.398 . S
C2030 C2031 1.391 . S
C2031 H2019 0.950 . S
C2031 C2027 1.393 . S
C2031 C2030 1.391 . S
H2032 C2040 0.950 . S
H2033 C2045 0.950 . S
H2034 C2042 0.950 . S
H2035 C2044 0.950 . S
H2036 C2046 0.950 . S
H2037 C2048 0.950 . S
H2038 C2050 0.950 . S
H2039 C2051 0.950 . S
C2040 H2032 0.950 . S
C2040 C2041 1.386 . S
C2040 C2042 1.391 . S
C2041 C2040 1.386 . S
C2041 C2045 1.393 . S
C2042 H2034 0.950 . S
C2042 C2040 1.391 . S
C2042 C2043 1.400 . S
C2043 C2042 1.400 . S
C2043 C2044 1.398 . S
C2043 C2049 1.491 . S
C2044 H2035 0.950 . S
C2044 C2043 1.398 . S
C2044 C2045 1.391 . S
C2045 H2033 0.950 . S
C2045 C2041 1.393 . S
C2045 C2044 1.391 . S
C2046 H2036 0.950 . S
C2046 C2047 1.386 . S
C2046 C2048 1.391 . S
C2047 C2046 1.386 . S
C2047 C2051 1.393 . S
C2048 H2037 0.950 . S
C2048 C2046 1.391 . S
C2048 C2049 1.400 . S
C2049 C2043 1.491 . S
C2049 C2048 1.400 . S
C2049 C2050 1.398 . S
C2050 H2038 0.950 . S
C2050 C2049 1.398 . S
C2050 C2051 1.391 . S
C2051 H2039 0.950 . S
C2051 C2047 1.393 . S
C2051 C2050 1.391 . S
H2052 C2060 0.950 . S
H2053 C2065 0.950 . S
H2054 C2062 0.950 . S
H2055 C2064 0.950 . S
H2056 C2066 0.950 . S
H2057 C2068 0.950 . S
H2058 C2070 0.950 . S
H2059 C2071 0.950 . S
C2060 H2052 0.950 . S
C2060 C2061 1.386 . S
C2060 C2062 1.391 . S
C2061 C2060 1.386 . S
C2061 C2065 1.393 . S
C2062 H2054 0.950 . S
C2062 C2060 1.391 . S
C2062 C2063 1.400 . S
C2063 C2062 1.400 . S
C2063 C2064 1.398 . S
C2063 C2069 1.491 . S
C2064 H2055 0.950 . S
C2064 C2063 1.398 . S
C2064 C2065 1.391 . S
C2065 H2053 0.950 . S
C2065 C2061 1.393 . S
C2065 C2064 1.391 . S
C2066 H2056 0.950 . S
C2066 C2067 1.386 . S
C2066 C2068 1.391 . S
C2067 C2066 1.386 . S
C2067 C2071 1.393 . S
C2068 H2057 0.950 . S
C2068 C2066 1.391 . S
C2068 C2069 1.400 . S
C2069 C2063 1.491 . S
C2069 C2068 1.400 . S
C2069 C2070 1.398 . S
C2070 H2058 0.950 . S
C2070 C2069 1.398 . S
C2070 C2071 1.391 . S
C2071 H2059 0.950 . S
C2071 C2067 1.393 . S
C2071 C2070 1.391 . S
H2072 C2080 0.950 . S
H2073 C2085 0.950 . S
H2074 C2082 0.950 . S
H2075 C2084 0.950 . S
H2076 C2086 0.950 . S
H2077 C2088 0.950 . S
H2078 C2090 0.950 1_455 S
H2079 C2091 0.950 . S
C2080 H2072 0.950 . S
C2080 C2081 1.386 1_455 S
C2080 C2082 1.391 . S
C2081 C2080 1.386 1_655 S
C2081 C2085 1.393 . S
C2082 H2074 0.950 . S
C2082 C2080 1.391 . S
C2082 C2083 1.400 1_455 S
C2083 C2082 1.400 1_655 S
C2083 C2084 1.398 . S
C2083 C2089 1.491 . S
C2084 H2075 0.950 . S
C2084 C2083 1.398 . S
C2084 C2085 1.391 . S
C2085 H2073 0.950 . S
C2085 C2081 1.393 . S
C2085 C2084 1.391 . S
C2086 H2076 0.950 . S
C2086 C2087 1.386 . S
C2086 C2088 1.391 . S
C2087 C2086 1.386 . S
C2087 C2091 1.393 . S
C2088 H2077 0.950 . S
C2088 C2086 1.391 . S
C2088 C2089 1.400 . S
C2089 C2083 1.491 . S
C2089 C2088 1.400 . S
C2089 C2090 1.398 . S
C2090 H2078 0.950 1_655 S
C2090 C2089 1.398 . S
C2090 C2091 1.391 . S
C2091 H2079 0.950 . S
C2091 C2087 1.393 . S
C2091 C2090 1.391 . S
H2092 C2100 0.950 . S
H2093 C2105 0.953 1_565 S
H2094 C2102 0.950 . S
H2095 C2104 0.951 1_655 S
H2096 C2106 0.950 . S
H2097 C2108 0.950 . S
H2098 C2110 0.950 . S
H2099 C2111 0.950 . S
C2100 H2092 0.950 . S
C2100 C2101 1.363 1_545 S
C2100 C2102 1.391 . S
C2101 C2100 1.363 1_565 S
C2101 C2105 1.376 1_465 S
C2102 H2094 0.950 . S
C2102 C2100 1.391 . S
C2102 C2103 1.400 . S
C2103 C2102 1.400 . S
C2103 C2104 1.398 . S
C2103 C2109 1.491 . S
C2104 H2095 0.951 1_455 S
C2104 C2103 1.398 . S
C2104 C2105 1.391 1_455 S
C2105 H2093 0.953 1_545 S
C2105 C2101 1.376 1_645 S
C2105 C2104 1.391 1_655 S
C2106 H2096 0.950 . S
C2106 C2107 1.386 . S
C2106 C2108 1.391 . S
C2107 C2106 1.386 . S
C2107 C2111 1.393 . S
C2108 H2097 0.950 . S
C2108 C2106 1.391 . S
C2108 C2109 1.400 . S
C2109 C2103 1.491 . S
C2109 C2108 1.400 . S
C2109 C2110 1.398 . S
C2110 H2098 0.950 . S
C2110 C2109 1.398 . S
C2110 C2111 1.391 . S
C2111 H2099 0.950 . S
C2111 C2107 1.393 . S
C2111 C2110 1.391 . S
H2112 C2120 0.950 . S
H2113 C2125 0.950 . S
H2114 C2122 0.950 . S
H2115 C2124 0.950 . S
H2116 C2126 0.950 . S
H2117 C2128 0.950 . S
H2118 C2130 0.950 . S
H2119 C2131 0.950 . S
C2120 H2112 0.950 . S
C2120 C2121 1.386 . S
C2120 C2122 1.391 . S
C2121 C2120 1.386 . S
C2121 C2125 1.393 . S
C2122 H2114 0.950 . S
C2122 C2120 1.391 . S
C2122 C2123 1.400 . S
C2123 C2122 1.400 . S
C2123 C2124 1.398 . S
C2123 C2129 1.491 . S
C2124 H2115 0.950 . S
C2124 C2123 1.398 . S
C2124 C2125 1.391 . S
C2125 H2113 0.950 . S
C2125 C2121 1.393 . S
C2125 C2124 1.391 . S
C2126 H2116 0.950 . S
C2126 C2127 1.386 . S
C2126 C2128 1.391 . S
C2127 C2126 1.386 . S
C2127 C2131 1.393 . S
C2128 H2117 0.950 . S
C2128 C2126 1.391 . S
C2128 C2129 1.400 . S
C2129 C2123 1.491 . S
C2129 C2128 1.400 . S
C2129 C2130 1.398 . S
C2130 H2118 0.950 . S
C2130 C2129 1.398 . S
C2130 C2131 1.391 . S
C2131 H2119 0.950 . S
C2131 C2127 1.393 . S
C2131 C2130 1.391 . S
H2132 C2140 0.950 . S
H2133 C2145 0.950 . S
H2134 C2142 0.950 . S
H2135 C2144 0.950 . S
H2136 C2146 0.950 1_455 S
H2137 C2148 0.950 . S
H2138 C2150 0.950 . S
H2139 C2151 0.950 . S
C2140 H2132 0.950 . S
C2140 C2141 1.386 . S
C2140 C2142 1.391 . S
C2141 C2140 1.386 . S
C2141 C2145 1.393 . S
C2142 H2134 0.950 . S
C2142 C2140 1.391 . S
C2142 C2143 1.400 . S
C2143 C2142 1.400 . S
C2143 C2144 1.398 . S
C2143 C2149 1.491 . S
C2144 H2135 0.950 . S
C2144 C2143 1.398 . S
C2144 C2145 1.391 . S
C2145 H2133 0.950 . S
C2145 C2141 1.393 . S
C2145 C2144 1.391 . S
C2146 H2136 0.950 1_655 S
C2146 C2147 1.374 1_655 S
C2146 C2148 1.391 . S
C2147 C2146 1.374 1_455 S
C2147 C2151 1.368 1_455 S
C2148 H2137 0.950 . S
C2148 C2146 1.391 . S
C2148 C2149 1.400 . S
C2149 C2143 1.491 . S
C2149 C2148 1.400 . S
C2149 C2150 1.398 . S
C2150 H2138 0.950 . S
C2150 C2149 1.398 . S
C2150 C2151 1.391 . S
C2151 H2139 0.950 . S
C2151 C2147 1.368 1_655 S
C2151 C2150 1.391 . S
H2152 C2160 0.950 . S
H2153 C2165 0.950 . S
H2154 C2162 0.950 . S
H2155 C2164 0.950 . S
H2156 C2166 0.950 . S
H2157 C2168 0.950 . S
H2158 C2170 0.950 . S
H2159 C2171 0.950 . S
C2160 H2152 0.950 . S
C2160 C2161 1.386 . S
C2160 C2162 1.391 . S
C2161 C2160 1.386 . S
C2161 C2165 1.393 . S
C2162 H2154 0.950 . S
C2162 C2160 1.391 . S
C2162 C2163 1.400 . S
C2163 C2162 1.400 . S
C2163 C2164 1.398 . S
C2163 C2169 1.491 . S
C2164 H2155 0.950 . S
C2164 C2163 1.398 . S
C2164 C2165 1.391 . S
C2165 H2153 0.950 . S
C2165 C2161 1.393 . S
C2165 C2164 1.391 . S
C2166 H2156 0.950 . S
C2166 C2167 1.386 . S
C2166 C2168 1.391 . S
C2167 C2166 1.386 . S
C2167 C2171 1.393 . S
C2168 H2157 0.950 . S
C2168 C2166 1.391 . S
C2168 C2169 1.400 . S
C2169 C2163 1.491 . S
C2169 C2168 1.400 . S
C2169 C2170 1.398 . S
C2170 H2158 0.950 . S
C2170 C2169 1.398 . S
C2170 C2171 1.391 . S
C2171 H2159 0.950 . S
C2171 C2167 1.393 . S
C2171 C2170 1.391 . S
H2172 C2180 0.950 . S
H2173 C2185 0.950 1_655 S
H2174 C2182 0.950 . S
H2175 C2184 0.950 . S
H2176 C2186 0.950 . S
H2177 C2188 0.950 . S
H2178 C2190 0.950 . S
H2179 C2191 0.950 . S
C2180 H2172 0.950 . S
C2180 C2181 1.382 1_455 S
C2180 C2182 1.391 . S
C2181 C2180 1.382 1_655 S
C2181 C2185 1.391 1_655 S
C2182 H2174 0.950 . S
C2182 C2180 1.391 . S
C2182 C2183 1.400 . S
C2183 C2182 1.400 . S
C2183 C2184 1.398 . S
C2183 C2189 1.491 . S
C2184 H2175 0.950 . S
C2184 C2183 1.398 . S
C2184 C2185 1.391 . S
C2185 H2173 0.950 1_455 S
C2185 C2181 1.391 1_455 S
C2185 C2184 1.391 . S
C2186 H2176 0.950 . S
C2186 C2187 1.386 . S
C2186 C2188 1.391 . S
C2187 C2186 1.386 . S
C2187 C2191 1.393 . S
C2188 H2177 0.950 . S
C2188 C2186 1.391 . S
C2188 C2189 1.400 . S
C2189 C2183 1.491 . S
C2189 C2188 1.400 . S
C2189 C2190 1.398 . S
C2190 H2178 0.950 . S
C2190 C2189 1.398 . S
C2190 C2191 1.391 . S
C2191 H2179 0.950 . S
C2191 C2187 1.393 . S
C2191 C2190 1.391 . S
H2192 C2200 0.950 . S
H2193 C2205 0.950 . S
H2194 C2202 0.950 . S
H2195 C2204 0.950 . S
H2196 C2206 0.950 . S
H2197 C2208 0.950 . S
H2198 C2210 0.950 . S
H2199 C2211 0.950 . S
C2200 H2192 0.950 . S
C2200 C2201 1.386 . S
C2200 C2202 1.391 . S
C2201 C2200 1.386 . S
C2201 C2205 1.393 . S
C2202 H2194 0.950 . S
C2202 C2200 1.391 . S
C2202 C2203 1.400 . S
C2203 C2202 1.400 . S
C2203 C2204 1.398 . S
C2203 C2209 1.491 . S
C2204 H2195 0.950 . S
C2204 C2203 1.398 . S
C2204 C2205 1.391 . S
C2205 H2193 0.950 . S
C2205 C2201 1.393 . S
C2205 C2204 1.391 . S
C2206 H2196 0.950 . S
C2206 C2207 1.386 . S
C2206 C2208 1.391 . S
C2207 C2206 1.386 . S
C2207 C2211 1.393 . S
C2208 H2197 0.950 . S
C2208 C2206 1.391 . S
C2208 C2209 1.400 . S
C2209 C2203 1.491 . S
C2209 C2208 1.400 . S
C2209 C2210 1.398 . S
C2210 H2198 0.950 . S
C2210 C2209 1.398 . S
C2210 C2211 1.391 . S
C2211 H2199 0.950 . S
C2211 C2207 1.393 . S
C2211 C2210 1.391 . S
H2212 C2220 0.950 . S
H2213 C2225 0.950 . S
H2214 C2222 0.950 . S
H2215 C2224 0.950 . S
H2216 C2226 0.950 . S
H2217 C2228 0.950 . S
H2218 C2230 0.950 . S
H2219 C2231 0.950 . S
C2220 H2212 0.950 . S
C2220 C2221 1.386 . S
C2220 C2222 1.391 . S
C2221 C2220 1.386 . S
C2221 C2225 1.393 . S
C2222 H2214 0.950 . S
C2222 C2220 1.391 . S
C2222 C2223 1.400 . S
C2223 C2222 1.400 . S
C2223 C2224 1.398 . S
C2223 C2229 1.491 . S
C2224 H2215 0.950 . S
C2224 C2223 1.398 . S
C2224 C2225 1.391 . S
C2225 H2213 0.950 . S
C2225 C2221 1.393 . S
C2225 C2224 1.391 . S
C2226 H2216 0.950 . S
C2226 C2227 1.386 . S
C2226 C2228 1.391 . S
C2227 C2226 1.386 . S
C2227 C2231 1.393 . S
C2228 H2217 0.950 . S
C2228 C2226 1.391 . S
C2228 C2229 1.400 . S
C2229 C2223 1.491 . S
C2229 C2228 1.400 . S
C2229 C2230 1.398 . S
C2230 H2218 0.950 . S
C2230 C2229 1.398 . S
C2230 C2231 1.391 . S
C2231 H2219 0.950 . S
C2231 C2227 1.393 . S
C2231 C2230 1.391 . S
H2232 C2240 0.950 . S
H2233 C2245 0.950 . S
H2234 C2242 0.950 . S
H2235 C2244 0.950 . S
H2236 C2246 0.950 . S
H2237 C2248 0.950 . S
H2238 C2250 0.950 . S
H2239 C2251 0.950 . S
C2240 H2232 0.950 . S
C2240 C2241 1.386 . S
C2240 C2242 1.391 . S
C2241 C2240 1.386 . S
C2241 C2245 1.393 . S
C2242 H2234 0.950 . S
C2242 C2240 1.391 . S
C2242 C2243 1.400 . S
C2243 C2242 1.400 . S
C2243 C2244 1.398 . S
C2243 C2249 1.491 . S
C2244 H2235 0.950 . S
C2244 C2243 1.398 . S
C2244 C2245 1.391 . S
C2245 H2233 0.950 . S
C2245 C2241 1.393 . S
C2245 C2244 1.391 . S
C2246 H2236 0.950 . S
C2246 C2247 1.386 . S
C2246 C2248 1.391 . S
C2247 C2246 1.386 . S
C2247 C2251 1.393 . S
C2248 H2237 0.950 . S
C2248 C2246 1.391 . S
C2248 C2249 1.400 . S
C2249 C2243 1.491 . S
C2249 C2248 1.400 . S
C2249 C2250 1.398 . S
C2250 H2238 0.950 . S
C2250 C2249 1.398 . S
C2250 C2251 1.391 . S
C2251 H2239 0.950 . S
C2251 C2247 1.393 . S
C2251 C2250 1.391 . S
H2252 C2260 0.950 . S
H2253 C2265 0.950 . S
H2254 C2262 0.950 . S
H2255 C2264 0.950 . S
H2256 C2266 0.950 . S
H2257 C2268 0.950 . S
H2258 C2270 0.950 . S
H2259 C2271 0.950 . S
C2260 H2252 0.950 . S
C2260 C2261 1.386 . S
C2260 C2262 1.391 . S
C2261 C2260 1.386 . S
C2261 C2265 1.393 . S
C2262 H2254 0.950 . S
C2262 C2260 1.391 . S
C2262 C2263 1.400 . S
C2263 C2262 1.400 . S
C2263 C2264 1.398 . S
C2263 C2269 1.491 . S
C2264 H2255 0.950 . S
C2264 C2263 1.398 . S
C2264 C2265 1.391 . S
C2265 H2253 0.950 . S
C2265 C2261 1.393 . S
C2265 C2264 1.391 . S
C2266 H2256 0.950 . S
C2266 C2267 1.386 . S
C2266 C2268 1.391 . S
C2267 C2266 1.386 . S
C2267 C2271 1.393 . S
C2268 H2257 0.950 . S
C2268 C2266 1.391 . S
C2268 C2269 1.400 . S
C2269 C2263 1.491 . S
C2269 C2268 1.400 . S
C2269 C2270 1.398 . S
C2270 H2258 0.950 . S
C2270 C2269 1.398 . S
C2270 C2271 1.391 . S
C2271 H2259 0.950 . S
C2271 C2267 1.393 . S
C2271 C2270 1.391 . S
H2272 C2280 0.950 . S
H2273 C2285 0.950 . S
H2274 C2282 0.950 . S
H2275 C2284 0.950 . S
H2276 C2286 0.950 . S
H2277 C2288 0.950 . S
H2278 C2290 0.950 . S
H2279 C2291 0.950 . S
C2280 H2272 0.950 . S
C2280 C2281 1.386 . S
C2280 C2282 1.391 . S
C2281 C2280 1.386 . S
C2281 C2285 1.393 . S
C2282 H2274 0.950 . S
C2282 C2280 1.391 . S
C2282 C2283 1.400 . S
C2283 C2282 1.400 . S
C2283 C2284 1.398 . S
C2283 C2289 1.491 . S
C2284 H2275 0.950 . S
C2284 C2283 1.398 . S
C2284 C2285 1.391 . S
C2285 H2273 0.950 . S
C2285 C2281 1.393 . S
C2285 C2284 1.391 . S
C2286 H2276 0.950 . S
C2286 C2287 1.386 . S
C2286 C2288 1.391 . S
C2287 C2286 1.386 . S
C2287 C2291 1.393 . S
C2288 H2277 0.950 . S
C2288 C2286 1.391 . S
C2288 C2289 1.400 . S
C2289 C2283 1.491 . S
C2289 C2288 1.400 . S
C2289 C2290 1.398 . S
C2290 H2278 0.950 . S
C2290 C2289 1.398 . S
C2290 C2291 1.391 . S
C2291 H2279 0.950 . S
C2291 C2287 1.393 . S
C2291 C2290 1.391 . S
H2292 C2300 0.950 . S
H2293 C2305 0.950 . S
H2294 C2302 0.950 . S
H2295 C2304 0.950 . S
H2296 C2306 0.950 . S
H2297 C2308 0.977 . S
H2298 C2310 0.950 . S
H2299 C2311 0.950 . S
C2300 H2292 0.950 . S
C2300 C2301 1.386 . S
C2300 C2302 1.391 . S
C2301 C2300 1.386 . S
C2301 C2305 1.393 . S
C2302 H2294 0.950 . S
C2302 C2300 1.391 . S
C2302 C2303 1.400 . S
C2303 C2302 1.400 . S
C2303 C2304 1.398 . S
C2303 C2309 1.491 . S
C2304 H2295 0.950 . S
C2304 C2303 1.398 . S
C2304 C2305 1.391 . S
C2305 H2293 0.950 . S
C2305 C2301 1.393 . S
C2305 C2304 1.391 . S
C2306 H2296 0.950 . S
C2306 C2307 1.386 1_545 S
C2306 C2308 1.407 . S
C2307 C2306 1.386 1_565 S
C2307 C2311 1.393 . S
C2308 H2297 0.977 . S
C2308 C2306 1.407 . S
C2308 C2309 1.359 1_545 S
C2309 C2303 1.491 . S
C2309 C2308 1.359 1_565 S
C2309 C2310 1.398 . S
C2310 H2298 0.950 . S
C2310 C2309 1.398 . S
C2310 C2311 1.391 . S
C2311 H2299 0.950 . S
C2311 C2307 1.393 . S
C2311 C2310 1.391 . S
H2312 C2320 0.950 . S
H2313 C2325 0.950 . S
H2314 C2322 0.950 . S
H2315 C2324 0.950 . S
H2316 C2326 0.950 . S
H2317 C2328 0.950 . S
H2318 C2330 0.950 . S
H2319 C2331 0.950 . S
C2320 H2312 0.950 . S
C2320 C2321 1.386 . S
C2320 C2322 1.391 . S
C2321 C2320 1.386 . S
C2321 C2325 1.393 . S
C2322 H2314 0.950 . S
C2322 C2320 1.391 . S
C2322 C2323 1.400 . S
C2323 C2322 1.400 . S
C2323 C2324 1.398 . S
C2323 C2329 1.491 . S
C2324 H2315 0.950 . S
C2324 C2323 1.398 . S
C2324 C2325 1.391 . S
C2325 H2313 0.950 . S
C2325 C2321 1.393 . S
C2325 C2324 1.391 . S
C2326 H2316 0.950 . S
C2326 C2327 1.386 . S
C2326 C2328 1.391 . S
C2327 C2326 1.386 . S
C2327 C2331 1.393 . S
C2328 H2317 0.950 . S
C2328 C2326 1.391 . S
C2328 C2329 1.400 . S
C2329 C2323 1.491 . S
C2329 C2328 1.400 . S
C2329 C2330 1.398 . S
C2330 H2318 0.950 . S
C2330 C2329 1.398 . S
C2330 C2331 1.391 . S
C2331 H2319 0.950 . S
C2331 C2327 1.393 . S
C2331 C2330 1.391 . S
H2332 C2340 0.950 . S
H2333 C2345 0.950 . S
H2334 C2342 0.950 . S
H2335 C2344 0.950 . S
H2336 C2346 0.950 . S
H2337 C2348 0.950 . S
H2338 C2350 0.950 . S
H2339 C2351 0.950 . S
C2340 H2332 0.950 . S
C2340 C2341 1.386 . S
C2340 C2342 1.391 . S
C2341 C2340 1.386 . S
C2341 C2345 1.393 . S
C2342 H2334 0.950 . S
C2342 C2340 1.391 . S
C2342 C2343 1.400 . S
C2343 C2342 1.400 . S
C2343 C2344 1.398 . S
C2343 C2349 1.491 . S
C2344 H2335 0.950 . S
C2344 C2343 1.398 . S
C2344 C2345 1.391 . S
C2345 H2333 0.950 . S
C2345 C2341 1.393 . S
C2345 C2344 1.391 . S
C2346 H2336 0.950 . S
C2346 C2347 1.386 . S
C2346 C2348 1.391 . S
C2347 C2346 1.386 . S
C2347 C2351 1.393 . S
C2348 H2337 0.950 . S
C2348 C2346 1.391 . S
C2348 C2349 1.400 . S
C2349 C2343 1.491 . S
C2349 C2348 1.400 . S
C2349 C2350 1.398 . S
C2350 H2338 0.950 . S
C2350 C2349 1.398 . S
C2350 C2351 1.391 . S
C2351 H2339 0.950 . S
C2351 C2347 1.393 . S
C2351 C2350 1.391 . S
H2352 C2360 0.950 . S
H2353 C2365 0.950 . S
H2354 C2362 0.950 . S
H2355 C2364 0.950 . S
H2356 C2366 0.950 . S
H2357 C2368 0.950 . S
H2358 C2370 0.950 . S
H2359 C2371 0.950 . S
C2360 H2352 0.950 . S
C2360 C2361 1.386 . S
C2360 C2362 1.391 . S
C2361 C2360 1.386 . S
C2361 C2365 1.393 . S
C2362 H2354 0.950 . S
C2362 C2360 1.391 . S
C2362 C2363 1.400 . S
C2363 C2362 1.400 . S
C2363 C2364 1.398 . S
C2363 C2369 1.491 . S
C2364 H2355 0.950 . S
C2364 C2363 1.398 . S
C2364 C2365 1.391 . S
C2365 H2353 0.950 . S
C2365 C2361 1.393 . S
C2365 C2364 1.391 . S
C2366 H2356 0.950 . S
C2366 C2367 1.386 . S
C2366 C2368 1.391 . S
C2367 C2366 1.386 . S
C2367 C2371 1.393 . S
C2368 H2357 0.950 . S
C2368 C2366 1.391 . S
C2368 C2369 1.400 . S
C2369 C2363 1.491 . S
C2369 C2368 1.400 . S
C2369 C2370 1.398 . S
C2370 H2358 0.950 . S
C2370 C2369 1.398 . S
C2370 C2371 1.391 . S
C2371 H2359 0.950 . S
C2371 C2367 1.393 . S
C2371 C2370 1.391 . S
H2372 C2380 0.950 . S
H2373 C2385 0.950 . S
H2374 C2382 0.950 . S
H2375 C2384 0.950 . S
H2376 C2386 0.950 . S
H2377 C2388 0.950 1_545 S
H2378 C2390 0.950 . S
H2379 C2391 0.950 . S
C2380 H2372 0.950 . S
C2380 C2381 1.386 . S
C2380 C2382 1.391 . S
C2381 C2380 1.386 . S
C2381 C2385 1.393 1_565 S
C2382 H2374 0.950 . S
C2382 C2380 1.391 . S
C2382 C2383 1.400 . S
C2383 C2382 1.400 . S
C2383 C2384 1.398 1_565 S
C2383 C2389 1.491 . S
C2384 H2375 0.950 . S
C2384 C2383 1.398 1_545 S
C2384 C2385 1.391 . S
C2385 H2373 0.950 . S
C2385 C2381 1.393 1_545 S
C2385 C2384 1.391 . S
C2386 H2376 0.950 . S
C2386 C2387 1.386 . S
C2386 C2388 1.391 . S
C2387 C2386 1.386 . S
C2387 C2391 1.393 . S
C2388 H2377 0.950 1_565 S
C2388 C2386 1.391 . S
C2388 C2389 1.400 . S
C2389 C2383 1.491 . S
C2389 C2388 1.400 . S
C2389 C2390 1.398 . S
C2390 H2378 0.950 . S
C2390 C2389 1.398 . S
C2390 C2391 1.391 . S
C2391 H2379 0.950 . S
C2391 C2387 1.393 . S
C2391 C2390 1.391 . S
H2392 C2400 0.950 . S
H2393 C2405 0.950 . S
H2394 C2402 0.950 . S
H2395 C2404 0.950 . S
H2396 C2406 0.950 . S
H2397 C2408 0.950 . S
H2398 C2410 0.950 . S
H2399 C2411 0.950 . S
C2400 H2392 0.950 . S
C2400 C2401 1.386 . S
C2400 C2402 1.391 . S
C2401 C2400 1.386 . S
C2401 C2405 1.393 . S
C2402 H2394 0.950 . S
C2402 C2400 1.391 . S
C2402 C2403 1.400 . S
C2403 C2402 1.400 . S
C2403 C2404 1.398 . S
C2403 C2409 1.491 . S
C2404 H2395 0.950 . S
C2404 C2403 1.398 . S
C2404 C2405 1.391 . S
C2405 H2393 0.950 . S
C2405 C2401 1.393 . S
C2405 C2404 1.391 . S
C2406 H2396 0.950 . S
C2406 C2407 1.386 . S
C2406 C2408 1.391 . S
C2407 C2406 1.386 . S
C2407 C2411 1.393 . S
C2408 H2397 0.950 . S
C2408 C2406 1.391 . S
C2408 C2409 1.400 . S
C2409 C2403 1.491 . S
C2409 C2408 1.400 . S
C2409 C2410 1.398 . S
C2410 H2398 0.950 . S
C2410 C2409 1.398 . S
C2410 C2411 1.391 . S
C2411 H2399 0.950 . S
C2411 C2407 1.393 . S
C2411 C2410 1.391 . S
H2412 C2420 0.950 . S
H2413 C2425 0.950 . S
H2414 C2422 0.950 . S
H2415 C2424 0.950 . S
H2416 C2426 0.950 . S
H2417 C2428 0.950 . S
H2418 C2430 0.950 . S
H2419 C2431 0.950 . S
C2420 H2412 0.950 . S
C2420 C2421 1.386 . S
C2420 C2422 1.391 . S
C2421 C2420 1.386 . S
C2421 C2425 1.393 . S
C2422 H2414 0.950 . S
C2422 C2420 1.391 . S
C2422 C2423 1.400 . S
C2423 C2422 1.400 . S
C2423 C2424 1.398 . S
C2423 C2429 1.491 . S
C2424 H2415 0.950 . S
C2424 C2423 1.398 . S
C2424 C2425 1.391 . S
C2425 H2413 0.950 . S
C2425 C2421 1.393 . S
C2425 C2424 1.391 . S
C2426 H2416 0.950 . S
C2426 C2427 1.386 . S
C2426 C2428 1.391 . S
C2427 C2426 1.386 . S
C2427 C2431 1.393 . S
C2428 H2417 0.950 . S
C2428 C2426 1.391 . S
C2428 C2429 1.400 . S
C2429 C2423 1.491 . S
C2429 C2428 1.400 . S
C2429 C2430 1.398 . S
C2430 H2418 0.950 . S
C2430 C2429 1.398 . S
C2430 C2431 1.391 . S
C2431 H2419 0.950 . S
C2431 C2427 1.393 . S
C2431 C2430 1.391 . S
H2432 C2440 0.950 . S
H2433 C2445 0.950 . S
H2434 C2442 0.950 . S
H2435 C2444 0.950 . S
H2436 C2446 0.950 . S
H2437 C2448 0.950 . S
H2438 C2450 0.950 . S
H2439 C2451 0.950 . S
C2440 H2432 0.950 . S
C2440 C2441 1.386 . S
C2440 C2442 1.391 . S
C2441 C2440 1.386 . S
C2441 C2445 1.393 . S
C2442 H2434 0.950 . S
C2442 C2440 1.391 . S
C2442 C2443 1.400 . S
C2443 C2442 1.400 . S
C2443 C2444 1.398 . S
C2443 C2449 1.491 . S
C2444 H2435 0.950 . S
C2444 C2443 1.398 . S
C2444 C2445 1.391 . S
C2445 H2433 0.950 . S
C2445 C2441 1.393 . S
C2445 C2444 1.391 . S
C2446 H2436 0.950 . S
C2446 C2447 1.386 . S
C2446 C2448 1.391 . S
C2447 C2446 1.386 . S
C2447 C2451 1.393 . S
C2448 H2437 0.950 . S
C2448 C2446 1.391 . S
C2448 C2449 1.400 . S
C2449 C2443 1.491 . S
C2449 C2448 1.400 . S
C2449 C2450 1.398 . S
C2450 H2438 0.950 . S
C2450 C2449 1.398 . S
C2450 C2451 1.391 . S
C2451 H2439 0.950 . S
C2451 C2447 1.393 . S
C2451 C2450 1.391 . S
H2452 C2460 0.950 . S
H2453 C2465 0.950 . S
H2454 C2462 0.950 . S
H2455 C2464 0.950 . S
H2456 C2466 0.950 . S
H2457 C2468 0.950 . S
H2458 C2470 0.950 . S
H2459 C2471 0.950 . S
C2460 H2452 0.950 . S
C2460 C2461 1.386 . S
C2460 C2462 1.391 . S
C2461 C2460 1.386 . S
C2461 C2465 1.393 . S
C2462 H2454 0.950 . S
C2462 C2460 1.391 . S
C2462 C2463 1.400 . S
C2463 C2462 1.400 . S
C2463 C2464 1.398 . S
C2463 C2469 1.491 . S
C2464 H2455 0.950 . S
C2464 C2463 1.398 . S
C2464 C2465 1.391 . S
C2465 H2453 0.950 . S
C2465 C2461 1.393 . S
C2465 C2464 1.391 . S
C2466 H2456 0.950 . S
C2466 C2467 1.386 . S
C2466 C2468 1.391 . S
C2467 C2466 1.386 . S
C2467 C2471 1.393 . S
C2468 H2457 0.950 . S
C2468 C2466 1.391 . S
C2468 C2469 1.400 . S
C2469 C2463 1.491 . S
C2469 C2468 1.400 . S
C2469 C2470 1.398 . S
C2470 H2458 0.950 . S
C2470 C2469 1.398 . S
C2470 C2471 1.391 . S
C2471 H2459 0.950 . S
C2471 C2467 1.393 . S
C2471 C2470 1.391 . S
H2472 C2480 0.950 . S
H2473 C2485 0.950 1_565 S
H2474 C2482 0.950 . S
H2475 C2484 0.950 . S
H2476 C2486 0.950 . S
H2477 C2488 0.950 . S
H2478 C2490 0.950 . S
H2479 C2491 0.950 . S
C2480 H2472 0.950 . S
C2480 C2481 1.361 1_545 S
C2480 C2482 1.391 . S
C2481 C2480 1.361 1_565 S
C2481 C2485 1.379 1_565 S
C2482 H2474 0.950 . S
C2482 C2480 1.391 . S
C2482 C2483 1.400 . S
C2483 C2482 1.400 . S
C2483 C2484 1.398 . S
C2483 C2489 1.491 . S
C2484 H2475 0.950 . S
C2484 C2483 1.398 . S
C2484 C2485 1.391 . S
C2485 H2473 0.950 1_545 S
C2485 C2481 1.379 1_545 S
C2485 C2484 1.391 . S
C2486 H2476 0.950 . S
C2486 C2487 1.386 . S
C2486 C2488 1.391 . S
C2487 C2486 1.386 . S
C2487 C2491 1.393 . S
C2488 H2477 0.950 . S
C2488 C2486 1.391 . S
C2488 C2489 1.400 . S
C2489 C2483 1.491 . S
C2489 C2488 1.400 . S
C2489 C2490 1.398 . S
C2490 H2478 0.950 . S
C2490 C2489 1.398 . S
C2490 C2491 1.391 . S
C2491 H2479 0.950 . S
C2491 C2487 1.393 . S
C2491 C2490 1.391 . S
H2492 C2500 0.950 . S
H2493 C2505 0.950 . S
H2494 C2502 0.950 . S
H2495 C2504 0.950 . S
H2496 C2506 0.950 . S
H2497 C2508 0.950 . S
H2498 C2510 0.950 . S
H2499 C2511 0.950 . S
C2500 H2492 0.950 . S
C2500 C2501 1.386 . S
C2500 C2502 1.391 . S
C2501 C2500 1.386 . S
C2501 C2505 1.393 . S
C2502 H2494 0.950 . S
C2502 C2500 1.391 . S
C2502 C2503 1.400 . S
C2503 C2502 1.400 . S
C2503 C2504 1.398 . S
C2503 C2509 1.491 . S
C2504 H2495 0.950 . S
C2504 C2503 1.398 . S
C2504 C2505 1.391 . S
C2505 H2493 0.950 . S
C2505 C2501 1.393 . S
C2505 C2504 1.391 . S
C2506 H2496 0.950 . S
C2506 C2507 1.386 . S
C2506 C2508 1.391 . S
C2507 C2506 1.386 . S
C2507 C2511 1.393 . S
C2508 H2497 0.950 . S
C2508 C2506 1.391 . S
C2508 C2509 1.400 . S
C2509 C2503 1.491 . S
C2509 C2508 1.400 . S
C2509 C2510 1.398 . S
C2510 H2498 0.950 . S
C2510 C2509 1.398 . S
C2510 C2511 1.391 . S
C2511 H2499 0.950 . S
C2511 C2507 1.393 . S
C2511 C2510 1.391 . S
H2512 C2520 0.950 . S
H2513 C2525 0.950 1_545 S
H2514 C2522 0.949 1_655 S
H2515 C2524 0.950 . S
H2516 C2526 0.950 . S
H2517 C2528 0.950 . S
H2518 C2530 0.973 . S
H2519 C2531 0.950 . S
C2520 H2512 0.950 . S
C2520 C2521 1.370 1_665 S
C2520 C2522 1.391 1_655 S
C2521 C2520 1.370 1_445 S
C2521 C2525 1.391 1_545 S
C2522 H2514 0.949 1_455 S
C2522 C2520 1.391 1_455 S
C2522 C2523 1.401 . S
C2523 C2522 1.401 . S
C2523 C2524 1.398 . S
C2523 C2529 1.491 . S
C2524 H2515 0.950 . S
C2524 C2523 1.398 . S
C2524 C2525 1.391 . S
C2525 H2513 0.950 1_565 S
C2525 C2521 1.391 1_565 S
C2525 C2524 1.391 . S
C2526 H2516 0.950 . S
C2526 C2527 1.386 . S
C2526 C2528 1.391 . S
C2527 C2526 1.386 . S
C2527 C2531 1.393 . S
C2528 H2517 0.950 . S
C2528 C2526 1.391 . S
C2528 C2529 1.400 . S
C2529 C2523 1.491 . S
C2529 C2528 1.400 . S
C2529 C2530 1.398 . S
C2530 H2518 0.973 . S
C2530 C2529 1.398 . S
C2530 C2531 1.391 . S
C2531 H2519 0.950 . S
C2531 C2527 1.393 . S
C2531 C2530 1.391 . S
H2532 C2540 0.950 . S
H2533 C2545 0.950 . S
H2534 C2542 0.950 . S
H2535 C2544 0.950 . S
H2536 C2546 0.950 . S
H2537 C2548 0.950 . S
H2538 C2550 0.950 . S
H2539 C2551 0.950 . S
C2540 H2532 0.950 . S
C2540 C2541 1.386 . S
C2540 C2542 1.391 . S
C2541 C2540 1.386 . S
C2541 C2545 1.393 . S
C2542 H2534 0.950 . S
C2542 C2540 1.391 . S
C2542 C2543 1.400 . S
C2543 C2542 1.400 . S
C2543 C2544 1.398 . S
C2543 C2549 1.491 . S
C2544 H2535 0.950 . S
C2544 C2543 1.398 . S
C2544 C2545 1.391 . S
C2545 H2533 0.950 . S
C2545 C2541 1.393 . S
C2545 C2544 1.391 . S
C2546 H2536 0.950 . S
C2546 C2547 1.386 . S
C2546 C2548 1.391 . S
C2547 C2546 1.386 . S
C2547 C2551 1.393 . S
C2548 H2537 0.950 . S
C2548 C2546 1.391 . S
C2548 C2549 1.400 . S
C2549 C2543 1.491 . S
C2549 C2548 1.400 . S
C2549 C2550 1.398 . S
C2550 H2538 0.950 . S
C2550 C2549 1.398 . S
C2550 C2551 1.391 . S
C2551 H2539 0.950 . S
C2551 C2547 1.393 . S
C2551 C2550 1.391 . S
H2552 C2560 0.950 . S
H2553 C2565 0.950 . S
H2554 C2562 0.950 . S
H2555 C2564 0.950 . S
H2556 C2566 0.950 . S
H2557 C2568 0.950 . S
H2558 C2570 0.950 . S
H2559 C2571 0.950 1_545 S
C2560 H2552 0.950 . S
C2560 C2561 1.386 . S
C2560 C2562 1.391 . S
C2561 C2560 1.386 . S
C2561 C2565 1.393 . S
C2562 H2554 0.950 . S
C2562 C2560 1.391 . S
C2562 C2563 1.400 . S
C2563 C2562 1.400 . S
C2563 C2564 1.398 . S
C2563 C2569 1.491 . S
C2564 H2555 0.950 . S
C2564 C2563 1.398 . S
C2564 C2565 1.391 . S
C2565 H2553 0.950 . S
C2565 C2561 1.393 . S
C2565 C2564 1.391 . S
C2566 H2556 0.950 . S
C2566 C2567 1.357 1_565 S
C2566 C2568 1.391 . S
C2567 C2566 1.357 1_545 S
C2567 C2571 1.387 1_545 S
C2568 H2557 0.950 . S
C2568 C2566 1.391 . S
C2568 C2569 1.400 . S
C2569 C2563 1.491 . S
C2569 C2568 1.400 . S
C2569 C2570 1.398 . S
C2570 H2558 0.950 . S
C2570 C2569 1.398 . S
C2570 C2571 1.391 . S
C2571 H2559 0.950 1_565 S
C2571 C2567 1.387 1_565 S
C2571 C2570 1.391 . S
H2572 C2580 0.950 . S
H2573 C2585 0.950 . S
H2574 C2582 0.950 . S
H2575 C2584 0.950 . S
H2576 C2586 0.950 . S
H2577 C2588 0.950 . S
H2578 C2590 0.950 . S
H2579 C2591 0.950 . S
C2580 H2572 0.950 . S
C2580 C2581 1.386 . S
C2580 C2582 1.391 . S
C2581 C2580 1.386 . S
C2581 C2585 1.393 . S
C2582 H2574 0.950 . S
C2582 C2580 1.391 . S
C2582 C2583 1.400 . S
C2583 C2582 1.400 . S
C2583 C2584 1.398 . S
C2583 C2589 1.491 . S
C2584 H2575 0.950 . S
C2584 C2583 1.398 . S
C2584 C2585 1.391 . S
C2585 H2573 0.950 . S
C2585 C2581 1.393 . S
C2585 C2584 1.391 . S
C2586 H2576 0.950 . S
C2586 C2587 1.386 . S
C2586 C2588 1.391 . S
C2587 C2586 1.386 . S
C2587 C2591 1.393 . S
C2588 H2577 0.950 . S
C2588 C2586 1.391 . S
C2588 C2589 1.400 . S
C2589 C2583 1.491 . S
C2589 C2588 1.400 . S
C2589 C2590 1.398 . S
C2590 H2578 0.950 . S
C2590 C2589 1.398 . S
C2590 C2591 1.391 . S
C2591 H2579 0.950 . S
C2591 C2587 1.393 . S
C2591 C2590 1.391 . S
H2592 C2600 0.950 . S
H2593 C2605 0.950 . S
H2594 C2602 0.950 . S
H2595 C2604 0.950 . S
H2596 C2606 0.950 . S
H2597 C2608 0.950 . S
H2598 C2610 0.950 . S
H2599 C2611 0.950 . S
C2600 H2592 0.950 . S
C2600 C2601 1.386 . S
C2600 C2602 1.391 . S
C2601 C2600 1.386 . S
C2601 C2605 1.393 . S
C2602 H2594 0.950 . S
C2602 C2600 1.391 . S
C2602 C2603 1.400 . S
C2603 C2602 1.400 . S
C2603 C2604 1.398 . S
C2603 C2609 1.491 1_455 S
C2604 H2595 0.950 . S
C2604 C2603 1.398 . S
C2604 C2605 1.391 . S
C2605 H2593 0.950 . S
C2605 C2601 1.393 . S
C2605 C2604 1.391 . S
C2606 H2596 0.950 . S
C2606 C2607 1.386 . S
C2606 C2608 1.391 . S
C2607 C2606 1.386 . S
C2607 C2611 1.393 . S
C2608 H2597 0.950 . S
C2608 C2606 1.391 . S
C2608 C2609 1.400 . S
C2609 C2603 1.491 1_655 S
C2609 C2608 1.400 . S
C2609 C2610 1.398 . S
C2610 H2598 0.950 . S
C2610 C2609 1.398 . S
C2610 C2611 1.391 . S
C2611 H2599 0.950 . S
C2611 C2607 1.393 . S
C2611 C2610 1.391 . S
H2612 C2620 0.950 . S
H2613 C2625 0.950 . S
H2614 C2622 0.950 . S
H2615 C2624 0.950 . S
H2616 C2626 0.950 . S
H2617 C2628 0.950 . S
H2618 C2630 0.950 . S
H2619 C2631 0.950 . S
C2620 H2612 0.950 . S
C2620 C2621 1.386 . S
C2620 C2622 1.391 . S
C2621 C2620 1.386 . S
C2621 C2625 1.393 . S
C2622 H2614 0.950 . S
C2622 C2620 1.391 . S
C2622 C2623 1.400 . S
C2623 C2622 1.400 . S
C2623 C2624 1.398 . S
C2623 C2629 1.491 . S
C2624 H2615 0.950 . S
C2624 C2623 1.398 . S
C2624 C2625 1.391 . S
C2625 H2613 0.950 . S
C2625 C2621 1.393 . S
C2625 C2624 1.391 . S
C2626 H2616 0.950 . S
C2626 C2627 1.386 . S
C2626 C2628 1.391 . S
C2627 C2626 1.386 . S
C2627 C2631 1.393 . S
C2628 H2617 0.950 . S
C2628 C2626 1.391 . S
C2628 C2629 1.400 . S
C2629 C2623 1.491 . S
C2629 C2628 1.400 . S
C2629 C2630 1.398 . S
C2630 H2618 0.950 . S
C2630 C2629 1.398 . S
C2630 C2631 1.391 . S
C2631 H2619 0.950 . S
C2631 C2627 1.393 . S
C2631 C2630 1.391 . S
H2632 C2640 0.950 . S
H2633 C2645 0.950 . S
H2634 C2642 0.952 . S
H2635 C2644 0.950 . S
H2636 C2646 0.950 . S
H2637 C2648 0.952 . S
H2638 C2650 0.950 . S
H2639 C2651 0.950 . S
C2640 H2632 0.950 . S
C2640 C2641 1.386 . S
C2640 C2642 1.391 . S
C2641 C2640 1.386 . S
C2641 C2645 1.393 . S
C2642 H2634 0.952 . S
C2642 C2640 1.391 . S
C2642 C2643 1.400 . S
C2643 C2642 1.400 . S
C2643 C2644 1.398 . S
C2643 C2649 1.491 1_655 S
C2644 H2635 0.950 . S
C2644 C2643 1.398 . S
C2644 C2645 1.391 . S
C2645 H2633 0.950 . S
C2645 C2641 1.393 . S
C2645 C2644 1.391 . S
C2646 H2636 0.950 . S
C2646 C2647 1.386 . S
C2646 C2648 1.391 . S
C2647 C2646 1.386 . S
C2647 C2651 1.393 . S
C2648 H2637 0.952 . S
C2648 C2646 1.391 . S
C2648 C2649 1.400 . S
C2649 C2643 1.491 1_455 S
C2649 C2648 1.400 . S
C2649 C2650 1.398 . S
C2650 H2638 0.950 . S
C2650 C2649 1.398 . S
C2650 C2651 1.391 . S
C2651 H2639 0.950 . S
C2651 C2647 1.393 . S
C2651 C2650 1.391 . S
H2652 C2660 0.950 . S
H2653 C2665 0.950 . S
H2654 C2662 0.950 . S
H2655 C2664 0.950 . S
H2656 C2666 0.950 . S
H2657 C2668 0.950 . S
H2658 C2670 0.950 . S
H2659 C2671 0.950 . S
C2660 H2652 0.950 . S
C2660 C2661 1.386 . S
C2660 C2662 1.391 . S
C2661 C2660 1.386 . S
C2661 C2665 1.393 . S
C2662 H2654 0.950 . S
C2662 C2660 1.391 . S
C2662 C2663 1.400 . S
C2663 C2662 1.400 . S
C2663 C2664 1.398 1_655 S
C2663 C2669 1.491 1_655 S
C2664 H2655 0.950 . S
C2664 C2663 1.398 1_455 S
C2664 C2665 1.391 1_455 S
C2665 H2653 0.950 . S
C2665 C2661 1.393 . S
C2665 C2664 1.391 1_655 S
C2666 H2656 0.950 . S
C2666 C2667 1.386 . S
C2666 C2668 1.391 . S
C2667 C2666 1.386 . S
C2667 C2671 1.393 . S
C2668 H2657 0.950 . S
C2668 C2666 1.391 . S
C2668 C2669 1.400 . S
C2669 C2663 1.491 1_455 S
C2669 C2668 1.400 . S
C2669 C2670 1.398 1_455 S
C2670 H2658 0.950 . S
C2670 C2669 1.398 1_655 S
C2670 C2671 1.391 1_655 S
C2671 H2659 0.950 . S
C2671 C2667 1.393 . S
C2671 C2670 1.391 1_455 S
H2672 C2680 0.950 . S
H2673 C2685 0.950 . S
H2674 C2682 0.962 . S
H2675 C2684 0.950 . S
H2676 C2686 0.950 . S
H2677 C2688 0.962 . S
H2678 C2690 0.950 . S
H2679 C2691 0.950 . S
C2680 H2672 0.950 . S
C2680 C2681 1.386 . S
C2680 C2682 1.391 . S
C2681 C2680 1.386 . S
C2681 C2685 1.393 . S
C2682 H2674 0.962 . S
C2682 C2680 1.391 . S
C2682 C2683 1.400 . S
C2683 C2682 1.400 . S
C2683 C2684 1.398 . S
C2683 C2689 1.491 1_565 S
C2684 H2675 0.950 . S
C2684 C2683 1.398 . S
C2684 C2685 1.391 . S
C2685 H2673 0.950 . S
C2685 C2681 1.393 . S
C2685 C2684 1.391 . S
C2686 H2676 0.950 . S
C2686 C2687 1.386 . S
C2686 C2688 1.391 . S
C2687 C2686 1.386 . S
C2687 C2691 1.393 . S
C2688 H2677 0.962 . S
C2688 C2686 1.391 . S
C2688 C2689 1.400 . S
C2689 C2683 1.491 1_545 S
C2689 C2688 1.400 . S
C2689 C2690 1.398 . S
C2690 H2678 0.950 . S
C2690 C2689 1.398 . S
C2690 C2691 1.391 . S
C2691 H2679 0.950 . S
C2691 C2687 1.393 . S
C2691 C2690 1.391 . S
H2692 C2700 0.950 . S
H2693 C2705 0.950 . S
H2694 C2702 0.950 . S
H2695 C2704 0.950 . S
H2696 C2706 0.950 . S
H2697 C2708 0.950 . S
H2698 C2710 0.950 . S
H2699 C2711 0.950 . S
C2700 H2692 0.950 . S
C2700 C2701 1.386 . S
C2700 C2702 1.391 . S
C2701 C2700 1.386 . S
C2701 C2705 1.393 . S
C2702 H2694 0.950 . S
C2702 C2700 1.391 . S
C2702 C2703 1.400 . S
C2703 C2702 1.400 . S
C2703 C2704 1.398 . S
C2703 C2709 1.491 1_556 S
C2704 H2695 0.950 . S
C2704 C2703 1.398 . S
C2704 C2705 1.391 . S
C2705 H2693 0.950 . S
C2705 C2701 1.393 . S
C2705 C2704 1.391 . S
C2706 H2696 0.950 . S
C2706 C2707 1.386 . S
C2706 C2708 1.391 . S
C2707 C2706 1.386 . S
C2707 C2711 1.393 . S
C2708 H2697 0.950 . S
C2708 C2706 1.391 . S
C2708 C2709 1.400 . S
C2709 C2703 1.491 1_554 S
C2709 C2708 1.400 . S
C2709 C2710 1.398 . S
C2710 H2698 0.950 . S
C2710 C2709 1.398 . S
C2710 C2711 1.391 . S
C2711 H2699 0.950 . S
C2711 C2707 1.393 . S
C2711 C2710 1.391 . S
H2712 C2720 0.950 . S
H2713 C2725 0.950 . S
H2714 C2722 0.950 . S
H2715 C2724 0.950 . S
H2716 C2726 0.950 . S
H2717 C2728 0.950 . S
H2718 C2730 0.950 . S
H2719 C2731 0.950 . S
C2720 H2712 0.950 . S
C2720 C2721 1.386 . S
C2720 C2722 1.391 . S
C2721 C2720 1.386 . S
C2721 C2725 1.393 . S
C2722 H2714 0.950 . S
C2722 C2720 1.391 . S
C2722 C2723 1.400 . S
C2723 C2722 1.400 . S
C2723 C2724 1.398 . S
C2723 C2729 1.491 . S
C2724 H2715 0.950 . S
C2724 C2723 1.398 . S
C2724 C2725 1.391 . S
C2725 H2713 0.950 . S
C2725 C2721 1.393 . S
C2725 C2724 1.391 . S
C2726 H2716 0.950 . S
C2726 C2727 1.386 . S
C2726 C2728 1.391 . S
C2727 C2726 1.386 . S
C2727 C2731 1.393 . S
C2728 H2717 0.950 . S
C2728 C2726 1.391 . S
C2728 C2729 1.400 . S
C2729 C2723 1.491 . S
C2729 C2728 1.400 . S
C2729 C2730 1.398 . S
C2730 H2718 0.950 . S
C2730 C2729 1.398 . S
C2730 C2731 1.391 . S
C2731 H2719 0.950 . S
C2731 C2727 1.393 . S
C2731 C2730 1.391 . S
H2732 C2740 0.950 . S
H2733 C2745 0.950 . S
H2734 C2742 0.950 1_556 S
H2735 C2744 0.950 . S
H2736 C2746 0.950 . S
H2737 C2748 0.950 1_554 S
H2738 C2750 0.950 . S
H2739 C2751 0.950 . S
C2740 H2732 0.950 . S
C2740 C2741 1.386 . S
C2740 C2742 1.391 . S
C2741 C2740 1.386 . S
C2741 C2745 1.393 . S
C2742 H2734 0.950 1_554 S
C2742 C2740 1.391 . S
C2742 C2743 1.400 . S
C2743 C2742 1.400 . S
C2743 C2744 1.398 . S
C2743 C2749 1.491 1_554 S
C2744 H2735 0.950 . S
C2744 C2743 1.398 . S
C2744 C2745 1.391 . S
C2745 H2733 0.950 . S
C2745 C2741 1.393 . S
C2745 C2744 1.391 . S
C2746 H2736 0.950 . S
C2746 C2747 1.386 . S
C2746 C2748 1.391 . S
C2747 C2746 1.386 . S
C2747 C2751 1.393 . S
C2748 H2737 0.950 1_556 S
C2748 C2746 1.391 . S
C2748 C2749 1.400 . S
C2749 C2743 1.491 1_556 S
C2749 C2748 1.400 . S
C2749 C2750 1.398 . S
C2750 H2738 0.950 . S
C2750 C2749 1.398 . S
C2750 C2751 1.391 . S
C2751 H2739 0.950 . S
C2751 C2747 1.393 . S
C2751 C2750 1.391 . S
H2752 C2760 0.950 . S
H2753 C2765 0.950 . S
H2754 C2762 0.950 . S
H2755 C2764 0.950 . S
H2756 C2766 0.950 . S
H2757 C2768 0.950 . S
H2758 C2770 0.950 . S
H2759 C2771 0.950 . S
C2760 H2752 0.950 . S
C2760 C2761 1.386 . S
C2760 C2762 1.391 . S
C2761 C2760 1.386 . S
C2761 C2765 1.393 . S
C2762 H2754 0.950 . S
C2762 C2760 1.391 . S
C2762 C2763 1.400 . S
C2763 C2762 1.400 . S
C2763 C2764 1.398 . S
C2763 C2769 1.491 1_556 S
C2764 H2755 0.950 . S
C2764 C2763 1.398 . S
C2764 C2765 1.391 . S
C2765 H2753 0.950 . S
C2765 C2761 1.393 . S
C2765 C2764 1.391 . S
C2766 H2756 0.950 . S
C2766 C2767 1.386 . S
C2766 C2768 1.391 . S
C2767 C2766 1.386 . S
C2767 C2771 1.393 . S
C2768 H2757 0.950 . S
C2768 C2766 1.391 . S
C2768 C2769 1.400 . S
C2769 C2763 1.491 1_554 S
C2769 C2768 1.400 . S
C2769 C2770 1.398 . S
C2770 H2758 0.950 . S
C2770 C2769 1.398 . S
C2770 C2771 1.391 . S
C2771 H2759 0.950 . S
C2771 C2767 1.393 . S
C2771 C2770 1.391 . S
H2772 C2780 0.950 . S
H2773 C2785 0.950 . S
H2774 C2782 0.950 . S
H2775 C2784 0.950 . S
H2776 C2786 0.950 . S
H2777 C2788 0.950 . S
H2778 C2790 0.950 . S
H2779 C2791 0.950 . S
C2780 H2772 0.950 . S
C2780 C2781 1.386 . S
C2780 C2782 1.391 . S
C2781 C2780 1.386 . S
C2781 C2785 1.393 . S
C2782 H2774 0.950 . S
C2782 C2780 1.391 . S
C2782 C2783 1.400 . S
C2783 C2782 1.400 . S
C2783 C2784 1.398 . S
C2783 C2789 1.491 . S
C2784 H2775 0.950 . S
C2784 C2783 1.398 . S
C2784 C2785 1.391 . S
C2785 H2773 0.950 . S
C2785 C2781 1.393 . S
C2785 C2784 1.391 . S
C2786 H2776 0.950 . S
C2786 C2787 1.386 . S
C2786 C2788 1.391 . S
C2787 C2786 1.386 . S
C2787 C2791 1.393 . S
C2788 H2777 0.950 . S
C2788 C2786 1.391 . S
C2788 C2789 1.400 . S
C2789 C2783 1.491 . S
C2789 C2788 1.400 . S
C2789 C2790 1.398 . S
C2790 H2778 0.950 . S
C2790 C2789 1.398 . S
C2790 C2791 1.391 . S
C2791 H2779 0.950 . S
C2791 C2787 1.393 . S
C2791 C2790 1.391 . S
H2792 C2800 0.950 . S
H2793 C2805 0.950 . S
H2794 C2802 0.950 . S
H2795 C2804 0.950 . S
H2796 C2806 0.950 . S
H2797 C2808 0.950 . S
H2798 C2810 0.950 . S
H2799 C2811 0.950 . S
C2800 H2792 0.950 . S
C2800 C2801 1.386 . S
C2800 C2802 1.391 . S
C2801 C2800 1.386 . S
C2801 C2805 1.393 . S
C2802 H2794 0.950 . S
C2802 C2800 1.391 . S
C2802 C2803 1.400 . S
C2803 C2802 1.400 . S
C2803 C2804 1.398 . S
C2803 C2809 1.491 . S
C2804 H2795 0.950 . S
C2804 C2803 1.398 . S
C2804 C2805 1.391 . S
C2805 H2793 0.950 . S
C2805 C2801 1.393 . S
C2805 C2804 1.391 . S
C2806 H2796 0.950 . S
C2806 C2807 1.386 . S
C2806 C2808 1.391 . S
C2807 C2806 1.386 . S
C2807 C2811 1.393 . S
C2808 H2797 0.950 . S
C2808 C2806 1.391 . S
C2808 C2809 1.400 . S
C2809 C2803 1.491 . S
C2809 C2808 1.400 . S
C2809 C2810 1.398 . S
C2810 H2798 0.950 . S
C2810 C2809 1.398 . S
C2810 C2811 1.391 . S
C2811 H2799 0.950 . S
C2811 C2807 1.393 . S
C2811 C2810 1.391 . S
H2812 C2820 0.950 . S
H2813 C2825 0.950 . S
H2814 C2822 0.950 . S
H2815 C2824 0.950 . S
H2816 C2826 0.950 . S
H2817 C2828 0.950 . S
H2818 C2830 0.950 . S
H2819 C2831 0.950 . S
C2820 H2812 0.950 . S
C2820 C2821 1.386 . S
C2820 C2822 1.391 . S
C2821 C2820 1.386 . S
C2821 C2825 1.393 . S
C2822 H2814 0.950 . S
C2822 C2820 1.391 . S
C2822 C2823 1.400 . S
C2823 C2822 1.400 . S
C2823 C2824 1.398 . S
C2823 C2829 1.491 . S
C2824 H2815 0.950 . S
C2824 C2823 1.398 . S
C2824 C2825 1.391 . S
C2825 H2813 0.950 . S
C2825 C2821 1.393 . S
C2825 C2824 1.391 . S
C2826 H2816 0.950 . S
C2826 C2827 1.386 . S
C2826 C2828 1.391 . S
C2827 C2826 1.386 . S
C2827 C2831 1.393 . S
C2828 H2817 0.950 . S
C2828 C2826 1.391 . S
C2828 C2829 1.400 . S
C2829 C2823 1.491 . S
C2829 C2828 1.400 . S
C2829 C2830 1.398 . S
C2830 H2818 0.950 . S
C2830 C2829 1.398 . S
C2830 C2831 1.391 . S
C2831 H2819 0.950 . S
C2831 C2827 1.393 . S
C2831 C2830 1.391 . S
H2832 C2840 0.950 . S
H2833 C2845 0.950 . S
H2834 C2842 0.950 . S
H2835 C2844 0.950 . S
H2836 C2846 0.950 . S
H2837 C2848 0.950 . S
H2838 C2850 0.950 . S
H2839 C2851 0.950 . S
C2840 H2832 0.950 . S
C2840 C2841 1.386 . S
C2840 C2842 1.391 . S
C2841 C2840 1.386 . S
C2841 C2845 1.393 . S
C2842 H2834 0.950 . S
C2842 C2840 1.391 . S
C2842 C2843 1.400 . S
C2843 C2842 1.400 . S
C2843 C2844 1.398 . S
C2843 C2849 1.491 . S
C2844 H2835 0.950 . S
C2844 C2843 1.398 . S
C2844 C2845 1.391 . S
C2845 H2833 0.950 . S
C2845 C2841 1.393 . S
C2845 C2844 1.391 . S
C2846 H2836 0.950 . S
C2846 C2847 1.386 . S
C2846 C2848 1.391 . S
C2847 C2846 1.386 . S
C2847 C2851 1.393 . S
C2848 H2837 0.950 . S
C2848 C2846 1.391 . S
C2848 C2849 1.400 . S
C2849 C2843 1.491 . S
C2849 C2848 1.400 . S
C2849 C2850 1.398 . S
C2850 H2838 0.950 . S
C2850 C2849 1.398 . S
C2850 C2851 1.391 . S
C2851 H2839 0.950 . S
C2851 C2847 1.393 . S
C2851 C2850 1.391 . S
H2852 C2860 0.950 . S
H2853 C2865 0.950 . S
H2854 C2862 0.950 . S
H2855 C2864 0.950 . S
H2856 C2866 0.950 . S
H2857 C2868 0.950 . S
H2858 C2870 0.950 . S
H2859 C2871 0.950 . S
C2860 H2852 0.950 . S
C2860 C2861 1.386 . S
C2860 C2862 1.391 1_545 S
C2861 C2860 1.386 . S
C2861 C2865 1.393 . S
C2862 H2854 0.950 . S
C2862 C2860 1.391 1_565 S
C2862 C2863 1.400 1_565 S
C2863 C2862 1.400 1_545 S
C2863 C2864 1.398 . S
C2863 C2869 1.491 1_545 S
C2864 H2855 0.950 . S
C2864 C2863 1.398 . S
C2864 C2865 1.391 . S
C2865 H2853 0.950 . S
C2865 C2861 1.393 . S
C2865 C2864 1.391 . S
C2866 H2856 0.950 . S
C2866 C2867 1.386 . S
C2866 C2868 1.391 1_565 S
C2867 C2866 1.386 . S
C2867 C2871 1.393 . S
C2868 H2857 0.950 . S
C2868 C2866 1.391 1_545 S
C2868 C2869 1.400 1_545 S
C2869 C2863 1.491 1_565 S
C2869 C2868 1.400 1_565 S
C2869 C2870 1.398 . S
C2870 H2858 0.950 . S
C2870 C2869 1.398 . S
C2870 C2871 1.391 . S
C2871 H2859 0.950 . S
C2871 C2867 1.393 . S
C2871 C2870 1.391 . S
H2872 C2880 0.950 . S
H2873 C2885 0.950 . S
H2874 C2882 0.950 . S
H2875 C2884 0.950 . S
H2876 C2886 0.950 . S
H2877 C2888 0.950 . S
H2878 C2890 0.950 . S
H2879 C2891 0.950 . S
C2880 H2872 0.950 . S
C2880 C2881 1.386 . S
C2880 C2882 1.391 . S
C2881 C2880 1.386 . S
C2881 C2885 1.393 . S
C2882 H2874 0.950 . S
C2882 C2880 1.391 . S
C2882 C2883 1.400 . S
C2883 C2882 1.400 . S
C2883 C2884 1.398 . S
C2883 C2889 1.491 . S
C2884 H2875 0.950 . S
C2884 C2883 1.398 . S
C2884 C2885 1.391 . S
C2885 H2873 0.950 . S
C2885 C2881 1.393 . S
C2885 C2884 1.391 . S
C2886 H2876 0.950 . S
C2886 C2887 1.386 . S
C2886 C2888 1.391 . S
C2887 C2886 1.386 . S
C2887 C2891 1.393 . S
C2888 H2877 0.950 . S
C2888 C2886 1.391 . S
C2888 C2889 1.400 . S
C2889 C2883 1.491 . S
C2889 C2888 1.400 . S
C2889 C2890 1.398 . S
C2890 H2878 0.950 . S
C2890 C2889 1.398 . S
C2890 C2891 1.391 . S
C2891 H2879 0.950 . S
C2891 C2887 1.393 . S
C2891 C2890 1.391 . S
H2892 C2900 0.950 . S
H2893 C2905 0.950 . S
H2894 C2902 0.950 . S
H2895 C2904 0.939 1_455 S
H2896 C2906 0.950 . S
H2897 C2908 0.950 . S
H2898 C2910 0.939 1_655 S
H2899 C2911 0.950 . S
C2900 H2892 0.950 . S
C2900 C2901 1.386 . S
C2900 C2902 1.391 . S
C2901 C2900 1.386 . S
C2901 C2905 1.393 . S
C2902 H2894 0.950 . S
C2902 C2900 1.391 . S
C2902 C2903 1.400 . S
C2903 C2902 1.400 . S
C2903 C2904 1.398 . S
C2903 C2909 1.491 1_655 S
C2904 H2895 0.939 1_655 S
C2904 C2903 1.398 . S
C2904 C2905 1.391 . S
C2905 H2893 0.950 . S
C2905 C2901 1.393 . S
C2905 C2904 1.391 . S
C2906 H2896 0.950 . S
C2906 C2907 1.386 . S
C2906 C2908 1.391 . S
C2907 C2906 1.386 . S
C2907 C2911 1.393 . S
C2908 H2897 0.950 . S
C2908 C2906 1.391 . S
C2908 C2909 1.400 . S
C2909 C2903 1.491 1_455 S
C2909 C2908 1.400 . S
C2909 C2910 1.398 . S
C2910 H2898 0.939 1_455 S
C2910 C2909 1.398 . S
C2910 C2911 1.391 . S
C2911 H2899 0.950 . S
C2911 C2907 1.393 . S
C2911 C2910 1.391 . S
H2912 C2920 0.950 . S
H2913 C2925 0.950 . S
H2914 C2922 0.950 . S
H2915 C2924 0.950 . S
H2916 C2926 0.950 . S
H2917 C2928 0.950 . S
H2918 C2930 0.950 . S
H2919 C2931 0.950 . S
C2920 H2912 0.950 . S
C2920 C2921 1.386 . S
C2920 C2922 1.391 . S
C2921 C2920 1.386 . S
C2921 C2925 1.393 . S
C2922 H2914 0.950 . S
C2922 C2920 1.391 . S
C2922 C2923 1.400 . S
C2923 C2922 1.400 . S
C2923 C2924 1.398 . S
C2923 C2929 1.491 . S
C2924 H2915 0.950 . S
C2924 C2923 1.398 . S
C2924 C2925 1.391 . S
C2925 H2913 0.950 . S
C2925 C2921 1.393 . S
C2925 C2924 1.391 . S
C2926 H2916 0.950 . S
C2926 C2927 1.386 . S
C2926 C2928 1.391 . S
C2927 C2926 1.386 . S
C2927 C2931 1.393 . S
C2928 H2917 0.950 . S
C2928 C2926 1.391 . S
C2928 C2929 1.400 . S
C2929 C2923 1.491 . S
C2929 C2928 1.400 . S
C2929 C2930 1.398 . S
C2930 H2918 0.950 . S
C2930 C2929 1.398 . S
C2930 C2931 1.391 . S
C2931 H2919 0.950 . S
C2931 C2927 1.393 . S
C2931 C2930 1.391 . S
H2932 C2940 0.950 . S
H2933 C2945 0.950 . S
H2934 C2942 0.950 . S
H2935 C2944 0.950 . S
H2936 C2946 0.950 . S
H2937 C2948 0.950 . S
H2938 C2950 0.950 . S
H2939 C2951 0.950 . S
C2940 H2932 0.950 . S
C2940 C2941 1.386 . S
C2940 C2942 1.391 . S
C2941 C2940 1.386 . S
C2941 C2945 1.393 . S
C2942 H2934 0.950 . S
C2942 C2940 1.391 . S
C2942 C2943 1.400 . S
C2943 C2942 1.400 . S
C2943 C2944 1.398 . S
C2943 C2949 1.491 . S
C2944 H2935 0.950 . S
C2944 C2943 1.398 . S
C2944 C2945 1.391 . S
C2945 H2933 0.950 . S
C2945 C2941 1.393 . S
C2945 C2944 1.391 . S
C2946 H2936 0.950 . S
C2946 C2947 1.386 . S
C2946 C2948 1.391 . S
C2947 C2946 1.386 . S
C2947 C2951 1.393 . S
C2948 H2937 0.950 . S
C2948 C2946 1.391 . S
C2948 C2949 1.400 . S
C2949 C2943 1.491 . S
C2949 C2948 1.400 . S
C2949 C2950 1.398 . S
C2950 H2938 0.950 . S
C2950 C2949 1.398 . S
C2950 C2951 1.391 . S
C2951 H2939 0.950 . S
C2951 C2947 1.393 . S
C2951 C2950 1.391 . S
H2952 C2960 0.950 . S
H2953 C2965 0.950 . S
H2954 C2962 0.950 . S
H2955 C2964 0.950 . S
H2956 C2966 0.950 . S
H2957 C2968 0.950 . S
H2958 C2970 0.950 . S
H2959 C2971 0.950 . S
C2960 H2952 0.950 . S
C2960 C2961 1.386 . S
C2960 C2962 1.391 . S
C2961 C2960 1.386 . S
C2961 C2965 1.393 . S
C2962 H2954 0.950 . S
C2962 C2960 1.391 . S
C2962 C2963 1.400 . S
C2963 C2962 1.400 . S
C2963 C2964 1.398 . S
C2963 C2969 1.491 . S
C2964 H2955 0.950 . S
C2964 C2963 1.398 . S
C2964 C2965 1.391 . S
C2965 H2953 0.950 . S
C2965 C2961 1.393 . S
C2965 C2964 1.391 . S
C2966 H2956 0.950 . S
C2966 C2967 1.386 . S
C2966 C2968 1.391 . S
C2967 C2966 1.386 . S
C2967 C2971 1.393 . S
C2968 H2957 0.950 . S
C2968 C2966 1.391 . S
C2968 C2969 1.400 . S
C2969 C2963 1.491 . S
C2969 C2968 1.400 . S
C2969 C2970 1.398 . S
C2970 H2958 0.950 . S
C2970 C2969 1.398 . S
C2970 C2971 1.391 . S
C2971 H2959 0.950 . S
C2971 C2967 1.393 . S
C2971 C2970 1.391 . S
H2972 C2980 0.950 . S
H2973 C2985 0.950 . S
H2974 C2982 0.950 . S
H2975 C2984 0.950 . S
H2976 C2986 0.950 . S
H2977 C2988 0.950 . S
H2978 C2990 0.950 . S
H2979 C2991 0.950 . S
C2980 H2972 0.950 . S
C2980 C2981 1.386 . S
C2980 C2982 1.391 . S
C2981 C2980 1.386 . S
C2981 C2985 1.393 . S
C2982 H2974 0.950 . S
C2982 C2980 1.391 . S
C2982 C2983 1.400 . S
C2983 C2982 1.400 . S
C2983 C2984 1.398 . S
C2983 C2989 1.491 . S
C2984 H2975 0.950 . S
C2984 C2983 1.398 . S
C2984 C2985 1.391 . S
C2985 H2973 0.950 . S
C2985 C2981 1.393 . S
C2985 C2984 1.391 . S
C2986 H2976 0.950 . S
C2986 C2987 1.386 . S
C2986 C2988 1.391 . S
C2987 C2986 1.386 . S
C2987 C2991 1.393 . S
C2988 H2977 0.950 . S
C2988 C2986 1.391 . S
C2988 C2989 1.400 . S
C2989 C2983 1.491 . S
C2989 C2988 1.400 . S
C2989 C2990 1.398 . S
C2990 H2978 0.950 . S
C2990 C2989 1.398 . S
C2990 C2991 1.391 . S
C2991 H2979 0.950 . S
C2991 C2987 1.393 . S
C2991 C2990 1.391 . S
H2992 C3000 0.950 . S
H2993 C3005 0.950 . S
H2994 C3002 0.950 . S
H2995 C3004 0.950 1_545 S
H2996 C3006 0.950 . S
H2997 C3008 0.950 . S
H2998 C3010 0.950 1_565 S
H2999 C3011 0.950 . S
C3000 H2992 0.950 . S
C3000 C3001 1.386 . S
C3000 C3002 1.391 . S
C3001 C3000 1.386 . S
C3001 C3005 1.393 . S
C3002 H2994 0.950 . S
C3002 C3000 1.391 . S
C3002 C3003 1.400 . S
C3003 C3002 1.400 . S
C3003 C3004 1.398 . S
C3003 C3009 1.491 1_565 S
C3004 H2995 0.950 1_565 S
C3004 C3003 1.398 . S
C3004 C3005 1.391 . S
C3005 H2993 0.950 . S
C3005 C3001 1.393 . S
C3005 C3004 1.391 . S
C3006 H2996 0.950 . S
C3006 C3007 1.386 . S
C3006 C3008 1.391 . S
C3007 C3006 1.386 . S
C3007 C3011 1.393 . S
C3008 H2997 0.950 . S
C3008 C3006 1.391 . S
C3008 C3009 1.400 . S
C3009 C3003 1.491 1_545 S
C3009 C3008 1.400 . S
C3009 C3010 1.398 . S
C3010 H2998 0.950 1_545 S
C3010 C3009 1.398 . S
C3010 C3011 1.391 . S
C3011 H2999 0.950 . S
C3011 C3007 1.393 . S
C3011 C3010 1.391 . S
H3012 C3020 0.950 . S
H3013 C3025 0.950 . S
H3014 C3022 0.950 . S
H3015 C3024 0.950 . S
H3016 C3026 0.950 . S
H3017 C3028 0.950 . S
H3018 C3030 0.950 . S
H3019 C3031 0.950 . S
C3020 H3012 0.950 . S
C3020 C3021 1.386 . S
C3020 C3022 1.391 . S
C3021 C3020 1.386 . S
C3021 C3025 1.393 . S
C3022 H3014 0.950 . S
C3022 C3020 1.391 . S
C3022 C3023 1.400 . S
C3023 C3022 1.400 . S
C3023 C3024 1.398 . S
C3023 C3029 1.491 . S
C3024 H3015 0.950 . S
C3024 C3023 1.398 . S
C3024 C3025 1.391 . S
C3025 H3013 0.950 . S
C3025 C3021 1.393 . S
C3025 C3024 1.391 . S
C3026 H3016 0.950 . S
C3026 C3027 1.386 . S
C3026 C3028 1.391 . S
C3027 C3026 1.386 . S
C3027 C3031 1.393 . S
C3028 H3017 0.950 . S
C3028 C3026 1.391 . S
C3028 C3029 1.400 . S
C3029 C3023 1.491 . S
C3029 C3028 1.400 . S
C3029 C3030 1.398 . S
C3030 H3018 0.950 . S
C3030 C3029 1.398 . S
C3030 C3031 1.391 . S
C3031 H3019 0.950 . S
C3031 C3027 1.393 . S
C3031 C3030 1.391 . S
H3032 C3040 0.950 . S
H3033 C3045 0.950 . S
H3034 C3042 0.950 . S
H3035 C3044 0.950 . S
H3036 C3046 0.950 . S
H3037 C3048 0.950 . S
H3038 C3050 0.950 . S
H3039 C3051 0.950 . S
C3040 H3032 0.950 . S
C3040 C3041 1.386 . S
C3040 C3042 1.391 . S
C3041 C3040 1.386 . S
C3041 C3045 1.393 . S
C3042 H3034 0.950 . S
C3042 C3040 1.391 . S
C3042 C3043 1.400 . S
C3043 C3042 1.400 . S
C3043 C3044 1.398 . S
C3043 C3049 1.491 1_554 S
C3044 H3035 0.950 . S
C3044 C3043 1.398 . S
C3044 C3045 1.391 . S
C3045 H3033 0.950 . S
C3045 C3041 1.393 . S
C3045 C3044 1.391 . S
C3046 H3036 0.950 . S
C3046 C3047 1.386 . S
C3046 C3048 1.391 . S
C3047 C3046 1.386 . S
C3047 C3051 1.393 . S
C3048 H3037 0.950 . S
C3048 C3046 1.391 . S
C3048 C3049 1.400 . S
C3049 C3043 1.491 1_556 S
C3049 C3048 1.400 . S
C3049 C3050 1.398 . S
C3050 H3038 0.950 . S
C3050 C3049 1.398 . S
C3050 C3051 1.391 . S
C3051 H3039 0.950 . S
C3051 C3047 1.393 . S
C3051 C3050 1.391 . S
H3052 C3060 0.950 . S
H3053 C3065 0.950 . S
H3054 C3062 0.950 . S
H3055 C3064 0.936 1_545 S
H3056 C3066 0.950 . S
H3057 C3068 0.950 . S
H3058 C3070 0.936 1_565 S
H3059 C3071 0.950 . S
C3060 H3052 0.950 . S
C3060 C3061 1.386 . S
C3060 C3062 1.391 . S
C3061 C3060 1.386 . S
C3061 C3065 1.393 . S
C3062 H3054 0.950 . S
C3062 C3060 1.391 . S
C3062 C3063 1.400 . S
C3063 C3062 1.400 . S
C3063 C3064 1.403 . S
C3063 C3069 1.491 1_565 S
C3064 H3055 0.936 1_565 S
C3064 C3063 1.403 . S
C3064 C3065 1.400 . S
C3065 H3053 0.950 . S
C3065 C3061 1.393 . S
C3065 C3064 1.400 . S
C3066 H3056 0.950 . S
C3066 C3067 1.386 . S
C3066 C3068 1.391 . S
C3067 C3066 1.386 . S
C3067 C3071 1.393 . S
C3068 H3057 0.950 . S
C3068 C3066 1.391 . S
C3068 C3069 1.400 . S
C3069 C3063 1.491 1_545 S
C3069 C3068 1.400 . S
C3069 C3070 1.403 . S
C3070 H3058 0.936 1_545 S
C3070 C3069 1.403 . S
C3070 C3071 1.400 . S
C3071 H3059 0.950 . S
C3071 C3067 1.393 . S
C3071 C3070 1.400 . S
H3072 C3080 0.950 . S
H3073 C3085 0.950 . S
H3074 C3082 0.950 . S
H3075 C3084 0.950 . S
H3076 C3086 0.950 . S
H3077 C3088 0.950 . S
H3078 C3090 0.950 . S
H3079 C3091 0.950 . S
C3080 H3072 0.950 . S
C3080 C3081 1.386 . S
C3080 C3082 1.391 . S
C3081 C3080 1.386 . S
C3081 C3085 1.393 . S
C3082 H3074 0.950 . S
C3082 C3080 1.391 . S
C3082 C3083 1.400 . S
C3083 C3082 1.400 . S
C3083 C3084 1.398 . S
C3083 C3089 1.491 . S
C3084 H3075 0.950 . S
C3084 C3083 1.398 . S
C3084 C3085 1.391 . S
C3085 H3073 0.950 . S
C3085 C3081 1.393 . S
C3085 C3084 1.391 . S
C3086 H3076 0.950 . S
C3086 C3087 1.386 . S
C3086 C3088 1.391 . S
C3087 C3086 1.386 . S
C3087 C3091 1.393 . S
C3088 H3077 0.950 . S
C3088 C3086 1.391 . S
C3088 C3089 1.400 . S
C3089 C3083 1.491 . S
C3089 C3088 1.400 . S
C3089 C3090 1.398 . S
C3090 H3078 0.950 . S
C3090 C3089 1.398 . S
C3090 C3091 1.391 . S
C3091 H3079 0.950 . S
C3091 C3087 1.393 . S
C3091 C3090 1.391 . S
H3092 C3100 0.950 . S
H3093 C3105 0.950 . S
H3094 C3102 0.950 . S
H3095 C3104 0.950 . S
H3096 C3106 0.950 . S
H3097 C3108 0.950 . S
H3098 C3110 0.950 . S
H3099 C3111 0.950 . S
C3100 H3092 0.950 . S
C3100 C3101 1.386 . S
C3100 C3102 1.391 . S
C3101 C3100 1.386 . S
C3101 C3105 1.393 . S
C3102 H3094 0.950 . S
C3102 C3100 1.391 . S
C3102 C3103 1.400 . S
C3103 C3102 1.400 . S
C3103 C3104 1.398 . S
C3103 C3109 1.491 . S
C3104 H3095 0.950 . S
C3104 C3103 1.398 . S
C3104 C3105 1.391 . S
C3105 H3093 0.950 . S
C3105 C3101 1.393 . S
C3105 C3104 1.391 . S
C3106 H3096 0.950 . S
C3106 C3107 1.386 . S
C3106 C3108 1.391 . S
C3107 C3106 1.386 . S
C3107 C3111 1.393 . S
C3108 H3097 0.950 . S
C3108 C3106 1.391 . S
C3108 C3109 1.400 . S
C3109 C3103 1.491 . S
C3109 C3108 1.400 . S
C3109 C3110 1.398 . S
C3110 H3098 0.950 . S
C3110 C3109 1.398 . S
C3110 C3111 1.391 . S
C3111 H3099 0.950 . S
C3111 C3107 1.393 . S
C3111 C3110 1.391 . S
H3112 C3120 0.950 . S
H3113 C3125 0.950 . S
H3114 C3122 0.950 . S
H3115 C3124 0.950 . S
H3116 C3126 0.913 1_565 S
H3117 C3128 0.950 . S
H3118 C3130 0.950 . S
H3119 C3131 0.950 . S
C3120 H3112 0.950 . S
C3120 C3121 1.386 . S
C3120 C3122 1.391 . S
C3121 C3120 1.386 . S
C3121 C3125 1.393 . S
C3122 H3114 0.950 . S
C3122 C3120 1.391 . S
C3122 C3123 1.400 . S
C3123 C3122 1.400 . S
C3123 C3124 1.398 . S
C3123 C3129 1.491 . S
C3124 H3115 0.950 . S
C3124 C3123 1.398 . S
C3124 C3125 1.391 . S
C3125 H3113 0.950 . S
C3125 C3121 1.393 . S
C3125 C3124 1.391 . S
C3126 H3116 0.913 1_545 S
C3126 C3127 1.386 . S
C3126 C3128 1.391 . S
C3127 C3126 1.386 . S
C3127 C3131 1.393 . S
C3128 H3117 0.950 . S
C3128 C3126 1.391 . S
C3128 C3129 1.400 . S
C3129 C3123 1.491 . S
C3129 C3128 1.400 . S
C3129 C3130 1.398 . S
C3130 H3118 0.950 . S
C3130 C3129 1.398 . S
C3130 C3131 1.391 . S
C3131 H3119 0.950 . S
C3131 C3127 1.393 . S
C3131 C3130 1.391 . S
H3132 C3140 0.950 . S
H3133 C3145 0.950 . S
H3134 C3142 0.950 . S
H3135 C3144 0.950 . S
H3136 C3146 0.950 . S
H3137 C3148 0.950 . S
H3138 C3150 0.950 . S
H3139 C3151 0.950 . S
C3140 H3132 0.950 . S
C3140 C3141 1.386 . S
C3140 C3142 1.391 . S
C3141 C3140 1.386 . S
C3141 C3145 1.393 . S
C3142 H3134 0.950 . S
C3142 C3140 1.391 . S
C3142 C3143 1.400 . S
C3143 C3142 1.400 . S
C3143 C3144 1.398 . S
C3143 C3149 1.491 . S
C3144 H3135 0.950 . S
C3144 C3143 1.398 . S
C3144 C3145 1.391 . S
C3145 H3133 0.950 . S
C3145 C3141 1.393 . S
C3145 C3144 1.391 . S
C3146 H3136 0.950 . S
C3146 C3147 1.386 . S
C3146 C3148 1.391 . S
C3147 C3146 1.386 . S
C3147 C3151 1.393 . S
C3148 H3137 0.950 . S
C3148 C3146 1.391 . S
C3148 C3149 1.400 . S
C3149 C3143 1.491 . S
C3149 C3148 1.400 . S
C3149 C3150 1.398 . S
C3150 H3138 0.950 . S
C3150 C3149 1.398 . S
C3150 C3151 1.391 . S
C3151 H3139 0.950 . S
C3151 C3147 1.393 . S
C3151 C3150 1.391 . S
H3152 C3160 0.950 . S
H3153 C3165 0.950 . S
H3154 C3162 0.950 . S
H3155 C3164 0.950 . S
H3156 C3166 0.950 . S
H3157 C3168 0.950 . S
H3158 C3170 0.950 . S
H3159 C3171 0.950 . S
C3160 H3152 0.950 . S
C3160 C3161 1.386 . S
C3160 C3162 1.391 . S
C3161 C3160 1.386 . S
C3161 C3165 1.393 . S
C3162 H3154 0.950 . S
C3162 C3160 1.391 . S
C3162 C3163 1.400 . S
C3163 C3162 1.400 . S
C3163 C3164 1.398 . S
C3163 C3169 1.491 . S
C3164 H3155 0.950 . S
C3164 C3163 1.398 . S
C3164 C3165 1.391 . S
C3165 H3153 0.950 . S
C3165 C3161 1.393 . S
C3165 C3164 1.391 . S
C3166 H3156 0.950 . S
C3166 C3167 1.386 . S
C3166 C3168 1.391 . S
C3167 C3166 1.386 . S
C3167 C3171 1.393 . S
C3168 H3157 0.950 . S
C3168 C3166 1.391 . S
C3168 C3169 1.400 . S
C3169 C3163 1.491 . S
C3169 C3168 1.400 . S
C3169 C3170 1.398 . S
C3170 H3158 0.950 . S
C3170 C3169 1.398 . S
C3170 C3171 1.391 . S
C3171 H3159 0.950 . S
C3171 C3167 1.393 . S
C3171 C3170 1.391 . S
H3172 C3180 0.950 . S
H3173 C3185 0.950 . S
H3174 C3182 0.950 . S
H3175 C3184 0.950 . S
H3176 C3186 0.950 . S
H3177 C3188 0.950 . S
H3178 C3190 0.950 . S
H3179 C3191 0.950 . S
C3180 H3172 0.950 . S
C3180 C3181 1.386 . S
C3180 C3182 1.391 . S
C3181 C3180 1.386 . S
C3181 C3185 1.393 . S
C3182 H3174 0.950 . S
C3182 C3180 1.391 . S
C3182 C3183 1.400 . S
C3183 C3182 1.400 . S
C3183 C3184 1.398 . S
C3183 C3189 1.491 . S
C3184 H3175 0.950 . S
C3184 C3183 1.398 . S
C3184 C3185 1.391 . S
C3185 H3173 0.950 . S
C3185 C3181 1.393 . S
C3185 C3184 1.391 . S
C3186 H3176 0.950 . S
C3186 C3187 1.386 . S
C3186 C3188 1.391 . S
C3187 C3186 1.386 . S
C3187 C3191 1.393 . S
C3188 H3177 0.950 . S
C3188 C3186 1.391 . S
C3188 C3189 1.400 . S
C3189 C3183 1.491 . S
C3189 C3188 1.400 . S
C3189 C3190 1.398 . S
C3190 H3178 0.950 . S
C3190 C3189 1.398 . S
C3190 C3191 1.391 . S
C3191 H3179 0.950 . S
C3191 C3187 1.393 . S
C3191 C3190 1.391 . S
H3192 C3200 0.950 . S
H3193 C3205 0.934 1_545 S
H3194 C3202 0.950 . S
H3195 C3204 0.950 . S
H3196 C3206 0.950 . S
H3197 C3208 0.950 . S
H3198 C3210 0.950 . S
H3199 C3211 0.950 . S
C3200 H3192 0.950 . S
C3200 C3201 1.386 . S
C3200 C3202 1.391 . S
C3201 C3200 1.386 . S
C3201 C3205 1.393 . S
C3202 H3194 0.950 . S
C3202 C3200 1.391 . S
C3202 C3203 1.400 . S
C3203 C3202 1.400 . S
C3203 C3204 1.398 . S
C3203 C3209 1.491 . S
C3204 H3195 0.950 . S
C3204 C3203 1.398 . S
C3204 C3205 1.391 . S
C3205 H3193 0.934 1_565 S
C3205 C3201 1.393 . S
C3205 C3204 1.391 . S
C3206 H3196 0.950 . S
C3206 C3207 1.386 . S
C3206 C3208 1.391 . S
C3207 C3206 1.386 . S
C3207 C3211 1.393 . S
C3208 H3197 0.950 . S
C3208 C3206 1.391 . S
C3208 C3209 1.400 . S
C3209 C3203 1.491 . S
C3209 C3208 1.400 . S
C3209 C3210 1.398 . S
C3210 H3198 0.950 . S
C3210 C3209 1.398 . S
C3210 C3211 1.391 . S
C3211 H3199 0.950 . S
C3211 C3207 1.393 . S
C3211 C3210 1.391 . S
H3212 C3220 0.950 . S
H3213 C3225 0.950 . S
H3214 C3222 0.950 . S
H3215 C3224 0.950 . S
H3216 C3226 0.950 . S
H3217 C3228 0.950 . S
H3218 C3230 0.950 . S
H3219 C3231 0.950 . S
C3220 H3212 0.950 . S
C3220 C3221 1.386 . S
C3220 C3222 1.391 . S
C3221 C3220 1.386 . S
C3221 C3225 1.393 . S
C3222 H3214 0.950 . S
C3222 C3220 1.391 . S
C3222 C3223 1.400 . S
C3223 C3222 1.400 . S
C3223 C3224 1.398 . S
C3223 C3229 1.491 . S
C3224 H3215 0.950 . S
C3224 C3223 1.398 . S
C3224 C3225 1.391 . S
C3225 H3213 0.950 . S
C3225 C3221 1.393 . S
C3225 C3224 1.391 . S
C3226 H3216 0.950 . S
C3226 C3227 1.386 . S
C3226 C3228 1.391 . S
C3227 C3226 1.386 . S
C3227 C3231 1.393 . S
C3228 H3217 0.950 . S
C3228 C3226 1.391 . S
C3228 C3229 1.400 . S
C3229 C3223 1.491 . S
C3229 C3228 1.400 . S
C3229 C3230 1.398 . S
C3230 H3218 0.950 . S
C3230 C3229 1.398 . S
C3230 C3231 1.391 . S
C3231 H3219 0.950 . S
C3231 C3227 1.393 . S
C3231 C3230 1.391 . S
H3232 C3240 0.950 . S
H3233 C3245 0.950 . S
H3234 C3242 0.950 . S
H3235 C3244 0.950 . S
H3236 C3246 0.950 . S
H3237 C3248 0.950 . S
H3238 C3250 0.950 . S
H3239 C3251 0.950 . S
C3240 H3232 0.950 . S
C3240 C3241 1.386 . S
C3240 C3242 1.391 . S
C3241 C3240 1.386 . S
C3241 C3245 1.393 . S
C3242 H3234 0.950 . S
C3242 C3240 1.391 . S
C3242 C3243 1.400 . S
C3243 C3242 1.400 . S
C3243 C3244 1.398 . S
C3243 C3249 1.491 . S
C3244 H3235 0.950 . S
C3244 C3243 1.398 . S
C3244 C3245 1.391 . S
C3245 H3233 0.950 . S
C3245 C3241 1.393 . S
C3245 C3244 1.391 . S
C3246 H3236 0.950 . S
C3246 C3247 1.386 . S
C3246 C3248 1.391 . S
C3247 C3246 1.386 . S
C3247 C3251 1.393 . S
C3248 H3237 0.950 . S
C3248 C3246 1.391 . S
C3248 C3249 1.400 . S
C3249 C3243 1.491 . S
C3249 C3248 1.400 . S
C3249 C3250 1.398 . S
C3250 H3238 0.950 . S
C3250 C3249 1.398 . S
C3250 C3251 1.391 . S
C3251 H3239 0.950 . S
C3251 C3247 1.393 . S
C3251 C3250 1.391 . S
H3252 C3260 0.950 . S
H3253 C3265 0.950 . S
H3254 C3262 0.950 . S
H3255 C3264 0.950 . S
H3256 C3266 0.950 . S
H3257 C3268 0.950 . S
H3258 C3270 0.950 . S
H3259 C3271 0.950 . S
C3260 H3252 0.950 . S
C3260 C3261 1.386 . S
C3260 C3262 1.391 . S
C3261 C3260 1.386 . S
C3261 C3265 1.393 . S
C3262 H3254 0.950 . S
C3262 C3260 1.391 . S
C3262 C3263 1.400 . S
C3263 C3262 1.400 . S
C3263 C3264 1.398 . S
C3263 C3269 1.491 . S
C3264 H3255 0.950 . S
C3264 C3263 1.398 . S
C3264 C3265 1.391 . S
C3265 H3253 0.950 . S
C3265 C3261 1.393 . S
C3265 C3264 1.391 . S
C3266 H3256 0.950 . S
C3266 C3267 1.386 . S
C3266 C3268 1.391 . S
C3267 C3266 1.386 . S
C3267 C3271 1.393 . S
C3268 H3257 0.950 . S
C3268 C3266 1.391 . S
C3268 C3269 1.400 . S
C3269 C3263 1.491 . S
C3269 C3268 1.400 . S
C3269 C3270 1.398 . S
C3270 H3258 0.950 . S
C3270 C3269 1.398 . S
C3270 C3271 1.391 . S
C3271 H3259 0.950 . S
C3271 C3267 1.393 . S
C3271 C3270 1.391 . S
H3272 C3280 0.950 . S
H3273 C3285 0.950 . S
H3274 C3282 0.950 . S
H3275 C3284 0.950 . S
H3276 C3286 0.950 . S
H3277 C3288 0.950 . S
H3278 C3290 0.950 . S
H3279 C3291 0.950 . S
C3280 H3272 0.950 . S
C3280 C3281 1.386 . S
C3280 C3282 1.391 . S
C3281 C3280 1.386 . S
C3281 C3285 1.393 . S
C3282 H3274 0.950 . S
C3282 C3280 1.391 . S
C3282 C3283 1.400 . S
C3283 C3282 1.400 . S
C3283 C3284 1.398 . S
C3283 C3289 1.491 . S
C3284 H3275 0.950 . S
C3284 C3283 1.398 . S
C3284 C3285 1.391 . S
C3285 H3273 0.950 . S
C3285 C3281 1.393 . S
C3285 C3284 1.391 . S
C3286 H3276 0.950 . S
C3286 C3287 1.386 . S
C3286 C3288 1.391 . S
C3287 C3286 1.386 . S
C3287 C3291 1.393 . S
C3288 H3277 0.950 . S
C3288 C3286 1.391 . S
C3288 C3289 1.400 . S
C3289 C3283 1.491 . S
C3289 C3288 1.400 . S
C3289 C3290 1.398 . S
C3290 H3278 0.950 . S
C3290 C3289 1.398 . S
C3290 C3291 1.391 . S
C3291 H3279 0.950 . S
C3291 C3287 1.393 . S
C3291 C3290 1.391 . S
H3292 C3300 0.950 . S
H3293 C3305 0.950 . S
H3294 C3302 0.950 . S
H3295 C3304 0.950 . S
H3296 C3306 0.950 . S
H3297 C3308 0.950 . S
H3298 C3310 0.950 . S
H3299 C3311 0.950 . S
C3300 H3292 0.950 . S
C3300 C3301 1.386 . S
C3300 C3302 1.391 . S
C3301 C3300 1.386 . S
C3301 C3305 1.393 . S
C3302 H3294 0.950 . S
C3302 C3300 1.391 . S
C3302 C3303 1.400 . S
C3303 C3302 1.400 . S
C3303 C3304 1.398 . S
C3303 C3309 1.491 . S
C3304 H3295 0.950 . S
C3304 C3303 1.398 . S
C3304 C3305 1.391 . S
C3305 H3293 0.950 . S
C3305 C3301 1.393 . S
C3305 C3304 1.391 . S
C3306 H3296 0.950 . S
C3306 C3307 1.386 . S
C3306 C3308 1.391 . S
C3307 C3306 1.386 . S
C3307 C3311 1.393 . S
C3308 H3297 0.950 . S
C3308 C3306 1.391 . S
C3308 C3309 1.400 . S
C3309 C3303 1.491 . S
C3309 C3308 1.400 . S
C3309 C3310 1.398 . S
C3310 H3298 0.950 . S
C3310 C3309 1.398 . S
C3310 C3311 1.391 . S
C3311 H3299 0.950 . S
C3311 C3307 1.393 . S
C3311 C3310 1.391 . S
H3312 C3320 0.950 . S
H3313 C3325 0.950 . S
H3314 C3322 0.950 . S
H3315 C3324 0.950 . S
H3316 C3326 0.950 . S
H3317 C3328 0.950 . S
H3318 C3330 0.950 . S
H3319 C3331 0.950 . S
C3320 H3312 0.950 . S
C3320 C3321 1.386 . S
C3320 C3322 1.391 . S
C3321 C3320 1.386 . S
C3321 C3325 1.393 . S
C3322 H3314 0.950 . S
C3322 C3320 1.391 . S
C3322 C3323 1.400 . S
C3323 C3322 1.400 . S
C3323 C3324 1.398 . S
C3323 C3329 1.491 . S
C3324 H3315 0.950 . S
C3324 C3323 1.398 . S
C3324 C3325 1.391 . S
C3325 H3313 0.950 . S
C3325 C3321 1.393 . S
C3325 C3324 1.391 . S
C3326 H3316 0.950 . S
C3326 C3327 1.386 . S
C3326 C3328 1.391 . S
C3327 C3326 1.386 . S
C3327 C3331 1.393 . S
C3328 H3317 0.950 . S
C3328 C3326 1.391 . S
C3328 C3329 1.400 . S
C3329 C3323 1.491 . S
C3329 C3328 1.400 . S
C3329 C3330 1.398 . S
C3330 H3318 0.950 . S
C3330 C3329 1.398 . S
C3330 C3331 1.391 . S
C3331 H3319 0.950 . S
C3331 C3327 1.393 . S
C3331 C3330 1.391 . S
H3332 C3340 0.950 . S
H3333 C3345 0.950 . S
H3334 C3342 0.950 . S
H3335 C3344 0.950 . S
H3336 C3346 0.950 . S
H3337 C3348 0.950 . S
H3338 C3350 0.950 . S
H3339 C3351 0.950 . S
C3340 H3332 0.950 . S
C3340 C3341 1.386 . S
C3340 C3342 1.391 . S
C3341 C3340 1.386 . S
C3341 C3345 1.393 . S
C3342 H3334 0.950 . S
C3342 C3340 1.391 . S
C3342 C3343 1.400 . S
C3343 C3342 1.400 . S
C3343 C3344 1.398 . S
C3343 C3349 1.491 . S
C3344 H3335 0.950 . S
C3344 C3343 1.398 . S
C3344 C3345 1.391 . S
C3345 H3333 0.950 . S
C3345 C3341 1.393 . S
C3345 C3344 1.391 . S
C3346 H3336 0.950 . S
C3346 C3347 1.386 . S
C3346 C3348 1.391 . S
C3347 C3346 1.386 . S
C3347 C3351 1.393 . S
C3348 H3337 0.950 . S
C3348 C3346 1.391 . S
C3348 C3349 1.400 . S
C3349 C3343 1.491 . S
C3349 C3348 1.400 . S
C3349 C3350 1.398 . S
C3350 H3338 0.950 . S
C3350 C3349 1.398 . S
C3350 C3351 1.391 . S
C3351 H3339 0.950 . S
C3351 C3347 1.393 . S
C3351 C3350 1.391 . S
H3352 C3360 0.954 1_556 S
H3353 C3365 0.950 . S
H3354 C3362 0.950 . S
H3355 C3364 0.950 . S
H3356 C3366 0.950 . S
H3357 C3368 0.950 . S
H3358 C3370 0.950 . S
H3359 C3371 0.950 . S
C3360 H3352 0.954 1_554 S
C3360 C3361 1.386 . S
C3360 C3362 1.391 . S
C3361 C3360 1.386 . S
C3361 C3365 1.393 . S
C3362 H3354 0.950 . S
C3362 C3360 1.391 . S
C3362 C3363 1.400 . S
C3363 C3362 1.400 . S
C3363 C3364 1.398 . S
C3363 C3369 1.491 . S
C3364 H3355 0.950 . S
C3364 C3363 1.398 . S
C3364 C3365 1.391 . S
C3365 H3353 0.950 . S
C3365 C3361 1.393 . S
C3365 C3364 1.391 . S
C3366 H3356 0.950 . S
C3366 C3367 1.386 . S
C3366 C3368 1.391 . S
C3367 C3366 1.386 . S
C3367 C3371 1.393 . S
C3368 H3357 0.950 . S
C3368 C3366 1.391 . S
C3368 C3369 1.400 . S
C3369 C3363 1.491 . S
C3369 C3368 1.400 . S
C3369 C3370 1.398 . S
C3370 H3358 0.950 . S
C3370 C3369 1.398 . S
C3370 C3371 1.391 . S
C3371 H3359 0.950 . S
C3371 C3367 1.393 . S
C3371 C3370 1.391 . S
H3372 C3380 0.950 . S
H3373 C3385 0.950 . S
H3374 C3382 0.950 . S
H3375 C3384 0.950 . S
H3376 C3386 0.950 . S
H3377 C3388 0.950 . S
H3378 C3390 0.950 . S
H3379 C3391 0.950 . S
C3380 H3372 0.950 . S
C3380 C3381 1.386 . S
C3380 C3382 1.391 . S
C3381 C3380 1.386 . S
C3381 C3385 1.393 . S
C3382 H3374 0.950 . S
C3382 C3380 1.391 . S
C3382 C3383 1.400 . S
C3383 C3382 1.400 . S
C3383 C3384 1.398 . S
C3383 C3389 1.491 . S
C3384 H3375 0.950 . S
C3384 C3383 1.398 . S
C3384 C3385 1.391 . S
C3385 H3373 0.950 . S
C3385 C3381 1.393 . S
C3385 C3384 1.391 . S
C3386 H3376 0.950 . S
C3386 C3387 1.386 . S
C3386 C3388 1.391 . S
C3387 C3386 1.386 . S
C3387 C3391 1.393 . S
C3388 H3377 0.950 . S
C3388 C3386 1.391 . S
C3388 C3389 1.400 . S
C3389 C3383 1.491 . S
C3389 C3388 1.400 . S
C3389 C3390 1.398 . S
C3390 H3378 0.950 . S
C3390 C3389 1.398 . S
C3390 C3391 1.391 . S
C3391 H3379 0.950 . S
C3391 C3387 1.393 . S
C3391 C3390 1.391 . S
H3392 C3400 0.950 . S
H3393 C3405 0.950 . S
H3394 C3402 0.950 . S
H3395 C3404 0.950 . S
H3396 C3406 0.950 . S
H3397 C3408 0.950 . S
H3398 C3410 0.950 . S
H3399 C3411 0.950 . S
C3400 H3392 0.950 . S
C3400 C3401 1.386 . S
C3400 C3402 1.391 . S
C3401 C3400 1.386 . S
C3401 C3405 1.393 . S
C3402 H3394 0.950 . S
C3402 C3400 1.391 . S
C3402 C3403 1.400 . S
C3403 C3402 1.400 . S
C3403 C3404 1.398 . S
C3403 C3409 1.491 . S
C3404 H3395 0.950 . S
C3404 C3403 1.398 . S
C3404 C3405 1.391 . S
C3405 H3393 0.950 . S
C3405 C3401 1.393 . S
C3405 C3404 1.391 . S
C3406 H3396 0.950 . S
C3406 C3407 1.386 . S
C3406 C3408 1.391 . S
C3407 C3406 1.386 . S
C3407 C3411 1.393 . S
C3408 H3397 0.950 . S
C3408 C3406 1.391 . S
C3408 C3409 1.400 . S
C3409 C3403 1.491 . S
C3409 C3408 1.400 . S
C3409 C3410 1.398 . S
C3410 H3398 0.950 . S
C3410 C3409 1.398 . S
C3410 C3411 1.391 . S
C3411 H3399 0.950 . S
C3411 C3407 1.393 . S
C3411 C3410 1.391 . S
H3412 C3420 0.950 . S
H3413 C3425 0.950 . S
H3414 C3422 0.950 . S
H3415 C3424 0.950 . S
H3416 C3426 0.950 . S
H3417 C3428 0.950 . S
H3418 C3430 0.950 . S
H3419 C3431 0.950 . S
C3420 H3412 0.950 . S
C3420 C3421 1.386 . S
C3420 C3422 1.391 . S
C3421 C3420 1.386 . S
C3421 C3425 1.393 . S
C3422 H3414 0.950 . S
C3422 C3420 1.391 . S
C3422 C3423 1.400 . S
C3423 C3422 1.400 . S
C3423 C3424 1.398 . S
C3423 C3429 1.491 . S
C3424 H3415 0.950 . S
C3424 C3423 1.398 . S
C3424 C3425 1.391 . S
C3425 H3413 0.950 . S
C3425 C3421 1.393 . S
C3425 C3424 1.391 . S
C3426 H3416 0.950 . S
C3426 C3427 1.386 . S
C3426 C3428 1.391 . S
C3427 C3426 1.386 . S
C3427 C3431 1.393 . S
C3428 H3417 0.950 . S
C3428 C3426 1.391 . S
C3428 C3429 1.400 . S
C3429 C3423 1.491 . S
C3429 C3428 1.400 . S
C3429 C3430 1.398 . S
C3430 H3418 0.950 . S
C3430 C3429 1.398 . S
C3430 C3431 1.391 . S
C3431 H3419 0.950 . S
C3431 C3427 1.393 . S
C3431 C3430 1.391 . S
H3432 C3440 0.950 . S
H3433 C3445 0.950 . S
H3434 C3442 0.950 . S
H3435 C3444 0.950 . S
H3436 C3446 0.950 . S
H3437 C3448 0.950 . S
H3438 C3450 0.950 . S
H3439 C3451 0.950 . S
C3440 H3432 0.950 . S
C3440 C3441 1.386 . S
C3440 C3442 1.391 . S
C3441 C3440 1.386 . S
C3441 C3445 1.393 . S
C3442 H3434 0.950 . S
C3442 C3440 1.391 . S
C3442 C3443 1.400 . S
C3443 C3442 1.400 . S
C3443 C3444 1.398 . S
C3443 C3449 1.491 . S
C3444 H3435 0.950 . S
C3444 C3443 1.398 . S
C3444 C3445 1.391 . S
C3445 H3433 0.950 . S
C3445 C3441 1.393 . S
C3445 C3444 1.391 . S
C3446 H3436 0.950 . S
C3446 C3447 1.386 . S
C3446 C3448 1.391 . S
C3447 C3446 1.386 . S
C3447 C3451 1.393 . S
C3448 H3437 0.950 . S
C3448 C3446 1.391 . S
C3448 C3449 1.400 . S
C3449 C3443 1.491 . S
C3449 C3448 1.400 . S
C3449 C3450 1.398 . S
C3450 H3438 0.950 . S
C3450 C3449 1.398 . S
C3450 C3451 1.391 . S
C3451 H3439 0.950 . S
C3451 C3447 1.393 . S
C3451 C3450 1.391 . S
H3452 C3460 0.950 . S
H3453 C3465 0.950 . S
H3454 C3462 0.950 . S
H3455 C3464 0.950 . S
H3456 C3466 0.950 . S
H3457 C3468 0.950 . S
H3458 C3470 0.950 . S
H3459 C3471 0.950 . S
C3460 H3452 0.950 . S
C3460 C3461 1.386 . S
C3460 C3462 1.391 . S
C3461 C3460 1.386 . S
C3461 C3465 1.393 . S
C3462 H3454 0.950 . S
C3462 C3460 1.391 . S
C3462 C3463 1.400 . S
C3463 C3462 1.400 . S
C3463 C3464 1.398 . S
C3463 C3469 1.491 . S
C3464 H3455 0.950 . S
C3464 C3463 1.398 . S
C3464 C3465 1.391 . S
C3465 H3453 0.950 . S
C3465 C3461 1.393 . S
C3465 C3464 1.391 . S
C3466 H3456 0.950 . S
C3466 C3467 1.386 . S
C3466 C3468 1.391 . S
C3467 C3466 1.386 . S
C3467 C3471 1.393 . S
C3468 H3457 0.950 . S
C3468 C3466 1.391 . S
C3468 C3469 1.400 . S
C3469 C3463 1.491 . S
C3469 C3468 1.400 . S
C3469 C3470 1.398 . S
C3470 H3458 0.950 . S
C3470 C3469 1.398 . S
C3470 C3471 1.391 . S
C3471 H3459 0.950 . S
C3471 C3467 1.393 . S
C3471 C3470 1.391 . S
H3472 C3480 0.950 . S
H3473 C3485 0.950 . S
H3474 C3482 0.950 . S
H3475 C3484 0.950 . S
H3476 C3486 0.950 . S
H3477 C3488 0.950 . S
H3478 C3490 0.950 . S
H3479 C3491 0.950 . S
C3480 H3472 0.950 . S
C3480 C3481 1.386 . S
C3480 C3482 1.391 . S
C3481 C3480 1.386 . S
C3481 C3485 1.393 . S
C3482 H3474 0.950 . S
C3482 C3480 1.391 . S
C3482 C3483 1.400 . S
C3483 C3482 1.400 . S
C3483 C3484 1.398 . S
C3483 C3489 1.491 . S
C3484 H3475 0.950 . S
C3484 C3483 1.398 . S
C3484 C3485 1.391 . S
C3485 H3473 0.950 . S
C3485 C3481 1.393 . S
C3485 C3484 1.391 . S
C3486 H3476 0.950 . S
C3486 C3487 1.386 . S
C3486 C3488 1.391 . S
C3487 C3486 1.386 . S
C3487 C3491 1.393 . S
C3488 H3477 0.950 . S
C3488 C3486 1.391 . S
C3488 C3489 1.400 . S
C3489 C3483 1.491 . S
C3489 C3488 1.400 . S
C3489 C3490 1.398 . S
C3490 H3478 0.950 . S
C3490 C3489 1.398 . S
C3490 C3491 1.391 . S
C3491 H3479 0.950 . S
C3491 C3487 1.393 . S
C3491 C3490 1.391 . S
H3492 C3500 0.950 . S
H3493 C3505 0.950 . S
H3494 C3502 0.950 . S
H3495 C3504 0.950 . S
H3496 C3506 0.974 . S
H3497 C3508 0.950 . S
H3498 C3510 0.950 . S
H3499 C3511 0.950 . S
C3500 H3492 0.950 . S
C3500 C3501 1.386 . S
C3500 C3502 1.391 . S
C3501 C3500 1.386 . S
C3501 C3505 1.393 . S
C3502 H3494 0.950 . S
C3502 C3500 1.391 . S
C3502 C3503 1.400 . S
C3503 C3502 1.400 . S
C3503 C3504 1.398 . S
C3503 C3509 1.491 . S
C3504 H3495 0.950 . S
C3504 C3503 1.398 . S
C3504 C3505 1.391 . S
C3505 H3493 0.950 . S
C3505 C3501 1.393 . S
C3505 C3504 1.391 . S
C3506 H3496 0.974 . S
C3506 C3507 1.386 . S
C3506 C3508 1.391 . S
C3507 C3506 1.386 . S
C3507 C3511 1.393 . S
C3508 H3497 0.950 . S
C3508 C3506 1.391 . S
C3508 C3509 1.400 . S
C3509 C3503 1.491 . S
C3509 C3508 1.400 . S
C3509 C3510 1.398 . S
C3510 H3498 0.950 . S
C3510 C3509 1.398 . S
C3510 C3511 1.391 . S
C3511 H3499 0.950 . S
C3511 C3507 1.393 . S
C3511 C3510 1.391 . S
H3512 C3520 0.950 . S
H3513 C3525 0.950 . S
H3514 C3522 0.950 . S
H3515 C3524 0.950 . S
H3516 C3526 0.950 . S
H3517 C3528 0.950 . S
H3518 C3530 0.950 . S
H3519 C3531 0.950 . S
C3520 H3512 0.950 . S
C3520 C3521 1.386 . S
C3520 C3522 1.391 . S
C3521 C3520 1.386 . S
C3521 C3525 1.393 . S
C3522 H3514 0.950 . S
C3522 C3520 1.391 . S
C3522 C3523 1.400 . S
C3523 C3522 1.400 . S
C3523 C3524 1.398 . S
C3523 C3529 1.491 . S
C3524 H3515 0.950 . S
C3524 C3523 1.398 . S
C3524 C3525 1.391 . S
C3525 H3513 0.950 . S
C3525 C3521 1.393 . S
C3525 C3524 1.391 . S
C3526 H3516 0.950 . S
C3526 C3527 1.386 . S
C3526 C3528 1.391 . S
C3527 C3526 1.386 . S
C3527 C3531 1.393 . S
C3528 H3517 0.950 . S
C3528 C3526 1.391 . S
C3528 C3529 1.400 . S
C3529 C3523 1.491 . S
C3529 C3528 1.400 . S
C3529 C3530 1.398 . S
C3530 H3518 0.950 . S
C3530 C3529 1.398 . S
C3530 C3531 1.391 . S
C3531 H3519 0.950 . S
C3531 C3527 1.393 . S
C3531 C3530 1.391 . S
H3532 C3540 0.950 . S
H3533 C3545 0.950 . S
H3534 C3542 0.950 . S
H3535 C3544 0.950 . S
H3536 C3546 0.950 . S
H3537 C3548 0.950 . S
H3538 C3550 0.950 . S
H3539 C3551 0.950 . S
C3540 H3532 0.950 . S
C3540 C3541 1.386 . S
C3540 C3542 1.391 . S
C3541 C3540 1.386 . S
C3541 C3545 1.393 . S
C3542 H3534 0.950 . S
C3542 C3540 1.391 . S
C3542 C3543 1.400 . S
C3543 C3542 1.400 . S
C3543 C3544 1.398 . S
C3543 C3549 1.491 . S
C3544 H3535 0.950 . S
C3544 C3543 1.398 . S
C3544 C3545 1.391 . S
C3545 H3533 0.950 . S
C3545 C3541 1.393 . S
C3545 C3544 1.391 . S
C3546 H3536 0.950 . S
C3546 C3547 1.386 . S
C3546 C3548 1.391 . S
C3547 C3546 1.386 . S
C3547 C3551 1.393 . S
C3548 H3537 0.950 . S
C3548 C3546 1.391 . S
C3548 C3549 1.400 . S
C3549 C3543 1.491 . S
C3549 C3548 1.400 . S
C3549 C3550 1.398 . S
C3550 H3538 0.950 . S
C3550 C3549 1.398 . S
C3550 C3551 1.391 . S
C3551 H3539 0.950 . S
C3551 C3547 1.393 . S
C3551 C3550 1.391 . S
H3552 C3560 0.950 . S
H3553 C3565 0.950 . S
H3554 C3562 0.950 . S
H3555 C3564 0.950 . S
H3556 C3566 0.950 . S
H3557 C3568 0.950 . S
H3558 C3570 0.950 . S
H3559 C3571 0.950 . S
C3560 H3552 0.950 . S
C3560 C3561 1.386 . S
C3560 C3562 1.391 . S
C3561 C3560 1.386 . S
C3561 C3565 1.393 . S
C3562 H3554 0.950 . S
C3562 C3560 1.391 . S
C3562 C3563 1.400 . S
C3563 C3562 1.400 . S
C3563 C3564 1.398 . S
C3563 C3569 1.491 . S
C3564 H3555 0.950 . S
C3564 C3563 1.398 . S
C3564 C3565 1.391 . S
C3565 H3553 0.950 . S
C3565 C3561 1.393 . S
C3565 C3564 1.391 . S
C3566 H3556 0.950 . S
C3566 C3567 1.386 . S
C3566 C3568 1.391 . S
C3567 C3566 1.386 . S
C3567 C3571 1.393 . S
C3568 H3557 0.950 . S
C3568 C3566 1.391 . S
C3568 C3569 1.400 . S
C3569 C3563 1.491 . S
C3569 C3568 1.400 . S
C3569 C3570 1.398 . S
C3570 H3558 0.950 . S
C3570 C3569 1.398 . S
C3570 C3571 1.391 . S
C3571 H3559 0.950 . S
C3571 C3567 1.393 . S
C3571 C3570 1.391 . S
H3572 C3580 0.950 . S
H3573 C3585 0.950 . S
H3574 C3582 0.950 . S
H3575 C3584 0.950 . S
H3576 C3586 0.950 . S
H3577 C3588 0.950 . S
H3578 C3590 0.950 . S
H3579 C3591 0.950 . S
C3580 H3572 0.950 . S
C3580 C3581 1.386 . S
C3580 C3582 1.391 . S
C3581 C3580 1.386 . S
C3581 C3585 1.393 . S
C3582 H3574 0.950 . S
C3582 C3580 1.391 . S
C3582 C3583 1.400 . S
C3583 C3582 1.400 . S
C3583 C3584 1.398 . S
C3583 C3589 1.491 . S
C3584 H3575 0.950 . S
C3584 C3583 1.398 . S
C3584 C3585 1.391 . S
C3585 H3573 0.950 . S
C3585 C3581 1.393 . S
C3585 C3584 1.391 . S
C3586 H3576 0.950 . S
C3586 C3587 1.386 . S
C3586 C3588 1.391 . S
C3587 C3586 1.386 . S
C3587 C3591 1.393 . S
C3588 H3577 0.950 . S
C3588 C3586 1.391 . S
C3588 C3589 1.400 . S
C3589 C3583 1.491 . S
C3589 C3588 1.400 . S
C3589 C3590 1.398 . S
C3590 H3578 0.950 . S
C3590 C3589 1.398 . S
C3590 C3591 1.391 . S
C3591 H3579 0.950 . S
C3591 C3587 1.393 . S
C3591 C3590 1.391 . S
H3592 C3600 0.950 . S
H3593 C3605 0.950 . S
H3594 C3602 0.950 . S
H3595 C3604 0.950 . S
H3596 C3606 0.950 . S
H3597 C3608 0.950 . S
H3598 C3610 0.950 . S
H3599 C3611 0.950 . S
C3600 H3592 0.950 . S
C3600 C3601 1.386 . S
C3600 C3602 1.391 . S
C3601 C3600 1.386 . S
C3601 C3605 1.393 . S
C3602 H3594 0.950 . S
C3602 C3600 1.391 . S
C3602 C3603 1.400 . S
C3603 C3602 1.400 . S
C3603 C3604 1.398 . S
C3603 C3609 1.491 . S
C3604 H3595 0.950 . S
C3604 C3603 1.398 . S
C3604 C3605 1.391 . S
C3605 H3593 0.950 . S
C3605 C3601 1.393 . S
C3605 C3604 1.391 . S
C3606 H3596 0.950 . S
C3606 C3607 1.386 . S
C3606 C3608 1.391 . S
C3607 C3606 1.386 . S
C3607 C3611 1.393 . S
C3608 H3597 0.950 . S
C3608 C3606 1.391 . S
C3608 C3609 1.400 . S
C3609 C3603 1.491 . S
C3609 C3608 1.400 . S
C3609 C3610 1.398 . S
C3610 H3598 0.950 . S
C3610 C3609 1.398 . S
C3610 C3611 1.391 . S
C3611 H3599 0.950 . S
C3611 C3607 1.393 . S
C3611 C3610 1.391 . S
H3612 C3620 0.950 . S
H3613 C3625 0.950 . S
H3614 C3622 0.950 . S
H3615 C3624 0.950 . S
H3616 C3626 0.950 . S
H3617 C3628 0.950 . S
H3618 C3630 0.950 . S
H3619 C3631 0.950 . S
C3620 H3612 0.950 . S
C3620 C3621 1.386 . S
C3620 C3622 1.391 . S
C3621 C3620 1.386 . S
C3621 C3625 1.393 . S
C3622 H3614 0.950 . S
C3622 C3620 1.391 . S
C3622 C3623 1.400 . S
C3623 C3622 1.400 . S
C3623 C3624 1.398 . S
C3623 C3629 1.491 . S
C3624 H3615 0.950 . S
C3624 C3623 1.398 . S
C3624 C3625 1.391 . S
C3625 H3613 0.950 . S
C3625 C3621 1.393 . S
C3625 C3624 1.391 . S
C3626 H3616 0.950 . S
C3626 C3627 1.386 . S
C3626 C3628 1.391 . S
C3627 C3626 1.386 . S
C3627 C3631 1.393 . S
C3628 H3617 0.950 . S
C3628 C3626 1.391 . S
C3628 C3629 1.400 . S
C3629 C3623 1.491 . S
C3629 C3628 1.400 . S
C3629 C3630 1.398 . S
C3630 H3618 0.950 . S
C3630 C3629 1.398 . S
C3630 C3631 1.391 . S
C3631 H3619 0.950 . S
C3631 C3627 1.393 . S
C3631 C3630 1.391 . S
H3632 C3640 0.950 . S
H3633 C3645 0.908 1_565 S
H3634 C3642 0.950 . S
H3635 C3644 0.950 . S
H3636 C3646 0.950 . S
H3637 C3648 0.950 . S
H3638 C3650 0.950 . S
H3639 C3651 0.950 . S
C3640 H3632 0.950 . S
C3640 C3641 1.386 . S
C3640 C3642 1.391 . S
C3641 C3640 1.386 . S
C3641 C3645 1.393 . S
C3642 H3634 0.950 . S
C3642 C3640 1.391 . S
C3642 C3643 1.400 . S
C3643 C3642 1.400 . S
C3643 C3644 1.398 . S
C3643 C3649 1.491 . S
C3644 H3635 0.950 . S
C3644 C3643 1.398 . S
C3644 C3645 1.391 . S
C3645 H3633 0.908 1_545 S
C3645 C3641 1.393 . S
C3645 C3644 1.391 . S
C3646 H3636 0.950 . S
C3646 C3647 1.386 . S
C3646 C3648 1.391 . S
C3647 C3646 1.386 . S
C3647 C3651 1.393 . S
C3648 H3637 0.950 . S
C3648 C3646 1.391 . S
C3648 C3649 1.400 . S
C3649 C3643 1.491 . S
C3649 C3648 1.400 . S
C3649 C3650 1.398 . S
C3650 H3638 0.950 . S
C3650 C3649 1.398 . S
C3650 C3651 1.391 . S
C3651 H3639 0.950 . S
C3651 C3647 1.393 . S
C3651 C3650 1.391 . S
H3652 C3660 0.950 . S
H3653 C3665 0.950 . S
H3654 C3662 0.950 . S
H3655 C3664 0.950 . S
H3656 C3666 0.950 . S
H3657 C3668 0.950 . S
H3658 C3670 0.950 . S
H3659 C3671 0.950 . S
C3660 H3652 0.950 . S
C3660 C3661 1.386 . S
C3660 C3662 1.391 . S
C3661 C3660 1.386 . S
C3661 C3665 1.393 . S
C3662 H3654 0.950 . S
C3662 C3660 1.391 . S
C3662 C3663 1.400 . S
C3663 C3662 1.400 . S
C3663 C3664 1.398 . S
C3663 C3669 1.491 . S
C3664 H3655 0.950 . S
C3664 C3663 1.398 . S
C3664 C3665 1.391 . S
C3665 H3653 0.950 . S
C3665 C3661 1.393 . S
C3665 C3664 1.391 . S
C3666 H3656 0.950 . S
C3666 C3667 1.386 . S
C3666 C3668 1.391 . S
C3667 C3666 1.386 . S
C3667 C3671 1.393 . S
C3668 H3657 0.950 . S
C3668 C3666 1.391 . S
C3668 C3669 1.400 . S
C3669 C3663 1.491 . S
C3669 C3668 1.400 . S
C3669 C3670 1.398 . S
C3670 H3658 0.950 . S
C3670 C3669 1.398 . S
C3670 C3671 1.391 . S
C3671 H3659 0.950 . S
C3671 C3667 1.393 . S
C3671 C3670 1.391 . S
H3672 C3680 0.950 . S
H3673 C3685 0.950 . S
H3674 C3682 0.950 . S
H3675 C3684 0.950 . S
H3676 C3686 0.950 . S
H3677 C3688 0.950 . S
H3678 C3690 0.950 . S
H3679 C3691 0.950 . S
C3680 H3672 0.950 . S
C3680 C3681 1.386 . S
C3680 C3682 1.391 . S
C3681 C3680 1.386 . S
C3681 C3685 1.393 . S
C3682 H3674 0.950 . S
C3682 C3680 1.391 . S
C3682 C3683 1.400 . S
C3683 C3682 1.400 . S
C3683 C3684 1.398 . S
C3683 C3689 1.491 . S
C3684 H3675 0.950 . S
C3684 C3683 1.398 . S
C3684 C3685 1.391 . S
C3685 H3673 0.950 . S
C3685 C3681 1.393 . S
C3685 C3684 1.391 . S
C3686 H3676 0.950 . S
C3686 C3687 1.386 . S
C3686 C3688 1.391 . S
C3687 C3686 1.386 . S
C3687 C3691 1.393 . S
C3688 H3677 0.950 . S
C3688 C3686 1.391 . S
C3688 C3689 1.400 . S
C3689 C3683 1.491 . S
C3689 C3688 1.400 . S
C3689 C3690 1.398 . S
C3690 H3678 0.950 . S
C3690 C3689 1.398 . S
C3690 C3691 1.391 . S
C3691 H3679 0.950 . S
C3691 C3687 1.393 . S
C3691 C3690 1.391 . S
H3692 C3700 0.950 . S
H3693 C3705 0.950 . S
H3694 C3702 0.950 . S
H3695 C3704 0.950 . S
H3696 C3706 0.950 . S
H3697 C3708 0.950 . S
H3698 C3710 0.950 . S
H3699 C3711 0.950 . S
C3700 H3692 0.950 . S
C3700 C3701 1.386 . S
C3700 C3702 1.391 . S
C3701 C3700 1.386 . S
C3701 C3705 1.393 . S
C3702 H3694 0.950 . S
C3702 C3700 1.391 . S
C3702 C3703 1.400 . S
C3703 C3702 1.400 . S
C3703 C3704 1.398 . S
C3703 C3709 1.491 . S
C3704 H3695 0.950 . S
C3704 C3703 1.398 . S
C3704 C3705 1.391 . S
C3705 H3693 0.950 . S
C3705 C3701 1.393 . S
C3705 C3704 1.391 . S
C3706 H3696 0.950 . S
C3706 C3707 1.386 . S
C3706 C3708 1.391 . S
C3707 C3706 1.386 . S
C3707 C3711 1.393 . S
C3708 H3697 0.950 . S
C3708 C3706 1.391 . S
C3708 C3709 1.400 . S
C3709 C3703 1.491 . S
C3709 C3708 1.400 . S
C3709 C3710 1.398 . S
C3710 H3698 0.950 . S
C3710 C3709 1.398 . S
C3710 C3711 1.391 . S
C3711 H3699 0.950 . S
C3711 C3707 1.393 . S
C3711 C3710 1.391 . S
H3712 C3720 0.950 . S
H3713 C3725 0.950 . S
H3714 C3722 0.950 . S
H3715 C3724 0.950 . S
H3716 C3726 0.900 1_554 S
H3717 C3728 0.950 . S
H3718 C3730 0.950 . S
H3719 C3731 0.950 . S
C3720 H3712 0.950 . S
C3720 C3721 1.386 . S
C3720 C3722 1.391 . S
C3721 C3720 1.386 . S
C3721 C3725 1.393 . S
C3722 H3714 0.950 . S
C3722 C3720 1.391 . S
C3722 C3723 1.400 . S
C3723 C3722 1.400 . S
C3723 C3724 1.398 . S
C3723 C3729 1.491 . S
C3724 H3715 0.950 . S
C3724 C3723 1.398 . S
C3724 C3725 1.391 . S
C3725 H3713 0.950 . S
C3725 C3721 1.393 . S
C3725 C3724 1.391 . S
C3726 H3716 0.900 1_556 S
C3726 C3727 1.386 . S
C3726 C3728 1.391 . S
C3727 C3726 1.386 . S
C3727 C3731 1.393 . S
C3728 H3717 0.950 . S
C3728 C3726 1.391 . S
C3728 C3729 1.400 . S
C3729 C3723 1.491 . S
C3729 C3728 1.400 . S
C3729 C3730 1.398 . S
C3730 H3718 0.950 . S
C3730 C3729 1.398 . S
C3730 C3731 1.391 . S
C3731 H3719 0.950 . S
C3731 C3727 1.393 . S
C3731 C3730 1.391 . S
H3732 C3740 0.950 . S
H3733 C3745 0.950 . S
H3734 C3742 0.950 . S
H3735 C3744 0.950 . S
H3736 C3746 0.950 . S
H3737 C3748 0.950 . S
H3738 C3750 0.950 . S
H3739 C3751 0.950 . S
C3740 H3732 0.950 . S
C3740 C3741 1.386 . S
C3740 C3742 1.391 . S
C3741 C3740 1.386 . S
C3741 C3745 1.393 . S
C3742 H3734 0.950 . S
C3742 C3740 1.391 . S
C3742 C3743 1.400 . S
C3743 C3742 1.400 . S
C3743 C3744 1.398 . S
C3743 C3749 1.491 . S
C3744 H3735 0.950 . S
C3744 C3743 1.398 . S
C3744 C3745 1.391 . S
C3745 H3733 0.950 . S
C3745 C3741 1.393 . S
C3745 C3744 1.391 . S
C3746 H3736 0.950 . S
C3746 C3747 1.386 . S
C3746 C3748 1.391 . S
C3747 C3746 1.386 . S
C3747 C3751 1.393 . S
C3748 H3737 0.950 . S
C3748 C3746 1.391 . S
C3748 C3749 1.400 . S
C3749 C3743 1.491 . S
C3749 C3748 1.400 . S
C3749 C3750 1.398 . S
C3750 H3738 0.950 . S
C3750 C3749 1.398 . S
C3750 C3751 1.391 . S
C3751 H3739 0.950 . S
C3751 C3747 1.393 . S
C3751 C3750 1.391 . S
H3752 C3760 0.950 . S
H3753 C3765 0.950 . S
H3754 C3762 0.950 . S
H3755 C3764 0.950 . S
H3756 C3766 0.950 . S
H3757 C3768 0.950 . S
H3758 C3770 0.950 . S
H3759 C3771 0.950 1_554 S
C3760 H3752 0.950 . S
C3760 C3761 1.386 . S
C3760 C3762 1.391 . S
C3761 C3760 1.386 . S
C3761 C3765 1.393 . S
C3762 H3754 0.950 . S
C3762 C3760 1.391 . S
C3762 C3763 1.400 . S
C3763 C3762 1.400 . S
C3763 C3764 1.398 . S
C3763 C3769 1.491 . S
C3764 H3755 0.950 . S
C3764 C3763 1.398 . S
C3764 C3765 1.391 . S
C3765 H3753 0.950 . S
C3765 C3761 1.393 . S
C3765 C3764 1.391 . S
C3766 H3756 0.950 . S
C3766 C3767 1.386 . S
C3766 C3768 1.391 . S
C3767 C3766 1.386 . S
C3767 C3771 1.393 . S
C3768 H3757 0.950 . S
C3768 C3766 1.391 . S
C3768 C3769 1.400 . S
C3769 C3763 1.491 . S
C3769 C3768 1.400 . S
C3769 C3770 1.398 . S
C3770 H3758 0.950 . S
C3770 C3769 1.398 . S
C3770 C3771 1.391 . S
C3771 H3759 0.950 1_556 S
C3771 C3767 1.393 . S
C3771 C3770 1.391 . S
H3772 C3780 0.950 . S
H3773 C3785 0.950 . S
H3774 C3782 0.950 . S
H3775 C3784 0.950 . S
H3776 C3786 0.950 . S
H3777 C3788 0.950 . S
H3778 C3790 0.950 . S
H3779 C3791 0.950 . S
C3780 H3772 0.950 . S
C3780 C3781 1.386 . S
C3780 C3782 1.391 . S
C3781 C3780 1.386 . S
C3781 C3785 1.393 . S
C3782 H3774 0.950 . S
C3782 C3780 1.391 . S
C3782 C3783 1.400 . S
C3783 C3782 1.400 . S
C3783 C3784 1.398 . S
C3783 C3789 1.491 . S
C3784 H3775 0.950 . S
C3784 C3783 1.398 . S
C3784 C3785 1.391 . S
C3785 H3773 0.950 . S
C3785 C3781 1.393 . S
C3785 C3784 1.391 . S
C3786 H3776 0.950 . S
C3786 C3787 1.386 . S
C3786 C3788 1.391 . S
C3787 C3786 1.386 . S
C3787 C3791 1.393 . S
C3788 H3777 0.950 . S
C3788 C3786 1.391 . S
C3788 C3789 1.400 . S
C3789 C3783 1.491 . S
C3789 C3788 1.400 . S
C3789 C3790 1.398 . S
C3790 H3778 0.950 . S
C3790 C3789 1.398 . S
C3790 C3791 1.391 . S
C3791 H3779 0.950 . S
C3791 C3787 1.393 . S
C3791 C3790 1.391 . S
H3792 C3800 0.950 . S
H3793 C3805 0.950 . S
H3794 C3802 0.950 . S
H3795 C3804 0.950 . S
H3796 C3806 0.950 . S
H3797 C3808 0.950 . S
H3798 C3810 0.950 . S
H3799 C3811 0.950 . S
C3800 H3792 0.950 . S
C3800 C3801 1.386 . S
C3800 C3802 1.391 . S
C3801 C3800 1.386 . S
C3801 C3805 1.393 . S
C3802 H3794 0.950 . S
C3802 C3800 1.391 . S
C3802 C3803 1.400 . S
C3803 C3802 1.400 . S
C3803 C3804 1.398 . S
C3803 C3809 1.491 . S
C3804 H3795 0.950 . S
C3804 C3803 1.398 . S
C3804 C3805 1.391 . S
C3805 H3793 0.950 . S
C3805 C3801 1.393 . S
C3805 C3804 1.391 . S
C3806 H3796 0.950 . S
C3806 C3807 1.386 . S
C3806 C3808 1.391 . S
C3807 C3806 1.386 . S
C3807 C3811 1.393 . S
C3808 H3797 0.950 . S
C3808 C3806 1.391 . S
C3808 C3809 1.400 . S
C3809 C3803 1.491 . S
C3809 C3808 1.400 . S
C3809 C3810 1.398 . S
C3810 H3798 0.950 . S
C3810 C3809 1.398 . S
C3810 C3811 1.391 . S
C3811 H3799 0.950 . S
C3811 C3807 1.393 . S
C3811 C3810 1.391 . S
H3812 C3820 0.950 . S
H3813 C3825 0.950 . S
H3814 C3822 0.950 . S
H3815 C3824 0.950 . S
H3816 C3826 0.950 . S
H3817 C3828 0.950 . S
H3818 C3830 0.950 . S
H3819 C3831 0.950 . S
C3820 H3812 0.950 . S
C3820 C3821 1.386 . S
C3820 C3822 1.391 . S
C3821 C3820 1.386 . S
C3821 C3825 1.393 . S
C3822 H3814 0.950 . S
C3822 C3820 1.391 . S
C3822 C3823 1.400 . S
C3823 C3822 1.400 . S
C3823 C3824 1.398 . S
C3823 C3829 1.491 . S
C3824 H3815 0.950 . S
C3824 C3823 1.398 . S
C3824 C3825 1.391 . S
C3825 H3813 0.950 . S
C3825 C3821 1.393 . S
C3825 C3824 1.391 . S
C3826 H3816 0.950 . S
C3826 C3827 1.386 . S
C3826 C3828 1.391 . S
C3827 C3826 1.386 . S
C3827 C3831 1.393 . S
C3828 H3817 0.950 . S
C3828 C3826 1.391 . S
C3828 C3829 1.400 . S
C3829 C3823 1.491 . S
C3829 C3828 1.400 . S
C3829 C3830 1.398 . S
C3830 H3818 0.950 . S
C3830 C3829 1.398 . S
C3830 C3831 1.391 . S
C3831 H3819 0.950 . S
C3831 C3827 1.393 . S
C3831 C3830 1.391 . S
H3832 C3840 0.950 . S
H3833 C3845 0.950 . S
H3834 C3842 0.950 . S
H3835 C3844 0.950 . S
H3836 C3846 0.950 . S
H3837 C3848 0.950 . S
H3838 C3850 0.950 . S
H3839 C3851 0.950 . S
C3840 H3832 0.950 . S
C3840 C3841 1.386 . S
C3840 C3842 1.391 . S
C3841 C3840 1.386 . S
C3841 C3845 1.393 . S
C3842 H3834 0.950 . S
C3842 C3840 1.391 . S
C3842 C3843 1.400 . S
C3843 C3842 1.400 . S
C3843 C3844 1.398 . S
C3843 C3849 1.491 . S
C3844 H3835 0.950 . S
C3844 C3843 1.398 . S
C3844 C3845 1.391 . S
C3845 H3833 0.950 . S
C3845 C3841 1.393 . S
C3845 C3844 1.391 . S
C3846 H3836 0.950 . S
C3846 C3847 1.386 . S
C3846 C3848 1.391 . S
C3847 C3846 1.386 . S
C3847 C3851 1.393 . S
C3848 H3837 0.950 . S
C3848 C3846 1.391 . S
C3848 C3849 1.400 . S
C3849 C3843 1.491 . S
C3849 C3848 1.400 . S
C3849 C3850 1.398 . S
C3850 H3838 0.950 . S
C3850 C3849 1.398 . S
C3850 C3851 1.391 . S
C3851 H3839 0.950 . S
C3851 C3847 1.393 . S
C3851 C3850 1.391 . S
H3852 C3860 0.950 . S
H3853 C3865 0.950 . S
H3854 C3862 0.950 . S
H3855 C3864 0.950 . S
H3856 C3866 0.950 . S
H3857 C3868 0.950 . S
H3858 C3870 0.950 . S
H3859 C3871 0.950 . S
C3860 H3852 0.950 . S
C3860 C3861 1.386 . S
C3860 C3862 1.391 . S
C3861 C3860 1.386 . S
C3861 C3865 1.393 . S
C3862 H3854 0.950 . S
C3862 C3860 1.391 . S
C3862 C3863 1.400 . S
C3863 C3862 1.400 . S
C3863 C3864 1.398 . S
C3863 C3869 1.491 . S
C3864 H3855 0.950 . S
C3864 C3863 1.398 . S
C3864 C3865 1.391 . S
C3865 H3853 0.950 . S
C3865 C3861 1.393 . S
C3865 C3864 1.391 . S
C3866 H3856 0.950 . S
C3866 C3867 1.386 . S
C3866 C3868 1.391 . S
C3867 C3866 1.386 . S
C3867 C3871 1.393 . S
C3868 H3857 0.950 . S
C3868 C3866 1.391 . S
C3868 C3869 1.400 . S
C3869 C3863 1.491 . S
C3869 C3868 1.400 . S
C3869 C3870 1.398 . S
C3870 H3858 0.950 . S
C3870 C3869 1.398 . S
C3870 C3871 1.391 . S
C3871 H3859 0.950 . S
C3871 C3867 1.393 . S
C3871 C3870 1.391 . S
H3872 C3880 0.950 . S
H3873 C3885 0.962 . S
H3874 C3882 0.950 . S
H3875 C3884 0.950 . S
H3876 C3886 0.950 . S
H3877 C3888 0.950 . S
H3878 C3890 0.950 . S
H3879 C3891 0.950 . S
C3880 H3872 0.950 . S
C3880 C3881 1.386 . S
C3880 C3882 1.391 . S
C3881 C3880 1.386 . S
C3881 C3885 1.393 . S
C3882 H3874 0.950 . S
C3882 C3880 1.391 . S
C3882 C3883 1.400 . S
C3883 C3882 1.400 . S
C3883 C3884 1.398 . S
C3883 C3889 1.491 . S
C3884 H3875 0.950 . S
C3884 C3883 1.398 . S
C3884 C3885 1.391 . S
C3885 H3873 0.962 . S
C3885 C3881 1.393 . S
C3885 C3884 1.391 . S
C3886 H3876 0.950 . S
C3886 C3887 1.386 . S
C3886 C3888 1.391 . S
C3887 C3886 1.386 . S
C3887 C3891 1.393 . S
C3888 H3877 0.950 . S
C3888 C3886 1.391 . S
C3888 C3889 1.400 . S
C3889 C3883 1.491 . S
C3889 C3888 1.400 . S
C3889 C3890 1.398 . S
C3890 H3878 0.950 . S
C3890 C3889 1.398 . S
C3890 C3891 1.391 . S
C3891 H3879 0.950 . S
C3891 C3887 1.393 . S
C3891 C3890 1.391 . S
H3892 C3900 0.950 . S
H3893 C3905 0.950 . S
H3894 C3902 0.950 . S
H3895 C3904 0.950 . S
H3896 C3906 0.950 . S
H3897 C3908 0.950 . S
H3898 C3910 0.950 . S
H3899 C3911 0.950 . S
C3900 H3892 0.950 . S
C3900 C3901 1.386 . S
C3900 C3902 1.391 . S
C3901 C3900 1.386 . S
C3901 C3905 1.393 . S
C3902 H3894 0.950 . S
C3902 C3900 1.391 . S
C3902 C3903 1.400 . S
C3903 C3902 1.400 . S
C3903 C3904 1.398 . S
C3903 C3909 1.491 . S
C3904 H3895 0.950 . S
C3904 C3903 1.398 . S
C3904 C3905 1.391 . S
C3905 H3893 0.950 . S
C3905 C3901 1.393 . S
C3905 C3904 1.391 . S
C3906 H3896 0.950 . S
C3906 C3907 1.386 . S
C3906 C3908 1.391 . S
C3907 C3906 1.386 . S
C3907 C3911 1.393 . S
C3908 H3897 0.950 . S
C3908 C3906 1.391 . S
C3908 C3909 1.400 . S
C3909 C3903 1.491 . S
C3909 C3908 1.400 . S
C3909 C3910 1.398 . S
C3910 H3898 0.950 . S
C3910 C3909 1.398 . S
C3910 C3911 1.391 . S
C3911 H3899 0.950 . S
C3911 C3907 1.393 . S
C3911 C3910 1.391 . S
H3912 C3920 0.950 . S
H3913 C3925 0.950 . S
H3914 C3922 0.950 . S
H3915 C3924 0.950 . S
H3916 C3926 0.950 . S
H3917 C3928 0.950 . S
H3918 C3930 0.950 . S
H3919 C3931 0.950 . S
C3920 H3912 0.950 . S
C3920 C3921 1.386 . S
C3920 C3922 1.391 . S
C3921 C3920 1.386 . S
C3921 C3925 1.393 . S
C3922 H3914 0.950 . S
C3922 C3920 1.391 . S
C3922 C3923 1.400 . S
C3923 C3922 1.400 . S
C3923 C3924 1.398 . S
C3923 C3929 1.491 . S
C3924 H3915 0.950 . S
C3924 C3923 1.398 . S
C3924 C3925 1.391 . S
C3925 H3913 0.950 . S
C3925 C3921 1.393 . S
C3925 C3924 1.391 . S
C3926 H3916 0.950 . S
C3926 C3927 1.386 . S
C3926 C3928 1.391 . S
C3927 C3926 1.386 . S
C3927 C3931 1.393 . S
C3928 H3917 0.950 . S
C3928 C3926 1.391 . S
C3928 C3929 1.400 . S
C3929 C3923 1.491 . S
C3929 C3928 1.400 . S
C3929 C3930 1.398 . S
C3930 H3918 0.950 . S
C3930 C3929 1.398 . S
C3930 C3931 1.391 . S
C3931 H3919 0.950 . S
C3931 C3927 1.393 . S
C3931 C3930 1.391 . S
H3932 C3940 0.950 . S
H3933 C3945 0.950 . S
H3934 C3942 0.950 . S
H3935 C3944 0.950 . S
H3936 C3946 0.950 . S
H3937 C3948 0.950 . S
H3938 C3950 0.950 . S
H3939 C3951 0.950 . S
C3940 H3932 0.950 . S
C3940 C3941 1.386 . S
C3940 C3942 1.391 . S
C3941 C3940 1.386 . S
C3941 C3945 1.393 . S
C3942 H3934 0.950 . S
C3942 C3940 1.391 . S
C3942 C3943 1.400 . S
C3943 C3942 1.400 . S
C3943 C3944 1.398 . S
C3943 C3949 1.491 . S
C3944 H3935 0.950 . S
C3944 C3943 1.398 . S
C3944 C3945 1.391 . S
C3945 H3933 0.950 . S
C3945 C3941 1.393 . S
C3945 C3944 1.391 . S
C3946 H3936 0.950 . S
C3946 C3947 1.386 . S
C3946 C3948 1.391 . S
C3947 C3946 1.386 . S
C3947 C3951 1.393 . S
C3948 H3937 0.950 . S
C3948 C3946 1.391 . S
C3948 C3949 1.400 . S
C3949 C3943 1.491 . S
C3949 C3948 1.400 . S
C3949 C3950 1.398 . S
C3950 H3938 0.950 . S
C3950 C3949 1.398 . S
C3950 C3951 1.391 . S
C3951 H3939 0.950 . S
C3951 C3947 1.393 . S
C3951 C3950 1.391 . S
H3952 C3960 0.950 . S
H3953 C3965 0.950 . S
H3954 C3962 0.950 . S
H3955 C3964 0.950 . S
H3956 C3966 0.950 . S
H3957 C3968 0.950 . S
H3958 C3970 0.950 . S
H3959 C3971 0.950 . S
C3960 H3952 0.950 . S
C3960 C3961 1.386 . S
C3960 C3962 1.391 . S
C3961 C3960 1.386 . S
C3961 C3965 1.393 . S
C3962 H3954 0.950 . S
C3962 C3960 1.391 . S
C3962 C3963 1.400 . S
C3963 C3962 1.400 . S
C3963 C3964 1.398 . S
C3963 C3969 1.491 . S
C3964 H3955 0.950 . S
C3964 C3963 1.398 . S
C3964 C3965 1.391 . S
C3965 H3953 0.950 . S
C3965 C3961 1.393 . S
C3965 C3964 1.391 . S
C3966 H3956 0.950 . S
C3966 C3967 1.386 . S
C3966 C3968 1.391 . S
C3967 C3966 1.386 . S
C3967 C3971 1.393 . S
C3968 H3957 0.950 . S
C3968 C3966 1.391 . S
C3968 C3969 1.400 . S
C3969 C3963 1.491 . S
C3969 C3968 1.400 . S
C3969 C3970 1.398 . S
C3970 H3958 0.950 . S
C3970 C3969 1.398 . S
C3970 C3971 1.391 . S
C3971 H3959 0.950 . S
C3971 C3967 1.393 . S
C3971 C3970 1.391 . S
H3972 C3980 0.950 . S
H3973 C3985 0.950 . S
H3974 C3982 0.950 . S
H3975 C3984 0.950 . S
H3976 C3986 0.950 . S
H3977 C3988 0.950 . S
H3978 C3990 0.950 . S
H3979 C3991 0.950 . S
C3980 H3972 0.950 . S
C3980 C3981 1.386 . S
C3980 C3982 1.391 . S
C3981 C3980 1.386 . S
C3981 C3985 1.393 . S
C3982 H3974 0.950 . S
C3982 C3980 1.391 . S
C3982 C3983 1.400 . S
C3983 C3982 1.400 . S
C3983 C3984 1.398 . S
C3983 C3989 1.491 . S
C3984 H3975 0.950 . S
C3984 C3983 1.398 . S
C3984 C3985 1.391 . S
C3985 H3973 0.950 . S
C3985 C3981 1.393 . S
C3985 C3984 1.391 . S
C3986 H3976 0.950 . S
C3986 C3987 1.386 . S
C3986 C3988 1.391 . S
C3987 C3986 1.386 . S
C3987 C3991 1.393 . S
C3988 H3977 0.950 . S
C3988 C3986 1.391 . S
C3988 C3989 1.400 . S
C3989 C3983 1.491 . S
C3989 C3988 1.400 . S
C3989 C3990 1.398 . S
C3990 H3978 0.950 . S
C3990 C3989 1.398 . S
C3990 C3991 1.391 . S
C3991 H3979 0.950 . S
C3991 C3987 1.393 . S
C3991 C3990 1.391 . S
H3992 C4000 0.950 . S
H3993 C4005 0.950 . S
H3994 C4002 0.950 . S
H3995 C4004 0.950 . S
H3996 C4006 0.950 . S
H3997 C4008 0.950 . S
H3998 C4010 0.950 . S
H3999 C4011 0.950 . S
C4000 H3992 0.950 . S
C4000 C4001 1.386 . S
C4000 C4002 1.391 . S
C4001 C4000 1.386 . S
C4001 C4005 1.393 . S
C4002 H3994 0.950 . S
C4002 C4000 1.391 . S
C4002 C4003 1.400 . S
C4003 C4002 1.400 . S
C4003 C4004 1.398 . S
C4003 C4009 1.491 . S
C4004 H3995 0.950 . S
C4004 C4003 1.398 . S
C4004 C4005 1.391 . S
C4005 H3993 0.950 . S
C4005 C4001 1.393 . S
C4005 C4004 1.391 . S
C4006 H3996 0.950 . S
C4006 C4007 1.386 . S
C4006 C4008 1.391 . S
C4007 C4006 1.386 . S
C4007 C4011 1.393 . S
C4008 H3997 0.950 . S
C4008 C4006 1.391 . S
C4008 C4009 1.400 . S
C4009 C4003 1.491 . S
C4009 C4008 1.400 . S
C4009 C4010 1.398 . S
C4010 H3998 0.950 . S
C4010 C4009 1.398 . S
C4010 C4011 1.391 . S
C4011 H3999 0.950 . S
C4011 C4007 1.393 . S
C4011 C4010 1.391 . S
H4012 C4020 0.950 . S
H4013 C4025 0.950 . S
H4014 C4022 0.950 . S
H4015 C4024 0.950 . S
H4016 C4026 0.950 . S
H4017 C4028 0.950 . S
H4018 C4030 0.950 . S
H4019 C4031 0.950 . S
C4020 H4012 0.950 . S
C4020 C4021 1.386 . S
C4020 C4022 1.391 . S
C4021 C4020 1.386 . S
C4021 C4025 1.393 . S
C4022 H4014 0.950 . S
C4022 C4020 1.391 . S
C4022 C4023 1.400 . S
C4023 C4022 1.400 . S
C4023 C4024 1.398 . S
C4023 C4029 1.491 . S
C4024 H4015 0.950 . S
C4024 C4023 1.398 . S
C4024 C4025 1.391 . S
C4025 H4013 0.950 . S
C4025 C4021 1.393 . S
C4025 C4024 1.391 . S
C4026 H4016 0.950 . S
C4026 C4027 1.386 . S
C4026 C4028 1.391 . S
C4027 C4026 1.386 . S
C4027 C4031 1.393 . S
C4028 H4017 0.950 . S
C4028 C4026 1.391 . S
C4028 C4029 1.400 . S
C4029 C4023 1.491 . S
C4029 C4028 1.400 . S
C4029 C4030 1.398 . S
C4030 H4018 0.950 . S
C4030 C4029 1.398 . S
C4030 C4031 1.391 . S
C4031 H4019 0.950 . S
C4031 C4027 1.393 . S
C4031 C4030 1.391 . S
C1641 C292 0.789 . S
C1647 C5 0.818 . S
C1661 C326 0.786 . S
C1667 C39 0.824 1_556 S
C1681 C73 0.824 . S
C1687 C360 0.786 . S
C1701 C107 0.826 1_556 S
C1707 C394 0.799 . S
C1721 C141 0.827 . S
C1727 C428 0.789 . S
C1741 C462 0.825 . S
C1747 C175 0.849 1_554 S
C1761 C496 0.789 . S
C1767 C209 0.817 . S
C1781 C243 0.830 1_554 S
C1787 C530 0.829 . S
C1801 C277 0.821 . S
C1807 C564 0.812 . S
C1821 C311 0.854 . S
C1827 C1618 0.812 . S
C1841 C345 0.823 . S
C1847 C1550 0.786 . S
C1861 C379 0.822 1_545 S
C1867 C1584 0.825 . S
C1881 C598 0.814 . S
C1887 C413 0.820 . S
C1901 C632 0.822 . S
C1907 C447 0.851 . S
C1921 C481 0.826 . S
C1927 C666 0.788 . S
C1941 C515 0.834 1_545 S
C1947 C1516 0.830 . S
C1961 C549 0.800 . S
C1967 C20 0.815 . S
C1981 C156 0.826 . S
C1987 C583 0.810 . S
C2001 C617 0.809 1_655 S
C2007 C190 0.827 . S
C2021 C224 0.819 . S
C2027 C651 0.817 . S
C2041 C685 0.801 . S
C2047 C1074 0.830 . S
C2061 C719 0.825 . S
C2067 C904 0.805 . S
C2081 C753 0.825 1_655 S
C2087 C938 0.787 . S
C2101 C787 0.849 1_455 S
C2107 C870 0.826 . S
C2121 C1108 0.808 . S
C2127 C821 0.823 . S
C2141 C1142 0.818 . S
C2147 C855 0.853 . S
C2161 C1176 0.814 . S
C2167 C889 0.820 . S
C2181 C923 0.830 . S
C2187 C1210 0.786 . S
C2201 C1244 0.830 . S
C2207 C957 0.802 . S
C2221 C1278 0.788 . S
C2227 C991 0.818 . S
C2241 C1025 0.816 . S
C2247 C1312 0.819 . S
C2261 C1059 0.799 . S
C2267 C1346 0.829 . S
C2281 C1093 0.805 . S
C2287 C1380 0.830 . S
C2301 C802 0.828 . S
C2307 C1127 0.799 1_565 S
C2321 C734 0.791 . S
C2327 C1161 0.815 . S
C2341 C1195 0.805 . S
C2347 C768 0.803 . S
C2361 C1229 0.815 . S
C2367 C1414 0.791 . S
C2381 C1263 0.801 1_565 S
C2387 C1448 0.830 . S
C2401 C1482 0.791 . S
C2407 C1297 0.827 . S
C2421 C1331 0.813 . S
C2427 C700 0.824 . S
C2441 C836 0.799 . S
C2447 C1365 0.809 . S
C2461 C1399 0.814 . S
C2467 C972 0.792 . S
C2481 C1433 0.851 . S
C2487 C1006 0.823 . S
C2501 C1040 0.809 . S
C2507 C1467 0.823 . S
C2521 C1501 0.844 1_455 S
C2527 C258 0.793 . S
C2541 C1535 0.798 . S
C2547 C88 0.822 . S
C2561 C122 0.830 . S
C2567 C1569 0.834 . S
C2581 C54 0.793 . S
C2587 C1603 0.813 . S
C2601 C33 2.167 . S
C2607 C101 2.166 . S
C2621 C67 2.172 . S
C2627 C135 2.170 . S
C2641 C237 2.172 . S
C2647 C169 2.171 . S
C2661 C203 2.167 . S
C2667 C271 2.169 . S
C2681 C441 2.168 . S
C2687 C305 2.166 . S
C2701 C339 2.173 . S
C2707 C475 2.172 . S
C2721 C509 2.173 . S
C2727 C373 2.172 . S
C2741 C543 2.167 . S
C2747 C407 2.166 . S
C2761 C1495 2.173 . S
C2767 C577 2.172 . S
C2781 C611 2.167 . S
C2787 C747 2.169 . S
C2801 C645 2.169 . S
C2807 C781 2.171 . S
C2821 C679 2.166 . S
C2827 C1393 2.167 . S
C2841 C1631 2.168 . S
C2847 C713 2.169 . S
C2861 C1529 2.170 . S
C2867 C815 2.168 . S
C2881 C917 2.166 . S
C2887 C849 2.166 . S
C2901 C951 2.172 . S
C2907 C883 2.173 . S
C2921 C1053 2.167 . S
C2927 C985 2.169 . S
C2941 C1087 2.171 . S
C2947 C1019 2.170 . S
C2961 C1121 2.166 . S
C2967 C1257 2.167 . S
C2981 C1291 2.173 . S
C2987 C1155 2.172 . S
C3001 C1189 2.169 . S
C3007 C1325 2.171 . S
C3021 C1359 2.169 . S
C3027 C1223 2.171 . S
C3041 C1563 2.166 . S
C3047 C1427 2.166 . S
C3061 C1461 2.166 . S
C3067 C1597 2.168 . S
C3081 C444 1.858 . S
C3087 C9 1.860 . S
C3101 C478 1.869 . S
C3107 C43 1.859 . S
C3121 C77 1.850 . S
C3127 C512 1.872 1_545 S
C3141 C111 1.856 . S
C3147 C410 1.872 . S
C3161 C145 1.850 . S
C3167 C1192 1.866 . S
C3181 C1090 1.868 . S
C3187 C179 1.849 . S
C3201 C1124 1.872 1_565 S
C3207 C213 1.853 . S
C3221 C247 1.865 . S
C3227 C1158 1.860 . S
C3241 C281 1.864 . S
C3247 C852 1.859 . S
C3261 C886 1.861 . S
C3267 C315 1.853 . S
C3281 C920 1.872 . S
C3287 C349 1.850 . S
C3301 C383 1.849 . S
C3307 C818 1.867 . S
C3321 C417 1.861 . S
C3327 C240 1.867 1_554 S
C3341 C451 1.854 . S
C3347 C138 1.872 . S
C3361 C172 1.858 1_554 S
C3367 C485 1.860 . S
C3381 C519 1.865 . S
C3387 C206 1.861 . S
C3401 C1566 1.872 . S
C3407 C553 1.852 . S
C3421 C587 1.863 . S
C3427 C1430 1.866 . S
C3441 C1464 1.865 . S
C3447 C621 1.863 . S
C3461 C655 1.864 . S
C3467 C682 1.862 . S
C3481 C580 1.869 . S
C3487 C689 1.860 . S
C3501 C723 1.849 . S
C3507 C784 1.871 1_455 S
C3521 C757 1.865 . S
C3527 C716 1.861 . S
C3541 C1362 1.865 . S
C3547 C791 1.863 . S
C3561 C1260 1.866 1_565 S
C3567 C825 1.863 . S
C3581 C1294 1.872 . S
C3587 C859 1.854 . S
C3601 C893 1.862 . S
C3607 C1328 1.858 . S
C3621 C927 1.849 . S
C3627 C1226 1.871 . S
C3641 C376 1.872 1_545 S
C3647 C961 1.852 . S
C3661 C995 1.861 . S
C3667 C274 1.858 . S
C3681 C1029 1.864 . S
C3687 C308 1.864 . S
C3701 C1063 1.856 . S
C3707 C342 1.860 . S
C3721 C1097 1.850 . S
C3727 C36 1.872 1_556 S
C3741 C1131 1.849 . S
C3747 C70 1.867 . S
C3761 C1165 1.859 . S
C3767 C104 1.858 1_556 S
C3781 C1199 1.850 . S
C3787 C2 1.871 . S
C3801 C1056 1.868 . S
C3807 C1233 1.849 . S
C3821 C954 1.872 . S
C3827 C1267 1.852 . S
C3841 C1301 1.852 . S
C3847 C988 1.872 . S
C3861 C1335 1.853 . S
C3867 C1022 1.862 . S
C3881 C750 1.872 1_655 S
C3887 C1369 1.853 . S
C3901 C1403 1.857 . S
C3907 C614 1.871 1_655 S
C3921 C648 1.862 . S
C3927 C1437 1.852 . S
C3941 C1471 1.864 . S
C3947 C1498 1.864 1_455 S
C3961 C1396 1.867 . S
C3967 C1505 1.849 . S
C3981 C1600 1.872 . S
C3987 C1539 1.851 . S
C4001 C1532 1.860 . S
C4007 C1573 1.855 . S
C4021 C1607 1.853 . S
C4027 C546 1.862 . S
