# Generated by pormake.
# Topology bcg, (8)-cn, num edge types: 1
# Building blocks:
#     Node 0, Type 0, BuildingBlock: AJUNOK_clean_sbu_0, # of connection points: 8
#     Node 1, Type 0, BuildingBlock: AJUNOK_clean_sbu_0, # of connection points: 8
#     Node 2, Type 0, BuildingBlock: AJUNOK_clean_sbu_0, # of connection points: 8
#     Node 3, Type 0, BuildingBlock: AJUNOK_clean_sbu_0, # of connection points: 8
#     Edge 4, Type (0, 0), BuildingBlock: UVAHIK_clean_linker_0, # of connection points: 2
#     Edge 5, Type (0, 0), BuildingBlock: UVAHIK_clean_linker_0, # of connection points: 2
#     Edge 6, Type (0, 0), BuildingBlock: UVAHIK_clean_linker_0, # of connection points: 2
#     Edge 7, Type (0, 0), BuildingBlock: UVAHIK_clean_linker_0, # of connection points: 2
#     Edge 8, Type (0, 0), BuildingBlock: UVAHIK_clean_linker_0, # of connection points: 2
#     Edge 9, Type (0, 0), BuildingBlock: UVAHIK_clean_linker_0, # of connection points: 2
#     Edge 10, Type (0, 0), BuildingBlock: UVAHIK_clean_linker_0, # of connection points: 2
#     Edge 11, Type (0, 0), BuildingBlock: UVAHIK_clean_linker_0, # of connection points: 2
#     Edge 12, Type (0, 0), BuildingBlock: UVAHIK_clean_linker_0, # of connection points: 2
#     Edge 13, Type (0, 0), BuildingBlock: UVAHIK_clean_linker_0, # of connection points: 2
#     Edge 14, Type (0, 0), BuildingBlock: UVAHIK_clean_linker_0, # of connection points: 2
#     Edge 15, Type (0, 0), BuildingBlock: UVAHIK_clean_linker_0, # of connection points: 2
#     Edge 16, Type (0, 0), BuildingBlock: UVAHIK_clean_linker_0, # of connection points: 2
#     Edge 17, Type (0, 0), BuildingBlock: UVAHIK_clean_linker_0, # of connection points: 2
#     Edge 18, Type (0, 0), BuildingBlock: UVAHIK_clean_linker_0, # of connection points: 2
#     Edge 19, Type (0, 0), BuildingBlock: UVAHIK_clean_linker_0, # of connection points: 2
# Relax obj value: 0.152
# Max RMSD: 0.187
# Mean RMSD: 0.187
data_MOF--net-bcg--node1-AJUNOK_clean_sbu_0--edge1-UVAHIK_clean_linker_0
_symmetry_space_group_name_H-M    P1
_symmetry_Int_Tables_number       1
_symmetry_cell_setting            triclinic
loop_
_symmetry_equiv_pos_as_xyz
'x, y, z'
_cell_length_a     20.589673
_cell_length_b     34.483605
_cell_length_c     46.236125
_cell_angle_alpha  90.136284
_cell_angle_beta   89.721835
_cell_angle_gamma 90.02602
loop_
_atom_site_label
_atom_site_type_symbol
_atom_site_fract_x
_atom_site_fract_y
_atom_site_fract_z
_atom_type_partial_charge
Cd0 Cd 0.11277 0.26789 1.00814 0.0
Cd1 Cd 0.29433 0.21232 1.00332 0.0
C2 C 0.15708 0.27996 0.0734 0.0
N3 N 0.13416 0.25137 0.05589 0.0
C4 C 0.09799 0.21496 0.09678 0.0
C5 C 0.1169 0.24521 0.1153 0.0
C6 C 0.14937 0.27733 0.10339 0.0
C7 C 0.10576 0.21902 0.06701 0.0
H8 H 0.17661 0.30619 0.06397 0.0
H9 H 0.08431 0.19764 0.05293 0.0
C10 C 0.14612 0.1657 0.99926 0.0
C11 C 0.32975 0.17903 0.94135 0.0
C12 C 0.34507 0.17852 0.91193 0.0
C13 C 0.32842 0.21034 0.89454 0.0
C14 C 0.29348 0.24113 0.90711 0.0
C15 C 0.27939 0.24049 0.93668 0.0
N16 N 0.29873 0.21004 0.95315 0.0
H17 H 0.34546 0.15556 0.95513 0.0
H18 H 0.25503 0.2649 0.94659 0.0
C19 C 0.25929 0.19724 0.06948 0.0
N20 N 0.27965 0.22663 0.0521 0.0
C21 C 0.32194 0.2611 0.09272 0.0
C22 C 0.30524 0.23014 0.11097 0.0
C23 C 0.27116 0.19854 0.09922 0.0
C24 C 0.3099 0.2584 0.06318 0.0
H25 H 0.23837 0.17144 0.05997 0.0
H26 H 0.32947 0.28036 0.04904 0.0
C27 C 0.2602 0.31476 0.99895 0.0
C28 C -0.00887 0.29761 0.02682 0.0
N29 N 0.09872 0.27149 0.95835 0.0
C30 C 0.06385 0.30217 0.94858 0.0
C31 C 0.04267 0.30316 0.91998 0.0
C32 C 0.05743 0.27217 0.90127 0.0
C33 C 0.09621 0.24172 0.91165 0.0
C34 C 0.11613 0.24186 0.94049 0.0
C35 C 0.41796 0.18213 0.01782 0.0
O36 O 0.11563 0.19755 1.0018 0.0
O37 O 0.20775 0.16474 0.99949 0.0
O38 O 0.29143 0.28299 0.99899 0.0
O39 O 0.19894 0.31537 1.00218 0.0
O40 O -0.00444 0.26902 1.0097 0.0
O41 O 0.04328 0.31464 0.03369 0.0
O42 O 0.41184 0.21123 1.00139 0.0
O43 O 0.36653 0.16461 0.02525 0.0
H44 H 0.04978 0.32497 0.96346 0.0
H45 H 0.14355 0.21767 0.94879 0.0
H46 H 0.07332 0.18952 0.10504 0.0
H47 H 0.16394 0.30159 0.11678 0.0
H48 H 0.37279 0.15442 0.90329 0.0
H49 H 0.27888 0.26597 0.89441 0.0
H50 H 0.34779 0.28617 0.10089 0.0
H51 H 0.25822 0.17376 0.11237 0.0
H52 H 0.01223 0.32697 0.91306 0.0
H53 H 0.10957 0.21755 0.89787 0.0
Cd54 Cd 0.62589 0.76861 0.02062 0.0
Cd55 Cd 0.78704 0.70874 1.01231 0.0
C56 C 0.65638 0.79911 0.0844 0.0
N57 N 0.65199 0.76483 0.06993 0.0
C58 C 0.63242 0.73099 0.11429 0.0
C59 C 0.63097 0.76634 0.12947 0.0
C60 C 0.64642 0.80049 0.11434 0.0
C61 C 0.64227 0.73095 0.08436 0.0
H62 H 0.66178 0.82581 0.0724 0.0
H63 H 0.6369 0.70415 0.07253 0.0
C64 C 0.63533 0.66595 0.01732 0.0
C65 C 0.75457 0.67661 0.94884 0.0
C66 C 0.7628 0.67428 0.91882 0.0
C67 C 0.77889 0.70777 0.90301 0.0
C68 C 0.78004 0.74348 0.91768 0.0
C69 C 0.7718 0.74447 0.94769 0.0
N70 N 0.76123 0.71117 0.96276 0.0
H71 H 0.74843 0.65031 0.96125 0.0
H72 H 0.77885 0.77152 0.95897 0.0
C73 C 0.7865 0.68379 0.0792 0.0
N74 N 0.79006 0.717 0.06342 0.0
C75 C 0.81828 0.75304 0.10596 0.0
C76 C 0.81863 0.71889 0.12247 0.0
C77 C 0.80053 0.68405 0.10882 0.0
C78 C 0.80481 0.75138 0.0764 0.0
H79 H 0.77584 0.65663 0.06846 0.0
H80 H 0.80847 0.77761 0.06399 0.0
C81 C 0.7769 0.81158 1.01331 0.0
C82 C 0.5047 0.80589 0.02987 0.0
N83 N 0.62466 0.76227 0.96944 0.0
C84 C 0.63333 0.79592 0.95456 0.0
C85 C 0.62263 0.79734 0.92471 0.0
C86 C 0.60279 0.76377 0.90991 0.0
C87 C 0.59686 0.72911 0.92554 0.0
C88 C 0.60717 0.72908 0.9554 0.0
C89 C 0.9082 0.67108 1.00387 0.0
O90 O 0.60715 0.6986 0.01941 0.0
O91 O 0.69659 0.66376 0.01478 0.0
O92 O 0.80529 0.77897 1.0113 0.0
O93 O 0.71595 0.81365 0.01714 0.0
O94 O 0.52074 0.77445 0.04177 0.0
O95 O 0.54567 0.82113 1.01286 0.0
O96 O 0.8924 0.70218 0.99141 0.0
O97 O 0.86684 0.65629 0.02091 0.0
H98 H 0.64603 0.82214 0.9661 0.0
H99 H 0.59854 0.70271 0.96718 0.0
H100 H 0.62024 0.70398 0.12491 0.0
H101 H 0.64648 0.82835 0.1252 0.0
H102 H 0.7608 0.64616 0.90838 0.0
H103 H 0.79285 0.77001 0.90655 0.0
H104 H 0.83042 0.78077 0.11556 0.0
H105 H 0.80065 0.65684 0.12045 0.0
H106 H 0.6281 0.82467 0.91347 0.0
H107 H 0.58076 0.70266 0.91512 0.0
Cd108 Cd 0.29225 0.76394 0.51265 0.0
Cd109 Cd 0.12798 0.70429 0.51998 0.0
C110 C 0.27265 0.79291 0.4481 0.0
N111 N 0.26759 0.7592 0.46316 0.0
C112 C 0.27999 0.72238 0.41953 0.0
C113 C 0.29163 0.75657 0.40382 0.0
C114 C 0.2845 0.79228 0.41827 0.0
C115 C 0.26903 0.72432 0.44935 0.0
H116 H 0.27387 0.8202 0.45966 0.0
H117 H 0.26619 0.69779 0.46155 0.0
C118 C 0.28023 0.66134 0.51462 0.0
C119 C 0.14016 0.67546 0.58477 0.0
C120 C 0.12582 0.67617 0.61437 0.0
C121 C 0.11893 0.71193 0.62878 0.0
C122 C 0.133 0.74602 0.61331 0.0
C123 C 0.14655 0.74399 0.58367 0.0
N124 N 0.14784 0.7091 0.56987 0.0
H125 H 0.13899 0.6482 0.57315 0.0
H126 H 0.15154 0.77047 0.57149 0.0
C127 C 0.12307 0.67572 0.45427 0.0
N128 N 0.12293 0.71009 0.46882 0.0
C129 C 0.09749 0.74396 0.42505 0.0
C130 C 0.09405 0.70871 0.4099 0.0
C131 C 0.10858 0.67433 0.42476 0.0
C132 C 0.11129 0.74399 0.45464 0.0
H133 H 0.13195 0.64908 0.4659 0.0
H134 H 0.11035 0.77114 0.46613 0.0
C135 C 0.14104 0.80723 0.51701 0.0
C136 C 0.41402 0.80005 0.50251 0.0
N137 N 0.29639 0.75763 0.56383 0.0
C138 C 0.30177 0.79169 0.57854 0.0
C139 C 0.31749 0.792 0.60796 0.0
C140 C 0.32771 0.75683 0.62258 0.0
C141 C 0.31786 0.72208 0.60726 0.0
C142 C 0.30285 0.72312 0.5778 0.0
C143 C 0.00693 0.66659 0.5283 0.0
O144 O 0.30872 0.69393 0.51297 0.0
O145 O 0.21896 0.65927 0.51733 0.0
O146 O 0.11193 0.77481 0.51885 0.0
O147 O 0.20238 0.80892 0.51473 0.0
O148 O 0.398 0.76756 0.49214 0.0
O149 O 0.37277 0.81701 0.5185 0.0
O150 O 0.02016 0.69971 0.53837 0.0
O151 O 0.0507 0.6498 0.51362 0.0
H152 H 0.29695 0.81883 0.56707 0.0
H153 H 0.29826 0.69616 0.56625 0.0
H154 H 0.28353 0.6942 0.40925 0.0
H155 H 0.29372 0.81942 0.40727 0.0
H156 H 0.11477 0.64912 0.62516 0.0
H157 H 0.12967 0.77421 0.62358 0.0
H158 H 0.08614 0.77114 0.41453 0.0
H159 H 0.10711 0.64652 0.41384 0.0
H160 H 0.32494 0.8196 0.61864 0.0
H161 H 0.32349 0.69421 0.61769 0.0
Cd162 Cd 0.80644 0.26595 0.51032 0.0
Cd163 Cd 0.62677 0.20809 0.50263 0.0
C164 C 0.84087 0.30374 0.45001 0.0
N165 N 0.81189 0.27123 0.46042 0.0
C166 C 0.81345 0.24204 0.41354 0.0
C167 C 0.84687 0.27438 0.40249 0.0
C168 C 0.85871 0.30601 0.42093 0.0
C169 C 0.79672 0.24095 0.44284 0.0
H170 H 0.85311 0.32709 0.46468 0.0
H171 H 0.77441 0.21524 0.45177 0.0
C172 C 0.77812 0.16343 0.50257 0.0
C173 C 0.66315 0.19152 0.56834 0.0
C174 C 0.65358 0.19192 0.59825 0.0
C175 C 0.61631 0.22157 0.61093 0.0
C176 C 0.59139 0.25096 0.5932 0.0
C177 C 0.60174 0.24928 0.5634 0.0
N178 N 0.63727 0.21993 0.55164 0.0
H179 H 0.68826 0.16745 0.55829 0.0
H180 H 0.57796 0.27004 0.54956 0.0
C181 C 0.59664 0.17051 0.44168 0.0
N182 N 0.62199 0.2038 0.45259 0.0
C183 C 0.61759 0.23401 0.40619 0.0
C184 C 0.58778 0.20074 0.39467 0.0
C185 C 0.5792 0.16829 0.4126 0.0
C186 C 0.63393 0.23504 0.43547 0.0
H187 H 0.58685 0.14637 0.45596 0.0
H188 H 0.65324 0.26138 0.44478 0.0
C189 C 0.65938 0.3113 0.49988 0.0
C190 C 0.92984 0.29507 0.52691 0.0
N191 N 0.77717 0.25512 0.55803 0.0
C192 C 0.74571 0.28374 0.57273 0.0
C193 C 0.74503 0.28389 0.60293 0.0
C194 C 0.77816 0.25474 0.61807 0.0
C195 C 0.8084 0.2249 0.60225 0.0
C196 C 0.80798 0.22592 0.5721 0.0
C197 C 0.5033 0.17686 0.51647 0.0
O198 O 0.80862 0.19518 0.50583 0.0
O199 O 0.71664 0.1627 0.50058 0.0
O200 O 0.62985 0.27893 0.49959 0.0
O201 O 0.72045 0.31306 0.50336 0.0
O202 O 0.92383 0.26692 0.50951 0.0
O203 O 0.87835 0.3119 0.5351 0.0
O204 O 0.50954 0.20661 0.50066 0.0
O205 O 0.55471 0.1593 0.52363 0.0
H206 H 0.72438 0.30765 0.56108 0.0
H207 H 0.83601 0.20487 0.56002 0.0
H208 H 0.80375 0.21692 0.40013 0.0
H209 H 0.88356 0.33169 0.4132 0.0
H210 H 0.67331 0.16865 0.6112 0.0
H211 H 0.56082 0.27369 0.60203 0.0
H212 H 0.62461 0.25977 0.39318 0.0
H213 H 0.55709 0.14194 0.40449 0.0
H214 H 0.72119 0.30745 0.61429 0.0
H215 H 0.83607 0.20249 0.61298 0.0
C216 C 0.53793 0.17883 0.01882 0.0
C217 C 0.47859 0.17666 0.0336 0.0
C218 C 0.5947 0.18707 0.03394 0.0
C219 C 0.70769 0.19841 0.07877 0.0
H220 H 0.69102 0.31055 0.08083 0.0
C221 C 0.93071 0.29379 0.0727 0.0
C222 C 0.93114 0.30341 0.04319 0.0
C223 C 0.87243 0.28384 0.08638 0.0
C224 C 0.69604 0.27929 0.08158 0.0
H225 H 0.4315 0.17918 0.07562 0.0
H226 H 0.53086 0.19573 0.10188 0.0
H227 H 0.59355 0.27003 0.07821 0.0
H228 H 0.87214 0.31428 1.00556 0.0
H229 H 0.76962 0.29925 0.0299 0.0
H230 H 0.81035 0.20774 0.07982 0.0
C231 C 0.53374 0.18945 0.07894 0.0
C232 C 0.64055 0.25614 0.08009 0.0
C233 C 0.47725 0.17984 0.06392 0.0
C234 C 0.87242 0.30758 0.02845 0.0
C235 C 0.81403 0.29897 0.04239 0.0
C236 C 0.7631 0.2215 0.08106 0.0
C237 C 0.5922 0.19449 0.06381 0.0
C238 C 0.64644 0.21579 0.07685 0.0
C239 C 0.81416 0.28475 0.07085 0.0
C240 C 0.75767 0.26212 0.08058 0.0
H241 H 0.53958 0.17713 0.99542 0.0
H242 H 0.63937 0.19148 0.02189 0.0
H243 H 0.71304 0.16738 0.07589 0.0
H244 H -0.02407 0.2896 0.08421 0.0
H245 H 0.87352 0.27239 0.10818 0.0
C246 C 0.01256 0.66697 0.97839 0.0
C247 C -0.02369 0.65946 1.0035 0.0
C248 C 0.07707 0.6785 0.98066 0.0
C249 C 0.20871 0.70281 0.03184 0.0
H250 H 0.20042 0.80267 0.9932 0.0
C251 C 0.40158 0.81003 0.05632 0.0
C252 C 0.4367 0.81765 0.03091 0.0
C253 C 0.33684 0.79875 0.0546 0.0
C254 C 0.20324 0.77497 1.00413 0.0
H255 H -0.01906 0.64994 0.0497 0.0
H256 H 0.09352 0.67035 0.05381 0.0
H257 H 0.11747 0.75394 0.98371 0.0
H258 H 0.43005 0.82753 0.98482 0.0
H259 H 0.31716 0.80749 0.98165 0.0
H260 H 0.29457 0.72379 0.05219 0.0
C261 C 0.07262 0.66787 0.03243 0.0
C262 C 0.15652 0.74681 0.99839 0.0
C263 C 0.00816 0.65587 0.03008 0.0
C264 C 0.40367 0.82153 1.00466 0.0
C265 C 0.33902 0.80974 1.00285 0.0
C266 C 0.25548 0.73096 0.03756 0.0
C267 C 0.10516 0.68277 1.00808 0.0
C268 C 0.15902 0.71041 1.01209 0.0
C269 C 0.30743 0.79477 0.02743 0.0
C270 C 0.25311 0.76733 0.02378 0.0
H271 H -0.01125 0.66932 0.9576 0.0
H272 H 0.10216 0.68862 0.96145 0.0
H273 H 0.21149 0.6751 0.04275 0.0
H274 H 0.42634 0.80745 0.07686 0.0
H275 H 0.31255 0.7886 0.074 0.0
C276 C 0.51506 0.81756 0.52708 0.0
C277 C 0.48207 0.81162 0.50101 0.0
C278 C 0.57937 0.80536 0.52949 0.0
C279 C 0.71557 0.75718 0.49094 0.0
H280 H 0.69702 0.68157 0.55259 0.0
C281 C 0.90928 0.64642 0.50212 0.0
C282 C 0.93955 0.65361 0.52868 0.0
C283 C 0.84423 0.65656 0.49858 0.0
C284 C 0.70256 0.70236 0.53522 0.0
H285 H 0.49233 0.79716 0.45567 0.0
H286 H 0.60465 0.77671 0.4596 0.0
H287 H 0.616 0.73251 0.54719 0.0
H288 H 0.92448 0.66836 0.57369 0.0
H289 H 0.81108 0.68525 0.56783 0.0
H290 H 0.80239 0.72723 0.47909 0.0
C291 C 0.58142 0.78957 0.47838 0.0
C292 C 0.65705 0.73196 0.53245 0.0
C293 C 0.51715 0.80149 0.47605 0.0
C294 C 0.90173 0.66305 0.55296 0.0
C295 C 0.83676 0.67287 0.54951 0.0
C296 C 0.76118 0.72761 0.49375 0.0
C297 C 0.61055 0.78783 0.50572 0.0
C298 C 0.66344 0.75981 0.51042 0.0
C299 C 0.80967 0.67339 0.52171 0.0
C300 C 0.75524 0.70002 0.516 0.0
H301 H 0.4888 0.8256 0.54656 0.0
H302 H 0.6018 0.80524 0.55064 0.0
H303 H 0.72115 0.77806 0.47363 0.0
H304 H 0.93777 0.63891 0.48315 0.0
H305 H 0.82358 0.65575 0.47708 0.0
C306 C -0.00691 0.29337 0.57191 0.0
C307 C -0.00872 0.30058 0.54203 0.0
C308 C 0.05153 0.28299 0.58502 0.0
C309 C 0.22637 0.27471 0.57905 0.0
H310 H 0.20607 0.16289 0.57449 0.0
C311 C 0.38342 0.17302 0.51717 0.0
C312 C 0.44229 0.17064 0.53205 0.0
C313 C 0.32627 0.18131 0.53222 0.0
C314 C 0.2123 0.19391 0.57706 0.0
H315 H 0.04845 0.30696 0.50301 0.0
H316 H 0.15143 0.29125 0.52627 0.0
H317 H 0.1099 0.20436 0.57808 0.0
H318 H 0.48805 0.17251 0.57418 0.0
H319 H 0.38805 0.18917 0.60032 0.0
H320 H 0.32861 0.26433 0.57573 0.0
C321 C 0.10787 0.29307 0.53946 0.0
C322 C 0.15758 0.21761 0.57915 0.0
C323 C 0.04922 0.30207 0.52614 0.0
C324 C 0.44267 0.17337 0.5624 0.0
C325 C 0.38581 0.18305 0.57735 0.0
C326 C 0.28116 0.25096 0.57778 0.0
C327 C 0.10867 0.28118 0.56849 0.0
C328 C 0.16429 0.25815 0.5783 0.0
C329 C 0.32796 0.18858 0.5621 0.0
C330 C 0.27412 0.21061 0.57497 0.0
H331 H 0.94846 0.29131 0.58436 0.0
H332 H 0.05121 0.27335 0.6073 0.0
H333 H 0.23234 0.30589 0.57796 0.0
H334 H 0.38252 0.17164 0.49376 0.0
H335 H 0.28208 0.18608 0.52009 0.0
C336 C 0.62551 0.59379 1.01231 0.0
C337 C 0.59574 0.63015 0.01607 0.0
C338 C 0.58795 0.56025 1.0096 0.0
C339 C 0.42471 0.52052 0.02448 0.0
H340 H 0.47405 0.44387 0.96692 0.0
C341 C 0.26426 0.38749 0.99958 0.0
C342 C 0.29666 0.35172 0.99727 0.0
C343 C 0.29934 0.42219 1.00022 0.0
C344 C 0.45993 0.46487 0.98324 0.0
H345 H 0.50301 0.65964 0.02029 0.0
H346 H 0.43763 0.60114 0.0154 0.0
H347 H 0.53841 0.50283 0.9722 0.0
H348 H 0.39134 0.3245 0.99307 0.0
H349 H 0.45228 0.38492 0.99436 0.0
H350 H 0.34646 0.48246 0.03563 0.0
C351 C 0.49004 0.59854 0.01481 0.0
C352 C 0.49686 0.4986 0.9863 0.0
C353 C 0.52758 0.6321 0.0175 0.0
C354 C 0.36476 0.35152 0.99483 0.0
C355 C 0.39976 0.38619 0.99543 0.0
C356 C 0.38777 0.48679 0.02141 0.0
C357 C 0.51978 0.56228 1.01061 0.0
C358 C 0.4799 0.52671 1.00708 0.0
C359 C 0.36753 0.42188 0.9985 0.0
C360 C 0.40518 0.45848 1.00086 0.0
H361 H 0.67789 0.59121 1.01116 0.0
H362 H 0.61236 0.53266 1.00684 0.0
H363 H 0.41082 0.54139 0.04093 0.0
H364 H 0.21184 0.38872 1.0014 0.0
H365 H 0.27306 0.44928 1.00218 0.0
C366 C 0.65238 0.38386 0.49831 0.0
C367 C 0.62123 0.34758 0.49805 0.0
C368 C 0.61605 0.41808 0.49855 0.0
C369 C 0.45189 0.45743 0.48434 0.0
H370 H 0.50682 0.53947 0.53628 0.0
C371 C 0.2891 0.58883 0.51223 0.0
C372 C 0.31931 0.62539 0.51286 0.0
C373 C 0.32622 0.55504 0.50982 0.0
C374 C 0.49122 0.517 0.52145 0.0
H375 H 0.52737 0.31887 0.49724 0.0
H376 H 0.46422 0.37847 0.498 0.0
H377 H 0.57153 0.48056 0.53218 0.0
H378 H 0.41236 0.65504 0.51161 0.0
H379 H 0.47685 0.59616 0.50733 0.0
H380 H 0.3712 0.49384 0.47385 0.0
C381 C 0.51671 0.38051 0.49766 0.0
C382 C 0.52837 0.48327 0.51904 0.0
C383 C 0.55299 0.34631 0.49736 0.0
C384 C 0.38746 0.62737 0.51124 0.0
C385 C 0.42451 0.59361 0.50893 0.0
C386 C 0.41464 0.49115 0.48681 0.0
C387 C 0.5478 0.41679 0.49859 0.0
C388 C 0.5091 0.45306 0.5005 0.0
C389 C 0.39433 0.55708 0.5081 0.0
C390 C 0.43385 0.52127 0.50543 0.0
H391 H 0.70486 0.38591 0.49869 0.0
H392 H 0.64149 0.44558 0.49879 0.0
H393 H 0.43618 0.43493 0.46957 0.0
H394 H 0.23672 0.58626 0.51345 0.0
H395 H 0.30162 0.52728 0.50959 0.0
C396 C 0.14082 0.09309 0.99597 0.0
C397 C 0.10883 0.12904 0.99784 0.0
C398 C 0.10544 0.05848 0.9965 0.0
C399 C 0.94852 0.01908 0.02104 0.0
H400 H -0.00867 0.93245 0.97086 0.0
C401 C 0.78495 0.88406 1.01265 0.0
C402 C 0.81556 0.84768 1.01129 0.0
C403 C 0.82132 0.91814 1.0106 0.0
C404 C -0.02074 0.95623 0.98524 0.0
H405 H 0.01433 0.15675 1.00096 0.0
H406 H 0.9529 0.09648 1.00163 0.0
H407 H 0.05381 -0.00752 0.9674 0.0
H408 H 0.90859 0.81861 1.00674 0.0
H409 H -0.02796 0.87813 1.00349 0.0
H410 H 0.87427 0.98293 0.039 0.0
C411 C 0.00536 0.09504 1.00018 0.0
C412 C 0.015 -0.00939 0.98324 0.0
C413 C 0.04063 0.1296 0.9996 0.0
C414 C 0.88341 0.84616 1.00781 0.0
C415 C 0.91979 0.88027 1.00577 0.0
C416 C 0.9129 0.98474 0.02308 0.0
C417 C 0.03738 0.0591 0.99898 0.0
C418 C -0.00017 0.02246 1.00105 0.0
C419 C 0.88915 0.91665 1.00716 0.0
C420 C 0.92769 0.95296 1.00514 0.0
H421 H 0.19329 0.09161 0.99461 0.0
H422 H 0.13153 0.03123 0.99575 0.0
H423 H 0.93643 0.04284 0.03545 0.0
H424 H 0.73276 0.88631 0.01519 0.0
H425 H 0.79613 0.94569 1.01134 0.0
C426 C 0.78197 0.09079 0.50074 0.0
C427 C 0.81479 0.12652 0.50212 0.0
C428 C 0.81645 0.05594 0.50163 0.0
C429 C -0.02079 0.01405 0.49 0.0
H430 H 0.91578 0.93168 0.53965 0.0
C431 C 0.13416 0.87971 0.51579 0.0
C432 C 0.10274 0.84352 0.51627 0.0
C433 C 0.09826 0.91395 0.514 0.0
C434 C 0.93374 0.9542 0.52541 0.0
H435 H 0.9098 0.15355 0.50512 0.0
H436 H -0.03023 0.09273 0.50672 0.0
H437 H 0.85433 -0.00813 0.53578 0.0
H438 H 0.00878 0.81497 0.51542 0.0
H439 H 0.94623 0.87474 0.51194 0.0
H440 H 0.0585 0.97643 0.47954 0.0
C441 C 0.91739 0.09172 0.50474 0.0
C442 C 0.89853 -0.01132 0.5232 0.0
C443 C 0.88294 0.12658 0.50396 0.0
C444 C 0.03453 0.84237 0.51522 0.0
C445 C -0.00138 0.87665 0.51334 0.0
C446 C 0.01431 0.97955 0.49214 0.0
C447 C 0.88449 0.05602 0.5038 0.0
C448 C 0.92104 0.01904 0.50557 0.0
C449 C 0.03011 0.91283 0.51254 0.0
C450 C -0.00783 0.94928 0.50998 0.0
H451 H 0.72952 0.08966 0.49926 0.0
H452 H 0.78982 0.02888 0.5005 0.0
H453 H -0.00271 0.0367 0.4759 0.0
H454 H 0.18661 0.88168 0.51672 0.0
H455 H 0.12397 0.94136 0.51393 0.0
C456 C 0.49773 0.18628 0.36008 0.0
C457 C 0.56032 0.20115 0.36504 0.0
C458 C 0.4696 0.18869 0.33274 0.0
C459 C 0.50831 0.20126 0.25556 0.0
H460 H 0.3286 0.23412 0.24992 0.0
C461 C 0.39462 0.24103 0.14654 0.0
C462 C 0.33078 0.22864 0.14095 0.0
C463 C 0.42107 0.23762 0.1741 0.0
C464 C 0.37854 0.22443 0.25113 0.0
H465 H 0.6429 0.22964 0.34505 0.0
H466 H 0.59357 0.23398 0.29715 0.0
H467 H 0.37878 0.22768 0.29738 0.0
H468 H 0.24466 0.203 0.16013 0.0
H469 H 0.29129 0.19659 0.20843 0.0
H470 H 0.50817 0.19778 0.20939 0.0
C471 C 0.56646 0.22028 0.31446 0.0
C472 C 0.40733 0.22079 0.27832 0.0
C473 C 0.59453 0.21805 0.34191 0.0
C474 C 0.2939 0.21288 0.16374 0.0
C475 C 0.32049 0.20946 0.19143 0.0
C476 C 0.4795 0.20475 0.2284 0.0
C477 C 0.50342 0.20593 0.30967 0.0
C478 C 0.47263 0.20934 0.28081 0.0
C479 C 0.38469 0.22143 0.19683 0.0
C480 C 0.4144 0.21664 0.22584 0.0
H481 H 0.46968 0.1736 0.37754 0.0
H482 H 0.42126 0.17702 0.32966 0.0
H483 H 0.55836 0.19177 0.25679 0.0
H484 H 0.42508 0.25248 0.12941 0.0
H485 H 0.4703 0.24763 0.17755 0.0
C486 C 0.55808 0.79677 0.16679 0.0
C487 C 0.60381 0.76803 0.15942 0.0
C488 C 0.52545 0.79579 0.19337 0.0
C489 C 0.52911 0.75366 0.267 0.0
H490 H 0.34397 0.77441 0.2657 0.0
C491 C 0.36764 0.72696 0.36725 0.0
C492 C 0.32012 0.75493 0.37406 0.0
C493 C 0.40054 0.72781 0.34074 0.0
C494 C 0.39572 0.76896 0.26656 0.0
H495 H 0.65287 0.71656 0.17493 0.0
H496 H 0.59559 0.71474 0.22138 0.0
H497 H 0.40709 0.77841 0.22106 0.0
H498 H 0.26846 0.8049 0.35754 0.0
H499 H 0.32666 0.8068 0.31141 0.0
H500 H 0.51788 0.7444 0.3125 0.0
C501 C 0.58512 0.73812 0.20653 0.0
C502 C 0.43201 0.77127 0.24093 0.0
C503 C 0.61771 0.73902 0.17983 0.0
C504 C 0.30506 0.78309 0.35317 0.0
C505 C 0.33814 0.78397 0.32659 0.0
C506 C 0.49286 0.75144 0.29265 0.0
C507 C 0.53757 0.76607 0.21338 0.0
C508 C 0.49921 0.76369 0.2408 0.0
C509 C 0.38719 0.75674 0.32024 0.0
C510 C 0.42561 0.75901 0.29279 0.0
H511 H 0.54531 0.81924 0.15152 0.0
H512 H 0.48997 0.81814 0.19808 0.0
H513 H 0.58085 0.74813 0.2678 0.0
H514 H 0.38148 0.70515 0.38285 0.0
H515 H 0.4371 0.70594 0.33646 0.0
C516 C 0.40001 0.72882 0.66106 0.0
C517 C 0.3533 0.75642 0.65279 0.0
C518 C 0.42745 0.72973 0.68868 0.0
C519 C 0.40427 0.77039 0.7627 0.0
H520 H 0.58752 0.74665 0.77033 0.0
C521 C 0.54132 0.79555 0.86969 0.0
C522 C 0.58212 0.76549 0.87912 0.0
C523 C 0.51574 0.79522 0.84172 0.0
C524 C 0.53619 0.75306 0.7686 0.0
H525 H 0.29789 0.80612 0.66774 0.0
H526 H 0.34697 0.80837 0.71558 0.0
H527 H 0.53689 0.74422 0.72278 0.0
H528 H 0.63031 0.71234 0.8661 0.0
H529 H 0.58571 0.71177 0.81712 0.0
H530 H 0.40388 0.77958 0.80852 0.0
C531 C 0.36186 0.78564 0.70078 0.0
C532 C 0.50699 0.75156 0.74132 0.0
C533 C 0.33415 0.78462 0.67316 0.0
C534 C 0.5986 0.73576 0.85954 0.0
C535 C 0.57337 0.73559 0.83144 0.0
C536 C 0.43356 0.77211 0.78993 0.0
C537 C 0.40937 0.75841 0.70885 0.0
C538 C 0.44054 0.76012 0.73797 0.0
C539 C 0.5306 0.76494 0.82238 0.0
C540 C 0.49988 0.76345 0.79324 0.0
H541 H 0.41685 0.70697 0.64594 0.0
H542 H 0.46301 0.70787 0.69417 0.0
H543 H 0.35283 0.77652 0.76114 0.0
H544 H 0.52715 0.81869 0.8843 0.0
H545 H 0.48373 0.81856 0.83533 0.0
C546 C 0.35414 0.17966 0.84646 0.0
C547 C 0.3525 0.21276 0.86425 0.0
C548 C 0.3828 0.18118 0.81903 0.0
C549 C 0.50318 0.23716 0.77699 0.0
H550 H 0.42932 0.18231 0.71167 0.0
C551 C 0.5963 0.2534 0.65901 0.0
C552 C 0.59724 0.21975 0.64181 0.0
C553 C 0.57002 0.25244 0.68694 0.0
C554 C 0.45101 0.19738 0.7298 0.0
H555 H 0.37874 0.27363 0.86688 0.0
H556 H 0.42717 0.27648 0.81877 0.0
H557 H 0.37278 0.18172 0.75807 0.0
H558 H 0.57357 0.15849 0.64068 0.0
H559 H 0.52883 0.15667 0.68952 0.0
H560 H 0.58132 0.25292 0.74858 0.0
C561 C 0.40713 0.2492 0.82621 0.0
C562 C 0.41853 0.19709 0.75638 0.0
C563 C 0.37848 0.24769 0.85363 0.0
C564 C 0.57401 0.18482 0.65351 0.0
C565 C 0.54757 0.18389 0.68133 0.0
C566 C 0.53565 0.23749 0.75037 0.0
C567 C 0.4105 0.21584 0.80877 0.0
C568 C 0.44429 0.21689 0.78031 0.0
C569 C 0.54388 0.21785 0.69811 0.0
C570 C 0.51003 0.21747 0.72652 0.0
H571 H 0.33404 0.1524 0.8539 0.0
H572 H 0.38492 0.15488 0.80621 0.0
H573 H 0.52486 0.2522 0.79513 0.0
H574 H 0.61446 0.28063 0.65059 0.0
H575 H 0.5678 0.27911 0.69933 0.0
C576 C 0.09126 0.73502 0.3591 0.0
C577 C 0.07004 0.70765 0.37957 0.0
C578 C 0.06477 0.73557 0.33123 0.0
C579 C 0.91795 0.70684 0.29094 0.0
H580 H 0.02662 0.72113 0.22315 0.0
C581 C 0.81696 0.69445 0.17407 0.0
C582 C 0.84325 0.71917 0.15285 0.0
C583 C 0.8436 0.6931 0.20192 0.0
C584 C -0.00472 0.71768 0.24184 0.0
H585 H 0.00454 0.65932 0.38674 0.0
H586 H -0.04129 0.66016 0.33817 0.0
H587 H 0.07618 0.71855 0.27085 0.0
H588 H 0.91837 0.76208 0.14472 0.0
H589 H -0.0374 0.76089 0.19319 0.0
H590 H 0.83692 0.70655 0.26208 0.0
C591 C -0.00439 0.6813 0.34367 0.0
C592 C 0.02387 0.71609 0.26922 0.0
C593 C 0.02248 0.68051 0.3714 0.0
C594 C 0.89598 0.74305 0.16047 0.0
C595 C 0.92227 0.74187 0.18827 0.0
C596 C 0.88926 0.70873 0.26357 0.0
C597 C 0.01598 0.70903 0.32331 0.0
C598 C -0.0144 0.71062 0.29412 0.0
C599 C 0.89714 0.71652 0.20931 0.0
C600 C 0.9275 0.71424 0.2386 0.0
H601 H 0.12808 0.75616 0.36469 0.0
H602 H 0.08135 0.75743 0.31612 0.0
H603 H 0.88694 0.70313 0.30972 0.0
H604 H 0.77597 0.67593 0.16915 0.0
H605 H 0.82306 0.67301 0.21743 0.0
C606 C 0.93798 0.28687 0.36764 0.0
C607 C 0.87426 0.27373 0.37273 0.0
C608 C -0.03433 0.28439 0.34009 0.0
C609 C 0.92439 0.27472 0.26298 0.0
H610 H 0.10204 0.23853 0.255 0.0
C611 C 0.03079 0.23345 0.15254 0.0
C612 C 0.09422 0.24578 0.14586 0.0
C613 C 0.00637 0.2367 0.18058 0.0
C614 C 0.05268 0.24911 0.2569 0.0
H615 H 0.78933 0.24817 0.35274 0.0
H616 H 0.83793 0.24354 0.30454 0.0
H617 H 0.05365 0.24509 0.30311 0.0
H618 H 0.18199 0.27087 0.16365 0.0
H619 H 0.13893 0.27684 0.21291 0.0
H620 H 0.92323 0.27878 0.21687 0.0
C621 C 0.86627 0.25603 0.3219 0.0
C622 C 0.02493 0.25286 0.28444 0.0
C623 C 0.83859 0.25839 0.34953 0.0
C624 C 0.133 0.26105 0.1681 0.0
C625 C 0.10846 0.26426 0.19632 0.0
C626 C 0.95211 0.27103 0.23551 0.0
C627 C 0.9303 0.26876 0.31693 0.0
C628 C -0.03969 0.26547 0.28776 0.0
C629 C 0.04446 0.25264 0.20272 0.0
C630 C 0.01635 0.25785 0.23212 0.0
H631 H -0.03284 0.29828 0.38514 0.0
H632 H 0.01482 0.29481 0.33691 0.0
H633 H 0.87496 0.2852 0.26483 0.0
H634 H -0.00111 0.22238 0.13588 0.0
H635 H 0.95723 0.22697 0.18485 0.0
C636 C 0.00307 0.23531 0.86123 0.0
C637 C 0.02848 0.27038 0.87191 0.0
C638 C -0.02832 0.23405 0.83452 0.0
C639 C 0.95481 0.28752 0.76587 0.0
H640 H 0.79716 0.22684 0.75774 0.0
C641 C 0.80682 0.294 0.6617 0.0
C642 C 0.7891 0.25807 0.64968 0.0
C643 C 0.82865 0.29636 0.69017 0.0
C644 C 0.84132 0.24372 0.75965 0.0
H645 H 0.04208 0.33143 0.86251 0.0
H646 H -0.01351 0.32937 0.81611 0.0
H647 H 0.85294 0.22879 0.80427 0.0
H648 H 0.77541 0.19698 0.65879 0.0
H649 H 0.81453 0.201 0.70855 0.0
H650 H 0.94365 0.30227 0.72133 0.0
C651 C -0.00875 0.30275 0.82831 0.0
C652 C 0.87339 0.24477 0.78626 0.0
C653 C 0.02264 0.30402 0.85502 0.0
C654 C 0.78965 0.22497 0.66737 0.0
C655 C 0.81156 0.22734 0.69591 0.0
C656 C 0.92277 0.28652 0.73936 0.0
C657 C -0.03504 0.26781 0.81784 0.0
C658 C 0.93058 0.26666 0.78965 0.0
C659 C 0.8334 0.26287 0.70727 0.0
C660 C 0.86565 0.26465 0.73592 0.0
H661 H 0.00593 0.20895 0.87385 0.0
H662 H 0.95275 0.20657 0.82692 0.0
H663 H -0.00068 0.3041 0.76758 0.0
H664 H 0.80744 0.32004 0.64866 0.0
H665 H 0.84389 0.32429 0.69849 0.0
C666 C 0.10218 0.68519 0.67917 0.0
C667 C 0.08908 0.71373 0.65829 0.0
C668 C 0.06829 0.68464 0.70554 0.0
C669 C 0.91464 0.71951 0.7392 0.0
H670 H -0.0012 0.6909 0.81081 0.0
C671 C 0.79086 0.73384 0.85222 0.0
C672 C 0.80424 0.70494 0.87279 0.0
C673 C 0.82273 0.73394 0.82534 0.0
C674 C -0.02572 0.69848 0.79094 0.0
H675 H 0.03013 0.76446 0.64929 0.0
H676 H -0.02703 0.76419 0.69538 0.0
H677 H 0.06229 0.69413 0.76629 0.0
H678 H 0.86052 0.65284 0.88066 0.0
H679 H 0.91449 0.65253 0.83379 0.0
H680 H 0.82666 0.72406 0.76398 0.0
C681 C 0.0087 0.7418 0.69122 0.0
C682 C 0.0108 0.70036 0.76537 0.0
C683 C 0.04247 0.74233 0.6649 0.0
C684 C 0.84825 0.67531 0.86531 0.0
C685 C 0.88012 0.67547 0.83854 0.0
C686 C 0.87813 0.7177 0.76481 0.0
C687 C 0.02032 0.7126 0.71173 0.0
C688 C -0.01847 0.71089 0.73912 0.0
C689 C 0.86897 0.70524 0.81845 0.0
C690 C 0.90742 0.70706 0.79102 0.0
H691 H 0.138 0.66287 0.67497 0.0
H692 H 0.07838 0.66156 0.7207 0.0
H693 H 0.89009 0.72707 0.71934 0.0
H694 H 0.75691 0.75693 0.85719 0.0
H695 H 0.81295 0.75736 0.81043 0.0
loop_
_geom_bond_atom_site_label_1
_geom_bond_atom_site_label_2
_geom_bond_distance
_geom_bond_site_symmetry_2
_ccdc_geom_bond_type
Cd0 N3 2.334 . S
Cd0 N29 2.304 1_554 S
Cd0 O36 2.268 . S
Cd0 O39 2.273 . S
Cd0 O40 2.417 . S
Cd0 O41 2.331 . S
Cd1 N16 2.304 1_554 S
Cd1 N20 2.334 . S
Cd1 O37 2.273 . S
Cd1 O38 2.268 . S
Cd1 O42 2.417 . S
Cd1 O43 2.331 . S
C2 N3 1.332 . S
C2 C6 1.381 . S
C2 H8 0.931 . S
N3 Cd0 2.334 . S
N3 C2 1.332 . S
N3 C7 1.328 . S
C4 C5 1.396 . S
C4 C7 1.378 . S
C4 H46 0.931 . S
C5 C4 1.396 . S
C5 C6 1.382 . S
C6 C2 1.381 . S
C6 C5 1.382 . S
C6 H47 0.930 . S
C7 N3 1.328 . S
C7 C4 1.378 . S
C7 H9 0.930 . S
H8 C2 0.931 . S
H9 C7 0.930 . S
C10 O36 1.238 . S
C10 O37 1.253 . S
C11 C12 1.379 . S
C11 N16 1.337 . S
C11 H17 0.929 . S
C12 C11 1.379 . S
C12 C13 1.380 . S
C12 H48 0.929 . S
C13 C12 1.380 . S
C13 C14 1.399 . S
C14 C13 1.399 . S
C14 C15 1.376 . S
C14 H49 0.931 . S
C15 C14 1.376 . S
C15 N16 1.338 . S
C15 H18 0.930 . S
N16 Cd1 2.304 1_556 S
N16 C11 1.337 . S
N16 C15 1.338 . S
H17 C11 0.929 . S
H18 C15 0.930 . S
C19 N20 1.332 . S
C19 C23 1.381 . S
C19 H25 0.931 . S
N20 Cd1 2.334 . S
N20 C19 1.332 . S
N20 C24 1.328 . S
C21 C22 1.396 . S
C21 C24 1.378 . S
C21 H50 0.931 . S
C22 C21 1.396 . S
C22 C23 1.382 . S
C23 C19 1.381 . S
C23 C22 1.382 . S
C23 H51 0.930 . S
C24 N20 1.328 . S
C24 C21 1.378 . S
C24 H26 0.930 . S
H25 C19 0.931 . S
H26 C24 0.930 . S
C27 O38 1.238 . S
C27 O39 1.253 . S
C28 O40 1.239 . S
C28 O41 1.231 . S
N29 Cd0 2.304 1_556 S
N29 C30 1.337 . S
N29 C34 1.338 . S
C30 N29 1.337 . S
C30 C31 1.379 . S
C30 H44 0.929 . S
C31 C30 1.379 . S
C31 C32 1.380 . S
C31 H52 0.929 . S
C32 C31 1.380 . S
C32 C33 1.399 . S
C33 C32 1.399 . S
C33 C34 1.376 . S
C33 H53 0.931 . S
C34 N29 1.338 . S
C34 C33 1.376 . S
C34 H45 0.930 . S
C35 O42 1.239 . S
C35 O43 1.231 . S
O36 Cd0 2.268 . S
O36 C10 1.238 . S
O37 Cd1 2.273 . S
O37 C10 1.253 . S
O38 Cd1 2.268 . S
O38 C27 1.238 . S
O39 Cd0 2.273 . S
O39 C27 1.253 . S
O40 Cd0 2.417 . S
O40 C28 1.239 . S
O41 Cd0 2.331 . S
O41 C28 1.231 . S
O42 Cd1 2.417 . S
O42 C35 1.239 . S
O43 Cd1 2.331 . S
O43 C35 1.231 . S
H44 C30 0.929 . S
H45 C34 0.930 . S
H46 C4 0.931 . S
H47 C6 0.930 . S
H48 C12 0.929 . S
H49 C14 0.931 . S
H50 C21 0.931 . S
H51 C23 0.930 . S
H52 C31 0.929 . S
H53 C33 0.931 . S
Cd54 N57 2.334 . S
Cd54 N83 2.304 1_554 S
Cd54 O90 2.268 . S
Cd54 O93 2.273 . S
Cd54 O94 2.417 . S
Cd54 O95 2.331 . S
Cd55 N70 2.304 1_554 S
Cd55 N74 2.334 . S
Cd55 O91 2.273 . S
Cd55 O92 2.268 . S
Cd55 O96 2.417 . S
Cd55 O97 2.331 . S
C56 N57 1.332 . S
C56 C60 1.381 . S
C56 H62 0.931 . S
N57 Cd54 2.334 . S
N57 C56 1.332 . S
N57 C61 1.328 . S
C58 C59 1.396 . S
C58 C61 1.378 . S
C58 H100 0.931 . S
C59 C58 1.396 . S
C59 C60 1.382 . S
C60 C56 1.381 . S
C60 C59 1.382 . S
C60 H101 0.930 . S
C61 N57 1.328 . S
C61 C58 1.378 . S
C61 H63 0.930 . S
H62 C56 0.931 . S
H63 C61 0.930 . S
C64 O90 1.238 . S
C64 O91 1.253 . S
C65 C66 1.379 . S
C65 N70 1.337 . S
C65 H71 0.929 . S
C66 C65 1.379 . S
C66 C67 1.380 . S
C66 H102 0.929 . S
C67 C66 1.380 . S
C67 C68 1.399 . S
C68 C67 1.399 . S
C68 C69 1.376 . S
C68 H103 0.931 . S
C69 C68 1.376 . S
C69 N70 1.338 . S
C69 H72 0.930 . S
N70 Cd55 2.304 1_556 S
N70 C65 1.337 . S
N70 C69 1.338 . S
H71 C65 0.929 . S
H72 C69 0.930 . S
C73 N74 1.332 . S
C73 C77 1.381 . S
C73 H79 0.931 . S
N74 Cd55 2.334 . S
N74 C73 1.332 . S
N74 C78 1.328 . S
C75 C76 1.396 . S
C75 C78 1.378 . S
C75 H104 0.931 . S
C76 C75 1.396 . S
C76 C77 1.382 . S
C77 C73 1.381 . S
C77 C76 1.382 . S
C77 H105 0.930 . S
C78 N74 1.328 . S
C78 C75 1.378 . S
C78 H80 0.930 . S
H79 C73 0.931 . S
H80 C78 0.930 . S
C81 O92 1.238 . S
C81 O93 1.253 . S
C82 O94 1.239 . S
C82 O95 1.231 . S
N83 Cd54 2.304 1_556 S
N83 C84 1.337 . S
N83 C88 1.338 . S
C84 N83 1.337 . S
C84 C85 1.379 . S
C84 H98 0.929 . S
C85 C84 1.379 . S
C85 C86 1.380 . S
C85 H106 0.929 . S
C86 C85 1.380 . S
C86 C87 1.399 . S
C87 C86 1.399 . S
C87 C88 1.376 . S
C87 H107 0.931 . S
C88 N83 1.338 . S
C88 C87 1.376 . S
C88 H99 0.930 . S
C89 O96 1.239 . S
C89 O97 1.231 . S
O90 Cd54 2.268 . S
O90 C64 1.238 . S
O91 Cd55 2.273 . S
O91 C64 1.253 . S
O92 Cd55 2.268 . S
O92 C81 1.238 . S
O93 Cd54 2.273 . S
O93 C81 1.253 . S
O94 Cd54 2.417 . S
O94 C82 1.239 . S
O95 Cd54 2.331 . S
O95 C82 1.231 . S
O96 Cd55 2.417 . S
O96 C89 1.239 . S
O97 Cd55 2.331 . S
O97 C89 1.231 . S
H98 C84 0.929 . S
H99 C88 0.930 . S
H100 C58 0.931 . S
H101 C60 0.930 . S
H102 C66 0.929 . S
H103 C68 0.931 . S
H104 C75 0.931 . S
H105 C77 0.930 . S
H106 C85 0.929 . S
H107 C87 0.931 . S
Cd108 N111 2.334 . S
Cd108 N137 2.304 . S
Cd108 O144 2.268 . S
Cd108 O147 2.273 . S
Cd108 O148 2.417 . S
Cd108 O149 2.330 . S
Cd109 N124 2.304 . S
Cd109 N128 2.334 . S
Cd109 O145 2.273 . S
Cd109 O146 2.268 . S
Cd109 O150 2.417 . S
Cd109 O151 2.330 . S
C110 N111 1.332 . S
C110 C114 1.381 . S
C110 H116 0.931 . S
N111 Cd108 2.334 . S
N111 C110 1.332 . S
N111 C115 1.328 . S
C112 C113 1.396 . S
C112 C115 1.378 . S
C112 H154 0.931 . S
C113 C112 1.396 . S
C113 C114 1.382 . S
C114 C110 1.381 . S
C114 C113 1.382 . S
C114 H155 0.930 . S
C115 N111 1.328 . S
C115 C112 1.378 . S
C115 H117 0.930 . S
H116 C110 0.931 . S
H117 C115 0.930 . S
C118 O144 1.238 . S
C118 O145 1.253 . S
C119 C120 1.379 . S
C119 N124 1.337 . S
C119 H125 0.929 . S
C120 C119 1.379 . S
C120 C121 1.380 . S
C120 H156 0.929 . S
C121 C120 1.380 . S
C121 C122 1.399 . S
C122 C121 1.399 . S
C122 C123 1.376 . S
C122 H157 0.931 . S
C123 C122 1.376 . S
C123 N124 1.338 . S
C123 H126 0.930 . S
N124 Cd109 2.304 . S
N124 C119 1.337 . S
N124 C123 1.338 . S
H125 C119 0.929 . S
H126 C123 0.930 . S
C127 N128 1.332 . S
C127 C131 1.381 . S
C127 H133 0.931 . S
N128 Cd109 2.334 . S
N128 C127 1.332 . S
N128 C132 1.328 . S
C129 C130 1.396 . S
C129 C132 1.378 . S
C129 H158 0.931 . S
C130 C129 1.396 . S
C130 C131 1.382 . S
C131 C127 1.381 . S
C131 C130 1.382 . S
C131 H159 0.930 . S
C132 N128 1.328 . S
C132 C129 1.378 . S
C132 H134 0.930 . S
H133 C127 0.931 . S
H134 C132 0.930 . S
C135 O146 1.238 . S
C135 O147 1.253 . S
C136 O148 1.239 . S
C136 O149 1.230 . S
N137 Cd108 2.304 . S
N137 C138 1.337 . S
N137 C142 1.338 . S
C138 N137 1.337 . S
C138 C139 1.379 . S
C138 H152 0.929 . S
C139 C138 1.379 . S
C139 C140 1.380 . S
C139 H160 0.929 . S
C140 C139 1.380 . S
C140 C141 1.399 . S
C141 C140 1.399 . S
C141 C142 1.376 . S
C141 H161 0.931 . S
C142 N137 1.338 . S
C142 C141 1.376 . S
C142 H153 0.930 . S
C143 O150 1.239 . S
C143 O151 1.230 . S
O144 Cd108 2.268 . S
O144 C118 1.238 . S
O145 Cd109 2.273 . S
O145 C118 1.253 . S
O146 Cd109 2.268 . S
O146 C135 1.238 . S
O147 Cd108 2.273 . S
O147 C135 1.253 . S
O148 Cd108 2.417 . S
O148 C136 1.239 . S
O149 Cd108 2.330 . S
O149 C136 1.230 . S
O150 Cd109 2.417 . S
O150 C143 1.239 . S
O151 Cd109 2.330 . S
O151 C143 1.230 . S
H152 C138 0.929 . S
H153 C142 0.930 . S
H154 C112 0.931 . S
H155 C114 0.930 . S
H156 C120 0.929 . S
H157 C122 0.931 . S
H158 C129 0.931 . S
H159 C131 0.930 . S
H160 C139 0.929 . S
H161 C141 0.931 . S
Cd162 N165 2.334 . S
Cd162 N191 2.304 . S
Cd162 O198 2.268 . S
Cd162 O201 2.273 . S
Cd162 O202 2.417 . S
Cd162 O203 2.330 . S
Cd163 N178 2.304 . S
Cd163 N182 2.334 . S
Cd163 O199 2.273 . S
Cd163 O200 2.268 . S
Cd163 O204 2.417 . S
Cd163 O205 2.330 . S
C164 N165 1.332 . S
C164 C168 1.381 . S
C164 H170 0.931 . S
N165 Cd162 2.334 . S
N165 C164 1.332 . S
N165 C169 1.328 . S
C166 C167 1.396 . S
C166 C169 1.378 . S
C166 H208 0.931 . S
C167 C166 1.396 . S
C167 C168 1.382 . S
C168 C164 1.381 . S
C168 C167 1.382 . S
C168 H209 0.930 . S
C169 N165 1.328 . S
C169 C166 1.378 . S
C169 H171 0.930 . S
H170 C164 0.931 . S
H171 C169 0.930 . S
C172 O198 1.238 . S
C172 O199 1.253 . S
C173 C174 1.379 . S
C173 N178 1.337 . S
C173 H179 0.929 . S
C174 C173 1.379 . S
C174 C175 1.380 . S
C174 H210 0.929 . S
C175 C174 1.380 . S
C175 C176 1.399 . S
C176 C175 1.399 . S
C176 C177 1.376 . S
C176 H211 0.931 . S
C177 C176 1.376 . S
C177 N178 1.338 . S
C177 H180 0.930 . S
N178 Cd163 2.304 . S
N178 C173 1.337 . S
N178 C177 1.338 . S
H179 C173 0.929 . S
H180 C177 0.930 . S
C181 N182 1.332 . S
C181 C185 1.381 . S
C181 H187 0.931 . S
N182 Cd163 2.334 . S
N182 C181 1.332 . S
N182 C186 1.328 . S
C183 C184 1.396 . S
C183 C186 1.378 . S
C183 H212 0.931 . S
C184 C183 1.396 . S
C184 C185 1.382 . S
C185 C181 1.381 . S
C185 C184 1.382 . S
C185 H213 0.930 . S
C186 N182 1.328 . S
C186 C183 1.378 . S
C186 H188 0.930 . S
H187 C181 0.931 . S
H188 C186 0.930 . S
C189 O200 1.238 . S
C189 O201 1.253 . S
C190 O202 1.239 . S
C190 O203 1.230 . S
N191 Cd162 2.304 . S
N191 C192 1.337 . S
N191 C196 1.338 . S
C192 N191 1.337 . S
C192 C193 1.379 . S
C192 H206 0.929 . S
C193 C192 1.379 . S
C193 C194 1.380 . S
C193 H214 0.929 . S
C194 C193 1.380 . S
C194 C195 1.399 . S
C195 C194 1.399 . S
C195 C196 1.376 . S
C195 H215 0.931 . S
C196 N191 1.338 . S
C196 C195 1.376 . S
C196 H207 0.930 . S
C197 O204 1.239 . S
C197 O205 1.230 . S
O198 Cd162 2.268 . S
O198 C172 1.238 . S
O199 Cd163 2.273 . S
O199 C172 1.253 . S
O200 Cd163 2.268 . S
O200 C189 1.238 . S
O201 Cd162 2.273 . S
O201 C189 1.253 . S
O202 Cd162 2.417 . S
O202 C190 1.239 . S
O203 Cd162 2.330 . S
O203 C190 1.230 . S
O204 Cd163 2.417 . S
O204 C197 1.239 . S
O205 Cd163 2.330 . S
O205 C197 1.230 . S
H206 C192 0.929 . S
H207 C196 0.930 . S
H208 C166 0.931 . S
H209 C168 0.930 . S
H210 C174 0.929 . S
H211 C176 0.931 . S
H212 C183 0.931 . S
H213 C185 0.930 . S
H214 C193 0.929 . S
H215 C195 0.931 . S
C216 C217 1.349 1_556 S
C216 C218 1.327 . S
C216 H241 0.950 . S
C217 C216 1.349 1_554 S
C217 C233 1.349 . S
C218 C216 1.327 . S
C218 C237 1.429 1_556 S
C218 H242 0.950 . S
C219 C236 1.574 . S
C219 C238 1.368 . S
C219 H243 0.949 . S
H220 C224 0.949 . S
C221 C222 1.349 . S
C221 C223 1.327 1_455 S
C221 H244 0.950 . S
C222 C221 1.349 . S
C222 C234 1.349 1_454 S
C223 C221 1.327 1_655 S
C223 C239 1.429 . S
C223 H245 0.950 . S
C224 H220 0.949 . S
C224 C232 1.574 . S
C224 C240 1.368 1_556 S
H225 C233 0.950 . S
H226 C231 0.950 . S
H227 C232 0.949 . S
H228 C234 0.950 1_455 S
H229 C235 0.950 . S
H230 C236 0.949 . S
C231 H226 0.950 . S
C231 C233 1.327 . S
C231 C237 1.429 . S
C232 C224 1.574 . S
C232 H227 0.949 . S
C232 C238 1.368 1_556 S
C233 C217 1.349 . S
C233 H225 0.950 . S
C233 C231 1.327 . S
C234 C222 1.349 1_656 S
C234 H228 0.950 1_655 S
C234 C235 1.327 . S
C235 H229 0.950 . S
C235 C234 1.327 . S
C235 C239 1.429 1_556 S
C236 C219 1.574 . S
C236 H230 0.949 . S
C236 C240 1.368 . S
C237 C218 1.429 1_554 S
C237 C231 1.429 . S
C237 C238 1.523 . S
C238 C219 1.368 . S
C238 C232 1.368 1_554 S
C238 C237 1.523 . S
C239 C223 1.429 . S
C239 C235 1.429 1_554 S
C239 C240 1.523 . S
C240 C224 1.368 1_554 S
C240 C236 1.368 . S
C240 C239 1.523 . S
H241 C216 0.950 . S
H242 C218 0.950 . S
H243 C219 0.949 . S
H244 C221 0.950 . S
H245 C223 0.950 . S
C246 C247 1.349 1_556 S
C246 C248 1.327 1_655 S
C246 H271 0.950 . S
C247 C246 1.349 1_554 S
C247 C263 1.349 1_655 S
C248 C246 1.327 1_455 S
C248 C267 1.429 1_556 S
C248 H272 0.950 . S
C249 C266 1.574 . S
C249 C268 1.368 . S
C249 H273 0.949 . S
H250 C254 0.949 . S
C251 C252 1.349 . S
C251 C253 1.327 . S
C251 H274 0.950 . S
C252 C251 1.349 . S
C252 C264 1.349 1_554 S
C253 C251 1.327 . S
C253 C269 1.429 . S
C253 H275 0.950 . S
C254 H250 0.949 . S
C254 C262 1.574 . S
C254 C270 1.368 1_556 S
H255 C263 0.950 1_655 S
H256 C261 0.950 . S
H257 C262 0.949 . S
H258 C264 0.950 . S
H259 C265 0.950 . S
H260 C266 0.949 . S
C261 H256 0.950 . S
C261 C263 1.327 . S
C261 C267 1.429 . S
C262 C254 1.574 . S
C262 H257 0.949 . S
C262 C268 1.368 1_556 S
C263 C247 1.349 1_455 S
C263 H255 0.950 1_455 S
C263 C261 1.327 . S
C264 C252 1.349 1_556 S
C264 H258 0.950 . S
C264 C265 1.327 . S
C265 H259 0.950 . S
C265 C264 1.327 . S
C265 C269 1.429 1_556 S
C266 C249 1.574 . S
C266 H260 0.949 . S
C266 C270 1.368 . S
C267 C248 1.429 1_554 S
C267 C261 1.429 . S
C267 C268 1.523 . S
C268 C249 1.368 . S
C268 C262 1.368 1_554 S
C268 C267 1.523 . S
C269 C253 1.429 . S
C269 C265 1.429 1_554 S
C269 C270 1.523 . S
C270 C254 1.368 1_554 S
C270 C266 1.368 . S
C270 C269 1.523 . S
H271 C246 0.950 . S
H272 C248 0.950 . S
H273 C249 0.949 . S
H274 C251 0.950 . S
H275 C253 0.950 . S
C276 C277 1.349 . S
C276 C278 1.327 . S
C276 H301 0.950 . S
C277 C276 1.349 . S
C277 C293 1.349 . S
C278 C276 1.327 . S
C278 C297 1.429 . S
C278 H302 0.950 . S
C279 C296 1.574 . S
C279 C298 1.368 . S
C279 H303 0.949 . S
H280 C284 0.949 . S
C281 C282 1.349 . S
C281 C283 1.327 1_455 S
C281 H304 0.950 . S
C282 C281 1.349 . S
C282 C294 1.349 1_455 S
C283 C281 1.327 1_655 S
C283 C299 1.429 . S
C283 H305 0.950 . S
C284 H280 0.949 . S
C284 C292 1.574 . S
C284 C300 1.368 . S
H285 C293 0.950 . S
H286 C291 0.950 . S
H287 C292 0.949 . S
H288 C294 0.950 1_455 S
H289 C295 0.950 . S
H290 C296 0.949 . S
C291 H286 0.950 . S
C291 C293 1.327 . S
C291 C297 1.429 . S
C292 C284 1.574 . S
C292 H287 0.949 . S
C292 C298 1.368 . S
C293 C277 1.349 . S
C293 H285 0.950 . S
C293 C291 1.327 . S
C294 C282 1.349 1_655 S
C294 H288 0.950 1_655 S
C294 C295 1.327 . S
C295 H289 0.950 . S
C295 C294 1.327 . S
C295 C299 1.429 . S
C296 C279 1.574 . S
C296 H290 0.949 . S
C296 C300 1.368 . S
C297 C278 1.429 . S
C297 C291 1.429 . S
C297 C298 1.523 . S
C298 C279 1.368 . S
C298 C292 1.368 . S
C298 C297 1.523 . S
C299 C283 1.429 . S
C299 C295 1.429 . S
C299 C300 1.523 . S
C300 C284 1.368 . S
C300 C296 1.368 . S
C300 C299 1.523 . S
H301 C276 0.950 . S
H302 C278 0.950 . S
H303 C279 0.949 . S
H304 C281 0.950 . S
H305 C283 0.950 . S
C306 C307 1.349 . S
C306 C308 1.327 1_655 S
C306 H331 0.950 . S
C307 C306 1.349 . S
C307 C323 1.349 1_655 S
C308 C306 1.327 1_455 S
C308 C327 1.429 . S
C308 H332 0.950 . S
C309 C326 1.574 . S
C309 C328 1.368 . S
C309 H333 0.949 . S
H310 C314 0.949 . S
C311 C312 1.349 . S
C311 C313 1.327 . S
C311 H334 0.950 . S
C312 C311 1.349 . S
C312 C324 1.349 . S
C313 C311 1.327 . S
C313 C329 1.429 . S
C313 H335 0.950 . S
C314 H310 0.949 . S
C314 C322 1.574 . S
C314 C330 1.368 . S
H315 C323 0.950 1_655 S
H316 C321 0.950 . S
H317 C322 0.949 . S
H318 C324 0.950 . S
H319 C325 0.950 . S
H320 C326 0.949 . S
C321 H316 0.950 . S
C321 C323 1.327 . S
C321 C327 1.429 . S
C322 C314 1.574 . S
C322 H317 0.949 . S
C322 C328 1.368 . S
C323 C307 1.349 1_455 S
C323 H315 0.950 1_455 S
C323 C321 1.327 . S
C324 C312 1.349 . S
C324 H318 0.950 . S
C324 C325 1.327 . S
C325 H319 0.950 . S
C325 C324 1.327 . S
C325 C329 1.429 . S
C326 C309 1.574 . S
C326 H320 0.949 . S
C326 C330 1.368 . S
C327 C308 1.429 . S
C327 C321 1.429 . S
C327 C328 1.523 . S
C328 C309 1.368 . S
C328 C322 1.368 . S
C328 C327 1.523 . S
C329 C313 1.429 . S
C329 C325 1.429 . S
C329 C330 1.523 . S
C330 C314 1.368 . S
C330 C326 1.368 . S
C330 C329 1.523 . S
H331 C306 0.950 . S
H332 C308 0.950 . S
H333 C309 0.949 . S
H334 C311 0.950 . S
H335 C313 0.950 . S
C336 C337 1.349 1_556 S
C336 C338 1.327 . S
C336 H361 0.950 . S
C337 C336 1.349 1_554 S
C337 C353 1.349 . S
C338 C336 1.327 . S
C338 C357 1.429 1_556 S
C338 H362 0.950 . S
C339 C356 1.574 . S
C339 C358 1.368 . S
C339 H363 0.949 . S
H340 C344 0.949 . S
C341 C342 1.349 . S
C341 C343 1.327 . S
C341 H364 0.950 . S
C342 C341 1.349 . S
C342 C354 1.349 1_554 S
C343 C341 1.327 . S
C343 C359 1.429 . S
C343 H365 0.950 . S
C344 H340 0.949 . S
C344 C352 1.574 . S
C344 C360 1.368 1_556 S
H345 C353 0.950 . S
H346 C351 0.950 . S
H347 C352 0.949 . S
H348 C354 0.950 . S
H349 C355 0.950 . S
H350 C356 0.949 . S
C351 H346 0.950 . S
C351 C353 1.327 . S
C351 C357 1.429 . S
C352 C344 1.574 . S
C352 H347 0.949 . S
C352 C358 1.368 1_556 S
C353 C337 1.349 . S
C353 H345 0.950 . S
C353 C351 1.327 . S
C354 C342 1.349 1_556 S
C354 H348 0.950 . S
C354 C355 1.327 . S
C355 H349 0.950 . S
C355 C354 1.327 . S
C355 C359 1.429 1_556 S
C356 C339 1.574 . S
C356 H350 0.949 . S
C356 C360 1.368 . S
C357 C338 1.429 1_554 S
C357 C351 1.429 . S
C357 C358 1.523 . S
C358 C339 1.368 . S
C358 C352 1.368 1_554 S
C358 C357 1.523 . S
C359 C343 1.429 . S
C359 C355 1.429 1_554 S
C359 C360 1.523 . S
C360 C344 1.368 1_554 S
C360 C356 1.368 . S
C360 C359 1.523 . S
H361 C336 0.950 . S
H362 C338 0.950 . S
H363 C339 0.949 . S
H364 C341 0.950 . S
H365 C343 0.950 . S
C366 C367 1.349 . S
C366 C368 1.327 . S
C366 H391 0.950 . S
C367 C366 1.349 . S
C367 C383 1.349 . S
C368 C366 1.327 . S
C368 C387 1.429 . S
C368 H392 0.950 . S
C369 C386 1.574 . S
C369 C388 1.368 . S
C369 H393 0.949 . S
H370 C374 0.949 . S
C371 C372 1.349 . S
C371 C373 1.327 . S
C371 H394 0.950 . S
C372 C371 1.349 . S
C372 C384 1.349 . S
C373 C371 1.327 . S
C373 C389 1.429 . S
C373 H395 0.950 . S
C374 H370 0.949 . S
C374 C382 1.574 . S
C374 C390 1.368 . S
H375 C383 0.950 . S
H376 C381 0.950 . S
H377 C382 0.949 . S
H378 C384 0.950 . S
H379 C385 0.950 . S
H380 C386 0.949 . S
C381 H376 0.950 . S
C381 C383 1.327 . S
C381 C387 1.429 . S
C382 C374 1.574 . S
C382 H377 0.949 . S
C382 C388 1.368 . S
C383 C367 1.349 . S
C383 H375 0.950 . S
C383 C381 1.327 . S
C384 C372 1.349 . S
C384 H378 0.950 . S
C384 C385 1.327 . S
C385 H379 0.950 . S
C385 C384 1.327 . S
C385 C389 1.429 . S
C386 C369 1.574 . S
C386 H380 0.949 . S
C386 C390 1.368 . S
C387 C368 1.429 . S
C387 C381 1.429 . S
C387 C388 1.523 . S
C388 C369 1.368 . S
C388 C382 1.368 . S
C388 C387 1.523 . S
C389 C373 1.429 . S
C389 C385 1.429 . S
C389 C390 1.523 . S
C390 C374 1.368 . S
C390 C386 1.368 . S
C390 C389 1.523 . S
H391 C366 0.950 . S
H392 C368 0.950 . S
H393 C369 0.949 . S
H394 C371 0.950 . S
H395 C373 0.950 . S
C396 C397 1.349 1_556 S
C396 C398 1.327 . S
C396 H421 0.950 . S
C397 C396 1.349 1_554 S
C397 C413 1.349 . S
C398 C396 1.327 . S
C398 C417 1.429 1_556 S
C398 H422 0.950 . S
C399 C416 1.574 1_545 S
C399 C418 1.368 1_655 S
C399 H423 0.949 . S
H400 C404 0.949 . S
C401 C402 1.349 . S
C401 C403 1.327 . S
C401 H424 0.950 . S
C402 C401 1.349 . S
C402 C414 1.349 1_554 S
C403 C401 1.327 . S
C403 C419 1.429 . S
C403 H425 0.950 . S
C404 H400 0.949 . S
C404 C412 1.574 1_565 S
C404 C420 1.368 1_456 S
H405 C413 0.950 . S
H406 C411 0.950 . S
H407 C412 0.949 . S
H408 C414 0.950 . S
H409 C415 0.950 . S
H410 C416 0.949 . S
C411 H406 0.950 . S
C411 C413 1.327 . S
C411 C417 1.429 . S
C412 C404 1.574 1_545 S
C412 H407 0.949 . S
C412 C418 1.368 1_556 S
C413 C397 1.349 . S
C413 H405 0.950 . S
C413 C411 1.327 . S
C414 C402 1.349 1_556 S
C414 H408 0.950 . S
C414 C415 1.327 . S
C415 H409 0.950 . S
C415 C414 1.327 . S
C415 C419 1.429 1_556 S
C416 C399 1.574 1_565 S
C416 H410 0.949 . S
C416 C420 1.368 . S
C417 C398 1.429 1_554 S
C417 C411 1.429 . S
C417 C418 1.523 . S
C418 C399 1.368 1_455 S
C418 C412 1.368 1_554 S
C418 C417 1.523 . S
C419 C403 1.429 . S
C419 C415 1.429 1_554 S
C419 C420 1.523 . S
C420 C404 1.368 1_654 S
C420 C416 1.368 . S
C420 C419 1.523 . S
H421 C396 0.950 . S
H422 C398 0.950 . S
H423 C399 0.949 . S
H424 C401 0.950 . S
H425 C403 0.950 . S
C426 C427 1.349 . S
C426 C428 1.327 . S
C426 H451 0.950 . S
C427 C426 1.349 . S
C427 C443 1.349 . S
C428 C426 1.327 . S
C428 C447 1.429 . S
C428 H452 0.950 . S
C429 C446 1.574 1_545 S
C429 C448 1.368 1_455 S
C429 H453 0.949 . S
H430 C434 0.949 . S
C431 C432 1.349 . S
C431 C433 1.327 . S
C431 H454 0.950 . S
C432 C431 1.349 . S
C432 C444 1.349 . S
C433 C431 1.327 . S
C433 C449 1.429 . S
C433 H455 0.950 . S
C434 H430 0.949 . S
C434 C442 1.574 1_565 S
C434 C450 1.368 1_655 S
H435 C443 0.950 . S
H436 C441 0.950 . S
H437 C442 0.949 . S
H438 C444 0.950 . S
H439 C445 0.950 . S
H440 C446 0.949 . S
C441 H436 0.950 . S
C441 C443 1.327 . S
C441 C447 1.429 . S
C442 C434 1.574 1_545 S
C442 H437 0.949 . S
C442 C448 1.368 . S
C443 C427 1.349 . S
C443 H435 0.950 . S
C443 C441 1.327 . S
C444 C432 1.349 . S
C444 H438 0.950 . S
C444 C445 1.327 . S
C445 H439 0.950 . S
C445 C444 1.327 . S
C445 C449 1.429 . S
C446 C429 1.574 1_565 S
C446 H440 0.949 . S
C446 C450 1.368 . S
C447 C428 1.429 . S
C447 C441 1.429 . S
C447 C448 1.523 . S
C448 C429 1.368 1_655 S
C448 C442 1.368 . S
C448 C447 1.523 . S
C449 C433 1.429 . S
C449 C445 1.429 . S
C449 C450 1.523 . S
C450 C434 1.368 1_455 S
C450 C446 1.368 . S
C450 C449 1.523 . S
H451 C426 0.950 . S
H452 C428 0.950 . S
H453 C429 0.949 . S
H454 C431 0.950 . S
H455 C433 0.950 . S
C456 C457 1.349 . S
C456 C458 1.327 . S
C456 H481 0.950 . S
C457 C456 1.349 . S
C457 C473 1.349 . S
C458 C456 1.327 . S
C458 C477 1.429 . S
C458 H482 0.950 . S
C459 C476 1.574 . S
C459 C478 1.368 . S
C459 H483 0.949 . S
H460 C464 0.949 . S
C461 C462 1.349 . S
C461 C463 1.327 . S
C461 H484 0.950 . S
C462 C461 1.349 . S
C462 C474 1.349 . S
C463 C461 1.327 . S
C463 C479 1.429 . S
C463 H485 0.950 . S
C464 H460 0.949 . S
C464 C472 1.574 . S
C464 C480 1.368 . S
H465 C473 0.950 . S
H466 C471 0.950 . S
H467 C472 0.949 . S
H468 C474 0.950 . S
H469 C475 0.950 . S
H470 C476 0.949 . S
C471 H466 0.950 . S
C471 C473 1.327 . S
C471 C477 1.429 . S
C472 C464 1.574 . S
C472 H467 0.949 . S
C472 C478 1.368 . S
C473 C457 1.349 . S
C473 H465 0.950 . S
C473 C471 1.327 . S
C474 C462 1.349 . S
C474 H468 0.950 . S
C474 C475 1.327 . S
C475 H469 0.950 . S
C475 C474 1.327 . S
C475 C479 1.429 . S
C476 C459 1.574 . S
C476 H470 0.949 . S
C476 C480 1.368 . S
C477 C458 1.429 . S
C477 C471 1.429 . S
C477 C478 1.523 . S
C478 C459 1.368 . S
C478 C472 1.368 . S
C478 C477 1.523 . S
C479 C463 1.429 . S
C479 C475 1.429 . S
C479 C480 1.523 . S
C480 C464 1.368 . S
C480 C476 1.368 . S
C480 C479 1.523 . S
H481 C456 0.950 . S
H482 C458 0.950 . S
H483 C459 0.949 . S
H484 C461 0.950 . S
H485 C463 0.950 . S
C486 C487 1.349 . S
C486 C488 1.327 . S
C486 H511 0.950 . S
C487 C486 1.349 . S
C487 C503 1.349 . S
C488 C486 1.327 . S
C488 C507 1.429 . S
C488 H512 0.950 . S
C489 C506 1.574 . S
C489 C508 1.368 . S
C489 H513 0.949 . S
H490 C494 0.949 . S
C491 C492 1.349 . S
C491 C493 1.327 . S
C491 H514 0.950 . S
C492 C491 1.349 . S
C492 C504 1.349 . S
C493 C491 1.327 . S
C493 C509 1.429 . S
C493 H515 0.950 . S
C494 H490 0.949 . S
C494 C502 1.574 . S
C494 C510 1.368 . S
H495 C503 0.950 . S
H496 C501 0.950 . S
H497 C502 0.949 . S
H498 C504 0.950 . S
H499 C505 0.950 . S
H500 C506 0.949 . S
C501 H496 0.950 . S
C501 C503 1.327 . S
C501 C507 1.429 . S
C502 C494 1.574 . S
C502 H497 0.949 . S
C502 C508 1.368 . S
C503 C487 1.349 . S
C503 H495 0.950 . S
C503 C501 1.327 . S
C504 C492 1.349 . S
C504 H498 0.950 . S
C504 C505 1.327 . S
C505 H499 0.950 . S
C505 C504 1.327 . S
C505 C509 1.429 . S
C506 C489 1.574 . S
C506 H500 0.949 . S
C506 C510 1.368 . S
C507 C488 1.429 . S
C507 C501 1.429 . S
C507 C508 1.523 . S
C508 C489 1.368 . S
C508 C502 1.368 . S
C508 C507 1.523 . S
C509 C493 1.429 . S
C509 C505 1.429 . S
C509 C510 1.523 . S
C510 C494 1.368 . S
C510 C506 1.368 . S
C510 C509 1.523 . S
H511 C486 0.950 . S
H512 C488 0.950 . S
H513 C489 0.949 . S
H514 C491 0.950 . S
H515 C493 0.950 . S
C516 C517 1.349 . S
C516 C518 1.327 . S
C516 H541 0.950 . S
C517 C516 1.349 . S
C517 C533 1.349 . S
C518 C516 1.327 . S
C518 C537 1.429 . S
C518 H542 0.950 . S
C519 C536 1.574 . S
C519 C538 1.368 . S
C519 H543 0.949 . S
H520 C524 0.949 . S
C521 C522 1.349 . S
C521 C523 1.327 . S
C521 H544 0.950 . S
C522 C521 1.349 . S
C522 C534 1.349 . S
C523 C521 1.327 . S
C523 C539 1.429 . S
C523 H545 0.950 . S
C524 H520 0.949 . S
C524 C532 1.574 . S
C524 C540 1.368 . S
H525 C533 0.950 . S
H526 C531 0.950 . S
H527 C532 0.949 . S
H528 C534 0.950 . S
H529 C535 0.950 . S
H530 C536 0.949 . S
C531 H526 0.950 . S
C531 C533 1.327 . S
C531 C537 1.429 . S
C532 C524 1.574 . S
C532 H527 0.949 . S
C532 C538 1.368 . S
C533 C517 1.349 . S
C533 H525 0.950 . S
C533 C531 1.327 . S
C534 C522 1.349 . S
C534 H528 0.950 . S
C534 C535 1.327 . S
C535 H529 0.950 . S
C535 C534 1.327 . S
C535 C539 1.429 . S
C536 C519 1.574 . S
C536 H530 0.949 . S
C536 C540 1.368 . S
C537 C518 1.429 . S
C537 C531 1.429 . S
C537 C538 1.523 . S
C538 C519 1.368 . S
C538 C532 1.368 . S
C538 C537 1.523 . S
C539 C523 1.429 . S
C539 C535 1.429 . S
C539 C540 1.523 . S
C540 C524 1.368 . S
C540 C536 1.368 . S
C540 C539 1.523 . S
H541 C516 0.950 . S
H542 C518 0.950 . S
H543 C519 0.949 . S
H544 C521 0.950 . S
H545 C523 0.950 . S
C546 C547 1.349 . S
C546 C548 1.327 . S
C546 H571 0.950 . S
C547 C546 1.349 . S
C547 C563 1.349 . S
C548 C546 1.327 . S
C548 C567 1.429 . S
C548 H572 0.950 . S
C549 C566 1.574 . S
C549 C568 1.368 . S
C549 H573 0.949 . S
H550 C554 0.949 . S
C551 C552 1.349 . S
C551 C553 1.327 . S
C551 H574 0.950 . S
C552 C551 1.349 . S
C552 C564 1.349 . S
C553 C551 1.327 . S
C553 C569 1.429 . S
C553 H575 0.950 . S
C554 H550 0.949 . S
C554 C562 1.574 . S
C554 C570 1.368 . S
H555 C563 0.950 . S
H556 C561 0.950 . S
H557 C562 0.949 . S
H558 C564 0.950 . S
H559 C565 0.950 . S
H560 C566 0.949 . S
C561 H556 0.950 . S
C561 C563 1.327 . S
C561 C567 1.429 . S
C562 C554 1.574 . S
C562 H557 0.949 . S
C562 C568 1.368 . S
C563 C547 1.349 . S
C563 H555 0.950 . S
C563 C561 1.327 . S
C564 C552 1.349 . S
C564 H558 0.950 . S
C564 C565 1.327 . S
C565 H559 0.950 . S
C565 C564 1.327 . S
C565 C569 1.429 . S
C566 C549 1.574 . S
C566 H560 0.949 . S
C566 C570 1.368 . S
C567 C548 1.429 . S
C567 C561 1.429 . S
C567 C568 1.523 . S
C568 C549 1.368 . S
C568 C562 1.368 . S
C568 C567 1.523 . S
C569 C553 1.429 . S
C569 C565 1.429 . S
C569 C570 1.523 . S
C570 C554 1.368 . S
C570 C566 1.368 . S
C570 C569 1.523 . S
H571 C546 0.950 . S
H572 C548 0.950 . S
H573 C549 0.949 . S
H574 C551 0.950 . S
H575 C553 0.950 . S
C576 C577 1.349 . S
C576 C578 1.327 . S
C576 H601 0.950 . S
C577 C576 1.349 . S
C577 C593 1.349 . S
C578 C576 1.327 . S
C578 C597 1.429 . S
C578 H602 0.950 . S
C579 C596 1.574 . S
C579 C598 1.368 1_655 S
C579 H603 0.949 . S
H580 C584 0.949 . S
C581 C582 1.349 . S
C581 C583 1.327 . S
C581 H604 0.950 . S
C582 C581 1.349 . S
C582 C594 1.349 . S
C583 C581 1.327 . S
C583 C599 1.429 . S
C583 H605 0.950 . S
C584 H580 0.949 . S
C584 C592 1.574 . S
C584 C600 1.368 1_455 S
H585 C593 0.950 . S
H586 C591 0.950 . S
H587 C592 0.949 . S
H588 C594 0.950 . S
H589 C595 0.950 . S
H590 C596 0.949 . S
C591 H586 0.950 . S
C591 C593 1.327 . S
C591 C597 1.429 . S
C592 C584 1.574 . S
C592 H587 0.949 . S
C592 C598 1.368 . S
C593 C577 1.349 . S
C593 H585 0.950 . S
C593 C591 1.327 . S
C594 C582 1.349 . S
C594 H588 0.950 . S
C594 C595 1.327 . S
C595 H589 0.950 . S
C595 C594 1.327 . S
C595 C599 1.429 . S
C596 C579 1.574 . S
C596 H590 0.949 . S
C596 C600 1.368 . S
C597 C578 1.429 . S
C597 C591 1.429 . S
C597 C598 1.523 . S
C598 C579 1.368 1_455 S
C598 C592 1.368 . S
C598 C597 1.523 . S
C599 C583 1.429 . S
C599 C595 1.429 . S
C599 C600 1.523 . S
C600 C584 1.368 1_655 S
C600 C596 1.368 . S
C600 C599 1.523 . S
H601 C576 0.950 . S
H602 C578 0.950 . S
H603 C579 0.949 . S
H604 C581 0.950 . S
H605 C583 0.950 . S
C606 C607 1.349 . S
C606 C608 1.327 . S
C606 H631 0.950 . S
C607 C606 1.349 . S
C607 C623 1.349 . S
C608 C606 1.327 . S
C608 C627 1.429 . S
C608 H632 0.950 . S
C609 C626 1.574 . S
C609 C628 1.368 . S
C609 H633 0.949 . S
H610 C614 0.949 . S
C611 C612 1.349 . S
C611 C613 1.327 . S
C611 H634 0.950 . S
C612 C611 1.349 . S
C612 C624 1.349 . S
C613 C611 1.327 . S
C613 C629 1.429 . S
C613 H635 0.950 . S
C614 H610 0.949 . S
C614 C622 1.574 . S
C614 C630 1.368 . S
H615 C623 0.950 . S
H616 C621 0.950 . S
H617 C622 0.949 . S
H618 C624 0.950 . S
H619 C625 0.950 . S
H620 C626 0.949 . S
C621 H616 0.950 . S
C621 C623 1.327 . S
C621 C627 1.429 . S
C622 C614 1.574 . S
C622 H617 0.949 . S
C622 C628 1.368 1_455 S
C623 C607 1.349 . S
C623 H615 0.950 . S
C623 C621 1.327 . S
C624 C612 1.349 . S
C624 H618 0.950 . S
C624 C625 1.327 . S
C625 H619 0.950 . S
C625 C624 1.327 . S
C625 C629 1.429 . S
C626 C609 1.574 . S
C626 H620 0.949 . S
C626 C630 1.368 1_655 S
C627 C608 1.429 . S
C627 C621 1.429 . S
C627 C628 1.523 . S
C628 C609 1.368 . S
C628 C622 1.368 1_655 S
C628 C627 1.523 . S
C629 C613 1.429 . S
C629 C625 1.429 . S
C629 C630 1.523 . S
C630 C614 1.368 . S
C630 C626 1.368 1_455 S
C630 C629 1.523 . S
H631 C606 0.950 . S
H632 C608 0.950 . S
H633 C609 0.949 . S
H634 C611 0.950 . S
H635 C613 0.950 . S
C636 C637 1.349 . S
C636 C638 1.327 . S
C636 H661 0.950 . S
C637 C636 1.349 . S
C637 C653 1.349 . S
C638 C636 1.327 . S
C638 C657 1.429 . S
C638 H662 0.950 . S
C639 C656 1.574 . S
C639 C658 1.368 . S
C639 H663 0.949 . S
H640 C644 0.949 . S
C641 C642 1.349 . S
C641 C643 1.327 . S
C641 H664 0.950 . S
C642 C641 1.349 . S
C642 C654 1.349 . S
C643 C641 1.327 . S
C643 C659 1.429 . S
C643 H665 0.950 . S
C644 H640 0.949 . S
C644 C652 1.574 . S
C644 C660 1.368 . S
H645 C653 0.950 . S
H646 C651 0.950 . S
H647 C652 0.949 . S
H648 C654 0.950 . S
H649 C655 0.950 . S
H650 C656 0.949 . S
C651 H646 0.950 . S
C651 C653 1.327 . S
C651 C657 1.429 . S
C652 C644 1.574 . S
C652 H647 0.949 . S
C652 C658 1.368 1_655 S
C653 C637 1.349 . S
C653 H645 0.950 . S
C653 C651 1.327 . S
C654 C642 1.349 . S
C654 H648 0.950 . S
C654 C655 1.327 . S
C655 H649 0.950 . S
C655 C654 1.327 . S
C655 C659 1.429 . S
C656 C639 1.574 . S
C656 H650 0.949 . S
C656 C660 1.368 1_455 S
C657 C638 1.429 . S
C657 C651 1.429 . S
C657 C658 1.523 . S
C658 C639 1.368 . S
C658 C652 1.368 1_455 S
C658 C657 1.523 . S
C659 C643 1.429 . S
C659 C655 1.429 . S
C659 C660 1.523 . S
C660 C644 1.368 . S
C660 C656 1.368 1_655 S
C660 C659 1.523 . S
H661 C636 0.950 . S
H662 C638 0.950 . S
H663 C639 0.949 . S
H664 C641 0.950 . S
H665 C643 0.950 . S
C666 C667 1.349 . S
C666 C668 1.327 . S
C666 H691 0.950 . S
C667 C666 1.349 . S
C667 C683 1.349 . S
C668 C666 1.327 . S
C668 C687 1.429 . S
C668 H692 0.950 . S
C669 C686 1.574 . S
C669 C688 1.368 1_655 S
C669 H693 0.949 . S
H670 C674 0.949 . S
C671 C672 1.349 . S
C671 C673 1.327 . S
C671 H694 0.950 . S
C672 C671 1.349 . S
C672 C684 1.349 . S
C673 C671 1.327 . S
C673 C689 1.429 . S
C673 H695 0.950 . S
C674 H670 0.949 . S
C674 C682 1.574 . S
C674 C690 1.368 1_455 S
H675 C683 0.950 . S
H676 C681 0.950 . S
H677 C682 0.949 . S
H678 C684 0.950 . S
H679 C685 0.950 . S
H680 C686 0.949 . S
C681 H676 0.950 . S
C681 C683 1.327 . S
C681 C687 1.429 . S
C682 C674 1.574 . S
C682 H677 0.949 . S
C682 C688 1.368 . S
C683 C667 1.349 . S
C683 H675 0.950 . S
C683 C681 1.327 . S
C684 C672 1.349 . S
C684 H678 0.950 . S
C684 C685 1.327 . S
C685 H679 0.950 . S
C685 C684 1.327 . S
C685 C689 1.429 . S
C686 C669 1.574 . S
C686 H680 0.949 . S
C686 C690 1.368 . S
C687 C668 1.429 . S
C687 C681 1.429 . S
C687 C688 1.523 . S
C688 C669 1.368 1_455 S
C688 C682 1.368 . S
C688 C687 1.523 . S
C689 C673 1.429 . S
C689 C685 1.429 . S
C689 C690 1.523 . S
C690 C674 1.368 1_655 S
C690 C686 1.368 . S
C690 C689 1.523 . S
H691 C666 0.950 . S
H692 C668 0.950 . S
H693 C669 0.949 . S
H694 C671 0.950 . S
H695 C673 0.950 . S
C217 C35 0.776 . S
C222 C28 0.776 . S
C247 C89 0.776 . S
C252 C82 0.776 . S
C277 C136 0.776 . S
C282 C143 0.776 . S
C307 C190 0.776 . S
C312 C197 0.776 . S
C337 C64 1.663 . S
C342 C27 1.663 . S
C367 C189 1.663 . S
C372 C118 1.663 . S
C397 C10 1.663 . S
C402 C81 1.663 . S
C427 C172 1.663 . S
C432 C135 1.663 . S
C457 C184 1.814 . S
C462 C22 1.814 . S
C487 C59 1.814 . S
C492 C113 1.814 . S
C517 C140 1.801 . S
C522 C86 1.801 . S
C547 C13 1.801 . S
C552 C175 1.801 . S
C577 C130 1.814 . S
C582 C76 1.814 . S
C607 C167 1.814 . S
C612 C5 1.814 . S
C637 C32 1.801 . S
C642 C194 1.801 . S
C667 C121 1.801 . S
C672 C67 1.801 . S
