# Generated by pormake.
# Topology hcp, (12)-cn, num edge types: 1
# Building blocks:
#     Node 0, Type 0, BuildingBlock: BOTCEU_clean_sbu_0, # of connection points: 12
#     Node 1, Type 0, BuildingBlock: BOTCEU_clean_sbu_0, # of connection points: 12
#     Edge 2, Type (0, 0), BuildingBlock: TEMPAE_clean_linker_10, # of connection points: 2
#     Edge 3, Type (0, 0), BuildingBlock: TEMPAE_clean_linker_10, # of connection points: 2
#     Edge 4, Type (0, 0), BuildingBlock: TEMPAE_clean_linker_10, # of connection points: 2
#     Edge 5, Type (0, 0), BuildingBlock: TEMPAE_clean_linker_10, # of connection points: 2
#     Edge 6, Type (0, 0), BuildingBlock: TEMPAE_clean_linker_10, # of connection points: 2
#     Edge 7, Type (0, 0), BuildingBlock: TEMPAE_clean_linker_10, # of connection points: 2
#     Edge 8, Type (0, 0), BuildingBlock: TEMPAE_clean_linker_10, # of connection points: 2
#     Edge 9, Type (0, 0), BuildingBlock: TEMPAE_clean_linker_10, # of connection points: 2
#     Edge 10, Type (0, 0), BuildingBlock: TEMPAE_clean_linker_10, # of connection points: 2
#     Edge 11, Type (0, 0), BuildingBlock: TEMPAE_clean_linker_10, # of connection points: 2
#     Edge 12, Type (0, 0), BuildingBlock: TEMPAE_clean_linker_10, # of connection points: 2
#     Edge 13, Type (0, 0), BuildingBlock: TEMPAE_clean_linker_10, # of connection points: 2
# Relax obj value: 0.161
# Max RMSD: 0.246
# Mean RMSD: 0.246
data_MOF--net-hcp--node1-BOTCEU_clean_sbu_0--edge1-TEMPAE_clean_linker_10
_symmetry_space_group_name_H-M    P1
_symmetry_Int_Tables_number       1
_symmetry_cell_setting            triclinic
loop_
_symmetry_equiv_pos_as_xyz
'x, y, z'
_cell_length_a     26.88484
_cell_length_b     21.95233
_cell_length_c     43.177247
_cell_angle_alpha  97.930354
_cell_angle_beta   87.997551
_cell_angle_gamma 123.57584
loop_
_atom_site_label
_atom_site_type_symbol
_atom_site_fract_x
_atom_site_fract_y
_atom_site_fract_z
_atom_type_partial_charge
C0 C 0.31956 0.0812 0.29405 0.0
C1 C 0.30867 0.01711 0.30365 0.0
C2 C 0.34626 0.04132 0.33044 0.0
N3 N 0.36139 0.13869 0.31379 0.0
N4 N 0.37782 0.11567 0.33554 0.0
C5 C 0.2898 0.08805 0.26726 0.0
H6 H 0.29138 0.13994 0.27163 0.0
H7 H 0.2425 0.04062 0.26337 0.0
H8 H 0.31372 0.0891 0.24567 0.0
C9 C 0.3534 0.99542 0.35008 0.0
H10 H 0.3988 0.02784 0.36174 0.0
H11 H 0.3452 0.94451 0.33561 0.0
H12 H 0.32024 0.97905 0.3685 0.0
C13 C 0.85256 0.39808 0.10986 0.0
C14 C 0.77798 0.39273 0.08662 0.0
C15 C 0.83465 0.40624 0.08165 0.0
N16 N 0.80857 0.38038 0.12973 0.0
N17 N 0.76434 0.3778 0.11607 0.0
H18 H 0.9109 0.36092 0.11077 0.0
H19 H 0.94815 0.4572 0.10697 0.0
H20 H 0.92021 0.42539 0.14437 0.0
C21 C 0.91162 0.41171 0.11859 0.0
H22 H 0.74014 0.36586 0.03978 0.0
H23 H 0.74831 0.44636 0.06239 0.0
H24 H 0.68949 0.35625 0.07071 0.0
C25 C 0.73625 0.38954 0.06346 0.0
C26 C 0.40006 0.29382 0.37934 0.0
C27 C 0.46732 0.20972 0.26569 0.0
C28 C 0.72267 0.1246 0.33415 0.0
N29 N 0.7475 0.19413 0.32816 0.0
N30 N 0.76683 0.19915 0.29963 0.0
C31 C 0.72465 0.08263 0.30729 0.0
C32 C 0.75347 0.13267 0.28588 0.0
H33 H 0.6918 0.13803 0.3797 0.0
H34 H 0.73808 0.10297 0.37833 0.0
H35 H 0.66186 0.04304 0.36279 0.0
C36 C 0.70188 0.1006 0.36549 0.0
H37 H 0.81004 0.17158 0.24694 0.0
H38 H 0.73456 0.09515 0.23682 0.0
H39 H 0.78598 0.07947 0.25385 0.0
C40 C 0.77262 0.11919 0.25412 0.0
C41 C 0.35227 0.34261 0.27092 0.0
C42 C 0.31429 0.27805 0.31035 0.0
N43 N 0.3811 0.31066 0.27543 0.0
N44 N 0.35982 0.27369 0.29947 0.0
C45 C 0.30951 0.32407 0.2932 0.0
H46 H 0.32566 0.38442 0.23715 0.0
H47 H 0.39873 0.44918 0.25608 0.0
H48 H 0.38814 0.37654 0.2266 0.0
C49 C 0.36666 0.39058 0.24608 0.0
C50 C 0.27694 0.23943 0.33644 0.0
H51 H 0.22941 0.20197 0.32819 0.0
H52 H 0.28039 0.28051 0.3559 0.0
H53 H 0.29081 0.20511 0.34466 0.0
C54 C 0.85796 0.42974 0.33692 0.0
C55 C 0.66932 0.27827 0.32741 0.0
C56 C 0.61371 0.20762 0.10048 0.0
N57 N 0.6276 0.26625 0.12169 0.0
C58 C 0.55261 0.16799 0.09275 0.0
N59 N 0.57913 0.26518 0.12832 0.0
C60 C 0.53231 0.20684 0.11102 0.0
H61 H 0.70429 0.23664 0.09576 0.0
H62 H 0.65748 0.19591 0.05988 0.0
H63 H 0.64775 0.1395 0.08888 0.0
C64 C 0.65873 0.19469 0.08545 0.0
H65 H 0.46218 0.21124 0.13416 0.0
C66 C 0.47092 0.192 0.11072 0.0
H67 H 0.46797 0.22342 0.09363 0.0
H68 H 0.4367 0.13228 0.10377 0.0
C69 C 0.75296 0.27168 0.44185 0.0
C70 C 0.82414 0.28765 0.41012 0.0
N71 N 0.73756 0.27359 0.41285 0.0
N72 N 0.77983 0.28173 0.39402 0.0
C73 C 0.80914 0.2821 0.44126 0.0
H74 H 0.6776 0.19406 0.46471 0.0
C75 C 0.71301 0.25394 0.4688 0.0
H76 H 0.69038 0.28341 0.46994 0.0
H77 H 0.73757 0.26638 0.49135 0.0
H78 H 0.88873 0.26271 0.39598 0.0
H79 H 0.92009 0.35818 0.41121 0.0
C80 C 0.88268 0.30891 0.3966 0.0
H81 H 0.88366 0.32127 0.37252 0.0
C82 C 0.70246 0.48559 0.13943 0.0
C83 C 0.67995 0.25873 0.18475 0.0
C84 C 0.91252 0.50319 0.23909 0.0
N85 N 0.86612 0.44008 0.22418 0.0
C86 C 0.93002 0.55832 0.22077 0.0
C87 C 0.88978 0.52379 0.19483 0.0
N88 N 0.85141 0.452 0.19809 0.0
C89 C 0.94442 0.50888 0.26818 0.0
H90 H 0.98656 0.51307 0.26231 0.0
H91 H 0.95624 0.55957 0.28426 0.0
H92 H 0.91615 0.45958 0.27993 0.0
C93 C 0.89448 0.55569 0.16561 0.0
H94 H 0.85038 0.52524 0.15269 0.0
H95 H 0.91127 0.61507 0.17139 0.0
H96 H 0.92686 0.5514 0.15043 0.0
C97 C 0.41053 0.13859 0.42963 0.0
C98 C 0.44848 0.14388 0.45335 0.0
C99 C 0.50409 0.18 0.44117 0.0
N100 N 0.44413 0.17173 0.40528 0.0
N101 N 0.49936 0.19471 0.41296 0.0
H102 H 0.33368 0.12781 0.45084 0.0
H103 H 0.32318 0.04274 0.43271 0.0
H104 H 0.32664 0.10613 0.40837 0.0
C105 C 0.34447 0.10175 0.43017 0.0
C106 C 0.56089 0.19576 0.4553 0.0
H107 H 0.57235 0.23052 0.47844 0.0
H108 H 0.55508 0.14301 0.45861 0.0
H109 H 0.59866 0.22553 0.44037 0.0
C110 C 0.83516 0.26054 0.16717 0.0
C111 C 0.74531 0.34377 0.26372 0.0
C112 C 0.57027 0.51109 0.23283 0.0
C113 C 0.56669 0.54113 0.26285 0.0
C114 C 0.52652 0.47988 0.27748 0.0
N115 N 0.53384 0.43717 0.23032 0.0
N116 N 0.50837 0.41847 0.25706 0.0
C117 C 0.60388 0.55205 0.20636 0.0
H118 H 0.5887 0.515 0.18378 0.0
H119 H 0.5985 0.59832 0.20517 0.0
H120 H 0.65212 0.57554 0.21041 0.0
C121 C 0.50386 0.4792 0.30965 0.0
H122 H 0.49161 0.42786 0.31871 0.0
H123 H 0.53792 0.52842 0.32575 0.0
H124 H 0.46304 0.47996 0.30859 0.0
C125 C 0.93447 0.32583 0.28412 0.0
C126 C 0.97955 0.36049 0.26344 0.0
C127 C 0.95188 0.36395 0.23778 0.0
N128 N 0.8841 0.31252 0.27154 0.0
N129 N 0.89429 0.33487 0.24393 0.0
C130 C 0.93896 0.30784 0.31562 0.0
H131 H 0.95364 0.35698 0.33336 0.0
H132 H 0.97216 0.29285 0.31605 0.0
H133 H 0.89463 0.26166 0.32171 0.0
C134 C 0.98106 0.40335 0.21029 0.0
H135 H 0.02661 0.45267 0.21724 0.0
H136 H 0.98526 0.36562 0.19215 0.0
H137 H 0.9537 0.41968 0.19994 0.0
C138 C 0.38124 0.24351 0.1958 0.0
C139 C 0.60682 0.35234 0.21937 0.0
C140 C 0.59608 0.37617 0.41867 0.0
N141 N 0.61139 0.33292 0.40262 0.0
N142 N 0.66202 0.34814 0.41437 0.0
C143 C 0.63496 0.41668 0.44446 0.0
C144 C 0.67761 0.39842 0.44065 0.0
H145 H 0.50218 0.32074 0.42317 0.0
H146 H 0.54051 0.41896 0.42346 0.0
H147 H 0.52952 0.35974 0.38727 0.0
C148 C 0.53863 0.36865 0.41281 0.0
H149 H 0.75842 0.40746 0.45335 0.0
H150 H 0.7542 0.48545 0.46884 0.0
H151 H 0.71094 0.40187 0.48551 0.0
C152 C 0.7285 0.42434 0.46325 0.0
C153 C 0.54502 0.40017 0.11098 0.0
N154 N 0.54554 0.37796 0.1382 0.0
N155 N 0.50843 0.38358 0.15724 0.0
C156 C 0.50616 0.42316 0.11263 0.0
C157 C 0.48333 0.41153 0.1425 0.0
C158 C 0.58053 0.39823 0.08381 0.0
H159 H 0.62 0.45479 0.08247 0.0
H160 H 0.55307 0.37845 0.06161 0.0
H161 H 0.59632 0.36199 0.08659 0.0
C162 C 0.44287 0.43241 0.15741 0.0
H163 H 0.45117 0.48266 0.14898 0.0
H164 H 0.39583 0.38667 0.1508 0.0
H165 H 0.44943 0.44178 0.18329 0.0
C166 C 0.58475 0.12431 0.36594 0.0
C167 C 0.54767 0.28505 0.33193 0.0
Cu168 Cu 0.40278 0.23904 0.31396 0.0
Cu169 Cu 0.43822 0.19186 0.36395 0.0
Cu170 Cu 0.76842 0.28275 0.35236 0.0
Cu171 Cu 0.81494 0.29418 0.28966 0.0
Cu172 Cu 0.69774 0.34955 0.13977 0.0
Cu173 Cu 0.59145 0.34888 0.15279 0.0
Cu174 Cu 0.837 0.34336 0.22721 0.0
Cu175 Cu 0.79983 0.36589 0.17124 0.0
Cu176 Cu 0.50938 0.36033 0.19767 0.0
Cu177 Cu 0.44701 0.31962 0.25695 0.0
Cu178 Cu 0.55795 0.23535 0.38585 0.0
Cu179 Cu 0.67805 0.27853 0.39472 0.0
H180 H 0.42801 0.32728 0.40084 0.0
H181 H 0.35898 0.24381 0.38591 0.0
H182 H 0.389 0.32798 0.36844 0.0
H183 H 0.46235 0.17149 0.28169 0.0
H184 H 0.51139 0.2343 0.25512 0.0
H185 H 0.4314 0.17827 0.24692 0.0
H186 H 0.84559 0.44866 0.31789 0.0
H187 H 0.9073 0.45931 0.33937 0.0
H188 H 0.84118 0.44185 0.35919 0.0
H189 H 0.68064 0.2485 0.30875 0.0
H190 H 0.67458 0.32733 0.31948 0.0
H191 H 0.62253 0.23997 0.33298 0.0
H192 H 0.67345 0.50699 0.14322 0.0
H193 H 0.70767 0.47576 0.11401 0.0
H194 H 0.74693 0.52673 0.15134 0.0
H195 H 0.63391 0.24548 0.18684 0.0
H196 H 0.69584 0.25387 0.20696 0.0
H197 H 0.67976 0.21891 0.16581 0.0
H198 H 0.80981 0.2331 0.1443 0.0
H199 H 0.88224 0.30306 0.1632 0.0
H200 H 0.83345 0.21881 0.17984 0.0
H201 H 0.75563 0.38145 0.24632 0.0
H202 H 0.6966 0.30113 0.26188 0.0
H203 H 0.75873 0.37623 0.28735 0.0
H204 H 0.34457 0.22286 0.2123 0.0
H205 H 0.37927 0.28117 0.18199 0.0
H206 H 0.37614 0.19607 0.17981 0.0
H207 H 0.59794 0.38032 0.24005 0.0
H208 H 0.60188 0.30209 0.22569 0.0
H209 H 0.65305 0.3904 0.21235 0.0
H210 H 0.61868 0.1367 0.34823 0.0
H211 H 0.58094 0.08309 0.3798 0.0
H212 H 0.54094 0.10136 0.35378 0.0
H213 H 0.59068 0.32838 0.34453 0.0
H214 H 0.55752 0.26787 0.3085 0.0
H215 H 0.52192 0.30997 0.33044 0.0
O216 O 0.42999 0.27332 0.35867 0.0
O217 O 0.46291 0.26476 0.28193 0.0
O218 O 0.83312 0.35524 0.3305 0.0
O219 O 0.70613 0.30002 0.35334 0.0
O220 O 0.67708 0.42076 0.15161 0.0
O221 O 0.7172 0.32895 0.1775 0.0
O222 O 0.81004 0.29289 0.18461 0.0
O223 O 0.77606 0.3106 0.25762 0.0
O224 O 0.43512 0.28079 0.21231 0.0
O225 O 0.56698 0.33311 0.19508 0.0
O226 O 0.60033 0.18754 0.3856 0.0
O227 O 0.51765 0.22578 0.34817 0.0
C228 C 0.03332 0.50223 0.7514 0.0
C229 C 0.00841 0.44373 0.76878 0.0
C230 C 0.05364 0.46299 0.79043 0.0
N231 N 0.08957 0.55285 0.76278 0.0
N232 N 0.10136 0.52996 0.78635 0.0
C233 C 0.00219 0.51308 0.7268 0.0
H234 H 0.97954 0.53928 0.7381 0.0
H235 H 0.96777 0.45907 0.71336 0.0
H236 H 0.03496 0.54985 0.71078 0.0
C237 C 0.04845 0.42295 0.81701 0.0
H238 H 0.09237 0.44908 0.82962 0.0
H239 H 0.0317 0.36467 0.80792 0.0
H240 H 0.01549 0.42231 0.83336 0.0
C241 C 0.60252 0.96155 0.62714 0.0
C242 C 0.54678 0.89027 0.58542 0.0
C243 C 0.58822 0.96383 0.59649 0.0
N244 N 0.56815 0.89128 0.63381 0.0
N245 N 0.53251 0.85037 0.60893 0.0
H246 H 0.68958 0.05872 0.6384 0.0
H247 H 0.63022 0.06388 0.65512 0.0
H248 H 0.65293 0.00905 0.67101 0.0
C249 C 0.64626 0.02687 0.64959 0.0
H250 H 0.55159 0.86877 0.53612 0.0
H251 H 0.49722 0.88905 0.54678 0.0
H252 H 0.48291 0.79924 0.55144 0.0
C253 C 0.51712 0.85947 0.55324 0.0
C254 C 0.17991 0.74969 0.81983 0.0
C255 C 0.21589 0.61535 0.72085 0.0
C256 C 0.45404 0.48379 0.788 0.0
N257 N 0.47304 0.55535 0.79215 0.0
N258 N 0.50476 0.58736 0.76848 0.0
C259 C 0.47483 0.46844 0.75988 0.0
C260 C 0.50697 0.53628 0.74814 0.0
H261 H 0.39021 0.45207 0.82404 0.0
H262 H 0.44154 0.42443 0.82591 0.0
H263 H 0.38119 0.37577 0.79646 0.0
C264 C 0.414 0.43079 0.80976 0.0
H265 H 0.57572 0.61224 0.72036 0.0
H266 H 0.5086 0.53724 0.69882 0.0
H267 H 0.55993 0.5192 0.71408 0.0
C268 C 0.54023 0.55244 0.71872 0.0
C269 C 0.09817 0.75295 0.71055 0.0
C270 C 0.0663 0.70742 0.75507 0.0
N271 N 0.12544 0.7201 0.71738 0.0
N272 N 0.10701 0.69397 0.74405 0.0
C273 C 0.0596 0.74634 0.73436 0.0
H274 H 0.07881 0.75749 0.6637 0.0
H275 H 0.11097 0.84381 0.68949 0.0
H276 H 0.15694 0.81025 0.67469 0.0
C277 C 0.1124 0.79407 0.68316 0.0
C278 C 0.03276 0.67962 0.78377 0.0
H279 H 0.98591 0.6633 0.7807 0.0
H280 H 0.05472 0.72383 0.80412 0.0
H281 H 0.03327 0.63183 0.78889 0.0
C282 C 0.56339 0.76481 0.83691 0.0
C283 C 0.34672 0.54357 0.78785 0.0
C284 C 0.45125 0.65256 0.58184 0.0
N285 N 0.42568 0.68772 0.59359 0.0
C286 C 0.40679 0.58107 0.57013 0.0
N287 N 0.36689 0.64414 0.59032 0.0
C288 C 0.35318 0.57703 0.5759 0.0
H289 H 0.52849 0.66096 0.59932 0.0
H290 H 0.54324 0.74625 0.5894 0.0
H291 H 0.53031 0.67285 0.55903 0.0
C292 C 0.51724 0.68583 0.58244 0.0
H293 H 0.25801 0.52055 0.57972 0.0
C294 C 0.29138 0.50962 0.56968 0.0
H295 H 0.28235 0.49192 0.54404 0.0
H296 H 0.28787 0.46389 0.58003 0.0
C297 C 0.3999 0.56603 0.90575 0.0
C298 C 0.48104 0.58077 0.88432 0.0
N299 N 0.40154 0.57969 0.87636 0.0
N300 N 0.45006 0.58942 0.86334 0.0
C301 C 0.45042 0.56652 0.91216 0.0
H302 H 0.34368 0.51496 0.94349 0.0
C303 C 0.35078 0.55331 0.92698 0.0
H304 H 0.30875 0.53067 0.91305 0.0
H305 H 0.36306 0.6068 0.94068 0.0
H306 H 0.55797 0.61396 0.85673 0.0
H307 H 0.53172 0.53297 0.87515 0.0
C308 C 0.53918 0.58851 0.87829 0.0
H309 H 0.5712 0.62218 0.89868 0.0
C310 C 0.40086 0.83708 0.5884 0.0
C311 C 0.44266 0.69467 0.66533 0.0
C312 C 0.60505 0.94533 0.75518 0.0
N313 N 0.57863 0.88662 0.73258 0.0
C314 C 0.60016 1.00097 0.74621 0.0
C315 C 0.56661 0.96816 0.71761 0.0
N316 N 0.55735 0.90115 0.70962 0.0
C317 C 0.64233 0.95198 0.78204 0.0
H318 H 0.6367 0.89864 0.78355 0.0
H319 H 0.69016 0.99454 0.77923 0.0
H320 H 0.62862 0.96888 0.80433 0.0
C321 C 0.53765 0.99609 0.70009 0.0
H322 H 0.53079 0.97364 0.67489 0.0
H323 H 0.49266 0.97525 0.7092 0.0
H324 H 0.56255 0.05715 0.70362 0.0
C325 C 0.09712 0.57769 0.87148 0.0
C326 C 0.10382 0.5619 0.90066 0.0
C327 C 0.15756 0.56614 0.89985 0.0
N328 N 0.14454 0.59063 0.85498 0.0
N329 N 0.18014 0.58296 0.87175 0.0
H330 H 0.03606 0.61186 0.87748 0.0
H331 H 0.00633 0.52351 0.85423 0.0
H332 H 0.05864 0.60541 0.83755 0.0
C333 C 0.04686 0.58022 0.85943 0.0
C334 C 0.18574 0.55158 0.92458 0.0
H335 H 0.21146 0.60222 0.94193 0.0
H336 H 0.15098 0.50628 0.93697 0.0
H337 H 0.21702 0.53746 0.91411 0.0
C338 C 0.62126 0.78554 0.66217 0.0
C339 C 0.45904 0.72906 0.75163 0.0
C340 C 0.30861 0.88615 0.66335 0.0
C341 C 0.30865 0.92771 0.69107 0.0
C342 C 0.27133 0.87464 0.71003 0.0
N343 N 0.27429 0.8136 0.66643 0.0
N344 N 0.25163 0.80737 0.69424 0.0
C345 C 0.3329 0.91469 0.63332 0.0
H346 H 0.30381 0.873 0.61338 0.0
H347 H 0.33584 0.9668 0.63221 0.0
H348 H 0.3785 0.92625 0.63192 0.0
C349 C 0.25226 0.88677 0.74199 0.0
H350 H 0.23932 0.83985 0.75476 0.0
H351 H 0.28868 0.93934 0.75543 0.0
H352 H 0.21273 0.88983 0.7398 0.0
C353 C 0.66426 0.74679 0.77371 0.0
C354 C 0.71492 0.79819 0.75929 0.0
C355 C 0.69494 0.83081 0.74203 0.0
N356 N 0.61795 0.74816 0.7645 0.0
N357 N 0.63591 0.79797 0.74545 0.0
C358 C 0.65877 0.6959 0.79539 0.0
H359 H 0.70249 0.71759 0.80739 0.0
H360 H 0.64218 0.64082 0.78179 0.0
H361 H 0.62538 0.68826 0.81295 0.0
C362 C 0.72998 0.88863 0.72124 0.0
H363 H 0.76489 0.94081 0.73549 0.0
H364 H 0.75236 0.87079 0.70376 0.0
H365 H 0.70063 0.90002 0.70938 0.0
C366 C 0.13176 0.58348 0.65102 0.0
C367 C 0.33063 0.71549 0.67504 0.0
C368 C 0.32328 0.74419 0.88801 0.0
N369 N 0.31541 0.68511 0.86934 0.0
N370 N 0.36434 0.68545 0.87009 0.0
C371 C 0.38062 0.78399 0.90195 0.0
C372 C 0.40551 0.74483 0.88986 0.0
H373 H 0.24791 0.72662 0.91358 0.0
H374 H 0.29442 0.81752 0.90228 0.0
H375 H 0.24506 0.73821 0.87348 0.0
C376 C 0.27501 0.75788 0.89465 0.0
H377 H 0.47571 0.72556 0.8849 0.0
H378 H 0.49834 0.81481 0.90566 0.0
H379 H 0.45397 0.73398 0.92447 0.0
C380 C 0.46178 0.75544 0.90175 0.0
C381 C 0.2444 0.65706 0.55416 0.0
N382 N 0.27217 0.6927 0.58234 0.0
N383 N 0.24113 0.7156 0.59817 0.0
C384 C 0.19177 0.65473 0.55257 0.0
C385 C 0.19294 0.69539 0.5806 0.0
C386 C 0.26088 0.61366 0.53166 0.0
H387 H 0.25455 0.62017 0.50735 0.0
H388 H 0.23048 0.55418 0.53382 0.0
H389 H 0.30796 0.63241 0.53617 0.0
C390 C 0.14233 0.70003 0.59317 0.0
H391 H 0.12528 0.71675 0.57526 0.0
H392 H 0.10492 0.64523 0.59826 0.0
H393 H 0.1572 0.74037 0.61495 0.0
C394 C 0.23586 0.45464 0.84021 0.0
C395 C 0.2813 0.64827 0.79281 0.0
Cu396 Cu 0.14274 0.65191 0.75937 0.0
Cu397 Cu 0.16365 0.60348 0.8137 0.0
Cu398 Cu 0.45881 0.61241 0.82211 0.0
Cu399 Cu 0.53728 0.68986 0.77171 0.0
Cu400 Cu 0.45645 0.77673 0.61744 0.0
Cu401 Cu 0.32989 0.69575 0.60635 0.0
Cu402 Cu 0.57654 0.79942 0.72509 0.0
Cu403 Cu 0.54447 0.84336 0.67056 0.0
Cu404 Cu 0.24553 0.72155 0.64141 0.0
Cu405 Cu 0.18672 0.71415 0.69988 0.0
Cu406 Cu 0.24776 0.59708 0.8526 0.0
Cu407 Cu 0.35393 0.59578 0.85406 0.0
H408 H 0.22528 0.79057 0.83079 0.0
H409 H 0.14751 0.72648 0.83829 0.0
H410 H 0.16725 0.77772 0.8055 0.0
H411 H 0.18793 0.56714 0.7334 0.0
H412 H 0.26365 0.64018 0.72675 0.0
H413 H 0.20776 0.59686 0.69536 0.0
H414 H 0.55082 0.80359 0.84684 0.0
H415 H 0.607 0.79604 0.826 0.0
H416 H 0.56734 0.73798 0.85578 0.0
H417 H 0.34391 0.49189 0.78959 0.0
H418 H 0.36577 0.56281 0.76532 0.0
H419 H 0.3012 0.53211 0.78884 0.0
H420 H 0.36084 0.83898 0.58766 0.0
H421 H 0.40166 0.80901 0.56525 0.0
H422 H 0.44097 0.89373 0.59332 0.0
H423 H 0.39963 0.65411 0.65206 0.0
H424 H 0.43583 0.69017 0.69038 0.0
H425 H 0.4755 0.68122 0.65721 0.0
H426 H 0.60022 0.74789 0.63998 0.0
H427 H 0.65624 0.84151 0.6569 0.0
H428 H 0.64141 0.764 0.67552 0.0
H429 H 0.46199 0.77296 0.74008 0.0
H430 H 0.415 0.67681 0.74521 0.0
H431 H 0.46365 0.74559 0.77735 0.0
H432 H 0.1134 0.5587 0.67273 0.0
H433 H 0.09405 0.56803 0.63496 0.0
H434 H 0.15802 0.56231 0.63968 0.0
H435 H 0.30863 0.73269 0.69291 0.0
H436 H 0.33538 0.67356 0.68355 0.0
H437 H 0.37418 0.76584 0.67148 0.0
H438 H 0.26664 0.43686 0.8335 0.0
H439 H 0.20269 0.41763 0.85602 0.0
H440 H 0.21227 0.45182 0.81895 0.0
H441 H 0.2741 0.68948 0.78564 0.0
H442 H 0.32362 0.67768 0.80726 0.0
H443 H 0.28488 0.61581 0.77193 0.0
O444 O 0.18025 0.69427 0.80104 0.0
O445 O 0.2024 0.66697 0.72938 0.0
O446 O 0.52053 0.71205 0.81478 0.0
O447 O 0.38245 0.59656 0.81222 0.0
O448 O 0.39667 0.79687 0.6111 0.0
O449 O 0.46247 0.76485 0.66013 0.0
O450 O 0.57869 0.78857 0.67936 0.0
O451 O 0.50388 0.71959 0.7421 0.0
O452 O 0.16791 0.65889 0.65818 0.0
O453 O 0.29631 0.68612 0.64767 0.0
O454 O 0.26787 0.52565 0.85544 0.0
O455 O 0.23458 0.60164 0.80972 0.0
C456 C 0.36767 0.82794 0.95599 0.0
C457 C 0.40285 0.84062 0.9299 0.0
C458 C 0.38828 0.88023 0.98303 0.0
C459 C 0.44607 0.94577 0.98417 0.0
C460 C 0.48192 0.95868 0.95789 0.0
C461 C 0.45954 0.90603 0.93088 0.0
C462 C 0.3485 0.865 0.01044 0.0
C463 C 0.54414 0.02757 0.95848 0.0
C464 C 0.48855 0.11348 0.04342 0.0
C465 C 0.52029 0.10757 0.06655 0.0
C466 C 0.46253 0.0599 0.01682 0.0
C467 C 0.46966 1.00012 0.01313 0.0
C468 C 0.50062 0.99316 0.03679 0.0
C469 C 0.52499 0.04668 0.06344 0.0
C470 C 0.42876 0.06826 0.99234 0.0
C471 C 0.50944 0.93037 0.03355 0.0
H472 H 0.32432 0.77647 0.95548 0.0
H473 H 0.48636 0.91589 0.91052 0.0
H474 H 0.36942 0.86033 0.03089 0.0
H475 H 0.34316 0.91158 0.0174 0.0
H476 H 0.30349 0.81328 1.00506 0.0
H477 H 0.56632 0.02892 0.93615 0.0
H478 H 0.54237 0.0773 0.96301 0.0
H479 H 0.57207 0.031 0.97783 0.0
H480 H 0.48569 0.1612 0.04559 0.0
H481 H 0.54839 0.04135 0.08171 0.0
H482 H 0.38368 0.01674 0.98715 0.0
H483 H 0.45264 0.07778 0.97023 0.0
H484 H 0.4237 0.11497 0.99982 0.0
H485 H 0.46556 0.87661 0.03041 0.0
H486 H 0.53422 0.93273 0.05423 0.0
H487 H 0.5346 0.93198 0.01241 0.0
C488 C 0.41983 0.51517 0.52219 0.0
C489 C 0.41997 0.52701 0.5549 0.0
C490 C 0.4557 0.49269 0.50713 0.0
C491 C 0.49401 0.48422 0.52528 0.0
C492 C 0.4905 0.49036 0.55823 0.0
C493 C 0.45285 0.51051 0.57256 0.0
C494 C 0.45452 0.48098 0.47183 0.0
C495 C 0.52945 0.48048 0.57849 0.0
C496 C 0.56081 0.38101 0.48542 0.0
C497 C 0.61334 0.43761 0.47368 0.0
C498 C 0.52137 0.39508 0.50192 0.0
C499 C 0.53743 0.46867 0.50971 0.0
C500 C 0.59383 0.52706 0.50113 0.0
C501 C 0.63033 0.51072 0.4824 0.0
C502 C 0.46088 0.33022 0.50888 0.0
C503 C 0.61391 0.60659 0.51006 0.0
H504 H 0.39528 0.52893 0.50846 0.0
H505 H 0.45366 0.52065 0.59791 0.0
H506 H 0.4979 0.52451 0.46364 0.0
H507 H 0.44817 0.42693 0.46326 0.0
H508 H 0.41829 0.4825 0.46114 0.0
H509 H 0.52227 0.48847 0.60382 0.0
H510 H 0.52011 0.42427 0.57206 0.0
H511 H 0.57723 0.5206 0.57439 0.0
H512 H 0.54679 0.3243 0.47817 0.0
H513 H 0.67008 0.55461 0.47297 0.0
H514 H 0.4261 0.34273 0.51067 0.0
H515 H 0.46462 0.31403 0.53148 0.0
H516 H 0.44508 0.28206 0.49032 0.0
H517 H 0.58644 0.61811 0.49649 0.0
H518 H 0.66166 0.64544 0.5054 0.0
H519 H 0.60737 0.61737 0.53527 0.0
C520 C 0.89827 0.39128 0.04211 0.0
C521 C 0.86905 0.426 0.05312 0.0
C522 C 0.93455 0.41273 0.01641 0.0
C523 C 0.94129 0.46992 1.00125 0.0
C524 C 0.91043 0.50371 0.01173 0.0
C525 C 0.87473 0.48143 0.03767 0.0
C526 C 0.96661 0.37523 1.0059 0.0
C527 C 0.91628 0.56456 0.99603 0.0
C528 C 0.0824 0.57469 0.95694 0.0
C529 C 0.06165 0.54058 0.92612 0.0
C530 C 0.04345 0.55294 0.9816 0.0
C531 C 0.98231 0.49591 0.97514 0.0
C532 C 0.961 0.46204 0.94392 0.0
C533 C 0.00111 0.48457 0.91977 0.0
C534 C 0.06788 0.59018 0.0146 0.0
C535 C 0.89617 0.40101 0.93611 0.0
H536 H 0.89294 0.34742 0.0537 0.0
H537 H 0.85274 0.50894 0.04641 0.0
H538 H 0.95498 0.35142 0.98082 0.0
H539 H 0.01565 0.41637 0.00824 0.0
H540 H 0.95537 0.33045 0.01972 0.0
H541 H 0.88678 0.58227 1.00593 0.0
H542 H 0.96323 0.61312 0.9988 0.0
H543 H 0.9051 0.54597 0.97055 0.0
H544 H 0.12919 0.61844 0.96176 0.0
H545 H 0.98534 0.45681 0.89605 0.0
H546 H 0.06138 0.54883 0.02927 0.0
H547 H 0.04315 0.61429 0.02513 0.0
H548 H 0.11624 0.63469 0.01555 0.0
H549 H 0.88449 0.35246 0.94733 0.0
H550 H 0.88617 0.38332 0.91048 0.0
H551 H 0.86693 0.41943 0.94555 0.0
C552 C 0.53867 0.03215 0.59994 0.0
C553 C 0.58133 0.02067 0.58588 0.0
C554 C 0.5089 0.05482 0.58321 0.0
C555 C 0.52419 0.06997 0.55219 0.0
C556 C 0.57303 0.06821 0.53968 0.0
C557 C 0.60001 0.04196 0.55632 0.0
C558 C 0.45731 0.05547 0.5977 0.0
C559 C 0.59509 0.09096 0.50806 0.0
C560 C 0.42262 0.04377 0.48482 0.0
C561 C 0.43945 0.11648 0.48416 0.0
C562 C 0.44502 0.02631 0.50894 0.0
C563 C 0.4876 0.08352 0.53201 0.0
C564 C 0.49947 0.15516 0.5332 0.0
C565 C 0.47327 0.16959 0.51006 0.0
C566 C 0.42711 0.94773 0.50816 0.0
C567 C 0.54629 0.21974 0.55586 0.0
H568 H 0.52334 0.01482 0.62263 0.0
H569 H 0.63268 0.03294 0.54526 0.0
H570 H 0.45845 0.10494 0.59359 0.0
H571 H 0.41486 0.00636 0.58652 0.0
H572 H 0.45714 0.05415 0.62332 0.0
H573 H 0.5606 0.05118 0.48947 0.0
H574 H 0.60335 0.14606 0.50704 0.0
H575 H 0.63701 0.09364 0.50303 0.0
H576 H 0.39701 1.00214 0.46493 0.0
H577 H 0.48824 0.22619 0.5094 0.0
H578 H 0.41917 0.93229 0.53214 0.0
H579 H 0.46377 0.94238 0.49897 0.0
H580 H 0.3861 0.90818 0.49296 0.0
H581 H 0.54957 0.20344 0.57848 0.0
H582 H 0.53718 0.26368 0.56046 0.0
H583 H 0.59047 0.24374 0.5453 0.0
C584 C 0.44039 0.42371 0.07322 0.0
C585 C 0.49679 0.45714 0.08807 0.0
C586 C 0.43396 0.44621 0.04544 0.0
C587 C 0.4852 0.50323 0.03238 0.0
C588 C 0.54168 0.53973 0.04842 0.0
C589 C 0.54666 0.51642 0.07612 0.0
C590 C 0.37283 0.40662 0.02927 0.0
C591 C 0.59738 0.60094 0.03553 0.0
C592 C 0.4792 0.50269 0.9442 0.0
C593 C 0.46686 0.55631 0.94256 0.0
C594 C 0.48609 0.48554 0.97333 0.0
C595 C 0.4803 0.52284 1.00137 0.0
C596 C 0.46995 0.57891 0.99973 0.0
C597 C 0.46377 0.59524 0.97037 0.0
C598 C 0.49792 0.42607 0.9741 0.0
C599 C 0.46383 0.62034 0.02895 0.0
H600 H 0.40196 0.37748 0.08236 0.0
H601 H 0.59023 0.54272 0.08788 0.0
H602 H 0.36292 0.44707 0.02407 0.0
H603 H 0.37183 0.37517 1.00659 0.0
H604 H 0.33703 0.36761 0.04358 0.0
H605 H 0.63715 0.62685 0.05188 0.0
H606 H 0.60667 0.57854 0.01307 0.0
H607 H 0.59084 0.64434 0.03053 0.0
H608 H 0.48104 0.47208 0.92274 0.0
H609 H 0.45517 0.63763 0.96912 0.0
H610 H 0.4603 0.37964 0.98478 0.0
H611 H 0.5389 0.448 0.98889 0.0
H612 H 0.50343 0.40425 0.95036 0.0
H613 H 0.42515 0.58118 0.04181 0.0
H614 H 0.45728 0.66364 0.02367 0.0
H615 H 0.50421 0.64678 0.04483 0.0
C616 C 0.8957 0.2945 0.46724 0.0
C617 C 0.85352 0.31302 0.46758 0.0
C618 C 0.95097 0.34227 0.48377 0.0
C619 C 0.96283 0.40841 0.50162 0.0
C620 C 0.91721 0.42211 0.50529 0.0
C621 C 0.86306 0.37441 0.48791 0.0
C622 C -0.00148 0.32577 0.47933 0.0
C623 C 0.92765 0.49101 0.52498 0.0
C624 C 0.1005 0.53166 0.55543 0.0
C625 C 0.13592 0.58928 0.53788 0.0
C626 C 0.04444 0.4711 0.54367 0.0
C627 C 0.02444 0.46752 0.51328 0.0
C628 C 0.06178 0.52362 0.4947 0.0
C629 C 0.11735 0.58457 0.50742 0.0
C630 C 0.0057 0.41296 0.56425 0.0
C631 C 0.04214 0.52039 0.46184 0.0
H632 H 0.88776 0.24641 0.45171 0.0
H633 H 0.83075 0.3893 0.488 0.0
H634 H 0.03083 0.36075 0.46268 0.0
H635 H 0.0238 0.33902 0.5017 0.0
H636 H 0.97922 0.26696 0.46972 0.0
H637 H 0.88525 0.48768 0.52918 0.0
H638 H 0.95014 0.5008 0.5479 0.0
H639 H 0.95741 0.53949 0.51281 0.0
H640 H 0.11614 0.53531 0.57885 0.0
H641 H 0.14562 0.62902 0.49391 0.0
H642 H 0.98926 0.35704 0.55167 0.0
H643 H 0.96591 0.41457 0.57016 0.0
H644 H 0.02989 0.42128 0.5864 0.0
H645 H 0.02765 0.46635 0.44784 0.0
H646 H 0.07828 0.56516 0.44971 0.0
H647 H 0.00322 0.52537 0.46257 0.0
C648 C 0.67075 0.95794 0.27496 0.0
C649 C 0.7029 1.00327 0.30268 0.0
C650 C 0.64979 0.88277 0.27003 0.0
C651 C 0.65996 0.85175 0.29375 0.0
C652 C 0.69187 0.89707 0.32195 0.0
C653 C 0.7138 0.97256 0.32585 0.0
C654 C 0.61691 0.8366 0.23937 0.0
C655 C 0.70278 0.86581 0.34799 0.0
C656 C 0.55638 0.64306 0.28814 0.0
C657 C 0.59242 0.62029 0.27416 0.0
C658 C 0.5786 0.71838 0.2959 0.0
C659 C 0.63776 0.77204 0.28875 0.0
C660 C 0.67476 0.74928 0.27534 0.0
C661 C 0.65184 0.67366 0.26863 0.0
C662 C 0.53814 0.74045 0.31079 0.0
C663 C 0.73777 0.80466 0.26692 0.0
H664 H 0.66141 0.98108 0.25718 0.0
H665 H 0.74005 0.00756 0.34695 0.0
H666 H 0.6395 0.81036 0.22795 0.0
H667 H 0.57076 0.79154 0.24368 0.0
H668 H 0.6145 0.86972 0.22293 0.0
H669 H 0.7259 0.90772 0.36903 0.0
H670 H 0.65966 0.81887 0.35483 0.0
H671 H 0.73035 0.84405 0.33978 0.0
H672 H 0.51009 0.60216 0.29195 0.0
H673 H 0.68018 0.65625 0.25844 0.0
H674 H 0.52752 0.76648 0.29418 0.0
H675 H 0.56102 0.78194 0.33193 0.0
H676 H 0.49553 0.69244 0.31756 0.0
H677 H 0.7368 0.83605 0.24915 0.0
H678 H 0.76122 0.77796 0.25739 0.0
H679 H 0.76405 0.84516 0.28778 0.0
C680 C 0.01161 0.8015 0.76683 0.0
C681 C 0.0202 0.77403 0.73731 0.0
C682 C 0.96729 0.81642 0.77087 0.0
C683 C 0.93323 0.80768 0.74441 0.0
C684 C 0.94616 0.78765 0.71413 0.0
C685 C 0.98844 0.76911 0.71101 0.0
C686 C 0.95356 0.83512 0.80368 0.0
C687 C 0.91256 0.78091 0.68519 0.0
C688 C 0.77056 0.73738 0.75269 0.0
C689 C 0.77182 0.80263 0.75647 0.0
C690 C 0.8231 0.73891 0.74989 0.0
C691 C 0.87814 0.80713 0.74874 0.0
C692 C 0.87984 0.87324 0.75147 0.0
C693 C 0.82665 0.87039 0.75612 0.0
C694 C 0.81942 0.6672 0.74797 0.0
C695 C 0.93744 0.94647 0.74889 0.0
H696 H 0.03791 0.80866 0.78707 0.0
H697 H -0.00566 0.7475 0.68812 0.0
H698 H 0.94953 0.88303 0.80536 0.0
H699 H 0.90995 0.78748 0.80966 0.0
H700 H 0.98824 0.8477 0.82135 0.0
H701 H 0.93627 0.7807 0.66361 0.0
H702 H 0.86768 0.72855 0.683 0.0
H703 H 0.90612 0.827 0.68676 0.0
H704 H 0.72829 0.68448 0.75146 0.0
H705 H 0.82817 0.92113 0.75944 0.0
H706 H 0.85192 0.67285 0.7652 0.0
H707 H 0.83108 0.65323 0.72436 0.0
H708 H 0.77405 0.6204 0.75252 0.0
H709 H 0.9702 0.9601 0.76788 0.0
H710 H 0.93063 0.99226 0.75019 0.0
H711 H 0.95751 0.94296 0.72636 0.0
C712 C 0.22083 0.88947 0.30663 0.0
C713 C 0.26392 0.94133 0.28878 0.0
C714 C 0.17 0.82409 0.29199 0.0
C715 C 0.16186 0.81201 0.25892 0.0
C716 C 0.20738 0.86187 0.24082 0.0
C717 C 0.25865 0.92518 0.25604 0.0
C718 C 0.1234 0.77021 0.31197 0.0
C719 C 0.20005 0.85151 0.20558 0.0
C720 C 0.03953 0.62059 0.22202 0.0
C721 C 0.99018 0.62639 0.22314 0.0
C722 C 0.09636 0.68112 0.23285 0.0
C723 C 0.10411 0.74975 0.2436 0.0
C724 C 0.05535 0.75755 0.24169 0.0
C725 C -0.00165 0.69506 0.23187 0.0
C726 C 0.14662 0.66988 0.23518 0.0
C727 C 0.06268 0.83083 0.25177 0.0
H728 H 0.22491 0.90192 0.33195 0.0
H729 H 0.29302 0.9646 0.24229 0.0
H730 H 0.08313 0.77223 0.31131 0.0
H731 H 0.10948 0.71295 0.30269 0.0
H732 H 0.13991 0.78284 0.33676 0.0
H733 H 0.24192 0.89147 0.19485 0.0
H734 H 0.18581 0.7947 0.19534 0.0
H735 H 0.1645 0.85925 0.19911 0.0
H736 H 0.03274 0.56719 0.21472 0.0
H737 H 0.95988 0.69905 0.23258 0.0
H738 H 0.15738 0.67331 0.2602 0.0
H739 H 0.18768 0.71383 0.22542 0.0
H740 H 0.13471 0.6153 0.2228 0.0
H741 H 0.07046 0.84528 0.27757 0.0
H742 H 0.02259 0.82965 0.2451 0.0
H743 H 0.10217 0.87523 0.24116 0.0
C744 C 0.43956 0.36499 0.7148 0.0
C745 C 0.46215 0.39477 0.74584 0.0
C746 C 0.41918 0.29115 0.70303 0.0
C747 C 0.42123 0.24588 0.72279 0.0
C748 C 0.44702 0.27721 0.7536 0.0
C749 C 0.46727 0.35105 0.76464 0.0
C750 C 0.39273 0.26058 0.66994 0.0
C751 C 0.45065 0.23167 0.77552 0.0
C752 C 0.30427 0.03789 0.71085 0.0
C753 C 0.33696 0.00931 0.69766 0.0
C754 C 0.33087 0.11449 0.71848 0.0
C755 C 0.39176 0.16444 0.7125 0.0
C756 C 0.42456 0.13591 0.69826 0.0
C757 C 0.39683 0.0588 0.69111 0.0
C758 C 0.29392 0.14194 0.73352 0.0
C759 C 0.48928 0.18673 0.69116 0.0
H760 H 0.43511 0.39819 0.70016 0.0
H761 H 0.48584 0.37416 0.78843 0.0
H762 H 0.41147 0.23044 0.65753 0.0
H763 H 0.34373 0.22049 0.67041 0.0
H764 H 0.40107 0.30465 0.65641 0.0
H765 H 0.47586 0.26545 0.79789 0.0
H766 H 0.40487 0.18747 0.78091 0.0
H767 H 0.47248 0.20434 0.76424 0.0
H768 H 0.25756 1.00027 0.71514 0.0
H769 H 0.42242 0.03711 0.68098 0.0
H770 H 0.29413 0.18072 0.71946 0.0
H771 H 0.31376 0.17281 0.75715 0.0
H772 H 0.24684 0.09621 0.73589 0.0
H773 H 0.49446 0.22833 0.67706 0.0
H774 H 0.50741 0.15627 0.67823 0.0
H775 H 0.51654 0.21726 0.71332 0.0
C776 C 0.20938 0.30233 0.29987 0.0
C777 C 0.27082 0.35171 0.29813 0.0
C778 C 0.17104 0.32617 0.29911 0.0
C779 C 0.19496 0.4002 0.29479 0.0
C780 C 0.25736 0.4516 0.2953 0.0
C781 C 0.29482 0.42677 0.29765 0.0
C782 C 0.10452 0.27024 0.29996 0.0
C783 C 0.28469 0.53066 0.29038 0.0
C784 C 0.07518 0.37974 0.24573 0.0
C785 C 0.04339 0.39247 0.26905 0.0
C786 C 0.1312 0.39418 0.25302 0.0
C787 C 0.15362 0.41827 0.28456 0.0
C788 C 0.12551 0.44071 0.30711 0.0
C789 C 0.07085 0.42893 0.29877 0.0
C790 C 0.16226 0.37406 0.22792 0.0
C791 C 0.14855 0.46762 0.34085 0.0
H792 H 0.19063 0.24415 0.29955 0.0
H793 H 0.34278 0.46539 0.2973 0.0
H794 H 0.08349 0.29403 0.3152 0.0
H795 H 0.08359 0.25436 0.27601 0.0
H796 H 0.0944 0.21937 0.30865 0.0
H797 H 0.33016 0.56753 0.30193 0.0
H798 H 0.28898 0.534 0.26492 0.0
H799 H 0.25678 0.55146 0.29927 0.0
H800 H 0.05446 0.35292 0.22254 0.0
H801 H 0.04768 0.44324 0.31621 0.0
H802 H 0.15257 0.31869 0.23002 0.0
H803 H 0.21141 0.41426 0.23063 0.0
H804 H 0.14667 0.37217 0.2041 0.0
H805 H 0.1326 0.41916 0.35314 0.0
H806 H 0.13187 0.50052 0.35299 0.0
H807 H 0.1981 0.50153 0.34284 0.0
C808 C 0.92514 0.31193 0.7674 0.0
C809 C 0.94447 0.38613 0.77043 0.0
C810 C 0.86435 0.25653 0.76852 0.0
C811 C 0.82216 0.27621 0.77286 0.0
C812 C 0.842 0.35156 0.77736 0.0
C813 C 0.90311 0.40577 0.77603 0.0
C814 C 0.84499 0.1767 0.76355 0.0
C815 C 0.79857 0.37474 0.78229 0.0
C816 C 0.67687 0.12414 0.73117 0.0
C817 C 0.64607 0.08152 0.75495 0.0
C818 C 0.73187 0.1916 0.73724 0.0
C819 C 0.75745 0.2173 0.76808 0.0
C820 C 0.72381 0.1794 0.79291 0.0
C821 C 0.66788 0.11215 0.78606 0.0
C822 C 0.76539 0.23079 0.70997 0.0
C823 C 0.74901 0.206 0.82628 0.0
H824 H 0.95742 0.29715 0.76328 0.0
H825 H 0.91859 0.4636 0.77929 0.0
H826 H 0.81554 0.14737 0.78229 0.0
H827 H 0.81883 0.14872 0.74091 0.0
H828 H 0.8836 0.17105 0.76326 0.0
H829 H 0.82167 0.43504 0.79016 0.0
H830 H 0.77278 0.36084 0.76001 0.0
H831 H 0.76603 0.34443 0.79983 0.0
H832 H 0.66104 0.10235 0.70722 0.0
H833 H 0.64328 0.0815 0.80486 0.0
H834 H 0.80227 0.22262 0.70504 0.0
H835 H 0.78559 0.29104 0.71557 0.0
H836 H 0.73602 0.20954 0.68837 0.0
H837 H 0.78105 0.19035 0.82969 0.0
H838 H 0.71337 0.18094 0.84321 0.0
H839 H 0.77371 0.26704 0.83162 0.0
loop_
_geom_bond_atom_site_label_1
_geom_bond_atom_site_label_2
_geom_bond_distance
_geom_bond_site_symmetry_2
_ccdc_geom_bond_type
C0 C1 1.388 . S
C0 N3 1.338 . S
C0 C5 1.503 . S
C1 C0 1.388 . S
C1 C2 1.396 . S
C2 C1 1.396 . S
C2 N4 1.348 . S
C2 C9 1.504 . S
N3 C0 1.338 . S
N3 N4 1.361 . S
N3 Cu168 1.924 . S
N4 C2 1.348 . S
N4 N3 1.361 . S
N4 Cu169 1.964 . S
C5 C0 1.503 . S
C5 H6 0.979 . S
C5 H7 0.979 . S
C5 H8 0.979 . S
H6 C5 0.979 . S
H7 C5 0.979 . S
H8 C5 0.979 . S
C9 C2 1.504 . S
C9 H10 0.981 . S
C9 H11 0.980 . S
C9 H12 0.979 . S
H10 C9 0.981 . S
H11 C9 0.980 . S
H12 C9 0.979 . S
C13 C15 1.402 . S
C13 N16 1.356 . S
C13 C21 1.481 . S
C14 C15 1.400 . S
C14 N17 1.325 . S
C14 C25 1.503 . S
C15 C13 1.402 . S
C15 C14 1.400 . S
N16 C13 1.356 . S
N16 N17 1.365 . S
N16 Cu175 1.941 . S
N17 C14 1.325 . S
N17 N16 1.365 . S
N17 Cu172 1.924 . S
H18 C21 0.980 1_455 S
H19 C21 0.980 1_455 S
H20 C21 0.980 . S
C21 C13 1.481 . S
C21 H18 0.980 1_655 S
C21 H19 0.980 1_655 S
C21 H20 0.980 . S
H22 C25 0.978 . S
H23 C25 0.978 . S
H24 C25 0.983 . S
C25 C14 1.503 . S
C25 H22 0.978 . S
C25 H23 0.978 . S
C25 H24 0.983 . S
C26 H180 0.979 . S
C26 H181 0.981 . S
C26 H182 0.981 . S
C26 O216 1.438 . S
C27 H183 0.980 . S
C27 H184 0.979 . S
C27 H185 0.980 . S
C27 O217 1.533 . S
C28 N29 1.338 . S
C28 C31 1.388 . S
C28 C36 1.503 . S
N29 C28 1.338 . S
N29 N30 1.361 . S
N29 Cu170 1.924 . S
N30 N29 1.361 . S
N30 C32 1.348 . S
N30 Cu171 1.964 . S
C31 C28 1.388 . S
C31 C32 1.396 . S
C32 N30 1.348 . S
C32 C31 1.396 . S
C32 C40 1.504 . S
H33 C36 0.979 . S
H34 C36 0.979 . S
H35 C36 0.979 . S
C36 C28 1.503 . S
C36 H33 0.979 . S
C36 H34 0.979 . S
C36 H35 0.979 . S
H37 C40 0.981 . S
H38 C40 0.980 . S
H39 C40 0.979 . S
C40 C32 1.504 . S
C40 H37 0.981 . S
C40 H38 0.980 . S
C40 H39 0.979 . S
C41 N43 1.356 . S
C41 C45 1.402 . S
C41 C49 1.481 . S
C42 N44 1.325 . S
C42 C45 1.400 . S
C42 C50 1.503 . S
N43 C41 1.356 . S
N43 N44 1.365 . S
N43 Cu177 1.941 . S
N44 C42 1.325 . S
N44 N43 1.365 . S
N44 Cu168 1.924 . S
C45 C41 1.402 . S
C45 C42 1.400 . S
H46 C49 0.980 . S
H47 C49 0.980 . S
H48 C49 0.980 . S
C49 C41 1.481 . S
C49 H46 0.980 . S
C49 H47 0.980 . S
C49 H48 0.980 . S
C50 C42 1.503 . S
C50 H51 0.978 . S
C50 H52 0.978 . S
C50 H53 0.983 . S
H51 C50 0.978 . S
H52 C50 0.978 . S
H53 C50 0.983 . S
C54 H186 0.979 . S
C54 H187 0.981 . S
C54 H188 0.981 . S
C54 O218 1.438 . S
C55 H189 0.980 . S
C55 H190 0.979 . S
C55 H191 0.980 . S
C55 O219 1.533 . S
C56 N57 1.338 . S
C56 C58 1.388 . S
C56 C64 1.503 . S
N57 C56 1.338 . S
N57 N59 1.361 . S
N57 Cu172 1.924 . S
C58 C56 1.388 . S
C58 C60 1.396 . S
N59 N57 1.361 . S
N59 C60 1.348 . S
N59 Cu173 1.964 . S
C60 C58 1.396 . S
C60 N59 1.348 . S
C60 C66 1.504 . S
H61 C64 0.979 . S
H62 C64 0.979 . S
H63 C64 0.979 . S
C64 C56 1.503 . S
C64 H61 0.979 . S
C64 H62 0.979 . S
C64 H63 0.979 . S
H65 C66 0.981 . S
C66 C60 1.504 . S
C66 H65 0.981 . S
C66 H67 0.979 . S
C66 H68 0.980 . S
H67 C66 0.979 . S
H68 C66 0.980 . S
C69 N71 1.356 . S
C69 C73 1.402 . S
C69 C75 1.481 . S
C70 N72 1.325 . S
C70 C73 1.400 . S
C70 C80 1.503 . S
N71 C69 1.356 . S
N71 N72 1.365 . S
N71 Cu179 1.941 . S
N72 C70 1.325 . S
N72 N71 1.365 . S
N72 Cu170 1.924 . S
C73 C69 1.402 . S
C73 C70 1.400 . S
H74 C75 0.980 . S
C75 C69 1.481 . S
C75 H74 0.980 . S
C75 H76 0.980 . S
C75 H77 0.980 . S
H76 C75 0.980 . S
H77 C75 0.980 . S
H78 C80 0.978 . S
H79 C80 0.978 . S
C80 C70 1.503 . S
C80 H78 0.978 . S
C80 H79 0.978 . S
C80 H81 0.983 . S
H81 C80 0.983 . S
C82 H192 0.979 . S
C82 H193 0.981 . S
C82 H194 0.981 . S
C82 O220 1.438 . S
C83 H195 0.980 . S
C83 H196 0.979 . S
C83 H197 0.980 . S
C83 O221 1.533 . S
C84 N85 1.338 . S
C84 C86 1.388 . S
C84 C89 1.503 . S
N85 C84 1.338 . S
N85 N88 1.361 . S
N85 Cu174 1.924 . S
C86 C84 1.388 . S
C86 C87 1.396 . S
C87 C86 1.396 . S
C87 N88 1.348 . S
C87 C93 1.504 . S
N88 N85 1.361 . S
N88 C87 1.348 . S
N88 Cu175 1.964 . S
C89 C84 1.503 . S
C89 H90 0.990 . S
C89 H91 0.979 1_655 S
C89 H92 0.979 . S
H90 C89 0.990 . S
H91 C89 0.979 1_455 S
H92 C89 0.979 . S
C93 C87 1.504 . S
C93 H94 0.981 . S
C93 H95 0.980 . S
C93 H96 0.979 . S
H94 C93 0.981 . S
H95 C93 0.980 . S
H96 C93 0.979 . S
C97 C98 1.402 . S
C97 N100 1.356 . S
C97 C105 1.481 . S
C98 C97 1.402 . S
C98 C99 1.400 . S
C99 C98 1.400 . S
C99 N101 1.325 . S
C99 C106 1.503 . S
N100 C97 1.356 . S
N100 N101 1.365 . S
N100 Cu169 1.941 . S
N101 C99 1.325 . S
N101 N100 1.365 . S
N101 Cu178 1.924 . S
H102 C105 0.980 . S
H103 C105 0.980 . S
H104 C105 0.980 . S
C105 C97 1.481 . S
C105 H102 0.980 . S
C105 H103 0.980 . S
C105 H104 0.980 . S
C106 C99 1.503 . S
C106 H107 0.978 . S
C106 H108 0.978 . S
C106 H109 0.983 . S
H107 C106 0.978 . S
H108 C106 0.978 . S
H109 C106 0.983 . S
C110 H198 0.979 . S
C110 H199 0.981 . S
C110 H200 0.981 . S
C110 O222 1.438 . S
C111 H201 0.980 . S
C111 H202 0.979 . S
C111 H203 0.980 . S
C111 O223 1.533 . S
C112 C113 1.388 . S
C112 N115 1.338 . S
C112 C117 1.503 . S
C113 C112 1.388 . S
C113 C114 1.396 . S
C114 C113 1.396 . S
C114 N116 1.348 . S
C114 C121 1.504 . S
N115 C112 1.338 . S
N115 N116 1.361 . S
N115 Cu176 1.924 . S
N116 C114 1.348 . S
N116 N115 1.361 . S
N116 Cu177 1.964 . S
C117 C112 1.503 . S
C117 H118 0.979 . S
C117 H119 0.979 . S
C117 H120 0.979 . S
H118 C117 0.979 . S
H119 C117 0.979 . S
H120 C117 0.979 . S
C121 C114 1.504 . S
C121 H122 0.981 . S
C121 H123 0.980 . S
C121 H124 0.979 . S
H122 C121 0.981 . S
H123 C121 0.980 . S
H124 C121 0.979 . S
C125 C126 1.402 . S
C125 N128 1.356 . S
C125 C130 1.481 . S
C126 C125 1.402 . S
C126 C127 1.400 . S
C127 C126 1.400 . S
C127 N129 1.325 . S
C127 C134 1.503 1_655 S
N128 C125 1.356 . S
N128 N129 1.365 . S
N128 Cu171 1.941 . S
N129 C127 1.325 . S
N129 N128 1.365 . S
N129 Cu174 1.924 . S
C130 C125 1.481 . S
C130 H131 0.980 . S
C130 H132 0.980 . S
C130 H133 0.980 . S
H131 C130 0.980 . S
H132 C130 0.980 . S
H133 C130 0.980 . S
C134 C127 1.503 1_455 S
C134 H135 0.978 . S
C134 H136 0.978 . S
C134 H137 0.983 . S
H135 C134 0.978 . S
H136 C134 0.978 . S
H137 C134 0.983 . S
C138 H204 0.979 . S
C138 H205 0.981 . S
C138 H206 0.981 . S
C138 O224 1.438 . S
C139 H207 0.980 . S
C139 H208 0.979 . S
C139 H209 0.980 . S
C139 O225 1.533 . S
C140 N141 1.338 . S
C140 C143 1.388 . S
C140 C148 1.503 . S
N141 C140 1.338 . S
N141 N142 1.361 . S
N141 Cu178 1.924 . S
N142 N141 1.361 . S
N142 C144 1.348 . S
N142 Cu179 1.964 . S
C143 C140 1.388 . S
C143 C144 1.396 . S
C144 N142 1.348 . S
C144 C143 1.396 . S
C144 C152 1.504 . S
H145 C148 0.979 . S
H146 C148 0.979 . S
H147 C148 0.979 . S
C148 C140 1.503 . S
C148 H145 0.979 . S
C148 H146 0.979 . S
C148 H147 0.979 . S
H149 C152 0.981 . S
H150 C152 0.980 . S
H151 C152 0.979 . S
C152 C144 1.504 . S
C152 H149 0.981 . S
C152 H150 0.980 . S
C152 H151 0.979 . S
C153 N154 1.356 . S
C153 C156 1.402 . S
C153 C158 1.481 . S
N154 C153 1.356 . S
N154 N155 1.365 . S
N154 Cu173 1.941 . S
N155 N154 1.365 . S
N155 C157 1.325 . S
N155 Cu176 1.924 . S
C156 C153 1.402 . S
C156 C157 1.400 . S
C157 N155 1.325 . S
C157 C156 1.400 . S
C157 C162 1.503 . S
C158 C153 1.481 . S
C158 H159 0.980 . S
C158 H160 0.980 . S
C158 H161 0.980 . S
H159 C158 0.980 . S
H160 C158 0.980 . S
H161 C158 0.980 . S
C162 C157 1.503 . S
C162 H163 0.978 . S
C162 H164 0.978 . S
C162 H165 0.983 . S
H163 C162 0.978 . S
H164 C162 0.978 . S
H165 C162 0.983 . S
C166 H210 0.979 . S
C166 H211 0.981 . S
C166 H212 0.981 . S
C166 O226 1.438 . S
C167 H213 0.980 . S
C167 H214 0.979 . S
C167 H215 0.980 . S
C167 O227 1.533 . S
Cu168 N3 1.924 . S
Cu168 N44 1.924 . S
Cu168 O216 1.923 . S
Cu168 O217 1.930 . S
Cu169 N4 1.964 . S
Cu169 N100 1.941 . S
Cu169 O216 1.905 . S
Cu169 O227 1.920 . S
Cu170 N29 1.924 . S
Cu170 N72 1.924 . S
Cu170 O218 1.923 . S
Cu170 O219 1.930 . S
Cu171 N30 1.964 . S
Cu171 N128 1.941 . S
Cu171 O218 1.905 . S
Cu171 O223 1.920 . S
Cu172 N17 1.924 . S
Cu172 N57 1.924 . S
Cu172 O220 1.923 . S
Cu172 O221 1.930 . S
Cu173 N59 1.964 . S
Cu173 N154 1.941 . S
Cu173 O220 1.905 . S
Cu173 O225 1.920 . S
Cu174 N85 1.924 . S
Cu174 N129 1.924 . S
Cu174 O222 1.923 . S
Cu174 O223 1.930 . S
Cu175 N16 1.941 . S
Cu175 N88 1.964 . S
Cu175 O221 1.920 . S
Cu175 O222 1.905 . S
Cu176 N115 1.924 . S
Cu176 N155 1.924 . S
Cu176 O224 1.923 . S
Cu176 O225 1.930 . S
Cu177 N43 1.941 . S
Cu177 N116 1.964 . S
Cu177 O217 1.920 . S
Cu177 O224 1.905 . S
Cu178 N101 1.924 . S
Cu178 N141 1.924 . S
Cu178 O226 1.923 . S
Cu178 O227 1.930 . S
Cu179 N71 1.941 . S
Cu179 N142 1.964 . S
Cu179 O219 1.920 . S
Cu179 O226 1.905 . S
H180 C26 0.979 . S
H181 C26 0.981 . S
H182 C26 0.981 . S
H183 C27 0.980 . S
H184 C27 0.979 . S
H185 C27 0.980 . S
H186 C54 0.979 . S
H187 C54 0.981 . S
H188 C54 0.981 . S
H189 C55 0.980 . S
H190 C55 0.979 . S
H191 C55 0.980 . S
H192 C82 0.979 . S
H193 C82 0.981 . S
H194 C82 0.981 . S
H195 C83 0.980 . S
H196 C83 0.979 . S
H197 C83 0.980 . S
H198 C110 0.979 . S
H199 C110 0.981 . S
H200 C110 0.981 . S
H201 C111 0.980 . S
H202 C111 0.979 . S
H203 C111 0.980 . S
H204 C138 0.979 . S
H205 C138 0.981 . S
H206 C138 0.981 . S
H207 C139 0.980 . S
H208 C139 0.979 . S
H209 C139 0.980 . S
H210 C166 0.979 . S
H211 C166 0.981 . S
H212 C166 0.981 . S
H213 C167 0.980 . S
H214 C167 0.979 . S
H215 C167 0.980 . S
O216 C26 1.438 . S
O216 Cu168 1.923 . S
O216 Cu169 1.905 . S
O217 C27 1.533 . S
O217 Cu168 1.930 . S
O217 Cu177 1.920 . S
O218 C54 1.438 . S
O218 Cu170 1.923 . S
O218 Cu171 1.905 . S
O219 C55 1.533 . S
O219 Cu170 1.930 . S
O219 Cu179 1.920 . S
O220 C82 1.438 . S
O220 Cu172 1.923 . S
O220 Cu173 1.905 . S
O221 C83 1.533 . S
O221 Cu172 1.930 . S
O221 Cu175 1.920 . S
O222 C110 1.438 . S
O222 Cu174 1.923 . S
O222 Cu175 1.905 . S
O223 C111 1.533 . S
O223 Cu171 1.920 . S
O223 Cu174 1.930 . S
O224 C138 1.438 . S
O224 Cu176 1.923 . S
O224 Cu177 1.905 . S
O225 C139 1.533 . S
O225 Cu173 1.920 . S
O225 Cu176 1.930 . S
O226 C166 1.438 . S
O226 Cu178 1.923 . S
O226 Cu179 1.905 . S
O227 C167 1.533 . S
O227 Cu169 1.920 . S
O227 Cu178 1.930 . S
C228 C229 1.388 . S
C228 N231 1.338 . S
C228 C233 1.503 . S
C229 C228 1.388 . S
C229 C230 1.396 . S
C230 C229 1.396 . S
C230 N232 1.348 . S
C230 C237 1.504 . S
N231 C228 1.338 . S
N231 N232 1.361 . S
N231 Cu396 1.924 . S
N232 C230 1.348 . S
N232 N231 1.361 . S
N232 Cu397 1.964 . S
C233 C228 1.503 . S
C233 H234 0.990 . S
C233 H235 0.979 1_455 S
C233 H236 0.979 . S
H234 C233 0.990 . S
H235 C233 0.979 1_655 S
H236 C233 0.979 . S
C237 C230 1.504 . S
C237 H238 0.981 . S
C237 H239 0.980 . S
C237 H240 0.979 . S
H238 C237 0.981 . S
H239 C237 0.980 . S
H240 C237 0.979 . S
C241 C243 1.402 . S
C241 N244 1.356 . S
C241 C249 1.481 . S
C242 C243 1.400 . S
C242 N245 1.325 . S
C242 C253 1.503 . S
C243 C241 1.402 . S
C243 C242 1.400 . S
N244 C241 1.356 . S
N244 N245 1.365 . S
N244 Cu403 1.941 . S
N245 C242 1.325 . S
N245 N244 1.365 . S
N245 Cu400 1.924 . S
H246 C249 0.980 . S
H247 C249 0.980 . S
H248 C249 0.980 . S
C249 C241 1.481 . S
C249 H246 0.980 . S
C249 H247 0.980 . S
C249 H248 0.980 . S
H250 C253 0.978 . S
H251 C253 0.978 . S
H252 C253 0.983 . S
C253 C242 1.503 . S
C253 H250 0.978 . S
C253 H251 0.978 . S
C253 H252 0.983 . S
C254 H408 0.979 . S
C254 H409 0.981 . S
C254 H410 0.981 . S
C254 O444 1.438 . S
C255 H411 0.980 . S
C255 H412 0.979 . S
C255 H413 0.980 . S
C255 O445 1.533 . S
C256 N257 1.338 . S
C256 C259 1.388 . S
C256 C264 1.503 . S
N257 C256 1.338 . S
N257 N258 1.361 . S
N257 Cu398 1.924 . S
N258 N257 1.361 . S
N258 C260 1.348 . S
N258 Cu399 1.964 . S
C259 C256 1.388 . S
C259 C260 1.396 . S
C260 N258 1.348 . S
C260 C259 1.396 . S
C260 C268 1.504 . S
H261 C264 0.979 . S
H262 C264 0.979 . S
H263 C264 0.979 . S
C264 C256 1.503 . S
C264 H261 0.979 . S
C264 H262 0.979 . S
C264 H263 0.979 . S
H265 C268 0.981 . S
H266 C268 0.980 . S
H267 C268 0.979 . S
C268 C260 1.504 . S
C268 H265 0.981 . S
C268 H266 0.980 . S
C268 H267 0.979 . S
C269 N271 1.356 . S
C269 C273 1.402 . S
C269 C277 1.481 . S
C270 N272 1.325 . S
C270 C273 1.400 . S
C270 C278 1.503 1_455 S
N271 C269 1.356 . S
N271 N272 1.365 . S
N271 Cu405 1.941 . S
N272 C270 1.325 . S
N272 N271 1.365 . S
N272 Cu396 1.924 . S
C273 C269 1.402 . S
C273 C270 1.400 . S
H274 C277 0.980 . S
H275 C277 0.980 . S
H276 C277 0.980 . S
C277 C269 1.481 . S
C277 H274 0.980 . S
C277 H275 0.980 . S
C277 H276 0.980 . S
C278 C270 1.503 1_655 S
C278 H279 0.978 . S
C278 H280 0.978 . S
C278 H281 0.983 . S
H279 C278 0.978 . S
H280 C278 0.978 . S
H281 C278 0.983 . S
C282 H414 0.979 . S
C282 H415 0.981 . S
C282 H416 0.981 . S
C282 O446 1.438 . S
C283 H417 0.980 . S
C283 H418 0.979 . S
C283 H419 0.980 . S
C283 O447 1.533 . S
C284 N285 1.338 . S
C284 C286 1.388 . S
C284 C292 1.503 . S
N285 C284 1.338 . S
N285 N287 1.361 . S
N285 Cu400 1.924 . S
C286 C284 1.388 . S
C286 C288 1.396 . S
N287 N285 1.361 . S
N287 C288 1.348 . S
N287 Cu401 1.964 . S
C288 C286 1.396 . S
C288 N287 1.348 . S
C288 C294 1.504 . S
H289 C292 0.979 . S
H290 C292 0.979 . S
H291 C292 0.979 . S
C292 C284 1.503 . S
C292 H289 0.979 . S
C292 H290 0.979 . S
C292 H291 0.979 . S
H293 C294 0.981 . S
C294 C288 1.504 . S
C294 H293 0.981 . S
C294 H295 0.979 . S
C294 H296 0.980 . S
H295 C294 0.979 . S
H296 C294 0.980 . S
C297 N299 1.356 . S
C297 C301 1.402 . S
C297 C303 1.481 . S
C298 N300 1.325 . S
C298 C301 1.400 . S
C298 C308 1.503 . S
N299 C297 1.356 . S
N299 N300 1.365 . S
N299 Cu407 1.941 . S
N300 C298 1.325 . S
N300 N299 1.365 . S
N300 Cu398 1.924 . S
C301 C297 1.402 . S
C301 C298 1.400 . S
H302 C303 0.980 . S
C303 C297 1.481 . S
C303 H302 0.980 . S
C303 H304 0.980 . S
C303 H305 0.980 . S
H304 C303 0.980 . S
H305 C303 0.980 . S
H306 C308 0.978 . S
H307 C308 0.978 . S
C308 C298 1.503 . S
C308 H306 0.978 . S
C308 H307 0.978 . S
C308 H309 0.983 . S
H309 C308 0.983 . S
C310 H420 0.979 . S
C310 H421 0.981 . S
C310 H422 0.981 . S
C310 O448 1.438 . S
C311 H423 0.980 . S
C311 H424 0.979 . S
C311 H425 0.980 . S
C311 O449 1.533 . S
C312 N313 1.338 . S
C312 C314 1.388 . S
C312 C317 1.503 . S
N313 C312 1.338 . S
N313 N316 1.361 . S
N313 Cu402 1.924 . S
C314 C312 1.388 . S
C314 C315 1.396 . S
C315 C314 1.396 . S
C315 N316 1.348 . S
C315 C321 1.504 . S
N316 N313 1.361 . S
N316 C315 1.348 . S
N316 Cu403 1.964 . S
C317 C312 1.503 . S
C317 H318 0.979 . S
C317 H319 0.979 . S
C317 H320 0.979 . S
H318 C317 0.979 . S
H319 C317 0.979 . S
H320 C317 0.979 . S
C321 C315 1.504 . S
C321 H322 0.981 . S
C321 H323 0.980 . S
C321 H324 0.979 . S
H322 C321 0.981 . S
H323 C321 0.980 . S
H324 C321 0.979 . S
C325 C326 1.402 . S
C325 N328 1.356 . S
C325 C333 1.481 . S
C326 C325 1.402 . S
C326 C327 1.400 . S
C327 C326 1.400 . S
C327 N329 1.325 . S
C327 C334 1.503 . S
N328 C325 1.356 . S
N328 N329 1.365 . S
N328 Cu397 1.941 . S
N329 C327 1.325 . S
N329 N328 1.365 . S
N329 Cu406 1.924 . S
H330 C333 0.980 1_655 S
H331 C333 0.980 1_655 S
H332 C333 0.981 . S
C333 C325 1.481 . S
C333 H330 0.980 1_455 S
C333 H331 0.980 1_455 S
C333 H332 0.981 . S
C334 C327 1.503 . S
C334 H335 0.978 . S
C334 H336 0.978 . S
C334 H337 0.983 . S
H335 C334 0.978 . S
H336 C334 0.978 . S
H337 C334 0.983 . S
C338 H426 0.979 . S
C338 H427 0.981 . S
C338 H428 0.981 . S
C338 O450 1.438 . S
C339 H429 0.980 . S
C339 H430 0.979 . S
C339 H431 0.980 . S
C339 O451 1.533 . S
C340 C341 1.388 . S
C340 N343 1.338 . S
C340 C345 1.503 . S
C341 C340 1.388 . S
C341 C342 1.396 . S
C342 C341 1.396 . S
C342 N344 1.348 . S
C342 C349 1.504 . S
N343 C340 1.338 . S
N343 N344 1.361 . S
N343 Cu404 1.924 . S
N344 C342 1.348 . S
N344 N343 1.361 . S
N344 Cu405 1.964 . S
C345 C340 1.503 . S
C345 H346 0.979 . S
C345 H347 0.979 . S
C345 H348 0.979 . S
H346 C345 0.979 . S
H347 C345 0.979 . S
H348 C345 0.979 . S
C349 C342 1.504 . S
C349 H350 0.981 . S
C349 H351 0.980 . S
C349 H352 0.979 . S
H350 C349 0.981 . S
H351 C349 0.980 . S
H352 C349 0.979 . S
C353 C354 1.402 . S
C353 N356 1.356 . S
C353 C358 1.481 . S
C354 C353 1.402 . S
C354 C355 1.400 . S
C355 C354 1.400 . S
C355 N357 1.325 . S
C355 C362 1.503 . S
N356 C353 1.356 . S
N356 N357 1.365 . S
N356 Cu399 1.941 . S
N357 C355 1.325 . S
N357 N356 1.365 . S
N357 Cu402 1.924 . S
C358 C353 1.481 . S
C358 H359 0.980 . S
C358 H360 0.980 . S
C358 H361 0.980 . S
H359 C358 0.980 . S
H360 C358 0.980 . S
H361 C358 0.980 . S
C362 C355 1.503 . S
C362 H363 0.978 . S
C362 H364 0.978 . S
C362 H365 0.983 . S
H363 C362 0.978 . S
H364 C362 0.978 . S
H365 C362 0.983 . S
C366 H432 0.979 . S
C366 H433 0.981 . S
C366 H434 0.981 . S
C366 O452 1.438 . S
C367 H435 0.980 . S
C367 H436 0.979 . S
C367 H437 0.980 . S
C367 O453 1.533 . S
C368 N369 1.338 . S
C368 C371 1.388 . S
C368 C376 1.503 . S
N369 C368 1.338 . S
N369 N370 1.361 . S
N369 Cu406 1.924 . S
N370 N369 1.361 . S
N370 C372 1.348 . S
N370 Cu407 1.964 . S
C371 C368 1.388 . S
C371 C372 1.396 . S
C372 N370 1.348 . S
C372 C371 1.396 . S
C372 C380 1.504 . S
H373 C376 0.979 . S
H374 C376 0.979 . S
H375 C376 0.979 . S
C376 C368 1.503 . S
C376 H373 0.979 . S
C376 H374 0.979 . S
C376 H375 0.979 . S
H377 C380 0.981 . S
H378 C380 0.980 . S
H379 C380 0.979 . S
C380 C372 1.504 . S
C380 H377 0.981 . S
C380 H378 0.980 . S
C380 H379 0.979 . S
C381 N382 1.356 . S
C381 C384 1.402 . S
C381 C386 1.481 . S
N382 C381 1.356 . S
N382 N383 1.365 . S
N382 Cu401 1.941 . S
N383 N382 1.365 . S
N383 C385 1.325 . S
N383 Cu404 1.924 . S
C384 C381 1.402 . S
C384 C385 1.400 . S
C385 N383 1.325 . S
C385 C384 1.400 . S
C385 C390 1.503 . S
C386 C381 1.481 . S
C386 H387 0.980 . S
C386 H388 0.980 . S
C386 H389 0.980 . S
H387 C386 0.980 . S
H388 C386 0.980 . S
H389 C386 0.980 . S
C390 C385 1.503 . S
C390 H391 0.978 . S
C390 H392 0.978 . S
C390 H393 0.983 . S
H391 C390 0.978 . S
H392 C390 0.978 . S
H393 C390 0.983 . S
C394 H438 0.979 . S
C394 H439 0.981 . S
C394 H440 0.981 . S
C394 O454 1.438 . S
C395 H441 0.980 . S
C395 H442 0.979 . S
C395 H443 0.980 . S
C395 O455 1.533 . S
Cu396 N231 1.924 . S
Cu396 N272 1.924 . S
Cu396 O444 1.923 . S
Cu396 O445 1.930 . S
Cu397 N232 1.964 . S
Cu397 N328 1.941 . S
Cu397 O444 1.905 . S
Cu397 O455 1.920 . S
Cu398 N257 1.924 . S
Cu398 N300 1.924 . S
Cu398 O446 1.923 . S
Cu398 O447 1.930 . S
Cu399 N258 1.964 . S
Cu399 N356 1.941 . S
Cu399 O446 1.905 . S
Cu399 O451 1.920 . S
Cu400 N245 1.924 . S
Cu400 N285 1.924 . S
Cu400 O448 1.923 . S
Cu400 O449 1.930 . S
Cu401 N287 1.964 . S
Cu401 N382 1.941 . S
Cu401 O448 1.905 . S
Cu401 O453 1.920 . S
Cu402 N313 1.924 . S
Cu402 N357 1.924 . S
Cu402 O450 1.923 . S
Cu402 O451 1.930 . S
Cu403 N244 1.941 . S
Cu403 N316 1.964 . S
Cu403 O449 1.920 . S
Cu403 O450 1.905 . S
Cu404 N343 1.924 . S
Cu404 N383 1.924 . S
Cu404 O452 1.923 . S
Cu404 O453 1.930 . S
Cu405 N271 1.941 . S
Cu405 N344 1.964 . S
Cu405 O445 1.920 . S
Cu405 O452 1.905 . S
Cu406 N329 1.924 . S
Cu406 N369 1.924 . S
Cu406 O454 1.923 . S
Cu406 O455 1.930 . S
Cu407 N299 1.941 . S
Cu407 N370 1.964 . S
Cu407 O447 1.920 . S
Cu407 O454 1.905 . S
H408 C254 0.979 . S
H409 C254 0.981 . S
H410 C254 0.981 . S
H411 C255 0.980 . S
H412 C255 0.979 . S
H413 C255 0.980 . S
H414 C282 0.979 . S
H415 C282 0.981 . S
H416 C282 0.981 . S
H417 C283 0.980 . S
H418 C283 0.979 . S
H419 C283 0.980 . S
H420 C310 0.979 . S
H421 C310 0.981 . S
H422 C310 0.981 . S
H423 C311 0.980 . S
H424 C311 0.979 . S
H425 C311 0.980 . S
H426 C338 0.979 . S
H427 C338 0.981 . S
H428 C338 0.981 . S
H429 C339 0.980 . S
H430 C339 0.979 . S
H431 C339 0.980 . S
H432 C366 0.979 . S
H433 C366 0.981 . S
H434 C366 0.981 . S
H435 C367 0.980 . S
H436 C367 0.979 . S
H437 C367 0.980 . S
H438 C394 0.979 . S
H439 C394 0.981 . S
H440 C394 0.981 . S
H441 C395 0.980 . S
H442 C395 0.979 . S
H443 C395 0.980 . S
O444 C254 1.438 . S
O444 Cu396 1.923 . S
O444 Cu397 1.905 . S
O445 C255 1.533 . S
O445 Cu396 1.930 . S
O445 Cu405 1.920 . S
O446 C282 1.438 . S
O446 Cu398 1.923 . S
O446 Cu399 1.905 . S
O447 C283 1.533 . S
O447 Cu398 1.930 . S
O447 Cu407 1.920 . S
O448 C310 1.438 . S
O448 Cu400 1.923 . S
O448 Cu401 1.905 . S
O449 C311 1.533 . S
O449 Cu400 1.930 . S
O449 Cu403 1.920 . S
O450 C338 1.438 . S
O450 Cu402 1.923 . S
O450 Cu403 1.905 . S
O451 C339 1.533 . S
O451 Cu399 1.920 . S
O451 Cu402 1.930 . S
O452 C366 1.438 . S
O452 Cu404 1.923 . S
O452 Cu405 1.905 . S
O453 C367 1.533 . S
O453 Cu401 1.920 . S
O453 Cu404 1.930 . S
O454 C394 1.438 . S
O454 Cu406 1.923 . S
O454 Cu407 1.905 . S
O455 C395 1.533 . S
O455 Cu397 1.920 . S
O455 Cu406 1.930 . S
C456 C457 1.391 . S
C456 C458 1.394 . S
C456 H472 0.931 . S
C457 C456 1.391 . S
C457 C461 1.376 . S
C458 C456 1.394 . S
C458 C459 1.369 . S
C458 C462 1.531 1_556 S
C459 C458 1.369 . S
C459 C460 1.410 . S
C459 C467 1.503 1_566 S
C460 C459 1.410 . S
C460 C461 1.392 . S
C460 C463 1.511 1_565 S
C461 C457 1.376 . S
C461 C460 1.392 . S
C461 H473 0.929 . S
C462 C458 1.531 1_554 S
C462 H474 0.960 . S
C462 H475 0.962 . S
C462 H476 0.960 . S
C463 C460 1.511 1_545 S
C463 H477 0.961 . S
C463 H478 0.961 . S
C463 H479 0.961 1_545 S
C464 C465 1.370 . S
C464 C466 1.363 . S
C464 H480 0.931 . S
C465 C464 1.370 . S
C465 C469 1.408 . S
C466 C464 1.363 . S
C466 C467 1.370 . S
C466 C470 1.524 . S
C467 C459 1.503 1_544 S
C467 C466 1.370 . S
C467 C468 1.403 1_545 S
C468 C467 1.403 1_565 S
C468 C469 1.404 1_565 S
C468 C471 1.539 . S
C469 C465 1.408 . S
C469 C468 1.404 1_545 S
C469 H481 0.930 . S
C470 C466 1.524 . S
C470 H482 0.956 1_554 S
C470 H483 0.961 1_554 S
C470 H484 0.961 . S
C471 C468 1.539 . S
C471 H485 0.958 . S
C471 H486 0.961 . S
C471 H487 0.960 . S
H472 C456 0.931 . S
H473 C461 0.929 . S
H474 C462 0.960 . S
H475 C462 0.962 . S
H476 C462 0.960 . S
H477 C463 0.961 . S
H478 C463 0.961 . S
H479 C463 0.961 1_565 S
H480 C464 0.931 . S
H481 C469 0.930 . S
H482 C470 0.956 1_556 S
H483 C470 0.961 1_556 S
H484 C470 0.961 . S
H485 C471 0.958 . S
H486 C471 0.961 . S
H487 C471 0.960 . S
C488 C489 1.391 . S
C488 C490 1.394 . S
C488 H504 0.931 . S
C489 C488 1.391 . S
C489 C493 1.376 . S
C490 C488 1.394 . S
C490 C491 1.369 . S
C490 C494 1.531 . S
C491 C490 1.369 . S
C491 C492 1.410 . S
C491 C499 1.503 . S
C492 C491 1.410 . S
C492 C493 1.392 . S
C492 C495 1.511 . S
C493 C489 1.376 . S
C493 C492 1.392 . S
C493 H505 0.929 . S
C494 C490 1.531 . S
C494 H506 0.960 . S
C494 H507 0.962 . S
C494 H508 0.960 . S
C495 C492 1.511 . S
C495 H509 0.961 . S
C495 H510 0.961 . S
C495 H511 0.961 . S
C496 C497 1.370 . S
C496 C498 1.363 . S
C496 H512 0.931 . S
C497 C496 1.370 . S
C497 C501 1.408 . S
C498 C496 1.363 . S
C498 C499 1.370 . S
C498 C502 1.524 . S
C499 C491 1.503 . S
C499 C498 1.370 . S
C499 C500 1.403 . S
C500 C499 1.403 . S
C500 C501 1.404 . S
C500 C503 1.539 . S
C501 C497 1.408 . S
C501 C500 1.404 . S
C501 H513 0.930 . S
C502 C498 1.524 . S
C502 H514 0.956 . S
C502 H515 0.961 . S
C502 H516 0.961 . S
C503 C500 1.539 . S
C503 H517 0.958 . S
C503 H518 0.961 . S
C503 H519 0.960 . S
H504 C488 0.931 . S
H505 C493 0.929 . S
H506 C494 0.960 . S
H507 C494 0.962 . S
H508 C494 0.960 . S
H509 C495 0.961 . S
H510 C495 0.961 . S
H511 C495 0.961 . S
H512 C496 0.931 . S
H513 C501 0.930 . S
H514 C502 0.956 . S
H515 C502 0.961 . S
H516 C502 0.961 . S
H517 C503 0.958 . S
H518 C503 0.961 . S
H519 C503 0.960 . S
C520 C521 1.391 1_455 S
C520 C522 1.394 . S
C520 H536 0.931 . S
C521 C520 1.391 1_655 S
C521 C525 1.376 . S
C522 C520 1.394 . S
C522 C523 1.369 1_455 S
C522 C526 1.531 . S
C523 C522 1.369 1_655 S
C523 C524 1.410 . S
C523 C531 1.503 1_654 S
C524 C523 1.410 . S
C524 C525 1.392 . S
C524 C527 1.511 1_554 S
C525 C521 1.376 . S
C525 C524 1.392 . S
C525 H537 0.929 . S
C526 C522 1.531 . S
C526 H538 0.960 . S
C526 H539 0.962 . S
C526 H540 0.960 . S
C527 C524 1.511 1_556 S
C527 H541 0.961 . S
C527 H542 0.961 . S
C527 H543 0.961 . S
C528 C529 1.370 . S
C528 C530 1.363 . S
C528 H544 0.931 . S
C529 C528 1.370 . S
C529 C533 1.408 . S
C530 C528 1.363 . S
C530 C531 1.370 . S
C530 C534 1.524 . S
C531 C523 1.503 1_456 S
C531 C530 1.370 . S
C531 C532 1.403 . S
C532 C531 1.403 . S
C532 C533 1.404 . S
C532 C535 1.539 1_456 S
C533 C529 1.408 . S
C533 C532 1.404 . S
C533 H545 0.930 . S
C534 C530 1.524 . S
C534 H546 0.956 . S
C534 H547 0.961 1_455 S
C534 H548 0.961 . S
C535 C532 1.539 1_654 S
C535 H549 0.958 1_655 S
C535 H550 0.961 1_554 S
C535 H551 0.960 . S
H536 C520 0.931 . S
H537 C525 0.929 . S
H538 C526 0.960 . S
H539 C526 0.962 . S
H540 C526 0.960 . S
H541 C527 0.961 . S
H542 C527 0.961 . S
H543 C527 0.961 . S
H544 C528 0.931 . S
H545 C533 0.930 . S
H546 C534 0.956 . S
H547 C534 0.961 1_655 S
H548 C534 0.961 . S
H549 C535 0.958 1_455 S
H550 C535 0.961 1_556 S
H551 C535 0.960 . S
C552 C553 1.391 . S
C552 C554 1.394 1_565 S
C552 H568 0.931 . S
C553 C552 1.391 . S
C553 C557 1.376 . S
C554 C552 1.394 1_545 S
C554 C555 1.369 . S
C554 C558 1.531 . S
C555 C554 1.369 . S
C555 C556 1.410 1_545 S
C555 C563 1.503 . S
C556 C555 1.410 1_565 S
C556 C557 1.392 . S
C556 C559 1.511 1_565 S
C557 C553 1.376 . S
C557 C556 1.392 . S
C557 H569 0.929 . S
C558 C554 1.531 . S
C558 H570 0.960 . S
C558 H571 0.962 1_545 S
C558 H572 0.960 . S
C559 C556 1.511 1_545 S
C559 H573 0.961 1_545 S
C559 H574 0.961 1_545 S
C559 H575 0.961 . S
C560 C561 1.370 1_565 S
C560 C562 1.363 . S
C560 H576 0.931 . S
C561 C560 1.370 1_545 S
C561 C565 1.408 . S
C562 C560 1.363 . S
C562 C563 1.370 1_565 S
C562 C566 1.524 . S
C563 C555 1.503 . S
C563 C562 1.370 1_545 S
C563 C564 1.403 . S
C564 C563 1.403 . S
C564 C565 1.404 . S
C564 C567 1.539 . S
C565 C561 1.408 . S
C565 C564 1.404 . S
C565 H577 0.930 . S
C566 C562 1.524 . S
C566 H578 0.956 . S
C566 H579 0.961 . S
C566 H580 0.961 . S
C567 C564 1.539 . S
C567 H581 0.958 . S
C567 H582 0.961 . S
C567 H583 0.960 . S
H568 C552 0.931 . S
H569 C557 0.929 . S
H570 C558 0.960 . S
H571 C558 0.962 1_565 S
H572 C558 0.960 . S
H573 C559 0.961 1_565 S
H574 C559 0.961 1_565 S
H575 C559 0.961 . S
H576 C560 0.931 . S
H577 C565 0.930 . S
H578 C566 0.956 . S
H579 C566 0.961 . S
H580 C566 0.961 . S
H581 C567 0.958 . S
H582 C567 0.961 . S
H583 C567 0.960 . S
C584 C585 1.391 . S
C584 C586 1.394 . S
C584 H600 0.931 . S
C585 C584 1.391 . S
C585 C589 1.376 . S
C586 C584 1.394 . S
C586 C587 1.369 . S
C586 C590 1.531 . S
C587 C586 1.369 . S
C587 C588 1.410 . S
C587 C595 1.503 1_554 S
C588 C587 1.410 . S
C588 C589 1.392 . S
C588 C591 1.511 . S
C589 C585 1.376 . S
C589 C588 1.392 . S
C589 H601 0.929 . S
C590 C586 1.531 . S
C590 H602 0.960 . S
C590 H603 0.962 1_554 S
C590 H604 0.960 . S
C591 C588 1.511 . S
C591 H605 0.961 . S
C591 H606 0.961 . S
C591 H607 0.961 . S
C592 C593 1.370 . S
C592 C594 1.363 . S
C592 H608 0.931 . S
C593 C592 1.370 . S
C593 C597 1.408 . S
C594 C592 1.363 . S
C594 C595 1.370 . S
C594 C598 1.524 . S
C595 C587 1.503 1_556 S
C595 C594 1.370 . S
C595 C596 1.403 1_556 S
C596 C595 1.403 1_554 S
C596 C597 1.404 1_554 S
C596 C599 1.539 . S
C597 C593 1.408 . S
C597 C596 1.404 1_556 S
C597 H609 0.930 1_556 S
C598 C594 1.524 . S
C598 H610 0.956 . S
C598 H611 0.961 . S
C598 H612 0.961 . S
C599 C596 1.539 . S
C599 H613 0.958 . S
C599 H614 0.961 . S
C599 H615 0.960 . S
H600 C584 0.931 . S
H601 C589 0.929 . S
H602 C590 0.960 . S
H603 C590 0.962 1_556 S
H604 C590 0.960 . S
H605 C591 0.961 . S
H606 C591 0.961 . S
H607 C591 0.961 . S
H608 C592 0.931 . S
H609 C597 0.930 1_554 S
H610 C598 0.956 . S
H611 C598 0.961 . S
H612 C598 0.961 . S
H613 C599 0.958 . S
H614 C599 0.961 . S
H615 C599 0.960 . S
C616 C617 1.391 . S
C616 C618 1.394 . S
C616 H632 0.931 . S
C617 C616 1.391 . S
C617 C621 1.376 . S
C618 C616 1.394 . S
C618 C619 1.369 . S
C618 C622 1.531 1_655 S
C619 C618 1.369 . S
C619 C620 1.410 . S
C619 C627 1.503 1_655 S
C620 C619 1.410 . S
C620 C621 1.392 . S
C620 C623 1.511 . S
C621 C617 1.376 . S
C621 C620 1.392 . S
C621 H633 0.929 . S
C622 C618 1.531 1_455 S
C622 H634 0.960 . S
C622 H635 0.962 1_455 S
C622 H636 0.960 . S
C623 C620 1.511 . S
C623 H637 0.961 . S
C623 H638 0.961 . S
C623 H639 0.961 . S
C624 C625 1.370 . S
C624 C626 1.363 . S
C624 H640 0.931 . S
C625 C624 1.370 . S
C625 C629 1.408 . S
C626 C624 1.363 . S
C626 C627 1.370 . S
C626 C630 1.524 1_455 S
C627 C619 1.503 1_455 S
C627 C626 1.370 . S
C627 C628 1.403 . S
C628 C627 1.403 . S
C628 C629 1.404 . S
C628 C631 1.539 . S
C629 C625 1.408 . S
C629 C628 1.404 . S
C629 H641 0.930 . S
C630 C626 1.524 1_655 S
C630 H642 0.956 . S
C630 H643 0.961 . S
C630 H644 0.961 . S
C631 C628 1.539 . S
C631 H645 0.958 . S
C631 H646 0.961 . S
C631 H647 0.960 . S
H632 C616 0.931 . S
H633 C621 0.929 . S
H634 C622 0.960 . S
H635 C622 0.962 1_655 S
H636 C622 0.960 . S
H637 C623 0.961 . S
H638 C623 0.961 . S
H639 C623 0.961 . S
H640 C624 0.931 . S
H641 C629 0.930 . S
H642 C630 0.956 . S
H643 C630 0.961 . S
H644 C630 0.961 . S
H645 C631 0.958 . S
H646 C631 0.961 . S
H647 C631 0.960 . S
C648 C649 1.391 1_565 S
C648 C650 1.394 . S
C648 H664 0.931 . S
C649 C648 1.391 1_545 S
C649 C653 1.376 . S
C650 C648 1.394 . S
C650 C651 1.369 . S
C650 C654 1.531 . S
C651 C650 1.369 . S
C651 C652 1.410 . S
C651 C659 1.503 . S
C652 C651 1.410 . S
C652 C653 1.392 1_565 S
C652 C655 1.511 . S
C653 C649 1.376 . S
C653 C652 1.392 1_545 S
C653 H665 0.929 . S
C654 C650 1.531 . S
C654 H666 0.960 . S
C654 H667 0.962 . S
C654 H668 0.960 . S
C655 C652 1.511 . S
C655 H669 0.961 . S
C655 H670 0.961 . S
C655 H671 0.961 . S
C656 C657 1.370 . S
C656 C658 1.363 . S
C656 H672 0.931 . S
C657 C656 1.370 . S
C657 C661 1.408 . S
C658 C656 1.363 . S
C658 C659 1.370 . S
C658 C662 1.524 . S
C659 C651 1.503 . S
C659 C658 1.370 . S
C659 C660 1.403 . S
C660 C659 1.403 . S
C660 C661 1.404 . S
C660 C663 1.539 . S
C661 C657 1.408 . S
C661 C660 1.404 . S
C661 H673 0.930 . S
C662 C658 1.524 . S
C662 H674 0.956 . S
C662 H675 0.961 . S
C662 H676 0.961 . S
C663 C660 1.539 . S
C663 H677 0.958 . S
C663 H678 0.961 . S
C663 H679 0.960 . S
H664 C648 0.931 . S
H665 C653 0.929 . S
H666 C654 0.960 . S
H667 C654 0.962 . S
H668 C654 0.960 . S
H669 C655 0.961 . S
H670 C655 0.961 . S
H671 C655 0.961 . S
H672 C656 0.931 . S
H673 C661 0.930 . S
H674 C662 0.956 . S
H675 C662 0.961 . S
H676 C662 0.961 . S
H677 C663 0.958 . S
H678 C663 0.961 . S
H679 C663 0.960 . S
C680 C681 1.391 . S
C680 C682 1.394 . S
C680 H696 0.931 . S
C681 C680 1.391 . S
C681 C685 1.376 . S
C682 C680 1.394 . S
C682 C683 1.369 . S
C682 C686 1.531 . S
C683 C682 1.369 . S
C683 C684 1.410 . S
C683 C691 1.503 . S
C684 C683 1.410 . S
C684 C685 1.392 . S
C684 C687 1.511 . S
C685 C681 1.376 . S
C685 C684 1.392 . S
C685 H697 0.929 . S
C686 C682 1.531 . S
C686 H698 0.960 . S
C686 H699 0.962 . S
C686 H700 0.960 . S
C687 C684 1.511 . S
C687 H701 0.961 . S
C687 H702 0.961 . S
C687 H703 0.961 . S
C688 C689 1.370 . S
C688 C690 1.363 . S
C688 H704 0.931 . S
C689 C688 1.370 . S
C689 C693 1.408 . S
C690 C688 1.363 . S
C690 C691 1.370 . S
C690 C694 1.524 . S
C691 C683 1.503 . S
C691 C690 1.370 . S
C691 C692 1.403 . S
C692 C691 1.403 . S
C692 C693 1.404 . S
C692 C695 1.539 . S
C693 C689 1.408 . S
C693 C692 1.404 . S
C693 H705 0.930 . S
C694 C690 1.524 . S
C694 H706 0.956 . S
C694 H707 0.961 . S
C694 H708 0.961 . S
C695 C692 1.539 . S
C695 H709 0.958 . S
C695 H710 0.961 . S
C695 H711 0.960 . S
H696 C680 0.931 . S
H697 C685 0.929 . S
H698 C686 0.960 . S
H699 C686 0.962 . S
H700 C686 0.960 . S
H701 C687 0.961 . S
H702 C687 0.961 . S
H703 C687 0.961 . S
H704 C688 0.931 . S
H705 C693 0.930 . S
H706 C694 0.956 . S
H707 C694 0.961 . S
H708 C694 0.961 . S
H709 C695 0.958 . S
H710 C695 0.961 . S
H711 C695 0.960 . S
C712 C713 1.391 . S
C712 C714 1.394 . S
C712 H728 0.931 . S
C713 C712 1.391 . S
C713 C717 1.376 . S
C714 C712 1.394 . S
C714 C715 1.369 . S
C714 C718 1.531 . S
C715 C714 1.369 . S
C715 C716 1.410 . S
C715 C723 1.503 . S
C716 C715 1.410 . S
C716 C717 1.392 . S
C716 C719 1.511 . S
C717 C713 1.376 . S
C717 C716 1.392 . S
C717 H729 0.929 . S
C718 C714 1.531 . S
C718 H730 0.960 . S
C718 H731 0.962 . S
C718 H732 0.960 . S
C719 C716 1.511 . S
C719 H733 0.961 . S
C719 H734 0.961 . S
C719 H735 0.961 . S
C720 C721 1.370 . S
C720 C722 1.363 . S
C720 H736 0.931 . S
C721 C720 1.370 . S
C721 C725 1.408 . S
C722 C720 1.363 . S
C722 C723 1.370 . S
C722 C726 1.524 . S
C723 C715 1.503 . S
C723 C722 1.370 . S
C723 C724 1.403 . S
C724 C723 1.403 . S
C724 C725 1.404 . S
C724 C727 1.539 . S
C725 C721 1.408 . S
C725 C724 1.404 . S
C725 H737 0.930 1_455 S
C726 C722 1.524 . S
C726 H738 0.956 . S
C726 H739 0.961 . S
C726 H740 0.961 . S
C727 C724 1.539 . S
C727 H741 0.958 . S
C727 H742 0.961 . S
C727 H743 0.960 . S
H728 C712 0.931 . S
H729 C717 0.929 . S
H730 C718 0.960 . S
H731 C718 0.962 . S
H732 C718 0.960 . S
H733 C719 0.961 . S
H734 C719 0.961 . S
H735 C719 0.961 . S
H736 C720 0.931 . S
H737 C725 0.930 1_655 S
H738 C726 0.956 . S
H739 C726 0.961 . S
H740 C726 0.961 . S
H741 C727 0.958 . S
H742 C727 0.961 . S
H743 C727 0.960 . S
C744 C745 1.391 . S
C744 C746 1.394 . S
C744 H760 0.931 . S
C745 C744 1.391 . S
C745 C749 1.376 . S
C746 C744 1.394 . S
C746 C747 1.369 . S
C746 C750 1.531 . S
C747 C746 1.369 . S
C747 C748 1.410 . S
C747 C755 1.503 . S
C748 C747 1.410 . S
C748 C749 1.392 . S
C748 C751 1.511 . S
C749 C745 1.376 . S
C749 C748 1.392 . S
C749 H761 0.929 . S
C750 C746 1.531 . S
C750 H762 0.960 . S
C750 H763 0.962 . S
C750 H764 0.960 . S
C751 C748 1.511 . S
C751 H765 0.961 . S
C751 H766 0.961 . S
C751 H767 0.961 . S
C752 C753 1.370 1_545 S
C752 C754 1.363 . S
C752 H768 0.931 1_545 S
C753 C752 1.370 1_565 S
C753 C757 1.408 1_565 S
C754 C752 1.363 . S
C754 C755 1.370 . S
C754 C758 1.524 . S
C755 C747 1.503 . S
C755 C754 1.370 . S
C755 C756 1.403 . S
C756 C755 1.403 . S
C756 C757 1.404 . S
C756 C759 1.539 . S
C757 C753 1.408 1_545 S
C757 C756 1.404 . S
C757 H769 0.930 . S
C758 C754 1.524 . S
C758 H770 0.956 . S
C758 H771 0.961 . S
C758 H772 0.961 . S
C759 C756 1.539 . S
C759 H773 0.958 . S
C759 H774 0.961 . S
C759 H775 0.960 . S
H760 C744 0.931 . S
H761 C749 0.929 . S
H762 C750 0.960 . S
H763 C750 0.962 . S
H764 C750 0.960 . S
H765 C751 0.961 . S
H766 C751 0.961 . S
H767 C751 0.961 . S
H768 C752 0.931 1_565 S
H769 C757 0.930 . S
H770 C758 0.956 . S
H771 C758 0.961 . S
H772 C758 0.961 . S
H773 C759 0.958 . S
H774 C759 0.961 . S
H775 C759 0.960 . S
C776 C777 1.391 . S
C776 C778 1.394 . S
C776 H792 0.931 . S
C777 C776 1.391 . S
C777 C781 1.376 . S
C778 C776 1.394 . S
C778 C779 1.369 . S
C778 C782 1.531 . S
C779 C778 1.369 . S
C779 C780 1.410 . S
C779 C787 1.503 . S
C780 C779 1.410 . S
C780 C781 1.392 . S
C780 C783 1.511 . S
C781 C777 1.376 . S
C781 C780 1.392 . S
C781 H793 0.929 . S
C782 C778 1.531 . S
C782 H794 0.960 . S
C782 H795 0.962 . S
C782 H796 0.960 . S
C783 C780 1.511 . S
C783 H797 0.961 . S
C783 H798 0.961 . S
C783 H799 0.961 . S
C784 C785 1.370 . S
C784 C786 1.363 . S
C784 H800 0.931 . S
C785 C784 1.370 . S
C785 C789 1.408 . S
C786 C784 1.363 . S
C786 C787 1.370 . S
C786 C790 1.524 . S
C787 C779 1.503 . S
C787 C786 1.370 . S
C787 C788 1.403 . S
C788 C787 1.403 . S
C788 C789 1.404 . S
C788 C791 1.539 . S
C789 C785 1.408 . S
C789 C788 1.404 . S
C789 H801 0.930 . S
C790 C786 1.524 . S
C790 H802 0.956 . S
C790 H803 0.961 . S
C790 H804 0.961 . S
C791 C788 1.539 . S
C791 H805 0.958 . S
C791 H806 0.961 . S
C791 H807 0.960 . S
H792 C776 0.931 . S
H793 C781 0.929 . S
H794 C782 0.960 . S
H795 C782 0.962 . S
H796 C782 0.960 . S
H797 C783 0.961 . S
H798 C783 0.961 . S
H799 C783 0.961 . S
H800 C784 0.931 . S
H801 C789 0.930 . S
H802 C790 0.956 . S
H803 C790 0.961 . S
H804 C790 0.961 . S
H805 C791 0.958 . S
H806 C791 0.961 . S
H807 C791 0.960 . S
C808 C809 1.391 . S
C808 C810 1.394 . S
C808 H824 0.931 . S
C809 C808 1.391 . S
C809 C813 1.376 . S
C810 C808 1.394 . S
C810 C811 1.369 . S
C810 C814 1.531 . S
C811 C810 1.369 . S
C811 C812 1.410 . S
C811 C819 1.503 . S
C812 C811 1.410 . S
C812 C813 1.392 . S
C812 C815 1.511 . S
C813 C809 1.376 . S
C813 C812 1.392 . S
C813 H825 0.929 . S
C814 C810 1.531 . S
C814 H826 0.960 . S
C814 H827 0.962 . S
C814 H828 0.960 . S
C815 C812 1.511 . S
C815 H829 0.961 . S
C815 H830 0.961 . S
C815 H831 0.961 . S
C816 C817 1.370 . S
C816 C818 1.363 . S
C816 H832 0.931 . S
C817 C816 1.370 . S
C817 C821 1.408 . S
C818 C816 1.363 . S
C818 C819 1.370 . S
C818 C822 1.524 . S
C819 C811 1.503 . S
C819 C818 1.370 . S
C819 C820 1.403 . S
C820 C819 1.403 . S
C820 C821 1.404 . S
C820 C823 1.539 . S
C821 C817 1.408 . S
C821 C820 1.404 . S
C821 H833 0.930 . S
C822 C818 1.524 . S
C822 H834 0.956 . S
C822 H835 0.961 . S
C822 H836 0.961 . S
C823 C820 1.539 . S
C823 H837 0.958 . S
C823 H838 0.961 . S
C823 H839 0.960 . S
H824 C808 0.931 . S
H825 C813 0.929 . S
H826 C814 0.960 . S
H827 C814 0.962 . S
H828 C814 0.960 . S
H829 C815 0.961 . S
H830 C815 0.961 . S
H831 C815 0.961 . S
H832 C816 0.931 . S
H833 C821 0.930 . S
H834 C822 0.956 . S
H835 C822 0.961 . S
H836 C822 0.961 . S
H837 C823 0.958 . S
H838 C823 0.961 . S
H839 C823 0.960 . S
C457 C371 1.681 . S
C465 C58 1.738 . S
C489 C286 3.743 . S
C497 C143 3.782 . S
C521 C15 1.684 . S
C529 C326 1.753 . S
C553 C243 3.203 . S
C561 C98 3.180 . S
C585 C156 1.719 . S
C593 C301 1.772 . S
C617 C73 0.975 . S
C625 C384 1.016 . S
C649 C31 1.429 . S
C657 C113 1.414 . S
C681 C273 0.857 1_655 S
C689 C354 0.795 . S
C713 C1 1.435 1_565 S
C721 C86 1.513 1_455 S
C745 C259 1.416 . S
C753 C341 1.419 . S
C777 C45 0.891 . S
C785 C126 0.774 1_455 S
C809 C229 1.488 1_655 S
C817 C314 1.496 1_545 S
