# Generated by pormake.
# Topology npo, (4)-cn, num edge types: 1
# Building blocks:
#     Node 0, Type 0, BuildingBlock: TATPOV_clean_sbu_0, # of connection points: 4
#     Node 1, Type 0, BuildingBlock: TATPOV_clean_sbu_0, # of connection points: 4
#     Node 2, Type 0, BuildingBlock: TATPOV_clean_sbu_0, # of connection points: 4
#     Node 3, Type 0, BuildingBlock: TATPOV_clean_sbu_0, # of connection points: 4
#     Node 4, Type 0, BuildingBlock: TATPOV_clean_sbu_0, # of connection points: 4
#     Node 5, Type 0, BuildingBlock: TATPOV_clean_sbu_0, # of connection points: 4
#     Edge 6, Type (0, 0), BuildingBlock: XIVTED_clean_linker_0, # of connection points: 2
#     Edge 7, Type (0, 0), BuildingBlock: XIVTED_clean_linker_0, # of connection points: 2
#     Edge 8, Type (0, 0), BuildingBlock: XIVTED_clean_linker_0, # of connection points: 2
#     Edge 9, Type (0, 0), BuildingBlock: XIVTED_clean_linker_0, # of connection points: 2
#     Edge 10, Type (0, 0), BuildingBlock: XIVTED_clean_linker_0, # of connection points: 2
#     Edge 11, Type (0, 0), BuildingBlock: XIVTED_clean_linker_0, # of connection points: 2
#     Edge 12, Type (0, 0), BuildingBlock: XIVTED_clean_linker_0, # of connection points: 2
#     Edge 13, Type (0, 0), BuildingBlock: XIVTED_clean_linker_0, # of connection points: 2
#     Edge 14, Type (0, 0), BuildingBlock: XIVTED_clean_linker_0, # of connection points: 2
#     Edge 15, Type (0, 0), BuildingBlock: XIVTED_clean_linker_0, # of connection points: 2
#     Edge 16, Type (0, 0), BuildingBlock: XIVTED_clean_linker_0, # of connection points: 2
#     Edge 17, Type (0, 0), BuildingBlock: XIVTED_clean_linker_0, # of connection points: 2
# Relax obj value: 0.179
# Max RMSD: 0.205
# Mean RMSD: 0.194
data_MOF--net-npo--node1-TATPOV_clean_sbu_0--edge1-XIVTED_clean_linker_0
_symmetry_space_group_name_H-M    P1
_symmetry_Int_Tables_number       1
_symmetry_cell_setting            triclinic
loop_
_symmetry_equiv_pos_as_xyz
'x, y, z'
_cell_length_a     43.39614
_cell_length_b     41.615123
_cell_length_c     25.265598
_cell_angle_alpha  89.062436
_cell_angle_beta   90.304709
_cell_angle_gamma 121.58048
loop_
_atom_site_label
_atom_site_type_symbol
_atom_site_fract_x
_atom_site_fract_y
_atom_site_fract_z
_atom_type_partial_charge
Zn0 Zn 0.62149 0.14493 0.13082 0.0
Zn1 Zn 0.56852 0.10678 0.20069 0.0
O2 O 0.55724 0.14739 0.18003 0.0
O3 O 0.60022 0.17765 0.12005 0.0
O4 O 0.53111 0.07285 0.2553 0.0
O5 O 0.6049 0.10132 0.08366 0.0
O6 O 0.55908 0.07061 0.13889 0.0
C7 C 0.57321 0.17361 0.1453 0.0
C8 C 0.64971 0.14872 0.23222 0.0
O9 O 0.61602 0.12949 0.243 0.0
O10 O 0.66012 0.15824 0.18481 0.0
C11 C 0.53177 0.08413 0.30202 0.0
O12 O 0.55589 0.11922 0.31378 0.0
C13 C 0.57517 0.07195 0.096 0.0
Zn14 Zn 0.36277 0.50321 0.57296 0.0
Zn15 Zn 0.41235 0.51659 0.64855 0.0
O16 O 0.36302 0.48982 0.68739 0.0
O17 O 0.32191 0.47673 0.62639 0.0
O18 O 0.44764 0.52447 0.70716 0.0
O19 O 0.38097 0.47593 0.5302 0.0
O20 O 0.42274 0.48915 0.59028 0.0
C21 C 0.33004 0.47611 0.67447 0.0
C22 C 0.41531 0.58262 0.58956 0.0
O23 O 0.42767 0.5699 0.62445 0.0
O24 O 0.38776 0.56012 0.56265 0.0
C25 C 0.44406 0.53416 0.75318 0.0
O26 O 0.41733 0.53956 0.76228 0.0
C27 C 0.40842 0.47522 0.54568 0.0
Zn28 Zn 0.82192 0.42786 0.49793 0.0
Zn29 Zn 0.87231 0.44481 0.42057 0.0
O30 O 0.84889 0.47478 0.39726 0.0
O31 O 0.80894 0.46266 0.45989 0.0
O32 O 0.9099 0.4567 0.36432 0.0
O33 O 0.86193 0.44713 0.55235 0.0
O34 O 0.9017 0.46021 0.48905 0.0
C35 C 0.82414 0.47898 0.41658 0.0
C36 C 0.80992 0.36317 0.43967 0.0
O37 O 0.83836 0.38788 0.41518 0.0
O38 O 0.79697 0.37284 0.47667 0.0
C39 C 0.90067 0.4436 0.31795 0.0
O40 O 0.86612 0.42282 0.30644 0.0
C41 C 0.89415 0.4591 0.53795 0.0
Zn42 Zn 0.40786 0.81631 0.76351 0.0
Zn43 Zn 0.41291 0.86422 0.69816 0.0
O44 O 0.35764 0.83378 0.71247 0.0
O45 O 0.35467 0.78418 0.75022 0.0
O46 O 0.42182 0.90404 0.6431 0.0
O47 O 0.42514 0.85078 0.8243 0.0
O48 O 0.44212 0.89533 0.76341 0.0
C49 C 0.33907 0.80021 0.73102 0.0
C50 C 0.44529 0.81509 0.6778 0.0
O51 O 0.43207 0.83409 0.65968 0.0
O52 O 0.44245 0.80674 0.72649 0.0
C53 C 0.41172 0.89467 0.59555 0.0
O54 O 0.39341 0.8587 0.58378 0.0
C55 C 0.44182 0.88535 0.81157 0.0
Zn56 Zn 0.63694 0.49172 0.07612 0.0
Zn57 Zn 0.59092 0.4823 0.153 0.0
O58 O 0.64132 0.5101 0.18823 0.0
O59 O 0.6797 0.51842 0.12523 0.0
O60 O 0.55721 0.47725 0.21187 0.0
O61 O 0.62013 0.51917 0.02979 0.0
O62 O 0.57909 0.50725 0.09039 0.0
C63 C 0.67356 0.52167 0.17317 0.0
C64 C 0.58537 0.41341 0.10434 0.0
O65 O 0.57494 0.42759 0.13896 0.0
O66 O 0.61052 0.43465 0.0722 0.0
C67 C 0.56097 0.46774 0.25848 0.0
O68 O 0.58733 0.4617 0.26805 0.0
C69 C 0.5929 0.52025 0.04469 0.0
Zn70 Zn 0.15889 0.54479 0.99153 0.0
Zn71 Zn 0.10527 0.51059 0.91867 0.0
O72 O 0.13612 0.48804 0.90224 0.0
O73 O 0.18041 0.51554 0.95994 0.0
O74 O 0.06609 0.48931 0.86411 0.0
O75 O 0.12043 0.52251 0.04963 0.0
O76 O 0.07782 0.49612 0.98932 0.0
C77 C 0.16568 0.49345 0.92133 0.0
C78 C 0.15689 0.59669 0.91678 0.0
O79 O 0.13099 0.56616 0.89833 0.0
O80 O 0.1733 0.59597 0.95802 0.0
C81 C 0.07552 0.49748 0.81586 0.0
O82 O 0.11013 0.51648 0.80381 0.0
C83 C 0.0872 0.50293 0.03767 0.0
H84 H 0.53804 0.19577 0.21209 0.0
H85 H 0.58802 0.37209 0.02404 0.0
H86 H 0.58308 0.21379 0.05484 0.0
H87 H 0.54972 0.36159 0.18442 0.0
H88 H 0.57329 0.30709 0.02902 0.0
H89 H 0.5296 0.24922 0.1974 0.0
C90 C 0.54545 0.21048 0.17418 0.0
C91 C 0.56192 0.20093 0.13498 0.0
C92 C 0.56765 0.31874 0.06303 0.0
C93 C 0.55244 0.26168 0.11796 0.0
C94 C 0.57608 0.3559 0.06015 0.0
C95 C 0.57071 0.37244 0.10421 0.0
C96 C 0.55431 0.29806 0.11063 0.0
C97 C 0.55459 0.34997 0.14969 0.0
C98 C 0.54076 0.24099 0.16587 0.0
C99 C 0.57096 0.22074 0.08654 0.0
N100 N 0.54756 0.31404 0.15212 0.0
N101 N 0.56644 0.25035 0.07964 0.0
H102 H 0.25675 0.44235 0.66172 0.0
H103 H 0.23048 0.50081 0.94835 0.0
H104 H 0.33937 0.48522 0.78199 0.0
H105 H 0.14636 0.45215 0.83045 0.0
H106 H 0.26746 0.48594 0.89353 0.0
H107 H 0.21305 0.43608 0.72781 0.0
C108 C 0.26561 0.44984 0.70223 0.0
C109 C 0.30199 0.46489 0.71603 0.0
C110 C 0.24068 0.47797 0.88001 0.0
C111 C 0.25204 0.4583 0.79198 0.0
C112 C 0.21947 0.4864 0.9114 0.0
C113 C 0.18539 0.47824 0.89373 0.0
C114 C 0.22789 0.4615 0.83034 0.0
C115 C 0.17257 0.45933 0.84557 0.0
C116 C 0.2406 0.44632 0.74001 0.0
C117 C 0.31172 0.4738 0.76933 0.0
N118 N 0.19401 0.45213 0.81527 0.0
N119 N 0.28705 0.47096 0.80512 0.0
H120 H 0.72322 0.18332 0.22508 0.0
H121 H 0.746 0.3034 0.47774 0.0
H122 H 0.63736 0.1552 0.33662 0.0
H123 H 0.82987 0.33251 0.36195 0.0
H124 H 0.71047 0.24081 0.43932 0.0
H125 H 0.7668 0.22797 0.28796 0.0
C126 C 0.71362 0.18586 0.26336 0.0
C127 C 0.6765 0.1663 0.27506 0.0
C128 C 0.7369 0.26068 0.42287 0.0
C129 C 0.72615 0.21799 0.34673 0.0
C130 C 0.75719 0.29649 0.44472 0.0
C131 C 0.7906 0.32357 0.42223 0.0
C132 C 0.75004 0.25199 0.37807 0.0
C133 C 0.80395 0.31281 0.37997 0.0
C134 C 0.73853 0.2115 0.29922 0.0
C135 C 0.66568 0.17018 0.3256 0.0
N136 N 0.78338 0.27807 0.35878 0.0
N137 N 0.69032 0.19631 0.35913 0.0
H138 H 0.49921 0.80161 0.69587 0.0
H139 H 0.39319 0.61997 0.52417 0.0
H140 H 0.41814 0.78434 0.58137 0.0
H141 H 0.47447 0.63926 0.63997 0.0
H142 H 0.41396 0.68698 0.52555 0.0
H143 H 0.50413 0.75178 0.65518 0.0
C144 C 0.48331 0.78808 0.66095 0.0
C145 C 0.4577 0.79637 0.64252 0.0
C146 C 0.42771 0.67669 0.5499 0.0
C147 C 0.46197 0.73832 0.59717 0.0
C148 C 0.41578 0.63837 0.54929 0.0
C149 C 0.43143 0.62378 0.58319 0.0
C150 C 0.4553 0.70049 0.58491 0.0
C151 C 0.46101 0.64908 0.61411 0.0
C152 C 0.48591 0.75944 0.6379 0.0
C153 C 0.43797 0.77841 0.59698 0.0
N154 N 0.47155 0.68605 0.6149 0.0
N155 N 0.43971 0.74933 0.57672 0.0
H156 H 0.66848 0.52194 0.28151 0.0
H157 H 0.84584 0.51272 0.31829 0.0
H158 H 0.74435 0.54381 0.15576 0.0
H159 H 0.76999 0.49103 0.444 0.0
H160 H 0.8154 0.5362 0.26255 0.0
H161 H 0.7116 0.52334 0.34535 0.0
C162 C 0.69451 0.52791 0.26736 0.0
C163 C 0.70244 0.53202 0.21295 0.0
C164 C 0.80573 0.52683 0.30261 0.0
C165 C 0.75177 0.53302 0.28591 0.0
C166 C 0.82317 0.51345 0.33454 0.0
C167 C 0.81012 0.49925 0.38568 0.0
C168 C 0.77488 0.52582 0.32177 0.0
C169 C 0.78075 0.5012 0.40461 0.0
C170 C 0.7191 0.52851 0.30389 0.0
C171 C 0.73678 0.53991 0.19717 0.0
N172 N 0.76384 0.51367 0.37243 0.0
N173 N 0.75987 0.53949 0.23333 0.0
H174 H 0.30583 0.81863 0.80368 0.0
H175 H 0.14363 0.60476 0.81308 0.0
H176 H 0.28552 0.73738 0.68402 0.0
H177 H 0.20219 0.66933 0.94964 0.0
H178 H 0.17687 0.66178 0.7579 0.0
H179 H 0.24842 0.77257 0.84667 0.0
C180 C 0.28822 0.79185 0.7848 0.0
C181 C 0.3001 0.78157 0.74036 0.0
C182 C 0.18164 0.66356 0.80018 0.0
C183 C 0.23531 0.72892 0.78951 0.0
C184 C 0.16275 0.63111 0.83178 0.0
C185 C 0.17081 0.63217 0.88591 0.0
C186 C 0.20831 0.69734 0.82302 0.0
C187 C 0.19568 0.66714 0.90793 0.0
C188 C 0.2558 0.76548 0.8097 0.0
C189 C 0.27699 0.74625 0.71812 0.0
N190 N 0.21393 0.69831 0.87624 0.0
N191 N 0.24584 0.72085 0.74344 0.0
H192 H 0.49532 0.95984 0.7994 0.0
H193 H 0.51242 0.00293 0.10797 0.0
H194 H 0.43264 0.87441 0.91816 0.0
H195 H 0.59652 0.0723 0.99457 0.0
H196 H 0.47965 0.95703 0.03842 0.0
H197 H 0.52912 0.00433 0.87016 0.0
C198 C 0.48855 0.95055 0.84028 0.0
C199 C 0.4613 0.91342 0.85298 0.0
C200 C 0.50545 0.98219 0.02904 0.0
C201 C 0.49964 0.96385 0.93373 0.0
C202 C 0.52419 0.0083 0.06871 0.0
C203 C 0.5572 0.04152 0.05707 0.0
C204 C 0.51964 -0.0103 0.97738 0.0
C205 C 0.57116 0.04708 0.00542 0.0
C206 C 0.50796 0.97579 0.88057 0.0
C207 C 0.45365 0.90274 0.90661 0.0
N208 N 0.55213 0.02162 0.96736 0.0
N209 N 0.47265 0.92787 0.94503 0.0
H210 H 0.49679 0.46513 0.24992 0.0
H211 H 0.47186 0.47607 0.55943 0.0
H212 H 0.5684 0.46088 0.36519 0.0
H213 H 0.38796 0.44977 0.44485 0.0
H214 H 0.50728 0.46919 0.49033 0.0
H215 H 0.45676 0.45968 0.32167 0.0
C216 C 0.50408 0.463 0.29033 0.0
C217 C 0.53609 0.46364 0.30155 0.0
C218 C 0.48088 0.4644 0.4806 0.0
C219 C 0.49036 0.45746 0.38407 0.0
C220 C 0.46055 0.46816 0.52009 0.0
C221 C 0.42699 0.4639 0.50792 0.0
C222 C 0.46771 0.45672 0.4285 0.0
C223 C 0.41379 0.45366 0.45614 0.0
C224 C 0.4811 0.45967 0.33131 0.0
C225 C 0.54401 0.46054 0.35471 0.0
N226 N 0.43437 0.45096 0.41828 0.0
N227 N 0.52147 0.45792 0.39405 0.0
H228 H 0.01339 0.46044 0.02699 0.0
H229 H 0.97441 0.48274 0.32955 0.0
H230 H 0.09712 0.51687 0.14408 0.0
H231 H 0.89035 0.42126 0.21462 0.0
H232 H 0.01968 0.49456 0.26248 0.0
H233 H 0.96788 0.44426 0.09565 0.0
C234 C 0.02225 0.46921 0.06718 0.0
C235 C 0.05922 0.4902 0.07964 0.0
C236 C 0.99133 0.47842 0.25193 0.0
C237 C 0.00713 0.47199 0.1585 0.0
C238 C 0.96544 0.47172 0.29021 0.0
C239 C 0.92847 0.45106 0.2777 0.0
C240 C 0.98027 0.46447 0.20062 0.0
C241 C 0.91852 0.4374 0.22607 0.0
C242 C -0.0038 0.46001 0.10639 0.0
C243 C 0.06898 0.50073 0.13251 0.0
N244 N 0.94425 0.44442 0.18944 0.0
N245 N 0.04313 0.49169 0.16986 0.0
H246 H 0.47978 0.00916 0.29221 0.0
H247 H 0.4522 0.9717 0.6049 0.0
H248 H 0.53074 0.0972 0.40779 0.0
H249 H 0.39936 0.88415 0.48898 0.0
H250 H 0.47697 0.01877 0.53319 0.0
H251 H 0.44595 0.9638 0.36341 0.0
C252 C 0.48365 0.01906 0.33249 0.0
C253 C 0.50841 0.05705 0.34401 0.0
C254 C 0.45971 -0.01071 0.52344 0.0
C255 C 0.46985 0.00511 0.42592 0.0
C256 C 0.44551 0.96236 0.56441 0.0
C257 C 0.42389 0.92383 0.553 0.0
C258 C 0.45239 0.97765 0.47057 0.0
C259 C 0.41606 0.91349 0.49973 0.0
C260 C 0.46431 -0.0069 0.37319 0.0
C261 C 0.51212 0.06819 0.397 0.0
N262 N 0.43053 0.94019 0.46054 0.0
N263 N 0.49329 0.04231 0.43598 0.0
H264 H 0.50826 0.53669 0.74586 0.0
H265 H 0.52952 0.51976 0.05658 0.0
H266 H 0.43614 0.54008 0.8595 0.0
H267 H 0.61391 0.54589 0.94314 0.0
H268 H 0.49521 0.52842 0.98632 0.0
H269 H 0.54727 0.54017 0.81843 0.0
C270 C 0.50067 0.53829 0.78607 0.0
C271 C 0.46878 0.5379 0.79659 0.0
C272 C 0.52147 0.53273 0.97708 0.0
C273 C 0.51329 0.54172 0.88008 0.0
C274 C 0.54114 0.52792 0.01722 0.0
C275 C 0.57454 0.53172 0.00576 0.0
C276 C 0.53514 0.541 0.92506 0.0
C277 C 0.58818 0.54232 0.95391 0.0
C278 C 0.52305 0.54044 0.82753 0.0
C279 C 0.46046 0.54026 0.84954 0.0
N280 N 0.56826 0.54609 0.91547 0.0
N281 N 0.48238 0.5417 0.88934 0.0
H282 H 0.00255 0.46595 0.8287 0.0
H283 H 0.96615 0.48545 0.52244 0.0
H284 H 0.08649 0.51206 0.70937 0.0
H285 H 0.88604 0.45282 0.64568 0.0
H286 H 0.01047 0.49421 0.58971 0.0
H287 H 0.95889 0.45823 0.7611 0.0
C288 C 0.01177 0.47421 0.78821 0.0
C289 C 0.04827 0.48975 0.77469 0.0
C290 C 0.98324 0.48534 0.60202 0.0
C291 C -0.00157 0.48126 0.69715 0.0
C292 C 0.95794 0.48045 0.56365 0.0
C293 C 0.92226 0.46831 0.57838 0.0
C294 C 0.97276 0.47783 0.65548 0.0
C295 C 0.9132 0.46222 0.63241 0.0
C296 C 0.98685 0.46998 0.74967 0.0
C297 C 0.05864 0.5 0.72159 0.0
N298 N 0.93822 0.46684 0.66892 0.0
N299 N 0.03386 0.49563 0.68477 0.0
loop_
_geom_bond_atom_site_label_1
_geom_bond_atom_site_label_2
_geom_bond_distance
_geom_bond_site_symmetry_2
_ccdc_geom_bond_type
Zn0 O3 2.031 . S
Zn0 O5 2.049 . S
Zn0 O10 2.067 . S
Zn1 O2 1.962 . S
Zn1 O4 1.986 . S
Zn1 O6 1.996 . S
Zn1 O9 1.943 . S
O2 Zn1 1.962 . S
O2 C7 1.254 . S
O3 Zn0 2.031 . S
O3 C7 1.269 . S
O4 Zn1 1.986 . S
O4 C11 1.262 . S
O5 Zn0 2.049 . S
O5 C13 1.260 . S
O6 Zn1 1.996 . S
O6 C13 1.257 . S
C7 O2 1.254 . S
C7 O3 1.269 . S
C8 O9 1.249 . S
C8 O10 1.270 . S
O9 Zn1 1.943 . S
O9 C8 1.249 . S
O10 Zn0 2.067 . S
O10 C8 1.270 . S
C11 O4 1.262 . S
C11 O12 1.232 . S
O12 C11 1.232 . S
C13 O5 1.260 . S
C13 O6 1.257 . S
Zn14 O17 2.031 . S
Zn14 O19 2.049 . S
Zn14 O24 2.067 . S
Zn15 O16 1.962 . S
Zn15 O18 1.986 . S
Zn15 O20 1.996 . S
Zn15 O23 1.943 . S
O16 Zn15 1.962 . S
O16 C21 1.254 . S
O17 Zn14 2.031 . S
O17 C21 1.269 . S
O18 Zn15 1.986 . S
O18 C25 1.262 . S
O19 Zn14 2.049 . S
O19 C27 1.260 . S
O20 Zn15 1.996 . S
O20 C27 1.257 . S
C21 O16 1.254 . S
C21 O17 1.269 . S
C22 O23 1.249 . S
C22 O24 1.270 . S
O23 Zn15 1.943 . S
O23 C22 1.249 . S
O24 Zn14 2.067 . S
O24 C22 1.270 . S
C25 O18 1.262 . S
C25 O26 1.232 . S
O26 C25 1.232 . S
C27 O19 1.260 . S
C27 O20 1.257 . S
Zn28 O31 2.031 . S
Zn28 O33 2.049 . S
Zn28 O38 2.067 . S
Zn29 O30 1.962 . S
Zn29 O32 1.986 . S
Zn29 O34 1.996 . S
Zn29 O37 1.943 . S
O30 Zn29 1.962 . S
O30 C35 1.254 . S
O31 Zn28 2.031 . S
O31 C35 1.269 . S
O32 Zn29 1.986 . S
O32 C39 1.262 . S
O33 Zn28 2.049 . S
O33 C41 1.260 . S
O34 Zn29 1.996 . S
O34 C41 1.257 . S
C35 O30 1.254 . S
C35 O31 1.269 . S
C36 O37 1.249 . S
C36 O38 1.270 . S
O37 Zn29 1.943 . S
O37 C36 1.249 . S
O38 Zn28 2.067 . S
O38 C36 1.270 . S
C39 O32 1.262 . S
C39 O40 1.232 . S
O40 C39 1.232 . S
C41 O33 1.260 . S
C41 O34 1.257 . S
Zn42 O45 2.031 . S
Zn42 O47 2.049 . S
Zn42 O52 2.067 . S
Zn43 O44 1.962 . S
Zn43 O46 1.986 . S
Zn43 O48 1.996 . S
Zn43 O51 1.943 . S
O44 Zn43 1.962 . S
O44 C49 1.254 . S
O45 Zn42 2.031 . S
O45 C49 1.269 . S
O46 Zn43 1.986 . S
O46 C53 1.262 . S
O47 Zn42 2.049 . S
O47 C55 1.260 . S
O48 Zn43 1.996 . S
O48 C55 1.257 . S
C49 O44 1.254 . S
C49 O45 1.269 . S
C50 O51 1.249 . S
C50 O52 1.270 . S
O51 Zn43 1.943 . S
O51 C50 1.249 . S
O52 Zn42 2.067 . S
O52 C50 1.270 . S
C53 O46 1.262 . S
C53 O54 1.232 . S
O54 C53 1.232 . S
C55 O47 1.260 . S
C55 O48 1.257 . S
Zn56 O59 2.031 . S
Zn56 O61 2.049 . S
Zn56 O66 2.067 . S
Zn57 O58 1.962 . S
Zn57 O60 1.986 . S
Zn57 O62 1.996 . S
Zn57 O65 1.943 . S
O58 Zn57 1.962 . S
O58 C63 1.254 . S
O59 Zn56 2.031 . S
O59 C63 1.269 . S
O60 Zn57 1.986 . S
O60 C67 1.262 . S
O61 Zn56 2.049 . S
O61 C69 1.260 . S
O62 Zn57 1.996 . S
O62 C69 1.257 . S
C63 O58 1.254 . S
C63 O59 1.269 . S
C64 O65 1.249 . S
C64 O66 1.270 . S
O65 Zn57 1.943 . S
O65 C64 1.249 . S
O66 Zn56 2.067 . S
O66 C64 1.270 . S
C67 O60 1.262 . S
C67 O68 1.232 . S
O68 C67 1.232 . S
C69 O61 1.260 . S
C69 O62 1.257 . S
Zn70 O73 2.031 . S
Zn70 O75 2.049 . S
Zn70 O80 2.067 . S
Zn71 O72 1.962 . S
Zn71 O74 1.986 . S
Zn71 O76 1.996 . S
Zn71 O79 1.943 . S
O72 Zn71 1.962 . S
O72 C77 1.254 . S
O73 Zn70 2.031 . S
O73 C77 1.269 . S
O74 Zn71 1.986 . S
O74 C81 1.262 . S
O75 Zn70 2.049 . S
O75 C83 1.260 . S
O76 Zn71 1.996 . S
O76 C83 1.257 . S
C77 O72 1.254 . S
C77 O73 1.269 . S
C78 O79 1.249 . S
C78 O80 1.270 . S
O79 Zn71 1.943 . S
O79 C78 1.249 . S
O80 Zn70 2.067 . S
O80 C78 1.270 . S
C81 O74 1.262 . S
C81 O82 1.232 . S
O82 C81 1.232 . S
C83 O75 1.260 . S
C83 O76 1.257 . S
H84 C90 0.930 . S
H85 C94 0.930 . S
H86 C99 0.929 . S
H87 C97 0.929 . S
H88 C92 0.929 . S
H89 C98 0.929 . S
C90 H84 0.930 . S
C90 C91 1.367 . S
C90 C98 1.378 . S
C91 C90 1.367 . S
C91 C99 1.433 . S
C92 H88 0.929 . S
C92 C94 1.378 . S
C92 C96 1.350 . S
C93 C96 1.463 . S
C93 C98 1.350 . S
C93 N101 1.427 . S
C94 H85 0.930 . S
C94 C92 1.378 . S
C94 C95 1.367 . S
C95 C94 1.367 . S
C95 C97 1.433 . S
C96 C92 1.350 . S
C96 C93 1.463 . S
C96 N100 1.427 . S
C97 H87 0.929 . S
C97 C95 1.433 . S
C97 N100 1.384 . S
C98 H89 0.929 . S
C98 C90 1.378 . S
C98 C93 1.350 . S
C99 H86 0.929 . S
C99 C91 1.433 . S
C99 N101 1.384 . S
N100 C96 1.427 . S
N100 C97 1.384 . S
N101 C93 1.427 . S
N101 C99 1.384 . S
H102 C108 0.930 . S
H103 C112 0.930 . S
H104 C117 0.929 . S
H105 C115 0.929 . S
H106 C110 0.929 . S
H107 C116 0.929 . S
C108 H102 0.930 . S
C108 C109 1.367 . S
C108 C116 1.378 . S
C109 C108 1.367 . S
C109 C117 1.433 . S
C110 H106 0.929 . S
C110 C112 1.378 . S
C110 C114 1.350 . S
C111 C114 1.463 . S
C111 C116 1.350 . S
C111 N119 1.427 . S
C112 H103 0.930 . S
C112 C110 1.378 . S
C112 C113 1.367 . S
C113 C112 1.367 . S
C113 C115 1.433 . S
C114 C110 1.350 . S
C114 C111 1.463 . S
C114 N118 1.427 . S
C115 H105 0.929 . S
C115 C113 1.433 . S
C115 N118 1.384 . S
C116 H107 0.929 . S
C116 C108 1.378 . S
C116 C111 1.350 . S
C117 H104 0.929 . S
C117 C109 1.433 . S
C117 N119 1.384 . S
N118 C114 1.427 . S
N118 C115 1.384 . S
N119 C111 1.427 . S
N119 C117 1.384 . S
H120 C126 0.930 . S
H121 C130 0.930 . S
H122 C135 0.929 . S
H123 C133 0.929 . S
H124 C128 0.929 . S
H125 C134 0.929 . S
C126 H120 0.930 . S
C126 C127 1.367 . S
C126 C134 1.378 . S
C127 C126 1.367 . S
C127 C135 1.433 . S
C128 H124 0.929 . S
C128 C130 1.378 . S
C128 C132 1.350 . S
C129 C132 1.463 . S
C129 C134 1.350 . S
C129 N137 1.427 . S
C130 H121 0.930 . S
C130 C128 1.378 . S
C130 C131 1.367 . S
C131 C130 1.367 . S
C131 C133 1.433 . S
C132 C128 1.350 . S
C132 C129 1.463 . S
C132 N136 1.427 . S
C133 H123 0.929 . S
C133 C131 1.433 . S
C133 N136 1.384 . S
C134 H125 0.929 . S
C134 C126 1.378 . S
C134 C129 1.350 . S
C135 H122 0.929 . S
C135 C127 1.433 . S
C135 N137 1.384 . S
N136 C132 1.427 . S
N136 C133 1.384 . S
N137 C129 1.427 . S
N137 C135 1.384 . S
H138 C144 0.930 . S
H139 C148 0.930 . S
H140 C153 0.929 . S
H141 C151 0.929 . S
H142 C146 0.929 . S
H143 C152 0.929 . S
C144 H138 0.930 . S
C144 C145 1.367 . S
C144 C152 1.378 . S
C145 C144 1.367 . S
C145 C153 1.433 . S
C146 H142 0.929 . S
C146 C148 1.378 . S
C146 C150 1.350 . S
C147 C150 1.463 . S
C147 C152 1.350 . S
C147 N155 1.427 . S
C148 H139 0.930 . S
C148 C146 1.378 . S
C148 C149 1.367 . S
C149 C148 1.367 . S
C149 C151 1.433 . S
C150 C146 1.350 . S
C150 C147 1.463 . S
C150 N154 1.427 . S
C151 H141 0.929 . S
C151 C149 1.433 . S
C151 N154 1.384 . S
C152 H143 0.929 . S
C152 C144 1.378 . S
C152 C147 1.350 . S
C153 H140 0.929 . S
C153 C145 1.433 . S
C153 N155 1.384 . S
N154 C150 1.427 . S
N154 C151 1.384 . S
N155 C147 1.427 . S
N155 C153 1.384 . S
H156 C162 0.930 . S
H157 C166 0.930 . S
H158 C171 0.929 . S
H159 C169 0.929 . S
H160 C164 0.929 . S
H161 C170 0.929 . S
C162 H156 0.930 . S
C162 C163 1.367 . S
C162 C170 1.378 . S
C163 C162 1.367 . S
C163 C171 1.433 . S
C164 H160 0.929 . S
C164 C166 1.378 . S
C164 C168 1.350 . S
C165 C168 1.463 . S
C165 C170 1.350 . S
C165 N173 1.427 . S
C166 H157 0.930 . S
C166 C164 1.378 . S
C166 C167 1.367 . S
C167 C166 1.367 . S
C167 C169 1.433 . S
C168 C164 1.350 . S
C168 C165 1.463 . S
C168 N172 1.427 . S
C169 H159 0.929 . S
C169 C167 1.433 . S
C169 N172 1.384 . S
C170 H161 0.929 . S
C170 C162 1.378 . S
C170 C165 1.350 . S
C171 H158 0.929 . S
C171 C163 1.433 . S
C171 N173 1.384 . S
N172 C168 1.427 . S
N172 C169 1.384 . S
N173 C165 1.427 . S
N173 C171 1.384 . S
H174 C180 0.930 . S
H175 C184 0.930 . S
H176 C189 0.929 . S
H177 C187 0.929 . S
H178 C182 0.929 . S
H179 C188 0.929 . S
C180 H174 0.930 . S
C180 C181 1.367 . S
C180 C188 1.378 . S
C181 C180 1.367 . S
C181 C189 1.433 . S
C182 H178 0.929 . S
C182 C184 1.378 . S
C182 C186 1.350 . S
C183 C186 1.463 . S
C183 C188 1.350 . S
C183 N191 1.427 . S
C184 H175 0.930 . S
C184 C182 1.378 . S
C184 C185 1.367 . S
C185 C184 1.367 . S
C185 C187 1.433 . S
C186 C182 1.350 . S
C186 C183 1.463 . S
C186 N190 1.427 . S
C187 H177 0.929 . S
C187 C185 1.433 . S
C187 N190 1.384 . S
C188 H179 0.929 . S
C188 C180 1.378 . S
C188 C183 1.350 . S
C189 H176 0.929 . S
C189 C181 1.433 . S
C189 N191 1.384 . S
N190 C186 1.427 . S
N190 C187 1.384 . S
N191 C183 1.427 . S
N191 C189 1.384 . S
H192 C198 0.930 . S
H193 C202 0.930 . S
H194 C207 0.929 . S
H195 C205 0.929 . S
H196 C200 0.929 . S
H197 C206 0.929 . S
C198 H192 0.930 . S
C198 C199 1.367 . S
C198 C206 1.378 1_565 S
C199 C198 1.367 . S
C199 C207 1.433 . S
C200 H196 0.929 . S
C200 C202 1.378 1_565 S
C200 C204 1.350 1_565 S
C201 C204 1.463 1_566 S
C201 C206 1.350 1_565 S
C201 N209 1.427 . S
C202 H193 0.930 . S
C202 C200 1.378 1_545 S
C202 C203 1.367 . S
C203 C202 1.367 . S
C203 C205 1.433 . S
C204 C200 1.350 1_545 S
C204 C201 1.463 1_544 S
C204 N208 1.427 . S
C205 H195 0.929 . S
C205 C203 1.433 . S
C205 N208 1.384 . S
C206 H197 0.929 . S
C206 C198 1.378 1_545 S
C206 C201 1.350 1_545 S
C207 H194 0.929 . S
C207 C199 1.433 . S
C207 N209 1.384 . S
N208 C204 1.427 . S
N208 C205 1.384 . S
N209 C201 1.427 . S
N209 C207 1.384 . S
H210 C216 0.930 . S
H211 C220 0.930 . S
H212 C225 0.929 . S
H213 C223 0.929 . S
H214 C218 0.929 . S
H215 C224 0.929 . S
C216 H210 0.930 . S
C216 C217 1.367 . S
C216 C224 1.378 . S
C217 C216 1.367 . S
C217 C225 1.433 . S
C218 H214 0.929 . S
C218 C220 1.378 . S
C218 C222 1.350 . S
C219 C222 1.463 . S
C219 C224 1.350 . S
C219 N227 1.427 . S
C220 H211 0.930 . S
C220 C218 1.378 . S
C220 C221 1.367 . S
C221 C220 1.367 . S
C221 C223 1.433 . S
C222 C218 1.350 . S
C222 C219 1.463 . S
C222 N226 1.427 . S
C223 H213 0.929 . S
C223 C221 1.433 . S
C223 N226 1.384 . S
C224 H215 0.929 . S
C224 C216 1.378 . S
C224 C219 1.350 . S
C225 H212 0.929 . S
C225 C217 1.433 . S
C225 N227 1.384 . S
N226 C222 1.427 . S
N226 C223 1.384 . S
N227 C219 1.427 . S
N227 C225 1.384 . S
H228 C234 0.930 1_655 S
H229 C238 0.933 . S
H230 C243 0.929 . S
H231 C241 0.929 . S
H232 C236 0.929 . S
H233 C242 0.929 . S
C234 H228 0.930 1_455 S
C234 C235 1.367 . S
C234 C242 1.378 1_455 S
C235 C234 1.367 . S
C235 C243 1.433 . S
C236 H232 0.929 . S
C236 C238 1.378 1_455 S
C236 C240 1.350 1_455 S
C237 C240 1.463 1_456 S
C237 C242 1.350 1_455 S
C237 N245 1.427 . S
C238 H229 0.933 . S
C238 C236 1.378 1_655 S
C238 C239 1.367 . S
C239 C238 1.367 . S
C239 C241 1.433 . S
C240 C236 1.350 1_655 S
C240 C237 1.463 1_654 S
C240 N244 1.427 . S
C241 H231 0.929 . S
C241 C239 1.433 . S
C241 N244 1.384 . S
C242 H233 0.929 . S
C242 C234 1.378 1_655 S
C242 C237 1.350 1_655 S
C243 H230 0.929 . S
C243 C235 1.433 . S
C243 N245 1.384 . S
N244 C240 1.427 . S
N244 C241 1.384 . S
N245 C237 1.427 . S
N245 C243 1.384 . S
H246 C252 0.924 1_565 S
H247 C256 0.924 1_545 S
H248 C261 0.929 . S
H249 C259 0.929 . S
H250 C254 0.929 . S
H251 C260 0.929 . S
C252 H246 0.924 1_545 S
C252 C253 1.367 . S
C252 C260 1.378 1_545 S
C253 C252 1.367 . S
C253 C261 1.433 . S
C254 H250 0.929 . S
C254 C256 1.378 1_545 S
C254 C258 1.350 1_545 S
C255 C258 1.463 1_545 S
C255 C260 1.350 1_545 S
C255 N263 1.427 . S
C256 H247 0.924 1_565 S
C256 C254 1.378 1_565 S
C256 C257 1.367 . S
C257 C256 1.367 . S
C257 C259 1.433 . S
C258 C254 1.350 1_565 S
C258 C255 1.463 1_565 S
C258 N262 1.427 . S
C259 H249 0.929 . S
C259 C257 1.433 . S
C259 N262 1.384 . S
C260 H251 0.929 . S
C260 C252 1.378 1_565 S
C260 C255 1.350 1_565 S
C261 H248 0.929 . S
C261 C253 1.433 . S
C261 N263 1.384 . S
N262 C258 1.427 . S
N262 C259 1.384 . S
N263 C255 1.427 . S
N263 C261 1.384 . S
H264 C270 0.930 . S
H265 C274 0.930 . S
H266 C279 0.929 . S
H267 C277 0.929 . S
H268 C272 0.929 . S
H269 C278 0.929 . S
C270 H264 0.930 . S
C270 C271 1.367 . S
C270 C278 1.378 . S
C271 C270 1.367 . S
C271 C279 1.433 . S
C272 H268 0.929 . S
C272 C274 1.378 . S
C272 C276 1.350 . S
C273 C276 1.463 1_556 S
C273 C278 1.350 . S
C273 N281 1.427 . S
C274 H265 0.930 . S
C274 C272 1.378 . S
C274 C275 1.367 . S
C275 C274 1.367 . S
C275 C277 1.433 . S
C276 C272 1.350 . S
C276 C273 1.463 1_554 S
C276 N280 1.427 . S
C277 H267 0.929 . S
C277 C275 1.433 . S
C277 N280 1.384 . S
C278 H269 0.929 . S
C278 C270 1.378 . S
C278 C273 1.350 . S
C279 H266 0.929 . S
C279 C271 1.433 . S
C279 N281 1.384 . S
N280 C276 1.427 . S
N280 C277 1.384 . S
N281 C273 1.427 . S
N281 C279 1.384 . S
H282 C288 0.930 1_655 S
H283 C292 0.930 . S
H284 C297 0.929 . S
H285 C295 0.929 . S
H286 C290 0.929 . S
H287 C296 0.929 . S
C288 H282 0.930 1_455 S
C288 C289 1.367 . S
C288 C296 1.378 1_455 S
C289 C288 1.367 . S
C289 C297 1.433 . S
C290 H286 0.929 . S
C290 C292 1.378 1_455 S
C290 C294 1.350 1_455 S
C291 C294 1.463 1_455 S
C291 C296 1.350 1_455 S
C291 N299 1.427 . S
C292 H283 0.930 . S
C292 C290 1.378 1_655 S
C292 C293 1.367 . S
C293 C292 1.367 . S
C293 C295 1.433 . S
C294 C290 1.350 1_655 S
C294 C291 1.463 1_655 S
C294 N298 1.427 . S
C295 H285 0.929 . S
C295 C293 1.433 . S
C295 N298 1.384 . S
C296 H287 0.929 . S
C296 C288 1.378 1_655 S
C296 C291 1.350 1_655 S
C297 H284 0.929 . S
C297 C289 1.433 . S
C297 N299 1.384 . S
N298 C294 1.427 . S
N298 C295 1.384 . S
N299 C291 1.427 . S
N299 C297 1.384 . S
C91 C7 1.024 . S
C95 C64 1.022 . S
C109 C21 1.016 . S
C113 C77 0.997 . S
C127 C8 1.023 . S
C131 C36 1.027 . S
C145 C50 1.023 . S
C149 C22 1.029 . S
C163 C63 1.017 . S
C167 C35 1.019 . S
C181 C49 1.022 . S
C185 C78 1.030 . S
C199 C55 1.289 . S
C203 C13 1.291 . S
C217 C67 1.399 . S
C221 C27 1.305 . S
C235 C83 1.298 . S
C239 C39 1.388 . S
C253 C11 1.387 . S
C257 C53 1.386 . S
C271 C25 1.389 . S
C275 C69 1.299 . S
C289 C81 1.401 . S
C293 C41 1.306 . S
