# Generated by pormake.
# Topology ull, (4)-cn, num edge types: 1
# Building blocks:
#     Node 0, Type 0, BuildingBlock: GALJAG_clean_sbu_0, # of connection points: 4
#     Node 1, Type 0, BuildingBlock: GALJAG_clean_sbu_0, # of connection points: 4
#     Node 2, Type 0, BuildingBlock: GALJAG_clean_sbu_0, # of connection points: 4
#     Node 3, Type 0, BuildingBlock: GALJAG_clean_sbu_0, # of connection points: 4
#     Node 4, Type 0, BuildingBlock: GALJAG_clean_sbu_0, # of connection points: 4
#     Node 5, Type 0, BuildingBlock: GALJAG_clean_sbu_0, # of connection points: 4
#     Node 6, Type 0, BuildingBlock: GALJAG_clean_sbu_0, # of connection points: 4
#     Node 7, Type 0, BuildingBlock: GALJAG_clean_sbu_0, # of connection points: 4
#     Node 8, Type 0, BuildingBlock: GALJAG_clean_sbu_0, # of connection points: 4
#     Node 9, Type 0, BuildingBlock: GALJAG_clean_sbu_0, # of connection points: 4
#     Node 10, Type 0, BuildingBlock: GALJAG_clean_sbu_0, # of connection points: 4
#     Node 11, Type 0, BuildingBlock: GALJAG_clean_sbu_0, # of connection points: 4
#     Node 12, Type 0, BuildingBlock: GALJAG_clean_sbu_0, # of connection points: 4
#     Node 13, Type 0, BuildingBlock: GALJAG_clean_sbu_0, # of connection points: 4
#     Node 14, Type 0, BuildingBlock: GALJAG_clean_sbu_0, # of connection points: 4
#     Node 15, Type 0, BuildingBlock: GALJAG_clean_sbu_0, # of connection points: 4
#     Node 16, Type 0, BuildingBlock: GALJAG_clean_sbu_0, # of connection points: 4
#     Node 17, Type 0, BuildingBlock: GALJAG_clean_sbu_0, # of connection points: 4
#     Node 18, Type 0, BuildingBlock: GALJAG_clean_sbu_0, # of connection points: 4
#     Node 19, Type 0, BuildingBlock: GALJAG_clean_sbu_0, # of connection points: 4
#     Node 20, Type 0, BuildingBlock: GALJAG_clean_sbu_0, # of connection points: 4
#     Node 21, Type 0, BuildingBlock: GALJAG_clean_sbu_0, # of connection points: 4
#     Node 22, Type 0, BuildingBlock: GALJAG_clean_sbu_0, # of connection points: 4
#     Node 23, Type 0, BuildingBlock: GALJAG_clean_sbu_0, # of connection points: 4
#     Node 24, Type 0, BuildingBlock: GALJAG_clean_sbu_0, # of connection points: 4
#     Node 25, Type 0, BuildingBlock: GALJAG_clean_sbu_0, # of connection points: 4
#     Node 26, Type 0, BuildingBlock: GALJAG_clean_sbu_0, # of connection points: 4
#     Node 27, Type 0, BuildingBlock: GALJAG_clean_sbu_0, # of connection points: 4
#     Node 28, Type 0, BuildingBlock: GALJAG_clean_sbu_0, # of connection points: 4
#     Node 29, Type 0, BuildingBlock: GALJAG_clean_sbu_0, # of connection points: 4
#     Node 30, Type 0, BuildingBlock: GALJAG_clean_sbu_0, # of connection points: 4
#     Node 31, Type 0, BuildingBlock: GALJAG_clean_sbu_0, # of connection points: 4
#     Node 32, Type 0, BuildingBlock: GALJAG_clean_sbu_0, # of connection points: 4
#     Node 33, Type 0, BuildingBlock: GALJAG_clean_sbu_0, # of connection points: 4
#     Node 34, Type 0, BuildingBlock: GALJAG_clean_sbu_0, # of connection points: 4
#     Node 35, Type 0, BuildingBlock: GALJAG_clean_sbu_0, # of connection points: 4
#     Node 36, Type 0, BuildingBlock: GALJAG_clean_sbu_0, # of connection points: 4
#     Node 37, Type 0, BuildingBlock: GALJAG_clean_sbu_0, # of connection points: 4
#     Node 38, Type 0, BuildingBlock: GALJAG_clean_sbu_0, # of connection points: 4
#     Node 39, Type 0, BuildingBlock: GALJAG_clean_sbu_0, # of connection points: 4
#     Node 40, Type 0, BuildingBlock: GALJAG_clean_sbu_0, # of connection points: 4
#     Node 41, Type 0, BuildingBlock: GALJAG_clean_sbu_0, # of connection points: 4
#     Node 42, Type 0, BuildingBlock: GALJAG_clean_sbu_0, # of connection points: 4
#     Node 43, Type 0, BuildingBlock: GALJAG_clean_sbu_0, # of connection points: 4
#     Node 44, Type 0, BuildingBlock: GALJAG_clean_sbu_0, # of connection points: 4
#     Node 45, Type 0, BuildingBlock: GALJAG_clean_sbu_0, # of connection points: 4
#     Node 46, Type 0, BuildingBlock: GALJAG_clean_sbu_0, # of connection points: 4
#     Node 47, Type 0, BuildingBlock: GALJAG_clean_sbu_0, # of connection points: 4
#     Edge 48, Type (0, 0), BuildingBlock: UVAHIK_clean_linker_0, # of connection points: 2
#     Edge 49, Type (0, 0), BuildingBlock: UVAHIK_clean_linker_0, # of connection points: 2
#     Edge 50, Type (0, 0), BuildingBlock: UVAHIK_clean_linker_0, # of connection points: 2
#     Edge 51, Type (0, 0), BuildingBlock: UVAHIK_clean_linker_0, # of connection points: 2
#     Edge 52, Type (0, 0), BuildingBlock: UVAHIK_clean_linker_0, # of connection points: 2
#     Edge 53, Type (0, 0), BuildingBlock: UVAHIK_clean_linker_0, # of connection points: 2
#     Edge 54, Type (0, 0), BuildingBlock: UVAHIK_clean_linker_0, # of connection points: 2
#     Edge 55, Type (0, 0), BuildingBlock: UVAHIK_clean_linker_0, # of connection points: 2
#     Edge 56, Type (0, 0), BuildingBlock: UVAHIK_clean_linker_0, # of connection points: 2
#     Edge 57, Type (0, 0), BuildingBlock: UVAHIK_clean_linker_0, # of connection points: 2
#     Edge 58, Type (0, 0), BuildingBlock: UVAHIK_clean_linker_0, # of connection points: 2
#     Edge 59, Type (0, 0), BuildingBlock: UVAHIK_clean_linker_0, # of connection points: 2
#     Edge 60, Type (0, 0), BuildingBlock: UVAHIK_clean_linker_0, # of connection points: 2
#     Edge 61, Type (0, 0), BuildingBlock: UVAHIK_clean_linker_0, # of connection points: 2
#     Edge 62, Type (0, 0), BuildingBlock: UVAHIK_clean_linker_0, # of connection points: 2
#     Edge 63, Type (0, 0), BuildingBlock: UVAHIK_clean_linker_0, # of connection points: 2
#     Edge 64, Type (0, 0), BuildingBlock: UVAHIK_clean_linker_0, # of connection points: 2
#     Edge 65, Type (0, 0), BuildingBlock: UVAHIK_clean_linker_0, # of connection points: 2
#     Edge 66, Type (0, 0), BuildingBlock: UVAHIK_clean_linker_0, # of connection points: 2
#     Edge 67, Type (0, 0), BuildingBlock: UVAHIK_clean_linker_0, # of connection points: 2
#     Edge 68, Type (0, 0), BuildingBlock: UVAHIK_clean_linker_0, # of connection points: 2
#     Edge 69, Type (0, 0), BuildingBlock: UVAHIK_clean_linker_0, # of connection points: 2
#     Edge 70, Type (0, 0), BuildingBlock: UVAHIK_clean_linker_0, # of connection points: 2
#     Edge 71, Type (0, 0), BuildingBlock: UVAHIK_clean_linker_0, # of connection points: 2
#     Edge 72, Type (0, 0), BuildingBlock: UVAHIK_clean_linker_0, # of connection points: 2
#     Edge 73, Type (0, 0), BuildingBlock: UVAHIK_clean_linker_0, # of connection points: 2
#     Edge 74, Type (0, 0), BuildingBlock: UVAHIK_clean_linker_0, # of connection points: 2
#     Edge 75, Type (0, 0), BuildingBlock: UVAHIK_clean_linker_0, # of connection points: 2
#     Edge 76, Type (0, 0), BuildingBlock: UVAHIK_clean_linker_0, # of connection points: 2
#     Edge 77, Type (0, 0), BuildingBlock: UVAHIK_clean_linker_0, # of connection points: 2
#     Edge 78, Type (0, 0), BuildingBlock: UVAHIK_clean_linker_0, # of connection points: 2
#     Edge 79, Type (0, 0), BuildingBlock: UVAHIK_clean_linker_0, # of connection points: 2
#     Edge 80, Type (0, 0), BuildingBlock: UVAHIK_clean_linker_0, # of connection points: 2
#     Edge 81, Type (0, 0), BuildingBlock: UVAHIK_clean_linker_0, # of connection points: 2
#     Edge 82, Type (0, 0), BuildingBlock: UVAHIK_clean_linker_0, # of connection points: 2
#     Edge 83, Type (0, 0), BuildingBlock: UVAHIK_clean_linker_0, # of connection points: 2
#     Edge 84, Type (0, 0), BuildingBlock: UVAHIK_clean_linker_0, # of connection points: 2
#     Edge 85, Type (0, 0), BuildingBlock: UVAHIK_clean_linker_0, # of connection points: 2
#     Edge 86, Type (0, 0), BuildingBlock: UVAHIK_clean_linker_0, # of connection points: 2
#     Edge 87, Type (0, 0), BuildingBlock: UVAHIK_clean_linker_0, # of connection points: 2
#     Edge 88, Type (0, 0), BuildingBlock: UVAHIK_clean_linker_0, # of connection points: 2
#     Edge 89, Type (0, 0), BuildingBlock: UVAHIK_clean_linker_0, # of connection points: 2
#     Edge 90, Type (0, 0), BuildingBlock: UVAHIK_clean_linker_0, # of connection points: 2
#     Edge 91, Type (0, 0), BuildingBlock: UVAHIK_clean_linker_0, # of connection points: 2
#     Edge 92, Type (0, 0), BuildingBlock: UVAHIK_clean_linker_0, # of connection points: 2
#     Edge 93, Type (0, 0), BuildingBlock: UVAHIK_clean_linker_0, # of connection points: 2
#     Edge 94, Type (0, 0), BuildingBlock: UVAHIK_clean_linker_0, # of connection points: 2
#     Edge 95, Type (0, 0), BuildingBlock: UVAHIK_clean_linker_0, # of connection points: 2
#     Edge 96, Type (0, 0), BuildingBlock: UVAHIK_clean_linker_0, # of connection points: 2
#     Edge 97, Type (0, 0), BuildingBlock: UVAHIK_clean_linker_0, # of connection points: 2
#     Edge 98, Type (0, 0), BuildingBlock: UVAHIK_clean_linker_0, # of connection points: 2
#     Edge 99, Type (0, 0), BuildingBlock: UVAHIK_clean_linker_0, # of connection points: 2
#     Edge 100, Type (0, 0), BuildingBlock: UVAHIK_clean_linker_0, # of connection points: 2
#     Edge 101, Type (0, 0), BuildingBlock: UVAHIK_clean_linker_0, # of connection points: 2
#     Edge 102, Type (0, 0), BuildingBlock: UVAHIK_clean_linker_0, # of connection points: 2
#     Edge 103, Type (0, 0), BuildingBlock: UVAHIK_clean_linker_0, # of connection points: 2
#     Edge 104, Type (0, 0), BuildingBlock: UVAHIK_clean_linker_0, # of connection points: 2
#     Edge 105, Type (0, 0), BuildingBlock: UVAHIK_clean_linker_0, # of connection points: 2
#     Edge 106, Type (0, 0), BuildingBlock: UVAHIK_clean_linker_0, # of connection points: 2
#     Edge 107, Type (0, 0), BuildingBlock: UVAHIK_clean_linker_0, # of connection points: 2
#     Edge 108, Type (0, 0), BuildingBlock: UVAHIK_clean_linker_0, # of connection points: 2
#     Edge 109, Type (0, 0), BuildingBlock: UVAHIK_clean_linker_0, # of connection points: 2
#     Edge 110, Type (0, 0), BuildingBlock: UVAHIK_clean_linker_0, # of connection points: 2
#     Edge 111, Type (0, 0), BuildingBlock: UVAHIK_clean_linker_0, # of connection points: 2
#     Edge 112, Type (0, 0), BuildingBlock: UVAHIK_clean_linker_0, # of connection points: 2
#     Edge 113, Type (0, 0), BuildingBlock: UVAHIK_clean_linker_0, # of connection points: 2
#     Edge 114, Type (0, 0), BuildingBlock: UVAHIK_clean_linker_0, # of connection points: 2
#     Edge 115, Type (0, 0), BuildingBlock: UVAHIK_clean_linker_0, # of connection points: 2
#     Edge 116, Type (0, 0), BuildingBlock: UVAHIK_clean_linker_0, # of connection points: 2
#     Edge 117, Type (0, 0), BuildingBlock: UVAHIK_clean_linker_0, # of connection points: 2
#     Edge 118, Type (0, 0), BuildingBlock: UVAHIK_clean_linker_0, # of connection points: 2
#     Edge 119, Type (0, 0), BuildingBlock: UVAHIK_clean_linker_0, # of connection points: 2
#     Edge 120, Type (0, 0), BuildingBlock: UVAHIK_clean_linker_0, # of connection points: 2
#     Edge 121, Type (0, 0), BuildingBlock: UVAHIK_clean_linker_0, # of connection points: 2
#     Edge 122, Type (0, 0), BuildingBlock: UVAHIK_clean_linker_0, # of connection points: 2
#     Edge 123, Type (0, 0), BuildingBlock: UVAHIK_clean_linker_0, # of connection points: 2
#     Edge 124, Type (0, 0), BuildingBlock: UVAHIK_clean_linker_0, # of connection points: 2
#     Edge 125, Type (0, 0), BuildingBlock: UVAHIK_clean_linker_0, # of connection points: 2
#     Edge 126, Type (0, 0), BuildingBlock: UVAHIK_clean_linker_0, # of connection points: 2
#     Edge 127, Type (0, 0), BuildingBlock: UVAHIK_clean_linker_0, # of connection points: 2
#     Edge 128, Type (0, 0), BuildingBlock: UVAHIK_clean_linker_0, # of connection points: 2
#     Edge 129, Type (0, 0), BuildingBlock: UVAHIK_clean_linker_0, # of connection points: 2
#     Edge 130, Type (0, 0), BuildingBlock: UVAHIK_clean_linker_0, # of connection points: 2
#     Edge 131, Type (0, 0), BuildingBlock: UVAHIK_clean_linker_0, # of connection points: 2
#     Edge 132, Type (0, 0), BuildingBlock: UVAHIK_clean_linker_0, # of connection points: 2
#     Edge 133, Type (0, 0), BuildingBlock: UVAHIK_clean_linker_0, # of connection points: 2
#     Edge 134, Type (0, 0), BuildingBlock: UVAHIK_clean_linker_0, # of connection points: 2
#     Edge 135, Type (0, 0), BuildingBlock: UVAHIK_clean_linker_0, # of connection points: 2
#     Edge 136, Type (0, 0), BuildingBlock: UVAHIK_clean_linker_0, # of connection points: 2
#     Edge 137, Type (0, 0), BuildingBlock: UVAHIK_clean_linker_0, # of connection points: 2
#     Edge 138, Type (0, 0), BuildingBlock: UVAHIK_clean_linker_0, # of connection points: 2
#     Edge 139, Type (0, 0), BuildingBlock: UVAHIK_clean_linker_0, # of connection points: 2
#     Edge 140, Type (0, 0), BuildingBlock: UVAHIK_clean_linker_0, # of connection points: 2
#     Edge 141, Type (0, 0), BuildingBlock: UVAHIK_clean_linker_0, # of connection points: 2
#     Edge 142, Type (0, 0), BuildingBlock: UVAHIK_clean_linker_0, # of connection points: 2
#     Edge 143, Type (0, 0), BuildingBlock: UVAHIK_clean_linker_0, # of connection points: 2
# Relax obj value: 0.015
# Max RMSD: 0.045
# Mean RMSD: 0.045
data_MOF--net-ull--node1-GALJAG_clean_sbu_0--edge1-UVAHIK_clean_linker_0
_symmetry_space_group_name_H-M    P1
_symmetry_Int_Tables_number       1
_symmetry_cell_setting            triclinic
loop_
_symmetry_equiv_pos_as_xyz
'x, y, z'
_cell_length_a     79.741982
_cell_length_b     79.706014
_cell_length_c     79.7259
_cell_angle_alpha  89.997949
_cell_angle_beta   90.003184
_cell_angle_gamma 89.992742
loop_
_atom_site_label
_atom_site_type_symbol
_atom_site_fract_x
_atom_site_fract_y
_atom_site_fract_z
_atom_type_partial_charge
In0 In 0.01662 0.34671 0.17263 0.0
O1 O 0.02462 0.32258 0.18567 0.0
O2 O 0.00036 0.33223 0.19119 0.0
C3 C 0.03999 0.34712 0.14803 0.0
C4 C 0.02719 0.36934 0.19544 0.0
C5 C 0.98815 0.34822 0.15447 0.0
O6 O 0.03475 0.33373 0.15461 0.0
O7 O 0.03347 0.36029 0.15385 0.0
O8 O 0.99332 0.3605 0.16305 0.0
O9 O 0.99731 0.33534 0.1551 0.0
C10 C 0.01113 0.32092 0.19379 0.0
O11 O 0.01459 0.37206 0.18623 0.0
O12 O 0.03426 0.35541 0.19306 0.0
In13 In 0.65159 0.01766 0.17216 0.0
O14 O 0.62679 0.01642 0.18686 0.0
O15 O 0.64171 0.03846 0.18857 0.0
C16 C 0.65071 0.98892 0.15446 0.0
C17 C 0.67629 0.01197 0.19451 0.0
C18 C 0.65148 0.0397 0.1465 0.0
O19 O 0.63808 0.99424 0.16244 0.0
O20 O 0.66357 0.99809 0.15546 0.0
O21 O 0.66467 0.03608 0.15449 0.0
O22 O 0.6385 0.03206 0.15133 0.0
C23 C 0.62846 0.031 0.19287 0.0
O24 O 0.67606 0.02477 0.18518 0.0
O25 O 0.66408 0.0021 0.19258 0.0
In26 In 0.9782 0.65169 0.17249 0.0
O27 O 0.97084 0.67599 0.18559 0.0
O28 O 0.99503 0.6659 0.1907 0.0
C29 C 0.95437 0.65143 0.14838 0.0
C30 C 0.96796 0.62908 0.19546 0.0
C31 C 0.00616 0.65021 0.15358 0.0
O32 O 0.9596 0.66477 0.15505 0.0
O33 O 0.9611 0.63823 0.15389 0.0
O34 O 0.00124 0.63792 0.16229 0.0
O35 O 0.99702 0.66308 0.15448 0.0
C36 C 0.98452 0.67743 0.19343 0.0
O37 O 0.98039 0.62634 0.18603 0.0
O38 O 0.96089 0.64304 0.19323 0.0
In39 In 0.34425 0.9792 0.17162 0.0
O40 O 0.36826 0.98069 0.18745 0.0
O41 O 0.35492 0.95759 0.18652 0.0
C42 C 0.34537 0.00836 0.15445 0.0
C43 C 0.3194 0.98344 0.1941 0.0
C44 C 0.34411 0.95771 0.14551 0.0
O45 O 0.35837 0.00174 0.1606 0.0
O46 O 0.33199 0.00044 0.1572 0.0
O47 O 0.33095 0.96137 0.15353 0.0
O48 O 0.35721 0.96493 0.15062 0.0
C49 C 0.36742 0.96553 0.19206 0.0
O50 O 0.31875 0.9725 0.18265 0.0
O51 O 0.3326 0.99217 0.19422 0.0
In52 In 0.01802 0.65288 0.8254 0.0
O53 O 0.01754 0.62814 0.81084 0.0
O54 O 0.03853 0.64438 0.80775 0.0
C55 C 0.98893 0.65079 0.8426 0.0
C56 C 0.01141 0.67777 0.80355 0.0
C57 C 0.04129 0.65287 0.85001 0.0
O58 O 0.99539 0.63823 0.83545 0.0
O59 O 0.99706 0.66423 0.84095 0.0
O60 O 0.03843 0.66559 0.84105 0.0
O61 O 0.03241 0.64025 0.8466 0.0
C62 C 0.0315 0.63075 0.80379 0.0
O63 O 0.01988 0.68009 0.81672 0.0
O64 O 0.0062 0.66295 0.80148 0.0
In65 In 0.34639 0.01891 0.82413 0.0
O66 O 0.32052 0.02508 0.81368 0.0
O67 O 0.33308 0.00361 0.80399 0.0
C68 C 0.34851 0.04379 0.8471 0.0
C69 C 0.36913 0.02873 0.80113 0.0
C70 C 0.34667 0.99087 0.84311 0.0
O71 O 0.33498 0.03999 0.83986 0.0
O72 O 0.36093 0.03501 0.84283 0.0
O73 O 0.35857 0.99458 0.83336 0.0
O74 O 0.3348 0.0013 0.8433 0.0
C75 C 0.3202 0.01283 0.80364 0.0
O76 O 0.37206 0.01697 0.81134 0.0
O77 O 0.35486 0.03539 0.8026 0.0
In78 In 0.97971 0.34784 0.82294 0.0
O79 O 0.96955 0.32485 0.80913 0.0
O80 O 0.99408 0.33325 0.80303 0.0
C81 C 0.95859 0.34712 0.84934 0.0
C82 C 0.96797 0.3726 0.80306 0.0
C83 C 0.00861 0.34899 0.84041 0.0
O84 O 0.96234 0.33408 0.84116 0.0
O85 O 0.96562 0.36036 0.8443 0.0
O86 O 0.00236 0.36186 0.83359 0.0
O87 O 0.00035 0.33567 0.83829 0.0
C88 C 0.98261 0.32268 0.80046 0.0
O89 O 0.98343 0.37099 0.80609 0.0
O90 O 0.95875 0.36167 0.80977 0.0
In91 In 0.65351 0.98014 0.82517 0.0
O92 O 0.67807 0.97266 0.81251 0.0
O93 O 0.66647 0.99545 0.80485 0.0
C94 C 0.65366 0.95858 0.85124 0.0
C95 C 0.63087 0.96659 0.80404 0.0
C96 C 0.65134 0.00897 0.84265 0.0
O97 O 0.66697 0.96314 0.84396 0.0
O98 O 0.64042 0.96493 0.8454 0.0
O99 O 0.63886 0.00277 0.83509 0.0
O100 O 0.66475 0.00071 0.84122 0.0
C101 C 0.67857 0.9854 0.80311 0.0
O102 O 0.62922 0.98133 0.80968 0.0
O103 O 0.64387 0.95904 0.80893 0.0
In104 In 0.17182 0.01733 0.34514 0.0
O105 O 0.18663 0.01665 0.36975 0.0
O106 O 0.19137 0.03652 0.35257 0.0
C107 C 0.15412 0.98862 0.34774 0.0
C108 C 0.19257 0.01054 0.31936 0.0
C109 C 0.14732 0.04073 0.34615 0.0
O110 O 0.16264 0.99437 0.35978 0.0
O111 O 0.15453 0.99736 0.33457 0.0
O112 O 0.15428 0.03627 0.33266 0.0
O113 O 0.15266 0.03335 0.35907 0.0
C114 C 0.19485 0.02979 0.36645 0.0
O115 O 0.18198 0.02232 0.31888 0.0
O116 O 0.19261 0.00217 0.3328 0.0
In117 In 0.97918 0.17238 0.34476 0.0
O118 O 0.97147 0.18539 0.32043 0.0
O119 O 0.99458 0.19256 0.33163 0.0
C120 C 0.95753 0.14639 0.34449 0.0
C121 C 0.96583 0.19306 0.36795 0.0
C122 C 0.00797 0.15479 0.34659 0.0
O123 O 0.96159 0.15417 0.33131 0.0
O124 O 0.96451 0.15162 0.35768 0.0
O125 O 0.00216 0.16274 0.35902 0.0
O126 O -0.0007 0.15583 0.33339 0.0
C127 C 0.98435 0.19456 0.31973 0.0
O128 O 0.98073 0.18779 0.3691 0.0
O129 O 0.95802 0.18808 0.35515 0.0
In130 In 0.82486 0.9785 0.34508 0.0
O131 O 0.80988 0.98085 0.36964 0.0
O132 O 0.80971 0.95756 0.35662 0.0
C133 C 0.84296 0.00701 0.34578 0.0
C134 C 0.80197 0.98321 0.32065 0.0
C135 C 0.85074 0.95674 0.34432 0.0
O136 O 0.83555 0.00146 0.35866 0.0
O137 O 0.84106 0.99827 0.33273 0.0
O138 O 0.84282 0.96092 0.33125 0.0
O139 O 0.84565 0.96359 0.35763 0.0
C140 C 0.80483 0.96582 0.36919 0.0
O141 O 0.81089 0.97016 0.32153 0.0
O142 O 0.80456 0.99383 0.33209 0.0
In143 In 0.01881 0.82399 0.34512 0.0
O144 O 0.027 0.81119 0.32097 0.0
O145 O 0.00233 0.80627 0.3299 0.0
C146 C 0.04341 0.84722 0.34705 0.0
C147 C 0.02743 0.80052 0.36791 0.0
C148 C 0.99122 0.84353 0.34537 0.0
O149 O 0.0386 0.841 0.33334 0.0
O150 O 0.03586 0.8417 0.35979 0.0
O151 O 0.99489 0.83399 0.35748 0.0
O152 O 0.00142 0.84314 0.33329 0.0
C153 C 0.0133 0.80354 0.31881 0.0
O154 O 0.01575 0.81088 0.37062 0.0
O155 O 0.03454 0.80208 0.35388 0.0
In156 In 0.17262 0.98051 0.65224 0.0
O157 O 0.18237 0.97545 0.67864 0.0
O158 O 0.19388 0.99503 0.66462 0.0
C159 C 0.14851 0.95678 0.65048 0.0
C160 C 0.19531 0.96837 0.63032 0.0
C161 C 0.15434 0.00899 0.65091 0.0
O162 O 0.15616 0.96016 0.66391 0.0
O163 O 0.15294 0.96543 0.63801 0.0
O164 O 0.16326 0.00413 0.63876 0.0
O165 O 0.15471 -0.00046 0.66358 0.0
C166 C 0.19341 0.98679 0.67814 0.0
O167 O 0.18719 0.98169 0.62744 0.0
O168 O 0.19195 0.9614 0.64411 0.0
In169 In 0.01642 0.17272 0.6521 0.0
O170 O 0.01556 0.18695 0.62709 0.0
O171 O 0.03455 0.19326 0.64473 0.0
C172 C 0.9881 0.15453 0.64921 0.0
C173 C 0.00933 0.19333 0.67796 0.0
C174 C 0.03995 0.1483 0.65154 0.0
O175 O 0.99338 0.1638 0.63749 0.0
O176 O 0.99714 0.15443 0.66219 0.0
O177 O 0.03451 0.15456 0.66502 0.0
O178 O 0.03351 0.15432 0.63842 0.0
C179 C 0.02809 0.19602 0.63056 0.0
O180 O 0.02282 0.18507 0.6771 0.0
O181 O -0.00061 0.1911 0.66584 0.0
In182 In 0.82416 0.01829 0.64983 0.0
O183 O 0.81203 0.01544 0.62383 0.0
O184 O 0.80151 0.03291 0.641 0.0
C185 C 0.84391 0.99084 0.64963 0.0
C186 C 0.80347 0.01263 0.67592 0.0
C187 C 0.847 0.04334 0.64842 0.0
O188 O 0.83437 0.99442 0.6375 0.0
O189 O 0.84342 0.00104 0.6617 0.0
O190 O 0.84102 0.038 0.66204 0.0
O191 O 0.84142 0.03613 0.63553 0.0
C192 C 0.80085 0.02631 0.62666 0.0
O193 O 0.81061 0.02656 0.67354 0.0
O194 O 0.80682 0.00148 0.66517 0.0
In195 In 0.98073 0.82585 0.65215 0.0
O196 O 0.97815 0.81756 0.67942 0.0
O197 O 0.99119 0.80144 0.66257 0.0
C198 C 0.9587 0.8516 0.65216 0.0
C199 C 0.96603 0.80443 0.63061 0.0
C200 C 0.01062 0.84161 0.64937 0.0
O201 O 0.96206 0.8433 0.6652 0.0
O202 O 0.96649 0.84699 0.63921 0.0
O203 O 0.00325 0.83531 0.63686 0.0
O204 O 0.00302 0.83979 0.66308 0.0
C205 C 0.98593 0.80391 0.6773 0.0
O206 O 0.98052 0.81033 0.62799 0.0
O207 O 0.9591 0.80944 0.64393 0.0
In208 In 0.34488 0.172 0.01617 0.0
O209 O 0.31742 0.18007 0.01739 0.0
O210 O 0.33512 0.19732 0.00731 0.0
C211 C 0.34416 0.14554 0.03731 0.0
C212 C 0.36709 0.19167 0.03227 0.0
C213 C 0.34803 0.15737 0.98576 0.0
O214 O 0.33184 0.15533 0.03554 0.0
O215 O 0.35666 0.14897 0.02827 0.0
O216 O 0.36038 0.16369 0.99338 0.0
O217 O 0.33427 0.15857 0.9934 0.0
C218 C 0.32004 0.19437 0.01108 0.0
O219 O 0.36917 0.18727 0.01718 0.0
O220 O 0.35386 0.18621 0.03903 0.0
In221 In 0.34352 0.82475 0.97763 0.0
O222 O 0.31956 0.81083 0.9707 0.0
O223 O 0.32919 0.80753 0.99538 0.0
C224 C 0.34372 0.84782 0.95278 0.0
C225 C 0.36639 0.80154 0.96861 0.0
C226 C 0.34477 0.8448 0.0048 0.0
O227 O 0.33037 0.84167 0.95859 0.0
O228 O 0.35695 0.84221 0.95935 0.0
O229 O 0.35684 0.83535 0.00077 0.0
O230 O 0.33225 0.84405 0.99516 0.0
C231 C 0.31793 0.80391 0.98485 0.0
O232 O 0.36934 0.81222 0.97995 0.0
O233 O 0.35208 0.80268 0.96199 0.0
In234 In 0.17129 0.34499 0.97918 0.0
O235 O 0.18007 0.31785 0.97661 0.0
O236 O 0.19496 0.33456 0.99119 0.0
C237 C 0.14677 0.346 0.95586 0.0
C238 C 0.19306 0.36702 0.96578 0.0
C239 C 0.15384 0.34641 0.00817 0.0
O240 O 0.15542 0.333 0.95852 0.0
O241 O 0.15044 0.35836 0.96501 0.0
O242 O 0.16169 0.35894 0.00249 0.0
O243 O 0.15495 0.33337 -0.00067 0.0
C244 C 0.19307 0.31993 0.98542 0.0
O245 O 0.18598 0.3697 0.97972 0.0
O246 O 0.18906 0.3534 0.95877 0.0
In247 In 0.65012 0.17336 0.97971 0.0
O248 O 0.62622 0.18928 0.98186 0.0
O249 O 0.63829 0.1875 0.95814 0.0
C250 C 0.64937 0.15609 0.00883 0.0
C251 C 0.67499 0.19595 0.98363 0.0
C252 C 0.6501 0.14748 0.95792 0.0
O253 O 0.63642 0.16274 0.00263 0.0
O254 O 0.66258 0.15833 0.00047 0.0
O255 O 0.66301 0.15622 0.9607 0.0
O256 O 0.63733 0.15169 0.96625 0.0
C257 C 0.62621 0.19332 0.96653 0.0
O258 O 0.67569 0.18427 0.97297 0.0
O259 O 0.66173 0.19627 0.99226 0.0
In260 In 0.82409 0.65018 0.9788 0.0
O261 O 0.80745 0.62698 0.98298 0.0
O262 O 0.81054 0.63626 0.95819 0.0
C263 C 0.84208 0.64989 0.00739 0.0
C264 C 0.80174 0.67542 0.9819 0.0
C265 C 0.85002 0.65014 0.95716 0.0
O266 O 0.83462 0.63699 0.00201 0.0
O267 O 0.84038 0.6628 0.9984 0.0
O268 O 0.84168 0.66323 0.96034 0.0
O269 O 0.8454 0.63722 0.96504 0.0
C270 C 0.80408 0.62533 0.96759 0.0
O271 O 0.81042 0.67334 0.96883 0.0
O272 O 0.80423 0.66473 0.99328 0.0
In273 In 0.65316 0.82437 0.0182 0.0
O274 O 0.67764 0.81115 0.02456 0.0
O275 O 0.66702 0.80676 0.00046 0.0
C276 C 0.65252 0.84725 0.04318 0.0
C277 C 0.63062 0.80105 0.02776 0.0
C278 C 0.65214 0.8447 0.99124 0.0
O279 O 0.66592 0.84058 0.03807 0.0
O280 O 0.63946 0.84231 0.03578 0.0
O281 O 0.6401 0.83509 0.99496 0.0
O282 O 0.66451 0.84397 0.00106 0.0
C283 C 0.67878 0.80372 0.01062 0.0
O284 O 0.62754 0.81134 0.01609 0.0
O285 O 0.64487 0.80263 0.03439 0.0
In286 In 0.17245 0.65092 0.01878 0.0
O287 O 0.18838 0.62706 0.01568 0.0
O288 O 0.18705 0.63858 0.03969 0.0
C289 C 0.15487 0.65059 0.98993 0.0
C290 C 0.19485 0.67598 0.01509 0.0
C291 C 0.14635 0.65085 0.04027 0.0
O292 O 0.16176 0.63754 0.99572 0.0
O293 O 0.15695 0.66363 -0.00137 0.0
O294 O 0.15442 0.66404 0.0368 0.0
O295 O 0.15136 0.63785 0.03279 0.0
C296 C 0.19271 0.6267 0.03092 0.0
O297 O 0.18549 0.67478 0.02779 0.0
O298 O 0.19301 0.66448 0.00437 0.0
In299 In 0.82487 0.34518 0.01652 0.0
O300 O 0.81387 0.31933 0.02183 0.0
O301 O 0.80409 0.33308 0.00114 0.0
C302 C 0.84881 0.34631 0.04046 0.0
C303 C 0.80221 0.36738 0.02816 0.0
C304 C 0.8438 0.34638 0.9885 0.0
O305 O 0.84161 0.33285 0.03628 0.0
O306 O 0.84396 0.35912 0.03258 0.0
O307 O 0.83536 0.35883 0.9935 0.0
O308 O 0.84259 0.33349 0.99757 0.0
C309 C 0.80356 0.31984 0.00981 0.0
O310 O 0.81059 0.37014 0.01498 0.0
O311 O 0.80532 0.35359 0.03526 0.0
In312 In 0.51529 0.84622 0.67298 0.0
O313 O 0.51529 0.87099 0.68759 0.0
O314 O 0.53629 0.85464 0.69001 0.0
C315 C 0.48608 0.8478 0.65593 0.0
C316 C 0.50907 0.82168 0.69533 0.0
C317 C 0.5381 0.84664 0.64797 0.0
O318 O 0.49223 0.86045 0.66323 0.0
O319 O 0.49456 0.83455 0.65741 0.0
O320 O 0.53537 0.83372 0.65671 0.0
O321 O 0.52928 0.8592 0.65178 0.0
C322 C 0.52946 0.8683 0.6942 0.0
O323 O 0.51769 0.81923 0.68226 0.0
O324 O 0.5035 0.83641 0.697 0.0
In325 In 0.15227 0.51683 0.67197 0.0
O326 O 0.12808 0.51613 0.68757 0.0
O327 O 0.14258 0.53853 0.68737 0.0
C328 C 0.15067 0.48773 0.65481 0.0
C329 C 0.17705 0.51158 0.69431 0.0
C330 C 0.15204 0.53865 0.64613 0.0
O331 O 0.13792 0.49419 0.66164 0.0
O332 O 0.16408 0.49584 0.65683 0.0
O333 O 0.16516 0.53554 0.65445 0.0
O334 O 0.13922 0.53064 0.65075 0.0
C335 C 0.12965 0.53109 0.69261 0.0
O336 O 0.17819 0.5223 0.6827 0.0
O337 O 0.16343 0.50351 0.69461 0.0
In338 In 0.47965 0.15159 0.67255 0.0
O339 O 0.47157 0.17552 0.68604 0.0
O340 O 0.4948 0.16445 0.69304 0.0
C341 C 0.45715 0.15148 0.64736 0.0
C342 C 0.46763 0.12722 0.69266 0.0
C343 C 0.50779 0.15157 0.65388 0.0
O344 O 0.46048 0.16457 0.65564 0.0
O345 O 0.46534 0.13864 0.65163 0.0
O346 O 0.5027 0.1386 0.66145 0.0
O347 O 0.49875 0.16441 0.65583 0.0
C348 C 0.48443 0.17619 0.69524 0.0
O349 O 0.48273 0.12729 0.68783 0.0
O350 O 0.459 0.13945 0.6876 0.0
In351 In 0.84558 0.47886 0.67327 0.0
O352 O 0.87194 0.48152 0.68455 0.0
O353 O 0.85461 0.46513 0.69645 0.0
C354 C 0.84575 0.50618 0.65332 0.0
C355 C 0.81936 0.48443 0.69384 0.0
C356 C 0.84719 0.45344 0.65085 0.0
O357 O 0.85742 0.50316 0.6636 0.0
O358 O 0.83411 0.49548 0.65319 0.0
O359 O 0.83352 0.45885 0.65664 0.0
O360 O 0.86002 0.46076 0.65642 0.0
C361 C 0.86916 0.47132 0.69634 0.0
O362 O 0.82185 0.47048 0.68674 0.0
O363 O 0.83008 0.4956 0.69052 0.0
In364 In 0.5173 0.15174 0.32627 0.0
O365 O 0.51622 0.12721 0.31134 0.0
O366 O 0.53783 0.14272 0.3089 0.0
C367 C 0.48819 0.14985 0.34348 0.0
C368 C 0.51104 0.17664 0.30435 0.0
C369 C 0.54061 0.15198 0.35085 0.0
O370 O 0.49516 0.13704 0.33731 0.0
O371 O 0.4958 0.16342 0.34083 0.0
O372 O 0.53779 0.16458 0.34171 0.0
O373 O 0.53166 0.13936 0.34763 0.0
C374 C 0.5304 0.12942 0.3046 0.0
O375 O 0.51932 0.17895 0.31766 0.0
O376 O 0.50586 0.16184 0.30217 0.0
In377 In 0.84521 0.51753 0.32444 0.0
O378 O 0.86949 0.515 0.30902 0.0
O379 O 0.85669 0.53839 0.30913 0.0
C380 C 0.84608 0.48905 0.34262 0.0
C381 C 0.82021 0.51293 0.30206 0.0
C382 C 0.84557 0.53962 0.35006 0.0
O383 O 0.85861 0.49418 0.33439 0.0
O384 O 0.83322 0.4982 0.34155 0.0
O385 O 0.83232 0.53609 0.34211 0.0
O386 O 0.85846 0.53184 0.34522 0.0
C387 C 0.86912 0.53006 0.30406 0.0
O388 O 0.82126 0.52587 0.31111 0.0
O389 O 0.83173 0.50231 0.30431 0.0
In390 In 0.48084 0.8458 0.32468 0.0
O391 O 0.47652 0.81967 0.31381 0.0
O392 O 0.49608 0.83452 0.30336 0.0
C393 C 0.45717 0.84626 0.34893 0.0
C394 C 0.46805 0.86762 0.30228 0.0
C395 C 0.50924 0.84781 0.34298 0.0
O396 O 0.46152 0.83293 0.34157 0.0
O397 O 0.46479 0.85925 0.34411 0.0
O398 O 0.5038 0.86005 0.33451 0.0
O399 O 0.50039 0.83474 0.34216 0.0
C400 C 0.48811 0.82083 0.30307 0.0
O401 O 0.48113 0.8709 0.31061 0.0
O402 O 0.46158 0.85351 0.30534 0.0
In403 In 0.15146 0.47992 0.32382 0.0
O404 O 0.17568 0.4716 0.31107 0.0
O405 O 0.16498 0.49484 0.30353 0.0
C406 C 0.15077 0.45761 0.34923 0.0
C407 C 0.1276 0.46769 0.30319 0.0
C408 C 0.15087 0.50832 0.34214 0.0
O409 O 0.16404 0.46095 0.34125 0.0
O410 O 0.13802 0.46571 0.34455 0.0
O411 O 0.13818 0.50315 0.33417 0.0
O412 O 0.16375 0.49924 0.34073 0.0
C413 C 0.17669 0.48435 0.30175 0.0
O414 O 0.12732 0.48272 0.30824 0.0
O415 O 0.13993 0.45924 0.3083 0.0
In416 In 0.67317 0.51987 0.84584 0.0
O417 O 0.68365 0.51814 0.8726 0.0
O418 O 0.69648 0.53336 0.85489 0.0
C419 C 0.6536 0.4923 0.84633 0.0
C420 C 0.69383 0.51357 0.81984 0.0
C421 C 0.65069 0.5453 0.84636 0.0
O422 O 0.66417 0.49535 0.85772 0.0
O423 O 0.65291 0.50314 0.83483 0.0
O424 O 0.65733 0.54005 0.83301 0.0
O425 O 0.65542 0.53778 0.85943 0.0
C426 C 0.69582 0.52784 0.86968 0.0
O427 O 0.6871 0.52772 0.82216 0.0
O428 O 0.69013 0.50258 0.83062 0.0
In429 In 0.4807 0.67376 0.84777 0.0
O430 O 0.47789 0.68241 0.82061 0.0
O431 O 0.48788 0.69975 0.83824 0.0
C432 C 0.45922 0.64761 0.84686 0.0
C433 C 0.46685 0.69215 0.87247 0.0
C434 C 0.51106 0.65867 0.8484 0.0
O435 O 0.4599 0.65845 0.83534 0.0
O436 O 0.4695 0.64984 0.85867 0.0
O437 O 0.50398 0.66387 0.86156 0.0
O438 O 0.50294 0.66125 0.83511 0.0
C439 C 0.48368 0.69691 0.82325 0.0
O440 O 0.48245 0.68936 0.87185 0.0
O441 O 0.45848 0.68583 0.86062 0.0
In442 In 0.32576 0.48075 0.84535 0.0
O443 O 0.31471 0.47478 0.81969 0.0
O444 O 0.30309 0.49398 0.83417 0.0
C445 C 0.35193 0.45932 0.84482 0.0
C446 C 0.30522 0.46633 0.86797 0.0
C447 C 0.34265 0.51004 0.84699 0.0
O448 O 0.34379 0.46305 0.83176 0.0
O449 O 0.34694 0.46647 0.85801 0.0
O450 O 0.33667 0.50307 0.8599 0.0
O451 O 0.3399 0.50236 0.83346 0.0
C452 C 0.30319 0.48562 0.82071 0.0
O453 O 0.31011 0.48134 0.86953 0.0
O454 O 0.3106 0.4589 0.85509 0.0
In455 In 0.51934 0.32577 0.84422 0.0
O456 O 0.52692 0.3119 0.82045 0.0
O457 O 0.50241 0.30756 0.83012 0.0
C458 C 0.54347 0.34957 0.84428 0.0
C459 C 0.52897 0.30293 0.8672 0.0
C460 C 0.49166 0.34514 0.84516 0.0
O461 O 0.53769 0.34334 0.83096 0.0
O462 O 0.53721 0.34371 0.85755 0.0
O463 O 0.49631 0.33654 0.85763 0.0
O464 O 0.5009 0.34386 0.83239 0.0
C465 C 0.51313 0.30427 0.81893 0.0
O466 O 0.51689 0.31285 0.86987 0.0
O467 O 0.536 0.30467 0.85315 0.0
In468 In 0.67237 0.48033 0.1505 0.0
O469 O 0.68768 0.48209 0.12607 0.0
O470 O 0.68841 0.45945 0.14014 0.0
C471 C 0.65389 0.5086 0.1493 0.0
C472 C 0.69456 0.48598 0.17539 0.0
C473 C 0.64706 0.45788 0.15036 0.0
O474 O 0.66177 0.50316 0.13666 0.0
O475 O 0.65548 0.49987 0.1624 0.0
O476 O 0.65501 0.46158 0.16356 0.0
O477 O 0.65175 0.46565 0.13741 0.0
C478 C 0.69319 0.46727 0.12727 0.0
O479 O 0.68529 0.47315 0.17501 0.0
O480 O 0.69264 0.49595 0.16325 0.0
In481 In 0.51683 0.67335 0.15019 0.0
O482 O 0.51537 0.68896 0.12609 0.0
O483 O 0.53887 0.68697 0.13856 0.0
C484 C 0.48707 0.65722 0.14905 0.0
C485 C 0.51332 0.69628 0.17487 0.0
C486 C 0.53799 0.64692 0.15028 0.0
O487 O 0.49357 0.6639 0.13626 0.0
O488 O 0.4955 0.6588 0.16232 0.0
O489 O 0.5354 0.65575 0.16317 0.0
O490 O 0.52978 0.6513 0.13749 0.0
C491 C 0.53075 0.69276 0.12628 0.0
O492 O 0.52315 0.68392 0.17606 0.0
O493 O 0.5053 0.69705 0.16125 0.0
In494 In 0.32482 0.51865 0.15146 0.0
O495 O 0.31148 0.52597 0.17561 0.0
O496 O 0.30704 0.5015 0.16585 0.0
C497 C 0.34785 0.54351 0.15034 0.0
C498 C 0.30154 0.52772 0.12866 0.0
C499 C 0.34464 0.49127 0.15085 0.0
O500 O 0.34144 0.53846 0.16388 0.0
O501 O 0.34265 0.53606 0.13742 0.0
O502 O 0.3355 0.49531 0.13855 0.0
O503 O 0.34373 0.501 0.16328 0.0
C504 C 0.30396 0.51211 0.1772 0.0
O505 O 0.31186 0.51602 0.12583 0.0
O506 O 0.30305 0.53461 0.1428 0.0
In507 In 0.48021 0.32529 0.15357 0.0
O508 O 0.47761 0.31684 0.18079 0.0
O509 O 0.49102 0.30102 0.16394 0.0
C510 C 0.45815 0.35098 0.15333 0.0
C511 C 0.46556 0.30381 0.13207 0.0
C512 C 0.50994 0.34136 0.15109 0.0
O513 O 0.46125 0.34258 0.16638 0.0
O514 O 0.4662 0.34647 0.1405 0.0
O515 O 0.5029 0.33476 0.13854 0.0
O516 O 0.50212 0.33965 0.16469 0.0
C517 C 0.48562 0.30334 0.17864 0.0
O518 O 0.48002 0.30977 0.12941 0.0
O519 O 0.45863 0.30881 0.14539 0.0
In520 In 0.84393 0.67187 0.51743 0.0
O521 O 0.81814 0.68265 0.5234 0.0
O522 O 0.83256 0.69457 0.50436 0.0
C523 C 0.84376 0.6455 0.53863 0.0
C524 C 0.86624 0.6925 0.5322 0.0
C525 C 0.84606 0.65545 0.4879 0.0
O526 O 0.83052 0.65316 0.53454 0.0
O527 O 0.85696 0.65107 0.53195 0.0
O528 O 0.85866 0.66227 0.49465 0.0
O529 O 0.83256 0.65711 0.49594 0.0
C530 C 0.81909 0.69428 0.51269 0.0
O531 O 0.86823 0.6873 0.51735 0.0
O532 O 0.85308 0.68737 0.53932 0.0
In533 In 0.8455 0.32521 0.48071 0.0
O534 O 0.82069 0.31258 0.47409 0.0
O535 O 0.83204 0.30637 0.49743 0.0
C536 C 0.84573 0.35008 0.45765 0.0
C537 C 0.86737 0.30247 0.46854 0.0
C538 C 0.84806 0.34296 0.50933 0.0
O539 O 0.83235 0.34343 0.46285 0.0
O540 O 0.85892 0.34423 0.46411 0.0
O541 O 0.85994 0.33398 0.50391 0.0
O542 O 0.8351 0.34301 0.50026 0.0
C543 C 0.81996 0.30412 0.48746 0.0
O544 O 0.87064 0.31115 0.48139 0.0
O545 O 0.85325 0.30532 0.46203 0.0
In546 In 0.67223 0.84691 0.48144 0.0
O547 O 0.68678 0.87171 0.48298 0.0
O548 O 0.69187 0.85513 0.4627 0.0
C549 C 0.65384 0.84836 0.50982 0.0
C550 C 0.69338 0.8213 0.48763 0.0
C551 C 0.64804 0.84785 0.45771 0.0
O552 O 0.66165 0.86094 0.50421 0.0
O553 O 0.65538 0.83523 0.50118 0.0
O554 O 0.65507 0.8344 0.46217 0.0
O555 O 0.65318 0.86077 0.46522 0.0
C556 C 0.69515 0.86887 0.46982 0.0
O557 O 0.6829 0.82103 0.47575 0.0
O558 O 0.69312 0.83447 0.49644 0.0
In559 In 0.14995 0.67268 0.47955 0.0
O560 O 0.17344 0.68676 0.47111 0.0
O561 O 0.16306 0.69291 0.49489 0.0
C562 C 0.15076 0.64685 0.45772 0.0
C563 C 0.12553 0.69252 0.46712 0.0
C564 C 0.14909 0.6545 0.508 0.0
O565 O 0.16376 0.65505 0.46159 0.0
O566 O 0.13754 0.6516 0.46497 0.0
O567 O 0.13622 0.66177 0.50226 0.0
O568 O 0.16224 0.65652 0.49946 0.0
C569 C 0.17443 0.69558 0.48422 0.0
O570 O 0.1257 0.68808 0.48233 0.0
O571 O 0.1377 0.68721 0.45855 0.0
In572 In 0.32438 0.15185 0.48097 0.0
O573 O 0.30941 0.12734 0.48119 0.0
O574 O 0.31056 0.14145 0.45853 0.0
C575 C 0.34002 0.15036 0.51094 0.0
C576 C 0.30149 0.17626 0.48562 0.0
C577 C 0.35049 0.15198 0.45949 0.0
O578 O 0.33352 0.13759 0.5042 0.0
O579 O 0.33841 0.16373 0.50269 0.0
O580 O 0.34058 0.16427 0.46081 0.0
O581 O 0.34734 0.13985 0.46914 0.0
C582 C 0.30523 0.12852 0.46593 0.0
O583 O 0.31537 0.17892 0.47848 0.0
O584 O 0.29919 0.16134 0.49038 0.0
In585 In 0.15042 0.32504 0.51579 0.0
O586 O 0.1776 0.3164 0.5181 0.0
O587 O 0.16003 0.2996 0.50708 0.0
C588 C 0.15102 0.35115 0.53731 0.0
C589 C 0.12701 0.30588 0.53074 0.0
C590 C 0.1486 0.34054 0.48572 0.0
O591 O 0.16318 0.3411 0.53584 0.0
O592 O 0.13876 0.34814 0.52779 0.0
O593 O 0.13582 0.33457 0.4929 0.0
O594 O 0.16214 0.33846 0.49358 0.0
C595 C 0.17499 0.30224 0.51151 0.0
O596 O 0.12619 0.30962 0.51535 0.0
O597 O 0.13963 0.31166 0.53834 0.0
In598 In 0.67355 0.15102 0.51826 0.0
O599 O 0.68789 0.17384 0.52805 0.0
O600 O 0.69378 0.1649 0.50364 0.0
C601 C 0.64744 0.15224 0.53972 0.0
C602 C 0.69302 0.12584 0.5298 0.0
C603 C 0.65568 0.15062 0.48958 0.0
O604 O 0.65597 0.16508 0.53606 0.0
O605 O 0.652 0.13895 0.53245 0.0
O606 O 0.66219 0.1375 0.49564 0.0
O607 O 0.6583 0.1638 0.49793 0.0
C608 C 0.69659 0.17559 0.51495 0.0
O609 O 0.6896 0.12734 0.5144 0.0
O610 O 0.68687 0.13708 0.53905 0.0
In611 In 0.32417 0.84536 0.51617 0.0
O612 O 0.31154 0.82077 0.52356 0.0
O613 O 0.30371 0.83249 0.50091 0.0
C614 C 0.34982 0.84581 0.53822 0.0
C615 C 0.30337 0.86837 0.52966 0.0
C616 C 0.34193 0.84673 0.48745 0.0
O617 O 0.34213 0.83248 0.53446 0.0
O618 O 0.34472 0.85875 0.53068 0.0
O619 O 0.33372 0.85917 0.49287 0.0
O620 O 0.34106 0.83375 0.49646 0.0
C621 C 0.30202 0.82035 0.51092 0.0
O622 O 0.30901 0.86991 0.51492 0.0
O623 O 0.30802 0.85527 0.53719 0.0
C624 C 0.10125 0.46974 0.28591 0.0
C625 C 0.11429 0.46008 0.29282 0.0
C626 C 0.08858 0.46205 0.27644 0.0
C627 C 0.06844 0.42101 0.27008 0.0
H628 H 0.05857 0.43603 0.22488 0.0
C629 C 0.04587 0.37629 0.21941 0.0
C630 C 0.03351 0.38141 0.20798 0.0
C631 C 0.05248 0.38757 0.23098 0.0
C632 C 0.06091 0.43189 0.23761 0.0
H633 H 0.12433 0.43488 0.2952 0.0
H634 H 0.10235 0.42158 0.27889 0.0
H635 H 0.07637 0.45324 0.2431 0.0
H636 H 0.01824 0.40235 0.19974 0.0
H637 H 0.03006 0.42232 0.22003 0.0
H638 H 0.05358 0.39941 0.26449 0.0
C639 C 0.10178 0.43503 0.28084 0.0
C640 C 0.07109 0.44172 0.24801 0.0
C641 C 0.11446 0.44268 0.29007 0.0
C642 C 0.02775 0.39808 0.20845 0.0
C643 C 0.03453 0.40949 0.21999 0.0
C644 C 0.05829 0.41124 0.25975 0.0
C645 C 0.08866 0.44458 0.274 0.0
C646 C 0.07546 0.43603 0.26411 0.0
C647 C 0.04698 0.40431 0.23136 0.0
C648 C 0.05495 0.41625 0.24319 0.0
H649 H 0.10084 0.48318 0.28784 0.0
H650 H 0.07861 0.46968 0.27126 0.0
H651 H 0.07135 0.41649 0.28257 0.0
H652 H 0.05057 0.36353 0.21935 0.0
H653 H 0.06226 0.38327 0.23938 0.0
C654 C 0.61811 0.05603 0.20829 0.0
C655 C 0.61581 0.0392 0.20362 0.0
C656 C 0.60618 0.06426 0.218 0.0
C657 C 0.57285 0.05803 0.24859 0.0
H658 H 0.56242 0.10414 0.23696 0.0
C659 C 0.53038 0.10199 0.28907 0.0
C660 C 0.53772 0.11771 0.29228 0.0
C661 C 0.53752 0.09111 0.27725 0.0
C662 C 0.56518 0.09126 0.24035 0.0
H663 H 0.5993 0.01769 0.20566 0.0
H664 H 0.57831 0.03221 0.22296 0.0
H665 H 0.57918 0.08716 0.21787 0.0
H666 H 0.5582 0.13436 0.28569 0.0
H667 H 0.57051 0.11552 0.26514 0.0
H668 H 0.55918 0.06242 0.27136 0.0
C669 C 0.58941 0.03895 0.21897 0.0
C670 C 0.57476 0.08155 0.22944 0.0
C671 C 0.60137 0.03068 0.20907 0.0
C672 C 0.55224 0.12235 0.28348 0.0
C673 C 0.55923 0.11161 0.27162 0.0
C674 C 0.56318 0.06779 0.25955 0.0
C675 C 0.59165 0.05589 0.22336 0.0
C676 C 0.5792 0.06504 0.2337 0.0
C677 C 0.55194 0.0959 0.26833 0.0
C678 C 0.55976 0.08467 0.25576 0.0
H679 H 0.62912 0.06294 0.20434 0.0
H680 H 0.60843 0.07721 0.22147 0.0
H681 H 0.57611 0.04534 0.25219 0.0
H682 H 0.51919 0.0981 0.2957 0.0
H683 H 0.53167 0.07907 0.27494 0.0
C684 C 0.94965 0.62209 0.21971 0.0
C685 C 0.96183 0.61699 0.20807 0.0
C686 C 0.94322 0.61078 0.23136 0.0
C687 C 0.93494 0.56642 0.23799 0.0
H688 H 0.92512 0.58165 0.28314 0.0
C689 C 0.89537 0.52823 0.28661 0.0
C690 C 0.88239 0.53781 0.29372 0.0
C691 C 0.90793 0.53603 0.27706 0.0
C692 C 0.92785 0.57718 0.2706 0.0
H693 H 0.97696 0.59606 0.19956 0.0
H694 H 0.96546 0.57606 0.21998 0.0
H695 H 0.94256 0.59885 0.26485 0.0
H696 H 0.87236 0.56297 0.29647 0.0
H697 H 0.89414 0.57644 0.28003 0.0
H698 H 0.91964 0.545 0.24366 0.0
C699 C 0.96099 0.58889 0.22004 0.0
C700 C 0.93781 0.58702 0.26014 0.0
C701 C 0.96759 0.60032 0.20842 0.0
C702 C 0.88219 0.55523 0.29117 0.0
C703 C 0.89475 0.56299 0.28186 0.0
C704 C 0.92495 0.55652 0.24852 0.0
C705 C 0.94872 0.59404 0.23161 0.0
C706 C 0.94093 0.58206 0.24353 0.0
C707 C 0.90779 0.55352 0.27476 0.0
C708 C 0.9208 0.56215 0.2647 0.0
H709 H 0.94495 0.63485 0.21976 0.0
H710 H 0.93357 0.61507 0.23991 0.0
H711 H 0.9371 0.56232 0.22522 0.0
H712 H 0.8958 0.51476 0.28839 0.0
H713 H 0.91784 0.52845 0.27168 0.0
C714 C 0.46645 0.89582 0.28826 0.0
C715 C 0.46067 0.87924 0.28988 0.0
C716 C 0.45898 0.90673 0.27667 0.0
C717 C 0.43325 0.90666 0.2382 0.0
H718 H 0.41769 0.95041 0.25277 0.0
C719 C 0.37909 0.94004 0.20576 0.0
C720 C 0.38018 0.95735 0.20271 0.0
C721 C 0.39115 0.93195 0.21545 0.0
C722 C 0.42223 0.93836 0.24842 0.0
H723 H 0.44274 0.86102 0.28059 0.0
H724 H 0.42983 0.87991 0.26046 0.0
H725 H 0.43524 0.93347 0.27147 0.0
H726 H 0.39468 0.97984 0.20757 0.0
H727 H 0.41587 0.96558 0.22478 0.0
H728 H 0.4199 0.91124 0.2154 0.0
C729 C 0.44016 0.88451 0.268 0.0
C730 C 0.43226 0.92868 0.25911 0.0
C731 C 0.44748 0.87372 0.27962 0.0
C732 C 0.39355 0.96647 0.20972 0.0
C733 C 0.40563 0.95834 0.21958 0.0
C734 C 0.42327 0.9163 0.22756 0.0
C735 C 0.44579 0.90114 0.26639 0.0
C736 C 0.43741 0.91251 0.25429 0.0
C737 C 0.4046 0.94095 0.2224 0.0
C738 C 0.4172 0.93201 0.23276 0.0
H739 H 0.4766 0.9004 0.29605 0.0
H740 H 0.46358 0.91948 0.27566 0.0
H741 H 0.43734 0.8944 0.23401 0.0
H742 H 0.36892 0.93267 0.20059 0.0
H743 H 0.38983 0.9186 0.21767 0.0
C744 C 0.10313 0.53113 0.70968 0.0
C745 C 0.11724 0.53962 0.70339 0.0
C746 C 0.09138 0.53962 0.71963 0.0
C747 C 0.07657 0.58245 0.7292 0.0
H748 H 0.0618 0.56398 0.77171 0.0
C749 C 0.0533 0.62398 0.78251 0.0
C750 C 0.03904 0.61906 0.79158 0.0
C751 C 0.06053 0.6132 0.77082 0.0
C752 C 0.06559 0.56917 0.75974 0.0
H753 H 0.13021 0.56353 0.70267 0.0
H754 H 0.10991 0.57821 0.71995 0.0
H755 H 0.07876 0.54677 0.75272 0.0
H756 H 0.02121 0.59894 0.79564 0.0
H757 H 0.03407 0.57987 0.77517 0.0
H758 H 0.06393 0.60498 0.73638 0.0
C759 C 0.10773 0.56511 0.71707 0.0
C760 C 0.07527 0.55933 0.74888 0.0
C761 C 0.11944 0.55665 0.70727 0.0
C762 C 0.03219 0.60305 0.78879 0.0
C763 C 0.03956 0.59214 0.77715 0.0
C764 C 0.06697 0.59225 0.74002 0.0
C765 C 0.09352 0.55675 0.72329 0.0
C766 C 0.08128 0.56608 0.73374 0.0
C767 C 0.05374 0.59719 0.76797 0.0
C768 C 0.06181 0.5859 0.75562 0.0
H769 H 0.10114 0.51798 0.70687 0.0
H770 H 0.08053 0.53289 0.72425 0.0
H771 H 0.0807 0.58785 0.71743 0.0
H772 H 0.05888 0.63623 0.7844 0.0
H773 H 0.07161 0.61733 0.76413 0.0
C774 C 0.37623 0.0458 0.77601 0.0
C775 C 0.38137 0.03458 0.78856 0.0
C776 C 0.38772 0.05199 0.7644 0.0
C777 C 0.4319 0.06185 0.75917 0.0
H778 H 0.41825 0.06875 0.71299 0.0
C779 C 0.4701 0.10136 0.71061 0.0
C780 C 0.46016 0.11368 0.70283 0.0
C781 C 0.46258 0.08864 0.72016 0.0
C782 C 0.42229 0.06681 0.72582 0.0
H783 H 0.40253 0.02087 0.79874 0.0
H784 H 0.42282 0.03196 0.7784 0.0
H785 H 0.40107 0.0514 0.7314 0.0
H786 H 0.43466 0.12229 0.69878 0.0
H787 H 0.42167 0.10019 0.7152 0.0
H788 H 0.45281 0.07788 0.75366 0.0
C789 C 0.40984 0.03587 0.77759 0.0
C790 C 0.41246 0.05691 0.73635 0.0
C791 C 0.39824 0.0295 0.78916 0.0
C792 C 0.44267 0.11299 0.70464 0.0
C793 C 0.4352 0.10024 0.71393 0.0
C794 C 0.44179 0.07177 0.74858 0.0
C795 C 0.40466 0.04721 0.76512 0.0
C796 C 0.4168 0.05488 0.7533 0.0
C797 C 0.44504 0.08792 0.72177 0.0
C798 C 0.43669 0.07486 0.732 0.0
H799 H 0.36331 0.04994 0.77523 0.0
H800 H 0.38339 0.06093 0.75512 0.0
H801 H 0.43552 0.06053 0.7722 0.0
H802 H 0.48362 0.10162 0.70941 0.0
H803 H 0.47043 0.07929 0.72614 0.0
C804 C 0.89903 0.46975 0.70616 0.0
C805 C 0.88194 0.46632 0.70875 0.0
C806 C 0.9111 0.46362 0.71737 0.0
C807 C 0.91604 0.44599 0.7601 0.0
H808 H 0.95196 0.41946 0.7408 0.0
C809 C 0.9435 0.38915 0.79316 0.0
C810 C 0.96088 0.38642 0.79298 0.0
C811 C 0.93645 0.40213 0.78384 0.0
C812 C 0.94223 0.42711 0.7464 0.0
H813 H 0.864 0.4544 0.72533 0.0
H814 H 0.88489 0.44383 0.74482 0.0
H815 H 0.93471 0.43719 0.72264 0.0
H816 H 0.98458 0.39511 0.7829 0.0
H817 H 0.97209 0.41781 0.76616 0.0
H818 H 0.92299 0.4353 0.78371 0.0
C819 C 0.88906 0.45127 0.73424 0.0
C820 C 0.93237 0.43727 0.73602 0.0
C821 C 0.87708 0.45722 0.723 0.0
C822 C 0.97113 0.39696 0.78325 0.0
C823 C 0.96401 0.4099 0.77369 0.0
C824 C 0.92584 0.43584 0.77044 0.0
C825 C 0.90621 0.45419 0.73146 0.0
C826 C 0.91875 0.44629 0.7427 0.0
C827 C 0.94659 0.41263 0.77399 0.0
C828 C 0.9386 0.4258 0.7636 0.0
H829 H 0.90311 0.47674 0.69524 0.0
H830 H 0.92424 0.46609 0.71495 0.0
H831 H 0.90584 0.45307 0.76564 0.0
H832 H 0.93527 0.38126 0.80055 0.0
H833 H 0.92296 0.40374 0.78409 0.0
C834 C 0.60393 0.96676 0.7876 0.0
C835 C 0.61843 0.95835 0.79308 0.0
C836 C 0.59205 0.95842 0.77767 0.0
C837 C 0.57775 0.91568 0.76731 0.0
H838 H 0.56059 0.93503 0.7261 0.0
C839 C 0.55228 0.87502 0.71438 0.0
C840 C 0.53751 0.87993 0.70616 0.0
C841 C 0.56 0.88569 0.72585 0.0
C842 C 0.56505 0.92958 0.73772 0.0
H843 H 0.632 0.93476 0.79223 0.0
H844 H 0.61147 0.92036 0.77499 0.0
H845 H 0.57816 0.95203 0.74476 0.0
H846 H 0.51929 0.89993 0.70334 0.0
H847 H 0.53302 0.9188 0.72346 0.0
H848 H 0.56511 0.89314 0.76015 0.0
C849 C 0.60909 0.93327 0.77851 0.0
C850 C 0.5751 0.9393 0.74838 0.0
C851 C 0.62093 0.94158 0.7883 0.0
C852 C 0.53066 0.89583 0.70954 0.0
C853 C 0.53852 0.90662 0.72098 0.0
C854 C 0.56777 0.90601 0.7567 0.0
C855 C 0.59445 0.94151 0.77321 0.0
C856 C 0.58195 0.93225 0.76302 0.0
C857 C 0.5532 0.90157 0.72934 0.0
C858 C 0.56174 0.91269 0.74156 0.0
H859 H 0.6017 0.9797 0.7911 0.0
H860 H 0.58087 0.96506 0.77375 0.0
H861 H 0.58253 0.91003 0.77871 0.0
H862 H 0.55789 0.86287 0.71202 0.0
H863 H 0.57146 0.88157 0.73188 0.0
C864 C 0.20976 0.03064 0.39417 0.0
C865 C 0.20757 0.03692 0.37784 0.0
C866 C 0.22161 0.03786 0.40493 0.0
C867 C 0.25968 0.0642 0.40473 0.0
H868 H 0.24588 0.0778 0.44935 0.0
C869 C 0.29217 0.11736 0.43988 0.0
C870 C 0.29509 0.11576 0.45717 0.0
C871 C 0.2827 0.10542 0.43134 0.0
C872 C 0.25003 0.07381 0.43705 0.0
H873 H 0.21616 0.05548 0.35989 0.0
H874 H 0.23674 0.068 0.37857 0.0
H875 H 0.22708 0.06068 0.43219 0.0
H876 H 0.29038 0.10041 0.47912 0.0
H877 H 0.27364 0.07943 0.46408 0.0
H878 H 0.2824 0.07766 0.40934 0.0
C879 C 0.22945 0.05746 0.38306 0.0
C880 C 0.23928 0.06402 0.42723 0.0
C881 C 0.21756 0.05036 0.3724 0.0
C882 C 0.28831 0.10195 0.46578 0.0
C883 C 0.27871 0.08999 0.4572 0.0
C884 C 0.2704 0.07395 0.41452 0.0
C885 C 0.23158 0.05134 0.39945 0.0
C886 C 0.24381 0.05955 0.41079 0.0
C887 C 0.27588 0.09159 0.43987 0.0
C888 C 0.26549 0.07928 0.43057 0.0
H889 H 0.20221 0.02028 0.39867 0.0
H890 H 0.22304 0.03288 0.41749 0.0
H891 H 0.26364 0.06064 0.39223 0.0
H892 H 0.29719 0.12788 0.4329 0.0
H893 H 0.28049 0.10718 0.41805 0.0
C894 C 0.87367 0.27976 0.4481 0.0
C895 C 0.87904 0.28999 0.46138 0.0
C896 C 0.88455 0.26815 0.44088 0.0
C897 C 0.92884 0.25926 0.43364 0.0
H898 H 0.91133 0.21595 0.42003 0.0
C899 C 0.96667 0.21003 0.39455 0.0
C900 C 0.9577 0.2037 0.38075 0.0
C901 C 0.95851 0.21977 0.40672 0.0
C902 C 0.91641 0.22799 0.42378 0.0
H903 H 0.89998 0.29608 0.47761 0.0
H904 H 0.91918 0.27567 0.46482 0.0
H905 H 0.89434 0.23428 0.43762 0.0
H906 H 0.93328 0.20269 0.36879 0.0
H907 H 0.91917 0.21951 0.38989 0.0
H908 H 0.95078 0.25305 0.41932 0.0
C909 C 0.90651 0.27672 0.46004 0.0
C910 C 0.90669 0.23848 0.43383 0.0
C911 C 0.89553 0.28832 0.46739 0.0
C912 C 0.94053 0.20733 0.37929 0.0
C913 C 0.93241 0.21688 0.39145 0.0
C914 C 0.93863 0.24871 0.42356 0.0
C915 C 0.90108 0.2665 0.44673 0.0
C916 C 0.91256 0.25445 0.4384 0.0
C917 C 0.94125 0.22311 0.40535 0.0
C918 C 0.93225 0.23321 0.41809 0.0
H919 H 0.86105 0.28078 0.44317 0.0
H920 H 0.88007 0.26069 0.43045 0.0
H921 H 0.93367 0.27153 0.43693 0.0
H922 H 0.97992 0.20742 0.39597 0.0
H923 H 0.96561 0.22444 0.41732 0.0
C924 C 0.71843 0.87522 0.45007 0.0
C925 C 0.70781 0.88056 0.46305 0.0
C926 C 0.73022 0.88612 0.44321 0.0
C927 C 0.73884 0.93026 0.43563 0.0
H928 H 0.78284 0.91315 0.4239 0.0
C929 C 0.78785 0.9675 0.39576 0.0
C930 C 0.79452 0.95803 0.38246 0.0
C931 C 0.77826 0.95969 0.40827 0.0
C932 C 0.77062 0.91813 0.42713 0.0
H933 H 0.70122 0.90148 0.47912 0.0
H934 H 0.72188 0.92078 0.46685 0.0
H935 H 0.76428 0.89635 0.44143 0.0
H936 H 0.79638 0.93305 0.37181 0.0
H937 H 0.77982 0.91955 0.39348 0.0
H938 H 0.74505 0.95183 0.42074 0.0
C939 C 0.72103 0.90808 0.46209 0.0
C940 C 0.76001 0.90852 0.43716 0.0
C941 C 0.70928 0.89705 0.46913 0.0
C942 C 0.79145 0.9407 0.3819 0.0
C943 C 0.78207 0.93293 0.3944 0.0
C944 C 0.74951 0.93992 0.42555 0.0
C945 C 0.73163 0.90268 0.44908 0.0
C946 C 0.74379 0.91421 0.44101 0.0
C947 C 0.77542 0.94228 0.40775 0.0
C948 C 0.76526 0.93365 0.42072 0.0
H949 H 0.71759 0.86259 0.44512 0.0
H950 H 0.73802 0.88167 0.433 0.0
H951 H 0.72638 0.93493 0.43837 0.0
H952 H 0.79002 0.9809 0.39647 0.0
H953 H 0.77325 0.96719 0.41843 0.0
C954 C 0.02761 0.78833 0.39698 0.0
C955 C 0.03285 0.78774 0.38016 0.0
C956 C 0.03383 0.77671 0.40862 0.0
C957 C 0.0551 0.7355 0.41142 0.0
H958 H 0.07575 0.75308 0.45182 0.0
C959 C 0.11132 0.70423 0.44198 0.0
C960 C 0.11198 0.70257 0.4595 0.0
C961 C 0.09854 0.7134 0.43441 0.0
C962 C 0.06974 0.74792 0.44078 0.0
H963 H 0.04824 0.77431 0.36221 0.0
H964 H 0.05897 0.75414 0.38233 0.0
H965 H 0.05826 0.77142 0.43446 0.0
H966 H 0.09983 0.70929 0.48288 0.0
H967 H 0.07745 0.72577 0.46949 0.0
H968 H 0.06719 0.71227 0.41726 0.0
C969 C 0.05003 0.76344 0.38661 0.0
C970 C 0.05973 0.7584 0.43086 0.0
C971 C 0.04399 0.7751 0.37509 0.0
C972 C 0.0996 0.71038 0.46934 0.0
C973 C 0.08684 0.71979 0.46171 0.0
C974 C 0.0651 0.72509 0.42128 0.0
C975 C 0.04517 0.76419 0.40353 0.0
C976 C 0.05286 0.75244 0.41574 0.0
C977 C 0.08616 0.72126 0.44415 0.0
C978 C 0.07304 0.73137 0.4357 0.0
H979 H 0.01904 0.79799 0.40122 0.0
H980 H 0.02985 0.77754 0.42158 0.0
H981 H 0.04968 0.73048 0.40002 0.0
H982 H 0.12066 0.69837 0.43405 0.0
H983 H 0.09851 0.71457 0.42087 0.0
C984 C 0.20979 0.96779 0.60232 0.0
C985 C 0.2077 0.96124 0.61856 0.0
C986 C 0.22129 0.96048 0.59121 0.0
C987 C 0.25869 0.93312 0.59049 0.0
H988 H 0.24431 0.92073 0.54569 0.0
C989 C 0.28877 0.87905 0.55504 0.0
C990 C 0.29278 0.88107 0.53802 0.0
C991 C 0.27939 0.89114 0.56346 0.0
C992 C 0.24861 0.92438 0.55805 0.0
H993 H 0.21608 0.94206 0.63595 0.0
H994 H 0.236 0.92941 0.61671 0.0
H995 H 0.22611 0.93821 0.56325 0.0
H996 H 0.28987 0.89721 0.51633 0.0
H997 H 0.27312 0.91845 0.53114 0.0
H998 H 0.28087 0.91888 0.5856 0.0
C999 C 0.22894 0.94024 0.61254 0.0
C1000 C 0.23821 0.93438 0.56809 0.0
C1001 C 0.21742 0.94742 0.62354 0.0
C1002 C 0.28696 0.89536 0.52947 0.0
C1003 C 0.27738 0.90747 0.53791 0.0
C1004 C 0.26901 0.92315 0.58051 0.0
C1005 C 0.231 0.94664 0.59625 0.0
C1006 C 0.24294 0.93838 0.58461 0.0
C1007 C 0.27371 0.90553 0.55505 0.0
C1008 C 0.26385 0.91823 0.56441 0.0
H1009 H 0.20244 0.97843 0.59815 0.0
H1010 H 0.22266 0.96569 0.57874 0.0
H1011 H 0.26283 0.93632 0.60303 0.0
H1012 H 0.29302 0.86817 0.56199 0.0
H1013 H 0.27648 0.88915 0.57658 0.0
C1014 C 0.0293 0.21009 0.6024 0.0
C1015 C 0.035 0.20874 0.61903 0.0
C1016 C 0.03651 0.22184 0.59149 0.0
C1017 C 0.06169 0.26078 0.59125 0.0
H1018 H 0.07732 0.24574 0.54771 0.0
C1019 C 0.1153 0.2934 0.55685 0.0
C1020 C 0.11421 0.29571 0.53943 0.0
C1021 C 0.10332 0.2839 0.56531 0.0
C1022 C 0.07277 0.25022 0.5597 0.0
H1023 H 0.05244 0.21875 0.63736 0.0
H1024 H 0.06492 0.2391 0.61844 0.0
H1025 H 0.06005 0.22711 0.56491 0.0
H1026 H 0.09974 0.28988 0.51716 0.0
H1027 H 0.0787 0.27308 0.53205 0.0
H1028 H 0.07477 0.28367 0.58631 0.0
C1029 C 0.05484 0.23125 0.61381 0.0
C1030 C 0.06288 0.23957 0.56954 0.0
C1031 C 0.04777 0.21949 0.62462 0.0
C1032 C 0.10087 0.28829 0.5306 0.0
C1033 C 0.08889 0.27866 0.5391 0.0
C1034 C 0.07154 0.27139 0.58145 0.0
C1035 C 0.04937 0.23252 0.59711 0.0
C1036 C 0.05766 0.24457 0.58562 0.0
C1037 C 0.08997 0.27644 0.55656 0.0
C1038 C 0.0776 0.26605 0.56579 0.0
H1039 H 0.01947 0.20194 0.59777 0.0
H1040 H 0.03201 0.22259 0.57869 0.0
H1041 H 0.05756 0.26511 0.60345 0.0
H1042 H 0.12544 0.29892 0.564 0.0
H1043 H 0.10468 0.28218 0.57872 0.0
C1044 C 0.78999 0.02753 0.59709 0.0
C1045 C 0.78819 0.03147 0.61418 0.0
C1046 C 0.77852 0.03374 0.58531 0.0
C1047 C 0.73615 0.05246 0.58163 0.0
H1048 H 0.75462 0.07767 0.54435 0.0
C1049 C 0.70336 0.10948 0.55423 0.0
C1050 C 0.70297 0.11189 0.53679 0.0
C1051 C 0.71263 0.09642 0.56119 0.0
C1052 C 0.74923 0.07039 0.55447 0.0
H1053 H 0.77274 0.04443 0.63243 0.0
H1054 H 0.75281 0.05511 0.61204 0.0
H1055 H 0.77302 0.05984 0.56126 0.0
H1056 H 0.71197 0.10251 0.51291 0.0
H1057 H 0.72861 0.07964 0.52524 0.0
H1058 H 0.71255 0.0636 0.5754 0.0
C1059 C 0.76296 0.04722 0.60766 0.0
C1060 C 0.75975 0.06017 0.56414 0.0
C1061 C 0.77447 0.0412 0.61934 0.0
C1062 C 0.71207 0.10091 0.5264 0.0
C1063 C 0.72157 0.08788 0.53343 0.0
C1064 C 0.72568 0.06265 0.57202 0.0
C1065 C 0.76495 0.04375 0.5905 0.0
C1066 C 0.75341 0.05164 0.57822 0.0
C1067 C 0.72186 0.08549 0.5509 0.0
C1068 C 0.73224 0.07223 0.55877 0.0
H1069 H 0.80049 0.02006 0.59279 0.0
H1070 H 0.78032 0.03085 0.57216 0.0
H1071 H 0.73086 0.04576 0.59221 0.0
H1072 H 0.69647 0.11771 0.56256 0.0
H1073 H 0.71284 0.09508 0.57471 0.0
C1074 C 0.87536 0.70816 0.55761 0.0
C1075 C 0.87839 0.70343 0.54093 0.0
C1076 C 0.88679 0.71817 0.56623 0.0
C1077 C 0.92079 0.74865 0.56058 0.0
H1078 H 0.92904 0.73852 0.60745 0.0
C1079 C 0.96486 0.78813 0.60367 0.0
C1080 C 0.95781 0.79231 0.61928 0.0
C1081 C 0.95691 0.7765 0.59316 0.0
C1082 C 0.92684 0.74153 0.59438 0.0
H1083 H 0.89572 0.70558 0.52009 0.0
H1084 H 0.91587 0.72318 0.53527 0.0
H1085 H 0.91211 0.71946 0.59064 0.0
H1086 H 0.93695 0.78766 0.63612 0.0
H1087 H 0.9232 0.76743 0.61789 0.0
H1088 H 0.9354 0.77092 0.56451 0.0
C1089 C 0.90456 0.71915 0.54161 0.0
C1090 C 0.91713 0.73063 0.58476 0.0
C1091 C 0.89307 0.70905 0.53296 0.0
C1092 C 0.94272 0.78468 0.62418 0.0
C1093 C 0.93489 0.773 0.61379 0.0
C1094 C 0.93059 0.75957 0.57024 0.0
C1095 C 0.90158 0.72369 0.5584 0.0
C1096 C 0.9136 0.73429 0.56788 0.0
C1097 C 0.94191 0.76874 0.5982 0.0
C1098 C 0.93333 0.75632 0.58735 0.0
H1099 H 0.86412 0.70411 0.56409 0.0
H1100 H 0.88395 0.72172 0.57903 0.0
H1101 H 0.91823 0.75184 0.54763 0.0
H1102 H 0.97649 0.79384 0.59958 0.0
H1103 H 0.9626 0.77341 0.58121 0.0
C1104 C 0.46447 0.28735 0.10522 0.0
C1105 C 0.45736 0.29162 0.12078 0.0
C1106 C 0.45655 0.27568 0.09475 0.0
C1107 C 0.42637 0.24076 0.09596 0.0
H1108 H 0.41834 0.25089 0.04906 0.0
C1109 C 0.37583 0.20667 0.05824 0.0
C1110 C 0.37909 0.20235 0.04149 0.0
C1111 C 0.38704 0.21668 0.06718 0.0
C1112 C 0.42073 0.24774 0.06206 0.0
H1113 H 0.43646 0.28707 0.13759 0.0
H1114 H 0.42274 0.26675 0.11942 0.0
H1115 H 0.43524 0.27005 0.06607 0.0
H1116 H 0.39664 0.20511 0.02091 0.0
H1117 H 0.41639 0.22263 0.03664 0.0
H1118 H 0.41177 0.21862 0.09211 0.0
C1119 C 0.43445 0.27229 0.11533 0.0
C1120 C 0.43039 0.25872 0.07179 0.0
C1121 C 0.44226 0.28402 0.12568 0.0
C1122 C 0.39381 0.20827 0.03382 0.0
C1123 C 0.40507 0.21834 0.04279 0.0
C1124 C 0.41681 0.2298 0.08625 0.0
C1125 C 0.44151 0.26795 0.09978 0.0
C1126 C 0.43294 0.25552 0.08893 0.0
C1127 C 0.40181 0.22259 0.0596 0.0
C1128 C 0.41352 0.23336 0.0693 0.0
H1129 H 0.47611 0.29304 0.10114 0.0
H1130 H 0.46228 0.27251 0.08285 0.0
H1131 H 0.42843 0.23781 0.10906 0.0
H1132 H 0.36456 0.20237 0.06449 0.0
H1133 H 0.38397 0.21999 0.08 0.0
C1134 C 0.37341 0.77576 0.95252 0.0
C1135 C 0.37865 0.78881 0.96311 0.0
C1136 C 0.3849 0.76406 0.94649 0.0
C1137 C 0.42895 0.75925 0.93578 0.0
H1138 H 0.41615 0.71258 0.93065 0.0
C1139 C 0.46837 0.71107 0.89763 0.0
C1140 C 0.4588 0.70198 0.88594 0.0
C1141 C 0.46045 0.72066 0.91005 0.0
C1142 C 0.41993 0.72556 0.93203 0.0
H1143 H 0.39997 0.79974 0.97595 0.0
H1144 H 0.42026 0.77923 0.96516 0.0
H1145 H 0.39881 0.73126 0.94756 0.0
H1146 H 0.43353 0.69555 0.87822 0.0
H1147 H 0.41979 0.71215 0.89977 0.0
H1148 H 0.44975 0.75363 0.91969 0.0
C1149 C 0.4072 0.77811 0.9616 0.0
C1150 C 0.41002 0.73624 0.94171 0.0
C1151 C 0.39561 0.78978 0.9678 0.0
C1152 C 0.44124 0.70243 0.88704 0.0
C1153 C 0.43337 0.71183 0.89949 0.0
C1154 C 0.4389 0.74852 0.92608 0.0
C1155 C 0.40194 0.76517 0.95082 0.0
C1156 C 0.41409 0.75333 0.9432 0.0
C1157 C 0.44285 0.72111 0.91109 0.0
C1158 C 0.43414 0.73172 0.92363 0.0
H1159 H 0.36042 0.77468 0.9487 0.0
H1160 H 0.38049 0.75441 0.938 0.0
H1161 H 0.43236 0.77237 0.93664 0.0
H1162 H 0.48194 0.71094 0.89705 0.0
H1163 H 0.46806 0.72768 0.91885 0.0
C1164 C 0.28804 0.46615 0.89443 0.0
C1165 C 0.29435 0.45775 0.88028 0.0
C1166 C 0.27795 0.45763 0.90604 0.0
C1167 C 0.26786 0.41471 0.92035 0.0
H1168 H 0.2257 0.43364 0.93553 0.0
C1169 C 0.21424 0.37367 0.94385 0.0
C1170 C 0.20533 0.37864 0.9582 0.0
C1171 C 0.22598 0.38436 0.93655 0.0
C1172 C 0.23757 0.42831 0.93162 0.0
H1173 H 0.29496 0.43394 0.8671 0.0
H1174 H 0.27743 0.41922 0.88715 0.0
H1175 H 0.24485 0.45074 0.91865 0.0
H1176 H 0.20161 0.39875 0.97612 0.0
H1177 H 0.22217 0.41765 0.96314 0.0
H1178 H 0.26044 0.39216 0.93282 0.0
C1179 C 0.2804 0.43228 0.88948 0.0
C1180 C 0.24853 0.43809 0.92197 0.0
C1181 C 0.29036 0.44076 0.87791 0.0
C1182 C 0.20833 0.3946 0.96507 0.0
C1183 C 0.22003 0.40541 0.95763 0.0
C1184 C 0.25694 0.40497 0.92992 0.0
C1185 C 0.27415 0.44055 0.90373 0.0
C1186 C 0.26356 0.4312 0.91583 0.0
C1187 C 0.22904 0.40032 0.94336 0.0
C1188 C 0.24148 0.4115 0.93524 0.0
H1189 H 0.29092 0.47926 0.89656 0.0
H1190 H 0.27332 0.46431 0.91693 0.0
H1191 H 0.27953 0.40918 0.91613 0.0
H1192 H 0.21219 0.36146 0.93824 0.0
H1193 H 0.23253 0.38019 0.9254 0.0
C1194 C 0.60077 0.21186 0.96838 0.0
C1195 C 0.61297 0.20362 0.95869 0.0
C1196 C 0.58832 0.22155 0.96061 0.0
C1197 C 0.56706 0.22728 0.91994 0.0
H1198 H 0.56055 0.27353 0.93356 0.0
C1199 C 0.5461 0.27786 0.87425 0.0
C1200 C 0.53475 0.29029 0.87942 0.0
C1201 C 0.55229 0.26619 0.88567 0.0
C1202 C 0.56194 0.26054 0.92982 0.0
H1203 H 0.62169 0.19894 0.93334 0.0
H1204 H 0.60008 0.21567 0.91988 0.0
H1205 H 0.57782 0.25487 0.9508 0.0
H1206 H 0.5208 0.30016 0.90056 0.0
H1207 H 0.53192 0.27969 0.92076 0.0
H1208 H 0.55177 0.23303 0.89867 0.0
C1209 C 0.59999 0.21461 0.93343 0.0
C1210 C 0.57183 0.24987 0.93968 0.0
C1211 C 0.61246 0.20513 0.94115 0.0
C1212 C 0.52953 0.29068 0.89626 0.0
C1213 C 0.53591 0.27904 0.90779 0.0
C1214 C 0.55721 0.23789 0.91014 0.0
C1215 C 0.58778 0.22291 0.94303 0.0
C1216 C 0.57498 0.23333 0.93447 0.0
C1217 C 0.54739 0.26669 0.90258 0.0
C1218 C 0.55506 0.25479 0.91464 0.0
H1219 H 0.60089 0.21089 0.98193 0.0
H1220 H 0.57906 0.22784 0.9683 0.0
H1221 H 0.569 0.21447 0.91581 0.0
H1222 H 0.55035 0.27723 0.86136 0.0
H1223 H 0.56133 0.25702 0.88131 0.0
C1224 C 0.70529 0.52976 0.89965 0.0
C1225 C 0.70813 0.53288 0.88253 0.0
C1226 C 0.71656 0.53573 0.91174 0.0
C1227 C 0.75976 0.55207 0.91676 0.0
H1228 H 0.7411 0.57953 0.95233 0.0
C1229 C 0.79392 0.60855 0.9434 0.0
C1230 C 0.79387 0.6115 0.96076 0.0
C1231 C 0.78438 0.59562 0.93658 0.0
C1232 C 0.74651 0.5716 0.94271 0.0
H1233 H 0.72517 0.54416 0.86459 0.0
H1234 H 0.74473 0.55447 0.88552 0.0
H1235 H 0.7225 0.56217 0.93517 0.0
H1236 H 0.78384 0.60324 0.98464 0.0
H1237 H 0.76668 0.58064 0.97251 0.0
H1238 H 0.78364 0.56214 0.9237 0.0
C1239 C 0.73393 0.54736 0.88969 0.0
C1240 C 0.73588 0.56166 0.9329 0.0
C1241 C 0.72264 0.54158 0.87769 0.0
C1242 C 0.78408 0.60121 0.97121 0.0
C1243 C 0.77429 0.58833 0.9643 0.0
C1244 C 0.77035 0.562 0.92651 0.0
C1245 C 0.73094 0.54469 0.90685 0.0
C1246 C 0.74235 0.55234 0.91939 0.0
C1247 C 0.77444 0.58541 0.94691 0.0
C1248 C 0.76374 0.57237 0.93913 0.0
H1249 H 0.69418 0.52309 0.90371 0.0
H1250 H 0.71398 0.53346 0.92488 0.0
H1251 H 0.76513 0.54473 0.90666 0.0
H1252 H 0.80136 0.61624 0.93503 0.0
H1253 H 0.78451 0.59385 0.9231 0.0
C1254 C 0.55643 0.7042 0.11274 0.0
C1255 C 0.53889 0.7028 0.11303 0.0
C1256 C 0.56439 0.71346 0.10024 0.0
C1257 C 0.55853 0.74836 0.07148 0.0
H1258 H 0.59964 0.73118 0.05194 0.0
C1259 C 0.60166 0.78866 0.02865 0.0
C1260 C 0.61856 0.78831 0.03364 0.0
C1261 C 0.59023 0.77702 0.03522 0.0
C1262 C 0.58816 0.73614 0.05725 0.0
H1263 H 0.51587 0.71005 0.10051 0.0
H1264 H 0.52988 0.7266 0.07864 0.0
H1265 H 0.58247 0.71296 0.0695 0.0
H1266 H 0.63686 0.7753 0.04899 0.0
H1267 H 0.6171 0.75514 0.06037 0.0
H1268 H 0.56464 0.77179 0.05976 0.0
C1269 C 0.53741 0.7204 0.0881 0.0
C1270 C 0.57835 0.72572 0.06729 0.0
C1271 C 0.52942 0.71093 0.10057 0.0
C1272 C 0.62391 0.7759 0.04492 0.0
C1273 C 0.6126 0.76425 0.05134 0.0
C1274 C 0.56841 0.75884 0.06143 0.0
C1275 C 0.55499 0.72166 0.08779 0.0
C1276 C 0.56375 0.73188 0.07497 0.0
C1277 C 0.59561 0.76475 0.0467 0.0
C1278 C 0.58362 0.75298 0.05471 0.0
H1279 H 0.56407 0.69808 0.12216 0.0
H1280 H 0.57793 0.71445 0.1005 0.0
H1281 H 0.54736 0.75345 0.07729 0.0
H1282 H 0.5972 0.79811 0.01996 0.0
H1283 H 0.57722 0.77766 0.0314 0.0
C1284 C 0.21108 0.60116 0.02831 0.0
C1285 C 0.20303 0.61324 0.03834 0.0
C1286 C 0.2207 0.58845 0.03574 0.0
C1287 C 0.22616 0.56608 0.07578 0.0
H1288 H 0.27257 0.55993 0.0626 0.0
C1289 C 0.27616 0.5444 0.12168 0.0
C1290 C 0.28884 0.53338 0.11644 0.0
C1291 C 0.26455 0.55065 0.11024 0.0
C1292 C 0.25953 0.56121 0.0662 0.0
H1293 H 0.19866 0.62145 0.06392 0.0
H1294 H 0.21524 0.59937 0.07676 0.0
H1295 H 0.25411 0.57761 0.04554 0.0
H1296 H 0.2992 0.52 0.09516 0.0
H1297 H 0.27882 0.53119 0.07492 0.0
H1298 H 0.23164 0.55027 0.09674 0.0
C1299 C 0.21409 0.5996 0.06322 0.0
C1300 C 0.24899 0.57133 0.05645 0.0
C1301 C 0.2047 0.61234 0.05584 0.0
C1302 C 0.28952 0.52848 0.09952 0.0
C1303 C 0.27793 0.53491 0.08796 0.0
C1304 C 0.23664 0.55597 0.08546 0.0
C1305 C 0.22216 0.5875 0.05329 0.0
C1306 C 0.2324 0.57436 0.06154 0.0
C1307 C 0.26537 0.54612 0.09323 0.0
C1308 C 0.2536 0.55397 0.08115 0.0
H1309 H 0.20999 0.60159 0.01478 0.0
H1310 H 0.22684 0.57928 0.02782 0.0
H1311 H 0.21332 0.56795 0.0798 0.0
H1312 H 0.27531 0.5484 0.13464 0.0
H1313 H 0.25521 0.55948 0.11465 0.0
C1314 C 0.70999 0.46806 0.10053 0.0
C1315 C 0.70379 0.45915 0.11442 0.0
C1316 C 0.71964 0.45985 0.08831 0.0
C1317 C 0.72769 0.41764 0.07141 0.0
H1318 H 0.77139 0.43445 0.05828 0.0
C1319 C 0.77948 0.37426 0.04838 0.0
C1320 C 0.78974 0.37925 0.03498 0.0
C1321 C 0.76785 0.38533 0.05527 0.0
C1322 C 0.75908 0.42975 0.06156 0.0
H1323 H 0.70291 0.43476 0.12649 0.0
H1324 H 0.71955 0.42058 0.10533 0.0
H1325 H 0.75294 0.45189 0.07563 0.0
H1326 H 0.79588 0.39977 0.01822 0.0
H1327 H 0.77549 0.41935 0.03047 0.0
H1328 H 0.73391 0.39534 0.05788 0.0
C1329 C 0.7169 0.43381 0.10373 0.0
C1330 C 0.74854 0.43973 0.07148 0.0
C1331 C 0.70746 0.44198 0.11593 0.0
C1332 C 0.78809 0.39559 0.02854 0.0
C1333 C 0.7765 0.40679 0.03557 0.0
C1334 C 0.73816 0.40773 0.06153 0.0
C1335 C 0.723 0.44259 0.08974 0.0
C1336 C 0.733 0.43349 0.07698 0.0
C1337 C 0.76624 0.40172 0.04899 0.0
C1338 C 0.75419 0.41343 0.05699 0.0
H1339 H 0.70735 0.48131 0.09907 0.0
H1340 H 0.72423 0.46691 0.07765 0.0
H1341 H 0.71562 0.41266 0.07518 0.0
H1342 H 0.78046 0.36176 0.05364 0.0
H1343 H 0.76035 0.38114 0.06579 0.0
C1344 C 0.0033 0.21331 0.30332 0.0
C1345 C 0.98721 0.20677 0.30612 0.0
C1346 C 0.00604 0.22498 0.29054 0.0
C1347 C 0.98631 0.24318 0.25212 0.0
H1348 H 0.01915 0.27832 0.25944 0.0
C1349 C 0.99214 0.30334 0.2115 0.0
C1350 C 0.00837 0.30708 0.20576 0.0
C1351 C 0.9896 0.29046 0.22313 0.0
C1352 C 0.01003 0.2685 0.2572 0.0
H1353 H 0.96133 0.2073 0.29789 0.0
H1354 H 0.96588 0.22821 0.27607 0.0
H1355 H 0.01444 0.25733 0.28113 0.0
H1356 H 0.03465 0.30034 0.20759 0.0
H1357 H 0.03022 0.27808 0.22827 0.0
H1358 H 0.98153 0.25495 0.22839 0.0
C1359 C 0.97656 0.22399 0.28333 0.0
C1360 C 0.00737 0.25639 0.26958 0.0
C1361 C 0.97389 0.21209 0.29592 0.0
C1362 C 0.022 0.29769 0.21179 0.0
C1363 C 0.01949 0.28503 0.22365 0.0
C1364 C 0.98877 0.2555 0.23987 0.0
C1365 C 0.99268 0.23062 0.28046 0.0
C1366 C 0.99551 0.24351 0.2672 0.0
C1367 C 0.00328 0.28132 0.22942 0.0
C1368 C 0.00069 0.26822 0.2423 0.0
H1369 H 0.01383 0.2093 0.31091 0.0
H1370 H 0.01869 0.22946 0.28851 0.0
H1371 H 0.97731 0.23332 0.24965 0.0
H1372 H 0.98141 0.31037 0.20702 0.0
H1373 H 0.97699 0.28788 0.22748 0.0
C1374 C 0.78355 0.97235 0.29772 0.0
C1375 C 0.78953 0.98592 0.30724 0.0
C1376 C 0.77155 0.97492 0.2852 0.0
C1377 C 0.75555 0.00584 0.25595 0.0
H1378 H 0.71392 0.98076 0.25742 0.0
C1379 C 0.70014 0.02189 0.21225 0.0
C1380 C 0.68971 0.0088 0.20682 0.0
C1381 C 0.71256 0.01894 0.22426 0.0
C1382 C 0.72558 0.98766 0.25658 0.0
H1383 H 0.78793 0.01281 0.311 0.0
H1384 H 0.76726 0.01735 0.28876 0.0
H1385 H 0.73545 0.9756 0.2785 0.0
H1386 H 0.68434 0.98227 0.20926 0.0
H1387 H 0.70647 0.97688 0.22957 0.0
H1388 H 0.74609 0.01756 0.23379 0.0
C1389 C 0.77175 0.00474 0.29113 0.0
C1390 C 0.73785 0.98475 0.26874 0.0
C1391 C 0.78349 0.00213 0.30387 0.0
C1392 C 0.69211 0.99264 0.21336 0.0
C1393 C 0.70474 0.98959 0.22511 0.0
C1394 C 0.74342 0.00854 0.24359 0.0
C1395 C 0.76561 0.99115 0.28177 0.0
C1396 C 0.75287 0.9939 0.26859 0.0
C1397 C 0.71506 0.00273 0.23086 0.0
C1398 C 0.7282 -0.00042 0.24379 0.0
H1399 H 0.78799 0.95972 0.30009 0.0
H1400 H 0.76702 0.96427 0.27808 0.0
H1401 H 0.76713 0.01293 0.25552 0.0
H1402 H 0.69846 0.03451 0.20748 0.0
H1403 H 0.71999 0.02946 0.22856 0.0
C1404 C 0.00425 0.69467 0.21061 0.0
C1405 C 0.98786 0.69138 0.20511 0.0
C1406 C 0.00737 0.70769 0.22191 0.0
C1407 C 0.98788 0.74588 0.24076 0.0
H1408 H 0.02197 0.73908 0.27479 0.0
C1409 C 0.9943 0.78624 0.30085 0.0
C1410 C 0.01053 0.79191 0.3047 0.0
C1411 C 0.99177 0.77483 0.28779 0.0
C1412 C 0.01252 0.74119 0.26526 0.0
H1413 H 0.96187 0.69903 0.20709 0.0
H1414 H 0.96715 0.72131 0.2273 0.0
H1415 H 0.01702 0.71737 0.25388 0.0
H1416 H 0.03681 0.79022 0.2979 0.0
H1417 H 0.03238 0.76996 0.27528 0.0
H1418 H 0.98303 0.76949 0.25271 0.0
C1419 C 0.97772 0.71423 0.22256 0.0
C1420 C 0.00971 0.7288 0.25321 0.0
C1421 C 0.97465 0.70137 0.21106 0.0
C1422 C 0.02416 0.78606 0.29519 0.0
C1423 C 0.02165 0.77445 0.28231 0.0
C1424 C 0.99052 0.75816 0.25299 0.0
C1425 C 0.99412 0.71755 0.22818 0.0
C1426 C 0.99734 0.73095 0.24079 0.0
C1427 C 0.00544 0.76869 0.27855 0.0
C1428 C 0.00286 0.75591 0.26534 0.0
H1429 H 0.01469 0.68723 0.2061 0.0
H1430 H 0.0202 0.71007 0.22565 0.0
H1431 H 0.97848 0.74815 0.23123 0.0
H1432 H 0.98357 0.79058 0.30797 0.0
H1433 H 0.97916 0.77048 0.28519 0.0
C1434 C 0.20414 0.01698 0.2909 0.0
C1435 C 0.20434 0.00709 0.30548 0.0
C1436 C 0.21571 0.01407 0.27805 0.0
C1437 C 0.24512 0.98225 0.26135 0.0
H1438 H 0.26685 0.02073 0.24101 0.0
C1439 C 0.29118 0.97601 0.20565 0.0
C1440 C 0.30571 0.98594 0.20631 0.0
C1441 C 0.2782 0.97847 0.21718 0.0
C1442 C 0.26095 0.00985 0.24662 0.0
H1443 H 0.21661 0.98628 0.31797 0.0
H1444 H 0.23689 0.98131 0.29565 0.0
H1445 H 0.24527 0.02504 0.26221 0.0
H1446 H 0.3181 0.0062 0.21956 0.0
H1447 H 0.29556 0.0104 0.23978 0.0
H1448 H 0.26115 0.96706 0.24608 0.0
C1449 C 0.2277 0.99118 0.29403 0.0
C1450 C 0.24844 0.01232 0.25863 0.0
C1451 C 0.21614 0.99409 0.30687 0.0
C1452 C 0.30703 0.99838 0.21872 0.0
C1453 C 0.29406 0.00086 0.23023 0.0
C1454 C 0.25763 0.97978 0.24933 0.0
C1455 C 0.2277 0.00121 0.27952 0.0
C1456 C 0.24047 0.99855 0.26622 0.0
C1457 C 0.27949 0.99094 0.22959 0.0
C1458 C 0.26578 0.99355 0.24193 0.0
H1459 H 0.19514 0.02706 0.28946 0.0
H1460 H 0.21524 0.02189 0.26695 0.0
H1461 H 0.23909 0.97138 0.26684 0.0
H1462 H 0.28979 0.96635 0.19619 0.0
H1463 H 0.26707 0.97075 0.21624 0.0
C1464 C 0.00991 0.70813 0.7958 0.0
C1465 C 0.00807 0.69122 0.7913 0.0
C1466 C 0.00679 0.72083 0.7841 0.0
C1467 C 0.98696 0.72825 0.74224 0.0
H1468 H 0.01394 0.76873 0.74312 0.0
C1469 C 0.99205 0.7748 0.68698 0.0
C1470 C 0.98835 0.79158 0.69086 0.0
C1471 C 0.9939 0.76296 0.69975 0.0
C1472 C 0.00626 0.75752 0.74284 0.0
H1473 H 0.00182 0.67422 0.77104 0.0
H1474 H 0.99715 0.69619 0.75043 0.0
H1475 H 0.01839 0.74713 0.76435 0.0
H1476 H 0.98397 0.80925 0.71106 0.0
H1477 H 0.98777 0.78852 0.73349 0.0
H1478 H 0.97543 0.73846 0.7202 0.0
C1479 C 0.00037 0.69983 0.7631 0.0
C1480 C 0.00871 0.74516 0.75505 0.0
C1481 C 0.00317 0.68719 0.77489 0.0
C1482 C 0.98679 0.79638 0.70775 0.0
C1483 C 0.989 0.78458 0.72055 0.0
C1484 C 0.98477 0.74045 0.72987 0.0
C1485 C 0.00207 0.71685 0.76754 0.0
C1486 C -0.00087 0.7303 0.75487 0.0
C1487 C 0.99243 0.76775 0.71662 0.0
C1488 C 0.99443 0.75514 0.73004 0.0
H1489 H 0.01357 0.71157 0.80843 0.0
H1490 H 0.00794 0.73375 0.78812 0.0
H1491 H 0.97904 0.71722 0.74189 0.0
H1492 H 0.99327 0.77077 0.67406 0.0
H1493 H 0.99664 0.75005 0.69645 0.0
C1494 C 0.20418 0.98044 0.70694 0.0
C1495 C 0.20516 0.98992 0.69212 0.0
C1496 C 0.21565 0.98306 0.71994 0.0
C1497 C 0.24636 0.01385 0.73632 0.0
H1498 H 0.26535 0.97507 0.75872 0.0
C1499 C 0.29201 0.02041 0.79213 0.0
C1500 C 0.30605 0.00977 0.79208 0.0
C1501 C 0.27887 0.01784 0.78082 0.0
C1502 C 0.26022 0.98602 0.75254 0.0
H1503 H 0.21878 0.00968 0.67933 0.0
H1504 H 0.2389 0.01413 0.70191 0.0
H1505 H 0.24408 0.97113 0.73712 0.0
H1506 H 0.3173 0.988 0.78029 0.0
H1507 H 0.29448 0.98362 0.7604 0.0
H1508 H 0.26286 0.02872 0.75136 0.0
C1509 C 0.22916 0.00482 0.70361 0.0
C1510 C 0.24788 0.98378 0.74029 0.0
C1511 C 0.21769 0.00221 0.69063 0.0
C1512 C 0.30661 0.99638 0.78065 0.0
C1513 C 0.29349 0.99381 0.76932 0.0
C1514 C 0.25869 0.01609 0.74856 0.0
C1515 C 0.22833 0.99522 0.71839 0.0
C1516 C 0.24091 0.99766 0.73194 0.0
C1517 C 0.27951 0.00457 0.7692 0.0
C1518 C 0.26587 0.0022 0.75672 0.0
H1519 H 0.19462 0.97091 0.70847 0.0
H1520 H 0.21454 0.97561 0.73124 0.0
H1521 H 0.2411 0.02482 0.73026 0.0
H1522 H 0.2912 0.0308 0.80086 0.0
H1523 H 0.26818 0.02621 0.78121 0.0
C1524 C 0.01861 0.21079 0.70226 0.0
C1525 C 0.00569 0.20514 0.69173 0.0
C1526 C 0.01535 0.22267 0.71472 0.0
C1527 C 0.98387 0.2549 0.72701 0.0
H1528 H 0.00928 0.25497 0.76849 0.0
C1529 C 0.97043 0.2997 0.78286 0.0
C1530 C 0.9845 0.30869 0.7885 0.0
C1531 C 0.97233 0.28648 0.77148 0.0
C1532 C 0.00212 0.25508 0.75693 0.0
H1533 H 0.97914 0.20699 0.68628 0.0
H1534 H 0.97325 0.22718 0.70846 0.0
H1535 H 0.01351 0.23244 0.74823 0.0
H1536 H 0.01156 0.31082 0.78688 0.0
H1537 H 0.01489 0.28746 0.76729 0.0
H1538 H 0.97225 0.27741 0.73604 0.0
C1539 C 0.98603 0.22293 0.7068 0.0
C1540 C 0.0046 0.24225 0.74526 0.0
C1541 C 0.98937 0.21125 0.69415 0.0
C1542 C 0.0005 0.30413 0.7827 0.0
C1543 C 0.00242 0.29073 0.77158 0.0
C1544 C 0.9812 0.26757 0.73882 0.0
C1545 C -0.00098 0.22897 0.71713 0.0
C1546 C 0.99568 0.2421 0.73002 0.0
C1547 C 0.98836 0.28184 0.76583 0.0
C1548 C 0.99047 0.26789 0.75378 0.0
H1549 H 0.03135 0.20636 0.70058 0.0
H1550 H 0.02575 0.2272 0.72218 0.0
H1551 H 0.97698 0.25543 0.71532 0.0
H1552 H 0.95796 0.30298 0.78713 0.0
H1553 H 0.96131 0.27976 0.76725 0.0
C1554 C 0.7868 0.99342 0.69429 0.0
C1555 C 0.79168 0.00977 0.68989 0.0
C1556 C 0.77529 0.99079 0.70725 0.0
C1557 C 0.74018 0.01052 0.72834 0.0
H1558 H 0.74894 0.97935 0.76463 0.0
C1559 C 0.6945 0.00424 0.78385 0.0
C1560 C 0.69215 0.98828 0.79089 0.0
C1561 C 0.70718 0.00697 0.77209 0.0
C1562 C 0.74615 0.9879 0.75447 0.0
H1563 H 0.78844 0.03618 0.69556 0.0
H1564 H 0.76799 0.03158 0.71796 0.0
H1565 H 0.77005 0.98363 0.74288 0.0
H1566 H 0.70112 0.96263 0.79117 0.0
H1567 H 0.72282 0.96716 0.77013 0.0
H1568 H 0.71611 0.01443 0.73937 0.0
C1569 C 0.77318 0.02083 0.71146 0.0
C1570 C 0.7583 0.9904 0.74207 0.0
C1571 C 0.78491 0.02344 0.69871 0.0
C1572 C 0.70273 0.97509 0.786 0.0
C1573 C 0.71525 0.97775 0.77401 0.0
C1574 C 0.72792 0.00783 0.74055 0.0
C1575 C 0.76824 0.00449 0.71581 0.0
C1576 C 0.75544 0.00178 0.72896 0.0
C1577 C 0.71763 0.99373 0.76686 0.0
C1578 C 0.73075 0.99654 0.75383 0.0
H1579 H 0.79186 0.98266 0.68771 0.0
H1580 H 0.77159 0.97808 0.71033 0.0
H1581 H 0.73759 0.0192 0.71821 0.0
H1582 H 0.6866 0.01467 0.78753 0.0
H1583 H 0.70884 0.01953 0.76719 0.0
C1584 C 0.22173 0.31051 0.99368 0.0
C1585 C 0.20543 0.30649 0.98835 0.0
C1586 C 0.2337 0.29792 0.99587 0.0
C1587 C 0.23932 0.254 0.00569 0.0
H1588 H 0.28179 0.25822 0.9824 0.0
C1589 C 0.28967 0.2018 0.00841 0.0
C1590 C 0.30656 0.20675 0.00837 0.0
C1591 C 0.27696 0.21356 0.0056 0.0
C1592 C 0.27013 0.25694 0.98924 0.0
H1593 H 0.18872 0.28617 0.98149 0.0
H1594 H 0.20963 0.26401 0.98583 0.0
H1595 H 0.26031 0.27963 0.97869 0.0
H1596 H 0.32345 0.22786 0.00573 0.0
H1597 H 0.30138 0.2485 0.00159 0.0
H1598 H 0.24924 0.23171 0.01682 0.0
C1599 C 0.21312 0.27695 0.9881 0.0
C1600 C 0.2578 0.26916 0.98699 0.0
C1601 C 0.20122 0.2896 0.98557 0.0
C1602 C 0.31052 0.22368 0.00567 0.0
C1603 C 0.29784 0.23549 0.00317 0.0
C1604 C 0.25177 0.2419 0.0082 0.0
C1605 C 0.2295 0.28104 0.9931 0.0
C1606 C 0.24232 0.26782 0.99522 0.0
C1607 C 0.28087 0.23059 0.00296 0.0
C1608 C 0.26739 0.24324 5e-05 0.0
H1609 H 0.22533 0.32343 0.99587 0.0
H1610 H 0.24624 0.30135 -0.00016 0.0
H1611 H 0.22748 0.25278 0.01226 0.0
H1612 H 0.28628 0.18878 0.01037 0.0
H1613 H 0.2641 0.20923 0.00527 0.0
C1614 C 0.21138 0.7002 0.02627 0.0
C1615 C 0.20681 0.68989 0.01273 0.0
C1616 C 0.22277 0.71334 0.02395 0.0
C1617 C 0.23925 0.74196 0.99238 0.0
H1618 H 0.27886 0.74458 0.02047 0.0
C1619 C 0.29477 0.78498 0.97562 0.0
C1620 C 0.30419 0.79213 0.98865 0.0
C1621 C 0.28221 0.77329 0.97914 0.0
C1622 C 0.26773 0.74428 0.0127 0.0
H1623 H 0.21031 0.68532 0.98615 0.0
H1624 H 0.22994 0.70851 0.98205 0.0
H1625 H 0.25795 0.72291 0.02578 0.0
H1626 H 0.30762 0.79309 0.01559 0.0
H1627 H 0.28526 0.77319 0.02184 0.0
H1628 H 0.24869 0.76347 0.97948 0.0
C1629 C 0.2248 0.70635 0.99444 0.0
C1630 C 0.2558 0.7318 0.01572 0.0
C1631 C 0.21366 0.69305 0.99681 0.0
C1632 C 0.30061 0.78765 0.00529 0.0
C1633 C 0.28787 0.77615 0.00885 0.0
C1634 C 0.25102 0.75462 0.98952 0.0
C1635 C 0.2295 0.71657 0.00799 0.0
C1636 C 0.24159 0.7304 0.00544 0.0
C1637 C 0.27861 0.76867 0.99581 0.0
C1638 C 0.26555 0.75581 -0.00052 0.0
H1639 H 0.20628 0.69802 0.03867 0.0
H1640 H 0.22618 0.7211 0.03457 0.0
H1641 H 0.22827 0.74124 0.98442 0.0
H1642 H 0.29735 0.78813 0.96266 0.0
H1643 H 0.27562 0.76759 0.96873 0.0
C1644 C 0.77993 0.30762 0.9932 0.0
C1645 C 0.79147 0.30621 0.00644 0.0
C1646 C 0.76807 0.29503 0.99038 0.0
C1647 C 0.74609 0.26059 0.01193 0.0
H1648 H 0.73388 0.24725 0.96677 0.0
C1649 C 0.68728 0.22093 0.99807 0.0
C1650 C 0.68869 0.20821 0.98596 0.0
C1651 C 0.70027 0.23244 0.00042 0.0
C1652 C 0.73725 0.25073 0.97946 0.0
H1653 H 0.79988 0.29038 0.0269 0.0
H1654 H 0.77927 0.26831 0.02187 0.0
H1655 H 0.75623 0.26773 0.97099 0.0
H1656 H 0.70478 0.19755 0.96681 0.0
H1657 H 0.72756 0.21759 0.971 0.0
H1658 H 0.72725 0.24346 0.02042 0.0
C1659 C 0.77923 0.27925 0.01381 0.0
C1660 C 0.74993 0.26259 0.98187 0.0
C1661 C 0.79109 0.29185 0.01664 0.0
C1662 C 0.70333 0.20725 0.97621 0.0
C1663 C 0.71633 0.21878 0.97855 0.0
C1664 C 0.7334 0.24875 0.00952 0.0
C1665 C 0.7675 0.28076 0.00073 0.0
C1666 C 0.75443 0.26772 0.99814 0.0
C1667 C 0.71496 0.23149 0.99071 0.0
C1668 C 0.72876 0.24375 0.99326 0.0
H1669 H 0.7799 0.31857 0.98515 0.0
H1670 H 0.75909 0.29668 0.98032 0.0
H1671 H 0.74913 0.26438 0.02461 0.0
H1672 H 0.67612 0.22201 0.00574 0.0
H1673 H 0.69872 0.24223 0.00971 0.0
C1674 C 0.78378 0.69366 -0.00011 0.0
C1675 C 0.78982 0.68943 0.98389 0.0
C1676 C 0.77267 0.70704 0.00191 0.0
C1677 C 0.74035 0.73078 0.9806 0.0
H1678 H 0.74898 0.76477 0.01431 0.0
C1679 C 0.6953 0.78665 0.99015 0.0
C1680 C 0.69253 0.79198 0.0067 0.0
C1681 C 0.70804 0.77515 0.98654 0.0
C1682 C 0.74624 0.75528 0.00499 0.0
H1683 H 0.78891 0.69571 0.95745 0.0
H1684 H 0.76905 0.71893 0.96098 0.0
H1685 H 0.7694 0.74248 0.0097 0.0
H1686 H 0.70083 0.78953 0.03246 0.0
H1687 H 0.72258 0.76903 0.02634 0.0
H1688 H 0.71691 0.74302 0.97632 0.0
C1689 C 0.77308 0.71195 0.97192 0.0
C1690 C 0.758 0.74259 0.0023 0.0
C1691 C 0.78445 0.69874 0.96992 0.0
C1692 C 0.70277 0.78571 0.01956 0.0
C1693 C 0.71533 0.77403 0.01601 0.0
C1694 C 0.72845 0.74333 0.98346 0.0
C1695 C 0.76717 0.71626 0.98795 0.0
C1696 C 0.7551 0.73017 0.99017 0.0
C1697 C 0.71812 0.76855 -0.00055 0.0
C1698 C 0.73117 0.75568 0.9958 0.0
H1699 H 0.78775 0.68672 0.01088 0.0
H1700 H 0.76816 0.71003 0.01438 0.0
H1701 H 0.73778 0.72124 0.97127 0.0
H1702 H 0.68765 0.79139 0.97997 0.0
H1703 H 0.70999 0.77149 0.97361 0.0
C1704 C 0.48542 0.70463 0.7929 0.0
C1705 C 0.48571 0.70948 0.80982 0.0
C1706 C 0.48793 0.71649 0.78022 0.0
C1707 C 0.50425 0.75983 0.7734 0.0
H1708 H 0.48132 0.75555 0.73071 0.0
C1709 C 0.50091 0.81288 0.72423 0.0
C1710 C 0.50606 0.80849 0.70796 0.0
C1711 C 0.49851 0.80052 0.73641 0.0
C1712 C 0.48786 0.75681 0.74256 0.0
H1713 H 0.48837 0.73053 0.8268 0.0
H1714 H 0.49199 0.75134 0.80477 0.0
H1715 H 0.47651 0.7347 0.75262 0.0
H1716 H 0.51242 0.78778 0.69154 0.0
H1717 H 0.50774 0.76605 0.71281 0.0
H1718 H 0.51507 0.78232 0.76341 0.0
C1719 C 0.49045 0.73833 0.80118 0.0
C1720 C 0.4852 0.74483 0.7551 0.0
C1721 C 0.48824 0.72643 0.81384 0.0
C1722 C 0.50849 0.79149 0.704 0.0
C1723 C 0.50576 0.77909 0.71611 0.0
C1724 C 0.50666 0.77194 0.76097 0.0
C1725 C 0.49051 0.73352 0.78418 0.0
C1726 C 0.49336 0.74619 0.77072 0.0
C1727 C 0.5009 0.78353 0.73245 0.0
C1728 C 0.49848 0.77053 0.74546 0.0
H1729 H 0.4836 0.69161 0.78946 0.0
H1730 H 0.48816 0.71221 0.76734 0.0
H1731 H 0.51109 0.76113 0.78506 0.0
H1732 H 0.49899 0.8259 0.72763 0.0
H1733 H 0.49467 0.80423 0.7489 0.0
C1734 C 0.27855 0.5009 0.80879 0.0
C1735 C 0.29078 0.48832 0.80723 0.0
C1736 C 0.26675 0.50344 0.79609 0.0
C1737 C 0.24637 0.48219 0.76053 0.0
H1738 H 0.23403 0.5274 0.74745 0.0
C1739 C 0.18875 0.49642 0.71913 0.0
C1740 C 0.19055 0.50874 0.70667 0.0
C1741 C 0.20142 0.49381 0.73094 0.0
C1742 C 0.23744 0.5147 0.75086 0.0
H1743 H 0.30033 0.46856 0.79115 0.0
H1744 H 0.27974 0.47304 0.76892 0.0
H1745 H 0.25559 0.52316 0.76874 0.0
H1746 H 0.20704 0.52793 0.6967 0.0
H1747 H 0.22924 0.52332 0.71731 0.0
H1748 H 0.22832 0.47373 0.74255 0.0
C1749 C 0.27918 0.48084 0.78003 0.0
C1750 C 0.24965 0.51227 0.76319 0.0
C1751 C 0.29101 0.47834 0.79272 0.0
C1752 C 0.2053 0.51836 0.7062 0.0
C1753 C 0.21796 0.51579 0.71804 0.0
C1754 C 0.23412 0.48462 0.74825 0.0
C1755 C 0.26691 0.49342 0.78158 0.0
C1756 C 0.25421 0.49599 0.76821 0.0
C1757 C 0.21615 0.50349 0.73056 0.0
C1758 C 0.22947 0.5009 0.74332 0.0
H1759 H 0.27804 0.50877 0.81986 0.0
H1760 H 0.25733 0.51309 0.79776 0.0
H1761 H 0.2495 0.46949 0.76423 0.0
H1762 H 0.17751 0.48882 0.71982 0.0
H1763 H 0.19956 0.48439 0.74056 0.0
C1764 C 0.52342 0.28523 0.7963 0.0
C1765 C 0.50998 0.29201 0.80545 0.0
C1766 C 0.52055 0.27304 0.78406 0.0
C1767 C 0.48936 0.25671 0.7551 0.0
H1768 H 0.51409 0.21494 0.75823 0.0
C1769 C 0.47392 0.20001 0.71272 0.0
C1770 C 0.48721 0.1897 0.70756 0.0
C1771 C 0.47658 0.21267 0.72456 0.0
C1772 C 0.50727 0.22662 0.75695 0.0
H1773 H 0.48299 0.29173 0.80873 0.0
H1774 H 0.47794 0.27065 0.78696 0.0
H1775 H 0.51919 0.23711 0.77862 0.0
H1776 H 0.51378 0.18472 0.71037 0.0
H1777 H 0.51862 0.20719 0.73044 0.0
H1778 H 0.47777 0.24655 0.73317 0.0
C1779 C 0.49068 0.27469 0.78941 0.0
C1780 C 0.51015 0.23927 0.76871 0.0
C1781 C 0.49358 0.28667 0.80188 0.0
C1782 C 0.50326 0.1924 0.71426 0.0
C1783 C 0.50599 0.20522 0.72586 0.0
C1784 C 0.48666 0.24417 0.74315 0.0
C1785 C 0.50416 0.26764 0.78054 0.0
C1786 C 0.50119 0.25439 0.76791 0.0
C1787 C 0.49267 0.21547 0.73128 0.0
C1788 C 0.49556 0.22892 0.74393 0.0
H1789 H 0.53619 0.28911 0.79883 0.0
H1790 H 0.53113 0.26784 0.77729 0.0
H1791 H 0.48239 0.26834 0.75417 0.0
H1792 H 0.46139 0.19812 0.70781 0.0
H1793 H 0.46594 0.22007 0.72861 0.0
C1794 C 0.80144 0.50353 0.7111 0.0
C1795 C 0.80529 0.48726 0.70553 0.0
C1796 C 0.78842 0.50613 0.72255 0.0
C1797 C 0.76547 0.4852 0.75606 0.0
H1798 H 0.73236 0.52024 0.74955 0.0
C1799 C 0.71039 0.49378 0.80204 0.0
C1800 C 0.70548 0.51025 0.80585 0.0
C1801 C 0.72174 0.49067 0.78906 0.0
C1802 C 0.74163 0.51054 0.75168 0.0
H1803 H 0.79852 0.46098 0.70742 0.0
H1804 H 0.77593 0.46552 0.72765 0.0
H1805 H 0.75387 0.51556 0.72827 0.0
H1806 H 0.70854 0.53641 0.7991 0.0
H1807 H 0.72877 0.53109 0.77683 0.0
H1808 H 0.75371 0.48046 0.77966 0.0
C1809 C 0.78295 0.47624 0.72312 0.0
C1810 C 0.75389 0.50783 0.73945 0.0
C1811 C 0.79582 0.47366 0.71151 0.0
C1812 C 0.71205 0.52356 0.79637 0.0
C1813 C 0.72356 0.52049 0.78353 0.0
C1814 C 0.75335 0.48803 0.76839 0.0
C1815 C 0.77917 0.49249 0.72879 0.0
C1816 C 0.76593 0.49515 0.74154 0.0
C1817 C 0.72861 0.504 0.77973 0.0
C1818 C 0.74128 0.50076 0.76639 0.0
H1819 H 0.80852 0.51424 0.70668 0.0
H1820 H 0.78584 0.51877 0.72682 0.0
H1821 H 0.77475 0.47548 0.75808 0.0
H1822 H 0.70542 0.48326 0.80907 0.0
H1823 H 0.72506 0.47779 0.7863 0.0
C1824 C 0.50958 0.20704 0.2967 0.0
C1825 C 0.50785 0.19013 0.2921 0.0
C1826 C 0.50654 0.21977 0.28502 0.0
C1827 C 0.48702 0.22729 0.24306 0.0
H1828 H 0.5137 0.26795 0.24439 0.0
C1829 C 0.49209 0.27426 0.18817 0.0
C1830 C 0.48815 0.29096 0.19214 0.0
C1831 C 0.494 0.26235 0.20086 0.0
C1832 C 0.50611 0.25669 0.24398 0.0
H1833 H 0.5019 0.1732 0.2717 0.0
H1834 H 0.49737 0.19525 0.25114 0.0
H1835 H 0.51817 0.24624 0.26551 0.0
H1836 H 0.48343 0.30844 0.21243 0.0
H1837 H 0.48734 0.2876 0.23474 0.0
H1838 H 0.47556 0.23758 0.22101 0.0
C1839 C 0.50044 0.19885 0.26386 0.0
C1840 C 0.50856 0.24427 0.25612 0.0
C1841 C 0.50316 0.18616 0.27562 0.0
C1842 C 0.48643 0.29562 0.20905 0.0
C1843 C 0.48871 0.28376 0.22178 0.0
C1844 C 0.48482 0.23956 0.23076 0.0
C1845 C 0.50201 0.21585 0.2684 0.0
C1846 C 0.49909 0.22935 0.25579 0.0
C1847 C 0.49236 0.26701 0.21775 0.0
C1848 C 0.49438 0.25432 0.2311 0.0
H1849 H 0.51308 0.21043 0.30938 0.0
H1850 H 0.50759 0.23268 0.28912 0.0
H1851 H 0.47918 0.21622 0.24258 0.0
H1852 H 0.49343 0.27033 0.17523 0.0
H1853 H 0.49691 0.2495 0.1975 0.0
C1854 C 0.79716 0.5241 0.28397 0.0
C1855 C 0.80667 0.51042 0.28971 0.0
C1856 C 0.78464 0.52176 0.27193 0.0
C1857 C 0.75538 0.49119 0.25523 0.0
H1858 H 0.75716 0.51692 0.21401 0.0
C1859 C 0.71215 0.47586 0.19927 0.0
C1860 C 0.7068 0.48905 0.18893 0.0
C1861 C 0.72405 0.47869 0.21183 0.0
C1862 C 0.75622 0.50984 0.22555 0.0
H1863 H 0.81036 0.48355 0.28767 0.0
H1864 H 0.78809 0.47941 0.26694 0.0
H1865 H 0.77807 0.52173 0.23578 0.0
H1866 H 0.7093 0.51562 0.18381 0.0
H1867 H 0.72943 0.52079 0.20618 0.0
H1868 H 0.73329 0.47963 0.24544 0.0
C1869 C 0.79049 0.49193 0.27164 0.0
C1870 C 0.76829 0.51255 0.23797 0.0
C1871 C 0.80324 0.49432 0.28342 0.0
C1872 C 0.71334 0.50519 0.19153 0.0
C1873 C 0.72499 0.5081 0.20429 0.0
C1874 C 0.7431 0.48869 0.24297 0.0
C1875 C 0.78118 0.50565 0.2657 0.0
C1876 C 0.76805 0.50316 0.25284 0.0
C1877 C 0.73063 0.49487 0.21455 0.0
C1878 C 0.74343 0.49787 0.22788 0.0
H1879 H 0.79958 0.53665 0.28859 0.0
H1880 H 0.77756 0.53251 0.26756 0.0
H1881 H 0.75486 0.48391 0.2667 0.0
H1882 H 0.70739 0.46326 0.19745 0.0
H1883 H 0.72828 0.46809 0.2192 0.0
C1884 C 0.50069 0.72272 0.18603 0.0
C1885 C 0.51128 0.70883 0.18835 0.0
C1886 C 0.49873 0.73463 0.19873 0.0
C1887 C 0.50317 0.74063 0.24433 0.0
H1888 H 0.5024 0.78788 0.23275 0.0
C1889 C 0.48252 0.79246 0.29081 0.0
C1890 C 0.49174 0.80747 0.29075 0.0
C1891 C 0.48555 0.78012 0.27872 0.0
C1892 C 0.50272 0.77475 0.23621 0.0
H1893 H 0.52811 0.69648 0.20577 0.0
H1894 H 0.52473 0.71734 0.22798 0.0
H1895 H 0.50665 0.767 0.21082 0.0
H1896 H 0.51155 0.82124 0.27819 0.0
H1897 H 0.5169 0.79968 0.25715 0.0
H1898 H 0.49936 0.74841 0.26976 0.0
C1899 C 0.51784 0.71894 0.21639 0.0
C1900 C 0.50497 0.76278 0.22362 0.0
C1901 C 0.51985 0.70706 0.20364 0.0
C1902 C 0.5042 0.80982 0.27852 0.0
C1903 C 0.5072 0.79751 0.26641 0.0
C1904 C 0.50084 0.75261 0.25693 0.0
C1905 C 0.50728 0.73288 0.21405 0.0
C1906 C 0.50517 0.74558 0.22752 0.0
C1907 C 0.49783 0.78257 0.26629 0.0
C1908 C 0.50057 0.7698 0.253 0.0
H1909 H 0.49389 0.7244 0.17439 0.0
H1910 H 0.49034 0.74511 0.19663 0.0
H1911 H 0.50313 0.72747 0.24771 0.0
H1912 H 0.47282 0.79031 0.30007 0.0
H1913 H 0.47801 0.76882 0.27886 0.0
C1914 C 0.287 0.49231 0.19459 0.0
C1915 C 0.29209 0.50877 0.19098 0.0
C1916 C 0.27541 0.4892 0.20737 0.0
C1917 C 0.25467 0.50937 0.24425 0.0
H1918 H 0.22212 0.4738 0.23781 0.0
C1919 C 0.19356 0.50274 0.28282 0.0
C1920 C 0.1905 0.48681 0.28969 0.0
C1921 C 0.20666 0.5051 0.27142 0.0
C1922 C 0.23123 0.48368 0.23981 0.0
H1923 H 0.28906 0.53491 0.19778 0.0
H1924 H 0.26834 0.52964 0.21955 0.0
H1925 H 0.24359 0.47861 0.2166 0.0
H1926 H 0.1986 0.46084 0.29001 0.0
H1927 H 0.22126 0.46492 0.26969 0.0
H1928 H 0.24171 0.51479 0.26719 0.0
C1929 C 0.27364 0.51901 0.21297 0.0
C1930 C 0.24361 0.48641 0.22772 0.0
C1931 C 0.28544 0.52207 0.20039 0.0
C1932 C 0.20071 0.47326 0.28491 0.0
C1933 C 0.21361 0.47557 0.27327 0.0
C1934 C 0.2421 0.50682 0.25619 0.0
C1935 C 0.26842 0.50253 0.21662 0.0
C1936 C 0.2555 0.49933 0.22975 0.0
C1937 C 0.21672 0.49152 0.26648 0.0
C1938 C 0.23027 0.49397 0.25405 0.0
H1939 H 0.29205 0.4818 0.1876 0.0
H1940 H 0.272 0.47632 0.21001 0.0
H1941 H 0.26378 0.5192 0.24647 0.0
H1942 H 0.18591 0.51341 0.28632 0.0
H1943 H 0.20876 0.5175 0.26625 0.0
C1944 C 0.80731 0.71941 0.4981 0.0
C1945 C 0.80557 0.70668 0.51015 0.0
C1946 C 0.79459 0.73123 0.49575 0.0
C1947 C 0.75821 0.75039 0.51689 0.0
H1948 H 0.74666 0.76485 0.47191 0.0
C1949 C 0.71699 0.80852 0.50386 0.0
C1950 C 0.7053 0.80746 0.49073 0.0
C1951 C 0.72861 0.79566 0.50648 0.0
C1952 C 0.74962 0.76084 0.48454 0.0
H1953 H 0.78913 0.69626 0.52914 0.0
H1954 H 0.76684 0.71685 0.52496 0.0
H1955 H 0.76791 0.74323 0.47584 0.0
H1956 H 0.69641 0.79201 0.47019 0.0
H1957 H 0.7166 0.76947 0.47484 0.0
H1958 H 0.73977 0.76787 0.52557 0.0
C1959 C 0.77812 0.71781 0.51745 0.0
C1960 C 0.76194 0.74859 0.48681 0.0
C1961 C 0.79084 0.70597 0.51979 0.0
C1962 C 0.70532 0.7932 0.48038 0.0
C1963 C 0.71694 0.78034 0.48298 0.0
C1964 C 0.7459 0.76266 0.51463 0.0
C1965 C 0.77986 0.73058 0.50541 0.0
C1966 C 0.76644 0.74328 0.50301 0.0
C1967 C 0.72879 0.78147 0.496 0.0
C1968 C 0.74152 0.76808 0.49843 0.0
H1969 H 0.81855 0.72031 0.49052 0.0
H1970 H 0.79643 0.74105 0.48654 0.0
H1971 H 0.76149 0.74668 0.52954 0.0
H1972 H 0.71729 0.81939 0.51202 0.0
H1973 H 0.73769 0.79702 0.51648 0.0
C1974 C 0.71462 0.19842 0.52673 0.0
C1975 C 0.70883 0.18929 0.51281 0.0
C1976 C 0.72623 0.21141 0.5246 0.0
C1977 C 0.74116 0.24212 0.49434 0.0
H1978 H 0.78267 0.24177 0.51965 0.0
C1979 C 0.7959 0.28642 0.47799 0.0
C1980 C 0.8063 0.29214 0.49098 0.0
C1981 C 0.7835 0.27446 0.48117 0.0
C1982 C 0.77102 0.2423 0.51269 0.0
H1983 H 0.71042 0.18666 0.48579 0.0
H1984 H 0.73041 0.20962 0.48206 0.0
H1985 H 0.7618 0.21997 0.52452 0.0
H1986 H 0.81161 0.2903 0.51756 0.0
H1987 H 0.78952 0.26998 0.52331 0.0
H1988 H 0.75003 0.2646 0.48277 0.0
C1989 C 0.72606 0.20664 0.49459 0.0
C1990 C 0.75912 0.22973 0.51545 0.0
C1991 C 0.71472 0.19346 0.49674 0.0
C1992 C 0.80384 0.28599 0.50728 0.0
C1993 C 0.79124 0.27424 0.51053 0.0
C1994 C 0.75292 0.25486 0.49178 0.0
C1995 C 0.73196 0.21568 0.5085 0.0
C1996 C 0.74419 0.22943 0.50616 0.0
C1997 C 0.78102 0.26815 0.49748 0.0
C1998 C 0.76811 0.25502 0.50078 0.0
H1999 H 0.71029 0.19545 0.53926 0.0
H2000 H 0.73056 0.21826 0.53551 0.0
H2001 H 0.72962 0.24224 0.48716 0.0
H2002 H 0.79762 0.29088 0.46527 0.0
H2003 H 0.77613 0.26989 0.47072 0.0
C2004 C 0.28451 0.79661 0.52154 0.0
C2005 C 0.28966 0.80686 0.50817 0.0
C2006 C 0.27235 0.78423 0.51904 0.0
C2007 C 0.25409 0.7567 0.48777 0.0
H2008 H 0.21417 0.75736 0.51551 0.0
C2009 C 0.19741 0.71399 0.47345 0.0
C2010 C 0.18789 0.70797 0.48697 0.0
C2011 C 0.21002 0.72589 0.47608 0.0
C2012 C 0.22534 0.75674 0.50783 0.0
H2013 H 0.2865 0.81199 0.48165 0.0
H2014 H 0.26556 0.78997 0.4772 0.0
H2015 H 0.23624 0.77795 0.52028 0.0
H2016 H 0.18427 0.7093 0.51386 0.0
H2017 H 0.20671 0.72942 0.51862 0.0
H2018 H 0.24363 0.73522 0.47564 0.0
C2019 C 0.27081 0.79168 0.48962 0.0
C2020 C 0.23793 0.76862 0.51053 0.0
C2021 C 0.28271 0.80429 0.49218 0.0
C2022 C 0.19133 0.71387 0.50318 0.0
C2023 C 0.20414 0.72551 0.50587 0.0
C2024 C 0.24165 0.7446 0.48526 0.0
C2025 C 0.26542 0.78166 0.50306 0.0
C2026 C 0.25234 0.76877 0.50046 0.0
C2027 C 0.2136 0.7318 0.49235 0.0
C2028 C 0.22704 0.74451 0.49519 0.0
H2029 H 0.28965 0.79836 0.534 0.0
H2030 H 0.26842 0.77659 0.52957 0.0
H2031 H 0.26519 0.75651 0.47994 0.0
H2032 H 0.19493 0.70972 0.46079 0.0
H2033 H 0.21676 0.73062 0.46529 0.0
C2034 C 0.18426 0.27284 0.50601 0.0
C2035 C 0.18837 0.28968 0.50916 0.0
C2036 C 0.19688 0.26089 0.50389 0.0
C2037 C 0.23993 0.25551 0.49038 0.0
H2038 H 0.23888 0.21459 0.51666 0.0
C2039 C 0.29328 0.20652 0.48687 0.0
C2040 C 0.28888 0.18953 0.4883 0.0
C2041 C 0.28136 0.21905 0.48976 0.0
C2042 C 0.23925 0.2258 0.509 0.0
H2043 H 0.20882 0.30731 0.51237 0.0
H2044 H 0.23095 0.28638 0.50822 0.0
H2045 H 0.21727 0.2358 0.5208 0.0
H2046 H 0.26856 0.17226 0.49349 0.0
H2047 H 0.2476 0.194 0.49783 0.0
H2048 H 0.26148 0.24537 0.47809 0.0
C2049 C 0.21796 0.28248 0.50756 0.0
C2050 C 0.22691 0.23798 0.51148 0.0
C2051 C 0.20532 0.29439 0.51 0.0
C2052 C 0.27233 0.18528 0.49245 0.0
C2053 C 0.26034 0.19778 0.49506 0.0
C2054 C 0.25212 0.2432 0.48768 0.0
C2055 C 0.21383 0.26561 0.50458 0.0
C2056 C 0.22713 0.25291 0.50217 0.0
C2057 C 0.26471 0.21485 0.49388 0.0
C2058 C 0.25192 0.22814 0.49693 0.0
H2059 H 0.17129 0.26887 0.50533 0.0
H2060 H 0.19341 0.24797 0.50149 0.0
H2061 H 0.24025 0.26688 0.48295 0.0
H2062 H 0.30601 0.21014 0.48378 0.0
H2063 H 0.28529 0.23203 0.48899 0.0
C2064 C 0.05882 0.36266 0.1283 0.0
C2065 C 0.05256 0.34736 0.13444 0.0
C2066 C 0.07045 0.36287 0.11519 0.0
C2067 C 0.08499 0.33757 0.07963 0.0
H2068 H 0.12407 0.36652 0.08066 0.0
C2069 C 0.13666 0.33203 0.02995 0.0
C2070 C 0.1436 0.34692 0.02359 0.0
C2071 C 0.12619 0.33238 0.04396 0.0
C2072 C 0.11312 0.35851 0.08009 0.0
H2073 H 0.0537 0.32031 0.13184 0.0
H2074 H 0.07398 0.32069 0.10891 0.0
H2075 H 0.10447 0.36662 0.10424 0.0
H2076 H 0.14531 0.37382 0.02706 0.0
H2077 H 0.1267 0.37452 0.05145 0.0
H2078 H 0.09338 0.3296 0.05547 0.0
C2079 C 0.06981 0.33251 0.11416 0.0
C2080 C 0.10192 0.35855 0.09361 0.0
C2081 C 0.05826 0.33229 0.12733 0.0
C2082 C 0.14014 0.36216 0.03173 0.0
C2083 C 0.12955 0.36253 0.04573 0.0
C2084 C 0.0961 0.3376 0.06611 0.0
C2085 C 0.07596 0.3478 0.10789 0.0
C2086 C 0.0878 0.34799 0.09355 0.0
C2087 C 0.12229 0.34765 0.05188 0.0
C2088 C 0.11037 0.34797 0.06622 0.0
H2089 H 0.05465 0.37447 0.13356 0.0
H2090 H 0.07487 0.37485 0.11053 0.0
H2091 H 0.07405 0.32953 0.07908 0.0
H2092 H 0.13921 0.32007 0.02403 0.0
H2093 H 0.12113 0.32065 0.04857 0.0
C2094 C 0.66595 0.05942 0.1268 0.0
C2095 C 0.65108 0.05215 0.13279 0.0
C2096 C 0.66544 0.07133 0.11393 0.0
C2097 C 0.63814 0.08707 0.07974 0.0
H2098 H 0.6684 0.12515 0.08064 0.0
C2099 C 0.63384 0.14115 0.03168 0.0
C2100 C 0.6491 0.14585 0.02426 0.0
C2101 C 0.63368 0.13052 0.04565 0.0
C2102 C 0.65993 0.11453 0.08019 0.0
H2103 H 0.62401 0.05173 0.13018 0.0
H2104 H 0.62309 0.07272 0.10801 0.0
H2105 H 0.66895 0.10484 0.10353 0.0
H2106 H 0.67616 0.14353 0.02584 0.0
H2107 H 0.67587 0.1251 0.05025 0.0
H2108 H 0.62909 0.09685 0.05642 0.0
C2109 C 0.63518 0.06901 0.11296 0.0
C2110 C 0.66028 0.10286 0.09327 0.0
C2111 C 0.6357 0.05704 0.12573 0.0
C2112 C 0.6642 0.14011 0.0313 0.0
C2113 C 0.66404 0.12962 0.04532 0.0
C2114 C 0.63771 0.09881 0.06674 0.0
C2115 C 0.65004 0.07629 0.10687 0.0
C2116 C 0.64947 0.08892 0.09314 0.0
C2117 C 0.64878 0.12455 0.05252 0.0
C2118 C 0.64868 0.1126 0.06677 0.0
H2119 H 0.67799 0.05585 0.13198 0.0
H2120 H 0.67715 0.07648 0.10937 0.0
H2121 H 0.62982 0.07636 0.07908 0.0
H2122 H 0.62202 0.1454 0.02651 0.0
H2123 H 0.62174 0.12694 0.05104 0.0
C2124 C 0.93596 0.66638 0.12789 0.0
C2125 C 0.9417 0.65127 0.13489 0.0
C2126 C 0.92445 0.66622 0.11469 0.0
C2127 C 0.89261 0.64014 0.09378 0.0
H2128 H 0.90164 0.66882 0.05555 0.0
C2129 C 0.85594 0.63495 0.03131 0.0
C2130 C 0.85234 0.64995 0.02279 0.0
C2131 C 0.86627 0.63507 0.04548 0.0
C2132 C 0.89878 0.66091 0.06621 0.0
H2133 H 0.9397 0.62416 0.13383 0.0
H2134 H 0.91954 0.62388 0.11076 0.0
H2135 H 0.92051 0.66927 0.07953 0.0
H2136 H 0.85631 0.67686 0.02265 0.0
H2137 H 0.87399 0.67713 0.04752 0.0
H2138 H 0.8708 0.63185 0.08049 0.0
C2139 C 0.92389 0.63584 0.11553 0.0
C2140 C 0.90962 0.66116 0.07994 0.0
C2141 C 0.93549 0.636 0.12866 0.0
C2142 C 0.85897 0.66508 0.02888 0.0
C2143 C 0.8692 0.66522 0.04308 0.0
C2144 C 0.88169 0.63996 0.08006 0.0
C2145 C 0.91838 0.65094 0.1083 0.0
C2146 C 0.90666 0.65078 0.09386 0.0
C2147 C 0.87314 0.6502 0.05145 0.0
C2148 C 0.88464 0.65035 0.06611 0.0
H2149 H 0.9405 0.67834 0.13247 0.0
H2150 H 0.92027 0.67806 0.10948 0.0
H2151 H 0.88994 0.63212 0.10442 0.0
H2152 H 0.85102 0.6231 0.02685 0.0
H2153 H 0.8692 0.62325 0.05152 0.0
C2154 C 0.35995 0.85865 0.02857 0.0
C2155 C 0.34507 0.85593 0.01958 0.0
C2156 C 0.36012 0.86956 0.04232 0.0
C2157 C 0.33564 0.90428 0.06155 0.0
H2158 H 0.3625 0.89422 0.10084 0.0
C2159 C 0.3292 0.9404 0.124 0.0
C2160 C 0.34427 0.94584 0.13132 0.0
C2161 C 0.32945 0.92933 0.11041 0.0
C2162 C 0.35503 0.89722 0.08989 0.0
H2163 H 0.31863 0.86213 0.01807 0.0
H2164 H 0.31879 0.88069 0.04224 0.0
H2165 H 0.36268 0.87493 0.07705 0.0
H2166 H 0.37138 0.94384 0.13036 0.0
H2167 H 0.37178 0.92431 0.10674 0.0
H2168 H 0.32775 0.9264 0.0746 0.0
C2169 C 0.33046 0.87484 0.03849 0.0
C2170 C 0.35517 0.88622 0.07624 0.0
C2171 C 0.33033 0.8641 0.02469 0.0
C2172 C 0.35957 0.93988 0.12493 0.0
C2173 C 0.35981 0.92864 0.11149 0.0
C2174 C 0.33536 0.91515 0.07527 0.0
C2175 C 0.34537 0.87784 0.04741 0.0
C2176 C 0.34546 0.8896 0.0619 0.0
C2177 C 0.34476 0.92334 0.10405 0.0
C2178 C 0.34504 0.91173 0.08956 0.0
H2179 H 0.3715 0.85255 0.02486 0.0
H2180 H 0.37188 0.87172 0.04877 0.0
H2181 H 0.32828 0.90749 0.0506 0.0
H2182 H 0.31723 0.94481 0.12869 0.0
H2183 H 0.31766 0.92533 0.10497 0.0
C2184 C 0.05827 0.63757 0.87145 0.0
C2185 C 0.05398 0.6527 0.86348 0.0
C2186 C 0.07011 0.63737 0.88435 0.0
C2187 C 0.08845 0.66405 0.91673 0.0
H2188 H 0.12361 0.63045 0.91826 0.0
C2189 C 0.13965 0.66599 0.96737 0.0
C2190 C 0.14476 0.65068 0.97443 0.0
C2191 C 0.12945 0.66626 0.95316 0.0
C2192 C 0.11375 0.63979 0.91813 0.0
H2193 H 0.05877 0.67946 0.86265 0.0
H2194 H 0.07937 0.67914 0.88538 0.0
H2195 H 0.10403 0.63086 0.89471 0.0
H2196 H 0.14342 0.62364 0.97207 0.0
H2197 H 0.12518 0.62405 0.94746 0.0
H2198 H 0.09776 0.67276 0.94028 0.0
C2199 C 0.07355 0.66745 0.88163 0.0
C2200 C 0.10258 0.64005 0.90462 0.0
C2201 C 0.06182 0.66762 0.8686 0.0
C2202 C 0.1397 0.63562 0.96684 0.0
C2203 C 0.12933 0.63588 0.95269 0.0
C2204 C 0.09949 0.6637 0.93031 0.0
C2205 C 0.07778 0.65233 0.88965 0.0
C2206 C 0.08984 0.65219 0.90379 0.0
C2207 C 0.12394 0.65121 0.94577 0.0
C2208 C 0.11231 0.65158 0.93119 0.0
H2209 H 0.05244 0.62587 0.86774 0.0
H2210 H 0.07303 0.62557 0.89042 0.0
H2211 H 0.07858 0.67338 0.91653 0.0
H2212 H 0.14349 0.67781 0.97287 0.0
H2213 H 0.12587 0.67829 0.94797 0.0
C2214 C 0.3352 0.0656 0.86528 0.0
C2215 C 0.3497 0.05731 0.8597 0.0
C2216 C 0.33627 0.0781 0.87752 0.0
C2217 C 0.36381 0.0932 0.91158 0.0
H2218 H 0.33414 0.13174 0.91055 0.0
C2219 C 0.36529 0.14454 0.96282 0.0
C2220 C 0.34951 0.14854 0.96955 0.0
C2221 C 0.3665 0.13505 0.9481 0.0
C2222 C 0.34249 0.12102 0.91101 0.0
H2223 H 0.37673 0.05585 0.86222 0.0
H2224 H 0.37865 0.07789 0.88337 0.0
H2225 H 0.33411 0.11199 0.88717 0.0
H2226 H 0.32265 0.14628 0.9659 0.0
H2227 H 0.32477 0.12983 0.94025 0.0
H2228 H 0.37205 0.10219 0.93551 0.0
C2229 C 0.36641 0.07452 0.87855 0.0
C2230 C 0.34244 0.10968 0.89765 0.0
C2231 C 0.36532 0.06195 0.86638 0.0
C2232 C 0.33499 0.14336 0.96102 0.0
C2233 C 0.3362 0.13403 0.94627 0.0
C2234 C 0.36392 0.1046 0.92489 0.0
C2235 C 0.35188 0.08267 0.88436 0.0
C2236 C 0.35288 0.09546 0.89791 0.0
C2237 C 0.35196 0.12957 0.93977 0.0
C2238 C 0.35305 0.11847 0.92488 0.0
H2239 H 0.32298 0.06225 0.86039 0.0
H2240 H 0.32479 0.0839 0.88188 0.0
H2241 H 0.37186 0.08228 0.91232 0.0
H2242 H 0.37669 0.14838 0.96913 0.0
H2243 H 0.37881 0.13189 0.94329 0.0
C2244 C 0.86172 0.33189 0.96735 0.0
C2245 C 0.85455 0.34679 0.97344 0.0
C2246 C 0.87231 0.33218 0.95342 0.0
C2247 C 0.90082 0.35957 0.93034 0.0
H2248 H 0.8963 0.32655 0.8949 0.0
C2249 C 0.94104 0.36232 0.87033 0.0
C2250 C 0.94662 0.34709 0.86346 0.0
C2251 C 0.92947 0.36244 0.88347 0.0
C2252 C 0.89789 0.33572 0.90479 0.0
H2253 H 0.8527 0.37366 0.9697 0.0
H2254 H 0.87142 0.3742 0.94535 0.0
H2255 H 0.87647 0.32658 0.91819 0.0
H2256 H 0.94462 0.32003 0.86501 0.0
H2257 H 0.92475 0.32017 0.88829 0.0
H2258 H 0.92244 0.36849 0.91725 0.0
C2259 C 0.86882 0.36231 0.9514 0.0
C2260 C 0.88648 0.33578 0.91808 0.0
C2261 C 0.85806 0.36199 0.96526 0.0
C2262 C 0.94048 0.33196 0.87004 0.0
C2263 C 0.929 0.33206 0.8833 0.0
C2264 C 0.91233 0.35943 0.91713 0.0
C2265 C 0.87608 0.3474 0.94538 0.0
C2266 C 0.88785 0.34768 0.931 0.0
C2267 C 0.92331 0.34732 0.89015 0.0
C2268 C 0.91103 0.34749 0.90419 0.0
H2269 H 0.85923 0.31999 0.9734 0.0
H2270 H 0.87785 0.32053 0.94915 0.0
H2271 H 0.90231 0.36874 0.94026 0.0
H2272 H 0.94547 0.3742 0.86543 0.0
H2273 H 0.92517 0.37442 0.88822 0.0
C2274 C 0.66665 0.86451 0.9719 0.0
C2275 C 0.65197 0.85599 0.97657 0.0
C2276 C 0.66664 0.8754 0.9582 0.0
C2277 C 0.64272 0.88649 0.9199 0.0
H2278 H 0.66902 0.92735 0.92256 0.0
C2279 C 0.63821 0.94007 0.87122 0.0
C2280 C 0.65348 0.94668 0.86541 0.0
C2281 C 0.63794 0.9288 0.88462 0.0
C2282 C 0.66174 0.91591 0.9216 0.0
H2283 H 0.62574 0.85215 0.97061 0.0
H2284 H 0.62557 0.87153 0.94686 0.0
H2285 H 0.66833 0.90824 0.94641 0.0
H2286 H 0.68042 0.94675 0.86906 0.0
H2287 H 0.67991 0.92716 0.89268 0.0
H2288 H 0.63591 0.89444 0.89515 0.0
C2289 C 0.6372 0.86955 0.95359 0.0
C2290 C 0.66136 0.90493 0.93524 0.0
C2291 C 0.63726 0.85852 0.96724 0.0
C2292 C 0.66847 0.94185 0.87329 0.0
C2293 C 0.66818 0.93072 0.88683 0.0
C2294 C 0.64298 0.89757 0.90632 0.0
C2295 C 0.6519 0.87816 0.94893 0.0
C2296 C 0.65194 0.89002 0.93453 0.0
C2297 C 0.65291 0.92407 0.89261 0.0
C2298 C 0.65256 0.91234 0.90701 0.0
H2299 H 0.67823 0.86272 0.97879 0.0
H2300 H 0.67828 0.88152 0.9548 0.0
H2301 H 0.63554 0.87501 0.91881 0.0
H2302 H 0.62646 0.94356 0.86537 0.0
H2303 H 0.62598 0.92398 0.88892 0.0
C2304 C 0.12796 0.05935 0.36233 0.0
C2305 C 0.13398 0.05355 0.34682 0.0
C2306 C 0.11526 0.07141 0.36299 0.0
C2307 C 0.09359 0.10353 0.33711 0.0
H2308 H 0.0584 0.0987 0.37033 0.0
C2309 C 0.03022 0.13783 0.33259 0.0
C2310 C 0.02351 0.14475 0.34734 0.0
C2311 C 0.04459 0.12786 0.33319 0.0
C2312 C 0.06826 0.10035 0.36113 0.0
H2313 H 0.13145 0.05579 0.31985 0.0
H2314 H 0.10901 0.07653 0.32097 0.0
H2315 H 0.08169 0.0789 0.37001 0.0
H2316 H 0.02663 0.1468 0.37427 0.0
H2317 H 0.05178 0.12918 0.37533 0.0
H2318 H 0.07985 0.12474 0.32797 0.0
C2319 C 0.11432 0.07205 0.33264 0.0
C2320 C 0.08163 0.08901 0.36095 0.0
C2321 C 0.1271 0.06008 0.33198 0.0
C2322 C 0.03154 0.14163 0.3627 0.0
C2323 C 0.04586 0.1315 0.36332 0.0
C2324 C 0.08017 0.11479 0.33722 0.0
C2325 C 0.10822 0.07787 0.34816 0.0
C2326 C 0.09438 0.09037 0.34883 0.0
C2327 C 0.05249 0.12447 0.34856 0.0
C2328 C 0.06728 0.11321 0.34914 0.0
H2329 H 0.13311 0.05462 0.37398 0.0
H2330 H 0.11106 0.07578 0.37515 0.0
H2331 H 0.10337 0.10517 0.32782 0.0
H2332 H 0.0243 0.14002 0.32056 0.0
H2333 H 0.04928 0.12247 0.32163 0.0
C2334 C 0.93909 0.12587 0.32951 0.0
C2335 C 0.9454 0.1324 0.3446 0.0
C2336 C 0.92759 0.11263 0.32971 0.0
C2337 C 0.89641 0.09161 0.35641 0.0
H2338 H 0.90306 0.0541 0.32619 0.0
C2339 C 0.8578 0.03019 0.36098 0.0
C2340 C 0.85349 0.02224 0.34587 0.0
C2341 C 0.86858 0.04405 0.36094 0.0
C2342 C 0.90086 0.06457 0.33455 0.0
H2343 H 0.94459 0.13032 0.37172 0.0
H2344 H 0.92448 0.10723 0.37204 0.0
H2345 H 0.92264 0.07753 0.3257 0.0
H2346 H 0.85657 0.02284 0.31885 0.0
H2347 H 0.87496 0.04717 0.31873 0.0
H2348 H 0.87453 0.07874 0.36516 0.0
C2349 C 0.92835 0.11239 0.36008 0.0
C2350 C 0.91211 0.07798 0.33428 0.0
C2351 C 0.93994 0.12552 0.35988 0.0
C2352 C 0.85979 0.02863 0.33072 0.0
C2353 C 0.87043 0.04251 0.33066 0.0
C2354 C 0.88506 0.07823 0.35661 0.0
C2355 C 0.9221 0.10577 0.345 0.0
C2356 C 0.91002 0.09163 0.34521 0.0
C2357 C 0.87515 0.05027 0.34578 0.0
C2358 C 0.88715 0.06455 0.34566 0.0
H2359 H 0.94306 0.13095 0.31756 0.0
H2360 H 0.92286 0.10788 0.31789 0.0
H2361 H 0.89438 0.10206 0.36486 0.0
H2362 H 0.85316 0.02549 0.37285 0.0
H2363 H 0.87208 0.04962 0.37283 0.0
C2364 C 0.87201 0.93949 0.32897 0.0
C2365 C 0.86478 0.9447 0.34417 0.0
C2366 C 0.88545 0.92822 0.32896 0.0
C2367 C 0.90557 0.89535 0.35398 0.0
H2368 H 0.94511 0.90566 0.32764 0.0
C2369 C 0.96684 0.85702 0.35986 0.0
C2370 C 0.97627 0.85443 0.34523 0.0
C2371 C 0.95298 0.86778 0.35969 0.0
C2372 C 0.93408 0.90243 0.33486 0.0
H2373 H 0.86577 0.94209 0.37123 0.0
H2374 H 0.8891 0.92225 0.37117 0.0
H2375 H 0.92121 0.92469 0.32708 0.0
H2376 H 0.97841 0.86068 0.31885 0.0
H2377 H 0.95401 0.87897 0.31838 0.0
H2378 H 0.91824 0.87295 0.36156 0.0
C2379 C 0.88439 0.9269 0.3593 0.0
C2380 C 0.92042 0.91338 0.33457 0.0
C2381 C 0.87111 0.93831 0.35933 0.0
C2382 C 0.97145 0.86255 0.33036 0.0
C2383 C 0.95752 0.87314 0.33014 0.0
C2384 C 0.91917 0.88429 0.35414 0.0
C2385 C 0.89174 0.9218 0.34412 0.0
C2386 C 0.90606 0.90998 0.34417 0.0
C2387 C 0.94818 0.87602 0.34482 0.0
C2388 C 0.93362 0.88771 0.34461 0.0
H2389 H 0.86737 0.94422 0.31711 0.0
H2390 H 0.89082 0.9244 0.31708 0.0
H2391 H 0.89457 0.89235 0.36136 0.0
H2392 H 0.97033 0.85096 0.37151 0.0
H2393 H 0.94624 0.86987 0.37129 0.0
C2394 C 0.14205 0.96473 0.36422 0.0
C2395 C 0.14444 0.97289 0.34879 0.0
C2396 C 0.13252 0.95001 0.36508 0.0
C2397 C 0.11695 0.915 0.33936 0.0
H2398 H 0.08131 0.91209 0.3723 0.0
C2399 C 0.06316 0.86735 0.33342 0.0
C2400 C 0.05655 0.86021 0.34809 0.0
C2401 C 0.07515 0.88008 0.33438 0.0
C2402 C 0.09139 0.91253 0.36321 0.0
H2403 H 0.13898 0.97199 0.32215 0.0
H2404 H 0.12248 0.94631 0.32365 0.0
H2405 H 0.10026 0.9361 0.37261 0.0
H2406 H 0.05754 0.86047 0.37526 0.0
H2407 H 0.07873 0.88248 0.37696 0.0
H2408 H 0.10814 0.89151 0.3299 0.0
C2409 C 0.12799 0.95122 0.33506 0.0
C2410 C 0.10222 0.92631 0.36339 0.0
C2411 C 0.13734 0.96598 0.33423 0.0
C2412 C 0.06236 0.86583 0.36374 0.0
C2413 C 0.07443 0.8785 0.36471 0.0
C2414 C 0.10622 0.90117 0.33926 0.0
C2415 C 0.12541 0.94313 0.35049 0.0
C2416 C 0.11491 0.92782 0.35128 0.0
C2417 C 0.08087 0.88587 0.35004 0.0
C2418 C 0.09311 0.89991 0.35099 0.0
H2419 H 0.14739 0.96979 0.37564 0.0
H2420 H 0.13078 0.94397 0.37713 0.0
H2421 H 0.12681 0.91574 0.33004 0.0
H2422 H 0.05887 0.86331 0.32118 0.0
H2423 H 0.07962 0.88566 0.32283 0.0
C2424 C 0.03307 0.85577 0.63251 0.0
C2425 C 0.0265 0.85105 0.64816 0.0
C2426 C 0.04747 0.86577 0.63161 0.0
C2427 C 0.08419 0.87995 0.65603 0.0
H2428 H 0.08213 0.9194 0.62766 0.0
C2429 C 0.12995 0.93531 0.66385 0.0
C2430 C 0.13546 0.94368 0.64937 0.0
C2431 C 0.11751 0.92302 0.6628 0.0
C2432 C 0.08306 0.90831 0.63544 0.0
H2433 H 0.03007 0.85261 0.67509 0.0
H2434 H 0.05517 0.86994 0.6735 0.0
H2435 H 0.05924 0.89915 0.62709 0.0
H2436 H 0.1325 0.94559 0.62241 0.0
H2437 H 0.11099 0.92393 0.62051 0.0
H2438 H 0.10795 0.8891 0.66447 0.0
C2439 C 0.04928 0.86592 0.66194 0.0
C2440 C 0.06993 0.89671 0.63511 0.0
C2441 C 0.03484 0.85607 0.66284 0.0
C2442 C 0.12841 0.93942 0.6338 0.0
C2443 C 0.11603 0.92706 0.63273 0.0
C2444 C 0.09737 0.89149 0.6563 0.0
C2445 C 0.05563 0.87106 0.64633 0.0
C2446 C 0.07024 0.88254 0.64558 0.0
C2447 C 0.11038 0.91875 0.64722 0.0
C2448 C 0.09685 0.90595 0.6462 0.0
H2449 H 0.02689 0.85207 0.621 0.0
H2450 H 0.05217 0.86945 0.6194 0.0
H2451 H 0.08488 0.86902 0.66408 0.0
H2452 H 0.13513 0.93838 0.67603 0.0
H2453 H 0.11326 0.91708 0.67425 0.0
C2454 C 0.13611 0.03011 0.66509 0.0
C2455 C 0.14405 0.02439 0.65044 0.0
C2456 C 0.12601 0.0444 0.66472 0.0
C2457 C 0.10013 0.06964 0.63655 0.0
H2458 H 0.10276 0.10286 0.67199 0.0
C2459 C 0.05957 0.12964 0.63574 0.0
C2460 C 0.05277 0.13493 0.6511 0.0
C2461 C 0.07157 0.11687 0.63525 0.0
C2462 C 0.10173 0.09361 0.6621 0.0
H2463 H 0.14775 0.02917 0.62393 0.0
H2464 H 0.1299 0.05416 0.62325 0.0
H2465 H 0.12229 0.07931 0.67182 0.0
H2466 H 0.05315 0.13105 0.678 0.0
H2467 H 0.07379 0.1085 0.67717 0.0
H2468 H 0.07932 0.08364 0.62703 0.0
C2469 C 0.13152 0.04754 0.63501 0.0
C2470 C 0.11296 0.08016 0.66197 0.0
C2471 C 0.14178 0.0333 0.63541 0.0
C2472 C 0.05823 0.12727 0.66598 0.0
C2473 C 0.07015 0.11442 0.66549 0.0
C2474 C 0.08881 0.08303 0.63673 0.0
C2475 C 0.1235 0.0532 0.64966 0.0
C2476 C 0.1122 0.06797 0.64927 0.0
C2477 C 0.07695 0.10903 0.65012 0.0
C2478 C 0.08938 0.09512 0.64958 0.0
H2479 H 0.13764 0.0235 0.67686 0.0
H2480 H 0.11985 0.04836 0.67617 0.0
H2481 H 0.09911 0.06032 0.62671 0.0
H2482 H 0.05567 0.13539 0.62406 0.0
H2483 H 0.07672 0.11324 0.62322 0.0
C2484 C 0.96394 0.14295 0.63275 0.0
C2485 C 0.97248 0.14467 0.64807 0.0
C2486 C 0.94926 0.13337 0.63182 0.0
C2487 C 0.91494 0.11663 0.65767 0.0
H2488 H 0.91115 0.08243 0.6233 0.0
C2489 C 0.86727 0.0627 0.66242 0.0
C2490 C 0.85987 0.05662 0.64765 0.0
C2491 C 0.87997 0.07473 0.66167 0.0
C2492 C 0.91183 0.09211 0.6328 0.0
H2493 H 0.9723 0.13795 0.67443 0.0
H2494 H 0.94668 0.12138 0.67282 0.0
H2495 H 0.93517 0.10137 0.62323 0.0
H2496 H 0.8596 0.05866 0.62054 0.0
H2497 H 0.88153 0.07997 0.61923 0.0
H2498 H 0.89166 0.10745 0.6673 0.0
C2499 C 0.95127 0.12744 0.66155 0.0
C2500 C 0.92562 0.10293 0.63276 0.0
C2501 C 0.966 0.13683 0.66244 0.0
C2502 C 0.86516 0.06306 0.63213 0.0
C2503 C 0.87779 0.07519 0.63138 0.0
C2504 C 0.90109 0.10592 0.65764 0.0
C2505 C 0.94278 0.12555 0.64623 0.0
C2506 C 0.92745 0.11509 0.64537 0.0
C2507 C 0.88547 0.08107 0.64614 0.0
C2508 C 0.89951 0.09332 0.64538 0.0
H2509 H 0.96867 0.14887 0.62147 0.0
H2510 H 0.94291 0.13217 0.61987 0.0
H2511 H 0.91592 0.12607 0.6674 0.0
H2512 H 0.86349 0.05791 0.67456 0.0
H2513 H 0.88577 0.07875 0.67328 0.0
C2514 C 0.94047 0.87236 0.66704 0.0
C2515 C 0.94654 0.86555 0.65197 0.0
C2516 C 0.92909 0.88569 0.66679 0.0
C2517 C 0.89718 0.90601 0.64084 0.0
H2518 H 0.90602 0.94516 0.66829 0.0
C2519 C 0.85798 0.96681 0.63508 0.0
C2520 C 0.85494 0.97598 0.6498 0.0
C2521 C 0.86893 0.95309 0.63528 0.0
C2522 C 0.90319 0.93423 0.66074 0.0
H2523 H 0.94531 0.86713 0.62484 0.0
H2524 H 0.92522 0.89028 0.62442 0.0
H2525 H 0.92533 0.92149 0.66906 0.0
H2526 H 0.86053 0.97777 0.67634 0.0
H2527 H 0.8791 0.95358 0.67686 0.0
H2528 H 0.87487 0.91851 0.63276 0.0
C2529 C 0.92931 0.88534 0.6364 0.0
C2530 C 0.9143 0.92071 0.66115 0.0
C2531 C 0.94087 0.87217 0.63665 0.0
C2532 C 0.86277 0.97101 0.66476 0.0
C2533 C 0.87352 0.9572 0.66502 0.0
C2534 C 0.88593 0.91946 0.64058 0.0
C2535 C 0.92339 0.89228 0.65146 0.0
C2536 C 0.91143 0.90649 0.65118 0.0
C2537 C 0.87689 0.94815 0.65026 0.0
C2538 C 0.8888 0.93376 0.65051 0.0
H2539 H 0.94463 0.86749 0.67902 0.0
H2540 H 0.92461 0.89076 0.67857 0.0
H2541 H 0.89461 0.89511 0.63314 0.0
H2542 H 0.85216 0.97042 0.62335 0.0
H2543 H 0.87138 0.94657 0.62362 0.0
C2544 C 0.33058 0.03155 0.13959 0.0
C2545 C 0.34568 0.02367 0.14404 0.0
C2546 C 0.33057 0.04528 0.12873 0.0
C2547 C 0.35806 0.07761 0.10948 0.0
H2548 H 0.32239 0.0796 0.07645 0.0
C2549 C 0.35911 0.1227 0.0527 0.0
C2550 C 0.34421 0.13153 0.04941 0.0
C2551 C 0.35936 0.10978 0.06453 0.0
C2552 C 0.33234 0.07929 0.08569 0.0
H2553 H 0.37266 0.02412 0.1409 0.0
H2554 H 0.37267 0.04789 0.12157 0.0
H2555 H 0.32291 0.05678 0.09675 0.0
H2556 H 0.31787 0.13368 0.05578 0.0
H2557 H 0.31827 0.11092 0.07635 0.0
H2558 H 0.36763 0.09999 0.09807 0.0
C2559 C 0.36083 0.04368 0.1267 0.0
C2560 C 0.33262 0.06625 0.09738 0.0
C2561 C 0.36084 0.03001 0.13773 0.0
C2562 C 0.32953 0.12707 0.05805 0.0
C2563 C 0.32974 0.11402 0.06976 0.0
C2564 C 0.35784 0.09058 0.09767 0.0
C2565 C 0.34566 0.05134 0.1219 0.0
C2566 C 0.34545 0.06527 0.10948 0.0
C2567 C 0.34468 0.10531 0.07318 0.0
C2568 C 0.34495 0.09156 0.0857 0.0
H2569 H 0.3187 0.02701 0.14437 0.0
H2570 H 0.31869 0.05109 0.12563 0.0
H2571 H 0.36799 0.07739 0.11874 0.0
H2572 H 0.37063 0.12588 0.04624 0.0
H2573 H 0.37101 0.10315 0.06678 0.0
C2574 C 0.33182 0.9709 0.86205 0.0
C2575 C 0.34648 0.97553 0.85347 0.0
C2576 C 0.33152 0.95651 0.872 0.0
C2577 C 0.35428 0.91672 0.88032 0.0
H2578 H 0.32926 0.91825 0.92201 0.0
C2579 C 0.35903 0.86637 0.93265 0.0
C2580 C 0.34386 0.86114 0.93992 0.0
C2581 C 0.35928 0.87966 0.92121 0.0
C2582 C 0.33616 0.91758 0.91032 0.0
H2583 H 0.37232 0.96876 0.84853 0.0
H2584 H 0.37199 0.94381 0.86632 0.0
H2585 H 0.33018 0.94293 0.90407 0.0
H2586 H 0.31703 0.86545 0.94072 0.0
H2587 H 0.31749 0.88879 0.92087 0.0
H2588 H 0.36057 0.8914 0.88693 0.0
C2589 C 0.3606 0.9511 0.86508 0.0
C2590 C 0.33666 0.93171 0.9 0.0
C2591 C 0.36084 0.96545 0.85497 0.0
C2592 C 0.32891 0.86923 0.93533 0.0
C2593 C 0.32918 0.88262 0.92404 0.0
C2594 C 0.35391 0.90262 0.89075 0.0
C2595 C 0.34594 0.94649 0.87378 0.0
C2596 C 0.34565 0.93145 0.88482 0.0
C2597 C 0.34439 0.88807 0.917 0.0
C2598 C 0.34478 0.9029 0.90581 0.0
H2599 H 0.32051 0.97836 0.86101 0.0
H2600 H 0.31991 0.95318 0.87821 0.0
H2601 H 0.36113 0.91597 0.86861 0.0
H2602 H 0.37076 0.86034 0.93595 0.0
H2603 H 0.37119 0.88367 0.91605 0.0
C2604 C 0.03124 0.36477 0.85541 0.0
C2605 C 0.02411 0.34943 0.85051 0.0
C2606 C 0.04538 0.36505 0.86579 0.0
C2607 C 0.081 0.33953 0.88026 0.0
H2608 H 0.07941 0.36784 0.91977 0.0
C2609 C 0.12816 0.33223 0.93468 0.0
C2610 C 0.13347 0.3468 0.94302 0.0
C2611 C 0.1154 0.33303 0.92268 0.0
C2612 C 0.08022 0.36006 0.90866 0.0
H2613 H 0.0264 0.32236 0.8522 0.0
H2614 H 0.05115 0.32287 0.87016 0.0
H2615 H 0.05646 0.36871 0.89962 0.0
H2616 H 0.12987 0.37367 0.94515 0.0
H2617 H 0.10794 0.37517 0.92395 0.0
H2618 H 0.10479 0.33093 0.88918 0.0
C2619 C 0.04583 0.33467 0.86601 0.0
C2620 C 0.06704 0.36056 0.89714 0.0
C2621 C 0.03161 0.33439 0.85581 0.0
C2622 C 0.12594 0.36221 0.93901 0.0
C2623 C 0.1133 0.36304 0.92692 0.0
C2624 C 0.09427 0.33914 0.8917 0.0
C2625 C 0.05275 0.34999 0.87126 0.0
C2626 C 0.06722 0.35018 0.88291 0.0
C2627 C 0.10778 0.34845 0.91866 0.0
C2628 C 0.09397 0.34928 0.90614 0.0
H2629 H 0.02571 0.37656 0.85151 0.0
H2630 H 0.05054 0.37705 0.86956 0.0
H2631 H 0.08154 0.33153 0.86928 0.0
H2632 H 0.13371 0.32016 0.93757 0.0
H2633 H 0.11131 0.3215 0.91678 0.0
C2634 C 0.6345 0.12607 0.94119 0.0
C2635 C 0.64976 0.13368 0.94559 0.0
C2636 C 0.63406 0.11324 0.92927 0.0
C2637 C 0.65909 0.09423 0.89489 0.0
H2638 H 0.62917 0.05644 0.90151 0.0
C2639 C 0.66519 0.03188 0.85882 0.0
C2640 C 0.65041 0.0244 0.85284 0.0
C2641 C 0.66447 0.046 0.86913 0.0
C2642 C 0.63743 0.06702 0.89939 0.0
H2643 H 0.67657 0.13374 0.94112 0.0
H2644 H 0.67592 0.11101 0.92066 0.0
H2645 H 0.62939 0.07928 0.92184 0.0
H2646 H 0.62327 0.02591 0.85277 0.0
H2647 H 0.62199 0.0506 0.87104 0.0
H2648 H 0.66742 0.08164 0.87266 0.0
C2649 C 0.6642 0.1152 0.9261 0.0
C2650 C 0.63756 0.08013 0.91102 0.0
C2651 C 0.66461 0.12814 0.93792 0.0
C2652 C 0.63486 0.03144 0.8572 0.0
C2653 C 0.63413 0.04549 0.8677 0.0
C2654 C 0.65905 0.08104 0.88335 0.0
C2655 C 0.64891 0.10762 0.92158 0.0
C2656 C 0.64847 0.09386 0.90898 0.0
C2657 C 0.64894 0.05284 0.87383 0.0
C2658 C 0.6483 0.06726 0.88554 0.0
H2659 H 0.62283 0.13017 0.94682 0.0
H2660 H 0.62204 0.10789 0.92592 0.0
H2661 H 0.6674 0.10475 0.89272 0.0
H2662 H 0.67736 0.02672 0.85565 0.0
H2663 H 0.67608 0.0513 0.8738 0.0
C2664 C 0.9663 0.63439 0.85696 0.0
C2665 C 0.9734 0.64991 0.85262 0.0
C2666 C 0.95215 0.63371 0.86732 0.0
C2667 C 0.91664 0.65889 0.88279 0.0
H2668 H 0.91797 0.62897 0.92112 0.0
C2669 C 0.86965 0.66463 0.93743 0.0
C2670 C 0.86383 0.64976 0.94485 0.0
C2671 C 0.88258 0.66417 0.9256 0.0
C2672 C 0.91725 0.63722 0.91035 0.0
H2673 H 0.97109 0.67689 0.85531 0.0
H2674 H 0.94638 0.67571 0.87325 0.0
H2675 H 0.94088 0.62865 0.90089 0.0
H2676 H 0.86684 0.62274 0.94565 0.0
H2677 H 0.88914 0.62187 0.9248 0.0
H2678 H 0.89301 0.66745 0.89216 0.0
C2679 C 0.95169 0.66408 0.86866 0.0
C2680 C 0.93039 0.63703 0.89877 0.0
C2681 C 0.96589 0.66474 0.85846 0.0
C2682 C 0.87115 0.63442 0.94021 0.0
C2683 C 0.88399 0.63394 0.92832 0.0
C2684 C 0.90343 0.659 0.8943 0.0
C2685 C 0.94478 0.64856 0.87334 0.0
C2686 C 0.9303 0.64798 0.88497 0.0
C2687 C 0.88988 0.6488 0.92087 0.0
C2688 C 0.90366 0.64829 0.90832 0.0
H2689 H 0.97185 0.62276 0.85263 0.0
H2690 H 0.94699 0.62159 0.87064 0.0
H2691 H 0.91615 0.66733 0.87215 0.0
H2692 H 0.86426 0.67664 0.9408 0.0
H2693 H 0.88699 0.67588 0.92033 0.0
C2694 C 0.66568 0.96702 0.13795 0.0
C2695 C 0.6506 0.97332 0.1445 0.0
C2696 C 0.66574 0.95262 0.12803 0.0
C2697 C 0.64029 0.91555 0.11601 0.0
H2698 H 0.67002 0.91533 0.0775 0.0
C2699 C 0.63687 0.86662 0.06226 0.0
C2700 C 0.6522 0.86033 0.05628 0.0
C2701 C 0.63657 0.87964 0.074 0.0
C2702 C 0.66179 0.91513 0.08831 0.0
H2703 H 0.62376 0.96939 0.14603 0.0
H2704 H 0.62376 0.94436 0.12829 0.0
H2705 H 0.66944 0.93963 0.09594 0.0
H2706 H 0.67925 0.86242 0.05816 0.0
H2707 H 0.67873 0.88523 0.0786 0.0
H2708 H 0.63242 0.8911 0.10801 0.0
C2709 C 0.6356 0.9504 0.13107 0.0
C2710 C 0.66147 0.92904 0.09891 0.0
C2711 C 0.63557 0.96478 0.14115 0.0
C2712 C 0.66724 0.86705 0.06251 0.0
C2713 C 0.66695 0.88015 0.07413 0.0
C2714 C 0.64053 0.90166 0.10529 0.0
C2715 C 0.65068 0.94424 0.12426 0.0
C2716 C 0.65079 0.92941 0.11295 0.0
C2717 C 0.65161 0.8867 0.07986 0.0
C2718 C 0.65134 0.90129 0.09138 0.0
H2719 H 0.6775 0.97325 0.14047 0.0
H2720 H 0.67763 0.94803 0.12332 0.0
H2721 H 0.63206 0.91533 0.12681 0.0
H2722 H 0.62508 0.86165 0.0577 0.0
H2723 H 0.62458 0.88452 0.0781 0.0
C2724 C 0.02757 0.66457 0.13589 0.0
C2725 C 0.02136 0.64972 0.14304 0.0
C2726 C 0.04173 0.66424 0.12562 0.0
C2727 C 0.06541 0.6369 0.09768 0.0
H2728 H 0.10071 0.66993 0.10304 0.0
C2729 C 0.12564 0.63511 0.05769 0.0
C2730 C 0.13235 0.6505 0.05237 0.0
C2731 C 0.11255 0.63467 0.0693 0.0
C2732 C 0.09087 0.66075 0.10123 0.0
H2733 H 0.02508 0.62286 0.14514 0.0
H2734 H 0.04982 0.62224 0.12692 0.0
H2735 H 0.07712 0.6697 0.1225 0.0
H2736 H 0.13057 0.67751 0.05487 0.0
H2737 H 0.10736 0.67681 0.07478 0.0
H2738 H 0.07882 0.62821 0.07616 0.0
C2739 C 0.0437 0.63413 0.12932 0.0
C2740 C 0.07741 0.66058 0.11243 0.0
C2741 C 0.02962 0.6345 0.13979 0.0
C2742 C 0.12568 0.66546 0.05881 0.0
C2743 C 0.11246 0.66504 0.07032 0.0
C2744 C 0.07878 0.63717 0.08637 0.0
C2745 C 0.04987 0.64901 0.12214 0.0
C2746 C 0.06451 0.6487 0.11072 0.0
C2747 C 0.10575 0.64962 0.07574 0.0
C2748 C 0.09166 0.64915 0.08796 0.0
H2749 H 0.02147 0.6765 0.1382 0.0
H2750 H 0.04611 0.67586 0.12011 0.0
H2751 H 0.05552 0.62774 0.09595 0.0
H2752 H 0.13063 0.62336 0.05302 0.0
H2753 H 0.1079 0.62258 0.07338 0.0
C2754 C 0.96436 0.364 0.1413 0.0
C2755 C 0.97268 0.34876 0.14431 0.0
C2756 C 0.95005 0.36443 0.13116 0.0
C2757 C 0.91606 0.33802 0.11458 0.0
H2758 H 0.91425 0.37049 0.07843 0.0
C2759 C 0.86873 0.33227 0.06023 0.0
C2760 C 0.86199 0.34706 0.05344 0.0
C2761 C 0.88151 0.33303 0.0722 0.0
C2762 C 0.91438 0.36152 0.08862 0.0
H2763 H 0.97241 0.322 0.13939 0.0
H2764 H 0.94738 0.32274 0.12185 0.0
H2765 H 0.93762 0.37108 0.09813 0.0
H2766 H 0.86305 0.37423 0.05408 0.0
H2767 H 0.88504 0.37558 0.07526 0.0
H2768 H 0.89283 0.32847 0.1052 0.0
C2769 C 0.95189 0.33434 0.12731 0.0
C2770 C 0.9278 0.36185 0.09988 0.0
C2771 C 0.96627 0.33394 0.13727 0.0
C2772 C 0.8681 0.36261 0.05902 0.0
C2773 C 0.88077 0.36338 0.07109 0.0
C2774 C 0.90256 0.33777 0.10342 0.0
C2775 C 0.9437 0.34959 0.12405 0.0
C2776 C 0.92888 0.34998 0.11284 0.0
C2777 C 0.88773 0.3486 0.07776 0.0
C2778 C 0.90165 0.34938 0.09016 0.0
H2779 H 0.96904 0.37562 0.14658 0.0
H2780 H 0.94391 0.37635 0.12892 0.0
H2781 H 0.91648 0.32884 0.1246 0.0
H2782 H 0.86431 0.3201 0.05611 0.0
H2783 H 0.88674 0.32138 0.07684 0.0
C2784 C 0.63735 0.83388 0.53211 0.0
C2785 C 0.6434 0.84887 0.5251 0.0
C2786 C 0.62699 0.83421 0.54621 0.0
C2787 C 0.5967 0.86062 0.56792 0.0
H2788 H 0.60374 0.83005 0.60511 0.0
C2789 C 0.55506 0.86256 0.627 0.0
C2790 C 0.55074 0.84719 0.63445 0.0
C2791 C 0.56703 0.8632 0.61424 0.0
C2792 C 0.60146 0.83853 0.59474 0.0
H2793 H 0.64348 0.87597 0.52738 0.0
H2794 H 0.62509 0.87656 0.55199 0.0
H2795 H 0.62363 0.83048 0.58188 0.0
H2796 H 0.55546 0.82043 0.63436 0.0
H2797 H 0.57601 0.82142 0.61172 0.0
H2798 H 0.57429 0.86835 0.58042 0.0
C2799 C 0.62843 0.86457 0.54655 0.0
C2800 C 0.61291 0.83882 0.58149 0.0
C2801 C 0.639 0.86423 0.53254 0.0
C2802 C 0.5586 0.83246 0.62889 0.0
C2803 C 0.57047 0.83307 0.61599 0.0
C2804 C 0.58515 0.86022 0.58109 0.0
C2805 C 0.62229 0.84956 0.55347 0.0
C2806 C 0.6106 0.84982 0.56792 0.0
C2807 C 0.57484 0.84845 0.6085 0.0
C2808 C 0.58734 0.84911 0.59464 0.0
H2809 H 0.64056 0.82185 0.52664 0.0
H2810 H 0.6223 0.82246 0.55118 0.0
H2811 H 0.5945 0.86906 0.5575 0.0
H2812 H 0.54928 0.87415 0.63113 0.0
H2813 H 0.57027 0.8753 0.609 0.0
C2814 C 0.16631 0.55846 0.62637 0.0
C2815 C 0.15153 0.55097 0.63232 0.0
C2816 C 0.16568 0.57023 0.61339 0.0
C2817 C 0.13826 0.5853 0.57893 0.0
H2818 H 0.16811 0.6237 0.5796 0.0
C2819 C 0.13359 0.63935 0.53075 0.0
C2820 C 0.14883 0.64401 0.52325 0.0
C2821 C 0.13347 0.62869 0.54469 0.0
C2822 C 0.15975 0.613 0.57923 0.0
H2823 H 0.1245 0.55003 0.62951 0.0
H2824 H 0.12335 0.57081 0.60717 0.0
H2825 H 0.16881 0.60361 0.60267 0.0
H2826 H 0.17588 0.64154 0.52464 0.0
H2827 H 0.17566 0.62306 0.54902 0.0
H2828 H 0.12914 0.59483 0.55553 0.0
C2829 C 0.13547 0.56736 0.61222 0.0
C2830 C 0.1602 0.60144 0.59239 0.0
C2831 C 0.13612 0.55551 0.6251 0.0
C2832 C 0.16394 0.63814 0.53015 0.0
C2833 C 0.16383 0.62764 0.54416 0.0
C2834 C 0.13773 0.59694 0.56585 0.0
C2835 C 0.15025 0.57486 0.60617 0.0
C2836 C 0.14954 0.58737 0.59235 0.0
C2837 C 0.1486 0.62267 0.55147 0.0
C2838 C 0.14856 0.61083 0.5658 0.0
H2839 H 0.17837 0.55515 0.63168 0.0
H2840 H 0.17734 0.57554 0.60887 0.0
H2841 H 0.13007 0.57449 0.57834 0.0
H2842 H 0.12176 0.6437 0.52569 0.0
H2843 H 0.12155 0.62515 0.55017 0.0
C2844 C 0.35424 0.13426 0.53385 0.0
C2845 C 0.34962 0.1497 0.52674 0.0
C2846 C 0.3646 0.13378 0.54799 0.0
C2847 C 0.38038 0.1592 0.58329 0.0
H2848 H 0.41919 0.13 0.58077 0.0
C2849 C 0.43646 0.16576 0.62855 0.0
C2850 C 0.44432 0.15099 0.63403 0.0
C2851 C 0.42417 0.16514 0.61606 0.0
C2852 C 0.4083 0.13804 0.58183 0.0
H2853 H 0.35165 0.17673 0.52916 0.0
H2854 H 0.36962 0.17588 0.55388 0.0
H2855 H 0.39833 0.12934 0.55847 0.0
H2856 H 0.44539 0.12398 0.63094 0.0
H2857 H 0.42375 0.12285 0.60944 0.0
H2858 H 0.3903 0.16791 0.60665 0.0
C2859 C 0.36525 0.16416 0.54856 0.0
C2860 C 0.39635 0.13765 0.56903 0.0
C2861 C 0.35504 0.16464 0.53436 0.0
C2862 C 0.43963 0.1356 0.62686 0.0
C2863 C 0.42728 0.13496 0.61448 0.0
C2864 C 0.39227 0.15951 0.59615 0.0
C2865 C 0.37036 0.14873 0.55536 0.0
C2866 C 0.38235 0.14834 0.56955 0.0
C2867 C 0.41941 0.14973 0.60889 0.0
C2868 C 0.40646 0.14905 0.5955 0.0
H2869 H 0.35023 0.12255 0.52823 0.0
H2870 H 0.36823 0.12171 0.55309 0.0
H2871 H 0.36961 0.16745 0.58408 0.0
H2872 H 0.43986 0.1778 0.63384 0.0
H2873 H 0.41856 0.17679 0.61188 0.0
C2874 C 0.86427 0.35436 0.53374 0.0
C2875 C 0.84902 0.35258 0.52511 0.0
C2876 C 0.86503 0.36375 0.54855 0.0
C2877 C 0.83885 0.37997 0.58293 0.0
H2878 H 0.87293 0.41439 0.58713 0.0
C2879 C 0.83341 0.43382 0.63066 0.0
C2880 C 0.8481 0.44001 0.63814 0.0
C2881 C 0.83432 0.42174 0.61801 0.0
C2882 C 0.86351 0.40464 0.58634 0.0
H2883 H 0.82258 0.35898 0.52528 0.0
H2884 H 0.8239 0.37523 0.55113 0.0
H2885 H 0.87329 0.39561 0.56299 0.0
H2886 H 0.87521 0.43809 0.63864 0.0
H2887 H 0.87679 0.41671 0.6168 0.0
H2888 H 0.82901 0.38896 0.60621 0.0
C2889 C 0.83524 0.36936 0.54651 0.0
C2890 C 0.86371 0.39391 0.57248 0.0
C2891 C 0.83452 0.36016 0.53165 0.0
C2892 C 0.86368 0.43361 0.63301 0.0
C2893 C 0.86459 0.42143 0.62043 0.0
C2894 C 0.83872 0.3906 0.59685 0.0
C2895 C 0.85051 0.37132 0.55508 0.0
C2896 C 0.85121 0.38167 0.5705 0.0
C2897 C 0.84992 0.41548 0.61265 0.0
C2898 C 0.85086 0.40327 0.59857 0.0
H2899 H 0.87564 0.34864 0.52897 0.0
H2900 H 0.87694 0.36501 0.55496 0.0
H2901 H 0.8292 0.37046 0.58184 0.0
H2902 H 0.82123 0.43858 0.63433 0.0
H2903 H 0.82278 0.41764 0.61213 0.0
C2904 C 0.55751 0.1369 0.37251 0.0
C2905 C 0.55336 0.15192 0.36426 0.0
C2906 C 0.56946 0.13681 0.38531 0.0
C2907 C 0.58862 0.1639 0.4169 0.0
H2908 H 0.62317 0.12969 0.41876 0.0
C2909 C 0.64051 0.1659 0.46689 0.0
C2910 C 0.64537 0.15063 0.47421 0.0
C2911 C 0.63013 0.16608 0.4528 0.0
C2912 C 0.61349 0.13921 0.41854 0.0
H2913 H 0.5585 0.17859 0.36285 0.0
H2914 H 0.5793 0.17845 0.3854 0.0
H2915 H 0.60331 0.12994 0.39544 0.0
H2916 H 0.64338 0.12358 0.47246 0.0
H2917 H 0.62486 0.12387 0.44808 0.0
H2918 H 0.5984 0.17295 0.44013 0.0
C2919 C 0.57328 0.16677 0.38194 0.0
C2920 C 0.60216 0.13938 0.40516 0.0
C2921 C 0.56144 0.16684 0.36902 0.0
C2922 C 0.63987 0.13553 0.46703 0.0
C2923 C 0.62933 0.13571 0.453 0.0
C2924 C 0.59983 0.16364 0.43035 0.0
C2925 C 0.57738 0.15176 0.39023 0.0
C2926 C 0.58962 0.15172 0.40421 0.0
C2927 C 0.62421 0.15101 0.4458 0.0
C2928 C 0.61242 0.15131 0.43134 0.0
H2929 H 0.5515 0.12521 0.36908 0.0
H2930 H 0.57227 0.12509 0.39159 0.0
H2931 H 0.57892 0.17341 0.41662 0.0
H2932 H 0.64469 0.17774 0.47208 0.0
H2933 H 0.62675 0.17808 0.44739 0.0
C2934 C 0.86157 0.55686 0.37075 0.0
C2935 C 0.84614 0.55219 0.36365 0.0
C2936 C 0.86225 0.56899 0.38337 0.0
C2937 C 0.83767 0.60359 0.4024 0.0
H2938 H 0.86799 0.59719 0.43991 0.0
C2939 C 0.83212 0.64008 0.4645 0.0
C2940 C 0.84695 0.64564 0.47223 0.0
C2941 C 0.83277 0.6299 0.45029 0.0
C2942 C 0.85963 0.59927 0.42939 0.0
H2943 H 0.81931 0.55645 0.36424 0.0
H2944 H 0.82042 0.57736 0.38656 0.0
H2945 H 0.86744 0.57667 0.41725 0.0
H2946 H 0.87409 0.64519 0.47096 0.0
H2947 H 0.87525 0.62722 0.44606 0.0
H2948 H 0.82959 0.626 0.41483 0.0
C2949 C 0.83205 0.57191 0.38215 0.0
C2950 C 0.8593 0.58751 0.4164 0.0
C2951 C 0.83138 0.55983 0.36945 0.0
C2952 C 0.86247 0.64108 0.46526 0.0
C2953 C 0.86313 0.63074 0.45108 0.0
C2954 C 0.83792 0.61528 0.41545 0.0
C2955 C 0.8475 0.57666 0.38924 0.0
C2956 C 0.84822 0.58945 0.40281 0.0
C2957 C 0.84827 0.62494 0.44355 0.0
C2958 C 0.84881 0.61317 0.42915 0.0
H2959 H 0.87318 0.55125 0.36644 0.0
H2960 H 0.87438 0.5725 0.38836 0.0
H2961 H 0.82922 0.60565 0.39197 0.0
H2962 H 0.81997 0.6434 0.46959 0.0
H2963 H 0.82112 0.62549 0.44487 0.0
C2964 C 0.3591 0.83244 0.46553 0.0
C2965 C 0.35209 0.84727 0.47198 0.0
C2966 C 0.36924 0.83286 0.45127 0.0
C2967 C 0.39709 0.86056 0.42774 0.0
H2968 H 0.39258 0.82722 0.39261 0.0
C2969 C 0.43842 0.86214 0.36839 0.0
C2970 C 0.44423 0.84671 0.36217 0.0
C2971 C 0.42631 0.86264 0.38103 0.0
C2972 C 0.39414 0.8365 0.40239 0.0
H2973 H 0.35004 0.87416 0.46848 0.0
H2974 H 0.36797 0.87493 0.44355 0.0
H2975 H 0.37283 0.82737 0.41597 0.0
H2976 H 0.44193 0.8197 0.36428 0.0
H2977 H 0.4211 0.82053 0.38666 0.0
H2978 H 0.41864 0.86943 0.41451 0.0
C2979 C 0.36559 0.86299 0.44958 0.0
C2980 C 0.38278 0.83663 0.41573 0.0
C2981 C 0.35528 0.86253 0.46378 0.0
C2982 C 0.43764 0.83178 0.36879 0.0
C2983 C 0.42561 0.83228 0.38154 0.0
C2984 C 0.40854 0.86036 0.41448 0.0
C2985 C 0.37272 0.84815 0.44323 0.0
C2986 C 0.3842 0.84859 0.4286 0.0
C2987 C 0.41981 0.84772 0.38785 0.0
C2988 C 0.40728 0.84826 0.40169 0.0
H2989 H 0.35685 0.82048 0.47158 0.0
H2990 H 0.3747 0.82126 0.44677 0.0
H2991 H 0.39863 0.86978 0.4376 0.0
H2992 H 0.4432 0.87386 0.36344 0.0
H2993 H 0.42194 0.87476 0.38537 0.0
C2994 C 0.13454 0.44047 0.3698 0.0
C2995 C 0.15001 0.44487 0.36263 0.0
C2996 C 0.13366 0.42814 0.3822 0.0
C2997 C 0.15747 0.39254 0.40032 0.0
H2998 H 0.12788 0.39923 0.43835 0.0
C2999 C 0.16272 0.35509 0.46191 0.0
C3000 C 0.14783 0.35011 0.4699 0.0
C3001 C 0.16219 0.3653 0.4477 0.0
C3002 C 0.13602 0.39706 0.42768 0.0
H3003 H 0.17673 0.43992 0.36287 0.0
H3004 H 0.1753 0.41862 0.38482 0.0
H3005 H 0.12874 0.4201 0.41604 0.0
H3006 H 0.1207 0.35151 0.46906 0.0
H3007 H 0.11977 0.36949 0.44418 0.0
H3008 H 0.16502 0.36968 0.41225 0.0
C3009 C 0.16377 0.42446 0.38063 0.0
C3010 C 0.13652 0.40903 0.41489 0.0
C3011 C 0.16463 0.43675 0.36816 0.0
C3012 C 0.13236 0.35517 0.46315 0.0
C3013 C 0.13184 0.36552 0.44899 0.0
C3014 C 0.15702 0.38063 0.41316 0.0
C3015 C 0.14827 0.41998 0.38778 0.0
C3016 C 0.14735 0.40698 0.40112 0.0
C3017 C 0.14677 0.37085 0.44125 0.0
C3018 C 0.14639 0.38284 0.42704 0.0
H3019 H 0.12304 0.44645 0.36571 0.0
H3020 H 0.1215 0.42484 0.38726 0.0
H3021 H 0.16571 0.39041 0.38974 0.0
H3022 H 0.17482 0.35136 0.46682 0.0
H3023 H 0.1739 0.36933 0.44212 0.0
C3024 C 0.63235 0.56601 0.8316 0.0
C3025 C 0.638 0.55878 0.84663 0.0
C3026 C 0.61975 0.57818 0.83179 0.0
C3027 C 0.59773 0.60849 0.85913 0.0
H3028 H 0.56183 0.60333 0.82675 0.0
C3029 C 0.53459 0.64432 0.86355 0.0
C3030 C 0.52714 0.64948 0.84844 0.0
C3031 C 0.5491 0.63444 0.86336 0.0
C3032 C 0.57187 0.60513 0.83572 0.0
H3033 H 0.63521 0.55888 0.87369 0.0
H3034 H 0.61312 0.58009 0.87402 0.0
H3035 H 0.58544 0.58404 0.82624 0.0
H3036 H 0.52937 0.64898 0.82134 0.0
H3037 H 0.55478 0.63208 0.821 0.0
H3038 H 0.58405 0.62957 0.86866 0.0
C3039 C 0.61851 0.57644 0.8621 0.0
C3040 C 0.58541 0.59405 0.83543 0.0
C3041 C 0.63109 0.56423 0.8619 0.0
C3042 C 0.53475 0.64507 0.83319 0.0
C3043 C 0.54926 0.63529 0.83299 0.0
C3044 C 0.58418 0.61963 0.85939 0.0
C3045 C 0.61257 0.5834 0.84703 0.0
C3046 C 0.59847 0.59557 0.84715 0.0
C3047 C 0.55644 0.62959 0.84805 0.0
C3048 C 0.57108 0.61806 0.84769 0.0
H3049 H 0.63751 0.56211 0.81965 0.0
H3050 H 0.61558 0.58348 0.82 0.0
H3051 H 0.6077 0.61007 0.86822 0.0
H3052 H 0.52896 0.64752 0.87549 0.0
H3053 H 0.55423 0.63015 0.87518 0.0
C3054 C 0.43728 0.63033 0.83255 0.0
C3055 C 0.44697 0.63373 0.84687 0.0
C3056 C 0.42551 0.61734 0.8327 0.0
C3057 C 0.39928 0.59216 0.86082 0.0
H3058 H 0.39853 0.56028 0.82412 0.0
C3059 C 0.35966 0.53128 0.86271 0.0
C3060 C 0.35284 0.52548 0.84755 0.0
C3061 C 0.37052 0.54507 0.86284 0.0
C3062 C 0.39834 0.56922 0.83434 0.0
H3063 H 0.45188 0.62634 0.87258 0.0
H3064 H 0.43117 0.60374 0.87287 0.0
H3065 H 0.41866 0.58323 0.82376 0.0
H3066 H 0.35136 0.52995 0.82077 0.0
H3067 H 0.36975 0.55428 0.82104 0.0
H3068 H 0.3788 0.57836 0.8713 0.0
C3069 C 0.4327 0.61112 0.86156 0.0
C3070 C 0.40994 0.58233 0.83414 0.0
C3071 C 0.44461 0.62396 0.86135 0.0
C3072 C 0.35657 0.53405 0.83263 0.0
C3073 C 0.36723 0.54793 0.83278 0.0
C3074 C 0.38753 0.57914 0.86093 0.0
C3075 C 0.42305 0.60766 0.84723 0.0
C3076 C 0.41057 0.5939 0.84739 0.0
C3077 C 0.37462 0.55343 0.84783 0.0
C3078 C 0.38693 0.56748 0.8477 0.0
H3079 H 0.43882 0.63768 0.82123 0.0
H3080 H 0.41815 0.61501 0.82152 0.0
H3081 H 0.39939 0.60103 0.87111 0.0
H3082 H 0.35704 0.52484 0.87438 0.0
H3083 H 0.37609 0.54883 0.87464 0.0
C3084 C 0.37286 0.4417 0.86007 0.0
C3085 C 0.36606 0.44736 0.84482 0.0
C3086 C 0.38614 0.43028 0.86017 0.0
C3087 C 0.4212 0.41526 0.83476 0.0
H3088 H 0.41993 0.37635 0.86396 0.0
C3089 C 0.47105 0.3634 0.83037 0.0
C3090 C 0.47675 0.35609 0.84535 0.0
C3091 C 0.45726 0.37417 0.83042 0.0
C3092 C 0.4206 0.38727 0.8559 0.0
H3093 H 0.36781 0.4456 0.81775 0.0
H3094 H 0.39122 0.42575 0.81793 0.0
H3095 H 0.39645 0.396 0.86383 0.0
H3096 H 0.47247 0.35422 0.87212 0.0
H3097 H 0.44858 0.37341 0.87231 0.0
H3098 H 0.44543 0.40684 0.82705 0.0
C3099 C 0.38624 0.43016 0.82978 0.0
C3100 C 0.40712 0.39848 0.85579 0.0
C3101 C 0.37282 0.44145 0.82968 0.0
C3102 C 0.4683 0.35964 0.86038 0.0
C3103 C 0.45456 0.37057 0.86046 0.0
C3104 C 0.43474 0.40416 0.83498 0.0
C3105 C 0.393 0.42445 0.84503 0.0
C3106 C 0.40727 0.41254 0.84517 0.0
C3107 C 0.44893 0.37804 0.84547 0.0
C3108 C 0.43458 0.38997 0.84548 0.0
H3109 H 0.36788 0.44603 0.87194 0.0
H3110 H 0.39122 0.4262 0.8721 0.0
H3111 H 0.42175 0.42614 0.82664 0.0
H3112 H 0.47723 0.36078 0.81856 0.0
H3113 H 0.45308 0.37939 0.81859 0.0
C3114 C 0.56019 0.37152 0.82943 0.0
C3115 C 0.55606 0.36313 0.84436 0.0
C3116 C 0.57136 0.38501 0.82965 0.0
C3117 C 0.60536 0.40447 0.85365 0.0
H3118 H 0.59135 0.44534 0.83131 0.0
C3119 C 0.64197 0.46676 0.86043 0.0
C3120 C 0.64295 0.47717 0.84626 0.0
C3121 C 0.63166 0.45257 0.86031 0.0
C3122 C 0.59561 0.43397 0.83739 0.0
H3123 H 0.56071 0.36191 0.87113 0.0
H3124 H 0.58044 0.38539 0.87146 0.0
H3125 H 0.57329 0.42074 0.83052 0.0
H3126 H 0.63428 0.48074 0.82074 0.0
H3127 H 0.61675 0.45579 0.82031 0.0
H3128 H 0.62783 0.41755 0.86028 0.0
C3129 C 0.57498 0.38155 0.85962 0.0
C3130 C 0.58522 0.4199 0.83697 0.0
C3131 C 0.56365 0.36818 0.85944 0.0
C3132 C 0.63364 0.47303 0.83191 0.0
C3133 C 0.6235 0.45876 0.83171 0.0
C3134 C 0.61588 0.4185 0.85392 0.0
C3135 C 0.57876 0.39023 0.84477 0.0
C3136 C 0.58998 0.40502 0.8451 0.0
C3137 C 0.62227 0.44841 0.84595 0.0
C3138 C 0.61113 0.43344 0.84578 0.0
H3139 H 0.55454 0.36788 0.81762 0.0
H3140 H 0.5742 0.39139 0.81799 0.0
H3141 H 0.60938 0.39309 0.85991 0.0
H3142 H 0.64898 0.46971 0.87169 0.0
H3143 H 0.63086 0.44502 0.87158 0.0
C3144 C 0.53243 0.3557 0.13443 0.0
C3145 C 0.52566 0.35108 0.15003 0.0
C3146 C 0.54658 0.36604 0.13363 0.0
C3147 C 0.58245 0.38161 0.1585 0.0
H3148 H 0.58009 0.42026 0.12907 0.0
C3149 C 0.628 0.43747 0.16471 0.0
C3150 C 0.63362 0.44516 0.1499 0.0
C3151 C 0.61541 0.42527 0.16414 0.0
C3152 C 0.58109 0.40941 0.13717 0.0
H3153 H 0.52867 0.35317 0.17698 0.0
H3154 H 0.55336 0.37109 0.17559 0.0
H3155 H 0.55758 0.39958 0.1287 0.0
H3156 H 0.63063 0.44603 0.12288 0.0
H3157 H 0.60891 0.42457 0.12185 0.0
H3158 H 0.60592 0.39141 0.16702 0.0
C3159 C 0.5478 0.36673 0.16398 0.0
C3160 C 0.56818 0.39756 0.13695 0.0
C3161 C 0.5336 0.35654 0.16478 0.0
C3162 C 0.62647 0.44039 0.13452 0.0
C3163 C 0.61396 0.42815 0.13394 0.0
C3164 C 0.5954 0.3934 0.15866 0.0
C3165 C 0.55431 0.37179 0.14842 0.0
C3166 C 0.56863 0.38364 0.14774 0.0
C3167 C 0.60826 0.42044 0.14874 0.0
C3168 C 0.59479 0.40755 0.14813 0.0
H3169 H 0.52656 0.35166 0.12286 0.0
H3170 H 0.55143 0.36963 0.12146 0.0
H3171 H 0.58323 0.37089 0.16681 0.0
H3172 H 0.63326 0.44093 0.17675 0.0
H3173 H 0.61114 0.41979 0.17581 0.0
C3174 C 0.63885 0.53127 0.13354 0.0
C3175 C 0.64325 0.52375 0.14886 0.0
C3176 C 0.62805 0.54511 0.13323 0.0
C3177 C 0.61178 0.57957 0.15918 0.0
H3178 H 0.57365 0.57851 0.12902 0.0
C3179 C 0.55749 0.62707 0.16483 0.0
C3180 C 0.55007 0.63288 0.14996 0.0
C3181 C 0.56914 0.61397 0.16441 0.0
C3182 C 0.58436 0.57916 0.13735 0.0
H3183 H 0.64015 0.525 0.17585 0.0
H3184 H 0.62149 0.54925 0.17531 0.0
H3185 H 0.59405 0.55573 0.12843 0.0
H3186 H 0.54908 0.62966 0.12297 0.0
H3187 H 0.56969 0.60714 0.12216 0.0
H3188 H 0.60229 0.60306 0.168 0.0
C3189 C 0.62635 0.54446 0.16356 0.0
C3190 C 0.59603 0.56608 0.13701 0.0
C3191 C 0.63696 0.53053 0.16386 0.0
C3192 C 0.55452 0.62536 0.13466 0.0
C3193 C 0.56627 0.61238 0.13421 0.0
C3194 C 0.60021 0.59274 0.15941 0.0
C3195 C 0.62166 0.55179 0.14825 0.0
C3196 C 0.60977 0.56609 0.14801 0.0
C3197 C 0.57375 0.6065 0.14908 0.0
C3198 C 0.58627 0.59264 0.14859 0.0
H3199 H 0.6435 0.52629 0.12179 0.0
H3200 H 0.62472 0.5506 0.12126 0.0
H3201 H 0.62237 0.57998 0.16768 0.0
H3202 H 0.55425 0.6326 0.17681 0.0
H3203 H 0.5744 0.60959 0.17614 0.0
C3204 C 0.46328 0.64427 0.13316 0.0
C3205 C 0.47117 0.64775 0.14852 0.0
C3206 C 0.44875 0.63446 0.13268 0.0
C3207 C 0.41394 0.61868 0.15885 0.0
H3208 H 0.41263 0.58224 0.12666 0.0
C3209 C 0.36735 0.56362 0.16446 0.0
C3210 C 0.36066 0.55686 0.14965 0.0
C3211 C 0.37988 0.57585 0.16377 0.0
C3212 C 0.41264 0.59251 0.13555 0.0
H3213 H 0.46987 0.64408 0.17544 0.0
H3214 H 0.44453 0.627 0.17461 0.0
H3215 H 0.436 0.60191 0.12627 0.0
H3216 H 0.36152 0.55784 0.12248 0.0
H3217 H 0.38317 0.5794 0.12124 0.0
H3218 H 0.39062 0.60926 0.1682 0.0
C3219 C 0.44949 0.6319 0.16295 0.0
C3220 C 0.42605 0.60378 0.13533 0.0
C3221 C 0.46406 0.6416 0.16341 0.0
C3222 C 0.36652 0.56276 0.13412 0.0
C3223 C 0.37899 0.57504 0.13341 0.0
C3224 C 0.40048 0.60747 0.15902 0.0
C3225 C 0.44178 0.62807 0.14757 0.0
C3226 C 0.42694 0.61686 0.1471 0.0
C3227 C 0.38593 0.58164 0.14823 0.0
C3228 C 0.39976 0.59413 0.1475 0.0
H3229 H 0.46848 0.64887 0.12148 0.0
H3230 H 0.44298 0.63183 0.12067 0.0
H3231 H 0.41419 0.62878 0.16793 0.0
H3232 H 0.36309 0.55928 0.17661 0.0
H3233 H 0.3851 0.58048 0.17542 0.0
C3234 C 0.44092 0.37194 0.13766 0.0
C3235 C 0.44606 0.36499 0.15302 0.0
C3236 C 0.42952 0.38525 0.1373 0.0
C3237 C 0.41419 0.4203 0.16236 0.0
H3238 H 0.37571 0.41935 0.13263 0.0
C3239 C 0.36295 0.47087 0.16588 0.0
C3240 C 0.35564 0.47638 0.15085 0.0
C3241 C 0.37361 0.457 0.16602 0.0
C3242 C 0.38651 0.41994 0.14083 0.0
H3243 H 0.44335 0.36646 0.18003 0.0
H3244 H 0.42359 0.38993 0.17941 0.0
H3245 H 0.39515 0.39569 0.13304 0.0
H3246 H 0.35369 0.47174 0.12415 0.0
H3247 H 0.37277 0.44776 0.12424 0.0
H3248 H 0.40595 0.44465 0.16989 0.0
C3249 C 0.42837 0.38504 0.16767 0.0
C3250 C 0.39759 0.40635 0.14111 0.0
C3251 C 0.4396 0.37159 0.16802 0.0
C3252 C 0.35912 0.4677 0.13593 0.0
C3253 C 0.36997 0.45391 0.13603 0.0
C3254 C 0.40324 0.43397 0.16195 0.0
C3255 C 0.42322 0.39199 0.15231 0.0
C3256 C 0.41148 0.40638 0.15194 0.0
C3257 C 0.37741 0.44842 0.15108 0.0
C3258 C 0.3892 0.43393 0.15125 0.0
H3259 H 0.44568 0.36708 0.1259 0.0
H3260 H 0.42585 0.39046 0.1253 0.0
H3261 H 0.42495 0.42074 0.17065 0.0
H3262 H 0.36037 0.47724 0.17761 0.0
H3263 H 0.37878 0.45294 0.17791 0.0
C3264 C 0.83108 0.52519 0.63326 0.0
C3265 C 0.84566 0.52097 0.6422 0.0
C3266 C 0.83093 0.53902 0.62252 0.0
C3267 C 0.85822 0.56505 0.59675 0.0
H3268 H 0.82182 0.59728 0.59848 0.0
C3269 C 0.85918 0.62553 0.55716 0.0
C3270 C 0.84393 0.63132 0.55052 0.0
C3271 C 0.85943 0.61227 0.5686 0.0
C3272 C 0.83196 0.58828 0.59764 0.0
H3273 H 0.87152 0.52786 0.64696 0.0
H3274 H 0.87134 0.55197 0.62791 0.0
H3275 H 0.8222 0.57377 0.61805 0.0
H3276 H 0.81701 0.6277 0.55044 0.0
H3277 H 0.81743 0.60416 0.56998 0.0
H3278 H 0.8678 0.57917 0.57608 0.0
C3279 C 0.86003 0.54456 0.62929 0.0
C3280 C 0.8322 0.57487 0.60892 0.0
C3281 C 0.86011 0.53084 0.64022 0.0
C3282 C 0.82893 0.62353 0.55544 0.0
C3283 C 0.82919 0.61012 0.56673 0.0
C3284 C 0.85789 0.57834 0.58533 0.0
C3285 C 0.84543 0.54877 0.62035 0.0
C3286 C 0.84534 0.56315 0.60859 0.0
C3287 C 0.84445 0.60435 0.57351 0.0
C3288 C 0.84476 0.59015 0.58563 0.0
H3289 H 0.81975 0.5178 0.63455 0.0
H3290 H 0.81956 0.54191 0.61566 0.0
H3291 H 0.86838 0.55605 0.59609 0.0
H3292 H 0.87093 0.63139 0.55368 0.0
H3293 H 0.87138 0.6084 0.57376 0.0
C3294 C 0.8615 0.46509 0.35593 0.0
C3295 C 0.84642 0.47374 0.35305 0.0
C3296 C 0.8618 0.45101 0.3664 0.0
C3297 C 0.83481 0.41827 0.38476 0.0
H3298 H 0.86921 0.41564 0.41903 0.0
C3299 C 0.83103 0.37104 0.43948 0.0
C3300 C 0.84601 0.36363 0.44503 0.0
C3301 C 0.83136 0.38399 0.42767 0.0
C3302 C 0.85966 0.41602 0.40938 0.0
H3303 H 0.8198 0.47429 0.35861 0.0
H3304 H 0.82032 0.4497 0.3768 0.0
H3305 H 0.86948 0.43881 0.39907 0.0
H3306 H 0.87307 0.36378 0.44241 0.0
H3307 H 0.87365 0.38612 0.42155 0.0
H3308 H 0.82501 0.39548 0.39497 0.0
C3309 C 0.83189 0.45374 0.37093 0.0
C3310 C 0.85982 0.42932 0.39796 0.0
C3311 C 0.83161 0.46788 0.36059 0.0
C3312 C 0.86132 0.36933 0.43844 0.0
C3313 C 0.86165 0.3822 0.42655 0.0
C3314 C 0.83471 0.40491 0.39611 0.0
C3315 C 0.847 0.44524 0.37405 0.0
C3316 C 0.84731 0.43066 0.38562 0.0
C3317 C 0.84668 0.38974 0.42106 0.0
C3318 C 0.84706 0.40369 0.40865 0.0
H3319 H 0.87309 0.46933 0.35027 0.0
H3320 H 0.8736 0.44461 0.36847 0.0
H3321 H 0.82513 0.41886 0.37524 0.0
H3322 H 0.81905 0.36694 0.4444 0.0
H3323 H 0.81961 0.38968 0.42393 0.0
C3324 C 0.53278 0.86395 0.35618 0.0
C3325 C 0.52463 0.84861 0.35324 0.0
C3326 C 0.54702 0.86461 0.36642 0.0
C3327 C 0.58106 0.83852 0.38354 0.0
H3328 H 0.58265 0.87161 0.41914 0.0
C3329 C 0.62798 0.83359 0.43828 0.0
C3330 C 0.63481 0.84846 0.44478 0.0
C3331 C 0.61523 0.83419 0.42626 0.0
C3332 C 0.58258 0.86246 0.40911 0.0
H3333 H 0.52511 0.8219 0.35844 0.0
H3334 H 0.54998 0.82303 0.37616 0.0
H3335 H 0.55939 0.87186 0.3993 0.0
H3336 H 0.63391 0.87562 0.44361 0.0
H3337 H 0.61195 0.87669 0.42237 0.0
H3338 H 0.60423 0.82912 0.39324 0.0
C3339 C 0.54542 0.83454 0.37055 0.0
C3340 C 0.56922 0.8626 0.39776 0.0
C3341 C 0.53112 0.83391 0.36048 0.0
C3342 C 0.6288 0.86394 0.4389 0.0
C3343 C 0.61614 0.86455 0.42679 0.0
C3344 C 0.59448 0.83846 0.3948 0.0
C3345 C 0.55346 0.84989 0.37372 0.0
C3346 C 0.56822 0.8505 0.385 0.0
C3347 C 0.60913 0.84968 0.42038 0.0
C3348 C 0.5953 0.85029 0.40786 0.0
H3349 H 0.52803 0.87547 0.35075 0.0
H3350 H 0.55304 0.87659 0.36857 0.0
H3351 H 0.58072 0.82918 0.37368 0.0
H3352 H 0.63232 0.82147 0.44264 0.0
H3353 H 0.60995 0.82249 0.42183 0.0
C3354 C 0.16595 0.62662 0.4391 0.0
C3355 C 0.15082 0.63299 0.44545 0.0
C3356 C 0.16586 0.6135 0.42744 0.0
C3357 C 0.13862 0.57959 0.41078 0.0
H3358 H 0.17109 0.57892 0.37458 0.0
C3359 C 0.13552 0.53168 0.35646 0.0
C3360 C 0.15067 0.52352 0.35271 0.0
C3361 C 0.13535 0.54557 0.36719 0.0
C3362 C 0.162 0.57892 0.38467 0.0
H3363 H 0.12373 0.63084 0.44445 0.0
H3364 H 0.12354 0.60833 0.42385 0.0
H3365 H 0.1712 0.6021 0.39456 0.0
H3366 H 0.17755 0.52366 0.35689 0.0
H3367 H 0.17725 0.54797 0.37548 0.0
H3368 H 0.12934 0.55647 0.40072 0.0
C3369 C 0.13551 0.61311 0.42812 0.0
C3370 C 0.1621 0.59215 0.39618 0.0
C3371 C 0.13561 0.6261 0.43987 0.0
C3372 C 0.16567 0.5297 0.35957 0.0
C3373 C 0.16553 0.54366 0.37014 0.0
C3374 C 0.13843 0.56645 0.39919 0.0
C3375 C 0.15063 0.6066 0.42179 0.0
C3376 C 0.15046 0.59261 0.40942 0.0
C3377 C 0.15035 0.55164 0.37419 0.0
C3378 C 0.15017 0.56594 0.38608 0.0
H3379 H 0.17787 0.63167 0.44323 0.0
H3380 H 0.17775 0.60864 0.42303 0.0
H3381 H 0.12966 0.57936 0.42098 0.0
H3382 H 0.12377 0.52718 0.35134 0.0
H3383 H 0.12349 0.55157 0.36999 0.0
C3384 C 0.46663 0.13375 0.35968 0.0
C3385 C 0.47274 0.14912 0.35362 0.0
C3386 C 0.45267 0.13336 0.3703 0.0
C3387 C 0.41578 0.15763 0.38365 0.0
H3388 H 0.41998 0.13275 0.42522 0.0
C3389 C 0.36865 0.16577 0.43792 0.0
C3390 C 0.36432 0.15145 0.44721 0.0
C3391 C 0.38156 0.16507 0.42607 0.0
C3392 C 0.41846 0.13955 0.41357 0.0
H3393 H 0.4688 0.17605 0.35343 0.0
H3394 H 0.44435 0.17532 0.37177 0.0
H3395 H 0.44255 0.13171 0.40465 0.0
H3396 H 0.36993 0.12515 0.45132 0.0
H3397 H 0.39211 0.1238 0.43041 0.0
H3398 H 0.39166 0.16538 0.39242 0.0
C3399 C 0.45033 0.1636 0.36836 0.0
C3400 C 0.43141 0.13896 0.40179 0.0
C3401 C 0.46437 0.16402 0.35794 0.0
C3402 C 0.37309 0.13643 0.44443 0.0
C3403 C 0.38587 0.13569 0.43249 0.0
C3404 C 0.40275 0.1581 0.39534 0.0
C3405 C 0.44447 0.1483 0.37483 0.0
C3406 C 0.43027 0.14811 0.38679 0.0
C3407 C 0.39029 0.14999 0.42317 0.0
C3408 C 0.40398 0.14919 0.41052 0.0
H3409 H 0.47286 0.12209 0.35655 0.0
H3410 H 0.44831 0.12138 0.37502 0.0
H3411 H 0.41452 0.16467 0.37209 0.0
H3412 H 0.36212 0.17753 0.43985 0.0
H3413 H 0.38481 0.17641 0.41933 0.0
C3414 C 0.1649 0.46442 0.63957 0.0
C3415 C 0.14998 0.47235 0.64455 0.0
C3416 C 0.16445 0.45049 0.62897 0.0
C3417 C 0.13916 0.43156 0.59608 0.0
H3418 H 0.16632 0.39201 0.60414 0.0
C3419 C 0.13585 0.37368 0.55286 0.0
C3420 C 0.1508 0.36495 0.54964 0.0
C3421 C 0.1354 0.38638 0.56491 0.0
C3422 C 0.15884 0.40305 0.60157 0.0
H3423 H 0.12287 0.47182 0.6426 0.0
H3424 H 0.1221 0.44753 0.6238 0.0
H3425 H 0.16599 0.41463 0.62475 0.0
H3426 H 0.17706 0.36277 0.55628 0.0
H3427 H 0.17645 0.38533 0.57695 0.0
H3428 H 0.13237 0.42035 0.57271 0.0
C3429 C 0.13412 0.45211 0.62816 0.0
C3430 C 0.15858 0.41595 0.61344 0.0
C3431 C 0.13456 0.46592 0.63897 0.0
C3432 C 0.16534 0.36926 0.55857 0.0
C3433 C 0.16494 0.3821 0.5705 0.0
C3434 C 0.13955 0.41876 0.58413 0.0
C3435 C 0.14908 0.44436 0.62296 0.0
C3436 C 0.14877 0.43034 0.61078 0.0
C3437 C 0.14993 0.39078 0.57389 0.0
C3438 C 0.14943 0.40435 0.58669 0.0
H3439 H 0.17697 0.46909 0.64371 0.0
H3440 H 0.17617 0.44484 0.62505 0.0
H3441 H 0.13169 0.44264 0.59361 0.0
H3442 H 0.12441 0.37053 0.54626 0.0
H3443 H 0.12356 0.39257 0.56735 0.0
C3444 C 0.62738 0.16781 0.5582 0.0
C3445 C 0.63342 0.15255 0.55179 0.0
C3446 C 0.61413 0.16797 0.56969 0.0
C3447 C 0.59257 0.14175 0.60083 0.0
H3448 H 0.55533 0.17226 0.59404 0.0
C3449 C 0.53109 0.13679 0.63888 0.0
C3450 C 0.52292 0.15177 0.64322 0.0
C3451 C 0.54498 0.13705 0.62818 0.0
C3452 C 0.56574 0.16384 0.5963 0.0
H3453 H 0.63043 0.12551 0.5524 0.0
H3454 H 0.60738 0.1258 0.57251 0.0
H3455 H 0.57891 0.17267 0.57462 0.0
H3456 H 0.52309 0.1788 0.64017 0.0
H3457 H 0.54754 0.17932 0.62192 0.0
H3458 H 0.57955 0.13302 0.6226 0.0
C3459 C 0.61291 0.13762 0.56871 0.0
C3460 C 0.57922 0.16406 0.58513 0.0
C3461 C 0.62603 0.13747 0.55712 0.0
C3462 C 0.52907 0.16703 0.63694 0.0
C3463 C 0.54303 0.16731 0.62638 0.0
C3464 C 0.57915 0.14163 0.6121 0.0
C3465 C 0.6068 0.15286 0.57509 0.0
C3466 C 0.59273 0.15296 0.58723 0.0
C3467 C 0.55106 0.15232 0.62171 0.0
C3468 C 0.56552 0.15262 0.60993 0.0
H3469 H 0.63286 0.17963 0.55432 0.0
H3470 H 0.60973 0.1799 0.5745 0.0
H3471 H 0.60293 0.1332 0.60286 0.0
H3472 H 0.52656 0.12483 0.6435 0.0
H3473 H 0.55071 0.12524 0.62469 0.0
C3474 C 0.46353 0.83345 0.63974 0.0
C3475 C 0.47059 0.8484 0.64581 0.0
C3476 C 0.44949 0.83385 0.6293 0.0
C3477 C 0.42818 0.86071 0.59897 0.0
H3478 H 0.3917 0.82894 0.60405 0.0
C3479 C 0.37 0.86194 0.55592 0.0
C3480 C 0.36336 0.84644 0.55084 0.0
C3481 C 0.38251 0.86267 0.56816 0.0
C3482 C 0.40187 0.83777 0.60234 0.0
H3483 H 0.46836 0.8755 0.64602 0.0
H3484 H 0.44378 0.87622 0.6276 0.0
H3485 H 0.41423 0.82955 0.62473 0.0
H3486 H 0.36466 0.81952 0.55444 0.0
H3487 H 0.38681 0.82073 0.57553 0.0
H3488 H 0.41611 0.86867 0.57639 0.0
C3489 C 0.44917 0.8642 0.63091 0.0
C3490 C 0.41473 0.83816 0.61423 0.0
C3491 C 0.46316 0.86378 0.64151 0.0
C3492 C 0.36953 0.83165 0.55815 0.0
C3493 C 0.38212 0.83237 0.57033 0.0
C3494 C 0.41538 0.86025 0.58701 0.0
C3495 C 0.44229 0.84923 0.6246 0.0
C3496 C 0.42808 0.84955 0.61261 0.0
C3497 C 0.38873 0.8479 0.57552 0.0
C3498 C 0.40213 0.84869 0.58848 0.0
H3499 H 0.46899 0.82139 0.64285 0.0
H3500 H 0.44458 0.82213 0.6245 0.0
H3501 H 0.43843 0.86946 0.59726 0.0
H3502 H 0.36541 0.87357 0.55058 0.0
H3503 H 0.38713 0.87485 0.57201 0.0
loop_
_geom_bond_atom_site_label_1
_geom_bond_atom_site_label_2
_geom_bond_distance
_geom_bond_site_symmetry_2
_ccdc_geom_bond_type
In0 O1 2.294 . S
In0 O2 2.326 . S
In0 O6 2.266 . S
In0 O7 2.326 . S
In0 O8 2.266 . S
In0 O9 2.326 . S
In0 O11 2.294 . S
In0 O12 2.326 . S
O1 In0 2.294 . S
O1 C10 1.240 . S
O2 In0 2.326 . S
O2 C10 1.252 . S
C3 O6 1.252 . S
C3 O7 1.260 . S
C4 O11 1.240 . S
C4 O12 1.252 . S
C5 O8 1.251 1_655 S
C5 O9 1.259 1_655 S
O6 In0 2.266 . S
O6 C3 1.252 . S
O7 In0 2.326 . S
O7 C3 1.260 . S
O8 In0 2.266 . S
O8 C5 1.251 1_455 S
O9 In0 2.326 . S
O9 C5 1.259 1_455 S
C10 O1 1.240 . S
C10 O2 1.252 . S
O11 In0 2.294 . S
O11 C4 1.240 . S
O12 In0 2.326 . S
O12 C4 1.252 . S
In13 O14 2.294 . S
In13 O15 2.326 . S
In13 O19 2.266 . S
In13 O20 2.326 . S
In13 O21 2.266 . S
In13 O22 2.326 . S
In13 O24 2.294 . S
In13 O25 2.326 . S
O14 In13 2.294 . S
O14 C23 1.240 . S
O15 In13 2.326 . S
O15 C23 1.252 . S
C16 O19 1.251 1_565 S
C16 O20 1.259 1_565 S
C17 O24 1.240 . S
C17 O25 1.252 . S
C18 O21 1.252 . S
C18 O22 1.260 . S
O19 In13 2.266 . S
O19 C16 1.251 1_545 S
O20 In13 2.326 . S
O20 C16 1.259 1_545 S
O21 In13 2.266 . S
O21 C18 1.252 . S
O22 In13 2.326 . S
O22 C18 1.260 . S
C23 O14 1.240 . S
C23 O15 1.252 . S
O24 In13 2.294 . S
O24 C17 1.240 . S
O25 In13 2.326 . S
O25 C17 1.252 . S
In26 O27 2.294 . S
In26 O28 2.326 . S
In26 O32 2.266 . S
In26 O33 2.326 . S
In26 O34 2.266 . S
In26 O35 2.326 . S
In26 O37 2.294 . S
In26 O38 2.326 . S
O27 In26 2.294 . S
O27 C36 1.240 . S
O28 In26 2.326 . S
O28 C36 1.252 . S
C29 O32 1.252 . S
C29 O33 1.260 . S
C30 O37 1.240 . S
C30 O38 1.252 . S
C31 O34 1.251 1_455 S
C31 O35 1.259 1_455 S
O32 In26 2.266 . S
O32 C29 1.252 . S
O33 In26 2.326 . S
O33 C29 1.260 . S
O34 In26 2.266 . S
O34 C31 1.251 1_655 S
O35 In26 2.326 . S
O35 C31 1.259 1_655 S
C36 O27 1.240 . S
C36 O28 1.252 . S
O37 In26 2.294 . S
O37 C30 1.240 . S
O38 In26 2.326 . S
O38 C30 1.252 . S
In39 O40 2.294 . S
In39 O41 2.326 . S
In39 O45 2.266 . S
In39 O46 2.326 . S
In39 O47 2.266 . S
In39 O48 2.326 . S
In39 O50 2.294 . S
In39 O51 2.326 . S
O40 In39 2.294 . S
O40 C49 1.240 . S
O41 In39 2.326 . S
O41 C49 1.252 . S
C42 O45 1.251 1_545 S
C42 O46 1.259 1_545 S
C43 O50 1.240 . S
C43 O51 1.252 . S
C44 O47 1.252 . S
C44 O48 1.260 . S
O45 In39 2.266 . S
O45 C42 1.251 1_565 S
O46 In39 2.326 . S
O46 C42 1.259 1_565 S
O47 In39 2.266 . S
O47 C44 1.252 . S
O48 In39 2.326 . S
O48 C44 1.260 . S
C49 O40 1.240 . S
C49 O41 1.252 . S
O50 In39 2.294 . S
O50 C43 1.240 . S
O51 In39 2.326 . S
O51 C43 1.252 . S
In52 O53 2.294 . S
In52 O54 2.326 . S
In52 O58 2.266 . S
In52 O59 2.326 . S
In52 O60 2.266 . S
In52 O61 2.326 . S
In52 O63 2.294 . S
In52 O64 2.326 . S
O53 In52 2.294 . S
O53 C62 1.240 . S
O54 In52 2.326 . S
O54 C62 1.252 . S
C55 O58 1.251 1_655 S
C55 O59 1.259 1_655 S
C56 O63 1.240 . S
C56 O64 1.252 . S
C57 O60 1.252 . S
C57 O61 1.260 . S
O58 In52 2.266 . S
O58 C55 1.251 1_455 S
O59 In52 2.326 . S
O59 C55 1.259 1_455 S
O60 In52 2.266 . S
O60 C57 1.252 . S
O61 In52 2.326 . S
O61 C57 1.260 . S
C62 O53 1.240 . S
C62 O54 1.252 . S
O63 In52 2.294 . S
O63 C56 1.240 . S
O64 In52 2.326 . S
O64 C56 1.252 . S
In65 O66 2.294 . S
In65 O67 2.326 . S
In65 O71 2.266 . S
In65 O72 2.326 . S
In65 O73 2.266 . S
In65 O74 2.326 . S
In65 O76 2.294 . S
In65 O77 2.326 . S
O66 In65 2.294 . S
O66 C75 1.240 . S
O67 In65 2.326 . S
O67 C75 1.252 . S
C68 O71 1.252 . S
C68 O72 1.260 . S
C69 O76 1.240 . S
C69 O77 1.252 . S
C70 O73 1.251 1_565 S
C70 O74 1.259 1_565 S
O71 In65 2.266 . S
O71 C68 1.252 . S
O72 In65 2.326 . S
O72 C68 1.260 . S
O73 In65 2.266 . S
O73 C70 1.251 1_545 S
O74 In65 2.326 . S
O74 C70 1.259 1_545 S
C75 O66 1.240 . S
C75 O67 1.252 . S
O76 In65 2.294 . S
O76 C69 1.240 . S
O77 In65 2.326 . S
O77 C69 1.252 . S
In78 O79 2.294 . S
In78 O80 2.326 . S
In78 O84 2.266 . S
In78 O85 2.326 . S
In78 O86 2.266 . S
In78 O87 2.326 . S
In78 O89 2.294 . S
In78 O90 2.326 . S
O79 In78 2.294 . S
O79 C88 1.240 . S
O80 In78 2.326 . S
O80 C88 1.252 . S
C81 O84 1.252 . S
C81 O85 1.260 . S
C82 O89 1.240 . S
C82 O90 1.252 . S
C83 O86 1.251 1_455 S
C83 O87 1.259 1_455 S
O84 In78 2.266 . S
O84 C81 1.252 . S
O85 In78 2.326 . S
O85 C81 1.260 . S
O86 In78 2.266 . S
O86 C83 1.251 1_655 S
O87 In78 2.326 . S
O87 C83 1.259 1_655 S
C88 O79 1.240 . S
C88 O80 1.252 . S
O89 In78 2.294 . S
O89 C82 1.240 . S
O90 In78 2.326 . S
O90 C82 1.252 . S
In91 O92 2.294 . S
In91 O93 2.326 . S
In91 O97 2.266 . S
In91 O98 2.326 . S
In91 O99 2.266 . S
In91 O100 2.326 . S
In91 O102 2.294 . S
In91 O103 2.326 . S
O92 In91 2.294 . S
O92 C101 1.240 . S
O93 In91 2.326 . S
O93 C101 1.252 . S
C94 O97 1.252 . S
C94 O98 1.260 . S
C95 O102 1.240 . S
C95 O103 1.252 . S
C96 O99 1.251 1_545 S
C96 O100 1.259 1_545 S
O97 In91 2.266 . S
O97 C94 1.252 . S
O98 In91 2.326 . S
O98 C94 1.260 . S
O99 In91 2.266 . S
O99 C96 1.251 1_565 S
O100 In91 2.326 . S
O100 C96 1.259 1_565 S
C101 O92 1.240 . S
C101 O93 1.252 . S
O102 In91 2.294 . S
O102 C95 1.240 . S
O103 In91 2.326 . S
O103 C95 1.252 . S
In104 O105 2.294 . S
In104 O106 2.326 . S
In104 O110 2.266 . S
In104 O111 2.326 . S
In104 O112 2.266 . S
In104 O113 2.326 . S
In104 O115 2.294 . S
In104 O116 2.326 . S
O105 In104 2.294 . S
O105 C114 1.240 . S
O106 In104 2.326 . S
O106 C114 1.252 . S
C107 O110 1.251 1_565 S
C107 O111 1.259 1_565 S
C108 O115 1.240 . S
C108 O116 1.252 . S
C109 O112 1.252 . S
C109 O113 1.260 . S
O110 In104 2.266 . S
O110 C107 1.251 1_545 S
O111 In104 2.326 . S
O111 C107 1.259 1_545 S
O112 In104 2.266 . S
O112 C109 1.252 . S
O113 In104 2.326 . S
O113 C109 1.260 . S
C114 O105 1.240 . S
C114 O106 1.252 . S
O115 In104 2.294 . S
O115 C108 1.240 . S
O116 In104 2.326 . S
O116 C108 1.252 . S
In117 O118 2.294 . S
In117 O119 2.326 . S
In117 O123 2.266 . S
In117 O124 2.326 . S
In117 O125 2.266 . S
In117 O126 2.326 . S
In117 O128 2.294 . S
In117 O129 2.326 . S
O118 In117 2.294 . S
O118 C127 1.240 . S
O119 In117 2.326 . S
O119 C127 1.252 . S
C120 O123 1.252 . S
C120 O124 1.260 . S
C121 O128 1.240 . S
C121 O129 1.252 . S
C122 O125 1.251 1_455 S
C122 O126 1.259 1_455 S
O123 In117 2.266 . S
O123 C120 1.252 . S
O124 In117 2.326 . S
O124 C120 1.260 . S
O125 In117 2.266 . S
O125 C122 1.251 1_655 S
O126 In117 2.326 . S
O126 C122 1.259 1_655 S
C127 O118 1.240 . S
C127 O119 1.252 . S
O128 In117 2.294 . S
O128 C121 1.240 . S
O129 In117 2.326 . S
O129 C121 1.252 . S
In130 O131 2.294 . S
In130 O132 2.326 . S
In130 O136 2.266 . S
In130 O137 2.326 . S
In130 O138 2.266 . S
In130 O139 2.326 . S
In130 O141 2.294 . S
In130 O142 2.326 . S
O131 In130 2.294 . S
O131 C140 1.240 . S
O132 In130 2.326 . S
O132 C140 1.252 . S
C133 O136 1.251 1_545 S
C133 O137 1.259 1_545 S
C134 O141 1.240 . S
C134 O142 1.252 . S
C135 O138 1.252 . S
C135 O139 1.260 . S
O136 In130 2.266 . S
O136 C133 1.251 1_565 S
O137 In130 2.326 . S
O137 C133 1.259 1_565 S
O138 In130 2.266 . S
O138 C135 1.252 . S
O139 In130 2.326 . S
O139 C135 1.260 . S
C140 O131 1.240 . S
C140 O132 1.252 . S
O141 In130 2.294 . S
O141 C134 1.240 . S
O142 In130 2.326 . S
O142 C134 1.252 . S
In143 O144 2.294 . S
In143 O145 2.326 . S
In143 O149 2.266 . S
In143 O150 2.326 . S
In143 O151 2.266 . S
In143 O152 2.326 . S
In143 O154 2.294 . S
In143 O155 2.326 . S
O144 In143 2.294 . S
O144 C153 1.240 . S
O145 In143 2.326 . S
O145 C153 1.252 . S
C146 O149 1.252 . S
C146 O150 1.260 . S
C147 O154 1.240 . S
C147 O155 1.252 . S
C148 O151 1.251 1_655 S
C148 O152 1.259 1_655 S
O149 In143 2.266 . S
O149 C146 1.252 . S
O150 In143 2.326 . S
O150 C146 1.260 . S
O151 In143 2.266 . S
O151 C148 1.251 1_455 S
O152 In143 2.326 . S
O152 C148 1.259 1_455 S
C153 O144 1.240 . S
C153 O145 1.252 . S
O154 In143 2.294 . S
O154 C147 1.240 . S
O155 In143 2.326 . S
O155 C147 1.252 . S
In156 O157 2.294 . S
In156 O158 2.326 . S
In156 O162 2.266 . S
In156 O163 2.326 . S
In156 O164 2.266 . S
In156 O165 2.326 . S
In156 O167 2.294 . S
In156 O168 2.326 . S
O157 In156 2.294 . S
O157 C166 1.240 . S
O158 In156 2.326 . S
O158 C166 1.252 . S
C159 O162 1.252 . S
C159 O163 1.260 . S
C160 O167 1.240 . S
C160 O168 1.252 . S
C161 O164 1.251 1_545 S
C161 O165 1.259 1_545 S
O162 In156 2.266 . S
O162 C159 1.252 . S
O163 In156 2.326 . S
O163 C159 1.260 . S
O164 In156 2.266 . S
O164 C161 1.251 1_565 S
O165 In156 2.326 . S
O165 C161 1.259 1_565 S
C166 O157 1.240 . S
C166 O158 1.252 . S
O167 In156 2.294 . S
O167 C160 1.240 . S
O168 In156 2.326 . S
O168 C160 1.252 . S
In169 O170 2.294 . S
In169 O171 2.326 . S
In169 O175 2.266 . S
In169 O176 2.326 . S
In169 O177 2.266 . S
In169 O178 2.326 . S
In169 O180 2.294 . S
In169 O181 2.326 . S
O170 In169 2.294 . S
O170 C179 1.240 . S
O171 In169 2.326 . S
O171 C179 1.252 . S
C172 O175 1.251 1_655 S
C172 O176 1.259 1_655 S
C173 O180 1.240 . S
C173 O181 1.252 . S
C174 O177 1.252 . S
C174 O178 1.260 . S
O175 In169 2.266 . S
O175 C172 1.251 1_455 S
O176 In169 2.326 . S
O176 C172 1.259 1_455 S
O177 In169 2.266 . S
O177 C174 1.252 . S
O178 In169 2.326 . S
O178 C174 1.260 . S
C179 O170 1.240 . S
C179 O171 1.252 . S
O180 In169 2.294 . S
O180 C173 1.240 . S
O181 In169 2.326 . S
O181 C173 1.252 . S
In182 O183 2.294 . S
In182 O184 2.326 . S
In182 O188 2.266 . S
In182 O189 2.326 . S
In182 O190 2.266 . S
In182 O191 2.326 . S
In182 O193 2.294 . S
In182 O194 2.326 . S
O183 In182 2.294 . S
O183 C192 1.240 . S
O184 In182 2.326 . S
O184 C192 1.252 . S
C185 O188 1.251 1_565 S
C185 O189 1.259 1_565 S
C186 O193 1.240 . S
C186 O194 1.252 . S
C187 O190 1.252 . S
C187 O191 1.260 . S
O188 In182 2.266 . S
O188 C185 1.251 1_545 S
O189 In182 2.326 . S
O189 C185 1.259 1_545 S
O190 In182 2.266 . S
O190 C187 1.252 . S
O191 In182 2.326 . S
O191 C187 1.260 . S
C192 O183 1.240 . S
C192 O184 1.252 . S
O193 In182 2.294 . S
O193 C186 1.240 . S
O194 In182 2.326 . S
O194 C186 1.252 . S
In195 O196 2.294 . S
In195 O197 2.326 . S
In195 O201 2.266 . S
In195 O202 2.326 . S
In195 O203 2.266 . S
In195 O204 2.326 . S
In195 O206 2.294 . S
In195 O207 2.326 . S
O196 In195 2.294 . S
O196 C205 1.240 . S
O197 In195 2.326 . S
O197 C205 1.252 . S
C198 O201 1.252 . S
C198 O202 1.260 . S
C199 O206 1.240 . S
C199 O207 1.252 . S
C200 O203 1.251 1_455 S
C200 O204 1.259 1_455 S
O201 In195 2.266 . S
O201 C198 1.252 . S
O202 In195 2.326 . S
O202 C198 1.260 . S
O203 In195 2.266 . S
O203 C200 1.251 1_655 S
O204 In195 2.326 . S
O204 C200 1.259 1_655 S
C205 O196 1.240 . S
C205 O197 1.252 . S
O206 In195 2.294 . S
O206 C199 1.240 . S
O207 In195 2.326 . S
O207 C199 1.252 . S
In208 O209 2.294 . S
In208 O210 2.326 . S
In208 O214 2.266 . S
In208 O215 2.326 . S
In208 O216 2.266 . S
In208 O217 2.326 . S
In208 O219 2.294 . S
In208 O220 2.326 . S
O209 In208 2.294 . S
O209 C218 1.240 . S
O210 In208 2.326 . S
O210 C218 1.252 . S
C211 O214 1.252 . S
C211 O215 1.260 . S
C212 O219 1.240 . S
C212 O220 1.252 . S
C213 O216 1.251 1_556 S
C213 O217 1.259 1_556 S
O214 In208 2.266 . S
O214 C211 1.252 . S
O215 In208 2.326 . S
O215 C211 1.260 . S
O216 In208 2.266 . S
O216 C213 1.251 1_554 S
O217 In208 2.326 . S
O217 C213 1.259 1_554 S
C218 O209 1.240 . S
C218 O210 1.252 . S
O219 In208 2.294 . S
O219 C212 1.240 . S
O220 In208 2.326 . S
O220 C212 1.252 . S
In221 O222 2.294 . S
In221 O223 2.326 . S
In221 O227 2.266 . S
In221 O228 2.326 . S
In221 O229 2.266 . S
In221 O230 2.326 . S
In221 O232 2.294 . S
In221 O233 2.326 . S
O222 In221 2.294 . S
O222 C231 1.240 . S
O223 In221 2.326 . S
O223 C231 1.252 . S
C224 O227 1.252 . S
C224 O228 1.260 . S
C225 O232 1.240 . S
C225 O233 1.252 . S
C226 O229 1.251 1_554 S
C226 O230 1.259 1_554 S
O227 In221 2.266 . S
O227 C224 1.252 . S
O228 In221 2.326 . S
O228 C224 1.260 . S
O229 In221 2.266 . S
O229 C226 1.251 1_556 S
O230 In221 2.326 . S
O230 C226 1.259 1_556 S
C231 O222 1.240 . S
C231 O223 1.252 . S
O232 In221 2.294 . S
O232 C225 1.240 . S
O233 In221 2.326 . S
O233 C225 1.252 . S
In234 O235 2.294 . S
In234 O236 2.326 . S
In234 O240 2.266 . S
In234 O241 2.326 . S
In234 O242 2.266 . S
In234 O243 2.326 . S
In234 O245 2.294 . S
In234 O246 2.326 . S
O235 In234 2.294 . S
O235 C244 1.240 . S
O236 In234 2.326 . S
O236 C244 1.252 . S
C237 O240 1.252 . S
C237 O241 1.260 . S
C238 O245 1.240 . S
C238 O246 1.252 . S
C239 O242 1.251 1_554 S
C239 O243 1.259 1_554 S
O240 In234 2.266 . S
O240 C237 1.252 . S
O241 In234 2.326 . S
O241 C237 1.260 . S
O242 In234 2.266 . S
O242 C239 1.251 1_556 S
O243 In234 2.326 . S
O243 C239 1.259 1_556 S
C244 O235 1.240 . S
C244 O236 1.252 . S
O245 In234 2.294 . S
O245 C238 1.240 . S
O246 In234 2.326 . S
O246 C238 1.252 . S
In247 O248 2.294 . S
In247 O249 2.326 . S
In247 O253 2.266 . S
In247 O254 2.326 . S
In247 O255 2.266 . S
In247 O256 2.326 . S
In247 O258 2.294 . S
In247 O259 2.326 . S
O248 In247 2.294 . S
O248 C257 1.240 . S
O249 In247 2.326 . S
O249 C257 1.252 . S
C250 O253 1.251 1_554 S
C250 O254 1.259 1_554 S
C251 O258 1.240 . S
C251 O259 1.252 . S
C252 O255 1.252 . S
C252 O256 1.260 . S
O253 In247 2.266 . S
O253 C250 1.251 1_556 S
O254 In247 2.326 . S
O254 C250 1.259 1_556 S
O255 In247 2.266 . S
O255 C252 1.252 . S
O256 In247 2.326 . S
O256 C252 1.260 . S
C257 O248 1.240 . S
C257 O249 1.252 . S
O258 In247 2.294 . S
O258 C251 1.240 . S
O259 In247 2.326 . S
O259 C251 1.252 . S
In260 O261 2.294 . S
In260 O262 2.326 . S
In260 O266 2.266 . S
In260 O267 2.326 . S
In260 O268 2.266 . S
In260 O269 2.326 . S
In260 O271 2.294 . S
In260 O272 2.326 . S
O261 In260 2.294 . S
O261 C270 1.240 . S
O262 In260 2.326 . S
O262 C270 1.252 . S
C263 O266 1.251 1_554 S
C263 O267 1.259 1_554 S
C264 O271 1.240 . S
C264 O272 1.252 . S
C265 O268 1.252 . S
C265 O269 1.260 . S
O266 In260 2.266 . S
O266 C263 1.251 1_556 S
O267 In260 2.326 . S
O267 C263 1.259 1_556 S
O268 In260 2.266 . S
O268 C265 1.252 . S
O269 In260 2.326 . S
O269 C265 1.260 . S
C270 O261 1.240 . S
C270 O262 1.252 . S
O271 In260 2.294 . S
O271 C264 1.240 . S
O272 In260 2.326 . S
O272 C264 1.252 . S
In273 O274 2.294 . S
In273 O275 2.326 . S
In273 O279 2.266 . S
In273 O280 2.326 . S
In273 O281 2.266 . S
In273 O282 2.326 . S
In273 O284 2.294 . S
In273 O285 2.326 . S
O274 In273 2.294 . S
O274 C283 1.240 . S
O275 In273 2.326 . S
O275 C283 1.252 . S
C276 O279 1.252 . S
C276 O280 1.260 . S
C277 O284 1.240 . S
C277 O285 1.252 . S
C278 O281 1.251 1_556 S
C278 O282 1.259 1_556 S
O279 In273 2.266 . S
O279 C276 1.252 . S
O280 In273 2.326 . S
O280 C276 1.260 . S
O281 In273 2.266 . S
O281 C278 1.251 1_554 S
O282 In273 2.326 . S
O282 C278 1.259 1_554 S
C283 O274 1.240 . S
C283 O275 1.252 . S
O284 In273 2.294 . S
O284 C277 1.240 . S
O285 In273 2.326 . S
O285 C277 1.252 . S
In286 O287 2.294 . S
In286 O288 2.326 . S
In286 O292 2.266 . S
In286 O293 2.326 . S
In286 O294 2.266 . S
In286 O295 2.326 . S
In286 O297 2.294 . S
In286 O298 2.326 . S
O287 In286 2.294 . S
O287 C296 1.240 . S
O288 In286 2.326 . S
O288 C296 1.252 . S
C289 O292 1.251 1_556 S
C289 O293 1.259 1_556 S
C290 O297 1.240 . S
C290 O298 1.252 . S
C291 O294 1.252 . S
C291 O295 1.260 . S
O292 In286 2.266 . S
O292 C289 1.251 1_554 S
O293 In286 2.326 . S
O293 C289 1.259 1_554 S
O294 In286 2.266 . S
O294 C291 1.252 . S
O295 In286 2.326 . S
O295 C291 1.260 . S
C296 O287 1.240 . S
C296 O288 1.252 . S
O297 In286 2.294 . S
O297 C290 1.240 . S
O298 In286 2.326 . S
O298 C290 1.252 . S
In299 O300 2.294 . S
In299 O301 2.326 . S
In299 O305 2.266 . S
In299 O306 2.326 . S
In299 O307 2.266 . S
In299 O308 2.326 . S
In299 O310 2.294 . S
In299 O311 2.326 . S
O300 In299 2.294 . S
O300 C309 1.240 . S
O301 In299 2.326 . S
O301 C309 1.252 . S
C302 O305 1.252 . S
C302 O306 1.260 . S
C303 O310 1.240 . S
C303 O311 1.252 . S
C304 O307 1.251 1_556 S
C304 O308 1.259 1_556 S
O305 In299 2.266 . S
O305 C302 1.252 . S
O306 In299 2.326 . S
O306 C302 1.260 . S
O307 In299 2.266 . S
O307 C304 1.251 1_554 S
O308 In299 2.326 . S
O308 C304 1.259 1_554 S
C309 O300 1.240 . S
C309 O301 1.252 . S
O310 In299 2.294 . S
O310 C303 1.240 . S
O311 In299 2.326 . S
O311 C303 1.252 . S
In312 O313 2.294 . S
In312 O314 2.326 . S
In312 O318 2.266 . S
In312 O319 2.326 . S
In312 O320 2.266 . S
In312 O321 2.326 . S
In312 O323 2.294 . S
In312 O324 2.326 . S
O313 In312 2.294 . S
O313 C322 1.240 . S
O314 In312 2.326 . S
O314 C322 1.252 . S
C315 O318 1.252 . S
C315 O319 1.260 . S
C316 O323 1.240 . S
C316 O324 1.252 . S
C317 O320 1.252 . S
C317 O321 1.260 . S
O318 In312 2.266 . S
O318 C315 1.252 . S
O319 In312 2.326 . S
O319 C315 1.260 . S
O320 In312 2.266 . S
O320 C317 1.252 . S
O321 In312 2.326 . S
O321 C317 1.260 . S
C322 O313 1.240 . S
C322 O314 1.252 . S
O323 In312 2.294 . S
O323 C316 1.240 . S
O324 In312 2.326 . S
O324 C316 1.252 . S
In325 O326 2.294 . S
In325 O327 2.326 . S
In325 O331 2.266 . S
In325 O332 2.326 . S
In325 O333 2.266 . S
In325 O334 2.326 . S
In325 O336 2.294 . S
In325 O337 2.326 . S
O326 In325 2.294 . S
O326 C335 1.240 . S
O327 In325 2.326 . S
O327 C335 1.252 . S
C328 O331 1.252 . S
C328 O332 1.260 . S
C329 O336 1.240 . S
C329 O337 1.252 . S
C330 O333 1.252 . S
C330 O334 1.260 . S
O331 In325 2.266 . S
O331 C328 1.252 . S
O332 In325 2.326 . S
O332 C328 1.260 . S
O333 In325 2.266 . S
O333 C330 1.252 . S
O334 In325 2.326 . S
O334 C330 1.260 . S
C335 O326 1.240 . S
C335 O327 1.252 . S
O336 In325 2.294 . S
O336 C329 1.240 . S
O337 In325 2.326 . S
O337 C329 1.252 . S
In338 O339 2.294 . S
In338 O340 2.326 . S
In338 O344 2.266 . S
In338 O345 2.326 . S
In338 O346 2.266 . S
In338 O347 2.326 . S
In338 O349 2.294 . S
In338 O350 2.326 . S
O339 In338 2.294 . S
O339 C348 1.240 . S
O340 In338 2.326 . S
O340 C348 1.252 . S
C341 O344 1.252 . S
C341 O345 1.260 . S
C342 O349 1.240 . S
C342 O350 1.252 . S
C343 O346 1.252 . S
C343 O347 1.260 . S
O344 In338 2.266 . S
O344 C341 1.252 . S
O345 In338 2.326 . S
O345 C341 1.260 . S
O346 In338 2.266 . S
O346 C343 1.252 . S
O347 In338 2.326 . S
O347 C343 1.260 . S
C348 O339 1.240 . S
C348 O340 1.252 . S
O349 In338 2.294 . S
O349 C342 1.240 . S
O350 In338 2.326 . S
O350 C342 1.252 . S
In351 O352 2.294 . S
In351 O353 2.326 . S
In351 O357 2.266 . S
In351 O358 2.326 . S
In351 O359 2.266 . S
In351 O360 2.326 . S
In351 O362 2.294 . S
In351 O363 2.326 . S
O352 In351 2.294 . S
O352 C361 1.240 . S
O353 In351 2.326 . S
O353 C361 1.252 . S
C354 O357 1.252 . S
C354 O358 1.260 . S
C355 O362 1.240 . S
C355 O363 1.252 . S
C356 O359 1.252 . S
C356 O360 1.260 . S
O357 In351 2.266 . S
O357 C354 1.252 . S
O358 In351 2.326 . S
O358 C354 1.260 . S
O359 In351 2.266 . S
O359 C356 1.252 . S
O360 In351 2.326 . S
O360 C356 1.260 . S
C361 O352 1.240 . S
C361 O353 1.252 . S
O362 In351 2.294 . S
O362 C355 1.240 . S
O363 In351 2.326 . S
O363 C355 1.252 . S
In364 O365 2.294 . S
In364 O366 2.326 . S
In364 O370 2.266 . S
In364 O371 2.326 . S
In364 O372 2.266 . S
In364 O373 2.326 . S
In364 O375 2.294 . S
In364 O376 2.326 . S
O365 In364 2.294 . S
O365 C374 1.240 . S
O366 In364 2.326 . S
O366 C374 1.252 . S
C367 O370 1.252 . S
C367 O371 1.260 . S
C368 O375 1.240 . S
C368 O376 1.252 . S
C369 O372 1.252 . S
C369 O373 1.260 . S
O370 In364 2.266 . S
O370 C367 1.252 . S
O371 In364 2.326 . S
O371 C367 1.260 . S
O372 In364 2.266 . S
O372 C369 1.252 . S
O373 In364 2.326 . S
O373 C369 1.260 . S
C374 O365 1.240 . S
C374 O366 1.252 . S
O375 In364 2.294 . S
O375 C368 1.240 . S
O376 In364 2.326 . S
O376 C368 1.252 . S
In377 O378 2.294 . S
In377 O379 2.326 . S
In377 O383 2.266 . S
In377 O384 2.326 . S
In377 O385 2.266 . S
In377 O386 2.326 . S
In377 O388 2.294 . S
In377 O389 2.326 . S
O378 In377 2.294 . S
O378 C387 1.240 . S
O379 In377 2.326 . S
O379 C387 1.252 . S
C380 O383 1.252 . S
C380 O384 1.260 . S
C381 O388 1.240 . S
C381 O389 1.252 . S
C382 O385 1.252 . S
C382 O386 1.260 . S
O383 In377 2.266 . S
O383 C380 1.252 . S
O384 In377 2.326 . S
O384 C380 1.260 . S
O385 In377 2.266 . S
O385 C382 1.252 . S
O386 In377 2.326 . S
O386 C382 1.260 . S
C387 O378 1.240 . S
C387 O379 1.252 . S
O388 In377 2.294 . S
O388 C381 1.240 . S
O389 In377 2.326 . S
O389 C381 1.252 . S
In390 O391 2.294 . S
In390 O392 2.326 . S
In390 O396 2.266 . S
In390 O397 2.326 . S
In390 O398 2.266 . S
In390 O399 2.326 . S
In390 O401 2.294 . S
In390 O402 2.326 . S
O391 In390 2.294 . S
O391 C400 1.240 . S
O392 In390 2.326 . S
O392 C400 1.252 . S
C393 O396 1.252 . S
C393 O397 1.260 . S
C394 O401 1.240 . S
C394 O402 1.252 . S
C395 O398 1.252 . S
C395 O399 1.260 . S
O396 In390 2.266 . S
O396 C393 1.252 . S
O397 In390 2.326 . S
O397 C393 1.260 . S
O398 In390 2.266 . S
O398 C395 1.252 . S
O399 In390 2.326 . S
O399 C395 1.260 . S
C400 O391 1.240 . S
C400 O392 1.252 . S
O401 In390 2.294 . S
O401 C394 1.240 . S
O402 In390 2.326 . S
O402 C394 1.252 . S
In403 O404 2.294 . S
In403 O405 2.326 . S
In403 O409 2.266 . S
In403 O410 2.326 . S
In403 O411 2.266 . S
In403 O412 2.326 . S
In403 O414 2.294 . S
In403 O415 2.326 . S
O404 In403 2.294 . S
O404 C413 1.240 . S
O405 In403 2.326 . S
O405 C413 1.252 . S
C406 O409 1.252 . S
C406 O410 1.260 . S
C407 O414 1.240 . S
C407 O415 1.252 . S
C408 O411 1.252 . S
C408 O412 1.260 . S
O409 In403 2.266 . S
O409 C406 1.252 . S
O410 In403 2.326 . S
O410 C406 1.260 . S
O411 In403 2.266 . S
O411 C408 1.252 . S
O412 In403 2.326 . S
O412 C408 1.260 . S
C413 O404 1.240 . S
C413 O405 1.252 . S
O414 In403 2.294 . S
O414 C407 1.240 . S
O415 In403 2.326 . S
O415 C407 1.252 . S
In416 O417 2.294 . S
In416 O418 2.326 . S
In416 O422 2.266 . S
In416 O423 2.326 . S
In416 O424 2.266 . S
In416 O425 2.326 . S
In416 O427 2.294 . S
In416 O428 2.326 . S
O417 In416 2.294 . S
O417 C426 1.240 . S
O418 In416 2.326 . S
O418 C426 1.252 . S
C419 O422 1.252 . S
C419 O423 1.260 . S
C420 O427 1.240 . S
C420 O428 1.252 . S
C421 O424 1.252 . S
C421 O425 1.260 . S
O422 In416 2.266 . S
O422 C419 1.252 . S
O423 In416 2.326 . S
O423 C419 1.260 . S
O424 In416 2.266 . S
O424 C421 1.252 . S
O425 In416 2.326 . S
O425 C421 1.260 . S
C426 O417 1.240 . S
C426 O418 1.252 . S
O427 In416 2.294 . S
O427 C420 1.240 . S
O428 In416 2.326 . S
O428 C420 1.252 . S
In429 O430 2.294 . S
In429 O431 2.326 . S
In429 O435 2.266 . S
In429 O436 2.326 . S
In429 O437 2.266 . S
In429 O438 2.326 . S
In429 O440 2.294 . S
In429 O441 2.326 . S
O430 In429 2.294 . S
O430 C439 1.240 . S
O431 In429 2.326 . S
O431 C439 1.252 . S
C432 O435 1.252 . S
C432 O436 1.260 . S
C433 O440 1.240 . S
C433 O441 1.252 . S
C434 O437 1.252 . S
C434 O438 1.260 . S
O435 In429 2.266 . S
O435 C432 1.252 . S
O436 In429 2.326 . S
O436 C432 1.260 . S
O437 In429 2.266 . S
O437 C434 1.252 . S
O438 In429 2.326 . S
O438 C434 1.260 . S
C439 O430 1.240 . S
C439 O431 1.252 . S
O440 In429 2.294 . S
O440 C433 1.240 . S
O441 In429 2.326 . S
O441 C433 1.252 . S
In442 O443 2.294 . S
In442 O444 2.326 . S
In442 O448 2.266 . S
In442 O449 2.326 . S
In442 O450 2.266 . S
In442 O451 2.326 . S
In442 O453 2.294 . S
In442 O454 2.326 . S
O443 In442 2.294 . S
O443 C452 1.240 . S
O444 In442 2.326 . S
O444 C452 1.252 . S
C445 O448 1.252 . S
C445 O449 1.260 . S
C446 O453 1.240 . S
C446 O454 1.252 . S
C447 O450 1.252 . S
C447 O451 1.260 . S
O448 In442 2.266 . S
O448 C445 1.252 . S
O449 In442 2.326 . S
O449 C445 1.260 . S
O450 In442 2.266 . S
O450 C447 1.252 . S
O451 In442 2.326 . S
O451 C447 1.260 . S
C452 O443 1.240 . S
C452 O444 1.252 . S
O453 In442 2.294 . S
O453 C446 1.240 . S
O454 In442 2.326 . S
O454 C446 1.252 . S
In455 O456 2.294 . S
In455 O457 2.326 . S
In455 O461 2.266 . S
In455 O462 2.326 . S
In455 O463 2.266 . S
In455 O464 2.326 . S
In455 O466 2.294 . S
In455 O467 2.326 . S
O456 In455 2.294 . S
O456 C465 1.240 . S
O457 In455 2.326 . S
O457 C465 1.252 . S
C458 O461 1.252 . S
C458 O462 1.260 . S
C459 O466 1.240 . S
C459 O467 1.252 . S
C460 O463 1.252 . S
C460 O464 1.260 . S
O461 In455 2.266 . S
O461 C458 1.252 . S
O462 In455 2.326 . S
O462 C458 1.260 . S
O463 In455 2.266 . S
O463 C460 1.252 . S
O464 In455 2.326 . S
O464 C460 1.260 . S
C465 O456 1.240 . S
C465 O457 1.252 . S
O466 In455 2.294 . S
O466 C459 1.240 . S
O467 In455 2.326 . S
O467 C459 1.252 . S
In468 O469 2.294 . S
In468 O470 2.326 . S
In468 O474 2.266 . S
In468 O475 2.326 . S
In468 O476 2.266 . S
In468 O477 2.326 . S
In468 O479 2.294 . S
In468 O480 2.326 . S
O469 In468 2.294 . S
O469 C478 1.240 . S
O470 In468 2.326 . S
O470 C478 1.252 . S
C471 O474 1.252 . S
C471 O475 1.260 . S
C472 O479 1.240 . S
C472 O480 1.252 . S
C473 O476 1.252 . S
C473 O477 1.260 . S
O474 In468 2.266 . S
O474 C471 1.252 . S
O475 In468 2.326 . S
O475 C471 1.260 . S
O476 In468 2.266 . S
O476 C473 1.252 . S
O477 In468 2.326 . S
O477 C473 1.260 . S
C478 O469 1.240 . S
C478 O470 1.252 . S
O479 In468 2.294 . S
O479 C472 1.240 . S
O480 In468 2.326 . S
O480 C472 1.252 . S
In481 O482 2.294 . S
In481 O483 2.326 . S
In481 O487 2.266 . S
In481 O488 2.326 . S
In481 O489 2.266 . S
In481 O490 2.326 . S
In481 O492 2.294 . S
In481 O493 2.326 . S
O482 In481 2.294 . S
O482 C491 1.240 . S
O483 In481 2.326 . S
O483 C491 1.252 . S
C484 O487 1.252 . S
C484 O488 1.260 . S
C485 O492 1.240 . S
C485 O493 1.252 . S
C486 O489 1.252 . S
C486 O490 1.260 . S
O487 In481 2.266 . S
O487 C484 1.252 . S
O488 In481 2.326 . S
O488 C484 1.260 . S
O489 In481 2.266 . S
O489 C486 1.252 . S
O490 In481 2.326 . S
O490 C486 1.260 . S
C491 O482 1.240 . S
C491 O483 1.252 . S
O492 In481 2.294 . S
O492 C485 1.240 . S
O493 In481 2.326 . S
O493 C485 1.252 . S
In494 O495 2.294 . S
In494 O496 2.326 . S
In494 O500 2.266 . S
In494 O501 2.326 . S
In494 O502 2.266 . S
In494 O503 2.326 . S
In494 O505 2.294 . S
In494 O506 2.326 . S
O495 In494 2.294 . S
O495 C504 1.240 . S
O496 In494 2.326 . S
O496 C504 1.252 . S
C497 O500 1.252 . S
C497 O501 1.260 . S
C498 O505 1.240 . S
C498 O506 1.252 . S
C499 O502 1.252 . S
C499 O503 1.260 . S
O500 In494 2.266 . S
O500 C497 1.252 . S
O501 In494 2.326 . S
O501 C497 1.260 . S
O502 In494 2.266 . S
O502 C499 1.252 . S
O503 In494 2.326 . S
O503 C499 1.260 . S
C504 O495 1.240 . S
C504 O496 1.252 . S
O505 In494 2.294 . S
O505 C498 1.240 . S
O506 In494 2.326 . S
O506 C498 1.252 . S
In507 O508 2.294 . S
In507 O509 2.326 . S
In507 O513 2.266 . S
In507 O514 2.326 . S
In507 O515 2.266 . S
In507 O516 2.326 . S
In507 O518 2.294 . S
In507 O519 2.326 . S
O508 In507 2.294 . S
O508 C517 1.240 . S
O509 In507 2.326 . S
O509 C517 1.252 . S
C510 O513 1.252 . S
C510 O514 1.260 . S
C511 O518 1.240 . S
C511 O519 1.252 . S
C512 O515 1.252 . S
C512 O516 1.260 . S
O513 In507 2.266 . S
O513 C510 1.252 . S
O514 In507 2.326 . S
O514 C510 1.260 . S
O515 In507 2.266 . S
O515 C512 1.252 . S
O516 In507 2.326 . S
O516 C512 1.260 . S
C517 O508 1.240 . S
C517 O509 1.252 . S
O518 In507 2.294 . S
O518 C511 1.240 . S
O519 In507 2.326 . S
O519 C511 1.252 . S
In520 O521 2.294 . S
In520 O522 2.326 . S
In520 O526 2.266 . S
In520 O527 2.326 . S
In520 O528 2.266 . S
In520 O529 2.326 . S
In520 O531 2.294 . S
In520 O532 2.326 . S
O521 In520 2.294 . S
O521 C530 1.240 . S
O522 In520 2.326 . S
O522 C530 1.252 . S
C523 O526 1.252 . S
C523 O527 1.260 . S
C524 O531 1.240 . S
C524 O532 1.252 . S
C525 O528 1.252 . S
C525 O529 1.260 . S
O526 In520 2.266 . S
O526 C523 1.252 . S
O527 In520 2.326 . S
O527 C523 1.260 . S
O528 In520 2.266 . S
O528 C525 1.252 . S
O529 In520 2.326 . S
O529 C525 1.260 . S
C530 O521 1.240 . S
C530 O522 1.252 . S
O531 In520 2.294 . S
O531 C524 1.240 . S
O532 In520 2.326 . S
O532 C524 1.252 . S
In533 O534 2.294 . S
In533 O535 2.326 . S
In533 O539 2.266 . S
In533 O540 2.326 . S
In533 O541 2.266 . S
In533 O542 2.326 . S
In533 O544 2.294 . S
In533 O545 2.326 . S
O534 In533 2.294 . S
O534 C543 1.240 . S
O535 In533 2.326 . S
O535 C543 1.252 . S
C536 O539 1.252 . S
C536 O540 1.260 . S
C537 O544 1.240 . S
C537 O545 1.252 . S
C538 O541 1.252 . S
C538 O542 1.260 . S
O539 In533 2.266 . S
O539 C536 1.252 . S
O540 In533 2.326 . S
O540 C536 1.260 . S
O541 In533 2.266 . S
O541 C538 1.252 . S
O542 In533 2.326 . S
O542 C538 1.260 . S
C543 O534 1.240 . S
C543 O535 1.252 . S
O544 In533 2.294 . S
O544 C537 1.240 . S
O545 In533 2.326 . S
O545 C537 1.252 . S
In546 O547 2.294 . S
In546 O548 2.326 . S
In546 O552 2.266 . S
In546 O553 2.326 . S
In546 O554 2.266 . S
In546 O555 2.326 . S
In546 O557 2.294 . S
In546 O558 2.326 . S
O547 In546 2.294 . S
O547 C556 1.240 . S
O548 In546 2.326 . S
O548 C556 1.252 . S
C549 O552 1.252 . S
C549 O553 1.260 . S
C550 O557 1.240 . S
C550 O558 1.252 . S
C551 O554 1.252 . S
C551 O555 1.260 . S
O552 In546 2.266 . S
O552 C549 1.252 . S
O553 In546 2.326 . S
O553 C549 1.260 . S
O554 In546 2.266 . S
O554 C551 1.252 . S
O555 In546 2.326 . S
O555 C551 1.260 . S
C556 O547 1.240 . S
C556 O548 1.252 . S
O557 In546 2.294 . S
O557 C550 1.240 . S
O558 In546 2.326 . S
O558 C550 1.252 . S
In559 O560 2.294 . S
In559 O561 2.326 . S
In559 O565 2.266 . S
In559 O566 2.326 . S
In559 O567 2.266 . S
In559 O568 2.326 . S
In559 O570 2.294 . S
In559 O571 2.326 . S
O560 In559 2.294 . S
O560 C569 1.240 . S
O561 In559 2.326 . S
O561 C569 1.252 . S
C562 O565 1.252 . S
C562 O566 1.260 . S
C563 O570 1.240 . S
C563 O571 1.252 . S
C564 O567 1.252 . S
C564 O568 1.260 . S
O565 In559 2.266 . S
O565 C562 1.252 . S
O566 In559 2.326 . S
O566 C562 1.260 . S
O567 In559 2.266 . S
O567 C564 1.252 . S
O568 In559 2.326 . S
O568 C564 1.260 . S
C569 O560 1.240 . S
C569 O561 1.252 . S
O570 In559 2.294 . S
O570 C563 1.240 . S
O571 In559 2.326 . S
O571 C563 1.252 . S
In572 O573 2.294 . S
In572 O574 2.326 . S
In572 O578 2.266 . S
In572 O579 2.326 . S
In572 O580 2.266 . S
In572 O581 2.326 . S
In572 O583 2.294 . S
In572 O584 2.326 . S
O573 In572 2.294 . S
O573 C582 1.240 . S
O574 In572 2.326 . S
O574 C582 1.252 . S
C575 O578 1.252 . S
C575 O579 1.260 . S
C576 O583 1.240 . S
C576 O584 1.252 . S
C577 O580 1.252 . S
C577 O581 1.260 . S
O578 In572 2.266 . S
O578 C575 1.252 . S
O579 In572 2.326 . S
O579 C575 1.260 . S
O580 In572 2.266 . S
O580 C577 1.252 . S
O581 In572 2.326 . S
O581 C577 1.260 . S
C582 O573 1.240 . S
C582 O574 1.252 . S
O583 In572 2.294 . S
O583 C576 1.240 . S
O584 In572 2.326 . S
O584 C576 1.252 . S
In585 O586 2.294 . S
In585 O587 2.326 . S
In585 O591 2.266 . S
In585 O592 2.326 . S
In585 O593 2.266 . S
In585 O594 2.326 . S
In585 O596 2.294 . S
In585 O597 2.326 . S
O586 In585 2.294 . S
O586 C595 1.240 . S
O587 In585 2.326 . S
O587 C595 1.252 . S
C588 O591 1.252 . S
C588 O592 1.260 . S
C589 O596 1.240 . S
C589 O597 1.252 . S
C590 O593 1.252 . S
C590 O594 1.260 . S
O591 In585 2.266 . S
O591 C588 1.252 . S
O592 In585 2.326 . S
O592 C588 1.260 . S
O593 In585 2.266 . S
O593 C590 1.252 . S
O594 In585 2.326 . S
O594 C590 1.260 . S
C595 O586 1.240 . S
C595 O587 1.252 . S
O596 In585 2.294 . S
O596 C589 1.240 . S
O597 In585 2.326 . S
O597 C589 1.252 . S
In598 O599 2.294 . S
In598 O600 2.326 . S
In598 O604 2.266 . S
In598 O605 2.326 . S
In598 O606 2.266 . S
In598 O607 2.326 . S
In598 O609 2.294 . S
In598 O610 2.326 . S
O599 In598 2.294 . S
O599 C608 1.240 . S
O600 In598 2.326 . S
O600 C608 1.252 . S
C601 O604 1.252 . S
C601 O605 1.260 . S
C602 O609 1.240 . S
C602 O610 1.252 . S
C603 O606 1.252 . S
C603 O607 1.260 . S
O604 In598 2.266 . S
O604 C601 1.252 . S
O605 In598 2.326 . S
O605 C601 1.260 . S
O606 In598 2.266 . S
O606 C603 1.252 . S
O607 In598 2.326 . S
O607 C603 1.260 . S
C608 O599 1.240 . S
C608 O600 1.252 . S
O609 In598 2.294 . S
O609 C602 1.240 . S
O610 In598 2.326 . S
O610 C602 1.252 . S
In611 O612 2.294 . S
In611 O613 2.326 . S
In611 O617 2.266 . S
In611 O618 2.326 . S
In611 O619 2.266 . S
In611 O620 2.326 . S
In611 O622 2.294 . S
In611 O623 2.326 . S
O612 In611 2.294 . S
O612 C621 1.240 . S
O613 In611 2.326 . S
O613 C621 1.252 . S
C614 O617 1.252 . S
C614 O618 1.260 . S
C615 O622 1.240 . S
C615 O623 1.252 . S
C616 O619 1.252 . S
C616 O620 1.260 . S
O617 In611 2.266 . S
O617 C614 1.252 . S
O618 In611 2.326 . S
O618 C614 1.260 . S
O619 In611 2.266 . S
O619 C616 1.252 . S
O620 In611 2.326 . S
O620 C616 1.260 . S
C621 O612 1.240 . S
C621 O613 1.252 . S
O622 In611 2.294 . S
O622 C615 1.240 . S
O623 In611 2.326 . S
O623 C615 1.252 . S
C624 C625 1.349 . S
C624 C626 1.327 . S
C624 H649 0.950 . S
C625 C624 1.349 . S
C625 C641 1.349 . S
C626 C624 1.327 . S
C626 C645 1.429 . S
C626 H650 0.950 . S
C627 C644 1.574 . S
C627 C646 1.368 . S
C627 H651 0.949 . S
H628 C632 0.949 . S
C629 C630 1.349 . S
C629 C631 1.327 . S
C629 H652 0.950 . S
C630 C629 1.349 . S
C630 C642 1.349 . S
C631 C629 1.327 . S
C631 C647 1.429 . S
C631 H653 0.950 . S
C632 H628 0.949 . S
C632 C640 1.574 . S
C632 C648 1.368 . S
H633 C641 0.950 . S
H634 C639 0.950 . S
H635 C640 0.949 . S
H636 C642 0.950 . S
H637 C643 0.950 . S
H638 C644 0.949 . S
C639 H634 0.950 . S
C639 C641 1.327 . S
C639 C645 1.429 . S
C640 C632 1.574 . S
C640 H635 0.949 . S
C640 C646 1.368 . S
C641 C625 1.349 . S
C641 H633 0.950 . S
C641 C639 1.327 . S
C642 C630 1.349 . S
C642 H636 0.950 . S
C642 C643 1.327 . S
C643 H637 0.950 . S
C643 C642 1.327 . S
C643 C647 1.429 . S
C644 C627 1.574 . S
C644 H638 0.949 . S
C644 C648 1.368 . S
C645 C626 1.429 . S
C645 C639 1.429 . S
C645 C646 1.523 . S
C646 C627 1.368 . S
C646 C640 1.368 . S
C646 C645 1.523 . S
C647 C631 1.429 . S
C647 C643 1.429 . S
C647 C648 1.523 . S
C648 C632 1.368 . S
C648 C644 1.368 . S
C648 C647 1.523 . S
H649 C624 0.950 . S
H650 C626 0.950 . S
H651 C627 0.949 . S
H652 C629 0.950 . S
H653 C631 0.950 . S
C654 C655 1.349 . S
C654 C656 1.327 . S
C654 H679 0.950 . S
C655 C654 1.349 . S
C655 C671 1.349 . S
C656 C654 1.327 . S
C656 C675 1.429 . S
C656 H680 0.950 . S
C657 C674 1.574 . S
C657 C676 1.368 . S
C657 H681 0.949 . S
H658 C662 0.949 . S
C659 C660 1.349 . S
C659 C661 1.327 . S
C659 H682 0.950 . S
C660 C659 1.349 . S
C660 C672 1.349 . S
C661 C659 1.327 . S
C661 C677 1.429 . S
C661 H683 0.950 . S
C662 H658 0.949 . S
C662 C670 1.574 . S
C662 C678 1.368 . S
H663 C671 0.950 . S
H664 C669 0.950 . S
H665 C670 0.949 . S
H666 C672 0.950 . S
H667 C673 0.950 . S
H668 C674 0.949 . S
C669 H664 0.950 . S
C669 C671 1.327 . S
C669 C675 1.429 . S
C670 C662 1.574 . S
C670 H665 0.949 . S
C670 C676 1.368 . S
C671 C655 1.349 . S
C671 H663 0.950 . S
C671 C669 1.327 . S
C672 C660 1.349 . S
C672 H666 0.950 . S
C672 C673 1.327 . S
C673 H667 0.950 . S
C673 C672 1.327 . S
C673 C677 1.429 . S
C674 C657 1.574 . S
C674 H668 0.949 . S
C674 C678 1.368 . S
C675 C656 1.429 . S
C675 C669 1.429 . S
C675 C676 1.523 . S
C676 C657 1.368 . S
C676 C670 1.368 . S
C676 C675 1.523 . S
C677 C661 1.429 . S
C677 C673 1.429 . S
C677 C678 1.523 . S
C678 C662 1.368 . S
C678 C674 1.368 . S
C678 C677 1.523 . S
H679 C654 0.950 . S
H680 C656 0.950 . S
H681 C657 0.949 . S
H682 C659 0.950 . S
H683 C661 0.950 . S
C684 C685 1.349 . S
C684 C686 1.327 . S
C684 H709 0.950 . S
C685 C684 1.349 . S
C685 C701 1.349 . S
C686 C684 1.327 . S
C686 C705 1.429 . S
C686 H710 0.950 . S
C687 C704 1.574 . S
C687 C706 1.368 . S
C687 H711 0.949 . S
H688 C692 0.949 . S
C689 C690 1.349 . S
C689 C691 1.327 . S
C689 H712 0.950 . S
C690 C689 1.349 . S
C690 C702 1.349 . S
C691 C689 1.327 . S
C691 C707 1.429 . S
C691 H713 0.950 . S
C692 H688 0.949 . S
C692 C700 1.574 . S
C692 C708 1.368 . S
H693 C701 0.950 . S
H694 C699 0.950 . S
H695 C700 0.949 . S
H696 C702 0.950 . S
H697 C703 0.950 . S
H698 C704 0.949 . S
C699 H694 0.950 . S
C699 C701 1.327 . S
C699 C705 1.429 . S
C700 C692 1.574 . S
C700 H695 0.949 . S
C700 C706 1.368 . S
C701 C685 1.349 . S
C701 H693 0.950 . S
C701 C699 1.327 . S
C702 C690 1.349 . S
C702 H696 0.950 . S
C702 C703 1.327 . S
C703 H697 0.950 . S
C703 C702 1.327 . S
C703 C707 1.429 . S
C704 C687 1.574 . S
C704 H698 0.949 . S
C704 C708 1.368 . S
C705 C686 1.429 . S
C705 C699 1.429 . S
C705 C706 1.523 . S
C706 C687 1.368 . S
C706 C700 1.368 . S
C706 C705 1.523 . S
C707 C691 1.429 . S
C707 C703 1.429 . S
C707 C708 1.523 . S
C708 C692 1.368 . S
C708 C704 1.368 . S
C708 C707 1.523 . S
H709 C684 0.950 . S
H710 C686 0.950 . S
H711 C687 0.949 . S
H712 C689 0.950 . S
H713 C691 0.950 . S
C714 C715 1.349 . S
C714 C716 1.327 . S
C714 H739 0.950 . S
C715 C714 1.349 . S
C715 C731 1.349 . S
C716 C714 1.327 . S
C716 C735 1.429 . S
C716 H740 0.950 . S
C717 C734 1.574 . S
C717 C736 1.368 . S
C717 H741 0.949 . S
H718 C722 0.949 . S
C719 C720 1.349 . S
C719 C721 1.327 . S
C719 H742 0.950 . S
C720 C719 1.349 . S
C720 C732 1.349 . S
C721 C719 1.327 . S
C721 C737 1.429 . S
C721 H743 0.950 . S
C722 H718 0.949 . S
C722 C730 1.574 . S
C722 C738 1.368 . S
H723 C731 0.950 . S
H724 C729 0.950 . S
H725 C730 0.949 . S
H726 C732 0.950 . S
H727 C733 0.950 . S
H728 C734 0.949 . S
C729 H724 0.950 . S
C729 C731 1.327 . S
C729 C735 1.429 . S
C730 C722 1.574 . S
C730 H725 0.949 . S
C730 C736 1.368 . S
C731 C715 1.349 . S
C731 H723 0.950 . S
C731 C729 1.327 . S
C732 C720 1.349 . S
C732 H726 0.950 . S
C732 C733 1.327 . S
C733 H727 0.950 . S
C733 C732 1.327 . S
C733 C737 1.429 . S
C734 C717 1.574 . S
C734 H728 0.949 . S
C734 C738 1.368 . S
C735 C716 1.429 . S
C735 C729 1.429 . S
C735 C736 1.523 . S
C736 C717 1.368 . S
C736 C730 1.368 . S
C736 C735 1.523 . S
C737 C721 1.429 . S
C737 C733 1.429 . S
C737 C738 1.523 . S
C738 C722 1.368 . S
C738 C734 1.368 . S
C738 C737 1.523 . S
H739 C714 0.950 . S
H740 C716 0.950 . S
H741 C717 0.949 . S
H742 C719 0.950 . S
H743 C721 0.950 . S
C744 C745 1.349 . S
C744 C746 1.327 . S
C744 H769 0.950 . S
C745 C744 1.349 . S
C745 C761 1.349 . S
C746 C744 1.327 . S
C746 C765 1.429 . S
C746 H770 0.950 . S
C747 C764 1.574 . S
C747 C766 1.368 . S
C747 H771 0.949 . S
H748 C752 0.949 . S
C749 C750 1.349 . S
C749 C751 1.327 . S
C749 H772 0.950 . S
C750 C749 1.349 . S
C750 C762 1.349 . S
C751 C749 1.327 . S
C751 C767 1.429 . S
C751 H773 0.950 . S
C752 H748 0.949 . S
C752 C760 1.574 . S
C752 C768 1.368 . S
H753 C761 0.950 . S
H754 C759 0.950 . S
H755 C760 0.949 . S
H756 C762 0.950 . S
H757 C763 0.950 . S
H758 C764 0.949 . S
C759 H754 0.950 . S
C759 C761 1.327 . S
C759 C765 1.429 . S
C760 C752 1.574 . S
C760 H755 0.949 . S
C760 C766 1.368 . S
C761 C745 1.349 . S
C761 H753 0.950 . S
C761 C759 1.327 . S
C762 C750 1.349 . S
C762 H756 0.950 . S
C762 C763 1.327 . S
C763 H757 0.950 . S
C763 C762 1.327 . S
C763 C767 1.429 . S
C764 C747 1.574 . S
C764 H758 0.949 . S
C764 C768 1.368 . S
C765 C746 1.429 . S
C765 C759 1.429 . S
C765 C766 1.523 . S
C766 C747 1.368 . S
C766 C760 1.368 . S
C766 C765 1.523 . S
C767 C751 1.429 . S
C767 C763 1.429 . S
C767 C768 1.523 . S
C768 C752 1.368 . S
C768 C764 1.368 . S
C768 C767 1.523 . S
H769 C744 0.950 . S
H770 C746 0.950 . S
H771 C747 0.949 . S
H772 C749 0.950 . S
H773 C751 0.950 . S
C774 C775 1.349 . S
C774 C776 1.327 . S
C774 H799 0.950 . S
C775 C774 1.349 . S
C775 C791 1.349 . S
C776 C774 1.327 . S
C776 C795 1.429 . S
C776 H800 0.950 . S
C777 C794 1.574 . S
C777 C796 1.368 . S
C777 H801 0.949 . S
H778 C782 0.949 . S
C779 C780 1.349 . S
C779 C781 1.327 . S
C779 H802 0.950 . S
C780 C779 1.349 . S
C780 C792 1.349 . S
C781 C779 1.327 . S
C781 C797 1.429 . S
C781 H803 0.950 . S
C782 H778 0.949 . S
C782 C790 1.574 . S
C782 C798 1.368 . S
H783 C791 0.950 . S
H784 C789 0.950 . S
H785 C790 0.949 . S
H786 C792 0.950 . S
H787 C793 0.950 . S
H788 C794 0.949 . S
C789 H784 0.950 . S
C789 C791 1.327 . S
C789 C795 1.429 . S
C790 C782 1.574 . S
C790 H785 0.949 . S
C790 C796 1.368 . S
C791 C775 1.349 . S
C791 H783 0.950 . S
C791 C789 1.327 . S
C792 C780 1.349 . S
C792 H786 0.950 . S
C792 C793 1.327 . S
C793 H787 0.950 . S
C793 C792 1.327 . S
C793 C797 1.429 . S
C794 C777 1.574 . S
C794 H788 0.949 . S
C794 C798 1.368 . S
C795 C776 1.429 . S
C795 C789 1.429 . S
C795 C796 1.523 . S
C796 C777 1.368 . S
C796 C790 1.368 . S
C796 C795 1.523 . S
C797 C781 1.429 . S
C797 C793 1.429 . S
C797 C798 1.523 . S
C798 C782 1.368 . S
C798 C794 1.368 . S
C798 C797 1.523 . S
H799 C774 0.950 . S
H800 C776 0.950 . S
H801 C777 0.949 . S
H802 C779 0.950 . S
H803 C781 0.950 . S
C804 C805 1.349 . S
C804 C806 1.327 . S
C804 H829 0.950 . S
C805 C804 1.349 . S
C805 C821 1.349 . S
C806 C804 1.327 . S
C806 C825 1.429 . S
C806 H830 0.950 . S
C807 C824 1.574 . S
C807 C826 1.368 . S
C807 H831 0.949 . S
H808 C812 0.949 . S
C809 C810 1.349 . S
C809 C811 1.327 . S
C809 H832 0.950 . S
C810 C809 1.349 . S
C810 C822 1.349 . S
C811 C809 1.327 . S
C811 C827 1.429 . S
C811 H833 0.950 . S
C812 H808 0.949 . S
C812 C820 1.574 . S
C812 C828 1.368 . S
H813 C821 0.950 . S
H814 C819 0.950 . S
H815 C820 0.949 . S
H816 C822 0.950 . S
H817 C823 0.950 . S
H818 C824 0.949 . S
C819 H814 0.950 . S
C819 C821 1.327 . S
C819 C825 1.429 . S
C820 C812 1.574 . S
C820 H815 0.949 . S
C820 C826 1.368 . S
C821 C805 1.349 . S
C821 H813 0.950 . S
C821 C819 1.327 . S
C822 C810 1.349 . S
C822 H816 0.950 . S
C822 C823 1.327 . S
C823 H817 0.950 . S
C823 C822 1.327 . S
C823 C827 1.429 . S
C824 C807 1.574 . S
C824 H818 0.949 . S
C824 C828 1.368 . S
C825 C806 1.429 . S
C825 C819 1.429 . S
C825 C826 1.523 . S
C826 C807 1.368 . S
C826 C820 1.368 . S
C826 C825 1.523 . S
C827 C811 1.429 . S
C827 C823 1.429 . S
C827 C828 1.523 . S
C828 C812 1.368 . S
C828 C824 1.368 . S
C828 C827 1.523 . S
H829 C804 0.950 . S
H830 C806 0.950 . S
H831 C807 0.949 . S
H832 C809 0.950 . S
H833 C811 0.950 . S
C834 C835 1.349 . S
C834 C836 1.327 . S
C834 H859 0.950 . S
C835 C834 1.349 . S
C835 C851 1.349 . S
C836 C834 1.327 . S
C836 C855 1.429 . S
C836 H860 0.950 . S
C837 C854 1.574 . S
C837 C856 1.368 . S
C837 H861 0.949 . S
H838 C842 0.949 . S
C839 C840 1.349 . S
C839 C841 1.327 . S
C839 H862 0.950 . S
C840 C839 1.349 . S
C840 C852 1.349 . S
C841 C839 1.327 . S
C841 C857 1.429 . S
C841 H863 0.950 . S
C842 H838 0.949 . S
C842 C850 1.574 . S
C842 C858 1.368 . S
H843 C851 0.950 . S
H844 C849 0.950 . S
H845 C850 0.949 . S
H846 C852 0.950 . S
H847 C853 0.950 . S
H848 C854 0.949 . S
C849 H844 0.950 . S
C849 C851 1.327 . S
C849 C855 1.429 . S
C850 C842 1.574 . S
C850 H845 0.949 . S
C850 C856 1.368 . S
C851 C835 1.349 . S
C851 H843 0.950 . S
C851 C849 1.327 . S
C852 C840 1.349 . S
C852 H846 0.950 . S
C852 C853 1.327 . S
C853 H847 0.950 . S
C853 C852 1.327 . S
C853 C857 1.429 . S
C854 C837 1.574 . S
C854 H848 0.949 . S
C854 C858 1.368 . S
C855 C836 1.429 . S
C855 C849 1.429 . S
C855 C856 1.523 . S
C856 C837 1.368 . S
C856 C850 1.368 . S
C856 C855 1.523 . S
C857 C841 1.429 . S
C857 C853 1.429 . S
C857 C858 1.523 . S
C858 C842 1.368 . S
C858 C854 1.368 . S
C858 C857 1.523 . S
H859 C834 0.950 . S
H860 C836 0.950 . S
H861 C837 0.949 . S
H862 C839 0.950 . S
H863 C841 0.950 . S
C864 C865 1.349 . S
C864 C866 1.327 . S
C864 H889 0.950 . S
C865 C864 1.349 . S
C865 C881 1.349 . S
C866 C864 1.327 . S
C866 C885 1.429 . S
C866 H890 0.950 . S
C867 C884 1.574 . S
C867 C886 1.368 . S
C867 H891 0.949 . S
H868 C872 0.949 . S
C869 C870 1.349 . S
C869 C871 1.327 . S
C869 H892 0.950 . S
C870 C869 1.349 . S
C870 C882 1.349 . S
C871 C869 1.327 . S
C871 C887 1.429 . S
C871 H893 0.950 . S
C872 H868 0.949 . S
C872 C880 1.574 . S
C872 C888 1.368 . S
H873 C881 0.950 . S
H874 C879 0.950 . S
H875 C880 0.949 . S
H876 C882 0.950 . S
H877 C883 0.950 . S
H878 C884 0.949 . S
C879 H874 0.950 . S
C879 C881 1.327 . S
C879 C885 1.429 . S
C880 C872 1.574 . S
C880 H875 0.949 . S
C880 C886 1.368 . S
C881 C865 1.349 . S
C881 H873 0.950 . S
C881 C879 1.327 . S
C882 C870 1.349 . S
C882 H876 0.950 . S
C882 C883 1.327 . S
C883 H877 0.950 . S
C883 C882 1.327 . S
C883 C887 1.429 . S
C884 C867 1.574 . S
C884 H878 0.949 . S
C884 C888 1.368 . S
C885 C866 1.429 . S
C885 C879 1.429 . S
C885 C886 1.523 . S
C886 C867 1.368 . S
C886 C880 1.368 . S
C886 C885 1.523 . S
C887 C871 1.429 . S
C887 C883 1.429 . S
C887 C888 1.523 . S
C888 C872 1.368 . S
C888 C884 1.368 . S
C888 C887 1.523 . S
H889 C864 0.950 . S
H890 C866 0.950 . S
H891 C867 0.949 . S
H892 C869 0.950 . S
H893 C871 0.950 . S
C894 C895 1.349 . S
C894 C896 1.327 . S
C894 H919 0.950 . S
C895 C894 1.349 . S
C895 C911 1.349 . S
C896 C894 1.327 . S
C896 C915 1.429 . S
C896 H920 0.950 . S
C897 C914 1.574 . S
C897 C916 1.368 . S
C897 H921 0.949 . S
H898 C902 0.949 . S
C899 C900 1.349 . S
C899 C901 1.327 . S
C899 H922 0.950 . S
C900 C899 1.349 . S
C900 C912 1.349 . S
C901 C899 1.327 . S
C901 C917 1.429 . S
C901 H923 0.950 . S
C902 H898 0.949 . S
C902 C910 1.574 . S
C902 C918 1.368 . S
H903 C911 0.950 . S
H904 C909 0.950 . S
H905 C910 0.949 . S
H906 C912 0.950 . S
H907 C913 0.950 . S
H908 C914 0.949 . S
C909 H904 0.950 . S
C909 C911 1.327 . S
C909 C915 1.429 . S
C910 C902 1.574 . S
C910 H905 0.949 . S
C910 C916 1.368 . S
C911 C895 1.349 . S
C911 H903 0.950 . S
C911 C909 1.327 . S
C912 C900 1.349 . S
C912 H906 0.950 . S
C912 C913 1.327 . S
C913 H907 0.950 . S
C913 C912 1.327 . S
C913 C917 1.429 . S
C914 C897 1.574 . S
C914 H908 0.949 . S
C914 C918 1.368 . S
C915 C896 1.429 . S
C915 C909 1.429 . S
C915 C916 1.523 . S
C916 C897 1.368 . S
C916 C910 1.368 . S
C916 C915 1.523 . S
C917 C901 1.429 . S
C917 C913 1.429 . S
C917 C918 1.523 . S
C918 C902 1.368 . S
C918 C914 1.368 . S
C918 C917 1.523 . S
H919 C894 0.950 . S
H920 C896 0.950 . S
H921 C897 0.949 . S
H922 C899 0.950 . S
H923 C901 0.950 . S
C924 C925 1.349 . S
C924 C926 1.327 . S
C924 H949 0.950 . S
C925 C924 1.349 . S
C925 C941 1.349 . S
C926 C924 1.327 . S
C926 C945 1.429 . S
C926 H950 0.950 . S
C927 C944 1.574 . S
C927 C946 1.368 . S
C927 H951 0.949 . S
H928 C932 0.949 . S
C929 C930 1.349 . S
C929 C931 1.327 . S
C929 H952 0.950 . S
C930 C929 1.349 . S
C930 C942 1.349 . S
C931 C929 1.327 . S
C931 C947 1.429 . S
C931 H953 0.950 . S
C932 H928 0.949 . S
C932 C940 1.574 . S
C932 C948 1.368 . S
H933 C941 0.950 . S
H934 C939 0.950 . S
H935 C940 0.949 . S
H936 C942 0.950 . S
H937 C943 0.950 . S
H938 C944 0.949 . S
C939 H934 0.950 . S
C939 C941 1.327 . S
C939 C945 1.429 . S
C940 C932 1.574 . S
C940 H935 0.949 . S
C940 C946 1.368 . S
C941 C925 1.349 . S
C941 H933 0.950 . S
C941 C939 1.327 . S
C942 C930 1.349 . S
C942 H936 0.950 . S
C942 C943 1.327 . S
C943 H937 0.950 . S
C943 C942 1.327 . S
C943 C947 1.429 . S
C944 C927 1.574 . S
C944 H938 0.949 . S
C944 C948 1.368 . S
C945 C926 1.429 . S
C945 C939 1.429 . S
C945 C946 1.523 . S
C946 C927 1.368 . S
C946 C940 1.368 . S
C946 C945 1.523 . S
C947 C931 1.429 . S
C947 C943 1.429 . S
C947 C948 1.523 . S
C948 C932 1.368 . S
C948 C944 1.368 . S
C948 C947 1.523 . S
H949 C924 0.950 . S
H950 C926 0.950 . S
H951 C927 0.949 . S
H952 C929 0.950 . S
H953 C931 0.950 . S
C954 C955 1.349 . S
C954 C956 1.327 . S
C954 H979 0.950 . S
C955 C954 1.349 . S
C955 C971 1.349 . S
C956 C954 1.327 . S
C956 C975 1.429 . S
C956 H980 0.950 . S
C957 C974 1.574 . S
C957 C976 1.368 . S
C957 H981 0.949 . S
H958 C962 0.949 . S
C959 C960 1.349 . S
C959 C961 1.327 . S
C959 H982 0.950 . S
C960 C959 1.349 . S
C960 C972 1.349 . S
C961 C959 1.327 . S
C961 C977 1.429 . S
C961 H983 0.950 . S
C962 H958 0.949 . S
C962 C970 1.574 . S
C962 C978 1.368 . S
H963 C971 0.950 . S
H964 C969 0.950 . S
H965 C970 0.949 . S
H966 C972 0.950 . S
H967 C973 0.950 . S
H968 C974 0.949 . S
C969 H964 0.950 . S
C969 C971 1.327 . S
C969 C975 1.429 . S
C970 C962 1.574 . S
C970 H965 0.949 . S
C970 C976 1.368 . S
C971 C955 1.349 . S
C971 H963 0.950 . S
C971 C969 1.327 . S
C972 C960 1.349 . S
C972 H966 0.950 . S
C972 C973 1.327 . S
C973 H967 0.950 . S
C973 C972 1.327 . S
C973 C977 1.429 . S
C974 C957 1.574 . S
C974 H968 0.949 . S
C974 C978 1.368 . S
C975 C956 1.429 . S
C975 C969 1.429 . S
C975 C976 1.523 . S
C976 C957 1.368 . S
C976 C970 1.368 . S
C976 C975 1.523 . S
C977 C961 1.429 . S
C977 C973 1.429 . S
C977 C978 1.523 . S
C978 C962 1.368 . S
C978 C974 1.368 . S
C978 C977 1.523 . S
H979 C954 0.950 . S
H980 C956 0.950 . S
H981 C957 0.949 . S
H982 C959 0.950 . S
H983 C961 0.950 . S
C984 C985 1.349 . S
C984 C986 1.327 . S
C984 H1009 0.950 . S
C985 C984 1.349 . S
C985 C1001 1.349 . S
C986 C984 1.327 . S
C986 C1005 1.429 . S
C986 H1010 0.950 . S
C987 C1004 1.574 . S
C987 C1006 1.368 . S
C987 H1011 0.949 . S
H988 C992 0.949 . S
C989 C990 1.349 . S
C989 C991 1.327 . S
C989 H1012 0.950 . S
C990 C989 1.349 . S
C990 C1002 1.349 . S
C991 C989 1.327 . S
C991 C1007 1.429 . S
C991 H1013 0.950 . S
C992 H988 0.949 . S
C992 C1000 1.574 . S
C992 C1008 1.368 . S
H993 C1001 0.950 . S
H994 C999 0.950 . S
H995 C1000 0.949 . S
H996 C1002 0.950 . S
H997 C1003 0.950 . S
H998 C1004 0.949 . S
C999 H994 0.950 . S
C999 C1001 1.327 . S
C999 C1005 1.429 . S
C1000 C992 1.574 . S
C1000 H995 0.949 . S
C1000 C1006 1.368 . S
C1001 C985 1.349 . S
C1001 H993 0.950 . S
C1001 C999 1.327 . S
C1002 C990 1.349 . S
C1002 H996 0.950 . S
C1002 C1003 1.327 . S
C1003 H997 0.950 . S
C1003 C1002 1.327 . S
C1003 C1007 1.429 . S
C1004 C987 1.574 . S
C1004 H998 0.949 . S
C1004 C1008 1.368 . S
C1005 C986 1.429 . S
C1005 C999 1.429 . S
C1005 C1006 1.523 . S
C1006 C987 1.368 . S
C1006 C1000 1.368 . S
C1006 C1005 1.523 . S
C1007 C991 1.429 . S
C1007 C1003 1.429 . S
C1007 C1008 1.523 . S
C1008 C992 1.368 . S
C1008 C1004 1.368 . S
C1008 C1007 1.523 . S
H1009 C984 0.950 . S
H1010 C986 0.950 . S
H1011 C987 0.949 . S
H1012 C989 0.950 . S
H1013 C991 0.950 . S
C1014 C1015 1.349 . S
C1014 C1016 1.327 . S
C1014 H1039 0.950 . S
C1015 C1014 1.349 . S
C1015 C1031 1.349 . S
C1016 C1014 1.327 . S
C1016 C1035 1.429 . S
C1016 H1040 0.950 . S
C1017 C1034 1.574 . S
C1017 C1036 1.368 . S
C1017 H1041 0.949 . S
H1018 C1022 0.949 . S
C1019 C1020 1.349 . S
C1019 C1021 1.327 . S
C1019 H1042 0.950 . S
C1020 C1019 1.349 . S
C1020 C1032 1.349 . S
C1021 C1019 1.327 . S
C1021 C1037 1.429 . S
C1021 H1043 0.950 . S
C1022 H1018 0.949 . S
C1022 C1030 1.574 . S
C1022 C1038 1.368 . S
H1023 C1031 0.950 . S
H1024 C1029 0.950 . S
H1025 C1030 0.949 . S
H1026 C1032 0.950 . S
H1027 C1033 0.950 . S
H1028 C1034 0.949 . S
C1029 H1024 0.950 . S
C1029 C1031 1.327 . S
C1029 C1035 1.429 . S
C1030 C1022 1.574 . S
C1030 H1025 0.949 . S
C1030 C1036 1.368 . S
C1031 C1015 1.349 . S
C1031 H1023 0.950 . S
C1031 C1029 1.327 . S
C1032 C1020 1.349 . S
C1032 H1026 0.950 . S
C1032 C1033 1.327 . S
C1033 H1027 0.950 . S
C1033 C1032 1.327 . S
C1033 C1037 1.429 . S
C1034 C1017 1.574 . S
C1034 H1028 0.949 . S
C1034 C1038 1.368 . S
C1035 C1016 1.429 . S
C1035 C1029 1.429 . S
C1035 C1036 1.523 . S
C1036 C1017 1.368 . S
C1036 C1030 1.368 . S
C1036 C1035 1.523 . S
C1037 C1021 1.429 . S
C1037 C1033 1.429 . S
C1037 C1038 1.523 . S
C1038 C1022 1.368 . S
C1038 C1034 1.368 . S
C1038 C1037 1.523 . S
H1039 C1014 0.950 . S
H1040 C1016 0.950 . S
H1041 C1017 0.949 . S
H1042 C1019 0.950 . S
H1043 C1021 0.950 . S
C1044 C1045 1.349 . S
C1044 C1046 1.327 . S
C1044 H1069 0.950 . S
C1045 C1044 1.349 . S
C1045 C1061 1.349 . S
C1046 C1044 1.327 . S
C1046 C1065 1.429 . S
C1046 H1070 0.950 . S
C1047 C1064 1.574 . S
C1047 C1066 1.368 . S
C1047 H1071 0.949 . S
H1048 C1052 0.949 . S
C1049 C1050 1.349 . S
C1049 C1051 1.327 . S
C1049 H1072 0.950 . S
C1050 C1049 1.349 . S
C1050 C1062 1.349 . S
C1051 C1049 1.327 . S
C1051 C1067 1.429 . S
C1051 H1073 0.950 . S
C1052 H1048 0.949 . S
C1052 C1060 1.574 . S
C1052 C1068 1.368 . S
H1053 C1061 0.950 . S
H1054 C1059 0.950 . S
H1055 C1060 0.949 . S
H1056 C1062 0.950 . S
H1057 C1063 0.950 . S
H1058 C1064 0.949 . S
C1059 H1054 0.950 . S
C1059 C1061 1.327 . S
C1059 C1065 1.429 . S
C1060 C1052 1.574 . S
C1060 H1055 0.949 . S
C1060 C1066 1.368 . S
C1061 C1045 1.349 . S
C1061 H1053 0.950 . S
C1061 C1059 1.327 . S
C1062 C1050 1.349 . S
C1062 H1056 0.950 . S
C1062 C1063 1.327 . S
C1063 H1057 0.950 . S
C1063 C1062 1.327 . S
C1063 C1067 1.429 . S
C1064 C1047 1.574 . S
C1064 H1058 0.949 . S
C1064 C1068 1.368 . S
C1065 C1046 1.429 . S
C1065 C1059 1.429 . S
C1065 C1066 1.523 . S
C1066 C1047 1.368 . S
C1066 C1060 1.368 . S
C1066 C1065 1.523 . S
C1067 C1051 1.429 . S
C1067 C1063 1.429 . S
C1067 C1068 1.523 . S
C1068 C1052 1.368 . S
C1068 C1064 1.368 . S
C1068 C1067 1.523 . S
H1069 C1044 0.950 . S
H1070 C1046 0.950 . S
H1071 C1047 0.949 . S
H1072 C1049 0.950 . S
H1073 C1051 0.950 . S
C1074 C1075 1.349 . S
C1074 C1076 1.327 . S
C1074 H1099 0.950 . S
C1075 C1074 1.349 . S
C1075 C1091 1.349 . S
C1076 C1074 1.327 . S
C1076 C1095 1.429 . S
C1076 H1100 0.950 . S
C1077 C1094 1.574 . S
C1077 C1096 1.368 . S
C1077 H1101 0.949 . S
H1078 C1082 0.949 . S
C1079 C1080 1.349 . S
C1079 C1081 1.327 . S
C1079 H1102 0.950 . S
C1080 C1079 1.349 . S
C1080 C1092 1.349 . S
C1081 C1079 1.327 . S
C1081 C1097 1.429 . S
C1081 H1103 0.950 . S
C1082 H1078 0.949 . S
C1082 C1090 1.574 . S
C1082 C1098 1.368 . S
H1083 C1091 0.950 . S
H1084 C1089 0.950 . S
H1085 C1090 0.949 . S
H1086 C1092 0.950 . S
H1087 C1093 0.950 . S
H1088 C1094 0.949 . S
C1089 H1084 0.950 . S
C1089 C1091 1.327 . S
C1089 C1095 1.429 . S
C1090 C1082 1.574 . S
C1090 H1085 0.949 . S
C1090 C1096 1.368 . S
C1091 C1075 1.349 . S
C1091 H1083 0.950 . S
C1091 C1089 1.327 . S
C1092 C1080 1.349 . S
C1092 H1086 0.950 . S
C1092 C1093 1.327 . S
C1093 H1087 0.950 . S
C1093 C1092 1.327 . S
C1093 C1097 1.429 . S
C1094 C1077 1.574 . S
C1094 H1088 0.949 . S
C1094 C1098 1.368 . S
C1095 C1076 1.429 . S
C1095 C1089 1.429 . S
C1095 C1096 1.523 . S
C1096 C1077 1.368 . S
C1096 C1090 1.368 . S
C1096 C1095 1.523 . S
C1097 C1081 1.429 . S
C1097 C1093 1.429 . S
C1097 C1098 1.523 . S
C1098 C1082 1.368 . S
C1098 C1094 1.368 . S
C1098 C1097 1.523 . S
H1099 C1074 0.950 . S
H1100 C1076 0.950 . S
H1101 C1077 0.949 . S
H1102 C1079 0.950 . S
H1103 C1081 0.950 . S
C1104 C1105 1.349 . S
C1104 C1106 1.327 . S
C1104 H1129 0.950 . S
C1105 C1104 1.349 . S
C1105 C1121 1.349 . S
C1106 C1104 1.327 . S
C1106 C1125 1.429 . S
C1106 H1130 0.950 . S
C1107 C1124 1.574 . S
C1107 C1126 1.368 . S
C1107 H1131 0.949 . S
H1108 C1112 0.949 . S
C1109 C1110 1.349 . S
C1109 C1111 1.327 . S
C1109 H1132 0.950 . S
C1110 C1109 1.349 . S
C1110 C1122 1.349 . S
C1111 C1109 1.327 . S
C1111 C1127 1.429 . S
C1111 H1133 0.950 . S
C1112 H1108 0.949 . S
C1112 C1120 1.574 . S
C1112 C1128 1.368 . S
H1113 C1121 0.950 . S
H1114 C1119 0.950 . S
H1115 C1120 0.949 . S
H1116 C1122 0.950 . S
H1117 C1123 0.950 . S
H1118 C1124 0.949 . S
C1119 H1114 0.950 . S
C1119 C1121 1.327 . S
C1119 C1125 1.429 . S
C1120 C1112 1.574 . S
C1120 H1115 0.949 . S
C1120 C1126 1.368 . S
C1121 C1105 1.349 . S
C1121 H1113 0.950 . S
C1121 C1119 1.327 . S
C1122 C1110 1.349 . S
C1122 H1116 0.950 . S
C1122 C1123 1.327 . S
C1123 H1117 0.950 . S
C1123 C1122 1.327 . S
C1123 C1127 1.429 . S
C1124 C1107 1.574 . S
C1124 H1118 0.949 . S
C1124 C1128 1.368 . S
C1125 C1106 1.429 . S
C1125 C1119 1.429 . S
C1125 C1126 1.523 . S
C1126 C1107 1.368 . S
C1126 C1120 1.368 . S
C1126 C1125 1.523 . S
C1127 C1111 1.429 . S
C1127 C1123 1.429 . S
C1127 C1128 1.523 . S
C1128 C1112 1.368 . S
C1128 C1124 1.368 . S
C1128 C1127 1.523 . S
H1129 C1104 0.950 . S
H1130 C1106 0.950 . S
H1131 C1107 0.949 . S
H1132 C1109 0.950 . S
H1133 C1111 0.950 . S
C1134 C1135 1.349 . S
C1134 C1136 1.327 . S
C1134 H1159 0.950 . S
C1135 C1134 1.349 . S
C1135 C1151 1.349 . S
C1136 C1134 1.327 . S
C1136 C1155 1.429 . S
C1136 H1160 0.950 . S
C1137 C1154 1.574 . S
C1137 C1156 1.368 . S
C1137 H1161 0.949 . S
H1138 C1142 0.949 . S
C1139 C1140 1.349 . S
C1139 C1141 1.327 . S
C1139 H1162 0.950 . S
C1140 C1139 1.349 . S
C1140 C1152 1.349 . S
C1141 C1139 1.327 . S
C1141 C1157 1.429 . S
C1141 H1163 0.950 . S
C1142 H1138 0.949 . S
C1142 C1150 1.574 . S
C1142 C1158 1.368 . S
H1143 C1151 0.950 . S
H1144 C1149 0.950 . S
H1145 C1150 0.949 . S
H1146 C1152 0.950 . S
H1147 C1153 0.950 . S
H1148 C1154 0.949 . S
C1149 H1144 0.950 . S
C1149 C1151 1.327 . S
C1149 C1155 1.429 . S
C1150 C1142 1.574 . S
C1150 H1145 0.949 . S
C1150 C1156 1.368 . S
C1151 C1135 1.349 . S
C1151 H1143 0.950 . S
C1151 C1149 1.327 . S
C1152 C1140 1.349 . S
C1152 H1146 0.950 . S
C1152 C1153 1.327 . S
C1153 H1147 0.950 . S
C1153 C1152 1.327 . S
C1153 C1157 1.429 . S
C1154 C1137 1.574 . S
C1154 H1148 0.949 . S
C1154 C1158 1.368 . S
C1155 C1136 1.429 . S
C1155 C1149 1.429 . S
C1155 C1156 1.523 . S
C1156 C1137 1.368 . S
C1156 C1150 1.368 . S
C1156 C1155 1.523 . S
C1157 C1141 1.429 . S
C1157 C1153 1.429 . S
C1157 C1158 1.523 . S
C1158 C1142 1.368 . S
C1158 C1154 1.368 . S
C1158 C1157 1.523 . S
H1159 C1134 0.950 . S
H1160 C1136 0.950 . S
H1161 C1137 0.949 . S
H1162 C1139 0.950 . S
H1163 C1141 0.950 . S
C1164 C1165 1.349 . S
C1164 C1166 1.327 . S
C1164 H1189 0.950 . S
C1165 C1164 1.349 . S
C1165 C1181 1.349 . S
C1166 C1164 1.327 . S
C1166 C1185 1.429 . S
C1166 H1190 0.950 . S
C1167 C1184 1.574 . S
C1167 C1186 1.368 . S
C1167 H1191 0.949 . S
H1168 C1172 0.949 . S
C1169 C1170 1.349 . S
C1169 C1171 1.327 . S
C1169 H1192 0.950 . S
C1170 C1169 1.349 . S
C1170 C1182 1.349 . S
C1171 C1169 1.327 . S
C1171 C1187 1.429 . S
C1171 H1193 0.950 . S
C1172 H1168 0.949 . S
C1172 C1180 1.574 . S
C1172 C1188 1.368 . S
H1173 C1181 0.950 . S
H1174 C1179 0.950 . S
H1175 C1180 0.949 . S
H1176 C1182 0.950 . S
H1177 C1183 0.950 . S
H1178 C1184 0.949 . S
C1179 H1174 0.950 . S
C1179 C1181 1.327 . S
C1179 C1185 1.429 . S
C1180 C1172 1.574 . S
C1180 H1175 0.949 . S
C1180 C1186 1.368 . S
C1181 C1165 1.349 . S
C1181 H1173 0.950 . S
C1181 C1179 1.327 . S
C1182 C1170 1.349 . S
C1182 H1176 0.950 . S
C1182 C1183 1.327 . S
C1183 H1177 0.950 . S
C1183 C1182 1.327 . S
C1183 C1187 1.429 . S
C1184 C1167 1.574 . S
C1184 H1178 0.949 . S
C1184 C1188 1.368 . S
C1185 C1166 1.429 . S
C1185 C1179 1.429 . S
C1185 C1186 1.523 . S
C1186 C1167 1.368 . S
C1186 C1180 1.368 . S
C1186 C1185 1.523 . S
C1187 C1171 1.429 . S
C1187 C1183 1.429 . S
C1187 C1188 1.523 . S
C1188 C1172 1.368 . S
C1188 C1184 1.368 . S
C1188 C1187 1.523 . S
H1189 C1164 0.950 . S
H1190 C1166 0.950 . S
H1191 C1167 0.949 . S
H1192 C1169 0.950 . S
H1193 C1171 0.950 . S
C1194 C1195 1.349 . S
C1194 C1196 1.327 . S
C1194 H1219 0.950 . S
C1195 C1194 1.349 . S
C1195 C1211 1.349 . S
C1196 C1194 1.327 . S
C1196 C1215 1.429 . S
C1196 H1220 0.950 . S
C1197 C1214 1.574 . S
C1197 C1216 1.368 . S
C1197 H1221 0.949 . S
H1198 C1202 0.949 . S
C1199 C1200 1.349 . S
C1199 C1201 1.327 . S
C1199 H1222 0.950 . S
C1200 C1199 1.349 . S
C1200 C1212 1.349 . S
C1201 C1199 1.327 . S
C1201 C1217 1.429 . S
C1201 H1223 0.950 . S
C1202 H1198 0.949 . S
C1202 C1210 1.574 . S
C1202 C1218 1.368 . S
H1203 C1211 0.950 . S
H1204 C1209 0.950 . S
H1205 C1210 0.949 . S
H1206 C1212 0.950 . S
H1207 C1213 0.950 . S
H1208 C1214 0.949 . S
C1209 H1204 0.950 . S
C1209 C1211 1.327 . S
C1209 C1215 1.429 . S
C1210 C1202 1.574 . S
C1210 H1205 0.949 . S
C1210 C1216 1.368 . S
C1211 C1195 1.349 . S
C1211 H1203 0.950 . S
C1211 C1209 1.327 . S
C1212 C1200 1.349 . S
C1212 H1206 0.950 . S
C1212 C1213 1.327 . S
C1213 H1207 0.950 . S
C1213 C1212 1.327 . S
C1213 C1217 1.429 . S
C1214 C1197 1.574 . S
C1214 H1208 0.949 . S
C1214 C1218 1.368 . S
C1215 C1196 1.429 . S
C1215 C1209 1.429 . S
C1215 C1216 1.523 . S
C1216 C1197 1.368 . S
C1216 C1210 1.368 . S
C1216 C1215 1.523 . S
C1217 C1201 1.429 . S
C1217 C1213 1.429 . S
C1217 C1218 1.523 . S
C1218 C1202 1.368 . S
C1218 C1214 1.368 . S
C1218 C1217 1.523 . S
H1219 C1194 0.950 . S
H1220 C1196 0.950 . S
H1221 C1197 0.949 . S
H1222 C1199 0.950 . S
H1223 C1201 0.950 . S
C1224 C1225 1.349 . S
C1224 C1226 1.327 . S
C1224 H1249 0.950 . S
C1225 C1224 1.349 . S
C1225 C1241 1.349 . S
C1226 C1224 1.327 . S
C1226 C1245 1.429 . S
C1226 H1250 0.950 . S
C1227 C1244 1.574 . S
C1227 C1246 1.368 . S
C1227 H1251 0.949 . S
H1228 C1232 0.949 . S
C1229 C1230 1.349 . S
C1229 C1231 1.327 . S
C1229 H1252 0.950 . S
C1230 C1229 1.349 . S
C1230 C1242 1.349 . S
C1231 C1229 1.327 . S
C1231 C1247 1.429 . S
C1231 H1253 0.950 . S
C1232 H1228 0.949 . S
C1232 C1240 1.574 . S
C1232 C1248 1.368 . S
H1233 C1241 0.950 . S
H1234 C1239 0.950 . S
H1235 C1240 0.949 . S
H1236 C1242 0.950 . S
H1237 C1243 0.950 . S
H1238 C1244 0.949 . S
C1239 H1234 0.950 . S
C1239 C1241 1.327 . S
C1239 C1245 1.429 . S
C1240 C1232 1.574 . S
C1240 H1235 0.949 . S
C1240 C1246 1.368 . S
C1241 C1225 1.349 . S
C1241 H1233 0.950 . S
C1241 C1239 1.327 . S
C1242 C1230 1.349 . S
C1242 H1236 0.950 . S
C1242 C1243 1.327 . S
C1243 H1237 0.950 . S
C1243 C1242 1.327 . S
C1243 C1247 1.429 . S
C1244 C1227 1.574 . S
C1244 H1238 0.949 . S
C1244 C1248 1.368 . S
C1245 C1226 1.429 . S
C1245 C1239 1.429 . S
C1245 C1246 1.523 . S
C1246 C1227 1.368 . S
C1246 C1240 1.368 . S
C1246 C1245 1.523 . S
C1247 C1231 1.429 . S
C1247 C1243 1.429 . S
C1247 C1248 1.523 . S
C1248 C1232 1.368 . S
C1248 C1244 1.368 . S
C1248 C1247 1.523 . S
H1249 C1224 0.950 . S
H1250 C1226 0.950 . S
H1251 C1227 0.949 . S
H1252 C1229 0.950 . S
H1253 C1231 0.950 . S
C1254 C1255 1.349 . S
C1254 C1256 1.327 . S
C1254 H1279 0.950 . S
C1255 C1254 1.349 . S
C1255 C1271 1.349 . S
C1256 C1254 1.327 . S
C1256 C1275 1.429 . S
C1256 H1280 0.950 . S
C1257 C1274 1.574 . S
C1257 C1276 1.368 . S
C1257 H1281 0.949 . S
H1258 C1262 0.949 . S
C1259 C1260 1.349 . S
C1259 C1261 1.327 . S
C1259 H1282 0.950 . S
C1260 C1259 1.349 . S
C1260 C1272 1.349 . S
C1261 C1259 1.327 . S
C1261 C1277 1.429 . S
C1261 H1283 0.950 . S
C1262 H1258 0.949 . S
C1262 C1270 1.574 . S
C1262 C1278 1.368 . S
H1263 C1271 0.950 . S
H1264 C1269 0.950 . S
H1265 C1270 0.949 . S
H1266 C1272 0.950 . S
H1267 C1273 0.950 . S
H1268 C1274 0.949 . S
C1269 H1264 0.950 . S
C1269 C1271 1.327 . S
C1269 C1275 1.429 . S
C1270 C1262 1.574 . S
C1270 H1265 0.949 . S
C1270 C1276 1.368 . S
C1271 C1255 1.349 . S
C1271 H1263 0.950 . S
C1271 C1269 1.327 . S
C1272 C1260 1.349 . S
C1272 H1266 0.950 . S
C1272 C1273 1.327 . S
C1273 H1267 0.950 . S
C1273 C1272 1.327 . S
C1273 C1277 1.429 . S
C1274 C1257 1.574 . S
C1274 H1268 0.949 . S
C1274 C1278 1.368 . S
C1275 C1256 1.429 . S
C1275 C1269 1.429 . S
C1275 C1276 1.523 . S
C1276 C1257 1.368 . S
C1276 C1270 1.368 . S
C1276 C1275 1.523 . S
C1277 C1261 1.429 . S
C1277 C1273 1.429 . S
C1277 C1278 1.523 . S
C1278 C1262 1.368 . S
C1278 C1274 1.368 . S
C1278 C1277 1.523 . S
H1279 C1254 0.950 . S
H1280 C1256 0.950 . S
H1281 C1257 0.949 . S
H1282 C1259 0.950 . S
H1283 C1261 0.950 . S
C1284 C1285 1.349 . S
C1284 C1286 1.327 . S
C1284 H1309 0.950 . S
C1285 C1284 1.349 . S
C1285 C1301 1.349 . S
C1286 C1284 1.327 . S
C1286 C1305 1.429 . S
C1286 H1310 0.950 . S
C1287 C1304 1.574 . S
C1287 C1306 1.368 . S
C1287 H1311 0.949 . S
H1288 C1292 0.949 . S
C1289 C1290 1.349 . S
C1289 C1291 1.327 . S
C1289 H1312 0.950 . S
C1290 C1289 1.349 . S
C1290 C1302 1.349 . S
C1291 C1289 1.327 . S
C1291 C1307 1.429 . S
C1291 H1313 0.950 . S
C1292 H1288 0.949 . S
C1292 C1300 1.574 . S
C1292 C1308 1.368 . S
H1293 C1301 0.950 . S
H1294 C1299 0.950 . S
H1295 C1300 0.949 . S
H1296 C1302 0.950 . S
H1297 C1303 0.950 . S
H1298 C1304 0.949 . S
C1299 H1294 0.950 . S
C1299 C1301 1.327 . S
C1299 C1305 1.429 . S
C1300 C1292 1.574 . S
C1300 H1295 0.949 . S
C1300 C1306 1.368 . S
C1301 C1285 1.349 . S
C1301 H1293 0.950 . S
C1301 C1299 1.327 . S
C1302 C1290 1.349 . S
C1302 H1296 0.950 . S
C1302 C1303 1.327 . S
C1303 H1297 0.950 . S
C1303 C1302 1.327 . S
C1303 C1307 1.429 . S
C1304 C1287 1.574 . S
C1304 H1298 0.949 . S
C1304 C1308 1.368 . S
C1305 C1286 1.429 . S
C1305 C1299 1.429 . S
C1305 C1306 1.523 . S
C1306 C1287 1.368 . S
C1306 C1300 1.368 . S
C1306 C1305 1.523 . S
C1307 C1291 1.429 . S
C1307 C1303 1.429 . S
C1307 C1308 1.523 . S
C1308 C1292 1.368 . S
C1308 C1304 1.368 . S
C1308 C1307 1.523 . S
H1309 C1284 0.950 . S
H1310 C1286 0.950 . S
H1311 C1287 0.949 . S
H1312 C1289 0.950 . S
H1313 C1291 0.950 . S
C1314 C1315 1.349 . S
C1314 C1316 1.327 . S
C1314 H1339 0.950 . S
C1315 C1314 1.349 . S
C1315 C1331 1.349 . S
C1316 C1314 1.327 . S
C1316 C1335 1.429 . S
C1316 H1340 0.950 . S
C1317 C1334 1.574 . S
C1317 C1336 1.368 . S
C1317 H1341 0.949 . S
H1318 C1322 0.949 . S
C1319 C1320 1.349 . S
C1319 C1321 1.327 . S
C1319 H1342 0.950 . S
C1320 C1319 1.349 . S
C1320 C1332 1.349 . S
C1321 C1319 1.327 . S
C1321 C1337 1.429 . S
C1321 H1343 0.950 . S
C1322 H1318 0.949 . S
C1322 C1330 1.574 . S
C1322 C1338 1.368 . S
H1323 C1331 0.950 . S
H1324 C1329 0.950 . S
H1325 C1330 0.949 . S
H1326 C1332 0.950 . S
H1327 C1333 0.950 . S
H1328 C1334 0.949 . S
C1329 H1324 0.950 . S
C1329 C1331 1.327 . S
C1329 C1335 1.429 . S
C1330 C1322 1.574 . S
C1330 H1325 0.949 . S
C1330 C1336 1.368 . S
C1331 C1315 1.349 . S
C1331 H1323 0.950 . S
C1331 C1329 1.327 . S
C1332 C1320 1.349 . S
C1332 H1326 0.950 . S
C1332 C1333 1.327 . S
C1333 H1327 0.950 . S
C1333 C1332 1.327 . S
C1333 C1337 1.429 . S
C1334 C1317 1.574 . S
C1334 H1328 0.949 . S
C1334 C1338 1.368 . S
C1335 C1316 1.429 . S
C1335 C1329 1.429 . S
C1335 C1336 1.523 . S
C1336 C1317 1.368 . S
C1336 C1330 1.368 . S
C1336 C1335 1.523 . S
C1337 C1321 1.429 . S
C1337 C1333 1.429 . S
C1337 C1338 1.523 . S
C1338 C1322 1.368 . S
C1338 C1334 1.368 . S
C1338 C1337 1.523 . S
H1339 C1314 0.950 . S
H1340 C1316 0.950 . S
H1341 C1317 0.949 . S
H1342 C1319 0.950 . S
H1343 C1321 0.950 . S
C1344 C1345 1.321 1_455 S
C1344 C1346 1.335 . S
C1344 H1369 0.971 . S
C1345 C1344 1.321 1_655 S
C1345 C1361 1.349 . S
C1346 C1344 1.335 . S
C1346 C1365 1.429 1_455 S
C1346 H1370 0.950 . S
C1347 C1364 1.574 . S
C1347 C1366 1.368 . S
C1347 H1371 0.949 . S
H1348 C1352 0.949 . S
C1349 C1350 1.321 1_655 S
C1349 C1351 1.335 . S
C1349 H1372 0.971 . S
C1350 C1349 1.321 1_455 S
C1350 C1362 1.349 . S
C1351 C1349 1.335 . S
C1351 C1367 1.429 1_655 S
C1351 H1373 0.950 . S
C1352 H1348 0.949 . S
C1352 C1360 1.574 . S
C1352 C1368 1.368 . S
H1353 C1361 0.950 . S
H1354 C1359 0.950 . S
H1355 C1360 0.949 . S
H1356 C1362 0.950 . S
H1357 C1363 0.950 . S
H1358 C1364 0.949 . S
C1359 H1354 0.950 . S
C1359 C1361 1.327 . S
C1359 C1365 1.429 . S
C1360 C1352 1.574 . S
C1360 H1355 0.949 . S
C1360 C1366 1.368 1_455 S
C1361 C1345 1.349 . S
C1361 H1353 0.950 . S
C1361 C1359 1.327 . S
C1362 C1350 1.349 . S
C1362 H1356 0.950 . S
C1362 C1363 1.327 . S
C1363 H1357 0.950 . S
C1363 C1362 1.327 . S
C1363 C1367 1.429 . S
C1364 C1347 1.574 . S
C1364 H1358 0.949 . S
C1364 C1368 1.368 1_655 S
C1365 C1346 1.429 1_655 S
C1365 C1359 1.429 . S
C1365 C1366 1.523 . S
C1366 C1347 1.368 . S
C1366 C1360 1.368 1_655 S
C1366 C1365 1.523 . S
C1367 C1351 1.429 1_455 S
C1367 C1363 1.429 . S
C1367 C1368 1.523 . S
C1368 C1352 1.368 . S
C1368 C1364 1.368 1_455 S
C1368 C1367 1.523 . S
H1369 C1344 0.971 . S
H1370 C1346 0.950 . S
H1371 C1347 0.949 . S
H1372 C1349 0.971 . S
H1373 C1351 0.950 . S
C1374 C1375 1.349 . S
C1374 C1376 1.327 . S
C1374 H1399 0.950 . S
C1375 C1374 1.349 . S
C1375 C1391 1.360 . S
C1376 C1374 1.327 . S
C1376 C1395 1.429 . S
C1376 H1400 0.950 . S
C1377 C1394 1.574 . S
C1377 C1396 1.368 1_545 S
C1377 H1401 0.949 . S
H1378 C1382 0.949 . S
C1379 C1380 1.349 . S
C1379 C1381 1.327 . S
C1379 H1402 0.950 . S
C1380 C1379 1.349 . S
C1380 C1392 1.360 . S
C1381 C1379 1.327 . S
C1381 C1397 1.429 . S
C1381 H1403 0.950 . S
C1382 H1378 0.949 . S
C1382 C1390 1.574 . S
C1382 C1398 1.368 1_565 S
H1383 C1391 0.941 1_545 S
H1384 C1389 0.950 . S
H1385 C1390 0.949 . S
H1386 C1392 0.941 1_565 S
H1387 C1393 0.950 . S
H1388 C1394 0.949 . S
C1389 H1384 0.950 . S
C1389 C1391 1.324 1_545 S
C1389 C1395 1.429 1_545 S
C1390 C1382 1.574 . S
C1390 H1385 0.949 . S
C1390 C1396 1.368 . S
C1391 C1375 1.360 . S
C1391 H1383 0.941 1_565 S
C1391 C1389 1.324 1_565 S
C1392 C1380 1.360 . S
C1392 H1386 0.941 1_545 S
C1392 C1393 1.324 1_545 S
C1393 H1387 0.950 . S
C1393 C1392 1.324 1_565 S
C1393 C1397 1.429 1_565 S
C1394 C1377 1.574 . S
C1394 H1388 0.949 . S
C1394 C1398 1.368 . S
C1395 C1376 1.429 . S
C1395 C1389 1.429 1_565 S
C1395 C1396 1.523 . S
C1396 C1377 1.368 1_565 S
C1396 C1390 1.368 . S
C1396 C1395 1.523 . S
C1397 C1381 1.429 . S
C1397 C1393 1.429 1_545 S
C1397 C1398 1.523 . S
C1398 C1382 1.368 1_545 S
C1398 C1394 1.368 . S
C1398 C1397 1.523 . S
H1399 C1374 0.950 . S
H1400 C1376 0.950 . S
H1401 C1377 0.949 . S
H1402 C1379 0.950 . S
H1403 C1381 0.950 . S
C1404 C1405 1.388 . S
C1404 C1406 1.317 1_655 S
C1404 H1429 0.922 1_655 S
C1405 C1404 1.388 . S
C1405 C1421 1.349 . S
C1406 C1404 1.317 1_455 S
C1406 C1425 1.429 1_455 S
C1406 H1430 0.950 . S
C1407 C1424 1.574 . S
C1407 C1426 1.368 . S
C1407 H1431 0.949 . S
H1408 C1412 0.949 . S
C1409 C1410 1.388 . S
C1409 C1411 1.317 1_455 S
C1409 H1432 0.922 1_455 S
C1410 C1409 1.388 . S
C1410 C1422 1.349 . S
C1411 C1409 1.317 1_655 S
C1411 C1427 1.429 1_655 S
C1411 H1433 0.950 . S
C1412 H1408 0.949 . S
C1412 C1420 1.574 . S
C1412 C1428 1.368 . S
H1413 C1421 0.950 . S
H1414 C1419 0.950 . S
H1415 C1420 0.949 . S
H1416 C1422 0.950 . S
H1417 C1423 0.950 . S
H1418 C1424 0.949 . S
C1419 H1414 0.950 . S
C1419 C1421 1.327 . S
C1419 C1425 1.429 . S
C1420 C1412 1.574 . S
C1420 H1415 0.949 . S
C1420 C1426 1.368 1_455 S
C1421 C1405 1.349 . S
C1421 H1413 0.950 . S
C1421 C1419 1.327 . S
C1422 C1410 1.349 . S
C1422 H1416 0.950 . S
C1422 C1423 1.327 . S
C1423 H1417 0.950 . S
C1423 C1422 1.327 . S
C1423 C1427 1.429 . S
C1424 C1407 1.574 . S
C1424 H1418 0.949 . S
C1424 C1428 1.368 1_655 S
C1425 C1406 1.429 1_655 S
C1425 C1419 1.429 . S
C1425 C1426 1.523 . S
C1426 C1407 1.368 . S
C1426 C1420 1.368 1_655 S
C1426 C1425 1.523 . S
C1427 C1411 1.429 1_455 S
C1427 C1423 1.429 . S
C1427 C1428 1.523 . S
C1428 C1412 1.368 . S
C1428 C1424 1.368 1_455 S
C1428 C1427 1.523 . S
H1429 C1404 0.922 1_455 S
H1430 C1406 0.950 . S
H1431 C1407 0.949 . S
H1432 C1409 0.922 1_655 S
H1433 C1411 0.950 . S
C1434 C1435 1.349 . S
C1434 C1436 1.327 . S
C1434 H1459 0.950 . S
C1435 C1434 1.349 . S
C1435 C1451 1.289 1_545 S
C1436 C1434 1.327 . S
C1436 C1455 1.429 . S
C1436 H1460 0.950 . S
C1437 C1454 1.574 . S
C1437 C1456 1.368 1_565 S
C1437 H1461 0.949 . S
H1438 C1442 0.949 . S
C1439 C1440 1.349 . S
C1439 C1441 1.327 . S
C1439 H1462 0.950 . S
C1440 C1439 1.349 . S
C1440 C1452 1.289 1_565 S
C1441 C1439 1.327 . S
C1441 C1457 1.429 . S
C1441 H1463 0.950 . S
C1442 H1438 0.949 . S
C1442 C1450 1.574 . S
C1442 C1458 1.368 1_545 S
H1443 C1451 0.997 . S
H1444 C1449 0.950 . S
H1445 C1450 0.949 . S
H1446 C1452 0.997 . S
H1447 C1453 0.950 . S
H1448 C1454 0.949 . S
C1449 H1444 0.950 . S
C1449 C1451 1.344 . S
C1449 C1455 1.429 1_565 S
C1450 C1442 1.574 . S
C1450 H1445 0.949 . S
C1450 C1456 1.368 . S
C1451 C1435 1.289 1_565 S
C1451 H1443 0.997 . S
C1451 C1449 1.344 . S
C1452 C1440 1.289 1_545 S
C1452 H1446 0.997 . S
C1452 C1453 1.344 . S
C1453 H1447 0.950 . S
C1453 C1452 1.344 . S
C1453 C1457 1.429 1_545 S
C1454 C1437 1.574 . S
C1454 H1448 0.949 . S
C1454 C1458 1.368 . S
C1455 C1436 1.429 . S
C1455 C1449 1.429 1_545 S
C1455 C1456 1.523 . S
C1456 C1437 1.368 1_545 S
C1456 C1450 1.368 . S
C1456 C1455 1.523 . S
C1457 C1441 1.429 . S
C1457 C1453 1.429 1_565 S
C1457 C1458 1.523 . S
C1458 C1442 1.368 1_565 S
C1458 C1454 1.368 . S
C1458 C1457 1.523 . S
H1459 C1434 0.950 . S
H1460 C1436 0.950 . S
H1461 C1437 0.949 . S
H1462 C1439 0.950 . S
H1463 C1441 0.950 . S
C1464 C1465 1.349 . S
C1464 C1466 1.327 . S
C1464 H1489 0.950 . S
C1465 C1464 1.349 . S
C1465 C1481 1.349 . S
C1466 C1464 1.327 . S
C1466 C1485 1.429 . S
C1466 H1490 0.950 . S
C1467 C1484 1.574 . S
C1467 C1486 1.368 1_655 S
C1467 H1491 0.949 . S
H1468 C1472 0.949 . S
C1469 C1470 1.349 . S
C1469 C1471 1.327 . S
C1469 H1492 0.950 . S
C1470 C1469 1.349 . S
C1470 C1482 1.349 . S
C1471 C1469 1.327 . S
C1471 C1487 1.429 . S
C1471 H1493 0.950 . S
C1472 H1468 0.949 . S
C1472 C1480 1.574 . S
C1472 C1488 1.368 1_455 S
H1473 C1481 0.950 . S
H1474 C1479 0.950 1_655 S
H1475 C1480 0.949 . S
H1476 C1482 0.950 . S
H1477 C1483 0.950 1_455 S
H1478 C1484 0.949 . S
C1479 H1474 0.950 1_455 S
C1479 C1481 1.327 . S
C1479 C1485 1.429 . S
C1480 C1472 1.574 . S
C1480 H1475 0.949 . S
C1480 C1486 1.368 . S
C1481 C1465 1.349 . S
C1481 H1473 0.950 . S
C1481 C1479 1.327 . S
C1482 C1470 1.349 . S
C1482 H1476 0.950 . S
C1482 C1483 1.327 . S
C1483 H1477 0.950 1_655 S
C1483 C1482 1.327 . S
C1483 C1487 1.429 . S
C1484 C1467 1.574 . S
C1484 H1478 0.949 . S
C1484 C1488 1.368 . S
C1485 C1466 1.429 . S
C1485 C1479 1.429 . S
C1485 C1486 1.523 . S
C1486 C1467 1.368 1_455 S
C1486 C1480 1.368 . S
C1486 C1485 1.523 . S
C1487 C1471 1.429 . S
C1487 C1483 1.429 . S
C1487 C1488 1.523 . S
C1488 C1472 1.368 1_655 S
C1488 C1484 1.368 . S
C1488 C1487 1.523 . S
H1489 C1464 0.950 . S
H1490 C1466 0.950 . S
H1491 C1467 0.949 . S
H1492 C1469 0.950 . S
H1493 C1471 0.950 . S
C1494 C1495 1.349 . S
C1494 C1496 1.327 . S
C1494 H1519 0.950 . S
C1495 C1494 1.349 . S
C1495 C1511 1.281 1_565 S
C1496 C1494 1.327 . S
C1496 C1515 1.429 . S
C1496 H1520 0.950 . S
C1497 C1514 1.574 . S
C1497 C1516 1.368 1_545 S
C1497 H1521 0.949 . S
H1498 C1502 0.949 . S
C1499 C1500 1.349 . S
C1499 C1501 1.327 . S
C1499 H1522 0.950 . S
C1500 C1499 1.349 . S
C1500 C1512 1.281 1_545 S
C1501 C1499 1.327 . S
C1501 C1517 1.429 . S
C1501 H1523 0.950 . S
C1502 H1498 0.949 . S
C1502 C1510 1.574 . S
C1502 C1518 1.368 1_565 S
H1503 C1511 1.003 . S
H1504 C1509 0.950 . S
H1505 C1510 0.949 . S
H1506 C1512 1.003 . S
H1507 C1513 0.950 . S
H1508 C1514 0.949 . S
C1509 H1504 0.950 . S
C1509 C1511 1.346 . S
C1509 C1515 1.429 1_545 S
C1510 C1502 1.574 . S
C1510 H1505 0.949 . S
C1510 C1516 1.368 . S
C1511 C1495 1.281 1_545 S
C1511 H1503 1.003 . S
C1511 C1509 1.346 . S
C1512 C1500 1.281 1_565 S
C1512 H1506 1.003 . S
C1512 C1513 1.346 . S
C1513 H1507 0.950 . S
C1513 C1512 1.346 . S
C1513 C1517 1.429 1_565 S
C1514 C1497 1.574 . S
C1514 H1508 0.949 . S
C1514 C1518 1.368 . S
C1515 C1496 1.429 . S
C1515 C1509 1.429 1_565 S
C1515 C1516 1.523 . S
C1516 C1497 1.368 1_565 S
C1516 C1510 1.368 . S
C1516 C1515 1.523 . S
C1517 C1501 1.429 . S
C1517 C1513 1.429 1_545 S
C1517 C1518 1.523 . S
C1518 C1502 1.368 1_545 S
C1518 C1514 1.368 . S
C1518 C1517 1.523 . S
H1519 C1494 0.950 . S
H1520 C1496 0.950 . S
H1521 C1497 0.949 . S
H1522 C1499 0.950 . S
H1523 C1501 0.950 . S
C1524 C1525 1.349 . S
C1524 C1526 1.327 . S
C1524 H1549 0.950 . S
C1525 C1524 1.349 . S
C1525 C1541 1.349 . S
C1526 C1524 1.327 . S
C1526 C1545 1.429 . S
C1526 H1550 0.950 . S
C1527 C1544 1.574 . S
C1527 C1546 1.368 1_655 S
C1527 H1551 0.949 . S
H1528 C1532 0.949 . S
C1529 C1530 1.349 . S
C1529 C1531 1.327 . S
C1529 H1552 0.950 . S
C1530 C1529 1.349 . S
C1530 C1542 1.349 . S
C1531 C1529 1.327 . S
C1531 C1547 1.429 . S
C1531 H1553 0.950 . S
C1532 H1528 0.949 . S
C1532 C1540 1.574 . S
C1532 C1548 1.368 1_455 S
H1533 C1541 0.950 1_655 S
H1534 C1539 0.950 . S
H1535 C1540 0.949 . S
H1536 C1542 0.950 1_455 S
H1537 C1543 0.950 . S
H1538 C1544 0.949 . S
C1539 H1534 0.950 . S
C1539 C1541 1.327 1_655 S
C1539 C1545 1.429 1_655 S
C1540 C1532 1.574 . S
C1540 H1535 0.949 . S
C1540 C1546 1.368 . S
C1541 C1525 1.349 . S
C1541 H1533 0.950 1_455 S
C1541 C1539 1.327 1_455 S
C1542 C1530 1.349 . S
C1542 H1536 0.950 1_655 S
C1542 C1543 1.327 1_655 S
C1543 H1537 0.950 . S
C1543 C1542 1.327 1_455 S
C1543 C1547 1.429 1_455 S
C1544 C1527 1.574 . S
C1544 H1538 0.949 . S
C1544 C1548 1.368 . S
C1545 C1526 1.429 . S
C1545 C1539 1.429 1_455 S
C1545 C1546 1.523 . S
C1546 C1527 1.368 1_455 S
C1546 C1540 1.368 . S
C1546 C1545 1.523 . S
C1547 C1531 1.429 . S
C1547 C1543 1.429 1_655 S
C1547 C1548 1.523 . S
C1548 C1532 1.368 1_655 S
C1548 C1544 1.368 . S
C1548 C1547 1.523 . S
H1549 C1524 0.950 . S
H1550 C1526 0.950 . S
H1551 C1527 0.949 . S
H1552 C1529 0.950 . S
H1553 C1531 0.950 . S
C1554 C1555 1.346 . S
C1554 C1556 1.328 1_545 S
C1554 H1579 0.952 1_545 S
C1555 C1554 1.346 . S
C1555 C1571 1.349 . S
C1556 C1554 1.328 1_565 S
C1556 C1575 1.429 1_565 S
C1556 H1580 0.950 . S
C1557 C1574 1.574 . S
C1557 C1576 1.368 . S
C1557 H1581 0.949 . S
H1558 C1562 0.949 . S
C1559 C1560 1.346 . S
C1559 C1561 1.328 1_565 S
C1559 H1582 0.952 1_565 S
C1560 C1559 1.346 . S
C1560 C1572 1.349 . S
C1561 C1559 1.328 1_545 S
C1561 C1577 1.429 1_545 S
C1561 H1583 0.950 . S
C1562 H1558 0.949 . S
C1562 C1570 1.574 . S
C1562 C1578 1.368 . S
H1563 C1571 0.950 . S
H1564 C1569 0.950 . S
H1565 C1570 0.949 . S
H1566 C1572 0.950 . S
H1567 C1573 0.950 . S
H1568 C1574 0.949 . S
C1569 H1564 0.950 . S
C1569 C1571 1.327 . S
C1569 C1575 1.429 . S
C1570 C1562 1.574 . S
C1570 H1565 0.949 . S
C1570 C1576 1.368 1_565 S
C1571 C1555 1.349 . S
C1571 H1563 0.950 . S
C1571 C1569 1.327 . S
C1572 C1560 1.349 . S
C1572 H1566 0.950 . S
C1572 C1573 1.327 . S
C1573 H1567 0.950 . S
C1573 C1572 1.327 . S
C1573 C1577 1.429 . S
C1574 C1557 1.574 . S
C1574 H1568 0.949 . S
C1574 C1578 1.368 1_545 S
C1575 C1556 1.429 1_545 S
C1575 C1569 1.429 . S
C1575 C1576 1.523 . S
C1576 C1557 1.368 . S
C1576 C1570 1.368 1_545 S
C1576 C1575 1.523 . S
C1577 C1561 1.429 1_565 S
C1577 C1573 1.429 . S
C1577 C1578 1.523 . S
C1578 C1562 1.368 . S
C1578 C1574 1.368 1_565 S
C1578 C1577 1.523 . S
H1579 C1554 0.952 1_565 S
H1580 C1556 0.950 . S
H1581 C1557 0.949 . S
H1582 C1559 0.952 1_545 S
H1583 C1561 0.950 . S
C1584 C1585 1.349 . S
C1584 C1586 1.327 . S
C1584 H1609 0.950 . S
C1585 C1584 1.349 . S
C1585 C1601 1.349 . S
C1586 C1584 1.327 . S
C1586 C1605 1.429 . S
C1586 H1610 0.950 . S
C1587 C1604 1.574 . S
C1587 C1606 1.368 1_554 S
C1587 H1611 0.949 . S
H1588 C1592 0.949 . S
C1589 C1590 1.349 . S
C1589 C1591 1.327 . S
C1589 H1612 0.950 . S
C1590 C1589 1.349 . S
C1590 C1602 1.349 . S
C1591 C1589 1.327 . S
C1591 C1607 1.429 . S
C1591 H1613 0.950 . S
C1592 H1588 0.949 . S
C1592 C1600 1.574 . S
C1592 C1608 1.368 1_556 S
H1593 C1601 0.953 . S
H1594 C1599 0.950 1_554 S
H1595 C1600 0.949 . S
H1596 C1602 0.953 . S
H1597 C1603 0.950 1_556 S
H1598 C1604 0.949 . S
C1599 H1594 0.950 1_556 S
C1599 C1601 1.327 . S
C1599 C1605 1.429 . S
C1600 C1592 1.574 . S
C1600 H1595 0.949 . S
C1600 C1606 1.368 . S
C1601 C1585 1.349 . S
C1601 H1593 0.953 . S
C1601 C1599 1.327 . S
C1602 C1590 1.349 . S
C1602 H1596 0.953 . S
C1602 C1603 1.327 . S
C1603 H1597 0.950 1_554 S
C1603 C1602 1.327 . S
C1603 C1607 1.429 . S
C1604 C1587 1.574 . S
C1604 H1598 0.949 . S
C1604 C1608 1.368 . S
C1605 C1586 1.429 . S
C1605 C1599 1.429 . S
C1605 C1606 1.523 . S
C1606 C1587 1.368 1_556 S
C1606 C1600 1.368 . S
C1606 C1605 1.523 . S
C1607 C1591 1.429 . S
C1607 C1603 1.429 . S
C1607 C1608 1.523 . S
C1608 C1592 1.368 1_554 S
C1608 C1604 1.368 . S
C1608 C1607 1.523 . S
H1609 C1584 0.950 . S
H1610 C1586 0.950 . S
H1611 C1587 0.949 . S
H1612 C1589 0.950 . S
H1613 C1591 0.950 . S
C1614 C1615 1.349 . S
C1614 C1616 1.327 . S
C1614 H1639 0.950 . S
C1615 C1614 1.349 . S
C1615 C1631 1.349 . S
C1616 C1614 1.327 . S
C1616 C1635 1.429 . S
C1616 H1640 0.950 . S
C1617 C1634 1.574 . S
C1617 C1636 1.368 1_556 S
C1617 H1641 0.949 . S
H1618 C1622 0.949 . S
C1619 C1620 1.349 . S
C1619 C1621 1.327 . S
C1619 H1642 0.950 . S
C1620 C1619 1.349 . S
C1620 C1632 1.349 . S
C1621 C1619 1.327 . S
C1621 C1637 1.429 . S
C1621 H1643 0.950 . S
C1622 H1618 0.949 . S
C1622 C1630 1.574 . S
C1622 C1638 1.368 1_554 S
H1623 C1631 0.950 1_556 S
H1624 C1629 0.950 . S
H1625 C1630 0.949 . S
H1626 C1632 0.950 1_554 S
H1627 C1633 0.950 . S
H1628 C1634 0.949 . S
C1629 H1624 0.950 . S
C1629 C1631 1.327 1_556 S
C1629 C1635 1.429 1_556 S
C1630 C1622 1.574 . S
C1630 H1625 0.949 . S
C1630 C1636 1.368 . S
C1631 C1615 1.349 . S
C1631 H1623 0.950 1_554 S
C1631 C1629 1.327 1_554 S
C1632 C1620 1.349 . S
C1632 H1626 0.950 1_556 S
C1632 C1633 1.327 1_556 S
C1633 H1627 0.950 . S
C1633 C1632 1.327 1_554 S
C1633 C1637 1.429 1_554 S
C1634 C1617 1.574 . S
C1634 H1628 0.949 . S
C1634 C1638 1.368 . S
C1635 C1616 1.429 . S
C1635 C1629 1.429 1_554 S
C1635 C1636 1.523 . S
C1636 C1617 1.368 1_554 S
C1636 C1630 1.368 . S
C1636 C1635 1.523 . S
C1637 C1621 1.429 . S
C1637 C1633 1.429 1_556 S
C1637 C1638 1.523 . S
C1638 C1622 1.368 1_556 S
C1638 C1634 1.368 . S
C1638 C1637 1.523 . S
H1639 C1614 0.950 . S
H1640 C1616 0.950 . S
H1641 C1617 0.949 . S
H1642 C1619 0.950 . S
H1643 C1621 0.950 . S
C1644 C1645 1.283 1_556 S
C1644 C1646 1.345 . S
C1644 H1669 1.002 . S
C1645 C1644 1.283 1_554 S
C1645 C1661 1.349 . S
C1646 C1644 1.345 . S
C1646 C1665 1.429 1_556 S
C1646 H1670 0.950 . S
C1647 C1664 1.574 . S
C1647 C1666 1.368 . S
C1647 H1671 0.949 . S
H1648 C1652 0.949 . S
C1649 C1650 1.283 1_554 S
C1649 C1651 1.345 . S
C1649 H1672 1.002 . S
C1650 C1649 1.283 1_556 S
C1650 C1662 1.349 . S
C1651 C1649 1.345 . S
C1651 C1667 1.429 1_554 S
C1651 H1673 0.950 . S
C1652 H1648 0.949 . S
C1652 C1660 1.574 . S
C1652 C1668 1.368 . S
H1653 C1661 0.950 . S
H1654 C1659 0.950 . S
H1655 C1660 0.949 . S
H1656 C1662 0.950 . S
H1657 C1663 0.950 . S
H1658 C1664 0.949 . S
C1659 H1654 0.950 . S
C1659 C1661 1.327 . S
C1659 C1665 1.429 . S
C1660 C1652 1.574 . S
C1660 H1655 0.949 . S
C1660 C1666 1.368 1_556 S
C1661 C1645 1.349 . S
C1661 H1653 0.950 . S
C1661 C1659 1.327 . S
C1662 C1650 1.349 . S
C1662 H1656 0.950 . S
C1662 C1663 1.327 . S
C1663 H1657 0.950 . S
C1663 C1662 1.327 . S
C1663 C1667 1.429 . S
C1664 C1647 1.574 . S
C1664 H1658 0.949 . S
C1664 C1668 1.368 1_554 S
C1665 C1646 1.429 1_554 S
C1665 C1659 1.429 . S
C1665 C1666 1.523 . S
C1666 C1647 1.368 . S
C1666 C1660 1.368 1_554 S
C1666 C1665 1.523 . S
C1667 C1651 1.429 1_556 S
C1667 C1663 1.429 . S
C1667 C1668 1.523 . S
C1668 C1652 1.368 . S
C1668 C1664 1.368 1_556 S
C1668 C1667 1.523 . S
H1669 C1644 1.002 . S
H1670 C1646 0.950 . S
H1671 C1647 0.949 . S
H1672 C1649 1.002 . S
H1673 C1651 0.950 . S
C1674 C1675 1.374 . S
C1674 C1676 1.321 1_556 S
C1674 H1699 0.931 1_556 S
C1675 C1674 1.374 . S
C1675 C1691 1.349 . S
C1676 C1674 1.321 1_554 S
C1676 C1695 1.429 1_554 S
C1676 H1700 0.950 . S
C1677 C1694 1.574 . S
C1677 C1696 1.368 . S
C1677 H1701 0.949 . S
H1678 C1682 0.949 . S
C1679 C1680 1.374 . S
C1679 C1681 1.321 1_554 S
C1679 H1702 0.931 1_554 S
C1680 C1679 1.374 . S
C1680 C1692 1.349 . S
C1681 C1679 1.321 1_556 S
C1681 C1697 1.429 1_556 S
C1681 H1703 0.950 . S
C1682 H1678 0.949 . S
C1682 C1690 1.574 . S
C1682 C1698 1.368 . S
H1683 C1691 0.950 . S
H1684 C1689 0.950 . S
H1685 C1690 0.949 . S
H1686 C1692 0.950 . S
H1687 C1693 0.950 . S
H1688 C1694 0.949 . S
C1689 H1684 0.950 . S
C1689 C1691 1.327 . S
C1689 C1695 1.429 . S
C1690 C1682 1.574 . S
C1690 H1685 0.949 . S
C1690 C1696 1.368 1_554 S
C1691 C1675 1.349 . S
C1691 H1683 0.950 . S
C1691 C1689 1.327 . S
C1692 C1680 1.349 . S
C1692 H1686 0.950 . S
C1692 C1693 1.327 . S
C1693 H1687 0.950 . S
C1693 C1692 1.327 . S
C1693 C1697 1.429 . S
C1694 C1677 1.574 . S
C1694 H1688 0.949 . S
C1694 C1698 1.368 1_556 S
C1695 C1676 1.429 1_556 S
C1695 C1689 1.429 . S
C1695 C1696 1.523 . S
C1696 C1677 1.368 . S
C1696 C1690 1.368 1_556 S
C1696 C1695 1.523 . S
C1697 C1681 1.429 1_554 S
C1697 C1693 1.429 . S
C1697 C1698 1.523 . S
C1698 C1682 1.368 . S
C1698 C1694 1.368 1_554 S
C1698 C1697 1.523 . S
H1699 C1674 0.931 1_554 S
H1700 C1676 0.950 . S
H1701 C1677 0.949 . S
H1702 C1679 0.931 1_556 S
H1703 C1681 0.950 . S
C1704 C1705 1.349 . S
C1704 C1706 1.327 . S
C1704 H1729 0.950 . S
C1705 C1704 1.349 . S
C1705 C1721 1.349 . S
C1706 C1704 1.327 . S
C1706 C1725 1.429 . S
C1706 H1730 0.950 . S
C1707 C1724 1.574 . S
C1707 C1726 1.368 . S
C1707 H1731 0.949 . S
H1708 C1712 0.949 . S
C1709 C1710 1.349 . S
C1709 C1711 1.327 . S
C1709 H1732 0.950 . S
C1710 C1709 1.349 . S
C1710 C1722 1.349 . S
C1711 C1709 1.327 . S
C1711 C1727 1.429 . S
C1711 H1733 0.950 . S
C1712 H1708 0.949 . S
C1712 C1720 1.574 . S
C1712 C1728 1.368 . S
H1713 C1721 0.950 . S
H1714 C1719 0.950 . S
H1715 C1720 0.949 . S
H1716 C1722 0.950 . S
H1717 C1723 0.950 . S
H1718 C1724 0.949 . S
C1719 H1714 0.950 . S
C1719 C1721 1.327 . S
C1719 C1725 1.429 . S
C1720 C1712 1.574 . S
C1720 H1715 0.949 . S
C1720 C1726 1.368 . S
C1721 C1705 1.349 . S
C1721 H1713 0.950 . S
C1721 C1719 1.327 . S
C1722 C1710 1.349 . S
C1722 H1716 0.950 . S
C1722 C1723 1.327 . S
C1723 H1717 0.950 . S
C1723 C1722 1.327 . S
C1723 C1727 1.429 . S
C1724 C1707 1.574 . S
C1724 H1718 0.949 . S
C1724 C1728 1.368 . S
C1725 C1706 1.429 . S
C1725 C1719 1.429 . S
C1725 C1726 1.523 . S
C1726 C1707 1.368 . S
C1726 C1720 1.368 . S
C1726 C1725 1.523 . S
C1727 C1711 1.429 . S
C1727 C1723 1.429 . S
C1727 C1728 1.523 . S
C1728 C1712 1.368 . S
C1728 C1724 1.368 . S
C1728 C1727 1.523 . S
H1729 C1704 0.950 . S
H1730 C1706 0.950 . S
H1731 C1707 0.949 . S
H1732 C1709 0.950 . S
H1733 C1711 0.950 . S
C1734 C1735 1.349 . S
C1734 C1736 1.327 . S
C1734 H1759 0.950 . S
C1735 C1734 1.349 . S
C1735 C1751 1.349 . S
C1736 C1734 1.327 . S
C1736 C1755 1.429 . S
C1736 H1760 0.950 . S
C1737 C1754 1.574 . S
C1737 C1756 1.368 . S
C1737 H1761 0.949 . S
H1738 C1742 0.949 . S
C1739 C1740 1.349 . S
C1739 C1741 1.327 . S
C1739 H1762 0.950 . S
C1740 C1739 1.349 . S
C1740 C1752 1.349 . S
C1741 C1739 1.327 . S
C1741 C1757 1.429 . S
C1741 H1763 0.950 . S
C1742 H1738 0.949 . S
C1742 C1750 1.574 . S
C1742 C1758 1.368 . S
H1743 C1751 0.950 . S
H1744 C1749 0.950 . S
H1745 C1750 0.949 . S
H1746 C1752 0.950 . S
H1747 C1753 0.950 . S
H1748 C1754 0.949 . S
C1749 H1744 0.950 . S
C1749 C1751 1.327 . S
C1749 C1755 1.429 . S
C1750 C1742 1.574 . S
C1750 H1745 0.949 . S
C1750 C1756 1.368 . S
C1751 C1735 1.349 . S
C1751 H1743 0.950 . S
C1751 C1749 1.327 . S
C1752 C1740 1.349 . S
C1752 H1746 0.950 . S
C1752 C1753 1.327 . S
C1753 H1747 0.950 . S
C1753 C1752 1.327 . S
C1753 C1757 1.429 . S
C1754 C1737 1.574 . S
C1754 H1748 0.949 . S
C1754 C1758 1.368 . S
C1755 C1736 1.429 . S
C1755 C1749 1.429 . S
C1755 C1756 1.523 . S
C1756 C1737 1.368 . S
C1756 C1750 1.368 . S
C1756 C1755 1.523 . S
C1757 C1741 1.429 . S
C1757 C1753 1.429 . S
C1757 C1758 1.523 . S
C1758 C1742 1.368 . S
C1758 C1754 1.368 . S
C1758 C1757 1.523 . S
H1759 C1734 0.950 . S
H1760 C1736 0.950 . S
H1761 C1737 0.949 . S
H1762 C1739 0.950 . S
H1763 C1741 0.950 . S
C1764 C1765 1.349 . S
C1764 C1766 1.327 . S
C1764 H1789 0.950 . S
C1765 C1764 1.349 . S
C1765 C1781 1.349 . S
C1766 C1764 1.327 . S
C1766 C1785 1.429 . S
C1766 H1790 0.950 . S
C1767 C1784 1.574 . S
C1767 C1786 1.368 . S
C1767 H1791 0.949 . S
H1768 C1772 0.949 . S
C1769 C1770 1.349 . S
C1769 C1771 1.327 . S
C1769 H1792 0.950 . S
C1770 C1769 1.349 . S
C1770 C1782 1.349 . S
C1771 C1769 1.327 . S
C1771 C1787 1.429 . S
C1771 H1793 0.950 . S
C1772 H1768 0.949 . S
C1772 C1780 1.574 . S
C1772 C1788 1.368 . S
H1773 C1781 0.950 . S
H1774 C1779 0.950 . S
H1775 C1780 0.949 . S
H1776 C1782 0.950 . S
H1777 C1783 0.950 . S
H1778 C1784 0.949 . S
C1779 H1774 0.950 . S
C1779 C1781 1.327 . S
C1779 C1785 1.429 . S
C1780 C1772 1.574 . S
C1780 H1775 0.949 . S
C1780 C1786 1.368 . S
C1781 C1765 1.349 . S
C1781 H1773 0.950 . S
C1781 C1779 1.327 . S
C1782 C1770 1.349 . S
C1782 H1776 0.950 . S
C1782 C1783 1.327 . S
C1783 H1777 0.950 . S
C1783 C1782 1.327 . S
C1783 C1787 1.429 . S
C1784 C1767 1.574 . S
C1784 H1778 0.949 . S
C1784 C1788 1.368 . S
C1785 C1766 1.429 . S
C1785 C1779 1.429 . S
C1785 C1786 1.523 . S
C1786 C1767 1.368 . S
C1786 C1780 1.368 . S
C1786 C1785 1.523 . S
C1787 C1771 1.429 . S
C1787 C1783 1.429 . S
C1787 C1788 1.523 . S
C1788 C1772 1.368 . S
C1788 C1784 1.368 . S
C1788 C1787 1.523 . S
H1789 C1764 0.950 . S
H1790 C1766 0.950 . S
H1791 C1767 0.949 . S
H1792 C1769 0.950 . S
H1793 C1771 0.950 . S
C1794 C1795 1.349 . S
C1794 C1796 1.327 . S
C1794 H1819 0.950 . S
C1795 C1794 1.349 . S
C1795 C1811 1.349 . S
C1796 C1794 1.327 . S
C1796 C1815 1.429 . S
C1796 H1820 0.950 . S
C1797 C1814 1.574 . S
C1797 C1816 1.368 . S
C1797 H1821 0.949 . S
H1798 C1802 0.949 . S
C1799 C1800 1.349 . S
C1799 C1801 1.327 . S
C1799 H1822 0.950 . S
C1800 C1799 1.349 . S
C1800 C1812 1.349 . S
C1801 C1799 1.327 . S
C1801 C1817 1.429 . S
C1801 H1823 0.950 . S
C1802 H1798 0.949 . S
C1802 C1810 1.574 . S
C1802 C1818 1.368 . S
H1803 C1811 0.950 . S
H1804 C1809 0.950 . S
H1805 C1810 0.949 . S
H1806 C1812 0.950 . S
H1807 C1813 0.950 . S
H1808 C1814 0.949 . S
C1809 H1804 0.950 . S
C1809 C1811 1.327 . S
C1809 C1815 1.429 . S
C1810 C1802 1.574 . S
C1810 H1805 0.949 . S
C1810 C1816 1.368 . S
C1811 C1795 1.349 . S
C1811 H1803 0.950 . S
C1811 C1809 1.327 . S
C1812 C1800 1.349 . S
C1812 H1806 0.950 . S
C1812 C1813 1.327 . S
C1813 H1807 0.950 . S
C1813 C1812 1.327 . S
C1813 C1817 1.429 . S
C1814 C1797 1.574 . S
C1814 H1808 0.949 . S
C1814 C1818 1.368 . S
C1815 C1796 1.429 . S
C1815 C1809 1.429 . S
C1815 C1816 1.523 . S
C1816 C1797 1.368 . S
C1816 C1810 1.368 . S
C1816 C1815 1.523 . S
C1817 C1801 1.429 . S
C1817 C1813 1.429 . S
C1817 C1818 1.523 . S
C1818 C1802 1.368 . S
C1818 C1814 1.368 . S
C1818 C1817 1.523 . S
H1819 C1794 0.950 . S
H1820 C1796 0.950 . S
H1821 C1797 0.949 . S
H1822 C1799 0.950 . S
H1823 C1801 0.950 . S
C1824 C1825 1.349 . S
C1824 C1826 1.327 . S
C1824 H1849 0.950 . S
C1825 C1824 1.349 . S
C1825 C1841 1.349 . S
C1826 C1824 1.327 . S
C1826 C1845 1.429 . S
C1826 H1850 0.950 . S
C1827 C1844 1.574 . S
C1827 C1846 1.368 . S
C1827 H1851 0.949 . S
H1828 C1832 0.949 . S
C1829 C1830 1.349 . S
C1829 C1831 1.327 . S
C1829 H1852 0.950 . S
C1830 C1829 1.349 . S
C1830 C1842 1.349 . S
C1831 C1829 1.327 . S
C1831 C1847 1.429 . S
C1831 H1853 0.950 . S
C1832 H1828 0.949 . S
C1832 C1840 1.574 . S
C1832 C1848 1.368 . S
H1833 C1841 0.950 . S
H1834 C1839 0.950 . S
H1835 C1840 0.949 . S
H1836 C1842 0.950 . S
H1837 C1843 0.950 . S
H1838 C1844 0.949 . S
C1839 H1834 0.950 . S
C1839 C1841 1.327 . S
C1839 C1845 1.429 . S
C1840 C1832 1.574 . S
C1840 H1835 0.949 . S
C1840 C1846 1.368 . S
C1841 C1825 1.349 . S
C1841 H1833 0.950 . S
C1841 C1839 1.327 . S
C1842 C1830 1.349 . S
C1842 H1836 0.950 . S
C1842 C1843 1.327 . S
C1843 H1837 0.950 . S
C1843 C1842 1.327 . S
C1843 C1847 1.429 . S
C1844 C1827 1.574 . S
C1844 H1838 0.949 . S
C1844 C1848 1.368 . S
C1845 C1826 1.429 . S
C1845 C1839 1.429 . S
C1845 C1846 1.523 . S
C1846 C1827 1.368 . S
C1846 C1840 1.368 . S
C1846 C1845 1.523 . S
C1847 C1831 1.429 . S
C1847 C1843 1.429 . S
C1847 C1848 1.523 . S
C1848 C1832 1.368 . S
C1848 C1844 1.368 . S
C1848 C1847 1.523 . S
H1849 C1824 0.950 . S
H1850 C1826 0.950 . S
H1851 C1827 0.949 . S
H1852 C1829 0.950 . S
H1853 C1831 0.950 . S
C1854 C1855 1.349 . S
C1854 C1856 1.327 . S
C1854 H1879 0.950 . S
C1855 C1854 1.349 . S
C1855 C1871 1.349 . S
C1856 C1854 1.327 . S
C1856 C1875 1.429 . S
C1856 H1880 0.950 . S
C1857 C1874 1.574 . S
C1857 C1876 1.368 . S
C1857 H1881 0.949 . S
H1858 C1862 0.949 . S
C1859 C1860 1.349 . S
C1859 C1861 1.327 . S
C1859 H1882 0.950 . S
C1860 C1859 1.349 . S
C1860 C1872 1.349 . S
C1861 C1859 1.327 . S
C1861 C1877 1.429 . S
C1861 H1883 0.950 . S
C1862 H1858 0.949 . S
C1862 C1870 1.574 . S
C1862 C1878 1.368 . S
H1863 C1871 0.950 . S
H1864 C1869 0.950 . S
H1865 C1870 0.949 . S
H1866 C1872 0.950 . S
H1867 C1873 0.950 . S
H1868 C1874 0.949 . S
C1869 H1864 0.950 . S
C1869 C1871 1.327 . S
C1869 C1875 1.429 . S
C1870 C1862 1.574 . S
C1870 H1865 0.949 . S
C1870 C1876 1.368 . S
C1871 C1855 1.349 . S
C1871 H1863 0.950 . S
C1871 C1869 1.327 . S
C1872 C1860 1.349 . S
C1872 H1866 0.950 . S
C1872 C1873 1.327 . S
C1873 H1867 0.950 . S
C1873 C1872 1.327 . S
C1873 C1877 1.429 . S
C1874 C1857 1.574 . S
C1874 H1868 0.949 . S
C1874 C1878 1.368 . S
C1875 C1856 1.429 . S
C1875 C1869 1.429 . S
C1875 C1876 1.523 . S
C1876 C1857 1.368 . S
C1876 C1870 1.368 . S
C1876 C1875 1.523 . S
C1877 C1861 1.429 . S
C1877 C1873 1.429 . S
C1877 C1878 1.523 . S
C1878 C1862 1.368 . S
C1878 C1874 1.368 . S
C1878 C1877 1.523 . S
H1879 C1854 0.950 . S
H1880 C1856 0.950 . S
H1881 C1857 0.949 . S
H1882 C1859 0.950 . S
H1883 C1861 0.950 . S
C1884 C1885 1.349 . S
C1884 C1886 1.327 . S
C1884 H1909 0.950 . S
C1885 C1884 1.349 . S
C1885 C1901 1.349 . S
C1886 C1884 1.327 . S
C1886 C1905 1.429 . S
C1886 H1910 0.950 . S
C1887 C1904 1.574 . S
C1887 C1906 1.368 . S
C1887 H1911 0.949 . S
H1888 C1892 0.949 . S
C1889 C1890 1.349 . S
C1889 C1891 1.327 . S
C1889 H1912 0.950 . S
C1890 C1889 1.349 . S
C1890 C1902 1.349 . S
C1891 C1889 1.327 . S
C1891 C1907 1.429 . S
C1891 H1913 0.950 . S
C1892 H1888 0.949 . S
C1892 C1900 1.574 . S
C1892 C1908 1.368 . S
H1893 C1901 0.950 . S
H1894 C1899 0.950 . S
H1895 C1900 0.949 . S
H1896 C1902 0.950 . S
H1897 C1903 0.950 . S
H1898 C1904 0.949 . S
C1899 H1894 0.950 . S
C1899 C1901 1.327 . S
C1899 C1905 1.429 . S
C1900 C1892 1.574 . S
C1900 H1895 0.949 . S
C1900 C1906 1.368 . S
C1901 C1885 1.349 . S
C1901 H1893 0.950 . S
C1901 C1899 1.327 . S
C1902 C1890 1.349 . S
C1902 H1896 0.950 . S
C1902 C1903 1.327 . S
C1903 H1897 0.950 . S
C1903 C1902 1.327 . S
C1903 C1907 1.429 . S
C1904 C1887 1.574 . S
C1904 H1898 0.949 . S
C1904 C1908 1.368 . S
C1905 C1886 1.429 . S
C1905 C1899 1.429 . S
C1905 C1906 1.523 . S
C1906 C1887 1.368 . S
C1906 C1900 1.368 . S
C1906 C1905 1.523 . S
C1907 C1891 1.429 . S
C1907 C1903 1.429 . S
C1907 C1908 1.523 . S
C1908 C1892 1.368 . S
C1908 C1904 1.368 . S
C1908 C1907 1.523 . S
H1909 C1884 0.950 . S
H1910 C1886 0.950 . S
H1911 C1887 0.949 . S
H1912 C1889 0.950 . S
H1913 C1891 0.950 . S
C1914 C1915 1.349 . S
C1914 C1916 1.327 . S
C1914 H1939 0.950 . S
C1915 C1914 1.349 . S
C1915 C1931 1.349 . S
C1916 C1914 1.327 . S
C1916 C1935 1.429 . S
C1916 H1940 0.950 . S
C1917 C1934 1.574 . S
C1917 C1936 1.368 . S
C1917 H1941 0.949 . S
H1918 C1922 0.949 . S
C1919 C1920 1.349 . S
C1919 C1921 1.327 . S
C1919 H1942 0.950 . S
C1920 C1919 1.349 . S
C1920 C1932 1.349 . S
C1921 C1919 1.327 . S
C1921 C1937 1.429 . S
C1921 H1943 0.950 . S
C1922 H1918 0.949 . S
C1922 C1930 1.574 . S
C1922 C1938 1.368 . S
H1923 C1931 0.950 . S
H1924 C1929 0.950 . S
H1925 C1930 0.949 . S
H1926 C1932 0.950 . S
H1927 C1933 0.950 . S
H1928 C1934 0.949 . S
C1929 H1924 0.950 . S
C1929 C1931 1.327 . S
C1929 C1935 1.429 . S
C1930 C1922 1.574 . S
C1930 H1925 0.949 . S
C1930 C1936 1.368 . S
C1931 C1915 1.349 . S
C1931 H1923 0.950 . S
C1931 C1929 1.327 . S
C1932 C1920 1.349 . S
C1932 H1926 0.950 . S
C1932 C1933 1.327 . S
C1933 H1927 0.950 . S
C1933 C1932 1.327 . S
C1933 C1937 1.429 . S
C1934 C1917 1.574 . S
C1934 H1928 0.949 . S
C1934 C1938 1.368 . S
C1935 C1916 1.429 . S
C1935 C1929 1.429 . S
C1935 C1936 1.523 . S
C1936 C1917 1.368 . S
C1936 C1930 1.368 . S
C1936 C1935 1.523 . S
C1937 C1921 1.429 . S
C1937 C1933 1.429 . S
C1937 C1938 1.523 . S
C1938 C1922 1.368 . S
C1938 C1934 1.368 . S
C1938 C1937 1.523 . S
H1939 C1914 0.950 . S
H1940 C1916 0.950 . S
H1941 C1917 0.949 . S
H1942 C1919 0.950 . S
H1943 C1921 0.950 . S
C1944 C1945 1.349 . S
C1944 C1946 1.327 . S
C1944 H1969 0.950 . S
C1945 C1944 1.349 . S
C1945 C1961 1.349 . S
C1946 C1944 1.327 . S
C1946 C1965 1.429 . S
C1946 H1970 0.950 . S
C1947 C1964 1.574 . S
C1947 C1966 1.368 . S
C1947 H1971 0.949 . S
H1948 C1952 0.949 . S
C1949 C1950 1.349 . S
C1949 C1951 1.327 . S
C1949 H1972 0.950 . S
C1950 C1949 1.349 . S
C1950 C1962 1.349 . S
C1951 C1949 1.327 . S
C1951 C1967 1.429 . S
C1951 H1973 0.950 . S
C1952 H1948 0.949 . S
C1952 C1960 1.574 . S
C1952 C1968 1.368 . S
H1953 C1961 0.950 . S
H1954 C1959 0.950 . S
H1955 C1960 0.949 . S
H1956 C1962 0.950 . S
H1957 C1963 0.950 . S
H1958 C1964 0.949 . S
C1959 H1954 0.950 . S
C1959 C1961 1.327 . S
C1959 C1965 1.429 . S
C1960 C1952 1.574 . S
C1960 H1955 0.949 . S
C1960 C1966 1.368 . S
C1961 C1945 1.349 . S
C1961 H1953 0.950 . S
C1961 C1959 1.327 . S
C1962 C1950 1.349 . S
C1962 H1956 0.950 . S
C1962 C1963 1.327 . S
C1963 H1957 0.950 . S
C1963 C1962 1.327 . S
C1963 C1967 1.429 . S
C1964 C1947 1.574 . S
C1964 H1958 0.949 . S
C1964 C1968 1.368 . S
C1965 C1946 1.429 . S
C1965 C1959 1.429 . S
C1965 C1966 1.523 . S
C1966 C1947 1.368 . S
C1966 C1960 1.368 . S
C1966 C1965 1.523 . S
C1967 C1951 1.429 . S
C1967 C1963 1.429 . S
C1967 C1968 1.523 . S
C1968 C1952 1.368 . S
C1968 C1964 1.368 . S
C1968 C1967 1.523 . S
H1969 C1944 0.950 . S
H1970 C1946 0.950 . S
H1971 C1947 0.949 . S
H1972 C1949 0.950 . S
H1973 C1951 0.950 . S
C1974 C1975 1.349 . S
C1974 C1976 1.327 . S
C1974 H1999 0.950 . S
C1975 C1974 1.349 . S
C1975 C1991 1.349 . S
C1976 C1974 1.327 . S
C1976 C1995 1.429 . S
C1976 H2000 0.950 . S
C1977 C1994 1.574 . S
C1977 C1996 1.368 . S
C1977 H2001 0.949 . S
H1978 C1982 0.949 . S
C1979 C1980 1.349 . S
C1979 C1981 1.327 . S
C1979 H2002 0.950 . S
C1980 C1979 1.349 . S
C1980 C1992 1.349 . S
C1981 C1979 1.327 . S
C1981 C1997 1.429 . S
C1981 H2003 0.950 . S
C1982 H1978 0.949 . S
C1982 C1990 1.574 . S
C1982 C1998 1.368 . S
H1983 C1991 0.950 . S
H1984 C1989 0.950 . S
H1985 C1990 0.949 . S
H1986 C1992 0.950 . S
H1987 C1993 0.950 . S
H1988 C1994 0.949 . S
C1989 H1984 0.950 . S
C1989 C1991 1.327 . S
C1989 C1995 1.429 . S
C1990 C1982 1.574 . S
C1990 H1985 0.949 . S
C1990 C1996 1.368 . S
C1991 C1975 1.349 . S
C1991 H1983 0.950 . S
C1991 C1989 1.327 . S
C1992 C1980 1.349 . S
C1992 H1986 0.950 . S
C1992 C1993 1.327 . S
C1993 H1987 0.950 . S
C1993 C1992 1.327 . S
C1993 C1997 1.429 . S
C1994 C1977 1.574 . S
C1994 H1988 0.949 . S
C1994 C1998 1.368 . S
C1995 C1976 1.429 . S
C1995 C1989 1.429 . S
C1995 C1996 1.523 . S
C1996 C1977 1.368 . S
C1996 C1990 1.368 . S
C1996 C1995 1.523 . S
C1997 C1981 1.429 . S
C1997 C1993 1.429 . S
C1997 C1998 1.523 . S
C1998 C1982 1.368 . S
C1998 C1994 1.368 . S
C1998 C1997 1.523 . S
H1999 C1974 0.950 . S
H2000 C1976 0.950 . S
H2001 C1977 0.949 . S
H2002 C1979 0.950 . S
H2003 C1981 0.950 . S
C2004 C2005 1.349 . S
C2004 C2006 1.327 . S
C2004 H2029 0.950 . S
C2005 C2004 1.349 . S
C2005 C2021 1.349 . S
C2006 C2004 1.327 . S
C2006 C2025 1.429 . S
C2006 H2030 0.950 . S
C2007 C2024 1.574 . S
C2007 C2026 1.368 . S
C2007 H2031 0.949 . S
H2008 C2012 0.949 . S
C2009 C2010 1.349 . S
C2009 C2011 1.327 . S
C2009 H2032 0.950 . S
C2010 C2009 1.349 . S
C2010 C2022 1.349 . S
C2011 C2009 1.327 . S
C2011 C2027 1.429 . S
C2011 H2033 0.950 . S
C2012 H2008 0.949 . S
C2012 C2020 1.574 . S
C2012 C2028 1.368 . S
H2013 C2021 0.950 . S
H2014 C2019 0.950 . S
H2015 C2020 0.949 . S
H2016 C2022 0.950 . S
H2017 C2023 0.950 . S
H2018 C2024 0.949 . S
C2019 H2014 0.950 . S
C2019 C2021 1.327 . S
C2019 C2025 1.429 . S
C2020 C2012 1.574 . S
C2020 H2015 0.949 . S
C2020 C2026 1.368 . S
C2021 C2005 1.349 . S
C2021 H2013 0.950 . S
C2021 C2019 1.327 . S
C2022 C2010 1.349 . S
C2022 H2016 0.950 . S
C2022 C2023 1.327 . S
C2023 H2017 0.950 . S
C2023 C2022 1.327 . S
C2023 C2027 1.429 . S
C2024 C2007 1.574 . S
C2024 H2018 0.949 . S
C2024 C2028 1.368 . S
C2025 C2006 1.429 . S
C2025 C2019 1.429 . S
C2025 C2026 1.523 . S
C2026 C2007 1.368 . S
C2026 C2020 1.368 . S
C2026 C2025 1.523 . S
C2027 C2011 1.429 . S
C2027 C2023 1.429 . S
C2027 C2028 1.523 . S
C2028 C2012 1.368 . S
C2028 C2024 1.368 . S
C2028 C2027 1.523 . S
H2029 C2004 0.950 . S
H2030 C2006 0.950 . S
H2031 C2007 0.949 . S
H2032 C2009 0.950 . S
H2033 C2011 0.950 . S
C2034 C2035 1.349 . S
C2034 C2036 1.327 . S
C2034 H2059 0.950 . S
C2035 C2034 1.349 . S
C2035 C2051 1.349 . S
C2036 C2034 1.327 . S
C2036 C2055 1.429 . S
C2036 H2060 0.950 . S
C2037 C2054 1.574 . S
C2037 C2056 1.368 . S
C2037 H2061 0.949 . S
H2038 C2042 0.949 . S
C2039 C2040 1.349 . S
C2039 C2041 1.327 . S
C2039 H2062 0.950 . S
C2040 C2039 1.349 . S
C2040 C2052 1.349 . S
C2041 C2039 1.327 . S
C2041 C2057 1.429 . S
C2041 H2063 0.950 . S
C2042 H2038 0.949 . S
C2042 C2050 1.574 . S
C2042 C2058 1.368 . S
H2043 C2051 0.950 . S
H2044 C2049 0.950 . S
H2045 C2050 0.949 . S
H2046 C2052 0.950 . S
H2047 C2053 0.950 . S
H2048 C2054 0.949 . S
C2049 H2044 0.950 . S
C2049 C2051 1.327 . S
C2049 C2055 1.429 . S
C2050 C2042 1.574 . S
C2050 H2045 0.949 . S
C2050 C2056 1.368 . S
C2051 C2035 1.349 . S
C2051 H2043 0.950 . S
C2051 C2049 1.327 . S
C2052 C2040 1.349 . S
C2052 H2046 0.950 . S
C2052 C2053 1.327 . S
C2053 H2047 0.950 . S
C2053 C2052 1.327 . S
C2053 C2057 1.429 . S
C2054 C2037 1.574 . S
C2054 H2048 0.949 . S
C2054 C2058 1.368 . S
C2055 C2036 1.429 . S
C2055 C2049 1.429 . S
C2055 C2056 1.523 . S
C2056 C2037 1.368 . S
C2056 C2050 1.368 . S
C2056 C2055 1.523 . S
C2057 C2041 1.429 . S
C2057 C2053 1.429 . S
C2057 C2058 1.523 . S
C2058 C2042 1.368 . S
C2058 C2054 1.368 . S
C2058 C2057 1.523 . S
H2059 C2034 0.950 . S
H2060 C2036 0.950 . S
H2061 C2037 0.949 . S
H2062 C2039 0.950 . S
H2063 C2041 0.950 . S
C2064 C2065 1.349 . S
C2064 C2066 1.327 . S
C2064 H2089 0.950 . S
C2065 C2064 1.349 . S
C2065 C2081 1.349 . S
C2066 C2064 1.327 . S
C2066 C2085 1.429 . S
C2066 H2090 0.950 . S
C2067 C2084 1.574 . S
C2067 C2086 1.368 . S
C2067 H2091 0.949 . S
H2068 C2072 0.949 . S
C2069 C2070 1.349 . S
C2069 C2071 1.327 . S
C2069 H2092 0.950 . S
C2070 C2069 1.349 . S
C2070 C2082 1.349 . S
C2071 C2069 1.327 . S
C2071 C2087 1.429 . S
C2071 H2093 0.950 . S
C2072 H2068 0.949 . S
C2072 C2080 1.574 . S
C2072 C2088 1.368 . S
H2073 C2081 0.950 . S
H2074 C2079 0.950 . S
H2075 C2080 0.949 . S
H2076 C2082 0.950 . S
H2077 C2083 0.950 . S
H2078 C2084 0.949 . S
C2079 H2074 0.950 . S
C2079 C2081 1.327 . S
C2079 C2085 1.429 . S
C2080 C2072 1.574 . S
C2080 H2075 0.949 . S
C2080 C2086 1.368 . S
C2081 C2065 1.349 . S
C2081 H2073 0.950 . S
C2081 C2079 1.327 . S
C2082 C2070 1.349 . S
C2082 H2076 0.950 . S
C2082 C2083 1.327 . S
C2083 H2077 0.950 . S
C2083 C2082 1.327 . S
C2083 C2087 1.429 . S
C2084 C2067 1.574 . S
C2084 H2078 0.949 . S
C2084 C2088 1.368 . S
C2085 C2066 1.429 . S
C2085 C2079 1.429 . S
C2085 C2086 1.523 . S
C2086 C2067 1.368 . S
C2086 C2080 1.368 . S
C2086 C2085 1.523 . S
C2087 C2071 1.429 . S
C2087 C2083 1.429 . S
C2087 C2088 1.523 . S
C2088 C2072 1.368 . S
C2088 C2084 1.368 . S
C2088 C2087 1.523 . S
H2089 C2064 0.950 . S
H2090 C2066 0.950 . S
H2091 C2067 0.949 . S
H2092 C2069 0.950 . S
H2093 C2071 0.950 . S
C2094 C2095 1.349 . S
C2094 C2096 1.327 . S
C2094 H2119 0.950 . S
C2095 C2094 1.349 . S
C2095 C2111 1.349 . S
C2096 C2094 1.327 . S
C2096 C2115 1.429 . S
C2096 H2120 0.950 . S
C2097 C2114 1.574 . S
C2097 C2116 1.368 . S
C2097 H2121 0.949 . S
H2098 C2102 0.949 . S
C2099 C2100 1.349 . S
C2099 C2101 1.327 . S
C2099 H2122 0.950 . S
C2100 C2099 1.349 . S
C2100 C2112 1.349 . S
C2101 C2099 1.327 . S
C2101 C2117 1.429 . S
C2101 H2123 0.950 . S
C2102 H2098 0.949 . S
C2102 C2110 1.574 . S
C2102 C2118 1.368 . S
H2103 C2111 0.950 . S
H2104 C2109 0.950 . S
H2105 C2110 0.949 . S
H2106 C2112 0.950 . S
H2107 C2113 0.950 . S
H2108 C2114 0.949 . S
C2109 H2104 0.950 . S
C2109 C2111 1.327 . S
C2109 C2115 1.429 . S
C2110 C2102 1.574 . S
C2110 H2105 0.949 . S
C2110 C2116 1.368 . S
C2111 C2095 1.349 . S
C2111 H2103 0.950 . S
C2111 C2109 1.327 . S
C2112 C2100 1.349 . S
C2112 H2106 0.950 . S
C2112 C2113 1.327 . S
C2113 H2107 0.950 . S
C2113 C2112 1.327 . S
C2113 C2117 1.429 . S
C2114 C2097 1.574 . S
C2114 H2108 0.949 . S
C2114 C2118 1.368 . S
C2115 C2096 1.429 . S
C2115 C2109 1.429 . S
C2115 C2116 1.523 . S
C2116 C2097 1.368 . S
C2116 C2110 1.368 . S
C2116 C2115 1.523 . S
C2117 C2101 1.429 . S
C2117 C2113 1.429 . S
C2117 C2118 1.523 . S
C2118 C2102 1.368 . S
C2118 C2114 1.368 . S
C2118 C2117 1.523 . S
H2119 C2094 0.950 . S
H2120 C2096 0.950 . S
H2121 C2097 0.949 . S
H2122 C2099 0.950 . S
H2123 C2101 0.950 . S
C2124 C2125 1.349 . S
C2124 C2126 1.327 . S
C2124 H2149 0.950 . S
C2125 C2124 1.349 . S
C2125 C2141 1.349 . S
C2126 C2124 1.327 . S
C2126 C2145 1.429 . S
C2126 H2150 0.950 . S
C2127 C2144 1.574 . S
C2127 C2146 1.368 . S
C2127 H2151 0.949 . S
H2128 C2132 0.949 . S
C2129 C2130 1.349 . S
C2129 C2131 1.327 . S
C2129 H2152 0.950 . S
C2130 C2129 1.349 . S
C2130 C2142 1.349 . S
C2131 C2129 1.327 . S
C2131 C2147 1.429 . S
C2131 H2153 0.950 . S
C2132 H2128 0.949 . S
C2132 C2140 1.574 . S
C2132 C2148 1.368 . S
H2133 C2141 0.950 . S
H2134 C2139 0.950 . S
H2135 C2140 0.949 . S
H2136 C2142 0.950 . S
H2137 C2143 0.950 . S
H2138 C2144 0.949 . S
C2139 H2134 0.950 . S
C2139 C2141 1.327 . S
C2139 C2145 1.429 . S
C2140 C2132 1.574 . S
C2140 H2135 0.949 . S
C2140 C2146 1.368 . S
C2141 C2125 1.349 . S
C2141 H2133 0.950 . S
C2141 C2139 1.327 . S
C2142 C2130 1.349 . S
C2142 H2136 0.950 . S
C2142 C2143 1.327 . S
C2143 H2137 0.950 . S
C2143 C2142 1.327 . S
C2143 C2147 1.429 . S
C2144 C2127 1.574 . S
C2144 H2138 0.949 . S
C2144 C2148 1.368 . S
C2145 C2126 1.429 . S
C2145 C2139 1.429 . S
C2145 C2146 1.523 . S
C2146 C2127 1.368 . S
C2146 C2140 1.368 . S
C2146 C2145 1.523 . S
C2147 C2131 1.429 . S
C2147 C2143 1.429 . S
C2147 C2148 1.523 . S
C2148 C2132 1.368 . S
C2148 C2144 1.368 . S
C2148 C2147 1.523 . S
H2149 C2124 0.950 . S
H2150 C2126 0.950 . S
H2151 C2127 0.949 . S
H2152 C2129 0.950 . S
H2153 C2131 0.950 . S
C2154 C2155 1.349 . S
C2154 C2156 1.327 . S
C2154 H2179 0.950 . S
C2155 C2154 1.349 . S
C2155 C2171 1.349 . S
C2156 C2154 1.327 . S
C2156 C2175 1.429 . S
C2156 H2180 0.950 . S
C2157 C2174 1.574 . S
C2157 C2176 1.368 . S
C2157 H2181 0.949 . S
H2158 C2162 0.949 . S
C2159 C2160 1.349 . S
C2159 C2161 1.327 . S
C2159 H2182 0.950 . S
C2160 C2159 1.349 . S
C2160 C2172 1.349 . S
C2161 C2159 1.327 . S
C2161 C2177 1.429 . S
C2161 H2183 0.950 . S
C2162 H2158 0.949 . S
C2162 C2170 1.574 . S
C2162 C2178 1.368 . S
H2163 C2171 0.950 . S
H2164 C2169 0.950 . S
H2165 C2170 0.949 . S
H2166 C2172 0.950 . S
H2167 C2173 0.950 . S
H2168 C2174 0.949 . S
C2169 H2164 0.950 . S
C2169 C2171 1.327 . S
C2169 C2175 1.429 . S
C2170 C2162 1.574 . S
C2170 H2165 0.949 . S
C2170 C2176 1.368 . S
C2171 C2155 1.349 . S
C2171 H2163 0.950 . S
C2171 C2169 1.327 . S
C2172 C2160 1.349 . S
C2172 H2166 0.950 . S
C2172 C2173 1.327 . S
C2173 H2167 0.950 . S
C2173 C2172 1.327 . S
C2173 C2177 1.429 . S
C2174 C2157 1.574 . S
C2174 H2168 0.949 . S
C2174 C2178 1.368 . S
C2175 C2156 1.429 . S
C2175 C2169 1.429 . S
C2175 C2176 1.523 . S
C2176 C2157 1.368 . S
C2176 C2170 1.368 . S
C2176 C2175 1.523 . S
C2177 C2161 1.429 . S
C2177 C2173 1.429 . S
C2177 C2178 1.523 . S
C2178 C2162 1.368 . S
C2178 C2174 1.368 . S
C2178 C2177 1.523 . S
H2179 C2154 0.950 . S
H2180 C2156 0.950 . S
H2181 C2157 0.949 . S
H2182 C2159 0.950 . S
H2183 C2161 0.950 . S
C2184 C2185 1.349 . S
C2184 C2186 1.327 . S
C2184 H2209 0.950 . S
C2185 C2184 1.349 . S
C2185 C2201 1.349 . S
C2186 C2184 1.327 . S
C2186 C2205 1.429 . S
C2186 H2210 0.950 . S
C2187 C2204 1.574 . S
C2187 C2206 1.368 . S
C2187 H2211 0.949 . S
H2188 C2192 0.949 . S
C2189 C2190 1.349 . S
C2189 C2191 1.327 . S
C2189 H2212 0.950 . S
C2190 C2189 1.349 . S
C2190 C2202 1.349 . S
C2191 C2189 1.327 . S
C2191 C2207 1.429 . S
C2191 H2213 0.950 . S
C2192 H2188 0.949 . S
C2192 C2200 1.574 . S
C2192 C2208 1.368 . S
H2193 C2201 0.950 . S
H2194 C2199 0.950 . S
H2195 C2200 0.949 . S
H2196 C2202 0.950 . S
H2197 C2203 0.950 . S
H2198 C2204 0.949 . S
C2199 H2194 0.950 . S
C2199 C2201 1.327 . S
C2199 C2205 1.429 . S
C2200 C2192 1.574 . S
C2200 H2195 0.949 . S
C2200 C2206 1.368 . S
C2201 C2185 1.349 . S
C2201 H2193 0.950 . S
C2201 C2199 1.327 . S
C2202 C2190 1.349 . S
C2202 H2196 0.950 . S
C2202 C2203 1.327 . S
C2203 H2197 0.950 . S
C2203 C2202 1.327 . S
C2203 C2207 1.429 . S
C2204 C2187 1.574 . S
C2204 H2198 0.949 . S
C2204 C2208 1.368 . S
C2205 C2186 1.429 . S
C2205 C2199 1.429 . S
C2205 C2206 1.523 . S
C2206 C2187 1.368 . S
C2206 C2200 1.368 . S
C2206 C2205 1.523 . S
C2207 C2191 1.429 . S
C2207 C2203 1.429 . S
C2207 C2208 1.523 . S
C2208 C2192 1.368 . S
C2208 C2204 1.368 . S
C2208 C2207 1.523 . S
H2209 C2184 0.950 . S
H2210 C2186 0.950 . S
H2211 C2187 0.949 . S
H2212 C2189 0.950 . S
H2213 C2191 0.950 . S
C2214 C2215 1.349 . S
C2214 C2216 1.327 . S
C2214 H2239 0.950 . S
C2215 C2214 1.349 . S
C2215 C2231 1.349 . S
C2216 C2214 1.327 . S
C2216 C2235 1.429 . S
C2216 H2240 0.950 . S
C2217 C2234 1.574 . S
C2217 C2236 1.368 . S
C2217 H2241 0.949 . S
H2218 C2222 0.949 . S
C2219 C2220 1.349 . S
C2219 C2221 1.327 . S
C2219 H2242 0.950 . S
C2220 C2219 1.349 . S
C2220 C2232 1.349 . S
C2221 C2219 1.327 . S
C2221 C2237 1.429 . S
C2221 H2243 0.950 . S
C2222 H2218 0.949 . S
C2222 C2230 1.574 . S
C2222 C2238 1.368 . S
H2223 C2231 0.950 . S
H2224 C2229 0.950 . S
H2225 C2230 0.949 . S
H2226 C2232 0.950 . S
H2227 C2233 0.950 . S
H2228 C2234 0.949 . S
C2229 H2224 0.950 . S
C2229 C2231 1.327 . S
C2229 C2235 1.429 . S
C2230 C2222 1.574 . S
C2230 H2225 0.949 . S
C2230 C2236 1.368 . S
C2231 C2215 1.349 . S
C2231 H2223 0.950 . S
C2231 C2229 1.327 . S
C2232 C2220 1.349 . S
C2232 H2226 0.950 . S
C2232 C2233 1.327 . S
C2233 H2227 0.950 . S
C2233 C2232 1.327 . S
C2233 C2237 1.429 . S
C2234 C2217 1.574 . S
C2234 H2228 0.949 . S
C2234 C2238 1.368 . S
C2235 C2216 1.429 . S
C2235 C2229 1.429 . S
C2235 C2236 1.523 . S
C2236 C2217 1.368 . S
C2236 C2230 1.368 . S
C2236 C2235 1.523 . S
C2237 C2221 1.429 . S
C2237 C2233 1.429 . S
C2237 C2238 1.523 . S
C2238 C2222 1.368 . S
C2238 C2234 1.368 . S
C2238 C2237 1.523 . S
H2239 C2214 0.950 . S
H2240 C2216 0.950 . S
H2241 C2217 0.949 . S
H2242 C2219 0.950 . S
H2243 C2221 0.950 . S
C2244 C2245 1.349 . S
C2244 C2246 1.327 . S
C2244 H2269 0.950 . S
C2245 C2244 1.349 . S
C2245 C2261 1.349 . S
C2246 C2244 1.327 . S
C2246 C2265 1.429 . S
C2246 H2270 0.950 . S
C2247 C2264 1.574 . S
C2247 C2266 1.368 . S
C2247 H2271 0.949 . S
H2248 C2252 0.949 . S
C2249 C2250 1.349 . S
C2249 C2251 1.327 . S
C2249 H2272 0.950 . S
C2250 C2249 1.349 . S
C2250 C2262 1.349 . S
C2251 C2249 1.327 . S
C2251 C2267 1.429 . S
C2251 H2273 0.950 . S
C2252 H2248 0.949 . S
C2252 C2260 1.574 . S
C2252 C2268 1.368 . S
H2253 C2261 0.950 . S
H2254 C2259 0.950 . S
H2255 C2260 0.949 . S
H2256 C2262 0.950 . S
H2257 C2263 0.950 . S
H2258 C2264 0.949 . S
C2259 H2254 0.950 . S
C2259 C2261 1.327 . S
C2259 C2265 1.429 . S
C2260 C2252 1.574 . S
C2260 H2255 0.949 . S
C2260 C2266 1.368 . S
C2261 C2245 1.349 . S
C2261 H2253 0.950 . S
C2261 C2259 1.327 . S
C2262 C2250 1.349 . S
C2262 H2256 0.950 . S
C2262 C2263 1.327 . S
C2263 H2257 0.950 . S
C2263 C2262 1.327 . S
C2263 C2267 1.429 . S
C2264 C2247 1.574 . S
C2264 H2258 0.949 . S
C2264 C2268 1.368 . S
C2265 C2246 1.429 . S
C2265 C2259 1.429 . S
C2265 C2266 1.523 . S
C2266 C2247 1.368 . S
C2266 C2260 1.368 . S
C2266 C2265 1.523 . S
C2267 C2251 1.429 . S
C2267 C2263 1.429 . S
C2267 C2268 1.523 . S
C2268 C2252 1.368 . S
C2268 C2264 1.368 . S
C2268 C2267 1.523 . S
H2269 C2244 0.950 . S
H2270 C2246 0.950 . S
H2271 C2247 0.949 . S
H2272 C2249 0.950 . S
H2273 C2251 0.950 . S
C2274 C2275 1.349 . S
C2274 C2276 1.327 . S
C2274 H2299 0.950 . S
C2275 C2274 1.349 . S
C2275 C2291 1.349 . S
C2276 C2274 1.327 . S
C2276 C2295 1.429 . S
C2276 H2300 0.950 . S
C2277 C2294 1.574 . S
C2277 C2296 1.368 . S
C2277 H2301 0.949 . S
H2278 C2282 0.949 . S
C2279 C2280 1.349 . S
C2279 C2281 1.327 . S
C2279 H2302 0.950 . S
C2280 C2279 1.349 . S
C2280 C2292 1.349 . S
C2281 C2279 1.327 . S
C2281 C2297 1.429 . S
C2281 H2303 0.950 . S
C2282 H2278 0.949 . S
C2282 C2290 1.574 . S
C2282 C2298 1.368 . S
H2283 C2291 0.950 . S
H2284 C2289 0.950 . S
H2285 C2290 0.949 . S
H2286 C2292 0.950 . S
H2287 C2293 0.950 . S
H2288 C2294 0.949 . S
C2289 H2284 0.950 . S
C2289 C2291 1.327 . S
C2289 C2295 1.429 . S
C2290 C2282 1.574 . S
C2290 H2285 0.949 . S
C2290 C2296 1.368 . S
C2291 C2275 1.349 . S
C2291 H2283 0.950 . S
C2291 C2289 1.327 . S
C2292 C2280 1.349 . S
C2292 H2286 0.950 . S
C2292 C2293 1.327 . S
C2293 H2287 0.950 . S
C2293 C2292 1.327 . S
C2293 C2297 1.429 . S
C2294 C2277 1.574 . S
C2294 H2288 0.949 . S
C2294 C2298 1.368 . S
C2295 C2276 1.429 . S
C2295 C2289 1.429 . S
C2295 C2296 1.523 . S
C2296 C2277 1.368 . S
C2296 C2290 1.368 . S
C2296 C2295 1.523 . S
C2297 C2281 1.429 . S
C2297 C2293 1.429 . S
C2297 C2298 1.523 . S
C2298 C2282 1.368 . S
C2298 C2294 1.368 . S
C2298 C2297 1.523 . S
H2299 C2274 0.950 . S
H2300 C2276 0.950 . S
H2301 C2277 0.949 . S
H2302 C2279 0.950 . S
H2303 C2281 0.950 . S
C2304 C2305 1.349 . S
C2304 C2306 1.327 . S
C2304 H2329 0.950 . S
C2305 C2304 1.349 . S
C2305 C2321 1.349 . S
C2306 C2304 1.327 . S
C2306 C2325 1.429 . S
C2306 H2330 0.950 . S
C2307 C2324 1.574 . S
C2307 C2326 1.368 . S
C2307 H2331 0.949 . S
H2308 C2312 0.949 . S
C2309 C2310 1.349 . S
C2309 C2311 1.327 . S
C2309 H2332 0.950 . S
C2310 C2309 1.349 . S
C2310 C2322 1.349 . S
C2311 C2309 1.327 . S
C2311 C2327 1.429 . S
C2311 H2333 0.950 . S
C2312 H2308 0.949 . S
C2312 C2320 1.574 . S
C2312 C2328 1.368 . S
H2313 C2321 0.950 . S
H2314 C2319 0.950 . S
H2315 C2320 0.949 . S
H2316 C2322 0.950 . S
H2317 C2323 0.950 . S
H2318 C2324 0.949 . S
C2319 H2314 0.950 . S
C2319 C2321 1.327 . S
C2319 C2325 1.429 . S
C2320 C2312 1.574 . S
C2320 H2315 0.949 . S
C2320 C2326 1.368 . S
C2321 C2305 1.349 . S
C2321 H2313 0.950 . S
C2321 C2319 1.327 . S
C2322 C2310 1.349 . S
C2322 H2316 0.950 . S
C2322 C2323 1.327 . S
C2323 H2317 0.950 . S
C2323 C2322 1.327 . S
C2323 C2327 1.429 . S
C2324 C2307 1.574 . S
C2324 H2318 0.949 . S
C2324 C2328 1.368 . S
C2325 C2306 1.429 . S
C2325 C2319 1.429 . S
C2325 C2326 1.523 . S
C2326 C2307 1.368 . S
C2326 C2320 1.368 . S
C2326 C2325 1.523 . S
C2327 C2311 1.429 . S
C2327 C2323 1.429 . S
C2327 C2328 1.523 . S
C2328 C2312 1.368 . S
C2328 C2324 1.368 . S
C2328 C2327 1.523 . S
H2329 C2304 0.950 . S
H2330 C2306 0.950 . S
H2331 C2307 0.949 . S
H2332 C2309 0.950 . S
H2333 C2311 0.950 . S
C2334 C2335 1.349 . S
C2334 C2336 1.327 . S
C2334 H2359 0.950 . S
C2335 C2334 1.349 . S
C2335 C2351 1.349 . S
C2336 C2334 1.327 . S
C2336 C2355 1.429 . S
C2336 H2360 0.950 . S
C2337 C2354 1.574 . S
C2337 C2356 1.368 . S
C2337 H2361 0.949 . S
H2338 C2342 0.949 . S
C2339 C2340 1.349 . S
C2339 C2341 1.327 . S
C2339 H2362 0.950 . S
C2340 C2339 1.349 . S
C2340 C2352 1.349 . S
C2341 C2339 1.327 . S
C2341 C2357 1.429 . S
C2341 H2363 0.950 . S
C2342 H2338 0.949 . S
C2342 C2350 1.574 . S
C2342 C2358 1.368 . S
H2343 C2351 0.950 . S
H2344 C2349 0.950 . S
H2345 C2350 0.949 . S
H2346 C2352 0.950 . S
H2347 C2353 0.950 . S
H2348 C2354 0.949 . S
C2349 H2344 0.950 . S
C2349 C2351 1.327 . S
C2349 C2355 1.429 . S
C2350 C2342 1.574 . S
C2350 H2345 0.949 . S
C2350 C2356 1.368 . S
C2351 C2335 1.349 . S
C2351 H2343 0.950 . S
C2351 C2349 1.327 . S
C2352 C2340 1.349 . S
C2352 H2346 0.950 . S
C2352 C2353 1.327 . S
C2353 H2347 0.950 . S
C2353 C2352 1.327 . S
C2353 C2357 1.429 . S
C2354 C2337 1.574 . S
C2354 H2348 0.949 . S
C2354 C2358 1.368 . S
C2355 C2336 1.429 . S
C2355 C2349 1.429 . S
C2355 C2356 1.523 . S
C2356 C2337 1.368 . S
C2356 C2350 1.368 . S
C2356 C2355 1.523 . S
C2357 C2341 1.429 . S
C2357 C2353 1.429 . S
C2357 C2358 1.523 . S
C2358 C2342 1.368 . S
C2358 C2354 1.368 . S
C2358 C2357 1.523 . S
H2359 C2334 0.950 . S
H2360 C2336 0.950 . S
H2361 C2337 0.949 . S
H2362 C2339 0.950 . S
H2363 C2341 0.950 . S
C2364 C2365 1.349 . S
C2364 C2366 1.327 . S
C2364 H2389 0.950 . S
C2365 C2364 1.349 . S
C2365 C2381 1.349 . S
C2366 C2364 1.327 . S
C2366 C2385 1.429 . S
C2366 H2390 0.950 . S
C2367 C2384 1.574 . S
C2367 C2386 1.368 . S
C2367 H2391 0.949 . S
H2368 C2372 0.949 . S
C2369 C2370 1.349 . S
C2369 C2371 1.327 . S
C2369 H2392 0.950 . S
C2370 C2369 1.349 . S
C2370 C2382 1.349 . S
C2371 C2369 1.327 . S
C2371 C2387 1.429 . S
C2371 H2393 0.950 . S
C2372 H2368 0.949 . S
C2372 C2380 1.574 . S
C2372 C2388 1.368 . S
H2373 C2381 0.950 . S
H2374 C2379 0.950 . S
H2375 C2380 0.949 . S
H2376 C2382 0.950 . S
H2377 C2383 0.950 . S
H2378 C2384 0.949 . S
C2379 H2374 0.950 . S
C2379 C2381 1.327 . S
C2379 C2385 1.429 . S
C2380 C2372 1.574 . S
C2380 H2375 0.949 . S
C2380 C2386 1.368 . S
C2381 C2365 1.349 . S
C2381 H2373 0.950 . S
C2381 C2379 1.327 . S
C2382 C2370 1.349 . S
C2382 H2376 0.950 . S
C2382 C2383 1.327 . S
C2383 H2377 0.950 . S
C2383 C2382 1.327 . S
C2383 C2387 1.429 . S
C2384 C2367 1.574 . S
C2384 H2378 0.949 . S
C2384 C2388 1.368 . S
C2385 C2366 1.429 . S
C2385 C2379 1.429 . S
C2385 C2386 1.523 . S
C2386 C2367 1.368 . S
C2386 C2380 1.368 . S
C2386 C2385 1.523 . S
C2387 C2371 1.429 . S
C2387 C2383 1.429 . S
C2387 C2388 1.523 . S
C2388 C2372 1.368 . S
C2388 C2384 1.368 . S
C2388 C2387 1.523 . S
H2389 C2364 0.950 . S
H2390 C2366 0.950 . S
H2391 C2367 0.949 . S
H2392 C2369 0.950 . S
H2393 C2371 0.950 . S
C2394 C2395 1.349 . S
C2394 C2396 1.327 . S
C2394 H2419 0.950 . S
C2395 C2394 1.349 . S
C2395 C2411 1.349 . S
C2396 C2394 1.327 . S
C2396 C2415 1.429 . S
C2396 H2420 0.950 . S
C2397 C2414 1.574 . S
C2397 C2416 1.368 . S
C2397 H2421 0.949 . S
H2398 C2402 0.949 . S
C2399 C2400 1.349 . S
C2399 C2401 1.327 . S
C2399 H2422 0.950 . S
C2400 C2399 1.349 . S
C2400 C2412 1.349 . S
C2401 C2399 1.327 . S
C2401 C2417 1.429 . S
C2401 H2423 0.950 . S
C2402 H2398 0.949 . S
C2402 C2410 1.574 . S
C2402 C2418 1.368 . S
H2403 C2411 0.950 . S
H2404 C2409 0.950 . S
H2405 C2410 0.949 . S
H2406 C2412 0.950 . S
H2407 C2413 0.950 . S
H2408 C2414 0.949 . S
C2409 H2404 0.950 . S
C2409 C2411 1.327 . S
C2409 C2415 1.429 . S
C2410 C2402 1.574 . S
C2410 H2405 0.949 . S
C2410 C2416 1.368 . S
C2411 C2395 1.349 . S
C2411 H2403 0.950 . S
C2411 C2409 1.327 . S
C2412 C2400 1.349 . S
C2412 H2406 0.950 . S
C2412 C2413 1.327 . S
C2413 H2407 0.950 . S
C2413 C2412 1.327 . S
C2413 C2417 1.429 . S
C2414 C2397 1.574 . S
C2414 H2408 0.949 . S
C2414 C2418 1.368 . S
C2415 C2396 1.429 . S
C2415 C2409 1.429 . S
C2415 C2416 1.523 . S
C2416 C2397 1.368 . S
C2416 C2410 1.368 . S
C2416 C2415 1.523 . S
C2417 C2401 1.429 . S
C2417 C2413 1.429 . S
C2417 C2418 1.523 . S
C2418 C2402 1.368 . S
C2418 C2414 1.368 . S
C2418 C2417 1.523 . S
H2419 C2394 0.950 . S
H2420 C2396 0.950 . S
H2421 C2397 0.949 . S
H2422 C2399 0.950 . S
H2423 C2401 0.950 . S
C2424 C2425 1.349 . S
C2424 C2426 1.327 . S
C2424 H2449 0.950 . S
C2425 C2424 1.349 . S
C2425 C2441 1.349 . S
C2426 C2424 1.327 . S
C2426 C2445 1.429 . S
C2426 H2450 0.950 . S
C2427 C2444 1.574 . S
C2427 C2446 1.368 . S
C2427 H2451 0.949 . S
H2428 C2432 0.949 . S
C2429 C2430 1.349 . S
C2429 C2431 1.327 . S
C2429 H2452 0.950 . S
C2430 C2429 1.349 . S
C2430 C2442 1.349 . S
C2431 C2429 1.327 . S
C2431 C2447 1.429 . S
C2431 H2453 0.950 . S
C2432 H2428 0.949 . S
C2432 C2440 1.574 . S
C2432 C2448 1.368 . S
H2433 C2441 0.950 . S
H2434 C2439 0.950 . S
H2435 C2440 0.949 . S
H2436 C2442 0.950 . S
H2437 C2443 0.950 . S
H2438 C2444 0.949 . S
C2439 H2434 0.950 . S
C2439 C2441 1.327 . S
C2439 C2445 1.429 . S
C2440 C2432 1.574 . S
C2440 H2435 0.949 . S
C2440 C2446 1.368 . S
C2441 C2425 1.349 . S
C2441 H2433 0.950 . S
C2441 C2439 1.327 . S
C2442 C2430 1.349 . S
C2442 H2436 0.950 . S
C2442 C2443 1.327 . S
C2443 H2437 0.950 . S
C2443 C2442 1.327 . S
C2443 C2447 1.429 . S
C2444 C2427 1.574 . S
C2444 H2438 0.949 . S
C2444 C2448 1.368 . S
C2445 C2426 1.429 . S
C2445 C2439 1.429 . S
C2445 C2446 1.523 . S
C2446 C2427 1.368 . S
C2446 C2440 1.368 . S
C2446 C2445 1.523 . S
C2447 C2431 1.429 . S
C2447 C2443 1.429 . S
C2447 C2448 1.523 . S
C2448 C2432 1.368 . S
C2448 C2444 1.368 . S
C2448 C2447 1.523 . S
H2449 C2424 0.950 . S
H2450 C2426 0.950 . S
H2451 C2427 0.949 . S
H2452 C2429 0.950 . S
H2453 C2431 0.950 . S
C2454 C2455 1.349 . S
C2454 C2456 1.327 . S
C2454 H2479 0.950 . S
C2455 C2454 1.349 . S
C2455 C2471 1.349 . S
C2456 C2454 1.327 . S
C2456 C2475 1.429 . S
C2456 H2480 0.950 . S
C2457 C2474 1.574 . S
C2457 C2476 1.368 . S
C2457 H2481 0.949 . S
H2458 C2462 0.949 . S
C2459 C2460 1.349 . S
C2459 C2461 1.327 . S
C2459 H2482 0.950 . S
C2460 C2459 1.349 . S
C2460 C2472 1.349 . S
C2461 C2459 1.327 . S
C2461 C2477 1.429 . S
C2461 H2483 0.950 . S
C2462 H2458 0.949 . S
C2462 C2470 1.574 . S
C2462 C2478 1.368 . S
H2463 C2471 0.950 . S
H2464 C2469 0.950 . S
H2465 C2470 0.949 . S
H2466 C2472 0.950 . S
H2467 C2473 0.950 . S
H2468 C2474 0.949 . S
C2469 H2464 0.950 . S
C2469 C2471 1.327 . S
C2469 C2475 1.429 . S
C2470 C2462 1.574 . S
C2470 H2465 0.949 . S
C2470 C2476 1.368 . S
C2471 C2455 1.349 . S
C2471 H2463 0.950 . S
C2471 C2469 1.327 . S
C2472 C2460 1.349 . S
C2472 H2466 0.950 . S
C2472 C2473 1.327 . S
C2473 H2467 0.950 . S
C2473 C2472 1.327 . S
C2473 C2477 1.429 . S
C2474 C2457 1.574 . S
C2474 H2468 0.949 . S
C2474 C2478 1.368 . S
C2475 C2456 1.429 . S
C2475 C2469 1.429 . S
C2475 C2476 1.523 . S
C2476 C2457 1.368 . S
C2476 C2470 1.368 . S
C2476 C2475 1.523 . S
C2477 C2461 1.429 . S
C2477 C2473 1.429 . S
C2477 C2478 1.523 . S
C2478 C2462 1.368 . S
C2478 C2474 1.368 . S
C2478 C2477 1.523 . S
H2479 C2454 0.950 . S
H2480 C2456 0.950 . S
H2481 C2457 0.949 . S
H2482 C2459 0.950 . S
H2483 C2461 0.950 . S
C2484 C2485 1.349 . S
C2484 C2486 1.327 . S
C2484 H2509 0.950 . S
C2485 C2484 1.349 . S
C2485 C2501 1.349 . S
C2486 C2484 1.327 . S
C2486 C2505 1.429 . S
C2486 H2510 0.950 . S
C2487 C2504 1.574 . S
C2487 C2506 1.368 . S
C2487 H2511 0.949 . S
H2488 C2492 0.949 . S
C2489 C2490 1.349 . S
C2489 C2491 1.327 . S
C2489 H2512 0.950 . S
C2490 C2489 1.349 . S
C2490 C2502 1.349 . S
C2491 C2489 1.327 . S
C2491 C2507 1.429 . S
C2491 H2513 0.950 . S
C2492 H2488 0.949 . S
C2492 C2500 1.574 . S
C2492 C2508 1.368 . S
H2493 C2501 0.950 . S
H2494 C2499 0.950 . S
H2495 C2500 0.949 . S
H2496 C2502 0.950 . S
H2497 C2503 0.950 . S
H2498 C2504 0.949 . S
C2499 H2494 0.950 . S
C2499 C2501 1.327 . S
C2499 C2505 1.429 . S
C2500 C2492 1.574 . S
C2500 H2495 0.949 . S
C2500 C2506 1.368 . S
C2501 C2485 1.349 . S
C2501 H2493 0.950 . S
C2501 C2499 1.327 . S
C2502 C2490 1.349 . S
C2502 H2496 0.950 . S
C2502 C2503 1.327 . S
C2503 H2497 0.950 . S
C2503 C2502 1.327 . S
C2503 C2507 1.429 . S
C2504 C2487 1.574 . S
C2504 H2498 0.949 . S
C2504 C2508 1.368 . S
C2505 C2486 1.429 . S
C2505 C2499 1.429 . S
C2505 C2506 1.523 . S
C2506 C2487 1.368 . S
C2506 C2500 1.368 . S
C2506 C2505 1.523 . S
C2507 C2491 1.429 . S
C2507 C2503 1.429 . S
C2507 C2508 1.523 . S
C2508 C2492 1.368 . S
C2508 C2504 1.368 . S
C2508 C2507 1.523 . S
H2509 C2484 0.950 . S
H2510 C2486 0.950 . S
H2511 C2487 0.949 . S
H2512 C2489 0.950 . S
H2513 C2491 0.950 . S
C2514 C2515 1.349 . S
C2514 C2516 1.327 . S
C2514 H2539 0.950 . S
C2515 C2514 1.349 . S
C2515 C2531 1.349 . S
C2516 C2514 1.327 . S
C2516 C2535 1.429 . S
C2516 H2540 0.950 . S
C2517 C2534 1.574 . S
C2517 C2536 1.368 . S
C2517 H2541 0.949 . S
H2518 C2522 0.949 . S
C2519 C2520 1.349 . S
C2519 C2521 1.327 . S
C2519 H2542 0.950 . S
C2520 C2519 1.349 . S
C2520 C2532 1.349 . S
C2521 C2519 1.327 . S
C2521 C2537 1.429 . S
C2521 H2543 0.950 . S
C2522 H2518 0.949 . S
C2522 C2530 1.574 . S
C2522 C2538 1.368 . S
H2523 C2531 0.950 . S
H2524 C2529 0.950 . S
H2525 C2530 0.949 . S
H2526 C2532 0.950 . S
H2527 C2533 0.950 . S
H2528 C2534 0.949 . S
C2529 H2524 0.950 . S
C2529 C2531 1.327 . S
C2529 C2535 1.429 . S
C2530 C2522 1.574 . S
C2530 H2525 0.949 . S
C2530 C2536 1.368 . S
C2531 C2515 1.349 . S
C2531 H2523 0.950 . S
C2531 C2529 1.327 . S
C2532 C2520 1.349 . S
C2532 H2526 0.950 . S
C2532 C2533 1.327 . S
C2533 H2527 0.950 . S
C2533 C2532 1.327 . S
C2533 C2537 1.429 . S
C2534 C2517 1.574 . S
C2534 H2528 0.949 . S
C2534 C2538 1.368 . S
C2535 C2516 1.429 . S
C2535 C2529 1.429 . S
C2535 C2536 1.523 . S
C2536 C2517 1.368 . S
C2536 C2530 1.368 . S
C2536 C2535 1.523 . S
C2537 C2521 1.429 . S
C2537 C2533 1.429 . S
C2537 C2538 1.523 . S
C2538 C2522 1.368 . S
C2538 C2534 1.368 . S
C2538 C2537 1.523 . S
H2539 C2514 0.950 . S
H2540 C2516 0.950 . S
H2541 C2517 0.949 . S
H2542 C2519 0.950 . S
H2543 C2521 0.950 . S
C2544 C2545 1.349 . S
C2544 C2546 1.327 . S
C2544 H2569 0.950 . S
C2545 C2544 1.349 . S
C2545 C2561 1.349 . S
C2546 C2544 1.327 . S
C2546 C2565 1.429 . S
C2546 H2570 0.950 . S
C2547 C2564 1.574 . S
C2547 C2566 1.368 . S
C2547 H2571 0.949 . S
H2548 C2552 0.949 . S
C2549 C2550 1.349 . S
C2549 C2551 1.327 . S
C2549 H2572 0.950 . S
C2550 C2549 1.349 . S
C2550 C2562 1.349 . S
C2551 C2549 1.327 . S
C2551 C2567 1.429 . S
C2551 H2573 0.950 . S
C2552 H2548 0.949 . S
C2552 C2560 1.574 . S
C2552 C2568 1.368 . S
H2553 C2561 0.950 . S
H2554 C2559 0.950 . S
H2555 C2560 0.949 . S
H2556 C2562 0.950 . S
H2557 C2563 0.950 . S
H2558 C2564 0.949 . S
C2559 H2554 0.950 . S
C2559 C2561 1.327 . S
C2559 C2565 1.429 . S
C2560 C2552 1.574 . S
C2560 H2555 0.949 . S
C2560 C2566 1.368 . S
C2561 C2545 1.349 . S
C2561 H2553 0.950 . S
C2561 C2559 1.327 . S
C2562 C2550 1.349 . S
C2562 H2556 0.950 . S
C2562 C2563 1.327 . S
C2563 H2557 0.950 . S
C2563 C2562 1.327 . S
C2563 C2567 1.429 . S
C2564 C2547 1.574 . S
C2564 H2558 0.949 . S
C2564 C2568 1.368 . S
C2565 C2546 1.429 . S
C2565 C2559 1.429 . S
C2565 C2566 1.523 . S
C2566 C2547 1.368 . S
C2566 C2560 1.368 . S
C2566 C2565 1.523 . S
C2567 C2551 1.429 . S
C2567 C2563 1.429 . S
C2567 C2568 1.523 . S
C2568 C2552 1.368 . S
C2568 C2564 1.368 . S
C2568 C2567 1.523 . S
H2569 C2544 0.950 . S
H2570 C2546 0.950 . S
H2571 C2547 0.949 . S
H2572 C2549 0.950 . S
H2573 C2551 0.950 . S
C2574 C2575 1.349 . S
C2574 C2576 1.327 . S
C2574 H2599 0.950 . S
C2575 C2574 1.349 . S
C2575 C2591 1.349 . S
C2576 C2574 1.327 . S
C2576 C2595 1.429 . S
C2576 H2600 0.950 . S
C2577 C2594 1.574 . S
C2577 C2596 1.368 . S
C2577 H2601 0.949 . S
H2578 C2582 0.949 . S
C2579 C2580 1.349 . S
C2579 C2581 1.327 . S
C2579 H2602 0.950 . S
C2580 C2579 1.349 . S
C2580 C2592 1.349 . S
C2581 C2579 1.327 . S
C2581 C2597 1.429 . S
C2581 H2603 0.950 . S
C2582 H2578 0.949 . S
C2582 C2590 1.574 . S
C2582 C2598 1.368 . S
H2583 C2591 0.950 . S
H2584 C2589 0.950 . S
H2585 C2590 0.949 . S
H2586 C2592 0.950 . S
H2587 C2593 0.950 . S
H2588 C2594 0.949 . S
C2589 H2584 0.950 . S
C2589 C2591 1.327 . S
C2589 C2595 1.429 . S
C2590 C2582 1.574 . S
C2590 H2585 0.949 . S
C2590 C2596 1.368 . S
C2591 C2575 1.349 . S
C2591 H2583 0.950 . S
C2591 C2589 1.327 . S
C2592 C2580 1.349 . S
C2592 H2586 0.950 . S
C2592 C2593 1.327 . S
C2593 H2587 0.950 . S
C2593 C2592 1.327 . S
C2593 C2597 1.429 . S
C2594 C2577 1.574 . S
C2594 H2588 0.949 . S
C2594 C2598 1.368 . S
C2595 C2576 1.429 . S
C2595 C2589 1.429 . S
C2595 C2596 1.523 . S
C2596 C2577 1.368 . S
C2596 C2590 1.368 . S
C2596 C2595 1.523 . S
C2597 C2581 1.429 . S
C2597 C2593 1.429 . S
C2597 C2598 1.523 . S
C2598 C2582 1.368 . S
C2598 C2594 1.368 . S
C2598 C2597 1.523 . S
H2599 C2574 0.950 . S
H2600 C2576 0.950 . S
H2601 C2577 0.949 . S
H2602 C2579 0.950 . S
H2603 C2581 0.950 . S
C2604 C2605 1.349 . S
C2604 C2606 1.327 . S
C2604 H2629 0.950 . S
C2605 C2604 1.349 . S
C2605 C2621 1.349 . S
C2606 C2604 1.327 . S
C2606 C2625 1.429 . S
C2606 H2630 0.950 . S
C2607 C2624 1.574 . S
C2607 C2626 1.368 . S
C2607 H2631 0.949 . S
H2608 C2612 0.949 . S
C2609 C2610 1.349 . S
C2609 C2611 1.327 . S
C2609 H2632 0.950 . S
C2610 C2609 1.349 . S
C2610 C2622 1.349 . S
C2611 C2609 1.327 . S
C2611 C2627 1.429 . S
C2611 H2633 0.950 . S
C2612 H2608 0.949 . S
C2612 C2620 1.574 . S
C2612 C2628 1.368 . S
H2613 C2621 0.950 . S
H2614 C2619 0.950 . S
H2615 C2620 0.949 . S
H2616 C2622 0.950 . S
H2617 C2623 0.950 . S
H2618 C2624 0.949 . S
C2619 H2614 0.950 . S
C2619 C2621 1.327 . S
C2619 C2625 1.429 . S
C2620 C2612 1.574 . S
C2620 H2615 0.949 . S
C2620 C2626 1.368 . S
C2621 C2605 1.349 . S
C2621 H2613 0.950 . S
C2621 C2619 1.327 . S
C2622 C2610 1.349 . S
C2622 H2616 0.950 . S
C2622 C2623 1.327 . S
C2623 H2617 0.950 . S
C2623 C2622 1.327 . S
C2623 C2627 1.429 . S
C2624 C2607 1.574 . S
C2624 H2618 0.949 . S
C2624 C2628 1.368 . S
C2625 C2606 1.429 . S
C2625 C2619 1.429 . S
C2625 C2626 1.523 . S
C2626 C2607 1.368 . S
C2626 C2620 1.368 . S
C2626 C2625 1.523 . S
C2627 C2611 1.429 . S
C2627 C2623 1.429 . S
C2627 C2628 1.523 . S
C2628 C2612 1.368 . S
C2628 C2624 1.368 . S
C2628 C2627 1.523 . S
H2629 C2604 0.950 . S
H2630 C2606 0.950 . S
H2631 C2607 0.949 . S
H2632 C2609 0.950 . S
H2633 C2611 0.950 . S
C2634 C2635 1.349 . S
C2634 C2636 1.327 . S
C2634 H2659 0.950 . S
C2635 C2634 1.349 . S
C2635 C2651 1.349 . S
C2636 C2634 1.327 . S
C2636 C2655 1.429 . S
C2636 H2660 0.950 . S
C2637 C2654 1.574 . S
C2637 C2656 1.368 . S
C2637 H2661 0.949 . S
H2638 C2642 0.949 . S
C2639 C2640 1.349 . S
C2639 C2641 1.327 . S
C2639 H2662 0.950 . S
C2640 C2639 1.349 . S
C2640 C2652 1.349 . S
C2641 C2639 1.327 . S
C2641 C2657 1.429 . S
C2641 H2663 0.950 . S
C2642 H2638 0.949 . S
C2642 C2650 1.574 . S
C2642 C2658 1.368 . S
H2643 C2651 0.950 . S
H2644 C2649 0.950 . S
H2645 C2650 0.949 . S
H2646 C2652 0.950 . S
H2647 C2653 0.950 . S
H2648 C2654 0.949 . S
C2649 H2644 0.950 . S
C2649 C2651 1.327 . S
C2649 C2655 1.429 . S
C2650 C2642 1.574 . S
C2650 H2645 0.949 . S
C2650 C2656 1.368 . S
C2651 C2635 1.349 . S
C2651 H2643 0.950 . S
C2651 C2649 1.327 . S
C2652 C2640 1.349 . S
C2652 H2646 0.950 . S
C2652 C2653 1.327 . S
C2653 H2647 0.950 . S
C2653 C2652 1.327 . S
C2653 C2657 1.429 . S
C2654 C2637 1.574 . S
C2654 H2648 0.949 . S
C2654 C2658 1.368 . S
C2655 C2636 1.429 . S
C2655 C2649 1.429 . S
C2655 C2656 1.523 . S
C2656 C2637 1.368 . S
C2656 C2650 1.368 . S
C2656 C2655 1.523 . S
C2657 C2641 1.429 . S
C2657 C2653 1.429 . S
C2657 C2658 1.523 . S
C2658 C2642 1.368 . S
C2658 C2654 1.368 . S
C2658 C2657 1.523 . S
H2659 C2634 0.950 . S
H2660 C2636 0.950 . S
H2661 C2637 0.949 . S
H2662 C2639 0.950 . S
H2663 C2641 0.950 . S
C2664 C2665 1.349 . S
C2664 C2666 1.327 . S
C2664 H2689 0.950 . S
C2665 C2664 1.349 . S
C2665 C2681 1.349 . S
C2666 C2664 1.327 . S
C2666 C2685 1.429 . S
C2666 H2690 0.950 . S
C2667 C2684 1.574 . S
C2667 C2686 1.368 . S
C2667 H2691 0.949 . S
H2668 C2672 0.949 . S
C2669 C2670 1.349 . S
C2669 C2671 1.327 . S
C2669 H2692 0.950 . S
C2670 C2669 1.349 . S
C2670 C2682 1.349 . S
C2671 C2669 1.327 . S
C2671 C2687 1.429 . S
C2671 H2693 0.950 . S
C2672 H2668 0.949 . S
C2672 C2680 1.574 . S
C2672 C2688 1.368 . S
H2673 C2681 0.950 . S
H2674 C2679 0.950 . S
H2675 C2680 0.949 . S
H2676 C2682 0.950 . S
H2677 C2683 0.950 . S
H2678 C2684 0.949 . S
C2679 H2674 0.950 . S
C2679 C2681 1.327 . S
C2679 C2685 1.429 . S
C2680 C2672 1.574 . S
C2680 H2675 0.949 . S
C2680 C2686 1.368 . S
C2681 C2665 1.349 . S
C2681 H2673 0.950 . S
C2681 C2679 1.327 . S
C2682 C2670 1.349 . S
C2682 H2676 0.950 . S
C2682 C2683 1.327 . S
C2683 H2677 0.950 . S
C2683 C2682 1.327 . S
C2683 C2687 1.429 . S
C2684 C2667 1.574 . S
C2684 H2678 0.949 . S
C2684 C2688 1.368 . S
C2685 C2666 1.429 . S
C2685 C2679 1.429 . S
C2685 C2686 1.523 . S
C2686 C2667 1.368 . S
C2686 C2680 1.368 . S
C2686 C2685 1.523 . S
C2687 C2671 1.429 . S
C2687 C2683 1.429 . S
C2687 C2688 1.523 . S
C2688 C2672 1.368 . S
C2688 C2684 1.368 . S
C2688 C2687 1.523 . S
H2689 C2664 0.950 . S
H2690 C2666 0.950 . S
H2691 C2667 0.949 . S
H2692 C2669 0.950 . S
H2693 C2671 0.950 . S
C2694 C2695 1.349 . S
C2694 C2696 1.327 . S
C2694 H2719 0.950 . S
C2695 C2694 1.349 . S
C2695 C2711 1.349 . S
C2696 C2694 1.327 . S
C2696 C2715 1.429 . S
C2696 H2720 0.950 . S
C2697 C2714 1.574 . S
C2697 C2716 1.368 . S
C2697 H2721 0.949 . S
H2698 C2702 0.949 . S
C2699 C2700 1.349 . S
C2699 C2701 1.327 . S
C2699 H2722 0.950 . S
C2700 C2699 1.349 . S
C2700 C2712 1.349 . S
C2701 C2699 1.327 . S
C2701 C2717 1.429 . S
C2701 H2723 0.950 . S
C2702 H2698 0.949 . S
C2702 C2710 1.574 . S
C2702 C2718 1.368 . S
H2703 C2711 0.950 . S
H2704 C2709 0.950 . S
H2705 C2710 0.949 . S
H2706 C2712 0.950 . S
H2707 C2713 0.950 . S
H2708 C2714 0.949 . S
C2709 H2704 0.950 . S
C2709 C2711 1.327 . S
C2709 C2715 1.429 . S
C2710 C2702 1.574 . S
C2710 H2705 0.949 . S
C2710 C2716 1.368 . S
C2711 C2695 1.349 . S
C2711 H2703 0.950 . S
C2711 C2709 1.327 . S
C2712 C2700 1.349 . S
C2712 H2706 0.950 . S
C2712 C2713 1.327 . S
C2713 H2707 0.950 . S
C2713 C2712 1.327 . S
C2713 C2717 1.429 . S
C2714 C2697 1.574 . S
C2714 H2708 0.949 . S
C2714 C2718 1.368 . S
C2715 C2696 1.429 . S
C2715 C2709 1.429 . S
C2715 C2716 1.523 . S
C2716 C2697 1.368 . S
C2716 C2710 1.368 . S
C2716 C2715 1.523 . S
C2717 C2701 1.429 . S
C2717 C2713 1.429 . S
C2717 C2718 1.523 . S
C2718 C2702 1.368 . S
C2718 C2714 1.368 . S
C2718 C2717 1.523 . S
H2719 C2694 0.950 . S
H2720 C2696 0.950 . S
H2721 C2697 0.949 . S
H2722 C2699 0.950 . S
H2723 C2701 0.950 . S
C2724 C2725 1.349 . S
C2724 C2726 1.327 . S
C2724 H2749 0.950 . S
C2725 C2724 1.349 . S
C2725 C2741 1.349 . S
C2726 C2724 1.327 . S
C2726 C2745 1.429 . S
C2726 H2750 0.950 . S
C2727 C2744 1.574 . S
C2727 C2746 1.368 . S
C2727 H2751 0.949 . S
H2728 C2732 0.949 . S
C2729 C2730 1.349 . S
C2729 C2731 1.327 . S
C2729 H2752 0.950 . S
C2730 C2729 1.349 . S
C2730 C2742 1.349 . S
C2731 C2729 1.327 . S
C2731 C2747 1.429 . S
C2731 H2753 0.950 . S
C2732 H2728 0.949 . S
C2732 C2740 1.574 . S
C2732 C2748 1.368 . S
H2733 C2741 0.950 . S
H2734 C2739 0.950 . S
H2735 C2740 0.949 . S
H2736 C2742 0.950 . S
H2737 C2743 0.950 . S
H2738 C2744 0.949 . S
C2739 H2734 0.950 . S
C2739 C2741 1.327 . S
C2739 C2745 1.429 . S
C2740 C2732 1.574 . S
C2740 H2735 0.949 . S
C2740 C2746 1.368 . S
C2741 C2725 1.349 . S
C2741 H2733 0.950 . S
C2741 C2739 1.327 . S
C2742 C2730 1.349 . S
C2742 H2736 0.950 . S
C2742 C2743 1.327 . S
C2743 H2737 0.950 . S
C2743 C2742 1.327 . S
C2743 C2747 1.429 . S
C2744 C2727 1.574 . S
C2744 H2738 0.949 . S
C2744 C2748 1.368 . S
C2745 C2726 1.429 . S
C2745 C2739 1.429 . S
C2745 C2746 1.523 . S
C2746 C2727 1.368 . S
C2746 C2740 1.368 . S
C2746 C2745 1.523 . S
C2747 C2731 1.429 . S
C2747 C2743 1.429 . S
C2747 C2748 1.523 . S
C2748 C2732 1.368 . S
C2748 C2744 1.368 . S
C2748 C2747 1.523 . S
H2749 C2724 0.950 . S
H2750 C2726 0.950 . S
H2751 C2727 0.949 . S
H2752 C2729 0.950 . S
H2753 C2731 0.950 . S
C2754 C2755 1.349 . S
C2754 C2756 1.327 . S
C2754 H2779 0.950 . S
C2755 C2754 1.349 . S
C2755 C2771 1.349 . S
C2756 C2754 1.327 . S
C2756 C2775 1.429 . S
C2756 H2780 0.950 . S
C2757 C2774 1.574 . S
C2757 C2776 1.368 . S
C2757 H2781 0.949 . S
H2758 C2762 0.949 . S
C2759 C2760 1.349 . S
C2759 C2761 1.327 . S
C2759 H2782 0.950 . S
C2760 C2759 1.349 . S
C2760 C2772 1.349 . S
C2761 C2759 1.327 . S
C2761 C2777 1.429 . S
C2761 H2783 0.950 . S
C2762 H2758 0.949 . S
C2762 C2770 1.574 . S
C2762 C2778 1.368 . S
H2763 C2771 0.950 . S
H2764 C2769 0.950 . S
H2765 C2770 0.949 . S
H2766 C2772 0.950 . S
H2767 C2773 0.950 . S
H2768 C2774 0.949 . S
C2769 H2764 0.950 . S
C2769 C2771 1.327 . S
C2769 C2775 1.429 . S
C2770 C2762 1.574 . S
C2770 H2765 0.949 . S
C2770 C2776 1.368 . S
C2771 C2755 1.349 . S
C2771 H2763 0.950 . S
C2771 C2769 1.327 . S
C2772 C2760 1.349 . S
C2772 H2766 0.950 . S
C2772 C2773 1.327 . S
C2773 H2767 0.950 . S
C2773 C2772 1.327 . S
C2773 C2777 1.429 . S
C2774 C2757 1.574 . S
C2774 H2768 0.949 . S
C2774 C2778 1.368 . S
C2775 C2756 1.429 . S
C2775 C2769 1.429 . S
C2775 C2776 1.523 . S
C2776 C2757 1.368 . S
C2776 C2770 1.368 . S
C2776 C2775 1.523 . S
C2777 C2761 1.429 . S
C2777 C2773 1.429 . S
C2777 C2778 1.523 . S
C2778 C2762 1.368 . S
C2778 C2774 1.368 . S
C2778 C2777 1.523 . S
H2779 C2754 0.950 . S
H2780 C2756 0.950 . S
H2781 C2757 0.949 . S
H2782 C2759 0.950 . S
H2783 C2761 0.950 . S
C2784 C2785 1.349 . S
C2784 C2786 1.327 . S
C2784 H2809 0.950 . S
C2785 C2784 1.349 . S
C2785 C2801 1.349 . S
C2786 C2784 1.327 . S
C2786 C2805 1.429 . S
C2786 H2810 0.950 . S
C2787 C2804 1.574 . S
C2787 C2806 1.368 . S
C2787 H2811 0.949 . S
H2788 C2792 0.949 . S
C2789 C2790 1.349 . S
C2789 C2791 1.327 . S
C2789 H2812 0.950 . S
C2790 C2789 1.349 . S
C2790 C2802 1.349 . S
C2791 C2789 1.327 . S
C2791 C2807 1.429 . S
C2791 H2813 0.950 . S
C2792 H2788 0.949 . S
C2792 C2800 1.574 . S
C2792 C2808 1.368 . S
H2793 C2801 0.950 . S
H2794 C2799 0.950 . S
H2795 C2800 0.949 . S
H2796 C2802 0.950 . S
H2797 C2803 0.950 . S
H2798 C2804 0.949 . S
C2799 H2794 0.950 . S
C2799 C2801 1.327 . S
C2799 C2805 1.429 . S
C2800 C2792 1.574 . S
C2800 H2795 0.949 . S
C2800 C2806 1.368 . S
C2801 C2785 1.349 . S
C2801 H2793 0.950 . S
C2801 C2799 1.327 . S
C2802 C2790 1.349 . S
C2802 H2796 0.950 . S
C2802 C2803 1.327 . S
C2803 H2797 0.950 . S
C2803 C2802 1.327 . S
C2803 C2807 1.429 . S
C2804 C2787 1.574 . S
C2804 H2798 0.949 . S
C2804 C2808 1.368 . S
C2805 C2786 1.429 . S
C2805 C2799 1.429 . S
C2805 C2806 1.523 . S
C2806 C2787 1.368 . S
C2806 C2800 1.368 . S
C2806 C2805 1.523 . S
C2807 C2791 1.429 . S
C2807 C2803 1.429 . S
C2807 C2808 1.523 . S
C2808 C2792 1.368 . S
C2808 C2804 1.368 . S
C2808 C2807 1.523 . S
H2809 C2784 0.950 . S
H2810 C2786 0.950 . S
H2811 C2787 0.949 . S
H2812 C2789 0.950 . S
H2813 C2791 0.950 . S
C2814 C2815 1.349 . S
C2814 C2816 1.327 . S
C2814 H2839 0.950 . S
C2815 C2814 1.349 . S
C2815 C2831 1.349 . S
C2816 C2814 1.327 . S
C2816 C2835 1.429 . S
C2816 H2840 0.950 . S
C2817 C2834 1.574 . S
C2817 C2836 1.368 . S
C2817 H2841 0.949 . S
H2818 C2822 0.949 . S
C2819 C2820 1.349 . S
C2819 C2821 1.327 . S
C2819 H2842 0.950 . S
C2820 C2819 1.349 . S
C2820 C2832 1.349 . S
C2821 C2819 1.327 . S
C2821 C2837 1.429 . S
C2821 H2843 0.950 . S
C2822 H2818 0.949 . S
C2822 C2830 1.574 . S
C2822 C2838 1.368 . S
H2823 C2831 0.950 . S
H2824 C2829 0.950 . S
H2825 C2830 0.949 . S
H2826 C2832 0.950 . S
H2827 C2833 0.950 . S
H2828 C2834 0.949 . S
C2829 H2824 0.950 . S
C2829 C2831 1.327 . S
C2829 C2835 1.429 . S
C2830 C2822 1.574 . S
C2830 H2825 0.949 . S
C2830 C2836 1.368 . S
C2831 C2815 1.349 . S
C2831 H2823 0.950 . S
C2831 C2829 1.327 . S
C2832 C2820 1.349 . S
C2832 H2826 0.950 . S
C2832 C2833 1.327 . S
C2833 H2827 0.950 . S
C2833 C2832 1.327 . S
C2833 C2837 1.429 . S
C2834 C2817 1.574 . S
C2834 H2828 0.949 . S
C2834 C2838 1.368 . S
C2835 C2816 1.429 . S
C2835 C2829 1.429 . S
C2835 C2836 1.523 . S
C2836 C2817 1.368 . S
C2836 C2830 1.368 . S
C2836 C2835 1.523 . S
C2837 C2821 1.429 . S
C2837 C2833 1.429 . S
C2837 C2838 1.523 . S
C2838 C2822 1.368 . S
C2838 C2834 1.368 . S
C2838 C2837 1.523 . S
H2839 C2814 0.950 . S
H2840 C2816 0.950 . S
H2841 C2817 0.949 . S
H2842 C2819 0.950 . S
H2843 C2821 0.950 . S
C2844 C2845 1.349 . S
C2844 C2846 1.327 . S
C2844 H2869 0.950 . S
C2845 C2844 1.349 . S
C2845 C2861 1.349 . S
C2846 C2844 1.327 . S
C2846 C2865 1.429 . S
C2846 H2870 0.950 . S
C2847 C2864 1.574 . S
C2847 C2866 1.368 . S
C2847 H2871 0.949 . S
H2848 C2852 0.949 . S
C2849 C2850 1.349 . S
C2849 C2851 1.327 . S
C2849 H2872 0.950 . S
C2850 C2849 1.349 . S
C2850 C2862 1.349 . S
C2851 C2849 1.327 . S
C2851 C2867 1.429 . S
C2851 H2873 0.950 . S
C2852 H2848 0.949 . S
C2852 C2860 1.574 . S
C2852 C2868 1.368 . S
H2853 C2861 0.950 . S
H2854 C2859 0.950 . S
H2855 C2860 0.949 . S
H2856 C2862 0.950 . S
H2857 C2863 0.950 . S
H2858 C2864 0.949 . S
C2859 H2854 0.950 . S
C2859 C2861 1.327 . S
C2859 C2865 1.429 . S
C2860 C2852 1.574 . S
C2860 H2855 0.949 . S
C2860 C2866 1.368 . S
C2861 C2845 1.349 . S
C2861 H2853 0.950 . S
C2861 C2859 1.327 . S
C2862 C2850 1.349 . S
C2862 H2856 0.950 . S
C2862 C2863 1.327 . S
C2863 H2857 0.950 . S
C2863 C2862 1.327 . S
C2863 C2867 1.429 . S
C2864 C2847 1.574 . S
C2864 H2858 0.949 . S
C2864 C2868 1.368 . S
C2865 C2846 1.429 . S
C2865 C2859 1.429 . S
C2865 C2866 1.523 . S
C2866 C2847 1.368 . S
C2866 C2860 1.368 . S
C2866 C2865 1.523 . S
C2867 C2851 1.429 . S
C2867 C2863 1.429 . S
C2867 C2868 1.523 . S
C2868 C2852 1.368 . S
C2868 C2864 1.368 . S
C2868 C2867 1.523 . S
H2869 C2844 0.950 . S
H2870 C2846 0.950 . S
H2871 C2847 0.949 . S
H2872 C2849 0.950 . S
H2873 C2851 0.950 . S
C2874 C2875 1.349 . S
C2874 C2876 1.327 . S
C2874 H2899 0.950 . S
C2875 C2874 1.349 . S
C2875 C2891 1.349 . S
C2876 C2874 1.327 . S
C2876 C2895 1.429 . S
C2876 H2900 0.950 . S
C2877 C2894 1.574 . S
C2877 C2896 1.368 . S
C2877 H2901 0.949 . S
H2878 C2882 0.949 . S
C2879 C2880 1.349 . S
C2879 C2881 1.327 . S
C2879 H2902 0.950 . S
C2880 C2879 1.349 . S
C2880 C2892 1.349 . S
C2881 C2879 1.327 . S
C2881 C2897 1.429 . S
C2881 H2903 0.950 . S
C2882 H2878 0.949 . S
C2882 C2890 1.574 . S
C2882 C2898 1.368 . S
H2883 C2891 0.950 . S
H2884 C2889 0.950 . S
H2885 C2890 0.949 . S
H2886 C2892 0.950 . S
H2887 C2893 0.950 . S
H2888 C2894 0.949 . S
C2889 H2884 0.950 . S
C2889 C2891 1.327 . S
C2889 C2895 1.429 . S
C2890 C2882 1.574 . S
C2890 H2885 0.949 . S
C2890 C2896 1.368 . S
C2891 C2875 1.349 . S
C2891 H2883 0.950 . S
C2891 C2889 1.327 . S
C2892 C2880 1.349 . S
C2892 H2886 0.950 . S
C2892 C2893 1.327 . S
C2893 H2887 0.950 . S
C2893 C2892 1.327 . S
C2893 C2897 1.429 . S
C2894 C2877 1.574 . S
C2894 H2888 0.949 . S
C2894 C2898 1.368 . S
C2895 C2876 1.429 . S
C2895 C2889 1.429 . S
C2895 C2896 1.523 . S
C2896 C2877 1.368 . S
C2896 C2890 1.368 . S
C2896 C2895 1.523 . S
C2897 C2881 1.429 . S
C2897 C2893 1.429 . S
C2897 C2898 1.523 . S
C2898 C2882 1.368 . S
C2898 C2894 1.368 . S
C2898 C2897 1.523 . S
H2899 C2874 0.950 . S
H2900 C2876 0.950 . S
H2901 C2877 0.949 . S
H2902 C2879 0.950 . S
H2903 C2881 0.950 . S
C2904 C2905 1.349 . S
C2904 C2906 1.327 . S
C2904 H2929 0.950 . S
C2905 C2904 1.349 . S
C2905 C2921 1.349 . S
C2906 C2904 1.327 . S
C2906 C2925 1.429 . S
C2906 H2930 0.950 . S
C2907 C2924 1.574 . S
C2907 C2926 1.368 . S
C2907 H2931 0.949 . S
H2908 C2912 0.949 . S
C2909 C2910 1.349 . S
C2909 C2911 1.327 . S
C2909 H2932 0.950 . S
C2910 C2909 1.349 . S
C2910 C2922 1.349 . S
C2911 C2909 1.327 . S
C2911 C2927 1.429 . S
C2911 H2933 0.950 . S
C2912 H2908 0.949 . S
C2912 C2920 1.574 . S
C2912 C2928 1.368 . S
H2913 C2921 0.950 . S
H2914 C2919 0.950 . S
H2915 C2920 0.949 . S
H2916 C2922 0.950 . S
H2917 C2923 0.950 . S
H2918 C2924 0.949 . S
C2919 H2914 0.950 . S
C2919 C2921 1.327 . S
C2919 C2925 1.429 . S
C2920 C2912 1.574 . S
C2920 H2915 0.949 . S
C2920 C2926 1.368 . S
C2921 C2905 1.349 . S
C2921 H2913 0.950 . S
C2921 C2919 1.327 . S
C2922 C2910 1.349 . S
C2922 H2916 0.950 . S
C2922 C2923 1.327 . S
C2923 H2917 0.950 . S
C2923 C2922 1.327 . S
C2923 C2927 1.429 . S
C2924 C2907 1.574 . S
C2924 H2918 0.949 . S
C2924 C2928 1.368 . S
C2925 C2906 1.429 . S
C2925 C2919 1.429 . S
C2925 C2926 1.523 . S
C2926 C2907 1.368 . S
C2926 C2920 1.368 . S
C2926 C2925 1.523 . S
C2927 C2911 1.429 . S
C2927 C2923 1.429 . S
C2927 C2928 1.523 . S
C2928 C2912 1.368 . S
C2928 C2924 1.368 . S
C2928 C2927 1.523 . S
H2929 C2904 0.950 . S
H2930 C2906 0.950 . S
H2931 C2907 0.949 . S
H2932 C2909 0.950 . S
H2933 C2911 0.950 . S
C2934 C2935 1.349 . S
C2934 C2936 1.327 . S
C2934 H2959 0.950 . S
C2935 C2934 1.349 . S
C2935 C2951 1.349 . S
C2936 C2934 1.327 . S
C2936 C2955 1.429 . S
C2936 H2960 0.950 . S
C2937 C2954 1.574 . S
C2937 C2956 1.368 . S
C2937 H2961 0.949 . S
H2938 C2942 0.949 . S
C2939 C2940 1.349 . S
C2939 C2941 1.327 . S
C2939 H2962 0.950 . S
C2940 C2939 1.349 . S
C2940 C2952 1.349 . S
C2941 C2939 1.327 . S
C2941 C2957 1.429 . S
C2941 H2963 0.950 . S
C2942 H2938 0.949 . S
C2942 C2950 1.574 . S
C2942 C2958 1.368 . S
H2943 C2951 0.950 . S
H2944 C2949 0.950 . S
H2945 C2950 0.949 . S
H2946 C2952 0.950 . S
H2947 C2953 0.950 . S
H2948 C2954 0.949 . S
C2949 H2944 0.950 . S
C2949 C2951 1.327 . S
C2949 C2955 1.429 . S
C2950 C2942 1.574 . S
C2950 H2945 0.949 . S
C2950 C2956 1.368 . S
C2951 C2935 1.349 . S
C2951 H2943 0.950 . S
C2951 C2949 1.327 . S
C2952 C2940 1.349 . S
C2952 H2946 0.950 . S
C2952 C2953 1.327 . S
C2953 H2947 0.950 . S
C2953 C2952 1.327 . S
C2953 C2957 1.429 . S
C2954 C2937 1.574 . S
C2954 H2948 0.949 . S
C2954 C2958 1.368 . S
C2955 C2936 1.429 . S
C2955 C2949 1.429 . S
C2955 C2956 1.523 . S
C2956 C2937 1.368 . S
C2956 C2950 1.368 . S
C2956 C2955 1.523 . S
C2957 C2941 1.429 . S
C2957 C2953 1.429 . S
C2957 C2958 1.523 . S
C2958 C2942 1.368 . S
C2958 C2954 1.368 . S
C2958 C2957 1.523 . S
H2959 C2934 0.950 . S
H2960 C2936 0.950 . S
H2961 C2937 0.949 . S
H2962 C2939 0.950 . S
H2963 C2941 0.950 . S
C2964 C2965 1.349 . S
C2964 C2966 1.327 . S
C2964 H2989 0.950 . S
C2965 C2964 1.349 . S
C2965 C2981 1.349 . S
C2966 C2964 1.327 . S
C2966 C2985 1.429 . S
C2966 H2990 0.950 . S
C2967 C2984 1.574 . S
C2967 C2986 1.368 . S
C2967 H2991 0.949 . S
H2968 C2972 0.949 . S
C2969 C2970 1.349 . S
C2969 C2971 1.327 . S
C2969 H2992 0.950 . S
C2970 C2969 1.349 . S
C2970 C2982 1.349 . S
C2971 C2969 1.327 . S
C2971 C2987 1.429 . S
C2971 H2993 0.950 . S
C2972 H2968 0.949 . S
C2972 C2980 1.574 . S
C2972 C2988 1.368 . S
H2973 C2981 0.950 . S
H2974 C2979 0.950 . S
H2975 C2980 0.949 . S
H2976 C2982 0.950 . S
H2977 C2983 0.950 . S
H2978 C2984 0.949 . S
C2979 H2974 0.950 . S
C2979 C2981 1.327 . S
C2979 C2985 1.429 . S
C2980 C2972 1.574 . S
C2980 H2975 0.949 . S
C2980 C2986 1.368 . S
C2981 C2965 1.349 . S
C2981 H2973 0.950 . S
C2981 C2979 1.327 . S
C2982 C2970 1.349 . S
C2982 H2976 0.950 . S
C2982 C2983 1.327 . S
C2983 H2977 0.950 . S
C2983 C2982 1.327 . S
C2983 C2987 1.429 . S
C2984 C2967 1.574 . S
C2984 H2978 0.949 . S
C2984 C2988 1.368 . S
C2985 C2966 1.429 . S
C2985 C2979 1.429 . S
C2985 C2986 1.523 . S
C2986 C2967 1.368 . S
C2986 C2980 1.368 . S
C2986 C2985 1.523 . S
C2987 C2971 1.429 . S
C2987 C2983 1.429 . S
C2987 C2988 1.523 . S
C2988 C2972 1.368 . S
C2988 C2984 1.368 . S
C2988 C2987 1.523 . S
H2989 C2964 0.950 . S
H2990 C2966 0.950 . S
H2991 C2967 0.949 . S
H2992 C2969 0.950 . S
H2993 C2971 0.950 . S
C2994 C2995 1.349 . S
C2994 C2996 1.327 . S
C2994 H3019 0.950 . S
C2995 C2994 1.349 . S
C2995 C3011 1.349 . S
C2996 C2994 1.327 . S
C2996 C3015 1.429 . S
C2996 H3020 0.950 . S
C2997 C3014 1.574 . S
C2997 C3016 1.368 . S
C2997 H3021 0.949 . S
H2998 C3002 0.949 . S
C2999 C3000 1.349 . S
C2999 C3001 1.327 . S
C2999 H3022 0.950 . S
C3000 C2999 1.349 . S
C3000 C3012 1.349 . S
C3001 C2999 1.327 . S
C3001 C3017 1.429 . S
C3001 H3023 0.950 . S
C3002 H2998 0.949 . S
C3002 C3010 1.574 . S
C3002 C3018 1.368 . S
H3003 C3011 0.950 . S
H3004 C3009 0.950 . S
H3005 C3010 0.949 . S
H3006 C3012 0.950 . S
H3007 C3013 0.950 . S
H3008 C3014 0.949 . S
C3009 H3004 0.950 . S
C3009 C3011 1.327 . S
C3009 C3015 1.429 . S
C3010 C3002 1.574 . S
C3010 H3005 0.949 . S
C3010 C3016 1.368 . S
C3011 C2995 1.349 . S
C3011 H3003 0.950 . S
C3011 C3009 1.327 . S
C3012 C3000 1.349 . S
C3012 H3006 0.950 . S
C3012 C3013 1.327 . S
C3013 H3007 0.950 . S
C3013 C3012 1.327 . S
C3013 C3017 1.429 . S
C3014 C2997 1.574 . S
C3014 H3008 0.949 . S
C3014 C3018 1.368 . S
C3015 C2996 1.429 . S
C3015 C3009 1.429 . S
C3015 C3016 1.523 . S
C3016 C2997 1.368 . S
C3016 C3010 1.368 . S
C3016 C3015 1.523 . S
C3017 C3001 1.429 . S
C3017 C3013 1.429 . S
C3017 C3018 1.523 . S
C3018 C3002 1.368 . S
C3018 C3014 1.368 . S
C3018 C3017 1.523 . S
H3019 C2994 0.950 . S
H3020 C2996 0.950 . S
H3021 C2997 0.949 . S
H3022 C2999 0.950 . S
H3023 C3001 0.950 . S
C3024 C3025 1.349 . S
C3024 C3026 1.327 . S
C3024 H3049 0.950 . S
C3025 C3024 1.349 . S
C3025 C3041 1.349 . S
C3026 C3024 1.327 . S
C3026 C3045 1.429 . S
C3026 H3050 0.950 . S
C3027 C3044 1.574 . S
C3027 C3046 1.368 . S
C3027 H3051 0.949 . S
H3028 C3032 0.949 . S
C3029 C3030 1.349 . S
C3029 C3031 1.327 . S
C3029 H3052 0.950 . S
C3030 C3029 1.349 . S
C3030 C3042 1.349 . S
C3031 C3029 1.327 . S
C3031 C3047 1.429 . S
C3031 H3053 0.950 . S
C3032 H3028 0.949 . S
C3032 C3040 1.574 . S
C3032 C3048 1.368 . S
H3033 C3041 0.950 . S
H3034 C3039 0.950 . S
H3035 C3040 0.949 . S
H3036 C3042 0.950 . S
H3037 C3043 0.950 . S
H3038 C3044 0.949 . S
C3039 H3034 0.950 . S
C3039 C3041 1.327 . S
C3039 C3045 1.429 . S
C3040 C3032 1.574 . S
C3040 H3035 0.949 . S
C3040 C3046 1.368 . S
C3041 C3025 1.349 . S
C3041 H3033 0.950 . S
C3041 C3039 1.327 . S
C3042 C3030 1.349 . S
C3042 H3036 0.950 . S
C3042 C3043 1.327 . S
C3043 H3037 0.950 . S
C3043 C3042 1.327 . S
C3043 C3047 1.429 . S
C3044 C3027 1.574 . S
C3044 H3038 0.949 . S
C3044 C3048 1.368 . S
C3045 C3026 1.429 . S
C3045 C3039 1.429 . S
C3045 C3046 1.523 . S
C3046 C3027 1.368 . S
C3046 C3040 1.368 . S
C3046 C3045 1.523 . S
C3047 C3031 1.429 . S
C3047 C3043 1.429 . S
C3047 C3048 1.523 . S
C3048 C3032 1.368 . S
C3048 C3044 1.368 . S
C3048 C3047 1.523 . S
H3049 C3024 0.950 . S
H3050 C3026 0.950 . S
H3051 C3027 0.949 . S
H3052 C3029 0.950 . S
H3053 C3031 0.950 . S
C3054 C3055 1.349 . S
C3054 C3056 1.327 . S
C3054 H3079 0.950 . S
C3055 C3054 1.349 . S
C3055 C3071 1.349 . S
C3056 C3054 1.327 . S
C3056 C3075 1.429 . S
C3056 H3080 0.950 . S
C3057 C3074 1.574 . S
C3057 C3076 1.368 . S
C3057 H3081 0.949 . S
H3058 C3062 0.949 . S
C3059 C3060 1.349 . S
C3059 C3061 1.327 . S
C3059 H3082 0.950 . S
C3060 C3059 1.349 . S
C3060 C3072 1.349 . S
C3061 C3059 1.327 . S
C3061 C3077 1.429 . S
C3061 H3083 0.950 . S
C3062 H3058 0.949 . S
C3062 C3070 1.574 . S
C3062 C3078 1.368 . S
H3063 C3071 0.950 . S
H3064 C3069 0.950 . S
H3065 C3070 0.949 . S
H3066 C3072 0.950 . S
H3067 C3073 0.950 . S
H3068 C3074 0.949 . S
C3069 H3064 0.950 . S
C3069 C3071 1.327 . S
C3069 C3075 1.429 . S
C3070 C3062 1.574 . S
C3070 H3065 0.949 . S
C3070 C3076 1.368 . S
C3071 C3055 1.349 . S
C3071 H3063 0.950 . S
C3071 C3069 1.327 . S
C3072 C3060 1.349 . S
C3072 H3066 0.950 . S
C3072 C3073 1.327 . S
C3073 H3067 0.950 . S
C3073 C3072 1.327 . S
C3073 C3077 1.429 . S
C3074 C3057 1.574 . S
C3074 H3068 0.949 . S
C3074 C3078 1.368 . S
C3075 C3056 1.429 . S
C3075 C3069 1.429 . S
C3075 C3076 1.523 . S
C3076 C3057 1.368 . S
C3076 C3070 1.368 . S
C3076 C3075 1.523 . S
C3077 C3061 1.429 . S
C3077 C3073 1.429 . S
C3077 C3078 1.523 . S
C3078 C3062 1.368 . S
C3078 C3074 1.368 . S
C3078 C3077 1.523 . S
H3079 C3054 0.950 . S
H3080 C3056 0.950 . S
H3081 C3057 0.949 . S
H3082 C3059 0.950 . S
H3083 C3061 0.950 . S
C3084 C3085 1.349 . S
C3084 C3086 1.327 . S
C3084 H3109 0.950 . S
C3085 C3084 1.349 . S
C3085 C3101 1.349 . S
C3086 C3084 1.327 . S
C3086 C3105 1.429 . S
C3086 H3110 0.950 . S
C3087 C3104 1.574 . S
C3087 C3106 1.368 . S
C3087 H3111 0.949 . S
H3088 C3092 0.949 . S
C3089 C3090 1.349 . S
C3089 C3091 1.327 . S
C3089 H3112 0.950 . S
C3090 C3089 1.349 . S
C3090 C3102 1.349 . S
C3091 C3089 1.327 . S
C3091 C3107 1.429 . S
C3091 H3113 0.950 . S
C3092 H3088 0.949 . S
C3092 C3100 1.574 . S
C3092 C3108 1.368 . S
H3093 C3101 0.950 . S
H3094 C3099 0.950 . S
H3095 C3100 0.949 . S
H3096 C3102 0.950 . S
H3097 C3103 0.950 . S
H3098 C3104 0.949 . S
C3099 H3094 0.950 . S
C3099 C3101 1.327 . S
C3099 C3105 1.429 . S
C3100 C3092 1.574 . S
C3100 H3095 0.949 . S
C3100 C3106 1.368 . S
C3101 C3085 1.349 . S
C3101 H3093 0.950 . S
C3101 C3099 1.327 . S
C3102 C3090 1.349 . S
C3102 H3096 0.950 . S
C3102 C3103 1.327 . S
C3103 H3097 0.950 . S
C3103 C3102 1.327 . S
C3103 C3107 1.429 . S
C3104 C3087 1.574 . S
C3104 H3098 0.949 . S
C3104 C3108 1.368 . S
C3105 C3086 1.429 . S
C3105 C3099 1.429 . S
C3105 C3106 1.523 . S
C3106 C3087 1.368 . S
C3106 C3100 1.368 . S
C3106 C3105 1.523 . S
C3107 C3091 1.429 . S
C3107 C3103 1.429 . S
C3107 C3108 1.523 . S
C3108 C3092 1.368 . S
C3108 C3104 1.368 . S
C3108 C3107 1.523 . S
H3109 C3084 0.950 . S
H3110 C3086 0.950 . S
H3111 C3087 0.949 . S
H3112 C3089 0.950 . S
H3113 C3091 0.950 . S
C3114 C3115 1.349 . S
C3114 C3116 1.327 . S
C3114 H3139 0.950 . S
C3115 C3114 1.349 . S
C3115 C3131 1.349 . S
C3116 C3114 1.327 . S
C3116 C3135 1.429 . S
C3116 H3140 0.950 . S
C3117 C3134 1.574 . S
C3117 C3136 1.368 . S
C3117 H3141 0.949 . S
H3118 C3122 0.949 . S
C3119 C3120 1.349 . S
C3119 C3121 1.327 . S
C3119 H3142 0.950 . S
C3120 C3119 1.349 . S
C3120 C3132 1.349 . S
C3121 C3119 1.327 . S
C3121 C3137 1.429 . S
C3121 H3143 0.950 . S
C3122 H3118 0.949 . S
C3122 C3130 1.574 . S
C3122 C3138 1.368 . S
H3123 C3131 0.950 . S
H3124 C3129 0.950 . S
H3125 C3130 0.949 . S
H3126 C3132 0.950 . S
H3127 C3133 0.950 . S
H3128 C3134 0.949 . S
C3129 H3124 0.950 . S
C3129 C3131 1.327 . S
C3129 C3135 1.429 . S
C3130 C3122 1.574 . S
C3130 H3125 0.949 . S
C3130 C3136 1.368 . S
C3131 C3115 1.349 . S
C3131 H3123 0.950 . S
C3131 C3129 1.327 . S
C3132 C3120 1.349 . S
C3132 H3126 0.950 . S
C3132 C3133 1.327 . S
C3133 H3127 0.950 . S
C3133 C3132 1.327 . S
C3133 C3137 1.429 . S
C3134 C3117 1.574 . S
C3134 H3128 0.949 . S
C3134 C3138 1.368 . S
C3135 C3116 1.429 . S
C3135 C3129 1.429 . S
C3135 C3136 1.523 . S
C3136 C3117 1.368 . S
C3136 C3130 1.368 . S
C3136 C3135 1.523 . S
C3137 C3121 1.429 . S
C3137 C3133 1.429 . S
C3137 C3138 1.523 . S
C3138 C3122 1.368 . S
C3138 C3134 1.368 . S
C3138 C3137 1.523 . S
H3139 C3114 0.950 . S
H3140 C3116 0.950 . S
H3141 C3117 0.949 . S
H3142 C3119 0.950 . S
H3143 C3121 0.950 . S
C3144 C3145 1.349 . S
C3144 C3146 1.327 . S
C3144 H3169 0.950 . S
C3145 C3144 1.349 . S
C3145 C3161 1.349 . S
C3146 C3144 1.327 . S
C3146 C3165 1.429 . S
C3146 H3170 0.950 . S
C3147 C3164 1.574 . S
C3147 C3166 1.368 . S
C3147 H3171 0.949 . S
H3148 C3152 0.949 . S
C3149 C3150 1.349 . S
C3149 C3151 1.327 . S
C3149 H3172 0.950 . S
C3150 C3149 1.349 . S
C3150 C3162 1.349 . S
C3151 C3149 1.327 . S
C3151 C3167 1.429 . S
C3151 H3173 0.950 . S
C3152 H3148 0.949 . S
C3152 C3160 1.574 . S
C3152 C3168 1.368 . S
H3153 C3161 0.950 . S
H3154 C3159 0.950 . S
H3155 C3160 0.949 . S
H3156 C3162 0.950 . S
H3157 C3163 0.950 . S
H3158 C3164 0.949 . S
C3159 H3154 0.950 . S
C3159 C3161 1.327 . S
C3159 C3165 1.429 . S
C3160 C3152 1.574 . S
C3160 H3155 0.949 . S
C3160 C3166 1.368 . S
C3161 C3145 1.349 . S
C3161 H3153 0.950 . S
C3161 C3159 1.327 . S
C3162 C3150 1.349 . S
C3162 H3156 0.950 . S
C3162 C3163 1.327 . S
C3163 H3157 0.950 . S
C3163 C3162 1.327 . S
C3163 C3167 1.429 . S
C3164 C3147 1.574 . S
C3164 H3158 0.949 . S
C3164 C3168 1.368 . S
C3165 C3146 1.429 . S
C3165 C3159 1.429 . S
C3165 C3166 1.523 . S
C3166 C3147 1.368 . S
C3166 C3160 1.368 . S
C3166 C3165 1.523 . S
C3167 C3151 1.429 . S
C3167 C3163 1.429 . S
C3167 C3168 1.523 . S
C3168 C3152 1.368 . S
C3168 C3164 1.368 . S
C3168 C3167 1.523 . S
H3169 C3144 0.950 . S
H3170 C3146 0.950 . S
H3171 C3147 0.949 . S
H3172 C3149 0.950 . S
H3173 C3151 0.950 . S
C3174 C3175 1.349 . S
C3174 C3176 1.327 . S
C3174 H3199 0.950 . S
C3175 C3174 1.349 . S
C3175 C3191 1.349 . S
C3176 C3174 1.327 . S
C3176 C3195 1.429 . S
C3176 H3200 0.950 . S
C3177 C3194 1.574 . S
C3177 C3196 1.368 . S
C3177 H3201 0.949 . S
H3178 C3182 0.949 . S
C3179 C3180 1.349 . S
C3179 C3181 1.327 . S
C3179 H3202 0.950 . S
C3180 C3179 1.349 . S
C3180 C3192 1.349 . S
C3181 C3179 1.327 . S
C3181 C3197 1.429 . S
C3181 H3203 0.950 . S
C3182 H3178 0.949 . S
C3182 C3190 1.574 . S
C3182 C3198 1.368 . S
H3183 C3191 0.950 . S
H3184 C3189 0.950 . S
H3185 C3190 0.949 . S
H3186 C3192 0.950 . S
H3187 C3193 0.950 . S
H3188 C3194 0.949 . S
C3189 H3184 0.950 . S
C3189 C3191 1.327 . S
C3189 C3195 1.429 . S
C3190 C3182 1.574 . S
C3190 H3185 0.949 . S
C3190 C3196 1.368 . S
C3191 C3175 1.349 . S
C3191 H3183 0.950 . S
C3191 C3189 1.327 . S
C3192 C3180 1.349 . S
C3192 H3186 0.950 . S
C3192 C3193 1.327 . S
C3193 H3187 0.950 . S
C3193 C3192 1.327 . S
C3193 C3197 1.429 . S
C3194 C3177 1.574 . S
C3194 H3188 0.949 . S
C3194 C3198 1.368 . S
C3195 C3176 1.429 . S
C3195 C3189 1.429 . S
C3195 C3196 1.523 . S
C3196 C3177 1.368 . S
C3196 C3190 1.368 . S
C3196 C3195 1.523 . S
C3197 C3181 1.429 . S
C3197 C3193 1.429 . S
C3197 C3198 1.523 . S
C3198 C3182 1.368 . S
C3198 C3194 1.368 . S
C3198 C3197 1.523 . S
H3199 C3174 0.950 . S
H3200 C3176 0.950 . S
H3201 C3177 0.949 . S
H3202 C3179 0.950 . S
H3203 C3181 0.950 . S
C3204 C3205 1.349 . S
C3204 C3206 1.327 . S
C3204 H3229 0.950 . S
C3205 C3204 1.349 . S
C3205 C3221 1.349 . S
C3206 C3204 1.327 . S
C3206 C3225 1.429 . S
C3206 H3230 0.950 . S
C3207 C3224 1.574 . S
C3207 C3226 1.368 . S
C3207 H3231 0.949 . S
H3208 C3212 0.949 . S
C3209 C3210 1.349 . S
C3209 C3211 1.327 . S
C3209 H3232 0.950 . S
C3210 C3209 1.349 . S
C3210 C3222 1.349 . S
C3211 C3209 1.327 . S
C3211 C3227 1.429 . S
C3211 H3233 0.950 . S
C3212 H3208 0.949 . S
C3212 C3220 1.574 . S
C3212 C3228 1.368 . S
H3213 C3221 0.950 . S
H3214 C3219 0.950 . S
H3215 C3220 0.949 . S
H3216 C3222 0.950 . S
H3217 C3223 0.950 . S
H3218 C3224 0.949 . S
C3219 H3214 0.950 . S
C3219 C3221 1.327 . S
C3219 C3225 1.429 . S
C3220 C3212 1.574 . S
C3220 H3215 0.949 . S
C3220 C3226 1.368 . S
C3221 C3205 1.349 . S
C3221 H3213 0.950 . S
C3221 C3219 1.327 . S
C3222 C3210 1.349 . S
C3222 H3216 0.950 . S
C3222 C3223 1.327 . S
C3223 H3217 0.950 . S
C3223 C3222 1.327 . S
C3223 C3227 1.429 . S
C3224 C3207 1.574 . S
C3224 H3218 0.949 . S
C3224 C3228 1.368 . S
C3225 C3206 1.429 . S
C3225 C3219 1.429 . S
C3225 C3226 1.523 . S
C3226 C3207 1.368 . S
C3226 C3220 1.368 . S
C3226 C3225 1.523 . S
C3227 C3211 1.429 . S
C3227 C3223 1.429 . S
C3227 C3228 1.523 . S
C3228 C3212 1.368 . S
C3228 C3224 1.368 . S
C3228 C3227 1.523 . S
H3229 C3204 0.950 . S
H3230 C3206 0.950 . S
H3231 C3207 0.949 . S
H3232 C3209 0.950 . S
H3233 C3211 0.950 . S
C3234 C3235 1.349 . S
C3234 C3236 1.327 . S
C3234 H3259 0.950 . S
C3235 C3234 1.349 . S
C3235 C3251 1.349 . S
C3236 C3234 1.327 . S
C3236 C3255 1.429 . S
C3236 H3260 0.950 . S
C3237 C3254 1.574 . S
C3237 C3256 1.368 . S
C3237 H3261 0.949 . S
H3238 C3242 0.949 . S
C3239 C3240 1.349 . S
C3239 C3241 1.327 . S
C3239 H3262 0.950 . S
C3240 C3239 1.349 . S
C3240 C3252 1.349 . S
C3241 C3239 1.327 . S
C3241 C3257 1.429 . S
C3241 H3263 0.950 . S
C3242 H3238 0.949 . S
C3242 C3250 1.574 . S
C3242 C3258 1.368 . S
H3243 C3251 0.950 . S
H3244 C3249 0.950 . S
H3245 C3250 0.949 . S
H3246 C3252 0.950 . S
H3247 C3253 0.950 . S
H3248 C3254 0.949 . S
C3249 H3244 0.950 . S
C3249 C3251 1.327 . S
C3249 C3255 1.429 . S
C3250 C3242 1.574 . S
C3250 H3245 0.949 . S
C3250 C3256 1.368 . S
C3251 C3235 1.349 . S
C3251 H3243 0.950 . S
C3251 C3249 1.327 . S
C3252 C3240 1.349 . S
C3252 H3246 0.950 . S
C3252 C3253 1.327 . S
C3253 H3247 0.950 . S
C3253 C3252 1.327 . S
C3253 C3257 1.429 . S
C3254 C3237 1.574 . S
C3254 H3248 0.949 . S
C3254 C3258 1.368 . S
C3255 C3236 1.429 . S
C3255 C3249 1.429 . S
C3255 C3256 1.523 . S
C3256 C3237 1.368 . S
C3256 C3250 1.368 . S
C3256 C3255 1.523 . S
C3257 C3241 1.429 . S
C3257 C3253 1.429 . S
C3257 C3258 1.523 . S
C3258 C3242 1.368 . S
C3258 C3254 1.368 . S
C3258 C3257 1.523 . S
H3259 C3234 0.950 . S
H3260 C3236 0.950 . S
H3261 C3237 0.949 . S
H3262 C3239 0.950 . S
H3263 C3241 0.950 . S
C3264 C3265 1.349 . S
C3264 C3266 1.327 . S
C3264 H3289 0.950 . S
C3265 C3264 1.349 . S
C3265 C3281 1.349 . S
C3266 C3264 1.327 . S
C3266 C3285 1.429 . S
C3266 H3290 0.950 . S
C3267 C3284 1.574 . S
C3267 C3286 1.368 . S
C3267 H3291 0.949 . S
H3268 C3272 0.949 . S
C3269 C3270 1.349 . S
C3269 C3271 1.327 . S
C3269 H3292 0.950 . S
C3270 C3269 1.349 . S
C3270 C3282 1.349 . S
C3271 C3269 1.327 . S
C3271 C3287 1.429 . S
C3271 H3293 0.950 . S
C3272 H3268 0.949 . S
C3272 C3280 1.574 . S
C3272 C3288 1.368 . S
H3273 C3281 0.950 . S
H3274 C3279 0.950 . S
H3275 C3280 0.949 . S
H3276 C3282 0.950 . S
H3277 C3283 0.950 . S
H3278 C3284 0.949 . S
C3279 H3274 0.950 . S
C3279 C3281 1.327 . S
C3279 C3285 1.429 . S
C3280 C3272 1.574 . S
C3280 H3275 0.949 . S
C3280 C3286 1.368 . S
C3281 C3265 1.349 . S
C3281 H3273 0.950 . S
C3281 C3279 1.327 . S
C3282 C3270 1.349 . S
C3282 H3276 0.950 . S
C3282 C3283 1.327 . S
C3283 H3277 0.950 . S
C3283 C3282 1.327 . S
C3283 C3287 1.429 . S
C3284 C3267 1.574 . S
C3284 H3278 0.949 . S
C3284 C3288 1.368 . S
C3285 C3266 1.429 . S
C3285 C3279 1.429 . S
C3285 C3286 1.523 . S
C3286 C3267 1.368 . S
C3286 C3280 1.368 . S
C3286 C3285 1.523 . S
C3287 C3271 1.429 . S
C3287 C3283 1.429 . S
C3287 C3288 1.523 . S
C3288 C3272 1.368 . S
C3288 C3284 1.368 . S
C3288 C3287 1.523 . S
H3289 C3264 0.950 . S
H3290 C3266 0.950 . S
H3291 C3267 0.949 . S
H3292 C3269 0.950 . S
H3293 C3271 0.950 . S
C3294 C3295 1.349 . S
C3294 C3296 1.327 . S
C3294 H3319 0.950 . S
C3295 C3294 1.349 . S
C3295 C3311 1.349 . S
C3296 C3294 1.327 . S
C3296 C3315 1.429 . S
C3296 H3320 0.950 . S
C3297 C3314 1.574 . S
C3297 C3316 1.368 . S
C3297 H3321 0.949 . S
H3298 C3302 0.949 . S
C3299 C3300 1.349 . S
C3299 C3301 1.327 . S
C3299 H3322 0.950 . S
C3300 C3299 1.349 . S
C3300 C3312 1.349 . S
C3301 C3299 1.327 . S
C3301 C3317 1.429 . S
C3301 H3323 0.950 . S
C3302 H3298 0.949 . S
C3302 C3310 1.574 . S
C3302 C3318 1.368 . S
H3303 C3311 0.950 . S
H3304 C3309 0.950 . S
H3305 C3310 0.949 . S
H3306 C3312 0.950 . S
H3307 C3313 0.950 . S
H3308 C3314 0.949 . S
C3309 H3304 0.950 . S
C3309 C3311 1.327 . S
C3309 C3315 1.429 . S
C3310 C3302 1.574 . S
C3310 H3305 0.949 . S
C3310 C3316 1.368 . S
C3311 C3295 1.349 . S
C3311 H3303 0.950 . S
C3311 C3309 1.327 . S
C3312 C3300 1.349 . S
C3312 H3306 0.950 . S
C3312 C3313 1.327 . S
C3313 H3307 0.950 . S
C3313 C3312 1.327 . S
C3313 C3317 1.429 . S
C3314 C3297 1.574 . S
C3314 H3308 0.949 . S
C3314 C3318 1.368 . S
C3315 C3296 1.429 . S
C3315 C3309 1.429 . S
C3315 C3316 1.523 . S
C3316 C3297 1.368 . S
C3316 C3310 1.368 . S
C3316 C3315 1.523 . S
C3317 C3301 1.429 . S
C3317 C3313 1.429 . S
C3317 C3318 1.523 . S
C3318 C3302 1.368 . S
C3318 C3314 1.368 . S
C3318 C3317 1.523 . S
H3319 C3294 0.950 . S
H3320 C3296 0.950 . S
H3321 C3297 0.949 . S
H3322 C3299 0.950 . S
H3323 C3301 0.950 . S
C3324 C3325 1.349 . S
C3324 C3326 1.327 . S
C3324 H3349 0.950 . S
C3325 C3324 1.349 . S
C3325 C3341 1.349 . S
C3326 C3324 1.327 . S
C3326 C3345 1.429 . S
C3326 H3350 0.950 . S
C3327 C3344 1.574 . S
C3327 C3346 1.368 . S
C3327 H3351 0.949 . S
H3328 C3332 0.949 . S
C3329 C3330 1.349 . S
C3329 C3331 1.327 . S
C3329 H3352 0.950 . S
C3330 C3329 1.349 . S
C3330 C3342 1.349 . S
C3331 C3329 1.327 . S
C3331 C3347 1.429 . S
C3331 H3353 0.950 . S
C3332 H3328 0.949 . S
C3332 C3340 1.574 . S
C3332 C3348 1.368 . S
H3333 C3341 0.950 . S
H3334 C3339 0.950 . S
H3335 C3340 0.949 . S
H3336 C3342 0.950 . S
H3337 C3343 0.950 . S
H3338 C3344 0.949 . S
C3339 H3334 0.950 . S
C3339 C3341 1.327 . S
C3339 C3345 1.429 . S
C3340 C3332 1.574 . S
C3340 H3335 0.949 . S
C3340 C3346 1.368 . S
C3341 C3325 1.349 . S
C3341 H3333 0.950 . S
C3341 C3339 1.327 . S
C3342 C3330 1.349 . S
C3342 H3336 0.950 . S
C3342 C3343 1.327 . S
C3343 H3337 0.950 . S
C3343 C3342 1.327 . S
C3343 C3347 1.429 . S
C3344 C3327 1.574 . S
C3344 H3338 0.949 . S
C3344 C3348 1.368 . S
C3345 C3326 1.429 . S
C3345 C3339 1.429 . S
C3345 C3346 1.523 . S
C3346 C3327 1.368 . S
C3346 C3340 1.368 . S
C3346 C3345 1.523 . S
C3347 C3331 1.429 . S
C3347 C3343 1.429 . S
C3347 C3348 1.523 . S
C3348 C3332 1.368 . S
C3348 C3344 1.368 . S
C3348 C3347 1.523 . S
H3349 C3324 0.950 . S
H3350 C3326 0.950 . S
H3351 C3327 0.949 . S
H3352 C3329 0.950 . S
H3353 C3331 0.950 . S
C3354 C3355 1.349 . S
C3354 C3356 1.327 . S
C3354 H3379 0.950 . S
C3355 C3354 1.349 . S
C3355 C3371 1.349 . S
C3356 C3354 1.327 . S
C3356 C3375 1.429 . S
C3356 H3380 0.950 . S
C3357 C3374 1.574 . S
C3357 C3376 1.368 . S
C3357 H3381 0.949 . S
H3358 C3362 0.949 . S
C3359 C3360 1.349 . S
C3359 C3361 1.327 . S
C3359 H3382 0.950 . S
C3360 C3359 1.349 . S
C3360 C3372 1.349 . S
C3361 C3359 1.327 . S
C3361 C3377 1.429 . S
C3361 H3383 0.950 . S
C3362 H3358 0.949 . S
C3362 C3370 1.574 . S
C3362 C3378 1.368 . S
H3363 C3371 0.950 . S
H3364 C3369 0.950 . S
H3365 C3370 0.949 . S
H3366 C3372 0.950 . S
H3367 C3373 0.950 . S
H3368 C3374 0.949 . S
C3369 H3364 0.950 . S
C3369 C3371 1.327 . S
C3369 C3375 1.429 . S
C3370 C3362 1.574 . S
C3370 H3365 0.949 . S
C3370 C3376 1.368 . S
C3371 C3355 1.349 . S
C3371 H3363 0.950 . S
C3371 C3369 1.327 . S
C3372 C3360 1.349 . S
C3372 H3366 0.950 . S
C3372 C3373 1.327 . S
C3373 H3367 0.950 . S
C3373 C3372 1.327 . S
C3373 C3377 1.429 . S
C3374 C3357 1.574 . S
C3374 H3368 0.949 . S
C3374 C3378 1.368 . S
C3375 C3356 1.429 . S
C3375 C3369 1.429 . S
C3375 C3376 1.523 . S
C3376 C3357 1.368 . S
C3376 C3370 1.368 . S
C3376 C3375 1.523 . S
C3377 C3361 1.429 . S
C3377 C3373 1.429 . S
C3377 C3378 1.523 . S
C3378 C3362 1.368 . S
C3378 C3374 1.368 . S
C3378 C3377 1.523 . S
H3379 C3354 0.950 . S
H3380 C3356 0.950 . S
H3381 C3357 0.949 . S
H3382 C3359 0.950 . S
H3383 C3361 0.950 . S
C3384 C3385 1.349 . S
C3384 C3386 1.327 . S
C3384 H3409 0.950 . S
C3385 C3384 1.349 . S
C3385 C3401 1.349 . S
C3386 C3384 1.327 . S
C3386 C3405 1.429 . S
C3386 H3410 0.950 . S
C3387 C3404 1.574 . S
C3387 C3406 1.368 . S
C3387 H3411 0.949 . S
H3388 C3392 0.949 . S
C3389 C3390 1.349 . S
C3389 C3391 1.327 . S
C3389 H3412 0.950 . S
C3390 C3389 1.349 . S
C3390 C3402 1.349 . S
C3391 C3389 1.327 . S
C3391 C3407 1.429 . S
C3391 H3413 0.950 . S
C3392 H3388 0.949 . S
C3392 C3400 1.574 . S
C3392 C3408 1.368 . S
H3393 C3401 0.950 . S
H3394 C3399 0.950 . S
H3395 C3400 0.949 . S
H3396 C3402 0.950 . S
H3397 C3403 0.950 . S
H3398 C3404 0.949 . S
C3399 H3394 0.950 . S
C3399 C3401 1.327 . S
C3399 C3405 1.429 . S
C3400 C3392 1.574 . S
C3400 H3395 0.949 . S
C3400 C3406 1.368 . S
C3401 C3385 1.349 . S
C3401 H3393 0.950 . S
C3401 C3399 1.327 . S
C3402 C3390 1.349 . S
C3402 H3396 0.950 . S
C3402 C3403 1.327 . S
C3403 H3397 0.950 . S
C3403 C3402 1.327 . S
C3403 C3407 1.429 . S
C3404 C3387 1.574 . S
C3404 H3398 0.949 . S
C3404 C3408 1.368 . S
C3405 C3386 1.429 . S
C3405 C3399 1.429 . S
C3405 C3406 1.523 . S
C3406 C3387 1.368 . S
C3406 C3400 1.368 . S
C3406 C3405 1.523 . S
C3407 C3391 1.429 . S
C3407 C3403 1.429 . S
C3407 C3408 1.523 . S
C3408 C3392 1.368 . S
C3408 C3404 1.368 . S
C3408 C3407 1.523 . S
H3409 C3384 0.950 . S
H3410 C3386 0.950 . S
H3411 C3387 0.949 . S
H3412 C3389 0.950 . S
H3413 C3391 0.950 . S
C3414 C3415 1.349 . S
C3414 C3416 1.327 . S
C3414 H3439 0.950 . S
C3415 C3414 1.349 . S
C3415 C3431 1.349 . S
C3416 C3414 1.327 . S
C3416 C3435 1.429 . S
C3416 H3440 0.950 . S
C3417 C3434 1.574 . S
C3417 C3436 1.368 . S
C3417 H3441 0.949 . S
H3418 C3422 0.949 . S
C3419 C3420 1.349 . S
C3419 C3421 1.327 . S
C3419 H3442 0.950 . S
C3420 C3419 1.349 . S
C3420 C3432 1.349 . S
C3421 C3419 1.327 . S
C3421 C3437 1.429 . S
C3421 H3443 0.950 . S
C3422 H3418 0.949 . S
C3422 C3430 1.574 . S
C3422 C3438 1.368 . S
H3423 C3431 0.950 . S
H3424 C3429 0.950 . S
H3425 C3430 0.949 . S
H3426 C3432 0.950 . S
H3427 C3433 0.950 . S
H3428 C3434 0.949 . S
C3429 H3424 0.950 . S
C3429 C3431 1.327 . S
C3429 C3435 1.429 . S
C3430 C3422 1.574 . S
C3430 H3425 0.949 . S
C3430 C3436 1.368 . S
C3431 C3415 1.349 . S
C3431 H3423 0.950 . S
C3431 C3429 1.327 . S
C3432 C3420 1.349 . S
C3432 H3426 0.950 . S
C3432 C3433 1.327 . S
C3433 H3427 0.950 . S
C3433 C3432 1.327 . S
C3433 C3437 1.429 . S
C3434 C3417 1.574 . S
C3434 H3428 0.949 . S
C3434 C3438 1.368 . S
C3435 C3416 1.429 . S
C3435 C3429 1.429 . S
C3435 C3436 1.523 . S
C3436 C3417 1.368 . S
C3436 C3430 1.368 . S
C3436 C3435 1.523 . S
C3437 C3421 1.429 . S
C3437 C3433 1.429 . S
C3437 C3438 1.523 . S
C3438 C3422 1.368 . S
C3438 C3434 1.368 . S
C3438 C3437 1.523 . S
H3439 C3414 0.950 . S
H3440 C3416 0.950 . S
H3441 C3417 0.949 . S
H3442 C3419 0.950 . S
H3443 C3421 0.950 . S
C3444 C3445 1.349 . S
C3444 C3446 1.327 . S
C3444 H3469 0.950 . S
C3445 C3444 1.349 . S
C3445 C3461 1.349 . S
C3446 C3444 1.327 . S
C3446 C3465 1.429 . S
C3446 H3470 0.950 . S
C3447 C3464 1.574 . S
C3447 C3466 1.368 . S
C3447 H3471 0.949 . S
H3448 C3452 0.949 . S
C3449 C3450 1.349 . S
C3449 C3451 1.327 . S
C3449 H3472 0.950 . S
C3450 C3449 1.349 . S
C3450 C3462 1.349 . S
C3451 C3449 1.327 . S
C3451 C3467 1.429 . S
C3451 H3473 0.950 . S
C3452 H3448 0.949 . S
C3452 C3460 1.574 . S
C3452 C3468 1.368 . S
H3453 C3461 0.950 . S
H3454 C3459 0.950 . S
H3455 C3460 0.949 . S
H3456 C3462 0.950 . S
H3457 C3463 0.950 . S
H3458 C3464 0.949 . S
C3459 H3454 0.950 . S
C3459 C3461 1.327 . S
C3459 C3465 1.429 . S
C3460 C3452 1.574 . S
C3460 H3455 0.949 . S
C3460 C3466 1.368 . S
C3461 C3445 1.349 . S
C3461 H3453 0.950 . S
C3461 C3459 1.327 . S
C3462 C3450 1.349 . S
C3462 H3456 0.950 . S
C3462 C3463 1.327 . S
C3463 H3457 0.950 . S
C3463 C3462 1.327 . S
C3463 C3467 1.429 . S
C3464 C3447 1.574 . S
C3464 H3458 0.949 . S
C3464 C3468 1.368 . S
C3465 C3446 1.429 . S
C3465 C3459 1.429 . S
C3465 C3466 1.523 . S
C3466 C3447 1.368 . S
C3466 C3460 1.368 . S
C3466 C3465 1.523 . S
C3467 C3451 1.429 . S
C3467 C3463 1.429 . S
C3467 C3468 1.523 . S
C3468 C3452 1.368 . S
C3468 C3464 1.368 . S
C3468 C3467 1.523 . S
H3469 C3444 0.950 . S
H3470 C3446 0.950 . S
H3471 C3447 0.949 . S
H3472 C3449 0.950 . S
H3473 C3451 0.950 . S
C3474 C3475 1.349 . S
C3474 C3476 1.327 . S
C3474 H3499 0.950 . S
C3475 C3474 1.349 . S
C3475 C3491 1.349 . S
C3476 C3474 1.327 . S
C3476 C3495 1.429 . S
C3476 H3500 0.950 . S
C3477 C3494 1.574 . S
C3477 C3496 1.368 . S
C3477 H3501 0.949 . S
H3478 C3482 0.949 . S
C3479 C3480 1.349 . S
C3479 C3481 1.327 . S
C3479 H3502 0.950 . S
C3480 C3479 1.349 . S
C3480 C3492 1.349 . S
C3481 C3479 1.327 . S
C3481 C3497 1.429 . S
C3481 H3503 0.950 . S
C3482 H3478 0.949 . S
C3482 C3490 1.574 . S
C3482 C3498 1.368 . S
H3483 C3491 0.950 . S
H3484 C3489 0.950 . S
H3485 C3490 0.949 . S
H3486 C3492 0.950 . S
H3487 C3493 0.950 . S
H3488 C3494 0.949 . S
C3489 H3484 0.950 . S
C3489 C3491 1.327 . S
C3489 C3495 1.429 . S
C3490 C3482 1.574 . S
C3490 H3485 0.949 . S
C3490 C3496 1.368 . S
C3491 C3475 1.349 . S
C3491 H3483 0.950 . S
C3491 C3489 1.327 . S
C3492 C3480 1.349 . S
C3492 H3486 0.950 . S
C3492 C3493 1.327 . S
C3493 H3487 0.950 . S
C3493 C3492 1.327 . S
C3493 C3497 1.429 . S
C3494 C3477 1.574 . S
C3494 H3488 0.949 . S
C3494 C3498 1.368 . S
C3495 C3476 1.429 . S
C3495 C3489 1.429 . S
C3495 C3496 1.523 . S
C3496 C3477 1.368 . S
C3496 C3490 1.368 . S
C3496 C3495 1.523 . S
C3497 C3481 1.429 . S
C3497 C3493 1.429 . S
C3497 C3498 1.523 . S
C3498 C3482 1.368 . S
C3498 C3494 1.368 . S
C3498 C3497 1.523 . S
H3499 C3474 0.950 . S
H3500 C3476 0.950 . S
H3501 C3477 0.949 . S
H3502 C3479 0.950 . S
H3503 C3481 0.950 . S
C625 C407 1.374 . S
C630 C4 1.374 . S
C655 C23 1.374 . S
C660 C374 1.374 . S
C685 C30 1.374 . S
C690 C387 1.374 . S
C715 C394 1.374 . S
C720 C49 1.374 . S
C745 C335 1.374 . S
C750 C62 1.374 . S
C775 C69 1.374 . S
C780 C342 1.374 . S
C805 C361 1.374 . S
C810 C82 1.374 . S
C835 C95 1.374 . S
C840 C322 1.374 . S
C865 C114 1.374 . S
C870 C582 1.374 . S
C895 C537 1.374 . S
C900 C121 1.374 . S
C925 C556 1.374 . S
C930 C140 1.374 . S
C955 C147 1.374 . S
C960 C563 1.374 . S
C985 C160 1.374 . S
C990 C615 1.374 . S
C1015 C179 1.374 . S
C1020 C589 1.374 . S
C1045 C192 1.374 . S
C1050 C602 1.374 . S
C1075 C524 1.374 . S
C1080 C199 1.374 . S
C1105 C511 1.374 . S
C1110 C212 1.374 . S
C1135 C225 1.374 . S
C1140 C433 1.374 . S
C1165 C446 1.374 . S
C1170 C238 1.374 . S
C1195 C257 1.374 . S
C1200 C459 1.374 . S
C1225 C426 1.374 . S
C1230 C270 1.374 . S
C1255 C491 1.374 . S
C1260 C277 1.374 . S
C1285 C296 1.374 . S
C1290 C498 1.374 . S
C1315 C478 1.374 . S
C1320 C303 1.374 . S
C1345 C127 1.799 . S
C1350 C10 1.799 . S
C1375 C134 1.799 . S
C1380 C17 1.799 . S
C1405 C36 1.799 . S
C1410 C153 1.799 . S
C1435 C108 1.799 . S
C1440 C43 1.799 . S
C1465 C56 1.799 . S
C1470 C205 1.799 . S
C1495 C166 1.799 . S
C1500 C75 1.799 . S
C1525 C173 1.799 . S
C1530 C88 1.799 . S
C1555 C186 1.799 . S
C1560 C101 1.799 . S
C1585 C244 1.799 . S
C1590 C218 1.799 . S
C1615 C290 1.799 . S
C1620 C231 1.799 . S
C1645 C309 1.799 . S
C1650 C251 1.799 . S
C1675 C264 1.799 . S
C1680 C283 1.799 . S
C1705 C439 1.799 . S
C1710 C316 1.799 . S
C1735 C452 1.799 . S
C1740 C329 1.799 . S
C1765 C465 1.799 . S
C1770 C348 1.799 . S
C1795 C355 1.799 . S
C1800 C420 1.799 . S
C1825 C368 1.799 . S
C1830 C517 1.799 . S
C1855 C381 1.799 . S
C1860 C472 1.799 . S
C1885 C485 1.799 . S
C1890 C400 1.799 . S
C1915 C504 1.799 . S
C1920 C413 1.799 . S
C1945 C530 1.799 . S
C1950 C550 1.799 . S
C1975 C608 1.799 . S
C1980 C543 1.799 . S
C2005 C621 1.799 . S
C2010 C569 1.799 . S
C2035 C595 1.799 . S
C2040 C576 1.799 . S
C2065 C3 1.399 . S
C2070 C239 1.398 . S
C2095 C18 1.399 . S
C2100 C250 1.398 . S
C2125 C29 1.399 . S
C2130 C263 1.398 . S
C2155 C226 1.398 . S
C2160 C44 1.399 . S
C2185 C57 1.399 . S
C2190 C289 1.398 . S
C2215 C68 1.399 . S
C2220 C213 1.398 . S
C2245 C304 1.398 . S
C2250 C81 1.399 . S
C2275 C278 1.398 . S
C2280 C94 1.399 . S
C2305 C109 1.399 . S
C2310 C122 1.398 . S
C2335 C120 1.399 . S
C2340 C133 1.398 . S
C2365 C135 1.399 . S
C2370 C148 1.398 . S
C2395 C107 1.398 . S
C2400 C146 1.399 . S
C2425 C200 1.398 . S
C2430 C159 1.399 . S
C2455 C161 1.398 . S
C2460 C174 1.399 . S
C2485 C172 1.398 . S
C2490 C187 1.399 . S
C2515 C198 1.399 . S
C2520 C185 1.398 . S
C2545 C42 1.398 . S
C2550 C211 1.399 . S
C2575 C70 1.398 . S
C2580 C224 1.399 . S
C2605 C83 1.398 . S
C2610 C237 1.399 . S
C2635 C252 1.399 . S
C2640 C96 1.398 . S
C2665 C55 1.398 . S
C2670 C265 1.399 . S
C2695 C16 1.398 . S
C2700 C276 1.399 . S
C2725 C31 1.398 . S
C2730 C291 1.399 . S
C2755 C5 1.398 . S
C2760 C302 1.399 . S
C2785 C549 1.396 . S
C2790 C317 1.399 . S
C2815 C330 1.399 . S
C2820 C564 1.396 . S
C2845 C575 1.396 . S
C2850 C341 1.399 . S
C2875 C538 1.396 . S
C2880 C356 1.399 . S
C2905 C369 1.399 . S
C2910 C603 1.396 . S
C2935 C382 1.399 . S
C2940 C525 1.396 . S
C2965 C616 1.396 . S
C2970 C393 1.399 . S
C2995 C406 1.399 . S
C3000 C590 1.396 . S
C3025 C421 1.399 . S
C3030 C434 1.396 . S
C3055 C432 1.399 . S
C3060 C447 1.396 . S
C3085 C445 1.399 . S
C3090 C460 1.396 . S
C3115 C458 1.399 . S
C3120 C419 1.396 . S
C3145 C512 1.396 . S
C3150 C473 1.399 . S
C3175 C471 1.396 . S
C3180 C486 1.399 . S
C3205 C484 1.396 . S
C3210 C497 1.399 . S
C3235 C510 1.399 . S
C3240 C499 1.396 . S
C3265 C354 1.396 . S
C3270 C523 1.399 . S
C3295 C380 1.396 . S
C3300 C536 1.399 . S
C3325 C395 1.396 . S
C3330 C551 1.399 . S
C3355 C562 1.399 . S
C3360 C408 1.396 . S
C3385 C367 1.396 . S
C3390 C577 1.399 . S
C3415 C328 1.396 . S
C3420 C588 1.399 . S
C3445 C601 1.399 . S
C3450 C343 1.396 . S
C3475 C315 1.396 . S
C3480 C614 1.399 . S
