# Generated by pormake.
# Topology wiv, (6)-cn, num edge types: 1
# Building blocks:
#     Node 0, Type 0, BuildingBlock: PAMTUU_clean_sbu_0, # of connection points: 6
#     Node 1, Type 0, BuildingBlock: PAMTUU_clean_sbu_0, # of connection points: 6
#     Node 2, Type 0, BuildingBlock: PAMTUU_clean_sbu_0, # of connection points: 6
#     Node 3, Type 0, BuildingBlock: PAMTUU_clean_sbu_0, # of connection points: 6
#     Node 4, Type 0, BuildingBlock: PAMTUU_clean_sbu_0, # of connection points: 6
#     Node 5, Type 0, BuildingBlock: PAMTUU_clean_sbu_0, # of connection points: 6
#     Node 6, Type 0, BuildingBlock: PAMTUU_clean_sbu_0, # of connection points: 6
#     Node 7, Type 0, BuildingBlock: PAMTUU_clean_sbu_0, # of connection points: 6
#     Node 8, Type 0, BuildingBlock: PAMTUU_clean_sbu_0, # of connection points: 6
#     Node 9, Type 0, BuildingBlock: PAMTUU_clean_sbu_0, # of connection points: 6
#     Node 10, Type 0, BuildingBlock: PAMTUU_clean_sbu_0, # of connection points: 6
#     Node 11, Type 0, BuildingBlock: PAMTUU_clean_sbu_0, # of connection points: 6
#     Node 12, Type 0, BuildingBlock: PAMTUU_clean_sbu_0, # of connection points: 6
#     Node 13, Type 0, BuildingBlock: PAMTUU_clean_sbu_0, # of connection points: 6
#     Node 14, Type 0, BuildingBlock: PAMTUU_clean_sbu_0, # of connection points: 6
#     Node 15, Type 0, BuildingBlock: PAMTUU_clean_sbu_0, # of connection points: 6
#     Edge 16, Type (0, 0), BuildingBlock: XIVTED_clean_linker_0, # of connection points: 2
#     Edge 17, Type (0, 0), BuildingBlock: XIVTED_clean_linker_0, # of connection points: 2
#     Edge 18, Type (0, 0), BuildingBlock: XIVTED_clean_linker_0, # of connection points: 2
#     Edge 19, Type (0, 0), BuildingBlock: XIVTED_clean_linker_0, # of connection points: 2
#     Edge 20, Type (0, 0), BuildingBlock: XIVTED_clean_linker_0, # of connection points: 2
#     Edge 21, Type (0, 0), BuildingBlock: XIVTED_clean_linker_0, # of connection points: 2
#     Edge 22, Type (0, 0), BuildingBlock: XIVTED_clean_linker_0, # of connection points: 2
#     Edge 23, Type (0, 0), BuildingBlock: XIVTED_clean_linker_0, # of connection points: 2
#     Edge 24, Type (0, 0), BuildingBlock: XIVTED_clean_linker_0, # of connection points: 2
#     Edge 25, Type (0, 0), BuildingBlock: XIVTED_clean_linker_0, # of connection points: 2
#     Edge 26, Type (0, 0), BuildingBlock: XIVTED_clean_linker_0, # of connection points: 2
#     Edge 27, Type (0, 0), BuildingBlock: XIVTED_clean_linker_0, # of connection points: 2
#     Edge 28, Type (0, 0), BuildingBlock: XIVTED_clean_linker_0, # of connection points: 2
#     Edge 29, Type (0, 0), BuildingBlock: XIVTED_clean_linker_0, # of connection points: 2
#     Edge 30, Type (0, 0), BuildingBlock: XIVTED_clean_linker_0, # of connection points: 2
#     Edge 31, Type (0, 0), BuildingBlock: XIVTED_clean_linker_0, # of connection points: 2
#     Edge 32, Type (0, 0), BuildingBlock: XIVTED_clean_linker_0, # of connection points: 2
#     Edge 33, Type (0, 0), BuildingBlock: XIVTED_clean_linker_0, # of connection points: 2
#     Edge 34, Type (0, 0), BuildingBlock: XIVTED_clean_linker_0, # of connection points: 2
#     Edge 35, Type (0, 0), BuildingBlock: XIVTED_clean_linker_0, # of connection points: 2
#     Edge 36, Type (0, 0), BuildingBlock: XIVTED_clean_linker_0, # of connection points: 2
#     Edge 37, Type (0, 0), BuildingBlock: XIVTED_clean_linker_0, # of connection points: 2
#     Edge 38, Type (0, 0), BuildingBlock: XIVTED_clean_linker_0, # of connection points: 2
#     Edge 39, Type (0, 0), BuildingBlock: XIVTED_clean_linker_0, # of connection points: 2
#     Edge 40, Type (0, 0), BuildingBlock: XIVTED_clean_linker_0, # of connection points: 2
#     Edge 41, Type (0, 0), BuildingBlock: XIVTED_clean_linker_0, # of connection points: 2
#     Edge 42, Type (0, 0), BuildingBlock: XIVTED_clean_linker_0, # of connection points: 2
#     Edge 43, Type (0, 0), BuildingBlock: XIVTED_clean_linker_0, # of connection points: 2
#     Edge 44, Type (0, 0), BuildingBlock: XIVTED_clean_linker_0, # of connection points: 2
#     Edge 45, Type (0, 0), BuildingBlock: XIVTED_clean_linker_0, # of connection points: 2
#     Edge 46, Type (0, 0), BuildingBlock: XIVTED_clean_linker_0, # of connection points: 2
#     Edge 47, Type (0, 0), BuildingBlock: XIVTED_clean_linker_0, # of connection points: 2
#     Edge 48, Type (0, 0), BuildingBlock: XIVTED_clean_linker_0, # of connection points: 2
#     Edge 49, Type (0, 0), BuildingBlock: XIVTED_clean_linker_0, # of connection points: 2
#     Edge 50, Type (0, 0), BuildingBlock: XIVTED_clean_linker_0, # of connection points: 2
#     Edge 51, Type (0, 0), BuildingBlock: XIVTED_clean_linker_0, # of connection points: 2
#     Edge 52, Type (0, 0), BuildingBlock: XIVTED_clean_linker_0, # of connection points: 2
#     Edge 53, Type (0, 0), BuildingBlock: XIVTED_clean_linker_0, # of connection points: 2
#     Edge 54, Type (0, 0), BuildingBlock: XIVTED_clean_linker_0, # of connection points: 2
#     Edge 55, Type (0, 0), BuildingBlock: XIVTED_clean_linker_0, # of connection points: 2
#     Edge 56, Type (0, 0), BuildingBlock: XIVTED_clean_linker_0, # of connection points: 2
#     Edge 57, Type (0, 0), BuildingBlock: XIVTED_clean_linker_0, # of connection points: 2
#     Edge 58, Type (0, 0), BuildingBlock: XIVTED_clean_linker_0, # of connection points: 2
#     Edge 59, Type (0, 0), BuildingBlock: XIVTED_clean_linker_0, # of connection points: 2
#     Edge 60, Type (0, 0), BuildingBlock: XIVTED_clean_linker_0, # of connection points: 2
#     Edge 61, Type (0, 0), BuildingBlock: XIVTED_clean_linker_0, # of connection points: 2
#     Edge 62, Type (0, 0), BuildingBlock: XIVTED_clean_linker_0, # of connection points: 2
#     Edge 63, Type (0, 0), BuildingBlock: XIVTED_clean_linker_0, # of connection points: 2
# Relax obj value: 0.132
# Max RMSD: 0.186
# Mean RMSD: 0.186
data_MOF--net-wiv--node1-PAMTUU_clean_sbu_0--edge1-XIVTED_clean_linker_0
_symmetry_space_group_name_H-M    P1
_symmetry_Int_Tables_number       1
_symmetry_cell_setting            triclinic
loop_
_symmetry_equiv_pos_as_xyz
'x, y, z'
_cell_length_a     51.340721
_cell_length_b     51.380199
_cell_length_c     24.881607
_cell_angle_alpha  90.005918
_cell_angle_beta   90.048135
_cell_angle_gamma 90.066431
loop_
_atom_site_label
_atom_site_type_symbol
_atom_site_fract_x
_atom_site_fract_y
_atom_site_fract_z
_atom_type_partial_charge
Tb0 Tb 0.37897 0.10501 0.06622 0.0
Tb1 Tb 0.33834 0.10383 0.17038 0.0
C2 C 0.36532 0.05486 0.12934 0.0
C3 C 0.39725 0.10977 0.92261 0.0
C4 C 0.38169 0.11412 0.8137 0.0
C5 C 0.40609 0.1035 0.82742 0.0
C6 C 0.41372 0.10124 0.88131 0.0
C7 C 0.37313 0.1209 0.90921 0.0
C8 C 0.36535 0.12292 0.85534 0.0
C9 C 0.40458 0.10535 0.97932 0.0
O10 O 0.34099 0.09336 0.03747 0.0
O11 O 0.31389 0.11206 0.09963 0.0
O12 O 0.35551 0.14203 0.16838 0.0
O13 O 0.36276 0.14414 0.07779 0.0
O14 O 0.32288 0.08086 0.23227 0.0
O15 O 0.31102 0.12086 0.22315 0.0
O16 O 0.37753 0.10249 0.20503 0.0
O17 O 0.4051 0.11179 0.13343 0.0
O18 O 0.38473 0.06852 0.10976 0.0
O19 O 0.3424 0.06567 0.13459 0.0
C20 C 0.31838 0.10325 0.05061 0.0
O21 O 0.40287 0.12528 1.01165 0.0
O22 O 0.3948 0.08444 1.00101 0.0
C23 C 0.35968 0.15559 0.12477 0.0
C24 C 0.31683 0.10485 0.31191 0.0
C25 C 0.32842 0.11101 0.42279 0.0
C26 C 0.30261 0.11317 0.40377 0.0
C27 C 0.2969 0.1101 0.34889 0.0
C28 C 0.34258 0.103 0.3306 0.0
C29 C 0.34829 0.10596 0.38522 0.0
C30 C 0.31081 0.10044 0.25439 0.0
C31 C 0.40069 0.10815 0.18509 0.0
H32 H 0.41904 0.09625 0.79653 0.0
H33 H 0.43231 0.09241 0.89078 0.0
H34 H 0.36016 0.12769 0.94052 0.0
H35 H 0.34657 0.13145 0.84629 0.0
H36 H 0.28679 0.11735 0.43118 0.0
H37 H 0.27688 0.11163 0.33543 0.0
H38 H 0.35832 0.09878 0.30307 0.0
H39 H 0.36831 0.10364 0.39805 0.0
Tb40 Tb 0.1044 0.66553 0.88161 0.0
Tb41 Tb 0.10711 0.62498 0.98478 0.0
C42 C 0.15706 0.6461 0.92722 0.0
C43 C 0.10349 0.68614 0.73965 0.0
C44 C 0.10859 0.67375 0.62895 0.0
C45 C 0.11404 0.69906 0.64794 0.0
C46 C 0.1115 0.70517 0.70272 0.0
C47 C 0.0983 0.66085 0.72097 0.0
C48 C 0.10072 0.65476 0.66641 0.0
C49 C 0.10014 0.69266 0.79726 0.0
O50 O 0.10154 0.62618 0.84785 0.0
O51 O 0.11745 0.60054 0.917 0.0
O52 O 0.07049 0.61876 0.94126 0.0
O53 O 0.06681 0.66126 0.91947 0.0
O54 O 0.12806 0.60214 0.04016 0.0
O55 O 0.08656 0.60685 0.04754 0.0
O56 O 0.09494 0.66235 1.01521 0.0
O57 O 0.11194 0.69029 0.95238 0.0
O58 O 0.14328 0.64981 0.88365 0.0
O59 O 0.14572 0.64274 0.97424 0.0
C60 C 0.11107 0.60404 0.8662 0.0
O61 O 0.08066 0.68126 0.82124 0.0
O62 O 0.12108 0.69229 0.82706 0.0
C63 C 0.05625 0.6382 0.92366 0.0
C64 C 0.11059 0.606 0.12794 0.0
C65 C 0.11276 0.6211 0.23745 0.0
C66 C 0.10271 0.59662 0.22241 0.0
C67 C 0.1016 0.5892 0.16824 0.0
C68 C 0.12084 0.63035 0.14261 0.0
C69 C 0.12189 0.63784 0.19675 0.0
C70 C 0.10775 0.59867 0.0708 0.0
C71 C 0.10361 0.6854 1.00165 0.0
H72 H 0.12048 0.71413 0.6206 0.0
H73 H 0.11571 0.72478 0.71619 0.0
H74 H 0.09202 0.64578 0.74848 0.0
H75 H 0.09589 0.63521 0.65354 0.0
H76 H 0.09513 0.58336 0.2524 0.0
H77 H 0.09334 0.57046 0.15776 0.0
H78 H 0.1278 0.64369 0.11209 0.0
H79 H 0.13 0.6567 0.20671 0.0
Tb80 Tb 0.62761 0.89794 0.06953 0.0
Tb81 Tb 0.66813 0.90388 0.17251 0.0
C82 C 0.63733 0.94994 0.12936 0.0
C83 C 0.60894 0.89258 0.92625 0.0
C84 C 0.62467 0.89264 0.81692 0.0
C85 C 0.59942 0.90065 0.83188 0.0
C86 C 0.59173 0.90073 0.88591 0.0
C87 C 0.63387 0.88388 0.91164 0.0
C88 C 0.64169 0.88397 0.85764 0.0
C89 C 0.60145 0.89506 0.98341 0.0
O90 O 0.66422 0.91265 0.03944 0.0
O91 O 0.69302 0.89691 0.10184 0.0
O92 O 0.65431 0.86411 0.17166 0.0
O93 O 0.64765 0.86078 0.08111 0.0
O94 O 0.68322 0.92861 0.23202 0.0
O95 O 0.69539 0.8886 0.22773 0.0
O96 O 0.62874 0.90513 0.20612 0.0
O97 O 0.60365 0.88718 0.13807 0.0
O98 O 0.61907 0.93401 0.11246 0.0
O99 O 0.66118 0.94144 0.13528 0.0
C100 C 0.6876 0.90466 0.05245 0.0
O101 O 0.6063 0.87518 1.01444 0.0
O102 O 0.60817 0.91685 1.00628 0.0
C103 C 0.65142 0.84989 0.12837 0.0
C104 C 0.68887 0.9067 0.31444 0.0
C105 C 0.67651 0.90297 0.42529 0.0
C106 C 0.70244 0.90032 0.40747 0.0
C107 C 0.70855 0.90226 0.35256 0.0
C108 C 0.66296 0.90878 0.33205 0.0
C109 C 0.65687 0.90699 0.3867 0.0
C110 C 0.69527 0.90976 0.2567 0.0
C111 C 0.60691 0.89458 0.1884 0.0
H112 H 0.58553 0.90696 0.80184 0.0
H113 H 0.57241 0.90754 0.89628 0.0
H114 H 0.6475 0.87753 0.94219 0.0
H115 H 0.66135 0.87795 0.84811 0.0
H116 H 0.71808 0.89737 0.43605 0.0
H117 H 0.72867 0.90059 0.33995 0.0
H118 H 0.64738 0.91209 0.30358 0.0
H119 H 0.63667 0.90867 0.3987 0.0
Tb120 Tb 0.90266 0.33966 0.87611 0.0
Tb121 Tb 0.89975 0.38023 0.9794 0.0
C122 C 0.84992 0.35934 0.92061 0.0
C123 C 0.90456 0.31919 0.7341 0.0
C124 C 0.90162 0.33179 0.62332 0.0
C125 C 0.89625 0.30633 0.64132 0.0
C126 C 0.89781 0.30009 0.69621 0.0
C127 C 0.90934 0.34471 0.7163 0.0
C128 C 0.90796 0.35091 0.66166 0.0
C129 C 0.90721 0.31253 0.79178 0.0
O130 O 0.90629 0.37905 0.84274 0.0
O131 O 0.88991 0.40467 0.91139 0.0
O132 O 0.93675 0.38589 0.93701 0.0
O133 O 0.93995 0.34332 0.91557 0.0
O134 O 0.87871 0.40324 0.0343 0.0
O135 O 0.92017 0.39838 0.0424 0.0
O136 O 0.91093 0.3426 1.01006 0.0
O137 O 0.89407 0.31493 0.94641 0.0
O138 O 0.86389 0.35566 0.87731 0.0
O139 O 0.86105 0.36284 0.96785 0.0
C140 C 0.89675 0.40124 0.86088 0.0
O141 O 0.92666 0.32357 0.81665 0.0
O142 O 0.88601 0.31331 0.82063 0.0
C143 C 0.95083 0.36623 0.91994 0.0
C144 C 0.89599 0.39968 0.1225 0.0
C145 C 0.89496 0.38419 0.23191 0.0
C146 C 0.90644 0.40796 0.21637 0.0
C147 C 0.90705 0.41553 0.16228 0.0
C148 C 0.88385 0.37631 0.13775 0.0
C149 C 0.88341 0.3686 0.1918 0.0
C150 C 0.89895 0.40673 0.06521 0.0
C151 C 0.90175 0.31977 0.99619 0.0
H152 H 0.89145 0.2911 0.61288 0.0
H153 H 0.89403 0.28028 0.70898 0.0
H154 H 0.91446 0.35987 0.7446 0.0
H155 H 0.91179 0.37078 0.64944 0.0
H156 H 0.91508 0.42079 0.24598 0.0
H157 H 0.91653 0.43363 0.15142 0.0
H158 H 0.87522 0.36373 0.10766 0.0
H159 H 0.87465 0.35004 0.20182 0.0
Tb160 Tb 0.37748 0.39992 0.23089 0.0
Tb161 Tb 0.33729 0.40237 0.127 0.0
C162 C 0.36414 0.45068 0.16995 0.0
C163 C 0.39601 0.39643 0.37433 0.0
C164 C 0.38088 0.39544 0.48389 0.0
C165 C 0.40705 0.39984 0.46913 0.0
C166 C 0.41447 0.40047 0.41496 0.0
C167 C 0.37006 0.39132 0.38861 0.0
C168 C 0.36252 0.39096 0.44273 0.0
C169 C 0.40357 0.39897 0.31732 0.0
O170 O 0.33993 0.4123 0.26015 0.0
O171 O 0.31263 0.39417 0.19757 0.0
O172 O 0.35348 0.36373 0.1286 0.0
O173 O 0.35999 0.36133 0.21936 0.0
O174 O 0.32216 0.42567 0.06522 0.0
O175 O 0.30981 0.38581 0.07395 0.0
O176 O 0.37676 0.40543 0.09373 0.0
O177 O 0.40235 0.39003 0.16354 0.0
O178 O 0.38361 0.43657 0.18788 0.0
O179 O 0.34114 0.44 0.16491 0.0
C180 C 0.31712 0.40293 0.24666 0.0
O181 O 0.39965 0.37866 0.28696 0.0
O182 O 0.39584 0.42022 0.29372 0.0
C183 C 0.35707 0.34998 0.17222 0.0
C184 C 0.31548 0.40209 0.9856 0.0
C185 C 0.32773 0.39824 0.87493 0.0
C186 C 0.30189 0.40252 0.89179 0.0
C187 C 0.29586 0.40455 0.94666 0.0
C188 C 0.34111 0.39703 0.96899 0.0
C189 C 0.34718 0.39521 0.91432 0.0
C190 C 0.30966 0.40635 0.04308 0.0
C191 C 0.39901 0.39633 0.11267 0.0
H192 H 0.4219 0.40282 0.49943 0.0
H193 H 0.43461 0.40437 0.40479 0.0
H194 H 0.35554 0.38802 0.35778 0.0
H195 H 0.34217 0.3878 0.45208 0.0
H196 H 0.28647 0.4051 0.86255 0.0
H197 H 0.27597 0.40855 0.9586 0.0
H198 H 0.35655 0.39492 0.99829 0.0
H199 H 0.36719 0.39149 0.90288 0.0
Tb200 Tb 0.40459 0.66607 0.919 0.0
Tb201 Tb 0.40111 0.62544 0.81564 0.0
C202 C 0.35154 0.64655 0.87499 0.0
C203 C 0.4063 0.68673 0.06097 0.0
C204 C 0.40131 0.67434 0.17172 0.0
C205 C 0.39741 0.70001 0.1532 0.0
C206 C 0.3999 0.70611 0.09841 0.0
C207 C 0.41001 0.66112 0.07918 0.0
C208 C 0.40764 0.65502 0.13376 0.0
C209 C 0.4095 0.69319 1.00331 0.0
O210 O 0.40778 0.62673 0.95235 0.0
O211 O 0.39135 0.601 0.88378 0.0
O212 O 0.43805 0.61943 0.85795 0.0
O213 O 0.44187 0.66194 0.87973 0.0
O214 O 0.37981 0.60266 0.76062 0.0
O215 O 0.42128 0.60727 0.75246 0.0
O216 O 0.41273 0.663 0.78512 0.0
O217 O 0.39612 0.69076 0.8487 0.0
O218 O 0.36563 0.65037 0.91814 0.0
O219 O 0.36252 0.64287 0.82769 0.0
C220 C 0.3982 0.60453 0.93429 0.0
O221 O 0.42875 0.68157 0.97904 0.0
O222 O 0.38845 0.69294 0.97388 0.0
C223 C 0.4524 0.63889 0.87522 0.0
C224 C 0.39696 0.60624 0.67242 0.0
C225 C 0.39503 0.6213 0.56289 0.0
C226 C 0.40534 0.59698 0.57807 0.0
C227 C 0.40638 0.5896 0.63226 0.0
C228 C 0.38623 0.63032 0.65753 0.0
C229 C 0.38539 0.63784 0.60338 0.0
C230 C 0.39997 0.59908 0.72965 0.0
C231 C 0.40377 0.68589 0.79898 0.0
H232 H 0.39219 0.71538 0.18092 0.0
H233 H 0.39688 0.72599 0.08532 0.0
H234 H 0.41506 0.64578 0.05127 0.0
H235 H 0.41128 0.63516 0.14621 0.0
H236 H 0.41323 0.58387 0.54815 0.0
H237 H 0.41494 0.57103 0.64288 0.0
H238 H 0.37881 0.64347 0.68791 0.0
H239 H 0.37706 0.65657 0.59323 0.0
Tb240 Tb 0.62827 0.60534 0.23161 0.0
Tb241 Tb 0.66845 0.60261 0.12781 0.0
C242 C 0.6412 0.55438 0.17047 0.0
C243 C 0.60981 0.61013 0.37471 0.0
C244 C 0.62586 0.61328 0.48348 0.0
C245 C 0.60129 0.60296 0.46975 0.0
C246 C 0.59342 0.60131 0.41591 0.0
C247 C 0.6341 0.62091 0.38815 0.0
C248 C 0.64211 0.62237 0.44194 0.0
C249 C 0.60224 0.60639 0.31792 0.0
O250 O 0.66586 0.59331 0.26145 0.0
O251 O 0.6934 0.61046 0.19811 0.0
O252 O 0.65272 0.6415 0.13048 0.0
O253 O 0.64645 0.64369 0.22128 0.0
O254 O 0.68388 0.57922 0.06653 0.0
O255 O 0.69536 0.6194 0.07382 0.0
O256 O 0.629 0.59962 0.09453 0.0
O257 O 0.60355 0.61545 0.16399 0.0
O258 O 0.6219 0.56863 0.18873 0.0
O259 O 0.66428 0.56487 0.16528 0.0
C260 C 0.68872 0.60241 0.24764 0.0
O261 O 0.60508 0.62638 0.28613 0.0
O262 O 0.61088 0.58514 0.2957 0.0
C263 C 0.64972 0.65518 0.1744 0.0
C264 C 0.68933 0.60262 0.98591 0.0
C265 C 0.67709 0.60871 0.87538 0.0
C266 C 0.70298 0.61114 0.89378 0.0
C267 C 0.70901 0.60811 0.94849 0.0
C268 C 0.6635 0.6004 0.96782 0.0
C269 C 0.65747 0.60331 0.91334 0.0
C270 C 0.69565 0.59872 0.04341 0.0
C271 C 0.60684 0.60894 0.11323 0.0
H272 H 0.5884 0.5955 0.50055 0.0
H273 H 0.5747 0.59272 0.40638 0.0
H274 H 0.64705 0.62787 0.35692 0.0
H275 H 0.661 0.63069 0.45099 0.0
H276 H 0.71859 0.6156 0.86602 0.0
H277 H 0.72907 0.60996 0.96153 0.0
H278 H 0.64795 0.59607 0.99574 0.0
H279 H 0.63741 0.60079 0.90094 0.0
Tb280 Tb 0.60203 0.3374 0.92152 0.0
Tb281 Tb 0.60536 0.37748 0.81791 0.0
C282 C 0.65496 0.35663 0.87734 0.0
C283 C 0.60097 0.3161 0.0631 0.0
C284 C 0.6042 0.32838 0.17386 0.0
C285 C 0.60335 0.30227 0.15663 0.0
C286 C 0.60163 0.2962 0.1017 0.0
C287 C 0.60261 0.34211 0.08014 0.0
C288 C 0.60412 0.34818 0.13481 0.0
C289 C 0.59733 0.30999 1.00551 0.0
O290 O 0.59942 0.37693 0.95478 0.0
O291 O 0.61548 0.40226 0.88531 0.0
O292 O 0.56862 0.38408 0.86042 0.0
O293 O 0.56449 0.34171 0.88323 0.0
O294 O 0.62697 0.39948 0.76216 0.0
O295 O 0.58535 0.39598 0.75492 0.0
O296 O 0.59283 0.34002 0.78811 0.0
O297 O 0.61018 0.31255 0.85117 0.0
O298 O 0.64096 0.35309 0.92062 0.0
O299 O 0.64384 0.3598 0.83 0.0
C300 C 0.60897 0.39903 0.93607 0.0
O301 O 0.57815 0.32219 0.98224 0.0
O302 O 0.61819 0.31018 0.97559 0.0
C303 C 0.55415 0.36482 0.87816 0.0
C304 C 0.60932 0.39576 0.67464 0.0
C305 C 0.61011 0.37996 0.56551 0.0
C306 C 0.60396 0.4058 0.57978 0.0
C307 C 0.60346 0.41355 0.63377 0.0
C308 C 0.61611 0.37016 0.66079 0.0
C309 C 0.61642 0.3623 0.60686 0.0
C310 C 0.60676 0.40348 0.73153 0.0
C311 C 0.60181 0.31713 0.80181 0.0
H312 H 0.60325 0.28656 0.18566 0.0
H313 H 0.60035 0.276 0.08945 0.0
H314 H 0.60229 0.3578 0.0512 0.0
H315 H 0.60519 0.36846 0.14652 0.0
H316 H 0.5995 0.42013 0.54925 0.0
H317 H 0.59818 0.4334 0.64362 0.0
H318 H 0.62073 0.35613 0.69182 0.0
H319 H 0.62095 0.3422 0.59781 0.0
Tb320 Tb 0.88032 0.60751 0.56615 0.0
Tb321 Tb 0.84007 0.60411 0.67001 0.0
C322 C 0.86687 0.55618 0.62544 0.0
C323 C 0.89938 0.61274 0.42312 0.0
C324 C 0.8841 0.61583 0.31384 0.0
C325 C 0.9085 0.60543 0.32834 0.0
C326 C 0.91598 0.6038 0.38242 0.0
C327 C 0.87525 0.62362 0.4089 0.0
C328 C 0.86762 0.62504 0.35486 0.0
C329 C 0.90659 0.60902 0.48012 0.0
O330 O 0.84273 0.59581 0.53569 0.0
O331 O 0.81501 0.61202 0.59985 0.0
O332 O 0.85591 0.64299 0.66842 0.0
O333 O 0.86218 0.64574 0.57767 0.0
O334 O 0.825 0.58046 0.73125 0.0
O335 O 0.81298 0.62048 0.72409 0.0
O336 O 0.87955 0.60071 0.70298 0.0
O337 O 0.905 0.61719 0.63412 0.0
O338 O 0.88632 0.57049 0.60796 0.0
O339 O 0.84388 0.56677 0.63089 0.0
C340 C 0.81976 0.6044 0.55004 0.0
O341 O 0.90342 0.62892 0.51199 0.0
O342 O 0.89802 0.58765 0.50201 0.0
C343 C 0.85898 0.65693 0.62487 0.0
C344 C 0.81919 0.60371 0.81202 0.0
C345 C 0.8311 0.60975 0.92278 0.0
C346 C 0.80528 0.61222 0.90399 0.0
C347 C 0.79941 0.6092 0.84919 0.0
C348 C 0.84495 0.60151 0.83045 0.0
C349 C 0.85082 0.60438 0.88504 0.0
C350 C 0.81297 0.59976 0.75445 0.0
C351 C 0.90172 0.61021 0.68462 0.0
H352 H 0.92156 0.59788 0.29796 0.0
H353 H 0.93459 0.59514 0.39252 0.0
H354 H 0.86216 0.6307 0.43971 0.0
H355 H 0.84885 0.63342 0.3452 0.0
H356 H 0.78958 0.61667 0.93151 0.0
H357 H 0.77939 0.61106 0.8359 0.0
H358 H 0.86059 0.5972 0.80271 0.0
H359 H 0.87084 0.60184 0.8977 0.0
Tb360 Tb 0.60273 0.16815 0.37659 0.0
Tb361 Tb 0.60728 0.12751 0.48032 0.0
C362 C 0.65645 0.14847 0.41783 0.0
C363 C 0.60225 0.19096 0.23595 0.0
C364 C 0.60826 0.17859 0.12559 0.0
C365 C 0.62043 0.16347 0.16564 0.0
C366 C 0.61741 0.16956 0.22017 0.0
C367 C 0.59059 0.20647 0.19635 0.0
C368 C 0.59359 0.20041 0.14174 0.0
C369 C 0.59673 0.19577 0.29336 0.0
O370 O 0.60379 0.12901 0.34175 0.0
O371 O 0.61515 0.10185 0.4129 0.0
O372 O 0.57124 0.11992 0.43662 0.0
O373 O 0.56502 0.16209 0.41395 0.0
O374 O 0.62911 0.1069 0.53839 0.0
O375 O 0.5872 0.10806 0.54176 0.0
O376 O 0.59504 0.16501 0.51048 0.0
O377 O 0.6112 0.19286 0.44661 0.0
O378 O 0.64204 0.15342 0.3756 0.0
O379 O 0.64604 0.14397 0.46537 0.0
C380 C 0.61081 0.10616 0.36137 0.0
O381 O 0.5786 0.18105 0.3139 0.0
O382 O 0.61679 0.19766 0.32545 0.0
C383 C 0.55588 0.13847 0.41933 0.0
C384 C 0.60969 0.11007 0.6248 0.0
C385 C 0.61205 0.12503 0.73455 0.0
C386 C 0.59619 0.13864 0.69796 0.0
C387 C 0.59496 0.13121 0.64388 0.0
C388 C 0.62562 0.0965 0.66104 0.0
C389 C 0.62676 0.10384 0.71533 0.0
C390 C 0.60852 0.10215 0.56748 0.0
C391 C 0.60405 0.18787 0.49648 0.0
H392 H 0.63222 0.1468 0.15495 0.0
H393 H 0.62653 0.15727 0.25012 0.0
H394 H 0.5786 0.22292 0.20768 0.0
H395 H 0.58367 0.21236 0.11233 0.0
H396 H 0.58432 0.15481 0.71125 0.0
H397 H 0.5824 0.14204 0.61699 0.0
H398 H 0.6372 0.08018 0.64735 0.0
H399 H 0.63941 0.09307 0.74213 0.0
Tb400 Tb 0.1279 0.39966 0.56788 0.0
Tb401 Tb 0.16826 0.40245 0.67189 0.0
C402 C 0.14272 0.45073 0.62692 0.0
C403 C 0.10956 0.39834 0.42439 0.0
C404 C 0.12466 0.39574 0.31494 0.0
C405 C 0.10133 0.38407 0.33258 0.0
C406 C 0.09391 0.38531 0.38678 0.0
C407 C 0.13281 0.41006 0.4069 0.0
C408 C 0.14031 0.40871 0.35293 0.0
C409 C 0.10176 0.39949 0.48163 0.0
O410 O 0.16589 0.40943 0.53662 0.0
O411 O 0.19321 0.39371 0.60238 0.0
O412 O 0.15221 0.36364 0.67068 0.0
O413 O 0.14456 0.36084 0.58016 0.0
O414 O 0.18258 0.42588 0.7344 0.0
O415 O 0.1961 0.38647 0.72458 0.0
O416 O 0.12877 0.40605 0.70457 0.0
O417 O 0.10321 0.38969 0.63561 0.0
O418 O 0.12297 0.43674 0.60987 0.0
O419 O 0.1655 0.43969 0.63204 0.0
C420 C 0.18855 0.4004 0.55203 0.0
O421 O 0.10617 0.3787 0.51022 0.0
O422 O 0.10843 0.42051 0.50752 0.0
C423 C 0.14827 0.34974 0.6273 0.0
C424 C 0.18976 0.40199 0.81321 0.0
C425 C 0.17621 0.39723 0.92311 0.0
C426 C 0.20013 0.40849 0.90772 0.0
C427 C 0.20679 0.41087 0.8533 0.0
C428 C 0.16618 0.39022 0.82824 0.0
C429 C 0.15951 0.3878 0.88255 0.0
C430 C 0.1956 0.40681 0.75601 0.0
C431 C 0.10655 0.39665 0.68615 0.0
H432 H 0.08893 0.37368 0.30461 0.0
H433 H 0.07595 0.37605 0.39934 0.0
H434 H 0.14522 0.42037 0.43497 0.0
H435 H 0.1582 0.41823 0.34084 0.0
H436 H 0.21338 0.41623 0.93761 0.0
H437 H 0.22498 0.42021 0.84249 0.0
H438 H 0.15271 0.38329 0.79789 0.0
H439 H 0.14116 0.37863 0.89269 0.0
Tb440 Tb 0.40439 0.83942 0.38191 0.0
Tb441 Tb 0.40133 0.88039 0.48548 0.0
C442 C 0.35131 0.85847 0.42758 0.0
C443 C 0.40607 0.81897 0.2397 0.0
C444 C 0.40052 0.83126 0.12895 0.0
C445 C 0.39664 0.80562 0.14766 0.0
C446 C 0.39941 0.79957 0.20244 0.0
C447 C 0.40973 0.84457 0.2213 0.0
C448 C 0.4071 0.85061 0.16674 0.0
C449 C 0.4096 0.81255 0.29735 0.0
O450 O 0.40683 0.87886 0.34845 0.0
O451 O 0.39105 0.90462 0.41753 0.0
O452 O 0.43809 0.8859 0.44218 0.0
O453 O 0.44129 0.84319 0.42274 0.0
O454 O 0.38093 0.90407 0.54016 0.0
O455 O 0.42218 0.89792 0.54865 0.0
O456 O 0.41159 0.84253 0.51661 0.0
O457 O 0.39613 0.8145 0.45189 0.0
O458 O 0.36502 0.85364 0.38437 0.0
O459 O 0.36224 0.86403 0.47417 0.0
C460 C 0.39727 0.90099 0.36676 0.0
O461 O 0.42868 0.82458 0.32151 0.0
O462 O 0.38864 0.81225 0.327 0.0
C463 C 0.45218 0.8661 0.42594 0.0
C464 C 0.39779 0.8998 0.6285 0.0
C465 C 0.39506 0.88465 0.73792 0.0
C466 C 0.40643 0.90855 0.72301 0.0
C467 C 0.40787 0.91597 0.66887 0.0
C468 C 0.38597 0.87617 0.64315 0.0
C469 C 0.38474 0.86859 0.69723 0.0
C470 C 0.40118 0.90689 0.57131 0.0
C471 C 0.40309 0.81953 0.50202 0.0
H472 H 0.39124 0.79022 0.12011 0.0
H473 H 0.39641 0.7797 0.21566 0.0
H474 H 0.41497 0.85993 0.24906 0.0
H475 H 0.41074 0.87045 0.15416 0.0
H476 H 0.41484 0.92127 0.7531 0.0
H477 H 0.41725 0.93418 0.65845 0.0
H478 H 0.37798 0.86341 0.61263 0.0
H479 H 0.3756 0.85021 0.70719 0.0
Tb480 Tb 0.87603 0.90148 0.729 0.0
Tb481 Tb 0.83571 0.90398 0.62511 0.0
C482 C 0.86362 0.95201 0.66668 0.0
C483 C 0.89437 0.89716 0.87237 0.0
C484 C 0.87827 0.8942 0.98109 0.0
C485 C 0.90252 0.90518 0.9673 0.0
C486 C 0.91041 0.90673 0.91348 0.0
C487 C 0.87038 0.88574 0.8859 0.0
C488 C 0.86235 0.88438 0.93966 0.0
C489 C 0.90196 0.90069 0.81555 0.0
O490 O 0.83853 0.914 0.75814 0.0
O491 O 0.81085 0.89632 0.69569 0.0
O492 O 0.85106 0.865 0.62795 0.0
O493 O 0.85815 0.86297 0.71864 0.0
O494 O 0.82044 0.92764 0.56412 0.0
O495 O 0.80848 0.88758 0.57115 0.0
O496 O 0.87519 0.90557 0.59115 0.0
O497 O 0.90071 0.89105 0.66187 0.0
O498 O 0.88288 0.93772 0.6849 0.0
O499 O 0.84044 0.94167 0.66238 0.0
C500 C 0.81567 0.90469 0.74497 0.0
O501 O 0.89911 0.8806 0.78404 0.0
O502 O 0.8934 0.92188 0.79294 0.0
C503 C 0.85474 0.85144 0.67181 0.0
C504 C 0.8147 0.90444 0.48331 0.0
C505 C 0.8269 0.89844 0.37277 0.0
C506 C 0.80108 0.89556 0.39124 0.0
C507 C 0.79506 0.89854 0.44597 0.0
C508 C 0.84044 0.90715 0.46511 0.0
C509 C 0.84645 0.90429 0.41064 0.0
C510 C 0.80843 0.90831 0.54085 0.0
C511 C 0.89736 0.89651 0.61059 0.0
H512 H 0.91515 0.9132 0.99801 0.0
H513 H 0.92889 0.91582 0.90389 0.0
H514 H 0.85769 0.87819 0.85476 0.0
H515 H 0.8437 0.87556 0.94877 0.0
H516 H 0.78551 0.89077 0.36355 0.0
H517 H 0.77506 0.89632 0.45908 0.0
H518 H 0.85594 0.91185 0.49294 0.0
H519 H 0.86645 0.90719 0.3982 0.0
Tb520 Tb 0.90389 0.16775 0.41584 0.0
Tb521 Tb 0.90091 0.12715 0.31259 0.0
C522 C 0.85118 0.1479 0.37131 0.0
C523 C 0.90526 0.18855 0.55771 0.0
C524 C 0.90221 0.17602 0.6685 0.0
C525 C 0.89905 0.2019 0.65085 0.0
C526 C 0.90066 0.2081 0.59595 0.0
C527 C 0.90778 0.16267 0.57515 0.0
C528 C 0.90633 0.15649 0.62979 0.0
C529 C 0.90824 0.19507 0.50006 0.0
O530 O 0.90732 0.1284 0.44932 0.0
O531 O 0.89115 0.1026 0.3806 0.0
O532 O 0.93776 0.1212 0.35532 0.0
O533 O 0.9414 0.1637 0.37747 0.0
O534 O 0.87965 0.10443 0.25739 0.0
O535 O 0.92115 0.10897 0.24953 0.0
O536 O 0.91279 0.1647 0.28243 0.0
O537 O 0.89538 0.19231 0.34526 0.0
O538 O 0.86518 0.15152 0.41464 0.0
O539 O 0.8623 0.14462 0.32405 0.0
C540 C 0.89791 0.10614 0.43118 0.0
O541 O 0.92771 0.18382 0.47583 0.0
O542 O 0.88718 0.19428 0.47071 0.0
C543 C 0.95198 0.14067 0.37307 0.0
C544 C 0.89693 0.10821 0.16941 0.0
C545 C 0.8959 0.12388 0.06011 0.0
C546 C 0.90526 0.09911 0.07502 0.0
C547 C 0.90588 0.09144 0.12905 0.0
C548 C 0.88689 0.13262 0.15486 0.0
C549 C 0.88647 0.14043 0.10087 0.0
C550 C 0.89985 0.10086 0.22653 0.0
C551 C 0.90344 0.18749 0.29577 0.0
H552 H 0.89599 0.21744 0.67956 0.0
H553 H 0.89866 0.2282 0.58345 0.0
H554 H 0.91122 0.14719 0.54658 0.0
H555 H 0.90842 0.13633 0.64172 0.0
H556 H 0.9122 0.08557 0.04494 0.0
H557 H 0.91371 0.07252 0.13939 0.0
H558 H 0.87988 0.14588 0.18544 0.0
H559 H 0.8794 0.15974 0.09137 0.0
Tb560 Tb 0.12671 0.10656 0.73214 0.0
Tb561 Tb 0.16694 0.1017 0.62871 0.0
C562 C 0.13732 0.05501 0.67172 0.0
C563 C 0.10751 0.11102 0.87526 0.0
C564 C 0.12275 0.111 0.98484 0.0
C565 C 0.09775 0.10243 0.96925 0.0
C566 C 0.0903 0.10233 0.91508 0.0
C567 C 0.13216 0.12031 0.8905 0.0
C568 C 0.13975 0.12024 0.94466 0.0
C569 C 0.10033 0.10849 0.81797 0.0
O570 O 0.16383 0.0932 0.7625 0.0
O571 O 0.19204 0.10901 0.6989 0.0
O572 O 0.15278 0.14126 0.63048 0.0
O573 O 0.14602 0.14418 0.72111 0.0
O574 O 0.18192 0.07731 0.56864 0.0
O575 O 0.19417 0.11733 0.57388 0.0
O576 O 0.12745 0.10023 0.5952 0.0
O577 O 0.10257 0.11753 0.66407 0.0
O578 O 0.11873 0.07047 0.68868 0.0
O579 O 0.16096 0.06414 0.66635 0.0
C580 C 0.18705 0.10138 0.74855 0.0
O581 O 0.10478 0.12858 0.78727 0.0
O582 O 0.10772 0.08695 0.79502 0.0
C583 C 0.14973 0.15526 0.67401 0.0
C584 C 0.18781 0.0996 0.48682 0.0
C585 C 0.17582 0.10365 0.3759 0.0
C586 C 0.20168 0.1063 0.39417 0.0
C587 C 0.20761 0.1042 0.44913 0.0
C588 C 0.16195 0.09755 0.46879 0.0
C589 C 0.15604 0.09949 0.41407 0.0
C590 C 0.19406 0.09629 0.54452 0.0
C591 C 0.10566 0.11056 0.61347 0.0
H592 H 0.08389 0.09566 0.99891 0.0
H593 H 0.07118 0.09507 0.90419 0.0
H594 H 0.14578 0.12709 0.86034 0.0
H595 H 0.15922 0.12672 0.95474 0.0
H596 H 0.21741 0.10936 0.36589 0.0
H597 H 0.2277 0.10585 0.46209 0.0
H598 H 0.14628 0.09414 0.49697 0.0
H599 H 0.13588 0.0978 0.40167 0.0
Tb600 Tb 0.1136 0.83688 0.42197 0.0
Tb601 Tb 0.10438 0.87828 0.32012 0.0
C602 C 0.15931 0.85869 0.35782 0.0
C603 C 0.11834 0.81645 0.56372 0.0
C604 C 0.11483 0.82992 0.67439 0.0
C605 C 0.12632 0.80627 0.65803 0.0
C606 C 0.12806 0.79965 0.60337 0.0
C607 C 0.10658 0.83988 0.57965 0.0
C608 C 0.10479 0.84651 0.63423 0.0
C609 C 0.12171 0.81025 0.50594 0.0
O610 O 0.12226 0.87632 0.45031 0.0
O611 O 0.10077 0.90314 0.39019 0.0
O612 O 0.06535 0.86868 0.35053 0.0
O613 O 0.07578 0.85348 0.43493 0.0
O614 O 0.1192 0.90577 0.26499 0.0
O615 O 0.08034 0.8908 0.25674 0.0
O616 O 0.11313 0.84055 0.2867 0.0
O617 O 0.10097 0.81241 0.3539 0.0
O618 O 0.14809 0.83696 0.37248 0.0
O619 O 0.14533 0.87931 0.34558 0.0
C620 C 0.1122 0.89904 0.43684 0.0
O621 O 0.1005 0.80863 0.47713 0.0
O622 O 0.13962 0.82369 0.48125 0.0
C623 C 0.05878 0.86178 0.39972 0.0
C624 C 0.10325 0.89824 0.17631 0.0
C625 C 0.10764 0.88423 0.06615 0.0
C626 C 0.09177 0.90519 0.08227 0.0
C627 C 0.08952 0.912 0.13669 0.0
C628 C 0.11956 0.8777 0.16045 0.0
C629 C 0.12164 0.87067 0.10606 0.0
C630 C 0.09879 0.90418 0.23394 0.0
C631 C 0.10563 0.81745 0.30268 0.0
H632 H 0.1346 0.79309 0.68735 0.0
H633 H 0.13738 0.78156 0.59202 0.0
H634 H 0.099 0.85322 0.54977 0.0
H635 H 0.09541 0.86465 0.64486 0.0
H636 H 0.08048 0.91592 0.05294 0.0
H637 H 0.07664 0.92777 0.14795 0.0
H638 H 0.13042 0.86682 0.19024 0.0
H639 H 0.13428 0.85465 0.09527 0.0
H640 H 0.36235 0.94047 0.37628 0.0
H641 H 0.4102 0.02525 0.1305 0.0
H642 H 0.42182 0.91072 0.27036 0.0
H643 H 0.33096 0.02631 0.18856 0.0
H644 H 0.41821 0.98603 0.18487 0.0
H645 H 0.35431 0.97587 0.31311 0.0
C646 C 0.37384 0.94147 0.33982 0.0
C647 C 0.39283 0.92265 0.32864 0.0
C648 C 0.39903 0.99478 0.18496 0.0
C649 C 0.38375 0.96327 0.25613 0.0
C650 C 0.39442 0.0171 0.15397 0.0
C651 C 0.3699 0.02923 0.15511 0.0
C652 C 0.37914 0.98496 0.218 0.0
C653 C 0.3502 0.01781 0.18642 0.0
C654 C 0.36909 0.96157 0.30359 0.0
C655 C 0.40694 0.92481 0.28041 0.0
N656 N 0.35536 0.9966 0.2171 0.0
N657 N 0.40229 0.94494 0.24604 0.0
H658 H 0.94202 0.64442 0.67607 0.0
H659 H 0.0273 0.59283 0.91803 0.0
H660 H 0.91148 0.5842 0.7793 0.0
H661 H 0.02726 0.67322 0.86728 0.0
H662 H 0.98813 0.58542 0.86268 0.0
H663 H 0.97786 0.65103 0.73918 0.0
C664 C 0.94294 0.63247 0.71189 0.0
C665 C 0.92374 0.61373 0.72242 0.0
C666 C 0.99666 0.60469 0.8644 0.0
C667 C 0.96486 0.62113 0.79475 0.0
C668 C 0.01893 0.60895 0.89595 0.0
C669 C 0.03072 0.63365 0.89719 0.0
C670 C 0.98659 0.62512 0.83316 0.0
C671 C 0.01904 0.65381 0.86757 0.0
C672 C 0.9633 0.63638 0.74807 0.0
C673 C 0.92584 0.59894 0.7698 0.0
N674 N 0.99793 0.649 0.8363 0.0
N675 N 0.94621 0.60278 0.80412 0.0
H676 H 0.59388 0.96083 0.18798 0.0
H677 H 0.62932 0.10732 0.25848 0.0
H678 H 0.66549 0.9951 0.13137 0.0
H679 H 0.59799 0.05516 0.3779 0.0
H680 H 0.63405 0.07033 0.1965 0.0
H681 H 0.58598 0.99988 0.24256 0.0
C682 C 0.60758 0.97686 0.18597 0.0
C683 C 0.6303 0.9749 0.15492 0.0
C684 C 0.62606 0.06711 0.23624 0.0
C685 C 0.62132 0.01939 0.21686 0.0
C686 C 0.62329 0.08812 0.27147 0.0
C687 C 0.61343 0.08418 0.32344 0.0
C688 C 0.61815 0.04219 0.25259 0.0
C689 C 0.60595 0.05893 0.33837 0.0
C690 C 0.60319 0.99893 0.21749 0.0
C691 C 0.64771 0.99597 0.15467 0.0
N692 N 0.60826 0.03888 0.30293 0.0
N693 N 0.64281 0.01745 0.18503 0.0
H694 H 0.97973 0.33068 0.86479 0.0
H695 H 0.09728 0.42257 0.781 0.0
H696 H 0.98037 0.41124 0.9144 0.0
H697 H 0.06599 0.36262 0.67795 0.0
H698 H 0.06068 0.41558 0.84337 0.0
H699 H 0.01843 0.33861 0.8109 0.0
C700 C 0.98816 0.35001 0.86506 0.0
C701 C 0.97653 0.37041 0.89398 0.0
C702 C 0.06192 0.40407 0.80699 0.0
C703 C 0.02116 0.37947 0.83207 0.0
C704 C 0.08275 0.40796 0.77152 0.0
C705 C 0.08458 0.39323 0.72405 0.0
C706 C 0.04329 0.38486 0.79549 0.0
C707 C 0.06525 0.37457 0.71375 0.0
C708 C 0.01021 0.3545 0.83391 0.0
C709 C 0.9886 0.39498 0.89261 0.0
N710 N 0.04557 0.37077 0.74936 0.0
N711 N 0.0103 0.39888 0.86201 0.0
H712 H 0.32913 0.48008 0.11437 0.0
H713 H 0.42405 0.59507 0.02922 0.0
H714 H 0.40956 0.47953 0.16542 0.0
H715 H 0.36312 0.56495 0.92697 0.0
H716 H 0.41598 0.55912 0.0926 0.0
H717 H 0.33789 0.51854 0.06033 0.0
C718 C 0.34859 0.48822 0.11493 0.0
C719 C 0.36872 0.47631 0.14422 0.0
C720 C 0.4045 0.56048 0.05617 0.0
C721 C 0.37876 0.5206 0.08212 0.0
C722 C 0.409 0.58094 1.02014 0.0
C723 C 0.3943 0.58288 0.97263 0.0
C724 C 0.38472 0.54237 0.04513 0.0
C725 C 0.37508 0.56407 0.96279 0.0
C726 C 0.35357 0.51013 0.08371 0.0
C727 C 0.3935 0.48798 0.14328 0.0
N728 N 0.37071 0.54475 0.9989 0.0
N729 N 0.39789 0.50952 0.11251 0.0
H730 H 0.5668 0.64331 0.12271 0.0
H731 H 0.48125 0.59353 0.87949 0.0
H732 H 0.59693 0.58364 1.01777 0.0
H733 H 0.48161 0.67362 0.93219 0.0
H734 H 0.5204 0.58574 0.93449 0.0
H735 H 0.53105 0.65056 0.0597 0.0
C736 C 0.56581 0.63161 0.08654 0.0
C737 C 0.58486 0.61283 0.07551 0.0
C738 C 0.51196 0.60504 0.93328 0.0
C739 C 0.54385 0.62097 1.00329 0.0
C740 C 0.48969 0.60952 0.90192 0.0
C741 C 0.47798 0.63424 0.90135 0.0
C742 C 0.52213 0.62527 0.965 0.0
C743 C 0.48976 0.65421 0.93139 0.0
C744 C 0.5455 0.63589 0.05042 0.0
C745 C 0.58268 0.59839 0.02768 0.0
N746 N 0.51088 0.64919 0.9625 0.0
N747 N 0.56236 0.60258 0.99343 0.0
H748 H 0.59586 0.52524 0.16882 0.0
H749 H 0.64363 0.43878 0.92551 0.0
H750 H 0.67534 0.5252 0.11216 0.0
H751 H 0.5844 0.40923 0.03237 0.0
H752 H 0.65149 0.47467 0.98767 0.0
H753 H 0.5876 0.48579 0.11509 0.0
C754 C 0.61163 0.51682 0.14578 0.0
C755 C 0.63631 0.52869 0.14491 0.0
C756 C 0.63679 0.46032 0.9976 0.0
C757 C 0.62679 0.48416 0.08271 0.0
C758 C 0.63215 0.43992 0.96194 0.0
C759 C 0.61328 0.421 0.97367 0.0
C760 C 0.62214 0.46223 0.04504 0.0
C761 C 0.59917 0.42339 1.02187 0.0
C762 C 0.60687 0.49436 0.11516 0.0
C763 C 0.65598 0.51691 0.11412 0.0
N764 N 0.60371 0.44381 0.05567 0.0
N765 N 0.65069 0.4956 0.08379 0.0
H766 H 0.4392 0.36229 0.12362 0.0
H767 H 0.5254 0.4103 0.88062 0.0
H768 H 0.40879 0.42079 1.01613 0.0
H769 H 0.52457 0.33052 0.93525 0.0
H770 H 0.48595 0.41849 0.93442 0.0
H771 H 0.47505 0.35471 0.06128 0.0
C772 C 0.44015 0.37368 0.08703 0.0
C773 C 0.421 0.39225 0.07513 0.0
C774 C 0.49436 0.39917 0.93387 0.0
C775 C 0.46216 0.3837 1.00363 0.0
C776 C 0.5168 0.39446 0.90321 0.0
C777 C 0.52846 0.36972 0.90355 0.0
C778 C 0.48399 0.37914 0.96581 0.0
C779 C 0.51647 0.34994 0.93375 0.0
C780 C 0.46052 0.36919 0.05129 0.0
C781 C 0.42314 0.40625 0.02675 0.0
N782 N 0.4952 0.35519 0.96417 0.0
N783 N 0.44354 0.40187 0.99286 0.0
H784 H 0.8618 0.44071 0.86925 0.0
H785 H 0.91237 0.52749 0.6294 0.0
H786 H 0.92254 0.41136 0.76598 0.0
H787 H 0.83195 0.52627 0.68016 0.0
H788 H 0.92012 0.48798 0.68319 0.0
H789 H 0.85455 0.47638 0.80633 0.0
C790 C 0.87373 0.44185 0.83344 0.0
C791 C 0.89283 0.42306 0.82289 0.0
C792 C 0.90076 0.4963 0.68177 0.0
C793 C 0.88468 0.46401 0.7507 0.0
C794 C 0.8963 0.51878 0.6511 0.0
C795 C 0.87151 0.53037 0.65044 0.0
C796 C 0.88041 0.4858 0.71268 0.0
C797 C 0.85143 0.51823 0.67951 0.0
C798 C 0.86944 0.46211 0.79734 0.0
C799 C 0.90755 0.42543 0.77549 0.0
N800 N 0.85642 0.49691 0.70996 0.0
N801 N 0.90335 0.44573 0.74125 0.0
H802 H 0.51187 0.1683 0.41321 0.0
H803 H 0.45127 0.09368 0.1691 0.0
H804 H 0.54349 0.09427 0.36433 0.0
H805 H 0.40032 0.1284 0.28664 0.0
H806 H 0.4879 0.0989 0.23187 0.0
H807 H 0.47257 0.15913 0.35972 0.0
C808 C 0.51035 0.14999 0.39184 0.0
C809 C 0.53077 0.1319 0.39354 0.0
C810 C 0.46864 0.10522 0.24388 0.0
C811 C 0.48658 0.12181 0.33109 0.0
C812 C 0.44784 0.1024 0.20809 0.0
C813 C 0.4228 0.1106 0.22284 0.0
C814 C 0.46451 0.11704 0.29401 0.0
C815 C 0.41933 0.12168 0.27395 0.0
C816 C 0.48801 0.1448 0.36143 0.0
C817 C 0.52801 0.10857 0.36468 0.0
N818 N 0.44005 0.12495 0.30748 0.0
N819 N 0.50651 0.10438 0.33383 0.0
H820 H 0.14589 0.56439 0.87575 0.0
H821 H 0.09808 0.4806 0.62824 0.0
H822 H 0.08662 0.59451 0.7696 0.0
H823 H 0.17732 0.47899 0.68651 0.0
H824 H 0.09021 0.51961 0.68325 0.0
H825 H 0.15402 0.52916 0.81212 0.0
C826 C 0.13446 0.56351 0.83917 0.0
C827 C 0.1155 0.58238 0.82804 0.0
C828 C 0.10936 0.5108 0.68327 0.0
C829 C 0.12468 0.54197 0.75503 0.0
C830 C 0.1139 0.4886 0.65191 0.0
C831 C 0.13836 0.47636 0.65291 0.0
C832 C 0.12927 0.52041 0.71659 0.0
C833 C 0.15811 0.48759 0.68447 0.0
C834 C 0.13926 0.54351 0.80268 0.0
C835 C 0.10147 0.58037 0.77965 0.0
N836 N 0.15302 0.50868 0.71556 0.0
N837 N 0.10616 0.56035 0.74504 0.0
H838 H 0.59651 0.92266 0.27975 0.0
H839 H 0.48115 0.82986 0.37289 0.0
H840 H 0.56778 0.85869 0.18413 0.0
H841 H 0.48119 0.91125 0.41631 0.0
H842 H 0.51956 0.83718 0.31773 0.0
H843 H 0.56017 0.91608 0.34274 0.0
C844 C 0.58262 0.9072 0.27211 0.0
C845 C 0.58509 0.8912 0.22658 0.0
C846 C 0.51127 0.85341 0.33962 0.0
C847 C 0.544 0.8834 0.29868 0.0
C848 C 0.48938 0.84926 0.37149 0.0
C849 C 0.47768 0.87005 0.39907 0.0
C850 C 0.52195 0.87843 0.33571 0.0
C851 C 0.48948 0.89469 0.3956 0.0
C852 C 0.5619 0.90357 0.3079 0.0
C853 C 0.56651 0.87158 0.21846 0.0
N854 N 0.51101 0.89824 0.36434 0.0
N855 N 0.54689 0.8681 0.25436 0.0
H856 H 0.82888 0.98148 0.61059 0.0
H857 H 0.92366 0.09666 0.52632 0.0
H858 H 0.90931 0.98054 0.66162 0.0
H859 H 0.86311 0.06633 0.42338 0.0
H860 H 0.91574 0.06049 0.58931 0.0
H861 H 0.83782 0.01987 0.55652 0.0
C862 C 0.84839 0.9895 0.61111 0.0
C863 C 0.86845 0.97751 0.64047 0.0
C864 C 0.90431 0.06185 0.55281 0.0
C865 C 0.87869 0.02178 0.57832 0.0
C866 C 0.90873 0.08244 0.517 0.0
C867 C 0.89409 0.0844 0.4694 0.0
C868 C 0.88468 0.04362 0.54147 0.0
C869 C 0.87502 0.06546 0.45927 0.0
C870 C 0.85347 0.01138 0.57987 0.0
C871 C 0.8933 0.98905 0.63944 0.0
N872 N 0.87072 0.04604 0.49517 0.0
N873 N 0.89777 0.01059 0.60869 0.0
H874 H 0.06655 0.14617 0.62114 0.0
H875 H 0.98072 0.09528 0.37844 0.0
H876 H 0.09503 0.08441 0.51948 0.0
H877 H 0.98095 0.17547 0.43047 0.0
H878 H 0.01958 0.08754 0.43427 0.0
H879 H 0.03093 0.15351 0.55779 0.0
C880 C 0.06524 0.13406 0.5856 0.0
C881 C 0.08379 0.11467 0.57557 0.0
C882 C 0.01118 0.10685 0.43277 0.0
C883 C 0.04293 0.12288 0.50298 0.0
C884 C 0.98907 0.1113 0.40091 0.0
C885 C 0.97742 0.13603 0.39984 0.0
C886 C 0.02126 0.12713 0.46449 0.0
C887 C 0.98908 0.15605 0.43 0.0
C888 C 0.04501 0.13838 0.54928 0.0
C889 C 0.0812 0.09967 0.52857 0.0
N890 N 0.01006 0.15106 0.46155 0.0
N891 N 0.06098 0.10393 0.49414 0.0
H892 H 0.14539 0.90288 0.52258 0.0
H893 H 0.09125 0.03983 0.62583 0.0
H894 H 0.08455 0.9448 0.43988 0.0
H895 H 0.16941 0.01324 0.65781 0.0
H896 H 0.08365 1.00066 0.57149 0.0
H897 H 0.14971 0.93916 0.58558 0.0
C898 C 0.13287 0.91967 0.51771 0.0
C899 C 0.11472 0.92088 0.4755 0.0
C900 C 0.10234 0.0033 0.59098 0.0
C901 C 0.11938 0.96232 0.54811 0.0
C902 C 0.1066 0.02547 0.62244 0.0
C903 C 0.13099 0.02972 0.64646 0.0
C904 C 0.12246 0.9851 0.58426 0.0
C905 C 0.15034 0.01071 0.63995 0.0
C906 C 0.13539 0.94037 0.55369 0.0
C907 C 0.09899 0.94315 0.47141 0.0
N908 N 0.14566 0.98922 0.6095 0.0
N909 N 0.10163 0.96297 0.50735 0.0
H910 H 0.03532 0.83108 0.47301 0.0
H911 H 0.90548 0.91526 0.50755 0.0
H912 H 0.02072 0.89775 0.37206 0.0
H913 H 0.93935 0.86556 0.62873 0.0
H914 H 0.94254 0.90529 0.44803 0.0
H915 H 0.99428 0.83857 0.51868 0.0
C916 C 0.02326 0.8472 0.45999 0.0
C917 C 0.03162 0.86401 0.41909 0.0
C918 C 0.94171 0.89664 0.48767 0.0
C919 C 0.98444 0.87302 0.47221 0.0
C920 C 0.9206 0.90225 0.52161 0.0
C921 C 0.91935 0.89134 0.57342 0.0
C922 C 0.96133 0.87965 0.50547 0.0
C923 C 0.9395 0.87466 0.58949 0.0
C924 C 0.99983 0.85154 0.48633 0.0
C925 C 0.01496 0.88434 0.40345 0.0
N926 N 0.95949 0.86931 0.5557 0.0
N927 N 0.99219 0.88852 0.43056 0.0
H928 H 0.36191 0.19274 0.04473 0.0
H929 H 0.36104 0.31284 0.25187 0.0
H930 H 0.35934 0.18408 0.21729 0.0
H931 H 0.35568 0.32153 0.07957 0.0
H932 H 0.3627 0.2655 0.23994 0.0
H933 H 0.36205 0.24016 0.05644 0.0
C934 C 0.36144 0.20076 0.08498 0.0
C935 C 0.36047 0.18435 0.12998 0.0
C936 C 0.36115 0.27782 0.20478 0.0
C937 C 0.36066 0.23852 0.14378 0.0
C938 C 0.36021 0.30485 0.21162 0.0
C939 C 0.3581 0.32125 0.16678 0.0
C940 C 0.3601 0.26713 0.15271 0.0
C941 C 0.35717 0.30973 0.11548 0.0
C942 C 0.36147 0.22782 0.0917 0.0
C943 C 0.35992 0.19588 0.18127 0.0
N944 N 0.35817 0.28347 0.10989 0.0
N945 N 0.36001 0.22217 0.18672 0.0
H946 H 0.31378 0.63982 0.79713 0.0
H947 H 0.19474 0.64663 1.00663 0.0
H948 H 0.32358 0.65203 0.96769 0.0
H949 H 0.18509 0.64372 0.83432 0.0
H950 H 0.24216 0.64622 0.99386 0.0
H951 H 0.26646 0.63892 0.81043 0.0
C952 C 0.30604 0.64234 0.83728 0.0
C953 C 0.32277 0.64608 0.88122 0.0
C954 C 0.2296 0.64566 0.9589 0.0
C955 C 0.26863 0.64497 0.89687 0.0
C956 C 0.20254 0.64584 0.96623 0.0
C957 C 0.18585 0.64537 0.92158 0.0
C958 C 0.24002 0.64479 0.90657 0.0
C959 C 0.19711 0.64434 0.87006 0.0
C960 C 0.27902 0.64182 0.84491 0.0
C961 C 0.31154 0.64915 0.93245 0.0
N962 N 0.22339 0.64408 0.86403 0.0
N963 N 0.28527 0.64851 0.93881 0.0
H964 H 0.64838 0.81263 0.04903 0.0
H965 H 0.64832 0.69215 0.25498 0.0
H966 H 0.65463 0.82146 0.22115 0.0
H967 H 0.65143 0.68401 0.08236 0.0
H968 H 0.64887 0.73963 0.24396 0.0
H969 H 0.64785 0.76532 0.06082 0.0
C970 C 0.6497 0.80467 0.08925 0.0
C971 C 0.65162 0.82112 0.13407 0.0
C972 C 0.64946 0.72739 0.20856 0.0
C973 C 0.65087 0.76692 0.14798 0.0
C974 C 0.6491 0.70029 0.21486 0.0
C975 C 0.6499 0.68399 0.16963 0.0
C976 C 0.65046 0.73826 0.15665 0.0
C977 C 0.65089 0.6957 0.11855 0.0
C978 C 0.64939 0.77763 0.096 0.0
C979 C 0.65321 0.80961 0.1853 0.0
N980 N 0.65111 0.72201 0.11351 0.0
N981 N 0.65274 0.78329 0.19083 0.0
H982 H 0.82199 0.35807 0.82727 0.0
H983 H 0.6829 0.3551 0.97071 0.0
H984 H 0.8121 0.36136 0.99948 0.0
H985 H 0.69275 0.36011 0.79866 0.0
H986 H 0.72996 0.35642 0.98177 0.0
H987 H 0.77492 0.35793 0.81631 0.0
C988 C 0.80994 0.35875 0.86297 0.0
C989 C 0.82115 0.35963 0.91455 0.0
C990 C 0.72189 0.35725 0.94158 0.0
C991 C 0.76685 0.35947 0.90192 0.0
C992 C 0.69493 0.35643 0.93507 0.0
C993 C 0.68372 0.3574 0.88349 0.0
C994 C 0.73799 0.35895 0.89625 0.0
C995 C 0.70046 0.35927 0.83912 0.0
C996 C 0.78297 0.35872 0.85652 0.0
C997 C 0.80439 0.36064 0.95901 0.0
N998 N 0.72676 0.35991 0.84653 0.0
N999 N 0.77808 0.36044 0.95166 0.0
H1000 H 0.86042 0.69421 0.54517 0.0
H1001 H 0.85885 0.81445 0.75192 0.0
H1002 H 0.85738 0.68531 0.71764 0.0
H1003 H 0.85267 0.82271 0.57965 0.0
H1004 H 0.86039 0.76703 0.7404 0.0
H1005 H 0.85976 0.74157 0.55704 0.0
C1006 C 0.85964 0.70216 0.58545 0.0
C1007 C 0.85886 0.68569 0.63036 0.0
C1008 C 0.85867 0.77929 0.70518 0.0
C1009 C 0.85816 0.73986 0.64436 0.0
C1010 C 0.8578 0.80635 0.71179 0.0
C1011 C 0.85553 0.82266 0.66681 0.0
C1012 C 0.85742 0.76848 0.65322 0.0
C1013 C 0.85431 0.81101 0.61566 0.0
C1014 C 0.85923 0.72921 0.59226 0.0
C1015 C 0.85789 0.69716 0.6817 0.0
N1016 N 0.85529 0.78474 0.61032 0.0
N1017 N 0.85758 0.72346 0.68725 0.0
H1018 H 0.82347 0.14782 0.46474 0.0
H1019 H 0.68372 0.15188 0.32366 0.0
H1020 H 0.8132 0.14646 0.29248 0.0
H1021 H 0.69475 0.14359 0.49489 0.0
H1022 H 0.7308 0.15107 0.31141 0.0
H1023 H 0.77647 0.14738 0.47601 0.0
C1024 C 0.81135 0.14746 0.42909 0.0
C1025 C 0.82243 0.14728 0.37742 0.0
C1026 C 0.72296 0.14939 0.35165 0.0
C1027 C 0.76817 0.14677 0.3904 0.0
C1028 C 0.69601 0.14993 0.35884 0.0
C1029 C 0.68514 0.14789 0.41056 0.0
C1030 C 0.73934 0.14693 0.39648 0.0
C1031 C 0.70218 0.14525 0.45433 0.0
C1032 C 0.78441 0.14714 0.43571 0.0
C1033 C 0.80556 0.14663 0.33302 0.0
N1034 N 0.72841 0.14492 0.44629 0.0
N1035 N 0.77926 0.1465 0.34053 0.0
H1036 H 0.14584 0.31259 0.54751 0.0
H1037 H 0.14661 0.19235 0.75375 0.0
H1038 H 0.15012 0.32126 0.71993 0.0
H1039 H 0.15247 0.1838 0.58152 0.0
H1040 H 0.14585 0.23971 0.7422 0.0
H1041 H 0.14606 0.26522 0.55905 0.0
C1042 C 0.14679 0.30458 0.58772 0.0
C1043 C 0.14805 0.32099 0.63272 0.0
C1044 C 0.14735 0.22743 0.70697 0.0
C1045 C 0.14826 0.26681 0.64631 0.0
C1046 C 0.14778 0.20039 0.71358 0.0
C1047 C 0.14968 0.18401 0.66863 0.0
C1048 C 0.14868 0.23818 0.65502 0.0
C1049 C 0.15108 0.19558 0.61747 0.0
C1050 C 0.14697 0.27753 0.59432 0.0
C1051 C 0.14924 0.30945 0.68394 0.0
N1052 N 0.15051 0.22188 0.6121 0.0
N1053 N 0.1493 0.28315 0.6893 0.0
H1054 H 0.32365 0.82524 0.36569 0.0
H1055 H 0.18901 0.90104 0.38597 0.0
H1056 H 0.31425 0.89004 0.47407 0.0
H1057 H 0.19437 0.81976 0.34414 0.0
H1058 H 0.23597 0.9011 0.40639 0.0
H1059 H 0.27704 0.8262 0.34677 0.0
C1060 C 0.31165 0.83956 0.38588 0.0
C1061 C 0.32272 0.8575 0.42173 0.0
C1062 C 0.2268 0.88335 0.39245 0.0
C1063 C 0.2694 0.85911 0.39922 0.0
C1064 C 0.20016 0.88338 0.38014 0.0
C1065 C 0.1879 0.86038 0.36306 0.0
C1066 C 0.2412 0.86029 0.3866 0.0
C1067 C 0.20309 0.8379 0.35713 0.0
C1068 C 0.28508 0.84011 0.375 0.0
C1069 C 0.30634 0.87569 0.44667 0.0
N1070 N 0.22893 0.83845 0.36865 0.0
N1071 N 0.28043 0.87625 0.43449 0.0
H1072 H 0.24011 0.11119 0.74021 0.0
H1073 H 0.26541 0.11383 0.05841 0.0
H1074 H 0.18008 0.09356 0.8561 0.0
H1075 H 0.32533 0.09453 0.94352 0.0
H1076 H 0.23354 0.11448 0.98422 0.0
H1077 H 0.27192 0.11301 0.81431 0.0
C1078 C 0.23356 0.10779 0.78097 0.0
C1079 C 0.20728 0.10225 0.79162 0.0
C1080 C 0.25376 0.11023 0.97554 0.0
C1081 C 0.24339 0.10487 0.87659 0.0
C1082 C 0.27192 0.10989 1.01783 0.0
C1083 C 0.29817 0.10414 1.0075 0.0
C1084 C 0.26202 0.10533 0.92249 0.0
C1085 C 0.30542 0.09918 0.9538 0.0
C1086 C 0.25169 0.10885 0.82325 0.0
C1087 C 0.20001 0.09806 0.84558 0.0
N1088 N 0.28757 0.10004 0.91351 0.0
N1089 N 0.21784 0.09961 0.88585 0.0
H1090 H 0.11571 0.73801 0.99495 0.0
H1091 H 0.09936 0.76375 0.31271 0.0
H1092 H 0.09155 0.67883 0.10768 0.0
H1093 H 0.10816 0.82457 0.19442 0.0
H1094 H 0.09883 0.73161 0.23916 0.0
H1095 H 0.11575 0.76977 0.06888 0.0
C1096 C 0.11043 0.73166 0.03499 0.0
C1097 C 0.10361 0.70564 0.0447 0.0
C1098 C 0.10087 0.75207 0.22955 0.0
C1099 C 0.10383 0.74178 0.12978 0.0
C1100 C 0.10112 0.7704 0.27157 0.0
C1101 C 0.10407 0.79699 0.26015 0.0
C1102 C 0.10364 0.76042 0.17581 0.0
C1103 C 0.10626 0.80437 0.20573 0.0
C1104 C 0.11044 0.74978 0.07727 0.0
C1105 C 0.09697 0.69861 0.0978 0.0
N1106 N 0.10611 0.7863 0.16595 0.0
N1107 N 0.09734 0.71645 0.1381 0.0
H1108 H 0.74069 0.89445 0.0581 0.0
H1109 H 0.76246 0.89449 0.73876 0.0
H1110 H 0.67957 0.91375 0.94568 0.0
H1111 H 0.82364 0.91274 0.85189 0.0
H1112 H 0.73135 0.89337 0.81428 0.0
H1113 H 0.77162 0.89311 0.98247 0.0
C1114 C 0.73372 0.89831 1.01779 0.0
C1115 C 0.7074 0.90416 1.00857 0.0
C1116 C 0.75169 0.89749 0.82224 0.0
C1117 C 0.74246 0.90206 0.92185 0.0
C1118 C 0.7694 0.89812 0.77918 0.0
C1119 C 0.79578 0.9037 0.78865 0.0
C1120 C 0.76054 0.90193 0.87511 0.0
C1121 C 0.80361 0.90823 0.84222 0.0
C1122 C 0.75134 0.89751 0.97465 0.0
C1123 C 0.69956 0.90896 0.95512 0.0
N1124 N 0.7862 0.90709 0.88319 0.0
N1125 N 0.71688 0.90764 0.91398 0.0
H1126 H 0.90677 0.32785 0.10381 0.0
H1127 H 0.91335 0.18028 0.18912 0.0
H1128 H 0.89367 0.26623 0.98895 0.0
H1129 H 0.89057 0.24005 0.30161 0.0
H1130 H 0.91016 0.21148 0.1162 0.0
H1131 H 0.9047 0.29639 0.17638 0.0
C1132 C 0.90329 0.30769 0.09359 0.0
C1133 C 0.90026 0.29983 0.03967 0.0
C1134 C 0.9057 0.21778 0.1567 0.0
C1135 C 0.89849 0.26333 0.12376 0.0
C1136 C 0.90753 0.19996 0.19876 0.0
C1137 C 0.90203 0.20737 0.25212 0.0
C1138 C 0.89897 0.24361 0.16766 0.0
C1139 C 0.89497 0.23337 0.26138 0.0
C1140 C 0.90209 0.28971 0.13543 0.0
C1141 C 0.89608 0.27326 0.02966 0.0
N1142 N 0.89389 0.25062 0.21963 0.0
N1143 N 0.89561 0.25591 0.07129 0.0
H1144 H 0.26718 0.38196 0.24409 0.0
H1145 H 0.24193 0.40724 0.55927 0.0
H1146 H 0.32114 0.42202 0.34868 0.0
H1147 H 0.18078 0.38726 0.44781 0.0
H1148 H 0.27317 0.40682 0.48419 0.0
H1149 H 0.23632 0.37912 0.31961 0.0
C1150 C 0.27255 0.3902 0.28261 0.0
C1151 C 0.29693 0.40211 0.28974 0.0
C1152 C 0.25287 0.4025 0.47626 0.0
C1153 C 0.26201 0.39848 0.37657 0.0
C1154 C 0.23514 0.40256 0.51919 0.0
C1155 C 0.20868 0.39775 0.50958 0.0
C1156 C 0.24409 0.39721 0.42362 0.0
C1157 C 0.20091 0.39175 0.45675 0.0
C1158 C 0.255 0.38848 0.3258 0.0
C1159 C 0.30277 0.41238 0.34093 0.0
N1160 N 0.21844 0.39169 0.41586 0.0
N1161 N 0.2856 0.41019 0.38215 0.0
H1162 H 0.41176 0.67858 0.69169 0.0
H1163 H 0.40881 0.82702 0.6098 0.0
H1164 H 0.39302 0.73884 0.80623 0.0
H1165 H 0.39468 0.7661 0.49382 0.0
H1166 H 0.40666 0.79525 0.68168 0.0
H1167 H 0.40918 0.7102 0.61944 0.0
C1168 C 0.40698 0.69847 0.70192 0.0
C1169 C 0.40247 0.70591 0.75565 0.0
C1170 C 0.40386 0.78879 0.64063 0.0
C1171 C 0.40003 0.74259 0.67198 0.0
C1172 C 0.40511 0.80695 0.59916 0.0
C1173 C 0.40179 0.79939 0.54513 0.0
C1174 C 0.39986 0.76251 0.62848 0.0
C1175 C 0.39733 0.77291 0.53463 0.0
C1176 C 0.40548 0.71653 0.66026 0.0
C1177 C 0.39664 0.73214 0.76568 0.0
N1178 N 0.39675 0.75538 0.5759 0.0
N1179 N 0.39582 0.74958 0.72428 0.0
H1180 H 0.74152 0.61381 0.23989 0.0
H1181 H 0.76639 0.61285 0.55867 0.0
H1182 H 0.68177 0.59397 0.35491 0.0
H1183 H 0.82697 0.59806 0.44238 0.0
H1184 H 0.73451 0.61376 0.48448 0.0
H1185 H 0.77317 0.61585 0.31428 0.0
C1186 C 0.735 0.60999 0.28052 0.0
C1187 C 0.70887 0.60371 0.29082 0.0
C1188 C 0.75488 0.61045 0.47551 0.0
C1189 C 0.74476 0.60653 0.37612 0.0
C1190 C 0.77304 0.60995 0.51782 0.0
C1191 C 0.79948 0.60538 0.50708 0.0
C1192 C 0.76333 0.60688 0.42211 0.0
C1193 C 0.80691 0.60176 0.45303 0.0
C1194 C 0.75304 0.61117 0.32296 0.0
C1195 C 0.70161 0.59899 0.34462 0.0
N1196 N 0.78905 0.60272 0.4128 0.0
N1197 N 0.71933 0.60063 0.38505 0.0
H1198 H 0.59983 0.24151 0.489 0.0
H1199 H 0.61972 0.26606 0.80624 0.0
H1200 H 0.61329 0.1796 0.60247 0.0
H1201 H 0.5856 0.32213 0.69779 0.0
H1202 H 0.62205 0.23486 0.73119 0.0
H1203 H 0.6002 0.27279 0.56402 0.0
C1204 C 0.60298 0.23452 0.52955 0.0
C1205 C 0.60602 0.20785 0.53958 0.0
C1206 C 0.61412 0.25407 0.72406 0.0
C1207 C 0.6066 0.24338 0.62555 0.0
C1208 C 0.61271 0.27184 0.76696 0.0
C1209 C 0.60256 0.29689 0.75869 0.0
C1210 C 0.6056 0.26152 0.6724 0.0
C1211 C 0.59381 0.30321 0.70653 0.0
C1212 C 0.60305 0.25231 0.57243 0.0
C1213 C 0.61015 0.19989 0.59305 0.0
N1214 N 0.59567 0.2858 0.66564 0.0
N1215 N 0.6103 0.21748 0.63389 0.0
H1216 H 0.29961 0.09448 0.51019 0.0
H1217 H 0.41062 0.12837 0.72564 0.0
H1218 H 0.37178 0.13304 0.46991 0.0
H1219 H 0.3335 0.10305 0.77058 0.0
H1220 H 0.39697 0.129 0.6315 0.0
H1221 H 0.31155 0.09686 0.60528 0.0
C1222 C 0.31784 0.10368 0.52114 0.0
C1223 C 0.33473 0.11343 0.48141 0.0
C1224 C 0.38297 0.1234 0.66192 0.0
C1225 C 0.34875 0.11576 0.59076 0.0
C1226 C 0.39081 0.12289 0.71574 0.0
C1227 C 0.37324 0.11556 0.75628 0.0
C1228 C 0.35737 0.11631 0.64807 0.0
C1229 C 0.34768 0.10904 0.74086 0.0
C1230 C 0.32472 0.10487 0.57559 0.0
C1231 C 0.35829 0.12475 0.4986 0.0
N1232 N 0.34058 0.10941 0.68807 0.0
N1233 N 0.36461 0.12546 0.5517 0.0
H1234 H 0.09644 0.70417 0.54089 0.0
H1235 H 0.12465 0.59129 0.32594 0.0
H1236 H 0.12557 0.62803 0.5829 0.0
H1237 H 0.10239 0.66932 0.28122 0.0
H1238 H 0.12452 0.60444 0.42025 0.0
H1239 H 0.09863 0.69209 0.4459 0.0
C1240 C 0.10351 0.68499 0.53033 0.0
C1241 C 0.11071 0.6671 0.57048 0.0
C1242 C 0.11974 0.61874 0.38985 0.0
C1243 C 0.11286 0.65297 0.46121 0.0
C1244 C 0.11964 0.61118 0.33586 0.0
C1245 C 0.11344 0.62915 0.29524 0.0
C1246 C 0.11349 0.64449 0.40381 0.0
C1247 C 0.10756 0.65481 0.31088 0.0
C1248 C 0.10458 0.67805 0.47593 0.0
C1249 C 0.11932 0.64239 0.55382 0.0
N1250 N 0.10763 0.66166 0.3638 0.0
N1251 N 0.12007 0.63608 0.50072 0.0
H1252 H 0.6423 0.93399 0.48048 0.0
H1253 H 0.657 0.85898 0.76149 0.0
H1254 H 0.6954 0.86995 0.50373 0.0
H1255 H 0.61233 0.92941 0.74049 0.0
H1256 H 0.67074 0.86185 0.66749 0.0
H1257 H 0.63029 0.93154 0.57521 0.0
C1258 C 0.65138 0.9193 0.50543 0.0
C1259 C 0.6698 0.90204 0.48374 0.0
C1260 C 0.65793 0.87666 0.68352 0.0
C1261 C 0.65617 0.89922 0.5931 0.0
C1262 C 0.65014 0.87513 0.73741 0.0
C1263 C 0.63329 0.89391 0.75941 0.0
C1264 C 0.6488 0.89708 0.65101 0.0
C1265 C 0.62486 0.91414 0.72549 0.0
C1266 C 0.64461 0.91801 0.55975 0.0
C1267 C 0.68124 0.88377 0.51861 0.0
N1268 N 0.63263 0.91513 0.67325 0.0
N1269 N 0.67415 0.88275 0.57139 0.0
H1270 H 0.85743 0.35729 0.28916 0.0
H1271 H 0.93632 0.36182 0.56711 0.0
H1272 H 0.93406 0.39098 0.30645 0.0
H1273 H 0.8659 0.31707 0.54612 0.0
H1274 H 0.93472 0.37395 0.47232 0.0
H1275 H 0.85926 0.34335 0.38315 0.0
C1276 C 0.87471 0.36168 0.31243 0.0
C1277 C 0.89558 0.37552 0.28941 0.0
C1278 C 0.91961 0.36143 0.48829 0.0
C1279 C 0.8976 0.35982 0.39776 0.0
C1280 C 0.92043 0.3546 0.54261 0.0
C1281 C 0.90113 0.3385 0.56491 0.0
C1282 C 0.89923 0.35229 0.45561 0.0
C1283 C 0.88129 0.32939 0.5307 0.0
C1284 C 0.87566 0.35378 0.3663 0.0
C1285 C 0.91724 0.38088 0.32229 0.0
N1286 N 0.88076 0.33652 0.47792 0.0
N1287 N 0.91763 0.3731 0.37456 0.0
H1288 H 0.39969 0.42664 0.56522 0.0
H1289 H 0.30166 0.37439 0.7914 0.0
H1290 H 0.34322 0.36597 0.53526 0.0
H1291 H 0.36957 0.42112 0.82543 0.0
H1292 H 0.31398 0.37378 0.6961 0.0
H1293 H 0.38662 0.4272 0.65933 0.0
C1294 C 0.3847 0.41324 0.57829 0.0
C1295 C 0.37277 0.39607 0.54174 0.0
C1296 C 0.32619 0.38412 0.72449 0.0
C1297 C 0.35721 0.39709 0.65017 0.0
C1298 C 0.31909 0.3846 0.77886 0.0
C1299 C 0.33466 0.39771 0.81667 0.0
C1300 C 0.34887 0.39711 0.70758 0.0
C1301 C 0.35716 0.41044 0.798 0.0
C1302 C 0.37711 0.41372 0.6322 0.0
C1303 C 0.35287 0.37976 0.56143 0.0
N1304 N 0.36351 0.40987 0.74495 0.0
N1305 N 0.34574 0.38069 0.61415 0.0
H1306 H 0.41574 0.70371 0.25994 0.0
H1307 H 0.38311 0.59172 0.47412 0.0
H1308 H 0.38181 0.62955 0.21762 0.0
H1309 H 0.40622 0.66942 0.51971 0.0
H1310 H 0.38382 0.605 0.37981 0.0
H1311 H 0.4131 0.69156 0.35485 0.0
C1312 C 0.40753 0.68497 0.2704 0.0
C1313 C 0.39909 0.66764 0.23018 0.0
C1314 C 0.38867 0.61919 0.4104 0.0
C1315 C 0.39642 0.65341 0.33936 0.0
C1316 C 0.38842 0.61157 0.46436 0.0
C1317 C 0.39467 0.62942 0.50517 0.0
C1318 C 0.3954 0.64488 0.3967 0.0
C1319 C 0.401 0.65502 0.48982 0.0
C1320 C 0.40618 0.67798 0.32476 0.0
C1321 C 0.38904 0.64343 0.24673 0.0
N1322 N 0.40132 0.66192 0.43693 0.0
N1323 N 0.38809 0.63705 0.29978 0.0
H1324 H 0.63344 0.6309 0.83023 0.0
H1325 H 0.67425 0.60189 0.52499 0.0
H1326 H 0.70536 0.59288 0.78673 0.0
H1327 H 0.59738 0.62653 0.57287 0.0
H1328 H 0.68766 0.60228 0.61952 0.0
H1329 H 0.62159 0.63294 0.73541 0.0
C1330 C 0.64676 0.62286 0.80089 0.0
C1331 C 0.67039 0.61144 0.81704 0.0
C1332 C 0.66787 0.60762 0.60932 0.0
C1333 C 0.65698 0.61416 0.70749 0.0
C1334 C 0.66023 0.60757 0.55528 0.0
C1335 C 0.63458 0.61412 0.54076 0.0
C1336 C 0.64983 0.61447 0.64935 0.0
C1337 C 0.61723 0.62101 0.58204 0.0
C1338 C 0.63999 0.62417 0.74655 0.0
C1339 C 0.68705 0.60205 0.77654 0.0
N1340 N 0.62516 0.62102 0.63425 0.0
N1341 N 0.68 0.60355 0.7238 0.0
H1342 H 0.6422 0.34492 0.51345 0.0
H1343 H 0.5762 0.36631 0.22499 0.0
H1344 H 0.57623 0.39524 0.48572 0.0
H1345 H 0.63266 0.30601 0.25578 0.0
H1346 H 0.57751 0.3783 0.31988 0.0
H1347 H 0.64029 0.33129 0.41929 0.0
C1348 C 0.62722 0.35304 0.48784 0.0
C1349 C 0.60942 0.37142 0.50798 0.0
C1350 C 0.58961 0.36241 0.30604 0.0
C1351 C 0.6074 0.35606 0.39948 0.0
C1352 C 0.58899 0.35564 0.25169 0.0
C1353 C 0.60447 0.33521 0.23216 0.0
C1354 C 0.60598 0.34881 0.3415 0.0
C1355 C 0.62029 0.3218 0.26904 0.0
C1356 C 0.62624 0.3453 0.43389 0.0
C1357 C 0.59073 0.38146 0.47219 0.0
N1358 N 0.62076 0.32892 0.32182 0.0
N1359 N 0.59028 0.37372 0.41991 0.0
H1360 H 0.80223 0.59399 1.01069 0.0
H1361 H 0.91328 0.62903 0.22539 0.0
H1362 H 0.87484 0.63139 0.96918 0.0
H1363 H 0.836 0.60437 0.27073 0.0
H1364 H 0.89982 0.62874 0.13113 0.0
H1365 H 0.81419 0.59694 0.10567 0.0
C1366 C 0.82058 0.60304 1.02134 0.0
C1367 C 0.83756 0.61232 0.98131 0.0
C1368 C 0.88575 0.62348 0.16165 0.0
C1369 C 0.85161 0.61532 0.09057 0.0
C1370 C 0.89348 0.62349 0.21556 0.0
C1371 C 0.87581 0.61664 0.25626 0.0
C1372 C 0.86016 0.61634 0.14791 0.0
C1373 C 0.85027 0.61002 0.2409 0.0
C1374 C 0.82746 0.60457 0.07574 0.0
C1375 C 0.86127 0.62346 0.99812 0.0
N1376 N 0.84327 0.60989 0.18805 0.0
N1377 N 0.86759 0.62452 0.05121 0.0
H1378 H 0.61348 0.09331 0.82363 0.0
H1379 H 0.61238 0.21063 0.03688 0.0
H1380 H 0.61237 0.17436 0.77815 0.0
H1381 H 0.60825 0.12949 0.08117 0.0
H1382 H 0.61401 0.19784 0.94224 0.0
H1383 H 0.61375 0.10629 0.91814 0.0
C1384 C 0.6135 0.11385 0.8334 0.0
C1385 C 0.61287 0.13272 0.79253 0.0
C1386 C 0.61281 0.18283 0.97269 0.0
C1387 C 0.6129 0.14779 0.90129 0.0
C1388 C 0.61174 0.19013 0.02687 0.0
C1389 C 0.61015 0.17116 0.06751 0.0
C1390 C 0.6123 0.15633 0.95865 0.0
C1391 C 0.60985 0.14487 0.05164 0.0
C1392 C 0.61348 0.12126 0.88752 0.0
C1393 C 0.61251 0.15907 0.80805 0.0
N1394 N 0.61086 0.13828 0.99868 0.0
N1395 N 0.61253 0.16578 0.86102 0.0
H1396 H 0.17365 0.38841 0.27264 0.0
H1397 H 0.12753 0.40474 0.96649 0.0
H1398 H 0.09377 0.40091 0.22519 0.0
H1399 H 0.20677 0.38739 1.01219 0.0
H1400 H 0.11495 0.40326 0.06094 0.0
H1401 H 0.18628 0.38824 0.17788 0.0
C1402 C 0.15875 0.3912 0.24237 0.0
C1403 C 0.13256 0.39474 0.25718 0.0
C1404 C 0.13509 0.3997 0.05037 0.0
C1405 C 0.14695 0.39439 0.14816 0.0
C1406 C 0.1423 0.40037 0.99624 0.0
C1407 C 0.1683 0.39608 0.98093 0.0
C1408 C 0.15396 0.39479 0.08999 0.0
C1409 C 0.18657 0.39111 1.02184 0.0
C1410 C 0.16598 0.39096 0.18816 0.0
C1411 C 0.11412 0.39782 0.21589 0.0
N1412 N 0.17906 0.39062 0.07434 0.0
N1413 N 0.12167 0.39767 0.16345 0.0
H1414 H 0.41429 0.80169 0.04059 0.0
H1415 H 0.38401 0.91441 0.8268 0.0
H1416 H 0.38123 0.87614 0.08305 0.0
H1417 H 0.40453 0.83612 0.78077 0.0
H1418 H 0.38424 0.90096 0.92105 0.0
H1419 H 0.41159 0.81386 0.9457 0.0
C1420 C 0.40625 0.8205 0.03018 0.0
C1421 C 0.39811 0.83791 0.07046 0.0
C1422 C 0.38861 0.88667 0.89038 0.0
C1423 C 0.39541 0.85217 0.96126 0.0
C1424 C 0.38864 0.89439 0.83647 0.0
C1425 C 0.39433 0.87642 0.79556 0.0
C1426 C 0.39454 0.86078 0.90394 0.0
C1427 C 0.39979 0.85062 0.81076 0.0
C1428 C 0.40487 0.82749 0.97582 0.0
C1429 C 0.38826 0.86219 0.05392 0.0
N1430 N 0.3999 0.84363 0.86361 0.0
N1431 N 0.38731 0.86859 1.00086 0.0
H1432 H 0.87096 0.87706 0.32783 0.0
H1433 H 0.82954 0.90439 1.02218 0.0
H1434 H 0.79824 0.91349 0.28392 0.0
H1435 H 0.90707 0.88213 0.07081 0.0
H1436 H 0.8161 0.90393 0.11667 0.0
H1437 H 0.88284 0.87516 0.23309 0.0
C1438 C 0.85747 0.88478 0.29843 0.0
C1439 C 0.8336 0.89573 0.31444 0.0
C1440 C 0.83604 0.89912 0.10664 0.0
C1441 C 0.84707 0.89314 0.20495 0.0
C1442 C 0.84371 0.89922 0.05263 0.0
C1443 C 0.86955 0.89336 0.03834 0.0
C1444 C 0.85425 0.89291 0.14685 0.0
C1445 C 0.88707 0.88711 0.0798 0.0
C1446 C 0.86426 0.88354 0.24412 0.0
C1447 C 0.81674 0.9047 0.27384 0.0
N1448 N 0.8791 0.88702 0.13196 0.0
N1449 N 0.82382 0.90327 0.22112 0.0
H1450 H 0.86041 0.15439 1.00509 0.0
H1451 H 0.93454 0.14272 0.72276 0.0
H1452 H 0.93303 0.11342 0.98328 0.0
H1453 H 0.86911 0.19391 0.74766 0.0
H1454 H 0.93304 0.13063 0.81756 0.0
H1455 H 0.86226 0.16823 0.91105 0.0
C1456 C 0.87683 0.14837 0.98082 0.0
C1457 C 0.89654 0.13253 1.0026 0.0
C1458 C 0.91901 0.14455 0.80245 0.0
C1459 C 0.89853 0.14812 0.89417 0.0
C1460 C 0.91976 0.15136 0.74812 0.0
C1461 C 0.90182 0.16926 0.7269 0.0
C1462 C 0.90008 0.15554 0.83625 0.0
C1463 C 0.88343 0.18016 0.7622 0.0
C1464 C 0.87778 0.15622 0.92692 0.0
C1465 C 0.91707 0.12514 0.96845 0.0
N1466 N 0.88294 0.17303 0.81499 0.0
N1467 N 0.91747 0.13292 0.91619 0.0
H1468 H 0.11115 0.07336 0.05979 0.0
H1469 H 0.19485 0.13707 0.29851 0.0
H1470 H 0.15394 0.14523 0.04182 0.0
H1471 H 0.142 0.07254 0.3196 0.0
H1472 H 0.18282 0.1388 0.20309 0.0
H1473 H 0.12453 0.07151 0.15369 0.0
C1474 C 0.12318 0.08892 0.07553 0.0
C1475 C 0.13117 0.10962 0.04244 0.0
C1476 C 0.17386 0.12427 0.22865 0.0
C1477 C 0.1471 0.10729 0.15061 0.0
C1478 C 0.18084 0.12318 0.28308 0.0
C1479 C 0.16933 0.10473 0.31739 0.0
C1480 C 0.1554 0.10664 0.2081 0.0
C1481 C 0.1511 0.08737 0.29506 0.0
C1482 C 0.13099 0.08773 0.12928 0.0
C1483 C 0.14742 0.12875 0.06533 0.0
N1484 N 0.14476 0.08874 0.24204 0.0
N1485 N 0.1548 0.12713 0.11787 0.0
H1486 H 0.10733 0.79843 0.76332 0.0
H1487 H 0.11028 0.91572 0.97672 0.0
H1488 H 0.11989 0.87879 0.7196 0.0
H1489 H 0.10853 0.83479 1.02278 0.0
H1490 H 0.11189 0.90257 0.88229 0.0
H1491 H 0.10618 0.8113 0.85795 0.0
C1492 C 0.10999 0.81876 0.77337 0.0
C1493 C 0.11372 0.83747 0.73275 0.0
C1494 C 0.11119 0.88766 0.913 0.0
C1495 C 0.11204 0.85244 0.84189 0.0
C1496 C 0.11014 0.89517 0.96708 0.0
C1497 C 0.10925 0.87639 1.00816 0.0
C1498 C 0.11118 0.8611 0.89936 0.0
C1499 C 0.10949 0.85002 0.99278 0.0
C1500 C 0.10919 0.82611 0.82763 0.0
C1501 C 0.11654 0.8636 0.74893 0.0
N1502 N 0.11033 0.84319 0.93982 0.0
N1503 N 0.11562 0.87025 0.80193 0.0
loop_
_geom_bond_atom_site_label_1
_geom_bond_atom_site_label_2
_geom_bond_distance
_geom_bond_site_symmetry_2
_ccdc_geom_bond_type
Tb0 C9 2.764 1_554 S
Tb0 O10 2.325 . S
Tb0 O13 2.303 . S
Tb0 O17 2.322 . S
Tb0 O18 2.349 . S
Tb0 O21 2.415 1_554 S
Tb0 O22 2.399 1_554 S
Tb1 O11 2.322 . S
Tb1 O12 2.349 . S
Tb1 O14 2.415 . S
Tb1 O15 2.399 . S
Tb1 O16 2.325 . S
Tb1 O19 2.303 . S
Tb1 C30 2.764 . S
C2 O18 1.261 . S
C2 O19 1.257 . S
C3 C6 1.358 . S
C3 C7 1.332 . S
C3 C9 1.504 . S
C4 C5 1.373 . S
C4 C8 1.308 . S
C5 C4 1.373 . S
C5 C6 1.429 . S
C5 H32 0.932 . S
C6 C3 1.358 . S
C6 C5 1.429 . S
C6 H33 0.930 . S
C7 C3 1.332 . S
C7 C8 1.394 . S
C7 H34 0.932 . S
C8 C4 1.308 . S
C8 C7 1.394 . S
C8 H35 0.929 . S
C9 Tb0 2.764 1_556 S
C9 C3 1.504 . S
C9 O21 1.239 . S
C9 O22 1.263 . S
O10 Tb0 2.325 . S
O10 C20 1.236 . S
O11 Tb1 2.322 . S
O11 C20 1.257 . S
O12 Tb1 2.349 . S
O12 C23 1.261 . S
O13 Tb0 2.303 . S
O13 C23 1.257 . S
O14 Tb1 2.415 . S
O14 C30 1.239 . S
O15 Tb1 2.399 . S
O15 C30 1.263 . S
O16 Tb1 2.325 . S
O16 C31 1.236 . S
O17 Tb0 2.322 . S
O17 C31 1.257 . S
O18 Tb0 2.349 . S
O18 C2 1.261 . S
O19 Tb1 2.303 . S
O19 C2 1.257 . S
C20 O10 1.236 . S
C20 O11 1.257 . S
O21 Tb0 2.415 1_556 S
O21 C9 1.239 . S
O22 Tb0 2.399 1_556 S
O22 C9 1.263 . S
C23 O12 1.261 . S
C23 O13 1.257 . S
C24 C27 1.358 . S
C24 C28 1.332 . S
C24 C30 1.504 . S
C25 C26 1.373 . S
C25 C29 1.308 . S
C26 C25 1.373 . S
C26 C27 1.429 . S
C26 H36 0.932 . S
C27 C24 1.358 . S
C27 C26 1.429 . S
C27 H37 0.930 . S
C28 C24 1.332 . S
C28 C29 1.394 . S
C28 H38 0.932 . S
C29 C25 1.308 . S
C29 C28 1.394 . S
C29 H39 0.929 . S
C30 Tb1 2.764 . S
C30 O14 1.239 . S
C30 O15 1.263 . S
C30 C24 1.504 . S
C31 O16 1.236 . S
C31 O17 1.257 . S
H32 C5 0.932 . S
H33 C6 0.930 . S
H34 C7 0.932 . S
H35 C8 0.929 . S
H36 C26 0.932 . S
H37 C27 0.930 . S
H38 C28 0.932 . S
H39 C29 0.929 . S
Tb40 C49 2.764 . S
Tb40 O50 2.325 . S
Tb40 O53 2.303 . S
Tb40 O57 2.322 . S
Tb40 O58 2.349 . S
Tb40 O61 2.415 . S
Tb40 O62 2.399 . S
Tb41 O51 2.322 . S
Tb41 O52 2.349 . S
Tb41 O54 2.415 1_556 S
Tb41 O55 2.399 1_556 S
Tb41 O56 2.325 . S
Tb41 O59 2.303 . S
Tb41 C70 2.764 1_556 S
C42 O58 1.261 . S
C42 O59 1.257 . S
C43 C46 1.358 . S
C43 C47 1.332 . S
C43 C49 1.504 . S
C44 C45 1.373 . S
C44 C48 1.308 . S
C45 C44 1.373 . S
C45 C46 1.429 . S
C45 H72 0.932 . S
C46 C43 1.358 . S
C46 C45 1.429 . S
C46 H73 0.930 . S
C47 C43 1.332 . S
C47 C48 1.394 . S
C47 H74 0.932 . S
C48 C44 1.308 . S
C48 C47 1.394 . S
C48 H75 0.929 . S
C49 Tb40 2.764 . S
C49 C43 1.504 . S
C49 O61 1.239 . S
C49 O62 1.263 . S
O50 Tb40 2.325 . S
O50 C60 1.236 . S
O51 Tb41 2.322 . S
O51 C60 1.257 . S
O52 Tb41 2.349 . S
O52 C63 1.261 . S
O53 Tb40 2.303 . S
O53 C63 1.257 . S
O54 Tb41 2.415 1_554 S
O54 C70 1.239 . S
O55 Tb41 2.399 1_554 S
O55 C70 1.263 . S
O56 Tb41 2.325 . S
O56 C71 1.236 . S
O57 Tb40 2.322 . S
O57 C71 1.257 . S
O58 Tb40 2.349 . S
O58 C42 1.261 . S
O59 Tb41 2.303 . S
O59 C42 1.257 . S
C60 O50 1.236 . S
C60 O51 1.257 . S
O61 Tb40 2.415 . S
O61 C49 1.239 . S
O62 Tb40 2.399 . S
O62 C49 1.263 . S
C63 O52 1.261 . S
C63 O53 1.257 . S
C64 C67 1.358 . S
C64 C68 1.332 . S
C64 C70 1.504 . S
C65 C66 1.373 . S
C65 C69 1.308 . S
C66 C65 1.373 . S
C66 C67 1.429 . S
C66 H76 0.932 . S
C67 C64 1.358 . S
C67 C66 1.429 . S
C67 H77 0.930 . S
C68 C64 1.332 . S
C68 C69 1.394 . S
C68 H78 0.932 . S
C69 C65 1.308 . S
C69 C68 1.394 . S
C69 H79 0.929 . S
C70 Tb41 2.764 1_554 S
C70 O54 1.239 . S
C70 O55 1.263 . S
C70 C64 1.504 . S
C71 O56 1.236 . S
C71 O57 1.257 . S
H72 C45 0.932 . S
H73 C46 0.930 . S
H74 C47 0.932 . S
H75 C48 0.929 . S
H76 C66 0.932 . S
H77 C67 0.930 . S
H78 C68 0.932 . S
H79 C69 0.929 . S
Tb80 C89 2.764 1_554 S
Tb80 O90 2.325 . S
Tb80 O93 2.303 . S
Tb80 O97 2.322 . S
Tb80 O98 2.349 . S
Tb80 O101 2.415 1_554 S
Tb80 O102 2.399 1_554 S
Tb81 O91 2.322 . S
Tb81 O92 2.349 . S
Tb81 O94 2.415 . S
Tb81 O95 2.399 . S
Tb81 O96 2.325 . S
Tb81 O99 2.303 . S
Tb81 C110 2.764 . S
C82 O98 1.261 . S
C82 O99 1.257 . S
C83 C86 1.358 . S
C83 C87 1.332 . S
C83 C89 1.504 . S
C84 C85 1.373 . S
C84 C88 1.308 . S
C85 C84 1.373 . S
C85 C86 1.429 . S
C85 H112 0.932 . S
C86 C83 1.358 . S
C86 C85 1.429 . S
C86 H113 0.930 . S
C87 C83 1.332 . S
C87 C88 1.394 . S
C87 H114 0.932 . S
C88 C84 1.308 . S
C88 C87 1.394 . S
C88 H115 0.929 . S
C89 Tb80 2.764 1_556 S
C89 C83 1.504 . S
C89 O101 1.239 . S
C89 O102 1.263 . S
O90 Tb80 2.325 . S
O90 C100 1.236 . S
O91 Tb81 2.322 . S
O91 C100 1.257 . S
O92 Tb81 2.349 . S
O92 C103 1.261 . S
O93 Tb80 2.303 . S
O93 C103 1.257 . S
O94 Tb81 2.415 . S
O94 C110 1.239 . S
O95 Tb81 2.399 . S
O95 C110 1.263 . S
O96 Tb81 2.325 . S
O96 C111 1.236 . S
O97 Tb80 2.322 . S
O97 C111 1.257 . S
O98 Tb80 2.349 . S
O98 C82 1.261 . S
O99 Tb81 2.303 . S
O99 C82 1.257 . S
C100 O90 1.236 . S
C100 O91 1.257 . S
O101 Tb80 2.415 1_556 S
O101 C89 1.239 . S
O102 Tb80 2.399 1_556 S
O102 C89 1.263 . S
C103 O92 1.261 . S
C103 O93 1.257 . S
C104 C107 1.358 . S
C104 C108 1.332 . S
C104 C110 1.504 . S
C105 C106 1.373 . S
C105 C109 1.308 . S
C106 C105 1.373 . S
C106 C107 1.429 . S
C106 H116 0.932 . S
C107 C104 1.358 . S
C107 C106 1.429 . S
C107 H117 0.930 . S
C108 C104 1.332 . S
C108 C109 1.394 . S
C108 H118 0.932 . S
C109 C105 1.308 . S
C109 C108 1.394 . S
C109 H119 0.929 . S
C110 Tb81 2.764 . S
C110 O94 1.239 . S
C110 O95 1.263 . S
C110 C104 1.504 . S
C111 O96 1.236 . S
C111 O97 1.257 . S
H112 C85 0.932 . S
H113 C86 0.930 . S
H114 C87 0.932 . S
H115 C88 0.929 . S
H116 C106 0.932 . S
H117 C107 0.930 . S
H118 C108 0.932 . S
H119 C109 0.929 . S
Tb120 C129 2.764 . S
Tb120 O130 2.325 . S
Tb120 O133 2.303 . S
Tb120 O137 2.322 . S
Tb120 O138 2.349 . S
Tb120 O141 2.415 . S
Tb120 O142 2.399 . S
Tb121 O131 2.322 . S
Tb121 O132 2.349 . S
Tb121 O134 2.415 1_556 S
Tb121 O135 2.399 1_556 S
Tb121 O136 2.325 . S
Tb121 O139 2.303 . S
Tb121 C150 2.764 1_556 S
C122 O138 1.261 . S
C122 O139 1.257 . S
C123 C126 1.358 . S
C123 C127 1.332 . S
C123 C129 1.504 . S
C124 C125 1.373 . S
C124 C128 1.308 . S
C125 C124 1.373 . S
C125 C126 1.429 . S
C125 H152 0.932 . S
C126 C123 1.358 . S
C126 C125 1.429 . S
C126 H153 0.930 . S
C127 C123 1.332 . S
C127 C128 1.394 . S
C127 H154 0.932 . S
C128 C124 1.308 . S
C128 C127 1.394 . S
C128 H155 0.929 . S
C129 Tb120 2.764 . S
C129 C123 1.504 . S
C129 O141 1.239 . S
C129 O142 1.263 . S
O130 Tb120 2.325 . S
O130 C140 1.236 . S
O131 Tb121 2.322 . S
O131 C140 1.257 . S
O132 Tb121 2.349 . S
O132 C143 1.261 . S
O133 Tb120 2.303 . S
O133 C143 1.257 . S
O134 Tb121 2.415 1_554 S
O134 C150 1.239 . S
O135 Tb121 2.399 1_554 S
O135 C150 1.263 . S
O136 Tb121 2.325 . S
O136 C151 1.236 . S
O137 Tb120 2.322 . S
O137 C151 1.257 . S
O138 Tb120 2.349 . S
O138 C122 1.261 . S
O139 Tb121 2.303 . S
O139 C122 1.257 . S
C140 O130 1.236 . S
C140 O131 1.257 . S
O141 Tb120 2.415 . S
O141 C129 1.239 . S
O142 Tb120 2.399 . S
O142 C129 1.263 . S
C143 O132 1.261 . S
C143 O133 1.257 . S
C144 C147 1.358 . S
C144 C148 1.332 . S
C144 C150 1.504 . S
C145 C146 1.373 . S
C145 C149 1.308 . S
C146 C145 1.373 . S
C146 C147 1.429 . S
C146 H156 0.932 . S
C147 C144 1.358 . S
C147 C146 1.429 . S
C147 H157 0.930 . S
C148 C144 1.332 . S
C148 C149 1.394 . S
C148 H158 0.932 . S
C149 C145 1.308 . S
C149 C148 1.394 . S
C149 H159 0.929 . S
C150 Tb121 2.764 1_554 S
C150 O134 1.239 . S
C150 O135 1.263 . S
C150 C144 1.504 . S
C151 O136 1.236 . S
C151 O137 1.257 . S
H152 C125 0.932 . S
H153 C126 0.930 . S
H154 C127 0.932 . S
H155 C128 0.929 . S
H156 C146 0.932 . S
H157 C147 0.930 . S
H158 C148 0.932 . S
H159 C149 0.929 . S
Tb160 C169 2.764 . S
Tb160 O170 2.325 . S
Tb160 O173 2.303 . S
Tb160 O177 2.322 . S
Tb160 O178 2.349 . S
Tb160 O181 2.415 . S
Tb160 O182 2.399 . S
Tb161 O171 2.322 . S
Tb161 O172 2.349 . S
Tb161 O174 2.415 1_554 S
Tb161 O175 2.399 1_554 S
Tb161 O176 2.325 . S
Tb161 O179 2.303 . S
Tb161 C190 2.764 1_554 S
C162 O178 1.261 . S
C162 O179 1.257 . S
C163 C166 1.358 . S
C163 C167 1.332 . S
C163 C169 1.504 . S
C164 C165 1.373 . S
C164 C168 1.308 . S
C165 C164 1.373 . S
C165 C166 1.429 . S
C165 H192 0.932 . S
C166 C163 1.358 . S
C166 C165 1.429 . S
C166 H193 0.930 . S
C167 C163 1.332 . S
C167 C168 1.394 . S
C167 H194 0.932 . S
C168 C164 1.308 . S
C168 C167 1.394 . S
C168 H195 0.929 . S
C169 Tb160 2.764 . S
C169 C163 1.504 . S
C169 O181 1.239 . S
C169 O182 1.263 . S
O170 Tb160 2.325 . S
O170 C180 1.236 . S
O171 Tb161 2.322 . S
O171 C180 1.257 . S
O172 Tb161 2.349 . S
O172 C183 1.261 . S
O173 Tb160 2.303 . S
O173 C183 1.257 . S
O174 Tb161 2.415 1_556 S
O174 C190 1.239 . S
O175 Tb161 2.399 1_556 S
O175 C190 1.263 . S
O176 Tb161 2.325 . S
O176 C191 1.236 . S
O177 Tb160 2.322 . S
O177 C191 1.257 . S
O178 Tb160 2.349 . S
O178 C162 1.261 . S
O179 Tb161 2.303 . S
O179 C162 1.257 . S
C180 O170 1.236 . S
C180 O171 1.257 . S
O181 Tb160 2.415 . S
O181 C169 1.239 . S
O182 Tb160 2.399 . S
O182 C169 1.263 . S
C183 O172 1.261 . S
C183 O173 1.257 . S
C184 C187 1.358 . S
C184 C188 1.332 . S
C184 C190 1.504 . S
C185 C186 1.373 . S
C185 C189 1.308 . S
C186 C185 1.373 . S
C186 C187 1.429 . S
C186 H196 0.932 . S
C187 C184 1.358 . S
C187 C186 1.429 . S
C187 H197 0.930 . S
C188 C184 1.332 . S
C188 C189 1.394 . S
C188 H198 0.932 . S
C189 C185 1.308 . S
C189 C188 1.394 . S
C189 H199 0.929 . S
C190 Tb161 2.764 1_556 S
C190 O174 1.239 . S
C190 O175 1.263 . S
C190 C184 1.504 . S
C191 O176 1.236 . S
C191 O177 1.257 . S
H192 C165 0.932 . S
H193 C166 0.930 . S
H194 C167 0.932 . S
H195 C168 0.929 . S
H196 C186 0.932 . S
H197 C187 0.930 . S
H198 C188 0.932 . S
H199 C189 0.929 . S
Tb200 C209 2.764 1_556 S
Tb200 O210 2.325 . S
Tb200 O213 2.303 . S
Tb200 O217 2.322 . S
Tb200 O218 2.349 . S
Tb200 O221 2.415 1_556 S
Tb200 O222 2.399 1_556 S
Tb201 O211 2.322 . S
Tb201 O212 2.349 . S
Tb201 O214 2.415 . S
Tb201 O215 2.399 . S
Tb201 O216 2.325 . S
Tb201 O219 2.303 . S
Tb201 C230 2.764 . S
C202 O218 1.261 . S
C202 O219 1.257 . S
C203 C206 1.358 . S
C203 C207 1.332 . S
C203 C209 1.504 . S
C204 C205 1.373 . S
C204 C208 1.308 . S
C205 C204 1.373 . S
C205 C206 1.429 . S
C205 H232 0.932 . S
C206 C203 1.358 . S
C206 C205 1.429 . S
C206 H233 0.930 . S
C207 C203 1.332 . S
C207 C208 1.394 . S
C207 H234 0.932 . S
C208 C204 1.308 . S
C208 C207 1.394 . S
C208 H235 0.929 . S
C209 Tb200 2.764 1_554 S
C209 C203 1.504 . S
C209 O221 1.239 . S
C209 O222 1.263 . S
O210 Tb200 2.325 . S
O210 C220 1.236 . S
O211 Tb201 2.322 . S
O211 C220 1.257 . S
O212 Tb201 2.349 . S
O212 C223 1.261 . S
O213 Tb200 2.303 . S
O213 C223 1.257 . S
O214 Tb201 2.415 . S
O214 C230 1.239 . S
O215 Tb201 2.399 . S
O215 C230 1.263 . S
O216 Tb201 2.325 . S
O216 C231 1.236 . S
O217 Tb200 2.322 . S
O217 C231 1.257 . S
O218 Tb200 2.349 . S
O218 C202 1.261 . S
O219 Tb201 2.303 . S
O219 C202 1.257 . S
C220 O210 1.236 . S
C220 O211 1.257 . S
O221 Tb200 2.415 1_554 S
O221 C209 1.239 . S
O222 Tb200 2.399 1_554 S
O222 C209 1.263 . S
C223 O212 1.261 . S
C223 O213 1.257 . S
C224 C227 1.358 . S
C224 C228 1.332 . S
C224 C230 1.504 . S
C225 C226 1.373 . S
C225 C229 1.308 . S
C226 C225 1.373 . S
C226 C227 1.429 . S
C226 H236 0.932 . S
C227 C224 1.358 . S
C227 C226 1.429 . S
C227 H237 0.930 . S
C228 C224 1.332 . S
C228 C229 1.394 . S
C228 H238 0.932 . S
C229 C225 1.308 . S
C229 C228 1.394 . S
C229 H239 0.929 . S
C230 Tb201 2.764 . S
C230 O214 1.239 . S
C230 O215 1.263 . S
C230 C224 1.504 . S
C231 O216 1.236 . S
C231 O217 1.257 . S
H232 C205 0.932 . S
H233 C206 0.930 . S
H234 C207 0.932 . S
H235 C208 0.929 . S
H236 C226 0.932 . S
H237 C227 0.930 . S
H238 C228 0.932 . S
H239 C229 0.929 . S
Tb240 C249 2.764 . S
Tb240 O250 2.325 . S
Tb240 O253 2.303 . S
Tb240 O257 2.322 . S
Tb240 O258 2.349 . S
Tb240 O261 2.415 . S
Tb240 O262 2.399 . S
Tb241 O251 2.322 . S
Tb241 O252 2.349 . S
Tb241 O254 2.415 1_554 S
Tb241 O255 2.399 1_554 S
Tb241 O256 2.325 . S
Tb241 O259 2.303 . S
Tb241 C270 2.764 1_554 S
C242 O258 1.261 . S
C242 O259 1.257 . S
C243 C246 1.358 . S
C243 C247 1.332 . S
C243 C249 1.504 . S
C244 C245 1.373 . S
C244 C248 1.308 . S
C245 C244 1.373 . S
C245 C246 1.429 . S
C245 H272 0.932 . S
C246 C243 1.358 . S
C246 C245 1.429 . S
C246 H273 0.930 . S
C247 C243 1.332 . S
C247 C248 1.394 . S
C247 H274 0.932 . S
C248 C244 1.308 . S
C248 C247 1.394 . S
C248 H275 0.929 . S
C249 Tb240 2.764 . S
C249 C243 1.504 . S
C249 O261 1.239 . S
C249 O262 1.263 . S
O250 Tb240 2.325 . S
O250 C260 1.236 . S
O251 Tb241 2.322 . S
O251 C260 1.257 . S
O252 Tb241 2.349 . S
O252 C263 1.261 . S
O253 Tb240 2.303 . S
O253 C263 1.257 . S
O254 Tb241 2.415 1_556 S
O254 C270 1.239 . S
O255 Tb241 2.399 1_556 S
O255 C270 1.263 . S
O256 Tb241 2.325 . S
O256 C271 1.236 . S
O257 Tb240 2.322 . S
O257 C271 1.257 . S
O258 Tb240 2.349 . S
O258 C242 1.261 . S
O259 Tb241 2.303 . S
O259 C242 1.257 . S
C260 O250 1.236 . S
C260 O251 1.257 . S
O261 Tb240 2.415 . S
O261 C249 1.239 . S
O262 Tb240 2.399 . S
O262 C249 1.263 . S
C263 O252 1.261 . S
C263 O253 1.257 . S
C264 C267 1.358 . S
C264 C268 1.332 . S
C264 C270 1.504 . S
C265 C266 1.373 . S
C265 C269 1.308 . S
C266 C265 1.373 . S
C266 C267 1.429 . S
C266 H276 0.932 . S
C267 C264 1.358 . S
C267 C266 1.429 . S
C267 H277 0.930 . S
C268 C264 1.332 . S
C268 C269 1.394 . S
C268 H278 0.932 . S
C269 C265 1.308 . S
C269 C268 1.394 . S
C269 H279 0.929 . S
C270 Tb241 2.764 1_556 S
C270 O254 1.239 . S
C270 O255 1.263 . S
C270 C264 1.504 . S
C271 O256 1.236 . S
C271 O257 1.257 . S
H272 C245 0.932 . S
H273 C246 0.930 . S
H274 C247 0.932 . S
H275 C248 0.929 . S
H276 C266 0.932 . S
H277 C267 0.930 . S
H278 C268 0.932 . S
H279 C269 0.929 . S
Tb280 C289 2.764 1_556 S
Tb280 O290 2.325 . S
Tb280 O293 2.303 . S
Tb280 O297 2.322 . S
Tb280 O298 2.349 . S
Tb280 O301 2.415 1_556 S
Tb280 O302 2.399 1_556 S
Tb281 O291 2.322 . S
Tb281 O292 2.349 . S
Tb281 O294 2.415 . S
Tb281 O295 2.399 . S
Tb281 O296 2.325 . S
Tb281 O299 2.303 . S
Tb281 C310 2.764 . S
C282 O298 1.261 . S
C282 O299 1.257 . S
C283 C286 1.358 . S
C283 C287 1.332 . S
C283 C289 1.504 . S
C284 C285 1.373 . S
C284 C288 1.308 . S
C285 C284 1.373 . S
C285 C286 1.429 . S
C285 H312 0.932 . S
C286 C283 1.358 . S
C286 C285 1.429 . S
C286 H313 0.930 . S
C287 C283 1.332 . S
C287 C288 1.394 . S
C287 H314 0.932 . S
C288 C284 1.308 . S
C288 C287 1.394 . S
C288 H315 0.929 . S
C289 Tb280 2.764 1_554 S
C289 C283 1.504 . S
C289 O301 1.239 . S
C289 O302 1.263 . S
O290 Tb280 2.325 . S
O290 C300 1.236 . S
O291 Tb281 2.322 . S
O291 C300 1.257 . S
O292 Tb281 2.349 . S
O292 C303 1.261 . S
O293 Tb280 2.303 . S
O293 C303 1.257 . S
O294 Tb281 2.415 . S
O294 C310 1.239 . S
O295 Tb281 2.399 . S
O295 C310 1.263 . S
O296 Tb281 2.325 . S
O296 C311 1.236 . S
O297 Tb280 2.322 . S
O297 C311 1.257 . S
O298 Tb280 2.349 . S
O298 C282 1.261 . S
O299 Tb281 2.303 . S
O299 C282 1.257 . S
C300 O290 1.236 . S
C300 O291 1.257 . S
O301 Tb280 2.415 1_554 S
O301 C289 1.239 . S
O302 Tb280 2.399 1_554 S
O302 C289 1.263 . S
C303 O292 1.261 . S
C303 O293 1.257 . S
C304 C307 1.358 . S
C304 C308 1.332 . S
C304 C310 1.504 . S
C305 C306 1.373 . S
C305 C309 1.308 . S
C306 C305 1.373 . S
C306 C307 1.429 . S
C306 H316 0.932 . S
C307 C304 1.358 . S
C307 C306 1.429 . S
C307 H317 0.930 . S
C308 C304 1.332 . S
C308 C309 1.394 . S
C308 H318 0.932 . S
C309 C305 1.308 . S
C309 C308 1.394 . S
C309 H319 0.929 . S
C310 Tb281 2.764 . S
C310 O294 1.239 . S
C310 O295 1.263 . S
C310 C304 1.504 . S
C311 O296 1.236 . S
C311 O297 1.257 . S
H312 C285 0.932 . S
H313 C286 0.930 . S
H314 C287 0.932 . S
H315 C288 0.929 . S
H316 C306 0.932 . S
H317 C307 0.930 . S
H318 C308 0.932 . S
H319 C309 0.929 . S
Tb320 C329 2.764 . S
Tb320 O330 2.325 . S
Tb320 O333 2.303 . S
Tb320 O337 2.322 . S
Tb320 O338 2.349 . S
Tb320 O341 2.415 . S
Tb320 O342 2.399 . S
Tb321 O331 2.322 . S
Tb321 O332 2.349 . S
Tb321 O334 2.415 . S
Tb321 O335 2.399 . S
Tb321 O336 2.325 . S
Tb321 O339 2.303 . S
Tb321 C350 2.764 . S
C322 O338 1.261 . S
C322 O339 1.257 . S
C323 C326 1.358 . S
C323 C327 1.332 . S
C323 C329 1.504 . S
C324 C325 1.373 . S
C324 C328 1.308 . S
C325 C324 1.373 . S
C325 C326 1.429 . S
C325 H352 0.932 . S
C326 C323 1.358 . S
C326 C325 1.429 . S
C326 H353 0.930 . S
C327 C323 1.332 . S
C327 C328 1.394 . S
C327 H354 0.932 . S
C328 C324 1.308 . S
C328 C327 1.394 . S
C328 H355 0.929 . S
C329 Tb320 2.764 . S
C329 C323 1.504 . S
C329 O341 1.239 . S
C329 O342 1.263 . S
O330 Tb320 2.325 . S
O330 C340 1.236 . S
O331 Tb321 2.322 . S
O331 C340 1.257 . S
O332 Tb321 2.349 . S
O332 C343 1.261 . S
O333 Tb320 2.303 . S
O333 C343 1.257 . S
O334 Tb321 2.415 . S
O334 C350 1.239 . S
O335 Tb321 2.399 . S
O335 C350 1.263 . S
O336 Tb321 2.325 . S
O336 C351 1.236 . S
O337 Tb320 2.322 . S
O337 C351 1.257 . S
O338 Tb320 2.349 . S
O338 C322 1.261 . S
O339 Tb321 2.303 . S
O339 C322 1.257 . S
C340 O330 1.236 . S
C340 O331 1.257 . S
O341 Tb320 2.415 . S
O341 C329 1.239 . S
O342 Tb320 2.399 . S
O342 C329 1.263 . S
C343 O332 1.261 . S
C343 O333 1.257 . S
C344 C347 1.358 . S
C344 C348 1.332 . S
C344 C350 1.504 . S
C345 C346 1.373 . S
C345 C349 1.308 . S
C346 C345 1.373 . S
C346 C347 1.429 . S
C346 H356 0.932 . S
C347 C344 1.358 . S
C347 C346 1.429 . S
C347 H357 0.930 . S
C348 C344 1.332 . S
C348 C349 1.394 . S
C348 H358 0.932 . S
C349 C345 1.308 . S
C349 C348 1.394 . S
C349 H359 0.929 . S
C350 Tb321 2.764 . S
C350 O334 1.239 . S
C350 O335 1.263 . S
C350 C344 1.504 . S
C351 O336 1.236 . S
C351 O337 1.257 . S
H352 C325 0.932 . S
H353 C326 0.930 . S
H354 C327 0.932 . S
H355 C328 0.929 . S
H356 C346 0.932 . S
H357 C347 0.930 . S
H358 C348 0.932 . S
H359 C349 0.929 . S
Tb360 C369 2.764 . S
Tb360 O370 2.325 . S
Tb360 O373 2.303 . S
Tb360 O377 2.322 . S
Tb360 O378 2.349 . S
Tb360 O381 2.415 . S
Tb360 O382 2.399 . S
Tb361 O371 2.322 . S
Tb361 O372 2.349 . S
Tb361 O374 2.415 . S
Tb361 O375 2.399 . S
Tb361 O376 2.325 . S
Tb361 O379 2.303 . S
Tb361 C390 2.764 . S
C362 O378 1.261 . S
C362 O379 1.257 . S
C363 C366 1.358 . S
C363 C367 1.332 . S
C363 C369 1.504 . S
C364 C365 1.373 . S
C364 C368 1.308 . S
C365 C364 1.373 . S
C365 C366 1.429 . S
C365 H392 0.932 . S
C366 C363 1.358 . S
C366 C365 1.429 . S
C366 H393 0.930 . S
C367 C363 1.332 . S
C367 C368 1.394 . S
C367 H394 0.932 . S
C368 C364 1.308 . S
C368 C367 1.394 . S
C368 H395 0.929 . S
C369 Tb360 2.764 . S
C369 C363 1.504 . S
C369 O381 1.239 . S
C369 O382 1.263 . S
O370 Tb360 2.325 . S
O370 C380 1.236 . S
O371 Tb361 2.322 . S
O371 C380 1.257 . S
O372 Tb361 2.349 . S
O372 C383 1.261 . S
O373 Tb360 2.303 . S
O373 C383 1.257 . S
O374 Tb361 2.415 . S
O374 C390 1.239 . S
O375 Tb361 2.399 . S
O375 C390 1.263 . S
O376 Tb361 2.325 . S
O376 C391 1.236 . S
O377 Tb360 2.322 . S
O377 C391 1.257 . S
O378 Tb360 2.349 . S
O378 C362 1.261 . S
O379 Tb361 2.303 . S
O379 C362 1.257 . S
C380 O370 1.236 . S
C380 O371 1.257 . S
O381 Tb360 2.415 . S
O381 C369 1.239 . S
O382 Tb360 2.399 . S
O382 C369 1.263 . S
C383 O372 1.261 . S
C383 O373 1.257 . S
C384 C387 1.358 . S
C384 C388 1.332 . S
C384 C390 1.504 . S
C385 C386 1.373 . S
C385 C389 1.308 . S
C386 C385 1.373 . S
C386 C387 1.429 . S
C386 H396 0.932 . S
C387 C384 1.358 . S
C387 C386 1.429 . S
C387 H397 0.930 . S
C388 C384 1.332 . S
C388 C389 1.394 . S
C388 H398 0.932 . S
C389 C385 1.308 . S
C389 C388 1.394 . S
C389 H399 0.929 . S
C390 Tb361 2.764 . S
C390 O374 1.239 . S
C390 O375 1.263 . S
C390 C384 1.504 . S
C391 O376 1.236 . S
C391 O377 1.257 . S
H392 C365 0.932 . S
H393 C366 0.930 . S
H394 C367 0.932 . S
H395 C368 0.929 . S
H396 C386 0.932 . S
H397 C387 0.930 . S
H398 C388 0.932 . S
H399 C389 0.929 . S
Tb400 C409 2.764 . S
Tb400 O410 2.325 . S
Tb400 O413 2.303 . S
Tb400 O417 2.322 . S
Tb400 O418 2.349 . S
Tb400 O421 2.415 . S
Tb400 O422 2.399 . S
Tb401 O411 2.322 . S
Tb401 O412 2.349 . S
Tb401 O414 2.415 . S
Tb401 O415 2.399 . S
Tb401 O416 2.325 . S
Tb401 O419 2.303 . S
Tb401 C430 2.764 . S
C402 O418 1.261 . S
C402 O419 1.257 . S
C403 C406 1.358 . S
C403 C407 1.332 . S
C403 C409 1.504 . S
C404 C405 1.373 . S
C404 C408 1.308 . S
C405 C404 1.373 . S
C405 C406 1.429 . S
C405 H432 0.932 . S
C406 C403 1.358 . S
C406 C405 1.429 . S
C406 H433 0.930 . S
C407 C403 1.332 . S
C407 C408 1.394 . S
C407 H434 0.932 . S
C408 C404 1.308 . S
C408 C407 1.394 . S
C408 H435 0.929 . S
C409 Tb400 2.764 . S
C409 C403 1.504 . S
C409 O421 1.239 . S
C409 O422 1.263 . S
O410 Tb400 2.325 . S
O410 C420 1.236 . S
O411 Tb401 2.322 . S
O411 C420 1.257 . S
O412 Tb401 2.349 . S
O412 C423 1.261 . S
O413 Tb400 2.303 . S
O413 C423 1.257 . S
O414 Tb401 2.415 . S
O414 C430 1.239 . S
O415 Tb401 2.399 . S
O415 C430 1.263 . S
O416 Tb401 2.325 . S
O416 C431 1.236 . S
O417 Tb400 2.322 . S
O417 C431 1.257 . S
O418 Tb400 2.349 . S
O418 C402 1.261 . S
O419 Tb401 2.303 . S
O419 C402 1.257 . S
C420 O410 1.236 . S
C420 O411 1.257 . S
O421 Tb400 2.415 . S
O421 C409 1.239 . S
O422 Tb400 2.399 . S
O422 C409 1.263 . S
C423 O412 1.261 . S
C423 O413 1.257 . S
C424 C427 1.358 . S
C424 C428 1.332 . S
C424 C430 1.504 . S
C425 C426 1.373 . S
C425 C429 1.308 . S
C426 C425 1.373 . S
C426 C427 1.429 . S
C426 H436 0.932 . S
C427 C424 1.358 . S
C427 C426 1.429 . S
C427 H437 0.930 . S
C428 C424 1.332 . S
C428 C429 1.394 . S
C428 H438 0.932 . S
C429 C425 1.308 . S
C429 C428 1.394 . S
C429 H439 0.929 . S
C430 Tb401 2.764 . S
C430 O414 1.239 . S
C430 O415 1.263 . S
C430 C424 1.504 . S
C431 O416 1.236 . S
C431 O417 1.257 . S
H432 C405 0.932 . S
H433 C406 0.930 . S
H434 C407 0.932 . S
H435 C408 0.929 . S
H436 C426 0.932 . S
H437 C427 0.930 . S
H438 C428 0.932 . S
H439 C429 0.929 . S
Tb440 C449 2.764 . S
Tb440 O450 2.325 . S
Tb440 O453 2.303 . S
Tb440 O457 2.322 . S
Tb440 O458 2.349 . S
Tb440 O461 2.415 . S
Tb440 O462 2.399 . S
Tb441 O451 2.322 . S
Tb441 O452 2.349 . S
Tb441 O454 2.415 . S
Tb441 O455 2.399 . S
Tb441 O456 2.325 . S
Tb441 O459 2.303 . S
Tb441 C470 2.764 . S
C442 O458 1.261 . S
C442 O459 1.257 . S
C443 C446 1.358 . S
C443 C447 1.332 . S
C443 C449 1.504 . S
C444 C445 1.373 . S
C444 C448 1.308 . S
C445 C444 1.373 . S
C445 C446 1.429 . S
C445 H472 0.932 . S
C446 C443 1.358 . S
C446 C445 1.429 . S
C446 H473 0.930 . S
C447 C443 1.332 . S
C447 C448 1.394 . S
C447 H474 0.932 . S
C448 C444 1.308 . S
C448 C447 1.394 . S
C448 H475 0.929 . S
C449 Tb440 2.764 . S
C449 C443 1.504 . S
C449 O461 1.239 . S
C449 O462 1.263 . S
O450 Tb440 2.325 . S
O450 C460 1.236 . S
O451 Tb441 2.322 . S
O451 C460 1.257 . S
O452 Tb441 2.349 . S
O452 C463 1.261 . S
O453 Tb440 2.303 . S
O453 C463 1.257 . S
O454 Tb441 2.415 . S
O454 C470 1.239 . S
O455 Tb441 2.399 . S
O455 C470 1.263 . S
O456 Tb441 2.325 . S
O456 C471 1.236 . S
O457 Tb440 2.322 . S
O457 C471 1.257 . S
O458 Tb440 2.349 . S
O458 C442 1.261 . S
O459 Tb441 2.303 . S
O459 C442 1.257 . S
C460 O450 1.236 . S
C460 O451 1.257 . S
O461 Tb440 2.415 . S
O461 C449 1.239 . S
O462 Tb440 2.399 . S
O462 C449 1.263 . S
C463 O452 1.261 . S
C463 O453 1.257 . S
C464 C467 1.358 . S
C464 C468 1.332 . S
C464 C470 1.504 . S
C465 C466 1.373 . S
C465 C469 1.308 . S
C466 C465 1.373 . S
C466 C467 1.429 . S
C466 H476 0.932 . S
C467 C464 1.358 . S
C467 C466 1.429 . S
C467 H477 0.930 . S
C468 C464 1.332 . S
C468 C469 1.394 . S
C468 H478 0.932 . S
C469 C465 1.308 . S
C469 C468 1.394 . S
C469 H479 0.929 . S
C470 Tb441 2.764 . S
C470 O454 1.239 . S
C470 O455 1.263 . S
C470 C464 1.504 . S
C471 O456 1.236 . S
C471 O457 1.257 . S
H472 C445 0.932 . S
H473 C446 0.930 . S
H474 C447 0.932 . S
H475 C448 0.929 . S
H476 C466 0.932 . S
H477 C467 0.930 . S
H478 C468 0.932 . S
H479 C469 0.929 . S
Tb480 C489 2.764 . S
Tb480 O490 2.325 . S
Tb480 O493 2.303 . S
Tb480 O497 2.322 . S
Tb480 O498 2.349 . S
Tb480 O501 2.415 . S
Tb480 O502 2.399 . S
Tb481 O491 2.322 . S
Tb481 O492 2.349 . S
Tb481 O494 2.415 . S
Tb481 O495 2.399 . S
Tb481 O496 2.325 . S
Tb481 O499 2.303 . S
Tb481 C510 2.764 . S
C482 O498 1.261 . S
C482 O499 1.257 . S
C483 C486 1.358 . S
C483 C487 1.332 . S
C483 C489 1.504 . S
C484 C485 1.373 . S
C484 C488 1.308 . S
C485 C484 1.373 . S
C485 C486 1.429 . S
C485 H512 0.932 . S
C486 C483 1.358 . S
C486 C485 1.429 . S
C486 H513 0.930 . S
C487 C483 1.332 . S
C487 C488 1.394 . S
C487 H514 0.932 . S
C488 C484 1.308 . S
C488 C487 1.394 . S
C488 H515 0.929 . S
C489 Tb480 2.764 . S
C489 C483 1.504 . S
C489 O501 1.239 . S
C489 O502 1.263 . S
O490 Tb480 2.325 . S
O490 C500 1.236 . S
O491 Tb481 2.322 . S
O491 C500 1.257 . S
O492 Tb481 2.349 . S
O492 C503 1.261 . S
O493 Tb480 2.303 . S
O493 C503 1.257 . S
O494 Tb481 2.415 . S
O494 C510 1.239 . S
O495 Tb481 2.399 . S
O495 C510 1.263 . S
O496 Tb481 2.325 . S
O496 C511 1.236 . S
O497 Tb480 2.322 . S
O497 C511 1.257 . S
O498 Tb480 2.349 . S
O498 C482 1.261 . S
O499 Tb481 2.303 . S
O499 C482 1.257 . S
C500 O490 1.236 . S
C500 O491 1.257 . S
O501 Tb480 2.415 . S
O501 C489 1.239 . S
O502 Tb480 2.399 . S
O502 C489 1.263 . S
C503 O492 1.261 . S
C503 O493 1.257 . S
C504 C507 1.358 . S
C504 C508 1.332 . S
C504 C510 1.504 . S
C505 C506 1.373 . S
C505 C509 1.308 . S
C506 C505 1.373 . S
C506 C507 1.429 . S
C506 H516 0.932 . S
C507 C504 1.358 . S
C507 C506 1.429 . S
C507 H517 0.930 . S
C508 C504 1.332 . S
C508 C509 1.394 . S
C508 H518 0.932 . S
C509 C505 1.308 . S
C509 C508 1.394 . S
C509 H519 0.929 . S
C510 Tb481 2.764 . S
C510 O494 1.239 . S
C510 O495 1.263 . S
C510 C504 1.504 . S
C511 O496 1.236 . S
C511 O497 1.257 . S
H512 C485 0.932 . S
H513 C486 0.930 . S
H514 C487 0.932 . S
H515 C488 0.929 . S
H516 C506 0.932 . S
H517 C507 0.930 . S
H518 C508 0.932 . S
H519 C509 0.929 . S
Tb520 C529 2.764 . S
Tb520 O530 2.325 . S
Tb520 O533 2.303 . S
Tb520 O537 2.322 . S
Tb520 O538 2.349 . S
Tb520 O541 2.415 . S
Tb520 O542 2.399 . S
Tb521 O531 2.322 . S
Tb521 O532 2.349 . S
Tb521 O534 2.415 . S
Tb521 O535 2.399 . S
Tb521 O536 2.325 . S
Tb521 O539 2.303 . S
Tb521 C550 2.764 . S
C522 O538 1.261 . S
C522 O539 1.257 . S
C523 C526 1.358 . S
C523 C527 1.332 . S
C523 C529 1.504 . S
C524 C525 1.373 . S
C524 C528 1.308 . S
C525 C524 1.373 . S
C525 C526 1.429 . S
C525 H552 0.932 . S
C526 C523 1.358 . S
C526 C525 1.429 . S
C526 H553 0.930 . S
C527 C523 1.332 . S
C527 C528 1.394 . S
C527 H554 0.932 . S
C528 C524 1.308 . S
C528 C527 1.394 . S
C528 H555 0.929 . S
C529 Tb520 2.764 . S
C529 C523 1.504 . S
C529 O541 1.239 . S
C529 O542 1.263 . S
O530 Tb520 2.325 . S
O530 C540 1.236 . S
O531 Tb521 2.322 . S
O531 C540 1.257 . S
O532 Tb521 2.349 . S
O532 C543 1.261 . S
O533 Tb520 2.303 . S
O533 C543 1.257 . S
O534 Tb521 2.415 . S
O534 C550 1.239 . S
O535 Tb521 2.399 . S
O535 C550 1.263 . S
O536 Tb521 2.325 . S
O536 C551 1.236 . S
O537 Tb520 2.322 . S
O537 C551 1.257 . S
O538 Tb520 2.349 . S
O538 C522 1.261 . S
O539 Tb521 2.303 . S
O539 C522 1.257 . S
C540 O530 1.236 . S
C540 O531 1.257 . S
O541 Tb520 2.415 . S
O541 C529 1.239 . S
O542 Tb520 2.399 . S
O542 C529 1.263 . S
C543 O532 1.261 . S
C543 O533 1.257 . S
C544 C547 1.358 . S
C544 C548 1.332 . S
C544 C550 1.504 . S
C545 C546 1.373 . S
C545 C549 1.308 . S
C546 C545 1.373 . S
C546 C547 1.429 . S
C546 H556 0.932 . S
C547 C544 1.358 . S
C547 C546 1.429 . S
C547 H557 0.930 . S
C548 C544 1.332 . S
C548 C549 1.394 . S
C548 H558 0.932 . S
C549 C545 1.308 . S
C549 C548 1.394 . S
C549 H559 0.929 . S
C550 Tb521 2.764 . S
C550 O534 1.239 . S
C550 O535 1.263 . S
C550 C544 1.504 . S
C551 O536 1.236 . S
C551 O537 1.257 . S
H552 C525 0.932 . S
H553 C526 0.930 . S
H554 C527 0.932 . S
H555 C528 0.929 . S
H556 C546 0.932 . S
H557 C547 0.930 . S
H558 C548 0.932 . S
H559 C549 0.929 . S
Tb560 C569 2.764 . S
Tb560 O570 2.325 . S
Tb560 O573 2.303 . S
Tb560 O577 2.322 . S
Tb560 O578 2.349 . S
Tb560 O581 2.415 . S
Tb560 O582 2.399 . S
Tb561 O571 2.322 . S
Tb561 O572 2.349 . S
Tb561 O574 2.415 . S
Tb561 O575 2.399 . S
Tb561 O576 2.325 . S
Tb561 O579 2.303 . S
Tb561 C590 2.764 . S
C562 O578 1.261 . S
C562 O579 1.257 . S
C563 C566 1.358 . S
C563 C567 1.332 . S
C563 C569 1.504 . S
C564 C565 1.373 . S
C564 C568 1.308 . S
C565 C564 1.373 . S
C565 C566 1.429 . S
C565 H592 0.932 . S
C566 C563 1.358 . S
C566 C565 1.429 . S
C566 H593 0.930 . S
C567 C563 1.332 . S
C567 C568 1.394 . S
C567 H594 0.932 . S
C568 C564 1.308 . S
C568 C567 1.394 . S
C568 H595 0.929 . S
C569 Tb560 2.764 . S
C569 C563 1.504 . S
C569 O581 1.239 . S
C569 O582 1.263 . S
O570 Tb560 2.325 . S
O570 C580 1.236 . S
O571 Tb561 2.322 . S
O571 C580 1.257 . S
O572 Tb561 2.349 . S
O572 C583 1.261 . S
O573 Tb560 2.303 . S
O573 C583 1.257 . S
O574 Tb561 2.415 . S
O574 C590 1.239 . S
O575 Tb561 2.399 . S
O575 C590 1.263 . S
O576 Tb561 2.325 . S
O576 C591 1.236 . S
O577 Tb560 2.322 . S
O577 C591 1.257 . S
O578 Tb560 2.349 . S
O578 C562 1.261 . S
O579 Tb561 2.303 . S
O579 C562 1.257 . S
C580 O570 1.236 . S
C580 O571 1.257 . S
O581 Tb560 2.415 . S
O581 C569 1.239 . S
O582 Tb560 2.399 . S
O582 C569 1.263 . S
C583 O572 1.261 . S
C583 O573 1.257 . S
C584 C587 1.358 . S
C584 C588 1.332 . S
C584 C590 1.504 . S
C585 C586 1.373 . S
C585 C589 1.308 . S
C586 C585 1.373 . S
C586 C587 1.429 . S
C586 H596 0.932 . S
C587 C584 1.358 . S
C587 C586 1.429 . S
C587 H597 0.930 . S
C588 C584 1.332 . S
C588 C589 1.394 . S
C588 H598 0.932 . S
C589 C585 1.308 . S
C589 C588 1.394 . S
C589 H599 0.929 . S
C590 Tb561 2.764 . S
C590 O574 1.239 . S
C590 O575 1.263 . S
C590 C584 1.504 . S
C591 O576 1.236 . S
C591 O577 1.257 . S
H592 C565 0.932 . S
H593 C566 0.930 . S
H594 C567 0.932 . S
H595 C568 0.929 . S
H596 C586 0.932 . S
H597 C587 0.930 . S
H598 C588 0.932 . S
H599 C589 0.929 . S
Tb600 C609 2.764 . S
Tb600 O610 2.325 . S
Tb600 O613 2.303 . S
Tb600 O617 2.322 . S
Tb600 O618 2.349 . S
Tb600 O621 2.415 . S
Tb600 O622 2.399 . S
Tb601 O611 2.322 . S
Tb601 O612 2.349 . S
Tb601 O614 2.415 . S
Tb601 O615 2.399 . S
Tb601 O616 2.325 . S
Tb601 O619 2.303 . S
Tb601 C630 2.764 . S
C602 O618 1.261 . S
C602 O619 1.257 . S
C603 C606 1.358 . S
C603 C607 1.332 . S
C603 C609 1.504 . S
C604 C605 1.373 . S
C604 C608 1.308 . S
C605 C604 1.373 . S
C605 C606 1.429 . S
C605 H632 0.932 . S
C606 C603 1.358 . S
C606 C605 1.429 . S
C606 H633 0.930 . S
C607 C603 1.332 . S
C607 C608 1.394 . S
C607 H634 0.932 . S
C608 C604 1.308 . S
C608 C607 1.394 . S
C608 H635 0.929 . S
C609 Tb600 2.764 . S
C609 C603 1.504 . S
C609 O621 1.239 . S
C609 O622 1.263 . S
O610 Tb600 2.325 . S
O610 C620 1.236 . S
O611 Tb601 2.322 . S
O611 C620 1.257 . S
O612 Tb601 2.349 . S
O612 C623 1.261 . S
O613 Tb600 2.303 . S
O613 C623 1.257 . S
O614 Tb601 2.415 . S
O614 C630 1.239 . S
O615 Tb601 2.399 . S
O615 C630 1.263 . S
O616 Tb601 2.325 . S
O616 C631 1.236 . S
O617 Tb600 2.322 . S
O617 C631 1.257 . S
O618 Tb600 2.349 . S
O618 C602 1.261 . S
O619 Tb601 2.303 . S
O619 C602 1.257 . S
C620 O610 1.236 . S
C620 O611 1.257 . S
O621 Tb600 2.415 . S
O621 C609 1.239 . S
O622 Tb600 2.399 . S
O622 C609 1.263 . S
C623 O612 1.261 . S
C623 O613 1.257 . S
C624 C627 1.358 . S
C624 C628 1.332 . S
C624 C630 1.504 . S
C625 C626 1.373 . S
C625 C629 1.308 . S
C626 C625 1.373 . S
C626 C627 1.429 . S
C626 H636 0.932 . S
C627 C624 1.358 . S
C627 C626 1.429 . S
C627 H637 0.930 . S
C628 C624 1.332 . S
C628 C629 1.394 . S
C628 H638 0.932 . S
C629 C625 1.308 . S
C629 C628 1.394 . S
C629 H639 0.929 . S
C630 Tb601 2.764 . S
C630 O614 1.239 . S
C630 O615 1.263 . S
C630 C624 1.504 . S
C631 O616 1.236 . S
C631 O617 1.257 . S
H632 C605 0.932 . S
H633 C606 0.930 . S
H634 C607 0.932 . S
H635 C608 0.929 . S
H636 C626 0.932 . S
H637 C627 0.930 . S
H638 C628 0.932 . S
H639 C629 0.929 . S
H640 C646 0.930 . S
H641 C650 0.930 . S
H642 C655 0.929 . S
H643 C653 0.929 . S
H644 C648 0.929 . S
H645 C654 0.929 . S
C646 H640 0.930 . S
C646 C647 1.367 . S
C646 C654 1.378 . S
C647 C646 1.367 . S
C647 C655 1.433 . S
C648 H644 0.929 . S
C648 C650 1.378 1_565 S
C648 C652 1.350 . S
C649 C652 1.463 . S
C649 C654 1.350 . S
C649 N657 1.427 . S
C650 H641 0.930 . S
C650 C648 1.378 1_545 S
C650 C651 1.367 . S
C651 C650 1.367 . S
C651 C653 1.433 . S
C652 C648 1.350 . S
C652 C649 1.463 . S
C652 N656 1.416 1_565 S
C653 H643 0.929 . S
C653 C651 1.433 . S
C653 N656 1.406 . S
C654 H645 0.929 . S
C654 C646 1.378 . S
C654 C649 1.350 . S
C655 H642 0.929 . S
C655 C647 1.433 . S
C655 N657 1.384 . S
N656 C652 1.416 1_545 S
N656 C653 1.406 . S
N657 C649 1.427 . S
N657 C655 1.384 . S
H658 C664 0.930 . S
H659 C668 0.930 . S
H660 C673 0.929 . S
H661 C671 0.929 . S
H662 C666 0.929 . S
H663 C672 0.929 . S
C664 H658 0.930 . S
C664 C665 1.367 . S
C664 C672 1.378 . S
C665 C664 1.367 . S
C665 C673 1.433 . S
C666 H662 0.929 . S
C666 C668 1.378 1_655 S
C666 C670 1.350 . S
C667 C670 1.463 . S
C667 C672 1.350 . S
C667 N675 1.427 . S
C668 H659 0.930 . S
C668 C666 1.378 1_455 S
C668 C669 1.367 . S
C669 C668 1.367 . S
C669 C671 1.433 . S
C670 C666 1.350 . S
C670 C667 1.463 . S
C670 N674 1.427 1_655 S
C671 H661 0.929 . S
C671 C669 1.433 . S
C671 N674 1.384 . S
C672 H663 0.929 . S
C672 C664 1.378 . S
C672 C667 1.350 . S
C673 H660 0.929 . S
C673 C665 1.433 . S
C673 N675 1.384 . S
N674 C670 1.427 1_455 S
N674 C671 1.384 . S
N675 C667 1.427 . S
N675 C673 1.384 . S
H676 C682 0.930 . S
H677 C686 0.930 . S
H678 C691 0.929 . S
H679 C689 0.929 . S
H680 C684 0.929 . S
H681 C690 0.929 . S
C682 H676 0.930 . S
C682 C683 1.367 . S
C682 C690 1.378 . S
C683 C682 1.367 . S
C683 C691 1.433 . S
C684 H680 0.929 . S
C684 C686 1.378 . S
C684 C688 1.350 . S
C685 C688 1.463 . S
C685 C690 1.350 1_545 S
C685 N693 1.427 . S
C686 H677 0.930 . S
C686 C684 1.378 . S
C686 C687 1.367 . S
C687 C686 1.367 . S
C687 C689 1.433 . S
C688 C684 1.350 . S
C688 C685 1.463 . S
C688 N692 1.427 . S
C689 H679 0.929 . S
C689 C687 1.433 . S
C689 N692 1.384 . S
C690 H681 0.929 . S
C690 C682 1.378 . S
C690 C685 1.350 1_565 S
C691 H678 0.929 . S
C691 C683 1.433 . S
C691 N693 1.384 1_565 S
N692 C688 1.427 . S
N692 C689 1.384 . S
N693 C685 1.427 . S
N693 C691 1.384 1_545 S
H694 C700 0.930 . S
H695 C704 0.930 . S
H696 C709 0.929 . S
H697 C707 0.929 . S
H698 C702 0.929 . S
H699 C708 0.929 . S
C700 H694 0.930 . S
C700 C701 1.367 . S
C700 C708 1.378 1_655 S
C701 C700 1.367 . S
C701 C709 1.433 . S
C702 H698 0.929 . S
C702 C704 1.378 . S
C702 C706 1.350 . S
C703 C706 1.463 . S
C703 C708 1.350 . S
C703 N711 1.427 1_455 S
C704 H695 0.930 . S
C704 C702 1.378 . S
C704 C705 1.367 . S
C705 C704 1.367 . S
C705 C707 1.433 . S
C706 C702 1.350 . S
C706 C703 1.463 . S
C706 N710 1.427 . S
C707 H697 0.929 . S
C707 C705 1.433 . S
C707 N710 1.384 . S
C708 H699 0.929 . S
C708 C700 1.378 1_455 S
C708 C703 1.350 . S
C709 H696 0.929 . S
C709 C701 1.433 . S
C709 N711 1.384 . S
N710 C706 1.427 . S
N710 C707 1.384 . S
N711 C703 1.427 1_655 S
N711 C709 1.384 . S
H712 C718 0.930 . S
H713 C722 0.930 . S
H714 C727 0.929 . S
H715 C725 0.929 . S
H716 C720 0.933 . S
H717 C726 0.929 . S
C718 H712 0.930 . S
C718 C719 1.367 . S
C718 C726 1.378 . S
C719 C718 1.367 . S
C719 C727 1.433 . S
C720 H716 0.933 . S
C720 C722 1.370 1_554 S
C720 C724 1.354 . S
C721 C724 1.463 . S
C721 C726 1.350 . S
C721 N729 1.427 . S
C722 H713 0.930 . S
C722 C720 1.370 1_556 S
C722 C723 1.367 . S
C723 C722 1.367 . S
C723 C725 1.433 . S
C724 C720 1.354 . S
C724 C721 1.463 . S
C724 N728 1.427 . S
C725 H715 0.929 . S
C725 C723 1.433 . S
C725 N728 1.384 1_556 S
C726 H717 0.929 . S
C726 C718 1.378 . S
C726 C721 1.350 . S
C727 H714 0.929 . S
C727 C719 1.433 . S
C727 N729 1.384 . S
N728 C724 1.427 . S
N728 C725 1.384 1_554 S
N729 C721 1.427 . S
N729 C727 1.384 . S
H730 C736 0.930 . S
H731 C740 0.930 . S
H732 C745 0.929 . S
H733 C743 0.929 . S
H734 C738 0.929 . S
H735 C744 0.929 . S
C736 H730 0.930 . S
C736 C737 1.367 . S
C736 C744 1.378 . S
C737 C736 1.367 . S
C737 C745 1.433 . S
C738 H734 0.929 . S
C738 C740 1.378 . S
C738 C742 1.350 . S
C739 C742 1.463 . S
C739 C744 1.350 1_556 S
C739 N747 1.427 . S
C740 H731 0.930 . S
C740 C738 1.378 . S
C740 C741 1.367 . S
C741 C740 1.367 . S
C741 C743 1.433 . S
C742 C738 1.350 . S
C742 C739 1.463 . S
C742 N746 1.427 . S
C743 H733 0.929 . S
C743 C741 1.433 . S
C743 N746 1.384 . S
C744 H735 0.929 . S
C744 C736 1.378 . S
C744 C739 1.350 1_554 S
C745 H732 0.929 . S
C745 C737 1.433 . S
C745 N747 1.384 1_554 S
N746 C742 1.427 . S
N746 C743 1.384 . S
N747 C739 1.427 . S
N747 C745 1.384 1_556 S
H748 C754 0.930 . S
H749 C758 0.930 . S
H750 C763 0.929 . S
H751 C761 0.929 . S
H752 C756 0.929 . S
H753 C762 0.929 . S
C754 H748 0.930 . S
C754 C755 1.367 . S
C754 C762 1.378 . S
C755 C754 1.367 . S
C755 C763 1.433 . S
C756 H752 0.929 . S
C756 C758 1.378 . S
C756 C760 1.350 1_556 S
C757 C760 1.463 . S
C757 C762 1.350 . S
C757 N765 1.427 . S
C758 H749 0.930 . S
C758 C756 1.378 . S
C758 C759 1.367 . S
C759 C758 1.367 . S
C759 C761 1.433 1_556 S
C760 C756 1.350 1_554 S
C760 C757 1.463 . S
C760 N764 1.427 . S
C761 H751 0.929 . S
C761 C759 1.433 1_554 S
C761 N764 1.384 . S
C762 H753 0.929 . S
C762 C754 1.378 . S
C762 C757 1.350 . S
C763 H750 0.929 . S
C763 C755 1.433 . S
C763 N765 1.384 . S
N764 C760 1.427 . S
N764 C761 1.384 . S
N765 C757 1.427 . S
N765 C763 1.384 . S
H766 C772 0.930 . S
H767 C776 0.930 . S
H768 C781 0.929 . S
H769 C779 0.929 . S
H770 C774 0.929 . S
H771 C780 0.929 . S
C772 H766 0.930 . S
C772 C773 1.367 . S
C772 C780 1.378 . S
C773 C772 1.367 . S
C773 C781 1.433 . S
C774 H770 0.929 . S
C774 C776 1.378 . S
C774 C778 1.350 . S
C775 C778 1.463 . S
C775 C780 1.350 1_556 S
C775 N783 1.427 . S
C776 H767 0.930 . S
C776 C774 1.378 . S
C776 C777 1.367 . S
C777 C776 1.367 . S
C777 C779 1.433 . S
C778 C774 1.350 . S
C778 C775 1.463 . S
C778 N782 1.427 . S
C779 H769 0.929 . S
C779 C777 1.433 . S
C779 N782 1.384 . S
C780 H771 0.929 . S
C780 C772 1.378 . S
C780 C775 1.350 1_554 S
C781 H768 0.929 . S
C781 C773 1.433 . S
C781 N783 1.384 1_554 S
N782 C778 1.427 . S
N782 C779 1.384 . S
N783 C775 1.427 . S
N783 C781 1.384 1_556 S
H784 C790 0.930 . S
H785 C794 0.930 . S
H786 C799 0.929 . S
H787 C797 0.929 . S
H788 C792 0.929 . S
H789 C798 0.929 . S
C790 H784 0.930 . S
C790 C791 1.367 . S
C790 C798 1.378 . S
C791 C790 1.367 . S
C791 C799 1.433 . S
C792 H788 0.929 . S
C792 C794 1.378 . S
C792 C796 1.350 . S
C793 C796 1.463 . S
C793 C798 1.350 . S
C793 N801 1.427 . S
C794 H785 0.930 . S
C794 C792 1.378 . S
C794 C795 1.367 . S
C795 C794 1.367 . S
C795 C797 1.433 . S
C796 C792 1.350 . S
C796 C793 1.463 . S
C796 N800 1.427 . S
C797 H787 0.929 . S
C797 C795 1.433 . S
C797 N800 1.384 . S
C798 H789 0.929 . S
C798 C790 1.378 . S
C798 C793 1.350 . S
C799 H786 0.929 . S
C799 C791 1.433 . S
C799 N801 1.384 . S
N800 C796 1.427 . S
N800 C797 1.384 . S
N801 C793 1.427 . S
N801 C799 1.384 . S
H802 C808 0.930 . S
H803 C812 0.930 . S
H804 C817 0.929 . S
H805 C815 0.929 . S
H806 C810 0.929 . S
H807 C816 0.929 . S
C808 H802 0.930 . S
C808 C809 1.367 . S
C808 C816 1.378 . S
C809 C808 1.367 . S
C809 C817 1.433 . S
C810 H806 0.929 . S
C810 C812 1.378 . S
C810 C814 1.350 . S
C811 C814 1.463 . S
C811 C816 1.350 . S
C811 N819 1.427 . S
C812 H803 0.930 . S
C812 C810 1.378 . S
C812 C813 1.367 . S
C813 C812 1.367 . S
C813 C815 1.433 . S
C814 C810 1.350 . S
C814 C811 1.463 . S
C814 N818 1.427 . S
C815 H805 0.929 . S
C815 C813 1.433 . S
C815 N818 1.384 . S
C816 H807 0.929 . S
C816 C808 1.378 . S
C816 C811 1.350 . S
C817 H804 0.929 . S
C817 C809 1.433 . S
C817 N819 1.384 . S
N818 C814 1.427 . S
N818 C815 1.384 . S
N819 C811 1.427 . S
N819 C817 1.384 . S
H820 C826 0.930 . S
H821 C830 0.930 . S
H822 C835 0.929 . S
H823 C833 0.929 . S
H824 C828 0.929 . S
H825 C834 0.929 . S
C826 H820 0.930 . S
C826 C827 1.367 . S
C826 C834 1.378 . S
C827 C826 1.367 . S
C827 C835 1.433 . S
C828 H824 0.929 . S
C828 C830 1.378 . S
C828 C832 1.350 . S
C829 C832 1.463 . S
C829 C834 1.350 . S
C829 N837 1.427 . S
C830 H821 0.930 . S
C830 C828 1.378 . S
C830 C831 1.367 . S
C831 C830 1.367 . S
C831 C833 1.433 . S
C832 C828 1.350 . S
C832 C829 1.463 . S
C832 N836 1.427 . S
C833 H823 0.929 . S
C833 C831 1.433 . S
C833 N836 1.384 . S
C834 H825 0.929 . S
C834 C826 1.378 . S
C834 C829 1.350 . S
C835 H822 0.929 . S
C835 C827 1.433 . S
C835 N837 1.384 . S
N836 C832 1.427 . S
N836 C833 1.384 . S
N837 C829 1.427 . S
N837 C835 1.384 . S
H838 C844 0.930 . S
H839 C848 0.930 . S
H840 C853 0.929 . S
H841 C851 0.929 . S
H842 C846 0.929 . S
H843 C852 0.929 . S
C844 H838 0.930 . S
C844 C845 1.367 . S
C844 C852 1.378 . S
C845 C844 1.367 . S
C845 C853 1.433 . S
C846 H842 0.929 . S
C846 C848 1.378 . S
C846 C850 1.350 . S
C847 C850 1.463 . S
C847 C852 1.350 . S
C847 N855 1.427 . S
C848 H839 0.930 . S
C848 C846 1.378 . S
C848 C849 1.367 . S
C849 C848 1.367 . S
C849 C851 1.433 . S
C850 C846 1.350 . S
C850 C847 1.463 . S
C850 N854 1.427 . S
C851 H841 0.929 . S
C851 C849 1.433 . S
C851 N854 1.384 . S
C852 H843 0.929 . S
C852 C844 1.378 . S
C852 C847 1.350 . S
C853 H840 0.929 . S
C853 C845 1.433 . S
C853 N855 1.384 . S
N854 C850 1.427 . S
N854 C851 1.384 . S
N855 C847 1.427 . S
N855 C853 1.384 . S
H856 C862 0.930 . S
H857 C866 0.930 . S
H858 C871 0.929 . S
H859 C869 0.929 . S
H860 C864 0.929 . S
H861 C870 0.929 . S
C862 H856 0.930 . S
C862 C863 1.367 . S
C862 C870 1.378 . S
C863 C862 1.367 . S
C863 C871 1.433 . S
C864 H860 0.929 . S
C864 C866 1.378 . S
C864 C868 1.350 . S
C865 C868 1.463 . S
C865 C870 1.350 1_545 S
C865 N873 1.427 . S
C866 H857 0.930 . S
C866 C864 1.378 . S
C866 C867 1.367 . S
C867 C866 1.367 . S
C867 C869 1.433 . S
C868 C864 1.350 . S
C868 C865 1.463 . S
C868 N872 1.427 . S
C869 H859 0.929 . S
C869 C867 1.433 . S
C869 N872 1.384 . S
C870 H861 0.929 . S
C870 C862 1.378 . S
C870 C865 1.350 1_565 S
C871 H858 0.929 . S
C871 C863 1.433 . S
C871 N873 1.384 1_565 S
N872 C868 1.427 . S
N872 C869 1.384 . S
N873 C865 1.427 . S
N873 C871 1.384 1_545 S
H874 C880 0.930 . S
H875 C884 0.930 . S
H876 C889 0.929 . S
H877 C887 0.929 . S
H878 C882 0.929 . S
H879 C888 0.929 . S
C880 H874 0.930 . S
C880 C881 1.367 . S
C880 C888 1.378 . S
C881 C880 1.367 . S
C881 C889 1.433 . S
C882 H878 0.929 . S
C882 C884 1.378 1_455 S
C882 C886 1.350 . S
C883 C886 1.463 . S
C883 C888 1.350 . S
C883 N891 1.427 . S
C884 H875 0.930 . S
C884 C882 1.378 1_655 S
C884 C885 1.367 . S
C885 C884 1.367 . S
C885 C887 1.433 . S
C886 C882 1.350 . S
C886 C883 1.463 . S
C886 N890 1.427 1_455 S
C887 H877 0.929 . S
C887 C885 1.433 . S
C887 N890 1.384 . S
C888 H879 0.929 . S
C888 C880 1.378 . S
C888 C883 1.350 . S
C889 H876 0.929 . S
C889 C881 1.433 . S
C889 N891 1.384 . S
N890 C886 1.427 1_655 S
N890 C887 1.384 . S
N891 C883 1.427 . S
N891 C889 1.384 . S
H892 C898 0.930 . S
H893 C902 0.930 . S
H894 C907 0.929 . S
H895 C905 0.929 . S
H896 C900 0.929 . S
H897 C906 0.929 . S
C898 H892 0.930 . S
C898 C899 1.367 . S
C898 C906 1.378 . S
C899 C898 1.367 . S
C899 C907 1.433 . S
C900 H896 0.929 . S
C900 C902 1.378 . S
C900 C904 1.350 1_545 S
C901 C904 1.463 . S
C901 C906 1.350 . S
C901 N909 1.427 . S
C902 H893 0.930 . S
C902 C900 1.378 . S
C902 C903 1.367 . S
C903 C902 1.367 . S
C903 C905 1.433 . S
C904 C900 1.350 1_565 S
C904 C901 1.463 . S
C904 N908 1.427 . S
C905 H895 0.929 . S
C905 C903 1.433 . S
C905 N908 1.384 1_545 S
C906 H897 0.929 . S
C906 C898 1.378 . S
C906 C901 1.350 . S
C907 H894 0.929 . S
C907 C899 1.433 . S
C907 N909 1.384 . S
N908 C904 1.427 . S
N908 C905 1.384 1_565 S
N909 C901 1.427 . S
N909 C907 1.384 . S
H910 C916 0.930 . S
H911 C920 0.930 . S
H912 C925 0.929 . S
H913 C923 0.929 . S
H914 C918 0.929 . S
H915 C924 0.929 . S
C916 H910 0.930 . S
C916 C917 1.367 . S
C916 C924 1.378 . S
C917 C916 1.367 . S
C917 C925 1.433 . S
C918 H914 0.929 . S
C918 C920 1.378 . S
C918 C922 1.350 . S
C919 C922 1.463 . S
C919 C924 1.350 1_655 S
C919 N927 1.427 . S
C920 H911 0.930 . S
C920 C918 1.378 . S
C920 C921 1.367 . S
C921 C920 1.367 . S
C921 C923 1.433 . S
C922 C918 1.350 . S
C922 C919 1.463 . S
C922 N926 1.427 . S
C923 H913 0.929 . S
C923 C921 1.433 . S
C923 N926 1.384 . S
C924 H915 0.929 . S
C924 C916 1.378 . S
C924 C919 1.350 1_455 S
C925 H912 0.929 . S
C925 C917 1.433 . S
C925 N927 1.384 1_455 S
N926 C922 1.427 . S
N926 C923 1.384 . S
N927 C919 1.427 . S
N927 C925 1.384 1_655 S
H928 C934 0.930 . S
H929 C938 0.930 . S
H930 C943 0.929 . S
H931 C941 0.929 . S
H932 C936 0.929 . S
H933 C942 0.929 . S
C934 H928 0.930 . S
C934 C935 1.367 . S
C934 C942 1.378 . S
C935 C934 1.367 . S
C935 C943 1.433 . S
C936 H932 0.929 . S
C936 C938 1.378 . S
C936 C940 1.350 . S
C937 C940 1.463 . S
C937 C942 1.350 . S
C937 N945 1.427 . S
C938 H929 0.930 . S
C938 C936 1.378 . S
C938 C939 1.367 . S
C939 C938 1.367 . S
C939 C941 1.433 . S
C940 C936 1.350 . S
C940 C937 1.463 . S
C940 N944 1.427 . S
C941 H931 0.929 . S
C941 C939 1.433 . S
C941 N944 1.384 . S
C942 H933 0.929 . S
C942 C934 1.378 . S
C942 C937 1.350 . S
C943 H930 0.929 . S
C943 C935 1.433 . S
C943 N945 1.384 . S
N944 C940 1.427 . S
N944 C941 1.384 . S
N945 C937 1.427 . S
N945 C943 1.384 . S
H946 C952 0.930 . S
H947 C956 0.930 . S
H948 C961 0.929 . S
H949 C959 0.929 . S
H950 C954 0.929 . S
H951 C960 0.929 . S
C952 H946 0.930 . S
C952 C953 1.367 . S
C952 C960 1.378 . S
C953 C952 1.367 . S
C953 C961 1.433 . S
C954 H950 0.929 . S
C954 C956 1.378 . S
C954 C958 1.350 . S
C955 C958 1.463 . S
C955 C960 1.350 . S
C955 N963 1.427 . S
C956 H947 0.930 . S
C956 C954 1.378 . S
C956 C957 1.367 . S
C957 C956 1.367 . S
C957 C959 1.433 . S
C958 C954 1.350 . S
C958 C955 1.463 . S
C958 N962 1.427 . S
C959 H949 0.929 . S
C959 C957 1.433 . S
C959 N962 1.384 . S
C960 H951 0.929 . S
C960 C952 1.378 . S
C960 C955 1.350 . S
C961 H948 0.929 . S
C961 C953 1.433 . S
C961 N963 1.384 . S
N962 C958 1.427 . S
N962 C959 1.384 . S
N963 C955 1.427 . S
N963 C961 1.384 . S
H964 C970 0.930 . S
H965 C974 0.930 . S
H966 C979 0.929 . S
H967 C977 0.929 . S
H968 C972 0.929 . S
H969 C978 0.929 . S
C970 H964 0.930 . S
C970 C971 1.367 . S
C970 C978 1.378 . S
C971 C970 1.367 . S
C971 C979 1.433 . S
C972 H968 0.929 . S
C972 C974 1.378 . S
C972 C976 1.350 . S
C973 C976 1.463 . S
C973 C978 1.350 . S
C973 N981 1.427 . S
C974 H965 0.930 . S
C974 C972 1.378 . S
C974 C975 1.367 . S
C975 C974 1.367 . S
C975 C977 1.433 . S
C976 C972 1.350 . S
C976 C973 1.463 . S
C976 N980 1.427 . S
C977 H967 0.929 . S
C977 C975 1.433 . S
C977 N980 1.384 . S
C978 H969 0.929 . S
C978 C970 1.378 . S
C978 C973 1.350 . S
C979 H966 0.929 . S
C979 C971 1.433 . S
C979 N981 1.384 . S
N980 C976 1.427 . S
N980 C977 1.384 . S
N981 C973 1.427 . S
N981 C979 1.384 . S
H982 C988 0.930 . S
H983 C992 0.930 . S
H984 C997 0.929 . S
H985 C995 0.929 . S
H986 C990 0.929 . S
H987 C996 0.929 . S
C988 H982 0.930 . S
C988 C989 1.367 . S
C988 C996 1.378 . S
C989 C988 1.367 . S
C989 C997 1.433 . S
C990 H986 0.929 . S
C990 C992 1.378 . S
C990 C994 1.350 . S
C991 C994 1.463 . S
C991 C996 1.350 . S
C991 N999 1.427 . S
C992 H983 0.930 . S
C992 C990 1.378 . S
C992 C993 1.367 . S
C993 C992 1.367 . S
C993 C995 1.433 . S
C994 C990 1.350 . S
C994 C991 1.463 . S
C994 N998 1.427 . S
C995 H985 0.929 . S
C995 C993 1.433 . S
C995 N998 1.384 . S
C996 H987 0.929 . S
C996 C988 1.378 . S
C996 C991 1.350 . S
C997 H984 0.929 . S
C997 C989 1.433 . S
C997 N999 1.384 . S
N998 C994 1.427 . S
N998 C995 1.384 . S
N999 C991 1.427 . S
N999 C997 1.384 . S
H1000 C1006 0.930 . S
H1001 C1010 0.930 . S
H1002 C1015 0.929 . S
H1003 C1013 0.929 . S
H1004 C1008 0.929 . S
H1005 C1014 0.929 . S
C1006 H1000 0.930 . S
C1006 C1007 1.367 . S
C1006 C1014 1.378 . S
C1007 C1006 1.367 . S
C1007 C1015 1.433 . S
C1008 H1004 0.929 . S
C1008 C1010 1.378 . S
C1008 C1012 1.350 . S
C1009 C1012 1.463 . S
C1009 C1014 1.350 . S
C1009 N1017 1.427 . S
C1010 H1001 0.930 . S
C1010 C1008 1.378 . S
C1010 C1011 1.367 . S
C1011 C1010 1.367 . S
C1011 C1013 1.433 . S
C1012 C1008 1.350 . S
C1012 C1009 1.463 . S
C1012 N1016 1.427 . S
C1013 H1003 0.929 . S
C1013 C1011 1.433 . S
C1013 N1016 1.384 . S
C1014 H1005 0.929 . S
C1014 C1006 1.378 . S
C1014 C1009 1.350 . S
C1015 H1002 0.929 . S
C1015 C1007 1.433 . S
C1015 N1017 1.384 . S
N1016 C1012 1.427 . S
N1016 C1013 1.384 . S
N1017 C1009 1.427 . S
N1017 C1015 1.384 . S
H1018 C1024 0.930 . S
H1019 C1028 0.930 . S
H1020 C1033 0.929 . S
H1021 C1031 0.929 . S
H1022 C1026 0.929 . S
H1023 C1032 0.929 . S
C1024 H1018 0.930 . S
C1024 C1025 1.367 . S
C1024 C1032 1.378 . S
C1025 C1024 1.367 . S
C1025 C1033 1.433 . S
C1026 H1022 0.929 . S
C1026 C1028 1.378 . S
C1026 C1030 1.350 . S
C1027 C1030 1.463 . S
C1027 C1032 1.350 . S
C1027 N1035 1.427 . S
C1028 H1019 0.930 . S
C1028 C1026 1.378 . S
C1028 C1029 1.367 . S
C1029 C1028 1.367 . S
C1029 C1031 1.433 . S
C1030 C1026 1.350 . S
C1030 C1027 1.463 . S
C1030 N1034 1.427 . S
C1031 H1021 0.929 . S
C1031 C1029 1.433 . S
C1031 N1034 1.384 . S
C1032 H1023 0.929 . S
C1032 C1024 1.378 . S
C1032 C1027 1.350 . S
C1033 H1020 0.929 . S
C1033 C1025 1.433 . S
C1033 N1035 1.384 . S
N1034 C1030 1.427 . S
N1034 C1031 1.384 . S
N1035 C1027 1.427 . S
N1035 C1033 1.384 . S
H1036 C1042 0.930 . S
H1037 C1046 0.930 . S
H1038 C1051 0.929 . S
H1039 C1049 0.929 . S
H1040 C1044 0.929 . S
H1041 C1050 0.929 . S
C1042 H1036 0.930 . S
C1042 C1043 1.367 . S
C1042 C1050 1.378 . S
C1043 C1042 1.367 . S
C1043 C1051 1.433 . S
C1044 H1040 0.929 . S
C1044 C1046 1.378 . S
C1044 C1048 1.350 . S
C1045 C1048 1.463 . S
C1045 C1050 1.350 . S
C1045 N1053 1.427 . S
C1046 H1037 0.930 . S
C1046 C1044 1.378 . S
C1046 C1047 1.367 . S
C1047 C1046 1.367 . S
C1047 C1049 1.433 . S
C1048 C1044 1.350 . S
C1048 C1045 1.463 . S
C1048 N1052 1.427 . S
C1049 H1039 0.929 . S
C1049 C1047 1.433 . S
C1049 N1052 1.384 . S
C1050 H1041 0.929 . S
C1050 C1042 1.378 . S
C1050 C1045 1.350 . S
C1051 H1038 0.929 . S
C1051 C1043 1.433 . S
C1051 N1053 1.384 . S
N1052 C1048 1.427 . S
N1052 C1049 1.384 . S
N1053 C1045 1.427 . S
N1053 C1051 1.384 . S
H1054 C1060 0.930 . S
H1055 C1064 0.930 . S
H1056 C1069 0.929 . S
H1057 C1067 0.929 . S
H1058 C1062 0.929 . S
H1059 C1068 0.929 . S
C1060 H1054 0.930 . S
C1060 C1061 1.367 . S
C1060 C1068 1.378 . S
C1061 C1060 1.367 . S
C1061 C1069 1.433 . S
C1062 H1058 0.929 . S
C1062 C1064 1.378 . S
C1062 C1066 1.350 . S
C1063 C1066 1.463 . S
C1063 C1068 1.350 . S
C1063 N1071 1.427 . S
C1064 H1055 0.930 . S
C1064 C1062 1.378 . S
C1064 C1065 1.367 . S
C1065 C1064 1.367 . S
C1065 C1067 1.433 . S
C1066 C1062 1.350 . S
C1066 C1063 1.463 . S
C1066 N1070 1.427 . S
C1067 H1057 0.929 . S
C1067 C1065 1.433 . S
C1067 N1070 1.384 . S
C1068 H1059 0.929 . S
C1068 C1060 1.378 . S
C1068 C1063 1.350 . S
C1069 H1056 0.929 . S
C1069 C1061 1.433 . S
C1069 N1071 1.384 . S
N1070 C1066 1.427 . S
N1070 C1067 1.384 . S
N1071 C1063 1.427 . S
N1071 C1069 1.384 . S
H1072 C1078 0.930 . S
H1073 C1082 0.930 1_554 S
H1074 C1087 0.929 . S
H1075 C1085 0.929 . S
H1076 C1080 0.929 . S
H1077 C1086 0.929 . S
C1078 H1072 0.930 . S
C1078 C1079 1.367 . S
C1078 C1086 1.378 . S
C1079 C1078 1.367 . S
C1079 C1087 1.433 . S
C1080 H1076 0.929 . S
C1080 C1082 1.378 . S
C1080 C1084 1.350 . S
C1081 C1084 1.463 . S
C1081 C1086 1.350 . S
C1081 N1089 1.427 . S
C1082 H1073 0.930 1_556 S
C1082 C1080 1.378 . S
C1082 C1083 1.367 . S
C1083 C1082 1.367 . S
C1083 C1085 1.433 . S
C1084 C1080 1.350 . S
C1084 C1081 1.463 . S
C1084 N1088 1.427 . S
C1085 H1075 0.929 . S
C1085 C1083 1.433 . S
C1085 N1088 1.384 . S
C1086 H1077 0.929 . S
C1086 C1078 1.378 . S
C1086 C1081 1.350 . S
C1087 H1074 0.929 . S
C1087 C1079 1.433 . S
C1087 N1089 1.384 . S
N1088 C1084 1.427 . S
N1088 C1085 1.384 . S
N1089 C1081 1.427 . S
N1089 C1087 1.384 . S
H1090 C1096 0.930 1_556 S
H1091 C1100 0.930 . S
H1092 C1105 0.929 . S
H1093 C1103 0.929 . S
H1094 C1098 0.929 . S
H1095 C1104 0.929 . S
C1096 H1090 0.930 1_554 S
C1096 C1097 1.367 . S
C1096 C1104 1.378 . S
C1097 C1096 1.367 . S
C1097 C1105 1.433 . S
C1098 H1094 0.929 . S
C1098 C1100 1.378 . S
C1098 C1102 1.350 . S
C1099 C1102 1.463 . S
C1099 C1104 1.350 . S
C1099 N1107 1.427 . S
C1100 H1091 0.930 . S
C1100 C1098 1.378 . S
C1100 C1101 1.367 . S
C1101 C1100 1.367 . S
C1101 C1103 1.433 . S
C1102 C1098 1.350 . S
C1102 C1099 1.463 . S
C1102 N1106 1.427 . S
C1103 H1093 0.929 . S
C1103 C1101 1.433 . S
C1103 N1106 1.384 . S
C1104 H1095 0.929 . S
C1104 C1096 1.378 . S
C1104 C1099 1.350 . S
C1105 H1092 0.929 . S
C1105 C1097 1.433 . S
C1105 N1107 1.384 . S
N1106 C1102 1.427 . S
N1106 C1103 1.384 . S
N1107 C1099 1.427 . S
N1107 C1105 1.384 . S
H1108 C1114 0.930 1_554 S
H1109 C1118 0.930 . S
H1110 C1123 0.929 . S
H1111 C1121 0.929 . S
H1112 C1116 0.929 . S
H1113 C1122 0.929 . S
C1114 H1108 0.930 1_556 S
C1114 C1115 1.367 . S
C1114 C1122 1.378 . S
C1115 C1114 1.367 . S
C1115 C1123 1.433 . S
C1116 H1112 0.929 . S
C1116 C1118 1.378 . S
C1116 C1120 1.350 . S
C1117 C1120 1.463 . S
C1117 C1122 1.350 . S
C1117 N1125 1.427 . S
C1118 H1109 0.930 . S
C1118 C1116 1.378 . S
C1118 C1119 1.367 . S
C1119 C1118 1.367 . S
C1119 C1121 1.433 . S
C1120 C1116 1.350 . S
C1120 C1117 1.463 . S
C1120 N1124 1.427 . S
C1121 H1111 0.929 . S
C1121 C1119 1.433 . S
C1121 N1124 1.384 . S
C1122 H1113 0.929 . S
C1122 C1114 1.378 . S
C1122 C1117 1.350 . S
C1123 H1110 0.929 . S
C1123 C1115 1.433 . S
C1123 N1125 1.384 . S
N1124 C1120 1.427 . S
N1124 C1121 1.384 . S
N1125 C1117 1.427 . S
N1125 C1123 1.384 . S
H1126 C1132 0.930 . S
H1127 C1136 0.930 . S
H1128 C1141 0.929 1_556 S
H1129 C1139 0.929 . S
H1130 C1134 0.929 . S
H1131 C1140 0.929 . S
C1132 H1126 0.930 . S
C1132 C1133 1.367 . S
C1132 C1140 1.378 . S
C1133 C1132 1.367 . S
C1133 C1141 1.433 . S
C1134 H1130 0.929 . S
C1134 C1136 1.378 . S
C1134 C1138 1.350 . S
C1135 C1138 1.463 . S
C1135 C1140 1.350 . S
C1135 N1143 1.427 . S
C1136 H1127 0.930 . S
C1136 C1134 1.378 . S
C1136 C1137 1.367 . S
C1137 C1136 1.367 . S
C1137 C1139 1.433 . S
C1138 C1134 1.350 . S
C1138 C1135 1.463 . S
C1138 N1142 1.427 . S
C1139 H1129 0.929 . S
C1139 C1137 1.433 . S
C1139 N1142 1.384 . S
C1140 H1131 0.929 . S
C1140 C1132 1.378 . S
C1140 C1135 1.350 . S
C1141 H1128 0.929 1_554 S
C1141 C1133 1.433 . S
C1141 N1143 1.384 . S
N1142 C1138 1.427 . S
N1142 C1139 1.384 . S
N1143 C1135 1.427 . S
N1143 C1141 1.384 . S
H1144 C1150 0.930 . S
H1145 C1154 0.930 . S
H1146 C1159 0.929 . S
H1147 C1157 0.929 . S
H1148 C1152 0.929 . S
H1149 C1158 0.929 . S
C1150 H1144 0.930 . S
C1150 C1151 1.367 . S
C1150 C1158 1.378 . S
C1151 C1150 1.367 . S
C1151 C1159 1.433 . S
C1152 H1148 0.929 . S
C1152 C1154 1.378 . S
C1152 C1156 1.350 . S
C1153 C1156 1.463 . S
C1153 C1158 1.350 . S
C1153 N1161 1.427 . S
C1154 H1145 0.930 . S
C1154 C1152 1.378 . S
C1154 C1155 1.367 . S
C1155 C1154 1.367 . S
C1155 C1157 1.433 . S
C1156 C1152 1.350 . S
C1156 C1153 1.463 . S
C1156 N1160 1.427 . S
C1157 H1147 0.929 . S
C1157 C1155 1.433 . S
C1157 N1160 1.384 . S
C1158 H1149 0.929 . S
C1158 C1150 1.378 . S
C1158 C1153 1.350 . S
C1159 H1146 0.929 . S
C1159 C1151 1.433 . S
C1159 N1161 1.384 . S
N1160 C1156 1.427 . S
N1160 C1157 1.384 . S
N1161 C1153 1.427 . S
N1161 C1159 1.384 . S
H1162 C1168 0.930 . S
H1163 C1172 0.930 . S
H1164 C1177 0.929 . S
H1165 C1175 0.929 . S
H1166 C1170 0.929 . S
H1167 C1176 0.929 . S
C1168 H1162 0.930 . S
C1168 C1169 1.367 . S
C1168 C1176 1.378 . S
C1169 C1168 1.367 . S
C1169 C1177 1.433 . S
C1170 H1166 0.929 . S
C1170 C1172 1.378 . S
C1170 C1174 1.350 . S
C1171 C1174 1.463 . S
C1171 C1176 1.350 . S
C1171 N1179 1.427 . S
C1172 H1163 0.930 . S
C1172 C1170 1.378 . S
C1172 C1173 1.367 . S
C1173 C1172 1.367 . S
C1173 C1175 1.433 . S
C1174 C1170 1.350 . S
C1174 C1171 1.463 . S
C1174 N1178 1.427 . S
C1175 H1165 0.929 . S
C1175 C1173 1.433 . S
C1175 N1178 1.384 . S
C1176 H1167 0.929 . S
C1176 C1168 1.378 . S
C1176 C1171 1.350 . S
C1177 H1164 0.929 . S
C1177 C1169 1.433 . S
C1177 N1179 1.384 . S
N1178 C1174 1.427 . S
N1178 C1175 1.384 . S
N1179 C1171 1.427 . S
N1179 C1177 1.384 . S
H1180 C1186 0.930 . S
H1181 C1190 0.930 . S
H1182 C1195 0.929 . S
H1183 C1193 0.929 . S
H1184 C1188 0.929 . S
H1185 C1194 0.929 . S
C1186 H1180 0.930 . S
C1186 C1187 1.367 . S
C1186 C1194 1.378 . S
C1187 C1186 1.367 . S
C1187 C1195 1.433 . S
C1188 H1184 0.929 . S
C1188 C1190 1.378 . S
C1188 C1192 1.350 . S
C1189 C1192 1.463 . S
C1189 C1194 1.350 . S
C1189 N1197 1.427 . S
C1190 H1181 0.930 . S
C1190 C1188 1.378 . S
C1190 C1191 1.367 . S
C1191 C1190 1.367 . S
C1191 C1193 1.433 . S
C1192 C1188 1.350 . S
C1192 C1189 1.463 . S
C1192 N1196 1.427 . S
C1193 H1183 0.929 . S
C1193 C1191 1.433 . S
C1193 N1196 1.384 . S
C1194 H1185 0.929 . S
C1194 C1186 1.378 . S
C1194 C1189 1.350 . S
C1195 H1182 0.929 . S
C1195 C1187 1.433 . S
C1195 N1197 1.384 . S
N1196 C1192 1.427 . S
N1196 C1193 1.384 . S
N1197 C1189 1.427 . S
N1197 C1195 1.384 . S
H1198 C1204 0.930 . S
H1199 C1208 0.930 . S
H1200 C1213 0.929 . S
H1201 C1211 0.929 . S
H1202 C1206 0.929 . S
H1203 C1212 0.929 . S
C1204 H1198 0.930 . S
C1204 C1205 1.367 . S
C1204 C1212 1.378 . S
C1205 C1204 1.367 . S
C1205 C1213 1.433 . S
C1206 H1202 0.929 . S
C1206 C1208 1.378 . S
C1206 C1210 1.350 . S
C1207 C1210 1.463 . S
C1207 C1212 1.350 . S
C1207 N1215 1.427 . S
C1208 H1199 0.930 . S
C1208 C1206 1.378 . S
C1208 C1209 1.367 . S
C1209 C1208 1.367 . S
C1209 C1211 1.433 . S
C1210 C1206 1.350 . S
C1210 C1207 1.463 . S
C1210 N1214 1.427 . S
C1211 H1201 0.929 . S
C1211 C1209 1.433 . S
C1211 N1214 1.384 . S
C1212 H1203 0.929 . S
C1212 C1204 1.378 . S
C1212 C1207 1.350 . S
C1213 H1200 0.929 . S
C1213 C1205 1.433 . S
C1213 N1215 1.384 . S
N1214 C1210 1.427 . S
N1214 C1211 1.384 . S
N1215 C1207 1.427 . S
N1215 C1213 1.384 . S
H1216 C1222 0.930 . S
H1217 C1226 0.930 . S
H1218 C1231 0.929 . S
H1219 C1229 0.929 . S
H1220 C1224 0.929 . S
H1221 C1230 0.929 . S
C1222 H1216 0.930 . S
C1222 C1223 1.367 . S
C1222 C1230 1.378 . S
C1223 C1222 1.367 . S
C1223 C1231 1.433 . S
C1224 H1220 0.929 . S
C1224 C1226 1.378 . S
C1224 C1228 1.350 . S
C1225 C1228 1.463 . S
C1225 C1230 1.350 . S
C1225 N1233 1.427 . S
C1226 H1217 0.930 . S
C1226 C1224 1.378 . S
C1226 C1227 1.367 . S
C1227 C1226 1.367 . S
C1227 C1229 1.433 . S
C1228 C1224 1.350 . S
C1228 C1225 1.463 . S
C1228 N1232 1.427 . S
C1229 H1219 0.929 . S
C1229 C1227 1.433 . S
C1229 N1232 1.384 . S
C1230 H1221 0.929 . S
C1230 C1222 1.378 . S
C1230 C1225 1.350 . S
C1231 H1218 0.929 . S
C1231 C1223 1.433 . S
C1231 N1233 1.384 . S
N1232 C1228 1.427 . S
N1232 C1229 1.384 . S
N1233 C1225 1.427 . S
N1233 C1231 1.384 . S
H1234 C1240 0.930 . S
H1235 C1244 0.930 . S
H1236 C1249 0.929 . S
H1237 C1247 0.929 . S
H1238 C1242 0.929 . S
H1239 C1248 0.929 . S
C1240 H1234 0.930 . S
C1240 C1241 1.367 . S
C1240 C1248 1.378 . S
C1241 C1240 1.367 . S
C1241 C1249 1.433 . S
C1242 H1238 0.929 . S
C1242 C1244 1.378 . S
C1242 C1246 1.350 . S
C1243 C1246 1.463 . S
C1243 C1248 1.350 . S
C1243 N1251 1.427 . S
C1244 H1235 0.930 . S
C1244 C1242 1.378 . S
C1244 C1245 1.367 . S
C1245 C1244 1.367 . S
C1245 C1247 1.433 . S
C1246 C1242 1.350 . S
C1246 C1243 1.463 . S
C1246 N1250 1.427 . S
C1247 H1237 0.929 . S
C1247 C1245 1.433 . S
C1247 N1250 1.384 . S
C1248 H1239 0.929 . S
C1248 C1240 1.378 . S
C1248 C1243 1.350 . S
C1249 H1236 0.929 . S
C1249 C1241 1.433 . S
C1249 N1251 1.384 . S
N1250 C1246 1.427 . S
N1250 C1247 1.384 . S
N1251 C1243 1.427 . S
N1251 C1249 1.384 . S
H1252 C1258 0.930 . S
H1253 C1262 0.930 . S
H1254 C1267 0.929 . S
H1255 C1265 0.929 . S
H1256 C1260 0.929 . S
H1257 C1266 0.929 . S
C1258 H1252 0.930 . S
C1258 C1259 1.367 . S
C1258 C1266 1.378 . S
C1259 C1258 1.367 . S
C1259 C1267 1.433 . S
C1260 H1256 0.929 . S
C1260 C1262 1.378 . S
C1260 C1264 1.350 . S
C1261 C1264 1.463 . S
C1261 C1266 1.350 . S
C1261 N1269 1.427 . S
C1262 H1253 0.930 . S
C1262 C1260 1.378 . S
C1262 C1263 1.367 . S
C1263 C1262 1.367 . S
C1263 C1265 1.433 . S
C1264 C1260 1.350 . S
C1264 C1261 1.463 . S
C1264 N1268 1.427 . S
C1265 H1255 0.929 . S
C1265 C1263 1.433 . S
C1265 N1268 1.384 . S
C1266 H1257 0.929 . S
C1266 C1258 1.378 . S
C1266 C1261 1.350 . S
C1267 H1254 0.929 . S
C1267 C1259 1.433 . S
C1267 N1269 1.384 . S
N1268 C1264 1.427 . S
N1268 C1265 1.384 . S
N1269 C1261 1.427 . S
N1269 C1267 1.384 . S
H1270 C1276 0.930 . S
H1271 C1280 0.930 . S
H1272 C1285 0.929 . S
H1273 C1283 0.929 . S
H1274 C1278 0.929 . S
H1275 C1284 0.929 . S
C1276 H1270 0.930 . S
C1276 C1277 1.367 . S
C1276 C1284 1.378 . S
C1277 C1276 1.367 . S
C1277 C1285 1.433 . S
C1278 H1274 0.929 . S
C1278 C1280 1.378 . S
C1278 C1282 1.350 . S
C1279 C1282 1.463 . S
C1279 C1284 1.350 . S
C1279 N1287 1.427 . S
C1280 H1271 0.930 . S
C1280 C1278 1.378 . S
C1280 C1281 1.367 . S
C1281 C1280 1.367 . S
C1281 C1283 1.433 . S
C1282 C1278 1.350 . S
C1282 C1279 1.463 . S
C1282 N1286 1.427 . S
C1283 H1273 0.929 . S
C1283 C1281 1.433 . S
C1283 N1286 1.384 . S
C1284 H1275 0.929 . S
C1284 C1276 1.378 . S
C1284 C1279 1.350 . S
C1285 H1272 0.929 . S
C1285 C1277 1.433 . S
C1285 N1287 1.384 . S
N1286 C1282 1.427 . S
N1286 C1283 1.384 . S
N1287 C1279 1.427 . S
N1287 C1285 1.384 . S
H1288 C1294 0.930 . S
H1289 C1298 0.930 . S
H1290 C1303 0.929 . S
H1291 C1301 0.929 . S
H1292 C1296 0.929 . S
H1293 C1302 0.929 . S
C1294 H1288 0.930 . S
C1294 C1295 1.367 . S
C1294 C1302 1.378 . S
C1295 C1294 1.367 . S
C1295 C1303 1.433 . S
C1296 H1292 0.929 . S
C1296 C1298 1.378 . S
C1296 C1300 1.350 . S
C1297 C1300 1.463 . S
C1297 C1302 1.350 . S
C1297 N1305 1.427 . S
C1298 H1289 0.930 . S
C1298 C1296 1.378 . S
C1298 C1299 1.367 . S
C1299 C1298 1.367 . S
C1299 C1301 1.433 . S
C1300 C1296 1.350 . S
C1300 C1297 1.463 . S
C1300 N1304 1.427 . S
C1301 H1291 0.929 . S
C1301 C1299 1.433 . S
C1301 N1304 1.384 . S
C1302 H1293 0.929 . S
C1302 C1294 1.378 . S
C1302 C1297 1.350 . S
C1303 H1290 0.929 . S
C1303 C1295 1.433 . S
C1303 N1305 1.384 . S
N1304 C1300 1.427 . S
N1304 C1301 1.384 . S
N1305 C1297 1.427 . S
N1305 C1303 1.384 . S
H1306 C1312 0.930 . S
H1307 C1316 0.930 . S
H1308 C1321 0.929 . S
H1309 C1319 0.929 . S
H1310 C1314 0.929 . S
H1311 C1320 0.929 . S
C1312 H1306 0.930 . S
C1312 C1313 1.367 . S
C1312 C1320 1.378 . S
C1313 C1312 1.367 . S
C1313 C1321 1.433 . S
C1314 H1310 0.929 . S
C1314 C1316 1.378 . S
C1314 C1318 1.350 . S
C1315 C1318 1.463 . S
C1315 C1320 1.350 . S
C1315 N1323 1.427 . S
C1316 H1307 0.930 . S
C1316 C1314 1.378 . S
C1316 C1317 1.367 . S
C1317 C1316 1.367 . S
C1317 C1319 1.433 . S
C1318 C1314 1.350 . S
C1318 C1315 1.463 . S
C1318 N1322 1.427 . S
C1319 H1309 0.929 . S
C1319 C1317 1.433 . S
C1319 N1322 1.384 . S
C1320 H1311 0.929 . S
C1320 C1312 1.378 . S
C1320 C1315 1.350 . S
C1321 H1308 0.929 . S
C1321 C1313 1.433 . S
C1321 N1323 1.384 . S
N1322 C1318 1.427 . S
N1322 C1319 1.384 . S
N1323 C1315 1.427 . S
N1323 C1321 1.384 . S
H1324 C1330 0.930 . S
H1325 C1334 0.930 . S
H1326 C1339 0.929 . S
H1327 C1337 0.929 . S
H1328 C1332 0.929 . S
H1329 C1338 0.929 . S
C1330 H1324 0.930 . S
C1330 C1331 1.367 . S
C1330 C1338 1.378 . S
C1331 C1330 1.367 . S
C1331 C1339 1.433 . S
C1332 H1328 0.929 . S
C1332 C1334 1.378 . S
C1332 C1336 1.350 . S
C1333 C1336 1.463 . S
C1333 C1338 1.350 . S
C1333 N1341 1.427 . S
C1334 H1325 0.930 . S
C1334 C1332 1.378 . S
C1334 C1335 1.367 . S
C1335 C1334 1.367 . S
C1335 C1337 1.433 . S
C1336 C1332 1.350 . S
C1336 C1333 1.463 . S
C1336 N1340 1.427 . S
C1337 H1327 0.929 . S
C1337 C1335 1.433 . S
C1337 N1340 1.384 . S
C1338 H1329 0.929 . S
C1338 C1330 1.378 . S
C1338 C1333 1.350 . S
C1339 H1326 0.929 . S
C1339 C1331 1.433 . S
C1339 N1341 1.384 . S
N1340 C1336 1.427 . S
N1340 C1337 1.384 . S
N1341 C1333 1.427 . S
N1341 C1339 1.384 . S
H1342 C1348 0.930 . S
H1343 C1352 0.930 . S
H1344 C1357 0.929 . S
H1345 C1355 0.929 . S
H1346 C1350 0.929 . S
H1347 C1356 0.929 . S
C1348 H1342 0.930 . S
C1348 C1349 1.367 . S
C1348 C1356 1.378 . S
C1349 C1348 1.367 . S
C1349 C1357 1.433 . S
C1350 H1346 0.929 . S
C1350 C1352 1.378 . S
C1350 C1354 1.350 . S
C1351 C1354 1.463 . S
C1351 C1356 1.350 . S
C1351 N1359 1.427 . S
C1352 H1343 0.930 . S
C1352 C1350 1.378 . S
C1352 C1353 1.367 . S
C1353 C1352 1.367 . S
C1353 C1355 1.433 . S
C1354 C1350 1.350 . S
C1354 C1351 1.463 . S
C1354 N1358 1.427 . S
C1355 H1345 0.929 . S
C1355 C1353 1.433 . S
C1355 N1358 1.384 . S
C1356 H1347 0.929 . S
C1356 C1348 1.378 . S
C1356 C1351 1.350 . S
C1357 H1344 0.929 . S
C1357 C1349 1.433 . S
C1357 N1359 1.384 . S
N1358 C1354 1.427 . S
N1358 C1355 1.384 . S
N1359 C1351 1.427 . S
N1359 C1357 1.384 . S
H1360 C1366 0.930 . S
H1361 C1370 0.930 . S
H1362 C1375 0.929 1_556 S
H1363 C1373 0.929 . S
H1364 C1368 0.929 . S
H1365 C1374 0.929 . S
C1366 H1360 0.930 . S
C1366 C1367 1.352 1_554 S
C1366 C1374 1.378 . S
C1367 C1366 1.352 1_556 S
C1367 C1375 1.427 1_556 S
C1368 H1364 0.929 . S
C1368 C1370 1.378 . S
C1368 C1372 1.350 . S
C1369 C1372 1.463 . S
C1369 C1374 1.350 . S
C1369 N1377 1.427 . S
C1370 H1361 0.930 . S
C1370 C1368 1.378 . S
C1370 C1371 1.367 . S
C1371 C1370 1.367 . S
C1371 C1373 1.433 . S
C1372 C1368 1.350 . S
C1372 C1369 1.463 . S
C1372 N1376 1.427 . S
C1373 H1363 0.929 . S
C1373 C1371 1.433 . S
C1373 N1376 1.384 . S
C1374 H1365 0.929 . S
C1374 C1366 1.378 . S
C1374 C1369 1.350 . S
C1375 H1362 0.929 1_554 S
C1375 C1367 1.427 1_554 S
C1375 N1377 1.384 . S
N1376 C1372 1.427 . S
N1376 C1373 1.384 . S
N1377 C1369 1.427 . S
N1377 C1375 1.384 . S
H1378 C1384 0.930 . S
H1379 C1388 0.930 . S
H1380 C1393 0.929 . S
H1381 C1391 0.929 1_554 S
H1382 C1386 0.929 . S
H1383 C1392 0.929 . S
C1384 H1378 0.930 . S
C1384 C1385 1.367 . S
C1384 C1392 1.378 . S
C1385 C1384 1.367 . S
C1385 C1393 1.433 . S
C1386 H1382 0.929 . S
C1386 C1388 1.378 . S
C1386 C1390 1.350 . S
C1387 C1390 1.463 . S
C1387 C1392 1.350 . S
C1387 N1395 1.427 . S
C1388 H1379 0.930 . S
C1388 C1386 1.378 . S
C1388 C1389 1.367 1_556 S
C1389 C1388 1.367 1_554 S
C1389 C1391 1.433 1_554 S
C1390 C1386 1.350 . S
C1390 C1387 1.463 . S
C1390 N1394 1.427 . S
C1391 H1381 0.929 1_556 S
C1391 C1389 1.433 1_556 S
C1391 N1394 1.384 . S
C1392 H1383 0.929 . S
C1392 C1384 1.378 . S
C1392 C1387 1.350 . S
C1393 H1380 0.929 . S
C1393 C1385 1.433 . S
C1393 N1395 1.384 . S
N1394 C1390 1.427 . S
N1394 C1391 1.384 . S
N1395 C1387 1.427 . S
N1395 C1393 1.384 . S
H1396 C1402 0.930 . S
H1397 C1406 0.930 . S
H1398 C1411 0.929 . S
H1399 C1409 0.929 . S
H1400 C1404 0.929 . S
H1401 C1410 0.929 . S
C1402 H1396 0.930 . S
C1402 C1403 1.367 . S
C1402 C1410 1.378 . S
C1403 C1402 1.367 . S
C1403 C1411 1.433 . S
C1404 H1400 0.929 . S
C1404 C1406 1.378 . S
C1404 C1408 1.350 . S
C1405 C1408 1.463 . S
C1405 C1410 1.350 . S
C1405 N1413 1.427 . S
C1406 H1397 0.930 . S
C1406 C1404 1.378 . S
C1406 C1407 1.367 1_554 S
C1407 C1406 1.367 1_556 S
C1407 C1409 1.433 1_556 S
C1408 C1404 1.350 . S
C1408 C1405 1.463 . S
C1408 N1412 1.427 . S
C1409 H1399 0.929 . S
C1409 C1407 1.433 1_554 S
C1409 N1412 1.384 . S
C1410 H1401 0.929 . S
C1410 C1402 1.378 . S
C1410 C1405 1.350 . S
C1411 H1398 0.929 . S
C1411 C1403 1.433 . S
C1411 N1413 1.384 . S
N1412 C1408 1.427 . S
N1412 C1409 1.384 . S
N1413 C1405 1.427 . S
N1413 C1411 1.384 . S
H1414 C1420 0.930 . S
H1415 C1424 0.930 . S
H1416 C1429 0.929 1_554 S
H1417 C1427 0.929 . S
H1418 C1422 0.929 . S
H1419 C1428 0.929 . S
C1420 H1414 0.930 . S
C1420 C1421 1.352 1_556 S
C1420 C1428 1.378 . S
C1421 C1420 1.352 1_554 S
C1421 C1429 1.427 1_554 S
C1422 H1418 0.929 . S
C1422 C1424 1.378 . S
C1422 C1426 1.350 . S
C1423 C1426 1.463 . S
C1423 C1428 1.350 . S
C1423 N1431 1.427 . S
C1424 H1415 0.930 . S
C1424 C1422 1.378 . S
C1424 C1425 1.367 . S
C1425 C1424 1.367 . S
C1425 C1427 1.433 . S
C1426 C1422 1.350 . S
C1426 C1423 1.463 . S
C1426 N1430 1.427 . S
C1427 H1417 0.929 . S
C1427 C1425 1.433 . S
C1427 N1430 1.384 . S
C1428 H1419 0.929 . S
C1428 C1420 1.378 . S
C1428 C1423 1.350 . S
C1429 H1416 0.929 1_556 S
C1429 C1421 1.427 1_556 S
C1429 N1431 1.384 . S
N1430 C1426 1.427 . S
N1430 C1427 1.384 . S
N1431 C1423 1.427 . S
N1431 C1429 1.384 . S
H1432 C1438 0.930 . S
H1433 C1442 0.930 1_556 S
H1434 C1447 0.929 . S
H1435 C1445 0.929 . S
H1436 C1440 0.929 . S
H1437 C1446 0.929 . S
C1438 H1432 0.930 . S
C1438 C1439 1.367 . S
C1438 C1446 1.378 . S
C1439 C1438 1.367 . S
C1439 C1447 1.433 . S
C1440 H1436 0.929 . S
C1440 C1442 1.378 . S
C1440 C1444 1.350 . S
C1441 C1444 1.463 . S
C1441 C1446 1.350 . S
C1441 N1449 1.427 . S
C1442 H1433 0.930 1_554 S
C1442 C1440 1.378 . S
C1442 C1443 1.367 1_554 S
C1443 C1442 1.367 1_556 S
C1443 C1445 1.433 1_556 S
C1444 C1440 1.350 . S
C1444 C1441 1.463 . S
C1444 N1448 1.427 . S
C1445 H1435 0.929 . S
C1445 C1443 1.433 1_554 S
C1445 N1448 1.384 . S
C1446 H1437 0.929 . S
C1446 C1438 1.378 . S
C1446 C1441 1.350 . S
C1447 H1434 0.929 . S
C1447 C1439 1.433 . S
C1447 N1449 1.384 . S
N1448 C1444 1.427 . S
N1448 C1445 1.384 . S
N1449 C1441 1.427 . S
N1449 C1447 1.384 . S
H1450 C1456 0.930 . S
H1451 C1460 0.930 . S
H1452 C1465 0.929 1_554 S
H1453 C1463 0.929 . S
H1454 C1458 0.929 . S
H1455 C1464 0.929 . S
C1456 H1450 0.930 . S
C1456 C1457 1.367 1_556 S
C1456 C1464 1.378 . S
C1457 C1456 1.367 1_554 S
C1457 C1465 1.433 1_554 S
C1458 H1454 0.929 . S
C1458 C1460 1.378 . S
C1458 C1462 1.350 . S
C1459 C1462 1.463 . S
C1459 C1464 1.350 . S
C1459 N1467 1.427 . S
C1460 H1451 0.930 . S
C1460 C1458 1.378 . S
C1460 C1461 1.367 . S
C1461 C1460 1.367 . S
C1461 C1463 1.433 . S
C1462 C1458 1.350 . S
C1462 C1459 1.463 . S
C1462 N1466 1.427 . S
C1463 H1453 0.929 . S
C1463 C1461 1.433 . S
C1463 N1466 1.384 . S
C1464 H1455 0.929 . S
C1464 C1456 1.378 . S
C1464 C1459 1.350 . S
C1465 H1452 0.929 1_556 S
C1465 C1457 1.433 1_556 S
C1465 N1467 1.384 . S
N1466 C1462 1.427 . S
N1466 C1463 1.384 . S
N1467 C1459 1.427 . S
N1467 C1465 1.384 . S
H1468 C1474 0.930 1_556 S
H1469 C1478 0.930 . S
H1470 C1483 0.929 . S
H1471 C1481 0.929 . S
H1472 C1476 0.929 . S
H1473 C1482 0.929 . S
C1474 H1468 0.930 1_554 S
C1474 C1475 1.367 1_554 S
C1474 C1482 1.378 . S
C1475 C1474 1.367 1_556 S
C1475 C1483 1.433 1_556 S
C1476 H1472 0.929 . S
C1476 C1478 1.378 . S
C1476 C1480 1.350 . S
C1477 C1480 1.463 . S
C1477 C1482 1.350 . S
C1477 N1485 1.427 . S
C1478 H1469 0.930 . S
C1478 C1476 1.378 . S
C1478 C1479 1.367 . S
C1479 C1478 1.367 . S
C1479 C1481 1.433 . S
C1480 C1476 1.350 . S
C1480 C1477 1.463 . S
C1480 N1484 1.427 . S
C1481 H1471 0.929 . S
C1481 C1479 1.433 . S
C1481 N1484 1.384 . S
C1482 H1473 0.929 . S
C1482 C1474 1.378 . S
C1482 C1477 1.350 . S
C1483 H1470 0.929 . S
C1483 C1475 1.433 1_554 S
C1483 N1485 1.384 . S
N1484 C1480 1.427 . S
N1484 C1481 1.384 . S
N1485 C1477 1.427 . S
N1485 C1483 1.384 . S
H1486 C1492 0.930 . S
H1487 C1496 0.930 . S
H1488 C1501 0.929 . S
H1489 C1499 0.929 1_554 S
H1490 C1494 0.929 . S
H1491 C1500 0.929 . S
C1492 H1486 0.930 . S
C1492 C1493 1.367 . S
C1492 C1500 1.378 . S
C1493 C1492 1.367 . S
C1493 C1501 1.433 . S
C1494 H1490 0.929 . S
C1494 C1496 1.378 . S
C1494 C1498 1.350 . S
C1495 C1498 1.463 . S
C1495 C1500 1.350 . S
C1495 N1503 1.427 . S
C1496 H1487 0.930 . S
C1496 C1494 1.378 . S
C1496 C1497 1.367 1_556 S
C1497 C1496 1.367 1_554 S
C1497 C1499 1.433 1_554 S
C1498 C1494 1.350 . S
C1498 C1495 1.463 . S
C1498 N1502 1.427 . S
C1499 H1489 0.929 1_556 S
C1499 C1497 1.433 1_556 S
C1499 N1502 1.384 . S
C1500 H1491 0.929 . S
C1500 C1492 1.378 . S
C1500 C1495 1.350 . S
C1501 H1488 0.929 . S
C1501 C1493 1.433 . S
C1501 N1503 1.384 . S
N1502 C1498 1.427 . S
N1502 C1499 1.384 . S
N1503 C1495 1.427 . S
N1503 C1501 1.384 . S
C647 C460 1.703 . S
C651 C2 1.704 . S
C665 C351 1.703 . S
C669 C63 1.704 . S
C683 C82 1.708 . S
C687 C380 1.706 . S
C701 C143 1.711 . S
C705 C431 1.709 . S
C719 C162 1.710 . S
C723 C220 1.709 . S
C737 C271 1.703 . S
C741 C223 1.704 . S
C755 C242 1.704 . S
C759 C300 1.703 . S
C773 C191 1.703 . S
C777 C303 1.704 . S
C791 C140 1.703 . S
C795 C322 1.704 . S
C809 C383 1.708 . S
C813 C31 1.706 . S
C827 C60 1.703 . S
C831 C402 1.704 . S
C845 C111 1.709 . S
C849 C463 1.710 . S
C863 C482 1.710 . S
C867 C540 1.709 . S
C881 C591 1.703 . S
C885 C543 1.704 . S
C899 C620 1.704 . S
C903 C562 1.706 . S
C917 C623 1.710 . S
C921 C511 1.709 . S
C935 C23 1.196 . S
C939 C183 1.196 . S
C953 C202 1.194 . S
C957 C42 1.192 . S
C971 C103 1.191 . S
C975 C263 1.193 . S
C989 C122 1.178 . S
C993 C282 1.180 . S
C1007 C343 1.190 . S
C1011 C503 1.191 . S
C1025 C522 1.175 . S
C1029 C362 1.174 . S
C1043 C423 1.185 . S
C1047 C583 1.187 . S
C1061 C442 1.178 . S
C1065 C602 1.180 . S
C1079 C580 2.374 . S
C1083 C20 2.374 1_556 S
C1097 C71 2.374 1_554 S
C1101 C631 2.374 . S
C1115 C100 2.374 1_556 S
C1119 C500 2.374 . S
C1133 C151 2.367 1_554 S
C1137 C551 2.366 . S
C1151 C180 2.369 . S
C1155 C420 2.369 . S
C1169 C231 2.368 . S
C1173 C471 2.367 . S
C1187 C260 2.372 . S
C1191 C340 2.373 . S
C1205 C391 2.373 . S
C1209 C311 2.374 . S
C1223 C25 1.016 . S
C1227 C4 1.016 . S
C1241 C44 1.016 . S
C1245 C65 1.016 . S
C1259 C105 1.004 . S
C1263 C84 1.004 . S
C1277 C145 1.013 . S
C1281 C124 1.013 . S
C1295 C164 1.011 . S
C1299 C185 1.011 . S
C1313 C204 1.016 . S
C1317 C225 1.016 . S
C1331 C265 1.003 . S
C1335 C244 1.003 . S
C1349 C305 1.013 . S
C1353 C284 1.013 . S
C1367 C345 1.039 . S
C1371 C324 1.017 . S
C1385 C385 1.014 . S
C1389 C364 1.014 . S
C1403 C404 1.008 . S
C1407 C425 1.008 . S
C1421 C444 1.039 . S
C1425 C465 1.017 . S
C1439 C505 1.003 . S
C1443 C484 1.003 . S
C1457 C545 1.012 . S
C1461 C524 1.012 . S
C1475 C564 1.007 . S
C1479 C585 1.007 . S
C1493 C604 1.017 . S
C1497 C625 1.017 . S
