# Generated by pormake.
# Topology noy, (5)-cn, num edge types: 1
# Building blocks:
#     Node 0, Type 0, BuildingBlock: BEQFEK_clean_sbu_0, # of connection points: 5
#     Node 1, Type 0, BuildingBlock: BEQFEK_clean_sbu_0, # of connection points: 5
#     Node 2, Type 0, BuildingBlock: BEQFEK_clean_sbu_0, # of connection points: 5
#     Node 3, Type 0, BuildingBlock: BEQFEK_clean_sbu_0, # of connection points: 5
#     Node 4, Type 0, BuildingBlock: BEQFEK_clean_sbu_0, # of connection points: 5
#     Node 5, Type 0, BuildingBlock: BEQFEK_clean_sbu_0, # of connection points: 5
#     Node 6, Type 0, BuildingBlock: BEQFEK_clean_sbu_0, # of connection points: 5
#     Node 7, Type 0, BuildingBlock: BEQFEK_clean_sbu_0, # of connection points: 5
#     Edge 8, Type (0, 0), BuildingBlock: MIFKUJ_clean_linker_0, # of connection points: 2
#     Edge 9, Type (0, 0), BuildingBlock: MIFKUJ_clean_linker_0, # of connection points: 2
#     Edge 10, Type (0, 0), BuildingBlock: MIFKUJ_clean_linker_0, # of connection points: 2
#     Edge 11, Type (0, 0), BuildingBlock: MIFKUJ_clean_linker_0, # of connection points: 2
#     Edge 12, Type (0, 0), BuildingBlock: MIFKUJ_clean_linker_0, # of connection points: 2
#     Edge 13, Type (0, 0), BuildingBlock: MIFKUJ_clean_linker_0, # of connection points: 2
#     Edge 14, Type (0, 0), BuildingBlock: MIFKUJ_clean_linker_0, # of connection points: 2
#     Edge 15, Type (0, 0), BuildingBlock: MIFKUJ_clean_linker_0, # of connection points: 2
#     Edge 16, Type (0, 0), BuildingBlock: MIFKUJ_clean_linker_0, # of connection points: 2
#     Edge 17, Type (0, 0), BuildingBlock: MIFKUJ_clean_linker_0, # of connection points: 2
#     Edge 18, Type (0, 0), BuildingBlock: MIFKUJ_clean_linker_0, # of connection points: 2
#     Edge 19, Type (0, 0), BuildingBlock: MIFKUJ_clean_linker_0, # of connection points: 2
#     Edge 20, Type (0, 0), BuildingBlock: MIFKUJ_clean_linker_0, # of connection points: 2
#     Edge 21, Type (0, 0), BuildingBlock: MIFKUJ_clean_linker_0, # of connection points: 2
#     Edge 22, Type (0, 0), BuildingBlock: MIFKUJ_clean_linker_0, # of connection points: 2
#     Edge 23, Type (0, 0), BuildingBlock: MIFKUJ_clean_linker_0, # of connection points: 2
#     Edge 24, Type (0, 0), BuildingBlock: MIFKUJ_clean_linker_0, # of connection points: 2
#     Edge 25, Type (0, 0), BuildingBlock: MIFKUJ_clean_linker_0, # of connection points: 2
#     Edge 26, Type (0, 0), BuildingBlock: MIFKUJ_clean_linker_0, # of connection points: 2
#     Edge 27, Type (0, 0), BuildingBlock: MIFKUJ_clean_linker_0, # of connection points: 2
# Relax obj value: 0.042
# Max RMSD: 0.089
# Mean RMSD: 0.089
data_MOF--net-noy--node1-BEQFEK_clean_sbu_0--edge1-MIFKUJ_clean_linker_0
_symmetry_space_group_name_H-M    P1
_symmetry_Int_Tables_number       1
_symmetry_cell_setting            triclinic
loop_
_symmetry_equiv_pos_as_xyz
'x, y, z'
_cell_length_a     57.667063
_cell_length_b     59.266018
_cell_length_c     30.318893
_cell_angle_alpha  89.982393
_cell_angle_beta   90.030208
_cell_angle_gamma 90.030702
loop_
_atom_site_label
_atom_site_type_symbol
_atom_site_fract_x
_atom_site_fract_y
_atom_site_fract_z
_atom_type_partial_charge
Co0 Co 0.3329 0.40009 0.25673 0.0
Co1 Co 0.33338 0.36573 0.17767 0.0
C2 C 0.32108 0.41404 0.16315 0.0
O3 O 0.32413 0.4182 0.20398 0.0
O4 O 0.32362 0.39415 0.14792 0.0
C5 C 0.31038 0.4294 0.32002 0.0
O6 O 0.29158 0.42542 0.29679 0.0
C7 C 0.3161 0.33619 0.10572 0.0
C8 C 0.34255 0.30927 0.10651 0.0
C9 C 0.32204 0.31568 0.08612 0.0
N10 N 0.33222 0.34127 0.13634 0.0
N11 N 0.3481 0.32523 0.13616 0.0
C12 C 0.29458 0.34986 0.09879 0.0
H13 H 0.29165 0.36134 0.12717 0.0
H14 H 0.27931 0.33867 0.09451 0.0
H15 H 0.29663 0.36028 0.06863 0.0
C16 C 0.30396 0.36395 0.2965 0.0
N17 N 0.31514 0.37324 0.26192 0.0
N18 N 0.31468 0.35907 0.22846 0.0
C19 C 0.30262 0.34051 0.24051 0.0
C20 C 0.29546 0.34296 0.28407 0.0
C21 C 0.30428 0.37352 0.34221 0.0
H22 H 0.3207 0.38277 0.34807 0.0
H23 H 0.28956 0.38541 0.34601 0.0
H24 H 0.30255 0.36005 0.36741 0.0
O25 O 0.36588 0.3918 0.25339 0.0
O26 O 0.36671 0.3686 0.19583 0.0
H27 H 0.31466 0.31222 0.20319 0.0
H28 H 0.28581 0.30859 0.22569 0.0
C29 C 0.29807 0.32082 0.21084 0.0
H30 H 0.29039 0.32692 0.17964 0.0
H31 H 0.36245 0.3249 0.15713 0.0
O32 O 0.32935 0.42008 0.30895 0.0
C33 C 0.37697 0.37914 0.22688 0.0
Co34 Co 0.66919 0.60948 0.74964 0.0
Co35 Co 0.66751 0.64542 0.67338 0.0
C36 C 0.68039 0.59662 0.65682 0.0
O37 O 0.6786 0.5916 0.6975 0.0
O38 O 0.6766 0.61666 0.6433 0.0
C39 C 0.6893 0.57656 0.80828 0.0
O40 O 0.70594 0.57589 0.77874 0.0
C41 C 0.68776 0.67508 0.60502 0.0
C42 C 0.65844 0.6979 0.59068 0.0
C43 C 0.68118 0.69332 0.57899 0.0
N44 N 0.66978 0.66935 0.63105 0.0
N45 N 0.65233 0.68307 0.62224 0.0
C46 C 0.71017 0.66236 0.60339 0.0
H47 H 0.70819 0.6454 0.61835 0.0
H48 H 0.72357 0.67164 0.62233 0.0
H49 H 0.71625 0.6608 0.5688 0.0
C50 C 0.69862 0.64499 0.79039 0.0
N51 N 0.68685 0.63645 0.75575 0.0
N52 N 0.68611 0.65167 0.72408 0.0
C53 C 0.69726 0.67044 0.73785 0.0
C54 C 0.70568 0.66677 0.78017 0.0
C55 C 0.70234 0.63268 0.83291 0.0
H56 H 0.68533 0.62769 0.84695 0.0
H57 H 0.71239 0.61711 0.82637 0.0
H58 H 0.712 0.64301 0.85724 0.0
O59 O 0.6358 0.61701 0.74429 0.0
O60 O 0.63446 0.6433 0.69202 0.0
H61 H 0.67973 0.69557 0.69933 0.0
H62 H 0.70171 0.70674 0.7357 0.0
C63 C 0.69712 0.69247 0.71366 0.0
H64 H 0.70992 0.69181 0.68648 0.0
H65 H 0.63617 0.68225 0.63764 0.0
O66 O 0.67234 0.58995 0.80258 0.0
C67 C 0.62442 0.63088 0.72057 0.0
Co68 Co 0.33289 0.60778 0.7584 0.0
Co69 Co 0.33435 0.64476 0.83277 0.0
C70 C 0.32105 0.59663 0.85238 0.0
O71 O 0.32306 0.59111 0.81195 0.0
O72 O 0.32492 0.6168 0.86511 0.0
C73 C 0.3114 0.57546 0.6998 0.0
O74 O 0.29377 0.57692 0.7271 0.0
C75 C 0.31715 0.67476 0.90355 0.0
C76 C 0.34254 0.70263 0.90031 0.0
C77 C 0.32269 0.69559 0.92214 0.0
N78 N 0.33295 0.66996 0.87224 0.0
N79 N 0.34819 0.68659 0.87085 0.0
C80 C 0.29617 0.66055 0.91207 0.0
H81 H 0.29255 0.64949 0.88335 0.0
H82 H 0.28085 0.67133 0.91889 0.0
H83 H 0.29942 0.64969 0.94124 0.0
C84 C 0.30389 0.64296 0.71519 0.0
N85 N 0.31557 0.6348 0.75028 0.0
N86 N 0.31555 0.65003 0.7819 0.0
C87 C 0.30356 0.66827 0.76805 0.0
C88 C 0.2958 0.66444 0.72525 0.0
C89 C 0.30285 0.63148 0.67125 0.0
H90 H 0.3197 0.62329 0.664 0.0
H91 H 0.28923 0.61826 0.67217 0.0
H92 H 0.29875 0.64353 0.64437 0.0
O93 O 0.3663 0.6149 0.76335 0.0
O94 O 0.36739 0.64204 0.81391 0.0
H95 H 0.31651 0.69764 0.80079 0.0
H96 H 0.28737 0.70082 0.77943 0.0
C97 C 0.2997 0.68899 0.79529 0.0
H98 H 0.29253 0.68408 0.82774 0.0
H99 H 0.36219 0.68721 0.84909 0.0
O100 O 0.32943 0.58725 0.70699 0.0
C101 C 0.37755 0.62917 0.78635 0.0
Co102 Co 0.66791 0.40172 0.25113 0.0
Co103 Co 0.66872 0.36591 0.32763 0.0
C104 C 0.68006 0.41404 0.34566 0.0
O105 O 0.6768 0.41885 0.30513 0.0
O106 O 0.67782 0.39387 0.35968 0.0
C107 C 0.68999 0.43232 0.19023 0.0
O108 O 0.70866 0.42819 0.21373 0.0
C109 C 0.68467 0.33632 0.40057 0.0
C110 C 0.66515 0.30511 0.38576 0.0
C111 C 0.6816 0.31411 0.41397 0.0
N112 N 0.67071 0.3402 0.36576 0.0
N113 N 0.65883 0.32157 0.35765 0.0
C114 C 0.70216 0.35283 0.41747 0.0
H115 H 0.7092 0.36298 0.38978 0.0
H116 H 0.71652 0.34412 0.43496 0.0
H117 H 0.69351 0.36451 0.44082 0.0
C118 C 0.69767 0.36711 0.2084 0.0
N119 N 0.68624 0.37546 0.24359 0.0
N120 N 0.6876 0.36097 0.27641 0.0
C121 C 0.70069 0.34327 0.26349 0.0
C122 C 0.70734 0.34646 0.21985 0.0
C123 C 0.69673 0.37722 0.16317 0.0
H124 H 0.68006 0.38616 0.1582 0.0
H125 H 0.71115 0.38947 0.15946 0.0
H126 H 0.69859 0.36408 0.13736 0.0
O127 O 0.63507 0.3928 0.25456 0.0
O128 O 0.6353 0.36835 0.31014 0.0
H129 H 0.69209 0.31213 0.29503 0.0
H130 H 0.72215 0.31443 0.27918 0.0
C131 C 0.70706 0.32381 0.29251 0.0
H132 H 0.71149 0.33 0.3259 0.0
H133 H 0.64705 0.31984 0.33173 0.0
O134 O 0.67104 0.42265 0.20031 0.0
C135 C 0.6245 0.37933 0.28035 0.0
Co136 Co 0.83236 0.90177 0.2521 0.0
Co137 Co 0.83323 0.86768 0.17247 0.0
C138 C 0.82082 0.91655 0.15975 0.0
O139 O 0.82362 0.92062 0.20064 0.0
O140 O 0.82359 0.89671 0.14437 0.0
C141 C 0.81224 0.9341 0.31183 0.0
O142 O 0.79576 0.93521 0.28195 0.0
C143 C 0.81327 0.83811 0.10317 0.0
C144 C 0.84309 0.81602 0.08827 0.0
C145 C 0.8202 0.82009 0.07688 0.0
N146 N 0.8312 0.84417 0.1291 0.0
N147 N 0.84895 0.83089 0.11989 0.0
C148 C 0.79056 0.85031 0.10185 0.0
H149 H 0.79212 0.86716 0.11742 0.0
H150 H 0.77734 0.84052 0.12025 0.0
H151 H 0.7845 0.85205 0.06725 0.0
C152 C 0.80279 0.86598 0.29027 0.0
N153 N 0.8143 0.87509 0.25596 0.0
N154 N 0.81495 0.86043 0.22332 0.0
C155 C 0.80394 0.84139 0.2362 0.0
C156 C 0.79577 0.84437 0.2789 0.0
C157 C 0.79955 0.87746 0.33379 0.0
H158 H 0.81674 0.88194 0.34777 0.0
H159 H 0.78969 0.89329 0.3287 0.0
H160 H 0.78992 0.86678 0.35758 0.0
O161 O 0.86546 0.8933 0.24783 0.0
O162 O 0.86652 0.87018 0.19012 0.0
H163 H 0.82138 0.81692 0.19601 0.0
H164 H 0.79966 0.80512 0.23219 0.0
C165 C 0.80406 0.81972 0.21084 0.0
H166 H 0.79109 0.8207 0.18397 0.0
H167 H 0.86513 0.83198 0.1352 0.0
O168 O 0.82911 0.92064 0.30597 0.0
C169 C 0.87668 0.88075 0.22126 0.0
Co170 Co 0.169 0.10663 0.75453 0.0
Co171 Co 0.16936 0.14241 0.67807 0.0
C172 C 0.18277 0.09448 0.6613 0.0
O173 O 0.17939 0.08957 0.7017 0.0
O174 O 0.17987 0.11454 0.64719 0.0
C175 C 0.19138 0.07794 0.81875 0.0
O176 O 0.21059 0.08388 0.79857 0.0
C177 C 0.18694 0.17241 0.60745 0.0
C178 C 0.16074 0.19957 0.6087 0.0
C179 C 0.1811 0.19299 0.58802 0.0
N180 N 0.17085 0.1674 0.63812 0.0
N181 N 0.15515 0.1836 0.63832 0.0
C182 C 0.20829 0.15855 0.60024 0.0
H183 H 0.21142 0.14729 0.62888 0.0
H184 H 0.2236 0.1696 0.59513 0.0
H185 H 0.20587 0.14789 0.57051 0.0
C186 C 0.19611 0.14309 0.79889 0.0
N187 N 0.18587 0.13398 0.76303 0.0
N188 N 0.18706 0.14847 0.73016 0.0
C189 C 0.19874 0.16696 0.74376 0.0
C190 C 0.20479 0.16425 0.78787 0.0
C191 C 0.19482 0.13317 0.84426 0.0
H192 H 0.17876 0.12307 0.848 0.0
H193 H 0.21003 0.12208 0.8497 0.0
H194 H 0.19503 0.14659 0.86979 0.0
O195 O 0.13578 0.11359 0.74801 0.0
O196 O 0.13589 0.13913 0.69439 0.0
H197 H 0.18789 0.19613 0.70769 0.0
H198 H 0.21688 0.19832 0.73027 0.0
C199 C 0.20411 0.18677 0.71487 0.0
H200 H 0.21147 0.18074 0.68335 0.0
H201 H 0.14082 0.18396 0.65933 0.0
O202 O 0.1721 0.08591 0.80567 0.0
C203 C 0.12505 0.12709 0.72252 0.0
Co204 Co 0.83168 0.10982 0.75452 0.0
Co205 Co 0.83584 0.14669 0.82857 0.0
C206 C 0.82088 0.09875 0.84833 0.0
O207 O 0.82219 0.09309 0.80791 0.0
O208 O 0.82556 0.11883 0.86066 0.0
C209 C 0.81055 0.07664 0.69648 0.0
O210 O 0.79323 0.07685 0.72459 0.0
C211 C 0.81767 0.17807 0.89547 0.0
C212 C 0.84724 0.20133 0.90433 0.0
C213 C 0.82472 0.19729 0.91831 0.0
N214 N 0.8352 0.17128 0.86941 0.0
N215 N 0.85287 0.18516 0.87514 0.0
C216 C 0.79427 0.16715 0.89543 0.0
H217 H 0.79182 0.15704 0.86498 0.0
H218 H 0.78041 0.18008 0.89801 0.0
H219 H 0.79295 0.15562 0.92416 0.0
C220 C 0.80229 0.14561 0.71391 0.0
N221 N 0.81477 0.13728 0.74783 0.0
N222 N 0.81712 0.15305 0.77811 0.0
C223 C 0.80674 0.17211 0.76382 0.0
C224 C 0.79687 0.16804 0.72271 0.0
C225 C 0.79561 0.13213 0.67412 0.0
H226 H 0.78677 0.1165 0.68491 0.0
H227 H 0.78361 0.14144 0.65211 0.0
H228 H 0.81145 0.12729 0.65566 0.0
O229 O 0.86548 0.11638 0.75803 0.0
O230 O 0.86843 0.1431 0.8091 0.0
H231 H 0.80561 0.20868 0.7632 0.0
H232 H 0.79619 0.19544 0.81363 0.0
C233 C 0.80891 0.19452 0.78628 0.0
H234 H 0.82657 0.19647 0.80014 0.0
H235 H 0.86866 0.18381 0.85855 0.0
O236 O 0.82785 0.08955 0.70274 0.0
C237 C 0.87765 0.13011 0.78063 0.0
Co238 Co 0.16961 0.89927 0.25709 0.0
Co239 Co 0.16588 0.86393 0.33405 0.0
C240 C 0.18029 0.91209 0.35064 0.0
O241 O 0.17849 0.91702 0.3099 0.0
O242 O 0.17619 0.89216 0.36447 0.0
C243 C 0.18934 0.9338 0.20108 0.0
O244 O 0.20391 0.93679 0.23389 0.0
C245 C 0.1845 0.83317 0.40167 0.0
C246 C 0.15482 0.81031 0.4128 0.0
C247 C 0.17758 0.81422 0.42558 0.0
N248 N 0.16669 0.83988 0.37616 0.0
N249 N 0.14895 0.82626 0.38326 0.0
C250 C 0.20796 0.84393 0.40011 0.0
H251 H 0.20991 0.85409 0.36956 0.0
H252 H 0.22176 0.8309 0.40163 0.0
H253 H 0.20993 0.85539 0.42878 0.0
C254 C 0.19933 0.86357 0.21913 0.0
N255 N 0.18687 0.87217 0.2527 0.0
N256 N 0.18471 0.85682 0.28384 0.0
C257 C 0.19542 0.83772 0.27047 0.0
C258 C 0.2051 0.84139 0.22907 0.0
C259 C 0.20527 0.87641 0.17815 0.0
H260 H 0.21269 0.89301 0.18735 0.0
H261 H 0.21806 0.86729 0.15747 0.0
H262 H 0.18924 0.87947 0.1588 0.0
O263 O 0.13607 0.89184 0.25927 0.0
O264 O 0.13307 0.86764 0.31499 0.0
H265 H 0.19731 0.80123 0.27157 0.0
H266 H 0.20686 0.81522 0.32103 0.0
C267 C 0.19386 0.81558 0.2941 0.0
H268 H 0.17637 0.81348 0.30864 0.0
H269 H 0.13297 0.82759 0.36732 0.0
O270 O 0.17394 0.9185 0.20402 0.0
C271 C 0.12388 0.87918 0.28411 0.0
H272 H 0.40143 0.38264 0.30326 0.0
H273 H 0.44329 0.37979 0.31333 0.0
H274 H 0.45179 0.36837 0.17363 0.0
H275 H 0.40963 0.36989 0.16391 0.0
H276 H 0.48083 0.34345 0.21369 0.0
H277 H 0.46201 0.4216 0.22609 0.0
H278 H 0.44148 0.4552 0.25391 0.0
H279 H 0.46676 0.44195 0.38461 0.0
H280 H 0.4872 0.40809 0.35767 0.0
H281 H 0.59854 0.38593 0.20632 0.0
H282 H 0.55639 0.38272 0.19866 0.0
H283 H 0.55082 0.36419 0.33572 0.0
H284 H 0.59314 0.36671 0.34345 0.0
H285 H 0.52113 0.4036 0.29796 0.0
H286 H 0.54152 0.32486 0.279 0.0
H287 H 0.56331 0.29364 0.24485 0.0
H288 H 0.53633 0.31175 0.11765 0.0
H289 H 0.51465 0.34332 0.15099 0.0
C290 C 0.41223 0.37946 0.2747 0.0
C291 C 0.4023 0.37671 0.23272 0.0
C292 C 0.4362 0.37796 0.28044 0.0
C293 C 0.45087 0.37448 0.24408 0.0
C294 C 0.44091 0.37118 0.20221 0.0
C295 C 0.41682 0.37211 0.19664 0.0
C296 C 0.47654 0.37454 0.24977 0.0
C297 C 0.48959 0.35677 0.23174 0.0
C298 C 0.48815 0.39179 0.27362 0.0
C299 C 0.47595 0.41219 0.28993 0.0
C300 C 0.46306 0.42577 0.26082 0.0
C301 C 0.45145 0.44487 0.27643 0.0
C302 C 0.45276 0.45067 0.32102 0.0
C303 C 0.46573 0.43742 0.35009 0.0
C304 C 0.47735 0.41828 0.33466 0.0
C305 C 0.58837 0.38103 0.23479 0.0
C306 C 0.59912 0.37661 0.27553 0.0
C307 C 0.56434 0.37915 0.23029 0.0
C308 C 0.55061 0.37319 0.2666 0.0
C309 C 0.56122 0.36875 0.30734 0.0
C310 C 0.58534 0.37014 0.31164 0.0
C311 C 0.52509 0.37253 0.26221 0.0
C312 C 0.51219 0.39028 0.28023 0.0
C313 C 0.51373 0.35562 0.23747 0.0
C314 C 0.52667 0.3366 0.21743 0.0
C315 C 0.54043 0.32233 0.24369 0.0
C316 C 0.55271 0.30454 0.22449 0.0
C317 C 0.55126 0.30076 0.17909 0.0
C318 C 0.53747 0.31472 0.15281 0.0
C319 C 0.52516 0.33255 0.17184 0.0
H320 H 0.56079 0.28697 0.16429 0.0
H321 H 0.44376 0.46546 0.33304 0.0
H322 H 0.59537 0.59874 0.75353 0.0
H323 H 0.55327 0.60106 0.76285 0.0
H324 H 0.55383 0.66887 0.7115 0.0
H325 H 0.596 0.6665 0.70077 0.0
H326 H 0.52776 0.65495 0.80376 0.0
H327 H 0.53421 0.64269 0.64471 0.0
H328 H 0.54944 0.62242 0.57988 0.0
H329 H 0.52064 0.56041 0.62862 0.0
H330 H 0.50556 0.58028 0.69413 0.0
H331 H 0.40499 0.66654 0.79449 0.0
H332 H 0.44679 0.66922 0.78156 0.0
H333 H 0.44922 0.59767 0.75486 0.0
H334 H 0.40728 0.59534 0.7648 0.0
H335 H 0.47476 0.61606 0.69959 0.0
H336 H 0.4688 0.62459 0.85652 0.0
H337 H 0.45508 0.64115 0.92641 0.0
H338 H 0.48401 0.70524 0.88974 0.0
H339 H 0.49766 0.68912 0.81937 0.0
C340 C 0.58657 0.61416 0.74421 0.0
C341 C 0.59898 0.63243 0.72634 0.0
C342 C 0.56255 0.61543 0.74954 0.0
C343 C 0.55058 0.63512 0.73788 0.0
C344 C 0.56287 0.65355 0.72067 0.0
C345 C 0.58688 0.65212 0.71441 0.0
C346 C 0.52514 0.63615 0.74334 0.0
C347 C 0.51602 0.64683 0.78072 0.0
C348 C 0.51011 0.62482 0.71403 0.0
C349 C 0.519 0.61292 0.67451 0.0
C350 C 0.53134 0.62469 0.64182 0.0
C351 C 0.5399 0.61328 0.6049 0.0
C352 C 0.53607 0.59012 0.60019 0.0
C353 C 0.52362 0.57834 0.63234 0.0
C354 C 0.51505 0.58967 0.66934 0.0
C355 C 0.41453 0.65141 0.78597 0.0
C356 C 0.40294 0.63073 0.78068 0.0
C357 C 0.43846 0.6529 0.77884 0.0
C358 C 0.4514 0.63357 0.7679 0.0
C359 C 0.43975 0.61288 0.76307 0.0
C360 C 0.41577 0.61152 0.76892 0.0
C361 C 0.47694 0.63482 0.76052 0.0
C362 C 0.48624 0.62445 0.72273 0.0
C363 C 0.49217 0.64598 0.79016 0.0
C364 C 0.48403 0.6557 0.83248 0.0
C365 C 0.47209 0.64225 0.86323 0.0
C366 C 0.46435 0.65156 0.90295 0.0
C367 C 0.46861 0.67425 0.91245 0.0
C368 C 0.48069 0.68768 0.8823 0.0
C369 C 0.48845 0.67846 0.84252 0.0
H370 H 0.4626 0.68143 0.94321 0.0
H371 H 0.54271 0.58132 0.57159 0.0
H372 H 0.0902 0.86769 0.34345 0.0
H373 H 0.04833 0.86644 0.33129 0.0
H374 H 0.05861 0.88517 0.19504 0.0
H375 H 0.10035 0.88767 0.20781 0.0
H376 H 0.0244 0.90707 0.22241 0.0
H377 H 0.04389 0.82915 0.23137 0.0
H378 H 0.06103 0.79458 0.26277 0.0
H379 H 0.0176 0.80087 0.3771 0.0
H380 H 1.00041 0.83566 0.34665 0.0
H381 H 0.90905 0.87069 0.15828 0.0
H382 H 0.95132 0.86881 0.16761 0.0
H383 H 0.94375 0.88321 0.30618 0.0
H384 H 0.90163 0.88583 0.29698 0.0
H385 H 0.97587 0.84319 0.27424 0.0
H386 H 0.95884 0.92391 0.26127 0.0
H387 H 0.94141 0.95656 0.22327 0.0
H388 H 0.98071 0.94142 0.10672 0.0
H389 H 0.99811 0.90845 0.14389 0.0
C390 C 0.08351 0.87149 0.3109 0.0
C391 C 0.09856 0.87778 0.27659 0.0
C392 C 0.05955 0.87061 0.30384 0.0
C393 C 0.05019 0.8753 0.26196 0.0
C394 C 0.06529 0.88148 0.22765 0.0
C395 C 0.08919 0.88287 0.23496 0.0
C396 C 0.02467 0.87446 0.25422 0.0
C397 C 0.01396 0.89288 0.23326 0.0
C398 C 0.01077 0.85609 0.26847 0.0
C399 C 0.02102 0.83514 0.2869 0.0
C400 C 0.03812 0.82326 0.26335 0.0
C401 C 0.04782 0.80361 0.28096 0.0
C402 C 0.04045 0.79557 0.32195 0.0
C403 C 0.02331 0.80713 0.34537 0.0
C404 C 0.01357 0.82681 0.32794 0.0
C405 C 0.9164 0.87335 0.19075 0.0
C406 C 0.90206 0.87852 0.22687 0.0
C407 C 0.94049 0.87228 0.19599 0.0
C408 C 0.95053 0.87587 0.23757 0.0
C409 C 0.93625 0.88037 0.27389 0.0
C410 C 0.91224 0.88197 0.2685 0.0
C411 C 0.97601 0.87575 0.24297 0.0
C412 C 0.98657 0.85719 0.26337 0.0
C413 C 0.98985 0.89369 0.22733 0.0
C414 C 0.97953 0.91358 0.20515 0.0
C415 C 0.96357 0.92741 0.22739 0.0
C416 C 0.95374 0.94601 0.20604 0.0
C417 C 0.95989 0.95102 0.16255 0.0
C418 C 0.97593 0.93749 0.14037 0.0
C419 C 0.98579 0.91886 0.16157 0.0
H420 H 0.95226 0.96543 0.14608 0.0
H421 H 0.04799 0.78035 0.33553 0.0
H422 H 0.09554 0.098 0.7641 0.0
H423 H 0.0534 0.10095 0.77086 0.0
H424 H 0.05445 0.16311 0.69715 0.0
H425 H 0.09668 0.16012 0.68923 0.0
H426 H 0.02818 0.14672 0.8051 0.0
H427 H 0.02901 0.14886 0.63685 0.0
H428 H 0.04443 0.13285 0.56763 0.0
H429 H 0.0263 0.06619 0.6113 0.0
H430 H 0.0111 0.08187 0.68103 0.0
H431 H 0.90681 0.16557 0.79603 0.0
H432 H 0.9486 0.16726 0.78306 0.0
H433 H 0.94764 0.09818 0.73787 0.0
H434 H 0.90567 0.09688 0.74849 0.0
H435 H 0.97482 0.1198 0.6879 0.0
H436 H 0.96711 0.11559 0.84545 0.0
H437 H 0.95311 0.12701 0.919 0.0
H438 H 0.98554 0.19178 0.90367 0.0
H439 H 0.99949 0.18084 0.82979 0.0
C440 C 0.08685 0.11228 0.74914 0.0
C441 C 0.09948 0.12881 0.726 0.0
C442 C 0.06278 0.11391 0.75305 0.0
C443 C 0.05091 0.13212 0.73419 0.0
C444 C 0.06336 0.14877 0.71138 0.0
C445 C 0.08745 0.14703 0.70696 0.0
C446 C 0.02547 0.1337 0.73912 0.0
C447 C 0.01639 0.14127 0.77931 0.0
C448 C 0.01033 0.1258 0.70604 0.0
C449 C 0.01922 0.11648 0.66415 0.0
C450 C 0.02853 0.13079 0.63177 0.0
C451 C 0.03717 0.12178 0.59246 0.0
C452 C 0.03641 0.09851 0.58513 0.0
C453 C 0.02694 0.0842 0.61706 0.0
C454 C 0.01832 0.09313 0.65645 0.0
C455 C 0.91555 0.15075 0.78335 0.0
C456 C 0.903 0.13105 0.77346 0.0
C457 C 0.93947 0.15169 0.77614 0.0
C458 C 0.95147 0.13271 0.76022 0.0
C459 C 0.93887 0.11307 0.75011 0.0
C460 C 0.91487 0.1123 0.75634 0.0
C461 C 0.97708 0.13324 0.754 0.0
C462 C 0.98635 0.12575 0.71368 0.0
C463 C 0.99241 0.14091 0.78744 0.0
C464 C 0.98413 0.14748 0.83193 0.0
C465 C 0.97112 0.13232 0.85766 0.0
C466 C 0.96322 0.1387 0.89942 0.0
C467 C 0.96838 0.16013 0.91594 0.0
C468 C 0.98152 0.1752 0.8908 0.0
C469 C 0.98945 0.16891 0.84901 0.0
H470 H 0.96224 0.16504 0.94827 0.0
H471 H 0.04311 0.09157 0.55468 0.0
H472 H 0.31837 0.60081 0.94246 0.0
H473 H 0.31397 0.57057 0.99675 0.0
H474 H 0.30803 0.52181 0.89179 0.0
H475 H 0.31211 0.55189 0.83732 0.0
H476 H 0.27833 0.51201 0.95796 0.0
H477 H 0.35926 0.52975 0.94378 0.0
H478 H 0.39362 0.55453 0.94362 0.0
H479 H 0.38099 0.57199 0.07894 0.0
H480 H 0.34634 0.54754 0.0797 0.0
H481 H 0.31307 0.41229 0.07384 0.0
H482 H 0.30862 0.44406 0.02298 0.0
H483 H 0.31369 0.49057 0.13191 0.0
H484 H 0.31827 0.45902 0.18293 0.0
H485 H 0.34242 0.50227 0.06552 0.0
H486 H 0.26233 0.48207 0.08015 0.0
H487 H 0.2286 0.4565 0.07915 0.0
H488 H 0.24033 0.44261 0.94197 0.0
H489 H 0.27435 0.46787 0.9423 0.0
C490 C 0.31586 0.5837 0.93085 0.0
C491 C 0.31585 0.5788 0.88544 0.0
C492 C 0.31342 0.56641 0.96197 0.0
C493 C 0.31104 0.54386 0.94837 0.0
C494 C 0.30991 0.53906 0.9031 0.0
C495 C 0.31234 0.55631 0.87197 0.0
C496 C 0.31097 0.52514 0.9811 0.0
C497 C 0.29243 0.50976 0.98125 0.0
C498 C 0.32919 0.52236 0.01196 0.0
C499 C 0.35006 0.53702 0.01165 0.0
C500 C 0.3637 0.53901 0.97339 0.0
C501 C 0.38325 0.55298 0.97321 0.0
C502 C 0.38945 0.56488 0.0112 0.0
C503 C 0.37614 0.56279 0.0495 0.0
C504 C 0.35655 0.54888 0.04984 0.0
C505 C 0.31298 0.42926 0.08709 0.0
C506 C 0.31612 0.43305 0.13254 0.0
C507 C 0.31035 0.44742 0.05795 0.0
C508 C 0.31075 0.46973 0.07363 0.0
C509 C 0.31336 0.47353 0.11904 0.0
C510 C 0.3159 0.45541 0.1482 0.0
C511 C 0.30974 0.48914 0.04255 0.0
C512 C 0.32819 0.50461 0.04255 0.0
C513 C 0.2915 0.49187 0.01171 0.0
C514 C 0.27102 0.47671 0.01137 0.0
C515 C 0.25784 0.47342 0.04986 0.0
C516 C 0.23864 0.45901 0.04939 0.0
C517 C 0.23236 0.44789 0.01055 0.0
C518 C 0.24523 0.45121 0.97205 0.0
C519 C 0.26446 0.46559 0.97235 0.0
H520 H 0.21749 0.43674 0.01026 0.0
H521 H 0.40459 0.57567 0.011 0.0
H522 H 0.68367 0.41161 0.43593 0.0
H523 H 0.68768 0.44298 0.4879 0.0
H524 H 0.69184 0.48976 0.37923 0.0
H525 H 0.68751 0.45867 0.32715 0.0
H526 H 0.71992 0.47552 0.50345 0.0
H527 H 0.66243 0.53747 0.4052 0.0
H528 H 0.63028 0.53651 0.35149 0.0
H529 H 0.60852 0.47218 0.4019 0.0
H530 H 0.64034 0.47291 0.45626 0.0
H531 H 0.68591 0.60042 0.56716 0.0
H532 H 0.69062 0.56992 0.51356 0.0
H533 H 0.68981 0.52111 0.61912 0.0
H534 H 0.6856 0.55142 0.67285 0.0
H535 H 0.6616 0.53689 0.49489 0.0
H536 H 0.71995 0.47425 0.59102 0.0
H537 H 0.7518 0.4751 0.64534 0.0
H538 H 0.7717 0.54102 0.60031 0.0
H539 H 0.74017 0.54044 0.54535 0.0
C540 C 0.68565 0.42854 0.42304 0.0
C541 C 0.68499 0.4326 0.37729 0.0
C542 C 0.68799 0.44646 0.45283 0.0
C543 C 0.68966 0.46878 0.43752 0.0
C544 C 0.69013 0.47274 0.39187 0.0
C545 C 0.68772 0.45489 0.3621 0.0
C546 C 0.68985 0.48798 0.46915 0.0
C547 C 0.70705 0.48884 0.50189 0.0
C548 C 0.67334 0.50562 0.46657 0.0
C549 C 0.65393 0.50515 0.43445 0.0
C550 C 0.65073 0.52317 0.4049 0.0
C551 C 0.63257 0.52266 0.37434 0.0
C552 C 0.61742 0.50426 0.37318 0.0
C553 C 0.62033 0.48638 0.40271 0.0
C554 C 0.63844 0.48682 0.43337 0.0
C555 C 0.68705 0.58323 0.57906 0.0
C556 C 0.68534 0.57843 0.6244 0.0
C557 C 0.68968 0.56578 0.54832 0.0
C558 C 0.69074 0.54318 0.56221 0.0
C559 C 0.68947 0.5384 0.60752 0.0
C560 C 0.68695 0.5558 0.63826 0.0
C561 C 0.69174 0.52455 0.52928 0.0
C562 C 0.67465 0.52372 0.49632 0.0
C563 C 0.70833 0.50696 0.53178 0.0
C564 C 0.72754 0.50737 0.56434 0.0
C565 C 0.73118 0.48888 0.59259 0.0
C566 C 0.74917 0.48933 0.62352 0.0
C567 C 0.76372 0.50813 0.62637 0.0
C568 C 0.76036 0.5265 0.59819 0.0
C569 C 0.74241 0.52614 0.56718 0.0
H570 H 0.77762 0.50845 0.65036 0.0
H571 H 0.60339 0.50389 0.34946 0.0
H572 H 0.72629 0.55239 0.83927 0.0
H573 H 0.72782 0.52849 0.90492 0.0
H574 H 0.65602 0.54358 0.93209 0.0
H575 H 0.65465 0.56812 0.86743 0.0
H576 H 0.67888 0.54473 0.0052 0.0
H577 H 0.67436 0.4922 0.88559 0.0
H578 H 0.68574 0.47461 0.81516 0.0
H579 H 0.75249 0.45817 0.86912 0.0
H580 H 0.7416 0.47594 0.93974 0.0
H581 H 0.65375 0.45203 0.14701 0.0
H582 H 0.65537 0.47718 0.08309 0.0
H583 H 0.72994 0.47192 0.08151 0.0
H584 H 0.72852 0.44694 0.14598 0.0
H585 H 0.70732 0.46584 0.99692 0.0
H586 H 0.70927 0.51779 0.11902 0.0
H587 H 0.69537 0.53402 0.18905 0.0
H588 H 0.62999 0.54991 0.12879 0.0
H589 H 0.64338 0.53346 0.05854 0.0
C590 C 0.71083 0.55062 0.85923 0.0
C591 C 0.69032 0.56208 0.84804 0.0
C592 C 0.71169 0.53685 0.89668 0.0
C593 C 0.69192 0.53391 0.92318 0.0
C594 C 0.6715 0.54554 0.91223 0.0
C595 C 0.67072 0.55953 0.87515 0.0
C596 C 0.69248 0.51886 0.96245 0.0
C597 C 0.68486 0.52741 1.00315 0.0
C598 C 0.70066 0.49633 0.96018 0.0
C599 C 0.70726 0.48562 0.91778 0.0
C600 C 0.69153 0.48499 0.88232 0.0
C601 C 0.69788 0.47496 0.84239 0.0
C602 C 0.71985 0.46534 0.83762 0.0
C603 C 0.73549 0.46567 0.87284 0.0
C604 C 0.72924 0.4757 0.91283 0.0
C605 C 0.67051 0.45623 0.13312 0.0
C606 C 0.69103 0.44756 0.15161 0.0
C607 C 0.6714 0.47063 0.09669 0.0
C608 C 0.69278 0.47646 0.07779 0.0
C609 C 0.71328 0.46762 0.09574 0.0
C610 C 0.71244 0.45345 0.13263 0.0
C611 C 0.69361 0.49175 0.03918 0.0
C612 C 0.70146 0.48322 0.99875 0.0
C613 C 0.68529 0.51415 0.0415 0.0
C614 C 0.67726 0.5242 0.08363 0.0
C615 C 0.69186 0.52457 0.1208 0.0
C616 C 0.68409 0.53384 0.16052 0.0
C617 C 0.66179 0.54294 0.1634 0.0
C618 C 0.64725 0.54284 0.12653 0.0
C619 C 0.65493 0.53356 0.08674 0.0
H620 H 0.6558 0.55011 0.19418 0.0
H621 H 0.72473 0.45758 0.80668 0.0
H622 H 0.27228 0.44231 0.36744 0.0
H623 H 0.27124 0.46654 0.43271 0.0
H624 H 0.34549 0.47502 0.42513 0.0
H625 H 0.3467 0.45004 0.36118 0.0
H626 H 0.33458 0.46912 0.50584 0.0
H627 H 0.30467 0.51693 0.39134 0.0
H628 H 0.27865 0.5278 0.33035 0.0
H629 H 0.21993 0.5233 0.41695 0.0
H630 H 0.24558 0.51212 0.47834 0.0
H631 H 0.3461 0.56593 0.64133 0.0
H632 H 0.34454 0.54074 0.57764 0.0
H633 H 0.2729 0.52574 0.60594 0.0
H634 H 0.27426 0.55098 0.66987 0.0
H635 H 0.2811 0.53441 0.51679 0.0
H636 H 0.31308 0.48807 0.63227 0.0
H637 H 0.34052 0.47886 0.69202 0.0
H638 H 0.39735 0.48272 0.60087 0.0
H639 H 0.37027 0.49226 0.54067 0.0
C640 C 0.28836 0.44939 0.37968 0.0
C641 C 0.30956 0.44432 0.35911 0.0
C642 C 0.28774 0.46335 0.41688 0.0
C643 C 0.30824 0.47297 0.43357 0.0
C644 C 0.32942 0.46784 0.41302 0.0
C645 C 0.33009 0.45358 0.37635 0.0
C646 C 0.30781 0.48809 0.4728 0.0
C647 C 0.32306 0.48355 0.50785 0.0
C648 C 0.29246 0.50669 0.47613 0.0
C649 C 0.27702 0.51346 0.4393 0.0
C650 C 0.28619 0.5181 0.39729 0.0
C651 C 0.27151 0.52434 0.36267 0.0
C652 C 0.24764 0.52618 0.36974 0.0
C653 C 0.23841 0.52184 0.4115 0.0
C654 C 0.25301 0.51556 0.44622 0.0
C655 C 0.32998 0.5573 0.63408 0.0
C656 C 0.31032 0.56039 0.66085 0.0
C657 C 0.32916 0.54285 0.59771 0.0
C658 C 0.30867 0.53121 0.58733 0.0
C659 C 0.28889 0.53454 0.61347 0.0
C660 C 0.28973 0.54891 0.65006 0.0
C661 C 0.30801 0.51551 0.54924 0.0
C662 C 0.29254 0.51993 0.51458 0.0
C663 C 0.32337 0.49699 0.54595 0.0
C664 C 0.33966 0.49107 0.58205 0.0
C665 C 0.33144 0.48712 0.62503 0.0
C666 C 0.34693 0.48181 0.65897 0.0
C667 C 0.37067 0.48026 0.65027 0.0
C668 C 0.37896 0.48395 0.60757 0.0
C669 C 0.36355 0.48928 0.57352 0.0
H670 H 0.38264 0.47615 0.67659 0.0
H671 H 0.23631 0.53101 0.34289 0.0
H672 H 0.8178 0.10349 0.93832 0.0
H673 H 0.81318 0.07357 0.99323 0.0
H674 H 0.80802 0.02416 0.88925 0.0
H675 H 0.81216 0.05392 0.83423 0.0
H676 H 0.7784 0.01418 0.95389 0.0
H677 H 0.85923 0.03339 0.94369 0.0
H678 H 0.8931 0.0588 0.94522 0.0
H679 H 0.87809 0.07625 0.07966 0.0
H680 H 0.84392 0.05116 0.07872 0.0
H681 H 0.81387 0.91503 0.07013 0.0
H682 H 0.80932 0.94691 0.0196 0.0
H683 H 0.81218 0.99306 0.12941 0.0
H684 H 0.81688 0.96139 0.18011 0.0
H685 H 0.84126 0.00571 0.06443 0.0
H686 H 0.76151 0.98364 0.07518 0.0
H687 H 0.72846 0.95727 0.07238 0.0
H688 H 0.74229 0.94402 0.93568 0.0
H689 H 0.77564 0.97009 0.93781 0.0
C690 C 0.8154 0.0863 0.92708 0.0
C691 C 0.81559 0.08113 0.88178 0.0
C692 C 0.81286 0.06918 0.95855 0.0
C693 C 0.81066 0.04653 0.94542 0.0
C694 C 0.80976 0.04148 0.90024 0.0
C695 C 0.81221 0.05856 0.86878 0.0
C696 C 0.81046 0.02796 0.97851 0.0
C697 C 0.79223 0.01223 0.97785 0.0
C698 C 0.82831 0.02556 0.01028 0.0
C699 C 0.84888 0.0406 0.01097 0.0
C700 C 0.86305 0.04278 0.97347 0.0
C701 C 0.88232 0.05711 0.97424 0.0
C702 C 0.8877 0.06919 0.01247 0.0
C703 C 0.87387 0.06692 0.05005 0.0
C704 C 0.85456 0.05264 0.04942 0.0
C705 C 0.81327 0.93193 0.08364 0.0
C706 C 0.81583 0.93559 0.12926 0.0
C707 C 0.81058 0.95016 0.05468 0.0
C708 C 0.81032 0.9724 0.07071 0.0
C709 C 0.81236 0.97607 0.11627 0.0
C710 C 0.81498 0.95788 0.14524 0.0
C711 C 0.8092 0.9919 0.03985 0.0
C712 C 0.82728 0.00778 0.0408 0.0
C713 C 0.79131 0.99429 0.00821 0.0
C714 C 0.77121 0.97867 0.00677 0.0
C715 C 0.75762 0.97497 0.04461 0.0
C716 C 0.73881 0.9601 0.04313 0.0
C717 C 0.73331 0.94894 0.00391 0.0
C718 C 0.74658 0.95267 0.96605 0.0
C719 C 0.76543 0.9675 0.96736 0.0
H720 H 0.71874 0.93743 1.00283 0.0
H721 H 0.90263 0.08027 0.01301 0.0
H722 H 0.19651 0.09813 0.57481 0.0
H723 H 0.20151 0.06756 0.52138 0.0
H724 H 0.18516 0.01873 0.62228 0.0
H725 H 0.18098 0.04901 0.67604 0.0
H726 H 0.21767 1.00237 0.57223 0.0
H727 H 0.14401 0.03853 0.54496 0.0
H728 H 0.11825 0.07068 0.52853 0.0
H729 H 0.15441 0.08236 0.40685 0.0
H730 H 0.18056 0.05043 0.42284 0.0
H731 H 0.1777 0.91058 0.44097 0.0
H732 H 0.18295 0.94175 0.49274 0.0
H733 H 0.20064 0.98603 0.38489 0.0
H734 H 0.19483 0.95512 0.33283 0.0
H735 H 0.17017 0.00564 0.43595 0.0
H736 H 0.24182 0.96653 0.46149 0.0
H737 H 0.26638 0.93362 0.47868 0.0
H738 H 0.23288 0.92658 0.60438 0.0
H739 H 0.2079 0.95927 0.58771 0.0
C740 C 0.19425 0.08086 0.58573 0.0
C741 C 0.18815 0.07607 0.62968 0.0
C742 C 0.19699 0.06339 0.55507 0.0
C743 C 0.19323 0.04081 0.56749 0.0
C744 C 0.1881 0.03597 0.61175 0.0
C745 C 0.18567 0.05337 0.64251 0.0
C746 C 0.19357 0.02225 0.53429 0.0
C747 C 0.20715 1.00303 0.54258 0.0
C748 C 0.1802 0.02318 0.4951 0.0
C749 C 0.16438 0.04226 0.48532 0.0
C750 C 0.14655 0.04805 0.51484 0.0
C751 C 0.13187 0.06621 0.50559 0.0
C752 C 0.13473 0.07859 0.46674 0.0
C753 C 0.15223 0.07278 0.43697 0.0
C754 C 0.16698 0.05464 0.44609 0.0
C755 C 0.18299 0.92687 0.42827 0.0
C756 C 0.18578 0.93032 0.38266 0.0
C757 C 0.18609 0.9447 0.45799 0.0
C758 C 0.19239 0.96627 0.44285 0.0
C759 C 0.19574 0.96959 0.39744 0.0
C760 C 0.19246 0.95184 0.36768 0.0
C761 C 0.19418 0.98568 0.47395 0.0
C762 C 0.18092 0.00505 0.46532 0.0
C763 C 0.20771 0.98479 0.51293 0.0
C764 C 0.22287 0.96525 0.52319 0.0
C765 C 0.23959 0.95788 0.49268 0.0
C766 C 0.2536 0.93927 0.50235 0.0
C767 C 0.25116 0.92799 0.54256 0.0
C768 C 0.23474 0.93533 0.57324 0.0
C769 C 0.22068 0.95391 0.56372 0.0
H770 H 0.26201 0.91358 0.54997 0.0
H771 H 0.12336 0.09265 0.45964 0.0
H772 H 0.15703 0.05038 0.84859 0.0
H773 H 0.15786 0.0256 0.91289 0.0
H774 H 0.2277 0.04735 0.94185 0.0
H775 H 0.22734 0.07124 0.87592 0.0
H776 H 0.22532 0.00511 0.95667 0.0
H777 H 0.17745 0.06721 0.99965 0.0
H778 H 0.1453 0.09444 0.99335 0.0
H779 H 0.09599 0.04016 0.99712 0.0
H780 H 0.12787 0.01257 1.00286 0.0
H781 H 0.22258 0.965 0.1799 0.0
H782 H 0.22396 0.98933 0.11467 0.0
H783 H 0.16037 0.95969 0.06718 0.0
H784 H 0.15885 0.93528 0.13211 0.0
H785 H 0.16043 0.00669 0.064 0.0
H786 H 0.21019 0.94488 0.02119 0.0
H787 H 0.24326 0.91894 0.03049 0.0
H788 H 0.2903 0.97513 0.03077 0.0
H789 H 0.25746 1.00144 0.02211 0.0
C790 C 0.17257 0.04984 0.86867 0.0
C791 C 0.19209 0.0628 0.85744 0.0
C792 C 0.17299 0.03578 0.90563 0.0
C793 C 0.19265 0.03496 0.93302 0.0
C794 C 0.21229 0.0477 0.92142 0.0
C795 C 0.21207 0.06138 0.88379 0.0
C796 C 0.19273 0.02072 0.97351 0.0
C797 C 0.21128 0.00575 0.98043 0.0
C798 C 0.17429 0.02124 0.00444 0.0
C799 C 0.15507 0.03781 1.00131 0.0
C800 C 0.15976 0.06107 0.99887 0.0
C801 C 0.14158 0.07657 0.99543 0.0
C802 C 0.11862 0.06903 0.99474 0.0
C803 C 0.11379 0.04598 0.99762 0.0
C804 C 0.1319 0.0304 1.00102 0.0
C805 C 0.20892 0.9636 0.15552 0.0
C806 C 0.1906 0.94819 0.1612 0.0
C807 C 0.20978 0.97747 0.11822 0.0
C808 C 0.19232 0.97623 0.08603 0.0
C809 C 0.17401 0.96091 0.09166 0.0
C810 C 0.17322 0.94693 0.12873 0.0
C811 C 0.19288 0.99113 0.04675 0.0
C812 C 0.17447 0.0062 0.0402 0.0
C813 C 0.21159 0.99096 0.01662 0.0
C814 C 0.23135 0.97513 0.02144 0.0
C815 C 0.22757 0.95171 0.02358 0.0
C816 C 0.24628 0.93694 0.02867 0.0
C817 C 0.26886 0.94539 0.03133 0.0
C818 C 0.27279 0.96862 0.02877 0.0
C819 C 0.25414 0.98346 0.02373 0.0
H820 H 0.28332 0.93393 0.03528 0.0
H821 H 0.10457 0.08106 0.99205 0.0
H822 H 0.77245 0.06128 0.65217 0.0
H823 H 0.77165 0.03738 0.5864 0.0
H824 H 0.84644 0.03371 0.58844 0.0
H825 H 0.84726 0.05874 0.65239 0.0
H826 H 0.8346 0.03827 0.50969 0.0
H827 H 0.80768 0.98879 0.62389 0.0
H828 H 0.78288 0.97643 0.68561 0.0
H829 H 0.72297 0.97923 0.60162 0.0
H830 H 0.74738 0.99189 0.53953 0.0
H831 H 0.84664 0.94162 0.37211 0.0
H832 H 0.8452 0.96588 0.43732 0.0
H833 H 0.77413 0.98277 0.40804 0.0
H834 H 0.77545 0.95869 0.34239 0.0
H835 H 0.78307 0.97145 0.49879 0.0
H836 H 0.81295 0.01985 0.38362 0.0
H837 H 0.83991 0.02987 0.32359 0.0
H838 H 0.89736 0.02588 0.41339 0.0
H839 H 0.87077 0.01553 0.47384 0.0
C840 C 0.78868 0.05531 0.63853 0.0
C841 C 0.80991 0.06179 0.65739 0.0
C842 C 0.78823 0.04151 0.60108 0.0
C843 C 0.80897 0.03328 0.58272 0.0
C844 C 0.83018 0.03979 0.60176 0.0
C845 C 0.83065 0.05406 0.63842 0.0
C846 C 0.80874 0.01829 0.54322 0.0
C847 C 0.82352 0.0235 0.50778 0.0
C848 C 0.79403 0.99916 0.53996 0.0
C849 C 0.77933 0.9915 0.5772 0.0
C850 C 0.7892 0.98692 0.61868 0.0
C851 C 0.77521 0.97984 0.65371 0.0
C852 C 0.75136 0.97711 0.64757 0.0
C853 C 0.74145 0.98139 0.60635 0.0
C854 C 0.75535 0.9885 0.57122 0.0
C855 C 0.83067 0.95044 0.37955 0.0
C856 C 0.81118 0.94831 0.35195 0.0
C857 C 0.82991 0.96433 0.41677 0.0
C858 C 0.8096 0.9762 0.42728 0.0
C859 C 0.78996 0.97375 0.4004 0.0
C860 C 0.79078 0.96006 0.36285 0.0
C861 C 0.80903 0.99141 0.46605 0.0
C862 C 0.79409 0.98625 0.50109 0.0
C863 C 0.82393 0.01028 0.4694 0.0
C864 C 0.83989 0.01672 0.43315 0.0
C865 C 0.83135 0.02094 0.39049 0.0
C866 C 0.84656 0.02671 0.3564 0.0
C867 C 0.87034 0.02846 0.36465 0.0
C868 C 0.87895 0.0245 0.40704 0.0
C869 C 0.86381 0.01871 0.44123 0.0
H870 H 0.88208 0.03292 0.33821 0.0
H871 H 0.74057 0.97162 0.67473 0.0
H872 H 0.29226 0.32901 0.01891 0.0
H873 H 0.27133 0.3047 0.96732 0.0
H874 H 0.30304 0.24607 0.02599 0.0
H875 H 0.32338 0.27007 0.07858 0.0
H876 H 0.30502 0.2459 0.93457 0.0
H877 H 0.24832 0.25823 0.04965 0.0
H878 H 0.22391 0.28176 0.09802 0.0
H879 H 0.19076 0.31086 0.98463 0.0
H880 H 0.21524 0.28773 0.93555 0.0
H881 H 0.2398 0.15626 0.84623 0.0
H882 H 0.25869 0.18319 0.89566 0.0
H883 H 0.21524 0.23649 0.84489 0.0
H884 H 0.19527 0.20922 0.79758 0.0
H885 H 0.21915 0.24168 0.92889 0.0
H886 H 0.27383 0.22951 0.81319 0.0
H887 H 0.29846 0.20743 0.76269 0.0
H888 H 0.33584 0.18018 0.87302 0.0
H889 H 0.31122 0.20187 0.92424 0.0
C890 C 0.29436 0.31096 0.02175 0.0
C891 C 0.30911 0.30154 0.05384 0.0
C892 C 0.28255 0.29707 0.99181 0.0
C893 C 0.28548 0.27355 0.99307 0.0
C894 C 0.30051 0.26417 0.02442 0.0
C895 C 0.31213 0.27797 0.05449 0.0
C896 C 0.2731 0.25855 0.96167 0.0
C897 C 0.28624 0.24481 0.93354 0.0
C898 C 0.24861 0.25766 0.95944 0.0
C899 C 0.23378 0.27143 0.98893 0.0
C900 C 0.23596 0.26978 0.03503 0.0
C901 C 0.22209 0.28302 0.06257 0.0
C902 C 0.20584 0.29784 0.04441 0.0
C903 C 0.20338 0.2994 0.99865 0.0
C904 C 0.21724 0.28622 0.97096 0.0
C905 C 0.23418 0.17369 0.8459 0.0
C906 C 0.21633 0.18072 0.81756 0.0
C907 C 0.24516 0.18915 0.87381 0.0
C908 C 0.23882 0.21206 0.87334 0.0
C909 C 0.22063 0.21899 0.84564 0.0
C910 C 0.20941 0.20345 0.81821 0.0
C911 C 0.25107 0.22871 0.90192 0.0
C912 C 0.23792 0.24282 0.92953 0.0
C913 C 0.2756 0.23016 0.90328 0.0
C914 C 0.29054 0.21718 0.87257 0.0
C915 C 0.2872 0.2187 0.8267 0.0
C916 C 0.30117 0.20626 0.79795 0.0
C917 C 0.31867 0.19237 0.81464 0.0
C918 C 0.32227 0.19093 0.86014 0.0
C919 C 0.30833 0.20331 0.88904 0.0
H920 H 0.32947 0.18275 0.79233 0.0
H921 H 0.19512 0.30807 0.06579 0.0
H922 H 0.72707 0.7058 0.58214 0.0
H923 H 0.74818 0.72901 0.52887 0.0
H924 H 0.68665 0.73397 0.44856 0.0
H925 H 0.66554 0.71042 0.5014 0.0
H926 H 0.72686 0.72695 0.39877 0.0
H927 H 0.69986 0.7759 0.51542 0.0
H928 H 0.69575 0.78799 0.59284 0.0
H929 H 0.76973 0.79377 0.60444 0.0
H930 H 0.77429 0.7814 0.52721 0.0
H931 H 0.75488 0.82232 0.26706 0.0
H932 H 0.73674 0.79473 0.3166 0.0
H933 H 0.79543 0.7997 0.40461 0.0
H934 H 0.81307 0.82783 0.35574 0.0
H935 H 0.75794 0.80034 0.45081 0.0
H936 H 0.78582 0.75316 0.33462 0.0
H937 H 0.79096 0.74058 0.25774 0.0
H938 H 0.71752 0.73032 0.24551 0.0
H939 H 0.71189 0.74318 0.32214 0.0
C940 C 0.7182 0.71128 0.5526 0.0
C941 C 0.69473 0.70597 0.54562 0.0
C942 C 0.73022 0.72479 0.52242 0.0
C943 C 0.71895 0.73329 0.48483 0.0
C944 C 0.69569 0.72754 0.47725 0.0
C945 C 0.68364 0.71418 0.50756 0.0
C946 C 0.73102 0.74907 0.45449 0.0
C947 C 0.73349 0.7431 0.40996 0.0
C948 C 0.74016 0.76988 0.46939 0.0
C949 C 0.73742 0.7775 0.5157 0.0
C950 C 0.71526 0.77959 0.53458 0.0
C951 C 0.71285 0.78652 0.57841 0.0
C952 C 0.73247 0.79159 0.60358 0.0
C953 C 0.75455 0.78981 0.58492 0.0
C954 C 0.75705 0.78285 0.54112 0.0
C955 C 0.76382 0.8174 0.29699 0.0
C956 C 0.7852 0.82719 0.30796 0.0
C957 C 0.75357 0.80157 0.32514 0.0
C958 C 0.76482 0.79488 0.36423 0.0
C959 C 0.78636 0.80458 0.3748 0.0
C960 C 0.79644 0.8206 0.34694 0.0
C961 C 0.75387 0.77831 0.39475 0.0
C962 C 0.75152 0.78415 0.43943 0.0
C963 C 0.74507 0.75728 0.38 0.0
C964 C 0.74842 0.74933 0.33402 0.0
C965 C 0.77074 0.74837 0.31545 0.0
C966 C 0.77375 0.74118 0.27192 0.0
C967 C 0.75458 0.73471 0.24672 0.0
C968 C 0.73236 0.73536 0.26505 0.0
C969 C 0.72925 0.74259 0.30855 0.0
H970 H 0.75694 0.72914 0.21303 0.0
H971 H 0.73057 0.79695 0.63751 0.0
H972 H 0.24146 0.8137 0.24858 0.0
H973 H 0.26084 0.78677 0.1993 0.0
H974 H 0.21357 0.80474 0.09465 0.0
H975 H 0.19388 0.83113 0.14417 0.0
H976 H 0.22055 0.76021 0.09552 0.0
H977 H 0.26795 0.82695 0.0988 0.0
H978 H 0.29091 0.85707 0.13407 0.0
H979 H 0.33721 0.80758 0.18833 0.0
H980 H 0.31431 0.77712 0.15385 0.0
H981 H 0.31978 0.74122 0.92646 0.0
H982 H 0.29945 0.76423 0.98079 0.0
H983 H 0.27704 0.70401 0.04839 0.0
H984 H 0.29762 0.68083 0.99431 0.0
H985 H 0.30482 0.76897 0.06722 0.0
H986 H 0.22283 0.71441 0.09271 0.0
H987 H 0.19904 0.6869 0.05158 0.0
H988 H 0.22064 0.71661 0.9291 0.0
H989 H 0.24426 0.74447 0.9695 0.0
C990 C 0.23518 0.81172 0.21513 0.0
C991 C 0.21644 0.82467 0.19987 0.0
C992 C 0.24628 0.79644 0.18698 0.0
C993 C 0.23884 0.79393 0.14307 0.0
C994 C 0.21966 0.80641 0.1283 0.0
C995 C 0.20858 0.82164 0.15644 0.0
C996 C 0.25143 0.77889 0.11198 0.0
C997 C 0.23901 0.76203 0.08955 0.0
C998 C 0.27543 0.78147 0.10357 0.0
C999 C 0.28928 0.79975 0.12414 0.0
C1000 C 0.28293 0.82248 0.11853 0.0
C1001 C 0.29594 0.83961 0.13833 0.0
C1002 C 0.31547 0.83424 0.16353 0.0
C1003 C 0.32206 0.81171 0.16887 0.0
C1004 C 0.30908 0.79451 0.14919 0.0
C1005 C 0.31052 0.73283 0.95287 0.0
C1006 C 0.30992 0.70914 0.9554 0.0
C1007 C 0.29893 0.74603 0.98396 0.0
C1008 C 0.2865 0.73588 0.01843 0.0
C1009 C 0.28615 0.71222 0.02158 0.0
C1010 C 0.29777 0.69896 0.99036 0.0
C1011 C 0.27398 0.7502 0.05088 0.0
C1012 C 0.28642 0.76694 0.07358 0.0
C1013 C 0.2499 0.74782 0.05879 0.0
C1014 C 0.23552 0.73134 0.03415 0.0
C1015 C 0.22243 0.7151 0.05701 0.0
C1016 C 0.20898 0.69945 0.03382 0.0
C1017 C 0.2084 0.69995 0.98775 0.0
C1018 C 0.22118 0.71618 0.96478 0.0
C1019 C 0.23462 0.73188 0.98781 0.0
H1020 H 0.19799 0.68781 0.96987 0.0
H1021 H 0.32553 0.84753 0.17883 0.0
H1022 H 0.68689 0.32346 0.50156 0.0
H1023 H 0.70639 0.30008 0.55711 0.0
H1024 H 0.72636 0.25293 0.4553 0.0
H1025 H 0.7055 0.27551 0.40073 0.0
H1026 H 0.71339 0.23 0.51882 0.0
H1027 H 0.76499 0.29312 0.50944 0.0
H1028 H 0.77651 0.3332 0.51098 0.0
H1029 H 0.75433 0.33825 0.64579 0.0
H1030 H 0.74238 0.29827 0.64487 0.0
H1031 H 0.80579 0.1758 0.63558 0.0
H1032 H 0.78593 0.20215 0.58606 0.0
H1033 H 0.74359 0.22527 0.69408 0.0
H1034 H 0.76262 0.19804 0.74341 0.0
H1035 H 0.76725 0.26047 0.63172 0.0
H1036 H 0.7168 0.19456 0.63634 0.0
H1037 H 0.70959 0.15364 0.63095 0.0
H1038 H 0.73525 0.15361 0.49801 0.0
H1039 H 0.74297 0.1945 0.50291 0.0
C1040 C 0.6956 0.30815 0.4913 0.0
C1041 C 0.69482 0.30122 0.4471 0.0
C1042 C 0.70687 0.29484 0.52292 0.0
C1043 C 0.71822 0.27477 0.51054 0.0
C1044 C 0.7177 0.2682 0.46598 0.0
C1045 C 0.70589 0.28114 0.43473 0.0
C1046 C 0.72992 0.26011 0.54384 0.0
C1047 C 0.72535 0.23679 0.54305 0.0
C1048 C 0.74533 0.26875 0.57623 0.0
C1049 C 0.75256 0.29277 0.57693 0.0
C1050 C 0.76241 0.30283 0.53931 0.0
C1051 C 0.76904 0.32552 0.54009 0.0
C1052 C 0.76609 0.33828 0.57842 0.0
C1053 C 0.75657 0.32835 0.6161 0.0
C1054 C 0.74988 0.30568 0.61548 0.0
C1055 C 0.79201 0.18626 0.64862 0.0
C1056 C 0.78542 0.18459 0.69311 0.0
C1057 C 0.78089 0.20145 0.62045 0.0
C1058 C 0.76331 0.21558 0.6365 0.0
C1059 C 0.75719 0.21453 0.68121 0.0
C1060 C 0.76802 0.199 0.70925 0.0
C1061 C 0.75076 0.23073 0.6059 0.0
C1062 C 0.75519 0.25397 0.60735 0.0
C1063 C 0.7357 0.22202 0.57337 0.0
C1064 C 0.73066 0.19754 0.57015 0.0
C1065 C 0.72109 0.18579 0.6061 0.0
C1066 C 0.71688 0.16261 0.60311 0.0
C1067 C 0.72202 0.15102 0.5642 0.0
C1068 C 0.7313 0.16261 0.52815 0.0
C1069 C 0.73558 0.18578 0.531 0.0
H1070 H 0.71876 0.13307 0.56195 0.0
H1071 H 0.77124 0.35584 0.57895 0.0
H1072 H 0.69019 0.6821 0.85948 0.0
H1073 H 0.70889 0.70979 0.90816 0.0
H1074 H 0.76511 0.7166 0.81528 0.0
H1075 H 0.74628 0.68898 0.76642 0.0
H1076 H 0.77961 0.71062 0.9038 0.0
H1077 H 0.72699 0.75686 0.82022 0.0
H1078 H 0.68886 0.7676 0.79003 0.0
H1079 H 0.66182 0.77459 0.92125 0.0
H1080 H 0.69972 0.76354 0.95225 0.0
H1081 H 0.83576 0.80403 0.99857 0.0
H1082 H 0.81539 0.77961 0.94642 0.0
H1083 H 0.75465 0.78101 0.02941 0.0
H1084 H 0.7749 0.80575 0.08133 0.0
H1085 H 0.74195 0.78279 0.94561 0.0
H1086 H 0.79264 0.73596 0.03027 0.0
H1087 H 0.8297 0.7238 0.06313 0.0
H1088 H 0.8591 0.71609 0.93392 0.0
H1089 H 0.82229 0.72852 0.90027 0.0
C1090 C 0.70658 0.6895 0.84967 0.0
C1091 C 0.71698 0.68338 0.80957 0.0
C1092 C 0.71716 0.70536 0.87728 0.0
C1093 C 0.73835 0.71529 0.86524 0.0
C1094 C 0.74878 0.70911 0.82517 0.0
C1095 C 0.73805 0.69343 0.79733 0.0
C1096 C 0.74978 0.7319 0.89477 0.0
C1097 C 0.77156 0.72656 0.91245 0.0
C1098 C 0.73889 0.75234 0.90712 0.0
C1099 C 0.71614 0.75915 0.88855 0.0
C1100 C 0.71286 0.7605 0.84265 0.0
C1101 C 0.6913 0.76668 0.82538 0.0
C1102 C 0.67291 0.77172 0.8537 0.0
C1103 C 0.67607 0.77066 0.89935 0.0
C1104 C 0.6976 0.76445 0.91679 0.0
C1105 C 0.81797 0.79932 0.00544 0.0
C1106 C 0.80686 0.80703 0.0438 0.0
C1107 C 0.80637 0.78527 0.97572 0.0
C1108 C 0.78358 0.77813 0.98427 0.0
C1109 C 0.7722 0.78631 0.022 0.0
C1110 C 0.78375 0.80061 0.05155 0.0
C1111 C 0.77195 0.7616 0.95456 0.0
C1112 C 0.75009 0.76689 0.93694 0.0
C1113 C 0.78263 0.74093 0.94267 0.0
C1114 C 0.80478 0.73339 0.96277 0.0
C1115 C 0.80706 0.73183 0.00887 0.0
C1116 C 0.82802 0.72487 0.02763 0.0
C1117 C 0.84677 0.71923 1.00063 0.0
C1118 C 0.84457 0.72049 0.95479 0.0
C1119 C 0.82366 0.72748 0.93585 0.0
H1120 H 0.86297 0.71383 0.01522 0.0
H1121 H 0.65623 0.77651 0.84027 0.0
H1122 H 0.18008 0.23856 0.57934 0.0
H1123 H 0.19964 0.26196 0.52463 0.0
H1124 H 0.23031 0.20268 0.46669 0.0
H1125 H 0.21006 0.17894 0.52022 0.0
H1126 H 0.26201 0.23988 0.48123 0.0
H1127 H 0.18794 0.22478 0.41436 0.0
H1128 H 0.14523 0.22293 0.41238 0.0
H1129 H 0.14131 0.29431 0.43535 0.0
H1130 H 0.18401 0.29654 0.43813 0.0
H1131 H 0.30561 0.29817 0.29448 0.0
H1132 H 0.28611 0.27089 0.34233 0.0
H1133 H 0.24033 0.32333 0.3889 0.0
H1134 H 0.25884 0.35025 0.33879 0.0
H1135 H 0.21643 0.28717 0.37762 0.0
H1136 H 0.28869 0.30323 0.44941 0.0
H1137 H 0.33118 0.30662 0.45575 0.0
H1138 H 0.3386 0.23584 0.42901 0.0
H1139 H 0.29614 0.23209 0.42191 0.0
C1140 C 0.19094 0.2304 0.55498 0.0
C1141 C 0.1938 0.20681 0.55494 0.0
C1142 C 0.20214 0.24385 0.52375 0.0
C1143 C 0.21642 0.23405 0.49167 0.0
C1144 C 0.21951 0.21057 0.49151 0.0
C1145 C 0.20809 0.19702 0.52255 0.0
C1146 C 0.22786 0.24847 0.45815 0.0
C1147 C 0.25212 0.24996 0.458 0.0
C1148 C 0.21486 0.26206 0.42882 0.0
C1149 C 0.18918 0.26079 0.42681 0.0
C1150 C 0.17797 0.24005 0.41933 0.0
C1151 C 0.15376 0.23894 0.418 0.0
C1152 C 0.14057 0.25848 0.42383 0.0
C1153 C 0.15156 0.27919 0.43088 0.0
C1154 C 0.17576 0.28039 0.43229 0.0
C1155 C 0.29108 0.30374 0.31429 0.0
C1156 C 0.28355 0.32626 0.31262 0.0
C1157 C 0.28017 0.28822 0.34217 0.0
C1158 C 0.26193 0.29507 0.36984 0.0
C1159 C 0.25434 0.31758 0.36795 0.0
C1160 C 0.26502 0.333 0.33956 0.0
C1161 C 0.25073 0.27888 0.4008 0.0
C1162 C 0.22645 0.27704 0.40055 0.0
C1163 C 0.26373 0.26524 0.43025 0.0
C1164 C 0.28926 0.26743 0.43466 0.0
C1165 C 0.29939 0.28842 0.44456 0.0
C1166 C 0.32347 0.2904 0.44834 0.0
C1167 C 0.33759 0.27147 0.44266 0.0
C1168 C 0.32764 0.2505 0.43332 0.0
C1169 C 0.30357 0.24843 0.42944 0.0
H1170 H 0.35622 0.27304 0.4456 0.0
H1171 H 0.12183 0.25758 0.42279 0.0
H1172 H 0.79133 0.18497 0.97912 0.0
H1173 H 0.77076 0.20954 0.03062 0.0
H1174 H 0.80895 0.26689 0.98161 0.0
H1175 H 0.8293 0.2425 0.92956 0.0
H1176 H 0.80807 0.26616 0.07065 0.0
H1177 H 0.75268 0.25856 0.95255 0.0
H1178 H 0.72787 0.23754 0.90056 0.0
H1179 H 0.69141 0.20731 0.00899 0.0
H1180 H 0.71624 0.22791 0.06167 0.0
H1181 H 0.74283 0.35553 0.16317 0.0
H1182 H 0.76224 0.32936 0.1128 0.0
H1183 H 0.71923 0.275 0.16062 0.0
H1184 H 0.69912 0.30138 0.20954 0.0
H1185 H 0.72235 0.27289 0.07407 0.0
H1186 H 0.77671 0.28064 0.19236 0.0
H1187 H 0.80159 0.30101 0.2452 0.0
H1188 H 0.84012 0.33 0.13808 0.0
H1189 H 0.81525 0.31005 0.08454 0.0
C1190 C 0.79495 0.20286 0.97842 0.0
C1191 C 0.81159 0.21183 0.94938 0.0
C1192 C 0.78331 0.21688 0.00823 0.0
C1193 C 0.78812 0.24011 0.00965 0.0
C1194 C 0.80492 0.24903 0.98109 0.0
C1195 C 0.81652 0.23505 0.95132 0.0
C1196 C 0.77599 0.25517 0.04129 0.0
C1197 C 0.78934 0.26784 0.07107 0.0
C1198 C 0.75152 0.25687 0.04268 0.0
C1199 C 0.73648 0.2446 0.01105 0.0
C1200 C 0.73949 0.24729 0.96531 0.0
C1201 C 0.7254 0.23548 0.93572 0.0
C1202 C 0.70811 0.22105 0.95146 0.0
C1203 C 0.70483 0.21846 0.99684 0.0
C1204 C 0.7189 0.23021 0.02658 0.0
C1205 C 0.73752 0.338 0.16278 0.0
C1206 C 0.71965 0.33042 0.19053 0.0
C1207 C 0.74872 0.32301 0.13428 0.0
C1208 C 0.74246 0.30009 0.13336 0.0
C1209 C 0.72447 0.29255 0.16088 0.0
C1210 C 0.71316 0.30758 0.18916 0.0
C1211 C 0.75444 0.28406 0.10327 0.0
C1212 C 0.74108 0.27118 0.07381 0.0
C1213 C 0.77891 0.28206 0.10232 0.0
C1214 C 0.79398 0.294 0.13444 0.0
C1215 C 0.79038 0.29149 0.18006 0.0
C1216 C 0.8045 0.30294 0.21014 0.0
C1217 C 0.82239 0.31683 0.19501 0.0
C1218 C 0.82624 0.31926 0.14975 0.0
C1219 C 0.81215 0.30786 0.11953 0.0
H1220 H 0.8333 0.32569 0.21835 0.0
H1221 H 0.69722 0.21192 0.92849 0.0
H1222 H 0.17138 0.76944 0.44048 0.0
H1223 H 0.19193 0.74512 0.49233 0.0
H1224 H 0.23435 0.80131 0.53295 0.0
H1225 H 0.21341 0.82598 0.48212 0.0
H1226 H 0.25983 0.76142 0.51805 0.0
H1227 H 0.19233 0.78522 0.59813 0.0
H1228 H 0.15048 0.79138 0.60961 0.0
H1229 H 0.138 0.72025 0.59668 0.0
H1230 H 0.17976 0.7137 0.58448 0.0
H1231 H 0.30764 0.70803 0.70693 0.0
H1232 H 0.28791 0.73433 0.65724 0.0
H1233 H 0.238 0.68268 0.62448 0.0
H1234 H 0.25721 0.65666 0.67572 0.0
H1235 H 0.21666 0.72149 0.63621 0.0
H1236 H 0.28307 0.69715 0.55429 0.0
H1237 H 0.32461 0.69013 0.54079 0.0
H1238 H 0.33892 0.76089 0.5545 0.0
H1239 H 0.29749 0.7683 0.56873 0.0
C1240 C 0.18508 0.7767 0.46039 0.0
C1241 C 0.19097 0.79966 0.45636 0.0
C1242 C 0.19681 0.76273 0.49003 0.0
C1243 C 0.21464 0.77141 0.51656 0.0
C1244 C 0.22077 0.79424 0.51248 0.0
C1245 C 0.2089 0.8083 0.48297 0.0
C1246 C 0.22659 0.75662 0.54889 0.0
C1247 C 0.25049 0.75294 0.54434 0.0
C1248 C 0.21425 0.74512 0.58243 0.0
C1249 C 0.18915 0.749 0.58999 0.0
C1250 C 0.18064 0.77091 0.59738 0.0
C1251 C 0.15694 0.77447 0.60408 0.0
C1252 C 0.14159 0.75623 0.60377 0.0
C1253 C 0.14991 0.73437 0.59687 0.0
C1254 C 0.1736 0.73073 0.5901 0.0
C1255 C 0.29227 0.70243 0.68952 0.0
C1256 C 0.2838 0.68041 0.69533 0.0
C1257 C 0.28117 0.71736 0.66075 0.0
C1258 C 0.26161 0.71043 0.63663 0.0
C1259 C 0.25306 0.68843 0.64266 0.0
C1260 C 0.26409 0.67355 0.67169 0.0
C1261 C 0.24997 0.72612 0.60533 0.0
C1262 C 0.22608 0.72998 0.61005 0.0
C1263 C 0.2623 0.73763 0.57172 0.0
C1264 C 0.28721 0.73324 0.56303 0.0
C1265 C 0.2951 0.71119 0.55477 0.0
C1266 C 0.31862 0.70714 0.54693 0.0
C1267 C 0.3344 0.72504 0.5469 0.0
C1268 C 0.32668 0.74704 0.5546 0.0
C1269 C 0.30318 0.75117 0.56253 0.0
H1270 H 0.3526 0.72188 0.54081 0.0
H1271 H 0.12324 0.75902 0.60897 0.0
loop_
_geom_bond_atom_site_label_1
_geom_bond_atom_site_label_2
_geom_bond_distance
_geom_bond_site_symmetry_2
_ccdc_geom_bond_type
Co0 O3 1.970 . S
Co0 N17 1.989 . S
Co0 O25 1.967 . S
Co0 O32 1.920 . S
Co1 O4 1.966 . S
Co1 N10 2.022 . S
Co1 N18 1.993 . S
Co1 O26 1.941 . S
C2 O3 1.258 . S
C2 O4 1.263 . S
O3 Co0 1.970 . S
O3 C2 1.258 . S
O4 Co1 1.966 . S
O4 C2 1.263 . S
C5 O6 1.235 . S
C5 O32 1.289 . S
O6 C5 1.235 . S
C7 C9 1.400 . S
C7 N10 1.351 . S
C7 C12 1.501 . S
C8 C9 1.387 . S
C8 N11 1.341 . S
C9 C7 1.400 . S
C9 C8 1.387 . S
N10 Co1 2.022 . S
N10 C7 1.351 . S
N10 N11 1.365 . S
N11 C8 1.341 . S
N11 N10 1.365 . S
N11 H31 0.862 . S
C12 C7 1.501 . S
C12 H13 0.961 . S
C12 H14 0.961 . S
C12 H15 0.960 . S
H13 C12 0.961 . S
H14 C12 0.961 . S
H15 C12 0.960 . S
C16 N17 1.342 . S
C16 C20 1.401 . S
C16 C21 1.499 . S
N17 Co0 1.989 . S
N17 C16 1.342 . S
N17 N18 1.388 . S
N18 Co1 1.993 . S
N18 N17 1.388 . S
N18 C19 1.346 . S
C19 N18 1.346 . S
C19 C20 1.396 . S
C19 C29 1.510 . S
C20 C16 1.401 . S
C20 C19 1.396 . S
C21 C16 1.499 . S
C21 H22 0.959 . S
C21 H23 0.960 . S
C21 H24 0.961 . S
H22 C21 0.959 . S
H23 C21 0.960 . S
H24 C21 0.961 . S
O25 Co0 1.967 . S
O25 C33 1.258 . S
O26 Co1 1.941 . S
O26 C33 1.266 . S
H27 C29 0.959 . S
H28 C29 0.961 . S
C29 C19 1.510 . S
C29 H27 0.959 . S
C29 H28 0.961 . S
C29 H30 0.960 . S
H30 C29 0.960 . S
H31 N11 0.862 . S
O32 Co0 1.920 . S
O32 C5 1.289 . S
C33 O25 1.258 . S
C33 O26 1.266 . S
Co34 O37 1.970 . S
Co34 N51 1.989 . S
Co34 O59 1.967 . S
Co34 O66 1.920 . S
Co35 O38 1.966 . S
Co35 N44 2.022 . S
Co35 N52 1.993 . S
Co35 O60 1.941 . S
C36 O37 1.258 . S
C36 O38 1.263 . S
O37 Co34 1.970 . S
O37 C36 1.258 . S
O38 Co35 1.966 . S
O38 C36 1.263 . S
C39 O40 1.235 . S
C39 O66 1.289 . S
O40 C39 1.235 . S
C41 C43 1.400 . S
C41 N44 1.351 . S
C41 C46 1.501 . S
C42 C43 1.387 . S
C42 N45 1.341 . S
C43 C41 1.400 . S
C43 C42 1.387 . S
N44 Co35 2.022 . S
N44 C41 1.351 . S
N44 N45 1.365 . S
N45 C42 1.341 . S
N45 N44 1.365 . S
N45 H65 0.862 . S
C46 C41 1.501 . S
C46 H47 0.961 . S
C46 H48 0.961 . S
C46 H49 0.960 . S
H47 C46 0.961 . S
H48 C46 0.961 . S
H49 C46 0.960 . S
C50 N51 1.342 . S
C50 C54 1.401 . S
C50 C55 1.499 . S
N51 Co34 1.989 . S
N51 C50 1.342 . S
N51 N52 1.388 . S
N52 Co35 1.993 . S
N52 N51 1.388 . S
N52 C53 1.346 . S
C53 N52 1.346 . S
C53 C54 1.396 . S
C53 C63 1.510 . S
C54 C50 1.401 . S
C54 C53 1.396 . S
C55 C50 1.499 . S
C55 H56 0.959 . S
C55 H57 0.960 . S
C55 H58 0.961 . S
H56 C55 0.959 . S
H57 C55 0.960 . S
H58 C55 0.961 . S
O59 Co34 1.967 . S
O59 C67 1.258 . S
O60 Co35 1.941 . S
O60 C67 1.266 . S
H61 C63 0.959 . S
H62 C63 0.961 . S
C63 C53 1.510 . S
C63 H61 0.959 . S
C63 H62 0.961 . S
C63 H64 0.960 . S
H64 C63 0.960 . S
H65 N45 0.862 . S
O66 Co34 1.920 . S
O66 C39 1.289 . S
C67 O59 1.258 . S
C67 O60 1.266 . S
Co68 O71 1.970 . S
Co68 N85 1.989 . S
Co68 O93 1.967 . S
Co68 O100 1.920 . S
Co69 O72 1.966 . S
Co69 N78 2.022 . S
Co69 N86 1.993 . S
Co69 O94 1.941 . S
C70 O71 1.258 . S
C70 O72 1.263 . S
O71 Co68 1.970 . S
O71 C70 1.258 . S
O72 Co69 1.966 . S
O72 C70 1.263 . S
C73 O74 1.235 . S
C73 O100 1.289 . S
O74 C73 1.235 . S
C75 C77 1.400 . S
C75 N78 1.351 . S
C75 C80 1.501 . S
C76 C77 1.387 . S
C76 N79 1.341 . S
C77 C75 1.400 . S
C77 C76 1.387 . S
N78 Co69 2.022 . S
N78 C75 1.351 . S
N78 N79 1.365 . S
N79 C76 1.341 . S
N79 N78 1.365 . S
N79 H99 0.862 . S
C80 C75 1.501 . S
C80 H81 0.961 . S
C80 H82 0.961 . S
C80 H83 0.960 . S
H81 C80 0.961 . S
H82 C80 0.961 . S
H83 C80 0.960 . S
C84 N85 1.342 . S
C84 C88 1.401 . S
C84 C89 1.499 . S
N85 Co68 1.989 . S
N85 C84 1.342 . S
N85 N86 1.388 . S
N86 Co69 1.993 . S
N86 N85 1.388 . S
N86 C87 1.346 . S
C87 N86 1.346 . S
C87 C88 1.396 . S
C87 C97 1.510 . S
C88 C84 1.401 . S
C88 C87 1.396 . S
C89 C84 1.499 . S
C89 H90 0.959 . S
C89 H91 0.960 . S
C89 H92 0.961 . S
H90 C89 0.959 . S
H91 C89 0.960 . S
H92 C89 0.961 . S
O93 Co68 1.967 . S
O93 C101 1.258 . S
O94 Co69 1.941 . S
O94 C101 1.266 . S
H95 C97 0.959 . S
H96 C97 0.961 . S
C97 C87 1.510 . S
C97 H95 0.959 . S
C97 H96 0.961 . S
C97 H98 0.960 . S
H98 C97 0.960 . S
H99 N79 0.862 . S
O100 Co68 1.920 . S
O100 C73 1.289 . S
C101 O93 1.258 . S
C101 O94 1.266 . S
Co102 O105 1.970 . S
Co102 N119 1.989 . S
Co102 O127 1.967 . S
Co102 O134 1.920 . S
Co103 O106 1.966 . S
Co103 N112 2.022 . S
Co103 N120 1.993 . S
Co103 O128 1.941 . S
C104 O105 1.258 . S
C104 O106 1.263 . S
O105 Co102 1.970 . S
O105 C104 1.258 . S
O106 Co103 1.966 . S
O106 C104 1.263 . S
C107 O108 1.235 . S
C107 O134 1.289 . S
O108 C107 1.235 . S
C109 C111 1.400 . S
C109 N112 1.351 . S
C109 C114 1.501 . S
C110 C111 1.387 . S
C110 N113 1.341 . S
C111 C109 1.400 . S
C111 C110 1.387 . S
N112 Co103 2.022 . S
N112 C109 1.351 . S
N112 N113 1.365 . S
N113 C110 1.341 . S
N113 N112 1.365 . S
N113 H133 0.862 . S
C114 C109 1.501 . S
C114 H115 0.961 . S
C114 H116 0.961 . S
C114 H117 0.960 . S
H115 C114 0.961 . S
H116 C114 0.961 . S
H117 C114 0.960 . S
C118 N119 1.342 . S
C118 C122 1.401 . S
C118 C123 1.499 . S
N119 Co102 1.989 . S
N119 C118 1.342 . S
N119 N120 1.388 . S
N120 Co103 1.993 . S
N120 N119 1.388 . S
N120 C121 1.346 . S
C121 N120 1.346 . S
C121 C122 1.396 . S
C121 C131 1.510 . S
C122 C118 1.401 . S
C122 C121 1.396 . S
C123 C118 1.499 . S
C123 H124 0.959 . S
C123 H125 0.960 . S
C123 H126 0.961 . S
H124 C123 0.959 . S
H125 C123 0.960 . S
H126 C123 0.961 . S
O127 Co102 1.967 . S
O127 C135 1.258 . S
O128 Co103 1.941 . S
O128 C135 1.266 . S
H129 C131 0.959 . S
H130 C131 0.961 . S
C131 C121 1.510 . S
C131 H129 0.959 . S
C131 H130 0.961 . S
C131 H132 0.960 . S
H132 C131 0.960 . S
H133 N113 0.862 . S
O134 Co102 1.920 . S
O134 C107 1.289 . S
C135 O127 1.258 . S
C135 O128 1.266 . S
Co136 O139 1.970 . S
Co136 N153 1.989 . S
Co136 O161 1.967 . S
Co136 O168 1.920 . S
Co137 O140 1.966 . S
Co137 N146 2.022 . S
Co137 N154 1.993 . S
Co137 O162 1.941 . S
C138 O139 1.258 . S
C138 O140 1.263 . S
O139 Co136 1.970 . S
O139 C138 1.258 . S
O140 Co137 1.966 . S
O140 C138 1.263 . S
C141 O142 1.235 . S
C141 O168 1.289 . S
O142 C141 1.235 . S
C143 C145 1.400 . S
C143 N146 1.351 . S
C143 C148 1.501 . S
C144 C145 1.387 . S
C144 N147 1.341 . S
C145 C143 1.400 . S
C145 C144 1.387 . S
N146 Co137 2.022 . S
N146 C143 1.351 . S
N146 N147 1.365 . S
N147 C144 1.341 . S
N147 N146 1.365 . S
N147 H167 0.862 . S
C148 C143 1.501 . S
C148 H149 0.961 . S
C148 H150 0.961 . S
C148 H151 0.960 . S
H149 C148 0.961 . S
H150 C148 0.961 . S
H151 C148 0.960 . S
C152 N153 1.342 . S
C152 C156 1.401 . S
C152 C157 1.499 . S
N153 Co136 1.989 . S
N153 C152 1.342 . S
N153 N154 1.388 . S
N154 Co137 1.993 . S
N154 N153 1.388 . S
N154 C155 1.346 . S
C155 N154 1.346 . S
C155 C156 1.396 . S
C155 C165 1.510 . S
C156 C152 1.401 . S
C156 C155 1.396 . S
C157 C152 1.499 . S
C157 H158 0.959 . S
C157 H159 0.960 . S
C157 H160 0.961 . S
H158 C157 0.959 . S
H159 C157 0.960 . S
H160 C157 0.961 . S
O161 Co136 1.967 . S
O161 C169 1.258 . S
O162 Co137 1.941 . S
O162 C169 1.266 . S
H163 C165 0.959 . S
H164 C165 0.961 . S
C165 C155 1.510 . S
C165 H163 0.959 . S
C165 H164 0.961 . S
C165 H166 0.960 . S
H166 C165 0.960 . S
H167 N147 0.862 . S
O168 Co136 1.920 . S
O168 C141 1.289 . S
C169 O161 1.258 . S
C169 O162 1.266 . S
Co170 O173 1.970 . S
Co170 N187 1.989 . S
Co170 O195 1.967 . S
Co170 O202 1.920 . S
Co171 O174 1.966 . S
Co171 N180 2.022 . S
Co171 N188 1.993 . S
Co171 O196 1.941 . S
C172 O173 1.258 . S
C172 O174 1.263 . S
O173 Co170 1.970 . S
O173 C172 1.258 . S
O174 Co171 1.966 . S
O174 C172 1.263 . S
C175 O176 1.235 . S
C175 O202 1.289 . S
O176 C175 1.235 . S
C177 C179 1.400 . S
C177 N180 1.351 . S
C177 C182 1.501 . S
C178 C179 1.387 . S
C178 N181 1.341 . S
C179 C177 1.400 . S
C179 C178 1.387 . S
N180 Co171 2.022 . S
N180 C177 1.351 . S
N180 N181 1.365 . S
N181 C178 1.341 . S
N181 N180 1.365 . S
N181 H201 0.862 . S
C182 C177 1.501 . S
C182 H183 0.961 . S
C182 H184 0.961 . S
C182 H185 0.960 . S
H183 C182 0.961 . S
H184 C182 0.961 . S
H185 C182 0.960 . S
C186 N187 1.342 . S
C186 C190 1.401 . S
C186 C191 1.499 . S
N187 Co170 1.989 . S
N187 C186 1.342 . S
N187 N188 1.388 . S
N188 Co171 1.993 . S
N188 N187 1.388 . S
N188 C189 1.346 . S
C189 N188 1.346 . S
C189 C190 1.396 . S
C189 C199 1.510 . S
C190 C186 1.401 . S
C190 C189 1.396 . S
C191 C186 1.499 . S
C191 H192 0.959 . S
C191 H193 0.960 . S
C191 H194 0.961 . S
H192 C191 0.959 . S
H193 C191 0.960 . S
H194 C191 0.961 . S
O195 Co170 1.967 . S
O195 C203 1.258 . S
O196 Co171 1.941 . S
O196 C203 1.266 . S
H197 C199 0.959 . S
H198 C199 0.961 . S
C199 C189 1.510 . S
C199 H197 0.959 . S
C199 H198 0.961 . S
C199 H200 0.960 . S
H200 C199 0.960 . S
H201 N181 0.862 . S
O202 Co170 1.920 . S
O202 C175 1.289 . S
C203 O195 1.258 . S
C203 O196 1.266 . S
Co204 O207 1.970 . S
Co204 N221 1.989 . S
Co204 O229 1.967 . S
Co204 O236 1.920 . S
Co205 O208 1.966 . S
Co205 N214 2.022 . S
Co205 N222 1.993 . S
Co205 O230 1.941 . S
C206 O207 1.258 . S
C206 O208 1.263 . S
O207 Co204 1.970 . S
O207 C206 1.258 . S
O208 Co205 1.966 . S
O208 C206 1.263 . S
C209 O210 1.235 . S
C209 O236 1.289 . S
O210 C209 1.235 . S
C211 C213 1.400 . S
C211 N214 1.351 . S
C211 C216 1.501 . S
C212 C213 1.387 . S
C212 N215 1.341 . S
C213 C211 1.400 . S
C213 C212 1.387 . S
N214 Co205 2.022 . S
N214 C211 1.351 . S
N214 N215 1.365 . S
N215 C212 1.341 . S
N215 N214 1.365 . S
N215 H235 0.862 . S
C216 C211 1.501 . S
C216 H217 0.961 . S
C216 H218 0.961 . S
C216 H219 0.960 . S
H217 C216 0.961 . S
H218 C216 0.961 . S
H219 C216 0.960 . S
C220 N221 1.342 . S
C220 C224 1.401 . S
C220 C225 1.499 . S
N221 Co204 1.989 . S
N221 C220 1.342 . S
N221 N222 1.388 . S
N222 Co205 1.993 . S
N222 N221 1.388 . S
N222 C223 1.346 . S
C223 N222 1.346 . S
C223 C224 1.396 . S
C223 C233 1.510 . S
C224 C220 1.401 . S
C224 C223 1.396 . S
C225 C220 1.499 . S
C225 H226 0.959 . S
C225 H227 0.960 . S
C225 H228 0.961 . S
H226 C225 0.959 . S
H227 C225 0.960 . S
H228 C225 0.961 . S
O229 Co204 1.967 . S
O229 C237 1.258 . S
O230 Co205 1.941 . S
O230 C237 1.266 . S
H231 C233 0.959 . S
H232 C233 0.961 . S
C233 C223 1.510 . S
C233 H231 0.959 . S
C233 H232 0.961 . S
C233 H234 0.960 . S
H234 C233 0.960 . S
H235 N215 0.862 . S
O236 Co204 1.920 . S
O236 C209 1.289 . S
C237 O229 1.258 . S
C237 O230 1.266 . S
Co238 O241 1.970 . S
Co238 N255 1.989 . S
Co238 O263 1.967 . S
Co238 O270 1.920 . S
Co239 O242 1.966 . S
Co239 N248 2.022 . S
Co239 N256 1.993 . S
Co239 O264 1.941 . S
C240 O241 1.258 . S
C240 O242 1.263 . S
O241 Co238 1.970 . S
O241 C240 1.258 . S
O242 Co239 1.966 . S
O242 C240 1.263 . S
C243 O244 1.235 . S
C243 O270 1.289 . S
O244 C243 1.235 . S
C245 C247 1.400 . S
C245 N248 1.351 . S
C245 C250 1.501 . S
C246 C247 1.387 . S
C246 N249 1.341 . S
C247 C245 1.400 . S
C247 C246 1.387 . S
N248 Co239 2.022 . S
N248 C245 1.351 . S
N248 N249 1.365 . S
N249 C246 1.341 . S
N249 N248 1.365 . S
N249 H269 0.862 . S
C250 C245 1.501 . S
C250 H251 0.961 . S
C250 H252 0.961 . S
C250 H253 0.960 . S
H251 C250 0.961 . S
H252 C250 0.961 . S
H253 C250 0.960 . S
C254 N255 1.342 . S
C254 C258 1.401 . S
C254 C259 1.499 . S
N255 Co238 1.989 . S
N255 C254 1.342 . S
N255 N256 1.388 . S
N256 Co239 1.993 . S
N256 N255 1.388 . S
N256 C257 1.346 . S
C257 N256 1.346 . S
C257 C258 1.396 . S
C257 C267 1.510 . S
C258 C254 1.401 . S
C258 C257 1.396 . S
C259 C254 1.499 . S
C259 H260 0.959 . S
C259 H261 0.960 . S
C259 H262 0.961 . S
H260 C259 0.959 . S
H261 C259 0.960 . S
H262 C259 0.961 . S
O263 Co238 1.967 . S
O263 C271 1.258 . S
O264 Co239 1.941 . S
O264 C271 1.266 . S
H265 C267 0.959 . S
H266 C267 0.961 . S
C267 C257 1.510 . S
C267 H265 0.959 . S
C267 H266 0.961 . S
C267 H268 0.960 . S
H268 C267 0.960 . S
H269 N249 0.862 . S
O270 Co238 1.920 . S
O270 C243 1.289 . S
C271 O263 1.258 . S
C271 O264 1.266 . S
H272 C290 0.951 . S
H273 C292 0.951 . S
H274 C294 0.950 . S
H275 C295 0.950 . S
H276 C297 0.950 . S
H277 C300 0.950 . S
H278 C301 0.950 . S
H279 C303 0.950 . S
H280 C304 0.950 . S
H281 C305 0.951 . S
H282 C307 0.951 . S
H283 C309 0.950 . S
H284 C310 0.950 . S
H285 C312 0.950 . S
H286 C315 0.950 . S
H287 C316 0.950 . S
H288 C318 0.950 . S
H289 C319 0.950 . S
C290 H272 0.951 . S
C290 C291 1.366 . S
C290 C292 1.388 . S
C291 C290 1.366 . S
C291 C295 1.385 . S
C292 H273 0.951 . S
C292 C290 1.388 . S
C292 C293 1.366 . S
C293 C292 1.366 . S
C293 C294 1.414 . S
C293 C296 1.499 . S
C294 H274 0.950 . S
C294 C293 1.414 . S
C294 C295 1.374 . S
C295 H275 0.950 . S
C295 C291 1.385 . S
C295 C294 1.374 . S
C296 C293 1.499 . S
C296 C297 1.373 . S
C296 C298 1.389 . S
C297 H276 0.950 . S
C297 C296 1.373 . S
C297 C313 1.377 . S
C298 C296 1.389 . S
C298 C299 1.524 . S
C298 C312 1.377 . S
C299 C298 1.524 . S
C299 C300 1.397 . S
C299 C304 1.363 . S
C300 H277 0.950 . S
C300 C299 1.397 . S
C300 C301 1.334 . S
C301 H278 0.950 . S
C301 C300 1.334 . S
C301 C302 1.287 . S
C302 C301 1.287 . S
C302 C303 1.524 . S
C302 H321 0.913 . S
C303 H279 0.950 . S
C303 C302 1.524 . S
C303 C304 1.415 . S
C304 H280 0.950 . S
C304 C299 1.363 . S
C304 C303 1.415 . S
C305 H281 0.951 . S
C305 C306 1.366 . S
C305 C307 1.388 . S
C306 C305 1.366 . S
C306 C310 1.385 . S
C307 H282 0.951 . S
C307 C305 1.388 . S
C307 C308 1.366 . S
C308 C307 1.366 . S
C308 C309 1.414 . S
C308 C311 1.499 . S
C309 H283 0.950 . S
C309 C308 1.414 . S
C309 C310 1.374 . S
C310 H284 0.950 . S
C310 C306 1.385 . S
C310 C309 1.374 . S
C311 C308 1.499 . S
C311 C312 1.373 . S
C311 C313 1.389 . S
C312 H285 0.950 . S
C312 C298 1.377 . S
C312 C311 1.373 . S
C313 C297 1.377 . S
C313 C311 1.389 . S
C313 C314 1.524 . S
C314 C313 1.524 . S
C314 C315 1.397 . S
C314 C319 1.363 . S
C315 H286 0.950 . S
C315 C314 1.397 . S
C315 C316 1.334 . S
C316 H287 0.950 . S
C316 C315 1.334 . S
C316 C317 1.287 . S
C317 C316 1.287 . S
C317 C318 1.524 . S
C317 H320 0.999 . S
C318 H288 0.950 . S
C318 C317 1.524 . S
C318 C319 1.415 . S
C319 H289 0.950 . S
C319 C314 1.363 . S
C319 C318 1.415 . S
H320 C317 0.999 . S
H321 C302 0.913 . S
H322 C340 0.951 . S
H323 C342 0.951 . S
H324 C344 0.950 . S
H325 C345 0.950 . S
H326 C347 0.950 . S
H327 C350 0.950 . S
H328 C351 0.950 . S
H329 C353 0.950 . S
H330 C354 0.950 . S
H331 C355 0.951 . S
H332 C357 0.951 . S
H333 C359 0.950 . S
H334 C360 0.950 . S
H335 C362 0.950 . S
H336 C365 0.950 . S
H337 C366 0.950 . S
H338 C368 0.950 . S
H339 C369 0.950 . S
C340 H322 0.951 . S
C340 C341 1.366 . S
C340 C342 1.388 . S
C341 C340 1.366 . S
C341 C345 1.385 . S
C342 H323 0.951 . S
C342 C340 1.388 . S
C342 C343 1.366 . S
C343 C342 1.366 . S
C343 C344 1.414 . S
C343 C346 1.499 . S
C344 H324 0.950 . S
C344 C343 1.414 . S
C344 C345 1.374 . S
C345 H325 0.950 . S
C345 C341 1.385 . S
C345 C344 1.374 . S
C346 C343 1.499 . S
C346 C347 1.373 . S
C346 C348 1.389 . S
C347 H326 0.950 . S
C347 C346 1.373 . S
C347 C363 1.377 . S
C348 C346 1.389 . S
C348 C349 1.524 . S
C348 C362 1.377 . S
C349 C348 1.524 . S
C349 C350 1.397 . S
C349 C354 1.363 . S
C350 H327 0.950 . S
C350 C349 1.397 . S
C350 C351 1.334 . S
C351 H328 0.950 . S
C351 C350 1.334 . S
C351 C352 1.287 . S
C352 C351 1.287 . S
C352 C353 1.524 . S
C352 H371 0.913 . S
C353 H329 0.950 . S
C353 C352 1.524 . S
C353 C354 1.415 . S
C354 H330 0.950 . S
C354 C349 1.363 . S
C354 C353 1.415 . S
C355 H331 0.951 . S
C355 C356 1.366 . S
C355 C357 1.388 . S
C356 C355 1.366 . S
C356 C360 1.385 . S
C357 H332 0.951 . S
C357 C355 1.388 . S
C357 C358 1.366 . S
C358 C357 1.366 . S
C358 C359 1.414 . S
C358 C361 1.499 . S
C359 H333 0.950 . S
C359 C358 1.414 . S
C359 C360 1.374 . S
C360 H334 0.950 . S
C360 C356 1.385 . S
C360 C359 1.374 . S
C361 C358 1.499 . S
C361 C362 1.373 . S
C361 C363 1.389 . S
C362 H335 0.950 . S
C362 C348 1.377 . S
C362 C361 1.373 . S
C363 C347 1.377 . S
C363 C361 1.389 . S
C363 C364 1.524 . S
C364 C363 1.524 . S
C364 C365 1.397 . S
C364 C369 1.363 . S
C365 H336 0.950 . S
C365 C364 1.397 . S
C365 C366 1.334 . S
C366 H337 0.950 . S
C366 C365 1.334 . S
C366 C367 1.287 . S
C367 C366 1.287 . S
C367 C368 1.524 . S
C367 H370 0.999 . S
C368 H338 0.950 . S
C368 C367 1.524 . S
C368 C369 1.415 . S
C369 H339 0.950 . S
C369 C364 1.363 . S
C369 C368 1.415 . S
H370 C367 0.999 . S
H371 C352 0.913 . S
H372 C390 0.951 . S
H373 C392 0.951 . S
H374 C394 0.950 . S
H375 C395 0.950 . S
H376 C397 0.950 . S
H377 C400 0.950 . S
H378 C401 0.950 . S
H379 C403 0.950 . S
H380 C404 0.950 1_655 S
H381 C405 0.951 . S
H382 C407 0.951 . S
H383 C409 0.950 . S
H384 C410 0.950 . S
H385 C412 0.950 . S
H386 C415 0.950 . S
H387 C416 0.950 . S
H388 C418 0.950 . S
H389 C419 0.950 1_455 S
C390 H372 0.951 . S
C390 C391 1.366 . S
C390 C392 1.388 . S
C391 C390 1.366 . S
C391 C395 1.385 . S
C392 H373 0.951 . S
C392 C390 1.388 . S
C392 C393 1.366 . S
C393 C392 1.366 . S
C393 C394 1.414 . S
C393 C396 1.499 . S
C394 H374 0.950 . S
C394 C393 1.414 . S
C394 C395 1.374 . S
C395 H375 0.950 . S
C395 C391 1.385 . S
C395 C394 1.374 . S
C396 C393 1.499 . S
C396 C397 1.373 . S
C396 C398 1.389 . S
C397 H376 0.950 . S
C397 C396 1.373 . S
C397 C413 1.377 1_455 S
C398 C396 1.389 . S
C398 C399 1.524 . S
C398 C412 1.377 1_455 S
C399 C398 1.524 . S
C399 C400 1.397 . S
C399 C404 1.363 . S
C400 H377 0.950 . S
C400 C399 1.397 . S
C400 C401 1.334 . S
C401 H378 0.950 . S
C401 C400 1.334 . S
C401 C402 1.287 . S
C402 C401 1.287 . S
C402 C403 1.524 . S
C402 H421 0.913 . S
C403 H379 0.950 . S
C403 C402 1.524 . S
C403 C404 1.415 . S
C404 H380 0.950 1_455 S
C404 C399 1.363 . S
C404 C403 1.415 . S
C405 H381 0.951 . S
C405 C406 1.366 . S
C405 C407 1.388 . S
C406 C405 1.366 . S
C406 C410 1.385 . S
C407 H382 0.951 . S
C407 C405 1.388 . S
C407 C408 1.366 . S
C408 C407 1.366 . S
C408 C409 1.414 . S
C408 C411 1.499 . S
C409 H383 0.950 . S
C409 C408 1.414 . S
C409 C410 1.374 . S
C410 H384 0.950 . S
C410 C406 1.385 . S
C410 C409 1.374 . S
C411 C408 1.499 . S
C411 C412 1.373 . S
C411 C413 1.389 . S
C412 H385 0.950 . S
C412 C398 1.377 1_655 S
C412 C411 1.373 . S
C413 C397 1.377 1_655 S
C413 C411 1.389 . S
C413 C414 1.524 . S
C414 C413 1.524 . S
C414 C415 1.397 . S
C414 C419 1.363 . S
C415 H386 0.950 . S
C415 C414 1.397 . S
C415 C416 1.334 . S
C416 H387 0.950 . S
C416 C415 1.334 . S
C416 C417 1.287 . S
C417 C416 1.287 . S
C417 C418 1.524 . S
C417 H420 0.999 . S
C418 H388 0.950 . S
C418 C417 1.524 . S
C418 C419 1.415 . S
C419 H389 0.950 1_655 S
C419 C414 1.363 . S
C419 C418 1.415 . S
H420 C417 0.999 . S
H421 C402 0.913 . S
H422 C440 0.951 . S
H423 C442 0.951 . S
H424 C444 0.950 . S
H425 C445 0.950 . S
H426 C447 0.950 . S
H427 C450 0.950 . S
H428 C451 0.950 . S
H429 C453 0.950 . S
H430 C454 0.950 . S
H431 C455 0.951 . S
H432 C457 0.951 . S
H433 C459 0.950 . S
H434 C460 0.950 . S
H435 C462 0.950 . S
H436 C465 0.950 . S
H437 C466 0.950 . S
H438 C468 0.950 . S
H439 C469 0.950 . S
C440 H422 0.951 . S
C440 C441 1.366 . S
C440 C442 1.388 . S
C441 C440 1.366 . S
C441 C445 1.385 . S
C442 H423 0.951 . S
C442 C440 1.388 . S
C442 C443 1.366 . S
C443 C442 1.366 . S
C443 C444 1.414 . S
C443 C446 1.499 . S
C444 H424 0.950 . S
C444 C443 1.414 . S
C444 C445 1.374 . S
C445 H425 0.950 . S
C445 C441 1.385 . S
C445 C444 1.374 . S
C446 C443 1.499 . S
C446 C447 1.373 . S
C446 C448 1.389 . S
C447 H426 0.950 . S
C447 C446 1.373 . S
C447 C463 1.377 1_455 S
C448 C446 1.389 . S
C448 C449 1.524 . S
C448 C462 1.377 1_455 S
C449 C448 1.524 . S
C449 C450 1.397 . S
C449 C454 1.363 . S
C450 H427 0.950 . S
C450 C449 1.397 . S
C450 C451 1.334 . S
C451 H428 0.950 . S
C451 C450 1.334 . S
C451 C452 1.287 . S
C452 C451 1.287 . S
C452 C453 1.524 . S
C452 H471 0.913 . S
C453 H429 0.950 . S
C453 C452 1.524 . S
C453 C454 1.415 . S
C454 H430 0.950 . S
C454 C449 1.363 . S
C454 C453 1.415 . S
C455 H431 0.951 . S
C455 C456 1.366 . S
C455 C457 1.388 . S
C456 C455 1.366 . S
C456 C460 1.385 . S
C457 H432 0.951 . S
C457 C455 1.388 . S
C457 C458 1.366 . S
C458 C457 1.366 . S
C458 C459 1.414 . S
C458 C461 1.499 . S
C459 H433 0.950 . S
C459 C458 1.414 . S
C459 C460 1.374 . S
C460 H434 0.950 . S
C460 C456 1.385 . S
C460 C459 1.374 . S
C461 C458 1.499 . S
C461 C462 1.373 . S
C461 C463 1.389 . S
C462 H435 0.950 . S
C462 C448 1.377 1_655 S
C462 C461 1.373 . S
C463 C447 1.377 1_655 S
C463 C461 1.389 . S
C463 C464 1.524 . S
C464 C463 1.524 . S
C464 C465 1.397 . S
C464 C469 1.363 . S
C465 H436 0.950 . S
C465 C464 1.397 . S
C465 C466 1.334 . S
C466 H437 0.950 . S
C466 C465 1.334 . S
C466 C467 1.287 . S
C467 C466 1.287 . S
C467 C468 1.524 . S
C467 H470 0.999 . S
C468 H438 0.950 . S
C468 C467 1.524 . S
C468 C469 1.415 . S
C469 H439 0.950 . S
C469 C464 1.363 . S
C469 C468 1.415 . S
H470 C467 0.999 . S
H471 C452 0.913 . S
H472 C490 0.951 . S
H473 C492 0.951 . S
H474 C494 0.950 . S
H475 C495 0.950 . S
H476 C497 0.950 . S
H477 C500 0.950 . S
H478 C501 0.950 . S
H479 C503 0.950 . S
H480 C504 0.950 1_554 S
H481 C505 0.951 . S
H482 C507 0.951 . S
H483 C509 0.950 . S
H484 C510 0.950 . S
H485 C512 0.950 . S
H486 C515 0.950 . S
H487 C516 0.950 . S
H488 C518 0.950 . S
H489 C519 0.950 1_556 S
C490 H472 0.951 . S
C490 C491 1.366 . S
C490 C492 1.388 . S
C491 C490 1.366 . S
C491 C495 1.385 . S
C492 H473 0.951 . S
C492 C490 1.388 . S
C492 C493 1.366 . S
C493 C492 1.366 . S
C493 C494 1.414 . S
C493 C496 1.499 . S
C494 H474 0.950 . S
C494 C493 1.414 . S
C494 C495 1.374 . S
C495 H475 0.950 . S
C495 C491 1.385 . S
C495 C494 1.374 . S
C496 C493 1.499 . S
C496 C497 1.373 . S
C496 C498 1.389 . S
C497 H476 0.950 . S
C497 C496 1.373 . S
C497 C513 1.377 1_556 S
C498 C496 1.389 . S
C498 C499 1.524 . S
C498 C512 1.377 1_556 S
C499 C498 1.524 . S
C499 C500 1.397 . S
C499 C504 1.363 . S
C500 H477 0.950 . S
C500 C499 1.397 . S
C500 C501 1.334 . S
C501 H478 0.950 . S
C501 C500 1.334 . S
C501 C502 1.287 . S
C502 C501 1.287 . S
C502 C503 1.524 . S
C502 H521 0.913 . S
C503 H479 0.950 . S
C503 C502 1.524 . S
C503 C504 1.415 . S
C504 H480 0.950 1_556 S
C504 C499 1.363 . S
C504 C503 1.415 . S
C505 H481 0.951 . S
C505 C506 1.366 . S
C505 C507 1.388 . S
C506 C505 1.366 . S
C506 C510 1.385 . S
C507 H482 0.951 . S
C507 C505 1.388 . S
C507 C508 1.366 . S
C508 C507 1.366 . S
C508 C509 1.414 . S
C508 C511 1.499 . S
C509 H483 0.950 . S
C509 C508 1.414 . S
C509 C510 1.374 . S
C510 H484 0.950 . S
C510 C506 1.385 . S
C510 C509 1.374 . S
C511 C508 1.499 . S
C511 C512 1.373 . S
C511 C513 1.389 . S
C512 H485 0.950 . S
C512 C498 1.377 1_554 S
C512 C511 1.373 . S
C513 C497 1.377 1_554 S
C513 C511 1.389 . S
C513 C514 1.524 . S
C514 C513 1.524 . S
C514 C515 1.397 . S
C514 C519 1.363 . S
C515 H486 0.950 . S
C515 C514 1.397 . S
C515 C516 1.334 . S
C516 H487 0.950 . S
C516 C515 1.334 . S
C516 C517 1.287 . S
C517 C516 1.287 . S
C517 C518 1.524 . S
C517 H520 0.999 . S
C518 H488 0.950 . S
C518 C517 1.524 . S
C518 C519 1.415 . S
C519 H489 0.950 1_554 S
C519 C514 1.363 . S
C519 C518 1.415 . S
H520 C517 0.999 . S
H521 C502 0.913 . S
H522 C540 0.951 . S
H523 C542 0.951 . S
H524 C544 0.950 . S
H525 C545 0.950 . S
H526 C547 0.950 . S
H527 C550 0.950 . S
H528 C551 0.950 . S
H529 C553 0.950 . S
H530 C554 0.950 . S
H531 C555 0.951 . S
H532 C557 0.951 . S
H533 C559 0.950 . S
H534 C560 0.950 . S
H535 C562 0.950 . S
H536 C565 0.950 . S
H537 C566 0.950 . S
H538 C568 0.950 . S
H539 C569 0.950 . S
C540 H522 0.951 . S
C540 C541 1.366 . S
C540 C542 1.388 . S
C541 C540 1.366 . S
C541 C545 1.385 . S
C542 H523 0.951 . S
C542 C540 1.388 . S
C542 C543 1.366 . S
C543 C542 1.366 . S
C543 C544 1.414 . S
C543 C546 1.499 . S
C544 H524 0.950 . S
C544 C543 1.414 . S
C544 C545 1.374 . S
C545 H525 0.950 . S
C545 C541 1.385 . S
C545 C544 1.374 . S
C546 C543 1.499 . S
C546 C547 1.373 . S
C546 C548 1.389 . S
C547 H526 0.950 . S
C547 C546 1.373 . S
C547 C563 1.377 . S
C548 C546 1.389 . S
C548 C549 1.524 . S
C548 C562 1.377 . S
C549 C548 1.524 . S
C549 C550 1.397 . S
C549 C554 1.363 . S
C550 H527 0.950 . S
C550 C549 1.397 . S
C550 C551 1.334 . S
C551 H528 0.950 . S
C551 C550 1.334 . S
C551 C552 1.287 . S
C552 C551 1.287 . S
C552 C553 1.524 . S
C552 H571 0.913 . S
C553 H529 0.950 . S
C553 C552 1.524 . S
C553 C554 1.415 . S
C554 H530 0.950 . S
C554 C549 1.363 . S
C554 C553 1.415 . S
C555 H531 0.951 . S
C555 C556 1.366 . S
C555 C557 1.388 . S
C556 C555 1.366 . S
C556 C560 1.385 . S
C557 H532 0.951 . S
C557 C555 1.388 . S
C557 C558 1.366 . S
C558 C557 1.366 . S
C558 C559 1.414 . S
C558 C561 1.499 . S
C559 H533 0.950 . S
C559 C558 1.414 . S
C559 C560 1.374 . S
C560 H534 0.950 . S
C560 C556 1.385 . S
C560 C559 1.374 . S
C561 C558 1.499 . S
C561 C562 1.373 . S
C561 C563 1.389 . S
C562 H535 0.950 . S
C562 C548 1.377 . S
C562 C561 1.373 . S
C563 C547 1.377 . S
C563 C561 1.389 . S
C563 C564 1.524 . S
C564 C563 1.524 . S
C564 C565 1.397 . S
C564 C569 1.363 . S
C565 H536 0.950 . S
C565 C564 1.397 . S
C565 C566 1.334 . S
C566 H537 0.950 . S
C566 C565 1.334 . S
C566 C567 1.287 . S
C567 C566 1.287 . S
C567 C568 1.524 . S
C567 H570 0.999 . S
C568 H538 0.950 . S
C568 C567 1.524 . S
C568 C569 1.415 . S
C569 H539 0.950 . S
C569 C564 1.363 . S
C569 C568 1.415 . S
H570 C567 0.999 . S
H571 C552 0.913 . S
H572 C590 0.951 . S
H573 C592 0.951 . S
H574 C594 0.950 . S
H575 C595 0.950 . S
H576 C597 0.950 . S
H577 C600 0.950 . S
H578 C601 0.950 . S
H579 C603 0.950 . S
H580 C604 0.950 . S
H581 C605 0.951 . S
H582 C607 0.951 . S
H583 C609 0.950 . S
H584 C610 0.950 . S
H585 C612 0.950 . S
H586 C615 0.950 . S
H587 C616 0.950 . S
H588 C618 0.950 . S
H589 C619 0.950 . S
C590 H572 0.951 . S
C590 C591 1.366 . S
C590 C592 1.388 . S
C591 C590 1.366 . S
C591 C595 1.385 . S
C592 H573 0.951 . S
C592 C590 1.388 . S
C592 C593 1.366 . S
C593 C592 1.366 . S
C593 C594 1.414 . S
C593 C596 1.499 . S
C594 H574 0.950 . S
C594 C593 1.414 . S
C594 C595 1.374 . S
C595 H575 0.950 . S
C595 C591 1.385 . S
C595 C594 1.374 . S
C596 C593 1.499 . S
C596 C597 1.373 1_556 S
C596 C598 1.389 . S
C597 H576 0.950 . S
C597 C596 1.373 1_554 S
C597 C613 1.377 . S
C598 C596 1.389 . S
C598 C599 1.524 . S
C598 C612 1.377 . S
C599 C598 1.524 . S
C599 C600 1.397 . S
C599 C604 1.363 . S
C600 H577 0.950 . S
C600 C599 1.397 . S
C600 C601 1.334 . S
C601 H578 0.950 . S
C601 C600 1.334 . S
C601 C602 1.287 . S
C602 C601 1.287 . S
C602 C603 1.524 . S
C602 H621 0.913 . S
C603 H579 0.950 . S
C603 C602 1.524 . S
C603 C604 1.415 . S
C604 H580 0.950 . S
C604 C599 1.363 . S
C604 C603 1.415 . S
C605 H581 0.951 . S
C605 C606 1.366 . S
C605 C607 1.388 . S
C606 C605 1.366 . S
C606 C610 1.385 . S
C607 H582 0.951 . S
C607 C605 1.388 . S
C607 C608 1.366 . S
C608 C607 1.366 . S
C608 C609 1.414 . S
C608 C611 1.499 . S
C609 H583 0.950 . S
C609 C608 1.414 . S
C609 C610 1.374 . S
C610 H584 0.950 . S
C610 C606 1.385 . S
C610 C609 1.374 . S
C611 C608 1.499 . S
C611 C612 1.373 1_554 S
C611 C613 1.389 . S
C612 H585 0.950 . S
C612 C598 1.377 . S
C612 C611 1.373 1_556 S
C613 C597 1.377 . S
C613 C611 1.389 . S
C613 C614 1.524 . S
C614 C613 1.524 . S
C614 C615 1.397 . S
C614 C619 1.363 . S
C615 H586 0.950 . S
C615 C614 1.397 . S
C615 C616 1.334 . S
C616 H587 0.950 . S
C616 C615 1.334 . S
C616 C617 1.287 . S
C617 C616 1.287 . S
C617 C618 1.524 . S
C617 H620 0.999 . S
C618 H588 0.950 . S
C618 C617 1.524 . S
C618 C619 1.415 . S
C619 H589 0.950 . S
C619 C614 1.363 . S
C619 C618 1.415 . S
H620 C617 0.999 . S
H621 C602 0.913 . S
H622 C640 0.951 . S
H623 C642 0.951 . S
H624 C644 0.950 . S
H625 C645 0.950 . S
H626 C647 0.950 . S
H627 C650 0.950 . S
H628 C651 0.950 . S
H629 C653 0.950 . S
H630 C654 0.950 . S
H631 C655 0.951 . S
H632 C657 0.951 . S
H633 C659 0.950 . S
H634 C660 0.950 . S
H635 C662 0.950 . S
H636 C665 0.950 . S
H637 C666 0.950 . S
H638 C668 0.950 . S
H639 C669 0.950 . S
C640 H622 0.951 . S
C640 C641 1.366 . S
C640 C642 1.388 . S
C641 C640 1.366 . S
C641 C645 1.385 . S
C642 H623 0.951 . S
C642 C640 1.388 . S
C642 C643 1.366 . S
C643 C642 1.366 . S
C643 C644 1.414 . S
C643 C646 1.499 . S
C644 H624 0.950 . S
C644 C643 1.414 . S
C644 C645 1.374 . S
C645 H625 0.950 . S
C645 C641 1.385 . S
C645 C644 1.374 . S
C646 C643 1.499 . S
C646 C647 1.373 . S
C646 C648 1.389 . S
C647 H626 0.950 . S
C647 C646 1.373 . S
C647 C663 1.377 . S
C648 C646 1.389 . S
C648 C649 1.524 . S
C648 C662 1.377 . S
C649 C648 1.524 . S
C649 C650 1.397 . S
C649 C654 1.363 . S
C650 H627 0.950 . S
C650 C649 1.397 . S
C650 C651 1.334 . S
C651 H628 0.950 . S
C651 C650 1.334 . S
C651 C652 1.287 . S
C652 C651 1.287 . S
C652 C653 1.524 . S
C652 H671 0.913 . S
C653 H629 0.950 . S
C653 C652 1.524 . S
C653 C654 1.415 . S
C654 H630 0.950 . S
C654 C649 1.363 . S
C654 C653 1.415 . S
C655 H631 0.951 . S
C655 C656 1.366 . S
C655 C657 1.388 . S
C656 C655 1.366 . S
C656 C660 1.385 . S
C657 H632 0.951 . S
C657 C655 1.388 . S
C657 C658 1.366 . S
C658 C657 1.366 . S
C658 C659 1.414 . S
C658 C661 1.499 . S
C659 H633 0.950 . S
C659 C658 1.414 . S
C659 C660 1.374 . S
C660 H634 0.950 . S
C660 C656 1.385 . S
C660 C659 1.374 . S
C661 C658 1.499 . S
C661 C662 1.373 . S
C661 C663 1.389 . S
C662 H635 0.950 . S
C662 C648 1.377 . S
C662 C661 1.373 . S
C663 C647 1.377 . S
C663 C661 1.389 . S
C663 C664 1.524 . S
C664 C663 1.524 . S
C664 C665 1.397 . S
C664 C669 1.363 . S
C665 H636 0.950 . S
C665 C664 1.397 . S
C665 C666 1.334 . S
C666 H637 0.950 . S
C666 C665 1.334 . S
C666 C667 1.287 . S
C667 C666 1.287 . S
C667 C668 1.524 . S
C667 H670 0.999 . S
C668 H638 0.950 . S
C668 C667 1.524 . S
C668 C669 1.415 . S
C669 H639 0.950 . S
C669 C664 1.363 . S
C669 C668 1.415 . S
H670 C667 0.999 . S
H671 C652 0.913 . S
H672 C690 0.951 . S
H673 C692 0.951 . S
H674 C694 0.950 . S
H675 C695 0.950 . S
H676 C697 0.950 . S
H677 C700 0.950 . S
H678 C701 0.950 . S
H679 C703 0.950 . S
H680 C704 0.950 . S
H681 C705 0.951 . S
H682 C707 0.951 . S
H683 C709 0.950 . S
H684 C710 0.950 . S
H685 C712 0.950 . S
H686 C715 0.950 . S
H687 C716 0.950 . S
H688 C718 0.950 . S
H689 C719 0.950 . S
C690 H672 0.951 . S
C690 C691 1.366 . S
C690 C692 1.388 . S
C691 C690 1.366 . S
C691 C695 1.385 . S
C692 H673 0.951 . S
C692 C690 1.388 . S
C692 C693 1.366 . S
C693 C692 1.366 . S
C693 C694 1.414 . S
C693 C696 1.499 . S
C694 H674 0.950 . S
C694 C693 1.414 . S
C694 C695 1.374 . S
C695 H675 0.950 . S
C695 C691 1.385 . S
C695 C694 1.374 . S
C696 C693 1.499 . S
C696 C697 1.373 . S
C696 C698 1.389 . S
C697 H676 0.950 . S
C697 C696 1.373 . S
C697 C713 1.377 1_546 S
C698 C696 1.389 . S
C698 C699 1.524 . S
C698 C712 1.377 1_546 S
C699 C698 1.524 . S
C699 C700 1.397 . S
C699 C704 1.363 1_556 S
C700 H677 0.950 . S
C700 C699 1.397 . S
C700 C701 1.334 . S
C701 H678 0.950 . S
C701 C700 1.334 . S
C701 C702 1.287 . S
C702 C701 1.287 . S
C702 C703 1.524 1_556 S
C702 H721 0.913 . S
C703 H679 0.950 . S
C703 C702 1.524 1_554 S
C703 C704 1.415 . S
C704 H680 0.950 . S
C704 C699 1.363 1_554 S
C704 C703 1.415 . S
C705 H681 0.951 . S
C705 C706 1.366 . S
C705 C707 1.388 . S
C706 C705 1.366 . S
C706 C710 1.385 . S
C707 H682 0.951 . S
C707 C705 1.388 . S
C707 C708 1.366 . S
C708 C707 1.366 . S
C708 C709 1.414 . S
C708 C711 1.499 . S
C709 H683 0.950 . S
C709 C708 1.414 . S
C709 C710 1.374 . S
C710 H684 0.950 . S
C710 C706 1.385 . S
C710 C709 1.374 . S
C711 C708 1.499 . S
C711 C712 1.373 . S
C711 C713 1.389 . S
C712 H685 0.950 . S
C712 C698 1.377 1_564 S
C712 C711 1.373 . S
C713 C697 1.377 1_564 S
C713 C711 1.389 . S
C713 C714 1.524 . S
C714 C713 1.524 . S
C714 C715 1.397 . S
C714 C719 1.363 1_554 S
C715 H686 0.950 . S
C715 C714 1.397 . S
C715 C716 1.334 . S
C716 H687 0.950 . S
C716 C715 1.334 . S
C716 C717 1.287 . S
C717 C716 1.287 . S
C717 C718 1.524 1_554 S
C717 H720 0.999 . S
C718 H688 0.950 . S
C718 C717 1.524 1_556 S
C718 C719 1.415 . S
C719 H689 0.950 . S
C719 C714 1.363 1_556 S
C719 C718 1.415 . S
H720 C717 0.999 . S
H721 C702 0.913 . S
H722 C740 0.951 . S
H723 C742 0.951 . S
H724 C744 0.950 . S
H725 C745 0.950 . S
H726 C747 0.952 . S
H727 C750 0.950 . S
H728 C751 0.950 . S
H729 C753 0.950 . S
H730 C754 0.950 . S
H731 C755 0.951 . S
H732 C757 0.951 . S
H733 C759 0.950 . S
H734 C760 0.950 . S
H735 C762 0.952 . S
H736 C765 0.950 . S
H737 C766 0.950 . S
H738 C768 0.950 . S
H739 C769 0.950 . S
C740 H722 0.951 . S
C740 C741 1.366 . S
C740 C742 1.388 . S
C741 C740 1.366 . S
C741 C745 1.385 . S
C742 H723 0.951 . S
C742 C740 1.388 . S
C742 C743 1.366 . S
C743 C742 1.366 . S
C743 C744 1.414 . S
C743 C746 1.499 . S
C744 H724 0.950 . S
C744 C743 1.414 . S
C744 C745 1.374 . S
C745 H725 0.950 . S
C745 C741 1.385 . S
C745 C744 1.374 . S
C746 C743 1.499 . S
C746 C747 1.346 1_545 S
C746 C748 1.389 . S
C747 H726 0.952 . S
C747 C746 1.346 1_565 S
C747 C763 1.402 . S
C748 C746 1.389 . S
C748 C749 1.524 . S
C748 C762 1.402 . S
C749 C748 1.524 . S
C749 C750 1.397 . S
C749 C754 1.363 . S
C750 H727 0.950 . S
C750 C749 1.397 . S
C750 C751 1.334 . S
C751 H728 0.950 . S
C751 C750 1.334 . S
C751 C752 1.287 . S
C752 C751 1.287 . S
C752 C753 1.524 . S
C752 H771 0.913 . S
C753 H729 0.950 . S
C753 C752 1.524 . S
C753 C754 1.415 . S
C754 H730 0.950 . S
C754 C749 1.363 . S
C754 C753 1.415 . S
C755 H731 0.951 . S
C755 C756 1.366 . S
C755 C757 1.388 . S
C756 C755 1.366 . S
C756 C760 1.385 . S
C757 H732 0.951 . S
C757 C755 1.388 . S
C757 C758 1.366 . S
C758 C757 1.366 . S
C758 C759 1.414 . S
C758 C761 1.499 . S
C759 H733 0.950 . S
C759 C758 1.414 . S
C759 C760 1.374 . S
C760 H734 0.950 . S
C760 C756 1.385 . S
C760 C759 1.374 . S
C761 C758 1.499 . S
C761 C762 1.346 1_565 S
C761 C763 1.389 . S
C762 H735 0.952 . S
C762 C748 1.402 . S
C762 C761 1.346 1_545 S
C763 C747 1.402 . S
C763 C761 1.389 . S
C763 C764 1.524 . S
C764 C763 1.524 . S
C764 C765 1.397 . S
C764 C769 1.363 . S
C765 H736 0.950 . S
C765 C764 1.397 . S
C765 C766 1.334 . S
C766 H737 0.950 . S
C766 C765 1.334 . S
C766 C767 1.287 . S
C767 C766 1.287 . S
C767 C768 1.524 . S
C767 H770 0.999 . S
C768 H738 0.950 . S
C768 C767 1.524 . S
C768 C769 1.415 . S
C769 H739 0.950 . S
C769 C764 1.363 . S
C769 C768 1.415 . S
H770 C767 0.999 . S
H771 C752 0.913 . S
H772 C790 0.951 . S
H773 C792 0.951 . S
H774 C794 0.950 . S
H775 C795 0.950 . S
H776 C797 0.950 . S
H777 C800 0.950 . S
H778 C801 0.950 . S
H779 C803 0.950 . S
H780 C804 0.950 . S
H781 C805 0.951 . S
H782 C807 0.951 . S
H783 C809 0.950 . S
H784 C810 0.950 . S
H785 C812 0.950 . S
H786 C815 0.950 . S
H787 C816 0.950 . S
H788 C818 0.950 . S
H789 C819 0.950 . S
C790 H772 0.951 . S
C790 C791 1.366 . S
C790 C792 1.388 . S
C791 C790 1.366 . S
C791 C795 1.385 . S
C792 H773 0.951 . S
C792 C790 1.388 . S
C792 C793 1.366 . S
C793 C792 1.366 . S
C793 C794 1.414 . S
C793 C796 1.499 . S
C794 H774 0.950 . S
C794 C793 1.414 . S
C794 C795 1.374 . S
C795 H775 0.950 . S
C795 C791 1.385 . S
C795 C794 1.374 . S
C796 C793 1.499 . S
C796 C797 1.373 . S
C796 C798 1.389 . S
C797 H776 0.950 . S
C797 C796 1.373 . S
C797 C813 1.377 1_546 S
C798 C796 1.389 . S
C798 C799 1.524 . S
C798 C812 1.377 1_546 S
C799 C798 1.524 . S
C799 C800 1.397 . S
C799 C804 1.363 1_545 S
C800 H777 0.950 . S
C800 C799 1.397 . S
C800 C801 1.334 . S
C801 H778 0.950 . S
C801 C800 1.334 . S
C801 C802 1.287 . S
C802 C801 1.287 . S
C802 C803 1.524 1_545 S
C802 H821 0.913 . S
C803 H779 0.950 . S
C803 C802 1.524 1_565 S
C803 C804 1.415 . S
C804 H780 0.950 . S
C804 C799 1.363 1_565 S
C804 C803 1.415 . S
C805 H781 0.951 . S
C805 C806 1.366 . S
C805 C807 1.388 . S
C806 C805 1.366 . S
C806 C810 1.385 . S
C807 H782 0.951 . S
C807 C805 1.388 . S
C807 C808 1.366 . S
C808 C807 1.366 . S
C808 C809 1.414 . S
C808 C811 1.499 . S
C809 H783 0.950 . S
C809 C808 1.414 . S
C809 C810 1.374 . S
C810 H784 0.950 . S
C810 C806 1.385 . S
C810 C809 1.374 . S
C811 C808 1.499 . S
C811 C812 1.373 . S
C811 C813 1.389 . S
C812 H785 0.950 . S
C812 C798 1.377 1_564 S
C812 C811 1.373 . S
C813 C797 1.377 1_564 S
C813 C811 1.389 . S
C813 C814 1.524 . S
C814 C813 1.524 . S
C814 C815 1.397 . S
C814 C819 1.363 1_565 S
C815 H786 0.950 . S
C815 C814 1.397 . S
C815 C816 1.334 . S
C816 H787 0.950 . S
C816 C815 1.334 . S
C816 C817 1.287 . S
C817 C816 1.287 . S
C817 C818 1.524 1_565 S
C817 H820 0.999 . S
C818 H788 0.950 . S
C818 C817 1.524 1_545 S
C818 C819 1.415 . S
C819 H789 0.950 . S
C819 C814 1.363 1_545 S
C819 C818 1.415 . S
H820 C817 0.999 . S
H821 C802 0.913 . S
H822 C840 0.951 . S
H823 C842 0.951 . S
H824 C844 0.950 . S
H825 C845 0.950 . S
H826 C847 0.950 . S
H827 C850 0.935 1_565 S
H828 C851 0.950 . S
H829 C853 0.950 . S
H830 C854 0.950 . S
H831 C855 0.951 . S
H832 C857 0.951 . S
H833 C859 0.950 . S
H834 C860 0.950 . S
H835 C862 0.950 . S
H836 C865 0.935 1_545 S
H837 C866 0.950 . S
H838 C868 0.950 . S
H839 C869 0.950 . S
C840 H822 0.951 . S
C840 C841 1.366 . S
C840 C842 1.388 . S
C841 C840 1.366 . S
C841 C845 1.385 . S
C842 H823 0.951 . S
C842 C840 1.388 . S
C842 C843 1.366 . S
C843 C842 1.366 . S
C843 C844 1.414 . S
C843 C846 1.499 . S
C844 H824 0.950 . S
C844 C843 1.414 . S
C844 C845 1.374 . S
C845 H825 0.950 . S
C845 C841 1.385 . S
C845 C844 1.374 . S
C846 C843 1.499 . S
C846 C847 1.373 . S
C846 C848 1.389 . S
C847 H826 0.950 . S
C847 C846 1.373 . S
C847 C863 1.377 1_545 S
C848 C846 1.389 . S
C848 C849 1.524 . S
C848 C862 1.377 1_545 S
C849 C848 1.524 . S
C849 C850 1.397 . S
C849 C854 1.363 . S
C850 H827 0.935 1_545 S
C850 C849 1.397 . S
C850 C851 1.334 . S
C851 H828 0.950 . S
C851 C850 1.334 . S
C851 C852 1.287 . S
C852 C851 1.287 . S
C852 C853 1.524 . S
C852 H871 0.913 . S
C853 H829 0.950 . S
C853 C852 1.524 . S
C853 C854 1.415 . S
C854 H830 0.950 . S
C854 C849 1.363 . S
C854 C853 1.415 . S
C855 H831 0.951 . S
C855 C856 1.366 . S
C855 C857 1.388 . S
C856 C855 1.366 . S
C856 C860 1.385 . S
C857 H832 0.951 . S
C857 C855 1.388 . S
C857 C858 1.366 . S
C858 C857 1.366 . S
C858 C859 1.414 . S
C858 C861 1.499 . S
C859 H833 0.950 . S
C859 C858 1.414 . S
C859 C860 1.374 . S
C860 H834 0.950 . S
C860 C856 1.385 . S
C860 C859 1.374 . S
C861 C858 1.499 . S
C861 C862 1.373 . S
C861 C863 1.389 . S
C862 H835 0.950 . S
C862 C848 1.377 1_565 S
C862 C861 1.373 . S
C863 C847 1.377 1_565 S
C863 C861 1.389 . S
C863 C864 1.524 . S
C864 C863 1.524 . S
C864 C865 1.397 . S
C864 C869 1.363 . S
C865 H836 0.935 1_565 S
C865 C864 1.397 . S
C865 C866 1.334 . S
C866 H837 0.950 . S
C866 C865 1.334 . S
C866 C867 1.287 . S
C867 C866 1.287 . S
C867 C868 1.524 . S
C867 H870 0.999 . S
C868 H838 0.950 . S
C868 C867 1.524 . S
C868 C869 1.415 . S
C869 H839 0.950 . S
C869 C864 1.363 . S
C869 C868 1.415 . S
H870 C867 0.999 . S
H871 C852 0.913 . S
H872 C890 0.951 . S
H873 C892 0.951 . S
H874 C894 0.950 . S
H875 C895 0.950 . S
H876 C897 0.950 . S
H877 C900 0.950 . S
H878 C901 0.950 . S
H879 C903 0.950 . S
H880 C904 0.950 . S
H881 C905 0.951 . S
H882 C907 0.951 . S
H883 C909 0.950 . S
H884 C910 0.950 . S
H885 C912 0.950 . S
H886 C915 0.950 . S
H887 C916 0.950 . S
H888 C918 0.950 . S
H889 C919 0.950 . S
C890 H872 0.951 . S
C890 C891 1.366 . S
C890 C892 1.388 1_554 S
C891 C890 1.366 . S
C891 C895 1.385 . S
C892 H873 0.951 . S
C892 C890 1.388 1_556 S
C892 C893 1.366 1_556 S
C893 C892 1.366 1_554 S
C893 C894 1.414 . S
C893 C896 1.499 1_554 S
C894 H874 0.950 . S
C894 C893 1.414 . S
C894 C895 1.374 . S
C895 H875 0.950 . S
C895 C891 1.385 . S
C895 C894 1.374 . S
C896 C893 1.499 1_556 S
C896 C897 1.373 . S
C896 C898 1.389 . S
C897 H876 0.950 . S
C897 C896 1.373 . S
C897 C913 1.377 . S
C898 C896 1.389 . S
C898 C899 1.524 . S
C898 C912 1.377 . S
C899 C898 1.524 . S
C899 C900 1.397 1_556 S
C899 C904 1.363 . S
C900 H877 0.950 . S
C900 C899 1.397 1_554 S
C900 C901 1.334 . S
C901 H878 0.950 . S
C901 C900 1.334 . S
C901 C902 1.287 1_554 S
C902 C901 1.287 1_556 S
C902 C903 1.524 . S
C902 H921 0.913 . S
C903 H879 0.950 . S
C903 C902 1.524 . S
C903 C904 1.415 . S
C904 H880 0.950 . S
C904 C899 1.363 . S
C904 C903 1.415 . S
C905 H881 0.951 . S
C905 C906 1.366 . S
C905 C907 1.388 . S
C906 C905 1.366 . S
C906 C910 1.385 . S
C907 H882 0.951 . S
C907 C905 1.388 . S
C907 C908 1.366 . S
C908 C907 1.366 . S
C908 C909 1.414 . S
C908 C911 1.499 . S
C909 H883 0.950 . S
C909 C908 1.414 . S
C909 C910 1.374 . S
C910 H884 0.950 . S
C910 C906 1.385 . S
C910 C909 1.374 . S
C911 C908 1.499 . S
C911 C912 1.373 . S
C911 C913 1.389 . S
C912 H885 0.950 . S
C912 C898 1.377 . S
C912 C911 1.373 . S
C913 C897 1.377 . S
C913 C911 1.389 . S
C913 C914 1.524 . S
C914 C913 1.524 . S
C914 C915 1.397 . S
C914 C919 1.363 . S
C915 H886 0.950 . S
C915 C914 1.397 . S
C915 C916 1.334 . S
C916 H887 0.950 . S
C916 C915 1.334 . S
C916 C917 1.287 . S
C917 C916 1.287 . S
C917 C918 1.524 . S
C917 H920 0.999 . S
C918 H888 0.950 . S
C918 C917 1.524 . S
C918 C919 1.415 . S
C919 H889 0.950 . S
C919 C914 1.363 . S
C919 C918 1.415 . S
H920 C917 0.999 . S
H921 C902 0.913 . S
H922 C940 0.951 . S
H923 C942 0.951 . S
H924 C944 0.950 . S
H925 C945 0.950 . S
H926 C947 0.950 . S
H927 C950 0.950 . S
H928 C951 0.950 . S
H929 C953 0.950 . S
H930 C954 0.950 . S
H931 C955 0.951 . S
H932 C957 0.951 . S
H933 C959 0.950 . S
H934 C960 0.950 . S
H935 C962 0.950 . S
H936 C965 0.950 . S
H937 C966 0.950 . S
H938 C968 0.950 . S
H939 C969 0.950 . S
C940 H922 0.951 . S
C940 C941 1.366 . S
C940 C942 1.388 . S
C941 C940 1.366 . S
C941 C945 1.385 . S
C942 H923 0.951 . S
C942 C940 1.388 . S
C942 C943 1.366 . S
C943 C942 1.366 . S
C943 C944 1.414 . S
C943 C946 1.499 . S
C944 H924 0.950 . S
C944 C943 1.414 . S
C944 C945 1.374 . S
C945 H925 0.950 . S
C945 C941 1.385 . S
C945 C944 1.374 . S
C946 C943 1.499 . S
C946 C947 1.373 . S
C946 C948 1.389 . S
C947 H926 0.950 . S
C947 C946 1.373 . S
C947 C963 1.377 . S
C948 C946 1.389 . S
C948 C949 1.524 . S
C948 C962 1.377 . S
C949 C948 1.524 . S
C949 C950 1.397 . S
C949 C954 1.363 . S
C950 H927 0.950 . S
C950 C949 1.397 . S
C950 C951 1.334 . S
C951 H928 0.950 . S
C951 C950 1.334 . S
C951 C952 1.287 . S
C952 C951 1.287 . S
C952 C953 1.524 . S
C952 H971 0.913 . S
C953 H929 0.950 . S
C953 C952 1.524 . S
C953 C954 1.415 . S
C954 H930 0.950 . S
C954 C949 1.363 . S
C954 C953 1.415 . S
C955 H931 0.951 . S
C955 C956 1.366 . S
C955 C957 1.388 . S
C956 C955 1.366 . S
C956 C960 1.385 . S
C957 H932 0.951 . S
C957 C955 1.388 . S
C957 C958 1.366 . S
C958 C957 1.366 . S
C958 C959 1.414 . S
C958 C961 1.499 . S
C959 H933 0.950 . S
C959 C958 1.414 . S
C959 C960 1.374 . S
C960 H934 0.950 . S
C960 C956 1.385 . S
C960 C959 1.374 . S
C961 C958 1.499 . S
C961 C962 1.373 . S
C961 C963 1.389 . S
C962 H935 0.950 . S
C962 C948 1.377 . S
C962 C961 1.373 . S
C963 C947 1.377 . S
C963 C961 1.389 . S
C963 C964 1.524 . S
C964 C963 1.524 . S
C964 C965 1.397 . S
C964 C969 1.363 . S
C965 H936 0.950 . S
C965 C964 1.397 . S
C965 C966 1.334 . S
C966 H937 0.950 . S
C966 C965 1.334 . S
C966 C967 1.287 . S
C967 C966 1.287 . S
C967 C968 1.524 . S
C967 H970 0.999 . S
C968 H938 0.950 . S
C968 C967 1.524 . S
C968 C969 1.415 . S
C969 H939 0.950 . S
C969 C964 1.363 . S
C969 C968 1.415 . S
H970 C967 0.999 . S
H971 C952 0.913 . S
H972 C990 0.951 . S
H973 C992 0.951 . S
H974 C994 0.950 . S
H975 C995 0.950 . S
H976 C997 0.950 . S
H977 C1000 0.950 . S
H978 C1001 0.950 . S
H979 C1003 0.950 . S
H980 C1004 0.950 . S
H981 C1005 0.951 . S
H982 C1007 0.951 . S
H983 C1009 0.950 . S
H984 C1010 0.950 . S
H985 C1012 0.950 . S
H986 C1015 0.950 . S
H987 C1016 0.950 . S
H988 C1018 0.950 . S
H989 C1019 0.950 . S
C990 H972 0.951 . S
C990 C991 1.366 . S
C990 C992 1.388 . S
C991 C990 1.366 . S
C991 C995 1.385 . S
C992 H973 0.951 . S
C992 C990 1.388 . S
C992 C993 1.366 . S
C993 C992 1.366 . S
C993 C994 1.414 . S
C993 C996 1.499 . S
C994 H974 0.950 . S
C994 C993 1.414 . S
C994 C995 1.374 . S
C995 H975 0.950 . S
C995 C991 1.385 . S
C995 C994 1.374 . S
C996 C993 1.499 . S
C996 C997 1.373 . S
C996 C998 1.389 . S
C997 H976 0.950 . S
C997 C996 1.373 . S
C997 C1013 1.377 . S
C998 C996 1.389 . S
C998 C999 1.524 . S
C998 C1012 1.377 . S
C999 C998 1.524 . S
C999 C1000 1.397 . S
C999 C1004 1.363 . S
C1000 H977 0.950 . S
C1000 C999 1.397 . S
C1000 C1001 1.334 . S
C1001 H978 0.950 . S
C1001 C1000 1.334 . S
C1001 C1002 1.287 . S
C1002 C1001 1.287 . S
C1002 C1003 1.524 . S
C1002 H1021 0.913 . S
C1003 H979 0.950 . S
C1003 C1002 1.524 . S
C1003 C1004 1.415 . S
C1004 H980 0.950 . S
C1004 C999 1.363 . S
C1004 C1003 1.415 . S
C1005 H981 0.951 . S
C1005 C1006 1.366 . S
C1005 C1007 1.388 . S
C1006 C1005 1.366 . S
C1006 C1010 1.385 . S
C1007 H982 0.951 . S
C1007 C1005 1.388 . S
C1007 C1008 1.366 . S
C1008 C1007 1.366 . S
C1008 C1009 1.414 1_556 S
C1008 C1011 1.499 1_556 S
C1009 H983 0.950 . S
C1009 C1008 1.414 1_554 S
C1009 C1010 1.374 1_554 S
C1010 H984 0.950 . S
C1010 C1006 1.385 . S
C1010 C1009 1.374 1_556 S
C1011 C1008 1.499 1_554 S
C1011 C1012 1.373 . S
C1011 C1013 1.389 . S
C1012 H985 0.950 . S
C1012 C998 1.377 . S
C1012 C1011 1.373 . S
C1013 C997 1.377 . S
C1013 C1011 1.389 . S
C1013 C1014 1.524 . S
C1014 C1013 1.524 . S
C1014 C1015 1.397 . S
C1014 C1019 1.363 1_554 S
C1015 H986 0.950 . S
C1015 C1014 1.397 . S
C1015 C1016 1.334 1_554 S
C1016 H987 0.950 . S
C1016 C1015 1.334 1_556 S
C1016 C1017 1.287 . S
C1017 C1016 1.287 . S
C1017 C1018 1.524 . S
C1017 H1020 0.999 . S
C1018 H988 0.950 . S
C1018 C1017 1.524 . S
C1018 C1019 1.415 . S
C1019 H989 0.950 . S
C1019 C1014 1.363 1_556 S
C1019 C1018 1.415 . S
H1020 C1017 0.999 . S
H1021 C1002 0.913 . S
H1022 C1040 0.951 . S
H1023 C1042 0.951 . S
H1024 C1044 0.950 . S
H1025 C1045 0.950 . S
H1026 C1047 0.950 . S
H1027 C1050 0.950 . S
H1028 C1051 0.950 . S
H1029 C1053 0.950 . S
H1030 C1054 0.950 . S
H1031 C1055 0.951 . S
H1032 C1057 0.951 . S
H1033 C1059 0.950 . S
H1034 C1060 0.950 . S
H1035 C1062 0.950 . S
H1036 C1065 0.950 . S
H1037 C1066 0.950 . S
H1038 C1068 0.950 . S
H1039 C1069 0.950 . S
C1040 H1022 0.951 . S
C1040 C1041 1.366 . S
C1040 C1042 1.388 . S
C1041 C1040 1.366 . S
C1041 C1045 1.385 . S
C1042 H1023 0.951 . S
C1042 C1040 1.388 . S
C1042 C1043 1.366 . S
C1043 C1042 1.366 . S
C1043 C1044 1.414 . S
C1043 C1046 1.499 . S
C1044 H1024 0.950 . S
C1044 C1043 1.414 . S
C1044 C1045 1.374 . S
C1045 H1025 0.950 . S
C1045 C1041 1.385 . S
C1045 C1044 1.374 . S
C1046 C1043 1.499 . S
C1046 C1047 1.373 . S
C1046 C1048 1.389 . S
C1047 H1026 0.950 . S
C1047 C1046 1.373 . S
C1047 C1063 1.377 . S
C1048 C1046 1.389 . S
C1048 C1049 1.524 . S
C1048 C1062 1.377 . S
C1049 C1048 1.524 . S
C1049 C1050 1.397 . S
C1049 C1054 1.363 . S
C1050 H1027 0.950 . S
C1050 C1049 1.397 . S
C1050 C1051 1.334 . S
C1051 H1028 0.950 . S
C1051 C1050 1.334 . S
C1051 C1052 1.287 . S
C1052 C1051 1.287 . S
C1052 C1053 1.524 . S
C1052 H1071 0.913 . S
C1053 H1029 0.950 . S
C1053 C1052 1.524 . S
C1053 C1054 1.415 . S
C1054 H1030 0.950 . S
C1054 C1049 1.363 . S
C1054 C1053 1.415 . S
C1055 H1031 0.951 . S
C1055 C1056 1.366 . S
C1055 C1057 1.388 . S
C1056 C1055 1.366 . S
C1056 C1060 1.385 . S
C1057 H1032 0.951 . S
C1057 C1055 1.388 . S
C1057 C1058 1.366 . S
C1058 C1057 1.366 . S
C1058 C1059 1.414 . S
C1058 C1061 1.499 . S
C1059 H1033 0.950 . S
C1059 C1058 1.414 . S
C1059 C1060 1.374 . S
C1060 H1034 0.950 . S
C1060 C1056 1.385 . S
C1060 C1059 1.374 . S
C1061 C1058 1.499 . S
C1061 C1062 1.373 . S
C1061 C1063 1.389 . S
C1062 H1035 0.950 . S
C1062 C1048 1.377 . S
C1062 C1061 1.373 . S
C1063 C1047 1.377 . S
C1063 C1061 1.389 . S
C1063 C1064 1.524 . S
C1064 C1063 1.524 . S
C1064 C1065 1.397 . S
C1064 C1069 1.363 . S
C1065 H1036 0.950 . S
C1065 C1064 1.397 . S
C1065 C1066 1.334 . S
C1066 H1037 0.950 . S
C1066 C1065 1.334 . S
C1066 C1067 1.287 . S
C1067 C1066 1.287 . S
C1067 C1068 1.524 . S
C1067 H1070 0.999 . S
C1068 H1038 0.950 . S
C1068 C1067 1.524 . S
C1068 C1069 1.415 . S
C1069 H1039 0.950 . S
C1069 C1064 1.363 . S
C1069 C1068 1.415 . S
H1070 C1067 0.999 . S
H1071 C1052 0.913 . S
H1072 C1090 0.951 . S
H1073 C1092 0.951 . S
H1074 C1094 0.950 . S
H1075 C1095 0.950 . S
H1076 C1097 0.950 . S
H1077 C1100 0.950 . S
H1078 C1101 0.950 . S
H1079 C1103 0.950 . S
H1080 C1104 0.950 . S
H1081 C1105 0.951 . S
H1082 C1107 0.929 1_556 S
H1083 C1109 0.950 . S
H1084 C1110 0.950 . S
H1085 C1112 0.950 . S
H1086 C1115 0.950 . S
H1087 C1116 0.950 . S
H1088 C1118 0.950 . S
H1089 C1119 0.950 . S
C1090 H1072 0.951 . S
C1090 C1091 1.366 . S
C1090 C1092 1.388 . S
C1091 C1090 1.366 . S
C1091 C1095 1.385 . S
C1092 H1073 0.951 . S
C1092 C1090 1.388 . S
C1092 C1093 1.366 . S
C1093 C1092 1.366 . S
C1093 C1094 1.414 . S
C1093 C1096 1.499 . S
C1094 H1074 0.950 . S
C1094 C1093 1.414 . S
C1094 C1095 1.374 . S
C1095 H1075 0.950 . S
C1095 C1091 1.385 . S
C1095 C1094 1.374 . S
C1096 C1093 1.499 . S
C1096 C1097 1.373 . S
C1096 C1098 1.389 . S
C1097 H1076 0.950 . S
C1097 C1096 1.373 . S
C1097 C1113 1.377 . S
C1098 C1096 1.389 . S
C1098 C1099 1.524 . S
C1098 C1112 1.377 . S
C1099 C1098 1.524 . S
C1099 C1100 1.397 . S
C1099 C1104 1.363 . S
C1100 H1077 0.950 . S
C1100 C1099 1.397 . S
C1100 C1101 1.334 . S
C1101 H1078 0.950 . S
C1101 C1100 1.334 . S
C1101 C1102 1.287 . S
C1102 C1101 1.287 . S
C1102 C1103 1.524 . S
C1102 H1121 0.913 . S
C1103 H1079 0.950 . S
C1103 C1102 1.524 . S
C1103 C1104 1.415 . S
C1104 H1080 0.950 . S
C1104 C1099 1.363 . S
C1104 C1103 1.415 . S
C1105 H1081 0.951 . S
C1105 C1106 1.366 . S
C1105 C1107 1.405 . S
C1106 C1105 1.366 . S
C1106 C1110 1.385 . S
C1107 H1082 0.929 1_554 S
C1107 C1105 1.405 . S
C1107 C1108 1.371 . S
C1108 C1107 1.371 . S
C1108 C1109 1.414 . S
C1108 C1111 1.499 1_554 S
C1109 H1083 0.950 . S
C1109 C1108 1.414 . S
C1109 C1110 1.374 . S
C1110 H1084 0.950 . S
C1110 C1106 1.385 . S
C1110 C1109 1.374 . S
C1111 C1108 1.499 1_556 S
C1111 C1112 1.373 . S
C1111 C1113 1.389 . S
C1112 H1085 0.950 . S
C1112 C1098 1.377 . S
C1112 C1111 1.373 . S
C1113 C1097 1.377 . S
C1113 C1111 1.389 . S
C1113 C1114 1.524 . S
C1114 C1113 1.524 . S
C1114 C1115 1.397 1_556 S
C1114 C1119 1.363 . S
C1115 H1086 0.950 . S
C1115 C1114 1.397 1_554 S
C1115 C1116 1.334 . S
C1116 H1087 0.950 . S
C1116 C1115 1.334 . S
C1116 C1117 1.287 . S
C1117 C1116 1.287 . S
C1117 C1118 1.524 1_554 S
C1117 H1120 0.999 . S
C1118 H1088 0.950 . S
C1118 C1117 1.524 1_556 S
C1118 C1119 1.415 . S
C1119 H1089 0.950 . S
C1119 C1114 1.363 . S
C1119 C1118 1.415 . S
H1120 C1117 0.999 . S
H1121 C1102 0.913 . S
H1122 C1140 0.951 . S
H1123 C1142 0.951 . S
H1124 C1144 0.950 . S
H1125 C1145 0.950 . S
H1126 C1147 0.950 . S
H1127 C1150 0.950 . S
H1128 C1151 0.950 . S
H1129 C1153 0.950 . S
H1130 C1154 0.950 . S
H1131 C1155 0.951 . S
H1132 C1157 0.951 . S
H1133 C1159 0.950 . S
H1134 C1160 0.950 . S
H1135 C1162 0.950 . S
H1136 C1165 0.950 . S
H1137 C1166 0.950 . S
H1138 C1168 0.950 . S
H1139 C1169 0.950 . S
C1140 H1122 0.951 . S
C1140 C1141 1.366 . S
C1140 C1142 1.388 . S
C1141 C1140 1.366 . S
C1141 C1145 1.385 . S
C1142 H1123 0.951 . S
C1142 C1140 1.388 . S
C1142 C1143 1.366 . S
C1143 C1142 1.366 . S
C1143 C1144 1.414 . S
C1143 C1146 1.499 . S
C1144 H1124 0.950 . S
C1144 C1143 1.414 . S
C1144 C1145 1.374 . S
C1145 H1125 0.950 . S
C1145 C1141 1.385 . S
C1145 C1144 1.374 . S
C1146 C1143 1.499 . S
C1146 C1147 1.373 . S
C1146 C1148 1.389 . S
C1147 H1126 0.950 . S
C1147 C1146 1.373 . S
C1147 C1163 1.377 . S
C1148 C1146 1.389 . S
C1148 C1149 1.524 . S
C1148 C1162 1.377 . S
C1149 C1148 1.524 . S
C1149 C1150 1.397 . S
C1149 C1154 1.363 . S
C1150 H1127 0.950 . S
C1150 C1149 1.397 . S
C1150 C1151 1.334 . S
C1151 H1128 0.950 . S
C1151 C1150 1.334 . S
C1151 C1152 1.287 . S
C1152 C1151 1.287 . S
C1152 C1153 1.524 . S
C1152 H1171 0.913 . S
C1153 H1129 0.950 . S
C1153 C1152 1.524 . S
C1153 C1154 1.415 . S
C1154 H1130 0.950 . S
C1154 C1149 1.363 . S
C1154 C1153 1.415 . S
C1155 H1131 0.951 . S
C1155 C1156 1.366 . S
C1155 C1157 1.388 . S
C1156 C1155 1.366 . S
C1156 C1160 1.385 . S
C1157 H1132 0.951 . S
C1157 C1155 1.388 . S
C1157 C1158 1.366 . S
C1158 C1157 1.366 . S
C1158 C1159 1.414 . S
C1158 C1161 1.499 . S
C1159 H1133 0.950 . S
C1159 C1158 1.414 . S
C1159 C1160 1.374 . S
C1160 H1134 0.950 . S
C1160 C1156 1.385 . S
C1160 C1159 1.374 . S
C1161 C1158 1.499 . S
C1161 C1162 1.373 . S
C1161 C1163 1.389 . S
C1162 H1135 0.950 . S
C1162 C1148 1.377 . S
C1162 C1161 1.373 . S
C1163 C1147 1.377 . S
C1163 C1161 1.389 . S
C1163 C1164 1.524 . S
C1164 C1163 1.524 . S
C1164 C1165 1.397 . S
C1164 C1169 1.363 . S
C1165 H1136 0.950 . S
C1165 C1164 1.397 . S
C1165 C1166 1.334 . S
C1166 H1137 0.950 . S
C1166 C1165 1.334 . S
C1166 C1167 1.287 . S
C1167 C1166 1.287 . S
C1167 C1168 1.524 . S
C1167 H1170 0.999 . S
C1168 H1138 0.950 . S
C1168 C1167 1.524 . S
C1168 C1169 1.415 . S
C1169 H1139 0.950 . S
C1169 C1164 1.363 . S
C1169 C1168 1.415 . S
H1170 C1167 0.999 . S
H1171 C1152 0.913 . S
H1172 C1190 0.951 . S
H1173 C1192 0.951 . S
H1174 C1194 0.950 . S
H1175 C1195 0.950 . S
H1176 C1197 0.950 . S
H1177 C1200 0.950 . S
H1178 C1201 0.950 . S
H1179 C1203 0.950 . S
H1180 C1204 0.950 . S
H1181 C1205 0.951 . S
H1182 C1207 0.951 . S
H1183 C1209 0.950 . S
H1184 C1210 0.950 . S
H1185 C1212 0.950 . S
H1186 C1215 0.950 . S
H1187 C1216 0.950 . S
H1188 C1218 0.950 . S
H1189 C1219 0.950 . S
C1190 H1172 0.951 . S
C1190 C1191 1.366 . S
C1190 C1192 1.388 1_556 S
C1191 C1190 1.366 . S
C1191 C1195 1.385 . S
C1192 H1173 0.951 . S
C1192 C1190 1.388 1_554 S
C1192 C1193 1.366 1_554 S
C1193 C1192 1.366 1_556 S
C1193 C1194 1.414 . S
C1193 C1196 1.499 1_556 S
C1194 H1174 0.950 . S
C1194 C1193 1.414 . S
C1194 C1195 1.374 . S
C1195 H1175 0.950 . S
C1195 C1191 1.385 . S
C1195 C1194 1.374 . S
C1196 C1193 1.499 1_554 S
C1196 C1197 1.373 . S
C1196 C1198 1.389 . S
C1197 H1176 0.950 . S
C1197 C1196 1.373 . S
C1197 C1213 1.377 . S
C1198 C1196 1.389 . S
C1198 C1199 1.524 . S
C1198 C1212 1.377 . S
C1199 C1198 1.524 . S
C1199 C1200 1.397 1_554 S
C1199 C1204 1.363 . S
C1200 H1177 0.950 . S
C1200 C1199 1.397 1_556 S
C1200 C1201 1.334 . S
C1201 H1178 0.950 . S
C1201 C1200 1.334 . S
C1201 C1202 1.287 1_556 S
C1202 C1201 1.287 1_554 S
C1202 C1203 1.524 . S
C1202 H1221 0.913 . S
C1203 H1179 0.950 . S
C1203 C1202 1.524 . S
C1203 C1204 1.415 . S
C1204 H1180 0.950 . S
C1204 C1199 1.363 . S
C1204 C1203 1.415 . S
C1205 H1181 0.951 . S
C1205 C1206 1.366 . S
C1205 C1207 1.388 . S
C1206 C1205 1.366 . S
C1206 C1210 1.385 . S
C1207 H1182 0.951 . S
C1207 C1205 1.388 . S
C1207 C1208 1.366 . S
C1208 C1207 1.366 . S
C1208 C1209 1.414 . S
C1208 C1211 1.499 . S
C1209 H1183 0.950 . S
C1209 C1208 1.414 . S
C1209 C1210 1.374 . S
C1210 H1184 0.950 . S
C1210 C1206 1.385 . S
C1210 C1209 1.374 . S
C1211 C1208 1.499 . S
C1211 C1212 1.373 . S
C1211 C1213 1.389 . S
C1212 H1185 0.950 . S
C1212 C1198 1.377 . S
C1212 C1211 1.373 . S
C1213 C1197 1.377 . S
C1213 C1211 1.389 . S
C1213 C1214 1.524 . S
C1214 C1213 1.524 . S
C1214 C1215 1.397 . S
C1214 C1219 1.363 . S
C1215 H1186 0.950 . S
C1215 C1214 1.397 . S
C1215 C1216 1.334 . S
C1216 H1187 0.950 . S
C1216 C1215 1.334 . S
C1216 C1217 1.287 . S
C1217 C1216 1.287 . S
C1217 C1218 1.524 . S
C1217 H1220 0.999 . S
C1218 H1188 0.950 . S
C1218 C1217 1.524 . S
C1218 C1219 1.415 . S
C1219 H1189 0.950 . S
C1219 C1214 1.363 . S
C1219 C1218 1.415 . S
H1220 C1217 0.999 . S
H1221 C1202 0.913 . S
H1222 C1240 0.951 . S
H1223 C1242 0.951 . S
H1224 C1244 0.950 . S
H1225 C1245 0.950 . S
H1226 C1247 0.950 . S
H1227 C1250 0.950 . S
H1228 C1251 0.950 . S
H1229 C1253 0.950 . S
H1230 C1254 0.950 . S
H1231 C1255 0.951 . S
H1232 C1257 0.951 . S
H1233 C1259 0.950 . S
H1234 C1260 0.950 . S
H1235 C1262 0.950 . S
H1236 C1265 0.950 . S
H1237 C1266 0.950 . S
H1238 C1268 0.950 . S
H1239 C1269 0.950 . S
C1240 H1222 0.951 . S
C1240 C1241 1.366 . S
C1240 C1242 1.388 . S
C1241 C1240 1.366 . S
C1241 C1245 1.385 . S
C1242 H1223 0.951 . S
C1242 C1240 1.388 . S
C1242 C1243 1.366 . S
C1243 C1242 1.366 . S
C1243 C1244 1.414 . S
C1243 C1246 1.499 . S
C1244 H1224 0.950 . S
C1244 C1243 1.414 . S
C1244 C1245 1.374 . S
C1245 H1225 0.950 . S
C1245 C1241 1.385 . S
C1245 C1244 1.374 . S
C1246 C1243 1.499 . S
C1246 C1247 1.373 . S
C1246 C1248 1.389 . S
C1247 H1226 0.950 . S
C1247 C1246 1.373 . S
C1247 C1263 1.377 . S
C1248 C1246 1.389 . S
C1248 C1249 1.524 . S
C1248 C1262 1.377 . S
C1249 C1248 1.524 . S
C1249 C1250 1.397 . S
C1249 C1254 1.363 . S
C1250 H1227 0.950 . S
C1250 C1249 1.397 . S
C1250 C1251 1.334 . S
C1251 H1228 0.950 . S
C1251 C1250 1.334 . S
C1251 C1252 1.287 . S
C1252 C1251 1.287 . S
C1252 C1253 1.524 . S
C1252 H1271 0.913 . S
C1253 H1229 0.950 . S
C1253 C1252 1.524 . S
C1253 C1254 1.415 . S
C1254 H1230 0.950 . S
C1254 C1249 1.363 . S
C1254 C1253 1.415 . S
C1255 H1231 0.951 . S
C1255 C1256 1.366 . S
C1255 C1257 1.388 . S
C1256 C1255 1.366 . S
C1256 C1260 1.385 . S
C1257 H1232 0.951 . S
C1257 C1255 1.388 . S
C1257 C1258 1.366 . S
C1258 C1257 1.366 . S
C1258 C1259 1.414 . S
C1258 C1261 1.499 . S
C1259 H1233 0.950 . S
C1259 C1258 1.414 . S
C1259 C1260 1.374 . S
C1260 H1234 0.950 . S
C1260 C1256 1.385 . S
C1260 C1259 1.374 . S
C1261 C1258 1.499 . S
C1261 C1262 1.373 . S
C1261 C1263 1.389 . S
C1262 H1235 0.950 . S
C1262 C1248 1.377 . S
C1262 C1261 1.373 . S
C1263 C1247 1.377 . S
C1263 C1261 1.389 . S
C1263 C1264 1.524 . S
C1264 C1263 1.524 . S
C1264 C1265 1.397 . S
C1264 C1269 1.363 . S
C1265 H1236 0.950 . S
C1265 C1264 1.397 . S
C1265 C1266 1.334 . S
C1266 H1237 0.950 . S
C1266 C1265 1.334 . S
C1266 C1267 1.287 . S
C1267 C1266 1.287 . S
C1267 C1268 1.524 . S
C1267 H1270 0.999 . S
C1268 H1238 0.950 . S
C1268 C1267 1.524 . S
C1268 C1269 1.415 . S
C1269 H1239 0.950 . S
C1269 C1264 1.363 . S
C1269 C1268 1.415 . S
H1270 C1267 0.999 . S
H1271 C1252 0.913 . S
C291 C33 1.524 . S
C306 C135 1.524 . S
C341 C67 1.524 . S
C356 C101 1.524 . S
C391 C271 1.524 . S
C406 C169 1.524 . S
C441 C203 1.524 . S
C456 C237 1.524 . S
C491 C70 2.054 . S
C506 C2 2.054 . S
C541 C104 2.054 . S
C556 C36 2.054 . S
C591 C39 1.342 . S
C606 C107 1.342 . S
C641 C5 1.342 . S
C656 C73 1.342 . S
C691 C206 2.054 . S
C706 C138 2.054 . S
C741 C172 2.054 . S
C756 C240 2.054 . S
C791 C175 1.342 . S
C806 C243 1.342 . S
C841 C209 1.342 . S
C856 C141 1.342 . S
C891 C9 1.285 . S
C906 C190 1.321 . S
C941 C43 1.286 . S
C956 C156 1.321 . S
C991 C258 1.321 . S
C1006 C77 1.285 . S
C1041 C111 1.285 . S
C1056 C224 1.321 . S
C1091 C54 1.321 . S
C1106 C145 1.286 . S
C1141 C179 1.286 . S
C1156 C20 1.321 . S
C1191 C213 1.285 . S
C1206 C122 1.321 . S
C1241 C247 1.286 . S
C1256 C88 1.321 . S
