# Generated by pormake.
# Topology ukp, (4)-cn, num edge types: 1
# Building blocks:
#     Node 0, Type 0, BuildingBlock: KOZSID_clean_sbu_0, # of connection points: 4
#     Node 1, Type 0, BuildingBlock: KOZSID_clean_sbu_0, # of connection points: 4
#     Node 2, Type 0, BuildingBlock: KOZSID_clean_sbu_0, # of connection points: 4
#     Node 3, Type 0, BuildingBlock: KOZSID_clean_sbu_0, # of connection points: 4
#     Node 4, Type 0, BuildingBlock: KOZSID_clean_sbu_0, # of connection points: 4
#     Node 5, Type 0, BuildingBlock: KOZSID_clean_sbu_0, # of connection points: 4
#     Node 6, Type 0, BuildingBlock: KOZSID_clean_sbu_0, # of connection points: 4
#     Node 7, Type 0, BuildingBlock: KOZSID_clean_sbu_0, # of connection points: 4
#     Node 8, Type 0, BuildingBlock: KOZSID_clean_sbu_0, # of connection points: 4
#     Node 9, Type 0, BuildingBlock: KOZSID_clean_sbu_0, # of connection points: 4
#     Node 10, Type 0, BuildingBlock: KOZSID_clean_sbu_0, # of connection points: 4
#     Node 11, Type 0, BuildingBlock: KOZSID_clean_sbu_0, # of connection points: 4
#     Node 12, Type 0, BuildingBlock: KOZSID_clean_sbu_0, # of connection points: 4
#     Node 13, Type 0, BuildingBlock: KOZSID_clean_sbu_0, # of connection points: 4
#     Node 14, Type 0, BuildingBlock: KOZSID_clean_sbu_0, # of connection points: 4
#     Node 15, Type 0, BuildingBlock: KOZSID_clean_sbu_0, # of connection points: 4
#     Node 16, Type 0, BuildingBlock: KOZSID_clean_sbu_0, # of connection points: 4
#     Node 17, Type 0, BuildingBlock: KOZSID_clean_sbu_0, # of connection points: 4
#     Node 18, Type 0, BuildingBlock: KOZSID_clean_sbu_0, # of connection points: 4
#     Node 19, Type 0, BuildingBlock: KOZSID_clean_sbu_0, # of connection points: 4
#     Node 20, Type 0, BuildingBlock: KOZSID_clean_sbu_0, # of connection points: 4
#     Node 21, Type 0, BuildingBlock: KOZSID_clean_sbu_0, # of connection points: 4
#     Node 22, Type 0, BuildingBlock: KOZSID_clean_sbu_0, # of connection points: 4
#     Node 23, Type 0, BuildingBlock: KOZSID_clean_sbu_0, # of connection points: 4
#     Node 24, Type 0, BuildingBlock: KOZSID_clean_sbu_0, # of connection points: 4
#     Node 25, Type 0, BuildingBlock: KOZSID_clean_sbu_0, # of connection points: 4
#     Node 26, Type 0, BuildingBlock: KOZSID_clean_sbu_0, # of connection points: 4
#     Node 27, Type 0, BuildingBlock: KOZSID_clean_sbu_0, # of connection points: 4
#     Node 28, Type 0, BuildingBlock: KOZSID_clean_sbu_0, # of connection points: 4
#     Node 29, Type 0, BuildingBlock: KOZSID_clean_sbu_0, # of connection points: 4
#     Node 30, Type 0, BuildingBlock: KOZSID_clean_sbu_0, # of connection points: 4
#     Node 31, Type 0, BuildingBlock: KOZSID_clean_sbu_0, # of connection points: 4
#     Node 32, Type 0, BuildingBlock: KOZSID_clean_sbu_0, # of connection points: 4
#     Node 33, Type 0, BuildingBlock: KOZSID_clean_sbu_0, # of connection points: 4
#     Node 34, Type 0, BuildingBlock: KOZSID_clean_sbu_0, # of connection points: 4
#     Node 35, Type 0, BuildingBlock: KOZSID_clean_sbu_0, # of connection points: 4
#     Node 36, Type 0, BuildingBlock: KOZSID_clean_sbu_0, # of connection points: 4
#     Node 37, Type 0, BuildingBlock: KOZSID_clean_sbu_0, # of connection points: 4
#     Node 38, Type 0, BuildingBlock: KOZSID_clean_sbu_0, # of connection points: 4
#     Node 39, Type 0, BuildingBlock: KOZSID_clean_sbu_0, # of connection points: 4
#     Node 40, Type 0, BuildingBlock: KOZSID_clean_sbu_0, # of connection points: 4
#     Node 41, Type 0, BuildingBlock: KOZSID_clean_sbu_0, # of connection points: 4
#     Node 42, Type 0, BuildingBlock: KOZSID_clean_sbu_0, # of connection points: 4
#     Node 43, Type 0, BuildingBlock: KOZSID_clean_sbu_0, # of connection points: 4
#     Node 44, Type 0, BuildingBlock: KOZSID_clean_sbu_0, # of connection points: 4
#     Node 45, Type 0, BuildingBlock: KOZSID_clean_sbu_0, # of connection points: 4
#     Node 46, Type 0, BuildingBlock: KOZSID_clean_sbu_0, # of connection points: 4
#     Node 47, Type 0, BuildingBlock: KOZSID_clean_sbu_0, # of connection points: 4
#     Edge 48, Type (0, 0), BuildingBlock: XIVTED_clean_linker_0, # of connection points: 2
#     Edge 49, Type (0, 0), BuildingBlock: XIVTED_clean_linker_0, # of connection points: 2
#     Edge 50, Type (0, 0), BuildingBlock: XIVTED_clean_linker_0, # of connection points: 2
#     Edge 51, Type (0, 0), BuildingBlock: XIVTED_clean_linker_0, # of connection points: 2
#     Edge 52, Type (0, 0), BuildingBlock: XIVTED_clean_linker_0, # of connection points: 2
#     Edge 53, Type (0, 0), BuildingBlock: XIVTED_clean_linker_0, # of connection points: 2
#     Edge 54, Type (0, 0), BuildingBlock: XIVTED_clean_linker_0, # of connection points: 2
#     Edge 55, Type (0, 0), BuildingBlock: XIVTED_clean_linker_0, # of connection points: 2
#     Edge 56, Type (0, 0), BuildingBlock: XIVTED_clean_linker_0, # of connection points: 2
#     Edge 57, Type (0, 0), BuildingBlock: XIVTED_clean_linker_0, # of connection points: 2
#     Edge 58, Type (0, 0), BuildingBlock: XIVTED_clean_linker_0, # of connection points: 2
#     Edge 59, Type (0, 0), BuildingBlock: XIVTED_clean_linker_0, # of connection points: 2
#     Edge 60, Type (0, 0), BuildingBlock: XIVTED_clean_linker_0, # of connection points: 2
#     Edge 61, Type (0, 0), BuildingBlock: XIVTED_clean_linker_0, # of connection points: 2
#     Edge 62, Type (0, 0), BuildingBlock: XIVTED_clean_linker_0, # of connection points: 2
#     Edge 63, Type (0, 0), BuildingBlock: XIVTED_clean_linker_0, # of connection points: 2
#     Edge 64, Type (0, 0), BuildingBlock: XIVTED_clean_linker_0, # of connection points: 2
#     Edge 65, Type (0, 0), BuildingBlock: XIVTED_clean_linker_0, # of connection points: 2
#     Edge 66, Type (0, 0), BuildingBlock: XIVTED_clean_linker_0, # of connection points: 2
#     Edge 67, Type (0, 0), BuildingBlock: XIVTED_clean_linker_0, # of connection points: 2
#     Edge 68, Type (0, 0), BuildingBlock: XIVTED_clean_linker_0, # of connection points: 2
#     Edge 69, Type (0, 0), BuildingBlock: XIVTED_clean_linker_0, # of connection points: 2
#     Edge 70, Type (0, 0), BuildingBlock: XIVTED_clean_linker_0, # of connection points: 2
#     Edge 71, Type (0, 0), BuildingBlock: XIVTED_clean_linker_0, # of connection points: 2
#     Edge 72, Type (0, 0), BuildingBlock: XIVTED_clean_linker_0, # of connection points: 2
#     Edge 73, Type (0, 0), BuildingBlock: XIVTED_clean_linker_0, # of connection points: 2
#     Edge 74, Type (0, 0), BuildingBlock: XIVTED_clean_linker_0, # of connection points: 2
#     Edge 75, Type (0, 0), BuildingBlock: XIVTED_clean_linker_0, # of connection points: 2
#     Edge 76, Type (0, 0), BuildingBlock: XIVTED_clean_linker_0, # of connection points: 2
#     Edge 77, Type (0, 0), BuildingBlock: XIVTED_clean_linker_0, # of connection points: 2
#     Edge 78, Type (0, 0), BuildingBlock: XIVTED_clean_linker_0, # of connection points: 2
#     Edge 79, Type (0, 0), BuildingBlock: XIVTED_clean_linker_0, # of connection points: 2
#     Edge 80, Type (0, 0), BuildingBlock: XIVTED_clean_linker_0, # of connection points: 2
#     Edge 81, Type (0, 0), BuildingBlock: XIVTED_clean_linker_0, # of connection points: 2
#     Edge 82, Type (0, 0), BuildingBlock: XIVTED_clean_linker_0, # of connection points: 2
#     Edge 83, Type (0, 0), BuildingBlock: XIVTED_clean_linker_0, # of connection points: 2
#     Edge 84, Type (0, 0), BuildingBlock: XIVTED_clean_linker_0, # of connection points: 2
#     Edge 85, Type (0, 0), BuildingBlock: XIVTED_clean_linker_0, # of connection points: 2
#     Edge 86, Type (0, 0), BuildingBlock: XIVTED_clean_linker_0, # of connection points: 2
#     Edge 87, Type (0, 0), BuildingBlock: XIVTED_clean_linker_0, # of connection points: 2
#     Edge 88, Type (0, 0), BuildingBlock: XIVTED_clean_linker_0, # of connection points: 2
#     Edge 89, Type (0, 0), BuildingBlock: XIVTED_clean_linker_0, # of connection points: 2
#     Edge 90, Type (0, 0), BuildingBlock: XIVTED_clean_linker_0, # of connection points: 2
#     Edge 91, Type (0, 0), BuildingBlock: XIVTED_clean_linker_0, # of connection points: 2
#     Edge 92, Type (0, 0), BuildingBlock: XIVTED_clean_linker_0, # of connection points: 2
#     Edge 93, Type (0, 0), BuildingBlock: XIVTED_clean_linker_0, # of connection points: 2
#     Edge 94, Type (0, 0), BuildingBlock: XIVTED_clean_linker_0, # of connection points: 2
#     Edge 95, Type (0, 0), BuildingBlock: XIVTED_clean_linker_0, # of connection points: 2
#     Edge 96, Type (0, 0), BuildingBlock: XIVTED_clean_linker_0, # of connection points: 2
#     Edge 97, Type (0, 0), BuildingBlock: XIVTED_clean_linker_0, # of connection points: 2
#     Edge 98, Type (0, 0), BuildingBlock: XIVTED_clean_linker_0, # of connection points: 2
#     Edge 99, Type (0, 0), BuildingBlock: XIVTED_clean_linker_0, # of connection points: 2
#     Edge 100, Type (0, 0), BuildingBlock: XIVTED_clean_linker_0, # of connection points: 2
#     Edge 101, Type (0, 0), BuildingBlock: XIVTED_clean_linker_0, # of connection points: 2
#     Edge 102, Type (0, 0), BuildingBlock: XIVTED_clean_linker_0, # of connection points: 2
#     Edge 103, Type (0, 0), BuildingBlock: XIVTED_clean_linker_0, # of connection points: 2
#     Edge 104, Type (0, 0), BuildingBlock: XIVTED_clean_linker_0, # of connection points: 2
#     Edge 105, Type (0, 0), BuildingBlock: XIVTED_clean_linker_0, # of connection points: 2
#     Edge 106, Type (0, 0), BuildingBlock: XIVTED_clean_linker_0, # of connection points: 2
#     Edge 107, Type (0, 0), BuildingBlock: XIVTED_clean_linker_0, # of connection points: 2
#     Edge 108, Type (0, 0), BuildingBlock: XIVTED_clean_linker_0, # of connection points: 2
#     Edge 109, Type (0, 0), BuildingBlock: XIVTED_clean_linker_0, # of connection points: 2
#     Edge 110, Type (0, 0), BuildingBlock: XIVTED_clean_linker_0, # of connection points: 2
#     Edge 111, Type (0, 0), BuildingBlock: XIVTED_clean_linker_0, # of connection points: 2
#     Edge 112, Type (0, 0), BuildingBlock: XIVTED_clean_linker_0, # of connection points: 2
#     Edge 113, Type (0, 0), BuildingBlock: XIVTED_clean_linker_0, # of connection points: 2
#     Edge 114, Type (0, 0), BuildingBlock: XIVTED_clean_linker_0, # of connection points: 2
#     Edge 115, Type (0, 0), BuildingBlock: XIVTED_clean_linker_0, # of connection points: 2
#     Edge 116, Type (0, 0), BuildingBlock: XIVTED_clean_linker_0, # of connection points: 2
#     Edge 117, Type (0, 0), BuildingBlock: XIVTED_clean_linker_0, # of connection points: 2
#     Edge 118, Type (0, 0), BuildingBlock: XIVTED_clean_linker_0, # of connection points: 2
#     Edge 119, Type (0, 0), BuildingBlock: XIVTED_clean_linker_0, # of connection points: 2
#     Edge 120, Type (0, 0), BuildingBlock: XIVTED_clean_linker_0, # of connection points: 2
#     Edge 121, Type (0, 0), BuildingBlock: XIVTED_clean_linker_0, # of connection points: 2
#     Edge 122, Type (0, 0), BuildingBlock: XIVTED_clean_linker_0, # of connection points: 2
#     Edge 123, Type (0, 0), BuildingBlock: XIVTED_clean_linker_0, # of connection points: 2
#     Edge 124, Type (0, 0), BuildingBlock: XIVTED_clean_linker_0, # of connection points: 2
#     Edge 125, Type (0, 0), BuildingBlock: XIVTED_clean_linker_0, # of connection points: 2
#     Edge 126, Type (0, 0), BuildingBlock: XIVTED_clean_linker_0, # of connection points: 2
#     Edge 127, Type (0, 0), BuildingBlock: XIVTED_clean_linker_0, # of connection points: 2
#     Edge 128, Type (0, 0), BuildingBlock: XIVTED_clean_linker_0, # of connection points: 2
#     Edge 129, Type (0, 0), BuildingBlock: XIVTED_clean_linker_0, # of connection points: 2
#     Edge 130, Type (0, 0), BuildingBlock: XIVTED_clean_linker_0, # of connection points: 2
#     Edge 131, Type (0, 0), BuildingBlock: XIVTED_clean_linker_0, # of connection points: 2
#     Edge 132, Type (0, 0), BuildingBlock: XIVTED_clean_linker_0, # of connection points: 2
#     Edge 133, Type (0, 0), BuildingBlock: XIVTED_clean_linker_0, # of connection points: 2
#     Edge 134, Type (0, 0), BuildingBlock: XIVTED_clean_linker_0, # of connection points: 2
#     Edge 135, Type (0, 0), BuildingBlock: XIVTED_clean_linker_0, # of connection points: 2
#     Edge 136, Type (0, 0), BuildingBlock: XIVTED_clean_linker_0, # of connection points: 2
#     Edge 137, Type (0, 0), BuildingBlock: XIVTED_clean_linker_0, # of connection points: 2
#     Edge 138, Type (0, 0), BuildingBlock: XIVTED_clean_linker_0, # of connection points: 2
#     Edge 139, Type (0, 0), BuildingBlock: XIVTED_clean_linker_0, # of connection points: 2
#     Edge 140, Type (0, 0), BuildingBlock: XIVTED_clean_linker_0, # of connection points: 2
#     Edge 141, Type (0, 0), BuildingBlock: XIVTED_clean_linker_0, # of connection points: 2
#     Edge 142, Type (0, 0), BuildingBlock: XIVTED_clean_linker_0, # of connection points: 2
#     Edge 143, Type (0, 0), BuildingBlock: XIVTED_clean_linker_0, # of connection points: 2
# Relax obj value: 0.166
# Max RMSD: 0.263
# Mean RMSD: 0.230
data_MOF--net-ukp--node1-KOZSID_clean_sbu_0--edge1-XIVTED_clean_linker_0
_symmetry_space_group_name_H-M    P1
_symmetry_Int_Tables_number       1
_symmetry_cell_setting            triclinic
loop_
_symmetry_equiv_pos_as_xyz
'x, y, z'
_cell_length_a     73.624705
_cell_length_b     79.627383
_cell_length_c     79.630017
_cell_angle_alpha  89.998711
_cell_angle_beta   90.000208
_cell_angle_gamma 89.99848
loop_
_atom_site_label
_atom_site_type_symbol
_atom_site_fract_x
_atom_site_fract_y
_atom_site_fract_z
_atom_type_partial_charge
C0 C 0.21862 0.28716 0.38491 0.0
C1 C 0.23606 0.28557 0.39136 0.0
C2 C 0.23652 0.29482 0.40592 0.0
C3 C 0.21939 0.30146 0.40758 0.0
N4 N 0.20827 0.29692 0.39497 0.0
Co5 Co 0.18251 0.30345 0.39257 0.0
N6 N 0.1859 0.32321 0.40725 0.0
C7 C 0.19937 0.32529 0.41849 0.0
C8 C 0.19804 0.34019 0.4271 0.0
C9 C 0.18272 0.34786 0.42093 0.0
C10 C 0.17556 0.33718 0.40883 0.0
N11 N 0.15667 0.31001 0.39046 0.0
C12 C 0.14863 0.32505 0.39354 0.0
C13 C 0.13013 0.32415 0.39036 0.0
C14 C 0.12662 0.30793 0.38525 0.0
C15 C 0.14311 0.29981 0.38557 0.0
N16 N 0.17948 0.28368 0.37778 0.0
C17 C 0.16362 0.27627 0.37394 0.0
C18 C 0.16581 0.26333 0.36267 0.0
C19 C 0.18418 0.26265 0.35932 0.0
C20 C 0.19225 0.2752 0.36882 0.0
N21 N 0.17607 0.28949 0.41225 0.0
C22 C 0.16182 0.26766 0.43704 0.0
C23 C 0.17504 0.26218 0.42552 0.0
C24 C 0.18203 0.27324 0.41338 0.0
C25 C 0.15671 0.28465 0.43634 0.0
C26 C 0.16397 0.29529 0.42397 0.0
N27 N 0.18833 0.31696 0.37266 0.0
C28 C 0.18087 0.32409 0.34408 0.0
C29 C 0.19678 0.33352 0.34245 0.0
C30 C 0.20831 0.33476 0.35649 0.0
C31 C 0.20373 0.32651 0.37156 0.0
C32 C 0.17698 0.31593 0.3591 0.0
H33 H 0.21277 0.32755 0.38219 0.0
H34 H 0.16492 0.30834 0.35948 0.0
H35 H 0.19179 0.26844 0.40448 0.0
H36 H 0.15916 0.30808 0.42346 0.0
C37 C 0.21438 0.31444 0.41854 0.0
C38 C 0.21199 0.27854 0.36982 0.0
C39 C 0.15815 0.33993 0.40023 0.0
C40 C 0.14708 0.28404 0.37838 0.0
H41 H 0.24725 0.27851 0.38609 0.0
H42 H 0.24821 0.29708 0.41385 0.0
H43 H 0.20739 0.34515 0.43633 0.0
H44 H 0.17734 0.35982 0.42502 0.0
H45 H 0.12025 0.33414 0.39154 0.0
H46 H 0.11372 0.30293 0.38106 0.0
H47 H 0.15526 0.25588 0.35684 0.0
H48 H 0.19075 0.25404 0.35076 0.0
H49 H 0.17985 0.24933 0.42571 0.0
H50 H 0.14656 0.28961 0.44483 0.0
H51 H 0.17171 0.32241 0.33356 0.0
H52 H 0.22076 0.34196 0.35583 0.0
C53 C 0.0283 0.89892 0.63514 0.0
C54 C 0.04067 0.88664 0.63036 0.0
C55 C 0.04012 0.88577 0.61325 0.0
C56 C 0.0276 0.89758 0.60849 0.0
N57 N 0.0201 0.9059 0.62148 0.0
Co58 Co 1.00228 0.92475 0.61953 0.0
N59 N 0.99688 0.91933 0.59546 0.0
C60 C 0.00664 0.90891 0.58564 0.0
C61 C 1.00003 0.90752 0.56963 0.0
C62 C 0.98531 0.91794 0.56912 0.0
C63 C 0.98372 0.92517 0.58495 0.0
N64 N 0.98483 0.94381 0.61749 0.0
C65 C 0.97351 0.94829 0.60473 0.0
C66 C 0.96443 0.9631 0.60848 0.0
C67 C 0.97062 0.96831 0.62384 0.0
C68 C 0.983 0.95639 0.62869 0.0
N69 N 0.0076 0.92964 0.64376 0.0
C70 C 1.00308 0.94387 0.6519 0.0
C71 C 0.00807 0.9438 0.6685 0.0
C72 C 0.01649 0.92866 0.671 0.0
C73 C 0.01634 0.92032 0.6557 0.0
N74 N 0.0217 0.94058 0.61257 0.0
C75 C 0.03722 0.97257 0.60895 0.0
C76 C 0.04245 0.96207 0.62226 0.0
C77 C 0.0348 0.94588 0.62363 0.0
C78 C 0.02659 0.96564 0.59622 0.0
C79 C 0.01911 0.94975 0.5982 0.0
N80 N 0.98205 0.91004 0.62631 0.0
C81 C 0.95262 0.90961 0.63946 0.0
C82 C 0.94674 0.89695 0.6286 0.0
C83 C 0.95965 0.88945 0.618 0.0
C84 C 0.97737 0.8961 0.61718 0.0
C85 C 0.9702 0.9159 0.63816 0.0
H86 H 0.98676 0.89076 0.60828 0.0
H87 H 0.97347 0.92653 0.64584 0.0
H88 H 0.03835 0.93837 0.63441 0.0
H89 H 0.00978 0.946 0.58864 0.0
C90 C 0.021 0.89967 0.59225 0.0
C91 C 0.02575 0.90419 0.6527 0.0
C92 C 0.97193 0.93969 0.5884 0.0
C93 C 0.99207 0.9559 0.64412 0.0
H94 H 0.04939 0.87918 0.63836 0.0
H95 H 0.04765 0.87726 0.60525 0.0
H96 H 1.0053 0.89986 0.55951 0.0
H97 H 0.97725 0.92047 0.55805 0.0
H98 H 0.95461 0.96964 0.60077 0.0
H99 H 0.96646 0.9794 0.6307 0.0
H100 H 1.00543 0.9534 0.67781 0.0
H101 H 0.02215 0.92434 0.68277 0.0
H102 H 0.05127 0.96668 0.63212 0.0
H103 H 0.02292 0.97296 0.58525 0.0
H104 H 0.94332 0.9154 0.64828 0.0
H105 H 0.95579 0.87935 0.60962 0.0
C106 C 0.29003 0.72586 0.88663 0.0
C107 C 0.27215 0.72548 0.89224 0.0
C108 C 0.27182 0.71534 0.90615 0.0
C109 C 0.28936 0.70992 0.90819 0.0
N110 N 0.30067 0.716 0.89639 0.0
Co111 Co 0.32682 0.71059 0.89421 0.0
N112 N 0.32406 0.68987 0.90768 0.0
C113 C 0.31038 0.68654 0.91838 0.0
C114 C 0.31225 0.67131 0.92627 0.0
C115 C 0.32815 0.66471 0.92022 0.0
C116 C 0.3351 0.67632 0.90889 0.0
N117 N 0.35302 0.70518 0.89235 0.0
C118 C 0.36179 0.69038 0.89492 0.0
C119 C 0.3803 0.69227 0.89231 0.0
C120 C 0.38309 0.70887 0.88814 0.0
C121 C 0.36618 0.71622 0.8884 0.0
N122 N 0.32926 0.73126 0.88061 0.0
C123 C 0.34484 0.73956 0.87766 0.0
C124 C 0.34227 0.75323 0.86735 0.0
C125 C 0.32396 0.75344 0.8637 0.0
C126 C 0.31633 0.73983 0.87195 0.0
N127 N 0.3322 0.72366 0.91475 0.0
C128 C 0.34622 0.74509 0.93997 0.0
C129 C 0.33266 0.75059 0.92881 0.0
C130 C 0.32576 0.73971 0.91647 0.0
C131 C 0.35161 0.72819 0.93885 0.0
C132 C 0.34445 0.71775 0.92627 0.0
N133 N 0.32214 0.69809 0.87339 0.0
C134 C 0.33021 0.69423 0.84438 0.0
C135 C 0.31443 0.68497 0.84144 0.0
C136 C 0.30301 0.68147 0.85516 0.0
C137 C 0.30713 0.68818 0.87112 0.0
C138 C 0.33376 0.70062 0.86025 0.0
H139 H 0.29794 0.68588 0.88144 0.0
H140 H 0.34566 0.7083 0.86158 0.0
H141 H 0.31581 0.74456 0.90778 0.0
H142 H 0.34959 0.7051 0.92535 0.0
C143 C 0.29478 0.69658 0.91848 0.0
C144 C 0.2967 0.73604 0.87246 0.0
C145 C 0.35293 0.67478 0.90073 0.0
C146 C 0.36162 0.73223 0.88206 0.0
H147 H 0.26043 0.7316 0.88683 0.0
H148 H 0.25998 0.71158 0.91327 0.0
H149 H 0.30288 0.66544 0.93495 0.0
H150 H 0.33406 0.65282 0.92389 0.0
H151 H 0.39067 0.68271 0.8933 0.0
H152 H 0.39583 0.71467 0.88463 0.0
H153 H 0.35255 0.7616 0.86244 0.0
H154 H 0.31701 0.76254 0.85591 0.0
H155 H 0.32761 0.76334 0.92937 0.0
H156 H 0.36199 0.72322 0.9471 0.0
H157 H 0.33962 0.69697 0.83427 0.0
H158 H 0.29068 0.67426 0.85343 0.0
C159 C 0.4829 0.11649 0.13359 0.0
C160 C 0.47284 0.13046 0.12882 0.0
C161 C 0.47439 0.13182 0.1118 0.0
C162 C 0.48547 0.11883 0.10711 0.0
N163 N 0.49119 0.1093 0.12007 0.0
Co164 Co 0.5081 0.08967 0.11839 0.0
N165 N 0.51484 0.09524 0.09461 0.0
C166 C 0.50646 0.1066 0.08476 0.0
C167 C 0.51387 0.10796 0.06905 0.0
C168 C 0.52766 0.09651 0.06874 0.0
C169 C 0.52792 0.08876 0.08439 0.0
N170 N 0.52458 0.06983 0.11661 0.0
C171 C 0.53579 0.06477 0.10399 0.0
C172 C 0.54373 0.0494 0.1077 0.0
C173 C 0.53692 0.04443 0.1229 0.0
C174 C 0.52531 0.05703 0.12768 0.0
N175 N 0.50166 0.08468 0.14239 0.0
C176 C 0.50513 0.07015 0.15044 0.0
C177 C 0.49888 0.06992 0.16668 0.0
C178 C 0.49077 0.08522 0.16905 0.0
C179 C 0.49255 0.094 0.15409 0.0
N180 N 0.48817 0.07482 0.1105 0.0
C181 C 0.47226 0.04312 0.10591 0.0
C182 C 0.46706 0.05333 0.11946 0.0
C183 C 0.47485 0.0694 0.12127 0.0
C184 C 0.48291 0.05035 0.09335 0.0
C185 C 0.49055 0.06613 0.09579 0.0
N186 N 0.52869 0.10343 0.12615 0.0
C187 C 0.5568 0.10404 0.14165 0.0
C188 C 0.56286 0.1179 0.13244 0.0
C189 C 0.55091 0.1251 0.12075 0.0
C190 C 0.53374 0.11785 0.11802 0.0
C191 C 0.53985 0.09702 0.13829 0.0
H192 H 0.52497 0.12349 0.10878 0.0
H193 H 0.53637 0.08577 0.14496 0.0
H194 H 0.47122 0.07667 0.13218 0.0
H195 H 0.49976 0.07017 0.08625 0.0
C196 C 0.49274 0.11675 0.09113 0.0
C197 C 0.48363 0.1103 0.151 0.0
C198 C 0.53828 0.07336 0.08777 0.0
C199 C 0.51574 0.05774 0.14284 0.0
H200 H 0.46524 0.13894 0.13677 0.0
H201 H 0.46872 0.14154 0.10388 0.0
H202 H 0.50974 0.11628 0.05899 0.0
H203 H 0.536 0.09372 0.05792 0.0
H204 H 0.55317 0.04234 0.10003 0.0
H205 H 0.54007 0.033 0.12965 0.0
H206 H 0.50023 0.0599 0.17578 0.0
H207 H 0.48394 0.08929 0.18037 0.0
H208 H 0.45816 0.04856 0.12918 0.0
H209 H 0.48642 0.04337 0.08212 0.0
H210 H 0.56552 0.09798 0.15077 0.0
H211 H 0.55491 0.13603 0.11355 0.0
C212 C 0.21951 0.72655 0.1294 0.0
C213 C 0.23724 0.7276 0.12356 0.0
C214 C 0.23814 0.7178 0.10939 0.0
C215 C 0.22095 0.7114 0.10734 0.0
N216 N 0.20939 0.7166 0.11933 0.0
Co217 Co 0.18342 0.7106 0.12103 0.0
N218 N 0.18702 0.6902 0.10728 0.0
C219 C 0.20095 0.68746 0.09667 0.0
C220 C 0.19965 0.67232 0.0885 0.0
C221 C 0.18387 0.66518 0.09427 0.0
C222 C 0.17641 0.6764 0.10572 0.0
N223 N 0.15736 0.70457 0.12238 0.0
C224 C 0.14906 0.68962 0.11944 0.0
C225 C 0.13046 0.69103 0.12184 0.0
C226 C 0.12714 0.70748 0.12625 0.0
C227 C 0.14384 0.71524 0.12633 0.0
N228 N 0.1802 0.73099 0.13494 0.0
C229 C 0.16436 0.73882 0.13789 0.0
C230 C 0.16638 0.75212 0.14878 0.0
C231 C 0.1846 0.75257 0.1528 0.0
C232 C 0.19277 0.73953 0.14408 0.0
N233 N 0.17808 0.72389 0.10061 0.0
C234 C 0.16437 0.74533 0.07523 0.0
C235 C 0.17748 0.75094 0.08679 0.0
C236 C 0.18421 0.74006 0.09922 0.0
C237 C 0.15925 0.72834 0.0761 0.0
C238 C 0.16625 0.71789 0.08876 0.0
N239 N 0.18808 0.69786 0.14174 0.0
C240 C 0.17952 0.69325 0.17055 0.0
C241 C 0.19566 0.68459 0.1737 0.0
C242 C 0.20753 0.68174 0.16015 0.0
C243 C 0.20345 0.6885 0.14419 0.0
C244 C 0.17607 0.69977 0.1547 0.0
H245 H 0.21298 0.68669 0.13403 0.0
H246 H 0.16389 0.70705 0.15325 0.0
H247 H 0.19381 0.745 0.1082 0.0
H248 H 0.16135 0.70515 0.08944 0.0
C249 C 0.21616 0.69806 0.09674 0.0
C250 C 0.21244 0.73575 0.14396 0.0
C251 C 0.15847 0.67432 0.11356 0.0
C252 C 0.14786 0.7312 0.1331 0.0
H253 H 0.24835 0.73465 0.129 0.0
H254 H 0.2501 0.71503 0.102 0.0
H255 H 0.20927 0.66688 0.07978 0.0
H256 H 0.17836 0.65323 0.0903 0.0
H257 H 0.12037 0.68124 0.12058 0.0
H258 H 0.11419 0.7129 0.12971 0.0
H259 H 0.15576 0.75998 0.15393 0.0
H260 H 0.19102 0.76136 0.16128 0.0
H261 H 0.18232 0.76377 0.08646 0.0
H262 H 0.14922 0.72327 0.06755 0.0
H263 H 0.16973 0.69545 0.18046 0.0
H264 H 0.22014 0.675 0.162 0.0
C265 C 0.48368 0.8976 0.3802 0.0
C266 C 0.47361 0.88363 0.38497 0.0
C267 C 0.47501 0.88238 0.402 0.0
C268 C 0.48601 0.89542 0.4067 0.0
N269 N 0.49185 0.90488 0.39374 0.0
Co270 Co 0.50866 0.92457 0.39545 0.0
N271 N 0.51516 0.91916 0.41932 0.0
C272 C 0.5066 0.90793 0.4292 0.0
C273 C 0.51381 0.9067 0.445 0.0
C274 C 0.52768 0.91806 0.44531 0.0
C275 C 0.5282 0.92562 0.42957 0.0
N276 N 0.52507 0.94445 0.39727 0.0
C277 C 0.53636 0.94945 0.40985 0.0
C278 C 0.54441 0.96476 0.40608 0.0
C279 C 0.53758 0.96974 0.39089 0.0
C280 C 0.52587 0.9572 0.38616 0.0
N281 N 0.50243 0.92941 0.37137 0.0
C282 C 0.50592 0.94393 0.36329 0.0
C283 C 0.49977 0.94409 0.34703 0.0
C284 C 0.4917 0.92877 0.34467 0.0
C285 C 0.49339 0.92004 0.35967 0.0
N286 N 0.48862 0.93944 0.40309 0.0
C287 C 0.47278 0.97123 0.40734 0.0
C288 C 0.46764 0.96093 0.39384 0.0
C289 C 0.4754 0.94482 0.39219 0.0
C290 C 0.48333 0.96407 0.42001 0.0
C291 C 0.49093 0.94825 0.41774 0.0
N292 N 0.52944 0.91087 0.388 0.0
C293 C 0.55849 0.9116 0.37414 0.0
C294 C 0.56504 0.8987 0.3844 0.0
C295 C 0.55265 0.8906 0.39509 0.0
C296 C 0.53481 0.8968 0.39658 0.0
C297 C 0.5408 0.91745 0.37611 0.0
H298 H 0.52585 0.89092 0.40551 0.0
H299 H 0.53695 0.9282 0.36883 0.0
H300 H 0.47184 0.93748 0.38131 0.0
H301 H 0.50011 0.9443 0.42735 0.0
C302 C 0.49301 0.89768 0.42275 0.0
C303 C 0.48444 0.90377 0.36277 0.0
C304 C 0.53894 0.94078 0.42602 0.0
C305 C 0.51643 0.95641 0.37093 0.0
H306 H 0.46608 0.87511 0.37701 0.0
H307 H 0.46924 0.87271 0.40993 0.0
H308 H 0.50954 0.89849 0.45508 0.0
H309 H 0.53593 0.92089 0.45619 0.0
H310 H 0.55397 0.97175 0.41366 0.0
H311 H 0.54086 0.9811 0.38406 0.0
H312 H 0.50114 0.95409 0.3379 0.0
H313 H 0.48493 0.92466 0.33333 0.0
H314 H 0.45882 0.96565 0.38405 0.0
H315 H 0.48682 0.97114 0.43119 0.0
H316 H 0.56732 0.91784 0.36522 0.0
H317 H 0.55699 0.88032 0.40304 0.0
C318 C 0.2931 0.28728 0.6292 0.0
C319 C 0.27545 0.28623 0.62317 0.0
C320 C 0.27471 0.29612 0.60905 0.0
C321 C 0.2919 0.30257 0.60722 0.0
N322 N 0.30333 0.29731 0.6193 0.0
Co323 Co 0.32926 0.30333 0.62131 0.0
N324 N 0.32578 0.32381 0.60766 0.0
C325 C 0.312 0.32659 0.59691 0.0
C326 C 0.31336 0.3418 0.58887 0.0
C327 C 0.32902 0.34894 0.59489 0.0
C328 C 0.33637 0.33765 0.60633 0.0
N329 N 0.35529 0.30942 0.62303 0.0
C330 C 0.36355 0.32444 0.62033 0.0
C331 C 0.38212 0.32307 0.6229 0.0
C332 C 0.38546 0.30659 0.62719 0.0
C333 C 0.36879 0.29877 0.62703 0.0
N334 N 0.33236 0.28282 0.63505 0.0
C335 C 0.34819 0.27499 0.63809 0.0
C336 C 0.34608 0.26161 0.64886 0.0
C337 C 0.32783 0.2611 0.65271 0.0
C338 C 0.31971 0.27419 0.64401 0.0
N339 N 0.33491 0.29022 0.60084 0.0
C340 C 0.34899 0.26895 0.57554 0.0
C341 C 0.3353 0.26341 0.58651 0.0
C342 C 0.32848 0.27418 0.59902 0.0
C343 C 0.35456 0.28577 0.5769 0.0
C344 C 0.34725 0.29618 0.58943 0.0
N345 N 0.32433 0.31589 0.64206 0.0
C346 C 0.33259 0.32038 0.67095 0.0
C347 C 0.31654 0.32923 0.67394 0.0
C348 C 0.30485 0.3322 0.66028 0.0
C349 C 0.30902 0.3254 0.64436 0.0
C350 C 0.33615 0.31384 0.65514 0.0
H351 H 0.29965 0.3273 0.6341 0.0
H352 H 0.34826 0.30646 0.65381 0.0
H353 H 0.31862 0.26923 0.60775 0.0
H354 H 0.35226 0.30887 0.59034 0.0
C355 C 0.29681 0.31597 0.59675 0.0
C356 C 0.30002 0.27796 0.64376 0.0
C357 C 0.35415 0.33974 0.61446 0.0
C358 C 0.36474 0.28272 0.63357 0.0
H359 H 0.26429 0.27911 0.62843 0.0
H360 H 0.26283 0.29891 0.60155 0.0
H361 H 0.30383 0.34728 0.58009 0.0
H362 H 0.33453 0.36095 0.5911 0.0
H363 H 0.39218 0.33292 0.62181 0.0
H364 H 0.39839 0.30117 0.63073 0.0
H365 H 0.35666 0.25375 0.65407 0.0
H366 H 0.32135 0.25226 0.6611 0.0
H367 H 0.33045 0.25059 0.586 0.0
H368 H 0.36475 0.29082 0.5685 0.0
H369 H 0.34224 0.31808 0.68096 0.0
H370 H 0.29231 0.33908 0.66201 0.0
C371 C 0.0286 0.11737 0.88059 0.0
C372 C 0.03871 0.13135 0.88525 0.0
C373 C 0.03739 0.13269 0.90229 0.0
C374 C 0.02639 0.11968 0.9071 0.0
N375 N 0.02048 0.11017 0.8942 0.0
Co376 Co 1.00357 0.09056 0.89606 0.0
N377 N 0.99714 0.09614 0.91991 0.0
C378 C 1.00569 0.10746 0.92969 0.0
C379 C 0.99843 0.10889 0.94545 0.0
C380 C 0.98455 0.09752 0.94588 0.0
C381 C 0.98411 0.08976 0.93024 0.0
N382 N 0.98707 0.07076 0.89802 0.0
C383 C 0.97592 0.06578 0.91074 0.0
C384 C 0.96788 0.05044 0.90711 0.0
C385 C 0.97455 0.04541 0.89187 0.0
C386 C 0.98618 0.05795 0.88699 0.0
N387 N 0.00972 0.08556 0.87201 0.0
C388 C 0.00616 0.07101 0.86402 0.0
C389 C 0.01222 0.07075 0.84773 0.0
C390 C 0.0203 0.08605 0.84525 0.0
C391 C 0.01869 0.09486 0.86021 0.0
N392 N 0.02359 0.07572 0.90374 0.0
C393 C 0.04257 0.04562 0.90964 0.0
C394 C 0.0464 0.05544 0.89546 0.0
C395 C 0.03722 0.07078 0.89306 0.0
C396 C 0.03072 0.05215 0.92164 0.0
C397 C 0.02145 0.06703 0.91848 0.0
N398 N 0.98291 0.10435 0.88853 0.0
C399 C 0.95459 0.10506 0.87336 0.0
C400 C 0.94873 0.11898 0.88259 0.0
C401 C 0.96087 0.12614 0.89413 0.0
C402 C 0.97803 0.11882 0.89669 0.0
C403 C 0.97155 0.09797 0.87653 0.0
H404 H 0.98695 0.12443 0.90581 0.0
H405 H 0.9749 0.08669 0.86985 0.0
H406 H 0.04036 0.07796 0.88197 0.0
H407 H 0.01146 0.07037 0.9276 0.0
C408 C 0.01935 0.11759 0.92316 0.0
C409 C 0.02768 0.11116 0.86318 0.0
C410 C 0.97363 0.0744 0.92696 0.0
C411 C 0.99561 0.05862 0.87175 0.0
H412 H 0.04617 0.13986 0.87723 0.0
H413 H 0.04316 0.14241 0.91015 0.0
H414 H 1.00269 0.11721 0.95545 0.0
H415 H 0.97627 0.0948 0.95675 0.0
H416 H 0.95849 0.04343 0.91486 0.0
H417 H 0.97128 0.03399 0.88515 0.0
H418 H 0.01077 0.06072 0.83866 0.0
H419 H 0.02701 0.0901 0.83385 0.0
H420 H 0.05599 0.05111 0.8861 0.0
H421 H 0.02745 0.04513 0.9329 0.0
H422 H 0.94571 0.09901 0.86435 0.0
H423 H 0.95703 0.13712 0.90134 0.0
C424 C 0.36318 0.23916 0.25237 0.0
C425 C 0.37317 0.2537 0.24964 0.0
C426 C 0.38919 0.25182 0.25826 0.0
C427 C 0.3881 0.23633 0.26577 0.0
N428 N 0.37238 0.2284 0.2624 0.0
Co429 Co 0.36518 0.20599 0.27078 0.0
N430 N 0.38277 0.20725 0.28952 0.0
C431 C 0.39741 0.21736 0.29019 0.0
C432 C 0.40727 0.21531 0.30468 0.0
C433 C 0.3983 0.20311 0.31361 0.0
C434 C 0.38339 0.1984 0.30402 0.0
N435 N 0.35822 0.18349 0.27919 0.0
C436 C 0.36096 0.17648 0.29453 0.0
C437 C 0.35377 0.16039 0.29506 0.0
C438 C 0.34648 0.15729 0.27944 0.0
C439 C 0.34955 0.17162 0.27023 0.0
N440 N 0.34755 0.20499 0.25206 0.0
C441 C 0.33991 0.19097 0.24588 0.0
C442 C 0.32788 0.19437 0.23309 0.0
C443 C 0.32809 0.21158 0.23119 0.0
C444 C 0.34024 0.21774 0.24297 0.0
N445 N 0.38388 0.1953 0.25625 0.0
C446 C 0.40747 0.17723 0.23451 0.0
C447 C 0.39662 0.19051 0.22857 0.0
C448 C 0.38516 0.19943 0.23958 0.0
C449 C 0.40662 0.17369 0.25179 0.0
C450 C 0.39476 0.18273 0.26235 0.0
N451 N 0.34619 0.21622 0.28498 0.0
C452 C 0.31507 0.21599 0.29458 0.0
C453 C 0.31774 0.23067 0.30398 0.0
C454 C 0.33518 0.23796 0.30362 0.0
C455 C 0.34921 0.2305 0.29413 0.0
C456 C 0.3293 0.20906 0.28527 0.0
H457 H 0.36246 0.23631 0.29411 0.0
H458 H 0.32647 0.19792 0.2781 0.0
H459 H 0.37697 0.20944 0.23447 0.0
H460 H 0.39407 0.17918 0.27541 0.0
C461 C 0.39958 0.23036 0.27849 0.0
C462 C 0.34549 0.23553 0.24469 0.0
C463 C 0.37105 0.18456 0.30835 0.0
C464 C 0.34173 0.17564 0.25457 0.0
H465 H 0.36927 0.26454 0.24228 0.0
H466 H 0.39992 0.26103 0.25956 0.0
H467 H 0.41918 0.22226 0.30859 0.0
H468 H 0.40238 0.19814 0.32568 0.0
H469 H 0.35376 0.15182 0.3056 0.0
H470 H 0.33911 0.14619 0.27554 0.0
H471 H 0.31933 0.18552 0.22647 0.0
H472 H 0.32024 0.21876 0.22222 0.0
H473 H 0.39694 0.19402 0.21544 0.0
H474 H 0.4146 0.16357 0.25709 0.0
H475 H 0.30189 0.20999 0.29409 0.0
H476 H 0.33804 0.24923 0.31074 0.0
C477 C 0.04242 0.13549 0.5378 0.0
C478 C 0.02499 0.14196 0.53627 0.0
C479 C 0.02458 0.15653 0.5455 0.0
C480 C 0.04174 0.15818 0.55208 0.0
N481 N 0.05283 0.14555 0.54752 0.0
Co482 Co 0.0786 0.14312 0.55399 0.0
N483 N 0.07531 0.15784 0.57375 0.0
C484 C 0.06187 0.16909 0.57585 0.0
C485 C 0.06325 0.17771 0.59073 0.0
C486 C 0.07857 0.17153 0.59838 0.0
C487 C 0.08569 0.15941 0.58769 0.0
N488 N 0.10445 0.14095 0.56051 0.0
C489 C 0.11255 0.14404 0.57552 0.0
C490 C 0.13103 0.1408 0.57459 0.0
C491 C 0.13448 0.13566 0.55837 0.0
C492 C 0.11797 0.13601 0.55029 0.0
N493 N 0.08154 0.12829 0.53423 0.0
C494 C 0.09738 0.12442 0.52679 0.0
C495 C 0.09513 0.11314 0.51387 0.0
C496 C 0.07676 0.10982 0.51323 0.0
C497 C 0.06873 0.11935 0.52578 0.0
N498 N 0.08506 0.16278 0.54001 0.0
C499 C 0.09924 0.18766 0.51826 0.0
C500 C 0.08609 0.17611 0.51272 0.0
C501 C 0.07913 0.16391 0.52375 0.0
C502 C 0.10434 0.18692 0.53524 0.0
C503 C 0.09714 0.17449 0.54584 0.0
N504 N 0.07278 0.12326 0.56756 0.0
C505 C 0.08019 0.09471 0.57483 0.0
C506 C 0.06447 0.09327 0.58456 0.0
C507 C 0.05304 0.10738 0.58583 0.0
C508 C 0.05754 0.12233 0.57734 0.0
C509 C 0.08402 0.10963 0.56647 0.0
H510 H 0.04858 0.13302 0.57841 0.0
H511 H 0.09597 0.1099 0.55873 0.0
H512 H 0.06939 0.155 0.51893 0.0
H513 H 0.10195 0.17397 0.55862 0.0
C514 C 0.04682 0.16915 0.56503 0.0
C515 C 0.049 0.12038 0.52916 0.0
C516 C 0.10309 0.15078 0.59041 0.0
C517 C 0.11395 0.12882 0.53453 0.0
H518 H 0.01377 0.1367 0.52924 0.0
H519 H 0.01292 0.16448 0.54779 0.0
H520 H 0.05393 0.18697 0.59571 0.0
H521 H 0.084 0.17562 0.61033 0.0
H522 H 0.14094 0.14196 0.58455 0.0
H523 H 0.14735 0.13143 0.55335 0.0
H524 H 0.10565 0.10727 0.50641 0.0
H525 H 0.07015 0.10126 0.50465 0.0
H526 H 0.0813 0.17632 0.49987 0.0
H527 H 0.11445 0.19544 0.54024 0.0
H528 H 0.08926 0.08413 0.57311 0.0
H529 H 0.04074 0.10687 0.59326 0.0
C530 C 0.14617 0.77357 0.75272 0.0
C531 C 0.13579 0.75918 0.75057 0.0
C532 C 0.12008 0.76156 0.75956 0.0
C533 C 0.12174 0.77721 0.76668 0.0
N534 N 0.13752 0.78474 0.76273 0.0
Co535 Co 0.14552 0.80717 0.77043 0.0
N536 N 0.12838 0.80674 0.78956 0.0
C537 C 0.11344 0.79706 0.7907 0.0
C538 C 0.10391 0.79972 0.80528 0.0
C539 C 0.11342 0.81187 0.81376 0.0
C540 C 0.12832 0.81594 0.80386 0.0
N541 N 0.15352 0.82957 0.77831 0.0
C542 C 0.15145 0.83689 0.79362 0.0
C543 C 0.15926 0.85274 0.79374 0.0
C544 C 0.16624 0.85537 0.77791 0.0
C545 C 0.16238 0.84102 0.76899 0.0
N546 N 0.16244 0.80744 0.75113 0.0
C547 C 0.1702 0.82119 0.74447 0.0
C548 C 0.18162 0.81732 0.73134 0.0
C549 C 0.18089 0.8001 0.72974 0.0
C550 C 0.16906 0.7944 0.74202 0.0
N551 N 0.12666 0.81806 0.75621 0.0
C552 C 0.1026 0.83599 0.73475 0.0
C553 C 0.10538 0.84086 0.75153 0.0
C554 C 0.11721 0.83172 0.762 0.0
C555 C 0.11183 0.82154 0.72921 0.0
C556 C 0.12378 0.81287 0.74001 0.0
N557 N 0.16464 0.79674 0.78436 0.0
C558 C 0.19631 0.79544 0.79226 0.0
C559 C 0.19292 0.78224 0.80341 0.0
C560 C 0.17492 0.77652 0.80495 0.0
C561 C 0.16103 0.78379 0.79516 0.0
C562 C 0.18208 0.80261 0.78311 0.0
H563 H 0.14739 0.77894 0.79629 0.0
H564 H 0.18529 0.81298 0.77497 0.0
H565 H 0.11898 0.83597 0.77476 0.0
H566 H 0.13103 0.80217 0.73509 0.0
C567 C 0.11069 0.78378 0.77942 0.0
C568 C 0.16361 0.77674 0.74435 0.0
C569 C 0.14125 0.82943 0.80774 0.0
C570 C 0.16935 0.83663 0.75309 0.0
H571 H 0.1392 0.74814 0.74331 0.0
H572 H 0.10916 0.75263 0.7613 0.0
H573 H 0.09188 0.79317 0.80955 0.0
H574 H 0.10973 0.81721 0.82579 0.0
H575 H 0.15983 0.86148 0.80413 0.0
H576 H 0.17385 0.8662 0.77365 0.0
H577 H 0.19019 0.82585 0.72433 0.0
H578 H 0.18825 0.79259 0.72068 0.0
H579 H 0.09841 0.8517 0.75661 0.0
H580 H 0.11031 0.8172 0.7164 0.0
H581 H 0.20991 0.80045 0.79083 0.0
H582 H 0.17167 0.76633 0.81344 0.0
C583 C 0.46813 0.87857 0.03727 0.0
C584 C 0.48555 0.87209 0.03576 0.0
C585 C 0.48595 0.85757 0.04508 0.0
C586 C 0.46879 0.85597 0.05168 0.0
N587 N 0.45771 0.86857 0.04704 0.0
Co588 Co 0.43199 0.87117 0.05359 0.0
N589 N 0.43532 0.85666 0.0735 0.0
C590 C 0.44875 0.84539 0.07566 0.0
C591 C 0.44739 0.83688 0.0906 0.0
C592 C 0.43209 0.84313 0.09822 0.0
C593 C 0.42497 0.85519 0.08746 0.0
N594 N 0.40617 0.87348 0.06016 0.0
C595 C 0.39809 0.8705 0.0752 0.0
C596 C 0.37961 0.87379 0.07426 0.0
C597 C 0.37615 0.87882 0.05801 0.0
C598 C 0.39264 0.87837 0.04992 0.0
N599 N 0.42904 0.88581 0.0337 0.0
C600 C 0.41321 0.88966 0.02625 0.0
C601 C 0.41548 0.90085 0.01324 0.0
C602 C 0.43386 0.90413 0.01258 0.0
C603 C 0.44186 0.89469 0.0252 0.0
N604 N 0.42537 0.85138 0.03986 0.0
C605 C 0.41079 0.82646 0.01839 0.0
C606 C 0.424 0.83787 0.01268 0.0
C607 C 0.43117 0.85008 0.02357 0.0
C608 C 0.40587 0.82733 0.03542 0.0
C609 C 0.41328 0.83977 0.04587 0.0
N610 N 0.43797 0.89117 0.0669 0.0
C611 C 0.43081 0.9199 0.07366 0.0
C612 C 0.44676 0.92152 0.08303 0.0
C613 C 0.45814 0.90738 0.08445 0.0
C614 C 0.45339 0.89225 0.07641 0.0
C615 C 0.42674 0.9048 0.06573 0.0
H616 H 0.46234 0.88156 0.07757 0.0
H617 H 0.41465 0.90441 0.05818 0.0
H618 H 0.44093 0.8589 0.01862 0.0
H619 H 0.40859 0.84041 0.05869 0.0
C620 C 0.46375 0.84516 0.06478 0.0
C621 C 0.46157 0.89369 0.02864 0.0
C622 C 0.40753 0.86379 0.09013 0.0
C623 C 0.39664 0.8854 0.03407 0.0
H624 H 0.49678 0.87734 0.02873 0.0
H625 H 0.49762 0.84965 0.04743 0.0
H626 H 0.45669 0.82762 0.09562 0.0
H627 H 0.42667 0.8391 0.11019 0.0
H628 H 0.3697 0.87271 0.08423 0.0
H629 H 0.36328 0.88302 0.05297 0.0
H630 H 0.40497 0.90669 1.00575 0.0
H631 H 0.4405 0.91262 1.00394 0.0
H632 H 0.42865 0.83755 0.99979 0.0
H633 H 0.39573 0.81892 0.04055 0.0
H634 H 0.42176 0.93047 0.07184 0.0
H635 H 0.47062 0.90803 0.09162 0.0
C636 C 0.36332 0.77467 0.26201 0.0
C637 C 0.37326 0.76007 0.26453 0.0
C638 C 0.38919 0.76194 0.25578 0.0
C639 C 0.38809 0.7775 0.24839 0.0
N640 N 0.37244 0.78546 0.25196 0.0
Co641 Co 0.36524 0.80795 0.24377 0.0
N642 N 0.38263 0.80674 0.22487 0.0
C643 C 0.39721 0.79658 0.22401 0.0
C644 C 0.40698 0.7987 0.20947 0.0
C645 C 0.398 0.81101 0.20072 0.0
C646 C 0.38318 0.8157 0.21043 0.0
N647 N 0.35829 0.83053 0.23558 0.0
C648 C 0.36094 0.83766 0.22027 0.0
C649 C 0.35382 0.85378 0.21992 0.0
C650 C 0.34667 0.85678 0.23562 0.0
C651 C 0.34976 0.84237 0.24469 0.0
N652 N 0.34779 0.80888 0.26265 0.0
C653 C 0.34025 0.82288 0.26897 0.0
C654 C 0.3283 0.81943 0.28182 0.0
C655 C 0.32847 0.8022 0.28359 0.0
C656 C 0.3405 0.79609 0.27169 0.0
N657 N 0.38412 0.8185 0.2582 0.0
C658 C 0.4079 0.83652 0.27982 0.0
C659 C 0.39706 0.82326 0.28581 0.0
C660 C 0.38551 0.81436 0.27486 0.0
C661 C 0.40694 0.84007 0.26254 0.0
C662 C 0.395 0.83105 0.25205 0.0
N663 N 0.34605 0.79789 0.22966 0.0
C664 C 0.3149 0.79853 0.22013 0.0
C665 C 0.31738 0.78394 0.21057 0.0
C666 C 0.3347 0.77643 0.21086 0.0
C667 C 0.34886 0.78365 0.22039 0.0
C668 C 0.32923 0.8052 0.2295 0.0
H669 H 0.36205 0.77771 0.22032 0.0
H670 H 0.32653 0.8163 0.23679 0.0
H671 H 0.37733 0.80436 0.28001 0.0
H672 H 0.39422 0.83462 0.239 0.0
C673 C 0.39945 0.7835 0.23561 0.0
C674 C 0.3457 0.7783 0.26986 0.0
C675 C 0.37091 0.82967 0.20631 0.0
C676 C 0.34205 0.83826 0.26038 0.0
H677 H 0.3694 0.74917 0.27181 0.0
H678 H 0.39986 0.75271 0.25429 0.0
H679 H 0.41883 0.79175 0.20543 0.0
H680 H 0.40203 0.81607 0.18867 0.0
H681 H 0.35374 0.86244 0.20945 0.0
H682 H 0.33938 0.86788 0.23966 0.0
H683 H 0.31984 0.82825 0.28856 0.0
H684 H 0.32067 0.79498 0.29257 0.0
H685 H 0.39745 0.81975 0.29894 0.0
H686 H 0.4149 0.85018 0.25721 0.0
H687 H 0.3018 0.80469 0.22067 0.0
H688 H 0.33739 0.76519 0.20362 0.0
C689 C 0.46921 0.13589 0.47693 0.0
C690 C 0.48661 0.14247 0.47832 0.0
C691 C 0.48686 0.15693 0.46892 0.0
C692 C 0.46966 0.15841 0.46239 0.0
N693 N 0.45869 0.14578 0.46715 0.0
Co694 Co 0.43295 0.14299 0.46072 0.0
N695 N 0.43609 0.15741 0.44073 0.0
C696 C 0.44941 0.16875 0.43846 0.0
C697 C 0.44792 0.17716 0.42347 0.0
C698 C 0.43265 0.17075 0.41593 0.0
C699 C 0.42567 0.15872 0.42679 0.0
N700 N 0.40713 0.14043 0.45423 0.0
C701 C 0.39898 0.14323 0.43918 0.0
C702 C 0.38054 0.13984 0.44019 0.0
C703 C 0.37716 0.13491 0.45648 0.0
C704 C 0.39367 0.13553 0.46455 0.0
N705 N 0.43018 0.12852 0.48075 0.0
C706 C 0.4144 0.12464 0.48829 0.0
C707 C 0.4168 0.11356 0.50137 0.0
C708 C 0.4352 0.11038 0.50199 0.0
C709 C 0.44309 0.11977 0.48926 0.0
N710 N 0.42623 0.16284 0.47434 0.0
C711 C 0.41168 0.18788 0.49567 0.0
C712 C 0.42545 0.17699 0.50124 0.0
C713 C 0.43248 0.1646 0.49044 0.0
C714 C 0.40613 0.18645 0.47886 0.0
C715 C 0.41365 0.17406 0.46843 0.0
N716 N 0.43901 0.12293 0.44752 0.0
C717 C 0.43193 0.09416 0.44086 0.0
C718 C 0.44767 0.09266 0.43117 0.0
C719 C 0.45895 0.10685 0.42961 0.0
C720 C 0.45427 0.12194 0.43777 0.0
C721 C 0.42792 0.10922 0.44889 0.0
H722 H 0.46311 0.13269 0.43648 0.0
H723 H 0.41597 0.10953 0.45663 0.0
H724 H 0.4425 0.156 0.49536 0.0
H725 H 0.40872 0.17317 0.45571 0.0
C726 C 0.46447 0.16912 0.44926 0.0
C727 C 0.46278 0.12081 0.48571 0.0
C728 C 0.40833 0.14993 0.42421 0.0
C729 C 0.39778 0.1287 0.48046 0.0
H730 H 0.4979 0.13732 0.48534 0.0
H731 H 0.49847 0.16491 0.46646 0.0
H732 H 0.45714 0.18644 0.41835 0.0
H733 H 0.42716 0.17465 0.40394 0.0
H734 H 0.3706 0.14081 0.43023 0.0
H735 H 0.36433 0.13067 0.46159 0.0
H736 H 0.40636 0.10771 0.50893 0.0
H737 H 0.44193 0.10198 0.51066 0.0
H738 H 0.43026 0.17754 0.51407 0.0
H739 H 0.39586 0.19477 0.47379 0.0
H740 H 0.42298 0.08354 0.44281 0.0
H741 H 0.47126 0.1063 0.4222 0.0
C742 C 0.14878 0.24015 0.76197 0.0
C743 C 0.13886 0.25475 0.76457 0.0
C744 C 0.12282 0.25286 0.75597 0.0
C745 C 0.12386 0.23731 0.74858 0.0
N746 N 0.13955 0.22936 0.75199 0.0
Co747 Co 0.14668 0.20688 0.74371 0.0
N748 N 0.12905 0.20808 0.725 0.0
C749 C 0.11445 0.21822 0.72429 0.0
C750 C 0.10455 0.21612 0.70983 0.0
C751 C 0.11347 0.20385 0.70096 0.0
C752 C 0.12839 0.19916 0.71054 0.0
N753 N 0.15355 0.18431 0.73542 0.0
C754 C 0.15077 0.17723 0.72012 0.0
C755 C 0.15789 0.16112 0.71966 0.0
C756 C 0.1652 0.15808 0.73529 0.0
C757 C 0.16219 0.17247 0.74444 0.0
N758 N 0.16435 0.20595 0.76241 0.0
C759 C 0.17198 0.19194 0.76864 0.0
C760 C 0.18406 0.19538 0.78137 0.0
C761 C 0.1839 0.2126 0.78318 0.0
C762 C 0.17173 0.21873 0.7714 0.0
N763 N 0.12798 0.19631 0.75834 0.0
C764 C 0.10456 0.17827 0.7803 0.0
C765 C 0.11539 0.19163 0.7861 0.0
C766 C 0.12676 0.20052 0.77499 0.0
C767 C 0.10531 0.17466 0.76303 0.0
C768 C 0.11707 0.18369 0.75236 0.0
N769 N 0.1657 0.21697 0.72943 0.0
C770 C 0.19679 0.21646 0.71972 0.0
C771 C 0.19422 0.23111 0.71027 0.0
C772 C 0.17685 0.23855 0.71066 0.0
C773 C 0.16278 0.23123 0.72022 0.0
C774 C 0.18254 0.20969 0.72912 0.0
H775 H 0.14957 0.23714 0.72026 0.0
H776 H 0.18531 0.19856 0.73634 0.0
H777 H 0.13496 0.21057 0.78001 0.0
H778 H 0.11771 0.18008 0.73932 0.0
C779 C 0.11234 0.2313 0.73591 0.0
C780 C 0.16648 0.23652 0.76966 0.0
C781 C 0.1407 0.18528 0.70626 0.0
C782 C 0.17008 0.17656 0.76005 0.0
H783 H 0.14279 0.26565 0.77181 0.0
H784 H 0.11214 0.26209 0.75459 0.0
H785 H 0.09266 0.22308 0.7059 0.0
H786 H 0.10936 0.19883 0.68892 0.0
H787 H 0.15786 0.1525 0.70916 0.0
H788 H 0.17255 0.14698 0.73923 0.0
H789 H 0.19261 0.18655 0.78802 0.0
H790 H 0.19179 0.21981 0.79209 0.0
H791 H 0.11515 0.19521 0.79922 0.0
H792 H 0.09734 0.16448 0.75783 0.0
H793 H 0.20992 0.21035 0.72019 0.0
H794 H 0.17408 0.24982 0.70351 0.0
C795 C 0.04499 0.87942 0.97719 0.0
C796 C 0.02762 0.87289 0.97905 0.0
C797 C 0.02692 0.85854 0.96952 0.0
C798 C 0.04388 0.85702 0.96249 0.0
N799 N 0.05512 0.86952 0.96707 0.0
Co800 Co 0.08086 0.87171 0.96049 0.0
N801 N 0.07715 0.85751 0.94042 0.0
C802 C 0.06347 0.84653 0.93818 0.0
C803 C 0.0646 0.83814 0.92315 0.0
C804 C 0.08002 0.84416 0.91556 0.0
C805 C 0.08745 0.85595 0.92642 0.0
N806 N 0.10674 0.87345 0.95393 0.0
C807 C 0.11478 0.87039 0.93888 0.0
C808 C 0.13334 0.87318 0.93989 0.0
C809 C 0.13692 0.87798 0.95618 0.0
C810 C 0.12039 0.87788 0.96425 0.0
N811 N 0.08414 0.88612 0.98053 0.0
C812 C 0.10011 0.88975 0.98786 0.0
C813 C 0.0982 0.90136 1.00052 0.0
C814 C 0.07994 0.90514 1.00112 0.0
C815 C 0.07156 0.89547 0.98887 0.0
N816 N 0.08699 0.85165 0.97405 0.0
C817 C 0.10126 0.8266 0.99558 0.0
C818 C 0.08818 0.83816 1.00125 0.0
C819 C 0.0812 0.85044 0.99034 0.0
C820 C 0.10613 0.82734 0.97852 0.0
C821 C 0.09886 0.83985 0.96803 0.0
N822 N 0.07538 0.89209 0.94749 0.0
C823 C 0.08313 0.921 0.9424 0.0
C824 C 0.06651 0.92384 0.93447 0.0
C825 C 0.0548 0.91008 0.93211 0.0
C826 C 0.05953 0.89422 0.93873 0.0
C827 C 0.08723 0.90525 0.9488 0.0
H828 H 0.05013 0.88389 0.93739 0.0
H829 H 0.09975 0.90408 0.9556 0.0
H830 H 0.07161 0.8594 0.99532 0.0
H831 H 0.10352 0.84041 0.9552 0.0
C832 C 0.0486 0.84633 0.9492 0.0
C833 C 0.05171 0.8946 0.98564 0.0
C834 C 0.10517 0.86409 0.92386 0.0
C835 C 0.11654 0.88504 0.98005 0.0
H836 H 0.0166 0.87802 0.98645 0.0
H837 H 0.01518 0.85064 0.96734 0.0
H838 H 0.05511 0.82907 0.91809 0.0
H839 H 0.08534 0.84009 0.90356 0.0
H840 H 0.14324 0.87196 0.92992 0.0
H841 H 0.14988 0.88185 0.96127 0.0
H842 H 0.10892 0.90723 0.00774 0.0
H843 H 0.07376 0.91421 0.00942 0.0
H844 H 0.08353 0.83794 0.01414 0.0
H845 H 0.11614 0.8188 0.97341 0.0
H846 H 0.09277 0.93112 0.94421 0.0
H847 H 0.04183 0.91172 0.92592 0.0
C848 C 0.2337 0.38375 0.14741 0.0
C849 C 0.22358 0.37901 0.13347 0.0
C850 C 0.22497 0.36198 0.13218 0.0
C851 C 0.23602 0.35725 0.14518 0.0
N852 N 0.2419 0.3702 0.15464 0.0
Co853 Co 0.25877 0.36844 0.17429 0.0
N854 N 0.26516 0.34454 0.16888 0.0
C855 C 0.25658 0.3347 0.15764 0.0
C856 C 0.26372 0.31887 0.15641 0.0
C857 C 0.27757 0.3185 0.1678 0.0
C858 C 0.27815 0.33423 0.17537 0.0
N859 N 0.27521 0.36657 0.19416 0.0
C860 C 0.28641 0.35392 0.19918 0.0
C861 C 0.2945 0.35768 0.21447 0.0
C862 C 0.28779 0.37293 0.21942 0.0
C863 C 0.27611 0.3777 0.20688 0.0
N864 N 0.25267 0.39256 0.17912 0.0
C865 C 0.25629 0.40066 0.1936 0.0
C866 C 0.25022 0.41695 0.19376 0.0
C867 C 0.24205 0.41931 0.17849 0.0
C868 C 0.24361 0.40428 0.16978 0.0
N869 N 0.23872 0.36089 0.18922 0.0
C870 C 0.22325 0.35667 0.22117 0.0
C871 C 0.21814 0.37027 0.21099 0.0
C872 C 0.2257 0.3719 0.1948 0.0
C873 C 0.23351 0.3439 0.21382 0.0
C874 C 0.24092 0.34615 0.19792 0.0
N875 N 0.27955 0.37579 0.16054 0.0
C876 C 0.30874 0.38941 0.16122 0.0
C877 C 0.31512 0.37917 0.14823 0.0
C878 C 0.3026 0.36861 0.14015 0.0
C879 C 0.28478 0.36723 0.14641 0.0
C880 C 0.29104 0.38757 0.16711 0.0
H881 H 0.27572 0.35839 0.14053 0.0
H882 H 0.2873 0.39484 0.17791 0.0
H883 H 0.22218 0.38285 0.18755 0.0
H884 H 0.24987 0.33643 0.19381 0.0
C885 C 0.243 0.34119 0.14741 0.0
C886 C 0.2345 0.40117 0.15358 0.0
C887 C 0.28888 0.33773 0.19053 0.0
C888 C 0.26679 0.39299 0.20606 0.0
H889 H 0.21601 0.38698 0.12499 0.0
H890 H 0.21916 0.35406 0.12253 0.0
H891 H 0.2594 0.3088 0.1482 0.0
H892 H 0.28576 0.30759 0.17064 0.0
H893 H 0.30402 0.35005 0.22148 0.0
H894 H 0.29114 0.37976 0.23076 0.0
H895 H 0.25168 0.42608 0.20373 0.0
H896 H 0.23529 0.43066 0.1744 0.0
H897 H 0.20952 0.38014 0.21586 0.0
H898 H 0.23695 0.33266 0.22081 0.0
H899 H 0.31768 0.39823 0.16747 0.0
H900 H 0.30682 0.36068 0.1298 0.0
C901 C 0.73328 0.13007 0.8668 0.0
C902 C 0.72343 0.13479 0.88091 0.0
C903 C 0.725 0.1518 0.88231 0.0
C904 C 0.73588 0.15653 0.86919 0.0
N905 N 0.74149 0.14361 0.85956 0.0
Co906 Co 0.75803 0.14539 0.83967 0.0
N907 N 0.7647 0.16921 0.84513 0.0
C908 C 0.75636 0.17904 0.85654 0.0
C909 C 0.76364 0.19482 0.85776 0.0
C910 C 0.77732 0.19516 0.8462 0.0
C911 C 0.77767 0.17947 0.83855 0.0
N912 N 0.77416 0.14727 0.81959 0.0
C913 C 0.78542 0.15986 0.81452 0.0
C914 C 0.79323 0.15614 0.79909 0.0
C915 C 0.78629 0.14099 0.79412 0.0
C916 C 0.77475 0.13623 0.80678 0.0
N917 N 0.75163 0.12135 0.83476 0.0
C918 C 0.75491 0.11334 0.82016 0.0
C919 C 0.74866 0.09711 0.81995 0.0
C920 C 0.74073 0.0947 0.83532 0.0
C921 C 0.7426 0.10964 0.84413 0.0
N922 N 0.7378 0.15318 0.8251 0.0
C923 C 0.72189 0.15749 0.79336 0.0
C924 C 0.71677 0.14397 0.80365 0.0
C925 C 0.72454 0.14231 0.81974 0.0
C926 C 0.7324 0.17018 0.80055 0.0
C927 C 0.74003 0.16788 0.81635 0.0
N928 N 0.77898 0.13779 0.85306 0.0
C929 C 0.80795 0.12381 0.85185 0.0
C930 C 0.81478 0.13402 0.86466 0.0
C931 C 0.8026 0.14474 0.87298 0.0
C932 C 0.78465 0.1463 0.86707 0.0
C933 C 0.79016 0.12586 0.84629 0.0
H934 H 0.77584 0.15525 0.87312 0.0
H935 H 0.78609 0.11863 0.83557 0.0
H936 H 0.721 0.13141 0.82707 0.0
H937 H 0.74918 0.1775 0.82033 0.0
C938 C 0.74293 0.17257 0.86694 0.0
C939 C 0.73378 0.1127 0.86047 0.0
C940 C 0.78819 0.17596 0.82326 0.0
C941 C 0.76528 0.12102 0.80761 0.0
H942 H 0.71592 0.12681 0.88943 0.0
H943 H 0.71941 0.1597 0.89209 0.0
H944 H 0.75953 0.20486 0.86609 0.0
H945 H 0.78555 0.20603 0.84333 0.0
H946 H 0.80272 0.16374 0.79202 0.0
H947 H 0.78939 0.13422 0.78269 0.0
H948 H 0.74986 0.08805 0.80988 0.0
H949 H 0.73392 0.08337 0.83942 0.0
H950 H 0.70795 0.13417 0.79892 0.0
H951 H 0.73585 0.18137 0.7935 0.0
H952 H 0.81662 0.11487 0.84545 0.0
H953 H 0.80716 0.15264 0.8832 0.0
C954 C 0.11226 0.50209 0.02539 0.0
C955 C 0.12204 0.49916 0.01078 0.0
C956 C 0.13819 0.50763 0.01246 0.0
C957 C 0.13737 0.51522 0.02795 0.0
N958 N 0.12172 0.51202 0.03603 0.0
Co959 Co 0.11483 0.5205 0.05847 0.0
N960 N 0.13247 0.53917 0.05694 0.0
C961 C 0.147 0.53972 0.04669 0.0
C962 C 0.15698 0.55416 0.0486 0.0
C963 C 0.14822 0.56317 0.06086 0.0
C964 C 0.13328 0.5537 0.06574 0.0
N965 N 0.10818 0.529 0.08101 0.0
C966 C 0.11107 0.54436 0.08795 0.0
C967 C 0.10402 0.54497 0.10409 0.0
C968 C 0.09669 0.52939 0.10731 0.0
C969 C 0.09959 0.52011 0.09298 0.0
N970 N 0.09715 0.50183 0.05971 0.0
C971 C 0.08962 0.49573 0.07382 0.0
C972 C 0.0774 0.48306 0.07054 0.0
C973 C 0.07735 0.48118 0.05332 0.0
C974 C 0.08956 0.49284 0.04704 0.0
N975 N 0.13361 0.50596 0.06903 0.0
C976 C 0.15741 0.48426 0.08696 0.0
C977 C 0.14634 0.47827 0.07386 0.0
C978 C 0.13478 0.48926 0.06501 0.0
C979 C 0.15665 0.50157 0.0904 0.0
C980 C 0.14469 0.5121 0.08144 0.0
N981 N 0.09576 0.53472 0.04838 0.0
C982 C 0.0647 0.54448 0.04896 0.0
C983 C 0.06721 0.55382 0.03423 0.0
C984 C 0.08452 0.55331 0.02669 0.0
C985 C 0.09861 0.54378 0.03401 0.0
C986 C 0.07898 0.53512 0.05575 0.0
H987 H 0.11177 0.54367 0.02803 0.0
H988 H 0.07626 0.528 0.06695 0.0
H989 H 0.12643 0.48411 0.05513 0.0
H990 H 0.14409 0.52518 0.08492 0.0
C991 C 0.14899 0.52792 0.03373 0.0
C992 C 0.0945 0.49468 0.0292 0.0
C993 C 0.12117 0.55812 0.07974 0.0
C994 C 0.09165 0.50447 0.0891 0.0
H995 H 0.1179 0.49176 1.00004 0.0
H996 H 0.14882 0.5088 1.00315 0.0
H997 H 0.16885 0.55797 0.04154 0.0
H998 H 0.15246 0.57522 0.06577 0.0
H999 H 0.1041 0.55554 0.11262 0.0
H1000 H 0.0894 0.52556 0.11847 0.0
H1001 H 0.06885 0.47655 0.07947 0.0
H1002 H 0.06924 0.47235 0.04622 0.0
H1003 H 0.14657 0.46511 0.07043 0.0
H1004 H 0.16479 0.50691 0.10039 0.0
H1005 H 0.05161 0.5441 0.05515 0.0
H1006 H 0.08724 0.56037 0.01535 0.0
C1007 C 0.77888 0.88309 0.36686 0.0
C1008 C 0.78922 0.87821 0.38063 0.0
C1009 C 0.78781 0.86117 0.3818 0.0
C1010 C 0.77655 0.85656 0.36891 0.0
N1011 N 0.77057 0.8696 0.35963 0.0
Co1012 Co 0.75331 0.86805 0.34026 0.0
N1013 N 0.7468 0.84418 0.34566 0.0
C1014 C 0.75547 0.83424 0.35676 0.0
C1015 C 0.74817 0.81848 0.35806 0.0
C1016 C 0.73414 0.81824 0.34686 0.0
C1017 C 0.73364 0.83398 0.3393 0.0
N1018 N 0.73646 0.86642 0.32067 0.0
C1019 C 0.72519 0.85382 0.31568 0.0
C1020 C 0.71692 0.85768 0.30049 0.0
C1021 C 0.72359 0.87294 0.29557 0.0
C1022 C 0.73543 0.87762 0.30801 0.0
N1023 N 0.75956 0.89213 0.33542 0.0
C1024 C 0.75581 0.90031 0.32102 0.0
C1025 C 0.76197 0.91657 0.32087 0.0
C1026 C 0.77031 0.91883 0.33608 0.0
C1027 C 0.76875 0.90377 0.34474 0.0
N1028 N 0.773 0.8604 0.325 0.0
C1029 C 0.78868 0.85608 0.29314 0.0
C1030 C 0.79394 0.86955 0.30344 0.0
C1031 C 0.78626 0.87123 0.31957 0.0
C1032 C 0.77803 0.84349 0.30032 0.0
C1033 C 0.77049 0.8458 0.31616 0.0
N1034 N 0.73294 0.87557 0.35442 0.0
C1035 C 0.70485 0.89106 0.3557 0.0
C1036 C 0.69901 0.88162 0.36948 0.0
C1037 C 0.71105 0.86978 0.3763 0.0
C1038 C 0.72811 0.86719 0.36878 0.0
C1039 C 0.72167 0.88781 0.34837 0.0
H1040 H 0.73697 0.85787 0.37415 0.0
H1041 H 0.72495 0.89465 0.33718 0.0
H1042 H 0.78994 0.88208 0.32691 0.0
H1043 H 0.76128 0.83625 0.32014 0.0
C1044 C 0.76934 0.84057 0.36676 0.0
C1045 C 0.77792 0.90058 0.36089 0.0
C1046 C 0.72294 0.83749 0.32413 0.0
C1047 C 0.74498 0.89279 0.30871 0.0
H1048 H 0.79689 0.8861 0.3891 0.0
H1049 H 0.7937 0.85317 0.39134 0.0
H1050 H 0.75253 0.80835 0.36619 0.0
H1051 H 0.7258 0.80741 0.34409 0.0
H1052 H 0.70737 0.85005 0.29351 0.0
H1053 H 0.72019 0.87981 0.28426 0.0
H1054 H 0.76041 0.92576 0.31096 0.0
H1055 H 0.77715 0.93014 0.34016 0.0
H1056 H 0.80283 0.87929 0.29871 0.0
H1057 H 0.77445 0.83233 0.29326 0.0
H1058 H 0.69602 0.9003 0.34993 0.0
H1059 H 0.70721 0.8624 0.38716 0.0
C1060 C 0.90123 0.0127 0.0256 0.0
C1061 C 0.89164 0.01595 0.01095 0.0
C1062 C 0.87541 0.00755 0.01231 0.0
C1063 C 0.87601 0.99966 0.02765 0.0
N1064 N 0.8916 1.00261 0.03595 0.0
Co1065 Co 0.89812 0.99369 0.05834 0.0
N1066 N 0.88032 0.97519 0.05631 0.0
C1067 C 0.866 0.97486 0.04581 0.0
C1068 C 0.85584 0.96049 0.04738 0.0
C1069 C 0.86425 0.95128 0.05969 0.0
C1070 C 0.87917 0.96058 0.06495 0.0
N1071 N 0.90422 0.98487 0.08091 0.0
C1072 C 0.90093 0.96952 0.08769 0.0
C1073 C 0.90761 0.9687 0.10396 0.0
C1074 C 0.91511 0.98415 0.10742 0.0
C1075 C 0.91268 0.99356 0.09312 0.0
N1076 N 0.91607 0.01211 0.06003 0.0
C1077 C 0.92356 0.01787 0.07429 0.0
C1078 C 0.93603 0.03042 0.07131 0.0
C1079 C 0.93627 0.03257 0.05413 0.0
C1080 C 0.92393 0.0212 0.04757 0.0
N1081 N 0.87936 0.0083 0.06885 0.0
C1082 C 0.85587 0.03017 0.08691 0.0
C1083 C 0.86711 0.03612 0.07392 0.0
C1084 C 0.87853 0.02506 0.06502 0.0
C1085 C 0.85624 0.01281 0.09012 0.0
C1086 C 0.86803 1.00218 0.08107 0.0
N1087 N 0.91726 0.97946 0.04827 0.0
C1088 C 0.94798 0.96887 0.04964 0.0
C1089 C 0.94673 0.96172 0.03354 0.0
C1090 C 0.92984 0.96333 0.02525 0.0
C1091 C 0.91528 0.97198 0.0329 0.0
C1092 C 0.93346 0.97784 0.0565 0.0
H1093 H 0.90256 0.97294 0.02622 0.0
H1094 H 0.93561 0.98371 0.06849 0.0
H1095 H 0.88707 0.03021 0.05528 0.0
H1096 H 0.86834 0.98904 0.08436 0.0
C1097 C 0.86428 0.9869 0.03305 0.0
C1098 C 0.91905 0.01982 0.02967 0.0
C1099 C 0.89085 0.95593 0.07919 0.0
C1100 C 0.92106 0.00906 0.08946 0.0
H1101 H 0.89595 0.0235 1.00037 0.0
H1102 H 0.86489 1.0066 1.00286 0.0
H1103 H 0.84405 0.95689 0.0401 0.0
H1104 H 0.85977 0.93923 0.06442 0.0
H1105 H 0.90718 0.95807 0.11241 0.0
H1106 H 0.92224 0.98779 0.11874 0.0
H1107 H 0.94455 0.03671 0.08043 0.0
H1108 H 0.94454 0.04144 0.04724 0.0
H1109 H 0.86716 0.04931 0.07062 0.0
H1110 H 0.84795 0.00747 0.1 0.0
H1111 H 0.96012 0.9677 0.05717 0.0
H1112 H 0.9278 0.95828 0.01279 0.0
C1113 C 0.27783 0.62977 0.64842 0.0
C1114 C 0.28865 0.63484 0.63505 0.0
C1115 C 0.28762 0.65193 0.63432 0.0
C1116 C 0.27606 0.6564 0.64704 0.0
N1117 N 0.26955 0.64321 0.65578 0.0
Co1118 Co 0.25169 0.64453 0.67467 0.0
N1119 N 0.24552 0.66852 0.66951 0.0
C1120 C 0.25488 0.67868 0.65912 0.0
C1121 C 0.24774 0.69451 0.65788 0.0
C1122 C 0.23306 0.69453 0.66835 0.0
C1123 C 0.23202 0.67859 0.67543 0.0
N1124 N 0.23413 0.6459 0.69371 0.0
C1125 C 0.22231 0.65826 0.69825 0.0
C1126 C 0.21336 0.65413 0.71302 0.0
C1127 C 0.22012 0.63896 0.71815 0.0
C1128 C 0.23271 0.63459 0.70623 0.0
N1129 N 0.25776 0.62043 0.67937 0.0
C1130 C 0.25375 0.61216 0.69366 0.0
C1131 C 0.25987 0.59588 0.69375 0.0
C1132 C 0.26846 0.59373 0.67863 0.0
C1133 C 0.26707 0.60885 0.67007 0.0
N1134 N 0.27089 0.65188 0.69048 0.0
C1135 C 0.29015 0.65759 0.72045 0.0
C1136 C 0.29451 0.64393 0.71007 0.0
C1137 C 0.28509 0.6416 0.69484 0.0
C1138 C 0.27728 0.66908 0.71471 0.0
C1139 C 0.26785 0.66599 0.69992 0.0
N1140 N 0.2318 0.63731 0.65982 0.0
C1141 C 0.20377 0.62186 0.65752 0.0
C1142 C 0.19824 0.63176 0.64395 0.0
C1143 C 0.21044 0.64377 0.63772 0.0
C1144 C 0.22732 0.6461 0.64563 0.0
C1145 C 0.22042 0.62487 0.66527 0.0
H1146 H 0.23631 0.65559 0.64074 0.0
H1147 H 0.22345 0.61771 0.67634 0.0
H1148 H 0.28859 0.63091 0.6872 0.0
H1149 H 0.25709 0.67456 0.69718 0.0
C1150 C 0.26907 0.67245 0.64944 0.0
C1151 C 0.27645 0.61218 0.65404 0.0
C1152 C 0.22023 0.67464 0.68982 0.0
C1153 C 0.24246 0.61951 0.70572 0.0
H1154 H 0.29642 0.62705 0.62656 0.0
H1155 H 0.29395 0.66008 0.62514 0.0
H1156 H 0.25257 0.7048 0.65019 0.0
H1157 H 0.22459 0.70531 0.67094 0.0
H1158 H 0.20327 0.66151 0.7196 0.0
H1159 H 0.21624 0.63192 0.72921 0.0
H1160 H 0.25805 0.58658 0.70352 0.0
H1161 H 0.27531 0.58243 0.67453 0.0
H1162 H 0.30474 0.63493 0.71388 0.0
H1163 H 0.27345 0.67984 0.72225 0.0
H1164 H 0.19481 0.61246 0.66283 0.0
H1165 H 0.20682 0.65151 0.62704 0.0
C1166 C 0.11335 0.51183 0.4894 0.0
C1167 C 0.12325 0.51444 0.50401 0.0
C1168 C 0.13927 0.50582 0.50217 0.0
C1169 C 0.13826 0.49839 0.48663 0.0
N1170 N 0.12259 0.50182 0.47865 0.0
Co1171 Co 0.11548 0.49351 0.45618 0.0
N1172 N 0.13305 0.47476 0.45745 0.0
C1173 C 0.14763 0.47403 0.46761 0.0
C1174 C 0.15748 0.45953 0.46556 0.0
C1175 C 0.14855 0.45066 0.45331 0.0
C1176 C 0.13367 0.46027 0.44857 0.0
N1177 N 0.10862 0.48518 0.43363 0.0
C1178 C 0.11135 0.46985 0.42659 0.0
C1179 C 0.10425 0.46937 0.41047 0.0
C1180 C 0.097 0.48501 0.40738 0.0
C1181 C 0.10003 0.49419 0.42175 0.0
N1182 N 0.09786 0.51224 0.45517 0.0
C1183 C 0.09029 0.51847 0.44114 0.0
C1184 C 0.07822 0.53123 0.44454 0.0
C1185 C 0.07834 0.53305 0.46175 0.0
C1186 C 0.09047 0.52126 0.46792 0.0
N1187 N 0.13424 0.50806 0.4456 0.0
C1188 C 0.1578 0.52989 0.42758 0.0
C1189 C 0.14695 0.53577 0.44089 0.0
C1190 C 0.1355 0.52472 0.44977 0.0
C1191 C 0.15701 0.51261 0.42401 0.0
C1192 C 0.14516 0.50201 0.43303 0.0
N1193 N 0.09642 0.47928 0.46629 0.0
C1194 C 0.06532 0.46961 0.46577 0.0
C1195 C 0.06789 0.46011 0.48039 0.0
C1196 C 0.08524 0.4605 0.48784 0.0
C1197 C 0.09932 0.47007 0.48055 0.0
C1198 C 0.07958 0.47901 0.45901 0.0
H1199 H 0.11252 0.47009 0.48646 0.0
H1200 H 0.07682 0.48624 0.44789 0.0
H1201 H 0.12729 0.52979 0.45979 0.0
H1202 H 0.14449 0.48896 0.42945 0.0
C1203 C 0.14975 0.48568 0.48067 0.0
C1204 C 0.09567 0.51953 0.48572 0.0
C1205 C 0.12136 0.45599 0.4347 0.0
C1206 C 0.09219 0.50984 0.42578 0.0
H1207 H 0.1193 0.52171 0.51489 0.0
H1208 H 0.14993 0.50443 0.51143 0.0
H1209 H 0.16935 0.45558 0.47255 0.0
H1210 H 0.15262 0.43858 0.44832 0.0
H1211 H 0.10425 0.45884 0.40188 0.0
H1212 H 0.08969 0.48895 0.39626 0.0
H1213 H 0.06971 0.53788 0.43568 0.0
H1214 H 0.07045 0.54199 0.46893 0.0
H1215 H 0.14722 0.54889 0.44443 0.0
H1216 H 0.16499 0.50736 0.41387 0.0
H1217 H 0.0522 0.47008 0.45964 0.0
H1218 H 0.08801 0.45331 0.49909 0.0
C1219 C 0.39815 0.50318 0.98954 0.0
C1220 C 0.38807 0.50049 1.00402 0.0
C1221 C 0.37208 0.50914 1.00205 0.0
C1222 C 0.37329 0.51663 0.98654 0.0
N1223 N 0.38905 0.51321 0.97871 0.0
Co1224 Co 0.39638 0.5215 0.95629 0.0
N1225 N 0.3788 0.54026 0.95739 0.0
C1226 C 0.3641 0.54097 0.96742 0.0
C1227 C 0.35423 0.55544 0.96525 0.0
C1228 C 0.36325 0.56431 0.95305 0.0
C1229 C 0.37822 0.55473 0.94847 0.0
N1230 N 0.40348 0.52982 0.93379 0.0
C1231 C 0.4008 0.54514 0.9267 0.0
C1232 C 0.40814 0.54561 0.91067 0.0
C1233 C 0.41545 0.52997 0.90768 0.0
C1234 C 0.41223 0.52081 0.92201 0.0
N1235 N 0.41398 0.50274 0.95545 0.0
C1236 C 0.4217 0.49651 0.94148 0.0
C1237 C 0.43365 0.48369 0.94497 0.0
C1238 C 0.43331 0.48181 0.96218 0.0
C1239 C 0.42117 0.49364 0.96825 0.0
N1240 N 0.37771 0.50694 0.94556 0.0
C1241 C 0.35426 0.4851 0.92743 0.0
C1242 C 0.36498 0.47925 0.94084 0.0
C1243 C 0.37637 0.4903 0.94978 0.0
C1244 C 0.35515 0.50236 0.9238 0.0
C1245 C 0.36693 0.51297 0.93288 0.0
N1246 N 0.41533 0.53573 0.96656 0.0
C1247 C 0.44644 0.54538 0.96642 0.0
C1248 C 0.44366 0.5549 0.98099 0.0
C1249 C 0.42619 0.55457 0.9882 0.0
C1250 C 0.41221 0.54499 0.98075 0.0
C1251 C 0.43227 0.53598 0.95949 0.0
H1252 H 0.39893 0.545 0.9865 0.0
H1253 H 0.43518 0.52872 0.94842 0.0
H1254 H 0.38447 0.48524 0.95988 0.0
H1255 H 0.36767 0.52601 0.92927 0.0
C1256 C 0.36186 0.52933 0.98046 0.0
C1257 C 0.41582 0.4954 0.98601 0.0
C1258 C 0.39062 0.55901 0.93465 0.0
C1259 C 0.42 0.50516 0.92613 0.0
H1260 H 0.39187 0.49311 0.01488 0.0
H1261 H 0.36129 0.51047 0.01118 0.0
H1262 H 0.34227 0.55936 0.97211 0.0
H1263 H 0.35917 0.57634 0.94798 0.0
H1264 H 0.40828 0.55612 0.90206 0.0
H1265 H 0.42291 0.52604 0.89665 0.0
H1266 H 0.44224 0.47701 0.93618 0.0
H1267 H 0.44108 0.47282 0.96941 0.0
H1268 H 0.36463 0.46614 0.94443 0.0
H1269 H 0.34727 0.5076 0.91358 0.0
H1270 H 0.45966 0.54486 0.96048 0.0
H1271 H 0.42324 0.56178 0.9994 0.0
C1272 C 0.71936 0.78781 0.88544 0.0
C1273 C 0.73674 0.78641 0.89205 0.0
C1274 C 0.73694 0.79574 0.90656 0.0
C1275 C 0.71972 0.80225 0.90802 0.0
N1276 N 0.70879 0.79754 0.89534 0.0
Co1277 Co 0.68306 0.80395 0.89252 0.0
N1278 N 0.68612 0.82387 0.90706 0.0
C1279 C 0.69941 0.82609 0.91845 0.0
C1280 C 0.69787 0.84104 0.92694 0.0
C1281 C 0.68261 0.84859 0.92053 0.0
C1282 C 0.67568 0.83779 0.90842 0.0
N1283 N 0.65724 0.81043 0.88992 0.0
C1284 C 0.64907 0.82545 0.89278 0.0
C1285 C 0.63063 0.82445 0.88933 0.0
C1286 C 0.62729 0.80818 0.8843 0.0
C1287 C 0.64381 0.80013 0.88492 0.0
N1288 N 0.68035 0.784 0.87793 0.0
C1289 C 0.66459 0.77646 0.87398 0.0
C1290 C 0.66704 0.76343 0.86285 0.0
C1291 C 0.68545 0.76284 0.85973 0.0
C1292 C 0.6933 0.77553 0.86919 0.0
N1293 N 0.6763 0.79022 0.91227 0.0
C1294 C 0.66163 0.76873 0.93709 0.0
C1295 C 0.67545 0.76323 0.92622 0.0
C1296 C 0.68255 0.7741 0.91394 0.0
C1297 C 0.65612 0.78556 0.93578 0.0
C1298 C 0.66369 0.79607 0.92349 0.0
N1299 N 0.68916 0.81728 0.87257 0.0
C1300 C 0.68224 0.82406 0.84379 0.0
C1301 C 0.69793 0.83385 0.84244 0.0
C1302 C 0.70908 0.8354 0.85672 0.0
C1303 C 0.70437 0.82712 0.87173 0.0
C1304 C 0.67818 0.81593 0.85879 0.0
H1305 H 0.71312 0.82839 0.88253 0.0
H1306 H 0.66626 0.80814 0.859 0.0
H1307 H 0.6926 0.76925 0.90534 0.0
H1308 H 0.65877 0.80879 0.92267 0.0
C1309 C 0.71448 0.81531 0.9188 0.0
C1310 C 0.71298 0.77909 0.87031 0.0
C1311 C 0.65837 0.8404 0.89959 0.0
C1312 C 0.64795 0.78426 0.87803 0.0
H1313 H 0.74805 0.77942 0.88691 0.0
H1314 H 0.74852 0.79816 0.91458 0.0
H1315 H 0.70705 0.84611 0.93627 0.0
H1316 H 0.67709 0.86055 0.92448 0.0
H1317 H 0.62068 0.83439 0.89033 0.0
H1318 H 0.61448 0.80308 0.88 0.0
H1319 H 0.65662 0.75589 0.85694 0.0
H1320 H 0.69221 0.75421 0.85131 0.0
H1321 H 0.68024 0.75038 0.9267 0.0
H1322 H 0.64582 0.79058 0.94409 0.0
H1323 H 0.67339 0.8221 0.83311 0.0
H1324 H 0.72135 0.8429 0.8563 0.0
C1325 C 0.52875 0.39846 0.1333 0.0
C1326 C 0.53953 0.38503 0.1283 0.0
C1327 C 0.5384 0.38415 0.11123 0.0
C1328 C 0.52684 0.39685 0.10672 0.0
N1329 N 0.52041 0.40573 0.11985 0.0
Co1330 Co 0.50259 0.42467 0.11844 0.0
N1331 N 0.49646 0.41945 0.09445 0.0
C1332 C 0.5057 0.40888 0.08437 0.0
C1333 C 0.49862 0.40764 0.06852 0.0
C1334 C 0.48412 0.41832 0.06839 0.0
C1335 C 0.48312 0.42552 0.08427 0.0
N1336 N 0.48512 0.44379 0.11698 0.0
C1337 C 0.47358 0.4485 0.10447 0.0
C1338 C 0.46473 0.46335 0.10852 0.0
C1339 C 0.4713 0.46836 0.1238 0.0
C1340 C 0.48366 0.45629 0.12831 0.0
N1341 N 0.50858 0.42937 0.14259 0.0
C1342 C 0.50447 0.44363 0.15087 0.0
C1343 C 0.51055 0.44374 0.16716 0.0
C1344 C 0.51921 0.42866 0.16932 0.0
C1345 C 0.51792 0.42011 0.15418 0.0
N1346 N 0.52185 0.4405 0.11113 0.0
C1347 C 0.53764 0.47238 0.10736 0.0
C1348 C 0.54314 0.46169 0.12043 0.0
C1349 C 0.53535 0.44558 0.12187 0.0
C1350 C 0.52651 0.46566 0.09487 0.0
C1351 C 0.5189 0.44983 0.09692 0.0
N1352 N 0.4826 0.40989 0.12565 0.0
C1353 C 0.45456 0.40774 0.14112 0.0
C1354 C 0.44895 0.39416 0.13128 0.0
C1355 C 0.4611 0.38786 0.11925 0.0
C1356 C 0.47803 0.3957 0.11688 0.0
C1357 C 0.47124 0.41542 0.13807 0.0
H1358 H 0.48698 0.39074 0.10741 0.0
H1359 H 0.4743 0.42649 0.14519 0.0
H1360 H 0.53919 0.43792 0.13245 0.0
H1361 H 0.50926 0.44623 0.08757 0.0
C1362 C 0.51981 0.39914 0.09067 0.0
C1363 C 0.52743 0.40415 0.15087 0.0
C1364 C 0.47162 0.44014 0.08805 0.0
C1365 C 0.49326 0.45572 0.14346 0.0
H1366 H 0.54733 0.3766 0.13613 0.0
H1367 H 0.54467 0.3749 0.10313 0.0
H1368 H 0.5034 0.39986 0.05829 0.0
H1369 H 0.47578 0.42098 0.05753 0.0
H1370 H 0.45484 0.47006 0.10103 0.0
H1371 H 0.46746 0.47945 0.13081 0.0
H1372 H 0.50868 0.4535 0.17645 0.0
H1373 H 0.52606 0.42459 0.18063 0.0
H1374 H 0.55234 0.46611 0.13008 0.0
H1375 H 0.52263 0.47308 0.08403 0.0
H1376 H 0.44564 0.41311 0.15052 0.0
H1377 H 0.45742 0.37718 0.11155 0.0
C1378 C 0.79279 0.22698 0.38494 0.0
C1379 C 0.77533 0.22858 0.39132 0.0
C1380 C 0.7748 0.21932 0.40586 0.0
C1381 C 0.79191 0.21266 0.40758 0.0
N1382 N 0.8031 0.2172 0.39502 0.0
Co1383 Co 0.82884 0.21062 0.39268 0.0
N1384 N 0.82535 0.19081 0.40729 0.0
C1385 C 0.81182 0.18872 0.41846 0.0
C1386 C 0.81308 0.17382 0.42705 0.0
C1387 C 0.82842 0.16614 0.42095 0.0
C1388 C 0.83567 0.17683 0.4089 0.0
N1389 N 0.85468 0.204 0.39064 0.0
C1390 C 0.8627 0.18896 0.39376 0.0
C1391 C 0.88121 0.18986 0.39066 0.0
C1392 C 0.88476 0.20607 0.38558 0.0
C1393 C 0.86828 0.2142 0.38583 0.0
N1394 N 0.83197 0.23041 0.37794 0.0
C1395 C 0.84786 0.23781 0.37417 0.0
C1396 C 0.84572 0.25077 0.36291 0.0
C1397 C 0.82737 0.25147 0.3595 0.0
C1398 C 0.81925 0.23891 0.36894 0.0
N1399 N 0.83526 0.2245 0.41242 0.0
C1400 C 0.84961 0.24632 0.43717 0.0
C1401 C 0.83639 0.25182 0.42567 0.0
C1402 C 0.82936 0.24077 0.41354 0.0
C1403 C 0.85463 0.2293 0.4365 0.0
C1404 C 0.84732 0.21867 0.42414 0.0
N1405 N 0.82305 0.1972 0.37268 0.0
C1406 C 0.83051 0.19041 0.34401 0.0
C1407 C 0.81438 0.18135 0.34214 0.0
C1408 C 0.80278 0.18005 0.35613 0.0
C1409 C 0.80748 0.18792 0.37137 0.0
C1410 C 0.8345 0.19822 0.35919 0.0
H1411 H 0.79836 0.18688 0.38194 0.0
H1412 H 0.8467 0.20562 0.35972 0.0
H1413 H 0.81961 0.2456 0.40464 0.0
H1414 H 0.85208 0.20587 0.42365 0.0
C1415 C 0.79684 0.19962 0.41851 0.0
C1416 C 0.7995 0.23557 0.36985 0.0
C1417 C 0.85314 0.17408 0.40042 0.0
C1418 C 0.86437 0.23 0.37865 0.0
H1419 H 0.76417 0.23565 0.386 0.0
H1420 H 0.76307 0.21705 0.41374 0.0
H1421 H 0.80369 0.16886 0.43625 0.0
H1422 H 0.83378 0.15417 0.42506 0.0
H1423 H 0.89109 0.17987 0.39189 0.0
H1424 H 0.89769 0.21107 0.38146 0.0
H1425 H 0.8563 0.25822 0.35712 0.0
H1426 H 0.82082 0.26011 0.35094 0.0
H1427 H 0.83163 0.26469 0.42585 0.0
H1428 H 0.86476 0.22431 0.445 0.0
H1429 H 0.83975 0.19212 0.33356 0.0
H1430 H 0.79017 0.17311 0.35528 0.0
C1431 C 0.9831 0.6166 0.63355 0.0
C1432 C 0.97294 0.63052 0.62882 0.0
C1433 C 0.97421 0.63176 0.61178 0.0
C1434 C 0.98523 0.61875 0.60702 0.0
N1435 N 0.9912 0.60934 0.61997 0.0
Co1436 Co 0.00807 0.5897 0.61818 0.0
N1437 N 0.01444 0.59515 0.5943 0.0
C1438 C 1.00578 0.60633 0.58444 0.0
C1439 C 0.01296 0.60761 0.56863 0.0
C1440 C 0.02692 0.59633 0.56829 0.0
C1441 C 0.02751 0.58877 0.58402 0.0
N1442 N 0.02453 0.56986 0.61628 0.0
C1443 C 0.0358 0.56492 0.60366 0.0
C1444 C 0.04385 0.54959 0.60735 0.0
C1445 C 0.03706 0.54455 0.62253 0.0
C1446 C 0.02537 0.55707 0.62734 0.0
N1447 N 1.00199 0.58483 0.64228 0.0
C1448 C 1.00556 0.57031 0.65033 0.0
C1449 C 0.99952 0.57015 0.66664 0.0
C1450 C 0.99145 0.58546 0.66905 0.0
C1451 C 0.99303 0.59419 0.65404 0.0
N1452 N 0.98805 0.57477 0.61061 0.0
C1453 C 0.9727 0.54278 0.60649 0.0
C1454 C 0.96751 0.553 0.62003 0.0
C1455 C 0.97501 0.56922 0.62161 0.0
C1456 C 0.98296 0.5501 0.59371 0.0
C1457 C 0.99031 0.56603 0.59592 0.0
N1458 N 0.02883 0.60345 0.62554 0.0
C1459 C 0.05801 0.60272 0.63914 0.0
C1460 C 0.06441 0.61567 0.62887 0.0
C1461 C 0.05191 0.6238 0.61832 0.0
C1462 C 0.03407 0.61757 0.61697 0.0
C1463 C 0.04031 0.59686 0.63732 0.0
H1464 H 0.025 0.62346 0.60813 0.0
H1465 H 0.03656 0.58607 0.64459 0.0
H1466 H 0.97145 0.57651 0.63253 0.0
H1467 H 0.99931 0.57012 0.58622 0.0
C1468 C 0.99216 0.61652 0.59094 0.0
C1469 C 0.98404 0.61046 0.65098 0.0
C1470 C 0.03842 0.57373 0.58757 0.0
C1471 C 0.01602 0.55784 0.64262 0.0
H1472 H 0.96544 0.63903 0.63682 0.0
H1473 H 0.96835 0.6414 0.60387 0.0
H1474 H 0.00862 0.61581 0.55856 0.0
H1475 H 0.03519 0.59356 0.55742 0.0
H1476 H 0.0534 0.54264 0.59971 0.0
H1477 H 0.04037 0.53317 0.62931 0.0
H1478 H 1.00097 0.56015 0.67575 0.0
H1479 H 0.98476 0.58957 0.68043 0.0
H1480 H 0.95889 0.54814 0.62991 0.0
H1481 H 0.98647 0.54307 0.58252 0.0
H1482 H 0.06697 0.59645 0.64793 0.0
H1483 H 0.05615 0.63411 0.61038 0.0
C1484 C 0.7189 0.22681 0.62918 0.0
C1485 C 0.73633 0.22838 0.62272 0.0
C1486 C 0.73677 0.21912 0.60817 0.0
C1487 C 0.71963 0.21249 0.60653 0.0
N1488 N 0.70852 0.21705 0.61914 0.0
Co1489 Co 0.68277 0.21054 0.62159 0.0
N1490 N 0.68612 0.19075 0.60693 0.0
C1491 C 0.69958 0.18865 0.59569 0.0
C1492 C 0.69823 0.17374 0.5871 0.0
C1493 C 0.68292 0.16609 0.59329 0.0
C1494 C 0.67578 0.17678 0.60539 0.0
N1495 N 0.65693 0.20398 0.62375 0.0
C1496 C 0.64887 0.18895 0.6207 0.0
C1497 C 0.63038 0.18986 0.62391 0.0
C1498 C 0.62689 0.20608 0.62899 0.0
C1499 C 0.64338 0.2142 0.62864 0.0
N1500 N 0.67977 0.23034 0.63635 0.0
C1501 C 0.66391 0.23777 0.64018 0.0
C1502 C 0.66614 0.25072 0.65144 0.0
C1503 C 0.6845 0.25139 0.65477 0.0
C1504 C 0.69255 0.23882 0.64528 0.0
N1505 N 0.67629 0.22445 0.60189 0.0
C1506 C 0.66193 0.24623 0.57712 0.0
C1507 C 0.67519 0.25174 0.58859 0.0
C1508 C 0.68223 0.2407 0.60072 0.0
C1509 C 0.65685 0.22923 0.57785 0.0
C1510 C 0.66417 0.21862 0.59022 0.0
N1511 N 0.68861 0.19706 0.64151 0.0
C1512 C 0.68127 0.19009 0.67015 0.0
C1513 C 0.69715 0.1806 0.67175 0.0
C1514 C 0.70859 0.17925 0.65765 0.0
C1515 C 0.70397 0.18746 0.64257 0.0
C1516 C 0.67733 0.19818 0.65511 0.0
H1517 H 0.71296 0.18636 0.63191 0.0
H1518 H 0.66529 0.2058 0.65474 0.0
H1519 H 0.69201 0.24552 0.60959 0.0
H1520 H 0.65937 0.20583 0.59075 0.0
C1521 C 0.7146 0.1995 0.5956 0.0
C1522 C 0.71229 0.23545 0.64428 0.0
C1523 C 0.65838 0.17406 0.61401 0.0
C1524 C 0.64736 0.22999 0.63579 0.0
H1525 H 0.74753 0.23544 0.62798 0.0
H1526 H 0.74844 0.21684 0.60023 0.0
H1527 H 0.70756 0.16876 0.57786 0.0
H1528 H 0.67752 0.15412 0.58923 0.0
H1529 H 0.62049 0.17988 0.62275 0.0
H1530 H 0.614 0.2111 0.63319 0.0
H1531 H 0.6556 0.25818 0.65727 0.0
H1532 H 0.69109 0.26 0.66332 0.0
H1533 H 0.67997 0.26459 0.58837 0.0
H1534 H 0.64668 0.22425 0.5694 0.0
H1535 H 0.67219 0.19187 0.6807 0.0
H1536 H 0.72101 0.17199 0.65827 0.0
C1537 C 0.98281 0.39716 0.88137 0.0
C1538 C 0.97263 0.3833 0.88622 0.0
C1539 C 0.97416 0.38204 0.90324 0.0
C1540 C 0.98535 0.39498 0.90786 0.0
N1541 N 0.99116 0.40438 0.89485 0.0
Co1542 Co 0.00824 0.42389 0.89642 0.0
N1543 N 0.01493 0.41842 0.92024 0.0
C1544 C 0.00645 0.40716 0.93015 0.0
C1545 C 0.01382 0.40586 0.94588 0.0
C1546 C 0.02768 0.41724 0.94614 0.0
C1547 C 0.02802 0.42489 0.93045 0.0
N1548 N 0.0249 0.44362 0.89808 0.0
C1549 C 0.0361 0.44871 0.91071 0.0
C1550 C 0.04418 0.46399 0.90689 0.0
C1551 C 0.03747 0.46888 0.89163 0.0
C1552 C 0.02578 0.45632 0.88691 0.0
N1553 N 1.00188 0.42876 0.87237 0.0
C1554 C 1.00553 0.4432 0.86421 0.0
C1555 C 0.99932 0.44335 0.84796 0.0
C1556 C 0.99105 0.42811 0.84569 0.0
C1557 C 0.99271 0.41943 0.86072 0.0
N1558 N 0.98844 0.43897 0.9042 0.0
C1559 C 0.97317 0.47095 0.90869 0.0
C1560 C 0.9679 0.46086 0.89508 0.0
C1561 C 0.97535 0.44465 0.89332 0.0
C1562 C 0.98348 0.46349 0.92136 0.0
C1563 C 0.99079 0.44757 0.91897 0.0
N1564 N 0.02871 0.40991 0.88878 0.0
C1565 C 0.05678 0.4089 0.87322 0.0
C1566 C 0.06271 0.39507 0.88254 0.0
C1567 C 0.05074 0.38809 0.89433 0.0
C1568 C 0.03364 0.39551 0.89702 0.0
C1569 C 0.03993 0.41612 0.87656 0.0
H1570 H 0.02483 0.39002 0.90631 0.0
H1571 H 0.03656 0.42735 0.86982 0.0
H1572 H 0.97167 0.43746 0.88237 0.0
H1573 H 0.99974 0.44333 0.92863 0.0
C1574 C 0.99264 0.39708 0.92383 0.0
C1575 C 0.98364 0.40322 0.8639 0.0
C1576 C 0.03847 0.44023 0.92699 0.0
C1577 C 0.01625 0.45557 0.87174 0.0
H1578 H 0.96498 0.37481 0.87832 0.0
H1579 H 0.96841 0.3724 0.91122 0.0
H1580 H 0.0096 0.39764 0.95598 0.0
H1581 H 0.03601 0.42006 0.95696 0.0
H1582 H 0.05364 0.47105 0.91453 0.0
H1583 H 0.04074 0.48023 0.8848 0.0
H1584 H 1.00078 0.45329 0.83879 0.0
H1585 H 0.9842 0.42402 0.83439 0.0
H1586 H 0.95922 0.46582 0.88528 0.0
H1587 H 0.987 0.47038 0.93263 0.0
H1588 H 0.06555 0.41478 0.86401 0.0
H1589 H 0.05466 0.37719 0.90162 0.0
C1590 C 0.7922 0.78711 0.12903 0.0
C1591 C 0.77473 0.78553 0.12264 0.0
C1592 C 0.77423 0.79476 0.10807 0.0
C1593 C 0.79136 0.80138 0.10635 0.0
N1594 N 0.80253 0.79685 0.11892 0.0
Co1595 Co 0.82829 0.8034 0.12126 0.0
N1596 N 0.82486 0.82316 0.10656 0.0
C1597 C 0.81134 0.82522 0.09538 0.0
C1598 C 0.81265 0.84007 0.0867 0.0
C1599 C 0.82801 0.84774 0.09276 0.0
C1600 C 0.83522 0.8371 0.10487 0.0
N1601 N 0.85414 0.80997 0.12331 0.0
C1602 C 0.86221 0.82498 0.12012 0.0
C1603 C 0.88071 0.82405 0.12328 0.0
C1604 C 0.88421 0.80786 0.12845 0.0
C1605 C 0.8677 0.79977 0.1282 0.0
N1606 N 0.83135 0.78363 0.13606 0.0
C1607 C 0.84723 0.77622 0.13987 0.0
C1608 C 0.84506 0.7633 0.15116 0.0
C1609 C 0.82671 0.76262 0.15455 0.0
C1610 C 0.81861 0.77516 0.14506 0.0
N1611 N 0.8347 0.78944 0.10157 0.0
C1612 C 0.84898 0.76759 0.07683 0.0
C1613 C 0.83577 0.76211 0.08835 0.0
C1614 C 0.82877 0.77318 0.10047 0.0
C1615 C 0.85404 0.78459 0.07748 0.0
C1616 C 0.84677 0.79524 0.08984 0.0
N1617 N 0.82251 0.81691 0.14117 0.0
C1618 C 0.82986 0.82384 0.16982 0.0
C1619 C 0.81389 0.83318 0.17149 0.0
C1620 C 0.80242 0.83452 0.15741 0.0
C1621 C 0.80708 0.82641 0.1423 0.0
C1622 C 0.83384 0.81584 0.15474 0.0
H1623 H 0.79805 0.82749 0.13166 0.0
H1624 H 0.84594 0.8083 0.15432 0.0
H1625 H 0.81902 0.76838 0.10938 0.0
H1626 H 0.85155 0.80804 0.09031 0.0
C1627 C 0.79633 0.81436 0.09537 0.0
C1628 C 0.79887 0.77851 0.14412 0.0
C1629 C 0.85273 0.83984 0.11332 0.0
C1630 C 0.86375 0.784 0.13541 0.0
H1631 H 0.76356 0.77848 0.12796 0.0
H1632 H 0.76252 0.79702 0.10017 0.0
H1633 H 0.80328 0.845 0.07746 0.0
H1634 H 0.83342 0.85966 0.08856 0.0
H1635 H 0.89062 0.83401 0.12203 0.0
H1636 H 0.89711 0.80285 0.13261 0.0
H1637 H 0.85563 0.75586 0.15698 0.0
H1638 H 0.82016 0.75403 0.16314 0.0
H1639 H 0.83099 0.74925 0.08819 0.0
H1640 H 0.86418 0.78955 0.06898 0.0
H1641 H 0.83898 0.82208 0.18034 0.0
H1642 H 0.78994 0.84168 0.15809 0.0
C1643 C 0.5289 0.61592 0.38131 0.0
C1644 C 0.53966 0.6294 0.38622 0.0
C1645 C 0.53857 0.63036 0.40329 0.0
C1646 C 0.52705 0.61767 0.4079 0.0
N1647 N 0.52062 0.60871 0.39482 0.0
Co1648 Co 0.50284 0.58975 0.39636 0.0
N1649 N 0.49668 0.59515 0.42029 0.0
C1650 C 0.5059 0.6058 0.43031 0.0
C1651 C 0.49876 0.60717 0.44613 0.0
C1652 C 0.48425 0.5965 0.44631 0.0
C1653 C 0.48331 0.58918 0.43048 0.0
N1654 N 0.48543 0.5706 0.39796 0.0
C1655 C 0.47391 0.56595 0.41051 0.0
C1656 C 0.46519 0.551 0.40662 0.0
C1657 C 0.4718 0.54587 0.39139 0.0
C1658 C 0.48407 0.55797 0.38676 0.0
N1659 N 0.50883 0.58489 0.37225 0.0
C1660 C 0.50476 0.57057 0.36407 0.0
C1661 C 0.5108 0.57038 0.34777 0.0
C1662 C 0.51939 0.58548 0.3455 0.0
C1663 C 0.51809 0.59412 0.36058 0.0
N1664 N 0.52212 0.57399 0.4038 0.0
C1665 C 0.53736 0.54191 0.40768 0.0
C1666 C 0.54294 0.5524 0.39448 0.0
C1667 C 0.53545 0.56864 0.393 0.0
C1668 C 0.52656 0.54892 0.42025 0.0
C1669 C 0.51923 0.56487 0.41815 0.0
N1670 N 0.48283 0.60444 0.38903 0.0
C1671 C 0.45479 0.60644 0.37355 0.0
C1672 C 0.4492 0.62013 0.38324 0.0
C1673 C 0.46135 0.62655 0.3952 0.0
C1674 C 0.47828 0.61873 0.39765 0.0
C1675 C 0.47146 0.59878 0.37668 0.0
H1676 H 0.48724 0.62378 0.40707 0.0
H1677 H 0.47451 0.58763 0.36968 0.0
H1678 H 0.5393 0.57614 0.38232 0.0
H1679 H 0.50979 0.56871 0.42759 0.0
C1680 C 0.52002 0.61548 0.42396 0.0
C1681 C 0.52752 0.61015 0.36377 0.0
C1682 C 0.4718 0.57455 0.42678 0.0
C1683 C 0.49364 0.55847 0.37158 0.0
H1684 H 0.5474 0.63782 0.37833 0.0
H1685 H 0.54483 0.63968 0.41133 0.0
H1686 H 0.5035 0.61504 0.45631 0.0
H1687 H 0.47585 0.59393 0.45714 0.0
H1688 H 0.45535 0.54431 0.41418 0.0
H1689 H 0.46804 0.53468 0.3845 0.0
H1690 H 0.50897 0.56054 0.33854 0.0
H1691 H 0.5262 0.58951 0.33415 0.0
H1692 H 0.55192 0.54775 0.38477 0.0
H1693 H 0.52266 0.54165 0.43118 0.0
H1694 H 0.44586 0.60098 0.36421 0.0
H1695 H 0.45768 0.63732 0.40279 0.0
C1696 C 0.86376 0.73974 0.75205 0.0
C1697 C 0.87372 0.7543 0.74937 0.0
C1698 C 0.8897 0.75247 0.75807 0.0
C1699 C 0.8886 0.73697 0.76558 0.0
N1700 N 0.87292 0.72901 0.76215 0.0
Co1701 Co 0.86573 0.70658 0.7705 0.0
N1702 N 0.88326 0.70787 0.78929 0.0
C1703 C 0.89786 0.71801 0.79001 0.0
C1704 C 0.90768 0.71598 0.80454 0.0
C1705 C 0.89872 0.70375 0.81342 0.0
C1706 C 0.88385 0.69901 0.80379 0.0
N1707 N 0.8588 0.68406 0.77887 0.0
C1708 C 0.8615 0.67705 0.79422 0.0
C1709 C 0.85435 0.66094 0.79473 0.0
C1710 C 0.84712 0.65783 0.77908 0.0
C1711 C 0.85019 0.67218 0.76988 0.0
N1712 N 0.84817 0.70556 0.75172 0.0
C1713 C 0.84057 0.69152 0.74553 0.0
C1714 C 0.82858 0.6949 0.7327 0.0
C1715 C 0.82878 0.7121 0.73078 0.0
C1716 C 0.84087 0.71829 0.7426 0.0
N1717 N 0.8845 0.69593 0.75602 0.0
C1718 C 0.90811 0.6778 0.73434 0.0
C1719 C 0.89727 0.69106 0.72836 0.0
C1720 C 0.8858 0.70001 0.73934 0.0
C1721 C 0.90726 0.67431 0.75163 0.0
C1722 C 0.89539 0.68337 0.76215 0.0
N1723 N 0.84667 0.71676 0.78466 0.0
C1724 C 0.81558 0.71627 0.79436 0.0
C1725 C 0.8182 0.73085 0.80391 0.0
C1726 C 0.83556 0.73828 0.80351 0.0
C1727 C 0.84961 0.731 0.7939 0.0
C1728 C 0.82981 0.70952 0.78492 0.0
H1729 H 0.86282 0.73688 0.79389 0.0
H1730 H 0.82703 0.69841 0.77767 0.0
H1731 H 0.87761 0.71001 0.7342 0.0
H1732 H 0.89468 0.67986 0.77522 0.0
C1733 C 0.90004 0.73103 0.77833 0.0
C1734 C 0.84612 0.73608 0.74428 0.0
C1735 C 0.87153 0.68514 0.80808 0.0
C1736 C 0.8424 0.67619 0.75421 0.0
H1737 H 0.86985 0.76514 0.74199 0.0
H1738 H 0.9004 0.76169 0.75942 0.0
H1739 H 0.91955 0.72295 0.80849 0.0
H1740 H 0.90277 0.69878 0.8255 0.0
H1741 H 0.85433 0.65237 0.80527 0.0
H1742 H 0.83979 0.64673 0.77516 0.0
H1743 H 0.82008 0.68603 0.72604 0.0
H1744 H 0.82096 0.71927 0.72177 0.0
H1745 H 0.89759 0.69453 0.71521 0.0
H1746 H 0.91524 0.6642 0.75696 0.0
H1747 H 0.80244 0.71017 0.79388 0.0
H1748 H 0.83836 0.7495 0.81074 0.0
C1749 C 0.54301 0.63629 0.03743 0.0
C1750 C 0.52567 0.64299 0.03594 0.0
C1751 C 0.52551 0.65753 0.04522 0.0
C1752 C 0.5427 0.65893 0.05178 0.0
N1753 N 0.55359 0.64619 0.04716 0.0
Co1754 Co 0.57932 0.64335 0.05364 0.0
N1755 N 0.57626 0.65799 0.07349 0.0
C1756 C 0.56302 0.66946 0.07557 0.0
C1757 C 0.56462 0.67817 0.09037 0.0
C1758 C 0.57988 0.67184 0.09798 0.0
C1759 C 0.58674 0.65951 0.08738 0.0
N1760 N 0.60513 0.64072 0.06018 0.0
C1761 C 0.6133 0.64361 0.07521 0.0
C1762 C 0.63168 0.63986 0.07427 0.0
C1763 C 0.63501 0.63473 0.05804 0.0
C1764 C 0.61854 0.63554 0.04994 0.0
N1765 N 0.582 0.62866 0.03374 0.0
C1766 C 0.59777 0.62461 0.02626 0.0
C1767 C 0.59533 0.61344 0.01328 0.0
C1768 C 0.57692 0.61038 0.01263 0.0
C1769 C 0.56905 0.61994 0.02524 0.0
N1770 N 0.58615 0.66302 0.03983 0.0
C1771 C 0.60086 0.68775 0.01825 0.0
C1772 C 0.58702 0.67689 0.01279 0.0
C1773 C 0.57991 0.66465 0.0237 0.0
C1774 C 0.60638 0.68648 0.03508 0.0
C1775 C 0.59879 0.67423 0.04563 0.0
N1776 N 0.57313 0.62347 0.06703 0.0
C1777 C 0.57997 0.59471 0.07393 0.0
C1778 C 0.56426 0.59342 0.0837 0.0
C1779 C 0.55313 0.60773 0.08517 0.0
C1780 C 0.55791 0.6227 0.07685 0.0
C1781 C 0.58409 0.60966 0.06576 0.0
H1782 H 0.54917 0.63353 0.07806 0.0
H1783 H 0.59602 0.6098 0.05799 0.0
H1784 H 0.56984 0.65606 0.01887 0.0
H1785 H 0.60372 0.67344 0.05836 0.0
C1786 C 0.54798 0.66978 0.06476 0.0
C1787 C 0.54935 0.62115 0.0287 0.0
C1788 C 0.60408 0.65074 0.09009 0.0
C1789 C 0.61439 0.6286 0.0341 0.0
H1790 H 0.51436 0.6379 0.02891 0.0
H1791 H 0.51397 0.66563 0.04756 0.0
H1792 H 0.55552 0.68764 0.09529 0.0
H1793 H 0.58546 0.67603 0.10984 0.0
H1794 H 0.64164 0.64067 0.08422 0.0
H1795 H 0.64776 0.63021 0.053 0.0
H1796 H 0.60576 0.60745 1.0058 0.0
H1797 H 0.57017 0.60193 1.00402 0.0
H1798 H 0.58223 0.67734 0.99994 0.0
H1799 H 0.6167 0.69478 0.04007 0.0
H1800 H 0.5888 0.58399 0.07203 0.0
H1801 H 0.54084 0.60735 0.09264 0.0
C1802 C 0.64996 0.27592 0.25092 0.0
C1803 C 0.63978 0.26178 0.24697 0.0
C1804 C 0.62341 0.26349 0.25507 0.0
C1805 C 0.62445 0.27858 0.26338 0.0
N1806 N 0.64043 0.28639 0.26097 0.0
Co1807 Co 0.64723 0.3086 0.27 0.0
N1808 N 0.62905 0.30684 0.28819 0.0
C1809 C 0.6144 0.29675 0.28816 0.0
C1810 C 0.60406 0.29841 0.30242 0.0
C1811 C 0.61274 0.31035 0.31193 0.0
C1812 C 0.62796 0.31531 0.3029 0.0
N1813 N 0.65371 0.33096 0.27906 0.0
C1814 C 0.65044 0.33761 0.29447 0.0
C1815 C 0.6575 0.35372 0.29555 0.0
C1816 C 0.66527 0.3572 0.28021 0.0
C1817 C 0.66258 0.34306 0.27061 0.0
N1818 N 0.66549 0.31001 0.2518 0.0
C1819 C 0.6735 0.32417 0.24636 0.0
C1820 C 0.68673 0.32099 0.23459 0.0
C1821 C 0.68692 0.30381 0.23256 0.0
C1822 C 0.6736 0.29737 0.24308 0.0
N1823 N 0.62891 0.31947 0.25517 0.0
C1824 C 0.6055 0.33751 0.23322 0.0
C1825 C 0.61685 0.32459 0.22729 0.0
C1826 C 0.62822 0.31569 0.23839 0.0
C1827 C 0.60582 0.34075 0.25057 0.0
C1828 C 0.6176 0.33173 0.26124 0.0
N1829 N 0.66584 0.29819 0.28451 0.0
C1830 C 0.69664 0.29851 0.29495 0.0
C1831 C 0.69393 0.2835 0.30378 0.0
C1832 C 0.67664 0.27599 0.30272 0.0
C1833 C 0.66277 0.28358 0.29311 0.0
C1834 C 0.6826 0.30555 0.2855 0.0
H1835 H 0.64961 0.27759 0.29252 0.0
H1836 H 0.6855 0.31695 0.27877 0.0
H1837 H 0.63679 0.30595 0.23328 0.0
H1838 H 0.61785 0.33502 0.27438 0.0
C1839 C 0.61252 0.28417 0.27593 0.0
C1840 C 0.6682 0.27947 0.24428 0.0
C1841 C 0.64006 0.32912 0.30786 0.0
C1842 C 0.67115 0.33932 0.25524 0.0
H1843 H 0.64376 0.25133 0.2391 0.0
H1844 H 0.61244 0.25445 0.25546 0.0
H1845 H 0.59199 0.2914 0.30577 0.0
H1846 H 0.60824 0.31503 0.32399 0.0
H1847 H 0.65717 0.36204 0.30629 0.0
H1848 H 0.67276 0.36838 0.27679 0.0
H1849 H 0.69597 0.32994 0.22896 0.0
H1850 H 0.6961 0.29696 0.2245 0.0
H1851 H 0.61698 0.32133 0.21409 0.0
H1852 H 0.59746 0.3506 0.25587 0.0
H1853 H 0.70973 0.3047 0.29498 0.0
H1854 H 0.67375 0.26444 0.30939 0.0
C1855 C 0.96935 0.37875 0.53755 0.0
C1856 C 0.98682 0.37235 0.53608 0.0
C1857 C 0.98726 0.35781 0.54536 0.0
C1858 C 0.97008 0.35611 0.55189 0.0
N1859 N 0.95895 0.36868 0.54726 0.0
Co1860 Co 0.93316 0.37107 0.55367 0.0
N1861 N 0.93646 0.35648 0.57352 0.0
C1862 C 0.94996 0.34529 0.5757 0.0
C1863 C 0.94856 0.3367 0.5906 0.0
C1864 C 0.93317 0.34283 0.59817 0.0
C1865 C 0.92603 0.35489 0.58743 0.0
N1866 N 0.90728 0.37317 0.5601 0.0
C1867 C 0.89912 0.37009 0.57509 0.0
C1868 C 0.88063 0.37325 0.57407 0.0
C1869 C 0.87723 0.37833 0.55782 0.0
C1870 C 0.89377 0.37802 0.54981 0.0
N1871 N 0.93023 0.38579 0.53383 0.0
C1872 C 0.9144 0.38958 0.52631 0.0
C1873 C 0.91667 0.40082 0.51336 0.0
C1874 C 0.93503 0.4042 0.51278 0.0
C1875 C 0.94303 0.39476 0.52541 0.0
N1876 N 0.92679 0.35131 0.53978 0.0
C1877 C 0.91261 0.32635 0.51811 0.0
C1878 C 0.92574 0.33791 0.51253 0.0
C1879 C 0.93271 0.35013 0.52352 0.0
C1880 C 0.90754 0.32713 0.5351 0.0
C1881 C 0.91475 0.33959 0.54566 0.0
N1882 N 0.93887 0.39105 0.56712 0.0
C1883 C 0.93128 0.41963 0.57412 0.0
C1884 C 0.94713 0.42132 0.58364 0.0
C1885 C 0.9587 0.40732 0.58496 0.0
C1886 C 0.95422 0.39221 0.57674 0.0
C1887 C 0.92749 0.40458 0.56599 0.0
H1888 H 0.96329 0.38161 0.57784 0.0
H1889 H 0.91548 0.40415 0.55834 0.0
H1890 H 0.94243 0.35904 0.51866 0.0
H1891 H 0.90995 0.34014 0.55844 0.0
C1892 C 0.96502 0.34521 0.56491 0.0
C1893 C 0.96274 0.39383 0.5289 0.0
C1894 C 0.90853 0.36339 0.59004 0.0
C1895 C 0.89783 0.38516 0.53402 0.0
H1896 H 0.99805 0.37766 0.5291 0.0
H1897 H 0.99895 0.34993 0.54773 0.0
H1898 H 0.95789 0.32748 0.59563 0.0
H1899 H 0.92771 0.33872 0.6101 0.0
H1900 H 0.87067 0.37208 0.58399 0.0
H1901 H 0.86436 0.38249 0.55273 0.0
H1902 H 0.90616 0.40662 0.50583 0.0
H1903 H 0.94167 0.41275 0.50419 0.0
H1904 H 0.93051 0.33767 0.49967 0.0
H1905 H 0.89745 0.31862 0.54013 0.0
H1906 H 0.9221 0.43012 0.57238 0.0
H1907 H 0.97111 0.40804 0.59223 0.0
C1908 C 0.86326 0.27449 0.76205 0.0
C1909 C 0.8732 0.25993 0.76477 0.0
C1910 C 0.88927 0.26181 0.75623 0.0
C1911 C 0.88824 0.27733 0.74876 0.0
N1912 N 0.87252 0.28526 0.75208 0.0
Co1913 Co 0.86538 0.3077 0.74372 0.0
N1914 N 0.88305 0.30646 0.72504 0.0
C1915 C 0.89767 0.29634 0.72441 0.0
C1916 C 0.90763 0.29841 0.70998 0.0
C1917 C 0.89874 0.31065 0.70105 0.0
C1918 C 0.88376 0.31535 0.71056 0.0
N1919 N 0.85849 0.33023 0.73533 0.0
C1920 C 0.86132 0.33729 0.72002 0.0
C1921 C 0.85414 0.35338 0.7195 0.0
C1922 C 0.84676 0.35644 0.7351 0.0
C1923 C 0.84978 0.34208 0.74429 0.0
N1924 N 0.84767 0.30868 0.76238 0.0
C1925 C 0.84001 0.32269 0.76855 0.0
C1926 C 0.82791 0.31927 0.78128 0.0
C1927 C 0.82809 0.30206 0.78314 0.0
C1928 C 0.84029 0.29591 0.77139 0.0
N1929 N 0.88403 0.31835 0.75834 0.0
C1930 C 0.90758 0.33636 0.78019 0.0
C1931 C 0.89667 0.3231 0.78607 0.0
C1932 C 0.88523 0.31421 0.77501 0.0
C1933 C 0.9068 0.33992 0.76291 0.0
C1934 C 0.89497 0.33091 0.7523 0.0
N1935 N 0.84644 0.29752 0.72943 0.0
C1936 C 0.81534 0.2978 0.71973 0.0
C1937 C 0.81802 0.28313 0.71034 0.0
C1938 C 0.83544 0.27581 0.71074 0.0
C1939 C 0.84946 0.28324 0.72028 0.0
C1940 C 0.82955 0.30471 0.72909 0.0
H1941 H 0.8627 0.27741 0.72034 0.0
H1942 H 0.82671 0.31585 0.73626 0.0
H1943 H 0.877 0.30421 0.78008 0.0
H1944 H 0.89434 0.33447 0.73924 0.0
C1945 C 0.89978 0.28331 0.73609 0.0
C1946 C 0.84552 0.27812 0.76967 0.0
C1947 C 0.8715 0.32925 0.70621 0.0
C1948 C 0.84189 0.33804 0.7599 0.0
H1949 H 0.86926 0.24907 0.77207 0.0
H1950 H 0.89999 0.25259 0.75493 0.0
H1951 H 0.91956 0.29147 0.70611 0.0
H1952 H 0.90291 0.31566 0.68902 0.0
H1953 H 0.85417 0.36198 0.70899 0.0
H1954 H 0.83938 0.36753 0.73899 0.0
H1955 H 0.81933 0.32812 0.78788 0.0
H1956 H 0.82018 0.29487 0.79205 0.0
H1957 H 0.89692 0.31957 0.7992 0.0
H1958 H 0.91483 0.35003 0.75765 0.0
H1959 H 0.80217 0.30383 0.72019 0.0
H1960 H 0.83831 0.26454 0.70362 0.0
C1961 C 0.96893 0.63519 0.9769 0.0
C1962 C 0.9864 0.64156 0.97846 0.0
C1963 C 0.98692 0.6561 0.96917 0.0
C1964 C 0.96979 0.65782 0.96255 0.0
N1965 N 0.95861 0.64527 0.96713 0.0
Co1966 Co 0.93287 0.64289 0.96057 0.0
N1967 N 0.93633 0.65745 0.94073 0.0
C1968 C 0.94984 0.66863 0.93861 0.0
C1969 C 0.94856 0.67718 0.92368 0.0
C1970 C 0.93323 0.67103 0.91602 0.0
C1971 C 0.926 0.65901 0.92675 0.0
N1972 N 0.90703 0.6408 0.95399 0.0
C1973 C 0.899 0.64385 0.93894 0.0
C1974 C 0.88049 0.64072 0.93986 0.0
C1975 C 0.87696 0.63569 0.95609 0.0
C1976 C 0.89345 0.63599 0.96421 0.0
N1977 N 0.92978 0.62819 0.98041 0.0
C1978 C 0.91391 0.62442 0.98783 0.0
C1979 C 0.91608 0.61319 1.00081 0.0
C1980 C 0.93443 0.60979 1.00149 0.0
C1981 C 0.94252 0.61921 0.98889 0.0
N1982 N 0.92643 0.66265 0.9744 0.0
C1983 C 0.91215 0.68761 0.99601 0.0
C1984 C 0.92526 0.67607 1.00164 0.0
C1985 C 0.93228 0.66384 0.99068 0.0
C1986 C 0.90716 0.68684 0.97899 0.0
C1987 C 0.91443 0.67438 0.96847 0.0
N1988 N 0.93867 0.62289 0.94718 0.0
C1989 C 0.93116 0.59428 0.94024 0.0
C1990 C 0.94715 0.59253 0.93094 0.0
C1991 C 0.95874 0.60652 0.92967 0.0
C1992 C 0.95414 0.62168 0.93775 0.0
C1993 C 0.92726 0.60938 0.94824 0.0
H1994 H 0.96323 0.63227 0.93669 0.0
H1995 H 0.91515 0.60985 0.95575 0.0
H1996 H 0.94197 0.65493 0.99559 0.0
H1997 H 0.9097 0.67382 0.95566 0.0
C1998 C 0.96483 0.66872 0.94949 0.0
C1999 C 0.96225 0.62011 0.9855 0.0
C2000 C 0.90854 0.65048 0.92404 0.0
C2001 C 0.89738 0.62886 0.98003 0.0
H2002 H 0.99758 0.63624 0.98549 0.0
H2003 H 0.99865 0.66397 0.96686 0.0
H2004 H 0.95794 0.68637 0.91868 0.0
H2005 H 0.92786 0.67509 0.90404 0.0
H2006 H 0.87061 0.6419 0.92987 0.0
H2007 H 0.86405 0.63156 0.9611 0.0
H2008 H 0.90551 0.60741 0.00829 0.0
H2009 H 0.94101 0.60125 0.01012 0.0
H2010 H 0.92997 0.67631 0.01452 0.0
H2011 H 0.89709 0.69534 0.97392 0.0
H2012 H 0.92195 0.58381 0.94193 0.0
H2013 H 0.97126 0.60575 0.92257 0.0
C2014 C 0.64909 0.73885 0.26275 0.0
C2015 C 0.63923 0.75338 0.26583 0.0
C2016 C 0.62298 0.75161 0.25753 0.0
C2017 C 0.62382 0.73615 0.24988 0.0
N2018 N 0.63959 0.72818 0.25289 0.0
Co2019 Co 0.64655 0.70581 0.24427 0.0
N2020 N 0.62866 0.70728 0.22582 0.0
C2021 C 0.61402 0.71738 0.22546 0.0
C2022 C 0.60392 0.71546 0.21109 0.0
C2023 C 0.61275 0.70335 0.20192 0.0
C2024 C 0.62783 0.69857 0.21124 0.0
N2025 N 0.65327 0.68335 0.23562 0.0
C2026 C 0.65038 0.67654 0.22021 0.0
C2027 C 0.65758 0.66046 0.21941 0.0
C2028 C 0.66504 0.65717 0.23493 0.0
C2029 C 0.66205 0.67139 0.24436 0.0
N2030 N 0.66447 0.70461 0.26274 0.0
C2031 C 0.67217 0.69053 0.26871 0.0
C2032 C 0.68453 0.69385 0.28126 0.0
C2033 C 0.68447 0.71106 0.2832 0.0
C2034 C 0.67207 0.71731 0.27169 0.0
N2035 N 0.62804 0.6951 0.25899 0.0
C2036 C 0.60466 0.67706 0.28097 0.0
C2037 C 0.61568 0.69025 0.28681 0.0
C2038 C 0.62703 0.69915 0.27569 0.0
C2039 C 0.60522 0.67358 0.26366 0.0
C2040 C 0.61698 0.6826 0.25299 0.0
N2041 N 0.66536 0.71607 0.22988 0.0
C2042 C 0.69635 0.71581 0.2199 0.0
C2043 C 0.69361 0.73059 0.21068 0.0
C2044 C 0.67622 0.73794 0.21132 0.0
C2045 C 0.66228 0.73045 0.2209 0.0
C2046 C 0.68222 0.70884 0.22931 0.0
H2047 H 0.64906 0.73631 0.22115 0.0
H2048 H 0.68511 0.69762 0.23635 0.0
H2049 H 0.63536 0.7091 0.28074 0.0
H2050 H 0.61746 0.67911 0.2399 0.0
C2051 C 0.61207 0.73031 0.23731 0.0
C2052 C 0.66697 0.73512 0.26996 0.0
C2053 C 0.64018 0.68485 0.20658 0.0
C2054 C 0.67015 0.67526 0.25994 0.0
H2055 H 0.64337 0.76412 0.27322 0.0
H2056 H 0.61226 0.76085 0.25652 0.0
H2057 H 0.59195 0.72245 0.2074 0.0
H2058 H 0.60849 0.69848 0.18986 0.0
H2059 H 0.65754 0.65204 0.20875 0.0
H2060 H 0.6725 0.64605 0.2386 0.0
H2061 H 0.69322 0.68495 0.28766 0.0
H2062 H 0.69263 0.71819 0.29198 0.0
H2063 H 0.61559 0.69371 0.29996 0.0
H2064 H 0.5971 0.66353 0.25843 0.0
H2065 H 0.70951 0.70975 0.22018 0.0
H2066 H 0.67331 0.7493 0.20434 0.0
C2067 C 0.54183 0.37828 0.47681 0.0
C2068 C 0.52436 0.37191 0.47837 0.0
C2069 C 0.52385 0.35734 0.46913 0.0
C2070 C 0.54099 0.35561 0.46253 0.0
N2071 N 0.55216 0.36817 0.46708 0.0
Co2072 Co 0.57791 0.37053 0.46055 0.0
N2073 N 0.57448 0.35589 0.44076 0.0
C2074 C 0.56097 0.34469 0.43866 0.0
C2075 C 0.56227 0.33611 0.42376 0.0
C2076 C 0.5776 0.34224 0.41609 0.0
C2077 C 0.58481 0.3543 0.42679 0.0
N2078 N 0.60375 0.3726 0.45398 0.0
C2079 C 0.61179 0.36951 0.43894 0.0
C2080 C 0.6303 0.37265 0.43985 0.0
C2081 C 0.63382 0.37773 0.45607 0.0
C2082 C 0.61733 0.37745 0.46419 0.0
N2083 N 0.58098 0.3853 0.48033 0.0
C2084 C 0.59685 0.38908 0.48776 0.0
C2085 C 0.59466 0.40035 0.5007 0.0
C2086 C 0.57631 0.40375 0.50136 0.0
C2087 C 0.56823 0.3943 0.48879 0.0
N2088 N 0.58433 0.35081 0.47445 0.0
C2089 C 0.59861 0.32593 0.49614 0.0
C2090 C 0.58549 0.33749 0.50173 0.0
C2091 C 0.57848 0.34968 0.49073 0.0
C2092 C 0.60361 0.32665 0.47913 0.0
C2093 C 0.59634 0.33907 0.46856 0.0
N2094 N 0.57214 0.39047 0.44706 0.0
C2095 C 0.57967 0.41903 0.43997 0.0
C2096 C 0.56382 0.42067 0.43045 0.0
C2097 C 0.55227 0.40664 0.42917 0.0
C2098 C 0.55678 0.39157 0.43745 0.0
C2099 C 0.5835 0.40401 0.44814 0.0
H2100 H 0.54773 0.38095 0.43639 0.0
H2101 H 0.59553 0.40361 0.45577 0.0
H2102 H 0.56877 0.3586 0.4956 0.0
H2103 H 0.60108 0.33959 0.45576 0.0
C2104 C 0.54596 0.34465 0.44952 0.0
C2105 C 0.5485 0.39338 0.48539 0.0
C2106 C 0.60226 0.36284 0.42406 0.0
C2107 C 0.61338 0.38463 0.47998 0.0
H2108 H 0.51317 0.37724 0.4854 0.0
H2109 H 0.51213 0.34946 0.46684 0.0
H2110 H 0.55289 0.3269 0.41877 0.0
H2111 H 0.58298 0.33815 0.40412 0.0
H2112 H 0.64018 0.37144 0.42987 0.0
H2113 H 0.64673 0.38188 0.46108 0.0
H2114 H 0.60522 0.40616 0.50817 0.0
H2115 H 0.56973 0.41232 0.50996 0.0
H2116 H 0.58078 0.33729 0.51461 0.0
H2117 H 0.61368 0.31813 0.47409 0.0
H2118 H 0.58883 0.42954 0.44169 0.0
H2119 H 0.53986 0.40731 0.4219 0.0
C2120 C 0.73326 0.88339 0.64738 0.0
C2121 C 0.72231 0.87843 0.63405 0.0
C2122 C 0.72319 0.86134 0.63328 0.0
C2123 C 0.73478 0.85676 0.64593 0.0
N2124 N 0.74146 0.86988 0.65468 0.0
Co2125 Co 0.75944 0.86838 0.67346 0.0
N2126 N 0.76527 0.84433 0.66829 0.0
C2127 C 0.75578 0.83427 0.65789 0.0
C2128 C 0.76272 0.81837 0.65663 0.0
C2129 C 0.7774 0.81819 0.6671 0.0
C2130 C 0.77864 0.8341 0.6742 0.0
N2131 N 0.77709 0.86685 0.69243 0.0
C2132 C 0.78862 0.85428 0.69704 0.0
C2133 C 0.79761 0.85827 0.71183 0.0
C2134 C 0.79117 0.87359 0.7169 0.0
C2135 C 0.77873 0.87816 0.70492 0.0
N2136 N 0.75374 0.89259 0.67814 0.0
C2137 C 0.75802 0.90086 0.69236 0.0
C2138 C 0.75211 0.91721 0.69246 0.0
C2139 C 0.74338 0.91941 0.67741 0.0
C2140 C 0.74448 0.90424 0.66889 0.0
N2141 N 0.74028 0.86129 0.68949 0.0
C2142 C 0.72452 0.85767 0.7214 0.0
C2143 C 0.71905 0.87073 0.71068 0.0
C2144 C 0.72684 0.8721 0.69455 0.0
C2145 C 0.73564 0.84515 0.71474 0.0
C2146 C 0.74325 0.84713 0.69889 0.0
N2147 N 0.77936 0.87536 0.65849 0.0
C2148 C 0.80755 0.89056 0.65608 0.0
C2149 C 0.81297 0.88056 0.64255 0.0
C2150 C 0.80066 0.8686 0.6364 0.0
C2151 C 0.78374 0.86645 0.64434 0.0
C2152 C 0.79089 0.88772 0.66387 0.0
H2153 H 0.77465 0.85703 0.6395 0.0
H2154 H 0.78798 0.89494 0.67491 0.0
H2155 H 0.72304 0.88268 0.68687 0.0
H2156 H 0.7529 0.83778 0.69533 0.0
C2157 C 0.74163 0.84066 0.64826 0.0
C2158 C 0.73486 0.90097 0.65297 0.0
C2159 C 0.79045 0.8379 0.6886 0.0
C2160 C 0.76925 0.89339 0.70439 0.0
H2161 H 0.71458 0.88629 0.6256 0.0
H2162 H 0.71674 0.85325 0.62412 0.0
H2163 H 0.75776 0.80814 0.64894 0.0
H2164 H 0.78574 0.80731 0.66968 0.0
H2165 H 0.80751 0.85073 0.71846 0.0
H2166 H 0.79515 0.88057 0.72796 0.0
H2167 H 0.75413 0.92651 0.70219 0.0
H2168 H 0.73663 0.93077 0.67335 0.0
H2169 H 0.70988 0.88041 0.71507 0.0
H2170 H 0.73951 0.83435 0.7222 0.0
H2171 H 0.8166 0.89993 0.66132 0.0
H2172 H 0.80419 0.86078 0.62576 0.0
C2173 C 0.23424 0.62975 0.36667 0.0
C2174 C 0.22405 0.63443 0.38059 0.0
C2175 C 0.22515 0.65149 0.38178 0.0
C2176 C 0.23612 0.65631 0.36875 0.0
N2177 N 0.24223 0.64338 0.35939 0.0
Co2178 Co 0.25911 0.64526 0.33977 0.0
N2179 N 0.26528 0.66919 0.34519 0.0
C2180 C 0.25643 0.67903 0.35625 0.0
C2181 C 0.26351 0.69488 0.35755 0.0
C2182 C 0.27762 0.69525 0.34643 0.0
C2183 C 0.2784 0.67949 0.33894 0.0
N2184 N 0.27563 0.64724 0.31999 0.0
C2185 C 0.28705 0.65982 0.31522 0.0
C2186 C 0.29527 0.65612 0.29997 0.0
C2187 C 0.28844 0.64098 0.29482 0.0
C2188 C 0.27655 0.6362 0.30719 0.0
N2189 N 0.25312 0.62116 0.33486 0.0
C2190 C 0.25664 0.6132 0.32029 0.0
C2191 C 0.25065 0.59688 0.32007 0.0
C2192 C 0.24264 0.59438 0.3354 0.0
C2193 C 0.24422 0.60935 0.3442 0.0
N2194 N 0.23904 0.65272 0.3249 0.0
C2195 C 0.21941 0.65843 0.29514 0.0
C2196 C 0.21563 0.64442 0.30523 0.0
C2197 C 0.22518 0.64211 0.3204 0.0
C2198 C 0.23169 0.67031 0.30117 0.0
C2199 C 0.24132 0.66722 0.31586 0.0
N2200 N 0.27988 0.638 0.35355 0.0
C2201 C 0.30909 0.62443 0.35295 0.0
C2202 C 0.31542 0.63473 0.36593 0.0
C2203 C 0.30286 0.64529 0.37396 0.0
C2204 C 0.28505 0.64662 0.36765 0.0
C2205 C 0.29141 0.62622 0.34702 0.0
H2206 H 0.27595 0.65547 0.37347 0.0
H2207 H 0.2877 0.61893 0.33622 0.0
H2208 H 0.2221 0.63115 0.32781 0.0
H2209 H 0.2517 0.67614 0.31876 0.0
C2210 C 0.24285 0.67246 0.36643 0.0
C2211 C 0.23524 0.61233 0.3605 0.0
C2212 C 0.28956 0.67591 0.32405 0.0
C2213 C 0.26715 0.62094 0.30787 0.0
H2214 H 0.21662 0.62641 0.38912 0.0
H2215 H 0.21921 0.65939 0.39139 0.0
H2216 H 0.25904 0.70494 0.3657 0.0
H2217 H 0.2859 0.70614 0.34374 0.0
H2218 H 0.30496 0.66373 0.29315 0.0
H2219 H 0.29187 0.6342 0.28347 0.0
H2220 H 0.25209 0.5878 0.31004 0.0
H2221 H 0.23598 0.58297 0.33948 0.0
H2222 H 0.20579 0.63514 0.30124 0.0
H2223 H 0.23498 0.68139 0.29387 0.0
H2224 H 0.31808 0.61562 0.34674 0.0
H2225 H 0.30704 0.65326 0.38428 0.0
C2226 C 0.61328 1.00244 0.52456 0.0
C2227 C 0.62317 0.99979 0.50995 0.0
C2228 C 0.63922 0.00838 0.51179 0.0
C2229 C 0.63823 0.0158 0.52734 0.0
N2230 N 0.62256 0.0124 0.53533 0.0
Co2231 Co 0.61552 0.02063 0.55784 0.0
N2232 N 0.63314 0.03934 0.5566 0.0
C2233 C 0.64772 0.04006 0.54643 0.0
C2234 C 0.65761 0.05453 0.54852 0.0
C2235 C 0.64871 0.06339 0.56081 0.0
C2236 C 0.63382 0.05379 0.56553 0.0
N2237 N 0.60874 0.02888 0.58044 0.0
C2238 C 0.61152 0.04419 0.58751 0.0
C2239 C 0.60444 0.04463 0.60365 0.0
C2240 C 0.59717 0.02899 0.6067 0.0
C2241 C 0.60015 0.01986 0.5923 0.0
N2242 N 0.59787 1.00193 0.55881 0.0
C2243 C 0.59031 0.99566 0.57284 0.0
C2244 C 0.57826 0.9829 0.56943 0.0
C2245 C 0.57837 0.9811 0.55222 0.0
C2246 C 0.59047 0.99292 0.54605 0.0
N2247 N 0.63427 1.00598 0.56832 0.0
C2248 C 0.65778 0.98399 0.5862 0.0
C2249 C 0.64686 0.9782 0.5729 0.0
C2250 C 0.63545 0.98933 0.56408 0.0
C2251 C 0.65708 1.00125 0.58983 0.0
C2252 C 0.64525 0.01194 0.58089 0.0
N2253 N 0.59648 0.03494 0.54783 0.0
C2254 C 0.56542 0.04472 0.54844 0.0
C2255 C 0.568 0.05428 0.53386 0.0
C2256 C 0.58534 0.05388 0.52638 0.0
C2257 C 0.5994 0.04422 0.5336 0.0
C2258 C 0.57966 0.03524 0.55513 0.0
H2259 H 0.61259 0.04419 0.52767 0.0
H2260 H 0.57689 0.02795 0.56622 0.0
H2261 H 0.6272 0.98432 0.55406 0.0
H2262 H 0.64464 0.02498 0.58452 0.0
C2263 C 0.64978 0.02845 0.53333 0.0
C2264 C 0.59562 0.99472 0.52825 0.0
C2265 C 0.62153 0.05806 0.57943 0.0
C2266 C 0.59226 1.00424 0.58823 0.0
H2267 H 0.61921 0.99249 0.4991 0.0
H2268 H 0.64989 0.00972 0.50254 0.0
H2269 H 0.66947 0.05848 0.54153 0.0
H2270 H 0.65282 0.07544 0.56583 0.0
H2271 H 0.60447 0.05513 0.61227 0.0
H2272 H 0.58986 0.02504 0.61781 0.0
H2273 H 0.56977 0.97621 0.57829 0.0
H2274 H 0.57047 0.97217 0.54503 0.0
H2275 H 0.64707 0.96509 0.56932 0.0
H2276 H 0.66513 1.00643 0.59997 0.0
H2277 H 0.5523 0.04425 0.55457 0.0
H2278 H 0.58812 0.06112 0.51516 0.0
C2279 C 0.27788 0.38517 0.86655 0.0
C2280 C 0.28788 0.38055 0.88061 0.0
C2281 C 0.28666 0.3635 0.88192 0.0
C2282 C 0.27581 0.35865 0.86882 0.0
N2283 N 0.26989 0.37153 0.8593 0.0
Co2284 Co 0.25323 0.36958 0.83953 0.0
N2285 N 0.24686 0.34572 0.84506 0.0
C2286 C 0.25552 0.33592 0.85629 0.0
C2287 C 0.24835 0.32011 0.85763 0.0
C2288 C 0.23439 0.31971 0.84635 0.0
C2289 C 0.23379 0.33542 0.83873 0.0
N2290 N 0.23693 0.36753 0.81959 0.0
C2291 C 0.22553 0.35495 0.81478 0.0
C2292 C 0.21752 0.35857 0.79942 0.0
C2293 C 0.22446 0.37365 0.79424 0.0
C2294 C 0.23621 0.37848 0.80671 0.0
N2295 N 0.25939 0.39362 0.8345 0.0
C2296 C 0.25607 0.4015 0.81985 0.0
C2297 C 0.26215 0.41779 0.81957 0.0
C2298 C 0.27001 0.42036 0.83496 0.0
C2299 C 0.26826 0.40546 0.84384 0.0
N2300 N 0.27343 0.36193 0.82491 0.0
C2301 C 0.29315 0.35601 0.79525 0.0
C2302 C 0.29691 0.37008 0.80526 0.0
C2303 C 0.28733 0.37249 0.82039 0.0
C2304 C 0.28088 0.34416 0.80135 0.0
C2305 C 0.27121 0.34734 0.81599 0.0
N2306 N 0.23233 0.37703 0.85304 0.0
C2307 C 0.20325 0.39081 0.85214 0.0
C2308 C 0.19671 0.38065 0.86513 0.0
C2309 C 0.20911 0.37004 0.87332 0.0
C2310 C 0.22696 0.36854 0.86716 0.0
C2311 C 0.22096 0.38884 0.84634 0.0
H2312 H 0.23593 0.35967 0.87312 0.0
H2313 H 0.22483 0.39603 0.83552 0.0
H2314 H 0.29038 0.3835 0.82773 0.0
H2315 H 0.26085 0.33843 0.81893 0.0
C2316 C 0.26901 0.34251 0.86656 0.0
C2317 C 0.27706 0.40255 0.86024 0.0
C2318 C 0.22284 0.33892 0.82369 0.0
C2319 C 0.24566 0.39371 0.80739 0.0
H2320 H 0.29526 0.3886 0.88915 0.0
H2321 H 0.29244 0.35566 0.89165 0.0
H2322 H 0.25267 0.31009 0.8659 0.0
H2323 H 0.22611 0.30883 0.84364 0.0
H2324 H 0.2079 0.35095 0.79253 0.0
H2325 H 0.2212 0.38037 0.78281 0.0
H2326 H 0.26086 0.4268 0.80947 0.0
H2327 H 0.27669 0.43177 0.83901 0.0
H2328 H 0.30675 0.37934 0.80122 0.0
H2329 H 0.27762 0.33302 0.79413 0.0
H2330 H 0.19441 0.39967 0.84582 0.0
H2331 H 0.20478 0.36217 0.88366 0.0
C2332 C 0.39806 0.51158 0.52511 0.0
C2333 C 0.38807 0.51416 0.51054 0.0
C2334 C 0.3721 0.50547 0.51246 0.0
C2335 C 0.37323 0.49805 0.52801 0.0
N2336 N 0.38893 0.50154 0.53591 0.0
Co2337 Co 0.39616 0.4933 0.55837 0.0
N2338 N 0.37865 0.47451 0.55722 0.0
C2339 C 0.36401 0.47373 0.54713 0.0
C2340 C 0.35421 0.4592 0.54926 0.0
C2341 C 0.36325 0.45037 0.56148 0.0
C2342 C 0.37813 0.46003 0.56612 0.0
N2343 N 0.40315 0.48504 0.58092 0.0
C2344 C 0.40053 0.4697 0.58798 0.0
C2345 C 0.40776 0.46926 0.60406 0.0
C2346 C 0.41495 0.48494 0.6071 0.0
C2347 C 0.41178 0.49409 0.59274 0.0
N2348 N 0.41373 0.51209 0.55926 0.0
C2349 C 0.42135 0.51836 0.57326 0.0
C2350 C 0.43333 0.53117 0.56979 0.0
C2351 C 0.43311 0.53298 0.55258 0.0
C2352 C 0.421 0.52114 0.54647 0.0
N2353 N 0.37741 0.50784 0.56898 0.0
C2354 C 0.35385 0.52969 0.58697 0.0
C2355 C 0.36465 0.53554 0.57363 0.0
C2356 C 0.3761 0.52449 0.56475 0.0
C2357 C 0.35469 0.51242 0.5906 0.0
C2358 C 0.36654 0.50182 0.5816 0.0
N2359 N 0.41521 0.4791 0.54823 0.0
C2360 C 0.44632 0.46946 0.54865 0.0
C2361 C 0.44368 0.45989 0.53409 0.0
C2362 C 0.42629 0.46023 0.52671 0.0
C2363 C 0.41224 0.46982 0.53402 0.0
C2364 C 0.43208 0.47888 0.55543 0.0
H2365 H 0.39901 0.46979 0.52817 0.0
H2366 H 0.43489 0.48616 0.56651 0.0
H2367 H 0.38426 0.52955 0.5547 0.0
H2368 H 0.36726 0.48877 0.58522 0.0
C2369 C 0.3618 0.48533 0.53405 0.0
C2370 C 0.41571 0.51938 0.5287 0.0
C2371 C 0.39054 0.45579 0.57994 0.0
C2372 C 0.41956 0.50975 0.58864 0.0
H2373 H 0.39192 0.52146 0.49965 0.0
H2374 H 0.36138 0.50405 0.50327 0.0
H2375 H 0.34233 0.4552 0.54233 0.0
H2376 H 0.35924 0.4383 0.56651 0.0
H2377 H 0.40788 0.45875 0.61266 0.0
H2378 H 0.42233 0.48891 0.61816 0.0
H2379 H 0.44186 0.53787 0.57861 0.0
H2380 H 0.44091 0.54195 0.54535 0.0
H2381 H 0.36434 0.54866 0.57006 0.0
H2382 H 0.34673 0.50719 0.60077 0.0
H2383 H 0.45947 0.46998 0.55471 0.0
H2384 H 0.42347 0.45298 0.51551 0.0
C2385 C 0.77818 0.12961 0.14727 0.0
C2386 C 0.78727 0.134 0.13262 0.0
C2387 C 0.78503 0.15087 0.13058 0.0
C2388 C 0.77455 0.15585 0.14389 0.0
N2389 N 0.76985 0.1432 0.15429 0.0
Co2390 Co 0.7542 0.14537 0.17478 0.0
N2391 N 0.74694 0.16894 0.16891 0.0
C2392 C 0.75378 0.17826 0.15628 0.0
C2393 C 0.74532 0.19345 0.1543 0.0
C2394 C 0.73254 0.19402 0.1667 0.0
C2395 C 0.73414 0.17918 0.17577 0.0
N2396 N 0.73909 0.14773 0.19554 0.0
C2397 C 0.72861 0.1607 0.20115 0.0
C2398 C 0.72243 0.15766 0.21735 0.0
C2399 C 0.72932 0.14244 0.22211 0.0
C2400 C 0.73936 0.13703 0.20867 0.0
N2401 N 0.76097 0.12147 0.18001 0.0
C2402 C 0.75818 0.1137 0.19482 0.0
C2403 C 0.76453 0.09751 0.19518 0.0
C2404 C 0.772 0.09485 0.17966 0.0
C2405 C 0.7698 0.10962 0.17064 0.0
N2406 N 0.77504 0.15371 0.18831 0.0
C2407 C 0.79082 0.15901 0.21993 0.0
C2408 C 0.79566 0.14497 0.21026 0.0
C2409 C 0.78802 0.14283 0.19418 0.0
C2410 C 0.78087 0.1717 0.21205 0.0
C2411 C 0.77338 0.16893 0.19624 0.0
N2412 N 0.73272 0.13726 0.16243 0.0
C2413 C 0.70371 0.12349 0.16491 0.0
C2414 C 0.69677 0.13274 0.15142 0.0
C2415 C 0.7089 0.14285 0.14231 0.0
C2416 C 0.72689 0.14479 0.14793 0.0
C2417 C 0.72158 0.1259 0.17016 0.0
H2418 H 0.73563 0.15321 0.14113 0.0
H2419 H 0.72582 0.11936 0.18126 0.0
H2420 H 0.79139 0.13158 0.18735 0.0
H2421 H 0.76482 0.17872 0.19156 0.0
C2422 C 0.76686 0.1717 0.14556 0.0
C2423 C 0.77822 0.11242 0.15408 0.0
C2424 C 0.72551 0.17666 0.19222 0.0
C2425 C 0.74861 0.12173 0.20767 0.0
H2426 H 0.7946 0.12587 0.12411 0.0
H2427 H 0.78983 0.15848 0.12022 0.0
H2428 H 0.74799 0.20291 0.14486 0.0
H2429 H 0.72351 0.20446 0.16915 0.0
H2430 H 0.71425 0.16577 0.22518 0.0
H2431 H 0.72737 0.13615 0.23402 0.0
H2432 H 0.76381 0.08867 0.20549 0.0
H2433 H 0.77882 0.0835 0.17564 0.0
H2434 H 0.80412 0.13514 0.21546 0.0
H2435 H 0.77778 0.18332 0.21854 0.0
H2436 H 0.69513 0.11498 0.17196 0.0
H2437 H 0.70428 0.15 0.13156 0.0
C2438 C 0.61164 0.01194 0.98891 0.0
C2439 C 0.62145 0.01483 1.0035 0.0
C2440 C 0.6376 1.00635 1.00177 0.0
C2441 C 0.63673 0.99878 0.98628 0.0
N2442 N 0.62105 1.00201 0.97824 0.0
Co2443 Co 0.61409 0.99357 0.9558 0.0
N2444 N 0.63172 0.97489 0.95726 0.0
C2445 C 0.64627 0.9743 0.96748 0.0
C2446 C 0.65621 0.95983 0.96554 0.0
C2447 C 0.6474 0.95086 0.95329 0.0
C2448 C 0.63249 0.96037 0.94843 0.0
N2449 N 0.60736 0.98511 0.93326 0.0
C2450 C 0.61024 0.96978 0.92629 0.0
C2451 C 0.60321 0.9692 0.91014 0.0
C2452 C 0.59587 0.98479 0.90697 0.0
C2453 C 0.59877 0.99403 0.92131 0.0
N2454 N 0.59641 0.01225 0.95463 0.0
C2455 C 0.58885 0.01838 0.94055 0.0
C2456 C 0.57665 0.03105 0.94388 0.0
C2457 C 0.57665 0.0329 0.9611 0.0
C2458 C 0.58887 0.02122 0.96733 0.0
N2459 N 0.63285 0.00811 0.94521 0.0
C2460 C 0.65663 0.0298 0.92726 0.0
C2461 C 0.64561 0.03579 0.94039 0.0
C2462 C 0.63405 0.02481 0.94925 0.0
C2463 C 0.65583 0.0125 0.92379 0.0
C2464 C 0.64388 1.00197 0.93277 0.0
N2465 N 0.59504 0.97934 0.96591 0.0
C2466 C 0.56398 0.96955 0.96536 0.0
C2467 C 0.56654 0.96016 0.98006 0.0
C2468 C 0.58386 0.96066 0.98756 0.0
C2469 C 0.59793 0.97023 0.98025 0.0
C2470 C 0.57823 0.97895 0.95858 0.0
H2471 H 0.6111 0.97034 0.98621 0.0
H2472 H 0.57549 0.9861 0.9474 0.0
H2473 H 0.62574 0.02995 0.95916 0.0
H2474 H 0.64325 0.9889 0.92928 0.0
C2475 C 0.64831 0.98607 0.98046 0.0
C2476 C 0.59387 0.01935 0.98516 0.0
C2477 C 0.62033 0.956 0.93446 0.0
C2478 C 0.59084 0.00968 0.92524 0.0
H2479 H 0.61735 0.02222 0.01426 0.0
H2480 H 0.64824 1.00515 0.01107 0.0
H2481 H 0.66808 0.95599 0.97258 0.0
H2482 H 0.65159 0.9388 0.94836 0.0
H2483 H 0.60333 0.95865 0.90158 0.0
H2484 H 0.58859 0.98865 0.89581 0.0
H2485 H 0.56808 0.03759 0.93498 0.0
H2486 H 0.56858 0.04173 0.96824 0.0
H2487 H 0.64587 0.04894 0.94384 0.0
H2488 H 0.66392 1.00715 0.91378 0.0
H2489 H 0.55088 0.96994 0.9592 0.0
H2490 H 0.58662 0.95356 0.99887 0.0
C2491 C 0.89836 1.00194 0.48974 0.0
C2492 C 0.88839 0.99908 0.50425 0.0
C2493 C 0.87234 0.00768 0.50243 0.0
C2494 C 0.87341 0.0153 0.48698 0.0
N2495 N 0.88914 0.01201 0.47904 0.0
Co2496 Co 0.89628 0.02049 0.45664 0.0
N2497 N 0.87862 0.03917 0.45798 0.0
C2498 C 0.864 0.03976 0.46811 0.0
C2499 C 0.85407 0.05423 0.46612 0.0
C2500 C 0.86299 0.06322 0.45394 0.0
C2501 C 0.87794 0.0537 0.44918 0.0
N2502 N 0.90319 0.029 0.43417 0.0
C2503 C 0.90039 0.04436 0.42721 0.0
C2504 C 0.90757 0.04497 0.41112 0.0
C2505 C 0.91493 0.02938 0.40796 0.0
C2506 C 0.91189 0.02011 0.42226 0.0
N2507 N 0.91398 1.00181 0.45556 0.0
C2508 C 0.92163 0.99572 0.44151 0.0
C2509 C 0.93368 0.98292 0.44484 0.0
C2510 C 0.93346 0.98092 0.46203 0.0
C2511 C 0.92129 0.99265 0.46826 0.0
N2512 N 0.87762 1.00593 0.44592 0.0
C2513 C 0.85405 0.98416 0.42783 0.0
C2514 C 0.86496 0.97822 0.44106 0.0
C2515 C 0.8764 0.98924 0.45 0.0
C2516 C 0.85485 1.00146 0.42434 0.0
C2517 C 0.86669 0.01202 0.43338 0.0
N2518 N 0.91523 0.03472 0.46691 0.0
C2519 C 0.94631 0.04448 0.46668 0.0
C2520 C 0.94359 0.05387 0.48135 0.0
C2521 C 0.92615 0.05342 0.48864 0.0
C2522 C 0.91217 0.04385 0.48119 0.0
C2523 C 0.93213 0.03509 0.45975 0.0
H2524 H 0.89892 0.04377 0.48701 0.0
H2525 H 0.935 0.02793 0.4486 0.0
H2526 H 0.88462 0.98412 0.45998 0.0
H2527 H 0.86734 0.0251 0.42987 0.0
C2528 C 0.86189 0.028 0.48107 0.0
C2529 C 0.91605 0.99428 0.48606 0.0
C2530 C 0.89024 0.05812 0.43534 0.0
C2531 C 0.91978 1.00446 0.42622 0.0
H2532 H 0.8923 0.99163 0.51502 0.0
H2533 H 0.8616 0.0089 0.51164 0.0
H2534 H 0.84216 0.05807 0.47309 0.0
H2535 H 0.85886 0.07529 0.44901 0.0
H2536 H 0.90754 0.05554 0.40259 0.0
H2537 H 0.92231 0.02556 0.39685 0.0
H2538 H 0.94224 0.97635 0.43596 0.0
H2539 H 0.94133 0.97193 0.46916 0.0
H2540 H 0.86469 0.96508 0.44454 0.0
H2541 H 0.84682 1.00676 0.41425 0.0
H2542 H 0.95949 0.04405 0.46067 0.0
H2543 H 0.92325 0.06053 0.49991 0.0
H2544 H 0.10994 0.2205 0.52411 0.0
H2545 H 0.1523 0.2345 0.43201 0.0
H2546 H 0.10894 0.18295 0.48507 0.0
H2547 H 0.15068 0.27326 0.46984 0.0
H2548 H 0.1372 0.21536 0.45152 0.0
H2549 H 0.12528 0.23976 0.50477 0.0
C2550 C 0.11295 0.21623 0.51151 0.0
C2551 C 0.10802 0.19994 0.50634 0.0
C2552 C 0.14015 0.22804 0.45559 0.0
C2553 C 0.12569 0.22218 0.48392 0.0
C2554 C 0.14896 0.23901 0.44445 0.0
C2555 C 0.15294 0.25565 0.44916 0.0
C2556 C 0.13522 0.2336 0.47172 0.0
C2557 C 0.1478 0.26068 0.46546 0.0
C2558 C 0.12167 0.22732 0.50041 0.0
C2559 C 0.11216 0.19538 0.48968 0.0
N2560 N 0.13929 0.24974 0.47609 0.0
N2561 N 0.12075 0.20636 0.47916 0.0
H2562 H 0.07817 0.82455 0.71087 0.0
H2563 H 0.05374 0.91541 0.67308 0.0
H2564 H 0.09924 0.8705 0.73184 0.0
H2565 H 0.02164 0.87137 0.66293 0.0
H2566 H 0.07165 0.89917 0.69348 0.0
H2567 H 0.05892 0.84116 0.69193 0.0
C2568 C 0.07884 0.83812 0.7115 0.0
C2569 C 0.09047 0.84602 0.72312 0.0
C2570 C 0.06056 0.89307 0.68695 0.0
C2571 C 0.06829 0.8653 0.7012 0.0
C2572 C 0.0502 0.90241 0.67539 0.0
C2573 C 0.03581 0.8949 0.6665 0.0
C2574 C 0.0569 0.87589 0.68949 0.0
C2575 C 0.0324 0.87778 0.66964 0.0
C2576 C 0.06771 0.84763 0.70071 0.0
C2577 C 0.09044 0.86374 0.72331 0.0
N2578 N 0.04286 0.86889 0.68071 0.0
N2579 N 0.07971 0.8727 0.71251 0.0
H2580 H 0.40069 0.83131 0.98537 0.0
H2581 H 0.35804 0.73914 0.97248 0.0
H2582 H 0.39971 0.79372 0.02438 0.0
H2583 H 0.35543 0.77835 0.93516 0.0
H2584 H 0.37389 0.75852 0.99137 0.0
H2585 H 0.38508 0.81174 0.96662 0.0
C2586 C 0.39738 0.8189 0.99 0.0
C2587 C 0.40168 0.81427 1.0066 0.0
C2588 C 0.36981 0.76291 0.97906 0.0
C2589 C 0.38339 0.79165 0.98502 0.0
C2590 C 0.36079 0.75179 0.96819 0.0
C2591 C 0.35525 0.757 0.95208 0.0
C2592 C 0.37354 0.77944 0.97386 0.0
C2593 C 0.35911 0.77371 0.94748 0.0
C2594 C 0.38828 0.80773 0.97928 0.0
C2595 C 0.39659 0.79802 0.01182 0.0
N2596 N 0.36801 0.78423 0.95822 0.0
N2597 N 0.3878 0.78736 1.00111 0.0
H2598 H 0.4424 0.16505 0.23933 0.0
H2599 H 0.44649 0.11394 0.15216 0.0
H2600 H 0.3993 0.16564 0.20269 0.0
H2601 H 0.49462 0.12574 0.18048 0.0
H2602 H 0.42825 0.12984 0.17249 0.0
H2603 H 0.46087 0.14811 0.21994 0.0
C2604 C 0.43674 0.1616 0.22726 0.0
C2605 C 0.41916 0.16695 0.22273 0.0
C2606 C 0.44279 0.12896 0.17433 0.0
C2607 C 0.44037 0.14726 0.20037 0.0
C2608 C 0.45322 0.11983 0.16273 0.0
C2609 C 0.47219 0.11869 0.16443 0.0
C2610 C 0.45122 0.13687 0.18808 0.0
C2611 C 0.48008 0.12638 0.17858 0.0
C2612 C 0.44738 0.15196 0.21614 0.0
C2613 C 0.41278 0.16208 0.20677 0.0
N2614 N 0.46961 0.13513 0.1898 0.0
N2615 N 0.42326 0.15251 0.19631 0.0
H2616 H 0.15345 0.73938 0.04242 0.0
H2617 H 0.11118 0.83157 0.02863 0.0
H2618 H 0.15475 0.77853 0.07986 0.0
H2619 H 0.11233 0.79377 0.98982 0.0
H2620 H 0.12642 0.81202 0.04762 0.0
H2621 H 0.13803 0.75872 0.02319 0.0
C2622 C 0.15051 0.752 0.04667 0.0
C2623 C 0.15555 0.7572 0.06293 0.0
C2624 C 0.12333 0.80796 0.03496 0.0
C2625 C 0.13777 0.77961 0.04073 0.0
C2626 C 0.11444 0.81912 0.02408 0.0
C2627 C 0.11027 0.81443 0.00747 0.0
C2628 C 0.12817 0.79182 0.02936 0.0
C2629 C 0.11534 0.79813 1.00239 0.0
C2630 C 0.14173 0.7631 0.0356 0.0
C2631 C 0.15147 0.77389 0.06746 0.0
N2632 N 0.12394 0.78747 0.01324 0.0
N2633 N 0.14283 0.78439 0.05651 0.0
H2634 H 0.44729 0.90029 0.36164 0.0
H2635 H 0.44282 0.84863 0.27483 0.0
H2636 H 0.49534 0.88812 0.33336 0.0
H2637 H 0.3999 0.84822 0.31164 0.0
H2638 H 0.46139 0.86565 0.29406 0.0
H2639 H 0.42896 0.88429 0.34145 0.0
C2640 C 0.45398 0.89431 0.3511 0.0
C2641 C 0.47296 0.89538 0.34938 0.0
C2642 C 0.44792 0.86183 0.29794 0.0
C2643 C 0.45189 0.87707 0.32589 0.0
C2644 C 0.43723 0.85214 0.28691 0.0
C2645 C 0.41966 0.84682 0.29152 0.0
C2646 C 0.44098 0.8666 0.3137 0.0
C2647 C 0.41336 0.85176 0.30749 0.0
C2648 C 0.4435 0.88511 0.33958 0.0
C2649 C 0.4808 0.88756 0.33528 0.0
N2650 N 0.4239 0.86137 0.31786 0.0
N2651 N 0.47028 0.87874 0.32414 0.0
H2652 H 0.33322 0.24457 0.55555 0.0
H2653 H 0.42743 0.20809 0.51989 0.0
H2654 H 0.38531 0.26619 0.56761 0.0
H2655 H 0.37535 0.1958 0.49837 0.0
H2656 H 0.4123 0.22782 0.539 0.0
H2657 H 0.34835 0.22512 0.53616 0.0
C2658 C 0.34783 0.24524 0.55417 0.0
C2659 C 0.35792 0.25717 0.56327 0.0
C2660 C 0.40418 0.22084 0.53006 0.0
C2661 C 0.37546 0.23473 0.54102 0.0
C2662 C 0.41282 0.20948 0.51918 0.0
C2663 C 0.40273 0.20022 0.50736 0.0
C2664 C 0.3852 0.22287 0.52941 0.0
C2665 C 0.38379 0.20276 0.50705 0.0
C2666 C 0.35648 0.23416 0.54301 0.0
C2667 C 0.37687 0.25742 0.56076 0.0
N2668 N 0.37568 0.21371 0.51791 0.0
N2669 N 0.38498 0.24636 0.55001 0.0
H2670 H 0.11323 0.16701 0.81208 0.0
H2671 H 0.01607 0.12626 0.83377 0.0
H2672 H 0.06968 0.16564 0.77593 0.0
H2673 H 0.06479 0.11535 0.86158 0.0
H2674 H 0.03444 0.14201 0.81315 0.0
H2675 H 0.09478 0.15005 0.83125 0.0
C2676 C 0.09974 0.16327 0.80816 0.0
C2677 C 0.09312 0.16793 0.79224 0.0
C2678 C 0.04113 0.13613 0.82373 0.0
C2679 C 0.07167 0.14824 0.81441 0.0
C2680 C 0.03064 0.12709 0.83549 0.0
C2681 C 0.03883 0.11962 0.84958 0.0
C2682 C 0.06001 0.13789 0.82611 0.0
C2683 C 0.05783 0.12108 0.85107 0.0
C2684 C 0.08922 0.15342 0.81913 0.0
C2685 C 0.07552 0.16234 0.78795 0.0
N2686 N 0.06766 0.13014 0.83968 0.0
N2687 N 0.06543 0.15296 0.79895 0.0
H2688 H 0.19732 0.40229 0.15032 0.0
H2689 H 0.19251 0.48914 0.0987 0.0
H2690 H 0.24526 0.43061 0.13789 0.0
H2691 H 0.14941 0.4525 0.09884 0.0
H2692 H 0.21121 0.46987 0.11556 0.0
H2693 H 0.17885 0.4225 0.13449 0.0
C2694 C 0.20396 0.41284 0.14432 0.0
C2695 C 0.22295 0.41457 0.14527 0.0
C2696 C 0.19766 0.46604 0.11189 0.0
C2697 C 0.20172 0.43809 0.12714 0.0
C2698 C 0.1869 0.47709 0.10229 0.0
C2699 C 0.16924 0.47254 0.09717 0.0
C2700 C 0.19072 0.45031 0.11677 0.0
C2701 C 0.16294 0.4566 0.10222 0.0
C2702 C 0.1934 0.42438 0.13522 0.0
C2703 C 0.23071 0.42869 0.13742 0.0
N2704 N 0.17355 0.4462 0.11174 0.0
N2705 N 0.22013 0.43984 0.1287 0.0
H2706 H 0.69664 0.11191 0.86412 0.0
H2707 H 0.69164 0.02482 0.91534 0.0
H2708 H 0.74442 0.08306 0.87585 0.0
H2709 H 0.64872 0.06164 0.91552 0.0
H2710 H 0.71032 0.04405 0.89843 0.0
H2711 H 0.67815 0.09175 0.88 0.0
C2712 C 0.70324 0.10125 0.86998 0.0
C2713 C 0.72219 0.09935 0.86881 0.0
C2714 C 0.69682 0.04793 0.90218 0.0
C2715 C 0.70093 0.0759 0.887 0.0
C2716 C 0.68607 0.0369 0.91181 0.0
C2717 C 0.66846 0.04151 0.91703 0.0
C2718 C 0.68994 0.06371 0.89738 0.0
C2719 C 0.66221 0.05749 0.91206 0.0
C2720 C 0.69266 0.08975 0.87911 0.0
C2721 C 0.7299 0.08511 0.87649 0.0
N2722 N 0.67282 0.06787 0.90252 0.0
N2723 N 0.7193 0.07399 0.88524 0.0
H2724 H 0.81509 0.90196 0.36427 0.0
H2725 H 0.81905 0.98889 0.41579 0.0
H2726 H 0.76685 0.92987 0.37665 0.0
H2727 H 0.8623 0.95241 0.41609 0.0
H2728 H 0.80057 0.96948 0.39888 0.0
H2729 H 0.83332 0.9223 0.38019 0.0
C2730 C 0.80833 0.91244 0.3703 0.0
C2731 C 0.78933 0.91401 0.36932 0.0
C2732 C 0.8141 0.96572 0.40266 0.0
C2733 C 0.81029 0.93769 0.3875 0.0
C2734 C 0.82473 0.97685 0.41228 0.0
C2735 C 0.84237 0.97238 0.41755 0.0
C2736 C 0.82114 0.94999 0.39789 0.0
C2737 C 0.84878 0.95645 0.4126 0.0
C2738 C 0.81876 0.92405 0.37944 0.0
C2739 C 0.78141 0.92806 0.37716 0.0
N2740 N 0.8383 0.94598 0.40305 0.0
N2741 N 0.79187 0.93929 0.38591 0.0
H2742 H 0.86448 0.06186 0.09855 0.0
H2743 H 0.76716 0.0824 0.13988 0.0
H2744 H 0.82086 0.02573 0.09928 0.0
H2745 H 0.81522 0.11179 0.149 0.0
H2746 H 0.78574 0.06197 0.12411 0.0
H2747 H 0.8459 0.08091 0.1155 0.0
C2748 C 0.85095 0.05792 0.10214 0.0
C2749 C 0.84435 0.04204 0.09729 0.0
C2750 C 0.79225 0.07285 0.12961 0.0
C2751 C 0.82276 0.06406 0.11702 0.0
C2752 C 0.78164 0.08449 0.13867 0.0
C2753 C 0.78957 0.09895 0.14567 0.0
C2754 C 0.811 0.07569 0.12737 0.0
C2755 C 0.80846 0.10095 0.14369 0.0
C2756 C 0.84035 0.06881 0.11199 0.0
C2757 C 0.8267 0.03772 0.10273 0.0
N2758 N 0.81841 0.08963 0.13465 0.0
N2759 N 0.81655 0.04864 0.11214 0.0
H2760 H 0.26482 0.58329 0.63801 0.0
H2761 H 0.36245 0.56136 0.59852 0.0
H2762 H 0.31366 0.61021 0.65059 0.0
H2763 H 0.31882 0.52527 0.59922 0.0
H2764 H 0.34385 0.58046 0.61544 0.0
H2765 H 0.28329 0.56276 0.62224 0.0
C2766 C 0.27943 0.58484 0.63752 0.0
C2767 C 0.28763 0.59868 0.64546 0.0
C2768 C 0.3383 0.56836 0.61192 0.0
C2769 C 0.30893 0.5753 0.62719 0.0
C2770 C 0.34891 0.55745 0.60211 0.0
C2771 C 0.34231 0.54157 0.59728 0.0
C2772 C 0.32068 0.56365 0.61688 0.0
C2773 C 0.32464 0.53727 0.60266 0.0
C2774 C 0.28998 0.57313 0.62849 0.0
C2775 C 0.30668 0.59993 0.64447 0.0
N2776 N 0.31446 0.54823 0.612 0.0
N2777 N 0.31658 0.5886 0.63539 0.0
H2778 H 0.24673 0.583 0.37584 0.0
H2779 H 0.14928 0.56164 0.41614 0.0
H2780 H 0.1981 0.61073 0.3644 0.0
H2781 H 0.19275 0.52538 0.41515 0.0
H2782 H 0.16788 0.58069 0.39917 0.0
H2783 H 0.22824 0.56248 0.3916 0.0
C2784 C 0.23216 0.58472 0.37655 0.0
C2785 C 0.22403 0.59876 0.36893 0.0
C2786 C 0.17339 0.56857 0.40264 0.0
C2787 C 0.2027 0.57541 0.38721 0.0
C2788 C 0.16278 0.55768 0.41248 0.0
C2789 C 0.16934 0.54176 0.41725 0.0
C2790 C 0.19096 0.56379 0.39756 0.0
C2791 C 0.18696 0.53741 0.41177 0.0
C2792 C 0.22159 0.57302 0.38559 0.0
C2793 C 0.20502 0.60025 0.37024 0.0
N2794 N 0.19713 0.54834 0.40238 0.0
N2795 N 0.19511 0.58892 0.37931 0.0
H2796 H 0.36276 0.45326 0.91621 0.0
H2797 H 0.26559 0.43206 0.87525 0.0
H2798 H 0.31946 0.48967 0.91468 0.0
H2799 H 0.31417 0.40399 0.86447 0.0
H2800 H 0.28404 0.4526 0.89101 0.0
H2801 H 0.34424 0.43418 0.89922 0.0
C2802 C 0.34931 0.45725 0.91243 0.0
C2803 C 0.34277 0.47322 0.91706 0.0
C2804 C 0.29068 0.44198 0.88515 0.0
C2805 C 0.32124 0.45115 0.89733 0.0
C2806 C 0.28014 0.43027 0.87611 0.0
C2807 C 0.28827 0.41612 0.86867 0.0
C2808 C 0.30954 0.43951 0.88696 0.0
C2809 C 0.30725 0.41455 0.87017 0.0
C2810 C 0.33875 0.44634 0.90257 0.0
C2811 C 0.32523 0.47761 0.91141 0.0
N2812 N 0.31713 0.42589 0.87924 0.0
N2813 N 0.31509 0.46665 0.90201 0.0
H2814 H 0.63725 0.6953 0.01559 0.0
H2815 H 0.62526 0.76611 0.94468 0.0
H2816 H 0.58539 0.70785 0.99375 0.0
H2817 H 0.6771 0.74425 0.95722 0.0
H2818 H 0.61051 0.74672 0.96428 0.0
H2819 H 0.65199 0.71486 0.99615 0.0
C2820 C 0.6289 0.70225 1.0068 0.0
C2821 C 0.60996 0.69988 1.00644 0.0
C2822 C 0.62511 0.74615 0.96276 0.0
C2823 C 0.62693 0.72243 0.98395 0.0
C2824 C 0.6336 0.75733 0.95163 0.0
C2825 C 0.65254 0.75695 0.94924 0.0
C2826 C 0.63557 0.7345 0.97185 0.0
C2827 C 0.66249 0.74501 0.95849 0.0
C2828 C 0.63739 0.71335 0.9956 0.0
C2829 C 0.60001 0.70911 0.99449 0.0
N2830 N 0.65393 0.73438 0.9694 0.0
N2831 N 0.60856 0.72 0.98384 0.0
H2832 H 0.61426 0.34975 0.20181 0.0
H2833 H 0.51599 0.38799 0.17975 0.0
H2834 H 0.57013 0.34899 0.23738 0.0
H2835 H 0.56467 0.40099 0.15279 0.0
H2836 H 0.53463 0.37232 0.20023 0.0
H2837 H 0.59549 0.36655 0.18275 0.0
C2838 C 0.60058 0.35299 0.20562 0.0
C2839 C 0.59388 0.34778 0.22135 0.0
C2840 C 0.54125 0.37864 0.18986 0.0
C2841 C 0.57207 0.36727 0.19931 0.0
C2842 C 0.5306 0.38762 0.17819 0.0
C2843 C 0.53871 0.39565 0.16436 0.0
C2844 C 0.56021 0.3775 0.18768 0.0
C2845 C 0.55776 0.3948 0.16308 0.0
C2846 C 0.58987 0.36274 0.19472 0.0
C2847 C 0.57603 0.35273 0.22551 0.0
N2848 N 0.56776 0.38578 0.17438 0.0
N2849 N 0.56577 0.36203 0.21458 0.0
H2850 H 0.90187 0.29353 0.52405 0.0
H2851 H 0.85923 0.27944 0.43206 0.0
H2852 H 0.90285 0.331 0.48492 0.0
H2853 H 0.86084 0.24075 0.46997 0.0
H2854 H 0.87445 0.29858 0.4515 0.0
H2855 H 0.88645 0.27426 0.50477 0.0
C2856 C 0.89884 0.29778 0.51144 0.0
C2857 C 0.90379 0.31406 0.50623 0.0
C2858 C 0.87147 0.28591 0.4556 0.0
C2859 C 0.88602 0.2918 0.48389 0.0
C2860 C 0.8626 0.27495 0.44451 0.0
C2861 C 0.85857 0.25832 0.44926 0.0
C2862 C 0.87643 0.28038 0.47174 0.0
C2863 C 0.86374 0.25332 0.46556 0.0
C2864 C 0.89007 0.28668 0.50038 0.0
C2865 C 0.89962 0.31859 0.48956 0.0
N2866 N 0.87232 0.26425 0.47614 0.0
N2867 N 0.89098 0.30761 0.47909 0.0
H2868 H 0.94307 0.66568 0.73915 0.0
H2869 H 0.94689 0.61387 0.6524 0.0
H2870 H 0.89987 0.66601 0.70261 0.0
H2871 H 0.99517 0.62617 0.68028 0.0
H2872 H 0.92871 0.62987 0.6727 0.0
H2873 H 0.9615 0.64863 0.71982 0.0
C2874 C 0.93739 0.66215 0.72711 0.0
C2875 C 0.91978 0.66746 0.7226 0.0
C2876 C 0.94327 0.62907 0.67446 0.0
C2877 C 0.94095 0.64763 0.70032 0.0
C2878 C 0.95366 0.61988 0.66288 0.0
C2879 C 0.97266 0.61885 0.66445 0.0
C2880 C 0.95177 0.63716 0.68807 0.0
C2881 C 0.98061 0.62671 0.67847 0.0
C2882 C 0.948 0.65244 0.71603 0.0
C2883 C 0.91337 0.66248 0.70668 0.0
N2884 N 0.97018 0.63552 0.68968 0.0
N2885 N 0.92383 0.65285 0.69626 0.0
H2886 H 0.60932 0.2931 0.49029 0.0
H2887 H 0.65235 0.27937 0.58216 0.0
H2888 H 0.60855 0.33074 0.52925 0.0
H2889 H 0.65066 0.24057 0.54437 0.0
H2890 H 0.63707 0.29844 0.5627 0.0
H2891 H 0.62485 0.27391 0.50958 0.0
C2892 C 0.61242 0.2974 0.50286 0.0
C2893 C 0.6075 0.3137 0.50803 0.0
C2894 C 0.64005 0.28577 0.55863 0.0
C2895 C 0.62539 0.29155 0.53038 0.0
C2896 C 0.64896 0.27484 0.56973 0.0
C2897 C 0.65297 0.2582 0.56502 0.0
C2898 C 0.63504 0.28018 0.54253 0.0
C2899 C 0.64776 0.25315 0.54875 0.0
C2900 C 0.62125 0.28636 0.51393 0.0
C2901 C 0.61175 0.3183 0.52465 0.0
N2902 N 0.63914 0.26404 0.53816 0.0
N2903 N 0.62045 0.30737 0.53513 0.0
H2904 H 0.94256 0.34848 0.77549 0.0
H2905 H 0.94648 0.39961 0.86265 0.0
H2906 H 0.89934 0.34794 0.81201 0.0
H2907 H 0.99468 0.38766 0.8345 0.0
H2908 H 0.92827 0.3837 0.8423 0.0
H2909 H 0.961 0.36536 0.79495 0.0
C2910 C 0.93687 0.35192 0.78755 0.0
C2911 C 0.91926 0.3466 0.79202 0.0
C2912 C 0.94282 0.38454 0.8405 0.0
C2913 C 0.94045 0.36623 0.81446 0.0
C2914 C 0.95323 0.39368 0.85212 0.0
C2915 C 0.97222 0.39478 0.85048 0.0
C2916 C 0.95128 0.3766 0.82679 0.0
C2917 C 0.98013 0.38705 0.83637 0.0
C2918 C 0.94749 0.36153 0.79871 0.0
C2919 C 0.91284 0.35147 0.80797 0.0
N2920 N 0.96968 0.3783 0.82512 0.0
N2921 N 0.92331 0.36101 0.81847 0.0
H2922 H 0.85858 0.73447 0.08196 0.0
H2923 H 0.90141 0.72043 0.99005 0.0
H2924 H 0.86016 0.77314 0.04403 0.0
H2925 H 0.90223 0.68291 0.02914 0.0
H2926 H 0.88591 0.73968 0.00929 0.0
H2927 H 0.87381 0.71533 0.06253 0.0
C2928 C 0.86194 0.73895 0.0695 0.0
C2929 C 0.85791 0.75557 0.06474 0.0
C2930 C 0.88952 0.72725 0.01368 0.0
C2931 C 0.87578 0.73353 0.04228 0.0
C2932 C 0.89833 0.71616 1.00264 0.0
C2933 C 0.90326 0.69989 0.00785 0.0
C2934 C 0.88541 0.72211 0.03015 0.0
C2935 C 0.89902 0.69534 0.0245 0.0
C2936 C 0.87082 0.72799 0.05842 0.0
C2937 C 0.86308 0.76057 0.04844 0.0
N2938 N 0.89035 0.7063 0.03495 0.0
N2939 N 0.87166 0.74965 0.03786 0.0
H2940 H 0.5158 0.6261 0.33487 0.0
H2941 H 0.6135 0.66526 0.3125 0.0
H2942 H 0.56471 0.61352 0.36167 0.0
H2943 H 0.5695 0.66504 0.27678 0.0
H2944 H 0.59496 0.64836 0.33166 0.0
H2945 H 0.53421 0.64182 0.31426 0.0
C2946 C 0.53042 0.62657 0.33637 0.0
C2947 C 0.53866 0.61865 0.35019 0.0
C2948 C 0.58932 0.65198 0.31963 0.0
C2949 C 0.5599 0.63686 0.32673 0.0
C2950 C 0.5999 0.66178 0.30868 0.0
C2951 C 0.59317 0.66674 0.29289 0.0
C2952 C 0.57161 0.64715 0.31504 0.0
C2953 C 0.57542 0.6615 0.28871 0.0
C2954 C 0.54093 0.63558 0.32462 0.0
C2955 C 0.55771 0.61962 0.35139 0.0
N2956 N 0.56528 0.65216 0.2997 0.0
N2957 N 0.56758 0.62867 0.34002 0.0
H2958 H 0.74665 0.92976 0.63684 0.0
H2959 H 0.649 0.95236 0.59778 0.0
H2960 H 0.69765 0.90326 0.64974 0.0
H2961 H 0.6929 0.98817 0.5983 0.0
H2962 H 0.66754 0.93316 0.61464 0.0
H2963 H 0.72827 0.95042 0.62115 0.0
C2964 C 0.73203 0.92833 0.63644 0.0
C2965 C 0.72375 0.91457 0.64445 0.0
C2966 C 0.67316 0.94521 0.61109 0.0
C2967 C 0.70255 0.93809 0.62626 0.0
C2968 C 0.66258 0.95619 0.60132 0.0
C2969 C 0.66929 0.97203 0.59646 0.0
C2970 C 0.69084 0.94982 0.61598 0.0
C2971 C 0.68701 0.97621 0.60176 0.0
C2972 C 0.72153 0.94011 0.62744 0.0
C2973 C 0.70468 0.91347 0.64356 0.0
N2974 N 0.69716 0.96519 0.61107 0.0
N2975 N 0.69483 0.92486 0.63452 0.0
H2976 H 0.24719 0.34851 0.24587 0.0
H2977 H 0.17422 0.34983 0.3203 0.0
H2978 H 0.19158 0.36393 0.23866 0.0
H2979 H 0.2298 0.33379 0.3263 0.0
H2980 H 0.18084 0.35773 0.29125 0.0
H2981 H 0.24154 0.34561 0.27585 0.0
C2982 C 0.23371 0.35124 0.2506 0.0
C2983 C 0.21972 0.35613 0.23962 0.0
C2984 C 0.19165 0.35265 0.29895 0.0
C2985 C 0.21318 0.353 0.27426 0.0
C2986 C 0.18789 0.34811 0.31556 0.0
C2987 C 0.20144 0.34095 0.32577 0.0
C2988 C 0.2091 0.35001 0.29239 0.0
C2989 C 0.21894 0.33931 0.31899 0.0
C2990 C 0.23053 0.34968 0.26779 0.0
C2991 C 0.20272 0.36001 0.24662 0.0
N2992 N 0.22221 0.34363 0.30271 0.0
N2993 N 0.19987 0.35819 0.26347 0.0
H2994 H 0.91163 0.96183 0.49668 0.0
H2995 H 0.98166 0.96953 0.57384 0.0
H2996 H 0.94198 1.00679 0.50717 0.0
H2997 H 0.94277 0.9294 0.56937 0.0
H2998 H 0.9689 0.98259 0.5485 0.0
H2999 H 0.92489 0.94862 0.52178 0.0
C3000 C 0.92137 0.96877 0.50414 0.0
C3001 C 0.92595 0.98531 0.49977 0.0
C3002 C 0.96304 0.97099 0.55309 0.0
C3003 C 0.94096 0.97045 0.52869 0.0
C3004 C 0.97025 0.9636 0.56762 0.0
C3005 C 0.9631 0.94847 0.57381 0.0
C3006 C 0.9487 0.9631 0.54448 0.0
C3007 C 0.94855 0.94114 0.56507 0.0
C3008 C 0.9288 0.96132 0.51855 0.0
C3009 C 0.93832 0.99393 0.51002 0.0
N3010 N 0.9419 0.94846 0.55084 0.0
N3011 N 0.94541 0.98642 0.52397 0.0
H3012 H 0.31471 0.70536 0.81419 0.0
H3013 H 0.29089 0.63447 0.74612 0.0
H3014 H 0.30407 0.65407 0.82848 0.0
H3015 H 0.30491 0.6857 0.73442 0.0
H3016 H 0.29668 0.64033 0.77602 0.0
H3017 H 0.31096 0.69771 0.78486 0.0
C3018 C 0.31152 0.69243 0.81111 0.0
C3019 C 0.30988 0.6803 0.82382 0.0
C3020 C 0.29871 0.6502 0.76687 0.0
C3021 C 0.30557 0.67133 0.78994 0.0
C3022 C 0.29564 0.64681 0.74979 0.0
C3023 C 0.29744 0.65963 0.73777 0.0
C3024 C 0.30359 0.66653 0.7719 0.0
C3025 C 0.30329 0.67547 0.74326 0.0
C3026 C 0.30942 0.68804 0.79431 0.0
C3027 C 0.30542 0.66381 0.81908 0.0
N3028 N 0.30601 0.67848 0.75985 0.0
N3029 N 0.3035 0.65976 0.80248 0.0
H3030 H 0.5702 1.00395 1.0064 0.0
H3031 H 0.52523 0.04521 0.07229 0.0
H3032 H 0.5946 0.05198 0.99627 0.0
H3033 H 0.56903 0.0809 0.06955 0.0
H3034 H 0.53673 0.0315 0.04693 0.0
H3035 H 0.55616 0.01562 0.03173 0.0
C3036 C 0.57216 0.01712 0.00934 0.0
C3037 C 0.58316 0.02714 0.99906 0.0
C3038 C 0.54415 0.04207 0.05197 0.0
C3039 C 0.56729 0.04074 0.02821 0.0
C3040 C 0.53753 0.04992 0.06649 0.0
C3041 C 0.54636 0.06403 0.07317 0.0
C3042 C 0.55978 0.04839 0.04396 0.0
C3043 C 0.56196 0.06992 0.0649 0.0
C3044 C 0.56414 0.02383 0.02382 0.0
C3045 C 0.58584 0.04397 1.00369 0.0
N3046 N 0.56811 0.06215 0.05071 0.0
N3047 N 0.57808 0.0502 0.01796 0.0
H3048 H 0.20871 0.65431 0.18606 0.0
H3049 H 0.20266 0.68587 0.28182 0.0
H3050 H 0.19233 0.7039 0.20167 0.0
H3051 H 0.22079 0.63608 0.26886 0.0
H3052 H 0.19686 0.69154 0.25221 0.0
H3053 H 0.21265 0.64655 0.21585 0.0
C3054 C 0.2061 0.66358 0.19571 0.0
C3055 C 0.19999 0.67972 0.19135 0.0
C3056 C 0.20192 0.67928 0.25576 0.0
C3057 C 0.20422 0.67093 0.22535 0.0
C3058 C 0.20509 0.67601 0.27271 0.0
C3059 C 0.21215 0.66048 0.27781 0.0
C3060 C 0.20601 0.667 0.24363 0.0
C3061 C 0.21514 0.64816 0.26546 0.0
C3062 C 0.20819 0.65912 0.2127 0.0
C3063 C 0.19674 0.69122 0.2044 0.0
N3064 N 0.21223 0.65174 0.2489 0.0
N3065 N 0.19882 0.6866 0.22068 0.0
H3066 H 0.60115 0.96284 0.51648 0.0
H3067 H 0.52825 0.96982 0.44159 0.0
H3068 H 0.5684 1.00685 0.50829 0.0
H3069 H 0.56942 0.93148 0.44369 0.0
H3070 H 0.54123 0.98275 0.46692 0.0
H3071 H 0.58772 0.94992 0.49132 0.0
C3072 C 0.59086 0.96962 0.50951 0.0
C3073 C 0.58568 0.98582 0.51452 0.0
C3074 C 0.54754 0.97159 0.4618 0.0
C3075 C 0.57044 0.97129 0.48556 0.0
C3076 C 0.54021 0.96428 0.44728 0.0
C3077 C 0.54792 0.94967 0.44044 0.0
C3078 C 0.56258 0.96412 0.46974 0.0
C3079 C 0.56318 0.94282 0.44849 0.0
C3080 C 0.58333 0.96234 0.49507 0.0
C3081 C 0.57257 0.99425 0.50492 0.0
N3082 N 0.56993 0.95002 0.46273 0.0
N3083 N 0.5654 0.9869 0.49092 0.0
H3084 H 0.30409 0.35979 0.68615 0.0
H3085 H 0.30981 0.32848 0.78201 0.0
H3086 H 0.31913 0.30988 0.70193 0.0
H3087 H 0.29181 0.37827 0.7689 0.0
H3088 H 0.31547 0.32266 0.75242 0.0
H3089 H 0.30025 0.3677 0.71592 0.0
C3090 C 0.30642 0.35048 0.69583 0.0
C3091 C 0.31213 0.3342 0.69154 0.0
C3092 C 0.31047 0.33496 0.75592 0.0
C3093 C 0.30804 0.34317 0.7255 0.0
C3094 C 0.30739 0.33831 0.77288 0.0
C3095 C 0.30039 0.35388 0.77793 0.0
C3096 C 0.30637 0.3472 0.74376 0.0
C3097 C 0.29741 0.36616 0.76554 0.0
C3098 C 0.30439 0.35503 0.71281 0.0
C3099 C 0.31502 0.32266 0.70462 0.0
N3100 N 0.30024 0.36251 0.74898 0.0
N3101 N 0.31303 0.32738 0.72089 0.0
H3102 H 0.94352 1.00492 0.00885 0.0
H3103 H 0.98727 0.04654 0.94249 0.0
H3104 H 0.91784 0.05245 0.01862 0.0
H3105 H 0.94295 0.08164 0.94541 0.0
H3106 H 0.97625 0.03281 0.96802 0.0
H3107 H 0.95745 0.01678 0.98357 0.0
C3108 C 0.94127 0.01804 1.00587 0.0
C3109 C 0.92992 0.02785 0.01601 0.0
C3110 C 0.9686 0.04325 0.96298 0.0
C3111 C 0.94564 0.04167 0.98689 0.0
C3112 C 0.97496 0.05111 0.94837 0.0
C3113 C 0.96583 0.06505 0.94168 0.0
C3114 C 0.95294 0.04938 0.97109 0.0
C3115 C 0.95022 0.07078 0.95005 0.0
C3116 C 0.94922 0.02486 0.9914 0.0
C3117 C 0.92688 0.04461 0.01131 0.0
N3118 N 0.94433 0.06299 0.96433 0.0
N3119 N 0.93458 0.05094 0.99705 0.0
H3120 H 0.30877 0.26415 0.30844 0.0
H3121 H 0.21997 0.24515 0.36442 0.0
H3122 H 0.29111 0.21429 0.32198 0.0
H3123 H 0.23617 0.29497 0.34975 0.0
H3124 H 0.24545 0.2336 0.34823 0.0
H3125 H 0.28245 0.27573 0.32338 0.0
C3126 C 0.29949 0.25561 0.31464 0.0
C3127 C 0.30227 0.23815 0.3138 0.0
C3128 C 0.24333 0.24705 0.34833 0.0
C3129 C 0.27179 0.2514 0.33085 0.0
C3130 C 0.22861 0.25362 0.3574 0.0
C3131 C 0.22564 0.27102 0.35804 0.0
C3132 C 0.2554 0.25796 0.33998 0.0
C3133 C 0.23779 0.28146 0.3493 0.0
C3134 C 0.28433 0.26225 0.32307 0.0
C3135 C 0.2895 0.2278 0.32197 0.0
N3136 N 0.2521 0.27481 0.34069 0.0
N3137 N 0.27492 0.23455 0.33009 0.0
H3138 H 0.01317 0.99763 0.60252 0.0
H3139 H 0.08731 0.07104 0.60045 0.0
H3140 H 0.06949 0.98956 0.61501 0.0
H3141 H 0.03127 0.07748 0.58601 0.0
H3142 H 0.08059 0.04217 0.60892 0.0
H3143 H 0.01913 0.02755 0.5995 0.0
C3144 C 0.02686 1.00218 0.60462 0.0
C3145 C 0.04095 0.99098 0.6087 0.0
C3146 C 0.06972 0.04994 0.60406 0.0
C3147 C 0.04787 0.02551 0.60536 0.0
C3148 C 0.07353 0.06644 0.59919 0.0
C3149 C 0.05988 0.07672 0.5923 0.0
C3150 C 0.05209 0.04355 0.60205 0.0
C3151 C 0.04223 0.07012 0.5913 0.0
C3152 C 0.03023 0.01932 0.60297 0.0
C3153 C 0.05827 0.9977 0.61175 0.0
N3154 N 0.0389 0.05394 0.59594 0.0
N3155 N 0.06129 0.01452 0.60984 0.0
H3156 H 0.19519 0.77792 0.8376 0.0
H3157 H 0.29044 0.73021 0.83899 0.0
H3158 H 0.22562 0.77018 0.79204 0.0
H3159 H 0.27248 0.76114 0.88012 0.0
H3160 H 0.26545 0.74149 0.82167 0.0
H3161 H 0.22143 0.76782 0.85387 0.0
C3162 C 0.20731 0.77392 0.83102 0.0
C3163 C 0.20819 0.77489 0.81343 0.0
C3164 C 0.26707 0.74589 0.83445 0.0
C3165 C 0.23829 0.76324 0.83196 0.0
C3166 C 0.28137 0.73954 0.84428 0.0
C3167 C 0.28339 0.74462 0.86105 0.0
C3168 C 0.25451 0.75718 0.84155 0.0
C3169 C 0.27125 0.75673 0.8673 0.0
C3170 C 0.22234 0.7683 0.8403 0.0
C3171 C 0.22437 0.76968 0.80558 0.0
N3172 N 0.25719 0.76236 0.85769 0.0
N3173 N 0.2387 0.76398 0.81485 0.0
H3174 H 0.44034 0.02617 0.11342 0.0
H3175 H 0.48006 0.93713 0.08321 0.0
H3176 H 0.49559 0.018 0.09729 0.0
H3177 H 0.42448 0.94432 0.09878 0.0
H3178 H 0.48662 0.96619 0.09113 0.0
H3179 H 0.4347 0.99583 0.11064 0.0
C3180 C 0.45128 0.01802 0.10939 0.0
C3181 C 0.46834 0.02473 0.10526 0.0
C3182 C 0.47301 0.96138 0.09296 0.0
C3183 C 0.46205 0.99003 0.1021 0.0
C3184 C 0.46931 0.9447 0.08858 0.0
C3185 C 0.45166 0.93826 0.09017 0.0
C3186 C 0.45897 0.97177 0.09899 0.0
C3187 C 0.43822 0.94882 0.09704 0.0
C3188 C 0.44806 1.00071 0.10776 0.0
C3189 C 0.48206 0.01351 0.10017 0.0
N3190 N 0.44211 0.96504 0.10105 0.0
N3191 N 0.47859 0.99683 0.09866 0.0
H3192 H 0.29155 0.80101 0.1923 0.0
H3193 H 0.2349 0.71897 0.16532 0.0
H3194 H 0.30741 0.75069 0.206 0.0
H3195 H 0.22151 0.76901 0.14902 0.0
H3196 H 0.26036 0.73039 0.18168 0.0
H3197 H 0.2652 0.78962 0.17756 0.0
C3198 C 0.28951 0.78754 0.19228 0.0
C3199 C 0.30182 0.77685 0.20058 0.0
C3200 C 0.25173 0.73893 0.17474 0.0
C3201 C 0.27138 0.76361 0.18347 0.0
C3202 C 0.23709 0.73243 0.16553 0.0
C3203 C 0.22578 0.7431 0.15615 0.0
C3204 C 0.25528 0.75629 0.17449 0.0
C3205 C 0.22953 0.76038 0.15648 0.0
C3206 C 0.27441 0.78103 0.18377 0.0
C3207 C 0.29847 0.75946 0.19973 0.0
N3208 N 0.24393 0.76642 0.16544 0.0
N3209 N 0.28359 0.75343 0.19143 0.0
H3210 H 0.44079 0.9882 0.40014 0.0
H3211 H 0.48102 0.07714 0.43008 0.0
H3212 H 0.4963 0.99633 0.41543 0.0
H3213 H 0.42507 0.06991 0.41573 0.0
H3214 H 0.48747 0.04817 0.42176 0.0
H3215 H 0.43519 0.01854 0.40305 0.0
C3216 C 0.4518 0.99635 0.404 0.0
C3217 C 0.46892 0.98963 0.40787 0.0
C3218 C 0.4738 0.05295 0.42028 0.0
C3219 C 0.46269 0.02432 0.41119 0.0
C3220 C 0.47016 0.06958 0.4249 0.0
C3221 C 0.45244 0.07598 0.42378 0.0
C3222 C 0.45963 0.04257 0.41449 0.0
C3223 C 0.43887 0.06544 0.41712 0.0
C3224 C 0.44861 0.01366 0.40571 0.0
C3225 C 0.48273 1.00084 0.41275 0.0
N3226 N 0.4427 0.04926 0.41288 0.0
N3227 N 0.47929 0.01752 0.41435 0.0
H3228 H 0.20368 0.26447 0.70582 0.0
H3229 H 0.29135 0.24459 0.64861 0.0
H3230 H 0.22046 0.21442 0.69208 0.0
H3231 H 0.27688 0.29441 0.6648 0.0
H3232 H 0.26588 0.23327 0.66499 0.0
H3233 H 0.23013 0.27573 0.69079 0.0
C3234 C 0.2128 0.25583 0.69955 0.0
C3235 C 0.20973 0.23841 0.70036 0.0
C3236 C 0.26839 0.24666 0.66519 0.0
C3237 C 0.24035 0.25128 0.68319 0.0
C3238 C 0.28312 0.25309 0.65602 0.0
C3239 C 0.28656 0.27043 0.65572 0.0
C3240 C 0.25678 0.25764 0.67399 0.0
C3241 C 0.2749 0.28093 0.66496 0.0
C3242 C 0.22803 0.26228 0.69108 0.0
C3243 C 0.22229 0.2279 0.6921 0.0
N3244 N 0.26056 0.27442 0.67364 0.0
N3245 N 0.23693 0.23447 0.68392 0.0
H3246 H 0.05311 0.93642 0.90443 0.0
H3247 H 0.05843 0.03179 0.93733 0.0
H3248 H 0.06892 0.9514 0.95436 0.0
H3249 H 0.0411 0.01946 0.88714 0.0
H3250 H 0.0638 1.00209 0.94282 0.0
H3251 H 0.04874 0.96631 0.89715 0.0
C3252 C 0.05546 0.94596 0.91388 0.0
C3253 C 0.06155 0.94143 0.92997 0.0
C3254 C 0.05898 1.00579 0.93051 0.0
C3255 C 0.05687 0.9755 0.92173 0.0
C3256 C 0.05605 0.02281 0.92736 0.0
C3257 C 0.04935 0.02812 0.91175 0.0
C3258 C 0.05508 0.99382 0.91804 0.0
C3259 C 0.04647 0.0159 0.89928 0.0
C3260 C 0.05314 0.96299 0.9097 0.0
C3261 C 0.06448 0.9543 0.94172 0.0
N3262 N 0.04918 0.99929 0.90273 0.0
N3263 N 0.0622 0.97064 0.93736 0.0
H3264 H 0.27819 0.32221 0.21961 0.0
H3265 H 0.35113 0.24731 0.21282 0.0
H3266 H 0.3193 0.31996 0.18122 0.0
H3267 H 0.31822 0.2555 0.25672 0.0
H3268 H 0.3377 0.27244 0.19984 0.0
H3269 H 0.29115 0.2969 0.23259 0.0
C3270 C 0.29012 0.31649 0.21407 0.0
C3271 C 0.29782 0.32328 0.19943 0.0
C3272 C 0.33327 0.2687 0.21225 0.0
C3273 C 0.31247 0.294 0.21394 0.0
C3274 C 0.34081 0.25427 0.21957 0.0
C3275 C 0.33559 0.24927 0.23575 0.0
C3276 C 0.32034 0.2782 0.22116 0.0
C3277 C 0.32243 0.25886 0.24413 0.0
C3278 C 0.29745 0.30198 0.2214 0.0
C3279 C 0.31306 0.3152 0.19257 0.0
N3280 N 0.31526 0.27285 0.23676 0.0
N3281 N 0.31981 0.30097 0.19981 0.0
H3282 H 0.77743 0.19185 0.7944 0.0
H3283 H 0.85131 0.26594 0.80135 0.0
H3284 H 0.81893 0.1933 0.83246 0.0
H3285 H 0.8179 0.25856 0.75764 0.0
H3286 H 0.83771 0.24081 0.81418 0.0
H3287 H 0.79058 0.21715 0.78155 0.0
C3288 C 0.78949 0.19739 0.79989 0.0
C3289 C 0.79724 0.19037 0.8144 0.0
C3290 C 0.83321 0.24472 0.80184 0.0
C3291 C 0.8121 0.21965 0.80006 0.0
C3292 C 0.84085 0.25915 0.79461 0.0
C3293 C 0.83554 0.26438 0.77852 0.0
C3294 C 0.82009 0.23545 0.79294 0.0
C3295 C 0.82218 0.25501 0.77015 0.0
C3296 C 0.79692 0.2119 0.79264 0.0
C3297 C 0.81264 0.19824 0.82121 0.0
N3298 N 0.81492 0.24102 0.77744 0.0
N3299 N 0.81949 0.21247 0.81406 0.0
H3300 H 0.98571 0.59976 0.96859 0.0
H3301 H 0.04132 0.57224 0.05106 0.0
H3302 H 0.97083 0.61448 0.01875 0.0
H3303 H 0.05745 0.55824 1.00089 0.0
H3304 H 0.01509 0.58697 0.03946 0.0
H3305 H 0.01121 0.58351 0.9801 0.0
C3306 C 0.9876 0.59924 0.98208 0.0
C3307 C 0.97585 0.60813 0.99276 0.0
C3308 C 0.02433 0.5807 0.03095 0.0
C3309 C 1.00538 0.58992 1.00607 0.0
C3310 C 0.03936 0.57218 0.03758 0.0
C3311 C 0.05171 0.5638 0.027 0.0
C3312 C 0.02141 0.58094 0.01351 0.0
C3313 C 0.04847 0.56458 0.00959 0.0
C3314 C 1.00225 0.59009 0.98864 0.0
C3315 C 0.97921 0.60742 0.0101 0.0
N3316 N 0.03366 0.57291 1.00343 0.0
N3317 N 0.99364 0.59853 0.01619 0.0
H3318 H 0.68997 0.75682 0.25433 0.0
H3319 H 0.73545 0.82244 0.29554 0.0
H3320 H 0.66694 0.74581 0.30274 0.0
H3321 H 0.69249 0.81899 0.33203 0.0
H3322 H 0.72381 0.79718 0.28174 0.0
H3323 H 0.70404 0.78212 0.26604 0.0
C3324 C 0.68832 0.75956 0.26758 0.0
C3325 C 0.6777 0.74904 0.2777 0.0
C3326 C 0.7166 0.80205 0.29251 0.0
C3327 C 0.69361 0.77815 0.29134 0.0
C3328 C 0.7233 0.81651 0.30041 0.0
C3329 C 0.71474 0.82296 0.31477 0.0
C3330 C 0.70117 0.79386 0.29904 0.0
C3331 C 0.69933 0.81453 0.32085 0.0
C3332 C 0.69636 0.77403 0.27431 0.0
C3333 C 0.67541 0.75342 0.29464 0.0
N3334 N 0.69312 0.80039 0.31303 0.0
N3335 N 0.68319 0.76768 0.3009 0.0
H3336 H 0.02522 0.91067 0.968 0.0
H3337 H 0.98363 0.96567 0.04063 0.0
H3338 H 0.04562 0.90532 0.01844 0.0
H3339 H 0.9478 0.93756 0.00796 0.0
H3340 H 0.00925 0.95011 0.02936 0.0
H3341 H 0.99963 0.92724 0.97899 0.0
C3342 C 0.0246 0.91337 0.98132 0.0
C3343 C 0.03799 0.90698 0.99221 0.0
C3344 C 0.99573 0.94742 0.02471 0.0
C3345 C 0.00874 0.92604 1.00482 0.0
C3346 C 0.98085 0.95618 0.03128 0.0
C3347 C 0.96295 0.95287 0.02573 0.0
C3348 C 0.99309 0.9356 0.01194 0.0
C3349 C 0.96105 0.94086 0.01278 0.0
C3350 C 0.00993 0.92269 0.98757 0.0
C3351 C 0.03623 0.91059 0.00943 0.0
N3352 N 0.97587 0.9328 1.0063 0.0
N3353 N 0.022 0.91999 0.01517 0.0
H3354 H 0.22992 0.68943 0.71953 0.0
H3355 H 0.15712 0.76453 0.71276 0.0
H3356 H 0.19023 0.69278 0.67997 0.0
H3357 H 0.19077 0.75657 0.75622 0.0
H3358 H 0.17035 0.73934 0.6997 0.0
H3359 H 0.2167 0.71453 0.73265 0.0
C3360 C 0.21822 0.69534 0.71376 0.0
C3361 C 0.21101 0.68891 0.69875 0.0
C3362 C 0.17496 0.74313 0.71204 0.0
C3363 C 0.19604 0.71797 0.71346 0.0
C3364 C 0.16751 0.75757 0.71941 0.0
C3365 C 0.17304 0.76268 0.73548 0.0
C3366 C 0.18809 0.7337 0.72079 0.0
C3367 C 0.18632 0.75311 0.74373 0.0
C3368 C 0.21075 0.70974 0.72118 0.0
C3369 C 0.19607 0.69725 0.69162 0.0
N3370 N 0.19339 0.73911 0.73631 0.0
N3371 N 0.18915 0.71136 0.69897 0.0
H3372 H 0.98627 0.41407 0.54586 0.0
H3373 H 0.04188 0.4419 0.46348 0.0
H3374 H 0.97141 0.39948 0.49566 0.0
H3375 H 0.05825 0.45538 0.51371 0.0
H3376 H 0.01563 0.42714 0.47503 0.0
H3377 H 0.01185 0.43027 0.53441 0.0
C3378 C 0.98819 0.4146 0.53237 0.0
C3379 C 0.97641 0.40577 0.52167 0.0
C3380 C 0.02493 0.4333 0.48356 0.0
C3381 C 0.00602 0.42394 0.50842 0.0
C3382 C 0.03997 0.44183 0.47696 0.0
C3383 C 0.05239 0.45008 0.48758 0.0
C3384 C 0.02208 0.43292 0.50101 0.0
C3385 C 0.04922 0.44915 0.50499 0.0
C3386 C 1.00288 0.42373 0.52585 0.0
C3387 C 0.9798 0.40651 0.50433 0.0
N3388 N 0.0344 0.44082 0.51112 0.0
N3389 N 0.99426 0.41537 0.49827 0.0
H3390 H 0.45242 0.55977 0.01448 0.0
H3391 H 0.54119 0.61578 0.99533 0.0
H3392 H 0.47034 0.57282 0.96457 0.0
H3393 H 0.52493 0.60136 0.04521 0.0
H3394 H 0.5157 0.59956 0.98384 0.0
H3395 H 0.47862 0.57493 0.02603 0.0
C3396 C 0.46173 0.5659 1.00592 0.0
C3397 C 0.45906 0.56486 0.98846 0.0
C3398 C 0.5178 0.59973 0.9973 0.0
C3399 C 0.48939 0.58218 1.00169 0.0
C3400 C 0.53253 0.60882 1.00383 0.0
C3401 C 0.5355 0.60953 0.02122 0.0
C3402 C 0.50573 0.59142 0.00822 0.0
C3403 C 0.52331 0.60087 0.0317 0.0
C3404 C 0.47682 0.57446 0.01255 0.0
C3405 C 0.47186 0.57297 0.97809 0.0
N3406 N 0.509 0.59223 0.02508 0.0
N3407 N 0.48636 0.58122 0.98482 0.0
H3408 H 0.73149 0.83556 0.82736 0.0
H3409 H 0.69191 0.86389 0.73772 0.0
H3410 H 0.67536 0.84896 0.81941 0.0
H3411 H 0.74798 0.85123 0.74701 0.0
H3412 H 0.68584 0.86108 0.768 0.0
H3413 H 0.73822 0.84409 0.79853 0.0
C3414 C 0.72063 0.84058 0.81968 0.0
C3415 C 0.7028 0.84136 0.82584 0.0
C3416 C 0.69949 0.85901 0.76339 0.0
C3417 C 0.71033 0.85087 0.79255 0.0
C3418 C 0.70294 0.86066 0.74612 0.0
C3419 C 0.72038 0.85746 0.73975 0.0
C3420 C 0.7136 0.85424 0.77436 0.0
C3421 C 0.7342 0.85338 0.75126 0.0
C3422 C 0.72444 0.84532 0.80312 0.0
C3423 C 0.68926 0.84781 0.81513 0.0
N3424 N 0.7305 0.85178 0.76789 0.0
N3425 N 0.69326 0.85216 0.79901 0.0
H3426 H 0.48164 0.46989 0.0735 0.0
H3427 H 0.41061 0.46319 0.99703 0.0
H3428 H 0.44186 0.43047 0.06949 0.0
H3429 H 0.4422 0.50757 1.00688 0.0
H3430 H 0.42374 0.44992 0.02216 0.0
H3431 H 0.46881 0.48318 0.0483 0.0
C3432 C 0.47001 0.46418 0.06742 0.0
C3433 C 0.46266 0.44916 0.07369 0.0
C3434 C 0.42795 0.46251 0.01879 0.0
C3435 C 0.44817 0.46404 0.04452 0.0
C3436 C 0.42058 0.46999 1.00437 0.0
C3437 C 0.42554 0.48638 0.99981 0.0
C3438 C 0.44043 0.47146 0.02874 0.0
C3439 C 0.43823 0.49482 0.00988 0.0
C3440 C 0.46277 0.47169 0.05297 0.0
C3441 C 0.44782 0.44212 0.06514 0.0
N3442 N 0.44524 0.48728 0.02384 0.0
N3443 N 0.44114 0.44954 0.05097 0.0
H3444 H 0.78144 0.18231 0.32591 0.0
H3445 H 0.82184 0.15031 0.2377 0.0
H3446 H 0.83656 0.16504 0.31967 0.0
H3447 H 0.76758 0.16966 0.24439 0.0
H3448 H 0.82686 0.15311 0.2681 0.0
H3449 H 0.77526 0.17485 0.29663 0.0
C3450 C 0.79215 0.17666 0.3185 0.0
C3451 C 0.80958 0.17444 0.32528 0.0
C3452 C 0.81385 0.15672 0.26289 0.0
C3453 C 0.80273 0.16614 0.29154 0.0
C3454 C 0.81099 0.15509 0.24553 0.0
C3455 C 0.7944 0.16006 0.23837 0.0
C3456 C 0.79997 0.16321 0.27319 0.0
C3457 C 0.78078 0.1661 0.24922 0.0
C3458 C 0.78868 0.17254 0.3017 0.0
C3459 C 0.82299 0.16724 0.31492 0.0
N3460 N 0.78389 0.16756 0.26597 0.0
N3461 N 0.81934 0.16348 0.29859 0.0
H3462 H 0.06934 0.5834 0.57093 0.0
H3463 H 0.06697 0.50768 0.50396 0.0
H3464 H 0.02822 0.54498 0.57113 0.0
H3465 H 0.10206 0.55063 0.49919 0.0
H3466 H 0.0531 0.5205 0.529 0.0
H3467 H 0.08259 0.57074 0.54555 0.0
C3468 C 0.06328 0.57215 0.56572 0.0
C3469 C 0.0478 0.56512 0.57321 0.0
C3470 C 0.06371 0.52723 0.52241 0.0
C3471 C 0.06269 0.55062 0.54403 0.0
C3472 C 0.07152 0.51995 0.50807 0.0
C3473 C 0.08552 0.52821 0.49946 0.0
C3474 C 0.07011 0.54281 0.52832 0.0
C3475 C 0.09116 0.54396 0.50542 0.0
C3476 C 0.07073 0.56499 0.55117 0.0
C3477 C 0.0403 0.55066 0.56585 0.0
N3478 N 0.08355 0.55069 0.51951 0.0
N3479 N 0.04779 0.5439 0.55171 0.0
H3480 H 0.73041 0.17996 0.68744 0.0
H3481 H 0.69003 0.15002 0.7763 0.0
H3482 H 0.67463 0.1649 0.6944 0.0
H3483 H 0.74543 0.16574 0.76833 0.0
H3484 H 0.68455 0.15274 0.74592 0.0
H3485 H 0.73679 0.17183 0.71647 0.0
C3486 C 0.71957 0.17465 0.69495 0.0
C3487 C 0.70192 0.17328 0.68845 0.0
C3488 C 0.69792 0.15553 0.75085 0.0
C3489 C 0.70903 0.16423 0.72195 0.0
C3490 C 0.70104 0.15394 0.76818 0.0
C3491 C 0.71809 0.15799 0.77495 0.0
C3492 C 0.71201 0.16108 0.74022 0.0
C3493 C 0.73191 0.16293 0.76378 0.0
C3494 C 0.72317 0.17015 0.71162 0.0
C3495 C 0.68838 0.16649 0.69894 0.0
N3496 N 0.72854 0.16441 0.74708 0.0
N3497 N 0.69216 0.16237 0.71517 0.0
H3498 H 0.02572 0.46865 0.9422 0.0
H3499 H 0.07116 0.51013 0.00767 0.0
H3500 H 0.06908 0.43254 0.94536 0.0
H3501 H 0.09482 0.46192 0.01844 0.0
H3502 H 0.05704 0.49834 0.98244 0.0
H3503 H 0.03736 0.48249 0.96745 0.0
C3504 C 0.03794 0.46386 0.94807 0.0
C3505 C 0.04662 0.44959 0.94154 0.0
C3506 C 0.06488 0.49012 0.99046 0.0
C3507 C 0.0602 0.46539 0.97061 0.0
C3508 C 0.07295 0.49691 1.00489 0.0
C3509 C 0.08376 0.48687 0.01533 0.0
C3510 C 0.06778 0.47313 0.98629 0.0
C3511 C 0.08621 0.46995 0.01089 0.0
C3512 C 0.04465 0.47179 0.96251 0.0
C3513 C 0.06214 0.44363 0.94989 0.0
N3514 N 0.07839 0.46365 0.99668 0.0
N3515 N 0.06836 0.45148 0.96401 0.0
H3516 H 0.82061 0.8635 0.27617 0.0
H3517 H 0.78062 0.83347 0.18718 0.0
H3518 H 0.76524 0.84775 0.26803 0.0
H3519 H 0.83627 0.8489 0.19426 0.0
H3520 H 0.77414 0.84145 0.21623 0.0
H3521 H 0.82621 0.86073 0.24582 0.0
C3522 C 0.80963 0.85956 0.26802 0.0
C3523 C 0.79255 0.85553 0.27474 0.0
C3524 C 0.78775 0.84324 0.2114 0.0
C3525 C 0.79879 0.85238 0.24003 0.0
C3526 C 0.79141 0.83882 0.19473 0.0
C3527 C 0.80906 0.84036 0.18825 0.0
C3528 C 0.80183 0.84924 0.22176 0.0
C3529 C 0.82253 0.8472 0.19878 0.0
C3530 C 0.81283 0.85794 0.25071 0.0
C3531 C 0.77879 0.85055 0.26353 0.0
N3532 N 0.81869 0.85124 0.21501 0.0
N3533 N 0.78223 0.84904 0.24684 0.0
H3534 H 0.44386 0.50751 0.50976 0.0
H3535 H 0.44142 0.58447 0.44418 0.0
H3536 H 0.4094 0.55074 0.51579 0.0
H3537 H 0.48169 0.54531 0.44247 0.0
H3538 H 0.42844 0.57155 0.46955 0.0
H3539 H 0.45739 0.52058 0.4847 0.0
C3540 C 0.43939 0.5199 0.50593 0.0
C3541 C 0.42568 0.52817 0.51491 0.0
C3542 C 0.44005 0.5657 0.46359 0.0
C3543 C 0.44069 0.54306 0.48601 0.0
C3544 C 0.44735 0.57301 0.44905 0.0
C3545 C 0.46251 0.56585 0.44114 0.0
C3546 C 0.44793 0.55105 0.47031 0.0
C3547 C 0.46985 0.55111 0.44808 0.0
C3548 C 0.44699 0.52731 0.49156 0.0
C3549 C 0.4201 0.54406 0.50928 0.0
N3550 N 0.46251 0.54421 0.46222 0.0
N3551 N 0.42752 0.55094 0.49517 0.0
H3552 H 0.73665 0.79614 0.85029 0.0
H3553 H 0.79225 0.71388 0.82213 0.0
H3554 H 0.72182 0.74588 0.86469 0.0
H3555 H 0.8086 0.76416 0.8088 0.0
H3556 H 0.76606 0.72538 0.837 0.0
H3557 H 0.76228 0.78477 0.83411 0.0
C3558 C 0.73859 0.78267 0.84973 0.0
C3559 C 0.7268 0.77191 0.85849 0.0
C3560 C 0.77534 0.73394 0.83085 0.0
C3561 C 0.75645 0.75876 0.84033 0.0
C3562 C 0.79035 0.72736 0.82225 0.0
C3563 C 0.80275 0.73801 0.814 0.0
C3564 C 0.7725 0.75138 0.8313 0.0
C3565 C 0.79958 0.75542 0.81502 0.0
C3566 C 0.75331 0.77618 0.84061 0.0
C3567 C 0.73022 0.75458 0.85772 0.0
N3568 N 0.78479 0.76152 0.82341 0.0
N3569 N 0.7447 0.74857 0.84885 0.0
H3570 H 0.57019 0.48874 0.11373 0.0
H3571 H 0.53068 0.57836 0.08527 0.0
H3572 H 0.51419 0.49796 0.10072 0.0
H3573 H 0.58672 0.57044 0.09899 0.0
H3574 H 0.52392 0.54951 0.09374 0.0
H3575 H 0.57623 0.51903 0.11099 0.0
C3576 C 0.55916 0.49712 0.11042 0.0
C3577 C 0.54176 0.49073 0.10711 0.0
C3578 C 0.53768 0.55411 0.09505 0.0
C3579 C 0.5485 0.52535 0.10397 0.0
C3580 C 0.54151 0.57068 0.09034 0.0
C3581 C 0.55934 0.57685 0.09122 0.0
C3582 C 0.55177 0.54355 0.10067 0.0
C3583 C 0.57284 0.56615 0.09776 0.0
C3584 C 0.5626 0.5144 0.10881 0.0
C3585 C 0.52795 0.50222 0.10295 0.0
N3586 N 0.56883 0.55002 0.10207 0.0
N3587 N 0.53163 0.51886 0.1014 0.0
H3588 H 0.70339 0.25001 0.30745 0.0
H3589 H 0.79137 0.26894 0.36462 0.0
H3590 H 0.71979 0.29969 0.32287 0.0
H3591 H 0.77557 0.21913 0.34951 0.0
H3592 H 0.76587 0.28046 0.34843 0.0
H3593 H 0.72968 0.23839 0.32244 0.0
C3594 C 0.71238 0.25849 0.31407 0.0
C3595 C 0.70927 0.27592 0.31373 0.0
C3596 C 0.76808 0.26702 0.34843 0.0
C3597 C 0.73972 0.26265 0.33083 0.0
C3598 C 0.78282 0.26047 0.3575 0.0
C3599 C 0.7859 0.24309 0.35803 0.0
C3600 C 0.75612 0.25611 0.33995 0.0
C3601 C 0.77387 0.23264 0.34916 0.0
C3602 C 0.72752 0.25184 0.32253 0.0
C3603 C 0.72167 0.28622 0.32245 0.0
N3604 N 0.75954 0.23927 0.34054 0.0
N3605 N 0.73624 0.27946 0.33056 0.0
H3606 H 0.99687 0.51818 0.59864 0.0
H3607 H 0.92438 0.44336 0.59985 0.0
H3608 H 0.9411 0.52515 0.61366 0.0
H3609 H 0.98005 0.43763 0.58401 0.0
H3610 H 0.93078 0.47246 0.60773 0.0
H3611 H 0.99144 0.48816 0.59586 0.0
C3612 C 0.9834 0.51338 0.60131 0.0
C3613 C 0.9693 0.52431 0.60605 0.0
C3614 C 0.94165 0.46481 0.6027 0.0
C3615 C 0.96302 0.48962 0.60305 0.0
C3616 C 0.93802 0.44817 0.59817 0.0
C3617 C 0.95166 0.43802 0.59107 0.0
C3618 C 0.95908 0.47146 0.60009 0.0
C3619 C 0.96913 0.4449 0.58949 0.0
C3620 C 0.98035 0.49617 0.59981 0.0
C3621 C 0.95232 0.51724 0.60986 0.0
N3622 N 0.97227 0.4612 0.59378 0.0
N3623 N 0.9496 0.50036 0.60811 0.0
H3624 H 0.80902 0.24966 0.70581 0.0
H3625 H 0.72033 0.26883 0.64971 0.0
H3626 H 0.79145 0.29955 0.69229 0.0
H3627 H 0.73645 0.21896 0.66434 0.0
H3628 H 0.74581 0.28032 0.66594 0.0
H3629 H 0.78271 0.23812 0.69081 0.0
C3630 C 0.79976 0.25821 0.69961 0.0
C3631 C 0.80256 0.27567 0.70047 0.0
C3632 C 0.74367 0.26687 0.66583 0.0
C3633 C 0.7721 0.26247 0.68334 0.0
C3634 C 0.72895 0.26034 0.65673 0.0
C3635 C 0.72596 0.24294 0.65606 0.0
C3636 C 0.75572 0.25594 0.67418 0.0
C3637 C 0.73809 0.23247 0.6648 0.0
C3638 C 0.78461 0.2516 0.69114 0.0
C3639 C 0.78983 0.28604 0.69228 0.0
N3640 N 0.7524 0.2391 0.67344 0.0
N3641 N 0.77526 0.27932 0.68412 0.0
H3642 H 0.92471 0.57041 0.9145 0.0
H3643 H 0.9971 0.49554 0.91734 0.0
H3644 H 0.98004 0.57619 0.93132 0.0
H3645 H 0.94169 0.48862 0.90113 0.0
H3646 H 0.99158 0.52554 0.92011 0.0
H3647 H 0.93124 0.54125 0.90694 0.0
C3648 C 0.93831 0.5656 0.91645 0.0
C3649 C 0.95181 0.57578 0.92372 0.0
C3650 C 0.98059 0.51754 0.91591 0.0
C3651 C 0.95937 0.54227 0.91509 0.0
C3652 C 0.98368 0.50033 0.91443 0.0
C3653 C 0.96971 0.48942 0.90933 0.0
C3654 C 0.96335 0.5241 0.91228 0.0
C3655 C 0.95282 0.4965 0.90521 0.0
C3656 C 0.94201 0.54893 0.91212 0.0
C3657 C 0.96923 0.5689 0.92569 0.0
N3658 N 0.95006 0.51338 0.90694 0.0
N3659 N 0.97244 0.55256 0.92157 0.0
H3660 H 0.70268 0.76408 0.20638 0.0
H3661 H 0.79088 0.74513 0.14953 0.0
H3662 H 0.71993 0.71427 0.19223 0.0
H3663 H 0.7748 0.79495 0.16433 0.0
H3664 H 0.7655 0.73358 0.16587 0.0
H3665 H 0.72887 0.77569 0.19125 0.0
C3666 C 0.71184 0.75556 0.20001 0.0
C3667 C 0.70899 0.7381 0.20073 0.0
C3668 C 0.76763 0.74704 0.16577 0.0
C3669 C 0.73932 0.75138 0.18345 0.0
C3670 C 0.78228 0.7536 0.1566 0.0
C3671 C 0.78526 0.77099 0.15595 0.0
C3672 C 0.75563 0.75794 0.17421 0.0
C3673 C 0.77318 0.78144 0.16477 0.0
C3674 C 0.72692 0.76221 0.19147 0.0
C3675 C 0.72161 0.72777 0.19234 0.0
N3676 N 0.75893 0.77479 0.17348 0.0
N3677 N 0.73611 0.73453 0.18411 0.0
H3678 H 0.51318 0.51697 0.41435 0.0
H3679 H 0.58656 0.44287 0.41442 0.0
H3680 H 0.56942 0.52469 0.40131 0.0
H3681 H 0.53077 0.43676 0.4298 0.0
H3682 H 0.57999 0.47192 0.40649 0.0
H3683 H 0.51889 0.48699 0.41706 0.0
C3684 C 0.5268 0.51235 0.41209 0.0
C3685 C 0.54095 0.52347 0.40795 0.0
C3686 C 0.56914 0.46419 0.41143 0.0
C3687 C 0.54756 0.48884 0.41087 0.0
C3688 C 0.57286 0.44758 0.41599 0.0
C3689 C 0.55923 0.43734 0.42298 0.0
C3690 C 0.55163 0.47072 0.41387 0.0
C3691 C 0.54169 0.44409 0.42441 0.0
C3692 C 0.53002 0.49516 0.41356 0.0
C3693 C 0.55815 0.51662 0.40465 0.0
N3694 N 0.53845 0.46037 0.42006 0.0
N3695 N 0.56103 0.49976 0.40635 0.0
H3696 H 0.82046 0.82006 0.67848 0.0
H3697 H 0.8185 0.75553 0.75632 0.0
H3698 H 0.78086 0.82269 0.71817 0.0
H3699 H 0.85196 0.7484 0.7126 0.0
H3700 H 0.8051 0.78059 0.74313 0.0
H3701 H 0.83331 0.79469 0.69153 0.0
C3702 C 0.81466 0.81539 0.69008 0.0
C3703 C 0.79972 0.82356 0.69735 0.0
C3704 C 0.81524 0.77348 0.73632 0.0
C3705 C 0.81415 0.7944 0.7123 0.0
C3706 C 0.82277 0.75912 0.7438 0.0
C3707 C 0.83614 0.74982 0.73542 0.0
C3708 C 0.82131 0.77872 0.72038 0.0
C3709 C 0.8415 0.75515 0.71936 0.0
C3710 C 0.82188 0.80085 0.69747 0.0
C3711 C 0.79253 0.81688 0.71228 0.0
N3712 N 0.83416 0.76927 0.71241 0.0
N3713 N 0.79979 0.80274 0.71924 0.0
H3714 H 0.32025 0.69291 0.33383 0.0
H3715 H 0.31734 0.75968 0.25795 0.0
H3716 H 0.27936 0.69216 0.29521 0.0
H3717 H 0.35209 0.76504 0.30106 0.0
H3718 H 0.30379 0.7345 0.27076 0.0
H3719 H 0.33322 0.71842 0.32119 0.0
C3720 C 0.31419 0.69802 0.32254 0.0
C3721 C 0.29886 0.69033 0.31545 0.0
C3722 C 0.31425 0.74125 0.27753 0.0
C3723 C 0.31342 0.71967 0.30097 0.0
C3724 C 0.32187 0.75568 0.27026 0.0
C3725 C 0.33567 0.7645 0.27857 0.0
C3726 C 0.32065 0.73546 0.29316 0.0
C3727 C 0.34132 0.75865 0.29436 0.0
C3728 C 0.32148 0.71264 0.31539 0.0
C3729 C 0.29134 0.69758 0.30093 0.0
N3730 N 0.33389 0.74447 0.30109 0.0
N3731 N 0.29868 0.71179 0.29419 0.0
H3732 H 0.48639 0.10073 0.46866 0.0
H3733 H 0.54204 0.07247 0.55087 0.0
H3734 H 0.47163 0.11517 0.51893 0.0
H3735 H 0.55836 0.05923 0.50056 0.0
H3736 H 0.51584 0.08736 0.53941 0.0
H3737 H 0.512 0.08451 0.48001 0.0
C3738 C 0.48834 0.10017 0.48214 0.0
C3739 C 0.47657 0.10895 0.49289 0.0
C3740 C 0.52512 0.08122 0.53084 0.0
C3741 C 0.50621 0.09075 0.50603 0.0
C3742 C 0.54013 0.07262 0.53739 0.0
C3743 C 0.55253 0.06439 0.52673 0.0
C3744 C 0.52226 0.08171 0.5134 0.0
C3745 C 0.54935 0.06543 0.50932 0.0
C3746 C 0.50305 0.09102 0.48861 0.0
C3747 C 0.48001 0.10818 0.51022 0.0
N3748 N 0.53456 0.07383 0.50324 0.0
N3749 N 0.49448 0.09929 0.51623 0.0
H3750 H 0.19198 0.32211 0.83333 0.0
H3751 H 0.195 0.25497 0.75777 0.0
H3752 H 0.23323 0.32244 0.79501 0.0
H3753 H 0.16008 0.24991 0.8008 0.0
H3754 H 0.20864 0.28014 0.77055 0.0
H3755 H 0.17899 0.29659 0.82073 0.0
C3756 C 0.19812 0.31691 0.82211 0.0
C3757 C 0.21356 0.32448 0.81509 0.0
C3758 C 0.19812 0.27346 0.7773 0.0
C3759 C 0.19896 0.29513 0.80067 0.0
C3760 C 0.19045 0.25904 0.77006 0.0
C3761 C 0.17656 0.25031 0.77835 0.0
C3762 C 0.19169 0.27933 0.7929 0.0
C3763 C 0.1709 0.25623 0.79411 0.0
C3764 C 0.19081 0.30227 0.81499 0.0
C3765 C 0.22117 0.31711 0.80068 0.0
N3766 N 0.17838 0.2704 0.80081 0.0
N3767 N 0.21381 0.30289 0.79395 0.0
H3768 H 0.46978 0.44176 0.55097 0.0
H3769 H 0.52494 0.4136 0.46846 0.0
H3770 H 0.45314 0.45503 0.50075 0.0
H3771 H 0.54001 0.39913 0.51864 0.0
H3772 H 0.49945 0.42987 0.47996 0.0
H3773 H 0.49596 0.42695 0.53937 0.0
C3774 C 0.47162 0.44164 0.53748 0.0
C3775 C 0.45914 0.44984 0.52688 0.0
C3776 C 0.50844 0.42335 0.48851 0.0
C3777 C 0.48938 0.43262 0.51339 0.0
C3778 C 0.52309 0.41418 0.48195 0.0
C3779 C 0.53489 0.40536 0.49264 0.0
C3780 C 0.50539 0.4236 0.50595 0.0
C3781 C 0.53159 0.40614 0.50999 0.0
C3782 C 0.48661 0.43308 0.53085 0.0
C3783 C 0.46222 0.44884 0.50946 0.0
N3784 N 0.51717 0.41505 0.51607 0.0
N3785 N 0.47701 0.44048 0.5033 0.0
H3786 H 0.68057 0.27505 0.21164 0.0
H3787 H 0.69091 0.18058 0.20502 0.0
H3788 H 0.6786 0.25053 0.25986 0.0
H3789 H 0.74188 0.2067 0.19987 0.0
H3790 H 0.67793 0.20584 0.21852 0.0
H3791 H 0.69559 0.25005 0.19989 0.0
C3792 C 0.6838 0.26468 0.21989 0.0
C3793 C 0.67899 0.2652 0.23697 0.0
C3794 C 0.69195 0.20593 0.21441 0.0
C3795 C 0.69486 0.23615 0.22324 0.0
C3796 C 0.69936 0.19158 0.20678 0.0
C3797 C 0.71747 0.19155 0.20123 0.0
C3798 C 0.7026 0.22047 0.21611 0.0
C3799 C 0.7278 0.20623 0.20377 0.0
C3800 C 0.69206 0.25032 0.21309 0.0
C3801 C 0.68241 0.25079 0.24673 0.0
N3802 N 0.72016 0.22016 0.21078 0.0
N3803 N 0.68995 0.2368 0.23971 0.0
H3804 H 0.48513 0.9139 0.04561 0.0
H3805 H 0.54064 0.94177 0.96319 0.0
H3806 H 0.47023 0.89934 0.99541 0.0
H3807 H 0.55684 0.95557 0.01339 0.0
H3808 H 0.51447 0.92694 0.97477 0.0
H3809 H 0.51066 0.93015 0.03415 0.0
C3810 C 0.48704 0.91444 0.03212 0.0
C3811 C 0.47526 0.90561 0.02142 0.0
C3812 C 0.52371 0.93319 0.98329 0.0
C3813 C 0.50481 0.92384 0.00816 0.0
C3814 C 0.53871 0.94176 0.97667 0.0
C3815 C 0.55107 0.95012 0.98727 0.0
C3816 C 0.52083 0.93287 1.00073 0.0
C3817 C 0.54786 0.94925 1.00468 0.0
C3818 C 0.50169 0.92361 0.02559 0.0
C3819 C 0.47863 0.90636 1.00408 0.0
N3820 N 0.53308 0.94088 0.01083 0.0
N3821 N 0.49306 0.91526 0.99801 0.0
H3822 H 0.041 0.11491 0.49577 0.0
H3823 H 0.95247 0.05853 0.51483 0.0
H3824 H 0.02476 0.10037 0.54563 0.0
H3825 H 0.97016 0.07195 0.46495 0.0
H3826 H 0.97866 0.07368 0.5264 0.0
H3827 H 0.0156 0.09858 0.48425 0.0
C3828 C 0.03236 0.1079 0.50426 0.0
C3829 C 0.03531 0.10861 0.52166 0.0
C3830 C 0.97682 0.0733 0.51292 0.0
C3831 C 1.00564 0.09038 0.50862 0.0
C3832 C 0.96173 0.06474 0.50629 0.0
C3833 C 0.959 0.06381 0.48882 0.0
C3834 C 0.98933 0.08112 0.50207 0.0
C3835 C 0.97174 0.07201 0.47846 0.0
C3836 C 0.01769 0.09874 0.49771 0.0
C3837 C 0.02317 0.09988 0.53212 0.0
N3838 N 0.98624 0.08025 0.48521 0.0
N3839 N 0.0089 0.09118 0.52547 0.0
H3840 H 0.10826 0.42646 0.4471 0.0
H3841 H 0.16664 0.36922 0.38435 0.0
H3842 H 0.13881 0.44661 0.40567 0.0
H3843 H 0.13022 0.34877 0.42134 0.0
H3844 H 0.15532 0.39751 0.39083 0.0
H3845 H 0.11467 0.39793 0.43695 0.0
C3846 C 0.11598 0.42483 0.43564 0.0
C3847 C 0.12271 0.43888 0.42702 0.0
C3848 C 0.14954 0.38685 0.39735 0.0
C3849 C 0.13062 0.40625 0.41553 0.0
C3850 C 0.15593 0.3707 0.39357 0.0
C3851 C 0.14908 0.35664 0.40208 0.0
C3852 C 0.1364 0.38905 0.41 0.0
C3853 C 0.13556 0.35926 0.41424 0.0
C3854 C 0.11974 0.40856 0.42988 0.0
C3855 C 0.13305 0.4361 0.41247 0.0
N3856 N 0.12977 0.37512 0.41792 0.0
N3857 N 0.1368 0.42015 0.40726 0.0
H3858 H 0.92917 0.86609 0.62789 0.0
H3859 H 0.83083 0.90929 0.63382 0.0
H3860 H 0.91912 0.91942 0.62637 0.0
H3861 H 0.83819 0.85568 0.63682 0.0
H3862 H 0.86309 0.91251 0.62772 0.0
H3863 H 0.89605 0.86123 0.62811 0.0
C3864 C 0.92003 0.87674 0.62746 0.0
C3865 C 0.92693 0.89319 0.62743 0.0
C3866 C 0.85771 0.89999 0.62953 0.0
C3867 C 0.88917 0.88777 0.6276 0.0
C3868 C 0.83924 0.89816 0.63297 0.0
C3869 C 0.83181 0.88221 0.63592 0.0
C3870 C 0.86907 0.88578 0.62919 0.0
C3871 C 0.84335 0.8682 0.63454 0.0
C3872 C 0.90115 0.87397 0.62763 0.0
C3873 C 0.91445 0.90653 0.62681 0.0
N3874 N 0.86146 0.87031 0.63148 0.0
N3875 N 0.89631 0.90353 0.627 0.0
H3876 H 0.38073 0.66707 0.92238 0.0
H3877 H 0.37409 0.56768 0.90497 0.0
H3878 H 0.34662 0.64528 0.88429 0.0
H3879 H 0.40241 0.58903 0.94716 0.0
H3880 H 0.36764 0.59615 0.89461 0.0
H3881 H 0.39263 0.63898 0.92895 0.0
C3882 C 0.37617 0.65641 0.91507 0.0
C3883 C 0.36296 0.65852 0.90254 0.0
C3884 C 0.37552 0.59465 0.906 0.0
C3885 C 0.37608 0.62621 0.91029 0.0
C3886 C 0.37934 0.5784 0.9118 0.0
C3887 C 0.3891 0.57603 0.92676 0.0
C3888 C 0.38139 0.60871 0.91525 0.0
C3889 C 0.39509 0.59034 0.93543 0.0
C3890 C 0.38279 0.64034 0.91894 0.0
C3891 C 0.35703 0.6442 0.89384 0.0
N3892 N 0.39111 0.60603 0.9296 0.0
N3893 N 0.36355 0.62869 0.8979 0.0
H3894 H 0.66932 0.13361 0.17439 0.0
H3895 H 0.58793 0.12557 0.10796 0.0
H3896 H 0.67851 0.13231 0.1209 0.0
H3897 H 0.58146 0.12319 0.16172 0.0
H3898 H 0.62051 0.1311 0.11191 0.0
H3899 H 0.63679 0.13245 0.16946 0.0
C3900 C 0.66451 0.13295 0.16156 0.0
C3901 C 0.6768 0.13271 0.14805 0.0
C3902 C 0.61191 0.12953 0.12283 0.0
C3903 C 0.63914 0.13165 0.14225 0.0
C3904 C 0.59328 0.12653 0.12059 0.0
C3905 C 0.58194 0.12383 0.13453 0.0
C3906 C 0.61922 0.12992 0.13914 0.0
C3907 C 0.58969 0.125 0.1506 0.0
C3908 C 0.64584 0.13242 0.15874 0.0
C3909 C 0.66959 0.13243 0.1317 0.0
N3910 N 0.60778 0.12786 0.15244 0.0
N3911 N 0.65124 0.13178 0.12925 0.0
H3912 H 0.13095 0.6663 0.09169 0.0
H3913 H 0.13823 0.56693 0.10913 0.0
H3914 H 0.16548 0.64472 0.12957 0.0
H3915 H 0.10934 0.58812 0.06719 0.0
H3916 H 0.14486 0.59544 0.11927 0.0
H3917 H 0.11936 0.63811 0.08505 0.0
C3918 C 0.1357 0.65565 0.09892 0.0
C3919 C 0.14891 0.65786 0.11144 0.0
C3920 C 0.13683 0.5939 0.10799 0.0
C3921 C 0.13612 0.62545 0.10362 0.0
C3922 C 0.13291 0.57762 0.1023 0.0
C3923 C 0.12292 0.57519 0.08749 0.0
C3924 C 0.13083 0.60792 0.09874 0.0
C3925 C 0.11684 0.58947 0.07881 0.0
C3926 C 0.12925 0.63953 0.09502 0.0
C3927 C 0.15508 0.64356 0.12004 0.0
N3928 N 0.1209 0.60518 0.08452 0.0
N3929 N 0.1487 0.628 0.11596 0.0
H3930 H 0.68101 0.91086 0.37617 0.0
H3931 H 0.58282 0.86795 0.3853 0.0
H3932 H 0.67368 0.85715 0.37648 0.0
H3933 H 0.59274 0.92133 0.38477 0.0
H3934 H 0.61589 0.86315 0.38449 0.0
H3935 H 0.64873 0.91443 0.38198 0.0
C3936 C 0.6726 0.89979 0.37765 0.0
C3937 C 0.68006 0.88369 0.37574 0.0
C3938 C 0.61077 0.8759 0.38461 0.0
C3939 C 0.64279 0.88765 0.38221 0.0
C3940 C 0.59191 0.87863 0.38511 0.0
C3941 C 0.58494 0.89507 0.38478 0.0
C3942 C 0.62271 0.8897 0.38394 0.0
C3943 C 0.5974 0.90844 0.38459 0.0
C3944 C 0.65412 0.90182 0.38095 0.0
C3945 C 0.66851 0.86979 0.37795 0.0
N3946 N 0.61555 0.90546 0.3841 0.0
N3947 N 0.65041 0.87208 0.38088 0.0
H3948 H 0.40331 0.4263 0.56713 0.0
H3949 H 0.34692 0.36882 0.63123 0.0
H3950 H 0.37385 0.44627 0.60932 0.0
H3951 H 0.38151 0.34854 0.59268 0.0
H3952 H 0.35826 0.39709 0.62472 0.0
H3953 H 0.39722 0.39773 0.57733 0.0
C3954 C 0.3959 0.42463 0.57877 0.0
C3955 C 0.38939 0.43864 0.58758 0.0
C3956 C 0.36366 0.38646 0.61787 0.0
C3957 C 0.38185 0.40595 0.59915 0.0
C3958 C 0.35727 0.37032 0.62168 0.0
C3959 C 0.36357 0.35631 0.61273 0.0
C3960 C 0.37624 0.38872 0.60475 0.0
C3961 C 0.37661 0.35897 0.60013 0.0
C3962 C 0.39233 0.40832 0.58455 0.0
C3963 C 0.37945 0.4358 0.60235 0.0
N3964 N 0.38239 0.37483 0.59643 0.0
N3965 N 0.37588 0.41981 0.6076 0.0
H3966 H 0.92401 0.12708 0.90728 0.0
H3967 H 0.84195 0.13448 0.84151 0.0
H3968 H 0.92982 0.1242 0.85347 0.0
H3969 H 0.83328 0.13475 0.89508 0.0
H3970 H 0.87453 0.13344 0.84618 0.0
H3971 H 0.89145 0.13291 0.9036 0.0
C3972 C 0.91852 0.12799 0.89469 0.0
C3973 C 0.92967 0.12505 0.88066 0.0
C3974 C 0.8656 0.13374 0.85698 0.0
C3975 C 0.8924 0.1315 0.87637 0.0
C3976 C 0.84691 0.13423 0.85431 0.0
C3977 C 0.83476 0.13435 0.86792 0.0
C3978 C 0.87246 0.13335 0.87342 0.0
C3979 C 0.84212 0.13456 0.88422 0.0
C3980 C 0.8999 0.13117 0.89261 0.0
C3981 C 0.92175 0.12618 0.86466 0.0
N3982 N 0.8605 0.13389 0.88653 0.0
N3983 N 0.90367 0.12921 0.86298 0.0
H3984 H 0.41657 0.13398 0.39489 0.0
H3985 H 0.35813 0.19696 0.33796 0.0
H3986 H 0.38027 0.17096 0.41553 0.0
H3987 H 0.38845 0.15547 0.31763 0.0
H3988 H 0.3646 0.18672 0.36645 0.0
H3989 H 0.40511 0.14049 0.36665 0.0
C3990 C 0.40585 0.14319 0.39347 0.0
C3991 C 0.39908 0.1517 0.40756 0.0
C3992 C 0.3696 0.17965 0.3558 0.0
C3993 C 0.38626 0.15967 0.37522 0.0
C3994 C 0.36581 0.18546 0.33954 0.0
C3995 C 0.37246 0.17686 0.32546 0.0
C3996 C 0.38044 0.16526 0.35804 0.0
C3997 C 0.38276 0.16227 0.32817 0.0
C3998 C 0.39938 0.147 0.37735 0.0
C3999 C 0.38555 0.16386 0.40502 0.0
N4000 N 0.38654 0.15701 0.3441 0.0
N4001 N 0.3797 0.16757 0.38918 0.0
H4002 H 0.09468 0.135 0.61979 0.0
H4003 H 0.15368 0.1976 0.67665 0.0
H4004 H 0.13113 0.17184 0.59911 0.0
H4005 H 0.12317 0.15625 0.69701 0.0
H4006 H 0.14704 0.18744 0.64817 0.0
H4007 H 0.10621 0.14146 0.64801 0.0
C4008 C 0.10544 0.14418 0.6212 0.0
C4009 C 0.11224 0.15265 0.6071 0.0
C4010 C 0.14204 0.18039 0.65883 0.0
C4011 C 0.12516 0.16055 0.63943 0.0
C4012 C 0.14593 0.18615 0.67508 0.0
C4013 C 0.13927 0.17756 0.68917 0.0
C4014 C 0.13109 0.16607 0.65659 0.0
C4015 C 0.12887 0.16303 0.68647 0.0
C4016 C 0.11195 0.14795 0.63731 0.0
C4017 C 0.12582 0.16477 0.60963 0.0
N4018 N 0.125 0.15782 0.67054 0.0
N4019 N 0.13173 0.16844 0.62546 0.0
H4020 H 0.13287 0.84244 0.91579 0.0
H4021 H 0.1251 0.8593 0.81634 0.0
H4022 H 0.09753 0.87963 0.89411 0.0
H4023 H 0.15361 0.81722 0.83767 0.0
H4024 H 0.11873 0.86969 0.84482 0.0
H4025 H 0.14441 0.83578 0.88759 0.0
C4026 C 0.1279 0.8495 0.9051 0.0
C4027 C 0.11449 0.86184 0.90729 0.0
C4028 C 0.12665 0.85833 0.84331 0.0
C4029 C 0.12727 0.85401 0.87488 0.0
C4030 C 0.13045 0.85252 0.82705 0.0
C4031 C 0.14021 0.83757 0.82467 0.0
C4032 C 0.13257 0.84909 0.85736 0.0
C4033 C 0.14631 0.82895 0.83898 0.0
C4034 C 0.13434 0.84559 0.88898 0.0
C4035 C 0.10808 0.87023 0.89297 0.0
N4036 N 0.14237 0.83479 0.85467 0.0
N4037 N 0.11447 0.86616 0.87741 0.0
H4038 H 0.37927 0.8428 0.09823 0.0
H4039 H 0.38828 0.85893 0.19769 0.0
H4040 H 0.4158 0.87902 0.11987 0.0
H4041 H 0.35832 0.81771 0.17635 0.0
H4042 H 0.39484 0.86923 0.16922 0.0
H4043 H 0.36779 0.83622 0.12647 0.0
C4044 C 0.38451 0.84968 0.10892 0.0
C4045 C 0.39823 0.86171 0.10671 0.0
C4046 C 0.38659 0.85808 0.17073 0.0
C4047 C 0.38555 0.85397 0.13916 0.0
C4048 C 0.3827 0.85231 0.18698 0.0
C4049 C 0.37245 0.83764 0.18935 0.0
C4050 C 0.38027 0.84907 0.15668 0.0
C4051 C 0.36602 0.82922 0.17504 0.0
C4052 C 0.37811 0.84581 0.12506 0.0
C4053 C 0.405 0.86986 0.12104 0.0
N4054 N 0.37005 0.83501 0.15936 0.0
N4055 N 0.39864 0.86583 0.13661 0.0
H4056 H 0.43117 0.38611 0.16027 0.0
H4057 H 0.33277 0.37866 0.11742 0.0
H4058 H 0.42358 0.38797 0.10663 0.0
H4059 H 0.34288 0.3781 0.17077 0.0
H4060 H 0.36583 0.37933 0.11253 0.0
H4061 H 0.39891 0.38011 0.16373 0.0
C4062 C 0.42271 0.38504 0.14919 0.0
C4063 C 0.43008 0.38763 0.13315 0.0
C4064 C 0.36076 0.37899 0.12529 0.0
C4065 C 0.39284 0.38099 0.13699 0.0
C4066 C 0.3419 0.37857 0.12807 0.0
C4067 C 0.335 0.37865 0.14453 0.0
C4068 C 0.37275 0.37931 0.13907 0.0
C4069 C 0.3475 0.37847 0.15787 0.0
C4070 C 0.40424 0.38165 0.15115 0.0
C4071 C 0.41848 0.38597 0.11922 0.0
N4072 N 0.36564 0.37889 0.15484 0.0
N4073 N 0.40038 0.38295 0.12146 0.0
H4074 H 0.87261 0.94737 0.10803 0.0
H4075 H 0.88091 0.84778 0.09215 0.0
H4076 H 0.90281 0.92578 0.06709 0.0
H4077 H 0.8445 0.86973 0.12829 0.0
H4078 H 0.89244 0.87596 0.08538 0.0
H4079 H 0.86549 0.91896 0.11816 0.0
C4080 C 0.87808 0.93661 0.10141 0.0
C4081 C 0.8886 0.9389 0.0869 0.0
C4082 C 0.88213 0.87463 0.09498 0.0
C4083 C 0.88018 0.90628 0.09815 0.0
C4084 C 0.8757 0.85853 0.09896 0.0
C4085 C 0.86201 0.85642 0.11104 0.0
C4086 C 0.87476 0.8888 0.10308 0.0
C4087 C 0.85528 0.87082 0.11911 0.0
C4088 C 0.8739 0.92039 0.1071 0.0
C4089 C 0.8949 0.92454 0.07849 0.0
N4090 N 0.86168 0.88636 0.11498 0.0
N4091 N 0.89059 0.90888 0.0842 0.0
H4092 H 0.1803 0.60288 0.63577 0.0
H4093 H 0.08224 0.64638 0.62849 0.0
H4094 H 0.17309 0.65657 0.63778 0.0
H4095 H 0.09197 0.59298 0.62748 0.0
H4096 H 0.11535 0.65106 0.62913 0.0
H4097 H 0.14804 0.59965 0.62966 0.0
C4098 C 0.17192 0.61402 0.63471 0.0
C4099 C 0.17939 0.63 0.63738 0.0
C4100 C 0.11018 0.63834 0.6287 0.0
C4101 C 0.14216 0.62642 0.63061 0.0
C4102 C 0.09131 0.63568 0.6283 0.0
C4103 C 0.0843 0.61926 0.62827 0.0
C4104 C 0.12207 0.62448 0.6289 0.0
C4105 C 0.0967 0.60585 0.62794 0.0
C4106 C 0.15345 0.61219 0.63126 0.0
C4107 C 0.1679 0.64402 0.63572 0.0
N4108 N 0.11485 0.60875 0.62835 0.0
N4109 N 0.1498 0.6419 0.63265 0.0
H4110 H 0.60753 0.92629 0.94673 0.0
H4111 H 0.6666 0.86982 0.88383 0.0
H4112 H 0.63804 0.94688 0.90549 0.0
H4113 H 0.63022 0.8489 0.92058 0.0
H4114 H 0.65502 0.89799 0.89042 0.0
H4115 H 0.61423 0.89786 0.93644 0.0
C4116 C 0.61531 0.92478 0.93528 0.0
C4117 C 0.62194 0.93892 0.92675 0.0
C4118 C 0.6493 0.88725 0.89686 0.0
C4119 C 0.63018 0.90641 0.91511 0.0
C4120 C 0.65584 0.87117 0.89301 0.0
C4121 C 0.64908 0.85702 0.90142 0.0
C4122 C 0.6361 0.88928 0.90949 0.0
C4123 C 0.63549 0.85947 0.91355 0.0
C4124 C 0.61923 0.90856 0.92945 0.0
C4125 C 0.63236 0.9363 0.91222 0.0
N4126 N 0.62956 0.87527 0.91731 0.0
N4127 N 0.63626 0.9204 0.90694 0.0
H4128 H 0.84486 0.14471 0.38459 0.0
H4129 H 0.90299 0.08775 0.44785 0.0
H4130 H 0.88092 0.16535 0.42177 0.0
H4131 H 0.87285 0.06743 0.40625 0.0
H4132 H 0.89647 0.11625 0.43765 0.0
H4133 H 0.85619 0.11645 0.39124 0.0
C4134 C 0.8555 0.14328 0.39388 0.0
C4135 C 0.86224 0.15738 0.40239 0.0
C4136 C 0.89151 0.10559 0.43056 0.0
C4137 C 0.87493 0.12502 0.41052 0.0
C4138 C 0.89533 0.08934 0.43634 0.0
C4139 C 0.88876 0.07525 0.42769 0.0
C4140 C 0.88073 0.10784 0.41613 0.0
C4141 C 0.87849 0.07797 0.41308 0.0
C4142 C 0.86189 0.12715 0.39777 0.0
C4143 C 0.87566 0.15483 0.41466 0.0
N4144 N 0.87469 0.0939 0.40784 0.0
N4145 N 0.88146 0.13899 0.41844 0.0
H4146 H 0.66683 0.14475 0.62987 0.0
H4147 H 0.60844 0.0876 0.56706 0.0
H4148 H 0.63042 0.16525 0.5929 0.0
H4149 H 0.63898 0.0674 0.60846 0.0
H4150 H 0.61486 0.11612 0.57725 0.0
H4151 H 0.6555 0.11647 0.62338 0.0
C4152 C 0.65612 0.14329 0.62066 0.0
C4153 C 0.64928 0.15736 0.61216 0.0
C4154 C 0.61992 0.10548 0.5843 0.0
C4155 C 0.63658 0.12496 0.60421 0.0
C4156 C 0.61616 0.08922 0.57853 0.0
C4157 C 0.62289 0.07516 0.58712 0.0
C4158 C 0.6308 0.10777 0.59866 0.0
C4159 C 0.63323 0.07791 0.60168 0.0
C4160 C 0.64972 0.12714 0.61687 0.0
C4161 C 0.63576 0.15476 0.6 0.0
N4162 N 0.63697 0.09386 0.60691 0.0
N4163 N 0.62996 0.1389 0.5963 0.0
H4164 H 0.08068 0.38869 0.85321 0.0
H4165 H 0.17899 0.37976 0.8959 0.0
H4166 H 0.08813 0.388 0.9069 0.0
H4167 H 0.16896 0.38025 0.84253 0.0
H4168 H 0.14593 0.38046 0.90075 0.0
H4169 H 0.11298 0.38304 0.84954 0.0
C4170 C 0.08912 0.38716 0.86425 0.0
C4171 C 0.08169 0.38891 0.88038 0.0
C4172 C 0.15102 0.38036 0.88799 0.0
C4173 C 0.11897 0.38263 0.8763 0.0
C4174 C 0.16987 0.37993 0.88522 0.0
C4175 C 0.17681 0.38027 0.86878 0.0
C4176 C 0.13906 0.381 0.87421 0.0
C4177 C 0.16432 0.38043 0.85543 0.0
C4178 C 0.10761 0.38396 0.86217 0.0
C4179 C 0.09328 0.38665 0.89424 0.0
N4180 N 0.14618 0.38086 0.85844 0.0
N4181 N 0.11139 0.38383 0.8919 0.0
H4182 H 0.33298 0.6354 0.39677 0.0
H4183 H 0.4315 0.62802 0.35417 0.0
H4184 H 0.34322 0.6358 0.34345 0.0
H4185 H 0.42379 0.62645 0.40781 0.0
H4186 H 0.39924 0.63395 0.35061 0.0
H4187 H 0.36603 0.63486 0.40173 0.0
C4188 C 0.34215 0.63547 0.38614 0.0
C4189 C 0.33528 0.63531 0.36967 0.0
C4190 C 0.40454 0.63249 0.36321 0.0
C4191 C 0.37302 0.63481 0.37521 0.0
C4192 C 0.42301 0.62914 0.36523 0.0
C4193 C 0.43034 0.62665 0.3813 0.0
C4194 C 0.3931 0.6332 0.37734 0.0
C4195 C 0.4187 0.62837 0.3952 0.0
C4196 C 0.36099 0.63514 0.38896 0.0
C4197 C 0.34782 0.63548 0.35636 0.0
N4198 N 0.40061 0.63134 0.3929 0.0
N4199 N 0.36595 0.63514 0.35942 0.0
H4200 H 0.91688 0.63459 0.89472 0.0
H4201 H 0.85852 0.69754 0.83765 0.0
H4202 H 0.88067 0.6717 0.91527 0.0
H4203 H 0.88895 0.65608 0.8174 0.0
H4204 H 0.86499 0.68735 0.86616 0.0
H4205 H 0.90551 0.64112 0.86645 0.0
C4206 C 0.90621 0.64384 0.89327 0.0
C4207 C 0.89943 0.65237 0.90735 0.0
C4208 C 0.87001 0.68028 0.85552 0.0
C4209 C 0.88669 0.66036 0.87497 0.0
C4210 C 0.86622 0.68606 0.83925 0.0
C4211 C 0.8729 0.67745 0.82518 0.0
C4212 C 0.88088 0.66592 0.85779 0.0
C4213 C 0.88323 0.66288 0.82792 0.0
C4214 C 0.89979 0.64766 0.87713 0.0
C4215 C 0.88596 0.66459 0.90477 0.0
N4216 N 0.887 0.65765 0.84387 0.0
N4217 N 0.88014 0.66829 0.88892 0.0
H4218 H 0.6344 0.66969 0.097 0.0
H4219 H 0.6522 0.69938 0.17774 0.0
H4220 H 0.5944 0.63828 0.12081 0.0
H4221 H 0.62446 0.65537 0.19576 0.0
H4222 H 0.64643 0.69047 0.1489 0.0
H4223 H 0.64674 0.6768 0.12459 0.0
C4224 C 0.62844 0.66404 0.10808 0.0
C4225 C 0.61356 0.65314 0.10659 0.0
C4226 C 0.64205 0.68236 0.159 0.0
C4227 C 0.62688 0.66205 0.13857 0.0
C4228 C 0.64535 0.68754 0.17554 0.0
C4229 C 0.63922 0.67789 0.18914 0.0
C4230 C 0.63233 0.66742 0.15593 0.0
C4231 C 0.62984 0.66294 0.18562 0.0
C4232 C 0.63524 0.66839 0.12395 0.0
C4233 C 0.60604 0.64657 0.12141 0.0
N4234 N 0.62658 0.65825 0.16941 0.0
N4235 N 0.61272 0.65115 0.13673 0.0
H4236 H 0.65226 0.31605 0.33745 0.0
H4237 H 0.594 0.37886 0.39479 0.0
H4238 H 0.62242 0.35799 0.31744 0.0
H4239 H 0.63 0.34151 0.41523 0.0
H4240 H 0.60535 0.37239 0.36651 0.0
H4241 H 0.64549 0.32589 0.36603 0.0
C4242 C 0.64459 0.32754 0.33912 0.0
C4243 C 0.63819 0.3364 0.3251 0.0
C4244 C 0.61103 0.36578 0.37717 0.0
C4245 C 0.6299 0.34756 0.35777 0.0
C4246 C 0.60462 0.36957 0.39331 0.0
C4247 C 0.61135 0.36096 0.40736 0.0
C4248 C 0.62406 0.35303 0.37497 0.0
C4249 C 0.62475 0.34869 0.40474 0.0
C4250 C 0.64064 0.33312 0.35542 0.0
C4251 C 0.62792 0.35099 0.32793 0.0
N4252 N 0.63056 0.34501 0.38889 0.0
N4253 N 0.624 0.35604 0.3439 0.0
H4254 H 0.8888 0.35855 0.69757 0.0
H4255 H 0.88038 0.34224 0.59808 0.0
H4256 H 0.85932 0.31707 0.67619 0.0
H4257 H 0.91661 0.37866 0.61982 0.0
H4258 H 0.86888 0.33558 0.62629 0.0
H4259 H 0.8955 0.3688 0.66911 0.0
C4260 C 0.88336 0.35185 0.68685 0.0
C4261 C 0.8732 0.33713 0.68921 0.0
C4262 C 0.87913 0.34523 0.62491 0.0
C4263 C 0.88116 0.34851 0.65654 0.0
C4264 C 0.88555 0.34914 0.60878 0.0
C4265 C 0.89919 0.36125 0.60661 0.0
C4266 C 0.88647 0.35342 0.63903 0.0
C4267 C 0.90586 0.36944 0.62095 0.0
C4268 C 0.88732 0.35759 0.6706 0.0
C4269 C 0.86695 0.32862 0.67489 0.0
N4270 N 0.89949 0.36537 0.63652 0.0
N4271 N 0.87104 0.33439 0.65921 0.0
loop_
_geom_bond_atom_site_label_1
_geom_bond_atom_site_label_2
_geom_bond_distance
_geom_bond_site_symmetry_2
_ccdc_geom_bond_type
C0 C1 1.443 . S
C0 N4 1.376 . S
C0 C38 1.389 . S
C1 C0 1.443 . S
C1 C2 1.340 . S
C1 H41 0.951 . S
C2 C1 1.340 . S
C2 C3 1.439 . S
C2 H42 0.950 . S
C3 C2 1.439 . S
C3 N4 1.374 . S
C3 C37 1.395 . S
N4 C0 1.376 . S
N4 C3 1.374 . S
N4 Co5 2.008 . S
Co5 N4 2.008 . S
Co5 N6 1.995 . S
Co5 N11 2.008 . S
Co5 N16 1.995 . S
Co5 N21 2.282 . S
Co5 N27 2.282 . S
N6 Co5 1.995 . S
N6 C7 1.376 . S
N6 C10 1.383 . S
C7 N6 1.376 . S
C7 C8 1.446 . S
C7 C37 1.391 . S
C8 C7 1.446 . S
C8 C9 1.339 . S
C8 H43 0.949 . S
C9 C8 1.339 . S
C9 C10 1.439 . S
C9 H44 0.950 . S
C10 N6 1.383 . S
C10 C9 1.439 . S
C10 C39 1.392 . S
N11 Co5 2.008 . S
N11 C12 1.376 . S
N11 C15 1.374 . S
C12 N11 1.376 . S
C12 C13 1.443 . S
C12 C39 1.389 . S
C13 C12 1.443 . S
C13 C14 1.340 . S
C13 H45 0.951 . S
C14 C13 1.340 . S
C14 C15 1.439 . S
C14 H46 0.950 . S
C15 N11 1.374 . S
C15 C14 1.439 . S
C15 C40 1.395 . S
N16 Co5 1.995 . S
N16 C17 1.376 . S
N16 C20 1.383 . S
C17 N16 1.376 . S
C17 C18 1.446 . S
C17 C40 1.391 . S
C18 C17 1.446 . S
C18 C19 1.339 . S
C18 H47 0.949 . S
C19 C18 1.339 . S
C19 C20 1.439 . S
C19 H48 0.950 . S
C20 N16 1.383 . S
C20 C19 1.439 . S
C20 C38 1.392 . S
N21 Co5 2.282 . S
N21 C24 1.332 . S
N21 C26 1.332 . S
C22 C23 1.386 . S
C22 C25 1.388 . S
C23 C22 1.386 . S
C23 C24 1.382 . S
C23 H49 0.950 . S
C24 N21 1.332 . S
C24 C23 1.382 . S
C24 H35 0.952 . S
C25 C22 1.388 . S
C25 C26 1.382 . S
C25 H50 0.950 . S
C26 N21 1.332 . S
C26 C25 1.382 . S
C26 H36 0.948 . S
N27 Co5 2.282 . S
N27 C31 1.332 . S
N27 C32 1.332 . S
C28 C29 1.388 . S
C28 C32 1.382 . S
C28 H51 0.950 . S
C29 C28 1.388 . S
C29 C30 1.386 . S
C30 C29 1.386 . S
C30 C31 1.382 . S
C30 H52 0.950 . S
C31 N27 1.332 . S
C31 C30 1.382 . S
C31 H33 0.952 . S
C32 N27 1.332 . S
C32 C28 1.382 . S
C32 H34 0.948 . S
H33 C31 0.952 . S
H34 C32 0.948 . S
H35 C24 0.952 . S
H36 C26 0.948 . S
C37 C3 1.395 . S
C37 C7 1.391 . S
C38 C0 1.389 . S
C38 C20 1.392 . S
C39 C10 1.392 . S
C39 C12 1.389 . S
C40 C15 1.395 . S
C40 C17 1.391 . S
H41 C1 0.951 . S
H42 C2 0.950 . S
H43 C8 0.949 . S
H44 C9 0.950 . S
H45 C13 0.951 . S
H46 C14 0.950 . S
H47 C18 0.949 . S
H48 C19 0.950 . S
H49 C23 0.950 . S
H50 C25 0.950 . S
H51 C28 0.950 . S
H52 C30 0.950 . S
C53 C54 1.443 . S
C53 N57 1.376 . S
C53 C91 1.389 . S
C54 C53 1.443 . S
C54 C55 1.340 . S
C54 H94 0.951 . S
C55 C54 1.340 . S
C55 C56 1.439 . S
C55 H95 0.950 . S
C56 C55 1.439 . S
C56 N57 1.374 . S
C56 C90 1.395 . S
N57 C53 1.376 . S
N57 C56 1.374 . S
N57 Co58 2.008 1_455 S
Co58 N57 2.008 1_655 S
Co58 N59 1.995 . S
Co58 N64 2.008 . S
Co58 N69 1.995 . S
Co58 N74 2.282 1_655 S
Co58 N80 2.282 . S
N59 Co58 1.995 . S
N59 C60 1.376 . S
N59 C63 1.383 . S
C60 N59 1.376 . S
C60 C61 1.446 . S
C60 C90 1.391 1_655 S
C61 C60 1.446 . S
C61 C62 1.339 . S
C61 H96 0.949 . S
C62 C61 1.339 . S
C62 C63 1.439 . S
C62 H97 0.950 . S
C63 N59 1.383 . S
C63 C62 1.439 . S
C63 C92 1.392 . S
N64 Co58 2.008 . S
N64 C65 1.376 . S
N64 C68 1.374 . S
C65 N64 1.376 . S
C65 C66 1.443 . S
C65 C92 1.389 . S
C66 C65 1.443 . S
C66 C67 1.340 . S
C66 H98 0.951 . S
C67 C66 1.340 . S
C67 C68 1.439 . S
C67 H99 0.950 . S
C68 N64 1.374 . S
C68 C67 1.439 . S
C68 C93 1.395 . S
N69 Co58 1.995 . S
N69 C70 1.376 . S
N69 C73 1.370 1_655 S
C70 N69 1.376 . S
C70 C71 1.446 . S
C70 C93 1.391 . S
C71 C70 1.446 . S
C71 C72 1.366 . S
C71 H100 0.949 . S
C72 C71 1.366 . S
C72 C73 1.436 1_655 S
C72 H101 0.930 1_655 S
C73 N69 1.370 1_455 S
C73 C72 1.436 1_455 S
C73 C91 1.405 . S
N74 Co58 2.282 1_455 S
N74 C77 1.332 . S
N74 C79 1.332 . S
C75 C76 1.386 . S
C75 C78 1.388 . S
C76 C75 1.386 . S
C76 C77 1.382 . S
C76 H102 0.950 . S
C77 N74 1.332 . S
C77 C76 1.382 . S
C77 H88 0.952 . S
C78 C75 1.388 . S
C78 C79 1.382 . S
C78 H103 0.950 . S
C79 N74 1.332 . S
C79 C78 1.382 . S
C79 H89 0.948 . S
N80 Co58 2.282 . S
N80 C84 1.332 . S
N80 C85 1.332 . S
C81 C82 1.388 . S
C81 C85 1.382 . S
C81 H104 0.950 . S
C82 C81 1.388 . S
C82 C83 1.386 . S
C83 C82 1.386 . S
C83 C84 1.382 . S
C83 H105 0.950 . S
C84 N80 1.332 . S
C84 C83 1.382 . S
C84 H86 0.952 . S
C85 N80 1.332 . S
C85 C81 1.382 . S
C85 H87 0.948 . S
H86 C84 0.952 . S
H87 C85 0.948 . S
H88 C77 0.952 . S
H89 C79 0.948 . S
C90 C56 1.395 . S
C90 C60 1.391 1_455 S
C91 C53 1.389 . S
C91 C73 1.405 . S
C92 C63 1.392 . S
C92 C65 1.389 . S
C93 C68 1.395 . S
C93 C70 1.391 . S
H94 C54 0.951 . S
H95 C55 0.950 . S
H96 C61 0.949 . S
H97 C62 0.950 . S
H98 C66 0.951 . S
H99 C67 0.950 . S
H100 C71 0.949 . S
H101 C72 0.930 1_455 S
H102 C76 0.950 . S
H103 C78 0.950 . S
H104 C81 0.950 . S
H105 C83 0.950 . S
C106 C107 1.443 . S
C106 N110 1.376 . S
C106 C144 1.389 . S
C107 C106 1.443 . S
C107 C108 1.340 . S
C107 H147 0.951 . S
C108 C107 1.340 . S
C108 C109 1.439 . S
C108 H148 0.950 . S
C109 C108 1.439 . S
C109 N110 1.374 . S
C109 C143 1.395 . S
N110 C106 1.376 . S
N110 C109 1.374 . S
N110 Co111 2.008 . S
Co111 N110 2.008 . S
Co111 N112 1.995 . S
Co111 N117 2.008 . S
Co111 N122 1.995 . S
Co111 N127 2.282 . S
Co111 N133 2.282 . S
N112 Co111 1.995 . S
N112 C113 1.376 . S
N112 C116 1.383 . S
C113 N112 1.376 . S
C113 C114 1.446 . S
C113 C143 1.391 . S
C114 C113 1.446 . S
C114 C115 1.339 . S
C114 H149 0.949 . S
C115 C114 1.339 . S
C115 C116 1.439 . S
C115 H150 0.950 . S
C116 N112 1.383 . S
C116 C115 1.439 . S
C116 C145 1.392 . S
N117 Co111 2.008 . S
N117 C118 1.376 . S
N117 C121 1.374 . S
C118 N117 1.376 . S
C118 C119 1.443 . S
C118 C145 1.389 . S
C119 C118 1.443 . S
C119 C120 1.340 . S
C119 H151 0.951 . S
C120 C119 1.340 . S
C120 C121 1.439 . S
C120 H152 0.950 . S
C121 N117 1.374 . S
C121 C120 1.439 . S
C121 C146 1.395 . S
N122 Co111 1.995 . S
N122 C123 1.376 . S
N122 C126 1.383 . S
C123 N122 1.376 . S
C123 C124 1.446 . S
C123 C146 1.391 . S
C124 C123 1.446 . S
C124 C125 1.339 . S
C124 H153 0.949 . S
C125 C124 1.339 . S
C125 C126 1.439 . S
C125 H154 0.950 . S
C126 N122 1.383 . S
C126 C125 1.439 . S
C126 C144 1.392 . S
N127 Co111 2.282 . S
N127 C130 1.332 . S
N127 C132 1.332 . S
C128 C129 1.386 . S
C128 C131 1.388 . S
C129 C128 1.386 . S
C129 C130 1.382 . S
C129 H155 0.950 . S
C130 N127 1.332 . S
C130 C129 1.382 . S
C130 H141 0.952 . S
C131 C128 1.388 . S
C131 C132 1.382 . S
C131 H156 0.950 . S
C132 N127 1.332 . S
C132 C131 1.382 . S
C132 H142 0.948 . S
N133 Co111 2.282 . S
N133 C137 1.332 . S
N133 C138 1.332 . S
C134 C135 1.388 . S
C134 C138 1.382 . S
C134 H157 0.950 . S
C135 C134 1.388 . S
C135 C136 1.386 . S
C136 C135 1.386 . S
C136 C137 1.382 . S
C136 H158 0.950 . S
C137 N133 1.332 . S
C137 C136 1.382 . S
C137 H139 0.952 . S
C138 N133 1.332 . S
C138 C134 1.382 . S
C138 H140 0.948 . S
H139 C137 0.952 . S
H140 C138 0.948 . S
H141 C130 0.952 . S
H142 C132 0.948 . S
C143 C109 1.395 . S
C143 C113 1.391 . S
C144 C106 1.389 . S
C144 C126 1.392 . S
C145 C116 1.392 . S
C145 C118 1.389 . S
C146 C121 1.395 . S
C146 C123 1.391 . S
H147 C107 0.951 . S
H148 C108 0.950 . S
H149 C114 0.949 . S
H150 C115 0.950 . S
H151 C119 0.951 . S
H152 C120 0.950 . S
H153 C124 0.949 . S
H154 C125 0.950 . S
H155 C129 0.950 . S
H156 C131 0.950 . S
H157 C134 0.950 . S
H158 C136 0.950 . S
C159 C160 1.443 . S
C159 N163 1.376 . S
C159 C197 1.389 . S
C160 C159 1.443 . S
C160 C161 1.340 . S
C160 H200 0.951 . S
C161 C160 1.340 . S
C161 C162 1.439 . S
C161 H201 0.950 . S
C162 C161 1.439 . S
C162 N163 1.374 . S
C162 C196 1.395 . S
N163 C159 1.376 . S
N163 C162 1.374 . S
N163 Co164 2.008 . S
Co164 N163 2.008 . S
Co164 N165 1.995 . S
Co164 N170 2.008 . S
Co164 N175 1.995 . S
Co164 N180 2.282 . S
Co164 N186 2.282 . S
N165 Co164 1.995 . S
N165 C166 1.376 . S
N165 C169 1.383 . S
C166 N165 1.376 . S
C166 C167 1.446 . S
C166 C196 1.391 . S
C167 C166 1.446 . S
C167 C168 1.339 . S
C167 H202 0.949 . S
C168 C167 1.339 . S
C168 C169 1.439 . S
C168 H203 0.950 . S
C169 N165 1.383 . S
C169 C168 1.439 . S
C169 C198 1.392 . S
N170 Co164 2.008 . S
N170 C171 1.376 . S
N170 C174 1.374 . S
C171 N170 1.376 . S
C171 C172 1.443 . S
C171 C198 1.389 . S
C172 C171 1.443 . S
C172 C173 1.340 . S
C172 H204 0.951 . S
C173 C172 1.340 . S
C173 C174 1.439 . S
C173 H205 0.950 . S
C174 N170 1.374 . S
C174 C173 1.439 . S
C174 C199 1.395 . S
N175 Co164 1.995 . S
N175 C176 1.376 . S
N175 C179 1.383 . S
C176 N175 1.376 . S
C176 C177 1.446 . S
C176 C199 1.391 . S
C177 C176 1.446 . S
C177 C178 1.339 . S
C177 H206 0.949 . S
C178 C177 1.339 . S
C178 C179 1.439 . S
C178 H207 0.950 . S
C179 N175 1.383 . S
C179 C178 1.439 . S
C179 C197 1.392 . S
N180 Co164 2.282 . S
N180 C183 1.332 . S
N180 C185 1.332 . S
C181 C182 1.386 . S
C181 C184 1.388 . S
C182 C181 1.386 . S
C182 C183 1.382 . S
C182 H208 0.950 . S
C183 N180 1.332 . S
C183 C182 1.382 . S
C183 H194 0.952 . S
C184 C181 1.388 . S
C184 C185 1.382 . S
C184 H209 0.950 . S
C185 N180 1.332 . S
C185 C184 1.382 . S
C185 H195 0.948 . S
N186 Co164 2.282 . S
N186 C190 1.332 . S
N186 C191 1.332 . S
C187 C188 1.388 . S
C187 C191 1.382 . S
C187 H210 0.950 . S
C188 C187 1.388 . S
C188 C189 1.386 . S
C189 C188 1.386 . S
C189 C190 1.382 . S
C189 H211 0.950 . S
C190 N186 1.332 . S
C190 C189 1.382 . S
C190 H192 0.952 . S
C191 N186 1.332 . S
C191 C187 1.382 . S
C191 H193 0.948 . S
H192 C190 0.952 . S
H193 C191 0.948 . S
H194 C183 0.952 . S
H195 C185 0.948 . S
C196 C162 1.395 . S
C196 C166 1.391 . S
C197 C159 1.389 . S
C197 C179 1.392 . S
C198 C169 1.392 . S
C198 C171 1.389 . S
C199 C174 1.395 . S
C199 C176 1.391 . S
H200 C160 0.951 . S
H201 C161 0.950 . S
H202 C167 0.949 . S
H203 C168 0.950 . S
H204 C172 0.951 . S
H205 C173 0.950 . S
H206 C177 0.949 . S
H207 C178 0.950 . S
H208 C182 0.950 . S
H209 C184 0.950 . S
H210 C187 0.950 . S
H211 C189 0.950 . S
C212 C213 1.443 . S
C212 N216 1.376 . S
C212 C250 1.389 . S
C213 C212 1.443 . S
C213 C214 1.340 . S
C213 H253 0.951 . S
C214 C213 1.340 . S
C214 C215 1.439 . S
C214 H254 0.950 . S
C215 C214 1.439 . S
C215 N216 1.374 . S
C215 C249 1.395 . S
N216 C212 1.376 . S
N216 C215 1.374 . S
N216 Co217 2.008 . S
Co217 N216 2.008 . S
Co217 N218 1.995 . S
Co217 N223 2.008 . S
Co217 N228 1.995 . S
Co217 N233 2.282 . S
Co217 N239 2.282 . S
N218 Co217 1.995 . S
N218 C219 1.376 . S
N218 C222 1.383 . S
C219 N218 1.376 . S
C219 C220 1.446 . S
C219 C249 1.391 . S
C220 C219 1.446 . S
C220 C221 1.339 . S
C220 H255 0.949 . S
C221 C220 1.339 . S
C221 C222 1.439 . S
C221 H256 0.950 . S
C222 N218 1.383 . S
C222 C221 1.439 . S
C222 C251 1.392 . S
N223 Co217 2.008 . S
N223 C224 1.376 . S
N223 C227 1.374 . S
C224 N223 1.376 . S
C224 C225 1.443 . S
C224 C251 1.389 . S
C225 C224 1.443 . S
C225 C226 1.340 . S
C225 H257 0.951 . S
C226 C225 1.340 . S
C226 C227 1.439 . S
C226 H258 0.950 . S
C227 N223 1.374 . S
C227 C226 1.439 . S
C227 C252 1.395 . S
N228 Co217 1.995 . S
N228 C229 1.376 . S
N228 C232 1.383 . S
C229 N228 1.376 . S
C229 C230 1.446 . S
C229 C252 1.391 . S
C230 C229 1.446 . S
C230 C231 1.339 . S
C230 H259 0.949 . S
C231 C230 1.339 . S
C231 C232 1.439 . S
C231 H260 0.950 . S
C232 N228 1.383 . S
C232 C231 1.439 . S
C232 C250 1.392 . S
N233 Co217 2.282 . S
N233 C236 1.332 . S
N233 C238 1.332 . S
C234 C235 1.386 . S
C234 C237 1.388 . S
C235 C234 1.386 . S
C235 C236 1.382 . S
C235 H261 0.950 . S
C236 N233 1.332 . S
C236 C235 1.382 . S
C236 H247 0.952 . S
C237 C234 1.388 . S
C237 C238 1.382 . S
C237 H262 0.950 . S
C238 N233 1.332 . S
C238 C237 1.382 . S
C238 H248 0.948 . S
N239 Co217 2.282 . S
N239 C243 1.332 . S
N239 C244 1.332 . S
C240 C241 1.388 . S
C240 C244 1.382 . S
C240 H263 0.950 . S
C241 C240 1.388 . S
C241 C242 1.386 . S
C242 C241 1.386 . S
C242 C243 1.382 . S
C242 H264 0.950 . S
C243 N239 1.332 . S
C243 C242 1.382 . S
C243 H245 0.952 . S
C244 N239 1.332 . S
C244 C240 1.382 . S
C244 H246 0.948 . S
H245 C243 0.952 . S
H246 C244 0.948 . S
H247 C236 0.952 . S
H248 C238 0.948 . S
C249 C215 1.395 . S
C249 C219 1.391 . S
C250 C212 1.389 . S
C250 C232 1.392 . S
C251 C222 1.392 . S
C251 C224 1.389 . S
C252 C227 1.395 . S
C252 C229 1.391 . S
H253 C213 0.951 . S
H254 C214 0.950 . S
H255 C220 0.949 . S
H256 C221 0.950 . S
H257 C225 0.951 . S
H258 C226 0.950 . S
H259 C230 0.949 . S
H260 C231 0.950 . S
H261 C235 0.950 . S
H262 C237 0.950 . S
H263 C240 0.950 . S
H264 C242 0.950 . S
C265 C266 1.443 . S
C265 N269 1.376 . S
C265 C303 1.389 . S
C266 C265 1.443 . S
C266 C267 1.340 . S
C266 H306 0.951 . S
C267 C266 1.340 . S
C267 C268 1.439 . S
C267 H307 0.950 . S
C268 C267 1.439 . S
C268 N269 1.374 . S
C268 C302 1.395 . S
N269 C265 1.376 . S
N269 C268 1.374 . S
N269 Co270 2.008 . S
Co270 N269 2.008 . S
Co270 N271 1.995 . S
Co270 N276 2.008 . S
Co270 N281 1.995 . S
Co270 N286 2.282 . S
Co270 N292 2.282 . S
N271 Co270 1.995 . S
N271 C272 1.376 . S
N271 C275 1.383 . S
C272 N271 1.376 . S
C272 C273 1.446 . S
C272 C302 1.391 . S
C273 C272 1.446 . S
C273 C274 1.339 . S
C273 H308 0.949 . S
C274 C273 1.339 . S
C274 C275 1.439 . S
C274 H309 0.950 . S
C275 N271 1.383 . S
C275 C274 1.439 . S
C275 C304 1.392 . S
N276 Co270 2.008 . S
N276 C277 1.376 . S
N276 C280 1.374 . S
C277 N276 1.376 . S
C277 C278 1.443 . S
C277 C304 1.389 . S
C278 C277 1.443 . S
C278 C279 1.340 . S
C278 H310 0.951 . S
C279 C278 1.340 . S
C279 C280 1.439 . S
C279 H311 0.950 . S
C280 N276 1.374 . S
C280 C279 1.439 . S
C280 C305 1.395 . S
N281 Co270 1.995 . S
N281 C282 1.376 . S
N281 C285 1.383 . S
C282 N281 1.376 . S
C282 C283 1.446 . S
C282 C305 1.391 . S
C283 C282 1.446 . S
C283 C284 1.339 . S
C283 H312 0.949 . S
C284 C283 1.339 . S
C284 C285 1.439 . S
C284 H313 0.950 . S
C285 N281 1.383 . S
C285 C284 1.439 . S
C285 C303 1.392 . S
N286 Co270 2.282 . S
N286 C289 1.332 . S
N286 C291 1.332 . S
C287 C288 1.386 . S
C287 C290 1.388 . S
C288 C287 1.386 . S
C288 C289 1.382 . S
C288 H314 0.950 . S
C289 N286 1.332 . S
C289 C288 1.382 . S
C289 H300 0.952 . S
C290 C287 1.388 . S
C290 C291 1.382 . S
C290 H315 0.950 . S
C291 N286 1.332 . S
C291 C290 1.382 . S
C291 H301 0.948 . S
N292 Co270 2.282 . S
N292 C296 1.332 . S
N292 C297 1.332 . S
C293 C294 1.388 . S
C293 C297 1.382 . S
C293 H316 0.950 . S
C294 C293 1.388 . S
C294 C295 1.386 . S
C295 C294 1.386 . S
C295 C296 1.382 . S
C295 H317 0.950 . S
C296 N292 1.332 . S
C296 C295 1.382 . S
C296 H298 0.952 . S
C297 N292 1.332 . S
C297 C293 1.382 . S
C297 H299 0.948 . S
H298 C296 0.952 . S
H299 C297 0.948 . S
H300 C289 0.952 . S
H301 C291 0.948 . S
C302 C268 1.395 . S
C302 C272 1.391 . S
C303 C265 1.389 . S
C303 C285 1.392 . S
C304 C275 1.392 . S
C304 C277 1.389 . S
C305 C280 1.395 . S
C305 C282 1.391 . S
H306 C266 0.951 . S
H307 C267 0.950 . S
H308 C273 0.949 . S
H309 C274 0.950 . S
H310 C278 0.951 . S
H311 C279 0.950 . S
H312 C283 0.949 . S
H313 C284 0.950 . S
H314 C288 0.950 . S
H315 C290 0.950 . S
H316 C293 0.950 . S
H317 C295 0.950 . S
C318 C319 1.443 . S
C318 N322 1.376 . S
C318 C356 1.389 . S
C319 C318 1.443 . S
C319 C320 1.340 . S
C319 H359 0.951 . S
C320 C319 1.340 . S
C320 C321 1.439 . S
C320 H360 0.950 . S
C321 C320 1.439 . S
C321 N322 1.374 . S
C321 C355 1.395 . S
N322 C318 1.376 . S
N322 C321 1.374 . S
N322 Co323 2.008 . S
Co323 N322 2.008 . S
Co323 N324 1.995 . S
Co323 N329 2.008 . S
Co323 N334 1.995 . S
Co323 N339 2.282 . S
Co323 N345 2.282 . S
N324 Co323 1.995 . S
N324 C325 1.376 . S
N324 C328 1.383 . S
C325 N324 1.376 . S
C325 C326 1.446 . S
C325 C355 1.391 . S
C326 C325 1.446 . S
C326 C327 1.339 . S
C326 H361 0.949 . S
C327 C326 1.339 . S
C327 C328 1.439 . S
C327 H362 0.950 . S
C328 N324 1.383 . S
C328 C327 1.439 . S
C328 C357 1.392 . S
N329 Co323 2.008 . S
N329 C330 1.376 . S
N329 C333 1.374 . S
C330 N329 1.376 . S
C330 C331 1.443 . S
C330 C357 1.389 . S
C331 C330 1.443 . S
C331 C332 1.340 . S
C331 H363 0.951 . S
C332 C331 1.340 . S
C332 C333 1.439 . S
C332 H364 0.950 . S
C333 N329 1.374 . S
C333 C332 1.439 . S
C333 C358 1.395 . S
N334 Co323 1.995 . S
N334 C335 1.376 . S
N334 C338 1.383 . S
C335 N334 1.376 . S
C335 C336 1.446 . S
C335 C358 1.391 . S
C336 C335 1.446 . S
C336 C337 1.339 . S
C336 H365 0.949 . S
C337 C336 1.339 . S
C337 C338 1.439 . S
C337 H366 0.950 . S
C338 N334 1.383 . S
C338 C337 1.439 . S
C338 C356 1.392 . S
N339 Co323 2.282 . S
N339 C342 1.332 . S
N339 C344 1.332 . S
C340 C341 1.386 . S
C340 C343 1.388 . S
C341 C340 1.386 . S
C341 C342 1.382 . S
C341 H367 0.950 . S
C342 N339 1.332 . S
C342 C341 1.382 . S
C342 H353 0.952 . S
C343 C340 1.388 . S
C343 C344 1.382 . S
C343 H368 0.950 . S
C344 N339 1.332 . S
C344 C343 1.382 . S
C344 H354 0.948 . S
N345 Co323 2.282 . S
N345 C349 1.332 . S
N345 C350 1.332 . S
C346 C347 1.388 . S
C346 C350 1.382 . S
C346 H369 0.950 . S
C347 C346 1.388 . S
C347 C348 1.386 . S
C348 C347 1.386 . S
C348 C349 1.382 . S
C348 H370 0.950 . S
C349 N345 1.332 . S
C349 C348 1.382 . S
C349 H351 0.952 . S
C350 N345 1.332 . S
C350 C346 1.382 . S
C350 H352 0.948 . S
H351 C349 0.952 . S
H352 C350 0.948 . S
H353 C342 0.952 . S
H354 C344 0.948 . S
C355 C321 1.395 . S
C355 C325 1.391 . S
C356 C318 1.389 . S
C356 C338 1.392 . S
C357 C328 1.392 . S
C357 C330 1.389 . S
C358 C333 1.395 . S
C358 C335 1.391 . S
H359 C319 0.951 . S
H360 C320 0.950 . S
H361 C326 0.949 . S
H362 C327 0.950 . S
H363 C331 0.951 . S
H364 C332 0.950 . S
H365 C336 0.949 . S
H366 C337 0.950 . S
H367 C341 0.950 . S
H368 C343 0.950 . S
H369 C346 0.950 . S
H370 C348 0.950 . S
C371 C372 1.443 . S
C371 N375 1.376 . S
C371 C409 1.389 . S
C372 C371 1.443 . S
C372 C373 1.340 . S
C372 H412 0.951 . S
C373 C372 1.340 . S
C373 C374 1.439 . S
C373 H413 0.950 . S
C374 C373 1.439 . S
C374 N375 1.374 . S
C374 C408 1.395 . S
N375 C371 1.376 . S
N375 C374 1.374 . S
N375 Co376 2.008 1_455 S
Co376 N375 2.008 1_655 S
Co376 N377 1.995 . S
Co376 N382 2.008 . S
Co376 N387 1.995 . S
Co376 N392 2.282 1_655 S
Co376 N398 2.282 . S
N377 Co376 1.995 . S
N377 C378 1.376 . S
N377 C381 1.383 . S
C378 N377 1.376 . S
C378 C379 1.446 . S
C378 C408 1.391 1_655 S
C379 C378 1.446 . S
C379 C380 1.339 . S
C379 H414 0.949 . S
C380 C379 1.339 . S
C380 C381 1.439 . S
C380 H415 0.950 . S
C381 N377 1.383 . S
C381 C380 1.439 . S
C381 C410 1.392 . S
N382 Co376 2.008 . S
N382 C383 1.376 . S
N382 C386 1.374 . S
C383 N382 1.376 . S
C383 C384 1.443 . S
C383 C410 1.389 . S
C384 C383 1.443 . S
C384 C385 1.340 . S
C384 H416 0.951 . S
C385 C384 1.340 . S
C385 C386 1.439 . S
C385 H417 0.950 . S
C386 N382 1.374 . S
C386 C385 1.439 . S
C386 C411 1.395 . S
N387 Co376 1.995 . S
N387 C388 1.376 . S
N387 C391 1.370 1_655 S
C388 N387 1.376 . S
C388 C389 1.446 . S
C388 C411 1.391 . S
C389 C388 1.446 . S
C389 C390 1.366 . S
C389 H418 0.949 . S
C390 C389 1.366 . S
C390 C391 1.436 1_655 S
C390 H419 0.930 1_655 S
C391 N387 1.370 1_455 S
C391 C390 1.436 1_455 S
C391 C409 1.405 . S
N392 Co376 2.282 1_455 S
N392 C395 1.332 . S
N392 C397 1.332 . S
C393 C394 1.386 . S
C393 C396 1.388 . S
C394 C393 1.386 . S
C394 C395 1.382 . S
C394 H420 0.950 . S
C395 N392 1.332 . S
C395 C394 1.382 . S
C395 H406 0.952 . S
C396 C393 1.388 . S
C396 C397 1.382 . S
C396 H421 0.950 . S
C397 N392 1.332 . S
C397 C396 1.382 . S
C397 H407 0.948 . S
N398 Co376 2.282 . S
N398 C402 1.332 . S
N398 C403 1.332 . S
C399 C400 1.388 . S
C399 C403 1.382 . S
C399 H422 0.950 . S
C400 C399 1.388 . S
C400 C401 1.386 . S
C401 C400 1.386 . S
C401 C402 1.382 . S
C401 H423 0.950 . S
C402 N398 1.332 . S
C402 C401 1.382 . S
C402 H404 0.952 . S
C403 N398 1.332 . S
C403 C399 1.382 . S
C403 H405 0.948 . S
H404 C402 0.952 . S
H405 C403 0.948 . S
H406 C395 0.952 . S
H407 C397 0.948 . S
C408 C374 1.395 . S
C408 C378 1.391 1_455 S
C409 C371 1.389 . S
C409 C391 1.405 . S
C410 C381 1.392 . S
C410 C383 1.389 . S
C411 C386 1.395 . S
C411 C388 1.391 . S
H412 C372 0.951 . S
H413 C373 0.950 . S
H414 C379 0.949 . S
H415 C380 0.950 . S
H416 C384 0.951 . S
H417 C385 0.950 . S
H418 C389 0.949 . S
H419 C390 0.930 1_455 S
H420 C394 0.950 . S
H421 C396 0.950 . S
H422 C399 0.950 . S
H423 C401 0.950 . S
C424 C425 1.443 . S
C424 N428 1.376 . S
C424 C462 1.389 . S
C425 C424 1.443 . S
C425 C426 1.340 . S
C425 H465 0.951 . S
C426 C425 1.340 . S
C426 C427 1.439 . S
C426 H466 0.950 . S
C427 C426 1.439 . S
C427 N428 1.374 . S
C427 C461 1.395 . S
N428 C424 1.376 . S
N428 C427 1.374 . S
N428 Co429 2.008 . S
Co429 N428 2.008 . S
Co429 N430 1.995 . S
Co429 N435 2.008 . S
Co429 N440 1.995 . S
Co429 N445 2.282 . S
Co429 N451 2.282 . S
N430 Co429 1.995 . S
N430 C431 1.376 . S
N430 C434 1.383 . S
C431 N430 1.376 . S
C431 C432 1.446 . S
C431 C461 1.391 . S
C432 C431 1.446 . S
C432 C433 1.339 . S
C432 H467 0.949 . S
C433 C432 1.339 . S
C433 C434 1.439 . S
C433 H468 0.950 . S
C434 N430 1.383 . S
C434 C433 1.439 . S
C434 C463 1.392 . S
N435 Co429 2.008 . S
N435 C436 1.376 . S
N435 C439 1.374 . S
C436 N435 1.376 . S
C436 C437 1.443 . S
C436 C463 1.389 . S
C437 C436 1.443 . S
C437 C438 1.340 . S
C437 H469 0.951 . S
C438 C437 1.340 . S
C438 C439 1.439 . S
C438 H470 0.950 . S
C439 N435 1.374 . S
C439 C438 1.439 . S
C439 C464 1.395 . S
N440 Co429 1.995 . S
N440 C441 1.376 . S
N440 C444 1.383 . S
C441 N440 1.376 . S
C441 C442 1.446 . S
C441 C464 1.391 . S
C442 C441 1.446 . S
C442 C443 1.339 . S
C442 H471 0.949 . S
C443 C442 1.339 . S
C443 C444 1.439 . S
C443 H472 0.950 . S
C444 N440 1.383 . S
C444 C443 1.439 . S
C444 C462 1.392 . S
N445 Co429 2.282 . S
N445 C448 1.332 . S
N445 C450 1.332 . S
C446 C447 1.386 . S
C446 C449 1.388 . S
C447 C446 1.386 . S
C447 C448 1.382 . S
C447 H473 0.950 . S
C448 N445 1.332 . S
C448 C447 1.382 . S
C448 H459 0.952 . S
C449 C446 1.388 . S
C449 C450 1.382 . S
C449 H474 0.950 . S
C450 N445 1.332 . S
C450 C449 1.382 . S
C450 H460 0.948 . S
N451 Co429 2.282 . S
N451 C455 1.332 . S
N451 C456 1.332 . S
C452 C453 1.388 . S
C452 C456 1.382 . S
C452 H475 0.950 . S
C453 C452 1.388 . S
C453 C454 1.386 . S
C454 C453 1.386 . S
C454 C455 1.382 . S
C454 H476 0.950 . S
C455 N451 1.332 . S
C455 C454 1.382 . S
C455 H457 0.952 . S
C456 N451 1.332 . S
C456 C452 1.382 . S
C456 H458 0.948 . S
H457 C455 0.952 . S
H458 C456 0.948 . S
H459 C448 0.952 . S
H460 C450 0.948 . S
C461 C427 1.395 . S
C461 C431 1.391 . S
C462 C424 1.389 . S
C462 C444 1.392 . S
C463 C434 1.392 . S
C463 C436 1.389 . S
C464 C439 1.395 . S
C464 C441 1.391 . S
H465 C425 0.951 . S
H466 C426 0.950 . S
H467 C432 0.949 . S
H468 C433 0.950 . S
H469 C437 0.951 . S
H470 C438 0.950 . S
H471 C442 0.949 . S
H472 C443 0.950 . S
H473 C447 0.950 . S
H474 C449 0.950 . S
H475 C452 0.950 . S
H476 C454 0.950 . S
C477 C478 1.443 . S
C477 N481 1.376 . S
C477 C515 1.389 . S
C478 C477 1.443 . S
C478 C479 1.340 . S
C478 H518 0.910 1_455 S
C479 C478 1.340 . S
C479 C480 1.439 . S
C479 H519 0.950 1_455 S
C480 C479 1.439 . S
C480 N481 1.374 . S
C480 C514 1.395 . S
N481 C477 1.376 . S
N481 C480 1.374 . S
N481 Co482 2.008 . S
Co482 N481 2.008 . S
Co482 N483 1.995 . S
Co482 N488 2.008 . S
Co482 N493 1.995 . S
Co482 N498 2.282 . S
Co482 N504 2.282 . S
N483 Co482 1.995 . S
N483 C484 1.376 . S
N483 C487 1.383 . S
C484 N483 1.376 . S
C484 C485 1.446 . S
C484 C514 1.391 . S
C485 C484 1.446 . S
C485 C486 1.339 . S
C485 H520 0.949 . S
C486 C485 1.339 . S
C486 C487 1.439 . S
C486 H521 0.950 . S
C487 N483 1.383 . S
C487 C486 1.439 . S
C487 C516 1.392 . S
N488 Co482 2.008 . S
N488 C489 1.376 . S
N488 C492 1.374 . S
C489 N488 1.376 . S
C489 C490 1.443 . S
C489 C516 1.389 . S
C490 C489 1.443 . S
C490 C491 1.340 . S
C490 H522 0.951 . S
C491 C490 1.340 . S
C491 C492 1.439 . S
C491 H523 0.950 . S
C492 N488 1.374 . S
C492 C491 1.439 . S
C492 C517 1.395 . S
N493 Co482 1.995 . S
N493 C494 1.376 . S
N493 C497 1.383 . S
C494 N493 1.376 . S
C494 C495 1.446 . S
C494 C517 1.391 . S
C495 C494 1.446 . S
C495 C496 1.339 . S
C495 H524 0.949 . S
C496 C495 1.339 . S
C496 C497 1.439 . S
C496 H525 0.950 . S
C497 N493 1.383 . S
C497 C496 1.439 . S
C497 C515 1.392 . S
N498 Co482 2.282 . S
N498 C501 1.332 . S
N498 C503 1.332 . S
C499 C500 1.386 . S
C499 C502 1.388 . S
C500 C499 1.386 . S
C500 C501 1.382 . S
C500 H526 0.950 . S
C501 N498 1.332 . S
C501 C500 1.382 . S
C501 H512 0.952 . S
C502 C499 1.388 . S
C502 C503 1.382 . S
C502 H527 0.950 . S
C503 N498 1.332 . S
C503 C502 1.382 . S
C503 H513 0.948 . S
N504 Co482 2.282 . S
N504 C508 1.332 . S
N504 C509 1.332 . S
C505 C506 1.388 . S
C505 C509 1.382 . S
C505 H528 0.950 . S
C506 C505 1.388 . S
C506 C507 1.386 . S
C507 C506 1.386 . S
C507 C508 1.382 . S
C507 H529 0.950 . S
C508 N504 1.332 . S
C508 C507 1.382 . S
C508 H510 0.952 . S
C509 N504 1.332 . S
C509 C505 1.382 . S
C509 H511 0.948 . S
H510 C508 0.952 . S
H511 C509 0.948 . S
H512 C501 0.952 . S
H513 C503 0.948 . S
C514 C480 1.395 . S
C514 C484 1.391 . S
C515 C477 1.389 . S
C515 C497 1.392 . S
C516 C487 1.392 . S
C516 C489 1.389 . S
C517 C492 1.395 . S
C517 C494 1.391 . S
H518 C478 0.910 1_655 S
H519 C479 0.950 1_655 S
H520 C485 0.949 . S
H521 C486 0.950 . S
H522 C490 0.951 . S
H523 C491 0.950 . S
H524 C495 0.949 . S
H525 C496 0.950 . S
H526 C500 0.950 . S
H527 C502 0.950 . S
H528 C505 0.950 . S
H529 C507 0.950 . S
C530 C531 1.443 . S
C530 N534 1.376 . S
C530 C568 1.389 . S
C531 C530 1.443 . S
C531 C532 1.340 . S
C531 H571 0.951 . S
C532 C531 1.340 . S
C532 C533 1.439 . S
C532 H572 0.950 . S
C533 C532 1.439 . S
C533 N534 1.374 . S
C533 C567 1.395 . S
N534 C530 1.376 . S
N534 C533 1.374 . S
N534 Co535 2.008 . S
Co535 N534 2.008 . S
Co535 N536 1.995 . S
Co535 N541 2.008 . S
Co535 N546 1.995 . S
Co535 N551 2.282 . S
Co535 N557 2.282 . S
N536 Co535 1.995 . S
N536 C537 1.376 . S
N536 C540 1.383 . S
C537 N536 1.376 . S
C537 C538 1.446 . S
C537 C567 1.391 . S
C538 C537 1.446 . S
C538 C539 1.339 . S
C538 H573 0.949 . S
C539 C538 1.339 . S
C539 C540 1.439 . S
C539 H574 0.950 . S
C540 N536 1.383 . S
C540 C539 1.439 . S
C540 C569 1.392 . S
N541 Co535 2.008 . S
N541 C542 1.376 . S
N541 C545 1.374 . S
C542 N541 1.376 . S
C542 C543 1.443 . S
C542 C569 1.389 . S
C543 C542 1.443 . S
C543 C544 1.340 . S
C543 H575 0.951 . S
C544 C543 1.340 . S
C544 C545 1.439 . S
C544 H576 0.950 . S
C545 N541 1.374 . S
C545 C544 1.439 . S
C545 C570 1.395 . S
N546 Co535 1.995 . S
N546 C547 1.376 . S
N546 C550 1.383 . S
C547 N546 1.376 . S
C547 C548 1.446 . S
C547 C570 1.391 . S
C548 C547 1.446 . S
C548 C549 1.339 . S
C548 H577 0.949 . S
C549 C548 1.339 . S
C549 C550 1.439 . S
C549 H578 0.950 . S
C550 N546 1.383 . S
C550 C549 1.439 . S
C550 C568 1.392 . S
N551 Co535 2.282 . S
N551 C554 1.332 . S
N551 C556 1.332 . S
C552 C553 1.386 . S
C552 C555 1.388 . S
C553 C552 1.386 . S
C553 C554 1.382 . S
C553 H579 0.950 . S
C554 N551 1.332 . S
C554 C553 1.382 . S
C554 H565 0.952 . S
C555 C552 1.388 . S
C555 C556 1.382 . S
C555 H580 0.950 . S
C556 N551 1.332 . S
C556 C555 1.382 . S
C556 H566 0.948 . S
N557 Co535 2.282 . S
N557 C561 1.332 . S
N557 C562 1.332 . S
C558 C559 1.388 . S
C558 C562 1.382 . S
C558 H581 0.950 . S
C559 C558 1.388 . S
C559 C560 1.386 . S
C560 C559 1.386 . S
C560 C561 1.382 . S
C560 H582 0.950 . S
C561 N557 1.332 . S
C561 C560 1.382 . S
C561 H563 0.952 . S
C562 N557 1.332 . S
C562 C558 1.382 . S
C562 H564 0.948 . S
H563 C561 0.952 . S
H564 C562 0.948 . S
H565 C554 0.952 . S
H566 C556 0.948 . S
C567 C533 1.395 . S
C567 C537 1.391 . S
C568 C530 1.389 . S
C568 C550 1.392 . S
C569 C540 1.392 . S
C569 C542 1.389 . S
C570 C545 1.395 . S
C570 C547 1.391 . S
H571 C531 0.951 . S
H572 C532 0.950 . S
H573 C538 0.949 . S
H574 C539 0.950 . S
H575 C543 0.951 . S
H576 C544 0.950 . S
H577 C548 0.949 . S
H578 C549 0.950 . S
H579 C553 0.950 . S
H580 C555 0.950 . S
H581 C558 0.950 . S
H582 C560 0.950 . S
C583 C584 1.443 . S
C583 N587 1.376 . S
C583 C621 1.389 . S
C584 C583 1.443 . S
C584 C585 1.340 . S
C584 H624 0.951 . S
C585 C584 1.340 . S
C585 C586 1.439 . S
C585 H625 0.950 . S
C586 C585 1.439 . S
C586 N587 1.374 . S
C586 C620 1.395 . S
N587 C583 1.376 . S
N587 C586 1.374 . S
N587 Co588 2.008 . S
Co588 N587 2.008 . S
Co588 N589 1.995 . S
Co588 N594 2.008 . S
Co588 N599 1.995 . S
Co588 N604 2.282 . S
Co588 N610 2.282 . S
N589 Co588 1.995 . S
N589 C590 1.376 . S
N589 C593 1.383 . S
C590 N589 1.376 . S
C590 C591 1.446 . S
C590 C620 1.391 . S
C591 C590 1.446 . S
C591 C592 1.339 . S
C591 H626 0.949 . S
C592 C591 1.339 . S
C592 C593 1.439 . S
C592 H627 0.950 . S
C593 N589 1.383 . S
C593 C592 1.439 . S
C593 C622 1.392 . S
N594 Co588 2.008 . S
N594 C595 1.376 . S
N594 C598 1.374 . S
C595 N594 1.376 . S
C595 C596 1.443 . S
C595 C622 1.389 . S
C596 C595 1.443 . S
C596 C597 1.340 . S
C596 H628 0.951 . S
C597 C596 1.340 . S
C597 C598 1.439 . S
C597 H629 0.950 . S
C598 N594 1.374 . S
C598 C597 1.439 . S
C598 C623 1.395 . S
N599 Co588 1.995 . S
N599 C600 1.376 . S
N599 C603 1.383 . S
C600 N599 1.376 . S
C600 C601 1.446 . S
C600 C623 1.391 . S
C601 C600 1.446 . S
C601 C602 1.339 . S
C601 H630 0.949 . S
C602 C601 1.339 . S
C602 C603 1.439 . S
C602 H631 0.950 . S
C603 N599 1.383 . S
C603 C602 1.439 . S
C603 C621 1.392 . S
N604 Co588 2.282 . S
N604 C607 1.332 . S
N604 C609 1.332 . S
C605 C606 1.386 . S
C605 C608 1.388 . S
C606 C605 1.386 . S
C606 C607 1.382 . S
C606 H632 0.950 . S
C607 N604 1.332 . S
C607 C606 1.382 . S
C607 H618 0.952 . S
C608 C605 1.388 . S
C608 C609 1.382 . S
C608 H633 0.950 . S
C609 N604 1.332 . S
C609 C608 1.382 . S
C609 H619 0.948 . S
N610 Co588 2.282 . S
N610 C614 1.332 . S
N610 C615 1.332 . S
C611 C612 1.388 . S
C611 C615 1.382 . S
C611 H634 0.950 . S
C612 C611 1.388 . S
C612 C613 1.386 . S
C613 C612 1.386 . S
C613 C614 1.382 . S
C613 H635 0.950 . S
C614 N610 1.332 . S
C614 C613 1.382 . S
C614 H616 0.952 . S
C615 N610 1.332 . S
C615 C611 1.382 . S
C615 H617 0.948 . S
H616 C614 0.952 . S
H617 C615 0.948 . S
H618 C607 0.952 . S
H619 C609 0.948 . S
C620 C586 1.395 . S
C620 C590 1.391 . S
C621 C583 1.389 . S
C621 C603 1.392 . S
C622 C593 1.392 . S
C622 C595 1.389 . S
C623 C598 1.395 . S
C623 C600 1.391 . S
H624 C584 0.951 . S
H625 C585 0.950 . S
H626 C591 0.949 . S
H627 C592 0.950 . S
H628 C596 0.951 . S
H629 C597 0.950 . S
H630 C601 0.949 . S
H631 C602 0.950 . S
H632 C606 0.950 . S
H633 C608 0.950 . S
H634 C611 0.950 . S
H635 C613 0.950 . S
C636 C637 1.443 . S
C636 N640 1.376 . S
C636 C674 1.389 . S
C637 C636 1.443 . S
C637 C638 1.340 . S
C637 H677 0.951 . S
C638 C637 1.340 . S
C638 C639 1.439 . S
C638 H678 0.950 . S
C639 C638 1.439 . S
C639 N640 1.374 . S
C639 C673 1.395 . S
N640 C636 1.376 . S
N640 C639 1.374 . S
N640 Co641 2.008 . S
Co641 N640 2.008 . S
Co641 N642 1.995 . S
Co641 N647 2.008 . S
Co641 N652 1.995 . S
Co641 N657 2.282 . S
Co641 N663 2.282 . S
N642 Co641 1.995 . S
N642 C643 1.376 . S
N642 C646 1.383 . S
C643 N642 1.376 . S
C643 C644 1.446 . S
C643 C673 1.391 . S
C644 C643 1.446 . S
C644 C645 1.339 . S
C644 H679 0.949 . S
C645 C644 1.339 . S
C645 C646 1.439 . S
C645 H680 0.950 . S
C646 N642 1.383 . S
C646 C645 1.439 . S
C646 C675 1.392 . S
N647 Co641 2.008 . S
N647 C648 1.376 . S
N647 C651 1.374 . S
C648 N647 1.376 . S
C648 C649 1.443 . S
C648 C675 1.389 . S
C649 C648 1.443 . S
C649 C650 1.340 . S
C649 H681 0.951 . S
C650 C649 1.340 . S
C650 C651 1.439 . S
C650 H682 0.950 . S
C651 N647 1.374 . S
C651 C650 1.439 . S
C651 C676 1.395 . S
N652 Co641 1.995 . S
N652 C653 1.376 . S
N652 C656 1.383 . S
C653 N652 1.376 . S
C653 C654 1.446 . S
C653 C676 1.391 . S
C654 C653 1.446 . S
C654 C655 1.339 . S
C654 H683 0.949 . S
C655 C654 1.339 . S
C655 C656 1.439 . S
C655 H684 0.950 . S
C656 N652 1.383 . S
C656 C655 1.439 . S
C656 C674 1.392 . S
N657 Co641 2.282 . S
N657 C660 1.332 . S
N657 C662 1.332 . S
C658 C659 1.386 . S
C658 C661 1.388 . S
C659 C658 1.386 . S
C659 C660 1.382 . S
C659 H685 0.950 . S
C660 N657 1.332 . S
C660 C659 1.382 . S
C660 H671 0.952 . S
C661 C658 1.388 . S
C661 C662 1.382 . S
C661 H686 0.950 . S
C662 N657 1.332 . S
C662 C661 1.382 . S
C662 H672 0.948 . S
N663 Co641 2.282 . S
N663 C667 1.332 . S
N663 C668 1.332 . S
C664 C665 1.388 . S
C664 C668 1.382 . S
C664 H687 0.950 . S
C665 C664 1.388 . S
C665 C666 1.386 . S
C666 C665 1.386 . S
C666 C667 1.382 . S
C666 H688 0.950 . S
C667 N663 1.332 . S
C667 C666 1.382 . S
C667 H669 0.952 . S
C668 N663 1.332 . S
C668 C664 1.382 . S
C668 H670 0.948 . S
H669 C667 0.952 . S
H670 C668 0.948 . S
H671 C660 0.952 . S
H672 C662 0.948 . S
C673 C639 1.395 . S
C673 C643 1.391 . S
C674 C636 1.389 . S
C674 C656 1.392 . S
C675 C646 1.392 . S
C675 C648 1.389 . S
C676 C651 1.395 . S
C676 C653 1.391 . S
H677 C637 0.951 . S
H678 C638 0.950 . S
H679 C644 0.949 . S
H680 C645 0.950 . S
H681 C649 0.951 . S
H682 C650 0.950 . S
H683 C654 0.949 . S
H684 C655 0.950 . S
H685 C659 0.950 . S
H686 C661 0.950 . S
H687 C664 0.950 . S
H688 C666 0.950 . S
C689 C690 1.443 . S
C689 N693 1.376 . S
C689 C727 1.389 . S
C690 C689 1.443 . S
C690 C691 1.340 . S
C690 H730 0.951 . S
C691 C690 1.340 . S
C691 C692 1.439 . S
C691 H731 0.950 . S
C692 C691 1.439 . S
C692 N693 1.374 . S
C692 C726 1.395 . S
N693 C689 1.376 . S
N693 C692 1.374 . S
N693 Co694 2.008 . S
Co694 N693 2.008 . S
Co694 N695 1.995 . S
Co694 N700 2.008 . S
Co694 N705 1.995 . S
Co694 N710 2.282 . S
Co694 N716 2.282 . S
N695 Co694 1.995 . S
N695 C696 1.376 . S
N695 C699 1.383 . S
C696 N695 1.376 . S
C696 C697 1.446 . S
C696 C726 1.391 . S
C697 C696 1.446 . S
C697 C698 1.339 . S
C697 H732 0.949 . S
C698 C697 1.339 . S
C698 C699 1.439 . S
C698 H733 0.950 . S
C699 N695 1.383 . S
C699 C698 1.439 . S
C699 C728 1.392 . S
N700 Co694 2.008 . S
N700 C701 1.376 . S
N700 C704 1.374 . S
C701 N700 1.376 . S
C701 C702 1.443 . S
C701 C728 1.389 . S
C702 C701 1.443 . S
C702 C703 1.340 . S
C702 H734 0.951 . S
C703 C702 1.340 . S
C703 C704 1.439 . S
C703 H735 0.950 . S
C704 N700 1.374 . S
C704 C703 1.439 . S
C704 C729 1.395 . S
N705 Co694 1.995 . S
N705 C706 1.376 . S
N705 C709 1.383 . S
C706 N705 1.376 . S
C706 C707 1.446 . S
C706 C729 1.391 . S
C707 C706 1.446 . S
C707 C708 1.339 . S
C707 H736 0.949 . S
C708 C707 1.339 . S
C708 C709 1.439 . S
C708 H737 0.950 . S
C709 N705 1.383 . S
C709 C708 1.439 . S
C709 C727 1.392 . S
N710 Co694 2.282 . S
N710 C713 1.332 . S
N710 C715 1.332 . S
C711 C712 1.386 . S
C711 C714 1.388 . S
C712 C711 1.386 . S
C712 C713 1.382 . S
C712 H738 0.950 . S
C713 N710 1.332 . S
C713 C712 1.382 . S
C713 H724 0.952 . S
C714 C711 1.388 . S
C714 C715 1.382 . S
C714 H739 0.950 . S
C715 N710 1.332 . S
C715 C714 1.382 . S
C715 H725 0.948 . S
N716 Co694 2.282 . S
N716 C720 1.332 . S
N716 C721 1.332 . S
C717 C718 1.388 . S
C717 C721 1.382 . S
C717 H740 0.950 . S
C718 C717 1.388 . S
C718 C719 1.386 . S
C719 C718 1.386 . S
C719 C720 1.382 . S
C719 H741 0.950 . S
C720 N716 1.332 . S
C720 C719 1.382 . S
C720 H722 0.952 . S
C721 N716 1.332 . S
C721 C717 1.382 . S
C721 H723 0.948 . S
H722 C720 0.952 . S
H723 C721 0.948 . S
H724 C713 0.952 . S
H725 C715 0.948 . S
C726 C692 1.395 . S
C726 C696 1.391 . S
C727 C689 1.389 . S
C727 C709 1.392 . S
C728 C699 1.392 . S
C728 C701 1.389 . S
C729 C704 1.395 . S
C729 C706 1.391 . S
H730 C690 0.951 . S
H731 C691 0.950 . S
H732 C697 0.949 . S
H733 C698 0.950 . S
H734 C702 0.951 . S
H735 C703 0.950 . S
H736 C707 0.949 . S
H737 C708 0.950 . S
H738 C712 0.950 . S
H739 C714 0.950 . S
H740 C717 0.950 . S
H741 C719 0.950 . S
C742 C743 1.443 . S
C742 N746 1.376 . S
C742 C780 1.389 . S
C743 C742 1.443 . S
C743 C744 1.340 . S
C743 H783 0.951 . S
C744 C743 1.340 . S
C744 C745 1.439 . S
C744 H784 0.950 . S
C745 C744 1.439 . S
C745 N746 1.374 . S
C745 C779 1.395 . S
N746 C742 1.376 . S
N746 C745 1.374 . S
N746 Co747 2.008 . S
Co747 N746 2.008 . S
Co747 N748 1.995 . S
Co747 N753 2.008 . S
Co747 N758 1.995 . S
Co747 N763 2.282 . S
Co747 N769 2.282 . S
N748 Co747 1.995 . S
N748 C749 1.376 . S
N748 C752 1.383 . S
C749 N748 1.376 . S
C749 C750 1.446 . S
C749 C779 1.391 . S
C750 C749 1.446 . S
C750 C751 1.339 . S
C750 H785 0.949 . S
C751 C750 1.339 . S
C751 C752 1.439 . S
C751 H786 0.950 . S
C752 N748 1.383 . S
C752 C751 1.439 . S
C752 C781 1.392 . S
N753 Co747 2.008 . S
N753 C754 1.376 . S
N753 C757 1.374 . S
C754 N753 1.376 . S
C754 C755 1.443 . S
C754 C781 1.389 . S
C755 C754 1.443 . S
C755 C756 1.340 . S
C755 H787 0.951 . S
C756 C755 1.340 . S
C756 C757 1.439 . S
C756 H788 0.950 . S
C757 N753 1.374 . S
C757 C756 1.439 . S
C757 C782 1.395 . S
N758 Co747 1.995 . S
N758 C759 1.376 . S
N758 C762 1.383 . S
C759 N758 1.376 . S
C759 C760 1.446 . S
C759 C782 1.391 . S
C760 C759 1.446 . S
C760 C761 1.339 . S
C760 H789 0.949 . S
C761 C760 1.339 . S
C761 C762 1.439 . S
C761 H790 0.950 . S
C762 N758 1.383 . S
C762 C761 1.439 . S
C762 C780 1.392 . S
N763 Co747 2.282 . S
N763 C766 1.332 . S
N763 C768 1.332 . S
C764 C765 1.386 . S
C764 C767 1.388 . S
C765 C764 1.386 . S
C765 C766 1.382 . S
C765 H791 0.950 . S
C766 N763 1.332 . S
C766 C765 1.382 . S
C766 H777 0.952 . S
C767 C764 1.388 . S
C767 C768 1.382 . S
C767 H792 0.950 . S
C768 N763 1.332 . S
C768 C767 1.382 . S
C768 H778 0.948 . S
N769 Co747 2.282 . S
N769 C773 1.332 . S
N769 C774 1.332 . S
C770 C771 1.388 . S
C770 C774 1.382 . S
C770 H793 0.950 . S
C771 C770 1.388 . S
C771 C772 1.386 . S
C772 C771 1.386 . S
C772 C773 1.382 . S
C772 H794 0.950 . S
C773 N769 1.332 . S
C773 C772 1.382 . S
C773 H775 0.952 . S
C774 N769 1.332 . S
C774 C770 1.382 . S
C774 H776 0.948 . S
H775 C773 0.952 . S
H776 C774 0.948 . S
H777 C766 0.952 . S
H778 C768 0.948 . S
C779 C745 1.395 . S
C779 C749 1.391 . S
C780 C742 1.389 . S
C780 C762 1.392 . S
C781 C752 1.392 . S
C781 C754 1.389 . S
C782 C757 1.395 . S
C782 C759 1.391 . S
H783 C743 0.951 . S
H784 C744 0.950 . S
H785 C750 0.949 . S
H786 C751 0.950 . S
H787 C755 0.951 . S
H788 C756 0.950 . S
H789 C760 0.949 . S
H790 C761 0.950 . S
H791 C765 0.950 . S
H792 C767 0.950 . S
H793 C770 0.950 . S
H794 C772 0.950 . S
C795 C796 1.443 . S
C795 N799 1.376 . S
C795 C833 1.389 . S
C796 C795 1.443 . S
C796 C797 1.340 . S
C796 H836 0.910 1_455 S
C797 C796 1.340 . S
C797 C798 1.439 . S
C797 H837 0.950 1_455 S
C798 C797 1.439 . S
C798 N799 1.374 . S
C798 C832 1.395 . S
N799 C795 1.376 . S
N799 C798 1.374 . S
N799 Co800 2.008 . S
Co800 N799 2.008 . S
Co800 N801 1.995 . S
Co800 N806 2.008 . S
Co800 N811 1.995 . S
Co800 N816 2.282 . S
Co800 N822 2.282 . S
N801 Co800 1.995 . S
N801 C802 1.376 . S
N801 C805 1.383 . S
C802 N801 1.376 . S
C802 C803 1.446 . S
C802 C832 1.391 . S
C803 C802 1.446 . S
C803 C804 1.339 . S
C803 H838 0.949 . S
C804 C803 1.339 . S
C804 C805 1.439 . S
C804 H839 0.950 . S
C805 N801 1.383 . S
C805 C804 1.439 . S
C805 C834 1.392 . S
N806 Co800 2.008 . S
N806 C807 1.376 . S
N806 C810 1.374 . S
C807 N806 1.376 . S
C807 C808 1.443 . S
C807 C834 1.389 . S
C808 C807 1.443 . S
C808 C809 1.340 . S
C808 H840 0.951 . S
C809 C808 1.340 . S
C809 C810 1.439 . S
C809 H841 0.950 . S
C810 N806 1.374 . S
C810 C809 1.439 . S
C810 C835 1.395 . S
N811 Co800 1.995 . S
N811 C812 1.376 . S
N811 C815 1.383 . S
C812 N811 1.376 . S
C812 C813 1.446 . S
C812 C835 1.391 . S
C813 C812 1.446 . S
C813 C814 1.339 . S
C813 H842 0.949 . S
C814 C813 1.339 . S
C814 C815 1.439 . S
C814 H843 0.950 . S
C815 N811 1.383 . S
C815 C814 1.439 . S
C815 C833 1.392 . S
N816 Co800 2.282 . S
N816 C819 1.332 . S
N816 C821 1.332 . S
C817 C818 1.386 . S
C817 C820 1.388 . S
C818 C817 1.386 . S
C818 C819 1.382 . S
C818 H844 0.950 . S
C819 N816 1.332 . S
C819 C818 1.382 . S
C819 H830 0.952 . S
C820 C817 1.388 . S
C820 C821 1.382 . S
C820 H845 0.950 . S
C821 N816 1.332 . S
C821 C820 1.382 . S
C821 H831 0.948 . S
N822 Co800 2.282 . S
N822 C826 1.332 . S
N822 C827 1.332 . S
C823 C824 1.388 . S
C823 C827 1.382 . S
C823 H846 0.950 . S
C824 C823 1.388 . S
C824 C825 1.386 . S
C825 C824 1.386 . S
C825 C826 1.382 . S
C825 H847 0.950 . S
C826 N822 1.332 . S
C826 C825 1.382 . S
C826 H828 0.952 . S
C827 N822 1.332 . S
C827 C823 1.382 . S
C827 H829 0.948 . S
H828 C826 0.952 . S
H829 C827 0.948 . S
H830 C819 0.952 . S
H831 C821 0.948 . S
C832 C798 1.395 . S
C832 C802 1.391 . S
C833 C795 1.389 . S
C833 C815 1.392 . S
C834 C805 1.392 . S
C834 C807 1.389 . S
C835 C810 1.395 . S
C835 C812 1.391 . S
H836 C796 0.910 1_655 S
H837 C797 0.950 1_655 S
H838 C803 0.949 . S
H839 C804 0.950 . S
H840 C808 0.951 . S
H841 C809 0.950 . S
H842 C813 0.949 . S
H843 C814 0.950 . S
H844 C818 0.950 . S
H845 C820 0.950 . S
H846 C823 0.950 . S
H847 C825 0.950 . S
C848 C849 1.443 . S
C848 N852 1.376 . S
C848 C886 1.389 . S
C849 C848 1.443 . S
C849 C850 1.340 . S
C849 H889 0.951 . S
C850 C849 1.340 . S
C850 C851 1.439 . S
C850 H890 0.950 . S
C851 C850 1.439 . S
C851 N852 1.374 . S
C851 C885 1.395 . S
N852 C848 1.376 . S
N852 C851 1.374 . S
N852 Co853 2.008 . S
Co853 N852 2.008 . S
Co853 N854 1.995 . S
Co853 N859 2.008 . S
Co853 N864 1.995 . S
Co853 N869 2.282 . S
Co853 N875 2.282 . S
N854 Co853 1.995 . S
N854 C855 1.376 . S
N854 C858 1.383 . S
C855 N854 1.376 . S
C855 C856 1.446 . S
C855 C885 1.391 . S
C856 C855 1.446 . S
C856 C857 1.339 . S
C856 H891 0.949 . S
C857 C856 1.339 . S
C857 C858 1.439 . S
C857 H892 0.950 . S
C858 N854 1.383 . S
C858 C857 1.439 . S
C858 C887 1.392 . S
N859 Co853 2.008 . S
N859 C860 1.376 . S
N859 C863 1.374 . S
C860 N859 1.376 . S
C860 C861 1.443 . S
C860 C887 1.389 . S
C861 C860 1.443 . S
C861 C862 1.340 . S
C861 H893 0.951 . S
C862 C861 1.340 . S
C862 C863 1.439 . S
C862 H894 0.950 . S
C863 N859 1.374 . S
C863 C862 1.439 . S
C863 C888 1.395 . S
N864 Co853 1.995 . S
N864 C865 1.376 . S
N864 C868 1.383 . S
C865 N864 1.376 . S
C865 C866 1.446 . S
C865 C888 1.391 . S
C866 C865 1.446 . S
C866 C867 1.339 . S
C866 H895 0.949 . S
C867 C866 1.339 . S
C867 C868 1.439 . S
C867 H896 0.950 . S
C868 N864 1.383 . S
C868 C867 1.439 . S
C868 C886 1.392 . S
N869 Co853 2.282 . S
N869 C872 1.332 . S
N869 C874 1.332 . S
C870 C871 1.386 . S
C870 C873 1.388 . S
C871 C870 1.386 . S
C871 C872 1.382 . S
C871 H897 0.950 . S
C872 N869 1.332 . S
C872 C871 1.382 . S
C872 H883 0.952 . S
C873 C870 1.388 . S
C873 C874 1.382 . S
C873 H898 0.950 . S
C874 N869 1.332 . S
C874 C873 1.382 . S
C874 H884 0.948 . S
N875 Co853 2.282 . S
N875 C879 1.332 . S
N875 C880 1.332 . S
C876 C877 1.388 . S
C876 C880 1.382 . S
C876 H899 0.950 . S
C877 C876 1.388 . S
C877 C878 1.386 . S
C878 C877 1.386 . S
C878 C879 1.382 . S
C878 H900 0.950 . S
C879 N875 1.332 . S
C879 C878 1.382 . S
C879 H881 0.952 . S
C880 N875 1.332 . S
C880 C876 1.382 . S
C880 H882 0.948 . S
H881 C879 0.952 . S
H882 C880 0.948 . S
H883 C872 0.952 . S
H884 C874 0.948 . S
C885 C851 1.395 . S
C885 C855 1.391 . S
C886 C848 1.389 . S
C886 C868 1.392 . S
C887 C858 1.392 . S
C887 C860 1.389 . S
C888 C863 1.395 . S
C888 C865 1.391 . S
H889 C849 0.951 . S
H890 C850 0.950 . S
H891 C856 0.949 . S
H892 C857 0.950 . S
H893 C861 0.951 . S
H894 C862 0.950 . S
H895 C866 0.949 . S
H896 C867 0.950 . S
H897 C871 0.950 . S
H898 C873 0.950 . S
H899 C876 0.950 . S
H900 C878 0.950 . S
C901 C902 1.443 . S
C901 N905 1.376 . S
C901 C939 1.389 . S
C902 C901 1.443 . S
C902 C903 1.340 . S
C902 H942 0.951 . S
C903 C902 1.340 . S
C903 C904 1.439 . S
C903 H943 0.950 . S
C904 C903 1.439 . S
C904 N905 1.374 . S
C904 C938 1.395 . S
N905 C901 1.376 . S
N905 C904 1.374 . S
N905 Co906 2.008 . S
Co906 N905 2.008 . S
Co906 N907 1.995 . S
Co906 N912 2.008 . S
Co906 N917 1.995 . S
Co906 N922 2.282 . S
Co906 N928 2.282 . S
N907 Co906 1.995 . S
N907 C908 1.376 . S
N907 C911 1.383 . S
C908 N907 1.376 . S
C908 C909 1.446 . S
C908 C938 1.391 . S
C909 C908 1.446 . S
C909 C910 1.339 . S
C909 H944 0.949 . S
C910 C909 1.339 . S
C910 C911 1.439 . S
C910 H945 0.950 . S
C911 N907 1.383 . S
C911 C910 1.439 . S
C911 C940 1.392 . S
N912 Co906 2.008 . S
N912 C913 1.376 . S
N912 C916 1.374 . S
C913 N912 1.376 . S
C913 C914 1.443 . S
C913 C940 1.389 . S
C914 C913 1.443 . S
C914 C915 1.340 . S
C914 H946 0.951 . S
C915 C914 1.340 . S
C915 C916 1.439 . S
C915 H947 0.950 . S
C916 N912 1.374 . S
C916 C915 1.439 . S
C916 C941 1.395 . S
N917 Co906 1.995 . S
N917 C918 1.376 . S
N917 C921 1.383 . S
C918 N917 1.376 . S
C918 C919 1.446 . S
C918 C941 1.391 . S
C919 C918 1.446 . S
C919 C920 1.339 . S
C919 H948 0.949 . S
C920 C919 1.339 . S
C920 C921 1.439 . S
C920 H949 0.950 . S
C921 N917 1.383 . S
C921 C920 1.439 . S
C921 C939 1.392 . S
N922 Co906 2.282 . S
N922 C925 1.332 . S
N922 C927 1.332 . S
C923 C924 1.386 . S
C923 C926 1.388 . S
C924 C923 1.386 . S
C924 C925 1.382 . S
C924 H950 0.950 . S
C925 N922 1.332 . S
C925 C924 1.382 . S
C925 H936 0.952 . S
C926 C923 1.388 . S
C926 C927 1.382 . S
C926 H951 0.950 . S
C927 N922 1.332 . S
C927 C926 1.382 . S
C927 H937 0.948 . S
N928 Co906 2.282 . S
N928 C932 1.332 . S
N928 C933 1.332 . S
C929 C930 1.388 . S
C929 C933 1.382 . S
C929 H952 0.950 . S
C930 C929 1.388 . S
C930 C931 1.386 . S
C931 C930 1.386 . S
C931 C932 1.382 . S
C931 H953 0.950 . S
C932 N928 1.332 . S
C932 C931 1.382 . S
C932 H934 0.952 . S
C933 N928 1.332 . S
C933 C929 1.382 . S
C933 H935 0.948 . S
H934 C932 0.952 . S
H935 C933 0.948 . S
H936 C925 0.952 . S
H937 C927 0.948 . S
C938 C904 1.395 . S
C938 C908 1.391 . S
C939 C901 1.389 . S
C939 C921 1.392 . S
C940 C911 1.392 . S
C940 C913 1.389 . S
C941 C916 1.395 . S
C941 C918 1.391 . S
H942 C902 0.951 . S
H943 C903 0.950 . S
H944 C909 0.949 . S
H945 C910 0.950 . S
H946 C914 0.951 . S
H947 C915 0.950 . S
H948 C919 0.949 . S
H949 C920 0.950 . S
H950 C924 0.950 . S
H951 C926 0.950 . S
H952 C929 0.950 . S
H953 C931 0.950 . S
C954 C955 1.443 . S
C954 N958 1.376 . S
C954 C992 1.389 . S
C955 C954 1.443 . S
C955 C956 1.337 1_554 S
C955 H995 0.951 1_554 S
C956 C955 1.337 1_556 S
C956 C957 1.403 1_556 S
C956 H996 0.984 . S
C957 C956 1.403 1_554 S
C957 N958 1.374 . S
C957 C991 1.395 . S
N958 C954 1.376 . S
N958 C957 1.374 . S
N958 Co959 2.008 . S
Co959 N958 2.008 . S
Co959 N960 1.995 . S
Co959 N965 2.008 . S
Co959 N970 1.995 . S
Co959 N975 2.282 . S
Co959 N981 2.282 . S
N960 Co959 1.995 . S
N960 C961 1.376 . S
N960 C964 1.383 . S
C961 N960 1.376 . S
C961 C962 1.446 . S
C961 C991 1.391 . S
C962 C961 1.446 . S
C962 C963 1.339 . S
C962 H997 0.949 . S
C963 C962 1.339 . S
C963 C964 1.439 . S
C963 H998 0.950 . S
C964 N960 1.383 . S
C964 C963 1.439 . S
C964 C993 1.392 . S
N965 Co959 2.008 . S
N965 C966 1.376 . S
N965 C969 1.374 . S
C966 N965 1.376 . S
C966 C967 1.443 . S
C966 C993 1.389 . S
C967 C966 1.443 . S
C967 C968 1.340 . S
C967 H999 0.951 . S
C968 C967 1.340 . S
C968 C969 1.439 . S
C968 H1000 0.950 . S
C969 N965 1.374 . S
C969 C968 1.439 . S
C969 C994 1.395 . S
N970 Co959 1.995 . S
N970 C971 1.376 . S
N970 C974 1.383 . S
C971 N970 1.376 . S
C971 C972 1.446 . S
C971 C994 1.391 . S
C972 C971 1.446 . S
C972 C973 1.339 . S
C972 H1001 0.949 . S
C973 C972 1.339 . S
C973 C974 1.439 . S
C973 H1002 0.950 . S
C974 N970 1.383 . S
C974 C973 1.439 . S
C974 C992 1.392 . S
N975 Co959 2.282 . S
N975 C978 1.332 . S
N975 C980 1.332 . S
C976 C977 1.386 . S
C976 C979 1.388 . S
C977 C976 1.386 . S
C977 C978 1.382 . S
C977 H1003 0.950 . S
C978 N975 1.332 . S
C978 C977 1.382 . S
C978 H989 0.952 . S
C979 C976 1.388 . S
C979 C980 1.382 . S
C979 H1004 0.950 . S
C980 N975 1.332 . S
C980 C979 1.382 . S
C980 H990 0.948 . S
N981 Co959 2.282 . S
N981 C985 1.332 . S
N981 C986 1.332 . S
C982 C983 1.388 . S
C982 C986 1.382 . S
C982 H1005 0.950 . S
C983 C982 1.388 . S
C983 C984 1.386 . S
C984 C983 1.386 . S
C984 C985 1.382 . S
C984 H1006 0.950 . S
C985 N981 1.332 . S
C985 C984 1.382 . S
C985 H987 0.952 . S
C986 N981 1.332 . S
C986 C982 1.382 . S
C986 H988 0.948 . S
H987 C985 0.952 . S
H988 C986 0.948 . S
H989 C978 0.952 . S
H990 C980 0.948 . S
C991 C957 1.395 . S
C991 C961 1.391 . S
C992 C954 1.389 . S
C992 C974 1.392 . S
C993 C964 1.392 . S
C993 C966 1.389 . S
C994 C969 1.395 . S
C994 C971 1.391 . S
H995 C955 0.951 1_556 S
H996 C956 0.984 . S
H997 C962 0.949 . S
H998 C963 0.950 . S
H999 C967 0.951 . S
H1000 C968 0.950 . S
H1001 C972 0.949 . S
H1002 C973 0.950 . S
H1003 C977 0.950 . S
H1004 C979 0.950 . S
H1005 C982 0.950 . S
H1006 C984 0.950 . S
C1007 C1008 1.443 . S
C1007 N1011 1.376 . S
C1007 C1045 1.389 . S
C1008 C1007 1.443 . S
C1008 C1009 1.340 . S
C1008 H1048 0.951 . S
C1009 C1008 1.340 . S
C1009 C1010 1.439 . S
C1009 H1049 0.950 . S
C1010 C1009 1.439 . S
C1010 N1011 1.374 . S
C1010 C1044 1.395 . S
N1011 C1007 1.376 . S
N1011 C1010 1.374 . S
N1011 Co1012 2.008 . S
Co1012 N1011 2.008 . S
Co1012 N1013 1.995 . S
Co1012 N1018 2.008 . S
Co1012 N1023 1.995 . S
Co1012 N1028 2.282 . S
Co1012 N1034 2.282 . S
N1013 Co1012 1.995 . S
N1013 C1014 1.376 . S
N1013 C1017 1.383 . S
C1014 N1013 1.376 . S
C1014 C1015 1.446 . S
C1014 C1044 1.391 . S
C1015 C1014 1.446 . S
C1015 C1016 1.339 . S
C1015 H1050 0.949 . S
C1016 C1015 1.339 . S
C1016 C1017 1.439 . S
C1016 H1051 0.950 . S
C1017 N1013 1.383 . S
C1017 C1016 1.439 . S
C1017 C1046 1.392 . S
N1018 Co1012 2.008 . S
N1018 C1019 1.376 . S
N1018 C1022 1.374 . S
C1019 N1018 1.376 . S
C1019 C1020 1.443 . S
C1019 C1046 1.389 . S
C1020 C1019 1.443 . S
C1020 C1021 1.340 . S
C1020 H1052 0.951 . S
C1021 C1020 1.340 . S
C1021 C1022 1.439 . S
C1021 H1053 0.950 . S
C1022 N1018 1.374 . S
C1022 C1021 1.439 . S
C1022 C1047 1.395 . S
N1023 Co1012 1.995 . S
N1023 C1024 1.376 . S
N1023 C1027 1.383 . S
C1024 N1023 1.376 . S
C1024 C1025 1.446 . S
C1024 C1047 1.391 . S
C1025 C1024 1.446 . S
C1025 C1026 1.339 . S
C1025 H1054 0.949 . S
C1026 C1025 1.339 . S
C1026 C1027 1.439 . S
C1026 H1055 0.950 . S
C1027 N1023 1.383 . S
C1027 C1026 1.439 . S
C1027 C1045 1.392 . S
N1028 Co1012 2.282 . S
N1028 C1031 1.332 . S
N1028 C1033 1.332 . S
C1029 C1030 1.386 . S
C1029 C1032 1.388 . S
C1030 C1029 1.386 . S
C1030 C1031 1.382 . S
C1030 H1056 0.950 . S
C1031 N1028 1.332 . S
C1031 C1030 1.382 . S
C1031 H1042 0.952 . S
C1032 C1029 1.388 . S
C1032 C1033 1.382 . S
C1032 H1057 0.950 . S
C1033 N1028 1.332 . S
C1033 C1032 1.382 . S
C1033 H1043 0.948 . S
N1034 Co1012 2.282 . S
N1034 C1038 1.332 . S
N1034 C1039 1.332 . S
C1035 C1036 1.388 . S
C1035 C1039 1.382 . S
C1035 H1058 0.950 . S
C1036 C1035 1.388 . S
C1036 C1037 1.386 . S
C1037 C1036 1.386 . S
C1037 C1038 1.382 . S
C1037 H1059 0.950 . S
C1038 N1034 1.332 . S
C1038 C1037 1.382 . S
C1038 H1040 0.952 . S
C1039 N1034 1.332 . S
C1039 C1035 1.382 . S
C1039 H1041 0.948 . S
H1040 C1038 0.952 . S
H1041 C1039 0.948 . S
H1042 C1031 0.952 . S
H1043 C1033 0.948 . S
C1044 C1010 1.395 . S
C1044 C1014 1.391 . S
C1045 C1007 1.389 . S
C1045 C1027 1.392 . S
C1046 C1017 1.392 . S
C1046 C1019 1.389 . S
C1047 C1022 1.395 . S
C1047 C1024 1.391 . S
H1048 C1008 0.951 . S
H1049 C1009 0.950 . S
H1050 C1015 0.949 . S
H1051 C1016 0.950 . S
H1052 C1020 0.951 . S
H1053 C1021 0.950 . S
H1054 C1025 0.949 . S
H1055 C1026 0.950 . S
H1056 C1030 0.950 . S
H1057 C1032 0.950 . S
H1058 C1035 0.950 . S
H1059 C1037 0.950 . S
C1060 C1061 1.443 . S
C1060 N1064 1.376 . S
C1060 C1098 1.389 1_565 S
C1061 C1060 1.443 . S
C1061 C1062 1.337 1_554 S
C1061 H1101 0.951 1_564 S
C1062 C1061 1.337 1_556 S
C1062 C1063 1.403 1_556 S
C1062 H1102 0.984 . S
C1063 C1062 1.403 1_554 S
C1063 N1064 1.374 . S
C1063 C1097 1.395 . S
N1064 C1060 1.376 . S
N1064 C1063 1.374 . S
N1064 Co1065 2.008 . S
Co1065 N1064 2.008 . S
Co1065 N1066 1.995 . S
Co1065 N1071 2.008 . S
Co1065 N1076 1.995 . S
Co1065 N1081 2.282 . S
Co1065 N1087 2.282 . S
N1066 Co1065 1.995 . S
N1066 C1067 1.376 . S
N1066 C1070 1.383 . S
C1067 N1066 1.376 . S
C1067 C1068 1.446 . S
C1067 C1097 1.391 . S
C1068 C1067 1.446 . S
C1068 C1069 1.339 . S
C1068 H1103 0.949 . S
C1069 C1068 1.339 . S
C1069 C1070 1.439 . S
C1069 H1104 0.950 . S
C1070 N1066 1.383 . S
C1070 C1069 1.439 . S
C1070 C1099 1.392 . S
N1071 Co1065 2.008 . S
N1071 C1072 1.376 . S
N1071 C1075 1.374 . S
C1072 N1071 1.376 . S
C1072 C1073 1.443 . S
C1072 C1099 1.389 . S
C1073 C1072 1.443 . S
C1073 C1074 1.340 . S
C1073 H1105 0.951 . S
C1074 C1073 1.340 . S
C1074 C1075 1.439 . S
C1074 H1106 0.950 . S
C1075 N1071 1.374 . S
C1075 C1074 1.439 . S
C1075 C1100 1.395 . S
N1076 Co1065 1.995 . S
N1076 C1077 1.376 . S
N1076 C1080 1.383 1_565 S
C1077 N1076 1.376 . S
C1077 C1078 1.446 1_565 S
C1077 C1100 1.391 . S
C1078 C1077 1.446 1_545 S
C1078 C1079 1.339 . S
C1078 H1107 0.949 . S
C1079 C1078 1.339 . S
C1079 C1080 1.439 . S
C1079 H1108 0.950 . S
C1080 N1076 1.383 1_545 S
C1080 C1079 1.439 . S
C1080 C1098 1.392 . S
N1081 Co1065 2.282 . S
N1081 C1084 1.332 1_565 S
N1081 C1086 1.332 . S
C1082 C1083 1.386 . S
C1082 C1085 1.388 . S
C1083 C1082 1.386 . S
C1083 C1084 1.382 . S
C1083 H1109 0.950 . S
C1084 N1081 1.332 1_545 S
C1084 C1083 1.382 . S
C1084 H1095 0.952 . S
C1085 C1082 1.388 . S
C1085 C1086 1.382 1_545 S
C1085 H1110 0.957 . S
C1086 N1081 1.332 . S
C1086 C1085 1.382 1_565 S
C1086 H1096 0.948 . S
N1087 Co1065 2.282 . S
N1087 C1091 1.332 . S
N1087 C1092 1.332 . S
C1088 C1089 1.388 . S
C1088 C1092 1.382 . S
C1088 H1111 0.950 . S
C1089 C1088 1.388 . S
C1089 C1090 1.386 . S
C1090 C1089 1.386 . S
C1090 C1091 1.382 . S
C1090 H1112 0.950 . S
C1091 N1087 1.332 . S
C1091 C1090 1.382 . S
C1091 H1093 0.952 . S
C1092 N1087 1.332 . S
C1092 C1088 1.382 . S
C1092 H1094 0.948 . S
H1093 C1091 0.952 . S
H1094 C1092 0.948 . S
H1095 C1084 0.952 . S
H1096 C1086 0.948 . S
C1097 C1063 1.395 . S
C1097 C1067 1.391 . S
C1098 C1060 1.389 1_545 S
C1098 C1080 1.392 . S
C1099 C1070 1.392 . S
C1099 C1072 1.389 . S
C1100 C1075 1.395 . S
C1100 C1077 1.391 . S
H1101 C1061 0.951 1_546 S
H1102 C1062 0.984 . S
H1103 C1068 0.949 . S
H1104 C1069 0.950 . S
H1105 C1073 0.951 . S
H1106 C1074 0.950 . S
H1107 C1078 0.949 . S
H1108 C1079 0.950 . S
H1109 C1083 0.950 . S
H1110 C1085 0.957 . S
H1111 C1088 0.950 . S
H1112 C1090 0.950 . S
C1113 C1114 1.443 . S
C1113 N1117 1.376 . S
C1113 C1151 1.389 . S
C1114 C1113 1.443 . S
C1114 C1115 1.340 . S
C1114 H1154 0.951 . S
C1115 C1114 1.340 . S
C1115 C1116 1.439 . S
C1115 H1155 0.950 . S
C1116 C1115 1.439 . S
C1116 N1117 1.374 . S
C1116 C1150 1.395 . S
N1117 C1113 1.376 . S
N1117 C1116 1.374 . S
N1117 Co1118 2.008 . S
Co1118 N1117 2.008 . S
Co1118 N1119 1.995 . S
Co1118 N1124 2.008 . S
Co1118 N1129 1.995 . S
Co1118 N1134 2.282 . S
Co1118 N1140 2.282 . S
N1119 Co1118 1.995 . S
N1119 C1120 1.376 . S
N1119 C1123 1.383 . S
C1120 N1119 1.376 . S
C1120 C1121 1.446 . S
C1120 C1150 1.391 . S
C1121 C1120 1.446 . S
C1121 C1122 1.339 . S
C1121 H1156 0.949 . S
C1122 C1121 1.339 . S
C1122 C1123 1.439 . S
C1122 H1157 0.950 . S
C1123 N1119 1.383 . S
C1123 C1122 1.439 . S
C1123 C1152 1.392 . S
N1124 Co1118 2.008 . S
N1124 C1125 1.376 . S
N1124 C1128 1.374 . S
C1125 N1124 1.376 . S
C1125 C1126 1.443 . S
C1125 C1152 1.389 . S
C1126 C1125 1.443 . S
C1126 C1127 1.340 . S
C1126 H1158 0.951 . S
C1127 C1126 1.340 . S
C1127 C1128 1.439 . S
C1127 H1159 0.950 . S
C1128 N1124 1.374 . S
C1128 C1127 1.439 . S
C1128 C1153 1.395 . S
N1129 Co1118 1.995 . S
N1129 C1130 1.376 . S
N1129 C1133 1.383 . S
C1130 N1129 1.376 . S
C1130 C1131 1.446 . S
C1130 C1153 1.391 . S
C1131 C1130 1.446 . S
C1131 C1132 1.339 . S
C1131 H1160 0.949 . S
C1132 C1131 1.339 . S
C1132 C1133 1.439 . S
C1132 H1161 0.950 . S
C1133 N1129 1.383 . S
C1133 C1132 1.439 . S
C1133 C1151 1.392 . S
N1134 Co1118 2.282 . S
N1134 C1137 1.332 . S
N1134 C1139 1.332 . S
C1135 C1136 1.386 . S
C1135 C1138 1.388 . S
C1136 C1135 1.386 . S
C1136 C1137 1.382 . S
C1136 H1162 0.950 . S
C1137 N1134 1.332 . S
C1137 C1136 1.382 . S
C1137 H1148 0.952 . S
C1138 C1135 1.388 . S
C1138 C1139 1.382 . S
C1138 H1163 0.950 . S
C1139 N1134 1.332 . S
C1139 C1138 1.382 . S
C1139 H1149 0.948 . S
N1140 Co1118 2.282 . S
N1140 C1144 1.332 . S
N1140 C1145 1.332 . S
C1141 C1142 1.388 . S
C1141 C1145 1.382 . S
C1141 H1164 0.950 . S
C1142 C1141 1.388 . S
C1142 C1143 1.386 . S
C1143 C1142 1.386 . S
C1143 C1144 1.382 . S
C1143 H1165 0.950 . S
C1144 N1140 1.332 . S
C1144 C1143 1.382 . S
C1144 H1146 0.952 . S
C1145 N1140 1.332 . S
C1145 C1141 1.382 . S
C1145 H1147 0.948 . S
H1146 C1144 0.952 . S
H1147 C1145 0.948 . S
H1148 C1137 0.952 . S
H1149 C1139 0.948 . S
C1150 C1116 1.395 . S
C1150 C1120 1.391 . S
C1151 C1113 1.389 . S
C1151 C1133 1.392 . S
C1152 C1123 1.392 . S
C1152 C1125 1.389 . S
C1153 C1128 1.395 . S
C1153 C1130 1.391 . S
H1154 C1114 0.951 . S
H1155 C1115 0.950 . S
H1156 C1121 0.949 . S
H1157 C1122 0.950 . S
H1158 C1126 0.951 . S
H1159 C1127 0.950 . S
H1160 C1131 0.949 . S
H1161 C1132 0.950 . S
H1162 C1136 0.950 . S
H1163 C1138 0.950 . S
H1164 C1141 0.950 . S
H1165 C1143 0.950 . S
C1166 C1167 1.443 . S
C1166 N1170 1.376 . S
C1166 C1204 1.389 . S
C1167 C1166 1.443 . S
C1167 C1168 1.340 . S
C1167 H1207 0.951 . S
C1168 C1167 1.340 . S
C1168 C1169 1.439 . S
C1168 H1208 0.950 . S
C1169 C1168 1.439 . S
C1169 N1170 1.374 . S
C1169 C1203 1.395 . S
N1170 C1166 1.376 . S
N1170 C1169 1.374 . S
N1170 Co1171 2.008 . S
Co1171 N1170 2.008 . S
Co1171 N1172 1.995 . S
Co1171 N1177 2.008 . S
Co1171 N1182 1.995 . S
Co1171 N1187 2.282 . S
Co1171 N1193 2.282 . S
N1172 Co1171 1.995 . S
N1172 C1173 1.376 . S
N1172 C1176 1.383 . S
C1173 N1172 1.376 . S
C1173 C1174 1.446 . S
C1173 C1203 1.391 . S
C1174 C1173 1.446 . S
C1174 C1175 1.339 . S
C1174 H1209 0.949 . S
C1175 C1174 1.339 . S
C1175 C1176 1.439 . S
C1175 H1210 0.950 . S
C1176 N1172 1.383 . S
C1176 C1175 1.439 . S
C1176 C1205 1.392 . S
N1177 Co1171 2.008 . S
N1177 C1178 1.376 . S
N1177 C1181 1.374 . S
C1178 N1177 1.376 . S
C1178 C1179 1.443 . S
C1178 C1205 1.389 . S
C1179 C1178 1.443 . S
C1179 C1180 1.340 . S
C1179 H1211 0.951 . S
C1180 C1179 1.340 . S
C1180 C1181 1.439 . S
C1180 H1212 0.950 . S
C1181 N1177 1.374 . S
C1181 C1180 1.439 . S
C1181 C1206 1.395 . S
N1182 Co1171 1.995 . S
N1182 C1183 1.376 . S
N1182 C1186 1.383 . S
C1183 N1182 1.376 . S
C1183 C1184 1.446 . S
C1183 C1206 1.391 . S
C1184 C1183 1.446 . S
C1184 C1185 1.339 . S
C1184 H1213 0.949 . S
C1185 C1184 1.339 . S
C1185 C1186 1.439 . S
C1185 H1214 0.950 . S
C1186 N1182 1.383 . S
C1186 C1185 1.439 . S
C1186 C1204 1.392 . S
N1187 Co1171 2.282 . S
N1187 C1190 1.332 . S
N1187 C1192 1.332 . S
C1188 C1189 1.386 . S
C1188 C1191 1.388 . S
C1189 C1188 1.386 . S
C1189 C1190 1.382 . S
C1189 H1215 0.950 . S
C1190 N1187 1.332 . S
C1190 C1189 1.382 . S
C1190 H1201 0.952 . S
C1191 C1188 1.388 . S
C1191 C1192 1.382 . S
C1191 H1216 0.950 . S
C1192 N1187 1.332 . S
C1192 C1191 1.382 . S
C1192 H1202 0.948 . S
N1193 Co1171 2.282 . S
N1193 C1197 1.332 . S
N1193 C1198 1.332 . S
C1194 C1195 1.388 . S
C1194 C1198 1.382 . S
C1194 H1217 0.950 . S
C1195 C1194 1.388 . S
C1195 C1196 1.386 . S
C1196 C1195 1.386 . S
C1196 C1197 1.382 . S
C1196 H1218 0.950 . S
C1197 N1193 1.332 . S
C1197 C1196 1.382 . S
C1197 H1199 0.952 . S
C1198 N1193 1.332 . S
C1198 C1194 1.382 . S
C1198 H1200 0.948 . S
H1199 C1197 0.952 . S
H1200 C1198 0.948 . S
H1201 C1190 0.952 . S
H1202 C1192 0.948 . S
C1203 C1169 1.395 . S
C1203 C1173 1.391 . S
C1204 C1166 1.389 . S
C1204 C1186 1.392 . S
C1205 C1176 1.392 . S
C1205 C1178 1.389 . S
C1206 C1181 1.395 . S
C1206 C1183 1.391 . S
H1207 C1167 0.951 . S
H1208 C1168 0.950 . S
H1209 C1174 0.949 . S
H1210 C1175 0.950 . S
H1211 C1179 0.951 . S
H1212 C1180 0.950 . S
H1213 C1184 0.949 . S
H1214 C1185 0.950 . S
H1215 C1189 0.950 . S
H1216 C1191 0.950 . S
H1217 C1194 0.950 . S
H1218 C1196 0.950 . S
C1219 C1220 1.443 . S
C1219 N1223 1.376 . S
C1219 C1257 1.389 . S
C1220 C1219 1.443 . S
C1220 C1221 1.337 1_556 S
C1220 H1260 0.951 1_556 S
C1221 C1220 1.337 1_554 S
C1221 C1222 1.404 1_554 S
C1221 H1261 0.983 . S
C1222 C1221 1.404 1_556 S
C1222 N1223 1.374 . S
C1222 C1256 1.395 . S
N1223 C1219 1.376 . S
N1223 C1222 1.374 . S
N1223 Co1224 2.008 . S
Co1224 N1223 2.008 . S
Co1224 N1225 1.995 . S
Co1224 N1230 2.008 . S
Co1224 N1235 1.995 . S
Co1224 N1240 2.282 . S
Co1224 N1246 2.282 . S
N1225 Co1224 1.995 . S
N1225 C1226 1.376 . S
N1225 C1229 1.383 . S
C1226 N1225 1.376 . S
C1226 C1227 1.446 . S
C1226 C1256 1.391 . S
C1227 C1226 1.446 . S
C1227 C1228 1.339 . S
C1227 H1262 0.949 . S
C1228 C1227 1.339 . S
C1228 C1229 1.439 . S
C1228 H1263 0.950 . S
C1229 N1225 1.383 . S
C1229 C1228 1.439 . S
C1229 C1258 1.392 . S
N1230 Co1224 2.008 . S
N1230 C1231 1.376 . S
N1230 C1234 1.374 . S
C1231 N1230 1.376 . S
C1231 C1232 1.443 . S
C1231 C1258 1.389 . S
C1232 C1231 1.443 . S
C1232 C1233 1.340 . S
C1232 H1264 0.951 . S
C1233 C1232 1.340 . S
C1233 C1234 1.439 . S
C1233 H1265 0.950 . S
C1234 N1230 1.374 . S
C1234 C1233 1.439 . S
C1234 C1259 1.395 . S
N1235 Co1224 1.995 . S
N1235 C1236 1.376 . S
N1235 C1239 1.383 . S
C1236 N1235 1.376 . S
C1236 C1237 1.446 . S
C1236 C1259 1.391 . S
C1237 C1236 1.446 . S
C1237 C1238 1.339 . S
C1237 H1266 0.949 . S
C1238 C1237 1.339 . S
C1238 C1239 1.439 . S
C1238 H1267 0.950 . S
C1239 N1235 1.383 . S
C1239 C1238 1.439 . S
C1239 C1257 1.392 . S
N1240 Co1224 2.282 . S
N1240 C1243 1.332 . S
N1240 C1245 1.332 . S
C1241 C1242 1.386 . S
C1241 C1244 1.388 . S
C1242 C1241 1.386 . S
C1242 C1243 1.382 . S
C1242 H1268 0.950 . S
C1243 N1240 1.332 . S
C1243 C1242 1.382 . S
C1243 H1254 0.952 . S
C1244 C1241 1.388 . S
C1244 C1245 1.382 . S
C1244 H1269 0.950 . S
C1245 N1240 1.332 . S
C1245 C1244 1.382 . S
C1245 H1255 0.948 . S
N1246 Co1224 2.282 . S
N1246 C1250 1.332 . S
N1246 C1251 1.332 . S
C1247 C1248 1.388 . S
C1247 C1251 1.382 . S
C1247 H1270 0.950 . S
C1248 C1247 1.388 . S
C1248 C1249 1.386 . S
C1249 C1248 1.386 . S
C1249 C1250 1.382 . S
C1249 H1271 0.950 . S
C1250 N1246 1.332 . S
C1250 C1249 1.382 . S
C1250 H1252 0.952 . S
C1251 N1246 1.332 . S
C1251 C1247 1.382 . S
C1251 H1253 0.948 . S
H1252 C1250 0.952 . S
H1253 C1251 0.948 . S
H1254 C1243 0.952 . S
H1255 C1245 0.948 . S
C1256 C1222 1.395 . S
C1256 C1226 1.391 . S
C1257 C1219 1.389 . S
C1257 C1239 1.392 . S
C1258 C1229 1.392 . S
C1258 C1231 1.389 . S
C1259 C1234 1.395 . S
C1259 C1236 1.391 . S
H1260 C1220 0.951 1_554 S
H1261 C1221 0.983 . S
H1262 C1227 0.949 . S
H1263 C1228 0.950 . S
H1264 C1232 0.951 . S
H1265 C1233 0.950 . S
H1266 C1237 0.949 . S
H1267 C1238 0.950 . S
H1268 C1242 0.950 . S
H1269 C1244 0.950 . S
H1270 C1247 0.950 . S
H1271 C1249 0.950 . S
C1272 C1273 1.443 . S
C1272 N1276 1.376 . S
C1272 C1310 1.389 . S
C1273 C1272 1.443 . S
C1273 C1274 1.340 . S
C1273 H1313 0.951 . S
C1274 C1273 1.340 . S
C1274 C1275 1.439 . S
C1274 H1314 0.950 . S
C1275 C1274 1.439 . S
C1275 N1276 1.374 . S
C1275 C1309 1.395 . S
N1276 C1272 1.376 . S
N1276 C1275 1.374 . S
N1276 Co1277 2.008 . S
Co1277 N1276 2.008 . S
Co1277 N1278 1.995 . S
Co1277 N1283 2.008 . S
Co1277 N1288 1.995 . S
Co1277 N1293 2.282 . S
Co1277 N1299 2.282 . S
N1278 Co1277 1.995 . S
N1278 C1279 1.376 . S
N1278 C1282 1.383 . S
C1279 N1278 1.376 . S
C1279 C1280 1.446 . S
C1279 C1309 1.391 . S
C1280 C1279 1.446 . S
C1280 C1281 1.339 . S
C1280 H1315 0.949 . S
C1281 C1280 1.339 . S
C1281 C1282 1.439 . S
C1281 H1316 0.950 . S
C1282 N1278 1.383 . S
C1282 C1281 1.439 . S
C1282 C1311 1.392 . S
N1283 Co1277 2.008 . S
N1283 C1284 1.376 . S
N1283 C1287 1.374 . S
C1284 N1283 1.376 . S
C1284 C1285 1.443 . S
C1284 C1311 1.389 . S
C1285 C1284 1.443 . S
C1285 C1286 1.340 . S
C1285 H1317 0.951 . S
C1286 C1285 1.340 . S
C1286 C1287 1.439 . S
C1286 H1318 0.950 . S
C1287 N1283 1.374 . S
C1287 C1286 1.439 . S
C1287 C1312 1.395 . S
N1288 Co1277 1.995 . S
N1288 C1289 1.376 . S
N1288 C1292 1.383 . S
C1289 N1288 1.376 . S
C1289 C1290 1.446 . S
C1289 C1312 1.391 . S
C1290 C1289 1.446 . S
C1290 C1291 1.339 . S
C1290 H1319 0.949 . S
C1291 C1290 1.339 . S
C1291 C1292 1.439 . S
C1291 H1320 0.950 . S
C1292 N1288 1.383 . S
C1292 C1291 1.439 . S
C1292 C1310 1.392 . S
N1293 Co1277 2.282 . S
N1293 C1296 1.332 . S
N1293 C1298 1.332 . S
C1294 C1295 1.386 . S
C1294 C1297 1.388 . S
C1295 C1294 1.386 . S
C1295 C1296 1.382 . S
C1295 H1321 0.950 . S
C1296 N1293 1.332 . S
C1296 C1295 1.382 . S
C1296 H1307 0.952 . S
C1297 C1294 1.388 . S
C1297 C1298 1.382 . S
C1297 H1322 0.950 . S
C1298 N1293 1.332 . S
C1298 C1297 1.382 . S
C1298 H1308 0.948 . S
N1299 Co1277 2.282 . S
N1299 C1303 1.332 . S
N1299 C1304 1.332 . S
C1300 C1301 1.388 . S
C1300 C1304 1.382 . S
C1300 H1323 0.950 . S
C1301 C1300 1.388 . S
C1301 C1302 1.386 . S
C1302 C1301 1.386 . S
C1302 C1303 1.382 . S
C1302 H1324 0.950 . S
C1303 N1299 1.332 . S
C1303 C1302 1.382 . S
C1303 H1305 0.952 . S
C1304 N1299 1.332 . S
C1304 C1300 1.382 . S
C1304 H1306 0.948 . S
H1305 C1303 0.952 . S
H1306 C1304 0.948 . S
H1307 C1296 0.952 . S
H1308 C1298 0.948 . S
C1309 C1275 1.395 . S
C1309 C1279 1.391 . S
C1310 C1272 1.389 . S
C1310 C1292 1.392 . S
C1311 C1282 1.392 . S
C1311 C1284 1.389 . S
C1312 C1287 1.395 . S
C1312 C1289 1.391 . S
H1313 C1273 0.951 . S
H1314 C1274 0.950 . S
H1315 C1280 0.949 . S
H1316 C1281 0.950 . S
H1317 C1285 0.951 . S
H1318 C1286 0.950 . S
H1319 C1290 0.949 . S
H1320 C1291 0.950 . S
H1321 C1295 0.950 . S
H1322 C1297 0.950 . S
H1323 C1300 0.950 . S
H1324 C1302 0.950 . S
C1325 C1326 1.443 . S
C1325 N1329 1.376 . S
C1325 C1363 1.389 . S
C1326 C1325 1.443 . S
C1326 C1327 1.340 . S
C1326 H1366 0.951 . S
C1327 C1326 1.340 . S
C1327 C1328 1.439 . S
C1327 H1367 0.950 . S
C1328 C1327 1.439 . S
C1328 N1329 1.374 . S
C1328 C1362 1.395 . S
N1329 C1325 1.376 . S
N1329 C1328 1.374 . S
N1329 Co1330 2.008 . S
Co1330 N1329 2.008 . S
Co1330 N1331 1.995 . S
Co1330 N1336 2.008 . S
Co1330 N1341 1.995 . S
Co1330 N1346 2.282 . S
Co1330 N1352 2.282 . S
N1331 Co1330 1.995 . S
N1331 C1332 1.376 . S
N1331 C1335 1.383 . S
C1332 N1331 1.376 . S
C1332 C1333 1.446 . S
C1332 C1362 1.391 . S
C1333 C1332 1.446 . S
C1333 C1334 1.339 . S
C1333 H1368 0.949 . S
C1334 C1333 1.339 . S
C1334 C1335 1.439 . S
C1334 H1369 0.950 . S
C1335 N1331 1.383 . S
C1335 C1334 1.439 . S
C1335 C1364 1.392 . S
N1336 Co1330 2.008 . S
N1336 C1337 1.376 . S
N1336 C1340 1.374 . S
C1337 N1336 1.376 . S
C1337 C1338 1.443 . S
C1337 C1364 1.389 . S
C1338 C1337 1.443 . S
C1338 C1339 1.340 . S
C1338 H1370 0.951 . S
C1339 C1338 1.340 . S
C1339 C1340 1.439 . S
C1339 H1371 0.950 . S
C1340 N1336 1.374 . S
C1340 C1339 1.439 . S
C1340 C1365 1.395 . S
N1341 Co1330 1.995 . S
N1341 C1342 1.376 . S
N1341 C1345 1.383 . S
C1342 N1341 1.376 . S
C1342 C1343 1.446 . S
C1342 C1365 1.391 . S
C1343 C1342 1.446 . S
C1343 C1344 1.339 . S
C1343 H1372 0.949 . S
C1344 C1343 1.339 . S
C1344 C1345 1.439 . S
C1344 H1373 0.950 . S
C1345 N1341 1.383 . S
C1345 C1344 1.439 . S
C1345 C1363 1.392 . S
N1346 Co1330 2.282 . S
N1346 C1349 1.332 . S
N1346 C1351 1.332 . S
C1347 C1348 1.386 . S
C1347 C1350 1.388 . S
C1348 C1347 1.386 . S
C1348 C1349 1.382 . S
C1348 H1374 0.950 . S
C1349 N1346 1.332 . S
C1349 C1348 1.382 . S
C1349 H1360 0.952 . S
C1350 C1347 1.388 . S
C1350 C1351 1.382 . S
C1350 H1375 0.950 . S
C1351 N1346 1.332 . S
C1351 C1350 1.382 . S
C1351 H1361 0.948 . S
N1352 Co1330 2.282 . S
N1352 C1356 1.332 . S
N1352 C1357 1.332 . S
C1353 C1354 1.388 . S
C1353 C1357 1.382 . S
C1353 H1376 0.950 . S
C1354 C1353 1.388 . S
C1354 C1355 1.386 . S
C1355 C1354 1.386 . S
C1355 C1356 1.382 . S
C1355 H1377 0.950 . S
C1356 N1352 1.332 . S
C1356 C1355 1.382 . S
C1356 H1358 0.952 . S
C1357 N1352 1.332 . S
C1357 C1353 1.382 . S
C1357 H1359 0.948 . S
H1358 C1356 0.952 . S
H1359 C1357 0.948 . S
H1360 C1349 0.952 . S
H1361 C1351 0.948 . S
C1362 C1328 1.395 . S
C1362 C1332 1.391 . S
C1363 C1325 1.389 . S
C1363 C1345 1.392 . S
C1364 C1335 1.392 . S
C1364 C1337 1.389 . S
C1365 C1340 1.395 . S
C1365 C1342 1.391 . S
H1366 C1326 0.951 . S
H1367 C1327 0.950 . S
H1368 C1333 0.949 . S
H1369 C1334 0.950 . S
H1370 C1338 0.951 . S
H1371 C1339 0.950 . S
H1372 C1343 0.949 . S
H1373 C1344 0.950 . S
H1374 C1348 0.950 . S
H1375 C1350 0.950 . S
H1376 C1353 0.950 . S
H1377 C1355 0.950 . S
C1378 C1379 1.443 . S
C1378 N1382 1.376 . S
C1378 C1416 1.389 . S
C1379 C1378 1.443 . S
C1379 C1380 1.340 . S
C1379 H1419 0.951 . S
C1380 C1379 1.340 . S
C1380 C1381 1.439 . S
C1380 H1420 0.950 . S
C1381 C1380 1.439 . S
C1381 N1382 1.374 . S
C1381 C1415 1.395 . S
N1382 C1378 1.376 . S
N1382 C1381 1.374 . S
N1382 Co1383 2.008 . S
Co1383 N1382 2.008 . S
Co1383 N1384 1.995 . S
Co1383 N1389 2.008 . S
Co1383 N1394 1.995 . S
Co1383 N1399 2.282 . S
Co1383 N1405 2.282 . S
N1384 Co1383 1.995 . S
N1384 C1385 1.376 . S
N1384 C1388 1.383 . S
C1385 N1384 1.376 . S
C1385 C1386 1.446 . S
C1385 C1415 1.391 . S
C1386 C1385 1.446 . S
C1386 C1387 1.339 . S
C1386 H1421 0.949 . S
C1387 C1386 1.339 . S
C1387 C1388 1.439 . S
C1387 H1422 0.950 . S
C1388 N1384 1.383 . S
C1388 C1387 1.439 . S
C1388 C1417 1.392 . S
N1389 Co1383 2.008 . S
N1389 C1390 1.376 . S
N1389 C1393 1.374 . S
C1390 N1389 1.376 . S
C1390 C1391 1.443 . S
C1390 C1417 1.389 . S
C1391 C1390 1.443 . S
C1391 C1392 1.340 . S
C1391 H1423 0.951 . S
C1392 C1391 1.340 . S
C1392 C1393 1.439 . S
C1392 H1424 0.950 . S
C1393 N1389 1.374 . S
C1393 C1392 1.439 . S
C1393 C1418 1.395 . S
N1394 Co1383 1.995 . S
N1394 C1395 1.376 . S
N1394 C1398 1.383 . S
C1395 N1394 1.376 . S
C1395 C1396 1.446 . S
C1395 C1418 1.391 . S
C1396 C1395 1.446 . S
C1396 C1397 1.339 . S
C1396 H1425 0.949 . S
C1397 C1396 1.339 . S
C1397 C1398 1.439 . S
C1397 H1426 0.950 . S
C1398 N1394 1.383 . S
C1398 C1397 1.439 . S
C1398 C1416 1.392 . S
N1399 Co1383 2.282 . S
N1399 C1402 1.332 . S
N1399 C1404 1.332 . S
C1400 C1401 1.386 . S
C1400 C1403 1.388 . S
C1401 C1400 1.386 . S
C1401 C1402 1.382 . S
C1401 H1427 0.950 . S
C1402 N1399 1.332 . S
C1402 C1401 1.382 . S
C1402 H1413 0.952 . S
C1403 C1400 1.388 . S
C1403 C1404 1.382 . S
C1403 H1428 0.950 . S
C1404 N1399 1.332 . S
C1404 C1403 1.382 . S
C1404 H1414 0.948 . S
N1405 Co1383 2.282 . S
N1405 C1409 1.332 . S
N1405 C1410 1.332 . S
C1406 C1407 1.388 . S
C1406 C1410 1.382 . S
C1406 H1429 0.950 . S
C1407 C1406 1.388 . S
C1407 C1408 1.386 . S
C1408 C1407 1.386 . S
C1408 C1409 1.382 . S
C1408 H1430 0.950 . S
C1409 N1405 1.332 . S
C1409 C1408 1.382 . S
C1409 H1411 0.952 . S
C1410 N1405 1.332 . S
C1410 C1406 1.382 . S
C1410 H1412 0.948 . S
H1411 C1409 0.952 . S
H1412 C1410 0.948 . S
H1413 C1402 0.952 . S
H1414 C1404 0.948 . S
C1415 C1381 1.395 . S
C1415 C1385 1.391 . S
C1416 C1378 1.389 . S
C1416 C1398 1.392 . S
C1417 C1388 1.392 . S
C1417 C1390 1.389 . S
C1418 C1393 1.395 . S
C1418 C1395 1.391 . S
H1419 C1379 0.951 . S
H1420 C1380 0.950 . S
H1421 C1386 0.949 . S
H1422 C1387 0.950 . S
H1423 C1391 0.951 . S
H1424 C1392 0.950 . S
H1425 C1396 0.949 . S
H1426 C1397 0.950 . S
H1427 C1401 0.950 . S
H1428 C1403 0.950 . S
H1429 C1406 0.950 . S
H1430 C1408 0.950 . S
C1431 C1432 1.443 . S
C1431 N1435 1.376 . S
C1431 C1469 1.389 . S
C1432 C1431 1.443 . S
C1432 C1433 1.340 . S
C1432 H1472 0.951 . S
C1433 C1432 1.340 . S
C1433 C1434 1.439 . S
C1433 H1473 0.950 . S
C1434 C1433 1.439 . S
C1434 N1435 1.374 . S
C1434 C1468 1.395 . S
N1435 C1431 1.376 . S
N1435 C1434 1.374 . S
N1435 Co1436 2.008 1_655 S
Co1436 N1435 2.008 1_455 S
Co1436 N1437 1.995 . S
Co1436 N1442 2.008 . S
Co1436 N1447 1.995 . S
Co1436 N1452 2.282 1_455 S
Co1436 N1458 2.282 . S
N1437 Co1436 1.995 . S
N1437 C1438 1.376 . S
N1437 C1441 1.383 . S
C1438 N1437 1.376 . S
C1438 C1439 1.446 . S
C1438 C1468 1.391 1_455 S
C1439 C1438 1.446 . S
C1439 C1440 1.339 . S
C1439 H1474 0.949 . S
C1440 C1439 1.339 . S
C1440 C1441 1.439 . S
C1440 H1475 0.950 . S
C1441 N1437 1.383 . S
C1441 C1440 1.439 . S
C1441 C1470 1.392 . S
N1442 Co1436 2.008 . S
N1442 C1443 1.376 . S
N1442 C1446 1.374 . S
C1443 N1442 1.376 . S
C1443 C1444 1.443 . S
C1443 C1470 1.389 . S
C1444 C1443 1.443 . S
C1444 C1445 1.340 . S
C1444 H1476 0.951 . S
C1445 C1444 1.340 . S
C1445 C1446 1.439 . S
C1445 H1477 0.950 . S
C1446 N1442 1.374 . S
C1446 C1445 1.439 . S
C1446 C1471 1.395 . S
N1447 Co1436 1.995 . S
N1447 C1448 1.376 . S
N1447 C1451 1.370 1_455 S
C1448 N1447 1.376 . S
C1448 C1449 1.446 . S
C1448 C1471 1.391 . S
C1449 C1448 1.446 . S
C1449 C1450 1.366 . S
C1449 H1478 0.949 . S
C1450 C1449 1.366 . S
C1450 C1451 1.436 1_455 S
C1450 H1479 0.930 1_455 S
C1451 N1447 1.370 1_655 S
C1451 C1450 1.436 1_655 S
C1451 C1469 1.405 . S
N1452 Co1436 2.282 1_655 S
N1452 C1455 1.332 . S
N1452 C1457 1.332 . S
C1453 C1454 1.386 . S
C1453 C1456 1.388 . S
C1454 C1453 1.386 . S
C1454 C1455 1.382 . S
C1454 H1480 0.950 . S
C1455 N1452 1.332 . S
C1455 C1454 1.382 . S
C1455 H1466 0.952 . S
C1456 C1453 1.388 . S
C1456 C1457 1.382 . S
C1456 H1481 0.950 . S
C1457 N1452 1.332 . S
C1457 C1456 1.382 . S
C1457 H1467 0.948 . S
N1458 Co1436 2.282 . S
N1458 C1462 1.332 . S
N1458 C1463 1.332 . S
C1459 C1460 1.388 . S
C1459 C1463 1.382 . S
C1459 H1482 0.950 . S
C1460 C1459 1.388 . S
C1460 C1461 1.386 . S
C1461 C1460 1.386 . S
C1461 C1462 1.382 . S
C1461 H1483 0.950 . S
C1462 N1458 1.332 . S
C1462 C1461 1.382 . S
C1462 H1464 0.952 . S
C1463 N1458 1.332 . S
C1463 C1459 1.382 . S
C1463 H1465 0.948 . S
H1464 C1462 0.952 . S
H1465 C1463 0.948 . S
H1466 C1455 0.952 . S
H1467 C1457 0.948 . S
C1468 C1434 1.395 . S
C1468 C1438 1.391 1_655 S
C1469 C1431 1.389 . S
C1469 C1451 1.405 . S
C1470 C1441 1.392 . S
C1470 C1443 1.389 . S
C1471 C1446 1.395 . S
C1471 C1448 1.391 . S
H1472 C1432 0.951 . S
H1473 C1433 0.950 . S
H1474 C1439 0.949 . S
H1475 C1440 0.950 . S
H1476 C1444 0.951 . S
H1477 C1445 0.950 . S
H1478 C1449 0.949 . S
H1479 C1450 0.930 1_655 S
H1480 C1454 0.950 . S
H1481 C1456 0.950 . S
H1482 C1459 0.950 . S
H1483 C1461 0.950 . S
C1484 C1485 1.443 . S
C1484 N1488 1.376 . S
C1484 C1522 1.389 . S
C1485 C1484 1.443 . S
C1485 C1486 1.340 . S
C1485 H1525 0.951 . S
C1486 C1485 1.340 . S
C1486 C1487 1.439 . S
C1486 H1526 0.950 . S
C1487 C1486 1.439 . S
C1487 N1488 1.374 . S
C1487 C1521 1.395 . S
N1488 C1484 1.376 . S
N1488 C1487 1.374 . S
N1488 Co1489 2.008 . S
Co1489 N1488 2.008 . S
Co1489 N1490 1.995 . S
Co1489 N1495 2.008 . S
Co1489 N1500 1.995 . S
Co1489 N1505 2.282 . S
Co1489 N1511 2.282 . S
N1490 Co1489 1.995 . S
N1490 C1491 1.376 . S
N1490 C1494 1.383 . S
C1491 N1490 1.376 . S
C1491 C1492 1.446 . S
C1491 C1521 1.391 . S
C1492 C1491 1.446 . S
C1492 C1493 1.339 . S
C1492 H1527 0.949 . S
C1493 C1492 1.339 . S
C1493 C1494 1.439 . S
C1493 H1528 0.950 . S
C1494 N1490 1.383 . S
C1494 C1493 1.439 . S
C1494 C1523 1.392 . S
N1495 Co1489 2.008 . S
N1495 C1496 1.376 . S
N1495 C1499 1.374 . S
C1496 N1495 1.376 . S
C1496 C1497 1.443 . S
C1496 C1523 1.389 . S
C1497 C1496 1.443 . S
C1497 C1498 1.340 . S
C1497 H1529 0.951 . S
C1498 C1497 1.340 . S
C1498 C1499 1.439 . S
C1498 H1530 0.950 . S
C1499 N1495 1.374 . S
C1499 C1498 1.439 . S
C1499 C1524 1.395 . S
N1500 Co1489 1.995 . S
N1500 C1501 1.376 . S
N1500 C1504 1.383 . S
C1501 N1500 1.376 . S
C1501 C1502 1.446 . S
C1501 C1524 1.391 . S
C1502 C1501 1.446 . S
C1502 C1503 1.339 . S
C1502 H1531 0.949 . S
C1503 C1502 1.339 . S
C1503 C1504 1.439 . S
C1503 H1532 0.950 . S
C1504 N1500 1.383 . S
C1504 C1503 1.439 . S
C1504 C1522 1.392 . S
N1505 Co1489 2.282 . S
N1505 C1508 1.332 . S
N1505 C1510 1.332 . S
C1506 C1507 1.386 . S
C1506 C1509 1.388 . S
C1507 C1506 1.386 . S
C1507 C1508 1.382 . S
C1507 H1533 0.950 . S
C1508 N1505 1.332 . S
C1508 C1507 1.382 . S
C1508 H1519 0.952 . S
C1509 C1506 1.388 . S
C1509 C1510 1.382 . S
C1509 H1534 0.950 . S
C1510 N1505 1.332 . S
C1510 C1509 1.382 . S
C1510 H1520 0.948 . S
N1511 Co1489 2.282 . S
N1511 C1515 1.332 . S
N1511 C1516 1.332 . S
C1512 C1513 1.388 . S
C1512 C1516 1.382 . S
C1512 H1535 0.950 . S
C1513 C1512 1.388 . S
C1513 C1514 1.386 . S
C1514 C1513 1.386 . S
C1514 C1515 1.382 . S
C1514 H1536 0.950 . S
C1515 N1511 1.332 . S
C1515 C1514 1.382 . S
C1515 H1517 0.952 . S
C1516 N1511 1.332 . S
C1516 C1512 1.382 . S
C1516 H1518 0.948 . S
H1517 C1515 0.952 . S
H1518 C1516 0.948 . S
H1519 C1508 0.952 . S
H1520 C1510 0.948 . S
C1521 C1487 1.395 . S
C1521 C1491 1.391 . S
C1522 C1484 1.389 . S
C1522 C1504 1.392 . S
C1523 C1494 1.392 . S
C1523 C1496 1.389 . S
C1524 C1499 1.395 . S
C1524 C1501 1.391 . S
H1525 C1485 0.951 . S
H1526 C1486 0.950 . S
H1527 C1492 0.949 . S
H1528 C1493 0.950 . S
H1529 C1497 0.951 . S
H1530 C1498 0.950 . S
H1531 C1502 0.949 . S
H1532 C1503 0.950 . S
H1533 C1507 0.950 . S
H1534 C1509 0.950 . S
H1535 C1512 0.950 . S
H1536 C1514 0.950 . S
C1537 C1538 1.443 . S
C1537 N1541 1.376 . S
C1537 C1575 1.389 . S
C1538 C1537 1.443 . S
C1538 C1539 1.340 . S
C1538 H1578 0.951 . S
C1539 C1538 1.340 . S
C1539 C1540 1.439 . S
C1539 H1579 0.950 . S
C1540 C1539 1.439 . S
C1540 N1541 1.374 . S
C1540 C1574 1.395 . S
N1541 C1537 1.376 . S
N1541 C1540 1.374 . S
N1541 Co1542 2.008 1_655 S
Co1542 N1541 2.008 1_455 S
Co1542 N1543 1.995 . S
Co1542 N1548 2.008 . S
Co1542 N1553 1.995 . S
Co1542 N1558 2.282 1_455 S
Co1542 N1564 2.282 . S
N1543 Co1542 1.995 . S
N1543 C1544 1.376 . S
N1543 C1547 1.383 . S
C1544 N1543 1.376 . S
C1544 C1545 1.446 . S
C1544 C1574 1.391 1_455 S
C1545 C1544 1.446 . S
C1545 C1546 1.339 . S
C1545 H1580 0.949 . S
C1546 C1545 1.339 . S
C1546 C1547 1.439 . S
C1546 H1581 0.950 . S
C1547 N1543 1.383 . S
C1547 C1546 1.439 . S
C1547 C1576 1.392 . S
N1548 Co1542 2.008 . S
N1548 C1549 1.376 . S
N1548 C1552 1.374 . S
C1549 N1548 1.376 . S
C1549 C1550 1.443 . S
C1549 C1576 1.389 . S
C1550 C1549 1.443 . S
C1550 C1551 1.340 . S
C1550 H1582 0.951 . S
C1551 C1550 1.340 . S
C1551 C1552 1.439 . S
C1551 H1583 0.950 . S
C1552 N1548 1.374 . S
C1552 C1551 1.439 . S
C1552 C1577 1.395 . S
N1553 Co1542 1.995 . S
N1553 C1554 1.376 . S
N1553 C1557 1.370 1_455 S
C1554 N1553 1.376 . S
C1554 C1555 1.446 . S
C1554 C1577 1.391 . S
C1555 C1554 1.446 . S
C1555 C1556 1.366 . S
C1555 H1584 0.949 . S
C1556 C1555 1.366 . S
C1556 C1557 1.436 1_455 S
C1556 H1585 0.930 1_455 S
C1557 N1553 1.370 1_655 S
C1557 C1556 1.436 1_655 S
C1557 C1575 1.405 . S
N1558 Co1542 2.282 1_655 S
N1558 C1561 1.332 . S
N1558 C1563 1.332 . S
C1559 C1560 1.386 . S
C1559 C1562 1.388 . S
C1560 C1559 1.386 . S
C1560 C1561 1.382 . S
C1560 H1586 0.950 . S
C1561 N1558 1.332 . S
C1561 C1560 1.382 . S
C1561 H1572 0.952 . S
C1562 C1559 1.388 . S
C1562 C1563 1.382 . S
C1562 H1587 0.950 . S
C1563 N1558 1.332 . S
C1563 C1562 1.382 . S
C1563 H1573 0.948 . S
N1564 Co1542 2.282 . S
N1564 C1568 1.332 . S
N1564 C1569 1.332 . S
C1565 C1566 1.388 . S
C1565 C1569 1.382 . S
C1565 H1588 0.950 . S
C1566 C1565 1.388 . S
C1566 C1567 1.386 . S
C1567 C1566 1.386 . S
C1567 C1568 1.382 . S
C1567 H1589 0.950 . S
C1568 N1564 1.332 . S
C1568 C1567 1.382 . S
C1568 H1570 0.952 . S
C1569 N1564 1.332 . S
C1569 C1565 1.382 . S
C1569 H1571 0.948 . S
H1570 C1568 0.952 . S
H1571 C1569 0.948 . S
H1572 C1561 0.952 . S
H1573 C1563 0.948 . S
C1574 C1540 1.395 . S
C1574 C1544 1.391 1_655 S
C1575 C1537 1.389 . S
C1575 C1557 1.405 . S
C1576 C1547 1.392 . S
C1576 C1549 1.389 . S
C1577 C1552 1.395 . S
C1577 C1554 1.391 . S
H1578 C1538 0.951 . S
H1579 C1539 0.950 . S
H1580 C1545 0.949 . S
H1581 C1546 0.950 . S
H1582 C1550 0.951 . S
H1583 C1551 0.950 . S
H1584 C1555 0.949 . S
H1585 C1556 0.930 1_655 S
H1586 C1560 0.950 . S
H1587 C1562 0.950 . S
H1588 C1565 0.950 . S
H1589 C1567 0.950 . S
C1590 C1591 1.443 . S
C1590 N1594 1.376 . S
C1590 C1628 1.389 . S
C1591 C1590 1.443 . S
C1591 C1592 1.340 . S
C1591 H1631 0.951 . S
C1592 C1591 1.340 . S
C1592 C1593 1.439 . S
C1592 H1632 0.950 . S
C1593 C1592 1.439 . S
C1593 N1594 1.374 . S
C1593 C1627 1.395 . S
N1594 C1590 1.376 . S
N1594 C1593 1.374 . S
N1594 Co1595 2.008 . S
Co1595 N1594 2.008 . S
Co1595 N1596 1.995 . S
Co1595 N1601 2.008 . S
Co1595 N1606 1.995 . S
Co1595 N1611 2.282 . S
Co1595 N1617 2.282 . S
N1596 Co1595 1.995 . S
N1596 C1597 1.376 . S
N1596 C1600 1.383 . S
C1597 N1596 1.376 . S
C1597 C1598 1.446 . S
C1597 C1627 1.391 . S
C1598 C1597 1.446 . S
C1598 C1599 1.339 . S
C1598 H1633 0.949 . S
C1599 C1598 1.339 . S
C1599 C1600 1.439 . S
C1599 H1634 0.950 . S
C1600 N1596 1.383 . S
C1600 C1599 1.439 . S
C1600 C1629 1.392 . S
N1601 Co1595 2.008 . S
N1601 C1602 1.376 . S
N1601 C1605 1.374 . S
C1602 N1601 1.376 . S
C1602 C1603 1.443 . S
C1602 C1629 1.389 . S
C1603 C1602 1.443 . S
C1603 C1604 1.340 . S
C1603 H1635 0.951 . S
C1604 C1603 1.340 . S
C1604 C1605 1.439 . S
C1604 H1636 0.950 . S
C1605 N1601 1.374 . S
C1605 C1604 1.439 . S
C1605 C1630 1.395 . S
N1606 Co1595 1.995 . S
N1606 C1607 1.376 . S
N1606 C1610 1.383 . S
C1607 N1606 1.376 . S
C1607 C1608 1.446 . S
C1607 C1630 1.391 . S
C1608 C1607 1.446 . S
C1608 C1609 1.339 . S
C1608 H1637 0.949 . S
C1609 C1608 1.339 . S
C1609 C1610 1.439 . S
C1609 H1638 0.950 . S
C1610 N1606 1.383 . S
C1610 C1609 1.439 . S
C1610 C1628 1.392 . S
N1611 Co1595 2.282 . S
N1611 C1614 1.332 . S
N1611 C1616 1.332 . S
C1612 C1613 1.386 . S
C1612 C1615 1.388 . S
C1613 C1612 1.386 . S
C1613 C1614 1.382 . S
C1613 H1639 0.950 . S
C1614 N1611 1.332 . S
C1614 C1613 1.382 . S
C1614 H1625 0.952 . S
C1615 C1612 1.388 . S
C1615 C1616 1.382 . S
C1615 H1640 0.950 . S
C1616 N1611 1.332 . S
C1616 C1615 1.382 . S
C1616 H1626 0.948 . S
N1617 Co1595 2.282 . S
N1617 C1621 1.332 . S
N1617 C1622 1.332 . S
C1618 C1619 1.388 . S
C1618 C1622 1.382 . S
C1618 H1641 0.950 . S
C1619 C1618 1.388 . S
C1619 C1620 1.386 . S
C1620 C1619 1.386 . S
C1620 C1621 1.382 . S
C1620 H1642 0.950 . S
C1621 N1617 1.332 . S
C1621 C1620 1.382 . S
C1621 H1623 0.952 . S
C1622 N1617 1.332 . S
C1622 C1618 1.382 . S
C1622 H1624 0.948 . S
H1623 C1621 0.952 . S
H1624 C1622 0.948 . S
H1625 C1614 0.952 . S
H1626 C1616 0.948 . S
C1627 C1593 1.395 . S
C1627 C1597 1.391 . S
C1628 C1590 1.389 . S
C1628 C1610 1.392 . S
C1629 C1600 1.392 . S
C1629 C1602 1.389 . S
C1630 C1605 1.395 . S
C1630 C1607 1.391 . S
H1631 C1591 0.951 . S
H1632 C1592 0.950 . S
H1633 C1598 0.949 . S
H1634 C1599 0.950 . S
H1635 C1603 0.951 . S
H1636 C1604 0.950 . S
H1637 C1608 0.949 . S
H1638 C1609 0.950 . S
H1639 C1613 0.950 . S
H1640 C1615 0.950 . S
H1641 C1618 0.950 . S
H1642 C1620 0.950 . S
C1643 C1644 1.443 . S
C1643 N1647 1.376 . S
C1643 C1681 1.389 . S
C1644 C1643 1.443 . S
C1644 C1645 1.340 . S
C1644 H1684 0.951 . S
C1645 C1644 1.340 . S
C1645 C1646 1.439 . S
C1645 H1685 0.950 . S
C1646 C1645 1.439 . S
C1646 N1647 1.374 . S
C1646 C1680 1.395 . S
N1647 C1643 1.376 . S
N1647 C1646 1.374 . S
N1647 Co1648 2.008 . S
Co1648 N1647 2.008 . S
Co1648 N1649 1.995 . S
Co1648 N1654 2.008 . S
Co1648 N1659 1.995 . S
Co1648 N1664 2.282 . S
Co1648 N1670 2.282 . S
N1649 Co1648 1.995 . S
N1649 C1650 1.376 . S
N1649 C1653 1.383 . S
C1650 N1649 1.376 . S
C1650 C1651 1.446 . S
C1650 C1680 1.391 . S
C1651 C1650 1.446 . S
C1651 C1652 1.339 . S
C1651 H1686 0.949 . S
C1652 C1651 1.339 . S
C1652 C1653 1.439 . S
C1652 H1687 0.950 . S
C1653 N1649 1.383 . S
C1653 C1652 1.439 . S
C1653 C1682 1.392 . S
N1654 Co1648 2.008 . S
N1654 C1655 1.376 . S
N1654 C1658 1.374 . S
C1655 N1654 1.376 . S
C1655 C1656 1.443 . S
C1655 C1682 1.389 . S
C1656 C1655 1.443 . S
C1656 C1657 1.340 . S
C1656 H1688 0.951 . S
C1657 C1656 1.340 . S
C1657 C1658 1.439 . S
C1657 H1689 0.950 . S
C1658 N1654 1.374 . S
C1658 C1657 1.439 . S
C1658 C1683 1.395 . S
N1659 Co1648 1.995 . S
N1659 C1660 1.376 . S
N1659 C1663 1.383 . S
C1660 N1659 1.376 . S
C1660 C1661 1.446 . S
C1660 C1683 1.391 . S
C1661 C1660 1.446 . S
C1661 C1662 1.339 . S
C1661 H1690 0.949 . S
C1662 C1661 1.339 . S
C1662 C1663 1.439 . S
C1662 H1691 0.950 . S
C1663 N1659 1.383 . S
C1663 C1662 1.439 . S
C1663 C1681 1.392 . S
N1664 Co1648 2.282 . S
N1664 C1667 1.332 . S
N1664 C1669 1.332 . S
C1665 C1666 1.386 . S
C1665 C1668 1.388 . S
C1666 C1665 1.386 . S
C1666 C1667 1.382 . S
C1666 H1692 0.950 . S
C1667 N1664 1.332 . S
C1667 C1666 1.382 . S
C1667 H1678 0.952 . S
C1668 C1665 1.388 . S
C1668 C1669 1.382 . S
C1668 H1693 0.950 . S
C1669 N1664 1.332 . S
C1669 C1668 1.382 . S
C1669 H1679 0.948 . S
N1670 Co1648 2.282 . S
N1670 C1674 1.332 . S
N1670 C1675 1.332 . S
C1671 C1672 1.388 . S
C1671 C1675 1.382 . S
C1671 H1694 0.950 . S
C1672 C1671 1.388 . S
C1672 C1673 1.386 . S
C1673 C1672 1.386 . S
C1673 C1674 1.382 . S
C1673 H1695 0.950 . S
C1674 N1670 1.332 . S
C1674 C1673 1.382 . S
C1674 H1676 0.952 . S
C1675 N1670 1.332 . S
C1675 C1671 1.382 . S
C1675 H1677 0.948 . S
H1676 C1674 0.952 . S
H1677 C1675 0.948 . S
H1678 C1667 0.952 . S
H1679 C1669 0.948 . S
C1680 C1646 1.395 . S
C1680 C1650 1.391 . S
C1681 C1643 1.389 . S
C1681 C1663 1.392 . S
C1682 C1653 1.392 . S
C1682 C1655 1.389 . S
C1683 C1658 1.395 . S
C1683 C1660 1.391 . S
H1684 C1644 0.951 . S
H1685 C1645 0.950 . S
H1686 C1651 0.949 . S
H1687 C1652 0.950 . S
H1688 C1656 0.951 . S
H1689 C1657 0.950 . S
H1690 C1661 0.949 . S
H1691 C1662 0.950 . S
H1692 C1666 0.950 . S
H1693 C1668 0.950 . S
H1694 C1671 0.950 . S
H1695 C1673 0.950 . S
C1696 C1697 1.443 . S
C1696 N1700 1.376 . S
C1696 C1734 1.389 . S
C1697 C1696 1.443 . S
C1697 C1698 1.340 . S
C1697 H1737 0.951 . S
C1698 C1697 1.340 . S
C1698 C1699 1.439 . S
C1698 H1738 0.950 . S
C1699 C1698 1.439 . S
C1699 N1700 1.374 . S
C1699 C1733 1.395 . S
N1700 C1696 1.376 . S
N1700 C1699 1.374 . S
N1700 Co1701 2.008 . S
Co1701 N1700 2.008 . S
Co1701 N1702 1.995 . S
Co1701 N1707 2.008 . S
Co1701 N1712 1.995 . S
Co1701 N1717 2.282 . S
Co1701 N1723 2.282 . S
N1702 Co1701 1.995 . S
N1702 C1703 1.376 . S
N1702 C1706 1.383 . S
C1703 N1702 1.376 . S
C1703 C1704 1.446 . S
C1703 C1733 1.391 . S
C1704 C1703 1.446 . S
C1704 C1705 1.339 . S
C1704 H1739 0.949 . S
C1705 C1704 1.339 . S
C1705 C1706 1.439 . S
C1705 H1740 0.950 . S
C1706 N1702 1.383 . S
C1706 C1705 1.439 . S
C1706 C1735 1.392 . S
N1707 Co1701 2.008 . S
N1707 C1708 1.376 . S
N1707 C1711 1.374 . S
C1708 N1707 1.376 . S
C1708 C1709 1.443 . S
C1708 C1735 1.389 . S
C1709 C1708 1.443 . S
C1709 C1710 1.340 . S
C1709 H1741 0.951 . S
C1710 C1709 1.340 . S
C1710 C1711 1.439 . S
C1710 H1742 0.950 . S
C1711 N1707 1.374 . S
C1711 C1710 1.439 . S
C1711 C1736 1.395 . S
N1712 Co1701 1.995 . S
N1712 C1713 1.376 . S
N1712 C1716 1.383 . S
C1713 N1712 1.376 . S
C1713 C1714 1.446 . S
C1713 C1736 1.391 . S
C1714 C1713 1.446 . S
C1714 C1715 1.339 . S
C1714 H1743 0.949 . S
C1715 C1714 1.339 . S
C1715 C1716 1.439 . S
C1715 H1744 0.950 . S
C1716 N1712 1.383 . S
C1716 C1715 1.439 . S
C1716 C1734 1.392 . S
N1717 Co1701 2.282 . S
N1717 C1720 1.332 . S
N1717 C1722 1.332 . S
C1718 C1719 1.386 . S
C1718 C1721 1.388 . S
C1719 C1718 1.386 . S
C1719 C1720 1.382 . S
C1719 H1745 0.950 . S
C1720 N1717 1.332 . S
C1720 C1719 1.382 . S
C1720 H1731 0.952 . S
C1721 C1718 1.388 . S
C1721 C1722 1.382 . S
C1721 H1746 0.950 . S
C1722 N1717 1.332 . S
C1722 C1721 1.382 . S
C1722 H1732 0.948 . S
N1723 Co1701 2.282 . S
N1723 C1727 1.332 . S
N1723 C1728 1.332 . S
C1724 C1725 1.388 . S
C1724 C1728 1.382 . S
C1724 H1747 0.950 . S
C1725 C1724 1.388 . S
C1725 C1726 1.386 . S
C1726 C1725 1.386 . S
C1726 C1727 1.382 . S
C1726 H1748 0.950 . S
C1727 N1723 1.332 . S
C1727 C1726 1.382 . S
C1727 H1729 0.952 . S
C1728 N1723 1.332 . S
C1728 C1724 1.382 . S
C1728 H1730 0.948 . S
H1729 C1727 0.952 . S
H1730 C1728 0.948 . S
H1731 C1720 0.952 . S
H1732 C1722 0.948 . S
C1733 C1699 1.395 . S
C1733 C1703 1.391 . S
C1734 C1696 1.389 . S
C1734 C1716 1.392 . S
C1735 C1706 1.392 . S
C1735 C1708 1.389 . S
C1736 C1711 1.395 . S
C1736 C1713 1.391 . S
H1737 C1697 0.951 . S
H1738 C1698 0.950 . S
H1739 C1704 0.949 . S
H1740 C1705 0.950 . S
H1741 C1709 0.951 . S
H1742 C1710 0.950 . S
H1743 C1714 0.949 . S
H1744 C1715 0.950 . S
H1745 C1719 0.950 . S
H1746 C1721 0.950 . S
H1747 C1724 0.950 . S
H1748 C1726 0.950 . S
C1749 C1750 1.443 . S
C1749 N1753 1.376 . S
C1749 C1787 1.389 . S
C1750 C1749 1.443 . S
C1750 C1751 1.340 . S
C1750 H1790 0.951 . S
C1751 C1750 1.340 . S
C1751 C1752 1.439 . S
C1751 H1791 0.950 . S
C1752 C1751 1.439 . S
C1752 N1753 1.374 . S
C1752 C1786 1.395 . S
N1753 C1749 1.376 . S
N1753 C1752 1.374 . S
N1753 Co1754 2.008 . S
Co1754 N1753 2.008 . S
Co1754 N1755 1.995 . S
Co1754 N1760 2.008 . S
Co1754 N1765 1.995 . S
Co1754 N1770 2.282 . S
Co1754 N1776 2.282 . S
N1755 Co1754 1.995 . S
N1755 C1756 1.376 . S
N1755 C1759 1.383 . S
C1756 N1755 1.376 . S
C1756 C1757 1.446 . S
C1756 C1786 1.391 . S
C1757 C1756 1.446 . S
C1757 C1758 1.339 . S
C1757 H1792 0.949 . S
C1758 C1757 1.339 . S
C1758 C1759 1.439 . S
C1758 H1793 0.950 . S
C1759 N1755 1.383 . S
C1759 C1758 1.439 . S
C1759 C1788 1.392 . S
N1760 Co1754 2.008 . S
N1760 C1761 1.376 . S
N1760 C1764 1.374 . S
C1761 N1760 1.376 . S
C1761 C1762 1.443 . S
C1761 C1788 1.389 . S
C1762 C1761 1.443 . S
C1762 C1763 1.340 . S
C1762 H1794 0.951 . S
C1763 C1762 1.340 . S
C1763 C1764 1.439 . S
C1763 H1795 0.950 . S
C1764 N1760 1.374 . S
C1764 C1763 1.439 . S
C1764 C1789 1.395 . S
N1765 Co1754 1.995 . S
N1765 C1766 1.376 . S
N1765 C1769 1.383 . S
C1766 N1765 1.376 . S
C1766 C1767 1.446 . S
C1766 C1789 1.391 . S
C1767 C1766 1.446 . S
C1767 C1768 1.339 . S
C1767 H1796 0.949 . S
C1768 C1767 1.339 . S
C1768 C1769 1.439 . S
C1768 H1797 0.950 . S
C1769 N1765 1.383 . S
C1769 C1768 1.439 . S
C1769 C1787 1.392 . S
N1770 Co1754 2.282 . S
N1770 C1773 1.332 . S
N1770 C1775 1.332 . S
C1771 C1772 1.386 . S
C1771 C1774 1.388 . S
C1772 C1771 1.386 . S
C1772 C1773 1.382 . S
C1772 H1798 0.950 . S
C1773 N1770 1.332 . S
C1773 C1772 1.382 . S
C1773 H1784 0.952 . S
C1774 C1771 1.388 . S
C1774 C1775 1.382 . S
C1774 H1799 0.950 . S
C1775 N1770 1.332 . S
C1775 C1774 1.382 . S
C1775 H1785 0.948 . S
N1776 Co1754 2.282 . S
N1776 C1780 1.332 . S
N1776 C1781 1.332 . S
C1777 C1778 1.388 . S
C1777 C1781 1.382 . S
C1777 H1800 0.950 . S
C1778 C1777 1.388 . S
C1778 C1779 1.386 . S
C1779 C1778 1.386 . S
C1779 C1780 1.382 . S
C1779 H1801 0.950 . S
C1780 N1776 1.332 . S
C1780 C1779 1.382 . S
C1780 H1782 0.952 . S
C1781 N1776 1.332 . S
C1781 C1777 1.382 . S
C1781 H1783 0.948 . S
H1782 C1780 0.952 . S
H1783 C1781 0.948 . S
H1784 C1773 0.952 . S
H1785 C1775 0.948 . S
C1786 C1752 1.395 . S
C1786 C1756 1.391 . S
C1787 C1749 1.389 . S
C1787 C1769 1.392 . S
C1788 C1759 1.392 . S
C1788 C1761 1.389 . S
C1789 C1764 1.395 . S
C1789 C1766 1.391 . S
H1790 C1750 0.951 . S
H1791 C1751 0.950 . S
H1792 C1757 0.949 . S
H1793 C1758 0.950 . S
H1794 C1762 0.951 . S
H1795 C1763 0.950 . S
H1796 C1767 0.949 . S
H1797 C1768 0.950 . S
H1798 C1772 0.950 . S
H1799 C1774 0.950 . S
H1800 C1777 0.950 . S
H1801 C1779 0.950 . S
C1802 C1803 1.443 . S
C1802 N1806 1.376 . S
C1802 C1840 1.389 . S
C1803 C1802 1.443 . S
C1803 C1804 1.340 . S
C1803 H1843 0.951 . S
C1804 C1803 1.340 . S
C1804 C1805 1.439 . S
C1804 H1844 0.950 . S
C1805 C1804 1.439 . S
C1805 N1806 1.374 . S
C1805 C1839 1.395 . S
N1806 C1802 1.376 . S
N1806 C1805 1.374 . S
N1806 Co1807 2.008 . S
Co1807 N1806 2.008 . S
Co1807 N1808 1.995 . S
Co1807 N1813 2.008 . S
Co1807 N1818 1.995 . S
Co1807 N1823 2.282 . S
Co1807 N1829 2.282 . S
N1808 Co1807 1.995 . S
N1808 C1809 1.376 . S
N1808 C1812 1.383 . S
C1809 N1808 1.376 . S
C1809 C1810 1.446 . S
C1809 C1839 1.391 . S
C1810 C1809 1.446 . S
C1810 C1811 1.339 . S
C1810 H1845 0.949 . S
C1811 C1810 1.339 . S
C1811 C1812 1.439 . S
C1811 H1846 0.950 . S
C1812 N1808 1.383 . S
C1812 C1811 1.439 . S
C1812 C1841 1.392 . S
N1813 Co1807 2.008 . S
N1813 C1814 1.376 . S
N1813 C1817 1.374 . S
C1814 N1813 1.376 . S
C1814 C1815 1.443 . S
C1814 C1841 1.389 . S
C1815 C1814 1.443 . S
C1815 C1816 1.340 . S
C1815 H1847 0.951 . S
C1816 C1815 1.340 . S
C1816 C1817 1.439 . S
C1816 H1848 0.950 . S
C1817 N1813 1.374 . S
C1817 C1816 1.439 . S
C1817 C1842 1.395 . S
N1818 Co1807 1.995 . S
N1818 C1819 1.376 . S
N1818 C1822 1.383 . S
C1819 N1818 1.376 . S
C1819 C1820 1.446 . S
C1819 C1842 1.391 . S
C1820 C1819 1.446 . S
C1820 C1821 1.339 . S
C1820 H1849 0.949 . S
C1821 C1820 1.339 . S
C1821 C1822 1.439 . S
C1821 H1850 0.950 . S
C1822 N1818 1.383 . S
C1822 C1821 1.439 . S
C1822 C1840 1.392 . S
N1823 Co1807 2.282 . S
N1823 C1826 1.332 . S
N1823 C1828 1.332 . S
C1824 C1825 1.386 . S
C1824 C1827 1.388 . S
C1825 C1824 1.386 . S
C1825 C1826 1.382 . S
C1825 H1851 0.950 . S
C1826 N1823 1.332 . S
C1826 C1825 1.382 . S
C1826 H1837 0.952 . S
C1827 C1824 1.388 . S
C1827 C1828 1.382 . S
C1827 H1852 0.950 . S
C1828 N1823 1.332 . S
C1828 C1827 1.382 . S
C1828 H1838 0.948 . S
N1829 Co1807 2.282 . S
N1829 C1833 1.332 . S
N1829 C1834 1.332 . S
C1830 C1831 1.388 . S
C1830 C1834 1.382 . S
C1830 H1853 0.950 . S
C1831 C1830 1.388 . S
C1831 C1832 1.386 . S
C1832 C1831 1.386 . S
C1832 C1833 1.382 . S
C1832 H1854 0.950 . S
C1833 N1829 1.332 . S
C1833 C1832 1.382 . S
C1833 H1835 0.952 . S
C1834 N1829 1.332 . S
C1834 C1830 1.382 . S
C1834 H1836 0.948 . S
H1835 C1833 0.952 . S
H1836 C1834 0.948 . S
H1837 C1826 0.952 . S
H1838 C1828 0.948 . S
C1839 C1805 1.395 . S
C1839 C1809 1.391 . S
C1840 C1802 1.389 . S
C1840 C1822 1.392 . S
C1841 C1812 1.392 . S
C1841 C1814 1.389 . S
C1842 C1817 1.395 . S
C1842 C1819 1.391 . S
H1843 C1803 0.951 . S
H1844 C1804 0.950 . S
H1845 C1810 0.949 . S
H1846 C1811 0.950 . S
H1847 C1815 0.951 . S
H1848 C1816 0.950 . S
H1849 C1820 0.949 . S
H1850 C1821 0.950 . S
H1851 C1825 0.950 . S
H1852 C1827 0.950 . S
H1853 C1830 0.950 . S
H1854 C1832 0.950 . S
C1855 C1856 1.443 . S
C1855 N1859 1.376 . S
C1855 C1893 1.389 . S
C1856 C1855 1.443 . S
C1856 C1857 1.340 . S
C1856 H1896 0.910 1_655 S
C1857 C1856 1.340 . S
C1857 C1858 1.439 . S
C1857 H1897 0.950 1_655 S
C1858 C1857 1.439 . S
C1858 N1859 1.374 . S
C1858 C1892 1.395 . S
N1859 C1855 1.376 . S
N1859 C1858 1.374 . S
N1859 Co1860 2.008 . S
Co1860 N1859 2.008 . S
Co1860 N1861 1.995 . S
Co1860 N1866 2.008 . S
Co1860 N1871 1.995 . S
Co1860 N1876 2.282 . S
Co1860 N1882 2.282 . S
N1861 Co1860 1.995 . S
N1861 C1862 1.376 . S
N1861 C1865 1.383 . S
C1862 N1861 1.376 . S
C1862 C1863 1.446 . S
C1862 C1892 1.391 . S
C1863 C1862 1.446 . S
C1863 C1864 1.339 . S
C1863 H1898 0.949 . S
C1864 C1863 1.339 . S
C1864 C1865 1.439 . S
C1864 H1899 0.950 . S
C1865 N1861 1.383 . S
C1865 C1864 1.439 . S
C1865 C1894 1.392 . S
N1866 Co1860 2.008 . S
N1866 C1867 1.376 . S
N1866 C1870 1.374 . S
C1867 N1866 1.376 . S
C1867 C1868 1.443 . S
C1867 C1894 1.389 . S
C1868 C1867 1.443 . S
C1868 C1869 1.340 . S
C1868 H1900 0.951 . S
C1869 C1868 1.340 . S
C1869 C1870 1.439 . S
C1869 H1901 0.950 . S
C1870 N1866 1.374 . S
C1870 C1869 1.439 . S
C1870 C1895 1.395 . S
N1871 Co1860 1.995 . S
N1871 C1872 1.376 . S
N1871 C1875 1.383 . S
C1872 N1871 1.376 . S
C1872 C1873 1.446 . S
C1872 C1895 1.391 . S
C1873 C1872 1.446 . S
C1873 C1874 1.339 . S
C1873 H1902 0.949 . S
C1874 C1873 1.339 . S
C1874 C1875 1.439 . S
C1874 H1903 0.950 . S
C1875 N1871 1.383 . S
C1875 C1874 1.439 . S
C1875 C1893 1.392 . S
N1876 Co1860 2.282 . S
N1876 C1879 1.332 . S
N1876 C1881 1.332 . S
C1877 C1878 1.386 . S
C1877 C1880 1.388 . S
C1878 C1877 1.386 . S
C1878 C1879 1.382 . S
C1878 H1904 0.950 . S
C1879 N1876 1.332 . S
C1879 C1878 1.382 . S
C1879 H1890 0.952 . S
C1880 C1877 1.388 . S
C1880 C1881 1.382 . S
C1880 H1905 0.950 . S
C1881 N1876 1.332 . S
C1881 C1880 1.382 . S
C1881 H1891 0.948 . S
N1882 Co1860 2.282 . S
N1882 C1886 1.332 . S
N1882 C1887 1.332 . S
C1883 C1884 1.388 . S
C1883 C1887 1.382 . S
C1883 H1906 0.950 . S
C1884 C1883 1.388 . S
C1884 C1885 1.386 . S
C1885 C1884 1.386 . S
C1885 C1886 1.382 . S
C1885 H1907 0.950 . S
C1886 N1882 1.332 . S
C1886 C1885 1.382 . S
C1886 H1888 0.952 . S
C1887 N1882 1.332 . S
C1887 C1883 1.382 . S
C1887 H1889 0.948 . S
H1888 C1886 0.952 . S
H1889 C1887 0.948 . S
H1890 C1879 0.952 . S
H1891 C1881 0.948 . S
C1892 C1858 1.395 . S
C1892 C1862 1.391 . S
C1893 C1855 1.389 . S
C1893 C1875 1.392 . S
C1894 C1865 1.392 . S
C1894 C1867 1.389 . S
C1895 C1870 1.395 . S
C1895 C1872 1.391 . S
H1896 C1856 0.910 1_455 S
H1897 C1857 0.950 1_455 S
H1898 C1863 0.949 . S
H1899 C1864 0.950 . S
H1900 C1868 0.951 . S
H1901 C1869 0.950 . S
H1902 C1873 0.949 . S
H1903 C1874 0.950 . S
H1904 C1878 0.950 . S
H1905 C1880 0.950 . S
H1906 C1883 0.950 . S
H1907 C1885 0.950 . S
C1908 C1909 1.443 . S
C1908 N1912 1.376 . S
C1908 C1946 1.389 . S
C1909 C1908 1.443 . S
C1909 C1910 1.340 . S
C1909 H1949 0.951 . S
C1910 C1909 1.340 . S
C1910 C1911 1.439 . S
C1910 H1950 0.950 . S
C1911 C1910 1.439 . S
C1911 N1912 1.374 . S
C1911 C1945 1.395 . S
N1912 C1908 1.376 . S
N1912 C1911 1.374 . S
N1912 Co1913 2.008 . S
Co1913 N1912 2.008 . S
Co1913 N1914 1.995 . S
Co1913 N1919 2.008 . S
Co1913 N1924 1.995 . S
Co1913 N1929 2.282 . S
Co1913 N1935 2.282 . S
N1914 Co1913 1.995 . S
N1914 C1915 1.376 . S
N1914 C1918 1.383 . S
C1915 N1914 1.376 . S
C1915 C1916 1.446 . S
C1915 C1945 1.391 . S
C1916 C1915 1.446 . S
C1916 C1917 1.339 . S
C1916 H1951 0.949 . S
C1917 C1916 1.339 . S
C1917 C1918 1.439 . S
C1917 H1952 0.950 . S
C1918 N1914 1.383 . S
C1918 C1917 1.439 . S
C1918 C1947 1.392 . S
N1919 Co1913 2.008 . S
N1919 C1920 1.376 . S
N1919 C1923 1.374 . S
C1920 N1919 1.376 . S
C1920 C1921 1.443 . S
C1920 C1947 1.389 . S
C1921 C1920 1.443 . S
C1921 C1922 1.340 . S
C1921 H1953 0.951 . S
C1922 C1921 1.340 . S
C1922 C1923 1.439 . S
C1922 H1954 0.950 . S
C1923 N1919 1.374 . S
C1923 C1922 1.439 . S
C1923 C1948 1.395 . S
N1924 Co1913 1.995 . S
N1924 C1925 1.376 . S
N1924 C1928 1.383 . S
C1925 N1924 1.376 . S
C1925 C1926 1.446 . S
C1925 C1948 1.391 . S
C1926 C1925 1.446 . S
C1926 C1927 1.339 . S
C1926 H1955 0.949 . S
C1927 C1926 1.339 . S
C1927 C1928 1.439 . S
C1927 H1956 0.950 . S
C1928 N1924 1.383 . S
C1928 C1927 1.439 . S
C1928 C1946 1.392 . S
N1929 Co1913 2.282 . S
N1929 C1932 1.332 . S
N1929 C1934 1.332 . S
C1930 C1931 1.386 . S
C1930 C1933 1.388 . S
C1931 C1930 1.386 . S
C1931 C1932 1.382 . S
C1931 H1957 0.950 . S
C1932 N1929 1.332 . S
C1932 C1931 1.382 . S
C1932 H1943 0.952 . S
C1933 C1930 1.388 . S
C1933 C1934 1.382 . S
C1933 H1958 0.950 . S
C1934 N1929 1.332 . S
C1934 C1933 1.382 . S
C1934 H1944 0.948 . S
N1935 Co1913 2.282 . S
N1935 C1939 1.332 . S
N1935 C1940 1.332 . S
C1936 C1937 1.388 . S
C1936 C1940 1.382 . S
C1936 H1959 0.950 . S
C1937 C1936 1.388 . S
C1937 C1938 1.386 . S
C1938 C1937 1.386 . S
C1938 C1939 1.382 . S
C1938 H1960 0.950 . S
C1939 N1935 1.332 . S
C1939 C1938 1.382 . S
C1939 H1941 0.952 . S
C1940 N1935 1.332 . S
C1940 C1936 1.382 . S
C1940 H1942 0.948 . S
H1941 C1939 0.952 . S
H1942 C1940 0.948 . S
H1943 C1932 0.952 . S
H1944 C1934 0.948 . S
C1945 C1911 1.395 . S
C1945 C1915 1.391 . S
C1946 C1908 1.389 . S
C1946 C1928 1.392 . S
C1947 C1918 1.392 . S
C1947 C1920 1.389 . S
C1948 C1923 1.395 . S
C1948 C1925 1.391 . S
H1949 C1909 0.951 . S
H1950 C1910 0.950 . S
H1951 C1916 0.949 . S
H1952 C1917 0.950 . S
H1953 C1921 0.951 . S
H1954 C1922 0.950 . S
H1955 C1926 0.949 . S
H1956 C1927 0.950 . S
H1957 C1931 0.950 . S
H1958 C1933 0.950 . S
H1959 C1936 0.950 . S
H1960 C1938 0.950 . S
C1961 C1962 1.443 . S
C1961 N1965 1.376 . S
C1961 C1999 1.389 . S
C1962 C1961 1.443 . S
C1962 C1963 1.340 . S
C1962 H2002 0.910 1_655 S
C1963 C1962 1.340 . S
C1963 C1964 1.439 . S
C1963 H2003 0.950 1_655 S
C1964 C1963 1.439 . S
C1964 N1965 1.374 . S
C1964 C1998 1.395 . S
N1965 C1961 1.376 . S
N1965 C1964 1.374 . S
N1965 Co1966 2.008 . S
Co1966 N1965 2.008 . S
Co1966 N1967 1.995 . S
Co1966 N1972 2.008 . S
Co1966 N1977 1.995 . S
Co1966 N1982 2.282 . S
Co1966 N1988 2.282 . S
N1967 Co1966 1.995 . S
N1967 C1968 1.376 . S
N1967 C1971 1.383 . S
C1968 N1967 1.376 . S
C1968 C1969 1.446 . S
C1968 C1998 1.391 . S
C1969 C1968 1.446 . S
C1969 C1970 1.339 . S
C1969 H2004 0.949 . S
C1970 C1969 1.339 . S
C1970 C1971 1.439 . S
C1970 H2005 0.950 . S
C1971 N1967 1.383 . S
C1971 C1970 1.439 . S
C1971 C2000 1.392 . S
N1972 Co1966 2.008 . S
N1972 C1973 1.376 . S
N1972 C1976 1.374 . S
C1973 N1972 1.376 . S
C1973 C1974 1.443 . S
C1973 C2000 1.389 . S
C1974 C1973 1.443 . S
C1974 C1975 1.340 . S
C1974 H2006 0.951 . S
C1975 C1974 1.340 . S
C1975 C1976 1.439 . S
C1975 H2007 0.950 . S
C1976 N1972 1.374 . S
C1976 C1975 1.439 . S
C1976 C2001 1.395 . S
N1977 Co1966 1.995 . S
N1977 C1978 1.376 . S
N1977 C1981 1.383 . S
C1978 N1977 1.376 . S
C1978 C1979 1.446 . S
C1978 C2001 1.391 . S
C1979 C1978 1.446 . S
C1979 C1980 1.339 . S
C1979 H2008 0.949 . S
C1980 C1979 1.339 . S
C1980 C1981 1.439 . S
C1980 H2009 0.950 . S
C1981 N1977 1.383 . S
C1981 C1980 1.439 . S
C1981 C1999 1.392 . S
N1982 Co1966 2.282 . S
N1982 C1985 1.332 . S
N1982 C1987 1.332 . S
C1983 C1984 1.386 . S
C1983 C1986 1.388 . S
C1984 C1983 1.386 . S
C1984 C1985 1.382 . S
C1984 H2010 0.950 . S
C1985 N1982 1.332 . S
C1985 C1984 1.382 . S
C1985 H1996 0.952 . S
C1986 C1983 1.388 . S
C1986 C1987 1.382 . S
C1986 H2011 0.950 . S
C1987 N1982 1.332 . S
C1987 C1986 1.382 . S
C1987 H1997 0.948 . S
N1988 Co1966 2.282 . S
N1988 C1992 1.332 . S
N1988 C1993 1.332 . S
C1989 C1990 1.388 . S
C1989 C1993 1.382 . S
C1989 H2012 0.950 . S
C1990 C1989 1.388 . S
C1990 C1991 1.386 . S
C1991 C1990 1.386 . S
C1991 C1992 1.382 . S
C1991 H2013 0.950 . S
C1992 N1988 1.332 . S
C1992 C1991 1.382 . S
C1992 H1994 0.952 . S
C1993 N1988 1.332 . S
C1993 C1989 1.382 . S
C1993 H1995 0.948 . S
H1994 C1992 0.952 . S
H1995 C1993 0.948 . S
H1996 C1985 0.952 . S
H1997 C1987 0.948 . S
C1998 C1964 1.395 . S
C1998 C1968 1.391 . S
C1999 C1961 1.389 . S
C1999 C1981 1.392 . S
C2000 C1971 1.392 . S
C2000 C1973 1.389 . S
C2001 C1976 1.395 . S
C2001 C1978 1.391 . S
H2002 C1962 0.910 1_455 S
H2003 C1963 0.950 1_455 S
H2004 C1969 0.949 . S
H2005 C1970 0.950 . S
H2006 C1974 0.951 . S
H2007 C1975 0.950 . S
H2008 C1979 0.949 . S
H2009 C1980 0.950 . S
H2010 C1984 0.950 . S
H2011 C1986 0.950 . S
H2012 C1989 0.950 . S
H2013 C1991 0.950 . S
C2014 C2015 1.443 . S
C2014 N2018 1.376 . S
C2014 C2052 1.389 . S
C2015 C2014 1.443 . S
C2015 C2016 1.340 . S
C2015 H2055 0.951 . S
C2016 C2015 1.340 . S
C2016 C2017 1.439 . S
C2016 H2056 0.950 . S
C2017 C2016 1.439 . S
C2017 N2018 1.374 . S
C2017 C2051 1.395 . S
N2018 C2014 1.376 . S
N2018 C2017 1.374 . S
N2018 Co2019 2.008 . S
Co2019 N2018 2.008 . S
Co2019 N2020 1.995 . S
Co2019 N2025 2.008 . S
Co2019 N2030 1.995 . S
Co2019 N2035 2.282 . S
Co2019 N2041 2.282 . S
N2020 Co2019 1.995 . S
N2020 C2021 1.376 . S
N2020 C2024 1.383 . S
C2021 N2020 1.376 . S
C2021 C2022 1.446 . S
C2021 C2051 1.391 . S
C2022 C2021 1.446 . S
C2022 C2023 1.339 . S
C2022 H2057 0.949 . S
C2023 C2022 1.339 . S
C2023 C2024 1.439 . S
C2023 H2058 0.950 . S
C2024 N2020 1.383 . S
C2024 C2023 1.439 . S
C2024 C2053 1.392 . S
N2025 Co2019 2.008 . S
N2025 C2026 1.376 . S
N2025 C2029 1.374 . S
C2026 N2025 1.376 . S
C2026 C2027 1.443 . S
C2026 C2053 1.389 . S
C2027 C2026 1.443 . S
C2027 C2028 1.340 . S
C2027 H2059 0.951 . S
C2028 C2027 1.340 . S
C2028 C2029 1.439 . S
C2028 H2060 0.950 . S
C2029 N2025 1.374 . S
C2029 C2028 1.439 . S
C2029 C2054 1.395 . S
N2030 Co2019 1.995 . S
N2030 C2031 1.376 . S
N2030 C2034 1.383 . S
C2031 N2030 1.376 . S
C2031 C2032 1.446 . S
C2031 C2054 1.391 . S
C2032 C2031 1.446 . S
C2032 C2033 1.339 . S
C2032 H2061 0.949 . S
C2033 C2032 1.339 . S
C2033 C2034 1.439 . S
C2033 H2062 0.950 . S
C2034 N2030 1.383 . S
C2034 C2033 1.439 . S
C2034 C2052 1.392 . S
N2035 Co2019 2.282 . S
N2035 C2038 1.332 . S
N2035 C2040 1.332 . S
C2036 C2037 1.386 . S
C2036 C2039 1.388 . S
C2037 C2036 1.386 . S
C2037 C2038 1.382 . S
C2037 H2063 0.950 . S
C2038 N2035 1.332 . S
C2038 C2037 1.382 . S
C2038 H2049 0.952 . S
C2039 C2036 1.388 . S
C2039 C2040 1.382 . S
C2039 H2064 0.950 . S
C2040 N2035 1.332 . S
C2040 C2039 1.382 . S
C2040 H2050 0.948 . S
N2041 Co2019 2.282 . S
N2041 C2045 1.332 . S
N2041 C2046 1.332 . S
C2042 C2043 1.388 . S
C2042 C2046 1.382 . S
C2042 H2065 0.950 . S
C2043 C2042 1.388 . S
C2043 C2044 1.386 . S
C2044 C2043 1.386 . S
C2044 C2045 1.382 . S
C2044 H2066 0.950 . S
C2045 N2041 1.332 . S
C2045 C2044 1.382 . S
C2045 H2047 0.952 . S
C2046 N2041 1.332 . S
C2046 C2042 1.382 . S
C2046 H2048 0.948 . S
H2047 C2045 0.952 . S
H2048 C2046 0.948 . S
H2049 C2038 0.952 . S
H2050 C2040 0.948 . S
C2051 C2017 1.395 . S
C2051 C2021 1.391 . S
C2052 C2014 1.389 . S
C2052 C2034 1.392 . S
C2053 C2024 1.392 . S
C2053 C2026 1.389 . S
C2054 C2029 1.395 . S
C2054 C2031 1.391 . S
H2055 C2015 0.951 . S
H2056 C2016 0.950 . S
H2057 C2022 0.949 . S
H2058 C2023 0.950 . S
H2059 C2027 0.951 . S
H2060 C2028 0.950 . S
H2061 C2032 0.949 . S
H2062 C2033 0.950 . S
H2063 C2037 0.950 . S
H2064 C2039 0.950 . S
H2065 C2042 0.950 . S
H2066 C2044 0.950 . S
C2067 C2068 1.443 . S
C2067 N2071 1.376 . S
C2067 C2105 1.389 . S
C2068 C2067 1.443 . S
C2068 C2069 1.340 . S
C2068 H2108 0.951 . S
C2069 C2068 1.340 . S
C2069 C2070 1.439 . S
C2069 H2109 0.950 . S
C2070 C2069 1.439 . S
C2070 N2071 1.374 . S
C2070 C2104 1.395 . S
N2071 C2067 1.376 . S
N2071 C2070 1.374 . S
N2071 Co2072 2.008 . S
Co2072 N2071 2.008 . S
Co2072 N2073 1.995 . S
Co2072 N2078 2.008 . S
Co2072 N2083 1.995 . S
Co2072 N2088 2.282 . S
Co2072 N2094 2.282 . S
N2073 Co2072 1.995 . S
N2073 C2074 1.376 . S
N2073 C2077 1.383 . S
C2074 N2073 1.376 . S
C2074 C2075 1.446 . S
C2074 C2104 1.391 . S
C2075 C2074 1.446 . S
C2075 C2076 1.339 . S
C2075 H2110 0.949 . S
C2076 C2075 1.339 . S
C2076 C2077 1.439 . S
C2076 H2111 0.950 . S
C2077 N2073 1.383 . S
C2077 C2076 1.439 . S
C2077 C2106 1.392 . S
N2078 Co2072 2.008 . S
N2078 C2079 1.376 . S
N2078 C2082 1.374 . S
C2079 N2078 1.376 . S
C2079 C2080 1.443 . S
C2079 C2106 1.389 . S
C2080 C2079 1.443 . S
C2080 C2081 1.340 . S
C2080 H2112 0.951 . S
C2081 C2080 1.340 . S
C2081 C2082 1.439 . S
C2081 H2113 0.950 . S
C2082 N2078 1.374 . S
C2082 C2081 1.439 . S
C2082 C2107 1.395 . S
N2083 Co2072 1.995 . S
N2083 C2084 1.376 . S
N2083 C2087 1.383 . S
C2084 N2083 1.376 . S
C2084 C2085 1.446 . S
C2084 C2107 1.391 . S
C2085 C2084 1.446 . S
C2085 C2086 1.339 . S
C2085 H2114 0.949 . S
C2086 C2085 1.339 . S
C2086 C2087 1.439 . S
C2086 H2115 0.950 . S
C2087 N2083 1.383 . S
C2087 C2086 1.439 . S
C2087 C2105 1.392 . S
N2088 Co2072 2.282 . S
N2088 C2091 1.332 . S
N2088 C2093 1.332 . S
C2089 C2090 1.386 . S
C2089 C2092 1.388 . S
C2090 C2089 1.386 . S
C2090 C2091 1.382 . S
C2090 H2116 0.950 . S
C2091 N2088 1.332 . S
C2091 C2090 1.382 . S
C2091 H2102 0.952 . S
C2092 C2089 1.388 . S
C2092 C2093 1.382 . S
C2092 H2117 0.950 . S
C2093 N2088 1.332 . S
C2093 C2092 1.382 . S
C2093 H2103 0.948 . S
N2094 Co2072 2.282 . S
N2094 C2098 1.332 . S
N2094 C2099 1.332 . S
C2095 C2096 1.388 . S
C2095 C2099 1.382 . S
C2095 H2118 0.950 . S
C2096 C2095 1.388 . S
C2096 C2097 1.386 . S
C2097 C2096 1.386 . S
C2097 C2098 1.382 . S
C2097 H2119 0.950 . S
C2098 N2094 1.332 . S
C2098 C2097 1.382 . S
C2098 H2100 0.952 . S
C2099 N2094 1.332 . S
C2099 C2095 1.382 . S
C2099 H2101 0.948 . S
H2100 C2098 0.952 . S
H2101 C2099 0.948 . S
H2102 C2091 0.952 . S
H2103 C2093 0.948 . S
C2104 C2070 1.395 . S
C2104 C2074 1.391 . S
C2105 C2067 1.389 . S
C2105 C2087 1.392 . S
C2106 C2077 1.392 . S
C2106 C2079 1.389 . S
C2107 C2082 1.395 . S
C2107 C2084 1.391 . S
H2108 C2068 0.951 . S
H2109 C2069 0.950 . S
H2110 C2075 0.949 . S
H2111 C2076 0.950 . S
H2112 C2080 0.951 . S
H2113 C2081 0.950 . S
H2114 C2085 0.949 . S
H2115 C2086 0.950 . S
H2116 C2090 0.950 . S
H2117 C2092 0.950 . S
H2118 C2095 0.950 . S
H2119 C2097 0.950 . S
C2120 C2121 1.443 . S
C2120 N2124 1.376 . S
C2120 C2158 1.389 . S
C2121 C2120 1.443 . S
C2121 C2122 1.340 . S
C2121 H2161 0.951 . S
C2122 C2121 1.340 . S
C2122 C2123 1.439 . S
C2122 H2162 0.950 . S
C2123 C2122 1.439 . S
C2123 N2124 1.374 . S
C2123 C2157 1.395 . S
N2124 C2120 1.376 . S
N2124 C2123 1.374 . S
N2124 Co2125 2.008 . S
Co2125 N2124 2.008 . S
Co2125 N2126 1.995 . S
Co2125 N2131 2.008 . S
Co2125 N2136 1.995 . S
Co2125 N2141 2.282 . S
Co2125 N2147 2.282 . S
N2126 Co2125 1.995 . S
N2126 C2127 1.376 . S
N2126 C2130 1.383 . S
C2127 N2126 1.376 . S
C2127 C2128 1.446 . S
C2127 C2157 1.391 . S
C2128 C2127 1.446 . S
C2128 C2129 1.339 . S
C2128 H2163 0.949 . S
C2129 C2128 1.339 . S
C2129 C2130 1.439 . S
C2129 H2164 0.950 . S
C2130 N2126 1.383 . S
C2130 C2129 1.439 . S
C2130 C2159 1.392 . S
N2131 Co2125 2.008 . S
N2131 C2132 1.376 . S
N2131 C2135 1.374 . S
C2132 N2131 1.376 . S
C2132 C2133 1.443 . S
C2132 C2159 1.389 . S
C2133 C2132 1.443 . S
C2133 C2134 1.340 . S
C2133 H2165 0.951 . S
C2134 C2133 1.340 . S
C2134 C2135 1.439 . S
C2134 H2166 0.950 . S
C2135 N2131 1.374 . S
C2135 C2134 1.439 . S
C2135 C2160 1.395 . S
N2136 Co2125 1.995 . S
N2136 C2137 1.376 . S
N2136 C2140 1.383 . S
C2137 N2136 1.376 . S
C2137 C2138 1.446 . S
C2137 C2160 1.391 . S
C2138 C2137 1.446 . S
C2138 C2139 1.339 . S
C2138 H2167 0.949 . S
C2139 C2138 1.339 . S
C2139 C2140 1.439 . S
C2139 H2168 0.950 . S
C2140 N2136 1.383 . S
C2140 C2139 1.439 . S
C2140 C2158 1.392 . S
N2141 Co2125 2.282 . S
N2141 C2144 1.332 . S
N2141 C2146 1.332 . S
C2142 C2143 1.386 . S
C2142 C2145 1.388 . S
C2143 C2142 1.386 . S
C2143 C2144 1.382 . S
C2143 H2169 0.950 . S
C2144 N2141 1.332 . S
C2144 C2143 1.382 . S
C2144 H2155 0.952 . S
C2145 C2142 1.388 . S
C2145 C2146 1.382 . S
C2145 H2170 0.950 . S
C2146 N2141 1.332 . S
C2146 C2145 1.382 . S
C2146 H2156 0.948 . S
N2147 Co2125 2.282 . S
N2147 C2151 1.332 . S
N2147 C2152 1.332 . S
C2148 C2149 1.388 . S
C2148 C2152 1.382 . S
C2148 H2171 0.950 . S
C2149 C2148 1.388 . S
C2149 C2150 1.386 . S
C2150 C2149 1.386 . S
C2150 C2151 1.382 . S
C2150 H2172 0.950 . S
C2151 N2147 1.332 . S
C2151 C2150 1.382 . S
C2151 H2153 0.952 . S
C2152 N2147 1.332 . S
C2152 C2148 1.382 . S
C2152 H2154 0.948 . S
H2153 C2151 0.952 . S
H2154 C2152 0.948 . S
H2155 C2144 0.952 . S
H2156 C2146 0.948 . S
C2157 C2123 1.395 . S
C2157 C2127 1.391 . S
C2158 C2120 1.389 . S
C2158 C2140 1.392 . S
C2159 C2130 1.392 . S
C2159 C2132 1.389 . S
C2160 C2135 1.395 . S
C2160 C2137 1.391 . S
H2161 C2121 0.951 . S
H2162 C2122 0.950 . S
H2163 C2128 0.949 . S
H2164 C2129 0.950 . S
H2165 C2133 0.951 . S
H2166 C2134 0.950 . S
H2167 C2138 0.949 . S
H2168 C2139 0.950 . S
H2169 C2143 0.950 . S
H2170 C2145 0.950 . S
H2171 C2148 0.950 . S
H2172 C2150 0.950 . S
C2173 C2174 1.443 . S
C2173 N2177 1.376 . S
C2173 C2211 1.389 . S
C2174 C2173 1.443 . S
C2174 C2175 1.340 . S
C2174 H2214 0.951 . S
C2175 C2174 1.340 . S
C2175 C2176 1.439 . S
C2175 H2215 0.950 . S
C2176 C2175 1.439 . S
C2176 N2177 1.374 . S
C2176 C2210 1.395 . S
N2177 C2173 1.376 . S
N2177 C2176 1.374 . S
N2177 Co2178 2.008 . S
Co2178 N2177 2.008 . S
Co2178 N2179 1.995 . S
Co2178 N2184 2.008 . S
Co2178 N2189 1.995 . S
Co2178 N2194 2.282 . S
Co2178 N2200 2.282 . S
N2179 Co2178 1.995 . S
N2179 C2180 1.376 . S
N2179 C2183 1.383 . S
C2180 N2179 1.376 . S
C2180 C2181 1.446 . S
C2180 C2210 1.391 . S
C2181 C2180 1.446 . S
C2181 C2182 1.339 . S
C2181 H2216 0.949 . S
C2182 C2181 1.339 . S
C2182 C2183 1.439 . S
C2182 H2217 0.950 . S
C2183 N2179 1.383 . S
C2183 C2182 1.439 . S
C2183 C2212 1.392 . S
N2184 Co2178 2.008 . S
N2184 C2185 1.376 . S
N2184 C2188 1.374 . S
C2185 N2184 1.376 . S
C2185 C2186 1.443 . S
C2185 C2212 1.389 . S
C2186 C2185 1.443 . S
C2186 C2187 1.340 . S
C2186 H2218 0.951 . S
C2187 C2186 1.340 . S
C2187 C2188 1.439 . S
C2187 H2219 0.950 . S
C2188 N2184 1.374 . S
C2188 C2187 1.439 . S
C2188 C2213 1.395 . S
N2189 Co2178 1.995 . S
N2189 C2190 1.376 . S
N2189 C2193 1.383 . S
C2190 N2189 1.376 . S
C2190 C2191 1.446 . S
C2190 C2213 1.391 . S
C2191 C2190 1.446 . S
C2191 C2192 1.339 . S
C2191 H2220 0.949 . S
C2192 C2191 1.339 . S
C2192 C2193 1.439 . S
C2192 H2221 0.950 . S
C2193 N2189 1.383 . S
C2193 C2192 1.439 . S
C2193 C2211 1.392 . S
N2194 Co2178 2.282 . S
N2194 C2197 1.332 . S
N2194 C2199 1.332 . S
C2195 C2196 1.386 . S
C2195 C2198 1.388 . S
C2196 C2195 1.386 . S
C2196 C2197 1.382 . S
C2196 H2222 0.950 . S
C2197 N2194 1.332 . S
C2197 C2196 1.382 . S
C2197 H2208 0.952 . S
C2198 C2195 1.388 . S
C2198 C2199 1.382 . S
C2198 H2223 0.950 . S
C2199 N2194 1.332 . S
C2199 C2198 1.382 . S
C2199 H2209 0.948 . S
N2200 Co2178 2.282 . S
N2200 C2204 1.332 . S
N2200 C2205 1.332 . S
C2201 C2202 1.388 . S
C2201 C2205 1.382 . S
C2201 H2224 0.950 . S
C2202 C2201 1.388 . S
C2202 C2203 1.386 . S
C2203 C2202 1.386 . S
C2203 C2204 1.382 . S
C2203 H2225 0.950 . S
C2204 N2200 1.332 . S
C2204 C2203 1.382 . S
C2204 H2206 0.952 . S
C2205 N2200 1.332 . S
C2205 C2201 1.382 . S
C2205 H2207 0.948 . S
H2206 C2204 0.952 . S
H2207 C2205 0.948 . S
H2208 C2197 0.952 . S
H2209 C2199 0.948 . S
C2210 C2176 1.395 . S
C2210 C2180 1.391 . S
C2211 C2173 1.389 . S
C2211 C2193 1.392 . S
C2212 C2183 1.392 . S
C2212 C2185 1.389 . S
C2213 C2188 1.395 . S
C2213 C2190 1.391 . S
H2214 C2174 0.951 . S
H2215 C2175 0.950 . S
H2216 C2181 0.949 . S
H2217 C2182 0.950 . S
H2218 C2186 0.951 . S
H2219 C2187 0.950 . S
H2220 C2191 0.949 . S
H2221 C2192 0.950 . S
H2222 C2196 0.950 . S
H2223 C2198 0.950 . S
H2224 C2201 0.950 . S
H2225 C2203 0.950 . S
C2226 C2227 1.443 . S
C2226 N2230 1.376 . S
C2226 C2264 1.389 1_545 S
C2227 C2226 1.443 . S
C2227 C2228 1.340 . S
C2227 H2267 0.951 1_545 S
C2228 C2227 1.340 . S
C2228 C2229 1.439 . S
C2228 H2268 0.950 . S
C2229 C2228 1.439 . S
C2229 N2230 1.374 . S
C2229 C2263 1.395 . S
N2230 C2226 1.376 . S
N2230 C2229 1.374 . S
N2230 Co2231 2.008 . S
Co2231 N2230 2.008 . S
Co2231 N2232 1.995 . S
Co2231 N2237 2.008 . S
Co2231 N2242 1.995 . S
Co2231 N2247 2.282 . S
Co2231 N2253 2.282 . S
N2232 Co2231 1.995 . S
N2232 C2233 1.376 . S
N2232 C2236 1.383 . S
C2233 N2232 1.376 . S
C2233 C2234 1.446 . S
C2233 C2263 1.391 . S
C2234 C2233 1.446 . S
C2234 C2235 1.339 . S
C2234 H2269 0.949 . S
C2235 C2234 1.339 . S
C2235 C2236 1.439 . S
C2235 H2270 0.950 . S
C2236 N2232 1.383 . S
C2236 C2235 1.439 . S
C2236 C2265 1.392 . S
N2237 Co2231 2.008 . S
N2237 C2238 1.376 . S
N2237 C2241 1.374 . S
C2238 N2237 1.376 . S
C2238 C2239 1.443 . S
C2238 C2265 1.389 . S
C2239 C2238 1.443 . S
C2239 C2240 1.340 . S
C2239 H2271 0.951 . S
C2240 C2239 1.340 . S
C2240 C2241 1.439 . S
C2240 H2272 0.950 . S
C2241 N2237 1.374 . S
C2241 C2240 1.439 . S
C2241 C2266 1.395 . S
N2242 Co2231 1.995 . S
N2242 C2243 1.376 . S
N2242 C2246 1.383 1_545 S
C2243 N2242 1.376 . S
C2243 C2244 1.446 1_545 S
C2243 C2266 1.391 . S
C2244 C2243 1.446 1_565 S
C2244 C2245 1.339 . S
C2244 H2273 0.949 . S
C2245 C2244 1.339 . S
C2245 C2246 1.439 . S
C2245 H2274 0.950 . S
C2246 N2242 1.383 1_565 S
C2246 C2245 1.439 . S
C2246 C2264 1.392 . S
N2247 Co2231 2.282 . S
N2247 C2250 1.332 1_545 S
N2247 C2252 1.332 . S
C2248 C2249 1.386 . S
C2248 C2251 1.388 . S
C2249 C2248 1.386 . S
C2249 C2250 1.382 . S
C2249 H2275 0.950 . S
C2250 N2247 1.332 1_565 S
C2250 C2249 1.382 . S
C2250 H2261 0.952 . S
C2251 C2248 1.388 . S
C2251 C2252 1.382 1_565 S
C2251 H2276 0.957 . S
C2252 N2247 1.332 . S
C2252 C2251 1.382 1_545 S
C2252 H2262 0.948 . S
N2253 Co2231 2.282 . S
N2253 C2257 1.332 . S
N2253 C2258 1.332 . S
C2254 C2255 1.388 . S
C2254 C2258 1.382 . S
C2254 H2277 0.950 . S
C2255 C2254 1.388 . S
C2255 C2256 1.386 . S
C2256 C2255 1.386 . S
C2256 C2257 1.382 . S
C2256 H2278 0.950 . S
C2257 N2253 1.332 . S
C2257 C2256 1.382 . S
C2257 H2259 0.952 . S
C2258 N2253 1.332 . S
C2258 C2254 1.382 . S
C2258 H2260 0.948 . S
H2259 C2257 0.952 . S
H2260 C2258 0.948 . S
H2261 C2250 0.952 . S
H2262 C2252 0.948 . S
C2263 C2229 1.395 . S
C2263 C2233 1.391 . S
C2264 C2226 1.389 1_565 S
C2264 C2246 1.392 . S
C2265 C2236 1.392 . S
C2265 C2238 1.389 . S
C2266 C2241 1.395 . S
C2266 C2243 1.391 . S
H2267 C2227 0.951 1_565 S
H2268 C2228 0.950 . S
H2269 C2234 0.949 . S
H2270 C2235 0.950 . S
H2271 C2239 0.951 . S
H2272 C2240 0.950 . S
H2273 C2244 0.949 . S
H2274 C2245 0.950 . S
H2275 C2249 0.950 . S
H2276 C2251 0.957 . S
H2277 C2254 0.950 . S
H2278 C2256 0.950 . S
C2279 C2280 1.443 . S
C2279 N2283 1.376 . S
C2279 C2317 1.389 . S
C2280 C2279 1.443 . S
C2280 C2281 1.340 . S
C2280 H2320 0.951 . S
C2281 C2280 1.340 . S
C2281 C2282 1.439 . S
C2281 H2321 0.950 . S
C2282 C2281 1.439 . S
C2282 N2283 1.374 . S
C2282 C2316 1.395 . S
N2283 C2279 1.376 . S
N2283 C2282 1.374 . S
N2283 Co2284 2.008 . S
Co2284 N2283 2.008 . S
Co2284 N2285 1.995 . S
Co2284 N2290 2.008 . S
Co2284 N2295 1.995 . S
Co2284 N2300 2.282 . S
Co2284 N2306 2.282 . S
N2285 Co2284 1.995 . S
N2285 C2286 1.376 . S
N2285 C2289 1.383 . S
C2286 N2285 1.376 . S
C2286 C2287 1.446 . S
C2286 C2316 1.391 . S
C2287 C2286 1.446 . S
C2287 C2288 1.339 . S
C2287 H2322 0.949 . S
C2288 C2287 1.339 . S
C2288 C2289 1.439 . S
C2288 H2323 0.950 . S
C2289 N2285 1.383 . S
C2289 C2288 1.439 . S
C2289 C2318 1.392 . S
N2290 Co2284 2.008 . S
N2290 C2291 1.376 . S
N2290 C2294 1.374 . S
C2291 N2290 1.376 . S
C2291 C2292 1.443 . S
C2291 C2318 1.389 . S
C2292 C2291 1.443 . S
C2292 C2293 1.340 . S
C2292 H2324 0.951 . S
C2293 C2292 1.340 . S
C2293 C2294 1.439 . S
C2293 H2325 0.950 . S
C2294 N2290 1.374 . S
C2294 C2293 1.439 . S
C2294 C2319 1.395 . S
N2295 Co2284 1.995 . S
N2295 C2296 1.376 . S
N2295 C2299 1.383 . S
C2296 N2295 1.376 . S
C2296 C2297 1.446 . S
C2296 C2319 1.391 . S
C2297 C2296 1.446 . S
C2297 C2298 1.339 . S
C2297 H2326 0.949 . S
C2298 C2297 1.339 . S
C2298 C2299 1.439 . S
C2298 H2327 0.950 . S
C2299 N2295 1.383 . S
C2299 C2298 1.439 . S
C2299 C2317 1.392 . S
N2300 Co2284 2.282 . S
N2300 C2303 1.332 . S
N2300 C2305 1.332 . S
C2301 C2302 1.386 . S
C2301 C2304 1.388 . S
C2302 C2301 1.386 . S
C2302 C2303 1.382 . S
C2302 H2328 0.950 . S
C2303 N2300 1.332 . S
C2303 C2302 1.382 . S
C2303 H2314 0.952 . S
C2304 C2301 1.388 . S
C2304 C2305 1.382 . S
C2304 H2329 0.950 . S
C2305 N2300 1.332 . S
C2305 C2304 1.382 . S
C2305 H2315 0.948 . S
N2306 Co2284 2.282 . S
N2306 C2310 1.332 . S
N2306 C2311 1.332 . S
C2307 C2308 1.388 . S
C2307 C2311 1.382 . S
C2307 H2330 0.950 . S
C2308 C2307 1.388 . S
C2308 C2309 1.386 . S
C2309 C2308 1.386 . S
C2309 C2310 1.382 . S
C2309 H2331 0.950 . S
C2310 N2306 1.332 . S
C2310 C2309 1.382 . S
C2310 H2312 0.952 . S
C2311 N2306 1.332 . S
C2311 C2307 1.382 . S
C2311 H2313 0.948 . S
H2312 C2310 0.952 . S
H2313 C2311 0.948 . S
H2314 C2303 0.952 . S
H2315 C2305 0.948 . S
C2316 C2282 1.395 . S
C2316 C2286 1.391 . S
C2317 C2279 1.389 . S
C2317 C2299 1.392 . S
C2318 C2289 1.392 . S
C2318 C2291 1.389 . S
C2319 C2294 1.395 . S
C2319 C2296 1.391 . S
H2320 C2280 0.951 . S
H2321 C2281 0.950 . S
H2322 C2287 0.949 . S
H2323 C2288 0.950 . S
H2324 C2292 0.951 . S
H2325 C2293 0.950 . S
H2326 C2297 0.949 . S
H2327 C2298 0.950 . S
H2328 C2302 0.950 . S
H2329 C2304 0.950 . S
H2330 C2307 0.950 . S
H2331 C2309 0.950 . S
C2332 C2333 1.443 . S
C2332 N2336 1.376 . S
C2332 C2370 1.389 . S
C2333 C2332 1.443 . S
C2333 C2334 1.340 . S
C2333 H2373 0.951 . S
C2334 C2333 1.340 . S
C2334 C2335 1.439 . S
C2334 H2374 0.950 . S
C2335 C2334 1.439 . S
C2335 N2336 1.374 . S
C2335 C2369 1.395 . S
N2336 C2332 1.376 . S
N2336 C2335 1.374 . S
N2336 Co2337 2.008 . S
Co2337 N2336 2.008 . S
Co2337 N2338 1.995 . S
Co2337 N2343 2.008 . S
Co2337 N2348 1.995 . S
Co2337 N2353 2.282 . S
Co2337 N2359 2.282 . S
N2338 Co2337 1.995 . S
N2338 C2339 1.376 . S
N2338 C2342 1.383 . S
C2339 N2338 1.376 . S
C2339 C2340 1.446 . S
C2339 C2369 1.391 . S
C2340 C2339 1.446 . S
C2340 C2341 1.339 . S
C2340 H2375 0.949 . S
C2341 C2340 1.339 . S
C2341 C2342 1.439 . S
C2341 H2376 0.950 . S
C2342 N2338 1.383 . S
C2342 C2341 1.439 . S
C2342 C2371 1.392 . S
N2343 Co2337 2.008 . S
N2343 C2344 1.376 . S
N2343 C2347 1.374 . S
C2344 N2343 1.376 . S
C2344 C2345 1.443 . S
C2344 C2371 1.389 . S
C2345 C2344 1.443 . S
C2345 C2346 1.340 . S
C2345 H2377 0.951 . S
C2346 C2345 1.340 . S
C2346 C2347 1.439 . S
C2346 H2378 0.950 . S
C2347 N2343 1.374 . S
C2347 C2346 1.439 . S
C2347 C2372 1.395 . S
N2348 Co2337 1.995 . S
N2348 C2349 1.376 . S
N2348 C2352 1.383 . S
C2349 N2348 1.376 . S
C2349 C2350 1.446 . S
C2349 C2372 1.391 . S
C2350 C2349 1.446 . S
C2350 C2351 1.339 . S
C2350 H2379 0.949 . S
C2351 C2350 1.339 . S
C2351 C2352 1.439 . S
C2351 H2380 0.950 . S
C2352 N2348 1.383 . S
C2352 C2351 1.439 . S
C2352 C2370 1.392 . S
N2353 Co2337 2.282 . S
N2353 C2356 1.332 . S
N2353 C2358 1.332 . S
C2354 C2355 1.386 . S
C2354 C2357 1.388 . S
C2355 C2354 1.386 . S
C2355 C2356 1.382 . S
C2355 H2381 0.950 . S
C2356 N2353 1.332 . S
C2356 C2355 1.382 . S
C2356 H2367 0.952 . S
C2357 C2354 1.388 . S
C2357 C2358 1.382 . S
C2357 H2382 0.950 . S
C2358 N2353 1.332 . S
C2358 C2357 1.382 . S
C2358 H2368 0.948 . S
N2359 Co2337 2.282 . S
N2359 C2363 1.332 . S
N2359 C2364 1.332 . S
C2360 C2361 1.388 . S
C2360 C2364 1.382 . S
C2360 H2383 0.950 . S
C2361 C2360 1.388 . S
C2361 C2362 1.386 . S
C2362 C2361 1.386 . S
C2362 C2363 1.382 . S
C2362 H2384 0.950 . S
C2363 N2359 1.332 . S
C2363 C2362 1.382 . S
C2363 H2365 0.952 . S
C2364 N2359 1.332 . S
C2364 C2360 1.382 . S
C2364 H2366 0.948 . S
H2365 C2363 0.952 . S
H2366 C2364 0.948 . S
H2367 C2356 0.952 . S
H2368 C2358 0.948 . S
C2369 C2335 1.395 . S
C2369 C2339 1.391 . S
C2370 C2332 1.389 . S
C2370 C2352 1.392 . S
C2371 C2342 1.392 . S
C2371 C2344 1.389 . S
C2372 C2347 1.395 . S
C2372 C2349 1.391 . S
H2373 C2333 0.951 . S
H2374 C2334 0.950 . S
H2375 C2340 0.949 . S
H2376 C2341 0.950 . S
H2377 C2345 0.951 . S
H2378 C2346 0.950 . S
H2379 C2350 0.949 . S
H2380 C2351 0.950 . S
H2381 C2355 0.950 . S
H2382 C2357 0.950 . S
H2383 C2360 0.950 . S
H2384 C2362 0.950 . S
C2385 C2386 1.443 . S
C2385 N2389 1.376 . S
C2385 C2423 1.389 . S
C2386 C2385 1.443 . S
C2386 C2387 1.340 . S
C2386 H2426 0.951 . S
C2387 C2386 1.340 . S
C2387 C2388 1.439 . S
C2387 H2427 0.950 . S
C2388 C2387 1.439 . S
C2388 N2389 1.374 . S
C2388 C2422 1.395 . S
N2389 C2385 1.376 . S
N2389 C2388 1.374 . S
N2389 Co2390 2.008 . S
Co2390 N2389 2.008 . S
Co2390 N2391 1.995 . S
Co2390 N2396 2.008 . S
Co2390 N2401 1.995 . S
Co2390 N2406 2.282 . S
Co2390 N2412 2.282 . S
N2391 Co2390 1.995 . S
N2391 C2392 1.376 . S
N2391 C2395 1.383 . S
C2392 N2391 1.376 . S
C2392 C2393 1.446 . S
C2392 C2422 1.391 . S
C2393 C2392 1.446 . S
C2393 C2394 1.339 . S
C2393 H2428 0.949 . S
C2394 C2393 1.339 . S
C2394 C2395 1.439 . S
C2394 H2429 0.950 . S
C2395 N2391 1.383 . S
C2395 C2394 1.439 . S
C2395 C2424 1.392 . S
N2396 Co2390 2.008 . S
N2396 C2397 1.376 . S
N2396 C2400 1.374 . S
C2397 N2396 1.376 . S
C2397 C2398 1.443 . S
C2397 C2424 1.389 . S
C2398 C2397 1.443 . S
C2398 C2399 1.340 . S
C2398 H2430 0.951 . S
C2399 C2398 1.340 . S
C2399 C2400 1.439 . S
C2399 H2431 0.950 . S
C2400 N2396 1.374 . S
C2400 C2399 1.439 . S
C2400 C2425 1.395 . S
N2401 Co2390 1.995 . S
N2401 C2402 1.376 . S
N2401 C2405 1.383 . S
C2402 N2401 1.376 . S
C2402 C2403 1.446 . S
C2402 C2425 1.391 . S
C2403 C2402 1.446 . S
C2403 C2404 1.339 . S
C2403 H2432 0.949 . S
C2404 C2403 1.339 . S
C2404 C2405 1.439 . S
C2404 H2433 0.950 . S
C2405 N2401 1.383 . S
C2405 C2404 1.439 . S
C2405 C2423 1.392 . S
N2406 Co2390 2.282 . S
N2406 C2409 1.332 . S
N2406 C2411 1.332 . S
C2407 C2408 1.386 . S
C2407 C2410 1.388 . S
C2408 C2407 1.386 . S
C2408 C2409 1.382 . S
C2408 H2434 0.950 . S
C2409 N2406 1.332 . S
C2409 C2408 1.382 . S
C2409 H2420 0.952 . S
C2410 C2407 1.388 . S
C2410 C2411 1.382 . S
C2410 H2435 0.950 . S
C2411 N2406 1.332 . S
C2411 C2410 1.382 . S
C2411 H2421 0.948 . S
N2412 Co2390 2.282 . S
N2412 C2416 1.332 . S
N2412 C2417 1.332 . S
C2413 C2414 1.388 . S
C2413 C2417 1.382 . S
C2413 H2436 0.950 . S
C2414 C2413 1.388 . S
C2414 C2415 1.386 . S
C2415 C2414 1.386 . S
C2415 C2416 1.382 . S
C2415 H2437 0.950 . S
C2416 N2412 1.332 . S
C2416 C2415 1.382 . S
C2416 H2418 0.952 . S
C2417 N2412 1.332 . S
C2417 C2413 1.382 . S
C2417 H2419 0.948 . S
H2418 C2416 0.952 . S
H2419 C2417 0.948 . S
H2420 C2409 0.952 . S
H2421 C2411 0.948 . S
C2422 C2388 1.395 . S
C2422 C2392 1.391 . S
C2423 C2385 1.389 . S
C2423 C2405 1.392 . S
C2424 C2395 1.392 . S
C2424 C2397 1.389 . S
C2425 C2400 1.395 . S
C2425 C2402 1.391 . S
H2426 C2386 0.951 . S
H2427 C2387 0.950 . S
H2428 C2393 0.949 . S
H2429 C2394 0.950 . S
H2430 C2398 0.951 . S
H2431 C2399 0.950 . S
H2432 C2403 0.949 . S
H2433 C2404 0.950 . S
H2434 C2408 0.950 . S
H2435 C2410 0.950 . S
H2436 C2413 0.950 . S
H2437 C2415 0.950 . S
C2438 C2439 1.443 . S
C2438 N2442 1.376 . S
C2438 C2476 1.389 1_565 S
C2439 C2438 1.443 . S
C2439 C2440 1.337 1_556 S
C2439 H2479 0.951 1_566 S
C2440 C2439 1.337 1_554 S
C2440 C2441 1.404 1_554 S
C2440 H2480 0.983 . S
C2441 C2440 1.404 1_556 S
C2441 N2442 1.374 . S
C2441 C2475 1.395 . S
N2442 C2438 1.376 . S
N2442 C2441 1.374 . S
N2442 Co2443 2.008 . S
Co2443 N2442 2.008 . S
Co2443 N2444 1.995 . S
Co2443 N2449 2.008 . S
Co2443 N2454 1.995 . S
Co2443 N2459 2.282 . S
Co2443 N2465 2.282 . S
N2444 Co2443 1.995 . S
N2444 C2445 1.376 . S
N2444 C2448 1.383 . S
C2445 N2444 1.376 . S
C2445 C2446 1.446 . S
C2445 C2475 1.391 . S
C2446 C2445 1.446 . S
C2446 C2447 1.339 . S
C2446 H2481 0.949 . S
C2447 C2446 1.339 . S
C2447 C2448 1.439 . S
C2447 H2482 0.950 . S
C2448 N2444 1.383 . S
C2448 C2447 1.439 . S
C2448 C2477 1.392 . S
N2449 Co2443 2.008 . S
N2449 C2450 1.376 . S
N2449 C2453 1.374 . S
C2450 N2449 1.376 . S
C2450 C2451 1.443 . S
C2450 C2477 1.389 . S
C2451 C2450 1.443 . S
C2451 C2452 1.340 . S
C2451 H2483 0.951 . S
C2452 C2451 1.340 . S
C2452 C2453 1.439 . S
C2452 H2484 0.950 . S
C2453 N2449 1.374 . S
C2453 C2452 1.439 . S
C2453 C2478 1.395 . S
N2454 Co2443 1.995 . S
N2454 C2455 1.376 . S
N2454 C2458 1.383 1_565 S
C2455 N2454 1.376 . S
C2455 C2456 1.446 1_565 S
C2455 C2478 1.391 . S
C2456 C2455 1.446 1_545 S
C2456 C2457 1.339 . S
C2456 H2485 0.949 . S
C2457 C2456 1.339 . S
C2457 C2458 1.439 . S
C2457 H2486 0.950 . S
C2458 N2454 1.383 1_545 S
C2458 C2457 1.439 . S
C2458 C2476 1.392 . S
N2459 Co2443 2.282 . S
N2459 C2462 1.332 1_565 S
N2459 C2464 1.332 . S
C2460 C2461 1.386 . S
C2460 C2463 1.388 . S
C2461 C2460 1.386 . S
C2461 C2462 1.382 . S
C2461 H2487 0.950 . S
C2462 N2459 1.332 1_545 S
C2462 C2461 1.382 . S
C2462 H2473 0.952 . S
C2463 C2460 1.388 . S
C2463 C2464 1.382 1_545 S
C2463 H2488 0.957 . S
C2464 N2459 1.332 . S
C2464 C2463 1.382 1_565 S
C2464 H2474 0.948 . S
N2465 Co2443 2.282 . S
N2465 C2469 1.332 . S
N2465 C2470 1.332 . S
C2466 C2467 1.388 . S
C2466 C2470 1.382 . S
C2466 H2489 0.950 . S
C2467 C2466 1.388 . S
C2467 C2468 1.386 . S
C2468 C2467 1.386 . S
C2468 C2469 1.382 . S
C2468 H2490 0.950 . S
C2469 N2465 1.332 . S
C2469 C2468 1.382 . S
C2469 H2471 0.952 . S
C2470 N2465 1.332 . S
C2470 C2466 1.382 . S
C2470 H2472 0.948 . S
H2471 C2469 0.952 . S
H2472 C2470 0.948 . S
H2473 C2462 0.952 . S
H2474 C2464 0.948 . S
C2475 C2441 1.395 . S
C2475 C2445 1.391 . S
C2476 C2438 1.389 1_545 S
C2476 C2458 1.392 . S
C2477 C2448 1.392 . S
C2477 C2450 1.389 . S
C2478 C2453 1.395 . S
C2478 C2455 1.391 . S
H2479 C2439 0.951 1_544 S
H2480 C2440 0.983 . S
H2481 C2446 0.949 . S
H2482 C2447 0.950 . S
H2483 C2451 0.951 . S
H2484 C2452 0.950 . S
H2485 C2456 0.949 . S
H2486 C2457 0.950 . S
H2487 C2461 0.950 . S
H2488 C2463 0.957 . S
H2489 C2466 0.950 . S
H2490 C2468 0.950 . S
C2491 C2492 1.443 . S
C2491 N2495 1.376 . S
C2491 C2529 1.389 1_545 S
C2492 C2491 1.443 . S
C2492 C2493 1.340 . S
C2492 H2532 0.951 1_545 S
C2493 C2492 1.340 . S
C2493 C2494 1.439 . S
C2493 H2533 0.950 . S
C2494 C2493 1.439 . S
C2494 N2495 1.374 . S
C2494 C2528 1.395 . S
N2495 C2491 1.376 . S
N2495 C2494 1.374 . S
N2495 Co2496 2.008 . S
Co2496 N2495 2.008 . S
Co2496 N2497 1.995 . S
Co2496 N2502 2.008 . S
Co2496 N2507 1.995 . S
Co2496 N2512 2.282 . S
Co2496 N2518 2.282 . S
N2497 Co2496 1.995 . S
N2497 C2498 1.376 . S
N2497 C2501 1.383 . S
C2498 N2497 1.376 . S
C2498 C2499 1.446 . S
C2498 C2528 1.391 . S
C2499 C2498 1.446 . S
C2499 C2500 1.339 . S
C2499 H2534 0.949 . S
C2500 C2499 1.339 . S
C2500 C2501 1.439 . S
C2500 H2535 0.950 . S
C2501 N2497 1.383 . S
C2501 C2500 1.439 . S
C2501 C2530 1.392 . S
N2502 Co2496 2.008 . S
N2502 C2503 1.376 . S
N2502 C2506 1.374 . S
C2503 N2502 1.376 . S
C2503 C2504 1.443 . S
C2503 C2530 1.389 . S
C2504 C2503 1.443 . S
C2504 C2505 1.340 . S
C2504 H2536 0.951 . S
C2505 C2504 1.340 . S
C2505 C2506 1.439 . S
C2505 H2537 0.950 . S
C2506 N2502 1.374 . S
C2506 C2505 1.439 . S
C2506 C2531 1.395 . S
N2507 Co2496 1.995 . S
N2507 C2508 1.376 . S
N2507 C2511 1.383 1_545 S
C2508 N2507 1.376 . S
C2508 C2509 1.446 1_545 S
C2508 C2531 1.391 . S
C2509 C2508 1.446 1_565 S
C2509 C2510 1.339 . S
C2509 H2538 0.949 . S
C2510 C2509 1.339 . S
C2510 C2511 1.439 . S
C2510 H2539 0.950 . S
C2511 N2507 1.383 1_565 S
C2511 C2510 1.439 . S
C2511 C2529 1.392 . S
N2512 Co2496 2.282 . S
N2512 C2515 1.332 1_545 S
N2512 C2517 1.332 . S
C2513 C2514 1.386 . S
C2513 C2516 1.388 . S
C2514 C2513 1.386 . S
C2514 C2515 1.382 . S
C2514 H2540 0.950 . S
C2515 N2512 1.332 1_565 S
C2515 C2514 1.382 . S
C2515 H2526 0.952 . S
C2516 C2513 1.388 . S
C2516 C2517 1.382 1_565 S
C2516 H2541 0.957 . S
C2517 N2512 1.332 . S
C2517 C2516 1.382 1_545 S
C2517 H2527 0.948 . S
N2518 Co2496 2.282 . S
N2518 C2522 1.332 . S
N2518 C2523 1.332 . S
C2519 C2520 1.388 . S
C2519 C2523 1.382 . S
C2519 H2542 0.950 . S
C2520 C2519 1.388 . S
C2520 C2521 1.386 . S
C2521 C2520 1.386 . S
C2521 C2522 1.382 . S
C2521 H2543 0.950 . S
C2522 N2518 1.332 . S
C2522 C2521 1.382 . S
C2522 H2524 0.952 . S
C2523 N2518 1.332 . S
C2523 C2519 1.382 . S
C2523 H2525 0.948 . S
H2524 C2522 0.952 . S
H2525 C2523 0.948 . S
H2526 C2515 0.952 . S
H2527 C2517 0.948 . S
C2528 C2494 1.395 . S
C2528 C2498 1.391 . S
C2529 C2491 1.389 1_565 S
C2529 C2511 1.392 . S
C2530 C2501 1.392 . S
C2530 C2503 1.389 . S
C2531 C2506 1.395 . S
C2531 C2508 1.391 . S
H2532 C2492 0.951 1_565 S
H2533 C2493 0.950 . S
H2534 C2499 0.949 . S
H2535 C2500 0.950 . S
H2536 C2504 0.951 . S
H2537 C2505 0.950 . S
H2538 C2509 0.949 . S
H2539 C2510 0.950 . S
H2540 C2514 0.950 . S
H2541 C2516 0.957 . S
H2542 C2519 0.950 . S
H2543 C2521 0.950 . S
H2544 C2550 0.930 . S
H2545 C2554 0.930 . S
H2546 C2559 0.929 . S
H2547 C2557 0.929 . S
H2548 C2552 0.929 . S
H2549 C2558 0.929 . S
C2550 H2544 0.930 . S
C2550 C2551 1.367 . S
C2550 C2558 1.378 . S
C2551 C2550 1.367 . S
C2551 C2559 1.433 . S
C2552 H2548 0.929 . S
C2552 C2554 1.378 . S
C2552 C2556 1.350 . S
C2553 C2556 1.463 . S
C2553 C2558 1.350 . S
C2553 N2561 1.427 . S
C2554 H2545 0.930 . S
C2554 C2552 1.378 . S
C2554 C2555 1.367 . S
C2555 C2554 1.367 . S
C2555 C2557 1.433 . S
C2556 C2552 1.350 . S
C2556 C2553 1.463 . S
C2556 N2560 1.427 . S
C2557 H2547 0.929 . S
C2557 C2555 1.433 . S
C2557 N2560 1.384 . S
C2558 H2549 0.929 . S
C2558 C2550 1.378 . S
C2558 C2553 1.350 . S
C2559 H2546 0.929 . S
C2559 C2551 1.433 . S
C2559 N2561 1.384 . S
N2560 C2556 1.427 . S
N2560 C2557 1.384 . S
N2561 C2553 1.427 . S
N2561 C2559 1.384 . S
H2562 C2568 0.930 . S
H2563 C2572 0.930 . S
H2564 C2577 0.929 . S
H2565 C2575 0.929 . S
H2566 C2570 0.929 . S
H2567 C2576 0.929 . S
C2568 H2562 0.930 . S
C2568 C2569 1.367 . S
C2568 C2576 1.378 . S
C2569 C2568 1.367 . S
C2569 C2577 1.433 . S
C2570 H2566 0.929 . S
C2570 C2572 1.378 . S
C2570 C2574 1.350 . S
C2571 C2574 1.463 . S
C2571 C2576 1.350 . S
C2571 N2579 1.427 . S
C2572 H2563 0.930 . S
C2572 C2570 1.378 . S
C2572 C2573 1.367 . S
C2573 C2572 1.367 . S
C2573 C2575 1.433 . S
C2574 C2570 1.350 . S
C2574 C2571 1.463 . S
C2574 N2578 1.427 . S
C2575 H2565 0.929 . S
C2575 C2573 1.433 . S
C2575 N2578 1.384 . S
C2576 H2567 0.929 . S
C2576 C2568 1.378 . S
C2576 C2571 1.350 . S
C2577 H2564 0.929 . S
C2577 C2569 1.433 . S
C2577 N2579 1.384 . S
N2578 C2574 1.427 . S
N2578 C2575 1.384 . S
N2579 C2571 1.427 . S
N2579 C2577 1.384 . S
H2580 C2586 0.930 . S
H2581 C2590 0.930 . S
H2582 C2595 0.929 . S
H2583 C2593 0.929 . S
H2584 C2588 0.929 . S
H2585 C2594 0.929 . S
C2586 H2580 0.930 . S
C2586 C2587 1.367 1_556 S
C2586 C2594 1.378 . S
C2587 C2586 1.367 1_554 S
C2587 C2595 1.433 . S
C2588 H2584 0.929 . S
C2588 C2590 1.378 . S
C2588 C2592 1.350 . S
C2589 C2592 1.463 . S
C2589 C2594 1.350 . S
C2589 N2597 1.427 1_556 S
C2590 H2581 0.930 . S
C2590 C2588 1.378 . S
C2590 C2591 1.367 . S
C2591 C2590 1.367 . S
C2591 C2593 1.433 . S
C2592 C2588 1.350 . S
C2592 C2589 1.463 . S
C2592 N2596 1.427 . S
C2593 H2583 0.929 . S
C2593 C2591 1.433 . S
C2593 N2596 1.384 . S
C2594 H2585 0.929 . S
C2594 C2586 1.378 . S
C2594 C2589 1.350 . S
C2595 H2582 0.929 . S
C2595 C2587 1.433 . S
C2595 N2597 1.384 . S
N2596 C2592 1.427 . S
N2596 C2593 1.384 . S
N2597 C2589 1.427 1_554 S
N2597 C2595 1.384 . S
H2598 C2604 0.930 . S
H2599 C2608 0.930 . S
H2600 C2613 0.929 . S
H2601 C2611 0.929 . S
H2602 C2606 0.929 . S
H2603 C2612 0.929 . S
C2604 H2598 0.930 . S
C2604 C2605 1.367 . S
C2604 C2612 1.378 . S
C2605 C2604 1.367 . S
C2605 C2613 1.433 . S
C2606 H2602 0.929 . S
C2606 C2608 1.378 . S
C2606 C2610 1.350 . S
C2607 C2610 1.463 . S
C2607 C2612 1.350 . S
C2607 N2615 1.427 . S
C2608 H2599 0.930 . S
C2608 C2606 1.378 . S
C2608 C2609 1.367 . S
C2609 C2608 1.367 . S
C2609 C2611 1.433 . S
C2610 C2606 1.350 . S
C2610 C2607 1.463 . S
C2610 N2614 1.427 . S
C2611 H2601 0.929 . S
C2611 C2609 1.433 . S
C2611 N2614 1.384 . S
C2612 H2603 0.929 . S
C2612 C2604 1.378 . S
C2612 C2607 1.350 . S
C2613 H2600 0.929 . S
C2613 C2605 1.433 . S
C2613 N2615 1.384 . S
N2614 C2610 1.427 . S
N2614 C2611 1.384 . S
N2615 C2607 1.427 . S
N2615 C2613 1.384 . S
H2616 C2622 0.930 . S
H2617 C2626 0.930 . S
H2618 C2631 0.929 . S
H2619 C2629 0.929 . S
H2620 C2624 0.929 . S
H2621 C2630 0.929 . S
C2622 H2616 0.930 . S
C2622 C2623 1.367 . S
C2622 C2630 1.378 . S
C2623 C2622 1.367 . S
C2623 C2631 1.433 . S
C2624 H2620 0.929 . S
C2624 C2626 1.378 . S
C2624 C2628 1.350 . S
C2625 C2628 1.463 . S
C2625 C2630 1.350 . S
C2625 N2633 1.427 . S
C2626 H2617 0.930 . S
C2626 C2624 1.378 . S
C2626 C2627 1.367 1_554 S
C2627 C2626 1.367 1_556 S
C2627 C2629 1.433 . S
C2628 C2624 1.350 . S
C2628 C2625 1.463 . S
C2628 N2632 1.427 1_554 S
C2629 H2619 0.929 . S
C2629 C2627 1.433 . S
C2629 N2632 1.384 . S
C2630 H2621 0.929 . S
C2630 C2622 1.378 . S
C2630 C2625 1.350 . S
C2631 H2618 0.929 . S
C2631 C2623 1.433 . S
C2631 N2633 1.384 . S
N2632 C2628 1.427 1_556 S
N2632 C2629 1.384 . S
N2633 C2625 1.427 . S
N2633 C2631 1.384 . S
H2634 C2640 0.930 . S
H2635 C2644 0.930 . S
H2636 C2649 0.929 . S
H2637 C2647 0.929 . S
H2638 C2642 0.929 . S
H2639 C2648 0.929 . S
C2640 H2634 0.930 . S
C2640 C2641 1.367 . S
C2640 C2648 1.378 . S
C2641 C2640 1.367 . S
C2641 C2649 1.433 . S
C2642 H2638 0.929 . S
C2642 C2644 1.378 . S
C2642 C2646 1.350 . S
C2643 C2646 1.463 . S
C2643 C2648 1.350 . S
C2643 N2651 1.427 . S
C2644 H2635 0.930 . S
C2644 C2642 1.378 . S
C2644 C2645 1.367 . S
C2645 C2644 1.367 . S
C2645 C2647 1.433 . S
C2646 C2642 1.350 . S
C2646 C2643 1.463 . S
C2646 N2650 1.427 . S
C2647 H2637 0.929 . S
C2647 C2645 1.433 . S
C2647 N2650 1.384 . S
C2648 H2639 0.929 . S
C2648 C2640 1.378 . S
C2648 C2643 1.350 . S
C2649 H2636 0.929 . S
C2649 C2641 1.433 . S
C2649 N2651 1.384 . S
N2650 C2646 1.427 . S
N2650 C2647 1.384 . S
N2651 C2643 1.427 . S
N2651 C2649 1.384 . S
H2652 C2658 0.930 . S
H2653 C2662 0.930 . S
H2654 C2667 0.929 . S
H2655 C2665 0.929 . S
H2656 C2660 0.929 . S
H2657 C2666 0.929 . S
C2658 H2652 0.930 . S
C2658 C2659 1.367 . S
C2658 C2666 1.378 . S
C2659 C2658 1.367 . S
C2659 C2667 1.433 . S
C2660 H2656 0.929 . S
C2660 C2662 1.378 . S
C2660 C2664 1.350 . S
C2661 C2664 1.463 . S
C2661 C2666 1.350 . S
C2661 N2669 1.427 . S
C2662 H2653 0.930 . S
C2662 C2660 1.378 . S
C2662 C2663 1.367 . S
C2663 C2662 1.367 . S
C2663 C2665 1.433 . S
C2664 C2660 1.350 . S
C2664 C2661 1.463 . S
C2664 N2668 1.427 . S
C2665 H2655 0.929 . S
C2665 C2663 1.433 . S
C2665 N2668 1.384 . S
C2666 H2657 0.929 . S
C2666 C2658 1.378 . S
C2666 C2661 1.350 . S
C2667 H2654 0.929 . S
C2667 C2659 1.433 . S
C2667 N2669 1.384 . S
N2668 C2664 1.427 . S
N2668 C2665 1.384 . S
N2669 C2661 1.427 . S
N2669 C2667 1.384 . S
H2670 C2676 0.930 . S
H2671 C2680 0.930 . S
H2672 C2685 0.929 . S
H2673 C2683 0.929 . S
H2674 C2678 0.929 . S
H2675 C2684 0.929 . S
C2676 H2670 0.930 . S
C2676 C2677 1.367 . S
C2676 C2684 1.378 . S
C2677 C2676 1.367 . S
C2677 C2685 1.433 . S
C2678 H2674 0.929 . S
C2678 C2680 1.378 . S
C2678 C2682 1.350 . S
C2679 C2682 1.463 . S
C2679 C2684 1.350 . S
C2679 N2687 1.427 . S
C2680 H2671 0.930 . S
C2680 C2678 1.378 . S
C2680 C2681 1.367 . S
C2681 C2680 1.367 . S
C2681 C2683 1.433 . S
C2682 C2678 1.350 . S
C2682 C2679 1.463 . S
C2682 N2686 1.427 . S
C2683 H2673 0.929 . S
C2683 C2681 1.433 . S
C2683 N2686 1.384 . S
C2684 H2675 0.929 . S
C2684 C2676 1.378 . S
C2684 C2679 1.350 . S
C2685 H2672 0.929 . S
C2685 C2677 1.433 . S
C2685 N2687 1.384 . S
N2686 C2682 1.427 . S
N2686 C2683 1.384 . S
N2687 C2679 1.427 . S
N2687 C2685 1.384 . S
H2688 C2694 0.930 . S
H2689 C2698 0.930 . S
H2690 C2703 0.929 . S
H2691 C2701 0.929 . S
H2692 C2696 0.929 . S
H2693 C2702 0.929 . S
C2694 H2688 0.930 . S
C2694 C2695 1.367 . S
C2694 C2702 1.378 . S
C2695 C2694 1.367 . S
C2695 C2703 1.433 . S
C2696 H2692 0.929 . S
C2696 C2698 1.378 . S
C2696 C2700 1.350 . S
C2697 C2700 1.463 . S
C2697 C2702 1.350 . S
C2697 N2705 1.427 . S
C2698 H2689 0.930 . S
C2698 C2696 1.378 . S
C2698 C2699 1.367 . S
C2699 C2698 1.367 . S
C2699 C2701 1.433 . S
C2700 C2696 1.350 . S
C2700 C2697 1.463 . S
C2700 N2704 1.427 . S
C2701 H2691 0.929 . S
C2701 C2699 1.433 . S
C2701 N2704 1.384 . S
C2702 H2693 0.929 . S
C2702 C2694 1.378 . S
C2702 C2697 1.350 . S
C2703 H2690 0.929 . S
C2703 C2695 1.433 . S
C2703 N2705 1.384 . S
N2704 C2700 1.427 . S
N2704 C2701 1.384 . S
N2705 C2697 1.427 . S
N2705 C2703 1.384 . S
H2706 C2712 0.930 . S
H2707 C2716 0.930 . S
H2708 C2721 0.929 . S
H2709 C2719 0.929 . S
H2710 C2714 0.929 . S
H2711 C2720 0.929 . S
C2712 H2706 0.930 . S
C2712 C2713 1.367 . S
C2712 C2720 1.378 . S
C2713 C2712 1.367 . S
C2713 C2721 1.433 . S
C2714 H2710 0.929 . S
C2714 C2716 1.378 . S
C2714 C2718 1.350 . S
C2715 C2718 1.463 . S
C2715 C2720 1.350 . S
C2715 N2723 1.427 . S
C2716 H2707 0.930 . S
C2716 C2714 1.378 . S
C2716 C2717 1.367 . S
C2717 C2716 1.367 . S
C2717 C2719 1.433 . S
C2718 C2714 1.350 . S
C2718 C2715 1.463 . S
C2718 N2722 1.427 . S
C2719 H2709 0.929 . S
C2719 C2717 1.433 . S
C2719 N2722 1.384 . S
C2720 H2711 0.929 . S
C2720 C2712 1.378 . S
C2720 C2715 1.350 . S
C2721 H2708 0.929 . S
C2721 C2713 1.433 . S
C2721 N2723 1.384 . S
N2722 C2718 1.427 . S
N2722 C2719 1.384 . S
N2723 C2715 1.427 . S
N2723 C2721 1.384 . S
H2724 C2730 0.930 . S
H2725 C2734 0.930 . S
H2726 C2739 0.929 . S
H2727 C2737 0.929 . S
H2728 C2732 0.929 . S
H2729 C2738 0.929 . S
C2730 H2724 0.930 . S
C2730 C2731 1.367 . S
C2730 C2738 1.378 . S
C2731 C2730 1.367 . S
C2731 C2739 1.433 . S
C2732 H2728 0.929 . S
C2732 C2734 1.378 . S
C2732 C2736 1.350 . S
C2733 C2736 1.463 . S
C2733 C2738 1.350 . S
C2733 N2741 1.427 . S
C2734 H2725 0.930 . S
C2734 C2732 1.378 . S
C2734 C2735 1.367 . S
C2735 C2734 1.367 . S
C2735 C2737 1.433 . S
C2736 C2732 1.350 . S
C2736 C2733 1.463 . S
C2736 N2740 1.427 . S
C2737 H2727 0.929 . S
C2737 C2735 1.433 . S
C2737 N2740 1.384 . S
C2738 H2729 0.929 . S
C2738 C2730 1.378 . S
C2738 C2733 1.350 . S
C2739 H2726 0.929 . S
C2739 C2731 1.433 . S
C2739 N2741 1.384 . S
N2740 C2736 1.427 . S
N2740 C2737 1.384 . S
N2741 C2733 1.427 . S
N2741 C2739 1.384 . S
H2742 C2748 0.930 . S
H2743 C2752 0.930 . S
H2744 C2757 0.929 . S
H2745 C2755 0.929 . S
H2746 C2750 0.929 . S
H2747 C2756 0.929 . S
C2748 H2742 0.930 . S
C2748 C2749 1.367 . S
C2748 C2756 1.378 . S
C2749 C2748 1.367 . S
C2749 C2757 1.433 . S
C2750 H2746 0.929 . S
C2750 C2752 1.378 . S
C2750 C2754 1.350 . S
C2751 C2754 1.463 . S
C2751 C2756 1.350 . S
C2751 N2759 1.427 . S
C2752 H2743 0.930 . S
C2752 C2750 1.378 . S
C2752 C2753 1.367 . S
C2753 C2752 1.367 . S
C2753 C2755 1.433 . S
C2754 C2750 1.350 . S
C2754 C2751 1.463 . S
C2754 N2758 1.427 . S
C2755 H2745 0.929 . S
C2755 C2753 1.433 . S
C2755 N2758 1.384 . S
C2756 H2747 0.929 . S
C2756 C2748 1.378 . S
C2756 C2751 1.350 . S
C2757 H2744 0.929 . S
C2757 C2749 1.433 . S
C2757 N2759 1.384 . S
N2758 C2754 1.427 . S
N2758 C2755 1.384 . S
N2759 C2751 1.427 . S
N2759 C2757 1.384 . S
H2760 C2766 0.930 . S
H2761 C2770 0.930 . S
H2762 C2775 0.929 . S
H2763 C2773 0.929 . S
H2764 C2768 0.929 . S
H2765 C2774 0.929 . S
C2766 H2760 0.930 . S
C2766 C2767 1.367 . S
C2766 C2774 1.378 . S
C2767 C2766 1.367 . S
C2767 C2775 1.433 . S
C2768 H2764 0.929 . S
C2768 C2770 1.378 . S
C2768 C2772 1.350 . S
C2769 C2772 1.463 . S
C2769 C2774 1.350 . S
C2769 N2777 1.427 . S
C2770 H2761 0.930 . S
C2770 C2768 1.378 . S
C2770 C2771 1.367 . S
C2771 C2770 1.367 . S
C2771 C2773 1.433 . S
C2772 C2768 1.350 . S
C2772 C2769 1.463 . S
C2772 N2776 1.427 . S
C2773 H2763 0.929 . S
C2773 C2771 1.433 . S
C2773 N2776 1.384 . S
C2774 H2765 0.929 . S
C2774 C2766 1.378 . S
C2774 C2769 1.350 . S
C2775 H2762 0.929 . S
C2775 C2767 1.433 . S
C2775 N2777 1.384 . S
N2776 C2772 1.427 . S
N2776 C2773 1.384 . S
N2777 C2769 1.427 . S
N2777 C2775 1.384 . S
H2778 C2784 0.930 . S
H2779 C2788 0.930 . S
H2780 C2793 0.929 . S
H2781 C2791 0.929 . S
H2782 C2786 0.929 . S
H2783 C2792 0.929 . S
C2784 H2778 0.930 . S
C2784 C2785 1.367 . S
C2784 C2792 1.378 . S
C2785 C2784 1.367 . S
C2785 C2793 1.433 . S
C2786 H2782 0.929 . S
C2786 C2788 1.378 . S
C2786 C2790 1.350 . S
C2787 C2790 1.463 . S
C2787 C2792 1.350 . S
C2787 N2795 1.427 . S
C2788 H2779 0.930 . S
C2788 C2786 1.378 . S
C2788 C2789 1.367 . S
C2789 C2788 1.367 . S
C2789 C2791 1.433 . S
C2790 C2786 1.350 . S
C2790 C2787 1.463 . S
C2790 N2794 1.427 . S
C2791 H2781 0.929 . S
C2791 C2789 1.433 . S
C2791 N2794 1.384 . S
C2792 H2783 0.929 . S
C2792 C2784 1.378 . S
C2792 C2787 1.350 . S
C2793 H2780 0.929 . S
C2793 C2785 1.433 . S
C2793 N2795 1.384 . S
N2794 C2790 1.427 . S
N2794 C2791 1.384 . S
N2795 C2787 1.427 . S
N2795 C2793 1.384 . S
H2796 C2802 0.930 . S
H2797 C2806 0.930 . S
H2798 C2811 0.929 . S
H2799 C2809 0.929 . S
H2800 C2804 0.929 . S
H2801 C2810 0.929 . S
C2802 H2796 0.930 . S
C2802 C2803 1.367 . S
C2802 C2810 1.378 . S
C2803 C2802 1.367 . S
C2803 C2811 1.433 . S
C2804 H2800 0.929 . S
C2804 C2806 1.378 . S
C2804 C2808 1.350 . S
C2805 C2808 1.463 . S
C2805 C2810 1.350 . S
C2805 N2813 1.427 . S
C2806 H2797 0.930 . S
C2806 C2804 1.378 . S
C2806 C2807 1.367 . S
C2807 C2806 1.367 . S
C2807 C2809 1.433 . S
C2808 C2804 1.350 . S
C2808 C2805 1.463 . S
C2808 N2812 1.427 . S
C2809 H2799 0.929 . S
C2809 C2807 1.433 . S
C2809 N2812 1.384 . S
C2810 H2801 0.929 . S
C2810 C2802 1.378 . S
C2810 C2805 1.350 . S
C2811 H2798 0.929 . S
C2811 C2803 1.433 . S
C2811 N2813 1.384 . S
N2812 C2808 1.427 . S
N2812 C2809 1.384 . S
N2813 C2805 1.427 . S
N2813 C2811 1.384 . S
H2814 C2820 0.930 . S
H2815 C2824 0.930 . S
H2816 C2829 0.929 . S
H2817 C2827 0.929 . S
H2818 C2822 0.929 . S
H2819 C2828 0.929 . S
C2820 H2814 0.930 . S
C2820 C2821 1.367 . S
C2820 C2828 1.378 1_554 S
C2821 C2820 1.367 . S
C2821 C2829 1.433 . S
C2822 H2818 0.929 . S
C2822 C2824 1.378 . S
C2822 C2826 1.350 . S
C2823 C2826 1.463 . S
C2823 C2828 1.350 . S
C2823 N2831 1.427 . S
C2824 H2815 0.930 . S
C2824 C2822 1.378 . S
C2824 C2825 1.367 . S
C2825 C2824 1.367 . S
C2825 C2827 1.433 . S
C2826 C2822 1.350 . S
C2826 C2823 1.463 . S
C2826 N2830 1.427 . S
C2827 H2817 0.929 . S
C2827 C2825 1.433 . S
C2827 N2830 1.384 . S
C2828 H2819 0.929 . S
C2828 C2820 1.378 1_556 S
C2828 C2823 1.350 . S
C2829 H2816 0.929 . S
C2829 C2821 1.433 . S
C2829 N2831 1.384 1_554 S
N2830 C2826 1.427 . S
N2830 C2827 1.384 . S
N2831 C2823 1.427 . S
N2831 C2829 1.384 1_556 S
H2832 C2838 0.930 . S
H2833 C2842 0.930 . S
H2834 C2847 0.929 . S
H2835 C2845 0.929 . S
H2836 C2840 0.929 . S
H2837 C2846 0.929 . S
C2838 H2832 0.930 . S
C2838 C2839 1.367 . S
C2838 C2846 1.378 . S
C2839 C2838 1.367 . S
C2839 C2847 1.433 . S
C2840 H2836 0.929 . S
C2840 C2842 1.378 . S
C2840 C2844 1.350 . S
C2841 C2844 1.463 . S
C2841 C2846 1.350 . S
C2841 N2849 1.427 . S
C2842 H2833 0.930 . S
C2842 C2840 1.378 . S
C2842 C2843 1.367 . S
C2843 C2842 1.367 . S
C2843 C2845 1.433 . S
C2844 C2840 1.350 . S
C2844 C2841 1.463 . S
C2844 N2848 1.427 . S
C2845 H2835 0.929 . S
C2845 C2843 1.433 . S
C2845 N2848 1.384 . S
C2846 H2837 0.929 . S
C2846 C2838 1.378 . S
C2846 C2841 1.350 . S
C2847 H2834 0.929 . S
C2847 C2839 1.433 . S
C2847 N2849 1.384 . S
N2848 C2844 1.427 . S
N2848 C2845 1.384 . S
N2849 C2841 1.427 . S
N2849 C2847 1.384 . S
H2850 C2856 0.930 . S
H2851 C2860 0.930 . S
H2852 C2865 0.929 . S
H2853 C2863 0.929 . S
H2854 C2858 0.929 . S
H2855 C2864 0.929 . S
C2856 H2850 0.930 . S
C2856 C2857 1.367 . S
C2856 C2864 1.378 . S
C2857 C2856 1.367 . S
C2857 C2865 1.433 . S
C2858 H2854 0.929 . S
C2858 C2860 1.378 . S
C2858 C2862 1.350 . S
C2859 C2862 1.463 . S
C2859 C2864 1.350 . S
C2859 N2867 1.427 . S
C2860 H2851 0.930 . S
C2860 C2858 1.378 . S
C2860 C2861 1.367 . S
C2861 C2860 1.367 . S
C2861 C2863 1.433 . S
C2862 C2858 1.350 . S
C2862 C2859 1.463 . S
C2862 N2866 1.427 . S
C2863 H2853 0.929 . S
C2863 C2861 1.433 . S
C2863 N2866 1.384 . S
C2864 H2855 0.929 . S
C2864 C2856 1.378 . S
C2864 C2859 1.350 . S
C2865 H2852 0.929 . S
C2865 C2857 1.433 . S
C2865 N2867 1.384 . S
N2866 C2862 1.427 . S
N2866 C2863 1.384 . S
N2867 C2859 1.427 . S
N2867 C2865 1.384 . S
H2868 C2874 0.930 . S
H2869 C2878 0.930 . S
H2870 C2883 0.929 . S
H2871 C2881 0.929 . S
H2872 C2876 0.929 . S
H2873 C2882 0.929 . S
C2874 H2868 0.930 . S
C2874 C2875 1.367 . S
C2874 C2882 1.378 . S
C2875 C2874 1.367 . S
C2875 C2883 1.433 . S
C2876 H2872 0.929 . S
C2876 C2878 1.378 . S
C2876 C2880 1.350 . S
C2877 C2880 1.463 . S
C2877 C2882 1.350 . S
C2877 N2885 1.427 . S
C2878 H2869 0.930 . S
C2878 C2876 1.378 . S
C2878 C2879 1.367 . S
C2879 C2878 1.367 . S
C2879 C2881 1.433 . S
C2880 C2876 1.350 . S
C2880 C2877 1.463 . S
C2880 N2884 1.427 . S
C2881 H2871 0.929 . S
C2881 C2879 1.433 . S
C2881 N2884 1.384 . S
C2882 H2873 0.929 . S
C2882 C2874 1.378 . S
C2882 C2877 1.350 . S
C2883 H2870 0.929 . S
C2883 C2875 1.433 . S
C2883 N2885 1.384 . S
N2884 C2880 1.427 . S
N2884 C2881 1.384 . S
N2885 C2877 1.427 . S
N2885 C2883 1.384 . S
H2886 C2892 0.930 . S
H2887 C2896 0.930 . S
H2888 C2901 0.929 . S
H2889 C2899 0.929 . S
H2890 C2894 0.929 . S
H2891 C2900 0.929 . S
C2892 H2886 0.930 . S
C2892 C2893 1.367 . S
C2892 C2900 1.378 . S
C2893 C2892 1.367 . S
C2893 C2901 1.433 . S
C2894 H2890 0.929 . S
C2894 C2896 1.378 . S
C2894 C2898 1.350 . S
C2895 C2898 1.463 . S
C2895 C2900 1.350 . S
C2895 N2903 1.427 . S
C2896 H2887 0.930 . S
C2896 C2894 1.378 . S
C2896 C2897 1.367 . S
C2897 C2896 1.367 . S
C2897 C2899 1.433 . S
C2898 C2894 1.350 . S
C2898 C2895 1.463 . S
C2898 N2902 1.427 . S
C2899 H2889 0.929 . S
C2899 C2897 1.433 . S
C2899 N2902 1.384 . S
C2900 H2891 0.929 . S
C2900 C2892 1.378 . S
C2900 C2895 1.350 . S
C2901 H2888 0.929 . S
C2901 C2893 1.433 . S
C2901 N2903 1.384 . S
N2902 C2898 1.427 . S
N2902 C2899 1.384 . S
N2903 C2895 1.427 . S
N2903 C2901 1.384 . S
H2904 C2910 0.930 . S
H2905 C2914 0.930 . S
H2906 C2919 0.929 . S
H2907 C2917 0.929 . S
H2908 C2912 0.929 . S
H2909 C2918 0.929 . S
C2910 H2904 0.930 . S
C2910 C2911 1.367 . S
C2910 C2918 1.378 . S
C2911 C2910 1.367 . S
C2911 C2919 1.433 . S
C2912 H2908 0.929 . S
C2912 C2914 1.378 . S
C2912 C2916 1.350 . S
C2913 C2916 1.463 . S
C2913 C2918 1.350 . S
C2913 N2921 1.427 . S
C2914 H2905 0.930 . S
C2914 C2912 1.378 . S
C2914 C2915 1.367 . S
C2915 C2914 1.367 . S
C2915 C2917 1.433 . S
C2916 C2912 1.350 . S
C2916 C2913 1.463 . S
C2916 N2920 1.427 . S
C2917 H2907 0.929 . S
C2917 C2915 1.433 . S
C2917 N2920 1.384 . S
C2918 H2909 0.929 . S
C2918 C2910 1.378 . S
C2918 C2913 1.350 . S
C2919 H2906 0.929 . S
C2919 C2911 1.433 . S
C2919 N2921 1.384 . S
N2920 C2916 1.427 . S
N2920 C2917 1.384 . S
N2921 C2913 1.427 . S
N2921 C2919 1.384 . S
H2922 C2928 0.930 . S
H2923 C2932 0.930 . S
H2924 C2937 0.929 . S
H2925 C2935 0.929 . S
H2926 C2930 0.929 . S
H2927 C2936 0.929 . S
C2928 H2922 0.930 . S
C2928 C2929 1.367 . S
C2928 C2936 1.378 . S
C2929 C2928 1.367 . S
C2929 C2937 1.433 . S
C2930 H2926 0.929 . S
C2930 C2932 1.378 . S
C2930 C2934 1.350 1_556 S
C2931 C2934 1.463 . S
C2931 C2936 1.350 . S
C2931 N2939 1.427 . S
C2932 H2923 0.930 . S
C2932 C2930 1.378 . S
C2932 C2933 1.367 . S
C2933 C2932 1.367 . S
C2933 C2935 1.433 1_556 S
C2934 C2930 1.350 1_554 S
C2934 C2931 1.463 . S
C2934 N2938 1.427 . S
C2935 H2925 0.929 . S
C2935 C2933 1.433 1_554 S
C2935 N2938 1.384 . S
C2936 H2927 0.929 . S
C2936 C2928 1.378 . S
C2936 C2931 1.350 . S
C2937 H2924 0.929 . S
C2937 C2929 1.433 . S
C2937 N2939 1.384 . S
N2938 C2934 1.427 . S
N2938 C2935 1.384 . S
N2939 C2931 1.427 . S
N2939 C2937 1.384 . S
H2940 C2946 0.930 . S
H2941 C2950 0.930 . S
H2942 C2955 0.929 . S
H2943 C2953 0.929 . S
H2944 C2948 0.929 . S
H2945 C2954 0.929 . S
C2946 H2940 0.930 . S
C2946 C2947 1.367 . S
C2946 C2954 1.378 . S
C2947 C2946 1.367 . S
C2947 C2955 1.433 . S
C2948 H2944 0.929 . S
C2948 C2950 1.378 . S
C2948 C2952 1.350 . S
C2949 C2952 1.463 . S
C2949 C2954 1.350 . S
C2949 N2957 1.427 . S
C2950 H2941 0.930 . S
C2950 C2948 1.378 . S
C2950 C2951 1.367 . S
C2951 C2950 1.367 . S
C2951 C2953 1.433 . S
C2952 C2948 1.350 . S
C2952 C2949 1.463 . S
C2952 N2956 1.427 . S
C2953 H2943 0.929 . S
C2953 C2951 1.433 . S
C2953 N2956 1.384 . S
C2954 H2945 0.929 . S
C2954 C2946 1.378 . S
C2954 C2949 1.350 . S
C2955 H2942 0.929 . S
C2955 C2947 1.433 . S
C2955 N2957 1.384 . S
N2956 C2952 1.427 . S
N2956 C2953 1.384 . S
N2957 C2949 1.427 . S
N2957 C2955 1.384 . S
H2958 C2964 0.930 . S
H2959 C2968 0.930 . S
H2960 C2973 0.929 . S
H2961 C2971 0.929 . S
H2962 C2966 0.929 . S
H2963 C2972 0.929 . S
C2964 H2958 0.930 . S
C2964 C2965 1.367 . S
C2964 C2972 1.378 . S
C2965 C2964 1.367 . S
C2965 C2973 1.433 . S
C2966 H2962 0.929 . S
C2966 C2968 1.378 . S
C2966 C2970 1.350 . S
C2967 C2970 1.463 . S
C2967 C2972 1.350 . S
C2967 N2975 1.427 . S
C2968 H2959 0.930 . S
C2968 C2966 1.378 . S
C2968 C2969 1.367 . S
C2969 C2968 1.367 . S
C2969 C2971 1.433 . S
C2970 C2966 1.350 . S
C2970 C2967 1.463 . S
C2970 N2974 1.427 . S
C2971 H2961 0.929 . S
C2971 C2969 1.433 . S
C2971 N2974 1.384 . S
C2972 H2963 0.929 . S
C2972 C2964 1.378 . S
C2972 C2967 1.350 . S
C2973 H2960 0.929 . S
C2973 C2965 1.433 . S
C2973 N2975 1.384 . S
N2974 C2970 1.427 . S
N2974 C2971 1.384 . S
N2975 C2967 1.427 . S
N2975 C2973 1.384 . S
H2976 C2982 0.930 . S
H2977 C2986 0.930 . S
H2978 C2991 0.929 . S
H2979 C2989 0.929 . S
H2980 C2984 0.929 . S
H2981 C2990 0.929 . S
C2982 H2976 0.930 . S
C2982 C2983 1.367 . S
C2982 C2990 1.378 . S
C2983 C2982 1.367 . S
C2983 C2991 1.433 . S
C2984 H2980 0.929 . S
C2984 C2986 1.378 . S
C2984 C2988 1.350 . S
C2985 C2988 1.463 . S
C2985 C2990 1.350 . S
C2985 N2993 1.427 . S
C2986 H2977 0.930 . S
C2986 C2984 1.378 . S
C2986 C2987 1.367 . S
C2987 C2986 1.367 . S
C2987 C2989 1.433 . S
C2988 C2984 1.350 . S
C2988 C2985 1.463 . S
C2988 N2992 1.427 . S
C2989 H2979 0.929 . S
C2989 C2987 1.433 . S
C2989 N2992 1.384 . S
C2990 H2981 0.929 . S
C2990 C2982 1.378 . S
C2990 C2985 1.350 . S
C2991 H2978 0.929 . S
C2991 C2983 1.433 . S
C2991 N2993 1.384 . S
N2992 C2988 1.427 . S
N2992 C2989 1.384 . S
N2993 C2985 1.427 . S
N2993 C2991 1.384 . S
H2994 C3000 0.930 . S
H2995 C3004 0.930 . S
H2996 C3009 0.929 . S
H2997 C3007 0.929 . S
H2998 C3002 0.929 . S
H2999 C3008 0.929 . S
C3000 H2994 0.930 . S
C3000 C3001 1.367 . S
C3000 C3008 1.378 . S
C3001 C3000 1.367 . S
C3001 C3009 1.433 . S
C3002 H2998 0.929 . S
C3002 C3004 1.378 . S
C3002 C3006 1.350 . S
C3003 C3006 1.463 . S
C3003 C3008 1.350 . S
C3003 N3011 1.427 . S
C3004 H2995 0.930 . S
C3004 C3002 1.378 . S
C3004 C3005 1.367 . S
C3005 C3004 1.367 . S
C3005 C3007 1.433 . S
C3006 C3002 1.350 . S
C3006 C3003 1.463 . S
C3006 N3010 1.427 . S
C3007 H2997 0.929 . S
C3007 C3005 1.433 . S
C3007 N3010 1.384 . S
C3008 H2999 0.929 . S
C3008 C3000 1.378 . S
C3008 C3003 1.350 . S
C3009 H2996 0.929 . S
C3009 C3001 1.433 . S
C3009 N3011 1.384 . S
N3010 C3006 1.427 . S
N3010 C3007 1.384 . S
N3011 C3003 1.427 . S
N3011 C3009 1.384 . S
H3012 C3018 0.930 . S
H3013 C3022 0.930 . S
H3014 C3027 0.929 . S
H3015 C3025 0.929 . S
H3016 C3020 0.929 . S
H3017 C3026 0.929 . S
C3018 H3012 0.930 . S
C3018 C3019 1.367 . S
C3018 C3026 1.378 . S
C3019 C3018 1.367 . S
C3019 C3027 1.433 . S
C3020 H3016 0.929 . S
C3020 C3022 1.378 . S
C3020 C3024 1.350 . S
C3021 C3024 1.463 . S
C3021 C3026 1.350 . S
C3021 N3029 1.427 . S
C3022 H3013 0.930 . S
C3022 C3020 1.378 . S
C3022 C3023 1.367 . S
C3023 C3022 1.367 . S
C3023 C3025 1.433 . S
C3024 C3020 1.350 . S
C3024 C3021 1.463 . S
C3024 N3028 1.427 . S
C3025 H3015 0.929 . S
C3025 C3023 1.433 . S
C3025 N3028 1.384 . S
C3026 H3017 0.929 . S
C3026 C3018 1.378 . S
C3026 C3021 1.350 . S
C3027 H3014 0.929 . S
C3027 C3019 1.433 . S
C3027 N3029 1.384 . S
N3028 C3024 1.427 . S
N3028 C3025 1.384 . S
N3029 C3021 1.427 . S
N3029 C3027 1.384 . S
H3030 C3036 0.930 . S
H3031 C3040 0.930 . S
H3032 C3045 0.929 . S
H3033 C3043 0.929 . S
H3034 C3038 0.929 . S
H3035 C3044 0.929 . S
C3036 H3030 0.930 . S
C3036 C3037 1.367 1_554 S
C3036 C3044 1.378 . S
C3037 C3036 1.367 1_556 S
C3037 C3045 1.433 . S
C3038 H3034 0.929 . S
C3038 C3040 1.378 . S
C3038 C3042 1.350 . S
C3039 C3042 1.463 . S
C3039 C3044 1.350 . S
C3039 N3047 1.403 1_554 S
C3040 H3031 0.930 . S
C3040 C3038 1.378 . S
C3040 C3041 1.367 . S
C3041 C3040 1.367 . S
C3041 C3043 1.433 . S
C3042 C3038 1.350 . S
C3042 C3039 1.463 . S
C3042 N3046 1.427 . S
C3043 H3033 0.929 . S
C3043 C3041 1.433 . S
C3043 N3046 1.384 . S
C3044 H3035 0.929 . S
C3044 C3036 1.378 . S
C3044 C3039 1.350 . S
C3045 H3032 0.929 . S
C3045 C3037 1.433 . S
C3045 N3047 1.407 . S
N3046 C3042 1.427 . S
N3046 C3043 1.384 . S
N3047 C3039 1.403 1_556 S
N3047 C3045 1.407 . S
H3048 C3054 0.930 . S
H3049 C3058 0.930 . S
H3050 C3063 0.929 . S
H3051 C3061 0.929 . S
H3052 C3056 0.929 . S
H3053 C3062 0.929 . S
C3054 H3048 0.930 . S
C3054 C3055 1.367 . S
C3054 C3062 1.378 . S
C3055 C3054 1.367 . S
C3055 C3063 1.433 . S
C3056 H3052 0.929 . S
C3056 C3058 1.378 . S
C3056 C3060 1.350 . S
C3057 C3060 1.463 . S
C3057 C3062 1.350 . S
C3057 N3065 1.427 . S
C3058 H3049 0.930 . S
C3058 C3056 1.378 . S
C3058 C3059 1.367 . S
C3059 C3058 1.367 . S
C3059 C3061 1.433 . S
C3060 C3056 1.350 . S
C3060 C3057 1.463 . S
C3060 N3064 1.427 . S
C3061 H3051 0.929 . S
C3061 C3059 1.433 . S
C3061 N3064 1.384 . S
C3062 H3053 0.929 . S
C3062 C3054 1.378 . S
C3062 C3057 1.350 . S
C3063 H3050 0.929 . S
C3063 C3055 1.433 . S
C3063 N3065 1.384 . S
N3064 C3060 1.427 . S
N3064 C3061 1.384 . S
N3065 C3057 1.427 . S
N3065 C3063 1.384 . S
H3066 C3072 0.930 . S
H3067 C3076 0.930 . S
H3068 C3081 0.929 1_545 S
H3069 C3079 0.929 . S
H3070 C3074 0.929 . S
H3071 C3080 0.929 . S
C3072 H3066 0.930 . S
C3072 C3073 1.367 . S
C3072 C3080 1.378 . S
C3073 C3072 1.367 . S
C3073 C3081 1.433 . S
C3074 H3070 0.929 . S
C3074 C3076 1.378 . S
C3074 C3078 1.350 . S
C3075 C3078 1.463 . S
C3075 C3080 1.350 . S
C3075 N3083 1.427 . S
C3076 H3067 0.930 . S
C3076 C3074 1.378 . S
C3076 C3077 1.367 . S
C3077 C3076 1.367 . S
C3077 C3079 1.433 . S
C3078 C3074 1.350 . S
C3078 C3075 1.463 . S
C3078 N3082 1.427 . S
C3079 H3069 0.929 . S
C3079 C3077 1.433 . S
C3079 N3082 1.384 . S
C3080 H3071 0.929 . S
C3080 C3072 1.378 . S
C3080 C3075 1.350 . S
C3081 H3068 0.929 1_565 S
C3081 C3073 1.433 . S
C3081 N3083 1.384 . S
N3082 C3078 1.427 . S
N3082 C3079 1.384 . S
N3083 C3075 1.427 . S
N3083 C3081 1.384 . S
H3084 C3090 0.930 . S
H3085 C3094 0.930 . S
H3086 C3099 0.929 . S
H3087 C3097 0.929 . S
H3088 C3092 0.929 . S
H3089 C3098 0.929 . S
C3090 H3084 0.930 . S
C3090 C3091 1.367 . S
C3090 C3098 1.378 . S
C3091 C3090 1.367 . S
C3091 C3099 1.433 . S
C3092 H3088 0.929 . S
C3092 C3094 1.378 . S
C3092 C3096 1.350 . S
C3093 C3096 1.463 . S
C3093 C3098 1.350 . S
C3093 N3101 1.427 . S
C3094 H3085 0.930 . S
C3094 C3092 1.378 . S
C3094 C3095 1.367 . S
C3095 C3094 1.367 . S
C3095 C3097 1.433 . S
C3096 C3092 1.350 . S
C3096 C3093 1.463 . S
C3096 N3100 1.427 . S
C3097 H3087 0.929 . S
C3097 C3095 1.433 . S
C3097 N3100 1.384 . S
C3098 H3089 0.929 . S
C3098 C3090 1.378 . S
C3098 C3093 1.350 . S
C3099 H3086 0.929 . S
C3099 C3091 1.433 . S
C3099 N3101 1.384 . S
N3100 C3096 1.427 . S
N3100 C3097 1.384 . S
N3101 C3093 1.427 . S
N3101 C3099 1.384 . S
H3102 C3108 0.930 1_565 S
H3103 C3112 0.930 . S
H3104 C3117 0.929 . S
H3105 C3115 0.929 . S
H3106 C3110 0.929 . S
H3107 C3116 0.929 . S
C3108 H3102 0.930 1_545 S
C3108 C3109 1.367 1_556 S
C3108 C3116 1.378 . S
C3109 C3108 1.367 1_554 S
C3109 C3117 1.433 . S
C3110 H3106 0.929 . S
C3110 C3112 1.378 . S
C3110 C3114 1.350 . S
C3111 C3114 1.463 . S
C3111 C3116 1.350 . S
C3111 N3119 1.402 1_556 S
C3112 H3103 0.930 . S
C3112 C3110 1.378 . S
C3112 C3113 1.367 . S
C3113 C3112 1.367 . S
C3113 C3115 1.433 . S
C3114 C3110 1.350 . S
C3114 C3111 1.463 . S
C3114 N3118 1.427 . S
C3115 H3105 0.929 . S
C3115 C3113 1.433 . S
C3115 N3118 1.384 . S
C3116 H3107 0.929 . S
C3116 C3108 1.378 . S
C3116 C3111 1.350 . S
C3117 H3104 0.929 . S
C3117 C3109 1.433 . S
C3117 N3119 1.409 . S
N3118 C3114 1.427 . S
N3118 C3115 1.384 . S
N3119 C3111 1.402 1_554 S
N3119 C3117 1.409 . S
H3120 C3126 0.930 . S
H3121 C3130 0.930 . S
H3122 C3135 0.929 . S
H3123 C3133 0.929 . S
H3124 C3128 0.929 . S
H3125 C3134 0.929 . S
C3126 H3120 0.930 . S
C3126 C3127 1.367 . S
C3126 C3134 1.378 . S
C3127 C3126 1.367 . S
C3127 C3135 1.433 . S
C3128 H3124 0.929 . S
C3128 C3130 1.378 . S
C3128 C3132 1.350 . S
C3129 C3132 1.463 . S
C3129 C3134 1.350 . S
C3129 N3137 1.427 . S
C3130 H3121 0.930 . S
C3130 C3128 1.378 . S
C3130 C3131 1.367 . S
C3131 C3130 1.367 . S
C3131 C3133 1.433 . S
C3132 C3128 1.350 . S
C3132 C3129 1.463 . S
C3132 N3136 1.427 . S
C3133 H3123 0.929 . S
C3133 C3131 1.433 . S
C3133 N3136 1.384 . S
C3134 H3125 0.929 . S
C3134 C3126 1.378 . S
C3134 C3129 1.350 . S
C3135 H3122 0.929 . S
C3135 C3127 1.433 . S
C3135 N3137 1.384 . S
N3136 C3132 1.427 . S
N3136 C3133 1.384 . S
N3137 C3129 1.427 . S
N3137 C3135 1.384 . S
H3138 C3144 0.930 . S
H3139 C3148 0.930 . S
H3140 C3153 0.929 . S
H3141 C3151 0.929 . S
H3142 C3146 0.929 . S
H3143 C3152 0.929 . S
C3144 H3138 0.930 . S
C3144 C3145 1.367 . S
C3144 C3152 1.378 1_565 S
C3145 C3144 1.367 . S
C3145 C3153 1.433 . S
C3146 H3142 0.929 . S
C3146 C3148 1.378 . S
C3146 C3150 1.350 . S
C3147 C3150 1.463 . S
C3147 C3152 1.350 . S
C3147 N3155 1.427 . S
C3148 H3139 0.930 . S
C3148 C3146 1.378 . S
C3148 C3149 1.367 . S
C3149 C3148 1.367 . S
C3149 C3151 1.433 . S
C3150 C3146 1.350 . S
C3150 C3147 1.463 . S
C3150 N3154 1.427 . S
C3151 H3141 0.929 . S
C3151 C3149 1.433 . S
C3151 N3154 1.384 . S
C3152 H3143 0.929 . S
C3152 C3144 1.378 1_545 S
C3152 C3147 1.350 . S
C3153 H3140 0.929 . S
C3153 C3145 1.433 . S
C3153 N3155 1.384 1_565 S
N3154 C3150 1.427 . S
N3154 C3151 1.384 . S
N3155 C3147 1.427 . S
N3155 C3153 1.384 1_545 S
H3156 C3162 0.930 . S
H3157 C3166 0.930 . S
H3158 C3171 0.929 . S
H3159 C3169 0.929 . S
H3160 C3164 0.929 . S
H3161 C3170 0.929 . S
C3162 H3156 0.930 . S
C3162 C3163 1.367 . S
C3162 C3170 1.378 . S
C3163 C3162 1.367 . S
C3163 C3171 1.433 . S
C3164 H3160 0.929 . S
C3164 C3166 1.378 . S
C3164 C3168 1.350 . S
C3165 C3168 1.463 . S
C3165 C3170 1.350 . S
C3165 N3173 1.427 . S
C3166 H3157 0.930 . S
C3166 C3164 1.378 . S
C3166 C3167 1.367 . S
C3167 C3166 1.367 . S
C3167 C3169 1.433 . S
C3168 C3164 1.350 . S
C3168 C3165 1.463 . S
C3168 N3172 1.427 . S
C3169 H3159 0.929 . S
C3169 C3167 1.433 . S
C3169 N3172 1.384 . S
C3170 H3161 0.929 . S
C3170 C3162 1.378 . S
C3170 C3165 1.350 . S
C3171 H3158 0.929 . S
C3171 C3163 1.433 . S
C3171 N3173 1.384 . S
N3172 C3168 1.427 . S
N3172 C3169 1.384 . S
N3173 C3165 1.427 . S
N3173 C3171 1.384 . S
H3174 C3180 0.930 . S
H3175 C3184 0.930 . S
H3176 C3189 0.929 . S
H3177 C3187 0.929 . S
H3178 C3182 0.929 . S
H3179 C3188 0.929 . S
C3180 H3174 0.930 . S
C3180 C3181 1.367 . S
C3180 C3188 1.378 1_545 S
C3181 C3180 1.367 . S
C3181 C3189 1.433 . S
C3182 H3178 0.929 . S
C3182 C3184 1.378 . S
C3182 C3186 1.350 . S
C3183 C3186 1.463 . S
C3183 C3188 1.350 . S
C3183 N3191 1.427 . S
C3184 H3175 0.930 . S
C3184 C3182 1.378 . S
C3184 C3185 1.367 . S
C3185 C3184 1.367 . S
C3185 C3187 1.433 . S
C3186 C3182 1.350 . S
C3186 C3183 1.463 . S
C3186 N3190 1.427 . S
C3187 H3177 0.929 . S
C3187 C3185 1.433 . S
C3187 N3190 1.384 . S
C3188 H3179 0.929 . S
C3188 C3180 1.378 1_565 S
C3188 C3183 1.350 . S
C3189 H3176 0.929 . S
C3189 C3181 1.433 . S
C3189 N3191 1.384 1_545 S
N3190 C3186 1.427 . S
N3190 C3187 1.384 . S
N3191 C3183 1.427 . S
N3191 C3189 1.384 1_565 S
H3192 C3198 0.930 . S
H3193 C3202 0.930 . S
H3194 C3207 0.929 . S
H3195 C3205 0.929 . S
H3196 C3200 0.929 . S
H3197 C3206 0.929 . S
C3198 H3192 0.930 . S
C3198 C3199 1.367 . S
C3198 C3206 1.378 . S
C3199 C3198 1.367 . S
C3199 C3207 1.433 . S
C3200 H3196 0.929 . S
C3200 C3202 1.378 . S
C3200 C3204 1.350 . S
C3201 C3204 1.463 . S
C3201 C3206 1.350 . S
C3201 N3209 1.427 . S
C3202 H3193 0.930 . S
C3202 C3200 1.378 . S
C3202 C3203 1.367 . S
C3203 C3202 1.367 . S
C3203 C3205 1.433 . S
C3204 C3200 1.350 . S
C3204 C3201 1.463 . S
C3204 N3208 1.427 . S
C3205 H3195 0.929 . S
C3205 C3203 1.433 . S
C3205 N3208 1.384 . S
C3206 H3197 0.929 . S
C3206 C3198 1.378 . S
C3206 C3201 1.350 . S
C3207 H3194 0.929 . S
C3207 C3199 1.433 . S
C3207 N3209 1.384 . S
N3208 C3204 1.427 . S
N3208 C3205 1.384 . S
N3209 C3201 1.427 . S
N3209 C3207 1.384 . S
H3210 C3216 0.930 . S
H3211 C3220 0.930 . S
H3212 C3225 0.929 . S
H3213 C3223 0.929 . S
H3214 C3218 0.929 . S
H3215 C3224 0.929 . S
C3216 H3210 0.930 . S
C3216 C3217 1.367 . S
C3216 C3224 1.378 1_565 S
C3217 C3216 1.367 . S
C3217 C3225 1.433 . S
C3218 H3214 0.929 . S
C3218 C3220 1.378 . S
C3218 C3222 1.350 . S
C3219 C3222 1.463 . S
C3219 C3224 1.350 . S
C3219 N3227 1.427 . S
C3220 H3211 0.930 . S
C3220 C3218 1.378 . S
C3220 C3221 1.367 . S
C3221 C3220 1.367 . S
C3221 C3223 1.433 . S
C3222 C3218 1.350 . S
C3222 C3219 1.463 . S
C3222 N3226 1.427 . S
C3223 H3213 0.929 . S
C3223 C3221 1.433 . S
C3223 N3226 1.384 . S
C3224 H3215 0.929 . S
C3224 C3216 1.378 1_545 S
C3224 C3219 1.350 . S
C3225 H3212 0.929 . S
C3225 C3217 1.433 . S
C3225 N3227 1.384 1_565 S
N3226 C3222 1.427 . S
N3226 C3223 1.384 . S
N3227 C3219 1.427 . S
N3227 C3225 1.384 1_545 S
H3228 C3234 0.930 . S
H3229 C3238 0.930 . S
H3230 C3243 0.929 . S
H3231 C3241 0.929 . S
H3232 C3236 0.929 . S
H3233 C3242 0.929 . S
C3234 H3228 0.930 . S
C3234 C3235 1.367 . S
C3234 C3242 1.378 . S
C3235 C3234 1.367 . S
C3235 C3243 1.433 . S
C3236 H3232 0.929 . S
C3236 C3238 1.378 . S
C3236 C3240 1.350 . S
C3237 C3240 1.463 . S
C3237 C3242 1.350 . S
C3237 N3245 1.427 . S
C3238 H3229 0.930 . S
C3238 C3236 1.378 . S
C3238 C3239 1.367 . S
C3239 C3238 1.367 . S
C3239 C3241 1.433 . S
C3240 C3236 1.350 . S
C3240 C3237 1.463 . S
C3240 N3244 1.427 . S
C3241 H3231 0.929 . S
C3241 C3239 1.433 . S
C3241 N3244 1.384 . S
C3242 H3233 0.929 . S
C3242 C3234 1.378 . S
C3242 C3237 1.350 . S
C3243 H3230 0.929 . S
C3243 C3235 1.433 . S
C3243 N3245 1.384 . S
N3244 C3240 1.427 . S
N3244 C3241 1.384 . S
N3245 C3237 1.427 . S
N3245 C3243 1.384 . S
H3246 C3252 0.930 . S
H3247 C3256 0.930 . S
H3248 C3261 0.929 . S
H3249 C3259 0.929 . S
H3250 C3254 0.929 . S
H3251 C3260 0.929 . S
C3252 H3246 0.930 . S
C3252 C3253 1.367 . S
C3252 C3260 1.378 . S
C3253 C3252 1.367 . S
C3253 C3261 1.433 . S
C3254 H3250 0.929 . S
C3254 C3256 1.378 1_565 S
C3254 C3258 1.350 . S
C3255 C3258 1.463 . S
C3255 C3260 1.350 . S
C3255 N3263 1.427 . S
C3256 H3247 0.930 . S
C3256 C3254 1.378 1_545 S
C3256 C3257 1.367 . S
C3257 C3256 1.367 . S
C3257 C3259 1.433 . S
C3258 C3254 1.350 . S
C3258 C3255 1.463 . S
C3258 N3262 1.427 . S
C3259 H3249 0.929 . S
C3259 C3257 1.433 . S
C3259 N3262 1.384 1_545 S
C3260 H3251 0.929 . S
C3260 C3252 1.378 . S
C3260 C3255 1.350 . S
C3261 H3248 0.929 . S
C3261 C3253 1.433 . S
C3261 N3263 1.384 . S
N3262 C3258 1.427 . S
N3262 C3259 1.384 1_565 S
N3263 C3255 1.427 . S
N3263 C3261 1.384 . S
H3264 C3270 0.930 . S
H3265 C3274 0.930 . S
H3266 C3279 0.929 . S
H3267 C3277 0.929 . S
H3268 C3272 0.929 . S
H3269 C3278 0.929 . S
C3270 H3264 0.930 . S
C3270 C3271 1.367 . S
C3270 C3278 1.378 . S
C3271 C3270 1.367 . S
C3271 C3279 1.433 . S
C3272 H3268 0.929 . S
C3272 C3274 1.378 . S
C3272 C3276 1.350 . S
C3273 C3276 1.463 . S
C3273 C3278 1.350 . S
C3273 N3281 1.427 . S
C3274 H3265 0.930 . S
C3274 C3272 1.378 . S
C3274 C3275 1.367 . S
C3275 C3274 1.367 . S
C3275 C3277 1.433 . S
C3276 C3272 1.350 . S
C3276 C3273 1.463 . S
C3276 N3280 1.427 . S
C3277 H3267 0.929 . S
C3277 C3275 1.433 . S
C3277 N3280 1.384 . S
C3278 H3269 0.929 . S
C3278 C3270 1.378 . S
C3278 C3273 1.350 . S
C3279 H3266 0.929 . S
C3279 C3271 1.433 . S
C3279 N3281 1.384 . S
N3280 C3276 1.427 . S
N3280 C3277 1.384 . S
N3281 C3273 1.427 . S
N3281 C3279 1.384 . S
H3282 C3288 0.930 . S
H3283 C3292 0.930 . S
H3284 C3297 0.929 . S
H3285 C3295 0.929 . S
H3286 C3290 0.929 . S
H3287 C3296 0.929 . S
C3288 H3282 0.930 . S
C3288 C3289 1.367 . S
C3288 C3296 1.378 . S
C3289 C3288 1.367 . S
C3289 C3297 1.433 . S
C3290 H3286 0.929 . S
C3290 C3292 1.378 . S
C3290 C3294 1.350 . S
C3291 C3294 1.463 . S
C3291 C3296 1.350 . S
C3291 N3299 1.427 . S
C3292 H3283 0.930 . S
C3292 C3290 1.378 . S
C3292 C3293 1.367 . S
C3293 C3292 1.367 . S
C3293 C3295 1.433 . S
C3294 C3290 1.350 . S
C3294 C3291 1.463 . S
C3294 N3298 1.427 . S
C3295 H3285 0.929 . S
C3295 C3293 1.433 . S
C3295 N3298 1.384 . S
C3296 H3287 0.929 . S
C3296 C3288 1.378 . S
C3296 C3291 1.350 . S
C3297 H3284 0.929 . S
C3297 C3289 1.433 . S
C3297 N3299 1.384 . S
N3298 C3294 1.427 . S
N3298 C3295 1.384 . S
N3299 C3291 1.427 . S
N3299 C3297 1.384 . S
H3300 C3306 0.930 . S
H3301 C3310 0.930 . S
H3302 C3315 0.929 1_554 S
H3303 C3313 0.929 . S
H3304 C3308 0.929 . S
H3305 C3314 0.929 . S
C3306 H3300 0.930 . S
C3306 C3307 1.367 . S
C3306 C3314 1.378 1_655 S
C3307 C3306 1.367 . S
C3307 C3315 1.433 . S
C3308 H3304 0.929 . S
C3308 C3310 1.378 . S
C3308 C3312 1.322 1_554 S
C3309 C3312 1.474 . S
C3309 C3314 1.350 . S
C3309 N3317 1.427 1_456 S
C3310 H3301 0.930 . S
C3310 C3308 1.378 . S
C3310 C3311 1.367 . S
C3311 C3310 1.367 . S
C3311 C3313 1.433 1_554 S
C3312 C3308 1.322 1_556 S
C3312 C3309 1.474 . S
C3312 N3316 1.447 . S
C3313 H3303 0.929 . S
C3313 C3311 1.433 1_556 S
C3313 N3316 1.384 . S
C3314 H3305 0.929 . S
C3314 C3306 1.378 1_455 S
C3314 C3309 1.350 . S
C3315 H3302 0.929 1_556 S
C3315 C3307 1.433 . S
C3315 N3317 1.384 1_556 S
N3316 C3312 1.447 . S
N3316 C3313 1.384 . S
N3317 C3309 1.427 1_654 S
N3317 C3315 1.384 1_554 S
H3318 C3324 0.930 . S
H3319 C3328 0.930 . S
H3320 C3333 0.929 . S
H3321 C3331 0.929 . S
H3322 C3326 0.929 . S
H3323 C3332 0.929 . S
C3324 H3318 0.930 . S
C3324 C3325 1.367 . S
C3324 C3332 1.378 . S
C3325 C3324 1.367 . S
C3325 C3333 1.433 . S
C3326 H3322 0.929 . S
C3326 C3328 1.378 . S
C3326 C3330 1.350 . S
C3327 C3330 1.463 . S
C3327 C3332 1.350 . S
C3327 N3335 1.427 . S
C3328 H3319 0.930 . S
C3328 C3326 1.378 . S
C3328 C3329 1.367 . S
C3329 C3328 1.367 . S
C3329 C3331 1.433 . S
C3330 C3326 1.350 . S
C3330 C3327 1.463 . S
C3330 N3334 1.427 . S
C3331 H3321 0.929 . S
C3331 C3329 1.433 . S
C3331 N3334 1.384 . S
C3332 H3323 0.929 . S
C3332 C3324 1.378 . S
C3332 C3327 1.350 . S
C3333 H3320 0.929 . S
C3333 C3325 1.433 . S
C3333 N3335 1.384 . S
N3334 C3330 1.427 . S
N3334 C3331 1.384 . S
N3335 C3327 1.427 . S
N3335 C3333 1.384 . S
H3336 C3342 0.930 . S
H3337 C3346 0.930 . S
H3338 C3351 0.929 . S
H3339 C3349 0.939 . S
H3340 C3344 0.929 . S
H3341 C3350 0.929 . S
C3342 H3336 0.930 . S
C3342 C3343 1.367 . S
C3342 C3350 1.378 1_455 S
C3343 C3342 1.367 . S
C3343 C3351 1.433 . S
C3344 H3340 0.929 . S
C3344 C3346 1.378 . S
C3344 C3348 1.322 1_554 S
C3345 C3348 1.479 . S
C3345 C3350 1.350 . S
C3345 N3353 1.427 1_655 S
C3346 H3337 0.930 . S
C3346 C3344 1.378 . S
C3346 C3347 1.367 . S
C3347 C3346 1.367 . S
C3347 C3349 1.413 1_554 S
C3348 C3344 1.322 1_556 S
C3348 C3345 1.479 . S
C3348 N3352 1.442 . S
C3349 H3339 0.939 . S
C3349 C3347 1.413 1_556 S
C3349 N3352 1.395 . S
C3350 H3341 0.929 . S
C3350 C3342 1.378 1_655 S
C3350 C3345 1.350 . S
C3351 H3338 0.929 . S
C3351 C3343 1.433 . S
C3351 N3353 1.384 . S
N3352 C3348 1.442 . S
N3352 C3349 1.395 . S
N3353 C3345 1.427 1_455 S
N3353 C3351 1.384 . S
H3354 C3360 0.930 . S
H3355 C3364 0.930 . S
H3356 C3369 0.929 . S
H3357 C3367 0.929 . S
H3358 C3362 0.929 . S
H3359 C3368 0.929 . S
C3360 H3354 0.930 . S
C3360 C3361 1.367 . S
C3360 C3368 1.378 . S
C3361 C3360 1.367 . S
C3361 C3369 1.433 . S
C3362 H3358 0.929 . S
C3362 C3364 1.378 . S
C3362 C3366 1.350 . S
C3363 C3366 1.463 . S
C3363 C3368 1.350 . S
C3363 N3371 1.427 . S
C3364 H3355 0.930 . S
C3364 C3362 1.378 . S
C3364 C3365 1.367 . S
C3365 C3364 1.367 . S
C3365 C3367 1.433 . S
C3366 C3362 1.350 . S
C3366 C3363 1.463 . S
C3366 N3370 1.427 . S
C3367 H3357 0.929 . S
C3367 C3365 1.433 . S
C3367 N3370 1.384 . S
C3368 H3359 0.929 . S
C3368 C3360 1.378 . S
C3368 C3363 1.350 . S
C3369 H3356 0.929 . S
C3369 C3361 1.433 . S
C3369 N3371 1.384 . S
N3370 C3366 1.427 . S
N3370 C3367 1.384 . S
N3371 C3363 1.427 . S
N3371 C3369 1.384 . S
H3372 C3378 0.930 . S
H3373 C3382 0.930 . S
H3374 C3387 0.929 . S
H3375 C3385 0.929 . S
H3376 C3380 0.929 . S
H3377 C3386 0.930 . S
C3378 H3372 0.930 . S
C3378 C3379 1.367 . S
C3378 C3386 1.375 1_655 S
C3379 C3378 1.367 . S
C3379 C3387 1.433 . S
C3380 H3376 0.929 . S
C3380 C3382 1.378 . S
C3380 C3384 1.350 . S
C3381 C3384 1.463 . S
C3381 C3386 1.351 . S
C3381 N3389 1.427 1_455 S
C3382 H3373 0.930 . S
C3382 C3380 1.378 . S
C3382 C3383 1.367 . S
C3383 C3382 1.367 . S
C3383 C3385 1.433 . S
C3384 C3380 1.350 . S
C3384 C3381 1.463 . S
C3384 N3388 1.427 . S
C3385 H3375 0.929 . S
C3385 C3383 1.433 . S
C3385 N3388 1.384 . S
C3386 H3377 0.930 . S
C3386 C3378 1.375 1_455 S
C3386 C3381 1.351 . S
C3387 H3374 0.929 . S
C3387 C3379 1.433 . S
C3387 N3389 1.384 . S
N3388 C3384 1.427 . S
N3388 C3385 1.384 . S
N3389 C3381 1.427 1_655 S
N3389 C3387 1.384 . S
H3390 C3396 0.930 . S
H3391 C3400 0.961 . S
H3392 C3405 0.929 . S
H3393 C3403 0.929 . S
H3394 C3398 0.931 . S
H3395 C3404 0.929 . S
C3396 H3390 0.930 . S
C3396 C3397 1.367 1_554 S
C3396 C3404 1.378 . S
C3397 C3396 1.367 1_556 S
C3397 C3405 1.433 . S
C3398 H3394 0.931 . S
C3398 C3400 1.377 1_556 S
C3398 C3402 1.349 1_556 S
C3399 C3402 1.463 . S
C3399 C3404 1.350 . S
C3399 N3407 1.427 1_554 S
C3400 H3391 0.961 . S
C3400 C3398 1.377 1_554 S
C3400 C3401 1.367 . S
C3401 C3400 1.367 . S
C3401 C3403 1.433 . S
C3402 C3398 1.349 1_554 S
C3402 C3399 1.463 . S
C3402 N3406 1.427 . S
C3403 H3393 0.929 . S
C3403 C3401 1.433 . S
C3403 N3406 1.384 . S
C3404 H3395 0.929 . S
C3404 C3396 1.378 . S
C3404 C3399 1.350 . S
C3405 H3392 0.929 . S
C3405 C3397 1.433 . S
C3405 N3407 1.384 . S
N3406 C3402 1.427 . S
N3406 C3403 1.384 . S
N3407 C3399 1.427 1_556 S
N3407 C3405 1.384 . S
H3408 C3414 0.930 . S
H3409 C3418 0.930 . S
H3410 C3423 0.929 . S
H3411 C3421 0.929 . S
H3412 C3416 0.929 . S
H3413 C3422 0.929 . S
C3414 H3408 0.930 . S
C3414 C3415 1.367 . S
C3414 C3422 1.378 . S
C3415 C3414 1.367 . S
C3415 C3423 1.433 . S
C3416 H3412 0.929 . S
C3416 C3418 1.378 . S
C3416 C3420 1.350 . S
C3417 C3420 1.463 . S
C3417 C3422 1.350 . S
C3417 N3425 1.427 . S
C3418 H3409 0.930 . S
C3418 C3416 1.378 . S
C3418 C3419 1.367 . S
C3419 C3418 1.367 . S
C3419 C3421 1.433 . S
C3420 C3416 1.350 . S
C3420 C3417 1.463 . S
C3420 N3424 1.427 . S
C3421 H3411 0.929 . S
C3421 C3419 1.433 . S
C3421 N3424 1.384 . S
C3422 H3413 0.929 . S
C3422 C3414 1.378 . S
C3422 C3417 1.350 . S
C3423 H3410 0.929 . S
C3423 C3415 1.433 . S
C3423 N3425 1.384 . S
N3424 C3420 1.427 . S
N3424 C3421 1.384 . S
N3425 C3417 1.427 . S
N3425 C3423 1.384 . S
H3426 C3432 0.930 . S
H3427 C3436 0.930 . S
H3428 C3441 0.929 . S
H3429 C3439 0.929 . S
H3430 C3434 0.929 . S
H3431 C3440 0.929 . S
C3432 H3426 0.930 . S
C3432 C3433 1.367 . S
C3432 C3440 1.378 . S
C3433 C3432 1.367 . S
C3433 C3441 1.433 . S
C3434 H3430 0.929 . S
C3434 C3436 1.378 1_554 S
C3434 C3438 1.350 . S
C3435 C3438 1.463 . S
C3435 C3440 1.350 . S
C3435 N3443 1.427 . S
C3436 H3427 0.930 . S
C3436 C3434 1.378 1_556 S
C3436 C3437 1.367 . S
C3437 C3436 1.367 . S
C3437 C3439 1.433 . S
C3438 C3434 1.350 . S
C3438 C3435 1.463 . S
C3438 N3442 1.427 . S
C3439 H3429 0.929 . S
C3439 C3437 1.433 . S
C3439 N3442 1.384 1_556 S
C3440 H3431 0.929 . S
C3440 C3432 1.378 . S
C3440 C3435 1.350 . S
C3441 H3428 0.929 . S
C3441 C3433 1.433 . S
C3441 N3443 1.384 . S
N3442 C3438 1.427 . S
N3442 C3439 1.384 1_554 S
N3443 C3435 1.427 . S
N3443 C3441 1.384 . S
H3444 C3450 0.930 . S
H3445 C3454 0.930 . S
H3446 C3459 0.929 . S
H3447 C3457 0.929 . S
H3448 C3452 0.929 . S
H3449 C3458 0.929 . S
C3450 H3444 0.930 . S
C3450 C3451 1.367 . S
C3450 C3458 1.378 . S
C3451 C3450 1.367 . S
C3451 C3459 1.433 . S
C3452 H3448 0.929 . S
C3452 C3454 1.378 . S
C3452 C3456 1.350 . S
C3453 C3456 1.463 . S
C3453 C3458 1.350 . S
C3453 N3461 1.427 . S
C3454 H3445 0.930 . S
C3454 C3452 1.378 . S
C3454 C3455 1.367 . S
C3455 C3454 1.367 . S
C3455 C3457 1.433 . S
C3456 C3452 1.350 . S
C3456 C3453 1.463 . S
C3456 N3460 1.427 . S
C3457 H3447 0.929 . S
C3457 C3455 1.433 . S
C3457 N3460 1.384 . S
C3458 H3449 0.929 . S
C3458 C3450 1.378 . S
C3458 C3453 1.350 . S
C3459 H3446 0.929 . S
C3459 C3451 1.433 . S
C3459 N3461 1.384 . S
N3460 C3456 1.427 . S
N3460 C3457 1.384 . S
N3461 C3453 1.427 . S
N3461 C3459 1.384 . S
H3462 C3468 0.930 . S
H3463 C3472 0.930 . S
H3464 C3477 0.929 . S
H3465 C3475 0.929 . S
H3466 C3470 0.929 . S
H3467 C3476 0.929 . S
C3468 H3462 0.930 . S
C3468 C3469 1.367 . S
C3468 C3476 1.378 . S
C3469 C3468 1.367 . S
C3469 C3477 1.433 . S
C3470 H3466 0.929 . S
C3470 C3472 1.378 . S
C3470 C3474 1.350 . S
C3471 C3474 1.463 . S
C3471 C3476 1.350 . S
C3471 N3479 1.427 . S
C3472 H3463 0.930 . S
C3472 C3470 1.378 . S
C3472 C3473 1.367 . S
C3473 C3472 1.367 . S
C3473 C3475 1.433 . S
C3474 C3470 1.350 . S
C3474 C3471 1.463 . S
C3474 N3478 1.427 . S
C3475 H3465 0.929 . S
C3475 C3473 1.433 . S
C3475 N3478 1.384 . S
C3476 H3467 0.929 . S
C3476 C3468 1.378 . S
C3476 C3471 1.350 . S
C3477 H3464 0.929 . S
C3477 C3469 1.433 . S
C3477 N3479 1.384 . S
N3478 C3474 1.427 . S
N3478 C3475 1.384 . S
N3479 C3471 1.427 . S
N3479 C3477 1.384 . S
H3480 C3486 0.930 . S
H3481 C3490 0.930 . S
H3482 C3495 0.929 . S
H3483 C3493 0.929 . S
H3484 C3488 0.929 . S
H3485 C3494 0.929 . S
C3486 H3480 0.930 . S
C3486 C3487 1.367 . S
C3486 C3494 1.378 . S
C3487 C3486 1.367 . S
C3487 C3495 1.433 . S
C3488 H3484 0.929 . S
C3488 C3490 1.378 . S
C3488 C3492 1.350 . S
C3489 C3492 1.463 . S
C3489 C3494 1.350 . S
C3489 N3497 1.427 . S
C3490 H3481 0.930 . S
C3490 C3488 1.378 . S
C3490 C3491 1.367 . S
C3491 C3490 1.367 . S
C3491 C3493 1.433 . S
C3492 C3488 1.350 . S
C3492 C3489 1.463 . S
C3492 N3496 1.427 . S
C3493 H3483 0.929 . S
C3493 C3491 1.433 . S
C3493 N3496 1.384 . S
C3494 H3485 0.929 . S
C3494 C3486 1.378 . S
C3494 C3489 1.350 . S
C3495 H3482 0.929 . S
C3495 C3487 1.433 . S
C3495 N3497 1.384 . S
N3496 C3492 1.427 . S
N3496 C3493 1.384 . S
N3497 C3489 1.427 . S
N3497 C3495 1.384 . S
H3498 C3504 0.930 . S
H3499 C3508 0.930 . S
H3500 C3513 0.929 . S
H3501 C3511 0.929 . S
H3502 C3506 0.929 . S
H3503 C3512 0.929 . S
C3504 H3498 0.930 . S
C3504 C3505 1.367 . S
C3504 C3512 1.378 . S
C3505 C3504 1.367 . S
C3505 C3513 1.433 . S
C3506 H3502 0.929 . S
C3506 C3508 1.378 . S
C3506 C3510 1.350 . S
C3507 C3510 1.463 . S
C3507 C3512 1.350 . S
C3507 N3515 1.427 . S
C3508 H3499 0.930 . S
C3508 C3506 1.378 . S
C3508 C3509 1.367 1_556 S
C3509 C3508 1.367 1_554 S
C3509 C3511 1.433 . S
C3510 C3506 1.350 . S
C3510 C3507 1.463 . S
C3510 N3514 1.404 1_556 S
C3511 H3501 0.929 . S
C3511 C3509 1.433 . S
C3511 N3514 1.407 . S
C3512 H3503 0.929 . S
C3512 C3504 1.378 . S
C3512 C3507 1.350 . S
C3513 H3500 0.929 . S
C3513 C3505 1.433 . S
C3513 N3515 1.384 . S
N3514 C3510 1.404 1_554 S
N3514 C3511 1.407 . S
N3515 C3507 1.427 . S
N3515 C3513 1.384 . S
H3516 C3522 0.930 . S
H3517 C3526 0.930 . S
H3518 C3531 0.929 . S
H3519 C3529 0.929 . S
H3520 C3524 0.929 . S
H3521 C3530 0.929 . S
C3522 H3516 0.930 . S
C3522 C3523 1.367 . S
C3522 C3530 1.378 . S
C3523 C3522 1.367 . S
C3523 C3531 1.433 . S
C3524 H3520 0.929 . S
C3524 C3526 1.378 . S
C3524 C3528 1.350 . S
C3525 C3528 1.463 . S
C3525 C3530 1.350 . S
C3525 N3533 1.427 . S
C3526 H3517 0.930 . S
C3526 C3524 1.378 . S
C3526 C3527 1.367 . S
C3527 C3526 1.367 . S
C3527 C3529 1.433 . S
C3528 C3524 1.350 . S
C3528 C3525 1.463 . S
C3528 N3532 1.427 . S
C3529 H3519 0.929 . S
C3529 C3527 1.433 . S
C3529 N3532 1.384 . S
C3530 H3521 0.929 . S
C3530 C3522 1.378 . S
C3530 C3525 1.350 . S
C3531 H3518 0.929 . S
C3531 C3523 1.433 . S
C3531 N3533 1.384 . S
N3532 C3528 1.427 . S
N3532 C3529 1.384 . S
N3533 C3525 1.427 . S
N3533 C3531 1.384 . S
H3534 C3540 0.930 . S
H3535 C3544 0.930 . S
H3536 C3549 0.929 . S
H3537 C3547 0.929 . S
H3538 C3542 0.929 . S
H3539 C3548 0.929 . S
C3540 H3534 0.930 . S
C3540 C3541 1.367 . S
C3540 C3548 1.378 . S
C3541 C3540 1.367 . S
C3541 C3549 1.433 . S
C3542 H3538 0.929 . S
C3542 C3544 1.378 . S
C3542 C3546 1.350 . S
C3543 C3546 1.463 . S
C3543 C3548 1.350 . S
C3543 N3551 1.427 . S
C3544 H3535 0.930 . S
C3544 C3542 1.378 . S
C3544 C3545 1.367 . S
C3545 C3544 1.367 . S
C3545 C3547 1.433 . S
C3546 C3542 1.350 . S
C3546 C3543 1.463 . S
C3546 N3550 1.427 . S
C3547 H3537 0.929 . S
C3547 C3545 1.433 . S
C3547 N3550 1.384 . S
C3548 H3539 0.929 . S
C3548 C3540 1.378 . S
C3548 C3543 1.350 . S
C3549 H3536 0.929 . S
C3549 C3541 1.433 . S
C3549 N3551 1.384 . S
N3550 C3546 1.427 . S
N3550 C3547 1.384 . S
N3551 C3543 1.427 . S
N3551 C3549 1.384 . S
H3552 C3558 0.930 . S
H3553 C3562 0.930 . S
H3554 C3567 0.929 . S
H3555 C3565 0.929 . S
H3556 C3560 0.929 . S
H3557 C3566 0.929 . S
C3558 H3552 0.930 . S
C3558 C3559 1.367 . S
C3558 C3566 1.378 . S
C3559 C3558 1.367 . S
C3559 C3567 1.433 . S
C3560 H3556 0.929 . S
C3560 C3562 1.378 . S
C3560 C3564 1.350 . S
C3561 C3564 1.463 . S
C3561 C3566 1.350 . S
C3561 N3569 1.427 . S
C3562 H3553 0.930 . S
C3562 C3560 1.378 . S
C3562 C3563 1.367 . S
C3563 C3562 1.367 . S
C3563 C3565 1.433 . S
C3564 C3560 1.350 . S
C3564 C3561 1.463 . S
C3564 N3568 1.427 . S
C3565 H3555 0.929 . S
C3565 C3563 1.433 . S
C3565 N3568 1.384 . S
C3566 H3557 0.929 . S
C3566 C3558 1.378 . S
C3566 C3561 1.350 . S
C3567 H3554 0.929 . S
C3567 C3559 1.433 . S
C3567 N3569 1.384 . S
N3568 C3564 1.427 . S
N3568 C3565 1.384 . S
N3569 C3561 1.427 . S
N3569 C3567 1.384 . S
H3570 C3576 0.930 . S
H3571 C3580 0.930 . S
H3572 C3585 0.929 . S
H3573 C3583 0.929 . S
H3574 C3578 0.929 . S
H3575 C3584 0.929 . S
C3576 H3570 0.930 . S
C3576 C3577 1.367 . S
C3576 C3584 1.378 . S
C3577 C3576 1.367 . S
C3577 C3585 1.433 . S
C3578 H3574 0.929 . S
C3578 C3580 1.378 . S
C3578 C3582 1.350 . S
C3579 C3582 1.463 . S
C3579 C3584 1.350 . S
C3579 N3587 1.427 . S
C3580 H3571 0.930 . S
C3580 C3578 1.378 . S
C3580 C3581 1.367 . S
C3581 C3580 1.367 . S
C3581 C3583 1.433 . S
C3582 C3578 1.350 . S
C3582 C3579 1.463 . S
C3582 N3586 1.427 . S
C3583 H3573 0.929 . S
C3583 C3581 1.433 . S
C3583 N3586 1.384 . S
C3584 H3575 0.929 . S
C3584 C3576 1.378 . S
C3584 C3579 1.350 . S
C3585 H3572 0.929 . S
C3585 C3577 1.433 . S
C3585 N3587 1.384 . S
N3586 C3582 1.427 . S
N3586 C3583 1.384 . S
N3587 C3579 1.427 . S
N3587 C3585 1.384 . S
H3588 C3594 0.930 . S
H3589 C3598 0.930 . S
H3590 C3603 0.929 . S
H3591 C3601 0.929 . S
H3592 C3596 0.929 . S
H3593 C3602 0.929 . S
C3594 H3588 0.930 . S
C3594 C3595 1.367 . S
C3594 C3602 1.378 . S
C3595 C3594 1.367 . S
C3595 C3603 1.433 . S
C3596 H3592 0.929 . S
C3596 C3598 1.378 . S
C3596 C3600 1.350 . S
C3597 C3600 1.463 . S
C3597 C3602 1.350 . S
C3597 N3605 1.427 . S
C3598 H3589 0.930 . S
C3598 C3596 1.378 . S
C3598 C3599 1.367 . S
C3599 C3598 1.367 . S
C3599 C3601 1.433 . S
C3600 C3596 1.350 . S
C3600 C3597 1.463 . S
C3600 N3604 1.427 . S
C3601 H3591 0.929 . S
C3601 C3599 1.433 . S
C3601 N3604 1.384 . S
C3602 H3593 0.929 . S
C3602 C3594 1.378 . S
C3602 C3597 1.350 . S
C3603 H3590 0.929 . S
C3603 C3595 1.433 . S
C3603 N3605 1.384 . S
N3604 C3600 1.427 . S
N3604 C3601 1.384 . S
N3605 C3597 1.427 . S
N3605 C3603 1.384 . S
H3606 C3612 0.930 . S
H3607 C3616 0.930 . S
H3608 C3621 0.929 . S
H3609 C3619 0.929 . S
H3610 C3614 0.929 . S
H3611 C3620 0.929 . S
C3612 H3606 0.930 . S
C3612 C3613 1.367 . S
C3612 C3620 1.378 . S
C3613 C3612 1.367 . S
C3613 C3621 1.433 . S
C3614 H3610 0.929 . S
C3614 C3616 1.378 . S
C3614 C3618 1.350 . S
C3615 C3618 1.463 . S
C3615 C3620 1.350 . S
C3615 N3623 1.427 . S
C3616 H3607 0.930 . S
C3616 C3614 1.378 . S
C3616 C3617 1.367 . S
C3617 C3616 1.367 . S
C3617 C3619 1.433 . S
C3618 C3614 1.350 . S
C3618 C3615 1.463 . S
C3618 N3622 1.427 . S
C3619 H3609 0.929 . S
C3619 C3617 1.433 . S
C3619 N3622 1.384 . S
C3620 H3611 0.929 . S
C3620 C3612 1.378 . S
C3620 C3615 1.350 . S
C3621 H3608 0.929 . S
C3621 C3613 1.433 . S
C3621 N3623 1.384 . S
N3622 C3618 1.427 . S
N3622 C3619 1.384 . S
N3623 C3615 1.427 . S
N3623 C3621 1.384 . S
H3624 C3630 0.930 . S
H3625 C3634 0.930 . S
H3626 C3639 0.929 . S
H3627 C3637 0.929 . S
H3628 C3632 0.929 . S
H3629 C3638 0.929 . S
C3630 H3624 0.930 . S
C3630 C3631 1.367 . S
C3630 C3638 1.378 . S
C3631 C3630 1.367 . S
C3631 C3639 1.433 . S
C3632 H3628 0.929 . S
C3632 C3634 1.378 . S
C3632 C3636 1.350 . S
C3633 C3636 1.463 . S
C3633 C3638 1.350 . S
C3633 N3641 1.427 . S
C3634 H3625 0.930 . S
C3634 C3632 1.378 . S
C3634 C3635 1.367 . S
C3635 C3634 1.367 . S
C3635 C3637 1.433 . S
C3636 C3632 1.350 . S
C3636 C3633 1.463 . S
C3636 N3640 1.427 . S
C3637 H3627 0.929 . S
C3637 C3635 1.433 . S
C3637 N3640 1.384 . S
C3638 H3629 0.929 . S
C3638 C3630 1.378 . S
C3638 C3633 1.350 . S
C3639 H3626 0.929 . S
C3639 C3631 1.433 . S
C3639 N3641 1.384 . S
N3640 C3636 1.427 . S
N3640 C3637 1.384 . S
N3641 C3633 1.427 . S
N3641 C3639 1.384 . S
H3642 C3648 0.930 . S
H3643 C3652 0.930 . S
H3644 C3657 0.929 . S
H3645 C3655 0.929 . S
H3646 C3650 0.929 . S
H3647 C3656 0.929 . S
C3648 H3642 0.930 . S
C3648 C3649 1.367 . S
C3648 C3656 1.378 . S
C3649 C3648 1.367 . S
C3649 C3657 1.433 . S
C3650 H3646 0.929 . S
C3650 C3652 1.378 . S
C3650 C3654 1.350 . S
C3651 C3654 1.463 . S
C3651 C3656 1.350 . S
C3651 N3659 1.427 . S
C3652 H3643 0.930 . S
C3652 C3650 1.378 . S
C3652 C3653 1.367 . S
C3653 C3652 1.367 . S
C3653 C3655 1.433 . S
C3654 C3650 1.350 . S
C3654 C3651 1.463 . S
C3654 N3658 1.427 . S
C3655 H3645 0.929 . S
C3655 C3653 1.433 . S
C3655 N3658 1.384 . S
C3656 H3647 0.929 . S
C3656 C3648 1.378 . S
C3656 C3651 1.350 . S
C3657 H3644 0.929 . S
C3657 C3649 1.433 . S
C3657 N3659 1.384 . S
N3658 C3654 1.427 . S
N3658 C3655 1.384 . S
N3659 C3651 1.427 . S
N3659 C3657 1.384 . S
H3660 C3666 0.930 . S
H3661 C3670 0.930 . S
H3662 C3675 0.929 . S
H3663 C3673 0.929 . S
H3664 C3668 0.929 . S
H3665 C3674 0.929 . S
C3666 H3660 0.930 . S
C3666 C3667 1.367 . S
C3666 C3674 1.378 . S
C3667 C3666 1.367 . S
C3667 C3675 1.433 . S
C3668 H3664 0.929 . S
C3668 C3670 1.378 . S
C3668 C3672 1.350 . S
C3669 C3672 1.463 . S
C3669 C3674 1.350 . S
C3669 N3677 1.427 . S
C3670 H3661 0.930 . S
C3670 C3668 1.378 . S
C3670 C3671 1.367 . S
C3671 C3670 1.367 . S
C3671 C3673 1.433 . S
C3672 C3668 1.350 . S
C3672 C3669 1.463 . S
C3672 N3676 1.427 . S
C3673 H3663 0.929 . S
C3673 C3671 1.433 . S
C3673 N3676 1.384 . S
C3674 H3665 0.929 . S
C3674 C3666 1.378 . S
C3674 C3669 1.350 . S
C3675 H3662 0.929 . S
C3675 C3667 1.433 . S
C3675 N3677 1.384 . S
N3676 C3672 1.427 . S
N3676 C3673 1.384 . S
N3677 C3669 1.427 . S
N3677 C3675 1.384 . S
H3678 C3684 0.930 . S
H3679 C3688 0.930 . S
H3680 C3693 0.929 . S
H3681 C3691 0.929 . S
H3682 C3686 0.929 . S
H3683 C3692 0.929 . S
C3684 H3678 0.930 . S
C3684 C3685 1.367 . S
C3684 C3692 1.378 . S
C3685 C3684 1.367 . S
C3685 C3693 1.433 . S
C3686 H3682 0.929 . S
C3686 C3688 1.378 . S
C3686 C3690 1.350 . S
C3687 C3690 1.463 . S
C3687 C3692 1.350 . S
C3687 N3695 1.427 . S
C3688 H3679 0.930 . S
C3688 C3686 1.378 . S
C3688 C3689 1.367 . S
C3689 C3688 1.367 . S
C3689 C3691 1.433 . S
C3690 C3686 1.350 . S
C3690 C3687 1.463 . S
C3690 N3694 1.427 . S
C3691 H3681 0.929 . S
C3691 C3689 1.433 . S
C3691 N3694 1.384 . S
C3692 H3683 0.929 . S
C3692 C3684 1.378 . S
C3692 C3687 1.350 . S
C3693 H3680 0.929 . S
C3693 C3685 1.433 . S
C3693 N3695 1.384 . S
N3694 C3690 1.427 . S
N3694 C3691 1.384 . S
N3695 C3687 1.427 . S
N3695 C3693 1.384 . S
H3696 C3702 0.930 . S
H3697 C3706 0.930 . S
H3698 C3711 0.929 . S
H3699 C3709 0.929 . S
H3700 C3704 0.929 . S
H3701 C3710 0.929 . S
C3702 H3696 0.930 . S
C3702 C3703 1.367 . S
C3702 C3710 1.378 . S
C3703 C3702 1.367 . S
C3703 C3711 1.433 . S
C3704 H3700 0.929 . S
C3704 C3706 1.378 . S
C3704 C3708 1.350 . S
C3705 C3708 1.463 . S
C3705 C3710 1.350 . S
C3705 N3713 1.427 . S
C3706 H3697 0.930 . S
C3706 C3704 1.378 . S
C3706 C3707 1.367 . S
C3707 C3706 1.367 . S
C3707 C3709 1.433 . S
C3708 C3704 1.350 . S
C3708 C3705 1.463 . S
C3708 N3712 1.427 . S
C3709 H3699 0.929 . S
C3709 C3707 1.433 . S
C3709 N3712 1.384 . S
C3710 H3701 0.929 . S
C3710 C3702 1.378 . S
C3710 C3705 1.350 . S
C3711 H3698 0.929 . S
C3711 C3703 1.433 . S
C3711 N3713 1.384 . S
N3712 C3708 1.427 . S
N3712 C3709 1.384 . S
N3713 C3705 1.427 . S
N3713 C3711 1.384 . S
H3714 C3720 0.930 . S
H3715 C3724 0.930 . S
H3716 C3729 0.929 . S
H3717 C3727 0.929 . S
H3718 C3722 0.929 . S
H3719 C3728 0.929 . S
C3720 H3714 0.930 . S
C3720 C3721 1.367 . S
C3720 C3728 1.378 . S
C3721 C3720 1.367 . S
C3721 C3729 1.433 . S
C3722 H3718 0.929 . S
C3722 C3724 1.378 . S
C3722 C3726 1.350 . S
C3723 C3726 1.463 . S
C3723 C3728 1.350 . S
C3723 N3731 1.427 . S
C3724 H3715 0.930 . S
C3724 C3722 1.378 . S
C3724 C3725 1.367 . S
C3725 C3724 1.367 . S
C3725 C3727 1.433 . S
C3726 C3722 1.350 . S
C3726 C3723 1.463 . S
C3726 N3730 1.427 . S
C3727 H3717 0.929 . S
C3727 C3725 1.433 . S
C3727 N3730 1.384 . S
C3728 H3719 0.929 . S
C3728 C3720 1.378 . S
C3728 C3723 1.350 . S
C3729 H3716 0.929 . S
C3729 C3721 1.433 . S
C3729 N3731 1.384 . S
N3730 C3726 1.427 . S
N3730 C3727 1.384 . S
N3731 C3723 1.427 . S
N3731 C3729 1.384 . S
H3732 C3738 0.930 . S
H3733 C3742 0.930 . S
H3734 C3747 0.929 . S
H3735 C3745 0.929 . S
H3736 C3740 0.929 . S
H3737 C3746 0.929 . S
C3738 H3732 0.930 . S
C3738 C3739 1.367 . S
C3738 C3746 1.378 . S
C3739 C3738 1.367 . S
C3739 C3747 1.433 . S
C3740 H3736 0.929 . S
C3740 C3742 1.378 . S
C3740 C3744 1.350 . S
C3741 C3744 1.463 . S
C3741 C3746 1.350 . S
C3741 N3749 1.427 . S
C3742 H3733 0.930 . S
C3742 C3740 1.378 . S
C3742 C3743 1.367 . S
C3743 C3742 1.367 . S
C3743 C3745 1.433 . S
C3744 C3740 1.350 . S
C3744 C3741 1.463 . S
C3744 N3748 1.427 . S
C3745 H3735 0.929 . S
C3745 C3743 1.433 . S
C3745 N3748 1.384 . S
C3746 H3737 0.929 . S
C3746 C3738 1.378 . S
C3746 C3741 1.350 . S
C3747 H3734 0.929 . S
C3747 C3739 1.433 . S
C3747 N3749 1.384 . S
N3748 C3744 1.427 . S
N3748 C3745 1.384 . S
N3749 C3741 1.427 . S
N3749 C3747 1.384 . S
H3750 C3756 0.930 . S
H3751 C3760 0.930 . S
H3752 C3765 0.929 . S
H3753 C3763 0.929 . S
H3754 C3758 0.929 . S
H3755 C3764 0.929 . S
C3756 H3750 0.930 . S
C3756 C3757 1.367 . S
C3756 C3764 1.378 . S
C3757 C3756 1.367 . S
C3757 C3765 1.433 . S
C3758 H3754 0.929 . S
C3758 C3760 1.378 . S
C3758 C3762 1.350 . S
C3759 C3762 1.463 . S
C3759 C3764 1.350 . S
C3759 N3767 1.427 . S
C3760 H3751 0.930 . S
C3760 C3758 1.378 . S
C3760 C3761 1.367 . S
C3761 C3760 1.367 . S
C3761 C3763 1.433 . S
C3762 C3758 1.350 . S
C3762 C3759 1.463 . S
C3762 N3766 1.427 . S
C3763 H3753 0.929 . S
C3763 C3761 1.433 . S
C3763 N3766 1.384 . S
C3764 H3755 0.929 . S
C3764 C3756 1.378 . S
C3764 C3759 1.350 . S
C3765 H3752 0.929 . S
C3765 C3757 1.433 . S
C3765 N3767 1.384 . S
N3766 C3762 1.427 . S
N3766 C3763 1.384 . S
N3767 C3759 1.427 . S
N3767 C3765 1.384 . S
H3768 C3774 0.930 . S
H3769 C3778 0.930 . S
H3770 C3783 0.929 . S
H3771 C3781 0.929 . S
H3772 C3776 0.929 . S
H3773 C3782 0.929 . S
C3774 H3768 0.930 . S
C3774 C3775 1.367 . S
C3774 C3782 1.378 . S
C3775 C3774 1.367 . S
C3775 C3783 1.433 . S
C3776 H3772 0.929 . S
C3776 C3778 1.378 . S
C3776 C3780 1.350 . S
C3777 C3780 1.463 . S
C3777 C3782 1.350 . S
C3777 N3785 1.427 . S
C3778 H3769 0.930 . S
C3778 C3776 1.378 . S
C3778 C3779 1.367 . S
C3779 C3778 1.367 . S
C3779 C3781 1.433 . S
C3780 C3776 1.350 . S
C3780 C3777 1.463 . S
C3780 N3784 1.427 . S
C3781 H3771 0.929 . S
C3781 C3779 1.433 . S
C3781 N3784 1.384 . S
C3782 H3773 0.929 . S
C3782 C3774 1.378 . S
C3782 C3777 1.350 . S
C3783 H3770 0.929 . S
C3783 C3775 1.433 . S
C3783 N3785 1.384 . S
N3784 C3780 1.427 . S
N3784 C3781 1.384 . S
N3785 C3777 1.427 . S
N3785 C3783 1.384 . S
H3786 C3792 0.930 . S
H3787 C3796 0.930 . S
H3788 C3801 0.929 . S
H3789 C3799 0.929 . S
H3790 C3794 0.929 . S
H3791 C3800 0.929 . S
C3792 H3786 0.930 . S
C3792 C3793 1.367 . S
C3792 C3800 1.378 . S
C3793 C3792 1.367 . S
C3793 C3801 1.433 . S
C3794 H3790 0.929 . S
C3794 C3796 1.378 . S
C3794 C3798 1.350 . S
C3795 C3798 1.463 . S
C3795 C3800 1.350 . S
C3795 N3803 1.427 . S
C3796 H3787 0.930 . S
C3796 C3794 1.378 . S
C3796 C3797 1.367 . S
C3797 C3796 1.367 . S
C3797 C3799 1.433 . S
C3798 C3794 1.350 . S
C3798 C3795 1.463 . S
C3798 N3802 1.427 . S
C3799 H3789 0.929 . S
C3799 C3797 1.433 . S
C3799 N3802 1.384 . S
C3800 H3791 0.929 . S
C3800 C3792 1.378 . S
C3800 C3795 1.350 . S
C3801 H3788 0.929 . S
C3801 C3793 1.433 . S
C3801 N3803 1.384 . S
N3802 C3798 1.427 . S
N3802 C3799 1.384 . S
N3803 C3795 1.427 . S
N3803 C3801 1.384 . S
H3804 C3810 0.930 . S
H3805 C3814 0.930 . S
H3806 C3819 0.891 1_556 S
H3807 C3817 0.929 . S
H3808 C3812 0.929 . S
H3809 C3818 0.929 . S
C3810 H3804 0.930 . S
C3810 C3811 1.367 . S
C3810 C3818 1.378 . S
C3811 C3810 1.367 . S
C3811 C3819 1.494 . S
C3812 H3808 0.929 . S
C3812 C3814 1.378 . S
C3812 C3816 1.324 1_556 S
C3813 C3816 1.473 . S
C3813 C3818 1.350 . S
C3813 N3821 1.427 1_554 S
C3814 H3805 0.930 . S
C3814 C3812 1.378 . S
C3814 C3815 1.367 . S
C3815 C3814 1.367 . S
C3815 C3817 1.433 1_556 S
C3816 C3812 1.324 1_554 S
C3816 C3813 1.473 . S
C3816 N3820 1.446 . S
C3817 H3807 0.929 . S
C3817 C3815 1.433 1_554 S
C3817 N3820 1.384 . S
C3818 H3809 0.929 . S
C3818 C3810 1.378 . S
C3818 C3813 1.350 . S
C3819 H3806 0.891 1_554 S
C3819 C3811 1.494 . S
C3819 N3821 1.365 1_554 S
N3820 C3816 1.446 . S
N3820 C3817 1.384 . S
N3821 C3813 1.427 1_556 S
N3821 C3819 1.365 1_556 S
H3822 C3828 0.930 . S
H3823 C3832 0.930 . S
H3824 C3837 0.929 . S
H3825 C3835 0.929 . S
H3826 C3830 0.929 . S
H3827 C3836 0.929 . S
C3828 H3822 0.930 . S
C3828 C3829 1.367 . S
C3828 C3836 1.378 . S
C3829 C3828 1.367 . S
C3829 C3837 1.433 . S
C3830 H3826 0.929 . S
C3830 C3832 1.378 . S
C3830 C3834 1.350 . S
C3831 C3834 1.463 . S
C3831 C3836 1.350 1_655 S
C3831 N3839 1.435 . S
C3832 H3823 0.930 . S
C3832 C3830 1.378 . S
C3832 C3833 1.367 . S
C3833 C3832 1.367 . S
C3833 C3835 1.433 . S
C3834 C3830 1.350 . S
C3834 C3831 1.463 . S
C3834 N3838 1.427 . S
C3835 H3825 0.929 . S
C3835 C3833 1.433 . S
C3835 N3838 1.384 . S
C3836 H3827 0.929 . S
C3836 C3828 1.378 . S
C3836 C3831 1.350 1_455 S
C3837 H3824 0.929 . S
C3837 C3829 1.433 . S
C3837 N3839 1.352 1_455 S
N3838 C3834 1.427 . S
N3838 C3835 1.384 . S
N3839 C3831 1.435 . S
N3839 C3837 1.352 1_655 S
H3840 C3846 0.930 . S
H3841 C3850 0.930 . S
H3842 C3855 0.929 . S
H3843 C3853 0.929 . S
H3844 C3848 0.929 . S
H3845 C3854 0.929 . S
C3846 H3840 0.930 . S
C3846 C3847 1.367 . S
C3846 C3854 1.378 . S
C3847 C3846 1.367 . S
C3847 C3855 1.433 . S
C3848 H3844 0.929 . S
C3848 C3850 1.378 . S
C3848 C3852 1.350 . S
C3849 C3852 1.463 . S
C3849 C3854 1.350 . S
C3849 N3857 1.427 . S
C3850 H3841 0.930 . S
C3850 C3848 1.378 . S
C3850 C3851 1.367 . S
C3851 C3850 1.367 . S
C3851 C3853 1.433 . S
C3852 C3848 1.350 . S
C3852 C3849 1.463 . S
C3852 N3856 1.427 . S
C3853 H3843 0.929 . S
C3853 C3851 1.433 . S
C3853 N3856 1.384 . S
C3854 H3845 0.929 . S
C3854 C3846 1.378 . S
C3854 C3849 1.350 . S
C3855 H3842 0.929 . S
C3855 C3847 1.433 . S
C3855 N3857 1.384 . S
N3856 C3852 1.427 . S
N3856 C3853 1.384 . S
N3857 C3849 1.427 . S
N3857 C3855 1.384 . S
H3858 C3864 0.930 . S
H3859 C3868 0.930 . S
H3860 C3873 0.929 . S
H3861 C3871 0.929 . S
H3862 C3866 0.929 . S
H3863 C3872 0.929 . S
C3864 H3858 0.930 . S
C3864 C3865 1.367 . S
C3864 C3872 1.378 . S
C3865 C3864 1.367 . S
C3865 C3873 1.433 . S
C3866 H3862 0.929 . S
C3866 C3868 1.378 . S
C3866 C3870 1.350 . S
C3867 C3870 1.463 . S
C3867 C3872 1.350 . S
C3867 N3875 1.427 . S
C3868 H3859 0.930 . S
C3868 C3866 1.378 . S
C3868 C3869 1.367 . S
C3869 C3868 1.367 . S
C3869 C3871 1.433 . S
C3870 C3866 1.350 . S
C3870 C3867 1.463 . S
C3870 N3874 1.427 . S
C3871 H3861 0.929 . S
C3871 C3869 1.433 . S
C3871 N3874 1.384 . S
C3872 H3863 0.929 . S
C3872 C3864 1.378 . S
C3872 C3867 1.350 . S
C3873 H3860 0.929 . S
C3873 C3865 1.433 . S
C3873 N3875 1.384 . S
N3874 C3870 1.427 . S
N3874 C3871 1.384 . S
N3875 C3867 1.427 . S
N3875 C3873 1.384 . S
H3876 C3882 0.930 . S
H3877 C3886 0.930 . S
H3878 C3891 0.929 . S
H3879 C3889 0.929 . S
H3880 C3884 0.929 . S
H3881 C3890 0.929 . S
C3882 H3876 0.930 . S
C3882 C3883 1.367 . S
C3882 C3890 1.378 . S
C3883 C3882 1.367 . S
C3883 C3891 1.433 . S
C3884 H3880 0.929 . S
C3884 C3886 1.378 . S
C3884 C3888 1.350 . S
C3885 C3888 1.463 . S
C3885 C3890 1.350 . S
C3885 N3893 1.427 . S
C3886 H3877 0.930 . S
C3886 C3884 1.378 . S
C3886 C3887 1.367 . S
C3887 C3886 1.367 . S
C3887 C3889 1.433 . S
C3888 C3884 1.350 . S
C3888 C3885 1.463 . S
C3888 N3892 1.427 . S
C3889 H3879 0.929 . S
C3889 C3887 1.433 . S
C3889 N3892 1.384 . S
C3890 H3881 0.929 . S
C3890 C3882 1.378 . S
C3890 C3885 1.350 . S
C3891 H3878 0.929 . S
C3891 C3883 1.433 . S
C3891 N3893 1.384 . S
N3892 C3888 1.427 . S
N3892 C3889 1.384 . S
N3893 C3885 1.427 . S
N3893 C3891 1.384 . S
H3894 C3900 0.930 . S
H3895 C3904 0.930 . S
H3896 C3909 0.929 . S
H3897 C3907 0.929 . S
H3898 C3902 0.929 . S
H3899 C3908 0.929 . S
C3900 H3894 0.930 . S
C3900 C3901 1.367 . S
C3900 C3908 1.378 . S
C3901 C3900 1.367 . S
C3901 C3909 1.433 . S
C3902 H3898 0.929 . S
C3902 C3904 1.378 . S
C3902 C3906 1.350 . S
C3903 C3906 1.463 . S
C3903 C3908 1.350 . S
C3903 N3911 1.427 . S
C3904 H3895 0.930 . S
C3904 C3902 1.378 . S
C3904 C3905 1.367 . S
C3905 C3904 1.367 . S
C3905 C3907 1.433 . S
C3906 C3902 1.350 . S
C3906 C3903 1.463 . S
C3906 N3910 1.427 . S
C3907 H3897 0.929 . S
C3907 C3905 1.433 . S
C3907 N3910 1.384 . S
C3908 H3899 0.929 . S
C3908 C3900 1.378 . S
C3908 C3903 1.350 . S
C3909 H3896 0.929 . S
C3909 C3901 1.433 . S
C3909 N3911 1.384 . S
N3910 C3906 1.427 . S
N3910 C3907 1.384 . S
N3911 C3903 1.427 . S
N3911 C3909 1.384 . S
H3912 C3918 0.930 . S
H3913 C3922 0.930 . S
H3914 C3927 0.929 . S
H3915 C3925 0.929 . S
H3916 C3920 0.929 . S
H3917 C3926 0.929 . S
C3918 H3912 0.930 . S
C3918 C3919 1.367 . S
C3918 C3926 1.378 . S
C3919 C3918 1.367 . S
C3919 C3927 1.433 . S
C3920 H3916 0.929 . S
C3920 C3922 1.378 . S
C3920 C3924 1.350 . S
C3921 C3924 1.463 . S
C3921 C3926 1.350 . S
C3921 N3929 1.427 . S
C3922 H3913 0.930 . S
C3922 C3920 1.378 . S
C3922 C3923 1.367 . S
C3923 C3922 1.367 . S
C3923 C3925 1.433 . S
C3924 C3920 1.350 . S
C3924 C3921 1.463 . S
C3924 N3928 1.427 . S
C3925 H3915 0.929 . S
C3925 C3923 1.433 . S
C3925 N3928 1.384 . S
C3926 H3917 0.929 . S
C3926 C3918 1.378 . S
C3926 C3921 1.350 . S
C3927 H3914 0.929 . S
C3927 C3919 1.433 . S
C3927 N3929 1.384 . S
N3928 C3924 1.427 . S
N3928 C3925 1.384 . S
N3929 C3921 1.427 . S
N3929 C3927 1.384 . S
H3930 C3936 0.930 . S
H3931 C3940 0.930 . S
H3932 C3945 0.929 . S
H3933 C3943 0.929 . S
H3934 C3938 0.929 . S
H3935 C3944 0.929 . S
C3936 H3930 0.930 . S
C3936 C3937 1.367 . S
C3936 C3944 1.378 . S
C3937 C3936 1.367 . S
C3937 C3945 1.433 . S
C3938 H3934 0.929 . S
C3938 C3940 1.378 . S
C3938 C3942 1.350 . S
C3939 C3942 1.463 . S
C3939 C3944 1.350 . S
C3939 N3947 1.427 . S
C3940 H3931 0.930 . S
C3940 C3938 1.378 . S
C3940 C3941 1.367 . S
C3941 C3940 1.367 . S
C3941 C3943 1.433 . S
C3942 C3938 1.350 . S
C3942 C3939 1.463 . S
C3942 N3946 1.427 . S
C3943 H3933 0.929 . S
C3943 C3941 1.433 . S
C3943 N3946 1.384 . S
C3944 H3935 0.929 . S
C3944 C3936 1.378 . S
C3944 C3939 1.350 . S
C3945 H3932 0.929 . S
C3945 C3937 1.433 . S
C3945 N3947 1.384 . S
N3946 C3942 1.427 . S
N3946 C3943 1.384 . S
N3947 C3939 1.427 . S
N3947 C3945 1.384 . S
H3948 C3954 0.930 . S
H3949 C3958 0.930 . S
H3950 C3963 0.929 . S
H3951 C3961 0.929 . S
H3952 C3956 0.929 . S
H3953 C3962 0.929 . S
C3954 H3948 0.930 . S
C3954 C3955 1.367 . S
C3954 C3962 1.378 . S
C3955 C3954 1.367 . S
C3955 C3963 1.433 . S
C3956 H3952 0.929 . S
C3956 C3958 1.378 . S
C3956 C3960 1.350 . S
C3957 C3960 1.463 . S
C3957 C3962 1.350 . S
C3957 N3965 1.427 . S
C3958 H3949 0.930 . S
C3958 C3956 1.378 . S
C3958 C3959 1.367 . S
C3959 C3958 1.367 . S
C3959 C3961 1.433 . S
C3960 C3956 1.350 . S
C3960 C3957 1.463 . S
C3960 N3964 1.427 . S
C3961 H3951 0.929 . S
C3961 C3959 1.433 . S
C3961 N3964 1.384 . S
C3962 H3953 0.929 . S
C3962 C3954 1.378 . S
C3962 C3957 1.350 . S
C3963 H3950 0.929 . S
C3963 C3955 1.433 . S
C3963 N3965 1.384 . S
N3964 C3960 1.427 . S
N3964 C3961 1.384 . S
N3965 C3957 1.427 . S
N3965 C3963 1.384 . S
H3966 C3972 0.930 . S
H3967 C3976 0.930 . S
H3968 C3981 0.929 . S
H3969 C3979 0.929 . S
H3970 C3974 0.929 . S
H3971 C3980 0.929 . S
C3972 H3966 0.930 . S
C3972 C3973 1.367 . S
C3972 C3980 1.378 . S
C3973 C3972 1.367 . S
C3973 C3981 1.433 . S
C3974 H3970 0.929 . S
C3974 C3976 1.378 . S
C3974 C3978 1.350 . S
C3975 C3978 1.463 . S
C3975 C3980 1.350 . S
C3975 N3983 1.427 . S
C3976 H3967 0.930 . S
C3976 C3974 1.378 . S
C3976 C3977 1.367 . S
C3977 C3976 1.367 . S
C3977 C3979 1.433 . S
C3978 C3974 1.350 . S
C3978 C3975 1.463 . S
C3978 N3982 1.427 . S
C3979 H3969 0.929 . S
C3979 C3977 1.433 . S
C3979 N3982 1.384 . S
C3980 H3971 0.929 . S
C3980 C3972 1.378 . S
C3980 C3975 1.350 . S
C3981 H3968 0.929 . S
C3981 C3973 1.433 . S
C3981 N3983 1.384 . S
N3982 C3978 1.427 . S
N3982 C3979 1.384 . S
N3983 C3975 1.427 . S
N3983 C3981 1.384 . S
H3984 C3990 0.930 . S
H3985 C3994 0.930 . S
H3986 C3999 0.929 . S
H3987 C3997 0.929 . S
H3988 C3992 0.929 . S
H3989 C3998 0.929 . S
C3990 H3984 0.930 . S
C3990 C3991 1.367 . S
C3990 C3998 1.378 . S
C3991 C3990 1.367 . S
C3991 C3999 1.433 . S
C3992 H3988 0.929 . S
C3992 C3994 1.378 . S
C3992 C3996 1.350 . S
C3993 C3996 1.463 . S
C3993 C3998 1.350 . S
C3993 N4001 1.427 . S
C3994 H3985 0.930 . S
C3994 C3992 1.378 . S
C3994 C3995 1.367 . S
C3995 C3994 1.367 . S
C3995 C3997 1.433 . S
C3996 C3992 1.350 . S
C3996 C3993 1.463 . S
C3996 N4000 1.427 . S
C3997 H3987 0.929 . S
C3997 C3995 1.433 . S
C3997 N4000 1.384 . S
C3998 H3989 0.929 . S
C3998 C3990 1.378 . S
C3998 C3993 1.350 . S
C3999 H3986 0.929 . S
C3999 C3991 1.433 . S
C3999 N4001 1.384 . S
N4000 C3996 1.427 . S
N4000 C3997 1.384 . S
N4001 C3993 1.427 . S
N4001 C3999 1.384 . S
H4002 C4008 0.930 . S
H4003 C4012 0.930 . S
H4004 C4017 0.929 . S
H4005 C4015 0.929 . S
H4006 C4010 0.929 . S
H4007 C4016 0.929 . S
C4008 H4002 0.930 . S
C4008 C4009 1.367 . S
C4008 C4016 1.378 . S
C4009 C4008 1.367 . S
C4009 C4017 1.433 . S
C4010 H4006 0.929 . S
C4010 C4012 1.378 . S
C4010 C4014 1.350 . S
C4011 C4014 1.463 . S
C4011 C4016 1.350 . S
C4011 N4019 1.427 . S
C4012 H4003 0.930 . S
C4012 C4010 1.378 . S
C4012 C4013 1.367 . S
C4013 C4012 1.367 . S
C4013 C4015 1.433 . S
C4014 C4010 1.350 . S
C4014 C4011 1.463 . S
C4014 N4018 1.427 . S
C4015 H4005 0.929 . S
C4015 C4013 1.433 . S
C4015 N4018 1.384 . S
C4016 H4007 0.929 . S
C4016 C4008 1.378 . S
C4016 C4011 1.350 . S
C4017 H4004 0.929 . S
C4017 C4009 1.433 . S
C4017 N4019 1.384 . S
N4018 C4014 1.427 . S
N4018 C4015 1.384 . S
N4019 C4011 1.427 . S
N4019 C4017 1.384 . S
H4020 C4026 0.930 . S
H4021 C4030 0.930 . S
H4022 C4035 0.929 . S
H4023 C4033 0.929 . S
H4024 C4028 0.929 . S
H4025 C4034 0.929 . S
C4026 H4020 0.930 . S
C4026 C4027 1.367 . S
C4026 C4034 1.378 . S
C4027 C4026 1.367 . S
C4027 C4035 1.433 . S
C4028 H4024 0.929 . S
C4028 C4030 1.378 . S
C4028 C4032 1.350 . S
C4029 C4032 1.463 . S
C4029 C4034 1.350 . S
C4029 N4037 1.427 . S
C4030 H4021 0.930 . S
C4030 C4028 1.378 . S
C4030 C4031 1.367 . S
C4031 C4030 1.367 . S
C4031 C4033 1.433 . S
C4032 C4028 1.350 . S
C4032 C4029 1.463 . S
C4032 N4036 1.427 . S
C4033 H4023 0.929 . S
C4033 C4031 1.433 . S
C4033 N4036 1.384 . S
C4034 H4025 0.929 . S
C4034 C4026 1.378 . S
C4034 C4029 1.350 . S
C4035 H4022 0.929 . S
C4035 C4027 1.433 . S
C4035 N4037 1.384 . S
N4036 C4032 1.427 . S
N4036 C4033 1.384 . S
N4037 C4029 1.427 . S
N4037 C4035 1.384 . S
H4038 C4044 0.930 . S
H4039 C4048 0.930 . S
H4040 C4053 0.929 . S
H4041 C4051 0.929 . S
H4042 C4046 0.929 . S
H4043 C4052 0.929 . S
C4044 H4038 0.930 . S
C4044 C4045 1.367 . S
C4044 C4052 1.378 . S
C4045 C4044 1.367 . S
C4045 C4053 1.433 . S
C4046 H4042 0.929 . S
C4046 C4048 1.378 . S
C4046 C4050 1.350 . S
C4047 C4050 1.463 . S
C4047 C4052 1.350 . S
C4047 N4055 1.427 . S
C4048 H4039 0.930 . S
C4048 C4046 1.378 . S
C4048 C4049 1.367 . S
C4049 C4048 1.367 . S
C4049 C4051 1.433 . S
C4050 C4046 1.350 . S
C4050 C4047 1.463 . S
C4050 N4054 1.427 . S
C4051 H4041 0.929 . S
C4051 C4049 1.433 . S
C4051 N4054 1.384 . S
C4052 H4043 0.929 . S
C4052 C4044 1.378 . S
C4052 C4047 1.350 . S
C4053 H4040 0.929 . S
C4053 C4045 1.433 . S
C4053 N4055 1.384 . S
N4054 C4050 1.427 . S
N4054 C4051 1.384 . S
N4055 C4047 1.427 . S
N4055 C4053 1.384 . S
H4056 C4062 0.930 . S
H4057 C4066 0.930 . S
H4058 C4071 0.929 . S
H4059 C4069 0.929 . S
H4060 C4064 0.929 . S
H4061 C4070 0.929 . S
C4062 H4056 0.930 . S
C4062 C4063 1.367 . S
C4062 C4070 1.378 . S
C4063 C4062 1.367 . S
C4063 C4071 1.433 . S
C4064 H4060 0.929 . S
C4064 C4066 1.378 . S
C4064 C4068 1.350 . S
C4065 C4068 1.463 . S
C4065 C4070 1.350 . S
C4065 N4073 1.427 . S
C4066 H4057 0.930 . S
C4066 C4064 1.378 . S
C4066 C4067 1.367 . S
C4067 C4066 1.367 . S
C4067 C4069 1.433 . S
C4068 C4064 1.350 . S
C4068 C4065 1.463 . S
C4068 N4072 1.427 . S
C4069 H4059 0.929 . S
C4069 C4067 1.433 . S
C4069 N4072 1.384 . S
C4070 H4061 0.929 . S
C4070 C4062 1.378 . S
C4070 C4065 1.350 . S
C4071 H4058 0.929 . S
C4071 C4063 1.433 . S
C4071 N4073 1.384 . S
N4072 C4068 1.427 . S
N4072 C4069 1.384 . S
N4073 C4065 1.427 . S
N4073 C4071 1.384 . S
H4074 C4080 0.930 . S
H4075 C4084 0.930 . S
H4076 C4089 0.929 . S
H4077 C4087 0.929 . S
H4078 C4082 0.929 . S
H4079 C4088 0.929 . S
C4080 H4074 0.930 . S
C4080 C4081 1.367 . S
C4080 C4088 1.378 . S
C4081 C4080 1.367 . S
C4081 C4089 1.433 . S
C4082 H4078 0.929 . S
C4082 C4084 1.378 . S
C4082 C4086 1.350 . S
C4083 C4086 1.463 . S
C4083 C4088 1.350 . S
C4083 N4091 1.427 . S
C4084 H4075 0.930 . S
C4084 C4082 1.378 . S
C4084 C4085 1.367 . S
C4085 C4084 1.367 . S
C4085 C4087 1.433 . S
C4086 C4082 1.350 . S
C4086 C4083 1.463 . S
C4086 N4090 1.427 . S
C4087 H4077 0.929 . S
C4087 C4085 1.433 . S
C4087 N4090 1.384 . S
C4088 H4079 0.929 . S
C4088 C4080 1.378 . S
C4088 C4083 1.350 . S
C4089 H4076 0.929 . S
C4089 C4081 1.433 . S
C4089 N4091 1.384 . S
N4090 C4086 1.427 . S
N4090 C4087 1.384 . S
N4091 C4083 1.427 . S
N4091 C4089 1.384 . S
H4092 C4098 0.930 . S
H4093 C4102 0.930 . S
H4094 C4107 0.929 . S
H4095 C4105 0.929 . S
H4096 C4100 0.929 . S
H4097 C4106 0.929 . S
C4098 H4092 0.930 . S
C4098 C4099 1.367 . S
C4098 C4106 1.378 . S
C4099 C4098 1.367 . S
C4099 C4107 1.433 . S
C4100 H4096 0.929 . S
C4100 C4102 1.378 . S
C4100 C4104 1.350 . S
C4101 C4104 1.463 . S
C4101 C4106 1.350 . S
C4101 N4109 1.427 . S
C4102 H4093 0.930 . S
C4102 C4100 1.378 . S
C4102 C4103 1.367 . S
C4103 C4102 1.367 . S
C4103 C4105 1.433 . S
C4104 C4100 1.350 . S
C4104 C4101 1.463 . S
C4104 N4108 1.427 . S
C4105 H4095 0.929 . S
C4105 C4103 1.433 . S
C4105 N4108 1.384 . S
C4106 H4097 0.929 . S
C4106 C4098 1.378 . S
C4106 C4101 1.350 . S
C4107 H4094 0.929 . S
C4107 C4099 1.433 . S
C4107 N4109 1.384 . S
N4108 C4104 1.427 . S
N4108 C4105 1.384 . S
N4109 C4101 1.427 . S
N4109 C4107 1.384 . S
H4110 C4116 0.930 . S
H4111 C4120 0.930 . S
H4112 C4125 0.929 . S
H4113 C4123 0.929 . S
H4114 C4118 0.929 . S
H4115 C4124 0.929 . S
C4116 H4110 0.930 . S
C4116 C4117 1.367 . S
C4116 C4124 1.378 . S
C4117 C4116 1.367 . S
C4117 C4125 1.433 . S
C4118 H4114 0.929 . S
C4118 C4120 1.378 . S
C4118 C4122 1.350 . S
C4119 C4122 1.463 . S
C4119 C4124 1.350 . S
C4119 N4127 1.427 . S
C4120 H4111 0.930 . S
C4120 C4118 1.378 . S
C4120 C4121 1.367 . S
C4121 C4120 1.367 . S
C4121 C4123 1.433 . S
C4122 C4118 1.350 . S
C4122 C4119 1.463 . S
C4122 N4126 1.427 . S
C4123 H4113 0.929 . S
C4123 C4121 1.433 . S
C4123 N4126 1.384 . S
C4124 H4115 0.929 . S
C4124 C4116 1.378 . S
C4124 C4119 1.350 . S
C4125 H4112 0.929 . S
C4125 C4117 1.433 . S
C4125 N4127 1.384 . S
N4126 C4122 1.427 . S
N4126 C4123 1.384 . S
N4127 C4119 1.427 . S
N4127 C4125 1.384 . S
H4128 C4134 0.930 . S
H4129 C4138 0.930 . S
H4130 C4143 0.929 . S
H4131 C4141 0.929 . S
H4132 C4136 0.929 . S
H4133 C4142 0.929 . S
C4134 H4128 0.930 . S
C4134 C4135 1.367 . S
C4134 C4142 1.378 . S
C4135 C4134 1.367 . S
C4135 C4143 1.433 . S
C4136 H4132 0.929 . S
C4136 C4138 1.378 . S
C4136 C4140 1.350 . S
C4137 C4140 1.463 . S
C4137 C4142 1.350 . S
C4137 N4145 1.427 . S
C4138 H4129 0.930 . S
C4138 C4136 1.378 . S
C4138 C4139 1.367 . S
C4139 C4138 1.367 . S
C4139 C4141 1.433 . S
C4140 C4136 1.350 . S
C4140 C4137 1.463 . S
C4140 N4144 1.427 . S
C4141 H4131 0.929 . S
C4141 C4139 1.433 . S
C4141 N4144 1.384 . S
C4142 H4133 0.929 . S
C4142 C4134 1.378 . S
C4142 C4137 1.350 . S
C4143 H4130 0.929 . S
C4143 C4135 1.433 . S
C4143 N4145 1.384 . S
N4144 C4140 1.427 . S
N4144 C4141 1.384 . S
N4145 C4137 1.427 . S
N4145 C4143 1.384 . S
H4146 C4152 0.930 . S
H4147 C4156 0.930 . S
H4148 C4161 0.929 . S
H4149 C4159 0.929 . S
H4150 C4154 0.929 . S
H4151 C4160 0.929 . S
C4152 H4146 0.930 . S
C4152 C4153 1.367 . S
C4152 C4160 1.378 . S
C4153 C4152 1.367 . S
C4153 C4161 1.433 . S
C4154 H4150 0.929 . S
C4154 C4156 1.378 . S
C4154 C4158 1.350 . S
C4155 C4158 1.463 . S
C4155 C4160 1.350 . S
C4155 N4163 1.427 . S
C4156 H4147 0.930 . S
C4156 C4154 1.378 . S
C4156 C4157 1.367 . S
C4157 C4156 1.367 . S
C4157 C4159 1.433 . S
C4158 C4154 1.350 . S
C4158 C4155 1.463 . S
C4158 N4162 1.427 . S
C4159 H4149 0.929 . S
C4159 C4157 1.433 . S
C4159 N4162 1.384 . S
C4160 H4151 0.929 . S
C4160 C4152 1.378 . S
C4160 C4155 1.350 . S
C4161 H4148 0.929 . S
C4161 C4153 1.433 . S
C4161 N4163 1.384 . S
N4162 C4158 1.427 . S
N4162 C4159 1.384 . S
N4163 C4155 1.427 . S
N4163 C4161 1.384 . S
H4164 C4170 0.930 . S
H4165 C4174 0.930 . S
H4166 C4179 0.929 . S
H4167 C4177 0.929 . S
H4168 C4172 0.929 . S
H4169 C4178 0.929 . S
C4170 H4164 0.930 . S
C4170 C4171 1.367 . S
C4170 C4178 1.378 . S
C4171 C4170 1.367 . S
C4171 C4179 1.433 . S
C4172 H4168 0.929 . S
C4172 C4174 1.378 . S
C4172 C4176 1.350 . S
C4173 C4176 1.463 . S
C4173 C4178 1.350 . S
C4173 N4181 1.427 . S
C4174 H4165 0.930 . S
C4174 C4172 1.378 . S
C4174 C4175 1.367 . S
C4175 C4174 1.367 . S
C4175 C4177 1.433 . S
C4176 C4172 1.350 . S
C4176 C4173 1.463 . S
C4176 N4180 1.427 . S
C4177 H4167 0.929 . S
C4177 C4175 1.433 . S
C4177 N4180 1.384 . S
C4178 H4169 0.929 . S
C4178 C4170 1.378 . S
C4178 C4173 1.350 . S
C4179 H4166 0.929 . S
C4179 C4171 1.433 . S
C4179 N4181 1.384 . S
N4180 C4176 1.427 . S
N4180 C4177 1.384 . S
N4181 C4173 1.427 . S
N4181 C4179 1.384 . S
H4182 C4188 0.930 . S
H4183 C4192 0.930 . S
H4184 C4197 0.929 . S
H4185 C4195 0.929 . S
H4186 C4190 0.929 . S
H4187 C4196 0.929 . S
C4188 H4182 0.930 . S
C4188 C4189 1.367 . S
C4188 C4196 1.378 . S
C4189 C4188 1.367 . S
C4189 C4197 1.433 . S
C4190 H4186 0.929 . S
C4190 C4192 1.378 . S
C4190 C4194 1.350 . S
C4191 C4194 1.463 . S
C4191 C4196 1.350 . S
C4191 N4199 1.427 . S
C4192 H4183 0.930 . S
C4192 C4190 1.378 . S
C4192 C4193 1.367 . S
C4193 C4192 1.367 . S
C4193 C4195 1.433 . S
C4194 C4190 1.350 . S
C4194 C4191 1.463 . S
C4194 N4198 1.427 . S
C4195 H4185 0.929 . S
C4195 C4193 1.433 . S
C4195 N4198 1.384 . S
C4196 H4187 0.929 . S
C4196 C4188 1.378 . S
C4196 C4191 1.350 . S
C4197 H4184 0.929 . S
C4197 C4189 1.433 . S
C4197 N4199 1.384 . S
N4198 C4194 1.427 . S
N4198 C4195 1.384 . S
N4199 C4191 1.427 . S
N4199 C4197 1.384 . S
H4200 C4206 0.930 . S
H4201 C4210 0.930 . S
H4202 C4215 0.929 . S
H4203 C4213 0.929 . S
H4204 C4208 0.929 . S
H4205 C4214 0.929 . S
C4206 H4200 0.930 . S
C4206 C4207 1.367 . S
C4206 C4214 1.378 . S
C4207 C4206 1.367 . S
C4207 C4215 1.433 . S
C4208 H4204 0.929 . S
C4208 C4210 1.378 . S
C4208 C4212 1.350 . S
C4209 C4212 1.463 . S
C4209 C4214 1.350 . S
C4209 N4217 1.427 . S
C4210 H4201 0.930 . S
C4210 C4208 1.378 . S
C4210 C4211 1.367 . S
C4211 C4210 1.367 . S
C4211 C4213 1.433 . S
C4212 C4208 1.350 . S
C4212 C4209 1.463 . S
C4212 N4216 1.427 . S
C4213 H4203 0.929 . S
C4213 C4211 1.433 . S
C4213 N4216 1.384 . S
C4214 H4205 0.929 . S
C4214 C4206 1.378 . S
C4214 C4209 1.350 . S
C4215 H4202 0.929 . S
C4215 C4207 1.433 . S
C4215 N4217 1.384 . S
N4216 C4212 1.427 . S
N4216 C4213 1.384 . S
N4217 C4209 1.427 . S
N4217 C4215 1.384 . S
H4218 C4224 0.930 . S
H4219 C4228 0.930 . S
H4220 C4233 0.929 . S
H4221 C4231 0.929 . S
H4222 C4226 0.929 . S
H4223 C4232 0.929 . S
C4224 H4218 0.930 . S
C4224 C4225 1.367 . S
C4224 C4232 1.378 . S
C4225 C4224 1.367 . S
C4225 C4233 1.433 . S
C4226 H4222 0.929 . S
C4226 C4228 1.378 . S
C4226 C4230 1.350 . S
C4227 C4230 1.463 . S
C4227 C4232 1.350 . S
C4227 N4235 1.427 . S
C4228 H4219 0.930 . S
C4228 C4226 1.378 . S
C4228 C4229 1.367 . S
C4229 C4228 1.367 . S
C4229 C4231 1.433 . S
C4230 C4226 1.350 . S
C4230 C4227 1.463 . S
C4230 N4234 1.427 . S
C4231 H4221 0.929 . S
C4231 C4229 1.433 . S
C4231 N4234 1.384 . S
C4232 H4223 0.929 . S
C4232 C4224 1.378 . S
C4232 C4227 1.350 . S
C4233 H4220 0.929 . S
C4233 C4225 1.433 . S
C4233 N4235 1.384 . S
N4234 C4230 1.427 . S
N4234 C4231 1.384 . S
N4235 C4227 1.427 . S
N4235 C4233 1.384 . S
H4236 C4242 0.930 . S
H4237 C4246 0.930 . S
H4238 C4251 0.929 . S
H4239 C4249 0.929 . S
H4240 C4244 0.929 . S
H4241 C4250 0.929 . S
C4242 H4236 0.930 . S
C4242 C4243 1.367 . S
C4242 C4250 1.378 . S
C4243 C4242 1.367 . S
C4243 C4251 1.433 . S
C4244 H4240 0.929 . S
C4244 C4246 1.378 . S
C4244 C4248 1.350 . S
C4245 C4248 1.463 . S
C4245 C4250 1.350 . S
C4245 N4253 1.427 . S
C4246 H4237 0.930 . S
C4246 C4244 1.378 . S
C4246 C4247 1.367 . S
C4247 C4246 1.367 . S
C4247 C4249 1.433 . S
C4248 C4244 1.350 . S
C4248 C4245 1.463 . S
C4248 N4252 1.427 . S
C4249 H4239 0.929 . S
C4249 C4247 1.433 . S
C4249 N4252 1.384 . S
C4250 H4241 0.929 . S
C4250 C4242 1.378 . S
C4250 C4245 1.350 . S
C4251 H4238 0.929 . S
C4251 C4243 1.433 . S
C4251 N4253 1.384 . S
N4252 C4248 1.427 . S
N4252 C4249 1.384 . S
N4253 C4245 1.427 . S
N4253 C4251 1.384 . S
H4254 C4260 0.930 . S
H4255 C4264 0.930 . S
H4256 C4269 0.929 . S
H4257 C4267 0.929 . S
H4258 C4262 0.929 . S
H4259 C4268 0.929 . S
C4260 H4254 0.930 . S
C4260 C4261 1.367 . S
C4260 C4268 1.378 . S
C4261 C4260 1.367 . S
C4261 C4269 1.433 . S
C4262 H4258 0.929 . S
C4262 C4264 1.378 . S
C4262 C4266 1.350 . S
C4263 C4266 1.463 . S
C4263 C4268 1.350 . S
C4263 N4271 1.427 . S
C4264 H4255 0.930 . S
C4264 C4262 1.378 . S
C4264 C4265 1.367 . S
C4265 C4264 1.367 . S
C4265 C4267 1.433 . S
C4266 C4262 1.350 . S
C4266 C4263 1.463 . S
C4266 N4270 1.427 . S
C4267 H4257 0.929 . S
C4267 C4265 1.433 . S
C4267 N4270 1.384 . S
C4268 H4259 0.929 . S
C4268 C4260 1.378 . S
C4268 C4263 1.350 . S
C4269 H4256 0.929 . S
C4269 C4261 1.433 . S
C4269 N4271 1.384 . S
N4270 C4266 1.427 . S
N4270 C4267 1.384 . S
N4271 C4263 1.427 . S
N4271 C4269 1.384 . S
C2551 C499 2.450 . S
C2555 C22 2.445 . S
C2569 C552 2.761 . S
C2573 C91 2.773 . S
C2587 C605 2.445 . S
C2591 C128 2.450 . S
C2605 C446 2.764 . S
C2609 C197 2.772 . S
C2623 C234 2.450 . S
C2627 C817 2.445 . S
C2641 C303 2.772 . S
C2645 C658 2.762 . S
C2659 C340 2.449 . S
C2663 C711 2.447 . S
C2677 C764 2.764 . S
C2681 C409 2.773 . S
C2695 C886 2.772 . S
C2699 C976 2.764 . S
C2713 C939 2.772 . S
C2717 C2460 2.764 . S
C2731 C1045 2.772 . S
C2735 C2513 2.764 . S
C2749 C1082 2.761 . S
C2753 C2423 2.774 . S
C2767 C1151 2.774 . S
C2771 C2354 2.760 . S
C2785 C2211 2.774 . S
C2789 C1188 2.760 . S
C2803 C1241 2.762 . S
C2807 C2317 2.774 . S
C2821 C1771 2.446 . S
C2825 C1294 2.448 . S
C2839 C1824 2.763 . S
C2843 C1363 2.773 . S
C2857 C1877 2.450 . S
C2861 C1400 2.445 . S
C2875 C1718 2.763 . S
C2879 C1469 2.772 . S
C2893 C2089 2.449 . S
C2897 C1506 2.445 . S
C2911 C1930 2.762 . S
C2915 C1575 2.772 . S
C2929 C1612 2.445 . S
C2933 C1983 2.450 . S
C2947 C1681 2.774 . S
C2951 C2036 2.760 . S
C2965 C2158 2.773 . S
C2969 C2248 2.763 . S
C2983 C870 1.230 . S
C2987 C29 1.266 . S
C3001 C2529 1.226 . S
C3005 C92 1.243 . S
C3019 C135 1.255 . S
C3023 C1135 1.222 . S
C3037 C2476 1.225 . S
C3041 C198 1.243 . S
C3055 C241 1.276 . S
C3059 C2195 1.243 . S
C3073 C2264 1.236 . S
C3077 C304 1.247 . S
C3091 C347 1.276 . S
C3095 C2301 1.244 . S
C3109 C1098 1.224 . S
C3113 C410 1.242 . S
C3127 C453 1.270 . S
C3131 C38 1.260 . S
C3145 C75 1.239 . S
C3149 C506 1.273 . S
C3163 C559 1.269 . S
C3167 C144 1.258 . S
C3181 C181 1.234 . S
C3185 C612 1.264 . S
C3199 C665 1.263 . S
C3203 C250 1.249 . S
C3217 C287 1.242 . S
C3221 C718 1.272 . S
C3235 C771 1.270 . S
C3239 C356 1.260 . S
C3253 C824 1.276 . S
C3257 C393 1.244 . S
C3271 C887 1.243 . S
C3275 C462 1.225 . S
C3289 C940 1.246 . S
C3293 C1946 1.232 . S
C3307 C1999 1.248 . S
C3311 C983 1.262 . S
C3325 C2052 1.225 . S
C3329 C1046 1.243 . S
C3343 C833 1.250 . S
C3347 C1089 1.264 . S
C3361 C1152 1.243 . S
C3365 C568 1.226 . S
C3379 C1893 1.249 . S
C3383 C1195 1.262 . S
C3397 C1248 1.269 . S
C3401 C1787 1.258 . S
C3415 C1301 1.257 . S
C3419 C2142 1.224 . S
C3433 C1364 1.247 . S
C3437 C1257 1.233 . S
C3451 C1407 1.276 . S
C3455 C2407 1.245 . S
C3469 C1470 1.243 . S
C3473 C1204 1.230 . S
C3487 C1513 1.259 . S
C3491 C923 1.227 . S
C3505 C1576 1.242 . S
C3509 C992 1.224 . S
C3523 C1029 1.234 . S
C3527 C1619 1.264 . S
C3541 C2370 1.235 . S
C3545 C1682 1.246 . S
C3559 C1310 1.248 . S
C3563 C1725 1.262 . S
C3577 C1347 1.242 . S
C3581 C1778 1.272 . S
C3595 C1831 1.270 . S
C3599 C1416 1.260 . S
C3613 C1453 1.235 . S
C3617 C1884 1.270 . S
C3631 C1937 1.269 . S
C3635 C1522 1.259 . S
C3649 C1990 1.274 . S
C3653 C1559 1.241 . S
C3667 C2043 1.264 . S
C3671 C1628 1.251 . S
C3685 C1665 1.219 . S
C3689 C2096 1.255 . S
C3703 C2159 1.242 . S
C3707 C1734 1.228 . S
C3721 C2212 1.242 . S
C3725 C674 1.226 . S
C3739 C727 1.249 . S
C3743 C2255 1.262 . S
C3757 C2318 1.242 . S
C3761 C780 1.227 . S
C3775 C2361 1.262 . S
C3779 C2105 1.249 . S
C3793 C1840 1.235 . S
C3797 C2424 1.246 . S
C3811 C621 1.249 . S
C3815 C2467 1.262 . S
C3829 C515 1.260 . S
C3833 C2520 1.270 . S
C3847 C1205 1.577 . S
C3851 C39 1.598 . S
C3865 C82 1.832 . S
C3869 C2149 1.828 . S
C3883 C145 1.609 . S
C3887 C1258 1.591 . S
C3901 C2414 1.815 . S
C3905 C188 1.817 . S
C3919 C251 1.608 . S
C3923 C993 1.590 . S
C3937 C1036 1.825 . S
C3941 C294 1.831 . S
C3955 C2371 1.578 . S
C3959 C357 1.598 . S
C3973 C400 1.827 . S
C3977 C930 1.820 . S
C3991 C728 1.605 . S
C3995 C463 1.583 . S
C4009 C516 1.604 . S
C4013 C781 1.582 . S
C4027 C834 1.611 . S
C4031 C569 1.593 . S
C4045 C622 1.611 . S
C4049 C675 1.593 . S
C4063 C1354 1.827 . S
C4067 C877 1.832 . S
C4081 C1099 1.594 . S
C4085 C1629 1.614 . S
C4099 C1142 1.824 . S
C4103 C1460 1.830 . S
C4117 C2477 1.578 . S
C4121 C1311 1.599 . S
C4135 C1417 1.601 . S
C4139 C2530 1.582 . S
C4153 C1523 1.601 . S
C4157 C2265 1.582 . S
C4171 C1566 1.827 . S
C4175 C2308 1.832 . S
C4189 C2202 1.831 . S
C4193 C1672 1.826 . S
C4207 C2000 1.599 . S
C4211 C1735 1.578 . S
C4225 C1788 1.605 . S
C4229 C2053 1.587 . S
C4243 C1841 1.580 . S
C4247 C2106 1.599 . S
C4261 C1947 1.591 . S
C4265 C1894 1.612 . S
