# Generated by pormake.
# Topology wjg, (4)-cn, num edge types: 1
# Building blocks:
#     Node 0, Type 0, BuildingBlock: UXUYUI_clean_sbu_0, # of connection points: 4
#     Node 1, Type 0, BuildingBlock: UXUYUI_clean_sbu_0, # of connection points: 4
#     Node 2, Type 0, BuildingBlock: UXUYUI_clean_sbu_0, # of connection points: 4
#     Node 3, Type 0, BuildingBlock: UXUYUI_clean_sbu_0, # of connection points: 4
#     Node 4, Type 0, BuildingBlock: UXUYUI_clean_sbu_0, # of connection points: 4
#     Node 5, Type 0, BuildingBlock: UXUYUI_clean_sbu_0, # of connection points: 4
#     Node 6, Type 0, BuildingBlock: UXUYUI_clean_sbu_0, # of connection points: 4
#     Node 7, Type 0, BuildingBlock: UXUYUI_clean_sbu_0, # of connection points: 4
#     Node 8, Type 0, BuildingBlock: UXUYUI_clean_sbu_0, # of connection points: 4
#     Node 9, Type 0, BuildingBlock: UXUYUI_clean_sbu_0, # of connection points: 4
#     Node 10, Type 0, BuildingBlock: UXUYUI_clean_sbu_0, # of connection points: 4
#     Node 11, Type 0, BuildingBlock: UXUYUI_clean_sbu_0, # of connection points: 4
#     Edge 12, Type (0, 0), BuildingBlock: XIVTED_clean_linker_0, # of connection points: 2
#     Edge 13, Type (0, 0), BuildingBlock: XIVTED_clean_linker_0, # of connection points: 2
#     Edge 14, Type (0, 0), BuildingBlock: XIVTED_clean_linker_0, # of connection points: 2
#     Edge 15, Type (0, 0), BuildingBlock: XIVTED_clean_linker_0, # of connection points: 2
#     Edge 16, Type (0, 0), BuildingBlock: XIVTED_clean_linker_0, # of connection points: 2
#     Edge 17, Type (0, 0), BuildingBlock: XIVTED_clean_linker_0, # of connection points: 2
#     Edge 18, Type (0, 0), BuildingBlock: XIVTED_clean_linker_0, # of connection points: 2
#     Edge 19, Type (0, 0), BuildingBlock: XIVTED_clean_linker_0, # of connection points: 2
#     Edge 20, Type (0, 0), BuildingBlock: XIVTED_clean_linker_0, # of connection points: 2
#     Edge 21, Type (0, 0), BuildingBlock: XIVTED_clean_linker_0, # of connection points: 2
#     Edge 22, Type (0, 0), BuildingBlock: XIVTED_clean_linker_0, # of connection points: 2
#     Edge 23, Type (0, 0), BuildingBlock: XIVTED_clean_linker_0, # of connection points: 2
#     Edge 24, Type (0, 0), BuildingBlock: XIVTED_clean_linker_0, # of connection points: 2
#     Edge 25, Type (0, 0), BuildingBlock: XIVTED_clean_linker_0, # of connection points: 2
#     Edge 26, Type (0, 0), BuildingBlock: XIVTED_clean_linker_0, # of connection points: 2
#     Edge 27, Type (0, 0), BuildingBlock: XIVTED_clean_linker_0, # of connection points: 2
#     Edge 28, Type (0, 0), BuildingBlock: XIVTED_clean_linker_0, # of connection points: 2
#     Edge 29, Type (0, 0), BuildingBlock: XIVTED_clean_linker_0, # of connection points: 2
#     Edge 30, Type (0, 0), BuildingBlock: XIVTED_clean_linker_0, # of connection points: 2
#     Edge 31, Type (0, 0), BuildingBlock: XIVTED_clean_linker_0, # of connection points: 2
#     Edge 32, Type (0, 0), BuildingBlock: XIVTED_clean_linker_0, # of connection points: 2
#     Edge 33, Type (0, 0), BuildingBlock: XIVTED_clean_linker_0, # of connection points: 2
#     Edge 34, Type (0, 0), BuildingBlock: XIVTED_clean_linker_0, # of connection points: 2
#     Edge 35, Type (0, 0), BuildingBlock: XIVTED_clean_linker_0, # of connection points: 2
# Relax obj value: 0.406
# Max RMSD: 0.171
# Mean RMSD: 0.170
data_MOF--net-wjg--node1-UXUYUI_clean_sbu_0--edge1-XIVTED_clean_linker_0
_symmetry_space_group_name_H-M    P1
_symmetry_Int_Tables_number       1
_symmetry_cell_setting            triclinic
loop_
_symmetry_equiv_pos_as_xyz
'x, y, z'
_cell_length_a     51.91566
_cell_length_b     51.841173
_cell_length_c     53.239574
_cell_angle_alpha  89.961985
_cell_angle_beta   90.025838
_cell_angle_gamma 120.04938
loop_
_atom_site_label
_atom_site_type_symbol
_atom_site_fract_x
_atom_site_fract_y
_atom_site_fract_z
_atom_type_partial_charge
Li0 Li 0.19388 0.4452 0.31599 0.0
Li1 Li 0.16387 0.39531 0.3313 0.0
Li2 Li 0.20286 0.40642 0.302 0.0
Li3 Li 0.15643 0.40502 0.28807 0.0
C4 C 0.2233 0.44206 0.35434 0.0
N5 N 0.25601 0.48383 0.39076 0.0
C6 C 0.21095 0.44059 0.37802 0.0
C7 C 0.25229 0.46492 0.34921 0.0
C8 C 0.22787 0.46184 0.39618 0.0
C9 C 0.26843 0.48581 0.36785 0.0
C10 C 0.124 0.41483 0.33201 0.0
C11 C 0.0704 0.38997 0.33404 0.0
N12 N 0.07228 0.40057 0.35773 0.0
C13 C 0.12538 0.42546 0.35639 0.0
C14 C 0.09628 0.39695 0.32073 0.0
C15 C 0.09899 0.41801 0.36908 0.0
C16 C 0.23223 0.50664 0.30705 0.0
N17 N 0.21228 0.48668 0.3236 0.0
C18 C 0.22425 0.52517 0.35376 0.0
C19 C 0.20731 0.49552 0.34624 0.0
C20 C 0.24618 0.54597 0.33763 0.0
C21 C 0.24949 0.53662 0.31369 0.0
H22 H 0.23559 0.49911 0.28908 0.0
H23 H 0.19136 0.47932 0.35905 0.0
C24 C 0.16789 0.3644 0.37052 0.0
N25 N 0.14755 0.37051 0.36032 0.0
C26 C 0.16264 0.35018 0.39361 0.0
C27 C 0.11429 0.3463 0.39458 0.0
C28 C 0.12041 0.3604 0.37113 0.0
C29 C 0.13606 0.34201 0.40647 0.0
H30 H 0.18896 0.37192 0.3612 0.0
H31 H 0.10387 0.364 0.36212 0.0
C32 C 0.21816 0.43763 0.2623 0.0
N33 N 0.25706 0.43889 0.22628 0.0
C34 C 0.20722 0.4212 0.24017 0.0
C35 C 0.24888 0.45475 0.26611 0.0
C36 C 0.22725 0.42213 0.22218 0.0
C37 C 0.26818 0.45507 0.24767 0.0
C38 C 0.14318 0.344 0.30835 0.0
C39 C 0.155 0.32683 0.31752 0.0
C40 C 0.11237 0.33217 0.30803 0.0
C41 C 0.13573 0.2981 0.32643 0.0
C42 C 0.09384 0.30334 0.31709 0.0
N43 N 0.10581 0.28706 0.32605 0.0
C44 C 0.25664 0.40578 0.30699 0.0
C45 C 0.22179 0.37021 0.27858 0.0
C46 C 0.27409 0.39232 0.3059 0.0
N47 N 0.2307 0.39413 0.29394 0.0
C48 C 0.23838 0.35579 0.27717 0.0
C49 C 0.26439 0.36632 0.29161 0.0
H50 H 0.26285 0.42433 0.31947 0.0
H51 H 0.2008 0.36117 0.26873 0.0
C52 C 0.12271 0.41803 0.25506 0.0
N53 N 0.13009 0.39709 0.26113 0.0
C54 C 0.10366 0.41334 0.23493 0.0
C55 C 0.10061 0.36583 0.22752 0.0
C56 C 0.11962 0.37139 0.24788 0.0
C57 C 0.09238 0.38695 0.22087 0.0
H58 H 0.13168 0.43836 0.26592 0.0
H59 H 0.12616 0.35531 0.25307 0.0
O60 O 0.20697 0.42166 0.33614 0.0
O61 O 0.1496 0.42254 0.319 0.0
O62 O 0.1989 0.43629 0.28047 0.0
O63 O 0.16169 0.37246 0.30018 0.0
H64 H 0.18836 0.42362 0.38227 0.0
H65 H 0.262 0.467 0.33083 0.0
H66 H 0.21853 0.46098 0.41453 0.0
H67 H 0.29077 0.50373 0.36403 0.0
H68 H 0.04882 0.37614 0.32553 0.0
H69 H 0.14649 0.43884 0.36564 0.0
H70 H 0.09467 0.38854 0.30189 0.0
H71 H 0.09975 0.42597 0.388 0.0
H72 H 0.22087 0.53157 0.37229 0.0
H73 H 0.26633 0.55194 0.30077 0.0
H74 H 0.18021 0.34761 0.40203 0.0
H75 H 0.09326 0.33983 0.4037 0.0
H76 H 0.18353 0.4077 0.23699 0.0
H77 H 0.25773 0.46728 0.28328 0.0
H78 H 0.2191 0.40946 0.20499 0.0
H79 H 0.292 0.46808 0.25043 0.0
H80 H 0.17882 0.33575 0.31809 0.0
H81 H 0.10288 0.34519 0.30105 0.0
H82 H 0.14456 0.28462 0.33373 0.0
H83 H 0.06996 0.29395 0.31707 0.0
H84 H 0.29377 0.4009 0.31757 0.0
H85 H 0.23026 0.33586 0.26585 0.0
H86 H 0.09811 0.43031 0.23024 0.0
H87 H 0.09214 0.34506 0.21734 0.0
Li88 Li 0.74512 0.19062 0.64165 0.0
Li89 Li 0.75767 0.15762 0.66469 0.0
Li90 Li 0.79481 0.19893 0.63843 0.0
Li91 Li 0.75487 0.15431 0.61881 0.0
C92 C 0.76947 0.21872 0.68468 0.0
N93 N 0.75787 0.25404 0.71623 0.0
C94 C 0.75619 0.2079 0.70809 0.0
C95 C 0.77705 0.24762 0.67743 0.0
C96 C 0.7505 0.22609 0.72375 0.0
C97 C 0.77091 0.26508 0.6936 0.0
C98 C 0.69739 0.12019 0.64993 0.0
C99 C 0.66694 0.06662 0.64757 0.0
N100 N 0.64657 0.06767 0.66293 0.0
C101 C 0.67592 0.12072 0.66543 0.0
C102 C 0.69265 0.0929 0.64069 0.0
C103 C 0.65048 0.09395 0.67189 0.0
C104 C 0.72703 0.23055 0.62463 0.0
N105 N 0.72264 0.21043 0.64288 0.0
C106 C 0.69486 0.22658 0.66742 0.0
C107 C 0.70602 0.20741 0.66358 0.0
C108 C 0.70086 0.24902 0.64976 0.0
C109 C 0.71623 0.25018 0.62768 0.0
H110 H 0.74038 0.23252 0.60839 0.0
H111 H 0.70336 0.19167 0.67805 0.0
C112 C 0.7841 0.1498 0.70487 0.0
N113 N 0.7562 0.13957 0.69585 0.0
C114 C 0.78845 0.14492 0.72977 0.0
C115 C 0.73505 0.11715 0.73532 0.0
C116 C 0.73172 0.12261 0.71013 0.0
C117 C 0.76378 0.12949 0.74568 0.0
H118 H 0.80309 0.16364 0.69311 0.0
H119 H 0.70978 0.11498 0.70261 0.0
C120 C 0.79061 0.21633 0.59461 0.0
N121 N 0.8367 0.25577 0.56419 0.0
C122 C 0.80103 0.20568 0.57532 0.0
C123 C 0.80352 0.24702 0.59837 0.0
C124 C 0.82437 0.22599 0.56014 0.0
C125 C 0.82684 0.26661 0.58282 0.0
C126 C 0.79108 0.13333 0.64133 0.0
C127 C 0.81828 0.13625 0.634 0.0
C128 C 0.76825 0.10569 0.64962 0.0
C129 C 0.8219 0.1113 0.63455 0.0
C130 C 0.77272 0.08128 0.64992 0.0
N131 N 0.79922 0.08455 0.6424 0.0
C132 C 0.84668 0.25028 0.65458 0.0
C133 C 0.85488 0.22217 0.62378 0.0
C134 C 0.87719 0.26833 0.65835 0.0
N135 N 0.83617 0.22738 0.63792 0.0
C136 C 0.88563 0.2394 0.62725 0.0
C137 C 0.89699 0.26233 0.6452 0.0
H138 H 0.83145 0.25358 0.66598 0.0
H139 H 0.84588 0.20378 0.61069 0.0
C140 C 0.71643 0.12139 0.58043 0.0
N141 N 0.74282 0.12807 0.59109 0.0
C142 C 0.70436 0.1002 0.56136 0.0
C143 C 0.74746 0.094 0.56395 0.0
C144 C 0.75879 0.11549 0.58286 0.0
C145 C 0.71962 0.0857 0.55325 0.0
H146 H 0.70441 0.13203 0.58726 0.0
H147 H 0.78002 0.12164 0.59124 0.0
O148 O 0.77486 0.20106 0.66893 0.0
O149 O 0.72218 0.14633 0.64303 0.0
O150 O 0.76828 0.19677 0.61005 0.0
O151 O 0.7872 0.15759 0.64087 0.0
H152 H 0.75017 0.18567 0.71408 0.0
H153 H 0.78701 0.25628 0.65928 0.0
H154 H 0.74014 0.21795 0.74187 0.0
H155 H 0.77635 0.28733 0.68809 0.0
H156 H 0.66312 0.04538 0.64062 0.0
H157 H 0.67888 0.14149 0.67257 0.0
H158 H 0.70854 0.09187 0.62825 0.0
H159 H 0.63384 0.09409 0.68403 0.0
H160 H 0.68291 0.22479 0.68461 0.0
H161 H 0.7216 0.26732 0.61369 0.0
H162 H 0.81101 0.15537 0.73688 0.0
H163 H 0.71542 0.1049 0.74688 0.0
H164 H 0.79138 0.18199 0.57223 0.0
H165 H 0.79587 0.25563 0.61334 0.0
H166 H 0.83275 0.21807 0.5452 0.0
H167 H 0.83716 0.29041 0.5856 0.0
H168 H 0.83639 0.1575 0.62784 0.0
H169 H 0.74746 0.10318 0.65613 0.0
H170 H 0.84277 0.11323 0.62876 0.0
H171 H 0.75516 0.05976 0.65626 0.0
H172 H 0.88508 0.28554 0.6726 0.0
H173 H 0.90029 0.23425 0.61666 0.0
H174 H 0.68315 0.095 0.55328 0.0
H175 H 0.75995 0.08334 0.55842 0.0
Li176 Li 0.59571 0.75921 -0.00056 0.0
Li177 Li 0.55727 0.75253 0.96922 0.0
Li178 Li 0.6042 0.7544 0.95551 0.0
Li179 Li 0.60513 0.79962 0.96955 0.0
C180 C 0.56947 0.70095 0.99069 0.0
N181 N 0.56538 0.65367 0.0179 0.0
C182 C 0.54263 0.68063 0.00211 0.0
C183 C 0.59417 0.69713 0.9929 0.0
C184 C 0.54103 0.65691 0.01586 0.0
C185 C 0.59167 0.6731 0.00679 0.0
C186 C 0.55738 0.79376 0.00196 0.0
C187 C 0.532 0.82001 0.98963 0.0
N188 N 0.52177 0.81765 0.01353 0.0
C189 C 0.5467 0.79165 0.0264 0.0
C190 C 0.55006 0.80809 0.98342 0.0
C191 C 0.52869 0.80385 0.03187 0.0
C192 C 0.62762 0.77454 0.04391 0.0
N193 N 0.60095 0.75483 0.03361 0.0
C194 C 0.57685 0.74595 0.07329 0.0
C195 C 0.57604 0.73965 0.04778 0.0
C196 C 0.60341 0.76848 0.08395 0.0
C197 C 0.62942 0.78161 0.06935 0.0
H198 H 0.64672 0.78718 0.03194 0.0
H199 H 0.55492 0.7252 0.03883 0.0
C200 C 0.50175 0.73419 0.94465 0.0
N201 N 0.51568 0.73545 0.96659 0.0
C202 C 0.47133 0.72458 0.94455 0.0
C203 C 0.47033 0.71707 0.98946 0.0
C204 C 0.50058 0.72652 0.98863 0.0
C205 C 0.45533 0.71649 0.9673 0.0
H206 H 0.51439 0.74135 0.92738 0.0
H207 H 0.51239 0.72788 0.00578 0.0
C208 C 0.66081 0.79327 0.97548 0.0
N209 N 0.7198 0.811 0.96663 0.0
C210 C 0.67848 0.81871 0.9611 0.0
C211 C 0.67319 0.77705 0.9856 0.0
C212 C 0.70825 0.82726 0.95679 0.0
C213 C 0.70304 0.7863 0.98083 0.0
C214 C 0.5908 0.79236 0.9193 0.0
C215 C 0.6174 0.80076 0.90658 0.0
C216 C 0.57185 0.80233 0.91068 0.0
C217 C 0.62466 0.81911 0.88545 0.0
C218 C 0.57995 0.82073 0.88953 0.0
N219 N 0.60596 0.82865 0.87745 0.0
C220 C 0.59833 0.70746 0.92661 0.0
C221 C 0.64682 0.7495 0.92392 0.0
C222 C 0.60632 0.69126 0.9107 0.0
N223 N 0.61855 0.73595 0.933 0.0
C224 C 0.65579 0.73414 0.90799 0.0
C225 C 0.63543 0.70461 0.90124 0.0
H226 H 0.57595 0.69724 0.93399 0.0
H227 H 0.66243 0.77229 0.9287 0.0
C228 C 0.6264 0.85184 -0.00546 0.0
N229 N 0.62367 0.84199 0.97049 0.0
C230 C 0.63975 0.88214 -0.00033 0.0
C231 C 0.64882 0.89215 0.95522 0.0
C232 C 0.63451 0.86139 0.95085 0.0
C233 C 0.65128 0.90262 0.9799 0.0
H234 H 0.61842 0.83606 0.00988 0.0
H235 H 0.63262 0.85325 0.93194 0.0
O236 O 0.57154 0.72444 0.97733 0.0
O237 O 0.57476 0.78164 -0.00379 0.0
O238 O 0.63171 0.7847 0.98008 0.0
O239 O 0.58308 0.77407 0.93981 0.0
H240 H 0.52328 0.68325 0.00047 0.0
H241 H 0.61502 0.71254 0.98399 0.0
H242 H 0.52043 0.64107 0.0249 0.0
H243 H 0.61063 0.66989 0.00872 0.0
H244 H 0.52612 0.83112 0.97546 0.0
H245 H 0.5522 0.78065 0.04097 0.0
H246 H 0.55825 0.80997 0.96446 0.0
H247 H 0.52022 0.80235 0.0507 0.0
H248 H 0.55638 0.73521 0.08402 0.0
H249 H 0.65022 0.79933 0.07679 0.0
H250 H 0.46063 0.72406 0.92695 0.0
H251 H 0.45922 0.71159 0.00751 0.0
H252 H 0.66926 0.83153 0.95314 0.0
H253 H 0.65992 0.75755 -0.00294 0.0
H254 H 0.72216 0.84679 0.94558 0.0
H255 H 0.7129 0.77389 0.98845 0.0
H256 H 0.63242 0.7935 0.9131 0.0
H257 H 0.55108 0.79591 0.92019 0.0
H258 H 0.64523 0.82586 0.87549 0.0
H259 H 0.56553 0.82866 0.88269 0.0
H260 H 0.58998 0.66846 0.9061 0.0
H261 H 0.67829 0.74546 0.9007 0.0
H262 H 0.64177 0.88957 0.01896 0.0
H263 H 0.65778 0.90754 0.93959 0.0
Li264 Li 0.83993 0.5955 0.33458 0.0
Li265 Li 0.80578 0.55347 0.30632 0.0
Li266 Li 0.85031 0.59844 0.29006 0.0
Li267 Li 0.80907 0.60217 0.30488 0.0
C268 C 0.86315 0.55632 0.32624 0.0
N269 N 0.89245 0.53137 0.35068 0.0
C270 C 0.84729 0.53101 0.34122 0.0
C271 C 0.89386 0.56858 0.3233 0.0
C272 C 0.86251 0.51884 0.35354 0.0
C273 C 0.90828 0.55575 0.33591 0.0
C274 C 0.77227 0.57357 0.34262 0.0
C275 C 0.71957 0.55594 0.3425 0.0
N276 N 0.72352 0.57526 0.36138 0.0
C277 C 0.77579 0.59318 0.36207 0.0
C278 C 0.74393 0.55474 0.33277 0.0
C279 C 0.75088 0.59372 0.37129 0.0
C280 C 0.85994 0.63111 0.3782 0.0
N281 N 0.85024 0.60327 0.36892 0.0
C282 C 0.83017 0.58145 0.40873 0.0
C283 C 0.83682 0.57879 0.38387 0.0
C284 C 0.83699 0.6095 0.418 0.0
C285 C 0.85375 0.63477 0.40302 0.0
H286 H 0.86908 0.65009 0.36577 0.0
H287 H 0.82788 0.55689 0.37578 0.0
C288 C 0.7774 0.49521 0.28456 0.0
N289 N 0.78033 0.5117 0.30532 0.0
C290 C 0.75764 0.46443 0.2847 0.0
C291 C 0.7447 0.4685 0.32757 0.0
C292 C 0.76471 0.49899 0.32663 0.0
C293 C 0.74081 0.45071 0.30641 0.0
H294 H 0.79024 0.50599 0.2679 0.0
H295 H 0.76764 0.51267 0.3429 0.0
C296 C 0.88002 0.65248 0.31569 0.0
N297 N 0.93804 0.69785 0.32227 0.0
C298 C 0.88785 0.68196 0.31056 0.0
C299 C 0.90164 0.6461 0.32427 0.0
C300 C 0.91732 0.70458 0.31396 0.0
C301 C 0.93086 0.66932 0.32746 0.0
C302 C 0.80855 0.59015 0.25344 0.0
C303 C 0.82032 0.62094 0.25153 0.0
C304 C 0.79697 0.57229 0.23211 0.0
C305 C 0.82035 0.63336 0.22824 0.0
C306 C 0.79739 0.58556 0.20915 0.0
N307 N 0.80899 0.61557 0.2077 0.0
C308 C 0.8899 0.59283 0.2573 0.0
C309 C 0.89266 0.63987 0.25656 0.0
C310 C 0.9123 0.60232 0.23919 0.0
N311 N 0.8807 0.61167 0.2656 0.0
C312 C 0.91516 0.65033 0.23864 0.0
C313 C 0.92522 0.63146 0.2296 0.0
H314 H 0.87973 0.5704 0.26469 0.0
H315 H 0.88471 0.65429 0.26322 0.0
C316 C 0.79667 0.64636 0.31736 0.0
N317 N 0.78615 0.62131 0.30321 0.0
C318 C 0.7793 0.6595 0.32134 0.0
C319 C 0.74098 0.62149 0.2952 0.0
C320 C 0.75919 0.60904 0.2917 0.0
C321 C 0.75074 0.64663 0.31073 0.0
H322 H 0.81802 0.65532 0.32656 0.0
H323 H 0.75126 0.58878 0.28089 0.0
O324 O 0.84857 0.5683 0.31369 0.0
O325 O 0.79649 0.57317 0.33295 0.0
O326 O 0.85133 0.63009 0.31203 0.0
O327 O 0.80843 0.57739 0.27597 0.0
H328 H 0.82349 0.52092 0.34344 0.0
H329 H 0.90645 0.58771 0.31127 0.0
H330 H 0.85051 0.49938 0.36535 0.0
H331 H 0.93205 0.5651 0.33388 0.0
H332 H 0.69754 0.54162 0.33497 0.0
H333 H 0.79754 0.60811 0.36976 0.0
H334 H 0.74086 0.53965 0.31753 0.0
H335 H 0.75331 0.60889 0.38625 0.0
H336 H 0.81734 0.56146 0.41981 0.0
H337 H 0.85904 0.65672 0.40942 0.0
H338 H 0.75556 0.45157 0.26803 0.0
H339 H 0.73187 0.45917 0.34454 0.0
H340 H 0.87135 0.68725 0.30383 0.0
H341 H 0.89582 0.62353 0.32872 0.0
H342 H 0.92372 0.72749 0.30998 0.0
H343 H 0.94781 0.66467 0.33413 0.0
H344 H 0.82949 0.63516 0.26779 0.0
H345 H 0.7878 0.54842 0.2333 0.0
H346 H 0.82946 0.65716 0.22648 0.0
H347 H 0.78852 0.57201 0.19247 0.0
H348 H 0.91907 0.58688 0.23252 0.0
H349 H 0.92473 0.6731 0.23211 0.0
H350 H 0.78787 0.67913 0.3331 0.0
H351 H 0.71901 0.61074 0.28684 0.0
Li352 Li 0.24098 0.84154 0.66068 0.0
Li353 Li 0.24916 0.80763 0.63229 0.0
Li354 Li 0.2552 0.85549 0.6171 0.0
Li355 Li 0.20701 0.81563 0.62703 0.0
C356 C 0.30429 0.86225 0.65631 0.0
N357 N 0.35759 0.8892 0.68224 0.0
C358 C 0.31202 0.84529 0.67164 0.0
C359 C 0.32397 0.89286 0.65379 0.0
C360 C 0.33897 0.85934 0.68472 0.0
C361 C 0.35073 0.90609 0.66715 0.0
C362 C 0.19126 0.77331 0.66188 0.0
C363 C 0.15432 0.72225 0.65325 0.0
N364 N 0.13781 0.72276 0.67288 0.0
C365 C 0.17404 0.77329 0.68206 0.0
C366 C 0.18145 0.74757 0.64742 0.0
C367 C 0.14705 0.74752 0.68729 0.0
C368 C 0.21984 0.8573 0.703 0.0
N369 N 0.2396 0.84903 0.69515 0.0
C370 C 0.23955 0.82911 0.7355 0.0
C371 C 0.25033 0.83615 0.71104 0.0
C372 C 0.21718 0.83494 0.74343 0.0
C373 C 0.20848 0.85069 0.72738 0.0
H374 H 0.21037 0.86597 0.6897 0.0
H375 H 0.26473 0.82839 0.70399 0.0
C376 C 0.27786 0.77631 0.61386 0.0
N377 N 0.26279 0.78001 0.63308 0.0
C378 C 0.28751 0.75556 0.61602 0.0
C379 C 0.26594 0.74319 0.65761 0.0
C380 C 0.25683 0.76407 0.65467 0.0
C381 C 0.28156 0.73868 0.63818 0.0
H382 H 0.2824 0.78947 0.59694 0.0
H383 H 0.24499 0.76767 0.6697 0.0
C384 C 0.2313 0.88654 0.64194 0.0
N385 N 0.24699 0.9448 0.65232 0.0
C386 C 0.21223 0.89718 0.63537 0.0
C387 C 0.25817 0.90541 0.65402 0.0
C388 C 0.22061 0.92674 0.64071 0.0
C389 C 0.26575 0.93482 0.65905 0.0
C390 C 0.22424 0.81838 0.5771 0.0
C391 C 0.2094 0.83448 0.57436 0.0
C392 C 0.22978 0.80592 0.55598 0.0
C393 C 0.20037 0.83786 0.55046 0.0
C394 C 0.22037 0.80978 0.5324 0.0
N395 N 0.206 0.82555 0.53015 0.0
C396 C 0.30461 0.89087 0.58658 0.0
C397 C 0.26777 0.90515 0.5865 0.0
C398 C 0.32187 0.91346 0.56949 0.0
N399 N 0.27819 0.88726 0.59474 0.0
C400 C 0.28448 0.92827 0.56978 0.0
C401 C 0.31183 0.93255 0.56105 0.0
H402 H 0.31212 0.87602 0.59325 0.0
H403 H 0.24627 0.90123 0.59253 0.0
C404 C 0.15148 0.80438 0.63906 0.0
N405 N 0.16534 0.79612 0.62196 0.0
C406 C 0.12065 0.78873 0.64109 0.0
C407 C 0.11862 0.7573 0.60671 0.0
C408 C 0.14975 0.7734 0.60561 0.0
C409 C 0.10365 0.76449 0.62505 0.0
H410 H 0.1646 0.82215 0.65216 0.0
H411 H 0.16145 0.76705 0.59244 0.0
O412 O 0.27821 0.84881 0.64303 0.0
O413 O 0.21735 0.79856 0.65601 0.0
O414 O 0.22336 0.85767 0.63666 0.0
O415 O 0.23363 0.81496 0.60024 0.0
H416 H 0.29732 0.82153 0.67355 0.0
H417 H 0.31875 0.90627 0.64154 0.0
H418 H 0.34511 0.84649 0.69679 0.0
H419 H 0.36608 0.92976 0.66546 0.0
H420 H 0.14633 0.70224 0.64211 0.0
H421 H 0.18129 0.79304 0.69341 0.0
H422 H 0.19449 0.74731 0.63166 0.0
H423 H 0.13341 0.74723 0.70276 0.0
H424 H 0.24691 0.8171 0.74743 0.0
H425 H 0.19095 0.85517 0.73269 0.0
H426 H 0.29963 0.75292 0.60064 0.0
H427 H 0.26029 0.73032 0.67481 0.0
H428 H 0.19126 0.88276 0.6261 0.0
H429 H 0.27278 0.89732 0.65974 0.0
H430 H 0.20614 0.93533 0.63562 0.0
H431 H 0.28651 0.94967 0.66839 0.0
H432 H 0.20491 0.84432 0.59044 0.0
H433 H 0.24129 0.79344 0.55781 0.0
H434 H 0.18891 0.8503 0.54806 0.0
H435 H 0.22453 0.80028 0.51588 0.0
H436 H 0.34285 0.9161 0.56305 0.0
H437 H 0.27575 0.94219 0.56325 0.0
H438 H 0.11049 0.79478 0.65598 0.0
H439 H 0.10654 0.73907 0.59373 0.0
Li440 Li 0.44506 0.25528 0.97483 0.0
Li441 Li 0.39866 0.24637 -0.00287 0.0
Li442 Li 0.39588 0.21209 0.96489 0.0
Li443 Li 0.40409 0.25954 0.95413 0.0
C444 C 0.41304 0.19637 0.00735 0.0
N445 N 0.40041 0.14222 0.02775 0.0
C446 C 0.38631 0.17888 0.02019 0.0
C447 C 0.43331 0.18624 0.00484 0.0
C448 C 0.38034 0.1516 0.03037 0.0
C449 C 0.42653 0.15883 0.01531 0.0
C450 C 0.43652 0.30362 0.00129 0.0
C451 C 0.42149 0.33137 0.02794 0.0
N452 N 0.44737 0.34207 0.04099 0.0
C453 C 0.46308 0.3151 0.01483 0.0
C454 C 0.41565 0.31201 0.00775 0.0
C455 C 0.46811 0.33443 0.03489 0.0
C456 C 0.50632 0.28783 0.96173 0.0
N457 N 0.48622 0.27016 0.97929 0.0
C458 C 0.52472 0.27196 0.00501 0.0
C459 C 0.49483 0.26267 0.00087 0.0
C460 C 0.54609 0.28955 0.98692 0.0
C461 C 0.53657 0.29784 0.96517 0.0
H462 H 0.49877 0.29379 0.94492 0.0
H463 H 0.47839 0.2492 0.01479 0.0
C464 C 0.3556 0.22982 0.03554 0.0
N465 N 0.3852 0.24509 0.0302 0.0
C466 C 0.34591 0.21643 0.05911 0.0
C467 C 0.3974 0.23726 0.07152 0.0
C468 C 0.40606 0.25018 0.04789 0.0
C469 C 0.36706 0.21873 0.07674 0.0
H470 H 0.33955 0.22499 0.02073 0.0
H471 H 0.4293 0.26113 0.04272 0.0
C472 C 0.42922 0.22127 0.9249 0.0
N473 N 0.43408 0.18242 0.89231 0.0
C474 C 0.40588 0.20359 0.90853 0.0
C475 C 0.45506 0.2192 0.92464 0.0
C476 C 0.40875 0.18407 0.89223 0.0
C477 C 0.45709 0.19944 0.90803 0.0
C478 C 0.34689 0.2302 0.95896 0.0
C479 C 0.33319 0.21337 0.93748 0.0
C480 C 0.33879 0.25052 0.96778 0.0
C481 C 0.31191 0.21754 0.92492 0.0
C482 C 0.31744 0.25407 0.95468 0.0
N483 N 0.30458 0.23767 0.93369 0.0
C484 C 0.34651 0.15479 0.96542 0.0
C485 C 0.39121 0.15527 0.95536 0.0
C486 C 0.3315 0.12391 0.96821 0.0
N487 N 0.37596 0.16987 0.95959 0.0
C488 C 0.37701 0.12432 0.95784 0.0
C489 C 0.34699 0.10839 0.96512 0.0
H490 H 0.33508 0.1669 0.96954 0.0
H491 H 0.41486 0.1677 0.95185 0.0
C492 C 0.40489 0.31072 0.93401 0.0
N493 N 0.39788 0.28216 0.92929 0.0
C494 C 0.40146 0.32766 0.91527 0.0
C495 C 0.38344 0.28533 0.88738 0.0
C496 C 0.3875 0.26941 0.90651 0.0
C497 C 0.39069 0.315 0.89151 0.0
H498 H 0.41351 0.32047 0.95221 0.0
H499 H 0.38228 0.24678 0.9032 0.0
O500 O 0.41901 0.22289 -0.00323 0.0
O501 O 0.43103 0.28442 0.98174 0.0
O502 O 0.42696 0.24069 0.9409 0.0
O503 O 0.36817 0.22684 0.97125 0.0
H504 H 0.37005 0.18598 0.02187 0.0
H505 H 0.45383 0.19914 -0.00549 0.0
H506 H 0.35967 0.1378 0.04024 0.0
H507 H 0.44196 0.15067 0.0134 0.0
H508 H 0.40545 0.33791 0.03322 0.0
H509 H 0.47962 0.30909 0.01 0.0
H510 H 0.39511 0.30356 -0.00265 0.0
H511 H 0.48851 0.34335 0.04561 0.0
H512 H 0.53081 0.26466 0.02191 0.0
H513 H 0.55226 0.31177 0.95091 0.0
H514 H 0.32234 0.20197 0.06252 0.0
H515 H 0.41424 0.23938 0.08472 0.0
H516 H 0.38553 0.20446 0.90872 0.0
H517 H 0.47329 0.23252 0.93722 0.0
H518 H 0.39078 0.17013 0.8796 0.0
H519 H 0.47693 0.19757 0.90768 0.0
H520 H 0.33918 0.19752 0.9304 0.0
H521 H 0.3489 0.26344 0.98453 0.0
H522 H 0.3013 0.20484 0.90816 0.0
H523 H 0.31109 0.26986 0.96121 0.0
H524 H 0.30828 0.11243 0.97367 0.0
H525 H 0.3899 0.11327 0.9557 0.0
H526 H 0.40766 0.35053 0.91925 0.0
H527 H 0.37444 0.27434 0.86961 0.0
Li528 Li 0.58038 0.83621 0.37597 0.0
Li529 Li 0.57312 0.79013 0.35764 0.0
Li530 Li 0.56878 0.82567 0.33269 0.0
Li531 Li 0.52967 0.79641 0.36192 0.0
C532 C 0.62479 0.83107 0.33371 0.0
N533 N 0.66508 0.82979 0.30055 0.0
C534 C 0.6148 0.81088 0.31368 0.0
C535 C 0.65528 0.8505 0.33689 0.0
C536 C 0.63552 0.81062 0.29711 0.0
C537 C 0.6753 0.84953 0.31992 0.0
C538 C 0.56374 0.78251 0.4081 0.0
C539 C 0.55285 0.74221 0.4367 0.0
N540 N 0.5811 0.75775 0.44578 0.0
C541 C 0.59259 0.79817 0.41783 0.0
C542 C 0.54362 0.75437 0.4177 0.0
C543 C 0.60097 0.78524 0.43682 0.0
C544 C 0.58808 0.86445 0.42243 0.0
N545 N 0.60075 0.86656 0.39967 0.0
C546 C 0.64148 0.91462 0.40967 0.0
C547 C 0.62705 0.89074 0.3931 0.0
C548 C 0.62871 0.91342 0.43323 0.0
C549 C 0.60185 0.88769 0.43967 0.0
H550 H 0.5671 0.84485 0.42702 0.0
H551 H 0.6364 0.89175 0.37473 0.0
C552 C 0.57728 0.73815 0.34387 0.0
N553 N 0.58948 0.76377 0.35754 0.0
C554 C 0.59259 0.72271 0.34049 0.0
C555 C 0.63275 0.75978 0.36563 0.0
C556 C 0.61659 0.77449 0.3686 0.0
C557 C 0.62101 0.73385 0.35093 0.0
H558 H 0.5564 0.73015 0.33442 0.0
H559 H 0.62653 0.79547 0.37852 0.0
C560 C 0.54938 0.86138 0.34181 0.0
N561 N 0.54971 0.90361 0.30993 0.0
C562 C 0.5238 0.85507 0.3283 0.0
C563 C 0.57507 0.88923 0.33925 0.0
C564 C 0.52443 0.87671 0.31225 0.0
C565 C 0.57481 0.91026 0.323 0.0
C566 C 0.5223 0.75298 0.3276 0.0
C567 C 0.51546 0.74287 0.30284 0.0
C568 C 0.50846 0.73302 0.34742 0.0
C569 C 0.49489 0.71289 0.29831 0.0
C570 C 0.48795 0.70324 0.34212 0.0
N571 N 0.48166 0.69387 0.31788 0.0
C572 C 0.60263 0.86243 0.29162 0.0
C573 C 0.55243 0.82577 0.28354 0.0
C574 C 0.60877 0.86617 0.26594 0.0
N575 N 0.57527 0.84123 0.29973 0.0
C576 C 0.55745 0.82903 0.25777 0.0
C577 C 0.58632 0.8482 0.24878 0.0
H578 H 0.62029 0.87461 0.30503 0.0
H579 H 0.53092 0.80917 0.29067 0.0
C580 C 0.47581 0.76553 0.38994 0.0
N581 N 0.48811 0.77652 0.36711 0.0
C582 C 0.44515 0.74615 0.39201 0.0
C583 C 0.44059 0.75098 0.34727 0.0
C584 C 0.47118 0.77035 0.34611 0.0
C585 C 0.42723 0.73789 0.37032 0.0
H586 H 0.48996 0.77067 0.40627 0.0
H587 H 0.48175 0.77901 0.32815 0.0
O588 O 0.60504 0.83184 0.35033 0.0
O589 O 0.55515 0.79473 0.3894 0.0
O590 O 0.54948 0.84024 0.35712 0.0
O591 O 0.54173 0.78246 0.33229 0.0
H592 H 0.59134 0.79561 0.31085 0.0
H593 H 0.66339 0.86617 0.35234 0.0
H594 H 0.62808 0.79519 0.28151 0.0
H595 H 0.69896 0.86446 0.32216 0.0
H596 H 0.53753 0.72042 0.44427 0.0
H597 H 0.60853 0.81989 0.41056 0.0
H598 H 0.52107 0.74206 0.41066 0.0
H599 H 0.6233 0.79703 0.44439 0.0
H600 H 0.66191 0.93413 0.40377 0.0
H601 H 0.59147 0.88557 0.45777 0.0
H602 H 0.58256 0.70264 0.32919 0.0
H603 H 0.65483 0.76948 0.37368 0.0
H604 H 0.50373 0.83366 0.33009 0.0
H605 H 0.59511 0.89439 0.34944 0.0
H606 H 0.50483 0.87209 0.30159 0.0
H607 H 0.5946 0.93184 0.32071 0.0
H608 H 0.52595 0.75801 0.28727 0.0
H609 H 0.51357 0.74044 0.36664 0.0
H610 H 0.48941 0.70475 0.27924 0.0
H611 H 0.47706 0.68758 0.35728 0.0
H612 H 0.63122 0.88142 0.25964 0.0
H613 H 0.53956 0.81461 0.24521 0.0
H614 H 0.43578 0.73688 0.41021 0.0
H615 H 0.42797 0.74491 0.32995 0.0
Li616 Li 0.78487 0.59205 0.68202 0.0
Li617 Li 0.7419 0.58606 0.70458 0.0
Li618 Li 0.74025 0.54335 0.68022 0.0
Li619 Li 0.74288 0.58649 0.65984 0.0
C620 C 0.78813 0.56605 0.72228 0.0
N621 N 0.83843 0.5711 0.74469 0.0
C622 C 0.80499 0.58963 0.73868 0.0
C623 C 0.7967 0.54494 0.71736 0.0
C624 C 0.8304 0.59183 0.74979 0.0
C625 C 0.82223 0.5479 0.72887 0.0
C626 C 0.7661 0.64424 0.68153 0.0
C627 C 0.73703 0.66837 0.6871 0.0
N628 N 0.76031 0.69437 0.67863 0.0
C629 C 0.78978 0.67125 0.67292 0.0
C630 C 0.73953 0.64282 0.68869 0.0
C631 C 0.7864 0.69631 0.67157 0.0
C632 C 0.84052 0.59629 0.67269 0.0
N633 N 0.82711 0.61129 0.68138 0.0
C634 C 0.87357 0.65681 0.6825 0.0
C635 C 0.84301 0.64075 0.68697 0.0
C636 C 0.8881 0.64225 0.67264 0.0
C637 C 0.87117 0.61132 0.66844 0.0
H638 H 0.82722 0.57283 0.66829 0.0
H639 H 0.83174 0.65201 0.69401 0.0
C640 C 0.69967 0.57813 0.74102 0.0
N641 N 0.72847 0.59566 0.73395 0.0
C642 C 0.68855 0.58604 0.76164 0.0
C643 C 0.73721 0.62955 0.76747 0.0
C644 C 0.74738 0.62075 0.74678 0.0
C645 C 0.70732 0.6123 0.77494 0.0
H646 H 0.68522 0.55832 0.73033 0.0
H647 H 0.77011 0.63435 0.74045 0.0
C648 C 0.7839 0.57919 0.63164 0.0
N649 N 0.81738 0.60418 0.58877 0.0
C650 C 0.79884 0.61009 0.62809 0.0
C651 C 0.78622 0.56107 0.61341 0.0
C652 C 0.81559 0.62227 0.60631 0.0
C653 C 0.8032 0.57411 0.59186 0.0
C654 C 0.68546 0.54772 0.66676 0.0
C655 C 0.67116 0.51926 0.65606 0.0
C656 C 0.67428 0.56688 0.66229 0.0
C657 C 0.64636 0.51069 0.64069 0.0
C658 C 0.64946 0.55751 0.64678 0.0
N659 N 0.63614 0.52985 0.63636 0.0
C660 C 0.7167 0.48507 0.69983 0.0
C661 C 0.72521 0.49005 0.65588 0.0
C662 C 0.70716 0.45467 0.69855 0.0
N663 N 0.72571 0.502 0.67868 0.0
C664 C 0.71595 0.45986 0.65373 0.0
C665 C 0.70702 0.44175 0.67528 0.0
H666 H 0.71728 0.49529 0.71769 0.0
H667 H 0.7322 0.50408 0.6394 0.0
C668 C 0.74197 0.62473 0.62062 0.0
N669 N 0.7323 0.59631 0.62836 0.0
C670 C 0.74526 0.63149 0.59503 0.0
C671 C 0.72492 0.57915 0.58602 0.0
C672 C 0.72225 0.57345 0.61169 0.0
C673 C 0.73836 0.60871 0.57751 0.0
H674 H 0.74993 0.64264 0.63399 0.0
H675 H 0.71555 0.55124 0.61828 0.0
O676 O 0.76367 0.56397 0.71069 0.0
O677 O 0.76922 0.61956 0.68303 0.0
O678 O 0.76645 0.56657 0.65246 0.0
O679 O 0.70995 0.55652 0.68173 0.0
H680 H 0.79871 0.60622 0.74255 0.0
H681 H 0.78397 0.52667 0.70456 0.0
H682 H 0.84378 0.61005 0.76241 0.0
H683 H 0.82924 0.53182 0.72515 0.0
H684 H 0.71657 0.66753 0.69262 0.0
H685 H 0.81044 0.67281 0.66701 0.0
H686 H 0.72106 0.62231 0.69554 0.0
H687 H 0.8045 0.71729 0.66485 0.0
H688 H 0.88531 0.68059 0.68578 0.0
H689 H 0.88128 0.59885 0.66148 0.0
H690 H 0.66547 0.57194 0.76695 0.0
H691 H 0.7523 0.65019 0.77691 0.0
H692 H 0.79734 0.62456 0.64184 0.0
H693 H 0.77494 0.53715 0.61577 0.0
H694 H 0.82707 0.6461 0.6033 0.0
H695 H 0.80506 0.56031 0.57757 0.0
H696 H 0.67904 0.50388 0.65957 0.0
H697 H 0.68473 0.58886 0.67044 0.0
H698 H 0.63523 0.48879 0.63221 0.0
H699 H 0.64078 0.57223 0.64301 0.0
H700 H 0.70014 0.4415 0.71559 0.0
H701 H 0.71665 0.45104 0.63547 0.0
H702 H 0.7554 0.65454 0.58913 0.0
H703 H 0.71965 0.56093 0.57322 0.0
Li704 Li 0.19541 0.78708 0.01338 0.0
Li705 Li 0.1542 0.74514 0.03317 0.0
Li706 Li 0.195 0.73985 0.01141 0.0
Li707 Li 0.15852 0.74744 0.98817 0.0
C708 C 0.21661 0.78683 0.05666 0.0
N709 N 0.25551 0.83616 0.08435 0.0
C710 C 0.20567 0.80013 0.07304 0.0
C711 C 0.24728 0.7985 0.05439 0.0
C712 C 0.22571 0.82509 0.08688 0.0
C713 C 0.2666 0.82349 0.06855 0.0
C714 C 0.1476 0.79402 -0.00288 0.0
C715 C 0.12007 0.8194 0.98951 0.0
N716 N 0.13802 0.83367 0.96958 0.0
C717 C 0.16583 0.80905 0.97662 0.0
C718 C 0.12458 0.79931 0.00368 0.0
C719 C 0.16061 0.82896 0.96292 0.0
C720 C 0.249 0.84309 0.00592 0.0
N721 N 0.22076 0.82979 0.015 0.0
C722 C 0.22441 0.87727 0.02074 0.0
C723 C 0.20885 0.84632 0.02346 0.0
C724 C 0.25275 0.89139 0.00959 0.0
C725 C 0.26544 0.87395 0.003 0.0
H726 H 0.25866 0.82982 0.00042 0.0
H727 H 0.18668 0.83538 0.03133 0.0
C728 C 0.13366 0.72377 0.08219 0.0
N729 N 0.12705 0.73194 0.05994 0.0
C730 C 0.11291 0.71356 0.10173 0.0
C731 C 0.07917 0.72038 0.07487 0.0
C732 C 0.10059 0.7306 0.05598 0.0
C733 C 0.08519 0.71171 0.09815 0.0
H734 H 0.15502 0.72522 0.08473 0.0
H735 H 0.09605 0.73727 0.03804 0.0
C736 C 0.2255 0.78048 0.96847 0.0
N737 N 0.27334 0.80492 0.93578 0.0
C738 C 0.22257 0.78978 0.94449 0.0
C739 C 0.25281 0.78357 0.97573 0.0
C740 C 0.24701 0.80212 0.92828 0.0
C741 C 0.2767 0.79598 0.95897 0.0
C742 C 0.12826 0.69045 -0.00308 0.0
C743 C 0.13318 0.66992 0.9839 0.0
C744 C 0.1003 0.68819 -0.00411 0.0
C745 C 0.11006 0.64758 0.96982 0.0
C746 C 0.07776 0.66555 0.98159 0.0
N747 N 0.08307 0.64589 0.96895 0.0
C748 C 0.23673 0.72288 0.02784 0.0
C749 C 0.21919 0.71075 0.98593 0.0
C750 C 0.25816 0.71464 0.02329 0.0
N751 N 0.21841 0.7215 0.009 0.0
C752 C 0.24021 0.70235 0.98056 0.0
C753 C 0.26068 0.70518 -0.00088 0.0
H754 H 0.23581 0.73192 0.0459 0.0
H755 H 0.20467 0.71048 0.97123 0.0
C756 C 0.11912 0.74599 0.94941 0.0
N757 N 0.13962 0.73835 0.95634 0.0
C758 C 0.1136 0.74773 0.92397 0.0
C759 C 0.14707 0.72949 0.91382 0.0
C760 C 0.15222 0.72852 0.93934 0.0
C761 C 0.12893 0.74089 0.90586 0.0
H762 H 0.1088 0.75296 0.96339 0.0
H763 H 0.16839 0.72253 0.9455 0.0
O764 O 0.19735 0.763 0.04239 0.0
O765 O 0.15212 0.77427 0.01083 0.0
O766 O 0.20148 0.76744 0.98433 0.0
O767 O 0.15077 0.71287 0.01039 0.0
H768 H 0.18196 0.79146 0.07482 0.0
H769 H 0.25609 0.78861 0.0416 0.0
H770 H 0.21759 0.83572 0.09955 0.0
H771 H 0.29041 0.83289 0.0669 0.0
H772 H 0.10231 0.82366 -0.00564 0.0
H773 H 0.18387 0.8055 0.97142 0.0
H774 H 0.11033 0.78797 0.01955 0.0
H775 H 0.17455 0.84068 0.947 0.0
H776 H 0.2137 0.88974 0.0262 0.0
H777 H 0.28763 0.88396 -0.00486 0.0
H778 H 0.11863 0.70748 0.11946 0.0
H779 H 0.05796 0.71887 0.07109 0.0
H780 H 0.20166 0.78748 0.93836 0.0
H781 H 0.25573 0.77694 -0.00573 0.0
H782 H 0.24502 0.80939 0.9097 0.0
H783 H 0.29795 0.79857 0.96442 0.0
H784 H 0.1546 0.6712 0.98465 0.0
H785 H 0.09621 0.70404 0.00568 0.0
H786 H 0.11357 0.63158 0.95959 0.0
H787 H 0.05608 0.66367 0.98048 0.0
H788 H 0.27373 0.71744 0.03803 0.0
H789 H 0.24125 0.69492 0.96178 0.0
H790 H 0.09912 0.75621 0.91851 0.0
H791 H 0.15951 0.72419 0.90051 0.0
Li792 Li 0.40594 0.1877 0.34067 0.0
Li793 Li 0.41252 0.14888 0.35679 0.0
Li794 Li 0.45338 0.19012 0.33166 0.0
Li795 Li 0.40519 0.15042 0.3129 0.0
C796 C 0.4409 0.21532 0.37991 0.0
N797 N 0.44866 0.26207 0.41004 0.0
C798 C 0.41839 0.2117 0.39642 0.0
C799 C 0.46739 0.24269 0.37878 0.0
C800 C 0.42272 0.23563 0.41146 0.0
C801 C 0.47088 0.26606 0.39417 0.0
C802 C 0.35477 0.12322 0.35359 0.0
C803 C 0.32365 0.07142 0.36453 0.0
N804 N 0.31092 0.07932 0.38306 0.0
C805 C 0.34123 0.13083 0.37261 0.0
C806 C 0.34577 0.09328 0.34936 0.0
C807 C 0.31914 0.10831 0.38734 0.0
C808 C 0.35858 0.19787 0.33547 0.0
N809 N 0.38748 0.21171 0.34297 0.0
C810 C 0.3894 0.25875 0.34379 0.0
C811 C 0.40293 0.24157 0.34735 0.0
C812 C 0.35985 0.24518 0.33521 0.0
C813 C 0.34427 0.21419 0.3315 0.0
H814 H 0.34711 0.17434 0.33114 0.0
H815 H 0.42622 0.25242 0.35219 0.0
C816 C 0.41318 0.10128 0.38198 0.0
N817 N 0.4058 0.12288 0.38431 0.0
C818 C 0.40771 0.08135 0.40164 0.0
C819 C 0.38737 0.10647 0.42577 0.0
C820 C 0.39355 0.12607 0.40578 0.0
C821 C 0.39438 0.08363 0.42388 0.0
H822 H 0.42326 0.09946 0.36482 0.0
H823 H 0.38803 0.14348 0.40722 0.0
C824 C 0.42177 0.21422 0.29584 0.0
N825 N 0.41015 0.25507 0.27271 0.0
C826 C 0.39619 0.20447 0.28119 0.0
C827 C 0.44148 0.24477 0.29866 0.0
C828 C 0.3907 0.22546 0.26967 0.0
C829 C 0.43521 0.26506 0.28682 0.0
C830 C 0.44194 0.12904 0.31244 0.0
C831 C 0.46793 0.14171 0.29803 0.0
C832 C 0.42058 0.09903 0.30913 0.0
C833 C 0.47194 0.1242 0.28028 0.0
C834 C 0.4254 0.08227 0.29117 0.0
N835 N 0.45076 0.0951 0.27722 0.0
C836 C 0.51463 0.21746 0.34374 0.0
C837 C 0.50341 0.23112 0.30451 0.0
C838 C 0.54491 0.23777 0.34043 0.0
N839 N 0.49463 0.21508 0.32612 0.0
C840 C 0.53333 0.25193 0.30056 0.0
C841 C 0.55457 0.25592 0.31886 0.0
H842 H 0.50695 0.2041 0.36063 0.0
H843 H 0.48704 0.2283 0.29059 0.0
C844 C 0.35803 0.11772 0.2795 0.0
N845 N 0.38807 0.13132 0.28221 0.0
C846 C 0.34549 0.11283 0.25552 0.0
C847 C 0.39486 0.13355 0.23785 0.0
C848 C 0.40646 0.13853 0.26209 0.0
C849 C 0.36418 0.12189 0.2344 0.0
H850 H 0.34406 0.11327 0.29584 0.0
H851 H 0.43029 0.15064 0.26477 0.0
O852 O 0.43725 0.1921 0.3652 0.0
O853 O 0.37677 0.14497 0.33923 0.0
O854 O 0.42712 0.194 0.30783 0.0
O855 O 0.43752 0.14587 0.32981 0.0
H856 H 0.39759 0.19087 0.39729 0.0
H857 H 0.48502 0.24596 0.36608 0.0
H858 H 0.40541 0.2332 0.4242 0.0
H859 H 0.49124 0.28738 0.39344 0.0
H860 H 0.31661 0.04817 0.36157 0.0
H861 H 0.34796 0.15391 0.37616 0.0
H862 H 0.35587 0.08702 0.3346 0.0
H863 H 0.30862 0.11388 0.40224 0.0
H864 H 0.40225 0.28254 0.34705 0.0
H865 H 0.32171 0.20279 0.32436 0.0
H866 H 0.41396 0.06445 0.39945 0.0
H867 H 0.3766 0.10885 0.4423 0.0
H868 H 0.38052 0.18097 0.27899 0.0
H869 H 0.4611 0.25275 0.31031 0.0
H870 H 0.37091 0.2182 0.2584 0.0
H871 H 0.45015 0.28876 0.289 0.0
H872 H 0.48477 0.16485 0.30041 0.0
H873 H 0.40043 0.08883 0.32022 0.0
H874 H 0.49189 0.13374 0.26891 0.0
H875 H 0.40899 0.05906 0.28831 0.0
H876 H 0.56045 0.23953 0.35482 0.0
H877 H 0.53944 0.26552 0.28377 0.0
H878 H 0.32176 0.10398 0.25356 0.0
H879 H 0.41009 0.14147 0.22209 0.0
Li880 Li 0.25896 0.4107 0.70085 0.0
Li881 Li 0.21106 0.40379 0.6927 0.0
Li882 Li 0.23863 0.40216 0.65818 0.0
Li883 Li 0.25225 0.45088 0.6794 0.0
C884 C 0.23141 0.3525 0.68417 0.0
N885 N 0.24716 0.30914 0.6788 0.0
C886 C 0.21258 0.32359 0.69302 0.0
C887 C 0.25824 0.35929 0.67262 0.0
C888 C 0.22094 0.30199 0.69013 0.0
C889 C 0.26581 0.3371 0.67006 0.0
C890 C 0.22702 0.43385 0.73545 0.0
C891 C 0.20626 0.45522 0.76342 0.0
N892 N 0.19527 0.43045 0.77811 0.0
C893 C 0.21573 0.4087 0.75088 0.0
C894 C 0.22244 0.4574 0.74178 0.0
C895 C 0.19964 0.40737 0.77234 0.0
C896 C 0.3121 0.42651 0.72741 0.0
N897 N 0.28335 0.4048 0.72377 0.0
C898 C 0.28822 0.37322 0.75365 0.0
C899 C 0.27109 0.37874 0.73675 0.0
C900 C 0.31793 0.3951 0.7577 0.0
C901 C 0.32993 0.42218 0.74465 0.0
H902 H 0.32109 0.44716 0.717 0.0
H903 H 0.24794 0.36226 0.73411 0.0
C904 C 0.15407 0.356 0.69738 0.0
N905 N 0.17045 0.38548 0.70286 0.0
C906 C 0.12314 0.34179 0.69701 0.0
C907 C 0.12632 0.38805 0.70971 0.0
C908 C 0.15731 0.40144 0.70973 0.0
C909 C 0.10887 0.35811 0.70231 0.0
H910 H 0.16502 0.34409 0.69118 0.0
H911 H 0.17076 0.42508 0.71317 0.0
C912 C 0.30137 0.44449 0.65297 0.0
N913 N 0.34752 0.46546 0.61871 0.0
C914 C 0.30328 0.46365 0.63368 0.0
C915 C 0.32328 0.43645 0.65512 0.0
C916 C 0.32666 0.47388 0.61646 0.0
C917 C 0.34634 0.44716 0.63754 0.0
C918 C 0.18949 0.41844 0.65306 0.0
C919 C 0.1697 0.39139 0.64156 0.0
C920 C 0.1806 0.43936 0.65776 0.0
C921 C 0.14121 0.38562 0.63512 0.0
C922 C 0.15192 0.43276 0.65099 0.0
N923 N 0.13298 0.40625 0.63994 0.0
C924 C 0.21822 0.35595 0.62076 0.0
C925 C 0.23665 0.40562 0.60689 0.0
C926 C 0.20569 0.34496 0.59718 0.0
N927 N 0.23284 0.38583 0.62527 0.0
C928 C 0.22435 0.39562 0.5832 0.0
C929 C 0.20767 0.36491 0.57845 0.0
H930 H 0.21393 0.3404 0.63582 0.0
H931 H 0.2469 0.42904 0.61126 0.0
C932 C 0.28561 0.51304 0.69021 0.0
N933 N 0.26707 0.4919 0.67368 0.0
C934 C 0.29512 0.54309 0.68574 0.0
C935 C 0.26649 0.5288 0.64728 0.0
C936 C 0.25773 0.4992 0.65241 0.0
C937 C 0.28528 0.55128 0.66412 0.0
H938 H 0.29273 0.5065 0.70696 0.0
H939 H 0.24311 0.48188 0.63955 0.0
O940 O 0.2237 0.37398 0.68737 0.0
O941 O 0.24273 0.43553 0.71434 0.0
O942 O 0.27883 0.4345 0.67024 0.0
O943 O 0.21727 0.42423 0.66002 0.0
H944 H 0.19184 0.31795 0.70224 0.0
H945 H 0.27287 0.38132 0.66545 0.0
H946 H 0.2066 0.27957 0.69694 0.0
H947 H 0.2865 0.34209 0.66109 0.0
H948 H 0.2024 0.4732 0.76852 0.0
H949 H 0.21912 0.39031 0.74618 0.0
H950 H 0.23114 0.47703 0.73 0.0
H951 H 0.1906 0.38797 0.7844 0.0
H952 H 0.27825 0.35227 0.76376 0.0
H953 H 0.35281 0.43951 0.74754 0.0
H954 H 0.11077 0.31887 0.69074 0.0
H955 H 0.11625 0.40142 0.71414 0.0
H956 H 0.28688 0.47055 0.63197 0.0
H957 H 0.3226 0.42219 0.67027 0.0
H958 H 0.32828 0.48857 0.60135 0.0
H959 H 0.36336 0.441 0.63892 0.0
H960 H 0.17605 0.37479 0.63803 0.0
H961 H 0.19548 0.46025 0.66692 0.0
H962 H 0.12558 0.36468 0.6264 0.0
H963 H 0.14466 0.44865 0.65468 0.0
H964 H 0.19264 0.3211 0.59427 0.0
H965 H 0.22645 0.4117 0.56916 0.0
H966 H 0.30986 0.55965 0.69912 0.0
H967 H 0.25783 0.53384 0.63063 0.0
Li968 Li 0.81541 0.21965 0.02988 0.0
Li969 Li 0.85531 0.26821 0.03545 0.0
Li970 Li 0.8064 0.26113 0.02072 0.0
Li971 Li 0.83977 0.25067 -0.00624 0.0
C972 C 0.79778 0.23203 0.07247 0.0
N973 N 0.76075 0.19655 0.11051 0.0
C974 C 0.80775 0.21851 0.08962 0.0
C975 C 0.76901 0.22759 0.07474 0.0
C976 C 0.78867 0.2006 0.10868 0.0
C977 C 0.75063 0.20958 0.0941 0.0
C978 C 0.88261 0.23842 0.02681 0.0
C979 C 0.93524 0.25733 0.02184 0.0
N980 N 0.93609 0.24683 0.04507 0.0
C981 C 0.88392 0.2275 0.05049 0.0
C982 C 0.90839 0.25323 0.01224 0.0
C983 C 0.9112 0.23211 0.05944 0.0
C984 C 0.81008 0.16429 0.02667 0.0
N985 N 0.79637 0.17797 0.03746 0.0
C986 C 0.75316 0.13082 0.04589 0.0
C987 C 0.76865 0.1619 0.04751 0.0
C988 C 0.76607 0.11621 0.0333 0.0
C989 C 0.79532 0.13341 0.02433 0.0
H990 H 0.83166 0.17744 0.01804 0.0
H991 H 0.7576 0.17307 0.05511 0.0
C992 C 0.88342 0.29073 0.08149 0.0
N993 N 0.88831 0.29261 0.05633 0.0
C994 C 0.90704 0.3062 0.09805 0.0
C995 C 0.94029 0.32594 0.06246 0.0
C996 C 0.91591 0.31028 0.04655 0.0
C997 C 0.93598 0.32372 0.08858 0.0
H998 H 0.86124 0.27678 0.08875 0.0
H999 H 0.91911 0.31163 0.02645 0.0
C1000 C 0.77283 0.19974 -0.00554 0.0
N1001 N 0.7246 0.14417 0.98439 0.0
C1002 C 0.77609 0.1799 0.97884 0.0
C1003 C 0.74501 0.1914 0.00485 0.0
C1004 C 0.75146 0.15188 0.97403 0.0
C1005 C 0.7209 0.16319 -0.00047 0.0
C1006 C 0.85856 0.30765 0.98746 0.0
C1007 C 0.84284 0.32028 0.97675 0.0
C1008 C 0.88544 0.31317 0.97678 0.0
C1009 C 0.85415 0.33799 0.95528 0.0
C1010 C 0.89599 0.33097 0.9553 0.0
N1011 N 0.88025 0.34289 0.94508 0.0
C1012 C 0.77632 0.29191 0.03667 0.0
C1013 C 0.76191 0.26667 -0.00241 0.0
C1014 C 0.75518 0.30093 0.03408 0.0
N1015 N 0.77891 0.27477 0.01866 0.0
C1016 C 0.74055 0.27508 -0.00574 0.0
C1017 C 0.7368 0.29233 0.01268 0.0
H1018 H 0.79047 0.2983 0.0531 0.0
H1019 H 0.76482 0.25341 0.98342 0.0
C1020 C 0.85669 0.22785 0.95324 0.0
N1021 N 0.84554 0.24573 0.95961 0.0
C1022 C 0.85041 0.21418 0.92967 0.0
C1023 C 0.82321 0.23939 0.91931 0.0
C1024 C 0.82981 0.25235 0.94305 0.0
C1025 C 0.83224 0.21884 0.91288 0.0
H1026 H 0.86781 0.22178 0.96723 0.0
H1027 H 0.81999 0.26543 0.94905 0.0
O1028 O 0.81625 0.24994 0.05386 0.0
O1029 O 0.85622 0.23468 0.01798 0.0
O1030 O 0.79688 0.22696 -1e-05 0.0
O1031 O 0.84772 0.29005 0.00833 0.0
H1032 H 0.82994 0.22173 0.0882 0.0
H1033 H 0.76083 0.23771 0.06161 0.0
H1034 H 0.79607 0.18993 0.12203 0.0
H1035 H 0.72829 0.20588 0.09602 0.0
H1036 H 0.95542 0.26896 0.01087 0.0
H1037 H 0.8641 0.21573 0.06186 0.0
H1038 H 0.90776 0.26179 -0.00615 0.0
H1039 H 0.91259 0.22398 0.07782 0.0
H1040 H 0.73081 0.11854 0.05339 0.0
H1041 H 0.8061 0.12345 0.01402 0.0
H1042 H 0.90281 0.30365 0.11807 0.0
H1043 H 0.96226 0.33945 0.05445 0.0
H1044 H 0.7975 0.18588 0.97082 0.0
H1045 H 0.74217 0.20636 0.0172 0.0
H1046 H 0.75371 0.13621 0.96214 0.0
H1047 H 0.69928 0.15636 0.00757 0.0
H1048 H 0.82212 0.31643 0.98487 0.0
H1049 H 0.8978 0.30347 0.98477 0.0
H1050 H 0.84218 0.34782 0.94673 0.0
H1051 H 0.91665 0.33525 0.94673 0.0
H1052 H 0.75328 0.31449 0.04861 0.0
H1053 H 0.72663 0.26748 0.97767 0.0
H1054 H 0.8575 0.19823 0.92555 0.0
H1055 H 0.80948 0.24388 0.90677 0.0
H1056 H 0.27499 0.56208 0.38267 0.0
H1057 H 0.3796 0.73228 0.34299 0.0
H1058 H 0.26619 0.59896 0.31267 0.0
H1059 H 0.40306 0.68677 0.39856 0.0
H1060 H 0.331 0.68725 0.33827 0.0
H1061 H 0.31473 0.61153 0.39512 0.0
C1062 C 0.28101 0.58072 0.37014 0.0
C1063 C 0.26743 0.57644 0.34653 0.0
C1064 C 0.34669 0.68737 0.35176 0.0
C1065 C 0.31304 0.63293 0.36056 0.0
C1066 C 0.37447 0.71301 0.35443 0.0
C1067 C 0.39577 0.71325 0.37089 0.0
C1068 C 0.34005 0.66186 0.36578 0.0
C1069 C 0.38746 0.68783 0.38571 0.0
C1070 C 0.30382 0.60887 0.37719 0.0
C1071 C 0.27638 0.60129 0.33089 0.0
N1072 N 0.36039 0.66308 0.3826 0.0
N1073 N 0.2988 0.62849 0.33812 0.0
H1074 H 0.70892 0.27785 0.69445 0.0
H1075 H 0.67583 0.40122 0.63803 0.0
H1076 H 0.67917 0.27588 0.61838 0.0
H1077 H 0.72084 0.41002 0.70845 0.0
H1078 H 0.66865 0.35114 0.63331 0.0
H1079 H 0.70435 0.32162 0.70271 0.0
C1080 C 0.70082 0.28625 0.67961 0.0
C1081 C 0.69446 0.2732 0.65565 0.0
C1082 C 0.67984 0.36396 0.64989 0.0
C1083 C 0.68982 0.3238 0.66486 0.0
C1084 C 0.68409 0.39261 0.65256 0.0
C1085 C 0.6993 0.41007 0.67354 0.0
C1086 C 0.69081 0.35262 0.66835 0.0
C1087 C 0.70883 0.3974 0.69205 0.0
C1088 C 0.6985 0.31144 0.68428 0.0
C1089 C 0.68464 0.28547 0.63702 0.0
N1090 N 0.70463 0.36957 0.68891 0.0
N1091 N 0.6828 0.31022 0.64198 0.0
H1092 H 0.42921 0.74227 0.94016 0.0
H1093 H 0.28495 0.67728 0.02612 0.0
H1094 H 0.40983 0.67584 -0.00264 0.0
H1095 H 0.29541 0.72557 0.95727 0.0
H1096 H 0.33026 0.67578 0.016 0.0
H1097 H 0.37955 0.73517 0.94558 0.0
C1098 C 0.41439 0.72578 0.95355 0.0
C1099 C 0.42395 0.70978 0.96843 0.0
C1100 C 0.32238 0.68635 0.00298 0.0
C1101 C 0.36709 0.70216 0.97523 0.0
C1102 C 0.29664 0.68733 0.0088 0.0
C1103 C 0.28639 0.70152 0.9925 0.0
C1104 C 0.33816 0.70005 0.98088 0.0
C1105 C 0.30227 0.71405 0.97023 0.0
C1106 C 0.38603 0.7219 0.95678 0.0
C1107 C 0.40374 0.68916 0.98584 0.0
N1108 N 0.32748 0.71325 0.9652 0.0
N1109 N 0.3764 0.68617 0.98895 0.0
H1110 H 0.58814 0.27723 0.27565 0.0
H1111 H 0.72655 0.41125 0.34551 0.0
H1112 H 0.59303 0.29086 0.35599 0.0
H1113 H 0.70331 0.41634 0.26848 0.0
H1114 H 0.68442 0.36049 0.34794 0.0
H1115 H 0.63708 0.32192 0.27147 0.0
C1116 C 0.59946 0.28941 0.29244 0.0
C1117 C 0.58603 0.28035 0.3162 0.0
C1118 C 0.68879 0.37267 0.33044 0.0
C1119 C 0.6424 0.33109 0.31148 0.0
C1120 C 0.71273 0.4017 0.32904 0.0
C1121 C 0.71819 0.41842 0.3069 0.0
C1122 C 0.67029 0.36007 0.30949 0.0
C1123 C 0.70005 0.4044 0.28594 0.0
C1124 C 0.62747 0.31482 0.29 0.0
C1125 C 0.60236 0.29666 0.33729 0.0
N1126 N 0.67673 0.37611 0.28782 0.0
N1127 N 0.62956 0.32131 0.3344 0.0
H1128 H 0.30298 0.72506 0.68022 0.0
H1129 H 0.29705 0.58142 0.6192 0.0
H1130 H 0.28019 0.69957 0.60263 0.0
H1131 H 0.29073 0.59285 0.6989 0.0
H1132 H 0.30253 0.63048 0.61198 0.0
H1133 H 0.3104 0.68253 0.68616 0.0
C1134 C 0.29967 0.71062 0.66438 0.0
C1135 C 0.29035 0.7156 0.64099 0.0
C1136 C 0.30025 0.62231 0.63105 0.0
C1137 C 0.29928 0.66712 0.64764 0.0
C1138 C 0.29697 0.59425 0.63522 0.0
C1139 C 0.2929 0.58266 0.6597 0.0
C1140 C 0.29972 0.63907 0.6515 0.0
C1141 C 0.2939 0.60078 0.67972 0.0
C1142 C 0.30405 0.68643 0.66778 0.0
C1143 C 0.28735 0.69665 0.62098 0.0
N1144 N 0.29697 0.62796 0.67515 0.0
N1145 N 0.29151 0.67307 0.62482 0.0
H1146 H 0.70004 0.29356 0.04917 0.0
H1147 H 0.58546 0.29285 0.9509 0.0
H1148 H 0.7187 0.30807 0.96975 0.0
H1149 H 0.57894 0.30444 0.03054 0.0
H1150 H 0.63528 0.3006 0.95738 0.0
H1151 H 0.65684 0.29977 0.04308 0.0
C1152 C 0.69541 0.29857 0.03052 0.0
C1153 C 0.71284 0.29986 0.00988 0.0
C1154 C 0.62309 0.3018 0.97341 0.0
C1155 C 0.66301 0.30636 0.00273 0.0
C1156 C 0.59463 0.29754 0.96971 0.0
C1157 C 0.5777 0.29764 0.99024 0.0
C1158 C 0.63466 0.30582 -0.00215 0.0
C1159 C 0.59079 0.3034 0.01422 0.0
C1160 C 0.67061 0.30196 0.02704 0.0
C1161 C 0.70547 0.3061 0.98612 0.0
N1162 N 0.61832 0.30688 0.0174 0.0
N1163 N 0.68092 0.30873 0.98315 0.0
H1164 H 0.32423 0.38561 0.29124 0.0
H1165 H 0.30178 0.23101 0.34213 0.0
H1166 H 0.23823 0.30646 0.29948 0.0
H1167 H 0.3858 0.30048 0.31305 0.0
H1168 H 0.27868 0.25987 0.32916 0.0
H1169 H 0.34793 0.35614 0.30125 0.0
C1170 C 0.31038 0.36198 0.2949 0.0
C1171 C 0.27925 0.34842 0.29445 0.0
C1172 C 0.30217 0.26877 0.3256 0.0
C1173 C 0.30609 0.31476 0.30626 0.0
C1174 C 0.3154 0.25228 0.33297 0.0
C1175 C 0.34583 0.26327 0.32871 0.0
C1176 C 0.31949 0.29662 0.31404 0.0
C1177 C 0.3624 0.2913 0.31715 0.0
C1178 C 0.32388 0.34519 0.30059 0.0
C1179 C 0.2623 0.31773 0.29929 0.0
N1180 N 0.34903 0.30703 0.31027 0.0
N1181 N 0.27594 0.302 0.30522 0.0
H1182 H 0.93474 0.32222 0.65186 0.0
H1183 H 0.06403 0.30064 0.7108 0.0
H1184 H 0.93104 0.2373 0.65565 0.0
H1185 H 0.08007 0.38507 0.68128 0.0
H1186 H 0.0125 0.27774 0.69651 0.0
H1187 H 0.98603 0.34644 0.66767 0.0
C1188 C 0.94485 0.30876 0.65585 0.0
C1189 C 0.92881 0.27779 0.65229 0.0
C1190 C 0.02731 0.30132 0.6933 0.0
C1191 C 0.98693 0.30511 0.67078 0.0
C1192 C 0.05672 0.31443 0.70147 0.0
C1193 C 0.07656 0.34483 0.69713 0.0
C1194 C 0.01751 0.31874 0.68091 0.0
C1195 C 0.06557 0.36167 0.68536 0.0
C1196 C 0.97401 0.32254 0.66487 0.0
C1197 C 0.94281 0.26129 0.65779 0.0
N1198 N 0.0368 0.34837 0.67759 0.0
N1199 N 0.97101 0.27513 0.66693 0.0
H1200 H 0.78542 0.07557 0.03009 0.0
H1201 H 0.62839 0.93401 0.00207 0.0
H1202 H 0.70641 0.08283 0.02212 0.0
H1203 H 0.70955 0.94333 0.97169 0.0
H1204 H 0.65596 0.98629 0.01572 0.0
H1205 H 0.75717 0.02411 0.01539 0.0
C1206 C 0.76218 0.06646 0.02533 0.0
C1207 C 0.74843 0.08384 0.02727 0.0
C1208 C 0.66763 0.97694 0.00586 0.0
C1209 C 0.71592 0.02468 0.01095 0.0
C1210 C 0.65197 0.94728 -0.00194 0.0
C1211 C 0.66683 0.93472 0.9856 0.0
C1212 C 0.69843 0.99374 0.00172 0.0
C1213 C 0.69738 0.9525 0.98101 0.0
C1214 C 0.74612 0.03706 0.01696 0.0
C1215 C 0.71797 0.07034 0.02139 0.0
N1216 N 0.71232 0.98111 0.98934 0.0
N1217 N 0.70273 0.04154 0.01355 0.0
H1218 H 0.62615 0.71152 0.30582 0.0
H1219 H 0.74275 0.66557 0.35645 0.0
H1220 H 0.65728 0.72424 0.38248 0.0
H1221 H 0.71318 0.65459 0.2794 0.0
H1222 H 0.71076 0.6861 0.36649 0.0
H1223 H 0.65662 0.68918 0.29611 0.0
C1224 C 0.63916 0.70932 0.32071 0.0
C1225 C 0.639 0.71962 0.34508 0.0
C1226 C 0.71125 0.67923 0.34738 0.0
C1227 C 0.67439 0.69445 0.33392 0.0
C1228 C 0.72967 0.66768 0.34158 0.0
C1229 C 0.73089 0.65863 0.31696 0.0
C1230 C 0.6938 0.68174 0.32846 0.0
C1231 C 0.71285 0.66117 0.29863 0.0
C1232 C 0.65674 0.69676 0.31508 0.0
C1233 C 0.65687 0.71681 0.36341 0.0
N1234 N 0.69513 0.67259 0.30473 0.0
N1235 N 0.67383 0.70448 0.35746 0.0
H1236 H 0.0676 0.70381 0.61859 0.0
H1237 H 0.93304 0.69278 0.69508 0.0
H1238 H 0.06452 0.78253 0.64048 0.0
H1239 H 0.91702 0.63143 0.6341 0.0
H1240 H 0.98456 0.72262 0.68127 0.0
H1241 H 0.01477 0.67349 0.62911 0.0
C1242 C 0.0559 0.71487 0.62524 0.0
C1243 C 0.07087 0.74592 0.62883 0.0
C1244 C 0.96963 0.70256 0.671 0.0
C1245 C 0.01077 0.71106 0.64178 0.0
C1246 C 0.94013 0.68552 0.67877 0.0
C1247 C 0.92024 0.65949 0.66568 0.0
C1248 C 0.97966 0.69327 0.65037 0.0
C1249 C 0.93139 0.65095 0.64513 0.0
C1250 C 0.02581 0.69745 0.63143 0.0
C1251 C 0.05437 0.75869 0.63802 0.0
N1252 N 0.96039 0.66771 0.63818 0.0
N1253 N 0.02536 0.74118 0.6445 0.0
H1254 H 0.31168 0.0799 0.00554 0.0
H1255 H 0.28511 0.91919 0.96746 0.0
H1256 H 0.35025 0.064 0.93975 0.0
H1257 H 0.25511 0.93727 0.03742 0.0
H1258 H 0.30844 0.97187 0.95666 0.0
H1259 H 0.2893 0.02735 0.01673 0.0
C1260 C 0.31517 0.06526 0.99329 0.0
C1261 C 0.33265 0.07629 0.97154 0.0
C1262 C 0.29687 0.96436 0.97443 0.0
C1263 C 0.30747 0.01613 0.98449 0.0
C1264 C 0.28372 0.93427 0.98073 0.0
C1265 C 0.26818 0.92371 0.00347 0.0
C1266 C 0.29439 0.98413 0.99089 0.0
C1267 C 0.26656 0.94429 0.01958 0.0
C1268 C 0.30261 0.0353 -0.00018 0.0
C1269 C 0.33702 0.05644 0.95672 0.0
N1270 N 0.27944 0.97348 0.01295 0.0
N1271 N 0.32445 0.0273 0.96343 0.0
H1272 H 0.94046 0.35458 0.13157 0.0
H1273 H 0.0921 0.36348 0.17471 0.0
H1274 H 0.98935 0.32533 0.08552 0.0
H1275 H 0.04573 0.39744 0.21868 0.0
H1276 H 0.05626 0.35191 0.14076 0.0
H1277 H 0.98057 0.37345 0.16252 0.0
C1278 C 0.95975 0.35231 0.12793 0.0
C1279 C 0.96152 0.33819 0.10607 0.0
C1280 C 0.05403 0.36208 0.15776 0.0
C1281 C 0.00746 0.35963 0.14138 0.0
C1282 C 0.07437 0.3685 0.17721 0.0
C1283 C 0.07176 0.38124 0.19962 0.0
C1284 C 0.03079 0.36826 0.16081 0.0
C1285 C 0.04869 0.38779 0.20167 0.0
C1286 C 0.98268 0.36315 0.14555 0.0
C1287 C 0.98719 0.33622 0.10207 0.0
N1288 N 0.02897 0.38103 0.18258 0.0
N1289 N 0.00904 0.34655 0.11969 0.0
H1290 H 0.66099 0.04256 0.54906 0.0
H1291 H 0.68827 0.95074 0.44261 0.0
H1292 H 0.74703 0.07242 0.51526 0.0
H1293 H 0.60119 0.93518 0.46337 0.0
H1294 H 0.71063 0.99364 0.47087 0.0
H1295 H 0.639 0.00135 0.51936 0.0
C1296 C 0.67525 0.0407 0.53521 0.0
C1297 C 0.70594 0.06114 0.53464 0.0
C1298 C 0.68663 0.98081 0.46919 0.0
C1299 C 0.68089 0.01345 0.5009 0.0
C1300 C 0.67383 0.95638 0.453 0.0
C1301 C 0.64276 0.93921 0.45064 0.0
C1302 C 0.66824 0.98804 0.48322 0.0
C1303 C 0.6252 0.94736 0.4649 0.0
C1304 C 0.66267 0.017 0.51836 0.0
C1305 C 0.72334 0.05703 0.51663 0.0
N1306 N 0.63818 0.97112 0.48061 0.0
N1307 N 0.71058 0.03359 0.50052 0.0
H1308 H 0.60368 0.66811 0.86221 0.0
H1309 H 0.73414 0.63805 0.81967 0.0
H1310 H 0.6876 0.70346 0.90114 0.0
H1311 H 0.65363 0.6102 0.77709 0.0
H1312 H 0.71561 0.65823 0.85187 0.0
H1313 H 0.61965 0.64246 0.83314 0.0
C1314 C 0.62537 0.67025 0.86478 0.0
C1315 C 0.64441 0.68806 0.88405 0.0
C1316 C 0.70194 0.64754 0.83554 0.0
C1317 C 0.66295 0.65903 0.8507 0.0
C1318 C 0.71255 0.63613 0.81711 0.0
C1319 C 0.69549 0.62255 0.79558 0.0
C1320 C 0.67407 0.6454 0.83241 0.0
C1321 C 0.66743 0.62019 0.79348 0.0
C1322 C 0.63454 0.65574 0.84809 0.0
C1323 C 0.67241 0.69033 0.88631 0.0
N1324 N 0.65768 0.63165 0.8116 0.0
N1325 N 0.68087 0.67604 0.86978 0.0
H1326 H 0.04737 0.73206 0.11086 0.0
H1327 H 0.97138 0.61999 0.22557 0.0
H1328 H 0.07121 0.66615 0.13165 0.0
H1329 H 0.93311 0.66759 0.18933 0.0
H1330 H 0.01086 0.63944 0.19391 0.0
H1331 H 0.00844 0.71201 0.14267 0.0
C1332 C 0.04435 0.71327 0.12202 0.0
C1333 C 0.06247 0.70062 0.11837 0.0
C1334 C 0.99376 0.64555 0.19294 0.0
C1335 C 0.01813 0.67784 0.15518 0.0
C1336 C 0.97112 0.63433 0.21089 0.0
C1337 C 0.94893 0.64228 0.21022 0.0
C1338 C 0.9943 0.66499 0.17431 0.0
C1339 C 0.95003 0.66132 0.19096 0.0
C1340 C 0.02217 0.70191 0.14026 0.0
C1341 C 0.05797 0.6768 0.13392 0.0
N1342 N 0.97238 0.6721 0.17386 0.0
N1343 N 0.03621 0.66614 0.15165 0.0
H1344 H 0.37463 0.02364 0.42063 0.0
H1345 H 0.32713 0.99103 0.56344 0.0
H1346 H 0.39702 0.09386 0.47472 0.0
H1347 H 0.33513 0.92763 0.51651 0.0
H1348 H 0.35153 0.02891 0.53079 0.0
H1349 H 0.35928 0.98782 0.45503 0.0
C1350 C 0.37674 0.03167 0.43971 0.0
C1351 C 0.38695 0.06189 0.44469 0.0
C1352 C 0.34826 0.00681 0.52773 0.0
C1353 C 0.36873 0.02076 0.48412 0.0
C1354 C 0.33426 0.98522 0.54629 0.0
C1355 C 0.32907 0.95624 0.54252 0.0
C1356 C 0.35663 -0.00081 0.50509 0.0
C1357 C 0.33888 0.9498 0.52011 0.0
C1358 C 0.36783 0.01113 0.45934 0.0
C1359 C 0.38865 0.07074 0.46987 0.0
N1360 N 0.35188 0.97104 0.50205 0.0
N1361 N 0.37934 0.05023 0.4886 0.0
H1362 H 0.40054 0.31365 0.84103 0.0
H1363 H 0.34219 0.42423 0.80164 0.0
H1364 H 0.37179 0.3559 0.89533 0.0
H1365 H 0.33326 0.35231 0.75496 0.0
H1366 H 0.36584 0.4093 0.83424 0.0
H1367 H 0.38845 0.33776 0.80737 0.0
C1368 C 0.39172 0.328 0.84593 0.0
C1369 C 0.38659 0.3322 0.87111 0.0
C1370 C 0.35906 0.39711 0.8167 0.0
C1371 C 0.37347 0.36045 0.83259 0.0
C1372 C 0.34581 0.40569 0.79815 0.0
C1373 C 0.33585 0.38933 0.77582 0.0
C1374 C 0.36266 0.37235 0.81255 0.0
C1375 C 0.34065 0.36534 0.77206 0.0
C1376 C 0.38504 0.3419 0.82669 0.0
C1377 C 0.37614 0.35196 0.87625 0.0
N1378 N 0.3537 0.35751 0.79029 0.0
N1379 N 0.36971 0.36521 0.85713 0.0
H1380 H 0.11515 0.36103 0.44509 0.0
H1381 H 0.20233 0.3208 0.54656 0.0
H1382 H 0.15265 0.30493 0.42928 0.0
H1383 H 0.17203 0.3837 0.5578 0.0
H1384 H 0.17497 0.30582 0.50664 0.0
H1385 H 0.12472 0.35897 0.48961 0.0
C1386 C 0.12457 0.3475 0.45103 0.0
C1387 C 0.13371 0.33366 0.43336 0.0
C1388 C 0.17411 0.3227 0.51799 0.0
C1389 C 0.14568 0.33206 0.48428 0.0
C1390 C 0.18973 0.33125 0.54069 0.0
C1391 C 0.19 0.35402 0.55509 0.0
C1392 C 0.15854 0.33691 0.50985 0.0
C1393 C 0.1731 0.36667 0.54686 0.0
C1394 C 0.13039 0.34665 0.47648 0.0
C1395 C 0.14598 0.31659 0.44224 0.0
N1396 N 0.15828 0.35812 0.52471 0.0
N1397 N 0.15217 0.31676 0.46705 0.0
H1398 H 0.77515 0.19248 0.89574 0.0
H1399 H 0.80738 0.12588 0.77236 0.0
H1400 H 0.86048 0.20103 0.87913 0.0
H1401 H 0.73162 0.13818 0.78196 0.0
H1402 H 0.8222 0.14228 0.8157 0.0
H1403 H 0.75475 0.16251 0.85801 0.0
C1404 C 0.7897 0.18826 0.88402 0.0
C1405 C 0.81981 0.19997 0.89023 0.0
C1406 C 0.80206 0.14086 0.80839 0.0
C1407 C 0.79629 0.16497 0.84725 0.0
C1408 C 0.79354 0.13147 0.78369 0.0
C1409 C 0.76852 0.1312 0.77328 0.0
C1410 C 0.78531 0.14983 0.8228 0.0
C1411 C 0.75104 0.13796 0.78905 0.0
C1412 C 0.77792 0.17086 0.86262 0.0
C1413 C 0.83723 0.19269 0.8749 0.0
N1414 N 0.76002 0.1474 0.81289 0.0
N1415 N 0.82528 0.17586 0.85394 0.0
H1416 H 0.55517 0.84458 0.2061 0.0
H1417 H 0.64425 0.78689 0.12243 0.0
H1418 H 0.63337 0.84344 0.23201 0.0
H1419 H 0.56194 0.782 0.10023 0.0
H1420 H 0.64398 0.81252 0.16104 0.0
H1421 H 0.56151 0.82799 0.16481 0.0
C1422 C 0.57399 0.84137 0.20292 0.0
C1423 C 0.59364 0.84518 0.22251 0.0
C1424 C 0.62596 0.80574 0.14771 0.0
C1425 C 0.60077 0.82571 0.17556 0.0
C1426 C 0.62607 0.79104 0.12577 0.0
C1427 C 0.60281 0.78182 0.10835 0.0
C1428 C 0.60256 0.81144 0.15208 0.0
C1429 C 0.57989 0.78795 0.11346 0.0
C1430 C 0.57754 0.83176 0.17942 0.0
C1431 C 0.61782 0.84097 0.21737 0.0
N1432 N 0.58035 0.80234 0.13485 0.0
N1433 N 0.62048 0.83106 0.19446 0.0
H1434 H 0.77872 0.5749 0.43033 0.0
H1435 H 0.79367 0.65209 0.56289 0.0
H1436 H 0.86062 0.64989 0.45676 0.0
H1437 H 0.71126 0.58034 0.53365 0.0
H1438 H 0.81736 0.65566 0.5225 0.0
H1439 H 0.75304 0.57925 0.46686 0.0
C1440 C 0.79141 0.59204 0.44408 0.0
C1441 C 0.82201 0.61162 0.44087 0.0
C1442 C 0.79396 0.63949 0.52475 0.0
C1443 C 0.79252 0.61723 0.48253 0.0
C1444 C 0.78028 0.63768 0.54773 0.0
C1445 C 0.75044 0.61574 0.55167 0.0
C1446 C 0.77773 0.61913 0.50565 0.0
C1447 C 0.7344 0.59732 0.53148 0.0
C1448 C 0.77663 0.59478 0.46478 0.0
C1449 C 0.83707 0.63416 0.45873 0.0
N1450 N 0.74835 0.59918 0.50944 0.0
N1451 N 0.8222 0.63621 0.47896 0.0
H1452 H 0.12692 0.7107 0.86298 0.0
H1453 H 0.19817 0.85915 0.77993 0.0
H1454 H 0.1369 0.79405 0.88896 0.0
H1455 H 0.19561 0.77765 0.75845 0.0
H1456 H 0.16854 0.83379 0.81729 0.0
H1457 H 0.14343 0.73255 0.8213 0.0
C1458 C 0.13196 0.73339 0.85973 0.0
C1459 C 0.13087 0.75068 0.87948 0.0
C1460 C 0.17444 0.82149 0.80434 0.0
C1461 C 0.15031 0.77604 0.83208 0.0
C1462 C 0.19139 0.83596 0.78312 0.0
C1463 C 0.19992 0.82066 0.76644 0.0
C1464 C 0.16579 0.79147 0.80871 0.0
C1465 C 0.19031 0.79055 0.77124 0.0
C1466 C 0.14153 0.74593 0.836 0.0
C1467 C 0.13734 0.77988 0.87424 0.0
N1468 N 0.17389 0.77701 0.79196 0.0
N1469 N 0.14728 0.79183 0.85112 0.0
H1470 H 0.37576 0.10596 0.18863 0.0
H1471 H 0.32852 0.21045 0.1155 0.0
H1472 H 0.32877 0.14542 0.22357 0.0
H1473 H 0.38528 0.17921 0.08585 0.0
H1474 H 0.31845 0.17799 0.15237 0.0
H1475 H 0.36838 0.1227 0.14775 0.0
C1476 C 0.36328 0.11755 0.18758 0.0
C1477 C 0.35317 0.12462 0.20947 0.0
C1478 C 0.33284 0.17804 0.13763 0.0
C1479 C 0.34523 0.14449 0.16295 0.0
C1480 C 0.33857 0.19654 0.11671 0.0
C1481 C 0.35829 0.19792 0.09812 0.0
C1482 C 0.34673 0.16074 0.1396 0.0
C1483 C 0.37053 0.17928 0.1002 0.0
C1484 C 0.35917 0.12724 0.16429 0.0
C1485 C 0.33689 0.13947 0.20711 0.0
N1486 N 0.36474 0.16166 0.12065 0.0
N1487 N 0.33391 0.14945 0.18429 0.0
loop_
_geom_bond_atom_site_label_1
_geom_bond_atom_site_label_2
_geom_bond_distance
_geom_bond_site_symmetry_2
_ccdc_geom_bond_type
Li0 N17 1.990 . S
Li0 O60 1.956 . S
Li0 O61 1.970 . S
Li0 O62 1.961 . S
Li1 N25 1.990 . S
Li1 O60 1.970 . S
Li1 O61 1.956 . S
Li1 O63 1.961 . S
Li2 N47 1.990 . S
Li2 O60 1.961 . S
Li2 O62 1.956 . S
Li2 O63 1.970 . S
Li3 N53 1.990 . S
Li3 O61 1.961 . S
Li3 O62 1.970 . S
Li3 O63 1.956 . S
C4 C6 1.348 . S
C4 C7 1.356 . S
C4 O60 1.325 . S
N5 C8 1.314 . S
N5 C9 1.279 . S
C6 C4 1.348 . S
C6 C8 1.353 . S
C6 H64 0.929 . S
C7 C4 1.356 . S
C7 C9 1.358 . S
C7 H65 0.930 . S
C8 N5 1.314 . S
C8 C6 1.353 . S
C8 H66 0.930 . S
C9 N5 1.279 . S
C9 C7 1.358 . S
C9 H67 0.930 . S
C10 C13 1.348 . S
C10 C14 1.356 . S
C10 O61 1.325 . S
C11 N12 1.279 . S
C11 C14 1.358 . S
C11 H68 0.930 . S
N12 C11 1.279 . S
N12 C15 1.314 . S
C13 C10 1.348 . S
C13 C15 1.353 . S
C13 H69 0.929 . S
C14 C10 1.356 . S
C14 C11 1.358 . S
C14 H70 0.930 . S
C15 N12 1.314 . S
C15 C13 1.353 . S
C15 H71 0.930 . S
C16 N17 1.314 . S
C16 C21 1.353 . S
C16 H22 0.930 . S
N17 Li0 1.990 . S
N17 C16 1.314 . S
N17 C19 1.279 . S
C18 C19 1.358 . S
C18 C20 1.356 . S
C18 H72 0.930 . S
C19 N17 1.279 . S
C19 C18 1.358 . S
C19 H23 0.930 . S
C20 C18 1.356 . S
C20 C21 1.348 . S
C21 C16 1.353 . S
C21 C20 1.348 . S
C21 H73 0.929 . S
H22 C16 0.930 . S
H23 C19 0.930 . S
C24 N25 1.314 . S
C24 C26 1.353 . S
C24 H30 0.930 . S
N25 Li1 1.990 . S
N25 C24 1.314 . S
N25 C28 1.279 . S
C26 C24 1.353 . S
C26 C29 1.348 . S
C26 H74 0.929 . S
C27 C28 1.358 . S
C27 C29 1.356 . S
C27 H75 0.930 . S
C28 N25 1.279 . S
C28 C27 1.358 . S
C28 H31 0.930 . S
C29 C26 1.348 . S
C29 C27 1.356 . S
H30 C24 0.930 . S
H31 C28 0.930 . S
C32 C34 1.348 . S
C32 C35 1.356 . S
C32 O62 1.325 . S
N33 C36 1.314 . S
N33 C37 1.279 . S
C34 C32 1.348 . S
C34 C36 1.353 . S
C34 H76 0.929 . S
C35 C32 1.356 . S
C35 C37 1.358 . S
C35 H77 0.930 . S
C36 N33 1.314 . S
C36 C34 1.353 . S
C36 H78 0.930 . S
C37 N33 1.279 . S
C37 C35 1.358 . S
C37 H79 0.930 . S
C38 C39 1.348 . S
C38 C40 1.356 . S
C38 O63 1.325 . S
C39 C38 1.348 . S
C39 C41 1.353 . S
C39 H80 0.929 . S
C40 C38 1.356 . S
C40 C42 1.358 . S
C40 H81 0.930 . S
C41 C39 1.353 . S
C41 N43 1.314 . S
C41 H82 0.930 . S
C42 C40 1.358 . S
C42 N43 1.279 . S
C42 H83 0.930 . S
N43 C41 1.314 . S
N43 C42 1.279 . S
C44 C46 1.353 . S
C44 N47 1.314 . S
C44 H50 0.930 . S
C45 N47 1.279 . S
C45 C48 1.358 . S
C45 H51 0.930 . S
C46 C44 1.353 . S
C46 C49 1.348 . S
C46 H84 0.929 . S
N47 Li2 1.990 . S
N47 C44 1.314 . S
N47 C45 1.279 . S
C48 C45 1.358 . S
C48 C49 1.356 . S
C48 H85 0.930 . S
C49 C46 1.348 . S
C49 C48 1.356 . S
H50 C44 0.930 . S
H51 C45 0.930 . S
C52 N53 1.314 . S
C52 C54 1.353 . S
C52 H58 0.930 . S
N53 Li3 1.990 . S
N53 C52 1.314 . S
N53 C56 1.279 . S
C54 C52 1.353 . S
C54 C57 1.348 . S
C54 H86 0.929 . S
C55 C56 1.358 . S
C55 C57 1.356 . S
C55 H87 0.930 . S
C56 N53 1.279 . S
C56 C55 1.358 . S
C56 H59 0.930 . S
C57 C54 1.348 . S
C57 C55 1.356 . S
H58 C52 0.930 . S
H59 C56 0.930 . S
O60 Li0 1.956 . S
O60 Li1 1.970 . S
O60 Li2 1.961 . S
O60 C4 1.325 . S
O61 Li0 1.970 . S
O61 Li1 1.956 . S
O61 Li3 1.961 . S
O61 C10 1.325 . S
O62 Li0 1.961 . S
O62 Li2 1.956 . S
O62 Li3 1.970 . S
O62 C32 1.325 . S
O63 Li1 1.961 . S
O63 Li2 1.970 . S
O63 Li3 1.956 . S
O63 C38 1.325 . S
H64 C6 0.929 . S
H65 C7 0.930 . S
H66 C8 0.930 . S
H67 C9 0.930 . S
H68 C11 0.930 . S
H69 C13 0.929 . S
H70 C14 0.930 . S
H71 C15 0.930 . S
H72 C18 0.930 . S
H73 C21 0.929 . S
H74 C26 0.929 . S
H75 C27 0.930 . S
H76 C34 0.929 . S
H77 C35 0.930 . S
H78 C36 0.930 . S
H79 C37 0.930 . S
H80 C39 0.929 . S
H81 C40 0.930 . S
H82 C41 0.930 . S
H83 C42 0.930 . S
H84 C46 0.929 . S
H85 C48 0.930 . S
H86 C54 0.929 . S
H87 C55 0.930 . S
Li88 N105 1.990 . S
Li88 O148 1.956 . S
Li88 O149 1.970 . S
Li88 O150 1.961 . S
Li89 N113 1.990 . S
Li89 O148 1.970 . S
Li89 O149 1.956 . S
Li89 O151 1.961 . S
Li90 N135 1.990 . S
Li90 O148 1.961 . S
Li90 O150 1.956 . S
Li90 O151 1.970 . S
Li91 N141 1.990 . S
Li91 O149 1.961 . S
Li91 O150 1.970 . S
Li91 O151 1.956 . S
C92 C94 1.348 . S
C92 C95 1.356 . S
C92 O148 1.325 . S
N93 C96 1.314 . S
N93 C97 1.279 . S
C94 C92 1.348 . S
C94 C96 1.353 . S
C94 H152 0.929 . S
C95 C92 1.356 . S
C95 C97 1.358 . S
C95 H153 0.930 . S
C96 N93 1.314 . S
C96 C94 1.353 . S
C96 H154 0.930 . S
C97 N93 1.279 . S
C97 C95 1.358 . S
C97 H155 0.930 . S
C98 C101 1.348 . S
C98 C102 1.356 . S
C98 O149 1.325 . S
C99 N100 1.279 . S
C99 C102 1.358 . S
C99 H156 0.930 . S
N100 C99 1.279 . S
N100 C103 1.314 . S
C101 C98 1.348 . S
C101 C103 1.353 . S
C101 H157 0.929 . S
C102 C98 1.356 . S
C102 C99 1.358 . S
C102 H158 0.930 . S
C103 N100 1.314 . S
C103 C101 1.353 . S
C103 H159 0.930 . S
C104 N105 1.314 . S
C104 C109 1.353 . S
C104 H110 0.930 . S
N105 Li88 1.990 . S
N105 C104 1.314 . S
N105 C107 1.279 . S
C106 C107 1.358 . S
C106 C108 1.356 . S
C106 H160 0.930 . S
C107 N105 1.279 . S
C107 C106 1.358 . S
C107 H111 0.930 . S
C108 C106 1.356 . S
C108 C109 1.348 . S
C109 C104 1.353 . S
C109 C108 1.348 . S
C109 H161 0.929 . S
H110 C104 0.930 . S
H111 C107 0.930 . S
C112 N113 1.314 . S
C112 C114 1.353 . S
C112 H118 0.930 . S
N113 Li89 1.990 . S
N113 C112 1.314 . S
N113 C116 1.279 . S
C114 C112 1.353 . S
C114 C117 1.348 . S
C114 H162 0.929 . S
C115 C116 1.358 . S
C115 C117 1.356 . S
C115 H163 0.930 . S
C116 N113 1.279 . S
C116 C115 1.358 . S
C116 H119 0.930 . S
C117 C114 1.348 . S
C117 C115 1.356 . S
H118 C112 0.930 . S
H119 C116 0.930 . S
C120 C122 1.348 . S
C120 C123 1.356 . S
C120 O150 1.325 . S
N121 C124 1.314 . S
N121 C125 1.279 . S
C122 C120 1.348 . S
C122 C124 1.353 . S
C122 H164 0.929 . S
C123 C120 1.356 . S
C123 C125 1.358 . S
C123 H165 0.930 . S
C124 N121 1.314 . S
C124 C122 1.353 . S
C124 H166 0.930 . S
C125 N121 1.279 . S
C125 C123 1.358 . S
C125 H167 0.930 . S
C126 C127 1.348 . S
C126 C128 1.356 . S
C126 O151 1.325 . S
C127 C126 1.348 . S
C127 C129 1.353 . S
C127 H168 0.929 . S
C128 C126 1.356 . S
C128 C130 1.358 . S
C128 H169 0.930 . S
C129 C127 1.353 . S
C129 N131 1.314 . S
C129 H170 0.930 . S
C130 C128 1.358 . S
C130 N131 1.279 . S
C130 H171 0.930 . S
N131 C129 1.314 . S
N131 C130 1.279 . S
C132 C134 1.353 . S
C132 N135 1.314 . S
C132 H138 0.930 . S
C133 N135 1.279 . S
C133 C136 1.358 . S
C133 H139 0.930 . S
C134 C132 1.353 . S
C134 C137 1.348 . S
C134 H172 0.929 . S
N135 Li90 1.990 . S
N135 C132 1.314 . S
N135 C133 1.279 . S
C136 C133 1.358 . S
C136 C137 1.356 . S
C136 H173 0.930 . S
C137 C134 1.348 . S
C137 C136 1.356 . S
H138 C132 0.930 . S
H139 C133 0.930 . S
C140 N141 1.314 . S
C140 C142 1.353 . S
C140 H146 0.930 . S
N141 Li91 1.990 . S
N141 C140 1.314 . S
N141 C144 1.279 . S
C142 C140 1.353 . S
C142 C145 1.348 . S
C142 H174 0.929 . S
C143 C144 1.358 . S
C143 C145 1.356 . S
C143 H175 0.930 . S
C144 N141 1.279 . S
C144 C143 1.358 . S
C144 H147 0.930 . S
C145 C142 1.348 . S
C145 C143 1.356 . S
H146 C140 0.930 . S
H147 C144 0.930 . S
O148 Li88 1.956 . S
O148 Li89 1.970 . S
O148 Li90 1.961 . S
O148 C92 1.325 . S
O149 Li88 1.970 . S
O149 Li89 1.956 . S
O149 Li91 1.961 . S
O149 C98 1.325 . S
O150 Li88 1.961 . S
O150 Li90 1.956 . S
O150 Li91 1.970 . S
O150 C120 1.325 . S
O151 Li89 1.961 . S
O151 Li90 1.970 . S
O151 Li91 1.956 . S
O151 C126 1.325 . S
H152 C94 0.929 . S
H153 C95 0.930 . S
H154 C96 0.930 . S
H155 C97 0.930 . S
H156 C99 0.930 . S
H157 C101 0.929 . S
H158 C102 0.930 . S
H159 C103 0.930 . S
H160 C106 0.930 . S
H161 C109 0.929 . S
H162 C114 0.929 . S
H163 C115 0.930 . S
H164 C122 0.929 . S
H165 C123 0.930 . S
H166 C124 0.930 . S
H167 C125 0.930 . S
H168 C127 0.929 . S
H169 C128 0.930 . S
H170 C129 0.930 . S
H171 C130 0.930 . S
H172 C134 0.929 . S
H173 C136 0.930 . S
H174 C142 0.929 . S
H175 C143 0.930 . S
Li176 N193 1.990 . S
Li176 O236 1.956 . S
Li176 O237 1.970 . S
Li176 O238 1.961 . S
Li177 N201 1.990 . S
Li177 O236 1.970 1_556 S
Li177 O237 1.956 1_556 S
Li177 O239 1.961 . S
Li178 N223 1.990 . S
Li178 O236 1.961 1_556 S
Li178 O238 1.956 1_556 S
Li178 O239 1.970 . S
Li179 N229 1.990 . S
Li179 O237 1.961 1_556 S
Li179 O238 1.970 1_556 S
Li179 O239 1.956 . S
C180 C182 1.348 . S
C180 C183 1.356 . S
C180 O236 1.325 . S
N181 C184 1.314 . S
N181 C185 1.279 . S
C182 C180 1.348 . S
C182 C184 1.353 . S
C182 H240 0.929 . S
C183 C180 1.356 . S
C183 C185 1.358 . S
C183 H241 0.930 . S
C184 N181 1.314 . S
C184 C182 1.353 . S
C184 H242 0.930 . S
C185 N181 1.279 . S
C185 C183 1.358 . S
C185 H243 0.930 . S
C186 C189 1.348 . S
C186 C190 1.356 . S
C186 O237 1.325 . S
C187 N188 1.279 . S
C187 C190 1.358 . S
C187 H244 0.930 . S
N188 C187 1.279 . S
N188 C191 1.314 . S
C189 C186 1.348 . S
C189 C191 1.353 . S
C189 H245 0.929 . S
C190 C186 1.356 . S
C190 C187 1.358 . S
C190 H246 0.930 . S
C191 N188 1.314 . S
C191 C189 1.353 . S
C191 H247 0.930 . S
C192 N193 1.314 . S
C192 C197 1.353 . S
C192 H198 0.930 . S
N193 Li176 1.990 . S
N193 C192 1.314 . S
N193 C195 1.279 . S
C194 C195 1.358 . S
C194 C196 1.356 . S
C194 H248 0.930 . S
C195 N193 1.279 . S
C195 C194 1.358 . S
C195 H199 0.930 . S
C196 C194 1.356 . S
C196 C197 1.348 . S
C197 C192 1.353 . S
C197 C196 1.348 . S
C197 H249 0.929 . S
H198 C192 0.930 . S
H199 C195 0.930 . S
C200 N201 1.314 . S
C200 C202 1.353 . S
C200 H206 0.930 . S
N201 Li177 1.990 . S
N201 C200 1.314 . S
N201 C204 1.279 1_556 S
C202 C200 1.353 . S
C202 C205 1.348 . S
C202 H250 0.929 . S
C203 C204 1.358 1_556 S
C203 C205 1.356 . S
C203 H251 0.930 1_556 S
C204 N201 1.279 1_554 S
C204 C203 1.358 1_554 S
C204 H207 0.930 . S
C205 C202 1.348 . S
C205 C203 1.356 . S
H206 C200 0.930 . S
H207 C204 0.930 . S
C208 C210 1.348 . S
C208 C211 1.356 . S
C208 O238 1.325 . S
N209 C212 1.314 . S
N209 C213 1.279 . S
C210 C208 1.348 . S
C210 C212 1.353 . S
C210 H252 0.929 1_554 S
C211 C208 1.356 . S
C211 C213 1.358 . S
C211 H253 0.930 . S
C212 N209 1.314 . S
C212 C210 1.353 . S
C212 H254 0.930 . S
C213 N209 1.279 . S
C213 C211 1.358 . S
C213 H255 0.930 . S
C214 C215 1.348 . S
C214 C216 1.356 . S
C214 O239 1.325 . S
C215 C214 1.348 . S
C215 C217 1.353 . S
C215 H256 0.929 . S
C216 C214 1.356 . S
C216 C218 1.358 . S
C216 H257 0.930 . S
C217 C215 1.353 . S
C217 N219 1.314 . S
C217 H258 0.930 . S
C218 C216 1.358 . S
C218 N219 1.279 . S
C218 H259 0.930 . S
N219 C217 1.314 . S
N219 C218 1.279 . S
C220 C222 1.353 . S
C220 N223 1.314 . S
C220 H226 0.930 . S
C221 N223 1.279 . S
C221 C224 1.358 . S
C221 H227 0.930 . S
C222 C220 1.353 . S
C222 C225 1.348 . S
C222 H260 0.929 . S
N223 Li178 1.990 . S
N223 C220 1.314 . S
N223 C221 1.279 . S
C224 C221 1.358 . S
C224 C225 1.356 . S
C224 H261 0.930 . S
C225 C222 1.348 . S
C225 C224 1.356 . S
H226 C220 0.930 . S
H227 C221 0.930 . S
C228 N229 1.314 1_554 S
C228 C230 1.353 . S
C228 H234 0.930 . S
N229 Li179 1.990 . S
N229 C228 1.314 1_556 S
N229 C232 1.279 . S
C230 C228 1.353 . S
C230 C233 1.348 1_554 S
C230 H262 0.929 . S
C231 C232 1.358 . S
C231 C233 1.356 . S
C231 H263 0.930 . S
C232 N229 1.279 . S
C232 C231 1.358 . S
C232 H235 0.930 . S
C233 C230 1.348 1_556 S
C233 C231 1.356 . S
H234 C228 0.930 . S
H235 C232 0.930 . S
O236 Li176 1.956 . S
O236 Li177 1.970 1_554 S
O236 Li178 1.961 1_554 S
O236 C180 1.325 . S
O237 Li176 1.970 . S
O237 Li177 1.956 1_554 S
O237 Li179 1.961 1_554 S
O237 C186 1.325 . S
O238 Li176 1.961 . S
O238 Li178 1.956 1_554 S
O238 Li179 1.970 1_554 S
O238 C208 1.325 . S
O239 Li177 1.961 . S
O239 Li178 1.970 . S
O239 Li179 1.956 . S
O239 C214 1.325 . S
H240 C182 0.929 . S
H241 C183 0.930 . S
H242 C184 0.930 . S
H243 C185 0.930 . S
H244 C187 0.930 . S
H245 C189 0.929 . S
H246 C190 0.930 . S
H247 C191 0.930 . S
H248 C194 0.930 . S
H249 C197 0.929 . S
H250 C202 0.929 . S
H251 C203 0.930 1_554 S
H252 C210 0.929 1_556 S
H253 C211 0.930 . S
H254 C212 0.930 . S
H255 C213 0.930 . S
H256 C215 0.929 . S
H257 C216 0.930 . S
H258 C217 0.930 . S
H259 C218 0.930 . S
H260 C222 0.929 . S
H261 C224 0.930 . S
H262 C230 0.929 . S
H263 C231 0.930 . S
Li264 N281 1.990 . S
Li264 O324 1.956 . S
Li264 O325 1.970 . S
Li264 O326 1.961 . S
Li265 N289 1.990 . S
Li265 O324 1.970 . S
Li265 O325 1.956 . S
Li265 O327 1.961 . S
Li266 N311 1.990 . S
Li266 O324 1.961 . S
Li266 O326 1.956 . S
Li266 O327 1.970 . S
Li267 N317 1.990 . S
Li267 O325 1.961 . S
Li267 O326 1.970 . S
Li267 O327 1.956 . S
C268 C270 1.348 . S
C268 C271 1.356 . S
C268 O324 1.325 . S
N269 C272 1.314 . S
N269 C273 1.279 . S
C270 C268 1.348 . S
C270 C272 1.353 . S
C270 H328 0.929 . S
C271 C268 1.356 . S
C271 C273 1.358 . S
C271 H329 0.930 . S
C272 N269 1.314 . S
C272 C270 1.353 . S
C272 H330 0.930 . S
C273 N269 1.279 . S
C273 C271 1.358 . S
C273 H331 0.930 . S
C274 C277 1.348 . S
C274 C278 1.356 . S
C274 O325 1.325 . S
C275 N276 1.279 . S
C275 C278 1.358 . S
C275 H332 0.930 . S
N276 C275 1.279 . S
N276 C279 1.314 . S
C277 C274 1.348 . S
C277 C279 1.353 . S
C277 H333 0.929 . S
C278 C274 1.356 . S
C278 C275 1.358 . S
C278 H334 0.930 . S
C279 N276 1.314 . S
C279 C277 1.353 . S
C279 H335 0.930 . S
C280 N281 1.314 . S
C280 C285 1.353 . S
C280 H286 0.930 . S
N281 Li264 1.990 . S
N281 C280 1.314 . S
N281 C283 1.279 . S
C282 C283 1.358 . S
C282 C284 1.356 . S
C282 H336 0.930 . S
C283 N281 1.279 . S
C283 C282 1.358 . S
C283 H287 0.930 . S
C284 C282 1.356 . S
C284 C285 1.348 . S
C285 C280 1.353 . S
C285 C284 1.348 . S
C285 H337 0.929 . S
H286 C280 0.930 . S
H287 C283 0.930 . S
C288 N289 1.314 . S
C288 C290 1.353 . S
C288 H294 0.930 . S
N289 Li265 1.990 . S
N289 C288 1.314 . S
N289 C292 1.279 . S
C290 C288 1.353 . S
C290 C293 1.348 . S
C290 H338 0.929 . S
C291 C292 1.358 . S
C291 C293 1.356 . S
C291 H339 0.930 . S
C292 N289 1.279 . S
C292 C291 1.358 . S
C292 H295 0.930 . S
C293 C290 1.348 . S
C293 C291 1.356 . S
H294 C288 0.930 . S
H295 C292 0.930 . S
C296 C298 1.348 . S
C296 C299 1.356 . S
C296 O326 1.325 . S
N297 C300 1.314 . S
N297 C301 1.279 . S
C298 C296 1.348 . S
C298 C300 1.353 . S
C298 H340 0.929 . S
C299 C296 1.356 . S
C299 C301 1.358 . S
C299 H341 0.930 . S
C300 N297 1.314 . S
C300 C298 1.353 . S
C300 H342 0.930 . S
C301 N297 1.279 . S
C301 C299 1.358 . S
C301 H343 0.930 . S
C302 C303 1.348 . S
C302 C304 1.356 . S
C302 O327 1.325 . S
C303 C302 1.348 . S
C303 C305 1.353 . S
C303 H344 0.929 . S
C304 C302 1.356 . S
C304 C306 1.358 . S
C304 H345 0.930 . S
C305 C303 1.353 . S
C305 N307 1.314 . S
C305 H346 0.930 . S
C306 C304 1.358 . S
C306 N307 1.279 . S
C306 H347 0.930 . S
N307 C305 1.314 . S
N307 C306 1.279 . S
C308 C310 1.353 . S
C308 N311 1.314 . S
C308 H314 0.930 . S
C309 N311 1.279 . S
C309 C312 1.358 . S
C309 H315 0.930 . S
C310 C308 1.353 . S
C310 C313 1.348 . S
C310 H348 0.929 . S
N311 Li266 1.990 . S
N311 C308 1.314 . S
N311 C309 1.279 . S
C312 C309 1.358 . S
C312 C313 1.356 . S
C312 H349 0.930 . S
C313 C310 1.348 . S
C313 C312 1.356 . S
H314 C308 0.930 . S
H315 C309 0.930 . S
C316 N317 1.314 . S
C316 C318 1.353 . S
C316 H322 0.930 . S
N317 Li267 1.990 . S
N317 C316 1.314 . S
N317 C320 1.279 . S
C318 C316 1.353 . S
C318 C321 1.348 . S
C318 H350 0.929 . S
C319 C320 1.358 . S
C319 C321 1.356 . S
C319 H351 0.930 . S
C320 N317 1.279 . S
C320 C319 1.358 . S
C320 H323 0.930 . S
C321 C318 1.348 . S
C321 C319 1.356 . S
H322 C316 0.930 . S
H323 C320 0.930 . S
O324 Li264 1.956 . S
O324 Li265 1.970 . S
O324 Li266 1.961 . S
O324 C268 1.325 . S
O325 Li264 1.970 . S
O325 Li265 1.956 . S
O325 Li267 1.961 . S
O325 C274 1.325 . S
O326 Li264 1.961 . S
O326 Li266 1.956 . S
O326 Li267 1.970 . S
O326 C296 1.325 . S
O327 Li265 1.961 . S
O327 Li266 1.970 . S
O327 Li267 1.956 . S
O327 C302 1.325 . S
H328 C270 0.929 . S
H329 C271 0.930 . S
H330 C272 0.930 . S
H331 C273 0.930 . S
H332 C275 0.930 . S
H333 C277 0.929 . S
H334 C278 0.930 . S
H335 C279 0.930 . S
H336 C282 0.930 . S
H337 C285 0.929 . S
H338 C290 0.929 . S
H339 C291 0.930 . S
H340 C298 0.929 . S
H341 C299 0.930 . S
H342 C300 0.930 . S
H343 C301 0.930 . S
H344 C303 0.929 . S
H345 C304 0.930 . S
H346 C305 0.930 . S
H347 C306 0.930 . S
H348 C310 0.929 . S
H349 C312 0.930 . S
H350 C318 0.929 . S
H351 C319 0.930 . S
Li352 N369 1.990 . S
Li352 O412 1.956 . S
Li352 O413 1.970 . S
Li352 O414 1.961 . S
Li353 N377 1.990 . S
Li353 O412 1.970 . S
Li353 O413 1.956 . S
Li353 O415 1.961 . S
Li354 N399 1.990 . S
Li354 O412 1.961 . S
Li354 O414 1.956 . S
Li354 O415 1.970 . S
Li355 N405 1.990 . S
Li355 O413 1.961 . S
Li355 O414 1.970 . S
Li355 O415 1.956 . S
C356 C358 1.348 . S
C356 C359 1.356 . S
C356 O412 1.325 . S
N357 C360 1.314 . S
N357 C361 1.279 . S
C358 C356 1.348 . S
C358 C360 1.353 . S
C358 H416 0.929 . S
C359 C356 1.356 . S
C359 C361 1.358 . S
C359 H417 0.930 . S
C360 N357 1.314 . S
C360 C358 1.353 . S
C360 H418 0.930 . S
C361 N357 1.279 . S
C361 C359 1.358 . S
C361 H419 0.930 . S
C362 C365 1.348 . S
C362 C366 1.356 . S
C362 O413 1.325 . S
C363 N364 1.279 . S
C363 C366 1.358 . S
C363 H420 0.930 . S
N364 C363 1.279 . S
N364 C367 1.314 . S
C365 C362 1.348 . S
C365 C367 1.353 . S
C365 H421 0.929 . S
C366 C362 1.356 . S
C366 C363 1.358 . S
C366 H422 0.930 . S
C367 N364 1.314 . S
C367 C365 1.353 . S
C367 H423 0.930 . S
C368 N369 1.314 . S
C368 C373 1.353 . S
C368 H374 0.930 . S
N369 Li352 1.990 . S
N369 C368 1.314 . S
N369 C371 1.279 . S
C370 C371 1.358 . S
C370 C372 1.356 . S
C370 H424 0.930 . S
C371 N369 1.279 . S
C371 C370 1.358 . S
C371 H375 0.930 . S
C372 C370 1.356 . S
C372 C373 1.348 . S
C373 C368 1.353 . S
C373 C372 1.348 . S
C373 H425 0.929 . S
H374 C368 0.930 . S
H375 C371 0.930 . S
C376 N377 1.314 . S
C376 C378 1.353 . S
C376 H382 0.930 . S
N377 Li353 1.990 . S
N377 C376 1.314 . S
N377 C380 1.279 . S
C378 C376 1.353 . S
C378 C381 1.348 . S
C378 H426 0.929 . S
C379 C380 1.358 . S
C379 C381 1.356 . S
C379 H427 0.930 . S
C380 N377 1.279 . S
C380 C379 1.358 . S
C380 H383 0.930 . S
C381 C378 1.348 . S
C381 C379 1.356 . S
H382 C376 0.930 . S
H383 C380 0.930 . S
C384 C386 1.348 . S
C384 C387 1.356 . S
C384 O414 1.325 . S
N385 C388 1.314 . S
N385 C389 1.279 . S
C386 C384 1.348 . S
C386 C388 1.353 . S
C386 H428 0.929 . S
C387 C384 1.356 . S
C387 C389 1.358 . S
C387 H429 0.930 . S
C388 N385 1.314 . S
C388 C386 1.353 . S
C388 H430 0.930 . S
C389 N385 1.279 . S
C389 C387 1.358 . S
C389 H431 0.930 . S
C390 C391 1.348 . S
C390 C392 1.356 . S
C390 O415 1.325 . S
C391 C390 1.348 . S
C391 C393 1.353 . S
C391 H432 0.929 . S
C392 C390 1.356 . S
C392 C394 1.358 . S
C392 H433 0.930 . S
C393 C391 1.353 . S
C393 N395 1.314 . S
C393 H434 0.930 . S
C394 C392 1.358 . S
C394 N395 1.279 . S
C394 H435 0.930 . S
N395 C393 1.314 . S
N395 C394 1.279 . S
C396 C398 1.353 . S
C396 N399 1.314 . S
C396 H402 0.930 . S
C397 N399 1.279 . S
C397 C400 1.358 . S
C397 H403 0.930 . S
C398 C396 1.353 . S
C398 C401 1.348 . S
C398 H436 0.929 . S
N399 Li354 1.990 . S
N399 C396 1.314 . S
N399 C397 1.279 . S
C400 C397 1.358 . S
C400 C401 1.356 . S
C400 H437 0.930 . S
C401 C398 1.348 . S
C401 C400 1.356 . S
H402 C396 0.930 . S
H403 C397 0.930 . S
C404 N405 1.314 . S
C404 C406 1.353 . S
C404 H410 0.930 . S
N405 Li355 1.990 . S
N405 C404 1.314 . S
N405 C408 1.279 . S
C406 C404 1.353 . S
C406 C409 1.348 . S
C406 H438 0.929 . S
C407 C408 1.358 . S
C407 C409 1.356 . S
C407 H439 0.930 . S
C408 N405 1.279 . S
C408 C407 1.358 . S
C408 H411 0.930 . S
C409 C406 1.348 . S
C409 C407 1.356 . S
H410 C404 0.930 . S
H411 C408 0.930 . S
O412 Li352 1.956 . S
O412 Li353 1.970 . S
O412 Li354 1.961 . S
O412 C356 1.325 . S
O413 Li352 1.970 . S
O413 Li353 1.956 . S
O413 Li355 1.961 . S
O413 C362 1.325 . S
O414 Li352 1.961 . S
O414 Li354 1.956 . S
O414 Li355 1.970 . S
O414 C384 1.325 . S
O415 Li353 1.961 . S
O415 Li354 1.970 . S
O415 Li355 1.956 . S
O415 C390 1.325 . S
H416 C358 0.929 . S
H417 C359 0.930 . S
H418 C360 0.930 . S
H419 C361 0.930 . S
H420 C363 0.930 . S
H421 C365 0.929 . S
H422 C366 0.930 . S
H423 C367 0.930 . S
H424 C370 0.930 . S
H425 C373 0.929 . S
H426 C378 0.929 . S
H427 C379 0.930 . S
H428 C386 0.929 . S
H429 C387 0.930 . S
H430 C388 0.930 . S
H431 C389 0.930 . S
H432 C391 0.929 . S
H433 C392 0.930 . S
H434 C393 0.930 . S
H435 C394 0.930 . S
H436 C398 0.929 . S
H437 C400 0.930 . S
H438 C406 0.929 . S
H439 C407 0.930 . S
Li440 N457 1.990 . S
Li440 O500 1.956 1_556 S
Li440 O501 1.970 1_556 S
Li440 O502 1.961 . S
Li441 N465 1.990 . S
Li441 O500 1.970 . S
Li441 O501 1.956 . S
Li441 O503 1.961 . S
Li442 N487 1.990 . S
Li442 O500 1.961 1_556 S
Li442 O502 1.956 . S
Li442 O503 1.970 1_556 S
Li443 N493 1.990 . S
Li443 O501 1.961 1_556 S
Li443 O502 1.970 . S
Li443 O503 1.956 1_556 S
C444 C446 1.348 . S
C444 C447 1.356 . S
C444 O500 1.325 . S
N445 C448 1.314 . S
N445 C449 1.279 . S
C446 C444 1.348 . S
C446 C448 1.353 . S
C446 H504 0.929 . S
C447 C444 1.356 . S
C447 C449 1.358 . S
C447 H505 0.930 . S
C448 N445 1.314 . S
C448 C446 1.353 . S
C448 H506 0.930 . S
C449 N445 1.279 . S
C449 C447 1.358 . S
C449 H507 0.930 . S
C450 C453 1.348 . S
C450 C454 1.356 . S
C450 O501 1.325 . S
C451 N452 1.279 . S
C451 C454 1.358 . S
C451 H508 0.930 . S
N452 C451 1.279 . S
N452 C455 1.314 . S
C453 C450 1.348 . S
C453 C455 1.353 . S
C453 H509 0.929 . S
C454 C450 1.356 . S
C454 C451 1.358 . S
C454 H510 0.930 . S
C455 N452 1.314 . S
C455 C453 1.353 . S
C455 H511 0.930 . S
C456 N457 1.314 . S
C456 C461 1.353 . S
C456 H462 0.930 . S
N457 Li440 1.990 . S
N457 C456 1.314 . S
N457 C459 1.279 1_556 S
C458 C459 1.358 1_556 S
C458 C460 1.356 . S
C458 H512 0.930 1_556 S
C459 N457 1.279 1_554 S
C459 C458 1.358 1_554 S
C459 H463 0.930 . S
C460 C458 1.356 . S
C460 C461 1.348 . S
C461 C456 1.353 . S
C461 C460 1.348 . S
C461 H513 0.929 . S
H462 C456 0.930 . S
H463 C459 0.930 . S
C464 N465 1.314 . S
C464 C466 1.353 . S
C464 H470 0.930 . S
N465 Li441 1.990 . S
N465 C464 1.314 . S
N465 C468 1.279 . S
C466 C464 1.353 . S
C466 C469 1.348 . S
C466 H514 0.929 . S
C467 C468 1.358 . S
C467 C469 1.356 . S
C467 H515 0.930 . S
C468 N465 1.279 . S
C468 C467 1.358 . S
C468 H471 0.930 . S
C469 C466 1.348 . S
C469 C467 1.356 . S
H470 C464 0.930 . S
H471 C468 0.930 . S
C472 C474 1.348 . S
C472 C475 1.356 . S
C472 O502 1.325 . S
N473 C476 1.314 . S
N473 C477 1.279 . S
C474 C472 1.348 . S
C474 C476 1.353 . S
C474 H516 0.929 . S
C475 C472 1.356 . S
C475 C477 1.358 . S
C475 H517 0.930 . S
C476 N473 1.314 . S
C476 C474 1.353 . S
C476 H518 0.930 . S
C477 N473 1.279 . S
C477 C475 1.358 . S
C477 H519 0.930 . S
C478 C479 1.348 . S
C478 C480 1.356 . S
C478 O503 1.325 . S
C479 C478 1.348 . S
C479 C481 1.353 . S
C479 H520 0.929 1_554 S
C480 C478 1.356 . S
C480 C482 1.358 . S
C480 H521 0.930 . S
C481 C479 1.353 . S
C481 N483 1.314 . S
C481 H522 0.930 . S
C482 C480 1.358 . S
C482 N483 1.279 . S
C482 H523 0.930 . S
N483 C481 1.314 . S
N483 C482 1.279 . S
C484 C486 1.353 . S
C484 N487 1.314 1_554 S
C484 H490 0.930 . S
C485 N487 1.279 . S
C485 C488 1.358 . S
C485 H491 0.930 . S
C486 C484 1.353 . S
C486 C489 1.348 1_554 S
C486 H524 0.929 . S
N487 Li442 1.990 . S
N487 C484 1.314 1_556 S
N487 C485 1.279 . S
C488 C485 1.358 . S
C488 C489 1.356 . S
C488 H525 0.930 . S
C489 C486 1.348 1_556 S
C489 C488 1.356 . S
H490 C484 0.930 . S
H491 C485 0.930 . S
C492 N493 1.314 . S
C492 C494 1.353 . S
C492 H498 0.930 . S
N493 Li443 1.990 . S
N493 C492 1.314 . S
N493 C496 1.279 . S
C494 C492 1.353 . S
C494 C497 1.348 . S
C494 H526 0.929 . S
C495 C496 1.358 . S
C495 C497 1.356 . S
C495 H527 0.930 . S
C496 N493 1.279 . S
C496 C495 1.358 . S
C496 H499 0.930 . S
C497 C494 1.348 . S
C497 C495 1.356 . S
H498 C492 0.930 . S
H499 C496 0.930 . S
O500 Li440 1.956 1_554 S
O500 Li441 1.970 . S
O500 Li442 1.961 1_554 S
O500 C444 1.325 . S
O501 Li440 1.970 1_554 S
O501 Li441 1.956 . S
O501 Li443 1.961 1_554 S
O501 C450 1.325 . S
O502 Li440 1.961 . S
O502 Li442 1.956 . S
O502 Li443 1.970 . S
O502 C472 1.325 . S
O503 Li441 1.961 . S
O503 Li442 1.970 1_554 S
O503 Li443 1.956 1_554 S
O503 C478 1.325 . S
H504 C446 0.929 . S
H505 C447 0.930 . S
H506 C448 0.930 . S
H507 C449 0.930 . S
H508 C451 0.930 . S
H509 C453 0.929 . S
H510 C454 0.930 . S
H511 C455 0.930 . S
H512 C458 0.930 1_554 S
H513 C461 0.929 . S
H514 C466 0.929 . S
H515 C467 0.930 . S
H516 C474 0.929 . S
H517 C475 0.930 . S
H518 C476 0.930 . S
H519 C477 0.930 . S
H520 C479 0.929 1_556 S
H521 C480 0.930 . S
H522 C481 0.930 . S
H523 C482 0.930 . S
H524 C486 0.929 . S
H525 C488 0.930 . S
H526 C494 0.929 . S
H527 C495 0.930 . S
Li528 N545 1.990 . S
Li528 O588 1.956 . S
Li528 O589 1.970 . S
Li528 O590 1.961 . S
Li529 N553 1.990 . S
Li529 O588 1.970 . S
Li529 O589 1.956 . S
Li529 O591 1.961 . S
Li530 N575 1.990 . S
Li530 O588 1.961 . S
Li530 O590 1.956 . S
Li530 O591 1.970 . S
Li531 N581 1.990 . S
Li531 O589 1.961 . S
Li531 O590 1.970 . S
Li531 O591 1.956 . S
C532 C534 1.348 . S
C532 C535 1.356 . S
C532 O588 1.325 . S
N533 C536 1.314 . S
N533 C537 1.279 . S
C534 C532 1.348 . S
C534 C536 1.353 . S
C534 H592 0.929 . S
C535 C532 1.356 . S
C535 C537 1.358 . S
C535 H593 0.930 . S
C536 N533 1.314 . S
C536 C534 1.353 . S
C536 H594 0.930 . S
C537 N533 1.279 . S
C537 C535 1.358 . S
C537 H595 0.930 . S
C538 C541 1.348 . S
C538 C542 1.356 . S
C538 O589 1.325 . S
C539 N540 1.279 . S
C539 C542 1.358 . S
C539 H596 0.930 . S
N540 C539 1.279 . S
N540 C543 1.314 . S
C541 C538 1.348 . S
C541 C543 1.353 . S
C541 H597 0.929 . S
C542 C538 1.356 . S
C542 C539 1.358 . S
C542 H598 0.930 . S
C543 N540 1.314 . S
C543 C541 1.353 . S
C543 H599 0.930 . S
C544 N545 1.314 . S
C544 C549 1.353 . S
C544 H550 0.930 . S
N545 Li528 1.990 . S
N545 C544 1.314 . S
N545 C547 1.279 . S
C546 C547 1.358 . S
C546 C548 1.356 . S
C546 H600 0.930 . S
C547 N545 1.279 . S
C547 C546 1.358 . S
C547 H551 0.930 . S
C548 C546 1.356 . S
C548 C549 1.348 . S
C549 C544 1.353 . S
C549 C548 1.348 . S
C549 H601 0.929 . S
H550 C544 0.930 . S
H551 C547 0.930 . S
C552 N553 1.314 . S
C552 C554 1.353 . S
C552 H558 0.930 . S
N553 Li529 1.990 . S
N553 C552 1.314 . S
N553 C556 1.279 . S
C554 C552 1.353 . S
C554 C557 1.348 . S
C554 H602 0.929 . S
C555 C556 1.358 . S
C555 C557 1.356 . S
C555 H603 0.930 . S
C556 N553 1.279 . S
C556 C555 1.358 . S
C556 H559 0.930 . S
C557 C554 1.348 . S
C557 C555 1.356 . S
H558 C552 0.930 . S
H559 C556 0.930 . S
C560 C562 1.348 . S
C560 C563 1.356 . S
C560 O590 1.325 . S
N561 C564 1.314 . S
N561 C565 1.279 . S
C562 C560 1.348 . S
C562 C564 1.353 . S
C562 H604 0.929 . S
C563 C560 1.356 . S
C563 C565 1.358 . S
C563 H605 0.930 . S
C564 N561 1.314 . S
C564 C562 1.353 . S
C564 H606 0.930 . S
C565 N561 1.279 . S
C565 C563 1.358 . S
C565 H607 0.930 . S
C566 C567 1.348 . S
C566 C568 1.356 . S
C566 O591 1.325 . S
C567 C566 1.348 . S
C567 C569 1.353 . S
C567 H608 0.929 . S
C568 C566 1.356 . S
C568 C570 1.358 . S
C568 H609 0.930 . S
C569 C567 1.353 . S
C569 N571 1.314 . S
C569 H610 0.930 . S
C570 C568 1.358 . S
C570 N571 1.279 . S
C570 H611 0.930 . S
N571 C569 1.314 . S
N571 C570 1.279 . S
C572 C574 1.353 . S
C572 N575 1.314 . S
C572 H578 0.930 . S
C573 N575 1.279 . S
C573 C576 1.358 . S
C573 H579 0.930 . S
C574 C572 1.353 . S
C574 C577 1.348 . S
C574 H612 0.929 . S
N575 Li530 1.990 . S
N575 C572 1.314 . S
N575 C573 1.279 . S
C576 C573 1.358 . S
C576 C577 1.356 . S
C576 H613 0.930 . S
C577 C574 1.348 . S
C577 C576 1.356 . S
H578 C572 0.930 . S
H579 C573 0.930 . S
C580 N581 1.314 . S
C580 C582 1.353 . S
C580 H586 0.930 . S
N581 Li531 1.990 . S
N581 C580 1.314 . S
N581 C584 1.279 . S
C582 C580 1.353 . S
C582 C585 1.348 . S
C582 H614 0.929 . S
C583 C584 1.358 . S
C583 C585 1.356 . S
C583 H615 0.930 . S
C584 N581 1.279 . S
C584 C583 1.358 . S
C584 H587 0.930 . S
C585 C582 1.348 . S
C585 C583 1.356 . S
H586 C580 0.930 . S
H587 C584 0.930 . S
O588 Li528 1.956 . S
O588 Li529 1.970 . S
O588 Li530 1.961 . S
O588 C532 1.325 . S
O589 Li528 1.970 . S
O589 Li529 1.956 . S
O589 Li531 1.961 . S
O589 C538 1.325 . S
O590 Li528 1.961 . S
O590 Li530 1.956 . S
O590 Li531 1.970 . S
O590 C560 1.325 . S
O591 Li529 1.961 . S
O591 Li530 1.970 . S
O591 Li531 1.956 . S
O591 C566 1.325 . S
H592 C534 0.929 . S
H593 C535 0.930 . S
H594 C536 0.930 . S
H595 C537 0.930 . S
H596 C539 0.930 . S
H597 C541 0.929 . S
H598 C542 0.930 . S
H599 C543 0.930 . S
H600 C546 0.930 . S
H601 C549 0.929 . S
H602 C554 0.929 . S
H603 C555 0.930 . S
H604 C562 0.929 . S
H605 C563 0.930 . S
H606 C564 0.930 . S
H607 C565 0.930 . S
H608 C567 0.929 . S
H609 C568 0.930 . S
H610 C569 0.930 . S
H611 C570 0.930 . S
H612 C574 0.929 . S
H613 C576 0.930 . S
H614 C582 0.929 . S
H615 C583 0.930 . S
Li616 N633 1.990 . S
Li616 O676 1.956 . S
Li616 O677 1.970 . S
Li616 O678 1.961 . S
Li617 N641 1.990 . S
Li617 O676 1.970 . S
Li617 O677 1.956 . S
Li617 O679 1.961 . S
Li618 N663 1.990 . S
Li618 O676 1.961 . S
Li618 O678 1.956 . S
Li618 O679 1.970 . S
Li619 N669 1.990 . S
Li619 O677 1.961 . S
Li619 O678 1.970 . S
Li619 O679 1.956 . S
C620 C622 1.348 . S
C620 C623 1.356 . S
C620 O676 1.325 . S
N621 C624 1.314 . S
N621 C625 1.279 . S
C622 C620 1.348 . S
C622 C624 1.353 . S
C622 H680 0.929 . S
C623 C620 1.356 . S
C623 C625 1.358 . S
C623 H681 0.930 . S
C624 N621 1.314 . S
C624 C622 1.353 . S
C624 H682 0.930 . S
C625 N621 1.279 . S
C625 C623 1.358 . S
C625 H683 0.930 . S
C626 C629 1.348 . S
C626 C630 1.356 . S
C626 O677 1.325 . S
C627 N628 1.279 . S
C627 C630 1.358 . S
C627 H684 0.930 . S
N628 C627 1.279 . S
N628 C631 1.314 . S
C629 C626 1.348 . S
C629 C631 1.353 . S
C629 H685 0.929 . S
C630 C626 1.356 . S
C630 C627 1.358 . S
C630 H686 0.930 . S
C631 N628 1.314 . S
C631 C629 1.353 . S
C631 H687 0.930 . S
C632 N633 1.314 . S
C632 C637 1.353 . S
C632 H638 0.930 . S
N633 Li616 1.990 . S
N633 C632 1.314 . S
N633 C635 1.279 . S
C634 C635 1.358 . S
C634 C636 1.356 . S
C634 H688 0.930 . S
C635 N633 1.279 . S
C635 C634 1.358 . S
C635 H639 0.930 . S
C636 C634 1.356 . S
C636 C637 1.348 . S
C637 C632 1.353 . S
C637 C636 1.348 . S
C637 H689 0.929 . S
H638 C632 0.930 . S
H639 C635 0.930 . S
C640 N641 1.314 . S
C640 C642 1.353 . S
C640 H646 0.930 . S
N641 Li617 1.990 . S
N641 C640 1.314 . S
N641 C644 1.279 . S
C642 C640 1.353 . S
C642 C645 1.348 . S
C642 H690 0.929 . S
C643 C644 1.358 . S
C643 C645 1.356 . S
C643 H691 0.930 . S
C644 N641 1.279 . S
C644 C643 1.358 . S
C644 H647 0.930 . S
C645 C642 1.348 . S
C645 C643 1.356 . S
H646 C640 0.930 . S
H647 C644 0.930 . S
C648 C650 1.348 . S
C648 C651 1.356 . S
C648 O678 1.325 . S
N649 C652 1.314 . S
N649 C653 1.279 . S
C650 C648 1.348 . S
C650 C652 1.353 . S
C650 H692 0.929 . S
C651 C648 1.356 . S
C651 C653 1.358 . S
C651 H693 0.930 . S
C652 N649 1.314 . S
C652 C650 1.353 . S
C652 H694 0.930 . S
C653 N649 1.279 . S
C653 C651 1.358 . S
C653 H695 0.930 . S
C654 C655 1.348 . S
C654 C656 1.356 . S
C654 O679 1.325 . S
C655 C654 1.348 . S
C655 C657 1.353 . S
C655 H696 0.929 . S
C656 C654 1.356 . S
C656 C658 1.358 . S
C656 H697 0.930 . S
C657 C655 1.353 . S
C657 N659 1.314 . S
C657 H698 0.930 . S
C658 C656 1.358 . S
C658 N659 1.279 . S
C658 H699 0.930 . S
N659 C657 1.314 . S
N659 C658 1.279 . S
C660 C662 1.353 . S
C660 N663 1.314 . S
C660 H666 0.930 . S
C661 N663 1.279 . S
C661 C664 1.358 . S
C661 H667 0.930 . S
C662 C660 1.353 . S
C662 C665 1.348 . S
C662 H700 0.929 . S
N663 Li618 1.990 . S
N663 C660 1.314 . S
N663 C661 1.279 . S
C664 C661 1.358 . S
C664 C665 1.356 . S
C664 H701 0.930 . S
C665 C662 1.348 . S
C665 C664 1.356 . S
H666 C660 0.930 . S
H667 C661 0.930 . S
C668 N669 1.314 . S
C668 C670 1.353 . S
C668 H674 0.930 . S
N669 Li619 1.990 . S
N669 C668 1.314 . S
N669 C672 1.279 . S
C670 C668 1.353 . S
C670 C673 1.348 . S
C670 H702 0.929 . S
C671 C672 1.358 . S
C671 C673 1.356 . S
C671 H703 0.930 . S
C672 N669 1.279 . S
C672 C671 1.358 . S
C672 H675 0.930 . S
C673 C670 1.348 . S
C673 C671 1.356 . S
H674 C668 0.930 . S
H675 C672 0.930 . S
O676 Li616 1.956 . S
O676 Li617 1.970 . S
O676 Li618 1.961 . S
O676 C620 1.325 . S
O677 Li616 1.970 . S
O677 Li617 1.956 . S
O677 Li619 1.961 . S
O677 C626 1.325 . S
O678 Li616 1.961 . S
O678 Li618 1.956 . S
O678 Li619 1.970 . S
O678 C648 1.325 . S
O679 Li617 1.961 . S
O679 Li618 1.970 . S
O679 Li619 1.956 . S
O679 C654 1.325 . S
H680 C622 0.929 . S
H681 C623 0.930 . S
H682 C624 0.930 . S
H683 C625 0.930 . S
H684 C627 0.930 . S
H685 C629 0.929 . S
H686 C630 0.930 . S
H687 C631 0.930 . S
H688 C634 0.930 . S
H689 C637 0.929 . S
H690 C642 0.929 . S
H691 C643 0.930 . S
H692 C650 0.929 . S
H693 C651 0.930 . S
H694 C652 0.930 . S
H695 C653 0.930 . S
H696 C655 0.929 . S
H697 C656 0.930 . S
H698 C657 0.930 . S
H699 C658 0.930 . S
H700 C662 0.929 . S
H701 C664 0.930 . S
H702 C670 0.929 . S
H703 C671 0.930 . S
Li704 N721 1.990 . S
Li704 O764 1.956 . S
Li704 O765 1.970 1_554 S
Li704 O766 1.961 1_554 S
Li705 N729 1.990 . S
Li705 O764 1.970 . S
Li705 O765 1.956 1_554 S
Li705 O767 1.961 1_554 S
Li706 N751 1.990 . S
Li706 O764 1.961 . S
Li706 O766 1.956 1_554 S
Li706 O767 1.970 1_554 S
Li707 N757 1.990 . S
Li707 O765 1.961 . S
Li707 O766 1.970 . S
Li707 O767 1.956 . S
C708 C710 1.348 . S
C708 C711 1.356 . S
C708 O764 1.325 . S
N709 C712 1.314 . S
N709 C713 1.279 . S
C710 C708 1.348 . S
C710 C712 1.353 . S
C710 H768 0.929 . S
C711 C708 1.356 . S
C711 C713 1.358 . S
C711 H769 0.930 . S
C712 N709 1.314 . S
C712 C710 1.353 . S
C712 H770 0.930 . S
C713 N709 1.279 . S
C713 C711 1.358 . S
C713 H771 0.930 . S
C714 C717 1.348 . S
C714 C718 1.356 . S
C714 O765 1.325 . S
C715 N716 1.279 . S
C715 C718 1.358 . S
C715 H772 0.930 . S
N716 C715 1.279 . S
N716 C719 1.314 . S
C717 C714 1.348 . S
C717 C719 1.353 . S
C717 H773 0.929 1_556 S
C718 C714 1.356 . S
C718 C715 1.358 . S
C718 H774 0.930 . S
C719 N716 1.314 . S
C719 C717 1.353 . S
C719 H775 0.930 . S
C720 N721 1.314 1_556 S
C720 C725 1.353 . S
C720 H726 0.930 . S
N721 Li704 1.990 . S
N721 C720 1.314 1_554 S
N721 C723 1.279 . S
C722 C723 1.358 . S
C722 C724 1.356 . S
C722 H776 0.930 . S
C723 N721 1.279 . S
C723 C722 1.358 . S
C723 H727 0.930 . S
C724 C722 1.356 . S
C724 C725 1.348 1_554 S
C725 C720 1.353 . S
C725 C724 1.348 1_556 S
C725 H777 0.929 . S
H726 C720 0.930 . S
H727 C723 0.930 . S
C728 N729 1.314 . S
C728 C730 1.353 . S
C728 H734 0.930 . S
N729 Li705 1.990 . S
N729 C728 1.314 . S
N729 C732 1.279 . S
C730 C728 1.353 . S
C730 C733 1.348 . S
C730 H778 0.929 . S
C731 C732 1.358 . S
C731 C733 1.356 . S
C731 H779 0.930 . S
C732 N729 1.279 . S
C732 C731 1.358 . S
C732 H735 0.930 . S
C733 C730 1.348 . S
C733 C731 1.356 . S
H734 C728 0.930 . S
H735 C732 0.930 . S
C736 C738 1.348 . S
C736 C739 1.356 . S
C736 O766 1.325 . S
N737 C740 1.314 . S
N737 C741 1.279 . S
C738 C736 1.348 . S
C738 C740 1.353 . S
C738 H780 0.929 . S
C739 C736 1.356 . S
C739 C741 1.358 . S
C739 H781 0.930 . S
C740 N737 1.314 . S
C740 C738 1.353 . S
C740 H782 0.930 . S
C741 N737 1.279 . S
C741 C739 1.358 . S
C741 H783 0.930 . S
C742 C743 1.348 . S
C742 C744 1.356 . S
C742 O767 1.325 . S
C743 C742 1.348 . S
C743 C745 1.353 . S
C743 H784 0.929 . S
C744 C742 1.356 . S
C744 C746 1.358 . S
C744 H785 0.930 . S
C745 C743 1.353 . S
C745 N747 1.314 . S
C745 H786 0.930 . S
C746 C744 1.358 . S
C746 N747 1.279 . S
C746 H787 0.930 . S
N747 C745 1.314 . S
N747 C746 1.279 . S
C748 C750 1.353 . S
C748 N751 1.314 . S
C748 H754 0.930 . S
C749 N751 1.279 1_556 S
C749 C752 1.358 1_556 S
C749 H755 0.930 . S
C750 C748 1.353 . S
C750 C753 1.348 . S
C750 H788 0.929 . S
N751 Li706 1.990 . S
N751 C748 1.314 . S
N751 C749 1.279 1_554 S
C752 C749 1.358 1_554 S
C752 C753 1.356 . S
C752 H789 0.930 1_554 S
C753 C750 1.348 . S
C753 C752 1.356 . S
H754 C748 0.930 . S
H755 C749 0.930 . S
C756 N757 1.314 . S
C756 C758 1.353 . S
C756 H762 0.930 . S
N757 Li707 1.990 . S
N757 C756 1.314 . S
N757 C760 1.279 . S
C758 C756 1.353 . S
C758 C761 1.348 . S
C758 H790 0.929 . S
C759 C760 1.358 . S
C759 C761 1.356 . S
C759 H791 0.930 . S
C760 N757 1.279 . S
C760 C759 1.358 . S
C760 H763 0.930 . S
C761 C758 1.348 . S
C761 C759 1.356 . S
H762 C756 0.930 . S
H763 C760 0.930 . S
O764 Li704 1.956 . S
O764 Li705 1.970 . S
O764 Li706 1.961 . S
O764 C708 1.325 . S
O765 Li704 1.970 1_556 S
O765 Li705 1.956 1_556 S
O765 Li707 1.961 . S
O765 C714 1.325 . S
O766 Li704 1.961 1_556 S
O766 Li706 1.956 1_556 S
O766 Li707 1.970 . S
O766 C736 1.325 . S
O767 Li705 1.961 1_556 S
O767 Li706 1.970 1_556 S
O767 Li707 1.956 . S
O767 C742 1.325 . S
H768 C710 0.929 . S
H769 C711 0.930 . S
H770 C712 0.930 . S
H771 C713 0.930 . S
H772 C715 0.930 . S
H773 C717 0.929 1_554 S
H774 C718 0.930 . S
H775 C719 0.930 . S
H776 C722 0.930 . S
H777 C725 0.929 . S
H778 C730 0.929 . S
H779 C731 0.930 . S
H780 C738 0.929 . S
H781 C739 0.930 . S
H782 C740 0.930 . S
H783 C741 0.930 . S
H784 C743 0.929 . S
H785 C744 0.930 . S
H786 C745 0.930 . S
H787 C746 0.930 . S
H788 C750 0.929 . S
H789 C752 0.930 1_556 S
H790 C758 0.929 . S
H791 C759 0.930 . S
Li792 N809 1.990 . S
Li792 O852 1.956 . S
Li792 O853 1.970 . S
Li792 O854 1.961 . S
Li793 N817 1.990 . S
Li793 O852 1.970 . S
Li793 O853 1.956 . S
Li793 O855 1.961 . S
Li794 N839 1.990 . S
Li794 O852 1.961 . S
Li794 O854 1.956 . S
Li794 O855 1.970 . S
Li795 N845 1.990 . S
Li795 O853 1.961 . S
Li795 O854 1.970 . S
Li795 O855 1.956 . S
C796 C798 1.348 . S
C796 C799 1.356 . S
C796 O852 1.325 . S
N797 C800 1.314 . S
N797 C801 1.279 . S
C798 C796 1.348 . S
C798 C800 1.353 . S
C798 H856 0.929 . S
C799 C796 1.356 . S
C799 C801 1.358 . S
C799 H857 0.930 . S
C800 N797 1.314 . S
C800 C798 1.353 . S
C800 H858 0.930 . S
C801 N797 1.279 . S
C801 C799 1.358 . S
C801 H859 0.930 . S
C802 C805 1.348 . S
C802 C806 1.356 . S
C802 O853 1.325 . S
C803 N804 1.279 . S
C803 C806 1.358 . S
C803 H860 0.930 . S
N804 C803 1.279 . S
N804 C807 1.314 . S
C805 C802 1.348 . S
C805 C807 1.353 . S
C805 H861 0.929 . S
C806 C802 1.356 . S
C806 C803 1.358 . S
C806 H862 0.930 . S
C807 N804 1.314 . S
C807 C805 1.353 . S
C807 H863 0.930 . S
C808 N809 1.314 . S
C808 C813 1.353 . S
C808 H814 0.930 . S
N809 Li792 1.990 . S
N809 C808 1.314 . S
N809 C811 1.279 . S
C810 C811 1.358 . S
C810 C812 1.356 . S
C810 H864 0.930 . S
C811 N809 1.279 . S
C811 C810 1.358 . S
C811 H815 0.930 . S
C812 C810 1.356 . S
C812 C813 1.348 . S
C813 C808 1.353 . S
C813 C812 1.348 . S
C813 H865 0.929 . S
H814 C808 0.930 . S
H815 C811 0.930 . S
C816 N817 1.314 . S
C816 C818 1.353 . S
C816 H822 0.930 . S
N817 Li793 1.990 . S
N817 C816 1.314 . S
N817 C820 1.279 . S
C818 C816 1.353 . S
C818 C821 1.348 . S
C818 H866 0.929 . S
C819 C820 1.358 . S
C819 C821 1.356 . S
C819 H867 0.930 . S
C820 N817 1.279 . S
C820 C819 1.358 . S
C820 H823 0.930 . S
C821 C818 1.348 . S
C821 C819 1.356 . S
H822 C816 0.930 . S
H823 C820 0.930 . S
C824 C826 1.348 . S
C824 C827 1.356 . S
C824 O854 1.325 . S
N825 C828 1.314 . S
N825 C829 1.279 . S
C826 C824 1.348 . S
C826 C828 1.353 . S
C826 H868 0.929 . S
C827 C824 1.356 . S
C827 C829 1.358 . S
C827 H869 0.930 . S
C828 N825 1.314 . S
C828 C826 1.353 . S
C828 H870 0.930 . S
C829 N825 1.279 . S
C829 C827 1.358 . S
C829 H871 0.930 . S
C830 C831 1.348 . S
C830 C832 1.356 . S
C830 O855 1.325 . S
C831 C830 1.348 . S
C831 C833 1.353 . S
C831 H872 0.929 . S
C832 C830 1.356 . S
C832 C834 1.358 . S
C832 H873 0.930 . S
C833 C831 1.353 . S
C833 N835 1.314 . S
C833 H874 0.930 . S
C834 C832 1.358 . S
C834 N835 1.279 . S
C834 H875 0.930 . S
N835 C833 1.314 . S
N835 C834 1.279 . S
C836 C838 1.353 . S
C836 N839 1.314 . S
C836 H842 0.930 . S
C837 N839 1.279 . S
C837 C840 1.358 . S
C837 H843 0.930 . S
C838 C836 1.353 . S
C838 C841 1.348 . S
C838 H876 0.929 . S
N839 Li794 1.990 . S
N839 C836 1.314 . S
N839 C837 1.279 . S
C840 C837 1.358 . S
C840 C841 1.356 . S
C840 H877 0.930 . S
C841 C838 1.348 . S
C841 C840 1.356 . S
H842 C836 0.930 . S
H843 C837 0.930 . S
C844 N845 1.314 . S
C844 C846 1.353 . S
C844 H850 0.930 . S
N845 Li795 1.990 . S
N845 C844 1.314 . S
N845 C848 1.279 . S
C846 C844 1.353 . S
C846 C849 1.348 . S
C846 H878 0.929 . S
C847 C848 1.358 . S
C847 C849 1.356 . S
C847 H879 0.930 . S
C848 N845 1.279 . S
C848 C847 1.358 . S
C848 H851 0.930 . S
C849 C846 1.348 . S
C849 C847 1.356 . S
H850 C844 0.930 . S
H851 C848 0.930 . S
O852 Li792 1.956 . S
O852 Li793 1.970 . S
O852 Li794 1.961 . S
O852 C796 1.325 . S
O853 Li792 1.970 . S
O853 Li793 1.956 . S
O853 Li795 1.961 . S
O853 C802 1.325 . S
O854 Li792 1.961 . S
O854 Li794 1.956 . S
O854 Li795 1.970 . S
O854 C824 1.325 . S
O855 Li793 1.961 . S
O855 Li794 1.970 . S
O855 Li795 1.956 . S
O855 C830 1.325 . S
H856 C798 0.929 . S
H857 C799 0.930 . S
H858 C800 0.930 . S
H859 C801 0.930 . S
H860 C803 0.930 . S
H861 C805 0.929 . S
H862 C806 0.930 . S
H863 C807 0.930 . S
H864 C810 0.930 . S
H865 C813 0.929 . S
H866 C818 0.929 . S
H867 C819 0.930 . S
H868 C826 0.929 . S
H869 C827 0.930 . S
H870 C828 0.930 . S
H871 C829 0.930 . S
H872 C831 0.929 . S
H873 C832 0.930 . S
H874 C833 0.930 . S
H875 C834 0.930 . S
H876 C838 0.929 . S
H877 C840 0.930 . S
H878 C846 0.929 . S
H879 C847 0.930 . S
Li880 N897 1.990 . S
Li880 O940 1.956 . S
Li880 O941 1.970 . S
Li880 O942 1.961 . S
Li881 N905 1.990 . S
Li881 O940 1.970 . S
Li881 O941 1.956 . S
Li881 O943 1.961 . S
Li882 N927 1.990 . S
Li882 O940 1.961 . S
Li882 O942 1.956 . S
Li882 O943 1.970 . S
Li883 N933 1.990 . S
Li883 O941 1.961 . S
Li883 O942 1.970 . S
Li883 O943 1.956 . S
C884 C886 1.348 . S
C884 C887 1.356 . S
C884 O940 1.325 . S
N885 C888 1.314 . S
N885 C889 1.279 . S
C886 C884 1.348 . S
C886 C888 1.353 . S
C886 H944 0.929 . S
C887 C884 1.356 . S
C887 C889 1.358 . S
C887 H945 0.930 . S
C888 N885 1.314 . S
C888 C886 1.353 . S
C888 H946 0.930 . S
C889 N885 1.279 . S
C889 C887 1.358 . S
C889 H947 0.930 . S
C890 C893 1.348 . S
C890 C894 1.356 . S
C890 O941 1.325 . S
C891 N892 1.279 . S
C891 C894 1.358 . S
C891 H948 0.930 . S
N892 C891 1.279 . S
N892 C895 1.314 . S
C893 C890 1.348 . S
C893 C895 1.353 . S
C893 H949 0.929 . S
C894 C890 1.356 . S
C894 C891 1.358 . S
C894 H950 0.930 . S
C895 N892 1.314 . S
C895 C893 1.353 . S
C895 H951 0.930 . S
C896 N897 1.314 . S
C896 C901 1.353 . S
C896 H902 0.930 . S
N897 Li880 1.990 . S
N897 C896 1.314 . S
N897 C899 1.279 . S
C898 C899 1.358 . S
C898 C900 1.356 . S
C898 H952 0.930 . S
C899 N897 1.279 . S
C899 C898 1.358 . S
C899 H903 0.930 . S
C900 C898 1.356 . S
C900 C901 1.348 . S
C901 C896 1.353 . S
C901 C900 1.348 . S
C901 H953 0.929 . S
H902 C896 0.930 . S
H903 C899 0.930 . S
C904 N905 1.314 . S
C904 C906 1.353 . S
C904 H910 0.930 . S
N905 Li881 1.990 . S
N905 C904 1.314 . S
N905 C908 1.279 . S
C906 C904 1.353 . S
C906 C909 1.348 . S
C906 H954 0.929 . S
C907 C908 1.358 . S
C907 C909 1.356 . S
C907 H955 0.930 . S
C908 N905 1.279 . S
C908 C907 1.358 . S
C908 H911 0.930 . S
C909 C906 1.348 . S
C909 C907 1.356 . S
H910 C904 0.930 . S
H911 C908 0.930 . S
C912 C914 1.348 . S
C912 C915 1.356 . S
C912 O942 1.325 . S
N913 C916 1.314 . S
N913 C917 1.279 . S
C914 C912 1.348 . S
C914 C916 1.353 . S
C914 H956 0.929 . S
C915 C912 1.356 . S
C915 C917 1.358 . S
C915 H957 0.930 . S
C916 N913 1.314 . S
C916 C914 1.353 . S
C916 H958 0.930 . S
C917 N913 1.279 . S
C917 C915 1.358 . S
C917 H959 0.930 . S
C918 C919 1.348 . S
C918 C920 1.356 . S
C918 O943 1.325 . S
C919 C918 1.348 . S
C919 C921 1.353 . S
C919 H960 0.929 . S
C920 C918 1.356 . S
C920 C922 1.358 . S
C920 H961 0.930 . S
C921 C919 1.353 . S
C921 N923 1.314 . S
C921 H962 0.930 . S
C922 C920 1.358 . S
C922 N923 1.279 . S
C922 H963 0.930 . S
N923 C921 1.314 . S
N923 C922 1.279 . S
C924 C926 1.353 . S
C924 N927 1.314 . S
C924 H930 0.930 . S
C925 N927 1.279 . S
C925 C928 1.358 . S
C925 H931 0.930 . S
C926 C924 1.353 . S
C926 C929 1.348 . S
C926 H964 0.929 . S
N927 Li882 1.990 . S
N927 C924 1.314 . S
N927 C925 1.279 . S
C928 C925 1.358 . S
C928 C929 1.356 . S
C928 H965 0.930 . S
C929 C926 1.348 . S
C929 C928 1.356 . S
H930 C924 0.930 . S
H931 C925 0.930 . S
C932 N933 1.314 . S
C932 C934 1.353 . S
C932 H938 0.930 . S
N933 Li883 1.990 . S
N933 C932 1.314 . S
N933 C936 1.279 . S
C934 C932 1.353 . S
C934 C937 1.348 . S
C934 H966 0.929 . S
C935 C936 1.358 . S
C935 C937 1.356 . S
C935 H967 0.930 . S
C936 N933 1.279 . S
C936 C935 1.358 . S
C936 H939 0.930 . S
C937 C934 1.348 . S
C937 C935 1.356 . S
H938 C932 0.930 . S
H939 C936 0.930 . S
O940 Li880 1.956 . S
O940 Li881 1.970 . S
O940 Li882 1.961 . S
O940 C884 1.325 . S
O941 Li880 1.970 . S
O941 Li881 1.956 . S
O941 Li883 1.961 . S
O941 C890 1.325 . S
O942 Li880 1.961 . S
O942 Li882 1.956 . S
O942 Li883 1.970 . S
O942 C912 1.325 . S
O943 Li881 1.961 . S
O943 Li882 1.970 . S
O943 Li883 1.956 . S
O943 C918 1.325 . S
H944 C886 0.929 . S
H945 C887 0.930 . S
H946 C888 0.930 . S
H947 C889 0.930 . S
H948 C891 0.930 . S
H949 C893 0.929 . S
H950 C894 0.930 . S
H951 C895 0.930 . S
H952 C898 0.930 . S
H953 C901 0.929 . S
H954 C906 0.929 . S
H955 C907 0.930 . S
H956 C914 0.929 . S
H957 C915 0.930 . S
H958 C916 0.930 . S
H959 C917 0.930 . S
H960 C919 0.929 . S
H961 C920 0.930 . S
H962 C921 0.930 . S
H963 C922 0.930 . S
H964 C926 0.929 . S
H965 C928 0.930 . S
H966 C934 0.929 . S
H967 C935 0.930 . S
Li968 N985 1.990 . S
Li968 O1028 1.956 . S
Li968 O1029 1.970 1_554 S
Li968 O1030 1.961 1_554 S
Li969 N993 1.990 . S
Li969 O1028 1.970 . S
Li969 O1029 1.956 1_554 S
Li969 O1031 1.961 1_554 S
Li970 N1015 1.990 . S
Li970 O1028 1.961 . S
Li970 O1030 1.956 1_554 S
Li970 O1031 1.970 1_554 S
Li971 N1021 1.990 . S
Li971 O1029 1.961 . S
Li971 O1030 1.970 . S
Li971 O1031 1.956 . S
C972 C974 1.348 . S
C972 C975 1.356 . S
C972 O1028 1.325 . S
N973 C976 1.314 . S
N973 C977 1.279 . S
C974 C972 1.348 . S
C974 C976 1.353 . S
C974 H1032 0.929 . S
C975 C972 1.356 . S
C975 C977 1.358 . S
C975 H1033 0.930 . S
C976 N973 1.314 . S
C976 C974 1.353 . S
C976 H1034 0.930 . S
C977 N973 1.279 . S
C977 C975 1.358 . S
C977 H1035 0.930 . S
C978 C981 1.348 . S
C978 C982 1.356 . S
C978 O1029 1.325 . S
C979 N980 1.279 . S
C979 C982 1.358 . S
C979 H1036 0.930 . S
N980 C979 1.279 . S
N980 C983 1.314 . S
C981 C978 1.348 . S
C981 C983 1.353 . S
C981 H1037 0.929 1_556 S
C982 C978 1.356 . S
C982 C979 1.358 . S
C982 H1038 0.930 . S
C983 N980 1.314 . S
C983 C981 1.353 . S
C983 H1039 0.930 . S
C984 N985 1.314 1_556 S
C984 C989 1.353 . S
C984 H990 0.930 . S
N985 Li968 1.990 . S
N985 C984 1.314 1_554 S
N985 C987 1.279 . S
C986 C987 1.358 . S
C986 C988 1.356 . S
C986 H1040 0.930 . S
C987 N985 1.279 . S
C987 C986 1.358 . S
C987 H991 0.930 . S
C988 C986 1.356 . S
C988 C989 1.348 1_554 S
C989 C984 1.353 . S
C989 C988 1.348 1_556 S
C989 H1041 0.929 . S
H990 C984 0.930 . S
H991 C987 0.930 . S
C992 N993 1.314 . S
C992 C994 1.353 . S
C992 H998 0.930 . S
N993 Li969 1.990 . S
N993 C992 1.314 . S
N993 C996 1.279 . S
C994 C992 1.353 . S
C994 C997 1.348 . S
C994 H1042 0.929 . S
C995 C996 1.358 . S
C995 C997 1.356 . S
C995 H1043 0.930 . S
C996 N993 1.279 . S
C996 C995 1.358 . S
C996 H999 0.930 . S
C997 C994 1.348 . S
C997 C995 1.356 . S
H998 C992 0.930 . S
H999 C996 0.930 . S
C1000 C1002 1.348 . S
C1000 C1003 1.356 . S
C1000 O1030 1.325 . S
N1001 C1004 1.314 . S
N1001 C1005 1.279 . S
C1002 C1000 1.348 . S
C1002 C1004 1.353 . S
C1002 H1044 0.929 . S
C1003 C1000 1.356 . S
C1003 C1005 1.358 . S
C1003 H1045 0.930 . S
C1004 N1001 1.314 . S
C1004 C1002 1.353 . S
C1004 H1046 0.930 . S
C1005 N1001 1.279 . S
C1005 C1003 1.358 . S
C1005 H1047 0.930 . S
C1006 C1007 1.348 . S
C1006 C1008 1.356 . S
C1006 O1031 1.325 . S
C1007 C1006 1.348 . S
C1007 C1009 1.353 . S
C1007 H1048 0.929 . S
C1008 C1006 1.356 . S
C1008 C1010 1.358 . S
C1008 H1049 0.930 . S
C1009 C1007 1.353 . S
C1009 N1011 1.314 . S
C1009 H1050 0.930 . S
C1010 C1008 1.358 . S
C1010 N1011 1.279 . S
C1010 H1051 0.930 . S
N1011 C1009 1.314 . S
N1011 C1010 1.279 . S
C1012 C1014 1.353 . S
C1012 N1015 1.314 . S
C1012 H1018 0.930 . S
C1013 N1015 1.279 1_556 S
C1013 C1016 1.358 1_556 S
C1013 H1019 0.930 . S
C1014 C1012 1.353 . S
C1014 C1017 1.348 . S
C1014 H1052 0.929 . S
N1015 Li970 1.990 . S
N1015 C1012 1.314 . S
N1015 C1013 1.279 1_554 S
C1016 C1013 1.358 1_554 S
C1016 C1017 1.356 . S
C1016 H1053 0.930 1_554 S
C1017 C1014 1.348 . S
C1017 C1016 1.356 . S
H1018 C1012 0.930 . S
H1019 C1013 0.930 . S
C1020 N1021 1.314 . S
C1020 C1022 1.353 . S
C1020 H1026 0.930 . S
N1021 Li971 1.990 . S
N1021 C1020 1.314 . S
N1021 C1024 1.279 . S
C1022 C1020 1.353 . S
C1022 C1025 1.348 . S
C1022 H1054 0.929 . S
C1023 C1024 1.358 . S
C1023 C1025 1.356 . S
C1023 H1055 0.930 . S
C1024 N1021 1.279 . S
C1024 C1023 1.358 . S
C1024 H1027 0.930 . S
C1025 C1022 1.348 . S
C1025 C1023 1.356 . S
H1026 C1020 0.930 . S
H1027 C1024 0.930 . S
O1028 Li968 1.956 . S
O1028 Li969 1.970 . S
O1028 Li970 1.961 . S
O1028 C972 1.325 . S
O1029 Li968 1.970 1_556 S
O1029 Li969 1.956 1_556 S
O1029 Li971 1.961 . S
O1029 C978 1.325 . S
O1030 Li968 1.961 1_556 S
O1030 Li970 1.956 1_556 S
O1030 Li971 1.970 . S
O1030 C1000 1.325 . S
O1031 Li969 1.961 1_556 S
O1031 Li970 1.970 1_556 S
O1031 Li971 1.956 . S
O1031 C1006 1.325 . S
H1032 C974 0.929 . S
H1033 C975 0.930 . S
H1034 C976 0.930 . S
H1035 C977 0.930 . S
H1036 C979 0.930 . S
H1037 C981 0.929 1_554 S
H1038 C982 0.930 . S
H1039 C983 0.930 . S
H1040 C986 0.930 . S
H1041 C989 0.929 . S
H1042 C994 0.929 . S
H1043 C995 0.930 . S
H1044 C1002 0.929 . S
H1045 C1003 0.930 . S
H1046 C1004 0.930 . S
H1047 C1005 0.930 . S
H1048 C1007 0.929 . S
H1049 C1008 0.930 . S
H1050 C1009 0.930 . S
H1051 C1010 0.930 . S
H1052 C1014 0.929 . S
H1053 C1016 0.930 1_556 S
H1054 C1022 0.929 . S
H1055 C1023 0.930 . S
H1056 C1062 0.930 . S
H1057 C1066 0.930 . S
H1058 C1071 0.929 . S
H1059 C1069 0.929 . S
H1060 C1064 0.929 . S
H1061 C1070 0.929 . S
C1062 H1056 0.930 . S
C1062 C1063 1.367 . S
C1062 C1070 1.378 . S
C1063 C1062 1.367 . S
C1063 C1071 1.433 . S
C1064 H1060 0.929 . S
C1064 C1066 1.378 . S
C1064 C1068 1.350 . S
C1065 C1068 1.463 . S
C1065 C1070 1.350 . S
C1065 N1073 1.427 . S
C1066 H1057 0.930 . S
C1066 C1064 1.378 . S
C1066 C1067 1.367 . S
C1067 C1066 1.367 . S
C1067 C1069 1.433 . S
C1068 C1064 1.350 . S
C1068 C1065 1.463 . S
C1068 N1072 1.427 . S
C1069 H1059 0.929 . S
C1069 C1067 1.433 . S
C1069 N1072 1.384 . S
C1070 H1061 0.929 . S
C1070 C1062 1.378 . S
C1070 C1065 1.350 . S
C1071 H1058 0.929 . S
C1071 C1063 1.433 . S
C1071 N1073 1.384 . S
N1072 C1068 1.427 . S
N1072 C1069 1.384 . S
N1073 C1065 1.427 . S
N1073 C1071 1.384 . S
H1074 C1080 0.930 . S
H1075 C1084 0.930 . S
H1076 C1089 0.929 . S
H1077 C1087 0.929 . S
H1078 C1082 0.929 . S
H1079 C1088 0.929 . S
C1080 H1074 0.930 . S
C1080 C1081 1.367 . S
C1080 C1088 1.378 . S
C1081 C1080 1.367 . S
C1081 C1089 1.433 . S
C1082 H1078 0.929 . S
C1082 C1084 1.378 . S
C1082 C1086 1.350 . S
C1083 C1086 1.463 . S
C1083 C1088 1.350 . S
C1083 N1091 1.427 . S
C1084 H1075 0.930 . S
C1084 C1082 1.378 . S
C1084 C1085 1.367 . S
C1085 C1084 1.367 . S
C1085 C1087 1.433 . S
C1086 C1082 1.350 . S
C1086 C1083 1.463 . S
C1086 N1090 1.427 . S
C1087 H1077 0.929 . S
C1087 C1085 1.433 . S
C1087 N1090 1.384 . S
C1088 H1079 0.929 . S
C1088 C1080 1.378 . S
C1088 C1083 1.350 . S
C1089 H1076 0.929 . S
C1089 C1081 1.433 . S
C1089 N1091 1.384 . S
N1090 C1086 1.427 . S
N1090 C1087 1.384 . S
N1091 C1083 1.427 . S
N1091 C1089 1.384 . S
H1092 C1098 0.930 . S
H1093 C1102 0.930 . S
H1094 C1107 0.929 . S
H1095 C1105 0.929 . S
H1096 C1100 0.929 . S
H1097 C1106 0.929 . S
C1098 H1092 0.930 . S
C1098 C1099 1.367 . S
C1098 C1106 1.378 . S
C1099 C1098 1.367 . S
C1099 C1107 1.433 . S
C1100 H1096 0.929 . S
C1100 C1102 1.378 . S
C1100 C1104 1.350 . S
C1101 C1104 1.463 1_556 S
C1101 C1106 1.350 . S
C1101 N1109 1.427 . S
C1102 H1093 0.930 . S
C1102 C1100 1.378 . S
C1102 C1103 1.367 . S
C1103 C1102 1.367 . S
C1103 C1105 1.433 . S
C1104 C1100 1.350 . S
C1104 C1101 1.463 1_554 S
C1104 N1108 1.427 . S
C1105 H1095 0.929 . S
C1105 C1103 1.433 . S
C1105 N1108 1.384 . S
C1106 H1097 0.929 . S
C1106 C1098 1.378 . S
C1106 C1101 1.350 . S
C1107 H1094 0.929 . S
C1107 C1099 1.433 . S
C1107 N1109 1.384 . S
N1108 C1104 1.427 . S
N1108 C1105 1.384 . S
N1109 C1101 1.427 . S
N1109 C1107 1.384 . S
H1110 C1116 0.930 . S
H1111 C1120 0.930 . S
H1112 C1125 0.929 . S
H1113 C1123 0.929 . S
H1114 C1118 0.929 . S
H1115 C1124 0.929 . S
C1116 H1110 0.930 . S
C1116 C1117 1.367 . S
C1116 C1124 1.378 . S
C1117 C1116 1.367 . S
C1117 C1125 1.433 . S
C1118 H1114 0.929 . S
C1118 C1120 1.378 . S
C1118 C1122 1.350 . S
C1119 C1122 1.463 . S
C1119 C1124 1.350 . S
C1119 N1127 1.427 . S
C1120 H1111 0.930 . S
C1120 C1118 1.378 . S
C1120 C1121 1.367 . S
C1121 C1120 1.367 . S
C1121 C1123 1.433 . S
C1122 C1118 1.350 . S
C1122 C1119 1.463 . S
C1122 N1126 1.427 . S
C1123 H1113 0.929 . S
C1123 C1121 1.433 . S
C1123 N1126 1.384 . S
C1124 H1115 0.929 . S
C1124 C1116 1.378 . S
C1124 C1119 1.350 . S
C1125 H1112 0.929 . S
C1125 C1117 1.433 . S
C1125 N1127 1.384 . S
N1126 C1122 1.427 . S
N1126 C1123 1.384 . S
N1127 C1119 1.427 . S
N1127 C1125 1.384 . S
H1128 C1134 0.930 . S
H1129 C1138 0.930 . S
H1130 C1143 0.929 . S
H1131 C1141 0.929 . S
H1132 C1136 0.929 . S
H1133 C1142 0.929 . S
C1134 H1128 0.930 . S
C1134 C1135 1.367 . S
C1134 C1142 1.378 . S
C1135 C1134 1.367 . S
C1135 C1143 1.433 . S
C1136 H1132 0.929 . S
C1136 C1138 1.378 . S
C1136 C1140 1.350 . S
C1137 C1140 1.463 . S
C1137 C1142 1.350 . S
C1137 N1145 1.427 . S
C1138 H1129 0.930 . S
C1138 C1136 1.378 . S
C1138 C1139 1.367 . S
C1139 C1138 1.367 . S
C1139 C1141 1.433 . S
C1140 C1136 1.350 . S
C1140 C1137 1.463 . S
C1140 N1144 1.427 . S
C1141 H1131 0.929 . S
C1141 C1139 1.433 . S
C1141 N1144 1.384 . S
C1142 H1133 0.929 . S
C1142 C1134 1.378 . S
C1142 C1137 1.350 . S
C1143 H1130 0.929 . S
C1143 C1135 1.433 . S
C1143 N1145 1.384 . S
N1144 C1140 1.427 . S
N1144 C1141 1.384 . S
N1145 C1137 1.427 . S
N1145 C1143 1.384 . S
H1146 C1152 0.930 . S
H1147 C1156 0.930 . S
H1148 C1161 0.929 . S
H1149 C1159 0.929 . S
H1150 C1154 0.929 . S
H1151 C1160 0.929 . S
C1152 H1146 0.930 . S
C1152 C1153 1.367 . S
C1152 C1160 1.378 . S
C1153 C1152 1.367 . S
C1153 C1161 1.433 1_554 S
C1154 H1150 0.929 . S
C1154 C1156 1.378 . S
C1154 C1158 1.350 . S
C1155 C1158 1.463 1_554 S
C1155 C1160 1.350 . S
C1155 N1163 1.427 1_554 S
C1156 H1147 0.930 . S
C1156 C1154 1.378 . S
C1156 C1157 1.367 . S
C1157 C1156 1.367 . S
C1157 C1159 1.433 1_556 S
C1158 C1154 1.350 . S
C1158 C1155 1.463 1_556 S
C1158 N1162 1.427 1_556 S
C1159 H1149 0.929 . S
C1159 C1157 1.433 1_554 S
C1159 N1162 1.384 . S
C1160 H1151 0.929 . S
C1160 C1152 1.378 . S
C1160 C1155 1.350 . S
C1161 H1148 0.929 . S
C1161 C1153 1.433 1_556 S
C1161 N1163 1.384 . S
N1162 C1158 1.427 1_554 S
N1162 C1159 1.384 . S
N1163 C1155 1.427 1_556 S
N1163 C1161 1.384 . S
H1164 C1170 0.930 . S
H1165 C1174 0.930 . S
H1166 C1179 0.929 . S
H1167 C1177 0.929 . S
H1168 C1172 0.929 . S
H1169 C1178 0.929 . S
C1170 H1164 0.930 . S
C1170 C1171 1.367 . S
C1170 C1178 1.378 . S
C1171 C1170 1.367 . S
C1171 C1179 1.433 . S
C1172 H1168 0.929 . S
C1172 C1174 1.378 . S
C1172 C1176 1.350 . S
C1173 C1176 1.463 . S
C1173 C1178 1.350 . S
C1173 N1181 1.427 . S
C1174 H1165 0.930 . S
C1174 C1172 1.378 . S
C1174 C1175 1.367 . S
C1175 C1174 1.367 . S
C1175 C1177 1.433 . S
C1176 C1172 1.350 . S
C1176 C1173 1.463 . S
C1176 N1180 1.427 . S
C1177 H1167 0.929 . S
C1177 C1175 1.433 . S
C1177 N1180 1.384 . S
C1178 H1169 0.929 . S
C1178 C1170 1.378 . S
C1178 C1173 1.350 . S
C1179 H1166 0.929 . S
C1179 C1171 1.433 . S
C1179 N1181 1.384 . S
N1180 C1176 1.427 . S
N1180 C1177 1.384 . S
N1181 C1173 1.427 . S
N1181 C1179 1.384 . S
H1182 C1188 0.930 . S
H1183 C1192 0.930 . S
H1184 C1197 0.929 . S
H1185 C1195 0.929 . S
H1186 C1190 0.929 . S
H1187 C1196 0.929 . S
C1188 H1182 0.930 . S
C1188 C1189 1.367 . S
C1188 C1196 1.378 . S
C1189 C1188 1.367 . S
C1189 C1197 1.433 . S
C1190 H1186 0.929 . S
C1190 C1192 1.378 . S
C1190 C1194 1.350 . S
C1191 C1194 1.463 1_655 S
C1191 C1196 1.350 . S
C1191 N1199 1.427 . S
C1192 H1183 0.930 . S
C1192 C1190 1.378 . S
C1192 C1193 1.367 . S
C1193 C1192 1.367 . S
C1193 C1195 1.433 . S
C1194 C1190 1.350 . S
C1194 C1191 1.463 1_455 S
C1194 N1198 1.427 . S
C1195 H1185 0.929 . S
C1195 C1193 1.433 . S
C1195 N1198 1.384 . S
C1196 H1187 0.929 . S
C1196 C1188 1.378 . S
C1196 C1191 1.350 . S
C1197 H1184 0.929 . S
C1197 C1189 1.433 . S
C1197 N1199 1.384 . S
N1198 C1194 1.427 . S
N1198 C1195 1.384 . S
N1199 C1191 1.427 . S
N1199 C1197 1.384 . S
H1200 C1206 0.930 . S
H1201 C1210 0.930 . S
H1202 C1215 0.929 . S
H1203 C1213 0.929 . S
H1204 C1208 0.929 . S
H1205 C1214 0.929 . S
C1206 H1200 0.930 . S
C1206 C1207 1.367 1_556 S
C1206 C1214 1.378 . S
C1207 C1206 1.367 1_554 S
C1207 C1215 1.433 . S
C1208 H1204 0.929 . S
C1208 C1210 1.378 . S
C1208 C1212 1.350 1_554 S
C1209 C1212 1.463 1_544 S
C1209 C1214 1.350 1_554 S
C1209 N1217 1.427 . S
C1210 H1201 0.930 . S
C1210 C1208 1.378 . S
C1210 C1211 1.367 1_554 S
C1211 C1210 1.367 1_556 S
C1211 C1213 1.433 . S
C1212 C1208 1.350 1_556 S
C1212 C1209 1.463 1_566 S
C1212 N1216 1.427 . S
C1213 H1203 0.929 . S
C1213 C1211 1.433 . S
C1213 N1216 1.384 . S
C1214 H1205 0.929 . S
C1214 C1206 1.378 . S
C1214 C1209 1.350 1_556 S
C1215 H1202 0.929 . S
C1215 C1207 1.433 . S
C1215 N1217 1.384 . S
N1216 C1212 1.427 . S
N1216 C1213 1.384 . S
N1217 C1209 1.427 . S
N1217 C1215 1.384 . S
H1218 C1224 0.930 . S
H1219 C1228 0.930 . S
H1220 C1233 0.929 . S
H1221 C1231 0.929 . S
H1222 C1226 0.929 . S
H1223 C1232 0.929 . S
C1224 H1218 0.930 . S
C1224 C1225 1.367 . S
C1224 C1232 1.378 . S
C1225 C1224 1.367 . S
C1225 C1233 1.433 . S
C1226 H1222 0.929 . S
C1226 C1228 1.378 . S
C1226 C1230 1.350 . S
C1227 C1230 1.463 . S
C1227 C1232 1.350 . S
C1227 N1235 1.427 . S
C1228 H1219 0.930 . S
C1228 C1226 1.378 . S
C1228 C1229 1.367 . S
C1229 C1228 1.367 . S
C1229 C1231 1.433 . S
C1230 C1226 1.350 . S
C1230 C1227 1.463 . S
C1230 N1234 1.427 . S
C1231 H1221 0.929 . S
C1231 C1229 1.433 . S
C1231 N1234 1.384 . S
C1232 H1223 0.929 . S
C1232 C1224 1.378 . S
C1232 C1227 1.350 . S
C1233 H1220 0.929 . S
C1233 C1225 1.433 . S
C1233 N1235 1.384 . S
N1234 C1230 1.427 . S
N1234 C1231 1.384 . S
N1235 C1227 1.427 . S
N1235 C1233 1.384 . S
H1236 C1242 0.930 . S
H1237 C1246 0.930 . S
H1238 C1251 0.929 . S
H1239 C1249 0.929 . S
H1240 C1244 0.929 . S
H1241 C1250 0.929 . S
C1242 H1236 0.930 . S
C1242 C1243 1.367 . S
C1242 C1250 1.378 . S
C1243 C1242 1.367 . S
C1243 C1251 1.433 . S
C1244 H1240 0.929 . S
C1244 C1246 1.378 . S
C1244 C1248 1.350 . S
C1245 C1248 1.463 1_455 S
C1245 C1250 1.350 . S
C1245 N1253 1.427 . S
C1246 H1237 0.930 . S
C1246 C1244 1.378 . S
C1246 C1247 1.367 . S
C1247 C1246 1.367 . S
C1247 C1249 1.433 . S
C1248 C1244 1.350 . S
C1248 C1245 1.463 1_655 S
C1248 N1252 1.427 . S
C1249 H1239 0.929 . S
C1249 C1247 1.433 . S
C1249 N1252 1.384 . S
C1250 H1241 0.929 . S
C1250 C1242 1.378 . S
C1250 C1245 1.350 . S
C1251 H1238 0.929 . S
C1251 C1243 1.433 . S
C1251 N1253 1.384 . S
N1252 C1248 1.427 . S
N1252 C1249 1.384 . S
N1253 C1245 1.427 . S
N1253 C1251 1.384 . S
H1254 C1260 0.930 . S
H1255 C1264 0.930 . S
H1256 C1269 0.929 . S
H1257 C1267 0.929 . S
H1258 C1262 0.929 . S
H1259 C1268 0.929 . S
C1260 H1254 0.930 . S
C1260 C1261 1.367 1_554 S
C1260 C1268 1.378 . S
C1261 C1260 1.367 1_556 S
C1261 C1269 1.433 . S
C1262 H1258 0.929 . S
C1262 C1264 1.378 . S
C1262 C1266 1.350 1_556 S
C1263 C1266 1.463 1_546 S
C1263 C1268 1.350 1_556 S
C1263 N1271 1.427 . S
C1264 H1255 0.930 . S
C1264 C1262 1.378 . S
C1264 C1265 1.367 1_556 S
C1265 C1264 1.367 1_554 S
C1265 C1267 1.433 . S
C1266 C1262 1.350 1_554 S
C1266 C1263 1.463 1_564 S
C1266 N1270 1.427 . S
C1267 H1257 0.929 . S
C1267 C1265 1.433 . S
C1267 N1270 1.384 . S
C1268 H1259 0.929 . S
C1268 C1260 1.378 . S
C1268 C1263 1.350 1_554 S
C1269 H1256 0.929 . S
C1269 C1261 1.433 . S
C1269 N1271 1.384 . S
N1270 C1266 1.427 . S
N1270 C1267 1.384 . S
N1271 C1263 1.427 . S
N1271 C1269 1.384 . S
H1272 C1278 0.930 . S
H1273 C1282 0.930 . S
H1274 C1287 0.929 . S
H1275 C1285 0.929 . S
H1276 C1280 0.929 . S
H1277 C1286 0.929 . S
C1278 H1272 0.930 . S
C1278 C1279 1.367 . S
C1278 C1286 1.378 . S
C1279 C1278 1.367 . S
C1279 C1287 1.433 . S
C1280 H1276 0.929 . S
C1280 C1282 1.378 . S
C1280 C1284 1.350 . S
C1281 C1284 1.463 1_655 S
C1281 C1286 1.350 . S
C1281 N1289 1.427 . S
C1282 H1273 0.930 . S
C1282 C1280 1.378 . S
C1282 C1283 1.367 . S
C1283 C1282 1.367 . S
C1283 C1285 1.433 . S
C1284 C1280 1.350 . S
C1284 C1281 1.463 1_455 S
C1284 N1288 1.427 . S
C1285 H1275 0.929 . S
C1285 C1283 1.433 . S
C1285 N1288 1.384 . S
C1286 H1277 0.929 . S
C1286 C1278 1.378 . S
C1286 C1281 1.350 . S
C1287 H1274 0.929 . S
C1287 C1279 1.433 . S
C1287 N1289 1.384 . S
N1288 C1284 1.427 . S
N1288 C1285 1.384 . S
N1289 C1281 1.427 . S
N1289 C1287 1.384 . S
H1290 C1296 0.930 . S
H1291 C1300 0.930 . S
H1292 C1305 0.929 . S
H1293 C1303 0.929 . S
H1294 C1298 0.928 . S
H1295 C1304 0.928 . S
C1296 H1290 0.930 . S
C1296 C1297 1.367 . S
C1296 C1304 1.378 . S
C1297 C1296 1.367 . S
C1297 C1305 1.433 . S
C1298 H1294 0.928 . S
C1298 C1300 1.378 . S
C1298 C1302 1.350 . S
C1299 C1302 1.463 1_545 S
C1299 C1304 1.350 . S
C1299 N1307 1.427 . S
C1300 H1291 0.930 . S
C1300 C1298 1.378 . S
C1300 C1301 1.367 . S
C1301 C1300 1.367 . S
C1301 C1303 1.433 . S
C1302 C1298 1.350 . S
C1302 C1299 1.463 1_565 S
C1302 N1306 1.427 . S
C1303 H1293 0.929 . S
C1303 C1301 1.433 . S
C1303 N1306 1.384 . S
C1304 H1295 0.928 . S
C1304 C1296 1.378 . S
C1304 C1299 1.350 . S
C1305 H1292 0.929 . S
C1305 C1297 1.433 . S
C1305 N1307 1.384 . S
N1306 C1302 1.427 . S
N1306 C1303 1.384 . S
N1307 C1299 1.427 . S
N1307 C1305 1.384 . S
H1308 C1314 0.930 . S
H1309 C1318 0.930 . S
H1310 C1323 0.929 . S
H1311 C1321 0.929 . S
H1312 C1316 0.929 . S
H1313 C1322 0.929 . S
C1314 H1308 0.930 . S
C1314 C1315 1.367 . S
C1314 C1322 1.378 . S
C1315 C1314 1.367 . S
C1315 C1323 1.433 . S
C1316 H1312 0.929 . S
C1316 C1318 1.378 . S
C1316 C1320 1.350 . S
C1317 C1320 1.463 . S
C1317 C1322 1.350 . S
C1317 N1325 1.427 . S
C1318 H1309 0.930 . S
C1318 C1316 1.378 . S
C1318 C1319 1.367 . S
C1319 C1318 1.367 . S
C1319 C1321 1.433 . S
C1320 C1316 1.350 . S
C1320 C1317 1.463 . S
C1320 N1324 1.427 . S
C1321 H1311 0.929 . S
C1321 C1319 1.433 . S
C1321 N1324 1.384 . S
C1322 H1313 0.929 . S
C1322 C1314 1.378 . S
C1322 C1317 1.350 . S
C1323 H1310 0.929 . S
C1323 C1315 1.433 . S
C1323 N1325 1.384 . S
N1324 C1320 1.427 . S
N1324 C1321 1.384 . S
N1325 C1317 1.427 . S
N1325 C1323 1.384 . S
H1326 C1332 0.930 . S
H1327 C1336 0.930 . S
H1328 C1341 0.929 . S
H1329 C1339 0.929 . S
H1330 C1334 0.927 . S
H1331 C1340 0.929 . S
C1332 H1326 0.930 . S
C1332 C1333 1.367 . S
C1332 C1340 1.378 . S
C1333 C1332 1.367 . S
C1333 C1341 1.433 . S
C1334 H1330 0.927 . S
C1334 C1336 1.378 . S
C1334 C1338 1.350 . S
C1335 C1338 1.463 1_455 S
C1335 C1340 1.350 . S
C1335 N1343 1.427 . S
C1336 H1327 0.930 . S
C1336 C1334 1.378 . S
C1336 C1337 1.367 . S
C1337 C1336 1.367 . S
C1337 C1339 1.433 . S
C1338 C1334 1.350 . S
C1338 C1335 1.463 1_655 S
C1338 N1342 1.427 . S
C1339 H1329 0.929 . S
C1339 C1337 1.433 . S
C1339 N1342 1.384 . S
C1340 H1331 0.929 . S
C1340 C1332 1.378 . S
C1340 C1335 1.350 . S
C1341 H1328 0.929 . S
C1341 C1333 1.433 . S
C1341 N1343 1.384 . S
N1342 C1338 1.427 . S
N1342 C1339 1.384 . S
N1343 C1335 1.427 . S
N1343 C1341 1.384 . S
H1344 C1350 0.930 . S
H1345 C1354 0.930 . S
H1346 C1359 0.929 . S
H1347 C1357 0.929 . S
H1348 C1352 0.929 1_545 S
H1349 C1358 0.929 1_565 S
C1350 H1344 0.930 . S
C1350 C1351 1.367 . S
C1350 C1358 1.378 . S
C1351 C1350 1.367 . S
C1351 C1359 1.433 . S
C1352 H1348 0.929 1_565 S
C1352 C1354 1.378 . S
C1352 C1356 1.350 . S
C1353 C1356 1.463 1_545 S
C1353 C1358 1.350 . S
C1353 N1361 1.427 . S
C1354 H1345 0.930 . S
C1354 C1352 1.378 . S
C1354 C1355 1.367 . S
C1355 C1354 1.367 . S
C1355 C1357 1.433 . S
C1356 C1352 1.350 . S
C1356 C1353 1.463 1_565 S
C1356 N1360 1.427 . S
C1357 H1347 0.929 . S
C1357 C1355 1.433 . S
C1357 N1360 1.384 . S
C1358 H1349 0.929 1_545 S
C1358 C1350 1.378 . S
C1358 C1353 1.350 . S
C1359 H1346 0.929 . S
C1359 C1351 1.433 . S
C1359 N1361 1.384 . S
N1360 C1356 1.427 . S
N1360 C1357 1.384 . S
N1361 C1353 1.427 . S
N1361 C1359 1.384 . S
H1362 C1368 0.930 . S
H1363 C1372 0.930 . S
H1364 C1377 0.929 . S
H1365 C1375 0.929 . S
H1366 C1370 0.929 . S
H1367 C1376 0.929 . S
C1368 H1362 0.930 . S
C1368 C1369 1.367 . S
C1368 C1376 1.378 . S
C1369 C1368 1.367 . S
C1369 C1377 1.433 . S
C1370 H1366 0.929 . S
C1370 C1372 1.378 . S
C1370 C1374 1.350 . S
C1371 C1374 1.463 . S
C1371 C1376 1.350 . S
C1371 N1379 1.427 . S
C1372 H1363 0.930 . S
C1372 C1370 1.378 . S
C1372 C1373 1.367 . S
C1373 C1372 1.367 . S
C1373 C1375 1.433 . S
C1374 C1370 1.350 . S
C1374 C1371 1.463 . S
C1374 N1378 1.427 . S
C1375 H1365 0.929 . S
C1375 C1373 1.433 . S
C1375 N1378 1.384 . S
C1376 H1367 0.929 . S
C1376 C1368 1.378 . S
C1376 C1371 1.350 . S
C1377 H1364 0.929 . S
C1377 C1369 1.433 . S
C1377 N1379 1.384 . S
N1378 C1374 1.427 . S
N1378 C1375 1.384 . S
N1379 C1371 1.427 . S
N1379 C1377 1.384 . S
H1380 C1386 0.930 . S
H1381 C1390 0.930 . S
H1382 C1395 0.929 . S
H1383 C1393 0.929 . S
H1384 C1388 0.929 . S
H1385 C1394 0.929 . S
C1386 H1380 0.930 . S
C1386 C1387 1.367 . S
C1386 C1394 1.378 . S
C1387 C1386 1.367 . S
C1387 C1395 1.433 . S
C1388 H1384 0.929 . S
C1388 C1390 1.378 . S
C1388 C1392 1.350 . S
C1389 C1392 1.463 . S
C1389 C1394 1.350 . S
C1389 N1397 1.427 . S
C1390 H1381 0.930 . S
C1390 C1388 1.378 . S
C1390 C1391 1.367 . S
C1391 C1390 1.367 . S
C1391 C1393 1.433 . S
C1392 C1388 1.350 . S
C1392 C1389 1.463 . S
C1392 N1396 1.427 . S
C1393 H1383 0.929 . S
C1393 C1391 1.433 . S
C1393 N1396 1.384 . S
C1394 H1385 0.929 . S
C1394 C1386 1.378 . S
C1394 C1389 1.350 . S
C1395 H1382 0.929 . S
C1395 C1387 1.433 . S
C1395 N1397 1.384 . S
N1396 C1392 1.427 . S
N1396 C1393 1.384 . S
N1397 C1389 1.427 . S
N1397 C1395 1.384 . S
H1398 C1404 0.930 . S
H1399 C1408 0.930 . S
H1400 C1413 0.929 . S
H1401 C1411 0.929 . S
H1402 C1406 0.929 . S
H1403 C1412 0.929 . S
C1404 H1398 0.930 . S
C1404 C1405 1.367 . S
C1404 C1412 1.378 . S
C1405 C1404 1.367 . S
C1405 C1413 1.433 . S
C1406 H1402 0.929 . S
C1406 C1408 1.378 . S
C1406 C1410 1.350 . S
C1407 C1410 1.463 . S
C1407 C1412 1.350 . S
C1407 N1415 1.427 . S
C1408 H1399 0.930 . S
C1408 C1406 1.378 . S
C1408 C1409 1.367 . S
C1409 C1408 1.367 . S
C1409 C1411 1.433 . S
C1410 C1406 1.350 . S
C1410 C1407 1.463 . S
C1410 N1414 1.427 . S
C1411 H1401 0.929 . S
C1411 C1409 1.433 . S
C1411 N1414 1.384 . S
C1412 H1403 0.929 . S
C1412 C1404 1.378 . S
C1412 C1407 1.350 . S
C1413 H1400 0.929 . S
C1413 C1405 1.433 . S
C1413 N1415 1.384 . S
N1414 C1410 1.427 . S
N1414 C1411 1.384 . S
N1415 C1407 1.427 . S
N1415 C1413 1.384 . S
H1416 C1422 0.930 . S
H1417 C1426 0.930 . S
H1418 C1431 0.929 . S
H1419 C1429 0.929 . S
H1420 C1424 0.929 . S
H1421 C1430 0.929 . S
C1422 H1416 0.930 . S
C1422 C1423 1.367 . S
C1422 C1430 1.378 . S
C1423 C1422 1.367 . S
C1423 C1431 1.433 . S
C1424 H1420 0.929 . S
C1424 C1426 1.378 . S
C1424 C1428 1.350 . S
C1425 C1428 1.463 . S
C1425 C1430 1.350 . S
C1425 N1433 1.427 . S
C1426 H1417 0.930 . S
C1426 C1424 1.378 . S
C1426 C1427 1.367 . S
C1427 C1426 1.367 . S
C1427 C1429 1.433 . S
C1428 C1424 1.350 . S
C1428 C1425 1.463 . S
C1428 N1432 1.427 . S
C1429 H1419 0.929 . S
C1429 C1427 1.433 . S
C1429 N1432 1.384 . S
C1430 H1421 0.929 . S
C1430 C1422 1.378 . S
C1430 C1425 1.350 . S
C1431 H1418 0.929 . S
C1431 C1423 1.433 . S
C1431 N1433 1.384 . S
N1432 C1428 1.427 . S
N1432 C1429 1.384 . S
N1433 C1425 1.427 . S
N1433 C1431 1.384 . S
H1434 C1440 0.930 . S
H1435 C1444 0.930 . S
H1436 C1449 0.929 . S
H1437 C1447 0.929 . S
H1438 C1442 0.929 . S
H1439 C1448 0.929 . S
C1440 H1434 0.930 . S
C1440 C1441 1.367 . S
C1440 C1448 1.378 . S
C1441 C1440 1.367 . S
C1441 C1449 1.433 . S
C1442 H1438 0.929 . S
C1442 C1444 1.378 . S
C1442 C1446 1.350 . S
C1443 C1446 1.463 . S
C1443 C1448 1.350 . S
C1443 N1451 1.427 . S
C1444 H1435 0.930 . S
C1444 C1442 1.378 . S
C1444 C1445 1.367 . S
C1445 C1444 1.367 . S
C1445 C1447 1.433 . S
C1446 C1442 1.350 . S
C1446 C1443 1.463 . S
C1446 N1450 1.427 . S
C1447 H1437 0.929 . S
C1447 C1445 1.433 . S
C1447 N1450 1.384 . S
C1448 H1439 0.929 . S
C1448 C1440 1.378 . S
C1448 C1443 1.350 . S
C1449 H1436 0.929 . S
C1449 C1441 1.433 . S
C1449 N1451 1.384 . S
N1450 C1446 1.427 . S
N1450 C1447 1.384 . S
N1451 C1443 1.427 . S
N1451 C1449 1.384 . S
H1452 C1458 0.930 . S
H1453 C1462 0.930 . S
H1454 C1467 0.929 . S
H1455 C1465 0.929 . S
H1456 C1460 0.929 . S
H1457 C1466 0.929 . S
C1458 H1452 0.930 . S
C1458 C1459 1.367 . S
C1458 C1466 1.378 . S
C1459 C1458 1.367 . S
C1459 C1467 1.433 . S
C1460 H1456 0.929 . S
C1460 C1462 1.378 . S
C1460 C1464 1.350 . S
C1461 C1464 1.463 . S
C1461 C1466 1.350 . S
C1461 N1469 1.427 . S
C1462 H1453 0.930 . S
C1462 C1460 1.378 . S
C1462 C1463 1.367 . S
C1463 C1462 1.367 . S
C1463 C1465 1.433 . S
C1464 C1460 1.350 . S
C1464 C1461 1.463 . S
C1464 N1468 1.427 . S
C1465 H1455 0.929 . S
C1465 C1463 1.433 . S
C1465 N1468 1.384 . S
C1466 H1457 0.929 . S
C1466 C1458 1.378 . S
C1466 C1461 1.350 . S
C1467 H1454 0.929 . S
C1467 C1459 1.433 . S
C1467 N1469 1.384 . S
N1468 C1464 1.427 . S
N1468 C1465 1.384 . S
N1469 C1461 1.427 . S
N1469 C1467 1.384 . S
H1470 C1476 0.930 . S
H1471 C1480 0.930 . S
H1472 C1485 0.929 . S
H1473 C1483 0.929 . S
H1474 C1478 0.929 . S
H1475 C1484 0.929 . S
C1476 H1470 0.930 . S
C1476 C1477 1.367 . S
C1476 C1484 1.378 . S
C1477 C1476 1.367 . S
C1477 C1485 1.433 . S
C1478 H1474 0.929 . S
C1478 C1480 1.378 . S
C1478 C1482 1.350 . S
C1479 C1482 1.463 . S
C1479 C1484 1.350 . S
C1479 N1487 1.427 . S
C1480 H1471 0.930 . S
C1480 C1478 1.378 . S
C1480 C1481 1.367 . S
C1481 C1480 1.367 . S
C1481 C1483 1.433 . S
C1482 C1478 1.350 . S
C1482 C1479 1.463 . S
C1482 N1486 1.427 . S
C1483 H1473 0.929 . S
C1483 C1481 1.433 . S
C1483 N1486 1.384 . S
C1484 H1475 0.929 . S
C1484 C1476 1.378 . S
C1484 C1479 1.350 . S
C1485 H1472 0.929 . S
C1485 C1477 1.433 . S
C1485 N1487 1.384 . S
N1486 C1482 1.427 . S
N1486 C1483 1.384 . S
N1487 C1479 1.427 . S
N1487 C1485 1.384 . S
C1063 C20 1.428 . S
C1067 C585 1.434 . S
C1081 C108 1.432 . S
C1085 C665 1.439 . S
C1099 C205 1.435 . S
C1103 C753 1.443 . S
C1117 C841 1.430 . S
C1121 C293 1.431 . S
C1135 C381 1.433 . S
C1139 C937 1.428 . S
C1153 C1017 1.441 . S
C1157 C460 1.444 . S
C1171 C49 0.508 . S
C1175 C812 0.516 . S
C1189 C137 0.510 . S
C1193 C909 0.521 . S
C1207 C988 0.529 . S
C1211 C233 0.517 . S
C1225 C557 0.519 . S
C1229 C321 0.509 . S
C1243 C409 0.539 . S
C1247 C636 0.540 . S
C1261 C489 0.519 . S
C1265 C724 0.524 . S
C1279 C997 2.218 . S
C1283 C57 2.210 . S
C1297 C145 2.258 . S
C1301 C548 2.255 . S
C1315 C225 2.215 . S
C1319 C645 2.209 . S
C1333 C733 2.216 . S
C1337 C313 2.214 . S
C1351 C821 2.259 . S
C1355 C401 2.256 . S
C1369 C497 2.214 . S
C1373 C900 2.211 . S
C1387 C29 1.030 . S
C1391 C929 1.033 . S
C1405 C1025 1.038 . S
C1409 C117 1.046 . S
C1423 C577 1.060 . S
C1427 C196 1.065 . S
C1441 C284 1.001 . S
C1445 C673 1.002 . S
C1459 C761 1.056 . S
C1463 C372 1.063 . S
C1477 C849 1.060 . S
C1481 C469 1.065 . S
