# Generated by pormake.
# Topology ukb, (4)-cn, num edge types: 1
# Building blocks:
#     Node 0, Type 0, BuildingBlock: KUFVIS_clean_sbu_0, # of connection points: 4
#     Node 1, Type 0, BuildingBlock: KUFVIS_clean_sbu_0, # of connection points: 4
#     Node 2, Type 0, BuildingBlock: KUFVIS_clean_sbu_0, # of connection points: 4
#     Node 3, Type 0, BuildingBlock: KUFVIS_clean_sbu_0, # of connection points: 4
#     Node 4, Type 0, BuildingBlock: KUFVIS_clean_sbu_0, # of connection points: 4
#     Node 5, Type 0, BuildingBlock: KUFVIS_clean_sbu_0, # of connection points: 4
#     Node 6, Type 0, BuildingBlock: KUFVIS_clean_sbu_0, # of connection points: 4
#     Node 7, Type 0, BuildingBlock: KUFVIS_clean_sbu_0, # of connection points: 4
#     Node 8, Type 0, BuildingBlock: KUFVIS_clean_sbu_0, # of connection points: 4
#     Node 9, Type 0, BuildingBlock: KUFVIS_clean_sbu_0, # of connection points: 4
#     Node 10, Type 0, BuildingBlock: KUFVIS_clean_sbu_0, # of connection points: 4
#     Node 11, Type 0, BuildingBlock: KUFVIS_clean_sbu_0, # of connection points: 4
#     Node 12, Type 0, BuildingBlock: KUFVIS_clean_sbu_0, # of connection points: 4
#     Node 13, Type 0, BuildingBlock: KUFVIS_clean_sbu_0, # of connection points: 4
#     Node 14, Type 0, BuildingBlock: KUFVIS_clean_sbu_0, # of connection points: 4
#     Node 15, Type 0, BuildingBlock: KUFVIS_clean_sbu_0, # of connection points: 4
#     Edge 16, Type (0, 0), BuildingBlock: KIFKEQ_clean_linker_1, # of connection points: 2
#     Edge 17, Type (0, 0), BuildingBlock: KIFKEQ_clean_linker_1, # of connection points: 2
#     Edge 18, Type (0, 0), BuildingBlock: KIFKEQ_clean_linker_1, # of connection points: 2
#     Edge 19, Type (0, 0), BuildingBlock: KIFKEQ_clean_linker_1, # of connection points: 2
#     Edge 20, Type (0, 0), BuildingBlock: KIFKEQ_clean_linker_1, # of connection points: 2
#     Edge 21, Type (0, 0), BuildingBlock: KIFKEQ_clean_linker_1, # of connection points: 2
#     Edge 22, Type (0, 0), BuildingBlock: KIFKEQ_clean_linker_1, # of connection points: 2
#     Edge 23, Type (0, 0), BuildingBlock: KIFKEQ_clean_linker_1, # of connection points: 2
#     Edge 24, Type (0, 0), BuildingBlock: KIFKEQ_clean_linker_1, # of connection points: 2
#     Edge 25, Type (0, 0), BuildingBlock: KIFKEQ_clean_linker_1, # of connection points: 2
#     Edge 26, Type (0, 0), BuildingBlock: KIFKEQ_clean_linker_1, # of connection points: 2
#     Edge 27, Type (0, 0), BuildingBlock: KIFKEQ_clean_linker_1, # of connection points: 2
#     Edge 28, Type (0, 0), BuildingBlock: KIFKEQ_clean_linker_1, # of connection points: 2
#     Edge 29, Type (0, 0), BuildingBlock: KIFKEQ_clean_linker_1, # of connection points: 2
#     Edge 30, Type (0, 0), BuildingBlock: KIFKEQ_clean_linker_1, # of connection points: 2
#     Edge 31, Type (0, 0), BuildingBlock: KIFKEQ_clean_linker_1, # of connection points: 2
#     Edge 32, Type (0, 0), BuildingBlock: KIFKEQ_clean_linker_1, # of connection points: 2
#     Edge 33, Type (0, 0), BuildingBlock: KIFKEQ_clean_linker_1, # of connection points: 2
#     Edge 34, Type (0, 0), BuildingBlock: KIFKEQ_clean_linker_1, # of connection points: 2
#     Edge 35, Type (0, 0), BuildingBlock: KIFKEQ_clean_linker_1, # of connection points: 2
#     Edge 36, Type (0, 0), BuildingBlock: KIFKEQ_clean_linker_1, # of connection points: 2
#     Edge 37, Type (0, 0), BuildingBlock: KIFKEQ_clean_linker_1, # of connection points: 2
#     Edge 38, Type (0, 0), BuildingBlock: KIFKEQ_clean_linker_1, # of connection points: 2
#     Edge 39, Type (0, 0), BuildingBlock: KIFKEQ_clean_linker_1, # of connection points: 2
#     Edge 40, Type (0, 0), BuildingBlock: KIFKEQ_clean_linker_1, # of connection points: 2
#     Edge 41, Type (0, 0), BuildingBlock: KIFKEQ_clean_linker_1, # of connection points: 2
#     Edge 42, Type (0, 0), BuildingBlock: KIFKEQ_clean_linker_1, # of connection points: 2
#     Edge 43, Type (0, 0), BuildingBlock: KIFKEQ_clean_linker_1, # of connection points: 2
#     Edge 44, Type (0, 0), BuildingBlock: KIFKEQ_clean_linker_1, # of connection points: 2
#     Edge 45, Type (0, 0), BuildingBlock: KIFKEQ_clean_linker_1, # of connection points: 2
#     Edge 46, Type (0, 0), BuildingBlock: KIFKEQ_clean_linker_1, # of connection points: 2
#     Edge 47, Type (0, 0), BuildingBlock: KIFKEQ_clean_linker_1, # of connection points: 2
# Relax obj value: 0.089
# Max RMSD: 0.069
# Mean RMSD: 0.069
data_MOF--net-ukb--node1-KUFVIS_clean_sbu_0--edge1-KIFKEQ_clean_linker_1
_symmetry_space_group_name_H-M    P1
_symmetry_Int_Tables_number       1
_symmetry_cell_setting            triclinic
loop_
_symmetry_equiv_pos_as_xyz
'x, y, z'
_cell_length_a     44.066992
_cell_length_b     44.078566
_cell_length_c     38.690781
_cell_angle_alpha  90.005413
_cell_angle_beta   89.969546
_cell_angle_gamma 89.967457
loop_
_atom_site_label
_atom_site_type_symbol
_atom_site_fract_x
_atom_site_fract_y
_atom_site_fract_z
_atom_type_partial_charge
Mn0 Mn 0.52763 0.18823 0.18581 0.0
Mn1 Mn 0.59407 0.19243 0.14269 0.0
C2 C 0.57079 0.16689 0.20973 0.0
C3 C 0.4822 0.16235 0.19578 0.0
C4 C 0.56632 0.24522 0.18236 0.0
O5 O 0.51516 0.20202 0.13736 0.0
O6 O 0.5599 0.19672 0.10961 0.0
C7 C 0.58935 0.13563 0.10229 0.0
N8 N 0.60476 0.15337 0.12511 0.0
C9 C 0.64518 0.11683 0.12927 0.0
C10 C 0.62985 0.09825 0.1056 0.0
C11 C 0.60176 0.10765 0.09216 0.0
C12 C 0.63162 0.14439 0.13853 0.0
H13 H 0.56774 0.14279 0.09195 0.0
C14 C 0.53139 0.20234 0.10999 0.0
O15 O 0.48489 0.19098 0.20327 0.0
O16 O 0.50524 0.14951 0.18096 0.0
N17 N 0.62943 0.18871 0.17111 0.0
C18 C 0.64116 0.20915 0.19392 0.0
C19 C 0.66914 0.20309 0.20988 0.0
C20 C 0.68498 0.17635 0.20183 0.0
C21 C 0.6728 0.156 0.1777 0.0
C22 C 0.64488 0.16329 0.16254 0.0
H23 H 0.62926 0.22988 0.19999 0.0
O24 O 0.54726 0.17245 0.22879 0.0
O25 O 0.56797 0.17294 0.17699 0.0
O26 O 0.54411 0.23079 0.19577 0.0
O27 O 0.58506 0.23343 0.16092 0.0
C28 C 0.68717 0.12869 0.16822 0.0
C29 C 0.67327 0.109 0.14423 0.0
H30 H 0.63937 0.07667 0.0977 0.0
H31 H 0.58973 0.09337 0.07401 0.0
H32 H 0.67846 0.219 0.22834 0.0
H33 H 0.70646 0.17165 0.21436 0.0
H34 H 0.7088 0.12246 0.17949 0.0
H35 H 0.68436 0.08787 0.1375 0.0
Mn36 Mn 0.31506 0.5339 0.69588 0.0
Mn37 Mn 0.32089 0.60083 0.65359 0.0
C38 C 0.34218 0.57337 0.7205 0.0
C39 C 0.33344 0.48505 0.70606 0.0
C40 C 0.26482 0.58193 0.69413 0.0
O41 O 0.30032 0.52325 0.6474 0.0
O42 O 0.30906 0.56797 0.62105 0.0
C43 C 0.3743 0.58483 0.61087 0.0
N44 N 0.36048 0.60383 0.63375 0.0
C45 C 0.40341 0.63751 0.63375 0.0
C46 C 0.41797 0.6185 0.60987 0.0
C47 C 0.40342 0.59194 0.59855 0.0
C48 C 0.37453 0.62908 0.64536 0.0
H49 H 0.36319 0.56439 0.60217 0.0
C50 C 0.30077 0.54015 0.62064 0.0
O51 O 0.3056 0.49229 0.71346 0.0
O52 O 0.35004 0.50571 0.69156 0.0
N53 N 0.33225 0.63533 0.68073 0.0
C54 C 0.31528 0.65107 0.70412 0.0
C55 C 0.32663 0.67819 0.71811 0.0
C56 C 0.35505 0.68916 0.70748 0.0
C57 C 0.37184 0.67293 0.68284 0.0
C58 C 0.35935 0.64606 0.66979 0.0
H59 H 0.29338 0.64287 0.7123 0.0
O60 O 0.33281 0.55086 0.73916 0.0
O61 O 0.33646 0.57173 0.68754 0.0
O62 O 0.27502 0.55646 0.70494 0.0
O63 O 0.27984 0.59972 0.67433 0.0
C64 C 0.40053 0.68229 0.67082 0.0
C65 C 0.41644 0.66444 0.64656 0.0
H66 H 0.44039 0.62397 0.60021 0.0
H67 H 0.41459 0.57704 0.5803 0.0
H68 H 0.3135 0.69061 0.73706 0.0
H69 H 0.3638 0.71 0.71846 0.0
H70 H 0.41068 0.70307 0.68026 0.0
H71 H 0.43866 0.67167 0.63789 0.0
Mn72 Mn 0.97642 0.31296 0.19659 0.0
Mn73 Mn 0.91117 0.30861 0.15117 0.0
C74 C 0.93251 0.33404 0.21931 0.0
C75 C 0.02142 0.339 0.20827 0.0
C76 C 0.93825 0.25573 0.19124 0.0
O77 O 0.99045 0.29979 0.1484 0.0
O78 O 0.94637 0.30515 0.11937 0.0
C79 C 0.91595 0.36564 0.1112 0.0
N80 N 0.90014 0.34741 0.13316 0.0
C81 C 0.85818 0.38234 0.13453 0.0
C82 C 0.87389 0.40138 0.11166 0.0
C83 C 0.90295 0.39305 0.10006 0.0
C84 C 0.87227 0.35531 0.1447 0.0
H85 H 0.9383 0.3593 0.10232 0.0
C86 C 0.97495 0.29995 0.12054 0.0
O87 O 0.01871 0.31031 0.21541 0.0
O88 O 0.99867 0.35185 0.19294 0.0
N89 N 0.87495 0.31161 0.1783 0.0
C90 C 0.86358 0.29157 0.2018 0.0
C91 C 0.83501 0.297 0.21668 0.0
C92 C 0.81826 0.32272 0.20694 0.0
C93 C 0.83024 0.34281 0.18238 0.0
C94 C 0.85877 0.33616 0.16832 0.0
H95 H 0.87622 0.27163 0.20922 0.0
O96 O 0.95555 0.32825 0.23902 0.0
O97 O 0.93613 0.32824 0.18658 0.0
O98 O 0.95999 0.27013 0.20564 0.0
O99 O 0.92014 0.26769 0.16931 0.0
C100 C 0.81532 0.36956 0.17191 0.0
C101 C 0.82932 0.38936 0.14809 0.0
H102 H 0.86399 0.42258 0.10309 0.0
H103 H 0.9153 0.40771 0.08258 0.0
H104 H 0.82593 0.28139 0.23564 0.0
H105 H 0.79634 0.32696 0.21868 0.0
H106 H 0.79331 0.37539 0.18249 0.0
H107 H 0.81784 0.41009 0.14067 0.0
Mn108 Mn 0.18182 0.96713 0.68718 0.0
Mn109 Mn 0.17899 0.89762 0.65031 0.0
C110 C 0.15425 0.92857 0.71302 0.0
C111 C 0.16159 0.01569 0.69543 0.0
C112 C 0.23154 0.91821 0.69451 0.0
O113 O 0.19782 0.97618 0.63857 0.0
O114 O 0.19677 0.92828 0.61883 0.0
C115 C 0.13257 0.91411 0.59831 0.0
N116 N 0.14214 0.8957 0.62439 0.0
C117 C 0.09742 0.86471 0.61965 0.0
C118 C 0.08714 0.88324 0.59262 0.0
C119 C 0.10474 0.90813 0.58202 0.0
C120 C 0.12515 0.87203 0.63519 0.0
H121 H 0.14607 0.9332 0.59001 0.0
C122 C 0.20323 0.95639 0.61529 0.0
O123 O 0.18966 0.0097 0.70323 0.0
O124 O 0.14634 0.99421 0.68062 0.0
N125 N 0.16267 0.8647 0.67667 0.0
C126 C 0.17638 0.84834 0.70216 0.0
C127 C 0.16216 0.82219 0.71509 0.0
C128 C 0.13431 0.81273 0.70118 0.0
C129 C 0.121 0.82944 0.67433 0.0
C130 C 0.13632 0.85523 0.66239 0.0
H131 H 0.19792 0.85531 0.71272 0.0
O132 O 0.16318 0.95182 0.73069 0.0
O133 O 0.16092 0.92863 0.68021 0.0
O134 O 0.22213 0.94544 0.69921 0.0
O135 O 0.21674 0.89822 0.67745 0.0
C136 C 0.09321 0.82144 0.65882 0.0
C137 C 0.0813 0.83921 0.6317 0.0
H138 H 0.06577 0.87859 0.57984 0.0
H139 H 0.09693 0.92259 0.56124 0.0
H140 H 0.17267 0.80932 0.73567 0.0
H141 H 0.12342 0.79254 0.71122 0.0
H142 H 0.08079 0.80168 0.66758 0.0
H143 H 0.05983 0.83293 0.62011 0.0
Mn144 Mn 0.52686 0.31733 0.8106 0.0
Mn145 Mn 0.59402 0.32108 0.85282 0.0
C146 C 0.56684 0.3435 0.78562 0.0
C147 C 0.47836 0.33692 0.80114 0.0
C148 C 0.57341 0.26584 0.81201 0.0
O149 O 0.51616 0.30232 0.8589 0.0
O150 O 0.5608 0.31056 0.88554 0.0
C151 C 0.58068 0.37501 0.8958 0.0
N152 N 0.59897 0.36035 0.87286 0.0
C153 C 0.63533 0.40103 0.87393 0.0
C154 C 0.617 0.41648 0.89779 0.0
C155 C 0.58949 0.40347 0.90864 0.0
C156 C 0.62529 0.37281 0.86193 0.0
H157 H 0.55955 0.36501 0.9042 0.0
C158 C 0.53289 0.30253 0.88576 0.0
O159 O 0.48491 0.30899 0.79341 0.0
O160 O 0.49952 0.35291 0.8156 0.0
N161 N 0.62899 0.33086 0.82565 0.0
C162 C 0.64336 0.31366 0.80137 0.0
C163 C 0.67112 0.32358 0.78755 0.0
C164 C 0.68406 0.35083 0.7992 0.0
C165 C 0.66903 0.368 0.82448 0.0
C166 C 0.64151 0.35689 0.83743 0.0
H167 H 0.63363 0.29263 0.79241 0.0
O168 O 0.54374 0.33494 0.76741 0.0
O169 O 0.56545 0.33775 0.8187 0.0
O170 O 0.54839 0.27677 0.80076 0.0
O171 O 0.59124 0.28026 0.83225 0.0
C172 C 0.67991 0.39607 0.83673 0.0
C173 C 0.66299 0.41264 0.8613 0.0
H174 H 0.62373 0.43843 0.90779 0.0
H175 H 0.57515 0.41533 0.92692 0.0
H176 H 0.6825 0.31027 0.76793 0.0
H177 H 0.70532 0.35854 0.78825 0.0
H178 H 0.70102 0.40533 0.82703 0.0
H179 H 0.67138 0.43439 0.87017 0.0
Mn180 Mn 0.19221 0.53421 0.31651 0.0
Mn181 Mn 0.19508 0.60246 0.35587 0.0
C182 C 0.16907 0.57559 0.29089 0.0
C183 C 0.16761 0.48769 0.30958 0.0
C184 C 0.24794 0.57492 0.31608 0.0
O185 O 0.20698 0.52409 0.36529 0.0
O186 O 0.20109 0.56982 0.39061 0.0
C187 C 0.13924 0.59749 0.39803 0.0
N188 N 0.15602 0.61257 0.37399 0.0
C189 C 0.1181 0.65161 0.36889 0.0
C190 C 0.10052 0.63664 0.39383 0.0
C191 C 0.11108 0.60939 0.40835 0.0
C192 C 0.14588 0.63857 0.35951 0.0
H193 H 0.14726 0.5765 0.40916 0.0
C194 C 0.2072 0.54143 0.39175 0.0
O195 O 0.196 0.49093 0.30123 0.0
O196 O 0.1543 0.51089 0.32348 0.0
N197 N 0.18956 0.63648 0.32574 0.0
C198 C 0.20908 0.64794 0.30172 0.0
C199 C 0.20176 0.67504 0.28454 0.0
C200 C 0.17471 0.69035 0.29261 0.0
C201 C 0.15531 0.6785 0.31797 0.0
C202 C 0.16383 0.65145 0.33428 0.0
H203 H 0.23006 0.63647 0.29561 0.0
O204 O 0.17512 0.55153 0.27293 0.0
O205 O 0.17578 0.57434 0.32358 0.0
O206 O 0.23405 0.55159 0.30455 0.0
O207 O 0.236 0.59411 0.33688 0.0
C208 C 0.12778 0.69241 0.32758 0.0
C209 C 0.10907 0.67885 0.35282 0.0
H210 H 0.07881 0.64577 0.40189 0.0
H211 H 0.09757 0.59762 0.42747 0.0
H212 H 0.21693 0.68411 0.26512 0.0
H213 H 0.16904 0.71114 0.27916 0.0
H214 H 0.12064 0.71338 0.31547 0.0
H215 H 0.08774 0.68953 0.35963 0.0
Mn216 Mn 0.97395 0.18252 0.82177 0.0
Mn217 Mn 0.90559 0.1846 0.86183 0.0
C218 C 0.93279 0.15769 0.79764 0.0
C219 C 0.02111 0.15956 0.81235 0.0
C220 C 0.92925 0.23606 0.81785 0.0
O221 O 0.9852 0.19844 0.86988 0.0
O222 O 0.93835 0.19832 0.89299 0.0
C223 C 0.91851 0.13492 0.9111 0.0
N224 N 0.90065 0.14714 0.886 0.0
C225 C 0.86577 0.10528 0.88926 0.0
C226 C 0.8837 0.09229 0.91529 0.0
C227 C 0.91026 0.10713 0.92615 0.0
C228 C 0.87533 0.13285 0.87498 0.0
H229 H 0.9389 0.14632 0.91954 0.0
C230 C 0.9668 0.20376 0.89466 0.0
O231 O 0.01646 0.18784 0.80444 0.0
O232 O 0.99911 0.14551 0.82779 0.0
N233 N 0.87085 0.1725 0.83561 0.0
C234 C 0.85551 0.18865 0.81118 0.0
C235 C 0.82813 0.17723 0.79792 0.0
C236 C 0.81644 0.14973 0.8105 0.0
C237 C 0.83209 0.13404 0.8365 0.0
C238 C 0.85923 0.14657 0.84876 0.0
H239 H 0.86416 0.21003 0.80179 0.0
O240 O 0.95626 0.16451 0.7791 0.0
O241 O 0.93425 0.16466 0.83032 0.0
O242 O 0.95466 0.22384 0.8098 0.0
O243 O 0.90919 0.22334 0.83685 0.0
C244 C 0.82183 0.10648 0.85078 0.0
C245 C 0.83878 0.09199 0.87694 0.0
H246 H 0.87733 0.07094 0.92708 0.0
H247 H 0.92426 0.09721 0.94616 0.0
H248 H 0.81603 0.18964 0.7781 0.0
H249 H 0.79538 0.14094 0.80012 0.0
H250 H 0.80096 0.0962 0.84178 0.0
H251 H 0.83076 0.07072 0.88756 0.0
Mn252 Mn 0.31188 0.9683 0.31043 0.0
Mn253 Mn 0.30898 0.90109 0.35205 0.0
C254 C 0.33365 0.92572 0.2854 0.0
C255 C 0.33707 0.01415 0.30077 0.0
C256 C 0.25546 0.92866 0.31354 0.0
O257 O 0.29874 0.98005 0.35953 0.0
O258 O 0.30477 0.93473 0.3858 0.0
C259 C 0.36627 0.90593 0.39155 0.0
N260 N 0.34835 0.89056 0.36888 0.0
C261 C 0.38516 0.85049 0.36364 0.0
C262 C 0.40388 0.86572 0.38724 0.0
C263 C 0.39445 0.89364 0.40112 0.0
C264 C 0.3574 0.86393 0.35496 0.0
H265 H 0.35914 0.92745 0.40212 0.0
C266 C 0.29922 0.96325 0.38645 0.0
O267 O 0.30838 0.01121 0.29374 0.0
O268 O 0.35039 0.99111 0.31499 0.0
N269 N 0.31283 0.86623 0.32283 0.0
C270 C 0.29239 0.85471 0.29988 0.0
C271 C 0.29857 0.82703 0.28333 0.0
C272 C 0.32545 0.81124 0.29091 0.0
C273 C 0.34584 0.82322 0.31514 0.0
C274 C 0.33842 0.85085 0.33089 0.0
H275 H 0.27154 0.86655 0.29416 0.0
O276 O 0.32744 0.94936 0.26682 0.0
O277 O 0.32784 0.92804 0.31822 0.0
O278 O 0.26943 0.95141 0.30071 0.0
O279 O 0.26767 0.9098 0.33451 0.0
C280 C 0.37331 0.80891 0.32412 0.0
C281 C 0.39308 0.82264 0.34815 0.0
H282 H 0.42562 0.8563 0.3947 0.0
H283 H 0.40886 0.90564 0.41916 0.0
H284 H 0.28265 0.81787 0.26478 0.0
H285 H 0.33024 0.78999 0.27793 0.0
H286 H 0.37963 0.7875 0.31239 0.0
H287 H 0.41436 0.81164 0.35443 0.0
Mn288 Mn 0.4718 0.81811 0.81587 0.0
Mn289 Mn 0.40683 0.81304 0.86196 0.0
C290 C 0.42758 0.83866 0.79361 0.0
C291 C 0.51646 0.84423 0.80282 0.0
C292 C 0.43389 0.76054 0.82128 0.0
O293 O 0.48631 0.8052 0.86387 0.0
O294 O 0.44228 0.80905 0.89333 0.0
C295 C 0.41231 0.8697 0.90251 0.0
N296 N 0.3962 0.85175 0.88054 0.0
C297 C 0.35455 0.88707 0.87987 0.0
C298 C 0.37059 0.90584 0.90272 0.0
C299 C 0.39965 0.89716 0.91398 0.0
C300 C 0.36835 0.85999 0.86931 0.0
H301 H 0.43466 0.86308 0.91115 0.0
C302 C 0.47094 0.80438 0.89186 0.0
O303 O 0.51378 0.81543 0.79633 0.0
O304 O 0.49398 0.85718 0.81865 0.0
N305 N 0.37032 0.8164 0.83547 0.0
C306 C 0.3584 0.79635 0.81233 0.0
C307 C 0.32962 0.80195 0.79809 0.0
C308 C 0.31322 0.82781 0.80814 0.0
C309 C 0.32575 0.84788 0.83235 0.0
C310 C 0.35445 0.84104 0.8458 0.0
H311 H 0.37076 0.77629 0.80471 0.0
O312 O 0.45052 0.83297 0.77368 0.0
O313 O 0.43144 0.83306 0.82637 0.0
O314 O 0.45568 0.77514 0.80726 0.0
O315 O 0.41551 0.77225 0.84313 0.0
C316 C 0.31116 0.87471 0.84315 0.0
C317 C 0.3256 0.89435 0.86678 0.0
H318 H 0.36093 0.92706 0.91158 0.0
H319 H 0.41223 0.9116 0.93146 0.0
H320 H 0.32011 0.78635 0.77942 0.0
H321 H 0.29112 0.83215 0.79693 0.0
H322 H 0.28904 0.88069 0.83302 0.0
H323 H 0.31435 0.91513 0.8745 0.0
Mn324 Mn 0.68698 0.46982 0.30921 0.0
Mn325 Mn 0.67998 0.403 0.35157 0.0
C326 C 0.65904 0.4309 0.28474 0.0
C327 C 0.66937 0.51896 0.29891 0.0
C328 C 0.73611 0.42051 0.31038 0.0
O329 O 0.70215 0.48028 0.35754 0.0
O330 O 0.6933 0.43554 0.38376 0.0
C331 C 0.62776 0.42073 0.39528 0.0
N332 N 0.64061 0.40128 0.37217 0.0
C333 C 0.59662 0.369 0.37307 0.0
C334 C 0.58303 0.3885 0.39719 0.0
C335 C 0.59861 0.41458 0.40818 0.0
C336 C 0.62559 0.37648 0.3609 0.0
H337 H 0.63964 0.44081 0.40374 0.0
C338 C 0.70195 0.46325 0.38418 0.0
O339 O 0.69707 0.51125 0.29144 0.0
O340 O 0.65253 0.49863 0.31364 0.0
N341 N 0.66718 0.36875 0.32485 0.0
C342 C 0.68337 0.35232 0.30137 0.0
C343 C 0.671 0.3255 0.28776 0.0
C344 C 0.64236 0.31552 0.29888 0.0
C345 C 0.62638 0.33243 0.32362 0.0
C346 C 0.63989 0.35894 0.3363 0.0
H347 H 0.70542 0.35978 0.29279 0.0
O348 O 0.66881 0.45322 0.26606 0.0
O349 O 0.66484 0.43242 0.31772 0.0
O350 O 0.72658 0.4464 0.30004 0.0
O351 O 0.72071 0.40289 0.33001 0.0
C352 C 0.59753 0.32408 0.3361 0.0
C353 C 0.58254 0.34249 0.36057 0.0
H354 H 0.56061 0.38376 0.4073 0.0
H355 H 0.5882 0.42984 0.42662 0.0
H356 H 0.68351 0.31255 0.26872 0.0
H357 H 0.63283 0.2949 0.2882 0.0
H358 H 0.58657 0.30363 0.32689 0.0
H359 H 0.56021 0.33602 0.36966 0.0
Mn360 Mn 0.02548 0.68577 0.81382 0.0
Mn361 Mn 0.09229 0.69248 0.85579 0.0
C362 C 0.06887 0.66529 0.78938 0.0
C363 C 0.98046 0.65909 0.8046 0.0
C364 C 0.06217 0.744 0.81635 0.0
O365 O 0.01323 0.69939 0.86242 0.0
O366 O 0.05841 0.69545 0.88951 0.0
C367 C 0.09097 0.63596 0.89702 0.0
N368 N 0.10522 0.65427 0.8738 0.0
C369 C 0.14808 0.62054 0.87062 0.0
C370 C 0.13397 0.60141 0.89472 0.0
C371 C 0.10525 0.6091 0.90787 0.0
C372 C 0.13277 0.647 0.8608 0.0
H373 H 0.06889 0.64183 0.90714 0.0
C374 C 0.02972 0.70012 0.88957 0.0
O375 O 0.98259 0.68773 0.79708 0.0
O376 O 0.00387 0.64659 0.81908 0.0
N377 N 0.12733 0.6901 0.82664 0.0
C378 C 0.13703 0.71008 0.80213 0.0
C379 C 0.16504 0.70524 0.78569 0.0
C380 C 0.18297 0.68016 0.79492 0.0
C381 C 0.17269 0.66011 0.8205 0.0
C382 C 0.14464 0.66617 0.83609 0.0
H383 H 0.12349 0.72953 0.79508 0.0
O384 O 0.04498 0.67028 0.7707 0.0
O385 O 0.0664 0.67153 0.82216 0.0
O386 O 0.04052 0.72869 0.80314 0.0
O387 O 0.08142 0.73298 0.83762 0.0
C388 C 0.18883 0.63396 0.83055 0.0
C389 C 0.17649 0.61413 0.85551 0.0
H390 H 0.14487 0.58063 0.90308 0.0
H391 H 0.09415 0.59437 0.92634 0.0
H392 H 0.1728 0.7208 0.76595 0.0
H393 H 0.20445 0.67638 0.782 0.0
H394 H 0.21049 0.62859 0.81879 0.0
H395 H 0.18888 0.59384 0.86262 0.0
Mn396 Mn 0.81219 0.02852 0.30698 0.0
Mn397 Mn 0.81422 0.09456 0.35105 0.0
C398 C 0.83887 0.06929 0.28448 0.0
C399 C 0.83213 0.98039 0.29672 0.0
C400 C 0.75966 0.07317 0.30961 0.0
O401 O 0.7963 0.0169 0.35499 0.0
O402 O 0.80639 0.06049 0.38333 0.0
C403 C 0.86982 0.08382 0.39218 0.0
N404 N 0.85382 0.10128 0.3696 0.0
C405 C 0.89348 0.13874 0.36796 0.0
C406 C 0.91025 0.12133 0.39153 0.0
C407 C 0.89844 0.09366 0.40353 0.0
C408 C 0.8652 0.12767 0.35742 0.0
H409 H 0.86082 0.06252 0.40136 0.0
C410 C 0.79803 0.03268 0.38262 0.0
O411 O 0.80437 0.98705 0.28837 0.0
O412 O 0.84777 0.00122 0.31229 0.0
N413 N 0.82175 0.12975 0.32332 0.0
C414 C 0.80309 0.14346 0.29997 0.0
C415 C 0.81185 0.17112 0.28496 0.0
C416 C 0.83941 0.18468 0.29456 0.0
C417 C 0.85793 0.17049 0.31919 0.0
C418 C 0.84804 0.14293 0.33323 0.0
H419 H 0.7817 0.13338 0.29275 0.0
O420 O 0.83107 0.0468 0.26484 0.0
O421 O 0.83178 0.06682 0.31697 0.0
O422 O 0.7721 0.04986 0.29611 0.0
O423 O 0.77271 0.09005 0.33201 0.0
C424 C 0.8859 0.18253 0.33022 0.0
C425 C 0.9038 0.16653 0.35434 0.0
H426 H 0.93231 0.12887 0.40039 0.0
H427 H 0.91133 0.07999 0.42152 0.0
H428 H 0.79735 0.18199 0.26608 0.0
H429 H 0.84616 0.20595 0.28282 0.0
H430 H 0.89403 0.20391 0.31999 0.0
H431 H 0.92551 0.17578 0.36217 0.0
Mn432 Mn 0.47834 0.68762 0.18878 0.0
Mn433 Mn 0.4133 0.68514 0.14256 0.0
C434 C 0.43712 0.66137 0.2106 0.0
C435 C 0.52637 0.6676 0.20012 0.0
C436 C 0.43267 0.73959 0.18547 0.0
O437 O 0.49096 0.70392 0.14145 0.0
O438 O 0.44798 0.69487 0.11169 0.0
C439 C 0.42759 0.63075 0.10077 0.0
N440 N 0.40878 0.64561 0.123 0.0
C441 C 0.37345 0.60403 0.12314 0.0
C442 C 0.3923 0.58836 0.09999 0.0
C443 C 0.41955 0.60174 0.08888 0.0
C444 C 0.38276 0.63278 0.13426 0.0
H445 H 0.44857 0.64094 0.09224 0.0
C446 C 0.4757 0.70336 0.11344 0.0
O447 O 0.51957 0.69534 0.20844 0.0
O448 O 0.5058 0.65207 0.18401 0.0
N449 N 0.37729 0.67602 0.16822 0.0
C450 C 0.36143 0.69432 0.19017 0.0
C451 C 0.33355 0.68433 0.20361 0.0
C452 C 0.32196 0.65593 0.19382 0.0
C453 C 0.33821 0.63791 0.17037 0.0
C454 C 0.36582 0.6491 0.15776 0.0
H455 H 0.37002 0.71633 0.1975 0.0
O456 O 0.45952 0.66892 0.23047 0.0
O457 O 0.44013 0.66801 0.17796 0.0
O458 O 0.45634 0.72766 0.19892 0.0
O459 O 0.41606 0.72628 0.16295 0.0
C460 C 0.32815 0.60923 0.15909 0.0
C461 C 0.34586 0.59221 0.13569 0.0
H462 H 0.38614 0.56602 0.0907 0.0
H463 H 0.4343 0.58973 0.07117 0.0
H464 H 0.32103 0.6985 0.22148 0.0
H465 H 0.30056 0.64821 0.20442 0.0
H466 H 0.30689 0.59999 0.16839 0.0
H467 H 0.33802 0.57007 0.12746 0.0
Mn468 Mn 0.81571 0.46364 0.68488 0.0
Mn469 Mn 0.81653 0.3964 0.64281 0.0
C470 C 0.83915 0.42207 0.70986 0.0
C471 C 0.83881 0.51035 0.69581 0.0
C472 C 0.76182 0.41979 0.68281 0.0
O473 O 0.80269 0.47555 0.63617 0.0
O474 O 0.80701 0.43 0.61025 0.0
C475 C 0.87089 0.40846 0.6 0.0
N476 N 0.85585 0.39059 0.62304 0.0
C477 C 0.8968 0.35447 0.62399 0.0
C478 C 0.91258 0.37231 0.59995 0.0
C479 C 0.89963 0.3995 0.58805 0.0
C480 C 0.86833 0.36467 0.63511 0.0
H481 H 0.86107 0.42942 0.59091 0.0
C482 C 0.80139 0.45849 0.6096 0.0
O483 O 0.81016 0.50617 0.70229 0.0
O484 O 0.85322 0.48808 0.68139 0.0
N485 N 0.8255 0.36127 0.6701 0.0
C486 C 0.80753 0.34684 0.6936 0.0
C487 C 0.81724 0.31931 0.70815 0.0
C488 C 0.84511 0.30664 0.69805 0.0
C489 C 0.86295 0.32156 0.67332 0.0
C490 C 0.85202 0.34887 0.6596 0.0
H491 H 0.78615 0.35646 0.70155 0.0
O492 O 0.83124 0.44517 0.72846 0.0
O493 O 0.834 0.42421 0.67682 0.0
O494 O 0.77365 0.44469 0.69316 0.0
O495 O 0.77574 0.4006 0.66362 0.0
C496 C 0.89124 0.31052 0.66193 0.0
C497 C 0.90827 0.32708 0.63749 0.0
H498 H 0.93473 0.36544 0.59063 0.0
H499 H 0.91176 0.41349 0.56968 0.0
H500 H 0.80332 0.30793 0.7272 0.0
H501 H 0.85265 0.28554 0.70954 0.0
H502 H 0.90024 0.28943 0.67201 0.0
H503 H 0.93017 0.31855 0.62926 0.0
Mn504 Mn 0.02571 0.81218 0.19 0.0
Mn505 Mn 0.09136 0.81355 0.14499 0.0
C506 C 0.06686 0.83816 0.21228 0.0
C507 C 0.97779 0.83259 0.20037 0.0
C508 C 0.07014 0.75942 0.18726 0.0
O509 O 0.01373 0.79595 0.14244 0.0
O510 O 0.05699 0.80521 0.11316 0.0
C511 C 0.07987 0.8687 0.10339 0.0
N512 N 0.09762 0.85305 0.12602 0.0
C513 C 0.13442 0.89333 0.12745 0.0
C514 C 0.11666 0.90979 0.10393 0.0
C515 C 0.0892 0.89746 0.09197 0.0
C516 C 0.12385 0.86488 0.13807 0.0
H517 H 0.05874 0.85929 0.09419 0.0
C518 C 0.02921 0.79683 0.11455 0.0
O519 O 0.98422 0.80481 0.20888 0.0
O520 O 0.9987 0.84796 0.18458 0.0
N521 N 0.12696 0.82133 0.1719 0.0
C522 C 0.14146 0.80255 0.19451 0.0
C523 C 0.16926 0.81156 0.20898 0.0
C524 C 0.18215 0.8395 0.19959 0.0
C525 C 0.16724 0.85807 0.17558 0.0
C526 C 0.13962 0.84788 0.16197 0.0
H527 H 0.13188 0.78089 0.20156 0.0
O528 O 0.04419 0.8309 0.23192 0.0
O529 O 0.06421 0.83128 0.17969 0.0
O530 O 0.0469 0.77201 0.20082 0.0
O531 O 0.08703 0.77227 0.16466 0.0
C532 C 0.17864 0.88636 0.16469 0.0
C533 C 0.16212 0.90409 0.14087 0.0
H534 H 0.12382 0.93195 0.095 0.0
H535 H 0.07529 0.91009 0.07395 0.0
H536 H 0.18072 0.79699 0.22732 0.0
H537 H 0.2035 0.84646 0.21097 0.0
H538 H 0.19999 0.89478 0.17468 0.0
H539 H 0.17095 0.92596 0.13302 0.0
Mn540 Mn 0.68689 0.03516 0.68551 0.0
Mn541 Mn 0.69318 0.10559 0.6514 0.0
C542 C 0.66388 0.07592 0.71279 0.0
C543 C 0.66122 0.98906 0.69084 0.0
C544 C 0.74352 0.07498 0.69173 0.0
O545 O 0.70197 0.02645 0.63633 0.0
O546 O 0.70248 0.07439 0.61619 0.0
C547 C 0.64131 0.10247 0.60302 0.0
N548 N 0.65603 0.11664 0.62939 0.0
C549 C 0.61902 0.15677 0.63066 0.0
C550 C 0.60352 0.1427 0.60337 0.0
C551 C 0.61466 0.11536 0.58959 0.0
C552 C 0.64539 0.1428 0.64302 0.0
H553 H 0.64991 0.08151 0.59233 0.0
C554 C 0.70659 0.04584 0.61232 0.0
O555 O 0.6897 0.99146 0.69904 0.0
O556 O 0.64848 0.01279 0.67735 0.0
N557 N 0.68521 0.1386 0.6822 0.0
C558 C 0.70216 0.14856 0.70938 0.0
C559 C 0.69389 0.17547 0.7264 0.0
C560 C 0.6686 0.1921 0.71499 0.0
C561 C 0.65173 0.18159 0.68671 0.0
C562 C 0.66114 0.1547 0.67067 0.0
H563 H 0.72182 0.13605 0.718 0.0
O564 O 0.66964 0.05115 0.72956 0.0
O565 O 0.67131 0.07615 0.68022 0.0
O566 O 0.72927 0.05063 0.69923 0.0
O567 O 0.73224 0.09652 0.67381 0.0
C568 C 0.62557 0.19639 0.67425 0.0
C569 C 0.60915 0.18391 0.64635 0.0
H570 H 0.58295 0.15256 0.59295 0.0
H571 H 0.60276 0.10431 0.56861 0.0
H572 H 0.70701 0.18342 0.74823 0.0
H573 H 0.66222 0.21277 0.72827 0.0
H574 H 0.61763 0.21711 0.68629 0.0
H575 H 0.58884 0.19526 0.63731 0.0
H576 H 0.47411 0.10182 0.18673 0.0
H577 H 0.4314 0.1808 0.23176 0.0
H578 H 0.43623 0.06946 0.21369 0.0
H579 H 0.39289 0.14791 0.25852 0.0
H580 H 0.31754 0.0651 0.26588 0.0
H581 H 0.34961 0.10431 0.23917 0.0
H582 H 0.42918 0.06147 0.28197 0.0
H583 H 0.39763 0.0229 0.30889 0.0
C584 C 0.45632 0.11239 0.20186 0.0
C585 C 0.45598 0.14391 0.20736 0.0
C586 C 0.4347 0.09378 0.21741 0.0
C587 C 0.41197 0.1062 0.23852 0.0
C588 C 0.41028 0.13785 0.24237 0.0
C589 C 0.43227 0.15659 0.22706 0.0
C590 C 0.34181 0.06447 0.27016 0.0
C591 C 0.35505 0.04072 0.28927 0.0
C592 C 0.36009 0.08687 0.25487 0.0
C593 C 0.39181 0.08554 0.25816 0.0
C594 C 0.40479 0.06273 0.27869 0.0
C595 C 0.38664 0.04071 0.29421 0.0
H596 H 0.38018 0.45481 0.67576 0.0
H597 H 0.31845 0.45083 0.7623 0.0
H598 H 0.40904 0.41236 0.69985 0.0
H599 H 0.34807 0.40893 0.78702 0.0
H600 H 0.44975 0.38474 0.83138 0.0
H601 H 0.40786 0.41458 0.80756 0.0
H602 H 0.40175 0.35302 0.72117 0.0
H603 H 0.44309 0.32246 0.74561 0.0
C604 C 0.37243 0.44439 0.69954 0.0
C605 C 0.34712 0.45605 0.71718 0.0
C606 C 0.38886 0.42008 0.71324 0.0
C607 C 0.38072 0.40747 0.74526 0.0
C608 C 0.35467 0.41825 0.76222 0.0
C609 C 0.33771 0.44208 0.74802 0.0
C610 C 0.43886 0.37709 0.80785 0.0
C611 C 0.44963 0.35133 0.79032 0.0
C612 C 0.41486 0.39408 0.7943 0.0
C613 C 0.40169 0.38605 0.76256 0.0
C614 C 0.41153 0.35956 0.74575 0.0
C615 C 0.43504 0.34207 0.7598 0.0
H616 H 0.07259 0.32019 0.24331 0.0
H617 H 0.0287 0.39982 0.2014 0.0
H618 H 0.11137 0.35278 0.27007 0.0
H619 H 0.0668 0.43185 0.2284 0.0
H620 H 0.10788 0.47744 0.32226 0.0
H621 H 0.0758 0.43837 0.29714 0.0
H622 H 0.15394 0.39733 0.24891 0.0
H623 H 0.18652 0.437 0.2738 0.0
C624 C 0.07146 0.34449 0.23936 0.0
C625 C 0.04744 0.35742 0.22043 0.0
C626 C 0.0936 0.36305 0.25467 0.0
C627 C 0.09171 0.39475 0.25161 0.0
C628 C 0.06851 0.40747 0.23146 0.0
C629 C 0.04676 0.38905 0.2159 0.0
C630 C 0.11847 0.45987 0.30683 0.0
C631 C 0.14974 0.46057 0.2997 0.0
C632 C 0.10003 0.43755 0.29238 0.0
C633 C 0.1124 0.41517 0.27077 0.0
C634 C 0.14393 0.41442 0.2655 0.0
C635 C 0.1625 0.43709 0.27973 0.0
H636 H 0.10293 0.03166 0.68373 0.0
H637 H 0.18397 0.06163 0.73654 0.0
H638 H 0.07344 0.07003 0.71412 0.0
H639 H 0.15402 0.10071 0.7666 0.0
H640 H 0.06955 0.18087 0.7744 0.0
H641 H 0.1081 0.15017 0.74446 0.0
H642 H 0.07077 0.06918 0.79013 0.0
H643 H 0.03285 0.0994 0.8204 0.0
C644 C 0.11466 0.04691 0.70114 0.0
C645 C 0.14581 0.04335 0.70792 0.0
C646 C 0.09769 0.06883 0.71857 0.0
C647 C 0.11148 0.088 0.74282 0.0
C648 C 0.14297 0.08612 0.74793 0.0
C649 C 0.16004 0.06384 0.73067 0.0
C650 C 0.0701 0.15661 0.77876 0.0
C651 C 0.04798 0.14257 0.79962 0.0
C652 C 0.09212 0.13913 0.76161 0.0
C653 C 0.09208 0.10741 0.76487 0.0
C654 C 0.0711 0.09363 0.78715 0.0
C655 C 0.04944 0.111 0.80453 0.0
H656 H 0.52285 0.90546 0.80608 0.0
H657 H 0.56704 0.82478 0.76728 0.0
H658 H 0.55978 0.93684 0.77605 0.0
H659 H 0.60455 0.85665 0.73738 0.0
H660 H 0.67973 0.93746 0.72487 0.0
H661 H 0.64696 0.89935 0.75222 0.0
H662 H 0.56815 0.94364 0.70946 0.0
H663 H 0.6005 0.9813 0.68194 0.0
C664 C 0.54073 0.89435 0.79159 0.0
C665 C 0.54186 0.86258 0.78891 0.0
C666 C 0.56176 0.91239 0.77419 0.0
C667 C 0.58467 0.89916 0.75397 0.0
C668 C 0.58699 0.86738 0.75272 0.0
C669 C 0.56558 0.8492 0.76986 0.0
C670 C 0.65546 0.9386 0.72063 0.0
C671 C 0.64271 0.96259 0.70149 0.0
C672 C 0.63676 0.91682 0.73632 0.0
C673 C 0.60505 0.91895 0.73341 0.0
C674 C 0.59252 0.9418 0.71255 0.0
C675 C 0.61111 0.96326 0.69663 0.0
H676 H 0.55549 0.61968 0.17062 0.0
H677 H 0.56023 0.68146 0.25703 0.0
H678 H 0.59675 0.58964 0.1955 0.0
H679 H 0.60094 0.65074 0.28246 0.0
H680 H 0.68487 0.55269 0.24244 0.0
H681 H 0.65559 0.59451 0.21707 0.0
H682 H 0.59417 0.59213 0.30389 0.0
H683 H 0.62274 0.54981 0.32866 0.0
C684 C 0.5658 0.62717 0.19456 0.0
C685 C 0.55467 0.65286 0.21191 0.0
C686 C 0.58946 0.61005 0.20871 0.0
C687 C 0.60194 0.61791 0.24088 0.0
C688 C 0.5917 0.6443 0.25758 0.0
C689 C 0.56854 0.66189 0.24297 0.0
C690 C 0.66559 0.56166 0.25651 0.0
C691 C 0.65599 0.54802 0.28747 0.0
C692 C 0.64881 0.58544 0.24192 0.0
C693 C 0.62269 0.59647 0.25857 0.0
C694 C 0.61438 0.58421 0.2907 0.0
C695 C 0.63066 0.55997 0.30481 0.0
H696 H 0.9288 0.67733 0.77039 0.0
H697 H 0.97362 0.5982 0.81221 0.0
H698 H 0.89066 0.64437 0.7432 0.0
H699 H 0.93604 0.56573 0.78479 0.0
H700 H 0.89867 0.5222 0.68668 0.0
H701 H 0.92903 0.56076 0.71523 0.0
H702 H 0.84851 0.59826 0.7621 0.0
H703 H 0.81761 0.55897 0.73375 0.0
C704 C 0.93019 0.65305 0.77435 0.0
C705 C 0.95441 0.64036 0.79319 0.0
C706 C 0.90839 0.63427 0.75881 0.0
C707 C 0.91077 0.6026 0.7616 0.0
C708 C 0.93395 0.59011 0.78198 0.0
C709 C 0.95541 0.60875 0.79776 0.0
C710 C 0.88719 0.53885 0.70261 0.0
C711 C 0.85571 0.53729 0.70821 0.0
C712 C 0.90467 0.56086 0.71905 0.0
C713 C 0.89111 0.5821 0.7412 0.0
C714 C 0.85942 0.582 0.74517 0.0
C715 C 0.84181 0.55959 0.72892 0.0
H716 H 0.81772 0.94573 0.24073 0.0
H717 H 0.88019 0.95167 0.3264 0.0
H718 H 0.84798 0.90436 0.21595 0.0
H719 H 0.90975 0.90971 0.30218 0.0
H720 H 0.94322 0.81886 0.2567 0.0
H721 H 0.90234 0.84975 0.28154 0.0
H722 H 0.9079 0.9109 0.19473 0.0
H723 H 0.94939 0.88071 0.17045 0.0
C724 C 0.83735 0.93756 0.25479 0.0
C725 C 0.84671 0.9519 0.28542 0.0
C726 C 0.85466 0.91403 0.24054 0.0
C727 C 0.88107 0.90394 0.25725 0.0
C728 C 0.8893 0.91695 0.28901 0.0
C729 C 0.87247 0.94097 0.30278 0.0
C730 C 0.9352 0.83849 0.24253 0.0
C731 C 0.94948 0.8475 0.21171 0.0
C732 C 0.91194 0.85615 0.25681 0.0
C733 C 0.90207 0.88258 0.23996 0.0
C734 C 0.91498 0.89045 0.20802 0.0
C735 C 0.93873 0.87326 0.19421 0.0
H736 H 0.59442 0.29018 0.14629 0.0
H737 H 0.55271 0.27083 0.24482 0.0
H738 H 0.61163 0.33896 0.168 0.0
H739 H 0.57102 0.31902 0.26721 0.0
H740 H 0.60151 0.41215 0.29954 0.0
H741 H 0.57299 0.37164 0.27085 0.0
H742 H 0.6499 0.35516 0.20369 0.0
H743 H 0.6771 0.39654 0.23117 0.0
C744 C 0.5888 0.29648 0.17259 0.0
C745 C 0.57256 0.27654 0.19399 0.0
C746 C 0.59889 0.32437 0.18521 0.0
C747 C 0.59362 0.33273 0.21981 0.0
C748 C 0.57568 0.31351 0.24051 0.0
C749 C 0.56514 0.28577 0.22768 0.0
C750 C 0.61204 0.3997 0.27857 0.0
C751 C 0.64176 0.40643 0.26823 0.0
C752 C 0.59578 0.37656 0.26207 0.0
C753 C 0.60909 0.35975 0.23499 0.0
C754 C 0.63849 0.36772 0.22392 0.0
C755 C 0.65438 0.39115 0.23996 0.0
H756 H 0.21907 0.5479 0.72301 0.0
H757 H 0.24167 0.63932 0.69207 0.0
H758 H 0.16954 0.56546 0.74284 0.0
H759 H 0.19356 0.65717 0.71391 0.0
H760 H 0.09772 0.6826 0.73108 0.0
H761 H 0.14231 0.65961 0.70463 0.0
H762 H 0.14386 0.59175 0.78551 0.0
H763 H 0.09795 0.61399 0.81028 0.0
C764 C 0.21358 0.57177 0.72067 0.0
C765 C 0.23444 0.59216 0.70594 0.0
C766 C 0.18521 0.58193 0.73227 0.0
C767 C 0.1772 0.61282 0.72995 0.0
C768 C 0.19828 0.6331 0.71536 0.0
C769 C 0.22624 0.62287 0.70314 0.0
C770 C 0.10771 0.66271 0.743 0.0
C771 C 0.09563 0.65093 0.77365 0.0
C772 C 0.1334 0.6496 0.72806 0.0
C773 C 0.14757 0.6243 0.74346 0.0
C774 C 0.13389 0.61123 0.77284 0.0
C775 C 0.10794 0.62427 0.78754 0.0
H776 H 0.82307 0.10566 0.23152 0.0
H777 H 0.89533 0.08775 0.30361 0.0
H778 H 0.85167 0.14773 0.20731 0.0
H779 H 0.9253 0.12888 0.27823 0.0
H780 H 0.94942 0.22934 0.25403 0.0
H781 H 0.92918 0.18138 0.27509 0.0
H782 H 0.89182 0.16311 0.17386 0.0
H783 H 0.91119 0.21142 0.15339 0.0
C784 C 0.84535 0.11071 0.24186 0.0
C785 C 0.85667 0.09442 0.27006 0.0
C786 C 0.86205 0.13455 0.22773 0.0
C787 C 0.89104 0.14191 0.24064 0.0
C788 C 0.9029 0.12441 0.26797 0.0
C789 C 0.88582 0.10087 0.28255 0.0
C790 C 0.93731 0.21477 0.23619 0.0
C791 C 0.93144 0.22435 0.20225 0.0
C792 C 0.92556 0.18723 0.24828 0.0
C793 C 0.90779 0.16867 0.22661 0.0
C794 C 0.90423 0.17727 0.19182 0.0
C795 C 0.91562 0.20487 0.17991 0.0
H796 H 0.27785 0.95392 0.71996 0.0
H797 H 0.25192 0.86046 0.70364 0.0
H798 H 0.3269 0.93695 0.74253 0.0
H799 H 0.29961 0.8437 0.72743 0.0
H800 H 0.39632 0.81874 0.73837 0.0
H801 H 0.35084 0.84069 0.71283 0.0
H802 H 0.35258 0.91251 0.78904 0.0
H803 H 0.39924 0.89095 0.8133 0.0
C804 C 0.28244 0.92982 0.72147 0.0
C805 C 0.26095 0.90862 0.7097 0.0
C806 C 0.31052 0.92007 0.73453 0.0
C807 C 0.31752 0.88892 0.73636 0.0
C808 C 0.29557 0.86787 0.72548 0.0
C809 C 0.2679 0.87755 0.71208 0.0
C810 C 0.38686 0.83921 0.74956 0.0
C811 C 0.40011 0.85236 0.77881 0.0
C812 C 0.36073 0.85176 0.73512 0.0
C813 C 0.34735 0.8779 0.74951 0.0
C814 C 0.36204 0.89228 0.77737 0.0
C815 C 0.38839 0.8797 0.79171 0.0
H816 H 0.54021 0.22155 0.77873 0.0
H817 H 0.6298 0.24125 0.81818 0.0
H818 H 0.55821 0.17215 0.75858 0.0
H819 H 0.64805 0.19348 0.7965 0.0
H820 H 0.67531 0.10004 0.77558 0.0
H821 H 0.64909 0.14196 0.80368 0.0
H822 H 0.58747 0.14794 0.71684 0.0
H823 H 0.6128 0.10449 0.69023 0.0
C824 C 0.56371 0.21543 0.78301 0.0
C825 C 0.58348 0.23544 0.80013 0.0
C826 C 0.57412 0.18715 0.77129 0.0
C827 C 0.60463 0.17846 0.77606 0.0
C828 C 0.62421 0.19866 0.79318 0.0
C829 C 0.61376 0.22648 0.80532 0.0
C830 C 0.65603 0.11033 0.76274 0.0
C831 C 0.64706 0.10047 0.72993 0.0
C832 C 0.64107 0.13449 0.77865 0.0
C833 C 0.61681 0.14936 0.76199 0.0
C834 C 0.60616 0.13744 0.73046 0.0
C835 C 0.62102 0.11296 0.71478 0.0
H836 H 0.40131 0.68328 0.26092 0.0
H837 H 0.41514 0.60487 0.19635 0.0
H838 H 0.35782 0.65901 0.28789 0.0
H839 H 0.37239 0.57932 0.22457 0.0
H840 H 0.29317 0.60506 0.34937 0.0
H841 H 0.34128 0.62212 0.32559 0.0
H842 H 0.31932 0.57919 0.22824 0.0
H843 H 0.27185 0.56085 0.25287 0.0
C844 C 0.39496 0.66064 0.25274 0.0
C845 C 0.41059 0.6463 0.2258 0.0
C846 C 0.3703 0.64645 0.2685 0.0
C847 C 0.36138 0.61702 0.25857 0.0
C848 C 0.37811 0.60216 0.23249 0.0
C849 C 0.40254 0.61671 0.21626 0.0
C850 C 0.29888 0.59891 0.32305 0.0
C851 C 0.27869 0.58177 0.30293 0.0
C852 C 0.32637 0.60894 0.30922 0.0
C853 C 0.33407 0.60274 0.2746 0.0
C854 C 0.31438 0.58439 0.25498 0.0
C855 C 0.28708 0.57385 0.26908 0.0
H856 H 0.89545 0.40024 0.69485 0.0
H857 H 0.81922 0.3884 0.76323 0.0
H858 H 0.92208 0.35854 0.72363 0.0
H859 H 0.84441 0.34571 0.79068 0.0
H860 H 0.8992 0.28117 0.8508 0.0
H861 H 0.88168 0.32901 0.82688 0.0
H862 H 0.9232 0.30612 0.7289 0.0
H863 H 0.94217 0.25895 0.75385 0.0
C864 C 0.88433 0.3883 0.7158 0.0
C865 C 0.85501 0.39657 0.72623 0.0
C866 C 0.89949 0.36444 0.73232 0.0
C867 C 0.88547 0.34838 0.75949 0.0
C868 C 0.85638 0.35766 0.77042 0.0
C869 C 0.84164 0.38187 0.75441 0.0
C870 C 0.90485 0.28663 0.82425 0.0
C871 C 0.92178 0.26632 0.80404 0.0
C872 C 0.89456 0.31395 0.81035 0.0
C873 C 0.90019 0.3213 0.77552 0.0
C874 C 0.91836 0.30145 0.75577 0.0
C875 C 0.92924 0.27433 0.77 0.0
H876 H 0.08794 0.89457 0.19643 0.0
H877 H 0.10259 0.81817 0.26378 0.0
H878 H 0.13004 0.92155 0.22398 0.0
H879 H 0.14564 0.84376 0.29 0.0
H880 H 0.21085 0.89898 0.34858 0.0
H881 H 0.16253 0.88122 0.32615 0.0
H882 H 0.18251 0.92335 0.22775 0.0
H883 H 0.23017 0.94228 0.25097 0.0
C884 C 0.1006 0.88348 0.21683 0.0
C885 C 0.09295 0.85404 0.22736 0.0
C886 C 0.12469 0.89884 0.23267 0.0
C887 C 0.14157 0.88494 0.25928 0.0
C888 C 0.13303 0.85566 0.2702 0.0
C889 C 0.10863 0.84068 0.25486 0.0
C890 C 0.20464 0.9048 0.32231 0.0
C891 C 0.22439 0.92181 0.30146 0.0
C892 C 0.17704 0.89435 0.30924 0.0
C893 C 0.16877 0.89998 0.27467 0.0
C894 C 0.1879 0.91841 0.25442 0.0
C895 C 0.21532 0.92934 0.26774 0.0
H896 H 0.39949 0.5926 0.70557 0.0
H897 H 0.32387 0.60782 0.77398 0.0
H898 H 0.42767 0.63349 0.7339 0.0
H899 H 0.35065 0.64968 0.80103 0.0
H900 H 0.4055 0.71588 0.85762 0.0
H901 H 0.38845 0.66692 0.83641 0.0
H902 H 0.42978 0.68584 0.73733 0.0
H903 H 0.44785 0.73427 0.7592 0.0
C904 C 0.38888 0.60506 0.72648 0.0
C905 C 0.35924 0.59806 0.73693 0.0
C906 C 0.40493 0.62846 0.74277 0.0
C907 C 0.3915 0.64533 0.76971 0.0
C908 C 0.36218 0.63712 0.7809 0.0
C909 C 0.34652 0.61339 0.7651 0.0
C910 C 0.41128 0.70935 0.83144 0.0
C911 C 0.42766 0.7291 0.80993 0.0
C912 C 0.40126 0.68133 0.8191 0.0
C913 C 0.40676 0.67261 0.78465 0.0
C914 C 0.42485 0.69164 0.76388 0.0
C915 C 0.43528 0.71952 0.77642 0.0
H916 H 0.90109 0.31619 0.27561 0.0
H917 H 0.90522 0.38633 0.1983 0.0
H918 H 0.85608 0.33964 0.30054 0.0
H919 H 0.85891 0.40909 0.22149 0.0
H920 H 0.78316 0.45377 0.28307 0.0
H921 H 0.83254 0.43521 0.26384 0.0
H922 H 0.80526 0.3436 0.2892 0.0
H923 H 0.75734 0.36236 0.31054 0.0
C924 C 0.89196 0.33651 0.26374 0.0
C925 C 0.90543 0.34864 0.23403 0.0
C926 C 0.86603 0.34989 0.27779 0.0
C927 C 0.85299 0.37581 0.26245 0.0
C928 C 0.86799 0.38913 0.23406 0.0
C929 C 0.89418 0.37581 0.22026 0.0
C930 C 0.78789 0.4297 0.28471 0.0
C931 C 0.76622 0.40962 0.2984 0.0
C932 C 0.81618 0.41897 0.27346 0.0
C933 C 0.82326 0.38782 0.27509 0.0
C934 C 0.80128 0.36783 0.28839 0.0
C935 C 0.77342 0.3786 0.3003 0.0
H936 H 0.04981 0.76815 0.75292 0.0
H937 H 0.08645 0.79062 0.85311 0.0
H938 H 0.06725 0.8166 0.73043 0.0
H939 H 0.1026 0.83976 0.83134 0.0
H940 H 0.1698 0.89728 0.77 0.0
H941 H 0.14188 0.85659 0.79785 0.0
H942 H 0.06835 0.86886 0.72492 0.0
H943 H 0.09775 0.90852 0.6959 0.0
C944 C 0.06083 0.78388 0.77038 0.0
C945 C 0.06723 0.77545 0.80458 0.0
C946 C 0.07084 0.8118 0.75753 0.0
C947 C 0.0872 0.832 0.77873 0.0
C948 C 0.09118 0.82444 0.81379 0.0
C949 C 0.08167 0.79635 0.82642 0.0
C950 C 0.14764 0.89115 0.76008 0.0
C951 C 0.13634 0.9049 0.73014 0.0
C952 C 0.1313 0.86811 0.7763 0.0
C953 C 0.10271 0.85906 0.76366 0.0
C954 C 0.09054 0.87457 0.73496 0.0
C955 C 0.10729 0.89724 0.71828 0.0
H956 H 0.60608 0.18705 0.2619 0.0
H957 H 0.5931 0.1114 0.19307 0.0
H958 H 0.65001 0.16212 0.28727 0.0
H959 H 0.63572 0.08493 0.2199 0.0
H960 H 0.73436 0.06229 0.24643 0.0
H961 H 0.68747 0.083 0.22344 0.0
H962 H 0.66899 0.12525 0.32224 0.0
H963 H 0.71677 0.10578 0.34437 0.0
C964 C 0.61266 0.16484 0.25251 0.0
C965 C 0.59719 0.15152 0.22483 0.0
C966 C 0.63758 0.15022 0.26734 0.0
C967 C 0.6468 0.12131 0.25575 0.0
C968 C 0.63003 0.10742 0.22904 0.0
C969 C 0.60555 0.12247 0.21365 0.0
C970 C 0.72008 0.07578 0.26328 0.0
C971 C 0.72937 0.08261 0.29711 0.0
C972 C 0.69304 0.0877 0.25013 0.0
C973 C 0.67436 0.10642 0.27064 0.0
C974 C 0.68307 0.11187 0.30512 0.0
C975 C 0.71038 0.10043 0.31803 0.0
H976 H 0.39935 0.78173 0.15056 0.0
H977 H 0.44273 0.76516 0.24874 0.0
H978 H 0.37864 0.82901 0.17257 0.0
H979 H 0.42085 0.81158 0.2716 0.0
H980 H 0.38968 0.90496 0.30211 0.0
H981 H 0.41745 0.86318 0.2753 0.0
H982 H 0.34111 0.84712 0.2072 0.0
H983 H 0.31485 0.8903 0.23257 0.0
C984 C 0.40441 0.78823 0.17694 0.0
C985 C 0.42254 0.76966 0.19796 0.0
C986 C 0.39226 0.81526 0.18977 0.0
C987 C 0.3973 0.8241 0.22429 0.0
C988 C 0.41639 0.80589 0.2449 0.0
C989 C 0.429 0.77911 0.23182 0.0
C990 C 0.37909 0.89234 0.28133 0.0
C991 C 0.3499 0.89999 0.26995 0.0
C992 C 0.39488 0.86832 0.26597 0.0
C993 C 0.38161 0.85126 0.23909 0.0
C994 C 0.35255 0.8598 0.22727 0.0
C995 C 0.33719 0.88429 0.24208 0.0
H996 H 0.73565 0.36387 0.68213 0.0
H997 H 0.71784 0.4569 0.7109 0.0
H998 H 0.68734 0.34882 0.70518 0.0
H999 H 0.66757 0.44219 0.73161 0.0
H1000 H 0.59503 0.39696 0.80221 0.0
H1001 H 0.63997 0.41862 0.77444 0.0
H1002 H 0.63664 0.3475 0.69733 0.0
H1003 H 0.59369 0.32498 0.727 0.0
C1004 C 0.72118 0.38132 0.6929 0.0
C1005 C 0.73088 0.41161 0.69483 0.0
C1006 C 0.69295 0.37271 0.70574 0.0
C1007 C 0.67289 0.39426 0.71991 0.0
C1008 C 0.68235 0.42479 0.72129 0.0
C1009 C 0.71114 0.43331 0.70918 0.0
C1010 C 0.60453 0.38583 0.77971 0.0
C1011 C 0.59249 0.35825 0.76806 0.0
C1012 C 0.62987 0.39854 0.76323 0.0
C1013 C 0.64303 0.38418 0.73428 0.0
C1014 C 0.62848 0.35837 0.72063 0.0
C1015 C 0.60364 0.34551 0.73743 0.0
H1016 H 0.11317 0.59655 0.30797 0.0
H1017 H 0.18689 0.60932 0.23635 0.0
H1018 H 0.08473 0.63722 0.2799 0.0
H1019 H 0.16005 0.65146 0.20971 0.0
H1020 H 0.10204 0.71605 0.15252 0.0
H1021 H 0.12217 0.66877 0.17527 0.0
H1022 H 0.08121 0.68857 0.27447 0.0
H1023 H 0.05988 0.7349 0.25092 0.0
C1024 C 0.12337 0.60854 0.28646 0.0
C1025 C 0.15246 0.60075 0.27486 0.0
C1026 C 0.1072 0.63191 0.27036 0.0
C1027 C 0.12001 0.64815 0.24254 0.0
C1028 C 0.14894 0.63939 0.2305 0.0
C1029 C 0.16466 0.61552 0.24605 0.0
C1030 C 0.0971 0.71002 0.17909 0.0
C1031 C 0.07957 0.72926 0.20001 0.0
C1032 C 0.10892 0.68302 0.19234 0.0
C1033 C 0.10416 0.67492 0.22715 0.0
C1034 C 0.08549 0.69371 0.24759 0.0
C1035 C 0.07319 0.72044 0.2341 0.0
H1036 H 0.90889 0.10262 0.81467 0.0
H1037 H 0.90079 0.17667 0.74263 0.0
H1038 H 0.86661 0.0765 0.78626 0.0
H1039 H 0.85775 0.152 0.71536 0.0
H1040 H 0.79119 0.09895 0.65728 0.0
H1041 H 0.84019 0.11369 0.68066 0.0
H1042 H 0.81377 0.07833 0.78055 0.0
H1043 H 0.76532 0.06202 0.7562 0.0
C1044 C 0.89771 0.11335 0.79294 0.0
C1045 C 0.90713 0.14199 0.78141 0.0
C1046 C 0.87356 0.09848 0.77661 0.0
C1047 C 0.85843 0.11208 0.7485 0.0
C1048 C 0.86895 0.14035 0.73641 0.0
C1049 C 0.89337 0.15482 0.75229 0.0
C1050 C 0.79617 0.09389 0.68409 0.0
C1051 C 0.7745 0.0796 0.70505 0.0
C1052 C 0.82415 0.1026 0.69767 0.0
C1053 C 0.83082 0.09807 0.73286 0.0
C1054 C 0.80963 0.08222 0.75336 0.0
C1055 C 0.7818 0.07287 0.73949 0.0
H1056 H 0.49522 0.25166 0.10022 0.0
H1057 H 0.53972 0.17861 0.04591 0.0
H1058 H 0.48587 0.27746 0.04501 0.0
H1059 H 0.5295 0.20381 0.99084 0.0
H1060 H 0.54386 0.32348 0.95062 0.0
H1061 H 0.53236 0.298 0.00517 0.0
H1062 H 0.48524 0.22742 0.94968 0.0
H1063 H 0.4959 0.25353 0.89493 0.0
C1064 C 0.50177 0.24051 0.07639 0.0
C1065 C 0.51813 0.21316 0.07722 0.0
C1066 C 0.4966 0.25533 0.0449 0.0
C1067 C 0.50699 0.24259 0.01376 0.0
C1068 C 0.52098 0.21397 0.01443 0.0
C1069 C 0.52685 0.19957 0.04591 0.0
C1070 C 0.53022 0.30304 0.95017 0.0
C1071 C 0.52075 0.29047 0.91861 0.0
C1072 C 0.52353 0.28854 0.98136 0.0
C1073 C 0.5079 0.26079 0.98156 0.0
C1074 C 0.49719 0.24888 0.95016 0.0
C1075 C 0.50319 0.26386 0.91893 0.0
H1076 H 0.18362 0.55406 0.45497 0.0
H1077 H 0.25448 0.50299 0.40446 0.0
H1078 H 0.20654 0.5433 0.51113 0.0
H1079 H 0.27807 0.49303 0.46086 0.0
H1080 H 0.24957 0.50675 0.60965 0.0
H1081 H 0.22479 0.49748 0.55373 0.0
H1082 H 0.30095 0.53825 0.50126 0.0
H1083 H 0.32509 0.54843 0.55689 0.0
C1084 C 0.20365 0.53984 0.45601 0.0
C1085 C 0.21728 0.52932 0.42544 0.0
C1086 C 0.2167 0.5336 0.48813 0.0
C1087 C 0.24404 0.51735 0.49025 0.0
C1088 C 0.25689 0.50548 0.45984 0.0
C1089 C 0.24335 0.51107 0.42768 0.0
C1090 C 0.26134 0.51286 0.58608 0.0
C1091 C 0.2892 0.5283 0.58749 0.0
C1092 C 0.24715 0.50768 0.55419 0.0
C1093 C 0.26105 0.51707 0.52328 0.0
C1094 C 0.28993 0.53046 0.52467 0.0
C1095 C 0.30368 0.53638 0.55648 0.0
H1096 H 0.97467 0.33196 0.061 0.0
H1097 H 0.00552 0.24779 0.10557 0.0
H1098 H 0.98283 0.31152 0.00319 0.0
H1099 H 0.01264 0.22667 0.04743 0.0
H1100 H 0.93489 0.24598 0.92876 0.0
H1101 H 0.94761 0.27244 0.98134 0.0
H1102 H 0.03441 0.22693 0.98452 0.0
H1103 H 0.02138 0.19987 0.93052 0.0
C1104 C 0.98425 0.30944 0.05834 0.0
C1105 C 0.98933 0.29137 0.08758 0.0
C1106 C 0.98878 0.29764 0.02528 0.0
C1107 C 0.99768 0.26723 0.02077 0.0
C1108 C 0.00585 0.25018 0.05006 0.0
C1109 C 0.00179 0.26225 0.08333 0.0
C1110 C 0.95683 0.24159 0.9404 0.0
C1111 C 0.97701 0.22058 0.92567 0.0
C1112 C 0.9643 0.25713 0.97042 0.0
C1113 C 0.99219 0.25211 0.98696 0.0
C1114 C 0.0128 0.23134 0.97219 0.0
C1115 C 0.00541 0.21594 0.94138 0.0
H1116 H 0.32937 0.95554 0.44655 0.0
H1117 H 0.24974 0.99786 0.40326 0.0
H1118 H 0.30883 0.96218 0.50449 0.0
H1119 H 0.22856 0.00385 0.46167 0.0
H1120 H 0.20608 0.01209 0.58169 0.0
H1121 H 0.23297 0.02327 0.52708 0.0
H1122 H 0.26418 0.93049 0.52297 0.0
H1123 H 0.23788 0.91944 0.57618 0.0
C1124 C 0.30789 0.96719 0.44957 0.0
C1125 C 0.29103 0.97597 0.4205 0.0
C1126 C 0.29605 0.9709 0.48273 0.0
C1127 C 0.26681 0.98294 0.48754 0.0
C1128 C 0.25118 0.99457 0.45873 0.0
C1129 C 0.26329 0.99117 0.42534 0.0
C1130 C 0.2189 0.99428 0.56907 0.0
C1131 C 0.21967 0.96485 0.5832 0.0
C1132 C 0.23417 0.00064 0.53789 0.0
C1133 C 0.251 0.97785 0.52102 0.0
C1134 C 0.25192 0.94872 0.53558 0.0
C1135 C 0.23649 0.94231 0.56603 0.0
H1136 H 0.5111 0.75789 0.90023 0.0
H1137 H 0.46208 0.82683 0.95644 0.0
H1138 H 0.52356 0.73255 0.95491 0.0
H1139 H 0.47519 0.8021 0.0109 0.0
H1140 H 0.47067 0.68068 0.04849 0.0
H1141 H 0.48146 0.70721 0.99448 0.0
H1142 H 0.51914 0.78216 0.05194 0.0
H1143 H 0.50909 0.75507 0.1062 0.0
C1144 C 0.50413 0.76831 0.92432 0.0
C1145 C 0.4856 0.79426 0.92419 0.0
C1146 C 0.51111 0.75374 0.95553 0.0
C1147 C 0.50029 0.76535 0.98708 0.0
C1148 C 0.4841 0.79281 0.98703 0.0
C1149 C 0.47652 0.80693 0.95587 0.0
C1150 C 0.48229 0.70231 0.04951 0.0
C1151 C 0.48907 0.71583 0.08145 0.0
C1152 C 0.48857 0.71746 0.01861 0.0
C1153 C 0.50107 0.74676 0.01906 0.0
C1154 C 0.50957 0.75955 0.05092 0.0
C1155 C 0.50397 0.744 0.08189 0.0
H1156 H 0.75408 0.49738 0.59924 0.0
H1157 H 0.82317 0.44652 0.54536 0.0
H1158 H 0.72908 0.50832 0.54387 0.0
H1159 H 0.79888 0.45831 0.49023 0.0
H1160 H 0.67925 0.45431 0.44859 0.0
H1161 H 0.70488 0.46371 0.50351 0.0
H1162 H 0.77975 0.50493 0.44914 0.0
H1163 H 0.75349 0.49645 0.39395 0.0
C1164 C 0.76453 0.48956 0.57549 0.0
C1165 C 0.7905 0.47108 0.57649 0.0
C1166 C 0.75019 0.49572 0.54393 0.0
C1167 C 0.76214 0.48421 0.51288 0.0
C1168 C 0.7894 0.46774 0.51374 0.0
C1169 C 0.80323 0.4609 0.54528 0.0
C1170 C 0.70069 0.46631 0.44845 0.0
C1171 C 0.71439 0.47472 0.4171 0.0
C1172 C 0.7153 0.47178 0.47987 0.0
C1173 C 0.74425 0.48505 0.48048 0.0
C1174 C 0.75735 0.49481 0.44928 0.0
C1175 C 0.74231 0.49008 0.41781 0.0
H1176 H 0.99521 0.7457 0.10607 0.0
H1177 H 0.03488 0.82051 0.05012 0.0
H1178 H 0.9846 0.71985 0.05115 0.0
H1179 H 0.02346 0.79523 0.99547 0.0
H1180 H 0.04059 0.67677 0.95328 0.0
H1181 H 0.02896 0.70054 0.00877 0.0
H1182 H 0.97937 0.7712 0.95615 0.0
H1183 H 0.99026 0.74678 0.90047 0.0
C1184 C 1.00052 0.75712 0.08202 0.0
C1185 C 0.0159 0.78504 0.08223 0.0
C1186 C 0.99458 0.7423 0.0507 0.0
C1187 C 0.00319 0.75559 0.01915 0.0
C1188 C 0.01628 0.78464 0.01938 0.0
C1189 C 0.02291 0.79905 0.05063 0.0
C1190 C 0.02623 0.69672 0.9537 0.0
C1191 C 0.01628 0.70994 0.92268 0.0
C1192 C 0.01949 0.71028 0.98543 0.0
C1193 C 0.00333 0.73772 0.98668 0.0
C1194 C 0.99178 0.74998 0.95582 0.0
C1195 C 0.99787 0.73595 0.92406 0.0
H1196 H 0.70622 0.98901 0.58102 0.0
H1197 H 0.73806 0.0811 0.56793 0.0
H1198 H 0.7303 0.9752 0.52543 0.0
H1199 H 0.7618 0.0673 0.51398 0.0
H1200 H 0.82884 0.0346 0.44281 0.0
H1201 H 0.80737 0.02879 0.50045 0.0
H1202 H 0.72311 0.99789 0.45605 0.0
H1203 H 0.74498 0.00326 0.39784 0.0
C1204 C 0.71828 0.00618 0.56647 0.0
C1205 C 0.72006 0.03618 0.5789 0.0
C1206 C 0.73196 0.9983 0.53478 0.0
C1207 C 0.74819 0.02014 0.51578 0.0
C1208 C 0.7498 0.04991 0.52832 0.0
C1209 C 0.73589 0.05784 0.55922 0.0
C1210 C 0.80619 0.02536 0.44536 0.0
C1211 C 0.78846 0.01963 0.41598 0.0
C1212 C 0.79391 0.02201 0.47833 0.0
C1213 C 0.7635 0.01327 0.48259 0.0
C1214 C 0.74668 0.00445 0.4534 0.0
C1215 C 0.75917 0.00753 0.42017 0.0
loop_
_geom_bond_atom_site_label_1
_geom_bond_atom_site_label_2
_geom_bond_distance
_geom_bond_site_symmetry_2
_ccdc_geom_bond_type
Mn0 O5 2.095 . S
Mn0 O15 2.162 . S
Mn0 O16 2.297 . S
Mn0 O24 2.385 . S
Mn0 O25 2.209 . S
Mn0 O26 2.094 . S
Mn1 O6 2.121 . S
Mn1 N8 2.257 . S
Mn1 N17 2.282 . S
Mn1 O25 2.215 . S
Mn1 O27 2.117 . S
C2 O24 1.234 . S
C2 O25 1.283 . S
C3 O15 1.281 . S
C3 O16 1.236 . S
C4 O26 1.240 . S
C4 O27 1.264 . S
O5 Mn0 2.095 . S
O5 C14 1.250 . S
O6 Mn1 2.121 . S
O6 C14 1.258 . S
C7 N8 1.326 . S
C7 C11 1.460 . S
C7 H13 0.929 . S
N8 Mn1 2.257 . S
N8 C7 1.326 . S
N8 C12 1.362 . S
C9 C10 1.258 . S
C9 C12 1.431 . S
C9 C29 1.449 . S
C10 C9 1.258 . S
C10 C11 1.477 . S
C10 H30 0.931 . S
C11 C7 1.460 . S
C11 C10 1.477 . S
C11 H31 0.930 . S
C12 N8 1.362 . S
C12 C9 1.431 . S
C12 C22 1.476 . S
H13 C7 0.929 . S
C14 O5 1.250 . S
C14 O6 1.258 . S
O15 Mn0 2.162 . S
O15 C3 1.281 . S
O16 Mn0 2.297 . S
O16 C3 1.236 . S
N17 Mn1 2.282 . S
N17 C18 1.328 . S
N17 C22 1.318 . S
C18 N17 1.328 . S
C18 C19 1.457 . S
C18 H23 0.929 . S
C19 C18 1.457 . S
C19 C20 1.291 . S
C19 H32 0.931 . S
C20 C19 1.291 . S
C20 C21 1.373 . S
C20 H33 0.929 . S
C21 C20 1.373 . S
C21 C22 1.396 . S
C21 C28 1.403 . S
C22 C12 1.476 . S
C22 N17 1.318 . S
C22 C21 1.396 . S
H23 C18 0.929 . S
O24 Mn0 2.385 . S
O24 C2 1.234 . S
O25 Mn0 2.209 . S
O25 Mn1 2.215 . S
O25 C2 1.283 . S
O26 Mn0 2.094 . S
O26 C4 1.240 . S
O27 Mn1 2.117 . S
O27 C4 1.264 . S
C28 C21 1.403 . S
C28 C29 1.399 . S
C28 H34 0.929 . S
C29 C9 1.449 . S
C29 C28 1.399 . S
C29 H35 0.930 . S
H30 C10 0.931 . S
H31 C11 0.930 . S
H32 C19 0.931 . S
H33 C20 0.929 . S
H34 C28 0.929 . S
H35 C29 0.930 . S
Mn36 O41 2.095 . S
Mn36 O51 2.162 . S
Mn36 O52 2.297 . S
Mn36 O60 2.385 . S
Mn36 O61 2.209 . S
Mn36 O62 2.094 . S
Mn37 O42 2.121 . S
Mn37 N44 2.257 . S
Mn37 N53 2.282 . S
Mn37 O61 2.215 . S
Mn37 O63 2.117 . S
C38 O60 1.234 . S
C38 O61 1.283 . S
C39 O51 1.281 . S
C39 O52 1.236 . S
C40 O62 1.240 . S
C40 O63 1.264 . S
O41 Mn36 2.095 . S
O41 C50 1.250 . S
O42 Mn37 2.121 . S
O42 C50 1.258 . S
C43 N44 1.326 . S
C43 C47 1.460 . S
C43 H49 0.929 . S
N44 Mn37 2.257 . S
N44 C43 1.326 . S
N44 C48 1.362 . S
C45 C46 1.258 . S
C45 C48 1.431 . S
C45 C65 1.449 . S
C46 C45 1.258 . S
C46 C47 1.477 . S
C46 H66 0.931 . S
C47 C43 1.460 . S
C47 C46 1.477 . S
C47 H67 0.930 . S
C48 N44 1.362 . S
C48 C45 1.431 . S
C48 C58 1.476 . S
H49 C43 0.929 . S
C50 O41 1.250 . S
C50 O42 1.258 . S
O51 Mn36 2.162 . S
O51 C39 1.281 . S
O52 Mn36 2.297 . S
O52 C39 1.236 . S
N53 Mn37 2.282 . S
N53 C54 1.328 . S
N53 C58 1.318 . S
C54 N53 1.328 . S
C54 C55 1.457 . S
C54 H59 0.929 . S
C55 C54 1.457 . S
C55 C56 1.291 . S
C55 H68 0.931 . S
C56 C55 1.291 . S
C56 C57 1.373 . S
C56 H69 0.929 . S
C57 C56 1.373 . S
C57 C58 1.396 . S
C57 C64 1.403 . S
C58 C48 1.476 . S
C58 N53 1.318 . S
C58 C57 1.396 . S
H59 C54 0.929 . S
O60 Mn36 2.385 . S
O60 C38 1.234 . S
O61 Mn36 2.209 . S
O61 Mn37 2.215 . S
O61 C38 1.283 . S
O62 Mn36 2.094 . S
O62 C40 1.240 . S
O63 Mn37 2.117 . S
O63 C40 1.264 . S
C64 C57 1.403 . S
C64 C65 1.399 . S
C64 H70 0.929 . S
C65 C45 1.449 . S
C65 C64 1.399 . S
C65 H71 0.930 . S
H66 C46 0.931 . S
H67 C47 0.930 . S
H68 C55 0.931 . S
H69 C56 0.929 . S
H70 C64 0.929 . S
H71 C65 0.930 . S
Mn72 O77 2.095 . S
Mn72 O87 2.162 1_655 S
Mn72 O88 2.297 1_655 S
Mn72 O96 2.385 . S
Mn72 O97 2.209 . S
Mn72 O98 2.094 . S
Mn73 O78 2.121 . S
Mn73 N80 2.257 . S
Mn73 N89 2.282 . S
Mn73 O97 2.215 . S
Mn73 O99 2.117 . S
C74 O96 1.234 . S
C74 O97 1.283 . S
C75 O87 1.281 . S
C75 O88 1.236 . S
C76 O98 1.240 . S
C76 O99 1.264 . S
O77 Mn72 2.095 . S
O77 C86 1.250 . S
O78 Mn73 2.121 . S
O78 C86 1.258 . S
C79 N80 1.326 . S
C79 C83 1.460 . S
C79 H85 0.929 . S
N80 Mn73 2.257 . S
N80 C79 1.326 . S
N80 C84 1.362 . S
C81 C82 1.258 . S
C81 C84 1.431 . S
C81 C101 1.449 . S
C82 C81 1.258 . S
C82 C83 1.477 . S
C82 H102 0.931 . S
C83 C79 1.460 . S
C83 C82 1.477 . S
C83 H103 0.930 . S
C84 N80 1.362 . S
C84 C81 1.431 . S
C84 C94 1.476 . S
H85 C79 0.929 . S
C86 O77 1.250 . S
C86 O78 1.258 . S
O87 Mn72 2.162 1_455 S
O87 C75 1.281 . S
O88 Mn72 2.297 1_455 S
O88 C75 1.236 . S
N89 Mn73 2.282 . S
N89 C90 1.328 . S
N89 C94 1.318 . S
C90 N89 1.328 . S
C90 C91 1.457 . S
C90 H95 0.929 . S
C91 C90 1.457 . S
C91 C92 1.291 . S
C91 H104 0.931 . S
C92 C91 1.291 . S
C92 C93 1.373 . S
C92 H105 0.929 . S
C93 C92 1.373 . S
C93 C94 1.396 . S
C93 C100 1.403 . S
C94 C84 1.476 . S
C94 N89 1.318 . S
C94 C93 1.396 . S
H95 C90 0.929 . S
O96 Mn72 2.385 . S
O96 C74 1.234 . S
O97 Mn72 2.209 . S
O97 Mn73 2.215 . S
O97 C74 1.283 . S
O98 Mn72 2.094 . S
O98 C76 1.240 . S
O99 Mn73 2.117 . S
O99 C76 1.264 . S
C100 C93 1.403 . S
C100 C101 1.399 . S
C100 H106 0.929 . S
C101 C81 1.449 . S
C101 C100 1.399 . S
C101 H107 0.930 . S
H102 C82 0.931 . S
H103 C83 0.930 . S
H104 C91 0.931 . S
H105 C92 0.929 . S
H106 C100 0.929 . S
H107 C101 0.930 . S
Mn108 O113 2.095 . S
Mn108 O123 2.162 1_565 S
Mn108 O124 2.297 1_565 S
Mn108 O132 2.385 . S
Mn108 O133 2.209 . S
Mn108 O134 2.094 . S
Mn109 O114 2.121 . S
Mn109 N116 2.257 . S
Mn109 N125 2.282 . S
Mn109 O133 2.215 . S
Mn109 O135 2.117 . S
C110 O132 1.234 . S
C110 O133 1.283 . S
C111 O123 1.281 . S
C111 O124 1.236 . S
C112 O134 1.240 . S
C112 O135 1.264 . S
O113 Mn108 2.095 . S
O113 C122 1.250 . S
O114 Mn109 2.121 . S
O114 C122 1.258 . S
C115 N116 1.326 . S
C115 C119 1.460 . S
C115 H121 0.929 . S
N116 Mn109 2.257 . S
N116 C115 1.326 . S
N116 C120 1.362 . S
C117 C118 1.258 . S
C117 C120 1.431 . S
C117 C137 1.449 . S
C118 C117 1.258 . S
C118 C119 1.477 . S
C118 H138 0.931 . S
C119 C115 1.460 . S
C119 C118 1.477 . S
C119 H139 0.930 . S
C120 N116 1.362 . S
C120 C117 1.431 . S
C120 C130 1.476 . S
H121 C115 0.929 . S
C122 O113 1.250 . S
C122 O114 1.258 . S
O123 Mn108 2.162 1_545 S
O123 C111 1.281 . S
O124 Mn108 2.297 1_545 S
O124 C111 1.236 . S
N125 Mn109 2.282 . S
N125 C126 1.328 . S
N125 C130 1.318 . S
C126 N125 1.328 . S
C126 C127 1.457 . S
C126 H131 0.929 . S
C127 C126 1.457 . S
C127 C128 1.291 . S
C127 H140 0.931 . S
C128 C127 1.291 . S
C128 C129 1.373 . S
C128 H141 0.929 . S
C129 C128 1.373 . S
C129 C130 1.396 . S
C129 C136 1.403 . S
C130 C120 1.476 . S
C130 N125 1.318 . S
C130 C129 1.396 . S
H131 C126 0.929 . S
O132 Mn108 2.385 . S
O132 C110 1.234 . S
O133 Mn108 2.209 . S
O133 Mn109 2.215 . S
O133 C110 1.283 . S
O134 Mn108 2.094 . S
O134 C112 1.240 . S
O135 Mn109 2.117 . S
O135 C112 1.264 . S
C136 C129 1.403 . S
C136 C137 1.399 . S
C136 H142 0.929 . S
C137 C117 1.449 . S
C137 C136 1.399 . S
C137 H143 0.930 . S
H138 C118 0.931 . S
H139 C119 0.930 . S
H140 C127 0.931 . S
H141 C128 0.929 . S
H142 C136 0.929 . S
H143 C137 0.930 . S
Mn144 O149 2.095 . S
Mn144 O159 2.162 . S
Mn144 O160 2.297 . S
Mn144 O168 2.385 . S
Mn144 O169 2.209 . S
Mn144 O170 2.094 . S
Mn145 O150 2.121 . S
Mn145 N152 2.257 . S
Mn145 N161 2.282 . S
Mn145 O169 2.215 . S
Mn145 O171 2.117 . S
C146 O168 1.234 . S
C146 O169 1.283 . S
C147 O159 1.281 . S
C147 O160 1.236 . S
C148 O170 1.240 . S
C148 O171 1.264 . S
O149 Mn144 2.095 . S
O149 C158 1.250 . S
O150 Mn145 2.121 . S
O150 C158 1.258 . S
C151 N152 1.326 . S
C151 C155 1.460 . S
C151 H157 0.929 . S
N152 Mn145 2.257 . S
N152 C151 1.326 . S
N152 C156 1.362 . S
C153 C154 1.258 . S
C153 C156 1.431 . S
C153 C173 1.449 . S
C154 C153 1.258 . S
C154 C155 1.477 . S
C154 H174 0.931 . S
C155 C151 1.460 . S
C155 C154 1.477 . S
C155 H175 0.930 . S
C156 N152 1.362 . S
C156 C153 1.431 . S
C156 C166 1.476 . S
H157 C151 0.929 . S
C158 O149 1.250 . S
C158 O150 1.258 . S
O159 Mn144 2.162 . S
O159 C147 1.281 . S
O160 Mn144 2.297 . S
O160 C147 1.236 . S
N161 Mn145 2.282 . S
N161 C162 1.328 . S
N161 C166 1.318 . S
C162 N161 1.328 . S
C162 C163 1.457 . S
C162 H167 0.929 . S
C163 C162 1.457 . S
C163 C164 1.291 . S
C163 H176 0.931 . S
C164 C163 1.291 . S
C164 C165 1.373 . S
C164 H177 0.929 . S
C165 C164 1.373 . S
C165 C166 1.396 . S
C165 C172 1.403 . S
C166 C156 1.476 . S
C166 N161 1.318 . S
C166 C165 1.396 . S
H167 C162 0.929 . S
O168 Mn144 2.385 . S
O168 C146 1.234 . S
O169 Mn144 2.209 . S
O169 Mn145 2.215 . S
O169 C146 1.283 . S
O170 Mn144 2.094 . S
O170 C148 1.240 . S
O171 Mn145 2.117 . S
O171 C148 1.264 . S
C172 C165 1.403 . S
C172 C173 1.399 . S
C172 H178 0.929 . S
C173 C153 1.449 . S
C173 C172 1.399 . S
C173 H179 0.930 . S
H174 C154 0.931 . S
H175 C155 0.930 . S
H176 C163 0.931 . S
H177 C164 0.929 . S
H178 C172 0.929 . S
H179 C173 0.930 . S
Mn180 O185 2.095 . S
Mn180 O195 2.162 . S
Mn180 O196 2.297 . S
Mn180 O204 2.385 . S
Mn180 O205 2.209 . S
Mn180 O206 2.094 . S
Mn181 O186 2.121 . S
Mn181 N188 2.257 . S
Mn181 N197 2.282 . S
Mn181 O205 2.215 . S
Mn181 O207 2.117 . S
C182 O204 1.234 . S
C182 O205 1.283 . S
C183 O195 1.281 . S
C183 O196 1.236 . S
C184 O206 1.240 . S
C184 O207 1.264 . S
O185 Mn180 2.095 . S
O185 C194 1.250 . S
O186 Mn181 2.121 . S
O186 C194 1.258 . S
C187 N188 1.326 . S
C187 C191 1.460 . S
C187 H193 0.929 . S
N188 Mn181 2.257 . S
N188 C187 1.326 . S
N188 C192 1.362 . S
C189 C190 1.258 . S
C189 C192 1.431 . S
C189 C209 1.449 . S
C190 C189 1.258 . S
C190 C191 1.477 . S
C190 H210 0.931 . S
C191 C187 1.460 . S
C191 C190 1.477 . S
C191 H211 0.930 . S
C192 N188 1.362 . S
C192 C189 1.431 . S
C192 C202 1.476 . S
H193 C187 0.929 . S
C194 O185 1.250 . S
C194 O186 1.258 . S
O195 Mn180 2.162 . S
O195 C183 1.281 . S
O196 Mn180 2.297 . S
O196 C183 1.236 . S
N197 Mn181 2.282 . S
N197 C198 1.328 . S
N197 C202 1.318 . S
C198 N197 1.328 . S
C198 C199 1.457 . S
C198 H203 0.929 . S
C199 C198 1.457 . S
C199 C200 1.291 . S
C199 H212 0.931 . S
C200 C199 1.291 . S
C200 C201 1.373 . S
C200 H213 0.929 . S
C201 C200 1.373 . S
C201 C202 1.396 . S
C201 C208 1.403 . S
C202 C192 1.476 . S
C202 N197 1.318 . S
C202 C201 1.396 . S
H203 C198 0.929 . S
O204 Mn180 2.385 . S
O204 C182 1.234 . S
O205 Mn180 2.209 . S
O205 Mn181 2.215 . S
O205 C182 1.283 . S
O206 Mn180 2.094 . S
O206 C184 1.240 . S
O207 Mn181 2.117 . S
O207 C184 1.264 . S
C208 C201 1.403 . S
C208 C209 1.399 . S
C208 H214 0.929 . S
C209 C189 1.449 . S
C209 C208 1.399 . S
C209 H215 0.930 . S
H210 C190 0.931 . S
H211 C191 0.930 . S
H212 C199 0.931 . S
H213 C200 0.929 . S
H214 C208 0.929 . S
H215 C209 0.930 . S
Mn216 O221 2.095 . S
Mn216 O231 2.162 1_655 S
Mn216 O232 2.297 1_655 S
Mn216 O240 2.385 . S
Mn216 O241 2.209 . S
Mn216 O242 2.094 . S
Mn217 O222 2.121 . S
Mn217 N224 2.257 . S
Mn217 N233 2.282 . S
Mn217 O241 2.215 . S
Mn217 O243 2.117 . S
C218 O240 1.234 . S
C218 O241 1.283 . S
C219 O231 1.281 . S
C219 O232 1.236 . S
C220 O242 1.240 . S
C220 O243 1.264 . S
O221 Mn216 2.095 . S
O221 C230 1.250 . S
O222 Mn217 2.121 . S
O222 C230 1.258 . S
C223 N224 1.326 . S
C223 C227 1.460 . S
C223 H229 0.929 . S
N224 Mn217 2.257 . S
N224 C223 1.326 . S
N224 C228 1.362 . S
C225 C226 1.258 . S
C225 C228 1.431 . S
C225 C245 1.449 . S
C226 C225 1.258 . S
C226 C227 1.477 . S
C226 H246 0.931 . S
C227 C223 1.460 . S
C227 C226 1.477 . S
C227 H247 0.930 . S
C228 N224 1.362 . S
C228 C225 1.431 . S
C228 C238 1.476 . S
H229 C223 0.929 . S
C230 O221 1.250 . S
C230 O222 1.258 . S
O231 Mn216 2.162 1_455 S
O231 C219 1.281 . S
O232 Mn216 2.297 1_455 S
O232 C219 1.236 . S
N233 Mn217 2.282 . S
N233 C234 1.328 . S
N233 C238 1.318 . S
C234 N233 1.328 . S
C234 C235 1.457 . S
C234 H239 0.929 . S
C235 C234 1.457 . S
C235 C236 1.291 . S
C235 H248 0.931 . S
C236 C235 1.291 . S
C236 C237 1.373 . S
C236 H249 0.929 . S
C237 C236 1.373 . S
C237 C238 1.396 . S
C237 C244 1.403 . S
C238 C228 1.476 . S
C238 N233 1.318 . S
C238 C237 1.396 . S
H239 C234 0.929 . S
O240 Mn216 2.385 . S
O240 C218 1.234 . S
O241 Mn216 2.209 . S
O241 Mn217 2.215 . S
O241 C218 1.283 . S
O242 Mn216 2.094 . S
O242 C220 1.240 . S
O243 Mn217 2.117 . S
O243 C220 1.264 . S
C244 C237 1.403 . S
C244 C245 1.399 . S
C244 H250 0.929 . S
C245 C225 1.449 . S
C245 C244 1.399 . S
C245 H251 0.930 . S
H246 C226 0.931 . S
H247 C227 0.930 . S
H248 C235 0.931 . S
H249 C236 0.929 . S
H250 C244 0.929 . S
H251 C245 0.930 . S
Mn252 O257 2.095 . S
Mn252 O267 2.162 1_565 S
Mn252 O268 2.297 1_565 S
Mn252 O276 2.385 . S
Mn252 O277 2.209 . S
Mn252 O278 2.094 . S
Mn253 O258 2.121 . S
Mn253 N260 2.257 . S
Mn253 N269 2.282 . S
Mn253 O277 2.215 . S
Mn253 O279 2.117 . S
C254 O276 1.234 . S
C254 O277 1.283 . S
C255 O267 1.281 . S
C255 O268 1.236 . S
C256 O278 1.240 . S
C256 O279 1.264 . S
O257 Mn252 2.095 . S
O257 C266 1.250 . S
O258 Mn253 2.121 . S
O258 C266 1.258 . S
C259 N260 1.326 . S
C259 C263 1.460 . S
C259 H265 0.929 . S
N260 Mn253 2.257 . S
N260 C259 1.326 . S
N260 C264 1.362 . S
C261 C262 1.258 . S
C261 C264 1.431 . S
C261 C281 1.449 . S
C262 C261 1.258 . S
C262 C263 1.477 . S
C262 H282 0.931 . S
C263 C259 1.460 . S
C263 C262 1.477 . S
C263 H283 0.930 . S
C264 N260 1.362 . S
C264 C261 1.431 . S
C264 C274 1.476 . S
H265 C259 0.929 . S
C266 O257 1.250 . S
C266 O258 1.258 . S
O267 Mn252 2.162 1_545 S
O267 C255 1.281 . S
O268 Mn252 2.297 1_545 S
O268 C255 1.236 . S
N269 Mn253 2.282 . S
N269 C270 1.328 . S
N269 C274 1.318 . S
C270 N269 1.328 . S
C270 C271 1.457 . S
C270 H275 0.929 . S
C271 C270 1.457 . S
C271 C272 1.291 . S
C271 H284 0.931 . S
C272 C271 1.291 . S
C272 C273 1.373 . S
C272 H285 0.929 . S
C273 C272 1.373 . S
C273 C274 1.396 . S
C273 C280 1.403 . S
C274 C264 1.476 . S
C274 N269 1.318 . S
C274 C273 1.396 . S
H275 C270 0.929 . S
O276 Mn252 2.385 . S
O276 C254 1.234 . S
O277 Mn252 2.209 . S
O277 Mn253 2.215 . S
O277 C254 1.283 . S
O278 Mn252 2.094 . S
O278 C256 1.240 . S
O279 Mn253 2.117 . S
O279 C256 1.264 . S
C280 C273 1.403 . S
C280 C281 1.399 . S
C280 H286 0.929 . S
C281 C261 1.449 . S
C281 C280 1.399 . S
C281 H287 0.930 . S
H282 C262 0.931 . S
H283 C263 0.930 . S
H284 C271 0.931 . S
H285 C272 0.929 . S
H286 C280 0.929 . S
H287 C281 0.930 . S
Mn288 O293 2.095 . S
Mn288 O303 2.162 . S
Mn288 O304 2.297 . S
Mn288 O312 2.385 . S
Mn288 O313 2.209 . S
Mn288 O314 2.094 . S
Mn289 O294 2.121 . S
Mn289 N296 2.257 . S
Mn289 N305 2.282 . S
Mn289 O313 2.215 . S
Mn289 O315 2.117 . S
C290 O312 1.234 . S
C290 O313 1.283 . S
C291 O303 1.281 . S
C291 O304 1.236 . S
C292 O314 1.240 . S
C292 O315 1.264 . S
O293 Mn288 2.095 . S
O293 C302 1.250 . S
O294 Mn289 2.121 . S
O294 C302 1.258 . S
C295 N296 1.326 . S
C295 C299 1.460 . S
C295 H301 0.929 . S
N296 Mn289 2.257 . S
N296 C295 1.326 . S
N296 C300 1.362 . S
C297 C298 1.258 . S
C297 C300 1.431 . S
C297 C317 1.449 . S
C298 C297 1.258 . S
C298 C299 1.477 . S
C298 H318 0.931 . S
C299 C295 1.460 . S
C299 C298 1.477 . S
C299 H319 0.930 . S
C300 N296 1.362 . S
C300 C297 1.431 . S
C300 C310 1.476 . S
H301 C295 0.929 . S
C302 O293 1.250 . S
C302 O294 1.258 . S
O303 Mn288 2.162 . S
O303 C291 1.281 . S
O304 Mn288 2.297 . S
O304 C291 1.236 . S
N305 Mn289 2.282 . S
N305 C306 1.328 . S
N305 C310 1.318 . S
C306 N305 1.328 . S
C306 C307 1.457 . S
C306 H311 0.929 . S
C307 C306 1.457 . S
C307 C308 1.291 . S
C307 H320 0.931 . S
C308 C307 1.291 . S
C308 C309 1.373 . S
C308 H321 0.929 . S
C309 C308 1.373 . S
C309 C310 1.396 . S
C309 C316 1.403 . S
C310 C300 1.476 . S
C310 N305 1.318 . S
C310 C309 1.396 . S
H311 C306 0.929 . S
O312 Mn288 2.385 . S
O312 C290 1.234 . S
O313 Mn288 2.209 . S
O313 Mn289 2.215 . S
O313 C290 1.283 . S
O314 Mn288 2.094 . S
O314 C292 1.240 . S
O315 Mn289 2.117 . S
O315 C292 1.264 . S
C316 C309 1.403 . S
C316 C317 1.399 . S
C316 H322 0.929 . S
C317 C297 1.449 . S
C317 C316 1.399 . S
C317 H323 0.930 . S
H318 C298 0.931 . S
H319 C299 0.930 . S
H320 C307 0.931 . S
H321 C308 0.929 . S
H322 C316 0.929 . S
H323 C317 0.930 . S
Mn324 O329 2.095 . S
Mn324 O339 2.162 . S
Mn324 O340 2.297 . S
Mn324 O348 2.385 . S
Mn324 O349 2.209 . S
Mn324 O350 2.094 . S
Mn325 O330 2.121 . S
Mn325 N332 2.257 . S
Mn325 N341 2.282 . S
Mn325 O349 2.215 . S
Mn325 O351 2.117 . S
C326 O348 1.234 . S
C326 O349 1.283 . S
C327 O339 1.281 . S
C327 O340 1.236 . S
C328 O350 1.240 . S
C328 O351 1.264 . S
O329 Mn324 2.095 . S
O329 C338 1.250 . S
O330 Mn325 2.121 . S
O330 C338 1.258 . S
C331 N332 1.326 . S
C331 C335 1.460 . S
C331 H337 0.929 . S
N332 Mn325 2.257 . S
N332 C331 1.326 . S
N332 C336 1.362 . S
C333 C334 1.258 . S
C333 C336 1.431 . S
C333 C353 1.449 . S
C334 C333 1.258 . S
C334 C335 1.477 . S
C334 H354 0.931 . S
C335 C331 1.460 . S
C335 C334 1.477 . S
C335 H355 0.930 . S
C336 N332 1.362 . S
C336 C333 1.431 . S
C336 C346 1.476 . S
H337 C331 0.929 . S
C338 O329 1.250 . S
C338 O330 1.258 . S
O339 Mn324 2.162 . S
O339 C327 1.281 . S
O340 Mn324 2.297 . S
O340 C327 1.236 . S
N341 Mn325 2.282 . S
N341 C342 1.328 . S
N341 C346 1.318 . S
C342 N341 1.328 . S
C342 C343 1.457 . S
C342 H347 0.929 . S
C343 C342 1.457 . S
C343 C344 1.291 . S
C343 H356 0.931 . S
C344 C343 1.291 . S
C344 C345 1.373 . S
C344 H357 0.929 . S
C345 C344 1.373 . S
C345 C346 1.396 . S
C345 C352 1.403 . S
C346 C336 1.476 . S
C346 N341 1.318 . S
C346 C345 1.396 . S
H347 C342 0.929 . S
O348 Mn324 2.385 . S
O348 C326 1.234 . S
O349 Mn324 2.209 . S
O349 Mn325 2.215 . S
O349 C326 1.283 . S
O350 Mn324 2.094 . S
O350 C328 1.240 . S
O351 Mn325 2.117 . S
O351 C328 1.264 . S
C352 C345 1.403 . S
C352 C353 1.399 . S
C352 H358 0.929 . S
C353 C333 1.449 . S
C353 C352 1.399 . S
C353 H359 0.930 . S
H354 C334 0.931 . S
H355 C335 0.930 . S
H356 C343 0.931 . S
H357 C344 0.929 . S
H358 C352 0.929 . S
H359 C353 0.930 . S
Mn360 O365 2.095 . S
Mn360 O375 2.162 1_455 S
Mn360 O376 2.297 1_455 S
Mn360 O384 2.385 . S
Mn360 O385 2.209 . S
Mn360 O386 2.094 . S
Mn361 O366 2.121 . S
Mn361 N368 2.257 . S
Mn361 N377 2.282 . S
Mn361 O385 2.215 . S
Mn361 O387 2.117 . S
C362 O384 1.234 . S
C362 O385 1.283 . S
C363 O375 1.281 . S
C363 O376 1.236 . S
C364 O386 1.240 . S
C364 O387 1.264 . S
O365 Mn360 2.095 . S
O365 C374 1.250 . S
O366 Mn361 2.121 . S
O366 C374 1.258 . S
C367 N368 1.326 . S
C367 C371 1.460 . S
C367 H373 0.929 . S
N368 Mn361 2.257 . S
N368 C367 1.326 . S
N368 C372 1.362 . S
C369 C370 1.258 . S
C369 C372 1.431 . S
C369 C389 1.449 . S
C370 C369 1.258 . S
C370 C371 1.477 . S
C370 H390 0.931 . S
C371 C367 1.460 . S
C371 C370 1.477 . S
C371 H391 0.930 . S
C372 N368 1.362 . S
C372 C369 1.431 . S
C372 C382 1.476 . S
H373 C367 0.929 . S
C374 O365 1.250 . S
C374 O366 1.258 . S
O375 Mn360 2.162 1_655 S
O375 C363 1.281 . S
O376 Mn360 2.297 1_655 S
O376 C363 1.236 . S
N377 Mn361 2.282 . S
N377 C378 1.328 . S
N377 C382 1.318 . S
C378 N377 1.328 . S
C378 C379 1.457 . S
C378 H383 0.929 . S
C379 C378 1.457 . S
C379 C380 1.291 . S
C379 H392 0.931 . S
C380 C379 1.291 . S
C380 C381 1.373 . S
C380 H393 0.929 . S
C381 C380 1.373 . S
C381 C382 1.396 . S
C381 C388 1.403 . S
C382 C372 1.476 . S
C382 N377 1.318 . S
C382 C381 1.396 . S
H383 C378 0.929 . S
O384 Mn360 2.385 . S
O384 C362 1.234 . S
O385 Mn360 2.209 . S
O385 Mn361 2.215 . S
O385 C362 1.283 . S
O386 Mn360 2.094 . S
O386 C364 1.240 . S
O387 Mn361 2.117 . S
O387 C364 1.264 . S
C388 C381 1.403 . S
C388 C389 1.399 . S
C388 H394 0.929 . S
C389 C369 1.449 . S
C389 C388 1.399 . S
C389 H395 0.930 . S
H390 C370 0.931 . S
H391 C371 0.930 . S
H392 C379 0.931 . S
H393 C380 0.929 . S
H394 C388 0.929 . S
H395 C389 0.930 . S
Mn396 O401 2.095 . S
Mn396 O411 2.162 1_545 S
Mn396 O412 2.297 1_545 S
Mn396 O420 2.385 . S
Mn396 O421 2.209 . S
Mn396 O422 2.094 . S
Mn397 O402 2.121 . S
Mn397 N404 2.257 . S
Mn397 N413 2.282 . S
Mn397 O421 2.215 . S
Mn397 O423 2.117 . S
C398 O420 1.234 . S
C398 O421 1.283 . S
C399 O411 1.281 . S
C399 O412 1.236 . S
C400 O422 1.240 . S
C400 O423 1.264 . S
O401 Mn396 2.095 . S
O401 C410 1.250 . S
O402 Mn397 2.121 . S
O402 C410 1.258 . S
C403 N404 1.326 . S
C403 C407 1.460 . S
C403 H409 0.929 . S
N404 Mn397 2.257 . S
N404 C403 1.326 . S
N404 C408 1.362 . S
C405 C406 1.258 . S
C405 C408 1.431 . S
C405 C425 1.449 . S
C406 C405 1.258 . S
C406 C407 1.477 . S
C406 H426 0.931 . S
C407 C403 1.460 . S
C407 C406 1.477 . S
C407 H427 0.930 . S
C408 N404 1.362 . S
C408 C405 1.431 . S
C408 C418 1.476 . S
H409 C403 0.929 . S
C410 O401 1.250 . S
C410 O402 1.258 . S
O411 Mn396 2.162 1_565 S
O411 C399 1.281 . S
O412 Mn396 2.297 1_565 S
O412 C399 1.236 . S
N413 Mn397 2.282 . S
N413 C414 1.328 . S
N413 C418 1.318 . S
C414 N413 1.328 . S
C414 C415 1.457 . S
C414 H419 0.929 . S
C415 C414 1.457 . S
C415 C416 1.291 . S
C415 H428 0.931 . S
C416 C415 1.291 . S
C416 C417 1.373 . S
C416 H429 0.929 . S
C417 C416 1.373 . S
C417 C418 1.396 . S
C417 C424 1.403 . S
C418 C408 1.476 . S
C418 N413 1.318 . S
C418 C417 1.396 . S
H419 C414 0.929 . S
O420 Mn396 2.385 . S
O420 C398 1.234 . S
O421 Mn396 2.209 . S
O421 Mn397 2.215 . S
O421 C398 1.283 . S
O422 Mn396 2.094 . S
O422 C400 1.240 . S
O423 Mn397 2.117 . S
O423 C400 1.264 . S
C424 C417 1.403 . S
C424 C425 1.399 . S
C424 H430 0.929 . S
C425 C405 1.449 . S
C425 C424 1.399 . S
C425 H431 0.930 . S
H426 C406 0.931 . S
H427 C407 0.930 . S
H428 C415 0.931 . S
H429 C416 0.929 . S
H430 C424 0.929 . S
H431 C425 0.930 . S
Mn432 O437 2.095 . S
Mn432 O447 2.162 . S
Mn432 O448 2.297 . S
Mn432 O456 2.385 . S
Mn432 O457 2.209 . S
Mn432 O458 2.094 . S
Mn433 O438 2.121 . S
Mn433 N440 2.257 . S
Mn433 N449 2.282 . S
Mn433 O457 2.215 . S
Mn433 O459 2.117 . S
C434 O456 1.234 . S
C434 O457 1.283 . S
C435 O447 1.281 . S
C435 O448 1.236 . S
C436 O458 1.240 . S
C436 O459 1.264 . S
O437 Mn432 2.095 . S
O437 C446 1.250 . S
O438 Mn433 2.121 . S
O438 C446 1.258 . S
C439 N440 1.326 . S
C439 C443 1.460 . S
C439 H445 0.929 . S
N440 Mn433 2.257 . S
N440 C439 1.326 . S
N440 C444 1.362 . S
C441 C442 1.258 . S
C441 C444 1.431 . S
C441 C461 1.449 . S
C442 C441 1.258 . S
C442 C443 1.477 . S
C442 H462 0.931 . S
C443 C439 1.460 . S
C443 C442 1.477 . S
C443 H463 0.930 . S
C444 N440 1.362 . S
C444 C441 1.431 . S
C444 C454 1.476 . S
H445 C439 0.929 . S
C446 O437 1.250 . S
C446 O438 1.258 . S
O447 Mn432 2.162 . S
O447 C435 1.281 . S
O448 Mn432 2.297 . S
O448 C435 1.236 . S
N449 Mn433 2.282 . S
N449 C450 1.328 . S
N449 C454 1.318 . S
C450 N449 1.328 . S
C450 C451 1.457 . S
C450 H455 0.929 . S
C451 C450 1.457 . S
C451 C452 1.291 . S
C451 H464 0.931 . S
C452 C451 1.291 . S
C452 C453 1.373 . S
C452 H465 0.929 . S
C453 C452 1.373 . S
C453 C454 1.396 . S
C453 C460 1.403 . S
C454 C444 1.476 . S
C454 N449 1.318 . S
C454 C453 1.396 . S
H455 C450 0.929 . S
O456 Mn432 2.385 . S
O456 C434 1.234 . S
O457 Mn432 2.209 . S
O457 Mn433 2.215 . S
O457 C434 1.283 . S
O458 Mn432 2.094 . S
O458 C436 1.240 . S
O459 Mn433 2.117 . S
O459 C436 1.264 . S
C460 C453 1.403 . S
C460 C461 1.399 . S
C460 H466 0.929 . S
C461 C441 1.449 . S
C461 C460 1.399 . S
C461 H467 0.930 . S
H462 C442 0.931 . S
H463 C443 0.930 . S
H464 C451 0.931 . S
H465 C452 0.929 . S
H466 C460 0.929 . S
H467 C461 0.930 . S
Mn468 O473 2.095 . S
Mn468 O483 2.162 . S
Mn468 O484 2.297 . S
Mn468 O492 2.385 . S
Mn468 O493 2.209 . S
Mn468 O494 2.094 . S
Mn469 O474 2.121 . S
Mn469 N476 2.257 . S
Mn469 N485 2.282 . S
Mn469 O493 2.215 . S
Mn469 O495 2.117 . S
C470 O492 1.234 . S
C470 O493 1.283 . S
C471 O483 1.281 . S
C471 O484 1.236 . S
C472 O494 1.240 . S
C472 O495 1.264 . S
O473 Mn468 2.095 . S
O473 C482 1.250 . S
O474 Mn469 2.121 . S
O474 C482 1.258 . S
C475 N476 1.326 . S
C475 C479 1.460 . S
C475 H481 0.929 . S
N476 Mn469 2.257 . S
N476 C475 1.326 . S
N476 C480 1.362 . S
C477 C478 1.258 . S
C477 C480 1.431 . S
C477 C497 1.449 . S
C478 C477 1.258 . S
C478 C479 1.477 . S
C478 H498 0.931 . S
C479 C475 1.460 . S
C479 C478 1.477 . S
C479 H499 0.930 . S
C480 N476 1.362 . S
C480 C477 1.431 . S
C480 C490 1.476 . S
H481 C475 0.929 . S
C482 O473 1.250 . S
C482 O474 1.258 . S
O483 Mn468 2.162 . S
O483 C471 1.281 . S
O484 Mn468 2.297 . S
O484 C471 1.236 . S
N485 Mn469 2.282 . S
N485 C486 1.328 . S
N485 C490 1.318 . S
C486 N485 1.328 . S
C486 C487 1.457 . S
C486 H491 0.929 . S
C487 C486 1.457 . S
C487 C488 1.291 . S
C487 H500 0.931 . S
C488 C487 1.291 . S
C488 C489 1.373 . S
C488 H501 0.929 . S
C489 C488 1.373 . S
C489 C490 1.396 . S
C489 C496 1.403 . S
C490 C480 1.476 . S
C490 N485 1.318 . S
C490 C489 1.396 . S
H491 C486 0.929 . S
O492 Mn468 2.385 . S
O492 C470 1.234 . S
O493 Mn468 2.209 . S
O493 Mn469 2.215 . S
O493 C470 1.283 . S
O494 Mn468 2.094 . S
O494 C472 1.240 . S
O495 Mn469 2.117 . S
O495 C472 1.264 . S
C496 C489 1.403 . S
C496 C497 1.399 . S
C496 H502 0.929 . S
C497 C477 1.449 . S
C497 C496 1.399 . S
C497 H503 0.930 . S
H498 C478 0.931 . S
H499 C479 0.930 . S
H500 C487 0.931 . S
H501 C488 0.929 . S
H502 C496 0.929 . S
H503 C497 0.930 . S
Mn504 O509 2.095 . S
Mn504 O519 2.162 1_455 S
Mn504 O520 2.297 1_455 S
Mn504 O528 2.385 . S
Mn504 O529 2.209 . S
Mn504 O530 2.094 . S
Mn505 O510 2.121 . S
Mn505 N512 2.257 . S
Mn505 N521 2.282 . S
Mn505 O529 2.215 . S
Mn505 O531 2.117 . S
C506 O528 1.234 . S
C506 O529 1.283 . S
C507 O519 1.281 . S
C507 O520 1.236 . S
C508 O530 1.240 . S
C508 O531 1.264 . S
O509 Mn504 2.095 . S
O509 C518 1.250 . S
O510 Mn505 2.121 . S
O510 C518 1.258 . S
C511 N512 1.326 . S
C511 C515 1.460 . S
C511 H517 0.929 . S
N512 Mn505 2.257 . S
N512 C511 1.326 . S
N512 C516 1.362 . S
C513 C514 1.258 . S
C513 C516 1.431 . S
C513 C533 1.449 . S
C514 C513 1.258 . S
C514 C515 1.477 . S
C514 H534 0.931 . S
C515 C511 1.460 . S
C515 C514 1.477 . S
C515 H535 0.930 . S
C516 N512 1.362 . S
C516 C513 1.431 . S
C516 C526 1.476 . S
H517 C511 0.929 . S
C518 O509 1.250 . S
C518 O510 1.258 . S
O519 Mn504 2.162 1_655 S
O519 C507 1.281 . S
O520 Mn504 2.297 1_655 S
O520 C507 1.236 . S
N521 Mn505 2.282 . S
N521 C522 1.328 . S
N521 C526 1.318 . S
C522 N521 1.328 . S
C522 C523 1.457 . S
C522 H527 0.929 . S
C523 C522 1.457 . S
C523 C524 1.291 . S
C523 H536 0.931 . S
C524 C523 1.291 . S
C524 C525 1.373 . S
C524 H537 0.929 . S
C525 C524 1.373 . S
C525 C526 1.396 . S
C525 C532 1.403 . S
C526 C516 1.476 . S
C526 N521 1.318 . S
C526 C525 1.396 . S
H527 C522 0.929 . S
O528 Mn504 2.385 . S
O528 C506 1.234 . S
O529 Mn504 2.209 . S
O529 Mn505 2.215 . S
O529 C506 1.283 . S
O530 Mn504 2.094 . S
O530 C508 1.240 . S
O531 Mn505 2.117 . S
O531 C508 1.264 . S
C532 C525 1.403 . S
C532 C533 1.399 . S
C532 H538 0.929 . S
C533 C513 1.449 . S
C533 C532 1.399 . S
C533 H539 0.930 . S
H534 C514 0.931 . S
H535 C515 0.930 . S
H536 C523 0.931 . S
H537 C524 0.929 . S
H538 C532 0.929 . S
H539 C533 0.930 . S
Mn540 O545 2.095 . S
Mn540 O555 2.162 1_545 S
Mn540 O556 2.297 1_545 S
Mn540 O564 2.385 . S
Mn540 O565 2.209 . S
Mn540 O566 2.094 . S
Mn541 O546 2.121 . S
Mn541 N548 2.257 . S
Mn541 N557 2.282 . S
Mn541 O565 2.215 . S
Mn541 O567 2.117 . S
C542 O564 1.234 . S
C542 O565 1.283 . S
C543 O555 1.281 . S
C543 O556 1.236 . S
C544 O566 1.240 . S
C544 O567 1.264 . S
O545 Mn540 2.095 . S
O545 C554 1.250 . S
O546 Mn541 2.121 . S
O546 C554 1.258 . S
C547 N548 1.326 . S
C547 C551 1.460 . S
C547 H553 0.929 . S
N548 Mn541 2.257 . S
N548 C547 1.326 . S
N548 C552 1.362 . S
C549 C550 1.258 . S
C549 C552 1.431 . S
C549 C569 1.449 . S
C550 C549 1.258 . S
C550 C551 1.477 . S
C550 H570 0.931 . S
C551 C547 1.460 . S
C551 C550 1.477 . S
C551 H571 0.930 . S
C552 N548 1.362 . S
C552 C549 1.431 . S
C552 C562 1.476 . S
H553 C547 0.929 . S
C554 O545 1.250 . S
C554 O546 1.258 . S
O555 Mn540 2.162 1_565 S
O555 C543 1.281 . S
O556 Mn540 2.297 1_565 S
O556 C543 1.236 . S
N557 Mn541 2.282 . S
N557 C558 1.328 . S
N557 C562 1.318 . S
C558 N557 1.328 . S
C558 C559 1.457 . S
C558 H563 0.929 . S
C559 C558 1.457 . S
C559 C560 1.291 . S
C559 H572 0.931 . S
C560 C559 1.291 . S
C560 C561 1.373 . S
C560 H573 0.929 . S
C561 C560 1.373 . S
C561 C562 1.396 . S
C561 C568 1.403 . S
C562 C552 1.476 . S
C562 N557 1.318 . S
C562 C561 1.396 . S
H563 C558 0.929 . S
O564 Mn540 2.385 . S
O564 C542 1.234 . S
O565 Mn540 2.209 . S
O565 Mn541 2.215 . S
O565 C542 1.283 . S
O566 Mn540 2.094 . S
O566 C544 1.240 . S
O567 Mn541 2.117 . S
O567 C544 1.264 . S
C568 C561 1.403 . S
C568 C569 1.399 . S
C568 H574 0.929 . S
C569 C549 1.449 . S
C569 C568 1.399 . S
C569 H575 0.930 . S
H570 C550 0.931 . S
H571 C551 0.930 . S
H572 C559 0.931 . S
H573 C560 0.929 . S
H574 C568 0.929 . S
H575 C569 0.930 . S
H576 C584 0.950 . S
H577 C589 0.950 . S
H578 C586 0.950 . S
H579 C588 0.950 . S
H580 C590 0.950 . S
H581 C592 0.950 . S
H582 C594 0.950 . S
H583 C595 0.950 . S
C584 H576 0.950 . S
C584 C585 1.386 . S
C584 C586 1.391 . S
C585 C584 1.386 . S
C585 C589 1.393 . S
C586 H578 0.950 . S
C586 C584 1.391 . S
C586 C587 1.400 . S
C587 C586 1.400 . S
C587 C588 1.398 . S
C587 C593 1.491 . S
C588 H579 0.950 . S
C588 C587 1.398 . S
C588 C589 1.391 . S
C589 H577 0.950 . S
C589 C585 1.393 . S
C589 C588 1.391 . S
C590 H580 0.950 . S
C590 C591 1.386 . S
C590 C592 1.391 . S
C591 C590 1.386 . S
C591 C595 1.393 . S
C592 H581 0.950 . S
C592 C590 1.391 . S
C592 C593 1.400 . S
C593 C587 1.491 . S
C593 C592 1.400 . S
C593 C594 1.398 . S
C594 H582 0.950 . S
C594 C593 1.398 . S
C594 C595 1.391 . S
C595 H583 0.950 . S
C595 C591 1.393 . S
C595 C594 1.391 . S
H596 C604 0.950 . S
H597 C609 0.950 . S
H598 C606 0.950 . S
H599 C608 0.950 . S
H600 C610 0.950 . S
H601 C612 0.950 . S
H602 C614 0.950 . S
H603 C615 0.950 . S
C604 H596 0.950 . S
C604 C605 1.386 . S
C604 C606 1.391 . S
C605 C604 1.386 . S
C605 C609 1.393 . S
C606 H598 0.950 . S
C606 C604 1.391 . S
C606 C607 1.400 . S
C607 C606 1.400 . S
C607 C608 1.398 . S
C607 C613 1.491 . S
C608 H599 0.950 . S
C608 C607 1.398 . S
C608 C609 1.391 . S
C609 H597 0.950 . S
C609 C605 1.393 . S
C609 C608 1.391 . S
C610 H600 0.950 . S
C610 C611 1.386 . S
C610 C612 1.391 . S
C611 C610 1.386 . S
C611 C615 1.393 . S
C612 H601 0.950 . S
C612 C610 1.391 . S
C612 C613 1.400 . S
C613 C607 1.491 . S
C613 C612 1.400 . S
C613 C614 1.398 . S
C614 H602 0.950 . S
C614 C613 1.398 . S
C614 C615 1.391 . S
C615 H603 0.950 . S
C615 C611 1.393 . S
C615 C614 1.391 . S
H616 C624 0.950 . S
H617 C629 0.950 . S
H618 C626 0.950 . S
H619 C628 0.950 . S
H620 C630 0.950 . S
H621 C632 0.950 . S
H622 C634 0.950 . S
H623 C635 0.950 . S
C624 H616 0.950 . S
C624 C625 1.386 . S
C624 C626 1.391 . S
C625 C624 1.386 . S
C625 C629 1.393 . S
C626 H618 0.950 . S
C626 C624 1.391 . S
C626 C627 1.400 . S
C627 C626 1.400 . S
C627 C628 1.398 . S
C627 C633 1.491 . S
C628 H619 0.950 . S
C628 C627 1.398 . S
C628 C629 1.391 . S
C629 H617 0.950 . S
C629 C625 1.393 . S
C629 C628 1.391 . S
C630 H620 0.950 . S
C630 C631 1.386 . S
C630 C632 1.391 . S
C631 C630 1.386 . S
C631 C635 1.393 . S
C632 H621 0.950 . S
C632 C630 1.391 . S
C632 C633 1.400 . S
C633 C627 1.491 . S
C633 C632 1.400 . S
C633 C634 1.398 . S
C634 H622 0.950 . S
C634 C633 1.398 . S
C634 C635 1.391 . S
C635 H623 0.950 . S
C635 C631 1.393 . S
C635 C634 1.391 . S
H636 C644 0.950 . S
H637 C649 0.950 . S
H638 C646 0.950 . S
H639 C648 0.950 . S
H640 C650 0.950 . S
H641 C652 0.950 . S
H642 C654 0.950 . S
H643 C655 0.950 . S
C644 H636 0.950 . S
C644 C645 1.386 . S
C644 C646 1.391 . S
C645 C644 1.386 . S
C645 C649 1.393 . S
C646 H638 0.950 . S
C646 C644 1.391 . S
C646 C647 1.400 . S
C647 C646 1.400 . S
C647 C648 1.398 . S
C647 C653 1.491 . S
C648 H639 0.950 . S
C648 C647 1.398 . S
C648 C649 1.391 . S
C649 H637 0.950 . S
C649 C645 1.393 . S
C649 C648 1.391 . S
C650 H640 0.950 . S
C650 C651 1.386 . S
C650 C652 1.391 . S
C651 C650 1.386 . S
C651 C655 1.393 . S
C652 H641 0.950 . S
C652 C650 1.391 . S
C652 C653 1.400 . S
C653 C647 1.491 . S
C653 C652 1.400 . S
C653 C654 1.398 . S
C654 H642 0.950 . S
C654 C653 1.398 . S
C654 C655 1.391 . S
C655 H643 0.950 . S
C655 C651 1.393 . S
C655 C654 1.391 . S
H656 C664 0.950 . S
H657 C669 0.950 . S
H658 C666 0.950 . S
H659 C668 0.950 . S
H660 C670 0.950 . S
H661 C672 0.950 . S
H662 C674 0.950 . S
H663 C675 0.950 . S
C664 H656 0.950 . S
C664 C665 1.386 . S
C664 C666 1.391 . S
C665 C664 1.386 . S
C665 C669 1.393 . S
C666 H658 0.950 . S
C666 C664 1.391 . S
C666 C667 1.400 . S
C667 C666 1.400 . S
C667 C668 1.398 . S
C667 C673 1.491 . S
C668 H659 0.950 . S
C668 C667 1.398 . S
C668 C669 1.391 . S
C669 H657 0.950 . S
C669 C665 1.393 . S
C669 C668 1.391 . S
C670 H660 0.950 . S
C670 C671 1.386 . S
C670 C672 1.391 . S
C671 C670 1.386 . S
C671 C675 1.393 . S
C672 H661 0.950 . S
C672 C670 1.391 . S
C672 C673 1.400 . S
C673 C667 1.491 . S
C673 C672 1.400 . S
C673 C674 1.398 . S
C674 H662 0.950 . S
C674 C673 1.398 . S
C674 C675 1.391 . S
C675 H663 0.950 . S
C675 C671 1.393 . S
C675 C674 1.391 . S
H676 C684 0.950 . S
H677 C689 0.950 . S
H678 C686 0.950 . S
H679 C688 0.950 . S
H680 C690 0.950 . S
H681 C692 0.950 . S
H682 C694 0.950 . S
H683 C695 0.950 . S
C684 H676 0.950 . S
C684 C685 1.386 . S
C684 C686 1.391 . S
C685 C684 1.386 . S
C685 C689 1.393 . S
C686 H678 0.950 . S
C686 C684 1.391 . S
C686 C687 1.400 . S
C687 C686 1.400 . S
C687 C688 1.398 . S
C687 C693 1.491 . S
C688 H679 0.950 . S
C688 C687 1.398 . S
C688 C689 1.391 . S
C689 H677 0.950 . S
C689 C685 1.393 . S
C689 C688 1.391 . S
C690 H680 0.950 . S
C690 C691 1.386 . S
C690 C692 1.391 . S
C691 C690 1.386 . S
C691 C695 1.393 . S
C692 H681 0.950 . S
C692 C690 1.391 . S
C692 C693 1.400 . S
C693 C687 1.491 . S
C693 C692 1.400 . S
C693 C694 1.398 . S
C694 H682 0.950 . S
C694 C693 1.398 . S
C694 C695 1.391 . S
C695 H683 0.950 . S
C695 C691 1.393 . S
C695 C694 1.391 . S
H696 C704 0.950 . S
H697 C709 0.950 . S
H698 C706 0.950 . S
H699 C708 0.950 . S
H700 C710 0.950 . S
H701 C712 0.950 . S
H702 C714 0.950 . S
H703 C715 0.950 . S
C704 H696 0.950 . S
C704 C705 1.386 . S
C704 C706 1.391 . S
C705 C704 1.386 . S
C705 C709 1.393 . S
C706 H698 0.950 . S
C706 C704 1.391 . S
C706 C707 1.400 . S
C707 C706 1.400 . S
C707 C708 1.398 . S
C707 C713 1.491 . S
C708 H699 0.950 . S
C708 C707 1.398 . S
C708 C709 1.391 . S
C709 H697 0.950 . S
C709 C705 1.393 . S
C709 C708 1.391 . S
C710 H700 0.950 . S
C710 C711 1.386 . S
C710 C712 1.391 . S
C711 C710 1.386 . S
C711 C715 1.393 . S
C712 H701 0.950 . S
C712 C710 1.391 . S
C712 C713 1.400 . S
C713 C707 1.491 . S
C713 C712 1.400 . S
C713 C714 1.398 . S
C714 H702 0.950 . S
C714 C713 1.398 . S
C714 C715 1.391 . S
C715 H703 0.950 . S
C715 C711 1.393 . S
C715 C714 1.391 . S
H716 C724 0.950 . S
H717 C729 0.950 . S
H718 C726 0.950 . S
H719 C728 0.950 . S
H720 C730 0.950 . S
H721 C732 0.950 . S
H722 C734 0.950 . S
H723 C735 0.950 . S
C724 H716 0.950 . S
C724 C725 1.386 . S
C724 C726 1.391 . S
C725 C724 1.386 . S
C725 C729 1.393 . S
C726 H718 0.950 . S
C726 C724 1.391 . S
C726 C727 1.400 . S
C727 C726 1.400 . S
C727 C728 1.398 . S
C727 C733 1.491 . S
C728 H719 0.950 . S
C728 C727 1.398 . S
C728 C729 1.391 . S
C729 H717 0.950 . S
C729 C725 1.393 . S
C729 C728 1.391 . S
C730 H720 0.950 . S
C730 C731 1.386 . S
C730 C732 1.391 . S
C731 C730 1.386 . S
C731 C735 1.393 . S
C732 H721 0.950 . S
C732 C730 1.391 . S
C732 C733 1.400 . S
C733 C727 1.491 . S
C733 C732 1.400 . S
C733 C734 1.398 . S
C734 H722 0.950 . S
C734 C733 1.398 . S
C734 C735 1.391 . S
C735 H723 0.950 . S
C735 C731 1.393 . S
C735 C734 1.391 . S
H736 C744 0.950 . S
H737 C749 0.950 . S
H738 C746 0.950 . S
H739 C748 0.950 . S
H740 C750 0.950 . S
H741 C752 0.950 . S
H742 C754 0.950 . S
H743 C755 0.950 . S
C744 H736 0.950 . S
C744 C745 1.386 . S
C744 C746 1.391 . S
C745 C744 1.386 . S
C745 C749 1.393 . S
C746 H738 0.950 . S
C746 C744 1.391 . S
C746 C747 1.400 . S
C747 C746 1.400 . S
C747 C748 1.398 . S
C747 C753 1.491 . S
C748 H739 0.950 . S
C748 C747 1.398 . S
C748 C749 1.391 . S
C749 H737 0.950 . S
C749 C745 1.393 . S
C749 C748 1.391 . S
C750 H740 0.950 . S
C750 C751 1.386 . S
C750 C752 1.391 . S
C751 C750 1.386 . S
C751 C755 1.393 . S
C752 H741 0.950 . S
C752 C750 1.391 . S
C752 C753 1.400 . S
C753 C747 1.491 . S
C753 C752 1.400 . S
C753 C754 1.398 . S
C754 H742 0.950 . S
C754 C753 1.398 . S
C754 C755 1.391 . S
C755 H743 0.950 . S
C755 C751 1.393 . S
C755 C754 1.391 . S
H756 C764 0.950 . S
H757 C769 0.950 . S
H758 C766 0.950 . S
H759 C768 0.950 . S
H760 C770 0.950 . S
H761 C772 0.950 . S
H762 C774 0.950 . S
H763 C775 0.950 . S
C764 H756 0.950 . S
C764 C765 1.386 . S
C764 C766 1.391 . S
C765 C764 1.386 . S
C765 C769 1.393 . S
C766 H758 0.950 . S
C766 C764 1.391 . S
C766 C767 1.400 . S
C767 C766 1.400 . S
C767 C768 1.398 . S
C767 C773 1.491 . S
C768 H759 0.950 . S
C768 C767 1.398 . S
C768 C769 1.391 . S
C769 H757 0.950 . S
C769 C765 1.393 . S
C769 C768 1.391 . S
C770 H760 0.950 . S
C770 C771 1.386 . S
C770 C772 1.391 . S
C771 C770 1.386 . S
C771 C775 1.393 . S
C772 H761 0.950 . S
C772 C770 1.391 . S
C772 C773 1.400 . S
C773 C767 1.491 . S
C773 C772 1.400 . S
C773 C774 1.398 . S
C774 H762 0.950 . S
C774 C773 1.398 . S
C774 C775 1.391 . S
C775 H763 0.950 . S
C775 C771 1.393 . S
C775 C774 1.391 . S
H776 C784 0.950 . S
H777 C789 0.950 . S
H778 C786 0.950 . S
H779 C788 0.950 . S
H780 C790 0.950 . S
H781 C792 0.950 . S
H782 C794 0.950 . S
H783 C795 0.950 . S
C784 H776 0.950 . S
C784 C785 1.386 . S
C784 C786 1.391 . S
C785 C784 1.386 . S
C785 C789 1.393 . S
C786 H778 0.950 . S
C786 C784 1.391 . S
C786 C787 1.400 . S
C787 C786 1.400 . S
C787 C788 1.398 . S
C787 C793 1.491 . S
C788 H779 0.950 . S
C788 C787 1.398 . S
C788 C789 1.391 . S
C789 H777 0.950 . S
C789 C785 1.393 . S
C789 C788 1.391 . S
C790 H780 0.950 . S
C790 C791 1.386 . S
C790 C792 1.391 . S
C791 C790 1.386 . S
C791 C795 1.393 . S
C792 H781 0.950 . S
C792 C790 1.391 . S
C792 C793 1.400 . S
C793 C787 1.491 . S
C793 C792 1.400 . S
C793 C794 1.398 . S
C794 H782 0.950 . S
C794 C793 1.398 . S
C794 C795 1.391 . S
C795 H783 0.950 . S
C795 C791 1.393 . S
C795 C794 1.391 . S
H796 C804 0.950 . S
H797 C809 0.950 . S
H798 C806 0.950 . S
H799 C808 0.950 . S
H800 C810 0.950 . S
H801 C812 0.950 . S
H802 C814 0.950 . S
H803 C815 0.950 . S
C804 H796 0.950 . S
C804 C805 1.386 . S
C804 C806 1.391 . S
C805 C804 1.386 . S
C805 C809 1.393 . S
C806 H798 0.950 . S
C806 C804 1.391 . S
C806 C807 1.400 . S
C807 C806 1.400 . S
C807 C808 1.398 . S
C807 C813 1.491 . S
C808 H799 0.950 . S
C808 C807 1.398 . S
C808 C809 1.391 . S
C809 H797 0.950 . S
C809 C805 1.393 . S
C809 C808 1.391 . S
C810 H800 0.950 . S
C810 C811 1.386 . S
C810 C812 1.391 . S
C811 C810 1.386 . S
C811 C815 1.393 . S
C812 H801 0.950 . S
C812 C810 1.391 . S
C812 C813 1.400 . S
C813 C807 1.491 . S
C813 C812 1.400 . S
C813 C814 1.398 . S
C814 H802 0.950 . S
C814 C813 1.398 . S
C814 C815 1.391 . S
C815 H803 0.950 . S
C815 C811 1.393 . S
C815 C814 1.391 . S
H816 C824 0.950 . S
H817 C829 0.950 . S
H818 C826 0.950 . S
H819 C828 0.950 . S
H820 C830 0.950 . S
H821 C832 0.950 . S
H822 C834 0.950 . S
H823 C835 0.950 . S
C824 H816 0.950 . S
C824 C825 1.386 . S
C824 C826 1.391 . S
C825 C824 1.386 . S
C825 C829 1.393 . S
C826 H818 0.950 . S
C826 C824 1.391 . S
C826 C827 1.400 . S
C827 C826 1.400 . S
C827 C828 1.398 . S
C827 C833 1.491 . S
C828 H819 0.950 . S
C828 C827 1.398 . S
C828 C829 1.391 . S
C829 H817 0.950 . S
C829 C825 1.393 . S
C829 C828 1.391 . S
C830 H820 0.950 . S
C830 C831 1.386 . S
C830 C832 1.391 . S
C831 C830 1.386 . S
C831 C835 1.393 . S
C832 H821 0.950 . S
C832 C830 1.391 . S
C832 C833 1.400 . S
C833 C827 1.491 . S
C833 C832 1.400 . S
C833 C834 1.398 . S
C834 H822 0.950 . S
C834 C833 1.398 . S
C834 C835 1.391 . S
C835 H823 0.950 . S
C835 C831 1.393 . S
C835 C834 1.391 . S
H836 C844 0.950 . S
H837 C849 0.950 . S
H838 C846 0.950 . S
H839 C848 0.950 . S
H840 C850 0.950 . S
H841 C852 0.950 . S
H842 C854 0.950 . S
H843 C855 0.950 . S
C844 H836 0.950 . S
C844 C845 1.386 . S
C844 C846 1.391 . S
C845 C844 1.386 . S
C845 C849 1.393 . S
C846 H838 0.950 . S
C846 C844 1.391 . S
C846 C847 1.400 . S
C847 C846 1.400 . S
C847 C848 1.398 . S
C847 C853 1.491 . S
C848 H839 0.950 . S
C848 C847 1.398 . S
C848 C849 1.391 . S
C849 H837 0.950 . S
C849 C845 1.393 . S
C849 C848 1.391 . S
C850 H840 0.950 . S
C850 C851 1.386 . S
C850 C852 1.391 . S
C851 C850 1.386 . S
C851 C855 1.393 . S
C852 H841 0.950 . S
C852 C850 1.391 . S
C852 C853 1.400 . S
C853 C847 1.491 . S
C853 C852 1.400 . S
C853 C854 1.398 . S
C854 H842 0.950 . S
C854 C853 1.398 . S
C854 C855 1.391 . S
C855 H843 0.950 . S
C855 C851 1.393 . S
C855 C854 1.391 . S
H856 C864 0.950 . S
H857 C869 0.950 . S
H858 C866 0.950 . S
H859 C868 0.950 . S
H860 C870 0.950 . S
H861 C872 0.950 . S
H862 C874 0.950 . S
H863 C875 0.950 . S
C864 H856 0.950 . S
C864 C865 1.386 . S
C864 C866 1.391 . S
C865 C864 1.386 . S
C865 C869 1.393 . S
C866 H858 0.950 . S
C866 C864 1.391 . S
C866 C867 1.400 . S
C867 C866 1.400 . S
C867 C868 1.398 . S
C867 C873 1.491 . S
C868 H859 0.950 . S
C868 C867 1.398 . S
C868 C869 1.391 . S
C869 H857 0.950 . S
C869 C865 1.393 . S
C869 C868 1.391 . S
C870 H860 0.950 . S
C870 C871 1.386 . S
C870 C872 1.391 . S
C871 C870 1.386 . S
C871 C875 1.393 . S
C872 H861 0.950 . S
C872 C870 1.391 . S
C872 C873 1.400 . S
C873 C867 1.491 . S
C873 C872 1.400 . S
C873 C874 1.398 . S
C874 H862 0.950 . S
C874 C873 1.398 . S
C874 C875 1.391 . S
C875 H863 0.950 . S
C875 C871 1.393 . S
C875 C874 1.391 . S
H876 C884 0.950 . S
H877 C889 0.950 . S
H878 C886 0.950 . S
H879 C888 0.950 . S
H880 C890 0.950 . S
H881 C892 0.950 . S
H882 C894 0.950 . S
H883 C895 0.950 . S
C884 H876 0.950 . S
C884 C885 1.386 . S
C884 C886 1.391 . S
C885 C884 1.386 . S
C885 C889 1.393 . S
C886 H878 0.950 . S
C886 C884 1.391 . S
C886 C887 1.400 . S
C887 C886 1.400 . S
C887 C888 1.398 . S
C887 C893 1.491 . S
C888 H879 0.950 . S
C888 C887 1.398 . S
C888 C889 1.391 . S
C889 H877 0.950 . S
C889 C885 1.393 . S
C889 C888 1.391 . S
C890 H880 0.950 . S
C890 C891 1.386 . S
C890 C892 1.391 . S
C891 C890 1.386 . S
C891 C895 1.393 . S
C892 H881 0.950 . S
C892 C890 1.391 . S
C892 C893 1.400 . S
C893 C887 1.491 . S
C893 C892 1.400 . S
C893 C894 1.398 . S
C894 H882 0.950 . S
C894 C893 1.398 . S
C894 C895 1.391 . S
C895 H883 0.950 . S
C895 C891 1.393 . S
C895 C894 1.391 . S
H896 C904 0.950 . S
H897 C909 0.950 . S
H898 C906 0.950 . S
H899 C908 0.950 . S
H900 C910 0.950 . S
H901 C912 0.950 . S
H902 C914 0.950 . S
H903 C915 0.950 . S
C904 H896 0.950 . S
C904 C905 1.386 . S
C904 C906 1.391 . S
C905 C904 1.386 . S
C905 C909 1.393 . S
C906 H898 0.950 . S
C906 C904 1.391 . S
C906 C907 1.400 . S
C907 C906 1.400 . S
C907 C908 1.398 . S
C907 C913 1.491 . S
C908 H899 0.950 . S
C908 C907 1.398 . S
C908 C909 1.391 . S
C909 H897 0.950 . S
C909 C905 1.393 . S
C909 C908 1.391 . S
C910 H900 0.950 . S
C910 C911 1.386 . S
C910 C912 1.391 . S
C911 C910 1.386 . S
C911 C915 1.393 . S
C912 H901 0.950 . S
C912 C910 1.391 . S
C912 C913 1.400 . S
C913 C907 1.491 . S
C913 C912 1.400 . S
C913 C914 1.398 . S
C914 H902 0.950 . S
C914 C913 1.398 . S
C914 C915 1.391 . S
C915 H903 0.950 . S
C915 C911 1.393 . S
C915 C914 1.391 . S
H916 C924 0.950 . S
H917 C929 0.950 . S
H918 C926 0.950 . S
H919 C928 0.950 . S
H920 C930 0.950 . S
H921 C932 0.950 . S
H922 C934 0.950 . S
H923 C935 0.950 . S
C924 H916 0.950 . S
C924 C925 1.386 . S
C924 C926 1.391 . S
C925 C924 1.386 . S
C925 C929 1.393 . S
C926 H918 0.950 . S
C926 C924 1.391 . S
C926 C927 1.400 . S
C927 C926 1.400 . S
C927 C928 1.398 . S
C927 C933 1.491 . S
C928 H919 0.950 . S
C928 C927 1.398 . S
C928 C929 1.391 . S
C929 H917 0.950 . S
C929 C925 1.393 . S
C929 C928 1.391 . S
C930 H920 0.950 . S
C930 C931 1.386 . S
C930 C932 1.391 . S
C931 C930 1.386 . S
C931 C935 1.393 . S
C932 H921 0.950 . S
C932 C930 1.391 . S
C932 C933 1.400 . S
C933 C927 1.491 . S
C933 C932 1.400 . S
C933 C934 1.398 . S
C934 H922 0.950 . S
C934 C933 1.398 . S
C934 C935 1.391 . S
C935 H923 0.950 . S
C935 C931 1.393 . S
C935 C934 1.391 . S
H936 C944 0.950 . S
H937 C949 0.950 . S
H938 C946 0.950 . S
H939 C948 0.950 . S
H940 C950 0.950 . S
H941 C952 0.950 . S
H942 C954 0.950 . S
H943 C955 0.950 . S
C944 H936 0.950 . S
C944 C945 1.386 . S
C944 C946 1.391 . S
C945 C944 1.386 . S
C945 C949 1.393 . S
C946 H938 0.950 . S
C946 C944 1.391 . S
C946 C947 1.400 . S
C947 C946 1.400 . S
C947 C948 1.398 . S
C947 C953 1.491 . S
C948 H939 0.950 . S
C948 C947 1.398 . S
C948 C949 1.391 . S
C949 H937 0.950 . S
C949 C945 1.393 . S
C949 C948 1.391 . S
C950 H940 0.950 . S
C950 C951 1.386 . S
C950 C952 1.391 . S
C951 C950 1.386 . S
C951 C955 1.393 . S
C952 H941 0.950 . S
C952 C950 1.391 . S
C952 C953 1.400 . S
C953 C947 1.491 . S
C953 C952 1.400 . S
C953 C954 1.398 . S
C954 H942 0.950 . S
C954 C953 1.398 . S
C954 C955 1.391 . S
C955 H943 0.950 . S
C955 C951 1.393 . S
C955 C954 1.391 . S
H956 C964 0.950 . S
H957 C969 0.950 . S
H958 C966 0.950 . S
H959 C968 0.950 . S
H960 C970 0.950 . S
H961 C972 0.950 . S
H962 C974 0.950 . S
H963 C975 0.950 . S
C964 H956 0.950 . S
C964 C965 1.386 . S
C964 C966 1.391 . S
C965 C964 1.386 . S
C965 C969 1.393 . S
C966 H958 0.950 . S
C966 C964 1.391 . S
C966 C967 1.400 . S
C967 C966 1.400 . S
C967 C968 1.398 . S
C967 C973 1.491 . S
C968 H959 0.950 . S
C968 C967 1.398 . S
C968 C969 1.391 . S
C969 H957 0.950 . S
C969 C965 1.393 . S
C969 C968 1.391 . S
C970 H960 0.950 . S
C970 C971 1.386 . S
C970 C972 1.391 . S
C971 C970 1.386 . S
C971 C975 1.393 . S
C972 H961 0.950 . S
C972 C970 1.391 . S
C972 C973 1.400 . S
C973 C967 1.491 . S
C973 C972 1.400 . S
C973 C974 1.398 . S
C974 H962 0.950 . S
C974 C973 1.398 . S
C974 C975 1.391 . S
C975 H963 0.950 . S
C975 C971 1.393 . S
C975 C974 1.391 . S
H976 C984 0.950 . S
H977 C989 0.950 . S
H978 C986 0.950 . S
H979 C988 0.950 . S
H980 C990 0.950 . S
H981 C992 0.950 . S
H982 C994 0.950 . S
H983 C995 0.950 . S
C984 H976 0.950 . S
C984 C985 1.386 . S
C984 C986 1.391 . S
C985 C984 1.386 . S
C985 C989 1.393 . S
C986 H978 0.950 . S
C986 C984 1.391 . S
C986 C987 1.400 . S
C987 C986 1.400 . S
C987 C988 1.398 . S
C987 C993 1.491 . S
C988 H979 0.950 . S
C988 C987 1.398 . S
C988 C989 1.391 . S
C989 H977 0.950 . S
C989 C985 1.393 . S
C989 C988 1.391 . S
C990 H980 0.950 . S
C990 C991 1.386 . S
C990 C992 1.391 . S
C991 C990 1.386 . S
C991 C995 1.393 . S
C992 H981 0.950 . S
C992 C990 1.391 . S
C992 C993 1.400 . S
C993 C987 1.491 . S
C993 C992 1.400 . S
C993 C994 1.398 . S
C994 H982 0.950 . S
C994 C993 1.398 . S
C994 C995 1.391 . S
C995 H983 0.950 . S
C995 C991 1.393 . S
C995 C994 1.391 . S
H996 C1004 0.950 . S
H997 C1009 0.950 . S
H998 C1006 0.950 . S
H999 C1008 0.950 . S
H1000 C1010 0.950 . S
H1001 C1012 0.950 . S
H1002 C1014 0.950 . S
H1003 C1015 0.950 . S
C1004 H996 0.950 . S
C1004 C1005 1.386 . S
C1004 C1006 1.391 . S
C1005 C1004 1.386 . S
C1005 C1009 1.393 . S
C1006 H998 0.950 . S
C1006 C1004 1.391 . S
C1006 C1007 1.400 . S
C1007 C1006 1.400 . S
C1007 C1008 1.398 . S
C1007 C1013 1.491 . S
C1008 H999 0.950 . S
C1008 C1007 1.398 . S
C1008 C1009 1.391 . S
C1009 H997 0.950 . S
C1009 C1005 1.393 . S
C1009 C1008 1.391 . S
C1010 H1000 0.950 . S
C1010 C1011 1.386 . S
C1010 C1012 1.391 . S
C1011 C1010 1.386 . S
C1011 C1015 1.393 . S
C1012 H1001 0.950 . S
C1012 C1010 1.391 . S
C1012 C1013 1.400 . S
C1013 C1007 1.491 . S
C1013 C1012 1.400 . S
C1013 C1014 1.398 . S
C1014 H1002 0.950 . S
C1014 C1013 1.398 . S
C1014 C1015 1.391 . S
C1015 H1003 0.950 . S
C1015 C1011 1.393 . S
C1015 C1014 1.391 . S
H1016 C1024 0.950 . S
H1017 C1029 0.950 . S
H1018 C1026 0.950 . S
H1019 C1028 0.950 . S
H1020 C1030 0.950 . S
H1021 C1032 0.950 . S
H1022 C1034 0.950 . S
H1023 C1035 0.950 . S
C1024 H1016 0.950 . S
C1024 C1025 1.386 . S
C1024 C1026 1.391 . S
C1025 C1024 1.386 . S
C1025 C1029 1.393 . S
C1026 H1018 0.950 . S
C1026 C1024 1.391 . S
C1026 C1027 1.400 . S
C1027 C1026 1.400 . S
C1027 C1028 1.398 . S
C1027 C1033 1.491 . S
C1028 H1019 0.950 . S
C1028 C1027 1.398 . S
C1028 C1029 1.391 . S
C1029 H1017 0.950 . S
C1029 C1025 1.393 . S
C1029 C1028 1.391 . S
C1030 H1020 0.950 . S
C1030 C1031 1.386 . S
C1030 C1032 1.391 . S
C1031 C1030 1.386 . S
C1031 C1035 1.393 . S
C1032 H1021 0.950 . S
C1032 C1030 1.391 . S
C1032 C1033 1.400 . S
C1033 C1027 1.491 . S
C1033 C1032 1.400 . S
C1033 C1034 1.398 . S
C1034 H1022 0.950 . S
C1034 C1033 1.398 . S
C1034 C1035 1.391 . S
C1035 H1023 0.950 . S
C1035 C1031 1.393 . S
C1035 C1034 1.391 . S
H1036 C1044 0.950 . S
H1037 C1049 0.950 . S
H1038 C1046 0.950 . S
H1039 C1048 0.950 . S
H1040 C1050 0.950 . S
H1041 C1052 0.950 . S
H1042 C1054 0.950 . S
H1043 C1055 0.950 . S
C1044 H1036 0.950 . S
C1044 C1045 1.386 . S
C1044 C1046 1.391 . S
C1045 C1044 1.386 . S
C1045 C1049 1.393 . S
C1046 H1038 0.950 . S
C1046 C1044 1.391 . S
C1046 C1047 1.400 . S
C1047 C1046 1.400 . S
C1047 C1048 1.398 . S
C1047 C1053 1.491 . S
C1048 H1039 0.950 . S
C1048 C1047 1.398 . S
C1048 C1049 1.391 . S
C1049 H1037 0.950 . S
C1049 C1045 1.393 . S
C1049 C1048 1.391 . S
C1050 H1040 0.950 . S
C1050 C1051 1.386 . S
C1050 C1052 1.391 . S
C1051 C1050 1.386 . S
C1051 C1055 1.393 . S
C1052 H1041 0.950 . S
C1052 C1050 1.391 . S
C1052 C1053 1.400 . S
C1053 C1047 1.491 . S
C1053 C1052 1.400 . S
C1053 C1054 1.398 . S
C1054 H1042 0.950 . S
C1054 C1053 1.398 . S
C1054 C1055 1.391 . S
C1055 H1043 0.950 . S
C1055 C1051 1.393 . S
C1055 C1054 1.391 . S
H1056 C1064 0.950 . S
H1057 C1069 0.950 . S
H1058 C1066 0.950 . S
H1059 C1068 0.950 . S
H1060 C1070 0.950 . S
H1061 C1072 0.950 . S
H1062 C1074 0.950 . S
H1063 C1075 0.950 . S
C1064 H1056 0.950 . S
C1064 C1065 1.386 . S
C1064 C1066 1.391 . S
C1065 C1064 1.386 . S
C1065 C1069 1.393 . S
C1066 H1058 0.950 . S
C1066 C1064 1.391 . S
C1066 C1067 1.400 . S
C1067 C1066 1.400 . S
C1067 C1068 1.398 . S
C1067 C1073 1.491 1_554 S
C1068 H1059 0.950 . S
C1068 C1067 1.398 . S
C1068 C1069 1.391 . S
C1069 H1057 0.950 . S
C1069 C1065 1.393 . S
C1069 C1068 1.391 . S
C1070 H1060 0.950 . S
C1070 C1071 1.386 . S
C1070 C1072 1.391 . S
C1071 C1070 1.386 . S
C1071 C1075 1.393 . S
C1072 H1061 0.950 . S
C1072 C1070 1.391 . S
C1072 C1073 1.400 . S
C1073 C1067 1.491 1_556 S
C1073 C1072 1.400 . S
C1073 C1074 1.398 . S
C1074 H1062 0.950 . S
C1074 C1073 1.398 . S
C1074 C1075 1.391 . S
C1075 H1063 0.950 . S
C1075 C1071 1.393 . S
C1075 C1074 1.391 . S
H1076 C1084 0.950 . S
H1077 C1089 0.950 . S
H1078 C1086 0.950 . S
H1079 C1088 0.950 . S
H1080 C1090 0.950 . S
H1081 C1092 0.950 . S
H1082 C1094 0.950 . S
H1083 C1095 0.950 . S
C1084 H1076 0.950 . S
C1084 C1085 1.386 . S
C1084 C1086 1.391 . S
C1085 C1084 1.386 . S
C1085 C1089 1.393 . S
C1086 H1078 0.950 . S
C1086 C1084 1.391 . S
C1086 C1087 1.400 . S
C1087 C1086 1.400 . S
C1087 C1088 1.398 . S
C1087 C1093 1.491 . S
C1088 H1079 0.950 . S
C1088 C1087 1.398 . S
C1088 C1089 1.391 . S
C1089 H1077 0.950 . S
C1089 C1085 1.393 . S
C1089 C1088 1.391 . S
C1090 H1080 0.950 . S
C1090 C1091 1.386 . S
C1090 C1092 1.391 . S
C1091 C1090 1.386 . S
C1091 C1095 1.393 . S
C1092 H1081 0.950 . S
C1092 C1090 1.391 . S
C1092 C1093 1.400 . S
C1093 C1087 1.491 . S
C1093 C1092 1.400 . S
C1093 C1094 1.398 . S
C1094 H1082 0.950 . S
C1094 C1093 1.398 . S
C1094 C1095 1.391 . S
C1095 H1083 0.950 . S
C1095 C1091 1.393 . S
C1095 C1094 1.391 . S
H1096 C1104 0.950 . S
H1097 C1109 0.950 . S
H1098 C1106 0.950 . S
H1099 C1108 0.950 . S
H1100 C1110 0.950 . S
H1101 C1112 0.950 . S
H1102 C1114 0.950 . S
H1103 C1115 0.950 . S
C1104 H1096 0.950 . S
C1104 C1105 1.386 1_455 S
C1104 C1106 1.391 . S
C1105 C1104 1.386 1_655 S
C1105 C1109 1.393 . S
C1106 H1098 0.950 . S
C1106 C1104 1.391 . S
C1106 C1107 1.400 1_455 S
C1107 C1106 1.400 1_655 S
C1107 C1108 1.398 . S
C1107 C1113 1.491 1_554 S
C1108 H1099 0.950 . S
C1108 C1107 1.398 . S
C1108 C1109 1.391 . S
C1109 H1097 0.950 . S
C1109 C1105 1.393 . S
C1109 C1108 1.391 . S
C1110 H1100 0.950 . S
C1110 C1111 1.386 . S
C1110 C1112 1.391 . S
C1111 C1110 1.386 . S
C1111 C1115 1.393 1_655 S
C1112 H1101 0.950 . S
C1112 C1110 1.391 . S
C1112 C1113 1.400 . S
C1113 C1107 1.491 1_556 S
C1113 C1112 1.400 . S
C1113 C1114 1.398 1_655 S
C1114 H1102 0.950 . S
C1114 C1113 1.398 1_455 S
C1114 C1115 1.391 . S
C1115 H1103 0.950 . S
C1115 C1111 1.393 1_455 S
C1115 C1114 1.391 . S
H1116 C1124 0.950 . S
H1117 C1129 0.950 . S
H1118 C1126 0.950 . S
H1119 C1128 0.950 . S
H1120 C1130 0.950 . S
H1121 C1132 0.950 . S
H1122 C1134 0.950 . S
H1123 C1135 0.950 . S
C1124 H1116 0.950 . S
C1124 C1125 1.386 . S
C1124 C1126 1.391 . S
C1125 C1124 1.386 . S
C1125 C1129 1.393 1_565 S
C1126 H1118 0.950 . S
C1126 C1124 1.391 . S
C1126 C1127 1.400 . S
C1127 C1126 1.400 . S
C1127 C1128 1.398 1_565 S
C1127 C1133 1.491 . S
C1128 H1119 0.950 . S
C1128 C1127 1.398 1_545 S
C1128 C1129 1.391 . S
C1129 H1117 0.950 . S
C1129 C1125 1.393 1_545 S
C1129 C1128 1.391 . S
C1130 H1120 0.950 . S
C1130 C1131 1.386 1_545 S
C1130 C1132 1.391 . S
C1131 C1130 1.386 1_565 S
C1131 C1135 1.393 . S
C1132 H1121 0.950 . S
C1132 C1130 1.391 . S
C1132 C1133 1.400 1_545 S
C1133 C1127 1.491 . S
C1133 C1132 1.400 1_565 S
C1133 C1134 1.398 . S
C1134 H1122 0.950 . S
C1134 C1133 1.398 . S
C1134 C1135 1.391 . S
C1135 H1123 0.950 . S
C1135 C1131 1.393 . S
C1135 C1134 1.391 . S
H1136 C1144 0.950 . S
H1137 C1149 0.950 . S
H1138 C1146 0.950 . S
H1139 C1148 0.950 . S
H1140 C1150 0.950 . S
H1141 C1152 0.950 . S
H1142 C1154 0.950 . S
H1143 C1155 0.950 . S
C1144 H1136 0.950 . S
C1144 C1145 1.386 . S
C1144 C1146 1.391 . S
C1145 C1144 1.386 . S
C1145 C1149 1.393 . S
C1146 H1138 0.950 . S
C1146 C1144 1.391 . S
C1146 C1147 1.400 . S
C1147 C1146 1.400 . S
C1147 C1148 1.398 . S
C1147 C1153 1.491 1_556 S
C1148 H1139 0.950 . S
C1148 C1147 1.398 . S
C1148 C1149 1.391 . S
C1149 H1137 0.950 . S
C1149 C1145 1.393 . S
C1149 C1148 1.391 . S
C1150 H1140 0.950 . S
C1150 C1151 1.386 . S
C1150 C1152 1.391 . S
C1151 C1150 1.386 . S
C1151 C1155 1.393 . S
C1152 H1141 0.950 . S
C1152 C1150 1.391 . S
C1152 C1153 1.400 . S
C1153 C1147 1.491 1_554 S
C1153 C1152 1.400 . S
C1153 C1154 1.398 . S
C1154 H1142 0.950 . S
C1154 C1153 1.398 . S
C1154 C1155 1.391 . S
C1155 H1143 0.950 . S
C1155 C1151 1.393 . S
C1155 C1154 1.391 . S
H1156 C1164 0.950 . S
H1157 C1169 0.950 . S
H1158 C1166 0.950 . S
H1159 C1168 0.950 . S
H1160 C1170 0.950 . S
H1161 C1172 0.950 . S
H1162 C1174 0.950 . S
H1163 C1175 0.950 . S
C1164 H1156 0.950 . S
C1164 C1165 1.386 . S
C1164 C1166 1.391 . S
C1165 C1164 1.386 . S
C1165 C1169 1.393 . S
C1166 H1158 0.950 . S
C1166 C1164 1.391 . S
C1166 C1167 1.400 . S
C1167 C1166 1.400 . S
C1167 C1168 1.398 . S
C1167 C1173 1.491 . S
C1168 H1159 0.950 . S
C1168 C1167 1.398 . S
C1168 C1169 1.391 . S
C1169 H1157 0.950 . S
C1169 C1165 1.393 . S
C1169 C1168 1.391 . S
C1170 H1160 0.950 . S
C1170 C1171 1.386 . S
C1170 C1172 1.391 . S
C1171 C1170 1.386 . S
C1171 C1175 1.393 . S
C1172 H1161 0.950 . S
C1172 C1170 1.391 . S
C1172 C1173 1.400 . S
C1173 C1167 1.491 . S
C1173 C1172 1.400 . S
C1173 C1174 1.398 . S
C1174 H1162 0.950 . S
C1174 C1173 1.398 . S
C1174 C1175 1.391 . S
C1175 H1163 0.950 . S
C1175 C1171 1.393 . S
C1175 C1174 1.391 . S
H1176 C1184 0.950 . S
H1177 C1189 0.950 . S
H1178 C1186 0.950 . S
H1179 C1188 0.950 . S
H1180 C1190 0.950 . S
H1181 C1192 0.950 . S
H1182 C1194 0.950 . S
H1183 C1195 0.950 . S
C1184 H1176 0.950 . S
C1184 C1185 1.386 1_655 S
C1184 C1186 1.391 . S
C1185 C1184 1.386 1_455 S
C1185 C1189 1.393 . S
C1186 H1178 0.950 . S
C1186 C1184 1.391 . S
C1186 C1187 1.400 1_655 S
C1187 C1186 1.400 1_455 S
C1187 C1188 1.398 . S
C1187 C1193 1.491 1_554 S
C1188 H1179 0.950 . S
C1188 C1187 1.398 . S
C1188 C1189 1.391 . S
C1189 H1177 0.950 . S
C1189 C1185 1.393 . S
C1189 C1188 1.391 . S
C1190 H1180 0.950 . S
C1190 C1191 1.386 . S
C1190 C1192 1.391 . S
C1191 C1190 1.386 . S
C1191 C1195 1.393 1_455 S
C1192 H1181 0.950 . S
C1192 C1190 1.391 . S
C1192 C1193 1.400 . S
C1193 C1187 1.491 1_556 S
C1193 C1192 1.400 . S
C1193 C1194 1.398 1_455 S
C1194 H1182 0.950 . S
C1194 C1193 1.398 1_655 S
C1194 C1195 1.391 . S
C1195 H1183 0.950 . S
C1195 C1191 1.393 1_655 S
C1195 C1194 1.391 . S
H1196 C1204 0.950 . S
H1197 C1209 0.950 . S
H1198 C1206 0.950 . S
H1199 C1208 0.950 . S
H1200 C1210 0.950 . S
H1201 C1212 0.950 . S
H1202 C1214 0.950 . S
H1203 C1215 0.950 . S
C1204 H1196 0.950 . S
C1204 C1205 1.386 1_565 S
C1204 C1206 1.391 . S
C1205 C1204 1.386 1_545 S
C1205 C1209 1.393 . S
C1206 H1198 0.950 . S
C1206 C1204 1.391 . S
C1206 C1207 1.400 1_565 S
C1207 C1206 1.400 1_545 S
C1207 C1208 1.398 . S
C1207 C1213 1.491 . S
C1208 H1199 0.950 . S
C1208 C1207 1.398 . S
C1208 C1209 1.391 . S
C1209 H1197 0.950 . S
C1209 C1205 1.393 . S
C1209 C1208 1.391 . S
C1210 H1200 0.950 . S
C1210 C1211 1.386 . S
C1210 C1212 1.391 . S
C1211 C1210 1.386 . S
C1211 C1215 1.393 1_545 S
C1212 H1201 0.950 . S
C1212 C1210 1.391 . S
C1212 C1213 1.400 . S
C1213 C1207 1.491 . S
C1213 C1212 1.400 . S
C1213 C1214 1.398 1_545 S
C1214 H1202 0.950 . S
C1214 C1213 1.398 1_565 S
C1214 C1215 1.391 . S
C1215 H1203 0.950 . S
C1215 C1211 1.393 1_565 S
C1215 C1214 1.391 . S
C585 C3 1.287 . S
C591 C255 1.284 . S
C605 C39 1.281 . S
C611 C147 1.289 . S
C625 C75 1.283 . S
C631 C183 1.287 . S
C645 C111 1.284 . S
C651 C219 1.287 . S
C665 C291 1.287 . S
C671 C543 1.283 . S
C685 C435 1.288 . S
C691 C327 1.283 . S
C705 C363 1.285 . S
C711 C471 1.285 . S
C725 C399 1.281 . S
C731 C507 1.289 . S
C745 C4 1.408 . S
C751 C326 1.439 . S
C765 C40 1.388 . S
C771 C362 1.439 . S
C785 C398 1.444 . S
C791 C76 1.403 . S
C805 C112 1.391 . S
C811 C290 1.439 . S
C825 C148 1.391 . S
C831 C542 1.439 . S
C845 C434 1.446 . S
C851 C184 1.387 . S
C865 C470 1.444 . S
C871 C220 1.382 . S
C885 C506 1.442 . S
C891 C256 1.383 . S
C905 C38 1.444 . S
C911 C292 1.403 . S
C925 C74 1.438 . S
C931 C328 1.394 . S
C945 C364 1.407 . S
C951 C110 1.442 . S
C965 C2 1.441 . S
C971 C400 1.384 . S
C985 C436 1.383 . S
C991 C254 1.445 . S
C1005 C472 1.398 . S
C1011 C146 1.438 . S
C1025 C182 1.438 . S
C1031 C508 1.406 . S
C1045 C218 1.444 . S
C1051 C544 1.403 . S
C1065 C14 1.483 . S
C1071 C158 1.511 . S
C1085 C194 1.488 . S
C1091 C50 1.513 . S
C1105 C86 1.498 . S
C1111 C230 1.491 . S
C1125 C266 1.512 . S
C1131 C122 1.491 . S
C1145 C302 1.502 . S
C1151 C446 1.503 . S
C1165 C482 1.510 . S
C1171 C338 1.494 . S
C1185 C518 1.513 . S
C1191 C374 1.488 . S
C1205 C554 1.491 . S
C1211 C410 1.511 . S
