# Generated by pormake.
# Topology kag, (6)-cn, num edge types: 1
# Building blocks:
#     Node 0, Type 0, BuildingBlock: BETFAJ_clean_sbu_0, # of connection points: 6
#     Node 1, Type 0, BuildingBlock: BETFAJ_clean_sbu_0, # of connection points: 6
#     Node 2, Type 0, BuildingBlock: BETFAJ_clean_sbu_0, # of connection points: 6
#     Edge 3, Type (0, 0), BuildingBlock: XIVTED_clean_linker_0, # of connection points: 2
#     Edge 4, Type (0, 0), BuildingBlock: XIVTED_clean_linker_0, # of connection points: 2
#     Edge 5, Type (0, 0), BuildingBlock: XIVTED_clean_linker_0, # of connection points: 2
#     Edge 6, Type (0, 0), BuildingBlock: XIVTED_clean_linker_0, # of connection points: 2
#     Edge 7, Type (0, 0), BuildingBlock: XIVTED_clean_linker_0, # of connection points: 2
#     Edge 8, Type (0, 0), BuildingBlock: XIVTED_clean_linker_0, # of connection points: 2
#     Edge 9, Type (0, 0), BuildingBlock: XIVTED_clean_linker_0, # of connection points: 2
#     Edge 10, Type (0, 0), BuildingBlock: XIVTED_clean_linker_0, # of connection points: 2
#     Edge 11, Type (0, 0), BuildingBlock: XIVTED_clean_linker_0, # of connection points: 2
# Relax obj value: 0.076
# Max RMSD: 0.198
# Mean RMSD: 0.103
data_MOF--net-kag--node1-BETFAJ_clean_sbu_0--edge1-XIVTED_clean_linker_0
_symmetry_space_group_name_H-M    P1
_symmetry_Int_Tables_number       1
_symmetry_cell_setting            triclinic
loop_
_symmetry_equiv_pos_as_xyz
'x, y, z'
_cell_length_a     31.620124
_cell_length_b     42.519439
_cell_length_c     14.708645
_cell_angle_alpha  94.759476
_cell_angle_beta   91.966941
_cell_angle_gamma 96.399181
loop_
_atom_site_label
_atom_site_type_symbol
_atom_site_fract_x
_atom_site_fract_y
_atom_site_fract_z
_atom_type_partial_charge
Sm0 Sm 1.0519 0.47104 0.01856 0.0
Sm1 Sm 0.06259 0.54904 0.99301 0.0
C2 C 1.03724 0.41558 0.08746 0.0
C3 C 1.00882 0.38537 0.0707 0.0
C4 C 0.98048 0.37621 0.13761 0.0
C5 C 0.95349 0.34772 0.12425 0.0
C6 C 0.95441 0.32747 0.0438 0.0
C7 C 0.98285 0.33671 0.9767 0.0
C8 C 1.00972 0.36536 0.98991 0.0
C9 C 1.04928 0.48414 0.83517 0.0
C10 C 0.96665 0.50888 0.99165 0.0
C11 C 0.07645 0.60434 0.92294 0.0
C12 C 0.10414 0.63472 0.93937 0.0
C13 C 0.12142 0.64921 0.86467 0.0
C14 C 0.1479 0.67795 0.87784 0.0
C15 C 0.15758 0.69295 0.96623 0.0
C16 C 0.14038 0.67819 0.04118 0.0
C17 C 0.11399 0.64932 0.02791 0.0
C18 C 0.06532 0.53601 0.17642 0.0
C19 C 0.14783 0.5112 0.02005 0.0
O20 O 1.01919 0.44067 0.1163 0.0
O21 O 0.06702 0.42171 0.02921 0.0
O22 O 1.05214 0.50307 0.90612 0.0
O23 O 1.04691 0.45548 0.86111 0.0
O24 O 0.98303 0.48383 0.02016 0.0
O25 O 0.99026 0.53447 0.96761 0.0
O26 O 0.09528 0.57951 0.89531 0.0
O27 O 1.04691 0.59815 0.98165 0.0
O28 O 0.0621 0.51702 0.10557 0.0
O29 O 0.06792 0.56468 0.15037 0.0
O30 O 0.13144 0.53621 0.99125 0.0
O31 O 0.12423 0.48563 0.04428 0.0
H32 H 0.97915 0.39119 0.20052 0.0
H33 H 0.93158 0.34174 0.17682 0.0
H34 H 0.98489 0.32158 0.91443 0.0
H35 H 1.03127 0.37169 0.937 0.0
H36 H 0.11451 0.6382 0.79587 0.0
H37 H 0.16116 0.68824 0.81864 0.0
H38 H 0.14677 0.68917 0.11009 0.0
H39 H 0.10122 0.63848 0.08677 0.0
Sm40 Sm 0.60255 0.01388 0.99018 0.0
Sm41 Sm 0.50922 1.00649 0.02075 0.0
C42 C 0.67975 0.03261 0.93613 0.0
C43 C 0.7079 0.06278 0.94769 0.0
C44 C 0.74209 0.06805 0.89061 0.0
C45 C 0.76856 0.09691 0.90051 0.0
C46 C 0.76131 0.12096 0.96798 0.0
C47 C 0.72677 0.11557 0.02471 0.0
C48 C 0.70023 0.0868 0.01442 0.0
C49 C 0.58343 1.00958 0.17033 0.0
C50 C 0.55226 0.07828 0.02334 0.0
C51 C 0.43127 0.98851 0.07224 0.0
C52 C 0.4029 0.95834 0.06907 0.0
C53 C 0.41798 0.93035 0.09467 0.0
C54 C 0.39122 0.90166 0.087 0.0
C55 C 0.34873 0.90034 0.05372 0.0
C56 C 0.33361 0.92856 0.02943 0.0
C57 C 0.36045 0.95722 0.03698 0.0
C58 C 0.52899 0.01127 0.84097 0.0
C59 C 0.55966 0.94223 0.98914 0.0
O60 O 0.64509 0.03268 0.88512 0.0
O61 O 0.67294 0.01807 0.01009 0.0
O62 O 0.56517 0.02562 0.11556 0.0
O63 O 0.61396 0.99622 0.1318 0.0
O64 O 0.58461 0.06531 0.98721 0.0
O65 O 0.52006 0.0605 0.0548 0.0
O66 O 0.46511 0.9915 0.12741 0.0
O67 O 0.43896 0.99971 0.99365 0.0
O68 O 0.54662 0.99477 0.8954 0.0
O69 O 0.49899 0.02517 0.87992 0.0
O70 O 0.52781 0.95534 0.02718 0.0
O71 O 0.59119 0.95991 0.95495 0.0
H72 H 0.74833 0.04983 0.83843 0.0
H73 H 0.79507 0.10023 0.85624 0.0
H74 H 0.71993 0.13375 0.07638 0.0
H75 H 0.67363 0.0833 0.05847 0.0
H76 H 0.45059 0.93056 0.11976 0.0
H77 H 0.40413 0.88039 0.10535 0.0
H78 H 0.30093 0.92856 1.00489 0.0
H79 H 0.3481 0.97853 0.01704 0.0
Sm80 Sm 0.56548 0.54586 0.99516 0.0
Sm81 Sm 0.54909 0.47468 0.01659 0.0
C82 C 0.57327 0.60435 0.94166 0.0
C83 C 0.56275 0.6375 0.94765 0.0
C84 C 0.5618 0.65315 0.86746 0.0
C85 C 0.55883 0.68583 0.87127 0.0
C86 C 0.55666 0.70369 0.95557 0.0
C87 C 0.55573 0.68767 0.03576 0.0
C88 C 0.55896 0.65491 0.0319 0.0
C89 C 0.5681 0.53055 0.17443 0.0
C90 C 0.46697 0.51372 0.01525 0.0
C91 C 0.54134 0.41609 0.06942 0.0
C92 C 0.55229 0.38307 0.06324 0.0
C93 C 0.55157 0.3669 0.1426 0.0
C94 C 0.55504 0.33429 0.13795 0.0
C95 C 0.55944 0.31703 0.05364 0.0
C96 C 0.56206 0.33357 0.97449 0.0
C97 C 0.5583 0.36627 0.97916 0.0
C98 C 0.54636 0.49022 0.83741 0.0
C99 C 0.64759 0.50677 0.99679 0.0
O100 O 0.5459 0.58144 0.90236 0.0
O101 O 0.59592 0.59554 0.00907 0.0
O102 O 0.54185 0.51775 0.11229 0.0
O103 O 0.59208 0.55392 0.1448 0.0
O104 O 0.49152 0.53674 0.98098 0.0
O105 O 0.48349 0.48978 0.04914 0.0
O106 O 0.56833 0.43907 0.1096 0.0
O107 O 0.51901 0.42488 1.00148 0.0
O108 O 0.57275 0.50276 0.89957 0.0
O109 O 0.52222 0.46691 0.86699 0.0
O110 O 0.62302 0.48375 0.03096 0.0
O111 O 0.63111 0.53072 0.96287 0.0
H112 H 0.56494 0.64028 0.80175 0.0
H113 H 0.5589 0.69721 0.80807 0.0
H114 H 0.55431 0.70067 0.10188 0.0
H115 H 0.55992 0.64345 0.0949 0.0
H116 H 0.54673 0.37931 0.20813 0.0
H117 H 0.55361 0.32248 0.20042 0.0
H118 H 0.56522 0.32102 0.90839 0.0
H119 H 0.55866 0.37816 0.91679 0.0
H120 H 1.05318 0.44322 0.68393 0.0
H121 H 0.06202 0.57704 0.32773 0.0
H122 H 1.04982 0.54261 0.76471 0.0
H123 H 0.06457 0.47757 0.24695 0.0
H124 H 0.05803 0.56501 0.48725 0.0
H125 H 0.05727 0.45529 0.52449 0.0
C126 C 1.05338 0.46767 0.66818 0.0
C127 C 1.05151 0.49199 0.73828 0.0
C128 C 0.05936 0.54573 0.43487 0.0
C129 C 0.05616 0.50607 0.5545 0.0
C130 C 0.06168 0.55258 0.3435 0.0
C131 C 0.06329 0.52823 0.27339 0.0
C132 C 0.05874 0.51419 0.45721 0.0
C133 C 0.06285 0.49703 0.29836 0.0
C134 C 0.05575 0.47454 0.57684 0.0
C135 C 1.05176 0.52318 0.71331 0.0
N136 N 0.06061 0.49092 0.38797 0.0
N137 N 1.05406 0.52931 0.62372 0.0
H138 H 0.6233 0.97859 0.29756 0.0
H139 H 0.48971 0.04278 0.7141 0.0
H140 H 0.52506 0.04011 0.26743 0.0
H141 H 0.58697 0.98041 0.74367 0.0
H142 H 0.50251 0.0424 0.55093 0.0
H143 H 0.61057 0.97903 0.46076 0.0
C144 C 0.59901 0.9922 0.32536 0.0
C145 C 0.57528 1.00941 0.2689 0.0
C146 C 0.52109 0.02878 0.59293 0.0
C147 C 0.56049 0.01004 0.45604 0.0
C148 C 0.51382 0.029 0.68618 0.0
C149 C 0.53724 0.01152 0.74247 0.0
C150 C 0.55211 0.01096 0.55537 0.0
C151 C 0.56813 0.99417 0.70267 0.0
C152 C 0.59176 0.99244 0.41863 0.0
C153 C 0.54414 0.02655 0.30856 0.0
N154 N 0.57464 0.9943 0.61161 0.0
N155 N 0.53768 0.02646 0.39964 0.0
H156 H 0.49717 0.46022 0.69253 0.0
H157 H 0.61709 0.56079 0.31936 0.0
H158 H 0.60071 0.53432 0.76025 0.0
H159 H 0.51396 0.48636 0.25169 0.0
H160 H 0.61174 0.55141 0.48081 0.0
H161 H 0.50251 0.46965 0.53115 0.0
C162 C 0.52101 0.47853 0.67339 0.0
C163 C 0.54863 0.49644 0.73988 0.0
C164 C 0.59027 0.53709 0.43078 0.0
C165 C 0.55502 0.50738 0.55492 0.0
C166 C 0.59334 0.54242 0.33852 0.0
C167 C 0.56584 0.52439 0.27202 0.0
C168 C 0.55944 0.51351 0.45703 0.0
C169 C 0.53573 0.50087 0.30074 0.0
C170 C 0.52408 0.48388 0.58116 0.0
C171 C 0.57885 0.5199 0.71119 0.0
N172 N 0.5333 0.49615 0.39099 0.0
N173 N 0.58127 0.52465 0.62096 0.0
H174 H 0.19621 0.46617 0.0785 0.0
H175 H 0.41942 0.55953 0.95791 0.0
H176 H 0.20754 0.55787 0.96975 0.0
H177 H 0.40754 0.47017 0.0796 0.0
H178 H 0.342 0.55962 0.96185 0.0
H179 H 0.27369 0.46747 0.07977 0.0
C180 C 0.21488 0.48663 0.05507 0.0
C181 C 0.19505 0.51192 0.02387 0.0
C182 C 0.3564 0.54003 0.98786 0.0
C183 C 0.28416 0.51351 0.02489 0.0
C184 C 0.40064 0.53997 0.98562 0.0
C185 C 0.4202 0.51481 0.0184 0.0
C186 C 0.33142 0.5147 0.02291 0.0
C187 C 0.39406 0.49011 0.0535 0.0
C188 C 0.25923 0.48735 0.05581 0.0
C189 C 0.2212 0.53778 0.99443 0.0
N190 N 0.35118 0.49066 0.05463 0.0
N191 N 0.26426 0.53785 0.99546 0.0
H192 H 0.79379 0.15407 0.12758 0.0
H193 H 0.91267 0.29892 0.88557 0.0
H194 H 0.79378 0.15736 0.83518 0.0
H195 H 0.93113 0.28587 0.17167 0.0
H196 H 0.86619 0.24867 0.86616 0.0
H197 H 0.84046 0.20422 0.14572 0.0
C198 C 0.80344 0.16542 0.06715 0.0
C199 C 0.78981 0.15146 0.9797 0.0
C200 C 0.88047 0.25682 0.93315 0.0
C201 C 0.84353 0.20892 0.99996 0.0
C202 C 0.90725 0.28546 0.94426 0.0
C203 C 0.92599 0.29683 0.0305 0.0
C204 C 0.87209 0.23936 0.00882 0.0
C205 C 0.91697 0.27847 0.1042 0.0
C206 C 0.83032 0.19398 0.07754 0.0
C207 C 0.80385 0.16708 0.90384 0.0
N208 N 0.89068 0.25076 0.09168 0.0
N209 N 0.8298 0.195 0.91572 0.0
H210 H 0.50536 0.89937 0.07071 0.0
H211 H 0.60521 0.7458 0.859 0.0
H212 H 0.61305 0.90461 0.89805 0.0
H213 H 0.50991 0.74229 0.06205 0.0
H214 H 0.60616 0.80353 0.86644 0.0
H215 H 0.5044 0.84178 0.06264 0.0
C216 C 0.5288 0.88848 0.03082 0.0
C217 C 0.55927 0.90707 0.98478 0.0
C218 C 0.58502 0.79017 0.90939 0.0
C219 C 0.55839 0.84066 0.97542 0.0
C220 C 0.58421 0.75711 0.90474 0.0
C221 C 0.55725 0.73899 0.95968 0.0
C222 C 0.55851 0.80544 0.96908 0.0
C223 C 0.53142 0.7552 0.01888 0.0
C224 C 0.5283 0.85548 0.02654 0.0
C225 C 0.58898 0.89137 0.93478 0.0
N226 N 0.53258 0.78741 0.02173 0.0
N227 N 0.58772 0.85913 0.93124 0.0
H228 H 0.91837 0.554 0.93348 0.0
H229 H 0.69502 0.46089 0.05404 0.0
H230 H 0.90687 0.46225 0.04197 0.0
H231 H 0.70712 0.55031 0.93268 0.0
H232 H 0.77242 0.4607 0.0501 0.0
H233 H 0.84092 0.55281 0.9324 0.0
C234 C 0.89967 0.53355 0.95688 0.0
C235 C 0.91944 0.50821 0.98794 0.0
C236 C 0.75808 0.48032 0.02416 0.0
C237 C 0.83036 0.50676 0.98714 0.0
C238 C 0.71384 0.48044 0.02641 0.0
C239 C 0.69436 0.50565 0.9937 0.0
C240 C 0.78311 0.50563 0.98919 0.0
C241 C 0.72054 0.53034 0.9587 0.0
C242 C 0.85533 0.5329 0.95625 0.0
C243 C 0.89325 0.48238 0.01737 0.0
N244 N 0.76342 0.52972 0.95757 0.0
N245 N 0.85019 0.48236 0.01645 0.0
H246 H 0.15947 0.74345 0.86092 0.0
H247 H 0.343 0.85215 0.16821 0.0
H248 H 0.21898 0.71321 0.10232 0.0
H249 H 0.29009 0.8783 0.91451 0.0
H250 H 0.29684 0.80174 0.14784 0.0
H251 H 0.20592 0.79351 0.88209 0.0
C252 C 0.18245 0.74721 0.91817 0.0
C253 C 0.1853 0.72387 0.97969 0.0
C254 C 0.29531 0.81853 0.09667 0.0
C255 C 0.23842 0.78163 1.00514 0.0
C256 C 0.32185 0.84728 0.108 0.0
C257 C 0.3205 0.86964 0.04305 0.0
C258 C 0.26712 0.81197 0.01981 0.0
C259 C 0.29187 0.8621 0.96715 0.0
C260 C 0.20885 0.77595 0.93052 0.0
C261 C 0.21521 0.73055 0.05367 0.0
N262 N 0.26641 0.83397 0.95767 0.0
N263 N 0.24059 0.75875 0.06423 0.0
H264 H 0.60964 0.27956 0.9525 0.0
H265 H 0.49542 0.1151 0.10472 0.0
H266 H 0.50843 0.2739 0.14189 0.0
H267 H 0.61051 0.1219 0.95447 0.0
H268 H 0.4973 0.17298 0.11203 0.0
H269 H 0.60793 0.2216 0.94472 0.0
C270 C 0.587 0.26616 0.99227 0.0
C271 C 0.5593 0.28176 0.04828 0.0
C272 C 0.52216 0.16181 0.07752 0.0
C273 C 0.55711 0.21525 0.03967 0.0
C274 C 0.52107 0.1287 0.07318 0.0
C275 C 0.55281 0.11346 0.02885 0.0
C276 C 0.55508 0.17994 0.03672 0.0
C277 C 0.5853 0.13249 0.9894 0.0
C278 C 0.58617 0.23306 0.98816 0.0
C279 C 0.53085 0.26305 0.09882 0.0
N280 N 0.58551 0.16463 0.99404 0.0
N281 N 0.53041 0.2309 0.09309 0.0
loop_
_geom_bond_atom_site_label_1
_geom_bond_atom_site_label_2
_geom_bond_distance
_geom_bond_site_symmetry_2
_ccdc_geom_bond_type
Sm0 C2 2.846 . S
Sm0 O20 2.543 1_556 S
Sm0 O21 2.450 . S
Sm0 O22 2.681 1_655 S
Sm0 O23 2.464 . S
Sm0 O24 2.396 . S
Sm0 O28 2.386 1_556 S
Sm0 O31 2.408 1_655 S
Sm1 C11 2.846 . S
Sm1 O22 2.386 1_554 S
Sm1 O25 2.408 1_455 S
Sm1 O26 2.543 1_554 S
Sm1 O27 2.450 . S
Sm1 O28 2.681 1_455 S
Sm1 O29 2.464 . S
Sm1 O30 2.396 . S
C2 Sm0 2.846 . S
C2 C3 1.506 . S
C2 O20 1.261 1_556 S
C2 O21 1.242 . S
C3 C2 1.506 . S
C3 C4 1.358 1_556 S
C3 C8 1.382 . S
C4 C3 1.358 1_554 S
C4 C5 1.385 . S
C4 H32 0.930 . S
C5 C4 1.385 . S
C5 C6 1.395 1_554 S
C5 H33 0.929 . S
C6 C5 1.395 1_556 S
C6 C7 1.335 . S
C7 C6 1.335 . S
C7 C8 1.398 . S
C7 H34 0.930 . S
C8 C3 1.382 . S
C8 C7 1.398 . S
C8 H35 0.929 . S
C9 O22 1.271 . S
C9 O23 1.251 1_455 S
C10 O24 1.252 . S
C10 O25 1.272 1_556 S
C11 Sm1 2.846 . S
C11 C12 1.506 . S
C11 O26 1.261 1_554 S
C11 O27 1.242 . S
C12 C11 1.506 . S
C12 C13 1.358 1_554 S
C12 C17 1.382 . S
C13 C12 1.358 1_556 S
C13 C14 1.385 . S
C13 H36 0.930 . S
C14 C13 1.385 . S
C14 C15 1.395 1_556 S
C14 H37 0.929 . S
C15 C14 1.395 1_554 S
C15 C16 1.335 . S
C16 C15 1.335 . S
C16 C17 1.398 . S
C16 H38 0.930 . S
C17 C12 1.382 . S
C17 C16 1.398 . S
C17 H39 0.929 . S
C18 O28 1.271 1_455 S
C18 O29 1.251 . S
C19 O30 1.252 . S
C19 O31 1.272 1_554 S
O20 Sm0 2.543 1_554 S
O20 C2 1.261 1_554 S
O21 Sm0 2.450 . S
O21 C2 1.242 . S
O22 Sm0 2.681 1_455 S
O22 Sm1 2.386 1_556 S
O22 C9 1.271 . S
O23 Sm0 2.464 . S
O23 C9 1.251 1_655 S
O24 Sm0 2.396 . S
O24 C10 1.252 . S
O25 Sm1 2.408 1_655 S
O25 C10 1.272 1_554 S
O26 Sm1 2.543 1_556 S
O26 C11 1.261 1_556 S
O27 Sm1 2.450 . S
O27 C11 1.242 . S
O28 Sm0 2.386 1_554 S
O28 Sm1 2.681 1_655 S
O28 C18 1.271 1_655 S
O29 Sm1 2.464 . S
O29 C18 1.251 . S
O30 Sm1 2.396 . S
O30 C19 1.252 . S
O31 Sm0 2.408 1_455 S
O31 C19 1.272 1_556 S
H32 C4 0.930 . S
H33 C5 0.929 . S
H34 C7 0.930 . S
H35 C8 0.929 . S
H36 C13 0.930 . S
H37 C14 0.929 . S
H38 C16 0.930 . S
H39 C17 0.929 . S
Sm40 C42 2.846 . S
Sm40 O60 2.543 1_554 S
Sm40 O61 2.450 . S
Sm40 O62 2.681 1_545 S
Sm40 O63 2.464 . S
Sm40 O64 2.396 . S
Sm40 O68 2.386 1_554 S
Sm40 O71 2.408 1_545 S
Sm41 C51 2.846 . S
Sm41 O62 2.386 1_556 S
Sm41 O65 2.408 1_565 S
Sm41 O66 2.543 1_556 S
Sm41 O67 2.450 . S
Sm41 O68 2.681 1_565 S
Sm41 O69 2.464 . S
Sm41 O70 2.396 . S
C42 Sm40 2.846 . S
C42 C43 1.506 1_554 S
C42 O60 1.261 1_554 S
C42 O61 1.242 . S
C43 C42 1.506 1_556 S
C43 C44 1.358 . S
C43 C48 1.382 1_556 S
C44 C43 1.358 . S
C44 C45 1.385 . S
C44 H72 0.930 . S
C45 C44 1.385 . S
C45 C46 1.395 . S
C45 H73 0.929 . S
C46 C45 1.395 . S
C46 C47 1.335 1_556 S
C47 C46 1.335 1_554 S
C47 C48 1.398 . S
C47 H74 0.930 . S
C48 C43 1.382 1_554 S
C48 C47 1.398 . S
C48 H75 0.929 . S
C49 O62 1.271 1_545 S
C49 O63 1.251 . S
C50 O64 1.252 . S
C50 O65 1.272 1_554 S
C51 Sm41 2.846 . S
C51 C52 1.506 1_556 S
C51 O66 1.261 1_556 S
C51 O67 1.242 . S
C52 C51 1.506 1_554 S
C52 C53 1.358 . S
C52 C57 1.382 1_554 S
C53 C52 1.358 . S
C53 C54 1.385 . S
C53 H76 0.930 . S
C54 C53 1.385 . S
C54 C55 1.395 . S
C54 H77 0.929 . S
C55 C54 1.395 . S
C55 C56 1.335 1_554 S
C56 C55 1.335 1_556 S
C56 C57 1.398 . S
C56 H78 0.930 . S
C57 C52 1.382 1_556 S
C57 C56 1.398 . S
C57 H79 0.929 . S
C58 O68 1.271 1_565 S
C58 O69 1.251 . S
C59 O70 1.252 . S
C59 O71 1.272 1_556 S
O60 Sm40 2.543 1_556 S
O60 C42 1.261 1_556 S
O61 Sm40 2.450 . S
O61 C42 1.242 . S
O62 Sm40 2.681 1_565 S
O62 Sm41 2.386 1_554 S
O62 C49 1.271 1_565 S
O63 Sm40 2.464 . S
O63 C49 1.251 . S
O64 Sm40 2.396 . S
O64 C50 1.252 . S
O65 Sm41 2.408 1_545 S
O65 C50 1.272 1_556 S
O66 Sm41 2.543 1_554 S
O66 C51 1.261 1_554 S
O67 Sm41 2.450 . S
O67 C51 1.242 . S
O68 Sm40 2.386 1_556 S
O68 Sm41 2.681 1_545 S
O68 C58 1.271 1_545 S
O69 Sm41 2.464 . S
O69 C58 1.251 . S
O70 Sm41 2.396 . S
O70 C59 1.252 . S
O71 Sm40 2.408 1_565 S
O71 C59 1.272 1_554 S
H72 C44 0.930 . S
H73 C45 0.929 . S
H74 C47 0.930 . S
H75 C48 0.929 . S
H76 C53 0.930 . S
H77 C54 0.929 . S
H78 C56 0.930 . S
H79 C57 0.929 . S
Sm80 C82 2.846 . S
Sm80 O100 2.543 1_554 S
Sm80 O101 2.450 . S
Sm80 O102 2.681 . S
Sm80 O103 2.464 . S
Sm80 O104 2.396 . S
Sm80 O108 2.386 1_554 S
Sm80 O111 2.408 . S
Sm81 C91 2.846 . S
Sm81 O102 2.386 1_556 S
Sm81 O105 2.408 . S
Sm81 O106 2.543 1_556 S
Sm81 O107 2.450 . S
Sm81 O108 2.681 . S
Sm81 O109 2.464 . S
Sm81 O110 2.396 . S
C82 Sm80 2.846 . S
C82 C83 1.506 . S
C82 O100 1.261 1_554 S
C82 O101 1.242 . S
C83 C82 1.506 . S
C83 C84 1.358 1_554 S
C83 C88 1.382 . S
C84 C83 1.358 1_556 S
C84 C85 1.385 . S
C84 H112 0.930 . S
C85 C84 1.385 . S
C85 C86 1.395 1_556 S
C85 H113 0.929 . S
C86 C85 1.395 1_554 S
C86 C87 1.335 . S
C87 C86 1.335 . S
C87 C88 1.398 . S
C87 H114 0.930 . S
C88 C83 1.382 . S
C88 C87 1.398 . S
C88 H115 0.929 . S
C89 O102 1.271 . S
C89 O103 1.251 . S
C90 O104 1.252 . S
C90 O105 1.272 1_554 S
C91 Sm81 2.846 . S
C91 C92 1.506 . S
C91 O106 1.261 1_556 S
C91 O107 1.242 . S
C92 C91 1.506 . S
C92 C93 1.358 1_556 S
C92 C97 1.382 . S
C93 C92 1.358 1_554 S
C93 C94 1.385 . S
C93 H116 0.930 . S
C94 C93 1.385 . S
C94 C95 1.387 1_554 S
C94 H117 0.929 . S
C95 C94 1.387 1_556 S
C95 C96 1.344 . S
C96 C95 1.344 . S
C96 C97 1.398 . S
C96 H118 0.930 . S
C97 C92 1.382 . S
C97 C96 1.398 . S
C97 H119 0.929 . S
C98 O108 1.271 . S
C98 O109 1.251 . S
C99 O110 1.252 . S
C99 O111 1.272 1_556 S
O100 Sm80 2.543 1_556 S
O100 C82 1.261 1_556 S
O101 Sm80 2.450 . S
O101 C82 1.242 . S
O102 Sm80 2.681 . S
O102 Sm81 2.386 1_554 S
O102 C89 1.271 . S
O103 Sm80 2.464 . S
O103 C89 1.251 . S
O104 Sm80 2.396 . S
O104 C90 1.252 . S
O105 Sm81 2.408 . S
O105 C90 1.272 1_556 S
O106 Sm81 2.543 1_554 S
O106 C91 1.261 1_554 S
O107 Sm81 2.450 . S
O107 C91 1.242 . S
O108 Sm80 2.386 1_556 S
O108 Sm81 2.681 . S
O108 C98 1.271 . S
O109 Sm81 2.464 . S
O109 C98 1.251 . S
O110 Sm81 2.396 . S
O110 C99 1.252 . S
O111 Sm80 2.408 . S
O111 C99 1.272 1_554 S
H112 C84 0.930 . S
H113 C85 0.929 . S
H114 C87 0.930 . S
H115 C88 0.929 . S
H116 C93 0.930 . S
H117 C94 0.929 . S
H118 C96 0.930 . S
H119 C97 0.929 . S
H120 C126 0.930 . S
H121 C130 0.930 . S
H122 C135 0.929 . S
H123 C133 0.929 . S
H124 C128 0.929 . S
H125 C134 0.929 . S
C126 H120 0.930 . S
C126 C127 1.367 1_655 S
C126 C134 1.378 . S
C127 C126 1.367 1_455 S
C127 C135 1.433 . S
C128 H124 0.929 . S
C128 C130 1.378 . S
C128 C132 1.350 . S
C129 C132 1.463 . S
C129 C134 1.350 1_455 S
C129 N137 1.427 . S
C130 H121 0.930 . S
C130 C128 1.378 . S
C130 C131 1.367 . S
C131 C130 1.367 . S
C131 C133 1.433 1_455 S
C132 C128 1.350 . S
C132 C129 1.463 . S
C132 N136 1.427 1_455 S
C133 H123 0.929 . S
C133 C131 1.433 1_655 S
C133 N136 1.384 . S
C134 H125 0.929 . S
C134 C126 1.378 . S
C134 C129 1.350 1_655 S
C135 H122 0.929 . S
C135 C127 1.433 . S
C135 N137 1.384 . S
N136 C132 1.427 1_655 S
N136 C133 1.384 . S
N137 C129 1.427 . S
N137 C135 1.384 . S
H138 C144 0.930 . S
H139 C148 0.930 . S
H140 C153 0.929 . S
H141 C151 0.929 . S
H142 C146 0.929 . S
H143 C152 0.929 . S
C144 H138 0.930 . S
C144 C145 1.358 1_565 S
C144 C152 1.378 . S
C145 C144 1.358 1_545 S
C145 C153 1.441 . S
C146 H142 0.929 . S
C146 C148 1.378 . S
C146 C150 1.350 . S
C147 C150 1.463 1_565 S
C147 C152 1.356 . S
C147 N155 1.421 1_565 S
C148 H139 0.930 . S
C148 C146 1.378 . S
C148 C149 1.393 . S
C149 C148 1.393 . S
C149 C151 1.410 1_545 S
C150 C146 1.350 . S
C150 C147 1.463 1_545 S
C150 N154 1.427 1_545 S
C151 H141 0.929 . S
C151 C149 1.410 1_565 S
C151 N154 1.384 . S
C152 H143 0.929 . S
C152 C144 1.378 . S
C152 C147 1.356 . S
C153 H140 0.929 . S
C153 C145 1.441 . S
C153 N155 1.384 . S
N154 C150 1.427 1_565 S
N154 C151 1.384 . S
N155 C147 1.421 1_545 S
N155 C153 1.384 . S
H156 C162 0.930 . S
H157 C166 0.930 . S
H158 C171 0.929 . S
H159 C169 0.929 . S
H160 C164 0.929 . S
H161 C170 0.929 . S
C162 H156 0.930 . S
C162 C163 1.367 . S
C162 C170 1.378 . S
C163 C162 1.367 . S
C163 C171 1.433 . S
C164 H160 0.929 . S
C164 C166 1.378 . S
C164 C168 1.350 . S
C165 C168 1.463 . S
C165 C170 1.350 . S
C165 N173 1.427 . S
C166 H157 0.930 . S
C166 C164 1.378 . S
C166 C167 1.367 . S
C167 C166 1.367 . S
C167 C169 1.433 . S
C168 C164 1.350 . S
C168 C165 1.463 . S
C168 N172 1.427 . S
C169 H159 0.929 . S
C169 C167 1.433 . S
C169 N172 1.384 . S
C170 H161 0.929 . S
C170 C162 1.378 . S
C170 C165 1.350 . S
C171 H158 0.929 . S
C171 C163 1.433 . S
C171 N173 1.384 . S
N172 C168 1.427 . S
N172 C169 1.384 . S
N173 C165 1.427 . S
N173 C171 1.384 . S
H174 C180 0.930 . S
H175 C184 0.930 . S
H176 C189 0.929 . S
H177 C187 0.929 . S
H178 C182 0.929 . S
H179 C188 0.929 . S
C180 H174 0.930 . S
C180 C181 1.367 . S
C180 C188 1.378 . S
C181 C180 1.367 . S
C181 C189 1.433 1_556 S
C182 H178 0.929 . S
C182 C184 1.378 . S
C182 C186 1.350 1_554 S
C183 C186 1.463 . S
C183 C188 1.350 . S
C183 N191 1.427 1_556 S
C184 H175 0.930 . S
C184 C182 1.378 . S
C184 C185 1.367 1_554 S
C185 C184 1.367 1_556 S
C185 C187 1.433 . S
C186 C182 1.350 1_556 S
C186 C183 1.463 . S
C186 N190 1.427 . S
C187 H177 0.929 . S
C187 C185 1.433 . S
C187 N190 1.384 . S
C188 H179 0.929 . S
C188 C180 1.378 . S
C188 C183 1.350 . S
C189 H176 0.929 . S
C189 C181 1.433 1_554 S
C189 N191 1.384 . S
N190 C186 1.427 . S
N190 C187 1.384 . S
N191 C183 1.427 1_554 S
N191 C189 1.384 . S
H192 C198 0.930 . S
H193 C202 0.930 . S
H194 C207 0.929 . S
H195 C205 0.929 . S
H196 C200 0.929 . S
H197 C206 0.929 . S
C198 H192 0.930 . S
C198 C199 1.367 1_554 S
C198 C206 1.378 . S
C199 C198 1.367 1_556 S
C199 C207 1.433 . S
C200 H196 0.929 . S
C200 C202 1.378 . S
C200 C204 1.350 . S
C201 C204 1.463 . S
C201 C206 1.350 1_556 S
C201 N209 1.427 . S
C202 H193 0.930 . S
C202 C200 1.378 . S
C202 C203 1.367 . S
C203 C202 1.367 . S
C203 C205 1.433 1_556 S
C204 C200 1.350 . S
C204 C201 1.463 . S
C204 N208 1.427 1_556 S
C205 H195 0.929 . S
C205 C203 1.433 1_554 S
C205 N208 1.384 . S
C206 H197 0.929 . S
C206 C198 1.378 . S
C206 C201 1.350 1_554 S
C207 H194 0.929 . S
C207 C199 1.433 . S
C207 N209 1.384 . S
N208 C204 1.427 1_554 S
N208 C205 1.384 . S
N209 C201 1.427 . S
N209 C207 1.384 . S
H210 C216 0.930 . S
H211 C220 0.930 . S
H212 C225 0.929 . S
H213 C223 0.929 . S
H214 C218 0.929 . S
H215 C224 0.929 . S
C216 H210 0.930 . S
C216 C217 1.367 1_554 S
C216 C224 1.378 . S
C217 C216 1.367 1_556 S
C217 C225 1.433 . S
C218 H214 0.929 . S
C218 C220 1.378 . S
C218 C222 1.350 . S
C219 C222 1.463 1_554 S
C219 C224 1.352 . S
C219 N227 1.425 1_554 S
C220 H211 0.930 . S
C220 C218 1.378 . S
C220 C221 1.367 . S
C221 C220 1.367 . S
C221 C223 1.433 1_556 S
C222 C218 1.350 . S
C222 C219 1.463 1_556 S
C222 N226 1.427 1_556 S
C223 H213 0.929 . S
C223 C221 1.433 1_554 S
C223 N226 1.384 . S
C224 H215 0.929 . S
C224 C216 1.378 . S
C224 C219 1.352 . S
C225 H212 0.929 . S
C225 C217 1.433 . S
C225 N227 1.384 . S
N226 C222 1.427 1_554 S
N226 C223 1.384 . S
N227 C219 1.425 1_556 S
N227 C225 1.384 . S
H228 C234 0.930 . S
H229 C238 0.930 . S
H230 C243 0.929 . S
H231 C241 0.929 . S
H232 C236 0.929 . S
H233 C242 0.929 . S
C234 H228 0.930 . S
C234 C235 1.367 . S
C234 C242 1.378 . S
C235 C234 1.367 . S
C235 C243 1.433 1_554 S
C236 H232 0.929 . S
C236 C238 1.378 . S
C236 C240 1.350 1_556 S
C237 C240 1.463 . S
C237 C242 1.350 . S
C237 N245 1.427 1_554 S
C238 H229 0.930 . S
C238 C236 1.378 . S
C238 C239 1.367 1_556 S
C239 C238 1.367 1_554 S
C239 C241 1.433 . S
C240 C236 1.350 1_554 S
C240 C237 1.463 . S
C240 N244 1.427 . S
C241 H231 0.929 . S
C241 C239 1.433 . S
C241 N244 1.384 . S
C242 H233 0.929 . S
C242 C234 1.378 . S
C242 C237 1.350 . S
C243 H230 0.929 . S
C243 C235 1.433 1_556 S
C243 N245 1.384 . S
N244 C240 1.427 . S
N244 C241 1.384 . S
N245 C237 1.427 1_556 S
N245 C243 1.384 . S
H246 C252 0.930 . S
H247 C256 0.930 . S
H248 C261 0.929 . S
H249 C259 0.929 . S
H250 C254 0.929 . S
H251 C260 0.929 . S
C252 H246 0.930 . S
C252 C253 1.364 1_556 S
C252 C260 1.378 . S
C253 C252 1.364 1_554 S
C253 C261 1.436 . S
C254 H250 0.929 . S
C254 C256 1.378 . S
C254 C258 1.350 . S
C255 C258 1.463 . S
C255 C260 1.350 1_554 S
C255 N263 1.427 . S
C256 H247 0.930 . S
C256 C254 1.378 . S
C256 C257 1.367 . S
C257 C256 1.367 . S
C257 C259 1.433 1_554 S
C258 C254 1.350 . S
C258 C255 1.463 . S
C258 N262 1.427 1_554 S
C259 H249 0.929 . S
C259 C257 1.433 1_556 S
C259 N262 1.384 . S
C260 H251 0.929 . S
C260 C252 1.378 . S
C260 C255 1.350 1_556 S
C261 H248 0.929 . S
C261 C253 1.436 . S
C261 N263 1.384 . S
N262 C258 1.427 1_556 S
N262 C259 1.384 . S
N263 C255 1.427 . S
N263 C261 1.384 . S
H264 C270 0.930 . S
H265 C274 0.930 . S
H266 C279 0.929 . S
H267 C277 0.929 . S
H268 C272 0.929 . S
H269 C278 0.929 . S
C270 H264 0.930 . S
C270 C271 1.367 1_556 S
C270 C278 1.378 . S
C271 C270 1.367 1_554 S
C271 C279 1.433 . S
C272 H268 0.929 . S
C272 C274 1.378 . S
C272 C276 1.350 . S
C273 C276 1.463 . S
C273 C278 1.349 1_554 S
C273 N281 1.428 . S
C274 H265 0.930 . S
C274 C272 1.378 . S
C274 C275 1.367 . S
C275 C274 1.367 . S
C275 C277 1.433 1_554 S
C276 C272 1.350 . S
C276 C273 1.463 . S
C276 N280 1.427 1_554 S
C277 H267 0.929 . S
C277 C275 1.433 1_556 S
C277 N280 1.384 . S
C278 H269 0.929 . S
C278 C270 1.378 . S
C278 C273 1.349 1_556 S
C279 H266 0.929 . S
C279 C271 1.433 . S
C279 N281 1.384 . S
N280 C276 1.427 1_556 S
N280 C277 1.384 . S
N281 C273 1.428 . S
N281 C279 1.384 . S
C127 C9 1.452 . S
C131 C18 1.452 . S
C145 C49 1.452 . S
C149 C58 1.447 1_545 S
C163 C98 1.451 . S
C167 C89 1.451 . S
C181 C19 2.618 1_556 S
C185 C90 2.570 1_556 S
C199 C46 0.891 . S
C203 C6 0.890 . S
C217 C59 2.043 . S
C221 C86 1.989 1_556 S
C235 C10 2.617 1_554 S
C239 C99 2.572 1_554 S
C253 C15 0.890 . S
C257 C55 0.891 . S
C271 C95 1.994 1_554 S
C275 C50 2.043 . S
