# Generated by pormake.
# Topology smm, (6)-cn, num edge types: 1
# Building blocks:
#     Node 0, Type 0, BuildingBlock: BETGAK_clean_sbu_0, # of connection points: 6
#     Node 1, Type 0, BuildingBlock: BETGAK_clean_sbu_0, # of connection points: 6
#     Node 2, Type 0, BuildingBlock: BETGAK_clean_sbu_0, # of connection points: 6
#     Node 3, Type 0, BuildingBlock: BETGAK_clean_sbu_0, # of connection points: 6
#     Node 4, Type 0, BuildingBlock: BETGAK_clean_sbu_0, # of connection points: 6
#     Node 5, Type 0, BuildingBlock: BETGAK_clean_sbu_0, # of connection points: 6
#     Node 6, Type 0, BuildingBlock: BETGAK_clean_sbu_0, # of connection points: 6
#     Node 7, Type 0, BuildingBlock: BETGAK_clean_sbu_0, # of connection points: 6
#     Node 8, Type 0, BuildingBlock: BETGAK_clean_sbu_0, # of connection points: 6
#     Edge 9, Type (0, 0), BuildingBlock: XIVTED_clean_linker_0, # of connection points: 2
#     Edge 10, Type (0, 0), BuildingBlock: XIVTED_clean_linker_0, # of connection points: 2
#     Edge 11, Type (0, 0), BuildingBlock: XIVTED_clean_linker_0, # of connection points: 2
#     Edge 12, Type (0, 0), BuildingBlock: XIVTED_clean_linker_0, # of connection points: 2
#     Edge 13, Type (0, 0), BuildingBlock: XIVTED_clean_linker_0, # of connection points: 2
#     Edge 14, Type (0, 0), BuildingBlock: XIVTED_clean_linker_0, # of connection points: 2
#     Edge 15, Type (0, 0), BuildingBlock: XIVTED_clean_linker_0, # of connection points: 2
#     Edge 16, Type (0, 0), BuildingBlock: XIVTED_clean_linker_0, # of connection points: 2
#     Edge 17, Type (0, 0), BuildingBlock: XIVTED_clean_linker_0, # of connection points: 2
#     Edge 18, Type (0, 0), BuildingBlock: XIVTED_clean_linker_0, # of connection points: 2
#     Edge 19, Type (0, 0), BuildingBlock: XIVTED_clean_linker_0, # of connection points: 2
#     Edge 20, Type (0, 0), BuildingBlock: XIVTED_clean_linker_0, # of connection points: 2
#     Edge 21, Type (0, 0), BuildingBlock: XIVTED_clean_linker_0, # of connection points: 2
#     Edge 22, Type (0, 0), BuildingBlock: XIVTED_clean_linker_0, # of connection points: 2
#     Edge 23, Type (0, 0), BuildingBlock: XIVTED_clean_linker_0, # of connection points: 2
#     Edge 24, Type (0, 0), BuildingBlock: XIVTED_clean_linker_0, # of connection points: 2
#     Edge 25, Type (0, 0), BuildingBlock: XIVTED_clean_linker_0, # of connection points: 2
#     Edge 26, Type (0, 0), BuildingBlock: XIVTED_clean_linker_0, # of connection points: 2
#     Edge 27, Type (0, 0), BuildingBlock: XIVTED_clean_linker_0, # of connection points: 2
#     Edge 28, Type (0, 0), BuildingBlock: XIVTED_clean_linker_0, # of connection points: 2
#     Edge 29, Type (0, 0), BuildingBlock: XIVTED_clean_linker_0, # of connection points: 2
#     Edge 30, Type (0, 0), BuildingBlock: XIVTED_clean_linker_0, # of connection points: 2
#     Edge 31, Type (0, 0), BuildingBlock: XIVTED_clean_linker_0, # of connection points: 2
#     Edge 32, Type (0, 0), BuildingBlock: XIVTED_clean_linker_0, # of connection points: 2
#     Edge 33, Type (0, 0), BuildingBlock: XIVTED_clean_linker_0, # of connection points: 2
#     Edge 34, Type (0, 0), BuildingBlock: XIVTED_clean_linker_0, # of connection points: 2
#     Edge 35, Type (0, 0), BuildingBlock: XIVTED_clean_linker_0, # of connection points: 2
# Relax obj value: 0.043
# Max RMSD: 0.121
# Mean RMSD: 0.121
data_MOF--net-smm--node1-BETGAK_clean_sbu_0--edge1-XIVTED_clean_linker_0
_symmetry_space_group_name_H-M    P1
_symmetry_Int_Tables_number       1
_symmetry_cell_setting            triclinic
loop_
_symmetry_equiv_pos_as_xyz
'x, y, z'
_cell_length_a     70.557114
_cell_length_b     70.455173
_cell_length_c     14.366606
_cell_angle_alpha  89.979606
_cell_angle_beta   90.127518
_cell_angle_gamma 119.91887
loop_
_atom_site_label
_atom_site_type_symbol
_atom_site_fract_x
_atom_site_fract_y
_atom_site_fract_z
_atom_type_partial_charge
La0 La 0.07222 0.22923 -0.00615 0.0
La1 La 1.03185 0.18609 0.03749 0.0
C2 C 0.09948 0.26423 0.91377 0.0
C3 C 0.10553 0.28742 0.89902 0.0
C4 C 0.11583 0.30322 0.96928 0.0
C5 C 0.12436 0.32549 0.94983 0.0
C6 C 0.12287 0.33249 0.8597 0.0
C7 C 0.1118 0.31659 0.79053 0.0
C8 C 0.10333 0.29433 0.8099 0.0
C9 C 0.06657 0.21866 0.17178 0.0
C10 C 1.02701 0.22791 0.03839 0.0
C11 C 1.00388 0.14947 0.10329 0.0
C12 C 0.99653 0.12603 0.08752 0.0
C13 C 0.98984 0.11638 -0.00097 0.0
C14 C 0.9815 0.09387 -0.01285 0.0
C15 C 0.97981 0.08054 0.06324 0.0
C16 C 0.98701 0.09034 0.15121 0.0
C17 C 0.9952 0.11283 0.16319 0.0
C18 C 1.03853 0.1964 0.85886 0.0
C19 C 0.07797 0.18819 0.01097 0.0
O20 O 0.10243 0.25842 -0.00324 0.0
O21 O 0.08142 0.24914 0.87452 0.0
O22 O 0.08554 0.23046 0.13327 0.0
O23 O 0.05189 0.21523 0.11347 0.0
O24 O 0.04655 0.23858 -0.00163 0.0
O25 O 1.01946 0.20795 0.0725 0.0
O26 O 0.99975 0.1597 0.03726 0.0
O27 O 1.02342 0.16155 0.13898 0.0
O28 O 1.01944 0.18503 0.89612 0.0
O29 O 0.0527 0.1997 0.91923 0.0
O30 O 0.05782 0.17752 0.04472 0.0
O31 O 0.08609 0.20795 0.97411 0.0
H32 H 0.11791 0.29851 0.03864 0.0
H33 H 0.13251 0.33728 0.0051 0.0
H34 H 0.11054 0.32138 0.72017 0.0
H35 H 0.09575 0.28257 0.75402 0.0
H36 H 0.99077 0.12614 0.93909 0.0
H37 H 0.97638 0.08689 0.91827 0.0
H38 H 0.98575 0.08054 0.21144 0.0
H39 H 1.00017 0.11986 0.23211 0.0
La40 La 0.86664 0.86999 -0.01181 0.0
La41 La 0.90964 0.87216 0.03229 0.0
C42 C 0.83168 0.86254 0.90805 0.0
C43 C 0.80852 0.84538 0.89385 0.0
C44 C 0.79296 0.83952 0.96515 0.0
C45 C 0.7707 0.82562 0.94664 0.0
C46 C 0.76345 0.8173 0.85646 0.0
C47 C 0.77913 0.8225 0.78616 0.0
C48 C 0.80138 0.83646 0.80459 0.0
C49 C 0.87708 0.8742 0.16626 0.0
C50 C 0.86767 0.82577 0.0307 0.0
C51 C 0.94611 0.88033 0.09856 0.0
C52 C 0.96956 0.89619 0.08278 0.0
C53 C 0.97924 0.89858 -0.00514 0.0
C54 C 1.00174 0.91254 0.98306 0.0
C55 C 1.01505 0.92453 0.05866 0.0
C56 C 1.00523 0.92249 0.14601 0.0
C57 C 0.98275 0.90841 0.15793 0.0
C58 C 0.89948 0.86926 0.85362 0.0
C59 C 0.90778 0.91648 0.00783 0.0
O60 O 0.8376 0.87133 -0.00905 0.0
O61 O 0.8467 0.85951 0.8687 0.0
O62 O 0.86529 0.88157 0.12855 0.0
O63 O 0.88048 0.86312 0.10715 0.0
O64 O 0.85728 0.83496 -0.00987 0.0
O65 O 0.88752 0.83791 0.06622 0.0
O66 O 0.93575 0.86598 0.03269 0.0
O67 O 0.93421 0.88803 0.13396 0.0
O68 O 0.9108 0.86131 0.89009 0.0
O69 O 0.8962 0.87996 0.91473 0.0
O70 O 0.91828 0.90674 0.04153 0.0
O71 O 0.8881 0.90511 0.96989 0.0
H72 H 0.79785 0.84613 0.03469 0.0
H73 H 0.7591 0.82169 0.00274 0.0
H74 H 0.77414 0.81659 0.71576 0.0
H75 H 0.81295 0.8409 0.74799 0.0
H76 H 0.96952 0.88949 0.93529 0.0
H77 H 1.00872 0.91396 0.9146 0.0
H78 H 1.01502 0.93131 0.20589 0.0
H79 H 0.97571 0.90678 0.22644 0.0
La80 La 0.22514 1.02284 -0.01144 0.0
La81 La 0.22331 0.06393 0.03221 0.0
C82 C 0.23056 0.99414 0.90716 0.0
C83 C 0.24625 0.98687 0.88408 0.0
C84 C 0.26744 0.99676 0.92179 0.0
C85 C 0.28135 0.98843 0.90049 0.0
C86 C 0.27414 0.97004 0.84186 0.0
C87 C 0.25307 0.96067 0.80287 0.0
C88 C 0.23932 0.969 0.8238 0.0
C89 C 0.22103 1.02921 0.16638 0.0
C90 C 0.26951 0.0678 0.02971 0.0
C91 C 0.21556 0.09255 0.09831 0.0
C92 C 0.1996 0.10011 0.08339 0.0
C93 C 0.19698 0.10746 -0.00417 0.0
C94 C 0.1828 0.11582 0.98475 0.0
C95 C 0.17083 0.1169 0.06072 0.0
C96 C 0.17313 0.10909 0.14776 0.0
C97 C 0.18742 0.10087 0.15896 0.0
C98 C 0.22588 0.0565 0.85368 0.0
C99 C 0.17882 1.01803 0.0099 0.0
O100 O 0.22466 0.99282 -0.0057 0.0
O101 O 0.23322 1.01196 0.86671 0.0
O102 O 0.21337 1.01002 0.12869 0.0
O103 O 0.23222 0.04363 0.10731 0.0
O104 O 0.26024 0.0482 -0.0107 0.0
O105 O 0.2575 0.07566 0.06528 0.0
O106 O 0.22954 0.09628 0.03134 0.0
O107 O 0.20809 0.07308 0.1349 0.0
O108 O 0.23405 0.0758 0.88995 0.0
O109 O 0.21521 0.04259 0.91502 0.0
O110 O 0.1887 0.03841 0.04174 0.0
O111 O 0.18999 1.00937 0.97323 0.0
H112 H 0.27306 1.01063 0.96843 0.0
H113 H 0.29746 0.99596 0.93184 0.0
H114 H 0.24714 0.94679 0.75617 0.0
H115 H 0.22307 0.96126 0.79357 0.0
H116 H 0.20604 0.107 0.93595 0.0
H117 H 0.18119 0.12142 0.91652 0.0
H118 H 0.16433 0.10987 0.20793 0.0
H119 H 0.18922 0.0954 0.22722 0.0
La120 La 0.7392 0.56181 0.32204 0.0
La121 La 0.69853 0.51897 0.36609 0.0
C122 C 0.76682 0.59679 0.24276 0.0
C123 C 0.77294 0.62002 0.22864 0.0
C124 C 0.78333 0.63573 0.29918 0.0
C125 C 0.79181 0.65802 0.28049 0.0
C126 C 0.79017 0.66516 0.19084 0.0
C127 C 0.77903 0.64935 0.12137 0.0
C128 C 0.77062 0.62707 0.13998 0.0
C129 C 0.73341 0.55133 0.50016 0.0
C130 C 0.69439 0.5612 0.36566 0.0
C131 C 0.66968 0.48295 0.43386 0.0
C132 C 0.66123 0.45935 0.42056 0.0
C133 C 0.67362 0.4514 0.37631 0.0
C134 C 0.66476 0.42884 0.36226 0.0
C135 C 0.64333 0.4139 0.39147 0.0
C136 C 0.63112 0.42206 0.43615 0.0
C137 C 0.64001 0.44453 0.45053 0.0
C138 C 0.70524 0.5292 0.18735 0.0
C139 C 0.74428 0.52034 0.33887 0.0
O140 O 0.76956 0.59083 0.32578 0.0
O141 O 0.74882 0.58179 0.20285 0.0
O142 O 0.75241 0.56289 0.46161 0.0
O143 O 0.71881 0.54808 0.44174 0.0
O144 O 0.7138 0.57148 0.32454 0.0
O145 O 0.68674 0.54136 0.40111 0.0
O146 O 0.66612 0.49299 0.36533 0.0
O147 O 0.68945 0.49455 0.46813 0.0
O148 O 0.68614 0.51806 0.22475 0.0
O149 O 0.71938 0.53233 0.24763 0.0
O150 O 0.72412 0.50979 0.37268 0.0
O151 O 0.75258 0.54015 0.30226 0.0
H152 H 0.78551 0.63092 0.3682 0.0
H153 H 0.8 0.66973 0.33599 0.0
H154 H 0.77766 0.65425 0.05135 0.0
H155 H 0.76296 0.61538 0.08387 0.0
H156 H 0.69 0.46263 0.35197 0.0
H157 H 0.67453 0.42312 0.32697 0.0
H158 H 0.61472 0.41103 0.46082 0.0
H159 H 0.63021 0.45037 0.48476 0.0
La160 La 0.53343 0.20359 0.31869 0.0
La161 La 0.57646 0.20602 0.3627 0.0
C162 C 0.49825 0.19568 0.23913 0.0
C163 C 0.47521 0.17822 0.22442 0.0
C164 C 0.4593 0.17301 0.29364 0.0
C165 C 0.43714 0.15887 0.27417 0.0
C166 C 0.43032 0.14963 0.185 0.0
C167 C 0.44632 0.15416 0.11696 0.0
C168 C 0.46849 0.16837 0.13635 0.0
C169 C 0.54415 0.20857 0.49658 0.0
C170 C 0.53465 0.15959 0.36395 0.0
C171 C 0.61299 0.21448 0.42933 0.0
C172 C 0.63638 0.23049 0.41392 0.0
C173 C 0.6457 0.23442 0.3246 0.0
C174 C 0.66818 0.24848 0.31265 0.0
C175 C 0.68179 0.25904 0.38956 0.0
C176 C 0.6723 0.25551 0.4785 0.0
C177 C 0.64985 0.24132 0.49049 0.0
C178 C 0.56601 0.20227 0.18414 0.0
C179 C 0.57456 0.25024 0.33491 0.0
O180 O 0.50403 0.20423 0.32247 0.0
O181 O 0.51355 0.19321 0.19903 0.0
O182 O 0.53242 0.21587 0.45781 0.0
O183 O 0.54745 0.1972 0.43851 0.0
O184 O 0.52414 0.16858 0.32293 0.0
O185 O 0.55455 0.17189 0.3986 0.0
O186 O 0.6028 0.20018 0.36309 0.0
O187 O 0.60094 0.22202 0.46461 0.0
O188 O 0.57731 0.19443 0.22173 0.0
O189 O 0.56283 0.21329 0.24416 0.0
O190 O 0.58527 0.24066 0.36786 0.0
O191 O 0.55463 0.23872 0.2994 0.0
H192 H 0.46384 0.18037 0.36214 0.0
H193 H 0.42528 0.15549 0.32863 0.0
H194 H 0.44167 0.14754 0.04732 0.0
H195 H 0.48031 0.17228 0.08116 0.0
H196 H 0.6357 0.22643 0.26403 0.0
H197 H 0.67491 0.25108 0.2431 0.0
H198 H 0.68233 0.26322 0.5393 0.0
H199 H 0.64305 0.23851 0.56002 0.0
La200 La 0.89168 0.35631 0.31984 0.0
La201 La 0.89016 0.39755 0.36434 0.0
C202 C 0.89697 0.32766 0.23719 0.0
C203 C 0.91226 0.31961 0.21894 0.0
C204 C 0.93434 0.33122 0.24585 0.0
C205 C 0.94815 0.32266 0.22682 0.0
C206 C 0.94 0.30233 0.18122 0.0
C207 C 0.91792 0.29104 0.1537 0.0
C208 C 0.90424 0.29959 0.17243 0.0
C209 C 0.88799 0.36272 0.49812 0.0
C210 C 0.93628 0.40112 0.36106 0.0
C211 C 0.88334 0.42667 0.43227 0.0
C212 C 0.86763 0.43452 0.42097 0.0
C213 C 0.87414 0.45619 0.44516 0.0
C214 C 0.85993 0.46442 0.43269 0.0
C215 C 0.83884 0.45112 0.39576 0.0
C216 C 0.83226 0.42927 0.37236 0.0
C217 C 0.84658 0.42107 0.38444 0.0
C218 C 0.89261 0.39012 0.18559 0.0
C219 C 0.84554 0.35198 0.34134 0.0
O220 O 0.88925 0.32535 0.32174 0.0
O221 O 0.90145 0.34641 0.19998 0.0
O222 O 0.88039 0.34353 0.46052 0.0
O223 O 0.89903 0.37711 0.43872 0.0
O224 O 0.92689 0.38141 0.32164 0.0
O225 O 0.92439 0.40918 0.39604 0.0
O226 O 0.89617 0.42989 0.36134 0.0
O227 O 0.87598 0.40723 0.46906 0.0
O228 O 0.90094 0.40941 0.22203 0.0
O229 O 0.88189 0.37622 0.24689 0.0
O230 O 0.85554 0.37221 0.37477 0.0
O231 O 0.85662 0.34339 0.30301 0.0
H232 H 0.9408 0.34675 0.28179 0.0
H233 H 0.96505 0.33171 0.24933 0.0
H234 H 0.91117 0.27559 0.11693 0.0
H235 H 0.88729 0.29048 0.15048 0.0
H236 H 0.89033 0.46682 0.47341 0.0
H237 H 0.86543 0.4812 0.45275 0.0
H238 H 0.81621 0.41865 0.34301 0.0
H239 H 0.8413 0.40433 0.36457 0.0
La240 La 0.40583 0.89603 0.66094 0.0
La241 La 0.36508 0.8529 0.70346 0.0
C242 C 0.43326 0.93103 0.5814 0.0
C243 C 0.43911 0.95416 0.56641 0.0
C244 C 0.45032 0.97021 0.63491 0.0
C245 C 0.45853 0.9924 0.61499 0.0
C246 C 0.4558 0.99911 0.52608 0.0
C247 C 0.44386 0.98298 0.45878 0.0
C248 C 0.43571 0.96079 0.47861 0.0
C249 C 0.39956 0.8854 0.83849 0.0
C250 C 0.36055 0.8949 0.70244 0.0
C251 C 0.33688 0.81634 0.76886 0.0
C252 C 0.32949 0.79289 0.75304 0.0
C253 C 0.32267 0.78323 0.66463 0.0
C254 C 0.31433 0.76072 0.65264 0.0
C255 C 0.31276 0.7474 0.72854 0.0
C256 C 0.32008 0.7572 0.81643 0.0
C257 C 0.32828 0.77969 0.82853 0.0
C258 C 0.37236 0.86321 0.52522 0.0
C259 C 0.4112 0.85478 0.67978 0.0
O260 O 0.436 0.92526 0.66485 0.0
O261 O 0.4154 0.91583 0.54132 0.0
O262 O 0.4187 0.89721 0.80126 0.0
O263 O 0.3851 0.88204 0.77923 0.0
O264 O 0.38026 0.90553 0.6638 0.0
O265 O 0.35274 0.87489 0.73645 0.0
O266 O 0.33292 0.82663 0.70252 0.0
O267 O 0.35636 0.82836 0.80521 0.0
O268 O 0.35313 0.8518 0.56116 0.0
O269 O 0.38632 0.86648 0.58656 0.0
O270 O 0.39093 0.84418 0.71225 0.0
O271 O 0.41961 0.87461 0.64319 0.0
H272 H 0.45337 0.96573 0.70313 0.0
H273 H 0.46738 1.00436 0.66888 0.0
H274 H 0.44165 0.98755 0.38933 0.0
H275 H 0.42741 0.94886 0.42393 0.0
H276 H 0.32351 0.79298 0.6048 0.0
H277 H 0.30912 0.75375 0.58381 0.0
H278 H 0.31892 0.7474 0.87653 0.0
H279 H 0.33334 0.78672 0.8974 0.0
La280 La 0.2 0.53687 0.65078 0.0
La281 La 0.24305 0.53913 0.69482 0.0
C282 C 0.16494 0.52916 0.57075 0.0
C283 C 0.14191 0.5117 0.55602 0.0
C284 C 0.12597 0.50656 0.62507 0.0
C285 C 0.10383 0.49236 0.6056 0.0
C286 C 0.09704 0.483 0.51659 0.0
C287 C 0.11307 0.48747 0.44874 0.0
C288 C 0.13522 0.50174 0.46813 0.0
C289 C 0.21048 0.54114 0.82879 0.0
C290 C 0.20113 0.49272 0.69339 0.0
C291 C 0.27953 0.54732 0.7611 0.0
C292 C 0.30298 0.56315 0.7454 0.0
C293 C 0.31251 0.56607 0.65685 0.0
C294 C 0.33502 0.57998 0.64498 0.0
C295 C 0.34847 0.5914 0.72115 0.0
C296 C 0.33879 0.58884 0.8092 0.0
C297 C 0.3163 0.5748 0.82116 0.0
C298 C 0.23288 0.53621 0.51616 0.0
C299 C 0.24105 0.58341 0.67068 0.0
O300 O 0.17071 0.53773 0.65409 0.0
O301 O 0.18022 0.52662 0.53087 0.0
O302 O 0.19869 0.54851 0.79105 0.0
O303 O 0.21388 0.53005 0.76973 0.0
O304 O 0.19076 0.50188 0.65257 0.0
O305 O 0.22097 0.50488 0.729 0.0
O306 O 0.26918 0.53297 0.69519 0.0
O307 O 0.26764 0.55505 0.79639 0.0
O308 O 0.24421 0.52828 0.55262 0.0
O309 O 0.22958 0.5469 0.57728 0.0
O310 O 0.25161 0.57369 0.70404 0.0
O311 O 0.22135 0.57202 0.63294 0.0
H312 H 0.13049 0.51399 0.69342 0.0
H313 H 0.09195 0.48903 0.6599 0.0
H314 H 0.10844 0.48075 0.37923 0.0
H315 H 0.14707 0.50559 0.41307 0.0
H316 H 0.30266 0.55741 0.59684 0.0
H317 H 0.3419 0.58181 0.57602 0.0
H318 H 0.34868 0.59722 0.86949 0.0
H319 H 0.30936 0.57277 0.89013 0.0
La320 La 0.55858 0.68946 0.65474 0.0
La321 La 0.55671 0.7305 0.69828 0.0
C322 C 0.56583 0.66175 0.57514 0.0
C323 C 0.58295 0.65566 0.56106 0.0
C324 C 0.58873 0.64579 0.63228 0.0
C325 C 0.60263 0.63739 0.6139 0.0
C326 C 0.61103 0.63861 0.52394 0.0
C327 C 0.60588 0.64923 0.45372 0.0
C328 C 0.59193 0.65756 0.47201 0.0
C329 C 0.55447 0.69578 0.83263 0.0
C330 C 0.6029 0.73449 0.69731 0.0
C331 C 0.54882 0.75907 0.76406 0.0
C332 C 0.53306 0.76684 0.74837 0.0
C333 C 0.53079 0.77442 0.66073 0.0
C334 C 0.5169 0.7831 0.64911 0.0
C335 C 0.50486 0.78428 0.72459 0.0
C336 C 0.50679 0.77623 0.81165 0.0
C337 C 0.5208 0.76769 0.8234 0.0
C338 C 0.55951 0.72318 0.51975 0.0
C339 C 0.51227 0.68457 0.67396 0.0
O340 O 0.55719 0.65902 0.65813 0.0
O341 O 0.5688 0.67977 0.53536 0.0
O342 O 0.54698 0.67661 0.79502 0.0
O343 O 0.5656 0.71021 0.77355 0.0
O344 O 0.59363 0.71492 0.6568 0.0
O345 O 0.59087 0.74235 0.73262 0.0
O346 O 0.56303 0.76288 0.69802 0.0
O347 O 0.5411 0.73948 0.79984 0.0
O348 O 0.56758 0.74245 0.55614 0.0
O349 O 0.54876 0.70924 0.58084 0.0
O350 O 0.52213 0.70483 0.70733 0.0
O351 O 0.52351 0.67606 0.63642 0.0
H352 H 0.58206 0.64397 0.70164 0.0
H353 H 0.6065 0.6296 0.66995 0.0
H354 H 0.61185 0.65026 0.38346 0.0
H355 H 0.58755 0.66482 0.41545 0.0
H356 H 0.53993 0.77391 0.60126 0.0
H357 H 0.51557 0.78887 0.58086 0.0
H358 H 0.49792 0.77708 0.87146 0.0
H359 H 0.52233 0.76206 0.89171 0.0
H360 H 0.16332 0.36476 0.91623 0.0
H361 H 0.15923 0.46178 0.64172 0.0
H362 H 0.10813 0.35444 0.74866 0.0
H363 H 0.21605 0.46898 0.78746 0.0
H364 H 0.13976 0.42274 0.68147 0.0
H365 H 0.18213 0.40338 0.87361 0.0
C366 C 0.15503 0.37065 0.8712 0.0
C367 C 0.13403 0.35627 0.83644 0.0
C368 C 0.15652 0.43288 0.70437 0.0
C369 C 0.15572 0.40066 0.78585 0.0
C370 C 0.16767 0.45518 0.68156 0.0
C371 C 0.18934 0.46877 0.71134 0.0
C372 C 0.16707 0.42412 0.75768 0.0
C373 C 0.19938 0.45924 0.76293 0.0
C374 C 0.16589 0.39272 0.84614 0.0
C375 C 0.12436 0.36486 0.77661 0.0
N376 N 0.18816 0.4376 0.78464 0.0
N377 N 0.13526 0.38648 0.75336 0.0
H378 H 0.731 0.8248 0.91684 0.0
H379 H 0.63381 0.72351 0.64466 0.0
H380 H 0.74157 0.78079 0.74453 0.0
H381 H 0.62669 0.77307 0.79135 0.0
H382 H 0.67295 0.74321 0.68289 0.0
H383 H 0.69229 0.80465 0.87642 0.0
C384 C 0.72515 0.81074 0.87122 0.0
C385 C 0.73963 0.80446 0.83447 0.0
C386 C 0.66279 0.74977 0.70634 0.0
C387 C 0.69511 0.78137 0.78643 0.0
C388 C 0.64045 0.73855 0.68444 0.0
C389 C 0.62686 0.7466 0.71485 0.0
C390 C 0.67159 0.76911 0.75942 0.0
C391 C 0.63642 0.76617 0.76631 0.0
C392 C 0.70302 0.79933 0.84742 0.0
C393 C 0.73107 0.78633 0.77401 0.0
N394 N 0.6581 0.77665 0.78713 0.0
N395 N 0.70938 0.77541 0.75202 0.0
H396 H 0.31819 0.99038 0.80048 0.0
H397 H 0.31837 0.87695 0.76141 0.0
H398 H 0.26151 0.92658 0.84102 0.0
H399 H 0.37387 0.93879 0.68138 0.0
H400 H 0.29807 0.89561 0.79618 0.0
H401 H 0.33976 0.97264 0.7641 0.0
C402 C 0.31032 0.97268 0.80222 0.0
C403 C 0.28796 0.95995 0.82314 0.0
C404 C 0.31466 0.90516 0.77077 0.0
C405 C 0.31245 0.93959 0.78134 0.0
C406 C 0.32631 0.89448 0.75083 0.0
C407 C 0.34791 0.90628 0.71843 0.0
C408 C 0.32462 0.92794 0.75894 0.0
C409 C 0.35723 0.92901 0.70593 0.0
C410 C 0.32259 0.96257 0.78085 0.0
C411 C 0.27859 0.93707 0.82381 0.0
N412 N 0.34557 0.93912 0.72661 0.0
N413 N 0.29084 0.92769 0.80332 0.0
H414 H 0.40884 0.11201 0.07901 0.0
H415 H 0.29329 0.10741 0.11562 0.0
H416 H 0.39767 0.15778 0.2355 0.0
H417 H 0.30053 0.05632 0.98387 0.0
H418 H 0.3321 0.12676 0.15205 0.0
H419 H 0.36991 0.092 0.03684 0.0
C420 C 0.39823 0.11786 0.10454 0.0
C421 C 0.40659 0.13659 0.16137 0.0
C422 C 0.32529 0.11134 0.11507 0.0
C423 C 0.36204 0.11379 0.11314 0.0
C424 C 0.30304 0.10024 0.09388 0.0
C425 C 0.2935 0.08009 0.04671 0.0
C426 C 0.33834 0.10237 0.08893 0.0
C427 C 0.30714 0.07178 0.02037 0.0
C428 C 0.37601 0.10638 0.08066 0.0
C429 C 0.392 0.14327 0.1929 0.0
N430 N 0.32887 0.08293 0.04197 0.0
N431 N 0.37055 0.13195 0.16819 0.0
H432 H 0.9827 0.32249 0.11902 0.0
H433 H 0.98576 0.21021 0.10876 0.0
H434 H 0.92935 0.25958 0.20233 0.0
H435 H 1.03923 0.27132 0.009 0.0
H436 H 0.96545 0.22875 0.14505 0.0
H437 H 1.00443 0.30496 0.08262 0.0
C438 C 0.97561 0.30505 0.13026 0.0
C439 C 0.95407 0.29248 0.1631 0.0
C440 C 0.9816 0.23818 0.11508 0.0
C441 C 0.97876 0.27231 0.12095 0.0
C442 C 0.99326 0.22756 0.09417 0.0
C443 C 1.01431 0.23918 0.05578 0.0
C444 C 0.99097 0.26072 0.09795 0.0
C445 C 1.02304 0.26167 0.03834 0.0
C446 C 0.98797 0.29504 0.10886 0.0
C447 C 0.9457 0.26991 0.17564 0.0
N448 N 1.01136 0.27173 0.05982 0.0
N449 N 0.95801 0.26062 0.15451 0.0
H450 H 0.82575 0.79481 0.97914 0.0
H451 H 0.83062 0.69746 0.24731 0.0
H452 H 0.88273 0.80199 0.12334 0.0
H453 H 0.77517 0.6872 0.08179 0.0
H454 H 0.84919 0.73617 0.2064 0.0
H455 H 0.80645 0.75566 0.0174 0.0
C456 C 0.83425 0.78818 0.01836 0.0
C457 C 0.85593 0.80179 0.0481 0.0
C458 C 0.83294 0.72551 0.179 0.0
C459 C 0.83385 0.75703 0.09269 0.0
C460 C 0.82222 0.70337 0.20308 0.0
C461 C 0.80121 0.68898 0.16841 0.0
C462 C 0.82264 0.7335 0.11979 0.0
C463 C 0.79141 0.69762 0.10963 0.0
C464 C 0.8232 0.76583 0.0403 0.0
C465 C 0.86606 0.79223 0.09887 0.0
N466 N 0.80218 0.71931 0.08733 0.0
N467 N 0.85493 0.77054 0.11971 0.0
H468 H 0.0756 0.44522 0.41157 0.0
H469 H 0.96018 0.44093 0.44511 0.0
H470 H 0.06441 0.49124 0.5659 0.0
H471 H 0.96721 0.38939 0.31662 0.0
H472 H 0.99897 0.46026 0.48148 0.0
H473 H 1.03668 0.42515 0.36921 0.0
C474 C 0.06499 0.4511 0.43659 0.0
C475 C 0.07333 0.46992 0.49287 0.0
C476 C 0.99212 0.44474 0.44525 0.0
C477 C 1.0288 0.44706 0.44441 0.0
C478 C 0.96987 0.43365 0.42409 0.0
C479 C 0.96027 0.41338 0.37789 0.0
C480 C 1.00511 0.43564 0.42007 0.0
C481 C 0.97386 0.40493 0.35242 0.0
C482 C 1.04276 0.4396 0.41261 0.0
C483 C 0.05874 0.47666 0.52375 0.0
N484 N 0.9956 0.41609 0.37399 0.0
N485 N 1.0373 0.46532 0.49893 0.0
H486 H 0.6036 0.59856 0.58362 0.0
H487 H 0.70504 0.60302 0.31284 0.0
H488 H 0.64758 0.65337 0.413 0.0
H489 H 0.65597 0.54636 0.46018 0.0
H490 H 0.68519 0.62235 0.35088 0.0
H491 H 0.62388 0.58008 0.54356 0.0
C492 C 0.61768 0.60684 0.53844 0.0
C493 C 0.62392 0.62764 0.50207 0.0
C494 C 0.67877 0.60567 0.37455 0.0
C495 C 0.64716 0.6063 0.45445 0.0
C496 C 0.69007 0.5946 0.35275 0.0
C497 C 0.68221 0.573 0.38337 0.0
C498 C 0.65952 0.5951 0.4277 0.0
C499 C 0.66273 0.56297 0.43499 0.0
C500 C 0.62917 0.59617 0.51486 0.0
C501 C 0.64207 0.63729 0.44217 0.0
N502 N 0.65215 0.5741 0.45567 0.0
N503 N 0.65307 0.62657 0.42038 0.0
H504 H 0.55064 0.13618 0.45269 0.0
H505 H 0.43952 1.02065 0.42143 0.0
H506 H 0.49231 0.12836 0.3188 0.0
H507 H 0.4969 0.03163 0.57392 0.0
H508 H 0.45849 0.05948 0.3779 0.0
H509 H 0.53126 0.09741 0.49116 0.0
C510 C 0.53375 0.12631 0.43092 0.0
C511 C 0.52311 0.13567 0.38251 0.0
C512 C 0.46688 0.05338 0.42113 0.0
C513 C 0.50065 0.09093 0.42704 0.0
C514 C 0.45609 0.0312 0.44578 0.0
C515 C 0.46657 1.02282 0.50185 0.0
C516 C 0.48838 0.06728 0.45214 0.0
C517 C 0.48799 0.03734 0.53194 0.0
C518 C 0.52264 0.1041 0.45325 0.0
C519 C 0.50119 0.1219 0.35623 0.0
N520 N 0.49815 0.05876 0.50654 0.0
N521 N 0.49067 0.10024 0.37897 0.0
H522 H 0.12983 0.10221 0.1332 0.0
H523 H 0.11918 0.20329 0.93985 0.0
H524 H 0.17899 0.15381 0.96387 0.0
H525 H 0.06761 0.14847 0.08716 0.0
H526 H 0.1414 0.18558 0.94843 0.0
H527 H 0.10696 0.11911 0.11825 0.0
C528 C 0.13584 0.11713 0.09303 0.0
C529 C 0.1564 0.1266 0.04986 0.0
C530 C 0.1252 0.17739 0.9786 0.0
C531 C 0.13022 0.14605 0.0321 0.0
C532 C 0.11248 0.18751 0.97378 0.0
C533 C 0.09146 0.1774 0.01291 0.0
C534 C 0.11692 0.15703 0.0233 0.0
C535 C 0.0837 0.15692 0.05595 0.0
C536 C 0.12272 0.12672 0.0841 0.0
C537 C 0.16318 0.14578 -0.00245 0.0
N538 N 0.09644 0.14748 0.06023 0.0
N539 N 0.15018 0.15491 -0.00949 0.0
H540 H 0.89325 0.9431 0.93561 0.0
H541 H 0.99373 0.0537 0.13832 0.0
H542 H 0.9472 0.94532 0.08753 0.0
H543 H 0.9435 0.05235 0.96192 0.0
H544 H 0.97665 1.01395 0.12215 0.0
H545 H 0.91116 0.98301 0.94559 0.0
C546 C 0.90887 0.95194 0.97087 0.0
C547 C 0.91868 0.94075 0.01084 0.0
C548 C 0.96939 1.02234 0.08671 0.0
C549 C 0.93928 0.98656 0.02284 0.0
C550 C 0.97908 0.04505 0.09631 0.0
C551 C 0.97004 0.05643 0.05153 0.0
C552 C 0.95038 1.01082 0.03242 0.0
C553 C 0.95119 0.04433 -0.00308 0.0
C554 C 0.91911 0.97477 0.97648 0.0
C555 C 0.93898 0.95318 0.0556 0.0
N556 N 0.94195 1.02221 -0.01072 0.0
N557 N 0.94854 0.97536 0.06062 0.0
H558 H 1.04302 0.91553 0.96087 0.0
H559 H 0.15027 1.02946 0.08603 0.0
H560 H 1.0421 0.96559 0.13045 0.0
H561 H 0.15196 0.97647 0.94264 0.0
H562 H 0.11049 1.00718 0.09508 0.0
H563 H 0.08265 0.93851 0.94524 0.0
C564 C 0.05112 0.93144 -0.00578 0.0
C565 C 1.03915 0.93862 0.04705 0.0
C566 C 0.11955 1.00043 0.06154 0.0
C567 C 0.08467 0.96501 0.03004 0.0
C568 C 0.14231 1.01317 0.05614 0.0
C569 C 0.15457 1.00485 0.01356 0.0
C570 C 0.10886 0.97919 0.02388 0.0
C571 C 0.14325 0.98359 0.97624 0.0
C572 C 0.07379 0.9445 0.98576 0.0
C573 C 0.05064 0.95927 0.0899 0.0
N574 N 0.12107 0.97152 0.98229 0.0
N575 N 0.07272 0.97172 0.08036 0.0
H576 H 0.78649 0.5368 0.27898 0.0
H577 H 0.79471 0.43157 0.43132 0.0
H578 H 0.73291 0.47918 0.40266 0.0
H579 H 0.84906 0.49144 0.32722 0.0
H580 H 0.77107 0.44758 0.41208 0.0
H581 H 0.80887 0.51937 0.28745 0.0
C582 C 0.77936 0.52044 0.30762 0.0
C583 C 0.75774 0.50951 0.34036 0.0
C584 C 0.78816 0.45719 0.39331 0.0
C585 C 0.78343 0.48938 0.35048 0.0
C586 C 0.80164 0.44801 0.40377 0.0
C587 C 0.82397 0.46021 0.38143 0.0
C588 C 0.79701 0.47871 0.35975 0.0
C589 C 0.83206 0.48153 0.34686 0.0
C590 C 0.7922 0.51049 0.31256 0.0
C591 C 0.74948 0.48829 0.3767 0.0
N592 N 0.81862 0.49007 0.33723 0.0
N593 N 0.76234 0.47896 0.38094 0.0
H594 H 0.6017 0.38453 0.33379 0.0
H595 H 0.61661 0.27959 0.388 0.0
H596 H 0.66262 0.38852 0.41285 0.0
H597 H 0.55746 0.27639 0.28617 0.0
H598 H 0.63383 0.31942 0.39607 0.0
H599 H 0.58535 0.34497 0.31507 0.0
C600 C 0.61165 0.37709 0.34743 0.0
C601 C 0.63356 0.38991 0.37559 0.0
C602 C 0.61712 0.31002 0.3716 0.0
C603 C 0.61491 0.34447 0.35362 0.0
C604 C 0.60723 0.28723 0.367 0.0
C605 C 0.58548 0.27452 0.33649 0.0
C606 C 0.60519 0.32029 0.34602 0.0
C607 C 0.57423 0.28545 0.31009 0.0
C608 C 0.60232 0.35448 0.3362 0.0
C609 C 0.64573 0.37934 0.39048 0.0
N610 N 0.58418 0.30766 0.31586 0.0
N611 N 0.63621 0.35725 0.37986 0.0
H612 H 0.70925 0.25145 0.28083 0.0
H613 H 0.8173 0.36287 0.42451 0.0
H614 H 0.70925 0.29878 0.47134 0.0
H615 H 0.81838 0.3113 0.26652 0.0
H616 H 0.7775 0.34083 0.43303 0.0
H617 H 0.74889 0.2744 0.26512 0.0
C618 C 0.71755 0.26676 0.31878 0.0
C619 C 0.70586 0.27318 0.37753 0.0
C620 C 0.78643 0.33434 0.3964 0.0
C621 C 0.75137 0.2995 0.36038 0.0
C622 C 0.8092 0.34695 0.39124 0.0
C623 C 0.82129 0.33895 0.34475 0.0
C624 C 0.77556 0.31356 0.35448 0.0
C625 C 0.8098 0.31815 0.30327 0.0
C626 C 0.74023 0.27979 0.31025 0.0
C627 C 0.71759 0.29305 0.42606 0.0
N628 N 0.78761 0.3062 0.3091 0.0
N629 N 0.73966 0.3055 0.41631 0.0
H630 H 0.51388 0.82151 0.62828 0.0
H631 H 0.40001 0.81469 0.75415 0.0
H632 H 0.4638 0.77015 0.79536 0.0
H633 H 0.45272 0.86967 0.61228 0.0
H634 H 0.42234 0.79718 0.76188 0.0
H635 H 0.49089 0.83828 0.61334 0.0
C636 C 0.49797 0.81365 0.66123 0.0
C637 C 0.49079 0.79436 0.71321 0.0
C638 C 0.42903 0.81306 0.72896 0.0
C639 C 0.4644 0.81362 0.69697 0.0
C640 C 0.41626 0.8231 0.72433 0.0
C641 C 0.42448 0.84376 0.68257 0.0
C642 C 0.45021 0.82368 0.69139 0.0
C643 C 0.44569 0.85377 0.64525 0.0
C644 C 0.48491 0.82332 0.65316 0.0
C645 C 0.47014 0.78513 0.75552 0.0
N646 N 0.4578 0.84364 0.65058 0.0
N647 N 0.45769 0.79482 0.74639 0.0
H648 H 0.22635 0.60999 0.59968 0.0
H649 H 0.32683 0.72058 0.80257 0.0
H650 H 0.2805 0.61226 0.75005 0.0
H651 H 0.27633 0.7192 0.62791 0.0
H652 H 0.30982 0.68084 0.78585 0.0
H653 H 0.24416 0.64989 0.61041 0.0
C654 C 0.242 0.61884 0.63474 0.0
C655 C 0.2519 0.60767 0.67406 0.0
C656 C 0.30248 0.68923 0.75092 0.0
C657 C 0.27238 0.65346 0.68693 0.0
C658 C 0.31214 0.71192 0.76084 0.0
C659 C 0.303 0.72329 0.71667 0.0
C660 C 0.28342 0.6777 0.69693 0.0
C661 C 0.28409 0.71119 0.66241 0.0
C662 C 0.25218 0.64166 0.64079 0.0
C663 C 0.27222 0.62011 0.71861 0.0
N664 N 0.2749 0.68909 0.65444 0.0
N665 N 0.28172 0.64227 0.72407 0.0
H666 H 0.48378 0.69574 0.75237 0.0
H667 H 0.37621 0.58285 0.61898 0.0
H668 H 0.48535 0.64336 0.60308 0.0
H669 H 0.37573 0.63194 0.79687 0.0
H670 H 0.41587 0.60577 0.60346 0.0
H671 H 0.44401 0.67357 0.76071 0.0
C672 C 0.4758 0.6796 0.72102 0.0
C673 C 0.48803 0.67143 0.67702 0.0
C674 C 0.40709 0.61156 0.64577 0.0
C675 C 0.44229 0.64587 0.68652 0.0
C676 C 0.38441 0.59854 0.65419 0.0
C677 C 0.37256 0.60546 0.70936 0.0
C678 C 0.4181 0.63176 0.69242 0.0
C679 C 0.38418 0.62581 0.75447 0.0
C680 C 0.45303 0.66692 0.72602 0.0
C681 C 0.47666 0.65036 0.63782 0.0
N682 N 0.40625 0.63823 0.74492 0.0
N683 N 0.45447 0.63833 0.64352 0.0
H684 H 1.00862 0.18704 0.72073 0.0
H685 H 0.09708 0.22925 0.30927 0.0
H686 H 0.0777 0.21362 0.76748 0.0
H687 H 1.02756 0.1992 0.2638 0.0
H688 H 0.09052 0.22398 0.47724 0.0
H689 H 1.01539 0.19196 0.55314 0.0
C690 C 1.02523 0.19398 0.69558 0.0
C691 C 1.04263 0.19998 0.75787 0.0
C692 C 0.07669 0.21849 0.43056 0.0
C693 C 0.05055 0.20563 0.56615 0.0
C694 C 0.08043 0.22148 0.33474 0.0
C695 C 0.06283 0.21471 0.27279 0.0
C696 C 0.05518 0.2087 0.4646 0.0
C697 C 1.04159 0.2047 0.30926 0.0
C698 C 1.0291 0.19676 0.59991 0.0
C699 C 0.06383 0.20888 0.72172 0.0
N700 N 1.03836 0.20206 0.40274 0.0
N701 N 0.0672 0.21144 0.62821 0.0
H702 H 0.88204 0.89144 0.76522 0.0
H703 H 0.89712 0.85474 0.25515 0.0
H704 H 0.90872 0.84912 0.71335 0.0
H705 H 0.86651 0.89361 0.30594 0.0
H706 H 0.90259 0.85357 0.42265 0.0
H707 H 0.87686 0.89317 0.59744 0.0
C708 C 0.8867 0.88243 0.71843 0.0
C709 C 0.89574 0.87005 0.75297 0.0
C710 C 0.89469 0.86238 0.39735 0.0
C711 C 0.8901 0.87212 0.56109 0.0
C712 C 0.89161 0.86309 0.3017 0.0
C713 C 0.88128 0.87423 0.2669 0.0
C714 C 0.88742 0.87292 0.45877 0.0
C715 C 0.8745 0.8848 0.33013 0.0
C716 C 0.88381 0.88347 0.62269 0.0
C717 C 0.90168 0.85884 0.68945 0.0
N718 N 0.87766 0.88386 0.4231 0.0
N719 N 0.89878 0.86016 0.59658 0.0
H720 H 0.20254 1.01707 0.76473 0.0
H721 H 0.24111 0.06865 0.25557 0.0
H722 H 0.24681 0.08567 0.71384 0.0
H723 H 0.20086 0.99934 0.30562 0.0
H724 H 0.24215 0.07528 0.42301 0.0
H725 H 0.20079 1.0102 0.59692 0.0
C726 C 0.21199 1.03066 0.71817 0.0
C727 C 0.22495 0.05195 0.753 0.0
C728 C 0.23306 0.05861 0.39755 0.0
C729 C 0.22283 0.0443 0.56108 0.0
C730 C 0.23243 0.05483 0.30193 0.0
C731 C 0.22094 0.03341 0.26695 0.0
C732 C 0.22208 0.04084 0.45875 0.0
C733 C 0.20995 1.01611 0.32996 0.0
C734 C 0.21093 1.02675 0.6224 0.0
C735 C 0.23665 0.069 0.68972 0.0
N736 N 0.21081 1.02019 0.42289 0.0
N737 N 0.2353 0.06481 0.59685 0.0
H738 H 0.76382 0.56148 0.63769 0.0
H739 H 0.67541 0.52031 0.04928 0.0
H740 H 0.6944 0.53247 0.59223 0.0
H741 H 0.74435 0.54597 0.09584 0.0
H742 H 0.6822 0.52524 0.88168 0.0
H743 H 0.75722 0.55626 0.80565 0.0
C744 C 0.74719 0.55395 0.66316 0.0
C745 C 0.72963 0.54745 0.6012 0.0
C746 C 0.69587 0.52983 0.92841 0.0
C747 C 0.72193 0.5415 0.79303 0.0
C748 C 0.692 0.52705 0.02409 0.0
C749 C 0.70935 0.53278 0.08634 0.0
C750 C 0.71729 0.53844 0.8946 0.0
C751 C 0.73052 0.54143 0.05013 0.0
C752 C 0.74342 0.55099 0.75898 0.0
C753 C 0.7084 0.53775 0.63769 0.0
N754 N 0.73391 0.544 0.95662 0.0
N755 N 0.70516 0.53513 0.73117 0.0
H756 H 0.53376 0.2287 0.63362 0.0
H757 H 0.57515 0.18149 0.04649 0.0
H758 H 0.56332 0.18865 0.58918 0.0
H759 H 0.54909 0.22456 0.09214 0.0
H760 H 0.57033 0.18345 0.87875 0.0
H761 H 0.53893 0.22727 0.80172 0.0
C762 C 0.54141 0.21967 0.65935 0.0
C763 C 0.54807 0.20872 0.59765 0.0
C764 C 0.56563 0.19246 0.92532 0.0
C765 C 0.55395 0.20691 0.7896 0.0
C766 C 0.56834 0.19131 0.02107 0.0
C767 C 0.56246 0.20284 0.08308 0.0
C768 C 0.55694 0.20525 0.89122 0.0
C769 C 0.55373 0.21533 0.04659 0.0
C770 C 0.54433 0.21883 0.75523 0.0
C771 C 0.55791 0.19728 0.63444 0.0
N772 N 0.55123 0.21621 0.95302 0.0
N773 N 0.5605 0.19662 0.72798 0.0
H774 H 0.90827 0.40217 0.58735 0.0
H775 H 0.86976 0.35061 0.09676 0.0
H776 H 0.86793 0.33289 0.63757 0.0
H777 H 0.9134 0.41932 0.04562 0.0
H778 H 0.86816 0.34372 0.92899 0.0
H779 H 0.90934 0.40883 0.75482 0.0
C780 C 0.89958 0.38836 0.63375 0.0
C781 C 0.88804 0.36694 0.59878 0.0
C782 C 0.87812 0.3603 0.9544 0.0
C783 C 0.88922 0.3744 0.79065 0.0
C784 C 0.87908 0.36422 0.05015 0.0
C785 C 0.89181 0.38556 0.08492 0.0
C786 C 0.8899 0.37787 0.893 0.0
C787 C 0.90341 0.40263 0.02157 0.0
C788 C 0.90022 0.39215 0.7294 0.0
C789 C 0.87705 0.34965 0.66187 0.0
N790 N 0.90217 0.39842 0.92872 0.0
N791 N 0.87793 0.35374 0.75481 0.0
H792 H 0.4119 0.8805 0.43742 0.0
H793 H 0.36015 0.86541 0.92677 0.0
H794 H 0.34306 0.85406 0.38465 0.0
H795 H 0.42949 0.89587 0.97845 0.0
H796 H 0.35354 0.85997 0.09418 0.0
H797 H 0.41876 0.8856 0.26972 0.0
C798 C 0.39825 0.87588 0.39044 0.0
C799 C 0.37689 0.86693 0.42469 0.0
C800 C 0.37021 0.86783 0.06908 0.0
C801 C 0.38455 0.87246 0.23295 0.0
C802 C 0.37398 0.87089 0.9735 0.0
C803 C 0.3954 0.88117 0.939 0.0
C804 C 0.388 0.87508 0.13071 0.0
C805 C 0.41272 0.88792 0.00242 0.0
C806 C 0.40216 0.87872 0.29476 0.0
C807 C 0.35977 0.86103 0.36096 0.0
N808 N 0.40865 0.88479 0.09532 0.0
N809 N 0.36396 0.86388 0.26816 0.0
H810 H 0.23053 0.5217 0.91772 0.0
H811 H 0.21554 0.55848 0.42772 0.0
H812 H 0.19994 0.56058 0.96843 0.0
H813 H 0.24207 0.51603 0.37592 0.0
H814 H 0.21037 0.56021 0.25994 0.0
H815 H 0.23602 0.52054 0.08521 0.0
C816 C 0.22503 0.53005 0.96425 0.0
C817 C 0.2147 0.54119 0.92943 0.0
C818 C 0.21728 0.55048 0.2852 0.0
C819 C 0.22086 0.5399 0.12129 0.0
C820 C 0.22016 0.54944 0.38094 0.0
C821 C 0.22915 0.53702 0.41551 0.0
C822 C 0.22353 0.5391 0.22362 0.0
C823 C 0.23506 0.52578 0.352 0.0
C824 C 0.22812 0.52935 0.0599 0.0
C825 C 0.20793 0.55177 -0.00736 0.0
N826 N 0.23217 0.5271 0.25913 0.0
N827 N 0.21109 0.55084 0.08561 0.0
H828 H 0.53709 0.68361 0.43133 0.0
H829 H 0.57416 0.73526 0.92148 0.0
H830 H 0.57981 0.75247 0.37959 0.0
H831 H 0.53488 0.66587 0.97223 0.0
H832 H 0.57535 0.74192 0.08892 0.0
H833 H 0.53534 0.6767 0.26358 0.0
C834 C 0.54618 0.69725 0.38457 0.0
C835 C 0.55869 0.71863 0.41914 0.0
C836 C 0.56644 0.72522 0.06362 0.0
C837 C 0.55659 0.71092 0.22731 0.0
C838 C 0.56573 0.72142 0.968 0.0
C839 C 0.55447 0.69998 0.93322 0.0
C840 C 0.55579 0.70744 0.12501 0.0
C841 C 0.54379 0.68266 -0.00359 0.0
C842 C 0.54513 0.69332 0.28886 0.0
C843 C 0.57 0.73574 0.35566 0.0
N844 N 0.54474 0.68676 0.08935 0.0
N845 N 0.56867 0.73152 0.26282 0.0
loop_
_geom_bond_atom_site_label_1
_geom_bond_atom_site_label_2
_geom_bond_distance
_geom_bond_site_symmetry_2
_ccdc_geom_bond_type
La0 C2 2.928 1_554 S
La0 O20 2.521 . S
La0 O21 2.628 1_554 S
La0 O22 2.554 . S
La0 O23 2.757 . S
La0 O24 2.470 . S
La0 O29 2.482 1_554 S
La0 O31 2.503 1_554 S
La1 C11 2.927 1_556 S
La1 O23 2.474 1_656 S
La1 O25 2.502 1_556 S
La1 O26 2.524 . S
La1 O27 2.622 1_556 S
La1 O28 2.566 . S
La1 O29 2.763 1_655 S
La1 O30 2.473 1_655 S
C2 La0 2.928 1_556 S
C2 C3 1.503 . S
C2 O20 1.261 1_556 S
C2 O21 1.243 . S
C3 C2 1.503 . S
C3 C4 1.394 1_556 S
C3 C8 1.373 . S
C4 C3 1.394 1_554 S
C4 C5 1.380 . S
C4 H32 0.930 . S
C5 C4 1.380 . S
C5 C6 1.376 1_554 S
C5 H33 0.930 . S
C6 C5 1.376 1_556 S
C6 C7 1.370 . S
C7 C6 1.370 . S
C7 C8 1.396 . S
C7 H34 0.929 . S
C8 C3 1.373 . S
C8 C7 1.396 . S
C8 H35 0.929 . S
C9 O22 1.240 . S
C9 O23 1.289 . S
C10 O24 1.258 1_655 S
C10 O25 1.256 . S
C11 La1 2.927 1_554 S
C11 C12 1.503 . S
C11 O26 1.261 1_554 S
C11 O27 1.243 . S
C12 C11 1.503 . S
C12 C13 1.394 1_554 S
C12 C17 1.373 . S
C13 C12 1.394 1_556 S
C13 C14 1.380 . S
C13 H36 0.930 . S
C14 C13 1.380 . S
C14 C15 1.376 1_556 S
C14 H37 0.930 . S
C15 C14 1.376 1_554 S
C15 C16 1.370 . S
C16 C15 1.370 . S
C16 C17 1.396 . S
C16 H38 0.929 . S
C17 C12 1.373 . S
C17 C16 1.396 . S
C17 H39 0.929 . S
C18 O28 1.240 1_455 S
C18 O29 1.289 . S
C19 O30 1.258 . S
C19 O31 1.256 . S
O20 La0 2.521 . S
O20 C2 1.261 1_554 S
O21 La0 2.628 1_556 S
O21 C2 1.243 . S
O22 La0 2.554 . S
O22 C9 1.240 . S
O23 La0 2.757 . S
O23 La1 2.474 1_454 S
O23 C9 1.289 . S
O24 La0 2.470 . S
O24 C10 1.258 1_455 S
O25 La1 2.502 1_554 S
O25 C10 1.256 . S
O26 La1 2.524 . S
O26 C11 1.261 1_556 S
O27 La1 2.622 1_554 S
O27 C11 1.243 . S
O28 La1 2.566 . S
O28 C18 1.240 1_655 S
O29 La0 2.482 1_556 S
O29 La1 2.763 1_455 S
O29 C18 1.289 . S
O30 La1 2.473 1_455 S
O30 C19 1.258 . S
O31 La0 2.503 1_556 S
O31 C19 1.256 . S
H32 C4 0.930 . S
H33 C5 0.930 . S
H34 C7 0.929 . S
H35 C8 0.929 . S
H36 C13 0.930 . S
H37 C14 0.930 . S
H38 C16 0.929 . S
H39 C17 0.929 . S
La40 C42 2.928 1_554 S
La40 O60 2.521 . S
La40 O61 2.628 1_554 S
La40 O62 2.554 . S
La40 O63 2.757 . S
La40 O64 2.470 . S
La40 O69 2.482 1_554 S
La40 O71 2.503 1_554 S
La41 C51 2.928 1_556 S
La41 O63 2.482 1_556 S
La41 O65 2.503 1_556 S
La41 O66 2.521 . S
La41 O67 2.628 1_556 S
La41 O68 2.554 . S
La41 O69 2.757 . S
La41 O70 2.470 . S
C42 La40 2.928 1_556 S
C42 C43 1.503 . S
C42 O60 1.261 1_556 S
C42 O61 1.243 . S
C43 C42 1.503 . S
C43 C44 1.394 1_556 S
C43 C48 1.373 . S
C44 C43 1.394 1_554 S
C44 C45 1.380 . S
C44 H72 0.930 . S
C45 C44 1.380 . S
C45 C46 1.376 1_554 S
C45 H73 0.930 . S
C46 C45 1.376 1_556 S
C46 C47 1.370 . S
C47 C46 1.370 . S
C47 C48 1.396 . S
C47 H74 0.929 . S
C48 C43 1.373 . S
C48 C47 1.396 . S
C48 H75 0.929 . S
C49 O62 1.240 . S
C49 O63 1.289 . S
C50 O64 1.258 . S
C50 O65 1.256 . S
C51 La41 2.928 1_554 S
C51 C52 1.503 . S
C51 O66 1.261 1_554 S
C51 O67 1.243 . S
C52 C51 1.503 . S
C52 C53 1.394 1_554 S
C52 C57 1.373 . S
C53 C52 1.394 1_556 S
C53 C54 1.380 . S
C53 H76 0.930 . S
C54 C53 1.380 . S
C54 C55 1.376 1_556 S
C54 H77 0.930 . S
C55 C54 1.376 1_554 S
C55 C56 1.370 . S
C56 C55 1.370 . S
C56 C57 1.396 . S
C56 H78 0.929 . S
C57 C52 1.373 . S
C57 C56 1.396 . S
C57 H79 0.929 . S
C58 O68 1.240 . S
C58 O69 1.289 . S
C59 O70 1.258 . S
C59 O71 1.256 . S
O60 La40 2.521 . S
O60 C42 1.261 1_554 S
O61 La40 2.628 1_556 S
O61 C42 1.243 . S
O62 La40 2.554 . S
O62 C49 1.240 . S
O63 La40 2.757 . S
O63 La41 2.482 1_554 S
O63 C49 1.289 . S
O64 La40 2.470 . S
O64 C50 1.258 . S
O65 La41 2.503 1_554 S
O65 C50 1.256 . S
O66 La41 2.521 . S
O66 C51 1.261 1_556 S
O67 La41 2.628 1_554 S
O67 C51 1.243 . S
O68 La41 2.554 . S
O68 C58 1.240 . S
O69 La40 2.482 1_556 S
O69 La41 2.757 . S
O69 C58 1.289 . S
O70 La41 2.470 . S
O70 C59 1.258 . S
O71 La40 2.503 1_556 S
O71 C59 1.256 . S
H72 C44 0.930 . S
H73 C45 0.930 . S
H74 C47 0.929 . S
H75 C48 0.929 . S
H76 C53 0.930 . S
H77 C54 0.930 . S
H78 C56 0.929 . S
H79 C57 0.929 . S
La80 C82 2.928 1_554 S
La80 O100 2.521 . S
La80 O101 2.628 1_554 S
La80 O102 2.554 . S
La80 O103 2.757 1_565 S
La80 O104 2.470 1_565 S
La80 O109 2.482 1_564 S
La80 O111 2.503 1_554 S
La81 C91 2.928 1_556 S
La81 O103 2.482 1_556 S
La81 O105 2.503 1_556 S
La81 O106 2.521 . S
La81 O107 2.628 1_556 S
La81 O108 2.554 . S
La81 O109 2.757 . S
La81 O110 2.470 . S
C82 La80 2.928 1_556 S
C82 C83 1.503 . S
C82 O100 1.261 1_556 S
C82 O101 1.243 . S
C83 C82 1.503 . S
C83 C84 1.394 1_556 S
C83 C88 1.373 . S
C84 C83 1.394 1_554 S
C84 C85 1.380 . S
C84 H112 0.930 . S
C85 C84 1.380 . S
C85 C86 1.376 1_554 S
C85 H113 0.930 . S
C86 C85 1.376 1_556 S
C86 C87 1.370 . S
C87 C86 1.370 . S
C87 C88 1.396 . S
C87 H114 0.929 . S
C88 C83 1.373 . S
C88 C87 1.396 . S
C88 H115 0.929 . S
C89 O102 1.240 1_545 S
C89 O103 1.289 . S
C90 O104 1.258 . S
C90 O105 1.256 . S
C91 La81 2.928 1_554 S
C91 C92 1.503 . S
C91 O106 1.261 1_554 S
C91 O107 1.243 . S
C92 C91 1.503 . S
C92 C93 1.394 1_554 S
C92 C97 1.373 . S
C93 C92 1.394 1_556 S
C93 C94 1.380 . S
C93 H116 0.930 . S
C94 C93 1.380 . S
C94 C95 1.376 1_556 S
C94 H117 0.930 . S
C95 C94 1.376 1_554 S
C95 C96 1.370 . S
C96 C95 1.370 . S
C96 C97 1.396 . S
C96 H118 0.929 . S
C97 C92 1.373 . S
C97 C96 1.396 . S
C97 H119 0.929 . S
C98 O108 1.240 . S
C98 O109 1.289 . S
C99 O110 1.258 1_565 S
C99 O111 1.256 . S
O100 La80 2.521 . S
O100 C82 1.261 1_554 S
O101 La80 2.628 1_556 S
O101 C82 1.243 . S
O102 La80 2.554 . S
O102 C89 1.240 1_565 S
O103 La80 2.757 1_545 S
O103 La81 2.482 1_554 S
O103 C89 1.289 . S
O104 La80 2.470 1_545 S
O104 C90 1.258 . S
O105 La81 2.503 1_554 S
O105 C90 1.256 . S
O106 La81 2.521 . S
O106 C91 1.261 1_556 S
O107 La81 2.628 1_554 S
O107 C91 1.243 . S
O108 La81 2.554 . S
O108 C98 1.240 . S
O109 La80 2.482 1_546 S
O109 La81 2.757 . S
O109 C98 1.289 . S
O110 La81 2.470 . S
O110 C99 1.258 1_545 S
O111 La80 2.503 1_556 S
O111 C99 1.256 . S
H112 C84 0.930 . S
H113 C85 0.930 . S
H114 C87 0.929 . S
H115 C88 0.929 . S
H116 C93 0.930 . S
H117 C94 0.930 . S
H118 C96 0.929 . S
H119 C97 0.929 . S
La120 C122 2.928 . S
La120 O140 2.521 . S
La120 O141 2.628 . S
La120 O142 2.554 . S
La120 O143 2.757 . S
La120 O144 2.470 . S
La120 O149 2.482 . S
La120 O151 2.503 . S
La121 C131 2.928 . S
La121 O143 2.482 . S
La121 O145 2.503 . S
La121 O146 2.521 . S
La121 O147 2.628 . S
La121 O148 2.554 . S
La121 O149 2.757 . S
La121 O150 2.470 . S
C122 La120 2.928 . S
C122 C123 1.503 . S
C122 O140 1.261 . S
C122 O141 1.243 . S
C123 C122 1.503 . S
C123 C124 1.394 . S
C123 C128 1.373 . S
C124 C123 1.394 . S
C124 C125 1.380 . S
C124 H152 0.930 . S
C125 C124 1.380 . S
C125 C126 1.376 . S
C125 H153 0.930 . S
C126 C125 1.376 . S
C126 C127 1.370 . S
C127 C126 1.370 . S
C127 C128 1.396 . S
C127 H154 0.929 . S
C128 C123 1.373 . S
C128 C127 1.396 . S
C128 H155 0.929 . S
C129 O142 1.240 . S
C129 O143 1.289 . S
C130 O144 1.258 . S
C130 O145 1.256 . S
C131 La121 2.928 . S
C131 C132 1.503 . S
C131 O146 1.261 . S
C131 O147 1.243 . S
C132 C131 1.503 . S
C132 C133 1.394 . S
C132 C137 1.373 . S
C133 C132 1.394 . S
C133 C134 1.380 . S
C133 H156 0.930 . S
C134 C133 1.380 . S
C134 C135 1.376 . S
C134 H157 0.930 . S
C135 C134 1.376 . S
C135 C136 1.370 . S
C136 C135 1.370 . S
C136 C137 1.396 . S
C136 H158 0.929 . S
C137 C132 1.373 . S
C137 C136 1.396 . S
C137 H159 0.929 . S
C138 O148 1.240 . S
C138 O149 1.289 . S
C139 O150 1.258 . S
C139 O151 1.256 . S
O140 La120 2.521 . S
O140 C122 1.261 . S
O141 La120 2.628 . S
O141 C122 1.243 . S
O142 La120 2.554 . S
O142 C129 1.240 . S
O143 La120 2.757 . S
O143 La121 2.482 . S
O143 C129 1.289 . S
O144 La120 2.470 . S
O144 C130 1.258 . S
O145 La121 2.503 . S
O145 C130 1.256 . S
O146 La121 2.521 . S
O146 C131 1.261 . S
O147 La121 2.628 . S
O147 C131 1.243 . S
O148 La121 2.554 . S
O148 C138 1.240 . S
O149 La120 2.482 . S
O149 La121 2.757 . S
O149 C138 1.289 . S
O150 La121 2.470 . S
O150 C139 1.258 . S
O151 La120 2.503 . S
O151 C139 1.256 . S
H152 C124 0.930 . S
H153 C125 0.930 . S
H154 C127 0.929 . S
H155 C128 0.929 . S
H156 C133 0.930 . S
H157 C134 0.930 . S
H158 C136 0.929 . S
H159 C137 0.929 . S
La160 C162 2.928 . S
La160 O180 2.521 . S
La160 O181 2.628 . S
La160 O182 2.554 . S
La160 O183 2.757 . S
La160 O184 2.470 . S
La160 O189 2.482 . S
La160 O191 2.503 . S
La161 C171 2.928 . S
La161 O183 2.482 . S
La161 O185 2.503 . S
La161 O186 2.521 . S
La161 O187 2.628 . S
La161 O188 2.554 . S
La161 O189 2.757 . S
La161 O190 2.470 . S
C162 La160 2.928 . S
C162 C163 1.503 . S
C162 O180 1.261 . S
C162 O181 1.243 . S
C163 C162 1.503 . S
C163 C164 1.394 . S
C163 C168 1.373 . S
C164 C163 1.394 . S
C164 C165 1.380 . S
C164 H192 0.930 . S
C165 C164 1.380 . S
C165 C166 1.376 . S
C165 H193 0.930 . S
C166 C165 1.376 . S
C166 C167 1.370 . S
C167 C166 1.370 . S
C167 C168 1.396 . S
C167 H194 0.929 . S
C168 C163 1.373 . S
C168 C167 1.396 . S
C168 H195 0.929 . S
C169 O182 1.240 . S
C169 O183 1.289 . S
C170 O184 1.258 . S
C170 O185 1.256 . S
C171 La161 2.928 . S
C171 C172 1.503 . S
C171 O186 1.261 . S
C171 O187 1.243 . S
C172 C171 1.503 . S
C172 C173 1.394 . S
C172 C177 1.373 . S
C173 C172 1.394 . S
C173 C174 1.380 . S
C173 H196 0.930 . S
C174 C173 1.380 . S
C174 C175 1.376 . S
C174 H197 0.930 . S
C175 C174 1.376 . S
C175 C176 1.370 . S
C176 C175 1.370 . S
C176 C177 1.396 . S
C176 H198 0.929 . S
C177 C172 1.373 . S
C177 C176 1.396 . S
C177 H199 0.929 . S
C178 O188 1.240 . S
C178 O189 1.289 . S
C179 O190 1.258 . S
C179 O191 1.256 . S
O180 La160 2.521 . S
O180 C162 1.261 . S
O181 La160 2.628 . S
O181 C162 1.243 . S
O182 La160 2.554 . S
O182 C169 1.240 . S
O183 La160 2.757 . S
O183 La161 2.482 . S
O183 C169 1.289 . S
O184 La160 2.470 . S
O184 C170 1.258 . S
O185 La161 2.503 . S
O185 C170 1.256 . S
O186 La161 2.521 . S
O186 C171 1.261 . S
O187 La161 2.628 . S
O187 C171 1.243 . S
O188 La161 2.554 . S
O188 C178 1.240 . S
O189 La160 2.482 . S
O189 La161 2.757 . S
O189 C178 1.289 . S
O190 La161 2.470 . S
O190 C179 1.258 . S
O191 La160 2.503 . S
O191 C179 1.256 . S
H192 C164 0.930 . S
H193 C165 0.930 . S
H194 C167 0.929 . S
H195 C168 0.929 . S
H196 C173 0.930 . S
H197 C174 0.930 . S
H198 C176 0.929 . S
H199 C177 0.929 . S
La200 C202 2.928 . S
La200 O220 2.521 . S
La200 O221 2.628 . S
La200 O222 2.554 . S
La200 O223 2.757 . S
La200 O224 2.470 . S
La200 O229 2.482 . S
La200 O231 2.503 . S
La201 C211 2.928 . S
La201 O223 2.482 . S
La201 O225 2.503 . S
La201 O226 2.521 . S
La201 O227 2.628 . S
La201 O228 2.554 . S
La201 O229 2.757 . S
La201 O230 2.470 . S
C202 La200 2.928 . S
C202 C203 1.503 . S
C202 O220 1.261 . S
C202 O221 1.243 . S
C203 C202 1.503 . S
C203 C204 1.394 . S
C203 C208 1.373 . S
C204 C203 1.394 . S
C204 C205 1.380 . S
C204 H232 0.930 . S
C205 C204 1.380 . S
C205 C206 1.376 . S
C205 H233 0.930 . S
C206 C205 1.376 . S
C206 C207 1.370 . S
C207 C206 1.370 . S
C207 C208 1.396 . S
C207 H234 0.929 . S
C208 C203 1.373 . S
C208 C207 1.396 . S
C208 H235 0.929 . S
C209 O222 1.240 . S
C209 O223 1.289 . S
C210 O224 1.258 . S
C210 O225 1.256 . S
C211 La201 2.928 . S
C211 C212 1.503 . S
C211 O226 1.261 . S
C211 O227 1.243 . S
C212 C211 1.503 . S
C212 C213 1.394 . S
C212 C217 1.373 . S
C213 C212 1.394 . S
C213 C214 1.380 . S
C213 H236 0.930 . S
C214 C213 1.380 . S
C214 C215 1.376 . S
C214 H237 0.930 . S
C215 C214 1.376 . S
C215 C216 1.370 . S
C216 C215 1.370 . S
C216 C217 1.396 . S
C216 H238 0.929 . S
C217 C212 1.373 . S
C217 C216 1.396 . S
C217 H239 0.929 . S
C218 O228 1.240 . S
C218 O229 1.289 . S
C219 O230 1.258 . S
C219 O231 1.256 . S
O220 La200 2.521 . S
O220 C202 1.261 . S
O221 La200 2.628 . S
O221 C202 1.243 . S
O222 La200 2.554 . S
O222 C209 1.240 . S
O223 La200 2.757 . S
O223 La201 2.482 . S
O223 C209 1.289 . S
O224 La200 2.470 . S
O224 C210 1.258 . S
O225 La201 2.503 . S
O225 C210 1.256 . S
O226 La201 2.521 . S
O226 C211 1.261 . S
O227 La201 2.628 . S
O227 C211 1.243 . S
O228 La201 2.554 . S
O228 C218 1.240 . S
O229 La200 2.482 . S
O229 La201 2.757 . S
O229 C218 1.289 . S
O230 La201 2.470 . S
O230 C219 1.258 . S
O231 La200 2.503 . S
O231 C219 1.256 . S
H232 C204 0.930 . S
H233 C205 0.930 . S
H234 C207 0.929 . S
H235 C208 0.929 . S
H236 C213 0.930 . S
H237 C214 0.930 . S
H238 C216 0.929 . S
H239 C217 0.929 . S
La240 C242 2.928 . S
La240 O260 2.521 . S
La240 O261 2.628 . S
La240 O262 2.554 . S
La240 O263 2.757 . S
La240 O264 2.470 . S
La240 O269 2.482 . S
La240 O271 2.503 . S
La241 C251 2.928 . S
La241 O263 2.482 . S
La241 O265 2.503 . S
La241 O266 2.521 . S
La241 O267 2.628 . S
La241 O268 2.554 . S
La241 O269 2.757 . S
La241 O270 2.470 . S
C242 La240 2.928 . S
C242 C243 1.503 . S
C242 O260 1.261 . S
C242 O261 1.243 . S
C243 C242 1.503 . S
C243 C244 1.394 . S
C243 C248 1.373 . S
C244 C243 1.394 . S
C244 C245 1.380 . S
C244 H272 0.930 . S
C245 C244 1.380 . S
C245 C246 1.376 . S
C245 H273 0.930 . S
C246 C245 1.376 . S
C246 C247 1.370 . S
C247 C246 1.370 . S
C247 C248 1.396 . S
C247 H274 0.929 . S
C248 C243 1.373 . S
C248 C247 1.396 . S
C248 H275 0.929 . S
C249 O262 1.240 . S
C249 O263 1.289 . S
C250 O264 1.258 . S
C250 O265 1.256 . S
C251 La241 2.928 . S
C251 C252 1.503 . S
C251 O266 1.261 . S
C251 O267 1.243 . S
C252 C251 1.503 . S
C252 C253 1.394 . S
C252 C257 1.373 . S
C253 C252 1.394 . S
C253 C254 1.380 . S
C253 H276 0.930 . S
C254 C253 1.380 . S
C254 C255 1.376 . S
C254 H277 0.930 . S
C255 C254 1.376 . S
C255 C256 1.370 . S
C256 C255 1.370 . S
C256 C257 1.396 . S
C256 H278 0.929 . S
C257 C252 1.373 . S
C257 C256 1.396 . S
C257 H279 0.929 . S
C258 O268 1.240 . S
C258 O269 1.289 . S
C259 O270 1.258 . S
C259 O271 1.256 . S
O260 La240 2.521 . S
O260 C242 1.261 . S
O261 La240 2.628 . S
O261 C242 1.243 . S
O262 La240 2.554 . S
O262 C249 1.240 . S
O263 La240 2.757 . S
O263 La241 2.482 . S
O263 C249 1.289 . S
O264 La240 2.470 . S
O264 C250 1.258 . S
O265 La241 2.503 . S
O265 C250 1.256 . S
O266 La241 2.521 . S
O266 C251 1.261 . S
O267 La241 2.628 . S
O267 C251 1.243 . S
O268 La241 2.554 . S
O268 C258 1.240 . S
O269 La240 2.482 . S
O269 La241 2.757 . S
O269 C258 1.289 . S
O270 La241 2.470 . S
O270 C259 1.258 . S
O271 La240 2.503 . S
O271 C259 1.256 . S
H272 C244 0.930 . S
H273 C245 0.930 . S
H274 C247 0.929 . S
H275 C248 0.929 . S
H276 C253 0.930 . S
H277 C254 0.930 . S
H278 C256 0.929 . S
H279 C257 0.929 . S
La280 C282 2.928 . S
La280 O300 2.521 . S
La280 O301 2.628 . S
La280 O302 2.554 . S
La280 O303 2.757 . S
La280 O304 2.470 . S
La280 O309 2.482 . S
La280 O311 2.503 . S
La281 C291 2.928 . S
La281 O303 2.482 . S
La281 O305 2.503 . S
La281 O306 2.521 . S
La281 O307 2.628 . S
La281 O308 2.554 . S
La281 O309 2.757 . S
La281 O310 2.470 . S
C282 La280 2.928 . S
C282 C283 1.503 . S
C282 O300 1.261 . S
C282 O301 1.243 . S
C283 C282 1.503 . S
C283 C284 1.394 . S
C283 C288 1.373 . S
C284 C283 1.394 . S
C284 C285 1.380 . S
C284 H312 0.930 . S
C285 C284 1.380 . S
C285 C286 1.376 . S
C285 H313 0.930 . S
C286 C285 1.376 . S
C286 C287 1.370 . S
C287 C286 1.370 . S
C287 C288 1.396 . S
C287 H314 0.929 . S
C288 C283 1.373 . S
C288 C287 1.396 . S
C288 H315 0.929 . S
C289 O302 1.240 . S
C289 O303 1.289 . S
C290 O304 1.258 . S
C290 O305 1.256 . S
C291 La281 2.928 . S
C291 C292 1.503 . S
C291 O306 1.261 . S
C291 O307 1.243 . S
C292 C291 1.503 . S
C292 C293 1.394 . S
C292 C297 1.373 . S
C293 C292 1.394 . S
C293 C294 1.380 . S
C293 H316 0.930 . S
C294 C293 1.380 . S
C294 C295 1.376 . S
C294 H317 0.930 . S
C295 C294 1.376 . S
C295 C296 1.370 . S
C296 C295 1.370 . S
C296 C297 1.396 . S
C296 H318 0.929 . S
C297 C292 1.373 . S
C297 C296 1.396 . S
C297 H319 0.929 . S
C298 O308 1.240 . S
C298 O309 1.289 . S
C299 O310 1.258 . S
C299 O311 1.256 . S
O300 La280 2.521 . S
O300 C282 1.261 . S
O301 La280 2.628 . S
O301 C282 1.243 . S
O302 La280 2.554 . S
O302 C289 1.240 . S
O303 La280 2.757 . S
O303 La281 2.482 . S
O303 C289 1.289 . S
O304 La280 2.470 . S
O304 C290 1.258 . S
O305 La281 2.503 . S
O305 C290 1.256 . S
O306 La281 2.521 . S
O306 C291 1.261 . S
O307 La281 2.628 . S
O307 C291 1.243 . S
O308 La281 2.554 . S
O308 C298 1.240 . S
O309 La280 2.482 . S
O309 La281 2.757 . S
O309 C298 1.289 . S
O310 La281 2.470 . S
O310 C299 1.258 . S
O311 La280 2.503 . S
O311 C299 1.256 . S
H312 C284 0.930 . S
H313 C285 0.930 . S
H314 C287 0.929 . S
H315 C288 0.929 . S
H316 C293 0.930 . S
H317 C294 0.930 . S
H318 C296 0.929 . S
H319 C297 0.929 . S
La320 C322 2.928 . S
La320 O340 2.521 . S
La320 O341 2.628 . S
La320 O342 2.554 . S
La320 O343 2.757 . S
La320 O344 2.470 . S
La320 O349 2.482 . S
La320 O351 2.503 . S
La321 C331 2.928 . S
La321 O343 2.482 . S
La321 O345 2.503 . S
La321 O346 2.521 . S
La321 O347 2.628 . S
La321 O348 2.554 . S
La321 O349 2.757 . S
La321 O350 2.470 . S
C322 La320 2.928 . S
C322 C323 1.503 . S
C322 O340 1.261 . S
C322 O341 1.243 . S
C323 C322 1.503 . S
C323 C324 1.394 . S
C323 C328 1.373 . S
C324 C323 1.394 . S
C324 C325 1.380 . S
C324 H352 0.930 . S
C325 C324 1.380 . S
C325 C326 1.376 . S
C325 H353 0.930 . S
C326 C325 1.376 . S
C326 C327 1.370 . S
C327 C326 1.370 . S
C327 C328 1.396 . S
C327 H354 0.929 . S
C328 C323 1.373 . S
C328 C327 1.396 . S
C328 H355 0.929 . S
C329 O342 1.240 . S
C329 O343 1.289 . S
C330 O344 1.258 . S
C330 O345 1.256 . S
C331 La321 2.928 . S
C331 C332 1.503 . S
C331 O346 1.261 . S
C331 O347 1.243 . S
C332 C331 1.503 . S
C332 C333 1.394 . S
C332 C337 1.373 . S
C333 C332 1.394 . S
C333 C334 1.380 . S
C333 H356 0.930 . S
C334 C333 1.380 . S
C334 C335 1.376 . S
C334 H357 0.930 . S
C335 C334 1.376 . S
C335 C336 1.370 . S
C336 C335 1.370 . S
C336 C337 1.396 . S
C336 H358 0.929 . S
C337 C332 1.373 . S
C337 C336 1.396 . S
C337 H359 0.929 . S
C338 O348 1.240 . S
C338 O349 1.289 . S
C339 O350 1.258 . S
C339 O351 1.256 . S
O340 La320 2.521 . S
O340 C322 1.261 . S
O341 La320 2.628 . S
O341 C322 1.243 . S
O342 La320 2.554 . S
O342 C329 1.240 . S
O343 La320 2.757 . S
O343 La321 2.482 . S
O343 C329 1.289 . S
O344 La320 2.470 . S
O344 C330 1.258 . S
O345 La321 2.503 . S
O345 C330 1.256 . S
O346 La321 2.521 . S
O346 C331 1.261 . S
O347 La321 2.628 . S
O347 C331 1.243 . S
O348 La321 2.554 . S
O348 C338 1.240 . S
O349 La320 2.482 . S
O349 La321 2.757 . S
O349 C338 1.289 . S
O350 La321 2.470 . S
O350 C339 1.258 . S
O351 La320 2.503 . S
O351 C339 1.256 . S
H352 C324 0.930 . S
H353 C325 0.930 . S
H354 C327 0.929 . S
H355 C328 0.929 . S
H356 C333 0.930 . S
H357 C334 0.930 . S
H358 C336 0.929 . S
H359 C337 0.929 . S
H360 C366 0.930 1_554 S
H361 C370 0.930 . S
H362 C375 0.929 . S
H363 C373 0.929 . S
H364 C368 0.929 . S
H365 C374 0.929 . S
C366 H360 0.930 1_556 S
C366 C367 1.367 . S
C366 C374 1.378 . S
C367 C366 1.367 . S
C367 C375 1.433 . S
C368 H364 0.929 . S
C368 C370 1.378 . S
C368 C372 1.350 . S
C369 C372 1.463 . S
C369 C374 1.350 . S
C369 N377 1.427 . S
C370 H361 0.930 . S
C370 C368 1.378 . S
C370 C371 1.367 . S
C371 C370 1.367 . S
C371 C373 1.433 . S
C372 C368 1.350 . S
C372 C369 1.463 . S
C372 N376 1.427 . S
C373 H363 0.929 . S
C373 C371 1.433 . S
C373 N376 1.384 . S
C374 H365 0.929 . S
C374 C366 1.378 . S
C374 C369 1.350 . S
C375 H362 0.929 . S
C375 C367 1.433 . S
C375 N377 1.384 . S
N376 C372 1.427 . S
N376 C373 1.384 . S
N377 C369 1.427 . S
N377 C375 1.384 . S
H378 C384 0.930 1_554 S
H379 C388 0.930 . S
H380 C393 0.929 . S
H381 C391 0.929 . S
H382 C386 0.929 . S
H383 C392 0.929 . S
C384 H378 0.930 1_556 S
C384 C385 1.367 . S
C384 C392 1.378 . S
C385 C384 1.367 . S
C385 C393 1.433 . S
C386 H382 0.929 . S
C386 C388 1.378 . S
C386 C390 1.350 . S
C387 C390 1.463 . S
C387 C392 1.350 . S
C387 N395 1.427 . S
C388 H379 0.930 . S
C388 C386 1.378 . S
C388 C389 1.367 . S
C389 C388 1.367 . S
C389 C391 1.433 . S
C390 C386 1.350 . S
C390 C387 1.463 . S
C390 N394 1.427 . S
C391 H381 0.929 . S
C391 C389 1.433 . S
C391 N394 1.384 . S
C392 H383 0.929 . S
C392 C384 1.378 . S
C392 C387 1.350 . S
C393 H380 0.929 . S
C393 C385 1.433 . S
C393 N395 1.384 . S
N394 C390 1.427 . S
N394 C391 1.384 . S
N395 C387 1.427 . S
N395 C393 1.384 . S
H396 C402 0.930 1_554 S
H397 C406 0.930 . S
H398 C411 0.929 . S
H399 C409 0.929 . S
H400 C404 0.929 . S
H401 C410 0.929 . S
C402 H396 0.930 1_556 S
C402 C403 1.367 . S
C402 C410 1.378 . S
C403 C402 1.367 . S
C403 C411 1.433 . S
C404 H400 0.929 . S
C404 C406 1.378 . S
C404 C408 1.350 . S
C405 C408 1.463 . S
C405 C410 1.350 . S
C405 N413 1.427 . S
C406 H397 0.930 . S
C406 C404 1.378 . S
C406 C407 1.367 . S
C407 C406 1.367 . S
C407 C409 1.433 . S
C408 C404 1.350 . S
C408 C405 1.463 . S
C408 N412 1.427 . S
C409 H399 0.929 . S
C409 C407 1.433 . S
C409 N412 1.384 . S
C410 H401 0.929 . S
C410 C402 1.378 . S
C410 C405 1.350 . S
C411 H398 0.929 . S
C411 C403 1.433 . S
C411 N413 1.384 . S
N412 C408 1.427 . S
N412 C409 1.384 . S
N413 C405 1.427 . S
N413 C411 1.384 . S
H414 C420 0.930 . S
H415 C424 0.930 . S
H416 C429 0.929 . S
H417 C427 0.929 . S
H418 C422 0.929 . S
H419 C428 0.929 . S
C420 H414 0.930 . S
C420 C421 1.367 . S
C420 C428 1.378 . S
C421 C420 1.367 . S
C421 C429 1.433 . S
C422 H418 0.929 . S
C422 C424 1.378 . S
C422 C426 1.350 . S
C423 C426 1.463 . S
C423 C428 1.350 . S
C423 N431 1.427 . S
C424 H415 0.930 . S
C424 C422 1.378 . S
C424 C425 1.367 . S
C425 C424 1.367 . S
C425 C427 1.433 1_554 S
C426 C422 1.350 . S
C426 C423 1.463 . S
C426 N430 1.427 . S
C427 H417 0.929 . S
C427 C425 1.433 1_556 S
C427 N430 1.384 1_556 S
C428 H419 0.929 . S
C428 C420 1.378 . S
C428 C423 1.350 . S
C429 H416 0.929 . S
C429 C421 1.433 . S
C429 N431 1.384 . S
N430 C426 1.427 . S
N430 C427 1.384 1_554 S
N431 C423 1.427 . S
N431 C429 1.384 . S
H432 C438 0.930 . S
H433 C442 0.930 1_556 S
H434 C447 0.929 . S
H435 C445 0.945 . S
H436 C440 0.929 . S
H437 C446 0.929 . S
C438 H432 0.930 . S
C438 C439 1.367 . S
C438 C446 1.378 . S
C439 C438 1.367 . S
C439 C447 1.433 . S
C440 H436 0.929 . S
C440 C442 1.378 . S
C440 C444 1.350 . S
C441 C444 1.463 . S
C441 C446 1.350 . S
C441 N449 1.427 . S
C442 H433 0.930 1_554 S
C442 C440 1.378 . S
C442 C443 1.367 . S
C443 C442 1.367 . S
C443 C445 1.433 . S
C444 C440 1.350 . S
C444 C441 1.463 . S
C444 N448 1.427 . S
C445 H435 0.945 . S
C445 C443 1.433 . S
C445 N448 1.384 . S
C446 H437 0.929 . S
C446 C438 1.378 . S
C446 C441 1.350 . S
C447 H434 0.929 . S
C447 C439 1.433 . S
C447 N449 1.384 . S
N448 C444 1.427 . S
N448 C445 1.384 . S
N449 C441 1.427 . S
N449 C447 1.384 . S
H450 C456 0.930 . S
H451 C460 0.930 . S
H452 C465 0.929 . S
H453 C463 0.929 . S
H454 C458 0.929 . S
H455 C464 0.929 . S
C456 H450 0.930 . S
C456 C457 1.367 . S
C456 C464 1.378 . S
C457 C456 1.367 . S
C457 C465 1.433 . S
C458 H454 0.929 . S
C458 C460 1.378 . S
C458 C462 1.350 . S
C459 C462 1.463 . S
C459 C464 1.350 . S
C459 N467 1.427 . S
C460 H451 0.930 . S
C460 C458 1.378 . S
C460 C461 1.367 . S
C461 C460 1.367 . S
C461 C463 1.433 . S
C462 C458 1.350 . S
C462 C459 1.463 . S
C462 N466 1.427 . S
C463 H453 0.929 . S
C463 C461 1.433 . S
C463 N466 1.384 . S
C464 H455 0.929 . S
C464 C456 1.378 . S
C464 C459 1.350 . S
C465 H452 0.929 . S
C465 C457 1.433 . S
C465 N467 1.384 . S
N466 C462 1.427 . S
N466 C463 1.384 . S
N467 C459 1.427 . S
N467 C465 1.384 . S
H468 C474 0.930 . S
H469 C478 0.930 . S
H470 C483 0.929 . S
H471 C481 0.929 . S
H472 C476 0.929 . S
H473 C482 0.929 . S
C474 H468 0.930 . S
C474 C475 1.367 . S
C474 C482 1.378 1_455 S
C475 C474 1.367 . S
C475 C483 1.433 1_455 S
C476 H472 0.929 . S
C476 C478 1.378 . S
C476 C480 1.350 . S
C477 C480 1.463 . S
C477 C482 1.350 . S
C477 N485 1.427 . S
C478 H469 0.930 . S
C478 C476 1.378 . S
C478 C479 1.367 . S
C479 C478 1.367 . S
C479 C481 1.433 . S
C480 C476 1.350 . S
C480 C477 1.463 . S
C480 N484 1.427 . S
C481 H471 0.929 . S
C481 C479 1.433 . S
C481 N484 1.384 . S
C482 H473 0.929 . S
C482 C474 1.378 1_655 S
C482 C477 1.350 . S
C483 H470 0.929 . S
C483 C475 1.433 1_655 S
C483 N485 1.384 . S
N484 C480 1.427 . S
N484 C481 1.384 . S
N485 C477 1.427 . S
N485 C483 1.384 . S
H486 C492 0.930 . S
H487 C496 0.930 . S
H488 C501 0.929 . S
H489 C499 0.929 . S
H490 C494 0.929 . S
H491 C500 0.929 . S
C492 H486 0.930 . S
C492 C493 1.367 . S
C492 C500 1.378 . S
C493 C492 1.367 . S
C493 C501 1.433 . S
C494 H490 0.929 . S
C494 C496 1.378 . S
C494 C498 1.350 . S
C495 C498 1.463 . S
C495 C500 1.350 . S
C495 N503 1.427 . S
C496 H487 0.930 . S
C496 C494 1.378 . S
C496 C497 1.367 . S
C497 C496 1.367 . S
C497 C499 1.433 . S
C498 C494 1.350 . S
C498 C495 1.463 . S
C498 N502 1.427 . S
C499 H489 0.929 . S
C499 C497 1.433 . S
C499 N502 1.384 . S
C500 H491 0.929 . S
C500 C492 1.378 . S
C500 C495 1.350 . S
C501 H488 0.929 . S
C501 C493 1.433 . S
C501 N503 1.384 . S
N502 C498 1.427 . S
N502 C499 1.384 . S
N503 C495 1.427 . S
N503 C501 1.384 . S
H504 C510 0.930 . S
H505 C514 0.930 . S
H506 C519 0.929 . S
H507 C517 0.929 . S
H508 C512 0.929 . S
H509 C518 0.929 . S
C510 H504 0.930 . S
C510 C511 1.367 . S
C510 C518 1.378 . S
C511 C510 1.367 . S
C511 C519 1.433 . S
C512 H508 0.929 . S
C512 C514 1.378 . S
C512 C516 1.350 . S
C513 C516 1.463 . S
C513 C518 1.350 . S
C513 N521 1.427 . S
C514 H505 0.930 . S
C514 C512 1.378 . S
C514 C515 1.367 . S
C515 C514 1.367 . S
C515 C517 1.433 . S
C516 C512 1.350 . S
C516 C513 1.463 . S
C516 N520 1.427 . S
C517 H507 0.929 . S
C517 C515 1.433 . S
C517 N520 1.384 . S
C518 H509 0.929 . S
C518 C510 1.378 . S
C518 C513 1.350 . S
C519 H506 0.929 . S
C519 C511 1.433 . S
C519 N521 1.384 . S
N520 C516 1.427 . S
N520 C517 1.384 . S
N521 C513 1.427 . S
N521 C519 1.384 . S
H522 C528 0.930 . S
H523 C532 0.930 . S
H524 C537 0.929 . S
H525 C535 0.929 . S
H526 C530 0.929 . S
H527 C536 0.929 . S
C528 H522 0.930 . S
C528 C529 1.367 . S
C528 C536 1.378 . S
C529 C528 1.367 . S
C529 C537 1.433 1_554 S
C530 H526 0.929 . S
C530 C532 1.378 . S
C530 C534 1.350 1_556 S
C531 C534 1.463 . S
C531 C536 1.350 . S
C531 N539 1.427 1_554 S
C532 H523 0.930 . S
C532 C530 1.378 . S
C532 C533 1.367 1_556 S
C533 C532 1.367 1_554 S
C533 C535 1.433 . S
C534 C530 1.350 1_554 S
C534 C531 1.463 . S
C534 N538 1.427 . S
C535 H525 0.929 . S
C535 C533 1.433 . S
C535 N538 1.384 . S
C536 H527 0.929 . S
C536 C528 1.378 . S
C536 C531 1.350 . S
C537 H524 0.929 . S
C537 C529 1.433 1_556 S
C537 N539 1.384 . S
N538 C534 1.427 . S
N538 C535 1.384 . S
N539 C531 1.427 1_556 S
N539 C537 1.384 . S
H540 C546 0.930 . S
H541 C550 0.930 . S
H542 C555 0.929 . S
H543 C553 0.929 . S
H544 C548 0.929 . S
H545 C554 0.929 . S
C546 H540 0.930 . S
C546 C547 1.367 1_556 S
C546 C554 1.378 . S
C547 C546 1.367 1_554 S
C547 C555 1.433 . S
C548 H544 0.929 . S
C548 C550 1.378 1_565 S
C548 C552 1.350 . S
C549 C552 1.463 . S
C549 C554 1.350 1_554 S
C549 N557 1.427 . S
C550 H541 0.930 . S
C550 C548 1.378 1_545 S
C550 C551 1.367 . S
C551 C550 1.367 . S
C551 C553 1.433 1_554 S
C552 C548 1.350 . S
C552 C549 1.463 . S
C552 N556 1.427 1_554 S
C553 H543 0.929 . S
C553 C551 1.433 1_556 S
C553 N556 1.384 1_545 S
C554 H545 0.929 . S
C554 C546 1.378 . S
C554 C549 1.350 1_556 S
C555 H542 0.929 . S
C555 C547 1.433 . S
C555 N557 1.384 . S
N556 C552 1.427 1_556 S
N556 C553 1.384 1_565 S
N557 C549 1.427 . S
N557 C555 1.384 . S
H558 C564 0.930 . S
H559 C568 0.930 1_545 S
H560 C573 0.929 . S
H561 C571 0.929 . S
H562 C566 0.929 . S
H563 C572 0.929 . S
C564 H558 0.930 . S
C564 C565 1.367 . S
C564 C572 1.378 . S
C565 C564 1.367 . S
C565 C573 1.433 . S
C566 H562 0.929 . S
C566 C568 1.378 . S
C566 C570 1.350 1_556 S
C567 C570 1.463 . S
C567 C572 1.350 . S
C567 N575 1.427 . S
C568 H559 0.930 1_565 S
C568 C566 1.378 . S
C568 C569 1.367 1_556 S
C569 C568 1.367 1_554 S
C569 C571 1.433 . S
C570 C566 1.350 1_554 S
C570 C567 1.463 . S
C570 N574 1.427 . S
C571 H561 0.929 . S
C571 C569 1.433 . S
C571 N574 1.384 . S
C572 H563 0.929 . S
C572 C564 1.378 . S
C572 C567 1.350 . S
C573 H560 0.929 . S
C573 C565 1.433 . S
C573 N575 1.384 . S
N574 C570 1.427 . S
N574 C571 1.384 . S
N575 C567 1.427 . S
N575 C573 1.384 . S
H576 C582 0.930 . S
H577 C586 0.930 . S
H578 C591 0.929 . S
H579 C589 0.929 . S
H580 C584 0.929 . S
H581 C590 0.929 . S
C582 H576 0.930 . S
C582 C583 1.367 . S
C582 C590 1.378 . S
C583 C582 1.367 . S
C583 C591 1.433 . S
C584 H580 0.929 . S
C584 C586 1.378 . S
C584 C588 1.350 . S
C585 C588 1.463 . S
C585 C590 1.350 . S
C585 N593 1.427 . S
C586 H577 0.930 . S
C586 C584 1.378 . S
C586 C587 1.367 . S
C587 C586 1.367 . S
C587 C589 1.433 . S
C588 C584 1.350 . S
C588 C585 1.463 . S
C588 N592 1.427 . S
C589 H579 0.929 . S
C589 C587 1.433 . S
C589 N592 1.384 . S
C590 H581 0.929 . S
C590 C582 1.378 . S
C590 C585 1.350 . S
C591 H578 0.929 . S
C591 C583 1.433 . S
C591 N593 1.384 . S
N592 C588 1.427 . S
N592 C589 1.384 . S
N593 C585 1.427 . S
N593 C591 1.384 . S
H594 C600 0.930 . S
H595 C604 0.930 . S
H596 C609 0.929 . S
H597 C607 0.929 . S
H598 C602 0.929 . S
H599 C608 0.929 . S
C600 H594 0.930 . S
C600 C601 1.367 . S
C600 C608 1.378 . S
C601 C600 1.367 . S
C601 C609 1.433 . S
C602 H598 0.929 . S
C602 C604 1.378 . S
C602 C606 1.350 . S
C603 C606 1.463 . S
C603 C608 1.350 . S
C603 N611 1.427 . S
C604 H595 0.930 . S
C604 C602 1.378 . S
C604 C605 1.367 . S
C605 C604 1.367 . S
C605 C607 1.433 . S
C606 C602 1.350 . S
C606 C603 1.463 . S
C606 N610 1.427 . S
C607 H597 0.929 . S
C607 C605 1.433 . S
C607 N610 1.384 . S
C608 H599 0.929 . S
C608 C600 1.378 . S
C608 C603 1.350 . S
C609 H596 0.929 . S
C609 C601 1.433 . S
C609 N611 1.384 . S
N610 C606 1.427 . S
N610 C607 1.384 . S
N611 C603 1.427 . S
N611 C609 1.384 . S
H612 C618 0.930 . S
H613 C622 0.930 . S
H614 C627 0.929 . S
H615 C625 0.929 . S
H616 C620 0.929 . S
H617 C626 0.929 . S
C618 H612 0.930 . S
C618 C619 1.367 . S
C618 C626 1.378 . S
C619 C618 1.367 . S
C619 C627 1.433 . S
C620 H616 0.929 . S
C620 C622 1.378 . S
C620 C624 1.350 . S
C621 C624 1.463 . S
C621 C626 1.350 . S
C621 N629 1.427 . S
C622 H613 0.930 . S
C622 C620 1.378 . S
C622 C623 1.367 . S
C623 C622 1.367 . S
C623 C625 1.433 . S
C624 C620 1.350 . S
C624 C621 1.463 . S
C624 N628 1.427 . S
C625 H615 0.929 . S
C625 C623 1.433 . S
C625 N628 1.384 . S
C626 H617 0.929 . S
C626 C618 1.378 . S
C626 C621 1.350 . S
C627 H614 0.929 . S
C627 C619 1.433 . S
C627 N629 1.384 . S
N628 C624 1.427 . S
N628 C625 1.384 . S
N629 C621 1.427 . S
N629 C627 1.384 . S
H630 C636 0.930 . S
H631 C640 0.930 . S
H632 C645 0.929 . S
H633 C643 0.929 . S
H634 C638 0.929 . S
H635 C644 0.929 . S
C636 H630 0.930 . S
C636 C637 1.367 . S
C636 C644 1.378 . S
C637 C636 1.367 . S
C637 C645 1.433 . S
C638 H634 0.929 . S
C638 C640 1.378 . S
C638 C642 1.350 . S
C639 C642 1.463 . S
C639 C644 1.350 . S
C639 N647 1.427 . S
C640 H631 0.930 . S
C640 C638 1.378 . S
C640 C641 1.367 . S
C641 C640 1.367 . S
C641 C643 1.433 . S
C642 C638 1.350 . S
C642 C639 1.463 . S
C642 N646 1.427 . S
C643 H633 0.929 . S
C643 C641 1.433 . S
C643 N646 1.384 . S
C644 H635 0.929 . S
C644 C636 1.378 . S
C644 C639 1.350 . S
C645 H632 0.929 . S
C645 C637 1.433 . S
C645 N647 1.384 . S
N646 C642 1.427 . S
N646 C643 1.384 . S
N647 C639 1.427 . S
N647 C645 1.384 . S
H648 C654 0.930 . S
H649 C658 0.930 . S
H650 C663 0.929 . S
H651 C661 0.929 . S
H652 C656 0.929 . S
H653 C662 0.929 . S
C654 H648 0.930 . S
C654 C655 1.367 . S
C654 C662 1.378 . S
C655 C654 1.367 . S
C655 C663 1.433 . S
C656 H652 0.929 . S
C656 C658 1.378 . S
C656 C660 1.350 . S
C657 C660 1.463 . S
C657 C662 1.350 . S
C657 N665 1.427 . S
C658 H649 0.930 . S
C658 C656 1.378 . S
C658 C659 1.367 . S
C659 C658 1.367 . S
C659 C661 1.433 . S
C660 C656 1.350 . S
C660 C657 1.463 . S
C660 N664 1.427 . S
C661 H651 0.929 . S
C661 C659 1.433 . S
C661 N664 1.384 . S
C662 H653 0.929 . S
C662 C654 1.378 . S
C662 C657 1.350 . S
C663 H650 0.929 . S
C663 C655 1.433 . S
C663 N665 1.384 . S
N664 C660 1.427 . S
N664 C661 1.384 . S
N665 C657 1.427 . S
N665 C663 1.384 . S
H666 C672 0.930 . S
H667 C676 0.930 . S
H668 C681 0.929 . S
H669 C679 0.929 . S
H670 C674 0.929 . S
H671 C680 0.929 . S
C672 H666 0.930 . S
C672 C673 1.367 . S
C672 C680 1.378 . S
C673 C672 1.367 . S
C673 C681 1.433 . S
C674 H670 0.929 . S
C674 C676 1.378 . S
C674 C678 1.350 . S
C675 C678 1.463 . S
C675 C680 1.350 . S
C675 N683 1.427 . S
C676 H667 0.930 . S
C676 C674 1.378 . S
C676 C677 1.367 . S
C677 C676 1.367 . S
C677 C679 1.433 . S
C678 C674 1.350 . S
C678 C675 1.463 . S
C678 N682 1.427 . S
C679 H669 0.929 . S
C679 C677 1.433 . S
C679 N682 1.384 . S
C680 H671 0.929 . S
C680 C672 1.378 . S
C680 C675 1.350 . S
C681 H668 0.929 . S
C681 C673 1.433 . S
C681 N683 1.384 . S
N682 C678 1.427 . S
N682 C679 1.384 . S
N683 C675 1.427 . S
N683 C681 1.384 . S
H684 C690 0.930 . S
H685 C694 0.930 . S
H686 C699 0.929 . S
H687 C697 0.929 . S
H688 C692 0.929 . S
H689 C698 0.929 . S
C690 H684 0.930 . S
C690 C691 1.367 1_655 S
C690 C698 1.378 . S
C691 C690 1.367 1_455 S
C691 C699 1.433 . S
C692 H688 0.929 . S
C692 C694 1.378 . S
C692 C696 1.350 . S
C693 C696 1.463 . S
C693 C698 1.350 1_455 S
C693 N701 1.427 . S
C694 H685 0.930 . S
C694 C692 1.378 . S
C694 C695 1.367 . S
C695 C694 1.367 . S
C695 C697 1.433 1_455 S
C696 C692 1.350 . S
C696 C693 1.463 . S
C696 N700 1.427 1_455 S
C697 H687 0.929 . S
C697 C695 1.433 1_655 S
C697 N700 1.384 . S
C698 H689 0.929 . S
C698 C690 1.378 . S
C698 C693 1.350 1_655 S
C699 H686 0.929 . S
C699 C691 1.433 . S
C699 N701 1.384 . S
N700 C696 1.427 1_655 S
N700 C697 1.384 . S
N701 C693 1.427 . S
N701 C699 1.384 . S
H702 C708 0.930 . S
H703 C712 0.930 . S
H704 C717 0.929 . S
H705 C715 0.929 . S
H706 C710 0.929 . S
H707 C716 0.929 . S
C708 H702 0.930 . S
C708 C709 1.367 . S
C708 C716 1.378 . S
C709 C708 1.367 . S
C709 C717 1.433 . S
C710 H706 0.929 . S
C710 C712 1.378 . S
C710 C714 1.350 . S
C711 C714 1.463 . S
C711 C716 1.350 . S
C711 N719 1.427 . S
C712 H703 0.930 . S
C712 C710 1.378 . S
C712 C713 1.367 . S
C713 C712 1.367 . S
C713 C715 1.433 . S
C714 C710 1.350 . S
C714 C711 1.463 . S
C714 N718 1.427 . S
C715 H705 0.929 . S
C715 C713 1.433 . S
C715 N718 1.384 . S
C716 H707 0.929 . S
C716 C708 1.378 . S
C716 C711 1.350 . S
C717 H704 0.929 . S
C717 C709 1.433 . S
C717 N719 1.384 . S
N718 C714 1.427 . S
N718 C715 1.384 . S
N719 C711 1.427 . S
N719 C717 1.384 . S
H720 C726 0.930 . S
H721 C730 0.930 . S
H722 C735 0.929 . S
H723 C733 0.929 . S
H724 C728 0.929 . S
H725 C734 0.929 . S
C726 H720 0.930 . S
C726 C727 1.367 1_565 S
C726 C734 1.378 . S
C727 C726 1.367 1_545 S
C727 C735 1.433 . S
C728 H724 0.929 . S
C728 C730 1.378 . S
C728 C732 1.350 . S
C729 C732 1.463 . S
C729 C734 1.350 1_545 S
C729 N737 1.427 . S
C730 H721 0.930 . S
C730 C728 1.378 . S
C730 C731 1.367 . S
C731 C730 1.367 . S
C731 C733 1.433 1_545 S
C732 C728 1.350 . S
C732 C729 1.463 . S
C732 N736 1.427 1_545 S
C733 H723 0.929 . S
C733 C731 1.433 1_565 S
C733 N736 1.384 . S
C734 H725 0.929 . S
C734 C726 1.378 . S
C734 C729 1.350 1_565 S
C735 H722 0.929 . S
C735 C727 1.433 . S
C735 N737 1.384 . S
N736 C732 1.427 1_565 S
N736 C733 1.384 . S
N737 C729 1.427 . S
N737 C735 1.384 . S
H738 C744 0.930 . S
H739 C748 0.930 . S
H740 C753 0.929 . S
H741 C751 0.929 . S
H742 C746 0.929 . S
H743 C752 0.929 . S
C744 H738 0.930 . S
C744 C745 1.367 . S
C744 C752 1.378 . S
C745 C744 1.367 . S
C745 C753 1.433 . S
C746 H742 0.929 . S
C746 C748 1.378 1_556 S
C746 C750 1.350 . S
C747 C750 1.463 . S
C747 C752 1.350 . S
C747 N755 1.427 . S
C748 H739 0.930 . S
C748 C746 1.378 1_554 S
C748 C749 1.367 . S
C749 C748 1.367 . S
C749 C751 1.433 . S
C750 C746 1.350 . S
C750 C747 1.463 . S
C750 N754 1.427 . S
C751 H741 0.929 . S
C751 C749 1.433 . S
C751 N754 1.384 1_554 S
C752 H743 0.929 . S
C752 C744 1.378 . S
C752 C747 1.350 . S
C753 H740 0.929 . S
C753 C745 1.433 . S
C753 N755 1.384 . S
N754 C750 1.427 . S
N754 C751 1.384 1_556 S
N755 C747 1.427 . S
N755 C753 1.384 . S
H756 C762 0.930 . S
H757 C766 0.930 . S
H758 C771 0.929 . S
H759 C769 0.929 . S
H760 C764 0.929 . S
H761 C770 0.929 . S
C762 H756 0.930 . S
C762 C763 1.367 . S
C762 C770 1.378 . S
C763 C762 1.367 . S
C763 C771 1.433 . S
C764 H760 0.929 . S
C764 C766 1.378 1_556 S
C764 C768 1.350 . S
C765 C768 1.463 . S
C765 C770 1.350 . S
C765 N773 1.427 . S
C766 H757 0.930 . S
C766 C764 1.378 1_554 S
C766 C767 1.367 . S
C767 C766 1.367 . S
C767 C769 1.433 . S
C768 C764 1.350 . S
C768 C765 1.463 . S
C768 N772 1.427 . S
C769 H759 0.929 . S
C769 C767 1.433 . S
C769 N772 1.384 1_554 S
C770 H761 0.929 . S
C770 C762 1.378 . S
C770 C765 1.350 . S
C771 H758 0.929 . S
C771 C763 1.433 . S
C771 N773 1.384 . S
N772 C768 1.427 . S
N772 C769 1.384 1_556 S
N773 C765 1.427 . S
N773 C771 1.384 . S
H774 C780 0.930 . S
H775 C784 0.930 . S
H776 C789 0.929 . S
H777 C787 0.929 . S
H778 C782 0.929 . S
H779 C788 0.929 . S
C780 H774 0.930 . S
C780 C781 1.367 . S
C780 C788 1.378 . S
C781 C780 1.367 . S
C781 C789 1.433 . S
C782 H778 0.929 . S
C782 C784 1.378 1_556 S
C782 C786 1.350 . S
C783 C786 1.463 . S
C783 C788 1.350 . S
C783 N791 1.427 . S
C784 H775 0.930 . S
C784 C782 1.378 1_554 S
C784 C785 1.367 . S
C785 C784 1.367 . S
C785 C787 1.433 . S
C786 C782 1.350 . S
C786 C783 1.463 . S
C786 N790 1.427 . S
C787 H777 0.929 . S
C787 C785 1.433 . S
C787 N790 1.384 1_554 S
C788 H779 0.929 . S
C788 C780 1.378 . S
C788 C783 1.350 . S
C789 H776 0.929 . S
C789 C781 1.433 . S
C789 N791 1.384 . S
N790 C786 1.427 . S
N790 C787 1.384 1_556 S
N791 C783 1.427 . S
N791 C789 1.384 . S
H792 C798 0.930 . S
H793 C802 0.930 . S
H794 C807 0.929 . S
H795 C805 0.929 . S
H796 C800 0.929 . S
H797 C806 0.929 . S
C798 H792 0.930 . S
C798 C799 1.367 . S
C798 C806 1.378 . S
C799 C798 1.367 . S
C799 C807 1.433 . S
C800 H796 0.929 . S
C800 C802 1.378 1_554 S
C800 C804 1.350 . S
C801 C804 1.463 . S
C801 C806 1.350 . S
C801 N809 1.427 . S
C802 H793 0.930 . S
C802 C800 1.378 1_556 S
C802 C803 1.367 . S
C803 C802 1.367 . S
C803 C805 1.433 . S
C804 C800 1.350 . S
C804 C801 1.463 . S
C804 N808 1.427 . S
C805 H795 0.929 . S
C805 C803 1.433 . S
C805 N808 1.384 1_556 S
C806 H797 0.929 . S
C806 C798 1.378 . S
C806 C801 1.350 . S
C807 H794 0.929 . S
C807 C799 1.433 . S
C807 N809 1.384 . S
N808 C804 1.427 . S
N808 C805 1.384 1_554 S
N809 C801 1.427 . S
N809 C807 1.384 . S
H810 C816 0.930 . S
H811 C820 0.930 . S
H812 C825 0.929 . S
H813 C823 0.929 . S
H814 C818 0.929 . S
H815 C824 0.929 . S
C816 H810 0.930 . S
C816 C817 1.367 . S
C816 C824 1.378 1_556 S
C817 C816 1.367 . S
C817 C825 1.433 . S
C818 H814 0.929 . S
C818 C820 1.378 . S
C818 C822 1.350 . S
C819 C822 1.463 . S
C819 C824 1.350 . S
C819 N827 1.427 . S
C820 H811 0.930 . S
C820 C818 1.378 . S
C820 C821 1.367 . S
C821 C820 1.367 . S
C821 C823 1.433 . S
C822 C818 1.350 . S
C822 C819 1.463 . S
C822 N826 1.427 . S
C823 H813 0.929 . S
C823 C821 1.433 . S
C823 N826 1.384 . S
C824 H815 0.929 . S
C824 C816 1.378 1_554 S
C824 C819 1.350 . S
C825 H812 0.929 . S
C825 C817 1.433 . S
C825 N827 1.384 1_556 S
N826 C822 1.427 . S
N826 C823 1.384 . S
N827 C819 1.427 . S
N827 C825 1.384 1_554 S
H828 C834 0.930 . S
H829 C838 0.930 . S
H830 C843 0.929 . S
H831 C841 0.929 . S
H832 C836 0.929 . S
H833 C842 0.929 . S
C834 H828 0.930 . S
C834 C835 1.367 . S
C834 C842 1.378 . S
C835 C834 1.367 . S
C835 C843 1.433 . S
C836 H832 0.929 . S
C836 C838 1.378 1_554 S
C836 C840 1.350 . S
C837 C840 1.463 . S
C837 C842 1.350 . S
C837 N845 1.427 . S
C838 H829 0.930 . S
C838 C836 1.378 1_556 S
C838 C839 1.367 . S
C839 C838 1.367 . S
C839 C841 1.433 . S
C840 C836 1.350 . S
C840 C837 1.463 . S
C840 N844 1.427 . S
C841 H831 0.929 . S
C841 C839 1.433 . S
C841 N844 1.384 1_556 S
C842 H833 0.929 . S
C842 C834 1.378 . S
C842 C837 1.350 . S
C843 H830 0.929 . S
C843 C835 1.433 . S
C843 N845 1.384 . S
N844 C840 1.427 . S
N844 C841 1.384 1_554 S
N845 C837 1.427 . S
N845 C843 1.384 . S
C367 C6 1.912 . S
C371 C290 1.835 . S
C385 C46 1.914 . S
C389 C330 1.834 . S
C403 C86 1.913 . S
C407 C250 1.833 . S
C421 C166 1.906 . S
C425 C90 1.821 . S
C439 C206 1.913 . S
C443 C10 1.832 . S
C457 C50 1.829 . S
C461 C126 1.908 . S
C475 C286 1.906 . S
C479 C210 1.821 . S
C493 C326 1.911 . S
C497 C130 1.834 . S
C511 C170 1.829 . S
C515 C246 1.912 1_545 S
C529 C95 1.679 . S
C533 C19 1.673 1_554 S
C547 C59 1.674 1_554 S
C551 C15 1.679 . S
C565 C55 1.675 1_455 S
C569 C99 1.677 1_554 S
C583 C139 1.674 . S
C587 C215 1.678 . S
C601 C135 1.677 . S
C605 C179 1.675 . S
C619 C175 1.674 . S
C623 C219 1.679 . S
C637 C335 1.675 . S
C641 C259 1.676 . S
C655 C299 1.674 . S
C659 C255 1.679 . S
C673 C339 1.678 . S
C677 C295 1.675 . S
C691 C18 0.963 . S
C695 C9 0.963 . S
C709 C58 0.983 . S
C713 C49 0.983 . S
C727 C98 0.978 . S
C731 C89 0.978 . S
C745 C129 0.975 . S
C749 C138 0.975 . S
C763 C169 0.970 . S
C767 C178 0.970 . S
C781 C209 0.983 . S
C785 C218 0.983 . S
C799 C258 0.983 . S
C803 C249 0.983 . S
C817 C289 0.983 . S
C821 C298 0.983 . S
C835 C338 0.977 . S
C839 C329 0.977 . S
