# Generated by pormake.
# Topology uni, (4)-cn, num edge types: 1
# Building blocks:
#     Node 0, Type 0, BuildingBlock: NAHDIM_clean_sbu_0, # of connection points: 4
#     Node 1, Type 0, BuildingBlock: NAHDIM_clean_sbu_0, # of connection points: 4
#     Node 2, Type 0, BuildingBlock: NAHDIM_clean_sbu_0, # of connection points: 4
#     Node 3, Type 0, BuildingBlock: NAHDIM_clean_sbu_0, # of connection points: 4
#     Node 4, Type 0, BuildingBlock: NAHDIM_clean_sbu_0, # of connection points: 4
#     Node 5, Type 0, BuildingBlock: NAHDIM_clean_sbu_0, # of connection points: 4
#     Edge 6, Type (0, 0), BuildingBlock: MIFKUJ_clean_linker_0, # of connection points: 2
#     Edge 7, Type (0, 0), BuildingBlock: MIFKUJ_clean_linker_0, # of connection points: 2
#     Edge 8, Type (0, 0), BuildingBlock: MIFKUJ_clean_linker_0, # of connection points: 2
#     Edge 9, Type (0, 0), BuildingBlock: MIFKUJ_clean_linker_0, # of connection points: 2
#     Edge 10, Type (0, 0), BuildingBlock: MIFKUJ_clean_linker_0, # of connection points: 2
#     Edge 11, Type (0, 0), BuildingBlock: MIFKUJ_clean_linker_0, # of connection points: 2
#     Edge 12, Type (0, 0), BuildingBlock: MIFKUJ_clean_linker_0, # of connection points: 2
#     Edge 13, Type (0, 0), BuildingBlock: MIFKUJ_clean_linker_0, # of connection points: 2
#     Edge 14, Type (0, 0), BuildingBlock: MIFKUJ_clean_linker_0, # of connection points: 2
#     Edge 15, Type (0, 0), BuildingBlock: MIFKUJ_clean_linker_0, # of connection points: 2
#     Edge 16, Type (0, 0), BuildingBlock: MIFKUJ_clean_linker_0, # of connection points: 2
#     Edge 17, Type (0, 0), BuildingBlock: MIFKUJ_clean_linker_0, # of connection points: 2
# Relax obj value: 0.045
# Max RMSD: 0.078
# Mean RMSD: 0.078
data_MOF--net-uni--node1-NAHDIM_clean_sbu_0--edge1-MIFKUJ_clean_linker_0
_symmetry_space_group_name_H-M    P1
_symmetry_Int_Tables_number       1
_symmetry_cell_setting            triclinic
loop_
_symmetry_equiv_pos_as_xyz
'x, y, z'
_cell_length_a     50.392616
_cell_length_b     50.357037
_cell_length_c     30.247806
_cell_angle_alpha  90.046203
_cell_angle_beta   89.933015
_cell_angle_gamma 120.13153
loop_
_atom_site_label
_atom_site_type_symbol
_atom_site_fract_x
_atom_site_fract_y
_atom_site_fract_z
_atom_type_partial_charge
C0 C 0.65895 0.9647 0.07128 0.0
O1 O 0.68205 0.98511 0.04753 0.0
O2 O 0.68086 0.04408 0.06039 0.0
Zn3 Zn 0.63775 0.00866 0.06656 0.0
O4 O 0.61591 0.01784 0.11488 0.0
C5 C 0.62983 0.01477 0.97299 0.0
O6 O 0.65997 0.02972 0.97276 0.0
O7 O 0.63776 0.97 0.08258 0.0
C8 C 0.59381 0.02252 0.10696 0.0
O9 O 0.58489 0.02169 0.06595 0.0
C10 C 0.68575 0.07138 0.06256 0.0
O11 O 0.6627 0.07582 0.07113 0.0
O12 O 0.6156 0.00296 0.00885 0.0
C13 C 0.71372 0.6583 0.25678 0.0
O14 O 0.70876 0.67921 0.27464 0.0
O15 O 0.66064 0.67925 0.21651 0.0
Zn16 Zn 0.65294 0.63638 0.22446 0.0
O17 O 0.62525 0.61616 0.27657 0.0
C18 C 0.63838 0.62516 0.13202 0.0
O19 O 0.66017 0.65404 0.12882 0.0
O20 O 0.69282 0.63725 0.23335 0.0
C21 C 0.61299 0.58726 0.28085 0.0
O22 O 0.61944 0.5719 0.25181 0.0
C23 C 0.6391 0.685 0.22273 0.0
O24 O 0.61226 0.66288 0.23633 0.0
O25 O 0.63176 0.6124 0.1698 0.0
C26 C 0.08503 0.72426 0.39683 0.0
O27 O 0.06203 0.72705 0.38215 0.0
O28 O 0.00855 0.66511 0.37013 0.0
Zn29 Zn 0.04357 0.65834 0.38492 0.0
O30 O 0.03244 0.63036 0.43726 0.0
C31 C 0.05772 0.64914 0.29535 0.0
O32 O 0.06022 0.67605 0.2883 0.0
O33 O 0.08203 0.69772 0.39977 0.0
C34 C 0.05222 0.62321 0.44908 0.0
O35 O 0.07808 0.63447 0.42686 0.0
C36 C 0.98563 0.64398 0.34972 0.0
O37 O 0.98567 0.61867 0.33929 0.0
O38 O 0.05131 0.63769 0.33394 0.0
C39 C 0.38748 0.08432 0.57713 0.0
O40 O 0.36167 0.06061 0.56361 0.0
O41 O 0.36985 0.00775 0.55581 0.0
Zn42 Zn 0.41219 0.04342 0.56615 0.0
O43 O 0.43263 0.0345 0.61627 0.0
C44 C 0.42673 0.04824 0.47299 0.0
O45 O 0.39889 0.04389 0.46833 0.0
O46 O 0.41139 0.08202 0.5801 0.0
C47 C 0.46145 0.05199 0.62023 0.0
O48 O 0.4759 0.0748 0.59224 0.0
C49 C 0.36601 0.98085 0.55372 0.0
O50 O 0.38964 0.977 0.56021 0.0
O51 O 0.43715 0.04941 0.51158 0.0
C52 C 0.3395 0.39974 0.78228 0.0
O53 O 0.35706 0.39533 0.80986 0.0
O54 O 0.38331 0.36892 0.71991 0.0
Zn55 Zn 0.38867 0.41105 0.72536 0.0
O56 O 0.4199 0.43456 0.77279 0.0
C57 C 0.40341 0.41919 0.63166 0.0
O58 O 0.39003 0.3891 0.63179 0.0
O59 O 0.34833 0.40712 0.74252 0.0
C60 C 0.44139 0.46206 0.76693 0.0
O61 O 0.44335 0.47565 0.72903 0.0
C62 C 0.4067 0.36564 0.71968 0.0
O63 O 0.43402 0.38992 0.72506 0.0
O64 O 0.40415 0.43312 0.66712 0.0
C65 C 0.96364 0.32881 0.89977 0.0
O66 O 0.98474 0.32548 0.87913 0.0
O67 O 0.0416 0.38465 0.88149 0.0
Zn68 Zn 0.00767 0.394 0.89116 0.0
O69 O 0.01919 0.42415 0.94138 0.0
C70 C 0.02451 0.42588 0.80846 0.0
O71 O 0.04975 0.42519 0.81661 0.0
O72 O 0.96839 0.35567 0.90742 0.0
C73 C 0.0334 0.453 0.93498 0.0
O74 O 0.04128 0.46366 0.8946 0.0
C75 C 0.05735 0.38222 0.91229 0.0
O76 O 0.0507 0.38453 0.95361 0.0
O77 O 0.00227 0.41315 0.8356 0.0
H78 H 0.54229 0.02747 0.10242 0.0
H79 H 0.51485 0.03475 0.16353 0.0
H80 H 0.58187 0.03802 0.25539 0.0
H81 H 0.60909 0.03007 0.19459 0.0
H82 H 0.52579 0.00152 0.28533 0.0
H83 H 0.58021 0.1033 0.225 0.0
H84 H 0.59709 0.14265 0.16661 0.0
H85 H 0.50365 0.11892 0.14364 0.0
H86 H 0.48616 0.07911 0.20151 0.0
H87 H 0.48415 0.0555 0.47215 0.0
H88 H 0.51302 0.05403 0.40833 0.0
H89 H 0.43999 0.04238 0.32174 0.0
H90 H 0.41085 0.04401 0.38557 0.0
H91 H 0.4982 0.08327 0.28849 0.0
H92 H 0.44421 0.98134 0.34907 0.0
H93 H 0.42785 0.94265 0.40836 0.0
H94 H 0.52162 0.96756 0.4313 0.0
H95 H 0.53858 0.00673 0.37256 0.0
C96 C 0.55129 0.0299 0.1356 0.0
C97 C 0.57785 0.02815 0.14367 0.0
C98 C 0.53565 0.03421 0.17048 0.0
C99 C 0.54648 0.03724 0.21399 0.0
C100 C 0.57311 0.03573 0.22207 0.0
C101 C 0.58866 0.03124 0.18727 0.0
C102 C 0.52944 0.04083 0.25134 0.0
C103 C 0.52017 0.01969 0.28627 0.0
C104 C 0.52139 0.06403 0.25203 0.0
C105 C 0.53185 0.08801 0.2173 0.0
C106 C 0.56323 0.1063 0.20726 0.0
C107 C 0.57292 0.12872 0.1743 0.0
C108 C 0.55145 0.13323 0.15135 0.0
C109 C 0.52025 0.11537 0.1614 0.0
C110 C 0.51044 0.0929 0.19431 0.0
C111 C 0.47425 0.05284 0.43955 0.0
C112 C 0.44507 0.04961 0.43396 0.0
C113 C 0.49078 0.05196 0.40313 0.0
C114 C 0.47843 0.04769 0.36046 0.0
C115 C 0.44984 0.04562 0.35448 0.0
C116 C 0.43322 0.04646 0.39098 0.0
C117 C 0.49491 0.04417 0.32242 0.0
C118 C 0.50393 0.06519 0.28741 0.0
C119 C 0.50285 0.02092 0.32164 0.0
C120 C 0.49268 0.99716 0.35669 0.0
C121 C 0.46136 0.97872 0.36698 0.0
C122 C 0.45197 0.95668 0.40045 0.0
C123 C 0.47369 0.9527 0.42365 0.0
C124 C 0.50483 0.97069 0.41334 0.0
C125 C 0.51434 0.9928 0.37993 0.0
H126 H 0.46638 0.93563 0.44957 0.0
H127 H 0.55899 0.1506 0.12584 0.0
H128 H 0.58172 0.52562 0.29741 0.0
H129 H 0.54427 0.49849 0.35587 0.0
H130 H 0.55648 0.58452 0.40431 0.0
H131 H 0.59428 0.61195 0.34611 0.0
H132 H 0.55578 0.54791 0.47114 0.0
H133 H 0.49375 0.53738 0.34464 0.0
H134 H 0.47637 0.52424 0.26742 0.0
H135 H 0.45175 0.43053 0.2909 0.0
H136 H 0.4694 0.4432 0.36812 0.0
H137 H 0.42962 0.48097 0.6175 0.0
H138 H 0.46274 0.51068 0.556 0.0
H139 H 0.45067 0.42739 0.4966 0.0
H140 H 0.41688 0.39745 0.55728 0.0
H141 H 0.45047 0.46453 0.43484 0.0
H142 H 0.51456 0.47475 0.559 0.0
H143 H 0.53232 0.48696 0.63621 0.0
H144 H 0.55384 0.58018 0.61706 0.0
H145 H 0.53579 0.5684 0.53988 0.0
C146 C 0.57651 0.53882 0.32051 0.0
C147 C 0.5909 0.57095 0.317 0.0
C148 C 0.55499 0.52325 0.35378 0.0
C149 C 0.5473 0.53946 0.38404 0.0
C150 C 0.56202 0.57158 0.38117 0.0
C151 C 0.58357 0.58719 0.34785 0.0
C152 C 0.524 0.52284 0.4188 0.0
C153 C 0.5326 0.53001 0.46323 0.0
C154 C 0.49398 0.49903 0.40841 0.0
C155 C 0.48314 0.4913 0.36207 0.0
C156 C 0.48484 0.51402 0.33325 0.0
C157 C 0.4749 0.50665 0.28949 0.0
C158 C 0.46303 0.47659 0.27423 0.0
C159 C 0.46098 0.45381 0.30275 0.0
C160 C 0.47091 0.46107 0.34653 0.0
C161 C 0.43373 0.46894 0.59107 0.0
C162 C 0.4208 0.43687 0.59241 0.0
C163 C 0.45278 0.48596 0.55606 0.0
C164 C 0.45967 0.47131 0.52215 0.0
C165 C 0.44576 0.43919 0.52248 0.0
C166 C 0.42646 0.42211 0.55724 0.0
C167 C 0.48228 0.48946 0.48724 0.0
C168 C 0.47358 0.48256 0.44278 0.0
C169 C 0.51228 0.51339 0.49759 0.0
C170 C 0.52353 0.52061 0.54381 0.0
C171 C 0.5229 0.4978 0.57134 0.0
C172 C 0.53303 0.50465 0.61509 0.0
C173 C 0.54412 0.5343 0.63157 0.0
C174 C 0.5452 0.5572 0.60427 0.0
C175 C 0.53504 0.55047 0.56052 0.0
H176 H 0.55193 0.53955 0.66546 0.0
H177 H 0.45536 0.47093 0.24034 0.0
H178 H 0.97802 0.4365 0.78497 0.0
H179 H 0.97859 0.46963 0.7252 0.0
H180 H 0.06915 0.48911 0.68712 0.0
H181 H 0.0689 0.45639 0.74661 0.0
H182 H 0.06574 0.54104 0.69463 0.0
H183 H 0.00681 0.44083 0.62676 0.0
H184 H 0.9638 0.38755 0.62174 0.0
H185 H 0.89951 0.41986 0.62346 0.0
H186 H 0.94216 0.47335 0.62907 0.0
H187 H 0.09047 0.60474 0.48278 0.0
H188 H 0.08138 0.57109 0.54582 0.0
H189 H 0.99212 0.56144 0.56504 0.0
H190 H 0.00089 0.59498 0.5014 0.0
H191 H 0.99038 0.50643 0.57189 0.0
H192 H 0.04889 0.60668 0.63307 0.0
H193 H 0.09154 0.66017 0.63741 0.0
H194 H 0.15595 0.62843 0.64947 0.0
H195 H 0.11373 0.57473 0.6445 0.0
C196 C -0.00207 0.44764 0.7636 0.0
C197 C 0.02345 0.44388 0.7706 0.0
C198 C -0.0018 0.46652 0.72947 0.0
C199 C 0.02392 0.4818 0.70177 0.0
C200 C 0.04914 0.47764 0.70828 0.0
C201 C 0.04889 0.45882 0.74223 0.0
C202 C 0.02523 0.50288 0.66662 0.0
C203 C 0.04941 0.53342 0.66759 0.0
C204 C 0.00327 0.49318 0.63228 0.0
C205 C 0.97765 0.46105 0.62887 0.0
C206 C 0.98349 0.43655 0.62646 0.0
C207 C 0.95918 0.40632 0.62343 0.0
C208 C 0.92894 0.40031 0.62243 0.0
C209 C 0.92294 0.42454 0.62433 0.0
C210 C 0.94717 0.45482 0.62741 0.0
C211 C 0.06889 0.59551 0.50035 0.0
C212 C 0.04646 0.60266 0.48721 0.0
C213 C 0.06378 0.57636 0.53649 0.0
C214 C 0.03624 0.56412 0.56043 0.0
C215 C 0.01356 0.57077 0.54705 0.0
C216 C 0.01866 0.58999 0.51081 0.0
C217 C 0.03139 0.54433 0.5993 0.0
C218 C 0.00652 0.51413 0.59917 0.0
C219 C 0.05264 0.55436 0.63461 0.0
C220 C 0.07813 0.58665 0.63808 0.0
C221 C 0.07216 0.61109 0.63634 0.0
C222 C 0.09626 0.64146 0.63895 0.0
C223 C 0.12644 0.64769 0.64362 0.0
C224 C 0.13256 0.62357 0.64582 0.0
C225 C 0.10855 0.59315 0.64316 0.0
H226 H 0.14506 0.67122 0.6456 0.0
H227 H 0.91015 0.37689 0.62007 0.0
H228 H 0.65293 0.04802 0.89718 0.0
H229 H 0.62402 0.05169 0.83495 0.0
H230 H 0.53922 0.9851 0.89668 0.0
H231 H 0.5679 0.98133 0.95927 0.0
H232 H 0.5414 0.97671 0.8039 0.0
H233 H 0.5593 0.05614 0.90863 0.0
H234 H 0.59131 0.10023 0.95703 0.0
H235 H 0.64306 0.15278 0.84457 0.0
H236 H 0.61161 0.1088 0.79555 0.0
H237 H 0.43859 0.00824 0.68524 0.0
H238 H 0.46736 -0.00021 0.74317 0.0
H239 H 0.55182 0.07478 0.69211 0.0
H240 H 0.52323 0.08374 0.63467 0.0
H241 H 0.54999 0.0782 0.77937 0.0
H242 H 0.53209 -9e-05 0.67395 0.0
H243 H 0.50122 0.95585 0.6249 0.0
H244 H 0.45076 0.90129 0.73673 0.0
H245 H 0.48106 0.94519 0.78643 0.0
C246 C 0.62815 0.03383 0.8973 0.0
C247 C 0.61267 0.01453 0.93329 0.0
C248 C 0.6117 0.03603 0.86178 0.0
C249 C 0.57953 0.01887 0.86154 0.0
C250 C 0.56405 -0.00148 0.89636 0.0
C251 C 0.58047 0.9965 0.93212 0.0
C252 C 0.56199 0.02352 0.82624 0.0
C253 C 0.54295 -0.00123 0.79874 0.0
C254 C 0.56459 0.05249 0.81916 0.0
C255 C 0.58331 0.07908 0.84849 0.0
C256 C 0.57766 0.07702 0.89427 0.0
C257 C 0.59568 0.102 0.92181 0.0
C258 C 0.61926 0.12926 0.9039 0.0
C259 C 0.62481 0.13163 0.8584 0.0
C260 C 0.60689 0.10669 0.83072 0.0
C261 C 0.46329 0.02292 0.68633 0.0
C262 C 0.47864 0.04665 0.65533 0.0
C263 C 0.47972 0.01796 0.71931 0.0
C264 C 0.51178 0.03643 0.72164 0.0
C265 C 0.5271 0.06023 0.6909 0.0
C266 C 0.51071 0.06528 0.65803 0.0
C267 C 0.52938 0.0314 0.75662 0.0
C268 C 0.54842 0.05611 0.78427 0.0
C269 C 0.52686 0.00241 0.76363 0.0
C270 C 0.50864 0.97594 0.73386 0.0
C271 C 0.51424 0.9786 0.68805 0.0
C272 C 0.49687 0.95364 0.66014 0.0
C273 C 0.47398 0.92582 0.67767 0.0
C274 C 0.46847 0.92287 0.72319 0.0
C275 C 0.48575 0.94778 0.75125 0.0
H276 H 0.46057 0.90652 0.65601 0.0
H277 H 0.63319 0.14858 0.92528 0.0
H278 H 0.64457 0.64648 0.0473 0.0
H279 H 0.61339 0.61909 0.98303 0.0
H280 H 0.56042 0.53851 0.0633 0.0
H281 H 0.5917 0.56556 0.12759 0.0
H282 H 0.57455 0.52389 0.98423 0.0
H283 H 0.5335 0.58649 0.03709 0.0
H284 H 0.53457 0.63435 0.05821 0.0
H285 H 0.56506 0.67056 0.92779 0.0
H286 H 0.56467 0.62313 0.90609 0.0
H287 H 0.44253 0.44159 0.85024 0.0
H288 H 0.47872 0.46972 0.90958 0.0
H289 H 0.52704 0.54816 0.82377 0.0
H290 H 0.49067 0.52035 0.76438 0.0
H291 H 0.51744 0.56503 0.90308 0.0
H292 H 0.55726 0.5029 0.84879 0.0
H293 H 0.55544 0.45503 0.82579 0.0
H294 H 0.5279 0.41844 0.95671 0.0
H295 H 0.52912 0.46594 0.98037 0.0
C296 C 0.62639 0.62288 0.05126 0.0
C297 C 0.62053 0.60823 0.09261 0.0
C298 C 0.60851 0.60731 0.01453 0.0
C299 C 0.58435 0.5769 0.01855 0.0
C300 C 0.57892 0.562 0.05952 0.0
C301 C 0.59678 0.57752 0.09624 0.0
C302 C 0.56447 0.56062 0.98022 0.0
C303 C 0.5618 0.5327 0.96676 0.0
C304 C 0.54852 0.5726 0.95669 0.0
C305 C 0.54936 0.60137 0.9701 0.0
C306 C 0.54076 0.60478 0.01307 0.0
C307 C 0.54118 0.63181 0.02511 0.0
C308 C 0.54989 0.65546 0.99435 0.0
C309 C 0.55833 0.65221 0.95157 0.0
C310 C 0.55803 0.62528 0.93939 0.0
C311 C 0.46092 0.46478 0.8439 0.0
C312 C 0.46371 0.47874 0.80259 0.0
C313 C 0.48168 0.48078 0.8778 0.0
C314 C 0.50577 0.51093 0.87094 0.0
C315 C 0.50863 0.5249 0.82973 0.0
C316 C 0.48785 0.50895 0.79582 0.0
C317 C 0.52737 0.5282 0.90724 0.0
C318 C 0.53034 0.55629 0.92036 0.0
C319 C 0.54369 0.51647 0.93029 0.0
C320 C 0.54302 0.48788 0.91624 0.0
C321 C 0.55058 0.48455 0.87259 0.0
C322 C 0.5497 0.4575 0.85945 0.0
C323 C 0.54149 0.43368 0.88974 0.0
C324 C 0.53422 0.43689 0.93327 0.0
C325 C 0.53503 0.46389 0.94658 0.0
H326 H 0.54082 0.41275 0.8795 0.0
H327 H 0.54998 0.67627 0.00355 0.0
H328 H 0.05391 0.5145 0.93118 0.0
H329 H 0.06168 0.54908 0.99269 0.0
H330 H 0.03558 0.47455 0.08476 0.0
H331 H 0.02692 0.4396 0.02326 0.0
H332 H 0.0073 0.50459 0.10431 0.0
H333 H 0.11146 0.5334 0.07186 0.0
H334 H 0.15716 0.55011 0.02486 0.0
H335 H 0.15762 0.63355 0.99392 0.0
H336 H 0.11165 0.61714 0.04028 0.0
H337 H 0.05224 0.59246 0.29937 0.0
H338 H 0.05204 0.56096 0.23793 0.0
H339 H 0.06781 0.63303 0.14628 0.0
H340 H 0.06828 0.66497 0.20776 0.0
H341 H 0.10221 0.60501 0.12674 0.0
H342 H -0.0027 0.5751 0.15897 0.0
H343 H 0.95218 0.55827 0.20726 0.0
H344 H 0.95395 0.47617 0.23965 0.0
H345 H -0.0006 0.49275 0.19206 0.0
C346 C 0.05003 0.5055 0.96453 0.0
C347 C 0.03975 0.4743 0.97236 0.0
C348 C 0.05464 0.52536 -0.0003 0.0
C349 C 0.04955 0.51451 0.04341 0.0
C350 C 0.03965 0.48343 0.05131 0.0
C351 C 0.03475 0.4635 0.01613 0.0
C352 C 0.05317 0.53519 0.08075 0.0
C353 C 0.02826 0.52631 0.10956 0.0
C354 C 0.08022 0.56392 0.08699 0.0
C355 C 0.10794 0.5739 0.05923 0.0
C356 C 0.12117 0.55521 0.05477 0.0
C357 C 0.14714 0.56464 0.02829 0.0
C358 C 0.16024 0.59284 0.00633 0.0
C359 C 0.14743 0.6117 0.01091 0.0
C360 C 0.12143 0.60236 0.03732 0.0
C361 C 0.05591 0.60178 0.26621 0.0
C362 C 0.05999 0.63114 0.2584 0.0
C363 C 0.05574 0.5837 0.23115 0.0
C364 C 0.05949 0.59453 0.18758 0.0
C365 C 0.0648 0.62427 0.17972 0.0
C366 C 0.06496 0.64242 0.21485 0.0
C367 C 0.05646 0.5742 0.15022 0.0
C368 C 0.08137 0.58321 0.12141 0.0
C369 C 0.02947 0.54549 0.14403 0.0
C370 C 0.00193 0.53531 0.17227 0.0
C371 C 0.9882 0.55356 0.17664 0.0
C372 C 0.96255 0.54405 0.20385 0.0
C373 C 0.95025 0.5162 0.22658 0.0
C374 C 0.96353 0.49775 0.22205 0.0
C375 C 0.98922 0.50719 0.19494 0.0
H376 H 0.93039 0.50888 0.24764 0.0
H377 H 0.18034 0.6001 0.98584 0.0
H378 H 0.59911 0.70591 0.23614 0.0
H379 H 0.60457 0.75458 0.21143 0.0
H380 H 0.69374 0.7812 0.15728 0.0
H381 H 0.68877 0.73284 0.18271 0.0
H382 H 0.69391 0.82907 0.19657 0.0
H383 H 0.63132 0.75196 0.09166 0.0
H384 H 0.58814 0.70205 0.06818 0.0
H385 H 0.52417 0.72776 0.11717 0.0
H386 H 0.56704 0.7776 0.14201 0.0
H387 H 0.70172 0.94719 0.05728 0.0
H388 H 0.69992 0.90023 0.08301 0.0
H389 H 0.61203 0.87079 0.14398 0.0
H390 H 0.61346 0.91738 0.11814 0.0
H391 H 0.61269 0.82446 0.09872 0.0
H392 H 0.6766 0.90138 0.20577 0.0
H393 H 0.72057 0.95073 0.2297 0.0
H394 H 0.78294 0.9252 0.17373 0.0
H395 H 0.7393 0.87584 0.14894 0.0
C396 C 0.62 0.72222 0.21931 0.0
C397 C 0.64339 0.71541 0.21103 0.0
C398 C 0.62304 0.74998 0.20509 0.0
C399 C 0.64933 0.77125 0.18181 0.0
C400 C 0.67323 0.76505 0.17503 0.0
C401 C 0.6703 0.73737 0.18951 0.0
C402 C 0.65135 0.79941 0.16314 0.0
C403 C 0.67637 0.82807 0.17472 0.0
C404 C 0.62828 0.79807 0.13495 0.0
C405 C 0.60242 0.76842 0.11908 0.0
C406 C 0.60805 0.74691 0.09769 0.0
C407 C 0.58362 0.71862 0.08412 0.0
C408 C 0.55341 0.71171 0.0912 0.0
C409 C 0.54758 0.73313 0.11175 0.0
C410 C 0.57195 0.7614 0.12561 0.0
C411 C 0.68198 0.93069 0.07608 0.0
C412 C 0.65779 0.93608 0.0858 0.0
C413 C 0.68104 0.90393 0.09088 0.0
C414 C 0.65597 0.8822 0.11577 0.0
C415 C 0.63159 0.88729 0.12486 0.0
C416 C 0.63252 0.914 0.11016 0.0
C417 C 0.65505 0.85413 0.1326 0.0
C418 C 0.63026 0.82546 0.12051 0.0
C419 C 0.67844 0.85547 0.16002 0.0
C420 C 0.70468 0.88506 0.17511 0.0
C421 C 0.69969 0.9064 0.19827 0.0
C422 C 0.72455 0.93435 0.21204 0.0
C423 C 0.75453 0.94113 0.20314 0.0
C424 C 0.75971 0.91993 0.18055 0.0
C425 C 0.73492 0.89196 0.16666 0.0
H426 H 0.77375 0.96279 0.21383 0.0
H427 H 0.53451 0.68977 0.08072 0.0
H428 H 0.97648 0.69167 0.37082 0.0
H429 H 0.93186 0.69673 0.35314 0.0
H430 H 0.89017 0.60958 0.28542 0.0
H431 H 0.93473 0.60441 0.30261 0.0
H432 H 0.88476 0.65307 0.23871 0.0
H433 H 0.86731 0.61424 0.38796 0.0
H434 H 0.88043 0.61446 0.46653 0.0
H435 H 0.88708 0.70224 0.48403 0.0
H436 H 0.87439 0.70272 0.40536 0.0
H437 H 0.72986 0.61669 0.22882 0.0
H438 H 0.77789 0.61735 0.24277 0.0
H439 H 0.81213 0.70216 0.3152 0.0
H440 H 0.76388 0.7014 0.3021 0.0
H441 H 0.82322 0.66302 0.35892 0.0
H442 H 0.83829 0.70115 0.21098 0.0
H443 H 0.82549 0.70147 0.13241 0.0
H444 H 0.82394 0.61631 0.11196 0.0
H445 H 0.83631 0.61525 0.19059 0.0
C446 C 0.95785 0.67361 0.35208 0.0
C447 C 0.95906 0.64755 0.33833 0.0
C448 C 0.93235 0.6765 0.34212 0.0
C449 C 0.90761 0.65338 0.31835 0.0
C450 C 0.90903 0.62766 0.30383 0.0
C451 C 0.93446 0.6247 0.31386 0.0
C452 C 0.88 0.6557 0.30908 0.0
C453 C 0.87109 0.65493 0.26496 0.0
C454 C 0.86271 0.65897 0.34335 0.0
C455 C 0.87023 0.65866 0.39068 0.0
C456 C 0.87182 0.6337 0.40848 0.0
C457 C 0.87913 0.63368 0.45304 0.0
C458 C 0.88467 0.65839 0.48023 0.0
C459 C 0.88283 0.68314 0.46292 0.0
C460 C 0.87556 0.68328 0.41836 0.0
C461 C 0.74764 0.63556 0.24758 0.0
C462 C 0.74306 0.65902 0.26432 0.0
C463 C 0.77515 0.63598 0.25534 0.0
C464 C 0.79875 0.66001 0.27957 0.0
C465 C 0.79424 0.68344 0.29635 0.0
C466 C 0.76667 0.68298 0.28876 0.0
C467 C 0.82775 0.66016 0.28848 0.0
C468 C 0.83695 0.66138 0.33257 0.0
C469 C 0.84535 0.65742 0.25415 0.0
C470 C 0.83795 0.65799 0.2068 0.0
C471 C 0.83498 0.68237 0.18982 0.0
C472 C 0.82784 0.6827 0.14525 0.0
C473 C 0.82383 0.65889 0.11723 0.0
C474 C 0.82702 0.63473 0.13371 0.0
C475 C 0.83412 0.63426 0.17827 0.0
H476 H 0.81831 0.6592 0.08273 0.0
H477 H 0.89032 0.65833 0.51472 0.0
H478 H 0.13609 0.72569 0.43 0.0
H479 H 0.18269 0.77008 0.45773 0.0
H480 H 0.14577 0.82872 0.4263 0.0
H481 H 0.09902 0.78435 0.39787 0.0
H482 H 0.20578 0.85438 0.4021 0.0
H483 H 0.14553 0.80705 0.53173 0.0
H484 H 0.11462 0.76411 0.58252 0.0
H485 H 0.19179 0.75155 0.60433 0.0
H486 H 0.22308 0.79417 0.55316 0.0
H487 H 0.31488 0.98213 0.52681 0.0
H488 H 0.26615 0.93891 0.50172 0.0
H489 H 0.30018 0.87702 0.52675 0.0
H490 H 0.34899 0.92008 0.55201 0.0
H491 H 0.24051 0.85389 0.55545 0.0
H492 H 0.3001 0.89954 0.42451 0.0
H493 H 0.33129 0.94189 0.37302 0.0
H494 H 0.25556 0.95706 0.35323 0.0
H495 H 0.22405 0.91508 0.4052 0.0
C496 C 0.13785 0.74802 0.42881 0.0
C497 C 0.11374 0.75145 0.41194 0.0
C498 C 0.16447 0.77335 0.44488 0.0
C499 C 0.16747 0.80259 0.4447 0.0
C500 C 0.14382 0.80629 0.4269 0.0
C501 C 0.11712 0.78091 0.41076 0.0
C502 C 0.19532 0.82923 0.4633 0.0
C503 C 0.21312 0.85451 0.43585 0.0
C504 C 0.20521 0.82904 0.50705 0.0
C505 C 0.18657 0.80364 0.5383 0.0
C506 C 0.15586 0.79501 0.54712 0.0
C507 C 0.13828 0.77074 0.57602 0.0
C508 C 0.15121 0.75506 0.59655 0.0
C509 C 0.1818 0.7637 0.58836 0.0
C510 C 0.19948 0.78794 0.55946 0.0
C511 C 0.31194 0.9593 0.52729 0.0
C512 C 0.33586 0.95454 0.54118 0.0
C513 C 0.28413 0.93466 0.5128 0.0
C514 C 0.27973 0.90485 0.51197 0.0
C515 C 0.30318 0.89988 0.52709 0.0
C516 C 0.33107 0.92452 0.54137 0.0
C517 C 0.25097 0.87896 0.49421 0.0
C518 C 0.23305 0.85383 0.52181 0.0
C519 C 0.24099 0.87925 0.45059 0.0
C520 C 0.25983 0.9044 0.41914 0.0
C521 C 0.29018 0.91208 0.40949 0.0
C522 C 0.3079 0.93599 0.38016 0.0
C523 C 0.29544 0.95221 0.35996 0.0
C524 C 0.2652 0.94451 0.36897 0.0
C525 C 0.24739 0.92065 0.39834 0.0
H526 H 0.3092 0.97071 0.33726 0.0
H527 H 0.13755 0.73625 0.61886 0.0
H528 H 0.4518 0.35064 0.7168 0.0
H529 H 0.44697 0.30198 0.69332 0.0
H530 H 0.34975 0.26409 0.67378 0.0
H531 H 0.35425 0.3125 0.69797 0.0
H532 H 0.36142 0.22279 0.71163 0.0
H533 H 0.39835 0.29005 0.58678 0.0
H534 H 0.43277 0.33795 0.54691 0.0
H535 H 0.509 0.32428 0.57134 0.0
H536 H 0.47511 0.27653 0.61201 0.0
H537 H 0.34018 0.09635 0.57943 0.0
H538 H 0.34215 0.14369 0.60365 0.0
H539 H 0.43909 0.18462 0.62927 0.0
H540 H 0.43744 0.13762 0.60477 0.0
H541 H 0.42583 0.22398 0.58653 0.0
H542 H 0.38793 0.15678 0.71327 0.0
H543 H 0.35267 0.10892 0.75261 0.0
H544 H 0.27692 0.12229 0.72258 0.0
H545 H 0.31169 0.17005 0.68253 0.0
C546 C 0.42934 0.33189 0.70785 0.0
C547 C 0.40345 0.33551 0.70893 0.0
C548 C 0.42665 0.30414 0.69426 0.0
C549 C 0.39809 0.27962 0.68108 0.0
C550 C 0.37202 0.28277 0.68366 0.0
C551 C 0.37466 0.31048 0.69742 0.0
C552 C 0.39559 0.25097 0.66352 0.0
C553 C 0.3752 0.22299 0.68391 0.0
C554 C 0.41384 0.25131 0.62766 0.0
C555 C 0.43424 0.27985 0.6028 0.0
C556 C 0.42249 0.29737 0.58392 0.0
C557 C 0.4419 0.32448 0.56115 0.0
C558 C 0.47306 0.33419 0.55668 0.0
C559 C 0.48486 0.31675 0.57488 0.0
C560 C 0.46556 0.28965 0.59777 0.0
C561 C 0.36194 0.11546 0.59008 0.0
C562 C 0.38862 0.11317 0.59036 0.0
C563 C 0.36299 0.14244 0.60406 0.0
C564 C 0.39071 0.16752 0.6187 0.0
C565 C 0.41747 0.16551 0.61815 0.0
C566 C 0.41644 0.13857 0.60425 0.0
C567 C 0.39191 0.19586 0.63495 0.0
C568 C 0.41201 0.22379 0.6142 0.0
C569 C 0.37325 0.19543 0.67027 0.0
C570 C 0.35236 0.16681 0.69453 0.0
C571 C 0.36371 0.14939 0.71477 0.0
C572 C 0.34383 0.1223 0.73725 0.0
C573 C 0.31256 0.11253 0.73999 0.0
C574 C 0.30114 0.12987 0.72037 0.0
C575 C 0.32092 0.15696 0.69781 0.0
H576 H 0.2972 0.09155 0.7574 0.0
H577 H 0.48806 0.35519 0.53904 0.0
H578 H 0.0966 0.37659 0.96909 0.0
H579 H 0.14336 0.37565 0.95004 0.0
H580 H 0.12643 0.38143 0.81156 0.0
H581 H 0.07949 0.38169 0.83015 0.0
H582 H 0.1462 0.34216 0.8235 0.0
H583 H 0.17735 0.44506 0.87092 0.0
H584 H 0.18046 0.48454 0.92237 0.0
H585 H 0.22394 0.4568 0.01929 0.0
H586 H 0.2207 0.41685 0.96858 0.0
H587 H 0.29512 0.40139 0.73232 0.0
H588 H 0.24604 0.39475 0.75766 0.0
H589 H 0.26769 0.38277 0.89144 0.0
H590 H 0.31685 0.38947 0.86648 0.0
H591 H 0.24536 0.4225 0.88601 0.0
H592 H 0.21719 0.32164 0.83456 0.0
H593 H 0.21462 0.28339 0.78117 0.0
H594 H 0.16611 0.30872 0.68955 0.0
H595 H 0.16876 0.34745 0.74217 0.0
C596 C 0.10271 0.37739 0.93457 0.0
C597 C 0.08444 0.37943 0.90117 0.0
C598 C 0.12949 0.37699 0.92375 0.0
C599 C 0.13861 0.37894 0.8794 0.0
C600 C 0.11987 0.37994 0.84599 0.0
C601 C 0.09306 0.38018 0.85673 0.0
C602 C 0.16813 0.38093 0.86756 0.0
C603 C 0.1679 0.35988 0.8369 0.0
C604 C 0.1964 0.40368 0.8857 0.0
C605 C 0.19846 0.42775 0.91616 0.0
C606 C 0.18735 0.44722 0.90333 0.0
C607 C 0.18918 0.46971 0.93234 0.0
C608 C 0.2023 0.47312 0.97412 0.0
C609 C 0.21372 0.4541 0.98694 0.0
C610 C 0.21191 0.43154 0.95808 0.0
C611 C 0.28945 0.39733 0.76713 0.0
C612 C 0.30985 0.39589 0.79738 0.0
C613 C 0.26134 0.39341 0.78151 0.0
C614 C 0.25314 0.38797 0.82635 0.0
C615 C 0.27358 0.38687 0.85668 0.0
C616 C 0.30162 0.39063 0.84231 0.0
C617 C 0.22341 0.38394 0.84164 0.0
C618 C 0.22362 0.40462 0.87292 0.0
C619 C 0.19517 0.361 0.82382 0.0
C620 C 0.19342 0.33764 0.79217 0.0
C621 C 0.20619 0.31923 0.80289 0.0
C622 C 0.20468 0.29743 0.77279 0.0
C623 C 0.19027 0.29368 0.73196 0.0
C624 C 0.17728 0.31168 0.72118 0.0
C625 C 0.17876 0.33353 0.75115 0.0
H626 H 0.18913 0.27679 0.7087 0.0
H627 H 0.2037 0.49054 0.99653 0.0
H628 H 0.91573 0.32795 0.94351 0.0
H629 H 0.86982 0.28339 0.97272 0.0
H630 H 0.90132 0.22375 0.92266 0.0
H631 H 0.94724 0.26825 0.89271 0.0
H632 H 0.84088 0.20047 0.90682 0.0
H633 H 0.90796 0.24161 0.03148 0.0
H634 H 0.94229 0.28173 0.08387 0.0
H635 H 0.86848 0.29588 0.12362 0.0
H636 H 0.83379 0.25611 0.07098 0.0
H637 H 0.73533 0.06959 0.02937 0.0
H638 H 0.78393 0.11293 0.00406 0.0
H639 H 0.75358 0.17567 0.0437 0.0
H640 H 0.7049 0.1325 0.06917 0.0
H641 H 0.81453 0.1962 0.06583 0.0
H642 H 0.74805 0.15613 0.9394 0.0
H643 H 0.71351 0.11531 0.888 0.0
H644 H 0.78648 0.09882 0.85217 0.0
H645 H 0.82133 0.13921 0.90399 0.0
C646 C 0.9129 0.30537 0.93855 0.0
C647 C 0.93524 0.30167 0.91595 0.0
C648 C 0.88669 0.27992 0.95547 0.0
C649 C 0.88239 0.25031 0.95045 0.0
C650 C 0.90427 0.24643 0.92704 0.0
C651 C 0.93051 0.27189 0.91002 0.0
C652 C 0.85504 0.22344 0.96977 0.0
C653 C 0.83537 0.19932 0.94171 0.0
C654 C 0.84758 0.22222 0.01516 0.0
C655 C 0.86835 0.24607 0.04698 0.0
C656 C 0.8991 0.25344 0.05114 0.0
C657 C 0.91862 0.27609 0.08093 0.0
C658 C 0.90759 0.2914 0.10698 0.0
C659 C 0.877 0.28402 0.10338 0.0
C660 C 0.85739 0.26141 0.0736 0.0
C661 C 0.7391 0.09262 0.03317 0.0
C662 C 0.71618 0.09761 0.05102 0.0
C663 C 0.76684 0.11733 0.01854 0.0
C664 C 0.77214 0.14742 0.02158 0.0
C665 C 0.74985 0.15258 0.04101 0.0
C666 C 0.72203 0.12788 0.05541 0.0
C667 C 0.8004 0.17341 0.00286 0.0
C668 C 0.82018 0.19734 0.03101 0.0
C669 C 0.80799 0.17444 0.95759 0.0
C670 C 0.78721 0.15047 0.92592 0.0
C671 C 0.75667 0.14364 0.92081 0.0
C672 C 0.73704 0.1206 0.89158 0.0
C673 C 0.74777 0.10443 0.86692 0.0
C674 C 0.77819 0.11134 0.87135 0.0
C675 C 0.79789 0.13431 0.90063 0.0
H676 H 0.73254 0.0866 0.84431 0.0
H677 H 0.92274 0.30892 0.13003 0.0
loop_
_geom_bond_atom_site_label_1
_geom_bond_atom_site_label_2
_geom_bond_distance
_geom_bond_site_symmetry_2
_ccdc_geom_bond_type
C0 O1 1.160 . S
C0 O7 1.185 . S
O1 C0 1.160 . S
O2 Zn3 1.899 . S
O2 C10 1.284 . S
Zn3 O2 1.899 . S
Zn3 O4 2.032 . S
Zn3 O7 2.086 1_545 S
Zn3 O12 1.977 . S
O4 Zn3 2.032 . S
O4 C8 1.278 . S
C5 O6 1.203 . S
C5 O12 1.267 1_556 S
O6 C5 1.203 . S
O7 C0 1.185 . S
O7 Zn3 2.086 1_565 S
C8 O4 1.278 . S
C8 O9 1.211 . S
O9 C8 1.211 . S
C10 O2 1.284 . S
C10 O11 1.273 . S
O11 C10 1.273 . S
O12 Zn3 1.977 . S
O12 C5 1.267 1_554 S
C13 O14 1.160 . S
C13 O20 1.185 . S
O14 C13 1.160 . S
O15 Zn16 1.899 . S
O15 C23 1.284 . S
Zn16 O15 1.899 . S
Zn16 O17 2.032 . S
Zn16 O20 2.086 . S
Zn16 O25 1.977 . S
O17 Zn16 2.032 . S
O17 C21 1.278 . S
C18 O19 1.203 . S
C18 O25 1.267 . S
O19 C18 1.203 . S
O20 C13 1.185 . S
O20 Zn16 2.086 . S
C21 O17 1.278 . S
C21 O22 1.211 . S
O22 C21 1.211 . S
C23 O15 1.284 . S
C23 O24 1.273 . S
O24 C23 1.273 . S
O25 Zn16 1.977 . S
O25 C18 1.267 . S
C26 O27 1.160 . S
C26 O33 1.185 . S
O27 C26 1.160 . S
O28 Zn29 1.899 . S
O28 C36 1.284 1_455 S
Zn29 O28 1.899 . S
Zn29 O30 2.032 . S
Zn29 O33 2.086 . S
Zn29 O38 1.977 . S
O30 Zn29 2.032 . S
O30 C34 1.278 . S
C31 O32 1.203 . S
C31 O38 1.267 . S
O32 C31 1.203 . S
O33 C26 1.185 . S
O33 Zn29 2.086 . S
C34 O30 1.278 . S
C34 O35 1.211 . S
O35 C34 1.211 . S
C36 O28 1.284 1_655 S
C36 O37 1.273 . S
O37 C36 1.273 . S
O38 Zn29 1.977 . S
O38 C31 1.267 . S
C39 O40 1.160 . S
C39 O46 1.185 . S
O40 C39 1.160 . S
O41 Zn42 1.899 . S
O41 C49 1.284 1_545 S
Zn42 O41 1.899 . S
Zn42 O43 2.032 . S
Zn42 O46 2.086 . S
Zn42 O51 1.977 . S
O43 Zn42 2.032 . S
O43 C47 1.278 . S
C44 O45 1.203 . S
C44 O51 1.267 . S
O45 C44 1.203 . S
O46 C39 1.185 . S
O46 Zn42 2.086 . S
C47 O43 1.278 . S
C47 O48 1.211 . S
O48 C47 1.211 . S
C49 O41 1.284 1_565 S
C49 O50 1.273 . S
O50 C49 1.273 . S
O51 Zn42 1.977 . S
O51 C44 1.267 . S
C52 O53 1.160 . S
C52 O59 1.185 . S
O53 C52 1.160 . S
O54 Zn55 1.899 . S
O54 C62 1.284 . S
Zn55 O54 1.899 . S
Zn55 O56 2.032 . S
Zn55 O59 2.086 . S
Zn55 O64 1.977 . S
O56 Zn55 2.032 . S
O56 C60 1.278 . S
C57 O58 1.203 . S
C57 O64 1.267 . S
O58 C57 1.203 . S
O59 C52 1.185 . S
O59 Zn55 2.086 . S
C60 O56 1.278 . S
C60 O61 1.211 . S
O61 C60 1.211 . S
C62 O54 1.284 . S
C62 O63 1.273 . S
O63 C62 1.273 . S
O64 Zn55 1.977 . S
O64 C57 1.267 . S
C65 O66 1.160 . S
C65 O72 1.185 . S
O66 C65 1.160 . S
O67 Zn68 1.899 . S
O67 C75 1.284 . S
Zn68 O67 1.899 . S
Zn68 O69 2.032 . S
Zn68 O72 2.086 1_455 S
Zn68 O77 1.977 . S
O69 Zn68 2.032 . S
O69 C73 1.278 . S
C70 O71 1.203 . S
C70 O77 1.267 . S
O71 C70 1.203 . S
O72 C65 1.185 . S
O72 Zn68 2.086 1_655 S
C73 O69 1.278 . S
C73 O74 1.211 . S
O74 C73 1.211 . S
C75 O67 1.284 . S
C75 O76 1.273 . S
O76 C75 1.273 . S
O77 Zn68 1.977 . S
O77 C70 1.267 . S
H78 C96 0.951 . S
H79 C98 0.951 . S
H80 C100 0.950 . S
H81 C101 0.950 . S
H82 C103 0.950 . S
H83 C106 0.950 . S
H84 C107 0.950 . S
H85 C109 0.950 . S
H86 C110 0.950 . S
H87 C111 0.951 . S
H88 C113 0.951 . S
H89 C115 0.950 . S
H90 C116 0.950 . S
H91 C118 0.950 . S
H92 C121 0.950 . S
H93 C122 0.950 . S
H94 C124 0.950 . S
H95 C125 0.950 1_545 S
C96 H78 0.951 . S
C96 C97 1.366 . S
C96 C98 1.388 . S
C97 C96 1.366 . S
C97 C101 1.385 . S
C98 H79 0.951 . S
C98 C96 1.388 . S
C98 C99 1.366 . S
C99 C98 1.366 . S
C99 C100 1.414 . S
C99 C102 1.499 . S
C100 H80 0.950 . S
C100 C99 1.414 . S
C100 C101 1.374 . S
C101 H81 0.950 . S
C101 C97 1.385 . S
C101 C100 1.374 . S
C102 C99 1.499 . S
C102 C103 1.373 . S
C102 C104 1.389 . S
C103 H82 0.950 . S
C103 C102 1.373 . S
C103 C119 1.377 . S
C104 C102 1.389 . S
C104 C105 1.524 . S
C104 C118 1.377 . S
C105 C104 1.524 . S
C105 C106 1.397 . S
C105 C110 1.363 . S
C106 H83 0.950 . S
C106 C105 1.397 . S
C106 C107 1.334 . S
C107 H84 0.950 . S
C107 C106 1.334 . S
C107 C108 1.287 . S
C108 C107 1.287 . S
C108 C109 1.524 . S
C108 H127 0.913 . S
C109 H85 0.950 . S
C109 C108 1.524 . S
C109 C110 1.415 . S
C110 H86 0.950 . S
C110 C105 1.363 . S
C110 C109 1.415 . S
C111 H87 0.951 . S
C111 C112 1.366 . S
C111 C113 1.388 . S
C112 C111 1.366 . S
C112 C116 1.385 . S
C113 H88 0.951 . S
C113 C111 1.388 . S
C113 C114 1.366 . S
C114 C113 1.366 . S
C114 C115 1.414 . S
C114 C117 1.499 . S
C115 H89 0.950 . S
C115 C114 1.414 . S
C115 C116 1.374 . S
C116 H90 0.950 . S
C116 C112 1.385 . S
C116 C115 1.374 . S
C117 C114 1.499 . S
C117 C118 1.373 . S
C117 C119 1.389 . S
C118 H91 0.950 . S
C118 C104 1.377 . S
C118 C117 1.373 . S
C119 C103 1.377 . S
C119 C117 1.389 . S
C119 C120 1.524 1_545 S
C120 C119 1.524 1_565 S
C120 C121 1.397 . S
C120 C125 1.363 . S
C121 H92 0.950 . S
C121 C120 1.397 . S
C121 C122 1.334 . S
C122 H93 0.950 . S
C122 C121 1.334 . S
C122 C123 1.287 . S
C123 C122 1.287 . S
C123 C124 1.524 . S
C123 H126 0.999 . S
C124 H94 0.950 . S
C124 C123 1.524 . S
C124 C125 1.415 . S
C125 H95 0.950 1_565 S
C125 C120 1.363 . S
C125 C124 1.415 . S
H126 C123 0.999 . S
H127 C108 0.913 . S
H128 C146 0.951 . S
H129 C148 0.951 . S
H130 C150 0.950 . S
H131 C151 0.950 . S
H132 C153 0.950 . S
H133 C156 0.950 . S
H134 C157 0.950 . S
H135 C159 0.950 . S
H136 C160 0.950 . S
H137 C161 0.951 . S
H138 C163 0.951 . S
H139 C165 0.950 . S
H140 C166 0.950 . S
H141 C168 0.950 . S
H142 C171 0.950 . S
H143 C172 0.950 . S
H144 C174 0.950 . S
H145 C175 0.950 . S
C146 H128 0.951 . S
C146 C147 1.366 . S
C146 C148 1.388 . S
C147 C146 1.366 . S
C147 C151 1.385 . S
C148 H129 0.951 . S
C148 C146 1.388 . S
C148 C149 1.366 . S
C149 C148 1.366 . S
C149 C150 1.414 . S
C149 C152 1.499 . S
C150 H130 0.950 . S
C150 C149 1.414 . S
C150 C151 1.374 . S
C151 H131 0.950 . S
C151 C147 1.385 . S
C151 C150 1.374 . S
C152 C149 1.499 . S
C152 C153 1.373 . S
C152 C154 1.389 . S
C153 H132 0.950 . S
C153 C152 1.373 . S
C153 C169 1.377 . S
C154 C152 1.389 . S
C154 C155 1.524 . S
C154 C168 1.377 . S
C155 C154 1.524 . S
C155 C156 1.397 . S
C155 C160 1.363 . S
C156 H133 0.950 . S
C156 C155 1.397 . S
C156 C157 1.334 . S
C157 H134 0.950 . S
C157 C156 1.334 . S
C157 C158 1.287 . S
C158 C157 1.287 . S
C158 C159 1.524 . S
C158 H177 0.913 . S
C159 H135 0.950 . S
C159 C158 1.524 . S
C159 C160 1.415 . S
C160 H136 0.950 . S
C160 C155 1.363 . S
C160 C159 1.415 . S
C161 H137 0.951 . S
C161 C162 1.366 . S
C161 C163 1.388 . S
C162 C161 1.366 . S
C162 C166 1.385 . S
C163 H138 0.951 . S
C163 C161 1.388 . S
C163 C164 1.366 . S
C164 C163 1.366 . S
C164 C165 1.414 . S
C164 C167 1.499 . S
C165 H139 0.950 . S
C165 C164 1.414 . S
C165 C166 1.374 . S
C166 H140 0.950 . S
C166 C162 1.385 . S
C166 C165 1.374 . S
C167 C164 1.499 . S
C167 C168 1.373 . S
C167 C169 1.389 . S
C168 H141 0.950 . S
C168 C154 1.377 . S
C168 C167 1.373 . S
C169 C153 1.377 . S
C169 C167 1.389 . S
C169 C170 1.524 . S
C170 C169 1.524 . S
C170 C171 1.397 . S
C170 C175 1.363 . S
C171 H142 0.950 . S
C171 C170 1.397 . S
C171 C172 1.334 . S
C172 H143 0.950 . S
C172 C171 1.334 . S
C172 C173 1.287 . S
C173 C172 1.287 . S
C173 C174 1.524 . S
C173 H176 0.999 . S
C174 H144 0.950 . S
C174 C173 1.524 . S
C174 C175 1.415 . S
C175 H145 0.950 . S
C175 C170 1.363 . S
C175 C174 1.415 . S
H176 C173 0.999 . S
H177 C158 0.913 . S
H178 C196 0.951 . S
H179 C198 0.951 . S
H180 C200 0.950 . S
H181 C201 0.950 . S
H182 C203 0.950 . S
H183 C206 0.945 . S
H184 C207 0.950 . S
H185 C209 0.950 . S
H186 C210 0.950 . S
H187 C211 0.951 . S
H188 C213 0.951 . S
H189 C215 0.950 1_655 S
H190 C216 0.950 1_655 S
H191 C218 0.950 1_655 S
H192 C221 0.950 . S
H193 C222 0.950 . S
H194 C224 0.950 . S
H195 C225 0.950 . S
C196 H178 0.951 . S
C196 C197 1.366 1_655 S
C196 C198 1.388 . S
C197 C196 1.366 1_455 S
C197 C201 1.385 . S
C198 H179 0.951 . S
C198 C196 1.388 . S
C198 C199 1.366 1_655 S
C199 C198 1.366 1_455 S
C199 C200 1.414 . S
C199 C202 1.499 . S
C200 H180 0.950 . S
C200 C199 1.414 . S
C200 C201 1.374 . S
C201 H181 0.950 . S
C201 C197 1.385 . S
C201 C200 1.374 . S
C202 C199 1.499 . S
C202 C203 1.373 . S
C202 C204 1.389 . S
C203 H182 0.950 . S
C203 C202 1.373 . S
C203 C219 1.377 . S
C204 C202 1.389 . S
C204 C205 1.524 1_455 S
C204 C218 1.377 . S
C205 C204 1.524 1_655 S
C205 C206 1.397 . S
C205 C210 1.363 . S
C206 H183 0.945 . S
C206 C205 1.397 . S
C206 C207 1.334 . S
C207 H184 0.950 . S
C207 C206 1.334 . S
C207 C208 1.287 . S
C208 C207 1.287 . S
C208 C209 1.524 . S
C208 H227 0.913 . S
C209 H185 0.950 . S
C209 C208 1.524 . S
C209 C210 1.415 . S
C210 H186 0.950 . S
C210 C205 1.363 . S
C210 C209 1.415 . S
C211 H187 0.951 . S
C211 C212 1.366 . S
C211 C213 1.388 . S
C212 C211 1.366 . S
C212 C216 1.385 . S
C213 H188 0.951 . S
C213 C211 1.388 . S
C213 C214 1.366 . S
C214 C213 1.366 . S
C214 C215 1.414 . S
C214 C217 1.499 . S
C215 H189 0.950 1_455 S
C215 C214 1.414 . S
C215 C216 1.374 . S
C216 H190 0.950 1_455 S
C216 C212 1.385 . S
C216 C215 1.374 . S
C217 C214 1.499 . S
C217 C218 1.373 . S
C217 C219 1.389 . S
C218 H191 0.950 1_455 S
C218 C204 1.377 . S
C218 C217 1.373 . S
C219 C203 1.377 . S
C219 C217 1.389 . S
C219 C220 1.524 . S
C220 C219 1.524 . S
C220 C221 1.397 . S
C220 C225 1.363 . S
C221 H192 0.950 . S
C221 C220 1.397 . S
C221 C222 1.334 . S
C222 H193 0.950 . S
C222 C221 1.334 . S
C222 C223 1.287 . S
C223 C222 1.287 . S
C223 C224 1.524 . S
C223 H226 0.999 . S
C224 H194 0.950 . S
C224 C223 1.524 . S
C224 C225 1.415 . S
C225 H195 0.950 . S
C225 C220 1.363 . S
C225 C224 1.415 . S
H226 C223 0.999 . S
H227 C208 0.913 . S
H228 C246 0.951 . S
H229 C248 0.951 . S
H230 C250 0.950 . S
H231 C251 0.950 . S
H232 C253 0.950 . S
H233 C256 0.950 . S
H234 C257 0.950 . S
H235 C259 0.950 . S
H236 C260 0.950 . S
H237 C261 0.951 1_565 S
H238 C263 0.951 1_565 S
H239 C265 0.950 . S
H240 C266 0.950 . S
H241 C268 0.950 . S
H242 C271 0.950 . S
H243 C272 0.950 . S
H244 C274 0.950 . S
H245 C275 0.950 . S
C246 H228 0.951 . S
C246 C247 1.366 . S
C246 C248 1.388 . S
C247 C246 1.366 . S
C247 C251 1.385 1_545 S
C248 H229 0.951 . S
C248 C246 1.388 . S
C248 C249 1.366 . S
C249 C248 1.366 . S
C249 C250 1.414 1_545 S
C249 C252 1.499 . S
C250 H230 0.950 . S
C250 C249 1.414 1_565 S
C250 C251 1.374 . S
C251 H231 0.950 . S
C251 C247 1.385 1_565 S
C251 C250 1.374 . S
C252 C249 1.499 . S
C252 C253 1.373 1_545 S
C252 C254 1.389 . S
C253 H232 0.950 . S
C253 C252 1.373 1_565 S
C253 C269 1.386 . S
C254 C252 1.389 . S
C254 C255 1.524 . S
C254 C268 1.377 . S
C255 C254 1.524 . S
C255 C256 1.397 . S
C255 C260 1.363 . S
C256 H233 0.950 . S
C256 C255 1.397 . S
C256 C257 1.334 . S
C257 H234 0.950 . S
C257 C256 1.334 . S
C257 C258 1.287 . S
C258 C257 1.287 . S
C258 C259 1.524 . S
C258 H277 0.913 . S
C259 H235 0.950 . S
C259 C258 1.524 . S
C259 C260 1.415 . S
C260 H236 0.950 . S
C260 C255 1.363 . S
C260 C259 1.415 . S
C261 H237 0.951 1_545 S
C261 C262 1.366 . S
C261 C263 1.388 . S
C262 C261 1.366 . S
C262 C266 1.385 . S
C263 H238 0.951 1_545 S
C263 C261 1.388 . S
C263 C264 1.366 . S
C264 C263 1.366 . S
C264 C265 1.414 . S
C264 C267 1.499 . S
C265 H239 0.950 . S
C265 C264 1.414 . S
C265 C266 1.374 . S
C266 H240 0.950 . S
C266 C262 1.385 . S
C266 C265 1.374 . S
C267 C264 1.499 . S
C267 C268 1.373 . S
C267 C269 1.361 1_545 S
C268 H241 0.950 . S
C268 C254 1.377 . S
C268 C267 1.373 . S
C269 C253 1.386 . S
C269 C267 1.361 1_565 S
C269 C270 1.545 . S
C270 C269 1.545 . S
C270 C271 1.397 . S
C270 C275 1.363 . S
C271 H242 0.950 . S
C271 C270 1.397 . S
C271 C272 1.334 . S
C272 H243 0.950 . S
C272 C271 1.334 . S
C272 C273 1.287 . S
C273 C272 1.287 . S
C273 C274 1.524 . S
C273 H276 0.999 . S
C274 H244 0.950 . S
C274 C273 1.524 . S
C274 C275 1.415 . S
C275 H245 0.950 . S
C275 C270 1.363 . S
C275 C274 1.415 . S
H276 C273 0.999 . S
H277 C258 0.913 . S
H278 C296 0.951 . S
H279 C298 0.951 . S
H280 C300 0.950 . S
H281 C301 0.950 . S
H282 C303 0.950 1_554 S
H283 C306 0.950 . S
H284 C307 0.950 . S
H285 C309 0.950 . S
H286 C310 0.950 . S
H287 C311 0.951 . S
H288 C313 0.951 . S
H289 C315 0.950 . S
H290 C316 0.950 . S
H291 C318 0.950 . S
H292 C321 0.950 . S
H293 C322 0.950 . S
H294 C324 0.950 . S
H295 C325 0.950 1_554 S
C296 H278 0.951 . S
C296 C297 1.366 . S
C296 C298 1.388 . S
C297 C296 1.366 . S
C297 C301 1.385 . S
C298 H279 0.951 . S
C298 C296 1.388 . S
C298 C299 1.366 . S
C299 C298 1.366 . S
C299 C300 1.414 . S
C299 C302 1.499 . S
C300 H280 0.950 . S
C300 C299 1.414 . S
C300 C301 1.374 . S
C301 H281 0.950 . S
C301 C297 1.385 . S
C301 C300 1.374 . S
C302 C299 1.499 . S
C302 C303 1.373 1_554 S
C302 C304 1.389 1_554 S
C303 H282 0.950 1_556 S
C303 C302 1.373 1_556 S
C303 C319 1.377 . S
C304 C302 1.389 1_556 S
C304 C305 1.524 . S
C304 C318 1.377 . S
C305 C304 1.524 . S
C305 C306 1.397 1_556 S
C305 C310 1.363 . S
C306 H283 0.950 . S
C306 C305 1.397 1_554 S
C306 C307 1.334 . S
C307 H284 0.950 . S
C307 C306 1.334 . S
C307 C308 1.287 . S
C308 C307 1.287 . S
C308 C309 1.524 1_554 S
C308 H327 0.913 . S
C309 H285 0.950 . S
C309 C308 1.524 1_556 S
C309 C310 1.415 . S
C310 H286 0.950 . S
C310 C305 1.363 . S
C310 C309 1.415 . S
C311 H287 0.951 . S
C311 C312 1.366 . S
C311 C313 1.388 . S
C312 C311 1.366 . S
C312 C316 1.385 . S
C313 H288 0.951 . S
C313 C311 1.388 . S
C313 C314 1.366 . S
C314 C313 1.366 . S
C314 C315 1.414 . S
C314 C317 1.499 . S
C315 H289 0.950 . S
C315 C314 1.414 . S
C315 C316 1.374 . S
C316 H290 0.950 . S
C316 C312 1.385 . S
C316 C315 1.374 . S
C317 C314 1.499 . S
C317 C318 1.373 . S
C317 C319 1.389 . S
C318 H291 0.950 . S
C318 C304 1.377 . S
C318 C317 1.373 . S
C319 C303 1.377 . S
C319 C317 1.389 . S
C319 C320 1.524 . S
C320 C319 1.524 . S
C320 C321 1.397 . S
C320 C325 1.363 . S
C321 H292 0.950 . S
C321 C320 1.397 . S
C321 C322 1.334 . S
C322 H293 0.950 . S
C322 C321 1.334 . S
C322 C323 1.287 . S
C323 C322 1.287 . S
C323 C324 1.524 . S
C323 H326 0.999 . S
C324 H294 0.950 . S
C324 C323 1.524 . S
C324 C325 1.415 . S
C325 H295 0.950 1_556 S
C325 C320 1.363 . S
C325 C324 1.415 . S
H326 C323 0.999 . S
H327 C308 0.913 . S
H328 C346 0.951 . S
H329 C348 0.951 . S
H330 C350 0.950 . S
H331 C351 0.950 . S
H332 C353 0.953 . S
H333 C356 0.950 . S
H334 C357 0.950 . S
H335 C359 0.950 . S
H336 C360 0.950 . S
H337 C361 0.951 . S
H338 C363 0.951 . S
H339 C365 0.950 . S
H340 C366 0.950 . S
H341 C368 0.950 . S
H342 C371 0.950 . S
H343 C372 0.950 . S
H344 C374 0.950 . S
H345 C375 0.950 . S
C346 H328 0.951 . S
C346 C347 1.366 . S
C346 C348 1.388 1_556 S
C347 C346 1.366 . S
C347 C351 1.385 1_556 S
C348 H329 0.951 . S
C348 C346 1.388 1_554 S
C348 C349 1.366 . S
C349 C348 1.366 . S
C349 C350 1.414 . S
C349 C352 1.499 . S
C350 H330 0.950 . S
C350 C349 1.414 . S
C350 C351 1.374 . S
C351 H331 0.950 . S
C351 C347 1.385 1_554 S
C351 C350 1.374 . S
C352 C349 1.499 . S
C352 C353 1.373 . S
C352 C354 1.389 . S
C353 H332 0.953 . S
C353 C352 1.373 . S
C353 C369 1.377 . S
C354 C352 1.389 . S
C354 C355 1.524 . S
C354 C368 1.377 . S
C355 C354 1.524 . S
C355 C356 1.397 . S
C355 C360 1.363 . S
C356 H333 0.950 . S
C356 C355 1.397 . S
C356 C357 1.334 . S
C357 H334 0.950 . S
C357 C356 1.334 . S
C357 C358 1.287 . S
C358 C357 1.287 . S
C358 C359 1.524 . S
C358 H377 0.913 . S
C359 H335 0.950 . S
C359 C358 1.524 . S
C359 C360 1.415 . S
C360 H336 0.950 . S
C360 C355 1.363 . S
C360 C359 1.415 . S
C361 H337 0.951 . S
C361 C362 1.366 . S
C361 C363 1.388 . S
C362 C361 1.366 . S
C362 C366 1.385 . S
C363 H338 0.951 . S
C363 C361 1.388 . S
C363 C364 1.366 . S
C364 C363 1.366 . S
C364 C365 1.414 . S
C364 C367 1.499 . S
C365 H339 0.950 . S
C365 C364 1.414 . S
C365 C366 1.374 . S
C366 H340 0.950 . S
C366 C362 1.385 . S
C366 C365 1.374 . S
C367 C364 1.499 . S
C367 C368 1.373 . S
C367 C369 1.389 . S
C368 H341 0.950 . S
C368 C354 1.377 . S
C368 C367 1.373 . S
C369 C353 1.377 . S
C369 C367 1.389 . S
C369 C370 1.524 1_455 S
C370 C369 1.524 1_655 S
C370 C371 1.397 . S
C370 C375 1.363 . S
C371 H342 0.950 . S
C371 C370 1.397 . S
C371 C372 1.334 . S
C372 H343 0.950 . S
C372 C371 1.334 . S
C372 C373 1.287 . S
C373 C372 1.287 . S
C373 C374 1.524 . S
C373 H376 0.999 . S
C374 H344 0.950 . S
C374 C373 1.524 . S
C374 C375 1.415 . S
C375 H345 0.950 . S
C375 C370 1.363 . S
C375 C374 1.415 . S
H376 C373 0.999 . S
H377 C358 0.913 . S
H378 C396 0.951 . S
H379 C398 0.951 . S
H380 C400 0.950 . S
H381 C401 0.950 . S
H382 C403 0.950 . S
H383 C406 0.950 . S
H384 C407 0.950 . S
H385 C409 0.950 . S
H386 C410 0.950 . S
H387 C411 0.951 . S
H388 C413 0.951 . S
H389 C415 0.950 . S
H390 C416 0.950 . S
H391 C418 0.950 . S
H392 C421 0.950 . S
H393 C422 0.950 . S
H394 C424 0.950 . S
H395 C425 0.950 . S
C396 H378 0.951 . S
C396 C397 1.366 . S
C396 C398 1.388 . S
C397 C396 1.366 . S
C397 C401 1.385 . S
C398 H379 0.951 . S
C398 C396 1.388 . S
C398 C399 1.366 . S
C399 C398 1.366 . S
C399 C400 1.414 . S
C399 C402 1.499 . S
C400 H380 0.950 . S
C400 C399 1.414 . S
C400 C401 1.374 . S
C401 H381 0.950 . S
C401 C397 1.385 . S
C401 C400 1.374 . S
C402 C399 1.499 . S
C402 C403 1.373 . S
C402 C404 1.389 . S
C403 H382 0.950 . S
C403 C402 1.373 . S
C403 C419 1.377 . S
C404 C402 1.389 . S
C404 C405 1.524 . S
C404 C418 1.377 . S
C405 C404 1.524 . S
C405 C406 1.397 . S
C405 C410 1.363 . S
C406 H383 0.950 . S
C406 C405 1.397 . S
C406 C407 1.334 . S
C407 H384 0.950 . S
C407 C406 1.334 . S
C407 C408 1.287 . S
C408 C407 1.287 . S
C408 C409 1.524 . S
C408 H427 0.913 . S
C409 H385 0.950 . S
C409 C408 1.524 . S
C409 C410 1.415 . S
C410 H386 0.950 . S
C410 C405 1.363 . S
C410 C409 1.415 . S
C411 H387 0.951 . S
C411 C412 1.366 . S
C411 C413 1.388 . S
C412 C411 1.366 . S
C412 C416 1.385 . S
C413 H388 0.951 . S
C413 C411 1.388 . S
C413 C414 1.366 . S
C414 C413 1.366 . S
C414 C415 1.414 . S
C414 C417 1.499 . S
C415 H389 0.950 . S
C415 C414 1.414 . S
C415 C416 1.374 . S
C416 H390 0.950 . S
C416 C412 1.385 . S
C416 C415 1.374 . S
C417 C414 1.499 . S
C417 C418 1.373 . S
C417 C419 1.389 . S
C418 H391 0.950 . S
C418 C404 1.377 . S
C418 C417 1.373 . S
C419 C403 1.377 . S
C419 C417 1.389 . S
C419 C420 1.524 . S
C420 C419 1.524 . S
C420 C421 1.397 . S
C420 C425 1.363 . S
C421 H392 0.950 . S
C421 C420 1.397 . S
C421 C422 1.334 . S
C422 H393 0.950 . S
C422 C421 1.334 . S
C422 C423 1.287 . S
C423 C422 1.287 . S
C423 C424 1.524 . S
C423 H426 0.999 . S
C424 H394 0.950 . S
C424 C423 1.524 . S
C424 C425 1.415 . S
C425 H395 0.950 . S
C425 C420 1.363 . S
C425 C424 1.415 . S
H426 C423 0.999 . S
H427 C408 0.913 . S
H428 C446 0.951 . S
H429 C448 0.951 . S
H430 C450 0.950 . S
H431 C451 0.950 . S
H432 C453 0.950 . S
H433 C456 0.950 . S
H434 C457 0.950 . S
H435 C459 0.950 . S
H436 C460 0.950 . S
H437 C461 0.951 . S
H438 C463 0.951 . S
H439 C465 0.950 . S
H440 C466 0.950 . S
H441 C468 0.950 . S
H442 C471 0.950 . S
H443 C472 0.950 . S
H444 C474 0.950 . S
H445 C475 0.950 . S
C446 H428 0.951 . S
C446 C447 1.366 . S
C446 C448 1.388 . S
C447 C446 1.366 . S
C447 C451 1.385 . S
C448 H429 0.951 . S
C448 C446 1.388 . S
C448 C449 1.366 . S
C449 C448 1.366 . S
C449 C450 1.414 . S
C449 C452 1.499 . S
C450 H430 0.950 . S
C450 C449 1.414 . S
C450 C451 1.374 . S
C451 H431 0.950 . S
C451 C447 1.385 . S
C451 C450 1.374 . S
C452 C449 1.499 . S
C452 C453 1.373 . S
C452 C454 1.389 . S
C453 H432 0.950 . S
C453 C452 1.373 . S
C453 C469 1.377 . S
C454 C452 1.389 . S
C454 C455 1.524 . S
C454 C468 1.377 . S
C455 C454 1.524 . S
C455 C456 1.397 . S
C455 C460 1.363 . S
C456 H433 0.950 . S
C456 C455 1.397 . S
C456 C457 1.334 . S
C457 H434 0.950 . S
C457 C456 1.334 . S
C457 C458 1.287 . S
C458 C457 1.287 . S
C458 C459 1.524 . S
C458 H477 0.913 . S
C459 H435 0.950 . S
C459 C458 1.524 . S
C459 C460 1.415 . S
C460 H436 0.950 . S
C460 C455 1.363 . S
C460 C459 1.415 . S
C461 H437 0.951 . S
C461 C462 1.366 . S
C461 C463 1.388 . S
C462 C461 1.366 . S
C462 C466 1.385 . S
C463 H438 0.951 . S
C463 C461 1.388 . S
C463 C464 1.366 . S
C464 C463 1.366 . S
C464 C465 1.414 . S
C464 C467 1.499 . S
C465 H439 0.950 . S
C465 C464 1.414 . S
C465 C466 1.374 . S
C466 H440 0.950 . S
C466 C462 1.385 . S
C466 C465 1.374 . S
C467 C464 1.499 . S
C467 C468 1.373 . S
C467 C469 1.389 . S
C468 H441 0.950 . S
C468 C454 1.377 . S
C468 C467 1.373 . S
C469 C453 1.377 . S
C469 C467 1.389 . S
C469 C470 1.524 . S
C470 C469 1.524 . S
C470 C471 1.397 . S
C470 C475 1.363 . S
C471 H442 0.950 . S
C471 C470 1.397 . S
C471 C472 1.334 . S
C472 H443 0.950 . S
C472 C471 1.334 . S
C472 C473 1.287 . S
C473 C472 1.287 . S
C473 C474 1.524 . S
C473 H476 0.999 . S
C474 H444 0.950 . S
C474 C473 1.524 . S
C474 C475 1.415 . S
C475 H445 0.950 . S
C475 C470 1.363 . S
C475 C474 1.415 . S
H476 C473 0.999 . S
H477 C458 0.913 . S
H478 C496 0.951 . S
H479 C498 0.951 . S
H480 C500 0.950 . S
H481 C501 0.950 . S
H482 C503 0.950 . S
H483 C506 0.950 . S
H484 C507 0.950 . S
H485 C509 0.950 . S
H486 C510 0.950 . S
H487 C511 0.951 . S
H488 C513 0.951 . S
H489 C515 0.950 . S
H490 C516 0.950 . S
H491 C518 0.950 . S
H492 C521 0.950 . S
H493 C522 0.950 . S
H494 C524 0.950 . S
H495 C525 0.950 . S
C496 H478 0.951 . S
C496 C497 1.366 . S
C496 C498 1.388 . S
C497 C496 1.366 . S
C497 C501 1.385 . S
C498 H479 0.951 . S
C498 C496 1.388 . S
C498 C499 1.366 . S
C499 C498 1.366 . S
C499 C500 1.414 . S
C499 C502 1.499 . S
C500 H480 0.950 . S
C500 C499 1.414 . S
C500 C501 1.374 . S
C501 H481 0.950 . S
C501 C497 1.385 . S
C501 C500 1.374 . S
C502 C499 1.499 . S
C502 C503 1.373 . S
C502 C504 1.389 . S
C503 H482 0.950 . S
C503 C502 1.373 . S
C503 C519 1.377 . S
C504 C502 1.389 . S
C504 C505 1.524 . S
C504 C518 1.377 . S
C505 C504 1.524 . S
C505 C506 1.397 . S
C505 C510 1.363 . S
C506 H483 0.950 . S
C506 C505 1.397 . S
C506 C507 1.334 . S
C507 H484 0.950 . S
C507 C506 1.334 . S
C507 C508 1.287 . S
C508 C507 1.287 . S
C508 C509 1.524 . S
C508 H527 0.913 . S
C509 H485 0.950 . S
C509 C508 1.524 . S
C509 C510 1.415 . S
C510 H486 0.950 . S
C510 C505 1.363 . S
C510 C509 1.415 . S
C511 H487 0.951 . S
C511 C512 1.366 . S
C511 C513 1.388 . S
C512 C511 1.366 . S
C512 C516 1.385 . S
C513 H488 0.951 . S
C513 C511 1.388 . S
C513 C514 1.366 . S
C514 C513 1.366 . S
C514 C515 1.414 . S
C514 C517 1.499 . S
C515 H489 0.950 . S
C515 C514 1.414 . S
C515 C516 1.374 . S
C516 H490 0.950 . S
C516 C512 1.385 . S
C516 C515 1.374 . S
C517 C514 1.499 . S
C517 C518 1.373 . S
C517 C519 1.389 . S
C518 H491 0.950 . S
C518 C504 1.377 . S
C518 C517 1.373 . S
C519 C503 1.377 . S
C519 C517 1.389 . S
C519 C520 1.524 . S
C520 C519 1.524 . S
C520 C521 1.397 . S
C520 C525 1.363 . S
C521 H492 0.950 . S
C521 C520 1.397 . S
C521 C522 1.334 . S
C522 H493 0.950 . S
C522 C521 1.334 . S
C522 C523 1.287 . S
C523 C522 1.287 . S
C523 C524 1.524 . S
C523 H526 0.999 . S
C524 H494 0.950 . S
C524 C523 1.524 . S
C524 C525 1.415 . S
C525 H495 0.950 . S
C525 C520 1.363 . S
C525 C524 1.415 . S
H526 C523 0.999 . S
H527 C508 0.913 . S
H528 C546 0.951 . S
H529 C548 0.951 . S
H530 C550 0.950 . S
H531 C551 0.950 . S
H532 C553 0.950 . S
H533 C556 0.950 . S
H534 C557 0.950 . S
H535 C559 0.950 . S
H536 C560 0.950 . S
H537 C561 0.951 . S
H538 C563 0.951 . S
H539 C565 0.950 . S
H540 C566 0.950 . S
H541 C568 0.950 . S
H542 C571 0.950 . S
H543 C572 0.950 . S
H544 C574 0.950 . S
H545 C575 0.950 . S
C546 H528 0.951 . S
C546 C547 1.366 . S
C546 C548 1.388 . S
C547 C546 1.366 . S
C547 C551 1.385 . S
C548 H529 0.951 . S
C548 C546 1.388 . S
C548 C549 1.366 . S
C549 C548 1.366 . S
C549 C550 1.414 . S
C549 C552 1.499 . S
C550 H530 0.950 . S
C550 C549 1.414 . S
C550 C551 1.374 . S
C551 H531 0.950 . S
C551 C547 1.385 . S
C551 C550 1.374 . S
C552 C549 1.499 . S
C552 C553 1.373 . S
C552 C554 1.389 . S
C553 H532 0.950 . S
C553 C552 1.373 . S
C553 C569 1.377 . S
C554 C552 1.389 . S
C554 C555 1.524 . S
C554 C568 1.377 . S
C555 C554 1.524 . S
C555 C556 1.397 . S
C555 C560 1.363 . S
C556 H533 0.950 . S
C556 C555 1.397 . S
C556 C557 1.334 . S
C557 H534 0.950 . S
C557 C556 1.334 . S
C557 C558 1.287 . S
C558 C557 1.287 . S
C558 C559 1.524 . S
C558 H577 0.913 . S
C559 H535 0.950 . S
C559 C558 1.524 . S
C559 C560 1.415 . S
C560 H536 0.950 . S
C560 C555 1.363 . S
C560 C559 1.415 . S
C561 H537 0.951 . S
C561 C562 1.366 . S
C561 C563 1.388 . S
C562 C561 1.366 . S
C562 C566 1.385 . S
C563 H538 0.951 . S
C563 C561 1.388 . S
C563 C564 1.366 . S
C564 C563 1.366 . S
C564 C565 1.414 . S
C564 C567 1.499 . S
C565 H539 0.950 . S
C565 C564 1.414 . S
C565 C566 1.374 . S
C566 H540 0.950 . S
C566 C562 1.385 . S
C566 C565 1.374 . S
C567 C564 1.499 . S
C567 C568 1.373 . S
C567 C569 1.389 . S
C568 H541 0.950 . S
C568 C554 1.377 . S
C568 C567 1.373 . S
C569 C553 1.377 . S
C569 C567 1.389 . S
C569 C570 1.524 . S
C570 C569 1.524 . S
C570 C571 1.397 . S
C570 C575 1.363 . S
C571 H542 0.950 . S
C571 C570 1.397 . S
C571 C572 1.334 . S
C572 H543 0.950 . S
C572 C571 1.334 . S
C572 C573 1.287 . S
C573 C572 1.287 . S
C573 C574 1.524 . S
C573 H576 0.999 . S
C574 H544 0.950 . S
C574 C573 1.524 . S
C574 C575 1.415 . S
C575 H545 0.950 . S
C575 C570 1.363 . S
C575 C574 1.415 . S
H576 C573 0.999 . S
H577 C558 0.913 . S
H578 C596 0.951 . S
H579 C598 0.951 . S
H580 C600 0.950 . S
H581 C601 0.950 . S
H582 C603 0.950 . S
H583 C606 0.950 . S
H584 C607 0.950 . S
H585 C609 0.950 . S
H586 C610 0.950 . S
H587 C611 0.951 . S
H588 C613 0.951 . S
H589 C615 0.950 . S
H590 C616 0.950 . S
H591 C618 0.950 . S
H592 C621 0.950 . S
H593 C622 0.950 . S
H594 C624 0.950 . S
H595 C625 0.950 . S
C596 H578 0.951 . S
C596 C597 1.366 . S
C596 C598 1.388 . S
C597 C596 1.366 . S
C597 C601 1.385 . S
C598 H579 0.951 . S
C598 C596 1.388 . S
C598 C599 1.366 . S
C599 C598 1.366 . S
C599 C600 1.414 . S
C599 C602 1.499 . S
C600 H580 0.950 . S
C600 C599 1.414 . S
C600 C601 1.374 . S
C601 H581 0.950 . S
C601 C597 1.385 . S
C601 C600 1.374 . S
C602 C599 1.499 . S
C602 C603 1.373 . S
C602 C604 1.389 . S
C603 H582 0.950 . S
C603 C602 1.373 . S
C603 C619 1.377 . S
C604 C602 1.389 . S
C604 C605 1.524 . S
C604 C618 1.377 . S
C605 C604 1.524 . S
C605 C606 1.397 . S
C605 C610 1.363 . S
C606 H583 0.950 . S
C606 C605 1.397 . S
C606 C607 1.334 . S
C607 H584 0.950 . S
C607 C606 1.334 . S
C607 C608 1.287 . S
C608 C607 1.287 . S
C608 C609 1.524 . S
C608 H627 0.913 . S
C609 H585 0.950 . S
C609 C608 1.524 . S
C609 C610 1.415 . S
C610 H586 0.950 . S
C610 C605 1.363 . S
C610 C609 1.415 . S
C611 H587 0.951 . S
C611 C612 1.366 . S
C611 C613 1.388 . S
C612 C611 1.366 . S
C612 C616 1.385 . S
C613 H588 0.951 . S
C613 C611 1.388 . S
C613 C614 1.366 . S
C614 C613 1.366 . S
C614 C615 1.414 . S
C614 C617 1.499 . S
C615 H589 0.950 . S
C615 C614 1.414 . S
C615 C616 1.374 . S
C616 H590 0.950 . S
C616 C612 1.385 . S
C616 C615 1.374 . S
C617 C614 1.499 . S
C617 C618 1.373 . S
C617 C619 1.389 . S
C618 H591 0.950 . S
C618 C604 1.377 . S
C618 C617 1.373 . S
C619 C603 1.377 . S
C619 C617 1.389 . S
C619 C620 1.524 . S
C620 C619 1.524 . S
C620 C621 1.397 . S
C620 C625 1.363 . S
C621 H592 0.950 . S
C621 C620 1.397 . S
C621 C622 1.334 . S
C622 H593 0.950 . S
C622 C621 1.334 . S
C622 C623 1.287 . S
C623 C622 1.287 . S
C623 C624 1.524 . S
C623 H626 0.999 . S
C624 H594 0.950 . S
C624 C623 1.524 . S
C624 C625 1.415 . S
C625 H595 0.950 . S
C625 C620 1.363 . S
C625 C624 1.415 . S
H626 C623 0.999 . S
H627 C608 0.913 . S
H628 C646 0.951 . S
H629 C648 0.951 . S
H630 C650 0.950 . S
H631 C651 0.950 . S
H632 C653 0.950 . S
H633 C656 0.950 . S
H634 C657 0.950 . S
H635 C659 0.950 . S
H636 C660 0.950 . S
H637 C661 0.951 . S
H638 C663 0.951 . S
H639 C665 0.950 . S
H640 C666 0.950 . S
H641 C668 0.950 . S
H642 C671 0.950 . S
H643 C672 0.950 . S
H644 C674 0.950 . S
H645 C675 0.950 . S
C646 H628 0.951 . S
C646 C647 1.366 . S
C646 C648 1.388 . S
C647 C646 1.366 . S
C647 C651 1.385 . S
C648 H629 0.951 . S
C648 C646 1.388 . S
C648 C649 1.366 . S
C649 C648 1.366 . S
C649 C650 1.414 . S
C649 C652 1.499 . S
C650 H630 0.950 . S
C650 C649 1.414 . S
C650 C651 1.374 . S
C651 H631 0.950 . S
C651 C647 1.385 . S
C651 C650 1.374 . S
C652 C649 1.499 . S
C652 C653 1.373 . S
C652 C654 1.389 1_556 S
C653 H632 0.950 . S
C653 C652 1.373 . S
C653 C669 1.377 . S
C654 C652 1.389 1_554 S
C654 C655 1.524 . S
C654 C668 1.377 . S
C655 C654 1.524 . S
C655 C656 1.397 . S
C655 C660 1.363 . S
C656 H633 0.950 . S
C656 C655 1.397 . S
C656 C657 1.334 . S
C657 H634 0.950 . S
C657 C656 1.334 . S
C657 C658 1.287 . S
C658 C657 1.287 . S
C658 C659 1.524 . S
C658 H677 0.913 . S
C659 H635 0.950 . S
C659 C658 1.524 . S
C659 C660 1.415 . S
C660 H636 0.950 . S
C660 C655 1.363 . S
C660 C659 1.415 . S
C661 H637 0.951 . S
C661 C662 1.366 . S
C661 C663 1.388 1_554 S
C662 C661 1.366 . S
C662 C666 1.385 . S
C663 H638 0.951 . S
C663 C661 1.388 1_556 S
C663 C664 1.366 1_556 S
C664 C663 1.366 1_554 S
C664 C665 1.414 . S
C664 C667 1.499 1_554 S
C665 H639 0.950 . S
C665 C664 1.414 . S
C665 C666 1.374 . S
C666 H640 0.950 . S
C666 C662 1.385 . S
C666 C665 1.374 . S
C667 C664 1.499 1_556 S
C667 C668 1.373 1_556 S
C667 C669 1.389 . S
C668 H641 0.950 . S
C668 C654 1.377 . S
C668 C667 1.373 1_554 S
C669 C653 1.377 . S
C669 C667 1.389 . S
C669 C670 1.524 . S
C670 C669 1.524 . S
C670 C671 1.397 . S
C670 C675 1.363 . S
C671 H642 0.950 . S
C671 C670 1.397 . S
C671 C672 1.334 . S
C672 H643 0.950 . S
C672 C671 1.334 . S
C672 C673 1.287 . S
C673 C672 1.287 . S
C673 C674 1.524 . S
C673 H676 0.999 . S
C674 H644 0.950 . S
C674 C673 1.524 . S
C674 C675 1.415 . S
C675 H645 0.950 . S
C675 C670 1.363 . S
C675 C674 1.415 . S
H676 C673 0.999 . S
H677 C658 0.913 . S
C97 C8 1.358 . S
C112 C44 1.363 . S
C147 C21 1.358 . S
C162 C57 1.363 . S
C197 C70 1.362 . S
C212 C34 1.357 . S
C247 C5 1.363 . S
C262 C47 1.358 . S
C297 C18 1.363 . S
C312 C60 1.358 . S
C347 C73 1.358 . S
C362 C31 1.363 . S
C397 C23 1.379 . S
C412 C0 1.375 . S
C447 C36 1.379 . S
C462 C13 1.375 . S
C497 C26 1.375 . S
C512 C49 1.379 . S
C547 C62 1.379 . S
C562 C39 1.375 . S
C597 C75 1.379 . S
C612 C52 1.375 . S
C647 C65 1.375 . S
C662 C10 1.379 . S
