# Generated by pormake.
# Topology uou, (4)-cn, num edge types: 1
# Building blocks:
#     Node 0, Type 0, BuildingBlock: NAHDIM_clean_sbu_0, # of connection points: 4
#     Node 1, Type 0, BuildingBlock: NAHDIM_clean_sbu_0, # of connection points: 4
#     Node 2, Type 0, BuildingBlock: NAHDIM_clean_sbu_0, # of connection points: 4
#     Node 3, Type 0, BuildingBlock: NAHDIM_clean_sbu_0, # of connection points: 4
#     Node 4, Type 0, BuildingBlock: NAHDIM_clean_sbu_0, # of connection points: 4
#     Node 5, Type 0, BuildingBlock: NAHDIM_clean_sbu_0, # of connection points: 4
#     Node 6, Type 0, BuildingBlock: NAHDIM_clean_sbu_0, # of connection points: 4
#     Node 7, Type 0, BuildingBlock: NAHDIM_clean_sbu_0, # of connection points: 4
#     Node 8, Type 0, BuildingBlock: NAHDIM_clean_sbu_0, # of connection points: 4
#     Node 9, Type 0, BuildingBlock: NAHDIM_clean_sbu_0, # of connection points: 4
#     Node 10, Type 0, BuildingBlock: NAHDIM_clean_sbu_0, # of connection points: 4
#     Node 11, Type 0, BuildingBlock: NAHDIM_clean_sbu_0, # of connection points: 4
#     Node 12, Type 0, BuildingBlock: NAHDIM_clean_sbu_0, # of connection points: 4
#     Node 13, Type 0, BuildingBlock: NAHDIM_clean_sbu_0, # of connection points: 4
#     Node 14, Type 0, BuildingBlock: NAHDIM_clean_sbu_0, # of connection points: 4
#     Node 15, Type 0, BuildingBlock: NAHDIM_clean_sbu_0, # of connection points: 4
#     Edge 16, Type (0, 0), BuildingBlock: AJUNOK_clean_linker_0, # of connection points: 2
#     Edge 17, Type (0, 0), BuildingBlock: AJUNOK_clean_linker_0, # of connection points: 2
#     Edge 18, Type (0, 0), BuildingBlock: AJUNOK_clean_linker_0, # of connection points: 2
#     Edge 19, Type (0, 0), BuildingBlock: AJUNOK_clean_linker_0, # of connection points: 2
#     Edge 20, Type (0, 0), BuildingBlock: AJUNOK_clean_linker_0, # of connection points: 2
#     Edge 21, Type (0, 0), BuildingBlock: AJUNOK_clean_linker_0, # of connection points: 2
#     Edge 22, Type (0, 0), BuildingBlock: AJUNOK_clean_linker_0, # of connection points: 2
#     Edge 23, Type (0, 0), BuildingBlock: AJUNOK_clean_linker_0, # of connection points: 2
#     Edge 24, Type (0, 0), BuildingBlock: AJUNOK_clean_linker_0, # of connection points: 2
#     Edge 25, Type (0, 0), BuildingBlock: AJUNOK_clean_linker_0, # of connection points: 2
#     Edge 26, Type (0, 0), BuildingBlock: AJUNOK_clean_linker_0, # of connection points: 2
#     Edge 27, Type (0, 0), BuildingBlock: AJUNOK_clean_linker_0, # of connection points: 2
#     Edge 28, Type (0, 0), BuildingBlock: AJUNOK_clean_linker_0, # of connection points: 2
#     Edge 29, Type (0, 0), BuildingBlock: AJUNOK_clean_linker_0, # of connection points: 2
#     Edge 30, Type (0, 0), BuildingBlock: AJUNOK_clean_linker_0, # of connection points: 2
#     Edge 31, Type (0, 0), BuildingBlock: AJUNOK_clean_linker_0, # of connection points: 2
#     Edge 32, Type (0, 0), BuildingBlock: AJUNOK_clean_linker_0, # of connection points: 2
#     Edge 33, Type (0, 0), BuildingBlock: AJUNOK_clean_linker_0, # of connection points: 2
#     Edge 34, Type (0, 0), BuildingBlock: AJUNOK_clean_linker_0, # of connection points: 2
#     Edge 35, Type (0, 0), BuildingBlock: AJUNOK_clean_linker_0, # of connection points: 2
#     Edge 36, Type (0, 0), BuildingBlock: AJUNOK_clean_linker_0, # of connection points: 2
#     Edge 37, Type (0, 0), BuildingBlock: AJUNOK_clean_linker_0, # of connection points: 2
#     Edge 38, Type (0, 0), BuildingBlock: AJUNOK_clean_linker_0, # of connection points: 2
#     Edge 39, Type (0, 0), BuildingBlock: AJUNOK_clean_linker_0, # of connection points: 2
#     Edge 40, Type (0, 0), BuildingBlock: AJUNOK_clean_linker_0, # of connection points: 2
#     Edge 41, Type (0, 0), BuildingBlock: AJUNOK_clean_linker_0, # of connection points: 2
#     Edge 42, Type (0, 0), BuildingBlock: AJUNOK_clean_linker_0, # of connection points: 2
#     Edge 43, Type (0, 0), BuildingBlock: AJUNOK_clean_linker_0, # of connection points: 2
#     Edge 44, Type (0, 0), BuildingBlock: AJUNOK_clean_linker_0, # of connection points: 2
#     Edge 45, Type (0, 0), BuildingBlock: AJUNOK_clean_linker_0, # of connection points: 2
#     Edge 46, Type (0, 0), BuildingBlock: AJUNOK_clean_linker_0, # of connection points: 2
#     Edge 47, Type (0, 0), BuildingBlock: AJUNOK_clean_linker_0, # of connection points: 2
# Relax obj value: 0.104
# Max RMSD: 0.145
# Mean RMSD: 0.145
data_MOF--net-uou--node1-NAHDIM_clean_sbu_0--edge1-AJUNOK_clean_linker_0
_symmetry_space_group_name_H-M    P1
_symmetry_Int_Tables_number       1
_symmetry_cell_setting            triclinic
loop_
_symmetry_equiv_pos_as_xyz
'x, y, z'
_cell_length_a     30.286215
_cell_length_b     29.488747
_cell_length_c     37.860048
_cell_angle_alpha  89.72386
_cell_angle_beta   89.852653
_cell_angle_gamma 89.735572
loop_
_atom_site_label
_atom_site_type_symbol
_atom_site_fract_x
_atom_site_fract_y
_atom_site_fract_z
_atom_type_partial_charge
C0 C 0.16699 0.02789 0.1009 0.0
O1 O 0.13516 -0.00222 0.1013 0.0
O2 O 0.06932 0.05593 0.14947 0.0
Zn3 Zn 0.0909 0.08123 0.10306 0.0
O4 O 0.06519 0.04876 0.0613 0.0
C5 C 0.0385 0.16134 0.11406 0.0
O6 O 0.01406 0.13153 0.13086 0.0
O7 O 0.15653 0.06975 0.10153 0.0
C8 C 0.02825 0.0587 0.0474 0.0
O9 O 0.00381 0.09081 0.06142 0.0
C10 C 0.03335 0.03503 0.15497 0.0
O11 O 0.00647 0.02759 0.12847 0.0
O12 O 0.07464 0.14818 0.1001 0.0
C13 C 0.3525 0.97363 0.10513 0.0
O14 O 0.38242 0.00532 0.10913 0.0
O15 O 0.44796 0.9446 0.15771 0.0
Zn16 Zn 0.43044 0.92212 0.10998 0.0
O17 O 0.46235 0.95608 0.07208 0.0
C18 C 0.48896 0.84931 0.11733 0.0
O19 O 0.51347 0.88429 0.12559 0.0
O20 O 0.36511 0.93243 0.10427 0.0
C21 C 0.45585 0.9446 0.04027 0.0
O22 O 0.42852 0.91121 0.03381 0.0
C23 C 0.47871 0.97269 0.16354 0.0
O24 O 0.50004 0.99068 0.13671 0.0
O25 O 0.44917 0.85624 0.1079 0.0
C26 C 0.64816 0.97639 0.3785 0.0
O27 O 0.61937 0.00795 0.38705 0.0
O28 O 0.54233 0.94164 0.32468 0.0
Zn29 Zn 0.56852 0.92582 0.37158 0.0
O30 O 0.53846 0.96458 0.40754 0.0
C31 C 0.51232 0.85153 0.38273 0.0
O32 O 0.48386 0.88506 0.37959 0.0
O33 O 0.63415 0.93695 0.3712 0.0
C34 C 0.53584 0.95292 0.43975 0.0
O35 O 0.55453 0.91479 0.45 0.0
C36 C 0.55599 0.97153 0.30308 0.0
O37 O 0.59168 0.99475 0.31042 0.0
O38 O 0.55333 0.86043 0.38084 0.0
C39 C 0.83577 0.01491 0.36149 0.0
O40 O 0.86364 0.98091 0.35814 0.0
O41 O 0.93529 0.0468 0.30608 0.0
Zn42 Zn 0.9156 0.06551 0.35467 0.0
O43 O 0.94731 0.03024 0.39229 0.0
C44 C 0.96845 0.14462 0.36628 0.0
O45 O -0.00012 0.11386 0.3682 0.0
O46 O 0.85051 0.05515 0.36026 0.0
C47 C 0.93814 0.03969 0.42418 0.0
O48 O 0.90859 0.07139 0.43053 0.0
C49 C 0.9739 0.03139 0.30042 0.0
O50 O 0.00065 0.02541 0.3273 0.0
O51 O 0.92905 0.13183 0.36073 0.0
C52 C 0.83917 0.97248 0.87457 0.0
O53 O 0.86865 0.00251 0.88416 0.0
O54 O 0.94909 0.93797 0.82681 0.0
Zn55 Zn 0.91725 0.91961 0.87141 0.0
O56 O 0.93931 0.95342 0.9136 0.0
C57 C 0.96857 0.83947 0.87644 0.0
O58 O -0.00057 0.86948 0.86977 0.0
O59 O 0.85215 0.93258 0.86707 0.0
C60 C 0.97813 0.96854 0.9175 0.0
O61 O 0.00775 0.96177 0.89265 0.0
C62 C 0.9332 0.96331 0.80272 0.0
O63 O 0.89392 0.98145 0.80719 0.0
O64 O 0.92873 0.85294 0.87881 0.0
C65 C 0.65273 0.01884 0.86063 0.0
O66 O 0.62435 0.98649 0.85377 0.0
O67 O 0.55262 0.05489 0.81171 0.0
Zn68 Zn 0.57377 0.07138 0.86005 0.0
O69 O 0.54211 0.03472 0.89651 0.0
C70 C 0.52123 0.15039 0.87226 0.0
O71 O 0.48983 0.11981 0.87252 0.0
O72 O 0.63857 0.05917 0.86409 0.0
C73 C 0.54856 0.04264 0.92898 0.0
O74 O 0.5764 0.07471 0.93775 0.0
C75 C 0.51401 0.03942 0.80698 0.0
O76 O 0.4885 0.03212 0.8345 0.0
O77 O 0.56094 0.13751 0.86774 0.0
C78 C 0.3179 0.02559 0.60255 0.0
O79 O 0.34794 0.9936 0.60609 0.0
O80 O 0.41342 0.05979 0.65657 0.0
Zn81 Zn 0.39508 0.0783 0.60776 0.0
O82 O 0.42861 0.042 0.57209 0.0
C83 C 0.45046 0.15489 0.5986 0.0
O84 O 0.4802 0.12235 0.5995 0.0
O85 O 0.33027 0.0667 0.60219 0.0
C86 C 0.43065 0.05601 0.54039 0.0
O87 O 0.40943 0.09336 0.53169 0.0
C88 C 0.45084 0.04187 0.66273 0.0
O89 O 0.478 0.0341 0.63631 0.0
O90 O 0.40991 0.1444 0.60134 0.0
C91 C 0.13257 0.97318 0.60009 0.0
O92 O 0.10053 0.00326 0.60201 0.0
O93 O 0.03858 0.93217 0.6544 0.0
Zn94 Zn 0.05838 0.91636 0.60533 0.0
O95 O 0.02417 0.95152 0.56908 0.0
C96 C 0.00621 0.83833 0.60062 0.0
O97 O 0.97634 0.86999 0.60605 0.0
O98 O 0.12271 0.93133 0.60068 0.0
C99 C 0.03131 0.9437 0.53662 0.0
O100 O 0.06099 0.913 0.52804 0.0
C101 C 0.0091 0.96142 0.66175 0.0
O102 O 0.98999 0.98406 0.63597 0.0
O103 O 0.04653 0.84996 0.59853 0.0
C104 C 0.64246 0.51586 0.10534 0.0
O105 O 0.61136 0.48495 0.10588 0.0
O106 O 0.54399 0.55375 0.15757 0.0
Zn107 Zn 0.56609 0.57123 0.10959 0.0
O108 O 0.53415 0.53584 0.07288 0.0
C109 C 0.55962 0.66563 0.12666 0.0
O110 O 0.57938 0.6513 0.15551 0.0
O111 O 0.63119 0.55744 0.10653 0.0
C112 C 0.5433 0.54368 0.04069 0.0
O113 O 0.57344 0.57415 0.03316 0.0
C114 C 0.50366 0.56118 0.1648 0.0
O115 O 0.47798 0.57797 0.14002 0.0
O116 O 0.55193 0.63744 0.1022 0.0
C117 C 0.82962 0.46796 0.10839 0.0
O118 O 0.85833 0.50065 0.11312 0.0
O119 O 0.92519 0.44014 0.16146 0.0
Zn120 Zn 0.90934 0.41929 0.11292 0.0
O121 O 0.94066 0.45677 0.07658 0.0
C122 C 0.97036 0.34625 0.10314 0.0
O123 O -0.00299 0.3808 0.09864 0.0
O124 O 0.84375 0.42733 0.10683 0.0
C125 C 0.93957 0.44414 0.04459 0.0
O126 O 0.91712 0.40762 0.03654 0.0
C127 C 0.96282 0.45642 0.16867 0.0
O128 O -0.00798 0.46149 0.14326 0.0
O129 O 0.92957 0.35398 0.10894 0.0
C130 C 0.14511 0.46876 0.37814 0.0
O131 O 0.11378 0.49961 0.37586 0.0
O132 O 0.05241 0.43343 0.32141 0.0
Zn133 Zn 0.07021 0.41344 0.37006 0.0
O134 O 0.03488 0.44736 0.40599 0.0
C135 C 0.01642 0.33578 0.37362 0.0
O136 O 0.98668 0.36822 0.37153 0.0
O137 O 0.13447 0.42717 0.37668 0.0
C138 C 0.0406 0.4405 0.43876 0.0
O139 O 0.07058 0.41087 0.4489 0.0
C140 C 0.0159 0.45332 0.31526 0.0
O141 O 0.98944 0.46294 0.34173 0.0
O142 O 0.057 0.34671 0.37428 0.0
C143 C 0.32818 0.5286 0.37895 0.0
O144 O 0.36083 0.49995 0.37357 0.0
O145 O 0.41546 0.57567 0.32216 0.0
Zn146 Zn 0.40056 0.58677 0.37301 0.0
O147 O 0.43757 0.54732 0.40444 0.0
C148 C 0.45419 0.66348 0.38214 0.0
O149 O 0.48391 0.63181 0.37616 0.0
O150 O 0.33681 0.57072 0.38035 0.0
C151 C 0.43838 0.55492 0.43739 0.0
O152 O 0.41515 0.58898 0.44996 0.0
C153 C 0.44947 0.55395 0.31206 0.0
O154 O 0.47643 0.53688 0.33583 0.0
O155 O 0.41369 0.65232 0.383 0.0
C156 C 0.33875 0.4705 0.87412 0.0
O157 O 0.36788 0.50312 0.8706 0.0
O158 O 0.4319 0.43743 0.81566 0.0
Zn159 Zn 0.41658 0.41862 0.86508 0.0
O160 O 0.45105 0.45484 0.89982 0.0
C161 C 0.47223 0.34164 0.87528 0.0
O162 O 0.50177 0.37399 0.87708 0.0
O163 O 0.35202 0.42961 0.87293 0.0
C164 C 0.44618 0.44652 0.9325 0.0
O165 O 0.41816 0.41494 0.94226 0.0
C166 C 0.47002 0.45178 0.80737 0.0
O167 O 0.50019 0.45557 0.83203 0.0
O168 O 0.43195 0.35253 0.87078 0.0
C169 C 0.15213 0.51856 0.87964 0.0
O170 O 0.12118 0.48769 0.87709 0.0
O171 O 0.05898 0.55633 0.82424 0.0
Zn172 Zn 0.0762 0.57278 0.87358 0.0
O173 O 0.04224 0.53537 0.90839 0.0
C174 C 0.02034 0.64902 0.88128 0.0
O175 O 0.99111 0.6164 0.87912 0.0
O176 O 0.14087 0.56013 0.87928 0.0
C177 C 0.04057 0.54669 0.94064 0.0
O178 O 0.06179 0.58311 0.95082 0.0
C179 C 0.02323 0.53605 0.81705 0.0
O180 O -0.00304 0.52365 0.84297 0.0
O181 O 0.06114 0.63865 0.88025 0.0
C182 C 0.83761 0.50894 0.6046 0.0
O183 O 0.86878 0.47783 0.60541 0.0
O184 O 0.9309 0.54683 0.66242 0.0
Zn185 Zn 0.91263 0.56492 0.61355 0.0
O186 O 0.94768 0.53061 0.57761 0.0
C187 C 0.96173 0.64613 0.5997 0.0
O188 O -0.00648 0.61641 0.59458 0.0
O189 O 0.84846 0.55034 0.60754 0.0
C190 C 0.93872 0.53736 0.54528 0.0
O191 O 0.90717 0.56626 0.53717 0.0
C192 C 0.97085 0.53795 0.6699 0.0
O193 O 0.00079 0.53957 0.64477 0.0
O194 O 0.92336 0.63191 0.6076 0.0
C195 C 0.65073 0.46318 0.60005 0.0
O196 O 0.62176 0.49589 0.60499 0.0
O197 O 0.55463 0.4324 0.65203 0.0
Zn198 Zn 0.57147 0.4146 0.60277 0.0
O199 O 0.54005 0.45402 0.56766 0.0
C200 C 0.51165 0.342 0.59484 0.0
O201 O 0.48417 0.37651 0.59646 0.0
O202 O 0.63685 0.42275 0.59745 0.0
C203 C 0.53963 0.44289 0.53532 0.0
O204 O 0.56065 0.40592 0.5256 0.0
C205 C 0.51876 0.45278 0.65938 0.0
O206 O 0.492 0.46466 0.63368 0.0
O207 O 0.5529 0.34972 0.59619 0.0
C208 C 0.29229 0.0321 0.10569 0.0
C209 C 0.30501 0.98623 0.10282 0.0
C210 C 0.24778 0.04525 0.10464 0.0
C211 C 0.21399 0.01312 0.10073 0.0
H212 H 0.31686 0.05827 0.10909 0.0
H213 H 0.23988 0.08093 0.10732 0.0
S214 S 0.22955 0.8887 0.09053 0.0
N215 N 0.28005 0.90867 0.09479 0.0
N216 N 0.1965 0.93324 0.09281 0.0
C217 C 0.22622 0.96714 0.09728 0.0
C218 C 0.27163 0.95375 0.09832 0.0
C219 C 0.72639 0.95265 0.36701 0.0
C220 C 0.69589 0.98715 0.37537 0.0
C221 C 0.77143 0.96196 0.3628 0.0
C222 C 0.78792 0.00621 0.36658 0.0
H223 H 0.71547 0.91804 0.3635 0.0
H224 H 0.79339 0.93415 0.3562 0.0
S225 S 0.72221 0.10875 0.38928 0.0
N226 N 0.68569 0.06745 0.38797 0.0
N227 N 0.77019 0.08489 0.37995 0.0
C228 C 0.75789 0.04105 0.37524 0.0
C229 C 0.71199 0.03154 0.37969 0.0
C230 C 0.76085 0.95309 0.86028 0.0
C231 C 0.79189 0.9853 0.8715 0.0
C232 C 0.71605 0.96428 0.85689 0.0
C233 C 0.7004 0.00819 0.86447 0.0
H234 H 0.77112 0.91883 0.85398 0.0
H235 H 0.6936 0.9382 0.84809 0.0
S236 S 0.76791 0.10503 0.89543 0.0
N237 N 0.8036 0.06306 0.89065 0.0
N238 N 0.71957 0.08405 0.88418 0.0
C239 C 0.73104 0.04078 0.87582 0.0
C240 C 0.77668 0.02934 0.87937 0.0
C241 C 0.21334 0.95503 0.60157 0.0
C242 C 0.17945 0.98767 0.59902 0.0
C243 C 0.25784 0.96769 0.60224 0.0
C244 C 0.27044 0.01353 0.60033 0.0
H245 H 0.20555 0.9193 0.60358 0.0
H246 H 0.28249 0.94114 0.60467 0.0
S247 S 0.19466 0.11233 0.59145 0.0
N248 N 0.16167 0.06798 0.59319 0.0
N249 N 0.24526 0.09172 0.59445 0.0
C250 C 0.23695 0.04656 0.59702 0.0
C251 C 0.19153 0.03365 0.59638 0.0
C252 C 0.76755 0.52423 0.10873 0.0
C253 C 0.78171 0.4788 0.10619 0.0
C254 C 0.72265 0.53582 0.10797 0.0
C255 C 0.68985 0.50249 0.10469 0.0
H256 H 0.79128 0.55131 0.11166 0.0
H257 H 0.71369 0.57127 0.11039 0.0
S258 S 0.70927 0.37851 0.09566 0.0
N259 N 0.75916 0.40026 0.0992 0.0
N260 N 0.67482 0.42195 0.09777 0.0
C261 C 0.7035 0.45691 0.10154 0.0
C262 C 0.74934 0.4451 0.10228 0.0
C263 C 0.24678 0.54362 0.38015 0.0
C264 C 0.28194 0.5123 0.38104 0.0
C265 C 0.2028 0.52914 0.37985 0.0
C266 C 0.19205 0.48273 0.38051 0.0
H267 H 0.25316 0.57971 0.37898 0.0
H268 H 0.17707 0.55473 0.37855 0.0
S269 S 0.2718 0.38685 0.38558 0.0
N270 N 0.30297 0.43259 0.38449 0.0
N271 N 0.22037 0.40545 0.38393 0.0
C272 C 0.22685 0.45101 0.38244 0.0
C273 C 0.27172 0.46577 0.38269 0.0
C274 C 0.23225 0.53873 0.87755 0.0
C275 C 0.19944 0.50529 0.88052 0.0
C276 C 0.27709 0.52712 0.87612 0.0
C277 C 0.29109 0.48156 0.87764 0.0
H278 H 0.22331 0.57427 0.87565 0.0
H279 H 0.30087 0.55421 0.87325 0.0
S280 S 0.2186 0.38106 0.888 0.0
N281 N 0.18424 0.42463 0.88678 0.0
N282 N 0.26848 0.40283 0.88409 0.0
C283 C 0.25873 0.44778 0.88161 0.0
C284 C 0.21297 0.45962 0.88304 0.0
C285 C 0.71262 0.5187 0.60338 0.0
C286 C 0.69864 0.47356 0.59937 0.0
C287 C 0.75748 0.52974 0.60451 0.0
C288 C 0.79041 0.49612 0.60174 0.0
H289 H 0.68875 0.54594 0.60609 0.0
H290 H 0.76628 0.56498 0.60806 0.0
S291 S 0.77156 0.37283 0.58912 0.0
N292 N 0.72152 0.39503 0.59135 0.0
N293 N 0.80587 0.41574 0.59348 0.0
C294 C 0.777 0.45087 0.597 0.0
C295 C 0.73117 0.43961 0.5958 0.0
C296 C 0.95939 0.02711 0.23547 0.0
C297 C 0.98975 0.02551 0.26359 0.0
C298 C 0.97367 0.02743 0.20023 0.0
C299 C 0.01888 0.02673 0.19177 0.0
H300 H 0.92427 0.02951 0.24066 0.0
H301 H 0.94912 0.03054 0.17959 0.0
S302 S 0.11175 0.01708 0.25512 0.0
N303 N 0.06716 0.01891 0.28025 0.0
N304 N 0.09384 0.02007 0.21403 0.0
C305 C 0.04951 0.02265 0.21946 0.0
C306 C 0.035 0.02184 0.25536 0.0
C307 C 0.5373 0.99657 0.20596 0.0
C308 C 0.49499 0.97861 0.20006 0.0
C309 C 0.55619 0.99598 0.23972 0.0
C310 C 0.53348 0.97728 0.26874 0.0
H311 H 0.55687 0.0094 0.18414 0.0
H312 H 0.58954 0.00847 0.24274 0.0
S313 S 0.419 0.93277 0.26849 0.0
N314 N 0.42887 0.94667 0.22695 0.0
N315 N 0.46443 0.94537 0.29023 0.0
C316 C 0.49008 0.9619 0.26363 0.0
C317 C 0.4708 0.96265 0.22934 0.0
C318 C 0.95288 0.98828 0.70553 0.0
C319 C -0.00674 0.96624 0.69864 0.0
C320 C 0.93462 0.9888 0.73957 0.0
C321 C 0.95606 0.96739 0.76813 0.0
H322 H 0.9343 0.0039 0.68426 0.0
H323 H 0.90269 0.00484 0.74316 0.0
S324 S 0.06562 0.91027 0.76505 0.0
N325 N 0.05632 0.92631 0.72391 0.0
N326 N 0.02214 0.92734 0.78782 0.0
C327 C -0.00228 0.94745 0.76199 0.0
C328 C 0.01625 0.94684 0.72729 0.0
C329 C 0.51125 0.03477 0.70705 0.0
C330 C 0.46582 0.03545 0.69955 0.0
C331 C 0.52648 0.03452 0.74192 0.0
C332 C 0.49689 0.03433 0.77064 0.0
H333 H 0.53536 0.03634 0.6859 0.0
H334 H 0.56179 0.03553 0.74634 0.0
S335 S 0.37453 0.03084 0.76503 0.0
N336 N 0.3913 0.03231 0.72352 0.0
N337 N 0.41987 0.03135 0.78913 0.0
C338 C 0.45134 0.03249 0.76348 0.0
C339 C 0.43583 0.03324 0.72792 0.0
C340 C 0.51646 0.54015 0.22804 0.0
C341 C 0.48734 0.55533 0.20151 0.0
C342 C 0.50342 0.53833 0.26352 0.0
C343 C 0.46076 0.55178 0.27399 0.0
H344 H 0.55009 0.53059 0.22157 0.0
H345 H 0.52752 0.52758 0.28295 0.0
S346 S 0.37028 0.58972 0.21456 0.0
N347 N 0.41265 0.58078 0.18795 0.0
N348 N 0.38819 0.57742 0.25461 0.0
C349 C 0.43064 0.56517 0.2476 0.0
C350 C 0.44389 0.5669 0.2114 0.0
C351 C 0.03325 0.45864 0.25092 0.0
C352 C 0.00178 0.46076 0.27829 0.0
C353 C 0.02049 0.45987 0.21543 0.0
C354 C 0.97571 0.46264 0.20595 0.0
H355 H 0.06803 0.45474 0.25691 0.0
H356 H 0.04584 0.45644 0.19537 0.0
S357 S 0.88058 0.47398 0.26732 0.0
N358 N 0.92403 0.46975 0.29339 0.0
N359 N 0.90006 0.47155 0.22661 0.0
C360 C 0.94404 0.46716 0.23296 0.0
C361 C 0.95707 0.4664 0.26915 0.0
C362 C 0.53796 0.4543 0.72341 0.0
C363 C 0.5058 0.45862 0.69682 0.0
C364 C 0.52627 0.4544 0.7592 0.0
C365 C 0.48189 0.45819 0.76978 0.0
H366 H 0.57244 0.44972 0.71657 0.0
H367 H 0.55211 0.44951 0.7786 0.0
S368 S 0.38537 0.47472 0.71081 0.0
N369 N 0.42792 0.47034 0.68368 0.0
N370 N 0.40593 0.47002 0.75101 0.0
C371 C 0.44957 0.46461 0.74357 0.0
C372 C 0.46153 0.46502 0.70708 0.0
C373 C 0.04069 0.53945 0.75261 0.0
C374 C 0.00987 0.53076 0.77969 0.0
C375 C 0.02816 0.53964 0.71707 0.0
C376 C 0.9842 0.53162 0.70717 0.0
H377 H 0.07469 0.54727 0.75889 0.0
H378 H 0.05286 0.54794 0.69735 0.0
S379 S 0.89156 0.5024 0.76739 0.0
N380 N 0.93404 0.51025 0.79385 0.0
N381 N 0.91047 0.51097 0.72699 0.0
C382 C 0.95342 0.52078 0.73378 0.0
C383 C 0.96627 0.52021 0.77003 0.0
C384 C 0.97886 0.21961 0.12064 0.0
C385 C 0.02231 0.20875 0.11016 0.0
C386 C 0.96214 0.2638 0.11754 0.0
C387 C 0.98822 0.29924 0.10408 0.0
H388 H 0.95732 0.19376 0.13141 0.0
H389 H 0.92865 0.27027 0.12635 0.0
S390 S 0.10384 0.28882 0.07184 0.0
N391 N 0.09082 0.23709 0.08492 0.0
N392 N 0.05956 0.32025 0.07922 0.0
C393 C 0.03162 0.28887 0.09308 0.0
C394 C 0.0486 0.24367 0.09607 0.0
C395 C 0.49061 0.76777 0.09889 0.0
C396 C 0.50755 0.80284 0.11983 0.0
C397 C 0.50836 0.72375 0.10064 0.0
C398 C 0.54315 0.71296 0.12391 0.0
H399 H 0.46373 0.77444 0.08074 0.0
H400 H 0.49412 0.69782 0.08407 0.0
S401 S 0.59861 0.79254 0.18495 0.0
N402 N 0.56097 0.82381 0.16473 0.0
N403 N 0.59375 0.74113 0.1684 0.0
C404 C 0.5602 0.74772 0.14512 0.0
C405 C 0.54257 0.79263 0.14297 0.0
C406 C 0.51298 0.72278 0.38172 0.0
C407 C 0.46801 0.71158 0.38523 0.0
C408 C 0.52706 0.76795 0.38194 0.0
C409 C 0.49679 0.80394 0.38559 0.0
H410 H 0.53766 0.69651 0.37807 0.0
H411 H 0.56194 0.77462 0.37835 0.0
S412 S 0.37564 0.793 0.39869 0.0
N413 N 0.39347 0.74031 0.39468 0.0
N414 N 0.41988 0.82518 0.39508 0.0
C415 C 0.45185 0.79325 0.39036 0.0
C416 C 0.43749 0.74714 0.39019 0.0
C417 C 0.0353 0.25292 0.37407 0.0
C418 C 0.00298 0.28736 0.37329 0.0
C419 C 0.02372 0.20703 0.37223 0.0
C420 C 0.97932 0.19353 0.36946 0.0
H421 H 0.06999 0.26137 0.37574 0.0
H422 H 0.05 0.182 0.37257 0.0
S423 S 0.88165 0.27019 0.36779 0.0
N424 N 0.92431 0.30458 0.37062 0.0
N425 N 0.90266 0.21848 0.36712 0.0
C426 C 0.94655 0.22755 0.36924 0.0
C427 C 0.95833 0.27435 0.37117 0.0
C428 C 0.03769 0.73184 0.87941 0.0
C429 C 0.00608 0.69723 0.88237 0.0
C430 C 0.02515 0.77756 0.87806 0.0
C431 C 0.98045 0.79074 0.87975 0.0
H432 H 0.07251 0.72366 0.87744 0.0
H433 H 0.05089 0.80271 0.87525 0.0
S434 S 0.88464 0.71352 0.88967 0.0
N435 N 0.92797 0.67942 0.88848 0.0
N436 N 0.90446 0.76537 0.88598 0.0
C437 C 0.94846 0.75658 0.88365 0.0
C438 C 0.96125 0.70989 0.88495 0.0
C439 C 0.45361 0.25905 0.87447 0.0
C440 C 0.48579 0.2932 0.87657 0.0
C441 C 0.46542 0.21309 0.87382 0.0
C442 C 0.50993 0.19926 0.87508 0.0
H443 H 0.41888 0.26776 0.87289 0.0
H444 H 0.4393 0.18829 0.87166 0.0
S445 S 0.60707 0.275 0.88264 0.0
N446 N 0.56426 0.30979 0.88137 0.0
N447 N 0.58638 0.22346 0.88004 0.0
C448 C 0.54249 0.23295 0.87798 0.0
C449 C 0.53044 0.27985 0.87876 0.0
C450 C 0.50998 0.21324 0.59522 0.0
C451 C 0.46463 0.20292 0.59579 0.0
C452 C 0.52476 0.25815 0.59422 0.0
C453 C 0.49485 0.29478 0.59372 0.0
H454 H 0.53454 0.18643 0.59604 0.0
H455 H 0.56003 0.26407 0.59435 0.0
S456 S 0.37242 0.28631 0.59293 0.0
N457 N 0.38977 0.23321 0.59437 0.0
N458 N 0.41745 0.3176 0.59244 0.0
C459 C 0.44932 0.28501 0.59342 0.0
C460 C 0.43425 0.23916 0.59447 0.0
C461 C 0.02598 0.75627 0.59372 0.0
C462 C -0.0066 0.78982 0.5987 0.0
C463 C 0.01523 0.71012 0.59344 0.0
C464 C 0.97142 0.69544 0.59821 0.0
H465 H 0.06031 0.76558 0.59041 0.0
H466 H 0.04175 0.68577 0.58998 0.0
S467 S 0.87318 0.76963 0.61056 0.0
N468 N 0.91498 0.8051 0.60722 0.0
N469 N 0.89487 0.71845 0.60676 0.0
C470 C 0.9383 0.72864 0.60247 0.0
C471 C 0.94924 0.77573 0.6027 0.0
C472 C 0.03418 0.99312 0.96158 0.0
C473 C 0.99 0.99234 0.95038 0.0
C474 C 0.04607 0.01413 -0.00676 0.0
C475 C 0.01433 0.03585 0.01459 0.0
H476 H 0.05976 0.9768 0.94607 0.0
H477 H 0.08055 0.01373 0.00079 0.0
S478 S 0.89416 0.04434 -0.00345 0.0
N479 N 0.91434 0.01552 0.96286 0.0
N480 N 0.93679 0.05556 0.0221 0.0
C481 C 0.97006 0.03574 0.00349 0.0
C482 C 0.95787 0.01382 0.97148 0.0
C483 C 0.5317 0.02656 -0.00759 0.0
C484 C 0.52462 0.01668 0.95657 0.0
C485 C 0.50934 0.00306 0.01913 0.0
C486 C 0.47896 0.96862 0.01119 0.0
H487 H 0.55466 0.05278 4e-05 0.0
H488 H 0.51605 0.0121 0.04629 0.0
S489 S 0.44845 0.92944 0.92142 0.0
N490 N 0.48497 0.96987 0.91446 0.0
N491 N 0.44298 0.92571 0.96471 0.0
C492 C 0.47157 0.95823 0.97543 0.0
C493 C 0.49437 0.98224 0.94816 0.0
C494 C 0.4771 0.98925 0.52361 0.0
C495 C 0.4575 0.03093 0.51412 0.0
C496 C 0.50275 0.96464 0.49954 0.0
C497 C 0.50991 0.98067 0.46497 0.0
H498 H 0.47248 0.9752 0.54984 0.0
H499 H 0.51671 0.93256 0.50813 0.0
S500 S 0.46738 0.08887 0.42716 0.0
N501 N 0.44797 0.08779 0.46791 0.0
N502 N 0.49621 0.04163 0.42267 0.0
C503 C 0.49095 0.0226 0.45519 0.0
C504 C 0.46474 0.04767 0.47974 0.0
C505 C 0.01594 0.95999 0.47295 0.0
C506 C 0.00675 0.96869 0.50874 0.0
C507 C -0.00648 0.983 0.44594 0.0
C508 C 0.96093 0.01572 0.45352 0.0
H509 H 0.04076 0.93521 0.46557 0.0
H510 H 0.00203 0.97502 0.41885 0.0
S511 S 0.92398 0.05095 0.543 0.0
N512 N 0.96245 0.01228 0.55038 0.0
N513 N 0.92033 0.05548 0.49964 0.0
C514 C 0.95124 0.02473 0.48923 0.0
C515 C 0.97412 0.00126 0.51679 0.0
C516 C 0.48681 0.4876 0.02136 0.0
C517 C 0.51964 0.51928 0.01236 0.0
C518 C 0.4634 0.46432 -0.00463 0.0
C519 C 0.47176 0.47174 0.95925 0.0
H520 H 0.47888 0.48067 0.04877 0.0
H521 H 0.43841 0.44042 0.0038 0.0
S522 S 0.555 0.55056 0.92145 0.0
N523 N 0.55975 0.55645 0.96459 0.0
N524 N 0.51574 0.5127 0.91573 0.0
C525 C 0.50467 0.50317 0.94978 0.0
C526 C 0.5286 0.5269 0.97631 0.0
C527 C 0.98619 0.50997 0.02641 0.0
C528 C 0.96451 0.46958 0.01727 0.0
C529 C 0.01064 0.53451 0.00148 0.0
C530 C 0.0145 0.51972 0.96635 0.0
H531 H 0.98435 0.52291 0.0531 0.0
H532 H 0.02658 0.5654 0.00995 0.0
S533 S 0.96454 0.41574 0.92876 0.0
N534 N 0.94876 0.41566 0.97051 0.0
N535 N -0.00527 0.46175 0.92365 0.0
C536 C -0.00699 0.47935 0.95676 0.0
C537 C 0.96803 0.45432 0.98219 0.0
C538 C -0.00193 0.4831 0.52696 0.0
C539 C 0.96382 0.51315 0.51743 0.0
C540 C 0.02257 0.4598 0.50137 0.0
C541 C 0.0139 0.46559 0.46515 0.0
H542 H 0.00623 0.47745 0.55448 0.0
H543 H 0.0486 0.43717 0.51019 0.0
S544 S 0.92729 0.53996 0.42605 0.0
N545 N 0.9222 0.54713 0.46906 0.0
N546 N 0.9682 0.50342 0.42098 0.0
C547 C 0.97963 0.49545 0.45517 0.0
C548 C 0.95462 0.51919 0.48127 0.0
C549 C 0.49333 0.51072 0.52067 0.0
C550 C 0.51479 0.47087 0.5094 0.0
C551 C 0.46891 0.53759 0.49718 0.0
C552 C 0.46491 0.52583 0.46138 0.0
H553 H 0.49521 0.52139 0.54796 0.0
H554 H 0.45305 0.56787 0.5073 0.0
S555 S 0.51445 0.42464 0.4183 0.0
N556 N 0.53032 0.42084 0.45988 0.0
N557 N 0.48442 0.47136 0.4157 0.0
C558 C 0.4863 0.48612 0.44963 0.0
C559 C 0.5112 0.45866 0.47362 0.0
loop_
_geom_bond_atom_site_label_1
_geom_bond_atom_site_label_2
_geom_bond_distance
_geom_bond_site_symmetry_2
_ccdc_geom_bond_type
C0 O1 1.160 . S
C0 O7 1.185 . S
O1 C0 1.160 . S
O2 Zn3 1.899 . S
O2 C10 1.284 . S
Zn3 O2 1.899 . S
Zn3 O4 2.032 . S
Zn3 O7 2.086 . S
Zn3 O12 1.977 . S
O4 Zn3 2.032 . S
O4 C8 1.278 . S
C5 O6 1.203 . S
C5 O12 1.267 . S
O6 C5 1.203 . S
O7 C0 1.185 . S
O7 Zn3 2.086 . S
C8 O4 1.278 . S
C8 O9 1.211 1_455 S
O9 C8 1.211 1_655 S
C10 O2 1.284 . S
C10 O11 1.273 1_455 S
O11 C10 1.273 1_655 S
O12 Zn3 1.977 . S
O12 C5 1.267 . S
C13 O14 1.160 . S
C13 O20 1.185 . S
O14 C13 1.160 . S
O15 Zn16 1.899 . S
O15 C23 1.284 . S
Zn16 O15 1.899 . S
Zn16 O17 2.032 . S
Zn16 O20 2.086 . S
Zn16 O25 1.977 . S
O17 Zn16 2.032 . S
O17 C21 1.278 . S
C18 O19 1.203 . S
C18 O25 1.267 . S
O19 C18 1.203 . S
O20 C13 1.185 . S
O20 Zn16 2.086 . S
C21 O17 1.278 . S
C21 O22 1.211 . S
O22 C21 1.211 . S
C23 O15 1.284 . S
C23 O24 1.273 . S
O24 C23 1.273 . S
O25 Zn16 1.977 . S
O25 C18 1.267 . S
C26 O27 1.160 . S
C26 O33 1.185 . S
O27 C26 1.160 . S
O28 Zn29 1.899 . S
O28 C36 1.284 . S
Zn29 O28 1.899 . S
Zn29 O30 2.032 . S
Zn29 O33 2.086 . S
Zn29 O38 1.977 . S
O30 Zn29 2.032 . S
O30 C34 1.278 . S
C31 O32 1.203 . S
C31 O38 1.267 . S
O32 C31 1.203 . S
O33 C26 1.185 . S
O33 Zn29 2.086 . S
C34 O30 1.278 . S
C34 O35 1.211 . S
O35 C34 1.211 . S
C36 O28 1.284 . S
C36 O37 1.273 . S
O37 C36 1.273 . S
O38 Zn29 1.977 . S
O38 C31 1.267 . S
C39 O40 1.160 . S
C39 O46 1.185 . S
O40 C39 1.160 . S
O41 Zn42 1.899 . S
O41 C49 1.284 . S
Zn42 O41 1.899 . S
Zn42 O43 2.032 . S
Zn42 O46 2.086 . S
Zn42 O51 1.977 . S
O43 Zn42 2.032 . S
O43 C47 1.278 . S
C44 O45 1.203 . S
C44 O51 1.267 . S
O45 C44 1.203 . S
O46 C39 1.185 . S
O46 Zn42 2.086 . S
C47 O43 1.278 . S
C47 O48 1.211 1_655 S
O48 C47 1.211 1_455 S
C49 O41 1.284 . S
C49 O50 1.273 1_655 S
O50 C49 1.273 1_455 S
O51 Zn42 1.977 . S
O51 C44 1.267 . S
C52 O53 1.160 . S
C52 O59 1.185 . S
O53 C52 1.160 . S
O54 Zn55 1.899 . S
O54 C62 1.284 . S
Zn55 O54 1.899 . S
Zn55 O56 2.032 . S
Zn55 O59 2.086 . S
Zn55 O64 1.977 . S
O56 Zn55 2.032 . S
O56 C60 1.278 . S
C57 O58 1.203 . S
C57 O64 1.267 . S
O58 C57 1.203 . S
O59 C52 1.185 . S
O59 Zn55 2.086 . S
C60 O56 1.278 . S
C60 O61 1.211 1_655 S
O61 C60 1.211 1_455 S
C62 O54 1.284 . S
C62 O63 1.273 1_655 S
O63 C62 1.273 1_455 S
O64 Zn55 1.977 . S
O64 C57 1.267 . S
C65 O66 1.160 . S
C65 O72 1.185 . S
O66 C65 1.160 . S
O67 Zn68 1.899 . S
O67 C75 1.284 . S
Zn68 O67 1.899 . S
Zn68 O69 2.032 . S
Zn68 O72 2.086 . S
Zn68 O77 1.977 . S
O69 Zn68 2.032 . S
O69 C73 1.278 . S
C70 O71 1.203 . S
C70 O77 1.267 . S
O71 C70 1.203 . S
O72 C65 1.185 . S
O72 Zn68 2.086 . S
C73 O69 1.278 . S
C73 O74 1.211 . S
O74 C73 1.211 . S
C75 O67 1.284 . S
C75 O76 1.273 . S
O76 C75 1.273 . S
O77 Zn68 1.977 . S
O77 C70 1.267 . S
C78 O79 1.160 . S
C78 O85 1.185 . S
O79 C78 1.160 . S
O80 Zn81 1.899 . S
O80 C88 1.284 . S
Zn81 O80 1.899 . S
Zn81 O82 2.032 . S
Zn81 O85 2.086 . S
Zn81 O90 1.977 . S
O82 Zn81 2.032 . S
O82 C86 1.278 . S
C83 O84 1.203 . S
C83 O90 1.267 . S
O84 C83 1.203 . S
O85 C78 1.185 . S
O85 Zn81 2.086 . S
C86 O82 1.278 . S
C86 O87 1.211 . S
O87 C86 1.211 . S
C88 O80 1.284 . S
C88 O89 1.273 . S
O89 C88 1.273 . S
O90 Zn81 1.977 . S
O90 C83 1.267 . S
C91 O92 1.160 . S
C91 O98 1.185 . S
O92 C91 1.160 . S
O93 Zn94 1.899 . S
O93 C101 1.284 . S
Zn94 O93 1.899 . S
Zn94 O95 2.032 . S
Zn94 O98 2.086 . S
Zn94 O103 1.977 . S
O95 Zn94 2.032 . S
O95 C99 1.278 . S
C96 O97 1.203 . S
C96 O103 1.267 . S
O97 C96 1.203 . S
O98 C91 1.185 . S
O98 Zn94 2.086 . S
C99 O95 1.278 . S
C99 O100 1.211 1_455 S
O100 C99 1.211 1_655 S
C101 O93 1.284 . S
C101 O102 1.273 1_455 S
O102 C101 1.273 1_655 S
O103 Zn94 1.977 . S
O103 C96 1.267 . S
C104 O105 1.160 . S
C104 O111 1.185 . S
O105 C104 1.160 . S
O106 Zn107 1.899 . S
O106 C114 1.284 . S
Zn107 O106 1.899 . S
Zn107 O108 2.032 . S
Zn107 O111 2.086 . S
Zn107 O116 1.977 . S
O108 Zn107 2.032 . S
O108 C112 1.278 . S
C109 O110 1.203 . S
C109 O116 1.267 . S
O110 C109 1.203 . S
O111 C104 1.185 . S
O111 Zn107 2.086 . S
C112 O108 1.278 . S
C112 O113 1.211 . S
O113 C112 1.211 . S
C114 O106 1.284 . S
C114 O115 1.273 . S
O115 C114 1.273 . S
O116 Zn107 1.977 . S
O116 C109 1.267 . S
C117 O118 1.160 . S
C117 O124 1.185 . S
O118 C117 1.160 . S
O119 Zn120 1.899 . S
O119 C127 1.284 . S
Zn120 O119 1.899 . S
Zn120 O121 2.032 . S
Zn120 O124 2.086 . S
Zn120 O129 1.977 . S
O121 Zn120 2.032 . S
O121 C125 1.278 . S
C122 O123 1.203 . S
C122 O129 1.267 . S
O123 C122 1.203 . S
O124 C117 1.185 . S
O124 Zn120 2.086 . S
C125 O121 1.278 . S
C125 O126 1.211 1_655 S
O126 C125 1.211 1_455 S
C127 O119 1.284 . S
C127 O128 1.273 1_655 S
O128 C127 1.273 1_455 S
O129 Zn120 1.977 . S
O129 C122 1.267 . S
C130 O131 1.160 . S
C130 O137 1.185 . S
O131 C130 1.160 . S
O132 Zn133 1.899 . S
O132 C140 1.284 . S
Zn133 O132 1.899 . S
Zn133 O134 2.032 . S
Zn133 O137 2.086 . S
Zn133 O142 1.977 . S
O134 Zn133 2.032 . S
O134 C138 1.278 . S
C135 O136 1.203 . S
C135 O142 1.267 . S
O136 C135 1.203 . S
O137 C130 1.185 . S
O137 Zn133 2.086 . S
C138 O134 1.278 . S
C138 O139 1.211 1_455 S
O139 C138 1.211 1_655 S
C140 O132 1.284 . S
C140 O141 1.273 1_455 S
O141 C140 1.273 1_655 S
O142 Zn133 1.977 . S
O142 C135 1.267 . S
C143 O144 1.160 . S
C143 O150 1.185 . S
O144 C143 1.160 . S
O145 Zn146 1.899 . S
O145 C153 1.284 . S
Zn146 O145 1.899 . S
Zn146 O147 2.032 . S
Zn146 O150 2.086 . S
Zn146 O155 1.977 . S
O147 Zn146 2.032 . S
O147 C151 1.278 . S
C148 O149 1.203 . S
C148 O155 1.267 . S
O149 C148 1.203 . S
O150 C143 1.185 . S
O150 Zn146 2.086 . S
C151 O147 1.278 . S
C151 O152 1.211 . S
O152 C151 1.211 . S
C153 O145 1.284 . S
C153 O154 1.273 . S
O154 C153 1.273 . S
O155 Zn146 1.977 . S
O155 C148 1.267 . S
C156 O157 1.160 . S
C156 O163 1.185 . S
O157 C156 1.160 . S
O158 Zn159 1.899 . S
O158 C166 1.284 . S
Zn159 O158 1.899 . S
Zn159 O160 2.032 . S
Zn159 O163 2.086 . S
Zn159 O168 1.977 . S
O160 Zn159 2.032 . S
O160 C164 1.278 . S
C161 O162 1.203 . S
C161 O168 1.267 . S
O162 C161 1.203 . S
O163 C156 1.185 . S
O163 Zn159 2.086 . S
C164 O160 1.278 . S
C164 O165 1.211 . S
O165 C164 1.211 . S
C166 O158 1.284 . S
C166 O167 1.273 . S
O167 C166 1.273 . S
O168 Zn159 1.977 . S
O168 C161 1.267 . S
C169 O170 1.160 . S
C169 O176 1.185 . S
O170 C169 1.160 . S
O171 Zn172 1.899 . S
O171 C179 1.284 . S
Zn172 O171 1.899 . S
Zn172 O173 2.032 . S
Zn172 O176 2.086 . S
Zn172 O181 1.977 . S
O173 Zn172 2.032 . S
O173 C177 1.278 . S
C174 O175 1.203 . S
C174 O181 1.267 . S
O175 C174 1.203 . S
O176 C169 1.185 . S
O176 Zn172 2.086 . S
C177 O173 1.278 . S
C177 O178 1.211 1_455 S
O178 C177 1.211 1_655 S
C179 O171 1.284 . S
C179 O180 1.273 1_455 S
O180 C179 1.273 1_655 S
O181 Zn172 1.977 . S
O181 C174 1.267 . S
C182 O183 1.160 . S
C182 O189 1.185 . S
O183 C182 1.160 . S
O184 Zn185 1.899 . S
O184 C192 1.284 . S
Zn185 O184 1.899 . S
Zn185 O186 2.032 . S
Zn185 O189 2.086 . S
Zn185 O194 1.977 . S
O186 Zn185 2.032 . S
O186 C190 1.278 . S
C187 O188 1.203 . S
C187 O194 1.267 . S
O188 C187 1.203 . S
O189 C182 1.185 . S
O189 Zn185 2.086 . S
C190 O186 1.278 . S
C190 O191 1.211 1_655 S
O191 C190 1.211 1_455 S
C192 O184 1.284 . S
C192 O193 1.273 1_655 S
O193 C192 1.273 1_455 S
O194 Zn185 1.977 . S
O194 C187 1.267 . S
C195 O196 1.160 . S
C195 O202 1.185 . S
O196 C195 1.160 . S
O197 Zn198 1.899 . S
O197 C205 1.284 . S
Zn198 O197 1.899 . S
Zn198 O199 2.032 . S
Zn198 O202 2.086 . S
Zn198 O207 1.977 . S
O199 Zn198 2.032 . S
O199 C203 1.278 . S
C200 O201 1.203 . S
C200 O207 1.267 . S
O201 C200 1.203 . S
O202 C195 1.185 . S
O202 Zn198 2.086 . S
C203 O199 1.278 . S
C203 O204 1.211 . S
O204 C203 1.211 . S
C205 O197 1.284 . S
C205 O206 1.273 . S
O206 C205 1.273 . S
O207 Zn198 1.977 . S
O207 C200 1.267 . S
C208 C209 1.369 1_545 S
C208 C210 1.419 . S
C208 H212 0.930 . S
C209 C208 1.369 1_565 S
C209 C218 1.429 . S
C210 C208 1.419 . S
C210 C211 1.363 . S
C210 H213 0.929 . S
C211 C210 1.363 . S
C211 C217 1.428 1_545 S
H212 C208 0.930 . S
H213 C210 0.929 . S
S214 N215 1.613 . S
S214 N216 1.610 . S
N215 S214 1.613 . S
N215 C218 1.350 . S
N216 S214 1.610 . S
N216 C217 1.351 . S
C217 C211 1.428 1_565 S
C217 N216 1.351 . S
C217 C218 1.434 . S
C218 C209 1.429 . S
C218 N215 1.350 . S
C218 C217 1.434 . S
C219 C220 1.369 . S
C219 C221 1.419 . S
C219 H223 0.930 . S
C220 C219 1.369 . S
C220 C229 1.429 1_565 S
C221 C219 1.419 . S
C221 C222 1.363 1_565 S
C221 H224 0.929 . S
C222 C221 1.363 1_545 S
C222 C228 1.428 . S
H223 C219 0.930 . S
H224 C221 0.929 . S
S225 N226 1.613 . S
S225 N227 1.610 . S
N226 S225 1.613 . S
N226 C229 1.350 . S
N227 S225 1.610 . S
N227 C228 1.351 . S
C228 C222 1.428 . S
C228 N227 1.351 . S
C228 C229 1.434 . S
C229 C220 1.429 1_545 S
C229 N226 1.350 . S
C229 C228 1.434 . S
C230 C231 1.369 . S
C230 C232 1.419 . S
C230 H234 0.930 . S
C231 C230 1.369 . S
C231 C240 1.429 1_565 S
C232 C230 1.419 . S
C232 C233 1.363 1_565 S
C232 H235 0.929 . S
C233 C232 1.363 1_545 S
C233 C239 1.428 . S
H234 C230 0.930 . S
H235 C232 0.929 . S
S236 N237 1.613 . S
S236 N238 1.610 . S
N237 S236 1.613 . S
N237 C240 1.350 . S
N238 S236 1.610 . S
N238 C239 1.351 . S
C239 C233 1.428 . S
C239 N238 1.351 . S
C239 C240 1.434 . S
C240 C231 1.429 1_545 S
C240 N237 1.350 . S
C240 C239 1.434 . S
C241 C242 1.369 . S
C241 C243 1.419 . S
C241 H245 0.930 . S
C242 C241 1.369 . S
C242 C251 1.429 1_565 S
C243 C241 1.419 . S
C243 C244 1.363 1_565 S
C243 H246 0.929 . S
C244 C243 1.363 1_545 S
C244 C250 1.428 . S
H245 C241 0.930 . S
H246 C243 0.929 . S
S247 N248 1.613 . S
S247 N249 1.610 . S
N248 S247 1.613 . S
N248 C251 1.350 . S
N249 S247 1.610 . S
N249 C250 1.351 . S
C250 C244 1.428 . S
C250 N249 1.351 . S
C250 C251 1.434 . S
C251 C242 1.429 1_545 S
C251 N248 1.350 . S
C251 C250 1.434 . S
C252 C253 1.369 . S
C252 C254 1.419 . S
C252 H256 0.930 . S
C253 C252 1.369 . S
C253 C262 1.429 . S
C254 C252 1.419 . S
C254 C255 1.363 . S
C254 H257 0.929 . S
C255 C254 1.363 . S
C255 C261 1.428 . S
H256 C252 0.930 . S
H257 C254 0.929 . S
S258 N259 1.613 . S
S258 N260 1.610 . S
N259 S258 1.613 . S
N259 C262 1.350 . S
N260 S258 1.610 . S
N260 C261 1.351 . S
C261 C255 1.428 . S
C261 N260 1.351 . S
C261 C262 1.434 . S
C262 C253 1.429 . S
C262 N259 1.350 . S
C262 C261 1.434 . S
C263 C264 1.369 . S
C263 C265 1.419 . S
C263 H267 0.930 . S
C264 C263 1.369 . S
C264 C273 1.429 . S
C265 C263 1.419 . S
C265 C266 1.363 . S
C265 H268 0.929 . S
C266 C265 1.363 . S
C266 C272 1.428 . S
H267 C263 0.930 . S
H268 C265 0.929 . S
S269 N270 1.613 . S
S269 N271 1.610 . S
N270 S269 1.613 . S
N270 C273 1.350 . S
N271 S269 1.610 . S
N271 C272 1.351 . S
C272 C266 1.428 . S
C272 N271 1.351 . S
C272 C273 1.434 . S
C273 C264 1.429 . S
C273 N270 1.350 . S
C273 C272 1.434 . S
C274 C275 1.369 . S
C274 C276 1.419 . S
C274 H278 0.930 . S
C275 C274 1.369 . S
C275 C284 1.429 . S
C276 C274 1.419 . S
C276 C277 1.363 . S
C276 H279 0.929 . S
C277 C276 1.363 . S
C277 C283 1.428 . S
H278 C274 0.930 . S
H279 C276 0.929 . S
S280 N281 1.613 . S
S280 N282 1.610 . S
N281 S280 1.613 . S
N281 C284 1.350 . S
N282 S280 1.610 . S
N282 C283 1.351 . S
C283 C277 1.428 . S
C283 N282 1.351 . S
C283 C284 1.434 . S
C284 C275 1.429 . S
C284 N281 1.350 . S
C284 C283 1.434 . S
C285 C286 1.369 . S
C285 C287 1.419 . S
C285 H289 0.930 . S
C286 C285 1.369 . S
C286 C295 1.429 . S
C287 C285 1.419 . S
C287 C288 1.363 . S
C287 H290 0.929 . S
C288 C287 1.363 . S
C288 C294 1.428 . S
H289 C285 0.930 . S
H290 C287 0.929 . S
S291 N292 1.613 . S
S291 N293 1.610 . S
N292 S291 1.613 . S
N292 C295 1.350 . S
N293 S291 1.610 . S
N293 C294 1.351 . S
C294 C288 1.428 . S
C294 N293 1.351 . S
C294 C295 1.434 . S
C295 C286 1.429 . S
C295 N292 1.350 . S
C295 C294 1.434 . S
C296 C297 1.369 . S
C296 C298 1.419 . S
C296 H300 0.930 . S
C297 C296 1.369 . S
C297 C306 1.429 1_655 S
C298 C296 1.419 . S
C298 C299 1.363 1_655 S
C298 H301 0.929 . S
C299 C298 1.363 1_455 S
C299 C305 1.428 . S
H300 C296 0.930 . S
H301 C298 0.929 . S
S302 N303 1.613 . S
S302 N304 1.610 . S
N303 S302 1.613 . S
N303 C306 1.350 . S
N304 S302 1.610 . S
N304 C305 1.351 . S
C305 C299 1.428 . S
C305 N304 1.351 . S
C305 C306 1.434 . S
C306 C297 1.429 1_455 S
C306 N303 1.350 . S
C306 C305 1.434 . S
C307 C308 1.369 . S
C307 C309 1.419 . S
C307 H311 0.930 1_565 S
C308 C307 1.369 . S
C308 C317 1.429 . S
C309 C307 1.419 . S
C309 C310 1.363 . S
C309 H312 0.929 1_565 S
C310 C309 1.363 . S
C310 C316 1.428 . S
H311 C307 0.930 1_545 S
H312 C309 0.929 1_545 S
S313 N314 1.613 . S
S313 N315 1.610 . S
N314 S313 1.613 . S
N314 C317 1.350 . S
N315 S313 1.610 . S
N315 C316 1.351 . S
C316 C310 1.428 . S
C316 N315 1.351 . S
C316 C317 1.434 . S
C317 C308 1.429 . S
C317 N314 1.350 . S
C317 C316 1.434 . S
C318 C319 1.369 1_655 S
C318 C320 1.419 . S
C318 H322 0.930 1_565 S
C319 C318 1.369 1_455 S
C319 C328 1.429 . S
C320 C318 1.419 . S
C320 C321 1.363 . S
C320 H323 0.929 1_565 S
C321 C320 1.363 . S
C321 C327 1.428 1_655 S
H322 C318 0.930 1_545 S
H323 C320 0.929 1_545 S
S324 N325 1.613 . S
S324 N326 1.610 . S
N325 S324 1.613 . S
N325 C328 1.350 . S
N326 S324 1.610 . S
N326 C327 1.351 . S
C327 C321 1.428 1_455 S
C327 N326 1.351 . S
C327 C328 1.434 . S
C328 C319 1.429 . S
C328 N325 1.350 . S
C328 C327 1.434 . S
C329 C330 1.369 . S
C329 C331 1.419 . S
C329 H333 0.930 . S
C330 C329 1.369 . S
C330 C339 1.429 . S
C331 C329 1.419 . S
C331 C332 1.363 . S
C331 H334 0.929 . S
C332 C331 1.363 . S
C332 C338 1.428 . S
H333 C329 0.930 . S
H334 C331 0.929 . S
S335 N336 1.613 . S
S335 N337 1.610 . S
N336 S335 1.613 . S
N336 C339 1.350 . S
N337 S335 1.610 . S
N337 C338 1.351 . S
C338 C332 1.428 . S
C338 N337 1.351 . S
C338 C339 1.434 . S
C339 C330 1.429 . S
C339 N336 1.350 . S
C339 C338 1.434 . S
C340 C341 1.369 . S
C340 C342 1.419 . S
C340 H344 0.930 . S
C341 C340 1.369 . S
C341 C350 1.429 . S
C342 C340 1.419 . S
C342 C343 1.363 . S
C342 H345 0.929 . S
C343 C342 1.363 . S
C343 C349 1.428 . S
H344 C340 0.930 . S
H345 C342 0.929 . S
S346 N347 1.613 . S
S346 N348 1.610 . S
N347 S346 1.613 . S
N347 C350 1.350 . S
N348 S346 1.610 . S
N348 C349 1.351 . S
C349 C343 1.428 . S
C349 N348 1.351 . S
C349 C350 1.434 . S
C350 C341 1.429 . S
C350 N347 1.350 . S
C350 C349 1.434 . S
C351 C352 1.369 . S
C351 C353 1.419 . S
C351 H355 0.930 . S
C352 C351 1.369 . S
C352 C361 1.429 1_455 S
C353 C351 1.419 . S
C353 C354 1.363 1_455 S
C353 H356 0.929 . S
C354 C353 1.363 1_655 S
C354 C360 1.428 . S
H355 C351 0.930 . S
H356 C353 0.929 . S
S357 N358 1.613 . S
S357 N359 1.610 . S
N358 S357 1.613 . S
N358 C361 1.350 . S
N359 S357 1.610 . S
N359 C360 1.351 . S
C360 C354 1.428 . S
C360 N359 1.351 . S
C360 C361 1.434 . S
C361 C352 1.429 1_655 S
C361 N358 1.350 . S
C361 C360 1.434 . S
C362 C363 1.369 . S
C362 C364 1.419 . S
C362 H366 0.930 . S
C363 C362 1.369 . S
C363 C372 1.429 . S
C364 C362 1.419 . S
C364 C365 1.363 . S
C364 H367 0.929 . S
C365 C364 1.363 . S
C365 C371 1.428 . S
H366 C362 0.930 . S
H367 C364 0.929 . S
S368 N369 1.613 . S
S368 N370 1.610 . S
N369 S368 1.613 . S
N369 C372 1.350 . S
N370 S368 1.610 . S
N370 C371 1.351 . S
C371 C365 1.428 . S
C371 N370 1.351 . S
C371 C372 1.434 . S
C372 C363 1.429 . S
C372 N369 1.350 . S
C372 C371 1.434 . S
C373 C374 1.369 . S
C373 C375 1.419 . S
C373 H377 0.930 . S
C374 C373 1.369 . S
C374 C383 1.429 1_455 S
C375 C373 1.419 . S
C375 C376 1.363 1_455 S
C375 H378 0.929 . S
C376 C375 1.363 1_655 S
C376 C382 1.428 . S
H377 C373 0.930 . S
H378 C375 0.929 . S
S379 N380 1.613 . S
S379 N381 1.610 . S
N380 S379 1.613 . S
N380 C383 1.350 . S
N381 S379 1.610 . S
N381 C382 1.351 . S
C382 C376 1.428 . S
C382 N381 1.351 . S
C382 C383 1.434 . S
C383 C374 1.429 1_655 S
C383 N380 1.350 . S
C383 C382 1.434 . S
C384 C385 1.369 1_655 S
C384 C386 1.419 . S
C384 H388 0.930 . S
C385 C384 1.369 1_455 S
C385 C394 1.429 . S
C386 C384 1.419 . S
C386 C387 1.363 . S
C386 H389 0.929 . S
C387 C386 1.363 . S
C387 C393 1.428 1_655 S
H388 C384 0.930 . S
H389 C386 0.929 . S
S390 N391 1.613 . S
S390 N392 1.610 . S
N391 S390 1.613 . S
N391 C394 1.350 . S
N392 S390 1.610 . S
N392 C393 1.351 . S
C393 C387 1.428 1_455 S
C393 N392 1.351 . S
C393 C394 1.434 . S
C394 C385 1.429 . S
C394 N391 1.350 . S
C394 C393 1.434 . S
C395 C396 1.369 . S
C395 C397 1.419 . S
C395 H399 0.930 . S
C396 C395 1.369 . S
C396 C405 1.429 . S
C397 C395 1.419 . S
C397 C398 1.363 . S
C397 H400 0.929 . S
C398 C397 1.363 . S
C398 C404 1.428 . S
H399 C395 0.930 . S
H400 C397 0.929 . S
S401 N402 1.613 . S
S401 N403 1.610 . S
N402 S401 1.613 . S
N402 C405 1.350 . S
N403 S401 1.610 . S
N403 C404 1.351 . S
C404 C398 1.428 . S
C404 N403 1.351 . S
C404 C405 1.434 . S
C405 C396 1.429 . S
C405 N402 1.350 . S
C405 C404 1.434 . S
C406 C407 1.369 . S
C406 C408 1.419 . S
C406 H410 0.930 . S
C407 C406 1.369 . S
C407 C416 1.429 . S
C408 C406 1.419 . S
C408 C409 1.363 . S
C408 H411 0.929 . S
C409 C408 1.363 . S
C409 C415 1.428 . S
H410 C406 0.930 . S
H411 C408 0.929 . S
S412 N413 1.613 . S
S412 N414 1.610 . S
N413 S412 1.613 . S
N413 C416 1.350 . S
N414 S412 1.610 . S
N414 C415 1.351 . S
C415 C409 1.428 . S
C415 N414 1.351 . S
C415 C416 1.434 . S
C416 C407 1.429 . S
C416 N413 1.350 . S
C416 C415 1.434 . S
C417 C418 1.369 . S
C417 C419 1.419 . S
C417 H421 0.930 . S
C418 C417 1.369 . S
C418 C427 1.429 1_455 S
C419 C417 1.419 . S
C419 C420 1.363 1_455 S
C419 H422 0.929 . S
C420 C419 1.363 1_655 S
C420 C426 1.428 . S
H421 C417 0.930 . S
H422 C419 0.929 . S
S423 N424 1.613 . S
S423 N425 1.610 . S
N424 S423 1.613 . S
N424 C427 1.350 . S
N425 S423 1.610 . S
N425 C426 1.351 . S
C426 C420 1.428 . S
C426 N425 1.351 . S
C426 C427 1.434 . S
C427 C418 1.429 1_655 S
C427 N424 1.350 . S
C427 C426 1.434 . S
C428 C429 1.369 . S
C428 C430 1.419 . S
C428 H432 0.930 . S
C429 C428 1.369 . S
C429 C438 1.429 1_455 S
C430 C428 1.419 . S
C430 C431 1.363 1_455 S
C430 H433 0.929 . S
C431 C430 1.363 1_655 S
C431 C437 1.428 . S
H432 C428 0.930 . S
H433 C430 0.929 . S
S434 N435 1.613 . S
S434 N436 1.610 . S
N435 S434 1.613 . S
N435 C438 1.350 . S
N436 S434 1.610 . S
N436 C437 1.351 . S
C437 C431 1.428 . S
C437 N436 1.351 . S
C437 C438 1.434 . S
C438 C429 1.429 1_655 S
C438 N435 1.350 . S
C438 C437 1.434 . S
C439 C440 1.369 . S
C439 C441 1.419 . S
C439 H443 0.930 . S
C440 C439 1.369 . S
C440 C449 1.429 . S
C441 C439 1.419 . S
C441 C442 1.363 . S
C441 H444 0.929 . S
C442 C441 1.363 . S
C442 C448 1.428 . S
H443 C439 0.930 . S
H444 C441 0.929 . S
S445 N446 1.613 . S
S445 N447 1.610 . S
N446 S445 1.613 . S
N446 C449 1.350 . S
N447 S445 1.610 . S
N447 C448 1.351 . S
C448 C442 1.428 . S
C448 N447 1.351 . S
C448 C449 1.434 . S
C449 C440 1.429 . S
C449 N446 1.350 . S
C449 C448 1.434 . S
C450 C451 1.369 . S
C450 C452 1.419 . S
C450 H454 0.930 . S
C451 C450 1.369 . S
C451 C460 1.429 . S
C452 C450 1.419 . S
C452 C453 1.363 . S
C452 H455 0.929 . S
C453 C452 1.363 . S
C453 C459 1.428 . S
H454 C450 0.930 . S
H455 C452 0.929 . S
S456 N457 1.613 . S
S456 N458 1.610 . S
N457 S456 1.613 . S
N457 C460 1.350 . S
N458 S456 1.610 . S
N458 C459 1.351 . S
C459 C453 1.428 . S
C459 N458 1.351 . S
C459 C460 1.434 . S
C460 C451 1.429 . S
C460 N457 1.350 . S
C460 C459 1.434 . S
C461 C462 1.369 . S
C461 C463 1.419 . S
C461 H465 0.930 . S
C462 C461 1.369 . S
C462 C471 1.429 1_455 S
C463 C461 1.419 . S
C463 C464 1.363 1_455 S
C463 H466 0.929 . S
C464 C463 1.363 1_655 S
C464 C470 1.428 . S
H465 C461 0.930 . S
H466 C463 0.929 . S
S467 N468 1.613 . S
S467 N469 1.610 . S
N468 S467 1.613 . S
N468 C471 1.350 . S
N469 S467 1.610 . S
N469 C470 1.351 . S
C470 C464 1.428 . S
C470 N469 1.351 . S
C470 C471 1.434 . S
C471 C462 1.429 1_655 S
C471 N468 1.350 . S
C471 C470 1.434 . S
C472 C473 1.369 1_455 S
C472 C474 1.419 1_556 S
C472 H476 0.930 . S
C473 C472 1.369 1_655 S
C473 C482 1.429 1_565 S
C474 C472 1.419 1_554 S
C474 C475 1.363 1_565 S
C474 H477 0.929 . S
C475 C474 1.363 1_545 S
C475 C481 1.428 1_455 S
H476 C472 0.930 . S
H477 C474 0.929 . S
S478 N479 1.602 1_554 S
S478 N480 1.622 . S
N479 S478 1.602 1_556 S
N479 C482 1.350 . S
N480 S478 1.622 . S
N480 C481 1.351 . S
C481 C475 1.428 1_655 S
C481 N480 1.351 . S
C481 C482 1.434 1_554 S
C482 C473 1.429 1_545 S
C482 N479 1.350 . S
C482 C481 1.434 1_556 S
C483 C484 1.369 . S
C483 C485 1.419 1_556 S
C483 H487 0.930 . S
C484 C483 1.369 . S
C484 C493 1.429 1_545 S
C485 C483 1.419 1_554 S
C485 C486 1.363 1_545 S
C485 H488 0.929 . S
C486 C485 1.363 1_565 S
C486 C492 1.428 . S
H487 C483 0.930 . S
H488 C485 0.929 . S
S489 N490 1.613 . S
S489 N491 1.610 1_556 S
N490 S489 1.613 . S
N490 C493 1.350 . S
N491 S489 1.610 1_554 S
N491 C492 1.351 . S
C492 C486 1.428 . S
C492 N491 1.351 . S
C492 C493 1.434 1_554 S
C493 C484 1.429 1_565 S
C493 N490 1.350 . S
C493 C492 1.434 1_556 S
C494 C495 1.369 1_565 S
C494 C496 1.419 . S
C494 H498 0.930 . S
C495 C494 1.369 1_545 S
C495 C504 1.429 . S
C496 C494 1.419 . S
C496 C497 1.363 . S
C496 H499 0.929 . S
C497 C496 1.363 . S
C497 C503 1.428 1_565 S
H498 C494 0.930 . S
H499 C496 0.929 . S
S500 N501 1.613 . S
S500 N502 1.610 . S
N501 S500 1.613 . S
N501 C504 1.350 . S
N502 S500 1.610 . S
N502 C503 1.351 . S
C503 C497 1.428 1_545 S
C503 N502 1.351 . S
C503 C504 1.434 . S
C504 C495 1.429 . S
C504 N501 1.350 . S
C504 C503 1.434 . S
C505 C506 1.369 1_655 S
C505 C507 1.419 . S
C505 H509 0.930 . S
C506 C505 1.369 1_455 S
C506 C515 1.429 1_565 S
C507 C505 1.419 . S
C507 C508 1.363 1_565 S
C507 H510 0.929 . S
C508 C507 1.363 1_545 S
C508 C514 1.428 1_655 S
H509 C505 0.930 . S
H510 C507 0.929 . S
S511 N512 1.613 . S
S511 N513 1.610 . S
N512 S511 1.613 . S
N512 C515 1.350 . S
N513 S511 1.610 . S
N513 C514 1.351 . S
C514 C508 1.428 1_455 S
C514 N513 1.351 . S
C514 C515 1.434 . S
C515 C506 1.429 1_545 S
C515 N512 1.350 . S
C515 C514 1.434 . S
C516 C517 1.369 . S
C516 C518 1.419 1_554 S
C516 H520 0.930 . S
C517 C516 1.369 . S
C517 C526 1.429 . S
C518 C516 1.419 1_556 S
C518 C519 1.363 . S
C518 H521 0.929 . S
C519 C518 1.363 . S
C519 C525 1.428 . S
H520 C516 0.930 . S
H521 C518 0.929 . S
S522 N523 1.613 1_556 S
S522 N524 1.610 . S
N523 S522 1.613 1_554 S
N523 C526 1.350 . S
N524 S522 1.610 . S
N524 C525 1.351 . S
C525 C519 1.428 . S
C525 N524 1.351 . S
C525 C526 1.434 1_556 S
C526 C517 1.429 . S
C526 N523 1.350 . S
C526 C525 1.434 1_554 S
C527 C528 1.369 . S
C527 C529 1.419 1_554 S
C527 H531 0.930 . S
C528 C527 1.369 . S
C528 C537 1.429 1_655 S
C529 C527 1.419 1_556 S
C529 C530 1.363 1_655 S
C529 H532 0.929 . S
C530 C529 1.363 1_455 S
C530 C536 1.428 . S
H531 C527 0.930 . S
H532 C529 0.929 . S
S533 N534 1.613 . S
S533 N535 1.610 1_554 S
N534 S533 1.613 . S
N534 C537 1.350 . S
N535 S533 1.610 1_556 S
N535 C536 1.351 . S
C536 C530 1.428 . S
C536 N535 1.351 . S
C536 C537 1.434 1_556 S
C537 C528 1.429 1_455 S
C537 N534 1.350 . S
C537 C536 1.434 1_554 S
C538 C539 1.369 . S
C538 C540 1.419 . S
C538 H542 0.930 . S
C539 C538 1.369 . S
C539 C548 1.429 1_655 S
C540 C538 1.419 . S
C540 C541 1.363 1_655 S
C540 H543 0.929 . S
C541 C540 1.363 1_455 S
C541 C547 1.428 . S
H542 C538 0.930 . S
H543 C540 0.929 . S
S544 N545 1.613 . S
S544 N546 1.610 . S
N545 S544 1.613 . S
N545 C548 1.350 . S
N546 S544 1.610 . S
N546 C547 1.351 . S
C547 C541 1.428 . S
C547 N546 1.351 . S
C547 C548 1.434 . S
C548 C539 1.429 1_455 S
C548 N545 1.350 . S
C548 C547 1.434 . S
C549 C550 1.369 . S
C549 C551 1.419 . S
C549 H553 0.930 . S
C550 C549 1.369 . S
C550 C559 1.429 . S
C551 C549 1.419 . S
C551 C552 1.363 . S
C551 H554 0.929 . S
C552 C551 1.363 . S
C552 C558 1.428 . S
H553 C549 0.930 . S
H554 C551 0.929 . S
S555 N556 1.613 . S
S555 N557 1.610 . S
N556 S555 1.613 . S
N556 C559 1.350 . S
N557 S555 1.610 . S
N557 C558 1.351 . S
C558 C552 1.428 . S
C558 N557 1.351 . S
C558 C559 1.434 . S
C559 C550 1.429 . S
C559 N556 1.350 . S
C559 C558 1.434 . S
C209 C13 1.462 . S
C211 C0 1.460 . S
C220 C26 1.459 . S
C222 C39 1.461 . S
C231 C52 1.458 . S
C233 C65 1.461 . S
C242 C91 1.462 . S
C244 C78 1.461 . S
C253 C117 1.462 . S
C255 C104 1.458 . S
C264 C143 1.460 . S
C266 C130 1.461 . S
C275 C169 1.460 . S
C277 C156 1.461 . S
C286 C195 1.460 . S
C288 C182 1.456 . S
C297 C49 1.337 . S
C299 C10 1.337 . S
C308 C23 1.337 . S
C310 C36 1.337 . S
C319 C101 1.337 . S
C321 C62 1.337 . S
C330 C88 1.337 . S
C332 C75 1.337 . S
C341 C114 1.337 . S
C343 C153 1.337 . S
C352 C140 1.337 . S
C354 C127 1.337 . S
C363 C205 1.338 . S
C365 C166 1.337 . S
C374 C179 1.338 . S
C376 C192 1.338 . S
C385 C5 1.464 . S
C387 C122 1.457 . S
C396 C18 1.457 . S
C398 C109 1.460 . S
C407 C148 1.467 . S
C409 C31 1.460 . S
C418 C135 1.456 . S
C420 C44 1.462 . S
C429 C174 1.456 . S
C431 C57 1.463 . S
C440 C161 1.458 . S
C442 C70 1.460 . S
C451 C83 1.464 . S
C453 C200 1.457 . S
C462 C96 1.457 . S
C464 C187 1.461 . S
C473 C60 1.178 . S
C475 C8 1.166 . S
C484 C73 1.178 . S
C486 C21 1.165 . S
C495 C86 1.164 . S
C497 C34 1.177 . S
C506 C99 1.178 . S
C508 C47 1.166 . S
C517 C112 1.163 . S
C519 C164 1.177 . S
C528 C125 1.178 . S
C530 C177 1.165 . S
C539 C190 1.165 . S
C541 C138 1.175 . S
C550 C203 1.175 . S
C552 C151 1.167 . S
