# Generated by pormake.
# Topology ung, (4)-cn, num edge types: 1
# Building blocks:
#     Node 0, Type 0, BuildingBlock: NAWXER_clean_sbu_0, # of connection points: 4
#     Node 1, Type 0, BuildingBlock: NAWXER_clean_sbu_0, # of connection points: 4
#     Node 2, Type 0, BuildingBlock: NAWXER_clean_sbu_0, # of connection points: 4
#     Node 3, Type 0, BuildingBlock: NAWXER_clean_sbu_0, # of connection points: 4
#     Node 4, Type 0, BuildingBlock: NAWXER_clean_sbu_0, # of connection points: 4
#     Node 5, Type 0, BuildingBlock: NAWXER_clean_sbu_0, # of connection points: 4
#     Node 6, Type 0, BuildingBlock: NAWXER_clean_sbu_0, # of connection points: 4
#     Node 7, Type 0, BuildingBlock: NAWXER_clean_sbu_0, # of connection points: 4
#     Node 8, Type 0, BuildingBlock: NAWXER_clean_sbu_0, # of connection points: 4
#     Node 9, Type 0, BuildingBlock: NAWXER_clean_sbu_0, # of connection points: 4
#     Node 10, Type 0, BuildingBlock: NAWXER_clean_sbu_0, # of connection points: 4
#     Node 11, Type 0, BuildingBlock: NAWXER_clean_sbu_0, # of connection points: 4
#     Node 12, Type 0, BuildingBlock: NAWXER_clean_sbu_0, # of connection points: 4
#     Node 13, Type 0, BuildingBlock: NAWXER_clean_sbu_0, # of connection points: 4
#     Node 14, Type 0, BuildingBlock: NAWXER_clean_sbu_0, # of connection points: 4
#     Node 15, Type 0, BuildingBlock: NAWXER_clean_sbu_0, # of connection points: 4
#     Node 16, Type 0, BuildingBlock: NAWXER_clean_sbu_0, # of connection points: 4
#     Node 17, Type 0, BuildingBlock: NAWXER_clean_sbu_0, # of connection points: 4
#     Edge 18, Type (0, 0), BuildingBlock: MIFKUJ_clean_linker_0, # of connection points: 2
#     Edge 19, Type (0, 0), BuildingBlock: MIFKUJ_clean_linker_0, # of connection points: 2
#     Edge 20, Type (0, 0), BuildingBlock: MIFKUJ_clean_linker_0, # of connection points: 2
#     Edge 21, Type (0, 0), BuildingBlock: MIFKUJ_clean_linker_0, # of connection points: 2
#     Edge 22, Type (0, 0), BuildingBlock: MIFKUJ_clean_linker_0, # of connection points: 2
#     Edge 23, Type (0, 0), BuildingBlock: MIFKUJ_clean_linker_0, # of connection points: 2
#     Edge 24, Type (0, 0), BuildingBlock: MIFKUJ_clean_linker_0, # of connection points: 2
#     Edge 25, Type (0, 0), BuildingBlock: MIFKUJ_clean_linker_0, # of connection points: 2
#     Edge 26, Type (0, 0), BuildingBlock: MIFKUJ_clean_linker_0, # of connection points: 2
#     Edge 27, Type (0, 0), BuildingBlock: MIFKUJ_clean_linker_0, # of connection points: 2
#     Edge 28, Type (0, 0), BuildingBlock: MIFKUJ_clean_linker_0, # of connection points: 2
#     Edge 29, Type (0, 0), BuildingBlock: MIFKUJ_clean_linker_0, # of connection points: 2
#     Edge 30, Type (0, 0), BuildingBlock: MIFKUJ_clean_linker_0, # of connection points: 2
#     Edge 31, Type (0, 0), BuildingBlock: MIFKUJ_clean_linker_0, # of connection points: 2
#     Edge 32, Type (0, 0), BuildingBlock: MIFKUJ_clean_linker_0, # of connection points: 2
#     Edge 33, Type (0, 0), BuildingBlock: MIFKUJ_clean_linker_0, # of connection points: 2
#     Edge 34, Type (0, 0), BuildingBlock: MIFKUJ_clean_linker_0, # of connection points: 2
#     Edge 35, Type (0, 0), BuildingBlock: MIFKUJ_clean_linker_0, # of connection points: 2
#     Edge 36, Type (0, 0), BuildingBlock: MIFKUJ_clean_linker_0, # of connection points: 2
#     Edge 37, Type (0, 0), BuildingBlock: MIFKUJ_clean_linker_0, # of connection points: 2
#     Edge 38, Type (0, 0), BuildingBlock: MIFKUJ_clean_linker_0, # of connection points: 2
#     Edge 39, Type (0, 0), BuildingBlock: MIFKUJ_clean_linker_0, # of connection points: 2
#     Edge 40, Type (0, 0), BuildingBlock: MIFKUJ_clean_linker_0, # of connection points: 2
#     Edge 41, Type (0, 0), BuildingBlock: MIFKUJ_clean_linker_0, # of connection points: 2
#     Edge 42, Type (0, 0), BuildingBlock: MIFKUJ_clean_linker_0, # of connection points: 2
#     Edge 43, Type (0, 0), BuildingBlock: MIFKUJ_clean_linker_0, # of connection points: 2
#     Edge 44, Type (0, 0), BuildingBlock: MIFKUJ_clean_linker_0, # of connection points: 2
#     Edge 45, Type (0, 0), BuildingBlock: MIFKUJ_clean_linker_0, # of connection points: 2
#     Edge 46, Type (0, 0), BuildingBlock: MIFKUJ_clean_linker_0, # of connection points: 2
#     Edge 47, Type (0, 0), BuildingBlock: MIFKUJ_clean_linker_0, # of connection points: 2
#     Edge 48, Type (0, 0), BuildingBlock: MIFKUJ_clean_linker_0, # of connection points: 2
#     Edge 49, Type (0, 0), BuildingBlock: MIFKUJ_clean_linker_0, # of connection points: 2
#     Edge 50, Type (0, 0), BuildingBlock: MIFKUJ_clean_linker_0, # of connection points: 2
#     Edge 51, Type (0, 0), BuildingBlock: MIFKUJ_clean_linker_0, # of connection points: 2
#     Edge 52, Type (0, 0), BuildingBlock: MIFKUJ_clean_linker_0, # of connection points: 2
#     Edge 53, Type (0, 0), BuildingBlock: MIFKUJ_clean_linker_0, # of connection points: 2
# Relax obj value: 0.020
# Max RMSD: 0.247
# Mean RMSD: 0.247
data_MOF--net-ung--node1-NAWXER_clean_sbu_0--edge1-MIFKUJ_clean_linker_0
_symmetry_space_group_name_H-M    P1
_symmetry_Int_Tables_number       1
_symmetry_cell_setting            triclinic
loop_
_symmetry_equiv_pos_as_xyz
'x, y, z'
_cell_length_a     101.56539
_cell_length_b     101.50905
_cell_length_c     27.888131
_cell_angle_alpha  90.006843
_cell_angle_beta   90.010378
_cell_angle_gamma 120.03998
loop_
_atom_site_label
_atom_site_type_symbol
_atom_site_fract_x
_atom_site_fract_y
_atom_site_fract_z
_atom_type_partial_charge
C0 C 0.07874 0.63056 0.32255 0.0
C1 C 0.06454 0.65767 0.20878 0.0
O2 O 0.06606 0.62985 0.31572 0.0
Zn3 Zn 0.0721 0.64408 0.26401 0.0
O4 O 0.09019 0.63956 0.29639 0.0
Zn5 Zn 0.09411 0.65539 0.23759 0.0
O6 O 0.10956 0.67445 0.26191 0.0
O7 O 0.08751 0.66594 0.29845 0.0
O8 O 0.07871 0.6619 0.2048 0.0
O9 O 0.05637 0.64721 0.23821 0.0
O10 O 0.07639 0.63235 0.20604 0.0
O11 O 0.10026 0.64746 0.18531 0.0
C12 C 0.10153 0.67628 0.29307 0.0
C13 C 0.08781 0.63515 0.17932 0.0
C14 C 0.48833 0.50523 0.29803 0.0
C15 C 0.52882 0.53279 0.1821 0.0
O16 O 0.4903 0.51564 0.2688 0.0
Zn17 Zn 0.5089 0.51883 0.24139 0.0
O18 O 0.49838 0.50109 0.30071 0.0
Zn19 Zn 0.52006 0.50768 0.26531 0.0
O20 O 0.53453 0.5155 0.31667 0.0
O21 O 0.5252 0.53035 0.29902 0.0
O22 O 0.53154 0.52385 0.20747 0.0
O23 O 0.51671 0.53319 0.18964 0.0
O24 O 0.50181 0.49686 0.20721 0.0
O25 O 0.51652 0.48888 0.2384 0.0
C26 C 0.53415 0.52762 0.32428 0.0
C27 C 0.50588 0.48676 0.21 0.0
C28 C 0.65898 0.06327 0.29622 0.0
C29 C 0.63187 0.07765 0.18339 0.0
O30 O 0.64884 0.05529 0.26567 0.0
Zn31 Zn 0.64548 0.07098 0.24158 0.0
O32 O 0.66287 0.07734 0.30161 0.0
Zn33 Zn 0.65638 0.09286 0.26895 0.0
O34 O 0.64817 0.09869 0.32124 0.0
O35 O 0.63351 0.07474 0.3003 0.0
O36 O 0.64061 0.089 0.21026 0.0
O37 O 0.63143 0.06506 0.1894 0.0
O38 O 0.66746 0.08661 0.20871 0.0
O39 O 0.6754 0.10862 0.24482 0.0
C40 C 0.63605 0.08606 0.32721 0.0
C41 C 0.6776 0.1007 0.21414 0.0
C42 C 0.06549 0.48671 0.70942 0.0
C43 C 0.07914 0.52805 0.82229 0.0
O44 O 0.0796 0.49687 0.70481 0.0
Zn45 Zn 0.09493 0.51892 0.7383 0.0
O46 O 0.05735 0.48888 0.73928 0.0
Zn47 Zn 0.07286 0.50783 0.76406 0.0
O48 O 0.07701 0.52365 0.70528 0.0
O49 O 0.1011 0.53305 0.68611 0.0
O50 O 0.06663 0.51583 0.8159 0.0
O51 O 0.09061 0.53075 0.796 0.0
O52 O 0.11059 0.51583 0.76475 0.0
O53 O 0.08815 0.50129 0.7979 0.0
C54 C 0.0885 0.5325 0.6791 0.0
C55 C 0.10233 0.50546 0.79432 0.0
C56 C 0.659 0.67662 0.79434 0.0
C57 C 0.63215 0.63492 0.68187 0.0
O58 O 0.66288 0.66647 0.80031 0.0
Zn59 Zn 0.65665 0.64452 0.76772 0.0
O60 O 0.64904 0.67444 0.7631 0.0
Zn61 Zn 0.6457 0.65533 0.73963 0.0
O62 O 0.63375 0.63967 0.79862 0.0
O63 O 0.64848 0.63052 0.81993 0.0
O64 O 0.63164 0.64704 0.68761 0.0
O65 O 0.64093 0.63242 0.70892 0.0
O66 O 0.67577 0.64796 0.74428 0.0
O67 O 0.66757 0.66154 0.70652 0.0
C68 C 0.63633 0.63096 0.82572 0.0
C69 C 0.67781 0.65778 0.71267 0.0
C70 C 0.52847 0.07634 0.68402 0.0
C71 C 0.48755 0.06297 0.79881 0.0
O72 O 0.53109 0.08792 0.7097 0.0
Zn73 Zn 0.51946 0.09232 0.76788 0.0
O74 O 0.51642 0.06374 0.69134 0.0
Zn75 Zn 0.50844 0.0701 0.74305 0.0
O76 O 0.50175 0.08524 0.70851 0.0
O77 O 0.51599 0.10771 0.7419 0.0
O78 O 0.48963 0.05458 0.76967 0.0
O79 O 0.49763 0.07715 0.80203 0.0
O80 O 0.53377 0.09878 0.81963 0.0
O81 O 0.52455 0.07466 0.80104 0.0
C82 C 0.50568 0.09937 0.71224 0.0
C83 C 0.5334 0.08627 0.82681 0.0
C84 C 0.74469 0.96429 0.65789 0.0
C85 C 0.73071 0.99104 0.54218 0.0
O86 O 0.73199 0.96347 0.6502 0.0
Zn87 Zn 0.73822 0.97772 0.59859 0.0
O88 O 0.75624 0.97331 0.63217 0.0
Zn89 Zn 0.76023 0.98878 0.57236 0.0
O90 O 0.77561 0.00807 0.5956 0.0
O91 O 0.75363 0.9996 0.63264 0.0
O92 O 0.74477 0.99489 0.5375 0.0
O93 O 0.72266 0.98111 0.57321 0.0
O94 O 0.74242 0.96585 0.54059 0.0
O95 O 0.76657 0.98045 0.52188 0.0
C96 C 0.76761 0.00996 0.62675 0.0
C97 C 0.75399 0.96835 0.5151 0.0
C98 C 0.15491 0.83731 0.63362 0.0
C99 C 0.19607 0.86431 0.51912 0.0
O100 O 0.15686 0.84735 0.60291 0.0
Zn101 Zn 0.17589 0.85077 0.57792 0.0
O102 O 0.16518 0.83354 0.63858 0.0
Zn103 Zn 0.18706 0.84006 0.60534 0.0
O104 O 0.20121 0.84848 0.6572 0.0
O105 O 0.19177 0.86297 0.63607 0.0
O106 O 0.19876 0.85566 0.54614 0.0
O107 O 0.1839 0.86469 0.52522 0.0
O108 O 0.1695 0.82867 0.54573 0.0
O109 O 0.18371 0.82095 0.58206 0.0
C110 C 0.20065 0.86058 0.66292 0.0
C111 C 0.17346 0.81857 0.55165 0.0
C112 C 0.34386 0.43222 0.541 0.0
C113 C 0.30312 0.41915 0.65604 0.0
O114 O 0.34165 0.44076 0.56907 0.0
Zn115 Zn 0.32306 0.42528 0.59677 0.0
O116 O 0.33397 0.41796 0.5388 0.0
Zn117 Zn 0.31208 0.4029 0.57305 0.0
O118 O 0.29771 0.39625 0.52116 0.0
O119 O 0.30682 0.42038 0.53923 0.0
O120 O 0.30051 0.40751 0.6307 0.0
O121 O 0.31513 0.43175 0.64839 0.0
O122 O 0.33004 0.41043 0.63183 0.0
O123 O 0.3155 0.38763 0.60071 0.0
C124 C 0.29798 0.40871 0.51374 0.0
C125 C 0.32599 0.39625 0.62946 0.0
C126 C 0.76865 0.83913 0.12703 0.0
C127 C 0.75403 0.86583 0.01363 0.0
O128 O 0.75463 0.83531 0.13326 0.0
Zn129 Zn 0.73894 0.84151 0.09969 0.0
O130 O 0.77642 0.849 0.09553 0.0
Zn131 Zn 0.76072 0.85234 0.0721 0.0
O132 O 0.75706 0.86441 0.13076 0.0
O133 O 0.73301 0.84995 0.15085 0.0
O134 O 0.76667 0.86643 0.02011 0.0
O135 O 0.74265 0.85698 0.04017 0.0
O136 O 0.72318 0.82238 0.07646 0.0
O137 O 0.74506 0.83028 0.03963 0.0
C138 C 0.74566 0.86202 0.15701 0.0
C139 C 0.731 0.82013 0.04557 0.0
C140 C 0.32577 0.00906 0.13513 0.0
C141 C 0.29814 0.96828 0.02022 0.0
O142 O 0.3301 0.99914 0.1377 0.0
Zn143 Zn 0.32325 0.9772 0.1035 0.0
O144 O 0.31509 0.00683 0.10676 0.0
Zn145 Zn 0.31199 0.98822 0.0795 0.0
O146 O 0.30051 0.97199 0.13717 0.0
O147 O 0.31545 0.96283 0.15534 0.0
O148 O 0.29764 0.98033 0.02776 0.0
O149 O 0.30709 0.96561 0.0457 0.0
O150 O 0.34191 0.98048 0.07619 0.0
O151 O 0.3339 0.99518 0.04484 0.0
C152 C 0.30329 0.96313 0.16271 0.0
C153 C 0.34395 0.99102 0.04744 0.0
C154 C 0.1732 0.4327 0.04261 0.0
C155 C 0.20015 0.41837 0.15659 0.0
O156 O 0.16902 0.41852 0.03849 0.0
Zn157 Zn 0.17541 0.40303 0.07166 0.0
O158 O 0.18356 0.44085 0.07238 0.0
Zn159 Zn 0.18664 0.4251 0.09806 0.0
O160 O 0.19835 0.42086 0.03992 0.0
O161 O 0.18345 0.39692 0.01943 0.0
O162 O 0.20078 0.43104 0.15014 0.0
O163 O 0.19123 0.40698 0.13014 0.0
O164 O 0.15636 0.38756 0.09663 0.0
O165 O 0.16469 0.40981 0.13164 0.0
C166 C 0.19566 0.40945 0.01329 0.0
C167 C 0.1544 0.39574 0.12696 0.0
C168 C 0.41002 0.2962 0.994 0.0
C169 C 0.39714 0.32428 0.87987 0.0
O170 O 0.39748 0.29575 0.98669 0.0
Zn171 Zn 0.404 0.3103 0.93539 0.0
O172 O 0.42166 0.30525 0.96876 0.0
Zn173 Zn 0.42638 0.32163 0.91169 0.0
O174 O 0.44168 0.34027 0.93974 0.0
O175 O 0.41887 0.33207 0.97056 0.0
O176 O 0.41136 0.3285 0.87738 0.0
O177 O 0.38861 0.31361 0.90819 0.0
O178 O 0.40883 0.29903 0.87734 0.0
O179 O 0.433 0.31397 0.85965 0.0
C180 C 0.43307 0.34218 0.96837 0.0
C181 C 0.42049 0.30185 0.8519 0.0
C182 C 0.82101 0.17213 0.96269 0.0
C183 C 0.86229 0.19885 0.84869 0.0
O184 O 0.82315 0.18216 0.93172 0.0
Zn185 Zn 0.84211 0.18541 0.90738 0.0
O186 O 0.83115 0.16819 0.96806 0.0
Zn187 Zn 0.853 0.17441 0.9344 0.0
O188 O 0.86741 0.18274 0.98558 0.0
O189 O 0.85795 0.19733 0.96582 0.0
O190 O 0.86475 0.1899 0.875 0.0
O191 O 0.85034 0.19959 0.85546 0.0
O192 O 0.8356 0.16338 0.87442 0.0
O193 O 0.84949 0.15529 0.91081 0.0
C194 C 0.86692 0.19485 0.99192 0.0
C195 C 0.83942 0.15316 0.88004 0.0
C196 C 0.99209 0.72939 0.96362 0.0
C197 C 0.96479 0.74283 0.8483 0.0
O198 O 0.98158 0.72102 0.93458 0.0
Zn199 Zn 0.97848 0.73659 0.90756 0.0
O200 O 0.99634 0.7436 0.96655 0.0
Zn201 Zn 0.98987 0.75884 0.93207 0.0
O202 O 0.98222 0.76549 0.98387 0.0
O203 O 0.96703 0.74143 0.96525 0.0
O204 O 0.97379 0.75444 0.87384 0.0
O205 O 0.96419 0.73022 0.85588 0.0
O206 O 1.00033 0.75151 0.87279 0.0
O207 O 0.00884 0.77404 0.90604 0.0
C208 C 0.96996 0.75308 0.99102 0.0
C209 C 0.01068 0.7656 0.87647 0.0
C210 C 0.39723 0.15324 0.38083 0.0
C211 C 0.41122 0.19433 0.49546 0.0
O212 O 0.41137 0.16336 0.37686 0.0
Zn213 Zn 0.42674 0.18519 0.41056 0.0
O214 O 0.38901 0.1553 0.41069 0.0
Zn215 Zn 0.40463 0.17418 0.43659 0.0
O216 O 0.40885 0.19013 0.37849 0.0
O217 O 0.43287 0.19943 0.35861 0.0
O218 O 0.39859 0.18227 0.48872 0.0
O219 O 0.42265 0.1969 0.46914 0.0
O220 O 0.44221 0.18163 0.43558 0.0
O221 O 0.41991 0.16753 0.47005 0.0
C222 C 0.42028 0.19896 0.35213 0.0
C223 C 0.43399 0.17137 0.46556 0.0
C224 C 0.99312 0.3427 0.46186 0.0
C225 C 0.96504 0.30107 0.35018 0.0
O226 O 0.99703 0.33252 0.46656 0.0
Zn227 Zn 0.99033 0.31049 0.43316 0.0
O228 O 0.98278 0.34052 0.43205 0.0
Zn229 Zn 0.97919 0.32146 0.40772 0.0
O230 O 0.96787 0.30594 0.46724 0.0
O231 O 0.98241 0.29626 0.48518 0.0
O232 O 0.9645 0.31312 0.35723 0.0
O233 O 0.97418 0.29861 0.37543 0.0
O234 O 0.00918 0.31384 0.40717 0.0
O235 O 1.00088 0.32785 0.37275 0.0
C236 C 0.97049 0.29699 0.49296 0.0
C237 C 0.01109 0.32396 0.37683 0.0
C238 C 0.83972 0.76704 0.3806 0.0
C239 C 0.86642 0.75171 0.49194 0.0
O240 O 0.83609 0.75313 0.3732 0.0
Zn241 Zn 0.8423 0.73729 0.40479 0.0
O242 O 0.84946 0.77463 0.41267 0.0
Zn243 Zn 0.85296 0.75879 0.43462 0.0
O244 O 0.86531 0.75566 0.3754 0.0
O245 O 0.85064 0.73194 0.35209 0.0
O246 O 0.86677 0.7643 0.48715 0.0
O247 O 0.85785 0.74059 0.464 0.0
O248 O 0.82308 0.72131 0.4266 0.0
O249 O 0.83096 0.74273 0.4663 0.0
C250 C 0.86282 0.74458 0.34733 0.0
C251 C 0.82081 0.72877 0.45874 0.0
H252 H 0.10304 0.55675 0.83977 0.0
H253 H 0.10451 0.57493 0.90023 0.0
H254 H 0.05948 0.54236 0.94969 0.0
H255 H 0.05779 0.52432 0.88881 0.0
H256 H 0.06213 0.56945 0.94306 0.0
H257 H 0.09207 0.54973 0.01248 0.0
H258 H 0.1125 0.54333 0.01467 0.0
H259 H 0.146 0.59046 0.99613 0.0
H260 H 0.12574 0.59712 0.99319 0.0
H261 H 0.06397 0.60638 0.16232 0.0
H262 H 0.0625 0.58815 0.10206 0.0
H263 H 0.10741 0.62077 0.05189 0.0
H264 H 0.1091 0.63889 0.11255 0.0
H265 H 0.1048 0.59363 0.05899 0.0
H266 H 0.07474 0.61329 0.98956 0.0
H267 H 0.05424 0.61959 0.9876 0.0
H268 H 0.02088 0.57243 0.00655 0.0
H269 H 0.04121 0.56587 0.00925 0.0
C270 C 0.09347 0.55345 0.86361 0.0
C271 C 0.08031 0.53906 0.85947 0.0
C272 C 0.09434 0.56383 0.89831 0.0
C273 C 0.08216 0.55997 0.92996 0.0
C274 C 0.06902 0.54563 0.92573 0.0
C275 C 0.0681 0.53529 0.89093 0.0
C276 C 0.08298 0.5709 0.96713 0.0
C277 C 0.07137 0.57458 0.9688 0.0
C278 C 0.09518 0.57787 1.00015 0.0
C279 C 0.10738 0.5739 1.00215 0.0
C280 C 0.10378 0.55871 0.00852 0.0
C281 C 0.11533 0.55504 0.00996 0.0
C282 C 0.13053 0.56647 0.00542 0.0
C283 C 0.13422 0.58161 0.99958 0.0
C284 C 0.12271 0.58535 0.99807 0.0
C285 C 0.07351 0.60969 0.13836 0.0
C286 C 0.08663 0.62412 0.14223 0.0
C287 C 0.07264 0.59927 0.10378 0.0
C288 C 0.08479 0.60313 0.07199 0.0
C289 C 0.0979 0.61751 0.07596 0.0
C290 C 0.09882 0.62788 0.11063 0.0
C291 C 0.08396 0.59219 0.03491 0.0
C292 C 0.09556 0.5885 0.03325 0.0
C293 C 0.07174 0.58519 1.00194 0.0
C294 C 0.05951 0.58911 1.00007 0.0
C295 C 0.06304 0.60428 0.99365 0.0
C296 C 0.05145 0.6079 0.99235 0.0
C297 C 0.03627 0.59643 0.99707 0.0
C298 C 0.03265 0.58131 1.00296 0.0
C299 C 0.0442 0.57763 0.00434 0.0
H300 H 0.02732 0.59925 0.99606 0.0
H301 H 0.13946 0.56361 0.00654 0.0
H302 H 0.60919 0.62908 0.84973 0.0
H303 H 0.59084 0.6126 0.9103 0.0
H304 H 0.62 0.5945 0.94635 0.0
H305 H 0.63827 0.61076 0.88585 0.0
H306 H 0.59102 0.57209 0.9378 0.0
H307 H 0.61771 0.62018 0.01881 0.0
H308 H 0.62786 0.64774 0.02896 0.0
H309 H 0.58258 0.64081 0.02348 0.0
H310 H 0.57217 0.61322 0.01259 0.0
H311 H 0.55606 0.53521 0.15676 0.0
H312 H 0.57415 0.55202 0.09636 0.0
H313 H 0.54448 0.56973 0.06292 0.0
H314 H 0.52645 0.55313 0.12355 0.0
H315 H 0.57347 0.59238 0.06962 0.0
H316 H 0.54683 0.54417 0.989 0.0
H317 H 0.53684 0.51664 0.9787 0.0
H318 H 0.58225 0.52387 0.98359 0.0
H319 H 0.5925 0.55144 0.99459 0.0
C320 C 0.61171 0.62162 0.87064 0.0
C321 C 0.62523 0.62128 0.86293 0.0
C322 C 0.60123 0.61224 0.90537 0.0
C323 C 0.60409 0.60237 0.93316 0.0
C324 C 0.61753 0.60199 0.92536 0.0
C325 C 0.628 0.61136 0.89079 0.0
C326 C 0.59303 0.59231 0.97003 0.0
C327 C 0.58732 0.57655 0.96696 0.0
C328 C 0.58795 0.59807 0.00753 0.0
C329 C 0.59417 0.61465 0.01438 0.0
C330 C 0.60993 0.62454 0.01939 0.0
C331 C 0.61573 0.64017 0.02534 0.0
C332 C 0.60588 0.64603 0.02673 0.0
C333 C 0.5902 0.63626 0.02232 0.0
C334 C 0.58434 0.62063 0.01629 0.0
C335 C 0.55336 0.54265 0.1365 0.0
C336 C 0.53976 0.54276 0.14495 0.0
C337 C 0.5637 0.55224 0.10185 0.0
C338 C 0.56062 0.56206 0.07473 0.0
C339 C 0.54711 0.56227 0.08336 0.0
C340 C 0.53678 0.5527 0.11796 0.0
C341 C 0.57148 0.57216 0.03745 0.0
C342 C 0.57714 0.58792 0.04043 0.0
C343 C 0.57655 0.56641 0.99988 0.0
C344 C 0.57042 0.54985 0.99309 0.0
C345 C 0.55468 0.53988 0.98825 0.0
C346 C 0.54897 0.52427 0.98222 0.0
C347 C 0.5589 0.51851 0.98062 0.0
C348 C 0.57457 0.52835 0.98491 0.0
C349 C 0.58033 0.54397 0.991 0.0
H350 H 0.55446 0.50642 0.97594 0.0
H351 H 0.61039 0.65813 0.03132 0.0
H352 H 0.62941 0.10268 0.16068 0.0
H353 H 0.6126 0.10435 0.10087 0.0
H354 H 0.59562 0.05742 0.06217 0.0
H355 H 0.61217 0.0556 0.12191 0.0
H356 H 0.61058 0.10051 0.00425 0.0
H357 H 0.5581 0.04076 0.03391 0.0
H358 H 0.54599 0.02202 0.09903 0.0
H359 H 0.56583 0.05785 0.20353 0.0
H360 H 0.57787 0.07681 0.13904 0.0
H361 H 0.53606 0.06149 0.85119 0.0
H362 H 0.55297 0.06023 0.91138 0.0
H363 H 0.56987 0.10734 0.94728 0.0
H364 H 0.55321 0.10876 0.887 0.0
H365 H 0.55496 0.06438 0.00716 0.0
H366 H 0.60735 0.12415 0.97718 0.0
H367 H 0.6195 0.14281 0.9119 0.0
H368 H 0.59988 0.10685 0.8078 0.0
H369 H 0.5878 0.08796 0.87245 0.0
C370 C 0.6221 0.09272 0.13942 0.0
C371 C 0.6221 0.07899 0.14633 0.0
C372 C 0.61252 0.0937 0.10518 0.0
C373 C 0.60269 0.08095 0.07745 0.0
C374 C 0.60289 0.06734 0.08369 0.0
C375 C 0.61244 0.06634 0.1178 0.0
C376 C 0.59223 0.08183 0.0419 0.0
C377 C 0.59839 0.09276 0.00531 0.0
C378 C 0.57635 0.07147 0.04254 0.0
C379 C 0.56901 0.06018 0.08162 0.0
C380 C 0.55983 0.04464 0.07077 0.0
C381 C 0.55298 0.03398 0.10758 0.0
C382 C 0.55518 0.03874 0.15539 0.0
C383 C 0.56418 0.05417 0.16649 0.0
C384 C 0.57104 0.06488 0.12983 0.0
C385 C 0.54338 0.07158 0.87188 0.0
C386 C 0.54332 0.08524 0.86404 0.0
C387 C 0.55302 0.07083 0.90636 0.0
C388 C 0.56284 0.08374 0.93346 0.0
C389 C 0.5626 0.09731 0.92626 0.0
C390 C 0.553 0.09807 0.89185 0.0
C391 C 0.57331 0.08304 0.96943 0.0
C392 C 0.56714 0.07214 0.00612 0.0
C393 C 0.58918 0.09342 0.96885 0.0
C394 C 0.59654 0.10466 0.92968 0.0
C395 C 0.60568 0.12022 0.94037 0.0
C396 C 0.61255 0.13084 0.90347 0.0
C397 C 0.61042 0.12602 0.85573 0.0
C398 C 0.60147 0.11057 0.84478 0.0
C399 C 0.59459 0.09991 0.88154 0.0
H400 H 0.61574 0.13426 0.82722 0.0
H401 H 0.54988 0.03047 0.18383 0.0
H402 H 0.63823 0.10801 0.38881 0.0
H403 H 0.61991 0.10596 0.44905 0.0
H404 H 0.59034 0.05891 0.41087 0.0
H405 H 0.60859 0.06092 0.34971 0.0
H406 H 0.57449 0.07348 0.42076 0.0
H407 H 0.61148 0.06871 0.51407 0.0
H408 H 0.63717 0.07603 0.54324 0.0
H409 H 0.6426 0.11807 0.59738 0.0
H410 H 0.61702 0.1111 0.56792 0.0
H411 H 0.52594 0.054 0.62338 0.0
H412 H 0.54408 0.05564 0.56299 0.0
H413 H 0.57398 0.10281 0.5991 0.0
H414 H 0.55592 0.10122 0.66024 0.0
H415 H 0.58957 0.08789 0.5904 0.0
H416 H 0.55265 0.09273 0.49659 0.0
H417 H 0.52697 0.08542 0.46738 0.0
H418 H 0.5214 0.04322 0.41425 0.0
H419 H 0.54698 0.05018 0.44375 0.0
C420 C 0.62786 0.09718 0.39321 0.0
C421 C 0.62493 0.0846 0.36444 0.0
C422 C 0.6174 0.09602 0.4279 0.0
C423 C 0.60381 0.08223 0.43501 0.0
C424 C 0.60077 0.06966 0.40615 0.0
C425 C 0.61124 0.07082 0.3713 0.0
C426 C 0.59271 0.08105 0.47208 0.0
C427 C 0.57773 0.07641 0.458 0.0
C428 C 0.597 0.08524 0.5205 0.0
C429 C 0.61238 0.08944 0.53838 0.0
C430 C 0.6182 0.07957 0.53186 0.0
C431 C 0.63273 0.08365 0.54851 0.0
C432 C 0.64153 0.09752 0.57204 0.0
C433 C 0.63579 0.10734 0.57909 0.0
C434 C 0.62126 0.10332 0.56247 0.0
C435 C 0.53635 0.06476 0.61848 0.0
C436 C 0.53943 0.0775 0.64665 0.0
C437 C 0.5467 0.06569 0.58372 0.0
C438 C 0.56034 0.07939 0.57604 0.0
C439 C 0.56352 0.09212 0.60429 0.0
C440 C 0.55315 0.0912 0.63913 0.0
C441 C 0.57137 0.08035 0.53906 0.0
C442 C 0.58633 0.08495 0.55317 0.0
C443 C 0.56705 0.07612 0.49068 0.0
C444 C 0.55168 0.07192 0.47281 0.0
C445 C 0.54591 0.08183 0.47903 0.0
C446 C 0.53137 0.07776 0.46235 0.0
C447 C 0.52254 0.06385 0.43909 0.0
C448 C 0.52824 0.05399 0.43234 0.0
C449 C 0.54276 0.05799 0.44899 0.0
H450 H 0.5113 0.06072 0.4262 0.0
H451 H 0.65278 0.10066 0.5849 0.0
H452 H 0.10412 0.62912 0.34834 0.0
H453 H 0.10593 0.61263 0.40894 0.0
H454 H 0.05824 0.59337 0.44105 0.0
H455 H 0.05639 0.60994 0.38137 0.0
H456 H 0.07403 0.5989 0.5216 0.0
H457 H 0.0715 0.57426 0.3719 0.0
H458 H 0.07939 0.57257 0.28955 0.0
H459 H 0.12355 0.58342 0.34097 0.0
H460 H 0.11599 0.58538 0.42358 0.0
H461 H 0.06327 0.53411 0.6528 0.0
H462 H 0.06165 0.55067 0.59213 0.0
H463 H 0.10936 0.56973 0.56073 0.0
H464 H 0.11101 0.55306 0.62051 0.0
H465 H 0.09369 0.5644 0.47992 0.0
H466 H 0.09617 0.58895 0.62971 0.0
H467 H 0.08825 0.59058 0.71205 0.0
H468 H 0.04415 0.57988 0.66044 0.0
H469 H 0.05174 0.57797 0.57784 0.0
C470 C 0.09402 0.6214 0.36836 0.0
C471 C 0.0801 0.62084 0.35981 0.0
C472 C 0.09506 0.61192 0.40288 0.0
C473 C 0.08217 0.6016 0.42925 0.0
C474 C 0.06834 0.60121 0.42122 0.0
C475 C 0.0673 0.61068 0.3869 0.0
C476 C 0.08302 0.59118 0.46517 0.0
C477 C 0.07816 0.59123 0.5123 0.0
C478 C 0.08869 0.58136 0.45344 0.0
C479 C 0.09323 0.58012 0.40384 0.0
C480 C 0.08293 0.5764 0.36559 0.0
C481 C 0.08734 0.57537 0.31888 0.0
C482 C 0.10198 0.57793 0.31002 0.0
C483 C 0.11222 0.58147 0.34788 0.0
C484 C 0.10788 0.58253 0.39466 0.0
C485 C 0.07341 0.5418 0.63292 0.0
C486 C 0.08728 0.54227 0.64171 0.0
C487 C 0.07248 0.55132 0.59836 0.0
C488 C 0.08543 0.56161 0.57219 0.0
C489 C 0.09921 0.56192 0.58041 0.0
C490 C 0.10014 0.55238 0.61478 0.0
C491 C 0.08469 0.57211 0.53633 0.0
C492 C 0.08957 0.57208 0.48922 0.0
C493 C 0.07903 0.58194 0.54807 0.0
C494 C 0.07448 0.58317 0.59766 0.0
C495 C 0.08474 0.58683 0.63597 0.0
C496 C 0.08032 0.58783 0.68268 0.0
C497 C 0.06569 0.5853 0.69149 0.0
C498 C 0.05547 0.58182 0.65357 0.0
C499 C 0.05983 0.58079 0.6068 0.0
H500 H 0.06228 0.58607 0.72767 0.0
H501 H 0.10536 0.57713 0.27383 0.0
H502 H 0.629 0.60696 0.66188 0.0
H503 H 0.61247 0.5885 0.60162 0.0
H504 H 0.59698 0.61921 0.55752 0.0
H505 H 0.61323 0.63754 0.6179 0.0
H506 H 0.57356 0.59113 0.56591 0.0
H507 H 0.62271 0.61432 0.49046 0.0
H508 H 0.64998 0.62251 0.48461 0.0
H509 H 0.63952 0.57611 0.4979 0.0
H510 H 0.61219 0.56767 0.50449 0.0
H511 H 0.53779 0.55559 0.34642 0.0
H512 H 0.55452 0.57357 0.40725 0.0
H513 H 0.56959 0.54224 0.44778 0.0
H514 H 0.55315 0.52436 0.38653 0.0
H515 H 0.59317 0.57024 0.44214 0.0
H516 H 0.54399 0.54699 0.51671 0.0
H517 H 0.51673 0.53881 0.52284 0.0
H518 H 0.52723 0.58527 0.51154 0.0
H519 H 0.55455 0.59371 0.50469 0.0
C520 C 0.62211 0.6098 0.63925 0.0
C521 C 0.62248 0.62376 0.64474 0.0
C522 C 0.61269 0.59925 0.60469 0.0
C523 C 0.60355 0.60251 0.57469 0.0
C524 C 0.6039 0.61641 0.58022 0.0
C525 C 0.61326 0.62692 0.61474 0.0
C526 C 0.59346 0.59141 0.53786 0.0
C527 C 0.57789 0.5867 0.53849 0.0
C528 C 0.59901 0.58534 0.50271 0.0
C529 C 0.61542 0.59039 0.49846 0.0
C530 C 0.62624 0.60588 0.4925 0.0
C531 C 0.6417 0.61056 0.48899 0.0
C532 C 0.64648 0.59984 0.49102 0.0
C533 C 0.6358 0.58441 0.49641 0.0
C534 C 0.62032 0.57967 0.5 0.0
C535 C 0.54463 0.55251 0.36834 0.0
C536 C 0.54408 0.5385 0.36163 0.0
C537 C 0.55416 0.56278 0.40326 0.0
C538 C 0.56321 0.5592 0.43255 0.0
C539 C 0.56273 0.54527 0.42568 0.0
C540 C 0.55327 0.53503 0.39069 0.0
C541 C 0.57327 0.57 0.47008 0.0
C542 C 0.58883 0.57464 0.4696 0.0
C543 C 0.56772 0.57601 0.50541 0.0
C544 C 0.5513 0.57097 0.50972 0.0
C545 C 0.54048 0.55545 0.51517 0.0
C546 C 0.52502 0.55077 0.51884 0.0
C547 C 0.52025 0.56151 0.51746 0.0
C548 C 0.53094 0.57696 0.51254 0.0
C549 C 0.54641 0.5817 0.50881 0.0
H550 H 0.50828 0.55786 0.5203 0.0
H551 H 0.65846 0.60349 0.48831 0.0
H552 H 0.72262 0.86323 0.20317 0.0
H553 H 0.72454 0.88175 0.26267 0.0
H554 H 0.77346 0.90483 0.25339 0.0
H555 H 0.77165 0.88635 0.19313 0.0
H556 H 0.76237 0.89971 0.34834 0.0
H557 H 0.75681 0.92173 0.20393 0.0
H558 H 0.74552 0.92261 0.12674 0.0
H559 H 0.70314 0.90986 0.19683 0.0
H560 H 0.71422 0.90887 0.27463 0.0
H561 H 0.77732 0.9674 0.46983 0.0
H562 H 0.77575 0.94909 0.41004 0.0
H563 H 0.72679 0.92574 0.4175 0.0
H564 H 0.72825 0.94401 0.47796 0.0
H565 H 0.73811 0.93117 0.32316 0.0
H566 H 0.74366 0.90896 0.46749 0.0
H567 H 0.75497 0.90803 0.54459 0.0
H568 H 0.79744 0.92118 0.47453 0.0
H569 H 0.78634 0.9222 0.39681 0.0
C570 C 0.73382 0.87224 0.21369 0.0
C571 C 0.747 0.8733 0.19337 0.0
C572 C 0.73488 0.88286 0.24758 0.0
C573 C 0.74913 0.89473 0.26222 0.0
C574 C 0.76234 0.89577 0.24248 0.0
C575 C 0.76129 0.88523 0.20801 0.0
C576 C 0.75011 0.90585 0.2987 0.0
C577 C 0.75729 0.90677 0.34254 0.0
C578 C 0.74311 0.91476 0.29165 0.0
C579 C 0.73629 0.91507 0.24498 0.0
C580 C 0.74504 0.91896 0.20281 0.0
C581 C 0.73868 0.91952 0.15895 0.0
C582 C 0.72359 0.91622 0.15679 0.0
C583 C 0.71483 0.91239 0.19855 0.0
C584 C 0.72115 0.91186 0.24256 0.0
C585 C 0.76619 0.95838 0.45885 0.0
C586 C 0.75289 0.95717 0.4787 0.0
C587 C 0.76533 0.94787 0.42479 0.0
C588 C 0.75117 0.936 0.40954 0.0
C589 C 0.73784 0.93482 0.42886 0.0
C590 C 0.73869 0.94523 0.46347 0.0
C591 C 0.75036 0.92501 0.37283 0.0
C592 C 0.74321 0.92411 0.32894 0.0
C593 C 0.75739 0.91614 0.37982 0.0
C594 C 0.76422 0.91582 0.42647 0.0
C595 C 0.75546 0.91181 0.4686 0.0
C596 C 0.76182 0.91123 0.51241 0.0
C597 C 0.77695 0.91462 0.51456 0.0
C598 C 0.78573 0.91858 0.47283 0.0
C599 C 0.7794 0.91912 0.42886 0.0
H600 H 0.78184 0.91411 0.54848 0.0
H601 H 0.7187 0.91671 0.12282 0.0
H602 H 0.22354 0.86679 0.49618 0.0
H603 H 0.24201 0.8836 0.43636 0.0
H604 H 0.21207 0.90055 0.39775 0.0
H605 H 0.1937 0.88398 0.45752 0.0
H606 H 0.24026 0.88568 0.3397 0.0
H607 H 0.23299 0.93812 0.36964 0.0
H608 H 0.22633 0.95018 0.43482 0.0
H609 H 0.24228 0.93031 0.53923 0.0
H610 H 0.24923 0.91832 0.47469 0.0
H611 H 0.27584 0.96038 0.18731 0.0
H612 H 0.25768 0.94339 0.24738 0.0
H613 H 0.28789 0.92649 0.28276 0.0
H614 H 0.30597 0.94324 0.22256 0.0
H615 H 0.25979 0.94132 0.34302 0.0
H616 H 0.26718 0.88898 0.31283 0.0
H617 H 0.27375 0.87689 0.24753 0.0
H618 H 0.25745 0.8965 0.14342 0.0
H619 H 0.25059 0.90853 0.20809 0.0
C620 C 0.22088 0.87408 0.47493 0.0
C621 C 0.20715 0.87407 0.48189 0.0
C622 C 0.23144 0.88367 0.44066 0.0
C623 C 0.22853 0.89349 0.41295 0.0
C624 C 0.21471 0.89327 0.41923 0.0
C625 C 0.20417 0.88372 0.45336 0.0
C626 C 0.2399 0.904 0.37744 0.0
C627 C 0.24471 0.89787 0.34085 0.0
C628 C 0.24544 0.91988 0.37819 0.0
C629 C 0.24148 0.9272 0.4173 0.0
C630 C 0.23513 0.93637 0.4065 0.0
C631 C 0.2313 0.94319 0.44334 0.0
C632 C 0.23383 0.94097 0.49114 0.0
C633 C 0.24026 0.93197 0.5022 0.0
C634 C 0.24413 0.92515 0.4655 0.0
C635 C 0.27862 0.95304 0.20786 0.0
C636 C 0.29235 0.95314 0.19989 0.0
C637 C 0.26823 0.94336 0.24228 0.0
C638 C 0.27131 0.93351 0.26923 0.0
C639 C 0.28511 0.93377 0.26188 0.0
C640 C 0.29549 0.94343 0.22751 0.0
C641 C 0.26013 0.923 0.30518 0.0
C642 C 0.25536 0.92913 0.34188 0.0
C643 C 0.25462 0.90712 0.3045 0.0
C644 C 0.25853 0.89979 0.26532 0.0
C645 C 0.26495 0.89067 0.27601 0.0
C646 C 0.26873 0.88383 0.23911 0.0
C647 C 0.26607 0.88597 0.19136 0.0
C648 C 0.25956 0.89491 0.18041 0.0
C649 C 0.25575 0.90175 0.21718 0.0
H650 H 0.26901 0.88068 0.16284 0.0
H651 H 0.23085 0.94624 0.5196 0.0
H652 H 0.27858 0.3863 0.45237 0.0
H653 H 0.26215 0.3878 0.39122 0.0
H654 H 0.27806 0.43453 0.43006 0.0
H655 H 0.29474 0.43321 0.49081 0.0
H656 H 0.23887 0.39286 0.39729 0.0
H657 H 0.27843 0.45446 0.33148 0.0
H658 H 0.30586 0.47283 0.32345 0.0
H659 H 0.31514 0.43603 0.31359 0.0
H660 H 0.28776 0.41746 0.3209 0.0
H661 H 0.21961 0.4402 0.21915 0.0
H662 H 0.23584 0.43811 0.27961 0.0
H663 H 0.21928 0.39145 0.23835 0.0
H664 H 0.20278 0.39338 0.17809 0.0
H665 H 0.25884 0.43277 0.27152 0.0
H666 H 0.21923 0.37116 0.33655 0.0
H667 H 0.19179 0.35282 0.34479 0.0
H668 H 0.18262 0.38965 0.35633 0.0
H669 H 0.21 0.4082 0.34881 0.0
C670 C 0.27864 0.39693 0.44785 0.0
C671 C 0.28805 0.40966 0.47643 0.0
C672 C 0.26919 0.39775 0.41292 0.0
C673 C 0.26895 0.41131 0.40562 0.0
C674 C 0.27822 0.424 0.43441 0.0
C675 C 0.28772 0.42322 0.46929 0.0
C676 C 0.25891 0.41211 0.36817 0.0
C677 C 0.24327 0.40146 0.36939 0.0
C678 C 0.26457 0.42351 0.33229 0.0
C679 C 0.28106 0.43458 0.32725 0.0
C680 C 0.28632 0.45029 0.32742 0.0
C681 C 0.30186 0.46074 0.32302 0.0
C682 C 0.31224 0.4556 0.31818 0.0
C683 C 0.3071 0.44 0.31754 0.0
C684 C 0.29157 0.42951 0.32187 0.0
C685 C 0.21935 0.42945 0.22298 0.0
C686 C 0.20983 0.41694 0.19378 0.0
C687 C 0.22869 0.4283 0.25753 0.0
C688 C 0.22872 0.4146 0.26389 0.0
C689 C 0.21929 0.40209 0.23467 0.0
C690 C 0.2099 0.40322 0.20009 0.0
C691 C 0.23878 0.41355 0.30073 0.0
C692 C 0.25443 0.42415 0.29938 0.0
C693 C 0.23313 0.40211 0.33647 0.0
C694 C 0.21665 0.39106 0.34156 0.0
C695 C 0.21135 0.37534 0.34099 0.0
C696 C 0.19581 0.36491 0.34552 0.0
C697 C 0.18546 0.37007 0.35091 0.0
C698 C 0.19064 0.38567 0.35196 0.0
C699 C 0.20616 0.39615 0.34749 0.0
H700 H 0.17344 0.36197 0.35437 0.0
H701 H 0.32427 0.4637 0.31482 0.0
H702 H 0.19301 0.38756 0.95043 0.0
H703 H 0.21137 0.38943 0.89046 0.0
H704 H 0.24189 0.43595 0.93218 0.0
H705 H 0.22344 0.43425 0.99199 0.0
H706 H 0.24047 0.43306 0.83617 0.0
H707 H 0.2481 0.40723 0.96781 0.0
H708 H 0.24044 0.38742 0.02988 0.0
H709 H 0.22424 0.35287 0.92104 0.0
H710 H 0.23161 0.37247 0.85831 0.0
H711 H 0.30597 0.44131 0.71812 0.0
H712 H 0.28785 0.43965 0.77867 0.0
H713 H 0.25725 0.39294 0.73909 0.0
H714 H 0.27547 0.39442 0.67883 0.0
H715 H 0.25884 0.39605 0.83443 0.0
H716 H 0.25104 0.42183 0.70282 0.0
H717 H 0.25864 0.44161 0.64068 0.0
H718 H 0.27508 0.47622 0.74934 0.0
H719 H 0.26777 0.45665 0.81214 0.0
C720 C 0.20362 0.39822 0.94693 0.0
C721 C 0.20676 0.41074 0.97625 0.0
C722 C 0.21415 0.39924 0.91269 0.0
C723 C 0.22812 0.41276 0.90721 0.0
C724 C 0.2312 0.42538 0.93584 0.0
C725 C 0.22065 0.42438 0.9701 0.0
C726 C 0.23946 0.41372 0.87146 0.0
C727 C 0.24465 0.42511 0.83622 0.0
C728 C 0.24466 0.40311 0.87075 0.0
C729 C 0.24028 0.39131 0.90839 0.0
C730 C 0.2428 0.3954 0.95712 0.0
C731 C 0.23853 0.38421 0.99242 0.0
C732 C 0.23183 0.36889 0.97942 0.0
C733 C 0.22942 0.36474 0.93106 0.0
C734 C 0.23365 0.37588 0.89562 0.0
C735 C 0.29539 0.43066 0.72222 0.0
C736 C 0.29216 0.41801 0.69339 0.0
C737 C 0.285 0.42976 0.75679 0.0
C738 C 0.27106 0.41624 0.76303 0.0
C739 C 0.2679 0.40351 0.73486 0.0
C740 C 0.27832 0.40439 0.70033 0.0
C741 C 0.25983 0.41538 0.79907 0.0
C742 C 0.25466 0.40401 0.83438 0.0
C743 C 0.25464 0.426 0.79983 0.0
C744 C 0.25899 0.43778 0.76215 0.0
C745 C 0.25638 0.43367 0.71345 0.0
C746 C 0.26062 0.44484 0.67811 0.0
C747 C 0.26737 0.46016 0.69105 0.0
C748 C 0.26987 0.46435 0.73937 0.0
C749 C 0.26567 0.45322 0.77485 0.0
H750 H 0.27064 0.4688 0.66363 0.0
H751 H 0.22853 0.36025 0.0068 0.0
H752 H 0.77709 0.89013 0.96768 0.0
H753 H 0.77525 0.90681 0.90855 0.0
H754 H 0.72627 0.88013 0.9149 0.0
H755 H 0.72807 0.86371 0.9758 0.0
H756 H 0.76477 0.90284 0.82263 0.0
H757 H 0.71054 0.90205 0.88856 0.0
H758 H 0.69621 0.89829 0.96357 0.0
H759 H 0.73723 0.91405 0.04524 0.0
H760 H 0.75185 0.91817 0.97078 0.0
H761 H 0.72152 0.94001 0.7037 0.0
H762 H 0.72325 0.92336 0.76321 0.0
H763 H 0.77224 0.9501 0.75796 0.0
H764 H 0.77056 0.9665 0.69679 0.0
H765 H 0.73366 0.92732 0.8496 0.0
H766 H 0.7879 0.9281 0.78377 0.0
H767 H 0.80226 0.93191 0.70877 0.0
H768 H 0.76127 0.91624 0.62702 0.0
H769 H 0.74662 0.91205 0.70146 0.0
C770 C 0.76591 0.8878 0.9566 0.0
C771 C 0.75271 0.87562 0.97667 0.0
C772 C 0.76487 0.89735 0.92263 0.0
C773 C 0.75063 0.89491 0.90752 0.0
C774 C 0.73741 0.88252 0.92669 0.0
C775 C 0.73844 0.87307 0.96134 0.0
C776 C 0.74977 0.90535 0.87163 0.0
C777 C 0.75811 0.90833 0.82886 0.0
C778 C 0.74083 0.91231 0.87904 0.0
C779 C 0.73225 0.91025 0.9241 0.0
C780 C 0.71652 0.90479 0.92254 0.0
C781 C 0.70834 0.9026 0.96497 0.0
C782 C 0.7158 0.90589 0.00918 0.0
C783 C 0.73146 0.91148 0.01103 0.0
C784 C 0.7397 0.91374 0.96871 0.0
C785 C 0.73268 0.94237 0.71512 0.0
C786 C 0.74591 0.95456 0.69526 0.0
C787 C 0.73365 0.93283 0.74932 0.0
C788 C 0.74786 0.93529 0.76479 0.0
C789 C 0.76112 0.94771 0.74589 0.0
C790 C 0.76016 0.95714 0.71108 0.0
C791 C 0.74868 0.92482 0.80065 0.0
C792 C 0.74033 0.92183 0.84339 0.0
C793 C 0.75761 0.91786 0.79323 0.0
C794 C 0.76621 0.91993 0.74819 0.0
C795 C 0.78194 0.92538 0.74978 0.0
C796 C 0.79013 0.92761 0.70736 0.0
C797 C 0.78269 0.92436 0.66312 0.0
C798 C 0.76702 0.91878 0.66124 0.0
C799 C 0.75877 0.91648 0.70355 0.0
H800 H 0.78907 0.92617 0.63034 0.0
H801 H 0.70943 0.90411 0.04197 0.0
H802 H 0.2786 0.97105 0.95905 0.0
H803 H 0.26213 0.95299 0.89832 0.0
H804 H 0.27866 0.92262 0.93587 0.0
H805 H 0.2954 0.94077 0.99641 0.0
H806 H 0.27708 0.92468 0.84027 0.0
H807 H 0.24363 0.9158 0.9731 0.0
H808 H 0.23136 0.92285 0.03643 0.0
H809 H 0.21253 0.93926 0.92993 0.0
H810 H 0.22487 0.93249 0.86597 0.0
H811 H 0.22019 0.85845 0.72552 0.0
H812 H 0.23658 0.87702 0.78514 0.0
H813 H 0.21979 0.90687 0.74366 0.0
H814 H 0.20313 0.88818 0.68403 0.0
H815 H 0.22151 0.90541 0.84029 0.0
H816 H 0.25472 0.91395 0.70735 0.0
H817 H 0.26692 0.90675 0.64416 0.0
H818 H 0.28616 0.8909 0.75103 0.0
H819 H 0.2739 0.89781 0.81487 0.0
C820 C 0.27877 0.96054 0.95447 0.0
C821 C 0.2883 0.95735 0.98282 0.0
C822 C 0.26927 0.95018 0.9198 0.0
C823 C 0.26898 0.93633 0.91291 0.0
C824 C 0.27865 0.93321 0.94061 0.0
C825 C 0.28819 0.94359 0.97529 0.0
C826 C 0.25864 0.92517 0.87667 0.0
C827 C 0.26491 0.92031 0.84068 0.0
C828 C 0.24278 0.91975 0.87639 0.0
C829 C 0.2353 0.92377 0.91478 0.0
C830 C 0.23697 0.92102 0.96321 0.0
C831 C 0.22998 0.92495 0.99921 0.0
C832 C 0.2212 0.93154 0.98722 0.0
C833 C 0.21935 0.93417 0.93917 0.0
C834 C 0.22633 0.93028 0.90302 0.0
C835 C 0.21994 0.86895 0.72897 0.0
C836 C 0.21037 0.87184 0.69976 0.0
C837 C 0.22939 0.8796 0.76302 0.0
C838 C 0.2296 0.89345 0.76846 0.0
C839 C 0.21987 0.89628 0.73999 0.0
C840 C 0.21037 0.8856 0.70585 0.0
C841 C 0.23996 0.90489 0.80401 0.0
C842 C 0.23369 0.90981 0.83985 0.0
C843 C 0.25582 0.91036 0.80418 0.0
C844 C 0.26328 0.90627 0.76587 0.0
C845 C 0.26146 0.90883 0.71737 0.0
C846 C 0.2684 0.90482 0.68143 0.0
C847 C 0.27728 0.89834 0.69357 0.0
C848 C 0.27927 0.8959 0.74168 0.0
C849 C 0.27234 0.89988 0.77776 0.0
H850 H 0.28264 0.89524 0.66569 0.0
H851 H 0.2158 0.93457 0.01515 0.0
H852 H 0.39578 0.27442 0.82733 0.0
H853 H 0.39449 0.25635 0.76684 0.0
H854 H 0.44167 0.28645 0.73168 0.0
H855 H 0.44301 0.30465 0.79158 0.0
H856 H 0.42497 0.27512 0.65181 0.0
H857 H 0.43087 0.25492 0.80065 0.0
H858 H 0.42455 0.24583 0.88405 0.0
H859 H 0.38039 0.21049 0.83917 0.0
H860 H 0.38637 0.21951 0.75555 0.0
H861 H 0.4363 0.22171 0.51861 0.0
H862 H 0.43816 0.24003 0.57919 0.0
H863 H 0.3911 0.21042 0.61687 0.0
H864 H 0.3892 0.19199 0.55701 0.0
H865 H 0.40811 0.22162 0.6957 0.0
H866 H 0.40209 0.24197 0.5471 0.0
H867 H 0.40834 0.25107 0.46369 0.0
H868 H 0.4527 0.28612 0.50809 0.0
H869 H 0.44678 0.27709 0.59172 0.0
C870 C 0.40588 0.27722 0.80667 0.0
C871 C 0.41952 0.29098 0.8145 0.0
C872 C 0.40514 0.26684 0.77222 0.0
C873 C 0.41804 0.26995 0.74506 0.0
C874 C 0.43158 0.28378 0.75221 0.0
C875 C 0.43233 0.29416 0.78663 0.0
C876 C 0.41745 0.25877 0.70929 0.0
C877 C 0.42148 0.26348 0.66155 0.0
C878 C 0.41261 0.24349 0.72171 0.0
C879 C 0.40901 0.23799 0.77192 0.0
C880 C 0.41976 0.24528 0.80862 0.0
C881 C 0.41625 0.24013 0.85592 0.0
C882 C 0.40206 0.22761 0.86692 0.0
C883 C 0.39137 0.2202 0.8306 0.0
C884 C 0.39482 0.22532 0.78325 0.0
C885 C 0.42635 0.21908 0.53985 0.0
C886 C 0.41259 0.20539 0.53277 0.0
C887 C 0.42741 0.2296 0.57435 0.0
C888 C 0.41471 0.22669 0.60227 0.0
C889 C 0.40105 0.21293 0.59578 0.0
C890 C 0.39998 0.20242 0.56137 0.0
C891 C 0.4156 0.23796 0.63818 0.0
C892 C 0.41162 0.23327 0.68596 0.0
C893 C 0.42049 0.25326 0.62579 0.0
C894 C 0.42405 0.25875 0.57558 0.0
C895 C 0.41322 0.25154 0.53902 0.0
C896 C 0.41669 0.2567 0.49171 0.0
C897 C 0.43092 0.26914 0.48058 0.0
C898 C 0.44169 0.27647 0.51676 0.0
C899 C 0.43828 0.27135 0.56412 0.0
H900 H 0.43359 0.27312 0.44393 0.0
H901 H 0.39937 0.22364 0.90356 0.0
H902 H 0.88601 0.19652 0.81086 0.0
H903 H 0.90431 0.21284 0.75001 0.0
H904 H 0.88234 0.23982 0.7434 0.0
H905 H 0.86373 0.22323 0.80255 0.0
H906 H 0.88884 0.23575 0.65746 0.0
H907 H 0.91704 0.25095 0.80576 0.0
H908 H 0.92742 0.24674 0.88034 0.0
H909 H 0.95247 0.23067 0.79904 0.0
H910 H 0.942 0.23451 0.7239 0.0
H911 H 0.9469 0.29923 0.53206 0.0
H912 H 0.92881 0.28285 0.5932 0.0
H913 H 0.95097 0.25604 0.59839 0.0
H914 H 0.9694 0.27271 0.53886 0.0
H915 H 0.94441 0.25988 0.6848 0.0
H916 H 0.91634 0.2448 0.53656 0.0
H917 H 0.90605 0.24907 0.4619 0.0
H918 H 0.88073 0.26486 0.54301 0.0
H919 H 0.89113 0.26098 0.61825 0.0
C920 C 0.88508 0.20592 0.79636 0.0
C921 C 0.87342 0.20858 0.81166 0.0
C922 C 0.8956 0.21531 0.76173 0.0
C923 C 0.8949 0.22777 0.74251 0.0
C924 C 0.88317 0.23032 0.75753 0.0
C925 C 0.87253 0.22082 0.79152 0.0
C926 C 0.90627 0.23815 0.70664 0.0
C927 C 0.90099 0.24117 0.66378 0.0
C928 C 0.92216 0.24499 0.71412 0.0
C929 C 0.92862 0.24288 0.75925 0.0
C930 C 0.92469 0.24643 0.8038 0.0
C931 C 0.9306 0.24412 0.84618 0.0
C932 C 0.94058 0.23842 0.84447 0.0
C933 C 0.94472 0.23507 0.80032 0.0
C934 C 0.9388 0.23731 0.75782 0.0
C935 C 0.94792 0.28986 0.54632 0.0
C936 C 0.95957 0.28726 0.53045 0.0
C937 C 0.93752 0.28044 0.58113 0.0
C938 C 0.93832 0.268 0.59997 0.0
C939 C 0.95007 0.26553 0.58451 0.0
C940 C 0.96059 0.27507 0.55032 0.0
C941 C 0.92697 0.25751 0.63571 0.0
C942 C 0.93225 0.25447 0.6785 0.0
C943 C 0.91108 0.25064 0.62817 0.0
C944 C 0.90463 0.25274 0.583 0.0
C945 C 0.90865 0.24927 0.53847 0.0
C946 C 0.90279 0.25161 0.49603 0.0
C947 C 0.89276 0.25725 0.49766 0.0
C948 C 0.88852 0.26051 0.54179 0.0
C949 C 0.8944 0.25825 0.58434 0.0
H950 H 0.88826 0.25909 0.46477 0.0
H951 H 0.94512 0.23661 0.87732 0.0
H952 H 0.94608 0.72081 0.78497 0.0
H953 H 0.92949 0.72224 0.72445 0.0
H954 H 0.94454 0.7686 0.76568 0.0
H955 H 0.96115 0.76723 0.82685 0.0
H956 H 0.91377 0.7521 0.75558 0.0
H957 H 0.95722 0.76102 0.66295 0.0
H958 H 0.97692 0.75569 0.63296 0.0
H959 H 0.9424 0.71331 0.57356 0.0
H960 H 0.92247 0.71829 0.60381 0.0
H961 H 0.88504 0.77305 0.55696 0.0
H962 H 0.90132 0.77095 0.61699 0.0
H963 H 0.8861 0.7249 0.57177 0.0
H964 H 0.86981 0.72696 0.51079 0.0
H965 H 0.91665 0.74076 0.58406 0.0
H966 H 0.8732 0.73192 0.67586 0.0
H967 H 0.85347 0.73722 0.70584 0.0
H968 H 0.88793 0.77931 0.76698 0.0
H969 H 0.90788 0.77438 0.73675 0.0
C970 C 0.94593 0.73135 0.78118 0.0
C971 C 0.955 0.74393 0.81078 0.0
C972 C 0.93646 0.73216 0.74635 0.0
C973 C 0.93586 0.74557 0.74014 0.0
C974 C 0.94483 0.75813 0.76976 0.0
C975 C 0.95437 0.75735 0.80459 0.0
C976 C 0.92567 0.74635 0.70328 0.0
C977 C 0.91455 0.74983 0.71797 0.0
C978 C 0.92638 0.74297 0.65438 0.0
C979 C 0.93834 0.73996 0.63608 0.0
C980 C 0.95382 0.7505 0.64385 0.0
C981 C 0.96503 0.74756 0.62673 0.0
C982 C 0.96091 0.73415 0.60148 0.0
C983 C 0.94557 0.72368 0.59319 0.0
C984 C 0.93431 0.72656 0.61027 0.0
C985 C 0.88507 0.76243 0.55973 0.0
C986 C 0.87604 0.75014 0.52906 0.0
C987 C 0.89437 0.76123 0.59432 0.0
C988 C 0.89482 0.74771 0.59938 0.0
C989 C 0.88591 0.73544 0.56863 0.0
C990 C 0.87657 0.73662 0.5339 0.0
C991 C 0.90478 0.74655 0.63634 0.0
C992 C 0.91586 0.743 0.62168 0.0
C993 C 0.90402 0.74985 0.6853 0.0
C994 C 0.89204 0.75284 0.70364 0.0
C995 C 0.87658 0.74237 0.69536 0.0
C996 C 0.86535 0.74529 0.71246 0.0
C997 C 0.86944 0.75861 0.7382 0.0
C998 C 0.88477 0.76901 0.74699 0.0
C999 C 0.89604 0.76615 0.72992 0.0
H1000 H 0.86074 0.76085 0.75141 0.0
H1001 H 0.96961 0.7319 0.58825 0.0
H1002 H 0.85923 0.72431 0.27719 0.0
H1003 H 0.87773 0.72635 0.21775 0.0
H1004 H 0.91046 0.7704 0.27381 0.0
H1005 H 0.89179 0.76857 0.33317 0.0
H1006 H 0.91089 0.77052 0.1776 0.0
H1007 H 0.91261 0.73833 0.30037 0.0
H1008 H 0.90196 0.7165 0.35592 0.0
H1009 H 0.88466 0.6856 0.23679 0.0
H1010 H 0.89503 0.70726 0.18053 0.0
H1011 H 0.97442 0.77455 0.05822 0.0
H1012 H 0.95662 0.77342 0.11901 0.0
H1013 H 0.92308 0.72879 0.06905 0.0
H1014 H 0.94103 0.72968 0.00874 0.0
H1015 H 0.92357 0.72939 0.16374 0.0
H1016 H 0.92132 0.76142 0.04104 0.0
H1017 H 0.93176 0.78316 0.98515 0.0
H1018 H 0.94986 0.81424 0.10363 0.0
H1019 H 0.9397 0.79267 0.16021 0.0
C1020 C 0.87035 0.73447 0.27698 0.0
C1021 C 0.87405 0.74624 0.31025 0.0
C1022 C 0.88096 0.73558 0.24301 0.0
C1023 C 0.89561 0.7484 0.2418 0.0
C1024 C 0.89925 0.76036 0.2742 0.0
C1025 C 0.88858 0.75929 0.30815 0.0
C1026 C 0.90704 0.74923 0.20666 0.0
C1027 C 0.91384 0.76164 0.17506 0.0
C1028 C 0.91065 0.73747 0.2025 0.0
C1029 C 0.90449 0.72443 0.23626 0.0
C1030 C 0.90645 0.72688 0.28603 0.0
C1031 C 0.90047 0.71454 0.31764 0.0
C1032 C 0.89261 0.69968 0.2999 0.0
C1033 C 0.89074 0.69712 0.25049 0.0
C1034 C 0.89668 0.70943 0.21872 0.0
C1035 C 0.96326 0.76447 0.06008 0.0
C1036 C 0.95914 0.75222 0.02839 0.0
C1037 C 0.95305 0.76388 0.09479 0.0
C1038 C 0.93838 0.75113 0.0982 0.0
C1039 C 0.93431 0.73878 0.06708 0.0
C1040 C 0.94458 0.73931 0.03253 0.0
C1041 C 0.92736 0.75064 0.13444 0.0
C1042 C 0.92065 0.73828 0.1663 0.0
C1043 C 0.92382 0.76244 0.13877 0.0
C1044 C 0.92987 0.77542 0.10482 0.0
C1045 C 0.92762 0.77289 0.05515 0.0
C1046 C 0.93347 0.78518 0.02335 0.0
C1047 C 0.9415 0.80007 0.04082 0.0
C1048 C 0.94365 0.8027 0.09015 0.0
C1049 C 0.93784 0.79044 0.1221 0.0
H1050 H 0.94602 0.80957 0.01615 0.0
H1051 H 0.88799 0.69013 0.32443 0.0
H1052 H 0.39539 0.20166 0.33017 0.0
H1053 H 0.3935 0.218 0.26927 0.0
H1054 H 0.44015 0.23445 0.22853 0.0
H1055 H 0.4422 0.21836 0.28968 0.0
H1056 H 0.43472 0.25746 0.23553 0.0
H1057 H 0.41041 0.20839 0.15975 0.0
H1058 H 0.39199 0.18093 0.15335 0.0
H1059 H 0.35499 0.18986 0.16333 0.0
H1060 H 0.37319 0.21738 0.17049 0.0
H1061 H 0.43466 0.29313 0.01622 0.0
H1062 H 0.4362 0.27646 0.07655 0.0
H1063 H 0.38948 0.26014 0.11596 0.0
H1064 H 0.38776 0.27655 0.05523 0.0
H1065 H 0.39479 0.237 0.10981 0.0
H1066 H 0.41914 0.28607 0.18578 0.0
H1067 H 0.43758 0.31351 0.19276 0.0
H1068 H 0.47455 0.30452 0.18264 0.0
H1069 H 0.45632 0.27703 0.17495 0.0
C1070 C 0.40524 0.20873 0.30819 0.0
C1071 C 0.41894 0.20866 0.3148 0.0
C1072 C 0.40413 0.21803 0.27323 0.0
C1073 C 0.41664 0.22736 0.24393 0.0
C1074 C 0.43034 0.22736 0.25066 0.0
C1075 C 0.43147 0.2181 0.2856 0.0
C1076 C 0.41558 0.23728 0.20661 0.0
C1077 C 0.42611 0.25295 0.20766 0.0
C1078 C 0.40414 0.23147 0.17084 0.0
C1079 C 0.39317 0.21494 0.16613 0.0
C1080 C 0.39834 0.20449 0.16093 0.0
C1081 C 0.38794 0.18892 0.15711 0.0
C1082 C 0.37233 0.18365 0.15806 0.0
C1083 C 0.36709 0.19395 0.16267 0.0
C1084 C 0.37744 0.20954 0.16657 0.0
C1085 C 0.42472 0.28602 0.03777 0.0
C1086 C 0.41111 0.28624 0.03095 0.0
C1087 C 0.42563 0.27652 0.07239 0.0
C1088 C 0.413 0.26715 0.10125 0.0
C1089 C 0.39937 0.26725 0.0942 0.0
C1090 C 0.39844 0.27671 0.05952 0.0
C1091 C 0.41396 0.25719 0.13869 0.0
C1092 C 0.4034 0.24151 0.13767 0.0
C1093 C 0.42538 0.26299 0.17451 0.0
C1094 C 0.43636 0.27951 0.17931 0.0
C1095 C 0.4312 0.28996 0.18468 0.0
C1096 C 0.44162 0.30552 0.18882 0.0
C1097 C 0.45723 0.31076 0.18801 0.0
C1098 C 0.46245 0.30045 0.18319 0.0
C1099 C 0.45209 0.28487 0.17898 0.0
H1100 H 0.46527 0.32281 0.19123 0.0
H1101 H 0.3643 0.17158 0.15513 0.0
H1102 H 0.9409 0.30026 0.30429 0.0
H1103 H 0.92415 0.28193 0.24455 0.0
H1104 H 0.94944 0.25829 0.25332 0.0
H1105 H 0.96628 0.27659 0.31365 0.0
H1106 H 0.94377 0.26348 0.15903 0.0
H1107 H 0.91546 0.24183 0.30295 0.0
H1108 H 0.90303 0.24119 0.37939 0.0
H1109 H 0.87441 0.2548 0.30717 0.0
H1110 H 0.8867 0.25552 0.23009 0.0
H1111 H 0.89095 0.19574 0.03871 0.0
H1112 H 0.9076 0.21418 0.09833 0.0
H1113 H 0.88228 0.23777 0.08793 0.0
H1114 H 0.86555 0.21935 0.02763 0.0
H1115 H 0.88792 0.23271 0.18282 0.0
H1116 H 0.91608 0.25423 0.03891 0.0
H1117 H 0.92839 0.2548 0.96232 0.0
H1118 H 0.95727 0.24146 0.03437 0.0
H1119 H 0.94508 0.24081 0.1116 0.0
C1120 C 0.94293 0.29117 0.29361 0.0
C1121 C 0.95495 0.2899 0.31378 0.0
C1122 C 0.93328 0.28065 0.25959 0.0
C1123 C 0.93547 0.26868 0.24473 0.0
C1124 C 0.94753 0.26743 0.26438 0.0
C1125 C 0.95712 0.27787 0.29891 0.0
C1126 C 0.92528 0.25768 0.20803 0.0
C1127 C 0.93159 0.25657 0.16453 0.0
C1128 C 0.90934 0.249 0.21463 0.0
C1129 C 0.90211 0.24889 0.26089 0.0
C1130 C 0.90663 0.24484 0.30345 0.0
C1131 C 0.89958 0.24443 0.34689 0.0
C1132 C 0.88799 0.24804 0.34825 0.0
C1133 C 0.88341 0.25204 0.30609 0.0
C1134 C 0.89038 0.25241 0.26249 0.0
C1135 C 0.88889 0.20484 0.04901 0.0
C1136 C 0.8769 0.20607 0.02837 0.0
C1137 C 0.89848 0.21542 0.08297 0.0
C1138 C 0.89626 0.22741 0.09731 0.0
C1139 C 0.88421 0.22861 0.07725 0.0
C1140 C 0.87469 0.21811 0.04275 0.0
C1141 C 0.90641 0.2385 0.13386 0.0
C1142 C 0.9001 0.23962 0.17733 0.0
C1143 C 0.92235 0.2472 0.12722 0.0
C1144 C 0.92956 0.24732 0.0809 0.0
C1145 C 0.92495 0.25127 0.03835 0.0
C1146 C 0.93194 0.25164 0.99483 0.0
C1147 C 0.94356 0.24808 0.99337 0.0
C1148 C 0.94824 0.24419 0.03552 0.0
C1149 C 0.94133 0.24385 0.07921 0.0
H1150 H 0.94899 0.24843 0.95966 0.0
H1151 H 0.88251 0.24766 0.38189 0.0
H1152 H 0.12631 0.70343 0.27022 0.0
H1153 H 0.13748 0.72714 0.31541 0.0
H1154 H 0.10351 0.7052 0.42566 0.0
H1155 H 0.09177 0.68152 0.37903 0.0
H1156 H 0.10788 0.73208 0.41408 0.0
H1157 H 0.14151 0.71275 0.43771 0.0
H1158 H 0.15798 0.70237 0.41474 0.0
H1159 H 0.18703 0.74321 0.33628 0.0
H1160 H 0.17062 0.75376 0.35827 0.0
H1161 H 0.17593 0.79339 0.56753 0.0
H1162 H 0.1626 0.76889 0.527 0.0
H1163 H 0.14028 0.78588 0.43488 0.0
H1164 H 0.15327 0.81041 0.47664 0.0
H1165 H 0.16356 0.76048 0.44258 0.0
H1166 H 0.10555 0.75639 0.39823 0.0
H1167 H 0.08781 0.76378 0.43268 0.0
H1168 H 0.10642 0.76628 0.57283 0.0
H1169 H 0.1241 0.75866 0.53939 0.0
C1170 C 0.12122 0.70362 0.30415 0.0
C1171 C 0.10824 0.69055 0.32132 0.0
C1172 C 0.12767 0.7172 0.33012 0.0
C1173 C 0.12159 0.71794 0.3746 0.0
C1174 C 0.10847 0.70494 0.39154 0.0
C1175 C 0.1018 0.69139 0.36499 0.0
C1176 C 0.12898 0.73228 0.40319 0.0
C1177 C 0.12006 0.73828 0.42035 0.0
C1178 C 0.14482 0.74026 0.4125 0.0
C1179 C 0.15476 0.73398 0.39932 0.0
C1180 C 0.15136 0.71947 0.4153 0.0
C1181 C 0.16069 0.71357 0.40249 0.0
C1182 C 0.17353 0.72211 0.37398 0.0
C1183 C 0.17708 0.7366 0.35832 0.0
C1184 C 0.16778 0.74255 0.371 0.0
C1185 C 0.16819 0.79197 0.53863 0.0
C1186 C 0.16569 0.8039 0.52531 0.0
C1187 C 0.16056 0.7779 0.51542 0.0
C1188 C 0.1503 0.77542 0.47807 0.0
C1189 C 0.14791 0.78738 0.46419 0.0
C1190 C 0.15544 0.80145 0.48784 0.0
C1191 C 0.1425 0.76042 0.45308 0.0
C1192 C 0.15137 0.7543 0.43641 0.0
C1193 C 0.12655 0.7521 0.44583 0.0
C1194 C 0.11626 0.7571 0.46615 0.0
C1195 C 0.10586 0.75852 0.4364 0.0
C1196 C 0.0958 0.76273 0.45576 0.0
C1197 C 0.09599 0.76549 0.50489 0.0
C1198 C 0.10631 0.76416 0.53476 0.0
C1199 C 0.11637 0.75992 0.51559 0.0
H1200 H 0.08808 0.76857 0.51984 0.0
H1201 H 0.18074 0.71752 0.36409 0.0
H1202 H 0.47692 0.47849 0.34832 0.0
H1203 H 0.45267 0.46514 0.39161 0.0
H1204 H 0.44357 0.50117 0.35615 0.0
H1205 H 0.46766 0.51451 0.31281 0.0
H1206 H 0.43741 0.49182 0.45223 0.0
H1207 H 0.42706 0.46921 0.29299 0.0
H1208 H 0.43165 0.45609 0.22615 0.0
H1209 H 0.42187 0.41843 0.31853 0.0
H1210 H 0.41743 0.43143 0.38611 0.0
H1211 H 0.36028 0.46088 0.50495 0.0
H1212 H 0.38478 0.47222 0.46391 0.0
H1213 H 0.38473 0.42979 0.47605 0.0
H1214 H 0.35967 0.41814 0.51446 0.0
H1215 H 0.39659 0.44136 0.39596 0.0
H1216 H 0.40603 0.46199 0.554 0.0
H1217 H 0.40286 0.47459 0.62506 0.0
H1218 H 0.41593 0.51497 0.54235 0.0
H1219 H 0.419 0.50254 0.47062 0.0
C1220 C 0.46981 0.48362 0.35009 0.0
C1221 C 0.47421 0.49754 0.327 0.0
C1222 C 0.45593 0.47595 0.37463 0.0
C1223 C 0.44627 0.48212 0.37674 0.0
C1224 C 0.45084 0.4962 0.35491 0.0
C1225 C 0.46461 0.50379 0.33003 0.0
C1226 C 0.43124 0.47386 0.40086 0.0
C1227 C 0.42842 0.48084 0.43975 0.0
C1228 C 0.41972 0.4593 0.3856 0.0
C1229 C 0.42206 0.45135 0.34469 0.0
C1230 C 0.42598 0.45817 0.29911 0.0
C1231 C 0.42854 0.45075 0.26109 0.0
C1232 C 0.4271 0.43646 0.26812 0.0
C1233 C 0.42301 0.42952 0.31315 0.0
C1234 C 0.42045 0.4369 0.3513 0.0
C1235 C 0.36545 0.45394 0.49844 0.0
C1236 C 0.35813 0.43866 0.51309 0.0
C1237 C 0.37954 0.46047 0.47536 0.0
C1238 C 0.38693 0.45204 0.4681 0.0
C1239 C 0.37938 0.4366 0.48142 0.0
C1240 C 0.36505 0.42994 0.50336 0.0
C1241 C 0.40256 0.45942 0.44719 0.0
C1242 C 0.40554 0.45228 0.4089 0.0
C1243 C 0.41437 0.47372 0.46369 0.0
C1244 C 0.41262 0.48128 0.50684 0.0
C1245 C 0.40814 0.47352 0.5509 0.0
C1246 C 0.40637 0.48064 0.5913 0.0
C1247 C 0.40916 0.49556 0.5882 0.0
C1248 C 0.41376 0.50341 0.5447 0.0
C1249 C 0.41554 0.49634 0.50417 0.0
H1250 H 0.40778 0.50105 0.61951 0.0
H1251 H 0.42911 0.43074 0.23867 0.0
H1252 H 0.74429 0.01248 0.47123 0.0
H1253 H 0.73359 0.02607 0.42833 0.0
H1254 H 0.69151 1.00049 0.50599 0.0
H1255 H 0.70205 0.98693 0.54894 0.0
H1256 H 0.709 0.01692 0.36965 0.0
H1257 H 0.67823 0.02379 0.5355 0.0
H1258 H 0.68203 0.02711 0.62308 0.0
H1259 H 0.7302 0.04655 0.60385 0.0
H1260 H 0.72669 0.04344 0.51656 0.0
H1261 H 0.65308 0.0339 0.29327 0.0
H1262 H 0.66672 0.02306 0.334 0.0
H1263 H 0.69633 0.06642 0.40051 0.0
H1264 H 0.68258 0.07737 0.36023 0.0
H1265 H 0.68835 0.04407 0.46359 0.0
H1266 H 0.70865 0.05452 0.30578 0.0
H1267 H 0.70814 0.05422 0.21739 0.0
H1268 H 0.68646 0.00546 0.21803 0.0
H1269 H 0.68663 0.00545 0.3065 0.0
C1270 C 0.73273 0.00968 0.47895 0.0
C1271 C 0.72406 0.99865 0.5137 0.0
C1272 C 0.72663 0.01744 0.45434 0.0
C1273 C 0.71182 0.01442 0.46436 0.0
C1274 C 0.70304 1.00316 0.49814 0.0
C1275 C 0.70908 0.99537 0.52254 0.0
C1276 C 0.70553 0.02315 0.44031 0.0
C1277 C 0.70448 0.02285 0.39013 0.0
C1278 C 0.70003 0.03128 0.46693 0.0
C1279 C 0.70217 0.03324 0.51956 0.0
C1280 C 0.68962 0.0288 0.55006 0.0
C1281 C 0.69173 0.03063 0.5997 0.0
C1282 C 0.70634 0.03697 0.61917 0.0
C1283 C 0.71887 0.04154 0.589 0.0
C1284 C 0.71683 0.03972 0.53943 0.0
C1285 C 0.66245 0.04115 0.31671 0.0
C1286 C 0.66676 0.05654 0.32331 0.0
C1287 C 0.6703 0.03494 0.33979 0.0
C1288 C 0.68272 0.04398 0.36972 0.0
C1289 C 0.68683 0.05924 0.37742 0.0
C1290 C 0.67895 0.06548 0.35435 0.0
C1291 C 0.69135 0.03742 0.3929 0.0
C1292 C 0.69285 0.03814 0.44299 0.0
C1293 C 0.69764 0.03004 0.36602 0.0
C1294 C 0.69754 0.02998 0.3128 0.0
C1295 C 0.70366 0.04372 0.28709 0.0
C1296 C 0.70346 0.04361 0.23697 0.0
C1297 C 0.69724 0.02983 0.21211 0.0
C1298 C 0.69126 0.01613 0.23734 0.0
C1299 C 0.69142 0.01617 0.28748 0.0
H1300 H 0.6971 0.02977 0.17331 0.0
H1301 H 0.70795 0.03838 0.65759 0.0
H1302 H 0.70123 0.12996 0.21881 0.0
H1303 H 0.72542 0.14118 0.17615 0.0
H1304 H 0.71129 0.09835 0.10549 0.0
H1305 H 0.68689 0.087 0.14783 0.0
H1306 H 0.74784 0.13461 0.17765 0.0
H1307 H 0.72742 0.10601 0.99281 0.0
H1308 H 0.70446 0.0952 0.94196 0.0
H1309 H 0.69068 0.12446 0.00907 0.0
H1310 H 0.71365 0.13557 0.05983 0.0
H1311 H 0.8121 0.14985 0.03145 0.0
H1312 H 0.78777 0.13694 0.07431 0.0
H1313 H 0.77303 0.16447 0.99941 0.0
H1314 H 0.79715 0.1773 0.95637 0.0
H1315 H 0.75094 0.13519 1.00008 0.0
H1316 H 0.78477 0.17199 0.11502 0.0
H1317 H 0.80773 0.18479 0.16563 0.0
H1318 H 0.79463 0.14268 0.23814 0.0
H1319 H 0.77168 0.12959 0.18748 0.0
C1320 C 0.70319 0.1229 0.19404 0.0
C1321 C 0.69206 0.10757 0.18664 0.0
C1322 C 0.71709 0.12934 0.16985 0.0
C1323 C 0.72019 0.12065 0.1375 0.0
C1324 C 0.70911 0.10533 0.12992 0.0
C1325 C 0.69516 0.09886 0.15418 0.0
C1326 C 0.73501 0.12773 0.11182 0.0
C1327 C 0.74851 0.13466 0.13882 0.0
C1328 C 0.73593 0.12795 0.06115 0.0
C1329 C 0.72216 0.12148 0.03047 0.0
C1330 C 0.71951 0.11016 0.9966 0.0
C1331 C 0.70649 0.10398 0.96781 0.0
C1332 C 0.69609 0.1091 0.97241 0.0
C1333 C 0.69871 0.12046 0.00568 0.0
C1334 C 0.71172 0.12668 0.03451 0.0
C1335 C 0.80371 0.1532 0.02428 0.0
C1336 C 0.80662 0.16465 0.99052 0.0
C1337 C 0.7898 0.14582 0.04883 0.0
C1338 C 0.77857 0.14976 0.04016 0.0
C1339 C 0.78148 0.16118 0.00655 0.0
C1340 C 0.79534 0.16857 0.98214 0.0
C1341 C 0.76376 0.14206 0.06592 0.0
C1342 C 0.75027 0.13499 0.03892 0.0
C1343 C 0.76284 0.14193 0.11657 0.0
C1344 C 0.77661 0.14978 0.14712 0.0
C1345 C 0.78686 0.16544 0.14149 0.0
C1346 C 0.79985 0.17275 0.17023 0.0
C1347 C 0.80266 0.16454 0.20498 0.0
C1348 C 0.79245 0.14902 0.21115 0.0
C1349 C 0.77945 0.14165 0.18246 0.0
H1350 H 0.81273 0.17022 0.2272 0.0
H1351 H 0.68601 0.1043 0.95012 0.0
H1352 H 0.01999 0.74451 0.00728 0.0
H1353 H 0.0332 0.73336 0.05001 0.0
H1354 H 0.9948 0.68847 0.02713 0.0
H1355 H 0.98162 0.69946 0.98388 0.0
H1356 H 0.00681 0.6944 0.12318 0.0
H1357 H 0.02389 0.69948 0.95779 0.0
H1358 H 0.03557 0.71417 0.88412 0.0
H1359 H 0.07681 0.74296 0.96111 0.0
H1360 H 0.06528 0.72858 0.03546 0.0
H1361 H 0.03491 0.64609 0.18264 0.0
H1362 H 0.02354 0.65913 0.14112 0.0
H1363 H 0.06751 0.69996 0.13351 0.0
H1364 H 0.07906 0.68661 0.1727 0.0
H1365 H 0.05376 0.69808 0.0558 0.0
H1366 H 0.03882 0.69433 0.21913 0.0
H1367 H 0.02818 0.68196 0.29681 0.0
H1368 H 0.98463 0.6539 0.2309 0.0
H1369 H 0.99506 0.66597 0.15265 0.0
C1370 C 0.01431 0.73227 0.01169 0.0
C1371 C 0.99976 0.72286 0.99216 0.0
C1372 C 0.02191 0.72593 0.0359 0.0
C1373 C 0.015 0.71009 0.04147 0.0
C1374 C 1.00032 0.70072 0.02317 0.0
C1375 C 0.99283 0.70702 0.99837 0.0
C1376 C 0.02308 0.70317 0.06569 0.0
C1377 C 0.017 0.69506 0.10832 0.0
C1378 C 0.03668 0.70455 0.04714 0.0
C1379 C 0.04367 0.71305 1.00228 0.0
C1380 C 0.03541 0.70901 0.95909 0.0
C1381 C 0.04201 0.71727 0.9172 0.0
C1382 C 0.05692 0.72951 0.91795 0.0
C1383 C 0.06527 0.73348 0.96058 0.0
C1384 C 0.05871 0.72528 1.0026 0.0
C1385 C 0.04216 0.65782 0.17182 0.0
C1386 C 0.05786 0.66535 0.18115 0.0
C1387 C 0.03563 0.66532 0.1484 0.0
C1388 C 0.04455 0.68071 0.13526 0.0
C1389 C 0.06033 0.68813 0.14343 0.0
C1390 C 0.06693 0.68049 0.16586 0.0
C1391 C 0.03738 0.68901 0.11333 0.0
C1392 C 0.04363 0.69744 0.0711 0.0
C1393 C 0.02411 0.68824 0.13292 0.0
C1394 C 0.01777 0.68097 0.17994 0.0
C1395 C 0.027 0.68545 0.22113 0.0
C1396 C 0.021 0.6785 0.26527 0.0
C1397 C 0.00575 0.66713 0.26876 0.0
C1398 C 0.99645 0.66271 0.22813 0.0
C1399 C 1.00239 0.66961 0.18388 0.0
H1400 H 1.00112 0.66176 0.30297 0.0
H1401 H 0.062 0.73591 0.88551 0.0
H1402 H 0.41782 0.35579 0.00494 0.0
H1403 H 0.42872 0.38026 0.04733 0.0
H1404 H 0.47319 0.38478 0.03948 0.0
H1405 H 0.46249 0.36059 0.99614 0.0
H1406 H 0.46368 0.39107 0.13417 0.0
H1407 H 0.46738 0.4037 0.96433 0.0
H1408 H 0.45649 0.40152 0.88371 0.0
H1409 H 0.42668 0.41646 0.93899 0.0
H1410 H 0.43725 0.4185 0.02015 0.0
H1411 H 0.51557 0.46663 0.19128 0.0
H1412 H 0.50167 0.44202 0.15133 0.0
H1413 H 0.46371 0.4492 0.12827 0.0
H1414 H 0.47785 0.4742 0.16696 0.0
H1415 H 0.46719 0.43616 0.05242 0.0
H1416 H 0.4633 0.42546 0.21886 0.0
H1417 H 0.47202 0.42676 0.30213 0.0
H1418 H 0.49901 0.40711 0.25868 0.0
H1419 H 0.49062 0.40589 0.17497 0.0
C1420 C 0.42989 0.36195 0.01265 0.0
C1421 C 0.43931 0.35629 0.9972 0.0
C1422 C 0.4361 0.37592 0.03666 0.0
C1423 C 0.45176 0.38431 0.04634 0.0
C1424 C 0.46108 0.37846 0.03232 0.0
C1425 C 0.45496 0.36467 0.00748 0.0
C1426 C 0.45857 0.39939 0.07002 0.0
C1427 C 0.46458 0.40098 0.11626 0.0
C1428 C 0.45919 0.41213 0.04722 0.0
C1429 C 0.45297 0.41107 0.99838 0.0
C1430 C 0.4584 0.40638 0.95937 0.0
C1431 C 0.45231 0.4052 0.91357 0.0
C1432 C 0.44086 0.4088 0.90626 0.0
C1433 C 0.43552 0.41364 0.94472 0.0
C1434 C 0.44157 0.41482 0.99062 0.0
C1435 C 0.5043 0.46303 0.17746 0.0
C1436 C 0.49778 0.47234 0.18255 0.0
C1437 C 0.4963 0.44889 0.15487 0.0
C1438 C 0.48147 0.44354 0.13775 0.0
C1439 C 0.4751 0.45302 0.14139 0.0
C1440 C 0.4832 0.46731 0.16349 0.0
C1441 C 0.47267 0.42801 0.11653 0.0
C1442 C 0.46623 0.42629 0.07073 0.0
C1443 C 0.47135 0.41504 0.14021 0.0
C1444 C 0.47642 0.41571 0.19054 0.0
C1445 C 0.47118 0.42152 0.22698 0.0
C1446 C 0.47605 0.42222 0.27428 0.0
C1447 C 0.48609 0.41705 0.28567 0.0
C1448 C 0.49125 0.41112 0.24979 0.0
C1449 C 0.48642 0.41041 0.20242 0.0
H1450 H 0.48984 0.4176 0.32231 0.0
H1451 H 0.43615 0.40787 0.87078 0.0
H1452 H 0.01614 0.35177 0.52801 0.0
H1453 H 0.02961 0.37627 0.56988 0.0
H1454 H 1.00145 0.39093 0.49867 0.0
H1455 H 0.98806 0.36665 0.45664 0.0
H1456 H 0.03086 0.41297 0.49666 0.0
H1457 H 0.99492 0.37941 0.6142 0.0
H1458 H 0.98255 0.35655 0.66541 0.0
H1459 H 0.02523 0.36981 0.73421 0.0
H1460 H 0.0379 0.39265 0.68292 0.0
H1461 H 0.03642 0.46284 0.71445 0.0
H1462 H 0.02543 0.4386 0.67224 0.0
H1463 H 0.06822 0.45313 0.601 0.0
H1464 H 0.07937 0.47761 0.64307 0.0
H1465 H 0.03262 0.41649 0.6742 0.0
H1466 H 0.06006 0.43668 0.48799 0.0
H1467 H 0.07038 0.45953 0.43668 0.0
H1468 H 0.04116 0.47305 0.50535 0.0
H1469 H 0.03053 0.45019 0.55658 0.0
C1470 C 0.01278 0.36019 0.52144 0.0
C1471 C 1.00098 0.35721 0.48905 0.0
C1472 C 0.02049 0.37418 0.5454 0.0
C1473 C 0.01652 0.38543 0.53746 0.0
C1474 C 1.00476 0.38247 0.50518 0.0
C1475 C 0.99705 0.36851 0.48138 0.0
C1476 C 0.02448 0.40031 0.56282 0.0
C1477 C 0.03134 0.41373 0.53549 0.0
C1478 C 0.02498 0.40134 0.61345 0.0
C1479 C 0.01738 0.38764 0.64437 0.0
C1480 C 1.00169 0.37738 0.63998 0.0
C1481 C 0.99462 0.36444 0.66907 0.0
C1482 C 1.00311 0.36171 0.70294 0.0
C1483 C 0.01868 0.37193 0.70789 0.0
C1484 C 0.0258 0.38487 0.67885 0.0
C1485 C 0.04353 0.46097 0.68967 0.0
C1486 C 0.05879 0.47223 0.68207 0.0
C1487 C 0.03722 0.44703 0.66575 0.0
C1488 C 0.04597 0.44403 0.63342 0.0
C1489 C 0.06121 0.45524 0.62552 0.0
C1490 C 0.06757 0.46922 0.6496 0.0
C1491 C 0.03899 0.42916 0.60804 0.0
C1492 C 0.03234 0.41573 0.63537 0.0
C1493 C 0.03846 0.42813 0.5574 0.0
C1494 C 0.04465 0.44183 0.52648 0.0
C1495 C 0.05582 0.44452 0.49203 0.0
C1496 C 0.06172 0.45747 0.46297 0.0
C1497 C 0.05648 0.46776 0.46788 0.0
C1498 C 0.04527 0.4651 0.50173 0.0
C1499 C 0.03931 0.45216 0.53083 0.0
H1500 H 0.06107 0.47779 0.44537 0.0
H1501 H 0.99762 0.35169 0.72544 0.0
H1502 H 0.6847 0.67619 0.63352 0.0
H1503 H 0.70854 0.68828 0.58796 0.0
H1504 H 0.72733 0.66874 0.68451 0.0
H1505 H 0.7035 0.65629 0.72897 0.0
H1506 H 0.73654 0.7087 0.6077 0.0
H1507 H 0.75128 0.66047 0.62859 0.0
H1508 H 0.73792 0.63248 0.63528 0.0
H1509 H 0.69913 0.62934 0.56287 0.0
H1510 H 0.71233 0.65727 0.55518 0.0
H1511 H 0.81396 0.7381 0.54287 0.0
H1512 H 0.78948 0.72621 0.5848 0.0
H1513 H 0.76998 0.69186 0.47443 0.0
H1514 H 0.79448 0.70323 0.43389 0.0
H1515 H 0.76007 0.67868 0.55316 0.0
H1516 H 0.76353 0.72328 0.48364 0.0
H1517 H 0.77509 0.75067 0.46607 0.0
H1518 H 0.77428 0.76004 0.61586 0.0
H1519 H 0.76289 0.73271 0.63439 0.0
C1520 C 0.69389 0.67441 0.64483 0.0
C1521 C 0.69213 0.66515 0.68459 0.0
C1522 C 0.70754 0.68138 0.61889 0.0
C1523 C 0.7197 0.67927 0.63232 0.0
C1524 C 0.71803 0.67028 0.67265 0.0
C1525 C 0.70438 0.66319 0.69818 0.0
C1526 C 0.73414 0.6864 0.6044 0.0
C1527 C 0.74168 0.70213 0.59568 0.0
C1528 C 0.74072 0.67782 0.58769 0.0
C1529 C 0.73275 0.66098 0.59175 0.0
C1530 C 0.73992 0.6538 0.61394 0.0
C1531 C 0.73237 0.63795 0.61793 0.0
C1532 C 0.71767 0.62914 0.59965 0.0
C1533 C 0.7105 0.63617 0.57718 0.0
C1534 C 0.718 0.65202 0.57305 0.0
C1535 C 0.80445 0.72798 0.52773 0.0
C1536 C 0.80618 0.7216 0.48512 0.0
C1537 C 0.79042 0.72124 0.55153 0.0
C1538 C 0.77774 0.70823 0.5325 0.0
C1539 C 0.77953 0.70184 0.49005 0.0
C1540 C 0.79358 0.70839 0.46682 0.0
C1541 C 0.76264 0.70106 0.55683 0.0
C1542 C 0.75497 0.68529 0.56503 0.0
C1543 C 0.7557 0.70953 0.57145 0.0
C1544 C 0.76249 0.72597 0.56044 0.0
C1545 C 0.76591 0.7312 0.51286 0.0
C1546 C 0.77242 0.74671 0.50273 0.0
C1547 C 0.77545 0.7571 0.53984 0.0
C1548 C 0.77194 0.75198 0.58716 0.0
C1549 C 0.76545 0.73648 0.59749 0.0
H1550 H 0.78049 0.7691 0.53192 0.0
H1551 H 0.71184 0.61687 0.6028 0.0
H1552 H 0.46281 0.17583 0.46026 0.0
H1553 H 0.47314 0.16186 0.50193 0.0
H1554 H 0.43029 0.13477 0.57428 0.0
H1555 H 0.41983 0.14879 0.53282 0.0
H1556 H 0.45403 0.14353 0.63522 0.0
H1557 H 0.43938 0.11975 0.48211 0.0
H1558 H 0.43802 0.11855 0.39383 0.0
H1559 H 0.48647 0.13795 0.38603 0.0
H1560 H 0.48815 0.13948 0.4743 0.0
H1561 H 0.48244 0.08484 0.64716 0.0
H1562 H 0.4685 0.09534 0.60535 0.0
H1563 H 0.49709 0.13888 0.67226 0.0
H1564 H 0.51095 0.12852 0.71428 0.0
H1565 H 0.477 0.11845 0.54188 0.0
H1566 H 0.47586 0.15504 0.70024 0.0
H1567 H 0.47537 0.15443 0.78868 0.0
H1568 H 0.45481 0.10576 0.78621 0.0
H1569 H 0.45496 0.10606 0.69781 0.0
C1570 C 0.45556 0.16696 0.48518 0.0
C1571 C 0.44045 0.16341 0.49305 0.0
C1572 C 0.46148 0.15892 0.5088 0.0
C1573 C 0.45243 0.14712 0.54071 0.0
C1574 C 0.43746 0.14379 0.54966 0.0
C1575 C 0.4315 0.15181 0.52589 0.0
C1576 C 0.45866 0.13831 0.56455 0.0
C1577 C 0.45902 0.13803 0.61482 0.0
C1578 C 0.46486 0.13081 0.53795 0.0
C1579 C 0.4639 0.12984 0.48484 0.0
C1580 C 0.44976 0.12386 0.46157 0.0
C1581 C 0.44893 0.12311 0.41153 0.0
C1582 C 0.46216 0.1282 0.38433 0.0
C1583 C 0.47624 0.13402 0.40714 0.0
C1584 C 0.47714 0.13482 0.45719 0.0
C1585 C 0.48581 0.09667 0.65278 0.0
C1586 C 0.49777 0.10581 0.68428 0.0
C1587 C 0.47783 0.10265 0.62882 0.0
C1588 C 0.4816 0.11784 0.63621 0.0
C1589 C 0.4938 0.12707 0.66663 0.0
C1590 C 0.50177 0.12112 0.69047 0.0
C1591 C 0.4728 0.12411 0.61251 0.0
C1592 C 0.47195 0.1239 0.56228 0.0
C1593 C 0.4659 0.13092 0.63916 0.0
C1594 C 0.46555 0.1306 0.69237 0.0
C1595 C 0.47116 0.1442 0.71857 0.0
C1596 C 0.47096 0.14391 0.7687 0.0
C1597 C 0.4651 0.13007 0.79305 0.0
C1598 C 0.45939 0.11648 0.76732 0.0
C1599 C 0.45955 0.11671 0.71719 0.0
H1600 H 0.46497 0.12987 0.83185 0.0
H1601 H 0.46149 0.12761 0.34559 0.0
H1602 H 0.35794 0.01992 0.01072 0.0
H1603 H 0.3825 0.03329 0.96957 0.0
H1604 H 0.38627 0.99282 0.9774 0.0
H1605 H 0.36217 0.97975 0.02063 0.0
H1606 H 0.41181 0.01505 0.99955 0.0
H1607 H 0.37746 0.00669 0.86978 0.0
H1608 H 0.35675 0.00777 0.8271 0.0
H1609 H 0.38187 0.05659 0.8332 0.0
H1610 H 0.40265 0.05579 0.87647 0.0
H1611 H 0.46791 0.03306 0.81884 0.0
H1612 H 0.44383 0.02219 0.86259 0.0
H1613 H 0.45056 0.06716 0.88541 0.0
H1614 H 0.47487 0.07819 0.84225 0.0
H1615 H 0.42058 0.04448 0.84937 0.0
H1616 H 0.45575 0.05161 0.97615 0.0
H1617 H 0.47632 0.04915 0.01432 0.0
H1618 H 0.44892 1.00046 0.00798 0.0
H1619 H 0.42826 1.00263 0.96911 0.0
C1620 C 0.36396 0.01386 1.00321 0.0
C1621 C 0.35812 0.99878 0.01884 0.0
C1622 C 0.378 0.02149 0.97949 0.0
C1623 C 0.38626 0.01406 0.96972 0.0
C1624 C 0.38022 0.99889 0.98459 0.0
C1625 C 0.36639 0.99138 0.00915 0.0
C1626 C 0.40142 0.02213 0.94559 0.0
C1627 C 0.4136 0.02131 0.96639 0.0
C1628 C 0.40401 0.03066 0.90282 0.0
C1629 C 0.39153 0.03117 0.87683 0.0
C1630 C 0.37851 0.01765 0.86234 0.0
C1631 C 0.36677 0.01821 0.83799 0.0
C1632 C 0.36797 0.03224 0.82758 0.0
C1633 C 0.38094 0.04574 0.84137 0.0
C1634 C 0.39271 0.04523 0.86578 0.0
C1635 C 0.46432 0.04066 0.83339 0.0
C1636 C 0.47332 0.0565 0.82722 0.0
C1637 C 0.45057 0.03443 0.8584 0.0
C1638 C 0.44544 0.04387 0.87727 0.0
C1639 C 0.45434 0.05968 0.8711 0.0
C1640 C 0.46825 0.06596 0.84671 0.0
C1641 C 0.43069 0.03712 0.90308 0.0
C1642 C 0.41867 0.03824 0.88264 0.0
C1643 C 0.42815 0.02862 0.94564 0.0
C1644 C 0.44051 0.02729 0.96934 0.0
C1645 C 0.45416 0.04038 0.98254 0.0
C1646 C 0.46583 0.03904 0.00437 0.0
C1647 C 0.46394 0.02466 0.01347 0.0
C1648 C 0.45037 0.01159 1.00087 0.0
C1649 C 0.43867 0.01287 0.97899 0.0
H1650 H 0.47299 0.02364 0.03037 0.0
H1651 H 0.35887 0.03265 0.80872 0.0
H1652 H 0.08755 0.47695 0.8336 0.0
H1653 H 0.09884 0.46374 0.87492 0.0
H1654 H 0.14327 0.50375 0.86168 0.0
H1655 H 0.13209 0.51666 0.81819 0.0
H1656 H 0.14605 0.48108 0.84149 0.0
H1657 H 0.12168 0.49134 0.97148 0.0
H1658 H 0.10056 0.49126 0.01531 0.0
H1659 H 0.07584 0.44239 0.0143 0.0
H1660 H 0.09675 0.44218 0.96989 0.0
H1661 H 0.18403 0.46271 0.0227 0.0
H1662 H 0.17118 0.474 0.97915 0.0
H1663 H 0.13229 0.4294 0.95675 0.0
H1664 H 0.14522 0.41794 0.99956 0.0
H1665 H 0.12602 0.45298 0.99419 0.0
H1666 H 0.15248 0.44405 0.86597 0.0
H1667 H 0.17499 0.44566 0.82673 0.0
H1668 H 0.19747 0.49446 0.83065 0.0
H1669 H 0.17517 0.49314 0.87059 0.0
C1670 C 0.0997 0.48296 0.83991 0.0
C1671 C 0.10893 0.49785 0.82274 0.0
C1672 C 0.10616 0.47541 0.86374 0.0
C1673 C 0.12194 0.48277 0.87213 0.0
C1674 C 0.13109 0.49776 0.85561 0.0
C1675 C 0.12469 0.50517 0.8309 0.0
C1676 C 0.12902 0.47477 0.89661 0.0
C1677 C 0.14173 0.47512 0.8752 0.0
C1678 C 0.1233 0.46667 0.9402 0.0
C1679 C 0.11071 0.46675 0.96691 0.0
C1680 C 0.11169 0.48058 0.98028 0.0
C1681 C 0.09977 0.48058 0.00529 0.0
C1682 C 0.08685 0.46683 0.01746 0.0
C1683 C 0.08585 0.45304 0.00477 0.0
C1684 C 0.09774 0.45297 0.97972 0.0
C1685 C 0.17278 0.45528 0.00827 0.0
C1686 C 0.16566 0.43943 0.01442 0.0
C1687 C 0.16547 0.46176 0.98339 0.0
C1688 C 0.15081 0.45253 0.96475 0.0
C1689 C 0.14361 0.4367 0.97091 0.0
C1690 C 0.15104 0.43018 0.99509 0.0
C1691 C 0.14301 0.45952 0.93919 0.0
C1692 C 0.13022 0.45894 0.9604 0.0
C1693 C 0.14882 0.46767 0.89599 0.0
C1694 C 0.1622 0.46849 0.87167 0.0
C1695 C 0.16227 0.45512 0.85884 0.0
C1696 C 0.17499 0.45598 0.83639 0.0
C1697 C 0.18767 0.47015 0.82631 0.0
C1698 C 0.18765 0.48349 0.83853 0.0
C1699 C 0.17496 0.48269 0.86103 0.0
H1700 H 0.1975 0.4708 0.80893 0.0
H1701 H 0.07763 0.46686 0.03682 0.0
H1702 H 0.68088 0.68538 0.86426 0.0
H1703 H 0.69372 0.70971 0.90719 0.0
H1704 H 0.66692 0.72481 0.82973 0.0
H1705 H 0.65416 0.70068 0.78657 0.0
H1706 H 0.69629 0.74671 0.83191 0.0
H1707 H 0.65862 0.71315 0.94467 0.0
H1708 H 0.64517 0.6901 0.99468 0.0
H1709 H 0.68655 0.70253 0.07073 0.0
H1710 H 0.70029 0.72554 0.02067 0.0
H1711 H 0.70163 0.79676 0.05002 0.0
H1712 H 0.69018 0.77252 0.00754 0.0
H1713 H 0.73301 0.78598 0.93798 0.0
H1714 H 0.74457 0.81046 0.98006 0.0
H1715 H 0.69603 0.74974 0.00942 0.0
H1716 H 0.72558 0.7699 0.82562 0.0
H1717 H 0.73689 0.79291 0.77487 0.0
H1718 H 0.70794 0.80734 0.8403 0.0
H1719 H 0.69632 0.78434 0.89094 0.0
C1720 C 0.67768 0.69386 0.85651 0.0
C1721 C 0.66646 0.69105 0.82202 0.0
C1722 C 0.68502 0.70775 0.88112 0.0
C1723 C 0.68125 0.71907 0.87177 0.0
C1724 C 0.67006 0.71628 0.83741 0.0
C1725 C 0.66271 0.70242 0.81293 0.0
C1726 C 0.68892 0.73387 0.89762 0.0
C1727 C 0.6963 0.74736 0.87074 0.0
C1728 C 0.68877 0.73476 0.94825 0.0
C1729 C 0.68052 0.72098 0.97858 0.0
C1730 C 0.66487 0.7109 0.9718 0.0
C1731 C 0.6572 0.69786 1.00019 0.0
C1732 C 0.66501 0.69483 0.03576 0.0
C1733 C 0.68051 0.70487 0.0431 0.0
C1734 C 0.68825 0.71792 0.01475 0.0
C1735 C 0.70864 0.79464 0.02554 0.0
C1736 C 0.72403 0.80562 0.01832 0.0
C1737 C 0.70207 0.78071 1.00146 0.0
C1738 C 0.71069 0.77742 0.96944 0.0
C1739 C 0.72608 0.78833 0.96213 0.0
C1740 C 0.73268 0.80231 0.98623 0.0
C1741 C 0.70346 0.76259 0.9437 0.0
C1742 C 0.69617 0.74908 0.97061 0.0
C1743 C 0.70343 0.76169 0.89305 0.0
C1744 C 0.71022 0.77549 0.86243 0.0
C1745 C 0.7216 0.77797 0.82905 0.0
C1746 C 0.72807 0.79101 0.80033 0.0
C1747 C 0.72318 0.80161 0.80448 0.0
C1748 C 0.71177 0.79916 0.83725 0.0
C1749 C 0.70525 0.78613 0.86602 0.0
H1750 H 0.72821 0.8117 0.78224 0.0
H1751 H 0.65905 0.68473 0.05769 0.0
H1752 H 0.76109 0.01485 0.71831 0.0
H1753 H 0.77282 0.03904 0.76223 0.0
H1754 H 0.79993 0.062 0.63766 0.0
H1755 H 0.78906 0.03779 0.59539 0.0
H1756 H 0.81693 0.07265 0.70759 0.0
H1757 H 0.76568 0.06263 0.67952 0.0
H1758 H 0.73768 0.04783 0.68476 0.0
H1759 H 0.74023 0.04912 0.83835 0.0
H1760 H 0.76824 0.06369 0.83421 0.0
H1761 H 0.81708 0.14428 0.81161 0.0
H1762 H 0.80435 0.12008 0.76786 0.0
H1763 H 0.83147 0.10504 0.84368 0.0
H1764 H 0.84438 0.12915 0.88671 0.0
H1765 H 0.7871 0.0911 0.79701 0.0
H1766 H 0.83941 0.08333 0.77154 0.0
H1767 H 0.86722 0.09913 0.76165 0.0
H1768 H 0.86189 0.13538 0.70366 0.0
H1769 H 0.83406 0.11973 0.71259 0.0
C1770 C 0.76958 0.0251 0.70054 0.0
C1771 C 0.77423 0.02445 0.65359 0.0
C1772 C 0.7762 0.03896 0.72547 0.0
C1773 C 0.78716 0.05251 0.70319 0.0
C1774 C 0.7916 0.05178 0.65599 0.0
C1775 C 0.78535 0.03792 0.63173 0.0
C1776 C 0.7944 0.06744 0.72882 0.0
C1777 C 0.81033 0.07663 0.727 0.0
C1778 C 0.78591 0.07284 0.75414 0.0
C1779 C 0.76907 0.06413 0.75653 0.0
C1780 C 0.76027 0.05968 0.71441 0.0
C1781 C 0.7444 0.05134 0.71717 0.0
C1782 C 0.73718 0.04753 0.76177 0.0
C1783 C 0.74583 0.05207 0.8038 0.0
C1784 C 0.7617 0.06036 0.80129 0.0
C1785 C 0.82039 0.13585 0.81874 0.0
C1786 C 0.83183 0.13872 0.85244 0.0
C1787 C 0.81304 0.12199 0.7939 0.0
C1788 C 0.81704 0.11079 0.80214 0.0
C1789 C 0.82835 0.11359 0.83611 0.0
C1790 C 0.83571 0.1274 0.86078 0.0
C1791 C 0.80949 0.09617 0.77526 0.0
C1792 C 0.79359 0.08706 0.77725 0.0
C1793 C 0.81794 0.09095 0.74919 0.0
C1794 C 0.83466 0.1004 0.7432 0.0
C1795 C 0.84418 0.09465 0.75651 0.0
C1796 C 0.85994 0.10358 0.7511 0.0
C1797 C 0.86632 0.11827 0.73219 0.0
C1798 C 0.85694 0.12403 0.71848 0.0
C1799 C 0.84118 0.11513 0.72377 0.0
H1800 H 0.87853 0.12517 0.72806 0.0
H1801 H 0.72489 0.04108 0.76376 0.0
H1802 H 0.14494 0.8124 0.69221 0.0
H1803 H 0.12026 0.7983 0.73241 0.0
H1804 H 0.10777 0.83037 0.67849 0.0
H1805 H 0.13221 0.84432 0.63751 0.0
H1806 H 0.10605 0.80492 0.80007 0.0
H1807 H 0.0697 0.81164 0.65086 0.0
H1808 H 0.07068 0.81534 0.56328 0.0
H1809 H 0.09846 0.79472 0.54872 0.0
H1810 H 0.09713 0.79029 0.63589 0.0
H1811 H 0.03607 0.79356 0.88589 0.0
H1812 H 0.06025 0.80348 0.84386 0.0
H1813 H 0.04229 0.76192 0.76232 0.0
H1814 H 0.01792 0.75178 0.80458 0.0
H1815 H 0.0587 0.78801 0.70627 0.0
H1816 H 0.06513 0.7666 0.84958 0.0
H1817 H 0.06403 0.76196 0.93662 0.0
H1818 H 0.09623 0.80916 0.96098 0.0
H1819 H 0.09721 0.81421 0.87416 0.0
C1820 C 0.13697 0.81651 0.68915 0.0
C1821 C 0.14052 0.82943 0.66133 0.0
C1822 C 0.12287 0.80844 0.71219 0.0
C1823 C 0.11204 0.81311 0.70783 0.0
C1824 C 0.11579 0.82635 0.68158 0.0
C1825 C 0.12983 0.83435 0.65832 0.0
C1826 C 0.09672 0.80409 0.73003 0.0
C1827 C 0.09571 0.8012 0.77951 0.0
C1828 C 0.08317 0.79886 0.703 0.0
C1829 C 0.08344 0.80078 0.65011 0.0
C1830 C 0.07587 0.80772 0.62894 0.0
C1831 C 0.07646 0.80991 0.57932 0.0
C1832 C 0.0846 0.80524 0.55044 0.0
C1833 C 0.09208 0.79825 0.57109 0.0
C1834 C 0.09139 0.79587 0.62061 0.0
C1835 C 0.03717 0.78651 0.85886 0.0
C1836 C 0.02503 0.77184 0.8487 0.0
C1837 C 0.05106 0.7922 0.83501 0.0
C1838 C 0.05312 0.78338 0.80035 0.0
C1839 C 0.04093 0.76889 0.78907 0.0
C1840 C 0.02703 0.76311 0.81329 0.0
C1841 C 0.06812 0.78939 0.77644 0.0
C1842 C 0.06906 0.79166 0.72667 0.0
C1843 C 0.08158 0.79382 0.80302 0.0
C1844 C 0.08115 0.79081 0.8553 0.0
C1845 C 0.07189 0.77603 0.87349 0.0
C1846 C 0.0713 0.77331 0.9228 0.0
C1847 C 0.08007 0.78525 0.95429 0.0
C1848 C 0.08944 0.79993 0.93653 0.0
C1849 C 0.09001 0.80273 0.88726 0.0
H1850 H 0.0796 0.78311 0.99245 0.0
H1851 H 0.08513 0.80704 0.51208 0.0
H1852 H 0.31551 0.36656 0.65307 0.0
H1853 H 0.32879 0.35596 0.69777 0.0
H1854 H 0.3676 0.40093 0.7148 0.0
H1855 H 0.35424 0.41172 0.67073 0.0
H1856 H 0.37394 0.37719 0.68015 0.0
H1857 H 0.34821 0.38716 0.80768 0.0
H1858 H 0.32602 0.38602 0.84766 0.0
H1859 H 0.30338 0.3372 0.84843 0.0
H1860 H 0.32536 0.33805 0.80777 0.0
H1861 H 0.41232 0.35293 0.84134 0.0
H1862 H 0.40134 0.36652 0.80037 0.0
H1863 H 0.35664 0.32688 0.813 0.0
H1864 H 0.36748 0.31356 0.85581 0.0
H1865 H 0.35448 0.35002 0.83457 0.0
H1866 H 0.37806 0.33889 0.70376 0.0
H1867 H 0.39897 0.33863 0.65965 0.0
H1868 H 0.42414 0.38749 0.65988 0.0
H1869 H 0.40345 0.38803 0.70454 0.0
C1870 C 0.32684 0.37423 0.66655 0.0
C1871 C 0.33382 0.38999 0.6585 0.0
C1872 C 0.3344 0.36815 0.69211 0.0
C1873 C 0.34916 0.37767 0.70958 0.0
C1874 C 0.3562 0.39341 0.70156 0.0
C1875 C 0.34853 0.39955 0.67667 0.0
C1876 C 0.35718 0.37104 0.73575 0.0
C1877 C 0.36988 0.37146 0.71434 0.0
C1878 C 0.35158 0.36321 0.77957 0.0
C1879 C 0.33838 0.36267 0.80429 0.0
C1880 C 0.33845 0.37618 0.816 0.0
C1881 C 0.32592 0.37559 0.83886 0.0
C1882 C 0.31328 0.36155 0.85048 0.0
C1883 C 0.31317 0.34807 0.83937 0.0
C1884 C 0.32567 0.3486 0.81646 0.0
C1885 C 0.40017 0.34709 0.83495 0.0
C1886 C 0.39077 0.33217 0.85171 0.0
C1887 C 0.39389 0.35485 0.81137 0.0
C1888 C 0.37813 0.3477 0.80299 0.0
C1889 C 0.3688 0.3327 0.81911 0.0
C1890 C 0.37503 0.32506 0.84344 0.0
C1891 C 0.37121 0.35589 0.77875 0.0
C1892 C 0.35868 0.35579 0.80053 0.0
C1893 C 0.37682 0.36379 0.73481 0.0
C1894 C 0.38928 0.36349 0.70795 0.0
C1895 C 0.3881 0.34957 0.69472 0.0
C1896 C 0.39991 0.34938 0.66957 0.0
C1897 C 0.4129 0.36303 0.6571 0.0
C1898 C 0.41409 0.37692 0.66964 0.0
C1899 C 0.40232 0.37718 0.69484 0.0
H1900 H 0.42202 0.36286 0.63761 0.0
H1901 H 0.30359 0.36112 0.86818 0.0
H1902 H 0.03469 0.31827 0.37768 0.0
H1903 H 0.05888 0.33198 0.33529 0.0
H1904 H 0.04438 0.36114 0.27016 0.0
H1905 H 0.01997 0.34733 0.31221 0.0
H1906 H 0.05866 0.35287 0.20588 0.0
H1907 H 0.06894 0.37396 0.36338 0.0
H1908 H 0.06902 0.37355 0.45178 0.0
H1909 H 0.09655 0.3524 0.44997 0.0
H1910 H 0.09645 0.35248 0.36151 0.0
H1911 H 0.14628 0.40964 0.19603 0.0
H1912 H 0.1219 0.39904 0.2383 0.0
H1913 H 0.10568 0.35656 0.16306 0.0
H1914 H 0.12986 0.36702 0.12065 0.0
H1915 H 0.10689 0.37482 0.29808 0.0
H1916 H 0.06823 0.34201 0.13642 0.0
H1917 H 0.06822 0.34431 0.04835 0.0
H1918 H 0.09764 0.39268 0.05921 0.0
H1919 H 0.09764 0.3907 0.14732 0.0
C1920 C 0.03657 0.32754 0.35417 0.0
C1921 C 0.02538 0.33173 0.34855 0.0
C1922 C 0.05047 0.33543 0.33013 0.0
C1923 C 0.05356 0.34775 0.30013 0.0
C1924 C 0.04227 0.35171 0.29329 0.0
C1925 C 0.02832 0.34381 0.31739 0.0
C1926 C 0.06863 0.3565 0.27623 0.0
C1927 C 0.06919 0.35769 0.22605 0.0
C1928 C 0.08241 0.36311 0.30258 0.0
C1929 C 0.08258 0.36312 0.35579 0.0
C1930 C 0.07492 0.36912 0.38183 0.0
C1931 C 0.07499 0.36897 0.43195 0.0
C1932 C 0.08276 0.36293 0.45648 0.0
C1933 C 0.09052 0.35707 0.43092 0.0
C1934 C 0.09048 0.35718 0.38079 0.0
C1935 C 0.13754 0.39802 0.18863 0.0
C1936 C 0.14003 0.38921 0.15478 0.0
C1937 C 0.12362 0.39198 0.21287 0.0
C1938 C 0.11189 0.37708 0.20338 0.0
C1939 C 0.11447 0.36817 0.17041 0.0
C1940 C 0.12836 0.37416 0.14635 0.0
C1941 C 0.0969 0.37076 0.22769 0.0
C1942 C 0.09635 0.37005 0.27794 0.0
C1943 C 0.08314 0.36484 0.20146 0.0
C1944 C 0.08303 0.36617 0.14847 0.0
C1945 C 0.07464 0.35314 0.12002 0.0
C1946 C 0.07464 0.35439 0.07009 0.0
C1947 C 0.08296 0.36862 0.04819 0.0
C1948 C 0.09125 0.38165 0.07619 0.0
C1949 C 0.09126 0.38047 0.12613 0.0
H1950 H 0.08297 0.36956 0.00953 0.0
H1951 H 0.0828 0.36282 0.49528 0.0
H1952 H 0.82247 0.75661 0.29877 0.0
H1953 H 0.81024 0.7685 0.25479 0.0
H1954 H 0.82708 0.80473 0.35916 0.0
H1955 H 0.83976 0.79327 0.40199 0.0
H1956 H 0.78886 0.77458 0.27368 0.0
H1957 H 0.83444 0.83767 0.31018 0.0
H1958 H 0.86215 0.8532 0.32275 0.0
H1959 H 0.86882 0.82048 0.24501 0.0
H1960 H 0.84118 0.80486 0.23144 0.0
H1961 H 0.75802 0.82157 0.20841 0.0
H1962 H 0.76973 0.80901 0.25162 0.0
H1963 H 0.80634 0.82659 0.14857 0.0
H1964 H 0.79509 0.8396 0.10676 0.0
H1965 H 0.81794 0.82929 0.23032 0.0
H1966 H 0.77586 0.78831 0.14941 0.0
H1967 H 0.74903 0.77191 0.12601 0.0
H1968 H 0.73691 0.75886 0.27298 0.0
H1969 H 0.76366 0.77535 0.29734 0.0
C1970 C 0.82364 0.76716 0.31213 0.0
C1971 C 0.83225 0.77409 0.35355 0.0
C1972 C 0.81657 0.77392 0.2871 0.0
C1973 C 0.8179 0.78766 0.30317 0.0
C1974 C 0.82618 0.79435 0.34525 0.0
C1975 C 0.83341 0.78774 0.36982 0.0
C1976 C 0.81073 0.79509 0.276 0.0
C1977 C 0.79523 0.78654 0.26416 0.0
C1978 C 0.81905 0.81063 0.26264 0.0
C1979 C 0.83572 0.82003 0.27024 0.0
C1980 C 0.84183 0.83382 0.29563 0.0
C1981 C 0.85752 0.84263 0.30295 0.0
C1982 C 0.86723 0.8378 0.28483 0.0
C1983 C 0.86128 0.82418 0.25919 0.0
C1984 C 0.8456 0.81533 0.25172 0.0
C1985 C 0.76859 0.82279 0.19516 0.0
C1986 C 0.77563 0.83162 0.15422 0.0
C1987 C 0.77524 0.81552 0.21968 0.0
C1988 C 0.78886 0.81666 0.2031 0.0
C1989 C 0.79588 0.82554 0.16232 0.0
C1990 C 0.7894 0.83298 0.13835 0.0
C1991 C 0.79601 0.80883 0.22816 0.0
C1992 C 0.81154 0.81733 0.23981 0.0
C1993 C 0.78782 0.79313 0.23976 0.0
C1994 C 0.77174 0.78318 0.22524 0.0
C1995 C 0.76746 0.78203 0.17678 0.0
C1996 C 0.75227 0.77271 0.16334 0.0
C1997 C 0.74126 0.76438 0.19801 0.0
C1998 C 0.74544 0.76534 0.24618 0.0
C1999 C 0.76062 0.77466 0.25982 0.0
H2000 H 0.72951 0.75717 0.18753 0.0
H2001 H 0.87938 0.84464 0.29057 0.0
H2002 H 0.35539 0.02449 0.16482 0.0
H2003 H 0.36865 0.04929 0.20464 0.0
H2004 H 0.32668 0.05034 0.2098 0.0
H2005 H 0.3137 0.02604 0.16743 0.0
H2006 H 0.34716 0.07635 0.18511 0.0
H2007 H 0.34452 0.043 0.31184 0.0
H2008 H 0.34829 0.02326 0.3503 0.0
H2009 H 0.39657 0.05087 0.33069 0.0
H2010 H 0.39307 0.07071 0.29157 0.0
H2011 H 0.36719 0.13271 0.36598 0.0
H2012 H 0.35627 0.10861 0.32235 0.0
H2013 H 0.40131 0.11711 0.28895 0.0
H2014 H 0.41238 0.14139 0.33221 0.0
H2015 H 0.38096 0.08723 0.32583 0.0
H2016 H 0.3825 0.12136 0.20329 0.0
H2017 H 0.37759 0.14102 0.17012 0.0
H2018 H 0.32954 0.11124 0.18812 0.0
H2019 H 0.33417 0.09148 0.22212 0.0
C2020 C 0.349 0.02997 0.17494 0.0
C2021 C 0.33351 0.02332 0.1632 0.0
C2022 C 0.35656 0.04414 0.1979 0.0
C2023 C 0.34867 0.05171 0.211 0.0
C2024 C 0.3331 0.04485 0.20001 0.0
C2025 C 0.32565 0.0309 0.17599 0.0
C2026 C 0.35661 0.06695 0.2347 0.0
C2027 C 0.35438 0.07859 0.21627 0.0
C2028 C 0.36638 0.07016 0.27473 0.0
C2029 C 0.36851 0.05826 0.29833 0.0
C2030 C 0.35593 0.04482 0.31543 0.0
C2031 C 0.35802 0.03362 0.33739 0.0
C2032 C 0.37266 0.03579 0.34281 0.0
C2033 C 0.38524 0.04919 0.3264 0.0
C2034 C 0.38321 0.06042 0.30437 0.0
C2035 C 0.37479 0.12952 0.34914 0.0
C2036 C 0.39066 0.139 0.35244 0.0
C2037 C 0.36853 0.11575 0.32417 0.0
C2038 C 0.37799 0.11111 0.30231 0.0
C2039 C 0.39383 0.1205 0.30557 0.0
C2040 C 0.40012 0.1344 0.33004 0.0
C2041 C 0.37124 0.09634 0.2766 0.0
C2042 C 0.37375 0.08487 0.29459 0.0
C2043 C 0.36151 0.09319 0.23674 0.0
C2044 C 0.35869 0.10498 0.21562 0.0
C2045 C 0.37089 0.11904 0.2005 0.0
C2046 C 0.36816 0.1302 0.18149 0.0
C2047 C 0.35327 0.12739 0.17711 0.0
C2048 C 0.34107 0.1134 0.19157 0.0
C2049 C 0.34374 0.10221 0.21066 0.0
H2050 H 0.35118 0.13605 0.16243 0.0
H2051 H 0.37425 0.02711 0.35982 0.0
loop_
_geom_bond_atom_site_label_1
_geom_bond_atom_site_label_2
_geom_bond_distance
_geom_bond_site_symmetry_2
_ccdc_geom_bond_type
C0 O2 1.247 . S
C0 O4 1.258 . S
C1 O8 1.247 . S
C1 O9 1.258 . S
O2 C0 1.247 . S
O2 Zn3 2.028 . S
Zn3 O2 2.028 . S
Zn3 O7 2.035 . S
Zn3 O9 2.035 . S
Zn3 O10 2.028 . S
O4 C0 1.258 . S
O4 Zn5 2.035 . S
Zn5 O4 2.035 . S
Zn5 O6 2.028 . S
Zn5 O8 2.028 . S
Zn5 O11 2.035 . S
O6 Zn5 2.028 . S
O6 C12 1.247 . S
O7 Zn3 2.035 . S
O7 C12 1.258 . S
O8 C1 1.247 . S
O8 Zn5 2.028 . S
O9 C1 1.258 . S
O9 Zn3 2.035 . S
O10 Zn3 2.028 . S
O10 C13 1.247 . S
O11 Zn5 2.035 . S
O11 C13 1.258 . S
C12 O6 1.247 . S
C12 O7 1.258 . S
C13 O10 1.247 . S
C13 O11 1.258 . S
C14 O16 1.247 . S
C14 O18 1.258 . S
C15 O22 1.247 . S
C15 O23 1.258 . S
O16 C14 1.247 . S
O16 Zn17 2.028 . S
Zn17 O16 2.028 . S
Zn17 O21 2.035 . S
Zn17 O23 2.035 . S
Zn17 O24 2.028 . S
O18 C14 1.258 . S
O18 Zn19 2.035 . S
Zn19 O18 2.035 . S
Zn19 O20 2.028 . S
Zn19 O22 2.028 . S
Zn19 O25 2.035 . S
O20 Zn19 2.028 . S
O20 C26 1.247 . S
O21 Zn17 2.035 . S
O21 C26 1.258 . S
O22 C15 1.247 . S
O22 Zn19 2.028 . S
O23 C15 1.258 . S
O23 Zn17 2.035 . S
O24 Zn17 2.028 . S
O24 C27 1.247 . S
O25 Zn19 2.035 . S
O25 C27 1.258 . S
C26 O20 1.247 . S
C26 O21 1.258 . S
C27 O24 1.247 . S
C27 O25 1.258 . S
C28 O30 1.247 . S
C28 O32 1.258 . S
C29 O36 1.247 . S
C29 O37 1.258 . S
O30 C28 1.247 . S
O30 Zn31 2.028 . S
Zn31 O30 2.028 . S
Zn31 O35 2.035 . S
Zn31 O37 2.035 . S
Zn31 O38 2.028 . S
O32 C28 1.258 . S
O32 Zn33 2.035 . S
Zn33 O32 2.035 . S
Zn33 O34 2.028 . S
Zn33 O36 2.028 . S
Zn33 O39 2.035 . S
O34 Zn33 2.028 . S
O34 C40 1.247 . S
O35 Zn31 2.035 . S
O35 C40 1.258 . S
O36 C29 1.247 . S
O36 Zn33 2.028 . S
O37 C29 1.258 . S
O37 Zn31 2.035 . S
O38 Zn31 2.028 . S
O38 C41 1.247 . S
O39 Zn33 2.035 . S
O39 C41 1.258 . S
C40 O34 1.247 . S
C40 O35 1.258 . S
C41 O38 1.247 . S
C41 O39 1.258 . S
C42 O44 1.247 . S
C42 O46 1.258 . S
C43 O50 1.247 . S
C43 O51 1.258 . S
O44 C42 1.247 . S
O44 Zn45 2.028 . S
Zn45 O44 2.028 . S
Zn45 O49 2.035 . S
Zn45 O51 2.035 . S
Zn45 O52 2.028 . S
O46 C42 1.258 . S
O46 Zn47 2.035 . S
Zn47 O46 2.035 . S
Zn47 O48 2.028 . S
Zn47 O50 2.028 . S
Zn47 O53 2.035 . S
O48 Zn47 2.028 . S
O48 C54 1.247 . S
O49 Zn45 2.035 . S
O49 C54 1.258 . S
O50 C43 1.247 . S
O50 Zn47 2.028 . S
O51 C43 1.258 . S
O51 Zn45 2.035 . S
O52 Zn45 2.028 . S
O52 C55 1.247 . S
O53 Zn47 2.035 . S
O53 C55 1.258 . S
C54 O48 1.247 . S
C54 O49 1.258 . S
C55 O52 1.247 . S
C55 O53 1.258 . S
C56 O58 1.247 . S
C56 O60 1.258 . S
C57 O64 1.247 . S
C57 O65 1.258 . S
O58 C56 1.247 . S
O58 Zn59 2.028 . S
Zn59 O58 2.028 . S
Zn59 O63 2.035 . S
Zn59 O65 2.035 . S
Zn59 O66 2.028 . S
O60 C56 1.258 . S
O60 Zn61 2.035 . S
Zn61 O60 2.035 . S
Zn61 O62 2.028 . S
Zn61 O64 2.028 . S
Zn61 O67 2.035 . S
O62 Zn61 2.028 . S
O62 C68 1.247 . S
O63 Zn59 2.035 . S
O63 C68 1.258 . S
O64 C57 1.247 . S
O64 Zn61 2.028 . S
O65 C57 1.258 . S
O65 Zn59 2.035 . S
O66 Zn59 2.028 . S
O66 C69 1.247 . S
O67 Zn61 2.035 . S
O67 C69 1.258 . S
C68 O62 1.247 . S
C68 O63 1.258 . S
C69 O66 1.247 . S
C69 O67 1.258 . S
C70 O72 1.247 . S
C70 O74 1.258 . S
C71 O78 1.247 . S
C71 O79 1.258 . S
O72 C70 1.247 . S
O72 Zn73 2.028 . S
Zn73 O72 2.028 . S
Zn73 O77 2.035 . S
Zn73 O79 2.035 . S
Zn73 O80 2.028 . S
O74 C70 1.258 . S
O74 Zn75 2.035 . S
Zn75 O74 2.035 . S
Zn75 O76 2.028 . S
Zn75 O78 2.028 . S
Zn75 O81 2.035 . S
O76 Zn75 2.028 . S
O76 C82 1.247 . S
O77 Zn73 2.035 . S
O77 C82 1.258 . S
O78 C71 1.247 . S
O78 Zn75 2.028 . S
O79 C71 1.258 . S
O79 Zn73 2.035 . S
O80 Zn73 2.028 . S
O80 C83 1.247 . S
O81 Zn75 2.035 . S
O81 C83 1.258 . S
C82 O76 1.247 . S
C82 O77 1.258 . S
C83 O80 1.247 . S
C83 O81 1.258 . S
C84 O86 1.247 . S
C84 O88 1.258 . S
C85 O92 1.247 . S
C85 O93 1.258 . S
O86 C84 1.247 . S
O86 Zn87 2.028 . S
Zn87 O86 2.028 . S
Zn87 O91 2.035 . S
Zn87 O93 2.035 . S
Zn87 O94 2.028 . S
O88 C84 1.258 . S
O88 Zn89 2.035 . S
Zn89 O88 2.035 . S
Zn89 O90 2.028 1_565 S
Zn89 O92 2.028 . S
Zn89 O95 2.035 . S
O90 Zn89 2.028 1_545 S
O90 C96 1.247 . S
O91 Zn87 2.035 . S
O91 C96 1.258 1_565 S
O92 C85 1.247 . S
O92 Zn89 2.028 . S
O93 C85 1.258 . S
O93 Zn87 2.035 . S
O94 Zn87 2.028 . S
O94 C97 1.247 . S
O95 Zn89 2.035 . S
O95 C97 1.258 . S
C96 O90 1.247 . S
C96 O91 1.258 1_545 S
C97 O94 1.247 . S
C97 O95 1.258 . S
C98 O100 1.247 . S
C98 O102 1.258 . S
C99 O106 1.247 . S
C99 O107 1.258 . S
O100 C98 1.247 . S
O100 Zn101 2.028 . S
Zn101 O100 2.028 . S
Zn101 O105 2.035 . S
Zn101 O107 2.035 . S
Zn101 O108 2.028 . S
O102 C98 1.258 . S
O102 Zn103 2.035 . S
Zn103 O102 2.035 . S
Zn103 O104 2.028 . S
Zn103 O106 2.028 . S
Zn103 O109 2.035 . S
O104 Zn103 2.028 . S
O104 C110 1.247 . S
O105 Zn101 2.035 . S
O105 C110 1.258 . S
O106 C99 1.247 . S
O106 Zn103 2.028 . S
O107 C99 1.258 . S
O107 Zn101 2.035 . S
O108 Zn101 2.028 . S
O108 C111 1.247 . S
O109 Zn103 2.035 . S
O109 C111 1.258 . S
C110 O104 1.247 . S
C110 O105 1.258 . S
C111 O108 1.247 . S
C111 O109 1.258 . S
C112 O114 1.247 . S
C112 O116 1.258 . S
C113 O120 1.247 . S
C113 O121 1.258 . S
O114 C112 1.247 . S
O114 Zn115 2.028 . S
Zn115 O114 2.028 . S
Zn115 O119 2.035 . S
Zn115 O121 2.035 . S
Zn115 O122 2.028 . S
O116 C112 1.258 . S
O116 Zn117 2.035 . S
Zn117 O116 2.035 . S
Zn117 O118 2.028 . S
Zn117 O120 2.028 . S
Zn117 O123 2.035 . S
O118 Zn117 2.028 . S
O118 C124 1.247 . S
O119 Zn115 2.035 . S
O119 C124 1.258 . S
O120 C113 1.247 . S
O120 Zn117 2.028 . S
O121 C113 1.258 . S
O121 Zn115 2.035 . S
O122 Zn115 2.028 . S
O122 C125 1.247 . S
O123 Zn117 2.035 . S
O123 C125 1.258 . S
C124 O118 1.247 . S
C124 O119 1.258 . S
C125 O122 1.247 . S
C125 O123 1.258 . S
C126 O128 1.247 . S
C126 O130 1.258 . S
C127 O134 1.247 . S
C127 O135 1.258 . S
O128 C126 1.247 . S
O128 Zn129 2.028 . S
Zn129 O128 2.028 . S
Zn129 O133 2.035 . S
Zn129 O135 2.035 . S
Zn129 O136 2.028 . S
O130 C126 1.258 . S
O130 Zn131 2.035 . S
Zn131 O130 2.035 . S
Zn131 O132 2.028 . S
Zn131 O134 2.028 . S
Zn131 O137 2.035 . S
O132 Zn131 2.028 . S
O132 C138 1.247 . S
O133 Zn129 2.035 . S
O133 C138 1.258 . S
O134 C127 1.247 . S
O134 Zn131 2.028 . S
O135 C127 1.258 . S
O135 Zn129 2.035 . S
O136 Zn129 2.028 . S
O136 C139 1.247 . S
O137 Zn131 2.035 . S
O137 C139 1.258 . S
C138 O132 1.247 . S
C138 O133 1.258 . S
C139 O136 1.247 . S
C139 O137 1.258 . S
C140 O142 1.247 1_545 S
C140 O144 1.258 . S
C141 O148 1.247 . S
C141 O149 1.258 . S
O142 C140 1.247 1_565 S
O142 Zn143 2.028 . S
Zn143 O142 2.028 . S
Zn143 O147 2.035 . S
Zn143 O149 2.035 . S
Zn143 O150 2.028 . S
O144 C140 1.258 . S
O144 Zn145 2.035 1_545 S
Zn145 O144 2.035 1_565 S
Zn145 O146 2.028 . S
Zn145 O148 2.028 . S
Zn145 O151 2.035 . S
O146 Zn145 2.028 . S
O146 C152 1.247 . S
O147 Zn143 2.035 . S
O147 C152 1.258 . S
O148 C141 1.247 . S
O148 Zn145 2.028 . S
O149 C141 1.258 . S
O149 Zn143 2.035 . S
O150 Zn143 2.028 . S
O150 C153 1.247 . S
O151 Zn145 2.035 . S
O151 C153 1.258 . S
C152 O146 1.247 . S
C152 O147 1.258 . S
C153 O150 1.247 . S
C153 O151 1.258 . S
C154 O156 1.247 . S
C154 O158 1.258 . S
C155 O162 1.247 . S
C155 O163 1.258 . S
O156 C154 1.247 . S
O156 Zn157 2.028 . S
Zn157 O156 2.028 . S
Zn157 O161 2.035 . S
Zn157 O163 2.035 . S
Zn157 O164 2.028 . S
O158 C154 1.258 . S
O158 Zn159 2.035 . S
Zn159 O158 2.035 . S
Zn159 O160 2.028 . S
Zn159 O162 2.028 . S
Zn159 O165 2.035 . S
O160 Zn159 2.028 . S
O160 C166 1.247 . S
O161 Zn157 2.035 . S
O161 C166 1.258 . S
O162 C155 1.247 . S
O162 Zn159 2.028 . S
O163 C155 1.258 . S
O163 Zn157 2.035 . S
O164 Zn157 2.028 . S
O164 C167 1.247 . S
O165 Zn159 2.035 . S
O165 C167 1.258 . S
C166 O160 1.247 . S
C166 O161 1.258 . S
C167 O164 1.247 . S
C167 O165 1.258 . S
C168 O170 1.247 . S
C168 O172 1.258 . S
C169 O176 1.247 . S
C169 O177 1.258 . S
O170 C168 1.247 . S
O170 Zn171 2.028 . S
Zn171 O170 2.028 . S
Zn171 O175 2.035 . S
Zn171 O177 2.035 . S
Zn171 O178 2.028 . S
O172 C168 1.258 . S
O172 Zn173 2.035 . S
Zn173 O172 2.035 . S
Zn173 O174 2.028 . S
Zn173 O176 2.028 . S
Zn173 O179 2.035 . S
O174 Zn173 2.028 . S
O174 C180 1.247 . S
O175 Zn171 2.035 . S
O175 C180 1.258 . S
O176 C169 1.247 . S
O176 Zn173 2.028 . S
O177 C169 1.258 . S
O177 Zn171 2.035 . S
O178 Zn171 2.028 . S
O178 C181 1.247 . S
O179 Zn173 2.035 . S
O179 C181 1.258 . S
C180 O174 1.247 . S
C180 O175 1.258 . S
C181 O178 1.247 . S
C181 O179 1.258 . S
C182 O184 1.247 . S
C182 O186 1.258 . S
C183 O190 1.247 . S
C183 O191 1.258 . S
O184 C182 1.247 . S
O184 Zn185 2.028 . S
Zn185 O184 2.028 . S
Zn185 O189 2.035 . S
Zn185 O191 2.035 . S
Zn185 O192 2.028 . S
O186 C182 1.258 . S
O186 Zn187 2.035 . S
Zn187 O186 2.035 . S
Zn187 O188 2.028 . S
Zn187 O190 2.028 . S
Zn187 O193 2.035 . S
O188 Zn187 2.028 . S
O188 C194 1.247 . S
O189 Zn185 2.035 . S
O189 C194 1.258 . S
O190 C183 1.247 . S
O190 Zn187 2.028 . S
O191 C183 1.258 . S
O191 Zn185 2.035 . S
O192 Zn185 2.028 . S
O192 C195 1.247 . S
O193 Zn187 2.035 . S
O193 C195 1.258 . S
C194 O188 1.247 . S
C194 O189 1.258 . S
C195 O192 1.247 . S
C195 O193 1.258 . S
C196 O198 1.247 . S
C196 O200 1.258 . S
C197 O204 1.247 . S
C197 O205 1.258 . S
O198 C196 1.247 . S
O198 Zn199 2.028 . S
Zn199 O198 2.028 . S
Zn199 O203 2.035 . S
Zn199 O205 2.035 . S
Zn199 O206 2.028 . S
O200 C196 1.258 . S
O200 Zn201 2.035 . S
Zn201 O200 2.035 . S
Zn201 O202 2.028 . S
Zn201 O204 2.028 . S
Zn201 O207 2.035 1_655 S
O202 Zn201 2.028 . S
O202 C208 1.247 . S
O203 Zn199 2.035 . S
O203 C208 1.258 . S
O204 C197 1.247 . S
O204 Zn201 2.028 . S
O205 C197 1.258 . S
O205 Zn199 2.035 . S
O206 Zn199 2.028 . S
O206 C209 1.247 1_655 S
O207 Zn201 2.035 1_455 S
O207 C209 1.258 . S
C208 O202 1.247 . S
C208 O203 1.258 . S
C209 O206 1.247 1_455 S
C209 O207 1.258 . S
C210 O212 1.247 . S
C210 O214 1.258 . S
C211 O218 1.247 . S
C211 O219 1.258 . S
O212 C210 1.247 . S
O212 Zn213 2.028 . S
Zn213 O212 2.028 . S
Zn213 O217 2.035 . S
Zn213 O219 2.035 . S
Zn213 O220 2.028 . S
O214 C210 1.258 . S
O214 Zn215 2.035 . S
Zn215 O214 2.035 . S
Zn215 O216 2.028 . S
Zn215 O218 2.028 . S
Zn215 O221 2.035 . S
O216 Zn215 2.028 . S
O216 C222 1.247 . S
O217 Zn213 2.035 . S
O217 C222 1.258 . S
O218 C211 1.247 . S
O218 Zn215 2.028 . S
O219 C211 1.258 . S
O219 Zn213 2.035 . S
O220 Zn213 2.028 . S
O220 C223 1.247 . S
O221 Zn215 2.035 . S
O221 C223 1.258 . S
C222 O216 1.247 . S
C222 O217 1.258 . S
C223 O220 1.247 . S
C223 O221 1.258 . S
C224 O226 1.247 . S
C224 O228 1.258 . S
C225 O232 1.247 . S
C225 O233 1.258 . S
O226 C224 1.247 . S
O226 Zn227 2.028 . S
Zn227 O226 2.028 . S
Zn227 O231 2.035 . S
Zn227 O233 2.035 . S
Zn227 O234 2.028 1_655 S
O228 C224 1.258 . S
O228 Zn229 2.035 . S
Zn229 O228 2.035 . S
Zn229 O230 2.028 . S
Zn229 O232 2.028 . S
Zn229 O235 2.035 . S
O230 Zn229 2.028 . S
O230 C236 1.247 . S
O231 Zn227 2.035 . S
O231 C236 1.258 . S
O232 C225 1.247 . S
O232 Zn229 2.028 . S
O233 C225 1.258 . S
O233 Zn227 2.035 . S
O234 Zn227 2.028 1_455 S
O234 C237 1.247 . S
O235 Zn229 2.035 . S
O235 C237 1.258 1_655 S
C236 O230 1.247 . S
C236 O231 1.258 . S
C237 O234 1.247 . S
C237 O235 1.258 1_455 S
C238 O240 1.247 . S
C238 O242 1.258 . S
C239 O246 1.247 . S
C239 O247 1.258 . S
O240 C238 1.247 . S
O240 Zn241 2.028 . S
Zn241 O240 2.028 . S
Zn241 O245 2.035 . S
Zn241 O247 2.035 . S
Zn241 O248 2.028 . S
O242 C238 1.258 . S
O242 Zn243 2.035 . S
Zn243 O242 2.035 . S
Zn243 O244 2.028 . S
Zn243 O246 2.028 . S
Zn243 O249 2.035 . S
O244 Zn243 2.028 . S
O244 C250 1.247 . S
O245 Zn241 2.035 . S
O245 C250 1.258 . S
O246 C239 1.247 . S
O246 Zn243 2.028 . S
O247 C239 1.258 . S
O247 Zn241 2.035 . S
O248 Zn241 2.028 . S
O248 C251 1.247 . S
O249 Zn243 2.035 . S
O249 C251 1.258 . S
C250 O244 1.247 . S
C250 O245 1.258 . S
C251 O248 1.247 . S
C251 O249 1.258 . S
H252 C270 0.951 . S
H253 C272 0.951 . S
H254 C274 0.950 . S
H255 C275 0.950 . S
H256 C277 0.951 . S
H257 C280 0.950 . S
H258 C281 0.950 . S
H259 C283 0.950 . S
H260 C284 0.950 . S
H261 C285 0.951 . S
H262 C287 0.951 . S
H263 C289 0.950 . S
H264 C290 0.950 . S
H265 C292 0.951 . S
H266 C295 0.950 . S
H267 C296 0.950 . S
H268 C298 0.950 . S
H269 C299 0.950 . S
C270 H252 0.951 . S
C270 C271 1.366 . S
C270 C272 1.388 . S
C271 C270 1.366 . S
C271 C275 1.385 . S
C272 H253 0.951 . S
C272 C270 1.388 . S
C272 C273 1.366 . S
C273 C272 1.366 . S
C273 C274 1.414 . S
C273 C276 1.499 . S
C274 H254 0.950 . S
C274 C273 1.414 . S
C274 C275 1.374 . S
C275 H255 0.950 . S
C275 C271 1.385 . S
C275 C274 1.374 . S
C276 C273 1.499 . S
C276 C277 1.357 1_556 S
C276 C278 1.389 . S
C277 H256 0.951 . S
C277 C276 1.357 1_554 S
C277 C293 1.392 . S
C278 C276 1.389 . S
C278 C279 1.524 . S
C278 C292 1.389 . S
C279 C278 1.524 . S
C279 C280 1.397 . S
C279 C284 1.363 . S
C280 H257 0.950 . S
C280 C279 1.397 . S
C280 C281 1.334 . S
C281 H258 0.950 . S
C281 C280 1.334 . S
C281 C282 1.287 . S
C282 C281 1.287 . S
C282 C283 1.524 . S
C282 H301 0.913 . S
C283 H259 0.950 . S
C283 C282 1.524 . S
C283 C284 1.415 . S
C284 H260 0.950 . S
C284 C279 1.363 . S
C284 C283 1.415 . S
C285 H261 0.951 . S
C285 C286 1.366 . S
C285 C287 1.388 . S
C286 C285 1.366 . S
C286 C290 1.385 . S
C287 H262 0.951 . S
C287 C285 1.388 . S
C287 C288 1.366 . S
C288 C287 1.366 . S
C288 C289 1.414 . S
C288 C291 1.499 . S
C289 H263 0.950 . S
C289 C288 1.414 . S
C289 C290 1.374 . S
C290 H264 0.950 . S
C290 C286 1.385 . S
C290 C289 1.374 . S
C291 C288 1.499 . S
C291 C292 1.360 1_554 S
C291 C293 1.389 . S
C292 H265 0.951 . S
C292 C278 1.389 . S
C292 C291 1.360 1_556 S
C293 C277 1.392 . S
C293 C291 1.389 . S
C293 C294 1.524 . S
C294 C293 1.524 . S
C294 C295 1.397 . S
C294 C299 1.363 . S
C295 H266 0.950 . S
C295 C294 1.397 . S
C295 C296 1.334 . S
C296 H267 0.950 . S
C296 C295 1.334 . S
C296 C297 1.287 . S
C297 C296 1.287 . S
C297 C298 1.524 . S
C297 H300 0.999 . S
C298 H268 0.950 . S
C298 C297 1.524 . S
C298 C299 1.415 . S
C299 H269 0.950 . S
C299 C294 1.363 . S
C299 C298 1.415 . S
H300 C297 0.999 . S
H301 C282 0.913 . S
H302 C320 0.951 . S
H303 C322 0.951 . S
H304 C324 0.950 . S
H305 C325 0.950 . S
H306 C327 0.950 . S
H307 C330 0.950 . S
H308 C331 0.950 . S
H309 C333 0.950 . S
H310 C334 0.950 . S
H311 C335 0.951 . S
H312 C337 0.951 . S
H313 C339 0.950 . S
H314 C340 0.950 . S
H315 C342 0.950 . S
H316 C345 0.950 . S
H317 C346 0.950 . S
H318 C348 0.950 . S
H319 C349 0.950 . S
C320 H302 0.951 . S
C320 C321 1.366 . S
C320 C322 1.388 . S
C321 C320 1.366 . S
C321 C325 1.385 . S
C322 H303 0.951 . S
C322 C320 1.388 . S
C322 C323 1.366 . S
C323 C322 1.366 . S
C323 C324 1.414 . S
C323 C326 1.499 . S
C324 H304 0.950 . S
C324 C323 1.414 . S
C324 C325 1.374 . S
C325 H305 0.950 . S
C325 C321 1.385 . S
C325 C324 1.374 . S
C326 C323 1.499 . S
C326 C327 1.373 . S
C326 C328 1.389 1_556 S
C327 H306 0.950 . S
C327 C326 1.373 . S
C327 C343 1.377 . S
C328 C326 1.389 1_554 S
C328 C329 1.524 . S
C328 C342 1.377 . S
C329 C328 1.524 . S
C329 C330 1.397 . S
C329 C334 1.363 . S
C330 H307 0.950 . S
C330 C329 1.397 . S
C330 C331 1.334 . S
C331 H308 0.950 . S
C331 C330 1.334 . S
C331 C332 1.287 . S
C332 C331 1.287 . S
C332 C333 1.524 . S
C332 H351 0.913 . S
C333 H309 0.950 . S
C333 C332 1.524 . S
C333 C334 1.415 . S
C334 H310 0.950 . S
C334 C329 1.363 . S
C334 C333 1.415 . S
C335 H311 0.951 . S
C335 C336 1.366 . S
C335 C337 1.388 . S
C336 C335 1.366 . S
C336 C340 1.385 . S
C337 H312 0.951 . S
C337 C335 1.388 . S
C337 C338 1.366 . S
C338 C337 1.366 . S
C338 C339 1.414 . S
C338 C341 1.499 . S
C339 H313 0.950 . S
C339 C338 1.414 . S
C339 C340 1.374 . S
C340 H314 0.950 . S
C340 C336 1.385 . S
C340 C339 1.374 . S
C341 C338 1.499 . S
C341 C342 1.373 . S
C341 C343 1.389 1_554 S
C342 H315 0.950 . S
C342 C328 1.377 . S
C342 C341 1.373 . S
C343 C327 1.377 . S
C343 C341 1.389 1_556 S
C343 C344 1.524 . S
C344 C343 1.524 . S
C344 C345 1.397 . S
C344 C349 1.363 . S
C345 H316 0.950 . S
C345 C344 1.397 . S
C345 C346 1.334 . S
C346 H317 0.950 . S
C346 C345 1.334 . S
C346 C347 1.287 . S
C347 C346 1.287 . S
C347 C348 1.524 . S
C347 H350 0.999 . S
C348 H318 0.950 . S
C348 C347 1.524 . S
C348 C349 1.415 . S
C349 H319 0.950 . S
C349 C344 1.363 . S
C349 C348 1.415 . S
H350 C347 0.999 . S
H351 C332 0.913 . S
H352 C370 0.951 . S
H353 C372 0.951 . S
H354 C374 0.950 . S
H355 C375 0.950 . S
H356 C377 0.950 . S
H357 C380 0.950 . S
H358 C381 0.950 . S
H359 C383 0.950 . S
H360 C384 0.950 . S
H361 C385 0.951 . S
H362 C387 0.951 . S
H363 C389 0.950 . S
H364 C390 0.950 . S
H365 C392 0.952 . S
H366 C395 0.950 . S
H367 C396 0.950 . S
H368 C398 0.950 . S
H369 C399 0.950 . S
C370 H352 0.951 . S
C370 C371 1.366 . S
C370 C372 1.388 . S
C371 C370 1.366 . S
C371 C375 1.385 . S
C372 H353 0.951 . S
C372 C370 1.388 . S
C372 C373 1.366 . S
C373 C372 1.366 . S
C373 C374 1.414 . S
C373 C376 1.499 . S
C374 H354 0.950 . S
C374 C373 1.414 . S
C374 C375 1.374 . S
C375 H355 0.950 . S
C375 C371 1.385 . S
C375 C374 1.374 . S
C376 C373 1.499 . S
C376 C377 1.373 1_554 S
C376 C378 1.389 . S
C377 H356 0.950 . S
C377 C376 1.373 1_556 S
C377 C393 1.377 . S
C378 C376 1.389 . S
C378 C379 1.524 . S
C378 C392 1.394 . S
C379 C378 1.524 . S
C379 C380 1.397 . S
C379 C384 1.363 . S
C380 H357 0.950 . S
C380 C379 1.397 . S
C380 C381 1.334 . S
C381 H358 0.950 . S
C381 C380 1.334 . S
C381 C382 1.287 . S
C382 C381 1.287 . S
C382 C383 1.524 . S
C382 H401 0.913 . S
C383 H359 0.950 . S
C383 C382 1.524 . S
C383 C384 1.415 . S
C384 H360 0.950 . S
C384 C379 1.363 . S
C384 C383 1.415 . S
C385 H361 0.951 . S
C385 C386 1.366 . S
C385 C387 1.388 . S
C386 C385 1.366 . S
C386 C390 1.385 . S
C387 H362 0.951 . S
C387 C385 1.388 . S
C387 C388 1.366 . S
C388 C387 1.366 . S
C388 C389 1.414 . S
C388 C391 1.499 . S
C389 H363 0.950 . S
C389 C388 1.414 . S
C389 C390 1.374 . S
C390 H364 0.950 . S
C390 C386 1.385 . S
C390 C389 1.374 . S
C391 C388 1.499 . S
C391 C392 1.355 1_556 S
C391 C393 1.389 . S
C392 H365 0.952 . S
C392 C378 1.394 . S
C392 C391 1.355 1_554 S
C393 C377 1.377 . S
C393 C391 1.389 . S
C393 C394 1.524 . S
C394 C393 1.524 . S
C394 C395 1.397 . S
C394 C399 1.363 . S
C395 H366 0.950 . S
C395 C394 1.397 . S
C395 C396 1.334 . S
C396 H367 0.950 . S
C396 C395 1.334 . S
C396 C397 1.287 . S
C397 C396 1.287 . S
C397 C398 1.524 . S
C397 H400 0.999 . S
C398 H368 0.950 . S
C398 C397 1.524 . S
C398 C399 1.415 . S
C399 H369 0.950 . S
C399 C394 1.363 . S
C399 C398 1.415 . S
H400 C397 0.999 . S
H401 C382 0.913 . S
H402 C420 0.951 . S
H403 C422 0.951 . S
H404 C424 0.950 . S
H405 C425 0.950 . S
H406 C427 0.950 . S
H407 C430 0.950 . S
H408 C431 0.950 . S
H409 C433 0.950 . S
H410 C434 0.950 . S
H411 C435 0.951 . S
H412 C437 0.951 . S
H413 C439 0.950 . S
H414 C440 0.950 . S
H415 C442 0.950 . S
H416 C445 0.950 . S
H417 C446 0.950 . S
H418 C448 0.950 . S
H419 C449 0.950 . S
C420 H402 0.951 . S
C420 C421 1.366 . S
C420 C422 1.388 . S
C421 C420 1.366 . S
C421 C425 1.385 . S
C422 H403 0.951 . S
C422 C420 1.388 . S
C422 C423 1.366 . S
C423 C422 1.366 . S
C423 C424 1.414 . S
C423 C426 1.499 . S
C424 H404 0.950 . S
C424 C423 1.414 . S
C424 C425 1.374 . S
C425 H405 0.950 . S
C425 C421 1.385 . S
C425 C424 1.374 . S
C426 C423 1.499 . S
C426 C427 1.373 . S
C426 C428 1.389 . S
C427 H406 0.950 . S
C427 C426 1.373 . S
C427 C443 1.377 . S
C428 C426 1.389 . S
C428 C429 1.524 . S
C428 C442 1.377 . S
C429 C428 1.524 . S
C429 C430 1.397 . S
C429 C434 1.363 . S
C430 H407 0.950 . S
C430 C429 1.397 . S
C430 C431 1.334 . S
C431 H408 0.950 . S
C431 C430 1.334 . S
C431 C432 1.287 . S
C432 C431 1.287 . S
C432 C433 1.524 . S
C432 H451 0.913 . S
C433 H409 0.950 . S
C433 C432 1.524 . S
C433 C434 1.415 . S
C434 H410 0.950 . S
C434 C429 1.363 . S
C434 C433 1.415 . S
C435 H411 0.951 . S
C435 C436 1.366 . S
C435 C437 1.388 . S
C436 C435 1.366 . S
C436 C440 1.385 . S
C437 H412 0.951 . S
C437 C435 1.388 . S
C437 C438 1.366 . S
C438 C437 1.366 . S
C438 C439 1.414 . S
C438 C441 1.499 . S
C439 H413 0.950 . S
C439 C438 1.414 . S
C439 C440 1.374 . S
C440 H414 0.950 . S
C440 C436 1.385 . S
C440 C439 1.374 . S
C441 C438 1.499 . S
C441 C442 1.373 . S
C441 C443 1.389 . S
C442 H415 0.950 . S
C442 C428 1.377 . S
C442 C441 1.373 . S
C443 C427 1.377 . S
C443 C441 1.389 . S
C443 C444 1.524 . S
C444 C443 1.524 . S
C444 C445 1.397 . S
C444 C449 1.363 . S
C445 H416 0.950 . S
C445 C444 1.397 . S
C445 C446 1.334 . S
C446 H417 0.950 . S
C446 C445 1.334 . S
C446 C447 1.287 . S
C447 C446 1.287 . S
C447 C448 1.524 . S
C447 H450 0.999 . S
C448 H418 0.950 . S
C448 C447 1.524 . S
C448 C449 1.415 . S
C449 H419 0.950 . S
C449 C444 1.363 . S
C449 C448 1.415 . S
H450 C447 0.999 . S
H451 C432 0.913 . S
H452 C470 0.951 . S
H453 C472 0.951 . S
H454 C474 0.950 . S
H455 C475 0.950 . S
H456 C477 0.950 . S
H457 C480 0.950 . S
H458 C481 0.950 . S
H459 C483 0.950 . S
H460 C484 0.950 . S
H461 C485 0.951 . S
H462 C487 0.951 . S
H463 C489 0.950 . S
H464 C490 0.950 . S
H465 C492 0.950 . S
H466 C495 0.950 . S
H467 C496 0.950 . S
H468 C498 0.950 . S
H469 C499 0.950 . S
C470 H452 0.951 . S
C470 C471 1.366 . S
C470 C472 1.388 . S
C471 C470 1.366 . S
C471 C475 1.385 . S
C472 H453 0.951 . S
C472 C470 1.388 . S
C472 C473 1.366 . S
C473 C472 1.366 . S
C473 C474 1.414 . S
C473 C476 1.499 . S
C474 H454 0.950 . S
C474 C473 1.414 . S
C474 C475 1.374 . S
C475 H455 0.950 . S
C475 C471 1.385 . S
C475 C474 1.374 . S
C476 C473 1.499 . S
C476 C477 1.373 . S
C476 C478 1.389 . S
C477 H456 0.950 . S
C477 C476 1.373 . S
C477 C493 1.377 . S
C478 C476 1.389 . S
C478 C479 1.524 . S
C478 C492 1.377 . S
C479 C478 1.524 . S
C479 C480 1.397 . S
C479 C484 1.363 . S
C480 H457 0.950 . S
C480 C479 1.397 . S
C480 C481 1.334 . S
C481 H458 0.950 . S
C481 C480 1.334 . S
C481 C482 1.287 . S
C482 C481 1.287 . S
C482 C483 1.524 . S
C482 H501 0.913 . S
C483 H459 0.950 . S
C483 C482 1.524 . S
C483 C484 1.415 . S
C484 H460 0.950 . S
C484 C479 1.363 . S
C484 C483 1.415 . S
C485 H461 0.951 . S
C485 C486 1.366 . S
C485 C487 1.388 . S
C486 C485 1.366 . S
C486 C490 1.385 . S
C487 H462 0.951 . S
C487 C485 1.388 . S
C487 C488 1.366 . S
C488 C487 1.366 . S
C488 C489 1.414 . S
C488 C491 1.499 . S
C489 H463 0.950 . S
C489 C488 1.414 . S
C489 C490 1.374 . S
C490 H464 0.950 . S
C490 C486 1.385 . S
C490 C489 1.374 . S
C491 C488 1.499 . S
C491 C492 1.373 . S
C491 C493 1.389 . S
C492 H465 0.950 . S
C492 C478 1.377 . S
C492 C491 1.373 . S
C493 C477 1.377 . S
C493 C491 1.389 . S
C493 C494 1.524 . S
C494 C493 1.524 . S
C494 C495 1.397 . S
C494 C499 1.363 . S
C495 H466 0.950 . S
C495 C494 1.397 . S
C495 C496 1.334 . S
C496 H467 0.950 . S
C496 C495 1.334 . S
C496 C497 1.287 . S
C497 C496 1.287 . S
C497 C498 1.524 . S
C497 H500 0.999 . S
C498 H468 0.950 . S
C498 C497 1.524 . S
C498 C499 1.415 . S
C499 H469 0.950 . S
C499 C494 1.363 . S
C499 C498 1.415 . S
H500 C497 0.999 . S
H501 C482 0.913 . S
H502 C520 0.951 . S
H503 C522 0.951 . S
H504 C524 0.950 . S
H505 C525 0.950 . S
H506 C527 0.950 . S
H507 C530 0.950 . S
H508 C531 0.950 . S
H509 C533 0.950 . S
H510 C534 0.950 . S
H511 C535 0.951 . S
H512 C537 0.951 . S
H513 C539 0.950 . S
H514 C540 0.950 . S
H515 C542 0.950 . S
H516 C545 0.950 . S
H517 C546 0.950 . S
H518 C548 0.950 . S
H519 C549 0.950 . S
C520 H502 0.951 . S
C520 C521 1.366 . S
C520 C522 1.388 . S
C521 C520 1.366 . S
C521 C525 1.385 . S
C522 H503 0.951 . S
C522 C520 1.388 . S
C522 C523 1.366 . S
C523 C522 1.366 . S
C523 C524 1.414 . S
C523 C526 1.499 . S
C524 H504 0.950 . S
C524 C523 1.414 . S
C524 C525 1.374 . S
C525 H505 0.950 . S
C525 C521 1.385 . S
C525 C524 1.374 . S
C526 C523 1.499 . S
C526 C527 1.373 . S
C526 C528 1.389 . S
C527 H506 0.950 . S
C527 C526 1.373 . S
C527 C543 1.377 . S
C528 C526 1.389 . S
C528 C529 1.524 . S
C528 C542 1.377 . S
C529 C528 1.524 . S
C529 C530 1.397 . S
C529 C534 1.363 . S
C530 H507 0.950 . S
C530 C529 1.397 . S
C530 C531 1.334 . S
C531 H508 0.950 . S
C531 C530 1.334 . S
C531 C532 1.287 . S
C532 C531 1.287 . S
C532 C533 1.524 . S
C532 H551 0.913 . S
C533 H509 0.950 . S
C533 C532 1.524 . S
C533 C534 1.415 . S
C534 H510 0.950 . S
C534 C529 1.363 . S
C534 C533 1.415 . S
C535 H511 0.951 . S
C535 C536 1.366 . S
C535 C537 1.388 . S
C536 C535 1.366 . S
C536 C540 1.385 . S
C537 H512 0.951 . S
C537 C535 1.388 . S
C537 C538 1.366 . S
C538 C537 1.366 . S
C538 C539 1.414 . S
C538 C541 1.499 . S
C539 H513 0.950 . S
C539 C538 1.414 . S
C539 C540 1.374 . S
C540 H514 0.950 . S
C540 C536 1.385 . S
C540 C539 1.374 . S
C541 C538 1.499 . S
C541 C542 1.373 . S
C541 C543 1.389 . S
C542 H515 0.950 . S
C542 C528 1.377 . S
C542 C541 1.373 . S
C543 C527 1.377 . S
C543 C541 1.389 . S
C543 C544 1.524 . S
C544 C543 1.524 . S
C544 C545 1.397 . S
C544 C549 1.363 . S
C545 H516 0.950 . S
C545 C544 1.397 . S
C545 C546 1.334 . S
C546 H517 0.950 . S
C546 C545 1.334 . S
C546 C547 1.287 . S
C547 C546 1.287 . S
C547 C548 1.524 . S
C547 H550 0.999 . S
C548 H518 0.950 . S
C548 C547 1.524 . S
C548 C549 1.415 . S
C549 H519 0.950 . S
C549 C544 1.363 . S
C549 C548 1.415 . S
H550 C547 0.999 . S
H551 C532 0.913 . S
H552 C570 0.951 . S
H553 C572 0.951 . S
H554 C574 0.950 . S
H555 C575 0.950 . S
H556 C577 0.950 . S
H557 C580 0.950 . S
H558 C581 0.950 . S
H559 C583 0.950 . S
H560 C584 0.950 . S
H561 C585 0.951 . S
H562 C587 0.951 . S
H563 C589 0.950 . S
H564 C590 0.950 . S
H565 C592 0.950 . S
H566 C595 0.950 . S
H567 C596 0.950 . S
H568 C598 0.950 . S
H569 C599 0.950 . S
C570 H552 0.951 . S
C570 C571 1.366 . S
C570 C572 1.388 . S
C571 C570 1.366 . S
C571 C575 1.385 . S
C572 H553 0.951 . S
C572 C570 1.388 . S
C572 C573 1.366 . S
C573 C572 1.366 . S
C573 C574 1.414 . S
C573 C576 1.499 . S
C574 H554 0.950 . S
C574 C573 1.414 . S
C574 C575 1.374 . S
C575 H555 0.950 . S
C575 C571 1.385 . S
C575 C574 1.374 . S
C576 C573 1.499 . S
C576 C577 1.373 . S
C576 C578 1.389 . S
C577 H556 0.950 . S
C577 C576 1.373 . S
C577 C593 1.377 . S
C578 C576 1.389 . S
C578 C579 1.524 . S
C578 C592 1.377 . S
C579 C578 1.524 . S
C579 C580 1.397 . S
C579 C584 1.363 . S
C580 H557 0.950 . S
C580 C579 1.397 . S
C580 C581 1.334 . S
C581 H558 0.950 . S
C581 C580 1.334 . S
C581 C582 1.287 . S
C582 C581 1.287 . S
C582 C583 1.524 . S
C582 H601 0.913 . S
C583 H559 0.950 . S
C583 C582 1.524 . S
C583 C584 1.415 . S
C584 H560 0.950 . S
C584 C579 1.363 . S
C584 C583 1.415 . S
C585 H561 0.951 . S
C585 C586 1.366 . S
C585 C587 1.388 . S
C586 C585 1.366 . S
C586 C590 1.385 . S
C587 H562 0.951 . S
C587 C585 1.388 . S
C587 C588 1.366 . S
C588 C587 1.366 . S
C588 C589 1.414 . S
C588 C591 1.499 . S
C589 H563 0.950 . S
C589 C588 1.414 . S
C589 C590 1.374 . S
C590 H564 0.950 . S
C590 C586 1.385 . S
C590 C589 1.374 . S
C591 C588 1.499 . S
C591 C592 1.373 . S
C591 C593 1.389 . S
C592 H565 0.950 . S
C592 C578 1.377 . S
C592 C591 1.373 . S
C593 C577 1.377 . S
C593 C591 1.389 . S
C593 C594 1.524 . S
C594 C593 1.524 . S
C594 C595 1.397 . S
C594 C599 1.363 . S
C595 H566 0.950 . S
C595 C594 1.397 . S
C595 C596 1.334 . S
C596 H567 0.950 . S
C596 C595 1.334 . S
C596 C597 1.287 . S
C597 C596 1.287 . S
C597 C598 1.524 . S
C597 H600 0.999 . S
C598 H568 0.950 . S
C598 C597 1.524 . S
C598 C599 1.415 . S
C599 H569 0.950 . S
C599 C594 1.363 . S
C599 C598 1.415 . S
H600 C597 0.999 . S
H601 C582 0.913 . S
H602 C620 0.951 . S
H603 C622 0.951 . S
H604 C624 0.950 . S
H605 C625 0.950 . S
H606 C627 0.950 . S
H607 C630 0.950 . S
H608 C631 0.950 . S
H609 C633 0.950 . S
H610 C634 0.950 . S
H611 C635 0.951 . S
H612 C637 0.951 . S
H613 C639 0.950 . S
H614 C640 0.950 . S
H615 C642 0.950 . S
H616 C645 0.950 . S
H617 C646 0.950 . S
H618 C648 0.950 . S
H619 C649 0.950 . S
C620 H602 0.951 . S
C620 C621 1.366 . S
C620 C622 1.388 . S
C621 C620 1.366 . S
C621 C625 1.385 . S
C622 H603 0.951 . S
C622 C620 1.388 . S
C622 C623 1.366 . S
C623 C622 1.366 . S
C623 C624 1.414 . S
C623 C626 1.499 . S
C624 H604 0.950 . S
C624 C623 1.414 . S
C624 C625 1.374 . S
C625 H605 0.950 . S
C625 C621 1.385 . S
C625 C624 1.374 . S
C626 C623 1.499 . S
C626 C627 1.373 . S
C626 C628 1.389 . S
C627 H606 0.950 . S
C627 C626 1.373 . S
C627 C643 1.377 . S
C628 C626 1.389 . S
C628 C629 1.524 . S
C628 C642 1.377 . S
C629 C628 1.524 . S
C629 C630 1.397 . S
C629 C634 1.363 . S
C630 H607 0.950 . S
C630 C629 1.397 . S
C630 C631 1.334 . S
C631 H608 0.950 . S
C631 C630 1.334 . S
C631 C632 1.287 . S
C632 C631 1.287 . S
C632 C633 1.524 . S
C632 H651 0.913 . S
C633 H609 0.950 . S
C633 C632 1.524 . S
C633 C634 1.415 . S
C634 H610 0.950 . S
C634 C629 1.363 . S
C634 C633 1.415 . S
C635 H611 0.951 . S
C635 C636 1.366 . S
C635 C637 1.388 . S
C636 C635 1.366 . S
C636 C640 1.385 . S
C637 H612 0.951 . S
C637 C635 1.388 . S
C637 C638 1.366 . S
C638 C637 1.366 . S
C638 C639 1.414 . S
C638 C641 1.499 . S
C639 H613 0.950 . S
C639 C638 1.414 . S
C639 C640 1.374 . S
C640 H614 0.950 . S
C640 C636 1.385 . S
C640 C639 1.374 . S
C641 C638 1.499 . S
C641 C642 1.373 . S
C641 C643 1.389 . S
C642 H615 0.950 . S
C642 C628 1.377 . S
C642 C641 1.373 . S
C643 C627 1.377 . S
C643 C641 1.389 . S
C643 C644 1.524 . S
C644 C643 1.524 . S
C644 C645 1.397 . S
C644 C649 1.363 . S
C645 H616 0.950 . S
C645 C644 1.397 . S
C645 C646 1.334 . S
C646 H617 0.950 . S
C646 C645 1.334 . S
C646 C647 1.287 . S
C647 C646 1.287 . S
C647 C648 1.524 . S
C647 H650 0.999 . S
C648 H618 0.950 . S
C648 C647 1.524 . S
C648 C649 1.415 . S
C649 H619 0.950 . S
C649 C644 1.363 . S
C649 C648 1.415 . S
H650 C647 0.999 . S
H651 C632 0.913 . S
H652 C670 0.951 . S
H653 C672 0.951 . S
H654 C674 0.950 . S
H655 C675 0.950 . S
H656 C677 0.950 . S
H657 C680 0.950 . S
H658 C681 0.950 . S
H659 C683 0.950 . S
H660 C684 0.950 . S
H661 C685 0.951 . S
H662 C687 0.951 . S
H663 C689 0.950 . S
H664 C690 0.950 . S
H665 C692 0.950 . S
H666 C695 0.950 . S
H667 C696 0.950 . S
H668 C698 0.950 . S
H669 C699 0.950 . S
C670 H652 0.951 . S
C670 C671 1.366 . S
C670 C672 1.388 . S
C671 C670 1.366 . S
C671 C675 1.385 . S
C672 H653 0.951 . S
C672 C670 1.388 . S
C672 C673 1.366 . S
C673 C672 1.366 . S
C673 C674 1.414 . S
C673 C676 1.499 . S
C674 H654 0.950 . S
C674 C673 1.414 . S
C674 C675 1.374 . S
C675 H655 0.950 . S
C675 C671 1.385 . S
C675 C674 1.374 . S
C676 C673 1.499 . S
C676 C677 1.373 . S
C676 C678 1.389 . S
C677 H656 0.950 . S
C677 C676 1.373 . S
C677 C693 1.377 . S
C678 C676 1.389 . S
C678 C679 1.524 . S
C678 C692 1.377 . S
C679 C678 1.524 . S
C679 C680 1.397 . S
C679 C684 1.363 . S
C680 H657 0.950 . S
C680 C679 1.397 . S
C680 C681 1.334 . S
C681 H658 0.950 . S
C681 C680 1.334 . S
C681 C682 1.287 . S
C682 C681 1.287 . S
C682 C683 1.524 . S
C682 H701 0.913 . S
C683 H659 0.950 . S
C683 C682 1.524 . S
C683 C684 1.415 . S
C684 H660 0.950 . S
C684 C679 1.363 . S
C684 C683 1.415 . S
C685 H661 0.951 . S
C685 C686 1.366 . S
C685 C687 1.388 . S
C686 C685 1.366 . S
C686 C690 1.385 . S
C687 H662 0.951 . S
C687 C685 1.388 . S
C687 C688 1.366 . S
C688 C687 1.366 . S
C688 C689 1.414 . S
C688 C691 1.499 . S
C689 H663 0.950 . S
C689 C688 1.414 . S
C689 C690 1.374 . S
C690 H664 0.950 . S
C690 C686 1.385 . S
C690 C689 1.374 . S
C691 C688 1.499 . S
C691 C692 1.373 . S
C691 C693 1.389 . S
C692 H665 0.950 . S
C692 C678 1.377 . S
C692 C691 1.373 . S
C693 C677 1.377 . S
C693 C691 1.389 . S
C693 C694 1.524 . S
C694 C693 1.524 . S
C694 C695 1.397 . S
C694 C699 1.363 . S
C695 H666 0.950 . S
C695 C694 1.397 . S
C695 C696 1.334 . S
C696 H667 0.950 . S
C696 C695 1.334 . S
C696 C697 1.287 . S
C697 C696 1.287 . S
C697 C698 1.524 . S
C697 H700 0.999 . S
C698 H668 0.950 . S
C698 C697 1.524 . S
C698 C699 1.415 . S
C699 H669 0.950 . S
C699 C694 1.363 . S
C699 C698 1.415 . S
H700 C697 0.999 . S
H701 C682 0.913 . S
H702 C720 0.951 . S
H703 C722 0.951 . S
H704 C724 0.950 . S
H705 C725 0.950 1_554 S
H706 C727 0.950 . S
H707 C730 0.950 . S
H708 C731 0.950 . S
H709 C733 0.950 . S
H710 C734 0.950 . S
H711 C735 0.951 . S
H712 C737 0.951 . S
H713 C739 0.950 . S
H714 C740 0.950 . S
H715 C742 0.950 . S
H716 C745 0.950 . S
H717 C746 0.950 . S
H718 C748 0.950 . S
H719 C749 0.950 . S
C720 H702 0.951 . S
C720 C721 1.366 . S
C720 C722 1.388 . S
C721 C720 1.366 . S
C721 C725 1.385 . S
C722 H703 0.951 . S
C722 C720 1.388 . S
C722 C723 1.366 . S
C723 C722 1.366 . S
C723 C724 1.414 . S
C723 C726 1.499 . S
C724 H704 0.950 . S
C724 C723 1.414 . S
C724 C725 1.374 . S
C725 H705 0.950 1_556 S
C725 C721 1.385 . S
C725 C724 1.374 . S
C726 C723 1.499 . S
C726 C727 1.373 . S
C726 C728 1.389 . S
C727 H706 0.950 . S
C727 C726 1.373 . S
C727 C743 1.377 . S
C728 C726 1.389 . S
C728 C729 1.524 . S
C728 C742 1.377 . S
C729 C728 1.524 . S
C729 C730 1.397 . S
C729 C734 1.363 . S
C730 H707 0.950 . S
C730 C729 1.397 . S
C730 C731 1.334 . S
C731 H708 0.950 . S
C731 C730 1.334 . S
C731 C732 1.287 . S
C732 C731 1.287 . S
C732 C733 1.524 . S
C732 H751 0.913 . S
C733 H709 0.950 . S
C733 C732 1.524 . S
C733 C734 1.415 . S
C734 H710 0.950 . S
C734 C729 1.363 . S
C734 C733 1.415 . S
C735 H711 0.951 . S
C735 C736 1.366 . S
C735 C737 1.388 . S
C736 C735 1.366 . S
C736 C740 1.385 . S
C737 H712 0.951 . S
C737 C735 1.388 . S
C737 C738 1.366 . S
C738 C737 1.366 . S
C738 C739 1.414 . S
C738 C741 1.499 . S
C739 H713 0.950 . S
C739 C738 1.414 . S
C739 C740 1.374 . S
C740 H714 0.950 . S
C740 C736 1.385 . S
C740 C739 1.374 . S
C741 C738 1.499 . S
C741 C742 1.373 . S
C741 C743 1.389 . S
C742 H715 0.950 . S
C742 C728 1.377 . S
C742 C741 1.373 . S
C743 C727 1.377 . S
C743 C741 1.389 . S
C743 C744 1.524 . S
C744 C743 1.524 . S
C744 C745 1.397 . S
C744 C749 1.363 . S
C745 H716 0.950 . S
C745 C744 1.397 . S
C745 C746 1.334 . S
C746 H717 0.950 . S
C746 C745 1.334 . S
C746 C747 1.287 . S
C747 C746 1.287 . S
C747 C748 1.524 . S
C747 H750 0.999 . S
C748 H718 0.950 . S
C748 C747 1.524 . S
C748 C749 1.415 . S
C749 H719 0.950 . S
C749 C744 1.363 . S
C749 C748 1.415 . S
H750 C747 0.999 . S
H751 C732 0.913 . S
H752 C770 0.951 1_554 S
H753 C772 0.951 . S
H754 C774 0.950 . S
H755 C775 0.950 . S
H756 C777 0.950 . S
H757 C780 0.950 . S
H758 C781 0.950 . S
H759 C783 0.946 1_554 S
H760 C784 0.950 . S
H761 C785 0.951 . S
H762 C787 0.951 . S
H763 C789 0.950 . S
H764 C790 0.950 . S
H765 C792 0.950 . S
H766 C795 0.950 . S
H767 C796 0.950 . S
H768 C798 0.950 . S
H769 C799 0.950 . S
C770 H752 0.951 1_556 S
C770 C771 1.366 . S
C770 C772 1.388 . S
C771 C770 1.366 . S
C771 C775 1.385 . S
C772 H753 0.951 . S
C772 C770 1.388 . S
C772 C773 1.366 . S
C773 C772 1.366 . S
C773 C774 1.414 . S
C773 C776 1.499 . S
C774 H754 0.950 . S
C774 C773 1.414 . S
C774 C775 1.374 . S
C775 H755 0.950 . S
C775 C771 1.385 . S
C775 C774 1.374 . S
C776 C773 1.499 . S
C776 C777 1.373 . S
C776 C778 1.389 . S
C777 H756 0.950 . S
C777 C776 1.373 . S
C777 C793 1.377 . S
C778 C776 1.389 . S
C778 C779 1.524 . S
C778 C792 1.377 . S
C779 C778 1.524 . S
C779 C780 1.397 . S
C779 C784 1.363 . S
C780 H757 0.950 . S
C780 C779 1.397 . S
C780 C781 1.334 . S
C781 H758 0.950 . S
C781 C780 1.334 . S
C781 C782 1.287 . S
C782 C781 1.287 . S
C782 C783 1.524 . S
C782 H801 0.913 1_556 S
C783 H759 0.946 1_556 S
C783 C782 1.524 . S
C783 C784 1.415 . S
C784 H760 0.950 . S
C784 C779 1.363 . S
C784 C783 1.415 . S
C785 H761 0.951 . S
C785 C786 1.366 . S
C785 C787 1.388 . S
C786 C785 1.366 . S
C786 C790 1.385 . S
C787 H762 0.951 . S
C787 C785 1.388 . S
C787 C788 1.366 . S
C788 C787 1.366 . S
C788 C789 1.414 . S
C788 C791 1.499 . S
C789 H763 0.950 . S
C789 C788 1.414 . S
C789 C790 1.374 . S
C790 H764 0.950 . S
C790 C786 1.385 . S
C790 C789 1.374 . S
C791 C788 1.499 . S
C791 C792 1.373 . S
C791 C793 1.389 . S
C792 H765 0.950 . S
C792 C778 1.377 . S
C792 C791 1.373 . S
C793 C777 1.377 . S
C793 C791 1.389 . S
C793 C794 1.524 . S
C794 C793 1.524 . S
C794 C795 1.397 . S
C794 C799 1.363 . S
C795 H766 0.950 . S
C795 C794 1.397 . S
C795 C796 1.334 . S
C796 H767 0.950 . S
C796 C795 1.334 . S
C796 C797 1.287 . S
C797 C796 1.287 . S
C797 C798 1.524 . S
C797 H800 0.999 . S
C798 H768 0.950 . S
C798 C797 1.524 . S
C798 C799 1.415 . S
C799 H769 0.950 . S
C799 C794 1.363 . S
C799 C798 1.415 . S
H800 C797 0.999 . S
H801 C782 0.913 1_554 S
H802 C820 0.951 . S
H803 C822 0.951 . S
H804 C824 0.950 . S
H805 C825 0.950 1_554 S
H806 C827 0.950 . S
H807 C830 0.950 . S
H808 C831 0.950 . S
H809 C833 0.950 . S
H810 C834 0.950 . S
H811 C835 0.951 . S
H812 C837 0.951 . S
H813 C839 0.950 . S
H814 C840 0.950 . S
H815 C842 0.950 . S
H816 C845 0.950 . S
H817 C846 0.950 . S
H818 C848 0.950 . S
H819 C849 0.950 . S
C820 H802 0.951 . S
C820 C821 1.366 . S
C820 C822 1.388 . S
C821 C820 1.366 . S
C821 C825 1.385 . S
C822 H803 0.951 . S
C822 C820 1.388 . S
C822 C823 1.366 . S
C823 C822 1.366 . S
C823 C824 1.414 . S
C823 C826 1.499 . S
C824 H804 0.950 . S
C824 C823 1.414 . S
C824 C825 1.374 . S
C825 H805 0.950 1_556 S
C825 C821 1.385 . S
C825 C824 1.374 . S
C826 C823 1.499 . S
C826 C827 1.373 . S
C826 C828 1.389 . S
C827 H806 0.950 . S
C827 C826 1.373 . S
C827 C843 1.377 . S
C828 C826 1.389 . S
C828 C829 1.524 . S
C828 C842 1.377 . S
C829 C828 1.524 . S
C829 C830 1.397 . S
C829 C834 1.363 . S
C830 H807 0.950 . S
C830 C829 1.397 . S
C830 C831 1.334 . S
C831 H808 0.950 . S
C831 C830 1.334 . S
C831 C832 1.287 . S
C832 C831 1.287 . S
C832 C833 1.524 . S
C832 H851 0.913 . S
C833 H809 0.950 . S
C833 C832 1.524 . S
C833 C834 1.415 . S
C834 H810 0.950 . S
C834 C829 1.363 . S
C834 C833 1.415 . S
C835 H811 0.951 . S
C835 C836 1.366 . S
C835 C837 1.388 . S
C836 C835 1.366 . S
C836 C840 1.385 . S
C837 H812 0.951 . S
C837 C835 1.388 . S
C837 C838 1.366 . S
C838 C837 1.366 . S
C838 C839 1.414 . S
C838 C841 1.499 . S
C839 H813 0.950 . S
C839 C838 1.414 . S
C839 C840 1.374 . S
C840 H814 0.950 . S
C840 C836 1.385 . S
C840 C839 1.374 . S
C841 C838 1.499 . S
C841 C842 1.373 . S
C841 C843 1.389 . S
C842 H815 0.950 . S
C842 C828 1.377 . S
C842 C841 1.373 . S
C843 C827 1.377 . S
C843 C841 1.389 . S
C843 C844 1.524 . S
C844 C843 1.524 . S
C844 C845 1.397 . S
C844 C849 1.363 . S
C845 H816 0.950 . S
C845 C844 1.397 . S
C845 C846 1.334 . S
C846 H817 0.950 . S
C846 C845 1.334 . S
C846 C847 1.287 . S
C847 C846 1.287 . S
C847 C848 1.524 . S
C847 H850 0.999 . S
C848 H818 0.950 . S
C848 C847 1.524 . S
C848 C849 1.415 . S
C849 H819 0.950 . S
C849 C844 1.363 . S
C849 C848 1.415 . S
H850 C847 0.999 . S
H851 C832 0.913 . S
H852 C870 0.951 . S
H853 C872 0.951 . S
H854 C874 0.950 . S
H855 C875 0.950 . S
H856 C877 0.950 . S
H857 C880 0.950 . S
H858 C881 0.950 . S
H859 C883 0.950 . S
H860 C884 0.950 . S
H861 C885 0.951 . S
H862 C887 0.951 . S
H863 C889 0.950 . S
H864 C890 0.950 . S
H865 C892 0.950 . S
H866 C895 0.950 . S
H867 C896 0.950 . S
H868 C898 0.950 . S
H869 C899 0.950 . S
C870 H852 0.951 . S
C870 C871 1.366 . S
C870 C872 1.388 . S
C871 C870 1.366 . S
C871 C875 1.385 . S
C872 H853 0.951 . S
C872 C870 1.388 . S
C872 C873 1.366 . S
C873 C872 1.366 . S
C873 C874 1.414 . S
C873 C876 1.499 . S
C874 H854 0.950 . S
C874 C873 1.414 . S
C874 C875 1.374 . S
C875 H855 0.950 . S
C875 C871 1.385 . S
C875 C874 1.374 . S
C876 C873 1.499 . S
C876 C877 1.373 . S
C876 C878 1.389 . S
C877 H856 0.950 . S
C877 C876 1.373 . S
C877 C893 1.377 . S
C878 C876 1.389 . S
C878 C879 1.524 . S
C878 C892 1.377 . S
C879 C878 1.524 . S
C879 C880 1.397 . S
C879 C884 1.363 . S
C880 H857 0.950 . S
C880 C879 1.397 . S
C880 C881 1.334 . S
C881 H858 0.950 . S
C881 C880 1.334 . S
C881 C882 1.287 . S
C882 C881 1.287 . S
C882 C883 1.524 . S
C882 H901 0.913 . S
C883 H859 0.950 . S
C883 C882 1.524 . S
C883 C884 1.415 . S
C884 H860 0.950 . S
C884 C879 1.363 . S
C884 C883 1.415 . S
C885 H861 0.951 . S
C885 C886 1.366 . S
C885 C887 1.388 . S
C886 C885 1.366 . S
C886 C890 1.385 . S
C887 H862 0.951 . S
C887 C885 1.388 . S
C887 C888 1.366 . S
C888 C887 1.366 . S
C888 C889 1.414 . S
C888 C891 1.499 . S
C889 H863 0.950 . S
C889 C888 1.414 . S
C889 C890 1.374 . S
C890 H864 0.950 . S
C890 C886 1.385 . S
C890 C889 1.374 . S
C891 C888 1.499 . S
C891 C892 1.373 . S
C891 C893 1.389 . S
C892 H865 0.950 . S
C892 C878 1.377 . S
C892 C891 1.373 . S
C893 C877 1.377 . S
C893 C891 1.389 . S
C893 C894 1.524 . S
C894 C893 1.524 . S
C894 C895 1.397 . S
C894 C899 1.363 . S
C895 H866 0.950 . S
C895 C894 1.397 . S
C895 C896 1.334 . S
C896 H867 0.950 . S
C896 C895 1.334 . S
C896 C897 1.287 . S
C897 C896 1.287 . S
C897 C898 1.524 . S
C897 H900 0.999 . S
C898 H868 0.950 . S
C898 C897 1.524 . S
C898 C899 1.415 . S
C899 H869 0.950 . S
C899 C894 1.363 . S
C899 C898 1.415 . S
H900 C897 0.999 . S
H901 C882 0.913 . S
H902 C920 0.951 . S
H903 C922 0.951 . S
H904 C924 0.950 . S
H905 C925 0.950 . S
H906 C927 0.950 . S
H907 C930 0.950 . S
H908 C931 0.950 . S
H909 C933 0.950 . S
H910 C934 0.950 . S
H911 C935 0.951 . S
H912 C937 0.951 . S
H913 C939 0.950 . S
H914 C940 0.950 . S
H915 C942 0.950 . S
H916 C945 0.950 . S
H917 C946 0.950 . S
H918 C948 0.950 . S
H919 C949 0.950 . S
C920 H902 0.951 . S
C920 C921 1.366 . S
C920 C922 1.388 . S
C921 C920 1.366 . S
C921 C925 1.385 . S
C922 H903 0.951 . S
C922 C920 1.388 . S
C922 C923 1.366 . S
C923 C922 1.366 . S
C923 C924 1.414 . S
C923 C926 1.499 . S
C924 H904 0.950 . S
C924 C923 1.414 . S
C924 C925 1.374 . S
C925 H905 0.950 . S
C925 C921 1.385 . S
C925 C924 1.374 . S
C926 C923 1.499 . S
C926 C927 1.373 . S
C926 C928 1.389 . S
C927 H906 0.950 . S
C927 C926 1.373 . S
C927 C943 1.377 . S
C928 C926 1.389 . S
C928 C929 1.524 . S
C928 C942 1.377 . S
C929 C928 1.524 . S
C929 C930 1.397 . S
C929 C934 1.363 . S
C930 H907 0.950 . S
C930 C929 1.397 . S
C930 C931 1.334 . S
C931 H908 0.950 . S
C931 C930 1.334 . S
C931 C932 1.287 . S
C932 C931 1.287 . S
C932 C933 1.524 . S
C932 H951 0.913 . S
C933 H909 0.950 . S
C933 C932 1.524 . S
C933 C934 1.415 . S
C934 H910 0.950 . S
C934 C929 1.363 . S
C934 C933 1.415 . S
C935 H911 0.951 . S
C935 C936 1.366 . S
C935 C937 1.388 . S
C936 C935 1.366 . S
C936 C940 1.385 . S
C937 H912 0.951 . S
C937 C935 1.388 . S
C937 C938 1.366 . S
C938 C937 1.366 . S
C938 C939 1.414 . S
C938 C941 1.499 . S
C939 H913 0.950 . S
C939 C938 1.414 . S
C939 C940 1.374 . S
C940 H914 0.950 . S
C940 C936 1.385 . S
C940 C939 1.374 . S
C941 C938 1.499 . S
C941 C942 1.373 . S
C941 C943 1.389 . S
C942 H915 0.950 . S
C942 C928 1.377 . S
C942 C941 1.373 . S
C943 C927 1.377 . S
C943 C941 1.389 . S
C943 C944 1.524 . S
C944 C943 1.524 . S
C944 C945 1.397 . S
C944 C949 1.363 . S
C945 H916 0.950 . S
C945 C944 1.397 . S
C945 C946 1.334 . S
C946 H917 0.950 . S
C946 C945 1.334 . S
C946 C947 1.287 . S
C947 C946 1.287 . S
C947 C948 1.524 . S
C947 H950 0.999 . S
C948 H918 0.950 . S
C948 C947 1.524 . S
C948 C949 1.415 . S
C949 H919 0.950 . S
C949 C944 1.363 . S
C949 C948 1.415 . S
H950 C947 0.999 . S
H951 C932 0.913 . S
H952 C970 0.951 . S
H953 C972 0.951 . S
H954 C974 0.950 . S
H955 C975 0.950 . S
H956 C977 0.950 . S
H957 C980 0.950 . S
H958 C981 0.950 . S
H959 C983 0.950 . S
H960 C984 0.950 . S
H961 C985 0.951 . S
H962 C987 0.951 . S
H963 C989 0.950 . S
H964 C990 0.950 . S
H965 C992 0.950 . S
H966 C995 0.950 . S
H967 C996 0.950 . S
H968 C998 0.950 . S
H969 C999 0.950 . S
C970 H952 0.951 . S
C970 C971 1.366 . S
C970 C972 1.388 . S
C971 C970 1.366 . S
C971 C975 1.385 . S
C972 H953 0.951 . S
C972 C970 1.388 . S
C972 C973 1.366 . S
C973 C972 1.366 . S
C973 C974 1.414 . S
C973 C976 1.499 . S
C974 H954 0.950 . S
C974 C973 1.414 . S
C974 C975 1.374 . S
C975 H955 0.950 . S
C975 C971 1.385 . S
C975 C974 1.374 . S
C976 C973 1.499 . S
C976 C977 1.373 . S
C976 C978 1.389 . S
C977 H956 0.950 . S
C977 C976 1.373 . S
C977 C993 1.377 . S
C978 C976 1.389 . S
C978 C979 1.524 . S
C978 C992 1.377 . S
C979 C978 1.524 . S
C979 C980 1.397 . S
C979 C984 1.363 . S
C980 H957 0.950 . S
C980 C979 1.397 . S
C980 C981 1.334 . S
C981 H958 0.950 . S
C981 C980 1.334 . S
C981 C982 1.287 . S
C982 C981 1.287 . S
C982 C983 1.524 . S
C982 H1001 0.913 . S
C983 H959 0.950 . S
C983 C982 1.524 . S
C983 C984 1.415 . S
C984 H960 0.950 . S
C984 C979 1.363 . S
C984 C983 1.415 . S
C985 H961 0.951 . S
C985 C986 1.366 . S
C985 C987 1.388 . S
C986 C985 1.366 . S
C986 C990 1.385 . S
C987 H962 0.951 . S
C987 C985 1.388 . S
C987 C988 1.366 . S
C988 C987 1.366 . S
C988 C989 1.414 . S
C988 C991 1.499 . S
C989 H963 0.950 . S
C989 C988 1.414 . S
C989 C990 1.374 . S
C990 H964 0.950 . S
C990 C986 1.385 . S
C990 C989 1.374 . S
C991 C988 1.499 . S
C991 C992 1.373 . S
C991 C993 1.389 . S
C992 H965 0.950 . S
C992 C978 1.377 . S
C992 C991 1.373 . S
C993 C977 1.377 . S
C993 C991 1.389 . S
C993 C994 1.524 . S
C994 C993 1.524 . S
C994 C995 1.397 . S
C994 C999 1.363 . S
C995 H966 0.950 . S
C995 C994 1.397 . S
C995 C996 1.334 . S
C996 H967 0.950 . S
C996 C995 1.334 . S
C996 C997 1.287 . S
C997 C996 1.287 . S
C997 C998 1.524 . S
C997 H1000 0.999 . S
C998 H968 0.950 . S
C998 C997 1.524 . S
C998 C999 1.415 . S
C999 H969 0.950 . S
C999 C994 1.363 . S
C999 C998 1.415 . S
H1000 C997 0.999 . S
H1001 C982 0.913 . S
H1002 C1020 0.951 . S
H1003 C1022 0.951 . S
H1004 C1024 0.950 . S
H1005 C1025 0.950 . S
H1006 C1027 0.950 . S
H1007 C1030 0.950 . S
H1008 C1031 0.950 . S
H1009 C1033 0.950 . S
H1010 C1034 0.950 . S
H1011 C1035 0.951 . S
H1012 C1037 0.951 . S
H1013 C1039 0.950 . S
H1014 C1040 0.950 1_556 S
H1015 C1042 0.950 . S
H1016 C1045 0.950 . S
H1017 C1046 0.950 . S
H1018 C1048 0.950 . S
H1019 C1049 0.950 . S
C1020 H1002 0.951 . S
C1020 C1021 1.366 . S
C1020 C1022 1.388 . S
C1021 C1020 1.366 . S
C1021 C1025 1.385 . S
C1022 H1003 0.951 . S
C1022 C1020 1.388 . S
C1022 C1023 1.366 . S
C1023 C1022 1.366 . S
C1023 C1024 1.414 . S
C1023 C1026 1.499 . S
C1024 H1004 0.950 . S
C1024 C1023 1.414 . S
C1024 C1025 1.374 . S
C1025 H1005 0.950 . S
C1025 C1021 1.385 . S
C1025 C1024 1.374 . S
C1026 C1023 1.499 . S
C1026 C1027 1.373 . S
C1026 C1028 1.389 . S
C1027 H1006 0.950 . S
C1027 C1026 1.373 . S
C1027 C1043 1.377 . S
C1028 C1026 1.389 . S
C1028 C1029 1.524 . S
C1028 C1042 1.377 . S
C1029 C1028 1.524 . S
C1029 C1030 1.397 . S
C1029 C1034 1.363 . S
C1030 H1007 0.950 . S
C1030 C1029 1.397 . S
C1030 C1031 1.334 . S
C1031 H1008 0.950 . S
C1031 C1030 1.334 . S
C1031 C1032 1.287 . S
C1032 C1031 1.287 . S
C1032 C1033 1.524 . S
C1032 H1051 0.913 . S
C1033 H1009 0.950 . S
C1033 C1032 1.524 . S
C1033 C1034 1.415 . S
C1034 H1010 0.950 . S
C1034 C1029 1.363 . S
C1034 C1033 1.415 . S
C1035 H1011 0.951 . S
C1035 C1036 1.366 . S
C1035 C1037 1.388 . S
C1036 C1035 1.366 . S
C1036 C1040 1.385 . S
C1037 H1012 0.951 . S
C1037 C1035 1.388 . S
C1037 C1038 1.366 . S
C1038 C1037 1.366 . S
C1038 C1039 1.414 . S
C1038 C1041 1.499 . S
C1039 H1013 0.950 . S
C1039 C1038 1.414 . S
C1039 C1040 1.374 . S
C1040 H1014 0.950 1_554 S
C1040 C1036 1.385 . S
C1040 C1039 1.374 . S
C1041 C1038 1.499 . S
C1041 C1042 1.373 . S
C1041 C1043 1.389 . S
C1042 H1015 0.950 . S
C1042 C1028 1.377 . S
C1042 C1041 1.373 . S
C1043 C1027 1.377 . S
C1043 C1041 1.389 . S
C1043 C1044 1.524 . S
C1044 C1043 1.524 . S
C1044 C1045 1.397 . S
C1044 C1049 1.363 . S
C1045 H1016 0.950 . S
C1045 C1044 1.397 . S
C1045 C1046 1.334 . S
C1046 H1017 0.950 . S
C1046 C1045 1.334 . S
C1046 C1047 1.287 . S
C1047 C1046 1.287 . S
C1047 C1048 1.524 . S
C1047 H1050 0.999 . S
C1048 H1018 0.950 . S
C1048 C1047 1.524 . S
C1048 C1049 1.415 . S
C1049 H1019 0.950 . S
C1049 C1044 1.363 . S
C1049 C1048 1.415 . S
H1050 C1047 0.999 . S
H1051 C1032 0.913 . S
H1052 C1070 0.951 . S
H1053 C1072 0.951 . S
H1054 C1074 0.950 . S
H1055 C1075 0.950 . S
H1056 C1077 0.950 . S
H1057 C1080 0.950 . S
H1058 C1081 0.950 . S
H1059 C1083 0.950 . S
H1060 C1084 0.950 . S
H1061 C1085 0.964 . S
H1062 C1087 0.951 . S
H1063 C1089 0.950 . S
H1064 C1090 0.950 . S
H1065 C1092 0.950 . S
H1066 C1095 0.950 . S
H1067 C1096 0.950 . S
H1068 C1098 0.950 . S
H1069 C1099 0.950 . S
C1070 H1052 0.951 . S
C1070 C1071 1.366 . S
C1070 C1072 1.388 . S
C1071 C1070 1.366 . S
C1071 C1075 1.385 . S
C1072 H1053 0.951 . S
C1072 C1070 1.388 . S
C1072 C1073 1.366 . S
C1073 C1072 1.366 . S
C1073 C1074 1.414 . S
C1073 C1076 1.499 . S
C1074 H1054 0.950 . S
C1074 C1073 1.414 . S
C1074 C1075 1.374 . S
C1075 H1055 0.950 . S
C1075 C1071 1.385 . S
C1075 C1074 1.374 . S
C1076 C1073 1.499 . S
C1076 C1077 1.373 . S
C1076 C1078 1.389 . S
C1077 H1056 0.950 . S
C1077 C1076 1.373 . S
C1077 C1093 1.377 . S
C1078 C1076 1.389 . S
C1078 C1079 1.524 . S
C1078 C1092 1.377 . S
C1079 C1078 1.524 . S
C1079 C1080 1.397 . S
C1079 C1084 1.363 . S
C1080 H1057 0.950 . S
C1080 C1079 1.397 . S
C1080 C1081 1.334 . S
C1081 H1058 0.950 . S
C1081 C1080 1.334 . S
C1081 C1082 1.287 . S
C1082 C1081 1.287 . S
C1082 C1083 1.524 . S
C1082 H1101 0.913 . S
C1083 H1059 0.950 . S
C1083 C1082 1.524 . S
C1083 C1084 1.415 . S
C1084 H1060 0.950 . S
C1084 C1079 1.363 . S
C1084 C1083 1.415 . S
C1085 H1061 0.964 . S
C1085 C1086 1.366 . S
C1085 C1087 1.388 . S
C1086 C1085 1.366 . S
C1086 C1090 1.385 . S
C1087 H1062 0.951 . S
C1087 C1085 1.388 . S
C1087 C1088 1.366 . S
C1088 C1087 1.366 . S
C1088 C1089 1.414 . S
C1088 C1091 1.499 . S
C1089 H1063 0.950 . S
C1089 C1088 1.414 . S
C1089 C1090 1.374 . S
C1090 H1064 0.950 . S
C1090 C1086 1.385 . S
C1090 C1089 1.374 . S
C1091 C1088 1.499 . S
C1091 C1092 1.373 . S
C1091 C1093 1.389 . S
C1092 H1065 0.950 . S
C1092 C1078 1.377 . S
C1092 C1091 1.373 . S
C1093 C1077 1.377 . S
C1093 C1091 1.389 . S
C1093 C1094 1.524 . S
C1094 C1093 1.524 . S
C1094 C1095 1.397 . S
C1094 C1099 1.363 . S
C1095 H1066 0.950 . S
C1095 C1094 1.397 . S
C1095 C1096 1.334 . S
C1096 H1067 0.950 . S
C1096 C1095 1.334 . S
C1096 C1097 1.287 . S
C1097 C1096 1.287 . S
C1097 C1098 1.524 . S
C1097 H1100 0.999 . S
C1098 H1068 0.950 . S
C1098 C1097 1.524 . S
C1098 C1099 1.415 . S
C1099 H1069 0.950 . S
C1099 C1094 1.363 . S
C1099 C1098 1.415 . S
H1100 C1097 0.999 . S
H1101 C1082 0.913 . S
H1102 C1120 0.951 . S
H1103 C1122 0.951 . S
H1104 C1124 0.950 . S
H1105 C1125 0.950 . S
H1106 C1127 0.950 . S
H1107 C1130 0.950 . S
H1108 C1131 0.950 . S
H1109 C1133 0.950 . S
H1110 C1134 0.950 . S
H1111 C1135 0.951 1_556 S
H1112 C1137 0.951 . S
H1113 C1139 0.950 . S
H1114 C1140 0.950 . S
H1115 C1142 0.950 . S
H1116 C1145 0.950 . S
H1117 C1146 0.950 1_556 S
H1118 C1148 0.950 1_556 S
H1119 C1149 0.950 . S
C1120 H1102 0.951 . S
C1120 C1121 1.366 . S
C1120 C1122 1.388 . S
C1121 C1120 1.366 . S
C1121 C1125 1.385 . S
C1122 H1103 0.951 . S
C1122 C1120 1.388 . S
C1122 C1123 1.366 . S
C1123 C1122 1.366 . S
C1123 C1124 1.414 . S
C1123 C1126 1.499 . S
C1124 H1104 0.950 . S
C1124 C1123 1.414 . S
C1124 C1125 1.374 . S
C1125 H1105 0.950 . S
C1125 C1121 1.385 . S
C1125 C1124 1.374 . S
C1126 C1123 1.499 . S
C1126 C1127 1.373 . S
C1126 C1128 1.389 . S
C1127 H1106 0.950 . S
C1127 C1126 1.373 . S
C1127 C1143 1.377 . S
C1128 C1126 1.389 . S
C1128 C1129 1.524 . S
C1128 C1142 1.377 . S
C1129 C1128 1.524 . S
C1129 C1130 1.397 . S
C1129 C1134 1.363 . S
C1130 H1107 0.950 . S
C1130 C1129 1.397 . S
C1130 C1131 1.334 . S
C1131 H1108 0.950 . S
C1131 C1130 1.334 . S
C1131 C1132 1.287 . S
C1132 C1131 1.287 . S
C1132 C1133 1.524 . S
C1132 H1151 0.913 . S
C1133 H1109 0.950 . S
C1133 C1132 1.524 . S
C1133 C1134 1.415 . S
C1134 H1110 0.950 . S
C1134 C1129 1.363 . S
C1134 C1133 1.415 . S
C1135 H1111 0.951 1_554 S
C1135 C1136 1.366 . S
C1135 C1137 1.388 . S
C1136 C1135 1.366 . S
C1136 C1140 1.385 . S
C1137 H1112 0.951 . S
C1137 C1135 1.388 . S
C1137 C1138 1.366 . S
C1138 C1137 1.366 . S
C1138 C1139 1.414 . S
C1138 C1141 1.499 . S
C1139 H1113 0.950 . S
C1139 C1138 1.414 . S
C1139 C1140 1.374 . S
C1140 H1114 0.950 . S
C1140 C1136 1.385 . S
C1140 C1139 1.374 . S
C1141 C1138 1.499 . S
C1141 C1142 1.373 . S
C1141 C1143 1.389 . S
C1142 H1115 0.950 . S
C1142 C1128 1.377 . S
C1142 C1141 1.373 . S
C1143 C1127 1.377 . S
C1143 C1141 1.389 . S
C1143 C1144 1.524 . S
C1144 C1143 1.524 . S
C1144 C1145 1.397 . S
C1144 C1149 1.363 . S
C1145 H1116 0.950 . S
C1145 C1144 1.397 . S
C1145 C1146 1.334 . S
C1146 H1117 0.950 1_554 S
C1146 C1145 1.334 . S
C1146 C1147 1.287 1_554 S
C1147 C1146 1.287 1_556 S
C1147 C1148 1.524 1_556 S
C1147 H1150 0.999 . S
C1148 H1118 0.950 1_554 S
C1148 C1147 1.524 1_554 S
C1148 C1149 1.415 . S
C1149 H1119 0.950 . S
C1149 C1144 1.363 . S
C1149 C1148 1.415 . S
H1150 C1147 0.999 . S
H1151 C1132 0.913 . S
H1152 C1170 0.951 . S
H1153 C1172 0.951 . S
H1154 C1174 0.950 . S
H1155 C1175 0.950 . S
H1156 C1177 0.950 . S
H1157 C1180 0.950 . S
H1158 C1181 0.950 . S
H1159 C1183 0.950 . S
H1160 C1184 0.950 . S
H1161 C1185 0.951 . S
H1162 C1187 0.951 . S
H1163 C1189 0.950 . S
H1164 C1190 0.950 . S
H1165 C1192 0.950 . S
H1166 C1195 0.950 . S
H1167 C1196 0.950 . S
H1168 C1198 0.950 . S
H1169 C1199 0.950 . S
C1170 H1152 0.951 . S
C1170 C1171 1.366 . S
C1170 C1172 1.388 . S
C1171 C1170 1.366 . S
C1171 C1175 1.385 . S
C1172 H1153 0.951 . S
C1172 C1170 1.388 . S
C1172 C1173 1.366 . S
C1173 C1172 1.366 . S
C1173 C1174 1.414 . S
C1173 C1176 1.499 . S
C1174 H1154 0.950 . S
C1174 C1173 1.414 . S
C1174 C1175 1.374 . S
C1175 H1155 0.950 . S
C1175 C1171 1.385 . S
C1175 C1174 1.374 . S
C1176 C1173 1.499 . S
C1176 C1177 1.373 . S
C1176 C1178 1.389 . S
C1177 H1156 0.950 . S
C1177 C1176 1.373 . S
C1177 C1193 1.377 . S
C1178 C1176 1.389 . S
C1178 C1179 1.524 . S
C1178 C1192 1.377 . S
C1179 C1178 1.524 . S
C1179 C1180 1.397 . S
C1179 C1184 1.363 . S
C1180 H1157 0.950 . S
C1180 C1179 1.397 . S
C1180 C1181 1.334 . S
C1181 H1158 0.950 . S
C1181 C1180 1.334 . S
C1181 C1182 1.287 . S
C1182 C1181 1.287 . S
C1182 C1183 1.524 . S
C1182 H1201 0.913 . S
C1183 H1159 0.950 . S
C1183 C1182 1.524 . S
C1183 C1184 1.415 . S
C1184 H1160 0.950 . S
C1184 C1179 1.363 . S
C1184 C1183 1.415 . S
C1185 H1161 0.951 . S
C1185 C1186 1.366 . S
C1185 C1187 1.388 . S
C1186 C1185 1.366 . S
C1186 C1190 1.385 . S
C1187 H1162 0.951 . S
C1187 C1185 1.388 . S
C1187 C1188 1.366 . S
C1188 C1187 1.366 . S
C1188 C1189 1.414 . S
C1188 C1191 1.499 . S
C1189 H1163 0.950 . S
C1189 C1188 1.414 . S
C1189 C1190 1.374 . S
C1190 H1164 0.950 . S
C1190 C1186 1.385 . S
C1190 C1189 1.374 . S
C1191 C1188 1.499 . S
C1191 C1192 1.373 . S
C1191 C1193 1.389 . S
C1192 H1165 0.950 . S
C1192 C1178 1.377 . S
C1192 C1191 1.373 . S
C1193 C1177 1.377 . S
C1193 C1191 1.389 . S
C1193 C1194 1.524 . S
C1194 C1193 1.524 . S
C1194 C1195 1.397 . S
C1194 C1199 1.363 . S
C1195 H1166 0.950 . S
C1195 C1194 1.397 . S
C1195 C1196 1.334 . S
C1196 H1167 0.950 . S
C1196 C1195 1.334 . S
C1196 C1197 1.287 . S
C1197 C1196 1.287 . S
C1197 C1198 1.524 . S
C1197 H1200 0.999 . S
C1198 H1168 0.950 . S
C1198 C1197 1.524 . S
C1198 C1199 1.415 . S
C1199 H1169 0.950 . S
C1199 C1194 1.363 . S
C1199 C1198 1.415 . S
H1200 C1197 0.999 . S
H1201 C1182 0.913 . S
H1202 C1220 0.951 . S
H1203 C1222 0.951 . S
H1204 C1224 0.950 . S
H1205 C1225 0.950 . S
H1206 C1227 0.950 . S
H1207 C1230 0.950 . S
H1208 C1231 0.950 . S
H1209 C1233 0.950 . S
H1210 C1234 0.950 . S
H1211 C1235 0.951 . S
H1212 C1237 0.951 . S
H1213 C1239 0.950 . S
H1214 C1240 0.950 . S
H1215 C1242 0.950 . S
H1216 C1245 0.950 . S
H1217 C1246 0.950 . S
H1218 C1248 0.950 . S
H1219 C1249 0.950 . S
C1220 H1202 0.951 . S
C1220 C1221 1.366 . S
C1220 C1222 1.388 . S
C1221 C1220 1.366 . S
C1221 C1225 1.385 . S
C1222 H1203 0.951 . S
C1222 C1220 1.388 . S
C1222 C1223 1.366 . S
C1223 C1222 1.366 . S
C1223 C1224 1.414 . S
C1223 C1226 1.499 . S
C1224 H1204 0.950 . S
C1224 C1223 1.414 . S
C1224 C1225 1.374 . S
C1225 H1205 0.950 . S
C1225 C1221 1.385 . S
C1225 C1224 1.374 . S
C1226 C1223 1.499 . S
C1226 C1227 1.373 . S
C1226 C1228 1.389 . S
C1227 H1206 0.950 . S
C1227 C1226 1.373 . S
C1227 C1243 1.377 . S
C1228 C1226 1.389 . S
C1228 C1229 1.524 . S
C1228 C1242 1.377 . S
C1229 C1228 1.524 . S
C1229 C1230 1.397 . S
C1229 C1234 1.363 . S
C1230 H1207 0.950 . S
C1230 C1229 1.397 . S
C1230 C1231 1.334 . S
C1231 H1208 0.950 . S
C1231 C1230 1.334 . S
C1231 C1232 1.287 . S
C1232 C1231 1.287 . S
C1232 C1233 1.524 . S
C1232 H1251 0.913 . S
C1233 H1209 0.950 . S
C1233 C1232 1.524 . S
C1233 C1234 1.415 . S
C1234 H1210 0.950 . S
C1234 C1229 1.363 . S
C1234 C1233 1.415 . S
C1235 H1211 0.951 . S
C1235 C1236 1.366 . S
C1235 C1237 1.388 . S
C1236 C1235 1.366 . S
C1236 C1240 1.385 . S
C1237 H1212 0.951 . S
C1237 C1235 1.388 . S
C1237 C1238 1.366 . S
C1238 C1237 1.366 . S
C1238 C1239 1.414 . S
C1238 C1241 1.499 . S
C1239 H1213 0.950 . S
C1239 C1238 1.414 . S
C1239 C1240 1.374 . S
C1240 H1214 0.950 . S
C1240 C1236 1.385 . S
C1240 C1239 1.374 . S
C1241 C1238 1.499 . S
C1241 C1242 1.373 . S
C1241 C1243 1.389 . S
C1242 H1215 0.950 . S
C1242 C1228 1.377 . S
C1242 C1241 1.373 . S
C1243 C1227 1.377 . S
C1243 C1241 1.389 . S
C1243 C1244 1.524 . S
C1244 C1243 1.524 . S
C1244 C1245 1.397 . S
C1244 C1249 1.363 . S
C1245 H1216 0.950 . S
C1245 C1244 1.397 . S
C1245 C1246 1.334 . S
C1246 H1217 0.950 . S
C1246 C1245 1.334 . S
C1246 C1247 1.287 . S
C1247 C1246 1.287 . S
C1247 C1248 1.524 . S
C1247 H1250 0.999 . S
C1248 H1218 0.950 . S
C1248 C1247 1.524 . S
C1248 C1249 1.415 . S
C1249 H1219 0.950 . S
C1249 C1244 1.363 . S
C1249 C1248 1.415 . S
H1250 C1247 0.999 . S
H1251 C1232 0.913 . S
H1252 C1270 0.951 . S
H1253 C1272 0.951 . S
H1254 C1274 0.950 . S
H1255 C1275 0.984 . S
H1256 C1277 0.950 . S
H1257 C1280 0.950 . S
H1258 C1281 0.950 1_565 S
H1259 C1283 0.950 . S
H1260 C1284 0.950 . S
H1261 C1285 0.951 . S
H1262 C1287 0.951 . S
H1263 C1289 0.950 . S
H1264 C1290 0.950 . S
H1265 C1292 0.950 . S
H1266 C1295 0.950 . S
H1267 C1296 0.950 . S
H1268 C1298 0.950 . S
H1269 C1299 0.950 . S
C1270 H1252 0.951 . S
C1270 C1271 1.366 . S
C1270 C1272 1.388 . S
C1271 C1270 1.366 . S
C1271 C1275 1.381 1_545 S
C1272 H1253 0.951 . S
C1272 C1270 1.388 . S
C1272 C1273 1.366 . S
C1273 C1272 1.366 . S
C1273 C1274 1.414 . S
C1273 C1276 1.499 . S
C1274 H1254 0.950 . S
C1274 C1273 1.414 . S
C1274 C1275 1.345 1_545 S
C1275 H1255 0.984 . S
C1275 C1271 1.381 1_565 S
C1275 C1274 1.345 1_565 S
C1276 C1273 1.499 . S
C1276 C1277 1.373 . S
C1276 C1278 1.389 . S
C1277 H1256 0.950 . S
C1277 C1276 1.373 . S
C1277 C1293 1.377 . S
C1278 C1276 1.389 . S
C1278 C1279 1.524 . S
C1278 C1292 1.377 . S
C1279 C1278 1.524 . S
C1279 C1280 1.397 . S
C1279 C1284 1.363 . S
C1280 H1257 0.950 . S
C1280 C1279 1.397 . S
C1280 C1281 1.334 . S
C1281 H1258 0.950 1_545 S
C1281 C1280 1.334 . S
C1281 C1282 1.287 . S
C1282 C1281 1.287 . S
C1282 C1283 1.524 . S
C1282 H1301 0.913 . S
C1283 H1259 0.950 . S
C1283 C1282 1.524 . S
C1283 C1284 1.415 . S
C1284 H1260 0.950 . S
C1284 C1279 1.363 . S
C1284 C1283 1.415 . S
C1285 H1261 0.951 . S
C1285 C1286 1.366 . S
C1285 C1287 1.388 . S
C1286 C1285 1.366 . S
C1286 C1290 1.385 . S
C1287 H1262 0.951 . S
C1287 C1285 1.388 . S
C1287 C1288 1.366 . S
C1288 C1287 1.366 . S
C1288 C1289 1.414 . S
C1288 C1291 1.499 . S
C1289 H1263 0.950 . S
C1289 C1288 1.414 . S
C1289 C1290 1.374 . S
C1290 H1264 0.950 . S
C1290 C1286 1.385 . S
C1290 C1289 1.374 . S
C1291 C1288 1.499 . S
C1291 C1292 1.373 . S
C1291 C1293 1.389 . S
C1292 H1265 0.950 . S
C1292 C1278 1.377 . S
C1292 C1291 1.373 . S
C1293 C1277 1.377 . S
C1293 C1291 1.389 . S
C1293 C1294 1.524 . S
C1294 C1293 1.524 . S
C1294 C1295 1.397 . S
C1294 C1299 1.363 . S
C1295 H1266 0.950 . S
C1295 C1294 1.397 . S
C1295 C1296 1.334 . S
C1296 H1267 0.950 . S
C1296 C1295 1.334 . S
C1296 C1297 1.287 . S
C1297 C1296 1.287 . S
C1297 C1298 1.524 . S
C1297 H1300 0.999 . S
C1298 H1268 0.950 . S
C1298 C1297 1.524 . S
C1298 C1299 1.415 . S
C1299 H1269 0.950 . S
C1299 C1294 1.363 . S
C1299 C1298 1.415 . S
H1300 C1297 0.999 . S
H1301 C1282 0.913 . S
H1302 C1320 0.951 . S
H1303 C1322 0.951 . S
H1304 C1324 0.950 . S
H1305 C1325 0.950 . S
H1306 C1327 0.950 . S
H1307 C1330 0.950 . S
H1308 C1331 0.945 1_554 S
H1309 C1333 0.950 . S
H1310 C1334 0.950 . S
H1311 C1335 0.951 . S
H1312 C1337 0.951 . S
H1313 C1339 0.950 1_556 S
H1314 C1340 0.950 . S
H1315 C1342 0.950 . S
H1316 C1345 0.950 . S
H1317 C1346 0.950 . S
H1318 C1348 0.950 . S
H1319 C1349 0.950 . S
C1320 H1302 0.951 . S
C1320 C1321 1.366 . S
C1320 C1322 1.388 . S
C1321 C1320 1.366 . S
C1321 C1325 1.385 . S
C1322 H1303 0.951 . S
C1322 C1320 1.388 . S
C1322 C1323 1.366 . S
C1323 C1322 1.366 . S
C1323 C1324 1.414 . S
C1323 C1326 1.499 . S
C1324 H1304 0.950 . S
C1324 C1323 1.414 . S
C1324 C1325 1.374 . S
C1325 H1305 0.950 . S
C1325 C1321 1.385 . S
C1325 C1324 1.374 . S
C1326 C1323 1.499 . S
C1326 C1327 1.373 . S
C1326 C1328 1.389 . S
C1327 H1306 0.950 . S
C1327 C1326 1.373 . S
C1327 C1343 1.377 . S
C1328 C1326 1.389 . S
C1328 C1329 1.524 . S
C1328 C1342 1.377 . S
C1329 C1328 1.524 . S
C1329 C1330 1.397 . S
C1329 C1334 1.363 1_554 S
C1330 H1307 0.950 . S
C1330 C1329 1.397 . S
C1330 C1331 1.319 1_554 S
C1331 H1308 0.945 1_556 S
C1331 C1330 1.319 1_556 S
C1331 C1332 1.308 . S
C1332 C1331 1.308 . S
C1332 C1333 1.524 . S
C1332 H1351 0.913 . S
C1333 H1309 0.950 . S
C1333 C1332 1.524 . S
C1333 C1334 1.415 . S
C1334 H1310 0.950 . S
C1334 C1329 1.363 1_556 S
C1334 C1333 1.415 . S
C1335 H1311 0.951 . S
C1335 C1336 1.366 . S
C1335 C1337 1.388 . S
C1336 C1335 1.366 . S
C1336 C1340 1.385 1_554 S
C1337 H1312 0.951 . S
C1337 C1335 1.388 . S
C1337 C1338 1.366 . S
C1338 C1337 1.366 . S
C1338 C1339 1.414 . S
C1338 C1341 1.499 . S
C1339 H1313 0.950 1_554 S
C1339 C1338 1.414 . S
C1339 C1340 1.374 1_554 S
C1340 H1314 0.950 . S
C1340 C1336 1.385 1_556 S
C1340 C1339 1.374 1_556 S
C1341 C1338 1.499 . S
C1341 C1342 1.373 . S
C1341 C1343 1.389 . S
C1342 H1315 0.950 . S
C1342 C1328 1.377 . S
C1342 C1341 1.373 . S
C1343 C1327 1.377 . S
C1343 C1341 1.389 . S
C1343 C1344 1.524 . S
C1344 C1343 1.524 . S
C1344 C1345 1.397 . S
C1344 C1349 1.363 . S
C1345 H1316 0.950 . S
C1345 C1344 1.397 . S
C1345 C1346 1.334 . S
C1346 H1317 0.950 . S
C1346 C1345 1.334 . S
C1346 C1347 1.287 . S
C1347 C1346 1.287 . S
C1347 C1348 1.524 . S
C1347 H1350 0.999 . S
C1348 H1318 0.950 . S
C1348 C1347 1.524 . S
C1348 C1349 1.415 . S
C1349 H1319 0.950 . S
C1349 C1344 1.363 . S
C1349 C1348 1.415 . S
H1350 C1347 0.999 . S
H1351 C1332 0.913 . S
H1352 C1370 0.944 1_556 S
H1353 C1372 0.951 . S
H1354 C1374 0.950 1_655 S
H1355 C1375 0.950 . S
H1356 C1377 0.950 . S
H1357 C1380 0.950 . S
H1358 C1381 0.950 . S
H1359 C1383 0.950 . S
H1360 C1384 0.950 . S
H1361 C1385 0.951 . S
H1362 C1387 0.951 . S
H1363 C1389 0.950 . S
H1364 C1390 0.950 . S
H1365 C1392 0.950 . S
H1366 C1395 0.950 . S
H1367 C1396 0.950 . S
H1368 C1398 0.895 1_655 S
H1369 C1399 0.950 . S
C1370 H1352 0.944 1_554 S
C1370 C1371 1.366 . S
C1370 C1372 1.394 . S
C1371 C1370 1.366 . S
C1371 C1375 1.385 1_455 S
C1372 H1353 0.951 . S
C1372 C1370 1.394 . S
C1372 C1373 1.366 . S
C1373 C1372 1.366 . S
C1373 C1374 1.414 . S
C1373 C1376 1.499 . S
C1374 H1354 0.950 1_455 S
C1374 C1373 1.414 . S
C1374 C1375 1.374 1_455 S
C1375 H1355 0.950 . S
C1375 C1371 1.385 1_655 S
C1375 C1374 1.374 1_655 S
C1376 C1373 1.499 . S
C1376 C1377 1.373 . S
C1376 C1378 1.389 . S
C1377 H1356 0.950 . S
C1377 C1376 1.373 . S
C1377 C1393 1.377 . S
C1378 C1376 1.389 . S
C1378 C1379 1.524 1_554 S
C1378 C1392 1.377 . S
C1379 C1378 1.524 1_556 S
C1379 C1380 1.397 . S
C1379 C1384 1.363 . S
C1380 H1357 0.950 . S
C1380 C1379 1.397 . S
C1380 C1381 1.334 . S
C1381 H1358 0.950 . S
C1381 C1380 1.334 . S
C1381 C1382 1.287 . S
C1382 C1381 1.287 . S
C1382 C1383 1.524 . S
C1382 H1401 0.913 . S
C1383 H1359 0.950 . S
C1383 C1382 1.524 . S
C1383 C1384 1.415 . S
C1384 H1360 0.950 . S
C1384 C1379 1.363 . S
C1384 C1383 1.415 . S
C1385 H1361 0.951 . S
C1385 C1386 1.366 . S
C1385 C1387 1.388 . S
C1386 C1385 1.366 . S
C1386 C1390 1.385 . S
C1387 H1362 0.951 . S
C1387 C1385 1.388 . S
C1387 C1388 1.366 . S
C1388 C1387 1.366 . S
C1388 C1389 1.414 . S
C1388 C1391 1.499 . S
C1389 H1363 0.950 . S
C1389 C1388 1.414 . S
C1389 C1390 1.374 . S
C1390 H1364 0.950 . S
C1390 C1386 1.385 . S
C1390 C1389 1.374 . S
C1391 C1388 1.499 . S
C1391 C1392 1.373 . S
C1391 C1393 1.389 . S
C1392 H1365 0.950 . S
C1392 C1378 1.377 . S
C1392 C1391 1.373 . S
C1393 C1377 1.377 . S
C1393 C1391 1.389 . S
C1393 C1394 1.524 . S
C1394 C1393 1.524 . S
C1394 C1395 1.397 . S
C1394 C1399 1.363 . S
C1395 H1366 0.950 . S
C1395 C1394 1.397 . S
C1395 C1396 1.334 . S
C1396 H1367 0.950 . S
C1396 C1395 1.334 . S
C1396 C1397 1.287 . S
C1397 C1396 1.287 . S
C1397 C1398 1.524 . S
C1397 H1400 0.999 . S
C1398 H1368 0.895 1_455 S
C1398 C1397 1.524 . S
C1398 C1399 1.415 . S
C1399 H1369 0.950 . S
C1399 C1394 1.363 . S
C1399 C1398 1.415 . S
H1400 C1397 0.999 . S
H1401 C1382 0.913 . S
H1402 C1420 0.946 1_556 S
H1403 C1422 0.951 . S
H1404 C1424 0.950 . S
H1405 C1425 0.950 . S
H1406 C1427 0.950 . S
H1407 C1430 0.950 . S
H1408 C1431 0.950 . S
H1409 C1433 0.950 . S
H1410 C1434 0.950 1_554 S
H1411 C1435 0.951 . S
H1412 C1437 0.951 . S
H1413 C1439 0.950 . S
H1414 C1440 0.950 . S
H1415 C1442 0.950 . S
H1416 C1445 0.950 . S
H1417 C1446 0.950 . S
H1418 C1448 0.950 . S
H1419 C1449 0.950 . S
C1420 H1402 0.946 1_554 S
C1420 C1421 1.366 . S
C1420 C1422 1.388 . S
C1421 C1420 1.366 . S
C1421 C1425 1.385 . S
C1422 H1403 0.951 . S
C1422 C1420 1.388 . S
C1422 C1423 1.366 . S
C1423 C1422 1.366 . S
C1423 C1424 1.414 . S
C1423 C1426 1.499 . S
C1424 H1404 0.950 . S
C1424 C1423 1.414 . S
C1424 C1425 1.374 . S
C1425 H1405 0.950 . S
C1425 C1421 1.385 . S
C1425 C1424 1.374 . S
C1426 C1423 1.499 . S
C1426 C1427 1.373 . S
C1426 C1428 1.389 . S
C1427 H1406 0.950 . S
C1427 C1426 1.373 . S
C1427 C1443 1.377 . S
C1428 C1426 1.389 . S
C1428 C1429 1.524 1_554 S
C1428 C1442 1.377 . S
C1429 C1428 1.524 1_556 S
C1429 C1430 1.397 . S
C1429 C1434 1.363 . S
C1430 H1407 0.950 . S
C1430 C1429 1.397 . S
C1430 C1431 1.334 . S
C1431 H1408 0.950 . S
C1431 C1430 1.334 . S
C1431 C1432 1.287 . S
C1432 C1431 1.287 . S
C1432 C1433 1.524 . S
C1432 H1451 0.913 . S
C1433 H1409 0.950 . S
C1433 C1432 1.524 . S
C1433 C1434 1.415 . S
C1434 H1410 0.950 1_556 S
C1434 C1429 1.363 . S
C1434 C1433 1.415 . S
C1435 H1411 0.951 . S
C1435 C1436 1.366 . S
C1435 C1437 1.388 . S
C1436 C1435 1.366 . S
C1436 C1440 1.385 . S
C1437 H1412 0.951 . S
C1437 C1435 1.388 . S
C1437 C1438 1.366 . S
C1438 C1437 1.366 . S
C1438 C1439 1.414 . S
C1438 C1441 1.499 . S
C1439 H1413 0.950 . S
C1439 C1438 1.414 . S
C1439 C1440 1.374 . S
C1440 H1414 0.950 . S
C1440 C1436 1.385 . S
C1440 C1439 1.374 . S
C1441 C1438 1.499 . S
C1441 C1442 1.373 . S
C1441 C1443 1.389 . S
C1442 H1415 0.950 . S
C1442 C1428 1.377 . S
C1442 C1441 1.373 . S
C1443 C1427 1.377 . S
C1443 C1441 1.389 . S
C1443 C1444 1.524 . S
C1444 C1443 1.524 . S
C1444 C1445 1.397 . S
C1444 C1449 1.363 . S
C1445 H1416 0.950 . S
C1445 C1444 1.397 . S
C1445 C1446 1.334 . S
C1446 H1417 0.950 . S
C1446 C1445 1.334 . S
C1446 C1447 1.287 . S
C1447 C1446 1.287 . S
C1447 C1448 1.524 . S
C1447 H1450 0.999 . S
C1448 H1418 0.950 . S
C1448 C1447 1.524 . S
C1448 C1449 1.415 . S
C1449 H1419 0.950 . S
C1449 C1444 1.363 . S
C1449 C1448 1.415 . S
H1450 C1447 0.999 . S
H1451 C1432 0.913 . S
H1452 C1470 0.951 . S
H1453 C1472 0.951 . S
H1454 C1474 0.950 . S
H1455 C1475 0.950 1_655 S
H1456 C1477 0.950 . S
H1457 C1480 0.919 1_655 S
H1458 C1481 0.950 . S
H1459 C1483 0.950 . S
H1460 C1484 0.950 . S
H1461 C1485 0.951 . S
H1462 C1487 0.951 . S
H1463 C1489 0.950 . S
H1464 C1490 0.950 . S
H1465 C1492 0.950 . S
H1466 C1495 0.950 . S
H1467 C1496 0.950 . S
H1468 C1498 0.950 . S
H1469 C1499 0.950 . S
C1470 H1452 0.951 . S
C1470 C1471 1.366 . S
C1470 C1472 1.388 . S
C1471 C1470 1.366 . S
C1471 C1475 1.385 . S
C1472 H1453 0.951 . S
C1472 C1470 1.388 . S
C1472 C1473 1.366 . S
C1473 C1472 1.366 . S
C1473 C1474 1.414 . S
C1473 C1476 1.499 . S
C1474 H1454 0.950 . S
C1474 C1473 1.414 . S
C1474 C1475 1.374 . S
C1475 H1455 0.950 1_455 S
C1475 C1471 1.385 . S
C1475 C1474 1.374 . S
C1476 C1473 1.499 . S
C1476 C1477 1.373 . S
C1476 C1478 1.389 . S
C1477 H1456 0.950 . S
C1477 C1476 1.373 . S
C1477 C1493 1.377 . S
C1478 C1476 1.389 . S
C1478 C1479 1.524 . S
C1478 C1492 1.377 . S
C1479 C1478 1.524 . S
C1479 C1480 1.397 . S
C1479 C1484 1.363 . S
C1480 H1457 0.919 1_455 S
C1480 C1479 1.397 . S
C1480 C1481 1.334 1_455 S
C1481 H1458 0.950 . S
C1481 C1480 1.334 1_655 S
C1481 C1482 1.287 1_655 S
C1482 C1481 1.287 1_455 S
C1482 C1483 1.524 . S
C1482 H1501 0.913 1_455 S
C1483 H1459 0.950 . S
C1483 C1482 1.524 . S
C1483 C1484 1.415 . S
C1484 H1460 0.950 . S
C1484 C1479 1.363 . S
C1484 C1483 1.415 . S
C1485 H1461 0.951 . S
C1485 C1486 1.366 . S
C1485 C1487 1.388 . S
C1486 C1485 1.366 . S
C1486 C1490 1.385 . S
C1487 H1462 0.951 . S
C1487 C1485 1.388 . S
C1487 C1488 1.366 . S
C1488 C1487 1.366 . S
C1488 C1489 1.414 . S
C1488 C1491 1.499 . S
C1489 H1463 0.950 . S
C1489 C1488 1.414 . S
C1489 C1490 1.374 . S
C1490 H1464 0.950 . S
C1490 C1486 1.385 . S
C1490 C1489 1.374 . S
C1491 C1488 1.499 . S
C1491 C1492 1.373 . S
C1491 C1493 1.389 . S
C1492 H1465 0.950 . S
C1492 C1478 1.377 . S
C1492 C1491 1.373 . S
C1493 C1477 1.377 . S
C1493 C1491 1.389 . S
C1493 C1494 1.524 . S
C1494 C1493 1.524 . S
C1494 C1495 1.397 . S
C1494 C1499 1.363 . S
C1495 H1466 0.950 . S
C1495 C1494 1.397 . S
C1495 C1496 1.334 . S
C1496 H1467 0.950 . S
C1496 C1495 1.334 . S
C1496 C1497 1.287 . S
C1497 C1496 1.287 . S
C1497 C1498 1.524 . S
C1497 H1500 0.999 . S
C1498 H1468 0.950 . S
C1498 C1497 1.524 . S
C1498 C1499 1.415 . S
C1499 H1469 0.950 . S
C1499 C1494 1.363 . S
C1499 C1498 1.415 . S
H1500 C1497 0.999 . S
H1501 C1482 0.913 1_655 S
H1502 C1520 0.951 . S
H1503 C1522 0.951 . S
H1504 C1524 0.950 . S
H1505 C1525 0.950 . S
H1506 C1527 0.950 . S
H1507 C1530 0.950 . S
H1508 C1531 0.950 . S
H1509 C1533 0.950 . S
H1510 C1534 0.950 . S
H1511 C1535 0.951 . S
H1512 C1537 0.951 . S
H1513 C1539 0.950 . S
H1514 C1540 0.950 . S
H1515 C1542 0.950 . S
H1516 C1545 0.950 . S
H1517 C1546 0.950 . S
H1518 C1548 0.950 . S
H1519 C1549 0.950 . S
C1520 H1502 0.951 . S
C1520 C1521 1.366 . S
C1520 C1522 1.388 . S
C1521 C1520 1.366 . S
C1521 C1525 1.385 . S
C1522 H1503 0.951 . S
C1522 C1520 1.388 . S
C1522 C1523 1.366 . S
C1523 C1522 1.366 . S
C1523 C1524 1.414 . S
C1523 C1526 1.499 . S
C1524 H1504 0.950 . S
C1524 C1523 1.414 . S
C1524 C1525 1.374 . S
C1525 H1505 0.950 . S
C1525 C1521 1.385 . S
C1525 C1524 1.374 . S
C1526 C1523 1.499 . S
C1526 C1527 1.373 . S
C1526 C1528 1.389 . S
C1527 H1506 0.950 . S
C1527 C1526 1.373 . S
C1527 C1543 1.377 . S
C1528 C1526 1.389 . S
C1528 C1529 1.524 . S
C1528 C1542 1.377 . S
C1529 C1528 1.524 . S
C1529 C1530 1.397 . S
C1529 C1534 1.363 . S
C1530 H1507 0.950 . S
C1530 C1529 1.397 . S
C1530 C1531 1.334 . S
C1531 H1508 0.950 . S
C1531 C1530 1.334 . S
C1531 C1532 1.287 . S
C1532 C1531 1.287 . S
C1532 C1533 1.524 . S
C1532 H1551 0.913 . S
C1533 H1509 0.950 . S
C1533 C1532 1.524 . S
C1533 C1534 1.415 . S
C1534 H1510 0.950 . S
C1534 C1529 1.363 . S
C1534 C1533 1.415 . S
C1535 H1511 0.951 . S
C1535 C1536 1.366 . S
C1535 C1537 1.388 . S
C1536 C1535 1.366 . S
C1536 C1540 1.385 . S
C1537 H1512 0.951 . S
C1537 C1535 1.388 . S
C1537 C1538 1.366 . S
C1538 C1537 1.366 . S
C1538 C1539 1.414 . S
C1538 C1541 1.499 . S
C1539 H1513 0.950 . S
C1539 C1538 1.414 . S
C1539 C1540 1.374 . S
C1540 H1514 0.950 . S
C1540 C1536 1.385 . S
C1540 C1539 1.374 . S
C1541 C1538 1.499 . S
C1541 C1542 1.373 . S
C1541 C1543 1.389 . S
C1542 H1515 0.950 . S
C1542 C1528 1.377 . S
C1542 C1541 1.373 . S
C1543 C1527 1.377 . S
C1543 C1541 1.389 . S
C1543 C1544 1.524 . S
C1544 C1543 1.524 . S
C1544 C1545 1.397 . S
C1544 C1549 1.363 . S
C1545 H1516 0.950 . S
C1545 C1544 1.397 . S
C1545 C1546 1.334 . S
C1546 H1517 0.950 . S
C1546 C1545 1.334 . S
C1546 C1547 1.287 . S
C1547 C1546 1.287 . S
C1547 C1548 1.524 . S
C1547 H1550 0.999 . S
C1548 H1518 0.950 . S
C1548 C1547 1.524 . S
C1548 C1549 1.415 . S
C1549 H1519 0.950 . S
C1549 C1544 1.363 . S
C1549 C1548 1.415 . S
H1550 C1547 0.999 . S
H1551 C1532 0.913 . S
H1552 C1570 0.951 . S
H1553 C1572 0.951 . S
H1554 C1574 0.950 . S
H1555 C1575 0.950 . S
H1556 C1577 0.950 . S
H1557 C1580 0.950 . S
H1558 C1581 0.950 . S
H1559 C1583 0.950 . S
H1560 C1584 0.950 . S
H1561 C1585 0.951 . S
H1562 C1587 0.951 . S
H1563 C1589 0.950 . S
H1564 C1590 0.950 . S
H1565 C1592 0.950 . S
H1566 C1595 0.950 . S
H1567 C1596 0.950 . S
H1568 C1598 0.950 . S
H1569 C1599 0.950 . S
C1570 H1552 0.951 . S
C1570 C1571 1.366 . S
C1570 C1572 1.388 . S
C1571 C1570 1.366 . S
C1571 C1575 1.385 . S
C1572 H1553 0.951 . S
C1572 C1570 1.388 . S
C1572 C1573 1.366 . S
C1573 C1572 1.366 . S
C1573 C1574 1.414 . S
C1573 C1576 1.499 . S
C1574 H1554 0.950 . S
C1574 C1573 1.414 . S
C1574 C1575 1.374 . S
C1575 H1555 0.950 . S
C1575 C1571 1.385 . S
C1575 C1574 1.374 . S
C1576 C1573 1.499 . S
C1576 C1577 1.373 . S
C1576 C1578 1.389 . S
C1577 H1556 0.950 . S
C1577 C1576 1.373 . S
C1577 C1593 1.377 . S
C1578 C1576 1.389 . S
C1578 C1579 1.524 . S
C1578 C1592 1.377 . S
C1579 C1578 1.524 . S
C1579 C1580 1.397 . S
C1579 C1584 1.363 . S
C1580 H1557 0.950 . S
C1580 C1579 1.397 . S
C1580 C1581 1.334 . S
C1581 H1558 0.950 . S
C1581 C1580 1.334 . S
C1581 C1582 1.287 . S
C1582 C1581 1.287 . S
C1582 C1583 1.524 . S
C1582 H1601 0.913 . S
C1583 H1559 0.950 . S
C1583 C1582 1.524 . S
C1583 C1584 1.415 . S
C1584 H1560 0.950 . S
C1584 C1579 1.363 . S
C1584 C1583 1.415 . S
C1585 H1561 0.951 . S
C1585 C1586 1.366 . S
C1585 C1587 1.388 . S
C1586 C1585 1.366 . S
C1586 C1590 1.385 . S
C1587 H1562 0.951 . S
C1587 C1585 1.388 . S
C1587 C1588 1.366 . S
C1588 C1587 1.366 . S
C1588 C1589 1.414 . S
C1588 C1591 1.499 . S
C1589 H1563 0.950 . S
C1589 C1588 1.414 . S
C1589 C1590 1.374 . S
C1590 H1564 0.950 . S
C1590 C1586 1.385 . S
C1590 C1589 1.374 . S
C1591 C1588 1.499 . S
C1591 C1592 1.373 . S
C1591 C1593 1.389 . S
C1592 H1565 0.950 . S
C1592 C1578 1.377 . S
C1592 C1591 1.373 . S
C1593 C1577 1.377 . S
C1593 C1591 1.389 . S
C1593 C1594 1.524 . S
C1594 C1593 1.524 . S
C1594 C1595 1.397 . S
C1594 C1599 1.363 . S
C1595 H1566 0.950 . S
C1595 C1594 1.397 . S
C1595 C1596 1.334 . S
C1596 H1567 0.950 . S
C1596 C1595 1.334 . S
C1596 C1597 1.287 . S
C1597 C1596 1.287 . S
C1597 C1598 1.524 . S
C1597 H1600 0.999 . S
C1598 H1568 0.950 . S
C1598 C1597 1.524 . S
C1598 C1599 1.415 . S
C1599 H1569 0.950 . S
C1599 C1594 1.363 . S
C1599 C1598 1.415 . S
H1600 C1597 0.999 . S
H1601 C1582 0.913 . S
H1602 C1620 0.951 . S
H1603 C1622 0.951 . S
H1604 C1624 0.950 1_565 S
H1605 C1625 0.950 . S
H1606 C1627 0.950 . S
H1607 C1630 0.950 . S
H1608 C1631 0.950 . S
H1609 C1633 0.950 . S
H1610 C1634 0.950 . S
H1611 C1635 0.951 . S
H1612 C1637 0.951 . S
H1613 C1639 0.950 . S
H1614 C1640 0.950 . S
H1615 C1642 0.950 . S
H1616 C1645 0.950 . S
H1617 C1646 0.950 . S
H1618 C1648 0.950 1_565 S
H1619 C1649 0.950 . S
C1620 H1602 0.951 . S
C1620 C1621 1.366 1_554 S
C1620 C1622 1.388 1_554 S
C1621 C1620 1.366 1_556 S
C1621 C1625 1.385 1_545 S
C1622 H1603 0.951 . S
C1622 C1620 1.388 1_556 S
C1622 C1623 1.366 . S
C1623 C1622 1.366 . S
C1623 C1624 1.414 . S
C1623 C1626 1.499 . S
C1624 H1604 0.950 1_545 S
C1624 C1623 1.414 . S
C1624 C1625 1.374 1_545 S
C1625 H1605 0.950 . S
C1625 C1621 1.385 1_565 S
C1625 C1624 1.374 1_565 S
C1626 C1623 1.499 . S
C1626 C1627 1.373 . S
C1626 C1628 1.389 . S
C1627 H1606 0.950 . S
C1627 C1626 1.373 . S
C1627 C1643 1.377 . S
C1628 C1626 1.389 . S
C1628 C1629 1.524 . S
C1628 C1642 1.377 . S
C1629 C1628 1.524 . S
C1629 C1630 1.397 . S
C1629 C1634 1.363 . S
C1630 H1607 0.950 . S
C1630 C1629 1.397 . S
C1630 C1631 1.334 . S
C1631 H1608 0.950 . S
C1631 C1630 1.334 . S
C1631 C1632 1.287 . S
C1632 C1631 1.287 . S
C1632 C1633 1.524 . S
C1632 H1651 0.913 . S
C1633 H1609 0.950 . S
C1633 C1632 1.524 . S
C1633 C1634 1.415 . S
C1634 H1610 0.950 . S
C1634 C1629 1.363 . S
C1634 C1633 1.415 . S
C1635 H1611 0.951 . S
C1635 C1636 1.366 . S
C1635 C1637 1.388 . S
C1636 C1635 1.366 . S
C1636 C1640 1.385 . S
C1637 H1612 0.951 . S
C1637 C1635 1.388 . S
C1637 C1638 1.366 . S
C1638 C1637 1.366 . S
C1638 C1639 1.414 . S
C1638 C1641 1.499 . S
C1639 H1613 0.950 . S
C1639 C1638 1.414 . S
C1639 C1640 1.374 . S
C1640 H1614 0.950 . S
C1640 C1636 1.385 . S
C1640 C1639 1.374 . S
C1641 C1638 1.499 . S
C1641 C1642 1.373 . S
C1641 C1643 1.389 . S
C1642 H1615 0.950 . S
C1642 C1628 1.377 . S
C1642 C1641 1.373 . S
C1643 C1627 1.377 . S
C1643 C1641 1.389 . S
C1643 C1644 1.524 . S
C1644 C1643 1.524 . S
C1644 C1645 1.397 . S
C1644 C1649 1.363 . S
C1645 H1616 0.950 . S
C1645 C1644 1.397 . S
C1645 C1646 1.334 . S
C1646 H1617 0.950 . S
C1646 C1645 1.334 . S
C1646 C1647 1.287 . S
C1647 C1646 1.287 . S
C1647 C1648 1.524 . S
C1647 H1650 0.999 . S
C1648 H1618 0.950 1_545 S
C1648 C1647 1.524 . S
C1648 C1649 1.415 . S
C1649 H1619 0.950 . S
C1649 C1644 1.363 . S
C1649 C1648 1.415 . S
H1650 C1647 0.999 . S
H1651 C1632 0.913 . S
H1652 C1670 0.951 . S
H1653 C1672 0.951 . S
H1654 C1674 0.950 . S
H1655 C1675 0.950 . S
H1656 C1677 0.950 . S
H1657 C1680 0.950 . S
H1658 C1681 0.950 1_554 S
H1659 C1683 0.950 . S
H1660 C1684 0.950 . S
H1661 C1685 0.951 1_554 S
H1662 C1687 0.951 . S
H1663 C1689 0.950 . S
H1664 C1690 0.950 . S
H1665 C1692 0.950 . S
H1666 C1695 0.950 . S
H1667 C1696 0.950 . S
H1668 C1698 0.950 . S
H1669 C1699 0.950 . S
C1670 H1652 0.951 . S
C1670 C1671 1.366 . S
C1670 C1672 1.388 . S
C1671 C1670 1.366 . S
C1671 C1675 1.385 . S
C1672 H1653 0.951 . S
C1672 C1670 1.388 . S
C1672 C1673 1.366 . S
C1673 C1672 1.366 . S
C1673 C1674 1.414 . S
C1673 C1676 1.499 . S
C1674 H1654 0.950 . S
C1674 C1673 1.414 . S
C1674 C1675 1.374 . S
C1675 H1655 0.950 . S
C1675 C1671 1.385 . S
C1675 C1674 1.374 . S
C1676 C1673 1.499 . S
C1676 C1677 1.373 . S
C1676 C1678 1.389 . S
C1677 H1656 0.950 . S
C1677 C1676 1.373 . S
C1677 C1693 1.377 . S
C1678 C1676 1.389 . S
C1678 C1679 1.524 . S
C1678 C1692 1.377 . S
C1679 C1678 1.524 . S
C1679 C1680 1.397 . S
C1679 C1684 1.363 . S
C1680 H1657 0.950 . S
C1680 C1679 1.397 . S
C1680 C1681 1.334 . S
C1681 H1658 0.950 1_556 S
C1681 C1680 1.334 . S
C1681 C1682 1.287 . S
C1682 C1681 1.287 . S
C1682 C1683 1.524 . S
C1682 H1701 0.913 1_556 S
C1683 H1659 0.950 . S
C1683 C1682 1.524 . S
C1683 C1684 1.415 . S
C1684 H1660 0.950 . S
C1684 C1679 1.363 . S
C1684 C1683 1.415 . S
C1685 H1661 0.951 1_556 S
C1685 C1686 1.366 . S
C1685 C1687 1.388 . S
C1686 C1685 1.366 . S
C1686 C1690 1.385 . S
C1687 H1662 0.951 . S
C1687 C1685 1.388 . S
C1687 C1688 1.366 . S
C1688 C1687 1.366 . S
C1688 C1689 1.414 . S
C1688 C1691 1.499 . S
C1689 H1663 0.950 . S
C1689 C1688 1.414 . S
C1689 C1690 1.374 . S
C1690 H1664 0.950 . S
C1690 C1686 1.385 . S
C1690 C1689 1.374 . S
C1691 C1688 1.499 . S
C1691 C1692 1.373 . S
C1691 C1693 1.389 . S
C1692 H1665 0.950 . S
C1692 C1678 1.377 . S
C1692 C1691 1.373 . S
C1693 C1677 1.377 . S
C1693 C1691 1.389 . S
C1693 C1694 1.524 . S
C1694 C1693 1.524 . S
C1694 C1695 1.397 . S
C1694 C1699 1.363 . S
C1695 H1666 0.950 . S
C1695 C1694 1.397 . S
C1695 C1696 1.334 . S
C1696 H1667 0.950 . S
C1696 C1695 1.334 . S
C1696 C1697 1.287 . S
C1697 C1696 1.287 . S
C1697 C1698 1.524 . S
C1697 H1700 0.999 . S
C1698 H1668 0.950 . S
C1698 C1697 1.524 . S
C1698 C1699 1.415 . S
C1699 H1669 0.950 . S
C1699 C1694 1.363 . S
C1699 C1698 1.415 . S
H1700 C1697 0.999 . S
H1701 C1682 0.913 1_554 S
H1702 C1720 0.951 . S
H1703 C1722 0.951 . S
H1704 C1724 0.950 . S
H1705 C1725 0.950 . S
H1706 C1727 0.950 . S
H1707 C1730 0.950 . S
H1708 C1731 0.950 . S
H1709 C1733 0.950 . S
H1710 C1734 0.950 . S
H1711 C1735 0.951 . S
H1712 C1737 0.951 . S
H1713 C1739 0.950 1_554 S
H1714 C1740 0.950 . S
H1715 C1742 0.950 . S
H1716 C1745 0.950 . S
H1717 C1746 0.950 . S
H1718 C1748 0.950 . S
H1719 C1749 0.950 . S
C1720 H1702 0.951 . S
C1720 C1721 1.366 . S
C1720 C1722 1.388 . S
C1721 C1720 1.366 . S
C1721 C1725 1.385 . S
C1722 H1703 0.951 . S
C1722 C1720 1.388 . S
C1722 C1723 1.366 . S
C1723 C1722 1.366 . S
C1723 C1724 1.414 . S
C1723 C1726 1.499 . S
C1724 H1704 0.950 . S
C1724 C1723 1.414 . S
C1724 C1725 1.374 . S
C1725 H1705 0.950 . S
C1725 C1721 1.385 . S
C1725 C1724 1.374 . S
C1726 C1723 1.499 . S
C1726 C1727 1.373 . S
C1726 C1728 1.389 . S
C1727 H1706 0.950 . S
C1727 C1726 1.373 . S
C1727 C1743 1.377 . S
C1728 C1726 1.389 . S
C1728 C1729 1.524 . S
C1728 C1742 1.377 . S
C1729 C1728 1.524 . S
C1729 C1730 1.397 . S
C1729 C1734 1.363 1_556 S
C1730 H1707 0.950 . S
C1730 C1729 1.397 . S
C1730 C1731 1.334 1_556 S
C1731 H1708 0.950 . S
C1731 C1730 1.334 1_554 S
C1731 C1732 1.287 . S
C1732 C1731 1.287 . S
C1732 C1733 1.524 . S
C1732 H1751 0.913 . S
C1733 H1709 0.950 . S
C1733 C1732 1.524 . S
C1733 C1734 1.415 . S
C1734 H1710 0.950 . S
C1734 C1729 1.363 1_554 S
C1734 C1733 1.415 . S
C1735 H1711 0.951 . S
C1735 C1736 1.366 . S
C1735 C1737 1.388 . S
C1736 C1735 1.366 . S
C1736 C1740 1.385 1_556 S
C1737 H1712 0.951 . S
C1737 C1735 1.388 . S
C1737 C1738 1.366 . S
C1738 C1737 1.366 . S
C1738 C1739 1.414 . S
C1738 C1741 1.499 . S
C1739 H1713 0.950 1_556 S
C1739 C1738 1.414 . S
C1739 C1740 1.374 1_556 S
C1740 H1714 0.950 . S
C1740 C1736 1.385 1_554 S
C1740 C1739 1.374 1_554 S
C1741 C1738 1.499 . S
C1741 C1742 1.373 . S
C1741 C1743 1.389 . S
C1742 H1715 0.950 . S
C1742 C1728 1.377 . S
C1742 C1741 1.373 . S
C1743 C1727 1.377 . S
C1743 C1741 1.389 . S
C1743 C1744 1.524 . S
C1744 C1743 1.524 . S
C1744 C1745 1.397 . S
C1744 C1749 1.363 . S
C1745 H1716 0.950 . S
C1745 C1744 1.397 . S
C1745 C1746 1.334 . S
C1746 H1717 0.950 . S
C1746 C1745 1.334 . S
C1746 C1747 1.287 . S
C1747 C1746 1.287 . S
C1747 C1748 1.524 . S
C1747 H1750 0.999 . S
C1748 H1718 0.950 . S
C1748 C1747 1.524 . S
C1748 C1749 1.415 . S
C1749 H1719 0.950 . S
C1749 C1744 1.363 . S
C1749 C1748 1.415 . S
H1750 C1747 0.999 . S
H1751 C1732 0.913 . S
H1752 C1770 0.951 . S
H1753 C1772 0.951 . S
H1754 C1774 0.950 . S
H1755 C1775 0.950 . S
H1756 C1777 0.950 . S
H1757 C1780 0.950 . S
H1758 C1781 0.950 . S
H1759 C1783 0.950 . S
H1760 C1784 0.950 . S
H1761 C1785 0.951 . S
H1762 C1787 0.951 . S
H1763 C1789 0.950 . S
H1764 C1790 0.950 . S
H1765 C1792 0.950 . S
H1766 C1795 0.950 . S
H1767 C1796 0.950 . S
H1768 C1798 0.950 . S
H1769 C1799 0.950 . S
C1770 H1752 0.951 . S
C1770 C1771 1.366 . S
C1770 C1772 1.388 . S
C1771 C1770 1.366 . S
C1771 C1775 1.385 . S
C1772 H1753 0.951 . S
C1772 C1770 1.388 . S
C1772 C1773 1.366 . S
C1773 C1772 1.366 . S
C1773 C1774 1.414 . S
C1773 C1776 1.499 . S
C1774 H1754 0.950 . S
C1774 C1773 1.414 . S
C1774 C1775 1.374 . S
C1775 H1755 0.950 . S
C1775 C1771 1.385 . S
C1775 C1774 1.374 . S
C1776 C1773 1.499 . S
C1776 C1777 1.373 . S
C1776 C1778 1.389 . S
C1777 H1756 0.950 . S
C1777 C1776 1.373 . S
C1777 C1793 1.377 . S
C1778 C1776 1.389 . S
C1778 C1779 1.524 . S
C1778 C1792 1.377 . S
C1779 C1778 1.524 . S
C1779 C1780 1.397 . S
C1779 C1784 1.363 . S
C1780 H1757 0.950 . S
C1780 C1779 1.397 . S
C1780 C1781 1.334 . S
C1781 H1758 0.950 . S
C1781 C1780 1.334 . S
C1781 C1782 1.287 . S
C1782 C1781 1.287 . S
C1782 C1783 1.524 . S
C1782 H1801 0.913 . S
C1783 H1759 0.950 . S
C1783 C1782 1.524 . S
C1783 C1784 1.415 . S
C1784 H1760 0.950 . S
C1784 C1779 1.363 . S
C1784 C1783 1.415 . S
C1785 H1761 0.951 . S
C1785 C1786 1.366 . S
C1785 C1787 1.388 . S
C1786 C1785 1.366 . S
C1786 C1790 1.385 . S
C1787 H1762 0.951 . S
C1787 C1785 1.388 . S
C1787 C1788 1.366 . S
C1788 C1787 1.366 . S
C1788 C1789 1.414 . S
C1788 C1791 1.499 . S
C1789 H1763 0.950 . S
C1789 C1788 1.414 . S
C1789 C1790 1.374 . S
C1790 H1764 0.950 . S
C1790 C1786 1.385 . S
C1790 C1789 1.374 . S
C1791 C1788 1.499 . S
C1791 C1792 1.373 . S
C1791 C1793 1.389 . S
C1792 H1765 0.950 . S
C1792 C1778 1.377 . S
C1792 C1791 1.373 . S
C1793 C1777 1.377 . S
C1793 C1791 1.389 . S
C1793 C1794 1.524 . S
C1794 C1793 1.524 . S
C1794 C1795 1.397 . S
C1794 C1799 1.363 . S
C1795 H1766 0.950 . S
C1795 C1794 1.397 . S
C1795 C1796 1.334 . S
C1796 H1767 0.950 . S
C1796 C1795 1.334 . S
C1796 C1797 1.287 . S
C1797 C1796 1.287 . S
C1797 C1798 1.524 . S
C1797 H1800 0.999 . S
C1798 H1768 0.950 . S
C1798 C1797 1.524 . S
C1798 C1799 1.415 . S
C1799 H1769 0.950 . S
C1799 C1794 1.363 . S
C1799 C1798 1.415 . S
H1800 C1797 0.999 . S
H1801 C1782 0.913 . S
H1802 C1820 0.951 . S
H1803 C1822 0.951 . S
H1804 C1824 0.950 . S
H1805 C1825 0.950 . S
H1806 C1827 0.950 . S
H1807 C1830 0.950 . S
H1808 C1831 0.950 . S
H1809 C1833 0.950 . S
H1810 C1834 0.950 . S
H1811 C1835 0.951 . S
H1812 C1837 0.951 . S
H1813 C1839 0.950 . S
H1814 C1840 0.950 . S
H1815 C1842 0.950 . S
H1816 C1845 0.950 . S
H1817 C1846 0.950 . S
H1818 C1848 0.950 . S
H1819 C1849 0.950 . S
C1820 H1802 0.951 . S
C1820 C1821 1.366 . S
C1820 C1822 1.388 . S
C1821 C1820 1.366 . S
C1821 C1825 1.385 . S
C1822 H1803 0.951 . S
C1822 C1820 1.388 . S
C1822 C1823 1.366 . S
C1823 C1822 1.366 . S
C1823 C1824 1.414 . S
C1823 C1826 1.499 . S
C1824 H1804 0.950 . S
C1824 C1823 1.414 . S
C1824 C1825 1.374 . S
C1825 H1805 0.950 . S
C1825 C1821 1.385 . S
C1825 C1824 1.374 . S
C1826 C1823 1.499 . S
C1826 C1827 1.373 . S
C1826 C1828 1.389 . S
C1827 H1806 0.950 . S
C1827 C1826 1.373 . S
C1827 C1843 1.377 . S
C1828 C1826 1.389 . S
C1828 C1829 1.524 . S
C1828 C1842 1.377 . S
C1829 C1828 1.524 . S
C1829 C1830 1.397 . S
C1829 C1834 1.363 . S
C1830 H1807 0.950 . S
C1830 C1829 1.397 . S
C1830 C1831 1.334 . S
C1831 H1808 0.950 . S
C1831 C1830 1.334 . S
C1831 C1832 1.287 . S
C1832 C1831 1.287 . S
C1832 C1833 1.524 . S
C1832 H1851 0.913 . S
C1833 H1809 0.950 . S
C1833 C1832 1.524 . S
C1833 C1834 1.415 . S
C1834 H1810 0.950 . S
C1834 C1829 1.363 . S
C1834 C1833 1.415 . S
C1835 H1811 0.951 . S
C1835 C1836 1.366 . S
C1835 C1837 1.388 . S
C1836 C1835 1.366 . S
C1836 C1840 1.385 . S
C1837 H1812 0.951 . S
C1837 C1835 1.388 . S
C1837 C1838 1.366 . S
C1838 C1837 1.366 . S
C1838 C1839 1.414 . S
C1838 C1841 1.499 . S
C1839 H1813 0.950 . S
C1839 C1838 1.414 . S
C1839 C1840 1.374 . S
C1840 H1814 0.950 . S
C1840 C1836 1.385 . S
C1840 C1839 1.374 . S
C1841 C1838 1.499 . S
C1841 C1842 1.373 . S
C1841 C1843 1.389 . S
C1842 H1815 0.950 . S
C1842 C1828 1.377 . S
C1842 C1841 1.373 . S
C1843 C1827 1.377 . S
C1843 C1841 1.389 . S
C1843 C1844 1.524 . S
C1844 C1843 1.524 . S
C1844 C1845 1.397 . S
C1844 C1849 1.363 . S
C1845 H1816 0.950 . S
C1845 C1844 1.397 . S
C1845 C1846 1.334 . S
C1846 H1817 0.950 . S
C1846 C1845 1.334 . S
C1846 C1847 1.287 . S
C1847 C1846 1.287 . S
C1847 C1848 1.524 . S
C1847 H1850 0.999 . S
C1848 H1818 0.950 . S
C1848 C1847 1.524 . S
C1848 C1849 1.415 . S
C1849 H1819 0.950 . S
C1849 C1844 1.363 . S
C1849 C1848 1.415 . S
H1850 C1847 0.999 . S
H1851 C1832 0.913 . S
H1852 C1870 0.951 . S
H1853 C1872 0.951 . S
H1854 C1874 0.950 . S
H1855 C1875 0.950 . S
H1856 C1877 0.950 . S
H1857 C1880 0.950 . S
H1858 C1881 0.950 . S
H1859 C1883 0.950 . S
H1860 C1884 0.950 . S
H1861 C1885 0.951 . S
H1862 C1887 0.951 . S
H1863 C1889 0.950 . S
H1864 C1890 0.950 . S
H1865 C1892 0.950 . S
H1866 C1895 0.950 . S
H1867 C1896 0.950 . S
H1868 C1898 0.950 . S
H1869 C1899 0.950 . S
C1870 H1852 0.951 . S
C1870 C1871 1.366 . S
C1870 C1872 1.388 . S
C1871 C1870 1.366 . S
C1871 C1875 1.385 . S
C1872 H1853 0.951 . S
C1872 C1870 1.388 . S
C1872 C1873 1.366 . S
C1873 C1872 1.366 . S
C1873 C1874 1.414 . S
C1873 C1876 1.499 . S
C1874 H1854 0.950 . S
C1874 C1873 1.414 . S
C1874 C1875 1.374 . S
C1875 H1855 0.950 . S
C1875 C1871 1.385 . S
C1875 C1874 1.374 . S
C1876 C1873 1.499 . S
C1876 C1877 1.373 . S
C1876 C1878 1.389 . S
C1877 H1856 0.950 . S
C1877 C1876 1.373 . S
C1877 C1893 1.377 . S
C1878 C1876 1.389 . S
C1878 C1879 1.524 . S
C1878 C1892 1.377 . S
C1879 C1878 1.524 . S
C1879 C1880 1.397 . S
C1879 C1884 1.363 . S
C1880 H1857 0.950 . S
C1880 C1879 1.397 . S
C1880 C1881 1.334 . S
C1881 H1858 0.950 . S
C1881 C1880 1.334 . S
C1881 C1882 1.287 . S
C1882 C1881 1.287 . S
C1882 C1883 1.524 . S
C1882 H1901 0.913 . S
C1883 H1859 0.950 . S
C1883 C1882 1.524 . S
C1883 C1884 1.415 . S
C1884 H1860 0.950 . S
C1884 C1879 1.363 . S
C1884 C1883 1.415 . S
C1885 H1861 0.951 . S
C1885 C1886 1.366 . S
C1885 C1887 1.388 . S
C1886 C1885 1.366 . S
C1886 C1890 1.385 . S
C1887 H1862 0.951 . S
C1887 C1885 1.388 . S
C1887 C1888 1.366 . S
C1888 C1887 1.366 . S
C1888 C1889 1.414 . S
C1888 C1891 1.499 . S
C1889 H1863 0.950 . S
C1889 C1888 1.414 . S
C1889 C1890 1.374 . S
C1890 H1864 0.950 . S
C1890 C1886 1.385 . S
C1890 C1889 1.374 . S
C1891 C1888 1.499 . S
C1891 C1892 1.373 . S
C1891 C1893 1.389 . S
C1892 H1865 0.950 . S
C1892 C1878 1.377 . S
C1892 C1891 1.373 . S
C1893 C1877 1.377 . S
C1893 C1891 1.389 . S
C1893 C1894 1.524 . S
C1894 C1893 1.524 . S
C1894 C1895 1.397 . S
C1894 C1899 1.363 . S
C1895 H1866 0.950 . S
C1895 C1894 1.397 . S
C1895 C1896 1.334 . S
C1896 H1867 0.950 . S
C1896 C1895 1.334 . S
C1896 C1897 1.287 . S
C1897 C1896 1.287 . S
C1897 C1898 1.524 . S
C1897 H1900 0.999 . S
C1898 H1868 0.950 . S
C1898 C1897 1.524 . S
C1898 C1899 1.415 . S
C1899 H1869 0.950 . S
C1899 C1894 1.363 . S
C1899 C1898 1.415 . S
H1900 C1897 0.999 . S
H1901 C1882 0.913 . S
H1902 C1920 0.951 . S
H1903 C1922 0.951 . S
H1904 C1924 0.950 . S
H1905 C1925 0.950 . S
H1906 C1927 0.950 . S
H1907 C1930 0.950 . S
H1908 C1931 0.950 . S
H1909 C1933 0.950 . S
H1910 C1934 0.950 . S
H1911 C1935 0.951 . S
H1912 C1937 0.951 . S
H1913 C1939 0.950 . S
H1914 C1940 0.950 . S
H1915 C1942 0.950 . S
H1916 C1945 0.950 . S
H1917 C1946 0.950 . S
H1918 C1948 0.950 . S
H1919 C1949 0.950 . S
C1920 H1902 0.951 . S
C1920 C1921 1.366 . S
C1920 C1922 1.388 . S
C1921 C1920 1.366 . S
C1921 C1925 1.385 . S
C1922 H1903 0.951 . S
C1922 C1920 1.388 . S
C1922 C1923 1.366 . S
C1923 C1922 1.366 . S
C1923 C1924 1.414 . S
C1923 C1926 1.499 . S
C1924 H1904 0.950 . S
C1924 C1923 1.414 . S
C1924 C1925 1.374 . S
C1925 H1905 0.950 . S
C1925 C1921 1.385 . S
C1925 C1924 1.374 . S
C1926 C1923 1.499 . S
C1926 C1927 1.373 . S
C1926 C1928 1.389 . S
C1927 H1906 0.950 . S
C1927 C1926 1.373 . S
C1927 C1943 1.377 . S
C1928 C1926 1.389 . S
C1928 C1929 1.524 . S
C1928 C1942 1.377 . S
C1929 C1928 1.524 . S
C1929 C1930 1.397 . S
C1929 C1934 1.363 . S
C1930 H1907 0.950 . S
C1930 C1929 1.397 . S
C1930 C1931 1.334 . S
C1931 H1908 0.950 . S
C1931 C1930 1.334 . S
C1931 C1932 1.287 . S
C1932 C1931 1.287 . S
C1932 C1933 1.524 . S
C1932 H1951 0.913 . S
C1933 H1909 0.950 . S
C1933 C1932 1.524 . S
C1933 C1934 1.415 . S
C1934 H1910 0.950 . S
C1934 C1929 1.363 . S
C1934 C1933 1.415 . S
C1935 H1911 0.951 . S
C1935 C1936 1.366 . S
C1935 C1937 1.388 . S
C1936 C1935 1.366 . S
C1936 C1940 1.385 . S
C1937 H1912 0.951 . S
C1937 C1935 1.388 . S
C1937 C1938 1.366 . S
C1938 C1937 1.366 . S
C1938 C1939 1.414 . S
C1938 C1941 1.499 . S
C1939 H1913 0.950 . S
C1939 C1938 1.414 . S
C1939 C1940 1.374 . S
C1940 H1914 0.950 . S
C1940 C1936 1.385 . S
C1940 C1939 1.374 . S
C1941 C1938 1.499 . S
C1941 C1942 1.373 . S
C1941 C1943 1.389 . S
C1942 H1915 0.950 . S
C1942 C1928 1.377 . S
C1942 C1941 1.373 . S
C1943 C1927 1.377 . S
C1943 C1941 1.389 . S
C1943 C1944 1.524 . S
C1944 C1943 1.524 . S
C1944 C1945 1.397 . S
C1944 C1949 1.363 . S
C1945 H1916 0.950 . S
C1945 C1944 1.397 . S
C1945 C1946 1.334 . S
C1946 H1917 0.950 . S
C1946 C1945 1.334 . S
C1946 C1947 1.287 . S
C1947 C1946 1.287 . S
C1947 C1948 1.524 . S
C1947 H1950 0.999 . S
C1948 H1918 0.950 . S
C1948 C1947 1.524 . S
C1948 C1949 1.415 . S
C1949 H1919 0.950 . S
C1949 C1944 1.363 . S
C1949 C1948 1.415 . S
H1950 C1947 0.999 . S
H1951 C1932 0.913 . S
H1952 C1970 0.951 . S
H1953 C1972 0.951 . S
H1954 C1974 0.950 . S
H1955 C1975 0.950 . S
H1956 C1977 0.950 . S
H1957 C1980 0.950 . S
H1958 C1981 0.950 . S
H1959 C1983 0.950 . S
H1960 C1984 0.950 . S
H1961 C1985 0.951 . S
H1962 C1987 0.951 . S
H1963 C1989 0.950 . S
H1964 C1990 0.950 . S
H1965 C1992 0.950 . S
H1966 C1995 0.950 . S
H1967 C1996 0.950 . S
H1968 C1998 0.950 . S
H1969 C1999 0.950 . S
C1970 H1952 0.951 . S
C1970 C1971 1.366 . S
C1970 C1972 1.388 . S
C1971 C1970 1.366 . S
C1971 C1975 1.385 . S
C1972 H1953 0.951 . S
C1972 C1970 1.388 . S
C1972 C1973 1.366 . S
C1973 C1972 1.366 . S
C1973 C1974 1.414 . S
C1973 C1976 1.499 . S
C1974 H1954 0.950 . S
C1974 C1973 1.414 . S
C1974 C1975 1.374 . S
C1975 H1955 0.950 . S
C1975 C1971 1.385 . S
C1975 C1974 1.374 . S
C1976 C1973 1.499 . S
C1976 C1977 1.373 . S
C1976 C1978 1.389 . S
C1977 H1956 0.950 . S
C1977 C1976 1.373 . S
C1977 C1993 1.377 . S
C1978 C1976 1.389 . S
C1978 C1979 1.524 . S
C1978 C1992 1.377 . S
C1979 C1978 1.524 . S
C1979 C1980 1.397 . S
C1979 C1984 1.363 . S
C1980 H1957 0.950 . S
C1980 C1979 1.397 . S
C1980 C1981 1.334 . S
C1981 H1958 0.950 . S
C1981 C1980 1.334 . S
C1981 C1982 1.287 . S
C1982 C1981 1.287 . S
C1982 C1983 1.524 . S
C1982 H2001 0.913 . S
C1983 H1959 0.950 . S
C1983 C1982 1.524 . S
C1983 C1984 1.415 . S
C1984 H1960 0.950 . S
C1984 C1979 1.363 . S
C1984 C1983 1.415 . S
C1985 H1961 0.951 . S
C1985 C1986 1.366 . S
C1985 C1987 1.388 . S
C1986 C1985 1.366 . S
C1986 C1990 1.385 . S
C1987 H1962 0.951 . S
C1987 C1985 1.388 . S
C1987 C1988 1.366 . S
C1988 C1987 1.366 . S
C1988 C1989 1.414 . S
C1988 C1991 1.499 . S
C1989 H1963 0.950 . S
C1989 C1988 1.414 . S
C1989 C1990 1.374 . S
C1990 H1964 0.950 . S
C1990 C1986 1.385 . S
C1990 C1989 1.374 . S
C1991 C1988 1.499 . S
C1991 C1992 1.373 . S
C1991 C1993 1.389 . S
C1992 H1965 0.950 . S
C1992 C1978 1.377 . S
C1992 C1991 1.373 . S
C1993 C1977 1.377 . S
C1993 C1991 1.389 . S
C1993 C1994 1.524 . S
C1994 C1993 1.524 . S
C1994 C1995 1.397 . S
C1994 C1999 1.363 . S
C1995 H1966 0.950 . S
C1995 C1994 1.397 . S
C1995 C1996 1.334 . S
C1996 H1967 0.950 . S
C1996 C1995 1.334 . S
C1996 C1997 1.287 . S
C1997 C1996 1.287 . S
C1997 C1998 1.524 . S
C1997 H2000 0.999 . S
C1998 H1968 0.950 . S
C1998 C1997 1.524 . S
C1998 C1999 1.415 . S
C1999 H1969 0.950 . S
C1999 C1994 1.363 . S
C1999 C1998 1.415 . S
H2000 C1997 0.999 . S
H2001 C1982 0.913 . S
H2002 C2020 0.951 . S
H2003 C2022 0.951 . S
H2004 C2024 0.950 . S
H2005 C2025 0.950 . S
H2006 C2027 0.950 . S
H2007 C2030 0.950 . S
H2008 C2031 0.950 . S
H2009 C2033 0.950 . S
H2010 C2034 0.950 . S
H2011 C2035 0.951 . S
H2012 C2037 0.951 . S
H2013 C2039 0.950 . S
H2014 C2040 0.950 . S
H2015 C2042 0.950 . S
H2016 C2045 0.950 . S
H2017 C2046 0.950 . S
H2018 C2048 0.950 . S
H2019 C2049 0.950 . S
C2020 H2002 0.951 . S
C2020 C2021 1.366 . S
C2020 C2022 1.388 . S
C2021 C2020 1.366 . S
C2021 C2025 1.385 . S
C2022 H2003 0.951 . S
C2022 C2020 1.388 . S
C2022 C2023 1.366 . S
C2023 C2022 1.366 . S
C2023 C2024 1.414 . S
C2023 C2026 1.499 . S
C2024 H2004 0.950 . S
C2024 C2023 1.414 . S
C2024 C2025 1.374 . S
C2025 H2005 0.950 . S
C2025 C2021 1.385 . S
C2025 C2024 1.374 . S
C2026 C2023 1.499 . S
C2026 C2027 1.373 . S
C2026 C2028 1.389 . S
C2027 H2006 0.950 . S
C2027 C2026 1.373 . S
C2027 C2043 1.377 . S
C2028 C2026 1.389 . S
C2028 C2029 1.524 . S
C2028 C2042 1.377 . S
C2029 C2028 1.524 . S
C2029 C2030 1.397 . S
C2029 C2034 1.363 . S
C2030 H2007 0.950 . S
C2030 C2029 1.397 . S
C2030 C2031 1.334 . S
C2031 H2008 0.950 . S
C2031 C2030 1.334 . S
C2031 C2032 1.287 . S
C2032 C2031 1.287 . S
C2032 C2033 1.524 . S
C2032 H2051 0.913 . S
C2033 H2009 0.950 . S
C2033 C2032 1.524 . S
C2033 C2034 1.415 . S
C2034 H2010 0.950 . S
C2034 C2029 1.363 . S
C2034 C2033 1.415 . S
C2035 H2011 0.951 . S
C2035 C2036 1.366 . S
C2035 C2037 1.388 . S
C2036 C2035 1.366 . S
C2036 C2040 1.385 . S
C2037 H2012 0.951 . S
C2037 C2035 1.388 . S
C2037 C2038 1.366 . S
C2038 C2037 1.366 . S
C2038 C2039 1.414 . S
C2038 C2041 1.499 . S
C2039 H2013 0.950 . S
C2039 C2038 1.414 . S
C2039 C2040 1.374 . S
C2040 H2014 0.950 . S
C2040 C2036 1.385 . S
C2040 C2039 1.374 . S
C2041 C2038 1.499 . S
C2041 C2042 1.373 . S
C2041 C2043 1.389 . S
C2042 H2015 0.950 . S
C2042 C2028 1.377 . S
C2042 C2041 1.373 . S
C2043 C2027 1.377 . S
C2043 C2041 1.389 . S
C2043 C2044 1.524 . S
C2044 C2043 1.524 . S
C2044 C2045 1.397 . S
C2044 C2049 1.363 . S
C2045 H2016 0.950 . S
C2045 C2044 1.397 . S
C2045 C2046 1.334 . S
C2046 H2017 0.950 . S
C2046 C2045 1.334 . S
C2046 C2047 1.287 . S
C2047 C2046 1.287 . S
C2047 C2048 1.524 . S
C2047 H2050 0.999 . S
C2048 H2018 0.950 . S
C2048 C2047 1.524 . S
C2048 C2049 1.415 . S
C2049 H2019 0.950 . S
C2049 C2044 1.363 . S
C2049 C2048 1.415 . S
H2050 C2047 0.999 . S
H2051 C2032 0.913 . S
C271 C43 1.920 . S
C286 C13 1.922 . S
C321 C68 1.921 . S
C336 C15 1.921 . S
C371 C29 1.921 . S
C386 C83 1.919 . S
C421 C40 1.921 . S
C436 C70 1.923 . S
C471 C0 1.918 . S
C486 C54 1.920 . S
C521 C57 1.919 . S
C536 C26 1.919 . S
C571 C138 1.922 . S
C586 C97 1.922 . S
C621 C99 1.922 . S
C636 C152 1.922 . S
C671 C124 1.918 . S
C686 C155 1.918 . S
C721 C166 1.923 1_556 S
C736 C113 1.923 . S
C771 C127 1.918 1_556 S
C786 C84 1.918 . S
C821 C141 1.919 1_556 S
C836 C110 1.919 . S
C871 C181 1.922 . S
C886 C211 1.920 . S
C921 C183 1.920 . S
C936 C236 1.920 . S
C971 C197 1.921 . S
C986 C239 1.919 . S
C1021 C250 1.923 . S
C1036 C208 1.920 1_554 S
C1071 C222 1.921 . S
C1086 C168 1.918 1_554 S
C1121 C225 1.919 . S
C1136 C194 1.919 1_554 S
C1171 C12 1.610 . S
C1186 C111 1.612 . S
C1221 C14 1.610 . S
C1236 C112 1.611 . S
C1271 C85 1.612 1_545 S
C1286 C28 1.610 . S
C1321 C41 1.611 . S
C1336 C182 1.610 1_554 S
C1371 C196 1.611 1_454 S
C1386 C1 1.612 . S
C1421 C180 1.610 1_554 S
C1436 C27 1.612 . S
C1471 C224 1.612 1_455 S
C1486 C42 1.611 . S
C1521 C69 1.610 . S
C1536 C251 1.610 . S
C1571 C223 1.610 . S
C1586 C82 1.612 . S
C1621 C153 1.610 1_546 S
C1636 C71 1.610 . S
C1671 C55 1.610 . S
C1686 C154 1.612 1_556 S
C1721 C56 1.612 . S
C1736 C139 1.610 1_556 S
C1771 C96 1.610 . S
C1786 C195 1.612 . S
C1821 C98 1.611 . S
C1836 C209 1.612 . S
C1871 C125 1.612 . S
C1886 C169 1.612 . S
C1921 C237 1.610 . S
C1936 C167 1.610 . S
C1971 C238 1.612 . S
C1986 C126 1.612 . S
C2021 C140 1.611 . S
C2036 C210 1.612 . S
