# Generated by pormake.
# Topology sev, (7)-cn, num edge types: 1
# Building blocks:
#     Node 0, Type 0, BuildingBlock: HICVOG_clean_sbu_0, # of connection points: 7
#     Node 1, Type 0, BuildingBlock: HICVOG_clean_sbu_0, # of connection points: 7
#     Node 2, Type 0, BuildingBlock: HICVOG_clean_sbu_0, # of connection points: 7
#     Node 3, Type 0, BuildingBlock: HICVOG_clean_sbu_0, # of connection points: 7
#     Node 4, Type 0, BuildingBlock: HICVOG_clean_sbu_0, # of connection points: 7
#     Node 5, Type 0, BuildingBlock: HICVOG_clean_sbu_0, # of connection points: 7
#     Node 6, Type 0, BuildingBlock: HICVOG_clean_sbu_0, # of connection points: 7
#     Node 7, Type 0, BuildingBlock: HICVOG_clean_sbu_0, # of connection points: 7
#     Edge 8, Type (0, 0), None
#     Edge 9, Type (0, 0), None
#     Edge 10, Type (0, 0), None
#     Edge 11, Type (0, 0), None
#     Edge 12, Type (0, 0), None
#     Edge 13, Type (0, 0), None
#     Edge 14, Type (0, 0), None
#     Edge 15, Type (0, 0), None
#     Edge 16, Type (0, 0), None
#     Edge 17, Type (0, 0), None
#     Edge 18, Type (0, 0), None
#     Edge 19, Type (0, 0), None
#     Edge 20, Type (0, 0), None
#     Edge 21, Type (0, 0), None
#     Edge 22, Type (0, 0), None
#     Edge 23, Type (0, 0), None
#     Edge 24, Type (0, 0), None
#     Edge 25, Type (0, 0), None
#     Edge 26, Type (0, 0), None
#     Edge 27, Type (0, 0), None
#     Edge 28, Type (0, 0), None
#     Edge 29, Type (0, 0), None
#     Edge 30, Type (0, 0), None
#     Edge 31, Type (0, 0), None
#     Edge 32, Type (0, 0), None
#     Edge 33, Type (0, 0), None
#     Edge 34, Type (0, 0), None
#     Edge 35, Type (0, 0), None
# Relax obj value: 0.455
# Max RMSD: 0.303
# Mean RMSD: 0.303
data_MOF--net-sev--node1-HICVOG_clean_sbu_0--edge1-none
_symmetry_space_group_name_H-M    P1
_symmetry_Int_Tables_number       1
_symmetry_cell_setting            triclinic
loop_
_symmetry_equiv_pos_as_xyz
'x, y, z'
_cell_length_a     24.268663
_cell_length_b     8.2869467
_cell_length_c     15.161023
_cell_angle_alpha  90.000039
_cell_angle_beta   89.997593
_cell_angle_gamma 89.998821
loop_
_atom_site_label
_atom_site_type_symbol
_atom_site_fract_x
_atom_site_fract_y
_atom_site_fract_z
_atom_type_partial_charge
Zn0 Zn 0.32892 0.63692 -0.05732 0.0
C1 C 0.2109 1.2961 0.9124 0.0
N2 N 0.24209 0.45499 0.9189 0.0
C3 C 0.20862 0.61017 0.92635 0.0
N4 N 0.25576 0.52846 0.92497 0.0
N5 N 0.2572 1.37992 0.9135 0.0
C6 C 0.37244 1.15285 0.73358 0.0
O7 O 0.42066 1.15729 0.77209 0.0
O8 O 0.32042 0.70046 0.06813 0.0
Zn9 Zn 0.33332 1.27044 0.9045 0.0
N10 N 0.33233 0.74385 0.83136 0.0
C11 C 0.27549 0.86566 0.7229 0.0
C12 C 0.30129 0.86955 0.80382 0.0
C13 C 0.346 0.62482 0.77453 0.0
N14 N 0.28748 0.74406 0.66757 0.0
C15 C 0.32292 0.62431 0.69107 0.0
O16 O 0.41727 1.33275 0.91452 0.0
C17 C 0.44233 0.45828 -0.06042 0.0
O18 O 0.41342 0.58259 -0.0451 0.0
H19 H 0.2938 0.96834 0.84447 0.0
H20 H 0.36979 0.52282 0.79701 0.0
C21 C 0.35046 1.22404 0.08407 0.0
C22 C 0.32588 1.1838 0.16457 0.0
C23 C 0.26969 0.99591 0.09257 0.0
C24 C 0.30405 1.00964 0.0202 0.0
N25 N 0.3348 1.14272 0.01071 0.0
N26 N 0.28204 1.08229 0.16471 0.0
H27 H 0.38019 1.32088 0.08001 0.0
C28 C 0.29537 0.6089 0.12231 0.0
O29 O 0.27152 0.4759 0.09615 0.0
O30 O 0.32987 1.19 0.77752 0.0
H31 H 0.30438 0.92027 -0.02846 0.0
H32 H 0.2477 0.96115 0.70325 0.0
H33 H 0.23825 0.90441 0.09531 0.0
Zn34 Zn 0.62151 1.32566 -0.02584 0.0
C35 C 0.73549 0.68509 -0.03905 0.0
N36 N 0.704 0.52655 -0.03179 0.0
C37 C 0.73655 1.36909 -0.023 0.0
N38 N 0.69011 0.45332 -0.02257 0.0
N39 N 0.68863 0.60015 -0.04047 0.0
C40 C 0.60075 0.61671 0.73794 0.0
O41 O 0.55968 0.52665 0.76333 0.0
O42 O 0.6358 1.22941 0.09898 0.0
Zn43 Zn 0.60953 0.68229 0.91988 0.0
N44 N 0.62973 1.2531 0.84898 0.0
C45 C 0.67555 1.28584 0.70957 0.0
C46 C 0.67369 1.30554 0.79971 0.0
C47 C 0.58385 1.20193 0.80615 0.0
N48 N 0.62969 1.23856 0.66808 0.0
C49 C 0.58254 1.20761 0.7132 0.0
O50 O 0.53024 0.58546 0.91389 0.0
C51 C 0.50513 0.4647 -0.05544 0.0
O52 O 0.53409 1.35598 -0.01886 0.0
H53 H 0.70482 1.38133 0.82475 0.0
H54 H 0.54727 1.17192 0.84347 0.0
C55 C 0.55587 0.76332 0.06742 0.0
C56 C 0.58433 0.72986 0.14556 0.0
C57 C 0.65435 0.90599 0.09858 0.0
C58 C 0.62477 0.93833 0.02177 0.0
N59 N 0.5827 0.84269 0.00155 0.0
N60 N 0.63404 0.80065 0.15831 0.0
H61 H 0.51585 0.71116 0.0557 0.0
C62 C 0.6024 1.22869 0.16426 0.0
O63 O 0.5511 1.27158 0.15142 0.0
O64 O 0.62172 0.721 0.7904 0.0
H65 H 0.6387 1.02172 -0.02739 0.0
H66 H 0.7111 1.32383 0.67177 0.0
H67 H 0.69198 0.96798 0.11161 0.0
Zn68 Zn 0.32607 0.97637 0.48141 0.0
C69 C 0.20256 0.67207 0.42183 0.0
N70 N 0.23559 0.82977 0.42855 0.0
C71 C 0.20508 0.99143 0.43515 0.0
N72 N 0.24995 0.90117 0.44107 0.0
N73 N 0.24792 0.75607 0.41773 0.0
C74 C 0.29731 0.64412 0.215 0.0
O75 O 0.30745 0.79167 0.24117 0.0
O76 O 0.32302 1.09253 0.6 0.0
Zn77 Zn 0.31415 0.63309 0.3824 0.0
N78 N 0.35976 1.11205 0.39491 0.0
C79 C 0.44218 1.14047 0.3128 0.0
C80 C 0.41572 1.11346 0.39236 0.0
C81 C 0.33007 1.15918 0.32439 0.0
N82 N 0.41228 1.17937 0.24095 0.0
C83 C 0.3568 1.19539 0.24558 0.0
O84 O 0.38686 0.75088 0.35318 0.0
C85 C 0.41491 0.77138 0.42231 0.0
O86 O 0.38891 0.80238 0.49351 0.0
H87 H 0.4396 1.0809 0.44956 0.0
H88 H 0.28641 1.14334 0.32443 0.0
C89 C 0.30872 0.5015 0.54896 0.0
C90 C 0.34025 0.5094 0.62491 0.0
C91 C 0.41681 0.4104 0.54642 0.0
C92 C 0.3874 0.4305 0.46835 0.0
N93 N 0.33452 0.48124 0.47129 0.0
N94 N 0.3936 0.45981 0.62295 0.0
H95 H 0.268 0.55188 0.55039 0.0
C96 C 0.3682 1.09253 0.64272 0.0
O97 O 0.41215 1.03274 0.60542 0.0
O98 O 0.29534 0.53079 0.27092 0.0
H99 H 0.40805 0.42792 0.40611 0.0
H100 H 0.48578 1.12619 0.30708 0.0
H101 H 0.45953 1.37674 0.54505 0.0
Zn102 Zn 0.58201 0.59234 0.46349 0.0
C103 C 0.69469 0.95218 0.43486 0.0
N104 N 0.66348 0.79174 0.44039 0.0
C105 C 0.69547 0.63322 0.4506 0.0
N106 N 0.65019 0.71855 0.44622 0.0
N107 N 0.64969 0.86568 0.42855 0.0
C108 C 0.61841 1.1575 0.25039 0.0
O109 O 0.66667 1.08847 0.25923 0.0
O110 O 0.59126 0.51829 0.59175 0.0
Zn111 Zn 0.57655 0.97202 0.41044 0.0
N112 N 0.57053 0.48724 0.35208 0.0
C113 C 0.48587 0.48244 0.27263 0.0
C114 C 0.51815 0.4329 0.34441 0.0
C115 C 0.59371 0.57282 0.28511 0.0
N116 N 0.50839 0.5747 0.2087 0.0
C117 C 0.56195 0.61995 0.21249 0.0
O118 O 0.50573 0.84503 0.36811 0.0
C119 C 0.47629 0.76062 0.42062 0.0
O120 O 0.49993 0.66686 0.47399 0.0
H121 H 0.49943 1.37479 0.40035 0.0
H122 H 0.63345 0.62623 0.29366 0.0
C123 C 0.5412 1.16814 0.57054 0.0
C124 C 0.5341 1.15962 0.66336 0.0
C125 C 0.51762 0.88383 0.65263 0.0
C126 C 0.54637 0.8895 0.57376 0.0
N127 N 0.55193 1.02841 0.5286 0.0
N128 N 0.51174 1.02302 0.69716 0.0
H129 H 0.55156 1.27871 0.53735 0.0
C130 C 0.61822 0.6059 0.64675 0.0
O131 O 0.65294 0.71422 0.61908 0.0
O132 O 0.58227 1.14182 0.31102 0.0
H133 H 0.56485 0.7872 0.54766 0.0
H134 H 0.4423 0.45951 0.27014 0.0
H135 H 0.50489 0.77091 0.68181 0.0
Zn136 Zn 0.79921 0.48925 0.45494 0.0
C137 C 0.68398 1.13259 0.44868 0.0
N138 N 0.71604 1.29068 0.45457 0.0
C139 C 0.68425 0.44961 0.46119 0.0
N140 N 0.73018 1.36421 0.46103 0.0
N141 N 0.73043 1.2153 0.45098 0.0
C142 C 0.80919 1.12906 0.27202 0.0
O143 O 0.82387 1.2628 0.31014 0.0
O144 O 0.7908 0.59799 0.57836 0.0
Zn145 Zn 0.80374 1.09533 0.44418 0.0
N146 N 0.78781 0.56917 0.33219 0.0
C147 C 0.74135 0.53159 0.19374 0.0
C148 C 0.74147 0.5302 0.28418 0.0
C149 C 0.83567 0.59485 0.28853 0.0
N150 N 0.78947 0.54815 0.15206 0.0
C151 C 0.83742 0.57032 0.19688 0.0
O152 O 0.88866 1.16868 0.43492 0.0
C153 C 0.91419 1.30229 0.44181 0.0
O154 O 0.88539 0.4294 0.45329 0.0
H155 H 0.70609 0.47371 0.31033 0.0
H156 H 0.87303 0.61678 0.32546 0.0
C157 C 0.83783 1.08347 0.61211 0.0
C158 C 0.82115 1.11918 0.69747 0.0
C159 C 0.74291 0.95541 0.68003 0.0
C160 C 0.75978 0.92015 0.59487 0.0
N161 N 0.80494 0.99236 0.55961 0.0
N162 N 0.77413 1.05352 0.72952 0.0
H163 H 0.87286 1.14554 0.58554 0.0
C164 C 0.82352 0.5929 0.64478 0.0
O165 O 0.87402 0.54007 0.63395 0.0
O166 O 0.79788 1.00582 0.32013 0.0
H167 H 0.73734 0.83379 0.55912 0.0
H168 H 0.70436 0.50324 0.15718 0.0
H169 H 0.70558 0.90602 0.70756 0.0
Zn170 Zn 0.09329 1.144 0.44521 0.0
C171 C 0.21139 0.48927 0.41921 0.0
N172 N 0.18009 1.33074 0.42611 0.0
C173 C 0.2136 1.17573 0.43322 0.0
N174 N 0.16634 1.25693 0.43154 0.0
N175 N 0.16471 0.4057 0.42045 0.0
C176 C 0.05077 0.66229 0.24634 0.0
O177 O 0.00653 0.69342 0.29306 0.0
O178 O 0.10211 1.07903 0.56973 0.0
Zn179 Zn 0.08657 0.50919 0.40976 0.0
N180 N 0.09441 1.03939 0.3334 0.0
C181 C 0.15599 0.92417 0.2296 0.0
C182 C 0.1266 0.9153 0.30704 0.0
C183 C 0.08385 1.16309 0.278 0.0
N184 N 0.14697 1.05039 0.17593 0.0
C185 C 0.11085 1.1696 0.19762 0.0
O186 O 0.00251 0.43659 0.41271 0.0
C187 C -0.02246 1.30916 0.43624 0.0
O188 O 0.00719 1.18752 0.4546 0.0
H189 H 0.13134 0.81211 0.34549 0.0
H190 H 0.05891 1.26309 0.29999 0.0
C191 C 0.06121 0.57514 0.58993 0.0
C192 C 0.08641 0.61496 0.67046 0.0
C193 C 0.14915 0.78106 0.5962 0.0
C194 C 0.11554 0.76921 0.52283 0.0
N195 N 0.08119 0.64359 0.51498 0.0
N196 N 0.13325 0.70424 0.66952 0.0
H197 H 0.02877 0.48575 0.58694 0.0
C198 C 0.12225 1.1811 0.62343 0.0
O199 O 0.13845 1.32295 0.59647 0.0
O200 O 0.0908 0.59142 0.28326 0.0
H201 H 0.11814 0.85468 0.47245 0.0
H202 H 0.18354 0.82775 0.2107 0.0
H203 H 0.18288 0.86553 0.59879 0.0
Zn204 Zn 0.84241 1.21364 -0.0072 0.0
C205 C 0.72654 0.86639 -0.0538 0.0
N206 N 0.75824 1.02559 -0.04544 0.0
C207 C 0.7266 1.18398 -0.0338 0.0
N208 N 0.77215 1.09661 -0.03672 0.0
N209 N 0.77191 0.95183 -0.06149 0.0
C210 C 0.80504 0.64699 0.734 0.0
O211 O 0.75261 0.64253 0.75475 0.0
O212 O 0.82993 1.23819 0.12876 0.0
Zn213 Zn 0.84436 0.84193 0.90663 0.0
N214 N 0.855 1.35802 0.89182 0.0
C215 C 0.93528 1.33723 0.8011 0.0
C216 C 0.90909 1.39107 0.87836 0.0
C217 C 0.82503 1.30147 0.82391 0.0
N218 N 0.90602 1.25444 0.74053 0.0
C219 C 0.85121 1.23335 0.75154 0.0
O220 O 0.91631 0.98067 0.87744 0.0
C221 C 0.94726 1.05408 0.93303 0.0
O222 O 0.92538 1.13752 -0.00649 0.0
H223 H 0.9334 0.43268 0.93261 0.0
H224 H 0.7829 1.27652 0.83323 0.0
C225 C 0.87745 0.6001 0.05509 0.0
C226 C 0.88769 0.59909 0.14669 0.0
C227 C 0.90981 0.87097 0.14299 0.0
C228 C 0.88015 0.87828 0.06518 0.0
N229 N 0.87064 0.7458 0.0165 0.0
N230 N 0.91631 0.725 0.18056 0.0
H231 H 0.85754 0.49801 0.02644 0.0
C232 C 0.80709 1.1263 0.17576 0.0
O233 O 0.78489 1.00007 0.13852 0.0
O234 O 0.83977 0.707 0.78823 0.0
H235 H 0.8613 0.98488 0.04459 0.0
H236 H -0.02073 1.34522 0.79295 0.0
H237 H 0.92378 0.97908 0.17618 0.0
Zn238 Zn 0.09682 0.82409 -0.01333 0.0
C239 C 0.22035 1.11354 0.91276 0.0
N240 N 0.18727 0.95655 0.92261 0.0
C241 C 0.21742 0.79432 0.92779 0.0
N242 N 0.17316 0.88664 -0.06176 0.0
N243 N 0.17503 1.02963 0.91137 0.0
C244 C 0.12252 1.14774 0.71629 0.0
O245 O 0.11396 1.00014 0.74384 0.0
O246 O 0.09707 0.70335 0.10647 0.0
Zn247 Zn 0.1092 1.15947 0.88347 0.0
N248 N 0.05977 0.69352 0.90267 0.0
C249 C -0.02513 0.67733 0.82733 0.0
C250 C 0.00403 0.69872 0.90497 0.0
C251 C 0.08646 0.6412 0.83028 0.0
N252 N 0.00171 0.6346 0.75276 0.0
C253 C 0.05691 0.60963 0.75328 0.0
O254 O 0.03443 1.05241 0.85768 0.0
C255 C 0.00865 1.0418 0.92953 0.0
O256 O 0.03671 1.00888 -0.00164 0.0
H257 H -0.01703 0.73361 -0.03525 0.0
H258 H 0.13033 0.64792 0.82793 0.0
C259 C 0.12299 1.27971 0.05162 0.0
C260 C 0.09501 1.28621 0.13101 0.0
C261 C 0.02005 0.41108 0.0597 0.0
C262 C 0.04489 1.37838 -0.02117 0.0
N263 N 0.0952 1.30942 -0.02334 0.0
N264 N 0.04432 1.35556 0.13409 0.0
H265 H 0.16125 1.21524 0.04878 0.0
C266 C 0.05729 0.73684 0.15871 0.0
O267 O 0.02327 0.85181 0.13724 0.0
O268 O 0.12513 1.26251 0.77138 0.0
H269 H 0.02259 1.38925 0.91854 0.0
H270 H 0.93143 0.6952 0.82641 0.0
H271 H -0.02032 0.46391 0.0631 0.0
loop_
_geom_bond_atom_site_label_1
_geom_bond_atom_site_label_2
_geom_bond_distance
_geom_bond_site_symmetry_2
_ccdc_geom_bond_type
Zn0 N4 2.020 . S
Zn0 O8 2.019 . S
Zn0 N10 2.119 1_554 S
Zn0 O18 1.975 . S
C1 N2 1.333 1_566 S
C1 N5 1.336 . S
N2 C1 1.333 1_544 S
N2 C3 1.334 . S
C3 N2 1.334 . S
C3 N4 1.336 . S
N4 Zn0 2.020 . S
N4 C3 1.336 . S
N4 N5 1.354 1_544 S
N5 C1 1.336 . S
N5 N4 1.354 1_566 S
N5 Zn9 2.020 . S
C6 O7 1.244 . S
C6 O30 1.257 . S
O7 C6 1.244 . S
O8 Zn0 2.019 . S
O8 C28 1.257 . S
Zn9 N5 2.020 . S
Zn9 O16 1.975 . S
Zn9 N25 2.119 1_556 S
Zn9 O30 2.019 . S
N10 Zn0 2.119 1_556 S
N10 C12 1.334 . S
N10 C13 1.328 . S
C11 C12 1.391 . S
C11 N14 1.329 . S
C11 H32 0.930 . S
C12 N10 1.334 . S
C12 C11 1.391 . S
C12 H19 0.930 . S
C13 N10 1.328 . S
C13 C15 1.392 . S
C13 H20 0.930 . S
N14 C11 1.329 . S
N14 C15 1.331 . S
C15 C13 1.392 . S
C15 N14 1.331 . S
O16 Zn9 1.975 . S
O16 C17 1.251 1_566 S
C17 O16 1.251 1_544 S
C17 O18 1.253 . S
O18 Zn0 1.975 . S
O18 C17 1.253 . S
H19 C12 0.930 . S
H20 C13 0.930 . S
C21 C22 1.392 . S
C21 N25 1.328 . S
C21 H27 0.930 . S
C22 C21 1.392 . S
C22 N26 1.331 . S
C23 C24 1.391 . S
C23 N26 1.329 . S
C23 H33 0.930 . S
C24 C23 1.391 . S
C24 N25 1.334 . S
C24 H31 0.930 . S
N25 Zn9 2.119 1_554 S
N25 C21 1.328 . S
N25 C24 1.334 . S
N26 C22 1.331 . S
N26 C23 1.329 . S
H27 C21 0.930 . S
C28 O8 1.257 . S
C28 O29 1.244 . S
O29 C28 1.244 . S
O30 C6 1.257 . S
O30 Zn9 2.019 . S
H31 C24 0.930 . S
H32 C11 0.930 . S
H33 C23 0.930 . S
Zn34 N38 2.020 . S
Zn34 O42 2.019 . S
Zn34 N44 2.119 1_554 S
Zn34 O52 1.975 . S
C35 N36 1.334 1_556 S
C35 N39 1.336 . S
N36 C35 1.334 1_554 S
N36 C37 1.333 1_545 S
C37 N36 1.333 1_565 S
C37 N38 1.336 . S
N38 Zn34 2.020 . S
N38 C37 1.336 . S
N38 N39 1.354 1_564 S
N39 C35 1.336 . S
N39 N38 1.354 1_546 S
N39 Zn43 2.020 . S
C40 O41 1.244 . S
C40 O64 1.257 . S
O41 C40 1.244 . S
O42 Zn34 2.019 . S
O42 C62 1.257 . S
Zn43 N39 2.020 . S
Zn43 O50 1.975 . S
Zn43 N59 2.119 1_556 S
Zn43 O64 2.019 . S
N44 Zn34 2.119 1_556 S
N44 C46 1.334 . S
N44 C47 1.328 . S
C45 C46 1.391 . S
C45 N48 1.329 . S
C45 H66 0.930 . S
C46 N44 1.334 . S
C46 C45 1.391 . S
C46 H53 0.930 . S
C47 N44 1.328 . S
C47 C49 1.392 . S
C47 H54 0.930 . S
N48 C45 1.329 . S
N48 C49 1.331 . S
C49 C47 1.392 . S
C49 N48 1.331 . S
O50 Zn43 1.975 . S
O50 C51 1.253 1_556 S
C51 O50 1.253 1_554 S
C51 O52 1.251 1_545 S
O52 Zn34 1.975 . S
O52 C51 1.251 1_565 S
H53 C46 0.930 . S
H54 C47 0.930 . S
C55 C56 1.392 . S
C55 N59 1.328 . S
C55 H61 0.930 . S
C56 C55 1.392 . S
C56 N60 1.331 . S
C57 C58 1.391 . S
C57 N60 1.329 . S
C57 H67 0.930 . S
C58 C57 1.391 . S
C58 N59 1.334 . S
C58 H65 0.930 . S
N59 Zn43 2.119 1_554 S
N59 C55 1.328 . S
N59 C58 1.334 . S
N60 C56 1.331 . S
N60 C57 1.329 . S
H61 C55 0.930 . S
C62 O42 1.257 . S
C62 O63 1.244 . S
O63 C62 1.244 . S
O64 C40 1.257 . S
O64 Zn43 2.019 . S
H65 C58 0.930 . S
H66 C45 0.930 . S
H67 C57 0.930 . S
Zn68 N72 2.020 . S
Zn68 O76 2.019 . S
Zn68 N78 2.119 . S
Zn68 O86 1.975 . S
C69 N70 1.334 . S
C69 N73 1.336 . S
N70 C69 1.334 . S
N70 C71 1.334 . S
C71 N70 1.334 . S
C71 N72 1.336 . S
N72 Zn68 2.020 . S
N72 C71 1.336 . S
N72 N73 1.354 . S
N73 C69 1.336 . S
N73 N72 1.354 . S
N73 Zn77 2.020 . S
C74 O75 1.244 . S
C74 O98 1.257 . S
O75 C74 1.244 . S
O76 Zn68 2.019 . S
O76 C96 1.257 . S
Zn77 N73 2.020 . S
Zn77 O84 1.975 . S
Zn77 N93 2.119 . S
Zn77 O98 2.019 . S
N78 Zn68 2.119 . S
N78 C80 1.334 . S
N78 C81 1.328 . S
C79 C80 1.391 . S
C79 N82 1.329 . S
C79 H100 0.930 . S
C80 N78 1.334 . S
C80 C79 1.391 . S
C80 H87 0.930 . S
C81 N78 1.328 . S
C81 C83 1.392 . S
C81 H88 0.930 . S
N82 C79 1.329 . S
N82 C83 1.331 . S
C83 C81 1.392 . S
C83 N82 1.331 . S
O84 Zn77 1.975 . S
O84 C85 1.252 . S
C85 O84 1.252 . S
C85 O86 1.252 . S
O86 Zn68 1.975 . S
O86 C85 1.252 . S
H87 C80 0.930 . S
H88 C81 0.930 . S
C89 C90 1.392 . S
C89 N93 1.328 . S
C89 H95 0.930 . S
C90 C89 1.392 . S
C90 N94 1.331 . S
C91 C92 1.391 . S
C91 N94 1.329 . S
C91 H101 0.930 . S
C92 C91 1.391 . S
C92 N93 1.334 . S
C92 H99 0.930 . S
N93 Zn77 2.119 . S
N93 C89 1.328 . S
N93 C92 1.334 . S
N94 C90 1.331 . S
N94 C91 1.329 . S
H95 C89 0.930 . S
C96 O76 1.257 . S
C96 O97 1.244 . S
O97 C96 1.244 . S
O98 C74 1.257 . S
O98 Zn77 2.019 . S
H99 C92 0.930 . S
H100 C79 0.930 . S
H101 C91 0.930 . S
Zn102 N106 2.020 . S
Zn102 O110 2.019 . S
Zn102 N112 2.119 . S
Zn102 O120 1.975 . S
C103 N104 1.334 . S
C103 N107 1.336 . S
N104 C103 1.334 . S
N104 C105 1.334 . S
C105 N104 1.334 . S
C105 N106 1.336 . S
N106 Zn102 2.020 . S
N106 C105 1.336 . S
N106 N107 1.354 . S
N107 C103 1.336 . S
N107 N106 1.354 . S
N107 Zn111 2.020 . S
C108 O109 1.244 . S
C108 O132 1.257 . S
O109 C108 1.244 . S
O110 Zn102 2.019 . S
O110 C130 1.257 . S
Zn111 N107 2.020 . S
Zn111 O118 1.975 . S
Zn111 N127 2.119 . S
Zn111 O132 2.019 . S
N112 Zn102 2.119 . S
N112 C114 1.334 . S
N112 C115 1.328 . S
C113 C114 1.391 . S
C113 N116 1.329 . S
C113 H134 0.930 . S
C114 N112 1.334 . S
C114 C113 1.391 . S
C114 H121 0.930 . S
C115 N112 1.328 . S
C115 C117 1.392 . S
C115 H122 0.930 . S
N116 C113 1.329 . S
N116 C117 1.331 . S
C117 C115 1.392 . S
C117 N116 1.331 . S
O118 Zn111 1.975 . S
O118 C119 1.252 . S
C119 O118 1.252 . S
C119 O120 1.252 . S
O120 Zn102 1.975 . S
O120 C119 1.252 . S
H121 C114 0.930 . S
H122 C115 0.930 . S
C123 C124 1.392 . S
C123 N127 1.328 . S
C123 H129 0.930 . S
C124 C123 1.392 . S
C124 N128 1.331 . S
C125 C126 1.391 . S
C125 N128 1.329 . S
C125 H135 0.930 . S
C126 C125 1.391 . S
C126 N127 1.334 . S
C126 H133 0.930 . S
N127 Zn111 2.119 . S
N127 C123 1.328 . S
N127 C126 1.334 . S
N128 C124 1.331 . S
N128 C125 1.329 . S
H129 C123 0.930 . S
C130 O110 1.257 . S
C130 O131 1.244 . S
O131 C130 1.244 . S
O132 C108 1.257 . S
O132 Zn111 2.019 . S
H133 C126 0.930 . S
H134 C113 0.930 . S
H135 C125 0.930 . S
Zn136 N140 2.020 . S
Zn136 O144 2.019 . S
Zn136 N146 2.119 . S
Zn136 O154 1.975 . S
C137 N138 1.333 1_565 S
C137 N141 1.336 . S
N138 C137 1.333 1_545 S
N138 C139 1.334 . S
C139 N138 1.334 . S
C139 N140 1.336 . S
N140 Zn136 2.020 . S
N140 C139 1.336 . S
N140 N141 1.354 1_545 S
N141 C137 1.336 . S
N141 N140 1.354 1_565 S
N141 Zn145 2.020 . S
C142 O143 1.244 . S
C142 O166 1.257 . S
O143 C142 1.244 . S
O144 Zn136 2.019 . S
O144 C164 1.257 . S
Zn145 N141 2.020 . S
Zn145 O152 1.975 . S
Zn145 N161 2.119 . S
Zn145 O166 2.019 . S
N146 Zn136 2.119 . S
N146 C148 1.334 . S
N146 C149 1.328 . S
C147 C148 1.391 . S
C147 N150 1.329 . S
C147 H168 0.930 . S
C148 N146 1.334 . S
C148 C147 1.391 . S
C148 H155 0.930 . S
C149 N146 1.328 . S
C149 C151 1.392 . S
C149 H156 0.930 . S
N150 C147 1.329 . S
N150 C151 1.331 . S
C151 C149 1.392 . S
C151 N150 1.331 . S
O152 Zn145 1.975 . S
O152 C153 1.251 1_565 S
C153 O152 1.251 1_545 S
C153 O154 1.253 . S
O154 Zn136 1.975 . S
O154 C153 1.253 . S
H155 C148 0.930 . S
H156 C149 0.930 . S
C157 C158 1.392 . S
C157 N161 1.328 . S
C157 H163 0.930 . S
C158 C157 1.392 . S
C158 N162 1.331 . S
C159 C160 1.391 . S
C159 N162 1.329 . S
C159 H169 0.930 . S
C160 C159 1.391 . S
C160 N161 1.334 . S
C160 H167 0.930 . S
N161 Zn145 2.119 . S
N161 C157 1.328 . S
N161 C160 1.334 . S
N162 C158 1.331 . S
N162 C159 1.329 . S
H163 C157 0.930 . S
C164 O144 1.257 . S
C164 O165 1.244 . S
O165 C164 1.244 . S
O166 C142 1.257 . S
O166 Zn145 2.019 . S
H167 C160 0.930 . S
H168 C147 0.930 . S
H169 C159 0.930 . S
Zn170 N174 2.020 . S
Zn170 O178 2.019 . S
Zn170 N180 2.119 . S
Zn170 O188 1.975 . S
C171 N172 1.334 . S
C171 N175 1.336 . S
N172 C171 1.334 . S
N172 C173 1.333 1_545 S
C173 N172 1.333 1_565 S
C173 N174 1.336 . S
N174 Zn170 2.020 . S
N174 C173 1.336 . S
N174 N175 1.354 1_565 S
N175 C171 1.336 . S
N175 N174 1.354 1_545 S
N175 Zn179 2.020 . S
C176 O177 1.244 . S
C176 O200 1.257 . S
O177 C176 1.244 . S
O178 Zn170 2.019 . S
O178 C198 1.257 . S
Zn179 N175 2.020 . S
Zn179 O186 1.975 . S
Zn179 N195 2.119 . S
Zn179 O200 2.019 . S
N180 Zn170 2.119 . S
N180 C182 1.334 . S
N180 C183 1.328 . S
C181 C182 1.391 . S
C181 N184 1.329 . S
C181 H202 0.930 . S
C182 N180 1.334 . S
C182 C181 1.391 . S
C182 H189 0.930 . S
C183 N180 1.328 . S
C183 C185 1.392 . S
C183 H190 0.930 . S
N184 C181 1.329 . S
N184 C185 1.331 . S
C185 C183 1.392 . S
C185 N184 1.331 . S
O186 Zn179 1.975 . S
O186 C187 1.253 . S
C187 O186 1.253 . S
C187 O188 1.251 1_545 S
O188 Zn170 1.975 . S
O188 C187 1.251 1_565 S
H189 C182 0.930 . S
H190 C183 0.930 . S
C191 C192 1.392 . S
C191 N195 1.328 . S
C191 H197 0.930 . S
C192 C191 1.392 . S
C192 N196 1.331 . S
C193 C194 1.391 . S
C193 N196 1.329 . S
C193 H203 0.930 . S
C194 C193 1.391 . S
C194 N195 1.334 . S
C194 H201 0.930 . S
N195 Zn179 2.119 . S
N195 C191 1.328 . S
N195 C194 1.334 . S
N196 C192 1.331 . S
N196 C193 1.329 . S
H197 C191 0.930 . S
C198 O178 1.257 . S
C198 O199 1.244 . S
O199 C198 1.244 . S
O200 C176 1.257 . S
O200 Zn179 2.019 . S
H201 C194 0.930 . S
H202 C181 0.930 . S
H203 C193 0.930 . S
Zn204 N208 2.020 . S
Zn204 O212 2.019 . S
Zn204 N214 2.119 1_554 S
Zn204 O222 1.975 . S
C205 N206 1.334 1_556 S
C205 N209 1.336 . S
N206 C205 1.334 1_554 S
N206 C207 1.334 . S
C207 N206 1.334 . S
C207 N208 1.336 . S
N208 Zn204 2.020 . S
N208 C207 1.336 . S
N208 N209 1.354 1_554 S
N209 C205 1.336 . S
N209 N208 1.354 1_556 S
N209 Zn213 2.020 . S
C210 O211 1.244 . S
C210 O234 1.257 . S
O211 C210 1.244 . S
O212 Zn204 2.019 . S
O212 C232 1.257 . S
Zn213 N209 2.020 . S
Zn213 O220 1.975 . S
Zn213 N229 2.119 1_556 S
Zn213 O234 2.019 . S
N214 Zn204 2.119 1_556 S
N214 C216 1.334 . S
N214 C217 1.328 . S
C215 C216 1.391 . S
C215 N218 1.329 . S
C215 H236 0.930 . S
C216 N214 1.334 . S
C216 C215 1.391 . S
C216 H223 0.930 . S
C217 N214 1.328 . S
C217 C219 1.392 . S
C217 H224 0.930 . S
N218 C215 1.329 . S
N218 C219 1.331 . S
C219 C217 1.392 . S
C219 N218 1.331 . S
O220 Zn213 1.975 . S
O220 C221 1.252 1_556 S
C221 O220 1.252 1_554 S
C221 O222 1.252 . S
O222 Zn204 1.975 . S
O222 C221 1.252 . S
H223 C216 0.930 . S
H224 C217 0.930 . S
C225 C226 1.392 . S
C225 N229 1.328 . S
C225 H231 0.930 . S
C226 C225 1.392 . S
C226 N230 1.331 . S
C227 C228 1.391 . S
C227 N230 1.329 . S
C227 H237 0.930 . S
C228 C227 1.391 . S
C228 N229 1.334 . S
C228 H235 0.930 . S
N229 Zn213 2.119 1_554 S
N229 C225 1.328 . S
N229 C228 1.334 . S
N230 C226 1.331 . S
N230 C227 1.329 . S
H231 C225 0.930 . S
C232 O212 1.257 . S
C232 O233 1.244 . S
O233 C232 1.244 . S
O234 C210 1.257 . S
O234 Zn213 2.019 . S
H235 C228 0.930 . S
H236 C215 0.930 . S
H237 C227 0.930 . S
Zn238 N242 2.020 . S
Zn238 O246 2.019 . S
Zn238 N248 2.119 1_554 S
Zn238 O256 1.975 . S
C239 N240 1.334 1_556 S
C239 N243 1.336 . S
N240 C239 1.334 1_554 S
N240 C241 1.334 . S
C241 N240 1.334 . S
C241 N242 1.336 . S
N242 Zn238 2.020 . S
N242 C241 1.336 . S
N242 N243 1.354 1_554 S
N243 C239 1.336 . S
N243 N242 1.354 1_556 S
N243 Zn247 2.020 . S
C244 O245 1.244 . S
C244 O268 1.257 . S
O245 C244 1.244 . S
O246 Zn238 2.019 . S
O246 C266 1.257 . S
Zn247 N243 2.020 . S
Zn247 O254 1.975 . S
Zn247 N263 2.119 1_556 S
Zn247 O268 2.019 . S
N248 Zn238 2.119 1_556 S
N248 C250 1.334 . S
N248 C251 1.328 . S
C249 C250 1.391 . S
C249 N252 1.329 . S
C249 H270 0.930 . S
C250 N248 1.334 . S
C250 C249 1.391 . S
C250 H257 0.930 . S
C251 N248 1.328 . S
C251 C253 1.392 . S
C251 H258 0.930 . S
N252 C249 1.329 . S
N252 C253 1.331 . S
C253 C251 1.392 . S
C253 N252 1.331 . S
O254 Zn247 1.975 . S
O254 C255 1.252 1_556 S
C255 O254 1.252 1_554 S
C255 O256 1.252 . S
O256 Zn238 1.975 . S
O256 C255 1.252 . S
H257 C250 0.930 . S
H258 C251 0.930 . S
C259 C260 1.392 . S
C259 N263 1.328 . S
C259 H265 0.930 . S
C260 C259 1.392 . S
C260 N264 1.331 . S
C261 C262 1.391 . S
C261 N264 1.329 . S
C261 H271 0.930 . S
C262 C261 1.391 . S
C262 N263 1.334 . S
C262 H269 0.930 . S
N263 Zn247 2.119 1_554 S
N263 C259 1.328 . S
N263 C262 1.334 . S
N264 C260 1.331 . S
N264 C261 1.329 . S
H265 C259 0.930 . S
C266 O246 1.257 . S
C266 O267 1.244 . S
O267 C266 1.244 . S
O268 C244 1.257 . S
O268 Zn247 2.019 . S
H269 C262 0.930 . S
H270 C249 0.930 . S
H271 C261 0.930 . S
C241 C3 5.459 . S
C207 C37 5.459 . S
C239 C1 5.459 . S
C205 C35 5.459 . S
C173 C71 5.459 . S
C139 C105 5.459 . S
C171 C69 5.459 . S
C137 C103 5.459 . S
C28 C74 2.396 . S
C62 C108 2.396 . S
C96 C6 2.398 . S
C40 C130 2.398 . S
C49 C124 1.148 . S
C15 C90 1.148 . S
C56 C117 1.148 . S
C83 C22 1.148 . S
C210 C164 2.398 . S
C244 C198 2.398 . S
C142 C232 2.396 . S
C266 C176 2.396 . S
C185 C260 1.148 . S
C151 C226 1.148 . S
C253 C192 1.148 . S
C219 C158 1.148 . S
C17 C51 1.810 . S
C119 C85 1.810 . S
C153 C187 1.810 1_655 S
C255 C221 1.810 1_455 S
