# Generated by pormake.
# Topology bcg, (8)-cn, num edge types: 1
# Building blocks:
#     Node 0, Type 0, BuildingBlock: EBIMEJ_clean_sbu_0, # of connection points: 8
#     Node 1, Type 0, BuildingBlock: EBIMEJ_clean_sbu_0, # of connection points: 8
#     Node 2, Type 0, BuildingBlock: EBIMEJ_clean_sbu_0, # of connection points: 8
#     Node 3, Type 0, BuildingBlock: EBIMEJ_clean_sbu_0, # of connection points: 8
#     Edge 4, Type (0, 0), BuildingBlock: AJUNOK_clean_linker_0, # of connection points: 2
#     Edge 5, Type (0, 0), BuildingBlock: AJUNOK_clean_linker_0, # of connection points: 2
#     Edge 6, Type (0, 0), BuildingBlock: AJUNOK_clean_linker_0, # of connection points: 2
#     Edge 7, Type (0, 0), BuildingBlock: AJUNOK_clean_linker_0, # of connection points: 2
#     Edge 8, Type (0, 0), BuildingBlock: AJUNOK_clean_linker_0, # of connection points: 2
#     Edge 9, Type (0, 0), BuildingBlock: AJUNOK_clean_linker_0, # of connection points: 2
#     Edge 10, Type (0, 0), BuildingBlock: AJUNOK_clean_linker_0, # of connection points: 2
#     Edge 11, Type (0, 0), BuildingBlock: AJUNOK_clean_linker_0, # of connection points: 2
#     Edge 12, Type (0, 0), BuildingBlock: AJUNOK_clean_linker_0, # of connection points: 2
#     Edge 13, Type (0, 0), BuildingBlock: AJUNOK_clean_linker_0, # of connection points: 2
#     Edge 14, Type (0, 0), BuildingBlock: AJUNOK_clean_linker_0, # of connection points: 2
#     Edge 15, Type (0, 0), BuildingBlock: AJUNOK_clean_linker_0, # of connection points: 2
#     Edge 16, Type (0, 0), BuildingBlock: AJUNOK_clean_linker_0, # of connection points: 2
#     Edge 17, Type (0, 0), BuildingBlock: AJUNOK_clean_linker_0, # of connection points: 2
#     Edge 18, Type (0, 0), BuildingBlock: AJUNOK_clean_linker_0, # of connection points: 2
#     Edge 19, Type (0, 0), BuildingBlock: AJUNOK_clean_linker_0, # of connection points: 2
# Relax obj value: 0.040
# Max RMSD: 0.091
# Mean RMSD: 0.091
data_MOF--net-bcg--node1-EBIMEJ_clean_sbu_0--edge1-AJUNOK_clean_linker_0
_symmetry_space_group_name_H-M    P1
_symmetry_Int_Tables_number       1
_symmetry_cell_setting            triclinic
loop_
_symmetry_equiv_pos_as_xyz
'x, y, z'
_cell_length_a     13.294349
_cell_length_b     21.014995
_cell_length_c     26.99277
_cell_angle_alpha  82.668729
_cell_angle_beta   90.112088
_cell_angle_gamma 90.100333
loop_
_atom_site_label
_atom_site_type_symbol
_atom_site_fract_x
_atom_site_fract_y
_atom_site_fract_z
_atom_type_partial_charge
Co0 Co 0.1259 0.24234 0.92877 0.0
Co1 Co 0.33998 0.25363 0.99129 0.0
Co2 Co 0.14488 0.25861 0.04486 0.0
H3 H 0.15975 0.26163 0.98595 0.0
O4 O 0.20551 0.28922 0.97573 0.0
H5 H 0.32334 0.25172 0.0498 0.0
O6 O 0.27876 0.22343 0.0601 0.0
Co7 Co 0.35187 0.27389 0.10648 0.0
O8 O 0.49386 0.26456 0.07974 0.0
O9 O 0.47393 0.21918 1.00982 0.0
O10 O 0.23221 0.28493 0.15183 0.0
O11 O 0.10137 0.24146 0.11606 0.0
O12 O 0.03753 0.19466 0.88233 0.0
O13 O 0.09287 0.28519 0.85716 0.0
O14 O 0.34739 0.36468 0.07431 0.0
O15 O 0.39068 0.34364 0.99859 0.0
C16 C 0.95255 0.27177 0.99663 0.0
C17 C 0.33641 0.26692 0.87989 0.0
C18 C 0.43347 0.26256 0.19057 0.0
C19 C 0.0905 0.13133 1.00365 0.0
C20 C 0.52965 0.23812 0.04349 0.0
C21 C 0.14189 0.26407 0.15309 0.0
C22 C 0.04063 0.23884 0.84639 0.0
C23 C 0.38222 0.38271 0.03116 0.0
O24 O 0.98529 0.24671 0.95902 0.0
O25 O 0.01134 0.29358 0.02752 0.0
O26 O 0.38484 0.26993 0.92048 0.0
O27 O 0.24149 0.25743 0.87847 0.0
O28 O 0.37395 0.3068 0.17457 0.0
O29 O 0.44532 0.22408 0.15902 0.0
O30 O 0.11393 0.15074 0.95875 0.0
O31 O 0.09546 0.1685 0.03773 0.0
Co32 Co 0.63122 0.73687 0.93021 0.0
Co33 Co 0.8394 0.75634 0.99206 0.0
Co34 Co 0.64266 0.75715 0.04501 0.0
H35 H 0.65988 0.75978 0.98655 0.0
O36 O 0.70349 0.78882 0.97639 0.0
H37 H 0.8225 0.75029 0.05086 0.0
O38 O 0.77746 0.72182 0.06021 0.0
Co39 Co 0.85309 0.76812 0.10873 0.0
O40 O -0.00471 0.76627 0.08063 0.0
O41 O 0.97563 0.7241 1.00935 0.0
O42 O 0.73798 0.75009 0.15868 0.0
O43 O 0.5966 0.73858 0.11538 0.0
O44 O 0.50868 0.71151 0.89022 0.0
O45 O 0.62756 0.76045 0.85325 0.0
O46 O 0.85645 0.86059 0.081 0.0
O47 O 0.88455 0.84667 1.00197 0.0
C48 C 0.45308 0.77377 0.99326 0.0
C49 C 0.84312 0.75602 0.88412 0.0
C50 C 0.93894 0.77213 0.19058 0.0
C51 C 0.59549 0.62857 1.00436 0.0
C52 C 0.03132 0.74382 0.04264 0.0
C53 C 0.64337 0.73997 0.15653 0.0
C54 C 0.5431 0.73487 0.84858 0.0
C55 C 0.88441 0.88218 0.03727 0.0
O56 O 0.48833 0.74738 0.95677 0.0
O57 O 0.50902 0.7921 0.02701 0.0
O58 O 0.88338 0.77736 0.92164 0.0
O59 O 0.75369 0.73342 0.88465 0.0
O60 O 0.95188 0.8122 0.15252 0.0
O61 O 0.87716 0.72935 0.18211 0.0
O62 O 0.63087 0.64548 0.96119 0.0
O63 O 0.5911 0.66778 0.03693 0.0
Co64 Co 0.12391 0.76077 0.60962 0.0
Co65 Co 0.33797 0.75757 0.54598 0.0
Co66 Co 0.14108 0.75028 0.49286 0.0
H67 H 0.15785 0.74529 0.55161 0.0
O68 O 0.20532 0.71863 0.56098 0.0
H69 H 0.32121 0.76126 0.48709 0.0
O70 O 0.27432 0.7882 0.47747 0.0
Co71 Co 0.35286 0.74356 0.42919 0.0
O72 O 0.49394 0.7529 0.45742 0.0
O73 O 0.47075 0.79507 0.52847 0.0
O74 O 0.23757 0.76539 0.37933 0.0
O75 O 0.09381 0.76858 0.42258 0.0
O76 O 0.08058 0.80684 0.66913 0.0
O77 O 0.05832 0.70879 0.67115 0.0
O78 O 0.36876 0.65178 0.45835 0.0
O79 O 0.39132 0.66927 0.53718 0.0
C80 C 0.94896 0.73463 0.54237 0.0
C81 C 0.33573 0.73669 0.65748 0.0
C82 C 0.43436 0.7365 0.34668 0.0
C83 C 0.07797 0.87341 0.53734 0.0
C84 C 0.52797 0.77763 0.49497 0.0
C85 C 0.14223 0.77219 0.38159 0.0
C86 C 0.04638 0.75686 0.6939 0.0
C87 C 0.39586 0.63263 0.50281 0.0
O88 O 0.98226 0.75778 0.5807 0.0
O89 O 0.00734 0.71405 0.51069 0.0
O90 O 0.38486 0.73917 0.61665 0.0
O91 O 0.24057 0.74383 0.65879 0.0
O92 O 0.47603 0.72097 0.38821 0.0
O93 O 0.34676 0.75672 0.352 0.0
O94 O 0.09541 0.85147 0.58241 0.0
O95 O 0.09153 0.83989 0.50144 0.0
Co96 Co 0.62574 0.26792 0.60603 0.0
Co97 Co 0.83711 0.24962 0.54609 0.0
Co98 Co 0.6458 0.25874 0.48818 0.0
H99 H 0.6572 0.2512 0.54777 0.0
O100 O 0.69824 0.22047 0.55737 0.0
H101 H 0.82485 0.2584 0.48667 0.0
O102 O 0.7837 0.28923 0.47747 0.0
Co103 Co 0.85612 0.24234 0.42836 0.0
O104 O -0.00258 0.24767 0.45683 0.0
O105 O 0.97536 0.27804 0.53279 0.0
O106 O 0.73425 0.23021 0.38409 0.0
O107 O 0.60926 0.28223 0.41649 0.0
O108 O 0.50935 0.29751 0.64839 0.0
O109 O 0.61865 0.23602 0.68159 0.0
O110 O 0.88794 0.15168 0.45379 0.0
O111 O 0.87503 0.15866 0.5353 0.0
C112 C 0.45277 0.23839 0.53688 0.0
C113 C 0.83334 0.23958 0.656 0.0
C114 C 0.92922 0.25811 0.34262 0.0
C115 C 0.5985 0.3832 0.53463 0.0
C116 C 0.03112 0.26489 0.49738 0.0
C117 C 0.64727 0.25602 0.38069 0.0
C118 C 0.53998 0.26674 0.68849 0.0
C119 C 0.89418 0.12688 0.49894 0.0
O120 O 0.4855 0.25691 0.57723 0.0
O121 O 0.50886 0.22805 0.50079 0.0
O122 O 0.87648 0.22459 0.617 0.0
O123 O 0.74336 0.26087 0.65597 0.0
O124 O 0.87123 0.21299 0.35873 0.0
O125 O 0.94337 0.29547 0.37484 0.0
O126 O 0.62082 0.36066 0.57905 0.0
O127 O 0.60137 0.34857 0.49884 0.0
C128 C 0.67663 0.2323 0.98741 0.0
C129 C 0.63921 0.24083 0.03483 0.0
C130 C 0.77721 0.24435 0.97494 0.0
C131 C 0.8449 0.26505 1.00956 0.0
H132 H 0.62739 0.21773 0.95902 0.0
H133 H 0.80183 0.23731 0.93778 0.0
S134 S 0.78724 0.2882 0.14103 0.0
N135 N 0.67916 0.26683 0.11796 0.0
N136 N 0.86883 0.28935 0.09495 0.0
C137 C 0.80932 0.27195 0.05786 0.0
C138 C 0.70655 0.2596 0.07047 0.0
C139 C 0.18634 0.71167 1.00056 0.0
C140 C 0.13969 0.75106 0.03205 0.0
C141 C 0.28671 0.72142 0.98616 0.0
C142 C 0.34393 0.77111 1.00259 0.0
H143 H 0.14512 0.67278 0.98708 0.0
H144 H 0.32037 0.68848 0.96322 0.0
S145 S 0.25383 0.89195 0.08113 0.0
N146 N 0.15606 0.84463 0.0763 0.0
N147 N 0.34506 0.86268 0.04936 0.0
C148 C 0.29755 0.81183 0.03312 0.0
C149 C 0.19542 0.80182 0.0479 0.0
C150 C 0.67105 0.76675 0.55516 0.0
C151 C 0.63677 0.77303 0.50537 0.0
C152 C 0.77161 0.75245 0.56699 0.0
C153 C 0.8415 0.74346 0.52953 0.0
H154 H 0.61938 0.77099 0.58555 0.0
H155 H 0.79459 0.74813 0.60581 0.0
S156 S 0.79176 0.76191 0.39287 0.0
N157 N 0.68183 0.77428 0.41812 0.0
N158 N 0.87072 0.7467 0.44009 0.0
C159 C 0.80861 0.75115 0.47944 0.0
C160 C 0.70639 0.76624 0.46743 0.0
C161 C 0.20858 0.28442 0.47264 0.0
C162 C 0.13808 0.25791 0.50778 0.0
C163 C 0.31116 0.27651 0.4823 0.0
C164 C 0.34527 0.24145 0.52709 0.0
H165 H 0.18431 0.31203 0.43802 0.0
H166 H 0.36421 0.29911 0.45505 0.0
S167 S 0.18956 0.1557 0.62762 0.0
N168 N 0.10782 0.19047 0.58667 0.0
N169 N 0.30195 0.17639 0.60492 0.0
C170 C 0.27555 0.21338 0.56186 0.0
C171 C 0.17121 0.22129 0.55206 0.0
C172 C 0.56547 0.5165 0.98402 0.0
C173 C 0.54262 0.56546 1.0134 0.0
C174 C 0.51075 0.45872 0.98848 0.0
C175 C 0.43029 0.4474 0.02235 0.0
H176 H 0.62654 0.52275 0.95732 0.0
H177 H 0.53346 0.42205 0.96601 0.0
S178 S 0.33307 0.56236 0.10454 0.0
N179 N 0.42919 0.60005 0.07532 0.0
N180 N 0.32684 0.49189 0.08376 0.0
C181 C 0.40518 0.49651 0.05119 0.0
C182 C 0.46113 0.55524 0.04677 0.0
C183 C 0.49595 0.46763 0.48288 0.0
C184 C 0.55381 0.44891 0.526 0.0
C185 C 0.44346 0.52607 0.47644 0.0
C186 C 0.44608 0.56868 0.51283 0.0
H187 H 0.4891 0.43628 0.45414 0.0
H188 H 0.40025 0.53779 0.44245 0.0
S189 S 0.59102 0.54445 0.63159 0.0
N190 N 0.61353 0.47936 0.6051 0.0
N191 N 0.51517 0.58873 0.59296 0.0
C192 C 0.5047 0.551 0.55592 0.0
C193 C 0.55846 0.49149 0.56245 0.0
C194 C 0.02542 0.02943 0.97504 0.0
C195 C 0.04218 0.06664 1.01434 0.0
C196 C 0.97218 0.9712 0.9824 0.0
C197 C 0.93263 0.94717 0.02941 0.0
H198 H 0.05273 0.04557 0.93776 0.0
H199 H 0.96269 0.94466 0.95084 0.0
S200 S 0.95705 0.02499 0.14548 0.0
N201 N 0.01575 0.07423 0.1025 0.0
N202 N 0.91587 0.96542 0.11655 0.0
C203 C 0.94919 0.98375 0.06927 0.0
C204 C 0.00386 0.04304 0.06173 0.0
C205 C 0.00203 0.03857 0.47402 0.0
C206 C 0.93614 0.06096 0.50897 0.0
C207 C 0.04728 0.97784 0.48306 0.0
C208 C 0.02901 0.93726 0.52757 0.0
H209 H 0.0206 0.06874 0.43965 0.0
H210 H 0.0983 0.9631 0.45543 0.0
S211 S 0.85312 0.96949 0.62841 0.0
N212 N 0.84916 0.03541 0.588 0.0
N213 N 0.93322 0.92128 0.60507 0.0
C214 C 0.96097 0.95822 0.5622 0.0
C215 C 0.91498 0.02005 0.55295 0.0
C216 C 0.51259 0.2996 0.31973 0.0
C217 C 0.58972 0.25484 0.33326 0.0
C218 C 0.46176 0.30131 0.2738 0.0
C219 C 0.48518 0.25792 0.2398 0.0
H220 H 0.49272 0.33456 0.34426 0.0
H221 H 0.40425 0.33738 0.26472 0.0
S222 S 0.67509 0.12789 0.25869 0.0
N223 N 0.68259 0.16346 0.30966 0.0
N224 N 0.58736 0.16702 0.22387 0.0
C225 C 0.55995 0.2118 0.25342 0.0
C226 C 0.61207 0.21019 0.29995 0.0
C227 C 0.63712 0.72103 0.25015 0.0
C228 C 0.5856 0.73329 0.20423 0.0
C229 C 0.58696 0.72042 0.29583 0.0
C230 C 0.48342 0.73311 0.29773 0.0
H231 H 0.71742 0.71246 0.25102 0.0
H232 H 0.63024 0.71105 0.32995 0.0
S233 S 0.31102 0.76308 0.18888 0.0
N234 N 0.42271 0.75449 0.16395 0.0
N235 N 0.32918 0.75425 0.2499 0.0
C236 C 0.42995 0.74346 0.25235 0.0
C237 C 0.48078 0.74328 0.20565 0.0
C238 C 0.49087 0.75171 0.70849 0.0
C239 C 0.39094 0.72983 0.706 0.0
C240 C 0.53978 0.75294 0.75465 0.0
C241 C 0.49108 0.73177 0.8001 0.0
H242 H 0.53058 0.77008 0.67465 0.0
H243 H 0.61601 0.77126 0.75469 0.0
S244 S 0.23236 0.66507 0.81417 0.0
N245 N 0.24736 0.68292 0.75331 0.0
N246 N 0.33899 0.68518 0.83951 0.0
C247 C 0.39249 0.70778 0.79807 0.0
C248 C 0.34259 0.70681 0.75122 0.0
C249 C 0.34672 0.29636 0.7869 0.0
C250 C 0.39281 0.27053 0.83205 0.0
C251 C 0.39539 0.29578 0.74078 0.0
C252 C 0.49129 0.2682 0.73784 0.0
H253 H 0.27212 0.31701 0.78716 0.0
H254 H 0.35674 0.31618 0.7071 0.0
S255 S 0.6439 0.19298 0.84486 0.0
N256 N 0.5399 0.21622 0.87063 0.0
N257 N 0.63081 0.21462 0.78422 0.0
C258 C 0.53842 0.24242 0.78266 0.0
C259 C 0.48941 0.24377 0.82965 0.0
C260 C 0.01006 0.7322 0.32761 0.0
C261 C 0.08538 0.77743 0.33411 0.0
C262 C 0.96266 0.7311 0.28118 0.0
C263 C 0.98856 0.77545 0.23955 0.0
H264 H -0.01004 0.69597 0.35823 0.0
H265 H 0.90617 0.69469 0.27782 0.0
S266 S 0.17853 0.9055 0.23799 0.0
N267 N 0.18242 0.86843 0.29575 0.0
N268 N 0.09246 0.8675 0.20866 0.0
C269 C 0.06247 0.82186 0.24597 0.0
C270 C 0.11134 0.82243 0.29315 0.0
C271 C 0.95452 0.22053 0.25887 0.0
C272 C 0.97895 0.26371 0.29298 0.0
C273 C 0.00537 0.22191 0.2131 0.0
C274 C 0.08348 0.2661 0.1999 0.0
H275 H 0.89668 0.18461 0.26789 0.0
H276 H 0.98508 0.18697 0.18855 0.0
S277 S 0.17177 0.39237 0.27456 0.0
N278 N 0.08297 0.35401 0.30914 0.0
N279 N 0.17849 0.35672 0.22362 0.0
C280 C 0.10668 0.31067 0.23316 0.0
C281 C 0.05445 0.30949 0.27949 0.0
C282 C 0.00092 0.28792 0.75878 0.0
C283 C -0.00951 0.23635 0.79727 0.0
C284 C 0.95206 0.28764 0.71255 0.0
C285 C 0.89104 0.23585 0.70311 0.0
H286 H 0.04633 0.32921 0.76453 0.0
H287 H 0.96053 0.3288 0.6843 0.0
S288 S 0.84201 0.0879 0.7897 0.0
N289 N 0.91662 0.13084 0.82158 0.0
N290 N 0.82467 0.13113 0.73481 0.0
C291 C 0.88112 0.18362 0.74062 0.0
C292 C 0.931 0.18363 0.78765 0.0
C293 C -0.0102 0.81191 0.76613 0.0
C294 C -5e-05 0.75501 0.74398 0.0
C295 C 0.94225 0.81182 0.81261 0.0
C296 C 0.90216 0.755 0.83805 0.0
H297 H 0.01743 0.85705 0.74713 0.0
H298 H 0.93388 0.85674 0.82792 0.0
S299 S 0.91688 0.59257 0.79896 0.0
N300 N 0.97222 0.63962 0.75331 0.0
N301 N 0.88103 0.64005 0.83986 0.0
C302 C 0.91411 0.6977 0.81712 0.0
C303 C 0.96353 0.69753 0.77027 0.0
loop_
_geom_bond_atom_site_label_1
_geom_bond_atom_site_label_2
_geom_bond_distance
_geom_bond_site_symmetry_2
_ccdc_geom_bond_type
Co0 H3 2.400 . S
Co0 O4 2.009 . S
Co0 O12 2.115 . S
Co0 O13 2.315 . S
Co0 O24 2.053 1_455 S
Co0 O27 2.094 . S
Co0 O30 2.122 . S
Co1 O4 2.126 . S
Co1 H5 2.388 1_556 S
Co1 O6 2.053 1_556 S
Co1 O9 2.047 . S
Co1 O15 2.113 . S
Co1 O26 2.063 . S
Co2 H3 2.388 1_554 S
Co2 O4 2.053 1_554 S
Co2 O6 2.126 . S
Co2 O11 2.063 . S
Co2 O25 2.047 1_455 S
Co2 O31 2.113 . S
H3 Co0 2.400 . S
H3 Co2 2.388 1_556 S
H3 O4 0.760 . S
O4 Co0 2.009 . S
O4 Co1 2.126 . S
O4 Co2 2.053 1_556 S
O4 H3 0.760 . S
H5 Co1 2.388 1_554 S
H5 O6 0.760 . S
H5 Co7 2.400 . S
O6 Co1 2.053 1_554 S
O6 Co2 2.126 . S
O6 H5 0.760 . S
O6 Co7 2.009 . S
Co7 H5 2.400 . S
Co7 O6 2.009 . S
Co7 O8 2.053 . S
Co7 O10 2.094 . S
Co7 O14 2.122 . S
Co7 O28 2.115 . S
Co7 O29 2.315 . S
O8 Co7 2.053 . S
O8 C20 1.259 . S
O9 Co1 2.047 . S
O9 C20 1.257 1_556 S
O10 Co7 2.094 . S
O10 C21 1.253 . S
O11 Co2 2.063 . S
O11 C21 1.268 . S
O12 Co0 2.115 . S
O12 C22 1.281 . S
O13 Co0 2.315 . S
O13 C22 1.252 . S
O14 Co7 2.122 . S
O14 C23 1.272 . S
O15 Co1 2.113 . S
O15 C23 1.245 1_556 S
C16 O24 1.259 . S
C16 O25 1.257 1_556 S
C17 O26 1.268 . S
C17 O27 1.253 . S
C18 O28 1.281 . S
C18 O29 1.252 . S
C19 O30 1.272 . S
C19 O31 1.245 1_556 S
C20 O8 1.259 . S
C20 O9 1.257 1_554 S
C21 O10 1.253 . S
C21 O11 1.268 . S
C22 O12 1.281 . S
C22 O13 1.252 . S
C23 O14 1.272 . S
C23 O15 1.245 1_554 S
O24 Co0 2.053 1_655 S
O24 C16 1.259 . S
O25 Co2 2.047 1_655 S
O25 C16 1.257 1_554 S
O26 Co1 2.063 . S
O26 C17 1.268 . S
O27 Co0 2.094 . S
O27 C17 1.253 . S
O28 Co7 2.115 . S
O28 C18 1.281 . S
O29 Co7 2.315 . S
O29 C18 1.252 . S
O30 Co0 2.122 . S
O30 C19 1.272 . S
O31 Co2 2.113 . S
O31 C19 1.245 1_554 S
Co32 H35 2.400 . S
Co32 O36 2.009 . S
Co32 O44 2.115 . S
Co32 O45 2.315 . S
Co32 O56 2.053 . S
Co32 O59 2.094 . S
Co32 O62 2.122 . S
Co33 O36 2.126 . S
Co33 H37 2.388 1_556 S
Co33 O38 2.053 1_556 S
Co33 O41 2.047 1_655 S
Co33 O47 2.113 . S
Co33 O58 2.063 . S
Co34 H35 2.388 1_554 S
Co34 O36 2.053 1_554 S
Co34 O38 2.126 . S
Co34 O43 2.063 . S
Co34 O57 2.047 . S
Co34 O63 2.113 . S
H35 Co32 2.400 . S
H35 Co34 2.388 1_556 S
H35 O36 0.760 . S
O36 Co32 2.009 . S
O36 Co33 2.126 . S
O36 Co34 2.053 1_556 S
O36 H35 0.760 . S
H37 Co33 2.388 1_554 S
H37 O38 0.760 . S
H37 Co39 2.400 . S
O38 Co33 2.053 1_554 S
O38 Co34 2.126 . S
O38 H37 0.760 . S
O38 Co39 2.009 . S
Co39 H37 2.400 . S
Co39 O38 2.009 . S
Co39 O40 2.053 1_655 S
Co39 O42 2.094 . S
Co39 O46 2.122 . S
Co39 O60 2.115 . S
Co39 O61 2.315 . S
O40 Co39 2.053 1_455 S
O40 C52 1.259 . S
O41 Co33 2.047 1_455 S
O41 C52 1.257 1_556 S
O42 Co39 2.094 . S
O42 C53 1.253 . S
O43 Co34 2.063 . S
O43 C53 1.268 . S
O44 Co32 2.115 . S
O44 C54 1.281 . S
O45 Co32 2.315 . S
O45 C54 1.252 . S
O46 Co39 2.122 . S
O46 C55 1.272 . S
O47 Co33 2.113 . S
O47 C55 1.245 1_556 S
C48 O56 1.259 . S
C48 O57 1.257 1_556 S
C49 O58 1.268 . S
C49 O59 1.253 . S
C50 O60 1.281 . S
C50 O61 1.252 . S
C51 O62 1.272 . S
C51 O63 1.245 1_556 S
C52 O40 1.259 . S
C52 O41 1.257 1_554 S
C53 O42 1.253 . S
C53 O43 1.268 . S
C54 O44 1.281 . S
C54 O45 1.252 . S
C55 O46 1.272 . S
C55 O47 1.245 1_554 S
O56 Co32 2.053 . S
O56 C48 1.259 . S
O57 Co34 2.047 . S
O57 C48 1.257 1_554 S
O58 Co33 2.063 . S
O58 C49 1.268 . S
O59 Co32 2.094 . S
O59 C49 1.253 . S
O60 Co39 2.115 . S
O60 C50 1.281 . S
O61 Co39 2.315 . S
O61 C50 1.252 . S
O62 Co32 2.122 . S
O62 C51 1.272 . S
O63 Co34 2.113 . S
O63 C51 1.245 1_554 S
Co64 H67 2.400 . S
Co64 O68 2.009 . S
Co64 O76 2.115 . S
Co64 O77 2.315 . S
Co64 O88 2.053 1_455 S
Co64 O91 2.094 . S
Co64 O94 2.122 . S
Co65 O68 2.126 . S
Co65 H69 2.388 . S
Co65 O70 2.053 . S
Co65 O73 2.047 . S
Co65 O79 2.113 . S
Co65 O90 2.063 . S
Co66 H67 2.388 . S
Co66 O68 2.053 . S
Co66 O70 2.126 . S
Co66 O75 2.063 . S
Co66 O89 2.047 1_455 S
Co66 O95 2.113 . S
H67 Co64 2.400 . S
H67 Co66 2.388 . S
H67 O68 0.760 . S
O68 Co64 2.009 . S
O68 Co65 2.126 . S
O68 Co66 2.053 . S
O68 H67 0.760 . S
H69 Co65 2.388 . S
H69 O70 0.760 . S
H69 Co71 2.400 . S
O70 Co65 2.053 . S
O70 Co66 2.126 . S
O70 H69 0.760 . S
O70 Co71 2.009 . S
Co71 H69 2.400 . S
Co71 O70 2.009 . S
Co71 O72 2.053 . S
Co71 O74 2.094 . S
Co71 O78 2.122 . S
Co71 O92 2.115 . S
Co71 O93 2.315 . S
O72 Co71 2.053 . S
O72 C84 1.259 . S
O73 Co65 2.047 . S
O73 C84 1.257 . S
O74 Co71 2.094 . S
O74 C85 1.253 . S
O75 Co66 2.063 . S
O75 C85 1.268 . S
O76 Co64 2.115 . S
O76 C86 1.281 . S
O77 Co64 2.315 . S
O77 C86 1.252 . S
O78 Co71 2.122 . S
O78 C87 1.272 . S
O79 Co65 2.113 . S
O79 C87 1.245 . S
C80 O88 1.259 . S
C80 O89 1.257 . S
C81 O90 1.268 . S
C81 O91 1.253 . S
C82 O92 1.281 . S
C82 O93 1.252 . S
C83 O94 1.272 . S
C83 O95 1.245 . S
C84 O72 1.259 . S
C84 O73 1.257 . S
C85 O74 1.253 . S
C85 O75 1.268 . S
C86 O76 1.281 . S
C86 O77 1.252 . S
C87 O78 1.272 . S
C87 O79 1.245 . S
O88 Co64 2.053 1_655 S
O88 C80 1.259 . S
O89 Co66 2.047 1_655 S
O89 C80 1.257 . S
O90 Co65 2.063 . S
O90 C81 1.268 . S
O91 Co64 2.094 . S
O91 C81 1.253 . S
O92 Co71 2.115 . S
O92 C82 1.281 . S
O93 Co71 2.315 . S
O93 C82 1.252 . S
O94 Co64 2.122 . S
O94 C83 1.272 . S
O95 Co66 2.113 . S
O95 C83 1.245 . S
Co96 H99 2.400 . S
Co96 O100 2.009 . S
Co96 O108 2.115 . S
Co96 O109 2.315 . S
Co96 O120 2.053 . S
Co96 O123 2.094 . S
Co96 O126 2.122 . S
Co97 O100 2.126 . S
Co97 H101 2.388 . S
Co97 O102 2.053 . S
Co97 O105 2.047 1_655 S
Co97 O111 2.113 . S
Co97 O122 2.063 . S
Co98 H99 2.388 . S
Co98 O100 2.053 . S
Co98 O102 2.126 . S
Co98 O107 2.063 . S
Co98 O121 2.047 . S
Co98 O127 2.113 . S
H99 Co96 2.400 . S
H99 Co98 2.388 . S
H99 O100 0.760 . S
O100 Co96 2.009 . S
O100 Co97 2.126 . S
O100 Co98 2.053 . S
O100 H99 0.760 . S
H101 Co97 2.388 . S
H101 O102 0.760 . S
H101 Co103 2.400 . S
O102 Co97 2.053 . S
O102 Co98 2.126 . S
O102 H101 0.760 . S
O102 Co103 2.009 . S
Co103 H101 2.400 . S
Co103 O102 2.009 . S
Co103 O104 2.053 1_655 S
Co103 O106 2.094 . S
Co103 O110 2.122 . S
Co103 O124 2.115 . S
Co103 O125 2.315 . S
O104 Co103 2.053 1_455 S
O104 C116 1.259 . S
O105 Co97 2.047 1_455 S
O105 C116 1.257 . S
O106 Co103 2.094 . S
O106 C117 1.253 . S
O107 Co98 2.063 . S
O107 C117 1.268 . S
O108 Co96 2.115 . S
O108 C118 1.281 . S
O109 Co96 2.315 . S
O109 C118 1.252 . S
O110 Co103 2.122 . S
O110 C119 1.272 . S
O111 Co97 2.113 . S
O111 C119 1.245 . S
C112 O120 1.259 . S
C112 O121 1.257 . S
C113 O122 1.268 . S
C113 O123 1.253 . S
C114 O124 1.281 . S
C114 O125 1.252 . S
C115 O126 1.272 . S
C115 O127 1.245 . S
C116 O104 1.259 . S
C116 O105 1.257 . S
C117 O106 1.253 . S
C117 O107 1.268 . S
C118 O108 1.281 . S
C118 O109 1.252 . S
C119 O110 1.272 . S
C119 O111 1.245 . S
O120 Co96 2.053 . S
O120 C112 1.259 . S
O121 Co98 2.047 . S
O121 C112 1.257 . S
O122 Co97 2.063 . S
O122 C113 1.268 . S
O123 Co96 2.094 . S
O123 C113 1.253 . S
O124 Co103 2.115 . S
O124 C114 1.281 . S
O125 Co103 2.315 . S
O125 C114 1.252 . S
O126 Co96 2.122 . S
O126 C115 1.272 . S
O127 Co98 2.113 . S
O127 C115 1.245 . S
C128 C129 1.369 1_556 S
C128 C130 1.419 . S
C128 H132 0.930 . S
C129 C128 1.369 1_554 S
C129 C138 1.429 . S
C130 C128 1.419 . S
C130 C131 1.363 . S
C130 H133 0.929 . S
C131 C130 1.363 . S
C131 C137 1.428 1_556 S
H132 C128 0.930 . S
H133 C130 0.929 . S
S134 N135 1.613 . S
S134 N136 1.610 . S
N135 S134 1.613 . S
N135 C138 1.350 . S
N136 S134 1.610 . S
N136 C137 1.351 . S
C137 C131 1.428 1_554 S
C137 N136 1.351 . S
C137 C138 1.434 . S
C138 C129 1.429 . S
C138 N135 1.350 . S
C138 C137 1.434 . S
C139 C140 1.369 1_556 S
C139 C141 1.419 . S
C139 H143 0.930 . S
C140 C139 1.369 1_554 S
C140 C149 1.429 . S
C141 C139 1.419 . S
C141 C142 1.363 . S
C141 H144 0.929 . S
C142 C141 1.363 . S
C142 C148 1.428 1_556 S
H143 C139 0.930 . S
H144 C141 0.929 . S
S145 N146 1.613 . S
S145 N147 1.610 . S
N146 S145 1.613 . S
N146 C149 1.350 . S
N147 S145 1.610 . S
N147 C148 1.351 . S
C148 C142 1.428 1_554 S
C148 N147 1.351 . S
C148 C149 1.434 . S
C149 C140 1.429 . S
C149 N146 1.350 . S
C149 C148 1.434 . S
C150 C151 1.369 . S
C150 C152 1.419 . S
C150 H154 0.930 . S
C151 C150 1.369 . S
C151 C160 1.429 . S
C152 C150 1.419 . S
C152 C153 1.363 . S
C152 H155 0.929 . S
C153 C152 1.363 . S
C153 C159 1.428 . S
H154 C150 0.930 . S
H155 C152 0.929 . S
S156 N157 1.613 . S
S156 N158 1.610 . S
N157 S156 1.613 . S
N157 C160 1.350 . S
N158 S156 1.610 . S
N158 C159 1.351 . S
C159 C153 1.428 . S
C159 N158 1.351 . S
C159 C160 1.434 . S
C160 C151 1.429 . S
C160 N157 1.350 . S
C160 C159 1.434 . S
C161 C162 1.369 . S
C161 C163 1.419 . S
C161 H165 0.930 . S
C162 C161 1.369 . S
C162 C171 1.429 . S
C163 C161 1.419 . S
C163 C164 1.363 . S
C163 H166 0.929 . S
C164 C163 1.363 . S
C164 C170 1.428 . S
H165 C161 0.930 . S
H166 C163 0.929 . S
S167 N168 1.613 . S
S167 N169 1.610 . S
N168 S167 1.613 . S
N168 C171 1.350 . S
N169 S167 1.610 . S
N169 C170 1.351 . S
C170 C164 1.428 . S
C170 N169 1.351 . S
C170 C171 1.434 . S
C171 C162 1.429 . S
C171 N168 1.350 . S
C171 C170 1.434 . S
C172 C173 1.369 1_556 S
C172 C174 1.419 . S
C172 H176 0.930 . S
C173 C172 1.369 1_554 S
C173 C182 1.429 . S
C174 C172 1.419 . S
C174 C175 1.363 . S
C174 H177 0.929 . S
C175 C174 1.363 . S
C175 C181 1.428 1_556 S
H176 C172 0.930 . S
H177 C174 0.929 . S
S178 N179 1.613 . S
S178 N180 1.610 . S
N179 S178 1.613 . S
N179 C182 1.350 . S
N180 S178 1.610 . S
N180 C181 1.351 . S
C181 C175 1.428 1_554 S
C181 N180 1.351 . S
C181 C182 1.434 . S
C182 C173 1.429 . S
C182 N179 1.350 . S
C182 C181 1.434 . S
C183 C184 1.369 . S
C183 C185 1.419 . S
C183 H187 0.930 . S
C184 C183 1.369 . S
C184 C193 1.429 . S
C185 C183 1.419 . S
C185 C186 1.363 . S
C185 H188 0.929 . S
C186 C185 1.363 . S
C186 C192 1.428 . S
H187 C183 0.930 . S
H188 C185 0.929 . S
S189 N190 1.613 . S
S189 N191 1.610 . S
N190 S189 1.613 . S
N190 C193 1.350 . S
N191 S189 1.610 . S
N191 C192 1.351 . S
C192 C186 1.428 . S
C192 N191 1.351 . S
C192 C193 1.434 . S
C193 C184 1.429 . S
C193 N190 1.350 . S
C193 C192 1.434 . S
C194 C195 1.369 1_556 S
C194 C196 1.419 1_445 S
C194 H198 0.930 . S
C195 C194 1.369 1_554 S
C195 C204 1.429 . S
C196 C194 1.419 1_665 S
C196 C197 1.363 . S
C196 H199 0.929 . S
C197 C196 1.363 . S
C197 C203 1.428 1_556 S
H198 C194 0.930 . S
H199 C196 0.929 . S
S200 N201 1.613 1_665 S
S200 N202 1.610 . S
N201 S200 1.613 1_445 S
N201 C204 1.350 . S
N202 S200 1.610 . S
N202 C203 1.351 . S
C203 C197 1.428 1_554 S
C203 N202 1.351 . S
C203 C204 1.434 1_665 S
C204 C195 1.429 . S
C204 N201 1.350 . S
C204 C203 1.434 1_445 S
C205 C206 1.369 1_455 S
C205 C207 1.419 . S
C205 H209 0.930 . S
C206 C205 1.369 1_655 S
C206 C215 1.429 1_545 S
C207 C205 1.419 . S
C207 C208 1.363 1_545 S
C207 H210 0.929 . S
C208 C207 1.363 1_565 S
C208 C214 1.428 1_455 S
H209 C205 0.930 . S
H210 C207 0.929 . S
S211 N212 1.613 . S
S211 N213 1.610 . S
N212 S211 1.613 . S
N212 C215 1.350 . S
N213 S211 1.610 . S
N213 C214 1.351 . S
C214 C208 1.428 1_655 S
C214 N213 1.351 . S
C214 C215 1.434 . S
C215 C206 1.429 1_565 S
C215 N212 1.350 . S
C215 C214 1.434 . S
C216 C217 1.369 . S
C216 C218 1.419 . S
C216 H220 0.930 . S
C217 C216 1.369 . S
C217 C226 1.429 . S
C218 C216 1.419 . S
C218 C219 1.363 . S
C218 H221 0.929 . S
C219 C218 1.363 . S
C219 C225 1.428 . S
H220 C216 0.930 . S
H221 C218 0.929 . S
S222 N223 1.613 . S
S222 N224 1.610 . S
N223 S222 1.613 . S
N223 C226 1.350 . S
N224 S222 1.610 . S
N224 C225 1.351 . S
C225 C219 1.428 . S
C225 N224 1.351 . S
C225 C226 1.434 . S
C226 C217 1.429 . S
C226 N223 1.350 . S
C226 C225 1.434 . S
C227 C228 1.369 . S
C227 C229 1.419 . S
C227 H231 0.930 . S
C228 C227 1.369 . S
C228 C237 1.429 . S
C229 C227 1.419 . S
C229 C230 1.363 . S
C229 H232 0.929 . S
C230 C229 1.363 . S
C230 C236 1.428 . S
H231 C227 0.930 . S
H232 C229 0.929 . S
S233 N234 1.613 . S
S233 N235 1.610 . S
N234 S233 1.613 . S
N234 C237 1.350 . S
N235 S233 1.610 . S
N235 C236 1.351 . S
C236 C230 1.428 . S
C236 N235 1.351 . S
C236 C237 1.434 . S
C237 C228 1.429 . S
C237 N234 1.350 . S
C237 C236 1.434 . S
C238 C239 1.369 . S
C238 C240 1.419 . S
C238 H242 0.930 . S
C239 C238 1.369 . S
C239 C248 1.429 . S
C240 C238 1.419 . S
C240 C241 1.363 . S
C240 H243 0.929 . S
C241 C240 1.363 . S
C241 C247 1.428 . S
H242 C238 0.930 . S
H243 C240 0.929 . S
S244 N245 1.613 . S
S244 N246 1.610 . S
N245 S244 1.613 . S
N245 C248 1.350 . S
N246 S244 1.610 . S
N246 C247 1.351 . S
C247 C241 1.428 . S
C247 N246 1.351 . S
C247 C248 1.434 . S
C248 C239 1.429 . S
C248 N245 1.350 . S
C248 C247 1.434 . S
C249 C250 1.369 . S
C249 C251 1.419 . S
C249 H253 0.930 . S
C250 C249 1.369 . S
C250 C259 1.429 . S
C251 C249 1.419 . S
C251 C252 1.363 . S
C251 H254 0.929 . S
C252 C251 1.363 . S
C252 C258 1.428 . S
H253 C249 0.930 . S
H254 C251 0.929 . S
S255 N256 1.613 . S
S255 N257 1.610 . S
N256 S255 1.613 . S
N256 C259 1.350 . S
N257 S255 1.610 . S
N257 C258 1.351 . S
C258 C252 1.428 . S
C258 N257 1.351 . S
C258 C259 1.434 . S
C259 C250 1.429 . S
C259 N256 1.350 . S
C259 C258 1.434 . S
C260 C261 1.369 . S
C260 C262 1.419 1_455 S
C260 H264 0.930 1_455 S
C261 C260 1.369 . S
C261 C270 1.429 . S
C262 C260 1.419 1_655 S
C262 C263 1.363 . S
C262 H265 0.929 . S
C263 C262 1.363 . S
C263 C269 1.428 1_655 S
H264 C260 0.930 1_655 S
H265 C262 0.929 . S
S266 N267 1.613 . S
S266 N268 1.610 . S
N267 S266 1.613 . S
N267 C270 1.350 . S
N268 S266 1.610 . S
N268 C269 1.351 . S
C269 C263 1.428 1_455 S
C269 N268 1.351 . S
C269 C270 1.434 . S
C270 C261 1.429 . S
C270 N267 1.350 . S
C270 C269 1.434 . S
C271 C272 1.369 . S
C271 C273 1.419 1_655 S
C271 H275 0.930 . S
C272 C271 1.369 . S
C272 C281 1.429 1_655 S
C273 C271 1.419 1_455 S
C273 C274 1.363 . S
C273 H276 0.929 1_455 S
C274 C273 1.363 . S
C274 C280 1.428 . S
H275 C271 0.930 . S
H276 C273 0.929 1_655 S
S277 N278 1.613 . S
S277 N279 1.610 . S
N278 S277 1.613 . S
N278 C281 1.350 . S
N279 S277 1.610 . S
N279 C280 1.351 . S
C280 C274 1.428 . S
C280 N279 1.351 . S
C280 C281 1.434 . S
C281 C272 1.429 1_455 S
C281 N278 1.350 . S
C281 C280 1.434 . S
C282 C283 1.369 . S
C282 C284 1.419 1_455 S
C282 H286 0.930 . S
C283 C282 1.369 . S
C283 C292 1.429 1_455 S
C284 C282 1.419 1_655 S
C284 C285 1.363 . S
C284 H287 0.929 . S
C285 C284 1.363 . S
C285 C291 1.428 . S
H286 C282 0.930 . S
H287 C284 0.929 . S
S288 N289 1.613 . S
S288 N290 1.610 . S
N289 S288 1.613 . S
N289 C292 1.350 . S
N290 S288 1.610 . S
N290 C291 1.351 . S
C291 C285 1.428 . S
C291 N290 1.351 . S
C291 C292 1.434 . S
C292 C283 1.429 1_655 S
C292 N289 1.350 . S
C292 C291 1.434 . S
C293 C294 1.369 1_655 S
C293 C295 1.419 . S
C293 H297 0.930 . S
C294 C293 1.369 1_455 S
C294 C303 1.429 . S
C295 C293 1.419 . S
C295 C296 1.363 . S
C295 H298 0.929 . S
C296 C295 1.363 . S
C296 C302 1.428 . S
H297 C293 0.930 . S
H298 C295 0.929 . S
S299 N300 1.613 . S
S299 N301 1.610 1_455 S
N300 S299 1.613 . S
N300 C303 1.350 . S
N301 S299 1.610 1_655 S
N301 C302 1.351 . S
C302 C296 1.428 . S
C302 N301 1.351 . S
C302 C303 1.434 1_655 S
C303 C294 1.429 . S
C303 N300 1.350 . S
C303 C302 1.434 1_455 S
C129 C20 1.097 . S
C131 C16 1.093 . S
C140 C52 1.095 . S
C142 C48 1.095 . S
C151 C84 1.097 . S
C153 C80 1.093 . S
C162 C116 1.092 . S
C164 C112 1.097 . S
C173 C51 1.451 1_554 S
C175 C23 1.452 1_556 S
C184 C115 1.448 . S
C186 C87 1.454 . S
C195 C19 1.455 1_554 S
C197 C55 1.448 1_556 S
C206 C119 1.456 . S
C208 C83 1.447 . S
C217 C117 1.659 . S
C219 C18 1.624 . S
C228 C53 1.658 . S
C230 C82 1.628 . S
C239 C81 1.659 . S
C241 C54 1.629 . S
C250 C17 1.658 . S
C252 C118 1.633 . S
C261 C85 1.660 . S
C263 C50 1.623 . S
C272 C114 1.628 . S
C274 C21 1.656 . S
C283 C22 1.627 . S
C285 C113 1.662 . S
C294 C86 1.630 . S
C296 C49 1.661 . S
