# Generated by pormake.
# Topology smk, (6)-cn, num edge types: 1
# Building blocks:
#     Node 0, Type 0, BuildingBlock: IZENUY_clean_sbu_0, # of connection points: 6
#     Node 1, Type 0, BuildingBlock: IZENUY_clean_sbu_0, # of connection points: 6
#     Node 2, Type 0, BuildingBlock: IZENUY_clean_sbu_0, # of connection points: 6
#     Node 3, Type 0, BuildingBlock: IZENUY_clean_sbu_0, # of connection points: 6
#     Node 4, Type 0, BuildingBlock: IZENUY_clean_sbu_0, # of connection points: 6
#     Node 5, Type 0, BuildingBlock: IZENUY_clean_sbu_0, # of connection points: 6
#     Edge 6, Type (0, 0), BuildingBlock: ZUJKAS_clean_linker_0, # of connection points: 2
#     Edge 7, Type (0, 0), BuildingBlock: ZUJKAS_clean_linker_0, # of connection points: 2
#     Edge 8, Type (0, 0), BuildingBlock: ZUJKAS_clean_linker_0, # of connection points: 2
#     Edge 9, Type (0, 0), BuildingBlock: ZUJKAS_clean_linker_0, # of connection points: 2
#     Edge 10, Type (0, 0), BuildingBlock: ZUJKAS_clean_linker_0, # of connection points: 2
#     Edge 11, Type (0, 0), BuildingBlock: ZUJKAS_clean_linker_0, # of connection points: 2
#     Edge 12, Type (0, 0), BuildingBlock: ZUJKAS_clean_linker_0, # of connection points: 2
#     Edge 13, Type (0, 0), BuildingBlock: ZUJKAS_clean_linker_0, # of connection points: 2
#     Edge 14, Type (0, 0), BuildingBlock: ZUJKAS_clean_linker_0, # of connection points: 2
#     Edge 15, Type (0, 0), BuildingBlock: ZUJKAS_clean_linker_0, # of connection points: 2
#     Edge 16, Type (0, 0), BuildingBlock: ZUJKAS_clean_linker_0, # of connection points: 2
#     Edge 17, Type (0, 0), BuildingBlock: ZUJKAS_clean_linker_0, # of connection points: 2
#     Edge 18, Type (0, 0), BuildingBlock: ZUJKAS_clean_linker_0, # of connection points: 2
#     Edge 19, Type (0, 0), BuildingBlock: ZUJKAS_clean_linker_0, # of connection points: 2
#     Edge 20, Type (0, 0), BuildingBlock: ZUJKAS_clean_linker_0, # of connection points: 2
#     Edge 21, Type (0, 0), BuildingBlock: ZUJKAS_clean_linker_0, # of connection points: 2
#     Edge 22, Type (0, 0), BuildingBlock: ZUJKAS_clean_linker_0, # of connection points: 2
#     Edge 23, Type (0, 0), BuildingBlock: ZUJKAS_clean_linker_0, # of connection points: 2
# Relax obj value: 0.171
# Max RMSD: 0.207
# Mean RMSD: 0.207
data_MOF--net-smk--node1-IZENUY_clean_sbu_0--edge1-ZUJKAS_clean_linker_0
_symmetry_space_group_name_H-M    P1
_symmetry_Int_Tables_number       1
_symmetry_cell_setting            triclinic
loop_
_symmetry_equiv_pos_as_xyz
'x, y, z'
_cell_length_a     54.052769
_cell_length_b     54.052164
_cell_length_c     19.566214
_cell_angle_alpha  90.017829
_cell_angle_beta   89.957787
_cell_angle_gamma 119.98113
loop_
_atom_site_label
_atom_site_type_symbol
_atom_site_fract_x
_atom_site_fract_y
_atom_site_fract_z
_atom_type_partial_charge
Fe0 Fe 0.46061 0.25019 0.65184 0.0
Fe1 Fe 0.40381 0.2048 0.58929 0.0
O2 O 0.44168 0.22349 0.58983 0.0
Fe3 Fe 0.46076 0.21562 0.52846 0.0
O4 O 0.47779 0.20564 0.59396 0.0
O5 O 0.49106 0.24386 0.65678 0.0
O6 O 0.44449 0.22465 0.72025 0.0
C7 C 0.41799 0.21007 0.73096 0.0
C8 C 0.49342 0.27612 0.54017 0.0
O9 O 0.40027 0.20587 0.68344 0.0
C10 C 0.41862 0.21356 0.44795 0.0
O11 O 0.4337 0.2615 0.65886 0.0
O12 O 0.40285 0.23759 0.57776 0.0
O13 O 0.49126 0.25239 0.52387 0.0
O14 O 0.47798 0.27738 0.58682 0.0
C15 C 0.4136 0.16095 0.56101 0.0
O16 O 0.40064 0.20038 0.49521 0.0
O17 O 0.44504 0.22512 0.45926 0.0
C18 C 0.41406 0.25846 0.61842 0.0
O19 O 0.40209 0.17071 0.60057 0.0
O20 O 0.43379 0.17745 0.52158 0.0
C21 C 0.49317 0.22227 0.64067 0.0
Fe22 Fe 0.21966 0.45744 0.81793 0.0
Fe23 Fe 0.20853 0.4007 0.75556 0.0
O24 O 0.22738 0.43855 0.75572 0.0
Fe25 Fe 0.25399 0.4576 0.69364 0.0
O26 O 0.28127 0.4748 0.75848 0.0
O27 O 0.25641 0.48795 0.82227 0.0
O28 O 0.22937 0.44151 0.88621 0.0
C29 C 0.2176 0.41504 0.89711 0.0
C30 C 0.22604 0.49011 0.70635 0.0
O31 O 0.20412 0.39725 0.84972 0.0
C32 C 0.21383 0.41523 0.61413 0.0
O33 O 0.1815 0.43039 0.82535 0.0
O34 O 0.1746 0.39938 0.74454 0.0
O35 O 0.24761 0.48804 0.68953 0.0
O36 O 0.20954 0.47466 0.75322 0.0
C37 C 0.26208 0.41079 0.72583 0.0
O38 O 0.20956 0.3974 0.66139 0.0
O39 O 0.22841 0.44169 0.62523 0.0
C40 C 0.16492 0.41062 0.78513 0.0
O41 O 0.24121 0.39947 0.76652 0.0
O42 O 0.26524 0.43066 0.68596 0.0
C43 C 0.2801 0.49014 0.80549 0.0
Fe44 Fe 0.81744 0.2046 0.92204 0.0
Fe45 Fe 0.80569 0.24974 0.85926 0.0
O46 O 0.79828 0.22333 0.92192 0.0
Fe47 Fe 0.77172 0.21572 0.98425 0.0
O48 O 0.79728 0.22528 0.05263 0.0
O49 O 0.81659 0.2003 0.01613 0.0
O50 O 0.85121 0.23742 0.93266 0.0
C51 C 0.86067 0.25812 0.89152 0.0
C52 C 0.76395 0.16089 0.95176 0.0
O53 O 0.84387 0.26099 0.85134 0.0
C54 C 0.74531 0.22212 0.87279 0.0
O55 O 0.82167 0.20542 0.82782 0.0
O56 O 0.79589 0.22386 0.79149 0.0
O57 O 0.7604 0.1775 0.99119 0.0
O58 O 0.78502 0.17053 0.91162 0.0
C59 C 0.79961 0.27622 0.97104 0.0
O60 O 0.76894 0.24347 0.85533 0.0
O61 O 0.7443 0.20572 0.9198 0.0
C62 C 0.80791 0.20939 0.78054 0.0
O63 O 0.8158 0.27728 0.92332 0.0
O64 O 0.77828 0.25259 0.98892 0.0
C65 C 0.81204 0.21359 0.06357 0.0
Fe66 Fe 0.6215 0.81292 0.09092 0.0
Fe67 Fe 0.56469 0.80216 0.02953 0.0
O68 O 0.58363 0.79428 0.09122 0.0
Fe69 Fe 0.56458 0.76763 0.15327 0.0
O70 O 0.58061 0.79319 0.2217 0.0
O71 O 0.62487 0.81187 0.18516 0.0
O72 O 0.62324 0.84702 0.10199 0.0
C73 C 0.61187 0.85681 0.06217 0.0
C74 C 0.61116 0.75927 0.12042 0.0
O75 O 0.59172 0.84033 0.02266 0.0
C76 C 0.53197 0.74168 0.04141 0.0
O77 O 0.62485 0.81734 0.99678 0.0
O78 O 0.58051 0.79259 0.96053 0.0
O79 O 0.59145 0.75627 0.16065 0.0
O80 O 0.62243 0.7801 0.07964 0.0
C81 C 0.53208 0.7956 0.14141 0.0
O82 O 0.53419 0.76541 0.02491 0.0
O83 O 0.54729 0.74042 0.0883 0.0
C84 C 0.60694 0.80415 0.94941 0.0
O85 O 0.54756 0.81219 0.09473 0.0
O86 O 0.53414 0.77401 0.15785 0.0
C87 C 0.60709 0.80773 0.23256 0.0
Fe88 Fe 0.81722 0.6178 0.25778 0.0
Fe89 Fe 0.77219 0.56095 0.19472 0.0
O90 O 0.79854 0.57992 0.25744 0.0
Fe91 Fe 0.80608 0.56096 0.3199 0.0
O92 O 0.79626 0.57689 0.38816 0.0
O93 O 0.82146 0.62117 0.35195 0.0
O94 O 0.78438 0.61872 0.26848 0.0
C95 C 0.76363 0.60742 0.22752 0.0
C96 C 0.8609 0.60799 0.28751 0.0
O97 O 0.76077 0.58778 0.1872 0.0
C98 C 0.80004 0.52833 0.20835 0.0
O99 O 0.81643 0.62131 0.16352 0.0
O100 O 0.79804 0.57714 0.12687 0.0
O101 O 0.84426 0.58796 0.32719 0.0
O102 O 0.8513 0.61943 0.2473 0.0
C103 C 0.74566 0.52812 0.30619 0.0
O104 O 0.77876 0.53064 0.1903 0.0
O105 O 0.81626 0.54361 0.25574 0.0
C106 C 0.81248 0.60362 0.11609 0.0
O107 O 0.74462 0.54341 0.25888 0.0
O108 O 0.76932 0.53051 0.32397 0.0
C109 C 0.808 0.60333 0.39925 0.0
Fe110 Fe 0.20832 0.81366 0.42314 0.0
Fe111 Fe 0.2194 0.7678 0.36154 0.0
O112 O 0.22725 0.79468 0.42313 0.0
Fe113 Fe 0.25411 0.80251 0.48472 0.0
O114 O 0.22878 0.79317 0.55366 0.0
O115 O 0.20948 0.81819 0.51725 0.0
O116 O 0.17438 0.78114 0.43458 0.0
C117 C 0.16467 0.75999 0.39476 0.0
C118 C 0.26199 0.85727 0.45161 0.0
O119 O 0.18119 0.7565 0.35492 0.0
C120 C 0.2799 0.79566 0.37269 0.0
O121 O 0.20381 0.81248 0.32904 0.0
O122 O 0.22878 0.79311 0.2926 0.0
O123 O 0.26545 0.84073 0.49138 0.0
O124 O 0.24087 0.84757 0.41172 0.0
C125 C 0.22616 0.74201 0.47362 0.0
O126 O 0.25619 0.77409 0.3565 0.0
O127 O 0.28115 0.8123 0.41939 0.0
C128 C 0.21709 0.80787 0.28161 0.0
O129 O 0.20955 0.74077 0.42688 0.0
O130 O 0.24776 0.76571 0.48976 0.0
C131 C 0.21404 0.8049 0.56466 0.0
H132 H 0.36642 0.17603 0.39141 0.0
H133 H 0.35395 0.16982 0.2694 0.0
H134 H 0.43717 0.24063 0.22053 0.0
H135 H 0.44971 0.24707 0.34145 0.0
H136 H 0.3904 0.23926 0.14594 0.0
H137 H 0.39087 0.13642 0.1376 0.0
H138 H 0.36832 0.13996 0.19987 0.0
H139 H 0.4064 0.1612 0.20771 0.0
C140 C 0.38186 0.19057 0.35472 0.0
C141 C 0.40917 0.21188 0.3761 0.0
C142 C 0.37476 0.18687 0.28505 0.0
C143 C 0.39479 0.20453 0.23592 0.0
C144 C 0.42143 0.22671 0.25756 0.0
H145 H 0.44789 0.20518 0.83662 0.0
H146 H 0.43549 0.19945 0.95766 0.0
C147 C 0.42859 0.23029 0.32677 0.0
C148 C 0.38919 0.19928 0.16157 0.0
H149 H 0.38762 0.15572 0.033 0.0
C150 C 0.38913 0.22071 0.12115 0.0
C151 C 0.38783 0.17516 0.12954 0.0
C152 C 0.38849 0.15185 0.17052 0.0
C153 C 0.38905 0.21928 0.04942 0.0
C154 C 0.38881 0.19569 0.01737 0.0
C155 C 0.38756 0.17364 0.0578 0.0
C156 C 0.39407 0.19562 0.94292 0.0
C157 C 0.39105 0.24386 0.00842 0.0
C158 C 0.37447 0.19447 0.89409 0.0
C159 C 0.38148 0.19764 0.82435 0.0
C160 C 0.40828 0.20221 0.80264 0.0
C161 C 0.42718 0.20194 0.85162 0.0
C162 C 0.4201 0.19858 0.92088 0.0
H163 H 0.39455 0.2621 0.04128 0.0
H164 H 0.40879 0.2515 0.97087 0.0
H165 H 0.37093 0.23655 0.97947 0.0
H166 H 0.35412 0.19188 0.91006 0.0
H167 H 0.36647 0.19777 0.7879 0.0
H168 H 0.20037 0.36336 0.55741 0.0
H169 H 0.19438 0.35095 0.43535 0.0
H170 H 0.2044 0.43329 0.38699 0.0
H171 H 0.21021 0.44575 0.50797 0.0
H172 H 0.16005 0.3862 0.31175 0.0
H173 H 0.26467 0.38935 0.30426 0.0
H174 H 0.2387 0.3662 0.36599 0.0
H175 H 0.25467 0.40418 0.37455 0.0
C176 C 0.20078 0.37859 0.52083 0.0
C177 C 0.20604 0.40565 0.54235 0.0
C178 C 0.19755 0.37154 0.45112 0.0
C179 C 0.19935 0.39137 0.4021 0.0
C180 C 0.20303 0.41771 0.42391 0.0
H181 H 0.25195 0.44535 1.00308 0.0
H182 H 0.24529 0.43293 0.12409 0.0
C183 C 0.20643 0.42482 0.49316 0.0
C184 C 0.19928 0.38593 0.32771 0.0
H185 H 0.24205 0.38558 0.19949 0.0
C186 C 0.17763 0.38542 0.28711 0.0
C187 C 0.22242 0.38521 0.29586 0.0
C188 C 0.2466 0.38641 0.33702 0.0
C189 C 0.17913 0.38547 0.21538 0.0
C190 C 0.20282 0.38583 0.18353 0.0
C191 C 0.22382 0.38506 0.22413 0.0
C192 C 0.20819 0.39118 0.10911 0.0
C193 C 0.15631 0.38695 0.17421 0.0
C194 C 0.19004 0.37142 0.06016 0.0
C195 C 0.19387 0.37844 0.99044 0.0
C196 C 0.21581 0.40541 0.96884 0.0
C197 C 0.23471 0.4245 0.01796 0.0
C198 C 0.23098 0.41741 0.08722 0.0
H199 H 0.14131 0.39011 0.20696 0.0
H200 H 0.16616 0.40471 0.13667 0.0
H201 H 0.14383 0.36677 0.14525 0.0
H202 H 0.1725 0.35092 0.07601 0.0
H203 H 0.17895 0.36328 0.9539 0.0
H204 H 0.82534 0.17505 0.12012 0.0
H205 H 0.83117 0.16849 0.24219 0.0
H206 H 0.82143 0.24096 0.29081 0.0
H207 H 0.81573 0.24772 0.16982 0.0
H208 H 0.86576 0.23781 0.36607 0.0
H209 H 0.76061 0.13697 0.37302 0.0
H210 H 0.78649 0.13966 0.31109 0.0
H211 H 0.77079 0.16194 0.30303 0.0
C212 C 0.82497 0.18988 0.15677 0.0
C213 C 0.81981 0.21175 0.13532 0.0
C214 C 0.82811 0.18598 0.22647 0.0
C215 C 0.82634 0.20401 0.27555 0.0
C216 C 0.82277 0.22675 0.25383 0.0
H217 H 0.77353 0.2053 0.67455 0.0
H218 H 0.78021 0.19953 0.55356 0.0
C219 C 0.81944 0.23053 0.18459 0.0
C220 C 0.82631 0.19857 0.34992 0.0
H221 H 0.78322 0.15563 0.4779 0.0
C222 C 0.84806 0.21954 0.39063 0.0
C223 C 0.80301 0.17483 0.38164 0.0
C224 C 0.77874 0.15205 0.34033 0.0
C225 C 0.84652 0.21805 0.46235 0.0
C226 C 0.82268 0.19486 0.4941 0.0
C227 C 0.80157 0.17324 0.45336 0.0
C228 C 0.8173 0.19484 0.56852 0.0
C229 C 0.86947 0.24221 0.50362 0.0
C230 C 0.83543 0.19321 0.61749 0.0
C231 C 0.83161 0.19643 0.68722 0.0
C232 C 0.80969 0.2015 0.70881 0.0
C233 C 0.79078 0.20168 0.65969 0.0
C234 C 0.79451 0.1983 0.59043 0.0
H235 H 0.88452 0.26036 0.47096 0.0
H236 H 0.85976 0.25017 0.54145 0.0
H237 H 0.88188 0.23433 0.53223 0.0
H238 H 0.85295 0.1902 0.60167 0.0
H239 H 0.84653 0.19619 0.72375 0.0
H240 H 0.57754 0.81399 0.33719 0.0
H241 H 0.5898 0.82031 0.45826 0.0
H242 H 0.67004 0.82486 0.41293 0.0
H243 H 0.65786 0.81851 0.29071 0.0
H244 H 0.63688 0.78424 0.51495 0.0
H245 H 0.64748 0.88945 0.57109 0.0
H246 H 0.61556 0.86637 0.5243 0.0
H247 H 0.64987 0.8783 0.48541 0.0
C248 C 0.59805 0.81685 0.35266 0.0
C249 C 0.61672 0.81572 0.30426 0.0
C250 C 0.6051 0.82064 0.42196 0.0
C251 C 0.63096 0.82336 0.44465 0.0
C252 C 0.65007 0.82304 0.39641 0.0
H253 H 0.65781 0.84392 0.89128 0.0
H254 H 0.67 0.84987 0.76904 0.0
C255 C 0.64314 0.81953 0.32663 0.0
C256 C 0.63638 0.82381 0.5192 0.0
H257 H 0.63652 0.85753 0.66699 0.0
C258 C 0.63744 0.80059 0.54815 0.0
C259 C 0.6374 0.84526 0.56254 0.0
C260 C 0.63781 0.87141 0.53424 0.0
C261 C 0.6375 0.79727 0.61939 0.0
C262 C 0.63626 0.81759 0.6627 0.0
C263 C 0.63723 0.84183 0.63378 0.0
C264 C 0.63076 0.81254 0.73722 0.0
C265 C 0.63799 0.77159 0.64776 0.0
C266 C 0.60481 0.78952 0.75982 0.0
C267 C 0.59773 0.7862 0.82915 0.0
C268 C 0.6165 0.80582 0.87762 0.0
C269 C 0.64301 0.82832 0.8553 0.0
C270 C 0.64995 0.83181 0.78551 0.0
H271 H 0.64756 0.76314 0.6108 0.0
H272 H 0.65019 0.77686 0.69636 0.0
H273 H 0.61577 0.75441 0.6582 0.0
H274 H 0.58946 0.77467 0.72345 0.0
H275 H 0.57715 0.76865 0.84461 0.0
H276 H 0.77249 0.57358 0.50422 0.0
H277 H 0.77859 0.58588 0.62534 0.0
H278 H 0.8538 0.6664 0.57942 0.0
H279 H 0.84779 0.6542 0.45722 0.0
H280 H 0.86168 0.63321 0.68114 0.0
H281 H 0.76706 0.64367 0.7386 0.0
H282 H 0.75832 0.61183 0.69145 0.0
H283 H 0.78056 0.64621 0.65281 0.0
C284 C 0.79006 0.59416 0.51959 0.0
C285 C 0.80967 0.61291 0.47102 0.0
C286 C 0.79342 0.60123 0.58891 0.0
C287 C 0.81648 0.62718 0.61144 0.0
C288 C 0.83572 0.64636 0.56304 0.0
H289 H 0.82285 0.65428 0.05795 0.0
H290 H 0.82899 0.66642 0.93569 0.0
C291 C 0.83219 0.63941 0.49326 0.0
C292 C 0.8216 0.63266 0.68594 0.0
H293 H 0.78839 0.63308 0.83415 0.0
C294 C 0.84597 0.6338 0.71455 0.0
C295 C 0.80128 0.63376 0.72954 0.0
C296 C 0.77546 0.63409 0.70154 0.0
C297 C 0.84954 0.63403 0.78575 0.0
C298 C 0.8281 0.63287 0.82938 0.0
C299 C 0.80473 0.63374 0.80074 0.0
C300 C 0.82784 0.62751 0.90394 0.0
C301 C 0.87584 0.63466 0.81368 0.0
C302 C 0.82541 0.60178 0.92665 0.0
C303 C 0.82175 0.59475 0.99599 0.0
C304 C 0.82047 0.61332 0.04441 0.0
C305 C 0.82401 0.63964 0.02202 0.0
C306 C 0.82738 0.64654 0.95221 0.0
H307 H 0.89382 0.64444 0.77664 0.0
H308 H 0.88274 0.64672 0.86249 0.0
H309 H 0.87099 0.61245 0.82354 0.0
H310 H 0.82517 0.58652 0.89034 0.0
H311 H 0.81909 0.57431 0.01147 0.0
H312 H 0.17886 0.82161 0.22501 0.0
H313 H 0.17256 0.82775 0.10295 0.0
H314 H 0.24463 0.81731 0.05445 0.0
H315 H 0.25115 0.81133 0.17539 0.0
H316 H 0.2421 0.86208 0.97966 0.0
H317 H 0.1407 0.75746 0.97132 0.0
H318 H 0.14356 0.78332 0.03347 0.0
H319 H 0.16551 0.76725 0.04151 0.0
C320 C 0.19365 0.82113 0.18839 0.0
C321 C 0.21534 0.8157 0.20985 0.0
C322 C 0.1899 0.82446 0.1187 0.0
C323 C 0.2079 0.8226 0.06965 0.0
C324 C 0.23045 0.81873 0.09141 0.0
H325 H 0.21032 0.7707 0.67072 0.0
H326 H 0.20439 0.77725 0.79171 0.0
C327 C 0.23408 0.81523 0.16062 0.0
C328 C 0.20263 0.8228 0.99528 0.0
H329 H 0.15979 0.78014 0.8667 0.0
C330 C 0.2238 0.84453 0.95486 0.0
C331 C 0.17885 0.79968 0.96323 0.0
C332 C 0.15584 0.77544 1.00422 0.0
C333 C 0.22247 0.84313 0.88312 0.0
C334 C 0.19925 0.81944 0.85108 0.0
C335 C 0.17743 0.79837 0.8915 0.0
C336 C 0.1994 0.81416 0.77668 0.0
C337 C 0.2468 0.86603 0.84213 0.0
C338 C 0.19768 0.83225 0.72771 0.0
C339 C 0.20096 0.82848 0.658 0.0
C340 C 0.20622 0.80668 0.63644 0.0
C341 C 0.20655 0.78785 0.68558 0.0
C342 C 0.20308 0.79151 0.75482 0.0
H343 H 0.26483 0.88109 0.87503 0.0
H344 H 0.25488 0.85625 0.8048 0.0
H345 H 0.23906 0.87842 0.81292 0.0
H346 H 0.19453 0.84968 0.74354 0.0
H347 H 0.20061 0.84333 0.62144 0.0
H348 H 0.36294 0.11875 0.61346 0.0
H349 H 0.34075 0.06734 0.59529 0.0
H350 H 0.41347 0.08042 0.47604 0.0
H351 H 0.43549 0.13204 0.49228 0.0
H352 H 0.36507 0.04474 0.41275 0.0
H353 H 0.35726 0.00985 0.68148 0.0
H354 H 0.34038 0.03082 0.66869 0.0
H355 H 0.37835 0.04681 0.65637 0.0
C356 C 0.3744 0.11072 0.58398 0.0
C357 C 0.40105 0.12958 0.55438 0.0
C358 C 0.36173 0.08124 0.57398 0.0
C359 C 0.37562 0.06989 0.53525 0.0
C360 C 0.40237 0.08864 0.50634 0.0
H361 H 0.31241 0.88611 0.52174 0.0
H362 H 0.34195 0.93773 0.53815 0.0
C363 C 0.41496 0.11816 0.51576 0.0
C364 C 0.36157 0.03866 0.52189 0.0
H365 H 0.32888 0.97346 0.60021 0.0
C366 C 0.35741 0.02917 0.45379 0.0
C367 C 0.35194 0.01827 0.57533 0.0
C368 C 0.35748 0.02695 0.64953 0.0
C369 C 0.3432 0.99993 0.43766 0.0
C370 C 0.33213 0.97955 0.49106 0.0
C371 C 0.33704 0.98903 0.55918 0.0
C372 C 0.31502 0.94831 0.47763 0.0
C373 C 0.34051 0.99125 0.36352 0.0
C374 C 0.29002 0.93701 0.4381 0.0
C375 C 0.27326 0.90753 0.42801 0.0
C376 C 0.28083 0.88864 0.4583 0.0
C377 C 0.30593 0.90002 0.4977 0.0
C378 C 0.32283 0.92954 0.50723 0.0
H379 H 0.35759 1.00834 0.33193 0.0
H380 H 0.34156 0.97138 0.35714 0.0
H381 H 0.31967 0.9874 0.34353 0.0
H382 H 0.28309 0.95093 0.41623 0.0
H383 H 0.25394 0.89953 0.39791 0.0
H384 H 0.37491 0.26132 0.53485 0.0
H385 H 0.352 0.29012 0.55077 0.0
H386 H 0.4007 0.32589 0.73513 0.0
H387 H 0.42422 0.29777 0.71873 0.0
H388 H 0.31845 0.28791 0.65409 0.0
H389 H 0.41226 0.39699 0.64003 0.0
H390 H 0.41382 0.36575 0.61413 0.0
H391 H 0.41628 0.37518 0.7031 0.0
C392 C 0.38102 0.27557 0.57836 0.0
C393 C 0.40147 0.27725 0.62543 0.0
C394 C 0.36787 0.29201 0.58743 0.0
C395 C 0.37487 0.31048 0.64367 0.0
C396 C 0.39543 0.31236 0.69044 0.0
H397 H 0.26437 0.37069 0.80713 0.0
H398 H 0.29248 0.34719 0.78864 0.0
C399 C 0.40876 0.2961 0.68115 0.0
C400 C 0.35945 0.32645 0.65543 0.0
H401 H 0.36904 0.39316 0.68233 0.0
C402 C 0.32952 0.31094 0.6599 0.0
C403 C 0.37385 0.35655 0.66226 0.0
C404 C 0.4058 0.37463 0.65395 0.0
C405 C 0.31363 0.3246 0.67191 0.0
C406 C 0.32809 0.35457 0.68152 0.0
C407 C 0.35799 0.37015 0.67595 0.0
C408 C 0.31247 0.37016 0.69555 0.0
C409 C 0.28145 0.3068 0.67274 0.0
C410 C 0.31533 0.39184 0.65115 0.0
C411 C 0.29959 0.4056 0.66209 0.0
C412 C 0.28059 0.39794 0.71766 0.0
C413 C 0.27853 0.3769 0.76339 0.0
C414 C 0.29445 0.3633 0.75266 0.0
H415 H 0.27375 0.28611 0.6459 0.0
H416 H 0.27393 0.30207 0.72646 0.0
H417 H 0.27159 0.31834 0.64833 0.0
H418 H 0.32925 0.39764 0.60701 0.0
H419 H 0.30178 0.42175 0.62591 0.0
H420 H 0.88929 0.29754 0.791 0.0
H421 H 0.94086 0.32516 0.7722 0.0
H422 H 0.9547 0.28912 0.95488 0.0
H423 H 0.90312 0.26089 0.97332 0.0
H424 H 0.98506 0.36532 0.84763 0.0
H425 H 0.9972 0.27014 0.81278 0.0
H426 H 0.96277 0.2679 0.81471 0.0
H427 H 0.98129 0.27041 0.89309 0.0
C428 C 0.90327 0.29554 0.82742 0.0
C429 C 0.892 0.27672 0.88329 0.0
C430 C 0.93278 0.31137 0.81655 0.0
C431 C 0.95163 0.30876 0.86129 0.0
C432 C 0.94053 0.29091 0.91866 0.0
H433 H 0.13568 0.42083 0.88521 0.0
H434 H 0.08402 0.39726 0.90138 0.0
C435 C 0.91102 0.27491 0.92935 0.0
C436 C 0.98284 0.32443 0.84736 0.0
H437 H 0.04 0.31492 0.82088 0.0
C438 C 0.99708 0.35432 0.84156 0.0
C439 C 0.99843 0.31001 0.83818 0.0
C440 C 0.98413 0.27784 0.83929 0.0
C441 C 0.02655 0.37021 0.8281 0.0
C442 C 0.04233 0.35587 0.82169 0.0
C443 C 0.02798 0.32595 0.82637 0.0
C444 C 0.07372 0.37133 0.81008 0.0
C445 C 0.04034 0.40215 0.81957 0.0
C446 C 0.08525 0.36429 0.75401 0.0
C447 C 0.11483 0.37746 0.74508 0.0
C448 C 0.13355 0.39798 0.79211 0.0
C449 C 0.12192 0.40531 0.84767 0.0
C450 C 0.09233 0.39196 0.85682 0.0
H451 H 0.02443 0.40856 0.80545 0.0
H452 H 0.05025 0.41271 0.86868 0.0
H453 H 0.05726 0.41013 0.7798 0.0
H454 H 0.07132 0.34837 0.71738 0.0
H455 H 0.12302 0.37133 0.70167 0.0
H456 H 0.59012 0.88604 0.99428 0.0
H457 H 0.61282 0.93764 0.97655 0.0
H458 H 0.6857 0.95014 0.09394 0.0
H459 H 0.66281 0.89874 0.11372 0.0
H460 H 0.67154 0.98952 0.12549 0.0
H461 H 0.67659 0.98256 0.84353 0.0
H462 H 0.64097 0.96269 0.8769 0.0
H463 H 0.66688 0.95235 0.8987 0.0
C464 C 0.61094 0.89978 0.01655 0.0
C465 C 0.62474 0.8882 0.05493 0.0
C466 C 0.62399 0.92928 1.00594 0.0
C467 C 0.65129 0.94775 0.03248 0.0
C468 C 0.66471 0.93632 0.07254 0.0
H469 H 0.77264 0.1188 0.89974 0.0
H470 H 0.74416 0.06745 0.92001 0.0
C471 C 0.65157 0.90688 0.08381 0.0
C472 C 0.66607 0.97897 0.0184 0.0
H473 H 0.69052 0.02823 0.88953 0.0
C474 C 0.67568 0.998 0.07389 0.0
C475 C 0.67187 0.99004 0.95103 0.0
C476 C 0.66381 0.97088 0.88912 0.0
C477 C 0.69091 0.02772 0.06398 0.0
C478 C 0.69598 0.03879 0.99661 0.0
C479 C 0.68635 0.01977 0.94114 0.0
C480 C 0.71244 0.07 0.98247 0.0
C481 C 0.70224 0.04688 0.12583 0.0
C482 C 0.70377 0.08856 0.00945 0.0
C483 C 0.72022 0.11804 0.99854 0.0
C484 C 0.74542 0.12952 0.95943 0.0
C485 C 0.7534 0.11075 0.9302 0.0
C486 C 0.73712 0.08133 0.94175 0.0
H487 H 0.70345 0.03519 0.17124 0.0
H488 H 0.72383 0.06538 0.11589 0.0
H489 H 0.68768 0.05514 0.13855 0.0
H490 H 0.68438 0.08028 0.03937 0.0
H491 H 0.71327 0.13185 0.02114 0.0
H492 H 0.76046 0.6465 0.31076 0.0
H493 H 0.73158 0.66928 0.29437 0.0
H494 H 0.69618 0.62045 0.10998 0.0
H495 H 0.72441 0.59706 0.12682 0.0
H496 H 0.73392 0.70275 0.19074 0.0
H497 H 0.62486 0.60884 0.20453 0.0
H498 H 0.6561 0.60737 0.23078 0.0
H499 H 0.64684 0.60488 0.14172 0.0
C500 C 0.74628 0.64034 0.26712 0.0
C501 C 0.74475 0.6199 0.22017 0.0
C502 C 0.72979 0.65341 0.25779 0.0
C503 C 0.71141 0.64635 0.2014 0.0
C504 C 0.70965 0.62578 0.15476 0.0
H505 H 0.65107 0.75683 0.03856 0.0
H506 H 0.6745 0.72864 0.05651 0.0
C507 C 0.72597 0.61253 0.1643 0.0
C508 C 0.69541 0.66173 0.18941 0.0
H509 H 0.62867 0.65208 0.1627 0.0
C510 C 0.71089 0.69166 0.18494 0.0
C511 C 0.66531 0.64731 0.18258 0.0
C512 C 0.64726 0.61535 0.19083 0.0
C513 C 0.69721 0.70753 0.17302 0.0
C514 C 0.66723 0.69305 0.16352 0.0
C515 C 0.65168 0.66314 0.16902 0.0
C516 C 0.65161 0.70866 0.14972 0.0
C517 C 0.71498 0.73971 0.17223 0.0
C518 C 0.63001 0.70584 0.19435 0.0
C519 C 0.61628 0.72165 0.18374 0.0
C520 C 0.62393 0.74066 0.12825 0.0
C521 C 0.64488 0.74267 0.08225 0.0
C522 C 0.65844 0.72669 0.09267 0.0
H523 H 0.7357 0.74743 0.1989 0.0
H524 H 0.71965 0.74723 0.11851 0.0
H525 H 0.70345 0.74955 0.19682 0.0
H526 H 0.62424 0.69192 0.23846 0.0
H527 H 0.60021 0.71949 0.2201 0.0
H528 H 0.90325 0.65822 0.23377 0.0
H529 H 0.95463 0.68032 0.25191 0.0
H530 H 0.94126 0.60832 0.37443 0.0
H531 H 0.88964 0.58641 0.35822 0.0
H532 H 0.97727 0.65706 0.43589 0.0
H533 H 1.01169 0.6628 0.16733 0.0
H534 H 0.99091 0.67996 0.17892 0.0
H535 H 0.97475 0.64207 0.1929 0.0
C536 C 0.9112 0.64689 0.264 0.0
C537 C 0.89226 0.62049 0.29447 0.0
C538 C 0.94067 0.65951 0.27398 0.0
C539 C 0.95194 0.64579 0.31355 0.0
C540 C 0.93311 0.61928 0.34344 0.0
H541 H 0.13582 0.7092 0.32602 0.0
H542 H 0.08418 0.67946 0.31034 0.0
C543 C 0.90359 0.60676 0.33404 0.0
C544 C 0.98318 0.65979 0.32667 0.0
H545 H 0.04825 0.69187 0.24765 0.0
C546 C 0.99278 0.66441 0.39469 0.0
C547 C 1.00348 0.66901 0.27306 0.0
C548 C 0.99468 0.66294 0.19901 0.0
C549 C 0.02205 0.67871 0.41052 0.0
C550 C 0.04235 0.68941 0.35686 0.0
C551 C 0.03274 0.68401 0.28887 0.0
C552 C 0.0736 0.70666 0.36988 0.0
C553 C 0.03084 0.68189 0.48463 0.0
C554 C 0.08493 0.73189 0.40858 0.0
C555 C 0.11442 0.74877 0.41828 0.0
C556 C 0.1333 0.74108 0.38837 0.0
C557 C 0.12191 0.71577 0.34973 0.0
C558 C 0.09238 0.69875 0.34064 0.0
H559 H 0.01382 0.66498 0.51671 0.0
H560 H 0.05075 0.68096 0.49126 0.0
H561 H 0.03464 0.70283 0.50383 0.0
H562 H 0.07101 0.7389 0.43012 0.0
H563 H 0.12242 0.76824 0.44777 0.0
H564 H 0.53608 0.28235 0.45393 0.0
H565 H 0.57727 0.32682 0.41488 0.0
H566 H 0.54557 0.37522 0.52138 0.0
H567 H 0.50452 0.33086 0.56187 0.0
H568 H 0.58168 0.37142 0.33822 0.0
H569 H 0.62602 0.40833 0.59817 0.0
H570 H 0.59772 0.37239 0.58116 0.0
H571 H 0.58998 0.40102 0.58769 0.0
C572 C 0.53775 0.30243 0.46891 0.0
C573 C 0.51711 0.30301 0.51171 0.0
C574 C 0.56133 0.32784 0.44649 0.0
C575 C 0.56479 0.35434 0.46633 0.0
C576 C 0.54369 0.35502 0.50683 0.0
H577 H 0.69092 0.51646 0.2814 0.0
H578 H 0.64645 0.47539 0.32142 0.0
C579 C 0.52014 0.32961 0.52957 0.0
C580 C 0.59066 0.38115 0.44511 0.0
H581 H 0.64946 0.44049 0.50705 0.0
C582 C 0.59648 0.38658 0.37508 0.0
C583 C 0.61015 0.40068 0.49337 0.0
C584 C 0.60588 0.39528 0.5693 0.0
C585 C 0.62122 0.41101 0.35192 0.0
C586 C 0.64038 0.43086 0.40015 0.0
C587 C 0.63459 0.42541 0.47019 0.0
C588 C 0.66722 0.45673 0.37902 0.0
C589 C 0.62705 0.41488 0.27608 0.0
C590 C 0.69367 0.4605 0.40039 0.0
C591 C 0.71913 0.48409 0.37824 0.0
C592 C 0.71866 0.50442 0.33418 0.0
C593 C 0.69209 0.50108 0.31472 0.0
C594 C 0.66662 0.47751 0.33719 0.0
H595 H 0.61426 0.39457 0.24765 0.0
H596 H 0.62126 0.43057 0.25638 0.0
H597 H 0.65002 0.42314 0.26514 0.0
H598 H 0.69462 0.44481 0.43303 0.0
H599 H 0.73916 0.486 0.39447 0.0
H600 H 0.18281 0.50151 0.73118 0.0
H601 H 0.17884 0.54211 0.69004 0.0
H602 H 0.2576 0.57296 0.57809 0.0
H603 H 0.26154 0.53226 0.61789 0.0
H604 H 0.21612 0.5989 0.71287 0.0
H605 H 0.20516 0.57654 0.43479 0.0
H606 H 0.20076 0.55013 0.49747 0.0
H607 H 0.23593 0.57717 0.47117 0.0
C608 C 0.19914 0.51674 0.69717 0.0
C609 C 0.22249 0.51358 0.67783 0.0
C610 C 0.19684 0.53996 0.6738 0.0
C611 C 0.21774 0.56039 0.63038 0.0
C612 C 0.2409 0.55714 0.61039 0.0
H613 H 0.26184 0.73554 0.56188 0.0
H614 H 0.25785 0.69096 0.60241 0.0
C615 C 0.24318 0.5339 0.63353 0.0
C616 C 0.21612 0.58586 0.60882 0.0
H617 H 0.21586 0.62332 0.46864 0.0
C618 C 0.21582 0.60413 0.65947 0.0
C619 C 0.21537 0.59248 0.53917 0.0
C620 C 0.21403 0.57291 0.4825 0.0
C621 C 0.2156 0.62924 0.64234 0.0
C622 C 0.2162 0.63653 0.57268 0.0
C623 C 0.21568 0.61786 0.52204 0.0
C624 C 0.21781 0.66361 0.55103 0.0
C625 C 0.21451 0.64761 0.69901 0.0
C626 C 0.19682 0.66309 0.50794 0.0
C627 C 0.19913 0.68856 0.48418 0.0
C628 C 0.22262 0.71509 0.50276 0.0
C629 C 0.2434 0.71553 0.54682 0.0
C630 C 0.24109 0.69004 0.57037 0.0
H631 H 0.20578 0.63522 0.74694 0.0
H632 H 0.23646 0.66524 0.7098 0.0
H633 H 0.20122 0.65714 0.68432 0.0
H634 H 0.17873 0.64293 0.49221 0.0
H635 H 0.18272 0.6874 0.4504 0.0
H636 H 0.73878 0.25793 0.78527 0.0
H637 H 0.69421 0.25462 0.74714 0.0
H638 H 0.64612 0.17555 0.85768 0.0
H639 H 0.69061 0.17891 0.89726 0.0
H640 H 0.64913 0.21395 0.67283 0.0
H641 H 0.61379 0.2239 0.93284 0.0
H642 H 0.64957 0.23118 0.91508 0.0
H643 H 0.62085 0.19496 0.92344 0.0
C644 C 0.71875 0.23974 0.80134 0.0
C645 C 0.71831 0.21884 0.84498 0.0
C646 C 0.69328 0.2379 0.77945 0.0
C647 C 0.66685 0.21514 0.80067 0.0
C648 C 0.66628 0.19366 0.84205 0.0
H649 H 0.50418 0.17857 0.61887 0.0
H650 H 0.54519 0.17517 0.65923 0.0
C651 C 0.69176 0.19553 0.86426 0.0
C652 C 0.64 0.21419 0.77983 0.0
H653 H 0.58122 0.21469 0.84243 0.0
C654 C 0.63423 0.21403 0.70986 0.0
C655 C 0.62081 0.21473 0.8283 0.0
C656 C 0.62661 0.21647 0.90411 0.0
C657 C 0.60977 0.21435 0.68696 0.0
C658 C 0.59026 0.21424 0.73544 0.0
C659 C 0.59605 0.21445 0.80541 0.0
C660 C 0.56437 0.2152 0.7145 0.0
C661 C 0.60552 0.21569 0.6111 0.0
C662 C 0.56092 0.23822 0.73454 0.0
C663 C 0.53736 0.2401 0.71218 0.0
C664 C 0.51676 0.21896 0.66925 0.0
C665 C 0.51978 0.19539 0.65127 0.0
C666 C 0.5433 0.19348 0.67394 0.0
H667 H 0.62566 0.22283 0.58212 0.0
H668 H 0.58962 0.1941 0.59249 0.0
H669 H 0.59736 0.23044 0.59963 0.0
H670 H 0.57684 0.25512 0.76621 0.0
H671 H 0.53569 0.2585 0.72726 0.0
H672 H 0.48968 0.73549 0.95416 0.0
H673 H 0.44856 0.69105 0.91485 0.0
H674 H 0.47971 0.64258 0.02303 0.0
H675 H 0.52069 0.68692 0.06376 0.0
H676 H 0.44433 0.64626 0.83894 0.0
H677 H 0.39901 0.60987 0.0985 0.0
H678 H 0.42743 0.64576 0.08142 0.0
H679 H 0.43505 0.61708 0.08882 0.0
C680 C 0.4879 0.71541 0.96946 0.0
C681 C 0.50835 0.71481 0.01281 0.0
C682 C 0.46436 0.69001 0.94688 0.0
C683 C 0.46078 0.66351 0.96712 0.0
C684 C 0.4817 0.6628 1.00815 0.0
H685 H 0.33481 0.50137 0.78247 0.0
H686 H 0.37923 0.54232 0.82298 0.0
C687 C 0.5052 0.68819 0.03104 0.0
C688 C 0.43493 0.63672 0.9458 0.0
H689 H 0.37574 0.57766 1.00744 0.0
C690 C 0.42936 0.63121 0.87573 0.0
C691 C 0.41522 0.61733 0.99395 0.0
C692 C 0.41925 0.62284 0.06988 0.0
C693 C 0.40463 0.60681 0.85244 0.0
C694 C 0.38524 0.5871 0.90059 0.0
C695 C 0.39079 0.59264 0.97066 0.0
C696 C 0.35841 0.56129 0.87929 0.0
C697 C 0.39908 0.60283 0.77653 0.0
C698 C 0.33194 0.55774 0.89982 0.0
C699 C 0.30651 0.53422 0.87739 0.0
C700 C 0.30703 0.51375 0.83389 0.0
C701 C 0.33361 0.51687 0.81533 0.0
C702 C 0.35905 0.54036 0.83808 0.0
H703 H 0.41206 0.62307 0.74796 0.0
H704 H 0.4048 0.587 0.75741 0.0
H705 H 0.37616 0.59468 0.7651 0.0
H706 H 0.33097 0.57355 0.932 0.0
H707 H 0.28646 0.53246 0.89293 0.0
H708 H 0.77628 0.49696 0.09257 0.0
H709 H 0.77893 0.45549 0.0524 0.0
H710 H 0.83284 0.46375 0.2235 0.0
H711 H 0.8312 0.50584 0.26246 0.0
H712 H 0.85134 0.45078 0.11172 0.0
H713 H 0.73474 0.37723 0.13349 0.0
H714 H 0.74328 0.40649 0.07684 0.0
H715 H 0.75191 0.41319 0.1663 0.0
C716 C 0.78883 0.49003 0.12142 0.0
C717 C 0.80331 0.50455 0.18104 0.0
C718 C 0.79014 0.46617 0.0987 0.0
C719 C 0.80544 0.45599 0.13595 0.0
C720 C 0.82071 0.47105 0.19417 0.0
H721 H 0.77655 0.28333 0.08866 0.0
H722 H 0.78005 0.32741 0.13212 0.0
C723 C 0.81976 0.49515 0.21636 0.0
C724 C 0.8054 0.42955 0.11476 0.0
H725 H 0.76136 0.35908 0.0771 0.0
C726 C 0.83167 0.43069 0.10445 0.0
C727 C 0.77975 0.40316 0.10669 0.0
C728 C 0.75085 0.3998 0.12211 0.0
C729 C 0.83299 0.40633 0.08519 0.0
C730 C 0.80731 0.38029 0.07378 0.0
C731 C 0.78107 0.37907 0.08516 0.0
C732 C 0.80699 0.35402 0.04977 0.0
C733 C 0.86193 0.4087 0.07881 0.0
C734 C 0.82105 0.35425 0.98918 0.0
C735 C 0.81945 0.32917 0.96484 0.0
C736 C 0.80318 0.30317 0.99976 0.0
C737 C 0.7892 0.30299 0.06052 0.0
C738 C 0.79116 0.32817 0.08536 0.0
H739 H 0.87818 0.42652 0.11035 0.0
H740 H 0.8612 0.38862 0.09466 0.0
H741 H 0.86905 0.41316 0.02478 0.0
H742 H 0.8327 0.37368 0.95966 0.0
H743 H 0.83021 0.33001 0.91746 0.0
H744 H 0.52063 0.83882 0.11699 0.0
H745 H 0.47991 0.84263 0.15794 0.0
H746 H 0.449 0.76373 0.26916 0.0
H747 H 0.48983 0.75994 0.22951 0.0
H748 H 0.42315 0.80523 0.13447 0.0
H749 H 0.44504 0.81595 0.41277 0.0
H750 H 0.47158 0.8205 0.35027 0.0
H751 H 0.44455 0.78526 0.37614 0.0
C752 C 0.50537 0.82242 0.15081 0.0
C753 C 0.50855 0.79907 0.16998 0.0
C754 C 0.48207 0.82463 0.17406 0.0
C755 C 0.46158 0.80364 0.21721 0.0
C756 C 0.46485 0.78049 0.23706 0.0
H757 H 0.28632 0.75985 0.2846 0.0
H758 H 0.33087 0.76362 0.24443 0.0
C759 C 0.48817 0.77829 0.21402 0.0
C760 C 0.43603 0.80518 0.23861 0.0
H761 H 0.39838 0.80542 0.37854 0.0
C762 C 0.41784 0.8055 0.18784 0.0
C763 C 0.42931 0.80589 0.30821 0.0
C764 C 0.44878 0.80717 0.36501 0.0
C765 C 0.39271 0.80574 0.2048 0.0
C766 C 0.38534 0.80515 0.27441 0.0
C767 C 0.40392 0.80561 0.32517 0.0
C768 C 0.35827 0.80364 0.29588 0.0
C769 C 0.37444 0.80688 0.148 0.0
C770 C 0.35883 0.82469 0.33888 0.0
C771 C 0.33337 0.8225 0.36243 0.0
C772 C 0.30681 0.79908 0.34372 0.0
C773 C 0.30635 0.77824 0.29975 0.0
C774 C 0.33182 0.78043 0.27641 0.0
H775 H 0.38689 0.81555 0.10011 0.0
H776 H 0.35677 0.78494 0.1372 0.0
H777 H 0.36496 0.82022 0.16258 0.0
H778 H 0.37901 0.84274 0.35471 0.0
H779 H 0.33456 0.83896 0.39615 0.0
loop_
_geom_bond_atom_site_label_1
_geom_bond_atom_site_label_2
_geom_bond_distance
_geom_bond_site_symmetry_2
_ccdc_geom_bond_type
Fe0 O2 1.918 . S
Fe0 O5 1.997 . S
Fe0 O6 2.002 . S
Fe0 O11 1.976 . S
Fe0 O14 1.996 . S
Fe1 O2 1.918 . S
Fe1 O9 1.997 . S
Fe1 O12 1.996 . S
Fe1 O16 1.976 . S
Fe1 O19 2.002 . S
O2 Fe0 1.918 . S
O2 Fe1 1.918 . S
O2 Fe3 1.918 . S
Fe3 O2 1.918 . S
Fe3 O4 2.002 . S
Fe3 O13 1.976 . S
Fe3 O17 1.996 . S
Fe3 O20 1.997 . S
O4 Fe3 2.002 . S
O4 C21 1.295 . S
O5 Fe0 1.997 . S
O5 C21 1.235 . S
O6 Fe0 2.002 . S
O6 C7 1.295 . S
C7 O6 1.295 . S
C7 O9 1.235 . S
C8 O13 1.287 . S
C8 O14 1.255 . S
O9 Fe1 1.997 . S
O9 C7 1.235 . S
C10 O16 1.287 . S
C10 O17 1.255 . S
O11 Fe0 1.976 . S
O11 C18 1.287 . S
O12 Fe1 1.996 . S
O12 C18 1.255 . S
O13 Fe3 1.976 . S
O13 C8 1.287 . S
O14 Fe0 1.996 . S
O14 C8 1.255 . S
C15 O19 1.295 . S
C15 O20 1.235 . S
O16 Fe1 1.976 . S
O16 C10 1.287 . S
O17 Fe3 1.996 . S
O17 C10 1.255 . S
C18 O11 1.287 . S
C18 O12 1.255 . S
O19 Fe1 2.002 . S
O19 C15 1.295 . S
O20 Fe3 1.997 . S
O20 C15 1.235 . S
C21 O4 1.295 . S
C21 O5 1.235 . S
Fe22 O24 1.918 . S
Fe22 O27 1.997 . S
Fe22 O28 2.002 . S
Fe22 O33 1.976 . S
Fe22 O36 1.996 . S
Fe23 O24 1.918 . S
Fe23 O31 1.997 . S
Fe23 O34 1.996 . S
Fe23 O38 1.976 . S
Fe23 O41 2.002 . S
O24 Fe22 1.918 . S
O24 Fe23 1.918 . S
O24 Fe25 1.918 . S
Fe25 O24 1.918 . S
Fe25 O26 2.002 . S
Fe25 O35 1.976 . S
Fe25 O39 1.996 . S
Fe25 O42 1.997 . S
O26 Fe25 2.002 . S
O26 C43 1.295 . S
O27 Fe22 1.997 . S
O27 C43 1.235 . S
O28 Fe22 2.002 . S
O28 C29 1.295 . S
C29 O28 1.295 . S
C29 O31 1.235 . S
C30 O35 1.287 . S
C30 O36 1.255 . S
O31 Fe23 1.997 . S
O31 C29 1.235 . S
C32 O38 1.287 . S
C32 O39 1.255 . S
O33 Fe22 1.976 . S
O33 C40 1.287 . S
O34 Fe23 1.996 . S
O34 C40 1.255 . S
O35 Fe25 1.976 . S
O35 C30 1.287 . S
O36 Fe22 1.996 . S
O36 C30 1.255 . S
C37 O41 1.295 . S
C37 O42 1.235 . S
O38 Fe23 1.976 . S
O38 C32 1.287 . S
O39 Fe25 1.996 . S
O39 C32 1.255 . S
C40 O33 1.287 . S
C40 O34 1.255 . S
O41 Fe23 2.002 . S
O41 C37 1.295 . S
O42 Fe25 1.997 . S
O42 C37 1.235 . S
C43 O26 1.295 . S
C43 O27 1.235 . S
Fe44 O46 1.918 . S
Fe44 O49 1.997 1_556 S
Fe44 O50 2.002 . S
Fe44 O55 1.976 . S
Fe44 O58 1.996 . S
Fe45 O46 1.918 . S
Fe45 O53 1.997 . S
Fe45 O56 1.996 . S
Fe45 O60 1.976 . S
Fe45 O63 2.002 . S
O46 Fe44 1.918 . S
O46 Fe45 1.918 . S
O46 Fe47 1.918 . S
Fe47 O46 1.918 . S
Fe47 O48 2.002 1_556 S
Fe47 O57 1.976 . S
Fe47 O61 1.996 . S
Fe47 O64 1.998 . S
O48 Fe47 2.002 1_554 S
O48 C65 1.295 . S
O49 Fe44 1.997 1_554 S
O49 C65 1.235 . S
O50 Fe44 2.002 . S
O50 C51 1.295 . S
C51 O50 1.295 . S
C51 O53 1.235 . S
C52 O57 1.287 . S
C52 O58 1.255 . S
O53 Fe45 1.997 . S
O53 C51 1.235 . S
C54 O60 1.287 . S
C54 O61 1.255 . S
O55 Fe44 1.976 . S
O55 C62 1.287 . S
O56 Fe45 1.996 . S
O56 C62 1.255 . S
O57 Fe47 1.976 . S
O57 C52 1.287 . S
O58 Fe44 1.996 . S
O58 C52 1.255 . S
C59 O63 1.295 . S
C59 O64 1.237 . S
O60 Fe45 1.976 . S
O60 C54 1.287 . S
O61 Fe47 1.996 . S
O61 C54 1.255 . S
C62 O55 1.287 . S
C62 O56 1.255 . S
O63 Fe45 2.002 . S
O63 C59 1.295 . S
O64 Fe47 1.998 . S
O64 C59 1.237 . S
C65 O48 1.295 . S
C65 O49 1.235 . S
Fe66 O68 1.918 . S
Fe66 O71 1.997 . S
Fe66 O72 2.002 . S
Fe66 O77 1.976 1_554 S
Fe66 O80 1.996 . S
Fe67 O68 1.918 . S
Fe67 O75 1.997 . S
Fe67 O78 1.996 1_554 S
Fe67 O82 1.976 1_554 S
Fe67 O85 2.002 . S
O68 Fe66 1.918 . S
O68 Fe67 1.918 . S
O68 Fe69 1.918 . S
Fe69 O68 1.918 . S
Fe69 O70 2.002 . S
Fe69 O79 1.976 . S
Fe69 O83 1.996 . S
Fe69 O86 1.997 . S
O70 Fe69 2.002 . S
O70 C87 1.295 . S
O71 Fe66 1.997 . S
O71 C87 1.235 . S
O72 Fe66 2.002 . S
O72 C73 1.295 . S
C73 O72 1.295 . S
C73 O75 1.235 . S
C74 O79 1.287 . S
C74 O80 1.255 . S
O75 Fe67 1.997 . S
O75 C73 1.235 . S
C76 O82 1.287 1_554 S
C76 O83 1.255 . S
O77 Fe66 1.976 1_556 S
O77 C84 1.287 . S
O78 Fe67 1.996 1_556 S
O78 C84 1.255 . S
O79 Fe69 1.976 . S
O79 C74 1.287 . S
O80 Fe66 1.996 . S
O80 C74 1.255 . S
C81 O85 1.295 . S
C81 O86 1.235 . S
O82 Fe67 1.976 1_556 S
O82 C76 1.287 1_556 S
O83 Fe69 1.996 . S
O83 C76 1.255 . S
C84 O77 1.287 . S
C84 O78 1.255 . S
O85 Fe67 2.002 . S
O85 C81 1.295 . S
O86 Fe69 1.997 . S
O86 C81 1.235 . S
C87 O70 1.295 . S
C87 O71 1.235 . S
Fe88 O90 1.918 . S
Fe88 O93 1.997 . S
Fe88 O94 2.002 . S
Fe88 O99 1.976 . S
Fe88 O102 1.996 . S
Fe89 O90 1.918 . S
Fe89 O97 1.997 . S
Fe89 O100 1.996 . S
Fe89 O104 1.976 . S
Fe89 O107 2.002 . S
O90 Fe88 1.918 . S
O90 Fe89 1.918 . S
O90 Fe91 1.918 . S
Fe91 O90 1.918 . S
Fe91 O92 2.002 . S
Fe91 O101 1.976 . S
Fe91 O105 1.996 . S
Fe91 O108 1.997 . S
O92 Fe91 2.002 . S
O92 C109 1.295 . S
O93 Fe88 1.997 . S
O93 C109 1.235 . S
O94 Fe88 2.002 . S
O94 C95 1.295 . S
C95 O94 1.295 . S
C95 O97 1.235 . S
C96 O101 1.287 . S
C96 O102 1.255 . S
O97 Fe89 1.997 . S
O97 C95 1.235 . S
C98 O104 1.287 . S
C98 O105 1.255 . S
O99 Fe88 1.976 . S
O99 C106 1.287 . S
O100 Fe89 1.996 . S
O100 C106 1.255 . S
O101 Fe91 1.976 . S
O101 C96 1.287 . S
O102 Fe88 1.996 . S
O102 C96 1.255 . S
C103 O107 1.295 . S
C103 O108 1.235 . S
O104 Fe89 1.976 . S
O104 C98 1.287 . S
O105 Fe91 1.996 . S
O105 C98 1.255 . S
C106 O99 1.287 . S
C106 O100 1.255 . S
O107 Fe89 2.002 . S
O107 C103 1.295 . S
O108 Fe91 1.997 . S
O108 C103 1.235 . S
C109 O92 1.295 . S
C109 O93 1.235 . S
Fe110 O112 1.918 . S
Fe110 O115 1.997 . S
Fe110 O116 2.002 . S
Fe110 O121 1.976 . S
Fe110 O124 1.996 . S
Fe111 O112 1.918 . S
Fe111 O119 1.997 . S
Fe111 O122 1.996 . S
Fe111 O126 1.976 . S
Fe111 O129 2.002 . S
O112 Fe110 1.918 . S
O112 Fe111 1.918 . S
O112 Fe113 1.918 . S
Fe113 O112 1.918 . S
Fe113 O114 2.002 . S
Fe113 O123 1.976 . S
Fe113 O127 1.996 . S
Fe113 O130 1.997 . S
O114 Fe113 2.002 . S
O114 C131 1.295 . S
O115 Fe110 1.997 . S
O115 C131 1.235 . S
O116 Fe110 2.002 . S
O116 C117 1.295 . S
C117 O116 1.295 . S
C117 O119 1.235 . S
C118 O123 1.287 . S
C118 O124 1.255 . S
O119 Fe111 1.997 . S
O119 C117 1.235 . S
C120 O126 1.287 . S
C120 O127 1.255 . S
O121 Fe110 1.976 . S
O121 C128 1.287 . S
O122 Fe111 1.996 . S
O122 C128 1.255 . S
O123 Fe113 1.976 . S
O123 C118 1.287 . S
O124 Fe110 1.996 . S
O124 C118 1.255 . S
C125 O129 1.295 . S
C125 O130 1.235 . S
O126 Fe111 1.976 . S
O126 C120 1.287 . S
O127 Fe113 1.996 . S
O127 C120 1.255 . S
C128 O121 1.287 . S
C128 O122 1.255 . S
O129 Fe111 2.002 . S
O129 C125 1.295 . S
O130 Fe113 1.997 . S
O130 C125 1.235 . S
C131 O114 1.295 . S
C131 O115 1.235 . S
H132 C140 0.929 . S
H133 C142 0.930 . S
H134 C144 0.930 . S
H135 C147 0.929 . S
H136 C150 0.930 . S
H137 C152 0.960 . S
H138 C152 0.960 . S
H139 C152 0.960 . S
C140 H132 0.929 . S
C140 C141 1.377 . S
C140 C142 1.384 . S
C141 C140 1.377 . S
C141 C147 1.390 . S
C142 H133 0.930 . S
C142 C140 1.384 . S
C142 C143 1.372 . S
C143 C142 1.372 . S
C143 C144 1.400 . S
C143 C148 1.490 . S
C144 H134 0.930 . S
C144 C143 1.400 . S
C144 C147 1.386 . S
H145 C161 0.930 . S
H146 C162 0.931 . S
C147 H135 0.929 . S
C147 C141 1.390 . S
C147 C144 1.386 . S
C148 C143 1.490 . S
C148 C150 1.395 . S
C148 C151 1.403 . S
H149 C155 0.930 . S
C150 H136 0.930 . S
C150 C148 1.395 . S
C150 C153 1.403 . S
C151 C148 1.403 . S
C151 C152 1.524 . S
C151 C155 1.400 . S
C152 H137 0.960 . S
C152 H138 0.960 . S
C152 H139 0.960 . S
C152 C151 1.524 . S
C153 C150 1.403 . S
C153 C154 1.392 . S
C153 C157 1.495 . S
C154 C153 1.392 . S
C154 C155 1.385 . S
C154 C156 1.478 1_554 S
C155 H149 0.930 . S
C155 C151 1.400 . S
C155 C154 1.385 . S
C156 C154 1.478 1_556 S
C156 C158 1.381 . S
C156 C162 1.383 . S
C157 C153 1.495 . S
C157 H163 0.959 . S
C157 H164 0.961 1_554 S
C157 H165 0.960 1_554 S
C158 C156 1.381 . S
C158 C159 1.394 . S
C158 H166 0.930 . S
C159 C158 1.394 . S
C159 C160 1.383 . S
C159 H167 0.929 . S
C160 C159 1.383 . S
C160 C161 1.377 . S
C161 H145 0.930 . S
C161 C160 1.377 . S
C161 C162 1.379 . S
C162 H146 0.931 . S
C162 C156 1.383 . S
C162 C161 1.379 . S
H163 C157 0.959 . S
H164 C157 0.961 1_556 S
H165 C157 0.960 1_556 S
H166 C158 0.930 . S
H167 C159 0.929 . S
H168 C176 0.929 . S
H169 C178 0.930 . S
H170 C180 0.930 . S
H171 C183 0.929 . S
H172 C186 0.930 . S
H173 C188 0.960 . S
H174 C188 0.960 . S
H175 C188 0.960 . S
C176 H168 0.929 . S
C176 C177 1.377 . S
C176 C178 1.384 . S
C177 C176 1.377 . S
C177 C183 1.390 . S
C178 H169 0.930 . S
C178 C176 1.384 . S
C178 C179 1.372 . S
C179 C178 1.372 . S
C179 C180 1.400 . S
C179 C184 1.490 . S
C180 H170 0.930 . S
C180 C179 1.400 . S
C180 C183 1.386 . S
H181 C197 0.927 1_556 S
H182 C198 0.931 . S
C183 H171 0.929 . S
C183 C177 1.390 . S
C183 C180 1.386 . S
C184 C179 1.490 . S
C184 C186 1.395 . S
C184 C187 1.403 . S
H185 C191 0.930 . S
C186 H172 0.930 . S
C186 C184 1.395 . S
C186 C189 1.403 . S
C187 C184 1.403 . S
C187 C188 1.524 . S
C187 C191 1.400 . S
C188 H173 0.960 . S
C188 H174 0.960 . S
C188 H175 0.960 . S
C188 C187 1.524 . S
C189 C186 1.403 . S
C189 C190 1.392 . S
C189 C193 1.495 . S
C190 C189 1.392 . S
C190 C191 1.385 . S
C190 C192 1.478 . S
C191 H185 0.930 . S
C191 C187 1.400 . S
C191 C190 1.385 . S
C192 C190 1.478 . S
C192 C194 1.381 . S
C192 C198 1.383 . S
C193 C189 1.495 . S
C193 H199 0.959 . S
C193 H200 0.961 . S
C193 H201 0.960 . S
C194 C192 1.381 . S
C194 C195 1.394 1_554 S
C194 H202 0.930 . S
C195 C194 1.394 1_556 S
C195 C196 1.383 . S
C195 H203 0.929 . S
C196 C195 1.383 . S
C196 C197 1.374 1_556 S
C197 H181 0.927 1_554 S
C197 C196 1.374 1_554 S
C197 C198 1.385 . S
C198 H182 0.931 . S
C198 C192 1.383 . S
C198 C197 1.385 . S
H199 C193 0.959 . S
H200 C193 0.961 . S
H201 C193 0.960 . S
H202 C194 0.930 . S
H203 C195 0.929 . S
H204 C212 0.929 . S
H205 C214 0.930 . S
H206 C216 0.930 . S
H207 C219 0.929 . S
H208 C222 0.930 . S
H209 C224 0.960 . S
H210 C224 0.960 . S
H211 C224 0.960 . S
C212 H204 0.929 . S
C212 C213 1.377 . S
C212 C214 1.384 . S
C213 C212 1.377 . S
C213 C219 1.390 . S
C214 H205 0.930 . S
C214 C212 1.384 . S
C214 C215 1.372 . S
C215 C214 1.372 . S
C215 C216 1.400 . S
C215 C220 1.490 . S
C216 H206 0.930 . S
C216 C215 1.400 . S
C216 C219 1.386 . S
H217 C233 0.930 . S
H218 C234 0.931 . S
C219 H207 0.929 . S
C219 C213 1.390 . S
C219 C216 1.386 . S
C220 C215 1.490 . S
C220 C222 1.395 . S
C220 C223 1.403 . S
H221 C227 0.930 . S
C222 H208 0.930 . S
C222 C220 1.395 . S
C222 C225 1.403 . S
C223 C220 1.403 . S
C223 C224 1.524 . S
C223 C227 1.400 . S
C224 H209 0.960 . S
C224 H210 0.960 . S
C224 H211 0.960 . S
C224 C223 1.524 . S
C225 C222 1.403 . S
C225 C226 1.392 . S
C225 C229 1.495 . S
C226 C225 1.392 . S
C226 C227 1.385 . S
C226 C228 1.478 . S
C227 H221 0.930 . S
C227 C223 1.400 . S
C227 C226 1.385 . S
C228 C226 1.478 . S
C228 C230 1.381 . S
C228 C234 1.383 . S
C229 C225 1.495 . S
C229 H235 0.959 . S
C229 H236 0.961 . S
C229 H237 0.960 . S
C230 C228 1.381 . S
C230 C231 1.394 . S
C230 H238 0.930 . S
C231 C230 1.394 . S
C231 C232 1.383 . S
C231 H239 0.929 . S
C232 C231 1.383 . S
C232 C233 1.377 . S
C233 H217 0.930 . S
C233 C232 1.377 . S
C233 C234 1.379 . S
C234 H218 0.931 . S
C234 C228 1.383 . S
C234 C233 1.379 . S
H235 C229 0.959 . S
H236 C229 0.961 . S
H237 C229 0.960 . S
H238 C230 0.930 . S
H239 C231 0.929 . S
H240 C248 0.929 . S
H241 C250 0.930 . S
H242 C252 0.930 . S
H243 C255 0.929 . S
H244 C258 0.930 . S
H245 C260 0.960 . S
H246 C260 0.960 . S
H247 C260 0.960 . S
C248 H240 0.929 . S
C248 C249 1.377 . S
C248 C250 1.384 . S
C249 C248 1.377 . S
C249 C255 1.390 . S
C250 H241 0.930 . S
C250 C248 1.384 . S
C250 C251 1.372 . S
C251 C250 1.372 . S
C251 C252 1.400 . S
C251 C256 1.490 . S
C252 H242 0.930 . S
C252 C251 1.400 . S
C252 C255 1.386 . S
H253 C269 0.930 . S
H254 C270 0.931 . S
C255 H243 0.929 . S
C255 C249 1.390 . S
C255 C252 1.386 . S
C256 C251 1.490 . S
C256 C258 1.395 . S
C256 C259 1.403 . S
H257 C263 0.930 . S
C258 H244 0.930 . S
C258 C256 1.395 . S
C258 C261 1.403 . S
C259 C256 1.403 . S
C259 C260 1.524 . S
C259 C263 1.400 . S
C260 H245 0.960 . S
C260 H246 0.960 . S
C260 H247 0.960 . S
C260 C259 1.524 . S
C261 C258 1.403 . S
C261 C262 1.392 . S
C261 C265 1.495 . S
C262 C261 1.392 . S
C262 C263 1.385 . S
C262 C264 1.478 . S
C263 H257 0.930 . S
C263 C259 1.400 . S
C263 C262 1.385 . S
C264 C262 1.478 . S
C264 C266 1.381 . S
C264 C270 1.383 . S
C265 C261 1.495 . S
C265 H271 0.959 . S
C265 H272 0.961 . S
C265 H273 0.960 . S
C266 C264 1.381 . S
C266 C267 1.394 . S
C266 H274 0.930 . S
C267 C266 1.394 . S
C267 C268 1.383 . S
C267 H275 0.929 . S
C268 C267 1.383 . S
C268 C269 1.377 . S
C269 H253 0.930 . S
C269 C268 1.377 . S
C269 C270 1.379 . S
C270 H254 0.931 . S
C270 C264 1.383 . S
C270 C269 1.379 . S
H271 C265 0.959 . S
H272 C265 0.961 . S
H273 C265 0.960 . S
H274 C266 0.930 . S
H275 C267 0.929 . S
H276 C284 0.929 . S
H277 C286 0.930 . S
H278 C288 0.930 . S
H279 C291 0.929 . S
H280 C294 0.930 . S
H281 C296 0.960 . S
H282 C296 0.960 . S
H283 C296 0.960 . S
C284 H276 0.929 . S
C284 C285 1.377 . S
C284 C286 1.384 . S
C285 C284 1.377 . S
C285 C291 1.390 . S
C286 H277 0.930 . S
C286 C284 1.384 . S
C286 C287 1.372 . S
C287 C286 1.372 . S
C287 C288 1.400 . S
C287 C292 1.490 . S
C288 H278 0.930 . S
C288 C287 1.400 . S
C288 C291 1.386 . S
H289 C305 0.930 1_554 S
H290 C306 0.931 . S
C291 H279 0.929 . S
C291 C285 1.390 . S
C291 C288 1.386 . S
C292 C287 1.490 . S
C292 C294 1.395 . S
C292 C295 1.403 . S
H293 C299 0.930 . S
C294 H280 0.930 . S
C294 C292 1.395 . S
C294 C297 1.403 . S
C295 C292 1.403 . S
C295 C296 1.524 . S
C295 C299 1.400 . S
C296 H281 0.960 . S
C296 H282 0.960 . S
C296 H283 0.960 . S
C296 C295 1.524 . S
C297 C294 1.403 . S
C297 C298 1.392 . S
C297 C301 1.495 . S
C298 C297 1.392 . S
C298 C299 1.385 . S
C298 C300 1.478 . S
C299 H293 0.930 . S
C299 C295 1.400 . S
C299 C298 1.385 . S
C300 C298 1.478 . S
C300 C302 1.381 . S
C300 C306 1.383 . S
C301 C297 1.495 . S
C301 H307 0.959 . S
C301 H308 0.961 . S
C301 H309 0.960 . S
C302 C300 1.381 . S
C302 C303 1.394 1_556 S
C302 H310 0.930 . S
C303 C302 1.394 1_554 S
C303 C304 1.383 . S
C303 H311 0.929 . S
C304 C303 1.383 . S
C304 C305 1.377 1_554 S
C305 H289 0.930 1_556 S
C305 C304 1.377 1_556 S
C305 C306 1.379 . S
C306 H290 0.931 . S
C306 C300 1.383 . S
C306 C305 1.379 . S
H307 C301 0.959 . S
H308 C301 0.961 . S
H309 C301 0.960 . S
H310 C302 0.930 . S
H311 C303 0.929 . S
H312 C320 0.929 . S
H313 C322 0.930 . S
H314 C324 0.930 . S
H315 C327 0.929 . S
H316 C330 0.930 . S
H317 C332 0.960 . S
H318 C332 0.960 1_554 S
H319 C332 0.960 1_554 S
C320 H312 0.929 . S
C320 C321 1.377 . S
C320 C322 1.384 . S
C321 C320 1.377 . S
C321 C327 1.390 . S
C322 H313 0.930 . S
C322 C320 1.384 . S
C322 C323 1.372 . S
C323 C322 1.372 . S
C323 C324 1.400 . S
C323 C328 1.490 1_554 S
C324 H314 0.930 . S
C324 C323 1.400 . S
C324 C327 1.386 . S
H325 C341 0.930 . S
H326 C342 0.931 . S
C327 H315 0.929 . S
C327 C321 1.390 . S
C327 C324 1.386 . S
C328 C323 1.490 1_556 S
C328 C330 1.395 . S
C328 C331 1.403 . S
H329 C335 0.930 . S
C330 H316 0.930 . S
C330 C328 1.395 . S
C330 C333 1.403 . S
C331 C328 1.403 . S
C331 C332 1.524 . S
C331 C335 1.400 . S
C332 H317 0.960 . S
C332 H318 0.960 1_556 S
C332 H319 0.960 1_556 S
C332 C331 1.524 . S
C333 C330 1.403 . S
C333 C334 1.392 . S
C333 C337 1.495 . S
C334 C333 1.392 . S
C334 C335 1.385 . S
C334 C336 1.478 . S
C335 H329 0.930 . S
C335 C331 1.400 . S
C335 C334 1.385 . S
C336 C334 1.478 . S
C336 C338 1.381 . S
C336 C342 1.383 . S
C337 C333 1.495 . S
C337 H343 0.959 . S
C337 H344 0.961 . S
C337 H345 0.960 . S
C338 C336 1.381 . S
C338 C339 1.394 . S
C338 H346 0.930 . S
C339 C338 1.394 . S
C339 C340 1.383 . S
C339 H347 0.929 . S
C340 C339 1.383 . S
C340 C341 1.377 . S
C341 H325 0.930 . S
C341 C340 1.377 . S
C341 C342 1.379 . S
C342 H326 0.931 . S
C342 C336 1.383 . S
C342 C341 1.379 . S
H343 C337 0.959 . S
H344 C337 0.961 . S
H345 C337 0.960 . S
H346 C338 0.930 . S
H347 C339 0.929 . S
H348 C356 0.929 . S
H349 C358 0.930 . S
H350 C360 0.930 . S
H351 C363 0.929 . S
H352 C366 0.930 . S
H353 C368 0.960 . S
H354 C368 0.960 . S
H355 C368 0.960 . S
C356 H348 0.929 . S
C356 C357 1.377 . S
C356 C358 1.384 . S
C357 C356 1.377 . S
C357 C363 1.390 . S
C358 H349 0.930 . S
C358 C356 1.384 . S
C358 C359 1.372 . S
C359 C358 1.372 . S
C359 C360 1.400 . S
C359 C364 1.490 . S
C360 H350 0.930 . S
C360 C359 1.400 . S
C360 C363 1.386 . S
H361 C377 0.930 . S
H362 C378 0.931 . S
C363 H351 0.929 . S
C363 C357 1.390 . S
C363 C360 1.386 . S
C364 C359 1.490 . S
C364 C366 1.395 . S
C364 C367 1.403 . S
H365 C371 0.930 . S
C366 H352 0.930 . S
C366 C364 1.395 . S
C366 C369 1.403 1_545 S
C367 C364 1.403 . S
C367 C368 1.524 . S
C367 C371 1.400 1_545 S
C368 H353 0.960 . S
C368 H354 0.960 . S
C368 H355 0.960 . S
C368 C367 1.524 . S
C369 C366 1.403 1_565 S
C369 C370 1.392 . S
C369 C373 1.495 . S
C370 C369 1.392 . S
C370 C371 1.385 . S
C370 C372 1.478 . S
C371 H365 0.930 . S
C371 C367 1.400 1_565 S
C371 C370 1.385 . S
C372 C370 1.478 . S
C372 C374 1.381 . S
C372 C378 1.383 . S
C373 C369 1.495 . S
C373 H379 0.966 . S
C373 H380 0.961 . S
C373 H381 0.960 . S
C374 C372 1.381 . S
C374 C375 1.394 . S
C374 H382 0.930 . S
C375 C374 1.394 . S
C375 C376 1.383 . S
C375 H383 0.929 . S
C376 C375 1.383 . S
C376 C377 1.377 . S
C377 H361 0.930 . S
C377 C376 1.377 . S
C377 C378 1.379 . S
C378 H362 0.931 . S
C378 C372 1.383 . S
C378 C377 1.379 . S
H379 C373 0.966 . S
H380 C373 0.961 . S
H381 C373 0.960 . S
H382 C374 0.930 . S
H383 C375 0.929 . S
H384 C392 0.929 . S
H385 C394 0.930 . S
H386 C396 0.930 . S
H387 C399 0.929 . S
H388 C402 0.930 . S
H389 C404 0.960 . S
H390 C404 0.960 . S
H391 C404 0.960 . S
C392 H384 0.929 . S
C392 C393 1.377 . S
C392 C394 1.384 . S
C393 C392 1.377 . S
C393 C399 1.390 . S
C394 H385 0.930 . S
C394 C392 1.384 . S
C394 C395 1.372 . S
C395 C394 1.372 . S
C395 C396 1.400 . S
C395 C400 1.490 . S
C396 H386 0.930 . S
C396 C395 1.400 . S
C396 C399 1.386 . S
H397 C413 0.930 . S
H398 C414 0.931 . S
C399 H387 0.929 . S
C399 C393 1.390 . S
C399 C396 1.386 . S
C400 C395 1.490 . S
C400 C402 1.395 . S
C400 C403 1.403 . S
H401 C407 0.930 . S
C402 H388 0.930 . S
C402 C400 1.395 . S
C402 C405 1.403 . S
C403 C400 1.403 . S
C403 C404 1.524 . S
C403 C407 1.400 . S
C404 H389 0.960 . S
C404 H390 0.960 . S
C404 H391 0.960 . S
C404 C403 1.524 . S
C405 C402 1.403 . S
C405 C406 1.392 . S
C405 C409 1.495 . S
C406 C405 1.392 . S
C406 C407 1.385 . S
C406 C408 1.478 . S
C407 H401 0.930 . S
C407 C403 1.400 . S
C407 C406 1.385 . S
C408 C406 1.478 . S
C408 C410 1.381 . S
C408 C414 1.383 . S
C409 C405 1.495 . S
C409 H415 0.959 . S
C409 H416 0.961 . S
C409 H417 0.960 . S
C410 C408 1.381 . S
C410 C411 1.394 . S
C410 H418 0.930 . S
C411 C410 1.394 . S
C411 C412 1.383 . S
C411 H419 0.929 . S
C412 C411 1.383 . S
C412 C413 1.377 . S
C413 H397 0.930 . S
C413 C412 1.377 . S
C413 C414 1.379 . S
C414 H398 0.931 . S
C414 C408 1.383 . S
C414 C413 1.379 . S
H415 C409 0.959 . S
H416 C409 0.961 . S
H417 C409 0.960 . S
H418 C410 0.930 . S
H419 C411 0.929 . S
H420 C428 0.929 . S
H421 C430 0.930 . S
H422 C432 0.930 . S
H423 C435 0.929 . S
H424 C438 0.930 . S
H425 C440 0.960 . S
H426 C440 0.960 . S
H427 C440 0.960 . S
C428 H420 0.929 . S
C428 C429 1.377 . S
C428 C430 1.384 . S
C429 C428 1.377 . S
C429 C435 1.390 . S
C430 H421 0.930 . S
C430 C428 1.384 . S
C430 C431 1.372 . S
C431 C430 1.372 . S
C431 C432 1.400 . S
C431 C436 1.490 . S
C432 H422 0.930 . S
C432 C431 1.400 . S
C432 C435 1.386 . S
H433 C449 0.930 . S
H434 C450 0.931 . S
C435 H423 0.929 . S
C435 C429 1.390 . S
C435 C432 1.386 . S
C436 C431 1.490 . S
C436 C438 1.395 . S
C436 C439 1.403 . S
H437 C443 0.930 . S
C438 H424 0.930 . S
C438 C436 1.395 . S
C438 C441 1.403 1_655 S
C439 C436 1.403 . S
C439 C440 1.524 . S
C439 C443 1.400 1_655 S
C440 H425 0.960 . S
C440 H426 0.960 . S
C440 H427 0.960 . S
C440 C439 1.524 . S
C441 C438 1.403 1_455 S
C441 C442 1.392 . S
C441 C445 1.495 . S
C442 C441 1.392 . S
C442 C443 1.385 . S
C442 C444 1.478 . S
C443 H437 0.930 . S
C443 C439 1.400 1_455 S
C443 C442 1.385 . S
C444 C442 1.478 . S
C444 C446 1.381 . S
C444 C450 1.383 . S
C445 C441 1.495 . S
C445 H451 0.959 . S
C445 H452 0.961 . S
C445 H453 0.960 . S
C446 C444 1.381 . S
C446 C447 1.394 . S
C446 H454 0.930 . S
C447 C446 1.394 . S
C447 C448 1.383 . S
C447 H455 0.929 . S
C448 C447 1.383 . S
C448 C449 1.377 . S
C449 H433 0.930 . S
C449 C448 1.377 . S
C449 C450 1.379 . S
C450 H434 0.931 . S
C450 C444 1.383 . S
C450 C449 1.379 . S
H451 C445 0.959 . S
H452 C445 0.961 . S
H453 C445 0.960 . S
H454 C446 0.930 . S
H455 C447 0.929 . S
H456 C464 0.929 . S
H457 C466 0.930 . S
H458 C468 0.930 . S
H459 C471 0.929 . S
H460 C474 0.930 . S
H461 C476 0.960 . S
H462 C476 0.960 . S
H463 C476 0.960 . S
C464 H456 0.929 . S
C464 C465 1.377 . S
C464 C466 1.384 . S
C465 C464 1.377 . S
C465 C471 1.390 . S
C466 H457 0.930 . S
C466 C464 1.384 . S
C466 C467 1.372 . S
C467 C466 1.372 . S
C467 C468 1.400 . S
C467 C472 1.490 . S
C468 H458 0.930 . S
C468 C467 1.400 . S
C468 C471 1.386 . S
H469 C485 0.930 . S
H470 C486 0.931 . S
C471 H459 0.929 . S
C471 C465 1.390 . S
C471 C468 1.386 . S
C472 C467 1.490 . S
C472 C474 1.395 . S
C472 C475 1.403 1_554 S
H473 C479 0.930 . S
C474 H460 0.930 . S
C474 C472 1.395 . S
C474 C477 1.403 1_565 S
C475 C472 1.403 1_556 S
C475 C476 1.524 . S
C475 C479 1.400 1_565 S
C476 H461 0.960 . S
C476 H462 0.960 . S
C476 H463 0.960 . S
C476 C475 1.524 . S
C477 C474 1.403 1_545 S
C477 C478 1.392 . S
C477 C481 1.495 . S
C478 C477 1.392 . S
C478 C479 1.385 1_554 S
C478 C480 1.478 1_554 S
C479 H473 0.930 . S
C479 C475 1.400 1_545 S
C479 C478 1.385 1_556 S
C480 C478 1.478 1_556 S
C480 C482 1.381 . S
C480 C486 1.383 . S
C481 C477 1.495 . S
C481 H487 0.959 . S
C481 H488 0.961 . S
C481 H489 0.960 . S
C482 C480 1.381 . S
C482 C483 1.394 . S
C482 H490 0.930 . S
C483 C482 1.394 . S
C483 C484 1.383 . S
C483 H491 0.929 . S
C484 C483 1.383 . S
C484 C485 1.377 . S
C485 H469 0.930 . S
C485 C484 1.377 . S
C485 C486 1.379 . S
C486 H470 0.931 . S
C486 C480 1.383 . S
C486 C485 1.379 . S
H487 C481 0.959 . S
H488 C481 0.961 . S
H489 C481 0.960 . S
H490 C482 0.930 . S
H491 C483 0.929 . S
H492 C500 0.929 . S
H493 C502 0.930 . S
H494 C504 0.930 . S
H495 C507 0.929 . S
H496 C510 0.930 . S
H497 C512 0.960 . S
H498 C512 0.960 . S
H499 C512 0.960 . S
C500 H492 0.929 . S
C500 C501 1.377 . S
C500 C502 1.384 . S
C501 C500 1.377 . S
C501 C507 1.390 . S
C502 H493 0.930 . S
C502 C500 1.384 . S
C502 C503 1.372 . S
C503 C502 1.372 . S
C503 C504 1.400 . S
C503 C508 1.490 . S
C504 H494 0.930 . S
C504 C503 1.400 . S
C504 C507 1.386 . S
H505 C521 0.930 . S
H506 C522 0.931 . S
C507 H495 0.929 . S
C507 C501 1.390 . S
C507 C504 1.386 . S
C508 C503 1.490 . S
C508 C510 1.395 . S
C508 C511 1.403 . S
H509 C515 0.930 . S
C510 H496 0.930 . S
C510 C508 1.395 . S
C510 C513 1.403 . S
C511 C508 1.403 . S
C511 C512 1.524 . S
C511 C515 1.400 . S
C512 H497 0.960 . S
C512 H498 0.960 . S
C512 H499 0.960 . S
C512 C511 1.524 . S
C513 C510 1.403 . S
C513 C514 1.392 . S
C513 C517 1.495 . S
C514 C513 1.392 . S
C514 C515 1.385 . S
C514 C516 1.478 . S
C515 H509 0.930 . S
C515 C511 1.400 . S
C515 C514 1.385 . S
C516 C514 1.478 . S
C516 C518 1.381 . S
C516 C522 1.383 . S
C517 C513 1.495 . S
C517 H523 0.959 . S
C517 H524 0.961 . S
C517 H525 0.960 . S
C518 C516 1.381 . S
C518 C519 1.394 . S
C518 H526 0.930 . S
C519 C518 1.394 . S
C519 C520 1.383 . S
C519 H527 0.929 . S
C520 C519 1.383 . S
C520 C521 1.377 . S
C521 H505 0.930 . S
C521 C520 1.377 . S
C521 C522 1.379 . S
C522 H506 0.931 . S
C522 C516 1.383 . S
C522 C521 1.379 . S
H523 C517 0.959 . S
H524 C517 0.961 . S
H525 C517 0.960 . S
H526 C518 0.930 . S
H527 C519 0.929 . S
H528 C536 0.929 . S
H529 C538 0.930 . S
H530 C540 0.930 . S
H531 C543 0.929 . S
H532 C546 0.930 . S
H533 C548 0.954 1_455 S
H534 C548 0.960 . S
H535 C548 0.960 . S
C536 H528 0.929 . S
C536 C537 1.377 . S
C536 C538 1.384 . S
C537 C536 1.377 . S
C537 C543 1.390 . S
C538 H529 0.930 . S
C538 C536 1.384 . S
C538 C539 1.372 . S
C539 C538 1.372 . S
C539 C540 1.400 . S
C539 C544 1.490 . S
C540 H530 0.930 . S
C540 C539 1.400 . S
C540 C543 1.386 . S
H541 C557 0.930 . S
H542 C558 0.931 . S
C543 H531 0.929 . S
C543 C537 1.390 . S
C543 C540 1.386 . S
C544 C539 1.490 . S
C544 C546 1.395 . S
C544 C547 1.403 . S
H545 C551 0.930 . S
C546 H532 0.930 . S
C546 C544 1.395 . S
C546 C549 1.403 1_655 S
C547 C544 1.403 . S
C547 C548 1.524 . S
C547 C551 1.400 1_655 S
C548 H533 0.954 1_655 S
C548 H534 0.960 . S
C548 H535 0.960 . S
C548 C547 1.524 . S
C549 C546 1.403 1_455 S
C549 C550 1.392 . S
C549 C553 1.495 . S
C550 C549 1.392 . S
C550 C551 1.385 . S
C550 C552 1.478 . S
C551 H545 0.930 . S
C551 C547 1.400 1_455 S
C551 C550 1.385 . S
C552 C550 1.478 . S
C552 C554 1.381 . S
C552 C558 1.383 . S
C553 C549 1.495 . S
C553 H559 0.959 . S
C553 H560 0.961 . S
C553 H561 0.960 . S
C554 C552 1.381 . S
C554 C555 1.394 . S
C554 H562 0.930 . S
C555 C554 1.394 . S
C555 C556 1.383 . S
C555 H563 0.929 . S
C556 C555 1.383 . S
C556 C557 1.377 . S
C557 H541 0.930 . S
C557 C556 1.377 . S
C557 C558 1.379 . S
C558 H542 0.931 . S
C558 C552 1.383 . S
C558 C557 1.379 . S
H559 C553 0.959 . S
H560 C553 0.961 . S
H561 C553 0.960 . S
H562 C554 0.930 . S
H563 C555 0.929 . S
H564 C572 0.929 . S
H565 C574 0.930 . S
H566 C576 0.930 . S
H567 C579 0.929 . S
H568 C582 0.930 . S
H569 C584 0.960 . S
H570 C584 0.960 . S
H571 C584 0.960 . S
C572 H564 0.929 . S
C572 C573 1.377 . S
C572 C574 1.384 . S
C573 C572 1.377 . S
C573 C579 1.390 . S
C574 H565 0.930 . S
C574 C572 1.384 . S
C574 C575 1.372 . S
C575 C574 1.372 . S
C575 C576 1.400 . S
C575 C580 1.490 . S
C576 H566 0.930 . S
C576 C575 1.400 . S
C576 C579 1.386 . S
H577 C593 0.930 . S
H578 C594 0.931 . S
C579 H567 0.929 . S
C579 C573 1.390 . S
C579 C576 1.386 . S
C580 C575 1.490 . S
C580 C582 1.395 . S
C580 C583 1.403 . S
H581 C587 0.930 . S
C582 H568 0.930 . S
C582 C580 1.395 . S
C582 C585 1.403 . S
C583 C580 1.403 . S
C583 C584 1.524 . S
C583 C587 1.400 . S
C584 H569 0.960 . S
C584 H570 0.960 . S
C584 H571 0.960 . S
C584 C583 1.524 . S
C585 C582 1.403 . S
C585 C586 1.392 . S
C585 C589 1.495 . S
C586 C585 1.392 . S
C586 C587 1.385 . S
C586 C588 1.478 . S
C587 H581 0.930 . S
C587 C583 1.400 . S
C587 C586 1.385 . S
C588 C586 1.478 . S
C588 C590 1.381 . S
C588 C594 1.383 . S
C589 C585 1.495 . S
C589 H595 0.959 . S
C589 H596 0.961 . S
C589 H597 0.960 . S
C590 C588 1.381 . S
C590 C591 1.394 . S
C590 H598 0.930 . S
C591 C590 1.394 . S
C591 C592 1.383 . S
C591 H599 0.929 . S
C592 C591 1.383 . S
C592 C593 1.377 . S
C593 H577 0.930 . S
C593 C592 1.377 . S
C593 C594 1.379 . S
C594 H578 0.931 . S
C594 C588 1.383 . S
C594 C593 1.379 . S
H595 C589 0.959 . S
H596 C589 0.961 . S
H597 C589 0.960 . S
H598 C590 0.930 . S
H599 C591 0.929 . S
H600 C608 0.929 . S
H601 C610 0.930 . S
H602 C612 0.930 . S
H603 C615 0.929 . S
H604 C618 0.930 . S
H605 C620 0.960 . S
H606 C620 0.960 . S
H607 C620 0.960 . S
C608 H600 0.929 . S
C608 C609 1.377 . S
C608 C610 1.384 . S
C609 C608 1.377 . S
C609 C615 1.390 . S
C610 H601 0.930 . S
C610 C608 1.384 . S
C610 C611 1.372 . S
C611 C610 1.372 . S
C611 C612 1.400 . S
C611 C616 1.490 . S
C612 H602 0.930 . S
C612 C611 1.400 . S
C612 C615 1.386 . S
H613 C629 0.930 . S
H614 C630 0.931 . S
C615 H603 0.929 . S
C615 C609 1.390 . S
C615 C612 1.386 . S
C616 C611 1.490 . S
C616 C618 1.395 . S
C616 C619 1.403 . S
H617 C623 0.930 . S
C618 H604 0.930 . S
C618 C616 1.395 . S
C618 C621 1.403 . S
C619 C616 1.403 . S
C619 C620 1.524 . S
C619 C623 1.400 . S
C620 H605 0.960 . S
C620 H606 0.960 . S
C620 H607 0.960 . S
C620 C619 1.524 . S
C621 C618 1.403 . S
C621 C622 1.392 . S
C621 C625 1.495 . S
C622 C621 1.392 . S
C622 C623 1.385 . S
C622 C624 1.478 . S
C623 H617 0.930 . S
C623 C619 1.400 . S
C623 C622 1.385 . S
C624 C622 1.478 . S
C624 C626 1.381 . S
C624 C630 1.383 . S
C625 C621 1.495 . S
C625 H631 0.959 . S
C625 H632 0.961 . S
C625 H633 0.960 . S
C626 C624 1.381 . S
C626 C627 1.394 . S
C626 H634 0.930 . S
C627 C626 1.394 . S
C627 C628 1.383 . S
C627 H635 0.929 . S
C628 C627 1.383 . S
C628 C629 1.377 . S
C629 H613 0.930 . S
C629 C628 1.377 . S
C629 C630 1.379 . S
C630 H614 0.931 . S
C630 C624 1.383 . S
C630 C629 1.379 . S
H631 C625 0.959 . S
H632 C625 0.961 . S
H633 C625 0.960 . S
H634 C626 0.930 . S
H635 C627 0.929 . S
H636 C644 0.929 . S
H637 C646 0.930 . S
H638 C648 0.930 . S
H639 C651 0.929 . S
H640 C654 0.930 . S
H641 C656 0.960 . S
H642 C656 0.960 . S
H643 C656 0.960 . S
C644 H636 0.929 . S
C644 C645 1.377 . S
C644 C646 1.384 . S
C645 C644 1.377 . S
C645 C651 1.390 . S
C646 H637 0.930 . S
C646 C644 1.384 . S
C646 C647 1.372 . S
C647 C646 1.372 . S
C647 C648 1.400 . S
C647 C652 1.490 . S
C648 H638 0.930 . S
C648 C647 1.400 . S
C648 C651 1.386 . S
H649 C665 0.930 . S
H650 C666 0.931 . S
C651 H639 0.929 . S
C651 C645 1.390 . S
C651 C648 1.386 . S
C652 C647 1.490 . S
C652 C654 1.395 . S
C652 C655 1.403 . S
H653 C659 0.930 . S
C654 H640 0.930 . S
C654 C652 1.395 . S
C654 C657 1.403 . S
C655 C652 1.403 . S
C655 C656 1.524 . S
C655 C659 1.400 . S
C656 H641 0.960 . S
C656 H642 0.960 . S
C656 H643 0.960 . S
C656 C655 1.524 . S
C657 C654 1.403 . S
C657 C658 1.392 . S
C657 C661 1.495 . S
C658 C657 1.392 . S
C658 C659 1.385 . S
C658 C660 1.478 . S
C659 H653 0.930 . S
C659 C655 1.400 . S
C659 C658 1.385 . S
C660 C658 1.478 . S
C660 C662 1.381 . S
C660 C666 1.383 . S
C661 C657 1.495 . S
C661 H667 0.959 . S
C661 H668 0.961 . S
C661 H669 0.960 . S
C662 C660 1.381 . S
C662 C663 1.394 . S
C662 H670 0.930 . S
C663 C662 1.394 . S
C663 C664 1.383 . S
C663 H671 0.929 . S
C664 C663 1.383 . S
C664 C665 1.377 . S
C665 H649 0.930 . S
C665 C664 1.377 . S
C665 C666 1.379 . S
C666 H650 0.931 . S
C666 C660 1.383 . S
C666 C665 1.379 . S
H667 C661 0.959 . S
H668 C661 0.961 . S
H669 C661 0.960 . S
H670 C662 0.930 . S
H671 C663 0.929 . S
H672 C680 0.929 . S
H673 C682 0.930 . S
H674 C684 0.930 . S
H675 C687 0.929 . S
H676 C690 0.930 . S
H677 C692 0.960 . S
H678 C692 0.960 . S
H679 C692 0.960 . S
C680 H672 0.929 . S
C680 C681 1.375 1_556 S
C680 C682 1.384 . S
C681 C680 1.375 1_554 S
C681 C687 1.391 . S
C682 H673 0.930 . S
C682 C680 1.384 . S
C682 C683 1.372 . S
C683 C682 1.372 . S
C683 C684 1.400 1_556 S
C683 C688 1.490 . S
C684 H674 0.930 . S
C684 C683 1.400 1_554 S
C684 C687 1.386 . S
H685 C701 0.930 . S
H686 C702 0.931 . S
C687 H675 0.929 . S
C687 C681 1.391 . S
C687 C684 1.386 . S
C688 C683 1.490 . S
C688 C690 1.395 . S
C688 C691 1.403 . S
H689 C695 0.930 . S
C690 H676 0.930 . S
C690 C688 1.395 . S
C690 C693 1.403 . S
C691 C688 1.403 . S
C691 C692 1.524 1_556 S
C691 C695 1.400 . S
C692 H677 0.960 . S
C692 H678 0.960 . S
C692 H679 0.960 . S
C692 C691 1.524 1_554 S
C693 C690 1.403 . S
C693 C694 1.392 . S
C693 C697 1.495 . S
C694 C693 1.392 . S
C694 C695 1.385 . S
C694 C696 1.478 . S
C695 H689 0.930 . S
C695 C691 1.400 . S
C695 C694 1.385 . S
C696 C694 1.478 . S
C696 C698 1.381 . S
C696 C702 1.383 . S
C697 C693 1.495 . S
C697 H703 0.959 . S
C697 H704 0.961 . S
C697 H705 0.960 . S
C698 C696 1.381 . S
C698 C699 1.394 . S
C698 H706 0.930 . S
C699 C698 1.394 . S
C699 C700 1.383 . S
C699 H707 0.929 . S
C700 C699 1.383 . S
C700 C701 1.377 . S
C701 H685 0.930 . S
C701 C700 1.377 . S
C701 C702 1.379 . S
C702 H686 0.931 . S
C702 C696 1.383 . S
C702 C701 1.379 . S
H703 C697 0.959 . S
H704 C697 0.961 . S
H705 C697 0.960 . S
H706 C698 0.930 . S
H707 C699 0.929 . S
H708 C716 0.929 . S
H709 C718 0.930 . S
H710 C720 0.930 . S
H711 C723 0.929 . S
H712 C726 0.930 . S
H713 C728 0.960 . S
H714 C728 0.960 . S
H715 C728 0.960 . S
C716 H708 0.929 . S
C716 C717 1.377 . S
C716 C718 1.384 . S
C717 C716 1.377 . S
C717 C723 1.390 . S
C718 H709 0.930 . S
C718 C716 1.384 . S
C718 C719 1.372 . S
C719 C718 1.372 . S
C719 C720 1.400 . S
C719 C724 1.490 . S
C720 H710 0.930 . S
C720 C719 1.400 . S
C720 C723 1.386 . S
H721 C737 0.930 . S
H722 C738 0.931 . S
C723 H711 0.929 . S
C723 C717 1.390 . S
C723 C720 1.386 . S
C724 C719 1.490 . S
C724 C726 1.395 . S
C724 C727 1.403 . S
H725 C731 0.930 . S
C726 H712 0.930 . S
C726 C724 1.395 . S
C726 C729 1.403 . S
C727 C724 1.403 . S
C727 C728 1.524 . S
C727 C731 1.400 . S
C728 H713 0.960 . S
C728 H714 0.960 . S
C728 H715 0.960 . S
C728 C727 1.524 . S
C729 C726 1.403 . S
C729 C730 1.392 . S
C729 C733 1.495 1_554 S
C730 C729 1.392 . S
C730 C731 1.385 . S
C730 C732 1.478 . S
C731 H725 0.930 . S
C731 C727 1.400 . S
C731 C730 1.385 . S
C732 C730 1.478 . S
C732 C734 1.381 1_554 S
C732 C738 1.383 . S
C733 C729 1.495 1_556 S
C733 H739 0.959 . S
C733 H740 0.961 . S
C733 H741 0.960 . S
C734 C732 1.381 1_556 S
C734 C735 1.394 . S
C734 H742 0.930 . S
C735 C734 1.394 . S
C735 C736 1.383 . S
C735 H743 0.929 . S
C736 C735 1.383 . S
C736 C737 1.377 1_556 S
C737 H721 0.930 . S
C737 C736 1.377 1_554 S
C737 C738 1.379 . S
C738 H722 0.931 . S
C738 C732 1.383 . S
C738 C737 1.379 . S
H739 C733 0.959 . S
H740 C733 0.961 . S
H741 C733 0.960 . S
H742 C734 0.930 . S
H743 C735 0.929 . S
H744 C752 0.929 . S
H745 C754 0.930 . S
H746 C756 0.930 . S
H747 C759 0.929 . S
H748 C762 0.930 . S
H749 C764 0.960 . S
H750 C764 0.960 . S
H751 C764 0.960 . S
C752 H744 0.929 . S
C752 C753 1.377 . S
C752 C754 1.384 . S
C753 C752 1.377 . S
C753 C759 1.390 . S
C754 H745 0.930 . S
C754 C752 1.384 . S
C754 C755 1.372 . S
C755 C754 1.372 . S
C755 C756 1.400 . S
C755 C760 1.490 . S
C756 H746 0.930 . S
C756 C755 1.400 . S
C756 C759 1.386 . S
H757 C773 0.930 . S
H758 C774 0.931 . S
C759 H747 0.929 . S
C759 C753 1.390 . S
C759 C756 1.386 . S
C760 C755 1.490 . S
C760 C762 1.395 . S
C760 C763 1.403 . S
H761 C767 0.930 . S
C762 H748 0.930 . S
C762 C760 1.395 . S
C762 C765 1.403 . S
C763 C760 1.403 . S
C763 C764 1.524 . S
C763 C767 1.400 . S
C764 H749 0.960 . S
C764 H750 0.960 . S
C764 H751 0.960 . S
C764 C763 1.524 . S
C765 C762 1.403 . S
C765 C766 1.392 . S
C765 C769 1.495 . S
C766 C765 1.392 . S
C766 C767 1.385 . S
C766 C768 1.478 . S
C767 H761 0.930 . S
C767 C763 1.400 . S
C767 C766 1.385 . S
C768 C766 1.478 . S
C768 C770 1.381 . S
C768 C774 1.383 . S
C769 C765 1.495 . S
C769 H775 0.959 . S
C769 H776 0.961 . S
C769 H777 0.960 . S
C770 C768 1.381 . S
C770 C771 1.394 . S
C770 H778 0.930 . S
C771 C770 1.394 . S
C771 C772 1.383 . S
C771 H779 0.929 . S
C772 C771 1.383 . S
C772 C773 1.377 . S
C773 H757 0.930 . S
C773 C772 1.377 . S
C773 C774 1.379 . S
C774 H758 0.931 . S
C774 C768 1.383 . S
C774 C773 1.379 . S
H775 C769 0.959 . S
H776 C769 0.961 . S
H777 C769 0.960 . S
H778 C770 0.930 . S
H779 C771 0.929 . S
C141 C10 1.361 . S
C160 C7 1.330 . S
C177 C32 1.362 . S
C196 C29 1.325 . S
C213 C65 1.348 . S
C232 C62 1.377 . S
C249 C87 1.348 . S
C268 C84 1.378 . S
C285 C109 1.358 . S
C304 C106 1.333 . S
C321 C128 1.362 . S
C340 C131 1.325 . S
C357 C15 1.595 . S
C376 C118 1.602 . S
C393 C18 1.608 . S
C412 C37 1.575 . S
C429 C51 1.590 . S
C448 C40 1.612 . S
C465 C73 1.594 . S
C484 C52 1.601 . S
C501 C95 1.597 . S
C520 C74 1.593 . S
C537 C96 1.606 . S
C556 C117 1.591 . S
C573 C8 1.275 . S
C592 C103 1.247 . S
C609 C30 1.279 . S
C628 C125 1.280 . S
C645 C54 1.274 . S
C664 C21 1.244 . S
C681 C76 1.277 . S
C700 C43 1.251 . S
C717 C98 1.277 . S
C736 C59 1.263 . S
C753 C81 1.268 . S
C772 C120 1.281 . S
