# Generated by pormake.
# Topology umg, (4)-cn, num edge types: 1
# Building blocks:
#     Node 0, Type 0, BuildingBlock: NAWXER_clean_sbu_0, # of connection points: 4
#     Node 1, Type 0, BuildingBlock: NAWXER_clean_sbu_0, # of connection points: 4
#     Node 2, Type 0, BuildingBlock: NAWXER_clean_sbu_0, # of connection points: 4
#     Node 3, Type 0, BuildingBlock: NAWXER_clean_sbu_0, # of connection points: 4
#     Node 4, Type 0, BuildingBlock: NAWXER_clean_sbu_0, # of connection points: 4
#     Node 5, Type 0, BuildingBlock: NAWXER_clean_sbu_0, # of connection points: 4
#     Node 6, Type 0, BuildingBlock: NAWXER_clean_sbu_0, # of connection points: 4
#     Node 7, Type 0, BuildingBlock: NAWXER_clean_sbu_0, # of connection points: 4
#     Node 8, Type 0, BuildingBlock: NAWXER_clean_sbu_0, # of connection points: 4
#     Node 9, Type 0, BuildingBlock: NAWXER_clean_sbu_0, # of connection points: 4
#     Node 10, Type 0, BuildingBlock: NAWXER_clean_sbu_0, # of connection points: 4
#     Node 11, Type 0, BuildingBlock: NAWXER_clean_sbu_0, # of connection points: 4
#     Edge 12, Type (0, 0), BuildingBlock: OJICUG_clean_linker_0, # of connection points: 2
#     Edge 13, Type (0, 0), BuildingBlock: OJICUG_clean_linker_0, # of connection points: 2
#     Edge 14, Type (0, 0), BuildingBlock: OJICUG_clean_linker_0, # of connection points: 2
#     Edge 15, Type (0, 0), BuildingBlock: OJICUG_clean_linker_0, # of connection points: 2
#     Edge 16, Type (0, 0), BuildingBlock: OJICUG_clean_linker_0, # of connection points: 2
#     Edge 17, Type (0, 0), BuildingBlock: OJICUG_clean_linker_0, # of connection points: 2
#     Edge 18, Type (0, 0), BuildingBlock: OJICUG_clean_linker_0, # of connection points: 2
#     Edge 19, Type (0, 0), BuildingBlock: OJICUG_clean_linker_0, # of connection points: 2
#     Edge 20, Type (0, 0), BuildingBlock: OJICUG_clean_linker_0, # of connection points: 2
#     Edge 21, Type (0, 0), BuildingBlock: OJICUG_clean_linker_0, # of connection points: 2
#     Edge 22, Type (0, 0), BuildingBlock: OJICUG_clean_linker_0, # of connection points: 2
#     Edge 23, Type (0, 0), BuildingBlock: OJICUG_clean_linker_0, # of connection points: 2
#     Edge 24, Type (0, 0), BuildingBlock: OJICUG_clean_linker_0, # of connection points: 2
#     Edge 25, Type (0, 0), BuildingBlock: OJICUG_clean_linker_0, # of connection points: 2
#     Edge 26, Type (0, 0), BuildingBlock: OJICUG_clean_linker_0, # of connection points: 2
#     Edge 27, Type (0, 0), BuildingBlock: OJICUG_clean_linker_0, # of connection points: 2
#     Edge 28, Type (0, 0), BuildingBlock: OJICUG_clean_linker_0, # of connection points: 2
#     Edge 29, Type (0, 0), BuildingBlock: OJICUG_clean_linker_0, # of connection points: 2
#     Edge 30, Type (0, 0), BuildingBlock: OJICUG_clean_linker_0, # of connection points: 2
#     Edge 31, Type (0, 0), BuildingBlock: OJICUG_clean_linker_0, # of connection points: 2
#     Edge 32, Type (0, 0), BuildingBlock: OJICUG_clean_linker_0, # of connection points: 2
#     Edge 33, Type (0, 0), BuildingBlock: OJICUG_clean_linker_0, # of connection points: 2
#     Edge 34, Type (0, 0), BuildingBlock: OJICUG_clean_linker_0, # of connection points: 2
#     Edge 35, Type (0, 0), BuildingBlock: OJICUG_clean_linker_0, # of connection points: 2
# Relax obj value: 0.016
# Max RMSD: 0.161
# Mean RMSD: 0.161
data_MOF--net-umg--node1-NAWXER_clean_sbu_0--edge1-OJICUG_clean_linker_0
_symmetry_space_group_name_H-M    P1
_symmetry_Int_Tables_number       1
_symmetry_cell_setting            triclinic
loop_
_symmetry_equiv_pos_as_xyz
'x, y, z'
_cell_length_a     21.270674
_cell_length_b     21.267111
_cell_length_c     63.66483
_cell_angle_alpha  89.998076
_cell_angle_beta   89.979989
_cell_angle_gamma 120.00765
loop_
_atom_site_label
_atom_site_type_symbol
_atom_site_fract_x
_atom_site_fract_y
_atom_site_fract_z
_atom_type_partial_charge
C0 C 0.15825 0.52804 0.08991 0.0
C1 C 0.38785 0.52783 0.08893 0.0
O2 O 0.16825 0.47402 0.09095 0.0
Zn3 Zn 0.27297 0.52704 0.08951 0.0
O4 O 0.21333 0.59226 0.08847 0.0
Zn5 Zn 0.32975 0.64192 0.08713 0.0
O6 O 0.3527 0.68899 0.05982 0.0
O7 O 0.29344 0.56937 0.05819 0.0
O8 O 0.39693 0.59215 0.08787 0.0
O9 O 0.3239 0.47358 0.09 0.0
O10 O 0.30417 0.5834 0.11892 0.0
O11 O 0.35941 0.70098 0.11222 0.0
C12 C 0.32401 0.63118 0.04891 0.0
C13 C 0.33654 0.64927 0.12541 0.0
C14 C 0.69221 0.33155 0.4584 0.0
C15 C 0.6986 0.31882 0.38191 0.0
O16 O 0.6634 0.35434 0.44518 0.0
Zn17 Zn 0.69311 0.32469 0.42014 0.0
O18 O 0.72581 0.29925 0.45196 0.0
Zn19 Zn 0.75125 0.26796 0.42261 0.0
O20 O 0.85559 0.31892 0.4232 0.0
O21 O 0.81007 0.39194 0.42098 0.0
O22 O 0.72975 0.28832 0.39127 0.0
O23 O 0.6693 0.34748 0.39275 0.0
O24 O 0.62641 0.20827 0.42152 0.0
O25 O 0.69958 0.16325 0.4241 0.0
C26 C 0.8653 0.38287 0.42213 0.0
C27 C 0.63555 0.15321 0.42303 0.0
C28 C 0.37214 0.69153 0.79206 0.0
C29 C 0.38963 0.69643 0.71555 0.0
O30 O 0.32035 0.6626 0.77891 0.0
Zn31 Zn 0.37922 0.69183 0.75379 0.0
O32 O 0.43795 0.72499 0.78552 0.0
Zn33 Zn 0.49409 0.74995 0.75606 0.0
O34 O 0.54756 0.85435 0.75648 0.0
O35 O 0.42898 0.8088 0.75447 0.0
O36 O 0.45151 0.72777 0.72477 0.0
O37 O 0.33193 0.66745 0.72652 0.0
O38 O 0.42891 0.62509 0.75513 0.0
O39 O 0.54716 0.69833 0.75749 0.0
C40 C 0.49331 0.86405 0.75548 0.0
C41 C 0.49314 0.63427 0.75653 0.0
C42 C 0.68902 0.36612 0.12506 0.0
C43 C 0.70247 0.38532 0.04858 0.0
O44 O 0.66634 0.31455 0.11183 0.0
Zn45 Zn 0.69626 0.37397 0.0868 0.0
O46 O 0.72143 0.43206 0.11862 0.0
Zn47 Zn 0.75301 0.48884 0.08928 0.0
O48 O 0.70206 0.54227 0.08982 0.0
O49 O 0.62905 0.42371 0.0876 0.0
O50 O 0.73291 0.44698 0.05792 0.0
O51 O 0.67366 0.32735 0.05942 0.0
O52 O 0.81266 0.42363 0.08823 0.0
O53 O 0.8577 0.54184 0.09081 0.0
C54 C 0.63811 0.48802 0.08873 0.0
C55 C 0.86772 0.48783 0.08975 0.0
C56 C 0.32801 0.68414 0.45873 0.0
C57 C 0.32272 0.69696 0.38223 0.0
O58 O 0.35687 0.66133 0.44553 0.0
Zn59 Zn 0.32759 0.69112 0.42046 0.0
O60 O 0.29457 0.71656 0.45225 0.0
Zn61 Zn 0.26955 0.74791 0.42283 0.0
O62 O 0.16517 0.69706 0.42332 0.0
O63 O 0.21063 0.62397 0.42119 0.0
O64 O 0.29147 0.72752 0.3915 0.0
O65 O 0.35176 0.66823 0.39315 0.0
O66 O 0.39439 0.80755 0.42179 0.0
O67 O 0.32125 0.85262 0.42428 0.0
C68 C 0.15542 0.63309 0.42226 0.0
C69 C 0.38527 0.86263 0.42324 0.0
C70 C 0.53323 0.1542 0.75549 0.0
C71 C 0.53345 0.38401 0.75651 0.0
O72 O 0.47901 0.16391 0.75664 0.0
Zn73 Zn 0.53244 0.26829 0.75606 0.0
O74 O 0.59753 0.20944 0.7543 0.0
Zn75 Zn 0.64729 0.32642 0.75349 0.0
O76 O 0.70684 0.35603 0.77848 0.0
O77 O 0.5894 0.29363 0.78536 0.0
O78 O 0.59764 0.39316 0.75494 0.0
O79 O 0.47946 0.31997 0.75762 0.0
O80 O 0.57407 0.28987 0.72468 0.0
O81 O 0.6937 0.35028 0.72607 0.0
C82 C 0.65537 0.3272 0.79175 0.0
C83 C 0.63564 0.32103 0.71527 0.0
C84 C 0.49041 0.86207 0.58342 0.0
C85 C 0.49046 0.63239 0.58435 0.0
O86 O 0.5444 0.85203 0.5823 0.0
Zn87 Zn 0.49135 0.74733 0.58382 0.0
O88 O 0.42622 0.80702 0.58497 0.0
Zn89 Zn 0.37649 0.6906 0.58637 0.0
O90 O 0.33002 0.66797 0.61378 0.0
O91 O 0.44965 0.72716 0.61519 0.0
O92 O 0.42617 0.62334 0.58552 0.0
O93 O 0.5447 0.69633 0.58322 0.0
O94 O 0.43448 0.71594 0.55451 0.0
O95 O 0.31702 0.66085 0.56135 0.0
C96 C 0.38806 0.69673 0.62459 0.0
C97 C 0.36855 0.68361 0.5481 0.0
C98 C 0.69647 0.36783 0.88111 0.0
C99 C 0.7018 0.386 0.95761 0.0
O100 O 0.66761 0.31614 0.89431 0.0
Zn101 Zn 0.69694 0.37523 0.91939 0.0
O102 O 0.72996 0.43371 0.88759 0.0
Zn103 Zn 0.75506 0.4901 0.917 0.0
O104 O 0.85946 0.54356 0.91652 0.0
O105 O 0.8139 0.42498 0.91866 0.0
O106 O 0.73308 0.44781 0.94833 0.0
O107 O 0.67273 0.32819 0.9467 0.0
O108 O 0.6302 0.4249 0.91804 0.0
O109 O 0.70338 0.54314 0.91555 0.0
C110 C 0.86915 0.48931 0.91759 0.0
C111 C 0.63934 0.48911 0.91659 0.0
C112 C 0.3222 0.69545 0.29126 0.0
C113 C 0.33586 0.68966 0.21478 0.0
O114 O 0.35104 0.6663 0.28044 0.0
Zn115 Zn 0.32853 0.6903 0.25305 0.0
O116 O 0.2918 0.72667 0.2819 0.0
Zn117 Zn 0.27183 0.74844 0.25053 0.0
O118 O 0.16716 0.69678 0.24897 0.0
O119 O 0.21214 0.62357 0.25159 0.0
O120 O 0.30346 0.7232 0.2212 0.0
O121 O 0.3585 0.66078 0.22803 0.0
O122 O 0.39577 0.80728 0.25225 0.0
O123 O 0.32278 0.85281 0.24998 0.0
C124 C 0.15711 0.63273 0.25005 0.0
C125 C 0.38671 0.86252 0.2511 0.0
C126 C 0.63406 0.31857 0.62431 0.0
C127 C 0.65161 0.331 0.5478 0.0
O128 O 0.69176 0.34723 0.61335 0.0
Zn129 Zn 0.64449 0.32416 0.58608 0.0
O130 O 0.57218 0.28794 0.61509 0.0
Zn131 Zn 0.52963 0.26734 0.5838 0.0
O132 O 0.47664 0.16262 0.58239 0.0
O133 O 0.59489 0.20774 0.58476 0.0
O134 O 0.58579 0.29857 0.55434 0.0
O135 O 0.70338 0.35388 0.56096 0.0
O136 O 0.59465 0.39129 0.58537 0.0
O137 O 0.47608 0.31817 0.58334 0.0
C138 C 0.53068 0.15264 0.58337 0.0
C139 C 0.53031 0.38215 0.58434 0.0
C140 C 0.33212 0.65097 0.88146 0.0
C141 C 0.32611 0.63186 0.95794 0.0
O142 O 0.36099 0.70257 0.89468 0.0
Zn143 Zn 0.33143 0.64318 0.91972 0.0
O144 O 0.29857 0.58505 0.88791 0.0
Zn145 Zn 0.2733 0.5283 0.91725 0.0
O146 O 0.16892 0.47486 0.9167 0.0
O147 O 0.21446 0.59343 0.91891 0.0
O148 O 0.29493 0.57019 0.9486 0.0
O149 O 0.35535 0.68983 0.94709 0.0
O150 O 0.39817 0.59353 0.9183 0.0
O151 O 0.325 0.47531 0.91573 0.0
C152 C 0.15922 0.52911 0.91778 0.0
C153 C 0.38904 0.52933 0.91678 0.0
C154 C 0.70083 0.32005 0.29095 0.0
C155 C 0.68829 0.32531 0.21445 0.0
O156 O 0.67213 0.34911 0.28002 0.0
Zn157 Zn 0.69506 0.32488 0.25272 0.0
O158 O 0.73138 0.28878 0.28169 0.0
Zn159 Zn 0.75181 0.26677 0.25039 0.0
O160 O 0.8565 0.31841 0.24894 0.0
O161 O 0.81148 0.39163 0.25137 0.0
O162 O 0.72063 0.29183 0.22096 0.0
O163 O 0.66542 0.3542 0.22762 0.0
O164 O 0.62786 0.20791 0.25202 0.0
O165 O 0.70089 0.16238 0.24993 0.0
C166 C 0.86654 0.38247 0.24994 0.0
C167 C 0.63694 0.15266 0.25097 0.0
C168 C 0.35942 0.69959 0.99244 0.0
C169 C 0.32677 0.63378 0.98121 0.0
H170 H 0.3843 0.75079 0.02277 0.0
C171 C 0.29361 0.56814 0.99246 0.0
H172 H 0.38538 0.75108 0.98422 0.0
C173 C 0.29294 0.56797 0.01432 0.0
C174 C 0.32543 0.63344 0.02564 0.0
H175 H 0.26786 0.51634 0.9844 0.0
H176 H 0.26676 0.51606 0.02232 0.0
C177 C 0.35876 0.69942 0.01449 0.0
C178 C 0.73146 0.28787 0.34741 0.0
C179 C 0.69805 0.32012 0.35864 0.0
H180 H 0.75852 0.26275 0.31757 0.0
C181 C 0.66522 0.35305 0.3474 0.0
H182 H 0.75737 0.26202 0.35549 0.0
C183 C 0.66591 0.3535 0.32535 0.0
C184 C 0.69945 0.32103 0.31421 0.0
H185 H 0.63907 0.37841 0.3556 0.0
H186 H 0.6402 0.37911 0.31705 0.0
C187 C 0.73216 0.28832 0.32556 0.0
C188 C 0.45248 0.72786 0.6809 0.0
C189 C 0.38714 0.69524 0.69229 0.0
H190 H 0.50381 0.75386 0.65093 0.0
C191 C 0.32106 0.66262 0.6812 0.0
H192 H 0.50446 0.75354 0.68885 0.0
C193 C 0.32067 0.66283 0.65915 0.0
C194 C 0.38636 0.69566 0.64786 0.0
H195 H 0.26978 0.63706 0.68953 0.0
H196 H 0.2691 0.63735 0.65099 0.0
C197 C 0.45209 0.72807 0.65904 0.0
C198 C 0.66832 0.3176 0.01408 0.0
C199 C 0.70139 0.38341 0.02531 0.0
H200 H 0.64225 0.2664 0.98375 0.0
C201 C 0.73397 0.44905 0.01406 0.0
H202 H 0.64271 0.2661 0.0223 0.0
C203 C 0.73367 0.44921 0.9922 0.0
C204 C 0.70078 0.38375 0.98088 0.0
H205 H 0.75996 0.50085 0.02212 0.0
H206 H 0.75948 0.50113 0.9842 0.0
C207 C 0.66802 0.31777 0.99203 0.0
C208 C 0.29047 0.72757 0.32577 0.0
C209 C 0.32319 0.69463 0.31454 0.0
H210 H 0.26483 0.75411 0.35561 0.0
C211 C 0.35634 0.66201 0.32578 0.0
H212 H 0.26441 0.75327 0.31769 0.0
C213 C 0.3566 0.66252 0.34783 0.0
C214 C 0.32372 0.69565 0.35897 0.0
H215 H 0.38205 0.63621 0.31758 0.0
H216 H 0.38244 0.63702 0.35612 0.0
C217 C 0.29074 0.72808 0.34762 0.0
C218 C 0.70302 0.35413 0.68071 0.0
C219 C 0.63733 0.32163 0.692 0.0
H220 H 0.7539 0.37879 0.65033 0.0
C221 C 0.57159 0.28855 0.68082 0.0
H222 H 0.75459 0.38003 0.68887 0.0
C223 C 0.5712 0.28779 0.65896 0.0
C224 C 0.63654 0.3201 0.64757 0.0
H225 H 0.51988 0.26293 0.68893 0.0
H226 H 0.51921 0.26167 0.65102 0.0
C227 C 0.70262 0.35337 0.65866 0.0
C228 C 0.34552 0.62259 0.18383 0.0
C229 C 0.34384 0.68299 0.192 0.0
H230 H 0.34365 0.56424 0.15619 0.0
C231 C 0.34512 0.73501 0.1781 0.0
H232 H 0.34438 0.58163 0.19419 0.0
C233 C 0.34616 0.72587 0.15639 0.0
C234 C 0.34414 0.66363 0.14821 0.0
H235 H 0.34427 0.78235 0.18402 0.0
H236 H 0.34553 0.76596 0.14603 0.0
C237 C 0.34477 0.61255 0.16211 0.0
C238 C 0.62467 0.34015 0.4894 0.0
C239 C 0.6854 0.33921 0.48119 0.0
H240 H 0.56602 0.33738 0.51707 0.0
C241 C 0.73764 0.34083 0.49506 0.0
H242 H 0.58353 0.33871 0.47906 0.0
C243 C 0.72841 0.34152 0.51678 0.0
C244 C 0.66589 0.33879 0.525 0.0
H245 H 0.78522 0.34054 0.48911 0.0
H246 H 0.76871 0.3412 0.52711 0.0
C247 C 0.61456 0.33905 0.51113 0.0
C248 C 0.29569 0.62477 0.82309 0.0
C249 C 0.35792 0.6849 0.81487 0.0
H250 H 0.23928 0.56658 0.85076 0.0
C251 C 0.4091 0.73666 0.82874 0.0
H252 H 0.25552 0.58401 0.81276 0.0
C253 C 0.39915 0.72749 0.85046 0.0
C254 C 0.33874 0.6655 0.85867 0.0
H255 H 0.45741 0.78379 0.82278 0.0
H256 H 0.44018 0.76735 0.86079 0.0
C257 C 0.28663 0.6147 0.84481 0.0
C258 C 0.67934 0.28948 0.15604 0.0
C259 C 0.68105 0.35155 0.14784 0.0
H260 H 0.68116 0.23306 0.1837 0.0
C261 C 0.67979 0.40235 0.16173 0.0
H262 H 0.68046 0.24961 0.14569 0.0
C263 C 0.67873 0.39222 0.18344 0.0
C264 C 0.68071 0.33201 0.19164 0.0
H265 H 0.68066 0.45053 0.15579 0.0
H266 H 0.67938 0.43298 0.19379 0.0
C267 C 0.68006 0.28025 0.17776 0.0
C268 C 0.2921 0.67467 0.51716 0.0
C269 C 0.35397 0.67591 0.52532 0.0
H270 H 0.23594 0.67719 0.48953 0.0
C271 C 0.40465 0.67457 0.5114 0.0
H272 H 0.25235 0.67589 0.52753 0.0
C273 C 0.39461 0.67386 0.48969 0.0
C274 C 0.33462 0.6763 0.48153 0.0
H275 H 0.45268 0.67509 0.51731 0.0
H276 H 0.43529 0.67441 0.47933 0.0
C277 C 0.28297 0.67576 0.49544 0.0
C278 C 0.62955 0.29112 0.85015 0.0
C279 C 0.68973 0.35342 0.85832 0.0
H280 H 0.57119 0.23453 0.82254 0.0
C281 C 0.7414 0.4045 0.8444 0.0
H282 H 0.58886 0.25103 0.86052 0.0
C283 C 0.7321 0.3944 0.82268 0.0
C284 C 0.67006 0.33394 0.81453 0.0
H285 H 0.78856 0.45286 0.8503 0.0
H286 H 0.77189 0.43537 0.81231 0.0
C287 C 0.61936 0.28191 0.82844 0.0
C288 C 1.00332 0.56834 0.09024 0.0
C289 C 0.94211 0.49828 0.09011 0.0
H290 H 0.11926 0.63266 0.09025 0.0
C291 C 0.95262 0.43799 0.09014 0.0
H292 H 0.99724 0.61596 0.09022 0.0
C293 C 0.02264 0.44752 0.09022 0.0
C294 C 0.08385 0.51758 0.09019 0.0
H295 H 0.90671 0.38321 0.09007 0.0
H296 H 0.02872 0.39991 0.09018 0.0
C297 C 0.07334 0.57787 0.09024 0.0
C298 C 0.58049 0.01761 0.42352 0.0
C299 C 0.57163 0.07881 0.42338 0.0
H300 H 0.52887 0.90166 0.42356 0.0
C301 C 0.50083 0.06827 0.42341 0.0
H302 H 0.63418 0.02371 0.4235 0.0
C303 C 0.44034 0.99823 0.42351 0.0
C304 C 0.4492 0.93704 0.42349 0.0
H305 H 0.49196 0.11418 0.42333 0.0
H306 H 0.38665 0.99214 0.42346 0.0
C307 C 0.52 0.94757 0.42354 0.0
C308 C 0.45293 0.43905 0.75701 0.0
C309 C 0.52298 0.44794 0.75683 0.0
H310 H 0.38859 0.49064 0.75702 0.0
C311 C 0.58325 0.51876 0.75679 0.0
H312 H 0.40533 0.38534 0.75705 0.0
C313 C 0.57369 0.57924 0.75683 0.0
C314 C 0.50363 0.57035 0.75684 0.0
H315 H 0.63803 0.52766 0.75668 0.0
H316 H 0.62129 0.63296 0.75673 0.0
C317 C 0.44337 0.49953 0.75698 0.0
C318 C 0.45016 0.01703 0.5831 0.0
C319 C 0.52021 0.07824 0.58308 0.0
H320 H 0.38584 0.90108 0.58326 0.0
C321 C 0.58049 0.06772 0.58295 0.0
H322 H 0.40256 0.02312 0.5832 0.0
C323 C 0.57094 0.99768 0.58292 0.0
C324 C 0.50089 0.93648 0.58311 0.0
H325 H 0.63526 0.11363 0.5829 0.0
H326 H 0.61854 0.99159 0.58289 0.0
C327 C 0.44062 0.947 0.58315 0.0
C328 C 0.44412 0.44882 0.91629 0.0
C329 C 0.45297 0.51887 0.91643 0.0
H330 H 0.49574 0.3845 0.91626 0.0
C331 C 0.52378 0.57917 0.91638 0.0
H332 H 0.39042 0.4012 0.91632 0.0
C333 C 0.58427 0.56963 0.91629 0.0
C334 C 0.57541 0.49958 0.91632 0.0
H335 H 0.53265 0.63395 0.91645 0.0
H336 H 0.63796 0.61725 0.91633 0.0
C337 C 0.50461 0.43929 0.91628 0.0
C338 C 0.07215 0.49798 0.24969 0.0
C339 C 0.08271 0.56881 0.2497 0.0
H340 H 0.996 0.38379 0.2497 0.0
C341 C 0.02154 0.57769 0.24955 0.0
H342 H 0.11805 0.4891 0.24977 0.0
C343 C 0.9515 0.51721 0.24956 0.0
C344 C 0.94095 0.44639 0.24964 0.0
H345 H 0.02766 0.6314 0.24955 0.0
H346 H 0.90561 0.5261 0.24953 0.0
C347 C 1.00212 0.4375 0.24963 0.0
C348 C 0.583 0.56839 0.0889 0.0
C349 C 0.57418 0.49835 0.08881 0.0
H350 H 0.53132 0.6326 0.08896 0.0
C351 C 0.50344 0.43799 0.08881 0.0
H352 H 0.63667 0.61605 0.0889 0.0
C353 C 0.44295 0.44745 0.0889 0.0
C354 C 0.45178 0.51749 0.08892 0.0
H355 H 0.49464 0.38323 0.08877 0.0
H356 H 0.38928 0.39979 0.08889 0.0
C357 C 0.52251 0.57784 0.08892 0.0
C358 C 0.94999 0.51755 0.42218 0.0
C359 C 0.93957 0.44681 0.42221 0.0
H360 H 0.02601 0.63173 0.42223 0.0
C361 C 1.00075 0.43795 0.42229 0.0
H362 H 0.90405 0.52638 0.42214 0.0
C363 C 0.07072 0.49843 0.42229 0.0
C364 C 0.08114 0.56918 0.42228 0.0
H365 H 0.99471 0.38427 0.42231 0.0
H366 H 0.11665 0.4896 0.42234 0.0
C367 C 0.01996 0.57804 0.42225 0.0
C368 C 0.58321 0.06952 0.75541 0.0
C369 C 0.52288 0.07992 0.75551 0.0
H370 H 0.62136 0.99351 0.75537 0.0
C371 C 0.45284 0.01871 0.75563 0.0
H372 H 0.63797 0.11547 0.75535 0.0
C373 C 0.44335 0.94874 0.75559 0.0
C374 C 0.50368 0.93834 0.7555 0.0
H375 H 0.4052 0.02474 0.75569 0.0
H376 H 0.38859 0.90279 0.75566 0.0
C377 C 0.57372 0.99955 0.75544 0.0
C378 C 0.44044 0.4977 0.5844 0.0
C379 C 0.50078 0.56845 0.5843 0.0
H380 H 0.40227 0.38352 0.58444 0.0
C381 C 0.57081 0.57729 0.58418 0.0
H382 H 0.38568 0.48889 0.58447 0.0
C383 C 0.58028 0.5168 0.58422 0.0
C384 C 0.51994 0.44606 0.58431 0.0
H385 H 0.61845 0.63097 0.58411 0.0
H386 H 0.63504 0.52563 0.58414 0.0
C387 C 0.44991 0.43721 0.58437 0.0
C388 C 0.07459 0.57914 0.91771 0.0
C389 C 0.08496 0.51878 0.9177 0.0
H390 H 0.99863 0.61734 0.91762 0.0
C391 C 0.02374 0.44875 0.91762 0.0
H392 H 0.12054 0.6339 0.91774 0.0
C393 C 0.95379 0.43929 0.91761 0.0
C394 C 0.94342 0.49965 0.9176 0.0
H395 H 0.02975 0.40109 0.91762 0.0
H396 H 0.90783 0.38453 0.91757 0.0
C397 C 1.00464 0.56969 0.91762 0.0
C398 C 0.44181 0.99801 0.25095 0.0
C399 C 0.45064 0.9368 0.25104 0.0
H400 H 0.49349 0.11393 0.25089 0.0
C401 C 0.52137 0.9472 0.25109 0.0
H402 H 0.38814 0.99197 0.25092 0.0
C403 C 0.58186 0.01717 0.25102 0.0
C404 C 0.57302 0.07838 0.25097 0.0
H405 H 0.53018 0.90125 0.25113 0.0
H406 H 0.63553 0.02321 0.25105 0.0
C407 C 0.5023 0.06798 0.25095 0.0
loop_
_geom_bond_atom_site_label_1
_geom_bond_atom_site_label_2
_geom_bond_distance
_geom_bond_site_symmetry_2
_ccdc_geom_bond_type
C0 O2 1.247 . S
C0 O4 1.258 . S
C1 O8 1.247 . S
C1 O9 1.258 . S
O2 C0 1.247 . S
O2 Zn3 2.028 . S
Zn3 O2 2.028 . S
Zn3 O7 2.035 . S
Zn3 O9 2.035 . S
Zn3 O10 2.028 . S
O4 C0 1.258 . S
O4 Zn5 2.035 . S
Zn5 O4 2.035 . S
Zn5 O6 2.028 . S
Zn5 O8 2.028 . S
Zn5 O11 2.035 . S
O6 Zn5 2.028 . S
O6 C12 1.247 . S
O7 Zn3 2.035 . S
O7 C12 1.258 . S
O8 C1 1.247 . S
O8 Zn5 2.028 . S
O9 C1 1.258 . S
O9 Zn3 2.035 . S
O10 Zn3 2.028 . S
O10 C13 1.247 . S
O11 Zn5 2.035 . S
O11 C13 1.258 . S
C12 O6 1.247 . S
C12 O7 1.258 . S
C13 O10 1.247 . S
C13 O11 1.258 . S
C14 O16 1.247 . S
C14 O18 1.258 . S
C15 O22 1.247 . S
C15 O23 1.258 . S
O16 C14 1.247 . S
O16 Zn17 2.028 . S
Zn17 O16 2.028 . S
Zn17 O21 2.035 . S
Zn17 O23 2.035 . S
Zn17 O24 2.028 . S
O18 C14 1.258 . S
O18 Zn19 2.035 . S
Zn19 O18 2.035 . S
Zn19 O20 2.028 . S
Zn19 O22 2.028 . S
Zn19 O25 2.035 . S
O20 Zn19 2.028 . S
O20 C26 1.247 . S
O21 Zn17 2.035 . S
O21 C26 1.258 . S
O22 C15 1.247 . S
O22 Zn19 2.028 . S
O23 C15 1.258 . S
O23 Zn17 2.035 . S
O24 Zn17 2.028 . S
O24 C27 1.247 . S
O25 Zn19 2.035 . S
O25 C27 1.258 . S
C26 O20 1.247 . S
C26 O21 1.258 . S
C27 O24 1.247 . S
C27 O25 1.258 . S
C28 O30 1.247 . S
C28 O32 1.258 . S
C29 O36 1.247 . S
C29 O37 1.258 . S
O30 C28 1.247 . S
O30 Zn31 2.028 . S
Zn31 O30 2.028 . S
Zn31 O35 2.035 . S
Zn31 O37 2.035 . S
Zn31 O38 2.028 . S
O32 C28 1.258 . S
O32 Zn33 2.035 . S
Zn33 O32 2.035 . S
Zn33 O34 2.028 . S
Zn33 O36 2.028 . S
Zn33 O39 2.035 . S
O34 Zn33 2.028 . S
O34 C40 1.247 . S
O35 Zn31 2.035 . S
O35 C40 1.258 . S
O36 C29 1.247 . S
O36 Zn33 2.028 . S
O37 C29 1.258 . S
O37 Zn31 2.035 . S
O38 Zn31 2.028 . S
O38 C41 1.247 . S
O39 Zn33 2.035 . S
O39 C41 1.258 . S
C40 O34 1.247 . S
C40 O35 1.258 . S
C41 O38 1.247 . S
C41 O39 1.258 . S
C42 O44 1.247 . S
C42 O46 1.258 . S
C43 O50 1.247 . S
C43 O51 1.258 . S
O44 C42 1.247 . S
O44 Zn45 2.028 . S
Zn45 O44 2.028 . S
Zn45 O49 2.035 . S
Zn45 O51 2.035 . S
Zn45 O52 2.028 . S
O46 C42 1.258 . S
O46 Zn47 2.035 . S
Zn47 O46 2.035 . S
Zn47 O48 2.028 . S
Zn47 O50 2.028 . S
Zn47 O53 2.035 . S
O48 Zn47 2.028 . S
O48 C54 1.247 . S
O49 Zn45 2.035 . S
O49 C54 1.258 . S
O50 C43 1.247 . S
O50 Zn47 2.028 . S
O51 C43 1.258 . S
O51 Zn45 2.035 . S
O52 Zn45 2.028 . S
O52 C55 1.247 . S
O53 Zn47 2.035 . S
O53 C55 1.258 . S
C54 O48 1.247 . S
C54 O49 1.258 . S
C55 O52 1.247 . S
C55 O53 1.258 . S
C56 O58 1.247 . S
C56 O60 1.258 . S
C57 O64 1.247 . S
C57 O65 1.258 . S
O58 C56 1.247 . S
O58 Zn59 2.028 . S
Zn59 O58 2.028 . S
Zn59 O63 2.035 . S
Zn59 O65 2.035 . S
Zn59 O66 2.028 . S
O60 C56 1.258 . S
O60 Zn61 2.035 . S
Zn61 O60 2.035 . S
Zn61 O62 2.028 . S
Zn61 O64 2.028 . S
Zn61 O67 2.035 . S
O62 Zn61 2.028 . S
O62 C68 1.247 . S
O63 Zn59 2.035 . S
O63 C68 1.258 . S
O64 C57 1.247 . S
O64 Zn61 2.028 . S
O65 C57 1.258 . S
O65 Zn59 2.035 . S
O66 Zn59 2.028 . S
O66 C69 1.247 . S
O67 Zn61 2.035 . S
O67 C69 1.258 . S
C68 O62 1.247 . S
C68 O63 1.258 . S
C69 O66 1.247 . S
C69 O67 1.258 . S
C70 O72 1.247 . S
C70 O74 1.258 . S
C71 O78 1.247 . S
C71 O79 1.258 . S
O72 C70 1.247 . S
O72 Zn73 2.028 . S
Zn73 O72 2.028 . S
Zn73 O77 2.035 . S
Zn73 O79 2.035 . S
Zn73 O80 2.028 . S
O74 C70 1.258 . S
O74 Zn75 2.035 . S
Zn75 O74 2.035 . S
Zn75 O76 2.028 . S
Zn75 O78 2.028 . S
Zn75 O81 2.035 . S
O76 Zn75 2.028 . S
O76 C82 1.247 . S
O77 Zn73 2.035 . S
O77 C82 1.258 . S
O78 C71 1.247 . S
O78 Zn75 2.028 . S
O79 C71 1.258 . S
O79 Zn73 2.035 . S
O80 Zn73 2.028 . S
O80 C83 1.247 . S
O81 Zn75 2.035 . S
O81 C83 1.258 . S
C82 O76 1.247 . S
C82 O77 1.258 . S
C83 O80 1.247 . S
C83 O81 1.258 . S
C84 O86 1.247 . S
C84 O88 1.258 . S
C85 O92 1.247 . S
C85 O93 1.258 . S
O86 C84 1.247 . S
O86 Zn87 2.028 . S
Zn87 O86 2.028 . S
Zn87 O91 2.035 . S
Zn87 O93 2.035 . S
Zn87 O94 2.028 . S
O88 C84 1.258 . S
O88 Zn89 2.035 . S
Zn89 O88 2.035 . S
Zn89 O90 2.028 . S
Zn89 O92 2.028 . S
Zn89 O95 2.035 . S
O90 Zn89 2.028 . S
O90 C96 1.247 . S
O91 Zn87 2.035 . S
O91 C96 1.258 . S
O92 C85 1.247 . S
O92 Zn89 2.028 . S
O93 C85 1.258 . S
O93 Zn87 2.035 . S
O94 Zn87 2.028 . S
O94 C97 1.247 . S
O95 Zn89 2.035 . S
O95 C97 1.258 . S
C96 O90 1.247 . S
C96 O91 1.258 . S
C97 O94 1.247 . S
C97 O95 1.258 . S
C98 O100 1.247 . S
C98 O102 1.258 . S
C99 O106 1.247 . S
C99 O107 1.258 . S
O100 C98 1.247 . S
O100 Zn101 2.028 . S
Zn101 O100 2.028 . S
Zn101 O105 2.035 . S
Zn101 O107 2.035 . S
Zn101 O108 2.028 . S
O102 C98 1.258 . S
O102 Zn103 2.035 . S
Zn103 O102 2.035 . S
Zn103 O104 2.028 . S
Zn103 O106 2.028 . S
Zn103 O109 2.035 . S
O104 Zn103 2.028 . S
O104 C110 1.247 . S
O105 Zn101 2.035 . S
O105 C110 1.258 . S
O106 C99 1.247 . S
O106 Zn103 2.028 . S
O107 C99 1.258 . S
O107 Zn101 2.035 . S
O108 Zn101 2.028 . S
O108 C111 1.247 . S
O109 Zn103 2.035 . S
O109 C111 1.258 . S
C110 O104 1.247 . S
C110 O105 1.258 . S
C111 O108 1.247 . S
C111 O109 1.258 . S
C112 O114 1.247 . S
C112 O116 1.258 . S
C113 O120 1.247 . S
C113 O121 1.258 . S
O114 C112 1.247 . S
O114 Zn115 2.028 . S
Zn115 O114 2.028 . S
Zn115 O119 2.035 . S
Zn115 O121 2.035 . S
Zn115 O122 2.028 . S
O116 C112 1.258 . S
O116 Zn117 2.035 . S
Zn117 O116 2.035 . S
Zn117 O118 2.028 . S
Zn117 O120 2.028 . S
Zn117 O123 2.035 . S
O118 Zn117 2.028 . S
O118 C124 1.247 . S
O119 Zn115 2.035 . S
O119 C124 1.258 . S
O120 C113 1.247 . S
O120 Zn117 2.028 . S
O121 C113 1.258 . S
O121 Zn115 2.035 . S
O122 Zn115 2.028 . S
O122 C125 1.247 . S
O123 Zn117 2.035 . S
O123 C125 1.258 . S
C124 O118 1.247 . S
C124 O119 1.258 . S
C125 O122 1.247 . S
C125 O123 1.258 . S
C126 O128 1.247 . S
C126 O130 1.258 . S
C127 O134 1.247 . S
C127 O135 1.258 . S
O128 C126 1.247 . S
O128 Zn129 2.028 . S
Zn129 O128 2.028 . S
Zn129 O133 2.035 . S
Zn129 O135 2.035 . S
Zn129 O136 2.028 . S
O130 C126 1.258 . S
O130 Zn131 2.035 . S
Zn131 O130 2.035 . S
Zn131 O132 2.028 . S
Zn131 O134 2.028 . S
Zn131 O137 2.035 . S
O132 Zn131 2.028 . S
O132 C138 1.247 . S
O133 Zn129 2.035 . S
O133 C138 1.258 . S
O134 C127 1.247 . S
O134 Zn131 2.028 . S
O135 C127 1.258 . S
O135 Zn129 2.035 . S
O136 Zn129 2.028 . S
O136 C139 1.247 . S
O137 Zn131 2.035 . S
O137 C139 1.258 . S
C138 O132 1.247 . S
C138 O133 1.258 . S
C139 O136 1.247 . S
C139 O137 1.258 . S
C140 O142 1.247 . S
C140 O144 1.258 . S
C141 O148 1.247 . S
C141 O149 1.258 . S
O142 C140 1.247 . S
O142 Zn143 2.028 . S
Zn143 O142 2.028 . S
Zn143 O147 2.035 . S
Zn143 O149 2.035 . S
Zn143 O150 2.028 . S
O144 C140 1.258 . S
O144 Zn145 2.035 . S
Zn145 O144 2.035 . S
Zn145 O146 2.028 . S
Zn145 O148 2.028 . S
Zn145 O151 2.035 . S
O146 Zn145 2.028 . S
O146 C152 1.247 . S
O147 Zn143 2.035 . S
O147 C152 1.258 . S
O148 C141 1.247 . S
O148 Zn145 2.028 . S
O149 C141 1.258 . S
O149 Zn143 2.035 . S
O150 Zn143 2.028 . S
O150 C153 1.247 . S
O151 Zn145 2.035 . S
O151 C153 1.258 . S
C152 O146 1.247 . S
C152 O147 1.258 . S
C153 O150 1.247 . S
C153 O151 1.258 . S
C154 O156 1.247 . S
C154 O158 1.258 . S
C155 O162 1.247 . S
C155 O163 1.258 . S
O156 C154 1.247 . S
O156 Zn157 2.028 . S
Zn157 O156 2.028 . S
Zn157 O161 2.035 . S
Zn157 O163 2.035 . S
Zn157 O164 2.028 . S
O158 C154 1.258 . S
O158 Zn159 2.035 . S
Zn159 O158 2.035 . S
Zn159 O160 2.028 . S
Zn159 O162 2.028 . S
Zn159 O165 2.035 . S
O160 Zn159 2.028 . S
O160 C166 1.247 . S
O161 Zn157 2.035 . S
O161 C166 1.258 . S
O162 C155 1.247 . S
O162 Zn159 2.028 . S
O163 C155 1.258 . S
O163 Zn157 2.035 . S
O164 Zn157 2.028 . S
O164 C167 1.247 . S
O165 Zn159 2.035 . S
O165 C167 1.258 . S
C166 O160 1.247 . S
C166 O161 1.258 . S
C167 O164 1.247 . S
C167 O165 1.258 . S
C168 C169 1.387 . S
C168 H172 0.950 . S
C168 C177 1.390 1_556 S
C169 C168 1.387 . S
C169 C171 1.387 . S
H170 C177 0.950 . S
C171 C169 1.387 . S
C171 C173 1.390 1_556 S
C171 H175 0.950 . S
H172 C168 0.950 . S
C173 C171 1.390 1_554 S
C173 C174 1.387 . S
C173 H176 0.950 . S
C174 C173 1.387 . S
C174 C177 1.387 . S
H175 C171 0.950 . S
H176 C173 0.950 . S
C177 C168 1.390 1_554 S
C177 H170 0.950 . S
C177 C174 1.387 . S
C178 C179 1.387 . S
C178 H182 0.950 . S
C178 C187 1.390 . S
C179 C178 1.387 . S
C179 C181 1.387 . S
H180 C187 0.950 . S
C181 C179 1.387 . S
C181 C183 1.390 . S
C181 H185 0.950 . S
H182 C178 0.950 . S
C183 C181 1.390 . S
C183 C184 1.387 . S
C183 H186 0.950 . S
C184 C183 1.387 . S
C184 C187 1.387 . S
H185 C181 0.950 . S
H186 C183 0.950 . S
C187 C178 1.390 . S
C187 H180 0.950 . S
C187 C184 1.387 . S
C188 C189 1.387 . S
C188 H192 0.950 . S
C188 C197 1.390 . S
C189 C188 1.387 . S
C189 C191 1.387 . S
H190 C197 0.950 . S
C191 C189 1.387 . S
C191 C193 1.390 . S
C191 H195 0.950 . S
H192 C188 0.950 . S
C193 C191 1.390 . S
C193 C194 1.387 . S
C193 H196 0.950 . S
C194 C193 1.387 . S
C194 C197 1.387 . S
H195 C191 0.950 . S
H196 C193 0.950 . S
C197 C188 1.390 . S
C197 H190 0.950 . S
C197 C194 1.387 . S
C198 C199 1.387 . S
C198 H202 0.950 . S
C198 C207 1.390 1_554 S
C199 C198 1.387 . S
C199 C201 1.387 . S
H200 C207 0.950 . S
C201 C199 1.387 . S
C201 C203 1.390 1_554 S
C201 H205 0.950 . S
H202 C198 0.950 . S
C203 C201 1.390 1_556 S
C203 C204 1.387 . S
C203 H206 0.950 . S
C204 C203 1.387 . S
C204 C207 1.387 . S
H205 C201 0.950 . S
H206 C203 0.950 . S
C207 C198 1.390 1_556 S
C207 H200 0.950 . S
C207 C204 1.387 . S
C208 C209 1.387 . S
C208 H212 0.950 . S
C208 C217 1.390 . S
C209 C208 1.387 . S
C209 C211 1.387 . S
H210 C217 0.950 . S
C211 C209 1.387 . S
C211 C213 1.390 . S
C211 H215 0.950 . S
H212 C208 0.950 . S
C213 C211 1.390 . S
C213 C214 1.387 . S
C213 H216 0.950 . S
C214 C213 1.387 . S
C214 C217 1.387 . S
H215 C211 0.950 . S
H216 C213 0.950 . S
C217 C208 1.390 . S
C217 H210 0.950 . S
C217 C214 1.387 . S
C218 C219 1.387 . S
C218 H222 0.950 . S
C218 C227 1.390 . S
C219 C218 1.387 . S
C219 C221 1.387 . S
H220 C227 0.950 . S
C221 C219 1.387 . S
C221 C223 1.390 . S
C221 H225 0.950 . S
H222 C218 0.950 . S
C223 C221 1.390 . S
C223 C224 1.387 . S
C223 H226 0.950 . S
C224 C223 1.387 . S
C224 C227 1.387 . S
H225 C221 0.950 . S
H226 C223 0.950 . S
C227 C218 1.390 . S
C227 H220 0.950 . S
C227 C224 1.387 . S
C228 C229 1.387 . S
C228 H232 0.950 . S
C228 C237 1.390 . S
C229 C228 1.387 . S
C229 C231 1.387 . S
H230 C237 0.950 . S
C231 C229 1.387 . S
C231 C233 1.390 . S
C231 H235 0.950 . S
H232 C228 0.950 . S
C233 C231 1.390 . S
C233 C234 1.387 . S
C233 H236 0.950 . S
C234 C233 1.387 . S
C234 C237 1.387 . S
H235 C231 0.950 . S
H236 C233 0.950 . S
C237 C228 1.390 . S
C237 H230 0.950 . S
C237 C234 1.387 . S
C238 C239 1.387 . S
C238 H242 0.950 . S
C238 C247 1.390 . S
C239 C238 1.387 . S
C239 C241 1.387 . S
H240 C247 0.950 . S
C241 C239 1.387 . S
C241 C243 1.390 . S
C241 H245 0.950 . S
H242 C238 0.950 . S
C243 C241 1.390 . S
C243 C244 1.387 . S
C243 H246 0.950 . S
C244 C243 1.387 . S
C244 C247 1.387 . S
H245 C241 0.950 . S
H246 C243 0.950 . S
C247 C238 1.390 . S
C247 H240 0.950 . S
C247 C244 1.387 . S
C248 C249 1.387 . S
C248 H252 0.950 . S
C248 C257 1.390 . S
C249 C248 1.387 . S
C249 C251 1.387 . S
H250 C257 0.950 . S
C251 C249 1.387 . S
C251 C253 1.390 . S
C251 H255 0.950 . S
H252 C248 0.950 . S
C253 C251 1.390 . S
C253 C254 1.387 . S
C253 H256 0.950 . S
C254 C253 1.387 . S
C254 C257 1.387 . S
H255 C251 0.950 . S
H256 C253 0.950 . S
C257 C248 1.390 . S
C257 H250 0.950 . S
C257 C254 1.387 . S
C258 C259 1.387 . S
C258 H262 0.950 . S
C258 C267 1.390 . S
C259 C258 1.387 . S
C259 C261 1.387 . S
H260 C267 0.950 . S
C261 C259 1.387 . S
C261 C263 1.390 . S
C261 H265 0.950 . S
H262 C258 0.950 . S
C263 C261 1.390 . S
C263 C264 1.387 . S
C263 H266 0.950 . S
C264 C263 1.387 . S
C264 C267 1.387 . S
H265 C261 0.950 . S
H266 C263 0.950 . S
C267 C258 1.390 . S
C267 H260 0.950 . S
C267 C264 1.387 . S
C268 C269 1.387 . S
C268 H272 0.950 . S
C268 C277 1.390 . S
C269 C268 1.387 . S
C269 C271 1.387 . S
H270 C277 0.950 . S
C271 C269 1.387 . S
C271 C273 1.390 . S
C271 H275 0.950 . S
H272 C268 0.950 . S
C273 C271 1.390 . S
C273 C274 1.387 . S
C273 H276 0.950 . S
C274 C273 1.387 . S
C274 C277 1.387 . S
H275 C271 0.950 . S
H276 C273 0.950 . S
C277 C268 1.390 . S
C277 H270 0.950 . S
C277 C274 1.387 . S
C278 C279 1.387 . S
C278 H282 0.950 . S
C278 C287 1.390 . S
C279 C278 1.387 . S
C279 C281 1.387 . S
H280 C287 0.950 . S
C281 C279 1.387 . S
C281 C283 1.390 . S
C281 H285 0.950 . S
H282 C278 0.950 . S
C283 C281 1.390 . S
C283 C284 1.387 . S
C283 H286 0.950 . S
C284 C283 1.387 . S
C284 C287 1.387 . S
H285 C281 0.950 . S
H286 C283 0.950 . S
C287 C278 1.390 . S
C287 H280 0.950 . S
C287 C284 1.387 . S
C288 C289 1.387 . S
C288 H292 0.950 . S
C288 C297 1.390 1_655 S
C289 C288 1.387 . S
C289 C291 1.387 . S
H290 C297 0.950 . S
C291 C289 1.387 . S
C291 C293 1.390 1_655 S
C291 H295 0.950 . S
H292 C288 0.950 . S
C293 C291 1.390 1_455 S
C293 C294 1.387 . S
C293 H296 0.950 . S
C294 C293 1.387 . S
C294 C297 1.387 . S
H295 C291 0.950 . S
H296 C293 0.950 . S
C297 C288 1.390 1_455 S
C297 H290 0.950 . S
C297 C294 1.387 . S
C298 C299 1.387 . S
C298 H302 0.950 . S
C298 C307 1.390 1_545 S
C299 C298 1.387 . S
C299 C301 1.387 . S
H300 C307 0.950 . S
C301 C299 1.387 . S
C301 C303 1.390 1_545 S
C301 H305 0.950 . S
H302 C298 0.950 . S
C303 C301 1.390 1_565 S
C303 C304 1.387 . S
C303 H306 0.950 . S
C304 C303 1.387 . S
C304 C307 1.387 . S
H305 C301 0.950 . S
H306 C303 0.950 . S
C307 C298 1.390 1_565 S
C307 H300 0.950 . S
C307 C304 1.387 . S
C308 C309 1.387 . S
C308 H312 0.950 . S
C308 C317 1.390 . S
C309 C308 1.387 . S
C309 C311 1.387 . S
H310 C317 0.950 . S
C311 C309 1.387 . S
C311 C313 1.390 . S
C311 H315 0.950 . S
H312 C308 0.950 . S
C313 C311 1.390 . S
C313 C314 1.387 . S
C313 H316 0.950 . S
C314 C313 1.387 . S
C314 C317 1.387 . S
H315 C311 0.950 . S
H316 C313 0.950 . S
C317 C308 1.390 . S
C317 H310 0.950 . S
C317 C314 1.387 . S
C318 C319 1.387 . S
C318 H322 0.950 . S
C318 C327 1.390 1_545 S
C319 C318 1.387 . S
C319 C321 1.387 . S
H320 C327 0.950 . S
C321 C319 1.387 . S
C321 C323 1.390 1_545 S
C321 H325 0.950 . S
H322 C318 0.950 . S
C323 C321 1.390 1_565 S
C323 C324 1.387 . S
C323 H326 0.950 . S
C324 C323 1.387 . S
C324 C327 1.387 . S
H325 C321 0.950 . S
H326 C323 0.950 . S
C327 C318 1.390 1_565 S
C327 H320 0.950 . S
C327 C324 1.387 . S
C328 C329 1.387 . S
C328 H332 0.950 . S
C328 C337 1.390 . S
C329 C328 1.387 . S
C329 C331 1.387 . S
H330 C337 0.950 . S
C331 C329 1.387 . S
C331 C333 1.390 . S
C331 H335 0.950 . S
H332 C328 0.950 . S
C333 C331 1.390 . S
C333 C334 1.387 . S
C333 H336 0.950 . S
C334 C333 1.387 . S
C334 C337 1.387 . S
H335 C331 0.950 . S
H336 C333 0.950 . S
C337 C328 1.390 . S
C337 H330 0.950 . S
C337 C334 1.387 . S
C338 C339 1.387 . S
C338 H342 0.950 . S
C338 C347 1.390 1_455 S
C339 C338 1.387 . S
C339 C341 1.387 . S
H340 C347 0.950 . S
C341 C339 1.387 . S
C341 C343 1.390 1_455 S
C341 H345 0.950 . S
H342 C338 0.950 . S
C343 C341 1.390 1_655 S
C343 C344 1.387 . S
C343 H346 0.950 . S
C344 C343 1.387 . S
C344 C347 1.387 . S
H345 C341 0.950 . S
H346 C343 0.950 . S
C347 C338 1.390 1_655 S
C347 H340 0.950 . S
C347 C344 1.387 . S
C348 C349 1.387 . S
C348 H352 0.950 . S
C348 C357 1.390 . S
C349 C348 1.387 . S
C349 C351 1.387 . S
H350 C357 0.950 . S
C351 C349 1.387 . S
C351 C353 1.390 . S
C351 H355 0.950 . S
H352 C348 0.950 . S
C353 C351 1.390 . S
C353 C354 1.387 . S
C353 H356 0.950 . S
C354 C353 1.387 . S
C354 C357 1.387 . S
H355 C351 0.950 . S
H356 C353 0.950 . S
C357 C348 1.390 . S
C357 H350 0.950 . S
C357 C354 1.387 . S
C358 C359 1.387 . S
C358 H362 0.950 . S
C358 C367 1.390 1_655 S
C359 C358 1.387 . S
C359 C361 1.387 . S
H360 C367 0.950 . S
C361 C359 1.387 . S
C361 C363 1.390 1_655 S
C361 H365 0.950 . S
H362 C358 0.950 . S
C363 C361 1.390 1_455 S
C363 C364 1.387 . S
C363 H366 0.950 . S
C364 C363 1.387 . S
C364 C367 1.387 . S
H365 C361 0.950 . S
H366 C363 0.950 . S
C367 C358 1.390 1_455 S
C367 H360 0.950 . S
C367 C364 1.387 . S
C368 C369 1.387 . S
C368 H372 0.950 . S
C368 C377 1.390 1_545 S
C369 C368 1.387 . S
C369 C371 1.387 . S
H370 C377 0.950 . S
C371 C369 1.387 . S
C371 C373 1.390 1_545 S
C371 H375 0.950 . S
H372 C368 0.950 . S
C373 C371 1.390 1_565 S
C373 C374 1.387 . S
C373 H376 0.950 . S
C374 C373 1.387 . S
C374 C377 1.387 . S
H375 C371 0.950 . S
H376 C373 0.950 . S
C377 C368 1.390 1_565 S
C377 H370 0.950 . S
C377 C374 1.387 . S
C378 C379 1.387 . S
C378 H382 0.950 . S
C378 C387 1.390 . S
C379 C378 1.387 . S
C379 C381 1.387 . S
H380 C387 0.950 . S
C381 C379 1.387 . S
C381 C383 1.390 . S
C381 H385 0.950 . S
H382 C378 0.950 . S
C383 C381 1.390 . S
C383 C384 1.387 . S
C383 H386 0.950 . S
C384 C383 1.387 . S
C384 C387 1.387 . S
H385 C381 0.950 . S
H386 C383 0.950 . S
C387 C378 1.390 . S
C387 H380 0.950 . S
C387 C384 1.387 . S
C388 C389 1.387 . S
C388 H392 0.950 . S
C388 C397 1.390 1_455 S
C389 C388 1.387 . S
C389 C391 1.387 . S
H390 C397 0.950 . S
C391 C389 1.387 . S
C391 C393 1.390 1_455 S
C391 H395 0.950 . S
H392 C388 0.950 . S
C393 C391 1.390 1_655 S
C393 C394 1.387 . S
C393 H396 0.950 . S
C394 C393 1.387 . S
C394 C397 1.387 . S
H395 C391 0.950 . S
H396 C393 0.950 . S
C397 C388 1.390 1_655 S
C397 H390 0.950 . S
C397 C394 1.387 . S
C398 C399 1.387 . S
C398 H402 0.950 . S
C398 C407 1.390 1_565 S
C399 C398 1.387 . S
C399 C401 1.387 . S
H400 C407 0.950 . S
C401 C399 1.387 . S
C401 C403 1.390 1_565 S
C401 H405 0.950 . S
H402 C398 0.950 . S
C403 C401 1.390 1_545 S
C403 C404 1.387 . S
C403 H406 0.950 . S
C404 C403 1.387 . S
C404 C407 1.387 . S
H405 C401 0.950 . S
H406 C403 0.950 . S
C407 C398 1.390 1_545 S
C407 H400 0.950 . S
C407 C404 1.387 . S
C169 C141 1.589 . S
C174 C12 1.589 . S
C179 C15 1.591 . S
C184 C154 1.589 . S
C189 C29 1.590 . S
C194 C96 1.590 . S
C199 C43 1.589 . S
C204 C99 1.589 . S
C209 C112 1.590 . S
C214 C57 1.591 . S
C219 C83 1.590 . S
C224 C126 1.588 . S
C229 C113 1.626 . S
C234 C13 1.626 . S
C239 C14 1.624 . S
C244 C127 1.626 . S
C249 C28 1.625 . S
C254 C140 1.625 . S
C259 C42 1.625 . S
C264 C155 1.627 . S
C269 C97 1.626 . S
C274 C56 1.624 . S
C279 C98 1.626 . S
C284 C82 1.627 . S
C289 C55 1.458 . S
C294 C0 1.456 . S
C299 C27 1.460 . S
C304 C69 1.460 . S
C309 C71 1.460 . S
C314 C41 1.460 . S
C319 C138 1.459 . S
C324 C84 1.459 . S
C329 C153 1.458 . S
C334 C111 1.458 . S
C339 C124 1.458 . S
C344 C166 1.458 . S
C349 C54 1.757 . S
C354 C1 1.759 . S
C359 C26 1.756 . S
C364 C68 1.756 . S
C369 C70 1.756 . S
C374 C40 1.756 . S
C379 C85 1.759 . S
C384 C139 1.759 . S
C389 C152 1.758 . S
C394 C110 1.758 . S
C399 C125 1.758 . S
C404 C167 1.758 . S
