# Generated by pormake.
# Topology wjr, (5)-cn, num edge types: 1
# Building blocks:
#     Node 0, Type 0, BuildingBlock: XOMCOT_clean_sbu_1, # of connection points: 5
#     Node 1, Type 0, BuildingBlock: XOMCOT_clean_sbu_1, # of connection points: 5
#     Node 2, Type 0, BuildingBlock: XOMCOT_clean_sbu_1, # of connection points: 5
#     Node 3, Type 0, BuildingBlock: XOMCOT_clean_sbu_1, # of connection points: 5
#     Node 4, Type 0, BuildingBlock: XOMCOT_clean_sbu_1, # of connection points: 5
#     Node 5, Type 0, BuildingBlock: XOMCOT_clean_sbu_1, # of connection points: 5
#     Node 6, Type 0, BuildingBlock: XOMCOT_clean_sbu_1, # of connection points: 5
#     Node 7, Type 0, BuildingBlock: XOMCOT_clean_sbu_1, # of connection points: 5
#     Node 8, Type 0, BuildingBlock: XOMCOT_clean_sbu_1, # of connection points: 5
#     Node 9, Type 0, BuildingBlock: XOMCOT_clean_sbu_1, # of connection points: 5
#     Node 10, Type 0, BuildingBlock: XOMCOT_clean_sbu_1, # of connection points: 5
#     Node 11, Type 0, BuildingBlock: XOMCOT_clean_sbu_1, # of connection points: 5
#     Node 12, Type 0, BuildingBlock: XOMCOT_clean_sbu_1, # of connection points: 5
#     Node 13, Type 0, BuildingBlock: XOMCOT_clean_sbu_1, # of connection points: 5
#     Node 14, Type 0, BuildingBlock: XOMCOT_clean_sbu_1, # of connection points: 5
#     Node 15, Type 0, BuildingBlock: XOMCOT_clean_sbu_1, # of connection points: 5
#     Node 16, Type 0, BuildingBlock: XOMCOT_clean_sbu_1, # of connection points: 5
#     Node 17, Type 0, BuildingBlock: XOMCOT_clean_sbu_1, # of connection points: 5
#     Node 18, Type 0, BuildingBlock: XOMCOT_clean_sbu_1, # of connection points: 5
#     Node 19, Type 0, BuildingBlock: XOMCOT_clean_sbu_1, # of connection points: 5
#     Node 20, Type 0, BuildingBlock: XOMCOT_clean_sbu_1, # of connection points: 5
#     Node 21, Type 0, BuildingBlock: XOMCOT_clean_sbu_1, # of connection points: 5
#     Node 22, Type 0, BuildingBlock: XOMCOT_clean_sbu_1, # of connection points: 5
#     Node 23, Type 0, BuildingBlock: XOMCOT_clean_sbu_1, # of connection points: 5
#     Edge 24, Type (0, 0), BuildingBlock: TEMPAE_clean_linker_10, # of connection points: 2
#     Edge 25, Type (0, 0), BuildingBlock: TEMPAE_clean_linker_10, # of connection points: 2
#     Edge 26, Type (0, 0), BuildingBlock: TEMPAE_clean_linker_10, # of connection points: 2
#     Edge 27, Type (0, 0), BuildingBlock: TEMPAE_clean_linker_10, # of connection points: 2
#     Edge 28, Type (0, 0), BuildingBlock: TEMPAE_clean_linker_10, # of connection points: 2
#     Edge 29, Type (0, 0), BuildingBlock: TEMPAE_clean_linker_10, # of connection points: 2
#     Edge 30, Type (0, 0), BuildingBlock: TEMPAE_clean_linker_10, # of connection points: 2
#     Edge 31, Type (0, 0), BuildingBlock: TEMPAE_clean_linker_10, # of connection points: 2
#     Edge 32, Type (0, 0), BuildingBlock: TEMPAE_clean_linker_10, # of connection points: 2
#     Edge 33, Type (0, 0), BuildingBlock: TEMPAE_clean_linker_10, # of connection points: 2
#     Edge 34, Type (0, 0), BuildingBlock: TEMPAE_clean_linker_10, # of connection points: 2
#     Edge 35, Type (0, 0), BuildingBlock: TEMPAE_clean_linker_10, # of connection points: 2
#     Edge 36, Type (0, 0), BuildingBlock: TEMPAE_clean_linker_10, # of connection points: 2
#     Edge 37, Type (0, 0), BuildingBlock: TEMPAE_clean_linker_10, # of connection points: 2
#     Edge 38, Type (0, 0), BuildingBlock: TEMPAE_clean_linker_10, # of connection points: 2
#     Edge 39, Type (0, 0), BuildingBlock: TEMPAE_clean_linker_10, # of connection points: 2
#     Edge 40, Type (0, 0), BuildingBlock: TEMPAE_clean_linker_10, # of connection points: 2
#     Edge 41, Type (0, 0), BuildingBlock: TEMPAE_clean_linker_10, # of connection points: 2
#     Edge 42, Type (0, 0), BuildingBlock: TEMPAE_clean_linker_10, # of connection points: 2
#     Edge 43, Type (0, 0), BuildingBlock: TEMPAE_clean_linker_10, # of connection points: 2
#     Edge 44, Type (0, 0), BuildingBlock: TEMPAE_clean_linker_10, # of connection points: 2
#     Edge 45, Type (0, 0), BuildingBlock: TEMPAE_clean_linker_10, # of connection points: 2
#     Edge 46, Type (0, 0), BuildingBlock: TEMPAE_clean_linker_10, # of connection points: 2
#     Edge 47, Type (0, 0), BuildingBlock: TEMPAE_clean_linker_10, # of connection points: 2
#     Edge 48, Type (0, 0), BuildingBlock: TEMPAE_clean_linker_10, # of connection points: 2
#     Edge 49, Type (0, 0), BuildingBlock: TEMPAE_clean_linker_10, # of connection points: 2
#     Edge 50, Type (0, 0), BuildingBlock: TEMPAE_clean_linker_10, # of connection points: 2
#     Edge 51, Type (0, 0), BuildingBlock: TEMPAE_clean_linker_10, # of connection points: 2
#     Edge 52, Type (0, 0), BuildingBlock: TEMPAE_clean_linker_10, # of connection points: 2
#     Edge 53, Type (0, 0), BuildingBlock: TEMPAE_clean_linker_10, # of connection points: 2
#     Edge 54, Type (0, 0), BuildingBlock: TEMPAE_clean_linker_10, # of connection points: 2
#     Edge 55, Type (0, 0), BuildingBlock: TEMPAE_clean_linker_10, # of connection points: 2
#     Edge 56, Type (0, 0), BuildingBlock: TEMPAE_clean_linker_10, # of connection points: 2
#     Edge 57, Type (0, 0), BuildingBlock: TEMPAE_clean_linker_10, # of connection points: 2
#     Edge 58, Type (0, 0), BuildingBlock: TEMPAE_clean_linker_10, # of connection points: 2
#     Edge 59, Type (0, 0), BuildingBlock: TEMPAE_clean_linker_10, # of connection points: 2
#     Edge 60, Type (0, 0), BuildingBlock: TEMPAE_clean_linker_10, # of connection points: 2
#     Edge 61, Type (0, 0), BuildingBlock: TEMPAE_clean_linker_10, # of connection points: 2
#     Edge 62, Type (0, 0), BuildingBlock: TEMPAE_clean_linker_10, # of connection points: 2
#     Edge 63, Type (0, 0), BuildingBlock: TEMPAE_clean_linker_10, # of connection points: 2
#     Edge 64, Type (0, 0), BuildingBlock: TEMPAE_clean_linker_10, # of connection points: 2
#     Edge 65, Type (0, 0), BuildingBlock: TEMPAE_clean_linker_10, # of connection points: 2
#     Edge 66, Type (0, 0), BuildingBlock: TEMPAE_clean_linker_10, # of connection points: 2
#     Edge 67, Type (0, 0), BuildingBlock: TEMPAE_clean_linker_10, # of connection points: 2
#     Edge 68, Type (0, 0), BuildingBlock: TEMPAE_clean_linker_10, # of connection points: 2
#     Edge 69, Type (0, 0), BuildingBlock: TEMPAE_clean_linker_10, # of connection points: 2
#     Edge 70, Type (0, 0), BuildingBlock: TEMPAE_clean_linker_10, # of connection points: 2
#     Edge 71, Type (0, 0), BuildingBlock: TEMPAE_clean_linker_10, # of connection points: 2
#     Edge 72, Type (0, 0), BuildingBlock: TEMPAE_clean_linker_10, # of connection points: 2
#     Edge 73, Type (0, 0), BuildingBlock: TEMPAE_clean_linker_10, # of connection points: 2
#     Edge 74, Type (0, 0), BuildingBlock: TEMPAE_clean_linker_10, # of connection points: 2
#     Edge 75, Type (0, 0), BuildingBlock: TEMPAE_clean_linker_10, # of connection points: 2
#     Edge 76, Type (0, 0), BuildingBlock: TEMPAE_clean_linker_10, # of connection points: 2
#     Edge 77, Type (0, 0), BuildingBlock: TEMPAE_clean_linker_10, # of connection points: 2
#     Edge 78, Type (0, 0), BuildingBlock: TEMPAE_clean_linker_10, # of connection points: 2
#     Edge 79, Type (0, 0), BuildingBlock: TEMPAE_clean_linker_10, # of connection points: 2
#     Edge 80, Type (0, 0), BuildingBlock: TEMPAE_clean_linker_10, # of connection points: 2
#     Edge 81, Type (0, 0), BuildingBlock: TEMPAE_clean_linker_10, # of connection points: 2
#     Edge 82, Type (0, 0), BuildingBlock: TEMPAE_clean_linker_10, # of connection points: 2
#     Edge 83, Type (0, 0), BuildingBlock: TEMPAE_clean_linker_10, # of connection points: 2
# Relax obj value: 0.613
# Max RMSD: 0.257
# Mean RMSD: 0.257
data_MOF--net-wjr--node1-XOMCOT_clean_sbu_1--edge1-TEMPAE_clean_linker_10
_symmetry_space_group_name_H-M    P1
_symmetry_Int_Tables_number       1
_symmetry_cell_setting            triclinic
loop_
_symmetry_equiv_pos_as_xyz
'x, y, z'
_cell_length_a     64.065268
_cell_length_b     64.078994
_cell_length_c     48.404175
_cell_angle_alpha  90.055938
_cell_angle_beta   90.013087
_cell_angle_gamma 119.90755
loop_
_atom_site_label
_atom_site_type_symbol
_atom_site_fract_x
_atom_site_fract_y
_atom_site_fract_z
_atom_type_partial_charge
C0 C 0.46927 0.16331 0.15282 0.0
C1 C 0.46377 0.18068 0.16053 0.0
N2 N 0.48402 0.20026 0.16957 0.0
N3 N 0.49288 0.17158 0.15707 0.0
C4 C 0.50159 0.1946 0.16559 0.0
H5 H 0.45645 0.14505 0.14678 0.0
Co6 Co 0.50635 0.15122 0.15857 0.0
C7 C 0.53748 0.18636 0.20667 0.0
O8 O 0.52481 0.19576 0.21631 0.0
N9 N 0.51957 0.13008 0.16062 0.0
C10 C 0.53305 0.10811 0.1814 0.0
C11 C 0.52861 0.12675 0.18433 0.0
C12 C 0.51853 0.11266 0.14349 0.0
N13 N 0.52678 0.09896 0.1557 0.0
O14 O 0.52832 0.16936 0.12983 0.0
H15 H 0.53011 0.13587 0.20362 0.0
H16 H 0.51072 0.10929 0.12305 0.0
O17 O 0.52948 0.17111 0.18687 0.0
C18 C 0.51779 0.15871 0.10757 0.0
O19 O 0.49615 0.13971 0.1093 0.0
N20 N 0.4833 0.132 0.18445 0.0
C21 C 0.44647 0.09715 0.21669 0.0
C22 C 0.46117 0.12057 0.22693 0.0
C23 C 0.47955 0.13784 0.21037 0.0
C24 C 0.46833 0.10985 0.17368 0.0
C25 C 0.45014 0.09207 0.18951 0.0
H26 H 0.49043 0.15569 0.21838 0.0
H27 H 0.47093 0.10579 0.15271 0.0
H28 H 0.52031 0.20653 0.17033 0.0
H29 H 0.44581 0.17824 0.16104 0.0
H30 H 0.53876 0.10081 0.19797 0.0
H31 H 0.45867 0.12548 0.24757 0.0
H32 H 0.4397 0.07426 0.18064 0.0
C33 C 0.29637 0.45085 0.15109 0.0
C34 C 0.27408 0.44699 0.15908 0.0
N35 N 0.2769 0.46705 0.17165 0.0
N36 N 0.31337 0.47318 0.15874 0.0
C37 C 0.3008 0.48293 0.16994 0.0
H38 H 0.30015 0.43745 0.14265 0.0
Co39 Co 0.34631 0.48291 0.16194 0.0
C40 C 0.34814 0.51679 0.21116 0.0
O41 O 0.32717 0.50797 0.22354 0.0
N42 N 0.37963 0.49257 0.16612 0.0
C43 C 0.41404 0.5038 0.18857 0.0
C44 C 0.3903 0.49728 0.19124 0.0
C45 C 0.39752 0.49582 0.14841 0.0
N46 N 0.4187 0.5029 0.16167 0.0
O47 O 0.354 0.50687 0.1341 0.0
H48 H 0.38129 0.49574 0.21065 0.0
H49 H 0.39522 0.49321 0.12631 0.0
O50 O 0.35085 0.50551 0.19102 0.0
C51 C 0.35382 0.49658 0.11148 0.0
O52 O 0.34868 0.474 0.11232 0.0
N53 N 0.33845 0.45792 0.18661 0.0
C54 C 0.3278 0.41655 0.21606 0.0
C55 C 0.3231 0.43395 0.22749 0.0
C56 C 0.32834 0.45453 0.21219 0.0
C57 C 0.34235 0.44086 0.17493 0.0
C58 C 0.33728 0.42013 0.18928 0.0
H59 H 0.32418 0.46749 0.22085 0.0
H60 H 0.34977 0.4436 0.15431 0.0
H61 H 0.30912 0.50085 0.17834 0.0
H62 H 0.25736 0.43008 0.15742 0.0
H63 H 0.42685 0.50835 0.20527 0.0
H64 H 0.31563 0.43174 0.24806 0.0
H65 H 0.34165 0.40747 0.17979 0.0
C66 C 0.82893 0.29774 0.13561 0.0
C67 C 0.80917 0.28079 0.14994 0.0
N68 N 0.81051 0.28843 0.17623 0.0
N69 N 0.84279 0.31615 0.15261 0.0
C70 C 0.8311 0.31005 0.17715 0.0
H71 H 0.83346 0.29622 0.11447 0.0
Co72 Co 0.87333 0.34159 0.14385 0.0
C73 C 0.8817 0.37958 0.18555 0.0
O74 O 0.90467 0.38654 0.18843 0.0
N75 N 0.90462 0.36728 0.13419 0.0
C76 C 0.9429 0.38646 0.12036 0.0
C77 C 0.92322 0.36443 0.12607 0.0
C78 C 0.91336 0.39139 0.13195 0.0
N79 N 0.93681 0.40351 0.12434 0.0
O80 O 0.85983 0.35138 0.11481 0.0
H81 H 0.92273 0.34744 0.12408 0.0
H82 H 0.90283 0.40001 0.13608 0.0
O83 O 0.86835 0.36213 0.16948 0.0
C84 C 0.8644 0.34537 0.09149 0.0
O85 O 0.87654 0.3338 0.09097 0.0
N86 N 0.88648 0.3303 0.17063 0.0
C87 C 0.91421 0.31631 0.20113 0.0
C88 C 0.90374 0.32863 0.21381 0.0
C89 C 0.88937 0.33493 0.19831 0.0
C90 C 0.89318 0.3151 0.15923 0.0
C91 C 0.9073 0.30803 0.174 0.0
H92 H 0.88134 0.34404 0.20864 0.0
H93 H 0.88893 0.30981 0.13781 0.0
H94 H 0.83801 0.32097 0.19553 0.0
H95 H 0.7956 0.26358 0.14181 0.0
H96 H 0.96058 0.38972 0.11451 0.0
H97 H 0.90783 0.33488 0.23496 0.0
H98 H 0.91391 0.29745 0.1637 0.0
C99 C 0.55389 0.86394 0.13525 0.0
C100 C 0.55826 0.84572 0.14239 0.0
N101 N 0.53727 0.82623 0.14962 0.0
N102 N 0.53026 0.85646 0.13833 0.0
C103 C 0.52048 0.83282 0.14493 0.0
H104 H 0.56755 0.88207 0.13008 0.0
Co105 Co 0.51785 0.87815 0.14052 0.0
C106 C 0.48154 0.83832 0.1795 0.0
O107 O 0.49691 0.83396 0.1927 0.0
N108 N 0.50619 0.9003 0.14304 0.0
C109 C 0.48898 0.9195 0.16233 0.0
C110 C 0.49192 0.89985 0.1638 0.0
C111 C 0.51203 0.92108 0.12932 0.0
N112 N 0.50154 0.93312 0.14062 0.0
O113 O 0.50151 0.86617 0.10595 0.0
H114 H 0.48528 0.88703 0.18048 0.0
H115 H 0.5244 0.92762 0.11207 0.0
O116 O 0.48893 0.85425 0.16039 0.0
C117 C 0.51647 0.87559 0.08617 0.0
O118 O 0.53897 0.89122 0.09223 0.0
N119 N 0.5357 0.89174 0.17271 0.0
C120 C 0.56899 0.91878 0.21361 0.0
C121 C 0.5457 0.90056 0.22065 0.0
C122 C 0.52909 0.88769 0.19986 0.0
C123 C 0.558 0.90977 0.16557 0.0
C124 C 0.57496 0.92336 0.18556 0.0
H125 H 0.51089 0.87558 0.20599 0.0
H126 H 0.56242 0.91401 0.14399 0.0
H127 H 0.50148 0.82084 0.14785 0.0
H128 H 0.57587 0.84738 0.14395 0.0
H129 H 0.4795 0.92405 0.1775 0.0
H130 H 0.54003 0.89676 0.24201 0.0
H131 H 0.59223 0.93801 0.17895 0.0
C132 C 0.69584 0.54479 0.13348 0.0
C133 C 0.71231 0.54172 0.14858 0.0
N134 N 0.70294 0.53304 0.17377 0.0
N135 N 0.67593 0.53796 0.14875 0.0
C136 C 0.68063 0.53053 0.17302 0.0
H137 H 0.6986 0.55236 0.11297 0.0
Co138 Co 0.65035 0.54257 0.13784 0.0
C139 C 0.61522 0.52086 0.18302 0.0
O140 O 0.61279 0.54006 0.18367 0.0
N141 N 0.62419 0.54718 0.12587 0.0
C142 C 0.60342 0.56336 0.10781 0.0
C143 C 0.62597 0.56656 0.11263 0.0
C144 C 0.59998 0.5318 0.12713 0.0
N145 N 0.58691 0.54152 0.11723 0.0
O146 O 0.6404 0.51726 0.11114 0.0
H147 H 0.64248 0.58217 0.10629 0.0
H148 H 0.59199 0.51373 0.13529 0.0
O149 O 0.62957 0.5195 0.1657 0.0
C150 C 0.64816 0.5269 0.0876 0.0
O151 O 0.66068 0.55052 0.0863 0.0
N152 N 0.66204 0.56906 0.16241 0.0
C153 C 0.67324 0.61004 0.19279 0.0
C154 C 0.6675 0.58847 0.20624 0.0
C155 C 0.66244 0.56822 0.19062 0.0
C156 C 0.67255 0.59091 0.14965 0.0
C157 C 0.67759 0.61167 0.16431 0.0
H158 H 0.65733 0.55169 0.20142 0.0
H159 H 0.67597 0.59206 0.12771 0.0
H160 H 0.6683 0.52433 0.19025 0.0
H161 H 0.73004 0.54613 0.1415 0.0
H162 H 0.59963 0.57653 0.09869 0.0
H163 H 0.66532 0.58684 0.22847 0.0
H164 H 0.6831 0.62827 0.15318 0.0
C165 C 0.14699 0.68996 0.15099 0.0
C166 C 0.16532 0.71099 0.16195 0.0
N167 N 0.18209 0.70646 0.1725 0.0
N168 N 0.15176 0.67189 0.15504 0.0
C169 C 0.17395 0.68298 0.1668 0.0
H170 H 0.13085 0.6881 0.14169 0.0
Co171 Co 0.13129 0.63824 0.14869 0.0
C172 C 0.15272 0.63768 0.2038 0.0
O173 O 0.15049 0.65562 0.21359 0.0
N174 N 0.11153 0.60466 0.14258 0.0
C175 C 0.10201 0.56625 0.13993 0.0
C176 C 0.12052 0.58959 0.14166 0.0
C177 C 0.08729 0.58989 0.14089 0.0
N178 N 0.08105 0.56635 0.13961 0.0
O179 O 0.15419 0.639 0.12263 0.0
H180 H 0.13945 0.59519 0.14291 0.0
H181 H 0.0744 0.5961 0.14177 0.0
O182 O 0.14615 0.63038 0.17904 0.0
C183 C 0.14489 0.63986 0.09968 0.0
O184 O 0.12527 0.64156 0.10034 0.0
N185 N 0.10717 0.6376 0.17114 0.0
C186 C 0.06565 0.63463 0.19385 0.0
C187 C 0.07924 0.62662 0.20868 0.0
C188 C 0.09931 0.6273 0.19648 0.0
C189 C 0.09398 0.645 0.15633 0.0
C190 C 0.07331 0.64375 0.16718 0.0
H191 H 0.10749 0.61841 0.207 0.0
H192 H 0.09885 0.65076 0.13519 0.0
H193 H 0.1836 0.67376 0.17242 0.0
H194 H 0.16542 0.72789 0.16373 0.0
H195 H 0.10384 0.55035 0.13921 0.0
H196 H 0.0741 0.61912 0.22921 0.0
H197 H 0.06294 0.64889 0.15409 0.0
C198 C 0.84323 0.54612 0.34287 0.0
C199 C 0.82421 0.5491 0.33512 0.0
N200 N 0.80608 0.52782 0.32597 0.0
N201 N 0.83751 0.52314 0.3384 0.0
C202 C 0.81441 0.51222 0.3294 0.0
H203 H 0.86096 0.56037 0.34873 0.0
Co204 Co 0.86076 0.51329 0.3362 0.0
C205 C 0.82735 0.47798 0.28942 0.0
O206 O 0.81582 0.48774 0.27763 0.0
N207 N 0.88439 0.50343 0.33301 0.0
C208 C 0.90738 0.49146 0.31148 0.0
C209 C 0.88966 0.49724 0.30834 0.0
C210 C 0.89988 0.50173 0.35089 0.0
N211 N 0.9139 0.49422 0.33821 0.0
O212 O 0.84551 0.49111 0.36589 0.0
H213 H 0.88153 0.49746 0.28884 0.0
H214 H 0.90095 0.50589 0.37268 0.0
O215 O 0.8422 0.48885 0.30899 0.0
C216 C 0.85662 0.50321 0.38725 0.0
O217 O 0.87326 0.52589 0.38399 0.0
N218 N 0.87725 0.53673 0.30962 0.0
C219 C 0.90888 0.57477 0.27627 0.0
C220 C 0.88569 0.55811 0.26675 0.0
C221 C 0.86999 0.53918 0.28394 0.0
C222 C 0.89901 0.55358 0.31975 0.0
C223 C 0.91518 0.57249 0.30341 0.0
H224 H 0.85225 0.52669 0.27655 0.0
H225 H 0.90414 0.5518 0.34052 0.0
H226 H 0.80427 0.49337 0.3242 0.0
H227 H 0.82481 0.56624 0.33382 0.0
H228 H 0.91541 0.4863 0.29509 0.0
H229 H 0.8799 0.55942 0.24612 0.0
H230 H 0.93292 0.58448 0.31172 0.0
C231 C 0.30799 0.85709 0.33522 0.0
C232 C 0.2875 0.83946 0.32263 0.0
N233 N 0.29064 0.82063 0.31706 0.0
N234 N 0.3244 0.84977 0.33736 0.0
C235 C 0.31269 0.82696 0.32722 0.0
H236 H 0.31067 0.87437 0.34162 0.0
Co237 Co 0.35698 0.8679 0.3502 0.0
C238 C 0.36137 0.84589 0.29736 0.0
O239 O 0.34491 0.84889 0.28471 0.0
N240 N 0.38938 0.88552 0.36284 0.0
C241 C 0.42605 0.89292 0.37475 0.0
C242 C 0.40283 0.8753 0.36893 0.0
C243 C 0.40505 0.90956 0.36522 0.0
N244 N 0.42758 0.91458 0.37229 0.0
O245 O 0.35096 0.84274 0.37601 0.0
H246 H 0.39639 0.85618 0.36818 0.0
H247 H 0.40026 0.92325 0.36138 0.0
O248 O 0.36752 0.85314 0.32222 0.0
C249 C 0.33621 0.8401 0.39519 0.0
O250 O 0.32493 0.85247 0.39402 0.0
N251 N 0.36267 0.89379 0.3276 0.0
C252 C 0.37352 0.9381 0.3049 0.0
C253 C 0.38023 0.92288 0.29137 0.0
C254 C 0.37542 0.90123 0.30357 0.0
C255 C 0.35597 0.90823 0.34096 0.0
C256 C 0.36122 0.9304 0.3301 0.0
H257 H 0.38311 0.89139 0.29419 0.0
H258 H 0.34757 0.90296 0.36106 0.0
H259 H 0.32072 0.8156 0.3259 0.0
H260 H 0.2721 0.84102 0.31646 0.0
H261 H 0.44091 0.88994 0.37927 0.0
H262 H 0.38976 0.92785 0.27189 0.0
H263 H 0.35655 0.94174 0.3421 0.0
C264 C 0.46924 0.31591 0.35668 0.0
C265 C 0.47269 0.29955 0.34181 0.0
N266 N 0.48334 0.30971 0.31762 0.0
N267 N 0.47771 0.33648 0.34218 0.0
C268 C 0.48641 0.33222 0.31854 0.0
H269 H 0.46005 0.31257 0.3763 0.0
Co270 Co 0.47316 0.36226 0.35275 0.0
C271 C 0.49398 0.39636 0.30691 0.0
O272 O 0.47441 0.39815 0.30635 0.0
N273 N 0.46868 0.38875 0.36426 0.0
C274 C 0.45342 0.41009 0.38319 0.0
C275 C 0.44967 0.38738 0.37802 0.0
C276 C 0.48435 0.41291 0.36281 0.0
N277 N 0.47522 0.4263 0.37342 0.0
O278 O 0.49833 0.37238 0.37975 0.0
H279 H 0.4341 0.37108 0.38489 0.0
H280 H 0.50235 0.42066 0.35446 0.0
O281 O 0.49609 0.38274 0.32464 0.0
C282 C 0.4878 0.36432 0.40285 0.0
O283 O 0.46416 0.35137 0.40288 0.0
N284 N 0.44666 0.35027 0.32826 0.0
C285 C 0.40522 0.33759 0.29784 0.0
C286 C 0.42662 0.34232 0.28449 0.0
C287 C 0.44716 0.34836 0.30017 0.0
C288 C 0.42501 0.34054 0.34131 0.0
C289 C 0.40414 0.33498 0.32667 0.0
H290 H 0.46361 0.35281 0.28946 0.0
H291 H 0.42405 0.33795 0.36337 0.0
H292 H 0.4942 0.3451 0.30191 0.0
H293 H 0.46655 0.28111 0.34774 0.0
H294 H 0.44085 0.41425 0.39324 0.0
H295 H 0.42794 0.34277 0.26218 0.0
H296 H 0.38789 0.33028 0.33815 0.0
C297 C 0.15222 0.45726 0.36293 0.0
C298 C 0.17154 0.45994 0.3477 0.0
N299 N 0.17173 0.47013 0.32326 0.0
N300 N 0.14016 0.4658 0.34839 0.0
C301 C 0.1526 0.47369 0.32438 0.0
H302 H 0.14662 0.44852 0.3828 0.0
Co303 Co 0.11023 0.46199 0.35882 0.0
C304 C 0.10424 0.49506 0.32041 0.0
O305 O 0.08154 0.47917 0.31557 0.0
N306 N 0.07957 0.4576 0.37019 0.0
C307 C 0.04178 0.43939 0.38585 0.0
C308 C 0.06124 0.43669 0.37989 0.0
C309 C 0.07094 0.47313 0.37208 0.0
N310 N 0.04771 0.46229 0.38062 0.0
O311 O 0.12474 0.48273 0.38993 0.0
H312 H 0.06175 0.42027 0.38276 0.0
H313 H 0.08138 0.49208 0.36723 0.0
O314 O 0.11677 0.48985 0.33652 0.0
C315 C 0.12073 0.47056 0.41203 0.0
O316 O 0.10853 0.44695 0.4102 0.0
N317 N 0.0959 0.43994 0.32956 0.0
C318 C 0.06716 0.40282 0.29356 0.0
C319 C 0.08164 0.42632 0.28366 0.0
C320 C 0.09632 0.44462 0.30197 0.0
C321 C 0.08521 0.41668 0.3384 0.0
C322 C 0.0702 0.39779 0.32092 0.0
H323 H 0.10736 0.46245 0.2938 0.0
H324 H 0.08745 0.41289 0.3596 0.0
H325 H 0.14736 0.48129 0.30768 0.0
H326 H 0.18367 0.45353 0.35361 0.0
H327 H 0.02429 0.42525 0.39259 0.0
H328 H 0.08079 0.4307 0.26223 0.0
H329 H 0.05996 0.37976 0.32926 0.0
C330 C 0.7028 0.14837 0.3607 0.0
C331 C 0.72142 0.16522 0.34497 0.0
N332 N 0.71313 0.17711 0.32966 0.0
N333 N 0.68271 0.14953 0.35556 0.0
C334 C 0.68966 0.16744 0.33673 0.0
H335 H 0.70352 0.13533 0.37426 0.0
Co336 Co 0.65226 0.12651 0.36928 0.0
C337 C 0.6231 0.12522 0.31966 0.0
O338 O 0.61679 0.1031 0.31251 0.0
N339 N 0.62156 0.10305 0.38383 0.0
C340 C 0.59315 0.08268 0.41538 0.0
C341 C 0.61595 0.10173 0.41089 0.0
C342 C 0.60187 0.08389 0.3725 0.0
N343 N 0.5842 0.07137 0.39116 0.0
O344 O 0.65129 0.1503 0.39289 0.0
H345 H 0.62803 0.11339 0.42671 0.0
H346 H 0.60071 0.07845 0.3513 0.0
O347 O 0.63661 0.13511 0.34059 0.0
C348 C 0.66707 0.16098 0.41166 0.0
O349 O 0.68631 0.15867 0.41174 0.0
N350 N 0.65392 0.10302 0.34784 0.0
C351 C 0.65576 0.06605 0.31974 0.0
C352 C 0.66242 0.088 0.30654 0.0
C353 C 0.66137 0.10629 0.32097 0.0
C354 C 0.65015 0.08299 0.3618 0.0
C355 C 0.65028 0.064 0.34802 0.0
H356 H 0.66594 0.12283 0.31032 0.0
H357 H 0.64623 0.08134 0.38368 0.0
H358 H 0.67747 0.17223 0.32702 0.0
H359 H 0.73954 0.16803 0.34431 0.0
H360 H 0.58427 0.07707 0.43521 0.0
H361 H 0.66776 0.09086 0.28503 0.0
H362 H 0.6451 0.04757 0.35933 0.0
C363 C 0.5328 0.70929 0.34533 0.0
C364 C 0.52943 0.72468 0.32856 0.0
N365 N 0.52411 0.71536 0.30283 0.0
N366 N 0.52953 0.69006 0.33051 0.0
C367 C 0.52413 0.69425 0.30471 0.0
H368 H 0.53851 0.71269 0.36664 0.0
Co369 Co 0.53623 0.66586 0.34217 0.0
C370 C 0.50441 0.62352 0.30647 0.0
O371 O 0.52052 0.61659 0.3043 0.0
N372 N 0.54323 0.64156 0.35416 0.0
C373 C 0.56312 0.6223 0.36459 0.0
C374 C 0.5653 0.64412 0.35766 0.0
C375 C 0.52793 0.61808 0.36058 0.0
N376 N 0.53956 0.60572 0.36602 0.0
O377 O 0.51531 0.65855 0.37353 0.0
H378 H 0.58213 0.66062 0.35484 0.0
H379 H 0.50853 0.60995 0.36015 0.0
O380 O 0.5092 0.64258 0.3199 0.0
C381 C 0.52788 0.6704 0.39431 0.0
O382 O 0.55113 0.68477 0.39082 0.0
N383 N 0.55871 0.67499 0.31339 0.0
C384 C 0.59902 0.69013 0.2798 0.0
C385 C 0.57579 0.67422 0.2697 0.0
C386 C 0.55579 0.6673 0.28664 0.0
C387 C 0.58066 0.69267 0.32229 0.0
C388 C 0.60111 0.70046 0.30592 0.0
H389 H 0.53828 0.65561 0.27806 0.0
H390 H 0.58246 0.69977 0.34299 0.0
H391 H 0.52104 0.68239 0.28739 0.0
H392 H 0.53214 0.74213 0.33461 0.0
H393 H 0.57785 0.61874 0.3671 0.0
H394 H 0.573 0.66602 0.24948 0.0
H395 H 0.61847 0.71354 0.31425 0.0
C396 C 0.55891 0.85721 0.85015 0.0
C397 C 0.55896 0.83713 0.83985 0.0
N398 N 0.54032 0.8257 0.82215 0.0
N399 N 0.5404 0.85863 0.83896 0.0
C400 C 0.52888 0.83863 0.82298 0.0
H401 H 0.57307 0.87134 0.86234 0.0
Co402 Co 0.53885 0.88723 0.83615 0.0
C403 C 0.51222 0.87024 0.78054 0.0
O404 O 0.53064 0.87967 0.76366 0.0
N405 N 0.53685 0.91607 0.83207 0.0
C406 C 0.53761 0.9468 0.8096 0.0
C407 C 0.53835 0.92595 0.80697 0.0
C408 C 0.53509 0.93164 0.84984 0.0
N409 N 0.5357 0.95062 0.83654 0.0
O410 O 0.51339 0.87502 0.86282 0.0
H411 H 0.54081 0.919 0.78771 0.0
H412 H 0.53418 0.92965 0.87204 0.0
O413 O 0.51493 0.87312 0.80667 0.0
C414 C 0.52308 0.88275 0.88638 0.0
O415 O 0.54656 0.89682 0.88772 0.0
N416 N 0.56622 0.90017 0.81311 0.0
C417 C 0.61124 0.92422 0.78774 0.0
C418 C 0.59377 0.90128 0.77861 0.0
C419 C 0.57157 0.88916 0.79227 0.0
C420 C 0.58387 0.92144 0.82363 0.0
C421 C 0.60625 0.93393 0.81106 0.0
H422 H 0.55889 0.87098 0.78608 0.0
H423 H 0.58055 0.92897 0.84197 0.0
H424 H 0.51358 0.83468 0.81016 0.0
H425 H 0.57316 0.83288 0.84294 0.0
H426 H 0.53863 0.95845 0.79283 0.0
H427 H 0.5972 0.89291 0.76108 0.0
H428 H 0.61915 0.95155 0.81898 0.0
C429 C 0.70932 0.53782 0.86231 0.0
C430 C 0.72737 0.53804 0.84678 0.0
N431 N 0.71734 0.52123 0.82675 0.0
N432 N 0.6878 0.5208 0.85251 0.0
C433 C 0.69324 0.51075 0.83097 0.0
H434 H 0.71164 0.54979 0.87928 0.0
Co435 Co 0.65873 0.51757 0.86601 0.0
C436 C 0.63207 0.50263 0.81232 0.0
O437 O 0.6316 0.52279 0.80995 0.0
N438 N 0.62956 0.51414 0.88063 0.0
C439 C 0.60493 0.51237 0.91417 0.0
C440 C 0.627 0.5148 0.90817 0.0
C441 C 0.60851 0.5112 0.87028 0.0
N442 N 0.59319 0.51024 0.89028 0.0
O443 O 0.65094 0.48797 0.88529 0.0
H444 H 0.64067 0.51726 0.92297 0.0
H445 H 0.60449 0.51028 0.84862 0.0
O446 O 0.6417 0.49883 0.83343 0.0
C447 C 0.66443 0.48489 0.90229 0.0
O448 O 0.68787 0.49754 0.89921 0.0
N449 N 0.66667 0.54754 0.84926 0.0
C450 C 0.6698 0.58811 0.82397 0.0
C451 C 0.67951 0.57516 0.81114 0.0
C452 C 0.67764 0.55484 0.82406 0.0
C453 C 0.66163 0.56264 0.86402 0.0
C454 C 0.66221 0.58247 0.85153 0.0
H455 H 0.68299 0.54387 0.81252 0.0
H456 H 0.65564 0.55865 0.88517 0.0
H457 H 0.67982 0.49717 0.81755 0.0
H458 H 0.74645 0.55011 0.84976 0.0
H459 H 0.59818 0.51219 0.9347 0.0
H460 H 0.68695 0.57956 0.7905 0.0
H461 H 0.65511 0.59206 0.86298 0.0
C462 C 0.14848 0.69608 0.85838 0.0
C463 C 0.16556 0.71447 0.8426 0.0
N464 N 0.17687 0.70571 0.82697 0.0
N465 N 0.1489 0.67567 0.85296 0.0
C466 C 0.16648 0.6821 0.83379 0.0
H467 H 0.13577 0.69723 0.87211 0.0
Co468 Co 0.12632 0.64544 0.86739 0.0
C469 C 0.12039 0.61403 0.81962 0.0
O470 O 0.09733 0.6068 0.81853 0.0
N471 N 0.10313 0.61425 0.88256 0.0
C472 C 0.08772 0.58129 0.90906 0.0
C473 C 0.1071 0.60384 0.90471 0.0
C474 C 0.08054 0.59731 0.87435 0.0
N475 N 0.07083 0.57699 0.88987 0.0
O476 O 0.15127 0.64578 0.88994 0.0
H477 H 0.12316 0.61174 0.91721 0.0
H478 H 0.07108 0.59982 0.85742 0.0
O479 O 0.13378 0.62921 0.83792 0.0
C480 C 0.15703 0.66047 0.9101 0.0
O481 O 0.14645 0.67348 0.912 0.0
N482 N 0.10237 0.6472 0.84686 0.0
C483 C 0.06572 0.65004 0.81935 0.0
C484 C 0.08685 0.6548 0.80541 0.0
C485 C 0.10504 0.65345 0.81958 0.0
C486 C 0.08353 0.64578 0.8615 0.0
C487 C 0.06458 0.64636 0.84803 0.0
H488 H 0.121 0.65676 0.80841 0.0
H489 H 0.08264 0.64299 0.8836 0.0
H490 H 0.17106 0.66958 0.82442 0.0
H491 H 0.1685 0.73262 0.84172 0.0
H492 H 0.08661 0.56893 0.92496 0.0
H493 H 0.0891 0.65893 0.78355 0.0
H494 H 0.04885 0.64294 0.85984 0.0
C495 C 0.47339 0.16212 0.84829 0.0
C496 C 0.47052 0.17992 0.83628 0.0
N497 N 0.49241 0.19878 0.8307 0.0
N498 N 0.49705 0.16915 0.84985 0.0
C499 C 0.50812 0.19217 0.84035 0.0
H500 H 0.45878 0.14504 0.85496 0.0
Co501 Co 0.51108 0.15038 0.86212 0.0
C502 C 0.54007 0.17457 0.81224 0.0
O503 O 0.52052 0.17101 0.79926 0.0
N504 N 0.52505 0.13212 0.87469 0.0
C505 C 0.55292 0.12251 0.88583 0.0
C506 C 0.54839 0.14114 0.88156 0.0
C507 C 0.51569 0.10788 0.87548 0.0
N508 N 0.53236 0.1015 0.88172 0.0
O509 O 0.5275 0.17328 0.8909 0.0
H510 H 0.56162 0.16012 0.88204 0.0
H511 H 0.49717 0.09509 0.87049 0.0
O512 O 0.53856 0.16787 0.83741 0.0
C513 C 0.51392 0.17212 0.91073 0.0
O514 O 0.49056 0.1578 0.90812 0.0
N515 N 0.49394 0.12626 0.83536 0.0
C516 C 0.46729 0.08342 0.80583 0.0
C517 C 0.49152 0.09916 0.7995 0.0
C518 C 0.50468 0.12 0.81505 0.0
C519 C 0.4705 0.11086 0.84209 0.0
C520 C 0.45673 0.08958 0.82735 0.0
H521 H 0.52388 0.12969 0.81212 0.0
H522 H 0.46303 0.11387 0.86063 0.0
H523 H 0.52747 0.20357 0.83934 0.0
H524 H 0.45346 0.1784 0.83067 0.0
H525 H 0.57039 0.12442 0.88997 0.0
H526 H 0.50064 0.09492 0.78351 0.0
H527 H 0.43845 0.07736 0.83397 0.0
C528 C 0.3152 0.45694 0.85432 0.0
C529 C 0.2945 0.45472 0.84309 0.0
N530 N 0.29886 0.47661 0.83495 0.0
N531 N 0.33319 0.48005 0.85268 0.0
C532 C 0.32206 0.49172 0.8423 0.0
H533 H 0.31665 0.44223 0.86294 0.0
Co534 Co 0.36648 0.49254 0.86258 0.0
C535 C 0.37095 0.52267 0.8134 0.0
O536 O 0.35493 0.5039 0.79938 0.0
N537 N 0.39922 0.50526 0.87265 0.0
C538 C 0.4371 0.53301 0.88206 0.0
C539 C 0.41389 0.52858 0.87934 0.0
C540 C 0.41404 0.49574 0.87194 0.0
N541 N 0.43732 0.51243 0.87718 0.0
O542 O 0.36246 0.5097 0.89271 0.0
H543 H 0.40822 0.54185 0.88111 0.0
H544 H 0.40813 0.47729 0.86624 0.0
O545 O 0.37652 0.52016 0.83807 0.0
C546 C 0.3519 0.49566 0.91296 0.0
O547 O 0.34437 0.47261 0.90982 0.0
N548 N 0.37048 0.47424 0.83478 0.0
C549 C 0.37647 0.44324 0.7996 0.0
C550 C 0.389 0.4681 0.79484 0.0
C551 C 0.38605 0.48339 0.81297 0.0
C552 C 0.3599 0.45033 0.84082 0.0
C553 C 0.36195 0.43436 0.82303 0.0
H554 H 0.39721 0.50254 0.81011 0.0
H555 H 0.35085 0.44374 0.86031 0.0
H556 H 0.33092 0.511 0.8396 0.0
H557 H 0.27786 0.43795 0.84004 0.0
H558 H 0.45272 0.55024 0.88685 0.0
H559 H 0.40128 0.47565 0.77756 0.0
H560 H 0.35317 0.4154 0.82821 0.0
C561 C 0.84948 0.30338 0.84544 0.0
C562 C 0.83154 0.28217 0.83453 0.0
N563 N 0.81299 0.28527 0.82731 0.0
N564 N 0.84269 0.32024 0.84474 0.0
C565 C 0.8198 0.30812 0.83492 0.0
H566 H 0.86661 0.30616 0.85261 0.0
Co567 Co 0.86147 0.35377 0.85357 0.0
C568 C 0.83881 0.35402 0.79946 0.0
O569 O 0.842 0.33672 0.78945 0.0
N570 N 0.87959 0.38691 0.86229 0.0
C571 C 0.88801 0.42473 0.86839 0.0
C572 C 0.87002 0.40143 0.86399 0.0
C573 C 0.90359 0.40193 0.86601 0.0
N574 N 0.90928 0.42521 0.86963 0.0
O575 O 0.83744 0.3505 0.87952 0.0
H576 H 0.85111 0.39554 0.86143 0.0
H577 H 0.91666 0.39596 0.86572 0.0
O578 O 0.84575 0.36171 0.82406 0.0
C579 C 0.83621 0.33813 0.90065 0.0
O580 O 0.84891 0.32717 0.90096 0.0
N581 N 0.88652 0.35727 0.8305 0.0
C582 C 0.92692 0.36139 0.80345 0.0
C583 C 0.91259 0.36976 0.79109 0.0
C584 C 0.89314 0.36849 0.80546 0.0
C585 C 0.90095 0.35036 0.84345 0.0
C586 C 0.92111 0.35213 0.83036 0.0
H587 H 0.88411 0.37723 0.79657 0.0
H588 H 0.897 0.34389 0.8645 0.0
H589 H 0.80878 0.31635 0.83188 0.0
H590 H 0.83281 0.26621 0.83051 0.0
H591 H 0.88554 0.44022 0.86957 0.0
H592 H 0.91638 0.37753 0.77061 0.0
H593 H 0.93228 0.3468 0.84163 0.0
C594 C 0.1617 0.45245 0.65555 0.0
C595 C 0.18049 0.45382 0.67056 0.0
N596 N 0.18985 0.4738 0.68642 0.0
N597 N 0.15895 0.47146 0.66157 0.0
C598 C 0.17647 0.4843 0.68042 0.0
H599 H 0.1499 0.43783 0.64202 0.0
Co600 Co 0.13232 0.47338 0.64793 0.0
C601 C 0.12346 0.49538 0.69708 0.0
O602 O 0.10178 0.47663 0.69991 0.0
N603 N 0.1057 0.47523 0.63265 0.0
C604 C 0.07924 0.46992 0.5996 0.0
C605 C 0.0983 0.46691 0.60683 0.0
C606 C 0.09115 0.48412 0.64025 0.0
N607 N 0.07453 0.48074 0.62066 0.0
O608 O 0.15271 0.49929 0.62368 0.0
H609 H 0.10617 0.45871 0.59413 0.0
H610 H 0.09302 0.49363 0.65925 0.0
O611 O 0.13679 0.49649 0.67685 0.0
C612 C 0.16197 0.49422 0.60328 0.0
O613 O 0.16107 0.47331 0.60296 0.0
N614 N 0.11166 0.44651 0.67033 0.0
C615 C 0.07761 0.40912 0.70308 0.0
C616 C 0.1007 0.42503 0.71341 0.0
C617 C 0.11738 0.44369 0.6968 0.0
C618 C 0.09087 0.42894 0.65877 0.0
C619 C 0.07333 0.41061 0.67487 0.0
H620 H 0.1342 0.45681 0.70603 0.0
H621 H 0.08716 0.42946 0.63717 0.0
H622 H 0.17865 0.50037 0.69042 0.0
H623 H 0.18585 0.44026 0.67091 0.0
H624 H 0.06944 0.46411 0.58033 0.0
H625 H 0.10555 0.42402 0.73458 0.0
H626 H 0.05612 0.39875 0.66535 0.0
C627 C 0.69601 0.15705 0.63781 0.0
C628 C 0.71334 0.17757 0.65088 0.0
N629 N 0.7066 0.17711 0.67738 0.0
N630 N 0.67841 0.14369 0.65595 0.0
C631 C 0.68537 0.15643 0.67978 0.0
H632 H 0.69651 0.15192 0.61663 0.0
Co633 Co 0.65186 0.11309 0.65006 0.0
C634 C 0.61801 0.10996 0.6949 0.0
O635 O 0.60959 0.08697 0.6999 0.0
N636 N 0.62484 0.08172 0.64368 0.0
C637 C 0.60397 0.0424 0.63457 0.0
C638 C 0.62651 0.06215 0.63683 0.0
C639 C 0.6007 0.07339 0.64377 0.0
N640 N 0.58766 0.04934 0.63923 0.0
O641 O 0.64092 0.12559 0.62124 0.0
H642 H 0.64299 0.06195 0.63313 0.0
H643 H 0.59278 0.08456 0.64789 0.0
O644 O 0.63408 0.12075 0.67649 0.0
C645 C 0.64534 0.11978 0.59772 0.0
O646 O 0.65572 0.10653 0.59687 0.0
N647 N 0.66421 0.10088 0.67675 0.0
C648 C 0.67912 0.0742 0.70783 0.0
C649 C 0.6697 0.08736 0.7208 0.0
C650 C 0.66226 0.1006 0.70485 0.0
C651 C 0.67743 0.09211 0.66463 0.0
C652 C 0.6844 0.07801 0.67953 0.0
H653 H 0.6547 0.11011 0.71529 0.0
H654 H 0.68081 0.09441 0.64263 0.0
H655 H 0.67558 0.15016 0.69895 0.0
H656 H 0.72975 0.19156 0.64162 0.0
H657 H 0.59987 0.02426 0.62964 0.0
H658 H 0.66687 0.08646 0.74292 0.0
H659 H 0.69212 0.06884 0.66839 0.0
C660 C 0.56418 0.69924 0.65684 0.0
C661 C 0.56773 0.72035 0.66848 0.0
N662 N 0.54614 0.71779 0.67501 0.0
N663 N 0.54045 0.68284 0.65659 0.0
C664 C 0.52996 0.6954 0.66605 0.0
H665 H 0.57838 0.69604 0.65011 0.0
Co666 Co 0.52644 0.64918 0.64842 0.0
C667 C 0.49413 0.64755 0.6949 0.0
O668 O 0.51206 0.66383 0.70975 0.0
N669 N 0.51239 0.61606 0.64005 0.0
C670 C 0.48386 0.5784 0.63118 0.0
C671 C 0.48869 0.60163 0.6349 0.0
C672 C 0.52173 0.60116 0.6387 0.0
N673 N 0.50461 0.57804 0.63361 0.0
O674 O 0.51143 0.65328 0.61612 0.0
H675 H 0.47561 0.60759 0.63418 0.0
H676 H 0.54054 0.60696 0.6421 0.0
O677 O 0.49816 0.64126 0.67128 0.0
C678 C 0.52512 0.65489 0.59612 0.0
O679 O 0.5454 0.65542 0.6021 0.0
N680 N 0.54309 0.64504 0.67792 0.0
C681 C 0.57398 0.6413 0.71579 0.0
C682 C 0.54952 0.63218 0.72208 0.0
C683 C 0.53418 0.63338 0.70241 0.0
C684 C 0.56625 0.6523 0.67076 0.0
C685 C 0.58203 0.65086 0.68934 0.0
H686 H 0.5152 0.62427 0.70683 0.0
H687 H 0.57236 0.65866 0.65005 0.0
H688 H 0.51071 0.68793 0.66757 0.0
H689 H 0.58505 0.73575 0.67347 0.0
H690 H 0.4664 0.56291 0.62688 0.0
H691 H 0.54209 0.62387 0.74181 0.0
H692 H 0.60021 0.65657 0.6826 0.0
C693 C 0.84536 0.54082 0.63894 0.0
C694 C 0.82524 0.53805 0.65233 0.0
N695 N 0.81704 0.51888 0.66926 0.0
N696 N 0.84998 0.52339 0.64697 0.0
C697 C 0.83223 0.51013 0.66537 0.0
H698 H 0.85688 0.55568 0.62562 0.0
Co699 Co 0.87879 0.524 0.63691 0.0
C700 C 0.88143 0.4928 0.68012 0.0
O701 O 0.90305 0.50996 0.68734 0.0
N702 N 0.90825 0.52532 0.62532 0.0
C703 C 0.94283 0.54018 0.6019 0.0
C704 C 0.92237 0.54159 0.60619 0.0
C705 C 0.92014 0.51307 0.63089 0.0
N706 N 0.94162 0.52235 0.61766 0.0
O707 O 0.8627 0.5031 0.60618 0.0
H708 H 0.91822 0.55414 0.59613 0.0
H709 H 0.91345 0.49756 0.64415 0.0
O710 O 0.87026 0.49614 0.66029 0.0
C711 C 0.86171 0.51474 0.58538 0.0
O712 O 0.87127 0.53818 0.58764 0.0
N713 N 0.89463 0.54608 0.66614 0.0
C714 C 0.92002 0.58009 0.70718 0.0
C715 C 0.89856 0.55893 0.71347 0.0
C716 C 0.88603 0.54227 0.69263 0.0
C717 C 0.91381 0.56783 0.65922 0.0
C718 C 0.92712 0.58481 0.67942 0.0
H719 H 0.86994 0.52588 0.69823 0.0
H720 H 0.91911 0.5722 0.63799 0.0
H721 H 0.83133 0.49533 0.67703 0.0
H722 H 0.81833 0.55038 0.65128 0.0
H723 H 0.95746 0.5514 0.58809 0.0
H724 H 0.89183 0.55488 0.73444 0.0
H725 H 0.94336 0.60102 0.67331 0.0
C726 C 0.30226 0.84725 0.65649 0.0
C727 C 0.28156 0.82978 0.66877 0.0
N728 N 0.28564 0.81242 0.67834 0.0
N729 N 0.31989 0.84165 0.65898 0.0
C730 C 0.30862 0.81957 0.67099 0.0
H731 H 0.30413 0.86305 0.64626 0.0
Co732 Co 0.35198 0.86175 0.64629 0.0
C733 C 0.36182 0.83338 0.68855 0.0
O734 O 0.34811 0.83546 0.70729 0.0
N735 N 0.38353 0.88169 0.63278 0.0
C736 C 0.41949 0.89286 0.61467 0.0
C737 C 0.39691 0.87375 0.61986 0.0
C738 C 0.39838 0.90585 0.63488 0.0
N739 N 0.4205 0.91308 0.62429 0.0
O740 O 0.3444 0.84239 0.61382 0.0
H741 H 0.3909 0.85506 0.61534 0.0
H742 H 0.39331 0.91789 0.64457 0.0
O743 O 0.36349 0.84219 0.66443 0.0
C744 C 0.33966 0.85228 0.59389 0.0
O745 O 0.33871 0.87194 0.59906 0.0
N746 N 0.35965 0.88238 0.67716 0.0
C747 C 0.37703 0.92232 0.7118 0.0
C748 C 0.38688 0.90721 0.71285 0.0
C749 C 0.37839 0.88769 0.6948 0.0
C750 C 0.34973 0.8969 0.67638 0.0
C751 C 0.35803 0.91688 0.69366 0.0
H752 H 0.38873 0.8787 0.69321 0.0
H753 H 0.33707 0.8946 0.66042 0.0
H754 H 0.3168 0.80856 0.67399 0.0
H755 H 0.26506 0.83034 0.67125 0.0
H756 H 0.43438 0.89175 0.60569 0.0
H757 H 0.40241 0.91168 0.72572 0.0
H758 H 0.3507 0.92882 0.69165 0.0
C759 C 0.46999 0.30485 0.64213 0.0
C760 C 0.47109 0.28807 0.65871 0.0
N761 N 0.49021 0.29946 0.67574 0.0
N762 N 0.48835 0.32691 0.64835 0.0
C763 C 0.50047 0.32309 0.6689 0.0
H764 H 0.456 0.30137 0.62728 0.0
Co765 Co 0.49074 0.35501 0.633 0.0
C766 C 0.51017 0.38592 0.68366 0.0
O767 O 0.4911 0.38841 0.68605 0.0
N768 N 0.49318 0.38314 0.61647 0.0
C769 C 0.49111 0.40595 0.58299 0.0
C770 C 0.48779 0.38359 0.58961 0.0
C771 C 0.50035 0.40583 0.62544 0.0
N772 N 0.49892 0.42001 0.60569 0.0
O773 O 0.51828 0.36079 0.6114 0.0
H774 H 0.48162 0.36842 0.57571 0.0
H775 H 0.50661 0.41217 0.6459 0.0
O776 O 0.51203 0.37407 0.66344 0.0
C777 C 0.51457 0.3466 0.59117 0.0
O778 O 0.4942 0.32607 0.59037 0.0
N779 N 0.46242 0.34858 0.65219 0.0
C780 C 0.42388 0.34797 0.67935 0.0
C781 C 0.43953 0.34226 0.69356 0.0
C782 C 0.45826 0.34186 0.67933 0.0
C783 C 0.44504 0.34983 0.63726 0.0
C784 C 0.42562 0.34965 0.65044 0.0
H785 H 0.47099 0.33896 0.69093 0.0
H786 H 0.44672 0.35212 0.61514 0.0
H787 H 0.51592 0.3374 0.67933 0.0
H788 H 0.45792 0.26907 0.65918 0.0
H789 H 0.48805 0.41133 0.5629 0.0
H790 H 0.43884 0.34023 0.71578 0.0
H791 H 0.41297 0.35228 0.6382 0.0
C792 C 0.51243 0.06404 0.123 0.0
C793 C 0.52622 0.07709 0.146 0.0
C794 C 0.50971 0.04134 0.11598 0.0
C795 C 0.52026 0.03094 0.13287 0.0
C796 C 0.53518 0.04458 0.15512 0.0
C797 C 0.53845 0.06752 0.16086 0.0
C798 C 0.49475 0.02815 0.09109 0.0
C799 C 0.54658 0.03436 0.17411 0.0
C800 C 0.48824 0.96331 0.14494 0.0
C801 C 0.50457 0.95671 0.1342 0.0
C802 C 0.49269 0.98708 0.14365 0.0
C803 C 0.51346 0.00491 0.12994 0.0
C804 C 0.52886 0.99799 0.11661 0.0
C805 C 0.52449 0.97413 0.11928 0.0
C806 C 0.47586 0.99337 0.15865 0.0
C807 C 0.55053 0.01598 0.10046 0.0
H808 H 0.50316 0.0711 0.11087 0.0
H809 H 0.55014 0.07758 0.17782 0.0
H810 H 0.50253 0.01835 0.08019 0.0
H811 H 0.4763 0.01473 0.09779 0.0
H812 H 0.49334 0.04066 0.07634 0.0
H813 H 0.55782 0.0473 0.19044 0.0
H814 H 0.53232 0.01783 0.18423 0.0
H815 H 0.55803 0.02919 0.16211 0.0
H816 H 0.47216 0.95002 0.1554 0.0
H817 H 0.53715 0.96944 0.11047 0.0
H818 H 0.46877 1.00178 0.14424 0.0
H819 H 0.48584 0.00667 0.17521 0.0
H820 H 0.46036 0.97738 0.16818 0.0
H821 H 0.54666 0.02877 0.08923 0.0
H822 H 0.55642 0.00689 0.08535 0.0
H823 H 0.5657 0.02653 0.11483 0.0
C824 C 0.54977 0.54121 0.10192 0.0
C825 C 0.56113 0.53224 0.11921 0.0
C826 C 0.52561 0.53508 0.106 0.0
C827 C 0.51216 0.5193 0.12773 0.0
C828 C 0.52304 0.50904 0.14425 0.0
C829 C 0.54735 0.51569 0.13989 0.0
C830 C 0.5149 0.54652 0.08789 0.0
C831 C 0.50938 0.49194 0.16749 0.0
C832 C 0.46296 0.52711 0.16207 0.0
C833 C 0.44182 0.50818 0.15071 0.0
C834 C 0.4858 0.53109 0.15439 0.0
C835 C 0.48775 0.51558 0.13498 0.0
C836 C 0.46646 0.49672 0.12289 0.0
C837 C 0.44374 0.49335 0.13074 0.0
C838 C 0.50787 0.55171 0.16748 0.0
C839 C 0.46767 0.47963 0.10235 0.0
H840 H 0.55994 0.55357 0.08549 0.0
H841 H 0.55579 0.5087 0.15353 0.0
H842 H 0.49726 0.53263 0.07952 0.0
H843 H 0.51164 0.55914 0.10041 0.0
H844 H 0.52688 0.55665 0.07037 0.0
H845 H 0.5192 0.4832 0.17608 0.0
H846 H 0.50645 0.50192 0.18437 0.0
H847 H 0.49141 0.47775 0.16025 0.0
H848 H 0.46155 0.53873 0.17733 0.0
H849 H 0.42744 0.47854 0.12217 0.0
H850 H 0.52026 0.56368 0.15123 0.0
H851 H 0.51775 0.54466 0.17954 0.0
H852 H 0.50332 0.56262 0.18147 0.0
H853 H 0.47977 0.48981 0.08498 0.0
H854 H 0.44967 0.4666 0.09388 0.0
H855 H 0.47537 0.46944 0.11247 0.0
C856 C 0.05335 0.52434 0.15334 0.0
C857 C 0.05731 0.54523 0.13947 0.0
C858 C 0.03134 0.50272 0.15119 0.0
C859 C 0.01265 0.50171 0.13457 0.0
C860 C 0.01609 0.52304 0.12155 0.0
C861 C 0.03836 0.5446 0.12426 0.0
C862 C 0.0285 0.48064 0.16582 0.0
C863 C 0.99668 0.52283 0.1037 0.0
C864 C 0.9726 0.43901 0.10531 0.0
C865 C 0.95329 0.42921 0.12397 0.0
C866 C 0.9912 0.46306 0.10746 0.0
C867 C 0.9907 0.47781 0.12899 0.0
C868 C 0.9705 0.46845 0.14691 0.0
C869 C 0.95199 0.44428 0.14412 0.0
C870 C 0.01214 0.47222 0.08765 0.0
C871 C 0.96914 0.48345 0.17014 0.0
H872 H 0.06773 0.52485 0.16562 0.0
H873 H 0.04133 0.56067 0.1135 0.0
H874 H 0.01172 0.47218 0.17823 0.0
H875 H 0.02703 0.46717 0.15036 0.0
H876 H 0.04393 0.48484 0.1797 0.0
H877 H 1.0009 0.54128 0.09783 0.0
H878 H 0.99467 0.51245 0.08455 0.0
H879 H 0.9791 0.51376 0.11455 0.0
H880 H 0.97353 0.42754 0.08948 0.0
H881 H 0.93722 0.43679 0.15873 0.0
H882 H 0.02845 0.47503 0.09889 0.0
H883 H 0.01616 0.48984 0.07892 0.0
H884 H 0.00864 0.45947 0.07036 0.0
H885 H 0.98231 0.48573 0.18643 0.0
H886 H 0.95092 0.47494 0.17959 0.0
H887 H 0.97396 0.50167 0.16267 0.0
C888 C 0.01092 0.46161 0.39759 0.0
C889 C 0.03117 0.47156 0.38021 0.0
C890 C 0.99243 0.46722 0.39432 0.0
C891 C 0.99412 0.48321 0.37312 0.0
C892 C 0.01526 0.49454 0.35669 0.0
C893 C 0.03351 0.48861 0.36044 0.0
C894 C 0.9704 0.4548 0.41246 0.0
C895 C 0.01793 0.51176 0.33391 0.0
C896 C 0.93611 0.47203 0.33842 0.0
C897 C 0.93261 0.49032 0.34945 0.0
C898 C 0.95577 0.46942 0.34628 0.0
C899 C 0.97261 0.48552 0.36576 0.0
C900 C 0.96882 0.50361 0.37772 0.0
C901 C 0.94879 0.50575 0.3695 0.0
C902 C 0.95875 0.44964 0.33321 0.0
C903 C 0.98629 0.52113 0.39856 0.0
H904 H 0.00912 0.44876 0.41324 0.0
H905 H 0.04896 0.4963 0.3468 0.0
H906 H 0.96547 0.46796 0.4206 0.0
H907 H 0.95494 0.44138 0.40004 0.0
H908 H 0.97311 0.44536 0.43013 0.0
H909 H 0.03647 0.52126 0.32528 0.0
H910 H 0.00517 0.50168 0.31695 0.0
H911 H 0.0134 0.52534 0.34161 0.0
H912 H 0.92348 0.45983 0.32324 0.0
H913 H 0.9463 0.52003 0.37791 0.0
H914 H 0.95961 0.43788 0.34945 0.0
H915 H 0.97594 0.45758 0.32156 0.0
H916 H 0.94379 0.4383 0.31884 0.0
H917 H 0.98902 0.51128 0.41573 0.0
H918 H 0.98004 0.53311 0.40726 0.0
H919 H 1.00406 0.53243 0.38861 0.0
C920 C 0.4521 0.95798 0.35994 0.0
C921 C 0.4493 0.9379 0.3748 0.0
C922 C 0.47368 0.98035 0.3613 0.0
C923 C 0.49303 0.98286 0.37798 0.0
C924 C 0.4902 0.96273 0.39321 0.0
C925 C 0.46849 0.94064 0.39145 0.0
C926 C 0.47586 1.00126 0.34469 0.0
C927 C 0.51017 0.96449 0.41141 0.0
C928 C 0.5578 0.03343 0.36555 0.0
C929 C 0.56106 0.04978 0.38676 0.0
C930 C 0.53566 0.0119 0.36202 0.0
C931 C 0.51613 0.00651 0.38002 0.0
C932 C 0.51915 0.02322 0.40103 0.0
C933 C 0.54147 0.04452 0.40414 0.0
C934 C 0.53337 0.99462 0.33943 0.0
C935 C 0.4989 0.01838 0.42064 0.0
H936 H 0.43761 0.95609 0.34673 0.0
H937 H 0.4665 0.92546 0.40335 0.0
H938 H 0.47979 0.01656 0.35861 0.0
H939 H 0.49113 0.00757 0.33003 0.0
H940 H 0.45921 0.99649 0.33282 0.0
H941 H 0.50526 0.94717 0.42173 0.0
H942 H 0.52666 0.97012 0.39896 0.0
H943 H 0.51467 0.97843 0.42753 0.0
H944 H 0.57277 0.03708 0.35215 0.0
H945 H 0.54357 0.05714 0.42027 0.0
H946 H 0.51764 0.99038 0.32612 0.0
H947 H 0.53019 0.97745 0.34869 0.0
H948 H 0.54973 1.00192 0.32628 0.0
H949 H 0.48261 0.01489 0.40886 0.0
H950 H 0.50372 0.03362 0.43505 0.0
H951 H 0.4941 1.002 0.43296 0.0
C952 C 0.50171 0.46652 0.3525 0.0
C953 C 0.48564 0.45229 0.37333 0.0
C954 C 0.51052 0.49157 0.3512 0.0
C955 C 0.5032 0.50281 0.37125 0.0
C956 C 0.48731 0.48858 0.39255 0.0
C957 C 0.47879 0.46365 0.39333 0.0
C958 C 0.52743 0.50595 0.32813 0.0
C959 C 0.47916 0.4997 0.41452 0.0
C960 C 0.54208 0.57063 0.38334 0.0
C961 C 0.52954 0.5799 0.36872 0.0
C962 C 0.53375 0.54572 0.3843 0.0
C963 C 0.5123 0.52944 0.37024 0.0
C964 C 0.49937 0.53863 0.3557 0.0
C965 C 0.50808 0.56366 0.35519 0.0
C966 C 0.54804 0.53684 0.40027 0.0
C967 C 0.47648 0.52204 0.34033 0.0
H968 H 0.50693 0.45799 0.33676 0.0
H969 H 0.4667 0.453 0.40976 0.0
H970 H 0.51936 0.51461 0.31559 0.0
H971 H 0.54455 0.52055 0.33681 0.0
H972 H 0.53158 0.49464 0.31431 0.0
H973 H 0.46684 0.48623 0.42976 0.0
H974 H 0.49499 0.51394 0.4257 0.0
H975 H 0.46974 0.50839 0.40479 0.0
H976 H 0.55853 0.58293 0.39407 0.0
H977 H 0.49842 0.57056 0.34348 0.0
H978 H 0.55375 0.52688 0.38629 0.0
H979 H 0.53663 0.5241 0.41658 0.0
H980 H 0.56432 0.55177 0.41013 0.0
H981 H 0.48013 0.51172 0.32451 0.0
H982 H 0.46856 0.53195 0.32995 0.0
H983 H 0.46297 0.50879 0.35483 0.0
C984 C 0.51298 0.06002 0.86244 0.0
C985 C 0.52998 0.07778 0.88013 0.0
C986 C 0.51238 0.03793 0.8584 0.0
C987 C 0.52926 0.0334 0.87223 0.0
C988 C 0.54568 0.05078 0.89108 0.0
C989 C 0.54582 0.07265 0.89479 0.0
C990 C 0.49452 0.02003 0.83811 0.0
C991 C 0.56396 0.04681 0.90632 0.0
C992 C 0.52096 0.96977 0.87016 0.0
C993 C 0.53552 0.97155 0.84761 0.0
C994 C 0.51883 0.98975 0.87869 0.0
C995 C 0.5317 0.01203 0.86449 0.0
C996 C 0.54701 0.014 0.84234 0.0
C997 C 0.54873 0.99387 0.83428 0.0
C998 C 0.50227 0.98684 0.90234 0.0
C999 C 0.56131 0.03734 0.82671 0.0
H1000 H 0.50081 0.06373 0.85071 0.0
H1001 H 0.55874 0.08601 0.90884 0.0
H1002 H 0.50403 0.02045 0.81878 0.0
H1003 H 0.48612 1.00147 0.84646 0.0
H1004 H 0.48004 0.02411 0.83289 0.0
H1005 H 0.57373 0.06078 0.92235 0.0
H1006 H 0.55509 0.02886 0.91633 0.0
H1007 H 0.57732 0.04719 0.89144 0.0
H1008 H 0.5106 0.95258 0.88043 0.0
H1009 H 0.56037 0.99554 0.81719 0.0
H1010 H 0.48728 0.98927 0.89472 0.0
H1011 H 0.51209 1.00089 0.91821 0.0
H1012 H 0.49455 0.96885 0.91222 0.0
H1013 H 0.54889 0.04246 0.81682 0.0
H1014 H 0.57286 0.03608 0.81043 0.0
H1015 H 0.57295 0.05204 0.84116 0.0
C1016 C 0.48069 0.5292 0.86726 0.0
C1017 C 0.45854 0.50983 0.87595 0.0
C1018 C 0.50194 0.52786 0.86769 0.0
C1019 C 0.5013 0.50666 0.87728 0.0
C1020 C 0.47886 0.48671 0.88522 0.0
C1021 C 0.45775 0.48848 0.8843 0.0
C1022 C 0.52527 0.54947 0.85861 0.0
C1023 C 0.4773 0.4638 0.89566 0.0
C1024 C 0.55641 0.49983 0.86249 0.0
C1025 C 0.56978 0.50852 0.88706 0.0
C1026 C 0.53394 0.49865 0.85914 0.0
C1027 C 0.52438 0.50622 0.88087 0.0
C1028 C 0.53757 0.51464 0.90581 0.0
C1029 C 0.55999 0.51579 0.90853 0.0
C1030 C 0.52059 0.48964 0.83214 0.0
C1031 C 0.52821 0.52294 0.92957 0.0
H1032 H 0.48143 0.54557 0.86016 0.0
H1033 H 0.44077 0.47347 0.89108 0.0
H1034 H 0.53771 0.55691 0.87648 0.0
H1035 H 0.53425 0.54411 0.84281 0.0
H1036 H 0.5225 0.56394 0.8499 0.0
H1037 H 0.45839 0.44932 0.89901 0.0
H1038 H 0.48595 0.45727 0.88081 0.0
H1039 H 0.48721 0.46741 0.9155 0.0
H1040 H 0.56341 0.49385 0.84581 0.0
H1041 H 0.57005 0.52292 0.92746 0.0
H1042 H 0.51896 0.50427 0.82194 0.0
H1043 H 0.50205 0.47464 0.83594 0.0
H1044 H 0.52978 0.48331 0.81775 0.0
H1045 H 0.52697 0.53892 0.92323 0.0
H1046 H 0.53994 0.52777 0.94812 0.0
H1047 H 0.50982 0.50861 0.93531 0.0
C1048 C 0.95388 0.44673 0.86371 0.0
C1049 C 0.9329 0.44651 0.87269 0.0
C1050 C 0.97671 0.46768 0.86579 0.0
C1051 C 0.97874 0.4891 0.87694 0.0
C1052 C 0.9577 0.489 0.88607 0.0
C1053 C 0.93521 0.46779 0.88404 0.0
C1054 C 0.99868 0.46689 0.85604 0.0
C1055 C 0.9589 0.51136 0.89803 0.0
C1056 C 0.03816 0.53775 0.90771 0.0
C1057 C 0.04772 0.555 0.88645 0.0
C1058 C 0.01616 0.51613 0.90461 0.0
C1059 C 1.00286 0.51152 0.8798 0.0
C1060 C 0.01219 0.52878 0.85827 0.0
C1061 C 0.03448 0.55014 0.86175 0.0
C1062 C 0.00703 0.49825 0.9281 0.0
C1063 C 0.9985 0.52478 0.83157 0.0
H1064 H 0.95248 0.43063 0.85464 0.0
H1065 H 0.9194 0.46795 0.89158 0.0
H1066 H 0.00788 0.48042 0.83952 0.0
H1067 H 0.01166 0.47163 0.87332 0.0
H1068 H 0.99415 0.44888 0.84795 0.0
H1069 H 0.94083 0.50856 0.90341 0.0
H1070 H 0.97021 0.51701 0.91692 0.0
H1071 H 0.96747 0.52638 0.88301 0.0
H1072 H 0.04771 0.54111 0.92709 0.0
H1073 H 0.04151 0.5629 0.84492 0.0
H1074 H 1.0034 0.48036 0.92068 0.0
H1075 H 0.98977 0.49604 0.93595 0.0
H1076 H 0.02001 0.50392 0.94554 0.0
H1077 H 0.99528 0.50779 0.82171 0.0
H1078 H 0.00821 0.53978 0.81671 0.0
H1079 H 0.98061 0.52287 0.83586 0.0
C1080 C 0.95463 0.49208 0.62545 0.0
C1081 C 0.9603 0.51595 0.62065 0.0
C1082 C 0.97284 0.48579 0.62702 0.0
C1083 C 0.99741 0.50382 0.62416 0.0
C1084 C 1.00321 0.52803 0.62023 0.0
C1085 C 0.98468 0.53373 0.61838 0.0
C1086 C 0.96575 0.45973 0.63095 0.0
C1087 C 0.02904 0.54796 0.61752 0.0
C1088 C 0.04775 0.49161 0.64706 0.0
C1089 C 0.05543 0.48683 0.62179 0.0
C1090 C 0.02887 0.49697 0.64824 0.0
C1091 C 0.01702 0.49736 0.62363 0.0
C1092 C 0.02458 0.49247 0.59814 0.0
C1093 C 0.04367 0.48751 0.5975 0.0
C1094 C 0.02167 0.50236 0.67586 0.0
C1095 C 0.01257 0.49261 0.57134 0.0
H1096 H 0.9359 0.47821 0.62715 0.0
H1097 H 0.98933 0.55229 0.61527 0.0
H1098 H 0.97108 0.4532 0.6125 0.0
H1099 H 0.97541 0.45782 0.64893 0.0
H1100 H 0.94607 0.44803 0.63421 0.0
H1101 H 0.03066 0.56602 0.61623 0.0
H1102 H 0.03974 0.54775 0.63544 0.0
H1103 H 0.03715 0.54509 0.59868 0.0
H1104 H 0.05628 0.49094 0.66607 0.0
H1105 H 0.04943 0.48435 0.57772 0.0
H1106 H 1.0024 0.48941 0.67995 0.0
H1107 H 0.02378 0.52063 0.6756 0.0
H1108 H 0.03259 0.50138 0.69311 0.0
H1109 H 0.99288 0.48005 0.57269 0.0
H1110 H 0.01974 0.48735 0.55338 0.0
H1111 H 0.01526 0.51086 0.5675 0.0
C1112 C 0.54575 0.03974 0.62921 0.0
C1113 C 0.56192 0.03339 0.64069 0.0
C1114 C 0.5209 0.02279 0.62752 0.0
C1115 C 0.51209 0.9991 0.63778 0.0
C1116 C 0.52824 0.99325 0.65095 0.0
C1117 C 0.55284 0.01037 0.65213 0.0
C1118 C 0.50432 0.02984 0.61346 0.0
C1119 C 0.51976 0.96841 0.66256 0.0
C1120 C 0.44598 0.9519 0.64846 0.0
C1121 C 0.44183 0.93663 0.62576 0.0
C1122 C 0.46828 0.97324 0.65191 0.0
C1123 C 0.48683 0.97948 0.63215 0.0
C1124 C 0.48207 0.9649 0.60834 0.0
C1125 C 0.45973 0.94372 0.60549 0.0
C1126 C 0.47241 0.98827 0.67752 0.0
C1127 C 0.50111 0.97086 0.58656 0.0
H1128 H 0.55269 0.05751 0.62038 0.0
H1129 H 0.56521 0.00558 0.66156 0.0
H1130 H 0.49889 0.02084 0.59302 0.0
H1131 H 0.48766 0.02379 0.62574 0.0
H1132 H 0.51307 0.0496 0.61027 0.0
H1133 H 0.53414 0.9674 0.67429 0.0
H1134 H 0.50412 0.96304 0.67644 0.0
H1135 H 0.51376 0.95512 0.64545 0.0
H1136 H 0.4323 0.94655 0.66428 0.0
H1137 H 0.45647 0.93226 0.58766 0.0
H1138 H 0.48149 0.00769 0.67226 0.0
H1139 H 0.48439 0.98564 0.69189 0.0
H1140 H 0.45531 0.98329 0.68847 0.0
H1141 H 0.50912 0.98993 0.58007 0.0
H1142 H 0.49383 0.95919 0.568 0.0
H1143 H 0.51583 0.96851 0.59528 0.0
C1144 C 0.51676 0.45892 0.63129 0.0
C1145 C 0.50323 0.44442 0.60891 0.0
C1146 C 0.51936 0.48181 0.6359 0.0
C1147 C 0.50846 0.49076 0.61755 0.0
C1148 C 0.49562 0.47672 0.59434 0.0
C1149 C 0.49306 0.45379 0.5904 0.0
C1150 C 0.53312 0.49607 0.66099 0.0
C1151 C 0.48384 0.48558 0.5741 0.0
C1152 C 0.4891 0.53491 0.64255 0.0
C1153 C 0.50709 0.55687 0.6317 0.0
C1154 C 0.48983 0.51353 0.63891 0.0
C1155 C 0.50886 0.51391 0.62361 0.0
C1156 C 0.52747 0.53617 0.6132 0.0
C1157 C 0.52647 0.55743 0.61759 0.0
C1158 C 0.46986 0.4904 0.65092 0.0
C1159 C 0.54794 0.53737 0.59654 0.0
H1160 H 0.52523 0.45238 0.64549 0.0
H1161 H 0.48242 0.44294 0.57317 0.0
H1162 H 0.54717 0.51446 0.65486 0.0
H1163 H 0.52068 0.49801 0.67532 0.0
H1164 H 0.54184 0.48736 0.67229 0.0
H1165 H 0.47628 0.47352 0.55589 0.0
H1166 H 0.46905 0.48679 0.5845 0.0
H1167 H 0.49704 0.50391 0.56678 0.0
H1168 H 0.47427 0.53447 0.65381 0.0
H1169 H 0.5403 0.57433 0.60902 0.0
H1170 H 0.47752 0.48157 0.66386 0.0
H1171 H 0.45953 0.47773 0.63399 0.0
H1172 H 0.4572 0.4934 0.66373 0.0
H1173 H 0.55673 0.52887 0.60806 0.0
H1174 H 0.56174 0.55616 0.59137 0.0
H1175 H 0.54082 0.52711 0.57703 0.0
C1176 C 0.48608 0.30402 0.26714 0.0
C1177 C 0.48738 0.29762 0.29459 0.0
C1178 C 0.48742 0.29065 0.24471 0.0
C1179 C 0.49014 0.27032 0.24972 0.0
C1180 C 0.49248 0.26441 0.27733 0.0
C1181 C 0.49108 0.27807 0.2993 0.0
C1182 C 0.48488 0.29767 0.21569 0.0
C1183 C 0.49555 0.24304 0.28377 0.0
C1184 C 0.46464 0.21727 0.19968 0.0
C1185 C 0.48541 0.2196 0.18679 0.0
C1186 C 0.46591 0.23409 0.21927 0.0
C1187 C 0.48852 0.25399 0.22652 0.0
C1188 C 0.50948 0.25715 0.21285 0.0
C1189 C 0.50769 0.24002 0.1932 0.0
C1190 C 0.44303 0.22991 0.23319 0.0
C1191 C 0.53395 0.27818 0.21973 0.0
H1192 H 0.48301 0.31891 0.26315 0.0
H1193 H 0.49254 0.27318 0.32033 0.0
H1194 H 0.49941 0.29865 0.20231 0.0
H1195 H 0.46749 0.28373 0.20681 0.0
H1196 H 0.48547 0.31528 0.21501 0.0
H1197 H 0.49874 0.24178 0.30611 0.0
H1198 H 0.47914 0.22621 0.27741 0.0
H1199 H 0.51087 0.24414 0.27189 0.0
H1200 H 0.44726 0.20171 0.19548 0.0
H1201 H 0.52389 0.24244 0.1833 0.0
H1202 H 0.44138 0.2463 0.2318 0.0
H1203 H 0.44362 0.22608 0.25544 0.0
H1204 H 0.4267 0.2146 0.22392 0.0
H1205 H 0.53358 0.29529 0.21866 0.0
H1206 H 0.54817 0.2794 0.20559 0.0
H1207 H 0.53888 0.27634 0.2412 0.0
C1208 C 0.2628 0.49151 0.19703 0.0
C1209 C 0.2598 0.46893 0.18971 0.0
C1210 C 0.24815 0.4937 0.21725 0.0
C1211 C 0.23003 0.47284 0.23065 0.0
C1212 C 0.22631 0.44997 0.22263 0.0
C1213 C 0.24115 0.4483 0.20237 0.0
C1214 C 0.25261 0.51842 0.22493 0.0
C1215 C 0.2073 0.42722 0.23636 0.0
C1216 C 0.21013 0.47594 0.30405 0.0
C1217 C 0.18725 0.47335 0.29989 0.0
C1218 C 0.22451 0.47663 0.28171 0.0
C1219 C 0.21597 0.4748 0.25431 0.0
C1220 C 0.19334 0.47319 0.24985 0.0
C1221 C 0.17926 0.47245 0.27263 0.0
C1222 C 0.24854 0.47848 0.28753 0.0
C1223 C 0.18356 0.47132 0.22103 0.0
H1224 H 0.27691 0.50756 0.18727 0.0
H1225 H 0.23873 0.43076 0.19743 0.0
H1226 H 0.23552 0.51886 0.22425 0.0
H1227 H 0.25952 0.52274 0.24641 0.0
H1228 H 0.26586 0.53262 0.21101 0.0
H1229 H 0.2056 0.41074 0.2266 0.0
H1230 H 0.21187 0.42735 0.25849 0.0
H1231 H 0.18955 0.42627 0.23544 0.0
H1232 H 0.21673 0.47712 0.32491 0.0
H1233 H 0.1616 0.47025 0.26902 0.0
H1234 H 0.263 0.4937 0.27584 0.0
H1235 H 0.24818 0.46181 0.28051 0.0
H1236 H 0.25321 0.48111 0.30985 0.0
H1237 H 0.19722 0.48577 0.20772 0.0
H1238 H 0.16688 0.47257 0.22084 0.0
H1239 H 0.17948 0.45386 0.21171 0.0
C1240 C 0.80262 0.28025 0.22653 0.0
C1241 C 0.79477 0.27488 0.19896 0.0
C1242 C 0.7883 0.26583 0.24849 0.0
C1243 C 0.76564 0.24529 0.24291 0.0
C1244 C 0.75717 0.24029 0.21533 0.0
C1245 C 0.7717 0.25519 0.19382 0.0
C1246 C 0.79792 0.27202 0.27762 0.0
C1247 C 0.73318 0.21855 0.20836 0.0
C1248 C 0.74379 0.19259 0.29272 0.0
C1249 C 0.72602 0.19426 0.30793 0.0
C1250 C 0.75665 0.209 0.27157 0.0
C1251 C 0.75186 0.22782 0.26545 0.0
C1252 C 0.7339 0.22963 0.28066 0.0
C1253 C 0.72107 0.21272 0.30158 0.0
C1254 C 0.77529 0.20605 0.25561 0.0
C1255 C 0.72841 0.24955 0.27499 0.0
H1256 H 0.82033 0.29523 0.23105 0.0
H1257 H 0.76504 0.25108 0.17284 0.0
H1258 H 0.78412 0.27186 0.29159 0.0
H1259 H 0.80218 0.25826 0.2853 0.0
H1260 H 0.81448 0.28995 0.27892 0.0
H1261 H 0.72838 0.2181 0.18622 0.0
H1262 H 0.73376 0.2019 0.2131 0.0
H1263 H 0.7187 0.21827 0.22118 0.0
H1264 H 0.7474 0.17811 0.29704 0.0
H1265 H 0.70746 0.21418 0.31332 0.0
H1266 H 0.79319 0.22248 0.25779 0.0
H1267 H 0.77069 0.20375 0.2333 0.0
H1268 H 0.7767 0.19033 0.26274 0.0
H1269 H 0.74483 0.26728 0.27833 0.0
H1270 H 0.71381 0.24837 0.28844 0.0
H1271 H 0.72299 0.2489 0.2531 0.0
C1272 C 0.51198 0.78542 0.17 0.0
C1273 C 0.53442 0.80654 0.16713 0.0
C1274 C 0.50832 0.76782 0.18993 0.0
C1275 C 0.52746 0.77141 0.20767 0.0
C1276 C 0.55034 0.79218 0.20415 0.0
C1277 C 0.55354 0.80933 0.18403 0.0
C1278 C 0.4837 0.74581 0.19267 0.0
C1279 C 0.57128 0.79696 0.22264 0.0
C1280 C 0.51601 0.74544 0.28051 0.0
C1281 C 0.52215 0.72729 0.27826 0.0
C1282 C 0.51668 0.75919 0.25752 0.0
C1283 C 0.52342 0.75464 0.2313 0.0
C1284 C 0.52841 0.73552 0.2285 0.0
C1285 C 0.5278 0.72216 0.25195 0.0
C1286 C 0.5112 0.77934 0.2616 0.0
C1287 C 0.5354 0.72982 0.20093 0.0
H1288 H 0.4971 0.78285 0.15704 0.0
H1289 H 0.57088 0.82557 0.18265 0.0
H1290 H 0.48518 0.72928 0.19333 0.0
H1291 H 0.47533 0.74673 0.21235 0.0
H1292 H 0.47157 0.74421 0.17539 0.0
H1293 H 0.58829 0.81315 0.2162 0.0
H1294 H 0.56722 0.79963 0.24421 0.0
H1295 H 0.57415 0.78126 0.2226 0.0
H1296 H 0.51107 0.74928 0.30048 0.0
H1297 H 0.5327 0.70833 0.24977 0.0
H1298 H 0.49731 0.77762 0.24665 0.0
H1299 H 0.52766 0.79689 0.25766 0.0
H1300 H 0.50476 0.7796 0.28284 0.0
H1301 H 0.52264 0.72857 0.18464 0.0
H1302 H 0.5358 0.71269 0.20139 0.0
H1303 H 0.55353 0.74457 0.19502 0.0
C1304 C 0.70243 0.51667 0.2207 0.0
C1305 C 0.71524 0.52986 0.19729 0.0
C1306 C 0.71442 0.51438 0.24398 0.0
C1307 C 0.73985 0.52532 0.24391 0.0
C1308 C 0.75285 0.53836 0.22031 0.0
C1309 C 0.74049 0.54057 0.19753 0.0
C1310 C 0.69986 0.50041 0.26873 0.0
C1311 C 0.77997 0.55023 0.21918 0.0
C1312 C 0.77872 0.54206 0.30876 0.0
C1313 C 0.78584 0.52454 0.30906 0.0
C1314 C 0.7626 0.54173 0.28872 0.0
C1315 C 0.75321 0.52341 0.26834 0.0
C1316 C 0.75876 0.50464 0.2698 0.0
C1317 C 0.77472 0.50529 0.29023 0.0
C1318 C 0.75677 0.56183 0.28841 0.0
C1319 C 0.74914 0.48466 0.24861 0.0
H1320 H 0.683 0.50803 0.22093 0.0
H1321 H 0.75087 0.55116 0.18007 0.0
H1322 H 0.70313 0.4853 0.27315 0.0
H1323 H 0.70562 0.5122 0.28725 0.0
H1324 H 0.68023 0.49301 0.26564 0.0
H1325 H 0.78741 0.55923 0.19907 0.0
H1326 H 0.78809 0.56386 0.23587 0.0
H1327 H 0.78562 0.53665 0.22267 0.0
H1328 H 0.78634 0.5566 0.32364 0.0
H1329 H 0.77927 0.4912 0.29038 0.0
H1330 H 0.7371 0.55447 0.2861 0.0
H1331 H 0.76566 0.5737 0.27042 0.0
H1332 H 0.76295 0.57293 0.30749 0.0
H1333 H 0.72944 0.47686 0.24596 0.0
H1334 H 0.75284 0.47002 0.25432 0.0
H1335 H 0.75768 0.49209 0.22832 0.0
C1336 C 0.28656 0.79291 0.2791 0.0
C1337 C 0.2759 0.80095 0.29858 0.0
C1338 C 0.27277 0.77646 0.2582 0.0
C1339 C 0.24761 0.76754 0.25693 0.0
C1340 C 0.23661 0.77469 0.2774 0.0
C1341 C 0.25088 0.79141 0.29778 0.0
C1342 C 0.28534 0.76959 0.2367 0.0
C1343 C 0.2098 0.76527 0.27725 0.0
C1344 C 0.21268 0.74681 0.18921 0.0
C1345 C 0.20097 0.72167 0.19167 0.0
C1346 C 0.2287 0.76192 0.20971 0.0
C1347 C 0.23287 0.75169 0.23357 0.0
C1348 C 0.22176 0.72632 0.23572 0.0
C1349 C 0.20614 0.71166 0.21468 0.0
C1350 C 0.24054 0.78886 0.20625 0.0
C1351 C 0.22547 0.71461 0.26085 0.0
H1352 H 0.30588 0.8004 0.27934 0.0
H1353 H 0.24254 0.79741 0.3129 0.0
H1354 H 0.27575 0.74981 0.23361 0.0
H1355 H 0.28519 0.77788 0.21663 0.0
H1356 H 0.30433 0.77571 0.24238 0.0
H1357 H 0.20379 0.77118 0.29571 0.0
H1358 H 0.2048 0.77172 0.2585 0.0
H1359 H 0.19987 0.7453 0.27652 0.0
H1360 H 0.20895 0.75467 0.17141 0.0
H1361 H 0.19707 0.6923 0.21697 0.0
H1362 H 0.26029 0.79732 0.20917 0.0
H1363 H 0.23374 0.79638 0.22226 0.0
H1364 H 0.23699 0.79398 0.18559 0.0
H1365 H 0.24497 0.72199 0.26473 0.0
H1366 H 0.21673 0.69474 0.25865 0.0
H1367 H 0.21788 0.71873 0.2793 0.0
C1368 C 0.52646 0.80677 0.77586 0.0
C1369 C 0.53738 0.80792 0.8015 0.0
C1370 C 0.52564 0.79135 0.75461 0.0
C1371 C 0.53622 0.77676 0.75875 0.0
C1372 C 0.54667 0.77729 0.78476 0.0
C1373 C 0.54705 0.79273 0.80576 0.0
C1374 C 0.51415 0.7913 0.72734 0.0
C1375 C 0.55813 0.76204 0.79015 0.0
C1376 C 0.52168 0.72367 0.71085 0.0
C1377 C 0.54202 0.73323 0.69355 0.0
C1378 C 0.51924 0.7377 0.73168 0.0
C1379 C 0.53756 0.76197 0.73547 0.0
C1380 C 0.55763 0.77201 0.71741 0.0
C1381 C 0.55956 0.75761 0.69671 0.0
C1382 C 0.49743 0.72627 0.75025 0.0
C1383 C 0.57752 0.79783 0.72048 0.0
H1384 H 0.51927 0.81856 0.77182 0.0
H1385 H 0.55529 0.79319 0.82545 0.0
H1386 H 0.52809 0.79865 0.71095 0.0
H1387 H 0.50072 0.77262 0.72131 0.0
H1388 H 0.50508 0.80222 0.72805 0.0
H1389 H 0.56451 0.76362 0.8118 0.0
H1390 H 0.5451 0.74284 0.78575 0.0
H1391 H 0.5737 0.76758 0.77609 0.0
H1392 H 0.50802 0.70491 0.70893 0.0
H1393 H 0.57514 0.76538 0.68329 0.0
H1394 H 0.48866 0.73745 0.75085 0.0
H1395 H 0.50305 0.72528 0.77166 0.0
H1396 H 0.48397 0.7078 0.74342 0.0
H1397 H 0.56999 0.81009 0.71955 0.0
H1398 H 0.59151 0.80321 0.70422 0.0
H1399 H 0.58625 0.8004 0.74097 0.0
C1400 C 0.78006 0.5175 0.68648 0.0
C1401 C 0.79901 0.51278 0.69055 0.0
C1402 C 0.76468 0.51566 0.70823 0.0
C1403 C 0.76821 0.50886 0.7349 0.0
C1404 C 0.78631 0.50253 0.73875 0.0
C1405 C 0.80149 0.50456 0.71656 0.0
C1406 C 0.7456 0.52246 0.703 0.0
C1407 C 0.79068 0.49506 0.76674 0.0
C1408 C 0.75235 0.53656 0.79523 0.0
C1409 C 0.72994 0.51764 0.80397 0.0
C1410 C 0.76499 0.53372 0.77319 0.0
C1411 C 0.75508 0.51137 0.75919 0.0
C1412 C 0.73249 0.4921 0.76783 0.0
C1413 C 0.72017 0.49548 0.79004 0.0
C1414 C 0.78887 0.55488 0.76463 0.0
C1415 C 0.72132 0.46798 0.75352 0.0
H1416 H 0.77775 0.52346 0.66636 0.0
H1417 H 0.81612 0.50099 0.72005 0.0
H1418 H 0.72803 0.50859 0.7115 0.0
H1419 H 0.75062 0.53966 0.7137 0.0
H1420 H 0.74335 0.52473 0.68064 0.0
H1421 H 0.80294 0.4875 0.76555 0.0
H1422 H 0.79888 0.51094 0.78066 0.0
H1423 H 0.77343 0.48147 0.77621 0.0
H1424 H 0.75994 0.55393 0.80526 0.0
H1425 H 0.70299 0.4807 0.79667 0.0
H1426 H 0.78774 0.56001 0.74302 0.0
H1427 H 0.80312 0.54987 0.76532 0.0
H1428 H 0.79442 0.57086 0.77808 0.0
H1429 H 0.71806 0.47006 0.73145 0.0
H1430 H 0.70399 0.45463 0.76311 0.0
H1431 H 0.73388 0.46079 0.75415 0.0
C1432 C 0.27978 0.78344 0.71563 0.0
C1433 C 0.27006 0.79271 0.6964 0.0
C1434 C 0.26527 0.76684 0.73598 0.0
C1435 C 0.24044 0.7594 0.73736 0.0
C1436 C 0.23028 0.76767 0.71713 0.0
C1437 C 0.24515 0.78408 0.69689 0.0
C1438 C 0.27681 0.7583 0.75692 0.0
C1439 C 0.2039 0.76019 0.71773 0.0
C1440 C 0.19637 0.70669 0.78222 0.0
C1441 C 0.19442 0.71866 0.80556 0.0
C1442 C 0.21183 0.71958 0.76018 0.0
C1443 C 0.22557 0.74505 0.7614 0.0
C1444 C 0.22425 0.75711 0.78529 0.0
C1445 C 0.20886 0.74381 0.80703 0.0
C1446 C 0.21289 0.70599 0.73523 0.0
C1447 C 0.23859 0.78423 0.78759 0.0
H1448 H 0.29895 0.78999 0.71571 0.0
H1449 H 0.23731 0.79067 0.68187 0.0
H1450 H 0.27743 0.7665 0.77732 0.0
H1451 H 0.266 0.73847 0.75942 0.0
H1452 H 0.29547 0.7632 0.75101 0.0
H1453 H 0.19838 0.76661 0.69931 0.0
H1454 H 0.19266 0.74031 0.71884 0.0
H1455 H 0.20004 0.76766 0.7365 0.0
H1456 H 0.18522 0.68732 0.78069 0.0
H1457 H 0.20791 0.75321 0.82515 0.0
H1458 H 0.23187 0.71172 0.73006 0.0
H1459 H 0.20501 0.71019 0.71712 0.0
H1460 H 0.2029 0.6862 0.7385 0.0
H1461 H 0.25804 0.79067 0.7846 0.0
H1462 H 0.23617 0.79081 0.8079 0.0
H1463 H 0.23298 0.79242 0.77109 0.0
C1464 C 0.47992 0.22604 0.80961 0.0
C1465 C 0.49722 0.21885 0.81282 0.0
C1466 C 0.4819 0.24208 0.78863 0.0
C1467 C 0.50191 0.25163 0.77051 0.0
C1468 C 0.52041 0.24598 0.77497 0.0
C1469 C 0.51779 0.22958 0.79592 0.0
C1470 C 0.4617 0.24751 0.78473 0.0
C1471 C 0.5423 0.2561 0.75655 0.0
C1472 C 0.48839 0.26374 0.69766 0.0
C1473 C 0.49602 0.28844 0.69842 0.0
C1474 C 0.49092 0.25183 0.72064 0.0
C1475 C 0.5018 0.26491 0.7451 0.0
C1476 C 0.51086 0.29012 0.74557 0.0
C1477 C 0.50774 0.30157 0.72231 0.0
C1478 C 0.48096 0.22495 0.71907 0.0
C1479 C 0.52304 0.30486 0.77098 0.0
H1480 H 0.46423 0.21835 0.82288 0.0
H1481 H 0.53129 0.22422 0.79798 0.0
H1482 H 0.46896 0.26721 0.78319 0.0
H1483 H 0.45213 0.23933 0.7651 0.0
H1484 H 0.44844 0.24038 0.80189 0.0
H1485 H 0.55674 0.25332 0.76537 0.0
H1486 H 0.53717 0.24711 0.73609 0.0
H1487 H 0.54959 0.27564 0.75311 0.0
H1488 H 0.47991 0.2535 0.67916 0.0
H1489 H 0.51369 0.3206 0.72329 0.0
H1490 H 0.46623 0.21575 0.73435 0.0
H1491 H 0.49515 0.22053 0.72437 0.0
H1492 H 0.47378 0.21754 0.69824 0.0
H1493 H 0.50951 0.30044 0.78753 0.0
H1494 H 0.53199 0.32451 0.76685 0.0
H1495 H 0.53666 0.30047 0.7789 0.0
C1496 C 0.22433 0.47139 0.70578 0.0
C1497 C 0.20808 0.48004 0.70762 0.0
C1498 C 0.23989 0.47407 0.72765 0.0
C1499 C 0.23978 0.48625 0.75203 0.0
C1500 C 0.22458 0.49643 0.75343 0.0
C1501 C 0.20878 0.49307 0.73133 0.0
C1502 C 0.25565 0.4628 0.72511 0.0
C1503 C 0.2243 0.51008 0.77871 0.0
C1504 C 0.25857 0.46517 0.81599 0.0
C1505 C 0.28343 0.48156 0.81742 0.0
C1506 C 0.24397 0.46722 0.79572 0.0
C1507 C 0.25423 0.48645 0.77653 0.0
C1508 C 0.2789 0.5041 0.77911 0.0
C1509 C 0.29321 0.50138 0.79933 0.0
C1510 C 0.21781 0.44788 0.79379 0.0
C1511 C 0.29053 0.5252 0.75955 0.0
H1512 H 0.22453 0.46191 0.68735 0.0
H1513 H 0.19639 0.49986 0.73314 0.0
H1514 H 0.27475 0.47647 0.72893 0.0
H1515 H 0.25039 0.44854 0.74096 0.0
H1516 H 0.25427 0.45468 0.70443 0.0
H1517 H 0.21426 0.51983 0.77508 0.0
H1518 H 0.21562 0.49734 0.79607 0.0
H1519 H 0.24294 0.52323 0.78521 0.0
H1520 H 0.25059 0.45014 0.83017 0.0
H1521 H 0.31232 0.5142 0.79998 0.0
H1522 H 0.2148 0.43754 0.77435 0.0
H1523 H 0.20611 0.45605 0.79311 0.0
H1524 H 0.21213 0.43512 0.81142 0.0
H1525 H 0.29261 0.51888 0.73893 0.0
H1526 H 0.30861 0.53921 0.76686 0.0
H1527 H 0.27902 0.53347 0.75692 0.0
C1528 C 0.70818 0.19643 0.72233 0.0
C1529 C 0.72006 0.19386 0.6993 0.0
C1530 C 0.72112 0.21165 0.74451 0.0
C1531 C 0.74662 0.22461 0.74374 0.0
C1532 C 0.75869 0.22247 0.7203 0.0
C1533 C 0.7453 0.20719 0.69842 0.0
C1534 C 0.70751 0.21355 0.76892 0.0
C1535 C 0.78585 0.2359 0.71861 0.0
C1536 C 0.78467 0.27928 0.78921 0.0
C1537 C 0.79335 0.26962 0.80922 0.0
C1538 C 0.76858 0.26467 0.76848 0.0
C1539 C 0.76089 0.23976 0.76771 0.0
C1540 C 0.76851 0.22969 0.78875 0.0
C1541 C 0.7846 0.24471 0.80919 0.0
C1542 C 0.76089 0.27617 0.74653 0.0
C1543 C 0.76062 0.20321 0.7889 0.0
H1544 H 0.68869 0.18652 0.72306 0.0
H1545 H 0.75469 0.20517 0.68096 0.0
H1546 H 0.71211 0.20686 0.78779 0.0
H1547 H 0.7129 0.23267 0.7727 0.0
H1548 H 0.68769 0.20308 0.76586 0.0
H1549 H 0.79248 0.23297 0.69858 0.0
H1550 H 0.79294 0.25549 0.72135 0.0
H1551 H 0.79337 0.22997 0.73553 0.0
H1552 H 0.79144 0.29849 0.78878 0.0
H1553 H 0.79095 0.23705 0.82476 0.0
H1554 H 0.74107 0.26581 0.74369 0.0
H1555 H 0.76919 0.27595 0.7265 0.0
H1556 H 0.76631 0.29512 0.75163 0.0
H1557 H 0.74073 0.19222 0.7873 0.0
H1558 H 0.76651 0.19783 0.80786 0.0
H1559 H 0.76828 0.19887 0.77069 0.0
C1560 C 0.43484 0.07555 0.2621 0.0
C1561 C 0.42898 0.07727 0.23457 0.0
C1562 C 0.42189 0.05398 0.27679 0.0
C1563 C 0.40333 0.03357 0.26324 0.0
C1564 C 0.39567 0.03594 0.23662 0.0
C1565 C 0.40823 0.05801 0.2229 0.0
C1566 C 0.42972 0.05242 0.30576 0.0
C1567 C 0.37626 0.01456 0.22117 0.0
C1568 C 0.4023 0.97537 0.27904 0.0
C1569 C 0.38075 0.96248 0.2939 0.0
C1570 C 0.4095 0.9983 0.2686 0.0
C1571 C 0.39547 0.00924 0.27432 0.0
C1572 C 0.37412 0.99681 0.28997 0.0
C1573 C 0.36669 0.97333 0.29899 0.0
C1574 C 0.43219 0.01079 0.25141 0.0
C1575 C 0.35931 0.00837 0.29741 0.0
H1576 H 0.45065 0.09033 0.27154 0.0
H1577 H 0.40292 0.05953 0.20207 0.0
H1578 H 0.41396 0.04075 0.31891 0.0
H1579 H 0.44156 0.04439 0.30515 0.0
H1580 H 0.43993 0.07049 0.31551 0.0
H1581 H 0.36965 0.02014 0.20297 0.0
H1582 H 0.38369 0.00318 0.21379 0.0
H1583 H 0.36075 0.00326 0.23475 0.0
H1584 H 0.41386 0.96776 0.27573 0.0
H1585 H 0.34983 0.96355 0.31006 0.0
H1586 H 0.44598 0.02708 0.26237 0.0
H1587 H 0.42841 0.01674 0.23143 0.0
H1588 H 0.43992 0.999 0.24707 0.0
H1589 H 0.37084 0.0259 0.30781 0.0
H1590 H 0.34403 0.99684 0.31127 0.0
H1591 H 0.35204 0.01213 0.27846 0.0
C1592 C 0.33613 0.40059 0.25899 0.0
C1593 C 0.32588 0.39621 0.23257 0.0
C1594 C 0.34203 0.38436 0.27112 0.0
C1595 C 0.33771 0.36351 0.25628 0.0
C1596 C 0.3241 0.3573 0.23162 0.0
C1597 C 0.31827 0.37378 0.22001 0.0
C1598 C 0.35583 0.39122 0.29801 0.0
C1599 C 0.31841 0.33485 0.21565 0.0
C1600 C 0.39255 0.35669 0.26169 0.0
C1601 C 0.38597 0.33944 0.28268 0.0
C1602 C 0.37622 0.36318 0.25141 0.0
C1603 C 0.3527 0.35243 0.26261 0.0
C1604 C 0.34518 0.33353 0.28199 0.0
C1605 C 0.36191 0.32715 0.29172 0.0
C1606 C 0.3849 0.38311 0.23019 0.0
C1607 C 0.32015 0.32128 0.29407 0.0
H1608 H 0.34184 0.41776 0.26896 0.0
H1609 H 0.30962 0.37001 0.19994 0.0
H1610 H 0.34959 0.37528 0.31159 0.0
H1611 H 0.37523 0.39833 0.2937 0.0
H1612 H 0.3539 0.40529 0.30924 0.0
H1613 H 0.30297 0.32952 0.20138 0.0
H1614 H 0.33433 0.3383 0.20313 0.0
H1615 H 0.31426 0.31963 0.22975 0.0
H1616 H 0.41102 0.3666 0.25462 0.0
H1617 H 0.35637 0.31331 0.30737 0.0
H1618 H 0.38615 0.39944 0.23977 0.0
H1619 H 0.37199 0.3777 0.21275 0.0
H1620 H 0.40288 0.38794 0.22174 0.0
H1621 H 0.31975 0.33196 0.31191 0.0
H1622 H 0.31487 0.30293 0.30162 0.0
H1623 H 0.30662 0.31995 0.27882 0.0
C1624 C 0.03185 0.39176 0.26348 0.0
C1625 C 0.04674 0.38475 0.27689 0.0
C1626 C 0.01045 0.37482 0.2508 0.0
C1627 C 1.0038 0.35016 0.25126 0.0
C1628 C 0.01925 0.343 0.26366 0.0
C1629 C 0.04049 0.36041 0.27667 0.0
C1630 C 0.99451 0.38334 0.23784 0.0
C1631 C 0.01306 0.317 0.26413 0.0
C1632 C 0.93682 0.31569 0.2432 0.0
C1633 C 0.93507 0.31606 0.21433 0.0
C1634 C 0.95921 0.324 0.25605 0.0
C1635 C 0.9801 0.33235 0.23954 0.0
C1636 C 0.9778 0.32887 0.21064 0.0
C1637 C 0.95532 0.32101 0.19829 0.0
C1638 C 0.96086 0.32683 0.28705 0.0
C1639 C 0.99954 0.33652 0.19244 0.0
H1640 H 0.03634 0.41046 0.26405 0.0
H1641 H 0.05201 0.35495 0.28699 0.0
H1642 H 0.99141 0.37814 0.21572 0.0
H1643 H 0.9767 0.37465 0.24822 0.0
H1644 H 1.00242 0.40317 0.23926 0.0
H1645 H 0.02937 0.31535 0.26721 0.0
H1646 H 1.00056 0.30767 0.2815 0.0
H1647 H 1.004 0.30756 0.24475 0.0
H1648 H 0.92108 0.31088 0.2558 0.0
H1649 H 0.95434 0.32117 0.17595 0.0
H1650 H 0.9676 0.346 0.2924 0.0
H1651 H 0.97372 0.3217 0.29563 0.0
H1652 H 0.94306 0.31575 0.29711 0.0
H1653 H 0.00863 0.35627 0.18913 0.0
H1654 H 0.9944 0.32754 0.17193 0.0
H1655 H 0.01267 0.33236 0.20232 0.0
C1656 C 0.61096 0.94547 0.23116 0.0
C1657 C 0.58599 0.93516 0.23484 0.0
C1658 C 0.62718 0.96536 0.24692 0.0
C1659 C 0.61813 0.97474 0.26707 0.0
C1660 C 0.59321 0.96256 0.27321 0.0
C1661 C 0.57739 0.94306 0.2568 0.0
C1662 C 0.65365 0.97771 0.23998 0.0
C1663 C 0.58292 0.97165 0.29515 0.0
C1664 C 0.65455 0.02629 0.31598 0.0
C1665 C 0.65164 0.04454 0.30369 0.0
C1666 C 0.64526 0.00365 0.30339 0.0
C1667 C 0.63334 0.99949 0.27771 0.0
C1668 C 0.63276 0.01861 0.26383 0.0
C1669 C 0.64163 0.04079 0.27712 0.0
C1670 C 0.64639 0.98374 0.31874 0.0
C1671 C 0.62075 0.01507 0.23598 0.0
H1672 H 0.61779 0.93895 0.2148 0.0
H1673 H 0.5582 0.93534 0.25991 0.0
H1674 H 0.65817 0.99323 0.22622 0.0
H1675 H 0.66491 0.98475 0.25882 0.0
H1676 H 0.6584 0.96537 0.22911 0.0
H1677 H 0.56405 0.9581 0.30042 0.0
H1678 H 0.59397 0.97653 0.31423 0.0
H1679 H 0.58315 0.98811 0.28758 0.0
H1680 H 0.66298 0.02922 0.3361 0.0
H1681 H 0.63905 0.05454 0.26736 0.0
H1682 H 0.64913 0.97182 0.3044 0.0
H1683 H 0.62905 0.97254 0.32961 0.0
H1684 H 0.66103 0.99102 0.3344 0.0
H1685 H 0.62664 0.0055 0.22164 0.0
H1686 H 0.62478 0.03243 0.22638 0.0
H1687 H 0.60094 0.00385 0.23843 0.0
C1688 C 0.62052 0.69058 0.23625 0.0
C1689 C 0.62058 0.69265 0.26512 0.0
C1690 C 0.63601 0.68413 0.22315 0.0
C1691 C 0.65213 0.68022 0.23933 0.0
C1692 C 0.65531 0.6867 0.26755 0.0
C1693 C 0.63924 0.69252 0.28028 0.0
C1694 C 0.63267 0.67821 0.19273 0.0
C1695 C 0.67333 0.68412 0.28515 0.0
C1696 C 0.64958 0.62143 0.22329 0.0
C1697 C 0.67029 0.62874 0.20731 0.0
C1698 C 0.64394 0.63816 0.23419 0.0
C1699 C 0.65958 0.66303 0.22929 0.0
C1700 C 0.68113 0.67072 0.21421 0.0
C1701 C 0.68609 0.65338 0.203 0.0
C1702 C 0.62063 0.62901 0.25006 0.0
C1703 C 0.69854 0.69702 0.20897 0.0
H1704 H 0.60697 0.69184 0.22414 0.0
H1705 H 0.63991 0.69447 0.30255 0.0
H1706 H 0.65031 0.68474 0.18245 0.0
H1707 H 0.62212 0.65836 0.19008 0.0
H1708 H 0.62288 0.6862 0.18225 0.0
H1709 H 0.67787 0.6953 0.30415 0.0
H1710 H 0.66556 0.66502 0.29146 0.0
H1711 H 0.69011 0.68933 0.27342 0.0
H1712 H 0.63702 0.6024 0.22616 0.0
H1713 H 0.70212 0.65909 0.1906 0.0
H1714 H 0.60894 0.63487 0.23976 0.0
H1715 H 0.62439 0.63661 0.27126 0.0
H1716 H 0.61045 0.60906 0.25171 0.0
H1717 H 0.69305 0.70269 0.18996 0.0
H1718 H 0.71711 0.7003 0.20572 0.0
H1719 H 0.69876 0.7085 0.22628 0.0
C1720 C 0.93021 0.5854 0.23083 0.0
C1721 C 0.9278 0.59242 0.25755 0.0
C1722 C 0.95217 0.59782 0.21674 0.0
C1723 C 0.97215 0.617 0.23018 0.0
C1724 C 0.96876 0.62632 0.25518 0.0
C1725 C 0.94634 0.61419 0.26828 0.0
C1726 C 0.95478 0.58846 0.1891 0.0
C1727 C 0.98953 0.6469 0.27011 0.0
C1728 C 0.02816 0.61209 0.22229 0.0
C1729 C 0.04252 0.63151 0.20485 0.0
C1730 C 0.00573 0.60794 0.23146 0.0
C1731 C 0.99677 0.62289 0.22198 0.0
C1732 C 0.01106 0.64262 0.20458 0.0
C1733 C 0.03396 0.64698 0.19667 0.0
C1734 C 0.99135 0.58707 0.25081 0.0
C1735 C 1.00185 0.65845 0.19315 0.0
H1736 H 0.9159 0.5689 0.22199 0.0
H1737 H 0.94417 0.62038 0.28835 0.0
H1738 H 0.96697 0.60351 0.17538 0.0
H1739 H 0.96275 0.57672 0.19213 0.0
H1740 H 0.93708 0.57771 0.17869 0.0
H1741 H 0.9832 0.65488 0.28614 0.0
H1742 H 1.00046 0.64011 0.28041 0.0
H1743 H 1.00145 0.66123 0.25551 0.0
H1744 H 0.03399 0.59953 0.22827 0.0
H1745 H 0.04495 0.66236 0.18366 0.0
H1746 H 0.97524 0.57291 0.23994 0.0
H1747 H 0.98499 0.59306 0.26885 0.0
H1748 H 1.00198 0.57889 0.25853 0.0
H1749 H 0.98999 0.64924 0.17521 0.0
H1750 H 0.01681 0.67606 0.18599 0.0
H1751 H 0.99101 0.66173 0.20857 0.0
C1752 C 0.6546 0.95572 0.78499 0.0
C1753 C 0.63305 0.93988 0.77138 0.0
C1754 C 0.67096 0.97782 0.77297 0.0
C1755 C 0.66541 0.98378 0.74694 0.0
C1756 C 0.6466 0.96566 0.73091 0.0
C1757 C 0.63041 0.94377 0.74345 0.0
C1758 C 0.6917 0.99616 0.79005 0.0
C1759 C 0.64101 0.97087 0.70232 0.0
C1760 C 0.66128 0.04015 0.7413 0.0
C1761 C 0.67959 0.05393 0.72234 0.0
C1762 C 0.65779 0.01812 0.75096 0.0
C1763 C 0.67273 0.00925 0.74109 0.0
C1764 C 0.69242 0.02378 0.72368 0.0
C1765 C 0.69571 0.04606 0.7146 0.0
C1766 C 0.63683 0.00356 0.77019 0.0
C1767 C 0.70909 0.01534 0.71302 0.0
H1768 H 0.65716 0.95225 0.80629 0.0
H1769 H 0.61408 0.93131 0.73254 0.0
H1770 H 0.70722 0.00819 0.7768 0.0
H1771 H 0.68589 0.00746 0.80141 0.0
H1772 H 0.69759 0.98731 0.80545 0.0
H1773 H 0.62961 0.95401 0.69058 0.0
H1774 H 0.63112 0.98095 0.70399 0.0
H1775 H 0.65782 0.98214 0.69057 0.0
H1776 H 0.64843 0.04563 0.74728 0.0
H1777 H 0.71034 0.05679 0.70053 0.0
H1778 H 0.64292 0.99776 0.7886 0.0
H1779 H 0.62302 0.98714 0.75943 0.0
H1780 H 0.62811 0.01385 0.77741 0.0
H1781 H 0.71022 1.00238 0.72725 0.0
H1782 H 0.72749 0.03083 0.70967 0.0
H1783 H 0.70229 0.00628 0.6928 0.0
C1784 C 0.65709 0.59892 0.7798 0.0
C1785 C 0.66382 0.60422 0.80769 0.0
C1786 C 0.64595 0.6098 0.76574 0.0
C1787 C 0.64059 0.62577 0.78011 0.0
C1788 C 0.64901 0.63279 0.80743 0.0
C1789 C 0.66098 0.62229 0.82071 0.0
C1790 C 0.63805 0.60253 0.73618 0.0
C1791 C 0.64351 0.64966 0.82352 0.0
C1792 C 0.61539 0.65651 0.73555 0.0
C1793 C 0.5907 0.63928 0.73557 0.0
C1794 C 0.63192 0.65304 0.75101 0.0
C1795 C 0.62347 0.63225 0.76759 0.0
C1796 C 0.59844 0.61585 0.76957 0.0
C1797 C 0.58241 0.61933 0.7532 0.0
C1798 C 0.65849 0.67076 0.74805 0.0
C1799 C 0.58866 0.59378 0.78772 0.0
H1800 H 0.65883 0.58497 0.76925 0.0
H1801 H 0.66688 0.62732 0.84186 0.0
H1802 H 0.61828 0.59022 0.73553 0.0
H1803 H 0.64217 0.61852 0.72345 0.0
H1804 H 0.6469 0.59314 0.72669 0.0
H1805 H 0.65512 0.65695 0.84212 0.0
H1806 H 0.64579 0.6649 0.81052 0.0
H1807 H 0.62444 0.63972 0.83037 0.0
H1808 H 0.62198 0.6724 0.72272 0.0
H1809 H 0.56353 0.60573 0.75336 0.0
H1810 H 0.66687 0.66258 0.73518 0.0
H1811 H 0.66761 0.67507 0.76844 0.0
H1812 H 0.66187 0.68777 0.73807 0.0
H1813 H 0.59325 0.58067 0.7786 0.0
H1814 H 0.56878 0.58478 0.78999 0.0
H1815 H 0.59696 0.59862 0.80856 0.0
C1816 C 0.03894 0.6346 0.77812 0.0
C1817 C 0.04426 0.64648 0.80369 0.0
C1818 C 0.01738 0.62811 0.76439 0.0
C1819 C 1.0004 0.63323 0.77673 0.0
C1820 C 0.00604 0.64629 0.8018 0.0
C1821 C 0.028 0.65285 0.81499 0.0
C1822 C 0.01219 0.6144 0.73746 0.0
C1823 C 0.9884 0.6521 0.81552 0.0
C1824 C 0.95143 0.62044 0.72533 0.0
C1825 C 0.93645 0.59559 0.7294 0.0
C1826 C 0.97129 0.63394 0.74261 0.0
C1827 C 0.97596 0.62229 0.76455 0.0
C1828 C 0.95917 0.59803 0.77086 0.0
C1829 C 0.93971 0.5849 0.75307 0.0
C1830 C 0.98858 0.6599 0.73554 0.0
C1831 C 0.96323 0.58508 0.79449 0.0
H1832 H 0.05106 0.62916 0.76938 0.0
H1833 H 0.03212 0.6624 0.8345 0.0
H1834 H 0.99743 0.5956 0.74054 0.0
H1835 H 0.00616 0.62269 0.72154 0.0
H1836 H 0.02817 0.61389 0.72943 0.0
H1837 H 0.99732 0.66662 0.83117 0.0
H1838 H 0.97929 0.65764 0.8001 0.0
H1839 H 0.97429 0.63577 0.82608 0.0
H1840 H 0.94857 0.62906 0.70763 0.0
H1841 H 0.92833 0.56575 0.75654 0.0
H1842 H 1.00409 0.66104 0.72403 0.0
H1843 H 0.99572 0.67101 0.75448 0.0
H1844 H 0.97994 0.66767 0.72238 0.0
H1845 H 0.97754 0.58092 0.78874 0.0
H1846 H 0.94667 0.5679 0.79961 0.0
H1847 H 0.96935 0.59657 0.81324 0.0
C1848 C 0.46521 0.0465 0.78544 0.0
C1849 C 0.45377 0.05974 0.79181 0.0
C1850 C 0.45267 0.02399 0.77251 0.0
C1851 C 0.42795 0.01425 0.76635 0.0
C1852 C 0.4162 0.02735 0.77294 0.0
C1853 C 0.42931 0.05003 0.78543 0.0
C1854 C 0.46585 0.01061 0.76557 0.0
C1855 C 0.3898 0.0174 0.76676 0.0
C1856 C 0.40024 0.96682 0.71046 0.0
C1857 C 0.38916 0.94566 0.72609 0.0
C1858 C 0.41311 0.9893 0.72333 0.0
C1859 C 0.41447 0.99053 0.75252 0.0
C1860 C 0.40313 0.96914 0.7684 0.0
C1861 C 0.39079 0.94682 0.75491 0.0
C1862 C 0.4256 0.01167 0.70571 0.0
C1863 C 0.40408 0.96985 0.79957 0.0
H1864 H 0.48395 0.05355 0.79093 0.0
H1865 H 0.42041 0.06025 0.79005 0.0
H1866 H 0.45852 0.99394 0.7781 0.0
H1867 H 0.46313 0.00514 0.74351 0.0
H1868 H 0.4855 0.02159 0.7696 0.0
H1869 H 0.38318 0.02952 0.77402 0.0
H1870 H 0.38661 0.01463 0.74419 0.0
H1871 H 0.37898 0.99959 0.7768 0.0
H1872 H 0.3993 0.96568 0.68809 0.0
H1873 H 0.38229 0.93029 0.76679 0.0
H1874 H 0.44523 0.02128 0.71 0.0
H1875 H 0.41888 0.02415 0.71094 0.0
H1876 H 0.42279 0.00753 0.68327 0.0
H1877 H 0.42305 0.97831 0.80666 0.0
H1878 H 0.3938 0.95162 0.80885 0.0
H1879 H 0.39665 0.98107 0.80749 0.0
C1880 C 0.36011 0.40686 0.76945 0.0
C1881 C 0.37996 0.42674 0.78149 0.0
C1882 C 0.36328 0.39105 0.7522 0.0
C1883 C 0.3868 0.39504 0.74753 0.0
C1884 C 0.40683 0.41485 0.76021 0.0
C1885 C 0.40316 0.43062 0.77683 0.0
C1886 C 0.34161 0.37047 0.73848 0.0
C1887 C 0.43218 0.41949 0.75608 0.0
C1888 C 0.40037 0.34738 0.72139 0.0
C1889 C 0.40896 0.35601 0.69472 0.0
C1890 C 0.39169 0.35907 0.7385 0.0
C1891 C 0.39092 0.37939 0.72837 0.0
C1892 C 0.39719 0.38663 0.70063 0.0
C1893 C 0.40642 0.3751 0.68428 0.0
C1894 C 0.38527 0.3509 0.76807 0.0
C1895 C 0.39609 0.40789 0.68883 0.0
H1896 H 0.34217 0.40398 0.77315 0.0
H1897 H 0.41842 0.44585 0.78653 0.0
H1898 H 0.34318 0.37281 0.71572 0.0
H1899 H 0.34083 0.35316 0.74317 0.0
H1900 H 0.32447 0.36928 0.74518 0.0
H1901 H 0.44554 0.43478 0.7688 0.0
H1902 H 0.43316 0.40318 0.76148 0.0
H1903 H 0.43734 0.42357 0.73404 0.0
H1904 H 0.40153 0.33224 0.72948 0.0
H1905 H 0.41316 0.3823 0.66393 0.0
H1906 H 0.36812 0.34999 0.774 0.0
H1907 H 0.39952 0.36418 0.78194 0.0
H1908 H 0.3836 0.333 0.77164 0.0
H1909 H 0.379 0.40717 0.6947 0.0
H1910 H 0.39761 0.40864 0.66595 0.0
H1911 H 0.41111 0.42481 0.69737 0.0
C1912 C 0.03646 0.37346 0.71195 0.0
C1913 C 0.05723 0.39382 0.722 0.0
C1914 C 0.01464 0.36366 0.72644 0.0
C1915 C 0.01397 0.37365 0.75224 0.0
C1916 C 0.03556 0.39161 0.76441 0.0
C1917 C 0.05683 0.40185 0.74895 0.0
C1918 C 0.99197 0.34459 0.71261 0.0
C1919 C 0.03578 0.40189 0.79257 0.0
C1920 C 0.96163 0.38247 0.77061 0.0
C1921 C 0.94848 0.3635 0.7891 0.0
C1922 C 0.98222 0.38508 0.75746 0.0
C1923 C 0.99066 0.36902 0.76389 0.0
C1924 C 0.97763 0.34981 0.78243 0.0
C1925 C 0.95643 0.34699 0.79439 0.0
C1926 C 0.99533 0.40552 0.73721 0.0
C1927 C 0.98657 0.33288 0.79055 0.0
H1928 H 0.03669 0.36617 0.69183 0.0
H1929 H 0.0725 0.41742 0.75738 0.0
H1930 H 0.9798 0.33086 0.72763 0.0
H1931 H 0.98214 0.3532 0.70371 0.0
H1932 H 0.99598 0.33544 0.69564 0.0
H1933 H 0.05422 0.41158 0.80148 0.0
H1934 H 0.02909 0.41481 0.79081 0.0
H1935 H 0.02378 0.38747 0.80708 0.0
H1936 H 0.95629 0.39579 0.76676 0.0
H1937 H 0.94626 0.33194 0.80814 0.0
H1938 H 0.99908 0.3988 0.71777 0.0
H1939 H 0.01288 0.41913 0.74609 0.0
H1940 H 0.98489 0.41459 0.7321 0.0
H1941 H 0.99191 0.32639 0.7721 0.0
H1942 H 0.97283 0.31707 0.80226 0.0
H1943 H 1.00282 0.34267 0.80371 0.0
C1944 C 0.5747 0.18368 0.2112 0.0
C1945 C 0.55706 0.18741 0.22356 0.0
C1946 C 0.58955 0.17825 0.22729 0.0
C1947 C 0.58614 0.17594 0.25625 0.0
C1948 C 0.56984 0.18181 0.26897 0.0
C1949 C 0.55564 0.18778 0.25241 0.0
C1950 C 0.6072 0.17275 0.21301 0.0
C1951 C 0.56541 0.17922 0.29974 0.0
C1952 C 0.59247 0.12575 0.28874 0.0
C1953 C 0.61401 0.13851 0.30352 0.0
C1954 C 0.58319 0.13783 0.27352 0.0
C1955 C 0.59616 0.16331 0.27241 0.0
C1956 C 0.61816 0.17633 0.28689 0.0
C1957 C 0.62661 0.16375 0.30277 0.0
C1958 C 0.55937 0.12331 0.25882 0.0
C1959 C 0.63279 0.20345 0.28546 0.0
H1960 H 0.5759 0.18358 0.18885 0.0
H1961 H 0.54193 0.19057 0.26201 0.0
H1962 H 0.62422 0.18005 0.22493 0.0
H1963 H 0.59936 0.15295 0.21154 0.0
H1964 H 0.61139 0.18027 0.19176 0.0
H1965 H 0.55508 0.18793 0.3068 0.0
H1966 H 0.55498 0.15981 0.30506 0.0
H1967 H 0.58262 0.18713 0.31131 0.0
H1968 H 0.58255 0.10624 0.28953 0.0
H1969 H 0.64324 0.17368 0.31422 0.0
H1970 H 0.56174 0.12717 0.23639 0.0
H1971 H 0.54629 0.12856 0.26644 0.0
H1972 H 0.55154 0.10361 0.26183 0.0
H1973 H 0.63646 0.20935 0.26359 0.0
H1974 H 0.65022 0.21075 0.29659 0.0
H1975 H 0.62246 0.21142 0.29456 0.0
C1976 C 0.47191 0.58518 0.28676 0.0
C1977 C 0.48111 0.60969 0.29227 0.0
C1978 C 0.44974 0.57163 0.27337 0.0
C1979 C 0.43676 0.58304 0.26479 0.0
C1980 C 0.44609 0.60787 0.27004 0.0
C1981 C 0.46809 0.62087 0.28405 0.0
C1982 C 0.44016 0.54508 0.26853 0.0
C1983 C 0.43299 0.6207 0.26059 0.0
C1984 C 0.39108 0.54915 0.20865 0.0
C1985 C 0.36984 0.5366 0.22405 0.0
C1986 C 0.41287 0.56531 0.22145 0.0
C1987 C 0.41338 0.5688 0.25037 0.0
C1988 C 0.39176 0.55711 0.2658 0.0
C1989 C 0.37016 0.54125 0.25238 0.0
C1990 C 0.4355 0.57764 0.20424 0.0
C1991 C 0.39168 0.56014 0.29674 0.0
H1992 H 0.4819 0.57648 0.29332 0.0
H1993 H 0.47532 0.6399 0.28812 0.0
H1994 H 0.42205 0.53444 0.27797 0.0
H1995 H 0.43813 0.54117 0.24605 0.0
H1996 H 0.45213 0.53884 0.27729 0.0
H1997 H 0.44288 0.64015 0.26595 0.0
H1998 H 0.43039 0.61888 0.23786 0.0
H1999 H 0.41486 0.61232 0.27012 0.0
H2000 H 0.39083 0.54573 0.18667 0.0
H2001 H 0.35379 0.5315 0.26439 0.0
H2002 H 0.44708 0.56975 0.20892 0.0
H2003 H 0.44597 0.59711 0.20931 0.0
H2004 H 0.43153 0.5756 0.18174 0.0
H2005 H 0.40174 0.55223 0.30672 0.0
H2006 H 0.37315 0.55126 0.30537 0.0
H2007 H 0.40094 0.57951 0.30232 0.0
C2008 C 0.83667 0.44467 0.29021 0.0
C2009 C 0.82846 0.45807 0.2756 0.0
C2010 C 0.84261 0.42914 0.27639 0.0
C2011 C 0.8406 0.4273 0.24727 0.0
C2012 C 0.83088 0.43961 0.23262 0.0
C2013 C 0.82468 0.45471 0.24705 0.0
C2014 C 0.85253 0.41598 0.29279 0.0
C2015 C 0.82881 0.43836 0.20151 0.0
C2016 C 0.88559 0.4155 0.20987 0.0
C2017 C 0.87115 0.3915 0.20166 0.0
C2018 C 0.87577 0.42736 0.22464 0.0
C2019 C 0.85107 0.41468 0.23189 0.0
C2020 C 0.83651 0.39028 0.22413 0.0
C2021 C 0.84668 0.37903 0.20872 0.0
C2022 C 0.89178 0.45356 0.23218 0.0
C2023 C 0.8103 0.37605 0.23222 0.0
H2024 H 0.83945 0.44714 0.31235 0.0
H2025 H 0.81845 0.46513 0.23567 0.0
H2026 H 0.84462 0.39709 0.28559 0.0
H2027 H 0.8723 0.42489 0.28976 0.0
H2028 H 0.84896 0.41594 0.31526 0.0
H2029 H 0.8188 0.44712 0.19353 0.0
H2030 H 0.84711 0.44751 0.1923 0.0
H2031 H 0.8196 0.41939 0.19437 0.0
H2032 H 0.90448 0.42517 0.20422 0.0
H2033 H 0.83557 0.36038 0.20256 0.0
H2034 H 0.8925 0.45574 0.25494 0.0
H2035 H 0.88424 0.46445 0.22357 0.0
H2036 H 0.91046 0.46093 0.22436 0.0
H2037 H 0.80853 0.37646 0.25499 0.0
H2038 H 0.80169 0.35698 0.22537 0.0
H2039 H 0.80029 0.38434 0.22306 0.0
C2040 C 0.36456 0.81995 0.26127 0.0
C2041 C 0.37565 0.83813 0.28115 0.0
C2042 C 0.37834 0.81403 0.24385 0.0
C2043 C 0.40376 0.82755 0.24553 0.0
C2044 C 0.41496 0.8456 0.26608 0.0
C2045 C 0.40069 0.85031 0.28405 0.0
C2046 C 0.3656 0.79396 0.22311 0.0
C2047 C 0.44204 0.8609 0.2681 0.0
C2048 C 0.44986 0.81429 0.21449 0.0
C2049 C 0.4575 0.82991 0.19173 0.0
C2050 C 0.4304 0.8112 0.23073 0.0
C2051 C 0.41899 0.82467 0.22451 0.0
C2052 C 0.42501 0.83846 0.19997 0.0
C2053 C 0.44377 0.84032 0.18342 0.0
C2054 C 0.42329 0.795 0.2557 0.0
C2055 C 0.41335 0.85321 0.19261 0.0
H2056 H 0.34514 0.81048 0.2592 0.0
H2057 H 0.40919 0.86452 0.29933 0.0
H2058 H 0.36385 0.80158 0.20325 0.0
H2059 H 0.37573 0.78438 0.21919 0.0
H2060 H 0.34717 0.78071 0.23023 0.0
H2061 H 0.44782 0.87425 0.28518 0.0
H2062 H 0.45016 0.84936 0.27147 0.0
H2063 H 0.44938 0.87074 0.2484 0.0
H2064 H 0.45988 0.8055 0.22055 0.0
H2065 H 0.4489 0.85161 0.1652 0.0
H2066 H 0.4034 0.7846 0.25786 0.0
H2067 H 0.43071 0.80609 0.27461 0.0
H2068 H 0.43025 0.78224 0.25448 0.0
H2069 H 0.39348 0.84173 0.19249 0.0
H2070 H 0.41923 0.86199 0.17209 0.0
H2071 H 0.41806 0.86743 0.20844 0.0
C2072 C 0.59175 0.50553 0.22626 0.0
C2073 C 0.60115 0.50104 0.20233 0.0
C2074 C 0.5765 0.48674 0.24377 0.0
C2075 C 0.57024 0.46285 0.23689 0.0
C2076 C 0.58053 0.45829 0.21342 0.0
C2077 C 0.59608 0.47756 0.19643 0.0
C2078 C 0.5661 0.49236 0.26885 0.0
C2079 C 0.57403 0.43299 0.20537 0.0
C2080 C 0.5374 0.41749 0.29361 0.0
C2081 C 0.51349 0.41068 0.28736 0.0
C2082 C 0.55626 0.43363 0.27653 0.0
C2083 C 0.55084 0.44274 0.25261 0.0
C2084 C 0.5266 0.43464 0.24534 0.0
C2085 C 0.50821 0.41883 0.26295 0.0
C2086 C 0.58193 0.44208 0.28498 0.0
C2087 C 0.52009 0.44373 0.2198 0.0
H2088 H 0.59597 0.52375 0.23109 0.0
H2089 H 0.60339 0.47409 0.17791 0.0
H2090 H 0.54655 0.48529 0.2657 0.0
H2091 H 0.56814 0.48343 0.28745 0.0
H2092 H 0.57482 0.51201 0.27292 0.0
H2093 H 0.58588 0.43277 0.18876 0.0
H2094 H 0.5752 0.42304 0.2235 0.0
H2095 H 0.55514 0.42317 0.19791 0.0
H2096 H 0.54146 0.41115 0.31251 0.0
H2097 H 0.48967 0.41325 0.25787 0.0
H2098 H 0.59043 0.461 0.29228 0.0
H2099 H 0.59259 0.44173 0.26711 0.0
H2100 H 0.58303 0.43091 0.30184 0.0
H2101 H 0.5256 0.46299 0.22257 0.0
H2102 H 0.50045 0.43356 0.21544 0.0
H2103 H 0.52982 0.44243 0.20152 0.0
C2104 C 0.15633 0.60137 0.21296 0.0
C2105 C 0.15583 0.62162 0.22312 0.0
C2106 C 0.15245 0.58245 0.23056 0.0
C2107 C 0.14809 0.58395 0.25894 0.0
C2108 C 0.15031 0.60548 0.26979 0.0
C2109 C 0.15425 0.62417 0.2517 0.0
C2110 C 0.15056 0.55991 0.21823 0.0
C2111 C 0.14609 0.60787 0.30002 0.0
C2112 C 0.10134 0.52523 0.29083 0.0
C2113 C 0.11562 0.51834 0.3058 0.0
C2114 C 0.11178 0.54679 0.27592 0.0
C2115 C 0.13714 0.56179 0.27595 0.0
C2116 C 0.15168 0.55517 0.29138 0.0
C2117 C 0.14072 0.53348 0.30621 0.0
C2118 C 0.09563 0.5533 0.25977 0.0
C2119 C 0.17875 0.57073 0.29177 0.0
H2120 H 0.15808 0.59952 0.19096 0.0
H2121 H 0.1542 0.63992 0.2598 0.0
H2122 H 0.15971 0.55282 0.23151 0.0
H2123 H 0.1313 0.5458 0.2168 0.0
H2124 H 0.15846 0.56312 0.19717 0.0
H2125 H 0.15283 0.62693 0.306 0.0
H2126 H 0.12648 0.59747 0.30434 0.0
H2127 H 0.15495 0.6004 0.3132 0.0
H2128 H 0.08194 0.51371 0.29061 0.0
H2129 H 0.15186 0.5282 0.31772 0.0
H2130 H 0.09989 0.55433 0.23741 0.0
H2131 H 0.09883 0.57128 0.26623 0.0
H2132 H 0.07623 0.54 0.26264 0.0
H2133 H 0.18599 0.57161 0.27072 0.0
H2134 H 0.18735 0.56377 0.30617 0.0
H2135 H 0.18401 0.58941 0.29789 0.0
C2136 C 0.47302 0.86814 0.7741 0.0
C2137 C 0.48794 0.8585 0.76888 0.0
C2138 C 0.45095 0.85919 0.76038 0.0
C2139 C 0.44335 0.83951 0.74191 0.0
C2140 C 0.45774 0.82867 0.73811 0.0
C2141 C 0.48027 0.83876 0.75115 0.0
C2142 C 0.43649 0.87173 0.76443 0.0
C2143 C 0.44982 0.80706 0.71957 0.0
C2144 C 0.37836 0.81599 0.72238 0.0
C2145 C 0.38113 0.82893 0.69803 0.0
C2146 C 0.39842 0.81711 0.73556 0.0
C2147 C 0.42169 0.83228 0.72462 0.0
C2148 C 0.42428 0.84372 0.69884 0.0
C2149 C 0.40386 0.84147 0.68557 0.0
C2150 C 0.39487 0.8036 0.76225 0.0
C2151 C 0.44878 0.8605 0.68669 0.0
H2152 H 0.47925 0.88354 0.78778 0.0
H2153 H 0.49196 0.83134 0.74738 0.0
H2154 H 0.43468 0.87916 0.74444 0.0
H2155 H 0.41808 0.85873 0.77166 0.0
H2156 H 0.44493 0.88669 0.77964 0.0
H2157 H 0.46001 0.79758 0.72392 0.0
H2158 H 0.4303 0.79416 0.72207 0.0
H2159 H 0.45296 0.81293 0.69769 0.0
H2160 H 0.36073 0.80601 0.73187 0.0
H2161 H 0.40615 0.85153 0.66677 0.0
H2162 H 0.39927 0.81614 0.77993 0.0
H2163 H 0.40705 0.79596 0.76329 0.0
H2164 H 0.37597 0.7888 0.76464 0.0
H2165 H 0.45834 0.87669 0.70003 0.0
H2166 H 0.44757 0.86647 0.6655 0.0
H2167 H 0.45988 0.85168 0.68594 0.0
C2168 C 0.52591 0.40758 0.72799 0.0
C2169 C 0.53009 0.3986 0.70347 0.0
C2170 C 0.54484 0.42212 0.74578 0.0
C2171 C 0.56857 0.42788 0.73883 0.0
C2172 C 0.57276 0.41769 0.71499 0.0
C2173 C 0.55337 0.40306 0.69752 0.0
C2174 C 0.53956 0.43247 0.77116 0.0
C2175 C 0.59783 0.42336 0.70708 0.0
C2176 C 0.61257 0.48931 0.7664 0.0
C2177 C 0.61932 0.48357 0.79154 0.0
C2178 C 0.59749 0.47127 0.74792 0.0
C2179 C 0.58889 0.44687 0.75485 0.0
C2180 C 0.59708 0.44102 0.77921 0.0
C2181 C 0.61232 0.45952 0.79733 0.0
C2182 C 0.58934 0.47828 0.72199 0.0
C2183 C 0.58839 0.4152 0.78714 0.0
H2184 H 0.50786 0.40381 0.73296 0.0
H2185 H 0.55664 0.396 0.67866 0.0
H2186 H 0.54789 0.42947 0.7897 0.0
H2187 H 0.54749 0.45221 0.76866 0.0
H2188 H 0.51993 0.42445 0.7749 0.0
H2189 H 0.59759 0.41098 0.69084 0.0
H2190 H 0.60802 0.44205 0.6991 0.0
H2191 H 0.60771 0.42227 0.72534 0.0
H2192 H 0.61833 0.50793 0.76156 0.0
H2193 H 0.61768 0.45501 0.81665 0.0
H2194 H 0.57008 0.47304 0.72401 0.0
H2195 H 0.59096 0.46865 0.70381 0.0
H2196 H 0.5999 0.49795 0.71801 0.0
H2197 H 0.56958 0.40687 0.79472 0.0
H2198 H 0.59964 0.41382 0.80371 0.0
H2199 H 0.58841 0.40462 0.76899 0.0
C2200 C 0.11906 0.51204 0.74151 0.0
C2201 C 0.13138 0.51568 0.7165 0.0
C2202 C 0.12368 0.5314 0.7587 0.0
C2203 C 0.14099 0.55504 0.75059 0.0
C2204 C 0.15493 0.55865 0.72651 0.0
C2205 C 0.14995 0.53883 0.70965 0.0
C2206 C 0.10859 0.52667 0.78441 0.0
C2207 C 0.1738 0.58353 0.71745 0.0
C2208 C 0.11867 0.59622 0.77387 0.0
C2209 C 0.13019 0.60402 0.79945 0.0
C2210 C 0.12393 0.58216 0.75632 0.0
C2211 C 0.14102 0.57558 0.76474 0.0
C2212 C 0.15445 0.58539 0.7893 0.0
C2213 C 0.14888 0.59966 0.80647 0.0
C2214 C 0.10944 0.57242 0.73008 0.0
C2215 C 0.17311 0.57913 0.79866 0.0
H2216 H 0.10508 0.49408 0.74722 0.0
H2217 H 0.15974 0.54166 0.69047 0.0
H2218 H 0.12016 0.53625 0.8024 0.0
H2219 H 0.09593 0.53358 0.78141 0.0
H2220 H 0.09791 0.50718 0.78938 0.0
H2221 H 0.18669 0.58288 0.70261 0.0
H2222 H 0.16488 0.59247 0.70713 0.0
H2223 H 0.18396 0.59479 0.73542 0.0
H2224 H 0.10458 0.6001 0.76816 0.0
H2225 H 0.15794 0.6059 0.8262 0.0
H2226 H 0.0964 0.55294 0.73263 0.0
H2227 H 0.12135 0.57436 0.71247 0.0
H2228 H 0.09923 0.5817 0.7248 0.0
H2229 H 0.16397 0.5611 0.8085 0.0
H2230 H 0.18568 0.59234 0.81399 0.0
H2231 H 0.18364 0.57835 0.78089 0.0
C2232 C 0.5783 0.17351 0.80752 0.0
C2233 C 0.56059 0.17739 0.7955 0.0
C2234 C 0.59245 0.16735 0.79113 0.0
C2235 C 0.58865 0.16506 0.76223 0.0
C2236 C 0.57321 0.17219 0.7498 0.0
C2237 C 0.55951 0.17855 0.76665 0.0
C2238 C 0.60935 0.16064 0.80507 0.0
C2239 C 0.56881 0.17022 0.71901 0.0
C2240 C 0.62533 0.14921 0.71413 0.0
C2241 C 0.61077 0.12407 0.71245 0.0
C2242 C 0.61884 0.16285 0.73099 0.0
C2243 C 0.59698 0.15109 0.74583 0.0
C2244 C 0.58222 0.12571 0.74424 0.0
C2245 C 0.58945 0.11248 0.72775 0.0
C2246 C 0.63531 0.18976 0.73286 0.0
C2247 C 0.55857 0.11253 0.75961 0.0
H2248 H 0.57966 0.17311 0.82982 0.0
H2249 H 0.54628 0.18213 0.75717 0.0
H2250 H 0.60037 0.14076 0.80694 0.0
H2251 H 0.62599 0.16671 0.79274 0.0
H2252 H 0.61437 0.16849 0.82614 0.0
H2253 H 0.55964 0.18018 0.71225 0.0
H2254 H 0.58594 0.17716 0.70745 0.0
H2255 H 0.55723 0.15098 0.71337 0.0
H2256 H 0.64193 0.15826 0.70246 0.0
H2257 H 0.57816 0.09308 0.72644 0.0
H2258 H 0.64019 0.19519 0.75474 0.0
H2259 H 0.62591 0.19919 0.72516 0.0
H2260 H 0.65213 0.196 0.72077 0.0
H2261 H 0.56166 0.11592 0.78212 0.0
H2262 H 0.54921 0.09278 0.75604 0.0
H2263 H 0.54645 0.11933 0.75299 0.0
C2264 C 0.41054 0.55878 0.80413 0.0
C2265 C 0.38582 0.54543 0.79869 0.0
C2266 C 0.4259 0.57778 0.78683 0.0
C2267 C 0.4161 0.58403 0.76417 0.0
C2268 C 0.39086 0.57193 0.76011 0.0
C2269 C 0.376 0.55237 0.77713 0.0
C2270 C 0.45275 0.58984 0.79156 0.0
C2271 C 0.37967 0.57875 0.73692 0.0
C2272 C 0.46298 0.64144 0.72979 0.0
C2273 C 0.47096 0.63213 0.70869 0.0
C2274 C 0.44353 0.62604 0.74668 0.0
C2275 C 0.43259 0.60083 0.74293 0.0
C2276 C 0.43975 0.5915 0.72062 0.0
C2277 C 0.45863 0.60734 0.7035 0.0
C2278 C 0.4357 0.63669 0.76949 0.0
C2279 C 0.42894 0.56472 0.71622 0.0
H2280 H 0.41812 0.55328 0.82072 0.0
H2281 H 0.35679 0.54212 0.77316 0.0
H2282 H 0.46132 0.58585 0.77395 0.0
H2283 H 0.46073 0.60965 0.79259 0.0
H2284 H 0.45733 0.58367 0.8109 0.0
H2285 H 0.36 0.57109 0.73996 0.0
H2286 H 0.38831 0.59862 0.73515 0.0
H2287 H 0.38248 0.57186 0.71706 0.0
H2288 H 0.47246 0.66067 0.73367 0.0
H2289 H 0.46495 0.60008 0.68741 0.0
H2290 H 0.44286 0.6346 0.78953 0.0
H2291 H 0.41577 0.62714 0.77112 0.0
H2292 H 0.44241 0.65617 0.76614 0.0
H2293 H 0.4335 0.55681 0.73401 0.0
H2294 H 0.43561 0.56048 0.69703 0.0
H2295 H 0.40904 0.55581 0.7151 0.0
C2296 C 0.88464 0.4639 0.71142 0.0
C2297 C 0.8702 0.46984 0.69531 0.0
C2298 C 0.8745 0.44269 0.7269 0.0
C2299 C 0.84922 0.42719 0.7266 0.0
C2300 C 0.83449 0.43294 0.71022 0.0
C2301 C 0.84522 0.45417 0.6945 0.0
C2302 C 0.8909 0.437 0.74379 0.0
C2303 C 0.80747 0.41699 0.70979 0.0
C2304 C 0.83488 0.36599 0.75165 0.0
C2305 C 0.83402 0.36901 0.78025 0.0
C2306 C 0.83738 0.38397 0.73326 0.0
C2307 C 0.83868 0.40517 0.74383 0.0
C2308 C 0.83466 0.40685 0.77228 0.0
C2309 C 0.83245 0.38873 0.79024 0.0
C2310 C 0.84147 0.38142 0.70303 0.0
C2311 C 0.83531 0.42894 0.78425 0.0
H2312 H 0.90397 0.47584 0.71189 0.0
H2313 H 0.834 0.45872 0.68206 0.0
H2314 H 0.88647 0.43629 0.76605 0.0
H2315 H 0.8882 0.41907 0.73794 0.0
H2316 H 0.91023 0.45057 0.74097 0.0
H2317 H 0.79872 0.42331 0.69476 0.0
H2318 H 0.80253 0.39823 0.70452 0.0
H2319 H 0.8001 0.41659 0.73065 0.0
H2320 H 0.83565 0.35058 0.74368 0.0
H2321 H 0.83122 0.3909 0.81229 0.0
H2322 H 0.86102 0.39226 0.69849 0.0
H2323 H 0.83209 0.38828 0.68978 0.0
H2324 H 0.83524 0.36241 0.69733 0.0
H2325 H 0.85431 0.44362 0.78599 0.0
H2326 H 0.82708 0.42543 0.80514 0.0
H2327 H 0.82579 0.43537 0.77061 0.0
C2328 C 0.52181 0.14974 0.05899 0.0
C2329 C 0.52832 0.16699 0.0799 0.0
C2330 C 0.52626 0.15644 0.03121 0.0
C2331 C 0.5375 0.18114 0.02407 0.0
C2332 C 0.54629 0.1988 0.04527 0.0
C2333 C 0.54154 0.19149 0.07313 0.0
C2334 C 0.51683 0.13688 0.00946 0.0
C2335 C 0.55899 0.22529 0.03862 0.0
C2336 C 0.54635 0.18593 0.94671 0.0
C2337 C 0.52378 0.18219 0.9383 0.0
C2338 C 0.55265 0.18867 0.97489 0.0
C2339 C 0.5359 0.18747 0.99484 0.0
C2340 C 0.51446 0.18672 0.98599 0.0
C2341 C 0.50867 0.18408 0.95783 0.0
C2342 C 0.57609 0.19035 0.98338 0.0
C2343 C 0.4962 0.18581 0.00641 0.0
H2344 H 0.51196 0.13077 0.06428 0.0
H2345 H 0.54667 0.20487 0.08933 0.0
H2346 H 0.50154 0.1366 0.99834 0.0
H2347 H 0.53101 0.14044 0.99403 0.0
H2348 H 0.51049 0.11876 0.01849 0.0
H2349 H 0.57066 0.23621 0.05601 0.0
H2350 H 0.57012 0.22934 0.01969 0.0
H2351 H 0.54541 0.23091 0.03492 0.0
H2352 H 0.55825 0.18474 0.93167 0.0
H2353 H 0.49142 0.1817 0.95133 0.0
H2354 H 0.57284 0.17213 0.98871 0.0
H2355 H 0.58377 0.20198 0.00187 0.0
H2356 H 0.5895 0.19754 0.96637 0.0
H2357 H 0.48716 0.16798 0.01674 0.0
H2358 H 0.4822 0.18856 0.99627 0.0
H2359 H 0.50514 0.19972 0.02265 0.0
C2360 C 0.37345 0.50385 0.06603 0.0
C2361 C 0.35959 0.50875 0.08444 0.0
C2362 C 0.37394 0.50874 0.03781 0.0
C2363 C 0.35998 0.5186 0.02762 0.0
C2364 C 0.34802 0.526 0.04656 0.0
C2365 C 0.34793 0.52093 0.07495 0.0
C2366 C 0.3873 0.50083 0.01861 0.0
C2367 C 0.33353 0.53721 0.03669 0.0
C2368 C 0.36811 0.52753 0.94997 0.0
C2369 C 0.35061 0.50462 0.94075 0.0
C2370 C 0.37005 0.53355 0.97826 0.0
C2371 C 0.35421 0.51619 0.9975 0.0
C2372 C 0.33507 0.49402 0.98772 0.0
C2373 C 0.33355 0.48855 0.95953 0.0
C2374 C 0.39027 0.55764 0.98767 0.0
C2375 C 0.31752 0.475 0.0073 0.0
H2376 H 0.38267 0.49462 0.07349 0.0
H2377 H 0.33716 0.52469 0.08919 0.0
H2378 H 0.37414 0.48467 0.0069 0.0
H2379 H 0.39804 0.51515 0.00342 0.0
H2380 H 0.39956 0.49626 0.02998 0.0
H2381 H 0.33098 0.54761 0.05343 0.0
H2382 H 0.34233 0.54928 0.01881 0.0
H2383 H 0.3155 0.52281 0.0299 0.0
H2384 H 0.38129 0.5401 0.9355 0.0
H2385 H 0.31972 0.47098 0.9524 0.0
H2386 H 0.40573 0.55563 0.9944 0.0
H2387 H 0.38467 0.56461 0.00548 0.0
H2388 H 0.39651 0.57108 0.97071 0.0
H2389 H 0.32698 0.46749 0.01938 0.0
H2390 H 0.3022 0.45996 0.99624 0.0
H2391 H 0.31024 0.48293 0.02216 0.0
C2392 C 0.87002 0.35325 0.04139 0.0
C2393 C 0.85649 0.35069 0.06511 0.0
C2394 C 0.8615 0.35432 0.01516 0.0
C2395 C 0.83865 0.35259 0.01248 0.0
C2396 C 0.82566 0.35183 0.03653 0.0
C2397 C 0.83479 0.35091 0.06273 0.0
C2398 C 0.87635 0.35563 0.99024 0.0
C2399 C 0.80149 0.35042 0.03473 0.0
C2400 C 0.83375 0.36385 0.93746 0.0
C2401 C 0.82655 0.34079 0.92716 0.0
C2402 C 0.8344 0.36781 0.96612 0.0
C2403 C 0.8277 0.34824 0.98442 0.0
C2404 C 0.81657 0.32451 0.97373 0.0
C2405 C 0.81636 0.32109 0.94513 0.0
C2406 C 0.84542 0.39327 0.97668 0.0
C2407 C 0.80834 0.30299 0.99244 0.0
H2408 H 0.88704 0.35356 0.04326 0.0
H2409 H 0.82433 0.34902 0.08112 0.0
H2410 H 0.86683 0.33859 0.97832 0.0
H2411 H 0.87885 0.37048 0.97639 0.0
H2412 H 0.8944 0.35858 0.99605 0.0
H2413 H 0.79788 0.35806 0.05354 0.0
H2414 H 0.80024 0.36003 0.01631 0.0
H2415 H 0.78718 0.33127 0.0331 0.0
H2416 H 0.84158 0.37913 0.92353 0.0
H2417 H 0.81053 0.30322 0.93705 0.0
H2418 H 0.86489 0.40045 0.98064 0.0
H2419 H 0.83693 0.39396 0.99639 0.0
H2420 H 0.84361 0.40516 0.96133 0.0
H2421 H 0.82428 0.30215 0.99994 0.0
H2422 H 0.79623 0.28587 0.98151 0.0
H2423 H 0.79877 0.30454 0.01072 0.0
C2424 C 0.52733 0.87191 0.03805 0.0
C2425 C 0.50965 0.86959 0.0568 0.0
C2426 C 0.52309 0.86984 0.00955 0.0
C2427 C 0.50058 0.8656 0.9993 0.0
C2428 C 0.48207 0.86179 0.01818 0.0
C2429 C 0.4868 0.86374 0.04685 0.0
C2430 C 0.54331 0.87366 0.99037 0.0
C2431 C 0.45783 0.85712 0.00817 0.0
C2432 C 0.51291 0.89567 0.92986 0.0
C2433 C 0.50929 0.87678 0.91232 0.0
C2434 C 0.50718 0.89166 0.95801 0.0
C2435 C 0.49814 0.86823 0.969 0.0
C2436 C 0.49207 0.84867 0.95076 0.0
C2437 C 0.49773 0.85319 0.92247 0.0
C2438 C 0.51354 0.91304 0.97645 0.0
C2439 C 0.48211 0.82338 0.9615 0.0
H2440 H 0.54491 0.87605 0.04568 0.0
H2441 H 0.47307 0.86193 0.0613 0.0
H2442 H 0.53689 0.8588 0.9751 0.0
H2443 H 0.54964 0.89068 0.97872 0.0
H2444 H 0.5589 0.8747 0.00167 0.0
H2445 H 0.44403 0.84944 0.02474 0.0
H2446 H 0.45932 0.87433 0.0013 0.0
H2447 H 0.45161 0.84467 0.99024 0.0
H2448 H 0.52194 0.91393 0.92196 0.0
H2449 H 0.49518 0.83861 0.90892 0.0
H2450 H 0.5304 0.91787 0.98783 0.0
H2451 H 0.49919 0.90865 0.99194 0.0
H2452 H 0.51637 0.92901 0.96443 0.0
H2453 H 0.49704 0.82133 0.97011 0.0
H2454 H 0.47328 0.80982 0.94482 0.0
H2455 H 0.46893 0.81956 0.97833 0.0
C2456 C 0.63535 0.48781 0.06218 0.0
C2457 C 0.64414 0.51272 0.06194 0.0
C2458 C 0.63365 0.4753 0.03749 0.0
C2459 C 0.64122 0.48815 0.01222 0.0
C2460 C 0.64911 0.5131 0.01192 0.0
C2461 C 0.65031 0.52493 0.03663 0.0
C2462 C 0.62458 0.44862 0.0388 0.0
C2463 C 0.65671 0.52762 0.98551 0.0
C2464 C 0.67109 0.47792 0.95141 0.0
C2465 C 0.65495 0.47548 0.93036 0.0
C2466 C 0.66546 0.47869 0.97927 0.0
C2467 C 0.64308 0.47673 0.98616 0.0
C2468 C 0.62523 0.47 0.96544 0.0
C2469 C 0.63134 0.46931 0.93767 0.0
C2470 C 0.68482 0.48515 1.00075 0.0
C2471 C 0.60067 0.46639 0.97213 0.0
H2472 H 0.63037 0.47819 0.08165 0.0
H2473 H 0.65661 0.54408 0.03608 0.0
H2474 H 0.61507 0.43935 0.01953 0.0
H2475 H 0.64008 0.44564 0.04161 0.0
H2476 H 0.61221 0.44024 0.05658 0.0
H2477 H 0.66454 0.54723 0.9893 0.0
H2478 H 0.6702 0.52485 0.97422 0.0
H2479 H 0.64078 0.52158 0.97196 0.0
H2480 H 0.68911 0.48178 0.9461 0.0
H2481 H 0.61833 0.46638 0.92164 0.0
H2482 H 0.67714 0.47452 0.01985 0.0
H2483 H 0.69285 0.50449 0.0062 0.0
H2484 H 0.69942 0.48205 0.99314 0.0
H2485 H 0.59404 0.4568 0.99209 0.0
H2486 H 0.5874 0.4561 0.95564 0.0
H2487 H 0.60182 0.48419 0.97414 0.0
C2488 C 0.17179 0.6388 0.94071 0.0
C2489 C 0.17061 0.65954 0.93437 0.0
C2490 C 0.17641 0.63458 0.96799 0.0
C2491 C 0.17925 0.65119 0.98903 0.0
C2492 C 0.18241 0.67394 0.98153 0.0
C2493 C 0.17817 0.67787 0.95419 0.0
C2494 C 0.17531 0.61112 0.97482 0.0
C2495 C 0.18659 0.69276 0.00298 0.0
C2496 C 0.13796 0.62944 0.0503 0.0
C2497 C 0.1542 0.63795 0.07243 0.0
C2498 C 0.14591 0.63174 0.02306 0.0
C2499 C 0.17091 0.64252 0.01765 0.0
C2500 C 0.18724 0.64866 0.04009 0.0
C2501 C 0.17868 0.64647 0.06741 0.0
C2502 C 0.12752 0.62459 1.0001 0.0
C2503 C 0.21385 0.65885 0.03554 0.0
H2504 H 0.16689 0.62489 0.92522 0.0
H2505 H 0.17834 0.69442 0.94905 0.0
H2506 H 0.18682 0.61315 0.99293 0.0
H2507 H 0.1565 0.59737 0.97992 0.0
H2508 H 0.18111 0.60439 0.95692 0.0
H2509 H 0.1912 0.71032 0.9935 0.0
H2510 H 0.17005 0.68655 0.01558 0.0
H2511 H 0.20138 0.69554 0.01709 0.0
H2512 H 0.11888 0.62207 0.05418 0.0
H2513 H 0.19128 0.65266 0.08454 0.0
H2514 H 0.12863 0.61158 0.98596 0.0
H2515 H 0.13117 0.64067 0.98779 0.0
H2516 H 0.10878 0.61622 0.00802 0.0
H2517 H 0.21796 0.65506 0.01448 0.0
H2518 H 0.22116 0.65131 0.05093 0.0
H2519 H 0.22332 0.67863 0.03874 0.0
C2520 C 0.87273 0.50147 0.43284 0.0
C2521 C 0.85276 0.49286 0.41525 0.0
C2522 C 0.86993 0.49758 0.46133 0.0
C2523 C 0.84646 0.48475 0.47263 0.0
C2524 C 0.8263 0.47361 0.45463 0.0
C2525 C 0.82968 0.47788 0.42594 0.0
C2526 C 0.89205 0.50957 0.47949 0.0
C2527 C 0.80107 0.459 0.46575 0.0
C2528 C 0.8508 0.48154 0.55057 0.0
C2529 C 0.85216 0.50331 0.5582 0.0
C2530 C 0.84633 0.47359 0.52289 0.0
C2531 C 0.84344 0.48792 0.50261 0.0
C2532 C 0.84248 0.50862 0.5109 0.0
C2533 C 0.84677 0.51597 0.53853 0.0
C2534 C 0.84658 0.45093 0.51513 0.0
C2535 C 0.83928 0.52445 0.49018 0.0
H2536 H 0.89066 0.51267 0.42446 0.0
H2537 H 0.81422 0.47106 0.41231 0.0
H2538 H 0.89242 0.52489 0.49067 0.0
H2539 H 0.89166 0.49678 0.49517 0.0
H2540 H 0.90897 0.51655 0.4674 0.0
H2541 H 0.78866 0.44628 0.44993 0.0
H2542 H 0.80066 0.4487 0.48436 0.0
H2543 H 0.79429 0.47125 0.47175 0.0
H2544 H 0.85465 0.47149 0.56576 0.0
H2545 H 0.84721 0.53251 0.54443 0.0
H2546 H 0.86495 0.45563 0.50838 0.0
H2547 H 0.834 0.44142 0.49782 0.0
H2548 H 0.84166 0.43849 0.53301 0.0
H2549 H 0.85548 0.5335 0.47682 0.0
H2550 H 0.83663 0.53852 0.5003 0.0
H2551 H 0.82359 0.51349 0.47663 0.0
C2552 C 0.31442 0.81686 0.43654 0.0
C2553 C 0.33602 0.82883 0.42174 0.0
C2554 C 0.31449 0.81407 0.46526 0.0
C2555 C 0.33677 0.82417 0.47946 0.0
C2556 C 0.35846 0.83352 0.46413 0.0
C2557 C 0.3578 0.83556 0.43526 0.0
C2558 C 0.29088 0.8033 0.48062 0.0
C2559 C 0.38261 0.84448 0.47832 0.0
C2560 C 0.3385 0.85891 0.5435 0.0
C2561 C 0.33825 0.84411 0.56495 0.0
C2562 C 0.3384 0.85265 0.5158 0.0
C2563 C 0.33761 0.83074 0.50913 0.0
C2564 C 0.33709 0.81548 0.53062 0.0
C2565 C 0.33762 0.82246 0.55837 0.0
C2566 C 0.33915 0.86965 0.49365 0.0
C2567 C 0.33593 0.79188 0.52428 0.0
H2568 H 0.29755 0.81156 0.426 0.0
H2569 H 0.37455 0.84497 0.42383 0.0
H2570 H 0.29097 0.79271 0.49869 0.0
H2571 H 0.28804 0.818 0.48838 0.0
H2572 H 0.27548 0.7915 0.46701 0.0
H2573 H 0.39686 0.84581 0.46413 0.0
H2574 H 0.38775 0.8629 0.48543 0.0
H2575 H 0.38191 0.83386 0.49672 0.0
H2576 H 0.33916 0.87575 0.54831 0.0
H2577 H 0.33748 0.81096 0.57487 0.0
H2578 H 0.32257 0.86063 0.48089 0.0
H2579 H 0.35471 0.87472 0.47971 0.0
H2580 H 0.34066 0.8864 0.50237 0.0
H2581 H 0.32003 0.78054 0.51115 0.0
H2582 H 0.33484 0.7817 0.5433 0.0
H2583 H 0.35211 0.79516 0.51243 0.0
C2584 C 0.52541 0.37643 0.43115 0.0
C2585 C 0.50078 0.36889 0.42951 0.0
C2586 C 0.53642 0.37798 0.45694 0.0
C2587 C 0.52235 0.37162 0.48139 0.0
C2588 C 0.49783 0.36537 0.47977 0.0
C2589 C 0.48749 0.36419 0.45399 0.0
C2590 C 0.56275 0.38542 0.4577 0.0
C2591 C 0.48202 0.35875 0.50518 0.0
C2592 C 0.52499 0.33935 0.54421 0.0
C2593 C 0.52743 0.35591 0.56468 0.0
C2594 C 0.52709 0.34549 0.51615 0.0
C2595 C 0.53168 0.36874 0.50852 0.0
C2596 C 0.53831 0.38664 0.52918 0.0
C2597 C 0.53608 0.38 0.5572 0.0
C2598 C 0.52067 0.32599 0.49487 0.0
C2599 C 0.54448 0.41195 0.52193 0.0
H2600 H 0.53586 0.3803 0.41232 0.0
H2601 H 0.46857 0.35889 0.45303 0.0
H2602 H 0.5714 0.39482 0.47725 0.0
H2603 H 0.56461 0.36915 0.45607 0.0
H2604 H 0.57258 0.39737 0.44004 0.0
H2605 H 0.46341 0.35465 0.50029 0.0
H2606 H 0.48099 0.34273 0.51529 0.0
H2607 H 0.48981 0.37374 0.52032 0.0
H2608 H 0.51884 0.32082 0.54996 0.0
H2609 H 0.53842 0.39307 0.57291 0.0
H2610 H 0.53276 0.33309 0.47673 0.0
H2611 H 0.50196 0.31936 0.48758 0.0
H2612 H 0.52176 0.31049 0.50348 0.0
H2613 H 0.55432 0.41767 0.50201 0.0
H2614 H 0.55557 0.42487 0.53835 0.0
H2615 H 0.52762 0.41271 0.5198 0.0
C2616 C 0.14586 0.50664 0.4424 0.0
C2617 C 0.12922 0.482 0.43946 0.0
C2618 C 0.15479 0.5167 0.46867 0.0
C2619 C 0.14695 0.50168 0.49232 0.0
C2620 C 0.12941 0.47703 0.48942 0.0
C2621 C 0.12083 0.46758 0.46314 0.0
C2622 C 0.1732 0.5431 0.47086 0.0
C2623 C 0.12023 0.46027 0.51402 0.0
C2624 C 0.18031 0.50436 0.55674 0.0
C2625 C 0.16565 0.50667 0.57656 0.0
C2626 C 0.1768 0.50636 0.5285 0.0
C2627 C 0.15802 0.51049 0.52004 0.0
C2628 C 0.14582 0.51659 0.54008 0.0
C2629 C 0.14984 0.51466 0.56828 0.0
C2630 C 0.19076 0.50043 0.50789 0.0
C2631 C 0.12616 0.52182 0.53196 0.0
H2632 H 0.15232 0.51794 0.42419 0.0
H2633 H 0.10771 0.4486 0.46117 0.0
H2634 H 0.17046 0.55116 0.48983 0.0
H2635 H 0.19146 0.54526 0.47196 0.0
H2636 H 0.17257 0.55328 0.45261 0.0
H2637 H 0.10595 0.4418 0.50828 0.0
H2638 H 0.13528 0.45906 0.52374 0.0
H2639 H 0.1128 0.46735 0.5298 0.0
H2640 H 0.19282 0.49854 0.56316 0.0
H2641 H 0.13856 0.51666 0.58353 0.0
H2642 H 0.19558 0.51227 0.48952 0.0
H2643 H 0.17939 0.48155 0.50078 0.0
H2644 H 0.2075 0.50229 0.51707 0.0
H2645 H 0.13057 0.53205 0.51231 0.0
H2646 H 0.12306 0.53215 0.54831 0.0
H2647 H 0.10913 0.50456 0.52887 0.0
C2648 C 0.67822 0.17955 0.45818 0.0
C2649 C 0.66052 0.16837 0.43775 0.0
C2650 C 0.67189 0.17709 0.48617 0.0
C2651 C 0.64732 0.1632 0.49364 0.0
C2652 C 0.62942 0.15624 0.47297 0.0
C2653 C 0.63625 0.15896 0.44502 0.0
C2654 C 0.69164 0.18594 0.50756 0.0
C2655 C 0.60303 0.14287 0.48017 0.0
C2656 C 0.64104 0.11763 0.54687 0.0
C2657 C 0.641 0.12893 0.57161 0.0
C2658 C 0.64128 0.12785 0.52131 0.0
C2659 C 0.64136 0.15001 0.52037 0.0
C2660 C 0.63913 0.16045 0.54523 0.0
C2661 C 0.63909 0.1498 0.57071 0.0
C2662 C 0.64308 0.11562 0.49539 0.0
C2663 C 0.63819 0.18349 0.54528 0.0
H2664 H 0.69707 0.18778 0.45258 0.0
H2665 H 0.62241 0.15107 0.42927 0.0
H2666 H 0.68733 0.19394 0.52543 0.0
H2667 H 0.6933 0.17051 0.51526 0.0
H2668 H 0.70932 0.19958 0.49893 0.0
H2669 H 0.59218 0.14537 0.46396 0.0
H2670 H 0.59673 0.12333 0.48166 0.0
H2671 H 0.59972 0.14894 0.50035 0.0
H2672 H 0.64191 0.10117 0.54746 0.0
H2673 H 0.63879 0.15848 0.58982 0.0
H2674 H 0.66027 0.12751 0.48459 0.0
H2675 H 0.62817 0.11207 0.48105 0.0
H2676 H 0.64229 0.09823 0.49982 0.0
H2677 H 0.65663 0.19894 0.54832 0.0
H2678 H 0.62692 0.18365 0.56264 0.0
H2679 H 0.63095 0.18618 0.52561 0.0
C2680 C 0.53169 0.65013 0.54652 0.0
C2681 C 0.51851 0.65446 0.56662 0.0
C2682 C 0.52746 0.65093 0.5183 0.0
C2683 C 0.50956 0.65628 0.50962 0.0
C2684 C 0.49532 0.65958 0.52972 0.0
C2685 C 0.49996 0.65861 0.5581 0.0
C2686 C 0.54306 0.64713 0.49777 0.0
C2687 C 0.47591 0.66508 0.52132 0.0
C2688 C 0.52902 0.68721 0.44074 0.0
C2689 C 0.51782 0.66771 0.42244 0.0
C2690 C 0.52433 0.68423 0.46915 0.0
C2691 C 0.5082 0.66105 0.47966 0.0
C2692 C 0.495 0.64178 0.46096 0.0
C2693 C 0.49995 0.64535 0.43242 0.0
C2694 C 0.53867 0.7054 0.48812 0.0
C2695 C 0.47736 0.61689 0.47124 0.0
H2696 H 0.54577 0.64644 0.5528 0.0
H2697 H 0.48956 0.66176 0.5735 0.0
H2698 H 0.53168 0.63314 0.48247 0.0
H2699 H 0.55442 0.66407 0.48627 0.0
H2700 H 0.55508 0.64156 0.50789 0.0
H2701 H 0.46354 0.66251 0.53871 0.0
H2702 H 0.48434 0.68406 0.51437 0.0
H2703 H 0.46526 0.65352 0.50376 0.0
H2704 H 0.54259 0.70464 0.43299 0.0
H2705 H 0.49122 0.63023 0.41831 0.0
H2706 H 0.5529 0.70319 0.49851 0.0
H2707 H 0.52698 0.70629 0.50442 0.0
H2708 H 0.54746 0.72275 0.47672 0.0
H2709 H 0.48739 0.60801 0.4787 0.0
H2710 H 0.46486 0.60555 0.45463 0.0
H2711 H 0.4667 0.61774 0.48882 0.0
loop_
_geom_bond_atom_site_label_1
_geom_bond_atom_site_label_2
_geom_bond_distance
_geom_bond_site_symmetry_2
_ccdc_geom_bond_type
C0 C1 1.351 . S
C0 N3 1.368 . S
C0 H5 0.931 . S
C1 C0 1.351 . S
C1 N2 1.373 . S
C1 H29 0.930 . S
N2 C1 1.373 . S
N2 C4 1.340 . S
N3 C0 1.368 . S
N3 C4 1.321 . S
N3 Co6 2.135 . S
C4 N2 1.340 . S
C4 N3 1.321 . S
C4 H28 0.930 . S
H5 C0 0.931 . S
Co6 N3 2.135 . S
Co6 N9 2.121 . S
Co6 O14 2.055 . S
Co6 O17 2.039 . S
Co6 N20 2.140 . S
C7 O8 1.227 . S
C7 O17 1.265 . S
O8 C7 1.227 . S
N9 Co6 2.121 . S
N9 C11 1.375 . S
N9 C12 1.313 . S
C10 C11 1.338 . S
C10 N13 1.377 . S
C10 H30 0.930 . S
C11 N9 1.375 . S
C11 C10 1.338 . S
C11 H15 0.931 . S
C12 N9 1.313 . S
C12 N13 1.344 . S
C12 H16 0.930 . S
N13 C10 1.377 . S
N13 C12 1.344 . S
O14 Co6 2.055 . S
O14 C18 1.253 . S
H15 C11 0.931 . S
H16 C12 0.930 . S
O17 Co6 2.039 . S
O17 C7 1.265 . S
C18 O14 1.253 . S
C18 O19 1.227 . S
O19 C18 1.227 . S
N20 Co6 2.140 . S
N20 C23 1.346 . S
N20 C24 1.345 . S
C21 C22 1.387 . S
C21 C25 1.391 . S
C22 C21 1.387 . S
C22 C23 1.369 . S
C22 H31 0.929 . S
C23 N20 1.346 . S
C23 C22 1.369 . S
C23 H26 0.928 . S
C24 N20 1.345 . S
C24 C25 1.371 . S
C24 H27 0.931 . S
C25 C21 1.391 . S
C25 C24 1.371 . S
C25 H32 0.930 . S
H26 C23 0.928 . S
H27 C24 0.931 . S
H28 C4 0.930 . S
H29 C1 0.930 . S
H30 C10 0.930 . S
H31 C22 0.929 . S
H32 C25 0.930 . S
C33 C34 1.351 . S
C33 N36 1.368 . S
C33 H38 0.931 . S
C34 C33 1.351 . S
C34 N35 1.373 . S
C34 H62 0.930 . S
N35 C34 1.373 . S
N35 C37 1.340 . S
N36 C33 1.368 . S
N36 C37 1.321 . S
N36 Co39 2.135 . S
C37 N35 1.340 . S
C37 N36 1.321 . S
C37 H61 0.930 . S
H38 C33 0.931 . S
Co39 N36 2.135 . S
Co39 N42 2.121 . S
Co39 O47 2.055 . S
Co39 O50 2.039 . S
Co39 N53 2.140 . S
C40 O41 1.227 . S
C40 O50 1.265 . S
O41 C40 1.227 . S
N42 Co39 2.121 . S
N42 C44 1.375 . S
N42 C45 1.313 . S
C43 C44 1.338 . S
C43 N46 1.377 . S
C43 H63 0.930 . S
C44 N42 1.375 . S
C44 C43 1.338 . S
C44 H48 0.931 . S
C45 N42 1.313 . S
C45 N46 1.344 . S
C45 H49 0.930 . S
N46 C43 1.377 . S
N46 C45 1.344 . S
O47 Co39 2.055 . S
O47 C51 1.253 . S
H48 C44 0.931 . S
H49 C45 0.930 . S
O50 Co39 2.039 . S
O50 C40 1.265 . S
C51 O47 1.253 . S
C51 O52 1.227 . S
O52 C51 1.227 . S
N53 Co39 2.140 . S
N53 C56 1.346 . S
N53 C57 1.345 . S
C54 C55 1.387 . S
C54 C58 1.391 . S
C55 C54 1.387 . S
C55 C56 1.369 . S
C55 H64 0.929 . S
C56 N53 1.346 . S
C56 C55 1.369 . S
C56 H59 0.928 . S
C57 N53 1.345 . S
C57 C58 1.371 . S
C57 H60 0.931 . S
C58 C54 1.391 . S
C58 C57 1.371 . S
C58 H65 0.930 . S
H59 C56 0.928 . S
H60 C57 0.931 . S
H61 C37 0.930 . S
H62 C34 0.930 . S
H63 C43 0.930 . S
H64 C55 0.929 . S
H65 C58 0.930 . S
C66 C67 1.351 . S
C66 N69 1.368 . S
C66 H71 0.931 . S
C67 C66 1.351 . S
C67 N68 1.373 . S
C67 H95 0.930 . S
N68 C67 1.373 . S
N68 C70 1.340 . S
N69 C66 1.368 . S
N69 C70 1.321 . S
N69 Co72 2.135 . S
C70 N68 1.340 . S
C70 N69 1.321 . S
C70 H94 0.930 . S
H71 C66 0.931 . S
Co72 N69 2.135 . S
Co72 N75 2.121 . S
Co72 O80 2.055 . S
Co72 O83 2.039 . S
Co72 N86 2.140 . S
C73 O74 1.227 . S
C73 O83 1.265 . S
O74 C73 1.227 . S
N75 Co72 2.121 . S
N75 C77 1.375 . S
N75 C78 1.313 . S
C76 C77 1.338 . S
C76 N79 1.377 . S
C76 H96 0.930 . S
C77 N75 1.375 . S
C77 C76 1.338 . S
C77 H81 0.931 . S
C78 N75 1.313 . S
C78 N79 1.344 . S
C78 H82 0.930 . S
N79 C76 1.377 . S
N79 C78 1.344 . S
O80 Co72 2.055 . S
O80 C84 1.253 . S
H81 C77 0.931 . S
H82 C78 0.930 . S
O83 Co72 2.039 . S
O83 C73 1.265 . S
C84 O80 1.253 . S
C84 O85 1.227 . S
O85 C84 1.227 . S
N86 Co72 2.140 . S
N86 C89 1.346 . S
N86 C90 1.345 . S
C87 C88 1.387 . S
C87 C91 1.391 . S
C88 C87 1.387 . S
C88 C89 1.369 . S
C88 H97 0.929 . S
C89 N86 1.346 . S
C89 C88 1.369 . S
C89 H92 0.928 . S
C90 N86 1.345 . S
C90 C91 1.371 . S
C90 H93 0.931 . S
C91 C87 1.391 . S
C91 C90 1.371 . S
C91 H98 0.930 . S
H92 C89 0.928 . S
H93 C90 0.931 . S
H94 C70 0.930 . S
H95 C67 0.930 . S
H96 C76 0.930 . S
H97 C88 0.929 . S
H98 C91 0.930 . S
C99 C100 1.351 . S
C99 N102 1.368 . S
C99 H104 0.931 . S
C100 C99 1.351 . S
C100 N101 1.373 . S
C100 H128 0.930 . S
N101 C100 1.373 . S
N101 C103 1.340 . S
N102 C99 1.368 . S
N102 C103 1.321 . S
N102 Co105 2.135 . S
C103 N101 1.340 . S
C103 N102 1.321 . S
C103 H127 0.930 . S
H104 C99 0.931 . S
Co105 N102 2.135 . S
Co105 N108 2.121 . S
Co105 O113 2.055 . S
Co105 O116 2.039 . S
Co105 N119 2.140 . S
C106 O107 1.227 . S
C106 O116 1.265 . S
O107 C106 1.227 . S
N108 Co105 2.121 . S
N108 C110 1.375 . S
N108 C111 1.313 . S
C109 C110 1.338 . S
C109 N112 1.377 . S
C109 H129 0.930 . S
C110 N108 1.375 . S
C110 C109 1.338 . S
C110 H114 0.931 . S
C111 N108 1.313 . S
C111 N112 1.344 . S
C111 H115 0.930 . S
N112 C109 1.377 . S
N112 C111 1.344 . S
O113 Co105 2.055 . S
O113 C117 1.253 . S
H114 C110 0.931 . S
H115 C111 0.930 . S
O116 Co105 2.039 . S
O116 C106 1.265 . S
C117 O113 1.253 . S
C117 O118 1.227 . S
O118 C117 1.227 . S
N119 Co105 2.140 . S
N119 C122 1.346 . S
N119 C123 1.345 . S
C120 C121 1.387 . S
C120 C124 1.391 . S
C121 C120 1.387 . S
C121 C122 1.369 . S
C121 H130 0.929 . S
C122 N119 1.346 . S
C122 C121 1.369 . S
C122 H125 0.928 . S
C123 N119 1.345 . S
C123 C124 1.371 . S
C123 H126 0.931 . S
C124 C120 1.391 . S
C124 C123 1.371 . S
C124 H131 0.930 . S
H125 C122 0.928 . S
H126 C123 0.931 . S
H127 C103 0.930 . S
H128 C100 0.930 . S
H129 C109 0.930 . S
H130 C121 0.929 . S
H131 C124 0.930 . S
C132 C133 1.351 . S
C132 N135 1.368 . S
C132 H137 0.931 . S
C133 C132 1.351 . S
C133 N134 1.373 . S
C133 H161 0.930 . S
N134 C133 1.373 . S
N134 C136 1.340 . S
N135 C132 1.368 . S
N135 C136 1.321 . S
N135 Co138 2.135 . S
C136 N134 1.340 . S
C136 N135 1.321 . S
C136 H160 0.930 . S
H137 C132 0.931 . S
Co138 N135 2.135 . S
Co138 N141 2.121 . S
Co138 O146 2.055 . S
Co138 O149 2.039 . S
Co138 N152 2.140 . S
C139 O140 1.227 . S
C139 O149 1.265 . S
O140 C139 1.227 . S
N141 Co138 2.121 . S
N141 C143 1.375 . S
N141 C144 1.313 . S
C142 C143 1.338 . S
C142 N145 1.377 . S
C142 H162 0.930 . S
C143 N141 1.375 . S
C143 C142 1.338 . S
C143 H147 0.931 . S
C144 N141 1.313 . S
C144 N145 1.344 . S
C144 H148 0.930 . S
N145 C142 1.377 . S
N145 C144 1.344 . S
O146 Co138 2.055 . S
O146 C150 1.253 . S
H147 C143 0.931 . S
H148 C144 0.930 . S
O149 Co138 2.039 . S
O149 C139 1.265 . S
C150 O146 1.253 . S
C150 O151 1.227 . S
O151 C150 1.227 . S
N152 Co138 2.140 . S
N152 C155 1.346 . S
N152 C156 1.345 . S
C153 C154 1.387 . S
C153 C157 1.391 . S
C154 C153 1.387 . S
C154 C155 1.369 . S
C154 H163 0.929 . S
C155 N152 1.346 . S
C155 C154 1.369 . S
C155 H158 0.928 . S
C156 N152 1.345 . S
C156 C157 1.371 . S
C156 H159 0.931 . S
C157 C153 1.391 . S
C157 C156 1.371 . S
C157 H164 0.930 . S
H158 C155 0.928 . S
H159 C156 0.931 . S
H160 C136 0.930 . S
H161 C133 0.930 . S
H162 C142 0.930 . S
H163 C154 0.929 . S
H164 C157 0.930 . S
C165 C166 1.351 . S
C165 N168 1.368 . S
C165 H170 0.931 . S
C166 C165 1.351 . S
C166 N167 1.373 . S
C166 H194 0.930 . S
N167 C166 1.373 . S
N167 C169 1.340 . S
N168 C165 1.368 . S
N168 C169 1.321 . S
N168 Co171 2.135 . S
C169 N167 1.340 . S
C169 N168 1.321 . S
C169 H193 0.930 . S
H170 C165 0.931 . S
Co171 N168 2.135 . S
Co171 N174 2.121 . S
Co171 O179 2.055 . S
Co171 O182 2.039 . S
Co171 N185 2.140 . S
C172 O173 1.227 . S
C172 O182 1.265 . S
O173 C172 1.227 . S
N174 Co171 2.121 . S
N174 C176 1.375 . S
N174 C177 1.313 . S
C175 C176 1.338 . S
C175 N178 1.377 . S
C175 H195 0.930 . S
C176 N174 1.375 . S
C176 C175 1.338 . S
C176 H180 0.931 . S
C177 N174 1.313 . S
C177 N178 1.344 . S
C177 H181 0.930 . S
N178 C175 1.377 . S
N178 C177 1.344 . S
O179 Co171 2.055 . S
O179 C183 1.253 . S
H180 C176 0.931 . S
H181 C177 0.930 . S
O182 Co171 2.039 . S
O182 C172 1.265 . S
C183 O179 1.253 . S
C183 O184 1.227 . S
O184 C183 1.227 . S
N185 Co171 2.140 . S
N185 C188 1.346 . S
N185 C189 1.345 . S
C186 C187 1.387 . S
C186 C190 1.391 . S
C187 C186 1.387 . S
C187 C188 1.369 . S
C187 H196 0.929 . S
C188 N185 1.346 . S
C188 C187 1.369 . S
C188 H191 0.928 . S
C189 N185 1.345 . S
C189 C190 1.371 . S
C189 H192 0.931 . S
C190 C186 1.391 . S
C190 C189 1.371 . S
C190 H197 0.930 . S
H191 C188 0.928 . S
H192 C189 0.931 . S
H193 C169 0.930 . S
H194 C166 0.930 . S
H195 C175 0.930 . S
H196 C187 0.929 . S
H197 C190 0.930 . S
C198 C199 1.351 . S
C198 N201 1.368 . S
C198 H203 0.931 . S
C199 C198 1.351 . S
C199 N200 1.373 . S
C199 H227 0.930 . S
N200 C199 1.373 . S
N200 C202 1.340 . S
N201 C198 1.368 . S
N201 C202 1.321 . S
N201 Co204 2.135 . S
C202 N200 1.340 . S
C202 N201 1.321 . S
C202 H226 0.930 . S
H203 C198 0.931 . S
Co204 N201 2.135 . S
Co204 N207 2.121 . S
Co204 O212 2.055 . S
Co204 O215 2.039 . S
Co204 N218 2.140 . S
C205 O206 1.227 . S
C205 O215 1.265 . S
O206 C205 1.227 . S
N207 Co204 2.121 . S
N207 C209 1.375 . S
N207 C210 1.313 . S
C208 C209 1.338 . S
C208 N211 1.377 . S
C208 H228 0.930 . S
C209 N207 1.375 . S
C209 C208 1.338 . S
C209 H213 0.931 . S
C210 N207 1.313 . S
C210 N211 1.344 . S
C210 H214 0.930 . S
N211 C208 1.377 . S
N211 C210 1.344 . S
O212 Co204 2.055 . S
O212 C216 1.253 . S
H213 C209 0.931 . S
H214 C210 0.930 . S
O215 Co204 2.039 . S
O215 C205 1.265 . S
C216 O212 1.253 . S
C216 O217 1.227 . S
O217 C216 1.227 . S
N218 Co204 2.140 . S
N218 C221 1.346 . S
N218 C222 1.345 . S
C219 C220 1.387 . S
C219 C223 1.391 . S
C220 C219 1.387 . S
C220 C221 1.369 . S
C220 H229 0.929 . S
C221 N218 1.346 . S
C221 C220 1.369 . S
C221 H224 0.928 . S
C222 N218 1.345 . S
C222 C223 1.371 . S
C222 H225 0.931 . S
C223 C219 1.391 . S
C223 C222 1.371 . S
C223 H230 0.930 . S
H224 C221 0.928 . S
H225 C222 0.931 . S
H226 C202 0.930 . S
H227 C199 0.930 . S
H228 C208 0.930 . S
H229 C220 0.929 . S
H230 C223 0.930 . S
C231 C232 1.351 . S
C231 N234 1.368 . S
C231 H236 0.931 . S
C232 C231 1.351 . S
C232 N233 1.373 . S
C232 H260 0.930 . S
N233 C232 1.373 . S
N233 C235 1.340 . S
N234 C231 1.368 . S
N234 C235 1.321 . S
N234 Co237 2.135 . S
C235 N233 1.340 . S
C235 N234 1.321 . S
C235 H259 0.930 . S
H236 C231 0.931 . S
Co237 N234 2.135 . S
Co237 N240 2.121 . S
Co237 O245 2.055 . S
Co237 O248 2.039 . S
Co237 N251 2.140 . S
C238 O239 1.227 . S
C238 O248 1.265 . S
O239 C238 1.227 . S
N240 Co237 2.121 . S
N240 C242 1.375 . S
N240 C243 1.313 . S
C241 C242 1.338 . S
C241 N244 1.377 . S
C241 H261 0.930 . S
C242 N240 1.375 . S
C242 C241 1.338 . S
C242 H246 0.931 . S
C243 N240 1.313 . S
C243 N244 1.344 . S
C243 H247 0.930 . S
N244 C241 1.377 . S
N244 C243 1.344 . S
O245 Co237 2.055 . S
O245 C249 1.253 . S
H246 C242 0.931 . S
H247 C243 0.930 . S
O248 Co237 2.039 . S
O248 C238 1.265 . S
C249 O245 1.253 . S
C249 O250 1.227 . S
O250 C249 1.227 . S
N251 Co237 2.140 . S
N251 C254 1.346 . S
N251 C255 1.345 . S
C252 C253 1.387 . S
C252 C256 1.391 . S
C253 C252 1.387 . S
C253 C254 1.369 . S
C253 H262 0.929 . S
C254 N251 1.346 . S
C254 C253 1.369 . S
C254 H257 0.928 . S
C255 N251 1.345 . S
C255 C256 1.371 . S
C255 H258 0.931 . S
C256 C252 1.391 . S
C256 C255 1.371 . S
C256 H263 0.930 . S
H257 C254 0.928 . S
H258 C255 0.931 . S
H259 C235 0.930 . S
H260 C232 0.930 . S
H261 C241 0.930 . S
H262 C253 0.929 . S
H263 C256 0.930 . S
C264 C265 1.351 . S
C264 N267 1.368 . S
C264 H269 0.931 . S
C265 C264 1.351 . S
C265 N266 1.373 . S
C265 H293 0.930 . S
N266 C265 1.373 . S
N266 C268 1.340 . S
N267 C264 1.368 . S
N267 C268 1.321 . S
N267 Co270 2.135 . S
C268 N266 1.340 . S
C268 N267 1.321 . S
C268 H292 0.930 . S
H269 C264 0.931 . S
Co270 N267 2.135 . S
Co270 N273 2.121 . S
Co270 O278 2.055 . S
Co270 O281 2.039 . S
Co270 N284 2.140 . S
C271 O272 1.227 . S
C271 O281 1.265 . S
O272 C271 1.227 . S
N273 Co270 2.121 . S
N273 C275 1.375 . S
N273 C276 1.313 . S
C274 C275 1.338 . S
C274 N277 1.377 . S
C274 H294 0.930 . S
C275 N273 1.375 . S
C275 C274 1.338 . S
C275 H279 0.931 . S
C276 N273 1.313 . S
C276 N277 1.344 . S
C276 H280 0.930 . S
N277 C274 1.377 . S
N277 C276 1.344 . S
O278 Co270 2.055 . S
O278 C282 1.253 . S
H279 C275 0.931 . S
H280 C276 0.930 . S
O281 Co270 2.039 . S
O281 C271 1.265 . S
C282 O278 1.253 . S
C282 O283 1.227 . S
O283 C282 1.227 . S
N284 Co270 2.140 . S
N284 C287 1.346 . S
N284 C288 1.345 . S
C285 C286 1.387 . S
C285 C289 1.391 . S
C286 C285 1.387 . S
C286 C287 1.369 . S
C286 H295 0.929 . S
C287 N284 1.346 . S
C287 C286 1.369 . S
C287 H290 0.928 . S
C288 N284 1.345 . S
C288 C289 1.371 . S
C288 H291 0.931 . S
C289 C285 1.391 . S
C289 C288 1.371 . S
C289 H296 0.930 . S
H290 C287 0.928 . S
H291 C288 0.931 . S
H292 C268 0.930 . S
H293 C265 0.930 . S
H294 C274 0.930 . S
H295 C286 0.929 . S
H296 C289 0.930 . S
C297 C298 1.351 . S
C297 N300 1.368 . S
C297 H302 0.931 . S
C298 C297 1.351 . S
C298 N299 1.373 . S
C298 H326 0.930 . S
N299 C298 1.373 . S
N299 C301 1.340 . S
N300 C297 1.368 . S
N300 C301 1.321 . S
N300 Co303 2.135 . S
C301 N299 1.340 . S
C301 N300 1.321 . S
C301 H325 0.930 . S
H302 C297 0.931 . S
Co303 N300 2.135 . S
Co303 N306 2.121 . S
Co303 O311 2.055 . S
Co303 O314 2.039 . S
Co303 N317 2.140 . S
C304 O305 1.227 . S
C304 O314 1.265 . S
O305 C304 1.227 . S
N306 Co303 2.121 . S
N306 C308 1.375 . S
N306 C309 1.313 . S
C307 C308 1.338 . S
C307 N310 1.377 . S
C307 H327 0.930 . S
C308 N306 1.375 . S
C308 C307 1.338 . S
C308 H312 0.931 . S
C309 N306 1.313 . S
C309 N310 1.344 . S
C309 H313 0.930 . S
N310 C307 1.377 . S
N310 C309 1.344 . S
O311 Co303 2.055 . S
O311 C315 1.253 . S
H312 C308 0.931 . S
H313 C309 0.930 . S
O314 Co303 2.039 . S
O314 C304 1.265 . S
C315 O311 1.253 . S
C315 O316 1.227 . S
O316 C315 1.227 . S
N317 Co303 2.140 . S
N317 C320 1.346 . S
N317 C321 1.345 . S
C318 C319 1.387 . S
C318 C322 1.391 . S
C319 C318 1.387 . S
C319 C320 1.369 . S
C319 H328 0.929 . S
C320 N317 1.346 . S
C320 C319 1.369 . S
C320 H323 0.928 . S
C321 N317 1.345 . S
C321 C322 1.371 . S
C321 H324 0.931 . S
C322 C318 1.391 . S
C322 C321 1.371 . S
C322 H329 0.930 . S
H323 C320 0.928 . S
H324 C321 0.931 . S
H325 C301 0.930 . S
H326 C298 0.930 . S
H327 C307 0.930 . S
H328 C319 0.929 . S
H329 C322 0.930 . S
C330 C331 1.351 . S
C330 N333 1.368 . S
C330 H335 0.931 . S
C331 C330 1.351 . S
C331 N332 1.373 . S
C331 H359 0.930 . S
N332 C331 1.373 . S
N332 C334 1.340 . S
N333 C330 1.368 . S
N333 C334 1.321 . S
N333 Co336 2.135 . S
C334 N332 1.340 . S
C334 N333 1.321 . S
C334 H358 0.930 . S
H335 C330 0.931 . S
Co336 N333 2.135 . S
Co336 N339 2.121 . S
Co336 O344 2.055 . S
Co336 O347 2.039 . S
Co336 N350 2.140 . S
C337 O338 1.227 . S
C337 O347 1.265 . S
O338 C337 1.227 . S
N339 Co336 2.121 . S
N339 C341 1.375 . S
N339 C342 1.313 . S
C340 C341 1.338 . S
C340 N343 1.377 . S
C340 H360 0.930 . S
C341 N339 1.375 . S
C341 C340 1.338 . S
C341 H345 0.931 . S
C342 N339 1.313 . S
C342 N343 1.344 . S
C342 H346 0.930 . S
N343 C340 1.377 . S
N343 C342 1.344 . S
O344 Co336 2.055 . S
O344 C348 1.253 . S
H345 C341 0.931 . S
H346 C342 0.930 . S
O347 Co336 2.039 . S
O347 C337 1.265 . S
C348 O344 1.253 . S
C348 O349 1.227 . S
O349 C348 1.227 . S
N350 Co336 2.140 . S
N350 C353 1.346 . S
N350 C354 1.345 . S
C351 C352 1.387 . S
C351 C355 1.391 . S
C352 C351 1.387 . S
C352 C353 1.369 . S
C352 H361 0.929 . S
C353 N350 1.346 . S
C353 C352 1.369 . S
C353 H356 0.928 . S
C354 N350 1.345 . S
C354 C355 1.371 . S
C354 H357 0.931 . S
C355 C351 1.391 . S
C355 C354 1.371 . S
C355 H362 0.930 . S
H356 C353 0.928 . S
H357 C354 0.931 . S
H358 C334 0.930 . S
H359 C331 0.930 . S
H360 C340 0.930 . S
H361 C352 0.929 . S
H362 C355 0.930 . S
C363 C364 1.351 . S
C363 N366 1.368 . S
C363 H368 0.931 . S
C364 C363 1.351 . S
C364 N365 1.373 . S
C364 H392 0.930 . S
N365 C364 1.373 . S
N365 C367 1.340 . S
N366 C363 1.368 . S
N366 C367 1.321 . S
N366 Co369 2.135 . S
C367 N365 1.340 . S
C367 N366 1.321 . S
C367 H391 0.930 . S
H368 C363 0.931 . S
Co369 N366 2.135 . S
Co369 N372 2.121 . S
Co369 O377 2.055 . S
Co369 O380 2.039 . S
Co369 N383 2.140 . S
C370 O371 1.227 . S
C370 O380 1.265 . S
O371 C370 1.227 . S
N372 Co369 2.121 . S
N372 C374 1.375 . S
N372 C375 1.313 . S
C373 C374 1.338 . S
C373 N376 1.377 . S
C373 H393 0.930 . S
C374 N372 1.375 . S
C374 C373 1.338 . S
C374 H378 0.931 . S
C375 N372 1.313 . S
C375 N376 1.344 . S
C375 H379 0.930 . S
N376 C373 1.377 . S
N376 C375 1.344 . S
O377 Co369 2.055 . S
O377 C381 1.253 . S
H378 C374 0.931 . S
H379 C375 0.930 . S
O380 Co369 2.039 . S
O380 C370 1.265 . S
C381 O377 1.253 . S
C381 O382 1.227 . S
O382 C381 1.227 . S
N383 Co369 2.140 . S
N383 C386 1.346 . S
N383 C387 1.345 . S
C384 C385 1.387 . S
C384 C388 1.391 . S
C385 C384 1.387 . S
C385 C386 1.369 . S
C385 H394 0.929 . S
C386 N383 1.346 . S
C386 C385 1.369 . S
C386 H389 0.928 . S
C387 N383 1.345 . S
C387 C388 1.371 . S
C387 H390 0.931 . S
C388 C384 1.391 . S
C388 C387 1.371 . S
C388 H395 0.930 . S
H389 C386 0.928 . S
H390 C387 0.931 . S
H391 C367 0.930 . S
H392 C364 0.930 . S
H393 C373 0.930 . S
H394 C385 0.929 . S
H395 C388 0.930 . S
C396 C397 1.351 . S
C396 N399 1.368 . S
C396 H401 0.931 . S
C397 C396 1.351 . S
C397 N398 1.373 . S
C397 H425 0.930 . S
N398 C397 1.373 . S
N398 C400 1.340 . S
N399 C396 1.368 . S
N399 C400 1.321 . S
N399 Co402 2.135 . S
C400 N398 1.340 . S
C400 N399 1.321 . S
C400 H424 0.930 . S
H401 C396 0.931 . S
Co402 N399 2.135 . S
Co402 N405 2.121 . S
Co402 O410 2.055 . S
Co402 O413 2.039 . S
Co402 N416 2.140 . S
C403 O404 1.227 . S
C403 O413 1.265 . S
O404 C403 1.227 . S
N405 Co402 2.121 . S
N405 C407 1.375 . S
N405 C408 1.313 . S
C406 C407 1.338 . S
C406 N409 1.377 . S
C406 H426 0.930 . S
C407 N405 1.375 . S
C407 C406 1.338 . S
C407 H411 0.931 . S
C408 N405 1.313 . S
C408 N409 1.344 . S
C408 H412 0.930 . S
N409 C406 1.377 . S
N409 C408 1.344 . S
O410 Co402 2.055 . S
O410 C414 1.253 . S
H411 C407 0.931 . S
H412 C408 0.930 . S
O413 Co402 2.039 . S
O413 C403 1.265 . S
C414 O410 1.253 . S
C414 O415 1.227 . S
O415 C414 1.227 . S
N416 Co402 2.140 . S
N416 C419 1.346 . S
N416 C420 1.345 . S
C417 C418 1.387 . S
C417 C421 1.391 . S
C418 C417 1.387 . S
C418 C419 1.369 . S
C418 H427 0.929 . S
C419 N416 1.346 . S
C419 C418 1.369 . S
C419 H422 0.928 . S
C420 N416 1.345 . S
C420 C421 1.371 . S
C420 H423 0.931 . S
C421 C417 1.391 . S
C421 C420 1.371 . S
C421 H428 0.930 . S
H422 C419 0.928 . S
H423 C420 0.931 . S
H424 C400 0.930 . S
H425 C397 0.930 . S
H426 C406 0.930 . S
H427 C418 0.929 . S
H428 C421 0.930 . S
C429 C430 1.351 . S
C429 N432 1.368 . S
C429 H434 0.931 . S
C430 C429 1.351 . S
C430 N431 1.373 . S
C430 H458 0.930 . S
N431 C430 1.373 . S
N431 C433 1.340 . S
N432 C429 1.368 . S
N432 C433 1.321 . S
N432 Co435 2.135 . S
C433 N431 1.340 . S
C433 N432 1.321 . S
C433 H457 0.930 . S
H434 C429 0.931 . S
Co435 N432 2.135 . S
Co435 N438 2.121 . S
Co435 O443 2.055 . S
Co435 O446 2.039 . S
Co435 N449 2.140 . S
C436 O437 1.227 . S
C436 O446 1.265 . S
O437 C436 1.227 . S
N438 Co435 2.121 . S
N438 C440 1.375 . S
N438 C441 1.313 . S
C439 C440 1.338 . S
C439 N442 1.377 . S
C439 H459 0.930 . S
C440 N438 1.375 . S
C440 C439 1.338 . S
C440 H444 0.931 . S
C441 N438 1.313 . S
C441 N442 1.344 . S
C441 H445 0.930 . S
N442 C439 1.377 . S
N442 C441 1.344 . S
O443 Co435 2.055 . S
O443 C447 1.253 . S
H444 C440 0.931 . S
H445 C441 0.930 . S
O446 Co435 2.039 . S
O446 C436 1.265 . S
C447 O443 1.253 . S
C447 O448 1.227 . S
O448 C447 1.227 . S
N449 Co435 2.140 . S
N449 C452 1.346 . S
N449 C453 1.345 . S
C450 C451 1.387 . S
C450 C454 1.391 . S
C451 C450 1.387 . S
C451 C452 1.369 . S
C451 H460 0.929 . S
C452 N449 1.346 . S
C452 C451 1.369 . S
C452 H455 0.928 . S
C453 N449 1.345 . S
C453 C454 1.371 . S
C453 H456 0.931 . S
C454 C450 1.391 . S
C454 C453 1.371 . S
C454 H461 0.930 . S
H455 C452 0.928 . S
H456 C453 0.931 . S
H457 C433 0.930 . S
H458 C430 0.930 . S
H459 C439 0.930 . S
H460 C451 0.929 . S
H461 C454 0.930 . S
C462 C463 1.351 . S
C462 N465 1.368 . S
C462 H467 0.931 . S
C463 C462 1.351 . S
C463 N464 1.373 . S
C463 H491 0.930 . S
N464 C463 1.373 . S
N464 C466 1.340 . S
N465 C462 1.368 . S
N465 C466 1.321 . S
N465 Co468 2.135 . S
C466 N464 1.340 . S
C466 N465 1.321 . S
C466 H490 0.930 . S
H467 C462 0.931 . S
Co468 N465 2.135 . S
Co468 N471 2.121 . S
Co468 O476 2.055 . S
Co468 O479 2.039 . S
Co468 N482 2.140 . S
C469 O470 1.227 . S
C469 O479 1.265 . S
O470 C469 1.227 . S
N471 Co468 2.121 . S
N471 C473 1.375 . S
N471 C474 1.313 . S
C472 C473 1.338 . S
C472 N475 1.377 . S
C472 H492 0.930 . S
C473 N471 1.375 . S
C473 C472 1.338 . S
C473 H477 0.931 . S
C474 N471 1.313 . S
C474 N475 1.344 . S
C474 H478 0.930 . S
N475 C472 1.377 . S
N475 C474 1.344 . S
O476 Co468 2.055 . S
O476 C480 1.253 . S
H477 C473 0.931 . S
H478 C474 0.930 . S
O479 Co468 2.039 . S
O479 C469 1.265 . S
C480 O476 1.253 . S
C480 O481 1.227 . S
O481 C480 1.227 . S
N482 Co468 2.140 . S
N482 C485 1.346 . S
N482 C486 1.345 . S
C483 C484 1.387 . S
C483 C487 1.391 . S
C484 C483 1.387 . S
C484 C485 1.369 . S
C484 H493 0.929 . S
C485 N482 1.346 . S
C485 C484 1.369 . S
C485 H488 0.928 . S
C486 N482 1.345 . S
C486 C487 1.371 . S
C486 H489 0.931 . S
C487 C483 1.391 . S
C487 C486 1.371 . S
C487 H494 0.930 . S
H488 C485 0.928 . S
H489 C486 0.931 . S
H490 C466 0.930 . S
H491 C463 0.930 . S
H492 C472 0.930 . S
H493 C484 0.929 . S
H494 C487 0.930 . S
C495 C496 1.351 . S
C495 N498 1.368 . S
C495 H500 0.931 . S
C496 C495 1.351 . S
C496 N497 1.373 . S
C496 H524 0.930 . S
N497 C496 1.373 . S
N497 C499 1.340 . S
N498 C495 1.368 . S
N498 C499 1.321 . S
N498 Co501 2.135 . S
C499 N497 1.340 . S
C499 N498 1.321 . S
C499 H523 0.930 . S
H500 C495 0.931 . S
Co501 N498 2.135 . S
Co501 N504 2.121 . S
Co501 O509 2.055 . S
Co501 O512 2.039 . S
Co501 N515 2.140 . S
C502 O503 1.227 . S
C502 O512 1.265 . S
O503 C502 1.227 . S
N504 Co501 2.121 . S
N504 C506 1.375 . S
N504 C507 1.313 . S
C505 C506 1.338 . S
C505 N508 1.377 . S
C505 H525 0.930 . S
C506 N504 1.375 . S
C506 C505 1.338 . S
C506 H510 0.931 . S
C507 N504 1.313 . S
C507 N508 1.344 . S
C507 H511 0.930 . S
N508 C505 1.377 . S
N508 C507 1.344 . S
O509 Co501 2.055 . S
O509 C513 1.253 . S
H510 C506 0.931 . S
H511 C507 0.930 . S
O512 Co501 2.039 . S
O512 C502 1.265 . S
C513 O509 1.253 . S
C513 O514 1.227 . S
O514 C513 1.227 . S
N515 Co501 2.140 . S
N515 C518 1.346 . S
N515 C519 1.345 . S
C516 C517 1.387 . S
C516 C520 1.391 . S
C517 C516 1.387 . S
C517 C518 1.369 . S
C517 H526 0.929 . S
C518 N515 1.346 . S
C518 C517 1.369 . S
C518 H521 0.928 . S
C519 N515 1.345 . S
C519 C520 1.371 . S
C519 H522 0.931 . S
C520 C516 1.391 . S
C520 C519 1.371 . S
C520 H527 0.930 . S
H521 C518 0.928 . S
H522 C519 0.931 . S
H523 C499 0.930 . S
H524 C496 0.930 . S
H525 C505 0.930 . S
H526 C517 0.929 . S
H527 C520 0.930 . S
C528 C529 1.351 . S
C528 N531 1.368 . S
C528 H533 0.931 . S
C529 C528 1.351 . S
C529 N530 1.373 . S
C529 H557 0.930 . S
N530 C529 1.373 . S
N530 C532 1.340 . S
N531 C528 1.368 . S
N531 C532 1.321 . S
N531 Co534 2.135 . S
C532 N530 1.340 . S
C532 N531 1.321 . S
C532 H556 0.930 . S
H533 C528 0.931 . S
Co534 N531 2.135 . S
Co534 N537 2.121 . S
Co534 O542 2.055 . S
Co534 O545 2.039 . S
Co534 N548 2.140 . S
C535 O536 1.227 . S
C535 O545 1.265 . S
O536 C535 1.227 . S
N537 Co534 2.121 . S
N537 C539 1.375 . S
N537 C540 1.313 . S
C538 C539 1.338 . S
C538 N541 1.377 . S
C538 H558 0.930 . S
C539 N537 1.375 . S
C539 C538 1.338 . S
C539 H543 0.931 . S
C540 N537 1.313 . S
C540 N541 1.344 . S
C540 H544 0.930 . S
N541 C538 1.377 . S
N541 C540 1.344 . S
O542 Co534 2.055 . S
O542 C546 1.253 . S
H543 C539 0.931 . S
H544 C540 0.930 . S
O545 Co534 2.039 . S
O545 C535 1.265 . S
C546 O542 1.253 . S
C546 O547 1.227 . S
O547 C546 1.227 . S
N548 Co534 2.140 . S
N548 C551 1.346 . S
N548 C552 1.345 . S
C549 C550 1.387 . S
C549 C553 1.391 . S
C550 C549 1.387 . S
C550 C551 1.369 . S
C550 H559 0.929 . S
C551 N548 1.346 . S
C551 C550 1.369 . S
C551 H554 0.928 . S
C552 N548 1.345 . S
C552 C553 1.371 . S
C552 H555 0.931 . S
C553 C549 1.391 . S
C553 C552 1.371 . S
C553 H560 0.930 . S
H554 C551 0.928 . S
H555 C552 0.931 . S
H556 C532 0.930 . S
H557 C529 0.930 . S
H558 C538 0.930 . S
H559 C550 0.929 . S
H560 C553 0.930 . S
C561 C562 1.351 . S
C561 N564 1.368 . S
C561 H566 0.931 . S
C562 C561 1.351 . S
C562 N563 1.373 . S
C562 H590 0.930 . S
N563 C562 1.373 . S
N563 C565 1.340 . S
N564 C561 1.368 . S
N564 C565 1.321 . S
N564 Co567 2.135 . S
C565 N563 1.340 . S
C565 N564 1.321 . S
C565 H589 0.930 . S
H566 C561 0.931 . S
Co567 N564 2.135 . S
Co567 N570 2.121 . S
Co567 O575 2.055 . S
Co567 O578 2.039 . S
Co567 N581 2.140 . S
C568 O569 1.227 . S
C568 O578 1.265 . S
O569 C568 1.227 . S
N570 Co567 2.121 . S
N570 C572 1.375 . S
N570 C573 1.313 . S
C571 C572 1.338 . S
C571 N574 1.377 . S
C571 H591 0.930 . S
C572 N570 1.375 . S
C572 C571 1.338 . S
C572 H576 0.931 . S
C573 N570 1.313 . S
C573 N574 1.344 . S
C573 H577 0.930 . S
N574 C571 1.377 . S
N574 C573 1.344 . S
O575 Co567 2.055 . S
O575 C579 1.253 . S
H576 C572 0.931 . S
H577 C573 0.930 . S
O578 Co567 2.039 . S
O578 C568 1.265 . S
C579 O575 1.253 . S
C579 O580 1.227 . S
O580 C579 1.227 . S
N581 Co567 2.140 . S
N581 C584 1.346 . S
N581 C585 1.345 . S
C582 C583 1.387 . S
C582 C586 1.391 . S
C583 C582 1.387 . S
C583 C584 1.369 . S
C583 H592 0.929 . S
C584 N581 1.346 . S
C584 C583 1.369 . S
C584 H587 0.928 . S
C585 N581 1.345 . S
C585 C586 1.371 . S
C585 H588 0.931 . S
C586 C582 1.391 . S
C586 C585 1.371 . S
C586 H593 0.930 . S
H587 C584 0.928 . S
H588 C585 0.931 . S
H589 C565 0.930 . S
H590 C562 0.930 . S
H591 C571 0.930 . S
H592 C583 0.929 . S
H593 C586 0.930 . S
C594 C595 1.351 . S
C594 N597 1.368 . S
C594 H599 0.931 . S
C595 C594 1.351 . S
C595 N596 1.373 . S
C595 H623 0.930 . S
N596 C595 1.373 . S
N596 C598 1.340 . S
N597 C594 1.368 . S
N597 C598 1.321 . S
N597 Co600 2.135 . S
C598 N596 1.340 . S
C598 N597 1.321 . S
C598 H622 0.930 . S
H599 C594 0.931 . S
Co600 N597 2.135 . S
Co600 N603 2.121 . S
Co600 O608 2.055 . S
Co600 O611 2.039 . S
Co600 N614 2.140 . S
C601 O602 1.227 . S
C601 O611 1.265 . S
O602 C601 1.227 . S
N603 Co600 2.121 . S
N603 C605 1.375 . S
N603 C606 1.313 . S
C604 C605 1.338 . S
C604 N607 1.377 . S
C604 H624 0.930 . S
C605 N603 1.375 . S
C605 C604 1.338 . S
C605 H609 0.931 . S
C606 N603 1.313 . S
C606 N607 1.344 . S
C606 H610 0.930 . S
N607 C604 1.377 . S
N607 C606 1.344 . S
O608 Co600 2.055 . S
O608 C612 1.253 . S
H609 C605 0.931 . S
H610 C606 0.930 . S
O611 Co600 2.039 . S
O611 C601 1.265 . S
C612 O608 1.253 . S
C612 O613 1.227 . S
O613 C612 1.227 . S
N614 Co600 2.140 . S
N614 C617 1.346 . S
N614 C618 1.345 . S
C615 C616 1.387 . S
C615 C619 1.391 . S
C616 C615 1.387 . S
C616 C617 1.369 . S
C616 H625 0.929 . S
C617 N614 1.346 . S
C617 C616 1.369 . S
C617 H620 0.928 . S
C618 N614 1.345 . S
C618 C619 1.371 . S
C618 H621 0.931 . S
C619 C615 1.391 . S
C619 C618 1.371 . S
C619 H626 0.930 . S
H620 C617 0.928 . S
H621 C618 0.931 . S
H622 C598 0.930 . S
H623 C595 0.930 . S
H624 C604 0.930 . S
H625 C616 0.929 . S
H626 C619 0.930 . S
C627 C628 1.351 . S
C627 N630 1.368 . S
C627 H632 0.931 . S
C628 C627 1.351 . S
C628 N629 1.373 . S
C628 H656 0.930 . S
N629 C628 1.373 . S
N629 C631 1.340 . S
N630 C627 1.368 . S
N630 C631 1.321 . S
N630 Co633 2.135 . S
C631 N629 1.340 . S
C631 N630 1.321 . S
C631 H655 0.930 . S
H632 C627 0.931 . S
Co633 N630 2.135 . S
Co633 N636 2.121 . S
Co633 O641 2.055 . S
Co633 O644 2.039 . S
Co633 N647 2.140 . S
C634 O635 1.227 . S
C634 O644 1.265 . S
O635 C634 1.227 . S
N636 Co633 2.121 . S
N636 C638 1.375 . S
N636 C639 1.313 . S
C637 C638 1.338 . S
C637 N640 1.377 . S
C637 H657 0.930 . S
C638 N636 1.375 . S
C638 C637 1.338 . S
C638 H642 0.931 . S
C639 N636 1.313 . S
C639 N640 1.344 . S
C639 H643 0.930 . S
N640 C637 1.377 . S
N640 C639 1.344 . S
O641 Co633 2.055 . S
O641 C645 1.253 . S
H642 C638 0.931 . S
H643 C639 0.930 . S
O644 Co633 2.039 . S
O644 C634 1.265 . S
C645 O641 1.253 . S
C645 O646 1.227 . S
O646 C645 1.227 . S
N647 Co633 2.140 . S
N647 C650 1.346 . S
N647 C651 1.345 . S
C648 C649 1.387 . S
C648 C652 1.391 . S
C649 C648 1.387 . S
C649 C650 1.369 . S
C649 H658 0.929 . S
C650 N647 1.346 . S
C650 C649 1.369 . S
C650 H653 0.928 . S
C651 N647 1.345 . S
C651 C652 1.371 . S
C651 H654 0.931 . S
C652 C648 1.391 . S
C652 C651 1.371 . S
C652 H659 0.930 . S
H653 C650 0.928 . S
H654 C651 0.931 . S
H655 C631 0.930 . S
H656 C628 0.930 . S
H657 C637 0.930 . S
H658 C649 0.929 . S
H659 C652 0.930 . S
C660 C661 1.351 . S
C660 N663 1.368 . S
C660 H665 0.931 . S
C661 C660 1.351 . S
C661 N662 1.373 . S
C661 H689 0.930 . S
N662 C661 1.373 . S
N662 C664 1.340 . S
N663 C660 1.368 . S
N663 C664 1.321 . S
N663 Co666 2.135 . S
C664 N662 1.340 . S
C664 N663 1.321 . S
C664 H688 0.930 . S
H665 C660 0.931 . S
Co666 N663 2.135 . S
Co666 N669 2.121 . S
Co666 O674 2.055 . S
Co666 O677 2.039 . S
Co666 N680 2.140 . S
C667 O668 1.227 . S
C667 O677 1.265 . S
O668 C667 1.227 . S
N669 Co666 2.121 . S
N669 C671 1.375 . S
N669 C672 1.313 . S
C670 C671 1.338 . S
C670 N673 1.377 . S
C670 H690 0.930 . S
C671 N669 1.375 . S
C671 C670 1.338 . S
C671 H675 0.931 . S
C672 N669 1.313 . S
C672 N673 1.344 . S
C672 H676 0.930 . S
N673 C670 1.377 . S
N673 C672 1.344 . S
O674 Co666 2.055 . S
O674 C678 1.253 . S
H675 C671 0.931 . S
H676 C672 0.930 . S
O677 Co666 2.039 . S
O677 C667 1.265 . S
C678 O674 1.253 . S
C678 O679 1.227 . S
O679 C678 1.227 . S
N680 Co666 2.140 . S
N680 C683 1.346 . S
N680 C684 1.345 . S
C681 C682 1.387 . S
C681 C685 1.391 . S
C682 C681 1.387 . S
C682 C683 1.369 . S
C682 H691 0.929 . S
C683 N680 1.346 . S
C683 C682 1.369 . S
C683 H686 0.928 . S
C684 N680 1.345 . S
C684 C685 1.371 . S
C684 H687 0.931 . S
C685 C681 1.391 . S
C685 C684 1.371 . S
C685 H692 0.930 . S
H686 C683 0.928 . S
H687 C684 0.931 . S
H688 C664 0.930 . S
H689 C661 0.930 . S
H690 C670 0.930 . S
H691 C682 0.929 . S
H692 C685 0.930 . S
C693 C694 1.351 . S
C693 N696 1.368 . S
C693 H698 0.931 . S
C694 C693 1.351 . S
C694 N695 1.373 . S
C694 H722 0.930 . S
N695 C694 1.373 . S
N695 C697 1.340 . S
N696 C693 1.368 . S
N696 C697 1.321 . S
N696 Co699 2.135 . S
C697 N695 1.340 . S
C697 N696 1.321 . S
C697 H721 0.930 . S
H698 C693 0.931 . S
Co699 N696 2.135 . S
Co699 N702 2.121 . S
Co699 O707 2.055 . S
Co699 O710 2.039 . S
Co699 N713 2.140 . S
C700 O701 1.227 . S
C700 O710 1.265 . S
O701 C700 1.227 . S
N702 Co699 2.121 . S
N702 C704 1.375 . S
N702 C705 1.313 . S
C703 C704 1.338 . S
C703 N706 1.377 . S
C703 H723 0.930 . S
C704 N702 1.375 . S
C704 C703 1.338 . S
C704 H708 0.931 . S
C705 N702 1.313 . S
C705 N706 1.344 . S
C705 H709 0.930 . S
N706 C703 1.377 . S
N706 C705 1.344 . S
O707 Co699 2.055 . S
O707 C711 1.253 . S
H708 C704 0.931 . S
H709 C705 0.930 . S
O710 Co699 2.039 . S
O710 C700 1.265 . S
C711 O707 1.253 . S
C711 O712 1.227 . S
O712 C711 1.227 . S
N713 Co699 2.140 . S
N713 C716 1.346 . S
N713 C717 1.345 . S
C714 C715 1.387 . S
C714 C718 1.391 . S
C715 C714 1.387 . S
C715 C716 1.369 . S
C715 H724 0.929 . S
C716 N713 1.346 . S
C716 C715 1.369 . S
C716 H719 0.928 . S
C717 N713 1.345 . S
C717 C718 1.371 . S
C717 H720 0.931 . S
C718 C714 1.391 . S
C718 C717 1.371 . S
C718 H725 0.930 . S
H719 C716 0.928 . S
H720 C717 0.931 . S
H721 C697 0.930 . S
H722 C694 0.930 . S
H723 C703 0.930 . S
H724 C715 0.929 . S
H725 C718 0.930 . S
C726 C727 1.351 . S
C726 N729 1.368 . S
C726 H731 0.931 . S
C727 C726 1.351 . S
C727 N728 1.373 . S
C727 H755 0.930 . S
N728 C727 1.373 . S
N728 C730 1.340 . S
N729 C726 1.368 . S
N729 C730 1.321 . S
N729 Co732 2.135 . S
C730 N728 1.340 . S
C730 N729 1.321 . S
C730 H754 0.930 . S
H731 C726 0.931 . S
Co732 N729 2.135 . S
Co732 N735 2.121 . S
Co732 O740 2.055 . S
Co732 O743 2.039 . S
Co732 N746 2.140 . S
C733 O734 1.227 . S
C733 O743 1.265 . S
O734 C733 1.227 . S
N735 Co732 2.121 . S
N735 C737 1.375 . S
N735 C738 1.313 . S
C736 C737 1.338 . S
C736 N739 1.377 . S
C736 H756 0.930 . S
C737 N735 1.375 . S
C737 C736 1.338 . S
C737 H741 0.931 . S
C738 N735 1.313 . S
C738 N739 1.344 . S
C738 H742 0.930 . S
N739 C736 1.377 . S
N739 C738 1.344 . S
O740 Co732 2.055 . S
O740 C744 1.253 . S
H741 C737 0.931 . S
H742 C738 0.930 . S
O743 Co732 2.039 . S
O743 C733 1.265 . S
C744 O740 1.253 . S
C744 O745 1.227 . S
O745 C744 1.227 . S
N746 Co732 2.140 . S
N746 C749 1.346 . S
N746 C750 1.345 . S
C747 C748 1.387 . S
C747 C751 1.391 . S
C748 C747 1.387 . S
C748 C749 1.369 . S
C748 H757 0.929 . S
C749 N746 1.346 . S
C749 C748 1.369 . S
C749 H752 0.928 . S
C750 N746 1.345 . S
C750 C751 1.371 . S
C750 H753 0.931 . S
C751 C747 1.391 . S
C751 C750 1.371 . S
C751 H758 0.930 . S
H752 C749 0.928 . S
H753 C750 0.931 . S
H754 C730 0.930 . S
H755 C727 0.930 . S
H756 C736 0.930 . S
H757 C748 0.929 . S
H758 C751 0.930 . S
C759 C760 1.351 . S
C759 N762 1.368 . S
C759 H764 0.931 . S
C760 C759 1.351 . S
C760 N761 1.373 . S
C760 H788 0.930 . S
N761 C760 1.373 . S
N761 C763 1.340 . S
N762 C759 1.368 . S
N762 C763 1.321 . S
N762 Co765 2.135 . S
C763 N761 1.340 . S
C763 N762 1.321 . S
C763 H787 0.930 . S
H764 C759 0.931 . S
Co765 N762 2.135 . S
Co765 N768 2.121 . S
Co765 O773 2.055 . S
Co765 O776 2.039 . S
Co765 N779 2.140 . S
C766 O767 1.227 . S
C766 O776 1.265 . S
O767 C766 1.227 . S
N768 Co765 2.121 . S
N768 C770 1.375 . S
N768 C771 1.313 . S
C769 C770 1.338 . S
C769 N772 1.377 . S
C769 H789 0.930 . S
C770 N768 1.375 . S
C770 C769 1.338 . S
C770 H774 0.931 . S
C771 N768 1.313 . S
C771 N772 1.344 . S
C771 H775 0.930 . S
N772 C769 1.377 . S
N772 C771 1.344 . S
O773 Co765 2.055 . S
O773 C777 1.253 . S
H774 C770 0.931 . S
H775 C771 0.930 . S
O776 Co765 2.039 . S
O776 C766 1.265 . S
C777 O773 1.253 . S
C777 O778 1.227 . S
O778 C777 1.227 . S
N779 Co765 2.140 . S
N779 C782 1.346 . S
N779 C783 1.345 . S
C780 C781 1.387 . S
C780 C784 1.391 . S
C781 C780 1.387 . S
C781 C782 1.369 . S
C781 H790 0.929 . S
C782 N779 1.346 . S
C782 C781 1.369 . S
C782 H785 0.928 . S
C783 N779 1.345 . S
C783 C784 1.371 . S
C783 H786 0.931 . S
C784 C780 1.391 . S
C784 C783 1.371 . S
C784 H791 0.930 . S
H785 C782 0.928 . S
H786 C783 0.931 . S
H787 C763 0.930 . S
H788 C760 0.930 . S
H789 C769 0.930 . S
H790 C781 0.929 . S
H791 C784 0.930 . S
C792 C793 1.391 . S
C792 C794 1.394 . S
C792 H808 0.931 . S
C793 C792 1.391 . S
C793 C797 1.376 . S
C794 C792 1.394 . S
C794 C795 1.369 . S
C794 C798 1.531 1_545 S
C795 C794 1.369 . S
C795 C796 1.410 . S
C795 C803 1.503 1_545 S
C796 C795 1.410 . S
C796 C797 1.392 . S
C796 C799 1.511 . S
C797 C793 1.376 . S
C797 C796 1.392 . S
C797 H809 0.929 . S
C798 C794 1.531 1_565 S
C798 H810 0.960 . S
C798 H811 0.962 . S
C798 H812 0.960 1_565 S
C799 C796 1.511 . S
C799 H813 0.961 . S
C799 H814 0.961 . S
C799 H815 0.961 . S
C800 C801 1.370 . S
C800 C802 1.363 . S
C800 H816 0.931 . S
C801 C800 1.370 . S
C801 C805 1.408 . S
C802 C800 1.363 . S
C802 C803 1.370 . S
C802 C806 1.524 . S
C803 C795 1.503 1_565 S
C803 C802 1.370 . S
C803 C804 1.403 . S
C804 C803 1.403 . S
C804 C805 1.404 . S
C804 C807 1.539 1_565 S
C805 C801 1.408 . S
C805 C804 1.404 . S
C805 H817 0.930 . S
C806 C802 1.524 . S
C806 H818 0.956 . S
C806 H819 0.961 . S
C806 H820 0.961 . S
C807 C804 1.539 1_545 S
C807 H821 0.958 . S
C807 H822 0.961 . S
C807 H823 0.960 . S
H808 C792 0.931 . S
H809 C797 0.929 . S
H810 C798 0.960 . S
H811 C798 0.962 . S
H812 C798 0.960 1_545 S
H813 C799 0.961 . S
H814 C799 0.961 . S
H815 C799 0.961 . S
H816 C800 0.931 . S
H817 C805 0.930 . S
H818 C806 0.956 . S
H819 C806 0.961 . S
H820 C806 0.961 . S
H821 C807 0.958 . S
H822 C807 0.961 . S
H823 C807 0.960 . S
C824 C825 1.391 . S
C824 C826 1.394 . S
C824 H840 0.931 . S
C825 C824 1.391 . S
C825 C829 1.376 . S
C826 C824 1.394 . S
C826 C827 1.369 . S
C826 C830 1.531 . S
C827 C826 1.369 . S
C827 C828 1.410 . S
C827 C835 1.503 . S
C828 C827 1.410 . S
C828 C829 1.392 . S
C828 C831 1.511 . S
C829 C825 1.376 . S
C829 C828 1.392 . S
C829 H841 0.929 . S
C830 C826 1.531 . S
C830 H842 0.960 . S
C830 H843 0.962 . S
C830 H844 0.960 . S
C831 C828 1.511 . S
C831 H845 0.961 . S
C831 H846 0.961 . S
C831 H847 0.961 . S
C832 C833 1.370 . S
C832 C834 1.363 . S
C832 H848 0.931 . S
C833 C832 1.370 . S
C833 C837 1.408 . S
C834 C832 1.363 . S
C834 C835 1.370 . S
C834 C838 1.524 . S
C835 C827 1.503 . S
C835 C834 1.370 . S
C835 C836 1.403 . S
C836 C835 1.403 . S
C836 C837 1.404 . S
C836 C839 1.539 . S
C837 C833 1.408 . S
C837 C836 1.404 . S
C837 H849 0.930 . S
C838 C834 1.524 . S
C838 H850 0.956 . S
C838 H851 0.961 . S
C838 H852 0.961 . S
C839 C836 1.539 . S
C839 H853 0.958 . S
C839 H854 0.961 . S
C839 H855 0.960 . S
H840 C824 0.931 . S
H841 C829 0.929 . S
H842 C830 0.960 . S
H843 C830 0.962 . S
H844 C830 0.960 . S
H845 C831 0.961 . S
H846 C831 0.961 . S
H847 C831 0.961 . S
H848 C832 0.931 . S
H849 C837 0.930 . S
H850 C838 0.956 . S
H851 C838 0.961 . S
H852 C838 0.961 . S
H853 C839 0.958 . S
H854 C839 0.961 . S
H855 C839 0.960 . S
C856 C857 1.391 . S
C856 C858 1.394 . S
C856 H872 0.931 . S
C857 C856 1.391 . S
C857 C861 1.376 . S
C858 C856 1.394 . S
C858 C859 1.369 . S
C858 C862 1.531 1_455 S
C859 C858 1.369 . S
C859 C860 1.410 . S
C859 C867 1.503 1_455 S
C860 C859 1.410 . S
C860 C861 1.392 . S
C860 C863 1.511 . S
C861 C857 1.376 . S
C861 C860 1.392 . S
C861 H873 0.929 . S
C862 C858 1.531 1_655 S
C862 H874 0.960 . S
C862 H875 0.962 . S
C862 H876 0.960 . S
C863 C860 1.511 . S
C863 H877 0.961 . S
C863 H878 0.961 . S
C863 H879 0.961 . S
C864 C865 1.370 . S
C864 C866 1.363 . S
C864 H880 0.931 . S
C865 C864 1.370 . S
C865 C869 1.408 . S
C866 C864 1.363 . S
C866 C867 1.370 . S
C866 C870 1.524 1_655 S
C867 C859 1.503 1_655 S
C867 C866 1.370 . S
C867 C868 1.403 . S
C868 C867 1.403 . S
C868 C869 1.404 . S
C868 C871 1.539 . S
C869 C865 1.408 . S
C869 C868 1.404 . S
C869 H881 0.930 . S
C870 C866 1.524 1_455 S
C870 H882 0.956 . S
C870 H883 0.961 . S
C870 H884 0.961 . S
C871 C868 1.539 . S
C871 H885 0.958 . S
C871 H886 0.961 . S
C871 H887 0.960 . S
H872 C856 0.931 . S
H873 C861 0.929 . S
H874 C862 0.960 . S
H875 C862 0.962 . S
H876 C862 0.960 . S
H877 C863 0.961 . S
H878 C863 0.961 . S
H879 C863 0.961 . S
H880 C864 0.931 . S
H881 C869 0.930 . S
H882 C870 0.956 . S
H883 C870 0.961 . S
H884 C870 0.961 . S
H885 C871 0.958 . S
H886 C871 0.961 . S
H887 C871 0.960 . S
C888 C889 1.391 . S
C888 C890 1.394 . S
C888 H904 0.931 . S
C889 C888 1.391 . S
C889 C893 1.376 . S
C890 C888 1.394 . S
C890 C891 1.369 . S
C890 C894 1.531 . S
C891 C890 1.369 . S
C891 C892 1.410 . S
C891 C899 1.503 1_455 S
C892 C891 1.410 . S
C892 C893 1.392 . S
C892 C895 1.511 . S
C893 C889 1.376 . S
C893 C892 1.392 . S
C893 H905 0.929 . S
C894 C890 1.531 . S
C894 H906 0.941 1_455 S
C894 H907 0.962 1_455 S
C894 H908 0.960 . S
C895 C892 1.511 . S
C895 H909 0.961 . S
C895 H910 0.961 . S
C895 H911 0.961 . S
C896 C897 1.370 . S
C896 C898 1.363 . S
C896 H912 0.931 . S
C897 C896 1.370 . S
C897 C901 1.408 . S
C898 C896 1.363 . S
C898 C899 1.370 . S
C898 C902 1.524 . S
C899 C891 1.503 1_655 S
C899 C898 1.370 . S
C899 C900 1.403 . S
C900 C899 1.403 . S
C900 C901 1.404 . S
C900 C903 1.539 1_655 S
C901 C897 1.408 . S
C901 C900 1.404 . S
C901 H913 0.930 . S
C902 C898 1.524 . S
C902 H914 0.956 . S
C902 H915 0.961 . S
C902 H916 0.961 . S
C903 C900 1.539 1_455 S
C903 H917 0.958 . S
C903 H918 0.961 . S
C903 H919 0.960 . S
H904 C888 0.931 . S
H905 C893 0.929 . S
H906 C894 0.941 1_655 S
H907 C894 0.962 1_655 S
H908 C894 0.960 . S
H909 C895 0.961 . S
H910 C895 0.961 . S
H911 C895 0.961 . S
H912 C896 0.931 . S
H913 C901 0.930 . S
H914 C902 0.956 . S
H915 C902 0.961 . S
H916 C902 0.961 . S
H917 C903 0.958 . S
H918 C903 0.961 . S
H919 C903 0.960 . S
C920 C921 1.391 . S
C920 C922 1.394 . S
C920 H936 0.931 . S
C921 C920 1.391 . S
C921 C925 1.376 . S
C922 C920 1.394 . S
C922 C923 1.369 . S
C922 C926 1.531 1_565 S
C923 C922 1.369 . S
C923 C924 1.410 . S
C923 C931 1.503 1_565 S
C924 C923 1.410 . S
C924 C925 1.392 . S
C924 C927 1.511 . S
C925 C921 1.376 . S
C925 C924 1.392 . S
C925 H937 0.929 . S
C926 C922 1.531 1_545 S
C926 H938 0.960 . S
C926 H939 0.962 . S
C926 H940 0.960 1_545 S
C927 C924 1.511 . S
C927 H941 0.961 . S
C927 H942 0.961 . S
C927 H943 0.961 . S
C928 C929 1.370 . S
C928 C930 1.363 . S
C928 H944 0.931 . S
C929 C928 1.370 . S
C929 C933 1.408 . S
C930 C928 1.363 . S
C930 C931 1.370 . S
C930 C934 1.524 . S
C931 C923 1.503 1_545 S
C931 C930 1.370 . S
C931 C932 1.403 . S
C932 C931 1.403 . S
C932 C933 1.404 . S
C932 C935 1.539 1_545 S
C933 C929 1.408 . S
C933 C932 1.404 . S
C933 H945 0.930 . S
C934 C930 1.524 . S
C934 H946 0.956 . S
C934 H947 0.961 . S
C934 H948 0.961 . S
C935 C932 1.539 1_565 S
C935 H949 0.958 . S
C935 H950 0.961 . S
C935 H951 0.960 . S
H936 C920 0.931 . S
H937 C925 0.929 . S
H938 C926 0.960 . S
H939 C926 0.962 . S
H940 C926 0.960 1_565 S
H941 C927 0.961 . S
H942 C927 0.961 . S
H943 C927 0.961 . S
H944 C928 0.931 . S
H945 C933 0.930 . S
H946 C934 0.956 . S
H947 C934 0.961 . S
H948 C934 0.961 . S
H949 C935 0.958 . S
H950 C935 0.961 . S
H951 C935 0.960 . S
C952 C953 1.391 . S
C952 C954 1.394 . S
C952 H968 0.931 . S
C953 C952 1.391 . S
C953 C957 1.376 . S
C954 C952 1.394 . S
C954 C955 1.369 . S
C954 C958 1.531 . S
C955 C954 1.369 . S
C955 C956 1.410 . S
C955 C963 1.503 . S
C956 C955 1.410 . S
C956 C957 1.392 . S
C956 C959 1.511 . S
C957 C953 1.376 . S
C957 C956 1.392 . S
C957 H969 0.929 . S
C958 C954 1.531 . S
C958 H970 0.960 . S
C958 H971 0.962 . S
C958 H972 0.960 . S
C959 C956 1.511 . S
C959 H973 0.961 . S
C959 H974 0.961 . S
C959 H975 0.961 . S
C960 C961 1.370 . S
C960 C962 1.363 . S
C960 H976 0.931 . S
C961 C960 1.370 . S
C961 C965 1.408 . S
C962 C960 1.363 . S
C962 C963 1.370 . S
C962 C966 1.524 . S
C963 C955 1.503 . S
C963 C962 1.370 . S
C963 C964 1.403 . S
C964 C963 1.403 . S
C964 C965 1.404 . S
C964 C967 1.539 . S
C965 C961 1.408 . S
C965 C964 1.404 . S
C965 H977 0.930 . S
C966 C962 1.524 . S
C966 H978 0.956 . S
C966 H979 0.961 . S
C966 H980 0.961 . S
C967 C964 1.539 . S
C967 H981 0.958 . S
C967 H982 0.961 . S
C967 H983 0.960 . S
H968 C952 0.931 . S
H969 C957 0.929 . S
H970 C958 0.960 . S
H971 C958 0.962 . S
H972 C958 0.960 . S
H973 C959 0.961 . S
H974 C959 0.961 . S
H975 C959 0.961 . S
H976 C960 0.931 . S
H977 C965 0.930 . S
H978 C966 0.956 . S
H979 C966 0.961 . S
H980 C966 0.961 . S
H981 C967 0.958 . S
H982 C967 0.961 . S
H983 C967 0.960 . S
C984 C985 1.391 . S
C984 C986 1.394 . S
C984 H1000 0.931 . S
C985 C984 1.391 . S
C985 C989 1.376 . S
C986 C984 1.394 . S
C986 C987 1.369 . S
C986 C990 1.531 1_545 S
C987 C986 1.369 . S
C987 C988 1.410 . S
C987 C995 1.503 1_545 S
C988 C987 1.410 . S
C988 C989 1.392 . S
C988 C991 1.511 . S
C989 C985 1.376 . S
C989 C988 1.392 . S
C989 H1001 0.929 . S
C990 C986 1.531 1_565 S
C990 H1002 0.960 . S
C990 H1003 0.962 . S
C990 H1004 0.960 . S
C991 C988 1.511 . S
C991 H1005 0.961 . S
C991 H1006 0.961 . S
C991 H1007 0.961 . S
C992 C993 1.370 . S
C992 C994 1.363 . S
C992 H1008 0.931 . S
C993 C992 1.370 . S
C993 C997 1.408 . S
C994 C992 1.363 . S
C994 C995 1.370 . S
C994 C998 1.524 . S
C995 C987 1.503 1_565 S
C995 C994 1.370 . S
C995 C996 1.403 . S
C996 C995 1.403 . S
C996 C997 1.404 . S
C996 C999 1.539 1_565 S
C997 C993 1.408 . S
C997 C996 1.404 . S
C997 H1009 0.930 . S
C998 C994 1.524 . S
C998 H1010 0.956 . S
C998 H1011 0.961 . S
C998 H1012 0.961 . S
C999 C996 1.539 1_545 S
C999 H1013 0.958 . S
C999 H1014 0.961 . S
C999 H1015 0.960 . S
H1000 C984 0.931 . S
H1001 C989 0.929 . S
H1002 C990 0.960 . S
H1003 C990 0.962 . S
H1004 C990 0.960 . S
H1005 C991 0.961 . S
H1006 C991 0.961 . S
H1007 C991 0.961 . S
H1008 C992 0.931 . S
H1009 C997 0.930 . S
H1010 C998 0.956 . S
H1011 C998 0.961 . S
H1012 C998 0.961 . S
H1013 C999 0.958 . S
H1014 C999 0.961 . S
H1015 C999 0.960 . S
C1016 C1017 1.391 . S
C1016 C1018 1.394 . S
C1016 H1032 0.931 . S
C1017 C1016 1.391 . S
C1017 C1021 1.376 . S
C1018 C1016 1.394 . S
C1018 C1019 1.369 . S
C1018 C1022 1.531 . S
C1019 C1018 1.369 . S
C1019 C1020 1.410 . S
C1019 C1027 1.503 . S
C1020 C1019 1.410 . S
C1020 C1021 1.392 . S
C1020 C1023 1.511 . S
C1021 C1017 1.376 . S
C1021 C1020 1.392 . S
C1021 H1033 0.929 . S
C1022 C1018 1.531 . S
C1022 H1034 0.960 . S
C1022 H1035 0.962 . S
C1022 H1036 0.960 . S
C1023 C1020 1.511 . S
C1023 H1037 0.961 . S
C1023 H1038 0.961 . S
C1023 H1039 0.961 . S
C1024 C1025 1.370 . S
C1024 C1026 1.363 . S
C1024 H1040 0.931 . S
C1025 C1024 1.370 . S
C1025 C1029 1.408 . S
C1026 C1024 1.363 . S
C1026 C1027 1.370 . S
C1026 C1030 1.524 . S
C1027 C1019 1.503 . S
C1027 C1026 1.370 . S
C1027 C1028 1.403 . S
C1028 C1027 1.403 . S
C1028 C1029 1.404 . S
C1028 C1031 1.539 . S
C1029 C1025 1.408 . S
C1029 C1028 1.404 . S
C1029 H1041 0.930 . S
C1030 C1026 1.524 . S
C1030 H1042 0.956 . S
C1030 H1043 0.961 . S
C1030 H1044 0.961 . S
C1031 C1028 1.539 . S
C1031 H1045 0.958 . S
C1031 H1046 0.961 . S
C1031 H1047 0.960 . S
H1032 C1016 0.931 . S
H1033 C1021 0.929 . S
H1034 C1022 0.960 . S
H1035 C1022 0.962 . S
H1036 C1022 0.960 . S
H1037 C1023 0.961 . S
H1038 C1023 0.961 . S
H1039 C1023 0.961 . S
H1040 C1024 0.931 . S
H1041 C1029 0.930 . S
H1042 C1030 0.956 . S
H1043 C1030 0.961 . S
H1044 C1030 0.961 . S
H1045 C1031 0.958 . S
H1046 C1031 0.961 . S
H1047 C1031 0.960 . S
C1048 C1049 1.391 . S
C1048 C1050 1.394 . S
C1048 H1064 0.931 . S
C1049 C1048 1.391 . S
C1049 C1053 1.376 . S
C1050 C1048 1.394 . S
C1050 C1051 1.369 . S
C1050 C1054 1.531 1_655 S
C1051 C1050 1.369 . S
C1051 C1052 1.410 . S
C1051 C1059 1.503 1_655 S
C1052 C1051 1.410 . S
C1052 C1053 1.392 . S
C1052 C1055 1.511 . S
C1053 C1049 1.376 . S
C1053 C1052 1.392 . S
C1053 H1065 0.929 . S
C1054 C1050 1.531 1_455 S
C1054 H1066 0.960 . S
C1054 H1067 0.962 . S
C1054 H1068 0.960 . S
C1055 C1052 1.511 . S
C1055 H1069 0.961 . S
C1055 H1070 0.961 . S
C1055 H1071 0.961 . S
C1056 C1057 1.370 . S
C1056 C1058 1.363 . S
C1056 H1072 0.931 . S
C1057 C1056 1.370 . S
C1057 C1061 1.408 . S
C1058 C1056 1.363 . S
C1058 C1059 1.370 . S
C1058 C1062 1.524 . S
C1059 C1051 1.503 1_455 S
C1059 C1058 1.370 . S
C1059 C1060 1.403 . S
C1060 C1059 1.403 . S
C1060 C1061 1.404 . S
C1060 C1063 1.539 1_455 S
C1061 C1057 1.408 . S
C1061 C1060 1.404 . S
C1061 H1073 0.930 . S
C1062 C1058 1.524 . S
C1062 H1074 0.956 . S
C1062 H1075 0.961 . S
C1062 H1076 0.961 . S
C1063 C1060 1.539 1_655 S
C1063 H1077 0.958 1_655 S
C1063 H1078 0.961 . S
C1063 H1079 0.960 . S
H1064 C1048 0.931 . S
H1065 C1053 0.929 . S
H1066 C1054 0.960 . S
H1067 C1054 0.962 . S
H1068 C1054 0.960 . S
H1069 C1055 0.961 . S
H1070 C1055 0.961 . S
H1071 C1055 0.961 . S
H1072 C1056 0.931 . S
H1073 C1061 0.930 . S
H1074 C1062 0.956 . S
H1075 C1062 0.961 . S
H1076 C1062 0.961 . S
H1077 C1063 0.958 1_455 S
H1078 C1063 0.961 . S
H1079 C1063 0.960 . S
C1080 C1081 1.391 . S
C1080 C1082 1.394 . S
C1080 H1096 0.931 . S
C1081 C1080 1.391 . S
C1081 C1085 1.376 . S
C1082 C1080 1.394 . S
C1082 C1083 1.369 . S
C1082 C1086 1.531 . S
C1083 C1082 1.369 . S
C1083 C1084 1.410 . S
C1083 C1091 1.503 1_655 S
C1084 C1083 1.410 . S
C1084 C1085 1.392 . S
C1084 C1087 1.511 1_655 S
C1085 C1081 1.376 . S
C1085 C1084 1.392 . S
C1085 H1097 0.929 . S
C1086 C1082 1.531 . S
C1086 H1098 0.960 . S
C1086 H1099 0.962 . S
C1086 H1100 0.960 . S
C1087 C1084 1.511 1_455 S
C1087 H1101 0.961 . S
C1087 H1102 0.961 . S
C1087 H1103 0.961 . S
C1088 C1089 1.370 . S
C1088 C1090 1.363 . S
C1088 H1104 0.931 . S
C1089 C1088 1.370 . S
C1089 C1093 1.408 . S
C1090 C1088 1.363 . S
C1090 C1091 1.370 . S
C1090 C1094 1.524 . S
C1091 C1083 1.503 1_455 S
C1091 C1090 1.370 . S
C1091 C1092 1.403 . S
C1092 C1091 1.403 . S
C1092 C1093 1.404 . S
C1092 C1095 1.539 . S
C1093 C1089 1.408 . S
C1093 C1092 1.404 . S
C1093 H1105 0.930 . S
C1094 C1090 1.524 . S
C1094 H1106 0.956 1_455 S
C1094 H1107 0.961 . S
C1094 H1108 0.961 . S
C1095 C1092 1.539 . S
C1095 H1109 0.958 . S
C1095 H1110 0.961 . S
C1095 H1111 0.960 . S
H1096 C1080 0.931 . S
H1097 C1085 0.929 . S
H1098 C1086 0.960 . S
H1099 C1086 0.962 . S
H1100 C1086 0.960 . S
H1101 C1087 0.961 . S
H1102 C1087 0.961 . S
H1103 C1087 0.961 . S
H1104 C1088 0.931 . S
H1105 C1093 0.930 . S
H1106 C1094 0.956 1_655 S
H1107 C1094 0.961 . S
H1108 C1094 0.961 . S
H1109 C1095 0.958 . S
H1110 C1095 0.961 . S
H1111 C1095 0.960 . S
C1112 C1113 1.391 . S
C1112 C1114 1.394 . S
C1112 H1128 0.931 . S
C1113 C1112 1.391 . S
C1113 C1117 1.376 . S
C1114 C1112 1.394 . S
C1114 C1115 1.369 . S
C1114 C1118 1.531 . S
C1115 C1114 1.369 . S
C1115 C1116 1.410 . S
C1115 C1123 1.503 1_545 S
C1116 C1115 1.410 . S
C1116 C1117 1.392 . S
C1116 C1119 1.511 1_545 S
C1117 C1113 1.376 . S
C1117 C1116 1.392 . S
C1117 H1129 0.929 . S
C1118 C1114 1.531 . S
C1118 H1130 0.960 1_545 S
C1118 H1131 0.962 . S
C1118 H1132 0.960 . S
C1119 C1116 1.511 1_565 S
C1119 H1133 0.961 1_565 S
C1119 H1134 0.961 . S
C1119 H1135 0.961 . S
C1120 C1121 1.370 . S
C1120 C1122 1.363 . S
C1120 H1136 0.931 . S
C1121 C1120 1.370 . S
C1121 C1125 1.408 . S
C1122 C1120 1.363 . S
C1122 C1123 1.370 . S
C1122 C1126 1.524 1_565 S
C1123 C1115 1.503 1_565 S
C1123 C1122 1.370 . S
C1123 C1124 1.403 . S
C1124 C1123 1.403 . S
C1124 C1125 1.404 . S
C1124 C1127 1.539 . S
C1125 C1121 1.408 . S
C1125 C1124 1.404 . S
C1125 H1137 0.930 . S
C1126 C1122 1.524 1_545 S
C1126 H1138 0.956 . S
C1126 H1139 0.961 . S
C1126 H1140 0.961 . S
C1127 C1124 1.539 . S
C1127 H1141 0.958 . S
C1127 H1142 0.961 . S
C1127 H1143 0.960 . S
H1128 C1112 0.931 . S
H1129 C1117 0.929 . S
H1130 C1118 0.960 1_565 S
H1131 C1118 0.962 . S
H1132 C1118 0.960 . S
H1133 C1119 0.961 1_545 S
H1134 C1119 0.961 . S
H1135 C1119 0.961 . S
H1136 C1120 0.931 . S
H1137 C1125 0.930 . S
H1138 C1126 0.956 . S
H1139 C1126 0.961 . S
H1140 C1126 0.961 . S
H1141 C1127 0.958 . S
H1142 C1127 0.961 . S
H1143 C1127 0.960 . S
C1144 C1145 1.391 . S
C1144 C1146 1.394 . S
C1144 H1160 0.931 . S
C1145 C1144 1.391 . S
C1145 C1149 1.376 . S
C1146 C1144 1.394 . S
C1146 C1147 1.369 . S
C1146 C1150 1.531 . S
C1147 C1146 1.369 . S
C1147 C1148 1.410 . S
C1147 C1155 1.503 . S
C1148 C1147 1.410 . S
C1148 C1149 1.392 . S
C1148 C1151 1.511 . S
C1149 C1145 1.376 . S
C1149 C1148 1.392 . S
C1149 H1161 0.929 . S
C1150 C1146 1.531 . S
C1150 H1162 0.960 . S
C1150 H1163 0.962 . S
C1150 H1164 0.960 . S
C1151 C1148 1.511 . S
C1151 H1165 0.961 . S
C1151 H1166 0.961 . S
C1151 H1167 0.961 . S
C1152 C1153 1.370 . S
C1152 C1154 1.363 . S
C1152 H1168 0.931 . S
C1153 C1152 1.370 . S
C1153 C1157 1.408 . S
C1154 C1152 1.363 . S
C1154 C1155 1.370 . S
C1154 C1158 1.524 . S
C1155 C1147 1.503 . S
C1155 C1154 1.370 . S
C1155 C1156 1.403 . S
C1156 C1155 1.403 . S
C1156 C1157 1.404 . S
C1156 C1159 1.539 . S
C1157 C1153 1.408 . S
C1157 C1156 1.404 . S
C1157 H1169 0.930 . S
C1158 C1154 1.524 . S
C1158 H1170 0.956 . S
C1158 H1171 0.961 . S
C1158 H1172 0.961 . S
C1159 C1156 1.539 . S
C1159 H1173 0.958 . S
C1159 H1174 0.961 . S
C1159 H1175 0.960 . S
H1160 C1144 0.931 . S
H1161 C1149 0.929 . S
H1162 C1150 0.960 . S
H1163 C1150 0.962 . S
H1164 C1150 0.960 . S
H1165 C1151 0.961 . S
H1166 C1151 0.961 . S
H1167 C1151 0.961 . S
H1168 C1152 0.931 . S
H1169 C1157 0.930 . S
H1170 C1158 0.956 . S
H1171 C1158 0.961 . S
H1172 C1158 0.961 . S
H1173 C1159 0.958 . S
H1174 C1159 0.961 . S
H1175 C1159 0.960 . S
C1176 C1177 1.391 . S
C1176 C1178 1.394 . S
C1176 H1192 0.931 . S
C1177 C1176 1.391 . S
C1177 C1181 1.376 . S
C1178 C1176 1.394 . S
C1178 C1179 1.369 . S
C1178 C1182 1.531 . S
C1179 C1178 1.369 . S
C1179 C1180 1.410 . S
C1179 C1187 1.503 . S
C1180 C1179 1.410 . S
C1180 C1181 1.392 . S
C1180 C1183 1.511 . S
C1181 C1177 1.376 . S
C1181 C1180 1.392 . S
C1181 H1193 0.929 . S
C1182 C1178 1.531 . S
C1182 H1194 0.960 . S
C1182 H1195 0.962 . S
C1182 H1196 0.960 . S
C1183 C1180 1.511 . S
C1183 H1197 0.961 . S
C1183 H1198 0.961 . S
C1183 H1199 0.961 . S
C1184 C1185 1.370 . S
C1184 C1186 1.363 . S
C1184 H1200 0.931 . S
C1185 C1184 1.370 . S
C1185 C1189 1.408 . S
C1186 C1184 1.363 . S
C1186 C1187 1.370 . S
C1186 C1190 1.524 . S
C1187 C1179 1.503 . S
C1187 C1186 1.370 . S
C1187 C1188 1.403 . S
C1188 C1187 1.403 . S
C1188 C1189 1.404 . S
C1188 C1191 1.539 . S
C1189 C1185 1.408 . S
C1189 C1188 1.404 . S
C1189 H1201 0.930 . S
C1190 C1186 1.524 . S
C1190 H1202 0.956 . S
C1190 H1203 0.961 . S
C1190 H1204 0.961 . S
C1191 C1188 1.539 . S
C1191 H1205 0.958 . S
C1191 H1206 0.961 . S
C1191 H1207 0.960 . S
H1192 C1176 0.931 . S
H1193 C1181 0.929 . S
H1194 C1182 0.960 . S
H1195 C1182 0.962 . S
H1196 C1182 0.960 . S
H1197 C1183 0.961 . S
H1198 C1183 0.961 . S
H1199 C1183 0.961 . S
H1200 C1184 0.931 . S
H1201 C1189 0.930 . S
H1202 C1190 0.956 . S
H1203 C1190 0.961 . S
H1204 C1190 0.961 . S
H1205 C1191 0.958 . S
H1206 C1191 0.961 . S
H1207 C1191 0.960 . S
C1208 C1209 1.391 . S
C1208 C1210 1.394 . S
C1208 H1224 0.931 . S
C1209 C1208 1.391 . S
C1209 C1213 1.376 . S
C1210 C1208 1.394 . S
C1210 C1211 1.369 . S
C1210 C1214 1.531 . S
C1211 C1210 1.369 . S
C1211 C1212 1.410 . S
C1211 C1219 1.503 . S
C1212 C1211 1.410 . S
C1212 C1213 1.392 . S
C1212 C1215 1.511 . S
C1213 C1209 1.376 . S
C1213 C1212 1.392 . S
C1213 H1225 0.929 . S
C1214 C1210 1.531 . S
C1214 H1226 0.960 . S
C1214 H1227 0.962 . S
C1214 H1228 0.960 . S
C1215 C1212 1.511 . S
C1215 H1229 0.961 . S
C1215 H1230 0.961 . S
C1215 H1231 0.961 . S
C1216 C1217 1.370 . S
C1216 C1218 1.363 . S
C1216 H1232 0.931 . S
C1217 C1216 1.370 . S
C1217 C1221 1.408 . S
C1218 C1216 1.363 . S
C1218 C1219 1.370 . S
C1218 C1222 1.524 . S
C1219 C1211 1.503 . S
C1219 C1218 1.370 . S
C1219 C1220 1.403 . S
C1220 C1219 1.403 . S
C1220 C1221 1.404 . S
C1220 C1223 1.539 . S
C1221 C1217 1.408 . S
C1221 C1220 1.404 . S
C1221 H1233 0.930 . S
C1222 C1218 1.524 . S
C1222 H1234 0.956 . S
C1222 H1235 0.961 . S
C1222 H1236 0.961 . S
C1223 C1220 1.539 . S
C1223 H1237 0.958 . S
C1223 H1238 0.961 . S
C1223 H1239 0.960 . S
H1224 C1208 0.931 . S
H1225 C1213 0.929 . S
H1226 C1214 0.960 . S
H1227 C1214 0.962 . S
H1228 C1214 0.960 . S
H1229 C1215 0.961 . S
H1230 C1215 0.961 . S
H1231 C1215 0.961 . S
H1232 C1216 0.931 . S
H1233 C1221 0.930 . S
H1234 C1222 0.956 . S
H1235 C1222 0.961 . S
H1236 C1222 0.961 . S
H1237 C1223 0.958 . S
H1238 C1223 0.961 . S
H1239 C1223 0.960 . S
C1240 C1241 1.391 . S
C1240 C1242 1.394 . S
C1240 H1256 0.931 . S
C1241 C1240 1.391 . S
C1241 C1245 1.376 . S
C1242 C1240 1.394 . S
C1242 C1243 1.369 . S
C1242 C1246 1.531 . S
C1243 C1242 1.369 . S
C1243 C1244 1.410 . S
C1243 C1251 1.503 . S
C1244 C1243 1.410 . S
C1244 C1245 1.392 . S
C1244 C1247 1.511 . S
C1245 C1241 1.376 . S
C1245 C1244 1.392 . S
C1245 H1257 0.929 . S
C1246 C1242 1.531 . S
C1246 H1258 0.960 . S
C1246 H1259 0.962 . S
C1246 H1260 0.960 . S
C1247 C1244 1.511 . S
C1247 H1261 0.961 . S
C1247 H1262 0.961 . S
C1247 H1263 0.961 . S
C1248 C1249 1.370 . S
C1248 C1250 1.363 . S
C1248 H1264 0.931 . S
C1249 C1248 1.370 . S
C1249 C1253 1.408 . S
C1250 C1248 1.363 . S
C1250 C1251 1.370 . S
C1250 C1254 1.524 . S
C1251 C1243 1.503 . S
C1251 C1250 1.370 . S
C1251 C1252 1.403 . S
C1252 C1251 1.403 . S
C1252 C1253 1.404 . S
C1252 C1255 1.539 . S
C1253 C1249 1.408 . S
C1253 C1252 1.404 . S
C1253 H1265 0.930 . S
C1254 C1250 1.524 . S
C1254 H1266 0.956 . S
C1254 H1267 0.961 . S
C1254 H1268 0.961 . S
C1255 C1252 1.539 . S
C1255 H1269 0.958 . S
C1255 H1270 0.961 . S
C1255 H1271 0.960 . S
H1256 C1240 0.931 . S
H1257 C1245 0.929 . S
H1258 C1246 0.960 . S
H1259 C1246 0.962 . S
H1260 C1246 0.960 . S
H1261 C1247 0.961 . S
H1262 C1247 0.961 . S
H1263 C1247 0.961 . S
H1264 C1248 0.931 . S
H1265 C1253 0.930 . S
H1266 C1254 0.956 . S
H1267 C1254 0.961 . S
H1268 C1254 0.961 . S
H1269 C1255 0.958 . S
H1270 C1255 0.961 . S
H1271 C1255 0.960 . S
C1272 C1273 1.391 . S
C1272 C1274 1.394 . S
C1272 H1288 0.931 . S
C1273 C1272 1.391 . S
C1273 C1277 1.376 . S
C1274 C1272 1.394 . S
C1274 C1275 1.369 . S
C1274 C1278 1.531 . S
C1275 C1274 1.369 . S
C1275 C1276 1.410 . S
C1275 C1283 1.503 . S
C1276 C1275 1.410 . S
C1276 C1277 1.392 . S
C1276 C1279 1.511 . S
C1277 C1273 1.376 . S
C1277 C1276 1.392 . S
C1277 H1289 0.929 . S
C1278 C1274 1.531 . S
C1278 H1290 0.960 . S
C1278 H1291 0.962 . S
C1278 H1292 0.960 . S
C1279 C1276 1.511 . S
C1279 H1293 0.961 . S
C1279 H1294 0.961 . S
C1279 H1295 0.961 . S
C1280 C1281 1.370 . S
C1280 C1282 1.363 . S
C1280 H1296 0.931 . S
C1281 C1280 1.370 . S
C1281 C1285 1.408 . S
C1282 C1280 1.363 . S
C1282 C1283 1.370 . S
C1282 C1286 1.524 . S
C1283 C1275 1.503 . S
C1283 C1282 1.370 . S
C1283 C1284 1.403 . S
C1284 C1283 1.403 . S
C1284 C1285 1.404 . S
C1284 C1287 1.539 . S
C1285 C1281 1.408 . S
C1285 C1284 1.404 . S
C1285 H1297 0.930 . S
C1286 C1282 1.524 . S
C1286 H1298 0.956 . S
C1286 H1299 0.961 . S
C1286 H1300 0.961 . S
C1287 C1284 1.539 . S
C1287 H1301 0.958 . S
C1287 H1302 0.961 . S
C1287 H1303 0.960 . S
H1288 C1272 0.931 . S
H1289 C1277 0.929 . S
H1290 C1278 0.960 . S
H1291 C1278 0.962 . S
H1292 C1278 0.960 . S
H1293 C1279 0.961 . S
H1294 C1279 0.961 . S
H1295 C1279 0.961 . S
H1296 C1280 0.931 . S
H1297 C1285 0.930 . S
H1298 C1286 0.956 . S
H1299 C1286 0.961 . S
H1300 C1286 0.961 . S
H1301 C1287 0.958 . S
H1302 C1287 0.961 . S
H1303 C1287 0.960 . S
C1304 C1305 1.391 . S
C1304 C1306 1.394 . S
C1304 H1320 0.931 . S
C1305 C1304 1.391 . S
C1305 C1309 1.376 . S
C1306 C1304 1.394 . S
C1306 C1307 1.369 . S
C1306 C1310 1.531 . S
C1307 C1306 1.369 . S
C1307 C1308 1.410 . S
C1307 C1315 1.503 . S
C1308 C1307 1.410 . S
C1308 C1309 1.392 . S
C1308 C1311 1.511 . S
C1309 C1305 1.376 . S
C1309 C1308 1.392 . S
C1309 H1321 0.929 . S
C1310 C1306 1.531 . S
C1310 H1322 0.960 . S
C1310 H1323 0.962 . S
C1310 H1324 0.960 . S
C1311 C1308 1.511 . S
C1311 H1325 0.961 . S
C1311 H1326 0.961 . S
C1311 H1327 0.961 . S
C1312 C1313 1.370 . S
C1312 C1314 1.363 . S
C1312 H1328 0.931 . S
C1313 C1312 1.370 . S
C1313 C1317 1.408 . S
C1314 C1312 1.363 . S
C1314 C1315 1.370 . S
C1314 C1318 1.524 . S
C1315 C1307 1.503 . S
C1315 C1314 1.370 . S
C1315 C1316 1.403 . S
C1316 C1315 1.403 . S
C1316 C1317 1.404 . S
C1316 C1319 1.539 . S
C1317 C1313 1.408 . S
C1317 C1316 1.404 . S
C1317 H1329 0.930 . S
C1318 C1314 1.524 . S
C1318 H1330 0.956 . S
C1318 H1331 0.961 . S
C1318 H1332 0.961 . S
C1319 C1316 1.539 . S
C1319 H1333 0.958 . S
C1319 H1334 0.961 . S
C1319 H1335 0.960 . S
H1320 C1304 0.931 . S
H1321 C1309 0.929 . S
H1322 C1310 0.960 . S
H1323 C1310 0.962 . S
H1324 C1310 0.960 . S
H1325 C1311 0.961 . S
H1326 C1311 0.961 . S
H1327 C1311 0.961 . S
H1328 C1312 0.931 . S
H1329 C1317 0.930 . S
H1330 C1318 0.956 . S
H1331 C1318 0.961 . S
H1332 C1318 0.961 . S
H1333 C1319 0.958 . S
H1334 C1319 0.961 . S
H1335 C1319 0.960 . S
C1336 C1337 1.391 . S
C1336 C1338 1.394 . S
C1336 H1352 0.931 . S
C1337 C1336 1.391 . S
C1337 C1341 1.376 . S
C1338 C1336 1.394 . S
C1338 C1339 1.369 . S
C1338 C1342 1.531 . S
C1339 C1338 1.369 . S
C1339 C1340 1.410 . S
C1339 C1347 1.503 . S
C1340 C1339 1.410 . S
C1340 C1341 1.392 . S
C1340 C1343 1.511 . S
C1341 C1337 1.376 . S
C1341 C1340 1.392 . S
C1341 H1353 0.929 . S
C1342 C1338 1.531 . S
C1342 H1354 0.960 . S
C1342 H1355 0.962 . S
C1342 H1356 0.960 . S
C1343 C1340 1.511 . S
C1343 H1357 0.961 . S
C1343 H1358 0.961 . S
C1343 H1359 0.961 . S
C1344 C1345 1.370 . S
C1344 C1346 1.363 . S
C1344 H1360 0.931 . S
C1345 C1344 1.370 . S
C1345 C1349 1.408 . S
C1346 C1344 1.363 . S
C1346 C1347 1.370 . S
C1346 C1350 1.524 . S
C1347 C1339 1.503 . S
C1347 C1346 1.370 . S
C1347 C1348 1.403 . S
C1348 C1347 1.403 . S
C1348 C1349 1.404 . S
C1348 C1351 1.539 . S
C1349 C1345 1.408 . S
C1349 C1348 1.404 . S
C1349 H1361 0.930 . S
C1350 C1346 1.524 . S
C1350 H1362 0.956 . S
C1350 H1363 0.961 . S
C1350 H1364 0.961 . S
C1351 C1348 1.539 . S
C1351 H1365 0.958 . S
C1351 H1366 0.961 . S
C1351 H1367 0.960 . S
H1352 C1336 0.931 . S
H1353 C1341 0.929 . S
H1354 C1342 0.960 . S
H1355 C1342 0.962 . S
H1356 C1342 0.960 . S
H1357 C1343 0.961 . S
H1358 C1343 0.961 . S
H1359 C1343 0.961 . S
H1360 C1344 0.931 . S
H1361 C1349 0.930 . S
H1362 C1350 0.956 . S
H1363 C1350 0.961 . S
H1364 C1350 0.961 . S
H1365 C1351 0.958 . S
H1366 C1351 0.961 . S
H1367 C1351 0.960 . S
C1368 C1369 1.391 . S
C1368 C1370 1.394 . S
C1368 H1384 0.931 . S
C1369 C1368 1.391 . S
C1369 C1373 1.376 . S
C1370 C1368 1.394 . S
C1370 C1371 1.369 . S
C1370 C1374 1.531 . S
C1371 C1370 1.369 . S
C1371 C1372 1.410 . S
C1371 C1379 1.503 . S
C1372 C1371 1.410 . S
C1372 C1373 1.392 . S
C1372 C1375 1.511 . S
C1373 C1369 1.376 . S
C1373 C1372 1.392 . S
C1373 H1385 0.929 . S
C1374 C1370 1.531 . S
C1374 H1386 0.960 . S
C1374 H1387 0.962 . S
C1374 H1388 0.960 . S
C1375 C1372 1.511 . S
C1375 H1389 0.961 . S
C1375 H1390 0.961 . S
C1375 H1391 0.961 . S
C1376 C1377 1.370 . S
C1376 C1378 1.363 . S
C1376 H1392 0.931 . S
C1377 C1376 1.370 . S
C1377 C1381 1.408 . S
C1378 C1376 1.363 . S
C1378 C1379 1.370 . S
C1378 C1382 1.524 . S
C1379 C1371 1.503 . S
C1379 C1378 1.370 . S
C1379 C1380 1.403 . S
C1380 C1379 1.403 . S
C1380 C1381 1.404 . S
C1380 C1383 1.539 . S
C1381 C1377 1.408 . S
C1381 C1380 1.404 . S
C1381 H1393 0.930 . S
C1382 C1378 1.524 . S
C1382 H1394 0.956 . S
C1382 H1395 0.961 . S
C1382 H1396 0.961 . S
C1383 C1380 1.539 . S
C1383 H1397 0.958 . S
C1383 H1398 0.961 . S
C1383 H1399 0.960 . S
H1384 C1368 0.931 . S
H1385 C1373 0.929 . S
H1386 C1374 0.960 . S
H1387 C1374 0.962 . S
H1388 C1374 0.960 . S
H1389 C1375 0.961 . S
H1390 C1375 0.961 . S
H1391 C1375 0.961 . S
H1392 C1376 0.931 . S
H1393 C1381 0.930 . S
H1394 C1382 0.956 . S
H1395 C1382 0.961 . S
H1396 C1382 0.961 . S
H1397 C1383 0.958 . S
H1398 C1383 0.961 . S
H1399 C1383 0.960 . S
C1400 C1401 1.391 . S
C1400 C1402 1.394 . S
C1400 H1416 0.931 . S
C1401 C1400 1.391 . S
C1401 C1405 1.376 . S
C1402 C1400 1.394 . S
C1402 C1403 1.369 . S
C1402 C1406 1.531 . S
C1403 C1402 1.369 . S
C1403 C1404 1.410 . S
C1403 C1411 1.503 . S
C1404 C1403 1.410 . S
C1404 C1405 1.392 . S
C1404 C1407 1.511 . S
C1405 C1401 1.376 . S
C1405 C1404 1.392 . S
C1405 H1417 0.929 . S
C1406 C1402 1.531 . S
C1406 H1418 0.960 . S
C1406 H1419 0.962 . S
C1406 H1420 0.960 . S
C1407 C1404 1.511 . S
C1407 H1421 0.961 . S
C1407 H1422 0.961 . S
C1407 H1423 0.961 . S
C1408 C1409 1.370 . S
C1408 C1410 1.363 . S
C1408 H1424 0.931 . S
C1409 C1408 1.370 . S
C1409 C1413 1.408 . S
C1410 C1408 1.363 . S
C1410 C1411 1.370 . S
C1410 C1414 1.524 . S
C1411 C1403 1.503 . S
C1411 C1410 1.370 . S
C1411 C1412 1.403 . S
C1412 C1411 1.403 . S
C1412 C1413 1.404 . S
C1412 C1415 1.539 . S
C1413 C1409 1.408 . S
C1413 C1412 1.404 . S
C1413 H1425 0.930 . S
C1414 C1410 1.524 . S
C1414 H1426 0.956 . S
C1414 H1427 0.961 . S
C1414 H1428 0.961 . S
C1415 C1412 1.539 . S
C1415 H1429 0.958 . S
C1415 H1430 0.961 . S
C1415 H1431 0.960 . S
H1416 C1400 0.931 . S
H1417 C1405 0.929 . S
H1418 C1406 0.960 . S
H1419 C1406 0.962 . S
H1420 C1406 0.960 . S
H1421 C1407 0.961 . S
H1422 C1407 0.961 . S
H1423 C1407 0.961 . S
H1424 C1408 0.931 . S
H1425 C1413 0.930 . S
H1426 C1414 0.956 . S
H1427 C1414 0.961 . S
H1428 C1414 0.961 . S
H1429 C1415 0.958 . S
H1430 C1415 0.961 . S
H1431 C1415 0.960 . S
C1432 C1433 1.391 . S
C1432 C1434 1.394 . S
C1432 H1448 0.931 . S
C1433 C1432 1.391 . S
C1433 C1437 1.376 . S
C1434 C1432 1.394 . S
C1434 C1435 1.369 . S
C1434 C1438 1.531 . S
C1435 C1434 1.369 . S
C1435 C1436 1.410 . S
C1435 C1443 1.503 . S
C1436 C1435 1.410 . S
C1436 C1437 1.392 . S
C1436 C1439 1.511 . S
C1437 C1433 1.376 . S
C1437 C1436 1.392 . S
C1437 H1449 0.929 . S
C1438 C1434 1.531 . S
C1438 H1450 0.960 . S
C1438 H1451 0.962 . S
C1438 H1452 0.960 . S
C1439 C1436 1.511 . S
C1439 H1453 0.961 . S
C1439 H1454 0.961 . S
C1439 H1455 0.961 . S
C1440 C1441 1.370 . S
C1440 C1442 1.363 . S
C1440 H1456 0.931 . S
C1441 C1440 1.370 . S
C1441 C1445 1.408 . S
C1442 C1440 1.363 . S
C1442 C1443 1.370 . S
C1442 C1446 1.524 . S
C1443 C1435 1.503 . S
C1443 C1442 1.370 . S
C1443 C1444 1.403 . S
C1444 C1443 1.403 . S
C1444 C1445 1.404 . S
C1444 C1447 1.539 . S
C1445 C1441 1.408 . S
C1445 C1444 1.404 . S
C1445 H1457 0.930 . S
C1446 C1442 1.524 . S
C1446 H1458 0.956 . S
C1446 H1459 0.961 . S
C1446 H1460 0.961 . S
C1447 C1444 1.539 . S
C1447 H1461 0.958 . S
C1447 H1462 0.961 . S
C1447 H1463 0.960 . S
H1448 C1432 0.931 . S
H1449 C1437 0.929 . S
H1450 C1438 0.960 . S
H1451 C1438 0.962 . S
H1452 C1438 0.960 . S
H1453 C1439 0.961 . S
H1454 C1439 0.961 . S
H1455 C1439 0.961 . S
H1456 C1440 0.931 . S
H1457 C1445 0.930 . S
H1458 C1446 0.956 . S
H1459 C1446 0.961 . S
H1460 C1446 0.961 . S
H1461 C1447 0.958 . S
H1462 C1447 0.961 . S
H1463 C1447 0.960 . S
C1464 C1465 1.391 . S
C1464 C1466 1.394 . S
C1464 H1480 0.931 . S
C1465 C1464 1.391 . S
C1465 C1469 1.376 . S
C1466 C1464 1.394 . S
C1466 C1467 1.369 . S
C1466 C1470 1.531 . S
C1467 C1466 1.369 . S
C1467 C1468 1.410 . S
C1467 C1475 1.503 . S
C1468 C1467 1.410 . S
C1468 C1469 1.392 . S
C1468 C1471 1.511 . S
C1469 C1465 1.376 . S
C1469 C1468 1.392 . S
C1469 H1481 0.929 . S
C1470 C1466 1.531 . S
C1470 H1482 0.960 . S
C1470 H1483 0.962 . S
C1470 H1484 0.960 . S
C1471 C1468 1.511 . S
C1471 H1485 0.961 . S
C1471 H1486 0.961 . S
C1471 H1487 0.961 . S
C1472 C1473 1.370 . S
C1472 C1474 1.363 . S
C1472 H1488 0.931 . S
C1473 C1472 1.370 . S
C1473 C1477 1.408 . S
C1474 C1472 1.363 . S
C1474 C1475 1.370 . S
C1474 C1478 1.524 . S
C1475 C1467 1.503 . S
C1475 C1474 1.370 . S
C1475 C1476 1.403 . S
C1476 C1475 1.403 . S
C1476 C1477 1.404 . S
C1476 C1479 1.539 . S
C1477 C1473 1.408 . S
C1477 C1476 1.404 . S
C1477 H1489 0.930 . S
C1478 C1474 1.524 . S
C1478 H1490 0.956 . S
C1478 H1491 0.961 . S
C1478 H1492 0.961 . S
C1479 C1476 1.539 . S
C1479 H1493 0.958 . S
C1479 H1494 0.961 . S
C1479 H1495 0.960 . S
H1480 C1464 0.931 . S
H1481 C1469 0.929 . S
H1482 C1470 0.960 . S
H1483 C1470 0.962 . S
H1484 C1470 0.960 . S
H1485 C1471 0.961 . S
H1486 C1471 0.961 . S
H1487 C1471 0.961 . S
H1488 C1472 0.931 . S
H1489 C1477 0.930 . S
H1490 C1478 0.956 . S
H1491 C1478 0.961 . S
H1492 C1478 0.961 . S
H1493 C1479 0.958 . S
H1494 C1479 0.961 . S
H1495 C1479 0.960 . S
C1496 C1497 1.391 . S
C1496 C1498 1.394 . S
C1496 H1512 0.931 . S
C1497 C1496 1.391 . S
C1497 C1501 1.376 . S
C1498 C1496 1.394 . S
C1498 C1499 1.369 . S
C1498 C1502 1.531 . S
C1499 C1498 1.369 . S
C1499 C1500 1.410 . S
C1499 C1507 1.503 . S
C1500 C1499 1.410 . S
C1500 C1501 1.392 . S
C1500 C1503 1.511 . S
C1501 C1497 1.376 . S
C1501 C1500 1.392 . S
C1501 H1513 0.929 . S
C1502 C1498 1.531 . S
C1502 H1514 0.960 . S
C1502 H1515 0.962 . S
C1502 H1516 0.960 . S
C1503 C1500 1.511 . S
C1503 H1517 0.961 . S
C1503 H1518 0.961 . S
C1503 H1519 0.961 . S
C1504 C1505 1.370 . S
C1504 C1506 1.363 . S
C1504 H1520 0.931 . S
C1505 C1504 1.370 . S
C1505 C1509 1.408 . S
C1506 C1504 1.363 . S
C1506 C1507 1.370 . S
C1506 C1510 1.524 . S
C1507 C1499 1.503 . S
C1507 C1506 1.370 . S
C1507 C1508 1.403 . S
C1508 C1507 1.403 . S
C1508 C1509 1.404 . S
C1508 C1511 1.539 . S
C1509 C1505 1.408 . S
C1509 C1508 1.404 . S
C1509 H1521 0.930 . S
C1510 C1506 1.524 . S
C1510 H1522 0.956 . S
C1510 H1523 0.961 . S
C1510 H1524 0.961 . S
C1511 C1508 1.539 . S
C1511 H1525 0.958 . S
C1511 H1526 0.961 . S
C1511 H1527 0.960 . S
H1512 C1496 0.931 . S
H1513 C1501 0.929 . S
H1514 C1502 0.960 . S
H1515 C1502 0.962 . S
H1516 C1502 0.960 . S
H1517 C1503 0.961 . S
H1518 C1503 0.961 . S
H1519 C1503 0.961 . S
H1520 C1504 0.931 . S
H1521 C1509 0.930 . S
H1522 C1510 0.956 . S
H1523 C1510 0.961 . S
H1524 C1510 0.961 . S
H1525 C1511 0.958 . S
H1526 C1511 0.961 . S
H1527 C1511 0.960 . S
C1528 C1529 1.391 . S
C1528 C1530 1.394 . S
C1528 H1544 0.931 . S
C1529 C1528 1.391 . S
C1529 C1533 1.376 . S
C1530 C1528 1.394 . S
C1530 C1531 1.369 . S
C1530 C1534 1.531 . S
C1531 C1530 1.369 . S
C1531 C1532 1.410 . S
C1531 C1539 1.503 . S
C1532 C1531 1.410 . S
C1532 C1533 1.392 . S
C1532 C1535 1.511 . S
C1533 C1529 1.376 . S
C1533 C1532 1.392 . S
C1533 H1545 0.929 . S
C1534 C1530 1.531 . S
C1534 H1546 0.960 . S
C1534 H1547 0.962 . S
C1534 H1548 0.960 . S
C1535 C1532 1.511 . S
C1535 H1549 0.961 . S
C1535 H1550 0.961 . S
C1535 H1551 0.961 . S
C1536 C1537 1.370 . S
C1536 C1538 1.363 . S
C1536 H1552 0.931 . S
C1537 C1536 1.370 . S
C1537 C1541 1.408 . S
C1538 C1536 1.363 . S
C1538 C1539 1.370 . S
C1538 C1542 1.524 . S
C1539 C1531 1.503 . S
C1539 C1538 1.370 . S
C1539 C1540 1.403 . S
C1540 C1539 1.403 . S
C1540 C1541 1.404 . S
C1540 C1543 1.539 . S
C1541 C1537 1.408 . S
C1541 C1540 1.404 . S
C1541 H1553 0.930 . S
C1542 C1538 1.524 . S
C1542 H1554 0.956 . S
C1542 H1555 0.961 . S
C1542 H1556 0.961 . S
C1543 C1540 1.539 . S
C1543 H1557 0.958 . S
C1543 H1558 0.961 . S
C1543 H1559 0.960 . S
H1544 C1528 0.931 . S
H1545 C1533 0.929 . S
H1546 C1534 0.960 . S
H1547 C1534 0.962 . S
H1548 C1534 0.960 . S
H1549 C1535 0.961 . S
H1550 C1535 0.961 . S
H1551 C1535 0.961 . S
H1552 C1536 0.931 . S
H1553 C1541 0.930 . S
H1554 C1542 0.956 . S
H1555 C1542 0.961 . S
H1556 C1542 0.961 . S
H1557 C1543 0.958 . S
H1558 C1543 0.961 . S
H1559 C1543 0.960 . S
C1560 C1561 1.391 . S
C1560 C1562 1.394 . S
C1560 H1576 0.931 . S
C1561 C1560 1.391 . S
C1561 C1565 1.376 . S
C1562 C1560 1.394 . S
C1562 C1563 1.369 . S
C1562 C1566 1.531 . S
C1563 C1562 1.369 . S
C1563 C1564 1.410 . S
C1563 C1571 1.503 1_545 S
C1564 C1563 1.410 . S
C1564 C1565 1.392 . S
C1564 C1567 1.511 1_545 S
C1565 C1561 1.376 . S
C1565 C1564 1.392 . S
C1565 H1577 0.929 . S
C1566 C1562 1.531 . S
C1566 H1578 0.960 . S
C1566 H1579 0.962 . S
C1566 H1580 0.960 . S
C1567 C1564 1.511 1_565 S
C1567 H1581 0.961 . S
C1567 H1582 0.961 . S
C1567 H1583 0.961 . S
C1568 C1569 1.370 . S
C1568 C1570 1.363 . S
C1568 H1584 0.931 . S
C1569 C1568 1.370 . S
C1569 C1573 1.408 . S
C1570 C1568 1.363 . S
C1570 C1571 1.370 . S
C1570 C1574 1.524 . S
C1571 C1563 1.503 1_565 S
C1571 C1570 1.370 . S
C1571 C1572 1.403 . S
C1572 C1571 1.403 . S
C1572 C1573 1.404 . S
C1572 C1575 1.539 . S
C1573 C1569 1.408 . S
C1573 C1572 1.404 . S
C1573 H1585 0.930 . S
C1574 C1570 1.524 . S
C1574 H1586 0.956 1_565 S
C1574 H1587 0.961 . S
C1574 H1588 0.961 . S
C1575 C1572 1.539 . S
C1575 H1589 0.958 . S
C1575 H1590 0.961 . S
C1575 H1591 0.960 . S
H1576 C1560 0.931 . S
H1577 C1565 0.929 . S
H1578 C1566 0.960 . S
H1579 C1566 0.962 . S
H1580 C1566 0.960 . S
H1581 C1567 0.961 . S
H1582 C1567 0.961 . S
H1583 C1567 0.961 . S
H1584 C1568 0.931 . S
H1585 C1573 0.930 . S
H1586 C1574 0.956 1_545 S
H1587 C1574 0.961 . S
H1588 C1574 0.961 . S
H1589 C1575 0.958 . S
H1590 C1575 0.961 . S
H1591 C1575 0.960 . S
C1592 C1593 1.391 . S
C1592 C1594 1.394 . S
C1592 H1608 0.931 . S
C1593 C1592 1.391 . S
C1593 C1597 1.376 . S
C1594 C1592 1.394 . S
C1594 C1595 1.369 . S
C1594 C1598 1.531 . S
C1595 C1594 1.369 . S
C1595 C1596 1.410 . S
C1595 C1603 1.503 . S
C1596 C1595 1.410 . S
C1596 C1597 1.392 . S
C1596 C1599 1.511 . S
C1597 C1593 1.376 . S
C1597 C1596 1.392 . S
C1597 H1609 0.929 . S
C1598 C1594 1.531 . S
C1598 H1610 0.960 . S
C1598 H1611 0.962 . S
C1598 H1612 0.960 . S
C1599 C1596 1.511 . S
C1599 H1613 0.961 . S
C1599 H1614 0.961 . S
C1599 H1615 0.961 . S
C1600 C1601 1.370 . S
C1600 C1602 1.363 . S
C1600 H1616 0.931 . S
C1601 C1600 1.370 . S
C1601 C1605 1.408 . S
C1602 C1600 1.363 . S
C1602 C1603 1.370 . S
C1602 C1606 1.524 . S
C1603 C1595 1.503 . S
C1603 C1602 1.370 . S
C1603 C1604 1.403 . S
C1604 C1603 1.403 . S
C1604 C1605 1.404 . S
C1604 C1607 1.539 . S
C1605 C1601 1.408 . S
C1605 C1604 1.404 . S
C1605 H1617 0.930 . S
C1606 C1602 1.524 . S
C1606 H1618 0.956 . S
C1606 H1619 0.961 . S
C1606 H1620 0.961 . S
C1607 C1604 1.539 . S
C1607 H1621 0.958 . S
C1607 H1622 0.961 . S
C1607 H1623 0.960 . S
H1608 C1592 0.931 . S
H1609 C1597 0.929 . S
H1610 C1598 0.960 . S
H1611 C1598 0.962 . S
H1612 C1598 0.960 . S
H1613 C1599 0.961 . S
H1614 C1599 0.961 . S
H1615 C1599 0.961 . S
H1616 C1600 0.931 . S
H1617 C1605 0.930 . S
H1618 C1606 0.956 . S
H1619 C1606 0.961 . S
H1620 C1606 0.961 . S
H1621 C1607 0.958 . S
H1622 C1607 0.961 . S
H1623 C1607 0.960 . S
C1624 C1625 1.391 . S
C1624 C1626 1.394 . S
C1624 H1640 0.931 . S
C1625 C1624 1.391 . S
C1625 C1629 1.376 . S
C1626 C1624 1.394 . S
C1626 C1627 1.369 . S
C1626 C1630 1.531 . S
C1627 C1626 1.369 . S
C1627 C1628 1.410 . S
C1627 C1635 1.503 1_455 S
C1628 C1627 1.410 . S
C1628 C1629 1.392 . S
C1628 C1631 1.511 . S
C1629 C1625 1.376 . S
C1629 C1628 1.392 . S
C1629 H1641 0.929 . S
C1630 C1626 1.531 . S
C1630 H1642 0.960 1_455 S
C1630 H1643 0.962 1_455 S
C1630 H1644 0.960 . S
C1631 C1628 1.511 . S
C1631 H1645 0.961 . S
C1631 H1646 0.961 . S
C1631 H1647 0.961 . S
C1632 C1633 1.370 . S
C1632 C1634 1.363 . S
C1632 H1648 0.931 . S
C1633 C1632 1.370 . S
C1633 C1637 1.408 . S
C1634 C1632 1.363 . S
C1634 C1635 1.370 . S
C1634 C1638 1.524 . S
C1635 C1627 1.503 1_655 S
C1635 C1634 1.370 . S
C1635 C1636 1.403 . S
C1636 C1635 1.403 . S
C1636 C1637 1.404 . S
C1636 C1639 1.539 1_655 S
C1637 C1633 1.408 . S
C1637 C1636 1.404 . S
C1637 H1649 0.930 . S
C1638 C1634 1.524 . S
C1638 H1650 0.956 . S
C1638 H1651 0.961 . S
C1638 H1652 0.961 . S
C1639 C1636 1.539 1_455 S
C1639 H1653 0.958 . S
C1639 H1654 0.961 . S
C1639 H1655 0.960 . S
H1640 C1624 0.931 . S
H1641 C1629 0.929 . S
H1642 C1630 0.960 1_655 S
H1643 C1630 0.962 1_655 S
H1644 C1630 0.960 . S
H1645 C1631 0.961 . S
H1646 C1631 0.961 . S
H1647 C1631 0.961 . S
H1648 C1632 0.931 . S
H1649 C1637 0.930 . S
H1650 C1638 0.956 . S
H1651 C1638 0.961 . S
H1652 C1638 0.961 . S
H1653 C1639 0.958 . S
H1654 C1639 0.961 . S
H1655 C1639 0.960 . S
C1656 C1657 1.391 . S
C1656 C1658 1.394 . S
C1656 H1672 0.931 . S
C1657 C1656 1.391 . S
C1657 C1661 1.376 . S
C1658 C1656 1.394 . S
C1658 C1659 1.369 . S
C1658 C1662 1.531 1_565 S
C1659 C1658 1.369 . S
C1659 C1660 1.410 . S
C1659 C1667 1.503 1_565 S
C1660 C1659 1.410 . S
C1660 C1661 1.392 . S
C1660 C1663 1.511 . S
C1661 C1657 1.376 . S
C1661 C1660 1.392 . S
C1661 H1673 0.929 . S
C1662 C1658 1.531 1_545 S
C1662 H1674 0.960 . S
C1662 H1675 0.962 . S
C1662 H1676 0.960 . S
C1663 C1660 1.511 . S
C1663 H1677 0.961 . S
C1663 H1678 0.961 . S
C1663 H1679 0.961 . S
C1664 C1665 1.370 . S
C1664 C1666 1.363 . S
C1664 H1680 0.931 . S
C1665 C1664 1.370 . S
C1665 C1669 1.408 . S
C1666 C1664 1.363 . S
C1666 C1667 1.370 . S
C1666 C1670 1.524 1_545 S
C1667 C1659 1.503 1_545 S
C1667 C1666 1.370 . S
C1667 C1668 1.403 . S
C1668 C1667 1.403 . S
C1668 C1669 1.404 . S
C1668 C1671 1.539 . S
C1669 C1665 1.408 . S
C1669 C1668 1.404 . S
C1669 H1681 0.930 . S
C1670 C1666 1.524 1_565 S
C1670 H1682 0.956 . S
C1670 H1683 0.961 . S
C1670 H1684 0.961 . S
C1671 C1668 1.539 . S
C1671 H1685 0.958 . S
C1671 H1686 0.961 . S
C1671 H1687 0.960 . S
H1672 C1656 0.931 . S
H1673 C1661 0.929 . S
H1674 C1662 0.960 . S
H1675 C1662 0.962 . S
H1676 C1662 0.960 . S
H1677 C1663 0.961 . S
H1678 C1663 0.961 . S
H1679 C1663 0.961 . S
H1680 C1664 0.931 . S
H1681 C1669 0.930 . S
H1682 C1670 0.956 . S
H1683 C1670 0.961 . S
H1684 C1670 0.961 . S
H1685 C1671 0.958 . S
H1686 C1671 0.961 . S
H1687 C1671 0.960 . S
C1688 C1689 1.391 . S
C1688 C1690 1.394 . S
C1688 H1704 0.931 . S
C1689 C1688 1.391 . S
C1689 C1693 1.376 . S
C1690 C1688 1.394 . S
C1690 C1691 1.369 . S
C1690 C1694 1.531 . S
C1691 C1690 1.369 . S
C1691 C1692 1.410 . S
C1691 C1699 1.503 . S
C1692 C1691 1.410 . S
C1692 C1693 1.392 . S
C1692 C1695 1.511 . S
C1693 C1689 1.376 . S
C1693 C1692 1.392 . S
C1693 H1705 0.929 . S
C1694 C1690 1.531 . S
C1694 H1706 0.960 . S
C1694 H1707 0.962 . S
C1694 H1708 0.960 . S
C1695 C1692 1.511 . S
C1695 H1709 0.961 . S
C1695 H1710 0.961 . S
C1695 H1711 0.961 . S
C1696 C1697 1.370 . S
C1696 C1698 1.363 . S
C1696 H1712 0.931 . S
C1697 C1696 1.370 . S
C1697 C1701 1.408 . S
C1698 C1696 1.363 . S
C1698 C1699 1.370 . S
C1698 C1702 1.524 . S
C1699 C1691 1.503 . S
C1699 C1698 1.370 . S
C1699 C1700 1.403 . S
C1700 C1699 1.403 . S
C1700 C1701 1.404 . S
C1700 C1703 1.539 . S
C1701 C1697 1.408 . S
C1701 C1700 1.404 . S
C1701 H1713 0.930 . S
C1702 C1698 1.524 . S
C1702 H1714 0.956 . S
C1702 H1715 0.961 . S
C1702 H1716 0.961 . S
C1703 C1700 1.539 . S
C1703 H1717 0.958 . S
C1703 H1718 0.961 . S
C1703 H1719 0.960 . S
H1704 C1688 0.931 . S
H1705 C1693 0.929 . S
H1706 C1694 0.960 . S
H1707 C1694 0.962 . S
H1708 C1694 0.960 . S
H1709 C1695 0.961 . S
H1710 C1695 0.961 . S
H1711 C1695 0.961 . S
H1712 C1696 0.931 . S
H1713 C1701 0.930 . S
H1714 C1702 0.956 . S
H1715 C1702 0.961 . S
H1716 C1702 0.961 . S
H1717 C1703 0.958 . S
H1718 C1703 0.961 . S
H1719 C1703 0.960 . S
C1720 C1721 1.391 . S
C1720 C1722 1.394 . S
C1720 H1736 0.931 . S
C1721 C1720 1.391 . S
C1721 C1725 1.376 . S
C1722 C1720 1.394 . S
C1722 C1723 1.369 . S
C1722 C1726 1.531 . S
C1723 C1722 1.369 . S
C1723 C1724 1.410 . S
C1723 C1731 1.503 1_655 S
C1724 C1723 1.410 . S
C1724 C1725 1.392 . S
C1724 C1727 1.511 1_655 S
C1725 C1721 1.376 . S
C1725 C1724 1.392 . S
C1725 H1737 0.929 . S
C1726 C1722 1.531 . S
C1726 H1738 0.960 . S
C1726 H1739 0.962 . S
C1726 H1740 0.960 . S
C1727 C1724 1.511 1_455 S
C1727 H1741 0.961 . S
C1727 H1742 0.961 . S
C1727 H1743 0.961 . S
C1728 C1729 1.370 . S
C1728 C1730 1.363 . S
C1728 H1744 0.931 . S
C1729 C1728 1.370 . S
C1729 C1733 1.408 . S
C1730 C1728 1.363 . S
C1730 C1731 1.370 . S
C1730 C1734 1.524 . S
C1731 C1723 1.503 1_455 S
C1731 C1730 1.370 . S
C1731 C1732 1.403 . S
C1732 C1731 1.403 . S
C1732 C1733 1.404 . S
C1732 C1735 1.539 1_455 S
C1733 C1729 1.408 . S
C1733 C1732 1.404 . S
C1733 H1745 0.930 . S
C1734 C1730 1.524 . S
C1734 H1746 0.956 . S
C1734 H1747 0.961 . S
C1734 H1748 0.961 . S
C1735 C1732 1.539 1_655 S
C1735 H1749 0.958 . S
C1735 H1750 0.961 . S
C1735 H1751 0.960 . S
H1736 C1720 0.931 . S
H1737 C1725 0.929 . S
H1738 C1726 0.960 . S
H1739 C1726 0.962 . S
H1740 C1726 0.960 . S
H1741 C1727 0.961 . S
H1742 C1727 0.961 . S
H1743 C1727 0.961 . S
H1744 C1728 0.931 . S
H1745 C1733 0.930 . S
H1746 C1734 0.956 . S
H1747 C1734 0.961 . S
H1748 C1734 0.961 . S
H1749 C1735 0.958 . S
H1750 C1735 0.961 . S
H1751 C1735 0.960 . S
C1752 C1753 1.391 . S
C1752 C1754 1.394 . S
C1752 H1768 0.931 . S
C1753 C1752 1.391 . S
C1753 C1757 1.376 . S
C1754 C1752 1.394 . S
C1754 C1755 1.369 . S
C1754 C1758 1.531 1_565 S
C1755 C1754 1.369 . S
C1755 C1756 1.410 . S
C1755 C1763 1.503 1_565 S
C1756 C1755 1.410 . S
C1756 C1757 1.392 . S
C1756 C1759 1.511 . S
C1757 C1753 1.376 . S
C1757 C1756 1.392 . S
C1757 H1769 0.929 . S
C1758 C1754 1.531 1_545 S
C1758 H1770 0.960 . S
C1758 H1771 0.962 . S
C1758 H1772 0.960 . S
C1759 C1756 1.511 . S
C1759 H1773 0.961 . S
C1759 H1774 0.961 . S
C1759 H1775 0.961 . S
C1760 C1761 1.370 . S
C1760 C1762 1.363 . S
C1760 H1776 0.931 . S
C1761 C1760 1.370 . S
C1761 C1765 1.408 . S
C1762 C1760 1.363 . S
C1762 C1763 1.370 . S
C1762 C1766 1.524 . S
C1763 C1755 1.503 1_545 S
C1763 C1762 1.370 . S
C1763 C1764 1.403 . S
C1764 C1763 1.403 . S
C1764 C1765 1.404 . S
C1764 C1767 1.539 . S
C1765 C1761 1.408 . S
C1765 C1764 1.404 . S
C1765 H1777 0.930 . S
C1766 C1762 1.524 . S
C1766 H1778 0.956 . S
C1766 H1779 0.961 1_545 S
C1766 H1780 0.961 . S
C1767 C1764 1.539 . S
C1767 H1781 0.958 . S
C1767 H1782 0.961 . S
C1767 H1783 0.960 . S
H1768 C1752 0.931 . S
H1769 C1757 0.929 . S
H1770 C1758 0.960 . S
H1771 C1758 0.962 . S
H1772 C1758 0.960 . S
H1773 C1759 0.961 . S
H1774 C1759 0.961 . S
H1775 C1759 0.961 . S
H1776 C1760 0.931 . S
H1777 C1765 0.930 . S
H1778 C1766 0.956 . S
H1779 C1766 0.961 1_565 S
H1780 C1766 0.961 . S
H1781 C1767 0.958 . S
H1782 C1767 0.961 . S
H1783 C1767 0.960 . S
C1784 C1785 1.391 . S
C1784 C1786 1.394 . S
C1784 H1800 0.931 . S
C1785 C1784 1.391 . S
C1785 C1789 1.376 . S
C1786 C1784 1.394 . S
C1786 C1787 1.369 . S
C1786 C1790 1.531 . S
C1787 C1786 1.369 . S
C1787 C1788 1.410 . S
C1787 C1795 1.503 . S
C1788 C1787 1.410 . S
C1788 C1789 1.392 . S
C1788 C1791 1.511 . S
C1789 C1785 1.376 . S
C1789 C1788 1.392 . S
C1789 H1801 0.929 . S
C1790 C1786 1.531 . S
C1790 H1802 0.960 . S
C1790 H1803 0.962 . S
C1790 H1804 0.960 . S
C1791 C1788 1.511 . S
C1791 H1805 0.961 . S
C1791 H1806 0.961 . S
C1791 H1807 0.961 . S
C1792 C1793 1.370 . S
C1792 C1794 1.363 . S
C1792 H1808 0.931 . S
C1793 C1792 1.370 . S
C1793 C1797 1.408 . S
C1794 C1792 1.363 . S
C1794 C1795 1.370 . S
C1794 C1798 1.524 . S
C1795 C1787 1.503 . S
C1795 C1794 1.370 . S
C1795 C1796 1.403 . S
C1796 C1795 1.403 . S
C1796 C1797 1.404 . S
C1796 C1799 1.539 . S
C1797 C1793 1.408 . S
C1797 C1796 1.404 . S
C1797 H1809 0.930 . S
C1798 C1794 1.524 . S
C1798 H1810 0.956 . S
C1798 H1811 0.961 . S
C1798 H1812 0.961 . S
C1799 C1796 1.539 . S
C1799 H1813 0.958 . S
C1799 H1814 0.961 . S
C1799 H1815 0.960 . S
H1800 C1784 0.931 . S
H1801 C1789 0.929 . S
H1802 C1790 0.960 . S
H1803 C1790 0.962 . S
H1804 C1790 0.960 . S
H1805 C1791 0.961 . S
H1806 C1791 0.961 . S
H1807 C1791 0.961 . S
H1808 C1792 0.931 . S
H1809 C1797 0.930 . S
H1810 C1798 0.956 . S
H1811 C1798 0.961 . S
H1812 C1798 0.961 . S
H1813 C1799 0.958 . S
H1814 C1799 0.961 . S
H1815 C1799 0.960 . S
C1816 C1817 1.391 . S
C1816 C1818 1.394 . S
C1816 H1832 0.931 . S
C1817 C1816 1.391 . S
C1817 C1821 1.376 . S
C1818 C1816 1.394 . S
C1818 C1819 1.369 . S
C1818 C1822 1.531 . S
C1819 C1818 1.369 . S
C1819 C1820 1.410 . S
C1819 C1827 1.503 1_455 S
C1820 C1819 1.410 . S
C1820 C1821 1.392 . S
C1820 C1823 1.511 1_455 S
C1821 C1817 1.376 . S
C1821 C1820 1.392 . S
C1821 H1833 0.929 . S
C1822 C1818 1.531 . S
C1822 H1834 0.960 . S
C1822 H1835 0.962 . S
C1822 H1836 0.960 . S
C1823 C1820 1.511 1_655 S
C1823 H1837 0.961 . S
C1823 H1838 0.961 . S
C1823 H1839 0.961 . S
C1824 C1825 1.370 . S
C1824 C1826 1.363 . S
C1824 H1840 0.931 . S
C1825 C1824 1.370 . S
C1825 C1829 1.408 . S
C1826 C1824 1.363 . S
C1826 C1827 1.370 . S
C1826 C1830 1.524 . S
C1827 C1819 1.503 1_655 S
C1827 C1826 1.370 . S
C1827 C1828 1.403 . S
C1828 C1827 1.403 . S
C1828 C1829 1.404 . S
C1828 C1831 1.539 . S
C1829 C1825 1.408 . S
C1829 C1828 1.404 . S
C1829 H1841 0.930 . S
C1830 C1826 1.524 . S
C1830 H1842 0.956 1_655 S
C1830 H1843 0.961 . S
C1830 H1844 0.961 . S
C1831 C1828 1.539 . S
C1831 H1845 0.958 . S
C1831 H1846 0.961 . S
C1831 H1847 0.960 . S
H1832 C1816 0.931 . S
H1833 C1821 0.929 . S
H1834 C1822 0.960 . S
H1835 C1822 0.962 . S
H1836 C1822 0.960 . S
H1837 C1823 0.961 . S
H1838 C1823 0.961 . S
H1839 C1823 0.961 . S
H1840 C1824 0.931 . S
H1841 C1829 0.930 . S
H1842 C1830 0.956 1_455 S
H1843 C1830 0.961 . S
H1844 C1830 0.961 . S
H1845 C1831 0.958 . S
H1846 C1831 0.961 . S
H1847 C1831 0.960 . S
C1848 C1849 1.391 . S
C1848 C1850 1.394 . S
C1848 H1864 0.931 . S
C1849 C1848 1.391 . S
C1849 C1853 1.376 . S
C1850 C1848 1.394 . S
C1850 C1851 1.369 . S
C1850 C1854 1.531 1_545 S
C1851 C1850 1.369 . S
C1851 C1852 1.410 . S
C1851 C1859 1.503 1_545 S
C1852 C1851 1.410 . S
C1852 C1853 1.392 . S
C1852 C1855 1.511 . S
C1853 C1849 1.376 . S
C1853 C1852 1.392 . S
C1853 H1865 0.929 . S
C1854 C1850 1.531 1_565 S
C1854 H1866 0.960 . S
C1854 H1867 0.962 . S
C1854 H1868 0.960 . S
C1855 C1852 1.511 . S
C1855 H1869 0.961 . S
C1855 H1870 0.961 . S
C1855 H1871 0.961 . S
C1856 C1857 1.370 . S
C1856 C1858 1.363 . S
C1856 H1872 0.931 . S
C1857 C1856 1.370 . S
C1857 C1861 1.408 . S
C1858 C1856 1.363 . S
C1858 C1859 1.370 . S
C1858 C1862 1.524 1_565 S
C1859 C1851 1.503 1_565 S
C1859 C1858 1.370 . S
C1859 C1860 1.403 . S
C1860 C1859 1.403 . S
C1860 C1861 1.404 . S
C1860 C1863 1.539 . S
C1861 C1857 1.408 . S
C1861 C1860 1.404 . S
C1861 H1873 0.930 . S
C1862 C1858 1.524 1_545 S
C1862 H1874 0.956 . S
C1862 H1875 0.961 . S
C1862 H1876 0.961 . S
C1863 C1860 1.539 . S
C1863 H1877 0.958 . S
C1863 H1878 0.961 . S
C1863 H1879 0.960 . S
H1864 C1848 0.931 . S
H1865 C1853 0.929 . S
H1866 C1854 0.960 . S
H1867 C1854 0.962 . S
H1868 C1854 0.960 . S
H1869 C1855 0.961 . S
H1870 C1855 0.961 . S
H1871 C1855 0.961 . S
H1872 C1856 0.931 . S
H1873 C1861 0.930 . S
H1874 C1862 0.956 . S
H1875 C1862 0.961 . S
H1876 C1862 0.961 . S
H1877 C1863 0.958 . S
H1878 C1863 0.961 . S
H1879 C1863 0.960 . S
C1880 C1881 1.391 . S
C1880 C1882 1.394 . S
C1880 H1896 0.931 . S
C1881 C1880 1.391 . S
C1881 C1885 1.376 . S
C1882 C1880 1.394 . S
C1882 C1883 1.369 . S
C1882 C1886 1.531 . S
C1883 C1882 1.369 . S
C1883 C1884 1.410 . S
C1883 C1891 1.503 . S
C1884 C1883 1.410 . S
C1884 C1885 1.392 . S
C1884 C1887 1.511 . S
C1885 C1881 1.376 . S
C1885 C1884 1.392 . S
C1885 H1897 0.929 . S
C1886 C1882 1.531 . S
C1886 H1898 0.960 . S
C1886 H1899 0.962 . S
C1886 H1900 0.960 . S
C1887 C1884 1.511 . S
C1887 H1901 0.961 . S
C1887 H1902 0.961 . S
C1887 H1903 0.961 . S
C1888 C1889 1.370 . S
C1888 C1890 1.363 . S
C1888 H1904 0.931 . S
C1889 C1888 1.370 . S
C1889 C1893 1.408 . S
C1890 C1888 1.363 . S
C1890 C1891 1.370 . S
C1890 C1894 1.524 . S
C1891 C1883 1.503 . S
C1891 C1890 1.370 . S
C1891 C1892 1.403 . S
C1892 C1891 1.403 . S
C1892 C1893 1.404 . S
C1892 C1895 1.539 . S
C1893 C1889 1.408 . S
C1893 C1892 1.404 . S
C1893 H1905 0.930 . S
C1894 C1890 1.524 . S
C1894 H1906 0.956 . S
C1894 H1907 0.961 . S
C1894 H1908 0.961 . S
C1895 C1892 1.539 . S
C1895 H1909 0.958 . S
C1895 H1910 0.961 . S
C1895 H1911 0.960 . S
H1896 C1880 0.931 . S
H1897 C1885 0.929 . S
H1898 C1886 0.960 . S
H1899 C1886 0.962 . S
H1900 C1886 0.960 . S
H1901 C1887 0.961 . S
H1902 C1887 0.961 . S
H1903 C1887 0.961 . S
H1904 C1888 0.931 . S
H1905 C1893 0.930 . S
H1906 C1894 0.956 . S
H1907 C1894 0.961 . S
H1908 C1894 0.961 . S
H1909 C1895 0.958 . S
H1910 C1895 0.961 . S
H1911 C1895 0.960 . S
C1912 C1913 1.391 . S
C1912 C1914 1.394 . S
C1912 H1928 0.931 . S
C1913 C1912 1.391 . S
C1913 C1917 1.376 . S
C1914 C1912 1.394 . S
C1914 C1915 1.369 . S
C1914 C1918 1.523 1_455 S
C1915 C1914 1.369 . S
C1915 C1916 1.410 . S
C1915 C1923 1.503 1_455 S
C1916 C1915 1.410 . S
C1916 C1917 1.392 . S
C1916 C1919 1.511 . S
C1917 C1913 1.376 . S
C1917 C1916 1.392 . S
C1917 H1929 0.929 . S
C1918 C1914 1.523 1_655 S
C1918 H1930 0.973 . S
C1918 H1931 0.996 . S
C1918 H1932 0.923 1_655 S
C1919 C1916 1.511 . S
C1919 H1933 0.961 . S
C1919 H1934 0.961 . S
C1919 H1935 0.961 . S
C1920 C1921 1.370 . S
C1920 C1922 1.363 . S
C1920 H1936 0.931 . S
C1921 C1920 1.370 . S
C1921 C1925 1.408 . S
C1922 C1920 1.363 . S
C1922 C1923 1.370 . S
C1922 C1926 1.524 . S
C1923 C1915 1.503 1_655 S
C1923 C1922 1.370 . S
C1923 C1924 1.403 . S
C1924 C1923 1.403 . S
C1924 C1925 1.404 . S
C1924 C1927 1.539 1_655 S
C1925 C1921 1.408 . S
C1925 C1924 1.404 . S
C1925 H1937 0.930 . S
C1926 C1922 1.524 . S
C1926 H1938 0.956 . S
C1926 H1939 0.961 . S
C1926 H1940 0.961 . S
C1927 C1924 1.539 1_455 S
C1927 H1941 0.958 . S
C1927 H1942 0.961 . S
C1927 H1943 0.960 . S
H1928 C1912 0.931 . S
H1929 C1917 0.929 . S
H1930 C1918 0.973 . S
H1931 C1918 0.996 . S
H1932 C1918 0.923 1_455 S
H1933 C1919 0.961 . S
H1934 C1919 0.961 . S
H1935 C1919 0.961 . S
H1936 C1920 0.931 . S
H1937 C1925 0.930 . S
H1938 C1926 0.956 . S
H1939 C1926 0.961 . S
H1940 C1926 0.961 . S
H1941 C1927 0.958 . S
H1942 C1927 0.961 . S
H1943 C1927 0.960 . S
C1944 C1945 1.391 . S
C1944 C1946 1.394 . S
C1944 H1960 0.931 . S
C1945 C1944 1.391 . S
C1945 C1949 1.376 . S
C1946 C1944 1.394 . S
C1946 C1947 1.369 . S
C1946 C1950 1.531 . S
C1947 C1946 1.369 . S
C1947 C1948 1.410 . S
C1947 C1955 1.503 . S
C1948 C1947 1.410 . S
C1948 C1949 1.392 . S
C1948 C1951 1.511 . S
C1949 C1945 1.376 . S
C1949 C1948 1.392 . S
C1949 H1961 0.929 . S
C1950 C1946 1.531 . S
C1950 H1962 0.960 . S
C1950 H1963 0.962 . S
C1950 H1964 0.960 . S
C1951 C1948 1.511 . S
C1951 H1965 0.961 . S
C1951 H1966 0.961 . S
C1951 H1967 0.961 . S
C1952 C1953 1.370 . S
C1952 C1954 1.363 . S
C1952 H1968 0.931 . S
C1953 C1952 1.370 . S
C1953 C1957 1.408 . S
C1954 C1952 1.363 . S
C1954 C1955 1.370 . S
C1954 C1958 1.524 . S
C1955 C1947 1.503 . S
C1955 C1954 1.370 . S
C1955 C1956 1.403 . S
C1956 C1955 1.403 . S
C1956 C1957 1.404 . S
C1956 C1959 1.539 . S
C1957 C1953 1.408 . S
C1957 C1956 1.404 . S
C1957 H1969 0.930 . S
C1958 C1954 1.524 . S
C1958 H1970 0.956 . S
C1958 H1971 0.961 . S
C1958 H1972 0.961 . S
C1959 C1956 1.539 . S
C1959 H1973 0.958 . S
C1959 H1974 0.961 . S
C1959 H1975 0.960 . S
H1960 C1944 0.931 . S
H1961 C1949 0.929 . S
H1962 C1950 0.960 . S
H1963 C1950 0.962 . S
H1964 C1950 0.960 . S
H1965 C1951 0.961 . S
H1966 C1951 0.961 . S
H1967 C1951 0.961 . S
H1968 C1952 0.931 . S
H1969 C1957 0.930 . S
H1970 C1958 0.956 . S
H1971 C1958 0.961 . S
H1972 C1958 0.961 . S
H1973 C1959 0.958 . S
H1974 C1959 0.961 . S
H1975 C1959 0.960 . S
C1976 C1977 1.391 . S
C1976 C1978 1.394 . S
C1976 H1992 0.931 . S
C1977 C1976 1.391 . S
C1977 C1981 1.376 . S
C1978 C1976 1.394 . S
C1978 C1979 1.369 . S
C1978 C1982 1.531 . S
C1979 C1978 1.369 . S
C1979 C1980 1.410 . S
C1979 C1987 1.503 . S
C1980 C1979 1.410 . S
C1980 C1981 1.392 . S
C1980 C1983 1.511 . S
C1981 C1977 1.376 . S
C1981 C1980 1.392 . S
C1981 H1993 0.929 . S
C1982 C1978 1.531 . S
C1982 H1994 0.960 . S
C1982 H1995 0.962 . S
C1982 H1996 0.960 . S
C1983 C1980 1.511 . S
C1983 H1997 0.961 . S
C1983 H1998 0.961 . S
C1983 H1999 0.961 . S
C1984 C1985 1.370 . S
C1984 C1986 1.363 . S
C1984 H2000 0.931 . S
C1985 C1984 1.370 . S
C1985 C1989 1.408 . S
C1986 C1984 1.363 . S
C1986 C1987 1.370 . S
C1986 C1990 1.524 . S
C1987 C1979 1.503 . S
C1987 C1986 1.370 . S
C1987 C1988 1.403 . S
C1988 C1987 1.403 . S
C1988 C1989 1.404 . S
C1988 C1991 1.539 . S
C1989 C1985 1.408 . S
C1989 C1988 1.404 . S
C1989 H2001 0.930 . S
C1990 C1986 1.524 . S
C1990 H2002 0.956 . S
C1990 H2003 0.961 . S
C1990 H2004 0.961 . S
C1991 C1988 1.539 . S
C1991 H2005 0.958 . S
C1991 H2006 0.961 . S
C1991 H2007 0.960 . S
H1992 C1976 0.931 . S
H1993 C1981 0.929 . S
H1994 C1982 0.960 . S
H1995 C1982 0.962 . S
H1996 C1982 0.960 . S
H1997 C1983 0.961 . S
H1998 C1983 0.961 . S
H1999 C1983 0.961 . S
H2000 C1984 0.931 . S
H2001 C1989 0.930 . S
H2002 C1990 0.956 . S
H2003 C1990 0.961 . S
H2004 C1990 0.961 . S
H2005 C1991 0.958 . S
H2006 C1991 0.961 . S
H2007 C1991 0.960 . S
C2008 C2009 1.391 . S
C2008 C2010 1.394 . S
C2008 H2024 0.931 . S
C2009 C2008 1.391 . S
C2009 C2013 1.376 . S
C2010 C2008 1.394 . S
C2010 C2011 1.369 . S
C2010 C2014 1.531 . S
C2011 C2010 1.369 . S
C2011 C2012 1.410 . S
C2011 C2019 1.503 . S
C2012 C2011 1.410 . S
C2012 C2013 1.392 . S
C2012 C2015 1.511 . S
C2013 C2009 1.376 . S
C2013 C2012 1.392 . S
C2013 H2025 0.929 . S
C2014 C2010 1.531 . S
C2014 H2026 0.960 . S
C2014 H2027 0.962 . S
C2014 H2028 0.960 . S
C2015 C2012 1.511 . S
C2015 H2029 0.961 . S
C2015 H2030 0.961 . S
C2015 H2031 0.961 . S
C2016 C2017 1.370 . S
C2016 C2018 1.363 . S
C2016 H2032 0.931 . S
C2017 C2016 1.370 . S
C2017 C2021 1.408 . S
C2018 C2016 1.363 . S
C2018 C2019 1.370 . S
C2018 C2022 1.524 . S
C2019 C2011 1.503 . S
C2019 C2018 1.370 . S
C2019 C2020 1.403 . S
C2020 C2019 1.403 . S
C2020 C2021 1.404 . S
C2020 C2023 1.539 . S
C2021 C2017 1.408 . S
C2021 C2020 1.404 . S
C2021 H2033 0.930 . S
C2022 C2018 1.524 . S
C2022 H2034 0.956 . S
C2022 H2035 0.961 . S
C2022 H2036 0.961 . S
C2023 C2020 1.539 . S
C2023 H2037 0.958 . S
C2023 H2038 0.961 . S
C2023 H2039 0.960 . S
H2024 C2008 0.931 . S
H2025 C2013 0.929 . S
H2026 C2014 0.960 . S
H2027 C2014 0.962 . S
H2028 C2014 0.960 . S
H2029 C2015 0.961 . S
H2030 C2015 0.961 . S
H2031 C2015 0.961 . S
H2032 C2016 0.931 . S
H2033 C2021 0.930 . S
H2034 C2022 0.956 . S
H2035 C2022 0.961 . S
H2036 C2022 0.961 . S
H2037 C2023 0.958 . S
H2038 C2023 0.961 . S
H2039 C2023 0.960 . S
C2040 C2041 1.391 . S
C2040 C2042 1.394 . S
C2040 H2056 0.931 . S
C2041 C2040 1.391 . S
C2041 C2045 1.376 . S
C2042 C2040 1.394 . S
C2042 C2043 1.369 . S
C2042 C2046 1.531 . S
C2043 C2042 1.369 . S
C2043 C2044 1.410 . S
C2043 C2051 1.503 . S
C2044 C2043 1.410 . S
C2044 C2045 1.392 . S
C2044 C2047 1.511 . S
C2045 C2041 1.376 . S
C2045 C2044 1.392 . S
C2045 H2057 0.929 . S
C2046 C2042 1.531 . S
C2046 H2058 0.960 . S
C2046 H2059 0.962 . S
C2046 H2060 0.960 . S
C2047 C2044 1.511 . S
C2047 H2061 0.961 . S
C2047 H2062 0.961 . S
C2047 H2063 0.961 . S
C2048 C2049 1.370 . S
C2048 C2050 1.363 . S
C2048 H2064 0.931 . S
C2049 C2048 1.370 . S
C2049 C2053 1.408 . S
C2050 C2048 1.363 . S
C2050 C2051 1.370 . S
C2050 C2054 1.524 . S
C2051 C2043 1.503 . S
C2051 C2050 1.370 . S
C2051 C2052 1.403 . S
C2052 C2051 1.403 . S
C2052 C2053 1.404 . S
C2052 C2055 1.539 . S
C2053 C2049 1.408 . S
C2053 C2052 1.404 . S
C2053 H2065 0.930 . S
C2054 C2050 1.524 . S
C2054 H2066 0.956 . S
C2054 H2067 0.961 . S
C2054 H2068 0.961 . S
C2055 C2052 1.539 . S
C2055 H2069 0.958 . S
C2055 H2070 0.961 . S
C2055 H2071 0.960 . S
H2056 C2040 0.931 . S
H2057 C2045 0.929 . S
H2058 C2046 0.960 . S
H2059 C2046 0.962 . S
H2060 C2046 0.960 . S
H2061 C2047 0.961 . S
H2062 C2047 0.961 . S
H2063 C2047 0.961 . S
H2064 C2048 0.931 . S
H2065 C2053 0.930 . S
H2066 C2054 0.956 . S
H2067 C2054 0.961 . S
H2068 C2054 0.961 . S
H2069 C2055 0.958 . S
H2070 C2055 0.961 . S
H2071 C2055 0.960 . S
C2072 C2073 1.391 . S
C2072 C2074 1.394 . S
C2072 H2088 0.931 . S
C2073 C2072 1.391 . S
C2073 C2077 1.376 . S
C2074 C2072 1.394 . S
C2074 C2075 1.369 . S
C2074 C2078 1.531 . S
C2075 C2074 1.369 . S
C2075 C2076 1.410 . S
C2075 C2083 1.503 . S
C2076 C2075 1.410 . S
C2076 C2077 1.392 . S
C2076 C2079 1.511 . S
C2077 C2073 1.376 . S
C2077 C2076 1.392 . S
C2077 H2089 0.929 . S
C2078 C2074 1.531 . S
C2078 H2090 0.960 . S
C2078 H2091 0.962 . S
C2078 H2092 0.960 . S
C2079 C2076 1.511 . S
C2079 H2093 0.961 . S
C2079 H2094 0.961 . S
C2079 H2095 0.961 . S
C2080 C2081 1.370 . S
C2080 C2082 1.363 . S
C2080 H2096 0.931 . S
C2081 C2080 1.370 . S
C2081 C2085 1.408 . S
C2082 C2080 1.363 . S
C2082 C2083 1.370 . S
C2082 C2086 1.524 . S
C2083 C2075 1.503 . S
C2083 C2082 1.370 . S
C2083 C2084 1.403 . S
C2084 C2083 1.403 . S
C2084 C2085 1.404 . S
C2084 C2087 1.539 . S
C2085 C2081 1.408 . S
C2085 C2084 1.404 . S
C2085 H2097 0.930 . S
C2086 C2082 1.524 . S
C2086 H2098 0.956 . S
C2086 H2099 0.961 . S
C2086 H2100 0.961 . S
C2087 C2084 1.539 . S
C2087 H2101 0.958 . S
C2087 H2102 0.961 . S
C2087 H2103 0.960 . S
H2088 C2072 0.931 . S
H2089 C2077 0.929 . S
H2090 C2078 0.960 . S
H2091 C2078 0.962 . S
H2092 C2078 0.960 . S
H2093 C2079 0.961 . S
H2094 C2079 0.961 . S
H2095 C2079 0.961 . S
H2096 C2080 0.931 . S
H2097 C2085 0.930 . S
H2098 C2086 0.956 . S
H2099 C2086 0.961 . S
H2100 C2086 0.961 . S
H2101 C2087 0.958 . S
H2102 C2087 0.961 . S
H2103 C2087 0.960 . S
C2104 C2105 1.391 . S
C2104 C2106 1.394 . S
C2104 H2120 0.931 . S
C2105 C2104 1.391 . S
C2105 C2109 1.376 . S
C2106 C2104 1.394 . S
C2106 C2107 1.369 . S
C2106 C2110 1.531 . S
C2107 C2106 1.369 . S
C2107 C2108 1.410 . S
C2107 C2115 1.503 . S
C2108 C2107 1.410 . S
C2108 C2109 1.392 . S
C2108 C2111 1.511 . S
C2109 C2105 1.376 . S
C2109 C2108 1.392 . S
C2109 H2121 0.929 . S
C2110 C2106 1.531 . S
C2110 H2122 0.960 . S
C2110 H2123 0.962 . S
C2110 H2124 0.960 . S
C2111 C2108 1.511 . S
C2111 H2125 0.961 . S
C2111 H2126 0.961 . S
C2111 H2127 0.961 . S
C2112 C2113 1.370 . S
C2112 C2114 1.363 . S
C2112 H2128 0.931 . S
C2113 C2112 1.370 . S
C2113 C2117 1.408 . S
C2114 C2112 1.363 . S
C2114 C2115 1.370 . S
C2114 C2118 1.524 . S
C2115 C2107 1.503 . S
C2115 C2114 1.370 . S
C2115 C2116 1.403 . S
C2116 C2115 1.403 . S
C2116 C2117 1.404 . S
C2116 C2119 1.539 . S
C2117 C2113 1.408 . S
C2117 C2116 1.404 . S
C2117 H2129 0.930 . S
C2118 C2114 1.524 . S
C2118 H2130 0.956 . S
C2118 H2131 0.961 . S
C2118 H2132 0.961 . S
C2119 C2116 1.539 . S
C2119 H2133 0.958 . S
C2119 H2134 0.961 . S
C2119 H2135 0.960 . S
H2120 C2104 0.931 . S
H2121 C2109 0.929 . S
H2122 C2110 0.960 . S
H2123 C2110 0.962 . S
H2124 C2110 0.960 . S
H2125 C2111 0.961 . S
H2126 C2111 0.961 . S
H2127 C2111 0.961 . S
H2128 C2112 0.931 . S
H2129 C2117 0.930 . S
H2130 C2118 0.956 . S
H2131 C2118 0.961 . S
H2132 C2118 0.961 . S
H2133 C2119 0.958 . S
H2134 C2119 0.961 . S
H2135 C2119 0.960 . S
C2136 C2137 1.391 . S
C2136 C2138 1.394 . S
C2136 H2152 0.931 . S
C2137 C2136 1.391 . S
C2137 C2141 1.376 . S
C2138 C2136 1.394 . S
C2138 C2139 1.369 . S
C2138 C2142 1.531 . S
C2139 C2138 1.369 . S
C2139 C2140 1.410 . S
C2139 C2147 1.503 . S
C2140 C2139 1.410 . S
C2140 C2141 1.392 . S
C2140 C2143 1.511 . S
C2141 C2137 1.376 . S
C2141 C2140 1.392 . S
C2141 H2153 0.929 . S
C2142 C2138 1.531 . S
C2142 H2154 0.960 . S
C2142 H2155 0.962 . S
C2142 H2156 0.960 . S
C2143 C2140 1.511 . S
C2143 H2157 0.961 . S
C2143 H2158 0.961 . S
C2143 H2159 0.961 . S
C2144 C2145 1.370 . S
C2144 C2146 1.363 . S
C2144 H2160 0.931 . S
C2145 C2144 1.370 . S
C2145 C2149 1.408 . S
C2146 C2144 1.363 . S
C2146 C2147 1.370 . S
C2146 C2150 1.524 . S
C2147 C2139 1.503 . S
C2147 C2146 1.370 . S
C2147 C2148 1.403 . S
C2148 C2147 1.403 . S
C2148 C2149 1.404 . S
C2148 C2151 1.539 . S
C2149 C2145 1.408 . S
C2149 C2148 1.404 . S
C2149 H2161 0.930 . S
C2150 C2146 1.524 . S
C2150 H2162 0.956 . S
C2150 H2163 0.961 . S
C2150 H2164 0.961 . S
C2151 C2148 1.539 . S
C2151 H2165 0.958 . S
C2151 H2166 0.961 . S
C2151 H2167 0.960 . S
H2152 C2136 0.931 . S
H2153 C2141 0.929 . S
H2154 C2142 0.960 . S
H2155 C2142 0.962 . S
H2156 C2142 0.960 . S
H2157 C2143 0.961 . S
H2158 C2143 0.961 . S
H2159 C2143 0.961 . S
H2160 C2144 0.931 . S
H2161 C2149 0.930 . S
H2162 C2150 0.956 . S
H2163 C2150 0.961 . S
H2164 C2150 0.961 . S
H2165 C2151 0.958 . S
H2166 C2151 0.961 . S
H2167 C2151 0.960 . S
C2168 C2169 1.391 . S
C2168 C2170 1.394 . S
C2168 H2184 0.931 . S
C2169 C2168 1.391 . S
C2169 C2173 1.376 . S
C2170 C2168 1.394 . S
C2170 C2171 1.369 . S
C2170 C2174 1.531 . S
C2171 C2170 1.369 . S
C2171 C2172 1.410 . S
C2171 C2179 1.503 . S
C2172 C2171 1.410 . S
C2172 C2173 1.392 . S
C2172 C2175 1.511 . S
C2173 C2169 1.376 . S
C2173 C2172 1.392 . S
C2173 H2185 0.929 . S
C2174 C2170 1.531 . S
C2174 H2186 0.960 . S
C2174 H2187 0.962 . S
C2174 H2188 0.960 . S
C2175 C2172 1.511 . S
C2175 H2189 0.961 . S
C2175 H2190 0.961 . S
C2175 H2191 0.961 . S
C2176 C2177 1.370 . S
C2176 C2178 1.363 . S
C2176 H2192 0.931 . S
C2177 C2176 1.370 . S
C2177 C2181 1.408 . S
C2178 C2176 1.363 . S
C2178 C2179 1.370 . S
C2178 C2182 1.524 . S
C2179 C2171 1.503 . S
C2179 C2178 1.370 . S
C2179 C2180 1.403 . S
C2180 C2179 1.403 . S
C2180 C2181 1.404 . S
C2180 C2183 1.539 . S
C2181 C2177 1.408 . S
C2181 C2180 1.404 . S
C2181 H2193 0.930 . S
C2182 C2178 1.524 . S
C2182 H2194 0.956 . S
C2182 H2195 0.961 . S
C2182 H2196 0.961 . S
C2183 C2180 1.539 . S
C2183 H2197 0.958 . S
C2183 H2198 0.961 . S
C2183 H2199 0.960 . S
H2184 C2168 0.931 . S
H2185 C2173 0.929 . S
H2186 C2174 0.960 . S
H2187 C2174 0.962 . S
H2188 C2174 0.960 . S
H2189 C2175 0.961 . S
H2190 C2175 0.961 . S
H2191 C2175 0.961 . S
H2192 C2176 0.931 . S
H2193 C2181 0.930 . S
H2194 C2182 0.956 . S
H2195 C2182 0.961 . S
H2196 C2182 0.961 . S
H2197 C2183 0.958 . S
H2198 C2183 0.961 . S
H2199 C2183 0.960 . S
C2200 C2201 1.391 . S
C2200 C2202 1.394 . S
C2200 H2216 0.931 . S
C2201 C2200 1.391 . S
C2201 C2205 1.376 . S
C2202 C2200 1.394 . S
C2202 C2203 1.369 . S
C2202 C2206 1.531 . S
C2203 C2202 1.369 . S
C2203 C2204 1.410 . S
C2203 C2211 1.503 . S
C2204 C2203 1.410 . S
C2204 C2205 1.392 . S
C2204 C2207 1.511 . S
C2205 C2201 1.376 . S
C2205 C2204 1.392 . S
C2205 H2217 0.929 . S
C2206 C2202 1.531 . S
C2206 H2218 0.960 . S
C2206 H2219 0.962 . S
C2206 H2220 0.960 . S
C2207 C2204 1.511 . S
C2207 H2221 0.961 . S
C2207 H2222 0.961 . S
C2207 H2223 0.961 . S
C2208 C2209 1.370 . S
C2208 C2210 1.363 . S
C2208 H2224 0.931 . S
C2209 C2208 1.370 . S
C2209 C2213 1.408 . S
C2210 C2208 1.363 . S
C2210 C2211 1.370 . S
C2210 C2214 1.524 . S
C2211 C2203 1.503 . S
C2211 C2210 1.370 . S
C2211 C2212 1.403 . S
C2212 C2211 1.403 . S
C2212 C2213 1.404 . S
C2212 C2215 1.539 . S
C2213 C2209 1.408 . S
C2213 C2212 1.404 . S
C2213 H2225 0.930 . S
C2214 C2210 1.524 . S
C2214 H2226 0.956 . S
C2214 H2227 0.961 . S
C2214 H2228 0.961 . S
C2215 C2212 1.539 . S
C2215 H2229 0.958 . S
C2215 H2230 0.961 . S
C2215 H2231 0.960 . S
H2216 C2200 0.931 . S
H2217 C2205 0.929 . S
H2218 C2206 0.960 . S
H2219 C2206 0.962 . S
H2220 C2206 0.960 . S
H2221 C2207 0.961 . S
H2222 C2207 0.961 . S
H2223 C2207 0.961 . S
H2224 C2208 0.931 . S
H2225 C2213 0.930 . S
H2226 C2214 0.956 . S
H2227 C2214 0.961 . S
H2228 C2214 0.961 . S
H2229 C2215 0.958 . S
H2230 C2215 0.961 . S
H2231 C2215 0.960 . S
C2232 C2233 1.391 . S
C2232 C2234 1.394 . S
C2232 H2248 0.931 . S
C2233 C2232 1.391 . S
C2233 C2237 1.376 . S
C2234 C2232 1.394 . S
C2234 C2235 1.369 . S
C2234 C2238 1.531 . S
C2235 C2234 1.369 . S
C2235 C2236 1.410 . S
C2235 C2243 1.503 . S
C2236 C2235 1.410 . S
C2236 C2237 1.392 . S
C2236 C2239 1.511 . S
C2237 C2233 1.376 . S
C2237 C2236 1.392 . S
C2237 H2249 0.929 . S
C2238 C2234 1.531 . S
C2238 H2250 0.960 . S
C2238 H2251 0.962 . S
C2238 H2252 0.960 . S
C2239 C2236 1.511 . S
C2239 H2253 0.961 . S
C2239 H2254 0.961 . S
C2239 H2255 0.961 . S
C2240 C2241 1.370 . S
C2240 C2242 1.363 . S
C2240 H2256 0.931 . S
C2241 C2240 1.370 . S
C2241 C2245 1.408 . S
C2242 C2240 1.363 . S
C2242 C2243 1.370 . S
C2242 C2246 1.524 . S
C2243 C2235 1.503 . S
C2243 C2242 1.370 . S
C2243 C2244 1.403 . S
C2244 C2243 1.403 . S
C2244 C2245 1.404 . S
C2244 C2247 1.539 . S
C2245 C2241 1.408 . S
C2245 C2244 1.404 . S
C2245 H2257 0.930 . S
C2246 C2242 1.524 . S
C2246 H2258 0.956 . S
C2246 H2259 0.961 . S
C2246 H2260 0.961 . S
C2247 C2244 1.539 . S
C2247 H2261 0.958 . S
C2247 H2262 0.961 . S
C2247 H2263 0.960 . S
H2248 C2232 0.931 . S
H2249 C2237 0.929 . S
H2250 C2238 0.960 . S
H2251 C2238 0.962 . S
H2252 C2238 0.960 . S
H2253 C2239 0.961 . S
H2254 C2239 0.961 . S
H2255 C2239 0.961 . S
H2256 C2240 0.931 . S
H2257 C2245 0.930 . S
H2258 C2246 0.956 . S
H2259 C2246 0.961 . S
H2260 C2246 0.961 . S
H2261 C2247 0.958 . S
H2262 C2247 0.961 . S
H2263 C2247 0.960 . S
C2264 C2265 1.391 . S
C2264 C2266 1.394 . S
C2264 H2280 0.931 . S
C2265 C2264 1.391 . S
C2265 C2269 1.376 . S
C2266 C2264 1.394 . S
C2266 C2267 1.369 . S
C2266 C2270 1.531 . S
C2267 C2266 1.369 . S
C2267 C2268 1.410 . S
C2267 C2275 1.503 . S
C2268 C2267 1.410 . S
C2268 C2269 1.392 . S
C2268 C2271 1.511 . S
C2269 C2265 1.376 . S
C2269 C2268 1.392 . S
C2269 H2281 0.929 . S
C2270 C2266 1.531 . S
C2270 H2282 0.960 . S
C2270 H2283 0.962 . S
C2270 H2284 0.960 . S
C2271 C2268 1.511 . S
C2271 H2285 0.961 . S
C2271 H2286 0.961 . S
C2271 H2287 0.961 . S
C2272 C2273 1.370 . S
C2272 C2274 1.363 . S
C2272 H2288 0.931 . S
C2273 C2272 1.370 . S
C2273 C2277 1.408 . S
C2274 C2272 1.363 . S
C2274 C2275 1.370 . S
C2274 C2278 1.524 . S
C2275 C2267 1.503 . S
C2275 C2274 1.370 . S
C2275 C2276 1.403 . S
C2276 C2275 1.403 . S
C2276 C2277 1.404 . S
C2276 C2279 1.539 . S
C2277 C2273 1.408 . S
C2277 C2276 1.404 . S
C2277 H2289 0.930 . S
C2278 C2274 1.524 . S
C2278 H2290 0.956 . S
C2278 H2291 0.961 . S
C2278 H2292 0.961 . S
C2279 C2276 1.539 . S
C2279 H2293 0.958 . S
C2279 H2294 0.961 . S
C2279 H2295 0.960 . S
H2280 C2264 0.931 . S
H2281 C2269 0.929 . S
H2282 C2270 0.960 . S
H2283 C2270 0.962 . S
H2284 C2270 0.960 . S
H2285 C2271 0.961 . S
H2286 C2271 0.961 . S
H2287 C2271 0.961 . S
H2288 C2272 0.931 . S
H2289 C2277 0.930 . S
H2290 C2278 0.956 . S
H2291 C2278 0.961 . S
H2292 C2278 0.961 . S
H2293 C2279 0.958 . S
H2294 C2279 0.961 . S
H2295 C2279 0.960 . S
C2296 C2297 1.391 . S
C2296 C2298 1.394 . S
C2296 H2312 0.931 . S
C2297 C2296 1.391 . S
C2297 C2301 1.376 . S
C2298 C2296 1.394 . S
C2298 C2299 1.369 . S
C2298 C2302 1.531 . S
C2299 C2298 1.369 . S
C2299 C2300 1.410 . S
C2299 C2307 1.503 . S
C2300 C2299 1.410 . S
C2300 C2301 1.392 . S
C2300 C2303 1.511 . S
C2301 C2297 1.376 . S
C2301 C2300 1.392 . S
C2301 H2313 0.929 . S
C2302 C2298 1.531 . S
C2302 H2314 0.960 . S
C2302 H2315 0.962 . S
C2302 H2316 0.960 . S
C2303 C2300 1.511 . S
C2303 H2317 0.961 . S
C2303 H2318 0.961 . S
C2303 H2319 0.961 . S
C2304 C2305 1.370 . S
C2304 C2306 1.363 . S
C2304 H2320 0.931 . S
C2305 C2304 1.370 . S
C2305 C2309 1.408 . S
C2306 C2304 1.363 . S
C2306 C2307 1.370 . S
C2306 C2310 1.524 . S
C2307 C2299 1.503 . S
C2307 C2306 1.370 . S
C2307 C2308 1.403 . S
C2308 C2307 1.403 . S
C2308 C2309 1.404 . S
C2308 C2311 1.539 . S
C2309 C2305 1.408 . S
C2309 C2308 1.404 . S
C2309 H2321 0.930 . S
C2310 C2306 1.524 . S
C2310 H2322 0.956 . S
C2310 H2323 0.961 . S
C2310 H2324 0.961 . S
C2311 C2308 1.539 . S
C2311 H2325 0.958 . S
C2311 H2326 0.961 . S
C2311 H2327 0.960 . S
H2312 C2296 0.931 . S
H2313 C2301 0.929 . S
H2314 C2302 0.960 . S
H2315 C2302 0.962 . S
H2316 C2302 0.960 . S
H2317 C2303 0.961 . S
H2318 C2303 0.961 . S
H2319 C2303 0.961 . S
H2320 C2304 0.931 . S
H2321 C2309 0.930 . S
H2322 C2310 0.956 . S
H2323 C2310 0.961 . S
H2324 C2310 0.961 . S
H2325 C2311 0.958 . S
H2326 C2311 0.961 . S
H2327 C2311 0.960 . S
C2328 C2329 1.391 . S
C2328 C2330 1.394 . S
C2328 H2344 0.931 . S
C2329 C2328 1.391 . S
C2329 C2333 1.376 . S
C2330 C2328 1.394 . S
C2330 C2331 1.369 . S
C2330 C2334 1.531 . S
C2331 C2330 1.369 . S
C2331 C2332 1.410 . S
C2331 C2339 1.503 1_554 S
C2332 C2331 1.410 . S
C2332 C2333 1.392 . S
C2332 C2335 1.511 . S
C2333 C2329 1.376 . S
C2333 C2332 1.392 . S
C2333 H2345 0.929 . S
C2334 C2330 1.531 . S
C2334 H2346 0.960 1_554 S
C2334 H2347 0.962 . S
C2334 H2348 0.960 . S
C2335 C2332 1.511 . S
C2335 H2349 0.961 . S
C2335 H2350 0.961 1_554 S
C2335 H2351 0.961 . S
C2336 C2337 1.370 . S
C2336 C2338 1.363 . S
C2336 H2352 0.931 . S
C2337 C2336 1.370 . S
C2337 C2341 1.408 . S
C2338 C2336 1.363 . S
C2338 C2339 1.370 . S
C2338 C2342 1.524 . S
C2339 C2331 1.503 1_556 S
C2339 C2338 1.370 . S
C2339 C2340 1.403 . S
C2340 C2339 1.403 . S
C2340 C2341 1.404 . S
C2340 C2343 1.539 . S
C2341 C2337 1.408 . S
C2341 C2340 1.404 . S
C2341 H2353 0.930 . S
C2342 C2338 1.524 . S
C2342 H2354 0.956 . S
C2342 H2355 0.961 1_556 S
C2342 H2356 0.961 . S
C2343 C2340 1.539 . S
C2343 H2357 0.958 . S
C2343 H2358 0.961 . S
C2343 H2359 0.971 . S
H2344 C2328 0.931 . S
H2345 C2333 0.929 . S
H2346 C2334 0.960 1_556 S
H2347 C2334 0.962 . S
H2348 C2334 0.960 . S
H2349 C2335 0.961 . S
H2350 C2335 0.961 1_556 S
H2351 C2335 0.961 . S
H2352 C2336 0.931 . S
H2353 C2341 0.930 . S
H2354 C2342 0.956 . S
H2355 C2342 0.961 1_554 S
H2356 C2342 0.961 . S
H2357 C2343 0.958 . S
H2358 C2343 0.961 . S
H2359 C2343 0.971 . S
C2360 C2361 1.391 . S
C2360 C2362 1.394 . S
C2360 H2376 0.931 . S
C2361 C2360 1.391 . S
C2361 C2365 1.376 . S
C2362 C2360 1.394 . S
C2362 C2363 1.369 . S
C2362 C2366 1.531 . S
C2363 C2362 1.369 . S
C2363 C2364 1.410 . S
C2363 C2371 1.503 1_554 S
C2364 C2363 1.410 . S
C2364 C2365 1.392 . S
C2364 C2367 1.511 . S
C2365 C2361 1.376 . S
C2365 C2364 1.392 . S
C2365 H2377 0.929 . S
C2366 C2362 1.531 . S
C2366 H2378 0.960 1_554 S
C2366 H2379 0.962 . S
C2366 H2380 0.960 . S
C2367 C2364 1.511 . S
C2367 H2381 0.961 . S
C2367 H2382 0.961 1_554 S
C2367 H2383 0.961 . S
C2368 C2369 1.370 . S
C2368 C2370 1.363 . S
C2368 H2384 0.931 . S
C2369 C2368 1.370 . S
C2369 C2373 1.408 . S
C2370 C2368 1.363 . S
C2370 C2371 1.370 . S
C2370 C2374 1.524 . S
C2371 C2363 1.503 1_556 S
C2371 C2370 1.370 . S
C2371 C2372 1.403 . S
C2372 C2371 1.403 . S
C2372 C2373 1.404 . S
C2372 C2375 1.539 . S
C2373 C2369 1.408 . S
C2373 C2372 1.404 . S
C2373 H2385 0.930 . S
C2374 C2370 1.524 . S
C2374 H2386 0.956 . S
C2374 H2387 0.961 1_556 S
C2374 H2388 0.961 . S
C2375 C2372 1.539 . S
C2375 H2389 0.958 . S
C2375 H2390 0.961 . S
C2375 H2391 0.971 . S
H2376 C2360 0.931 . S
H2377 C2365 0.929 . S
H2378 C2366 0.960 1_556 S
H2379 C2366 0.962 . S
H2380 C2366 0.960 . S
H2381 C2367 0.961 . S
H2382 C2367 0.961 1_556 S
H2383 C2367 0.961 . S
H2384 C2368 0.931 . S
H2385 C2373 0.930 . S
H2386 C2374 0.956 . S
H2387 C2374 0.961 1_554 S
H2388 C2374 0.961 . S
H2389 C2375 0.958 . S
H2390 C2375 0.961 . S
H2391 C2375 0.971 . S
C2392 C2393 1.391 . S
C2392 C2394 1.394 . S
C2392 H2408 0.931 . S
C2393 C2392 1.391 . S
C2393 C2397 1.376 . S
C2394 C2392 1.394 . S
C2394 C2395 1.369 . S
C2394 C2398 1.531 . S
C2395 C2394 1.369 . S
C2395 C2396 1.410 . S
C2395 C2403 1.503 1_554 S
C2396 C2395 1.410 . S
C2396 C2397 1.392 . S
C2396 C2399 1.511 . S
C2397 C2393 1.376 . S
C2397 C2396 1.392 . S
C2397 H2409 0.929 . S
C2398 C2394 1.531 . S
C2398 H2410 0.960 1_554 S
C2398 H2411 0.962 . S
C2398 H2412 0.960 . S
C2399 C2396 1.511 . S
C2399 H2413 0.961 . S
C2399 H2414 0.961 1_554 S
C2399 H2415 0.961 . S
C2400 C2401 1.370 . S
C2400 C2402 1.363 . S
C2400 H2416 0.931 . S
C2401 C2400 1.370 . S
C2401 C2405 1.408 . S
C2402 C2400 1.363 . S
C2402 C2403 1.370 . S
C2402 C2406 1.524 . S
C2403 C2395 1.503 1_556 S
C2403 C2402 1.370 . S
C2403 C2404 1.403 . S
C2404 C2403 1.403 . S
C2404 C2405 1.404 . S
C2404 C2407 1.539 . S
C2405 C2401 1.408 . S
C2405 C2404 1.404 . S
C2405 H2417 0.930 . S
C2406 C2402 1.524 . S
C2406 H2418 0.956 . S
C2406 H2419 0.961 1_556 S
C2406 H2420 0.961 . S
C2407 C2404 1.539 . S
C2407 H2421 0.958 . S
C2407 H2422 0.961 . S
C2407 H2423 0.971 . S
H2408 C2392 0.931 . S
H2409 C2397 0.929 . S
H2410 C2398 0.960 1_556 S
H2411 C2398 0.962 . S
H2412 C2398 0.960 . S
H2413 C2399 0.961 . S
H2414 C2399 0.961 1_556 S
H2415 C2399 0.961 . S
H2416 C2400 0.931 . S
H2417 C2405 0.930 . S
H2418 C2406 0.956 . S
H2419 C2406 0.961 1_554 S
H2420 C2406 0.961 . S
H2421 C2407 0.958 . S
H2422 C2407 0.961 . S
H2423 C2407 0.971 . S
C2424 C2425 1.391 . S
C2424 C2426 1.394 . S
C2424 H2440 0.931 . S
C2425 C2424 1.391 . S
C2425 C2429 1.376 . S
C2426 C2424 1.394 . S
C2426 C2427 1.369 . S
C2426 C2430 1.531 . S
C2427 C2426 1.369 . S
C2427 C2428 1.410 . S
C2427 C2435 1.503 1_554 S
C2428 C2427 1.410 . S
C2428 C2429 1.392 . S
C2428 C2431 1.511 . S
C2429 C2425 1.376 . S
C2429 C2428 1.392 . S
C2429 H2441 0.929 . S
C2430 C2426 1.531 . S
C2430 H2442 0.960 1_554 S
C2430 H2443 0.962 . S
C2430 H2444 0.960 . S
C2431 C2428 1.511 . S
C2431 H2445 0.961 . S
C2431 H2446 0.961 1_554 S
C2431 H2447 0.961 . S
C2432 C2433 1.370 . S
C2432 C2434 1.363 . S
C2432 H2448 0.931 . S
C2433 C2432 1.370 . S
C2433 C2437 1.408 . S
C2434 C2432 1.363 . S
C2434 C2435 1.370 . S
C2434 C2438 1.524 . S
C2435 C2427 1.503 1_556 S
C2435 C2434 1.370 . S
C2435 C2436 1.403 . S
C2436 C2435 1.403 . S
C2436 C2437 1.404 . S
C2436 C2439 1.539 . S
C2437 C2433 1.408 . S
C2437 C2436 1.404 . S
C2437 H2449 0.930 . S
C2438 C2434 1.524 . S
C2438 H2450 0.956 . S
C2438 H2451 0.961 1_556 S
C2438 H2452 0.961 . S
C2439 C2436 1.539 . S
C2439 H2453 0.958 . S
C2439 H2454 0.961 . S
C2439 H2455 0.971 . S
H2440 C2424 0.931 . S
H2441 C2429 0.929 . S
H2442 C2430 0.960 1_556 S
H2443 C2430 0.962 . S
H2444 C2430 0.960 . S
H2445 C2431 0.961 . S
H2446 C2431 0.961 1_556 S
H2447 C2431 0.961 . S
H2448 C2432 0.931 . S
H2449 C2437 0.930 . S
H2450 C2438 0.956 . S
H2451 C2438 0.961 1_554 S
H2452 C2438 0.961 . S
H2453 C2439 0.958 . S
H2454 C2439 0.961 . S
H2455 C2439 0.971 . S
C2456 C2457 1.391 . S
C2456 C2458 1.394 . S
C2456 H2472 0.931 . S
C2457 C2456 1.391 . S
C2457 C2461 1.376 . S
C2458 C2456 1.394 . S
C2458 C2459 1.369 . S
C2458 C2462 1.531 . S
C2459 C2458 1.369 . S
C2459 C2460 1.410 . S
C2459 C2467 1.503 1_554 S
C2460 C2459 1.410 . S
C2460 C2461 1.392 . S
C2460 C2463 1.511 . S
C2461 C2457 1.376 . S
C2461 C2460 1.392 . S
C2461 H2473 0.929 . S
C2462 C2458 1.531 . S
C2462 H2474 0.960 1_554 S
C2462 H2475 0.962 . S
C2462 H2476 0.960 . S
C2463 C2460 1.511 . S
C2463 H2477 0.961 . S
C2463 H2478 0.961 1_554 S
C2463 H2479 0.961 . S
C2464 C2465 1.370 . S
C2464 C2466 1.363 . S
C2464 H2480 0.931 . S
C2465 C2464 1.370 . S
C2465 C2469 1.408 . S
C2466 C2464 1.363 . S
C2466 C2467 1.370 . S
C2466 C2470 1.524 . S
C2467 C2459 1.503 1_556 S
C2467 C2466 1.370 . S
C2467 C2468 1.403 . S
C2468 C2467 1.403 . S
C2468 C2469 1.404 . S
C2468 C2471 1.539 . S
C2469 C2465 1.408 . S
C2469 C2468 1.404 . S
C2469 H2481 0.930 . S
C2470 C2466 1.524 . S
C2470 H2482 0.956 . S
C2470 H2483 0.961 1_556 S
C2470 H2484 0.961 . S
C2471 C2468 1.539 . S
C2471 H2485 0.958 . S
C2471 H2486 0.961 . S
C2471 H2487 0.971 . S
H2472 C2456 0.931 . S
H2473 C2461 0.929 . S
H2474 C2462 0.960 1_556 S
H2475 C2462 0.962 . S
H2476 C2462 0.960 . S
H2477 C2463 0.961 . S
H2478 C2463 0.961 1_556 S
H2479 C2463 0.961 . S
H2480 C2464 0.931 . S
H2481 C2469 0.930 . S
H2482 C2470 0.956 . S
H2483 C2470 0.961 1_554 S
H2484 C2470 0.961 . S
H2485 C2471 0.958 . S
H2486 C2471 0.961 . S
H2487 C2471 0.971 . S
C2488 C2489 1.391 . S
C2488 C2490 1.394 . S
C2488 H2504 0.931 . S
C2489 C2488 1.391 . S
C2489 C2493 1.376 . S
C2490 C2488 1.394 . S
C2490 C2491 1.369 . S
C2490 C2494 1.531 . S
C2491 C2490 1.369 . S
C2491 C2492 1.410 . S
C2491 C2499 1.503 1_556 S
C2492 C2491 1.410 . S
C2492 C2493 1.392 . S
C2492 C2495 1.511 . S
C2493 C2489 1.376 . S
C2493 C2492 1.392 . S
C2493 H2505 0.929 . S
C2494 C2490 1.531 . S
C2494 H2506 0.960 1_556 S
C2494 H2507 0.962 . S
C2494 H2508 0.960 . S
C2495 C2492 1.511 . S
C2495 H2509 0.961 . S
C2495 H2510 0.961 1_556 S
C2495 H2511 0.961 . S
C2496 C2497 1.370 . S
C2496 C2498 1.363 . S
C2496 H2512 0.931 . S
C2497 C2496 1.370 . S
C2497 C2501 1.408 . S
C2498 C2496 1.363 . S
C2498 C2499 1.370 . S
C2498 C2502 1.524 . S
C2499 C2491 1.503 1_554 S
C2499 C2498 1.370 . S
C2499 C2500 1.403 . S
C2500 C2499 1.403 . S
C2500 C2501 1.404 . S
C2500 C2503 1.539 . S
C2501 C2497 1.408 . S
C2501 C2500 1.404 . S
C2501 H2513 0.930 . S
C2502 C2498 1.524 . S
C2502 H2514 0.956 . S
C2502 H2515 0.961 1_554 S
C2502 H2516 0.961 . S
C2503 C2500 1.539 . S
C2503 H2517 0.958 . S
C2503 H2518 0.961 . S
C2503 H2519 0.971 . S
H2504 C2488 0.931 . S
H2505 C2493 0.929 . S
H2506 C2494 0.960 1_554 S
H2507 C2494 0.962 . S
H2508 C2494 0.960 . S
H2509 C2495 0.961 . S
H2510 C2495 0.961 1_554 S
H2511 C2495 0.961 . S
H2512 C2496 0.931 . S
H2513 C2501 0.930 . S
H2514 C2502 0.956 . S
H2515 C2502 0.961 1_556 S
H2516 C2502 0.961 . S
H2517 C2503 0.958 . S
H2518 C2503 0.961 . S
H2519 C2503 0.971 . S
C2520 C2521 1.391 . S
C2520 C2522 1.394 . S
C2520 H2536 0.931 . S
C2521 C2520 1.391 . S
C2521 C2525 1.376 . S
C2522 C2520 1.394 . S
C2522 C2523 1.369 . S
C2522 C2526 1.531 . S
C2523 C2522 1.369 . S
C2523 C2524 1.410 . S
C2523 C2531 1.503 . S
C2524 C2523 1.410 . S
C2524 C2525 1.392 . S
C2524 C2527 1.511 . S
C2525 C2521 1.376 . S
C2525 C2524 1.392 . S
C2525 H2537 0.929 . S
C2526 C2522 1.531 . S
C2526 H2538 0.960 . S
C2526 H2539 0.962 . S
C2526 H2540 0.960 . S
C2527 C2524 1.511 . S
C2527 H2541 0.961 . S
C2527 H2542 0.961 . S
C2527 H2543 0.961 . S
C2528 C2529 1.370 . S
C2528 C2530 1.363 . S
C2528 H2544 0.931 . S
C2529 C2528 1.370 . S
C2529 C2533 1.408 . S
C2530 C2528 1.363 . S
C2530 C2531 1.370 . S
C2530 C2534 1.524 . S
C2531 C2523 1.503 . S
C2531 C2530 1.370 . S
C2531 C2532 1.403 . S
C2532 C2531 1.403 . S
C2532 C2533 1.404 . S
C2532 C2535 1.539 . S
C2533 C2529 1.408 . S
C2533 C2532 1.404 . S
C2533 H2545 0.930 . S
C2534 C2530 1.524 . S
C2534 H2546 0.956 . S
C2534 H2547 0.961 . S
C2534 H2548 0.961 . S
C2535 C2532 1.539 . S
C2535 H2549 0.958 . S
C2535 H2550 0.961 . S
C2535 H2551 0.960 . S
H2536 C2520 0.931 . S
H2537 C2525 0.929 . S
H2538 C2526 0.960 . S
H2539 C2526 0.962 . S
H2540 C2526 0.960 . S
H2541 C2527 0.961 . S
H2542 C2527 0.961 . S
H2543 C2527 0.961 . S
H2544 C2528 0.931 . S
H2545 C2533 0.930 . S
H2546 C2534 0.956 . S
H2547 C2534 0.961 . S
H2548 C2534 0.961 . S
H2549 C2535 0.958 . S
H2550 C2535 0.961 . S
H2551 C2535 0.960 . S
C2552 C2553 1.391 . S
C2552 C2554 1.394 . S
C2552 H2568 0.931 . S
C2553 C2552 1.391 . S
C2553 C2557 1.376 . S
C2554 C2552 1.394 . S
C2554 C2555 1.369 . S
C2554 C2558 1.531 . S
C2555 C2554 1.369 . S
C2555 C2556 1.410 . S
C2555 C2563 1.503 . S
C2556 C2555 1.410 . S
C2556 C2557 1.392 . S
C2556 C2559 1.511 . S
C2557 C2553 1.376 . S
C2557 C2556 1.392 . S
C2557 H2569 0.929 . S
C2558 C2554 1.531 . S
C2558 H2570 0.960 . S
C2558 H2571 0.962 . S
C2558 H2572 0.960 . S
C2559 C2556 1.511 . S
C2559 H2573 0.961 . S
C2559 H2574 0.961 . S
C2559 H2575 0.961 . S
C2560 C2561 1.370 . S
C2560 C2562 1.363 . S
C2560 H2576 0.931 . S
C2561 C2560 1.370 . S
C2561 C2565 1.408 . S
C2562 C2560 1.363 . S
C2562 C2563 1.370 . S
C2562 C2566 1.524 . S
C2563 C2555 1.503 . S
C2563 C2562 1.370 . S
C2563 C2564 1.403 . S
C2564 C2563 1.403 . S
C2564 C2565 1.404 . S
C2564 C2567 1.539 . S
C2565 C2561 1.408 . S
C2565 C2564 1.404 . S
C2565 H2577 0.930 . S
C2566 C2562 1.524 . S
C2566 H2578 0.956 . S
C2566 H2579 0.961 . S
C2566 H2580 0.961 . S
C2567 C2564 1.539 . S
C2567 H2581 0.958 . S
C2567 H2582 0.961 . S
C2567 H2583 0.960 . S
H2568 C2552 0.931 . S
H2569 C2557 0.929 . S
H2570 C2558 0.960 . S
H2571 C2558 0.962 . S
H2572 C2558 0.960 . S
H2573 C2559 0.961 . S
H2574 C2559 0.961 . S
H2575 C2559 0.961 . S
H2576 C2560 0.931 . S
H2577 C2565 0.930 . S
H2578 C2566 0.956 . S
H2579 C2566 0.961 . S
H2580 C2566 0.961 . S
H2581 C2567 0.958 . S
H2582 C2567 0.961 . S
H2583 C2567 0.960 . S
C2584 C2585 1.391 . S
C2584 C2586 1.394 . S
C2584 H2600 0.931 . S
C2585 C2584 1.391 . S
C2585 C2589 1.376 . S
C2586 C2584 1.394 . S
C2586 C2587 1.369 . S
C2586 C2590 1.531 . S
C2587 C2586 1.369 . S
C2587 C2588 1.410 . S
C2587 C2595 1.503 . S
C2588 C2587 1.410 . S
C2588 C2589 1.392 . S
C2588 C2591 1.511 . S
C2589 C2585 1.376 . S
C2589 C2588 1.392 . S
C2589 H2601 0.929 . S
C2590 C2586 1.531 . S
C2590 H2602 0.960 . S
C2590 H2603 0.962 . S
C2590 H2604 0.960 . S
C2591 C2588 1.511 . S
C2591 H2605 0.961 . S
C2591 H2606 0.961 . S
C2591 H2607 0.961 . S
C2592 C2593 1.370 . S
C2592 C2594 1.363 . S
C2592 H2608 0.931 . S
C2593 C2592 1.370 . S
C2593 C2597 1.408 . S
C2594 C2592 1.363 . S
C2594 C2595 1.370 . S
C2594 C2598 1.524 . S
C2595 C2587 1.503 . S
C2595 C2594 1.370 . S
C2595 C2596 1.403 . S
C2596 C2595 1.403 . S
C2596 C2597 1.404 . S
C2596 C2599 1.539 . S
C2597 C2593 1.408 . S
C2597 C2596 1.404 . S
C2597 H2609 0.930 . S
C2598 C2594 1.524 . S
C2598 H2610 0.956 . S
C2598 H2611 0.961 . S
C2598 H2612 0.961 . S
C2599 C2596 1.539 . S
C2599 H2613 0.958 . S
C2599 H2614 0.961 . S
C2599 H2615 0.960 . S
H2600 C2584 0.931 . S
H2601 C2589 0.929 . S
H2602 C2590 0.960 . S
H2603 C2590 0.962 . S
H2604 C2590 0.960 . S
H2605 C2591 0.961 . S
H2606 C2591 0.961 . S
H2607 C2591 0.961 . S
H2608 C2592 0.931 . S
H2609 C2597 0.930 . S
H2610 C2598 0.956 . S
H2611 C2598 0.961 . S
H2612 C2598 0.961 . S
H2613 C2599 0.958 . S
H2614 C2599 0.961 . S
H2615 C2599 0.960 . S
C2616 C2617 1.391 . S
C2616 C2618 1.394 . S
C2616 H2632 0.931 . S
C2617 C2616 1.391 . S
C2617 C2621 1.376 . S
C2618 C2616 1.394 . S
C2618 C2619 1.369 . S
C2618 C2622 1.531 . S
C2619 C2618 1.369 . S
C2619 C2620 1.410 . S
C2619 C2627 1.503 . S
C2620 C2619 1.410 . S
C2620 C2621 1.392 . S
C2620 C2623 1.511 . S
C2621 C2617 1.376 . S
C2621 C2620 1.392 . S
C2621 H2633 0.929 . S
C2622 C2618 1.531 . S
C2622 H2634 0.960 . S
C2622 H2635 0.962 . S
C2622 H2636 0.960 . S
C2623 C2620 1.511 . S
C2623 H2637 0.961 . S
C2623 H2638 0.961 . S
C2623 H2639 0.961 . S
C2624 C2625 1.370 . S
C2624 C2626 1.363 . S
C2624 H2640 0.931 . S
C2625 C2624 1.370 . S
C2625 C2629 1.408 . S
C2626 C2624 1.363 . S
C2626 C2627 1.370 . S
C2626 C2630 1.524 . S
C2627 C2619 1.503 . S
C2627 C2626 1.370 . S
C2627 C2628 1.403 . S
C2628 C2627 1.403 . S
C2628 C2629 1.404 . S
C2628 C2631 1.539 . S
C2629 C2625 1.408 . S
C2629 C2628 1.404 . S
C2629 H2641 0.930 . S
C2630 C2626 1.524 . S
C2630 H2642 0.956 . S
C2630 H2643 0.961 . S
C2630 H2644 0.961 . S
C2631 C2628 1.539 . S
C2631 H2645 0.958 . S
C2631 H2646 0.961 . S
C2631 H2647 0.960 . S
H2632 C2616 0.931 . S
H2633 C2621 0.929 . S
H2634 C2622 0.960 . S
H2635 C2622 0.962 . S
H2636 C2622 0.960 . S
H2637 C2623 0.961 . S
H2638 C2623 0.961 . S
H2639 C2623 0.961 . S
H2640 C2624 0.931 . S
H2641 C2629 0.930 . S
H2642 C2630 0.956 . S
H2643 C2630 0.961 . S
H2644 C2630 0.961 . S
H2645 C2631 0.958 . S
H2646 C2631 0.961 . S
H2647 C2631 0.960 . S
C2648 C2649 1.391 . S
C2648 C2650 1.394 . S
C2648 H2664 0.931 . S
C2649 C2648 1.391 . S
C2649 C2653 1.376 . S
C2650 C2648 1.394 . S
C2650 C2651 1.369 . S
C2650 C2654 1.531 . S
C2651 C2650 1.369 . S
C2651 C2652 1.410 . S
C2651 C2659 1.503 . S
C2652 C2651 1.410 . S
C2652 C2653 1.392 . S
C2652 C2655 1.511 . S
C2653 C2649 1.376 . S
C2653 C2652 1.392 . S
C2653 H2665 0.929 . S
C2654 C2650 1.531 . S
C2654 H2666 0.960 . S
C2654 H2667 0.962 . S
C2654 H2668 0.960 . S
C2655 C2652 1.511 . S
C2655 H2669 0.961 . S
C2655 H2670 0.961 . S
C2655 H2671 0.961 . S
C2656 C2657 1.370 . S
C2656 C2658 1.363 . S
C2656 H2672 0.931 . S
C2657 C2656 1.370 . S
C2657 C2661 1.408 . S
C2658 C2656 1.363 . S
C2658 C2659 1.370 . S
C2658 C2662 1.524 . S
C2659 C2651 1.503 . S
C2659 C2658 1.370 . S
C2659 C2660 1.403 . S
C2660 C2659 1.403 . S
C2660 C2661 1.404 . S
C2660 C2663 1.539 . S
C2661 C2657 1.408 . S
C2661 C2660 1.404 . S
C2661 H2673 0.930 . S
C2662 C2658 1.524 . S
C2662 H2674 0.956 . S
C2662 H2675 0.961 . S
C2662 H2676 0.961 . S
C2663 C2660 1.539 . S
C2663 H2677 0.958 . S
C2663 H2678 0.961 . S
C2663 H2679 0.960 . S
H2664 C2648 0.931 . S
H2665 C2653 0.929 . S
H2666 C2654 0.960 . S
H2667 C2654 0.962 . S
H2668 C2654 0.960 . S
H2669 C2655 0.961 . S
H2670 C2655 0.961 . S
H2671 C2655 0.961 . S
H2672 C2656 0.931 . S
H2673 C2661 0.930 . S
H2674 C2662 0.956 . S
H2675 C2662 0.961 . S
H2676 C2662 0.961 . S
H2677 C2663 0.958 . S
H2678 C2663 0.961 . S
H2679 C2663 0.960 . S
C2680 C2681 1.391 . S
C2680 C2682 1.394 . S
C2680 H2696 0.931 . S
C2681 C2680 1.391 . S
C2681 C2685 1.376 . S
C2682 C2680 1.394 . S
C2682 C2683 1.369 . S
C2682 C2686 1.531 . S
C2683 C2682 1.369 . S
C2683 C2684 1.410 . S
C2683 C2691 1.503 . S
C2684 C2683 1.410 . S
C2684 C2685 1.392 . S
C2684 C2687 1.511 . S
C2685 C2681 1.376 . S
C2685 C2684 1.392 . S
C2685 H2697 0.929 . S
C2686 C2682 1.531 . S
C2686 H2698 0.960 . S
C2686 H2699 0.962 . S
C2686 H2700 0.960 . S
C2687 C2684 1.511 . S
C2687 H2701 0.961 . S
C2687 H2702 0.961 . S
C2687 H2703 0.961 . S
C2688 C2689 1.370 . S
C2688 C2690 1.363 . S
C2688 H2704 0.931 . S
C2689 C2688 1.370 . S
C2689 C2693 1.408 . S
C2690 C2688 1.363 . S
C2690 C2691 1.370 . S
C2690 C2694 1.524 . S
C2691 C2683 1.503 . S
C2691 C2690 1.370 . S
C2691 C2692 1.403 . S
C2692 C2691 1.403 . S
C2692 C2693 1.404 . S
C2692 C2695 1.539 . S
C2693 C2689 1.408 . S
C2693 C2692 1.404 . S
C2693 H2705 0.930 . S
C2694 C2690 1.524 . S
C2694 H2706 0.956 . S
C2694 H2707 0.961 . S
C2694 H2708 0.961 . S
C2695 C2692 1.539 . S
C2695 H2709 0.958 . S
C2695 H2710 0.961 . S
C2695 H2711 0.960 . S
H2696 C2680 0.931 . S
H2697 C2685 0.929 . S
H2698 C2686 0.960 . S
H2699 C2686 0.962 . S
H2700 C2686 0.960 . S
H2701 C2687 0.961 . S
H2702 C2687 0.961 . S
H2703 C2687 0.961 . S
H2704 C2688 0.931 . S
H2705 C2693 0.930 . S
H2706 C2694 0.956 . S
H2707 C2694 0.961 . S
H2708 C2694 0.961 . S
H2709 C2695 0.958 . S
H2710 C2695 0.961 . S
H2711 C2695 0.960 . S
C793 N13 0.883 . S
C801 N112 0.867 . S
C825 N145 0.913 . S
C833 N46 0.877 . S
C857 N178 0.897 . S
C865 N79 0.863 . S
C889 N310 0.855 . S
C897 N211 0.857 . S
C921 N244 0.876 . S
C929 N343 0.865 . S
C953 N277 0.797 . S
C961 N376 0.822 . S
C985 N508 0.783 . S
C993 N409 0.833 . S
C1017 N541 0.827 . S
C1025 N442 0.855 . S
C1049 N574 0.775 . S
C1057 N475 0.827 . S
C1081 N706 0.919 . S
C1089 N607 0.874 . S
C1113 N640 0.881 . S
C1121 N739 0.845 . S
C1145 N772 0.919 . S
C1153 N673 0.872 . S
C1177 N266 1.784 . S
C1185 N2 1.784 . S
C1209 N35 1.776 . S
C1217 N299 1.784 . S
C1241 N68 1.784 . S
C1249 N332 1.785 . S
C1273 N101 1.777 . S
C1281 N365 1.786 . S
C1305 N134 1.781 . S
C1313 N200 1.786 . S
C1337 N233 1.776 . S
C1345 N167 1.785 . S
C1369 N398 1.781 . S
C1377 N662 1.783 . S
C1401 N695 1.784 . S
C1409 N431 1.784 . S
C1433 N728 1.780 . S
C1441 N464 1.783 . S
C1465 N497 1.778 . S
C1473 N761 1.786 . S
C1497 N596 1.783 . S
C1505 N530 1.785 . S
C1529 N629 1.780 . S
C1537 N563 1.783 . S
C1561 C21 0.728 . S
C1569 C252 0.685 . S
C1593 C54 0.728 . S
C1601 C285 0.685 . S
C1625 C318 0.634 . S
C1633 C87 0.647 . S
C1657 C120 0.616 . S
C1665 C351 0.636 . S
C1689 C384 0.708 . S
C1697 C153 0.675 . S
C1721 C219 0.710 . S
C1729 C186 0.678 . S
C1753 C417 0.725 . S
C1761 C648 0.685 . S
C1785 C450 0.635 . S
C1793 C681 0.654 . S
C1817 C483 0.580 . S
C1825 C714 0.626 . S
C1849 C516 0.707 . S
C1857 C747 0.681 . S
C1881 C549 0.620 . S
C1889 C780 0.632 . S
C1913 C615 0.699 . S
C1921 C582 0.665 . S
C1945 C7 1.021 . S
C1953 C337 0.995 . S
C1977 C370 1.018 . S
C1985 C40 0.986 . S
C2009 C205 1.022 . S
C2017 C73 0.995 . S
C2041 C238 0.966 . S
C2049 C106 0.965 . S
C2073 C139 1.008 . S
C2081 C271 0.979 . S
C2105 C172 1.010 . S
C2113 C304 0.980 . S
C2137 C403 0.951 . S
C2145 C733 0.965 . S
C2169 C766 1.014 . S
C2177 C436 0.996 . S
C2201 C601 0.968 . S
C2209 C469 0.996 . S
C2233 C502 0.940 . S
C2241 C634 0.970 . S
C2265 C535 0.956 . S
C2273 C667 0.992 . S
C2297 C700 0.951 . S
C2305 C568 0.990 . S
C2329 C18 1.147 . S
C2337 C513 1.158 . S
C2361 C51 1.166 . S
C2369 C546 1.166 . S
C2393 C84 1.179 . S
C2401 C579 1.170 . S
C2425 C117 1.161 . S
C2433 C414 1.161 . S
C2457 C150 1.140 . S
C2465 C447 1.154 . S
C2489 C480 1.147 . S
C2497 C183 1.158 . S
C2521 C216 1.163 . S
C2529 C711 1.165 . S
C2553 C249 1.170 . S
C2561 C744 1.166 . S
C2585 C282 1.143 . S
C2593 C777 1.156 . S
C2617 C315 1.148 . S
C2625 C612 1.156 . S
C2649 C348 1.172 . S
C2657 C645 1.166 . S
C2681 C678 1.140 . S
C2689 C381 1.154 . S
