# Generated by pormake.
# Topology sml, (6)-cn, num edge types: 1
# Building blocks:
#     Node 0, Type 0, BuildingBlock: FUNLAD_clean_sbu_0, # of connection points: 6
#     Node 1, Type 0, BuildingBlock: FUNLAD_clean_sbu_0, # of connection points: 6
#     Node 2, Type 0, BuildingBlock: FUNLAD_clean_sbu_0, # of connection points: 6
#     Node 3, Type 0, BuildingBlock: FUNLAD_clean_sbu_0, # of connection points: 6
#     Node 4, Type 0, BuildingBlock: FUNLAD_clean_sbu_0, # of connection points: 6
#     Node 5, Type 0, BuildingBlock: FUNLAD_clean_sbu_0, # of connection points: 6
#     Edge 6, Type (0, 0), BuildingBlock: AJUNOK_clean_linker_0, # of connection points: 2
#     Edge 7, Type (0, 0), BuildingBlock: AJUNOK_clean_linker_0, # of connection points: 2
#     Edge 8, Type (0, 0), BuildingBlock: AJUNOK_clean_linker_0, # of connection points: 2
#     Edge 9, Type (0, 0), BuildingBlock: AJUNOK_clean_linker_0, # of connection points: 2
#     Edge 10, Type (0, 0), BuildingBlock: AJUNOK_clean_linker_0, # of connection points: 2
#     Edge 11, Type (0, 0), BuildingBlock: AJUNOK_clean_linker_0, # of connection points: 2
#     Edge 12, Type (0, 0), BuildingBlock: AJUNOK_clean_linker_0, # of connection points: 2
#     Edge 13, Type (0, 0), BuildingBlock: AJUNOK_clean_linker_0, # of connection points: 2
#     Edge 14, Type (0, 0), BuildingBlock: AJUNOK_clean_linker_0, # of connection points: 2
#     Edge 15, Type (0, 0), BuildingBlock: AJUNOK_clean_linker_0, # of connection points: 2
#     Edge 16, Type (0, 0), BuildingBlock: AJUNOK_clean_linker_0, # of connection points: 2
#     Edge 17, Type (0, 0), BuildingBlock: AJUNOK_clean_linker_0, # of connection points: 2
#     Edge 18, Type (0, 0), BuildingBlock: AJUNOK_clean_linker_0, # of connection points: 2
#     Edge 19, Type (0, 0), BuildingBlock: AJUNOK_clean_linker_0, # of connection points: 2
#     Edge 20, Type (0, 0), BuildingBlock: AJUNOK_clean_linker_0, # of connection points: 2
#     Edge 21, Type (0, 0), BuildingBlock: AJUNOK_clean_linker_0, # of connection points: 2
#     Edge 22, Type (0, 0), BuildingBlock: AJUNOK_clean_linker_0, # of connection points: 2
#     Edge 23, Type (0, 0), BuildingBlock: AJUNOK_clean_linker_0, # of connection points: 2
# Relax obj value: 0.427
# Max RMSD: 0.217
# Mean RMSD: 0.217
data_MOF--net-sml--node1-FUNLAD_clean_sbu_0--edge1-AJUNOK_clean_linker_0
_symmetry_space_group_name_H-M    P1
_symmetry_Int_Tables_number       1
_symmetry_cell_setting            triclinic
loop_
_symmetry_equiv_pos_as_xyz
'x, y, z'
_cell_length_a     36.907566
_cell_length_b     36.964604
_cell_length_c     11.2109
_cell_angle_alpha  89.662609
_cell_angle_beta   90.109162
_cell_angle_gamma 120.07998
loop_
_atom_site_label
_atom_site_type_symbol
_atom_site_fract_x
_atom_site_fract_y
_atom_site_fract_z
_atom_type_partial_charge
C0 C 0.16855 0.42318 0.83792 0.0
N1 N 0.1873 0.34216 0.06113 0.0
C2 C 0.16558 0.31405 -0.02635 0.0
C3 C 0.17855 0.2865 0.9331 0.0
C4 C 0.21412 0.28781 -0.01669 0.0
C5 C 0.23382 0.31485 0.0796 0.0
C6 C 0.21992 0.34186 0.11708 0.0
Zn7 Zn 0.18156 0.39471 0.08229 0.0
C8 C 0.26343 0.47082 0.02752 0.0
N9 N 0.17632 0.50834 0.1075 0.0
C10 C 0.1417 0.51242 0.09722 0.0
C11 C 0.21174 0.53898 0.15988 0.0
C12 C 0.21321 0.57452 0.20588 0.0
C13 C 0.1776 0.57883 0.20237 0.0
C14 C 0.14161 0.54757 0.14469 0.0
Zn15 Zn 0.17663 0.45282 0.07877 0.0
O16 O 0.17338 0.39623 0.89597 0.0
C17 C 0.09364 0.37724 0.12698 0.0
O18 O 0.16564 0.45149 0.89418 0.0
H19 H 0.23856 0.53514 0.17314 0.0
H20 H 0.14012 0.31507 0.92889 0.0
H21 H 0.11347 0.48757 0.05774 0.0
O22 O 0.11434 0.35835 0.11221 0.0
O23 O 0.11246 0.41681 0.11584 0.0
H24 H 0.23729 0.3648 0.18493 0.0
O25 O 0.18781 0.45336 0.26178 0.0
O26 O 0.18971 0.39517 0.27036 0.0
O27 O 0.24031 0.48688 0.03693 0.0
O28 O 0.24831 0.43222 0.05089 0.0
C29 C 0.19026 0.42582 0.32325 0.0
H30 H 0.16274 0.26661 0.85762 0.0
H31 H 0.26119 0.31672 0.12134 0.0
H32 H 0.24188 0.59792 0.24776 0.0
H33 H 0.11318 0.54926 0.14096 0.0
C34 C 0.83929 0.25213 0.55224 0.0
N35 N 0.82914 0.15675 0.33333 0.0
C36 C 0.8557 0.15415 0.41279 0.0
C37 C 0.84705 0.11528 0.45825 0.0
C38 C 0.81044 0.07889 0.42279 0.0
C39 C 0.78576 0.08229 0.33268 0.0
C40 C 0.79576 0.12168 0.28887 0.0
Zn41 Zn 0.83073 0.2127 0.31052 0.0
C42 C 0.74526 0.20119 0.34983 0.0
N43 N 0.82929 0.32809 0.28063 0.0
C44 C 0.8621 0.36708 0.30287 0.0
C45 C 0.79497 0.32316 0.22071 0.0
C46 C 0.79271 0.35755 0.17999 0.0
C47 C 0.82654 0.39807 0.1969 0.0
C48 C 0.86148 0.40271 0.26097 0.0
Zn49 Zn 0.83097 0.27341 0.30875 0.0
O50 O 0.83869 0.22214 0.49579 0.0
C51 C 0.91693 0.28573 0.27095 0.0
O52 O 0.83826 0.28139 0.49455 0.0
H53 H 0.7697 0.29236 0.19882 0.0
H54 H 0.88196 0.18239 0.4475 0.0
H55 H 0.88949 0.3706 0.34864 0.0
O56 O 0.89745 0.246 0.28129 0.0
O57 O 0.89655 0.30492 0.2821 0.0
H58 H 0.77489 0.12439 0.22632 0.0
O59 O 0.82347 0.26436 0.12584 0.0
O60 O 0.82254 0.20465 0.12244 0.0
O61 O 0.7657 0.24051 0.33651 0.0
O62 O 0.76408 0.18047 0.34184 0.0
C63 C 0.82146 0.23428 0.06711 0.0
H64 H 0.86764 0.11399 0.52493 0.0
H65 H 0.75728 0.05511 0.30246 0.0
H66 H 0.76484 0.35223 0.13275 0.0
H67 H 0.88865 0.43327 0.27469 0.0
C68 C 0.58519 0.73984 0.51744 0.0
N69 N 0.66608 0.83771 0.73939 0.0
C70 C 0.6969 0.84186 0.66427 0.0
C71 C 0.72771 0.88148 0.62484 0.0
C72 C 0.72673 0.91716 0.66272 0.0
C73 C 0.6959 0.91196 0.74561 0.0
C74 C 0.66594 0.87185 0.78339 0.0
Zn75 Zn 0.61319 0.78023 0.76044 0.0
C76 C 0.53614 0.78494 0.70991 0.0
N77 N 0.5008 0.66132 0.78444 0.0
C78 C 0.49423 0.62331 0.7485 0.0
C79 C 0.47164 0.66445 0.85082 0.0
C80 C 0.43431 0.62907 0.88265 0.0
C81 C 0.42658 0.58969 0.84689 0.0
C82 C 0.45691 0.58665 0.77925 0.0
Zn83 Zn 0.55552 0.71732 0.75919 0.0
O84 O 0.6128 0.77123 0.57452 0.0
C85 C 0.63079 0.71 0.80258 0.0
O86 O 0.55631 0.70906 0.57461 0.0
H87 H 0.47748 0.69457 0.88141 0.0
H88 H 0.69616 0.81432 0.62907 0.0
H89 H 0.51798 0.62136 0.69716 0.0
O90 O 0.64969 0.74975 0.79186 0.0
O91 O 0.5913 0.68928 0.79011 0.0
H92 H 0.64088 0.86788 0.84169 0.0
O93 O 0.55566 0.7265 0.94261 0.0
O94 O 0.61232 0.78807 0.94793 0.0
O95 O 0.52043 0.74594 0.72433 0.0
O96 O 0.57516 0.80897 0.72674 0.0
C97 C 0.58252 0.75725 0.00241 0.0
H98 H 0.75094 0.88405 0.56118 0.0
H99 H 0.69313 0.93831 0.77505 0.0
H100 H 0.41151 0.63242 0.93501 0.0
H101 H 0.4516 0.55653 0.74975 0.0
C102 C 0.74977 0.57324 0.21888 0.0
N103 N 0.84557 0.65324 -0.00505 0.0
C104 C 0.85165 0.68217 0.07919 0.0
C105 C 0.89176 0.70882 0.12399 0.0
C106 C 0.92579 0.70575 0.08095 0.0
C107 C 0.9192 0.67888 -0.01512 0.0
C108 C 0.87856 0.65248 0.9437 0.0
Zn109 Zn 0.78691 0.602 -0.02438 0.0
C110 C 0.7908 0.52285 0.00926 0.0
N111 N 0.66621 0.49179 -0.04225 0.0
C112 C 0.65624 0.45568 0.0167 0.0
C113 C 0.64101 0.49254 0.8698 0.0
C114 C 0.60575 0.45567 0.83285 0.0
C115 C 0.59672 0.41774 0.88601 0.0
C116 C 0.6215 0.41797 -0.01855 0.0
Zn117 Zn 0.72446 0.54388 -0.02274 0.0
O118 O 0.77903 0.60213 0.15857 0.0
C119 C 0.71904 0.62188 0.94427 0.0
O120 O 0.7194 0.5429 0.16534 0.0
H121 H 0.64986 0.52125 0.82196 0.0
H122 H 0.82502 0.68221 0.1191 0.0
H123 H 0.67676 0.45561 0.08556 0.0
O124 O 0.75892 0.64037 0.94644 0.0
O125 O 0.69827 0.58263 -0.03816 0.0
H126 H 0.87308 0.62915 0.87737 0.0
O127 O 0.73086 0.54558 0.79182 0.0
O128 O 0.79396 0.60055 0.79 0.0
O129 O 0.75168 0.50593 -0.00802 0.0
O130 O 0.81341 0.56247 0.00706 0.0
C131 C 0.76267 0.57227 0.73396 0.0
H132 H 0.89556 0.72925 0.19769 0.0
H133 H 0.94485 0.67642 0.94704 0.0
H134 H 0.58766 0.45637 0.75755 0.0
H135 H 0.61553 0.38899 0.02323 0.0
C136 C 0.26113 0.82948 0.20792 0.0
N137 N 0.16417 0.81519 0.42842 0.0
C138 C 0.15843 0.83691 0.33891 0.0
C139 C 0.11834 0.82323 0.29324 0.0
C140 C 0.08404 0.7871 0.34083 0.0
C141 C 0.09034 0.76839 0.44213 0.0
C142 C 0.13092 0.78275 0.48399 0.0
Zn143 Zn 0.22179 0.82022 0.44983 0.0
C144 C 0.214 0.73581 0.41234 0.0
N145 N 0.33952 0.82404 0.47629 0.0
C146 C 0.37718 0.8557 0.43707 0.0
C147 C 0.33725 0.79251 0.54522 0.0
C148 C 0.37324 0.79156 0.57608 0.0
C149 C 0.41228 0.82345 0.53677 0.0
C150 C 0.41437 0.85604 0.46677 0.0
Zn151 Zn 0.28328 0.82226 0.45174 0.0
O152 O 0.23087 0.82842 0.26455 0.0
C153 C 0.29235 0.90696 0.48715 0.0
O154 O 0.29067 0.82904 0.26546 0.0
H155 H 0.30741 0.76813 0.57847 0.0
H156 H 0.18524 0.86258 0.2957 0.0
H157 H 0.37844 0.88081 0.38385 0.0
O158 O 0.25253 0.88687 0.47778 0.0
O159 O 0.31223 0.88734 0.47492 0.0
H160 H 0.13609 0.76564 0.55415 0.0
O161 O 0.27502 0.81526 0.63515 0.0
O162 O 0.21402 0.81179 0.63832 0.0
O163 O 0.25323 0.75712 0.42794 0.0
O164 O 0.19229 0.75369 0.41895 0.0
C165 C 0.24424 0.81197 0.69375 0.0
H166 H 0.11474 0.83871 0.21556 0.0
H167 H 0.06449 0.74112 0.48344 0.0
H168 H 0.37061 0.76597 0.63033 0.0
H169 H 0.44418 0.88101 0.43447 0.0
C170 C 0.43147 0.16107 0.89352 0.0
N171 N 0.35161 0.18044 0.67259 0.0
C172 C 0.32207 0.15732 0.75612 0.0
C173 C 0.29455 0.17019 0.79805 0.0
C174 C 0.29729 0.20705 0.75291 0.0
C175 C 0.32585 0.22832 0.66013 0.0
C176 C 0.35279 0.21448 0.62124 0.0
Zn177 Zn 0.40334 0.17323 0.65012 0.0
C178 C 0.48232 0.25523 0.68679 0.0
N179 N 0.51495 0.16442 0.62188 0.0
C180 C 0.52082 0.13181 0.65062 0.0
C181 C 0.54355 0.19674 0.55357 0.0
C182 C 0.57888 0.19708 0.51014 0.0
C183 C 0.58486 0.16315 0.53256 0.0
C184 C 0.55597 0.13061 0.60682 0.0
Zn185 Zn 0.46071 0.16688 0.65143 0.0
O186 O 0.40467 0.16537 0.83361 0.0
C187 C 0.38361 0.0843 0.61704 0.0
O188 O 0.46101 0.15943 0.83948 0.0
H189 H 0.53825 0.22181 0.52711 0.0
H190 H 0.32177 0.13054 0.79661 0.0
H191 H 0.4976 0.10604 0.70346 0.0
O192 O 0.36542 0.10593 0.62464 0.0
O193 O 0.42319 0.10254 0.62802 0.0
H194 H 0.37665 0.23272 0.55581 0.0
O195 O 0.45888 0.17417 0.46574 0.0
O196 O 0.40314 0.18082 0.46422 0.0
O197 O 0.49708 0.23104 0.67716 0.0
O198 O 0.44299 0.24009 0.67695 0.0
C199 C 0.43167 0.17836 0.40788 0.0
H200 H 0.27342 0.15308 0.87065 0.0
H201 H 0.32878 0.25668 0.6221 0.0
H202 H 0.60095 0.22349 0.45667 0.0
H203 H 0.55974 0.10402 0.62728 0.0
C204 C 0.29679 0.26858 0.84335 0.0
C205 C 0.27447 0.22615 0.81077 0.0
C206 C 0.27702 0.28773 0.90023 0.0
C207 C 0.23392 0.26544 0.92679 0.0
H208 H 0.33009 0.28718 0.82592 0.0
H209 H 0.29566 0.3206 0.92203 0.0
S210 S 0.16106 0.15353 0.86078 0.0
N211 N 0.20671 0.1623 0.80938 0.0
N212 N 0.1695 0.19834 0.91687 0.0
C213 C 0.2111 0.22297 0.8948 0.0
C214 C 0.23138 0.2033 0.83726 0.0
C215 C 1.02643 0.31028 0.17439 0.0
C216 C 0.04855 0.35418 0.16314 0.0
C217 C 0.98424 0.28841 0.21127 0.0
C218 C 0.96235 0.3095 0.23878 0.0
H219 H 0.04174 0.29254 0.15437 0.0
H220 H 0.96859 0.25463 0.21707 0.0
S221 S 1.00613 0.42461 0.22785 0.0
N222 N 0.04516 0.41798 0.18554 0.0
N223 N 0.96667 0.37721 0.25446 0.0
C224 C 0.98428 0.35345 0.22914 0.0
C225 C 1.02705 0.37565 0.19144 0.0
C226 C 0.77802 1.00072 0.42217 0.0
C227 C 0.79526 0.03829 0.48671 0.0
C228 C 0.75788 0.96176 0.48028 0.0
C229 C 0.75407 0.9587 0.60547 0.0
H230 H 0.77894 1.00141 0.32557 0.0
H231 H 0.74342 0.93384 0.42609 0.0
S232 S 0.79677 0.04752 0.81683 0.0
N233 N 0.8088 0.06983 0.68372 0.0
N234 N 0.77234 0.99667 0.7926 0.0
C235 C 0.77304 0.99598 0.67144 0.0
C236 C 0.79336 0.0357 0.61228 0.0
C237 C 0.69679 0.70936 0.85982 0.0
C238 C 0.65345 0.68749 0.83607 0.0
C239 C 0.71787 0.68823 0.89638 0.0
C240 C 0.69636 0.64445 0.91166 0.0
H241 H 0.71461 0.74306 0.85053 0.0
H242 H 0.75125 0.70637 0.91265 0.0
S243 S 0.58263 0.57232 0.85934 0.0
N244 N 0.59 0.61918 0.8287 0.0
N245 N 0.62898 0.58005 0.89888 0.0
C246 C 0.65297 0.62232 0.88834 0.0
C247 C 0.63173 0.64364 0.85012 0.0
C248 C 1.02396 0.78877 0.23872 0.0
C249 C 0.04331 0.76614 0.2765 0.0
C250 C 0.98605 0.76926 0.17495 0.0
C251 C 0.96658 0.72662 0.14495 0.0
H252 H 0.03806 0.82169 0.25942 0.0
H253 H 0.97204 0.78771 0.1482 0.0
S254 S 1.00483 0.65366 0.22154 0.0
N255 N 0.04057 0.699 0.27661 0.0
N256 N 0.96915 0.66228 0.16018 0.0
C257 C 0.98571 0.70375 0.18212 0.0
C258 C 1.02409 0.72351 0.24696 0.0
C259 C 0.3172 0.01837 0.55809 0.0
C260 C 0.35999 0.03871 0.58877 0.0
C261 C 0.29548 0.97594 0.52456 0.0
C262 C 0.31571 0.95218 0.51969 0.0
H263 H 0.3004 0.0354 0.5587 0.0
H264 H 0.26263 0.96176 0.50176 0.0
S265 S 0.42717 0.99003 0.59629 0.0
N266 N 0.42131 0.03096 0.61564 0.0
N267 N 0.38102 0.95225 0.55226 0.0
C268 C 0.3584 0.97212 0.55137 0.0
C269 C 0.38034 1.01501 0.58602 0.0
C270 C 0.17224 0.39059 0.64695 0.0
C271 C 0.1721 0.4241 0.70606 0.0
C272 C 0.17975 0.39201 0.5241 0.0
C273 C 0.18758 0.42705 0.45511 0.0
H274 H 0.16664 0.36291 0.69598 0.0
H275 H 0.17868 0.36507 0.48281 0.0
S276 S 0.19224 0.52392 0.56699 0.0
N277 N 0.18134 0.49381 0.68619 0.0
N278 N 0.19586 0.49682 0.45595 0.0
C279 C 0.18805 0.46108 0.51331 0.0
C280 C 0.18007 0.45947 0.63834 0.0
C281 C 0.83551 0.21338 0.8685 0.0
C282 C 0.82298 0.23724 0.93538 0.0
C283 C 0.84192 0.2194 0.7452 0.0
C284 C 0.8361 0.24954 0.68392 0.0
H285 H 0.8413 0.19049 0.91184 0.0
H286 H 0.85148 0.20013 0.69761 0.0
S287 S 0.80087 0.31846 0.81713 0.0
N288 N 0.80313 0.291 0.93047 0.0
N289 N 0.81546 0.30238 0.69924 0.0
C290 C 0.82307 0.27328 0.74956 0.0
C291 C 0.81632 0.26701 0.87498 0.0
C292 C 0.61792 0.77571 0.32498 0.0
C293 C 0.58425 0.74227 0.38568 0.0
C294 C 0.61654 0.78135 0.20177 0.0
C295 C 0.58139 0.75385 0.13424 0.0
H296 H 0.6457 0.79793 0.37297 0.0
H297 H 0.64359 0.80704 0.15905 0.0
S298 S 0.48406 0.6622 0.25062 0.0
N299 N 0.51426 0.68178 0.3689 0.0
N300 N 0.51134 0.69251 0.13802 0.0
C301 C 0.5472 0.72056 0.19406 0.0
C302 C 0.54876 0.71466 0.31938 0.0
C303 C 0.72244 0.54677 0.54467 0.0
C304 C 0.76103 0.57194 0.60246 0.0
C305 C 0.71889 0.54753 0.42066 0.0
C306 C 0.75374 0.57358 0.34982 0.0
H307 H 0.69441 0.52668 0.59554 0.0
H308 H 0.68855 0.52781 0.38029 0.0
S309 S 0.86273 0.64288 0.4562 0.0
N310 N 0.83528 0.62185 0.5788 0.0
N311 N 0.82887 0.62333 0.34561 0.0
C312 C 0.7928 0.59827 0.40615 0.0
C313 C 0.79638 0.59742 0.53247 0.0
C314 C 0.22281 0.82576 0.89182 0.0
C315 C 0.24683 0.81328 0.82536 0.0
C316 C 0.22858 0.83207 0.01502 0.0
C317 C 0.25863 0.8262 0.07646 0.0
H318 H 0.20004 0.83166 0.84816 0.0
H319 H 0.20925 0.84168 0.06237 0.0
S320 S 0.3275 0.79057 0.9445 0.0
N321 N 0.30037 0.7931 0.83089 0.0
N322 N 0.31129 0.80521 0.06201 0.0
C323 C 0.28241 0.81306 0.0113 0.0
C324 C 0.2764 0.80643 0.88601 0.0
C325 C 0.4662 0.17837 0.21657 0.0
C326 C 0.43127 0.17553 0.27639 0.0
C327 C 0.46561 0.17216 0.09332 0.0
C328 C 0.43002 0.16277 0.02516 0.0
H329 H 0.49436 0.18544 0.26529 0.0
H330 H 0.49353 0.17556 0.05107 0.0
S331 S 0.32945 0.14949 0.1397 0.0
N332 N 0.35965 0.16134 0.25855 0.0
N333 N 0.3582 0.14925 0.02758 0.0
C334 C 0.39461 0.15921 0.08424 0.0
C335 C 0.39536 0.16582 0.20952 0.0
C336 C 0.19904 0.62788 0.37566 0.0
C337 C 0.17884 0.6152 0.26408 0.0
C338 C 0.20786 0.66585 0.42727 0.0
C339 C 0.19568 0.69216 0.37159 0.0
H340 H 0.20984 0.60914 0.42134 0.0
H341 H 0.2258 0.67548 0.50923 0.0
S342 S 0.13917 0.67268 0.08429 0.0
N343 N 0.14511 0.63156 0.10277 0.0
N344 N 0.16021 0.70222 0.20298 0.0
C345 C 0.17284 0.67873 0.26465 0.0
C346 C 0.16462 0.64035 0.21033 0.0
C347 C 0.68894 0.16611 0.50241 0.0
C348 C 0.70095 0.18126 0.38525 0.0
C349 C 0.64975 0.15716 0.54797 0.0
C350 C 0.62149 0.16301 0.47733 0.0
H351 H 0.71107 0.16406 0.56171 0.0
H352 H 0.6428 0.14842 0.64105 0.0
S353 S 0.63593 0.19512 0.15837 0.0
N354 N 0.68032 0.19745 0.1962 0.0
N355 N 0.60611 0.17889 0.27881 0.0
C356 C 0.632 0.17461 0.35677 0.0
C357 C 0.67197 0.18433 0.31157 0.0
C358 C 0.34113 0.49769 0.01812 0.0
C359 C 0.30495 0.49601 -0.02885 0.0
C360 C 0.38102 0.52624 -0.02815 0.0
C361 C 0.38545 0.55307 0.87627 0.0
H362 H 0.33878 0.47861 0.09466 0.0
H363 H 0.40856 0.52891 0.01488 0.0
S364 S 0.30001 0.55597 0.71096 0.0
N365 N 0.27591 0.52023 0.8158 0.0
N366 N 0.35046 0.57318 0.7293 0.0
C367 C 0.34931 0.54942 0.82384 0.0
C368 C 0.30911 0.52099 0.87115 0.0
C369 C 0.80704 0.43011 0.02889 0.0
C370 C 0.82472 0.43425 0.14333 0.0
C371 C 0.79821 0.46016 -0.01714 0.0
C372 C 0.8081 0.49633 0.04734 0.0
H373 H 0.79841 0.40254 -0.02408 0.0
H374 H 0.78237 0.45446 0.8977 0.0
S375 S 0.85692 0.52426 0.34672 0.0
N376 N 0.85299 0.47862 0.31805 0.0
N377 N 0.83827 0.5361 0.22804 0.0
C378 C 0.82822 0.50246 0.15806 0.0
C379 C 0.83627 0.47128 0.20672 0.0
C380 C 0.47795 0.8443 0.65415 0.0
C381 C 0.44958 0.81993 0.56421 0.0
C382 C 0.50794 0.83459 0.6982 0.0
C383 C 0.50966 0.7999 0.65442 0.0
H384 H 0.4755 0.86952 0.69466 0.0
H385 H 0.52817 0.85277 0.7708 0.0
S386 S 0.44583 0.73013 0.40823 0.0
N387 N 0.42793 0.76272 0.42536 0.0
N388 N 0.48363 0.74427 0.50738 0.0
C389 C 0.48307 0.77711 0.55959 0.0
C390 C 0.45312 0.78716 0.51471 0.0
C391 C 0.52353 0.36102 0.83589 0.0
C392 C 0.5671 0.37792 0.82794 0.0
C393 C 0.49579 0.3221 0.78417 0.0
C394 C 0.51094 0.29923 0.72242 0.0
H395 H 0.51093 0.37738 0.88509 0.0
H396 H 0.46245 0.30915 0.79681 0.0
S397 S 0.6228 0.33366 0.66391 0.0
N398 N 0.62415 0.37133 0.74554 0.0
N399 N 0.57271 0.299 0.64682 0.0
C400 C 0.55462 0.31734 0.70879 0.0
C401 C 0.58253 0.35647 0.76204 0.0
loop_
_geom_bond_atom_site_label_1
_geom_bond_atom_site_label_2
_geom_bond_distance
_geom_bond_site_symmetry_2
_ccdc_geom_bond_type
C0 O16 1.251 . S
C0 O18 1.254 . S
N1 C2 1.333 . S
N1 C6 1.307 . S
N1 Zn7 2.020 . S
C2 N1 1.333 . S
C2 C3 1.379 1_554 S
C2 H20 0.952 1_554 S
C3 C2 1.379 1_556 S
C3 C4 1.390 1_556 S
C3 H30 0.949 . S
C4 C3 1.390 1_554 S
C4 C5 1.357 . S
C5 C4 1.357 . S
C5 C6 1.370 . S
C5 H31 0.950 . S
C6 N1 1.307 . S
C6 C5 1.370 . S
C6 H24 0.948 . S
Zn7 N1 2.020 . S
Zn7 O16 2.039 1_554 S
Zn7 O22 2.034 . S
Zn7 O26 2.025 . S
Zn7 O28 2.024 . S
C8 O27 1.246 . S
C8 O28 1.249 . S
N9 C10 1.307 . S
N9 C11 1.333 . S
N9 Zn15 2.020 . S
C10 N9 1.307 . S
C10 C14 1.370 . S
C10 H21 0.948 . S
C11 N9 1.333 . S
C11 C12 1.379 . S
C11 H19 0.952 . S
C12 C11 1.379 . S
C12 C13 1.390 . S
C12 H32 0.949 . S
C13 C12 1.390 . S
C13 C14 1.357 . S
C14 C10 1.370 . S
C14 C13 1.357 . S
C14 H33 0.950 . S
Zn15 N9 2.020 . S
Zn15 O18 2.025 1_554 S
Zn15 O23 2.024 . S
Zn15 O25 2.039 . S
Zn15 O27 2.034 . S
O16 C0 1.251 . S
O16 Zn7 2.039 1_556 S
C17 O22 1.246 . S
C17 O23 1.249 . S
O18 C0 1.254 . S
O18 Zn15 2.025 1_556 S
H19 C11 0.952 . S
H20 C2 0.952 1_556 S
H21 C10 0.948 . S
O22 Zn7 2.034 . S
O22 C17 1.246 . S
O23 Zn15 2.024 . S
O23 C17 1.249 . S
H24 C6 0.948 . S
O25 Zn15 2.039 . S
O25 C29 1.251 . S
O26 Zn7 2.025 . S
O26 C29 1.254 . S
O27 C8 1.246 . S
O27 Zn15 2.034 . S
O28 Zn7 2.024 . S
O28 C8 1.249 . S
C29 O25 1.251 . S
C29 O26 1.254 . S
H30 C3 0.949 . S
H31 C5 0.950 . S
H32 C12 0.949 . S
H33 C14 0.950 . S
C34 O50 1.251 . S
C34 O52 1.254 . S
N35 C36 1.333 . S
N35 C40 1.307 . S
N35 Zn41 2.020 . S
C36 N35 1.333 . S
C36 C37 1.379 . S
C36 H54 0.952 . S
C37 C36 1.379 . S
C37 C38 1.390 . S
C37 H64 0.949 . S
C38 C37 1.390 . S
C38 C39 1.357 . S
C39 C38 1.357 . S
C39 C40 1.370 . S
C39 H65 0.950 . S
C40 N35 1.307 . S
C40 C39 1.370 . S
C40 H58 0.948 . S
Zn41 N35 2.020 . S
Zn41 O50 2.039 . S
Zn41 O56 2.034 . S
Zn41 O60 2.025 . S
Zn41 O62 2.024 . S
C42 O61 1.246 . S
C42 O62 1.249 . S
N43 C44 1.307 . S
N43 C45 1.333 . S
N43 Zn49 2.020 . S
C44 N43 1.307 . S
C44 C48 1.370 . S
C44 H55 0.948 . S
C45 N43 1.333 . S
C45 C46 1.379 . S
C45 H53 0.952 . S
C46 C45 1.379 . S
C46 C47 1.390 . S
C46 H66 0.949 . S
C47 C46 1.390 . S
C47 C48 1.357 . S
C48 C44 1.370 . S
C48 C47 1.357 . S
C48 H67 0.950 . S
Zn49 N43 2.020 . S
Zn49 O52 2.025 . S
Zn49 O57 2.024 . S
Zn49 O59 2.039 . S
Zn49 O61 2.034 . S
O50 C34 1.251 . S
O50 Zn41 2.039 . S
C51 O56 1.246 . S
C51 O57 1.249 . S
O52 C34 1.254 . S
O52 Zn49 2.025 . S
H53 C45 0.952 . S
H54 C36 0.952 . S
H55 C44 0.948 . S
O56 Zn41 2.034 . S
O56 C51 1.246 . S
O57 Zn49 2.024 . S
O57 C51 1.249 . S
H58 C40 0.948 . S
O59 Zn49 2.039 . S
O59 C63 1.251 . S
O60 Zn41 2.025 . S
O60 C63 1.254 . S
O61 C42 1.246 . S
O61 Zn49 2.034 . S
O62 Zn41 2.024 . S
O62 C42 1.249 . S
C63 O59 1.251 . S
C63 O60 1.254 . S
H64 C37 0.949 . S
H65 C39 0.950 . S
H66 C46 0.949 . S
H67 C48 0.950 . S
C68 O84 1.251 . S
C68 O86 1.254 . S
N69 C70 1.333 . S
N69 C74 1.307 . S
N69 Zn75 2.020 . S
C70 N69 1.333 . S
C70 C71 1.379 . S
C70 H88 0.952 . S
C71 C70 1.379 . S
C71 C72 1.390 . S
C71 H98 0.949 . S
C72 C71 1.390 . S
C72 C73 1.357 . S
C73 C72 1.357 . S
C73 C74 1.370 . S
C73 H99 0.950 . S
C74 N69 1.307 . S
C74 C73 1.370 . S
C74 H92 0.948 . S
Zn75 N69 2.020 . S
Zn75 O84 2.039 . S
Zn75 O90 2.034 . S
Zn75 O94 2.025 1_556 S
Zn75 O96 2.024 . S
C76 O95 1.246 . S
C76 O96 1.249 . S
N77 C78 1.307 . S
N77 C79 1.333 . S
N77 Zn83 2.020 . S
C78 N77 1.307 . S
C78 C82 1.370 . S
C78 H89 0.948 . S
C79 N77 1.333 . S
C79 C80 1.379 1_556 S
C79 H87 0.952 1_556 S
C80 C79 1.379 1_554 S
C80 C81 1.390 1_554 S
C80 H100 0.949 . S
C81 C80 1.390 1_556 S
C81 C82 1.357 . S
C82 C78 1.370 . S
C82 C81 1.357 . S
C82 H101 0.950 . S
Zn83 N77 2.020 . S
Zn83 O86 2.025 . S
Zn83 O91 2.024 . S
Zn83 O93 2.039 1_556 S
Zn83 O95 2.034 . S
O84 C68 1.251 . S
O84 Zn75 2.039 . S
C85 O90 1.246 . S
C85 O91 1.249 . S
O86 C68 1.254 . S
O86 Zn83 2.025 . S
H87 C79 0.952 1_554 S
H88 C70 0.952 . S
H89 C78 0.948 . S
O90 Zn75 2.034 . S
O90 C85 1.246 . S
O91 Zn83 2.024 . S
O91 C85 1.249 . S
H92 C74 0.948 . S
O93 Zn83 2.039 1_554 S
O93 C97 1.251 . S
O94 Zn75 2.025 1_554 S
O94 C97 1.254 . S
O95 C76 1.246 . S
O95 Zn83 2.034 . S
O96 Zn75 2.024 . S
O96 C76 1.249 . S
C97 O93 1.251 . S
C97 O94 1.254 . S
H98 C71 0.949 . S
H99 C73 0.950 . S
H100 C80 0.949 . S
H101 C82 0.950 . S
C102 O118 1.251 . S
C102 O120 1.254 . S
N103 C104 1.333 . S
N103 C108 1.307 1_554 S
N103 Zn109 2.020 . S
C104 N103 1.333 . S
C104 C105 1.379 . S
C104 H122 0.952 . S
C105 C104 1.379 . S
C105 C106 1.390 . S
C105 H132 0.949 . S
C106 C105 1.390 . S
C106 C107 1.357 1_554 S
C107 C106 1.357 1_556 S
C107 C108 1.370 . S
C107 H133 0.950 . S
C108 N103 1.307 1_556 S
C108 C107 1.370 . S
C108 H126 0.948 . S
Zn109 N103 2.020 . S
Zn109 O118 2.039 . S
Zn109 O124 2.034 1_554 S
Zn109 O128 2.025 1_554 S
Zn109 O130 2.024 . S
C110 O129 1.246 . S
C110 O130 1.249 . S
N111 C112 1.307 1_556 S
N111 C113 1.333 . S
N111 Zn117 2.020 . S
C112 N111 1.307 1_554 S
C112 C116 1.370 . S
C112 H123 0.948 . S
C113 N111 1.333 . S
C113 C114 1.379 . S
C113 H121 0.952 . S
C114 C113 1.379 . S
C114 C115 1.390 . S
C114 H134 0.949 . S
C115 C114 1.390 . S
C115 C116 1.357 1_556 S
C116 C112 1.370 . S
C116 C115 1.357 1_554 S
C116 H135 0.950 . S
Zn117 N111 2.020 . S
Zn117 O120 2.025 1_556 S
Zn117 O125 2.024 . S
Zn117 O127 2.039 . S
Zn117 O129 2.034 1_556 S
O118 C102 1.251 . S
O118 Zn109 2.039 . S
C119 O124 1.246 . S
C119 O125 1.249 . S
O120 C102 1.254 . S
O120 Zn117 2.025 1_554 S
H121 C113 0.952 . S
H122 C104 0.952 . S
H123 C112 0.948 . S
O124 Zn109 2.034 1_556 S
O124 C119 1.246 . S
O125 Zn117 2.024 . S
O125 C119 1.249 . S
H126 C108 0.948 . S
O127 Zn117 2.039 . S
O127 C131 1.251 . S
O128 Zn109 2.025 1_556 S
O128 C131 1.254 . S
O129 C110 1.246 . S
O129 Zn117 2.034 1_554 S
O130 Zn109 2.024 . S
O130 C110 1.249 . S
C131 O127 1.251 . S
C131 O128 1.254 . S
H132 C105 0.949 . S
H133 C107 0.950 . S
H134 C114 0.949 . S
H135 C116 0.950 . S
C136 O152 1.251 . S
C136 O154 1.254 . S
N137 C138 1.333 . S
N137 C142 1.307 . S
N137 Zn143 2.020 . S
C138 N137 1.333 . S
C138 C139 1.379 . S
C138 H156 0.952 . S
C139 C138 1.379 . S
C139 C140 1.390 . S
C139 H166 0.949 . S
C140 C139 1.390 . S
C140 C141 1.357 . S
C141 C140 1.357 . S
C141 C142 1.370 . S
C141 H167 0.950 . S
C142 N137 1.307 . S
C142 C141 1.370 . S
C142 H160 0.948 . S
Zn143 N137 2.020 . S
Zn143 O152 2.039 . S
Zn143 O158 2.034 . S
Zn143 O162 2.025 . S
Zn143 O164 2.024 . S
C144 O163 1.246 . S
C144 O164 1.249 . S
N145 C146 1.307 . S
N145 C147 1.333 . S
N145 Zn151 2.020 . S
C146 N145 1.307 . S
C146 C150 1.370 . S
C146 H157 0.948 . S
C147 N145 1.333 . S
C147 C148 1.379 . S
C147 H155 0.952 . S
C148 C147 1.379 . S
C148 C149 1.390 . S
C148 H168 0.949 . S
C149 C148 1.390 . S
C149 C150 1.357 . S
C150 C146 1.370 . S
C150 C149 1.357 . S
C150 H169 0.950 . S
Zn151 N145 2.020 . S
Zn151 O154 2.025 . S
Zn151 O159 2.024 . S
Zn151 O161 2.039 . S
Zn151 O163 2.034 . S
O152 C136 1.251 . S
O152 Zn143 2.039 . S
C153 O158 1.246 . S
C153 O159 1.249 . S
O154 C136 1.254 . S
O154 Zn151 2.025 . S
H155 C147 0.952 . S
H156 C138 0.952 . S
H157 C146 0.948 . S
O158 Zn143 2.034 . S
O158 C153 1.246 . S
O159 Zn151 2.024 . S
O159 C153 1.249 . S
H160 C142 0.948 . S
O161 Zn151 2.039 . S
O161 C165 1.251 . S
O162 Zn143 2.025 . S
O162 C165 1.254 . S
O163 C144 1.246 . S
O163 Zn151 2.034 . S
O164 Zn143 2.024 . S
O164 C144 1.249 . S
C165 O161 1.251 . S
C165 O162 1.254 . S
H166 C139 0.949 . S
H167 C141 0.950 . S
H168 C148 0.949 . S
H169 C150 0.950 . S
C170 O186 1.251 . S
C170 O188 1.254 . S
N171 C172 1.333 . S
N171 C176 1.307 . S
N171 Zn177 2.020 . S
C172 N171 1.333 . S
C172 C173 1.379 . S
C172 H190 0.952 . S
C173 C172 1.379 . S
C173 C174 1.390 . S
C173 H200 0.949 . S
C174 C173 1.390 . S
C174 C175 1.357 . S
C175 C174 1.357 . S
C175 C176 1.370 . S
C175 H201 0.950 . S
C176 N171 1.307 . S
C176 C175 1.370 . S
C176 H194 0.948 . S
Zn177 N171 2.020 . S
Zn177 O186 2.039 . S
Zn177 O192 2.034 . S
Zn177 O196 2.025 . S
Zn177 O198 2.024 . S
C178 O197 1.246 . S
C178 O198 1.249 . S
N179 C180 1.307 . S
N179 C181 1.333 . S
N179 Zn185 2.020 . S
C180 N179 1.307 . S
C180 C184 1.370 . S
C180 H191 0.948 . S
C181 N179 1.333 . S
C181 C182 1.379 . S
C181 H189 0.952 . S
C182 C181 1.379 . S
C182 C183 1.390 . S
C182 H202 0.949 . S
C183 C182 1.390 . S
C183 C184 1.357 . S
C184 C180 1.370 . S
C184 C183 1.357 . S
C184 H203 0.950 . S
Zn185 N179 2.020 . S
Zn185 O188 2.025 . S
Zn185 O193 2.024 . S
Zn185 O195 2.039 . S
Zn185 O197 2.034 . S
O186 C170 1.251 . S
O186 Zn177 2.039 . S
C187 O192 1.246 . S
C187 O193 1.249 . S
O188 C170 1.254 . S
O188 Zn185 2.025 . S
H189 C181 0.952 . S
H190 C172 0.952 . S
H191 C180 0.948 . S
O192 Zn177 2.034 . S
O192 C187 1.246 . S
O193 Zn185 2.024 . S
O193 C187 1.249 . S
H194 C176 0.948 . S
O195 Zn185 2.039 . S
O195 C199 1.251 . S
O196 Zn177 2.025 . S
O196 C199 1.254 . S
O197 C178 1.246 . S
O197 Zn185 2.034 . S
O198 Zn177 2.024 . S
O198 C178 1.249 . S
C199 O195 1.251 . S
C199 O196 1.254 . S
H200 C173 0.949 . S
H201 C175 0.950 . S
H202 C182 0.949 . S
H203 C184 0.950 . S
C204 C205 1.369 . S
C204 C206 1.419 . S
C204 H208 0.930 . S
C205 C204 1.369 . S
C205 C214 1.429 . S
C206 C204 1.419 . S
C206 C207 1.363 . S
C206 H209 0.929 . S
C207 C206 1.363 . S
C207 C213 1.428 1_556 S
H208 C204 0.930 . S
H209 C206 0.929 . S
S210 N211 1.613 1_554 S
S210 N212 1.610 . S
N211 S210 1.613 1_556 S
N211 C214 1.350 . S
N212 S210 1.610 . S
N212 C213 1.351 . S
C213 C207 1.428 1_554 S
C213 N212 1.351 . S
C213 C214 1.434 1_554 S
C214 C205 1.429 . S
C214 N211 1.350 . S
C214 C213 1.434 1_556 S
C215 C216 1.369 . S
C215 C217 1.419 1_455 S
C215 H219 0.930 . S
C216 C215 1.369 . S
C216 C225 1.440 . S
C217 C215 1.419 1_655 S
C217 C218 1.363 . S
C217 H220 0.929 . S
C218 C217 1.363 . S
C218 C224 1.428 . S
H219 C215 0.930 . S
H220 C217 0.929 . S
S221 N222 1.613 1_655 S
S221 N223 1.610 . S
N222 S221 1.613 1_455 S
N222 C225 1.348 . S
N223 S221 1.610 . S
N223 C224 1.351 . S
C224 C218 1.428 . S
C224 N223 1.351 . S
C224 C225 1.423 1_655 S
C225 C216 1.440 . S
C225 N222 1.348 . S
C225 C224 1.423 1_455 S
C226 C227 1.369 1_565 S
C226 C228 1.419 . S
C226 H230 0.930 . S
C227 C226 1.369 1_545 S
C227 C236 1.429 . S
C228 C226 1.419 . S
C228 C229 1.363 . S
C228 H231 0.929 . S
C229 C228 1.363 . S
C229 C235 1.428 . S
H230 C226 0.930 . S
H231 C228 0.929 . S
S232 N233 1.613 . S
S232 N234 1.610 1_545 S
N233 S232 1.613 . S
N233 C236 1.350 . S
N234 S232 1.610 1_565 S
N234 C235 1.351 . S
C235 C229 1.428 . S
C235 N234 1.351 . S
C235 C236 1.434 1_565 S
C236 C227 1.429 . S
C236 N233 1.350 . S
C236 C235 1.434 1_545 S
C237 C238 1.369 . S
C237 C239 1.419 1_556 S
C237 H241 0.930 1_556 S
C238 C237 1.369 . S
C238 C247 1.429 . S
C239 C237 1.419 1_554 S
C239 C240 1.363 1_554 S
C239 H242 0.929 . S
C240 C239 1.363 1_556 S
C240 C246 1.428 . S
H241 C237 0.930 1_554 S
H242 C239 0.929 . S
S243 N244 1.613 . S
S243 N245 1.610 . S
N244 S243 1.613 . S
N244 C247 1.350 . S
N245 S243 1.610 . S
N245 C246 1.351 . S
C246 C240 1.428 . S
C246 N245 1.351 . S
C246 C247 1.434 . S
C247 C238 1.429 . S
C247 N244 1.350 . S
C247 C246 1.434 . S
C248 C249 1.369 1_655 S
C248 C250 1.419 . S
C248 H252 0.930 1_655 S
C249 C248 1.369 1_455 S
C249 C258 1.429 1_455 S
C250 C248 1.419 . S
C250 C251 1.363 . S
C250 H253 0.929 . S
C251 C250 1.363 . S
C251 C257 1.428 . S
H252 C248 0.930 1_455 S
H253 C250 0.929 . S
S254 N255 1.613 1_655 S
S254 N256 1.610 . S
N255 S254 1.613 1_455 S
N255 C258 1.350 1_455 S
N256 S254 1.610 . S
N256 C257 1.351 . S
C257 C251 1.428 . S
C257 N256 1.351 . S
C257 C258 1.434 . S
C258 C249 1.429 1_655 S
C258 N255 1.350 1_655 S
C258 C257 1.434 . S
C259 C260 1.369 . S
C259 C261 1.419 1_545 S
C259 H263 0.930 . S
C260 C259 1.369 . S
C260 C269 1.429 1_545 S
C261 C259 1.419 1_565 S
C261 C262 1.363 . S
C261 H264 0.929 . S
C262 C261 1.363 . S
C262 C268 1.428 . S
H263 C259 0.930 . S
H264 C261 0.929 . S
S265 N266 1.613 1_565 S
S265 N267 1.610 . S
N266 S265 1.613 1_545 S
N266 C269 1.350 1_545 S
N267 S265 1.610 . S
N267 C268 1.351 . S
C268 C262 1.428 . S
C268 N267 1.351 . S
C268 C269 1.434 . S
C269 C260 1.429 1_565 S
C269 N266 1.350 1_565 S
C269 C268 1.434 . S
C270 C271 1.369 . S
C270 C272 1.419 . S
C270 H274 0.930 . S
C271 C270 1.369 . S
C271 C280 1.429 . S
C272 C270 1.419 . S
C272 C273 1.363 . S
C272 H275 0.929 . S
C273 C272 1.363 . S
C273 C279 1.428 . S
H274 C270 0.930 . S
H275 C272 0.929 . S
S276 N277 1.613 . S
S276 N278 1.610 . S
N277 S276 1.613 . S
N277 C280 1.350 . S
N278 S276 1.610 . S
N278 C279 1.351 . S
C279 C273 1.428 . S
C279 N278 1.351 . S
C279 C280 1.434 . S
C280 C271 1.429 . S
C280 N277 1.350 . S
C280 C279 1.434 . S
C281 C282 1.369 . S
C281 C283 1.419 . S
C281 H285 0.930 . S
C282 C281 1.369 . S
C282 C291 1.429 . S
C283 C281 1.419 . S
C283 C284 1.363 . S
C283 H286 0.929 . S
C284 C283 1.363 . S
C284 C290 1.428 . S
H285 C281 0.930 . S
H286 C283 0.929 . S
S287 N288 1.613 . S
S287 N289 1.610 . S
N288 S287 1.613 . S
N288 C291 1.350 . S
N289 S287 1.610 . S
N289 C290 1.351 . S
C290 C284 1.428 . S
C290 N289 1.351 . S
C290 C291 1.434 . S
C291 C282 1.429 . S
C291 N288 1.350 . S
C291 C290 1.434 . S
C292 C293 1.369 . S
C292 C294 1.419 . S
C292 H296 0.930 . S
C293 C292 1.369 . S
C293 C302 1.429 . S
C294 C292 1.419 . S
C294 C295 1.363 . S
C294 H297 0.929 . S
C295 C294 1.363 . S
C295 C301 1.428 . S
H296 C292 0.930 . S
H297 C294 0.929 . S
S298 N299 1.613 . S
S298 N300 1.610 . S
N299 S298 1.613 . S
N299 C302 1.350 . S
N300 S298 1.610 . S
N300 C301 1.351 . S
C301 C295 1.428 . S
C301 N300 1.351 . S
C301 C302 1.434 . S
C302 C293 1.429 . S
C302 N299 1.350 . S
C302 C301 1.434 . S
C303 C304 1.369 . S
C303 C305 1.419 . S
C303 H307 0.930 . S
C304 C303 1.369 . S
C304 C313 1.429 . S
C305 C303 1.419 . S
C305 C306 1.363 . S
C305 H308 0.929 . S
C306 C305 1.363 . S
C306 C312 1.428 . S
H307 C303 0.930 . S
H308 C305 0.929 . S
S309 N310 1.613 . S
S309 N311 1.610 . S
N310 S309 1.613 . S
N310 C313 1.350 . S
N311 S309 1.610 . S
N311 C312 1.351 . S
C312 C306 1.428 . S
C312 N311 1.351 . S
C312 C313 1.434 . S
C313 C304 1.429 . S
C313 N310 1.350 . S
C313 C312 1.434 . S
C314 C315 1.369 . S
C314 C316 1.419 1_556 S
C314 H318 0.930 . S
C315 C314 1.369 . S
C315 C324 1.429 . S
C316 C314 1.419 1_554 S
C316 C317 1.363 . S
C316 H319 0.929 . S
C317 C316 1.363 . S
C317 C323 1.428 . S
H318 C314 0.930 . S
H319 C316 0.929 . S
S320 N321 1.613 1_554 S
S320 N322 1.610 . S
N321 S320 1.613 1_556 S
N321 C324 1.350 . S
N322 S320 1.610 . S
N322 C323 1.351 . S
C323 C317 1.428 . S
C323 N322 1.351 . S
C323 C324 1.434 1_554 S
C324 C315 1.429 . S
C324 N321 1.350 . S
C324 C323 1.434 1_556 S
C325 C326 1.369 . S
C325 C327 1.419 . S
C325 H329 0.930 . S
C326 C325 1.369 . S
C326 C335 1.429 . S
C327 C325 1.419 . S
C327 C328 1.363 . S
C327 H330 0.929 . S
C328 C327 1.363 . S
C328 C334 1.428 . S
H329 C325 0.930 . S
H330 C327 0.929 . S
S331 N332 1.613 . S
S331 N333 1.610 . S
N332 S331 1.613 . S
N332 C335 1.350 . S
N333 S331 1.610 . S
N333 C334 1.351 . S
C334 C328 1.428 . S
C334 N333 1.351 . S
C334 C335 1.434 . S
C335 C326 1.429 . S
C335 N332 1.350 . S
C335 C334 1.434 . S
C336 C337 1.369 . S
C336 C338 1.419 . S
C336 H340 0.930 . S
C337 C336 1.369 . S
C337 C346 1.429 . S
C338 C336 1.419 . S
C338 C339 1.363 . S
C338 H341 0.929 . S
C339 C338 1.363 . S
C339 C345 1.428 . S
H340 C336 0.930 . S
H341 C338 0.929 . S
S342 N343 1.613 . S
S342 N344 1.610 . S
N343 S342 1.613 . S
N343 C346 1.350 . S
N344 S342 1.610 . S
N344 C345 1.351 . S
C345 C339 1.428 . S
C345 N344 1.351 . S
C345 C346 1.434 . S
C346 C337 1.429 . S
C346 N343 1.350 . S
C346 C345 1.434 . S
C347 C348 1.369 . S
C347 C349 1.419 . S
C347 H351 0.930 . S
C348 C347 1.369 . S
C348 C357 1.429 . S
C349 C347 1.419 . S
C349 C350 1.363 . S
C349 H352 0.929 . S
C350 C349 1.363 . S
C350 C356 1.428 . S
H351 C347 0.930 . S
H352 C349 0.929 . S
S353 N354 1.613 . S
S353 N355 1.610 . S
N354 S353 1.613 . S
N354 C357 1.350 . S
N355 S353 1.610 . S
N355 C356 1.351 . S
C356 C350 1.428 . S
C356 N355 1.351 . S
C356 C357 1.434 . S
C357 C348 1.429 . S
C357 N354 1.350 . S
C357 C356 1.434 . S
C358 C359 1.369 . S
C358 C360 1.419 . S
C358 H362 0.930 . S
C359 C358 1.369 . S
C359 C368 1.429 1_554 S
C360 C358 1.419 . S
C360 C361 1.363 1_554 S
C360 H363 0.929 . S
C361 C360 1.363 1_556 S
C361 C367 1.428 . S
H362 C358 0.930 . S
H363 C360 0.929 . S
S364 N365 1.613 . S
S364 N366 1.610 . S
N365 S364 1.613 . S
N365 C368 1.350 . S
N366 S364 1.610 . S
N366 C367 1.351 . S
C367 C361 1.428 . S
C367 N366 1.351 . S
C367 C368 1.434 . S
C368 C359 1.429 1_556 S
C368 N365 1.350 . S
C368 C367 1.434 . S
C369 C370 1.369 . S
C369 C371 1.419 . S
C369 H373 0.930 1_554 S
C370 C369 1.369 . S
C370 C379 1.429 . S
C371 C369 1.419 . S
C371 C372 1.363 . S
C371 H374 0.929 1_554 S
C372 C371 1.363 . S
C372 C378 1.428 . S
H373 C369 0.930 1_556 S
H374 C371 0.929 1_556 S
S375 N376 1.613 . S
S375 N377 1.610 . S
N376 S375 1.613 . S
N376 C379 1.350 . S
N377 S375 1.610 . S
N377 C378 1.351 . S
C378 C372 1.428 . S
C378 N377 1.351 . S
C378 C379 1.434 . S
C379 C370 1.429 . S
C379 N376 1.350 . S
C379 C378 1.434 . S
C380 C381 1.369 . S
C380 C382 1.419 . S
C380 H384 0.930 . S
C381 C380 1.369 . S
C381 C390 1.429 . S
C382 C380 1.419 . S
C382 C383 1.363 . S
C382 H385 0.929 . S
C383 C382 1.363 . S
C383 C389 1.428 . S
H384 C380 0.930 . S
H385 C382 0.929 . S
S386 N387 1.613 . S
S386 N388 1.610 . S
N387 S386 1.613 . S
N387 C390 1.350 . S
N388 S386 1.610 . S
N388 C389 1.351 . S
C389 C383 1.428 . S
C389 N388 1.351 . S
C389 C390 1.434 . S
C390 C381 1.429 . S
C390 N387 1.350 . S
C390 C389 1.434 . S
C391 C392 1.369 . S
C391 C393 1.419 . S
C391 H395 0.930 . S
C392 C391 1.369 . S
C392 C401 1.429 . S
C393 C391 1.419 . S
C393 C394 1.363 . S
C393 H396 0.929 . S
C394 C393 1.363 . S
C394 C400 1.428 . S
H395 C391 0.930 . S
H396 C393 0.929 . S
S397 N398 1.613 . S
S397 N399 1.610 . S
N398 S397 1.613 . S
N398 C401 1.350 . S
N399 S397 1.610 . S
N399 C400 1.351 . S
C400 C394 1.428 . S
C400 N399 1.351 . S
C400 C401 1.434 . S
C401 C392 1.429 . S
C401 N398 1.350 . S
C401 C400 1.434 . S
C205 C174 1.598 . S
C207 C4 1.599 1_556 S
C216 C17 1.746 . S
C218 C51 1.746 . S
C227 C38 1.593 . S
C229 C72 1.597 . S
C238 C85 1.746 . S
C240 C119 1.747 . S
C249 C140 1.592 . S
C251 C106 1.594 . S
C260 C187 1.746 . S
C262 C153 1.747 . S
C271 C0 1.105 . S
C273 C29 1.105 . S
C282 C63 1.108 1_556 S
C284 C34 1.102 . S
C293 C68 1.108 . S
C295 C97 1.102 . S
C304 C131 1.107 . S
C306 C102 1.102 . S
C315 C165 1.107 . S
C317 C136 1.103 . S
C326 C199 1.106 . S
C328 C170 1.103 1_554 S
C337 C13 1.794 . S
C339 C144 1.888 . S
C348 C42 1.890 . S
C350 C183 1.792 . S
C359 C8 1.889 . S
C361 C81 1.793 . S
C370 C47 1.793 . S
C372 C110 1.888 . S
C381 C149 1.790 . S
C383 C76 1.890 . S
C392 C115 1.793 . S
C394 C178 1.889 . S
