# Generated by pormake.
# Topology rkf, (6)-cn, num edge types: 1
# Building blocks:
#     Node 0, Type 0, BuildingBlock: BETDAH_clean_sbu_0, # of connection points: 6
#     Node 1, Type 0, BuildingBlock: BETDAH_clean_sbu_0, # of connection points: 6
#     Node 2, Type 0, BuildingBlock: BETDAH_clean_sbu_0, # of connection points: 6
#     Node 3, Type 0, BuildingBlock: BETDAH_clean_sbu_0, # of connection points: 6
#     Node 4, Type 0, BuildingBlock: BETDAH_clean_sbu_0, # of connection points: 6
#     Node 5, Type 0, BuildingBlock: BETDAH_clean_sbu_0, # of connection points: 6
#     Edge 6, Type (0, 0), BuildingBlock: XIVTED_clean_linker_0, # of connection points: 2
#     Edge 7, Type (0, 0), BuildingBlock: XIVTED_clean_linker_0, # of connection points: 2
#     Edge 8, Type (0, 0), BuildingBlock: XIVTED_clean_linker_0, # of connection points: 2
#     Edge 9, Type (0, 0), BuildingBlock: XIVTED_clean_linker_0, # of connection points: 2
#     Edge 10, Type (0, 0), BuildingBlock: XIVTED_clean_linker_0, # of connection points: 2
#     Edge 11, Type (0, 0), BuildingBlock: XIVTED_clean_linker_0, # of connection points: 2
#     Edge 12, Type (0, 0), BuildingBlock: XIVTED_clean_linker_0, # of connection points: 2
#     Edge 13, Type (0, 0), BuildingBlock: XIVTED_clean_linker_0, # of connection points: 2
#     Edge 14, Type (0, 0), BuildingBlock: XIVTED_clean_linker_0, # of connection points: 2
#     Edge 15, Type (0, 0), BuildingBlock: XIVTED_clean_linker_0, # of connection points: 2
#     Edge 16, Type (0, 0), BuildingBlock: XIVTED_clean_linker_0, # of connection points: 2
#     Edge 17, Type (0, 0), BuildingBlock: XIVTED_clean_linker_0, # of connection points: 2
#     Edge 18, Type (0, 0), BuildingBlock: XIVTED_clean_linker_0, # of connection points: 2
#     Edge 19, Type (0, 0), BuildingBlock: XIVTED_clean_linker_0, # of connection points: 2
#     Edge 20, Type (0, 0), BuildingBlock: XIVTED_clean_linker_0, # of connection points: 2
#     Edge 21, Type (0, 0), BuildingBlock: XIVTED_clean_linker_0, # of connection points: 2
#     Edge 22, Type (0, 0), BuildingBlock: XIVTED_clean_linker_0, # of connection points: 2
#     Edge 23, Type (0, 0), BuildingBlock: XIVTED_clean_linker_0, # of connection points: 2
# Relax obj value: 0.708
# Max RMSD: 0.248
# Mean RMSD: 0.248
data_MOF--net-rkf--node1-BETDAH_clean_sbu_0--edge1-XIVTED_clean_linker_0
_symmetry_space_group_name_H-M    P1
_symmetry_Int_Tables_number       1
_symmetry_cell_setting            triclinic
loop_
_symmetry_equiv_pos_as_xyz
'x, y, z'
_cell_length_a     24.974417
_cell_length_b     24.529698
_cell_length_c     46.480691
_cell_angle_alpha  89.974174
_cell_angle_beta   89.924528
_cell_angle_gamma 120.36845
loop_
_atom_site_label
_atom_site_type_symbol
_atom_site_fract_x
_atom_site_fract_y
_atom_site_fract_z
_atom_type_partial_charge
Ho0 Ho 0.27814 0.0965 0.14033 0.0
Ho1 Ho 0.37093 0.2296 0.12882 0.0
C2 C 0.31611 0.19686 0.19474 0.0
C3 C 0.22185 0.97731 0.15159 0.0
C4 C 0.21788 0.92847 0.17082 0.0
C5 C 0.19671 0.86815 0.15939 0.0
C6 C 0.1905 0.81931 0.17695 0.0
C7 C 0.20535 0.83021 0.20626 0.0
C8 C 0.22932 0.89168 0.21738 0.0
C9 C 0.23567 0.94067 0.19971 0.0
C10 C 0.23038 0.16194 1.11631 0.0
C11 C 0.30995 0.12997 1.07249 0.0
C12 C 0.44434 0.34695 1.1153 0.0
C13 C 0.46524 0.38911 1.09045 0.0
C14 C 0.48912 0.45388 1.09474 0.0
C15 C 0.5057 0.49463 1.07121 0.0
C16 C 0.49898 0.47101 1.04313 0.0
C17 C 0.477 0.40617 1.03907 0.0
C18 C 0.46003 0.36545 1.06258 0.0
C19 C 0.41766 0.1593 0.15067 0.0
O20 O 0.29374 0.13659 0.18696 0.0
O21 O 0.34332 0.24178 0.17476 0.0
O22 O 0.2019 0.01447 0.16079 0.0
O23 O 0.27297 0.00679 0.13657 0.0
O24 O 0.20802 0.10194 1.11289 0.0
O25 O 0.27166 0.183 0.13536 0.0
O26 O 0.34482 0.19021 1.08144 0.0
O27 O 0.28299 0.08463 1.092 0.0
O28 O 0.46165 0.30489 1.11622 0.0
O29 O 0.38642 0.32393 0.12284 0.0
O30 O 0.43249 0.21504 0.15964 0.0
O31 O 0.37778 0.14347 0.13111 0.0
H32 H 0.18382 0.85853 0.13691 0.0
H33 H 0.17231 0.7726 0.16782 0.0
H34 H 0.2402 0.90124 0.24002 0.0
H35 H 0.25296 0.98739 0.20867 0.0
H36 H 0.49345 0.47266 1.11625 0.0
H37 H 0.52205 0.54415 1.07494 0.0
H38 H 0.46986 0.38622 1.01767 0.0
H39 H 0.44136 0.31541 1.05896 0.0
Ho40 Ho 0.26379 0.27911 0.47495 0.0
Ho41 Ho 0.24849 0.38605 0.46358 0.0
C42 C 0.20941 0.32575 0.52832 0.0
C43 C 0.30425 0.20438 0.48885 0.0
C44 C 0.35163 0.20421 0.50711 0.0
C45 C 0.36763 0.23504 0.53373 0.0
C46 C 0.41537 0.23642 0.54987 0.0
C47 C 0.44819 0.2077 0.53942 0.0
C48 C 0.43322 0.17894 0.51222 0.0
C49 C 0.38514 0.17703 0.49628 0.0
C50 C 0.15634 0.24543 0.44775 0.0
C51 C 0.28007 0.31945 0.40778 0.0
C52 C 0.22888 0.47679 0.44974 0.0
C53 C 0.2145 0.50279 0.42466 0.0
C54 C 0.18288 0.53589 0.42855 0.0
C55 C 0.16245 0.555 0.40476 0.0
C56 C 0.17378 0.54134 0.37686 0.0
C57 C 0.20868 0.51131 0.37312 0.0
C58 C 0.22866 0.49188 0.39689 0.0
C59 C 0.35834 0.41714 0.48943 0.0
O60 O 0.24091 0.29706 0.52123 0.0
O61 O 0.20056 0.35885 0.50806 0.0
O62 O 0.25576 0.20185 0.50108 0.0
O63 O 0.32692 0.24539 0.46801 0.0
O64 O 0.18658 0.21589 0.44593 0.0
O65 O 0.1794 0.28653 0.46718 0.0
O66 O 0.26121 0.35945 0.41631 0.0
O67 O 0.28977 0.28684 0.42764 0.0
O68 O 0.28377 0.48262 0.45024 0.0
O69 O 0.18514 0.42093 0.45803 0.0
O70 O 0.32116 0.43613 0.49775 0.0
O71 O 0.33326 0.37952 0.46876 0.0
H72 H 0.34302 0.25748 0.5421 0.0
H73 H 0.42488 0.25791 0.57099 0.0
H74 H 0.45794 0.15696 0.50348 0.0
H75 H 0.37414 0.15437 0.47537 0.0
H76 H 0.1719 0.54475 0.44998 0.0
H77 H 0.13558 0.57796 0.40814 0.0
H78 H 0.217 0.49901 0.35187 0.0
H79 H 0.25291 0.46616 0.39357 0.0
Ho80 Ho 0.07014 0.27275 0.80738 0.0
Ho81 Ho 0.94727 0.25237 0.79577 0.0
C82 C 0.96929 0.21699 0.86081 0.0
C83 C 0.18443 0.31725 0.82212 0.0
C84 C 0.23072 0.36404 0.84155 0.0
C85 C 0.22718 0.41672 0.85066 0.0
C86 C 0.27562 0.46452 0.86652 0.0
C87 C 0.32803 0.46007 0.87352 0.0
C88 C 0.33073 0.40674 0.86447 0.0
C89 C 0.28258 0.35932 0.84853 0.0
C90 C -0.00438 0.16097 0.78174 0.0
C91 C 0.04558 0.28587 0.74004 0.0
C92 C 0.83622 0.2263 0.78215 0.0
C93 C 0.7968 0.21454 0.75709 0.0
C94 C 0.82268 0.23401 0.72966 0.0
C95 C 0.78411 0.2172 0.7057 0.0
C96 C 0.71925 0.18025 0.7089 0.0
C97 C 0.69352 0.16355 0.7366 0.0
C98 C 0.7322 0.18076 0.76059 0.0
C99 C 0.02577 0.36633 0.82044 0.0
O100 O 0.02921 0.25113 0.85366 0.0
O101 O 0.92722 0.20497 0.84048 0.0
O102 O 0.13878 0.2657 0.83338 0.0
O103 O 0.16643 0.34083 0.80174 0.0
O104 O 0.05526 0.19283 0.77911 0.0
O105 O 0.97883 0.18538 0.80086 0.0
O106 O -0.01281 0.26669 0.74862 0.0
O107 O 0.08774 0.2962 0.75979 0.0
O108 O 0.88307 0.28364 0.78498 0.0
O109 O 0.85097 0.18335 0.78774 0.0
O110 O 0.96982 0.32779 0.82901 0.0
O111 O 0.03828 0.34057 0.80012 0.0
H112 H 0.1875 0.42132 0.84511 0.0
H113 H 0.2721 0.50486 0.87324 0.0
H114 H 0.36944 0.40073 0.87024 0.0
H115 H 0.28611 0.31917 0.84143 0.0
H116 H 0.87256 0.26005 0.72667 0.0
H117 H 0.8053 0.22961 0.68456 0.0
H118 H 0.64373 0.135 0.73956 0.0
H119 H 0.71177 0.16575 0.78178 0.0
Ho120 Ho 0.87661 0.08558 0.14074 0.0
Ho121 Ho 0.77926 0.95493 0.12873 0.0
C122 C 0.8361 0.98293 0.19417 0.0
C123 C 0.93692 0.20368 0.15418 0.0
C124 C 0.94015 0.24936 0.17531 0.0
C125 C 0.94562 0.3058 0.16516 0.0
C126 C 0.95211 0.3523 0.18436 0.0
C127 C 0.95356 0.34315 0.21407 0.0
C128 C 0.94541 0.28524 0.22422 0.0
C129 C 0.93857 0.23853 0.20495 0.0
C130 C 0.91898 0.01688 1.11496 0.0
C131 C 0.84274 0.05595 1.07305 0.0
C132 C 0.70061 0.83924 1.11485 0.0
C133 C 0.68029 0.79679 1.09017 0.0
C134 C 0.65457 0.73186 1.09487 0.0
C135 C 0.63946 0.69079 1.07161 0.0
C136 C 0.64951 0.71427 1.04337 0.0
C137 C 0.67306 0.77926 1.03883 0.0
C138 C 0.68861 0.82031 1.06208 0.0
C139 C 0.73785 0.02846 0.15242 0.0
O140 O 0.86035 0.04371 0.18696 0.0
O141 O 0.807 0.93913 0.17397 0.0
O142 O 0.95508 0.16405 0.16178 0.0
O143 O 0.88684 0.17776 0.13842 0.0
O144 O 0.94391 0.07741 1.11208 0.0
O145 O 0.87831 -0.00318 0.13434 0.0
O146 O 0.80679 -0.00454 1.08152 0.0
O147 O 0.87064 0.10022 1.09288 0.0
O148 O 0.68787 0.88472 1.11429 0.0
O149 O 0.75667 0.85796 0.12405 0.0
O150 O 0.72117 0.97185 0.1608 0.0
O151 O 0.77696 0.04341 0.13251 0.0
H152 H 0.94618 0.31445 0.14226 0.0
H153 H 0.9577 0.39607 0.17594 0.0
H154 H 0.94734 0.2771 0.247 0.0
H155 H 0.93371 0.19492 0.21318 0.0
H156 H 0.64791 0.7132 1.11655 0.0
H157 H 0.62183 0.64112 1.07569 0.0
H158 H 0.68271 0.79904 1.01732 0.0
H159 H 0.70881 0.87048 1.05814 0.0
Ho160 Ho 0.88532 0.89893 0.47359 0.0
Ho161 Ho 0.91949 0.80382 0.46188 0.0
C162 C 0.94861 0.86249 0.52713 0.0
C163 C 0.82983 0.9606 0.48563 0.0
C164 C 0.78723 0.96657 0.50502 0.0
C165 C 0.74989 0.98863 0.49348 0.0
C166 C 0.70853 -0.00437 0.51096 0.0
C167 C 0.70411 0.98078 0.54033 0.0
C168 C 0.74 0.95624 0.55161 0.0
C169 C 0.78131 0.94899 0.53399 0.0
C170 C -0.00519 0.94595 0.44604 0.0
C171 C 0.87568 0.86039 0.4063 0.0
C172 C 0.95656 0.72583 0.4483 0.0
C173 C 0.97143 0.69981 0.42341 0.0
C174 C 0.95297 0.70585 0.39576 0.0
C175 C 0.97104 0.6841 0.3721 0.0
C176 C 0.00811 0.65645 0.37583 0.0
C177 C 0.02429 0.64822 0.40373 0.0
C178 C 0.0059 0.66973 0.42741 0.0
C179 C 0.80536 0.75758 0.48633 0.0
O180 O 0.91093 0.88418 0.51991 0.0
O181 O 0.96437 0.83478 0.50683 0.0
O182 O 0.88609 0.97831 0.49458 0.0
O183 O 0.80497 0.90871 0.47054 0.0
O184 O 0.95735 0.96738 0.44348 0.0
O185 O 0.97661 0.90559 0.46592 0.0
O186 O 0.90156 0.82632 0.41464 0.0
O187 O 0.86031 0.88849 0.42623 0.0
O188 O 0.89838 0.70945 0.45127 0.0
O189 O -0.00566 0.78571 0.45354 0.0
O190 O 0.8467 0.74442 0.49493 0.0
O191 O 0.82809 0.7969 0.46608 0.0
H192 H 0.75336 0.00128 0.47092 0.0
H193 H 0.6812 0.01418 0.50169 0.0
H194 H 0.73825 0.94534 0.5743 0.0
H195 H 0.80929 0.93094 0.54303 0.0
H196 H 0.92627 0.729 0.39242 0.0
H197 H 0.95896 0.69225 0.35079 0.0
H198 H 0.05284 0.62712 0.40711 0.0
H199 H 0.02002 0.66448 0.44878 0.0
Ho200 Ho 0.08378 0.90357 0.80689 0.0
Ho201 Ho 0.21109 0.93982 0.79433 0.0
C202 C 0.18436 0.96809 0.86007 0.0
C203 C 0.96774 0.84282 0.82062 0.0
C204 C 0.92313 0.79502 0.84036 0.0
C205 C 0.86657 0.74768 0.82905 0.0
C206 C 0.82165 0.70199 0.84701 0.0
C207 C 0.83252 0.70321 0.87666 0.0
C208 C 0.89051 0.74926 0.88777 0.0
C209 C 0.93567 0.79483 0.86969 0.0
C210 C 0.14564 0.01657 0.78063 0.0
C211 C 0.11237 0.90171 0.73882 0.0
C212 C 0.32526 0.9781 0.78064 0.0
C213 C 0.37266 0.01103 0.75853 0.0
C214 C 0.3807 0.06613 0.74542 0.0
C215 C 0.42637 0.09659 0.72451 0.0
C216 C 0.46421 0.07206 0.71623 0.0
C217 C 0.4571 0.0178 0.7299 0.0
C218 C 0.41176 0.98768 0.75106 0.0
C219 C 0.14275 0.82213 0.81811 0.0
O220 O 0.12482 0.92972 0.85317 0.0
O221 O 0.22682 0.98424 0.83946 0.0
O222 O 0.0068 0.89928 0.83057 0.0
O223 O -0.00689 0.82191 0.80252 0.0
O224 O 0.08652 0.9784 0.77885 0.0
O225 O 0.16864 -0.00222 0.79955 0.0
O226 O 0.17197 0.92869 0.7472 0.0
O227 O 0.06884 0.88281 0.75888 0.0
O228 O 0.27916 0.92214 0.77412 0.0
O229 O 0.30764 0.01186 0.79517 0.0
O230 O 0.19776 0.86416 0.82619 0.0
O231 O 0.12636 0.84578 0.79847 0.0
H232 H 0.8567 0.74675 0.80629 0.0
H233 H 0.77771 0.66688 0.83784 0.0
H234 H 0.89993 0.75209 0.91062 0.0
H235 H 0.97952 0.83056 0.8787 0.0
H236 H 0.35104 0.085 0.75091 0.0
H237 H 0.42989 0.1375 0.71378 0.0
H238 H 0.48547 -0.00212 0.72367 0.0
H239 H 0.40648 0.9455 0.76127 0.0
H240 H -0.01777 0.95543 0.12821 0.0
H241 H 0.2525 0.19641 1.05798 0.0
H242 H 0.89951 0.99106 1.05582 0.0
H243 H 0.15516 0.21124 0.12999 0.0
H244 H 0.15419 0.11395 1.03713 0.0
H245 H 0.08361 0.01834 1.10586 0.0
C246 C -0.01528 0.9741 1.1068 0.0
C247 C 0.93534 0.97944 1.09614 0.0
C248 C 0.15394 0.13715 1.05691 0.0
C249 C 0.04866 0.05067 1.07099 0.0
C250 C 0.2097 0.1839 1.069 0.0
C251 C 0.21038 0.1977 1.09843 0.0
C252 C 0.09981 0.11575 1.07313 0.0
C253 C 0.15585 0.19291 1.10889 0.0
C254 C 0.043 0.01111 1.09419 0.0
C255 C 0.93987 -0.00302 1.06706 0.0
N256 N 0.10138 0.14784 1.0974 0.0
N257 N -0.00317 0.03908 1.05645 0.0
H258 H 0.12123 0.01715 0.45448 0.0
H259 H 0.02874 0.17645 0.45368 0.0
H260 H -0.00819 0.91945 0.38708 0.0
H261 H 0.16321 0.28278 0.38947 0.0
H262 H -0.00049 0.08031 0.42679 0.0
H263 H 0.16173 0.11424 0.42673 0.0
C264 C 0.10194 0.01532 0.4334 0.0
C265 C 0.0455 0.96293 0.42531 0.0
C266 C 0.03554 0.12485 0.4182 0.0
C267 C 0.087 0.07358 0.39549 0.0
C268 C 0.05141 0.1803 0.43327 0.0
C269 C 0.10783 0.23465 0.42679 0.0
C270 C 0.07583 0.12687 0.39642 0.0
C271 C 0.12825 0.23809 0.39826 0.0
C272 C 0.12396 0.07147 0.41786 0.0
C273 C 0.02791 0.96238 0.39653 0.0
N274 N 0.11877 0.18396 0.38551 0.0
N275 N 0.04276 0.01822 0.38384 0.0
H276 H 0.18008 0.0266 0.72258 0.0
H277 H 0.934 0.03114 0.78886 0.0
H278 H 0.18558 0.1424 0.79209 0.0
H279 H 0.96312 0.16482 0.7235 0.0
H280 H -0.00129 0.00077 0.7622 0.0
H281 H 0.09713 0.03721 0.69965 0.0
C282 C 0.16535 0.05656 0.7326 0.0
C283 C 0.17778 0.07233 0.7619 0.0
C284 C -0.00952 0.03653 0.75312 0.0
C285 C 0.09478 0.09569 0.73399 0.0
C286 C 0.95245 0.05328 0.76821 0.0
C287 C 0.95616 0.11058 0.76134 0.0
C288 C 0.02943 0.07753 0.73137 0.0
C289 C 0.97209 0.12976 0.73258 0.0
C290 C 0.11847 0.0628 0.71927 0.0
C291 C 0.16937 0.12165 0.77105 0.0
N292 N 0.01555 0.11985 0.71986 0.0
N293 N 0.12439 0.12858 0.75819 0.0
H294 H 0.46021 0.55667 1.03766 0.0
H295 H 0.45395 0.5082 0.87067 0.0
H296 H 0.55308 0.47572 0.99123 0.0
H297 H 0.31334 0.51781 0.92083 0.0
H298 H 0.52491 0.55166 0.91141 0.0
H299 H 0.44403 0.59658 0.99235 0.0
C300 C 0.47917 0.54917 1.01809 0.0
C301 C 0.50626 0.51107 1.018 0.0
C302 C 0.47926 0.5464 0.91305 0.0
C303 C 0.4872 0.55586 0.96634 0.0
C304 C 0.43857 0.52115 0.88994 0.0
C305 C 0.3767 0.50641 0.89293 0.0
C306 C 0.45764 0.5568 0.93915 0.0
C307 C 0.36008 0.52678 0.91781 0.0
C308 C 0.46963 0.57176 0.99225 0.0
C309 C 0.52998 0.50299 0.99204 0.0
N310 N 0.39987 0.5494 0.94034 0.0
N311 N 0.51858 0.52388 0.9671 0.0
H312 H 0.21951 0.58675 0.32317 0.0
H313 H 0.04195 0.46761 0.20628 0.0
H314 H 0.05184 0.50666 0.37391 0.0
H315 H 0.90704 0.34018 0.2679 0.0
H316 H 0.09058 0.54648 0.24398 0.0
H317 H 0.15762 0.56179 0.27971 0.0
C318 C 0.16969 0.56593 0.32511 0.0
C319 C 0.14056 0.54736 0.352 0.0
C320 C 0.05021 0.5014 0.24925 0.0
C321 C 0.06901 0.51888 0.30249 0.0
C322 C 0.02165 0.45659 0.2276 0.0
C323 C 0.97184 0.39619 0.23428 0.0
C324 C 0.02958 0.48478 0.27772 0.0
C325 C 0.94705 0.38518 0.26215 0.0
C326 C 0.13413 0.55184 0.30026 0.0
C327 C 0.07607 0.52126 0.35352 0.0
N328 N 0.97714 0.42855 0.28307 0.0
N329 N 0.04223 0.50614 0.329 0.0
H330 H 0.72129 0.23519 0.65732 0.0
H331 H 0.62915 0.91411 0.58576 0.0
H332 H 0.63146 0.05648 0.70206 0.0
H333 H 0.70103 0.09022 0.5396 0.0
H334 H 0.59897 0.95889 0.62514 0.0
H335 H 0.68508 0.17901 0.61175 0.0
C336 C 0.69246 0.18417 0.65754 0.0
C337 C 0.68082 0.15024 0.68328 0.0
C338 C 0.61984 0.98722 0.60606 0.0
C339 C 0.64035 0.08563 0.63147 0.0
C340 C 0.63723 0.96169 0.58366 0.0
C341 C 0.66951 -0.00071 0.55992 0.0
C342 C 0.63632 0.0511 0.60484 0.0
C343 C 0.67716 0.05988 0.55776 0.0
C344 C 0.67199 0.15203 0.63156 0.0
C345 C 0.64215 0.08439 0.6826 0.0
N346 N 0.66222 0.08455 0.58033 0.0
N347 N 0.62469 0.05402 0.65699 0.0
H348 H 0.68751 0.62768 1.04054 0.0
H349 H 0.71221 0.67559 0.87348 0.0
H350 H 0.60086 0.70967 0.99014 0.0
H351 H 0.83541 0.64102 0.92528 0.0
H352 H 0.63832 0.63944 0.91301 0.0
H353 H 0.70689 0.58621 0.99652 0.0
C354 C 0.67067 0.63519 1.02033 0.0
C355 C 0.64422 0.67379 1.01879 0.0
C356 C 0.68065 0.63786 0.91543 0.0
C357 C 0.6672 0.62749 0.96856 0.0
C358 C 0.72288 0.65823 0.89279 0.0
C359 C 0.78106 0.66342 0.89653 0.0
C360 C 0.69724 0.62358 0.94199 0.0
C361 C 0.79201 0.64 0.92199 0.0
C362 C 0.68215 0.61183 0.99521 0.0
C363 C 0.62329 0.68189 0.99208 0.0
N364 N 0.75111 0.62257 0.94412 0.0
N365 N 0.63653 0.66021 0.96788 0.0
H366 H 0.9541 0.60045 0.32469 0.0
H367 H 0.27078 0.82157 0.2517 0.0
H368 H 0.12961 0.69125 0.36922 0.0
H369 H 0.09739 0.7168 0.20611 0.0
H370 H 0.22594 0.74769 0.29184 0.0
H371 H 0.00915 0.61552 0.27931 0.0
C372 C 0.00416 0.62213 0.32493 0.0
C373 C 0.03757 0.64637 0.35049 0.0
C374 C 0.19818 0.7398 0.27274 0.0
C375 C 0.10087 0.66482 0.29888 0.0
C376 C 0.22379 0.78208 0.24988 0.0
C377 C 0.18698 0.77655 0.22609 0.0
C378 C 0.13505 0.69299 0.27191 0.0
C379 C 0.12709 0.72354 0.22431 0.0
C380 C 0.03563 0.6309 0.29907 0.0
C381 C 0.10215 0.67267 0.34988 0.0
N382 N 0.10234 0.68475 0.24732 0.0
N383 N 0.13191 0.68272 0.32433 0.0
H384 H 0.46617 0.00526 0.67022 0.0
H385 H 0.53405 0.29388 0.57714 0.0
H386 H 0.54732 0.1954 0.70268 0.0
H387 H 0.4603 0.10366 0.54557 0.0
H388 H 0.57614 0.26735 0.61871 0.0
H389 H 0.49935 0.04711 0.622 0.0
C390 C 0.49308 0.05602 0.66731 0.0
C391 C 0.50263 0.09708 0.69017 0.0
C392 C 0.55234 0.23196 0.60224 0.0
C393 C 0.53943 0.14538 0.63502 0.0
C394 C 0.52803 0.24702 0.57859 0.0
C395 C 0.49115 0.20006 0.55861 0.0
C396 C 0.53852 0.16934 0.606 0.0
C397 C 0.4871 0.14105 0.5608 0.0
C398 C 0.51152 0.08 0.63969 0.0
C399 C 0.53784 0.16235 0.68531 0.0
N400 N 0.50894 0.12681 0.58455 0.0
N401 N 0.55375 0.18463 0.65806 0.0
H402 H 0.44215 0.0945 1.11008 0.0
H403 H 0.66798 0.02342 0.19879 0.0
H404 H 0.49269 0.17038 0.19585 0.0
H405 H 0.70919 0.0882 1.11094 0.0
H406 H 0.58851 0.05491 0.20012 0.0
H407 H 0.52313 0.06591 1.11175 0.0
C408 C 0.46962 0.10419 0.12944 0.0
C409 C 0.46091 0.13492 0.15287 0.0
C410 C 0.61547 0.06259 0.18071 0.0
C411 C 0.55285 0.10179 0.15496 0.0
C412 C 0.66069 0.04484 0.17994 0.0
C413 C 0.69533 0.05367 0.15479 0.0
C414 C 0.60353 0.08711 0.15583 0.0
C415 C 0.68388 0.08112 0.13083 0.0
C416 C 0.51605 0.08839 0.13026 0.0
C417 C 0.49816 0.14683 0.17734 0.0
N418 N 0.63824 0.09591 0.13178 0.0
N419 N 0.54236 0.12983 0.17787 0.0
H420 H 0.42496 0.48345 0.53644 0.0
H421 H 0.715 0.728 0.44621 0.0
H422 H 0.44511 0.45124 0.44694 0.0
H423 H 0.7438 0.67939 0.5317 0.0
H424 H 0.60712 0.6408 0.44817 0.0
H425 H 0.53513 0.56732 0.53741 0.0
C426 C 0.45287 0.4934 0.51717 0.0
C427 C 0.42621 0.46012 0.49166 0.0
C428 C 0.63704 0.6496 0.46655 0.0
C429 C 0.55059 0.55719 0.4923 0.0
C430 C 0.69831 0.69965 0.46559 0.0
C431 C 0.73829 0.71085 0.48886 0.0
C432 C 0.61506 0.61145 0.49122 0.0
C433 C 0.71433 0.6722 0.51333 0.0
C434 C 0.51539 0.54123 0.51772 0.0
C435 C 0.46403 0.47526 0.46714 0.0
N436 N 0.65403 0.62435 0.51398 0.0
N437 N 0.524 0.52342 0.46793 0.0
H438 H 0.02784 0.43444 0.86732 0.0
H439 H 0.08037 0.73066 0.77765 0.0
H440 H 0.0781 0.45433 0.77758 0.0
H441 H 0.15749 0.75855 0.86296 0.0
H442 H 0.05653 0.62057 0.77916 0.0
H443 H 0.0563 0.54643 0.86826 0.0
C444 C 0.04573 0.46267 0.84797 0.0
C445 C 0.05128 0.4354 0.82243 0.0
C446 C 0.0783 0.65078 0.7976 0.0
C447 C 0.08113 0.562 0.82305 0.0
C448 C 0.09135 0.71333 0.79689 0.0
C449 C 0.12095 0.75372 0.82025 0.0
C450 C 0.09343 0.6279 0.82212 0.0
C451 C 0.13466 0.72885 0.84452 0.0
C452 C 0.06167 0.52626 0.8485 0.0
C453 C 0.07387 0.47371 0.79782 0.0
N454 N 0.1204 0.66734 0.84494 0.0
N455 N 0.08699 0.53475 0.79861 0.0
H456 H 0.28311 0.1241 0.24556 0.0
H457 H 0.28638 0.38537 0.35608 0.0
H458 H 0.33519 0.31176 0.21758 0.0
H459 H 0.28534 0.2178 0.38441 0.0
H460 H 0.29521 0.35739 0.30568 0.0
H461 H 0.27485 0.15432 0.29531 0.0
C462 C 0.29279 0.17171 0.24957 0.0
C463 C 0.31027 0.21488 0.22633 0.0
C464 C 0.29317 0.32666 0.32289 0.0
C465 C 0.29971 0.25064 0.28501 0.0
C466 C 0.28804 0.3428 0.35203 0.0
C467 C 0.28568 0.30486 0.37558 0.0
C468 C 0.29479 0.27097 0.31632 0.0
C469 C 0.28768 0.24981 0.36777 0.0
C470 C 0.28807 0.18918 0.27839 0.0
C471 C 0.32186 0.27606 0.23409 0.0
N472 N 0.29167 0.23485 0.33949 0.0
N473 N 0.31611 0.29155 0.26215 0.0
H474 H 0.12326 0.35792 0.54877 0.0
H475 H -0.01384 0.29153 0.68887 0.0
H476 H 0.23369 0.28125 0.58001 0.0
H477 H 0.15112 0.29235 0.71616 0.0
H478 H 0.02159 0.30121 0.6385 0.0
H479 H 0.08073 0.34857 0.59744 0.0
C480 C 0.1389 0.33897 0.56571 0.0
C481 C 0.18286 0.32035 0.55925 0.0
C482 C 0.05069 0.2999 0.65538 0.0
C483 C 0.13264 0.30905 0.61705 0.0
C484 C 0.02994 0.29399 0.68456 0.0
C485 C 0.06537 0.29183 0.70783 0.0
C486 C 0.10753 0.30277 0.64842 0.0
C487 C 0.1217 0.29461 0.6997 0.0
C488 C 0.11384 0.33315 0.59392 0.0
C489 C 0.20014 0.29629 0.58309 0.0
N490 N 0.14027 0.29943 0.67133 0.0
N491 N 0.1758 0.29197 0.61038 0.0
H492 H 0.85338 0.12219 0.8816 0.0
H493 H 0.94313 0.1647 1.05123 0.0
H494 H 0.0373 0.25133 0.91253 0.0
H495 H 0.78209 -0.00362 1.02026 0.0
H496 H 0.97247 0.20092 1.00152 0.0
H497 H 0.82196 0.08103 0.93105 0.0
C498 C 0.8875 0.14243 0.89861 0.0
C499 C 0.94876 0.19116 0.89193 0.0
C500 C 0.93055 0.15608 1.00533 0.0
C501 C 0.91167 0.14334 0.95029 0.0
C502 C 0.91319 0.135 1.03414 0.0
C503 C 0.85915 0.07676 1.04103 0.0
C504 C 0.89365 0.12006 0.98196 0.0
C505 C 0.82394 0.04146 1.01685 0.0
C506 C 0.86924 0.11837 0.92716 0.0
C507 C -0.01026 0.21406 0.91579 0.0
N508 N 0.84128 0.06367 0.98891 0.0
N509 N 0.97057 0.19073 0.94333 0.0
H510 H 0.81777 0.86713 0.21496 0.0
H511 H 0.8639 0.95885 0.38457 0.0
H512 H 0.86875 0.05243 0.24591 0.0
H513 H 0.87459 0.79938 0.35344 0.0
H514 H 0.85593 0.98741 0.33492 0.0
H515 H 0.82836 0.83655 0.26435 0.0
C516 C 0.83101 0.90174 0.23196 0.0
C517 C 0.84217 0.96312 0.2253 0.0
C518 C 0.85975 0.94595 0.33868 0.0
C519 C 0.85389 0.92694 0.28362 0.0
C520 C 0.86405 0.92898 0.36746 0.0
C521 C 0.86953 0.8756 0.3743 0.0
C522 C 0.85961 0.9093 0.31527 0.0
C523 C 0.87023 0.84062 0.35009 0.0
C524 C 0.83729 0.88396 0.26049 0.0
C525 C 0.85949 0.00474 0.24916 0.0
N526 N 0.86481 0.85755 0.32218 0.0
N527 N 0.86414 0.98596 0.27668 0.0
H528 H 0.90861 0.89114 0.57861 0.0
H529 H 0.17481 0.90786 0.6864 0.0
H530 H 0.04742 0.84993 0.54868 0.0
H531 H 0.00179 0.88538 0.71654 0.0
H532 H 0.13706 0.89846 0.63625 0.0
H533 H 0.94847 0.90059 0.62801 0.0
C534 C 0.94758 0.88416 0.58212 0.0
C535 C 0.97371 0.86926 0.55845 0.0
C536 C 0.10717 0.89549 0.6538 0.0
C537 C 0.02172 0.88145 0.61672 0.0
C538 C 0.129 0.90101 0.68279 0.0
C539 C 0.09191 0.89687 0.70675 0.0
C540 C 0.04773 0.88712 0.64783 0.0
C541 C 0.03275 0.88822 0.69953 0.0
C542 C 0.97054 0.88955 0.61074 0.0
C543 C 0.02465 0.8611 0.56556 0.0
N544 N 0.01329 0.8842 0.6714 0.0
N545 N 0.04672 0.86762 0.59344 0.0
H546 H 0.2987 0.06593 0.87981 0.0
H547 H 0.36649 0.19794 1.02103 0.0
H548 H 0.11803 0.93203 0.91289 0.0
H549 H 0.21692 0.01715 1.04872 0.0
H550 H 0.33955 0.16327 0.97059 0.0
H551 H 0.33154 0.10822 0.92856 0.0
C552 C 0.26541 0.04505 0.89718 0.0
C553 C 0.20473 -0.00541 0.89117 0.0
C554 C 0.31266 0.13056 0.98755 0.0
C555 C 0.24337 0.04455 0.94919 0.0
C556 C 0.32817 0.15085 1.01679 0.0
C557 C 0.29511 0.11085 1.04019 0.0
C558 C 0.26246 0.06942 0.98067 0.0
C559 C 0.24515 0.05032 1.03214 0.0
C560 C 0.28444 0.06997 0.92547 0.0
C561 C 0.16507 0.97078 0.91559 0.0
N562 N 0.23059 0.03217 1.00373 0.0
N563 N 0.18498 -0.00478 0.94296 0.0
loop_
_geom_bond_atom_site_label_1
_geom_bond_atom_site_label_2
_geom_bond_distance
_geom_bond_site_symmetry_2
_ccdc_geom_bond_type
Ho0 C3 2.811 . S
Ho0 O20 2.322 . S
Ho0 O22 2.378 . S
Ho0 O23 2.524 . S
Ho0 O24 2.381 . S
Ho0 O25 2.669 1_554 S
Ho0 O27 2.346 1_554 S
Ho0 O31 2.305 . S
Ho1 C12 2.811 . S
Ho1 O21 2.346 1_556 S
Ho1 O25 2.305 . S
Ho1 O26 2.322 . S
Ho1 O28 2.378 . S
Ho1 O29 2.524 . S
Ho1 O30 2.381 . S
Ho1 O31 2.669 1_556 S
C2 O20 1.259 . S
C2 O21 1.268 . S
C3 Ho0 2.811 . S
C3 C4 1.488 . S
C3 O22 1.215 . S
C3 O23 1.289 . S
C4 C3 1.488 . S
C4 C5 1.348 . S
C4 C9 1.413 . S
C5 C4 1.348 . S
C5 C6 1.442 . S
C5 H32 0.930 . S
C6 C5 1.442 . S
C6 C7 1.381 . S
C6 H33 0.931 . S
C7 C6 1.381 . S
C7 C8 1.321 1_545 S
C8 C7 1.321 1_565 S
C8 C9 1.403 1_565 S
C8 H34 0.934 . S
C9 C4 1.413 . S
C9 C8 1.403 1_545 S
C9 H35 0.930 . S
C10 O24 1.275 . S
C10 O25 1.256 1_554 S
C11 O26 1.259 . S
C11 O27 1.268 . S
C12 Ho1 2.811 . S
C12 C13 1.488 . S
C12 O28 1.215 . S
C12 O29 1.289 . S
C13 C12 1.488 . S
C13 C14 1.348 . S
C13 C18 1.413 . S
C14 C13 1.348 . S
C14 C15 1.442 . S
C14 H36 0.930 . S
C15 C14 1.442 . S
C15 C16 1.381 . S
C15 H37 0.931 . S
C16 C15 1.381 . S
C16 C17 1.321 . S
C17 C16 1.321 . S
C17 C18 1.403 . S
C17 H38 0.934 . S
C18 C13 1.413 . S
C18 C17 1.403 . S
C18 H39 0.930 . S
C19 O30 1.275 1_554 S
C19 O31 1.256 . S
O20 Ho0 2.322 . S
O20 C2 1.259 . S
O21 Ho1 2.346 1_554 S
O21 C2 1.268 . S
O22 Ho0 2.378 . S
O22 C3 1.215 . S
O23 Ho0 2.524 . S
O23 C3 1.289 . S
O24 Ho0 2.381 . S
O24 C10 1.275 . S
O25 Ho0 2.669 1_556 S
O25 Ho1 2.305 . S
O25 C10 1.256 1_556 S
O26 Ho1 2.322 . S
O26 C11 1.259 . S
O27 Ho0 2.346 1_556 S
O27 C11 1.268 . S
O28 Ho1 2.378 . S
O28 C12 1.215 . S
O29 Ho1 2.524 . S
O29 C12 1.289 . S
O30 Ho1 2.381 . S
O30 C19 1.275 1_556 S
O31 Ho0 2.305 . S
O31 Ho1 2.669 1_554 S
O31 C19 1.256 . S
H32 C5 0.930 . S
H33 C6 0.931 . S
H34 C8 0.934 . S
H35 C9 0.930 . S
H36 C14 0.930 . S
H37 C15 0.931 . S
H38 C17 0.934 . S
H39 C18 0.930 . S
Ho40 C43 2.811 . S
Ho40 O60 2.322 . S
Ho40 O62 2.378 . S
Ho40 O63 2.524 . S
Ho40 O64 2.381 . S
Ho40 O65 2.669 . S
Ho40 O67 2.346 . S
Ho40 O71 2.305 . S
Ho41 C52 2.811 . S
Ho41 O61 2.346 . S
Ho41 O65 2.305 . S
Ho41 O66 2.322 . S
Ho41 O68 2.378 . S
Ho41 O69 2.524 . S
Ho41 O70 2.381 . S
Ho41 O71 2.669 . S
C42 O60 1.259 . S
C42 O61 1.268 . S
C43 Ho40 2.811 . S
C43 C44 1.488 . S
C43 O62 1.215 . S
C43 O63 1.289 . S
C44 C43 1.488 . S
C44 C45 1.348 . S
C44 C49 1.413 . S
C45 C44 1.348 . S
C45 C46 1.442 . S
C45 H72 0.930 . S
C46 C45 1.442 . S
C46 C47 1.381 . S
C46 H73 0.931 . S
C47 C46 1.381 . S
C47 C48 1.321 . S
C48 C47 1.321 . S
C48 C49 1.403 . S
C48 H74 0.934 . S
C49 C44 1.413 . S
C49 C48 1.403 . S
C49 H75 0.930 . S
C50 O64 1.275 . S
C50 O65 1.256 . S
C51 O66 1.259 . S
C51 O67 1.268 . S
C52 Ho41 2.811 . S
C52 C53 1.488 . S
C52 O68 1.215 . S
C52 O69 1.289 . S
C53 C52 1.488 . S
C53 C54 1.348 . S
C53 C58 1.413 . S
C54 C53 1.348 . S
C54 C55 1.442 . S
C54 H76 0.930 . S
C55 C54 1.442 . S
C55 C56 1.381 . S
C55 H77 0.931 . S
C56 C55 1.381 . S
C56 C57 1.321 . S
C57 C56 1.321 . S
C57 C58 1.403 . S
C57 H78 0.934 . S
C58 C53 1.413 . S
C58 C57 1.403 . S
C58 H79 0.930 . S
C59 O70 1.275 . S
C59 O71 1.256 . S
O60 Ho40 2.322 . S
O60 C42 1.259 . S
O61 Ho41 2.346 . S
O61 C42 1.268 . S
O62 Ho40 2.378 . S
O62 C43 1.215 . S
O63 Ho40 2.524 . S
O63 C43 1.289 . S
O64 Ho40 2.381 . S
O64 C50 1.275 . S
O65 Ho40 2.669 . S
O65 Ho41 2.305 . S
O65 C50 1.256 . S
O66 Ho41 2.322 . S
O66 C51 1.259 . S
O67 Ho40 2.346 . S
O67 C51 1.268 . S
O68 Ho41 2.378 . S
O68 C52 1.215 . S
O69 Ho41 2.524 . S
O69 C52 1.289 . S
O70 Ho41 2.381 . S
O70 C59 1.275 . S
O71 Ho40 2.305 . S
O71 Ho41 2.669 . S
O71 C59 1.256 . S
H72 C45 0.930 . S
H73 C46 0.931 . S
H74 C48 0.934 . S
H75 C49 0.930 . S
H76 C54 0.930 . S
H77 C55 0.931 . S
H78 C57 0.934 . S
H79 C58 0.930 . S
Ho80 C83 2.811 . S
Ho80 O100 2.322 1_455 S
Ho80 O102 2.378 . S
Ho80 O103 2.524 . S
Ho80 O104 2.381 . S
Ho80 O105 2.669 1_455 S
Ho80 O107 2.346 . S
Ho80 O111 2.305 . S
Ho81 C92 2.811 . S
Ho81 O101 2.346 . S
Ho81 O105 2.305 . S
Ho81 O106 2.322 1_655 S
Ho81 O108 2.378 . S
Ho81 O109 2.524 . S
Ho81 O110 2.381 . S
Ho81 O111 2.669 1_655 S
C82 O100 1.259 . S
C82 O101 1.268 . S
C83 Ho80 2.811 . S
C83 C84 1.488 . S
C83 O102 1.215 . S
C83 O103 1.289 . S
C84 C83 1.488 . S
C84 C85 1.348 . S
C84 C89 1.413 . S
C85 C84 1.348 . S
C85 C86 1.442 . S
C85 H112 0.930 . S
C86 C85 1.442 . S
C86 C87 1.381 . S
C86 H113 0.931 . S
C87 C86 1.381 . S
C87 C88 1.321 . S
C88 C87 1.321 . S
C88 C89 1.403 . S
C88 H114 0.934 . S
C89 C84 1.413 . S
C89 C88 1.403 . S
C89 H115 0.930 . S
C90 O104 1.275 . S
C90 O105 1.256 1_455 S
C91 O106 1.259 . S
C91 O107 1.268 . S
C92 Ho81 2.811 . S
C92 C93 1.488 . S
C92 O108 1.215 . S
C92 O109 1.289 . S
C93 C92 1.488 . S
C93 C94 1.348 . S
C93 C98 1.413 . S
C94 C93 1.348 . S
C94 C95 1.442 . S
C94 H116 0.930 . S
C95 C94 1.442 . S
C95 C96 1.381 . S
C95 H117 0.931 . S
C96 C95 1.381 . S
C96 C97 1.321 . S
C97 C96 1.321 . S
C97 C98 1.403 . S
C97 H118 0.934 . S
C98 C93 1.413 . S
C98 C97 1.403 . S
C98 H119 0.930 . S
C99 O110 1.275 . S
C99 O111 1.256 1_655 S
O100 Ho80 2.322 1_655 S
O100 C82 1.259 . S
O101 Ho81 2.346 . S
O101 C82 1.268 . S
O102 Ho80 2.378 . S
O102 C83 1.215 . S
O103 Ho80 2.524 . S
O103 C83 1.289 . S
O104 Ho80 2.381 . S
O104 C90 1.275 . S
O105 Ho80 2.669 1_655 S
O105 Ho81 2.305 . S
O105 C90 1.256 1_655 S
O106 Ho81 2.322 1_455 S
O106 C91 1.259 . S
O107 Ho80 2.346 . S
O107 C91 1.268 . S
O108 Ho81 2.378 . S
O108 C92 1.215 . S
O109 Ho81 2.524 . S
O109 C92 1.289 . S
O110 Ho81 2.381 . S
O110 C99 1.275 . S
O111 Ho80 2.305 . S
O111 Ho81 2.669 1_455 S
O111 C99 1.256 1_455 S
H112 C85 0.930 . S
H113 C86 0.931 . S
H114 C88 0.934 . S
H115 C89 0.930 . S
H116 C94 0.930 . S
H117 C95 0.931 . S
H118 C97 0.934 . S
H119 C98 0.930 . S
Ho120 C123 2.811 . S
Ho120 O140 2.305 1_545 S
Ho120 O142 2.378 . S
Ho120 O143 2.524 . S
Ho120 O144 2.381 . S
Ho120 O145 2.669 1_544 S
Ho120 O147 2.346 1_554 S
Ho120 O151 2.305 . S
Ho121 C132 2.811 . S
Ho121 O141 2.346 1_556 S
Ho121 O145 2.305 . S
Ho121 O146 2.322 1_565 S
Ho121 O148 2.378 . S
Ho121 O149 2.524 . S
Ho121 O150 2.381 . S
Ho121 O151 2.669 1_566 S
C122 O140 1.273 . S
C122 O141 1.268 . S
C123 Ho120 2.811 . S
C123 C124 1.488 . S
C123 O142 1.215 . S
C123 O143 1.289 . S
C124 C123 1.488 . S
C124 C125 1.348 . S
C124 C129 1.413 . S
C125 C124 1.348 . S
C125 C126 1.442 . S
C125 H152 0.930 . S
C126 C125 1.442 . S
C126 C127 1.381 . S
C126 H153 0.931 . S
C127 C126 1.381 . S
C127 C128 1.321 . S
C128 C127 1.321 . S
C128 C129 1.403 . S
C128 H154 0.934 . S
C129 C124 1.413 . S
C129 C128 1.403 . S
C129 H155 0.930 . S
C130 O144 1.275 . S
C130 O145 1.256 1_544 S
C131 O146 1.259 . S
C131 O147 1.268 . S
C132 Ho121 2.811 . S
C132 C133 1.488 . S
C132 O148 1.215 . S
C132 O149 1.289 . S
C133 C132 1.488 . S
C133 C134 1.348 . S
C133 C138 1.413 . S
C134 C133 1.348 . S
C134 C135 1.442 . S
C134 H156 0.930 . S
C135 C134 1.442 . S
C135 C136 1.381 . S
C135 H157 0.931 . S
C136 C135 1.381 . S
C136 C137 1.321 . S
C137 C136 1.321 . S
C137 C138 1.403 . S
C137 H158 0.934 . S
C138 C133 1.413 . S
C138 C137 1.403 . S
C138 H159 0.930 . S
C139 O150 1.275 1_554 S
C139 O151 1.256 1_565 S
O140 Ho120 2.305 1_565 S
O140 C122 1.273 . S
O141 Ho121 2.346 1_554 S
O141 C122 1.268 . S
O142 Ho120 2.378 . S
O142 C123 1.215 . S
O143 Ho120 2.524 . S
O143 C123 1.289 . S
O144 Ho120 2.381 . S
O144 C130 1.275 . S
O145 Ho120 2.669 1_566 S
O145 Ho121 2.305 . S
O145 C130 1.256 1_566 S
O146 Ho121 2.322 1_545 S
O146 C131 1.259 . S
O147 Ho120 2.346 1_556 S
O147 C131 1.268 . S
O148 Ho121 2.378 . S
O148 C132 1.215 . S
O149 Ho121 2.524 . S
O149 C132 1.289 . S
O150 Ho121 2.381 . S
O150 C139 1.275 1_556 S
O151 Ho120 2.305 . S
O151 Ho121 2.669 1_544 S
O151 C139 1.256 1_545 S
H152 C125 0.930 . S
H153 C126 0.931 . S
H154 C128 0.934 . S
H155 C129 0.930 . S
H156 C134 0.930 . S
H157 C135 0.931 . S
H158 C137 0.934 . S
H159 C138 0.930 . S
Ho160 C163 2.811 . S
Ho160 O180 2.322 . S
Ho160 O182 2.378 . S
Ho160 O183 2.524 . S
Ho160 O184 2.381 . S
Ho160 O185 2.669 . S
Ho160 O187 2.346 . S
Ho160 O191 2.305 . S
Ho161 C172 2.811 . S
Ho161 O181 2.346 . S
Ho161 O185 2.305 . S
Ho161 O186 2.322 . S
Ho161 O188 2.378 . S
Ho161 O189 2.524 1_655 S
Ho161 O190 2.381 . S
Ho161 O191 2.669 . S
C162 O180 1.259 . S
C162 O181 1.268 . S
C163 Ho160 2.811 . S
C163 C164 1.488 . S
C163 O182 1.215 . S
C163 O183 1.289 . S
C164 C163 1.488 . S
C164 C165 1.348 . S
C164 C169 1.413 . S
C165 C164 1.348 . S
C165 C166 1.442 . S
C165 H192 0.930 . S
C166 C165 1.442 . S
C166 C167 1.381 . S
C166 H193 0.931 . S
C167 C166 1.381 . S
C167 C168 1.321 . S
C168 C167 1.321 . S
C168 C169 1.403 . S
C168 H194 0.934 . S
C169 C164 1.413 . S
C169 C168 1.403 . S
C169 H195 0.930 . S
C170 O184 1.275 1_455 S
C170 O185 1.256 1_455 S
C171 O186 1.259 . S
C171 O187 1.268 . S
C172 Ho161 2.811 . S
C172 C173 1.488 1_655 S
C172 O188 1.215 . S
C172 O189 1.289 1_655 S
C173 C172 1.488 1_455 S
C173 C174 1.348 . S
C173 C178 1.413 1_455 S
C174 C173 1.348 . S
C174 C175 1.442 . S
C174 H196 0.930 . S
C175 C174 1.442 . S
C175 C176 1.381 . S
C175 H197 0.931 . S
C176 C175 1.381 . S
C176 C177 1.321 . S
C177 C176 1.321 . S
C177 C178 1.403 1_455 S
C177 H198 0.934 1_455 S
C178 C173 1.413 1_655 S
C178 C177 1.403 1_655 S
C178 H199 0.930 . S
C179 O190 1.275 . S
C179 O191 1.256 . S
O180 Ho160 2.322 . S
O180 C162 1.259 . S
O181 Ho161 2.346 . S
O181 C162 1.268 . S
O182 Ho160 2.378 . S
O182 C163 1.215 . S
O183 Ho160 2.524 . S
O183 C163 1.289 . S
O184 Ho160 2.381 . S
O184 C170 1.275 1_655 S
O185 Ho160 2.669 . S
O185 Ho161 2.305 . S
O185 C170 1.256 1_655 S
O186 Ho161 2.322 . S
O186 C171 1.259 . S
O187 Ho160 2.346 . S
O187 C171 1.268 . S
O188 Ho161 2.378 . S
O188 C172 1.215 . S
O189 Ho161 2.524 1_455 S
O189 C172 1.289 1_455 S
O190 Ho161 2.381 . S
O190 C179 1.275 . S
O191 Ho160 2.305 . S
O191 Ho161 2.669 . S
O191 C179 1.256 . S
H192 C165 0.930 . S
H193 C166 0.931 . S
H194 C168 0.934 . S
H195 C169 0.930 . S
H196 C174 0.930 . S
H197 C175 0.931 . S
H198 C177 0.934 1_655 S
H199 C178 0.930 . S
Ho200 C203 2.811 . S
Ho200 O220 2.322 . S
Ho200 O222 2.378 . S
Ho200 O223 2.524 . S
Ho200 O224 2.381 . S
Ho200 O225 2.669 . S
Ho200 O227 2.346 . S
Ho200 O231 2.305 . S
Ho201 C212 2.811 . S
Ho201 O221 2.346 . S
Ho201 O225 2.305 . S
Ho201 O226 2.322 . S
Ho201 O228 2.378 . S
Ho201 O229 2.524 1_565 S
Ho201 O230 2.381 . S
Ho201 O231 2.669 . S
C202 O220 1.259 . S
C202 O221 1.268 . S
C203 Ho200 2.811 . S
C203 C204 1.488 . S
C203 O222 1.215 . S
C203 O223 1.289 . S
C204 C203 1.488 . S
C204 C205 1.348 . S
C204 C209 1.413 . S
C205 C204 1.348 . S
C205 C206 1.442 . S
C205 H232 0.930 . S
C206 C205 1.442 . S
C206 C207 1.381 . S
C206 H233 0.931 . S
C207 C206 1.381 . S
C207 C208 1.321 1_455 S
C208 C207 1.321 1_655 S
C208 C209 1.403 1_655 S
C208 H234 0.934 . S
C209 C204 1.413 . S
C209 C208 1.403 1_455 S
C209 H235 0.930 . S
C210 O224 1.275 1_545 S
C210 O225 1.256 1_545 S
C211 O226 1.259 . S
C211 O227 1.268 . S
C212 Ho201 2.811 . S
C212 C213 1.488 1_565 S
C212 O228 1.215 . S
C212 O229 1.289 1_565 S
C213 C212 1.488 1_545 S
C213 C214 1.348 . S
C213 C218 1.413 1_545 S
C214 C213 1.348 . S
C214 C215 1.442 . S
C214 H236 0.930 . S
C215 C214 1.442 . S
C215 C216 1.381 . S
C215 H237 0.931 . S
C216 C215 1.381 . S
C216 C217 1.321 . S
C217 C216 1.321 . S
C217 C218 1.403 1_545 S
C217 H238 0.934 1_545 S
C218 C213 1.413 1_565 S
C218 C217 1.403 1_565 S
C218 H239 0.930 . S
C219 O230 1.275 . S
C219 O231 1.256 . S
O220 Ho200 2.322 . S
O220 C202 1.259 . S
O221 Ho201 2.346 . S
O221 C202 1.268 . S
O222 Ho200 2.378 . S
O222 C203 1.215 . S
O223 Ho200 2.524 . S
O223 C203 1.289 . S
O224 Ho200 2.381 . S
O224 C210 1.275 1_565 S
O225 Ho200 2.669 . S
O225 Ho201 2.305 . S
O225 C210 1.256 1_565 S
O226 Ho201 2.322 . S
O226 C211 1.259 . S
O227 Ho200 2.346 . S
O227 C211 1.268 . S
O228 Ho201 2.378 . S
O228 C212 1.215 . S
O229 Ho201 2.524 1_545 S
O229 C212 1.289 1_545 S
O230 Ho201 2.381 . S
O230 C219 1.275 . S
O231 Ho200 2.305 . S
O231 Ho201 2.669 . S
O231 C219 1.256 . S
H232 C205 0.930 . S
H233 C206 0.931 . S
H234 C208 0.934 . S
H235 C209 0.930 . S
H236 C214 0.930 . S
H237 C215 0.931 . S
H238 C217 0.934 1_565 S
H239 C218 0.930 . S
H240 C246 0.930 1_565 S
H241 C250 0.930 . S
H242 C255 0.929 . S
H243 C253 0.929 . S
H244 C248 0.929 . S
H245 C254 0.929 . S
C246 H240 0.930 1_545 S
C246 C247 1.367 . S
C246 C254 1.378 1_655 S
C247 C246 1.367 . S
C247 C255 1.433 1_554 S
C248 H244 0.929 . S
C248 C250 1.378 . S
C248 C252 1.331 1_556 S
C249 C252 1.464 . S
C249 C254 1.350 . S
C249 N257 1.427 1_554 S
C250 H241 0.930 . S
C250 C248 1.378 . S
C250 C251 1.340 1_556 S
C251 C250 1.340 1_554 S
C251 C253 1.461 . S
C252 C248 1.331 1_554 S
C252 C249 1.464 . S
C252 N256 1.446 . S
C253 H243 0.929 . S
C253 C251 1.461 . S
C253 N256 1.384 . S
C254 H245 0.929 . S
C254 C246 1.378 1_455 S
C254 C249 1.350 . S
C255 H242 0.929 . S
C255 C247 1.433 1_556 S
C255 N257 1.384 1_655 S
N256 C252 1.446 . S
N256 C253 1.384 . S
N257 C249 1.427 1_556 S
N257 C255 1.384 1_455 S
H258 C264 0.930 . S
H259 C268 0.930 . S
H260 C273 0.929 . S
H261 C271 0.929 . S
H262 C266 0.929 . S
H263 C272 0.929 . S
C264 H258 0.930 . S
C264 C265 1.367 . S
C264 C272 1.378 1_565 S
C265 C264 1.367 . S
C265 C273 1.433 1_455 S
C266 H262 0.929 . S
C266 C268 1.378 . S
C266 C270 1.350 . S
C267 C270 1.463 . S
C267 C272 1.350 . S
C267 N275 1.427 . S
C268 H259 0.930 . S
C268 C266 1.378 . S
C268 C269 1.367 . S
C269 C268 1.367 . S
C269 C271 1.433 . S
C270 C266 1.350 . S
C270 C267 1.463 . S
C270 N274 1.427 . S
C271 H261 0.929 . S
C271 C269 1.433 . S
C271 N274 1.384 . S
C272 H263 0.929 . S
C272 C264 1.378 1_545 S
C272 C267 1.350 . S
C273 H260 0.929 . S
C273 C265 1.433 1_655 S
C273 N275 1.384 1_665 S
N274 C270 1.427 . S
N274 C271 1.384 . S
N275 C267 1.427 . S
N275 C273 1.384 1_445 S
H276 C282 0.930 1_565 S
H277 C286 0.930 . S
H278 C291 0.929 . S
H279 C289 0.929 . S
H280 C284 0.929 . S
H281 C290 0.929 . S
C282 H276 0.930 1_545 S
C282 C283 1.367 . S
C282 C290 1.378 . S
C283 C282 1.367 . S
C283 C291 1.433 . S
C284 H280 0.929 . S
C284 C286 1.378 . S
C284 C288 1.350 . S
C285 C288 1.463 . S
C285 C290 1.350 . S
C285 N293 1.427 . S
C286 H277 0.930 . S
C286 C284 1.378 . S
C286 C287 1.367 . S
C287 C286 1.367 . S
C287 C289 1.433 1_455 S
C288 C284 1.350 . S
C288 C285 1.463 . S
C288 N292 1.427 . S
C289 H279 0.929 . S
C289 C287 1.433 1_655 S
C289 N292 1.384 1_655 S
C290 H281 0.929 . S
C290 C282 1.378 . S
C290 C285 1.350 . S
C291 H278 0.929 . S
C291 C283 1.433 . S
C291 N293 1.384 . S
N292 C288 1.427 . S
N292 C289 1.384 1_455 S
N293 C285 1.427 . S
N293 C291 1.384 . S
H294 C300 0.930 . S
H295 C304 0.930 . S
H296 C309 0.929 . S
H297 C307 0.929 . S
H298 C302 0.929 . S
H299 C308 0.929 . S
C300 H294 0.930 . S
C300 C301 1.367 . S
C300 C308 1.378 . S
C301 C300 1.367 . S
C301 C309 1.433 . S
C302 H298 0.929 . S
C302 C304 1.378 . S
C302 C306 1.350 . S
C303 C306 1.463 . S
C303 C308 1.350 . S
C303 N311 1.427 . S
C304 H295 0.930 . S
C304 C302 1.378 . S
C304 C305 1.367 . S
C305 C304 1.367 . S
C305 C307 1.433 . S
C306 C302 1.350 . S
C306 C303 1.463 . S
C306 N310 1.427 . S
C307 H297 0.929 . S
C307 C305 1.433 . S
C307 N310 1.384 . S
C308 H299 0.929 . S
C308 C300 1.378 . S
C308 C303 1.350 . S
C309 H296 0.929 . S
C309 C301 1.433 . S
C309 N311 1.384 . S
N310 C306 1.427 . S
N310 C307 1.384 . S
N311 C303 1.427 . S
N311 C309 1.384 . S
H312 C318 0.930 . S
H313 C322 0.930 . S
H314 C327 0.929 . S
H315 C325 0.929 . S
H316 C320 0.929 1_455 S
H317 C326 0.929 . S
C318 H312 0.930 . S
C318 C319 1.367 . S
C318 C326 1.378 . S
C319 C318 1.367 . S
C319 C327 1.433 . S
C320 H316 0.929 1_655 S
C320 C322 1.378 . S
C320 C324 1.350 . S
C321 C324 1.463 1_455 S
C321 C326 1.350 . S
C321 N329 1.427 . S
C322 H313 0.930 . S
C322 C320 1.378 . S
C322 C323 1.367 . S
C323 C322 1.367 . S
C323 C325 1.433 . S
C324 C320 1.350 . S
C324 C321 1.463 1_655 S
C324 N328 1.427 . S
C325 H315 0.929 . S
C325 C323 1.433 . S
C325 N328 1.384 . S
C326 H317 0.929 . S
C326 C318 1.378 . S
C326 C321 1.350 . S
C327 H314 0.929 . S
C327 C319 1.433 . S
C327 N329 1.384 . S
N328 C324 1.427 . S
N328 C325 1.384 . S
N329 C321 1.427 . S
N329 C327 1.384 . S
H330 C336 0.930 . S
H331 C340 0.930 . S
H332 C345 0.929 . S
H333 C343 0.929 . S
H334 C338 0.929 . S
H335 C344 0.929 . S
C336 H330 0.930 . S
C336 C337 1.367 . S
C336 C344 1.378 . S
C337 C336 1.367 . S
C337 C345 1.433 . S
C338 H334 0.929 . S
C338 C340 1.378 . S
C338 C342 1.350 . S
C339 C342 1.463 1_545 S
C339 C344 1.350 . S
C339 N347 1.427 . S
C340 H331 0.930 . S
C340 C338 1.378 . S
C340 C341 1.367 . S
C341 C340 1.367 . S
C341 C343 1.433 . S
C342 C338 1.350 . S
C342 C339 1.463 1_565 S
C342 N346 1.427 . S
C343 H333 0.929 . S
C343 C341 1.433 . S
C343 N346 1.384 . S
C344 H335 0.929 . S
C344 C336 1.378 . S
C344 C339 1.350 . S
C345 H332 0.929 . S
C345 C337 1.433 . S
C345 N347 1.384 . S
N346 C342 1.427 . S
N346 C343 1.384 . S
N347 C339 1.427 . S
N347 C345 1.384 . S
H348 C354 0.930 . S
H349 C358 0.930 . S
H350 C363 0.929 . S
H351 C361 0.929 . S
H352 C356 0.929 . S
H353 C362 0.929 . S
C354 H348 0.930 . S
C354 C355 1.367 . S
C354 C362 1.378 . S
C355 C354 1.367 . S
C355 C363 1.433 . S
C356 H352 0.929 . S
C356 C358 1.378 . S
C356 C360 1.350 . S
C357 C360 1.463 . S
C357 C362 1.350 . S
C357 N365 1.427 . S
C358 H349 0.930 . S
C358 C356 1.378 . S
C358 C359 1.367 . S
C359 C358 1.367 . S
C359 C361 1.433 1_655 S
C360 C356 1.350 . S
C360 C357 1.463 . S
C360 N364 1.427 . S
C361 H351 0.929 . S
C361 C359 1.433 1_455 S
C361 N364 1.384 1_455 S
C362 H353 0.929 . S
C362 C354 1.378 . S
C362 C357 1.350 . S
C363 H350 0.929 . S
C363 C355 1.433 . S
C363 N365 1.384 . S
N364 C360 1.427 . S
N364 C361 1.384 1_655 S
N365 C357 1.427 . S
N365 C363 1.384 . S
H366 C372 0.930 . S
H367 C376 0.931 . S
H368 C381 0.929 . S
H369 C379 0.929 . S
H370 C374 0.929 . S
H371 C380 0.929 . S
C372 H366 0.930 . S
C372 C373 1.367 . S
C372 C380 1.378 . S
C373 C372 1.367 . S
C373 C381 1.433 . S
C374 H370 0.929 . S
C374 C376 1.378 . S
C374 C378 1.350 . S
C375 C378 1.463 . S
C375 C380 1.350 . S
C375 N383 1.427 . S
C376 H367 0.931 . S
C376 C374 1.378 . S
C376 C377 1.367 . S
C377 C376 1.367 . S
C377 C379 1.433 . S
C378 C374 1.350 . S
C378 C375 1.463 . S
C378 N382 1.427 . S
C379 H369 0.929 . S
C379 C377 1.433 . S
C379 N382 1.384 . S
C380 H371 0.929 . S
C380 C372 1.378 . S
C380 C375 1.350 . S
C381 H368 0.929 . S
C381 C373 1.433 . S
C381 N383 1.384 . S
N382 C378 1.427 . S
N382 C379 1.384 . S
N383 C375 1.427 . S
N383 C381 1.384 . S
H384 C390 0.930 . S
H385 C394 0.930 . S
H386 C399 0.929 . S
H387 C397 0.929 . S
H388 C392 0.929 . S
H389 C398 0.929 . S
C390 H384 0.930 . S
C390 C391 1.367 . S
C390 C398 1.378 . S
C391 C390 1.367 . S
C391 C399 1.433 . S
C392 H388 0.929 . S
C392 C394 1.378 . S
C392 C396 1.350 . S
C393 C396 1.463 . S
C393 C398 1.350 . S
C393 N401 1.427 . S
C394 H385 0.930 . S
C394 C392 1.378 . S
C394 C395 1.367 . S
C395 C394 1.367 . S
C395 C397 1.433 . S
C396 C392 1.350 . S
C396 C393 1.463 . S
C396 N400 1.427 . S
C397 H387 0.929 . S
C397 C395 1.433 . S
C397 N400 1.384 . S
C398 H389 0.929 . S
C398 C390 1.378 . S
C398 C393 1.350 . S
C399 H386 0.929 . S
C399 C391 1.433 . S
C399 N401 1.384 . S
N400 C396 1.427 . S
N400 C397 1.384 . S
N401 C393 1.427 . S
N401 C399 1.384 . S
H402 C408 0.930 . S
H403 C412 0.930 . S
H404 C417 0.929 . S
H405 C415 0.929 1_565 S
H406 C410 0.929 . S
H407 C416 0.929 . S
C408 H402 0.930 . S
C408 C409 1.367 1_556 S
C408 C416 1.378 . S
C409 C408 1.367 1_554 S
C409 C417 1.433 . S
C410 H406 0.929 . S
C410 C412 1.378 . S
C410 C414 1.350 . S
C411 C414 1.463 . S
C411 C416 1.350 1_554 S
C411 N419 1.427 . S
C412 H403 0.930 . S
C412 C410 1.378 . S
C412 C413 1.367 . S
C413 C412 1.367 . S
C413 C415 1.433 1_554 S
C414 C410 1.350 . S
C414 C411 1.463 . S
C414 N418 1.427 1_554 S
C415 H405 0.929 1_545 S
C415 C413 1.433 1_556 S
C415 N418 1.384 . S
C416 H407 0.929 . S
C416 C408 1.378 . S
C416 C411 1.350 1_556 S
C417 H404 0.929 . S
C417 C409 1.433 . S
C417 N419 1.384 . S
N418 C414 1.427 1_556 S
N418 C415 1.384 . S
N419 C411 1.427 . S
N419 C417 1.384 . S
H420 C426 0.930 . S
H421 C430 0.930 . S
H422 C435 0.929 . S
H423 C433 0.929 . S
H424 C428 0.929 . S
H425 C434 0.929 . S
C426 H420 0.930 . S
C426 C427 1.367 . S
C426 C434 1.378 . S
C427 C426 1.367 . S
C427 C435 1.433 . S
C428 H424 0.929 . S
C428 C430 1.378 . S
C428 C432 1.350 . S
C429 C432 1.463 . S
C429 C434 1.350 . S
C429 N437 1.427 . S
C430 H421 0.930 . S
C430 C428 1.378 . S
C430 C431 1.367 . S
C431 C430 1.367 . S
C431 C433 1.433 . S
C432 C428 1.350 . S
C432 C429 1.463 . S
C432 N436 1.427 . S
C433 H423 0.929 . S
C433 C431 1.433 . S
C433 N436 1.384 . S
C434 H425 0.929 . S
C434 C426 1.378 . S
C434 C429 1.350 . S
C435 H422 0.929 . S
C435 C427 1.433 . S
C435 N437 1.384 . S
N436 C432 1.427 . S
N436 C433 1.384 . S
N437 C429 1.427 . S
N437 C435 1.384 . S
H438 C444 0.930 . S
H439 C448 0.930 . S
H440 C453 0.929 . S
H441 C451 0.929 . S
H442 C446 0.929 . S
H443 C452 0.929 . S
C444 H438 0.930 . S
C444 C445 1.367 . S
C444 C452 1.378 . S
C445 C444 1.367 . S
C445 C453 1.433 1_455 S
C446 H442 0.929 . S
C446 C448 1.378 . S
C446 C450 1.350 . S
C447 C450 1.463 . S
C447 C452 1.350 . S
C447 N455 1.427 . S
C448 H439 0.930 . S
C448 C446 1.378 . S
C448 C449 1.367 . S
C449 C448 1.367 . S
C449 C451 1.433 . S
C450 C446 1.350 . S
C450 C447 1.463 . S
C450 N454 1.427 . S
C451 H441 0.929 . S
C451 C449 1.433 . S
C451 N454 1.384 . S
C452 H443 0.929 . S
C452 C444 1.378 . S
C452 C447 1.350 . S
C453 H440 0.929 . S
C453 C445 1.433 1_655 S
C453 N455 1.384 1_655 S
N454 C450 1.427 . S
N454 C451 1.384 . S
N455 C447 1.427 . S
N455 C453 1.384 1_455 S
H456 C462 0.930 . S
H457 C466 0.930 . S
H458 C471 0.929 . S
H459 C469 0.929 . S
H460 C464 0.929 . S
H461 C470 0.929 . S
C462 H456 0.930 . S
C462 C463 1.367 . S
C462 C470 1.378 . S
C463 C462 1.367 . S
C463 C471 1.433 . S
C464 H460 0.929 . S
C464 C466 1.378 . S
C464 C468 1.350 . S
C465 C468 1.463 . S
C465 C470 1.350 . S
C465 N473 1.427 . S
C466 H457 0.930 . S
C466 C464 1.378 . S
C466 C467 1.367 . S
C467 C466 1.367 . S
C467 C469 1.433 . S
C468 C464 1.350 . S
C468 C465 1.463 . S
C468 N472 1.427 . S
C469 H459 0.929 . S
C469 C467 1.433 . S
C469 N472 1.384 . S
C470 H461 0.929 . S
C470 C462 1.378 . S
C470 C465 1.350 . S
C471 H458 0.929 . S
C471 C463 1.433 . S
C471 N473 1.384 . S
N472 C468 1.427 . S
N472 C469 1.384 . S
N473 C465 1.427 . S
N473 C471 1.384 . S
H474 C480 0.930 . S
H475 C484 0.930 . S
H476 C489 0.929 . S
H477 C487 0.929 . S
H478 C482 0.929 . S
H479 C488 0.929 . S
C480 H474 0.930 . S
C480 C481 1.367 . S
C480 C488 1.378 . S
C481 C480 1.367 . S
C481 C489 1.433 . S
C482 H478 0.929 . S
C482 C484 1.378 . S
C482 C486 1.350 . S
C483 C486 1.463 . S
C483 C488 1.350 . S
C483 N491 1.427 . S
C484 H475 0.930 . S
C484 C482 1.378 . S
C484 C485 1.367 . S
C485 C484 1.367 . S
C485 C487 1.433 . S
C486 C482 1.350 . S
C486 C483 1.463 . S
C486 N490 1.427 . S
C487 H477 0.929 . S
C487 C485 1.433 . S
C487 N490 1.384 . S
C488 H479 0.929 . S
C488 C480 1.378 . S
C488 C483 1.350 . S
C489 H476 0.929 . S
C489 C481 1.433 . S
C489 N491 1.384 . S
N490 C486 1.427 . S
N490 C487 1.384 . S
N491 C483 1.427 . S
N491 C489 1.384 . S
H492 C498 0.930 . S
H493 C502 0.930 . S
H494 C507 0.929 . S
H495 C505 0.929 . S
H496 C500 0.929 . S
H497 C506 0.929 . S
C498 H492 0.930 . S
C498 C499 1.367 . S
C498 C506 1.378 . S
C499 C498 1.367 . S
C499 C507 1.433 . S
C500 H496 0.929 . S
C500 C502 1.378 . S
C500 C504 1.350 . S
C501 C504 1.463 . S
C501 C506 1.350 . S
C501 N509 1.427 . S
C502 H493 0.930 . S
C502 C500 1.378 . S
C502 C503 1.367 . S
C503 C502 1.367 . S
C503 C505 1.433 . S
C504 C500 1.350 . S
C504 C501 1.463 . S
C504 N508 1.427 . S
C505 H495 0.929 . S
C505 C503 1.433 . S
C505 N508 1.384 . S
C506 H497 0.929 . S
C506 C498 1.378 . S
C506 C501 1.350 . S
C507 H494 0.929 . S
C507 C499 1.433 . S
C507 N509 1.384 . S
N508 C504 1.427 . S
N508 C505 1.384 . S
N509 C501 1.427 . S
N509 C507 1.384 . S
H510 C516 0.930 . S
H511 C520 0.930 . S
H512 C525 0.929 . S
H513 C523 0.929 . S
H514 C518 0.929 . S
H515 C524 0.929 . S
C516 H510 0.930 . S
C516 C517 1.367 . S
C516 C524 1.378 . S
C517 C516 1.367 . S
C517 C525 1.433 . S
C518 H514 0.929 . S
C518 C520 1.378 . S
C518 C522 1.350 . S
C519 C522 1.463 . S
C519 C524 1.350 . S
C519 N527 1.427 . S
C520 H511 0.930 . S
C520 C518 1.378 . S
C520 C521 1.367 . S
C521 C520 1.367 . S
C521 C523 1.433 . S
C522 C518 1.350 . S
C522 C519 1.463 . S
C522 N526 1.427 . S
C523 H513 0.929 . S
C523 C521 1.433 . S
C523 N526 1.384 . S
C524 H515 0.929 . S
C524 C516 1.378 . S
C524 C519 1.350 . S
C525 H512 0.929 . S
C525 C517 1.433 . S
C525 N527 1.384 . S
N526 C522 1.427 . S
N526 C523 1.384 . S
N527 C519 1.427 . S
N527 C525 1.384 . S
H528 C534 0.930 . S
H529 C538 0.930 . S
H530 C543 0.929 . S
H531 C541 0.929 . S
H532 C536 0.929 . S
H533 C542 0.929 . S
C534 H528 0.930 . S
C534 C535 1.367 . S
C534 C542 1.378 . S
C535 C534 1.367 . S
C535 C543 1.433 1_655 S
C536 H532 0.929 . S
C536 C538 1.378 . S
C536 C540 1.350 . S
C537 C540 1.463 . S
C537 C542 1.350 1_455 S
C537 N545 1.427 . S
C538 H529 0.930 . S
C538 C536 1.378 . S
C538 C539 1.367 . S
C539 C538 1.367 . S
C539 C541 1.433 . S
C540 C536 1.350 . S
C540 C537 1.463 . S
C540 N544 1.427 . S
C541 H531 0.929 . S
C541 C539 1.433 . S
C541 N544 1.384 . S
C542 H533 0.929 . S
C542 C534 1.378 . S
C542 C537 1.350 1_655 S
C543 H530 0.929 . S
C543 C535 1.433 1_455 S
C543 N545 1.384 . S
N544 C540 1.427 . S
N544 C541 1.384 . S
N545 C537 1.427 . S
N545 C543 1.384 . S
H546 C552 0.930 . S
H547 C556 0.930 . S
H548 C561 0.929 . S
H549 C559 0.929 . S
H550 C554 0.929 . S
H551 C560 0.929 . S
C552 H546 0.930 . S
C552 C553 1.367 . S
C552 C560 1.378 . S
C553 C552 1.367 . S
C553 C561 1.433 1_565 S
C554 H550 0.929 . S
C554 C556 1.378 . S
C554 C558 1.350 . S
C555 C558 1.463 . S
C555 C560 1.350 1_545 S
C555 N563 1.427 . S
C556 H547 0.930 . S
C556 C554 1.378 . S
C556 C557 1.367 . S
C557 C556 1.367 . S
C557 C559 1.433 . S
C558 C554 1.350 . S
C558 C555 1.463 . S
C558 N562 1.427 . S
C559 H549 0.929 . S
C559 C557 1.433 . S
C559 N562 1.384 . S
C560 H551 0.929 . S
C560 C552 1.378 . S
C560 C555 1.350 1_565 S
C561 H548 0.929 . S
C561 C553 1.433 1_545 S
C561 N563 1.384 . S
N562 C558 1.427 . S
N562 C559 1.384 . S
N563 C555 1.427 . S
N563 C561 1.384 . S
C247 C130 0.620 . S
C251 C10 0.651 . S
C265 C170 0.644 . S
C269 C50 0.643 . S
C283 C210 0.609 . S
C287 C90 0.594 . S
C301 C16 0.729 . S
C305 C87 0.744 . S
C319 C56 0.732 . S
C323 C127 0.732 . S
C337 C96 0.768 . S
C341 C167 0.775 . S
C355 C136 0.730 . S
C359 C207 0.748 1_655 S
C373 C176 0.770 . S
C377 C7 0.776 1_565 S
C391 C216 0.756 . S
C395 C47 0.772 . S
C409 C19 1.233 . S
C413 C139 1.242 1_545 S
C427 C59 1.238 . S
C431 C179 1.232 . S
C445 C99 1.238 1_455 S
C449 C219 1.231 . S
C463 C2 4.071 . S
C467 C51 4.129 . S
C481 C42 4.075 . S
C485 C91 4.130 . S
C499 C82 4.071 . S
C503 C131 4.131 . S
C517 C122 4.073 . S
C521 C171 4.131 . S
C535 C162 4.075 . S
C539 C211 4.130 . S
C553 C202 4.075 . S
C557 C11 4.131 . S
