# Generated by pormake.
# Topology wnd, (6)-cn, num edge types: 1
# Building blocks:
#     Node 0, Type 0, BuildingBlock: CUWYAW_clean_sbu_0, # of connection points: 6
#     Node 1, Type 0, BuildingBlock: CUWYAW_clean_sbu_0, # of connection points: 6
#     Node 2, Type 0, BuildingBlock: CUWYAW_clean_sbu_0, # of connection points: 6
#     Node 3, Type 0, BuildingBlock: CUWYAW_clean_sbu_0, # of connection points: 6
#     Node 4, Type 0, BuildingBlock: CUWYAW_clean_sbu_0, # of connection points: 6
#     Node 5, Type 0, BuildingBlock: CUWYAW_clean_sbu_0, # of connection points: 6
#     Node 6, Type 0, BuildingBlock: CUWYAW_clean_sbu_0, # of connection points: 6
#     Node 7, Type 0, BuildingBlock: CUWYAW_clean_sbu_0, # of connection points: 6
#     Node 8, Type 0, BuildingBlock: CUWYAW_clean_sbu_0, # of connection points: 6
#     Node 9, Type 0, BuildingBlock: CUWYAW_clean_sbu_0, # of connection points: 6
#     Node 10, Type 0, BuildingBlock: CUWYAW_clean_sbu_0, # of connection points: 6
#     Node 11, Type 0, BuildingBlock: CUWYAW_clean_sbu_0, # of connection points: 6
#     Node 12, Type 0, BuildingBlock: CUWYAW_clean_sbu_0, # of connection points: 6
#     Node 13, Type 0, BuildingBlock: CUWYAW_clean_sbu_0, # of connection points: 6
#     Node 14, Type 0, BuildingBlock: CUWYAW_clean_sbu_0, # of connection points: 6
#     Node 15, Type 0, BuildingBlock: CUWYAW_clean_sbu_0, # of connection points: 6
#     Node 16, Type 0, BuildingBlock: CUWYAW_clean_sbu_0, # of connection points: 6
#     Node 17, Type 0, BuildingBlock: CUWYAW_clean_sbu_0, # of connection points: 6
#     Node 18, Type 0, BuildingBlock: CUWYAW_clean_sbu_0, # of connection points: 6
#     Node 19, Type 0, BuildingBlock: CUWYAW_clean_sbu_0, # of connection points: 6
#     Node 20, Type 0, BuildingBlock: CUWYAW_clean_sbu_0, # of connection points: 6
#     Node 21, Type 0, BuildingBlock: CUWYAW_clean_sbu_0, # of connection points: 6
#     Node 22, Type 0, BuildingBlock: CUWYAW_clean_sbu_0, # of connection points: 6
#     Node 23, Type 0, BuildingBlock: CUWYAW_clean_sbu_0, # of connection points: 6
#     Node 24, Type 0, BuildingBlock: CUWYAW_clean_sbu_0, # of connection points: 6
#     Node 25, Type 0, BuildingBlock: CUWYAW_clean_sbu_0, # of connection points: 6
#     Node 26, Type 0, BuildingBlock: CUWYAW_clean_sbu_0, # of connection points: 6
#     Node 27, Type 0, BuildingBlock: CUWYAW_clean_sbu_0, # of connection points: 6
#     Node 28, Type 0, BuildingBlock: CUWYAW_clean_sbu_0, # of connection points: 6
#     Node 29, Type 0, BuildingBlock: CUWYAW_clean_sbu_0, # of connection points: 6
#     Node 30, Type 0, BuildingBlock: CUWYAW_clean_sbu_0, # of connection points: 6
#     Node 31, Type 0, BuildingBlock: CUWYAW_clean_sbu_0, # of connection points: 6
#     Node 32, Type 0, BuildingBlock: CUWYAW_clean_sbu_0, # of connection points: 6
#     Node 33, Type 0, BuildingBlock: CUWYAW_clean_sbu_0, # of connection points: 6
#     Node 34, Type 0, BuildingBlock: CUWYAW_clean_sbu_0, # of connection points: 6
#     Node 35, Type 0, BuildingBlock: CUWYAW_clean_sbu_0, # of connection points: 6
#     Edge 36, Type (0, 0), None
#     Edge 37, Type (0, 0), None
#     Edge 38, Type (0, 0), None
#     Edge 39, Type (0, 0), None
#     Edge 40, Type (0, 0), None
#     Edge 41, Type (0, 0), None
#     Edge 42, Type (0, 0), None
#     Edge 43, Type (0, 0), None
#     Edge 44, Type (0, 0), None
#     Edge 45, Type (0, 0), None
#     Edge 46, Type (0, 0), None
#     Edge 47, Type (0, 0), None
#     Edge 48, Type (0, 0), None
#     Edge 49, Type (0, 0), None
#     Edge 50, Type (0, 0), None
#     Edge 51, Type (0, 0), None
#     Edge 52, Type (0, 0), None
#     Edge 53, Type (0, 0), None
#     Edge 54, Type (0, 0), None
#     Edge 55, Type (0, 0), None
#     Edge 56, Type (0, 0), None
#     Edge 57, Type (0, 0), None
#     Edge 58, Type (0, 0), None
#     Edge 59, Type (0, 0), None
#     Edge 60, Type (0, 0), None
#     Edge 61, Type (0, 0), None
#     Edge 62, Type (0, 0), None
#     Edge 63, Type (0, 0), None
#     Edge 64, Type (0, 0), None
#     Edge 65, Type (0, 0), None
#     Edge 66, Type (0, 0), None
#     Edge 67, Type (0, 0), None
#     Edge 68, Type (0, 0), None
#     Edge 69, Type (0, 0), None
#     Edge 70, Type (0, 0), None
#     Edge 71, Type (0, 0), None
#     Edge 72, Type (0, 0), None
#     Edge 73, Type (0, 0), None
#     Edge 74, Type (0, 0), None
#     Edge 75, Type (0, 0), None
#     Edge 76, Type (0, 0), None
#     Edge 77, Type (0, 0), None
#     Edge 78, Type (0, 0), None
#     Edge 79, Type (0, 0), None
#     Edge 80, Type (0, 0), None
#     Edge 81, Type (0, 0), None
#     Edge 82, Type (0, 0), None
#     Edge 83, Type (0, 0), None
#     Edge 84, Type (0, 0), None
#     Edge 85, Type (0, 0), None
#     Edge 86, Type (0, 0), None
#     Edge 87, Type (0, 0), None
#     Edge 88, Type (0, 0), None
#     Edge 89, Type (0, 0), None
#     Edge 90, Type (0, 0), None
#     Edge 91, Type (0, 0), None
#     Edge 92, Type (0, 0), None
#     Edge 93, Type (0, 0), None
#     Edge 94, Type (0, 0), None
#     Edge 95, Type (0, 0), None
#     Edge 96, Type (0, 0), None
#     Edge 97, Type (0, 0), None
#     Edge 98, Type (0, 0), None
#     Edge 99, Type (0, 0), None
#     Edge 100, Type (0, 0), None
#     Edge 101, Type (0, 0), None
#     Edge 102, Type (0, 0), None
#     Edge 103, Type (0, 0), None
#     Edge 104, Type (0, 0), None
#     Edge 105, Type (0, 0), None
#     Edge 106, Type (0, 0), None
#     Edge 107, Type (0, 0), None
#     Edge 108, Type (0, 0), None
#     Edge 109, Type (0, 0), None
#     Edge 110, Type (0, 0), None
#     Edge 111, Type (0, 0), None
#     Edge 112, Type (0, 0), None
#     Edge 113, Type (0, 0), None
#     Edge 114, Type (0, 0), None
#     Edge 115, Type (0, 0), None
#     Edge 116, Type (0, 0), None
#     Edge 117, Type (0, 0), None
#     Edge 118, Type (0, 0), None
#     Edge 119, Type (0, 0), None
#     Edge 120, Type (0, 0), None
#     Edge 121, Type (0, 0), None
#     Edge 122, Type (0, 0), None
#     Edge 123, Type (0, 0), None
#     Edge 124, Type (0, 0), None
#     Edge 125, Type (0, 0), None
#     Edge 126, Type (0, 0), None
#     Edge 127, Type (0, 0), None
#     Edge 128, Type (0, 0), None
#     Edge 129, Type (0, 0), None
#     Edge 130, Type (0, 0), None
#     Edge 131, Type (0, 0), None
#     Edge 132, Type (0, 0), None
#     Edge 133, Type (0, 0), None
#     Edge 134, Type (0, 0), None
#     Edge 135, Type (0, 0), None
#     Edge 136, Type (0, 0), None
#     Edge 137, Type (0, 0), None
#     Edge 138, Type (0, 0), None
#     Edge 139, Type (0, 0), None
#     Edge 140, Type (0, 0), None
#     Edge 141, Type (0, 0), None
#     Edge 142, Type (0, 0), None
#     Edge 143, Type (0, 0), None
# Relax obj value: 0.113
# Max RMSD: 0.267
# Mean RMSD: 0.267
data_MOF--net-wnd--node1-CUWYAW_clean_sbu_0--edge1-none
_symmetry_space_group_name_H-M    P1
_symmetry_Int_Tables_number       1
_symmetry_cell_setting            triclinic
loop_
_symmetry_equiv_pos_as_xyz
'x, y, z'
_cell_length_a     22.96565
_cell_length_b     22.966195
_cell_length_c     63.528635
_cell_angle_alpha  90.042189
_cell_angle_beta   89.973501
_cell_angle_gamma 119.90615
loop_
_atom_site_label
_atom_site_type_symbol
_atom_site_fract_x
_atom_site_fract_y
_atom_site_fract_z
_atom_type_partial_charge
C0 C 0.6162 0.97095 0.04457 0.0
Eu1 Eu 0.57788 0.05879 0.03508 0.0
C2 C 0.63874 0.92733 0.03319 0.0
C3 C 0.70398 0.93654 0.03613 0.0
C4 C 0.72292 0.89138 0.0274 0.0
C5 C 0.67706 0.83526 0.01548 0.0
C6 C 0.613 0.82817 0.01188 0.0
C7 C 0.59434 0.87318 0.02042 0.0
C8 C 0.51436 0.11994 0.05633 0.0
C9 C 0.43958 0.98003 0.01169 0.0
C10 C 0.51758 0.24449 0.00069 0.0
Eu11 Eu 0.53427 0.14282 0.00828 0.0
C12 C 0.55807 0.31552 0.00778 0.0
C13 C 0.62515 0.3586 0.00139 0.0
C14 C 0.66148 0.42529 0.00891 0.0
C15 C 0.63177 0.4495 0.02327 0.0
C16 C 0.56587 0.40458 0.03025 0.0
C17 C 0.52968 0.33931 0.02252 0.0
C18 C 0.59386 0.09179 -0.0149 0.0
C19 C 0.69217 0.20916 0.0271 0.0
O20 O 0.65669 1.03595 0.04442 0.0
O21 O 0.55316 0.95578 0.0431 0.0
O22 O 0.55497 0.10305 0.06531 0.0
O23 O 0.50335 0.09415 0.03843 0.0
O24 O 0.49848 0.98432 0.01347 0.0
O25 O 0.43682 1.03694 0.0105 0.0
O26 O 0.48606 0.20107 0.01565 0.0
O27 O 0.54362 0.22195 -0.0132 0.0
O28 O 0.54298 0.09709 -0.0218 0.0
O29 O 0.60904 0.11183 0.00391 0.0
O30 O 0.64451 0.21914 0.01869 0.0
O31 O 0.67766 0.15005 0.03437 0.0
H32 H 0.73974 0.97739 0.04591 0.0
H33 H 0.77191 0.89809 0.03113 0.0
H34 H 0.57543 0.78531 0.00315 0.0
H35 H 0.54386 0.86378 0.0176 0.0
H36 H 0.64919 0.34121 -0.00961 0.0
H37 H 0.71148 0.45835 0.00286 0.0
H38 H 0.53984 0.42071 0.04086 0.0
H39 H 0.47862 0.30744 0.02798 0.0
C40 C 0.24245 0.71299 0.04367 0.0
Eu41 Eu 0.15467 0.5869 0.03411 0.0
C42 C 0.28669 0.77947 0.03258 0.0
C43 C 0.27728 0.8354 0.03556 0.0
C44 C 0.32299 0.89979 0.02722 0.0
C45 C 0.37996 0.91053 0.01566 0.0
C46 C 0.3873 0.8537 0.01196 0.0
C47 C 0.34175 0.78972 0.02013 0.0
C48 C 0.09483 0.4625 0.0555 0.0
C49 C 0.2339 0.52827 0.01064 0.0
C50 C 0.96961 0.34142 -7e-05 0.0
Eu51 Eu 1.07138 0.45934 0.00746 0.0
C52 C 0.89886 0.31243 0.00726 0.0
C53 C 0.87627 0.26505 0.02352 0.0
C54 C 0.81123 0.23767 0.03133 0.0
C55 C 0.76514 0.25496 0.0228 0.0
C56 C 0.78821 0.30456 0.00701 0.0
C57 C 0.8548 0.33365 -0.0005 0.0
C58 C 0.1201 0.5697 -0.01582 0.0
C59 C 1.00328 0.54813 0.02711 0.0
O60 O 0.17747 0.68868 0.04327 0.0
O61 O 0.25761 0.66506 0.04225 0.0
O62 O 0.11095 0.51993 0.06439 0.0
O63 O 0.12055 0.47726 0.03758 0.0
O64 O 0.22846 0.5823 0.01205 0.0
O65 O 0.17752 0.46831 0.00974 0.0
O66 O 1.01351 0.35292 0.01472 0.0
O67 O 0.99231 0.38965 -0.01404 0.0
O68 O 0.11578 0.51393 0.97731 0.0
O69 O 0.10049 0.56477 0.00307 0.0
O70 O 0.9941 0.49087 0.0187 0.0
O71 O 1.06255 0.59412 0.03382 0.0
H72 H 0.23581 0.83 0.04512 0.0
H73 H 0.31597 0.94187 0.03099 0.0
H74 H 0.43068 0.85929 0.00345 0.0
H75 H 0.35137 0.74877 0.0173 0.0
H76 H 0.90878 0.24806 0.03009 0.0
H77 H 0.79592 0.19912 0.04321 0.0
H78 H 0.75424 0.3186 -0.00018 0.0
H79 H 0.87132 0.3718 -0.01259 0.0
C80 C 0.50073 0.60378 0.04418 0.0
Eu81 Eu 0.62635 0.63925 0.03501 0.0
C82 C 0.43446 0.5798 0.03274 0.0
C83 C 0.37907 0.51445 0.03596 0.0
C84 C 0.31478 0.49441 0.02724 0.0
C85 C 0.30362 0.53924 0.01505 0.0
C86 C 0.35993 0.60335 0.01114 0.0
C87 C 0.42381 0.62312 0.01967 0.0
C88 C 0.75102 0.70377 0.05629 0.0
C89 C 0.68696 0.77582 0.01105 0.0
C90 C 0.87084 0.6935 0.00136 0.0
Eu91 Eu 0.75348 0.67971 0.00838 0.0
C92 C 0.89849 0.65048 0.00864 0.0
C93 C 0.88055 0.58777 -0.00058 0.0
C94 C 0.90939 0.54966 0.00659 0.0
C95 C 0.95537 0.573 0.02343 0.0
C96 C 0.96851 0.63295 0.03352 0.0
C97 C 0.9416 0.67147 0.02607 0.0
C98 C 0.64314 0.61991 -0.01482 0.0
C99 C 0.66009 0.52269 0.02769 0.0
O100 O 0.54881 0.66626 0.04174 0.0
O101 O 0.52483 0.56289 0.04521 0.0
O102 O 0.69342 0.66435 0.06535 0.0
O103 O 0.73634 0.71334 0.0382 0.0
O104 O 0.63236 0.717 0.01249 0.0
O105 O 0.74642 0.7781 0.01028 0.0
O106 O 0.85915 0.72555 0.01623 0.0
O107 O 0.8234 0.66955 -0.01291 0.0
O108 O 0.69952 0.67001 -0.02186 0.0
O109 O 0.64769 0.60567 0.00414 0.0
O110 O 0.71809 0.56948 0.01928 0.0
O111 O 0.61624 0.53855 0.03481 0.0
H112 H 0.38476 0.4795 0.04599 0.0
H113 H 0.27302 0.44543 0.0312 0.0
H114 H 0.35391 0.64013 0.00218 0.0
H115 H 0.46432 0.67364 0.01664 0.0
H116 H 0.84552 0.5689 -0.01358 0.0
H117 H 0.89867 0.50427 -0.00178 0.0
H118 H 1.00411 0.65328 0.04631 0.0
H119 H 0.95605 0.71887 0.03377 0.0
C120 C 0.99953 0.59525 0.4096 0.0
Eu121 Eu 0.088 0.55829 0.41953 0.0
C122 C 0.95551 0.61736 0.42087 0.0
C123 C 0.96322 0.68173 0.4174 0.0
C124 C 0.91773 0.70028 0.42606 0.0
C125 C 0.86278 0.65483 0.43844 0.0
C126 C 0.85729 0.59176 0.44265 0.0
C127 C 0.90266 0.57349 0.43416 0.0
C128 C 0.15188 0.49807 0.39807 0.0
C129 C 1.00919 0.42012 0.44281 0.0
C130 C 0.27174 0.49701 0.45451 0.0
Eu131 Eu 0.17121 0.51457 0.44619 0.0
C132 C 0.34255 0.53683 0.44731 0.0
C133 C 0.386 0.60399 0.45357 0.0
C134 C 0.45251 0.63981 0.44595 0.0
C135 C 0.47599 0.60945 0.43161 0.0
C136 C 0.43056 0.54364 0.42467 0.0
C137 C 0.36558 0.50791 0.43253 0.0
C138 C 0.1198 0.5737 0.46953 0.0
C139 C 0.23793 0.67203 0.42761 0.0
O140 O 1.06445 0.63623 0.40979 0.0
O141 O 0.98491 0.53241 0.41121 0.0
O142 O 0.13543 0.53937 0.38942 0.0
O143 O 0.12426 0.48441 0.41573 0.0
O144 O 1.01353 0.479 0.44109 0.0
O145 O 1.06591 0.41718 0.44381 0.0
O146 O 0.2281 0.46431 0.43968 0.0
O147 O 0.24968 0.52454 0.46801 0.0
O148 O 0.12459 0.52239 0.47622 0.0
O149 O 0.14028 0.58941 0.4508 0.0
O150 O 0.24835 0.62384 0.43529 0.0
O151 O 0.17817 0.65822 0.42125 0.0
H152 H 1.0031 0.71699 0.40725 0.0
H153 H 0.92316 0.74845 0.42189 0.0
H154 H 0.81535 0.55459 0.45179 0.0
H155 H 0.89456 0.5237 0.43741 0.0
H156 H 0.36907 0.62845 0.46457 0.0
H157 H 0.48604 0.68976 0.45195 0.0
H158 H 0.44619 0.51724 0.41401 0.0
H159 H 0.33335 0.45681 0.42716 0.0
C160 C 0.62842 0.47639 0.41033 0.0
Eu161 Eu 0.66437 0.60183 0.41963 0.0
C162 C 0.60473 0.41076 0.42198 0.0
C163 C 0.541 0.35412 0.41787 0.0
C164 C 0.52144 0.29047 0.4269 0.0
C165 C 0.56522 0.28137 0.44028 0.0
C166 C 0.62746 0.33892 0.44512 0.0
C167 C 0.64671 0.40225 0.43628 0.0
C168 C 0.72447 0.72461 0.39762 0.0
C169 C 0.80279 0.6638 0.44272 0.0
C170 C 0.72345 0.84823 0.45341 0.0
Eu171 Eu 0.70621 0.72974 0.44571 0.0
C172 C 0.68371 0.8797 0.44648 0.0
C173 C 0.61648 0.85589 0.45269 0.0
C174 C 0.5809 0.88728 0.44539 0.0
C175 C 0.61157 0.94202 0.43142 0.0
C176 C 0.67758 0.96279 0.42456 0.0
C177 C 0.71304 0.93267 0.43209 0.0
C178 C 0.64783 0.62009 0.46947 0.0
C179 C 0.54886 0.63647 0.4273 0.0
O180 O 0.69103 0.52432 0.41261 0.0
O181 O 0.58758 0.50056 0.40945 0.0
O182 O 0.68413 0.66643 0.38912 0.0
O183 O 0.73738 0.71173 0.41554 0.0
O184 O 0.74432 0.60874 0.44136 0.0
O185 O 0.80452 0.72295 0.44342 0.0
O186 O 0.75465 0.83608 0.43837 0.0
O187 O 0.69683 0.7995 0.46719 0.0
O188 O 0.69847 0.67672 0.47608 0.0
O189 O 0.63243 0.62399 0.45063 0.0
O190 O 0.59645 0.69576 0.43472 0.0
O191 O 0.56375 0.59096 0.42122 0.0
H192 H 0.50718 0.35836 0.40691 0.0
H193 H 0.47408 0.24759 0.42223 0.0
H194 H 0.66342 0.33425 0.45497 0.0
H195 H 0.69592 0.44398 0.44004 0.0
H196 H 0.59177 0.81381 0.46339 0.0
H197 H 0.53075 0.87049 0.4513 0.0
H198 H 0.70375 1.00489 0.41393 0.0
H199 H 0.76415 0.95149 0.42671 0.0
C200 C 0.74198 0.2282 0.41068 0.0
Eu201 Eu 0.61735 0.1378 0.42047 0.0
C202 C 0.80861 0.27035 0.42182 0.0
C203 C 0.86432 0.26136 0.41784 0.0
C204 C 0.92886 0.30572 0.42629 0.0
C205 C 0.93982 0.36079 0.43892 0.0
C206 C 0.88325 0.36753 0.44362 0.0
C207 C 0.8191 0.32325 0.43537 0.0
C208 C 0.49312 0.07726 0.39908 0.0
C209 C 0.55636 0.21274 0.44476 0.0
C210 C 0.37383 0.94871 0.45475 0.0
Eu211 Eu 0.49111 0.05074 0.4469 0.0
C212 C 0.3442 0.87818 0.44736 0.0
C213 C 0.29503 0.85587 0.43167 0.0
C214 C 0.2666 0.79094 0.42382 0.0
C215 C 0.28464 0.74474 0.43174 0.0
C216 C 0.33612 0.76756 0.44689 0.0
C217 C 0.36629 0.83413 0.45445 0.0
C218 C 0.60126 0.10109 0.47026 0.0
C219 C 0.58404 0.98767 0.4273 0.0
O220 O 0.71829 0.16339 0.40945 0.0
O221 O 0.69383 0.24231 0.41369 0.0
O222 O 0.55081 0.09536 0.39013 0.0
O223 O 0.50723 0.10162 0.41717 0.0
O224 O 0.61132 0.2091 0.44322 0.0
O225 O 0.49725 0.15548 0.44522 0.0
O226 O 0.3846 0.99254 0.44001 0.0
O227 O 0.42283 0.97111 0.46844 0.0
O228 O 0.54484 0.09515 0.47713 0.0
O229 O 0.59719 0.08267 0.45128 0.0
O230 O 0.52501 0.97569 0.43505 0.0
O231 O 0.62893 1.04813 0.42116 0.0
H232 H 0.85865 0.22151 0.40742 0.0
H233 H 0.97089 0.29951 0.42174 0.0
H234 H 0.88925 0.40974 0.45292 0.0
H235 H 0.77826 0.3324 0.43898 0.0
H236 H 0.27745 0.88851 0.42562 0.0
H237 H 0.22653 0.7758 0.41249 0.0
H238 H 0.35079 0.73344 0.4536 0.0
H239 H 0.40585 0.85061 0.46607 0.0
C240 C 0.7197 0.94226 0.95457 0.0
Eu241 Eu 0.70503 1.04514 0.94724 0.0
C242 C 0.67691 0.87176 0.94713 0.0
C243 C 0.61326 0.82759 0.95587 0.0
C244 C 0.57513 0.76085 0.9486 0.0
C245 C 0.5992 0.73782 0.93205 0.0
C246 C 0.6601 0.78417 0.92232 0.0
C247 C 0.69879 0.84933 0.92997 0.0
C248 C 0.6444 0.09451 0.9706 0.0
C249 C 0.54785 0.97868 0.92791 0.0
C250 C 0.62394 0.21862 0.91162 0.0
Eu251 Eu 0.66131 0.12964 0.92071 0.0
C252 C 0.60037 0.26149 0.92302 0.0
C253 C 0.53591 0.25338 0.91926 0.0
C254 C 0.51643 0.29832 0.92784 0.0
C255 C 0.56092 0.35322 0.94045 0.0
C256 C 0.62399 0.35905 0.94497 0.0
C257 C 0.64321 0.31422 0.93655 0.0
C258 C 0.72548 0.06894 0.89934 0.0
C259 C 0.79972 0.20769 0.94394 0.0
O260 O 0.75263 0.98628 0.93989 0.0
O261 O 0.69488 0.9655 0.96866 0.0
O262 O 0.69552 0.08959 0.97745 0.0
O263 O 0.6295 0.07538 0.95169 0.0
O264 O 0.59591 0.96878 0.936 0.0
O265 O 0.56138 1.03835 0.92148 0.0
O266 O 0.58344 0.15363 0.91106 0.0
O267 O 0.68675 0.23349 0.91362 0.0
O268 O 0.68466 0.08565 0.89037 0.0
O269 O 0.73602 0.09464 0.91724 0.0
O270 O 0.74057 0.20304 0.94261 0.0
O271 O 0.80264 0.15084 0.94486 0.0
H272 H 0.59358 0.84408 0.96858 0.0
H273 H 0.52894 0.72664 0.95665 0.0
H274 H 0.68081 0.76874 0.90962 0.0
H275 H 0.74688 0.88185 0.92262 0.0
H276 H 0.50135 0.21373 0.90888 0.0
H277 H 0.46834 0.29263 0.9234 0.0
H278 H 0.66048 0.40097 0.95428 0.0
H279 H 0.69302 0.32275 0.94003 0.0
C280 C 0.26976 0.84483 0.95371 0.0
Eu281 Eu 0.16666 0.72744 0.94633 0.0
C282 C 0.34051 0.87308 0.94635 0.0
C283 C 0.36269 0.91703 0.92912 0.0
C284 C 0.4282 0.94437 0.92165 0.0
C285 C 0.47507 0.9309 0.93158 0.0
C286 C 0.45242 0.88429 0.94825 0.0
C287 C 0.38546 0.85503 0.95539 0.0
C288 C 0.11689 0.61735 0.96966 0.0
C289 C 0.23274 0.63596 0.92712 0.0
C290 C 0.99328 0.47387 0.91038 0.0
Eu291 Eu 0.08221 0.59987 0.91959 0.0
C292 C 0.95027 0.40771 0.92182 0.0
C293 C 0.95957 0.35177 0.91867 0.0
C294 C 0.91477 0.28763 0.92737 0.0
C295 C 0.85887 0.27714 0.93949 0.0
C296 C 0.85176 0.33402 0.94336 0.0
C297 C 0.89639 0.39774 0.93483 0.0
C298 C 0.14288 0.72469 0.89832 0.0
C299 C 1.00404 0.65997 0.9431 0.0
O300 O 0.22573 0.83375 0.93902 0.0
O301 O 0.24663 0.79665 0.96771 0.0
O302 O 0.12207 0.67351 0.97652 0.0
O303 O 0.13598 0.62157 0.95072 0.0
O304 O 0.24274 0.69386 0.93529 0.0
O305 O 0.17332 0.59073 0.92028 0.0
O306 O 0.97846 0.52192 0.91228 0.0
O307 O 1.05827 0.4981 0.90993 0.0
O308 O 0.12604 0.66727 0.88926 0.0
O309 O 0.11738 0.70949 0.91626 0.0
O310 O 1.00869 0.60551 0.94153 0.0
O311 O 1.06087 0.7196 0.94415 0.0
H312 H 0.32972 0.93178 0.92159 0.0
H313 H 0.44342 0.98026 0.90892 0.0
H314 H 0.48709 0.87328 0.95649 0.0
H315 H 0.36942 0.81955 0.96826 0.0
H316 H 1.0002 0.35698 0.90873 0.0
H317 H 0.92156 0.2455 0.92345 0.0
H318 H 0.80917 0.32861 0.95231 0.0
H319 H 0.8869 0.43869 0.93783 0.0
C320 C 0.36644 0.49379 0.95585 0.0
Eu321 Eu 0.48377 0.50842 0.94807 0.0
C322 C 0.33722 0.53478 0.94788 0.0
C323 C 0.28992 0.50894 0.93158 0.0
C324 C 0.26253 0.54612 0.92326 0.0
C325 C 0.27923 0.60963 0.9315 0.0
C326 C 0.32882 0.63721 0.94726 0.0
C327 C 0.35823 0.60046 0.95516 0.0
C328 C 0.59482 0.56901 0.97089 0.0
C329 C 0.57361 0.66494 0.92832 0.0
C330 C 0.7363 0.5886 0.91096 0.0
Eu331 Eu 0.61056 0.5511 0.92086 0.0
C332 C 0.803 0.61125 0.92203 0.0
C333 C 0.85868 0.67657 0.919 0.0
C334 C 0.92321 0.69559 0.92736 0.0
C335 C 0.93435 0.64976 0.939 0.0
C336 C 0.87777 0.5856 0.94271 0.0
C337 C 0.81368 0.56684 0.93453 0.0
C338 C 0.48491 0.48823 0.90013 0.0
C339 C 0.55135 0.4131 0.94449 0.0
O340 O 0.37663 0.45873 0.94165 0.0
O341 O 0.41579 0.52136 0.9694 0.0
O342 O 0.53901 0.51836 -0.022 0.0
O343 O 0.58973 0.58353 0.95202 0.0
O344 O 0.51599 0.61725 0.93663 0.0
O345 O 0.61931 0.65102 0.92167 0.0
O346 O 0.71192 0.6293 0.91114 0.0
O347 O 0.68842 0.52571 0.91267 0.0
O348 O 0.54202 0.52859 0.89092 0.0
O349 O 0.5007 0.47724 0.91786 0.0
O350 O 0.60593 0.47183 0.94254 0.0
O351 O 0.49185 0.41065 0.94583 0.0
H352 H 0.27295 0.45905 0.92539 0.0
H353 H 0.22444 0.52251 0.91123 0.0
H354 H 0.34254 0.68549 0.95419 0.0
H355 H 0.39638 0.62295 0.96723 0.0
H356 H 0.85298 0.71237 0.9094 0.0
H357 H 0.96508 0.74467 0.92356 0.0
H358 H 0.88364 0.54807 0.95128 0.0
H359 H 0.77295 0.5163 0.93741 0.0
C360 C 0.97203 0.70044 0.50071 0.0
Eu361 Eu 0.0744 0.68475 0.50788 0.0
C362 C 0.9013 0.65812 0.50794 0.0
C363 C 0.85733 0.59381 0.49956 0.0
C364 C 0.79058 0.55595 0.50686 0.0
C365 C 0.76725 0.58121 0.523 0.0
C366 C 0.81322 0.64334 0.53217 0.0
C367 C 0.8785 0.68139 0.52461 0.0
C368 C 0.12292 0.62405 0.48419 0.0
C369 C 1.00834 0.5278 0.52714 0.0
C370 C 0.24841 0.60406 0.54314 0.0
Eu371 Eu 0.15946 0.64136 0.53399 0.0
C372 C 0.29087 0.58001 0.53178 0.0
C373 C 0.28295 0.51579 0.53582 0.0
C374 C 0.32761 0.49596 0.52725 0.0
C375 C 0.38199 0.53988 0.51438 0.0
C376 C 0.38759 0.60267 0.50959 0.0
C377 C 0.34302 0.62222 0.51799 0.0
C378 C 0.09975 0.70581 0.5557 0.0
C379 C 0.23699 0.77888 0.51051 0.0
O380 O 1.01571 0.73222 0.51559 0.0
O381 O 0.99514 0.67582 0.48652 0.0
O382 O 0.11805 0.67534 0.47752 0.0
O383 O 0.10433 0.60903 0.50314 0.0
O384 O 0.99808 0.57571 0.51914 0.0
O385 O 1.06824 0.54152 0.53338 0.0
O386 O 0.18342 0.56366 0.54382 0.0
O387 O 0.26338 0.66683 0.54094 0.0
O388 O 0.11642 0.66476 0.56448 0.0
O389 O 0.12499 0.7165 0.53773 0.0
O390 O 0.23209 0.71965 0.51176 0.0
O391 O 0.18029 0.7821 0.50997 0.0
H392 H 0.874 0.57336 0.48711 0.0
H393 H 0.7566 0.50896 0.49916 0.0
H394 H 0.79746 0.66546 0.54431 0.0
H395 H 0.9109 0.73009 0.53165 0.0
H396 H 0.24373 0.48173 0.54641 0.0
H397 H 0.32218 0.44814 0.53189 0.0
H398 H 0.42918 0.63875 0.5001 0.0
H399 H 0.35134 0.67183 0.5143 0.0
C400 C 0.52169 0.34508 0.50022 0.0
Eu401 Eu 0.53759 0.4632 0.50765 0.0
C402 C 0.56214 0.31478 0.50764 0.0
C403 C 0.53353 0.26292 0.52244 0.0
C404 C 0.56959 0.23382 0.53031 0.0
C405 C 0.63547 0.25435 0.52338 0.0
C406 C 0.66553 0.3082 0.50906 0.0
C407 C 0.62939 0.33867 0.50143 0.0
C408 C 0.59742 0.57278 0.48412 0.0
C409 C 0.69429 0.55497 0.52685 0.0
C410 C 0.61555 0.71642 0.5434 0.0
Eu411 Eu 0.57922 0.59064 0.53404 0.0
C412 C 0.64067 0.78304 0.53206 0.0
C413 C 0.70419 0.83931 0.53675 0.0
C414 C 0.72469 0.90382 0.52814 0.0
C415 C 0.68216 0.91433 0.51459 0.0
C416 C 0.62017 0.85719 0.50917 0.0
C417 C 0.59998 0.79305 0.5176 0.0
C418 C 0.51538 0.4661 0.55549 0.0
C419 C 0.44177 0.53026 0.51032 0.0
O420 O 0.48919 0.3568 0.51493 0.0
O421 O 0.54829 0.39366 0.48639 0.0
O422 O 0.54662 0.51646 0.47737 0.0
O423 O 0.61237 0.56913 0.50307 0.0
O424 O 0.64677 0.49643 0.519 0.0
O425 O 0.67975 0.60066 0.53305 0.0
O426 O 0.65585 0.69167 0.54465 0.0
O427 O 0.55305 0.66886 0.54061 0.0
O428 O 0.55584 0.52369 0.56441 0.0
O429 O 0.50492 0.48092 0.53753 0.0
O430 O 0.50046 0.58497 0.51196 0.0
O431 O 0.43954 0.47083 0.50956 0.0
H432 H 0.48237 0.24393 0.5278 0.0
H433 H 0.54348 0.19186 0.54095 0.0
H434 H 0.71558 0.32486 0.50308 0.0
H435 H 0.65368 0.38003 0.49046 0.0
H436 H 0.73706 0.83409 0.54785 0.0
H437 H 0.77175 0.94618 0.53328 0.0
H438 H 0.58506 0.86278 0.49918 0.0
H439 H 0.55095 0.75178 0.5134 0.0
C440 C 0.87481 0.24978 0.50152 0.0
Eu441 Eu 0.75747 0.1462 0.50841 0.0
C442 C 0.90278 0.32045 0.50881 0.0
C443 C 0.94793 0.34299 0.52571 0.0
C444 C 0.97552 0.40852 0.5331 0.0
C445 C 0.96073 0.45495 0.52352 0.0
C446 C 0.91279 0.43186 0.50723 0.0
C447 C 0.88347 0.36486 0.5001 0.0
C448 C 0.64832 0.09688 0.48475 0.0
C449 C 0.66321 0.20891 0.52766 0.0
C450 C 0.50448 0.96835 0.54369 0.0
Eu451 Eu 0.62994 0.05875 0.53455 0.0
C452 C 0.43793 0.92696 0.53231 0.0
C453 C 0.38231 0.93615 0.53629 0.0
C454 C 0.3178 0.8924 0.52766 0.0
C455 C 0.30663 0.83769 0.51479 0.0
C456 C 0.36314 0.83076 0.51011 0.0
C457 C 0.42726 0.87442 0.51856 0.0
C458 C 0.75427 0.11885 0.55612 0.0
C459 C 0.69156 0.98357 0.51048 0.0
O460 O 0.86307 0.20605 0.51637 0.0
O461 O 0.82734 0.22652 0.48727 0.0
O462 O 0.70496 0.10313 0.47794 0.0
O463 O 0.6515 0.11443 0.50381 0.0
O464 O 0.72207 0.22069 0.51977 0.0
O465 O 0.61856 0.14862 0.53402 0.0
O466 O 0.55248 0.95401 0.54069 0.0
O467 O 0.52862 1.03318 0.54526 0.0
O468 O 0.69648 0.10093 0.56503 0.0
O469 O 0.73982 0.09455 0.53803 0.0
O470 O 0.63662 0.98731 0.51197 0.0
O471 O 0.75082 1.04089 0.51003 0.0
H472 H 0.96344 0.31027 0.53301 0.0
H473 H 1.01276 0.42412 0.54541 0.0
H474 H 0.90075 0.46619 0.49925 0.0
H475 H 0.84696 0.34837 0.4875 0.0
H476 H 0.38803 0.97568 0.54686 0.0
H477 H 0.2759 0.89882 0.53222 0.0
H478 H 0.35708 0.78885 0.50063 0.0
H479 H 0.46795 0.86505 0.51492 0.0
C480 C 0.29456 0.31979 0.36323 0.0
Eu481 Eu 0.25044 0.40455 0.36648 0.0
C482 C 0.31308 0.26637 0.35927 0.0
C483 C 0.37434 0.27234 0.3662 0.0
C484 C 0.39431 0.22558 0.35972 0.0
C485 C 0.35331 0.17156 0.34623 0.0
C486 C 0.29243 0.16637 0.33945 0.0
C487 C 0.27321 0.21308 0.34557 0.0
C488 C 0.18827 0.46441 0.38808 0.0
C489 C 0.09589 0.3232 0.35059 0.0
C490 C 0.18316 0.58586 0.33296 0.0
Eu491 Eu 0.20021 0.48457 0.33946 0.0
C492 C 0.22564 0.65544 0.34071 0.0
C493 C 0.29208 0.69766 0.33367 0.0
C494 C 0.33092 0.76294 0.34188 0.0
C495 C 0.30438 0.78613 0.35763 0.0
C496 C 0.23991 0.74139 0.36559 0.0
C497 C 0.20088 0.6778 0.35704 0.0
C498 C 0.26166 0.43567 0.31688 0.0
C499 C 0.35987 0.55446 0.35951 0.0
O500 O 0.26513 0.33417 0.34807 0.0
O501 O 0.29589 0.34805 0.38154 0.0
O502 O 0.22865 0.44665 0.3972 0.0
O503 O 0.17679 0.43951 0.36992 0.0
O504 O 0.14414 0.32358 0.36189 0.0
O505 O 0.10381 0.37769 0.34006 0.0
O506 O 0.15139 0.54141 0.34766 0.0
O507 O 0.20803 0.56388 0.31847 0.0
O508 O 0.20985 0.43868 0.30956 0.0
O509 O 0.27681 0.45817 0.3355 0.0
O510 O 0.31346 0.55954 0.34805 0.0
O511 O 0.34467 0.49986 0.37019 0.0
H512 H 0.40719 0.3136 0.37638 0.0
H513 H 0.44027 0.23014 0.36596 0.0
H514 H 0.25808 0.12439 0.32975 0.0
H515 H 0.22633 0.20706 0.33959 0.0
H516 H 0.3136 0.68082 0.32161 0.0
H517 H 0.37988 0.7961 0.33514 0.0
H518 H 0.21679 0.75721 0.37739 0.0
H519 H 0.15052 0.64626 0.3631 0.0
C520 C 0.89361 1.04432 0.36346 0.0
Eu521 Eu 0.81268 0.91475 0.36534 0.0
C522 C 0.94294 0.11767 0.36001 0.0
C523 C 0.94393 0.16875 0.37258 0.0
C524 C 0.98868 0.23734 0.36804 0.0
C525 C 1.03287 0.2567 0.35066 0.0
C526 C 1.03126 0.20552 0.33818 0.0
C527 C 0.98681 0.13744 0.34259 0.0
C528 C 0.7576 0.79408 0.38737 0.0
C529 C 0.90157 0.84866 0.34911 0.0
C530 C 0.63582 0.66504 0.33266 0.0
Eu531 Eu 0.73814 0.783 0.33872 0.0
C532 C 0.5655 0.64153 0.33967 0.0
C533 C 0.54219 0.60314 0.35807 0.0
C534 C 0.47816 0.58287 0.3658 0.0
C535 C 0.4332 0.59713 0.35491 0.0
C536 C 0.45716 0.63815 0.3369 0.0
C537 C 0.52317 0.66116 0.3296 0.0
C538 C 0.78068 0.8928 0.31587 0.0
C539 C 0.66023 0.86485 0.35888 0.0
O540 O 0.8801 1.00271 0.34769 0.0
O541 O 0.86549 1.01495 0.3815 0.0
O542 O 0.77176 0.85169 0.39611 0.0
O543 O 0.78338 0.80752 0.3693 0.0
O544 O 0.89828 0.89675 0.35939 0.0
O545 O 0.8471 0.79708 0.33994 0.0
O546 O 0.67915 0.67818 0.34779 0.0
O547 O 0.66062 0.70965 0.31754 0.0
O548 O 0.7808 0.83941 0.30863 0.0
O549 O 0.75842 0.88449 0.33454 0.0
O550 O 0.65848 0.81418 0.34793 0.0
O551 O 0.71515 0.90998 0.36829 0.0
H552 H 0.91074 0.15574 0.38602 0.0
H553 H 0.99125 0.27519 0.37879 0.0
H554 H 1.06797 0.21829 0.32578 0.0
H555 H 0.9882 0.09999 0.33257 0.0
H556 H 0.57327 0.58775 0.36649 0.0
H557 H 0.46234 0.55136 0.37961 0.0
H558 H 0.42426 0.64994 0.32794 0.0
H559 H 0.54069 0.69349 0.31596 0.0
C560 C 0.17342 0.94068 0.37675 0.0
Eu561 Eu 0.2989 0.97559 0.36774 0.0
C562 C 0.10552 0.9086 0.36585 0.0
C563 C 1.05207 0.84589 0.37257 0.0
C564 C 0.98577 0.82035 0.36483 0.0
C565 C 0.97064 0.85652 0.34999 0.0
C566 C 1.02491 0.91735 0.3425 0.0
C567 C 0.09098 0.94265 0.35009 0.0
C568 C 0.42285 1.04147 0.38927 0.0
C569 C 0.36234 0.11141 0.34324 0.0
C570 C 0.54091 1.0221 0.33503 0.0
Eu571 Eu 0.42575 1.0133 0.34163 0.0
C572 C 0.56249 0.9736 0.3419 0.0
C573 C 0.58755 0.97773 0.36235 0.0
C574 C 0.60991 0.93432 0.36888 0.0
C575 C 0.61044 0.88691 0.35502 0.0
C576 C 0.58049 0.87876 0.33511 0.0
C577 C 0.55603 0.92132 0.32875 0.0
C578 C 0.31552 0.95329 0.31808 0.0
C579 C 0.33221 0.85886 0.3618 0.0
O580 O 0.21935 1.00156 0.37126 0.0
O581 O 0.19992 0.90301 0.38083 0.0
O582 O 0.36515 1.00259 0.39833 0.0
O583 O 0.40875 0.04981 0.37096 0.0
O584 O 0.30697 0.05339 0.34499 0.0
O585 O 0.42133 0.11281 0.34284 0.0
O586 O 0.53042 0.05433 0.35014 0.0
O587 O 0.49538 1.00312 0.32021 0.0
O588 O 0.37243 1.00271 0.31114 0.0
O589 O 0.31938 0.93928 0.33715 0.0
O590 O 0.39101 0.90512 0.35387 0.0
O591 O 0.28713 0.87466 0.36753 0.0
H592 H 1.0608 0.81829 0.38478 0.0
H593 H 0.94545 0.77525 0.37186 0.0
H594 H 1.01512 0.94866 0.33202 0.0
H595 H 0.12989 0.99106 0.34444 0.0
H596 H 0.59215 1.01602 0.37325 0.0
H597 H 0.63247 0.9419 0.38425 0.0
H598 H 0.58046 0.84317 0.32389 0.0
H599 H 0.53394 0.91476 0.31335 0.0
C600 C 0.68122 0.93667 0.75736 0.0
Eu601 Eu 0.76305 0.88892 0.75522 0.0
C602 C 0.6319 0.96082 0.76095 0.0
C603 C 0.63205 1.01223 0.74879 0.0
C604 C 0.58844 1.03734 0.75371 0.0
C605 C 0.54414 1.01242 0.77107 0.0
C606 C 0.54465 0.96148 0.78312 0.0
C607 C 0.58807 0.93672 0.77836 0.0
C608 C 0.82235 0.82615 0.73378 0.0
C609 C 0.6795 0.73478 0.77138 0.0
C610 C 0.94337 0.82221 0.78917 0.0
Eu611 Eu 0.84141 0.83847 0.78249 0.0
C612 C 1.01396 0.86619 0.78243 0.0
C613 C 1.04025 0.84164 0.76725 0.0
C614 C 0.10404 0.88247 0.75899 0.0
C615 C 0.14504 0.94926 0.76598 0.0
C616 C 0.11844 0.97462 0.78104 0.0
C617 C 1.05296 0.93374 0.78894 0.0
C618 C 0.79331 0.9013 0.80496 0.0
C619 C 0.91263 0.99775 0.76226 0.0
O620 O 0.69407 0.90739 0.77293 0.0
O621 O 0.70936 0.93579 0.73926 0.0
O622 O 0.80538 0.86707 0.72466 0.0
O623 O 0.79678 0.81419 0.75187 0.0
O624 O 0.68041 0.78339 0.76013 0.0
O625 O 0.73409 0.74216 0.78177 0.0
O626 O 0.90111 0.79314 0.77373 0.0
O627 O 0.91905 0.84406 0.80387 0.0
O628 O 0.79547 0.84904 0.81228 0.0
O629 O 0.8161 0.91612 0.78634 0.0
O630 O 0.91646 0.95182 0.7743 0.0
O631 O 0.85915 0.98194 0.75092 0.0
H632 H 0.66543 1.03264 0.73541 0.0
H633 H 0.58667 0.0736 0.74323 0.0
H634 H 0.50777 0.93741 0.79545 0.0
H635 H 0.58599 0.89712 0.78815 0.0
H636 H 1.01119 0.79034 0.76165 0.0
H637 H 0.12225 0.8595 0.7479 0.0
H638 H 0.14857 1.02524 0.78705 0.0
H639 H 1.0331 0.9549 0.80015 0.0
C640 C 0.28023 0.8153 0.75713 0.0
Eu641 Eu 0.32755 0.94462 0.75458 0.0
C642 C 0.25723 0.74226 0.76078 0.0
C643 C 0.20283 0.69037 0.74974 0.0
C644 C 0.17841 0.62205 0.75496 0.0
C645 C 0.20737 0.6039 0.77147 0.0
C646 C 0.2617 0.65597 0.7823 0.0
C647 C 0.2855 0.72374 0.77733 0.0
C648 C 0.39348 0.06563 0.7327 0.0
C649 C 0.48127 1.01639 0.77118 0.0
C650 C 0.3862 0.19037 0.78551 0.0
Eu651 Eu 0.37676 0.07442 0.78114 0.0
C652 C 0.33377 0.20766 0.77999 0.0
C653 C 0.30579 0.22905 0.79559 0.0
C654 C 0.25815 0.2478 0.79053 0.0
C655 C 0.23913 0.24751 0.76948 0.0
C656 C 0.26397 0.22233 0.75393 0.0
C657 C 0.31017 0.20175 0.75914 0.0
C658 C 0.3133 0.96496 0.8043 0.0
C659 C 0.21798 0.98404 0.76061 0.0
O660 O 0.30782 0.85757 0.77276 0.0
O661 O 0.28224 0.84393 0.73887 0.0
O662 O 0.35312 1.00763 0.72363 0.0
O663 O 0.40313 0.05239 0.75112 0.0
O664 O 0.43242 0.96721 0.76047 0.0
O665 O 0.47426 0.0652 0.78069 0.0
O666 O 0.41214 0.17518 0.76967 0.0
O667 O 0.37454 0.15047 0.80166 0.0
O668 O 0.3649 1.0201 0.81153 0.0
O669 O 0.29914 0.97165 0.78542 0.0
O670 O 0.26262 1.03243 0.77325 0.0
O671 O 0.23579 0.9492 0.74863 0.0
H672 H 0.17928 0.7026 0.73706 0.0
H673 H 0.13912 0.58335 0.74539 0.0
H674 H 0.28844 0.6439 0.79394 0.0
H675 H 0.32739 0.76187 0.78626 0.0
H676 H 0.3234 0.23415 0.81151 0.0
H677 H 0.24155 0.26905 0.80279 0.0
H678 H 0.25085 0.22255 0.73759 0.0
H679 H 0.32933 0.18392 0.74662 0.0
C680 C 0.39958 0.53054 0.75896 0.0
Eu681 Eu 0.26994 0.44844 0.75693 0.0
C682 C 0.47307 0.58061 0.76228 0.0
C683 C 0.52444 0.58038 0.75016 0.0
C684 C 0.59308 0.62577 0.75459 0.0
C685 C 0.61236 0.67202 0.77143 0.0
C686 C 0.56087 0.67178 0.78342 0.0
C687 C 0.49275 0.6266 0.77914 0.0
C688 C 0.14939 0.39322 0.73482 0.0
C689 C 0.20056 0.53579 0.77215 0.0
C690 C 1.01866 0.27256 0.78962 0.0
Eu691 Eu 0.1367 0.37432 0.78356 0.0
C692 C 0.99561 0.2024 0.7826 0.0
C693 C 0.9582 0.17919 0.76401 0.0
C694 C 0.93925 0.11559 0.75616 0.0
C695 C 0.9539 0.071 0.76709 0.0
C696 C 0.99379 0.09486 0.78534 0.0
C697 C 1.01546 0.16042 0.79277 0.0
C698 C 0.24699 0.41809 0.80647 0.0
C699 C 0.21714 0.29543 0.76367 0.0
O700 O 0.35743 0.51864 0.77445 0.0
O701 O 0.37067 0.50015 0.7411 0.0
O702 O 0.20716 0.40803 0.72607 0.0
O703 O 0.16277 0.41868 0.75291 0.0
O704 O 0.24931 0.53297 0.76207 0.0
O705 O 0.14993 0.48207 0.78178 0.0
O706 O 1.0318 0.31588 0.77447 0.0
O707 O 1.0632 0.29736 0.80478 0.0
O708 O 0.19328 0.41769 0.81364 0.0
O709 O 0.23862 0.39519 0.78788 0.0
O710 O 0.16633 0.29444 0.77421 0.0
O711 O 0.26427 0.35 0.75463 0.0
H712 H 0.51163 0.54561 0.73715 0.0
H713 H 0.63104 0.62703 0.74417 0.0
H714 H 0.57344 0.70979 0.79538 0.0
H715 H 0.45518 0.629 0.78882 0.0
H716 H 0.94274 0.21007 0.7555 0.0
H717 H 0.90853 0.09979 0.74217 0.0
H718 H 1.00579 0.06221 0.79435 0.0
H719 H 1.04708 0.17792 0.80657 0.0
C720 C 0.38437 0.27753 0.28796 0.0
Eu721 Eu 0.36894 0.37973 0.28008 0.0
C722 C 0.3444 0.2069 0.28051 0.0
C723 C 0.27648 0.16404 0.28607 0.0
C724 C 0.24117 0.09722 0.27867 0.0
C725 C 0.27259 0.07295 0.26503 0.0
C726 C 0.33895 0.11809 0.25847 0.0
C727 C 0.37433 0.18328 0.26628 0.0
C728 C 0.31058 0.43307 0.30282 0.0
C729 C 0.21224 0.31528 0.26053 0.0
C730 C 0.29344 0.55485 0.24311 0.0
Eu731 Eu 0.32842 0.46483 0.25282 0.0
C732 C 0.27055 0.59783 0.25468 0.0
C733 C 0.20565 0.58917 0.25152 0.0
C734 C 0.18651 0.6338 0.26052 0.0
C735 C 0.23184 0.68879 0.27293 0.0
C736 C 0.29545 0.69521 0.27681 0.0
C737 C 0.31432 0.65072 0.26799 0.0
C738 C 0.39196 0.40235 0.23217 0.0
C739 C 0.46544 0.5418 0.27634 0.0
O740 O 0.41762 0.32152 0.2733 0.0
O741 O 0.35706 0.29964 0.30153 0.0
O742 O 0.36045 0.42656 0.31001 0.0
O743 O 0.29526 0.41255 0.28404 0.0
O744 O 0.25935 0.3042 0.26882 0.0
O745 O 0.22766 0.37495 0.25358 0.0
O746 O 0.25216 0.49001 0.24244 0.0
O747 O 0.35595 0.56884 0.24525 0.0
O748 O 0.3523 0.41993 0.22291 0.0
O749 O 0.40218 0.42836 0.25001 0.0
O750 O 0.40661 0.53766 0.27497 0.0
O751 O 0.46753 0.48458 0.27751 0.0
H752 H 0.25108 0.18159 0.29645 0.0
H753 H 0.19055 0.06416 0.28424 0.0
H754 H 0.36594 0.10217 0.24819 0.0
H755 H 0.42594 0.21521 0.26132 0.0
H756 H 0.17038 0.54928 0.24135 0.0
H757 H 0.13793 0.62776 0.25658 0.0
H758 H 0.33256 0.73729 0.28592 0.0
H759 H 0.3645 0.65961 0.271 0.0
C760 C 0.9333 0.17417 0.28675 0.0
Eu761 Eu 0.83203 0.05566 0.27929 0.0
C762 C 1.00418 0.20535 0.27941 0.0
C763 C 1.02824 0.26047 0.26585 0.0
C764 C 0.09383 0.29127 0.25829 0.0
C765 C 0.1389 0.26934 0.26443 0.0
C766 C 0.11415 0.21203 0.27733 0.0
C767 C 1.04696 0.17961 0.28445 0.0
C768 C 0.78111 0.94356 0.30183 0.0
C769 C 0.90089 0.96713 0.25961 0.0
C770 C 0.66345 0.8046 0.24165 0.0
Eu771 Eu 0.75056 0.93025 0.25161 0.0
C772 C 0.61823 0.73912 0.25305 0.0
C773 C 0.62803 0.68305 0.25134 0.0
C774 C 0.58212 0.61978 0.26034 0.0
C775 C 0.52476 0.61052 0.27134 0.0
C776 C 0.51694 0.66757 0.27367 0.0
C777 C 0.56252 0.73028 0.26482 0.0
C778 C 0.81128 0.05642 0.23122 0.0
C779 C 0.66999 0.98699 0.27525 0.0
O780 O 0.88928 0.16214 0.27199 0.0
O781 O 0.91157 0.12553 0.30055 0.0
O782 O 0.78593 0.99919 0.30912 0.0
O783 O 0.80203 0.94976 0.28303 0.0
O784 O 0.90929 1.02309 0.26883 0.0
O785 O 0.84301 0.92368 0.25136 0.0
O786 O 0.6486 0.8529 0.24226 0.0
O787 O 0.72829 0.8285 0.24279 0.0
O788 O 0.7954 0.99971 0.22187 0.0
O789 O 0.78456 1.03984 0.24897 0.0
O790 O 0.67589 0.9333 0.27357 0.0
O791 O 0.72608 1.04692 0.27684 0.0
H792 H 0.99634 0.28063 0.26124 0.0
H793 H 0.11001 0.33526 0.24851 0.0
H794 H 0.14708 0.19381 0.28254 0.0
H795 H 1.02923 0.13573 0.29438 0.0
H796 H 0.67013 0.68746 0.24236 0.0
H797 H 0.58956 0.57739 0.25761 0.0
H798 H 0.47345 0.6632 0.28178 0.0
H799 H 0.55257 0.77133 0.26666 0.0
C800 C 1.03716 0.82733 0.28845 0.0
Eu801 Eu 0.15511 0.84354 0.2807 0.0
C802 C 1.0067 0.86723 0.28069 0.0
C803 C 0.95569 0.83832 0.2656 0.0
C804 C 0.92691 0.87415 0.2573 0.0
C805 C 0.94646 0.9398 0.26424 0.0
C806 C 0.99953 0.97016 0.27882 0.0
C807 C 1.03008 0.93449 0.28673 0.0
C808 C 0.2662 0.90326 0.30366 0.0
C809 C 0.24518 0.99979 0.26091 0.0
C810 C 0.40395 0.92005 0.2426 0.0
Eu811 Eu 0.27956 0.88429 0.2534 0.0
C812 C 0.47027 0.94041 0.25345 0.0
C813 C 0.52493 1.00718 0.25255 0.0
C814 C 0.58895 1.02478 0.26102 0.0
C815 C 0.6004 0.976 0.27057 0.0
C816 C 0.54486 0.90999 0.27195 0.0
C817 C 0.48136 0.89263 0.26373 0.0
C818 C 0.1537 0.82056 0.23279 0.0
C819 C 0.22219 0.74823 0.27743 0.0
O820 O 1.04826 0.79364 0.274 0.0
O821 O 0.08636 0.8551 0.30205 0.0
O822 O 0.21008 0.85277 0.31067 0.0
O823 O 0.26142 0.91829 0.28477 0.0
O824 O 0.18788 0.95277 0.26956 0.0
O825 O 0.28911 0.9845 0.25354 0.0
O826 O 0.35528 0.85738 0.24393 0.0
O827 O 0.38086 0.96174 0.24358 0.0
O828 O 0.21061 0.86138 0.22365 0.0
O829 O 0.16964 0.80968 0.25054 0.0
O830 O 0.2765 0.80706 0.27556 0.0
O831 O 0.16271 0.74566 0.27859 0.0
H832 H 0.93721 0.78719 0.2603 0.0
H833 H 0.88593 0.84797 0.24632 0.0
H834 H 1.01566 1.02017 0.28472 0.0
H835 H 1.07109 0.95918 0.29781 0.0
H836 H 0.51882 1.04557 0.24465 0.0
H837 H 0.63014 0.07561 0.25904 0.0
H838 H 0.55083 0.87043 0.27904 0.0
H839 H 0.44142 0.84087 0.26491 0.0
C840 C 0.63701 1.02672 0.83435 0.0
Eu841 Eu 0.7385 1.00982 0.84195 0.0
C842 C 0.56654 0.98771 0.84194 0.0
C843 C 0.5237 0.91911 0.83718 0.0
C844 C 0.45685 0.88487 0.84453 0.0
C845 C 0.43256 0.91812 0.85734 0.0
C846 C 0.47772 0.9852 0.86324 0.0
C847 C 0.543 1.01948 0.85546 0.0
C848 C 0.79126 0.95071 0.81907 0.0
C849 C 0.67319 0.85307 0.86136 0.0
C850 C 0.91277 0.93435 0.87905 0.0
Eu851 Eu 0.8227 0.96902 0.86917 0.0
C852 C 0.95598 0.91203 0.86739 0.0
C853 C 0.94838 0.84762 0.87066 0.0
C854 C 0.99325 0.82908 0.86152 0.0
C855 C 1.04739 0.87454 0.84887 0.0
C856 C 1.05268 0.93757 0.84487 0.0
C857 C 1.00791 0.95583 0.85381 0.0
C858 C 0.76033 1.03271 0.88985 0.0
C859 C 0.90032 0.1062 0.84579 0.0
O860 O 0.68146 0.0597 0.84891 0.0
O861 O 0.65825 0.99864 0.82078 0.0
O862 O 0.78498 1.00079 0.81193 0.0
O863 O 0.7708 0.93562 0.83787 0.0
O864 O 0.66238 0.90048 0.85321 0.0
O865 O 0.73286 0.86816 0.86823 0.0
O866 O 0.92656 0.99682 0.87704 0.0
O867 O 0.84797 0.89287 0.87959 0.0
O868 O 0.77701 0.99226 0.89902 0.0
O869 O 0.78681 1.04326 0.87207 0.0
O870 O 0.89611 1.04733 0.84715 0.0
O871 O 0.84318 0.10829 0.84453 0.0
H872 H 0.54112 0.89247 0.8273 0.0
H873 H 0.42377 0.83359 0.83953 0.0
H874 H 0.46178 1.0134 0.87297 0.0
H875 H 0.57504 0.07166 0.85984 0.0
H876 H 0.9092 0.81235 0.88102 0.0
H877 H 0.98818 0.78096 0.86556 0.0
H878 H 0.09414 0.97474 0.83557 0.0
H879 H 1.01588 1.0056 0.85069 0.0
C880 C 0.1893 0.68378 0.83303 0.0
Eu881 Eu 0.20437 0.80113 0.8411 0.0
C882 C 0.22806 0.65263 0.84129 0.0
C883 C 0.29618 0.67659 0.83623 0.0
C884 C 0.33032 0.64456 0.84421 0.0
C885 C 0.29763 0.58958 0.85799 0.0
C886 C 0.23124 0.56979 0.8642 0.0
C887 C 0.19686 0.59991 0.85573 0.0
C888 C 0.26361 0.91369 0.8185 0.0
C889 C 0.35943 0.89118 0.86128 0.0
C890 C 0.27484 1.0454 0.88072 0.0
Eu891 Eu 0.24234 0.9228 0.8689 0.0
C892 C 0.29625 0.11221 0.87013 0.0
C893 C 0.36182 0.16787 0.87269 0.0
C894 C 0.38006 0.23204 0.86427 0.0
C895 C 0.33307 0.24255 0.8531 0.0
C896 C 0.26845 0.18605 0.85001 0.0
C897 C 0.25051 0.12242 0.85822 0.0
C898 C 0.17925 0.79578 0.88892 0.0
C899 C 0.10739 0.86597 0.84438 0.0
O900 O 0.15339 0.69362 0.84698 0.0
O901 O 0.21907 0.73412 0.81993 0.0
O902 O 0.21383 0.85742 0.81128 0.0
O903 O 0.27841 0.90814 0.83737 0.0
O904 O 0.31245 0.83302 0.85311 0.0
O905 O 0.34387 0.9356 0.86797 0.0
O906 O 0.31714 1.02297 0.88049 0.0
O907 O 0.21274 0.99651 0.87826 0.0
O908 O 0.22016 0.85234 0.8982 0.0
O909 O 0.16817 0.8124 0.8713 0.0
O910 O 0.16581 0.92052 0.84661 0.0
O911 O 0.10561 0.80695 0.84303 0.0
H912 H 0.32258 0.71884 0.82569 0.0
H913 H 0.38106 0.66114 0.83896 0.0
H914 H 0.20349 0.52772 0.8747 0.0
H915 H 0.14506 0.58106 0.86033 0.0
H916 H 0.39856 0.16231 0.88182 0.0
H917 H 0.42964 0.27398 0.86749 0.0
H918 H 0.23039 0.19145 0.8416 0.0
H919 H 0.19978 0.0816 0.85569 0.0
C920 C 0.53001 0.57419 0.83498 0.0
Eu921 Eu 0.4116 0.47344 0.84294 0.0
C922 C 0.56187 0.64512 0.84236 0.0
C923 C 0.61677 0.66866 0.85602 0.0
C924 C 0.64803 0.73426 0.86361 0.0
C925 C 0.62682 0.77984 0.85741 0.0
C926 C 0.56981 0.75566 0.8444 0.0
C927 C 0.53696 0.68852 0.83722 0.0
C928 C 0.29889 0.42079 0.82055 0.0
C929 C 0.32396 0.54313 0.86256 0.0
C930 C 0.16155 0.30579 0.88105 0.0
Eu931 Eu 0.28683 0.39304 0.8709 0.0
C932 C 0.09649 0.2599 0.86957 0.0
C933 C 1.04021 0.26945 0.87087 0.0
C934 C 0.97736 0.22312 0.86173 0.0
C935 C 0.96876 0.16558 0.851 0.0
C936 C 1.02603 0.15797 0.84908 0.0
C937 C 0.08837 0.20401 0.85805 0.0
C938 C 0.41352 0.45436 0.89099 0.0
C939 C 0.34365 0.31171 0.84812 0.0
O940 O 0.51859 0.53004 0.84964 0.0
O941 O 0.48061 0.5527 0.82146 0.0
O942 O 0.35453 0.42556 0.81329 0.0
O943 O 0.30544 0.4429 0.83921 0.0
O944 O 0.38013 0.55134 0.85358 0.0
O945 O 0.27992 0.48526 0.87066 0.0
O946 O 0.21017 0.2914 0.88069 0.0
O947 O 0.185 0.37051 0.87969 0.0
O948 O 0.35712 0.43915 0.90043 0.0
O949 O 0.39641 0.42702 0.87336 0.0
O950 O 0.28972 0.31722 0.84949 0.0
O951 O 0.40338 0.36791 0.84629 0.0
H952 H 0.63638 0.63634 0.86068 0.0
H953 H 0.69178 0.75004 0.87348 0.0
H954 H 0.55215 0.78899 0.83913 0.0
H955 H 0.49333 0.67128 0.82719 0.0
H956 H 1.04415 0.31175 0.87961 0.0
H957 H 0.93476 0.23045 0.86412 0.0
H958 H 1.02215 0.11442 0.84115 0.0
H959 H 0.12973 0.19434 0.85648 0.0
C960 C 0.95275 0.63826 0.71162 0.0
Eu961 Eu 0.91617 0.72705 0.70178 0.0
C962 C 0.97598 0.59517 0.70038 0.0
C963 C 1.03883 0.60085 0.70508 0.0
C964 C 1.05786 0.5557 0.69651 0.0
C965 C 1.01438 0.5031 0.68302 0.0
C966 C 0.95311 0.49983 0.67755 0.0
C967 C 0.9344 0.54499 0.68594 0.0
C968 C 0.8554 0.78942 0.72368 0.0
C969 C 0.77783 0.64901 0.67835 0.0
C970 C 0.85423 0.91092 0.66736 0.0
Eu971 Eu 0.8725 0.81087 0.67562 0.0
C972 C 0.89375 0.9816 0.67462 0.0
C973 C 0.96105 1.02507 0.66852 0.0
C974 C 0.99662 0.09153 0.67616 0.0
C975 C 0.96582 0.11488 0.69036 0.0
C976 C 0.89992 0.06941 0.69721 0.0
C977 C 0.86443 1.00447 0.68931 0.0
C978 C 0.93259 0.76108 0.65192 0.0
C979 C 1.02928 0.87765 0.69444 0.0
O980 O 0.99357 0.7032 0.71193 0.0
O981 O 0.89005 0.62354 0.70945 0.0
O982 O 0.89729 0.77343 0.73213 0.0
O983 O 0.84185 0.76256 0.70591 0.0
O984 O 0.83655 0.65293 0.68012 0.0
O985 O 0.77517 0.70585 0.67759 0.0
O986 O 0.8216 0.86712 0.68214 0.0
O987 O 0.88211 0.88925 0.65386 0.0
O988 O 0.88097 0.76552 0.64539 0.0
O989 O 0.948 0.78073 0.67073 0.0
O990 O 0.9807 0.88813 0.6872 0.0
O991 O 1.01621 0.81738 0.69997 0.0
H992 H 1.07224 0.63863 0.71614 0.0
H993 H 0.10445 0.55916 0.70164 0.0
H994 H 0.91747 0.45956 0.66755 0.0
H995 H 0.88588 0.53865 0.68173 0.0
H996 H 0.98581 1.00819 0.65763 0.0
H997 H 1.04669 0.12513 0.67027 0.0
H998 H 0.87333 0.08502 0.70778 0.0
H999 H 0.81324 0.97214 0.69458 0.0
C1000 C 0.58272 0.38274 0.70999 0.0
Eu1001 Eu 0.49306 0.25768 0.70037 0.0
C1002 C 0.62588 0.4491 0.69889 0.0
C1003 C 0.61789 0.50535 0.70293 0.0
C1004 C 0.66308 0.56971 0.6946 0.0
C1005 C 0.71802 0.57995 0.68205 0.0
C1006 C 0.72373 0.52287 0.67723 0.0
C1007 C 0.67857 0.45882 0.68537 0.0
C1008 C 0.43132 0.13512 0.72248 0.0
C1009 C 0.56885 0.19557 0.67706 0.0
C1010 C 0.30491 1.01205 0.66694 0.0
Eu1011 Eu 0.40703 0.12944 0.67453 0.0
C1012 C 0.23478 0.98336 0.67474 0.0
C1013 C 0.18986 1.00314 0.66675 0.0
C1014 C 0.12353 0.97382 0.67441 0.0
C1015 C 0.10172 0.92552 0.69055 0.0
C1016 C 0.14875 0.91037 0.69949 0.0
C1017 C 0.21354 0.93777 0.69149 0.0
C1018 C 0.45665 0.23927 0.65082 0.0
C1019 C 0.34202 0.21998 0.69436 0.0
O1020 O 0.59709 0.33452 0.70764 0.0
O1021 O 0.51786 0.35916 0.71048 0.0
O1022 O 0.44885 0.19341 0.73086 0.0
O1023 O 0.45687 0.14771 0.70454 0.0
O1024 O 0.56467 0.25035 0.67807 0.0
O1025 O 0.51189 0.13621 0.67671 0.0
O1026 O 0.34975 1.02262 0.68132 0.0
O1027 O 0.3268 0.06091 0.65321 0.0
O1028 O 0.45109 0.18287 0.64411 0.0
O1029 O 0.43749 0.23513 0.66969 0.0
O1030 O 0.33111 0.16082 0.68712 0.0
O1031 O 0.40267 0.26764 0.69927 0.0
H1032 H 0.57819 0.50019 0.71332 0.0
H1033 H 0.65761 0.61215 0.69921 0.0
H1034 H 0.76573 0.52835 0.66792 0.0
H1035 H 0.68683 0.41744 0.6817 0.0
H1036 H 0.2054 1.04006 0.65431 0.0
H1037 H 0.08865 0.9861 0.66694 0.0
H1038 H 0.13405 0.87295 0.71173 0.0
H1039 H 0.24672 0.92191 0.69824 0.0
C1040 C 0.83303 0.26796 0.71136 0.0
Eu1041 Eu 0.95836 0.30345 0.70206 0.0
C1042 C 0.76731 0.24454 0.6998 0.0
C1043 C 0.7111 0.18012 0.70345 0.0
C1044 C 0.64734 0.16065 0.6945 0.0
C1045 C 0.63773 0.20524 0.68168 0.0
C1046 C 0.69485 0.26831 0.67733 0.0
C1047 C 0.75824 0.28746 0.68608 0.0
C1048 C 0.08027 0.36161 0.72444 0.0
C1049 C 1.02229 0.44247 0.67905 0.0
C1050 C 0.20497 0.36054 0.66932 0.0
Eu1051 Eu 0.08696 0.34491 0.67642 0.0
C1052 C 0.23387 0.31881 0.67668 0.0
C1053 C 0.27857 0.34152 0.69372 0.0
C1054 C 0.30666 0.30399 0.70113 0.0
C1055 C 0.29305 0.24354 0.69127 0.0
C1056 C 0.24542 0.21847 0.67493 0.0
C1057 C 0.21547 0.25551 0.66785 0.0
C1058 C 0.97811 0.2875 0.65225 0.0
C1059 C 0.99246 0.18767 0.69455 0.0
O1060 O 0.85694 0.22691 0.71217 0.0
O1061 O 0.88113 0.33049 0.70907 0.0
O1062 O 1.0218 0.32115 0.73273 0.0
O1063 O 1.06822 0.37553 0.70657 0.0
O1064 O 0.96668 0.38445 0.6805 0.0
O1065 O 0.08111 0.44355 0.67853 0.0
O1066 O 0.19308 0.39286 0.68405 0.0
O1067 O 0.15701 0.33494 0.65525 0.0
O1068 O 1.03519 0.33791 0.64584 0.0
O1069 O 0.98117 0.27176 0.67111 0.0
O1070 O 1.05238 0.23525 0.68757 0.0
O1071 O 0.94649 0.20256 0.70006 0.0
H1072 H 0.71578 0.14561 0.71397 0.0
H1073 H 0.60481 0.11254 0.69878 0.0
H1074 H 0.68983 0.30487 0.66791 0.0
H1075 H 0.7996 0.33726 0.68269 0.0
H1076 H 0.29324 0.3894 0.70111 0.0
H1077 H 0.34296 0.32494 0.71381 0.0
H1078 H 0.23439 0.17262 0.66679 0.0
H1079 H 0.17932 0.23541 0.65516 0.0
C1080 C 0.33135 0.25845 0.07774 0.0
Eu1081 Eu 0.41871 0.21951 0.08731 0.0
C1082 C 0.28677 0.2802 0.08891 0.0
C1083 C 0.296 0.3455 0.08616 0.0
C1084 C 0.25006 0.36384 0.0946 0.0
C1085 C 0.19308 0.3173 0.10605 0.0
C1086 C 0.18592 0.25315 0.10952 0.0
C1087 C 0.23171 0.23506 0.10125 0.0
C1088 C 0.47899 0.15522 0.06602 0.0
C1089 C 0.3391 0.08143 0.11073 0.0
C1090 C 0.60338 0.15802 0.12162 0.0
Eu1091 Eu 0.50168 0.17448 0.11409 0.0
C1092 C 0.67408 0.19959 0.11428 0.0
C1093 C 0.71769 0.26531 0.12172 0.0
C1094 C 0.78418 0.30271 0.11414 0.0
C1095 C 0.80759 0.27563 0.09859 0.0
C1096 C 0.76191 0.21168 0.09039 0.0
C1097 C 0.69698 0.17414 0.09827 0.0
C1098 C 0.45185 0.2354 0.13721 0.0
C1099 C 0.56999 0.33176 0.0948 0.0
O1100 O 0.39631 0.29896 0.07844 0.0
O1101 O 0.31614 0.19533 0.07884 0.0
O1102 O 0.46295 0.19655 0.0571 0.0
O1103 O 0.45301 0.14411 0.0839 0.0
O1104 O 0.34428 0.14075 0.10909 0.0
O1105 O 0.3955 0.07773 0.1118 0.0
O1106 O 0.55948 0.12567 0.10683 0.0
O1107 O 0.58069 0.18366 0.13561 0.0
O1108 O 0.45656 0.18426 0.14416 0.0
O1109 O 0.47212 0.2504 0.11841 0.0
O1110 O 0.57901 0.28363 0.10327 0.0
O1111 O 0.51095 0.31856 0.08783 0.0
H1112 H 0.33752 0.38182 0.0767 0.0
H1113 H 0.25695 0.41297 0.09101 0.0
H1114 H 0.14253 0.21514 0.11793 0.0
H1115 H 0.22227 0.18451 0.10392 0.0
H1116 H 0.70088 0.28741 0.1336 0.0
H1117 H 0.81781 0.35119 0.12109 0.0
H1118 H 0.77745 0.18793 0.07872 0.0
H1119 H 0.66477 0.12429 0.09195 0.0
C1120 C 0.9575 0.14103 0.07729 0.0
Eu1121 Eu 0.99547 0.26728 0.08651 0.0
C1122 C 0.93424 0.075 0.08881 0.0
C1123 C 0.86939 1.01894 0.08546 0.0
C1124 C 0.84998 0.95494 0.0943 0.0
C1125 C 0.89493 0.94477 0.10678 0.0
C1126 C 0.9585 1.00179 0.11082 0.0
C1127 C 0.97764 0.06537 0.10215 0.0
C1128 C 1.05949 0.39187 0.06523 0.0
C1129 C 0.13332 0.327 0.11011 0.0
C1130 C 1.05487 0.51294 0.12099 0.0
Eu1131 Eu 1.03808 0.39461 0.11333 0.0
C1132 C 1.01445 0.54373 0.11404 0.0
C1133 C 1.0429 0.59597 0.09937 0.0
C1134 C 1.00683 0.62534 0.09177 0.0
C1135 C 0.941 0.60461 0.0988 0.0
C1136 C 0.91118 0.5506 0.11307 0.0
C1137 C 0.94741 0.51995 0.12048 0.0
C1138 C 0.97813 0.28395 0.13644 0.0
C1139 C 0.88065 0.30322 0.09423 0.0
O1140 O 0.9171 0.16576 0.07699 0.0
O1141 O 1.02046 0.18871 0.07903 0.0
O1142 O 1.01931 0.33434 0.05622 0.0
O1143 O 1.0699 0.37712 0.08323 0.0
O1144 O 0.07453 0.27244 0.10834 0.0
O1145 O 0.13582 0.38652 0.11124 0.0
O1146 O 0.08594 0.50079 0.1059 0.0
O1147 O 1.02902 0.4645 0.13489 0.0
O1148 O 1.0288 0.34002 0.14342 0.0
O1149 O 0.9634 0.28896 0.11759 0.0
O1150 O 0.92794 0.36072 0.10277 0.0
O1151 O 0.8956 0.25892 0.08692 0.0
H1152 H 0.83438 1.02391 0.07524 0.0
H1153 H 0.80145 0.91266 0.09023 0.0
H1154 H 0.99543 0.99656 0.11996 0.0
H1155 H 1.02777 0.10645 0.10531 0.0
H1156 H 0.09393 0.61496 0.09388 0.0
H1157 H 1.03291 0.66756 0.08121 0.0
H1158 H 0.86123 0.53389 0.11915 0.0
H1159 H 0.92335 0.47848 0.13142 0.0
C1160 C 1.07136 0.89004 0.07811 0.0
Eu1161 Eu 0.94609 0.79974 0.08749 0.0
C1162 C 0.13795 0.93226 0.08938 0.0
C1163 C 0.19331 0.92226 0.08591 0.0
C1164 C 0.25787 0.96654 0.09443 0.0
C1165 C 0.26931 1.0226 0.10663 0.0
C1166 C 0.21306 1.03044 0.1108 0.0
C1167 C 0.14891 0.98629 0.10248 0.0
C1168 C 0.82161 0.73944 0.06604 0.0
C1169 C 0.88511 0.87553 0.11132 0.0
C1170 C 0.70204 0.60925 0.12091 0.0
Eu1171 Eu 0.81912 0.713 0.11387 0.0
C1172 C 0.67455 0.5387 0.11351 0.0
C1173 C 0.63137 0.51669 0.0961 0.0
C1174 C 0.60449 0.45135 0.08859 0.0
C1175 C 0.61769 0.40446 0.09862 0.0
C1176 C 0.66372 0.42699 0.11544 0.0
C1177 C 0.69257 0.49387 0.12265 0.0
C1178 C 0.92893 0.76316 0.13736 0.0
C1179 C 0.91302 0.64987 0.09456 0.0
O1180 O 1.02319 0.90429 0.08086 0.0
O1181 O 1.04748 0.82519 0.07693 0.0
O1182 O 0.8793 0.75715 0.0571 0.0
O1183 O 0.83603 0.76385 0.08413 0.0
O1184 O 0.93981 0.87132 0.11005 0.0
O1185 O 0.82575 0.81833 0.11192 0.0
O1186 O 0.71332 0.65311 0.10615 0.0
O1187 O 0.74968 0.63265 0.1351 0.0
O1188 O 0.87238 0.7571 0.1442 0.0
O1189 O 0.92503 0.74473 0.11837 0.0
O1190 O 0.85448 0.63833 0.10265 0.0
O1191 O 0.95732 0.70989 0.08791 0.0
H1192 H 0.18739 0.88158 0.07584 0.0
H1193 H 0.29957 0.95932 0.09027 0.0
H1194 H 0.2193 0.07329 0.1198 0.0
H1195 H 0.10843 0.99634 0.10569 0.0
H1196 H 0.61683 0.54966 0.08845 0.0
H1197 H 0.56891 0.43624 0.0758 0.0
H1198 H 0.67455 0.39232 0.12376 0.0
H1199 H 0.72769 0.50994 0.13563 0.0
C1200 C 1.05876 0.61366 0.6207 0.0
Eu1201 Eu 1.04256 0.71577 0.61334 0.0
C1202 C 1.01799 0.54262 0.61369 0.0
C1203 C 0.95125 0.49949 0.62039 0.0
C1204 C 0.91483 0.43262 0.61304 0.0
C1205 C 0.94419 0.4083 0.59859 0.0
C1206 C 1.0096 0.45329 0.59126 0.0
C1207 C 1.04585 0.51875 0.59879 0.0
C1208 C 0.9833 0.76554 0.63714 0.0
C1209 C 0.88504 0.65164 0.59462 0.0
C1210 C 0.96463 0.89132 0.57795 0.0
Eu1211 Eu 1.00076 0.80167 0.58721 0.0
C1212 C 0.93953 0.93268 0.58942 0.0
C1213 C 0.87584 0.9254 0.58488 0.0
C1214 C 0.85528 0.96922 0.59365 0.0
C1215 C 0.89792 1.02207 0.60722 0.0
C1216 C 0.96008 1.02695 0.61248 0.0
C1217 C 0.98033 0.98318 0.60389 0.0
C1218 C 1.06454 0.74111 0.56555 0.0
C1219 C 0.13832 0.8785 0.61054 0.0
O1220 O 0.08984 0.6569 0.60567 0.0
O1221 O 1.03327 0.63642 0.63471 0.0
O1222 O 1.03445 0.76022 0.6437 0.0
O1223 O 0.96801 0.74714 0.61818 0.0
O1224 O 0.93255 0.64026 0.60238 0.0
O1225 O 0.90005 0.71178 0.58826 0.0
O1226 O 1.02711 0.90603 0.58073 0.0
O1227 O 0.9243 0.82642 0.5766 0.0
O1228 O 1.02381 0.75814 0.55676 0.0
O1229 O 0.07522 0.76629 0.58352 0.0
O1230 O 0.07941 0.87431 0.60932 0.0
O1231 O 0.14066 0.82132 0.61114 0.0
H1232 H 0.92763 0.51696 0.63152 0.0
H1233 H 0.86523 0.39946 0.61935 0.0
H1234 H 1.03527 0.43696 0.58058 0.0
H1235 H 0.09662 0.55066 0.5931 0.0
H1236 H 0.84289 0.88742 0.57377 0.0
H1237 H 0.80808 0.96454 0.58863 0.0
H1238 H 0.99527 0.06754 0.62248 0.0
H1239 H 1.02948 0.99094 0.60798 0.0
C1240 C 0.60641 0.51586 0.62077 0.0
Eu1241 Eu 0.50469 0.39793 0.61309 0.0
C1242 C 0.67748 0.5458 0.61372 0.0
C1243 C 0.70089 0.59596 0.59833 0.0
C1244 C 0.76635 0.62473 0.59081 0.0
C1245 C 0.81191 0.60569 0.59867 0.0
C1246 C 0.78806 0.55347 0.61359 0.0
C1247 C 0.72112 0.52327 0.62089 0.0
C1248 C 0.45508 0.28772 0.63633 0.0
C1249 C 0.57153 0.30795 0.59355 0.0
C1250 C 0.33206 0.1446 0.57705 0.0
Eu1251 Eu 0.42044 0.27061 0.58643 0.0
C1252 C 0.28901 0.07834 0.58842 0.0
C1253 C 0.29774 1.02218 0.58498 0.0
C1254 C 0.25296 0.95804 0.59368 0.0
C1255 C 0.19765 0.9478 0.60607 0.0
C1256 C 0.19107 1.00486 0.61018 0.0
C1257 C 0.23573 0.0686 0.60167 0.0
C1258 C 0.48034 0.39539 0.56517 0.0
C1259 C 0.34221 0.32968 0.6103 0.0
O1260 O 0.56302 0.50427 0.60581 0.0
O1261 O 0.58361 0.46739 0.63467 0.0
O1262 O 0.46013 0.34377 0.64322 0.0
O1263 O 0.4745 0.2921 0.61744 0.0
O1264 O 0.58136 0.36559 0.60184 0.0
O1265 O 0.51205 0.26241 0.58684 0.0
O1266 O 0.39708 0.16902 0.57678 0.0
O1267 O 0.31697 0.19249 0.57888 0.0
O1268 O 0.4639 0.338 0.5562 0.0
O1269 O 0.45484 0.38028 0.58311 0.0
O1270 O 0.34716 0.27543 0.60865 0.0
O1271 O 0.39878 0.38949 0.6111 0.0
H1272 H 0.66867 0.61401 0.59225 0.0
H1273 H 0.78229 0.66552 0.5797 0.0
H1274 H 0.82162 0.53808 0.6203 0.0
H1275 H 0.70402 0.48324 0.63237 0.0
H1276 H 0.33786 1.0272 0.57482 0.0
H1277 H 0.25925 0.91574 0.58956 0.0
H1278 H 0.1488 0.9996 0.61928 0.0
H1279 H 0.22669 0.10974 0.60488 0.0
C1280 C 0.70499 0.16443 0.62058 0.0
Eu1281 Eu 0.82253 0.17854 0.61359 0.0
C1282 C 0.6766 0.20644 0.61298 0.0
C1283 C 0.69676 0.2711 0.62103 0.0
C1284 C 0.6674 0.30837 0.61353 0.0
C1285 C 0.61865 0.2822 0.59749 0.0
C1286 C 0.60301 0.21991 0.58852 0.0
C1287 C 0.63055 0.18235 0.59633 0.0
C1288 C 0.93132 0.23733 0.63743 0.0
C1289 C 0.91655 0.33511 0.59451 0.0
C1290 C 1.07414 0.25206 0.57788 0.0
Eu1291 Eu 0.94919 0.21792 0.58749 0.0
C1292 C 0.14091 0.27716 0.58909 0.0
C1293 C 0.19632 0.34187 0.58506 0.0
C1294 C 0.261 0.36258 0.59355 0.0
C1295 C 0.2725 0.31905 0.6063 0.0
C1296 C 0.21622 0.25572 0.61103 0.0
C1297 C 0.15193 0.23531 0.60273 0.0
C1298 C 0.82476 0.15403 0.56594 0.0
C1299 C 0.8884 0.08174 0.6115 0.0
O1300 O 0.71655 0.13157 0.60596 0.0
O1301 O 0.75288 0.18979 0.63467 0.0
O1302 O 0.87458 0.18678 0.64402 0.0
O1303 O 0.92865 0.25248 0.61841 0.0
O1304 O 0.85749 0.28818 0.60223 0.0
O1305 O 0.9613 0.3193 0.5883 0.0
O1306 O 1.02617 0.18998 0.58106 0.0
O1307 O 1.05008 0.29288 0.57634 0.0
O1308 O 0.88241 0.19441 0.5571 0.0
O1309 O 0.83933 0.14382 0.58396 0.0
O1310 O 0.94322 0.14031 0.61006 0.0
O1311 O 0.82913 0.07989 0.61189 0.0
H1312 H 0.73406 0.29227 0.63337 0.0
H1313 H 0.68023 0.35565 0.62102 0.0
H1314 H 0.5653 0.19728 0.57637 0.0
H1315 H 0.61447 0.13338 0.58951 0.0
H1316 H 0.19031 0.37565 0.57456 0.0
H1317 H 0.30276 0.4108 0.58895 0.0
H1318 H 0.22259 0.2199 0.6204 0.0
H1319 H 0.11139 0.18532 0.60638 0.0
C1320 C 0.30068 0.36063 0.16749 0.0
Eu1321 Eu 0.40368 0.34608 0.17482 0.0
C1322 C 0.2301 0.31803 0.17491 0.0
C1323 C 0.18551 0.25481 0.16599 0.0
C1324 C 0.11873 0.21691 0.17324 0.0
C1325 C 0.09597 0.24087 0.1899 0.0
C1326 C 0.1426 0.30139 0.19975 0.0
C1327 C 0.2079 0.33978 0.19217 0.0
C1328 C 0.45359 0.28567 0.15161 0.0
C1329 C 0.33751 0.18908 0.1943 0.0
C1330 C 0.57717 0.26527 0.21071 0.0
Eu1331 Eu 0.48839 0.30274 0.20151 0.0
C1332 C 0.62038 0.24222 0.19929 0.0
C1333 C 0.61144 0.17718 0.2025 0.0
C1334 C 0.65639 0.15791 0.19379 0.0
C1335 C 0.7121 0.20321 0.18162 0.0
C1336 C 0.71889 0.267 0.17771 0.0
C1337 C 0.67407 0.286 0.18624 0.0
C1338 C 0.42796 0.3673 0.22273 0.0
C1339 C 0.56621 0.4406 0.17805 0.0
O1340 O 0.34472 0.39357 0.18217 0.0
O1341 O 0.32386 0.33567 0.15343 0.0
O1342 O 0.44829 0.33648 0.14467 0.0
O1343 O 0.43427 0.27078 0.1705 0.0
O1344 O 0.32757 0.23685 0.18599 0.0
O1345 O 0.39701 0.20297 0.20102 0.0
O1346 O 0.51218 0.22466 0.21099 0.0
O1347 O 0.59202 0.32814 0.20895 0.0
O1348 O 0.44474 0.32667 0.23179 0.0
O1349 O 0.45338 0.37744 0.2048 0.0
O1350 O 0.56147 0.38144 0.17946 0.0
O1351 O 0.50942 0.44365 0.1771 0.0
H1352 H 0.20168 0.23533 0.15314 0.0
H1353 H 0.08424 0.17108 0.16506 0.0
H1354 H 0.12727 0.32204 0.21249 0.0
H1355 H 0.24068 0.38759 0.19965 0.0
H1356 H 0.57103 0.14188 0.21251 0.0
H1357 H 0.64991 0.10918 0.19774 0.0
H1358 H 0.7614 0.30412 0.16876 0.0
H1359 H 0.68328 0.3363 0.18321 0.0
C1360 C 0.85178 1.00802 0.16635 0.0
Eu1361 Eu 0.86665 0.12553 0.17398 0.0
C1362 C 0.89296 0.9789 0.1742 0.0
C1363 C 0.9587 1.00022 0.16691 0.0
C1364 C 0.99554 0.97075 0.1747 0.0
C1365 C 0.96793 0.92073 0.19032 0.0
C1366 C 0.90428 0.90364 0.19853 0.0
C1367 C 0.86713 0.93125 0.19038 0.0
C1368 C 0.92736 0.23592 0.15083 0.0
C1369 C 1.02319 0.21577 0.19359 0.0
C1370 C 0.94564 0.37843 0.21037 0.0
Eu1371 Eu 0.90923 0.25274 0.20079 0.0
C1372 C 0.96952 0.44512 0.19917 0.0
C1373 C 1.03362 0.50132 0.20331 0.0
C1374 C 1.05328 0.56586 0.19489 0.0
C1375 C 1.00932 0.57652 0.18206 0.0
C1376 C 0.94665 0.51946 0.17717 0.0
C1377 C 0.92726 0.45528 0.18543 0.0
C1378 C 0.84543 0.12761 0.22189 0.0
C1379 C 0.7715 0.19312 0.17725 0.0
O1380 O 0.81742 1.01864 0.18069 0.0
O1381 O 0.87879 0.05699 0.15266 0.0
O1382 O 0.87651 0.18 0.14387 0.0
O1383 O 0.94195 0.23137 0.16975 0.0
O1384 O 0.97528 0.15765 0.18561 0.0
O1385 O 1.00946 0.26201 0.19983 0.0
O1386 O 0.88302 0.33059 0.20801 0.0
O1387 O 0.98631 0.35403 0.21103 0.0
O1388 O 0.8862 0.18491 0.23093 0.0
O1389 O 0.83484 0.143 0.20404 0.0
O1390 O 0.83048 0.24753 0.17878 0.0
O1391 O 0.76882 0.1335 0.17622 0.0
H1392 H 0.98118 1.03867 0.15494 0.0
H1393 H 1.0439 0.98477 0.16779 0.0
H1394 H 0.8805 0.86504 0.21038 0.0
H1395 H 0.81725 0.91417 0.19659 0.0
H1396 H 1.06772 0.496 0.21386 0.0
H1397 H 0.10102 0.60813 0.1996 0.0
H1398 H 0.91056 0.52509 0.16769 0.0
H1399 H 0.87774 0.41409 0.18167 0.0
C1400 C 0.20358 0.91135 0.168 0.0
Eu1401 Eu 0.08599 0.80861 0.17531 0.0
C1402 C 0.23217 0.982 0.17542 0.0
C1403 C 0.27774 1.00425 0.19222 0.0
C1404 C 0.3053 0.0696 0.19983 0.0
C1405 C 0.29028 0.11622 0.19049 0.0
C1406 C 0.24212 0.09343 0.17426 0.0
C1407 C 0.2127 1.02661 0.16698 0.0
C1408 C 0.97617 0.75929 0.15188 0.0
C1409 C 0.99442 0.87431 0.1946 0.0
C1410 C 0.83257 0.63494 0.21125 0.0
Eu1411 Eu 0.95842 0.72363 0.20185 0.0
C1412 C 0.76635 0.59154 0.19991 0.0
C1413 C 0.71069 0.60147 0.20274 0.0
C1414 C 0.64648 0.55642 0.19413 0.0
C1415 C 0.63572 0.49967 0.18243 0.0
C1416 C 0.69233 0.49184 0.17891 0.0
C1417 C 0.75609 0.53671 0.18734 0.0
C1418 C 0.08291 0.78429 0.22324 0.0
C1419 C 1.01883 0.64594 0.17815 0.0
O1420 O 0.19227 0.86724 0.18268 0.0
O1421 O 0.1554 0.88858 0.154 0.0
O1422 O 1.03237 0.76455 0.14505 0.0
O1423 O 0.98014 0.77792 0.17086 0.0
O1424 O 1.05245 0.88461 0.18646 0.0
O1425 O 0.94919 0.8147 0.2013 0.0
O1426 O 0.85672 0.69992 0.21146 0.0
O1427 O 0.88064 0.62011 0.20944 0.0
O1428 O 1.02542 0.76754 0.2322 0.0
O1429 O 1.06806 0.75886 0.20529 0.0
O1430 O 0.96409 0.65004 0.1799 0.0
O1431 O 0.07829 0.70295 0.17723 0.0
H1432 H 0.29343 0.9714 0.19931 0.0
H1433 H 0.34244 0.08482 0.21219 0.0
H1434 H 0.2298 0.12786 0.16648 0.0
H1435 H 0.17589 1.0104 0.15448 0.0
H1436 H 0.71613 0.64283 0.21236 0.0
H1437 H 0.60453 0.56379 0.19777 0.0
H1438 H 0.68671 0.4486 0.1703 0.0
H1439 H 0.79684 0.52669 0.18462 0.0
loop_
_geom_bond_atom_site_label_1
_geom_bond_atom_site_label_2
_geom_bond_distance
_geom_bond_site_symmetry_2
_ccdc_geom_bond_type
C0 Eu1 2.835 1_565 S
C0 C2 1.500 . S
C0 O20 1.257 . S
C0 O21 1.260 . S
Eu1 C0 2.835 1_545 S
Eu1 O20 2.473 1_545 S
Eu1 O21 2.480 1_545 S
Eu1 O22 2.430 . S
Eu1 O23 2.670 . S
Eu1 O24 2.394 1_545 S
Eu1 O29 2.355 . S
Eu1 O31 2.374 . S
C2 C0 1.500 . S
C2 C3 1.377 . S
C2 C7 1.377 . S
C3 C2 1.377 . S
C3 C4 1.395 . S
C3 H32 0.931 . S
C4 C3 1.395 . S
C4 C5 1.383 . S
C4 H33 0.931 . S
C5 C4 1.383 . S
C5 C6 1.394 . S
C6 C5 1.394 . S
C6 C7 1.378 . S
C6 H34 0.931 . S
C7 C2 1.377 . S
C7 C6 1.378 . S
C7 H35 0.931 . S
C8 O22 1.259 . S
C8 O23 1.270 . S
C9 O24 1.251 . S
C9 O25 1.251 . S
C10 Eu11 2.835 . S
C10 C12 1.500 . S
C10 O26 1.257 . S
C10 O27 1.260 . S
Eu11 C10 2.835 . S
Eu11 O23 2.355 . S
Eu11 O25 2.374 1_545 S
Eu11 O26 2.473 . S
Eu11 O27 2.480 . S
Eu11 O28 2.430 . S
Eu11 O29 2.670 . S
Eu11 O30 2.394 . S
C12 C10 1.500 . S
C12 C13 1.377 . S
C12 C17 1.377 . S
C13 C12 1.377 . S
C13 C14 1.395 . S
C13 H36 0.931 1_554 S
C14 C13 1.395 . S
C14 C15 1.383 . S
C14 H37 0.931 1_554 S
C15 C14 1.383 . S
C15 C16 1.394 . S
C16 C15 1.394 . S
C16 C17 1.378 . S
C16 H38 0.931 . S
C17 C12 1.377 . S
C17 C16 1.378 . S
C17 H39 0.931 . S
C18 O28 1.259 . S
C18 O29 1.270 . S
C19 O30 1.251 . S
C19 O31 1.251 . S
O20 C0 1.257 . S
O20 Eu1 2.473 1_565 S
O21 C0 1.260 . S
O21 Eu1 2.480 1_565 S
O22 Eu1 2.430 . S
O22 C8 1.259 . S
O23 Eu1 2.670 . S
O23 C8 1.270 . S
O23 Eu11 2.355 . S
O24 Eu1 2.394 1_565 S
O24 C9 1.251 . S
O25 C9 1.251 . S
O25 Eu11 2.374 1_565 S
O26 C10 1.257 . S
O26 Eu11 2.473 . S
O27 C10 1.260 . S
O27 Eu11 2.480 . S
O28 Eu11 2.430 . S
O28 C18 1.259 . S
O29 Eu1 2.355 . S
O29 Eu11 2.670 . S
O29 C18 1.270 . S
O30 Eu11 2.394 . S
O30 C19 1.251 . S
O31 Eu1 2.374 . S
O31 C19 1.251 . S
H32 C3 0.931 . S
H33 C4 0.931 . S
H34 C6 0.931 . S
H35 C7 0.931 . S
H36 C13 0.931 1_556 S
H37 C14 0.931 1_556 S
H38 C16 0.931 . S
H39 C17 0.931 . S
C40 Eu41 2.835 . S
C40 C42 1.500 . S
C40 O60 1.257 . S
C40 O61 1.260 . S
Eu41 C40 2.835 . S
Eu41 O60 2.473 . S
Eu41 O61 2.480 . S
Eu41 O62 2.430 . S
Eu41 O63 2.670 . S
Eu41 O64 2.394 . S
Eu41 O69 2.355 . S
Eu41 O71 2.374 1_455 S
C42 C40 1.500 . S
C42 C43 1.377 . S
C42 C47 1.377 . S
C43 C42 1.377 . S
C43 C44 1.395 . S
C43 H72 0.931 . S
C44 C43 1.395 . S
C44 C45 1.383 . S
C44 H73 0.931 . S
C45 C44 1.383 . S
C45 C46 1.394 . S
C46 C45 1.394 . S
C46 C47 1.378 . S
C46 H74 0.931 . S
C47 C42 1.377 . S
C47 C46 1.378 . S
C47 H75 0.931 . S
C48 O62 1.259 . S
C48 O63 1.270 . S
C49 O64 1.251 . S
C49 O65 1.251 . S
C50 Eu51 2.835 . S
C50 C52 1.500 . S
C50 O66 1.257 . S
C50 O67 1.260 . S
Eu51 C50 2.835 . S
Eu51 O63 2.355 1_655 S
Eu51 O65 2.374 1_655 S
Eu51 O66 2.473 . S
Eu51 O67 2.480 . S
Eu51 O68 2.430 1_655 S
Eu51 O69 2.670 1_655 S
Eu51 O70 2.394 . S
C52 C50 1.500 . S
C52 C53 1.377 . S
C52 C57 1.377 . S
C53 C52 1.377 . S
C53 C54 1.395 . S
C53 H76 0.931 1_554 S
C54 C53 1.395 . S
C54 C55 1.383 . S
C54 H77 0.931 1_554 S
C55 C54 1.383 . S
C55 C56 1.394 . S
C56 C55 1.394 . S
C56 C57 1.378 . S
C56 H78 0.931 . S
C57 C52 1.377 . S
C57 C56 1.378 . S
C57 H79 0.931 . S
C58 O68 1.259 . S
C58 O69 1.270 . S
C59 O70 1.251 . S
C59 O71 1.251 . S
O60 C40 1.257 . S
O60 Eu41 2.473 . S
O61 C40 1.260 . S
O61 Eu41 2.480 . S
O62 Eu41 2.430 . S
O62 C48 1.259 . S
O63 Eu41 2.670 . S
O63 C48 1.270 . S
O63 Eu51 2.355 1_455 S
O64 Eu41 2.394 . S
O64 C49 1.251 . S
O65 C49 1.251 . S
O65 Eu51 2.374 1_455 S
O66 C50 1.257 . S
O66 Eu51 2.473 . S
O67 C50 1.260 . S
O67 Eu51 2.480 . S
O68 Eu51 2.430 1_455 S
O68 C58 1.259 . S
O69 Eu41 2.355 . S
O69 Eu51 2.670 1_455 S
O69 C58 1.270 . S
O70 Eu51 2.394 . S
O70 C59 1.251 . S
O71 Eu41 2.374 1_655 S
O71 C59 1.251 . S
H72 C43 0.931 . S
H73 C44 0.931 . S
H74 C46 0.931 . S
H75 C47 0.931 . S
H76 C53 0.931 1_556 S
H77 C54 0.931 1_556 S
H78 C56 0.931 . S
H79 C57 0.931 . S
C80 Eu81 2.835 . S
C80 C82 1.500 . S
C80 O100 1.257 . S
C80 O101 1.260 . S
Eu81 C80 2.835 . S
Eu81 O100 2.473 . S
Eu81 O101 2.480 . S
Eu81 O102 2.430 . S
Eu81 O103 2.670 . S
Eu81 O104 2.394 . S
Eu81 O109 2.355 . S
Eu81 O111 2.374 . S
C82 C80 1.500 . S
C82 C83 1.377 . S
C82 C87 1.377 . S
C83 C82 1.377 . S
C83 C84 1.395 . S
C83 H112 0.931 . S
C84 C83 1.395 . S
C84 C85 1.383 . S
C84 H113 0.931 . S
C85 C84 1.383 . S
C85 C86 1.394 . S
C86 C85 1.394 . S
C86 C87 1.378 . S
C86 H114 0.931 . S
C87 C82 1.377 . S
C87 C86 1.378 . S
C87 H115 0.931 . S
C88 O102 1.259 . S
C88 O103 1.270 . S
C89 O104 1.251 . S
C89 O105 1.251 . S
C90 Eu91 2.835 . S
C90 C92 1.500 . S
C90 O106 1.257 . S
C90 O107 1.260 . S
Eu91 C90 2.835 . S
Eu91 O103 2.355 . S
Eu91 O105 2.374 . S
Eu91 O106 2.473 . S
Eu91 O107 2.480 . S
Eu91 O108 2.430 . S
Eu91 O109 2.670 . S
Eu91 O110 2.394 . S
C92 C90 1.500 . S
C92 C93 1.377 . S
C92 C97 1.377 . S
C93 C92 1.377 . S
C93 C94 1.395 . S
C93 H116 0.931 1_554 S
C94 C93 1.395 . S
C94 C95 1.383 . S
C94 H117 0.931 1_554 S
C95 C94 1.383 . S
C95 C96 1.394 . S
C96 C95 1.394 . S
C96 C97 1.378 . S
C96 H118 0.931 . S
C97 C92 1.377 . S
C97 C96 1.378 . S
C97 H119 0.931 . S
C98 O108 1.259 . S
C98 O109 1.270 . S
C99 O110 1.251 . S
C99 O111 1.251 . S
O100 C80 1.257 . S
O100 Eu81 2.473 . S
O101 C80 1.260 . S
O101 Eu81 2.480 . S
O102 Eu81 2.430 . S
O102 C88 1.259 . S
O103 Eu81 2.670 . S
O103 C88 1.270 . S
O103 Eu91 2.355 . S
O104 Eu81 2.394 . S
O104 C89 1.251 . S
O105 C89 1.251 . S
O105 Eu91 2.374 . S
O106 C90 1.257 . S
O106 Eu91 2.473 . S
O107 C90 1.260 . S
O107 Eu91 2.480 . S
O108 Eu91 2.430 . S
O108 C98 1.259 . S
O109 Eu81 2.355 . S
O109 Eu91 2.670 . S
O109 C98 1.270 . S
O110 Eu91 2.394 . S
O110 C99 1.251 . S
O111 Eu81 2.374 . S
O111 C99 1.251 . S
H112 C83 0.931 . S
H113 C84 0.931 . S
H114 C86 0.931 . S
H115 C87 0.931 . S
H116 C93 0.931 1_556 S
H117 C94 0.931 1_556 S
H118 C96 0.931 . S
H119 C97 0.931 . S
C120 Eu121 2.835 1_655 S
C120 C122 1.500 . S
C120 O140 1.257 . S
C120 O141 1.260 . S
Eu121 C120 2.835 1_455 S
Eu121 O140 2.473 1_455 S
Eu121 O141 2.480 1_455 S
Eu121 O142 2.430 . S
Eu121 O143 2.670 . S
Eu121 O144 2.394 1_455 S
Eu121 O149 2.355 . S
Eu121 O151 2.374 . S
C122 C120 1.500 . S
C122 C123 1.377 . S
C122 C127 1.377 . S
C123 C122 1.377 . S
C123 C124 1.395 . S
C123 H152 0.931 . S
C124 C123 1.395 . S
C124 C125 1.383 . S
C124 H153 0.931 . S
C125 C124 1.383 . S
C125 C126 1.394 . S
C126 C125 1.394 . S
C126 C127 1.378 . S
C126 H154 0.931 . S
C127 C122 1.377 . S
C127 C126 1.378 . S
C127 H155 0.931 . S
C128 O142 1.259 . S
C128 O143 1.270 . S
C129 O144 1.251 . S
C129 O145 1.251 . S
C130 Eu131 2.835 . S
C130 C132 1.500 . S
C130 O146 1.257 . S
C130 O147 1.260 . S
Eu131 C130 2.835 . S
Eu131 O143 2.355 . S
Eu131 O145 2.374 1_455 S
Eu131 O146 2.473 . S
Eu131 O147 2.480 . S
Eu131 O148 2.430 . S
Eu131 O149 2.670 . S
Eu131 O150 2.394 . S
C132 C130 1.500 . S
C132 C133 1.377 . S
C132 C137 1.377 . S
C133 C132 1.377 . S
C133 C134 1.395 . S
C133 H156 0.931 . S
C134 C133 1.395 . S
C134 C135 1.383 . S
C134 H157 0.931 . S
C135 C134 1.383 . S
C135 C136 1.394 . S
C136 C135 1.394 . S
C136 C137 1.378 . S
C136 H158 0.931 . S
C137 C132 1.377 . S
C137 C136 1.378 . S
C137 H159 0.931 . S
C138 O148 1.259 . S
C138 O149 1.270 . S
C139 O150 1.251 . S
C139 O151 1.251 . S
O140 C120 1.257 . S
O140 Eu121 2.473 1_655 S
O141 C120 1.260 . S
O141 Eu121 2.480 1_655 S
O142 Eu121 2.430 . S
O142 C128 1.259 . S
O143 Eu121 2.670 . S
O143 C128 1.270 . S
O143 Eu131 2.355 . S
O144 Eu121 2.394 1_655 S
O144 C129 1.251 . S
O145 C129 1.251 . S
O145 Eu131 2.374 1_655 S
O146 C130 1.257 . S
O146 Eu131 2.473 . S
O147 C130 1.260 . S
O147 Eu131 2.480 . S
O148 Eu131 2.430 . S
O148 C138 1.259 . S
O149 Eu121 2.355 . S
O149 Eu131 2.670 . S
O149 C138 1.270 . S
O150 Eu131 2.394 . S
O150 C139 1.251 . S
O151 Eu121 2.374 . S
O151 C139 1.251 . S
H152 C123 0.931 . S
H153 C124 0.931 . S
H154 C126 0.931 . S
H155 C127 0.931 . S
H156 C133 0.931 . S
H157 C134 0.931 . S
H158 C136 0.931 . S
H159 C137 0.931 . S
C160 Eu161 2.835 . S
C160 C162 1.500 . S
C160 O180 1.257 . S
C160 O181 1.260 . S
Eu161 C160 2.835 . S
Eu161 O180 2.473 . S
Eu161 O181 2.480 . S
Eu161 O182 2.430 . S
Eu161 O183 2.670 . S
Eu161 O184 2.394 . S
Eu161 O189 2.355 . S
Eu161 O191 2.374 . S
C162 C160 1.500 . S
C162 C163 1.377 . S
C162 C167 1.377 . S
C163 C162 1.377 . S
C163 C164 1.395 . S
C163 H192 0.931 . S
C164 C163 1.395 . S
C164 C165 1.383 . S
C164 H193 0.931 . S
C165 C164 1.383 . S
C165 C166 1.394 . S
C166 C165 1.394 . S
C166 C167 1.378 . S
C166 H194 0.931 . S
C167 C162 1.377 . S
C167 C166 1.378 . S
C167 H195 0.931 . S
C168 O182 1.259 . S
C168 O183 1.270 . S
C169 O184 1.251 . S
C169 O185 1.251 . S
C170 Eu171 2.835 . S
C170 C172 1.500 . S
C170 O186 1.257 . S
C170 O187 1.260 . S
Eu171 C170 2.835 . S
Eu171 O183 2.355 . S
Eu171 O185 2.374 . S
Eu171 O186 2.473 . S
Eu171 O187 2.480 . S
Eu171 O188 2.430 . S
Eu171 O189 2.670 . S
Eu171 O190 2.394 . S
C172 C170 1.500 . S
C172 C173 1.377 . S
C172 C177 1.377 . S
C173 C172 1.377 . S
C173 C174 1.395 . S
C173 H196 0.931 . S
C174 C173 1.395 . S
C174 C175 1.383 . S
C174 H197 0.931 . S
C175 C174 1.383 . S
C175 C176 1.394 . S
C176 C175 1.394 . S
C176 C177 1.378 . S
C176 H198 0.931 . S
C177 C172 1.377 . S
C177 C176 1.378 . S
C177 H199 0.931 . S
C178 O188 1.259 . S
C178 O189 1.270 . S
C179 O190 1.251 . S
C179 O191 1.251 . S
O180 C160 1.257 . S
O180 Eu161 2.473 . S
O181 C160 1.260 . S
O181 Eu161 2.480 . S
O182 Eu161 2.430 . S
O182 C168 1.259 . S
O183 Eu161 2.670 . S
O183 C168 1.270 . S
O183 Eu171 2.355 . S
O184 Eu161 2.394 . S
O184 C169 1.251 . S
O185 C169 1.251 . S
O185 Eu171 2.374 . S
O186 C170 1.257 . S
O186 Eu171 2.473 . S
O187 C170 1.260 . S
O187 Eu171 2.480 . S
O188 Eu171 2.430 . S
O188 C178 1.259 . S
O189 Eu161 2.355 . S
O189 Eu171 2.670 . S
O189 C178 1.270 . S
O190 Eu171 2.394 . S
O190 C179 1.251 . S
O191 Eu161 2.374 . S
O191 C179 1.251 . S
H192 C163 0.931 . S
H193 C164 0.931 . S
H194 C166 0.931 . S
H195 C167 0.931 . S
H196 C173 0.931 . S
H197 C174 0.931 . S
H198 C176 0.931 . S
H199 C177 0.931 . S
C200 Eu201 2.835 . S
C200 C202 1.500 . S
C200 O220 1.257 . S
C200 O221 1.260 . S
Eu201 C200 2.835 . S
Eu201 O220 2.473 . S
Eu201 O221 2.480 . S
Eu201 O222 2.430 . S
Eu201 O223 2.670 . S
Eu201 O224 2.394 . S
Eu201 O229 2.355 . S
Eu201 O231 2.374 1_545 S
C202 C200 1.500 . S
C202 C203 1.377 . S
C202 C207 1.377 . S
C203 C202 1.377 . S
C203 C204 1.395 . S
C203 H232 0.931 . S
C204 C203 1.395 . S
C204 C205 1.383 . S
C204 H233 0.931 . S
C205 C204 1.383 . S
C205 C206 1.394 . S
C206 C205 1.394 . S
C206 C207 1.378 . S
C206 H234 0.931 . S
C207 C202 1.377 . S
C207 C206 1.378 . S
C207 H235 0.931 . S
C208 O222 1.259 . S
C208 O223 1.270 . S
C209 O224 1.251 . S
C209 O225 1.251 . S
C210 Eu211 2.835 . S
C210 C212 1.500 . S
C210 O226 1.257 . S
C210 O227 1.260 . S
Eu211 C210 2.835 . S
Eu211 O223 2.355 1_565 S
Eu211 O225 2.374 1_565 S
Eu211 O226 2.473 . S
Eu211 O227 2.480 . S
Eu211 O228 2.430 1_565 S
Eu211 O229 2.670 1_565 S
Eu211 O230 2.394 . S
C212 C210 1.500 . S
C212 C213 1.377 . S
C212 C217 1.377 . S
C213 C212 1.377 . S
C213 C214 1.395 . S
C213 H236 0.931 . S
C214 C213 1.395 . S
C214 C215 1.383 . S
C214 H237 0.931 . S
C215 C214 1.383 . S
C215 C216 1.394 . S
C216 C215 1.394 . S
C216 C217 1.378 . S
C216 H238 0.931 . S
C217 C212 1.377 . S
C217 C216 1.378 . S
C217 H239 0.931 . S
C218 O228 1.259 . S
C218 O229 1.270 . S
C219 O230 1.251 . S
C219 O231 1.251 . S
O220 C200 1.257 . S
O220 Eu201 2.473 . S
O221 C200 1.260 . S
O221 Eu201 2.480 . S
O222 Eu201 2.430 . S
O222 C208 1.259 . S
O223 Eu201 2.670 . S
O223 C208 1.270 . S
O223 Eu211 2.355 1_545 S
O224 Eu201 2.394 . S
O224 C209 1.251 . S
O225 C209 1.251 . S
O225 Eu211 2.374 1_545 S
O226 C210 1.257 . S
O226 Eu211 2.473 . S
O227 C210 1.260 . S
O227 Eu211 2.480 . S
O228 Eu211 2.430 1_545 S
O228 C218 1.259 . S
O229 Eu201 2.355 . S
O229 Eu211 2.670 1_545 S
O229 C218 1.270 . S
O230 Eu211 2.394 . S
O230 C219 1.251 . S
O231 Eu201 2.374 1_565 S
O231 C219 1.251 . S
H232 C203 0.931 . S
H233 C204 0.931 . S
H234 C206 0.931 . S
H235 C207 0.931 . S
H236 C213 0.931 . S
H237 C214 0.931 . S
H238 C216 0.931 . S
H239 C217 0.931 . S
C240 Eu241 2.835 . S
C240 C242 1.500 . S
C240 O260 1.257 . S
C240 O261 1.260 . S
Eu241 C240 2.835 . S
Eu241 O260 2.473 . S
Eu241 O261 2.480 . S
Eu241 O262 2.430 1_565 S
Eu241 O263 2.670 1_565 S
Eu241 O264 2.394 . S
Eu241 O269 2.355 1_565 S
Eu241 O271 2.374 1_565 S
C242 C240 1.500 . S
C242 C243 1.377 . S
C242 C247 1.377 . S
C243 C242 1.377 . S
C243 C244 1.395 . S
C243 H272 0.931 1_556 S
C244 C243 1.395 . S
C244 C245 1.383 . S
C244 H273 0.931 1_556 S
C245 C244 1.383 . S
C245 C246 1.394 . S
C246 C245 1.394 . S
C246 C247 1.378 . S
C246 H274 0.931 . S
C247 C242 1.377 . S
C247 C246 1.378 . S
C247 H275 0.931 . S
C248 O262 1.259 . S
C248 O263 1.270 . S
C249 O264 1.251 . S
C249 O265 1.251 . S
C250 Eu251 2.835 . S
C250 C252 1.500 . S
C250 O266 1.257 . S
C250 O267 1.260 . S
Eu251 C250 2.835 . S
Eu251 O263 2.355 . S
Eu251 O265 2.374 1_545 S
Eu251 O266 2.473 . S
Eu251 O267 2.480 . S
Eu251 O268 2.430 . S
Eu251 O269 2.670 . S
Eu251 O270 2.394 . S
C252 C250 1.500 . S
C252 C253 1.377 . S
C252 C257 1.377 . S
C253 C252 1.377 . S
C253 C254 1.395 . S
C253 H276 0.931 . S
C254 C253 1.395 . S
C254 C255 1.383 . S
C254 H277 0.931 . S
C255 C254 1.383 . S
C255 C256 1.394 . S
C256 C255 1.394 . S
C256 C257 1.378 . S
C256 H278 0.931 . S
C257 C252 1.377 . S
C257 C256 1.378 . S
C257 H279 0.931 . S
C258 O268 1.259 . S
C258 O269 1.270 . S
C259 O270 1.251 . S
C259 O271 1.251 . S
O260 C240 1.257 . S
O260 Eu241 2.473 . S
O261 C240 1.260 . S
O261 Eu241 2.480 . S
O262 Eu241 2.430 1_545 S
O262 C248 1.259 . S
O263 Eu241 2.670 1_545 S
O263 C248 1.270 . S
O263 Eu251 2.355 . S
O264 Eu241 2.394 . S
O264 C249 1.251 . S
O265 C249 1.251 . S
O265 Eu251 2.374 1_565 S
O266 C250 1.257 . S
O266 Eu251 2.473 . S
O267 C250 1.260 . S
O267 Eu251 2.480 . S
O268 Eu251 2.430 . S
O268 C258 1.259 . S
O269 Eu241 2.355 1_545 S
O269 Eu251 2.670 . S
O269 C258 1.270 . S
O270 Eu251 2.394 . S
O270 C259 1.251 . S
O271 Eu241 2.374 1_545 S
O271 C259 1.251 . S
H272 C243 0.931 1_554 S
H273 C244 0.931 1_554 S
H274 C246 0.931 . S
H275 C247 0.931 . S
H276 C253 0.931 . S
H277 C254 0.931 . S
H278 C256 0.931 . S
H279 C257 0.931 . S
C280 Eu281 2.835 . S
C280 C282 1.500 . S
C280 O300 1.257 . S
C280 O301 1.260 . S
Eu281 C280 2.835 . S
Eu281 O300 2.473 . S
Eu281 O301 2.480 . S
Eu281 O302 2.430 . S
Eu281 O303 2.670 . S
Eu281 O304 2.394 . S
Eu281 O309 2.355 . S
Eu281 O311 2.374 1_455 S
C282 C280 1.500 . S
C282 C283 1.377 . S
C282 C287 1.377 . S
C283 C282 1.377 . S
C283 C284 1.395 . S
C283 H312 0.931 1_556 S
C284 C283 1.395 . S
C284 C285 1.383 . S
C284 H313 0.931 1_556 S
C285 C284 1.383 . S
C285 C286 1.394 . S
C286 C285 1.394 . S
C286 C287 1.378 . S
C286 H314 0.931 . S
C287 C282 1.377 . S
C287 C286 1.378 . S
C287 H315 0.931 . S
C288 O302 1.259 . S
C288 O303 1.270 . S
C289 O304 1.251 . S
C289 O305 1.251 . S
C290 Eu291 2.835 1_655 S
C290 C292 1.500 . S
C290 O306 1.257 . S
C290 O307 1.260 . S
Eu291 C290 2.835 1_455 S
Eu291 O303 2.355 . S
Eu291 O305 2.374 . S
Eu291 O306 2.473 1_455 S
Eu291 O307 2.480 1_455 S
Eu291 O308 2.430 . S
Eu291 O309 2.670 . S
Eu291 O310 2.394 1_455 S
C292 C290 1.500 . S
C292 C293 1.377 . S
C292 C297 1.377 . S
C293 C292 1.377 . S
C293 C294 1.395 . S
C293 H316 0.931 . S
C294 C293 1.395 . S
C294 C295 1.383 . S
C294 H317 0.931 . S
C295 C294 1.383 . S
C295 C296 1.394 . S
C296 C295 1.394 . S
C296 C297 1.378 . S
C296 H318 0.931 . S
C297 C292 1.377 . S
C297 C296 1.378 . S
C297 H319 0.931 . S
C298 O308 1.259 . S
C298 O309 1.270 . S
C299 O310 1.251 . S
C299 O311 1.251 . S
O300 C280 1.257 . S
O300 Eu281 2.473 . S
O301 C280 1.260 . S
O301 Eu281 2.480 . S
O302 Eu281 2.430 . S
O302 C288 1.259 . S
O303 Eu281 2.670 . S
O303 C288 1.270 . S
O303 Eu291 2.355 . S
O304 Eu281 2.394 . S
O304 C289 1.251 . S
O305 C289 1.251 . S
O305 Eu291 2.374 . S
O306 C290 1.257 . S
O306 Eu291 2.473 1_655 S
O307 C290 1.260 . S
O307 Eu291 2.480 1_655 S
O308 Eu291 2.430 . S
O308 C298 1.259 . S
O309 Eu281 2.355 . S
O309 Eu291 2.670 . S
O309 C298 1.270 . S
O310 Eu291 2.394 1_655 S
O310 C299 1.251 . S
O311 Eu281 2.374 1_655 S
O311 C299 1.251 . S
H312 C283 0.931 1_554 S
H313 C284 0.931 1_554 S
H314 C286 0.931 . S
H315 C287 0.931 . S
H316 C293 0.931 . S
H317 C294 0.931 . S
H318 C296 0.931 . S
H319 C297 0.931 . S
C320 Eu321 2.835 . S
C320 C322 1.500 . S
C320 O340 1.257 . S
C320 O341 1.260 . S
Eu321 C320 2.835 . S
Eu321 O340 2.473 . S
Eu321 O341 2.480 . S
Eu321 O342 2.430 . S
Eu321 O343 2.670 . S
Eu321 O344 2.394 . S
Eu321 O349 2.355 . S
Eu321 O351 2.374 . S
C322 C320 1.500 . S
C322 C323 1.377 . S
C322 C327 1.377 . S
C323 C322 1.377 . S
C323 C324 1.395 . S
C323 H352 0.931 1_556 S
C324 C323 1.395 . S
C324 C325 1.383 . S
C324 H353 0.931 1_556 S
C325 C324 1.383 . S
C325 C326 1.394 . S
C326 C325 1.394 . S
C326 C327 1.378 . S
C326 H354 0.931 . S
C327 C322 1.377 . S
C327 C326 1.378 . S
C327 H355 0.931 . S
C328 O342 1.259 . S
C328 O343 1.270 . S
C329 O344 1.251 . S
C329 O345 1.251 . S
C330 Eu331 2.835 . S
C330 C332 1.500 . S
C330 O346 1.257 . S
C330 O347 1.260 . S
Eu331 C330 2.835 . S
Eu331 O343 2.355 . S
Eu331 O345 2.374 . S
Eu331 O346 2.473 . S
Eu331 O347 2.480 . S
Eu331 O348 2.430 . S
Eu331 O349 2.670 . S
Eu331 O350 2.394 . S
C332 C330 1.500 . S
C332 C333 1.377 . S
C332 C337 1.377 . S
C333 C332 1.377 . S
C333 C334 1.395 . S
C333 H356 0.931 . S
C334 C333 1.395 . S
C334 C335 1.383 . S
C334 H357 0.931 . S
C335 C334 1.383 . S
C335 C336 1.394 . S
C336 C335 1.394 . S
C336 C337 1.378 . S
C336 H358 0.931 . S
C337 C332 1.377 . S
C337 C336 1.378 . S
C337 H359 0.931 . S
C338 O348 1.259 . S
C338 O349 1.270 . S
C339 O350 1.251 . S
C339 O351 1.251 . S
O340 C320 1.257 . S
O340 Eu321 2.473 . S
O341 C320 1.260 . S
O341 Eu321 2.480 . S
O342 Eu321 2.430 . S
O342 C328 1.259 . S
O343 Eu321 2.670 . S
O343 C328 1.270 . S
O343 Eu331 2.355 . S
O344 Eu321 2.394 . S
O344 C329 1.251 . S
O345 C329 1.251 . S
O345 Eu331 2.374 . S
O346 C330 1.257 . S
O346 Eu331 2.473 . S
O347 C330 1.260 . S
O347 Eu331 2.480 . S
O348 Eu331 2.430 . S
O348 C338 1.259 . S
O349 Eu321 2.355 . S
O349 Eu331 2.670 . S
O349 C338 1.270 . S
O350 Eu331 2.394 . S
O350 C339 1.251 . S
O351 Eu321 2.374 . S
O351 C339 1.251 . S
H352 C323 0.931 1_554 S
H353 C324 0.931 1_554 S
H354 C326 0.931 . S
H355 C327 0.931 . S
H356 C333 0.931 . S
H357 C334 0.931 . S
H358 C336 0.931 . S
H359 C337 0.931 . S
C360 Eu361 2.835 . S
C360 C362 1.500 . S
C360 O380 1.257 . S
C360 O381 1.260 . S
Eu361 C360 2.835 . S
Eu361 O380 2.473 . S
Eu361 O381 2.480 . S
Eu361 O382 2.430 1_655 S
Eu361 O383 2.670 1_655 S
Eu361 O384 2.394 . S
Eu361 O389 2.355 1_655 S
Eu361 O391 2.374 1_655 S
C362 C360 1.500 . S
C362 C363 1.377 . S
C362 C367 1.377 . S
C363 C362 1.377 . S
C363 C364 1.395 . S
C363 H392 0.931 . S
C364 C363 1.395 . S
C364 C365 1.383 . S
C364 H393 0.931 . S
C365 C364 1.383 . S
C365 C366 1.394 . S
C366 C365 1.394 . S
C366 C367 1.378 . S
C366 H394 0.931 . S
C367 C362 1.377 . S
C367 C366 1.378 . S
C367 H395 0.931 . S
C368 O382 1.259 . S
C368 O383 1.270 . S
C369 O384 1.251 . S
C369 O385 1.251 . S
C370 Eu371 2.835 . S
C370 C372 1.500 . S
C370 O386 1.257 . S
C370 O387 1.260 . S
Eu371 C370 2.835 . S
Eu371 O383 2.355 . S
Eu371 O385 2.374 1_455 S
Eu371 O386 2.473 . S
Eu371 O387 2.480 . S
Eu371 O388 2.430 . S
Eu371 O389 2.670 . S
Eu371 O390 2.394 . S
C372 C370 1.500 . S
C372 C373 1.377 . S
C372 C377 1.377 . S
C373 C372 1.377 . S
C373 C374 1.395 . S
C373 H396 0.931 . S
C374 C373 1.395 . S
C374 C375 1.383 . S
C374 H397 0.931 . S
C375 C374 1.383 . S
C375 C376 1.394 . S
C376 C375 1.394 . S
C376 C377 1.378 . S
C376 H398 0.931 . S
C377 C372 1.377 . S
C377 C376 1.378 . S
C377 H399 0.931 . S
C378 O388 1.259 . S
C378 O389 1.270 . S
C379 O390 1.251 . S
C379 O391 1.251 . S
O380 C360 1.257 . S
O380 Eu361 2.473 . S
O381 C360 1.260 . S
O381 Eu361 2.480 . S
O382 Eu361 2.430 1_455 S
O382 C368 1.259 . S
O383 Eu361 2.670 1_455 S
O383 C368 1.270 . S
O383 Eu371 2.355 . S
O384 Eu361 2.394 . S
O384 C369 1.251 . S
O385 C369 1.251 . S
O385 Eu371 2.374 1_655 S
O386 C370 1.257 . S
O386 Eu371 2.473 . S
O387 C370 1.260 . S
O387 Eu371 2.480 . S
O388 Eu371 2.430 . S
O388 C378 1.259 . S
O389 Eu361 2.355 1_455 S
O389 Eu371 2.670 . S
O389 C378 1.270 . S
O390 Eu371 2.394 . S
O390 C379 1.251 . S
O391 Eu361 2.374 1_455 S
O391 C379 1.251 . S
H392 C363 0.931 . S
H393 C364 0.931 . S
H394 C366 0.931 . S
H395 C367 0.931 . S
H396 C373 0.931 . S
H397 C374 0.931 . S
H398 C376 0.931 . S
H399 C377 0.931 . S
C400 Eu401 2.835 . S
C400 C402 1.500 . S
C400 O420 1.257 . S
C400 O421 1.260 . S
Eu401 C400 2.835 . S
Eu401 O420 2.473 . S
Eu401 O421 2.480 . S
Eu401 O422 2.430 . S
Eu401 O423 2.670 . S
Eu401 O424 2.394 . S
Eu401 O429 2.355 . S
Eu401 O431 2.374 . S
C402 C400 1.500 . S
C402 C403 1.377 . S
C402 C407 1.377 . S
C403 C402 1.377 . S
C403 C404 1.395 . S
C403 H432 0.931 . S
C404 C403 1.395 . S
C404 C405 1.383 . S
C404 H433 0.931 . S
C405 C404 1.383 . S
C405 C406 1.394 . S
C406 C405 1.394 . S
C406 C407 1.378 . S
C406 H434 0.931 . S
C407 C402 1.377 . S
C407 C406 1.378 . S
C407 H435 0.931 . S
C408 O422 1.259 . S
C408 O423 1.270 . S
C409 O424 1.251 . S
C409 O425 1.251 . S
C410 Eu411 2.835 . S
C410 C412 1.500 . S
C410 O426 1.257 . S
C410 O427 1.260 . S
Eu411 C410 2.835 . S
Eu411 O423 2.355 . S
Eu411 O425 2.374 . S
Eu411 O426 2.473 . S
Eu411 O427 2.480 . S
Eu411 O428 2.430 . S
Eu411 O429 2.670 . S
Eu411 O430 2.394 . S
C412 C410 1.500 . S
C412 C413 1.377 . S
C412 C417 1.377 . S
C413 C412 1.377 . S
C413 C414 1.395 . S
C413 H436 0.931 . S
C414 C413 1.395 . S
C414 C415 1.383 . S
C414 H437 0.931 . S
C415 C414 1.383 . S
C415 C416 1.394 . S
C416 C415 1.394 . S
C416 C417 1.378 . S
C416 H438 0.931 . S
C417 C412 1.377 . S
C417 C416 1.378 . S
C417 H439 0.931 . S
C418 O428 1.259 . S
C418 O429 1.270 . S
C419 O430 1.251 . S
C419 O431 1.251 . S
O420 C400 1.257 . S
O420 Eu401 2.473 . S
O421 C400 1.260 . S
O421 Eu401 2.480 . S
O422 Eu401 2.430 . S
O422 C408 1.259 . S
O423 Eu401 2.670 . S
O423 C408 1.270 . S
O423 Eu411 2.355 . S
O424 Eu401 2.394 . S
O424 C409 1.251 . S
O425 C409 1.251 . S
O425 Eu411 2.374 . S
O426 C410 1.257 . S
O426 Eu411 2.473 . S
O427 C410 1.260 . S
O427 Eu411 2.480 . S
O428 Eu411 2.430 . S
O428 C418 1.259 . S
O429 Eu401 2.355 . S
O429 Eu411 2.670 . S
O429 C418 1.270 . S
O430 Eu411 2.394 . S
O430 C419 1.251 . S
O431 Eu401 2.374 . S
O431 C419 1.251 . S
H432 C403 0.931 . S
H433 C404 0.931 . S
H434 C406 0.931 . S
H435 C407 0.931 . S
H436 C413 0.931 . S
H437 C414 0.931 . S
H438 C416 0.931 . S
H439 C417 0.931 . S
C440 Eu441 2.835 . S
C440 C442 1.500 . S
C440 O460 1.257 . S
C440 O461 1.260 . S
Eu441 C440 2.835 . S
Eu441 O460 2.473 . S
Eu441 O461 2.480 . S
Eu441 O462 2.430 . S
Eu441 O463 2.670 . S
Eu441 O464 2.394 . S
Eu441 O469 2.355 . S
Eu441 O471 2.374 1_545 S
C442 C440 1.500 . S
C442 C443 1.377 . S
C442 C447 1.377 . S
C443 C442 1.377 . S
C443 C444 1.395 . S
C443 H472 0.931 . S
C444 C443 1.395 . S
C444 C445 1.383 . S
C444 H473 0.931 . S
C445 C444 1.383 . S
C445 C446 1.394 . S
C446 C445 1.394 . S
C446 C447 1.378 . S
C446 H474 0.931 . S
C447 C442 1.377 . S
C447 C446 1.378 . S
C447 H475 0.931 . S
C448 O462 1.259 . S
C448 O463 1.270 . S
C449 O464 1.251 . S
C449 O465 1.251 . S
C450 Eu451 2.835 1_565 S
C450 C452 1.500 . S
C450 O466 1.257 . S
C450 O467 1.260 . S
Eu451 C450 2.835 1_545 S
Eu451 O463 2.355 . S
Eu451 O465 2.374 . S
Eu451 O466 2.473 1_545 S
Eu451 O467 2.480 1_545 S
Eu451 O468 2.430 . S
Eu451 O469 2.670 . S
Eu451 O470 2.394 1_545 S
C452 C450 1.500 . S
C452 C453 1.377 . S
C452 C457 1.377 . S
C453 C452 1.377 . S
C453 C454 1.395 . S
C453 H476 0.931 . S
C454 C453 1.395 . S
C454 C455 1.383 . S
C454 H477 0.931 . S
C455 C454 1.383 . S
C455 C456 1.394 . S
C456 C455 1.394 . S
C456 C457 1.378 . S
C456 H478 0.931 . S
C457 C452 1.377 . S
C457 C456 1.378 . S
C457 H479 0.931 . S
C458 O468 1.259 . S
C458 O469 1.270 . S
C459 O470 1.251 . S
C459 O471 1.251 . S
O460 C440 1.257 . S
O460 Eu441 2.473 . S
O461 C440 1.260 . S
O461 Eu441 2.480 . S
O462 Eu441 2.430 . S
O462 C448 1.259 . S
O463 Eu441 2.670 . S
O463 C448 1.270 . S
O463 Eu451 2.355 . S
O464 Eu441 2.394 . S
O464 C449 1.251 . S
O465 C449 1.251 . S
O465 Eu451 2.374 . S
O466 C450 1.257 . S
O466 Eu451 2.473 1_565 S
O467 C450 1.260 . S
O467 Eu451 2.480 1_565 S
O468 Eu451 2.430 . S
O468 C458 1.259 . S
O469 Eu441 2.355 . S
O469 Eu451 2.670 . S
O469 C458 1.270 . S
O470 Eu451 2.394 1_565 S
O470 C459 1.251 . S
O471 Eu441 2.374 1_565 S
O471 C459 1.251 . S
H472 C443 0.931 . S
H473 C444 0.931 . S
H474 C446 0.931 . S
H475 C447 0.931 . S
H476 C453 0.931 . S
H477 C454 0.931 . S
H478 C456 0.931 . S
H479 C457 0.931 . S
C480 Eu481 2.835 . S
C480 C482 1.500 . S
C480 O500 1.257 . S
C480 O501 1.260 . S
Eu481 C480 2.835 . S
Eu481 O500 2.473 . S
Eu481 O501 2.480 . S
Eu481 O502 2.430 . S
Eu481 O503 2.670 . S
Eu481 O504 2.394 . S
Eu481 O509 2.355 . S
Eu481 O511 2.374 . S
C482 C480 1.500 . S
C482 C483 1.377 . S
C482 C487 1.377 . S
C483 C482 1.377 . S
C483 C484 1.395 . S
C483 H512 0.931 . S
C484 C483 1.395 . S
C484 C485 1.383 . S
C484 H513 0.931 . S
C485 C484 1.383 . S
C485 C486 1.394 . S
C486 C485 1.394 . S
C486 C487 1.378 . S
C486 H514 0.931 . S
C487 C482 1.377 . S
C487 C486 1.378 . S
C487 H515 0.931 . S
C488 O502 1.259 . S
C488 O503 1.270 . S
C489 O504 1.251 . S
C489 O505 1.251 . S
C490 Eu491 2.835 . S
C490 C492 1.500 . S
C490 O506 1.257 . S
C490 O507 1.260 . S
Eu491 C490 2.835 . S
Eu491 O503 2.355 . S
Eu491 O505 2.374 . S
Eu491 O506 2.473 . S
Eu491 O507 2.480 . S
Eu491 O508 2.430 . S
Eu491 O509 2.670 . S
Eu491 O510 2.394 . S
C492 C490 1.500 . S
C492 C493 1.377 . S
C492 C497 1.377 . S
C493 C492 1.377 . S
C493 C494 1.395 . S
C493 H516 0.931 . S
C494 C493 1.395 . S
C494 C495 1.383 . S
C494 H517 0.931 . S
C495 C494 1.383 . S
C495 C496 1.394 . S
C496 C495 1.394 . S
C496 C497 1.378 . S
C496 H518 0.931 . S
C497 C492 1.377 . S
C497 C496 1.378 . S
C497 H519 0.931 . S
C498 O508 1.259 . S
C498 O509 1.270 . S
C499 O510 1.251 . S
C499 O511 1.251 . S
O500 C480 1.257 . S
O500 Eu481 2.473 . S
O501 C480 1.260 . S
O501 Eu481 2.480 . S
O502 Eu481 2.430 . S
O502 C488 1.259 . S
O503 Eu481 2.670 . S
O503 C488 1.270 . S
O503 Eu491 2.355 . S
O504 Eu481 2.394 . S
O504 C489 1.251 . S
O505 C489 1.251 . S
O505 Eu491 2.374 . S
O506 C490 1.257 . S
O506 Eu491 2.473 . S
O507 C490 1.260 . S
O507 Eu491 2.480 . S
O508 Eu491 2.430 . S
O508 C498 1.259 . S
O509 Eu481 2.355 . S
O509 Eu491 2.670 . S
O509 C498 1.270 . S
O510 Eu491 2.394 . S
O510 C499 1.251 . S
O511 Eu481 2.374 . S
O511 C499 1.251 . S
H512 C483 0.931 . S
H513 C484 0.931 . S
H514 C486 0.931 . S
H515 C487 0.931 . S
H516 C493 0.931 . S
H517 C494 0.931 . S
H518 C496 0.931 . S
H519 C497 0.931 . S
C520 Eu521 2.835 1_545 S
C520 C522 1.500 . S
C520 O540 1.257 . S
C520 O541 1.260 1_545 S
Eu521 C520 2.835 1_565 S
Eu521 O540 2.473 1_565 S
Eu521 O541 2.480 . S
Eu521 O542 2.430 . S
Eu521 O543 2.670 . S
Eu521 O544 2.394 . S
Eu521 O549 2.355 . S
Eu521 O551 2.374 . S
C522 C520 1.500 . S
C522 C523 1.377 . S
C522 C527 1.377 . S
C523 C522 1.377 . S
C523 C524 1.395 1_655 S
C523 H552 0.931 . S
C524 C523 1.395 1_455 S
C524 C525 1.383 . S
C524 H553 0.931 . S
C525 C524 1.383 . S
C525 C526 1.394 . S
C526 C525 1.394 . S
C526 C527 1.378 1_455 S
C526 H554 0.931 . S
C527 C522 1.377 . S
C527 C526 1.378 1_655 S
C527 H555 0.931 . S
C528 O542 1.259 . S
C528 O543 1.270 . S
C529 O544 1.251 . S
C529 O545 1.251 . S
C530 Eu531 2.835 . S
C530 C532 1.500 . S
C530 O546 1.257 . S
C530 O547 1.260 . S
Eu531 C530 2.835 . S
Eu531 O543 2.355 . S
Eu531 O545 2.374 . S
Eu531 O546 2.473 . S
Eu531 O547 2.480 . S
Eu531 O548 2.430 . S
Eu531 O549 2.670 . S
Eu531 O550 2.394 . S
C532 C530 1.500 . S
C532 C533 1.377 . S
C532 C537 1.377 . S
C533 C532 1.377 . S
C533 C534 1.395 . S
C533 H556 0.931 . S
C534 C533 1.395 . S
C534 C535 1.383 . S
C534 H557 0.931 . S
C535 C534 1.383 . S
C535 C536 1.394 . S
C536 C535 1.394 . S
C536 C537 1.378 . S
C536 H558 0.931 . S
C537 C532 1.377 . S
C537 C536 1.378 . S
C537 H559 0.931 . S
C538 O548 1.259 . S
C538 O549 1.270 . S
C539 O550 1.251 . S
C539 O551 1.251 . S
O540 C520 1.257 . S
O540 Eu521 2.473 1_545 S
O541 C520 1.260 1_565 S
O541 Eu521 2.480 . S
O542 Eu521 2.430 . S
O542 C528 1.259 . S
O543 Eu521 2.670 . S
O543 C528 1.270 . S
O543 Eu531 2.355 . S
O544 Eu521 2.394 . S
O544 C529 1.251 . S
O545 C529 1.251 . S
O545 Eu531 2.374 . S
O546 C530 1.257 . S
O546 Eu531 2.473 . S
O547 C530 1.260 . S
O547 Eu531 2.480 . S
O548 Eu531 2.430 . S
O548 C538 1.259 . S
O549 Eu521 2.355 . S
O549 Eu531 2.670 . S
O549 C538 1.270 . S
O550 Eu531 2.394 . S
O550 C539 1.251 . S
O551 Eu521 2.374 . S
O551 C539 1.251 . S
H552 C523 0.931 . S
H553 C524 0.931 . S
H554 C526 0.931 . S
H555 C527 0.931 . S
H556 C533 0.931 . S
H557 C534 0.931 . S
H558 C536 0.931 . S
H559 C537 0.931 . S
C560 Eu561 2.835 . S
C560 C562 1.500 . S
C560 O580 1.257 . S
C560 O581 1.260 . S
Eu561 C560 2.835 . S
Eu561 O580 2.473 . S
Eu561 O581 2.480 . S
Eu561 O582 2.430 . S
Eu561 O583 2.670 . S
Eu561 O584 2.394 . S
Eu561 O589 2.355 . S
Eu561 O591 2.374 . S
C562 C560 1.500 . S
C562 C563 1.374 1_455 S
C562 C567 1.377 1_455 S
C563 C562 1.374 1_655 S
C563 C564 1.401 . S
C563 H592 0.927 1_655 S
C564 C563 1.401 . S
C564 C565 1.383 . S
C564 H593 0.931 . S
C565 C564 1.383 . S
C565 C566 1.394 . S
C566 C565 1.394 . S
C566 C567 1.378 . S
C566 H594 0.931 . S
C567 C562 1.377 1_655 S
C567 C566 1.378 . S
C567 H595 0.931 1_655 S
C568 O582 1.259 . S
C568 O583 1.270 . S
C569 O584 1.251 1_545 S
C569 O585 1.251 . S
C570 Eu571 2.835 . S
C570 C572 1.500 . S
C570 O586 1.257 . S
C570 O587 1.260 . S
Eu571 C570 2.835 . S
Eu571 O583 2.355 . S
Eu571 O585 2.374 1_565 S
Eu571 O586 2.473 . S
Eu571 O587 2.480 . S
Eu571 O588 2.430 . S
Eu571 O589 2.670 . S
Eu571 O590 2.394 . S
C572 C570 1.500 . S
C572 C573 1.377 . S
C572 C577 1.377 . S
C573 C572 1.377 . S
C573 C574 1.395 . S
C573 H596 0.931 . S
C574 C573 1.395 . S
C574 C575 1.383 . S
C574 H597 0.931 . S
C575 C574 1.383 . S
C575 C576 1.394 . S
C576 C575 1.394 . S
C576 C577 1.378 . S
C576 H598 0.931 . S
C577 C572 1.377 . S
C577 C576 1.378 . S
C577 H599 0.931 . S
C578 O588 1.259 . S
C578 O589 1.270 . S
C579 O590 1.251 . S
C579 O591 1.251 . S
O580 C560 1.257 . S
O580 Eu561 2.473 . S
O581 C560 1.260 . S
O581 Eu561 2.480 . S
O582 Eu561 2.430 . S
O582 C568 1.259 . S
O583 Eu561 2.670 . S
O583 C568 1.270 . S
O583 Eu571 2.355 . S
O584 Eu561 2.394 . S
O584 C569 1.251 1_565 S
O585 C569 1.251 . S
O585 Eu571 2.374 1_545 S
O586 C570 1.257 . S
O586 Eu571 2.473 . S
O587 C570 1.260 . S
O587 Eu571 2.480 . S
O588 Eu571 2.430 . S
O588 C578 1.259 . S
O589 Eu561 2.355 . S
O589 Eu571 2.670 . S
O589 C578 1.270 . S
O590 Eu571 2.394 . S
O590 C579 1.251 . S
O591 Eu561 2.374 . S
O591 C579 1.251 . S
H592 C563 0.927 1_455 S
H593 C564 0.931 . S
H594 C566 0.931 . S
H595 C567 0.931 1_455 S
H596 C573 0.931 . S
H597 C574 0.931 . S
H598 C576 0.931 . S
H599 C577 0.931 . S
C600 Eu601 2.835 . S
C600 C602 1.500 . S
C600 O620 1.257 . S
C600 O621 1.260 . S
Eu601 C600 2.835 . S
Eu601 O620 2.473 . S
Eu601 O621 2.480 . S
Eu601 O622 2.430 . S
Eu601 O623 2.670 . S
Eu601 O624 2.394 . S
Eu601 O629 2.355 . S
Eu601 O631 2.374 . S
C602 C600 1.500 . S
C602 C603 1.377 . S
C602 C607 1.377 . S
C603 C602 1.377 . S
C603 C604 1.395 . S
C603 H632 0.931 . S
C604 C603 1.395 . S
C604 C605 1.383 . S
C604 H633 0.931 . S
C605 C604 1.383 . S
C605 C606 1.394 . S
C606 C605 1.394 . S
C606 C607 1.378 . S
C606 H634 0.931 . S
C607 C602 1.377 . S
C607 C606 1.378 . S
C607 H635 0.931 . S
C608 O622 1.259 . S
C608 O623 1.270 . S
C609 O624 1.251 . S
C609 O625 1.251 . S
C610 Eu611 2.835 . S
C610 C612 1.500 . S
C610 O626 1.257 . S
C610 O627 1.260 . S
Eu611 C610 2.835 . S
Eu611 O623 2.355 . S
Eu611 O625 2.374 . S
Eu611 O626 2.473 . S
Eu611 O627 2.480 . S
Eu611 O628 2.430 . S
Eu611 O629 2.670 . S
Eu611 O630 2.394 . S
C612 C610 1.500 . S
C612 C613 1.377 . S
C612 C617 1.377 . S
C613 C612 1.377 . S
C613 C614 1.395 1_655 S
C613 H636 0.931 . S
C614 C613 1.395 1_455 S
C614 C615 1.383 . S
C614 H637 0.931 . S
C615 C614 1.383 . S
C615 C616 1.394 . S
C616 C615 1.394 . S
C616 C617 1.378 1_455 S
C616 H638 0.931 . S
C617 C612 1.377 . S
C617 C616 1.378 1_655 S
C617 H639 0.931 . S
C618 O628 1.259 . S
C618 O629 1.270 . S
C619 O630 1.251 . S
C619 O631 1.251 . S
O620 C600 1.257 . S
O620 Eu601 2.473 . S
O621 C600 1.260 . S
O621 Eu601 2.480 . S
O622 Eu601 2.430 . S
O622 C608 1.259 . S
O623 Eu601 2.670 . S
O623 C608 1.270 . S
O623 Eu611 2.355 . S
O624 Eu601 2.394 . S
O624 C609 1.251 . S
O625 C609 1.251 . S
O625 Eu611 2.374 . S
O626 C610 1.257 . S
O626 Eu611 2.473 . S
O627 C610 1.260 . S
O627 Eu611 2.480 . S
O628 Eu611 2.430 . S
O628 C618 1.259 . S
O629 Eu601 2.355 . S
O629 Eu611 2.670 . S
O629 C618 1.270 . S
O630 Eu611 2.394 . S
O630 C619 1.251 . S
O631 Eu601 2.374 . S
O631 C619 1.251 . S
H632 C603 0.931 . S
H633 C604 0.931 . S
H634 C606 0.931 . S
H635 C607 0.931 . S
H636 C613 0.931 . S
H637 C614 0.931 . S
H638 C616 0.931 . S
H639 C617 0.931 . S
C640 Eu641 2.835 . S
C640 C642 1.500 . S
C640 O660 1.257 . S
C640 O661 1.260 . S
Eu641 C640 2.835 . S
Eu641 O660 2.473 . S
Eu641 O661 2.480 . S
Eu641 O662 2.430 . S
Eu641 O663 2.670 . S
Eu641 O664 2.394 . S
Eu641 O669 2.355 . S
Eu641 O671 2.374 . S
C642 C640 1.500 . S
C642 C643 1.377 . S
C642 C647 1.377 . S
C643 C642 1.377 . S
C643 C644 1.395 . S
C643 H672 0.931 . S
C644 C643 1.395 . S
C644 C645 1.383 . S
C644 H673 0.931 . S
C645 C644 1.383 . S
C645 C646 1.394 . S
C646 C645 1.394 . S
C646 C647 1.378 . S
C646 H674 0.931 . S
C647 C642 1.377 . S
C647 C646 1.378 . S
C647 H675 0.931 . S
C648 O662 1.259 . S
C648 O663 1.270 . S
C649 O664 1.251 . S
C649 O665 1.251 . S
C650 Eu651 2.835 1_545 S
C650 C652 1.500 . S
C650 O666 1.257 . S
C650 O667 1.260 . S
Eu651 C650 2.835 1_565 S
Eu651 O663 2.355 . S
Eu651 O665 2.374 . S
Eu651 O666 2.473 1_565 S
Eu651 O667 2.480 1_565 S
Eu651 O668 2.430 . S
Eu651 O669 2.670 . S
Eu651 O670 2.394 . S
C652 C650 1.500 . S
C652 C653 1.377 . S
C652 C657 1.377 . S
C653 C652 1.377 . S
C653 C654 1.395 . S
C653 H676 0.931 . S
C654 C653 1.395 . S
C654 C655 1.383 . S
C654 H677 0.931 . S
C655 C654 1.383 . S
C655 C656 1.394 . S
C656 C655 1.394 . S
C656 C657 1.378 . S
C656 H678 0.931 . S
C657 C652 1.377 . S
C657 C656 1.378 . S
C657 H679 0.931 . S
C658 O668 1.259 . S
C658 O669 1.270 . S
C659 O670 1.251 . S
C659 O671 1.251 . S
O660 C640 1.257 . S
O660 Eu641 2.473 . S
O661 C640 1.260 . S
O661 Eu641 2.480 . S
O662 Eu641 2.430 . S
O662 C648 1.259 . S
O663 Eu641 2.670 . S
O663 C648 1.270 . S
O663 Eu651 2.355 . S
O664 Eu641 2.394 . S
O664 C649 1.251 . S
O665 C649 1.251 . S
O665 Eu651 2.374 . S
O666 C650 1.257 . S
O666 Eu651 2.473 1_545 S
O667 C650 1.260 . S
O667 Eu651 2.480 1_545 S
O668 Eu651 2.430 . S
O668 C658 1.259 . S
O669 Eu641 2.355 . S
O669 Eu651 2.670 . S
O669 C658 1.270 . S
O670 Eu651 2.394 . S
O670 C659 1.251 . S
O671 Eu641 2.374 . S
O671 C659 1.251 . S
H672 C643 0.931 . S
H673 C644 0.931 . S
H674 C646 0.931 . S
H675 C647 0.931 . S
H676 C653 0.931 . S
H677 C654 0.931 . S
H678 C656 0.931 . S
H679 C657 0.931 . S
C680 Eu681 2.835 . S
C680 C682 1.500 . S
C680 O700 1.257 . S
C680 O701 1.260 . S
Eu681 C680 2.835 . S
Eu681 O700 2.473 . S
Eu681 O701 2.480 . S
Eu681 O702 2.430 . S
Eu681 O703 2.670 . S
Eu681 O704 2.394 . S
Eu681 O709 2.355 . S
Eu681 O711 2.374 . S
C682 C680 1.500 . S
C682 C683 1.377 . S
C682 C687 1.377 . S
C683 C682 1.377 . S
C683 C684 1.395 . S
C683 H712 0.931 . S
C684 C683 1.395 . S
C684 C685 1.383 . S
C684 H713 0.931 . S
C685 C684 1.383 . S
C685 C686 1.394 . S
C686 C685 1.394 . S
C686 C687 1.378 . S
C686 H714 0.931 . S
C687 C682 1.377 . S
C687 C686 1.378 . S
C687 H715 0.931 . S
C688 O702 1.259 . S
C688 O703 1.270 . S
C689 O704 1.251 . S
C689 O705 1.251 . S
C690 Eu691 2.835 . S
C690 C692 1.500 1_455 S
C690 O706 1.257 . S
C690 O707 1.260 . S
Eu691 C690 2.835 . S
Eu691 O703 2.355 . S
Eu691 O705 2.374 . S
Eu691 O706 2.473 . S
Eu691 O707 2.480 . S
Eu691 O708 2.430 . S
Eu691 O709 2.670 . S
Eu691 O710 2.394 . S
C692 C690 1.500 1_655 S
C692 C693 1.377 . S
C692 C697 1.377 . S
C693 C692 1.377 . S
C693 C694 1.395 . S
C693 H716 0.931 . S
C694 C693 1.395 . S
C694 C695 1.383 . S
C694 H717 0.931 . S
C695 C694 1.383 . S
C695 C696 1.394 . S
C696 C695 1.394 . S
C696 C697 1.378 . S
C696 H718 0.931 . S
C697 C692 1.377 . S
C697 C696 1.378 . S
C697 H719 0.931 . S
C698 O708 1.259 . S
C698 O709 1.270 . S
C699 O710 1.251 . S
C699 O711 1.251 . S
O700 C680 1.257 . S
O700 Eu681 2.473 . S
O701 C680 1.260 . S
O701 Eu681 2.480 . S
O702 Eu681 2.430 . S
O702 C688 1.259 . S
O703 Eu681 2.670 . S
O703 C688 1.270 . S
O703 Eu691 2.355 . S
O704 Eu681 2.394 . S
O704 C689 1.251 . S
O705 C689 1.251 . S
O705 Eu691 2.374 . S
O706 C690 1.257 . S
O706 Eu691 2.473 . S
O707 C690 1.260 . S
O707 Eu691 2.480 . S
O708 Eu691 2.430 . S
O708 C698 1.259 . S
O709 Eu681 2.355 . S
O709 Eu691 2.670 . S
O709 C698 1.270 . S
O710 Eu691 2.394 . S
O710 C699 1.251 . S
O711 Eu681 2.374 . S
O711 C699 1.251 . S
H712 C683 0.931 . S
H713 C684 0.931 . S
H714 C686 0.931 . S
H715 C687 0.931 . S
H716 C693 0.931 . S
H717 C694 0.931 . S
H718 C696 0.931 . S
H719 C697 0.931 . S
C720 Eu721 2.835 . S
C720 C722 1.500 . S
C720 O740 1.257 . S
C720 O741 1.260 . S
Eu721 C720 2.835 . S
Eu721 O740 2.473 . S
Eu721 O741 2.480 . S
Eu721 O742 2.430 . S
Eu721 O743 2.670 . S
Eu721 O744 2.394 . S
Eu721 O749 2.355 . S
Eu721 O751 2.374 . S
C722 C720 1.500 . S
C722 C723 1.377 . S
C722 C727 1.377 . S
C723 C722 1.377 . S
C723 C724 1.395 . S
C723 H752 0.931 . S
C724 C723 1.395 . S
C724 C725 1.383 . S
C724 H753 0.931 . S
C725 C724 1.383 . S
C725 C726 1.394 . S
C726 C725 1.394 . S
C726 C727 1.378 . S
C726 H754 0.931 . S
C727 C722 1.377 . S
C727 C726 1.378 . S
C727 H755 0.931 . S
C728 O742 1.259 . S
C728 O743 1.270 . S
C729 O744 1.251 . S
C729 O745 1.251 . S
C730 Eu731 2.835 . S
C730 C732 1.500 . S
C730 O746 1.257 . S
C730 O747 1.260 . S
Eu731 C730 2.835 . S
Eu731 O743 2.355 . S
Eu731 O745 2.374 . S
Eu731 O746 2.473 . S
Eu731 O747 2.480 . S
Eu731 O748 2.430 . S
Eu731 O749 2.670 . S
Eu731 O750 2.394 . S
C732 C730 1.500 . S
C732 C733 1.377 . S
C732 C737 1.377 . S
C733 C732 1.377 . S
C733 C734 1.395 . S
C733 H756 0.931 . S
C734 C733 1.395 . S
C734 C735 1.383 . S
C734 H757 0.931 . S
C735 C734 1.383 . S
C735 C736 1.394 . S
C736 C735 1.394 . S
C736 C737 1.378 . S
C736 H758 0.931 . S
C737 C732 1.377 . S
C737 C736 1.378 . S
C737 H759 0.931 . S
C738 O748 1.259 . S
C738 O749 1.270 . S
C739 O750 1.251 . S
C739 O751 1.251 . S
O740 C720 1.257 . S
O740 Eu721 2.473 . S
O741 C720 1.260 . S
O741 Eu721 2.480 . S
O742 Eu721 2.430 . S
O742 C728 1.259 . S
O743 Eu721 2.670 . S
O743 C728 1.270 . S
O743 Eu731 2.355 . S
O744 Eu721 2.394 . S
O744 C729 1.251 . S
O745 C729 1.251 . S
O745 Eu731 2.374 . S
O746 C730 1.257 . S
O746 Eu731 2.473 . S
O747 C730 1.260 . S
O747 Eu731 2.480 . S
O748 Eu731 2.430 . S
O748 C738 1.259 . S
O749 Eu721 2.355 . S
O749 Eu731 2.670 . S
O749 C738 1.270 . S
O750 Eu731 2.394 . S
O750 C739 1.251 . S
O751 Eu721 2.374 . S
O751 C739 1.251 . S
H752 C723 0.931 . S
H753 C724 0.931 . S
H754 C726 0.931 . S
H755 C727 0.931 . S
H756 C733 0.931 . S
H757 C734 0.931 . S
H758 C736 0.931 . S
H759 C737 0.931 . S
C760 Eu761 2.835 1_545 S
C760 C762 1.500 . S
C760 O780 1.257 . S
C760 O781 1.260 . S
Eu761 C760 2.835 1_565 S
Eu761 O780 2.473 1_565 S
Eu761 O781 2.480 1_565 S
Eu761 O782 2.430 . S
Eu761 O783 2.670 . S
Eu761 O784 2.394 . S
Eu761 O789 2.355 . S
Eu761 O791 2.374 . S
C762 C760 1.500 . S
C762 C763 1.377 . S
C762 C767 1.377 . S
C763 C762 1.377 . S
C763 C764 1.395 1_655 S
C763 H792 0.931 . S
C764 C763 1.395 1_455 S
C764 C765 1.383 . S
C764 H793 0.931 . S
C765 C764 1.383 . S
C765 C766 1.394 . S
C766 C765 1.394 . S
C766 C767 1.378 1_455 S
C766 H794 0.931 . S
C767 C762 1.377 . S
C767 C766 1.378 1_655 S
C767 H795 0.931 . S
C768 O782 1.259 . S
C768 O783 1.270 . S
C769 O784 1.251 . S
C769 O785 1.251 . S
C770 Eu771 2.835 . S
C770 C772 1.500 . S
C770 O786 1.257 . S
C770 O787 1.260 . S
Eu771 C770 2.835 . S
Eu771 O783 2.355 . S
Eu771 O785 2.374 . S
Eu771 O786 2.473 . S
Eu771 O787 2.480 . S
Eu771 O788 2.430 . S
Eu771 O789 2.670 . S
Eu771 O790 2.394 . S
C772 C770 1.500 . S
C772 C773 1.377 . S
C772 C777 1.377 . S
C773 C772 1.377 . S
C773 C774 1.395 . S
C773 H796 0.931 . S
C774 C773 1.395 . S
C774 C775 1.383 . S
C774 H797 0.931 . S
C775 C774 1.383 . S
C775 C776 1.394 . S
C776 C775 1.394 . S
C776 C777 1.378 . S
C776 H798 0.931 . S
C777 C772 1.377 . S
C777 C776 1.378 . S
C777 H799 0.931 . S
C778 O788 1.259 . S
C778 O789 1.270 . S
C779 O790 1.251 . S
C779 O791 1.251 . S
O780 C760 1.257 . S
O780 Eu761 2.473 1_545 S
O781 C760 1.260 . S
O781 Eu761 2.480 1_545 S
O782 Eu761 2.430 . S
O782 C768 1.259 . S
O783 Eu761 2.670 . S
O783 C768 1.270 . S
O783 Eu771 2.355 . S
O784 Eu761 2.394 . S
O784 C769 1.251 . S
O785 C769 1.251 . S
O785 Eu771 2.374 . S
O786 C770 1.257 . S
O786 Eu771 2.473 . S
O787 C770 1.260 . S
O787 Eu771 2.480 . S
O788 Eu771 2.430 . S
O788 C778 1.259 . S
O789 Eu761 2.355 . S
O789 Eu771 2.670 . S
O789 C778 1.270 . S
O790 Eu771 2.394 . S
O790 C779 1.251 . S
O791 Eu761 2.374 . S
O791 C779 1.251 . S
H792 C763 0.931 . S
H793 C764 0.931 . S
H794 C766 0.931 . S
H795 C767 0.931 . S
H796 C773 0.931 . S
H797 C774 0.931 . S
H798 C776 0.931 . S
H799 C777 0.931 . S
C800 Eu801 2.835 . S
C800 C802 1.500 1_455 S
C800 O820 1.257 . S
C800 O821 1.260 . S
Eu801 C800 2.835 . S
Eu801 O820 2.473 . S
Eu801 O821 2.480 . S
Eu801 O822 2.430 . S
Eu801 O823 2.670 . S
Eu801 O824 2.394 . S
Eu801 O829 2.355 . S
Eu801 O831 2.374 . S
C802 C800 1.500 1_655 S
C802 C803 1.377 . S
C802 C807 1.377 . S
C803 C802 1.377 . S
C803 C804 1.395 . S
C803 H832 0.931 . S
C804 C803 1.395 . S
C804 C805 1.383 . S
C804 H833 0.931 . S
C805 C804 1.383 . S
C805 C806 1.394 . S
C806 C805 1.394 . S
C806 C807 1.378 . S
C806 H834 0.931 . S
C807 C802 1.377 . S
C807 C806 1.378 . S
C807 H835 0.931 . S
C808 O822 1.259 . S
C808 O823 1.270 . S
C809 O824 1.251 . S
C809 O825 1.251 . S
C810 Eu811 2.835 . S
C810 C812 1.500 . S
C810 O826 1.257 . S
C810 O827 1.260 . S
Eu811 C810 2.835 . S
Eu811 O823 2.355 . S
Eu811 O825 2.374 . S
Eu811 O826 2.473 . S
Eu811 O827 2.480 . S
Eu811 O828 2.430 . S
Eu811 O829 2.670 . S
Eu811 O830 2.394 . S
C812 C810 1.500 . S
C812 C813 1.377 . S
C812 C817 1.377 . S
C813 C812 1.377 . S
C813 C814 1.395 . S
C813 H836 0.931 . S
C814 C813 1.395 . S
C814 C815 1.383 . S
C814 H837 0.931 . S
C815 C814 1.383 . S
C815 C816 1.394 . S
C816 C815 1.394 . S
C816 C817 1.378 . S
C816 H838 0.931 . S
C817 C812 1.377 . S
C817 C816 1.378 . S
C817 H839 0.931 . S
C818 O828 1.259 . S
C818 O829 1.270 . S
C819 O830 1.251 . S
C819 O831 1.251 . S
O820 C800 1.257 . S
O820 Eu801 2.473 . S
O821 C800 1.260 . S
O821 Eu801 2.480 . S
O822 Eu801 2.430 . S
O822 C808 1.259 . S
O823 Eu801 2.670 . S
O823 C808 1.270 . S
O823 Eu811 2.355 . S
O824 Eu801 2.394 . S
O824 C809 1.251 . S
O825 C809 1.251 . S
O825 Eu811 2.374 . S
O826 C810 1.257 . S
O826 Eu811 2.473 . S
O827 C810 1.260 . S
O827 Eu811 2.480 . S
O828 Eu811 2.430 . S
O828 C818 1.259 . S
O829 Eu801 2.355 . S
O829 Eu811 2.670 . S
O829 C818 1.270 . S
O830 Eu811 2.394 . S
O830 C819 1.251 . S
O831 Eu801 2.374 . S
O831 C819 1.251 . S
H832 C803 0.931 . S
H833 C804 0.931 . S
H834 C806 0.931 . S
H835 C807 0.931 . S
H836 C813 0.931 . S
H837 C814 0.931 . S
H838 C816 0.931 . S
H839 C817 0.931 . S
C840 Eu841 2.835 . S
C840 C842 1.500 . S
C840 O860 1.257 . S
C840 O861 1.260 . S
Eu841 C840 2.835 . S
Eu841 O860 2.473 . S
Eu841 O861 2.480 . S
Eu841 O862 2.430 . S
Eu841 O863 2.670 . S
Eu841 O864 2.394 . S
Eu841 O869 2.355 . S
Eu841 O871 2.374 1_565 S
C842 C840 1.500 . S
C842 C843 1.377 . S
C842 C847 1.377 . S
C843 C842 1.377 . S
C843 C844 1.395 . S
C843 H872 0.931 . S
C844 C843 1.395 . S
C844 C845 1.383 . S
C844 H873 0.931 . S
C845 C844 1.383 . S
C845 C846 1.394 . S
C846 C845 1.394 . S
C846 C847 1.378 . S
C846 H874 0.931 . S
C847 C842 1.377 . S
C847 C846 1.378 . S
C847 H875 0.931 . S
C848 O862 1.259 . S
C848 O863 1.270 . S
C849 O864 1.251 . S
C849 O865 1.251 . S
C850 Eu851 2.835 . S
C850 C852 1.500 . S
C850 O866 1.257 . S
C850 O867 1.260 . S
Eu851 C850 2.835 . S
Eu851 O863 2.355 . S
Eu851 O865 2.374 . S
Eu851 O866 2.473 . S
Eu851 O867 2.480 . S
Eu851 O868 2.430 . S
Eu851 O869 2.670 . S
Eu851 O870 2.394 . S
C852 C850 1.500 . S
C852 C853 1.377 . S
C852 C857 1.377 . S
C853 C852 1.377 . S
C853 C854 1.395 1_655 S
C853 H876 0.931 . S
C854 C853 1.395 1_455 S
C854 C855 1.383 . S
C854 H877 0.931 . S
C855 C854 1.383 . S
C855 C856 1.394 . S
C856 C855 1.394 . S
C856 C857 1.378 1_455 S
C856 H878 0.931 . S
C857 C852 1.377 . S
C857 C856 1.378 1_655 S
C857 H879 0.931 . S
C858 O868 1.259 . S
C858 O869 1.270 . S
C859 O870 1.251 1_545 S
C859 O871 1.251 . S
O860 C840 1.257 . S
O860 Eu841 2.473 . S
O861 C840 1.260 . S
O861 Eu841 2.480 . S
O862 Eu841 2.430 . S
O862 C848 1.259 . S
O863 Eu841 2.670 . S
O863 C848 1.270 . S
O863 Eu851 2.355 . S
O864 Eu841 2.394 . S
O864 C849 1.251 . S
O865 C849 1.251 . S
O865 Eu851 2.374 . S
O866 C850 1.257 . S
O866 Eu851 2.473 . S
O867 C850 1.260 . S
O867 Eu851 2.480 . S
O868 Eu851 2.430 . S
O868 C858 1.259 . S
O869 Eu841 2.355 . S
O869 Eu851 2.670 . S
O869 C858 1.270 . S
O870 Eu851 2.394 . S
O870 C859 1.251 1_565 S
O871 Eu841 2.374 1_545 S
O871 C859 1.251 . S
H872 C843 0.931 . S
H873 C844 0.931 . S
H874 C846 0.931 . S
H875 C847 0.931 . S
H876 C853 0.931 . S
H877 C854 0.931 . S
H878 C856 0.931 . S
H879 C857 0.931 . S
C880 Eu881 2.835 . S
C880 C882 1.500 . S
C880 O900 1.257 . S
C880 O901 1.260 . S
Eu881 C880 2.835 . S
Eu881 O900 2.473 . S
Eu881 O901 2.480 . S
Eu881 O902 2.430 . S
Eu881 O903 2.670 . S
Eu881 O904 2.394 . S
Eu881 O909 2.355 . S
Eu881 O911 2.374 . S
C882 C880 1.500 . S
C882 C883 1.377 . S
C882 C887 1.377 . S
C883 C882 1.377 . S
C883 C884 1.395 . S
C883 H912 0.931 . S
C884 C883 1.395 . S
C884 C885 1.383 . S
C884 H913 0.931 . S
C885 C884 1.383 . S
C885 C886 1.394 . S
C886 C885 1.394 . S
C886 C887 1.378 . S
C886 H914 0.931 . S
C887 C882 1.377 . S
C887 C886 1.378 . S
C887 H915 0.931 . S
C888 O902 1.259 . S
C888 O903 1.270 . S
C889 O904 1.251 . S
C889 O905 1.251 . S
C890 Eu891 2.835 1_545 S
C890 C892 1.500 . S
C890 O906 1.257 . S
C890 O907 1.260 1_545 S
Eu891 C890 2.835 1_565 S
Eu891 O903 2.355 . S
Eu891 O905 2.374 . S
Eu891 O906 2.473 1_565 S
Eu891 O907 2.480 . S
Eu891 O908 2.430 . S
Eu891 O909 2.670 . S
Eu891 O910 2.394 . S
C892 C890 1.500 . S
C892 C893 1.377 . S
C892 C897 1.377 . S
C893 C892 1.377 . S
C893 C894 1.395 . S
C893 H916 0.931 . S
C894 C893 1.395 . S
C894 C895 1.383 . S
C894 H917 0.931 . S
C895 C894 1.383 . S
C895 C896 1.394 . S
C896 C895 1.394 . S
C896 C897 1.378 . S
C896 H918 0.931 . S
C897 C892 1.377 . S
C897 C896 1.378 . S
C897 H919 0.931 . S
C898 O908 1.259 . S
C898 O909 1.270 . S
C899 O910 1.251 . S
C899 O911 1.251 . S
O900 C880 1.257 . S
O900 Eu881 2.473 . S
O901 C880 1.260 . S
O901 Eu881 2.480 . S
O902 Eu881 2.430 . S
O902 C888 1.259 . S
O903 Eu881 2.670 . S
O903 C888 1.270 . S
O903 Eu891 2.355 . S
O904 Eu881 2.394 . S
O904 C889 1.251 . S
O905 C889 1.251 . S
O905 Eu891 2.374 . S
O906 C890 1.257 . S
O906 Eu891 2.473 1_545 S
O907 C890 1.260 1_565 S
O907 Eu891 2.480 . S
O908 Eu891 2.430 . S
O908 C898 1.259 . S
O909 Eu881 2.355 . S
O909 Eu891 2.670 . S
O909 C898 1.270 . S
O910 Eu891 2.394 . S
O910 C899 1.251 . S
O911 Eu881 2.374 . S
O911 C899 1.251 . S
H912 C883 0.931 . S
H913 C884 0.931 . S
H914 C886 0.931 . S
H915 C887 0.931 . S
H916 C893 0.931 . S
H917 C894 0.931 . S
H918 C896 0.931 . S
H919 C897 0.931 . S
C920 Eu921 2.835 . S
C920 C922 1.500 . S
C920 O940 1.257 . S
C920 O941 1.260 . S
Eu921 C920 2.835 . S
Eu921 O940 2.473 . S
Eu921 O941 2.480 . S
Eu921 O942 2.430 . S
Eu921 O943 2.670 . S
Eu921 O944 2.394 . S
Eu921 O949 2.355 . S
Eu921 O951 2.374 . S
C922 C920 1.500 . S
C922 C923 1.377 . S
C922 C927 1.377 . S
C923 C922 1.377 . S
C923 C924 1.395 . S
C923 H952 0.931 . S
C924 C923 1.395 . S
C924 C925 1.383 . S
C924 H953 0.931 . S
C925 C924 1.383 . S
C925 C926 1.394 . S
C926 C925 1.394 . S
C926 C927 1.378 . S
C926 H954 0.931 . S
C927 C922 1.377 . S
C927 C926 1.378 . S
C927 H955 0.931 . S
C928 O942 1.259 . S
C928 O943 1.270 . S
C929 O944 1.251 . S
C929 O945 1.251 . S
C930 Eu931 2.835 . S
C930 C932 1.500 . S
C930 O946 1.257 . S
C930 O947 1.260 . S
Eu931 C930 2.835 . S
Eu931 O943 2.355 . S
Eu931 O945 2.374 . S
Eu931 O946 2.473 . S
Eu931 O947 2.480 . S
Eu931 O948 2.430 . S
Eu931 O949 2.670 . S
Eu931 O950 2.394 . S
C932 C930 1.500 . S
C932 C933 1.376 1_455 S
C932 C937 1.377 1_455 S
C933 C932 1.376 1_655 S
C933 C934 1.397 . S
C933 H956 0.929 1_655 S
C934 C933 1.397 . S
C934 C935 1.383 . S
C934 H957 0.931 . S
C935 C934 1.383 . S
C935 C936 1.394 . S
C936 C935 1.394 . S
C936 C937 1.378 . S
C936 H958 0.931 . S
C937 C932 1.377 1_655 S
C937 C936 1.378 . S
C937 H959 0.931 1_655 S
C938 O948 1.259 . S
C938 O949 1.270 . S
C939 O950 1.251 . S
C939 O951 1.251 . S
O940 C920 1.257 . S
O940 Eu921 2.473 . S
O941 C920 1.260 . S
O941 Eu921 2.480 . S
O942 Eu921 2.430 . S
O942 C928 1.259 . S
O943 Eu921 2.670 . S
O943 C928 1.270 . S
O943 Eu931 2.355 . S
O944 Eu921 2.394 . S
O944 C929 1.251 . S
O945 C929 1.251 . S
O945 Eu931 2.374 . S
O946 C930 1.257 . S
O946 Eu931 2.473 . S
O947 C930 1.260 . S
O947 Eu931 2.480 . S
O948 Eu931 2.430 . S
O948 C938 1.259 . S
O949 Eu921 2.355 . S
O949 Eu931 2.670 . S
O949 C938 1.270 . S
O950 Eu931 2.394 . S
O950 C939 1.251 . S
O951 Eu921 2.374 . S
O951 C939 1.251 . S
H952 C923 0.931 . S
H953 C924 0.931 . S
H954 C926 0.931 . S
H955 C927 0.931 . S
H956 C933 0.929 1_455 S
H957 C934 0.931 . S
H958 C936 0.931 . S
H959 C937 0.931 1_455 S
C960 Eu961 2.835 . S
C960 C962 1.500 . S
C960 O980 1.257 . S
C960 O981 1.260 . S
Eu961 C960 2.835 . S
Eu961 O980 2.473 . S
Eu961 O981 2.480 . S
Eu961 O982 2.430 . S
Eu961 O983 2.670 . S
Eu961 O984 2.394 . S
Eu961 O989 2.355 . S
Eu961 O991 2.374 . S
C962 C960 1.500 . S
C962 C963 1.377 . S
C962 C967 1.377 . S
C963 C962 1.377 . S
C963 C964 1.395 . S
C963 H992 0.931 . S
C964 C963 1.395 . S
C964 C965 1.383 . S
C964 H993 0.931 . S
C965 C964 1.383 . S
C965 C966 1.394 . S
C966 C965 1.394 . S
C966 C967 1.378 . S
C966 H994 0.931 . S
C967 C962 1.377 . S
C967 C966 1.378 . S
C967 H995 0.931 . S
C968 O982 1.259 . S
C968 O983 1.270 . S
C969 O984 1.251 . S
C969 O985 1.251 . S
C970 Eu971 2.835 . S
C970 C972 1.500 . S
C970 O986 1.257 . S
C970 O987 1.260 . S
Eu971 C970 2.835 . S
Eu971 O983 2.355 . S
Eu971 O985 2.374 . S
Eu971 O986 2.473 . S
Eu971 O987 2.480 . S
Eu971 O988 2.430 . S
Eu971 O989 2.670 . S
Eu971 O990 2.394 . S
C972 C970 1.500 . S
C972 C973 1.377 . S
C972 C977 1.377 . S
C973 C972 1.377 . S
C973 C974 1.395 1_565 S
C973 H996 0.931 . S
C974 C973 1.395 1_545 S
C974 C975 1.383 . S
C974 H997 0.931 . S
C975 C974 1.383 . S
C975 C976 1.394 . S
C976 C975 1.394 . S
C976 C977 1.378 1_545 S
C976 H998 0.931 . S
C977 C972 1.377 . S
C977 C976 1.378 1_565 S
C977 H999 0.931 . S
C978 O988 1.259 . S
C978 O989 1.270 . S
C979 O990 1.251 . S
C979 O991 1.251 . S
O980 C960 1.257 . S
O980 Eu961 2.473 . S
O981 C960 1.260 . S
O981 Eu961 2.480 . S
O982 Eu961 2.430 . S
O982 C968 1.259 . S
O983 Eu961 2.670 . S
O983 C968 1.270 . S
O983 Eu971 2.355 . S
O984 Eu961 2.394 . S
O984 C969 1.251 . S
O985 C969 1.251 . S
O985 Eu971 2.374 . S
O986 C970 1.257 . S
O986 Eu971 2.473 . S
O987 C970 1.260 . S
O987 Eu971 2.480 . S
O988 Eu971 2.430 . S
O988 C978 1.259 . S
O989 Eu961 2.355 . S
O989 Eu971 2.670 . S
O989 C978 1.270 . S
O990 Eu971 2.394 . S
O990 C979 1.251 . S
O991 Eu961 2.374 . S
O991 C979 1.251 . S
H992 C963 0.931 . S
H993 C964 0.931 . S
H994 C966 0.931 . S
H995 C967 0.931 . S
H996 C973 0.931 . S
H997 C974 0.931 . S
H998 C976 0.931 . S
H999 C977 0.931 . S
C1000 Eu1001 2.835 . S
C1000 C1002 1.500 . S
C1000 O1020 1.257 . S
C1000 O1021 1.260 . S
Eu1001 C1000 2.835 . S
Eu1001 O1020 2.473 . S
Eu1001 O1021 2.480 . S
Eu1001 O1022 2.430 . S
Eu1001 O1023 2.670 . S
Eu1001 O1024 2.394 . S
Eu1001 O1029 2.355 . S
Eu1001 O1031 2.374 . S
C1002 C1000 1.500 . S
C1002 C1003 1.377 . S
C1002 C1007 1.377 . S
C1003 C1002 1.377 . S
C1003 C1004 1.395 . S
C1003 H1032 0.931 . S
C1004 C1003 1.395 . S
C1004 C1005 1.383 . S
C1004 H1033 0.931 . S
C1005 C1004 1.383 . S
C1005 C1006 1.394 . S
C1006 C1005 1.394 . S
C1006 C1007 1.378 . S
C1006 H1034 0.931 . S
C1007 C1002 1.377 . S
C1007 C1006 1.378 . S
C1007 H1035 0.931 . S
C1008 O1022 1.259 . S
C1008 O1023 1.270 . S
C1009 O1024 1.251 . S
C1009 O1025 1.251 . S
C1010 Eu1011 2.835 . S
C1010 C1012 1.500 1_545 S
C1010 O1026 1.257 . S
C1010 O1027 1.260 . S
Eu1011 C1010 2.835 . S
Eu1011 O1023 2.355 . S
Eu1011 O1025 2.374 . S
Eu1011 O1026 2.473 . S
Eu1011 O1027 2.480 . S
Eu1011 O1028 2.430 . S
Eu1011 O1029 2.670 . S
Eu1011 O1030 2.394 . S
C1012 C1010 1.500 1_565 S
C1012 C1013 1.377 . S
C1012 C1017 1.377 . S
C1013 C1012 1.377 . S
C1013 C1014 1.395 . S
C1013 H1036 0.931 . S
C1014 C1013 1.395 . S
C1014 C1015 1.383 . S
C1014 H1037 0.931 . S
C1015 C1014 1.383 . S
C1015 C1016 1.394 . S
C1016 C1015 1.394 . S
C1016 C1017 1.378 . S
C1016 H1038 0.931 . S
C1017 C1012 1.377 . S
C1017 C1016 1.378 . S
C1017 H1039 0.931 . S
C1018 O1028 1.259 . S
C1018 O1029 1.270 . S
C1019 O1030 1.251 . S
C1019 O1031 1.251 . S
O1020 C1000 1.257 . S
O1020 Eu1001 2.473 . S
O1021 C1000 1.260 . S
O1021 Eu1001 2.480 . S
O1022 Eu1001 2.430 . S
O1022 C1008 1.259 . S
O1023 Eu1001 2.670 . S
O1023 C1008 1.270 . S
O1023 Eu1011 2.355 . S
O1024 Eu1001 2.394 . S
O1024 C1009 1.251 . S
O1025 C1009 1.251 . S
O1025 Eu1011 2.374 . S
O1026 C1010 1.257 . S
O1026 Eu1011 2.473 . S
O1027 C1010 1.260 . S
O1027 Eu1011 2.480 . S
O1028 Eu1011 2.430 . S
O1028 C1018 1.259 . S
O1029 Eu1001 2.355 . S
O1029 Eu1011 2.670 . S
O1029 C1018 1.270 . S
O1030 Eu1011 2.394 . S
O1030 C1019 1.251 . S
O1031 Eu1001 2.374 . S
O1031 C1019 1.251 . S
H1032 C1003 0.931 . S
H1033 C1004 0.931 . S
H1034 C1006 0.931 . S
H1035 C1007 0.931 . S
H1036 C1013 0.931 . S
H1037 C1014 0.931 . S
H1038 C1016 0.931 . S
H1039 C1017 0.931 . S
C1040 Eu1041 2.835 . S
C1040 C1042 1.500 . S
C1040 O1060 1.257 . S
C1040 O1061 1.260 . S
Eu1041 C1040 2.835 . S
Eu1041 O1060 2.473 . S
Eu1041 O1061 2.480 . S
Eu1041 O1062 2.430 . S
Eu1041 O1063 2.670 . S
Eu1041 O1064 2.394 . S
Eu1041 O1069 2.355 . S
Eu1041 O1071 2.374 . S
C1042 C1040 1.500 . S
C1042 C1043 1.377 . S
C1042 C1047 1.377 . S
C1043 C1042 1.377 . S
C1043 C1044 1.395 . S
C1043 H1072 0.931 . S
C1044 C1043 1.395 . S
C1044 C1045 1.383 . S
C1044 H1073 0.931 . S
C1045 C1044 1.383 . S
C1045 C1046 1.394 . S
C1046 C1045 1.394 . S
C1046 C1047 1.378 . S
C1046 H1074 0.931 . S
C1047 C1042 1.377 . S
C1047 C1046 1.378 . S
C1047 H1075 0.931 . S
C1048 O1062 1.259 . S
C1048 O1063 1.270 . S
C1049 O1064 1.251 . S
C1049 O1065 1.251 . S
C1050 Eu1051 2.835 1_455 S
C1050 C1052 1.500 . S
C1050 O1066 1.257 . S
C1050 O1067 1.260 . S
Eu1051 C1050 2.835 1_655 S
Eu1051 O1063 2.355 . S
Eu1051 O1065 2.374 . S
Eu1051 O1066 2.473 1_655 S
Eu1051 O1067 2.480 1_655 S
Eu1051 O1068 2.430 . S
Eu1051 O1069 2.670 . S
Eu1051 O1070 2.394 . S
C1052 C1050 1.500 . S
C1052 C1053 1.377 . S
C1052 C1057 1.377 . S
C1053 C1052 1.377 . S
C1053 C1054 1.395 . S
C1053 H1076 0.931 . S
C1054 C1053 1.395 . S
C1054 C1055 1.383 . S
C1054 H1077 0.931 . S
C1055 C1054 1.383 . S
C1055 C1056 1.394 . S
C1056 C1055 1.394 . S
C1056 C1057 1.378 . S
C1056 H1078 0.931 . S
C1057 C1052 1.377 . S
C1057 C1056 1.378 . S
C1057 H1079 0.931 . S
C1058 O1068 1.259 . S
C1058 O1069 1.270 . S
C1059 O1070 1.251 . S
C1059 O1071 1.251 . S
O1060 C1040 1.257 . S
O1060 Eu1041 2.473 . S
O1061 C1040 1.260 . S
O1061 Eu1041 2.480 . S
O1062 Eu1041 2.430 . S
O1062 C1048 1.259 . S
O1063 Eu1041 2.670 . S
O1063 C1048 1.270 . S
O1063 Eu1051 2.355 . S
O1064 Eu1041 2.394 . S
O1064 C1049 1.251 . S
O1065 C1049 1.251 . S
O1065 Eu1051 2.374 . S
O1066 C1050 1.257 . S
O1066 Eu1051 2.473 1_455 S
O1067 C1050 1.260 . S
O1067 Eu1051 2.480 1_455 S
O1068 Eu1051 2.430 . S
O1068 C1058 1.259 . S
O1069 Eu1041 2.355 . S
O1069 Eu1051 2.670 . S
O1069 C1058 1.270 . S
O1070 Eu1051 2.394 . S
O1070 C1059 1.251 . S
O1071 Eu1041 2.374 . S
O1071 C1059 1.251 . S
H1072 C1043 0.931 . S
H1073 C1044 0.931 . S
H1074 C1046 0.931 . S
H1075 C1047 0.931 . S
H1076 C1053 0.931 . S
H1077 C1054 0.931 . S
H1078 C1056 0.931 . S
H1079 C1057 0.931 . S
C1080 Eu1081 2.835 . S
C1080 C1082 1.500 . S
C1080 O1100 1.257 . S
C1080 O1101 1.260 . S
Eu1081 C1080 2.835 . S
Eu1081 O1100 2.473 . S
Eu1081 O1101 2.480 . S
Eu1081 O1102 2.430 . S
Eu1081 O1103 2.670 . S
Eu1081 O1104 2.394 . S
Eu1081 O1109 2.355 . S
Eu1081 O1111 2.374 . S
C1082 C1080 1.500 . S
C1082 C1083 1.377 . S
C1082 C1087 1.377 . S
C1083 C1082 1.377 . S
C1083 C1084 1.395 . S
C1083 H1112 0.931 . S
C1084 C1083 1.395 . S
C1084 C1085 1.383 . S
C1084 H1113 0.931 . S
C1085 C1084 1.383 . S
C1085 C1086 1.394 . S
C1086 C1085 1.394 . S
C1086 C1087 1.378 . S
C1086 H1114 0.931 . S
C1087 C1082 1.377 . S
C1087 C1086 1.378 . S
C1087 H1115 0.931 . S
C1088 O1102 1.259 . S
C1088 O1103 1.270 . S
C1089 O1104 1.251 . S
C1089 O1105 1.251 . S
C1090 Eu1091 2.835 . S
C1090 C1092 1.500 . S
C1090 O1106 1.257 . S
C1090 O1107 1.260 . S
Eu1091 C1090 2.835 . S
Eu1091 O1103 2.355 . S
Eu1091 O1105 2.374 . S
Eu1091 O1106 2.473 . S
Eu1091 O1107 2.480 . S
Eu1091 O1108 2.430 . S
Eu1091 O1109 2.670 . S
Eu1091 O1110 2.394 . S
C1092 C1090 1.500 . S
C1092 C1093 1.377 . S
C1092 C1097 1.377 . S
C1093 C1092 1.377 . S
C1093 C1094 1.395 . S
C1093 H1116 0.931 . S
C1094 C1093 1.395 . S
C1094 C1095 1.383 . S
C1094 H1117 0.931 . S
C1095 C1094 1.383 . S
C1095 C1096 1.394 . S
C1096 C1095 1.394 . S
C1096 C1097 1.378 . S
C1096 H1118 0.931 . S
C1097 C1092 1.377 . S
C1097 C1096 1.378 . S
C1097 H1119 0.931 . S
C1098 O1108 1.259 . S
C1098 O1109 1.270 . S
C1099 O1110 1.251 . S
C1099 O1111 1.251 . S
O1100 C1080 1.257 . S
O1100 Eu1081 2.473 . S
O1101 C1080 1.260 . S
O1101 Eu1081 2.480 . S
O1102 Eu1081 2.430 . S
O1102 C1088 1.259 . S
O1103 Eu1081 2.670 . S
O1103 C1088 1.270 . S
O1103 Eu1091 2.355 . S
O1104 Eu1081 2.394 . S
O1104 C1089 1.251 . S
O1105 C1089 1.251 . S
O1105 Eu1091 2.374 . S
O1106 C1090 1.257 . S
O1106 Eu1091 2.473 . S
O1107 C1090 1.260 . S
O1107 Eu1091 2.480 . S
O1108 Eu1091 2.430 . S
O1108 C1098 1.259 . S
O1109 Eu1081 2.355 . S
O1109 Eu1091 2.670 . S
O1109 C1098 1.270 . S
O1110 Eu1091 2.394 . S
O1110 C1099 1.251 . S
O1111 Eu1081 2.374 . S
O1111 C1099 1.251 . S
H1112 C1083 0.931 . S
H1113 C1084 0.931 . S
H1114 C1086 0.931 . S
H1115 C1087 0.931 . S
H1116 C1093 0.931 . S
H1117 C1094 0.931 . S
H1118 C1096 0.931 . S
H1119 C1097 0.931 . S
C1120 Eu1121 2.835 . S
C1120 C1122 1.500 . S
C1120 O1140 1.257 . S
C1120 O1141 1.260 . S
Eu1121 C1120 2.835 . S
Eu1121 O1140 2.473 . S
Eu1121 O1141 2.480 . S
Eu1121 O1142 2.430 . S
Eu1121 O1143 2.670 . S
Eu1121 O1144 2.394 . S
Eu1121 O1149 2.355 . S
Eu1121 O1151 2.374 . S
C1122 C1120 1.500 . S
C1122 C1123 1.374 1_545 S
C1122 C1127 1.377 1_545 S
C1123 C1122 1.374 1_565 S
C1123 C1124 1.401 . S
C1123 H1152 0.927 1_565 S
C1124 C1123 1.401 . S
C1124 C1125 1.383 . S
C1124 H1153 0.931 . S
C1125 C1124 1.383 . S
C1125 C1126 1.394 . S
C1126 C1125 1.394 . S
C1126 C1127 1.378 . S
C1126 H1154 0.931 . S
C1127 C1122 1.377 1_565 S
C1127 C1126 1.378 . S
C1127 H1155 0.931 1_565 S
C1128 O1142 1.259 . S
C1128 O1143 1.270 . S
C1129 O1144 1.251 1_455 S
C1129 O1145 1.251 . S
C1130 Eu1131 2.835 . S
C1130 C1132 1.500 . S
C1130 O1146 1.257 . S
C1130 O1147 1.260 . S
Eu1131 C1130 2.835 . S
Eu1131 O1143 2.355 . S
Eu1131 O1145 2.374 1_655 S
Eu1131 O1146 2.473 . S
Eu1131 O1147 2.480 . S
Eu1131 O1148 2.430 . S
Eu1131 O1149 2.670 . S
Eu1131 O1150 2.394 . S
C1132 C1130 1.500 . S
C1132 C1133 1.377 . S
C1132 C1137 1.377 . S
C1133 C1132 1.377 . S
C1133 C1134 1.395 . S
C1133 H1156 0.931 . S
C1134 C1133 1.395 . S
C1134 C1135 1.383 . S
C1134 H1157 0.931 . S
C1135 C1134 1.383 . S
C1135 C1136 1.394 . S
C1136 C1135 1.394 . S
C1136 C1137 1.378 . S
C1136 H1158 0.931 . S
C1137 C1132 1.377 . S
C1137 C1136 1.378 . S
C1137 H1159 0.931 . S
C1138 O1148 1.259 . S
C1138 O1149 1.270 . S
C1139 O1150 1.251 . S
C1139 O1151 1.251 . S
O1140 C1120 1.257 . S
O1140 Eu1121 2.473 . S
O1141 C1120 1.260 . S
O1141 Eu1121 2.480 . S
O1142 Eu1121 2.430 . S
O1142 C1128 1.259 . S
O1143 Eu1121 2.670 . S
O1143 C1128 1.270 . S
O1143 Eu1131 2.355 . S
O1144 Eu1121 2.394 . S
O1144 C1129 1.251 1_655 S
O1145 C1129 1.251 . S
O1145 Eu1131 2.374 1_455 S
O1146 C1130 1.257 . S
O1146 Eu1131 2.473 . S
O1147 C1130 1.260 . S
O1147 Eu1131 2.480 . S
O1148 Eu1131 2.430 . S
O1148 C1138 1.259 . S
O1149 Eu1121 2.355 . S
O1149 Eu1131 2.670 . S
O1149 C1138 1.270 . S
O1150 Eu1131 2.394 . S
O1150 C1139 1.251 . S
O1151 Eu1121 2.374 . S
O1151 C1139 1.251 . S
H1152 C1123 0.927 1_545 S
H1153 C1124 0.931 . S
H1154 C1126 0.931 . S
H1155 C1127 0.931 1_545 S
H1156 C1133 0.931 . S
H1157 C1134 0.931 . S
H1158 C1136 0.931 . S
H1159 C1137 0.931 . S
C1160 Eu1161 2.835 1_455 S
C1160 C1162 1.500 . S
C1160 O1180 1.257 . S
C1160 O1181 1.260 1_455 S
Eu1161 C1160 2.835 1_655 S
Eu1161 O1180 2.473 1_655 S
Eu1161 O1181 2.480 . S
Eu1161 O1182 2.430 . S
Eu1161 O1183 2.670 . S
Eu1161 O1184 2.394 . S
Eu1161 O1189 2.355 . S
Eu1161 O1191 2.374 . S
C1162 C1160 1.500 . S
C1162 C1163 1.377 . S
C1162 C1167 1.377 . S
C1163 C1162 1.377 . S
C1163 C1164 1.395 1_565 S
C1163 H1192 0.931 . S
C1164 C1163 1.395 1_545 S
C1164 C1165 1.383 . S
C1164 H1193 0.931 . S
C1165 C1164 1.383 . S
C1165 C1166 1.394 . S
C1166 C1165 1.394 . S
C1166 C1167 1.378 1_545 S
C1166 H1194 0.931 . S
C1167 C1162 1.377 . S
C1167 C1166 1.378 1_565 S
C1167 H1195 0.931 . S
C1168 O1182 1.259 . S
C1168 O1183 1.270 . S
C1169 O1184 1.251 . S
C1169 O1185 1.251 . S
C1170 Eu1171 2.835 . S
C1170 C1172 1.500 . S
C1170 O1186 1.257 . S
C1170 O1187 1.260 . S
Eu1171 C1170 2.835 . S
Eu1171 O1183 2.355 . S
Eu1171 O1185 2.374 . S
Eu1171 O1186 2.473 . S
Eu1171 O1187 2.480 . S
Eu1171 O1188 2.430 . S
Eu1171 O1189 2.670 . S
Eu1171 O1190 2.394 . S
C1172 C1170 1.500 . S
C1172 C1173 1.377 . S
C1172 C1177 1.377 . S
C1173 C1172 1.377 . S
C1173 C1174 1.395 . S
C1173 H1196 0.931 . S
C1174 C1173 1.395 . S
C1174 C1175 1.383 . S
C1174 H1197 0.931 . S
C1175 C1174 1.383 . S
C1175 C1176 1.394 . S
C1176 C1175 1.394 . S
C1176 C1177 1.378 . S
C1176 H1198 0.931 . S
C1177 C1172 1.377 . S
C1177 C1176 1.378 . S
C1177 H1199 0.931 . S
C1178 O1188 1.259 . S
C1178 O1189 1.270 . S
C1179 O1190 1.251 . S
C1179 O1191 1.251 . S
O1180 C1160 1.257 . S
O1180 Eu1161 2.473 1_455 S
O1181 C1160 1.260 1_655 S
O1181 Eu1161 2.480 . S
O1182 Eu1161 2.430 . S
O1182 C1168 1.259 . S
O1183 Eu1161 2.670 . S
O1183 C1168 1.270 . S
O1183 Eu1171 2.355 . S
O1184 Eu1161 2.394 . S
O1184 C1169 1.251 . S
O1185 C1169 1.251 . S
O1185 Eu1171 2.374 . S
O1186 C1170 1.257 . S
O1186 Eu1171 2.473 . S
O1187 C1170 1.260 . S
O1187 Eu1171 2.480 . S
O1188 Eu1171 2.430 . S
O1188 C1178 1.259 . S
O1189 Eu1161 2.355 . S
O1189 Eu1171 2.670 . S
O1189 C1178 1.270 . S
O1190 Eu1171 2.394 . S
O1190 C1179 1.251 . S
O1191 Eu1161 2.374 . S
O1191 C1179 1.251 . S
H1192 C1163 0.931 . S
H1193 C1164 0.931 . S
H1194 C1166 0.931 . S
H1195 C1167 0.931 . S
H1196 C1173 0.931 . S
H1197 C1174 0.931 . S
H1198 C1176 0.931 . S
H1199 C1177 0.931 . S
C1200 Eu1201 2.835 . S
C1200 C1202 1.500 . S
C1200 O1220 1.257 . S
C1200 O1221 1.260 . S
Eu1201 C1200 2.835 . S
Eu1201 O1220 2.473 . S
Eu1201 O1221 2.480 . S
Eu1201 O1222 2.430 . S
Eu1201 O1223 2.670 . S
Eu1201 O1224 2.394 . S
Eu1201 O1229 2.355 . S
Eu1201 O1231 2.374 1_655 S
C1202 C1200 1.500 . S
C1202 C1203 1.377 . S
C1202 C1207 1.377 . S
C1203 C1202 1.377 . S
C1203 C1204 1.395 . S
C1203 H1232 0.931 . S
C1204 C1203 1.395 . S
C1204 C1205 1.383 . S
C1204 H1233 0.931 . S
C1205 C1204 1.383 . S
C1205 C1206 1.394 . S
C1206 C1205 1.394 . S
C1206 C1207 1.378 . S
C1206 H1234 0.931 . S
C1207 C1202 1.377 . S
C1207 C1206 1.378 . S
C1207 H1235 0.931 . S
C1208 O1222 1.259 . S
C1208 O1223 1.270 . S
C1209 O1224 1.251 . S
C1209 O1225 1.251 . S
C1210 Eu1211 2.835 . S
C1210 C1212 1.500 . S
C1210 O1226 1.257 . S
C1210 O1227 1.260 . S
Eu1211 C1210 2.835 . S
Eu1211 O1223 2.355 . S
Eu1211 O1225 2.374 . S
Eu1211 O1226 2.473 . S
Eu1211 O1227 2.480 . S
Eu1211 O1228 2.430 . S
Eu1211 O1229 2.670 . S
Eu1211 O1230 2.394 . S
C1212 C1210 1.500 . S
C1212 C1213 1.377 . S
C1212 C1217 1.377 . S
C1213 C1212 1.377 . S
C1213 C1214 1.395 1_565 S
C1213 H1236 0.931 . S
C1214 C1213 1.395 1_545 S
C1214 C1215 1.383 . S
C1214 H1237 0.931 . S
C1215 C1214 1.383 . S
C1215 C1216 1.394 . S
C1216 C1215 1.394 . S
C1216 C1217 1.378 1_545 S
C1216 H1238 0.931 . S
C1217 C1212 1.377 . S
C1217 C1216 1.378 1_565 S
C1217 H1239 0.931 . S
C1218 O1228 1.259 . S
C1218 O1229 1.270 . S
C1219 O1230 1.251 1_455 S
C1219 O1231 1.251 . S
O1220 C1200 1.257 . S
O1220 Eu1201 2.473 . S
O1221 C1200 1.260 . S
O1221 Eu1201 2.480 . S
O1222 Eu1201 2.430 . S
O1222 C1208 1.259 . S
O1223 Eu1201 2.670 . S
O1223 C1208 1.270 . S
O1223 Eu1211 2.355 . S
O1224 Eu1201 2.394 . S
O1224 C1209 1.251 . S
O1225 C1209 1.251 . S
O1225 Eu1211 2.374 . S
O1226 C1210 1.257 . S
O1226 Eu1211 2.473 . S
O1227 C1210 1.260 . S
O1227 Eu1211 2.480 . S
O1228 Eu1211 2.430 . S
O1228 C1218 1.259 . S
O1229 Eu1201 2.355 . S
O1229 Eu1211 2.670 . S
O1229 C1218 1.270 . S
O1230 Eu1211 2.394 . S
O1230 C1219 1.251 1_655 S
O1231 Eu1201 2.374 1_455 S
O1231 C1219 1.251 . S
H1232 C1203 0.931 . S
H1233 C1204 0.931 . S
H1234 C1206 0.931 . S
H1235 C1207 0.931 . S
H1236 C1213 0.931 . S
H1237 C1214 0.931 . S
H1238 C1216 0.931 . S
H1239 C1217 0.931 . S
C1240 Eu1241 2.835 . S
C1240 C1242 1.500 . S
C1240 O1260 1.257 . S
C1240 O1261 1.260 . S
Eu1241 C1240 2.835 . S
Eu1241 O1260 2.473 . S
Eu1241 O1261 2.480 . S
Eu1241 O1262 2.430 . S
Eu1241 O1263 2.670 . S
Eu1241 O1264 2.394 . S
Eu1241 O1269 2.355 . S
Eu1241 O1271 2.374 . S
C1242 C1240 1.500 . S
C1242 C1243 1.377 . S
C1242 C1247 1.377 . S
C1243 C1242 1.377 . S
C1243 C1244 1.395 . S
C1243 H1272 0.931 . S
C1244 C1243 1.395 . S
C1244 C1245 1.383 . S
C1244 H1273 0.931 . S
C1245 C1244 1.383 . S
C1245 C1246 1.394 . S
C1246 C1245 1.394 . S
C1246 C1247 1.378 . S
C1246 H1274 0.931 . S
C1247 C1242 1.377 . S
C1247 C1246 1.378 . S
C1247 H1275 0.931 . S
C1248 O1262 1.259 . S
C1248 O1263 1.270 . S
C1249 O1264 1.251 . S
C1249 O1265 1.251 . S
C1250 Eu1251 2.835 . S
C1250 C1252 1.500 . S
C1250 O1266 1.257 . S
C1250 O1267 1.260 . S
Eu1251 C1250 2.835 . S
Eu1251 O1263 2.355 . S
Eu1251 O1265 2.374 . S
Eu1251 O1266 2.473 . S
Eu1251 O1267 2.480 . S
Eu1251 O1268 2.430 . S
Eu1251 O1269 2.670 . S
Eu1251 O1270 2.394 . S
C1252 C1250 1.500 . S
C1252 C1253 1.376 1_545 S
C1252 C1257 1.377 1_545 S
C1253 C1252 1.376 1_565 S
C1253 C1254 1.397 . S
C1253 H1276 0.929 1_565 S
C1254 C1253 1.397 . S
C1254 C1255 1.383 . S
C1254 H1277 0.931 . S
C1255 C1254 1.383 . S
C1255 C1256 1.394 . S
C1256 C1255 1.394 . S
C1256 C1257 1.378 . S
C1256 H1278 0.931 . S
C1257 C1252 1.377 1_565 S
C1257 C1256 1.378 . S
C1257 H1279 0.931 1_565 S
C1258 O1268 1.259 . S
C1258 O1269 1.270 . S
C1259 O1270 1.251 . S
C1259 O1271 1.251 . S
O1260 C1240 1.257 . S
O1260 Eu1241 2.473 . S
O1261 C1240 1.260 . S
O1261 Eu1241 2.480 . S
O1262 Eu1241 2.430 . S
O1262 C1248 1.259 . S
O1263 Eu1241 2.670 . S
O1263 C1248 1.270 . S
O1263 Eu1251 2.355 . S
O1264 Eu1241 2.394 . S
O1264 C1249 1.251 . S
O1265 C1249 1.251 . S
O1265 Eu1251 2.374 . S
O1266 C1250 1.257 . S
O1266 Eu1251 2.473 . S
O1267 C1250 1.260 . S
O1267 Eu1251 2.480 . S
O1268 Eu1251 2.430 . S
O1268 C1258 1.259 . S
O1269 Eu1241 2.355 . S
O1269 Eu1251 2.670 . S
O1269 C1258 1.270 . S
O1270 Eu1251 2.394 . S
O1270 C1259 1.251 . S
O1271 Eu1241 2.374 . S
O1271 C1259 1.251 . S
H1272 C1243 0.931 . S
H1273 C1244 0.931 . S
H1274 C1246 0.931 . S
H1275 C1247 0.931 . S
H1276 C1253 0.929 1_545 S
H1277 C1254 0.931 . S
H1278 C1256 0.931 . S
H1279 C1257 0.931 1_545 S
C1280 Eu1281 2.835 . S
C1280 C1282 1.500 . S
C1280 O1300 1.257 . S
C1280 O1301 1.260 . S
Eu1281 C1280 2.835 . S
Eu1281 O1300 2.473 . S
Eu1281 O1301 2.480 . S
Eu1281 O1302 2.430 . S
Eu1281 O1303 2.670 . S
Eu1281 O1304 2.394 . S
Eu1281 O1309 2.355 . S
Eu1281 O1311 2.374 . S
C1282 C1280 1.500 . S
C1282 C1283 1.377 . S
C1282 C1287 1.377 . S
C1283 C1282 1.377 . S
C1283 C1284 1.395 . S
C1283 H1312 0.931 . S
C1284 C1283 1.395 . S
C1284 C1285 1.383 . S
C1284 H1313 0.931 . S
C1285 C1284 1.383 . S
C1285 C1286 1.394 . S
C1286 C1285 1.394 . S
C1286 C1287 1.378 . S
C1286 H1314 0.931 . S
C1287 C1282 1.377 . S
C1287 C1286 1.378 . S
C1287 H1315 0.931 . S
C1288 O1302 1.259 . S
C1288 O1303 1.270 . S
C1289 O1304 1.251 . S
C1289 O1305 1.251 . S
C1290 Eu1291 2.835 1_455 S
C1290 C1292 1.500 . S
C1290 O1306 1.257 . S
C1290 O1307 1.260 1_455 S
Eu1291 C1290 2.835 1_655 S
Eu1291 O1303 2.355 . S
Eu1291 O1305 2.374 . S
Eu1291 O1306 2.473 1_655 S
Eu1291 O1307 2.480 . S
Eu1291 O1308 2.430 . S
Eu1291 O1309 2.670 . S
Eu1291 O1310 2.394 . S
C1292 C1290 1.500 . S
C1292 C1293 1.377 . S
C1292 C1297 1.377 . S
C1293 C1292 1.377 . S
C1293 C1294 1.395 . S
C1293 H1316 0.931 . S
C1294 C1293 1.395 . S
C1294 C1295 1.383 . S
C1294 H1317 0.931 . S
C1295 C1294 1.383 . S
C1295 C1296 1.394 . S
C1296 C1295 1.394 . S
C1296 C1297 1.378 . S
C1296 H1318 0.931 . S
C1297 C1292 1.377 . S
C1297 C1296 1.378 . S
C1297 H1319 0.931 . S
C1298 O1308 1.259 . S
C1298 O1309 1.270 . S
C1299 O1310 1.251 . S
C1299 O1311 1.251 . S
O1300 C1280 1.257 . S
O1300 Eu1281 2.473 . S
O1301 C1280 1.260 . S
O1301 Eu1281 2.480 . S
O1302 Eu1281 2.430 . S
O1302 C1288 1.259 . S
O1303 Eu1281 2.670 . S
O1303 C1288 1.270 . S
O1303 Eu1291 2.355 . S
O1304 Eu1281 2.394 . S
O1304 C1289 1.251 . S
O1305 C1289 1.251 . S
O1305 Eu1291 2.374 . S
O1306 C1290 1.257 . S
O1306 Eu1291 2.473 1_455 S
O1307 C1290 1.260 1_655 S
O1307 Eu1291 2.480 . S
O1308 Eu1291 2.430 . S
O1308 C1298 1.259 . S
O1309 Eu1281 2.355 . S
O1309 Eu1291 2.670 . S
O1309 C1298 1.270 . S
O1310 Eu1291 2.394 . S
O1310 C1299 1.251 . S
O1311 Eu1281 2.374 . S
O1311 C1299 1.251 . S
H1312 C1283 0.931 . S
H1313 C1284 0.931 . S
H1314 C1286 0.931 . S
H1315 C1287 0.931 . S
H1316 C1293 0.931 . S
H1317 C1294 0.931 . S
H1318 C1296 0.931 . S
H1319 C1297 0.931 . S
C1320 Eu1321 2.835 . S
C1320 C1322 1.500 . S
C1320 O1340 1.257 . S
C1320 O1341 1.260 . S
Eu1321 C1320 2.835 . S
Eu1321 O1340 2.473 . S
Eu1321 O1341 2.480 . S
Eu1321 O1342 2.430 . S
Eu1321 O1343 2.670 . S
Eu1321 O1344 2.394 . S
Eu1321 O1349 2.355 . S
Eu1321 O1351 2.374 . S
C1322 C1320 1.500 . S
C1322 C1323 1.377 . S
C1322 C1327 1.377 . S
C1323 C1322 1.377 . S
C1323 C1324 1.395 . S
C1323 H1352 0.931 . S
C1324 C1323 1.395 . S
C1324 C1325 1.383 . S
C1324 H1353 0.931 . S
C1325 C1324 1.383 . S
C1325 C1326 1.394 . S
C1326 C1325 1.394 . S
C1326 C1327 1.378 . S
C1326 H1354 0.931 . S
C1327 C1322 1.377 . S
C1327 C1326 1.378 . S
C1327 H1355 0.931 . S
C1328 O1342 1.259 . S
C1328 O1343 1.270 . S
C1329 O1344 1.251 . S
C1329 O1345 1.251 . S
C1330 Eu1331 2.835 . S
C1330 C1332 1.500 . S
C1330 O1346 1.257 . S
C1330 O1347 1.260 . S
Eu1331 C1330 2.835 . S
Eu1331 O1343 2.355 . S
Eu1331 O1345 2.374 . S
Eu1331 O1346 2.473 . S
Eu1331 O1347 2.480 . S
Eu1331 O1348 2.430 . S
Eu1331 O1349 2.670 . S
Eu1331 O1350 2.394 . S
C1332 C1330 1.500 . S
C1332 C1333 1.377 . S
C1332 C1337 1.377 . S
C1333 C1332 1.377 . S
C1333 C1334 1.395 . S
C1333 H1356 0.931 . S
C1334 C1333 1.395 . S
C1334 C1335 1.383 . S
C1334 H1357 0.931 . S
C1335 C1334 1.383 . S
C1335 C1336 1.394 . S
C1336 C1335 1.394 . S
C1336 C1337 1.378 . S
C1336 H1358 0.931 . S
C1337 C1332 1.377 . S
C1337 C1336 1.378 . S
C1337 H1359 0.931 . S
C1338 O1348 1.259 . S
C1338 O1349 1.270 . S
C1339 O1350 1.251 . S
C1339 O1351 1.251 . S
O1340 C1320 1.257 . S
O1340 Eu1321 2.473 . S
O1341 C1320 1.260 . S
O1341 Eu1321 2.480 . S
O1342 Eu1321 2.430 . S
O1342 C1328 1.259 . S
O1343 Eu1321 2.670 . S
O1343 C1328 1.270 . S
O1343 Eu1331 2.355 . S
O1344 Eu1321 2.394 . S
O1344 C1329 1.251 . S
O1345 C1329 1.251 . S
O1345 Eu1331 2.374 . S
O1346 C1330 1.257 . S
O1346 Eu1331 2.473 . S
O1347 C1330 1.260 . S
O1347 Eu1331 2.480 . S
O1348 Eu1331 2.430 . S
O1348 C1338 1.259 . S
O1349 Eu1321 2.355 . S
O1349 Eu1331 2.670 . S
O1349 C1338 1.270 . S
O1350 Eu1331 2.394 . S
O1350 C1339 1.251 . S
O1351 Eu1321 2.374 . S
O1351 C1339 1.251 . S
H1352 C1323 0.931 . S
H1353 C1324 0.931 . S
H1354 C1326 0.931 . S
H1355 C1327 0.931 . S
H1356 C1333 0.931 . S
H1357 C1334 0.931 . S
H1358 C1336 0.931 . S
H1359 C1337 0.931 . S
C1360 Eu1361 2.835 . S
C1360 C1362 1.500 1_545 S
C1360 O1380 1.257 . S
C1360 O1381 1.260 . S
Eu1361 C1360 2.835 . S
Eu1361 O1380 2.473 . S
Eu1361 O1381 2.480 . S
Eu1361 O1382 2.430 . S
Eu1361 O1383 2.670 . S
Eu1361 O1384 2.394 . S
Eu1361 O1389 2.355 . S
Eu1361 O1391 2.374 . S
C1362 C1360 1.500 1_565 S
C1362 C1363 1.377 . S
C1362 C1367 1.377 . S
C1363 C1362 1.377 . S
C1363 C1364 1.395 . S
C1363 H1392 0.931 . S
C1364 C1363 1.395 . S
C1364 C1365 1.383 . S
C1364 H1393 0.931 . S
C1365 C1364 1.383 . S
C1365 C1366 1.394 . S
C1366 C1365 1.394 . S
C1366 C1367 1.378 . S
C1366 H1394 0.931 . S
C1367 C1362 1.377 . S
C1367 C1366 1.378 . S
C1367 H1395 0.931 . S
C1368 O1382 1.259 . S
C1368 O1383 1.270 . S
C1369 O1384 1.251 . S
C1369 O1385 1.251 . S
C1370 Eu1371 2.835 . S
C1370 C1372 1.500 . S
C1370 O1386 1.257 . S
C1370 O1387 1.260 . S
Eu1371 C1370 2.835 . S
Eu1371 O1383 2.355 . S
Eu1371 O1385 2.374 . S
Eu1371 O1386 2.473 . S
Eu1371 O1387 2.480 . S
Eu1371 O1388 2.430 . S
Eu1371 O1389 2.670 . S
Eu1371 O1390 2.394 . S
C1372 C1370 1.500 . S
C1372 C1373 1.377 . S
C1372 C1377 1.377 . S
C1373 C1372 1.377 . S
C1373 C1374 1.395 . S
C1373 H1396 0.931 . S
C1374 C1373 1.395 . S
C1374 C1375 1.383 . S
C1374 H1397 0.931 . S
C1375 C1374 1.383 . S
C1375 C1376 1.394 . S
C1376 C1375 1.394 . S
C1376 C1377 1.378 . S
C1376 H1398 0.931 . S
C1377 C1372 1.377 . S
C1377 C1376 1.378 . S
C1377 H1399 0.931 . S
C1378 O1388 1.259 . S
C1378 O1389 1.270 . S
C1379 O1390 1.251 . S
C1379 O1391 1.251 . S
O1380 C1360 1.257 . S
O1380 Eu1361 2.473 . S
O1381 C1360 1.260 . S
O1381 Eu1361 2.480 . S
O1382 Eu1361 2.430 . S
O1382 C1368 1.259 . S
O1383 Eu1361 2.670 . S
O1383 C1368 1.270 . S
O1383 Eu1371 2.355 . S
O1384 Eu1361 2.394 . S
O1384 C1369 1.251 . S
O1385 C1369 1.251 . S
O1385 Eu1371 2.374 . S
O1386 C1370 1.257 . S
O1386 Eu1371 2.473 . S
O1387 C1370 1.260 . S
O1387 Eu1371 2.480 . S
O1388 Eu1371 2.430 . S
O1388 C1378 1.259 . S
O1389 Eu1361 2.355 . S
O1389 Eu1371 2.670 . S
O1389 C1378 1.270 . S
O1390 Eu1371 2.394 . S
O1390 C1379 1.251 . S
O1391 Eu1361 2.374 . S
O1391 C1379 1.251 . S
H1392 C1363 0.931 . S
H1393 C1364 0.931 . S
H1394 C1366 0.931 . S
H1395 C1367 0.931 . S
H1396 C1373 0.931 . S
H1397 C1374 0.931 . S
H1398 C1376 0.931 . S
H1399 C1377 0.931 . S
C1400 Eu1401 2.835 1_455 S
C1400 C1402 1.500 . S
C1400 O1420 1.257 . S
C1400 O1421 1.260 . S
Eu1401 C1400 2.835 1_655 S
Eu1401 O1420 2.473 1_655 S
Eu1401 O1421 2.480 1_655 S
Eu1401 O1422 2.430 . S
Eu1401 O1423 2.670 . S
Eu1401 O1424 2.394 . S
Eu1401 O1429 2.355 . S
Eu1401 O1431 2.374 . S
C1402 C1400 1.500 . S
C1402 C1403 1.377 . S
C1402 C1407 1.377 . S
C1403 C1402 1.377 . S
C1403 C1404 1.395 1_565 S
C1403 H1432 0.931 . S
C1404 C1403 1.395 1_545 S
C1404 C1405 1.383 . S
C1404 H1433 0.931 . S
C1405 C1404 1.383 . S
C1405 C1406 1.394 . S
C1406 C1405 1.394 . S
C1406 C1407 1.378 1_545 S
C1406 H1434 0.931 . S
C1407 C1402 1.377 . S
C1407 C1406 1.378 1_565 S
C1407 H1435 0.931 . S
C1408 O1422 1.259 . S
C1408 O1423 1.270 . S
C1409 O1424 1.251 . S
C1409 O1425 1.251 . S
C1410 Eu1411 2.835 . S
C1410 C1412 1.500 . S
C1410 O1426 1.257 . S
C1410 O1427 1.260 . S
Eu1411 C1410 2.835 . S
Eu1411 O1423 2.355 . S
Eu1411 O1425 2.374 . S
Eu1411 O1426 2.473 . S
Eu1411 O1427 2.480 . S
Eu1411 O1428 2.430 . S
Eu1411 O1429 2.670 . S
Eu1411 O1430 2.394 . S
C1412 C1410 1.500 . S
C1412 C1413 1.377 . S
C1412 C1417 1.377 . S
C1413 C1412 1.377 . S
C1413 C1414 1.395 . S
C1413 H1436 0.931 . S
C1414 C1413 1.395 . S
C1414 C1415 1.383 . S
C1414 H1437 0.931 . S
C1415 C1414 1.383 . S
C1415 C1416 1.394 . S
C1416 C1415 1.394 . S
C1416 C1417 1.378 . S
C1416 H1438 0.931 . S
C1417 C1412 1.377 . S
C1417 C1416 1.378 . S
C1417 H1439 0.931 . S
C1418 O1428 1.259 . S
C1418 O1429 1.270 . S
C1419 O1430 1.251 . S
C1419 O1431 1.251 . S
O1420 C1400 1.257 . S
O1420 Eu1401 2.473 1_455 S
O1421 C1400 1.260 . S
O1421 Eu1401 2.480 1_455 S
O1422 Eu1401 2.430 . S
O1422 C1408 1.259 . S
O1423 Eu1401 2.670 . S
O1423 C1408 1.270 . S
O1423 Eu1411 2.355 . S
O1424 Eu1401 2.394 . S
O1424 C1409 1.251 . S
O1425 C1409 1.251 . S
O1425 Eu1411 2.374 . S
O1426 C1410 1.257 . S
O1426 Eu1411 2.473 . S
O1427 C1410 1.260 . S
O1427 Eu1411 2.480 . S
O1428 Eu1411 2.430 . S
O1428 C1418 1.259 . S
O1429 Eu1401 2.355 . S
O1429 Eu1411 2.670 . S
O1429 C1418 1.270 . S
O1430 Eu1411 2.394 . S
O1430 C1419 1.251 . S
O1431 Eu1401 2.374 . S
O1431 C1419 1.251 . S
H1432 C1403 0.931 . S
H1433 C1404 0.931 . S
H1434 C1406 0.931 . S
H1435 C1407 0.931 . S
H1436 C1413 0.931 . S
H1437 C1414 0.931 . S
H1438 C1416 0.931 . S
H1439 C1417 0.931 . S
C1088 C8 4.642 . S
C1128 C48 4.642 1_655 S
C88 C1168 4.641 . S
C128 C488 4.642 . S
C168 C528 4.641 . S
C568 C208 4.642 1_565 S
C258 C858 4.642 1_545 S
C898 C298 4.642 . S
C338 C938 4.641 . S
C1218 C378 4.642 1_655 S
C418 C1258 4.641 . S
C1298 C458 4.642 . S
C968 C608 4.642 . S
C648 C1008 4.642 1_565 S
C1048 C688 4.642 1_655 S
C738 C1338 4.642 . S
C778 C1378 4.641 1_565 S
C1418 C818 4.641 1_655 S
C18 C248 1.539 1_554 S
C288 C58 1.540 1_556 S
C98 C328 1.539 1_554 S
C368 C138 1.539 . S
C178 C408 1.539 . S
C448 C218 1.540 . S
C728 C498 1.539 . S
C538 C768 1.539 . S
C808 C578 1.539 . S
C618 C848 1.540 . S
C888 C658 1.539 . S
C698 C928 1.540 . S
C978 C1208 1.540 . S
C1248 C1018 1.540 . S
C1288 C1058 1.539 . S
C1328 C1098 1.539 . S
C1138 C1368 1.539 . S
C1178 C1408 1.539 . S
C5 C89 2.923 . S
C45 C9 2.923 . S
C49 C85 2.922 . S
C125 C169 2.923 . S
C209 C165 2.922 . S
C129 C205 2.923 . S
C339 C255 2.923 . S
C295 C259 2.923 . S
C335 C299 2.922 . S
C419 C375 2.923 . S
C415 C459 2.922 . S
C455 C379 2.923 . S
C569 C485 2.923 . S
C489 C525 2.922 . S
C529 C565 2.922 . S
C649 C605 2.923 . S
C645 C689 2.922 . S
C609 C685 2.922 . S
C735 C819 2.923 . S
C739 C775 2.922 . S
C815 C779 2.922 . S
C899 C855 2.923 . S
C939 C895 2.923 . S
C859 C935 2.922 . S
C1049 C965 2.923 . S
C1005 C969 2.922 . S
C1009 C1045 2.922 . S
C1085 C1129 2.923 . S
C1125 C1169 2.922 . S
C1089 C1165 2.922 . S
C1215 C1299 2.923 . S
C1255 C1219 2.922 . S
C1259 C1295 2.923 . S
C1335 C1379 2.923 . S
C1419 C1375 2.922 . S
C1339 C1415 2.922 . S
C99 C15 2.033 . S
C55 C19 2.033 . S
C59 C95 2.033 . S
C179 C135 2.033 . S
C175 C219 2.033 . S
C215 C139 2.033 . S
C329 C245 2.033 . S
C285 C249 2.033 . S
C289 C325 2.033 . S
C409 C365 2.033 . S
C449 C405 2.033 . S
C369 C445 2.033 . S
C495 C579 2.034 . S
C535 C499 2.033 . S
C575 C539 2.033 . S
C659 C615 2.033 . S
C655 C699 2.033 . S
C695 C619 2.033 1_545 S
C809 C725 2.034 1_565 S
C729 C765 2.033 . S
C805 C769 2.033 . S
C889 C845 2.033 . S
C885 C929 2.033 . S
C925 C849 2.033 . S
C975 C1059 2.033 . S
C979 C1015 2.033 1_655 S
C1019 C1055 2.033 . S
C1139 C1095 2.034 . S
C1135 C1179 2.033 . S
C1175 C1099 2.033 . S
C1289 C1205 2.033 . S
C1209 C1245 2.033 . S
C1285 C1249 2.033 . S
C1369 C1325 2.034 1_655 S
C1365 C1409 2.033 . S
C1405 C1329 2.033 . S
