# Generated by pormake.
# Topology uof, (4)-cn, num edge types: 1
# Building blocks:
#     Node 0, Type 0, BuildingBlock: GALJAG_clean_sbu_0, # of connection points: 4
#     Node 1, Type 0, BuildingBlock: GALJAG_clean_sbu_0, # of connection points: 4
#     Node 2, Type 0, BuildingBlock: GALJAG_clean_sbu_0, # of connection points: 4
#     Node 3, Type 0, BuildingBlock: GALJAG_clean_sbu_0, # of connection points: 4
#     Node 4, Type 0, BuildingBlock: GALJAG_clean_sbu_0, # of connection points: 4
#     Node 5, Type 0, BuildingBlock: GALJAG_clean_sbu_0, # of connection points: 4
#     Node 6, Type 0, BuildingBlock: GALJAG_clean_sbu_0, # of connection points: 4
#     Node 7, Type 0, BuildingBlock: GALJAG_clean_sbu_0, # of connection points: 4
#     Node 8, Type 0, BuildingBlock: GALJAG_clean_sbu_0, # of connection points: 4
#     Node 9, Type 0, BuildingBlock: GALJAG_clean_sbu_0, # of connection points: 4
#     Node 10, Type 0, BuildingBlock: GALJAG_clean_sbu_0, # of connection points: 4
#     Node 11, Type 0, BuildingBlock: GALJAG_clean_sbu_0, # of connection points: 4
#     Edge 12, Type (0, 0), BuildingBlock: ZUJKAS_clean_linker_0, # of connection points: 2
#     Edge 13, Type (0, 0), BuildingBlock: ZUJKAS_clean_linker_0, # of connection points: 2
#     Edge 14, Type (0, 0), BuildingBlock: ZUJKAS_clean_linker_0, # of connection points: 2
#     Edge 15, Type (0, 0), BuildingBlock: ZUJKAS_clean_linker_0, # of connection points: 2
#     Edge 16, Type (0, 0), BuildingBlock: ZUJKAS_clean_linker_0, # of connection points: 2
#     Edge 17, Type (0, 0), BuildingBlock: ZUJKAS_clean_linker_0, # of connection points: 2
#     Edge 18, Type (0, 0), BuildingBlock: ZUJKAS_clean_linker_0, # of connection points: 2
#     Edge 19, Type (0, 0), BuildingBlock: ZUJKAS_clean_linker_0, # of connection points: 2
#     Edge 20, Type (0, 0), BuildingBlock: ZUJKAS_clean_linker_0, # of connection points: 2
#     Edge 21, Type (0, 0), BuildingBlock: ZUJKAS_clean_linker_0, # of connection points: 2
#     Edge 22, Type (0, 0), BuildingBlock: ZUJKAS_clean_linker_0, # of connection points: 2
#     Edge 23, Type (0, 0), BuildingBlock: ZUJKAS_clean_linker_0, # of connection points: 2
#     Edge 24, Type (0, 0), BuildingBlock: ZUJKAS_clean_linker_0, # of connection points: 2
#     Edge 25, Type (0, 0), BuildingBlock: ZUJKAS_clean_linker_0, # of connection points: 2
#     Edge 26, Type (0, 0), BuildingBlock: ZUJKAS_clean_linker_0, # of connection points: 2
#     Edge 27, Type (0, 0), BuildingBlock: ZUJKAS_clean_linker_0, # of connection points: 2
#     Edge 28, Type (0, 0), BuildingBlock: ZUJKAS_clean_linker_0, # of connection points: 2
#     Edge 29, Type (0, 0), BuildingBlock: ZUJKAS_clean_linker_0, # of connection points: 2
#     Edge 30, Type (0, 0), BuildingBlock: ZUJKAS_clean_linker_0, # of connection points: 2
#     Edge 31, Type (0, 0), BuildingBlock: ZUJKAS_clean_linker_0, # of connection points: 2
#     Edge 32, Type (0, 0), BuildingBlock: ZUJKAS_clean_linker_0, # of connection points: 2
#     Edge 33, Type (0, 0), BuildingBlock: ZUJKAS_clean_linker_0, # of connection points: 2
#     Edge 34, Type (0, 0), BuildingBlock: ZUJKAS_clean_linker_0, # of connection points: 2
#     Edge 35, Type (0, 0), BuildingBlock: ZUJKAS_clean_linker_0, # of connection points: 2
# Relax obj value: 0.137
# Max RMSD: 0.110
# Mean RMSD: 0.110
data_MOF--net-uof--node1-GALJAG_clean_sbu_0--edge1-ZUJKAS_clean_linker_0
_symmetry_space_group_name_H-M    P1
_symmetry_Int_Tables_number       1
_symmetry_cell_setting            triclinic
loop_
_symmetry_equiv_pos_as_xyz
'x, y, z'
_cell_length_a     40.482335
_cell_length_b     40.53654
_cell_length_c     88.349779
_cell_angle_alpha  89.94811
_cell_angle_beta   89.993364
_cell_angle_gamma 119.98209
loop_
_atom_site_label
_atom_site_type_symbol
_atom_site_fract_x
_atom_site_fract_y
_atom_site_fract_z
_atom_type_partial_charge
In0 In 0.23263 0.32266 0.23019 0.0
O1 O 0.28997 0.35575 0.2185 0.0
O2 O 0.27767 0.38541 0.23529 0.0
C3 C 0.16622 0.31599 0.21949 0.0
C4 C 0.23922 0.3088 0.25971 0.0
C5 C 0.23047 0.26569 0.21403 0.0
O6 O 0.1982 0.34545 0.21722 0.0
O7 O 0.1677 0.292 0.22809 0.0
O8 O 0.22207 0.26248 0.2279 0.0
O9 O 0.23983 0.29768 0.20827 0.0
C10 C 0.30185 0.38585 0.22609 0.0
O11 O 0.25542 0.3019 0.24901 0.0
O12 O 0.21912 0.32318 0.25564 0.0
In13 In 0.92582 0.23552 0.56651 0.0
O14 O 0.93283 0.28672 0.55288 0.0
O15 O 0.91747 0.28377 0.57592 0.0
C16 C 0.86906 0.168 0.55521 0.0
C17 C 0.939 0.22628 0.59577 0.0
C18 C 0.99078 0.25606 0.55125 0.0
O19 O 0.86615 0.1976 0.55561 0.0
O20 O 0.89899 0.1721 0.56127 0.0
O21 O 0.99031 0.26304 0.56511 0.0
O22 O 0.95842 0.23868 0.54504 0.0
C23 C 0.92709 0.303 0.56386 0.0
O24 O 0.95859 0.22517 0.58489 0.0
O25 O 0.91088 0.22993 0.59189 0.0
In26 In 0.69089 0.91201 0.89548 0.0
O27 O 0.7197 0.95708 0.91344 0.0
O28 O 0.68411 0.9005 0.92132 0.0
C29 C 0.75218 0.963 0.87993 0.0
C30 C 0.63046 0.92282 0.89175 0.0
C31 C 0.69015 0.84898 0.88404 0.0
O32 O 0.75476 0.9507 0.89274 0.0
O33 O 0.71866 0.94929 0.87492 0.0
O34 O 0.66959 0.86159 0.87884 0.0
O35 O 0.70813 0.8658 0.89585 0.0
C36 C 0.70582 0.93523 0.92467 0.0
O37 O 0.62822 0.89599 0.89985 0.0
O38 O 0.66199 0.94218 0.88514 0.0
In39 In 0.78172 0.69537 0.23651 0.0
O40 O 0.798 0.73361 0.25705 0.0
O41 O 0.78338 0.67619 0.26097 0.0
C42 C 0.77356 0.7428 0.2177 0.0
C43 C 0.70735 0.63994 0.23612 0.0
C44 C 0.84673 0.70225 0.22423 0.0
O45 O 0.78101 0.74982 0.23157 0.0
O46 O 0.77015 0.71168 0.21326 0.0
O47 O 0.8157 0.6708 0.2243 0.0
O48 O 0.84513 0.72856 0.23114 0.0
C49 C 0.79232 0.70826 0.26662 0.0
O50 O 0.73348 0.63346 0.23186 0.0
O51 O 0.71904 0.67348 0.24057 0.0
In52 In 0.10171 0.7784 0.56441 0.0
O53 O 0.08771 0.72415 0.55149 0.0
O54 O 0.11368 0.73151 0.57293 0.0
C55 C 0.16048 0.84518 0.55352 0.0
C56 C 0.08569 0.78477 0.59364 0.0
C57 C 0.04032 0.76585 0.54823 0.0
O58 O 0.15841 0.81344 0.55128 0.0
O59 O 0.13489 0.84339 0.56215 0.0
O60 O 0.03796 0.75427 0.56164 0.0
O61 O 0.07369 0.78358 0.54291 0.0
C62 C 0.09848 0.70996 0.56169 0.0
O63 O 0.066 0.78493 0.58261 0.0
O64 O 0.11518 0.78332 0.58996 0.0
In65 In 0.3164 0.0881 0.90335 0.0
O66 O 0.37824 0.10171 0.89835 0.0
O67 O 0.33741 0.04619 0.90585 0.0
C68 C 0.31057 0.14623 0.89048 0.0
C69 C 0.30586 0.0875 0.93364 0.0
C70 C 0.26554 0.03033 0.88624 0.0
O71 O 0.34153 0.14563 0.89033 0.0
O72 O 0.28431 0.11939 0.89788 0.0
O73 O 0.26199 0.03171 0.90035 0.0
O74 O 0.29494 0.05824 0.88066 0.0
C75 C 0.37122 0.06841 0.90173 0.0
O76 O 0.2791 0.07092 0.92428 0.0
O77 O 0.33845 0.10716 0.9277 0.0
In78 In 0.69029 0.77601 0.44757 0.0
O79 O 0.62872 0.73095 0.44072 0.0
O80 O 0.65578 0.71766 0.4583 0.0
C81 C 0.69569 0.84201 0.45806 0.0
C82 C 0.70853 0.77053 0.41855 0.0
C83 C 0.74349 0.77529 0.46538 0.0
O84 O 0.66762 0.80967 0.46109 0.0
O85 O 0.71884 0.84102 0.44883 0.0
O86 O 0.75056 0.78854 0.4521 0.0
O87 O 0.70962 0.76285 0.46975 0.0
C88 C 0.62695 0.70623 0.44995 0.0
O89 O 0.72101 0.76117 0.42985 0.0
O90 O 0.68663 0.78343 0.42177 0.0
In91 In 0.92273 0.69213 0.7748 0.0
O92 O 0.90762 0.62873 0.77455 0.0
O93 O 0.96566 0.67207 0.77617 0.0
C94 C 0.86073 0.69303 0.78661 0.0
C95 C 0.93316 0.70908 0.74495 0.0
C96 C 0.97536 0.7436 0.79355 0.0
O97 O 0.86989 0.66867 0.79047 0.0
O98 O 0.88073 0.71452 0.776 0.0
O99 O 0.97388 0.75004 0.77968 0.0
O100 O 0.94995 0.71118 0.79805 0.0
C101 C 0.94215 0.63695 0.7755 0.0
O102 O 0.95095 0.73275 0.7553 0.0
O103 O 0.90796 0.67652 0.7496 0.0
In104 In 0.23095 0.91113 0.11221 0.0
O105 O 0.2787 0.89539 0.11091 0.0
O106 O 0.29298 0.95088 0.11809 0.0
C107 C 0.16716 0.84971 0.12377 0.0
C108 C 0.22698 0.92173 0.08213 0.0
C109 C 0.23178 0.96649 0.12908 0.0
O110 O 0.20042 0.85742 0.12741 0.0
O111 O 0.16634 0.87072 0.11345 0.0
O112 O 0.2322 0.96724 0.11481 0.0
O113 O 0.23119 0.93776 0.13492 0.0
C114 C 0.30462 0.92808 0.11509 0.0
O115 O 0.21516 0.93541 0.09215 0.0
O116 O 0.23885 0.90031 0.08718 0.0
In117 In 0.31038 0.23067 0.44133 0.0
O118 O 0.26908 0.21741 0.42199 0.0
O119 O 0.3222 0.22157 0.41659 0.0
C120 C 0.27152 0.24952 0.46081 0.0
C121 C 0.37102 0.30224 0.43948 0.0
C122 C 0.30036 0.16475 0.4539 0.0
O123 O 0.25932 0.23641 0.44779 0.0
O124 O 0.30319 0.25255 0.46416 0.0
O125 O 0.33323 0.19279 0.45133 0.0
O126 O 0.27352 0.16958 0.44948 0.0
C127 C 0.29081 0.21731 0.4118 0.0
O128 O 0.37295 0.27617 0.44664 0.0
O129 O 0.33955 0.29163 0.43306 0.0
In130 In 0.10259 0.3178 0.77724 0.0
O131 O 0.0669 0.28004 0.75805 0.0
O132 O 0.11756 0.33063 0.75182 0.0
C133 C 0.0537 0.2627 0.7958 0.0
C134 C 0.08318 0.37289 0.77891 0.0
C135 C 0.16551 0.3182 0.7886 0.0
O136 O 0.05814 0.25673 0.78215 0.0
O137 O 0.07394 0.29676 0.80015 0.0
O138 O 0.15621 0.34243 0.79249 0.0
O139 O 0.14544 0.29659 0.77805 0.0
C140 C 0.0877 0.30093 0.74748 0.0
O141 O 0.11676 0.38071 0.77557 0.0
O142 O 0.06067 0.33823 0.78166 0.0
In143 In 0.78397 0.08884 0.10647 0.0
O144 O 0.80034 0.06786 0.08557 0.0
O145 O 0.78024 0.10657 0.08197 0.0
C146 C 0.78067 0.03287 0.1238 0.0
C147 C 0.70927 0.06868 0.10826 0.0
C148 C 0.84716 0.14882 0.11901 0.0
O149 O 0.78633 0.03466 0.10972 0.0
O150 O 0.7769 0.0596 0.12923 0.0
O151 O 0.81397 0.14339 0.12124 0.0
O152 O 0.84843 0.12596 0.10971 0.0
C153 C 0.79105 0.08506 0.07612 0.0
O154 O 0.73545 0.10329 0.10864 0.0
O155 O 0.72104 0.04534 0.10707 0.0
H156 H 0.85332 0.2022 0.13981 0.0
H157 H 0.90748 0.24096 0.15658 0.0
H158 H 0.97038 0.19235 0.13628 0.0
H159 H 0.91736 0.1551 0.11921 0.0
H160 H 0.93739 0.22029 0.17788 0.0
H161 H 0.05221 0.30025 0.13659 0.0
H162 H 1.00279 0.27363 0.13102 0.0
H163 H 0.03053 0.25023 0.13298 0.0
C164 C 0.87909 0.20054 0.13869 0.0
C165 C 0.88109 0.17582 0.12804 0.0
C166 C 0.91002 0.22257 0.14835 0.0
C167 C 0.94359 0.2203 0.1476 0.0
C168 C 0.94557 0.19582 0.13684 0.0
H169 H 0.09882 0.24902 0.21929 0.0
H170 H 0.0445 0.23009 0.20257 0.0
C171 C 0.91497 0.17423 0.1271 0.0
C172 C 0.97537 0.24111 0.15872 0.0
H173 H 0.07255 0.29377 0.1616 0.0
C174 C 0.96689 0.23684 0.17428 0.0
C175 C 0.01402 0.26355 0.15419 0.0
C176 C 0.02535 0.27253 0.13778 0.0
C177 C 0.99581 0.25265 0.18532 0.0
C178 C 0.03462 0.27233 0.18077 0.0
C179 C 0.043 0.27823 0.16522 0.0
C180 C 0.06686 0.28521 0.19181 0.0
C181 C 0.98423 0.24815 0.20176 0.0
C182 C 0.09839 0.32246 0.19129 0.0
C183 C 0.13012 0.33325 0.20074 0.0
C184 C 0.13096 0.30705 0.21096 0.0
C185 C 0.09899 0.27017 0.21174 0.0
C186 C 0.06762 0.25931 0.2022 0.0
H187 H 0.956 0.24614 0.20313 0.0
H188 H 0.98164 0.22133 0.2062 0.0
H189 H 1.00544 0.27229 0.20871 0.0
H190 H 0.0988 0.34304 0.18336 0.0
H191 H 0.15439 0.36175 0.19975 0.0
H192 H 0.87479 0.10439 0.55152 0.0
H193 H 0.83697 0.0499 0.53515 0.0
H194 H 0.76514 0.09651 0.52334 0.0
H195 H 0.80394 0.15209 0.53944 0.0
H196 H 0.76457 0.99504 0.5345 0.0
H197 H 0.79648 0.08091 0.48196 0.0
H198 H 0.82057 0.101 0.49959 0.0
H199 H 0.77331 0.0932 0.49639 0.0
C200 C 0.85077 0.10302 0.54554 0.0
C201 C 0.84257 0.13281 0.54674 0.0
C202 C 0.8291 0.07173 0.53615 0.0
C203 C 0.79855 0.06924 0.5277 0.0
C204 C 0.78915 0.09812 0.52939 0.0
H205 H 0.6527 0.85171 0.47985 0.0
H206 H 0.67267 0.90719 0.49635 0.0
C207 C 0.81109 0.12972 0.53875 0.0
C208 C 0.77748 0.03669 0.51699 0.0
H209 H 0.7557 0.01464 0.47958 0.0
C210 C 0.7624 0.99935 0.5225 0.0
C211 C 0.77503 0.04217 0.50127 0.0
C212 C 0.79248 0.08144 0.49438 0.0
C213 C 0.74577 0.96758 0.51279 0.0
C214 C 0.74297 0.97301 0.49708 0.0
C215 C 0.75739 0.01031 0.49161 0.0
C216 C 0.72829 0.94081 0.48601 0.0
C217 C 0.73313 0.92869 0.5194 0.0
C218 C 0.75175 0.94189 0.47407 0.0
C219 C 0.74006 0.91057 0.46445 0.0
C220 C 0.7046 0.87725 0.46653 0.0
C221 C 0.68023 0.87686 0.47797 0.0
C222 C 0.69184 0.90844 0.48753 0.0
H223 H 0.74597 0.93057 0.53071 0.0
H224 H 0.70168 0.91314 0.52078 0.0
H225 H 0.74092 0.91179 0.51184 0.0
H226 H 0.77988 0.96648 0.47255 0.0
H227 H 0.75962 0.91191 0.45578 0.0
H228 H 0.74012 0.82458 0.89143 0.0
H229 H 0.76255 0.79094 0.87513 0.0
H230 H 0.68294 0.78082 0.84055 0.0
H231 H 0.66017 0.81432 0.85683 0.0
H232 H 0.69071 0.71395 0.84408 0.0
H233 H 0.83029 0.84711 0.83805 0.0
H234 H 0.81568 0.83204 0.85722 0.0
H235 H 0.78868 0.8466 0.84567 0.0
C236 C 0.72678 0.81451 0.88049 0.0
C237 C 0.69841 0.82232 0.87543 0.0
C238 C 0.73986 0.79551 0.87112 0.0
C239 C 0.72496 0.78394 0.85649 0.0
C240 C 0.69503 0.78962 0.85176 0.0
H241 H 0.84041 0.74683 0.78108 0.0
H242 H 0.80424 0.76582 0.79755 0.0
C243 C 0.68196 0.80871 0.86111 0.0
C244 C 0.74223 0.76825 0.84579 0.0
H245 H 0.82477 0.79173 0.82682 0.0
C246 C 0.72002 0.73091 0.84031 0.0
C247 C 0.78033 0.79055 0.84067 0.0
C248 C 0.80514 0.83141 0.84557 0.0
C249 C 0.73509 0.71514 0.83005 0.0
C250 C 0.77347 0.7372 0.8252 0.0
C251 C 0.79544 0.77468 0.83056 0.0
C252 C 0.79157 0.72244 0.81445 0.0
C253 C 0.7096 0.67527 0.82426 0.0
C254 C 0.79606 0.69122 0.81827 0.0
C255 C 0.81673 0.68017 0.80881 0.0
C256 C 0.83349 0.70023 0.79535 0.0
C257 C 0.82775 0.73059 0.7913 0.0
C258 C 0.80718 0.74162 0.80076 0.0
H259 H 0.67895 0.66582 0.826 0.0
H260 H 0.71461 0.67329 0.81202 0.0
H261 H 0.71606 0.65535 0.83047 0.0
H262 H 0.78493 0.67633 0.82888 0.0
H263 H 0.82092 0.65695 0.81236 0.0
H264 H 0.91126 0.77045 0.21999 0.0
H265 H 0.96432 0.78571 0.203 0.0
H266 H 0.91411 0.66702 0.19117 0.0
H267 H 0.85963 0.65172 0.20782 0.0
H268 H 0.01777 0.76825 0.20163 0.0
H269 H 0.9296 0.712 0.14982 0.0
H270 H 0.91005 0.71618 0.16757 0.0
H271 H 0.91802 0.67687 0.16432 0.0
C272 C 0.91147 0.74742 0.21387 0.0
C273 C 0.88097 0.70982 0.21524 0.0
C274 C 0.94199 0.75624 0.20411 0.0
C275 C 0.94314 0.72775 0.19547 0.0
C276 C 0.91354 0.6898 0.19732 0.0
H277 H 0.16014 0.80019 0.14654 0.0
H278 H 0.10549 0.76492 0.16351 0.0
C279 C 0.88257 0.68097 0.207 0.0
C280 C 0.97524 0.73853 0.18452 0.0
H281 H 0.99577 0.73686 0.14702 0.0
C282 C 0.0129 0.76117 0.1897 0.0
C283 C 0.96913 0.72982 0.16886 0.0
C284 C 0.92955 0.70771 0.16225 0.0
C285 C 0.04428 0.7761 0.17974 0.0
C286 C 0.03822 0.767 0.16412 0.0
C287 C 1.00064 0.74359 0.15898 0.0
C288 C 0.06998 0.78413 0.15276 0.0
C289 C 0.08335 0.80312 0.18603 0.0
C290 C 0.06759 0.80467 0.14039 0.0
C291 C 0.09838 0.82396 0.13044 0.0
C292 C 0.13256 0.82347 0.13265 0.0
C293 C 0.13432 0.80132 0.14455 0.0
C294 C 0.1032 0.78152 0.1544 0.0
H295 H 0.08168 0.81497 0.19715 0.0
H296 H 0.09916 0.78759 0.18771 0.0
H297 H 0.09993 0.82721 0.17814 0.0
H298 H 0.04236 0.80708 0.13874 0.0
H299 H 0.09598 0.84077 0.12143 0.0
H300 H 0.35199 0.14968 0.46821 0.0
H301 H 0.33774 0.09497 0.48456 0.0
H302 H 0.21758 0.04852 0.47631 0.0
H303 H 0.23154 0.10228 0.4599 0.0
H304 H 0.29635 0.07278 0.51082 0.0
H305 H 0.22838 0.95611 0.46915 0.0
H306 H 0.25577 0.00548 0.46356 0.0
H307 H 0.20665 0.98529 0.4692 0.0
C308 C 0.32261 0.12741 0.46967 0.0
C309 C 0.29296 0.13027 0.46264 0.0
C310 C 0.31447 0.09623 0.47908 0.0
C311 C 0.27657 0.06716 0.48153 0.0
C312 C 0.24708 0.06991 0.47435 0.0
H313 H 0.16629 0.91502 0.55578 0.0
H314 H 0.19993 0.96943 0.53883 0.0
C315 C 0.25516 0.1009 0.465 0.0
C316 C 0.26726 0.03503 0.4922 0.0
H317 H 0.21467 0.93804 0.49534 0.0
C318 C 0.27895 0.04329 0.50738 0.0
C319 C 0.24503 0.99641 0.48776 0.0
C320 C 0.23358 0.98525 0.47149 0.0
C321 C 0.26751 0.01424 0.5183 0.0
C322 C 0.2431 0.97579 0.51404 0.0
C323 C 0.233 0.96744 0.49873 0.0
C324 C 0.22599 0.94401 0.52533 0.0
C325 C 0.28166 0.02514 0.53432 0.0
C326 C 0.22908 0.91118 0.52346 0.0
C327 C 0.20956 0.87974 0.53315 0.0
C328 C 0.1863 0.88034 0.54486 0.0
C329 C 0.18424 0.91367 0.54699 0.0
C330 C 0.20367 0.945 0.53731 0.0
H331 H 0.30923 0.05239 0.53466 0.0
H332 H 0.2606 0.02916 0.54091 0.0
H333 H 0.28544 1.00272 0.53992 0.0
H334 H 0.2459 0.90953 0.51427 0.0
H335 H 0.2115 0.85443 0.53109 0.0
H336 H 0.24244 0.14237 0.88567 0.0
H337 H 0.22779 0.18005 0.86839 0.0
H338 H 0.34711 0.24864 0.85719 0.0
H339 H 0.36176 0.20942 0.87408 0.0
H340 H 0.24465 0.25017 0.86691 0.0
H341 H 0.30454 0.22058 0.81562 0.0
H342 H 0.29982 0.19662 0.83335 0.0
H343 H 0.33898 0.24413 0.83033 0.0
C344 C 0.26573 0.16559 0.87961 0.0
C345 C 0.30331 0.17271 0.88123 0.0
C346 C 0.25726 0.18722 0.86968 0.0
C347 C 0.28612 0.2169 0.86114 0.0
C348 C 0.32405 0.22524 0.86323 0.0
H349 H 0.21355 0.36057 0.81174 0.0
H350 H 0.24877 0.34162 0.82892 0.0
C351 C 0.33251 0.20309 0.87305 0.0
C352 C 0.27574 0.23831 0.85008 0.0
H353 H 0.2796 0.26173 0.81262 0.0
C354 C 0.25249 0.25282 0.85505 0.0
C355 C 0.28546 0.24152 0.8345 0.0
C356 C 0.30824 0.22459 0.82807 0.0
C357 C 0.23786 0.26927 0.84496 0.0
C358 C 0.24799 0.27297 0.82942 0.0
C359 C 0.27206 0.25936 0.82451 0.0
C360 C 0.23125 0.28762 0.81791 0.0
C361 C 0.21002 0.28056 0.85099 0.0
C362 C 0.21184 0.26508 0.8053 0.0
C363 C 0.19267 0.27641 0.79523 0.0
C364 C 0.19211 0.31047 0.79754 0.0
C365 C 0.21325 0.33409 0.80966 0.0
C366 C 0.23299 0.32299 0.81963 0.0
H367 H 0.19748 0.26649 0.86198 0.0
H368 H 0.22512 0.31178 0.85288 0.0
H369 H 0.18638 0.2731 0.84288 0.0
H370 H 0.21013 0.23781 0.80358 0.0
H371 H 0.17664 0.25743 0.78605 0.0
H372 H 0.65021 0.64508 0.24988 0.0
H373 H 0.58169 0.60172 0.24794 0.0
H374 H 0.60176 0.52852 0.21859 0.0
H375 H 0.67089 0.57155 0.22091 0.0
H376 H 0.53735 0.5832 0.22367 0.0
H377 H 0.52646 0.45178 0.24781 0.0
H378 H 0.56926 0.4976 0.24932 0.0
H379 H 0.55873 0.47054 0.23209 0.0
C380 C 0.64012 0.6195 0.24315 0.0
C381 C 0.66601 0.61166 0.23558 0.0
C382 C 0.60085 0.59475 0.24202 0.0
C383 C 0.58635 0.56157 0.23324 0.0
C384 C 0.61215 0.55345 0.22572 0.0
H385 H 0.3573 0.3895 0.2076 0.0
H386 H 0.42584 0.43386 0.20895 0.0
C387 C 0.65167 0.57812 0.22699 0.0
C388 C 0.54426 0.53667 0.23156 0.0
H389 H 0.47058 0.44561 0.23631 0.0
C390 C 0.52279 0.55314 0.22651 0.0
C391 C 0.52509 0.49743 0.23529 0.0
C392 C 0.54598 0.47832 0.24157 0.0
C393 C 0.48293 0.53147 0.22493 0.0
C394 C 0.46392 0.49228 0.22854 0.0
C395 C 0.48527 0.4757 0.23353 0.0
C396 C 0.42191 0.46769 0.22701 0.0
C397 C 0.46144 0.55044 0.21917 0.0
C398 C 0.39676 0.47233 0.23657 0.0
C399 C 0.35733 0.44687 0.23584 0.0
C400 C 0.34247 0.41637 0.22554 0.0
C401 C 0.36772 0.41272 0.21565 0.0
C402 C 0.40699 0.43797 0.21643 0.0
H403 H 0.48082 0.57896 0.21424 0.0
H404 H 0.4403 0.53247 0.21046 0.0
H405 H 0.44562 0.55403 0.22869 0.0
H406 H 0.40774 0.49487 0.24492 0.0
H407 H 0.33869 0.45025 0.2437 0.0
H408 H 0.07084 0.66073 0.53788 0.0
H409 H 0.04282 0.59142 0.53857 0.0
H410 H 0.07208 0.59732 0.58577 0.0
H411 H 0.10057 0.66687 0.58517 0.0
H412 H 0.07992 0.54349 0.55206 0.0
H413 H 0.9478 0.52643 0.57906 0.0
H414 H 0.97809 0.56724 0.56743 0.0
H415 H 0.99359 0.56289 0.58593 0.0
C416 C 0.07206 0.6474 0.54834 0.0
C417 C 0.08794 0.66929 0.56148 0.0
C418 C 0.05594 0.6078 0.54871 0.0
C419 C 0.05507 0.58932 0.56225 0.0
C420 C 0.07235 0.61113 0.57523 0.0
H421 H 0.93431 0.34952 0.58756 0.0
H422 H 0.96455 0.41907 0.58713 0.0
C423 C 0.08882 0.65085 0.57484 0.0
C424 C 0.03434 0.54713 0.56292 0.0
H425 H 0.94962 0.4705 0.57376 0.0
C426 C 0.05146 0.52744 0.55681 0.0
C427 C 0.99734 0.52644 0.5692 0.0
C428 C 0.9778 0.54657 0.57576 0.0
C429 C 0.03259 0.48741 0.5569 0.0
C430 C 0.99507 0.46653 0.56285 0.0
C431 C 0.97818 0.4864 0.5691 0.0
C432 C 0.97323 0.4241 0.56287 0.0
C433 C 0.05344 0.46795 0.55094 0.0
C434 C 0.96639 0.40359 0.54932 0.0
C435 C 0.94924 0.36386 0.54954 0.0
C436 C 0.93803 0.34377 0.56331 0.0
C437 C 0.94251 0.36413 0.57676 0.0
C438 C 0.95998 0.40393 0.57654 0.0
H439 H 0.08483 0.48738 0.55098 0.0
H440 H 0.04677 0.44232 0.55776 0.0
H441 H 0.04456 0.4589 0.53908 0.0
H442 H 0.97526 0.41839 0.53858 0.0
H443 H 0.94603 0.349 0.53898 0.0
H444 H 0.44219 0.10387 0.88826 0.0
H445 H 0.48578 0.07841 0.8855 0.0
H446 H 0.40734 0.97816 0.9106 0.0
H447 H 0.36365 1.00275 0.91303 0.0
H448 H 0.52219 0.05783 0.90638 0.0
H449 H 0.42267 0.93087 0.87313 0.0
H450 H 0.41426 0.96995 0.87651 0.0
H451 H 0.40246 0.93396 0.89076 0.0
C452 C 0.43436 0.07644 0.89318 0.0
C453 C 0.39932 0.05517 0.90072 0.0
C454 C 0.45921 0.06188 0.89158 0.0
C455 C 0.4494 0.02586 0.89751 0.0
C456 C 0.41505 0.00538 0.9055 0.0
H457 H 0.56241 0.89169 0.90726 0.0
H458 H 0.5178 0.91623 0.90831 0.0
C459 C 0.3902 0.01969 0.90698 0.0
C460 C 0.47508 0.0097 0.89561 0.0
H461 H 0.47748 0.93095 0.8832 0.0
C462 C 0.51251 0.03026 0.90119 0.0
C463 C 0.46247 0.97362 0.88885 0.0
C464 C 0.4234 0.95099 0.88183 0.0
C465 C 0.53727 0.01536 0.90052 0.0
C466 C 0.5244 0.97908 0.89399 0.0
C467 C 0.48714 0.9586 0.88832 0.0
C468 C 0.54972 0.96248 0.89262 0.0
C469 C 0.57684 0.03822 0.90706 0.0
C470 C 0.58168 0.9796 0.8831 0.0
C471 C 0.6069 0.96556 0.8824 0.0
C472 C 0.60074 0.93402 0.89121 0.0
C473 C 0.56789 0.91595 0.90032 0.0
C474 C 0.54249 0.93001 0.90097 0.0
H475 H 0.57957 0.06153 0.91451 0.0
H476 H 0.58445 0.01964 0.91366 0.0
H477 H 0.59774 0.05118 0.89769 0.0
H478 H 0.58745 1.00429 0.87637 0.0
H479 H 0.63184 0.98011 0.87522 0.0
H480 H 0.61826 0.65074 0.46956 0.0
H481 H 0.57465 0.58231 0.46748 0.0
H482 H 0.52305 0.60083 0.4281 0.0
H483 H 0.56737 0.66971 0.42995 0.0
H484 H 0.49694 0.53771 0.4678 0.0
H485 H 0.55503 0.5265 0.41233 0.0
H486 H 0.57821 0.56881 0.42386 0.0
H487 H 0.5375 0.55937 0.41254 0.0
C488 C 0.59737 0.64037 0.46053 0.0
C489 C 0.59644 0.66567 0.44985 0.0
C490 C 0.57246 0.60117 0.45935 0.0
C491 C 0.54612 0.58629 0.44744 0.0
C492 C 0.54377 0.61159 0.43718 0.0
H493 H 0.37573 0.35858 0.42138 0.0
H494 H 0.41998 0.42695 0.42341 0.0
C495 C 0.5688 0.65097 0.43834 0.0
C496 C 0.52193 0.54428 0.44571 0.0
H497 H 0.50153 0.47042 0.42167 0.0
C498 C 0.49802 0.52299 0.45773 0.0
C499 C 0.52359 0.52502 0.43261 0.0
C500 C 0.5502 0.54597 0.41965 0.0
C501 C 0.47519 0.48314 0.4569 0.0
C502 C 0.47667 0.46397 0.44377 0.0
C503 C 0.50058 0.48519 0.43175 0.0
C504 C 0.45206 0.4221 0.44198 0.0
C505 C 0.44896 0.46191 0.46992 0.0
C506 C 0.45613 0.39646 0.45146 0.0
C507 C 0.43092 0.35711 0.45026 0.0
C508 C 0.4012 0.3429 0.43959 0.0
C509 C 0.39824 0.36862 0.42976 0.0
C510 C 0.4235 0.40774 0.43089 0.0
H511 H 0.44564 0.48137 0.47783 0.0
H512 H 0.42034 0.44035 0.46571 0.0
H513 H 0.46088 0.44674 0.47636 0.0
H514 H 0.47838 0.40694 0.45996 0.0
H515 H 0.43385 0.33801 0.45801 0.0
H516 H 0.89892 0.55857 0.77725 0.0
H517 H 0.92248 0.51315 0.77836 0.0
H518 H 0.03815 0.60624 0.77493 0.0
H519 H 0.01512 0.65137 0.77418 0.0
H520 H 0.96526 0.49854 0.75812 0.0
H521 H 0.04539 0.55144 0.81178 0.0
H522 H 0.01146 0.56498 0.80543 0.0
H523 H 0.0592 0.58841 0.79792 0.0
C524 C 0.92934 0.56924 0.7768 0.0
C525 C 0.95513 0.60858 0.77578 0.0
C526 C 0.94279 0.54332 0.77743 0.0
C527 C 0.98219 0.55633 0.77709 0.0
C528 C 1.00775 0.59551 0.77568 0.0
H529 H 0.12466 0.45031 0.77373 0.0
H530 H 0.10042 0.49522 0.77308 0.0
C531 C 0.99443 0.6213 0.77515 0.0
C532 C 0.9969 0.52922 0.77784 0.0
H533 H 0.05849 0.50978 0.79716 0.0
C534 C 0.98539 0.50081 0.76673 0.0
C535 C 0.02331 0.53221 0.78906 0.0
C536 C 0.03529 0.56066 0.80181 0.0
C537 C 1.00015 0.47591 0.76635 0.0
C538 C 0.02689 0.47927 0.77744 0.0
C539 C 0.0383 0.50752 0.78858 0.0
C540 C 0.04201 0.45259 0.77804 0.0
C541 C 0.98751 0.44656 0.75393 0.0
C542 C 0.01741 0.41402 0.78133 0.0
C543 C 0.03116 0.38856 0.78181 0.0
C544 C 0.06988 0.40104 0.779 0.0
C545 C 0.09472 0.43984 0.77593 0.0
C546 C 0.0809 0.46546 0.77554 0.0
H547 H 0.97397 0.4533 0.74439 0.0
H548 H 0.01203 0.44438 0.7495 0.0
H549 H 0.96632 0.41831 0.75856 0.0
H550 H 0.98747 0.40358 0.78355 0.0
H551 H 0.01122 0.3589 0.78426 0.0
H552 H 0.33994 0.88714 0.10767 0.0
H553 H 0.40888 0.91029 0.10737 0.0
H554 H 0.43093 0.02038 0.12278 0.0
H555 H 0.36272 0.99744 0.1234 0.0
H556 H 0.46459 0.96903 0.0907 0.0
H557 H 0.49572 0.99998 0.15173 0.0
H558 H 0.44777 0.97171 0.14458 0.0
H559 H 0.47159 0.0229 0.14378 0.0
C560 C 0.35953 0.91608 0.1112 0.0
C561 C 0.34582 0.94034 0.11566 0.0
C562 C 0.39889 0.92933 0.11098 0.0
C563 C 0.42514 0.96693 0.11531 0.0
C564 C 0.41135 0.99102 0.11977 0.0
H565 H 0.67401 0.11084 0.11349 0.0
H566 H 0.60493 0.08704 0.11488 0.0
C567 C 0.37222 0.97785 0.12003 0.0
C568 C 0.467 0.98185 0.11445 0.0
H569 H 0.54944 0.02634 0.1351 0.0
C570 C 0.48307 0.98126 0.10044 0.0
C571 C 0.49124 0.99807 0.12714 0.0
C572 C 0.47569 0.99791 0.14269 0.0
C573 C 0.52267 0.997 0.09872 0.0
C574 C 0.54686 0.01348 0.11137 0.0
C575 C 0.53087 0.01406 0.12538 0.0
C576 C 0.5886 0.02834 0.11043 0.0
C577 C 0.53844 0.99641 0.08331 0.0
C578 C 0.60221 1.00321 0.10766 0.0
C579 C 0.64134 0.0166 0.10695 0.0
C580 C 0.66788 0.05551 0.10899 0.0
C581 C 0.65428 0.08077 0.11182 0.0
C582 C 0.6149 0.06721 0.11263 0.0
H583 H 0.51758 0.99122 0.07415 0.0
H584 H 0.56503 0.0237 0.08101 0.0
H585 H 0.54543 0.9732 0.08296 0.0
H586 H 0.58248 0.97305 0.10616 0.0
H587 H 0.65078 0.99631 0.10479 0.0
H588 H 0.23867 0.0328 0.11877 0.0
H589 H 0.23969 0.08395 0.13373 0.0
H590 H 0.22664 0.02038 0.17467 0.0
H591 H 0.22632 0.9693 0.15977 0.0
H592 H 0.18294 0.07895 0.1527 0.0
H593 H 0.31799 0.1252 0.18411 0.0
H594 H 0.30499 0.09513 0.16757 0.0
H595 H 0.28402 0.07526 0.18564 0.0
C596 C 0.23622 0.02981 0.13096 0.0
C597 C 0.23253 0.99722 0.13815 0.0
C598 C 0.23681 0.059 0.13947 0.0
C599 C 0.23376 0.05605 0.15528 0.0
C600 C 0.22982 0.02344 0.16249 0.0
H601 H 0.2165 0.19685 0.22464 0.0
H602 H 0.21663 0.14543 0.21019 0.0
C603 C 0.22941 0.99426 0.15398 0.0
C604 C 0.23333 0.08663 0.16412 0.0
H605 H 0.28051 0.15235 0.19174 0.0
C606 C 0.20432 0.09512 0.1612 0.0
C607 C 0.26135 0.10754 0.17516 0.0
C608 C 0.29407 0.10064 0.17825 0.0
C609 C 0.20232 0.12385 0.1692 0.0
C610 C 0.23023 0.14463 0.18026 0.0
C611 C 0.25917 0.13611 0.18323 0.0
C612 C 0.22996 0.17554 0.18884 0.0
C613 C 0.17014 0.13148 0.16595 0.0
C614 C 0.23771 0.20937 0.18153 0.0
C615 C 0.23774 0.23877 0.18973 0.0
C616 C 0.23003 0.23463 0.20533 0.0
C617 C 0.22238 0.2007 0.21261 0.0
C618 C 0.22251 0.1714 0.20441 0.0
H619 H 0.14692 0.10809 0.15933 0.0
H620 H 0.15801 0.13526 0.17665 0.0
H621 H 0.18127 0.15819 0.1593 0.0
H622 H 0.24397 0.21308 0.16952 0.0
H623 H 0.24387 0.2647 0.18386 0.0
H624 H 0.99857 0.24432 0.52146 0.0
H625 H 0.05702 0.25726 0.50833 0.0
H626 H 0.1215 0.30412 0.54933 0.0
H627 H 0.06304 0.29102 0.56262 0.0
H628 H 0.13016 0.32845 0.50508 0.0
H629 H 0.13904 0.21448 0.53712 0.0
H630 H 0.09591 0.21722 0.53654 0.0
H631 H 0.13551 0.25032 0.54783 0.0
C632 C 0.02522 0.25762 0.52765 0.0
C633 C 0.02629 0.26633 0.54308 0.0
C634 C 0.05854 0.26512 0.52013 0.0
C635 C 0.0933 0.28128 0.52794 0.0
C636 C 0.09476 0.29127 0.5432 0.0
H637 H 0.29126 0.27748 0.48953 0.0
H638 H 0.25443 0.29384 0.50694 0.0
C639 C 0.06142 0.28381 0.55074 0.0
C640 C 0.12735 0.2854 0.52018 0.0
H641 H 0.18206 0.24354 0.51716 0.0
C642 C 0.142 0.31037 0.50783 0.0
C643 C 0.14276 0.26194 0.52395 0.0
C644 C 0.12752 0.23426 0.53702 0.0
C645 C 0.17075 0.31132 0.4987 0.0
C646 C 0.18442 0.28608 0.50188 0.0
C647 C 0.17138 0.26278 0.51477 0.0
C648 C 0.20858 0.27993 0.49108 0.0
C649 C 0.18555 0.33865 0.48552 0.0
C650 C 0.19472 0.26642 0.47651 0.0
C651 C 0.21548 0.25696 0.46662 0.0
C652 C 0.25033 0.26055 0.4712 0.0
C653 C 0.26442 0.27443 0.48574 0.0
C654 C 0.24356 0.28389 0.49566 0.0
H655 H 0.18249 0.36401 0.48764 0.0
H656 H 0.21601 0.34829 0.4832 0.0
H657 H 0.16872 0.32418 0.47526 0.0
H658 H 0.16728 0.26218 0.47291 0.0
H659 H 0.20391 0.24627 0.45549 0.0
H660 H 1.00651 0.18858 0.78838 0.0
H661 H 0.95849 0.1384 0.8044 0.0
H662 H 0.99082 0.21742 0.84161 0.0
H663 H 0.03876 0.26812 0.82555 0.0
H664 H 0.96688 0.1094 0.83234 0.0
H665 H 0.87511 0.17525 0.83664 0.0
H666 H 0.91284 0.1904 0.82284 0.0
H667 H 0.92399 0.20501 0.84223 0.0
C668 C 1.00347 0.19528 0.79998 0.0
C669 C 0.02609 0.23225 0.80572 0.0
C670 C 0.97614 0.16659 0.80911 0.0
C671 C 0.97096 0.17445 0.82408 0.0
C672 C 0.99413 0.21108 0.82999 0.0
H673 H 0.82607 1.00037 0.88945 0.0
H674 H 0.88096 0.05197 0.8764 0.0
C675 C 0.02149 0.23989 0.82084 0.0
C676 C 0.9406 0.14425 0.8333 0.0
H677 H 0.85502 0.11793 0.84999 0.0
C678 C 0.94248 0.11124 0.8363 0.0
C679 C 0.90876 0.14683 0.83823 0.0
C680 C 0.9047 0.1811 0.83475 0.0
C681 C 0.91299 0.08038 0.84403 0.0
C682 C 0.88126 0.08306 0.84903 0.0
C683 C 0.87958 0.11622 0.84616 0.0
C684 C 0.84867 0.0512 0.85675 0.0
C685 C 0.91543 0.04478 0.84638 0.0
C686 C 0.81247 0.03418 0.85004 0.0
C687 C 0.78112 1.00497 0.85749 0.0
C688 C 0.78557 0.99246 0.87176 0.0
C689 C 0.82194 0.00934 0.87841 0.0
C690 C 0.85328 0.03866 0.87096 0.0
H691 H 0.93735 0.04423 0.83898 0.0
H692 H 0.92325 0.04355 0.85832 0.0
H693 H 0.8875 0.01892 0.84411 0.0
H694 H 0.80847 0.04365 0.83907 0.0
H695 H 0.75338 0.99247 0.85213 0.0
H696 H 0.78154 0.96978 0.11397 0.0
H697 H 0.77525 0.91662 0.12924 0.0
H698 H 0.76706 0.9717 0.16968 0.0
H699 H 0.77256 0.02467 0.15444 0.0
H700 H 0.82247 0.919 0.15196 0.0
H701 H 0.67557 0.86466 0.17363 0.0
H702 H 0.69487 0.89769 0.15801 0.0
H703 H 0.7068 0.91446 0.17717 0.0
C704 C 0.77824 0.97047 0.12611 0.0
C705 C 0.77743 1.00123 0.13305 0.0
C706 C 0.77459 0.94011 0.13479 0.0
C707 C 0.77004 0.94002 0.15052 0.0
C708 C 0.76962 0.97088 0.1575 0.0
H709 H 0.77518 0.80857 0.22528 0.0
H710 H 0.77218 0.85446 0.20817 0.0
C711 C 0.77307 1.0012 0.14882 0.0
C712 C 0.76755 0.90845 0.15969 0.0
H713 H 0.71211 0.84037 0.18547 0.0
C714 C 0.79819 0.90152 0.15917 0.0
C715 C 0.73574 0.88575 0.16903 0.0
C716 C 0.7012 0.89071 0.16941 0.0
C717 C 0.7984 0.87313 0.16813 0.0
C718 C 0.767 0.85106 0.17771 0.0
C719 C 0.7361 0.85754 0.17808 0.0
C720 C 0.76661 0.82219 0.18791 0.0
C721 C 0.83261 0.86763 0.16766 0.0
C722 C 0.76382 0.78874 0.18208 0.0
C723 C 0.76546 0.76245 0.19181 0.0
C724 C 0.76997 0.76943 0.20746 0.0
C725 C 0.77189 0.80259 0.21326 0.0
C726 C 0.77008 0.82873 0.20354 0.0
H727 H 0.85704 0.8911 0.16154 0.0
H728 H 0.84188 0.8658 0.17931 0.0
H729 H 0.82476 0.84048 0.16181 0.0
H730 H 0.76078 0.78321 0.17002 0.0
H731 H 0.76378 0.73702 0.18707 0.0
H732 H 0.73388 0.74469 0.49363 0.0
H733 H 0.78095 0.73778 0.50862 0.0
H734 H 0.86434 0.79283 0.47322 0.0
H735 H 0.81741 0.79947 0.45809 0.0
H736 H 0.85728 0.72343 0.48423 0.0
H737 H 0.87447 0.82389 0.53052 0.0
H738 H 0.82635 0.78743 0.52646 0.0
H739 H 0.85297 0.82345 0.51256 0.0
C740 C 0.76234 0.75556 0.4891 0.0
C741 C 0.77213 0.77275 0.47474 0.0
C742 C 0.78913 0.75167 0.49768 0.0
C743 C 0.82605 0.76513 0.49203 0.0
C744 C 0.83591 0.78237 0.47773 0.0
H745 H 0.03845 0.78723 0.51917 0.0
H746 H 0.98346 0.78213 0.50559 0.0
C747 C 0.80917 0.78623 0.46915 0.0
C748 C 0.85442 0.76072 0.50088 0.0
H749 H 0.90838 0.79086 0.53291 0.0
C750 C 0.86843 0.73804 0.4949 0.0
C751 C 0.86856 0.77971 0.5148 0.0
C752 C 0.85512 0.80525 0.52146 0.0
C753 C 0.89667 0.73412 0.50246 0.0
C754 C 0.91147 0.75386 0.51619 0.0
C755 C 0.8968 0.77577 0.52236 0.0
C756 C 0.9437 0.75398 0.52395 0.0
C757 C 0.91046 0.70895 0.49572 0.0
C758 C 0.9394 0.74008 0.53877 0.0
C759 C 0.97073 0.74307 0.54656 0.0
C760 C 1.00683 0.76035 0.53966 0.0
C761 C 0.01091 0.7737 0.52473 0.0
C762 C 0.97955 0.77061 0.51694 0.0
H763 H 0.88946 0.6881 0.4876 0.0
H764 H 0.93749 0.72691 0.48952 0.0
H765 H 0.91608 0.6932 0.5047 0.0
H766 H 0.91191 0.72741 0.54436 0.0
H767 H 0.96685 0.7326 0.55809 0.0
H768 H 0.26214 0.02475 0.85545 0.0
H769 H 0.2127 0.97313 0.84027 0.0
H770 H 0.1563 0.9127 0.8811 0.0
H771 H 0.20503 0.96444 0.89632 0.0
H772 H 0.18914 0.89562 0.83943 0.0
H773 H 0.07227 0.92002 0.85851 0.0
H774 H 0.12193 0.95399 0.86181 0.0
H775 H 0.09744 0.91245 0.87361 0.0
C776 C 0.23919 1.00042 0.86117 0.0
C777 C 0.23709 0.99868 0.87703 0.0
C778 C 0.21109 0.97102 0.85251 0.0
C779 C 0.18061 0.93957 0.85961 0.0
C780 C 0.17917 0.93721 0.87544 0.0
H781 H 0.98194 0.73835 0.82406 0.0
H782 H 0.03278 0.78465 0.84051 0.0
C783 C 0.20708 0.96667 0.8841 0.0
C784 C 0.15009 0.90939 0.85044 0.0
H785 H 0.05463 0.86572 0.84325 0.0
C786 C 0.15973 0.88906 0.84023 0.0
C787 C 0.11182 0.90107 0.85157 0.0
C788 C 0.10019 0.92323 0.86186 0.0
C789 C 0.13192 0.86033 0.83113 0.0
C790 C 0.09376 0.85215 0.83225 0.0
C791 C 0.08401 0.87213 0.84255 0.0
C792 C 0.06371 0.82397 0.82236 0.0
C793 C 0.14337 0.83876 0.82045 0.0
C794 C 0.06432 0.83131 0.80684 0.0
C795 C 0.03533 0.80521 0.79748 0.0
C796 C 1.00538 0.7714 0.80354 0.0
C797 C 1.00476 0.76419 0.81912 0.0
C798 C 0.03369 0.79047 0.8285 0.0
H799 H 0.17188 0.84274 0.82328 0.0
H800 H 0.1221 0.80785 0.82069 0.0
H801 H 0.1445 0.84919 0.80874 0.0
H802 H 0.08706 0.85738 0.802 0.0
H803 H 0.03648 0.81146 0.78551 0.0
H804 H 0.22678 0.21272 0.39982 0.0
H805 H 0.21625 0.22486 0.37369 0.0
H806 H 0.3246 0.23731 0.36081 0.0
H807 H 0.33567 0.22549 0.38711 0.0
H808 H 0.27271 0.2971 0.35783 0.0
H809 H 0.2425 0.16352 0.32838 0.0
H810 H 0.23458 0.16496 0.34844 0.0
H811 H 0.28219 0.18438 0.34131 0.0
C812 C 0.24813 0.21732 0.3914 0.0
C813 C 0.28212 0.21816 0.39555 0.0
C814 C 0.24207 0.22438 0.37648 0.0
C815 C 0.2696 0.23197 0.36534 0.0
C816 C 0.30287 0.23122 0.36925 0.0
H817 H 0.28963 0.28886 0.2704 0.0
H818 H 0.29633 0.27155 0.29617 0.0
C819 C 0.30911 0.22439 0.38425 0.0
C820 C 0.26458 0.24334 0.34994 0.0
H821 H 0.24684 0.21348 0.31323 0.0
C822 C 0.26696 0.27885 0.34805 0.0
C823 C 0.25721 0.21948 0.33727 0.0
C824 C 0.2537 0.18081 0.33884 0.0
C825 C 0.26293 0.29153 0.33372 0.0
C826 C 0.2552 0.26753 0.321 0.0
C827 C 0.25262 0.23186 0.32296 0.0
C828 C 0.25124 0.27934 0.30545 0.0
C829 C 0.26822 0.33099 0.33231 0.0
C830 C 0.22363 0.28963 0.30201 0.0
C831 C 0.22002 0.30008 0.28722 0.0
C832 C 0.24355 0.29979 0.27559 0.0
C833 C 0.27101 0.28937 0.27909 0.0
C834 C 0.27484 0.27935 0.29383 0.0
H835 H 0.28418 0.34926 0.34208 0.0
H836 H 0.28372 0.34516 0.32175 0.0
H837 H 0.23984 0.32892 0.33199 0.0
H838 H 0.20447 0.28903 0.3107 0.0
H839 H 0.19838 0.30763 0.28483 0.0
H840 H 0.90644 0.23536 0.62156 0.0
H841 H 0.93238 0.24624 0.64734 0.0
H842 H 0.02658 0.23421 0.63147 0.0
H843 H 1.00045 0.22244 0.60589 0.0
H844 H 1.00017 0.19863 0.65815 0.0
H845 H 0.02326 0.34532 0.6614 0.0
H846 H 0.97465 0.30978 0.6577 0.0
H847 H 0.01099 0.31859 0.64397 0.0
C848 C 0.93239 0.23453 0.62363 0.0
C849 C 0.95145 0.22818 0.61168 0.0
C850 C 0.94743 0.24118 0.63833 0.0
C851 C 0.98196 0.24197 0.64128 0.0
C852 C 1.00009 0.23405 0.62946 0.0
H853 H 0.12358 0.34272 0.72198 0.0
H854 H 0.10041 0.32828 0.69574 0.0
C855 C 0.98504 0.22725 0.61483 0.0
C856 C 0.99962 0.25137 0.65659 0.0
H857 H 0.03395 0.32009 0.68397 0.0
C858 C 1.00762 0.22523 0.66377 0.0
C859 C 0.01019 0.28647 0.6638 0.0
C860 C 1.00472 0.31685 0.65628 0.0
C861 C 0.02505 0.23281 0.67807 0.0
C862 C 0.03403 0.26714 0.68558 0.0
C863 C 0.02685 0.29368 0.67826 0.0
C864 C 0.04931 0.27529 0.70128 0.0
C865 C 0.03414 0.20413 0.68491 0.0
C866 C 0.02831 0.25045 0.71308 0.0
C867 C 0.04154 0.25849 0.72795 0.0
C868 C 0.07593 0.29182 0.73144 0.0
C869 C 0.09714 0.31671 0.71963 0.0
C870 C 0.08385 0.30855 0.70467 0.0
H871 H 0.03695 0.18622 0.67605 0.0
H872 H 0.06096 0.21834 0.69157 0.0
H873 H 0.01058 0.18494 0.69257 0.0
H874 H 1.00117 0.22514 0.71083 0.0
H875 H 0.0243 0.23884 0.73678 0.0
H876 H 0.81469 0.04118 0.06176 0.0
H877 H 0.80172 0.01816 0.03574 0.0
H878 H 0.74689 0.08427 0.02737 0.0
H879 H 0.75935 0.10713 0.05363 0.0
H880 H 0.70331 0.00879 0.01819 0.0
H881 H 0.85075 0.07133 0.99616 0.0
H882 H 0.84308 0.0447 0.01332 0.0
H883 H 0.83969 0.0873 0.0135 0.0
C884 C 0.8005 0.05145 0.05433 0.0
C885 C 0.78821 0.07616 0.05975 0.0
C886 C 0.79318 0.03829 0.03941 0.0
C887 C 0.77365 0.04974 0.02954 0.0
C888 C 0.76214 0.07517 0.03479 0.0
H889 H 0.74925 0.00908 0.93315 0.0
H890 H 0.76381 0.03534 0.95863 0.0
C891 C 0.7695 0.08842 0.04975 0.0
C892 C 0.76349 0.03338 0.01404 0.0
H893 H 0.80163 0.02268 0.9812 0.0
C894 C 0.72479 0.01201 0.01005 0.0
C895 C 0.79154 0.03771 1.00342 0.0
C896 C 0.8336 0.0618 0.00673 0.0
C897 C 0.71337 0.99447 0.9958 0.0
C898 C 0.7414 0.99786 0.98534 0.0
C899 C 0.78011 0.01964 0.98928 0.0
C900 C 0.73149 0.98096 0.96992 0.0
C901 C 0.67146 0.97311 0.99195 0.0
C902 C 0.70855 0.94144 0.96771 0.0
C903 C 0.69996 0.92619 0.95303 0.0
C904 C 0.71444 0.95024 0.94034 0.0
C905 C 0.7376 0.98968 0.94265 0.0
C906 C 0.74602 1.00482 0.95724 0.0
H907 H 0.65467 0.98091 0.99961 0.0
H908 H 0.66665 0.9788 0.98009 0.0
H909 H 0.66044 0.94209 0.99314 0.0
H910 H 0.69761 0.92236 0.97733 0.0
H911 H 0.68218 0.89569 0.95161 0.0
H912 H 0.76623 0.65567 0.28967 0.0
H913 H 0.75459 0.66622 0.31603 0.0
H914 H 0.80181 0.78593 0.30675 0.0
H915 H 0.814 0.77576 0.2806 0.0
H916 H 0.82456 0.77283 0.33442 0.0
H917 H 0.66745 0.68528 0.3276 0.0
H918 H 0.69309 0.66084 0.32336 0.0
H919 H 0.69986 0.70015 0.31174 0.0
C920 C 0.77476 0.68431 0.29334 0.0
C921 C 0.79085 0.71484 0.28304 0.0
C922 C 0.76772 0.69025 0.30835 0.0
C923 C 0.77654 0.72674 0.31326 0.0
C924 C 0.79449 0.7575 0.30319 0.0
H925 H 0.68496 0.78635 0.39165 0.0
H926 H 0.7021 0.77702 0.36593 0.0
C927 C 0.80149 0.75162 0.28824 0.0
C928 C 0.76617 0.73307 0.3287 0.0
H929 H 0.69029 0.70969 0.35209 0.0
C930 C 0.79522 0.75897 0.33829 0.0
C931 C 0.72778 0.7156 0.33363 0.0
C932 C 0.69514 0.68918 0.32352 0.0
C933 C 0.787 0.76743 0.35275 0.0
C934 C 0.74873 0.74905 0.35786 0.0
C935 C 0.71962 0.72359 0.34819 0.0
C936 C 0.73849 0.75517 0.37335 0.0
C937 C 0.81934 0.7965 0.36232 0.0
C938 C 0.75286 0.74559 0.386 0.0
C939 C 0.74323 0.75095 0.40061 0.0
C940 C 0.71874 0.76577 0.40291 0.0
C941 C 0.70402 0.77507 0.39023 0.0
C942 C 0.71373 0.76968 0.37556 0.0
H943 H 0.84462 0.81551 0.35532 0.0
H944 H 0.81049 0.81428 0.36879 0.0
H945 H 0.82808 0.78155 0.37052 0.0
H946 H 0.77131 0.73359 0.38459 0.0
H947 H 0.75486 0.74321 0.41011 0.0
H948 H 0.01997 0.78088 0.60312 0.0
H949 H 0.99414 0.77004 0.6287 0.0
H950 H 0.09494 0.7719 0.64569 0.0
H951 H 0.12064 0.78169 0.61986 0.0
H952 H 0.03102 0.71231 0.65689 0.0
H953 H 0.02062 0.84253 0.66344 0.0
H954 H 0.9961 0.816 0.6469 0.0
H955 H 0.04707 0.83678 0.64824 0.0
C956 C 0.03698 0.77955 0.61231 0.0
C957 C 0.07252 0.7824 0.60946 0.0
C958 C 0.02219 0.77352 0.62697 0.0
C959 C 0.0428 0.77079 0.6392 0.0
C960 C 0.07858 0.77413 0.63645 0.0
H961 H 0.98969 0.77589 0.73362 0.0
H962 H 0.01467 0.78945 0.7079 0.0
C963 C 0.09334 0.77991 0.6217 0.0
C964 C 0.02602 0.76254 0.65469 0.0
H965 H 0.98609 0.79284 0.68138 0.0
C966 C 0.02142 0.73006 0.66229 0.0
C967 C 0.01374 0.78584 0.66181 0.0
C968 C 0.01998 0.82243 0.65474 0.0
C969 C 1.00455 0.72001 0.67672 0.0
C970 C 0.99091 0.7425 0.68358 0.0
C971 C 0.99592 0.77521 0.67604 0.0
C972 C 0.97371 0.73413 0.699 0.0
C973 C 1.00244 0.68597 0.68461 0.0
C974 C 0.94156 0.69878 0.70256 0.0
C975 C 0.92727 0.69077 0.7174 0.0
C976 C 0.9446 0.71819 0.72886 0.0
C977 C 0.97565 0.75408 0.72508 0.0
C978 C 0.99003 0.76191 0.71035 0.0
H979 H 0.02291 0.67819 0.6797 0.0
H980 H 1.00848 0.69148 0.69689 0.0
H981 H 0.97332 0.66114 0.68328 0.0
H982 H 0.9278 0.67722 0.69392 0.0
H983 H 0.90326 0.66293 0.71996 0.0
H984 H 0.26419 0.90829 0.05907 0.0
H985 H 0.27954 0.93825 0.03393 0.0
H986 H 0.21579 0.99458 0.04419 0.0
H987 H 0.20072 0.96522 0.06926 0.0
H988 H 0.23393 0.93761 0.00986 0.0
H989 H 0.32159 0.08324 0.03308 0.0
H990 H 0.30671 0.04094 0.04436 0.0
H991 H 0.27417 0.05806 0.04073 0.0
C992 C 0.253 0.92662 0.05586 0.0
C993 C 0.23143 0.93456 0.06618 0.0
C994 C 0.26195 0.94386 0.04154 0.0
C995 C 0.24961 0.96941 0.03734 0.0
C996 C 0.22645 0.97577 0.04733 0.0
H997 H 0.23798 0.05081 0.94847 0.0
H998 H 0.22625 0.02422 0.97401 0.0
C999 C 0.21756 0.95865 0.06161 0.0
C1000 C 0.26112 0.98978 0.0226 0.0
H1001 H 0.30623 0.07879 0.00682 0.0
C1002 C 0.24992 0.96845 0.00919 0.0
C1003 C 0.28256 0.03006 0.02174 0.0
C1004 C 0.29732 0.05446 0.03573 0.0
C1005 C 0.25845 0.98632 0.99496 0.0
C1006 C 0.27824 0.02661 0.99411 0.0
C1007 C 0.2906 0.04794 0.0075 0.0
C1008 C 0.28586 0.04686 0.97938 0.0
C1009 C 0.24638 0.96185 0.98092 0.0
C1010 C 0.3234 0.07038 0.97425 0.0
C1011 C 0.33026 0.08606 0.95965 0.0
C1012 C 0.29963 0.07848 0.95 0.0
C1013 C 0.2622 0.05701 0.95559 0.0
C1014 C 0.25541 0.04149 0.97014 0.0
H1015 H 0.24088 0.93263 0.98334 0.0
H1016 H 0.21962 0.95947 0.97649 0.0
H1017 H 0.26847 0.97466 0.97194 0.0
H1018 H 0.34733 0.07518 0.98128 0.0
H1019 H 0.35939 0.10234 0.95565 0.0
loop_
_geom_bond_atom_site_label_1
_geom_bond_atom_site_label_2
_geom_bond_distance
_geom_bond_site_symmetry_2
_ccdc_geom_bond_type
In0 O1 2.294 . S
In0 O2 2.326 . S
In0 O6 2.266 . S
In0 O7 2.326 . S
In0 O8 2.266 . S
In0 O9 2.326 . S
In0 O11 2.294 . S
In0 O12 2.326 . S
O1 In0 2.294 . S
O1 C10 1.240 . S
O2 In0 2.326 . S
O2 C10 1.252 . S
C3 O6 1.252 . S
C3 O7 1.260 . S
C4 O11 1.240 . S
C4 O12 1.252 . S
C5 O8 1.252 . S
C5 O9 1.260 . S
O6 In0 2.266 . S
O6 C3 1.252 . S
O7 In0 2.326 . S
O7 C3 1.260 . S
O8 In0 2.266 . S
O8 C5 1.252 . S
O9 In0 2.326 . S
O9 C5 1.260 . S
C10 O1 1.240 . S
C10 O2 1.252 . S
O11 In0 2.294 . S
O11 C4 1.240 . S
O12 In0 2.326 . S
O12 C4 1.252 . S
In13 O14 2.294 . S
In13 O15 2.326 . S
In13 O19 2.266 . S
In13 O20 2.326 . S
In13 O21 2.266 1_655 S
In13 O22 2.326 . S
In13 O24 2.294 . S
In13 O25 2.326 . S
O14 In13 2.294 . S
O14 C23 1.240 . S
O15 In13 2.326 . S
O15 C23 1.252 . S
C16 O19 1.252 . S
C16 O20 1.260 . S
C17 O24 1.240 . S
C17 O25 1.252 . S
C18 O21 1.252 . S
C18 O22 1.260 1_455 S
O19 In13 2.266 . S
O19 C16 1.252 . S
O20 In13 2.326 . S
O20 C16 1.260 . S
O21 In13 2.266 1_455 S
O21 C18 1.252 . S
O22 In13 2.326 . S
O22 C18 1.260 1_655 S
C23 O14 1.240 . S
C23 O15 1.252 . S
O24 In13 2.294 . S
O24 C17 1.240 . S
O25 In13 2.326 . S
O25 C17 1.252 . S
In26 O27 2.294 . S
In26 O28 2.326 . S
In26 O32 2.266 1_565 S
In26 O33 2.326 . S
In26 O34 2.266 . S
In26 O35 2.326 . S
In26 O37 2.294 . S
In26 O38 2.326 . S
O27 In26 2.294 . S
O27 C36 1.240 . S
O28 In26 2.326 . S
O28 C36 1.252 . S
C29 O32 1.252 . S
C29 O33 1.260 1_545 S
C30 O37 1.240 . S
C30 O38 1.252 . S
C31 O34 1.252 . S
C31 O35 1.260 . S
O32 In26 2.266 1_545 S
O32 C29 1.252 . S
O33 In26 2.326 . S
O33 C29 1.260 1_565 S
O34 In26 2.266 . S
O34 C31 1.252 . S
O35 In26 2.326 . S
O35 C31 1.260 . S
C36 O27 1.240 . S
C36 O28 1.252 . S
O37 In26 2.294 . S
O37 C30 1.240 . S
O38 In26 2.326 . S
O38 C30 1.252 . S
In39 O40 2.294 . S
In39 O41 2.326 . S
In39 O45 2.266 . S
In39 O46 2.326 . S
In39 O47 2.266 . S
In39 O48 2.326 . S
In39 O50 2.294 . S
In39 O51 2.326 . S
O40 In39 2.294 . S
O40 C49 1.240 . S
O41 In39 2.326 . S
O41 C49 1.252 . S
C42 O45 1.252 . S
C42 O46 1.260 . S
C43 O50 1.240 . S
C43 O51 1.252 . S
C44 O47 1.252 . S
C44 O48 1.260 . S
O45 In39 2.266 . S
O45 C42 1.252 . S
O46 In39 2.326 . S
O46 C42 1.260 . S
O47 In39 2.266 . S
O47 C44 1.252 . S
O48 In39 2.326 . S
O48 C44 1.260 . S
C49 O40 1.240 . S
C49 O41 1.252 . S
O50 In39 2.294 . S
O50 C43 1.240 . S
O51 In39 2.326 . S
O51 C43 1.252 . S
In52 O53 2.294 . S
In52 O54 2.326 . S
In52 O58 2.266 . S
In52 O59 2.326 . S
In52 O60 2.266 1_455 S
In52 O61 2.326 . S
In52 O63 2.294 . S
In52 O64 2.326 . S
O53 In52 2.294 . S
O53 C62 1.240 . S
O54 In52 2.326 . S
O54 C62 1.252 . S
C55 O58 1.252 . S
C55 O59 1.260 . S
C56 O63 1.240 . S
C56 O64 1.252 . S
C57 O60 1.252 . S
C57 O61 1.260 1_655 S
O58 In52 2.266 . S
O58 C55 1.252 . S
O59 In52 2.326 . S
O59 C55 1.260 . S
O60 In52 2.266 1_655 S
O60 C57 1.252 . S
O61 In52 2.326 . S
O61 C57 1.260 1_455 S
C62 O53 1.240 . S
C62 O54 1.252 . S
O63 In52 2.294 . S
O63 C56 1.240 . S
O64 In52 2.326 . S
O64 C56 1.252 . S
In65 O66 2.294 . S
In65 O67 2.326 . S
In65 O71 2.266 . S
In65 O72 2.326 . S
In65 O73 2.266 1_545 S
In65 O74 2.326 . S
In65 O76 2.294 . S
In65 O77 2.326 . S
O66 In65 2.294 . S
O66 C75 1.240 . S
O67 In65 2.326 . S
O67 C75 1.252 . S
C68 O71 1.252 . S
C68 O72 1.260 . S
C69 O76 1.240 . S
C69 O77 1.252 . S
C70 O73 1.252 . S
C70 O74 1.260 1_565 S
O71 In65 2.266 . S
O71 C68 1.252 . S
O72 In65 2.326 . S
O72 C68 1.260 . S
O73 In65 2.266 1_565 S
O73 C70 1.252 . S
O74 In65 2.326 . S
O74 C70 1.260 1_545 S
C75 O66 1.240 . S
C75 O67 1.252 . S
O76 In65 2.294 . S
O76 C69 1.240 . S
O77 In65 2.326 . S
O77 C69 1.252 . S
In78 O79 2.294 . S
In78 O80 2.326 . S
In78 O84 2.266 . S
In78 O85 2.326 . S
In78 O86 2.266 . S
In78 O87 2.326 . S
In78 O89 2.294 . S
In78 O90 2.326 . S
O79 In78 2.294 . S
O79 C88 1.240 . S
O80 In78 2.326 . S
O80 C88 1.252 . S
C81 O84 1.252 . S
C81 O85 1.260 . S
C82 O89 1.240 . S
C82 O90 1.252 . S
C83 O86 1.252 . S
C83 O87 1.260 . S
O84 In78 2.266 . S
O84 C81 1.252 . S
O85 In78 2.326 . S
O85 C81 1.260 . S
O86 In78 2.266 . S
O86 C83 1.252 . S
O87 In78 2.326 . S
O87 C83 1.260 . S
C88 O79 1.240 . S
C88 O80 1.252 . S
O89 In78 2.294 . S
O89 C82 1.240 . S
O90 In78 2.326 . S
O90 C82 1.252 . S
In91 O92 2.294 . S
In91 O93 2.326 . S
In91 O97 2.266 . S
In91 O98 2.326 . S
In91 O99 2.266 1_655 S
In91 O100 2.326 . S
In91 O102 2.294 . S
In91 O103 2.326 . S
O92 In91 2.294 . S
O92 C101 1.240 . S
O93 In91 2.326 . S
O93 C101 1.252 . S
C94 O97 1.252 . S
C94 O98 1.260 . S
C95 O102 1.240 . S
C95 O103 1.252 . S
C96 O99 1.252 . S
C96 O100 1.260 1_455 S
O97 In91 2.266 . S
O97 C94 1.252 . S
O98 In91 2.326 . S
O98 C94 1.260 . S
O99 In91 2.266 1_455 S
O99 C96 1.252 . S
O100 In91 2.326 . S
O100 C96 1.260 1_655 S
C101 O92 1.240 . S
C101 O93 1.252 . S
O102 In91 2.294 . S
O102 C95 1.240 . S
O103 In91 2.326 . S
O103 C95 1.252 . S
In104 O105 2.294 . S
In104 O106 2.326 . S
In104 O110 2.266 . S
In104 O111 2.326 . S
In104 O112 2.266 1_565 S
In104 O113 2.326 . S
In104 O115 2.294 . S
In104 O116 2.326 . S
O105 In104 2.294 . S
O105 C114 1.240 . S
O106 In104 2.326 . S
O106 C114 1.252 . S
C107 O110 1.252 . S
C107 O111 1.260 . S
C108 O115 1.240 . S
C108 O116 1.252 . S
C109 O112 1.252 . S
C109 O113 1.260 1_545 S
O110 In104 2.266 . S
O110 C107 1.252 . S
O111 In104 2.326 . S
O111 C107 1.260 . S
O112 In104 2.266 1_545 S
O112 C109 1.252 . S
O113 In104 2.326 . S
O113 C109 1.260 1_565 S
C114 O105 1.240 . S
C114 O106 1.252 . S
O115 In104 2.294 . S
O115 C108 1.240 . S
O116 In104 2.326 . S
O116 C108 1.252 . S
In117 O118 2.294 . S
In117 O119 2.326 . S
In117 O123 2.266 . S
In117 O124 2.326 . S
In117 O125 2.266 . S
In117 O126 2.326 . S
In117 O128 2.294 . S
In117 O129 2.326 . S
O118 In117 2.294 . S
O118 C127 1.240 . S
O119 In117 2.326 . S
O119 C127 1.252 . S
C120 O123 1.252 . S
C120 O124 1.260 . S
C121 O128 1.240 . S
C121 O129 1.252 . S
C122 O125 1.252 . S
C122 O126 1.260 . S
O123 In117 2.266 . S
O123 C120 1.252 . S
O124 In117 2.326 . S
O124 C120 1.260 . S
O125 In117 2.266 . S
O125 C122 1.252 . S
O126 In117 2.326 . S
O126 C122 1.260 . S
C127 O118 1.240 . S
C127 O119 1.252 . S
O128 In117 2.294 . S
O128 C121 1.240 . S
O129 In117 2.326 . S
O129 C121 1.252 . S
In130 O131 2.294 . S
In130 O132 2.326 . S
In130 O136 2.266 1_455 S
In130 O137 2.326 . S
In130 O138 2.266 . S
In130 O139 2.326 . S
In130 O141 2.294 . S
In130 O142 2.326 . S
O131 In130 2.294 . S
O131 C140 1.240 . S
O132 In130 2.326 . S
O132 C140 1.252 . S
C133 O136 1.252 . S
C133 O137 1.260 1_655 S
C134 O141 1.240 . S
C134 O142 1.252 . S
C135 O138 1.252 . S
C135 O139 1.260 . S
O136 In130 2.266 1_655 S
O136 C133 1.252 . S
O137 In130 2.326 . S
O137 C133 1.260 1_455 S
O138 In130 2.266 . S
O138 C135 1.252 . S
O139 In130 2.326 . S
O139 C135 1.260 . S
C140 O131 1.240 . S
C140 O132 1.252 . S
O141 In130 2.294 . S
O141 C134 1.240 . S
O142 In130 2.326 . S
O142 C134 1.252 . S
In143 O144 2.294 . S
In143 O145 2.326 . S
In143 O149 2.266 1_545 S
In143 O150 2.326 . S
In143 O151 2.266 . S
In143 O152 2.326 . S
In143 O154 2.294 . S
In143 O155 2.326 . S
O144 In143 2.294 . S
O144 C153 1.240 . S
O145 In143 2.326 . S
O145 C153 1.252 . S
C146 O149 1.252 . S
C146 O150 1.260 1_565 S
C147 O154 1.240 . S
C147 O155 1.252 . S
C148 O151 1.252 . S
C148 O152 1.260 . S
O149 In143 2.266 1_565 S
O149 C146 1.252 . S
O150 In143 2.326 . S
O150 C146 1.260 1_545 S
O151 In143 2.266 . S
O151 C148 1.252 . S
O152 In143 2.326 . S
O152 C148 1.260 . S
C153 O144 1.240 . S
C153 O145 1.252 . S
O154 In143 2.294 . S
O154 C147 1.240 . S
O155 In143 2.326 . S
O155 C147 1.252 . S
H156 C164 0.929 . S
H157 C166 0.930 . S
H158 C168 0.930 . S
H159 C171 0.929 . S
H160 C174 0.930 . S
H161 C176 0.960 . S
H162 C176 0.960 . S
H163 C176 0.960 . S
C164 H156 0.929 . S
C164 C165 1.377 . S
C164 C166 1.384 . S
C165 C164 1.377 . S
C165 C171 1.390 . S
C166 H157 0.930 . S
C166 C164 1.384 . S
C166 C167 1.372 . S
C167 C166 1.372 . S
C167 C168 1.400 . S
C167 C172 1.490 . S
C168 H158 0.930 . S
C168 C167 1.400 . S
C168 C171 1.386 . S
H169 C185 0.930 . S
H170 C186 0.931 . S
C171 H159 0.929 . S
C171 C165 1.390 . S
C171 C168 1.386 . S
C172 C167 1.490 . S
C172 C174 1.395 . S
C172 C175 1.403 1_655 S
H173 C179 0.930 . S
C174 H160 0.930 . S
C174 C172 1.395 . S
C174 C177 1.403 . S
C175 C172 1.403 1_455 S
C175 C176 1.524 . S
C175 C179 1.400 . S
C176 H161 0.960 . S
C176 H162 0.960 . S
C176 H163 0.960 . S
C176 C175 1.524 . S
C177 C174 1.403 . S
C177 C178 1.392 1_655 S
C177 C181 1.495 . S
C178 C177 1.392 1_455 S
C178 C179 1.385 . S
C178 C180 1.478 . S
C179 H173 0.930 . S
C179 C175 1.400 . S
C179 C178 1.385 . S
C180 C178 1.478 . S
C180 C182 1.381 . S
C180 C186 1.383 . S
C181 C177 1.495 . S
C181 H187 0.959 . S
C181 H188 0.961 . S
C181 H189 0.960 . S
C182 C180 1.381 . S
C182 C183 1.394 . S
C182 H190 0.930 . S
C183 C182 1.394 . S
C183 C184 1.383 . S
C183 H191 0.929 . S
C184 C183 1.383 . S
C184 C185 1.377 . S
C185 H169 0.930 . S
C185 C184 1.377 . S
C185 C186 1.379 . S
C186 H170 0.931 . S
C186 C180 1.383 . S
C186 C185 1.379 . S
H187 C181 0.959 . S
H188 C181 0.961 . S
H189 C181 0.960 . S
H190 C182 0.930 . S
H191 C183 0.929 . S
H192 C200 0.929 . S
H193 C202 0.930 . S
H194 C204 0.930 . S
H195 C207 0.929 . S
H196 C210 0.930 . S
H197 C212 0.960 . S
H198 C212 0.960 . S
H199 C212 0.960 . S
C200 H192 0.929 . S
C200 C201 1.377 . S
C200 C202 1.384 . S
C201 C200 1.377 . S
C201 C207 1.390 . S
C202 H193 0.930 . S
C202 C200 1.384 . S
C202 C203 1.372 . S
C203 C202 1.372 . S
C203 C204 1.400 . S
C203 C208 1.490 . S
C204 H194 0.930 . S
C204 C203 1.400 . S
C204 C207 1.386 . S
H205 C221 0.930 . S
H206 C222 0.931 . S
C207 H195 0.929 . S
C207 C201 1.390 . S
C207 C204 1.386 . S
C208 C203 1.490 . S
C208 C210 1.395 . S
C208 C211 1.403 . S
H209 C215 0.930 . S
C210 H196 0.930 . S
C210 C208 1.395 . S
C210 C213 1.403 1_545 S
C211 C208 1.403 . S
C211 C212 1.524 . S
C211 C215 1.400 1_545 S
C212 H197 0.960 . S
C212 H198 0.960 . S
C212 H199 0.960 . S
C212 C211 1.524 . S
C213 C210 1.403 1_565 S
C213 C214 1.392 . S
C213 C217 1.495 . S
C214 C213 1.392 . S
C214 C215 1.385 . S
C214 C216 1.478 . S
C215 H209 0.930 . S
C215 C211 1.400 1_565 S
C215 C214 1.385 . S
C216 C214 1.478 . S
C216 C218 1.381 . S
C216 C222 1.383 . S
C217 C213 1.495 . S
C217 H223 0.959 . S
C217 H224 0.961 . S
C217 H225 0.960 . S
C218 C216 1.381 . S
C218 C219 1.394 . S
C218 H226 0.930 . S
C219 C218 1.394 . S
C219 C220 1.383 . S
C219 H227 0.929 . S
C220 C219 1.383 . S
C220 C221 1.377 . S
C221 H205 0.930 . S
C221 C220 1.377 . S
C221 C222 1.379 . S
C222 H206 0.931 . S
C222 C216 1.383 . S
C222 C221 1.379 . S
H223 C217 0.959 . S
H224 C217 0.961 . S
H225 C217 0.960 . S
H226 C218 0.930 . S
H227 C219 0.929 . S
H228 C236 0.929 . S
H229 C238 0.930 . S
H230 C240 0.930 . S
H231 C243 0.929 . S
H232 C246 0.930 . S
H233 C248 0.960 . S
H234 C248 0.960 . S
H235 C248 0.960 . S
C236 H228 0.929 . S
C236 C237 1.377 . S
C236 C238 1.384 . S
C237 C236 1.377 . S
C237 C243 1.390 . S
C238 H229 0.930 . S
C238 C236 1.384 . S
C238 C239 1.372 . S
C239 C238 1.372 . S
C239 C240 1.400 . S
C239 C244 1.490 . S
C240 H230 0.930 . S
C240 C239 1.400 . S
C240 C243 1.386 . S
H241 C257 0.930 . S
H242 C258 0.931 . S
C243 H231 0.929 . S
C243 C237 1.390 . S
C243 C240 1.386 . S
C244 C239 1.490 . S
C244 C246 1.395 . S
C244 C247 1.403 . S
H245 C251 0.930 . S
C246 H232 0.930 . S
C246 C244 1.395 . S
C246 C249 1.403 . S
C247 C244 1.403 . S
C247 C248 1.524 . S
C247 C251 1.400 . S
C248 H233 0.960 . S
C248 H234 0.960 . S
C248 H235 0.960 . S
C248 C247 1.524 . S
C249 C246 1.403 . S
C249 C250 1.392 . S
C249 C253 1.495 . S
C250 C249 1.392 . S
C250 C251 1.385 . S
C250 C252 1.478 . S
C251 H245 0.930 . S
C251 C247 1.400 . S
C251 C250 1.385 . S
C252 C250 1.478 . S
C252 C254 1.381 . S
C252 C258 1.383 . S
C253 C249 1.495 . S
C253 H259 0.959 . S
C253 H260 0.961 . S
C253 H261 0.960 . S
C254 C252 1.381 . S
C254 C255 1.394 . S
C254 H262 0.930 . S
C255 C254 1.394 . S
C255 C256 1.383 . S
C255 H263 0.929 . S
C256 C255 1.383 . S
C256 C257 1.377 . S
C257 H241 0.930 . S
C257 C256 1.377 . S
C257 C258 1.379 . S
C258 H242 0.931 . S
C258 C252 1.383 . S
C258 C257 1.379 . S
H259 C253 0.959 . S
H260 C253 0.961 . S
H261 C253 0.960 . S
H262 C254 0.930 . S
H263 C255 0.929 . S
H264 C272 0.929 . S
H265 C274 0.930 . S
H266 C276 0.930 . S
H267 C279 0.929 . S
H268 C282 0.930 . S
H269 C284 0.960 . S
H270 C284 0.960 . S
H271 C284 0.960 . S
C272 H264 0.929 . S
C272 C273 1.377 . S
C272 C274 1.384 . S
C273 C272 1.377 . S
C273 C279 1.390 . S
C274 H265 0.930 . S
C274 C272 1.384 . S
C274 C275 1.372 . S
C275 C274 1.372 . S
C275 C276 1.400 . S
C275 C280 1.490 . S
C276 H266 0.930 . S
C276 C275 1.400 . S
C276 C279 1.386 . S
H277 C293 0.930 . S
H278 C294 0.931 . S
C279 H267 0.929 . S
C279 C273 1.390 . S
C279 C276 1.386 . S
C280 C275 1.490 . S
C280 C282 1.395 1_655 S
C280 C283 1.403 . S
H281 C287 0.930 . S
C282 H268 0.930 . S
C282 C280 1.395 1_455 S
C282 C285 1.403 . S
C283 C280 1.403 . S
C283 C284 1.524 . S
C283 C287 1.400 1_655 S
C284 H269 0.960 . S
C284 H270 0.960 . S
C284 H271 0.960 . S
C284 C283 1.524 . S
C285 C282 1.403 . S
C285 C286 1.392 . S
C285 C289 1.495 . S
C286 C285 1.392 . S
C286 C287 1.385 . S
C286 C288 1.478 . S
C287 H281 0.930 . S
C287 C283 1.400 1_455 S
C287 C286 1.385 . S
C288 C286 1.478 . S
C288 C290 1.381 . S
C288 C294 1.383 . S
C289 C285 1.495 . S
C289 H295 0.959 . S
C289 H296 0.961 . S
C289 H297 0.960 . S
C290 C288 1.381 . S
C290 C291 1.394 . S
C290 H298 0.930 . S
C291 C290 1.394 . S
C291 C292 1.383 . S
C291 H299 0.929 . S
C292 C291 1.383 . S
C292 C293 1.377 . S
C293 H277 0.930 . S
C293 C292 1.377 . S
C293 C294 1.379 . S
C294 H278 0.931 . S
C294 C288 1.383 . S
C294 C293 1.379 . S
H295 C289 0.959 . S
H296 C289 0.961 . S
H297 C289 0.960 . S
H298 C290 0.930 . S
H299 C291 0.929 . S
H300 C308 0.929 . S
H301 C310 0.930 . S
H302 C312 0.930 . S
H303 C315 0.929 . S
H304 C318 0.930 . S
H305 C320 0.960 . S
H306 C320 0.960 . S
H307 C320 0.960 . S
C308 H300 0.929 . S
C308 C309 1.377 . S
C308 C310 1.384 . S
C309 C308 1.377 . S
C309 C315 1.390 . S
C310 H301 0.930 . S
C310 C308 1.384 . S
C310 C311 1.372 . S
C311 C310 1.372 . S
C311 C312 1.400 . S
C311 C316 1.490 . S
C312 H302 0.930 . S
C312 C311 1.400 . S
C312 C315 1.386 . S
H313 C329 0.930 . S
H314 C330 0.931 . S
C315 H303 0.929 . S
C315 C309 1.390 . S
C315 C312 1.386 . S
C316 C311 1.490 . S
C316 C318 1.395 . S
C316 C319 1.403 . S
H317 C323 0.930 . S
C318 H304 0.930 . S
C318 C316 1.395 . S
C318 C321 1.403 1_545 S
C319 C316 1.403 . S
C319 C320 1.524 . S
C319 C323 1.400 1_545 S
C320 H305 0.960 . S
C320 H306 0.960 . S
C320 H307 0.960 . S
C320 C319 1.524 . S
C321 C318 1.403 1_565 S
C321 C322 1.392 . S
C321 C325 1.495 . S
C322 C321 1.392 . S
C322 C323 1.385 . S
C322 C324 1.478 . S
C323 H317 0.930 . S
C323 C319 1.400 1_565 S
C323 C322 1.385 . S
C324 C322 1.478 . S
C324 C326 1.381 . S
C324 C330 1.383 . S
C325 C321 1.495 . S
C325 H331 0.959 . S
C325 H332 0.961 . S
C325 H333 0.960 . S
C326 C324 1.381 . S
C326 C327 1.394 . S
C326 H334 0.930 . S
C327 C326 1.394 . S
C327 C328 1.383 . S
C327 H335 0.929 . S
C328 C327 1.383 . S
C328 C329 1.377 . S
C329 H313 0.930 . S
C329 C328 1.377 . S
C329 C330 1.379 . S
C330 H314 0.931 . S
C330 C324 1.383 . S
C330 C329 1.379 . S
H331 C325 0.959 . S
H332 C325 0.961 . S
H333 C325 0.960 . S
H334 C326 0.930 . S
H335 C327 0.929 . S
H336 C344 0.929 . S
H337 C346 0.930 . S
H338 C348 0.930 . S
H339 C351 0.929 . S
H340 C354 0.930 . S
H341 C356 0.960 . S
H342 C356 0.960 . S
H343 C356 0.960 . S
C344 H336 0.929 . S
C344 C345 1.377 . S
C344 C346 1.384 . S
C345 C344 1.377 . S
C345 C351 1.390 . S
C346 H337 0.930 . S
C346 C344 1.384 . S
C346 C347 1.372 . S
C347 C346 1.372 . S
C347 C348 1.400 . S
C347 C352 1.490 . S
C348 H338 0.930 . S
C348 C347 1.400 . S
C348 C351 1.386 . S
H349 C365 0.930 . S
H350 C366 0.931 . S
C351 H339 0.929 . S
C351 C345 1.390 . S
C351 C348 1.386 . S
C352 C347 1.490 . S
C352 C354 1.395 . S
C352 C355 1.403 . S
H353 C359 0.930 . S
C354 H340 0.930 . S
C354 C352 1.395 . S
C354 C357 1.403 . S
C355 C352 1.403 . S
C355 C356 1.524 . S
C355 C359 1.400 . S
C356 H341 0.960 . S
C356 H342 0.960 . S
C356 H343 0.960 . S
C356 C355 1.524 . S
C357 C354 1.403 . S
C357 C358 1.392 . S
C357 C361 1.495 . S
C358 C357 1.392 . S
C358 C359 1.385 . S
C358 C360 1.478 . S
C359 H353 0.930 . S
C359 C355 1.400 . S
C359 C358 1.385 . S
C360 C358 1.478 . S
C360 C362 1.381 . S
C360 C366 1.383 . S
C361 C357 1.495 . S
C361 H367 0.959 . S
C361 H368 0.961 . S
C361 H369 0.960 . S
C362 C360 1.381 . S
C362 C363 1.394 . S
C362 H370 0.930 . S
C363 C362 1.394 . S
C363 C364 1.383 . S
C363 H371 0.929 . S
C364 C363 1.383 . S
C364 C365 1.377 . S
C365 H349 0.930 . S
C365 C364 1.377 . S
C365 C366 1.379 . S
C366 H350 0.931 . S
C366 C360 1.383 . S
C366 C365 1.379 . S
H367 C361 0.959 . S
H368 C361 0.961 . S
H369 C361 0.960 . S
H370 C362 0.930 . S
H371 C363 0.929 . S
H372 C380 0.929 . S
H373 C382 0.930 . S
H374 C384 0.930 . S
H375 C387 0.929 . S
H376 C390 0.930 . S
H377 C392 0.960 . S
H378 C392 0.960 . S
H379 C392 0.960 . S
C380 H372 0.929 . S
C380 C381 1.377 . S
C380 C382 1.384 . S
C381 C380 1.377 . S
C381 C387 1.390 . S
C382 H373 0.930 . S
C382 C380 1.384 . S
C382 C383 1.372 . S
C383 C382 1.372 . S
C383 C384 1.400 . S
C383 C388 1.490 . S
C384 H374 0.930 . S
C384 C383 1.400 . S
C384 C387 1.386 . S
H385 C401 0.930 . S
H386 C402 0.931 . S
C387 H375 0.929 . S
C387 C381 1.390 . S
C387 C384 1.386 . S
C388 C383 1.490 . S
C388 C390 1.395 . S
C388 C391 1.403 . S
H389 C395 0.930 . S
C390 H376 0.930 . S
C390 C388 1.395 . S
C390 C393 1.403 . S
C391 C388 1.403 . S
C391 C392 1.524 . S
C391 C395 1.400 . S
C392 H377 0.960 . S
C392 H378 0.960 . S
C392 H379 0.960 . S
C392 C391 1.524 . S
C393 C390 1.403 . S
C393 C394 1.392 . S
C393 C397 1.495 . S
C394 C393 1.392 . S
C394 C395 1.385 . S
C394 C396 1.478 . S
C395 H389 0.930 . S
C395 C391 1.400 . S
C395 C394 1.385 . S
C396 C394 1.478 . S
C396 C398 1.381 . S
C396 C402 1.383 . S
C397 C393 1.495 . S
C397 H403 0.959 . S
C397 H404 0.961 . S
C397 H405 0.960 . S
C398 C396 1.381 . S
C398 C399 1.394 . S
C398 H406 0.930 . S
C399 C398 1.394 . S
C399 C400 1.383 . S
C399 H407 0.929 . S
C400 C399 1.383 . S
C400 C401 1.377 . S
C401 H385 0.930 . S
C401 C400 1.377 . S
C401 C402 1.379 . S
C402 H386 0.931 . S
C402 C396 1.383 . S
C402 C401 1.379 . S
H403 C397 0.959 . S
H404 C397 0.961 . S
H405 C397 0.960 . S
H406 C398 0.930 . S
H407 C399 0.929 . S
H408 C416 0.929 . S
H409 C418 0.930 . S
H410 C420 0.935 . S
H411 C423 0.929 . S
H412 C426 0.930 . S
H413 C428 0.960 . S
H414 C428 0.960 . S
H415 C428 0.960 . S
C416 H408 0.929 . S
C416 C417 1.377 . S
C416 C418 1.384 . S
C417 C416 1.377 . S
C417 C423 1.390 . S
C418 H409 0.930 . S
C418 C416 1.384 . S
C418 C419 1.372 . S
C419 C418 1.372 . S
C419 C420 1.400 . S
C419 C424 1.490 . S
C420 H410 0.935 . S
C420 C419 1.400 . S
C420 C423 1.386 . S
H421 C437 0.930 . S
H422 C438 0.931 . S
C423 H411 0.929 . S
C423 C417 1.390 . S
C423 C420 1.386 . S
C424 C419 1.490 . S
C424 C426 1.395 . S
C424 C427 1.403 1_455 S
H425 C431 0.930 . S
C426 H412 0.930 . S
C426 C424 1.395 . S
C426 C429 1.403 . S
C427 C424 1.403 1_655 S
C427 C428 1.524 . S
C427 C431 1.400 . S
C428 H413 0.960 . S
C428 H414 0.960 . S
C428 H415 0.960 . S
C428 C427 1.524 . S
C429 C426 1.403 . S
C429 C430 1.392 1_455 S
C429 C433 1.495 . S
C430 C429 1.392 1_655 S
C430 C431 1.385 . S
C430 C432 1.478 . S
C431 H425 0.930 . S
C431 C427 1.400 . S
C431 C430 1.385 . S
C432 C430 1.478 . S
C432 C434 1.381 . S
C432 C438 1.383 . S
C433 C429 1.495 . S
C433 H439 0.959 . S
C433 H440 0.961 . S
C433 H441 0.960 . S
C434 C432 1.381 . S
C434 C435 1.394 . S
C434 H442 0.933 . S
C435 C434 1.394 . S
C435 C436 1.383 . S
C435 H443 0.929 . S
C436 C435 1.383 . S
C436 C437 1.377 . S
C437 H421 0.930 . S
C437 C436 1.377 . S
C437 C438 1.379 . S
C438 H422 0.931 . S
C438 C432 1.383 . S
C438 C437 1.379 . S
H439 C433 0.959 . S
H440 C433 0.961 . S
H441 C433 0.960 . S
H442 C434 0.933 . S
H443 C435 0.929 . S
H444 C452 0.929 . S
H445 C454 0.930 . S
H446 C456 0.930 . S
H447 C459 0.929 . S
H448 C462 0.930 . S
H449 C464 0.960 . S
H450 C464 0.960 . S
H451 C464 0.960 . S
C452 H444 0.929 . S
C452 C453 1.377 . S
C452 C454 1.384 . S
C453 C452 1.377 . S
C453 C459 1.390 . S
C454 H445 0.930 . S
C454 C452 1.384 . S
C454 C455 1.372 . S
C455 C454 1.372 . S
C455 C456 1.400 . S
C455 C460 1.490 . S
C456 H446 0.930 . S
C456 C455 1.400 . S
C456 C459 1.386 . S
H457 C473 0.930 . S
H458 C474 0.931 . S
C459 H447 0.929 . S
C459 C453 1.390 . S
C459 C456 1.386 . S
C460 C455 1.490 . S
C460 C462 1.395 . S
C460 C463 1.403 1_545 S
H461 C467 0.930 . S
C462 H448 0.930 . S
C462 C460 1.395 . S
C462 C465 1.403 . S
C463 C460 1.403 1_565 S
C463 C464 1.524 . S
C463 C467 1.400 . S
C464 H449 0.960 . S
C464 H450 0.960 . S
C464 H451 0.960 . S
C464 C463 1.524 . S
C465 C462 1.403 . S
C465 C466 1.392 1_545 S
C465 C469 1.495 . S
C466 C465 1.392 1_565 S
C466 C467 1.385 . S
C466 C468 1.478 . S
C467 H461 0.930 . S
C467 C463 1.400 . S
C467 C466 1.385 . S
C468 C466 1.478 . S
C468 C470 1.381 . S
C468 C474 1.383 . S
C469 C465 1.495 . S
C469 H475 0.959 . S
C469 H476 0.961 . S
C469 H477 0.960 . S
C470 C468 1.381 . S
C470 C471 1.394 . S
C470 H478 0.930 . S
C471 C470 1.394 . S
C471 C472 1.383 . S
C471 H479 0.929 . S
C472 C471 1.383 . S
C472 C473 1.377 . S
C473 H457 0.930 . S
C473 C472 1.377 . S
C473 C474 1.379 . S
C474 H458 0.931 . S
C474 C468 1.383 . S
C474 C473 1.379 . S
H475 C469 0.959 . S
H476 C469 0.961 . S
H477 C469 0.960 . S
H478 C470 0.930 . S
H479 C471 0.929 . S
H480 C488 0.929 . S
H481 C490 0.930 . S
H482 C492 0.930 . S
H483 C495 0.929 . S
H484 C498 0.930 . S
H485 C500 0.960 . S
H486 C500 0.960 . S
H487 C500 0.960 . S
C488 H480 0.929 . S
C488 C489 1.377 . S
C488 C490 1.384 . S
C489 C488 1.377 . S
C489 C495 1.390 . S
C490 H481 0.930 . S
C490 C488 1.384 . S
C490 C491 1.372 . S
C491 C490 1.372 . S
C491 C492 1.400 . S
C491 C496 1.490 . S
C492 H482 0.930 . S
C492 C491 1.400 . S
C492 C495 1.386 . S
H493 C509 0.930 . S
H494 C510 0.931 . S
C495 H483 0.929 . S
C495 C489 1.390 . S
C495 C492 1.386 . S
C496 C491 1.490 . S
C496 C498 1.395 . S
C496 C499 1.403 . S
H497 C503 0.930 . S
C498 H484 0.930 . S
C498 C496 1.395 . S
C498 C501 1.403 . S
C499 C496 1.403 . S
C499 C500 1.524 . S
C499 C503 1.400 . S
C500 H485 0.960 . S
C500 H486 0.960 . S
C500 H487 0.960 . S
C500 C499 1.524 . S
C501 C498 1.403 . S
C501 C502 1.392 . S
C501 C505 1.495 . S
C502 C501 1.392 . S
C502 C503 1.385 . S
C502 C504 1.478 . S
C503 H497 0.930 . S
C503 C499 1.400 . S
C503 C502 1.385 . S
C504 C502 1.478 . S
C504 C506 1.381 . S
C504 C510 1.383 . S
C505 C501 1.495 . S
C505 H511 0.959 . S
C505 H512 0.961 . S
C505 H513 0.960 . S
C506 C504 1.381 . S
C506 C507 1.394 . S
C506 H514 0.930 . S
C507 C506 1.394 . S
C507 C508 1.383 . S
C507 H515 0.929 . S
C508 C507 1.383 . S
C508 C509 1.377 . S
C509 H493 0.930 . S
C509 C508 1.377 . S
C509 C510 1.379 . S
C510 H494 0.931 . S
C510 C504 1.383 . S
C510 C509 1.379 . S
H511 C505 0.959 . S
H512 C505 0.961 . S
H513 C505 0.960 . S
H514 C506 0.930 . S
H515 C507 0.929 . S
H516 C524 0.929 . S
H517 C526 0.930 . S
H518 C528 0.930 1_455 S
H519 C531 0.931 . S
H520 C534 0.930 . S
H521 C536 0.960 . S
H522 C536 0.960 . S
H523 C536 0.960 . S
C524 H516 0.929 . S
C524 C525 1.377 . S
C524 C526 1.384 . S
C525 C524 1.377 . S
C525 C531 1.390 . S
C526 H517 0.930 . S
C526 C524 1.384 . S
C526 C527 1.372 . S
C527 C526 1.372 . S
C527 C528 1.400 . S
C527 C532 1.490 . S
C528 H518 0.930 1_655 S
C528 C527 1.400 . S
C528 C531 1.386 . S
H529 C545 0.930 . S
H530 C546 0.931 . S
C531 H519 0.931 . S
C531 C525 1.390 . S
C531 C528 1.386 . S
C532 C527 1.490 . S
C532 C534 1.395 . S
C532 C535 1.403 1_655 S
H533 C539 0.930 . S
C534 H520 0.930 . S
C534 C532 1.395 . S
C534 C537 1.403 . S
C535 C532 1.403 1_455 S
C535 C536 1.524 . S
C535 C539 1.400 . S
C536 H521 0.960 . S
C536 H522 0.960 . S
C536 H523 0.960 . S
C536 C535 1.524 . S
C537 C534 1.403 . S
C537 C538 1.392 1_655 S
C537 C541 1.495 . S
C538 C537 1.392 1_455 S
C538 C539 1.385 . S
C538 C540 1.478 . S
C539 H533 0.930 . S
C539 C535 1.400 . S
C539 C538 1.385 . S
C540 C538 1.478 . S
C540 C542 1.381 1_455 S
C540 C546 1.383 . S
C541 C537 1.495 . S
C541 H547 0.959 . S
C541 H548 0.961 . S
C541 H549 0.960 . S
C542 C540 1.381 1_655 S
C542 C543 1.393 1_655 S
C542 H550 0.931 . S
C543 C542 1.393 1_455 S
C543 C544 1.383 . S
C543 H551 0.929 . S
C544 C543 1.383 . S
C544 C545 1.377 . S
C545 H529 0.930 . S
C545 C544 1.377 . S
C545 C546 1.379 . S
C546 H530 0.931 . S
C546 C540 1.383 . S
C546 C545 1.379 . S
H547 C541 0.959 . S
H548 C541 0.961 . S
H549 C541 0.960 . S
H550 C542 0.931 . S
H551 C543 0.929 . S
H552 C560 0.929 . S
H553 C562 0.930 . S
H554 C564 0.930 . S
H555 C567 0.929 1_545 S
H556 C570 0.930 . S
H557 C572 0.960 . S
H558 C572 0.960 . S
H559 C572 0.960 . S
C560 H552 0.929 . S
C560 C561 1.377 . S
C560 C562 1.384 . S
C561 C560 1.377 . S
C561 C567 1.390 . S
C562 H553 0.930 . S
C562 C560 1.384 . S
C562 C563 1.372 . S
C563 C562 1.372 . S
C563 C564 1.400 1_565 S
C563 C568 1.490 . S
C564 H554 0.930 . S
C564 C563 1.400 1_545 S
C564 C567 1.386 1_545 S
H565 C581 0.930 . S
H566 C582 0.931 . S
C567 H555 0.929 1_565 S
C567 C561 1.390 . S
C567 C564 1.386 1_565 S
C568 C563 1.490 . S
C568 C570 1.395 . S
C568 C571 1.403 . S
H569 C575 0.936 1_545 S
C570 H556 0.930 . S
C570 C568 1.395 . S
C570 C573 1.403 1_565 S
C571 C568 1.403 . S
C571 C572 1.524 . S
C571 C575 1.400 . S
C572 H557 0.960 . S
C572 H558 0.960 . S
C572 H559 0.960 . S
C572 C571 1.524 . S
C573 C570 1.403 1_545 S
C573 C574 1.392 . S
C573 C577 1.495 . S
C574 C573 1.392 . S
C574 C575 1.385 1_545 S
C574 C576 1.478 . S
C575 H569 0.936 1_565 S
C575 C571 1.400 . S
C575 C574 1.385 1_565 S
C576 C574 1.478 . S
C576 C578 1.381 1_545 S
C576 C582 1.383 . S
C577 C573 1.495 . S
C577 H583 0.959 . S
C577 H584 0.961 . S
C577 H585 0.960 . S
C578 C576 1.381 1_565 S
C578 C579 1.394 1_565 S
C578 H586 0.930 . S
C579 C578 1.394 1_545 S
C579 C580 1.383 . S
C579 H587 0.929 1_545 S
C580 C579 1.383 . S
C580 C581 1.377 . S
C581 H565 0.930 . S
C581 C580 1.377 . S
C581 C582 1.379 . S
C582 H566 0.931 . S
C582 C576 1.383 . S
C582 C581 1.379 . S
H583 C577 0.959 . S
H584 C577 0.961 . S
H585 C577 0.960 . S
H586 C578 0.930 . S
H587 C579 0.929 1_565 S
H588 C596 0.929 . S
H589 C598 0.930 . S
H590 C600 0.930 . S
H591 C603 0.915 1_565 S
H592 C606 0.930 . S
H593 C608 0.960 . S
H594 C608 0.960 . S
H595 C608 0.960 . S
C596 H588 0.929 . S
C596 C597 1.377 . S
C596 C598 1.384 . S
C597 C596 1.377 . S
C597 C603 1.389 . S
C598 H589 0.930 . S
C598 C596 1.384 . S
C598 C599 1.372 . S
C599 C598 1.372 . S
C599 C600 1.400 . S
C599 C604 1.490 . S
C600 H590 0.930 . S
C600 C599 1.400 . S
C600 C603 1.402 . S
H601 C617 0.930 . S
H602 C618 0.931 . S
C603 H591 0.915 1_545 S
C603 C597 1.389 . S
C603 C600 1.402 . S
C604 C599 1.490 . S
C604 C606 1.395 . S
C604 C607 1.403 . S
H605 C611 0.930 . S
C606 H592 0.930 . S
C606 C604 1.395 . S
C606 C609 1.403 . S
C607 C604 1.403 . S
C607 C608 1.524 . S
C607 C611 1.400 . S
C608 H593 0.960 . S
C608 H594 0.960 . S
C608 H595 0.960 . S
C608 C607 1.524 . S
C609 C606 1.403 . S
C609 C610 1.392 . S
C609 C613 1.495 . S
C610 C609 1.392 . S
C610 C611 1.385 . S
C610 C612 1.478 . S
C611 H605 0.930 . S
C611 C607 1.400 . S
C611 C610 1.385 . S
C612 C610 1.478 . S
C612 C614 1.381 . S
C612 C618 1.383 . S
C613 C609 1.495 . S
C613 H619 0.959 . S
C613 H620 0.961 . S
C613 H621 0.960 . S
C614 C612 1.381 . S
C614 C615 1.394 . S
C614 H622 0.930 . S
C615 C614 1.394 . S
C615 C616 1.383 . S
C615 H623 0.929 . S
C616 C615 1.383 . S
C616 C617 1.377 . S
C617 H601 0.930 . S
C617 C616 1.377 . S
C617 C618 1.379 . S
C618 H602 0.931 . S
C618 C612 1.383 . S
C618 C617 1.379 . S
H619 C613 0.959 . S
H620 C613 0.961 . S
H621 C613 0.960 . S
H622 C614 0.930 . S
H623 C615 0.929 . S
H624 C632 0.928 . S
H625 C634 0.930 . S
H626 C636 0.930 . S
H627 C639 0.929 . S
H628 C642 0.930 . S
H629 C644 0.960 . S
H630 C644 0.960 . S
H631 C644 0.960 . S
C632 H624 0.928 . S
C632 C633 1.377 1_655 S
C632 C634 1.385 1_655 S
C633 C632 1.377 1_455 S
C633 C639 1.390 . S
C634 H625 0.930 . S
C634 C632 1.385 1_455 S
C634 C635 1.372 . S
C635 C634 1.372 . S
C635 C636 1.400 . S
C635 C640 1.490 . S
C636 H626 0.930 . S
C636 C635 1.400 . S
C636 C639 1.386 . S
H637 C653 0.930 . S
H638 C654 0.931 . S
C639 H627 0.929 . S
C639 C633 1.390 . S
C639 C636 1.386 . S
C640 C635 1.490 . S
C640 C642 1.395 . S
C640 C643 1.403 . S
H641 C647 0.930 . S
C642 H628 0.930 . S
C642 C640 1.395 . S
C642 C645 1.403 . S
C643 C640 1.403 . S
C643 C644 1.524 . S
C643 C647 1.400 . S
C644 H629 0.960 . S
C644 H630 0.960 . S
C644 H631 0.960 . S
C644 C643 1.524 . S
C645 C642 1.403 . S
C645 C646 1.392 . S
C645 C649 1.495 . S
C646 C645 1.392 . S
C646 C647 1.385 . S
C646 C648 1.478 . S
C647 H641 0.930 . S
C647 C643 1.400 . S
C647 C646 1.385 . S
C648 C646 1.478 . S
C648 C650 1.381 . S
C648 C654 1.383 . S
C649 C645 1.495 . S
C649 H655 0.959 . S
C649 H656 0.961 . S
C649 H657 0.960 . S
C650 C648 1.381 . S
C650 C651 1.394 . S
C650 H658 0.930 . S
C651 C650 1.394 . S
C651 C652 1.383 . S
C651 H659 0.929 . S
C652 C651 1.383 . S
C652 C653 1.377 . S
C653 H637 0.930 . S
C653 C652 1.377 . S
C653 C654 1.379 . S
C654 H638 0.931 . S
C654 C648 1.383 . S
C654 C653 1.379 . S
H655 C649 0.959 . S
H656 C649 0.961 . S
H657 C649 0.960 . S
H658 C650 0.930 . S
H659 C651 0.929 . S
H660 C668 0.929 . S
H661 C670 0.930 . S
H662 C672 0.930 . S
H663 C675 0.929 . S
H664 C678 0.930 . S
H665 C680 0.960 . S
H666 C680 0.960 . S
H667 C680 0.960 . S
C668 H660 0.929 . S
C668 C669 1.377 . S
C668 C670 1.384 . S
C669 C668 1.377 . S
C669 C675 1.390 . S
C670 H661 0.930 . S
C670 C668 1.384 . S
C670 C671 1.372 . S
C671 C670 1.372 . S
C671 C672 1.400 . S
C671 C676 1.490 . S
C672 H662 0.930 . S
C672 C671 1.400 . S
C672 C675 1.386 . S
H673 C689 0.930 . S
H674 C690 0.931 . S
C675 H663 0.929 . S
C675 C669 1.390 . S
C675 C672 1.386 . S
C676 C671 1.490 . S
C676 C678 1.395 . S
C676 C679 1.403 . S
H677 C683 0.930 . S
C678 H664 0.930 . S
C678 C676 1.395 . S
C678 C681 1.403 . S
C679 C676 1.403 . S
C679 C680 1.524 . S
C679 C683 1.400 . S
C680 H665 0.960 . S
C680 H666 0.960 . S
C680 H667 0.960 . S
C680 C679 1.524 . S
C681 C678 1.403 . S
C681 C682 1.392 . S
C681 C685 1.495 . S
C682 C681 1.392 . S
C682 C683 1.385 . S
C682 C684 1.478 . S
C683 H677 0.930 . S
C683 C679 1.400 . S
C683 C682 1.385 . S
C684 C682 1.478 . S
C684 C686 1.381 . S
C684 C690 1.383 . S
C685 C681 1.495 . S
C685 H691 0.959 . S
C685 H692 0.961 . S
C685 H693 0.960 . S
C686 C684 1.381 . S
C686 C687 1.394 1_545 S
C686 H694 0.930 . S
C687 C686 1.394 1_565 S
C687 C688 1.383 1_565 S
C687 H695 0.929 . S
C688 C687 1.383 1_545 S
C688 C689 1.377 . S
C689 H673 0.930 . S
C689 C688 1.377 . S
C689 C690 1.379 . S
C690 H674 0.931 . S
C690 C684 1.383 . S
C690 C689 1.379 . S
H691 C685 0.959 . S
H692 C685 0.961 . S
H693 C685 0.960 . S
H694 C686 0.930 . S
H695 C687 0.929 . S
H696 C704 0.929 . S
H697 C706 0.930 . S
H698 C708 0.930 . S
H699 C711 0.926 1_545 S
H700 C714 0.930 . S
H701 C716 0.960 . S
H702 C716 0.960 . S
H703 C716 0.960 . S
C704 H696 0.929 . S
C704 C705 1.377 . S
C704 C706 1.384 . S
C705 C704 1.377 . S
C705 C711 1.390 . S
C706 H697 0.930 . S
C706 C704 1.384 . S
C706 C707 1.372 . S
C707 C706 1.372 . S
C707 C708 1.400 . S
C707 C712 1.490 . S
C708 H698 0.930 . S
C708 C707 1.400 . S
C708 C711 1.386 . S
H709 C725 0.930 . S
H710 C726 0.931 . S
C711 H699 0.926 1_565 S
C711 C705 1.390 . S
C711 C708 1.386 . S
C712 C707 1.490 . S
C712 C714 1.395 . S
C712 C715 1.403 . S
H713 C719 0.930 . S
C714 H700 0.930 . S
C714 C712 1.395 . S
C714 C717 1.403 . S
C715 C712 1.403 . S
C715 C716 1.524 . S
C715 C719 1.400 . S
C716 H701 0.960 . S
C716 H702 0.960 . S
C716 H703 0.960 . S
C716 C715 1.524 . S
C717 C714 1.403 . S
C717 C718 1.392 . S
C717 C721 1.495 . S
C718 C717 1.392 . S
C718 C719 1.385 . S
C718 C720 1.478 . S
C719 H713 0.930 . S
C719 C715 1.400 . S
C719 C718 1.385 . S
C720 C718 1.478 . S
C720 C722 1.381 . S
C720 C726 1.383 . S
C721 C717 1.495 . S
C721 H727 0.959 . S
C721 H728 0.961 . S
C721 H729 0.960 . S
C722 C720 1.381 . S
C722 C723 1.394 . S
C722 H730 0.930 . S
C723 C722 1.394 . S
C723 C724 1.383 . S
C723 H731 0.929 . S
C724 C723 1.383 . S
C724 C725 1.377 . S
C725 H709 0.930 . S
C725 C724 1.377 . S
C725 C726 1.379 . S
C726 H710 0.931 . S
C726 C720 1.383 . S
C726 C725 1.379 . S
H727 C721 0.959 . S
H728 C721 0.961 . S
H729 C721 0.960 . S
H730 C722 0.930 . S
H731 C723 0.929 . S
H732 C740 0.929 . S
H733 C742 0.930 . S
H734 C744 0.930 . S
H735 C747 0.929 . S
H736 C750 0.930 . S
H737 C752 0.960 . S
H738 C752 0.960 . S
H739 C752 0.960 . S
C740 H732 0.929 . S
C740 C741 1.377 . S
C740 C742 1.384 . S
C741 C740 1.377 . S
C741 C747 1.390 . S
C742 H733 0.930 . S
C742 C740 1.384 . S
C742 C743 1.372 . S
C743 C742 1.372 . S
C743 C744 1.400 . S
C743 C748 1.490 . S
C744 H734 0.930 . S
C744 C743 1.400 . S
C744 C747 1.386 . S
H745 C761 0.930 1_455 S
H746 C762 0.931 . S
C747 H735 0.929 . S
C747 C741 1.390 . S
C747 C744 1.386 . S
C748 C743 1.490 . S
C748 C750 1.395 . S
C748 C751 1.403 . S
H749 C755 0.930 . S
C750 H736 0.930 . S
C750 C748 1.395 . S
C750 C753 1.403 . S
C751 C748 1.403 . S
C751 C752 1.524 . S
C751 C755 1.400 . S
C752 H737 0.960 . S
C752 H738 0.960 . S
C752 H739 0.960 . S
C752 C751 1.524 . S
C753 C750 1.403 . S
C753 C754 1.392 . S
C753 C757 1.495 . S
C754 C753 1.392 . S
C754 C755 1.385 . S
C754 C756 1.478 . S
C755 H749 0.930 . S
C755 C751 1.400 . S
C755 C754 1.385 . S
C756 C754 1.478 . S
C756 C758 1.381 . S
C756 C762 1.383 . S
C757 C753 1.495 . S
C757 H763 0.959 . S
C757 H764 0.961 . S
C757 H765 0.960 . S
C758 C756 1.381 . S
C758 C759 1.394 . S
C758 H766 0.930 . S
C759 C758 1.394 . S
C759 C760 1.383 . S
C759 H767 0.929 . S
C760 C759 1.383 . S
C760 C761 1.377 . S
C761 H745 0.930 1_655 S
C761 C760 1.377 . S
C761 C762 1.379 . S
C762 H746 0.931 . S
C762 C756 1.383 . S
C762 C761 1.379 . S
H763 C757 0.959 . S
H764 C757 0.961 . S
H765 C757 0.960 . S
H766 C758 0.930 . S
H767 C759 0.929 . S
H768 C776 0.929 1_545 S
H769 C778 0.930 . S
H770 C780 0.930 . S
H771 C783 0.929 . S
H772 C786 0.930 . S
H773 C788 0.960 . S
H774 C788 0.960 . S
H775 C788 0.960 . S
C776 H768 0.929 1_565 S
C776 C777 1.377 . S
C776 C778 1.384 . S
C777 C776 1.377 . S
C777 C783 1.390 . S
C778 H769 0.930 . S
C778 C776 1.384 . S
C778 C779 1.372 . S
C779 C778 1.372 . S
C779 C780 1.400 . S
C779 C784 1.490 . S
C780 H770 0.930 . S
C780 C779 1.400 . S
C780 C783 1.386 . S
H781 C797 0.930 1_655 S
H782 C798 0.931 . S
C783 H771 0.929 . S
C783 C777 1.390 . S
C783 C780 1.386 . S
C784 C779 1.490 . S
C784 C786 1.395 . S
C784 C787 1.403 . S
H785 C791 0.930 . S
C786 H772 0.930 . S
C786 C784 1.395 . S
C786 C789 1.403 . S
C787 C784 1.403 . S
C787 C788 1.524 . S
C787 C791 1.400 . S
C788 H773 0.960 . S
C788 H774 0.960 . S
C788 H775 0.960 . S
C788 C787 1.524 . S
C789 C786 1.403 . S
C789 C790 1.392 . S
C789 C793 1.495 . S
C790 C789 1.392 . S
C790 C791 1.385 . S
C790 C792 1.478 . S
C791 H785 0.930 . S
C791 C787 1.400 . S
C791 C790 1.385 . S
C792 C790 1.478 . S
C792 C794 1.381 . S
C792 C798 1.383 . S
C793 C789 1.495 . S
C793 H799 0.959 . S
C793 H800 0.961 . S
C793 H801 0.960 . S
C794 C792 1.381 . S
C794 C795 1.394 . S
C794 H802 0.930 . S
C795 C794 1.394 . S
C795 C796 1.383 . S
C795 H803 0.929 . S
C796 C795 1.383 . S
C796 C797 1.377 . S
C797 H781 0.930 1_455 S
C797 C796 1.377 . S
C797 C798 1.379 . S
C798 H782 0.931 . S
C798 C792 1.383 . S
C798 C797 1.379 . S
H799 C793 0.959 . S
H800 C793 0.961 . S
H801 C793 0.960 . S
H802 C794 0.930 . S
H803 C795 0.929 . S
H804 C812 0.929 . S
H805 C814 0.930 . S
H806 C816 0.930 . S
H807 C819 0.929 . S
H808 C822 0.930 . S
H809 C824 0.960 . S
H810 C824 0.960 . S
H811 C824 0.960 . S
C812 H804 0.929 . S
C812 C813 1.377 . S
C812 C814 1.384 . S
C813 C812 1.377 . S
C813 C819 1.390 . S
C814 H805 0.930 . S
C814 C812 1.384 . S
C814 C815 1.372 . S
C815 C814 1.372 . S
C815 C816 1.400 . S
C815 C820 1.490 . S
C816 H806 0.930 . S
C816 C815 1.400 . S
C816 C819 1.386 . S
H817 C833 0.930 . S
H818 C834 0.931 . S
C819 H807 0.929 . S
C819 C813 1.390 . S
C819 C816 1.386 . S
C820 C815 1.490 . S
C820 C822 1.395 . S
C820 C823 1.403 . S
H821 C827 0.930 . S
C822 H808 0.930 . S
C822 C820 1.395 . S
C822 C825 1.403 . S
C823 C820 1.403 . S
C823 C824 1.524 . S
C823 C827 1.400 . S
C824 H809 0.960 . S
C824 H810 0.960 . S
C824 H811 0.960 . S
C824 C823 1.524 . S
C825 C822 1.403 . S
C825 C826 1.392 . S
C825 C829 1.495 . S
C826 C825 1.392 . S
C826 C827 1.385 . S
C826 C828 1.478 . S
C827 H821 0.930 . S
C827 C823 1.400 . S
C827 C826 1.385 . S
C828 C826 1.478 . S
C828 C830 1.381 . S
C828 C834 1.383 . S
C829 C825 1.495 . S
C829 H835 0.959 . S
C829 H836 0.961 . S
C829 H837 0.960 . S
C830 C828 1.381 . S
C830 C831 1.394 . S
C830 H838 0.930 . S
C831 C830 1.394 . S
C831 C832 1.383 . S
C831 H839 0.929 . S
C832 C831 1.383 . S
C832 C833 1.377 . S
C833 H817 0.930 . S
C833 C832 1.377 . S
C833 C834 1.379 . S
C834 H818 0.931 . S
C834 C828 1.383 . S
C834 C833 1.379 . S
H835 C829 0.959 . S
H836 C829 0.961 . S
H837 C829 0.960 . S
H838 C830 0.930 . S
H839 C831 0.929 . S
H840 C848 0.929 . S
H841 C850 0.930 . S
H842 C852 0.930 . S
H843 C855 0.929 1_455 S
H844 C858 0.930 . S
H845 C860 0.960 . S
H846 C860 0.946 1_655 S
H847 C860 0.968 . S
C848 H840 0.929 . S
C848 C849 1.377 . S
C848 C850 1.384 . S
C849 C848 1.377 . S
C849 C855 1.390 . S
C850 H841 0.930 . S
C850 C848 1.384 . S
C850 C851 1.372 . S
C851 C850 1.372 . S
C851 C852 1.400 1_655 S
C851 C856 1.490 . S
C852 H842 0.930 . S
C852 C851 1.400 1_455 S
C852 C855 1.386 1_455 S
H853 C869 0.930 . S
H854 C870 0.931 . S
C855 H843 0.929 1_655 S
C855 C849 1.390 . S
C855 C852 1.386 1_655 S
C856 C851 1.490 . S
C856 C858 1.395 . S
C856 C859 1.399 . S
H857 C863 0.930 . S
C858 H844 0.930 . S
C858 C856 1.395 . S
C858 C861 1.403 . S
C859 C856 1.399 . S
C859 C860 1.541 1_655 S
C859 C863 1.393 1_655 S
C860 H845 0.960 . S
C860 H846 0.946 1_455 S
C860 H847 0.968 . S
C860 C859 1.541 1_455 S
C861 C858 1.403 . S
C861 C862 1.392 1_655 S
C861 C865 1.495 . S
C862 C861 1.392 1_455 S
C862 C863 1.385 . S
C862 C864 1.478 . S
C863 H857 0.930 . S
C863 C859 1.393 1_455 S
C863 C862 1.385 . S
C864 C862 1.478 . S
C864 C866 1.381 1_455 S
C864 C870 1.383 . S
C865 C861 1.495 . S
C865 H871 0.959 . S
C865 H872 0.961 1_655 S
C865 H873 0.960 . S
C866 C864 1.381 1_655 S
C866 C867 1.394 1_655 S
C866 H874 0.930 . S
C867 C866 1.394 1_455 S
C867 C868 1.383 . S
C867 H875 0.929 1_455 S
C868 C867 1.383 . S
C868 C869 1.377 . S
C869 H853 0.930 . S
C869 C868 1.377 . S
C869 C870 1.379 . S
C870 H854 0.931 . S
C870 C864 1.383 . S
C870 C869 1.379 . S
H871 C865 0.959 . S
H872 C865 0.961 1_455 S
H873 C865 0.960 . S
H874 C866 0.930 . S
H875 C867 0.929 1_655 S
H876 C884 0.929 . S
H877 C886 0.930 1_565 S
H878 C888 0.930 . S
H879 C891 0.929 . S
H880 C894 0.930 . S
H881 C896 0.960 1_556 S
H882 C896 0.960 . S
H883 C896 0.960 . S
C884 H876 0.929 . S
C884 C885 1.377 . S
C884 C886 1.384 . S
C885 C884 1.377 . S
C885 C891 1.390 . S
C886 H877 0.930 1_545 S
C886 C884 1.384 . S
C886 C887 1.372 . S
C887 C886 1.372 . S
C887 C888 1.400 . S
C887 C892 1.490 . S
C888 H878 0.930 . S
C888 C887 1.400 . S
C888 C891 1.386 . S
H889 C905 0.930 . S
H890 C906 0.931 1_545 S
C891 H879 0.929 . S
C891 C885 1.390 . S
C891 C888 1.386 . S
C892 C887 1.490 . S
C892 C894 1.395 1_545 S
C892 C895 1.403 . S
H893 C899 0.930 . S
C894 H880 0.930 . S
C894 C892 1.395 1_565 S
C894 C897 1.403 1_554 S
C895 C892 1.403 . S
C895 C896 1.524 . S
C895 C899 1.400 1_554 S
C896 H881 0.960 1_554 S
C896 H882 0.960 . S
C896 H883 0.960 . S
C896 C895 1.524 . S
C897 C894 1.403 1_556 S
C897 C898 1.392 . S
C897 C901 1.495 . S
C898 C897 1.392 . S
C898 C899 1.385 1_565 S
C898 C900 1.478 . S
C899 H893 0.930 . S
C899 C895 1.400 1_556 S
C899 C898 1.385 1_545 S
C900 C898 1.478 . S
C900 C902 1.381 . S
C900 C906 1.383 . S
C901 C897 1.495 . S
C901 H907 0.959 1_556 S
C901 H908 0.961 . S
C901 H909 0.960 . S
C902 C900 1.381 . S
C902 C903 1.394 . S
C902 H910 0.930 . S
C903 C902 1.394 . S
C903 C904 1.383 . S
C903 H911 0.929 . S
C904 C903 1.383 . S
C904 C905 1.377 . S
C905 H889 0.930 . S
C905 C904 1.377 . S
C905 C906 1.379 . S
C906 H890 0.931 1_565 S
C906 C900 1.383 . S
C906 C905 1.379 . S
H907 C901 0.959 1_554 S
H908 C901 0.961 . S
H909 C901 0.960 . S
H910 C902 0.930 . S
H911 C903 0.929 . S
H912 C920 0.929 . S
H913 C922 0.930 . S
H914 C924 0.930 . S
H915 C927 0.929 . S
H916 C930 0.930 . S
H917 C932 0.960 . S
H918 C932 0.960 . S
H919 C932 0.960 . S
C920 H912 0.929 . S
C920 C921 1.377 . S
C920 C922 1.384 . S
C921 C920 1.377 . S
C921 C927 1.390 . S
C922 H913 0.930 . S
C922 C920 1.384 . S
C922 C923 1.372 . S
C923 C922 1.372 . S
C923 C924 1.400 . S
C923 C928 1.490 . S
C924 H914 0.930 . S
C924 C923 1.400 . S
C924 C927 1.386 . S
H925 C941 0.930 . S
H926 C942 0.931 . S
C927 H915 0.929 . S
C927 C921 1.390 . S
C927 C924 1.386 . S
C928 C923 1.490 . S
C928 C930 1.395 . S
C928 C931 1.403 . S
H929 C935 0.930 . S
C930 H916 0.930 . S
C930 C928 1.395 . S
C930 C933 1.403 . S
C931 C928 1.403 . S
C931 C932 1.524 . S
C931 C935 1.400 . S
C932 H917 0.960 . S
C932 H918 0.960 . S
C932 H919 0.960 . S
C932 C931 1.524 . S
C933 C930 1.403 . S
C933 C934 1.392 . S
C933 C937 1.495 . S
C934 C933 1.392 . S
C934 C935 1.385 . S
C934 C936 1.478 . S
C935 H929 0.930 . S
C935 C931 1.400 . S
C935 C934 1.385 . S
C936 C934 1.478 . S
C936 C938 1.381 . S
C936 C942 1.383 . S
C937 C933 1.495 . S
C937 H943 0.959 . S
C937 H944 0.961 . S
C937 H945 0.960 . S
C938 C936 1.381 . S
C938 C939 1.394 . S
C938 H946 0.930 . S
C939 C938 1.394 . S
C939 C940 1.383 . S
C939 H947 0.929 . S
C940 C939 1.383 . S
C940 C941 1.377 . S
C941 H925 0.930 . S
C941 C940 1.377 . S
C941 C942 1.379 . S
C942 H926 0.931 . S
C942 C936 1.383 . S
C942 C941 1.379 . S
H943 C937 0.959 . S
H944 C937 0.961 . S
H945 C937 0.960 . S
H946 C938 0.930 . S
H947 C939 0.929 . S
H948 C956 0.929 1_655 S
H949 C958 0.930 . S
H950 C960 0.930 . S
H951 C963 0.929 . S
H952 C966 0.930 . S
H953 C968 0.960 . S
H954 C968 0.960 . S
H955 C968 0.960 . S
C956 H948 0.929 1_455 S
C956 C957 1.377 . S
C956 C958 1.384 1_455 S
C957 C956 1.377 . S
C957 C963 1.390 . S
C958 H949 0.930 . S
C958 C956 1.384 1_655 S
C958 C959 1.372 1_655 S
C959 C958 1.372 1_455 S
C959 C960 1.400 . S
C959 C964 1.490 . S
C960 H950 0.930 . S
C960 C959 1.400 . S
C960 C963 1.386 . S
H961 C977 0.930 1_455 S
H962 C978 0.917 1_455 S
C963 H951 0.929 . S
C963 C957 1.390 . S
C963 C960 1.386 . S
C964 C959 1.490 . S
C964 C966 1.395 1_455 S
C964 C967 1.403 . S
H965 C971 0.930 . S
C966 H952 0.930 . S
C966 C964 1.395 1_655 S
C966 C969 1.403 . S
C967 C964 1.403 . S
C967 C968 1.524 . S
C967 C971 1.400 . S
C968 H953 0.960 . S
C968 H954 0.960 . S
C968 H955 0.960 . S
C968 C967 1.524 . S
C969 C966 1.403 . S
C969 C970 1.392 . S
C969 C973 1.495 . S
C970 C969 1.392 . S
C970 C971 1.385 1_655 S
C970 C972 1.478 . S
C971 H965 0.930 . S
C971 C967 1.400 . S
C971 C970 1.385 1_455 S
C972 C970 1.478 . S
C972 C974 1.381 . S
C972 C978 1.393 . S
C973 C969 1.495 . S
C973 H979 0.959 . S
C973 H980 0.961 . S
C973 H981 0.960 . S
C974 C972 1.381 . S
C974 C975 1.394 . S
C974 H982 0.930 . S
C975 C974 1.394 . S
C975 C976 1.383 . S
C975 H983 0.929 . S
C976 C975 1.383 . S
C976 C977 1.377 . S
C977 H961 0.930 1_655 S
C977 C976 1.377 . S
C977 C978 1.383 . S
C978 H962 0.917 1_655 S
C978 C972 1.393 . S
C978 C977 1.383 . S
H979 C973 0.959 . S
H980 C973 0.961 . S
H981 C973 0.960 . S
H982 C974 0.930 . S
H983 C975 0.929 . S
H984 C992 0.929 . S
H985 C994 0.930 . S
H986 C996 0.930 . S
H987 C999 0.929 . S
H988 C1002 0.930 . S
H989 C1004 0.960 . S
H990 C1004 0.960 . S
H991 C1004 0.960 . S
C992 H984 0.929 . S
C992 C993 1.377 . S
C992 C994 1.384 . S
C993 C992 1.377 . S
C993 C999 1.390 . S
C994 H985 0.930 . S
C994 C992 1.384 . S
C994 C995 1.372 . S
C995 C994 1.372 . S
C995 C996 1.400 . S
C995 C1000 1.490 . S
C996 H986 0.930 . S
C996 C995 1.400 . S
C996 C999 1.386 . S
H997 C1013 0.930 . S
H998 C1014 0.931 . S
C999 H987 0.929 . S
C999 C993 1.390 . S
C999 C996 1.386 . S
C1000 C995 1.490 . S
C1000 C1002 1.395 . S
C1000 C1003 1.403 1_565 S
H1001 C1007 0.930 . S
C1002 H988 0.930 . S
C1002 C1000 1.395 . S
C1002 C1005 1.403 1_554 S
C1003 C1000 1.403 1_545 S
C1003 C1004 1.524 . S
C1003 C1007 1.400 1_554 S
C1004 H989 0.960 . S
C1004 H990 0.960 . S
C1004 H991 0.960 . S
C1004 C1003 1.524 . S
C1005 C1002 1.403 1_556 S
C1005 C1006 1.392 1_565 S
C1005 C1009 1.495 . S
C1006 C1005 1.392 1_545 S
C1006 C1007 1.385 . S
C1006 C1008 1.478 . S
C1007 H1001 0.930 . S
C1007 C1003 1.400 1_556 S
C1007 C1006 1.385 . S
C1008 C1006 1.478 . S
C1008 C1010 1.381 . S
C1008 C1014 1.383 . S
C1009 C1005 1.495 . S
C1009 H1015 0.959 . S
C1009 H1016 0.961 . S
C1009 H1017 0.960 . S
C1010 C1008 1.381 . S
C1010 C1011 1.394 . S
C1010 H1018 0.930 . S
C1011 C1010 1.394 . S
C1011 C1012 1.383 . S
C1011 H1019 0.929 . S
C1012 C1011 1.383 . S
C1012 C1013 1.377 . S
C1013 H997 0.930 . S
C1013 C1012 1.377 . S
C1013 C1014 1.379 . S
C1014 H998 0.931 . S
C1014 C1008 1.383 . S
C1014 C1013 1.379 . S
H1015 C1009 0.959 . S
H1016 C1009 0.961 . S
H1017 C1009 0.960 . S
H1018 C1010 0.930 . S
H1019 C1011 0.929 . S
C165 C148 1.841 . S
C184 C3 1.843 . S
C201 C16 1.836 . S
C220 C81 1.821 . S
C237 C31 1.838 . S
C256 C94 1.842 . S
C273 C44 1.836 . S
C292 C107 1.827 . S
C309 C122 1.840 . S
C328 C55 1.847 . S
C345 C68 1.836 . S
C364 C135 1.820 . S
C381 C43 1.422 . S
C400 C10 1.427 . S
C417 C62 1.420 . S
C436 C23 1.408 . S
C453 C75 1.420 . S
C472 C30 1.409 . S
C489 C88 1.419 . S
C508 C121 1.414 . S
C525 C101 1.421 . S
C544 C134 1.408 . S
C561 C114 1.423 . S
C580 C147 1.418 . S
C597 C109 0.248 . S
C616 C5 0.279 . S
C633 C18 0.240 . S
C652 C120 0.240 . S
C669 C133 0.237 . S
C688 C29 0.229 . S
C705 C146 0.239 . S
C724 C42 0.239 . S
C741 C83 0.252 . S
C760 C57 0.294 . S
C777 C70 0.245 . S
C796 C96 0.260 . S
C813 C127 1.642 . S
C832 C4 1.651 . S
C849 C17 1.644 . S
C868 C140 1.639 . S
C885 C153 1.643 . S
C904 C36 1.652 . S
C921 C49 1.641 . S
C940 C82 1.625 . S
C957 C56 1.641 . S
C976 C95 1.645 . S
C993 C108 1.639 . S
C1012 C69 1.623 . S
