# Generated by pormake.
# Topology ato, (4)-cn, num edge types: 1
# Building blocks:
#     Node 0, Type 0, BuildingBlock: KUFVIS_clean_sbu_0, # of connection points: 4
#     Node 1, Type 0, BuildingBlock: KUFVIS_clean_sbu_0, # of connection points: 4
#     Node 2, Type 0, BuildingBlock: KUFVIS_clean_sbu_0, # of connection points: 4
#     Node 3, Type 0, BuildingBlock: KUFVIS_clean_sbu_0, # of connection points: 4
#     Node 4, Type 0, BuildingBlock: KUFVIS_clean_sbu_0, # of connection points: 4
#     Node 5, Type 0, BuildingBlock: KUFVIS_clean_sbu_0, # of connection points: 4
#     Node 6, Type 0, BuildingBlock: KUFVIS_clean_sbu_0, # of connection points: 4
#     Node 7, Type 0, BuildingBlock: KUFVIS_clean_sbu_0, # of connection points: 4
#     Node 8, Type 0, BuildingBlock: KUFVIS_clean_sbu_0, # of connection points: 4
#     Node 9, Type 0, BuildingBlock: KUFVIS_clean_sbu_0, # of connection points: 4
#     Node 10, Type 0, BuildingBlock: KUFVIS_clean_sbu_0, # of connection points: 4
#     Node 11, Type 0, BuildingBlock: KUFVIS_clean_sbu_0, # of connection points: 4
#     Node 12, Type 0, BuildingBlock: KUFVIS_clean_sbu_0, # of connection points: 4
#     Node 13, Type 0, BuildingBlock: KUFVIS_clean_sbu_0, # of connection points: 4
#     Node 14, Type 0, BuildingBlock: KUFVIS_clean_sbu_0, # of connection points: 4
#     Node 15, Type 0, BuildingBlock: KUFVIS_clean_sbu_0, # of connection points: 4
#     Node 16, Type 0, BuildingBlock: KUFVIS_clean_sbu_0, # of connection points: 4
#     Node 17, Type 0, BuildingBlock: KUFVIS_clean_sbu_0, # of connection points: 4
#     Node 18, Type 0, BuildingBlock: KUFVIS_clean_sbu_0, # of connection points: 4
#     Node 19, Type 0, BuildingBlock: KUFVIS_clean_sbu_0, # of connection points: 4
#     Node 20, Type 0, BuildingBlock: KUFVIS_clean_sbu_0, # of connection points: 4
#     Node 21, Type 0, BuildingBlock: KUFVIS_clean_sbu_0, # of connection points: 4
#     Node 22, Type 0, BuildingBlock: KUFVIS_clean_sbu_0, # of connection points: 4
#     Node 23, Type 0, BuildingBlock: KUFVIS_clean_sbu_0, # of connection points: 4
#     Node 24, Type 0, BuildingBlock: KUFVIS_clean_sbu_0, # of connection points: 4
#     Node 25, Type 0, BuildingBlock: KUFVIS_clean_sbu_0, # of connection points: 4
#     Node 26, Type 0, BuildingBlock: KUFVIS_clean_sbu_0, # of connection points: 4
#     Node 27, Type 0, BuildingBlock: KUFVIS_clean_sbu_0, # of connection points: 4
#     Node 28, Type 0, BuildingBlock: KUFVIS_clean_sbu_0, # of connection points: 4
#     Node 29, Type 0, BuildingBlock: KUFVIS_clean_sbu_0, # of connection points: 4
#     Node 30, Type 0, BuildingBlock: KUFVIS_clean_sbu_0, # of connection points: 4
#     Node 31, Type 0, BuildingBlock: KUFVIS_clean_sbu_0, # of connection points: 4
#     Node 32, Type 0, BuildingBlock: KUFVIS_clean_sbu_0, # of connection points: 4
#     Node 33, Type 0, BuildingBlock: KUFVIS_clean_sbu_0, # of connection points: 4
#     Node 34, Type 0, BuildingBlock: KUFVIS_clean_sbu_0, # of connection points: 4
#     Node 35, Type 0, BuildingBlock: KUFVIS_clean_sbu_0, # of connection points: 4
#     Edge 36, Type (0, 0), BuildingBlock: EZIPEK_clean_linker_0, # of connection points: 2
#     Edge 37, Type (0, 0), BuildingBlock: EZIPEK_clean_linker_0, # of connection points: 2
#     Edge 38, Type (0, 0), BuildingBlock: EZIPEK_clean_linker_0, # of connection points: 2
#     Edge 39, Type (0, 0), BuildingBlock: EZIPEK_clean_linker_0, # of connection points: 2
#     Edge 40, Type (0, 0), BuildingBlock: EZIPEK_clean_linker_0, # of connection points: 2
#     Edge 41, Type (0, 0), BuildingBlock: EZIPEK_clean_linker_0, # of connection points: 2
#     Edge 42, Type (0, 0), BuildingBlock: EZIPEK_clean_linker_0, # of connection points: 2
#     Edge 43, Type (0, 0), BuildingBlock: EZIPEK_clean_linker_0, # of connection points: 2
#     Edge 44, Type (0, 0), BuildingBlock: EZIPEK_clean_linker_0, # of connection points: 2
#     Edge 45, Type (0, 0), BuildingBlock: EZIPEK_clean_linker_0, # of connection points: 2
#     Edge 46, Type (0, 0), BuildingBlock: EZIPEK_clean_linker_0, # of connection points: 2
#     Edge 47, Type (0, 0), BuildingBlock: EZIPEK_clean_linker_0, # of connection points: 2
#     Edge 48, Type (0, 0), BuildingBlock: EZIPEK_clean_linker_0, # of connection points: 2
#     Edge 49, Type (0, 0), BuildingBlock: EZIPEK_clean_linker_0, # of connection points: 2
#     Edge 50, Type (0, 0), BuildingBlock: EZIPEK_clean_linker_0, # of connection points: 2
#     Edge 51, Type (0, 0), BuildingBlock: EZIPEK_clean_linker_0, # of connection points: 2
#     Edge 52, Type (0, 0), BuildingBlock: EZIPEK_clean_linker_0, # of connection points: 2
#     Edge 53, Type (0, 0), BuildingBlock: EZIPEK_clean_linker_0, # of connection points: 2
#     Edge 54, Type (0, 0), BuildingBlock: EZIPEK_clean_linker_0, # of connection points: 2
#     Edge 55, Type (0, 0), BuildingBlock: EZIPEK_clean_linker_0, # of connection points: 2
#     Edge 56, Type (0, 0), BuildingBlock: EZIPEK_clean_linker_0, # of connection points: 2
#     Edge 57, Type (0, 0), BuildingBlock: EZIPEK_clean_linker_0, # of connection points: 2
#     Edge 58, Type (0, 0), BuildingBlock: EZIPEK_clean_linker_0, # of connection points: 2
#     Edge 59, Type (0, 0), BuildingBlock: EZIPEK_clean_linker_0, # of connection points: 2
#     Edge 60, Type (0, 0), BuildingBlock: EZIPEK_clean_linker_0, # of connection points: 2
#     Edge 61, Type (0, 0), BuildingBlock: EZIPEK_clean_linker_0, # of connection points: 2
#     Edge 62, Type (0, 0), BuildingBlock: EZIPEK_clean_linker_0, # of connection points: 2
#     Edge 63, Type (0, 0), BuildingBlock: EZIPEK_clean_linker_0, # of connection points: 2
#     Edge 64, Type (0, 0), BuildingBlock: EZIPEK_clean_linker_0, # of connection points: 2
#     Edge 65, Type (0, 0), BuildingBlock: EZIPEK_clean_linker_0, # of connection points: 2
#     Edge 66, Type (0, 0), BuildingBlock: EZIPEK_clean_linker_0, # of connection points: 2
#     Edge 67, Type (0, 0), BuildingBlock: EZIPEK_clean_linker_0, # of connection points: 2
#     Edge 68, Type (0, 0), BuildingBlock: EZIPEK_clean_linker_0, # of connection points: 2
#     Edge 69, Type (0, 0), BuildingBlock: EZIPEK_clean_linker_0, # of connection points: 2
#     Edge 70, Type (0, 0), BuildingBlock: EZIPEK_clean_linker_0, # of connection points: 2
#     Edge 71, Type (0, 0), BuildingBlock: EZIPEK_clean_linker_0, # of connection points: 2
#     Edge 72, Type (0, 0), BuildingBlock: EZIPEK_clean_linker_0, # of connection points: 2
#     Edge 73, Type (0, 0), BuildingBlock: EZIPEK_clean_linker_0, # of connection points: 2
#     Edge 74, Type (0, 0), BuildingBlock: EZIPEK_clean_linker_0, # of connection points: 2
#     Edge 75, Type (0, 0), BuildingBlock: EZIPEK_clean_linker_0, # of connection points: 2
#     Edge 76, Type (0, 0), BuildingBlock: EZIPEK_clean_linker_0, # of connection points: 2
#     Edge 77, Type (0, 0), BuildingBlock: EZIPEK_clean_linker_0, # of connection points: 2
#     Edge 78, Type (0, 0), BuildingBlock: EZIPEK_clean_linker_0, # of connection points: 2
#     Edge 79, Type (0, 0), BuildingBlock: EZIPEK_clean_linker_0, # of connection points: 2
#     Edge 80, Type (0, 0), BuildingBlock: EZIPEK_clean_linker_0, # of connection points: 2
#     Edge 81, Type (0, 0), BuildingBlock: EZIPEK_clean_linker_0, # of connection points: 2
#     Edge 82, Type (0, 0), BuildingBlock: EZIPEK_clean_linker_0, # of connection points: 2
#     Edge 83, Type (0, 0), BuildingBlock: EZIPEK_clean_linker_0, # of connection points: 2
#     Edge 84, Type (0, 0), BuildingBlock: EZIPEK_clean_linker_0, # of connection points: 2
#     Edge 85, Type (0, 0), BuildingBlock: EZIPEK_clean_linker_0, # of connection points: 2
#     Edge 86, Type (0, 0), BuildingBlock: EZIPEK_clean_linker_0, # of connection points: 2
#     Edge 87, Type (0, 0), BuildingBlock: EZIPEK_clean_linker_0, # of connection points: 2
#     Edge 88, Type (0, 0), BuildingBlock: EZIPEK_clean_linker_0, # of connection points: 2
#     Edge 89, Type (0, 0), BuildingBlock: EZIPEK_clean_linker_0, # of connection points: 2
#     Edge 90, Type (0, 0), BuildingBlock: EZIPEK_clean_linker_0, # of connection points: 2
#     Edge 91, Type (0, 0), BuildingBlock: EZIPEK_clean_linker_0, # of connection points: 2
#     Edge 92, Type (0, 0), BuildingBlock: EZIPEK_clean_linker_0, # of connection points: 2
#     Edge 93, Type (0, 0), BuildingBlock: EZIPEK_clean_linker_0, # of connection points: 2
#     Edge 94, Type (0, 0), BuildingBlock: EZIPEK_clean_linker_0, # of connection points: 2
#     Edge 95, Type (0, 0), BuildingBlock: EZIPEK_clean_linker_0, # of connection points: 2
#     Edge 96, Type (0, 0), BuildingBlock: EZIPEK_clean_linker_0, # of connection points: 2
#     Edge 97, Type (0, 0), BuildingBlock: EZIPEK_clean_linker_0, # of connection points: 2
#     Edge 98, Type (0, 0), BuildingBlock: EZIPEK_clean_linker_0, # of connection points: 2
#     Edge 99, Type (0, 0), BuildingBlock: EZIPEK_clean_linker_0, # of connection points: 2
#     Edge 100, Type (0, 0), BuildingBlock: EZIPEK_clean_linker_0, # of connection points: 2
#     Edge 101, Type (0, 0), BuildingBlock: EZIPEK_clean_linker_0, # of connection points: 2
#     Edge 102, Type (0, 0), BuildingBlock: EZIPEK_clean_linker_0, # of connection points: 2
#     Edge 103, Type (0, 0), BuildingBlock: EZIPEK_clean_linker_0, # of connection points: 2
#     Edge 104, Type (0, 0), BuildingBlock: EZIPEK_clean_linker_0, # of connection points: 2
#     Edge 105, Type (0, 0), BuildingBlock: EZIPEK_clean_linker_0, # of connection points: 2
#     Edge 106, Type (0, 0), BuildingBlock: EZIPEK_clean_linker_0, # of connection points: 2
#     Edge 107, Type (0, 0), BuildingBlock: EZIPEK_clean_linker_0, # of connection points: 2
# Relax obj value: 0.081
# Max RMSD: 0.070
# Mean RMSD: 0.070
data_MOF--net-ato--node1-KUFVIS_clean_sbu_0--edge1-EZIPEK_clean_linker_0
_symmetry_space_group_name_H-M    P1
_symmetry_Int_Tables_number       1
_symmetry_cell_setting            triclinic
loop_
_symmetry_equiv_pos_as_xyz
'x, y, z'
_cell_length_a     75.652624
_cell_length_b     75.68788
_cell_length_c     17.226644
_cell_angle_alpha  89.961671
_cell_angle_beta   90.01546
_cell_angle_gamma 120.01385
loop_
_atom_site_label
_atom_site_type_symbol
_atom_site_fract_x
_atom_site_fract_y
_atom_site_fract_z
_atom_type_partial_charge
Mn0 Mn 0.26367 0.06866 0.25443 0.0
Mn1 Mn 0.27645 0.03285 0.22117 0.0
C2 C 0.2971 0.07896 0.20723 0.0
C3 C 0.26189 0.09571 0.31842 0.0
C4 C 0.24489 0.03602 0.12564 0.0
O5 O 0.24473 0.04471 0.3296 0.0
O6 O 0.25714 0.02314 0.31114 0.0
C7 C 0.29232 0.0185 0.3476 0.0
N8 N 0.29605 0.02893 0.27951 0.0
C9 C 0.32043 0.01449 0.2446 0.0
C10 C 0.31503 0.00461 0.3159 0.0
C11 C 0.30194 0.00719 0.36663 0.0
C12 C 0.30903 0.02848 0.22762 0.0
H13 H 0.28123 0.01818 0.38791 0.0
C14 C 0.24602 0.02878 0.3485 0.0
O15 O 0.24892 0.08443 0.26618 0.0
O16 O 0.27452 0.08979 0.34116 0.0
N17 N 0.29546 0.04387 0.13668 0.0
C18 C 0.29347 0.05149 0.06731 0.0
C19 C 0.30919 0.06026 0.01114 0.0
C20 C 0.3279 0.06075 0.0165 0.0
C21 C 0.33067 0.0497 0.08253 0.0
C22 C 0.31223 0.04355 0.15501 0.0
H23 H 0.27998 0.05229 0.05577 0.0
O24 O 0.2877 0.08895 0.19196 0.0
O25 O 0.28606 0.06206 0.24735 0.0
O26 O 0.24754 0.05271 0.15396 0.0
O27 O 0.25456 0.02792 0.15161 0.0
C28 C 0.34915 0.0286 0.10826 0.0
C29 C 0.33914 0.01391 0.19082 0.0
H30 H 0.32163 0.99552 0.33428 0.0
H31 H 0.29872 0.99976 0.42242 0.0
H32 H 0.30681 0.06743 0.96098 0.0
H33 H 0.33143 0.05358 0.05558 0.0
H34 H 0.3606 0.02691 0.07561 0.0
H35 H 0.34389 1.00327 0.20722 0.0
Mn36 Mn 0.9451 0.197 0.24468 0.0
Mn37 Mn 0.98005 0.24568 0.21279 0.0
C38 C 0.93369 0.21967 0.20202 0.0
C39 C 0.91982 0.16788 0.3121 0.0
C40 C 0.97717 0.21152 0.1145 0.0
O41 O 0.96978 0.20214 0.31537 0.0
O42 O 0.99031 0.23641 0.30177 0.0
C43 C 0.99379 0.27561 0.34025 0.0
N44 N 0.98354 0.26889 0.27185 0.0
C45 C 0.99709 0.30757 0.2381 0.0
C46 C 0.00684 0.31214 0.30967 0.0
C47 C 1.0045 0.2965 0.36011 0.0
C48 C 0.98364 0.28221 0.22043 0.0
H49 H 0.99431 0.2649 0.38033 0.0
C50 C 0.98523 0.21942 0.33635 0.0
O51 O 0.93034 0.16662 0.25563 0.0
O52 O 0.92535 0.18628 0.33539 0.0
N53 N 0.96848 0.25332 0.1292 0.0
C54 C 0.96063 0.24365 0.06018 0.0
C55 C 0.95139 0.25036 0.00508 0.0
C56 C 0.95053 0.26835 0.01132 0.0
C57 C 0.96164 0.28223 0.07711 0.0
C58 C 0.9685 0.27021 0.14827 0.0
H59 H 0.96003 0.22949 0.04806 0.0
O60 O 0.92375 0.20024 0.18729 0.0
O61 O 0.95097 0.22574 0.24003 0.0
O62 O 0.96025 0.19746 0.14116 0.0
O63 O 0.98541 0.22907 0.14266 0.0
C64 C 0.98194 0.32179 0.10377 0.0
C65 C 0.99693 0.32664 0.18562 0.0
H66 H 0.01541 0.32783 0.3288 0.0
H67 H 0.01157 0.30073 0.41646 0.0
H68 H 0.94414 0.24078 0.9551 0.0
H69 H 0.95768 0.27907 0.05032 0.0
H70 H 0.98331 0.33487 0.07155 0.0
H71 H 0.00742 0.34192 0.20228 0.0
Mn72 Mn 0.80816 0.74901 0.28357 0.0
Mn73 Mn 0.75733 0.72823 0.30899 0.0
C74 C 0.7855 0.71598 0.23372 0.0
C75 C 0.84088 0.7541 0.31815 0.0
C76 C 0.7822 0.76348 0.19535 0.0
O77 O 0.80597 0.76574 0.37489 0.0
O78 O 0.7716 0.74885 0.39231 0.0
C79 C 0.74622 0.70786 0.46398 0.0
N80 N 0.74407 0.70629 0.38543 0.0
C81 C 0.70886 0.67244 0.41 0.0
C82 C 0.71347 0.67588 0.48871 0.0
C83 C 0.73187 0.69273 0.5143 0.0
C84 C 0.728 0.69 0.35324 0.0
H85 H 0.75908 0.72109 0.48941 0.0
C86 C 0.78978 0.76268 0.41117 0.0
O87 O 0.83864 0.76664 0.27356 0.0
O88 O 0.82422 0.73941 0.34783 0.0
N89 N 0.74327 0.70865 0.22845 0.0
C90 C 0.7443 0.71202 0.15019 0.0
C91 C 0.73231 0.69678 0.09538 0.0
C92 C 0.71693 0.67697 0.11404 0.0
C93 C 0.71238 0.67158 0.19769 0.0
C94 C 0.7302 0.69062 0.25889 0.0
H95 H 0.75535 0.72667 0.12718 0.0
O96 O 0.80353 0.72746 0.20488 0.0
O97 O 0.78092 0.72424 0.29163 0.0
O98 O 0.79935 0.76423 0.20359 0.0
O99 O 0.76678 0.75055 0.23334 0.0
C100 C 0.68231 0.64379 0.28347 0.0
C101 C 0.68718 0.65054 0.38051 0.0
H102 H 0.70306 0.66514 0.53104 0.0
H103 H 0.73476 0.69465 0.57614 0.0
H104 H 0.73512 0.70064 0.03444 0.0
H105 H 0.71221 0.67165 0.16637 0.0
H106 H 0.6681 0.62991 0.26861 0.0
H107 H 0.67659 0.64041 0.42367 0.0
Mn108 Mn 0.0662 0.25963 0.74058 0.0
Mn109 Mn 0.03188 0.27552 0.73868 0.0
C110 C 0.07507 0.29172 0.79657 0.0
C111 C 0.09499 0.25837 0.69347 0.0
C112 C 0.02795 0.24195 0.84726 0.0
O113 O 0.04677 0.24275 0.65025 0.0
O114 O 0.02499 0.25506 0.65334 0.0
C115 C 0.03863 0.29543 0.58371 0.0
N116 N 0.03745 0.29655 0.66209 0.0
C117 C 0.03547 0.33001 0.63998 0.0
C118 C 0.0378 0.3273 0.56112 0.0
C119 C 0.03975 0.3108 0.53455 0.0
C120 C 0.0374 0.3125 0.69538 0.0
H121 H 0.03926 0.28279 0.55773 0.0
C122 C 0.03147 0.24383 0.62307 0.0
O123 O 0.08173 0.24449 0.73933 0.0
O124 O 0.0905 0.27186 0.66877 0.0
N125 N 0.03786 0.29515 0.81943 0.0
C126 C 0.03768 0.29253 0.89801 0.0
C127 C 0.04202 0.30825 0.95229 0.0
C128 C 0.04593 0.32791 0.93331 0.0
C129 C 0.04468 0.33253 0.85009 0.0
C130 C 0.04119 0.31262 0.78873 0.0
H131 H 0.03483 0.27812 0.92134 0.0
O132 O 0.08337 0.28119 0.81917 0.0
O133 O 0.06095 0.28266 0.74292 0.0
O134 O 0.04421 0.24226 0.82475 0.0
O135 O 0.0223 0.25367 0.81743 0.0
C136 C 0.04162 0.36021 0.76625 0.0
C137 C 0.03722 0.35254 0.67024 0.0
H138 H 0.03975 0.33889 0.51967 0.0
H139 H 0.04229 0.30986 0.47329 0.0
H140 H 0.04245 0.30494 0.01314 0.0
H141 H 0.04531 0.33283 0.88135 0.0
H142 H 0.0425 0.37466 0.78143 0.0
H143 H 0.03709 0.36294 0.62768 0.0
Mn144 Mn 0.74906 0.81035 0.77861 0.0
Mn145 Mn 0.73408 0.76148 0.78408 0.0
C146 C 0.71407 0.78742 0.80578 0.0
C147 C 0.75434 0.84098 0.72033 0.0
C148 C 0.76265 0.79021 0.90208 0.0
O149 O 0.77033 0.80695 0.71093 0.0
O150 O 0.75422 0.77243 0.69932 0.0
C151 C 0.71862 0.73561 0.6458 0.0
N152 N 0.7146 0.74024 0.71761 0.0
C153 C 0.69139 0.70065 0.73973 0.0
C154 C 0.69707 0.69825 0.66542 0.0
C155 C 0.70953 0.71533 0.61893 0.0
C156 C 0.70173 0.72543 0.76528 0.0
H157 H 0.72949 0.74762 0.60846 0.0
C158 C 0.76808 0.79042 0.67919 0.0
O159 O 0.7648 0.84102 0.77998 0.0
O160 O 0.74257 0.82331 0.68887 0.0
N161 N 0.71396 0.75215 0.86583 0.0
C162 C 0.71431 0.76082 0.93599 0.0
C163 C 0.69832 0.75189 0.99095 0.0
C164 C 0.68066 0.73292 0.98211 0.0
C165 C 0.67919 0.72072 0.91224 0.0
C166 C 0.69768 0.73516 0.84262 0.0
H167 H 0.7267 0.77567 0.95021 0.0
O168 O 0.72339 0.80624 0.82871 0.0
O169 O 0.72589 0.78234 0.76663 0.0
O170 O 0.75933 0.80485 0.88705 0.0
O171 O 0.75695 0.77606 0.85448 0.0
C172 C 0.66236 0.68198 0.87397 0.0
C173 C 0.67317 0.6798 0.78851 0.0
H174 H 0.69096 0.68314 0.64124 0.0
H175 H 0.71277 0.71284 0.5602 0.0
H176 H 0.69961 0.76043 0.04306 0.0
H177 H 0.67804 0.72316 0.94017 0.0
H178 H 0.65158 0.66803 0.9043 0.0
H179 H 0.6697 0.66508 0.76777 0.0
Mn180 Mn 0.20478 0.94706 0.75337 0.0
Mn181 Mn 0.25517 0.98119 0.75386 0.0
C182 C 0.22759 0.93806 0.81305 0.0
C183 C 0.17449 0.91816 0.7068 0.0
C184 C 0.2252 0.9855 0.85916 0.0
O185 O 0.20791 0.96623 0.66084 0.0
O186 O 0.24196 0.98817 0.667 0.0
C187 C 0.26931 0.97468 0.60025 0.0
N188 N 0.27117 0.97579 0.67883 0.0
C189 C 0.30635 0.97683 0.66014 0.0
C190 C 0.30152 0.97421 0.58138 0.0
C191 C 0.28354 0.973 0.55279 0.0
C192 C 0.28696 0.9757 0.71371 0.0
H193 H 0.2563 0.97432 0.57288 0.0
C194 C 0.22441 0.98166 0.63491 0.0
O195 O 0.17402 0.93184 0.75052 0.0
O196 O 0.19247 0.92213 0.68417 0.0
N197 N 0.26842 0.97511 0.83588 0.0
C198 C 0.26534 0.97486 0.91415 0.0
C199 C 0.27606 0.96993 0.96943 0.0
C200 C 0.29153 0.96549 0.95187 0.0
C201 C 0.29797 0.96695 0.86926 0.0
C202 C 0.28262 0.97167 0.80656 0.0
H203 H 0.25375 0.97782 0.93634 0.0
O204 O 0.20874 0.93025 0.83483 0.0
O205 O 0.23306 0.95201 0.75816 0.0
O206 O 0.20924 0.96944 0.83535 0.0
O207 O 0.2427 0.99085 0.83135 0.0
C208 C 0.32861 0.96878 0.78827 0.0
C209 C 0.3263 0.9739 0.69205 0.0
H210 H 0.31037 0.97047 0.54256 0.0
H211 H 0.28021 0.97017 0.49153 0.0
H212 H 0.27192 0.96931 0.02988 0.0
H213 H 0.29736 0.96614 0.90051 0.0
H214 H 0.34167 0.96712 0.80476 0.0
H215 H 0.33703 0.97406 0.65024 0.0
Mn216 Mn 0.75022 0.94474 0.75755 0.0
Mn217 Mn 0.73243 0.97739 0.7579 0.0
C218 C 0.71708 0.93372 0.80904 0.0
C219 C 0.75364 0.9174 0.70857 0.0
C220 C 0.76492 0.98111 0.87125 0.0
O221 O 0.76772 0.96593 0.67131 0.0
O222 O 0.7536 0.98609 0.67531 0.0
C223 C 0.71419 0.97257 0.60059 0.0
N224 N 0.71187 0.9717 0.67908 0.0
C225 C 0.67761 0.97195 0.65561 0.0
C226 C 0.6813 0.97112 0.5766 0.0
C227 C 0.69909 0.97162 0.55025 0.0
C228 C 0.69513 0.97022 0.71149 0.0
H229 H 0.72775 0.97381 0.5751 0.0
C230 C 0.76588 0.98096 0.6455 0.0
O231 O 0.76654 0.93047 0.75753 0.0
O232 O 0.74014 0.92156 0.68114 0.0
N233 N 0.71213 0.96979 0.83667 0.0
C234 C 0.7143 0.96937 0.91534 0.0
C235 C 0.69817 0.96411 0.96847 0.0
C236 C 0.6786 0.96019 0.94837 0.0
C237 C 0.67443 0.96197 0.86503 0.0
C238 C 0.69468 0.96604 0.8047 0.0
H239 H 0.72866 0.97241 0.9397 0.0
O240 O 0.72796 0.92577 0.83097 0.0
O241 O 0.72629 0.94859 0.75807 0.0
O242 O 0.76542 0.96536 0.84774 0.0
O243 O 0.75366 0.98696 0.83899 0.0
C244 C 0.64677 0.96478 0.78055 0.0
C245 C 0.65471 0.96955 0.68502 0.0
H246 H 0.67004 0.96952 0.53444 0.0
H247 H 0.70139 0.97145 0.4883 0.0
H248 H 0.70109 0.96305 0.02929 0.0
H249 H 0.67398 0.96113 0.8963 0.0
H250 H 0.63208 0.96347 0.79512 0.0
H251 H 0.64415 0.96926 0.64223 0.0
Mn252 Mn 0.06854 0.8102 0.74802 0.0
Mn253 Mn 0.03361 0.76016 0.74561 0.0
C254 C 0.07729 0.78642 0.80099 0.0
C255 C 0.09742 0.84065 0.70264 0.0
C256 C 0.03044 0.78992 0.85553 0.0
O257 O 0.04883 0.80799 0.65847 0.0
O258 O 0.02685 0.77392 0.6607 0.0
C259 C 0.03933 0.7463 0.59057 0.0
N260 N 0.03837 0.74417 0.66901 0.0
C261 C 0.03515 0.70813 0.64773 0.0
C262 C 0.03744 0.71308 0.5687 0.0
C263 C 0.03984 0.73169 0.5417 0.0
C264 C 0.03778 0.72793 0.70262 0.0
H265 H 0.04028 0.75971 0.56437 0.0
C266 C 0.03337 0.79171 0.63111 0.0
O267 O 0.08412 0.84087 0.74923 0.0
O268 O 0.09297 0.82283 0.67611 0.0
N269 N 0.03948 0.74643 0.82622 0.0
C270 C 0.03997 0.74931 0.90469 0.0
C271 C 0.04419 0.73784 0.95894 0.0
C272 C 0.04743 0.72167 0.94005 0.0
C273 C 0.04553 0.71542 0.85705 0.0
C274 C 0.04209 0.73185 0.79561 0.0
H275 H 0.03776 0.76129 0.9279 0.0
O276 O 0.08578 0.80518 0.82463 0.0
O277 O 0.06297 0.78171 0.74834 0.0
O278 O 0.04694 0.80569 0.83363 0.0
O279 O 0.02442 0.77265 0.82461 0.0
C280 C 0.04138 0.68412 0.77421 0.0
C281 C 0.03657 0.68717 0.6784 0.0
H282 H 0.03934 0.7034 0.52739 0.0
H283 H 0.04226 0.735 0.48025 0.0
H284 H 0.04513 0.74188 0.01964 0.0
H285 H 0.04636 0.71588 0.88831 0.0
H286 H 0.04205 0.67045 0.78969 0.0
H287 H 0.03599 0.67634 0.63628 0.0
Mn288 Mn 0.19939 0.25938 0.7663 0.0
Mn289 Mn 0.24794 0.27277 0.8012 0.0
C290 C 0.22185 0.29273 0.81453 0.0
C291 C 0.1712 0.25767 0.69948 0.0
C292 C 0.2133 0.24065 0.89477 0.0
O293 O 0.20486 0.24097 0.6913 0.0
O294 O 0.23883 0.25349 0.71133 0.0
C295 C 0.27813 0.28901 0.67552 0.0
N296 N 0.27115 0.29269 0.74295 0.0
C297 C 0.30977 0.31734 0.77942 0.0
C298 C 0.31455 0.31179 0.70916 0.0
C299 C 0.29912 0.29864 0.65787 0.0
C300 C 0.2843 0.30582 0.79497 0.0
H301 H 0.26755 0.27787 0.63491 0.0
C302 C 0.22217 0.24243 0.67344 0.0
O303 O 0.16906 0.24456 0.75206 0.0
O304 O 0.18986 0.27035 0.67831 0.0
N305 N 0.25535 0.29165 0.88567 0.0
C306 C 0.24566 0.2893 0.95516 0.0
C307 C 0.25215 0.30498 0.01123 0.0
C308 C 0.27007 0.32395 0.00591 0.0
C309 C 0.28407 0.32708 0.94009 0.0
C310 C 0.2721 0.30876 0.86705 0.0
H311 H 0.23163 0.27548 0.96705 0.0
O312 O 0.2024 0.28304 0.82907 0.0
O313 O 0.22809 0.28196 0.77468 0.0
O314 O 0.19905 0.24297 0.86633 0.0
O315 O 0.2311 0.25081 0.86982 0.0
C316 C 0.32376 0.34576 0.91642 0.0
C317 C 0.32882 0.33598 0.83421 0.0
H318 H 0.3303 0.31818 0.69227 0.0
H319 H 0.30356 0.29528 0.60296 0.0
H320 H 0.24251 0.30232 0.06132 0.0
H321 H 0.28087 0.32772 0.96705 0.0
H322 H 0.33678 0.35709 0.94999 0.0
H323 H 0.34432 0.34078 0.81915 0.0
Mn324 Mn 0.94638 0.7529 0.25063 0.0
Mn325 Mn 0.98049 0.73779 0.22315 0.0
C326 C 0.93462 0.71879 0.20642 0.0
C327 C 0.91983 0.75682 0.30713 0.0
C328 C 0.97959 0.76989 0.12325 0.0
O329 O 0.97017 0.77123 0.32716 0.0
O330 O 0.99087 0.75774 0.31108 0.0
C331 C 0.99257 0.7214 0.35493 0.0
N332 N 0.98278 0.71787 0.28548 0.0
C333 C 0.99592 0.69222 0.25624 0.0
C334 C 1.00523 0.69743 0.32866 0.0
C335 C 1.0028 0.71094 0.37748 0.0
C336 C 0.98276 0.70427 0.23579 0.0
H337 H 0.99307 0.73283 0.3938 0.0
C338 C 0.98577 0.76948 0.34694 0.0
O339 O 0.93265 0.7696 0.25775 0.0
O340 O 0.92409 0.74322 0.33299 0.0
N341 N 0.96894 0.71834 0.14046 0.0
C342 C 0.96197 0.72038 0.06968 0.0
C343 C 0.95274 0.70435 0.01502 0.0
C344 C 0.95125 0.68525 0.0234 0.0
C345 C 0.96169 0.6823 0.09116 0.0
C346 C 0.96817 0.70122 0.16176 0.0
H347 H 0.96209 0.73424 0.05567 0.0
O348 O 0.92565 0.729 0.188 0.0
O349 O 0.95145 0.72946 0.24733 0.0
O350 O 0.96332 0.76836 0.15109 0.0
O351 O 0.98677 0.7595 0.15032 0.0
C352 C 0.98158 0.66285 0.12208 0.0
C353 C 0.99602 0.67297 0.20521 0.0
H354 H 0.01352 0.69017 0.34968 0.0
H355 H 0.00944 0.71376 0.43462 0.0
H356 H 0.94607 0.70683 0.96355 0.0
H357 H 0.95796 0.68154 0.06381 0.0
H358 H 0.98322 0.65119 0.09068 0.0
H359 H 0.00648 0.6683 0.22356 0.0
Mn360 Mn 0.26342 0.20284 0.2686 0.0
Mn361 Mn 0.27939 0.25336 0.25897 0.0
C362 C 0.29503 0.22529 0.20782 0.0
C363 C 0.26236 0.17301 0.32048 0.0
C364 C 0.24484 0.22154 0.15769 0.0
O365 O 0.24704 0.20688 0.35753 0.0
O366 O 0.25986 0.241 0.34769 0.0
C367 C 0.30059 0.27005 0.41041 0.0
N368 N 0.30099 0.27078 0.33151 0.0
C369 C 0.33468 0.30668 0.34443 0.0
C370 C 0.33267 0.30322 0.42389 0.0
C371 C 0.3164 0.28532 0.45547 0.0
C372 C 0.31648 0.2864 0.29408 0.0
H373 H 0.28833 0.25718 0.44007 0.0
C374 C 0.24865 0.22377 0.38171 0.0
O375 O 0.24828 0.1721 0.27512 0.0
O376 O 0.27591 0.19126 0.34262 0.0
N377 N 0.29849 0.2659 0.17528 0.0
C378 C 0.29555 0.26183 0.09763 0.0
C379 C 0.3111 0.27202 0.04134 0.0
C380 C 0.33103 0.28782 0.05701 0.0
C381 C 0.33616 0.29534 0.13837 0.0
C382 C 0.31612 0.28076 0.20259 0.0
H383 H 0.28098 0.24985 0.07704 0.0
O384 O 0.28437 0.20614 0.18963 0.0
O385 O 0.28649 0.23126 0.2604 0.0
O386 O 0.24559 0.20609 0.18331 0.0
O387 O 0.25668 0.23942 0.18335 0.0
C388 C 0.36488 0.32721 0.21471 0.0
C389 C 0.35748 0.32624 0.31019 0.0
H390 H 0.3453 0.31309 0.4608 0.0
H391 H 0.31633 0.28284 0.51719 0.0
H392 H 0.30748 0.26712 0.98161 0.0
H393 H 0.33632 0.29434 0.1074 0.0
H394 H 0.37953 0.34011 0.19662 0.0
H395 H 0.36799 0.3376 0.35029 0.0
Mn396 Mn 0.81488 0.06766 0.26077 0.0
Mn397 Mn 0.76459 0.03865 0.24141 0.0
C398 C 0.7962 0.08331 0.21681 0.0
C399 C 0.84476 0.0915 0.32961 0.0
C400 C 0.7933 0.03143 0.14646 0.0
O401 O 0.80586 0.043 0.33766 0.0
O402 O 0.77145 0.03035 0.34273 0.0
C403 C 0.72841 0.99912 0.29181 0.0
N404 N 0.73731 0.01417 0.23767 0.0
C405 C 0.69992 1.00207 0.18649 0.0
C406 C 0.69319 0.9869 0.24282 0.0
C407 C 0.70709 0.98543 0.2932 0.0
C408 C 0.72572 0.01679 0.18459 0.0
H409 H 0.73765 0.99778 0.33657 0.0
C410 C 0.78802 0.03135 0.36835 0.0
O411 O 0.84518 0.07965 0.27607 0.0
O412 O 0.82668 0.08798 0.34783 0.0
N413 N 0.75947 0.04563 0.14058 0.0
C414 C 0.77253 0.05681 0.08228 0.0
C415 C 0.76615 0.06288 0.01524 0.0
C416 C 0.74633 0.0597 0.00376 0.0
C417 C 0.73006 0.04571 0.05837 0.0
C418 C 0.73975 0.0363 0.12915 0.0
H419 H 0.78858 0.0623 0.08832 0.0
O420 O 0.81532 0.09118 0.19865 0.0
O421 O 0.78898 0.06561 0.25089 0.0
O422 O 0.80909 0.04864 0.1637 0.0
O423 O 0.77673 0.02443 0.1852 0.0
C424 C 0.69 0.02378 0.06168 0.0
C425 C 0.68249 0.00478 0.13124 0.0
H426 H 0.677 0.97636 0.24949 0.0
H427 H 0.70104 0.97366 0.33729 0.0
H428 H 0.77767 0.07214 0.97291 0.0
H429 H 0.73414 0.05088 0.03469 0.0
H430 H 0.6781 0.02399 0.02641 0.0
H431 H 0.66646 0.99398 0.13848 0.0
Mn432 Mn 0.9281 0.39891 0.58666 0.0
Mn433 Mn 0.94154 0.36362 0.55794 0.0
C434 C 0.96208 0.40962 0.54365 0.0
C435 C 0.92423 0.42559 0.64394 0.0
C436 C 0.91005 0.36597 0.45958 0.0
O437 O 0.909 0.37502 0.66142 0.0
O438 O 0.92219 0.35394 0.64782 0.0
C439 C 0.958 0.35011 0.68504 0.0
N440 N 0.96139 0.36016 0.61625 0.0
C441 C 0.98585 0.34587 0.58132 0.0
C442 C 0.9808 0.33634 0.65334 0.0
C443 C 0.96798 0.33918 0.70457 0.0
C444 C 0.97429 0.35967 0.56414 0.0
H445 H 0.94701 0.34992 0.7256 0.0
C446 C 0.91055 0.35939 0.68252 0.0
O447 O 0.91197 0.41328 0.59233 0.0
O448 O 0.93757 0.42103 0.67048 0.0
N449 N 0.96048 0.37473 0.47312 0.0
C450 C 0.95845 0.38235 0.40383 0.0
C451 C 0.97416 0.39123 0.34764 0.0
C452 C 0.99292 0.39185 0.3529 0.0
C453 C 0.9958 0.38086 0.41885 0.0
C454 C 0.97736 0.37461 0.4914 0.0
H455 H 0.94496 0.38313 0.39241 0.0
O456 O 0.95253 0.41925 0.52606 0.0
O457 O 0.95093 0.3928 0.5839 0.0
O458 O 0.91293 0.3829 0.48555 0.0
O459 O 0.91939 0.35783 0.48819 0.0
C460 C 0.01452 0.36001 0.44479 0.0
C461 C 1.00456 0.34537 0.52761 0.0
H462 H 0.98766 0.32752 0.67209 0.0
H463 H 0.96533 0.33233 0.76126 0.0
H464 H 0.97171 0.39837 0.29756 0.0
H465 H 0.99653 0.38472 0.39192 0.0
H466 H 0.02587 0.3582 0.41181 0.0
H467 H 0.00907 0.33463 0.54403 0.0
Mn468 Mn 0.61319 0.53319 0.60338 0.0
Mn469 Mn 0.64337 0.58376 0.62292 0.0
C470 C 0.6016 0.55527 0.55558 0.0
C471 C 0.58616 0.50057 0.64013 0.0
C472 C 0.65299 0.55859 0.51068 0.0
O473 O 0.63294 0.53613 0.69363 0.0
O474 O 0.65029 0.57055 0.70764 0.0
C475 C 0.63571 0.59658 0.77644 0.0
N476 N 0.63576 0.59798 0.69772 0.0
C477 C 0.63762 0.63347 0.71669 0.0
C478 C 0.63646 0.62938 0.79602 0.0
C479 C 0.63535 0.61144 0.82458 0.0
C480 C 0.63594 0.61391 0.66306 0.0
H481 H 0.63593 0.58383 0.80361 0.0
C482 C 0.6461 0.55261 0.72855 0.0
O483 O 0.60076 0.50282 0.59457 0.0
O484 O 0.58812 0.51718 0.67021 0.0
N485 N 0.63698 0.59653 0.54055 0.0
C486 C 0.63663 0.59325 0.46249 0.0
C487 C 0.63283 0.6046 0.40638 0.0
C488 C 0.62929 0.62066 0.42322 0.0
C489 C 0.63005 0.62665 0.50612 0.0
C490 C 0.63299 0.6103 0.56954 0.0
H491 H 0.63841 0.58086 0.4414 0.0
O492 O 0.59522 0.53723 0.52717 0.0
O493 O 0.6153 0.56028 0.61097 0.0
O494 O 0.63645 0.54163 0.51993 0.0
O495 O 0.65607 0.57403 0.54892 0.0
C496 C 0.63253 0.65745 0.58706 0.0
C497 C 0.63604 0.65422 0.68412 0.0
H498 H 0.63527 0.63958 0.8364 0.0
H499 H 0.63431 0.60896 0.88665 0.0
H500 H 0.63236 0.60047 0.34599 0.0
H501 H 0.62963 0.62627 0.4747 0.0
H502 H 0.63178 0.67101 0.57037 0.0
H503 H 0.6358 0.66475 0.7257 0.0
Mn504 Mn 0.47873 0.08208 0.58043 0.0
Mn505 Mn 0.43051 0.06943 0.54572 0.0
C506 C 0.45595 0.04863 0.53305 0.0
C507 C 0.50849 0.0853 0.64117 0.0
C508 C 0.46565 0.1018 0.4548 0.0
O509 O 0.47346 0.10075 0.65447 0.0
O510 O 0.43916 0.08748 0.63935 0.0
C511 C 0.39787 0.05177 0.66347 0.0
N512 N 0.40598 0.04894 0.59724 0.0
C513 C 0.36795 0.02354 0.55385 0.0
C514 C 0.362 0.02797 0.62402 0.0
C515 C 0.37661 0.04121 0.6778 0.0
C516 C 0.39364 0.03623 0.54213 0.0
H517 H 0.40772 0.06287 0.70579 0.0
C518 C 0.45616 0.09895 0.67507 0.0
O519 O 0.50908 0.09816 0.59086 0.0
O520 O 0.49032 0.07184 0.66509 0.0
N521 N 0.42396 0.0517 0.45759 0.0
C522 C 0.43476 0.05456 0.3906 0.0
C523 C 0.42918 0.03946 0.33266 0.0
C524 C 0.41142 0.02032 0.33397 0.0
C525 C 0.39651 0.01634 0.39718 0.0
C526 C 0.40701 0.0344 0.47199 0.0
H527 H 0.44901 0.06827 0.38246 0.0
O528 O 0.4753 0.05825 0.51849 0.0
O529 O 0.44979 0.0594 0.57326 0.0
O530 O 0.47907 0.09793 0.48012 0.0
O531 O 0.44797 0.09266 0.48181 0.0
C532 C 0.35661 0.99586 0.41491 0.0
C533 C 0.35002 0.00463 0.49625 0.0
H534 H 0.34597 0.02045 0.63915 0.0
H535 H 0.37121 0.04374 0.73231 0.0
H536 H 0.43957 0.04267 0.2846 0.0
H537 H 0.40013 0.016 0.37094 0.0
H538 H 0.34423 0.98432 0.37942 0.0
H539 H 0.3343 0.99938 0.50761 0.0
Mn540 Mn 0.73373 0.59441 0.10446 0.0
Mn541 Mn 0.69776 0.6055 0.13126 0.0
C542 C 0.74449 0.62808 0.14603 0.0
C543 C 0.75975 0.59152 0.03884 0.0
C544 C 0.70049 0.57508 0.22153 0.0
O545 O 0.70894 0.57469 0.03237 0.0
O546 O 0.69016 0.59077 0.03058 0.0
C547 C 0.68118 0.62467 0.02816 0.0
N548 N 0.69175 0.62615 0.09429 0.0
C549 C 0.67778 0.64954 0.14848 0.0
C550 C 0.6675 0.6462 0.07844 0.0
C551 C 0.66961 0.63452 0.01968 0.0
C552 C 0.69076 0.63664 0.15518 0.0
H553 H 0.68089 0.61512 0.98107 0.0
C554 C 0.69485 0.57777 1.00277 0.0
O555 O 0.74932 0.57949 0.09508 0.0
O556 O 0.75326 0.60344 0.01345 0.0
N557 N 0.70814 0.62126 0.2282 0.0
C558 C 0.71852 0.61938 0.29018 0.0
C559 C 0.72712 0.63369 0.35157 0.0
C560 C 0.72665 0.65186 0.35774 0.0
C561 C 0.71474 0.65572 0.2989 0.0
C562 C 0.70643 0.63788 0.22236 0.0
H563 H 0.72183 0.6073 0.29324 0.0
O564 O 0.75475 0.61889 0.15966 0.0
O565 O 0.72748 0.61721 0.10575 0.0
O566 O 0.71933 0.58117 0.21361 0.0
O567 O 0.69293 0.57898 0.16588 0.0
C568 C 0.69543 0.67647 0.28824 0.0
C569 C 0.67939 0.6682 0.20919 0.0
H570 H 0.65875 0.65366 0.06692 0.0
H571 H 0.66182 0.63289 0.96528 0.0
H572 H 0.73542 0.63077 0.39614 0.0
H573 H 0.71901 0.65608 0.32361 0.0
H574 H 0.69514 0.68805 0.3253 0.0
H575 H 0.66913 0.67396 0.20154 0.0
Mn576 Mn 0.41867 0.14162 0.07828 0.0
Mn577 Mn 0.40218 0.09134 0.079 0.0
C578 C 0.38648 0.11889 0.13492 0.0
C579 C 0.42123 0.17197 0.02999 0.0
C580 C 0.43582 0.12107 0.18649 0.0
O581 O 0.43522 0.13861 0.98856 0.0
O582 O 0.42277 0.10454 0.99407 0.0
C583 C 0.38274 0.07784 0.92351 0.0
N584 N 0.38124 0.07588 1.00205 0.0
C585 C 0.34732 0.04082 0.98007 0.0
C586 C 0.35043 0.04556 0.901 0.0
C587 C 0.36746 0.06357 0.87416 0.0
C588 C 0.36502 0.06013 0.03538 0.0
H589 H 0.39568 0.0908 0.89734 0.0
C590 C 0.434 0.1221 0.96268 0.0
O591 O 0.43477 0.1721 0.07622 0.0
O592 O 0.40695 0.15419 0.00652 0.0
N593 N 0.38238 0.07797 0.15946 0.0
C594 C 0.38489 0.08052 0.23803 0.0
C595 C 0.36904 0.06936 0.29215 0.0
C596 C 0.34932 0.05375 0.27306 0.0
C597 C 0.34474 0.04781 0.18989 0.0
C598 C 0.36488 0.06392 0.12864 0.0
H599 H 0.39934 0.09199 0.26144 0.0
O600 O 0.39733 0.13774 0.15706 0.0
O601 O 0.3953 0.11349 0.08151 0.0
O602 O 0.4358 0.13699 0.16229 0.0
O603 O 0.42392 0.10358 0.15815 0.0
C604 C 0.31674 0.01733 0.10617 0.0
C605 C 0.32451 0.02038 0.01027 0.0
H606 H 0.33892 0.03592 0.85935 0.0
H607 H 0.3689 0.06673 0.81257 0.0
H608 H 0.3723 0.07316 0.35297 0.0
H609 H 0.34442 0.04819 0.22113 0.0
H610 H 0.30211 0.00397 0.12132 0.0
H611 H 0.31404 0.00993 0.9677 0.0
Mn612 Mn 0.86857 0.27768 0.08518 0.0
Mn613 Mn 0.91902 0.311 0.07911 0.0
C614 C 0.8916 0.26766 0.1359 0.0
C615 C 0.83612 0.25076 0.04119 0.0
C616 C 0.89069 0.31576 0.19134 0.0
O617 O 0.87126 0.29753 0.99581 0.0
O618 O 0.9055 0.31851 0.99586 0.0
C619 C 0.93132 0.30433 0.92246 0.0
N620 N 0.93394 0.30535 1.00066 0.0
C621 C 0.9695 0.30777 0.9756 0.0
C622 C 0.96405 0.3054 0.8971 0.0
C623 C 0.94542 0.30335 0.87203 0.0
C624 C 0.95017 0.30553 0.03248 0.0
H625 H 0.91791 0.30369 0.89771 0.0
C626 C 0.8877 0.31255 0.9675 0.0
O627 O 0.83835 0.26471 0.08957 0.0
O628 O 0.85321 0.25275 0.01555 0.0
N629 N 0.93265 0.30448 0.15797 0.0
C630 C 0.93034 0.30427 0.23671 0.0
C631 C 0.94187 0.29977 0.28961 0.0
C632 C 0.95768 0.2961 0.2689 0.0
C633 C 0.96339 0.29778 0.18531 0.0
C634 C 0.94676 0.30139 0.12572 0.0
H635 H 0.91875 0.30691 0.2612 0.0
O636 O 0.87298 0.25984 0.16098 0.0
O637 O 0.89658 0.28192 0.08284 0.0
O638 O 0.87457 0.29963 0.17005 0.0
O639 O 0.90778 0.32117 0.15978 0.0
C640 C 0.99402 0.30136 0.09936 0.0
C641 C 0.99047 0.30609 0.00398 0.0
H642 H 0.97328 0.30312 0.85483 0.0
H643 H 0.94167 0.30085 0.81093 0.0
H644 H 0.93825 0.29903 0.35069 0.0
H645 H 0.96312 0.297 0.21661 0.0
H646 H 0.00769 0.30052 0.11342 0.0
H647 H 1.00098 0.30654 0.96062 0.0
Mn648 Mn 0.41878 0.27538 0.10579 0.0
Mn649 Mn 0.40426 0.30935 0.10933 0.0
C650 C 0.38384 0.26346 0.13386 0.0
C651 C 0.4249 0.25016 0.05209 0.0
C652 C 0.43322 0.30973 0.22379 0.0
O653 O 0.43975 0.29987 0.03588 0.0
O654 O 0.42291 0.3175 0.01992 0.0
C655 C 0.3868 0.31921 0.97568 0.0
N656 N 0.38393 0.31112 0.04827 0.0
C657 C 0.36073 0.32726 0.07508 0.0
C658 C 0.36536 0.33491 0.99985 0.0
C659 C 0.37721 0.33009 0.95078 0.0
C660 C 0.37176 0.31333 0.09868 0.0
H661 H 0.39711 0.31784 0.93599 0.0
C662 C 0.43702 0.31358 1.0013 0.0
O663 O 0.43522 0.26127 0.11048 0.0
O664 O 0.41248 0.25507 0.01935 0.0
N665 N 0.38531 0.29926 0.19614 0.0
C666 C 0.38623 0.29105 0.26597 0.0
C667 C 0.37067 0.28392 0.32284 0.0
C668 C 0.35277 0.28487 0.31669 0.0
C669 C 0.35051 0.29535 0.24765 0.0
C670 C 0.36868 0.29979 0.17588 0.0
H671 H 0.39856 0.28846 0.27863 0.0
O672 O 0.39323 0.25406 0.15668 0.0
O673 O 0.39543 0.28009 0.0929 0.0
O674 O 0.42887 0.29132 0.21346 0.0
O675 O 0.42892 0.318 0.17082 0.0
C676 C 0.33257 0.31645 0.21233 0.0
C677 C 0.3426 0.32944 0.12622 0.0
H678 H 0.35872 0.34356 0.97689 0.0
H679 H 0.37943 0.33529 0.89135 0.0
H680 H 0.3725 0.2768 0.37436 0.0
H681 H 0.34963 0.29181 0.27541 0.0
H682 H 0.32161 0.31926 0.24341 0.0
H683 H 0.33873 0.34046 0.10651 0.0
Mn684 Mn 0.73263 0.13955 0.08698 0.0
Mn685 Mn 0.70162 0.0883 0.07906 0.0
C686 C 0.74313 0.11918 0.15423 0.0
C687 C 0.76032 0.17176 0.04871 0.0
C688 C 0.69383 0.11493 0.18893 0.0
O689 O 0.71537 0.13625 0.98971 0.0
O690 O 0.69333 0.10269 1.00119 0.0
C691 C 0.71071 0.08126 0.91642 0.0
N692 N 0.70876 0.07606 0.99296 0.0
C693 C 0.70821 0.0424 0.94742 0.0
C694 C 0.70975 0.04958 0.87208 0.0
C695 C 0.71148 0.06867 0.85766 0.0
C696 C 0.70795 0.05866 0.01517 0.0
H697 H 0.71157 0.09531 0.8989 0.0
C698 C 0.69958 0.11988 0.96706 0.0
O699 O 0.74451 0.16985 0.08551 0.0
O700 O 0.75929 0.15477 0.02807 0.0
N701 N 0.70676 0.07157 0.14961 0.0
C702 C 0.70448 0.07026 0.22835 0.0
C703 C 0.70493 0.0548 0.27358 0.0
C704 C 0.70803 0.03909 0.24474 0.0
C705 C 0.71017 0.03794 0.1594 0.0
C706 C 0.70862 0.05744 0.10993 0.0
H707 H 0.70225 0.08144 0.25894 0.0
O708 O 0.74842 0.13761 0.17469 0.0
O709 O 0.73045 0.11215 0.09386 0.0
O710 O 0.70773 0.1318 0.16013 0.0
O711 O 0.69108 0.09773 0.16577 0.0
C712 C 0.7114 0.01283 0.05564 0.0
C713 C 0.71 0.02088 0.96321 0.0
H714 H 0.7105 0.04079 0.82394 0.0
H715 H 0.71312 0.07383 0.79808 0.0
H716 H 0.70374 0.05567 0.33588 0.0
H717 H 0.70958 0.03645 0.19 0.0
H718 H 0.7124 0.99898 0.06097 0.0
H719 H 0.71096 0.01249 0.91414 0.0
Mn720 Mn 0.86785 0.59611 0.08719 0.0
Mn721 Mn 0.91795 0.61123 0.09184 0.0
C722 C 0.89125 0.62859 0.14174 0.0
C723 C 0.83767 0.59408 0.03637 0.0
C724 C 0.88702 0.57826 0.19975 0.0
O725 O 0.87088 0.57863 0.99965 0.0
O726 O 0.90484 0.59071 0.00755 0.0
C727 C 0.932 0.63023 0.93606 0.0
N728 N 0.93416 0.63166 0.0145 0.0
C729 C 0.9701 0.6645 0.99207 0.0
C730 C 0.96498 0.66171 0.91322 0.0
C731 C 0.94651 0.64526 0.88664 0.0
C732 C 0.95033 0.64748 0.04753 0.0
H733 H 0.91857 0.61773 0.91018 0.0
C734 C 0.88746 0.5796 0.97502 0.0
O735 O 0.83719 0.58064 0.08409 0.0
O736 O 0.85568 0.60782 0.0125 0.0
N737 N 0.9315 0.63119 0.17147 0.0
C738 C 0.92852 0.62911 0.24991 0.0
C739 C 0.93995 0.64507 0.3033 0.0
C740 C 0.95617 0.66443 0.28355 0.0
C741 C 0.96255 0.66844 0.20057 0.0
C742 C 0.94626 0.64824 0.14018 0.0
H743 H 0.91652 0.61498 0.27354 0.0
O744 O 0.87225 0.61837 0.16287 0.0
O745 O 0.89636 0.619 0.09066 0.0
O746 O 0.87156 0.57908 0.17481 0.0
O747 O 0.90473 0.58954 0.17165 0.0
C748 C 0.99388 0.69538 0.11683 0.0
C749 C 0.99096 0.68707 0.02167 0.0
H750 H 0.97416 0.67352 0.87188 0.0
H751 H 0.94307 0.64425 0.82531 0.0
H752 H 0.93584 0.64222 0.36403 0.0
H753 H 0.96205 0.66896 0.23176 0.0
H754 H 0.0075 0.70984 0.13171 0.0
H755 H 1.00186 0.69706 0.97905 0.0
Mn756 Mn 0.61199 0.08104 0.58978 0.0
Mn757 Mn 0.64645 0.06633 0.56376 0.0
C758 C 0.60081 0.04706 0.54602 0.0
C759 C 0.58556 0.08488 0.64666 0.0
C760 C 0.64446 0.09709 0.45953 0.0
O761 O 0.6355 0.09973 0.66579 0.0
O762 O 0.65694 0.08723 0.64807 0.0
C763 C 0.65749 0.05158 0.70288 0.0
N764 N 0.64831 0.04721 0.63196 0.0
C765 C 0.66262 0.02231 0.61227 0.0
C766 C 0.67148 0.02847 0.6852 0.0
C767 C 0.66814 0.04198 0.73029 0.0
C768 C 0.6488 0.0332 0.58616 0.0
H769 H 0.65725 0.0631 0.73906 0.0
C770 C 0.65144 0.09855 0.68445 0.0
O771 O 0.59831 0.09767 0.59708 0.0
O772 O 0.58984 0.07129 0.67248 0.0
N773 N 0.63527 0.04597 0.48413 0.0
C774 C 0.62895 0.04739 0.41121 0.0
C775 C 0.62092 0.03116 0.35721 0.0
C776 C 0.62048 0.01264 0.36839 0.0
C777 C 0.63048 0.01056 0.43944 0.0
C778 C 0.63501 0.02931 0.50863 0.0
H779 H 0.62867 0.06088 0.39459 0.0
O780 O 0.59142 0.05684 0.52757 0.0
O781 O 0.6175 0.058 0.58701 0.0
O782 O 0.62865 0.09613 0.48955 0.0
O783 O 0.65195 0.08697 0.48677 0.0
C784 C 0.65151 0.99284 0.47947 0.0
C785 C 0.66461 1.00371 0.56467 0.0
H786 H 0.68027 0.02211 0.70927 0.0
H787 H 0.67451 0.04566 0.788 0.0
H788 H 0.61457 0.03307 0.3037 0.0
H789 H 0.62708 0.00957 0.4112 0.0
H790 H 0.65441 0.98175 0.45006 0.0
H791 H 0.67617 1.0008 0.58494 0.0
Mn792 Mn 0.92501 0.5319 0.58943 0.0
Mn793 Mn 0.93942 0.58084 0.55914 0.0
C794 C 0.95865 0.55413 0.5407 0.0
C795 C 0.92185 0.50188 0.64766 0.0
C796 C 0.90655 0.5472 0.46465 0.0
O797 O 0.90729 0.53757 0.66743 0.0
O798 O 0.92029 0.57169 0.64961 0.0
C799 C 0.9568 0.61057 0.68662 0.0
N800 N 0.95985 0.60366 0.61776 0.0
C801 C 0.9857 0.64214 0.58379 0.0
C802 C 0.98098 0.64691 0.65587 0.0
C803 C 0.96751 0.63146 0.70654 0.0
C804 C 0.97309 0.61678 0.5659 0.0
H805 H 0.9455 0.60003 0.72693 0.0
C806 C 0.9089 0.55488 0.68629 0.0
O807 O 0.90849 0.50152 0.60023 0.0
O808 O 0.93563 0.51995 0.67098 0.0
N809 N 0.95796 0.58818 0.47359 0.0
C810 C 0.95524 0.57866 0.40352 0.0
C811 C 0.97079 0.58494 0.34695 0.0
C812 C 0.99009 0.60242 0.3527 0.0
C813 C 0.99379 0.61627 0.41955 0.0
C814 C 0.97533 0.60457 0.49233 0.0
H815 H 0.94117 0.5649 0.39139 0.0
O816 O 0.94836 0.53487 0.52399 0.0
O817 O 0.94829 0.56048 0.58275 0.0
O818 O 0.90855 0.53266 0.4917 0.0
O819 O 0.91709 0.56486 0.49042 0.0
C820 C 0.01412 0.6558 0.44667 0.0
C821 C 1.00485 0.66094 0.53018 0.0
H822 H 0.98849 0.66262 0.67494 0.0
H823 H 0.9649 0.63586 0.76301 0.0
H824 H 0.96775 0.57545 0.29616 0.0
H825 H 0.99427 0.61309 0.3923 0.0
H826 H 0.02578 0.66877 0.41377 0.0
H827 H 0.01012 0.67628 0.54727 0.0
Mn828 Mn 0.47606 0.3956 0.608 0.0
Mn829 Mn 0.42576 0.36474 0.63595 0.0
C830 C 0.45298 0.40624 0.56396 0.0
C831 C 0.5087 0.42299 0.64155 0.0
C832 C 0.45031 0.35555 0.51771 0.0
O833 O 0.47454 0.37615 0.69658 0.0
O834 O 0.44037 0.35844 0.71759 0.0
C835 C 0.41503 0.37353 0.79239 0.0
N836 N 0.41234 0.37259 0.71411 0.0
C837 C 0.37687 0.37038 0.74123 0.0
C838 C 0.3821 0.37214 0.81958 0.0
C839 C 0.40082 0.37417 0.84377 0.0
C840 C 0.39582 0.37208 0.68317 0.0
H841 H 0.42828 0.37371 0.81666 0.0
C842 C 0.45867 0.36287 0.73409 0.0
O843 O 0.50637 0.40837 0.59593 0.0
O844 O 0.4922 0.4208 0.67363 0.0
N845 N 0.41146 0.37025 0.55684 0.0
C846 C 0.41323 0.36954 0.47816 0.0
C847 C 0.40087 0.37267 0.42471 0.0
C848 C 0.38485 0.376 0.44506 0.0
C849 C 0.38014 0.37589 0.52912 0.0
C850 C 0.39789 0.37415 0.58885 0.0
H851 H 0.42515 0.36742 0.45409 0.0
O852 O 0.47093 0.41313 0.53341 0.0
O853 O 0.4488 0.39282 0.61975 0.0
O854 O 0.46717 0.3723 0.5249 0.0
O855 O 0.43512 0.35221 0.55876 0.0
C856 C 0.35033 0.37344 0.6169 0.0
C857 C 0.35528 0.37103 0.71323 0.0
H858 H 0.37201 0.37274 0.86268 0.0
H859 H 0.40415 0.37556 0.90531 0.0
H860 H 0.40401 0.37259 0.36348 0.0
H861 H 0.38001 0.376 0.49772 0.0
H862 H 0.33633 0.37366 0.60315 0.0
H863 H 0.34523 0.37136 0.75694 0.0
Mn864 Mn 0.59277 0.72587 0.92843 0.0
Mn865 Mn 0.60831 0.69112 0.91722 0.0
C866 C 0.62464 0.7353 0.86927 0.0
C867 C 0.59192 0.7544 0.98272 0.0
C868 C 0.5743 0.68917 0.81488 0.0
O869 O 0.57595 0.70513 0.01569 0.0
O870 O 0.58837 0.68355 0.00463 0.0
C871 C 0.62858 0.69485 0.07002 0.0
N872 N 0.6294 0.69474 0.99119 0.0
C873 C 0.66325 0.69295 0.00665 0.0
C874 C 0.66071 0.694 0.08593 0.0
C875 C 0.64416 0.69533 0.11626 0.0
C876 C 0.64511 0.69483 0.95486 0.0
H877 H 0.61619 0.69539 0.09878 0.0
C878 C 0.57726 0.68961 0.03897 0.0
O879 O 0.5779 0.74168 0.93603 0.0
O880 O 0.60524 0.74938 0.0045 0.0
N881 N 0.62782 0.69803 0.83494 0.0
C882 C 0.62544 0.69989 0.75733 0.0
C883 C 0.6414 0.70574 0.70246 0.0
C884 C 0.66126 0.70983 0.71969 0.0
C885 C 0.66584 0.70685 0.80117 0.0
C886 C 0.64524 0.70056 0.86349 0.0
H887 H 0.61102 0.6975 0.73575 0.0
O888 O 0.61404 0.74385 0.85104 0.0
O889 O 0.61579 0.72045 0.92057 0.0
O890 O 0.57508 0.70528 0.84152 0.0
O891 O 0.58602 0.68293 0.84015 0.0
C892 C 0.69448 0.70407 0.87978 0.0
C893 C 0.6865 0.69696 0.97437 0.0
H894 H 0.67323 0.69695 0.12354 0.0
H895 H 0.64374 0.69763 0.17786 0.0
H896 H 0.6382 0.70751 0.64265 0.0
H897 H 0.66622 0.70827 0.77033 0.0
H898 H 0.70943 0.70634 0.86304 0.0
H899 H 0.69691 0.69615 0.01526 0.0
Mn900 Mn 0.27891 0.86471 0.9148 0.0
Mn901 Mn 0.31201 0.9132 0.90387 0.0
C902 C 0.26578 0.88685 0.88699 0.0
C903 C 0.25535 0.8326 0.97281 0.0
C904 C 0.31267 0.88411 0.79227 0.0
O905 O 0.3042 0.86933 0.98207 0.0
O906 O 0.32156 0.90387 0.99329 0.0
C907 C 0.32372 0.94221 0.03245 0.0
N908 N 0.31452 0.93599 0.96198 0.0
C909 C 0.33067 0.97494 0.92707 0.0
C910 C 0.33941 0.97898 1.00057 0.0
C911 C 0.33519 0.96302 0.0526 0.0
C912 C 0.31629 0.9497 0.90898 0.0
H913 H 0.32281 0.93107 0.07395 0.0
C914 C 0.31805 0.8861 0.01413 0.0
O915 O 0.26618 0.83454 0.91208 0.0
O916 O 0.25915 0.84981 0.00381 0.0
N917 N 0.30063 0.92079 0.81773 0.0
C918 C 0.29155 0.91071 0.75031 0.0
C919 C 0.28377 0.91841 0.69305 0.0
C920 C 0.28488 0.93739 0.69636 0.0
C921 C 0.29631 0.95105 0.76213 0.0
C922 C 0.30162 0.93827 0.83521 0.0
H923 H 0.28906 0.8957 0.73997 0.0
O924 O 0.25652 0.86783 0.86608 0.0
O925 O 0.28293 0.89253 0.9256 0.0
O926 O 0.29434 0.87013 0.80572 0.0
O927 O 0.32117 0.89794 0.84083 0.0
C928 C 0.31812 0.99053 0.78913 0.0
C929 C 0.33222 0.99458 0.87305 0.0
H930 H 0.34852 0.99457 0.01992 0.0
H931 H 0.34131 0.96685 0.11057 0.0
H932 H 0.27602 0.90881 0.64364 0.0
H933 H 0.29239 0.94803 0.73524 0.0
H934 H 0.32055 0.00391 0.75608 0.0
H935 H 0.3433 0.00964 0.89015 0.0
Mn936 Mn 0.14538 0.41432 0.91822 0.0
Mn937 Mn 0.09691 0.40129 0.88278 0.0
C938 C 0.12278 0.38099 0.87023 0.0
C939 C 0.17353 0.41605 0.98574 0.0
C940 C 0.1319 0.43306 0.78852 0.0
O941 O 0.14014 0.43327 0.99153 0.0
O942 O 0.1061 0.42047 0.97321 0.0
C943 C 0.06638 0.38482 0.00812 0.0
N944 N 0.07341 0.38135 0.94034 0.0
C945 C 0.03484 0.35624 0.90451 0.0
C946 C 0.02997 0.36137 0.97556 0.0
C947 C 0.04538 0.37469 0.02664 0.0
C948 C 0.06029 0.36815 0.8883 0.0
H949 H 0.0769 0.39606 0.04858 0.0
C950 C 0.12287 0.43179 0.01033 0.0
O951 O 0.17573 0.42906 0.9327 0.0
O952 O 0.15485 0.40347 0.00699 0.0
N953 N 0.0894 0.38244 0.798 0.0
C954 C 0.0992 0.38469 0.72891 0.0
C955 C 0.0927 0.36906 0.67267 0.0
C956 C 0.07475 0.35012 0.67763 0.0
C957 C 0.06069 0.34695 0.74323 0.0
C958 C 0.07252 0.36539 0.81605 0.0
H959 H 0.11333 0.39838 0.71761 0.0
O960 O 0.14225 0.3905 0.85646 0.0
O961 O 0.11658 0.39185 0.90969 0.0
O962 O 0.14588 0.43034 0.81711 0.0
O963 O 0.11407 0.4234 0.81413 0.0
C964 C 0.02102 0.3277 0.7678 0.0
C965 C 0.01591 0.33737 0.85028 0.0
H966 H 0.01419 0.35435 0.99346 0.0
H967 H 0.04088 0.37768 0.08224 0.0
H968 H 0.10241 0.37171 0.6228 0.0
H969 H 0.06392 0.34632 0.7164 0.0
H970 H 0.00805 0.31616 0.73467 0.0
H971 H 1.00055 0.3325 0.86623 0.0
Mn972 Mn 0.40073 0.92637 0.40968 0.0
Mn973 Mn 0.36871 0.9449 0.38872 0.0
C974 C 0.41033 0.95946 0.45847 0.0
C975 C 0.42953 0.92341 0.37106 0.0
C976 C 0.36049 0.91031 0.50188 0.0
O977 O 0.38156 0.90906 0.31878 0.0
O978 O 0.36276 0.92466 0.30495 0.0
C979 C 0.37662 0.9652 0.23413 0.0
N980 N 0.37568 0.96644 0.31262 0.0
C981 C 0.37263 0.99937 0.28985 0.0
C982 C 0.37451 0.99647 0.21096 0.0
C983 C 0.3769 0.98018 0.18459 0.0
C984 C 0.37477 0.98201 0.34562 0.0
H985 H 0.37721 0.95251 0.20827 0.0
C986 C 0.3678 0.91151 0.28404 0.0
O987 O 0.41549 0.91027 0.41678 0.0
O988 O 0.42602 0.93721 0.34238 0.0
N989 N 0.37384 0.96415 0.46992 0.0
C990 C 0.37277 0.9611 0.5484 0.0
C991 C 0.37615 0.97639 0.60326 0.0
C992 C 0.37982 0.99598 0.58476 0.0
C993 C 0.3795 1.00099 0.5013 0.0
C994 C 0.37744 0.98171 0.43957 0.0
H995 H 0.37007 0.94672 0.57128 0.0
O996 O 0.41761 0.94855 0.48696 0.0
O997 O 0.39699 0.95044 0.40246 0.0
O998 O 0.37726 0.91026 0.49252 0.0
O999 O 0.35738 0.92278 0.46408 0.0
C1000 C 0.37637 0.02852 0.41699 0.0
C1001 C 0.37332 0.02143 0.32029 0.0
H1002 H 0.37518 0.00745 0.16911 0.0
H1003 H 0.37852 0.97878 0.12281 0.0
H1004 H 0.37593 0.97278 0.66416 0.0
H1005 H 0.37971 1.00109 0.53267 0.0
H1006 H 0.37654 0.04264 0.43228 0.0
H1007 H 0.37328 0.03189 0.27779 0.0
Mn1008 Mn 0.08355 0.47338 0.41594 0.0
Mn1009 Mn 0.06722 0.42304 0.41486 0.0
C1010 C 0.05168 0.45041 0.47406 0.0
C1011 C 0.08613 0.50469 0.37418 0.0
C1012 C 0.10133 0.45249 0.52098 0.0
O1013 O 0.09925 0.47041 0.32224 0.0
O1014 O 0.08775 0.43651 0.3295 0.0
C1015 C 0.04737 0.40978 0.25984 0.0
N1016 N 0.04618 0.40756 0.33827 0.0
C1017 C 0.01258 0.37215 0.31643 0.0
C1018 C 0.01522 0.3773 0.23768 0.0
C1019 C 0.03193 0.39558 0.21082 0.0
C1020 C 0.03022 0.39153 0.37168 0.0
H1021 H 0.06007 0.42297 0.2337 0.0
C1022 C 0.09845 0.45402 0.29685 0.0
O1023 O 0.10014 0.50384 0.41427 0.0
O1024 O 0.07129 0.48712 0.35136 0.0
N1025 N 0.04752 0.40949 0.49551 0.0
C1026 C 0.05005 0.41214 0.57403 0.0
C1027 C 0.03425 0.40092 0.62827 0.0
C1028 C 0.01456 0.38521 0.60931 0.0
C1029 C 0.01 0.37918 0.52619 0.0
C1030 C 0.03007 0.39532 0.46485 0.0
H1031 H 0.06446 0.42376 0.59726 0.0
O1032 O 0.06271 0.46913 0.49773 0.0
O1033 O 0.06027 0.44521 0.41913 0.0
O1034 O 0.10148 0.46848 0.4963 0.0
O1035 O 0.08901 0.43501 0.49382 0.0
C1036 C 0.98208 0.34852 0.44269 0.0
C1037 C 0.98988 0.35156 0.3467 0.0
H1038 H 1.00331 0.3681 0.19668 0.0
H1039 H 0.03289 0.39905 0.14954 0.0
H1040 H 0.0375 0.40478 0.68905 0.0
H1041 H 0.00967 0.37959 0.55746 0.0
H1042 H 0.96752 0.33508 0.45803 0.0
H1043 H 0.9796 0.34091 0.3041 0.0
Mn1044 Mn 0.52951 0.60542 0.4274 0.0
Mn1045 Mn 0.57761 0.64183 0.461 0.0
C1046 C 0.5526 0.59547 0.47719 0.0
C1047 C 0.50125 0.57855 0.36029 0.0
C1048 C 0.54237 0.63881 0.55159 0.0
O1049 O 0.53454 0.62913 0.35147 0.0
O1050 O 0.56867 0.65076 0.36733 0.0
C1051 C 0.60942 0.65605 0.3402 0.0
N1052 N 0.60194 0.64589 0.40832 0.0
C1053 C 0.6404 0.6601 0.44985 0.0
C1054 C 0.64567 0.66969 0.37805 0.0
C1055 C 0.63056 0.6671 0.32431 0.0
C1056 C 0.61476 0.64657 0.46344 0.0
H1057 H 0.59913 0.65632 0.29737 0.0
C1058 C 0.55174 0.64482 0.33098 0.0
O1059 O 0.49912 0.58943 0.41315 0.0
O1060 O 0.51999 0.58469 0.33993 0.0
N1061 N 0.58471 0.63138 0.54962 0.0
C1062 C 0.57422 0.62365 0.6174 0.0
C1063 C 0.58047 0.6149 0.67616 0.0
C1064 C 0.59863 0.61426 0.67483 0.0
C1065 C 0.61319 0.62516 0.61046 0.0
C1066 C 0.60196 0.63167 0.53519 0.0
H1067 H 0.55976 0.62272 0.62583 0.0
O1068 O 0.53311 0.58521 0.4907 0.0
O1069 O 0.55851 0.61232 0.43636 0.0
O1070 O 0.52881 0.62131 0.52736 0.0
O1071 O 0.55998 0.6472 0.52422 0.0
C1072 C 0.65308 0.6455 0.59042 0.0
C1073 C 0.65896 0.66016 0.50719 0.0
H1074 H 0.66154 0.67852 0.36171 0.0
H1075 H 0.63543 0.67428 0.26844 0.0
H1076 H 0.57035 0.6078 0.72499 0.0
H1077 H 0.60973 0.62129 0.63719 0.0
H1078 H 0.66576 0.64684 0.62541 0.0
H1079 H 0.6747 0.6699 0.49144 0.0
Mn1080 Mn 0.08125 0.6094 0.4132 0.0
Mn1081 Mn 0.065 0.64346 0.41405 0.0
C1082 C 0.04843 0.59964 0.46637 0.0
C1083 C 0.08658 0.58255 0.36558 0.0
C1084 C 0.0983 0.64675 0.52281 0.0
O1085 O 0.0986 0.63004 0.3253 0.0
O1086 O 0.0852 0.65083 0.32884 0.0
C1087 C 0.04526 0.63782 0.25933 0.0
N1088 N 0.04407 0.63847 0.33792 0.0
C1089 C 0.01129 0.64178 0.31768 0.0
C1090 C 0.01389 0.63972 0.23847 0.0
C1091 C 0.03018 0.63755 0.21077 0.0
C1092 C 0.02842 0.63893 0.37198 0.0
H1093 H 0.05775 0.637 0.23264 0.0
C1094 C 0.09694 0.64508 0.29838 0.0
O1095 O 0.09832 0.59625 0.41465 0.0
O1096 O 0.07153 0.58479 0.3409 0.0
N1097 N 0.04543 0.63711 0.49507 0.0
C1098 C 0.04803 0.63676 0.57343 0.0
C1099 C 0.03248 0.63269 0.62817 0.0
C1100 C 0.01308 0.62965 0.60991 0.0
C1101 C 0.00858 0.63154 0.52705 0.0
C1102 C 0.0282 0.63464 0.46497 0.0
H1103 H 0.06228 0.63899 0.59608 0.0
O1104 O 0.05891 0.59119 0.48832 0.0
O1105 O 0.05779 0.61419 0.41443 0.0
O1106 O 0.0974 0.63031 0.50043 0.0
O1107 O 0.08715 0.65302 0.49251 0.0
C1108 C 0.98146 0.63603 0.44513 0.0
C1109 C 0.9891 0.64067 0.34909 0.0
H1110 H 1.00238 0.63815 0.19739 0.0
H1111 H 0.03116 0.6355 0.1491 0.0
H1112 H 0.03571 0.63179 0.68877 0.0
H1113 H 0.00828 0.63074 0.55834 0.0
H1114 H 0.96724 0.63556 0.46109 0.0
H1115 H 0.97882 0.64134 0.30728 0.0
Mn1116 Mn 0.39905 0.47496 0.44264 0.0
Mn1117 Mn 0.36324 0.42704 0.48252 0.0
C1118 C 0.4098 0.45251 0.49161 0.0
C1119 C 0.42516 0.5028 0.37181 0.0
C1120 C 0.36682 0.46286 0.57103 0.0
O1121 O 0.37447 0.46937 0.37084 0.0
O1122 O 0.35348 0.43519 0.38816 0.0
C1123 C 0.34693 0.39336 0.36877 0.0
N1124 N 0.35836 0.40189 0.43368 0.0
C1125 C 0.3456 0.36407 0.48096 0.0
C1126 C 0.33476 0.3577 0.41185 0.0
C1127 C 0.33592 0.372 0.35692 0.0
C1128 C 0.35878 0.38986 0.49006 0.0
H1129 H 0.34556 0.40296 0.32559 0.0
C1130 C 0.35889 0.45202 0.35125 0.0
O1131 O 0.41467 0.50525 0.42547 0.0
O1132 O 0.41896 0.48399 0.35225 0.0
N1133 N 0.37476 0.42088 0.57076 0.0
C1134 C 0.38342 0.43217 0.63614 0.0
C1135 C 0.39322 0.4268 0.69381 0.0
C1136 C 0.39436 0.40891 0.69364 0.0
C1137 C 0.38285 0.3936 0.6323 0.0
C1138 C 0.37466 0.40366 0.55786 0.0
H1139 H 0.38432 0.44663 0.64294 0.0
O1140 O 0.41997 0.47207 0.50324 0.0
O1141 O 0.39249 0.44608 0.45322 0.0
O1142 O 0.38417 0.47618 0.54473 0.0
O1143 O 0.35812 0.44511 0.54485 0.0
C1144 C 0.36316 0.35361 0.61844 0.0
C1145 C 0.34703 0.34648 0.53938 0.0
H1146 H 0.3261 0.3416 0.39825 0.0
H1147 H 0.32761 0.36624 0.3034 0.0
H1148 H 0.40085 0.43749 0.74057 0.0
H1149 H 0.38704 0.39737 0.65793 0.0
H1150 H 0.36276 0.34149 0.65426 0.0
H1151 H 0.33648 0.33057 0.53046 0.0
Mn1152 Mn 0.5374 0.92499 0.42496 0.0
Mn1153 Mn 0.58767 0.94017 0.4346 0.0
C1154 C 0.56041 0.9573 0.48106 0.0
C1155 C 0.50717 0.92336 0.37458 0.0
C1156 C 0.55576 0.90649 0.53786 0.0
O1157 O 0.54103 0.90782 0.33759 0.0
O1158 O 0.57511 0.92031 0.347 0.0
C1159 C 0.60419 0.96068 0.28244 0.0
N1160 N 0.60539 0.96108 0.36115 0.0
C1161 C 0.64178 0.9938 0.34616 0.0
C1162 C 0.63864 0.99104 0.26652 0.0
C1163 C 0.61988 0.97575 0.23645 0.0
C1164 C 0.62143 0.97624 0.3978 0.0
H1165 H 0.59069 0.94898 0.25379 0.0
C1166 C 0.55781 0.90909 0.31346 0.0
O1167 O 0.50667 0.90971 0.42116 0.0
O1168 O 0.52525 0.93683 0.35022 0.0
N1169 N 0.60045 0.95956 0.51722 0.0
C1170 C 0.59608 0.95737 0.59472 0.0
C1171 C 0.60655 0.97329 0.64953 0.0
C1172 C 0.62283 0.99291 0.63238 0.0
C1173 C 0.63051 0.99721 0.55109 0.0
C1174 C 0.61583 0.97666 0.48897 0.0
H1175 H 0.58366 0.94317 0.61618 0.0
O1176 O 0.54134 0.94686 0.50097 0.0
O1177 O 0.56604 0.94802 0.43036 0.0
O1178 O 0.5405 0.90756 0.51231 0.0
O1179 O 0.57361 0.91794 0.51152 0.0
C1180 C 0.66237 0.02511 0.47204 0.0
C1181 C 0.66129 0.01675 0.37804 0.0
H1182 H 0.64958 1.0025 0.22766 0.0
H1183 H 0.61699 0.97599 0.17534 0.0
H1184 H 0.60146 0.97026 0.70923 0.0
H1185 H 0.62949 0.9977 0.5818 0.0
H1186 H 0.67528 0.03995 0.48831 0.0
H1187 H 0.67227 0.02672 0.33661 0.0
Mn1188 Mn 0.27858 0.41397 0.94526 0.0
Mn1189 Mn 0.31324 0.39843 0.94534 0.0
C1190 C 0.26989 0.38202 0.8883 0.0
C1191 C 0.24966 0.41506 0.99294 0.0
C1192 C 0.31674 0.43204 0.8378 0.0
O1193 O 0.29795 0.43068 0.03599 0.0
O1194 O 0.32004 0.41879 0.03069 0.0
C1195 C 0.30782 0.37896 0.10067 0.0
N1196 N 0.30803 0.37745 0.02205 0.0
C1197 C 0.3093 0.34358 0.04376 0.0
C1198 C 0.30853 0.34698 0.12294 0.0
C1199 C 0.30742 0.36392 0.14993 0.0
C1200 C 0.30769 0.36132 0.98855 0.0
H1201 H 0.30771 0.39181 0.12714 0.0
C1202 C 0.31337 0.42968 0.06233 0.0
O1203 O 0.26288 0.42896 0.94704 0.0
O1204 O 0.25424 0.4016 0.01718 0.0
N1205 N 0.30735 0.37884 0.86455 0.0
C1206 C 0.30747 0.38148 0.78601 0.0
C1207 C 0.30312 0.36579 0.73161 0.0
C1208 C 0.29922 0.34611 0.75039 0.0
C1209 C 0.30038 0.34141 0.83358 0.0
C1210 C 0.30407 0.36136 0.8951 0.0
H1211 H 0.31029 0.39589 0.7628 0.0
O1212 O 0.2615 0.39251 0.86632 0.0
O1213 O 0.28403 0.39103 0.94194 0.0
O1214 O 0.30048 0.43159 0.86129 0.0
O1215 O 0.32253 0.42032 0.86657 0.0
C1216 C 0.30272 0.31333 0.91734 0.0
C1217 C 0.30701 0.32081 0.01331 0.0
H1218 H 0.30764 0.33588 0.16454 0.0
H1219 H 0.30611 0.36554 0.2116 0.0
H1220 H 0.30267 0.36912 0.67081 0.0
H1221 H 0.29976 0.34114 0.80233 0.0
H1222 H 0.30153 0.29874 0.90213 0.0
H1223 H 0.30667 0.31012 0.05565 0.0
Mn1224 Mn 0.59392 0.86031 0.9254 0.0
Mn1225 Mn 0.6064 0.90879 0.89458 0.0
C1226 C 0.6273 0.88362 0.87788 0.0
C1227 C 0.59228 0.8314 0.98751 0.0
C1228 C 0.57464 0.87442 0.79953 0.0
O1229 O 0.57539 0.86513 1.00308 0.0
O1230 O 0.58723 0.89905 0.98477 0.0
C1231 C 0.6226 0.93847 0.02227 0.0
N1232 N 0.626 0.93206 0.95315 0.0
C1233 C 0.65013 0.97102 0.91901 0.0
C1234 C 0.64469 0.9752 0.99061 0.0
C1235 C 0.63217 0.95931 0.0417 0.0
C1236 C 0.63867 0.94562 0.90121 0.0
H1237 H 0.6119 0.92752 0.06318 0.0
C1238 C 0.57648 0.88223 0.02217 0.0
O1239 O 0.57917 0.82982 0.9361 0.0
O1240 O 0.60506 0.84988 0.01042 0.0
N1241 N 0.6252 0.91689 0.80962 0.0
C1242 C 0.62321 0.90745 0.73987 0.0
C1243 C 0.63904 0.91447 0.68414 0.0
C1244 C 0.65786 0.93255 0.69054 0.0
C1245 C 0.66061 0.94624 0.75707 0.0
C1246 C 0.64198 0.93388 0.82863 0.0
H1247 H 0.6096 0.89325 0.72751 0.0
O1248 O 0.61783 0.8643 0.86122 0.0
O1249 O 0.61626 0.88928 0.91905 0.0
O1250 O 0.5773 0.86026 0.82649 0.0
O1251 O 0.58452 0.89209 0.82573 0.0
C1252 C 0.67919 0.98582 0.78379 0.0
C1253 C 0.66911 0.99045 0.86617 0.0
H1254 H 0.65094 0.99081 0.00916 0.0
H1255 H 0.62948 0.9632 0.09846 0.0
H1256 H 0.63668 0.90508 0.63356 0.0
H1257 H 0.66141 0.94316 0.72995 0.0
H1258 H 0.69078 0.999 0.75166 0.0
H1259 H 0.67459 0.006 0.88388 0.0
Mn1260 Mn 0.14572 0.73067 0.9137 0.0
Mn1261 Mn 0.09647 0.69706 0.88537 0.0
C1262 C 0.12397 0.74292 0.868 0.0
C1263 C 0.17703 0.75661 0.96877 0.0
C1264 C 0.12933 0.69722 0.78809 0.0
O1265 O 0.13971 0.70708 0.9913 0.0
O1266 O 0.10551 0.68641 0.97409 0.0
C1267 C 0.06724 0.68471 0.01447 0.0
N1268 N 0.074 0.69486 0.94583 0.0
C1269 C 0.03539 0.68195 0.91304 0.0
C1270 C 0.03077 0.67228 0.98484 0.0
C1271 C 0.04636 0.6743 0.03485 0.0
C1272 C 0.06074 0.69502 0.89473 0.0
H1273 H 0.07789 0.68395 0.05418 0.0
C1274 C 0.12231 0.69149 0.01018 0.0
O1275 O 0.1758 0.7429 0.92159 0.0
O1276 O 0.1595 0.75362 0.99387 0.0
N1277 N 0.08915 0.70878 0.80153 0.0
C1278 C 0.09856 0.71574 0.73133 0.0
C1279 C 0.09216 0.7251 0.67564 0.0
C1280 C 0.07458 0.72672 0.68221 0.0
C1281 C 0.06081 0.7163 0.74909 0.0
C1282 C 0.07276 0.70965 0.82123 0.0
H1283 H 0.11234 0.7155 0.71855 0.0
O1284 O 0.1432 0.75156 0.84962 0.0
O1285 O 0.11744 0.72612 0.90953 0.0
O1286 O 0.14415 0.71344 0.81545 0.0
O1287 O 0.11176 0.69037 0.8144 0.0
C1288 C 0.02128 0.69661 0.7768 0.0
C1289 C 0.01639 0.6821 0.86006 0.0
H1290 H 0.01507 0.66389 0.00422 0.0
H1291 H 0.0421 0.6671 0.0911 0.0
H1292 H 0.1016 0.73175 0.62479 0.0
H1293 H 0.06394 0.72003 0.72188 0.0
H1294 H 0.00821 0.69518 0.74428 0.0
H1295 H 1.00114 0.67176 0.87714 0.0
C1296 C 0.22986 0.01321 0.56276 0.0
C1297 C 0.2242 0.99231 0.56057 0.0
C1298 C 0.22556 0.99461 0.41723 0.0
C1299 C 0.23541 0.01634 0.42061 0.0
N1300 N 0.2491 0.04641 0.5024 0.0
N1301 N 0.21751 0.96307 0.48345 0.0
C1302 C 0.23788 0.02569 0.49487 0.0
C1303 C 0.22202 0.98292 0.48701 0.0
N1304 N 0.22715 0.02107 0.62991 0.0
N1305 N 0.2193 0.98508 0.34706 0.0
H1306 H 0.21438 0.95393 0.53261 0.0
H1307 H 0.21822 0.95611 0.43229 0.0
H1308 H 0.22103 0.99309 0.29565 0.0
H1309 H 0.21048 0.9693 0.34101 0.0
H1310 H 0.22945 0.03581 0.63435 0.0
H1311 H 0.21994 0.01177 0.67774 0.0
H1312 H 0.2532 0.05369 0.55612 0.0
H1313 H 0.25596 0.05633 0.45601 0.0
C1314 C 0.0308 0.24066 0.47553 0.0
C1315 C 0.0212 0.23303 0.54851 0.0
C1316 C 0.98803 0.21348 0.4817 0.0
C1317 C 0.99757 0.22091 0.40805 0.0
N1318 N 0.02894 0.23684 0.3351 0.0
N1319 N 0.99233 0.20692 0.61659 0.0
C1320 C 0.01928 0.23296 0.40525 0.0
C1321 C 1.00033 0.2177 0.54987 0.0
N1322 N 0.05068 0.25601 0.47315 0.0
N1323 N 0.96727 0.20371 0.48842 0.0
H1324 H 1.00149 0.20902 0.66489 0.0
H1325 H 0.97762 0.1944 0.6204 0.0
H1326 H 0.95747 0.20077 0.44173 0.0
H1327 H 0.95979 0.20013 0.5418 0.0
H1328 H 0.05779 0.26401 0.4227 0.0
H1329 H 0.05973 0.26165 0.52271 0.0
H1330 H 0.04474 0.24395 0.32921 0.0
H1331 H 0.02101 0.23101 0.28322 0.0
C1332 C 0.79636 0.77206 0.55357 0.0
C1333 C 0.79127 0.77589 0.47853 0.0
C1334 C 0.77716 0.79599 0.53664 0.0
C1335 C 0.78099 0.79101 0.61202 0.0
N1336 N 0.79909 0.77943 0.6922 0.0
N1337 N 0.78235 0.796 0.39707 0.0
C1338 C 0.79238 0.78084 0.62012 0.0
C1339 C 0.7836 0.78949 0.4698 0.0
N1340 N 0.80383 0.75903 0.56147 0.0
N1341 N 0.76611 0.80567 0.52885 0.0
H1342 H 0.787 0.79144 0.34762 0.0
H1343 H 0.77854 0.80722 0.38626 0.0
H1344 H 0.76186 0.8113 0.57611 0.0
H1345 H 0.76041 0.80738 0.47613 0.0
H1346 H 0.80561 0.75358 0.61464 0.0
H1347 H 0.80747 0.75293 0.5139 0.0
H1348 H 0.80878 0.77363 0.70258 0.0
H1349 H 0.79636 0.78587 0.74107 0.0
C1350 C 0.79152 0.01304 0.57507 0.0
C1351 C 0.77628 0.99211 0.57144 0.0
C1352 C 0.77335 0.99617 0.43018 0.0
C1353 C 0.7859 0.01777 0.43678 0.0
N1354 N 0.80634 0.04692 0.51813 0.0
N1355 N 0.75254 0.96349 0.49447 0.0
C1356 C 0.79509 0.02622 0.50978 0.0
C1357 C 0.76743 0.98355 0.49828 0.0
N1358 N 0.80287 0.02016 0.64113 0.0
N1359 N 0.76735 0.98764 0.35825 0.0
H1360 H 0.74853 0.95365 0.5419 0.0
H1361 H 0.74341 0.95687 0.44585 0.0
H1362 H 0.77109 0.99637 0.30775 0.0
H1363 H 0.76009 0.97201 0.34788 0.0
H1364 H 0.81534 0.03482 0.64686 0.0
H1365 H 0.80111 0.0104 0.68696 0.0
H1366 H 0.81152 0.05415 0.5715 0.0
H1367 H 0.8093 0.05704 0.47233 0.0
C1368 C 1.00202 0.78692 0.55966 0.0
C1369 C 0.02287 0.79234 0.55711 0.0
C1370 C 0.0202 0.78994 0.41396 0.0
C1371 C 0.99849 0.7804 0.41808 0.0
N1372 N 0.96862 0.7678 0.50055 0.0
N1373 N 0.05186 0.79829 0.47991 0.0
C1374 C 0.98935 0.77863 0.49237 0.0
C1375 C 0.03205 0.79394 0.48352 0.0
N1376 N 0.9944 0.79003 0.62669 0.0
N1377 N 0.02957 0.79548 0.34324 0.0
H1378 H 0.06115 0.80188 0.52885 0.0
H1379 H 0.05867 0.79709 0.42913 0.0
H1380 H 0.02144 0.79331 0.29183 0.0
H1381 H 0.04534 0.80409 0.33638 0.0
H1382 H 0.97974 0.78793 0.63143 0.0
H1383 H 1.00384 0.79729 0.67413 0.0
H1384 H 0.9614 0.76416 0.55446 0.0
H1385 H 0.95857 0.7608 0.45461 0.0
C1386 C 0.22693 0.2352 0.45493 0.0
C1387 C 0.23795 0.22446 0.45527 0.0
C1388 C 0.23278 0.22042 0.59769 0.0
C1389 C 0.22443 0.23359 0.59798 0.0
N1390 N 0.21657 0.25616 0.52559 0.0
N1391 N 0.25383 0.20933 0.5313 0.0
C1392 C 0.22202 0.24143 0.52614 0.0
C1393 C 0.24127 0.21744 0.52775 0.0
N1394 N 0.22107 0.23953 0.38596 0.0
N1395 N 0.23257 0.21071 0.66476 0.0
H1396 H 0.26084 0.2073 0.48283 0.0
H1397 H 0.25879 0.20623 0.58326 0.0
H1398 H 0.22657 0.21269 0.71633 0.0
H1399 H 0.23647 0.19933 0.66746 0.0
H1400 H 0.21088 0.24495 0.38154 0.0
H1401 H 0.22504 0.23602 0.33291 0.0
H1402 H 0.21726 0.26441 0.47615 0.0
H1403 H 0.21307 0.26155 0.57545 0.0
C1404 C 0.88916 0.32533 0.75041 0.0
C1405 C 0.89945 0.34706 0.75395 0.0
C1406 C 0.89341 0.34412 0.89574 0.0
C1407 C 0.88718 0.32308 0.89361 0.0
N1408 N 0.87961 0.29348 0.81721 0.0
N1409 N 0.91318 0.37723 0.83499 0.0
C1410 C 0.88488 0.31356 0.82028 0.0
C1411 C 0.90176 0.35651 0.82786 0.0
N1412 N 0.88323 0.3159 0.67992 0.0
N1413 N 0.89106 0.35221 0.96299 0.0
H1414 H 0.92016 0.38705 0.78838 0.0
H1415 H 0.91723 0.38463 0.88849 0.0
H1416 H 0.88386 0.34304 0.01117 0.0
H1417 H 0.89375 0.36708 0.96754 0.0
H1418 H 0.8741 0.30017 0.67345 0.0
H1419 H 0.88567 0.32402 0.6283 0.0
H1420 H 0.88024 0.28632 0.76655 0.0
H1421 H 0.87578 0.28426 0.86645 0.0
C1422 C 0.64839 0.54823 0.87298 0.0
C1423 C 0.65757 0.55197 0.79847 0.0
C1424 C 0.69168 0.56853 0.85941 0.0
C1425 C 0.68253 0.56559 0.93397 0.0
N1426 N 0.65243 0.54776 0.013 0.0
N1427 N 0.68718 0.56052 0.72128 0.0
C1428 C 0.66092 0.55376 0.94095 0.0
C1429 C 0.67901 0.56031 0.79221 0.0
N1430 N 0.6278 0.54049 0.87866 0.0
N1431 N 0.71237 0.58035 0.85208 0.0
H1432 H 0.67814 0.55457 0.67174 0.0
H1433 H 0.70241 0.56472 0.71278 0.0
H1434 H 0.72214 0.58638 0.89954 0.0
H1435 H 0.71984 0.58519 0.79897 0.0
H1436 H 0.62038 0.53982 0.93039 0.0
H1437 H 0.61818 0.53558 0.83038 0.0
H1438 H 0.63697 0.5377 0.02242 0.0
H1439 H 0.66127 0.55136 0.0633 0.0
C1440 C 0.46237 0.10722 0.82006 0.0
C1441 C 0.45491 0.10965 0.74708 0.0
C1442 C 0.4366 0.12445 0.81541 0.0
C1443 C 0.44431 0.12221 0.88778 0.0
N1444 N 0.47 0.11837 0.95421 0.0
N1445 N 0.43995 0.12619 0.67493 0.0
C1446 C 0.45901 0.11585 0.88828 0.0
C1447 C 0.44366 0.12012 0.74479 0.0
N1448 N 0.47132 0.09544 0.8261 0.0
N1449 N 0.42171 0.12964 0.81396 0.0
H1450 H 0.44537 0.12375 0.62266 0.0
H1451 H 0.43346 0.13545 0.66962 0.0
H1452 H 0.41645 0.13335 0.86379 0.0
H1453 H 0.41366 0.12897 0.76393 0.0
H1454 H 0.47494 0.09146 0.87923 0.0
H1455 H 0.4734 0.08799 0.77932 0.0
H1456 H 0.48211 0.11552 0.9572 0.0
H1457 H 0.46857 0.12588 1.00244 0.0
C1458 C 0.45306 0.33004 0.79233 0.0
C1459 C 0.46067 0.35131 0.80095 0.0
C1460 C 0.46148 0.34744 0.94263 0.0
C1461 C 0.45011 0.32589 0.93449 0.0
N1462 N 0.43577 0.29635 0.85173 0.0
N1463 N 0.47313 0.38072 0.88368 0.0
C1464 C 0.44657 0.31709 0.85925 0.0
C1465 C 0.46564 0.36022 0.87598 0.0
N1466 N 0.45188 0.32232 0.71962 0.0
N1467 N 0.46799 0.35554 0.01485 0.0
H1468 H 0.47694 0.39047 0.836 0.0
H1469 H 0.4748 0.38796 0.93672 0.0
H1470 H 0.46513 0.34635 0.06381 0.0
H1471 H 0.47763 0.37103 0.02536 0.0
H1472 H 0.44803 0.30729 0.70872 0.0
H1473 H 0.4566 0.33159 0.67027 0.0
H1474 H 0.43035 0.28883 0.79903 0.0
H1475 H 0.43153 0.28654 0.89933 0.0
C1476 C 0.66691 0.1125 0.89916 0.0
C1477 C 0.68819 0.1198 0.89461 0.0
C1478 C 0.68545 0.12026 0.75158 0.0
C1479 C 0.66375 0.1091 0.75633 0.0
N1480 N 0.6338 0.09263 0.83859 0.0
N1481 N 0.71786 0.13002 0.81399 0.0
C1482 C 0.65444 0.10496 0.83119 0.0
C1483 C 0.69758 0.12385 0.82007 0.0
N1484 N 0.65867 0.11314 0.96877 0.0
N1485 N 0.69449 0.12759 0.68118 0.0
H1486 H 0.72737 0.13314 0.86193 0.0
H1487 H 0.72498 0.13069 0.76146 0.0
H1488 H 0.68602 0.12549 0.63072 0.0
H1489 H 0.7101 0.13742 0.67421 0.0
H1490 H 0.64357 0.10966 0.9753 0.0
H1491 H 0.66772 0.11963 0.01783 0.0
H1492 H 0.62663 0.0872 0.89197 0.0
H1493 H 0.62393 0.08635 0.79166 0.0
C1494 C 0.90519 0.55274 0.83314 0.0
C1495 C 0.89913 0.55671 0.76008 0.0
C1496 C 0.88247 0.57337 0.82836 0.0
C1497 C 0.88791 0.56873 0.90168 0.0
N1498 N 0.90063 0.54997 0.97242 0.0
N1499 N 0.8784 0.56703 0.68934 0.0
C1500 C 0.89792 0.55701 0.90319 0.0
C1501 C 0.88654 0.56575 0.75836 0.0
N1502 N 0.91926 0.54643 0.83644 0.0
N1503 N 0.87484 0.58634 0.82456 0.0
H1504 H 0.88129 0.56184 0.63758 0.0
H1505 H 0.8674 0.57141 0.68453 0.0
H1506 H 0.87169 0.59239 0.87336 0.0
H1507 H 0.8731 0.5924 0.77277 0.0
H1508 H 0.92628 0.5459 0.88769 0.0
H1509 H 0.9254 0.5434 0.7876 0.0
H1510 H 0.90549 0.53935 0.97753 0.0
H1511 H 0.89619 0.55346 0.0244 0.0
C1512 C 0.55061 0.64535 0.18372 0.0
C1513 C 0.55339 0.65567 0.25552 0.0
C1514 C 0.57017 0.68862 0.18505 0.0
C1515 C 0.56662 0.67824 0.1126 0.0
N1516 N 0.54941 0.64629 0.04353 0.0
N1517 N 0.56171 0.68674 0.32219 0.0
C1518 C 0.55545 0.65648 0.11241 0.0
C1519 C 0.56176 0.67719 0.25508 0.0
N1520 N 0.54483 0.62509 0.18329 0.0
N1521 N 0.58292 0.70927 0.18854 0.0
H1522 H 0.55576 0.67878 0.37389 0.0
H1523 H 0.56563 0.70203 0.32478 0.0
H1524 H 0.58998 0.7183 0.14011 0.0
H1525 H 0.58802 0.71728 0.2405 0.0
H1526 H 0.54525 0.6174 0.13384 0.0
H1527 H 0.54119 0.6162 0.23327 0.0
H1528 H 0.53914 0.63069 0.03924 0.0
H1529 H 0.55332 0.65377 0.99046 0.0
C1530 C 0.33519 0.88484 0.22238 0.0
C1531 C 0.35642 0.89885 0.21481 0.0
C1532 C 0.35244 0.89665 0.07244 0.0
C1533 C 0.33084 0.88588 0.0807 0.0
N1534 N 0.30141 0.86944 0.16422 0.0
N1535 N 0.38561 0.91799 0.13267 0.0
C1536 C 0.32214 0.87945 0.15582 0.0
C1537 C 0.36522 0.90437 0.13965 0.0
N1538 N 0.32755 0.87691 0.29396 0.0
N1539 N 0.36064 0.89953 0.99974 0.0
H1540 H 0.3954 0.92328 0.18042 0.0
H1541 H 0.39267 0.92473 0.0804 0.0
H1542 H 0.35156 0.89385 0.95018 0.0
H1543 H 0.37618 0.90577 0.989 0.0
H1544 H 0.3126 0.86534 0.30353 0.0
H1545 H 0.33686 0.88069 0.34304 0.0
H1546 H 0.29405 0.86659 0.21765 0.0
H1547 H 0.29143 0.86481 0.11714 0.0
C1548 C 0.12413 0.44824 0.22412 0.0
C1549 C 0.10913 0.45422 0.22232 0.0
C1550 C 0.10948 0.45249 0.07906 0.0
C1551 C 0.12112 0.4424 0.08229 0.0
N1552 N 0.13735 0.42841 0.16356 0.0
N1553 N 0.08659 0.46118 0.14606 0.0
C1554 C 0.12816 0.43994 0.15625 0.0
C1555 C 0.10175 0.4564 0.14906 0.0
N1556 N 0.13479 0.45081 0.291 0.0
N1557 N 0.10606 0.45863 0.00886 0.0
H1558 H 0.08086 0.46457 0.19537 0.0
H1559 H 0.07879 0.46048 0.09526 0.0
H1560 H 0.112 0.45657 0.95719 0.0
H1561 H 0.09928 0.46762 1.00287 0.0
H1562 H 0.14709 0.44828 0.29504 0.0
H1563 H 0.13288 0.45804 0.33914 0.0
H1564 H 0.14064 0.42435 0.21718 0.0
H1565 H 0.13995 0.42121 0.11721 0.0
C1566 C 0.11934 0.67829 0.22722 0.0
C1567 C 0.10804 0.65654 0.22555 0.0
C1568 C 0.11158 0.65827 0.08239 0.0
C1569 C 0.12035 0.67987 0.08407 0.0
N1570 N 0.12997 0.71017 0.15992 0.0
N1571 N 0.09146 0.62582 0.1486 0.0
C1572 C 0.12387 0.68984 0.15705 0.0
C1573 C 0.10393 0.6465 0.15232 0.0
N1574 N 0.12568 0.68804 0.29678 0.0
N1575 N 0.11061 0.64896 0.01344 0.0
H1576 H 0.08555 0.6166 0.19752 0.0
H1577 H 0.08572 0.61789 0.09684 0.0
H1578 H 0.1158 0.65711 0.9618 0.0
H1579 H 0.10644 0.63364 0.00854 0.0
H1580 H 0.13609 0.70357 0.30238 0.0
H1581 H 0.12176 0.68014 0.3489 0.0
H1582 H 0.13011 0.71768 0.21074 0.0
H1583 H 0.13327 0.71936 0.11093 0.0
C1584 C 0.3566 0.458 0.20573 0.0
C1585 C 0.34678 0.45048 0.27886 0.0
C1586 C 0.31363 0.43206 0.2101 0.0
C1587 C 0.3235 0.43996 0.1377 0.0
N1588 N 0.35303 0.46581 0.07179 0.0
N1589 N 0.31522 0.43519 0.35074 0.0
C1590 C 0.34457 0.45472 0.13752 0.0
C1591 C 0.32503 0.43906 0.28092 0.0
N1592 N 0.37732 0.46692 0.19945 0.0
N1593 N 0.2936 0.41706 0.21138 0.0
H1594 H 0.32304 0.44061 0.40309 0.0
H1595 H 0.29945 0.42857 0.35594 0.0
H1596 H 0.28463 0.41186 0.16149 0.0
H1597 H 0.28627 0.40887 0.26125 0.0
H1598 H 0.38489 0.47062 0.14625 0.0
H1599 H 0.38687 0.46882 0.24599 0.0
H1600 H 0.36796 0.47798 0.06904 0.0
H1601 H 0.3441 0.4644 0.02349 0.0
C1602 C 0.55117 0.90107 0.16759 0.0
C1603 C 0.55837 0.89808 0.24028 0.0
C1604 C 0.5753 0.88195 0.1698 0.0
C1605 C 0.56738 0.88415 0.09782 0.0
N1606 N 0.54416 0.89184 0.03111 0.0
N1607 N 0.57377 0.88158 0.31011 0.0
C1608 C 0.55408 0.89236 0.09802 0.0
C1609 C 0.5692 0.88713 0.24092 0.0
N1610 N 0.54298 0.91355 0.16333 0.0
N1611 N 0.58998 0.87644 0.1705 0.0
H1612 H 0.57041 0.88576 0.36301 0.0
H1613 H 0.57924 0.87144 0.31499 0.0
H1614 H 0.59509 0.87254 0.12083 0.0
H1615 H 0.59839 0.87734 0.21974 0.0
H1616 H 0.53977 0.91829 0.11108 0.0
H1617 H 0.54101 0.92073 0.21135 0.0
H1618 H 0.5327 0.89562 0.02834 0.0
H1619 H 0.54605 0.88563 0.97992 0.0
C1620 C 0.21627 0.99059 0.99839 0.0
C1621 C 0.22436 0.99881 0.92378 0.0
C1622 C 0.23926 0.03374 0.97967 0.0
C1623 C 0.23226 0.02536 0.0546 0.0
N1624 N 0.20842 0.99664 0.12957 0.0
N1625 N 0.23914 0.02836 0.84041 0.0
C1626 C 0.21863 0.00402 0.06123 0.0
C1627 C 0.23435 0.02047 0.91365 0.0
N1628 N 0.2079 0.97014 0.01159 0.0
N1629 N 0.25163 0.05434 0.97232 0.0
H1630 H 0.23614 0.0192 0.79165 0.0
H1631 H 0.24454 0.04364 0.8272 0.0
H1632 H 0.25435 0.06433 0.01833 0.0
H1633 H 0.25976 0.06147 0.9222 0.0
H1634 H 0.20403 0.96361 0.06665 0.0
H1635 H 0.20625 0.95974 0.96868 0.0
H1636 H 0.19696 0.98155 0.13756 0.0
H1637 H 0.21012 0.00633 0.17567 0.0
C1638 C 0.97969 0.20822 0.9682 0.0
C1639 C 0.98801 0.20984 0.04342 0.0
C1640 C 0.02284 0.22855 0.98748 0.0
C1641 C 0.01467 0.22803 0.91245 0.0
N1642 N 0.98521 0.21251 0.82872 0.0
N1643 N 0.01674 0.21494 0.11907 0.0
C1644 C 0.99303 0.2162 0.90216 0.0
C1645 C 0.00937 0.21762 0.05043 0.0
N1646 N 0.95911 0.20009 0.96032 0.0
N1647 N 0.04326 0.24084 1.00088 0.0
H1648 H 0.00703 0.20696 0.16522 0.0
H1649 H 0.03185 0.21863 0.12722 0.0
H1650 H 0.05369 0.24951 0.95789 0.0
H1651 H 0.04969 0.24375 0.05615 0.0
H1652 H 0.95212 0.20102 0.90963 0.0
H1653 H 0.949 0.19302 0.00622 0.0
H1654 H 0.96994 0.20248 0.8158 0.0
H1655 H 0.99445 0.21821 0.77981 0.0
C1656 C 0.75607 0.76693 0.01933 0.0
C1657 C 0.76896 0.7859 0.98114 0.0
C1658 C 0.79328 0.79262 0.09016 0.0
C1659 C 0.7781 0.7749 0.13051 0.0
N1660 N 0.74102 0.75559 0.14381 0.0
N1661 N 0.80051 0.818 0.98782 0.0
C1662 C 0.75814 0.76569 0.09935 0.0
C1663 C 0.78778 0.79934 0.01947 0.0
N1664 N 0.74317 0.74926 0.98148 0.0
N1665 N 0.81256 0.80321 0.11947 0.0
H1666 H 0.7972 0.82265 0.93545 0.0
H1667 H 0.81361 0.82911 0.01553 0.0
H1668 H 0.81628 0.80012 0.17416 0.0
H1669 H 0.82477 0.81479 0.08913 0.0
H1670 H 0.73422 0.73568 0.01187 0.0
H1671 H 0.74331 0.74705 0.92211 0.0
H1672 H 0.72646 0.74859 0.11898 0.0
H1673 H 0.74124 0.75716 0.20397 0.0
C1674 C 0.79065 0.01477 0.93253 0.0
C1675 C 0.77719 0.99339 0.94075 0.0
C1676 C 0.78279 0.99751 0.08249 0.0
C1677 C 0.79263 0.01912 0.07547 0.0
N1678 N 0.80749 0.0485 0.99034 0.0
N1679 N 0.75974 0.96442 0.02617 0.0
C1680 C 0.79736 0.02781 0.99947 0.0
C1681 C 0.77336 0.98471 0.01642 0.0
N1682 N 0.79733 0.02258 0.86004 0.0
N1683 N 0.78295 0.98927 0.15278 0.0
H1684 H 0.75277 0.95445 0.97992 0.0
H1685 H 0.75431 0.95774 0.08028 0.0
H1686 H 0.79084 0.99842 0.20017 0.0
H1687 H 0.77754 0.97377 0.16141 0.0
H1688 H 0.80877 0.03753 0.84934 0.0
H1689 H 0.79269 0.01344 0.81064 0.0
H1690 H 0.8082 0.05569 0.93795 0.0
H1691 H 0.81489 0.0587 0.03535 0.0
C1692 C 0.99574 0.78126 0.91109 0.0
C1693 C 0.01736 0.79066 0.92127 0.0
C1694 C 0.01223 0.79546 0.05976 0.0
C1695 C 0.9908 0.78232 0.05251 0.0
N1696 N 0.96183 0.76365 0.96929 0.0
N1697 N 0.04596 0.80557 0.00987 0.0
C1698 C 0.98244 0.77589 0.97721 0.0
C1699 C 0.0256 0.7979 0.99657 0.0
N1700 N 0.9879 0.77752 0.83769 0.0
N1701 N 0.01973 0.80526 0.12868 0.0
H1702 H 0.0563 0.80723 0.96666 0.0
H1703 H 0.05238 0.80877 0.06516 0.0
H1704 H 0.01007 0.80372 0.17472 0.0
H1705 H 0.03495 0.81637 0.13712 0.0
H1706 H 0.97268 0.77262 0.82504 0.0
H1707 H 0.9971 0.78107 0.78869 0.0
H1708 H 0.95478 0.75593 0.91838 0.0
H1709 H 0.95176 0.76052 0.01541 0.0
C1710 C 0.23206 0.21311 0.01713 0.0
C1711 C 0.23027 0.21944 0.09292 0.0
C1712 C 0.20871 0.23269 0.03952 0.0
C1713 C 0.21149 0.22742 0.96335 0.0
N1714 N 0.21893 0.20583 0.88491 0.0
N1715 N 0.2099 0.22707 0.17785 0.0
C1716 C 0.22067 0.21508 0.95463 0.0
C1717 C 0.21636 0.22669 0.1045 0.0
N1718 N 0.24559 0.20652 1.0033 0.0
N1719 N 0.19967 0.24422 0.04982 0.0
H1720 H 0.21365 0.22054 0.22357 0.0
H1721 H 0.19885 0.23099 0.19083 0.0
H1722 H 0.19314 0.24798 0.00402 0.0
H1723 H 0.19948 0.25071 0.10293 0.0
H1724 H 0.24927 0.20399 0.94773 0.0
H1725 H 0.25419 0.20488 0.04699 0.0
H1726 H 0.22397 0.19548 0.87516 0.0
H1727 H 0.21039 0.20702 0.83967 0.0
C1728 C 0.90471 0.36377 0.31318 0.0
C1729 C 0.8978 0.35525 0.38804 0.0
C1730 C 0.88248 0.32061 0.33165 0.0
C1731 C 0.89033 0.32898 0.25702 0.0
N1732 N 0.90418 0.35854 0.1737 0.0
N1733 N 0.87407 0.32628 0.46231 0.0
C1734 C 0.89988 0.3506 0.24697 0.0
C1735 C 0.88444 0.33387 0.3944 0.0
N1736 N 0.91681 0.38441 0.30585 0.0
N1737 N 0.87471 0.30024 0.34498 0.0
H1738 H 0.87538 0.33588 0.50823 0.0
H1739 H 0.86279 0.3111 0.46982 0.0
H1740 H 0.87361 0.28999 0.30236 0.0
H1741 H 0.87099 0.29374 0.40011 0.0
H1742 H 0.92488 0.39159 0.25567 0.0
H1743 H 0.91939 0.39439 0.35174 0.0
H1744 H 0.90922 0.37377 0.16095 0.0
H1745 H 0.90105 0.34945 0.1246 0.0
C1746 C 0.68687 0.55353 0.34902 0.0
C1747 C 0.6883 0.56894 0.297 0.0
C1748 C 0.67411 0.58022 0.3981 0.0
C1749 C 0.6677 0.56249 0.44378 0.0
N1750 N 0.66891 0.53145 0.46005 0.0
N1751 N 0.66991 0.58738 0.26811 0.0
C1752 C 0.67422 0.54867 0.41818 0.0
C1753 C 0.67756 0.57913 0.31926 0.0
N1754 N 0.69692 0.5433 0.33187 0.0
N1755 N 0.67807 0.59852 0.42789 0.0
H1756 H 0.66835 0.58452 0.20886 0.0
H1757 H 0.66208 0.59464 0.2877 0.0
H1758 H 0.68002 0.60197 0.48681 0.0
H1759 H 0.68268 0.6112 0.39206 0.0
H1760 H 0.69783 0.53312 0.3701 0.0
H1761 H 0.7052 0.54589 0.28056 0.0
H1762 H 0.67159 0.51994 0.44099 0.0
H1763 H 0.66115 0.52849 0.51278 0.0
C1764 C 0.44885 0.12992 0.32627 0.0
C1765 C 0.44968 0.12211 0.25202 0.0
C1766 C 0.47035 0.10819 0.30929 0.0
C1767 C 0.46796 0.11457 0.38408 0.0
N1768 N 0.46209 0.13786 0.45825 0.0
N1769 N 0.46584 0.10863 0.16958 0.0
C1770 C 0.45981 0.12782 0.38993 0.0
C1771 C 0.46203 0.11287 0.24265 0.0
N1772 N 0.43624 0.13775 0.33821 0.0
N1773 N 0.4796 0.09673 0.30248 0.0
H1774 H 0.45979 0.11162 0.12039 0.0
H1775 H 0.47615 0.10373 0.157 0.0
H1776 H 0.48713 0.09446 0.3487 0.0
H1777 H 0.47934 0.08899 0.25221 0.0
H1778 H 0.43315 0.14137 0.39296 0.0
H1779 H 0.42752 0.13916 0.29451 0.0
H1780 H 0.45805 0.14904 0.46568 0.0
H1781 H 0.47005 0.13635 0.50495 0.0
C1782 C 0.45628 0.32449 0.34679 0.0
C1783 C 0.43901 0.32103 0.30134 0.0
C1784 C 0.42723 0.33224 0.41184 0.0
C1785 C 0.44625 0.34074 0.45073 0.0
N1786 N 0.47949 0.34363 0.45337 0.0
N1787 N 0.4155 0.33451 0.28708 0.0
C1788 C 0.46114 0.33658 0.41738 0.0
C1789 C 0.42682 0.32895 0.33186 0.0
N1790 N 0.46822 0.31684 0.32206 0.0
N1791 N 0.40928 0.3267 0.44911 0.0
H1792 H 0.40707 0.34056 0.31188 0.0
H1793 H 0.41648 0.33598 0.22714 0.0
H1794 H 0.40751 0.32477 0.50897 0.0
H1795 H 0.39549 0.32069 0.41886 0.0
H1796 H 0.47996 0.31733 0.35533 0.0
H1797 H 0.46559 0.30903 0.26959 0.0
H1798 H 0.49168 0.34296 0.42842 0.0
H1799 H 0.48258 0.35062 0.50771 0.0
C1800 C 0.65864 0.10385 0.24615 0.0
C1801 C 0.68035 0.1149 0.25421 0.0
C1802 C 0.67589 0.12255 0.38997 0.0
C1803 C 0.65464 0.10848 0.38596 0.0
N1804 N 0.62514 0.08745 0.30845 0.0
N1805 N 0.70966 0.13406 0.33696 0.0
C1806 C 0.64579 0.10003 0.31286 0.0
C1807 C 0.68899 0.12448 0.32653 0.0
N1808 N 0.65032 0.09704 0.17438 0.0
N1809 N 0.6835 0.13379 0.4561 0.0
H1810 H 0.71982 0.13548 0.29335 0.0
H1811 H 0.71672 0.13925 0.39058 0.0
H1812 H 0.67399 0.1325 0.50237 0.0
H1813 H 0.6985 0.14562 0.46199 0.0
H1814 H 0.63486 0.09061 0.16195 0.0
H1815 H 0.65918 0.09902 0.12537 0.0
H1816 H 0.61758 0.07851 0.26047 0.0
H1817 H 0.61551 0.08546 0.35503 0.0
C1818 C 0.88154 0.55553 0.40511 0.0
C1819 C 0.89341 0.54585 0.39634 0.0
C1820 C 0.89173 0.54972 0.25512 0.0
C1821 C 0.88512 0.56416 0.26603 0.0
N1822 N 0.87355 0.58075 0.35534 0.0
N1823 N 0.90923 0.53299 0.30936 0.0
C1824 C 0.87955 0.56675 0.34206 0.0
C1825 C 0.89806 0.5424 0.32007 0.0
N1826 N 0.87251 0.55419 0.47499 0.0
N1827 N 0.89098 0.5423 0.18261 0.0
H1828 H 0.91326 0.52668 0.35512 0.0
H1829 H 0.91519 0.5323 0.25565 0.0
H1830 H 0.8838 0.54559 0.13797 0.0
H1831 H 0.89442 0.53088 0.1703 0.0
H1832 H 0.86254 0.55969 0.48486 0.0
H1833 H 0.87335 0.54537 0.51992 0.0
H1834 H 0.87154 0.58492 0.41084 0.0
H1835 H 0.87189 0.58921 0.3111 0.0
C1836 C 0.54982 0.67173 0.61213 0.0
C1837 C 0.54055 0.65018 0.6206 0.0
C1838 C 0.54549 0.65572 0.76183 0.0
C1839 C 0.55962 0.67684 0.75017 0.0
N1840 N 0.57502 0.7051 0.66071 0.0
N1841 N 0.52815 0.62149 0.70746 0.0
C1842 C 0.56138 0.68501 0.67452 0.0
C1843 C 0.53761 0.64208 0.69688 0.0
N1844 N 0.54801 0.67935 0.54273 0.0
N1845 N 0.53904 0.64895 0.83527 0.0
H1846 H 0.52123 0.61119 0.66207 0.0
H1847 H 0.52791 0.61477 0.76055 0.0
H1848 H 0.54301 0.65925 0.88098 0.0
H1849 H 0.52783 0.63405 0.84845 0.0
H1850 H 0.55313 0.69476 0.53324 0.0
H1851 H 0.53933 0.66968 0.4976 0.0
H1852 H 0.57867 0.71135 0.60515 0.0
H1853 H 0.58373 0.71527 0.70442 0.0
C1854 C 0.33038 0.8752 0.68053 0.0
C1855 C 0.32365 0.88812 0.71421 0.0
C1856 C 0.3331 0.9073 0.59403 0.0
C1857 C 0.34504 0.89888 0.56719 0.0
N1858 N 0.35314 0.8721 0.58688 0.0
N1859 N 0.33286 0.92416 0.70864 0.0
C1860 C 0.34322 0.88194 0.61126 0.0
C1861 C 0.32915 0.90651 0.67338 0.0
N1862 N 0.32508 0.85703 0.71517 0.0
N1863 N 0.32532 0.91605 0.54596 0.0
H1864 H 0.33477 0.92662 0.76805 0.0
H1865 H 0.3371 0.93742 0.67656 0.0
H1866 H 0.31696 0.92253 0.56782 0.0
H1867 H 0.32421 0.91374 0.48608 0.0
H1868 H 0.32811 0.84622 0.69087 0.0
H1869 H 0.31652 0.85237 0.76625 0.0
H1870 H 0.35416 0.86115 0.62013 0.0
H1871 H 0.36058 0.8752 0.53349 0.0
C1872 C 0.1262 0.45924 0.72348 0.0
C1873 C 0.134 0.44569 0.71736 0.0
C1874 C 0.12721 0.44353 0.57624 0.0
C1875 C 0.11542 0.45339 0.58589 0.0
N1876 N 0.10305 0.46987 0.67273 0.0
N1877 N 0.14406 0.42658 0.63577 0.0
C1878 C 0.11518 0.46152 0.66023 0.0
C1879 C 0.13559 0.43875 0.6426 0.0
N1880 N 0.12888 0.46944 0.7917 0.0
N1881 N 0.13041 0.43875 0.50315 0.0
H1882 H 0.15133 0.42397 0.68208 0.0
H1883 H 0.14327 0.41852 0.58575 0.0
H1884 H 0.12427 0.44172 0.45415 0.0
H1885 H 0.14033 0.43338 0.49026 0.0
H1886 H 0.12517 0.48085 0.79936 0.0
H1887 H 0.13684 0.46779 0.8381 0.0
H1888 H 0.10031 0.47377 0.72756 0.0
H1889 H 0.09436 0.47149 0.62942 0.0
C1890 C 0.12077 0.66394 0.72826 0.0
C1891 C 0.13045 0.68547 0.71955 0.0
C1892 C 0.12658 0.68009 0.57842 0.0
C1893 C 0.11212 0.65905 0.58933 0.0
N1894 N 0.09541 0.63082 0.67873 0.0
N1895 N 0.14326 0.71425 0.63296 0.0
C1896 C 0.10949 0.6508 0.66531 0.0
C1897 C 0.13387 0.69366 0.64344 0.0
N1898 N 0.12219 0.6562 0.79792 0.0
N1899 N 0.13409 0.68681 0.50603 0.0
H1900 H 0.14955 0.72454 0.67883 0.0
H1901 H 0.14394 0.72095 0.57933 0.0
H1902 H 0.13092 0.67639 0.46137 0.0
H1903 H 0.14554 0.70169 0.49393 0.0
H1904 H 0.1167 0.64073 0.80761 0.0
H1905 H 0.1311 0.66583 0.84272 0.0
H1906 H 0.0868 0.62072 0.63475 0.0
H1907 H 0.09127 0.62465 0.73429 0.0
C1908 C 0.35144 0.45857 0.783 0.0
C1909 C 0.32983 0.44624 0.7728 0.0
C1910 C 0.3348 0.457 0.63519 0.0
C1911 C 0.35622 0.46517 0.64171 0.0
N1912 N 0.38538 0.47634 0.72457 0.0
N1913 N 0.3011 0.43317 0.68498 0.0
C1914 C 0.36469 0.46716 0.71691 0.0
C1915 C 0.32149 0.44574 0.69813 0.0
N1916 N 0.35928 0.46214 0.8564 0.0
N1917 N 0.32722 0.45948 0.56672 0.0
H1918 H 0.29082 0.42427 0.72799 0.0
H1919 H 0.29458 0.43029 0.6299 0.0
H1920 H 0.33683 0.46756 0.52046 0.0
H1921 H 0.31201 0.45548 0.55875 0.0
H1922 H 0.37448 0.47236 0.86965 0.0
H1923 H 0.35009 0.45601 0.90518 0.0
H1924 H 0.39272 0.47591 0.77502 0.0
H1925 H 0.39527 0.48395 0.67865 0.0
C1926 C 0.5491 0.88196 0.74029 0.0
C1927 C 0.56141 0.87276 0.73108 0.0
C1928 C 0.56056 0.87776 0.59015 0.0
C1929 C 0.55348 0.89179 0.6023 0.0
N1930 N 0.54073 0.90711 0.69261 0.0
N1931 N 0.57814 0.86102 0.64371 0.0
C1932 C 0.54721 0.89351 0.67824 0.0
C1933 C 0.56661 0.87004 0.6547 0.0
N1934 N 0.5398 0.88009 0.81001 0.0
N1935 N 0.56071 0.87127 0.51667 0.0
H1936 H 0.58196 0.85445 0.68914 0.0
H1937 H 0.58455 0.86089 0.59033 0.0
H1938 H 0.5541 0.87506 0.47134 0.0
H1939 H 0.56451 0.86015 0.50335 0.0
H1940 H 0.5295 0.88518 0.82007 0.0
H1941 H 0.54088 0.87136 0.85477 0.0
H1942 H 0.53822 0.91071 0.74835 0.0
H1943 H 0.53917 0.91582 0.64919 0.0
C1944 C 0.34918 0.10521 0.09489 0.0
C1945 C 0.36354 0.10747 0.153 0.0
C1946 C 0.3346 0.09085 0.24667 0.0
C1947 C 0.3201 0.08863 0.18857 0.0
N1948 N 0.31598 0.10066 0.06281 0.0
N1949 N 0.36986 0.10966 0.29069 0.0
C1950 C 0.32818 0.09814 0.1149 0.0
C1951 C 0.35621 0.10242 0.23075 0.0
N1952 N 0.35542 0.10984 0.01945 0.0
N1953 N 0.32802 0.08257 0.31863 0.0
H1954 H 0.38562 0.11775 0.28238 0.0
H1955 H 0.36552 0.10882 0.34857 0.0
H1956 H 0.31294 0.076 0.33691 0.0
H1957 H 0.33758 0.08144 0.35943 0.0
H1958 H 0.34531 0.10609 0.97311 0.0
H1959 H 0.37054 0.11606 1.00187 0.0
H1960 H 0.32175 0.11034 0.01499 0.0
H1961 H 0.30019 0.09358 0.06735 0.0
C1962 C 0.9061 0.24481 0.09331 0.0
C1963 C 0.90346 0.25641 0.15249 0.0
C1964 C 0.92112 0.24462 0.24388 0.0
C1965 C 0.92361 0.23276 0.1848 0.0
N1966 N 0.91146 0.21679 0.059 0.0
N1967 N 0.90164 0.26011 0.29072 0.0
C1968 C 0.9138 0.23129 0.11178 0.0
C1969 C 0.90893 0.25413 0.22967 0.0
N1970 N 0.90115 0.24643 0.01836 0.0
N1971 N 0.92977 0.24645 0.31514 0.0
H1972 H 0.89325 0.26751 0.28373 0.0
H1973 H 0.9028 0.25655 0.34825 0.0
H1974 H 0.93705 0.23847 0.33168 0.0
H1975 H 0.93061 0.2568 0.35686 0.0
H1976 H 0.90513 0.2405 0.97129 0.0
H1977 H 0.89432 0.25487 1.00203 0.0
H1978 H 0.90168 0.21282 0.01147 0.0
H1979 H 0.91876 0.20828 0.06283 0.0
C1980 C 0.75595 0.66575 0.11447 0.0
C1981 C 0.75394 0.65063 0.16903 0.0
C1982 C 0.77129 0.67842 0.26678 0.0
C1983 C 0.77373 0.69345 0.21188 0.0
N1984 N 0.77468 0.70141 0.07571 0.0
N1985 N 0.76751 0.64533 0.28987 0.0
C1986 C 0.76801 0.6871 0.13341 0.0
C1987 C 0.76407 0.65781 0.24251 0.0
N1988 N 0.74698 0.66005 0.0431 0.0
N1989 N 0.77615 0.68363 0.34299 0.0
H1990 H 0.76054 0.6296 0.28409 0.0
H1991 H 0.77785 0.65088 0.33584 0.0
H1992 H 0.78288 0.69852 0.36365 0.0
H1993 H 0.77218 0.67284 0.38702 0.0
H1994 H 0.74578 0.67015 0.0053 0.0
H1995 H 0.73982 0.64515 0.02256 0.0
H1996 H 0.77337 0.69773 0.01694 0.0
H1997 H 0.78259 0.71706 0.08634 0.0
C1998 C 0.08808 0.3218 0.89277 0.0
C1999 C 0.08608 0.31461 0.81493 0.0
C2000 C 0.1116 0.35018 0.77754 0.0
C2001 C 0.10979 0.35802 0.85113 0.0
N2002 N 0.09566 0.34974 0.98085 0.0
N2003 N 0.09674 0.32303 0.68166 0.0
C2004 C 0.09766 0.34336 0.90894 0.0
C2005 C 0.09807 0.32914 0.75713 0.0
N2006 N 0.08184 0.30811 0.95254 0.0
N2007 N 0.12634 0.36264 0.72601 0.0
H2008 H 0.08814 0.30791 0.66385 0.0
H2009 H 0.10303 0.33322 0.63551 0.0
H2010 H 0.13481 0.37844 0.73095 0.0
H2011 H 0.13054 0.35711 0.67831 0.0
H2012 H 0.0852 0.31242 0.01051 0.0
H2013 H 0.07445 0.29237 0.94404 0.0
H2014 H 0.08508 0.33999 0.02155 0.0
H2015 H 0.10379 0.36484 0.99911 0.0
C2016 C 0.67704 0.76177 0.76132 0.0
C2017 C 0.69096 0.77369 0.82134 0.0
C2018 C 0.66136 0.75915 0.91291 0.0
C2019 C 0.64758 0.74734 0.85297 0.0
N2020 N 0.64203 0.74528 0.71471 0.0
N2021 N 0.69361 0.78825 0.94988 0.0
C2022 C 0.65534 0.75096 0.77557 0.0
C2023 C 0.6822 0.774 0.89506 0.0
N2024 N 0.68423 0.76121 0.68924 0.0
N2025 N 0.65476 0.7563 0.9882 0.0
H2026 H 0.7094 0.79727 0.94854 0.0
H2027 H 0.6871 0.79139 0.9974 0.0
H2028 H 0.63973 0.74647 0.00476 0.0
H2029 H 0.6646 0.76252 0.03539 0.0
H2030 H 0.67509 0.75095 0.6465 0.0
H2031 H 0.69943 0.77026 0.67292 0.0
H2032 H 0.6467 0.74968 0.6576 0.0
H2033 H 0.62622 0.73734 0.72184 0.0
C2034 C 0.24354 0.92375 0.90965 0.0
C2035 C 0.23858 0.92612 0.83178 0.0
C2036 C 0.24637 0.89892 0.7953 0.0
C2037 C 0.25613 0.90032 0.86866 0.0
N2038 N 0.26313 0.91501 0.99745 0.0
N2039 N 0.23563 0.91507 0.69886 0.0
C2040 C 0.25464 0.91321 0.92592 0.0
C2041 C 0.24011 0.91343 0.7745 0.0
N2042 N 0.23659 0.93048 0.96943 0.0
N2043 N 0.24297 0.88384 0.74361 0.0
H2044 H 0.23009 0.92449 0.68048 0.0
H2045 H 0.23895 0.90824 0.65297 0.0
H2046 H 0.24979 0.8749 0.74622 0.0
H2047 H 0.23282 0.87996 0.69729 0.0
H2048 H 0.23745 0.92703 0.02739 0.0
H2049 H 0.22871 0.93835 0.96089 0.0
H2050 H 0.26468 0.92597 0.03769 0.0
H2051 H 0.26947 0.90627 0.01565 0.0
C2052 C 0.68646 0.91917 0.90384 0.0
C2053 C 0.69403 0.92202 0.82624 0.0
C2054 C 0.65877 0.896 0.78643 0.0
C2055 C 0.65042 0.89701 0.86013 0.0
N2056 N 0.65804 0.91023 0.99126 0.0
N2057 N 0.68629 0.91218 0.69212 0.0
C2058 C 0.66478 0.90898 0.91907 0.0
C2059 C 0.67982 0.91014 0.76738 0.0
N2060 N 0.69993 0.92518 0.96428 0.0
N2061 N 0.64679 0.88146 0.73348 0.0
H2062 H 0.70146 0.92134 0.6754 0.0
H2063 H 0.67633 0.90594 0.6453 0.0
H2064 H 0.63101 0.87253 0.73765 0.0
H2065 H 0.65275 0.87787 0.68539 0.0
H2066 H 0.7157 0.93295 0.95657 0.0
H2067 H 0.69543 0.92127 0.02183 0.0
H2068 H 0.66748 0.9207 0.03285 0.0
H2069 H 0.64294 0.90152 0.00911 0.0
C2070 C 0.09058 0.76899 0.89511 0.0
C2071 C 0.08815 0.77419 0.8177 0.0
C2072 C 0.11296 0.76335 0.77721 0.0
C2073 C 0.1116 0.75382 0.85085 0.0
N2074 N 0.09836 0.74854 0.98198 0.0
N2075 N 0.09785 0.776 0.68346 0.0
C2076 C 0.1 0.75676 0.90997 0.0
C2077 C 0.09959 0.77125 0.7586 0.0
N2078 N 0.08492 0.77669 0.95583 0.0
N2079 N 0.12711 0.76513 0.72374 0.0
H2080 H 0.08943 0.78283 0.66694 0.0
H2081 H 0.10359 0.77179 0.63644 0.0
H2082 H 0.13531 0.75751 0.72732 0.0
H2083 H 0.1311 0.77477 0.67573 0.0
H2084 H 0.08865 0.77577 0.01334 0.0
H2085 H 0.07765 0.78519 0.94852 0.0
H2086 H 0.08797 0.74778 0.0234 0.0
H2087 H 0.10669 0.74174 0.99989 0.0
C2088 C 0.233 0.32361 0.90703 0.0
C2089 C 0.23478 0.31573 0.8335 0.0
C2090 C 0.25681 0.35194 0.79208 0.0
C2091 C 0.25879 0.35913 0.86991 0.0
N2092 N 0.24792 0.35075 1.00297 0.0
N2093 N 0.24903 0.32398 0.7039 0.0
C2094 C 0.24662 0.34463 0.92752 0.0
C2095 C 0.24706 0.33037 0.77581 0.0
N2096 N 0.21823 0.31119 0.95858 0.0
N2097 N 0.26319 0.36566 0.73237 0.0
H2098 H 0.24069 0.30892 0.68531 0.0
H2099 H 0.25975 0.33367 0.66345 0.0
H2100 H 0.27063 0.3814 0.74097 0.0
H2101 H 0.25988 0.36138 0.67436 0.0
H2102 H 0.21401 0.31677 0.00611 0.0
H2103 H 0.20977 0.2954 0.95387 0.0
H2104 H 0.2415 0.34058 0.0491 0.0
H2105 H 0.25665 0.36586 0.02083 0.0
C2106 C 0.92083 0.68108 0.24966 0.0
C2107 C 0.92394 0.69553 0.1899 0.0
C2108 C 0.90654 0.66597 0.0984 0.0
C2109 C 0.90342 0.65167 0.15812 0.0
N2110 N 0.90059 0.64615 0.29633 0.0
N2111 N 0.91278 0.69955 0.0622 0.0
C2112 C 0.9085 0.65941 0.23537 0.0
C2113 C 0.91447 0.68726 0.1163 0.0
N2114 N 0.929 0.6878 0.32163 0.0
N2115 N 0.90194 0.65937 0.02335 0.0
H2116 H 0.92043 0.71538 0.06532 0.0
H2117 H 0.90319 0.69384 0.0141 0.0
H2118 H 0.89515 0.6441 0.00727 0.0
H2119 H 0.90626 0.66926 0.97605 0.0
H2120 H 0.92947 0.67819 0.3639 0.0
H2121 H 0.93613 0.70301 0.33852 0.0
H2122 H 0.90146 0.65088 0.35368 0.0
H2123 H 0.89193 0.63038 0.28922 0.0
C2124 C 0.35289 0.24537 0.22706 0.0
C2125 C 0.36094 0.25423 0.1523 0.0
C2126 C 0.32491 0.24052 0.11055 0.0
C2127 C 0.31779 0.23645 0.18879 0.0
N2128 N 0.32613 0.23539 0.32323 0.0
N2129 N 0.35301 0.25937 0.0211 0.0
C2130 C 0.33213 0.23901 0.24722 0.0
C2131 C 0.34647 0.25175 0.09387 0.0
N2132 N 0.36484 0.24288 0.28052 0.0
N2133 N 0.31113 0.2326 0.05122 0.0
H2134 H 0.36813 0.2659 1.00323 0.0
H2135 H 0.34341 0.26009 0.97935 0.0
H2136 H 0.29539 0.2246 0.06015 0.0
H2137 H 0.31537 0.23282 0.99352 0.0
H2138 H 0.35877 0.23325 0.32839 0.0
H2139 H 0.38065 0.25001 0.2781 0.0
H2140 H 0.33639 0.23953 0.36924 0.0
H2141 H 0.31114 0.22967 0.34151 0.0
C2142 C 0.75729 0.09558 0.13776 0.0
C2143 C 0.75662 0.1106 0.18149 0.0
C2144 C 0.78943 0.11415 0.23513 0.0
C2145 C 0.78427 0.09456 0.20245 0.0
N2146 N 0.75165 0.07182 0.2379 0.0
N2147 N 0.77537 0.1351 0.28486 0.0
C2148 C 0.76393 0.08383 0.1802 0.0
C2149 C 0.77403 0.12072 0.23395 0.0
N2150 N 0.76331 0.10089 0.0629 0.0
N2151 N 0.80797 0.12584 0.26908 0.0
H2152 H 0.76361 0.13829 0.29246 0.0
H2153 H 0.78692 0.14181 0.3262 0.0
H2154 H 0.81867 0.12104 0.27317 0.0
H2155 H 0.81301 0.14066 0.28836 0.0
H2156 H 0.76044 0.11114 0.03245 0.0
H2157 H 0.77445 0.09848 0.03823 0.0
H2158 H 0.75585 0.06363 0.27498 0.0
H2159 H 0.74158 0.07568 0.26254 0.0
C2160 C 0.02123 0.43376 0.56927 0.0
C2161 C 0.02872 0.439 0.49176 0.0
C2162 C 0.9933 0.4291 0.45235 0.0
C2163 C 0.98514 0.41947 0.52582 0.0
N2164 N 0.99292 0.41342 0.6561 0.0
N2165 N 0.02073 0.44126 0.35779 0.0
C2166 C 0.99958 0.42187 0.58444 0.0
C2167 C 0.01439 0.4365 0.4331 0.0
N2168 N 0.03473 0.44102 0.62966 0.0
N2169 N 0.98114 0.43152 0.39973 0.0
H2170 H 0.03592 0.44803 0.34058 0.0
H2171 H 0.01066 0.4372 0.31117 0.0
H2172 H 0.96531 0.42411 0.40289 0.0
H2173 H 0.98698 0.4414 0.35248 0.0
H2174 H 0.03024 0.44002 0.68741 0.0
H2175 H 0.05051 0.44924 0.62188 0.0
H2176 H 1.00249 0.41245 0.6973 0.0
H2177 H 0.97776 0.40649 0.67366 0.0
C2178 C 0.58767 0.57133 0.45761 0.0
C2179 C 0.58997 0.56657 0.53601 0.0
C2180 C 0.56435 0.57663 0.57207 0.0
C2181 C 0.56594 0.58593 0.49778 0.0
N2182 N 0.58008 0.59145 0.3682 0.0
N2183 N 0.57963 0.56512 0.66936 0.0
C2184 C 0.57806 0.58324 0.4405 0.0
C2185 C 0.57812 0.56946 0.59345 0.0
N2186 N 0.59388 0.56378 0.39813 0.0
N2187 N 0.54944 0.57413 0.62308 0.0
H2188 H 0.58813 0.55854 0.68786 0.0
H2189 H 0.57345 0.56933 0.71495 0.0
H2190 H 0.54054 0.58096 0.61683 0.0
H2191 H 0.54551 0.56466 0.67157 0.0
H2192 H 0.5902 0.56436 0.34025 0.0
H2193 H 0.60169 0.55585 0.40654 0.0
H2194 H 0.59073 0.59225 0.32791 0.0
H2195 H 0.57199 0.59841 0.34924 0.0
C2196 C 0.44562 0.01808 0.44022 0.0
C2197 C 0.44323 0.02572 0.51342 0.0
C2198 C 0.42226 0.98941 0.55481 0.0
C2199 C 0.42093 0.98229 0.47711 0.0
N2200 N 0.43185 0.99102 0.34413 0.0
N2201 N 0.42841 0.01708 0.64208 0.0
C2202 C 0.43268 0.997 0.41955 0.0
C2203 C 0.43112 0.0109 0.57081 0.0
N2204 N 0.46055 0.03069 0.38953 0.0
N2205 N 0.41582 0.97573 0.61467 0.0
H2206 H 0.43593 0.03218 0.66037 0.0
H2207 H 0.41775 0.00713 0.68214 0.0
H2208 H 0.40853 0.95999 0.60643 0.0
H2209 H 0.41881 0.98006 0.67274 0.0
H2210 H 0.4652 0.02525 0.34285 0.0
H2211 H 0.46866 0.04651 0.39375 0.0
H2212 H 0.43784 1.00132 0.29817 0.0
H2213 H 0.42408 0.97586 0.32617 0.0
C2214 C 0.58766 0.00964 0.58965 0.0
C2215 C 0.59081 0.02394 0.5294 0.0
C2216 C 0.57506 0.9945 0.43713 0.0
C2217 C 0.57196 0.98033 0.49739 0.0
N2218 N 0.5678 0.97466 0.63552 0.0
N2219 N 0.58076 0.02785 0.39964 0.0
C2220 C 0.57605 0.98799 0.57492 0.0
C2221 C 0.58222 0.01565 0.45482 0.0
N2222 N 0.59509 0.01647 0.66241 0.0
N2223 N 0.57114 0.98791 0.3619 0.0
H2224 H 0.58788 0.04365 0.4037 0.0
H2225 H 0.57182 0.0221 0.34994 0.0
H2226 H 0.56485 0.97268 0.34583 0.0
H2227 H 0.57551 0.99778 0.31455 0.0
H2228 H 0.59555 0.00702 0.7054 0.0
H2229 H 0.60164 0.03165 0.67929 0.0
H2230 H 0.56794 0.97933 0.69252 0.0
H2231 H 0.5596 0.95887 0.62837 0.0
C2232 C 0.99673 0.5779 0.57979 0.0
C2233 C 0.98179 0.56654 0.52157 0.0
C2234 C 0.01066 0.57789 0.42707 0.0
C2235 C 0.02546 0.58902 0.48529 0.0
N2236 N 0.03194 0.5923 0.62292 0.0
N2237 N 0.97666 0.55072 0.39464 0.0
C2238 C 0.01828 0.58682 0.56332 0.0
C2239 C 0.98945 0.56489 0.44721 0.0
N2240 N 0.99061 0.57979 0.65234 0.0
N2241 N 0.01669 0.57953 0.35135 0.0
H2242 H 0.96085 0.5427 0.39948 0.0
H2243 H 0.98194 0.54656 0.34604 0.0
H2244 H 0.03188 0.58764 0.33371 0.0
H2245 H 0.00644 0.574 0.30514 0.0
H2246 H 1.00061 0.58988 0.69367 0.0
H2247 H 0.97549 0.57209 0.67062 0.0
H2248 H 0.02759 0.58874 0.68078 0.0
H2249 H 0.04765 0.59923 0.61423 0.0
C2250 C 0.42227 0.42737 0.45343 0.0
C2251 C 0.41996 0.43971 0.51084 0.0
C2252 C 0.43829 0.42903 0.60371 0.0
C2253 C 0.44085 0.41704 0.54609 0.0
N2254 N 0.44177 0.41181 0.40827 0.0
N2255 N 0.43317 0.45739 0.63335 0.0
C2256 C 0.43483 0.41838 0.46867 0.0
C2257 C 0.43034 0.44218 0.58329 0.0
N2258 N 0.41306 0.42456 0.38274 0.0
N2259 N 0.44368 0.42825 0.67883 0.0
H2260 H 0.42586 0.46587 0.6285 0.0
H2261 H 0.44337 0.46195 0.67973 0.0
H2262 H 0.4508 0.42019 0.69642 0.0
H2263 H 0.43979 0.43456 0.72493 0.0
H2264 H 0.41203 0.41373 0.34291 0.0
H2265 H 0.40554 0.43218 0.36478 0.0
H2266 H 0.44025 0.4148 0.35035 0.0
H2267 H 0.45014 0.40441 0.41581 0.0
C2268 C 0.24703 0.11713 0.36751 0.0
C2269 C 0.26412 0.11621 0.33836 0.0
C2270 C 0.28211 0.15368 0.31773 0.0
C2271 C 0.26397 0.15415 0.33702 0.0
N2272 N 0.2294 0.13641 0.38447 0.0
N2273 N 0.29783 0.1337 0.28184 0.0
C2274 C 0.24655 0.13587 0.36354 0.0
C2275 C 0.28179 0.13459 0.31428 0.0
N2276 N 0.23141 0.10004 0.40083 0.0
N2277 N 0.29973 0.1714 0.30081 0.0
H2278 H 0.29905 0.12062 0.28144 0.0
H2279 H 0.30956 0.14565 0.25105 0.0
H2280 H 0.30064 0.18543 0.2928 0.0
H2281 H 0.31401 0.17251 0.29893 0.0
H2282 H 0.2191 0.09965 0.42931 0.0
H2283 H 0.23165 0.08641 0.40566 0.0
H2284 H 0.21529 0.1235 0.39468 0.0
H2285 H 0.22913 0.15 0.38987 0.0
C2286 C 0.88329 0.11131 0.35232 0.0
C2287 C 0.86412 0.11054 0.35529 0.0
C2288 C 0.88183 0.148 0.3469 0.0
C2289 C 0.90106 0.14891 0.34049 0.0
N2290 N 0.9203 0.13191 0.36261 0.0
N2291 N 0.84758 0.12914 0.39826 0.0
C2292 C 0.90183 0.13065 0.35131 0.0
C2293 C 0.86412 0.12916 0.36664 0.0
N2294 N 0.88377 0.09352 0.35101 0.0
N2295 N 0.87988 0.16452 0.32901 0.0
H2296 H 0.83545 0.11618 0.42289 0.0
H2297 H 0.84746 0.14252 0.41156 0.0
H2298 H 0.89192 0.17851 0.31109 0.0
H2299 H 0.86572 0.16365 0.32449 0.0
H2300 H 0.8968 0.09273 0.33811 0.0
H2301 H 0.87084 0.07941 0.36218 0.0
H2302 H 0.92199 0.11947 0.37692 0.0
H2303 H 0.93391 0.14585 0.36543 0.0
C2304 C 0.89097 0.75663 0.38613 0.0
C2305 C 0.8989 0.7546 0.31384 0.0
C2306 C 0.86758 0.74956 0.24858 0.0
C2307 C 0.86064 0.75379 0.31896 0.0
N2308 N 0.86582 0.7621 0.45473 0.0
N2309 N 0.89482 0.75005 0.17432 0.0
C2310 C 0.87228 0.75733 0.38804 0.0
C2311 C 0.8872 0.75134 0.24479 0.0
N2312 N 0.90138 0.758 0.45277 0.0
N2313 N 0.85488 0.74265 0.18554 0.0
H2314 H 0.90756 0.74842 0.16746 0.0
H2315 H 0.88896 0.75152 0.12154 0.0
H2316 H 0.84055 0.74135 0.18435 0.0
H2317 H 0.85767 0.7364 0.13643 0.0
H2318 H 0.89576 0.75763 0.50822 0.0
H2319 H 0.91532 0.75831 0.45268 0.0
H2320 H 0.8743 0.7668 0.50572 0.0
H2321 H 0.85225 0.7625 0.45774 0.0
C2322 C 0.1338 0.27792 0.69968 0.0
C2323 C 0.11535 0.25992 0.67867 0.0
C2324 C 0.13509 0.24273 0.6495 0.0
C2325 C 0.1532 0.26 0.67732 0.0
N2326 N 0.16981 0.29405 0.73122 0.0
N2327 N 0.09895 0.22707 0.61681 0.0
C2328 C 0.15267 0.27781 0.70073 0.0
C2329 C 0.11619 0.24285 0.64873 0.0
N2330 N 0.13341 0.29521 0.71985 0.0
N2331 N 0.136 0.22596 0.62584 0.0
H2332 H 0.08519 0.22709 0.6132 0.0
H2333 H 0.0984 0.21466 0.58872 0.0
H2334 H 0.14978 0.22604 0.62024 0.0
H2335 H 0.12333 0.21187 0.61325 0.0
H2336 H 0.14637 0.30962 0.72271 0.0
H2337 H 0.12013 0.29569 0.73026 0.0
H2338 H 0.16982 0.30588 0.76201 0.0
H2339 H 0.18421 0.29555 0.72943 0.0
C2340 C 0.73464 0.85991 0.71505 0.0
C2341 C 0.75302 0.85963 0.69998 0.0
C2342 C 0.77089 0.89684 0.67665 0.0
C2343 C 0.75274 0.89728 0.69509 0.0
N2344 N 0.71628 0.87842 0.72002 0.0
N2345 N 0.78742 0.8767 0.65238 0.0
C2346 C 0.73429 0.87857 0.7096 0.0
C2347 C 0.7708 0.87783 0.67659 0.0
N2348 N 0.71775 0.84259 0.74084 0.0
N2349 N 0.78829 0.91473 0.65949 0.0
H2350 H 0.78751 0.86296 0.6506 0.0
H2351 H 0.80054 0.88883 0.62881 0.0
H2352 H 0.78841 0.92845 0.65133 0.0
H2353 H 0.80268 0.91624 0.65454 0.0
H2354 H 0.70522 0.8424 0.76665 0.0
H2355 H 0.7164 0.82825 0.7402 0.0
H2356 H 0.70203 0.86526 0.71634 0.0
H2357 H 0.71508 0.89133 0.7291 0.0
C2358 C 0.13788 0.89667 0.66006 0.0
C2359 C 0.15557 0.89774 0.69354 0.0
C2360 C 0.13617 0.86035 0.71382 0.0
C2361 C 0.11781 0.85969 0.68965 0.0
N2362 N 0.10111 0.87734 0.63985 0.0
N2363 N 0.17077 0.88072 0.76168 0.0
C2364 C 0.11871 0.87792 0.66263 0.0
C2365 C 0.1546 0.87956 0.72159 0.0
N2366 N 0.1396 0.91349 0.62347 0.0
N2367 N 0.13611 0.84268 0.73131 0.0
H2368 H 0.18454 0.89419 0.76978 0.0
H2369 H 0.17006 0.86863 0.7931 0.0
H2370 H 0.12301 0.82842 0.73423 0.0
H2371 H 0.14939 0.84191 0.7378 0.0
H2372 H 0.12795 0.91346 0.59124 0.0
H2373 H 0.15341 0.92722 0.61961 0.0
H2374 H 0.10001 0.89029 0.6293 0.0
H2375 H 0.08725 0.86374 0.63421 0.0
C2376 C 0.92313 0.45409 0.72195 0.0
C2377 C 0.9264 0.44649 0.65107 0.0
C2378 C 0.92778 0.47562 0.58118 0.0
C2379 C 0.92476 0.48356 0.65181 0.0
N2380 N 0.92255 0.48202 0.79113 0.0
N2381 N 0.93733 0.45342 0.51719 0.0
C2382 C 0.92353 0.47337 0.72294 0.0
C2383 C 0.9303 0.45827 0.58221 0.0
N2384 N 0.91879 0.44246 0.78743 0.0
N2385 N 0.92784 0.48431 0.51138 0.0
H2386 H 0.93871 0.44054 0.51272 0.0
H2387 H 0.9436 0.46315 0.46973 0.0
H2388 H 0.92858 0.49828 0.50521 0.0
H2389 H 0.926 0.47697 0.45832 0.0
H2390 H 0.91423 0.44585 0.83963 0.0
H2391 H 0.91876 0.42866 0.78818 0.0
H2392 H 0.9234 0.47655 0.8456 0.0
H2393 H 0.92214 0.49559 0.79304 0.0
C2394 C 0.53921 0.45119 0.71423 0.0
C2395 C 0.52849 0.44296 0.64343 0.0
C2396 C 0.55466 0.47327 0.57333 0.0
C2397 C 0.56628 0.48073 0.64276 0.0
N2398 N 0.57057 0.47641 0.77837 0.0
N2399 N 0.52644 0.44585 0.50425 0.0
C2400 C 0.55871 0.46965 0.71319 0.0
C2401 C 0.53643 0.45388 0.57275 0.0
N2402 N 0.53074 0.44133 0.78241 0.0
N2403 N 0.56036 0.48534 0.50845 0.0
H2404 H 0.51171 0.43341 0.50072 0.0
H2405 H 0.53309 0.45105 0.44997 0.0
H2406 H 0.57358 0.49949 0.50507 0.0
H2407 H 0.55119 0.48223 0.45954 0.0
H2408 H 0.53644 0.44739 0.83696 0.0
H2409 H 0.51719 0.42734 0.78474 0.0
H2410 H 0.56716 0.46825 0.8301 0.0
H2411 H 0.58471 0.48982 0.77933 0.0
C2412 C 0.55373 0.07944 0.5797 0.0
C2413 C 0.56448 0.08221 0.65069 0.0
C2414 C 0.53724 0.08506 0.71983 0.0
C2415 C 0.52681 0.08254 0.64831 0.0
N2416 N 0.5232 0.07282 0.51281 0.0
N2417 N 0.56523 0.08473 0.78987 0.0
C2418 C 0.53454 0.07844 0.57942 0.0
C2419 C 0.55573 0.08393 0.72148 0.0
N2420 N 0.5621 0.07837 0.51064 0.0
N2421 N 0.52993 0.08938 0.78524 0.0
H2422 H 0.57894 0.08459 0.79211 0.0
H2423 H 0.55911 0.08435 0.8443 0.0
H2424 H 0.51644 0.08997 0.78539 0.0
H2425 H 0.53752 0.09329 0.83826 0.0
H2426 H 0.55732 0.08075 0.45687 0.0
H2427 H 0.57442 0.07601 0.50589 0.0
H2428 H 0.5259 0.06575 0.46613 0.0
H2429 H 0.51029 0.07399 0.50488 0.0
C2430 C 0.79849 0.61246 0.03077 0.0
C2431 C 0.78008 0.59372 0.01663 0.0
C2432 C 0.80077 0.57726 0.99234 0.0
C2433 C 0.81857 0.59496 0.01943 0.0
N2434 N 0.83361 0.62884 0.07428 0.0
N2435 N 0.76371 0.55818 0.98223 0.0
C2436 C 0.81732 0.61254 0.03983 0.0
C2437 C 0.7813 0.57613 0.99642 0.0
N2438 N 0.79817 0.6303 0.03724 0.0
N2439 N 0.80261 0.56167 0.96102 0.0
H2440 H 0.74949 0.55723 0.97833 0.0
H2441 H 0.76307 0.54416 0.97718 0.0
H2442 H 0.81665 0.56227 0.95595 0.0
H2443 H 0.79072 0.54906 0.9337 0.0
H2444 H 0.81137 0.64458 0.03789 0.0
H2445 H 0.785 0.63131 0.03441 0.0
H2446 H 0.83272 0.64077 0.10044 0.0
H2447 H 0.84765 0.62978 0.08354 0.0
C2448 C 0.43455 0.2078 0.97713 0.0
C2449 C 0.41978 0.19084 0.02068 0.0
C2450 C 0.40959 0.21302 0.08599 0.0
C2451 C 0.42316 0.22979 0.03876 0.0
N2452 N 0.44653 0.24247 0.93114 0.0
N2453 N 0.38928 0.17643 0.0994 0.0
C2454 C 0.43495 0.22694 0.98127 0.0
C2455 C 0.40589 0.19315 0.06874 0.0
N2456 N 0.44837 0.20568 0.93309 0.0
N2457 N 0.40122 0.21613 0.15111 0.0
H2458 H 0.38584 0.16153 0.08842 0.0
H2459 H 0.37766 0.17729 0.12858 0.0
H2460 H 0.40504 0.23056 0.17071 0.0
H2461 H 0.39278 0.20469 0.19143 0.0
H2462 H 0.4609 0.21786 0.90646 0.0
H2463 H 0.44773 0.19167 0.92622 0.0
H2464 H 0.45408 0.24086 0.88352 0.0
H2465 H 0.44739 0.25665 0.93435 0.0
C2466 C 0.79248 0.19753 0.9733 0.0
C2467 C 0.77937 0.19238 0.03931 0.0
C2468 C 0.79914 0.22805 0.08026 0.0
C2469 C 0.81519 0.23205 0.02762 0.0
N2470 N 0.82553 0.22034 0.91515 0.0
N2471 N 0.77551 0.20281 0.16856 0.0
C2472 C 0.81148 0.21662 0.97171 0.0
C2473 C 0.7842 0.20763 0.09653 0.0
N2474 N 0.78634 0.18492 0.91021 0.0
N2475 N 0.79727 0.24351 0.11232 0.0
H2476 H 0.7665 0.18785 0.18792 0.0
H2477 H 0.77979 0.21369 0.21249 0.0
H2478 H 0.80544 0.25847 0.09193 0.0
H2479 H 0.78514 0.24078 0.14874 0.0
H2480 H 0.79432 0.18867 0.85795 0.0
H2481 H 0.77214 0.17168 0.90684 0.0
H2482 H 0.8252 0.20888 0.88067 0.0
H2483 H 0.83746 0.23493 0.90246 0.0
C2484 C 0.61203 0.79339 0.98274 0.0
C2485 C 0.59378 0.77483 1.00127 0.0
C2486 C 0.57726 0.79504 0.03513 0.0
C2487 C 0.59442 0.81306 0.00634 0.0
N2488 N 0.62803 0.82925 0.94892 0.0
N2489 N 0.55926 0.75806 0.04927 0.0
C2490 C 0.61195 0.81228 0.981 0.0
C2491 C 0.57651 0.77575 0.02913 0.0
N2492 N 0.62953 0.79315 0.9648 0.0
N2493 N 0.56185 0.79659 0.06986 0.0
H2494 H 0.5588 0.74407 0.05288 0.0
H2495 H 0.54525 0.75699 0.06046 0.0
H2496 H 0.5623 0.81052 0.07614 0.0
H2497 H 0.54952 0.78462 0.09813 0.0
H2498 H 0.64388 0.80623 0.96327 0.0
H2499 H 0.63026 0.77997 0.95567 0.0
H2500 H 0.63964 0.82901 0.91738 0.0
H2501 H 0.6294 0.84361 0.94956 0.0
C2502 C 0.21323 0.78088 0.92481 0.0
C2503 C 0.19749 0.77596 0.9805 0.0
C2504 C 0.22149 0.80839 0.04721 0.0
C2505 C 0.23723 0.81177 0.99305 0.0
N2506 N 0.2492 0.79352 0.91377 0.0
N2507 N 0.18942 0.78347 0.10783 0.0
C2508 C 0.23352 0.79537 0.94364 0.0
C2509 C 0.20236 0.78928 0.0458 0.0
N2510 N 0.20904 0.77339 0.85088 0.0
N2511 N 0.22477 0.82289 0.10109 0.0
H2512 H 0.17614 0.76933 0.11118 0.0
H2513 H 0.19297 0.79173 0.1594 0.0
H2514 H 0.23922 0.83512 0.1132 0.0
H2515 H 0.21307 0.8226 0.13394 0.0
H2516 H 0.22051 0.77758 0.80934 0.0
H2517 H 0.19438 0.76616 0.82741 0.0
H2518 H 0.24665 0.78116 0.87904 0.0
H2519 H 0.26421 0.8026 0.9329 0.0
C2520 C 0.19205 0.39583 0.9849 0.0
C2521 C 0.19146 0.41361 0.008 0.0
C2522 C 0.22854 0.43104 0.03473 0.0
C2523 C 0.22931 0.41358 0.00857 0.0
N2524 N 0.21084 0.3778 0.97293 0.0
N2525 N 0.20787 0.44629 0.07049 0.0
C2526 C 0.21076 0.39545 0.98921 0.0
C2527 C 0.20939 0.43065 0.03775 0.0
N2528 N 0.17513 0.37977 0.95249 0.0
N2529 N 0.24624 0.44813 0.0561 0.0
H2530 H 0.19399 0.44606 0.07463 0.0
H2531 H 0.21975 0.45859 0.09914 0.0
H2532 H 0.26007 0.44832 0.06187 0.0
H2533 H 0.24749 0.46224 0.06636 0.0
H2534 H 0.17537 0.36801 0.92208 0.0
H2535 H 0.16081 0.3785 0.95197 0.0
H2536 H 0.19766 0.36354 0.97118 0.0
H2537 H 0.22396 0.37686 0.96529 0.0
C2538 C 0.45095 0.90747 0.33105 0.0
C2539 C 0.4499 0.92436 0.36165 0.0
C2540 C 0.48738 0.94249 0.38205 0.0
C2541 C 0.48809 0.92468 0.35998 0.0
N2542 N 0.47037 0.89004 0.31336 0.0
N2543 N 0.46696 0.95709 0.42588 0.0
C2544 C 0.46978 0.90714 0.33435 0.0
C2545 C 0.46813 0.94176 0.38843 0.0
N2546 N 0.43403 0.892 0.29628 0.0
N2547 N 0.50502 0.9602 0.39868 0.0
H2548 H 0.45347 0.95741 0.43262 0.0
H2549 H 0.47903 0.96871 0.45656 0.0
H2550 H 0.51928 0.96141 0.40288 0.0
H2551 H 0.5058 0.97429 0.40329 0.0
H2552 H 0.43399 0.88012 0.26584 0.0
H2553 H 0.42023 0.89192 0.29234 0.0
H2554 H 0.45743 0.87588 0.30415 0.0
H2555 H 0.48399 0.88982 0.30762 0.0
C2556 C 0.10199 0.56069 0.40075 0.0
C2557 C 0.08888 0.5639 0.35099 0.0
C2558 C 0.07719 0.52908 0.29963 0.0
C2559 C 0.08637 0.52475 0.36409 0.0
N2560 N 0.10157 0.53659 0.49157 0.0
N2561 N 0.06477 0.5505 0.24476 0.0
C2562 C 0.09703 0.54057 0.41923 0.0
C2563 C 0.07651 0.54781 0.29822 0.0
N2564 N 0.11972 0.57661 0.42832 0.0
N2565 N 0.07027 0.51611 0.23765 0.0
H2566 H 0.06651 0.56472 0.23194 0.0
H2567 H 0.05333 0.53849 0.21312 0.0
H2568 H 0.07179 0.50322 0.23357 0.0
H2569 H 0.06513 0.51936 0.18644 0.0
H2570 H 0.12977 0.57436 0.46287 0.0
H2571 H 0.12593 0.59135 0.40605 0.0
H2572 H 0.10858 0.548 0.53344 0.0
H2573 H 0.0956 0.52186 0.51358 0.0
C2574 C 0.48285 0.53985 0.34468 0.0
C2575 C 0.48293 0.55859 0.33517 0.0
C2576 C 0.44536 0.53875 0.319 0.0
C2577 C 0.44506 0.52079 0.34501 0.0
N2578 N 0.46412 0.5048 0.38881 0.0
N2579 N 0.46425 0.57572 0.30486 0.0
C2580 C 0.46397 0.52136 0.35792 0.0
C2581 C 0.46413 0.5579 0.31903 0.0
N2582 N 0.5007 0.53948 0.34157 0.0
N2583 N 0.42762 0.53736 0.29319 0.0
H2584 H 0.47776 0.58957 0.29704 0.0
H2585 H 0.45115 0.57693 0.30274 0.0
H2586 H 0.41389 0.5235 0.29121 0.0
H2587 H 0.42678 0.54935 0.26735 0.0
H2588 H 0.50125 0.526 0.34044 0.0
H2589 H 0.5148 0.55226 0.3304 0.0
H2590 H 0.47727 0.50534 0.4102 0.0
H2591 H 0.45103 0.49085 0.39908 0.0
loop_
_geom_bond_atom_site_label_1
_geom_bond_atom_site_label_2
_geom_bond_distance
_geom_bond_site_symmetry_2
_ccdc_geom_bond_type
Mn0 O5 2.095 . S
Mn0 O15 2.162 . S
Mn0 O16 2.297 . S
Mn0 O24 2.385 . S
Mn0 O25 2.209 . S
Mn0 O26 2.094 . S
Mn1 O6 2.121 . S
Mn1 N8 2.257 . S
Mn1 N17 2.282 . S
Mn1 O25 2.215 . S
Mn1 O27 2.117 . S
C2 O24 1.234 . S
C2 O25 1.283 . S
C3 O15 1.281 . S
C3 O16 1.236 . S
C4 O26 1.240 . S
C4 O27 1.264 . S
O5 Mn0 2.095 . S
O5 C14 1.250 . S
O6 Mn1 2.121 . S
O6 C14 1.258 . S
C7 N8 1.326 . S
C7 C11 1.460 . S
C7 H13 0.929 . S
N8 Mn1 2.257 . S
N8 C7 1.326 . S
N8 C12 1.362 . S
C9 C10 1.258 . S
C9 C12 1.431 . S
C9 C29 1.449 . S
C10 C9 1.258 . S
C10 C11 1.477 . S
C10 H30 0.931 . S
C11 C7 1.460 . S
C11 C10 1.477 . S
C11 H31 0.930 . S
C12 N8 1.362 . S
C12 C9 1.431 . S
C12 C22 1.476 . S
H13 C7 0.929 . S
C14 O5 1.250 . S
C14 O6 1.258 . S
O15 Mn0 2.162 . S
O15 C3 1.281 . S
O16 Mn0 2.297 . S
O16 C3 1.236 . S
N17 Mn1 2.282 . S
N17 C18 1.328 . S
N17 C22 1.318 . S
C18 N17 1.328 . S
C18 C19 1.457 . S
C18 H23 0.929 . S
C19 C18 1.457 . S
C19 C20 1.291 . S
C19 H32 0.920 1_554 S
C20 C19 1.291 . S
C20 C21 1.373 . S
C20 H33 0.929 . S
C21 C20 1.373 . S
C21 C22 1.396 . S
C21 C28 1.403 . S
C22 C12 1.476 . S
C22 N17 1.318 . S
C22 C21 1.396 . S
H23 C18 0.929 . S
O24 Mn0 2.385 . S
O24 C2 1.234 . S
O25 Mn0 2.209 . S
O25 Mn1 2.215 . S
O25 C2 1.283 . S
O26 Mn0 2.094 . S
O26 C4 1.240 . S
O27 Mn1 2.117 . S
O27 C4 1.264 . S
C28 C21 1.403 . S
C28 C29 1.399 . S
C28 H34 0.929 . S
C29 C9 1.449 . S
C29 C28 1.399 . S
C29 H35 0.930 . S
H30 C10 0.931 . S
H31 C11 0.930 . S
H32 C19 0.920 1_556 S
H33 C20 0.929 . S
H34 C28 0.929 . S
H35 C29 0.930 . S
Mn36 O41 2.095 . S
Mn36 O51 2.162 . S
Mn36 O52 2.297 . S
Mn36 O60 2.385 . S
Mn36 O61 2.209 . S
Mn36 O62 2.094 . S
Mn37 O42 2.121 . S
Mn37 N44 2.257 . S
Mn37 N53 2.282 . S
Mn37 O61 2.215 . S
Mn37 O63 2.117 . S
C38 O60 1.234 . S
C38 O61 1.283 . S
C39 O51 1.281 . S
C39 O52 1.236 . S
C40 O62 1.240 . S
C40 O63 1.264 . S
O41 Mn36 2.095 . S
O41 C50 1.250 . S
O42 Mn37 2.121 . S
O42 C50 1.258 . S
C43 N44 1.326 . S
C43 C47 1.460 . S
C43 H49 0.929 . S
N44 Mn37 2.257 . S
N44 C43 1.326 . S
N44 C48 1.362 . S
C45 C46 1.258 . S
C45 C48 1.431 . S
C45 C65 1.449 . S
C46 C45 1.258 . S
C46 C47 1.477 . S
C46 H66 0.931 . S
C47 C43 1.460 . S
C47 C46 1.477 . S
C47 H67 0.930 . S
C48 N44 1.362 . S
C48 C45 1.431 . S
C48 C58 1.476 . S
H49 C43 0.929 . S
C50 O41 1.250 . S
C50 O42 1.258 . S
O51 Mn36 2.162 . S
O51 C39 1.281 . S
O52 Mn36 2.297 . S
O52 C39 1.236 . S
N53 Mn37 2.282 . S
N53 C54 1.328 . S
N53 C58 1.318 . S
C54 N53 1.328 . S
C54 C55 1.457 . S
C54 H59 0.929 . S
C55 C54 1.457 . S
C55 C56 1.291 . S
C55 H68 0.920 1_554 S
C56 C55 1.291 . S
C56 C57 1.373 . S
C56 H69 0.929 . S
C57 C56 1.373 . S
C57 C58 1.396 . S
C57 C64 1.403 . S
C58 C48 1.476 . S
C58 N53 1.318 . S
C58 C57 1.396 . S
H59 C54 0.929 . S
O60 Mn36 2.385 . S
O60 C38 1.234 . S
O61 Mn36 2.209 . S
O61 Mn37 2.215 . S
O61 C38 1.283 . S
O62 Mn36 2.094 . S
O62 C40 1.240 . S
O63 Mn37 2.117 . S
O63 C40 1.264 . S
C64 C57 1.403 . S
C64 C65 1.399 . S
C64 H70 0.929 . S
C65 C45 1.449 . S
C65 C64 1.399 . S
C65 H71 0.930 . S
H66 C46 0.931 . S
H67 C47 0.930 . S
H68 C55 0.920 1_556 S
H69 C56 0.929 . S
H70 C64 0.929 . S
H71 C65 0.930 . S
Mn72 O77 2.095 . S
Mn72 O87 2.162 . S
Mn72 O88 2.297 . S
Mn72 O96 2.385 . S
Mn72 O97 2.209 . S
Mn72 O98 2.094 . S
Mn73 O78 2.121 . S
Mn73 N80 2.257 . S
Mn73 N89 2.282 . S
Mn73 O97 2.215 . S
Mn73 O99 2.117 . S
C74 O96 1.234 . S
C74 O97 1.283 . S
C75 O87 1.281 . S
C75 O88 1.236 . S
C76 O98 1.240 . S
C76 O99 1.264 . S
O77 Mn72 2.095 . S
O77 C86 1.250 . S
O78 Mn73 2.121 . S
O78 C86 1.258 . S
C79 N80 1.326 . S
C79 C83 1.460 . S
C79 H85 0.929 . S
N80 Mn73 2.257 . S
N80 C79 1.326 . S
N80 C84 1.362 . S
C81 C82 1.258 . S
C81 C84 1.431 . S
C81 C101 1.449 . S
C82 C81 1.258 . S
C82 C83 1.477 . S
C82 H102 0.931 . S
C83 C79 1.460 . S
C83 C82 1.477 . S
C83 H103 0.930 . S
C84 N80 1.362 . S
C84 C81 1.431 . S
C84 C94 1.476 . S
H85 C79 0.929 . S
C86 O77 1.250 . S
C86 O78 1.258 . S
O87 Mn72 2.162 . S
O87 C75 1.281 . S
O88 Mn72 2.297 . S
O88 C75 1.236 . S
N89 Mn73 2.282 . S
N89 C90 1.328 . S
N89 C94 1.318 . S
C90 N89 1.328 . S
C90 C91 1.457 . S
C90 H95 0.929 . S
C91 C90 1.457 . S
C91 C92 1.291 . S
C91 H104 0.920 1_554 S
C92 C91 1.291 . S
C92 C93 1.373 . S
C92 H105 0.929 . S
C93 C92 1.373 . S
C93 C94 1.396 . S
C93 C100 1.403 . S
C94 C84 1.476 . S
C94 N89 1.318 . S
C94 C93 1.396 . S
H95 C90 0.929 . S
O96 Mn72 2.385 . S
O96 C74 1.234 . S
O97 Mn72 2.209 . S
O97 Mn73 2.215 . S
O97 C74 1.283 . S
O98 Mn72 2.094 . S
O98 C76 1.240 . S
O99 Mn73 2.117 . S
O99 C76 1.264 . S
C100 C93 1.403 . S
C100 C101 1.399 . S
C100 H106 0.929 . S
C101 C81 1.449 . S
C101 C100 1.399 . S
C101 H107 0.930 . S
H102 C82 0.931 . S
H103 C83 0.930 . S
H104 C91 0.920 1_556 S
H105 C92 0.929 . S
H106 C100 0.929 . S
H107 C101 0.930 . S
Mn108 O113 2.095 . S
Mn108 O123 2.162 . S
Mn108 O124 2.297 . S
Mn108 O132 2.385 . S
Mn108 O133 2.209 . S
Mn108 O134 2.094 . S
Mn109 O114 2.121 . S
Mn109 N116 2.257 . S
Mn109 N125 2.282 . S
Mn109 O133 2.215 . S
Mn109 O135 2.117 . S
C110 O132 1.234 . S
C110 O133 1.283 . S
C111 O123 1.281 . S
C111 O124 1.236 . S
C112 O134 1.240 . S
C112 O135 1.264 . S
O113 Mn108 2.095 . S
O113 C122 1.250 . S
O114 Mn109 2.121 . S
O114 C122 1.258 . S
C115 N116 1.326 . S
C115 C119 1.460 . S
C115 H121 0.929 . S
N116 Mn109 2.257 . S
N116 C115 1.326 . S
N116 C120 1.362 . S
C117 C118 1.258 . S
C117 C120 1.431 . S
C117 C137 1.449 . S
C118 C117 1.258 . S
C118 C119 1.477 . S
C118 H138 0.931 . S
C119 C115 1.460 . S
C119 C118 1.477 . S
C119 H139 0.930 . S
C120 N116 1.362 . S
C120 C117 1.431 . S
C120 C130 1.476 . S
H121 C115 0.929 . S
C122 O113 1.250 . S
C122 O114 1.258 . S
O123 Mn108 2.162 . S
O123 C111 1.281 . S
O124 Mn108 2.297 . S
O124 C111 1.236 . S
N125 Mn109 2.282 . S
N125 C126 1.328 . S
N125 C130 1.318 . S
C126 N125 1.328 . S
C126 C127 1.457 . S
C126 H131 0.929 . S
C127 C126 1.457 . S
C127 C128 1.291 . S
C127 H140 0.920 1_556 S
C128 C127 1.291 . S
C128 C129 1.373 . S
C128 H141 0.929 . S
C129 C128 1.373 . S
C129 C130 1.396 . S
C129 C136 1.403 . S
C130 C120 1.476 . S
C130 N125 1.318 . S
C130 C129 1.396 . S
H131 C126 0.929 . S
O132 Mn108 2.385 . S
O132 C110 1.234 . S
O133 Mn108 2.209 . S
O133 Mn109 2.215 . S
O133 C110 1.283 . S
O134 Mn108 2.094 . S
O134 C112 1.240 . S
O135 Mn109 2.117 . S
O135 C112 1.264 . S
C136 C129 1.403 . S
C136 C137 1.399 . S
C136 H142 0.929 . S
C137 C117 1.449 . S
C137 C136 1.399 . S
C137 H143 0.930 . S
H138 C118 0.931 . S
H139 C119 0.930 . S
H140 C127 0.920 1_554 S
H141 C128 0.929 . S
H142 C136 0.929 . S
H143 C137 0.930 . S
Mn144 O149 2.095 . S
Mn144 O159 2.162 . S
Mn144 O160 2.297 . S
Mn144 O168 2.385 . S
Mn144 O169 2.209 . S
Mn144 O170 2.094 . S
Mn145 O150 2.121 . S
Mn145 N152 2.257 . S
Mn145 N161 2.282 . S
Mn145 O169 2.215 . S
Mn145 O171 2.117 . S
C146 O168 1.234 . S
C146 O169 1.283 . S
C147 O159 1.281 . S
C147 O160 1.236 . S
C148 O170 1.240 . S
C148 O171 1.264 . S
O149 Mn144 2.095 . S
O149 C158 1.250 . S
O150 Mn145 2.121 . S
O150 C158 1.258 . S
C151 N152 1.326 . S
C151 C155 1.460 . S
C151 H157 0.929 . S
N152 Mn145 2.257 . S
N152 C151 1.326 . S
N152 C156 1.362 . S
C153 C154 1.258 . S
C153 C156 1.431 . S
C153 C173 1.449 . S
C154 C153 1.258 . S
C154 C155 1.477 . S
C154 H174 0.931 . S
C155 C151 1.460 . S
C155 C154 1.477 . S
C155 H175 0.930 . S
C156 N152 1.362 . S
C156 C153 1.431 . S
C156 C166 1.476 . S
H157 C151 0.929 . S
C158 O149 1.250 . S
C158 O150 1.258 . S
O159 Mn144 2.162 . S
O159 C147 1.281 . S
O160 Mn144 2.297 . S
O160 C147 1.236 . S
N161 Mn145 2.282 . S
N161 C162 1.328 . S
N161 C166 1.318 . S
C162 N161 1.328 . S
C162 C163 1.457 . S
C162 H167 0.929 . S
C163 C162 1.457 . S
C163 C164 1.291 . S
C163 H176 0.920 1_556 S
C164 C163 1.291 . S
C164 C165 1.373 . S
C164 H177 0.929 . S
C165 C164 1.373 . S
C165 C166 1.396 . S
C165 C172 1.403 . S
C166 C156 1.476 . S
C166 N161 1.318 . S
C166 C165 1.396 . S
H167 C162 0.929 . S
O168 Mn144 2.385 . S
O168 C146 1.234 . S
O169 Mn144 2.209 . S
O169 Mn145 2.215 . S
O169 C146 1.283 . S
O170 Mn144 2.094 . S
O170 C148 1.240 . S
O171 Mn145 2.117 . S
O171 C148 1.264 . S
C172 C165 1.403 . S
C172 C173 1.399 . S
C172 H178 0.929 . S
C173 C153 1.449 . S
C173 C172 1.399 . S
C173 H179 0.930 . S
H174 C154 0.931 . S
H175 C155 0.930 . S
H176 C163 0.920 1_554 S
H177 C164 0.929 . S
H178 C172 0.929 . S
H179 C173 0.930 . S
Mn180 O185 2.095 . S
Mn180 O195 2.162 . S
Mn180 O196 2.297 . S
Mn180 O204 2.385 . S
Mn180 O205 2.209 . S
Mn180 O206 2.094 . S
Mn181 O186 2.121 . S
Mn181 N188 2.257 . S
Mn181 N197 2.282 . S
Mn181 O205 2.215 . S
Mn181 O207 2.117 . S
C182 O204 1.234 . S
C182 O205 1.283 . S
C183 O195 1.281 . S
C183 O196 1.236 . S
C184 O206 1.240 . S
C184 O207 1.264 . S
O185 Mn180 2.095 . S
O185 C194 1.250 . S
O186 Mn181 2.121 . S
O186 C194 1.258 . S
C187 N188 1.326 . S
C187 C191 1.460 . S
C187 H193 0.929 . S
N188 Mn181 2.257 . S
N188 C187 1.326 . S
N188 C192 1.362 . S
C189 C190 1.258 . S
C189 C192 1.431 . S
C189 C209 1.449 . S
C190 C189 1.258 . S
C190 C191 1.477 . S
C190 H210 0.931 . S
C191 C187 1.460 . S
C191 C190 1.477 . S
C191 H211 0.930 . S
C192 N188 1.362 . S
C192 C189 1.431 . S
C192 C202 1.476 . S
H193 C187 0.929 . S
C194 O185 1.250 . S
C194 O186 1.258 . S
O195 Mn180 2.162 . S
O195 C183 1.281 . S
O196 Mn180 2.297 . S
O196 C183 1.236 . S
N197 Mn181 2.282 . S
N197 C198 1.328 . S
N197 C202 1.318 . S
C198 N197 1.328 . S
C198 C199 1.457 . S
C198 H203 0.929 . S
C199 C198 1.457 . S
C199 C200 1.291 . S
C199 H212 0.920 1_556 S
C200 C199 1.291 . S
C200 C201 1.373 . S
C200 H213 0.929 . S
C201 C200 1.373 . S
C201 C202 1.396 . S
C201 C208 1.403 . S
C202 C192 1.476 . S
C202 N197 1.318 . S
C202 C201 1.396 . S
H203 C198 0.929 . S
O204 Mn180 2.385 . S
O204 C182 1.234 . S
O205 Mn180 2.209 . S
O205 Mn181 2.215 . S
O205 C182 1.283 . S
O206 Mn180 2.094 . S
O206 C184 1.240 . S
O207 Mn181 2.117 . S
O207 C184 1.264 . S
C208 C201 1.403 . S
C208 C209 1.399 . S
C208 H214 0.929 . S
C209 C189 1.449 . S
C209 C208 1.399 . S
C209 H215 0.930 . S
H210 C190 0.931 . S
H211 C191 0.930 . S
H212 C199 0.920 1_554 S
H213 C200 0.929 . S
H214 C208 0.929 . S
H215 C209 0.930 . S
Mn216 O221 2.095 . S
Mn216 O231 2.162 . S
Mn216 O232 2.297 . S
Mn216 O240 2.385 . S
Mn216 O241 2.209 . S
Mn216 O242 2.094 . S
Mn217 O222 2.121 . S
Mn217 N224 2.257 . S
Mn217 N233 2.282 . S
Mn217 O241 2.215 . S
Mn217 O243 2.117 . S
C218 O240 1.234 . S
C218 O241 1.283 . S
C219 O231 1.281 . S
C219 O232 1.236 . S
C220 O242 1.240 . S
C220 O243 1.264 . S
O221 Mn216 2.095 . S
O221 C230 1.250 . S
O222 Mn217 2.121 . S
O222 C230 1.258 . S
C223 N224 1.326 . S
C223 C227 1.460 . S
C223 H229 0.929 . S
N224 Mn217 2.257 . S
N224 C223 1.326 . S
N224 C228 1.362 . S
C225 C226 1.258 . S
C225 C228 1.431 . S
C225 C245 1.449 . S
C226 C225 1.258 . S
C226 C227 1.477 . S
C226 H246 0.931 . S
C227 C223 1.460 . S
C227 C226 1.477 . S
C227 H247 0.930 . S
C228 N224 1.362 . S
C228 C225 1.431 . S
C228 C238 1.476 . S
H229 C223 0.929 . S
C230 O221 1.250 . S
C230 O222 1.258 . S
O231 Mn216 2.162 . S
O231 C219 1.281 . S
O232 Mn216 2.297 . S
O232 C219 1.236 . S
N233 Mn217 2.282 . S
N233 C234 1.328 . S
N233 C238 1.318 . S
C234 N233 1.328 . S
C234 C235 1.457 . S
C234 H239 0.929 . S
C235 C234 1.457 . S
C235 C236 1.291 . S
C235 H248 0.920 1_556 S
C236 C235 1.291 . S
C236 C237 1.373 . S
C236 H249 0.929 . S
C237 C236 1.373 . S
C237 C238 1.396 . S
C237 C244 1.403 . S
C238 C228 1.476 . S
C238 N233 1.318 . S
C238 C237 1.396 . S
H239 C234 0.929 . S
O240 Mn216 2.385 . S
O240 C218 1.234 . S
O241 Mn216 2.209 . S
O241 Mn217 2.215 . S
O241 C218 1.283 . S
O242 Mn216 2.094 . S
O242 C220 1.240 . S
O243 Mn217 2.117 . S
O243 C220 1.264 . S
C244 C237 1.403 . S
C244 C245 1.399 . S
C244 H250 0.929 . S
C245 C225 1.449 . S
C245 C244 1.399 . S
C245 H251 0.930 . S
H246 C226 0.931 . S
H247 C227 0.930 . S
H248 C235 0.920 1_554 S
H249 C236 0.929 . S
H250 C244 0.929 . S
H251 C245 0.930 . S
Mn252 O257 2.095 . S
Mn252 O267 2.162 . S
Mn252 O268 2.297 . S
Mn252 O276 2.385 . S
Mn252 O277 2.209 . S
Mn252 O278 2.094 . S
Mn253 O258 2.121 . S
Mn253 N260 2.257 . S
Mn253 N269 2.282 . S
Mn253 O277 2.215 . S
Mn253 O279 2.117 . S
C254 O276 1.234 . S
C254 O277 1.283 . S
C255 O267 1.281 . S
C255 O268 1.236 . S
C256 O278 1.240 . S
C256 O279 1.264 . S
O257 Mn252 2.095 . S
O257 C266 1.250 . S
O258 Mn253 2.121 . S
O258 C266 1.258 . S
C259 N260 1.326 . S
C259 C263 1.460 . S
C259 H265 0.929 . S
N260 Mn253 2.257 . S
N260 C259 1.326 . S
N260 C264 1.362 . S
C261 C262 1.258 . S
C261 C264 1.431 . S
C261 C281 1.449 . S
C262 C261 1.258 . S
C262 C263 1.477 . S
C262 H282 0.931 . S
C263 C259 1.460 . S
C263 C262 1.477 . S
C263 H283 0.930 . S
C264 N260 1.362 . S
C264 C261 1.431 . S
C264 C274 1.476 . S
H265 C259 0.929 . S
C266 O257 1.250 . S
C266 O258 1.258 . S
O267 Mn252 2.162 . S
O267 C255 1.281 . S
O268 Mn252 2.297 . S
O268 C255 1.236 . S
N269 Mn253 2.282 . S
N269 C270 1.328 . S
N269 C274 1.318 . S
C270 N269 1.328 . S
C270 C271 1.457 . S
C270 H275 0.929 . S
C271 C270 1.457 . S
C271 C272 1.291 . S
C271 H284 0.920 1_556 S
C272 C271 1.291 . S
C272 C273 1.373 . S
C272 H285 0.929 . S
C273 C272 1.373 . S
C273 C274 1.396 . S
C273 C280 1.403 . S
C274 C264 1.476 . S
C274 N269 1.318 . S
C274 C273 1.396 . S
H275 C270 0.929 . S
O276 Mn252 2.385 . S
O276 C254 1.234 . S
O277 Mn252 2.209 . S
O277 Mn253 2.215 . S
O277 C254 1.283 . S
O278 Mn252 2.094 . S
O278 C256 1.240 . S
O279 Mn253 2.117 . S
O279 C256 1.264 . S
C280 C273 1.403 . S
C280 C281 1.399 . S
C280 H286 0.929 . S
C281 C261 1.449 . S
C281 C280 1.399 . S
C281 H287 0.930 . S
H282 C262 0.931 . S
H283 C263 0.930 . S
H284 C271 0.920 1_554 S
H285 C272 0.929 . S
H286 C280 0.929 . S
H287 C281 0.930 . S
Mn288 O293 2.095 . S
Mn288 O303 2.162 . S
Mn288 O304 2.297 . S
Mn288 O312 2.385 . S
Mn288 O313 2.209 . S
Mn288 O314 2.094 . S
Mn289 O294 2.121 . S
Mn289 N296 2.257 . S
Mn289 N305 2.282 . S
Mn289 O313 2.215 . S
Mn289 O315 2.117 . S
C290 O312 1.234 . S
C290 O313 1.283 . S
C291 O303 1.281 . S
C291 O304 1.236 . S
C292 O314 1.240 . S
C292 O315 1.264 . S
O293 Mn288 2.095 . S
O293 C302 1.250 . S
O294 Mn289 2.121 . S
O294 C302 1.258 . S
C295 N296 1.326 . S
C295 C299 1.460 . S
C295 H301 0.929 . S
N296 Mn289 2.257 . S
N296 C295 1.326 . S
N296 C300 1.362 . S
C297 C298 1.258 . S
C297 C300 1.431 . S
C297 C317 1.449 . S
C298 C297 1.258 . S
C298 C299 1.477 . S
C298 H318 0.931 . S
C299 C295 1.460 . S
C299 C298 1.477 . S
C299 H319 0.930 . S
C300 N296 1.362 . S
C300 C297 1.431 . S
C300 C310 1.476 . S
H301 C295 0.929 . S
C302 O293 1.250 . S
C302 O294 1.258 . S
O303 Mn288 2.162 . S
O303 C291 1.281 . S
O304 Mn288 2.297 . S
O304 C291 1.236 . S
N305 Mn289 2.282 . S
N305 C306 1.328 . S
N305 C310 1.318 . S
C306 N305 1.328 . S
C306 C307 1.457 . S
C306 H311 0.929 . S
C307 C306 1.457 . S
C307 C308 1.291 . S
C307 H320 0.920 1_556 S
C308 C307 1.291 . S
C308 C309 1.373 . S
C308 H321 0.929 . S
C309 C308 1.373 . S
C309 C310 1.396 . S
C309 C316 1.403 . S
C310 C300 1.476 . S
C310 N305 1.318 . S
C310 C309 1.396 . S
H311 C306 0.929 . S
O312 Mn288 2.385 . S
O312 C290 1.234 . S
O313 Mn288 2.209 . S
O313 Mn289 2.215 . S
O313 C290 1.283 . S
O314 Mn288 2.094 . S
O314 C292 1.240 . S
O315 Mn289 2.117 . S
O315 C292 1.264 . S
C316 C309 1.403 . S
C316 C317 1.399 . S
C316 H322 0.929 . S
C317 C297 1.449 . S
C317 C316 1.399 . S
C317 H323 0.930 . S
H318 C298 0.931 . S
H319 C299 0.930 . S
H320 C307 0.920 1_554 S
H321 C308 0.929 . S
H322 C316 0.929 . S
H323 C317 0.930 . S
Mn324 O329 2.095 . S
Mn324 O339 2.162 . S
Mn324 O340 2.297 . S
Mn324 O348 2.385 . S
Mn324 O349 2.209 . S
Mn324 O350 2.094 . S
Mn325 O330 2.121 . S
Mn325 N332 2.257 . S
Mn325 N341 2.282 . S
Mn325 O349 2.215 . S
Mn325 O351 2.117 . S
C326 O348 1.234 . S
C326 O349 1.283 . S
C327 O339 1.281 . S
C327 O340 1.236 . S
C328 O350 1.240 . S
C328 O351 1.264 . S
O329 Mn324 2.095 . S
O329 C338 1.250 . S
O330 Mn325 2.121 . S
O330 C338 1.258 . S
C331 N332 1.326 . S
C331 C335 1.460 . S
C331 H337 0.929 . S
N332 Mn325 2.257 . S
N332 C331 1.326 . S
N332 C336 1.362 . S
C333 C334 1.258 . S
C333 C336 1.431 . S
C333 C353 1.449 . S
C334 C333 1.258 . S
C334 C335 1.477 . S
C334 H354 0.931 . S
C335 C331 1.460 . S
C335 C334 1.477 . S
C335 H355 0.930 . S
C336 N332 1.362 . S
C336 C333 1.431 . S
C336 C346 1.476 . S
H337 C331 0.929 . S
C338 O329 1.250 . S
C338 O330 1.258 . S
O339 Mn324 2.162 . S
O339 C327 1.281 . S
O340 Mn324 2.297 . S
O340 C327 1.236 . S
N341 Mn325 2.282 . S
N341 C342 1.328 . S
N341 C346 1.318 . S
C342 N341 1.328 . S
C342 C343 1.457 . S
C342 H347 0.929 . S
C343 C342 1.457 . S
C343 C344 1.291 . S
C343 H356 0.920 1_554 S
C344 C343 1.291 . S
C344 C345 1.373 . S
C344 H357 0.929 . S
C345 C344 1.373 . S
C345 C346 1.396 . S
C345 C352 1.403 . S
C346 C336 1.476 . S
C346 N341 1.318 . S
C346 C345 1.396 . S
H347 C342 0.929 . S
O348 Mn324 2.385 . S
O348 C326 1.234 . S
O349 Mn324 2.209 . S
O349 Mn325 2.215 . S
O349 C326 1.283 . S
O350 Mn324 2.094 . S
O350 C328 1.240 . S
O351 Mn325 2.117 . S
O351 C328 1.264 . S
C352 C345 1.403 . S
C352 C353 1.399 . S
C352 H358 0.929 . S
C353 C333 1.449 . S
C353 C352 1.399 . S
C353 H359 0.930 . S
H354 C334 0.931 . S
H355 C335 0.930 . S
H356 C343 0.920 1_556 S
H357 C344 0.929 . S
H358 C352 0.929 . S
H359 C353 0.930 . S
Mn360 O365 2.095 . S
Mn360 O375 2.162 . S
Mn360 O376 2.297 . S
Mn360 O384 2.385 . S
Mn360 O385 2.209 . S
Mn360 O386 2.094 . S
Mn361 O366 2.121 . S
Mn361 N368 2.257 . S
Mn361 N377 2.282 . S
Mn361 O385 2.215 . S
Mn361 O387 2.117 . S
C362 O384 1.234 . S
C362 O385 1.283 . S
C363 O375 1.281 . S
C363 O376 1.236 . S
C364 O386 1.240 . S
C364 O387 1.264 . S
O365 Mn360 2.095 . S
O365 C374 1.250 . S
O366 Mn361 2.121 . S
O366 C374 1.258 . S
C367 N368 1.326 . S
C367 C371 1.460 . S
C367 H373 0.929 . S
N368 Mn361 2.257 . S
N368 C367 1.326 . S
N368 C372 1.362 . S
C369 C370 1.258 . S
C369 C372 1.431 . S
C369 C389 1.449 . S
C370 C369 1.258 . S
C370 C371 1.477 . S
C370 H390 0.931 . S
C371 C367 1.460 . S
C371 C370 1.477 . S
C371 H391 0.930 . S
C372 N368 1.362 . S
C372 C369 1.431 . S
C372 C382 1.476 . S
H373 C367 0.929 . S
C374 O365 1.250 . S
C374 O366 1.258 . S
O375 Mn360 2.162 . S
O375 C363 1.281 . S
O376 Mn360 2.297 . S
O376 C363 1.236 . S
N377 Mn361 2.282 . S
N377 C378 1.328 . S
N377 C382 1.318 . S
C378 N377 1.328 . S
C378 C379 1.457 . S
C378 H383 0.929 . S
C379 C378 1.457 . S
C379 C380 1.291 . S
C379 H392 0.920 1_554 S
C380 C379 1.291 . S
C380 C381 1.373 . S
C380 H393 0.929 . S
C381 C380 1.373 . S
C381 C382 1.396 . S
C381 C388 1.403 . S
C382 C372 1.476 . S
C382 N377 1.318 . S
C382 C381 1.396 . S
H383 C378 0.929 . S
O384 Mn360 2.385 . S
O384 C362 1.234 . S
O385 Mn360 2.209 . S
O385 Mn361 2.215 . S
O385 C362 1.283 . S
O386 Mn360 2.094 . S
O386 C364 1.240 . S
O387 Mn361 2.117 . S
O387 C364 1.264 . S
C388 C381 1.403 . S
C388 C389 1.399 . S
C388 H394 0.929 . S
C389 C369 1.449 . S
C389 C388 1.399 . S
C389 H395 0.930 . S
H390 C370 0.931 . S
H391 C371 0.930 . S
H392 C379 0.920 1_556 S
H393 C380 0.929 . S
H394 C388 0.929 . S
H395 C389 0.930 . S
Mn396 O401 2.095 . S
Mn396 O411 2.162 . S
Mn396 O412 2.297 . S
Mn396 O420 2.385 . S
Mn396 O421 2.209 . S
Mn396 O422 2.094 . S
Mn397 O402 2.121 . S
Mn397 N404 2.257 . S
Mn397 N413 2.282 . S
Mn397 O421 2.215 . S
Mn397 O423 2.117 . S
C398 O420 1.234 . S
C398 O421 1.283 . S
C399 O411 1.281 . S
C399 O412 1.236 . S
C400 O422 1.240 . S
C400 O423 1.264 . S
O401 Mn396 2.095 . S
O401 C410 1.250 . S
O402 Mn397 2.121 . S
O402 C410 1.258 . S
C403 N404 1.326 . S
C403 C407 1.460 . S
C403 H409 0.929 . S
N404 Mn397 2.257 . S
N404 C403 1.326 . S
N404 C408 1.362 . S
C405 C406 1.258 . S
C405 C408 1.431 . S
C405 C425 1.449 . S
C406 C405 1.258 . S
C406 C407 1.477 . S
C406 H426 0.931 . S
C407 C403 1.460 . S
C407 C406 1.477 . S
C407 H427 0.930 . S
C408 N404 1.362 . S
C408 C405 1.431 . S
C408 C418 1.476 . S
H409 C403 0.929 . S
C410 O401 1.250 . S
C410 O402 1.258 . S
O411 Mn396 2.162 . S
O411 C399 1.281 . S
O412 Mn396 2.297 . S
O412 C399 1.236 . S
N413 Mn397 2.282 . S
N413 C414 1.328 . S
N413 C418 1.318 . S
C414 N413 1.328 . S
C414 C415 1.457 . S
C414 H419 0.929 . S
C415 C414 1.457 . S
C415 C416 1.291 . S
C415 H428 0.920 1_554 S
C416 C415 1.291 . S
C416 C417 1.373 . S
C416 H429 0.929 . S
C417 C416 1.373 . S
C417 C418 1.396 . S
C417 C424 1.403 . S
C418 C408 1.476 . S
C418 N413 1.318 . S
C418 C417 1.396 . S
H419 C414 0.929 . S
O420 Mn396 2.385 . S
O420 C398 1.234 . S
O421 Mn396 2.209 . S
O421 Mn397 2.215 . S
O421 C398 1.283 . S
O422 Mn396 2.094 . S
O422 C400 1.240 . S
O423 Mn397 2.117 . S
O423 C400 1.264 . S
C424 C417 1.403 . S
C424 C425 1.399 . S
C424 H430 0.929 . S
C425 C405 1.449 . S
C425 C424 1.399 . S
C425 H431 0.930 . S
H426 C406 0.931 . S
H427 C407 0.930 . S
H428 C415 0.920 1_556 S
H429 C416 0.929 . S
H430 C424 0.929 . S
H431 C425 0.930 . S
Mn432 O437 2.095 . S
Mn432 O447 2.162 . S
Mn432 O448 2.297 . S
Mn432 O456 2.385 . S
Mn432 O457 2.209 . S
Mn432 O458 2.094 . S
Mn433 O438 2.121 . S
Mn433 N440 2.257 . S
Mn433 N449 2.282 . S
Mn433 O457 2.215 . S
Mn433 O459 2.117 . S
C434 O456 1.234 . S
C434 O457 1.283 . S
C435 O447 1.281 . S
C435 O448 1.236 . S
C436 O458 1.240 . S
C436 O459 1.264 . S
O437 Mn432 2.095 . S
O437 C446 1.250 . S
O438 Mn433 2.121 . S
O438 C446 1.258 . S
C439 N440 1.326 . S
C439 C443 1.460 . S
C439 H445 0.929 . S
N440 Mn433 2.257 . S
N440 C439 1.326 . S
N440 C444 1.362 . S
C441 C442 1.257 1_655 S
C441 C444 1.433 . S
C441 C461 1.447 1_655 S
C442 C441 1.257 1_455 S
C442 C443 1.477 1_455 S
C442 H462 0.931 . S
C443 C439 1.460 . S
C443 C442 1.477 1_655 S
C443 H463 0.930 . S
C444 N440 1.362 . S
C444 C441 1.433 . S
C444 C454 1.476 . S
H445 C439 0.929 . S
C446 O437 1.250 . S
C446 O438 1.258 . S
O447 Mn432 2.162 . S
O447 C435 1.281 . S
O448 Mn432 2.297 . S
O448 C435 1.236 . S
N449 Mn433 2.282 . S
N449 C450 1.328 . S
N449 C454 1.318 . S
C450 N449 1.328 . S
C450 C451 1.457 . S
C450 H455 0.929 . S
C451 C450 1.457 . S
C451 C452 1.291 . S
C451 H464 0.931 . S
C452 C451 1.291 . S
C452 C453 1.373 . S
C452 H465 0.929 1_655 S
C453 C452 1.373 . S
C453 C454 1.396 . S
C453 C460 1.403 1_655 S
C454 C444 1.476 . S
C454 N449 1.318 . S
C454 C453 1.396 . S
H455 C450 0.929 . S
O456 Mn432 2.385 . S
O456 C434 1.234 . S
O457 Mn432 2.209 . S
O457 Mn433 2.215 . S
O457 C434 1.283 . S
O458 Mn432 2.094 . S
O458 C436 1.240 . S
O459 Mn433 2.117 . S
O459 C436 1.264 . S
C460 C453 1.403 1_455 S
C460 C461 1.399 . S
C460 H466 0.929 . S
C461 C441 1.447 1_455 S
C461 C460 1.399 . S
C461 H467 0.930 . S
H462 C442 0.931 . S
H463 C443 0.930 . S
H464 C451 0.931 . S
H465 C452 0.929 1_455 S
H466 C460 0.929 . S
H467 C461 0.930 . S
Mn468 O473 2.095 . S
Mn468 O483 2.162 . S
Mn468 O484 2.297 . S
Mn468 O492 2.385 . S
Mn468 O493 2.209 . S
Mn468 O494 2.094 . S
Mn469 O474 2.121 . S
Mn469 N476 2.257 . S
Mn469 N485 2.282 . S
Mn469 O493 2.215 . S
Mn469 O495 2.117 . S
C470 O492 1.234 . S
C470 O493 1.283 . S
C471 O483 1.281 . S
C471 O484 1.236 . S
C472 O494 1.240 . S
C472 O495 1.264 . S
O473 Mn468 2.095 . S
O473 C482 1.250 . S
O474 Mn469 2.121 . S
O474 C482 1.258 . S
C475 N476 1.326 . S
C475 C479 1.460 . S
C475 H481 0.929 . S
N476 Mn469 2.257 . S
N476 C475 1.326 . S
N476 C480 1.362 . S
C477 C478 1.258 . S
C477 C480 1.431 . S
C477 C497 1.449 . S
C478 C477 1.258 . S
C478 C479 1.477 . S
C478 H498 0.931 . S
C479 C475 1.460 . S
C479 C478 1.477 . S
C479 H499 0.930 . S
C480 N476 1.362 . S
C480 C477 1.431 . S
C480 C490 1.476 . S
H481 C475 0.929 . S
C482 O473 1.250 . S
C482 O474 1.258 . S
O483 Mn468 2.162 . S
O483 C471 1.281 . S
O484 Mn468 2.297 . S
O484 C471 1.236 . S
N485 Mn469 2.282 . S
N485 C486 1.328 . S
N485 C490 1.318 . S
C486 N485 1.328 . S
C486 C487 1.457 . S
C486 H491 0.929 . S
C487 C486 1.457 . S
C487 C488 1.291 . S
C487 H500 0.931 . S
C488 C487 1.291 . S
C488 C489 1.373 . S
C488 H501 0.929 . S
C489 C488 1.373 . S
C489 C490 1.396 . S
C489 C496 1.403 . S
C490 C480 1.476 . S
C490 N485 1.318 . S
C490 C489 1.396 . S
H491 C486 0.929 . S
O492 Mn468 2.385 . S
O492 C470 1.234 . S
O493 Mn468 2.209 . S
O493 Mn469 2.215 . S
O493 C470 1.283 . S
O494 Mn468 2.094 . S
O494 C472 1.240 . S
O495 Mn469 2.117 . S
O495 C472 1.264 . S
C496 C489 1.403 . S
C496 C497 1.399 . S
C496 H502 0.929 . S
C497 C477 1.449 . S
C497 C496 1.399 . S
C497 H503 0.930 . S
H498 C478 0.931 . S
H499 C479 0.930 . S
H500 C487 0.931 . S
H501 C488 0.929 . S
H502 C496 0.929 . S
H503 C497 0.930 . S
Mn504 O509 2.095 . S
Mn504 O519 2.162 . S
Mn504 O520 2.297 . S
Mn504 O528 2.385 . S
Mn504 O529 2.209 . S
Mn504 O530 2.094 . S
Mn505 O510 2.121 . S
Mn505 N512 2.257 . S
Mn505 N521 2.282 . S
Mn505 O529 2.215 . S
Mn505 O531 2.117 . S
C506 O528 1.234 . S
C506 O529 1.283 . S
C507 O519 1.281 . S
C507 O520 1.236 . S
C508 O530 1.240 . S
C508 O531 1.264 . S
O509 Mn504 2.095 . S
O509 C518 1.250 . S
O510 Mn505 2.121 . S
O510 C518 1.258 . S
C511 N512 1.326 . S
C511 C515 1.460 . S
C511 H517 0.929 . S
N512 Mn505 2.257 . S
N512 C511 1.326 . S
N512 C516 1.362 . S
C513 C514 1.258 1_545 S
C513 C516 1.432 . S
C513 C533 1.448 1_545 S
C514 C513 1.258 1_565 S
C514 C515 1.477 1_565 S
C514 H534 0.931 . S
C515 C511 1.460 . S
C515 C514 1.477 1_545 S
C515 H535 0.930 . S
C516 N512 1.362 . S
C516 C513 1.432 . S
C516 C526 1.476 . S
H517 C511 0.929 . S
C518 O509 1.250 . S
C518 O510 1.258 . S
O519 Mn504 2.162 . S
O519 C507 1.281 . S
O520 Mn504 2.297 . S
O520 C507 1.236 . S
N521 Mn505 2.282 . S
N521 C522 1.328 . S
N521 C526 1.318 . S
C522 N521 1.328 . S
C522 C523 1.457 . S
C522 H527 0.929 . S
C523 C522 1.457 . S
C523 C524 1.291 . S
C523 H536 0.931 . S
C524 C523 1.291 . S
C524 C525 1.373 . S
C524 H537 0.929 1_545 S
C525 C524 1.373 . S
C525 C526 1.396 . S
C525 C532 1.403 1_545 S
C526 C516 1.476 . S
C526 N521 1.318 . S
C526 C525 1.396 . S
H527 C522 0.929 . S
O528 Mn504 2.385 . S
O528 C506 1.234 . S
O529 Mn504 2.209 . S
O529 Mn505 2.215 . S
O529 C506 1.283 . S
O530 Mn504 2.094 . S
O530 C508 1.240 . S
O531 Mn505 2.117 . S
O531 C508 1.264 . S
C532 C525 1.403 1_565 S
C532 C533 1.399 . S
C532 H538 0.929 . S
C533 C513 1.448 1_565 S
C533 C532 1.399 . S
C533 H539 0.930 . S
H534 C514 0.931 . S
H535 C515 0.930 . S
H536 C523 0.931 . S
H537 C524 0.929 1_565 S
H538 C532 0.929 . S
H539 C533 0.930 . S
Mn540 O545 2.095 . S
Mn540 O555 2.162 . S
Mn540 O556 2.297 . S
Mn540 O564 2.385 . S
Mn540 O565 2.209 . S
Mn540 O566 2.094 . S
Mn541 O546 2.121 1_554 S
Mn541 N548 2.257 . S
Mn541 N557 2.282 . S
Mn541 O565 2.215 . S
Mn541 O567 2.117 . S
C542 O564 1.234 . S
C542 O565 1.283 . S
C543 O555 1.281 . S
C543 O556 1.236 . S
C544 O566 1.240 . S
C544 O567 1.264 . S
O545 Mn540 2.095 . S
O545 C554 1.250 1_554 S
O546 Mn541 2.121 1_556 S
O546 C554 1.258 . S
C547 N548 1.326 1_556 S
C547 C551 1.460 . S
C547 H553 0.929 . S
N548 Mn541 2.257 . S
N548 C547 1.326 1_554 S
N548 C552 1.362 . S
C549 C550 1.258 1_554 S
C549 C552 1.431 . S
C549 C569 1.449 . S
C550 C549 1.258 1_556 S
C550 C551 1.477 . S
C550 H570 0.931 . S
C551 C547 1.460 . S
C551 C550 1.477 . S
C551 H571 0.930 . S
C552 N548 1.362 . S
C552 C549 1.431 . S
C552 C562 1.476 . S
H553 C547 0.929 . S
C554 O545 1.250 1_556 S
C554 O546 1.258 . S
O555 Mn540 2.162 . S
O555 C543 1.281 . S
O556 Mn540 2.297 . S
O556 C543 1.236 . S
N557 Mn541 2.282 . S
N557 C558 1.328 . S
N557 C562 1.318 . S
C558 N557 1.328 . S
C558 C559 1.457 . S
C558 H563 0.929 . S
C559 C558 1.457 . S
C559 C560 1.291 . S
C559 H572 0.931 . S
C560 C559 1.291 . S
C560 C561 1.373 . S
C560 H573 0.929 . S
C561 C560 1.373 . S
C561 C562 1.396 . S
C561 C568 1.403 . S
C562 C552 1.476 . S
C562 N557 1.318 . S
C562 C561 1.396 . S
H563 C558 0.929 . S
O564 Mn540 2.385 . S
O564 C542 1.234 . S
O565 Mn540 2.209 . S
O565 Mn541 2.215 . S
O565 C542 1.283 . S
O566 Mn540 2.094 . S
O566 C544 1.240 . S
O567 Mn541 2.117 . S
O567 C544 1.264 . S
C568 C561 1.403 . S
C568 C569 1.399 . S
C568 H574 0.929 . S
C569 C549 1.449 . S
C569 C568 1.399 . S
C569 H575 0.930 . S
H570 C550 0.931 . S
H571 C551 0.930 . S
H572 C559 0.931 . S
H573 C560 0.929 . S
H574 C568 0.929 . S
H575 C569 0.930 . S
Mn576 O581 2.095 . S
Mn576 O591 2.162 . S
Mn576 O592 2.297 . S
Mn576 O600 2.385 . S
Mn576 O601 2.209 . S
Mn576 O602 2.094 . S
Mn577 O582 2.121 1_554 S
Mn577 N584 2.257 . S
Mn577 N593 2.282 . S
Mn577 O601 2.215 . S
Mn577 O603 2.117 . S
C578 O600 1.234 . S
C578 O601 1.283 . S
C579 O591 1.281 . S
C579 O592 1.236 . S
C580 O602 1.240 . S
C580 O603 1.264 . S
O581 Mn576 2.095 . S
O581 C590 1.250 1_554 S
O582 Mn577 2.121 1_556 S
O582 C590 1.258 . S
C583 N584 1.326 1_556 S
C583 C587 1.460 . S
C583 H589 0.929 . S
N584 Mn577 2.257 . S
N584 C583 1.326 1_554 S
N584 C588 1.362 . S
C585 C586 1.258 1_554 S
C585 C588 1.431 . S
C585 C605 1.449 . S
C586 C585 1.258 1_556 S
C586 C587 1.477 . S
C586 H606 0.931 . S
C587 C583 1.460 . S
C587 C586 1.477 . S
C587 H607 0.930 . S
C588 N584 1.362 . S
C588 C585 1.431 . S
C588 C598 1.476 . S
H589 C583 0.929 . S
C590 O581 1.250 1_556 S
C590 O582 1.258 . S
O591 Mn576 2.162 . S
O591 C579 1.281 . S
O592 Mn576 2.297 . S
O592 C579 1.236 . S
N593 Mn577 2.282 . S
N593 C594 1.328 . S
N593 C598 1.318 . S
C594 N593 1.328 . S
C594 C595 1.457 . S
C594 H599 0.929 . S
C595 C594 1.457 . S
C595 C596 1.291 . S
C595 H608 0.931 . S
C596 C595 1.291 . S
C596 C597 1.373 . S
C596 H609 0.929 . S
C597 C596 1.373 . S
C597 C598 1.396 . S
C597 C604 1.403 . S
C598 C588 1.476 . S
C598 N593 1.318 . S
C598 C597 1.396 . S
H599 C594 0.929 . S
O600 Mn576 2.385 . S
O600 C578 1.234 . S
O601 Mn576 2.209 . S
O601 Mn577 2.215 . S
O601 C578 1.283 . S
O602 Mn576 2.094 . S
O602 C580 1.240 . S
O603 Mn577 2.117 . S
O603 C580 1.264 . S
C604 C597 1.403 . S
C604 C605 1.399 . S
C604 H610 0.929 . S
C605 C585 1.449 . S
C605 C604 1.399 . S
C605 H611 0.930 . S
H606 C586 0.931 . S
H607 C587 0.930 . S
H608 C595 0.931 . S
H609 C596 0.929 . S
H610 C604 0.929 . S
H611 C605 0.930 . S
Mn612 O617 2.095 . S
Mn612 O627 2.162 . S
Mn612 O628 2.297 . S
Mn612 O636 2.385 . S
Mn612 O637 2.209 . S
Mn612 O638 2.094 . S
Mn613 O618 2.121 1_554 S
Mn613 N620 2.257 . S
Mn613 N629 2.282 . S
Mn613 O637 2.215 . S
Mn613 O639 2.117 . S
C614 O636 1.234 . S
C614 O637 1.283 . S
C615 O627 1.281 . S
C615 O628 1.236 . S
C616 O638 1.240 . S
C616 O639 1.264 . S
O617 Mn612 2.095 . S
O617 C626 1.250 1_554 S
O618 Mn613 2.121 1_556 S
O618 C626 1.258 . S
C619 N620 1.326 1_556 S
C619 C623 1.460 . S
C619 H625 0.929 . S
N620 Mn613 2.257 . S
N620 C619 1.326 1_554 S
N620 C624 1.362 . S
C621 C622 1.258 1_554 S
C621 C624 1.431 . S
C621 C641 1.449 . S
C622 C621 1.258 1_556 S
C622 C623 1.477 . S
C622 H642 0.931 . S
C623 C619 1.460 . S
C623 C622 1.477 . S
C623 H643 0.930 . S
C624 N620 1.362 . S
C624 C621 1.431 . S
C624 C634 1.476 . S
H625 C619 0.929 . S
C626 O617 1.250 1_556 S
C626 O618 1.258 . S
O627 Mn612 2.162 . S
O627 C615 1.281 . S
O628 Mn612 2.297 . S
O628 C615 1.236 . S
N629 Mn613 2.282 . S
N629 C630 1.328 . S
N629 C634 1.318 . S
C630 N629 1.328 . S
C630 C631 1.457 . S
C630 H635 0.929 . S
C631 C630 1.457 . S
C631 C632 1.291 . S
C631 H644 0.931 . S
C632 C631 1.291 . S
C632 C633 1.373 . S
C632 H645 0.929 . S
C633 C632 1.373 . S
C633 C634 1.396 . S
C633 C640 1.403 . S
C634 C624 1.476 . S
C634 N629 1.318 . S
C634 C633 1.396 . S
H635 C630 0.929 . S
O636 Mn612 2.385 . S
O636 C614 1.234 . S
O637 Mn612 2.209 . S
O637 Mn613 2.215 . S
O637 C614 1.283 . S
O638 Mn612 2.094 . S
O638 C616 1.240 . S
O639 Mn613 2.117 . S
O639 C616 1.264 . S
C640 C633 1.403 . S
C640 C641 1.399 . S
C640 H646 0.929 . S
C641 C621 1.449 . S
C641 C640 1.399 . S
C641 H647 0.930 . S
H642 C622 0.931 . S
H643 C623 0.930 . S
H644 C631 0.931 . S
H645 C632 0.929 . S
H646 C640 0.929 . S
H647 C641 0.930 . S
Mn648 O653 2.095 . S
Mn648 O663 2.162 . S
Mn648 O664 2.297 . S
Mn648 O672 2.385 . S
Mn648 O673 2.209 . S
Mn648 O674 2.094 . S
Mn649 O654 2.121 1_554 S
Mn649 N656 2.257 . S
Mn649 N665 2.282 . S
Mn649 O673 2.215 . S
Mn649 O675 2.117 . S
C650 O672 1.234 . S
C650 O673 1.283 . S
C651 O663 1.281 . S
C651 O664 1.236 . S
C652 O674 1.240 . S
C652 O675 1.264 . S
O653 Mn648 2.095 . S
O653 C662 1.250 1_554 S
O654 Mn649 2.121 1_556 S
O654 C662 1.258 . S
C655 N656 1.326 1_556 S
C655 C659 1.460 . S
C655 H661 0.929 . S
N656 Mn649 2.257 . S
N656 C655 1.326 1_554 S
N656 C660 1.362 . S
C657 C658 1.258 1_554 S
C657 C660 1.431 . S
C657 C677 1.449 . S
C658 C657 1.258 1_556 S
C658 C659 1.477 . S
C658 H678 0.931 . S
C659 C655 1.460 . S
C659 C658 1.477 . S
C659 H679 0.930 . S
C660 N656 1.362 . S
C660 C657 1.431 . S
C660 C670 1.476 . S
H661 C655 0.929 . S
C662 O653 1.250 1_556 S
C662 O654 1.258 . S
O663 Mn648 2.162 . S
O663 C651 1.281 . S
O664 Mn648 2.297 . S
O664 C651 1.236 . S
N665 Mn649 2.282 . S
N665 C666 1.328 . S
N665 C670 1.318 . S
C666 N665 1.328 . S
C666 C667 1.457 . S
C666 H671 0.929 . S
C667 C666 1.457 . S
C667 C668 1.291 . S
C667 H680 0.931 . S
C668 C667 1.291 . S
C668 C669 1.373 . S
C668 H681 0.929 . S
C669 C668 1.373 . S
C669 C670 1.396 . S
C669 C676 1.403 . S
C670 C660 1.476 . S
C670 N665 1.318 . S
C670 C669 1.396 . S
H671 C666 0.929 . S
O672 Mn648 2.385 . S
O672 C650 1.234 . S
O673 Mn648 2.209 . S
O673 Mn649 2.215 . S
O673 C650 1.283 . S
O674 Mn648 2.094 . S
O674 C652 1.240 . S
O675 Mn649 2.117 . S
O675 C652 1.264 . S
C676 C669 1.403 . S
C676 C677 1.399 . S
C676 H682 0.929 . S
C677 C657 1.449 . S
C677 C676 1.399 . S
C677 H683 0.930 . S
H678 C658 0.931 . S
H679 C659 0.930 . S
H680 C667 0.931 . S
H681 C668 0.929 . S
H682 C676 0.929 . S
H683 C677 0.930 . S
Mn684 O689 2.095 . S
Mn684 O699 2.162 . S
Mn684 O700 2.297 . S
Mn684 O708 2.385 . S
Mn684 O709 2.209 . S
Mn684 O710 2.094 . S
Mn685 O690 2.121 1_554 S
Mn685 N692 2.257 . S
Mn685 N701 2.282 . S
Mn685 O709 2.215 . S
Mn685 O711 2.117 . S
C686 O708 1.234 . S
C686 O709 1.283 . S
C687 O699 1.281 . S
C687 O700 1.236 . S
C688 O710 1.240 . S
C688 O711 1.264 . S
O689 Mn684 2.095 . S
O689 C698 1.250 1_554 S
O690 Mn685 2.121 1_556 S
O690 C698 1.258 . S
C691 N692 1.326 1_556 S
C691 C695 1.460 . S
C691 H697 0.929 . S
N692 Mn685 2.257 . S
N692 C691 1.326 1_554 S
N692 C696 1.362 . S
C693 C694 1.258 1_554 S
C693 C696 1.431 . S
C693 C713 1.449 . S
C694 C693 1.258 1_556 S
C694 C695 1.477 . S
C694 H714 0.931 . S
C695 C691 1.460 . S
C695 C694 1.477 . S
C695 H715 0.930 . S
C696 N692 1.362 . S
C696 C693 1.431 . S
C696 C706 1.476 . S
H697 C691 0.929 . S
C698 O689 1.250 1_556 S
C698 O690 1.258 . S
O699 Mn684 2.162 . S
O699 C687 1.281 . S
O700 Mn684 2.297 . S
O700 C687 1.236 . S
N701 Mn685 2.282 . S
N701 C702 1.328 . S
N701 C706 1.318 . S
C702 N701 1.328 . S
C702 C703 1.457 . S
C702 H707 0.929 . S
C703 C702 1.457 . S
C703 C704 1.291 . S
C703 H716 0.931 . S
C704 C703 1.291 . S
C704 C705 1.373 . S
C704 H717 0.929 . S
C705 C704 1.373 . S
C705 C706 1.396 . S
C705 C712 1.403 . S
C706 C696 1.476 . S
C706 N701 1.318 . S
C706 C705 1.396 . S
H707 C702 0.929 . S
O708 Mn684 2.385 . S
O708 C686 1.234 . S
O709 Mn684 2.209 . S
O709 Mn685 2.215 . S
O709 C686 1.283 . S
O710 Mn684 2.094 . S
O710 C688 1.240 . S
O711 Mn685 2.117 . S
O711 C688 1.264 . S
C712 C705 1.403 . S
C712 C713 1.399 . S
C712 H718 0.929 . S
C713 C693 1.449 . S
C713 C712 1.399 . S
C713 H719 0.930 . S
H714 C694 0.931 . S
H715 C695 0.930 . S
H716 C703 0.931 . S
H717 C704 0.929 . S
H718 C712 0.929 . S
H719 C713 0.930 . S
Mn720 O725 2.095 . S
Mn720 O735 2.162 . S
Mn720 O736 2.297 . S
Mn720 O744 2.385 . S
Mn720 O745 2.209 . S
Mn720 O746 2.094 . S
Mn721 O726 2.121 1_554 S
Mn721 N728 2.257 . S
Mn721 N737 2.282 . S
Mn721 O745 2.215 . S
Mn721 O747 2.117 . S
C722 O744 1.234 . S
C722 O745 1.283 . S
C723 O735 1.281 . S
C723 O736 1.236 . S
C724 O746 1.240 . S
C724 O747 1.264 . S
O725 Mn720 2.095 . S
O725 C734 1.250 1_554 S
O726 Mn721 2.121 1_556 S
O726 C734 1.258 . S
C727 N728 1.326 1_556 S
C727 C731 1.460 . S
C727 H733 0.929 . S
N728 Mn721 2.257 . S
N728 C727 1.326 1_554 S
N728 C732 1.362 . S
C729 C730 1.258 1_554 S
C729 C732 1.431 . S
C729 C749 1.449 . S
C730 C729 1.258 1_556 S
C730 C731 1.477 . S
C730 H750 0.931 . S
C731 C727 1.460 . S
C731 C730 1.477 . S
C731 H751 0.930 . S
C732 N728 1.362 . S
C732 C729 1.431 . S
C732 C742 1.476 . S
H733 C727 0.929 . S
C734 O725 1.250 1_556 S
C734 O726 1.258 . S
O735 Mn720 2.162 . S
O735 C723 1.281 . S
O736 Mn720 2.297 . S
O736 C723 1.236 . S
N737 Mn721 2.282 . S
N737 C738 1.328 . S
N737 C742 1.318 . S
C738 N737 1.328 . S
C738 C739 1.457 . S
C738 H743 0.929 . S
C739 C738 1.457 . S
C739 C740 1.291 . S
C739 H752 0.931 . S
C740 C739 1.291 . S
C740 C741 1.373 . S
C740 H753 0.929 . S
C741 C740 1.373 . S
C741 C742 1.396 . S
C741 C748 1.403 . S
C742 C732 1.476 . S
C742 N737 1.318 . S
C742 C741 1.396 . S
H743 C738 0.929 . S
O744 Mn720 2.385 . S
O744 C722 1.234 . S
O745 Mn720 2.209 . S
O745 Mn721 2.215 . S
O745 C722 1.283 . S
O746 Mn720 2.094 . S
O746 C724 1.240 . S
O747 Mn721 2.117 . S
O747 C724 1.264 . S
C748 C741 1.403 . S
C748 C749 1.399 . S
C748 H754 0.929 . S
C749 C729 1.449 . S
C749 C748 1.399 . S
C749 H755 0.930 . S
H750 C730 0.931 . S
H751 C731 0.930 . S
H752 C739 0.931 . S
H753 C740 0.929 . S
H754 C748 0.929 . S
H755 C749 0.930 . S
Mn756 O761 2.095 . S
Mn756 O771 2.162 . S
Mn756 O772 2.297 . S
Mn756 O780 2.385 . S
Mn756 O781 2.209 . S
Mn756 O782 2.094 . S
Mn757 O762 2.121 . S
Mn757 N764 2.257 . S
Mn757 N773 2.282 . S
Mn757 O781 2.215 . S
Mn757 O783 2.117 . S
C758 O780 1.234 . S
C758 O781 1.283 . S
C759 O771 1.281 . S
C759 O772 1.236 . S
C760 O782 1.240 . S
C760 O783 1.264 . S
O761 Mn756 2.095 . S
O761 C770 1.250 . S
O762 Mn757 2.121 . S
O762 C770 1.258 . S
C763 N764 1.326 . S
C763 C767 1.460 . S
C763 H769 0.929 . S
N764 Mn757 2.257 . S
N764 C763 1.326 . S
N764 C768 1.362 . S
C765 C766 1.257 1_545 S
C765 C768 1.433 . S
C765 C785 1.447 1_545 S
C766 C765 1.257 1_565 S
C766 C767 1.477 1_565 S
C766 H786 0.931 . S
C767 C763 1.460 . S
C767 C766 1.477 1_545 S
C767 H787 0.930 . S
C768 N764 1.362 . S
C768 C765 1.433 . S
C768 C778 1.476 . S
H769 C763 0.929 . S
C770 O761 1.250 . S
C770 O762 1.258 . S
O771 Mn756 2.162 . S
O771 C759 1.281 . S
O772 Mn756 2.297 . S
O772 C759 1.236 . S
N773 Mn757 2.282 . S
N773 C774 1.328 . S
N773 C778 1.318 . S
C774 N773 1.328 . S
C774 C775 1.457 . S
C774 H779 0.929 . S
C775 C774 1.457 . S
C775 C776 1.291 . S
C775 H788 0.931 . S
C776 C775 1.291 . S
C776 C777 1.373 . S
C776 H789 0.929 1_545 S
C777 C776 1.373 . S
C777 C778 1.396 . S
C777 C784 1.403 1_545 S
C778 C768 1.476 . S
C778 N773 1.318 . S
C778 C777 1.396 . S
H779 C774 0.929 . S
O780 Mn756 2.385 . S
O780 C758 1.234 . S
O781 Mn756 2.209 . S
O781 Mn757 2.215 . S
O781 C758 1.283 . S
O782 Mn756 2.094 . S
O782 C760 1.240 . S
O783 Mn757 2.117 . S
O783 C760 1.264 . S
C784 C777 1.403 1_565 S
C784 C785 1.399 . S
C784 H790 0.929 . S
C785 C765 1.447 1_565 S
C785 C784 1.399 . S
C785 H791 0.930 . S
H786 C766 0.931 . S
H787 C767 0.930 . S
H788 C775 0.931 . S
H789 C776 0.929 1_565 S
H790 C784 0.929 . S
H791 C785 0.930 . S
Mn792 O797 2.095 . S
Mn792 O807 2.162 . S
Mn792 O808 2.297 . S
Mn792 O816 2.385 . S
Mn792 O817 2.209 . S
Mn792 O818 2.094 . S
Mn793 O798 2.121 . S
Mn793 N800 2.257 . S
Mn793 N809 2.282 . S
Mn793 O817 2.215 . S
Mn793 O819 2.117 . S
C794 O816 1.234 . S
C794 O817 1.283 . S
C795 O807 1.281 . S
C795 O808 1.236 . S
C796 O818 1.240 . S
C796 O819 1.264 . S
O797 Mn792 2.095 . S
O797 C806 1.250 . S
O798 Mn793 2.121 . S
O798 C806 1.258 . S
C799 N800 1.326 . S
C799 C803 1.460 . S
C799 H805 0.929 . S
N800 Mn793 2.257 . S
N800 C799 1.326 . S
N800 C804 1.362 . S
C801 C802 1.258 1_655 S
C801 C804 1.432 . S
C801 C821 1.448 1_655 S
C802 C801 1.258 1_455 S
C802 C803 1.477 1_455 S
C802 H822 0.931 . S
C803 C799 1.460 . S
C803 C802 1.477 1_655 S
C803 H823 0.930 . S
C804 N800 1.362 . S
C804 C801 1.432 . S
C804 C814 1.476 . S
H805 C799 0.929 . S
C806 O797 1.250 . S
C806 O798 1.258 . S
O807 Mn792 2.162 . S
O807 C795 1.281 . S
O808 Mn792 2.297 . S
O808 C795 1.236 . S
N809 Mn793 2.282 . S
N809 C810 1.328 . S
N809 C814 1.318 . S
C810 N809 1.328 . S
C810 C811 1.457 . S
C810 H815 0.929 . S
C811 C810 1.457 . S
C811 C812 1.291 . S
C811 H824 0.931 . S
C812 C811 1.291 . S
C812 C813 1.373 . S
C812 H825 0.929 1_655 S
C813 C812 1.373 . S
C813 C814 1.396 . S
C813 C820 1.403 1_655 S
C814 C804 1.476 . S
C814 N809 1.318 . S
C814 C813 1.396 . S
H815 C810 0.929 . S
O816 Mn792 2.385 . S
O816 C794 1.234 . S
O817 Mn792 2.209 . S
O817 Mn793 2.215 . S
O817 C794 1.283 . S
O818 Mn792 2.094 . S
O818 C796 1.240 . S
O819 Mn793 2.117 . S
O819 C796 1.264 . S
C820 C813 1.403 1_455 S
C820 C821 1.399 . S
C820 H826 0.929 . S
C821 C801 1.448 1_455 S
C821 C820 1.399 . S
C821 H827 0.930 . S
H822 C802 0.931 . S
H823 C803 0.930 . S
H824 C811 0.931 . S
H825 C812 0.929 1_455 S
H826 C820 0.929 . S
H827 C821 0.930 . S
Mn828 O833 2.095 . S
Mn828 O843 2.162 . S
Mn828 O844 2.297 . S
Mn828 O852 2.385 . S
Mn828 O853 2.209 . S
Mn828 O854 2.094 . S
Mn829 O834 2.121 . S
Mn829 N836 2.257 . S
Mn829 N845 2.282 . S
Mn829 O853 2.215 . S
Mn829 O855 2.117 . S
C830 O852 1.234 . S
C830 O853 1.283 . S
C831 O843 1.281 . S
C831 O844 1.236 . S
C832 O854 1.240 . S
C832 O855 1.264 . S
O833 Mn828 2.095 . S
O833 C842 1.250 . S
O834 Mn829 2.121 . S
O834 C842 1.258 . S
C835 N836 1.326 . S
C835 C839 1.460 . S
C835 H841 0.929 . S
N836 Mn829 2.257 . S
N836 C835 1.326 . S
N836 C840 1.362 . S
C837 C838 1.258 . S
C837 C840 1.431 . S
C837 C857 1.449 . S
C838 C837 1.258 . S
C838 C839 1.477 . S
C838 H858 0.931 . S
C839 C835 1.460 . S
C839 C838 1.477 . S
C839 H859 0.930 . S
C840 N836 1.362 . S
C840 C837 1.431 . S
C840 C850 1.476 . S
H841 C835 0.929 . S
C842 O833 1.250 . S
C842 O834 1.258 . S
O843 Mn828 2.162 . S
O843 C831 1.281 . S
O844 Mn828 2.297 . S
O844 C831 1.236 . S
N845 Mn829 2.282 . S
N845 C846 1.328 . S
N845 C850 1.318 . S
C846 N845 1.328 . S
C846 C847 1.457 . S
C846 H851 0.929 . S
C847 C846 1.457 . S
C847 C848 1.291 . S
C847 H860 0.931 . S
C848 C847 1.291 . S
C848 C849 1.373 . S
C848 H861 0.929 . S
C849 C848 1.373 . S
C849 C850 1.396 . S
C849 C856 1.403 . S
C850 C840 1.476 . S
C850 N845 1.318 . S
C850 C849 1.396 . S
H851 C846 0.929 . S
O852 Mn828 2.385 . S
O852 C830 1.234 . S
O853 Mn828 2.209 . S
O853 Mn829 2.215 . S
O853 C830 1.283 . S
O854 Mn828 2.094 . S
O854 C832 1.240 . S
O855 Mn829 2.117 . S
O855 C832 1.264 . S
C856 C849 1.403 . S
C856 C857 1.399 . S
C856 H862 0.929 . S
C857 C837 1.449 . S
C857 C856 1.399 . S
C857 H863 0.930 . S
H858 C838 0.931 . S
H859 C839 0.930 . S
H860 C847 0.931 . S
H861 C848 0.929 . S
H862 C856 0.929 . S
H863 C857 0.930 . S
Mn864 O869 2.095 . S
Mn864 O879 2.162 . S
Mn864 O880 2.297 . S
Mn864 O888 2.385 . S
Mn864 O889 2.209 . S
Mn864 O890 2.094 . S
Mn865 O870 2.121 1_556 S
Mn865 N872 2.257 . S
Mn865 N881 2.282 . S
Mn865 O889 2.215 . S
Mn865 O891 2.117 . S
C866 O888 1.234 . S
C866 O889 1.283 . S
C867 O879 1.281 . S
C867 O880 1.236 . S
C868 O890 1.240 . S
C868 O891 1.264 . S
O869 Mn864 2.095 . S
O869 C878 1.250 1_556 S
O870 Mn865 2.121 1_554 S
O870 C878 1.258 . S
C871 N872 1.326 1_554 S
C871 C875 1.460 . S
C871 H877 0.929 . S
N872 Mn865 2.257 . S
N872 C871 1.326 1_556 S
N872 C876 1.362 . S
C873 C874 1.258 1_556 S
C873 C876 1.431 . S
C873 C893 1.449 . S
C874 C873 1.258 1_554 S
C874 C875 1.477 . S
C874 H894 0.931 . S
C875 C871 1.460 . S
C875 C874 1.477 . S
C875 H895 0.930 . S
C876 N872 1.362 . S
C876 C873 1.431 . S
C876 C886 1.476 . S
H877 C871 0.929 . S
C878 O869 1.250 1_554 S
C878 O870 1.258 . S
O879 Mn864 2.162 . S
O879 C867 1.281 . S
O880 Mn864 2.297 . S
O880 C867 1.236 . S
N881 Mn865 2.282 . S
N881 C882 1.328 . S
N881 C886 1.318 . S
C882 N881 1.328 . S
C882 C883 1.457 . S
C882 H887 0.929 . S
C883 C882 1.457 . S
C883 C884 1.291 . S
C883 H896 0.931 . S
C884 C883 1.291 . S
C884 C885 1.373 . S
C884 H897 0.929 . S
C885 C884 1.373 . S
C885 C886 1.396 . S
C885 C892 1.403 . S
C886 C876 1.476 . S
C886 N881 1.318 . S
C886 C885 1.396 . S
H887 C882 0.929 . S
O888 Mn864 2.385 . S
O888 C866 1.234 . S
O889 Mn864 2.209 . S
O889 Mn865 2.215 . S
O889 C866 1.283 . S
O890 Mn864 2.094 . S
O890 C868 1.240 . S
O891 Mn865 2.117 . S
O891 C868 1.264 . S
C892 C885 1.403 . S
C892 C893 1.399 . S
C892 H898 0.929 . S
C893 C873 1.449 . S
C893 C892 1.399 . S
C893 H899 0.930 . S
H894 C874 0.931 . S
H895 C875 0.930 . S
H896 C883 0.931 . S
H897 C884 0.929 . S
H898 C892 0.929 . S
H899 C893 0.930 . S
Mn900 O905 2.095 . S
Mn900 O915 2.162 . S
Mn900 O916 2.297 . S
Mn900 O924 2.385 . S
Mn900 O925 2.209 . S
Mn900 O926 2.094 . S
Mn901 O906 2.121 1_556 S
Mn901 N908 2.257 . S
Mn901 N917 2.282 . S
Mn901 O925 2.215 . S
Mn901 O927 2.117 . S
C902 O924 1.234 . S
C902 O925 1.283 . S
C903 O915 1.281 . S
C903 O916 1.236 . S
C904 O926 1.240 . S
C904 O927 1.264 . S
O905 Mn900 2.095 . S
O905 C914 1.250 1_556 S
O906 Mn901 2.121 1_554 S
O906 C914 1.258 . S
C907 N908 1.326 1_554 S
C907 C911 1.460 . S
C907 H913 0.929 . S
N908 Mn901 2.257 . S
N908 C907 1.326 1_556 S
N908 C912 1.362 . S
C909 C910 1.258 1_556 S
C909 C912 1.431 . S
C909 C929 1.449 . S
C910 C909 1.258 1_554 S
C910 C911 1.477 . S
C910 H930 0.931 . S
C911 C907 1.460 . S
C911 C910 1.477 . S
C911 H931 0.930 . S
C912 N908 1.362 . S
C912 C909 1.431 . S
C912 C922 1.476 . S
H913 C907 0.929 . S
C914 O905 1.250 1_554 S
C914 O906 1.258 . S
O915 Mn900 2.162 . S
O915 C903 1.281 . S
O916 Mn900 2.297 . S
O916 C903 1.236 . S
N917 Mn901 2.282 . S
N917 C918 1.328 . S
N917 C922 1.318 . S
C918 N917 1.328 . S
C918 C919 1.457 . S
C918 H923 0.929 . S
C919 C918 1.457 . S
C919 C920 1.291 . S
C919 H932 0.931 . S
C920 C919 1.291 . S
C920 C921 1.373 . S
C920 H933 0.929 . S
C921 C920 1.373 . S
C921 C922 1.396 . S
C921 C928 1.403 . S
C922 C912 1.476 . S
C922 N917 1.318 . S
C922 C921 1.396 . S
H923 C918 0.929 . S
O924 Mn900 2.385 . S
O924 C902 1.234 . S
O925 Mn900 2.209 . S
O925 Mn901 2.215 . S
O925 C902 1.283 . S
O926 Mn900 2.094 . S
O926 C904 1.240 . S
O927 Mn901 2.117 . S
O927 C904 1.264 . S
C928 C921 1.403 . S
C928 C929 1.399 . S
C928 H934 0.929 . S
C929 C909 1.449 . S
C929 C928 1.399 . S
C929 H935 0.930 . S
H930 C910 0.931 . S
H931 C911 0.930 . S
H932 C919 0.931 . S
H933 C920 0.929 . S
H934 C928 0.929 . S
H935 C929 0.930 . S
Mn936 O941 2.095 . S
Mn936 O951 2.162 . S
Mn936 O952 2.297 . S
Mn936 O960 2.385 . S
Mn936 O961 2.209 . S
Mn936 O962 2.094 . S
Mn937 O942 2.121 1_556 S
Mn937 N944 2.257 . S
Mn937 N953 2.282 . S
Mn937 O961 2.215 . S
Mn937 O963 2.117 . S
C938 O960 1.234 . S
C938 O961 1.283 . S
C939 O951 1.281 . S
C939 O952 1.236 . S
C940 O962 1.240 . S
C940 O963 1.264 . S
O941 Mn936 2.095 . S
O941 C950 1.250 1_556 S
O942 Mn937 2.121 1_554 S
O942 C950 1.258 . S
C943 N944 1.326 1_554 S
C943 C947 1.460 . S
C943 H949 0.929 . S
N944 Mn937 2.257 . S
N944 C943 1.326 1_556 S
N944 C948 1.362 . S
C945 C946 1.258 1_556 S
C945 C948 1.431 . S
C945 C965 1.449 . S
C946 C945 1.258 1_554 S
C946 C947 1.477 . S
C946 H966 0.931 . S
C947 C943 1.460 . S
C947 C946 1.477 . S
C947 H967 0.930 . S
C948 N944 1.362 . S
C948 C945 1.431 . S
C948 C958 1.476 . S
H949 C943 0.929 . S
C950 O941 1.250 1_554 S
C950 O942 1.258 . S
O951 Mn936 2.162 . S
O951 C939 1.281 . S
O952 Mn936 2.297 . S
O952 C939 1.236 . S
N953 Mn937 2.282 . S
N953 C954 1.328 . S
N953 C958 1.318 . S
C954 N953 1.328 . S
C954 C955 1.457 . S
C954 H959 0.929 . S
C955 C954 1.457 . S
C955 C956 1.291 . S
C955 H968 0.931 . S
C956 C955 1.291 . S
C956 C957 1.373 . S
C956 H969 0.929 . S
C957 C956 1.373 . S
C957 C958 1.396 . S
C957 C964 1.403 . S
C958 C948 1.476 . S
C958 N953 1.318 . S
C958 C957 1.396 . S
H959 C954 0.929 . S
O960 Mn936 2.385 . S
O960 C938 1.234 . S
O961 Mn936 2.209 . S
O961 Mn937 2.215 . S
O961 C938 1.283 . S
O962 Mn936 2.094 . S
O962 C940 1.240 . S
O963 Mn937 2.117 . S
O963 C940 1.264 . S
C964 C957 1.403 . S
C964 C965 1.399 . S
C964 H970 0.929 . S
C965 C945 1.449 . S
C965 C964 1.399 . S
C965 H971 0.930 . S
H966 C946 0.931 . S
H967 C947 0.930 . S
H968 C955 0.931 . S
H969 C956 0.929 . S
H970 C964 0.929 . S
H971 C965 0.930 . S
Mn972 O977 2.095 . S
Mn972 O987 2.162 . S
Mn972 O988 2.297 . S
Mn972 O996 2.385 . S
Mn972 O997 2.209 . S
Mn972 O998 2.094 . S
Mn973 O978 2.121 . S
Mn973 N980 2.257 . S
Mn973 N989 2.282 . S
Mn973 O997 2.215 . S
Mn973 O999 2.117 . S
C974 O996 1.234 . S
C974 O997 1.283 . S
C975 O987 1.281 . S
C975 O988 1.236 . S
C976 O998 1.240 . S
C976 O999 1.264 . S
O977 Mn972 2.095 . S
O977 C986 1.250 . S
O978 Mn973 2.121 . S
O978 C986 1.258 . S
C979 N980 1.326 . S
C979 C983 1.460 . S
C979 H985 0.929 . S
N980 Mn973 2.257 . S
N980 C979 1.326 . S
N980 C984 1.362 . S
C981 C982 1.257 1_565 S
C981 C984 1.433 . S
C981 C1001 1.447 1_565 S
C982 C981 1.257 1_545 S
C982 C983 1.477 1_545 S
C982 H1002 0.931 . S
C983 C979 1.460 . S
C983 C982 1.477 1_565 S
C983 H1003 0.930 . S
C984 N980 1.362 . S
C984 C981 1.433 . S
C984 C994 1.476 . S
H985 C979 0.929 . S
C986 O977 1.250 . S
C986 O978 1.258 . S
O987 Mn972 2.162 . S
O987 C975 1.281 . S
O988 Mn972 2.297 . S
O988 C975 1.236 . S
N989 Mn973 2.282 . S
N989 C990 1.328 . S
N989 C994 1.318 . S
C990 N989 1.328 . S
C990 C991 1.457 . S
C990 H995 0.929 . S
C991 C990 1.457 . S
C991 C992 1.291 . S
C991 H1004 0.931 . S
C992 C991 1.291 . S
C992 C993 1.373 . S
C992 H1005 0.929 1_565 S
C993 C992 1.373 . S
C993 C994 1.396 . S
C993 C1000 1.403 1_565 S
C994 C984 1.476 . S
C994 N989 1.318 . S
C994 C993 1.396 . S
H995 C990 0.929 . S
O996 Mn972 2.385 . S
O996 C974 1.234 . S
O997 Mn972 2.209 . S
O997 Mn973 2.215 . S
O997 C974 1.283 . S
O998 Mn972 2.094 . S
O998 C976 1.240 . S
O999 Mn973 2.117 . S
O999 C976 1.264 . S
C1000 C993 1.403 1_545 S
C1000 C1001 1.399 . S
C1000 H1006 0.929 . S
C1001 C981 1.447 1_545 S
C1001 C1000 1.399 . S
C1001 H1007 0.930 . S
H1002 C982 0.931 . S
H1003 C983 0.930 . S
H1004 C991 0.931 . S
H1005 C992 0.929 1_545 S
H1006 C1000 0.929 . S
H1007 C1001 0.930 . S
Mn1008 O1013 2.095 . S
Mn1008 O1023 2.162 . S
Mn1008 O1024 2.297 . S
Mn1008 O1032 2.385 . S
Mn1008 O1033 2.209 . S
Mn1008 O1034 2.094 . S
Mn1009 O1014 2.121 . S
Mn1009 N1016 2.257 . S
Mn1009 N1025 2.282 . S
Mn1009 O1033 2.215 . S
Mn1009 O1035 2.117 . S
C1010 O1032 1.234 . S
C1010 O1033 1.283 . S
C1011 O1023 1.281 . S
C1011 O1024 1.236 . S
C1012 O1034 1.240 . S
C1012 O1035 1.264 . S
O1013 Mn1008 2.095 . S
O1013 C1022 1.250 . S
O1014 Mn1009 2.121 . S
O1014 C1022 1.258 . S
C1015 N1016 1.326 . S
C1015 C1019 1.460 . S
C1015 H1021 0.929 . S
N1016 Mn1009 2.257 . S
N1016 C1015 1.326 . S
N1016 C1020 1.362 . S
C1017 C1018 1.258 1_455 S
C1017 C1020 1.432 . S
C1017 C1037 1.448 1_455 S
C1018 C1017 1.258 1_655 S
C1018 C1019 1.477 1_655 S
C1018 H1038 0.931 . S
C1019 C1015 1.460 . S
C1019 C1018 1.477 1_455 S
C1019 H1039 0.930 . S
C1020 N1016 1.362 . S
C1020 C1017 1.432 . S
C1020 C1030 1.476 . S
H1021 C1015 0.929 . S
C1022 O1013 1.250 . S
C1022 O1014 1.258 . S
O1023 Mn1008 2.162 . S
O1023 C1011 1.281 . S
O1024 Mn1008 2.297 . S
O1024 C1011 1.236 . S
N1025 Mn1009 2.282 . S
N1025 C1026 1.328 . S
N1025 C1030 1.318 . S
C1026 N1025 1.328 . S
C1026 C1027 1.457 . S
C1026 H1031 0.929 . S
C1027 C1026 1.457 . S
C1027 C1028 1.291 . S
C1027 H1040 0.931 . S
C1028 C1027 1.291 . S
C1028 C1029 1.373 . S
C1028 H1041 0.929 1_455 S
C1029 C1028 1.373 . S
C1029 C1030 1.396 . S
C1029 C1036 1.403 1_455 S
C1030 C1020 1.476 . S
C1030 N1025 1.318 . S
C1030 C1029 1.396 . S
H1031 C1026 0.929 . S
O1032 Mn1008 2.385 . S
O1032 C1010 1.234 . S
O1033 Mn1008 2.209 . S
O1033 Mn1009 2.215 . S
O1033 C1010 1.283 . S
O1034 Mn1008 2.094 . S
O1034 C1012 1.240 . S
O1035 Mn1009 2.117 . S
O1035 C1012 1.264 . S
C1036 C1029 1.403 1_655 S
C1036 C1037 1.399 . S
C1036 H1042 0.929 . S
C1037 C1017 1.448 1_655 S
C1037 C1036 1.399 . S
C1037 H1043 0.930 . S
H1038 C1018 0.931 . S
H1039 C1019 0.930 . S
H1040 C1027 0.931 . S
H1041 C1028 0.929 1_655 S
H1042 C1036 0.929 . S
H1043 C1037 0.930 . S
Mn1044 O1049 2.095 . S
Mn1044 O1059 2.162 . S
Mn1044 O1060 2.297 . S
Mn1044 O1068 2.385 . S
Mn1044 O1069 2.209 . S
Mn1044 O1070 2.094 . S
Mn1045 O1050 2.121 . S
Mn1045 N1052 2.257 . S
Mn1045 N1061 2.282 . S
Mn1045 O1069 2.215 . S
Mn1045 O1071 2.117 . S
C1046 O1068 1.234 . S
C1046 O1069 1.283 . S
C1047 O1059 1.281 . S
C1047 O1060 1.236 . S
C1048 O1070 1.240 . S
C1048 O1071 1.264 . S
O1049 Mn1044 2.095 . S
O1049 C1058 1.250 . S
O1050 Mn1045 2.121 . S
O1050 C1058 1.258 . S
C1051 N1052 1.326 . S
C1051 C1055 1.460 . S
C1051 H1057 0.929 . S
N1052 Mn1045 2.257 . S
N1052 C1051 1.326 . S
N1052 C1056 1.362 . S
C1053 C1054 1.258 . S
C1053 C1056 1.431 . S
C1053 C1073 1.449 . S
C1054 C1053 1.258 . S
C1054 C1055 1.477 . S
C1054 H1074 0.931 . S
C1055 C1051 1.460 . S
C1055 C1054 1.477 . S
C1055 H1075 0.930 . S
C1056 N1052 1.362 . S
C1056 C1053 1.431 . S
C1056 C1066 1.476 . S
H1057 C1051 0.929 . S
C1058 O1049 1.250 . S
C1058 O1050 1.258 . S
O1059 Mn1044 2.162 . S
O1059 C1047 1.281 . S
O1060 Mn1044 2.297 . S
O1060 C1047 1.236 . S
N1061 Mn1045 2.282 . S
N1061 C1062 1.328 . S
N1061 C1066 1.318 . S
C1062 N1061 1.328 . S
C1062 C1063 1.457 . S
C1062 H1067 0.929 . S
C1063 C1062 1.457 . S
C1063 C1064 1.291 . S
C1063 H1076 0.931 . S
C1064 C1063 1.291 . S
C1064 C1065 1.373 . S
C1064 H1077 0.929 . S
C1065 C1064 1.373 . S
C1065 C1066 1.396 . S
C1065 C1072 1.403 . S
C1066 C1056 1.476 . S
C1066 N1061 1.318 . S
C1066 C1065 1.396 . S
H1067 C1062 0.929 . S
O1068 Mn1044 2.385 . S
O1068 C1046 1.234 . S
O1069 Mn1044 2.209 . S
O1069 Mn1045 2.215 . S
O1069 C1046 1.283 . S
O1070 Mn1044 2.094 . S
O1070 C1048 1.240 . S
O1071 Mn1045 2.117 . S
O1071 C1048 1.264 . S
C1072 C1065 1.403 . S
C1072 C1073 1.399 . S
C1072 H1078 0.929 . S
C1073 C1053 1.449 . S
C1073 C1072 1.399 . S
C1073 H1079 0.930 . S
H1074 C1054 0.931 . S
H1075 C1055 0.930 . S
H1076 C1063 0.931 . S
H1077 C1064 0.929 . S
H1078 C1072 0.929 . S
H1079 C1073 0.930 . S
Mn1080 O1085 2.095 . S
Mn1080 O1095 2.162 . S
Mn1080 O1096 2.297 . S
Mn1080 O1104 2.385 . S
Mn1080 O1105 2.209 . S
Mn1080 O1106 2.094 . S
Mn1081 O1086 2.121 . S
Mn1081 N1088 2.257 . S
Mn1081 N1097 2.282 . S
Mn1081 O1105 2.215 . S
Mn1081 O1107 2.117 . S
C1082 O1104 1.234 . S
C1082 O1105 1.283 . S
C1083 O1095 1.281 . S
C1083 O1096 1.236 . S
C1084 O1106 1.240 . S
C1084 O1107 1.264 . S
O1085 Mn1080 2.095 . S
O1085 C1094 1.250 . S
O1086 Mn1081 2.121 . S
O1086 C1094 1.258 . S
C1087 N1088 1.326 . S
C1087 C1091 1.460 . S
C1087 H1093 0.929 . S
N1088 Mn1081 2.257 . S
N1088 C1087 1.326 . S
N1088 C1092 1.362 . S
C1089 C1090 1.257 1_455 S
C1089 C1092 1.433 . S
C1089 C1109 1.447 1_455 S
C1090 C1089 1.257 1_655 S
C1090 C1091 1.477 1_655 S
C1090 H1110 0.931 . S
C1091 C1087 1.460 . S
C1091 C1090 1.477 1_455 S
C1091 H1111 0.930 . S
C1092 N1088 1.362 . S
C1092 C1089 1.433 . S
C1092 C1102 1.476 . S
H1093 C1087 0.929 . S
C1094 O1085 1.250 . S
C1094 O1086 1.258 . S
O1095 Mn1080 2.162 . S
O1095 C1083 1.281 . S
O1096 Mn1080 2.297 . S
O1096 C1083 1.236 . S
N1097 Mn1081 2.282 . S
N1097 C1098 1.328 . S
N1097 C1102 1.318 . S
C1098 N1097 1.328 . S
C1098 C1099 1.457 . S
C1098 H1103 0.929 . S
C1099 C1098 1.457 . S
C1099 C1100 1.291 . S
C1099 H1112 0.931 . S
C1100 C1099 1.291 . S
C1100 C1101 1.373 . S
C1100 H1113 0.929 1_455 S
C1101 C1100 1.373 . S
C1101 C1102 1.396 . S
C1101 C1108 1.403 1_455 S
C1102 C1092 1.476 . S
C1102 N1097 1.318 . S
C1102 C1101 1.396 . S
H1103 C1098 0.929 . S
O1104 Mn1080 2.385 . S
O1104 C1082 1.234 . S
O1105 Mn1080 2.209 . S
O1105 Mn1081 2.215 . S
O1105 C1082 1.283 . S
O1106 Mn1080 2.094 . S
O1106 C1084 1.240 . S
O1107 Mn1081 2.117 . S
O1107 C1084 1.264 . S
C1108 C1101 1.403 1_655 S
C1108 C1109 1.399 . S
C1108 H1114 0.929 . S
C1109 C1089 1.447 1_655 S
C1109 C1108 1.399 . S
C1109 H1115 0.930 . S
H1110 C1090 0.931 . S
H1111 C1091 0.930 . S
H1112 C1099 0.931 . S
H1113 C1100 0.929 1_655 S
H1114 C1108 0.929 . S
H1115 C1109 0.930 . S
Mn1116 O1121 2.095 . S
Mn1116 O1131 2.162 . S
Mn1116 O1132 2.297 . S
Mn1116 O1140 2.385 . S
Mn1116 O1141 2.209 . S
Mn1116 O1142 2.094 . S
Mn1117 O1122 2.121 . S
Mn1117 N1124 2.257 . S
Mn1117 N1133 2.282 . S
Mn1117 O1141 2.215 . S
Mn1117 O1143 2.117 . S
C1118 O1140 1.234 . S
C1118 O1141 1.283 . S
C1119 O1131 1.281 . S
C1119 O1132 1.236 . S
C1120 O1142 1.240 . S
C1120 O1143 1.264 . S
O1121 Mn1116 2.095 . S
O1121 C1130 1.250 . S
O1122 Mn1117 2.121 . S
O1122 C1130 1.258 . S
C1123 N1124 1.326 . S
C1123 C1127 1.460 . S
C1123 H1129 0.929 . S
N1124 Mn1117 2.257 . S
N1124 C1123 1.326 . S
N1124 C1128 1.362 . S
C1125 C1126 1.258 . S
C1125 C1128 1.431 . S
C1125 C1145 1.449 . S
C1126 C1125 1.258 . S
C1126 C1127 1.477 . S
C1126 H1146 0.931 . S
C1127 C1123 1.460 . S
C1127 C1126 1.477 . S
C1127 H1147 0.930 . S
C1128 N1124 1.362 . S
C1128 C1125 1.431 . S
C1128 C1138 1.476 . S
H1129 C1123 0.929 . S
C1130 O1121 1.250 . S
C1130 O1122 1.258 . S
O1131 Mn1116 2.162 . S
O1131 C1119 1.281 . S
O1132 Mn1116 2.297 . S
O1132 C1119 1.236 . S
N1133 Mn1117 2.282 . S
N1133 C1134 1.328 . S
N1133 C1138 1.318 . S
C1134 N1133 1.328 . S
C1134 C1135 1.457 . S
C1134 H1139 0.929 . S
C1135 C1134 1.457 . S
C1135 C1136 1.291 . S
C1135 H1148 0.931 . S
C1136 C1135 1.291 . S
C1136 C1137 1.373 . S
C1136 H1149 0.929 . S
C1137 C1136 1.373 . S
C1137 C1138 1.396 . S
C1137 C1144 1.403 . S
C1138 C1128 1.476 . S
C1138 N1133 1.318 . S
C1138 C1137 1.396 . S
H1139 C1134 0.929 . S
O1140 Mn1116 2.385 . S
O1140 C1118 1.234 . S
O1141 Mn1116 2.209 . S
O1141 Mn1117 2.215 . S
O1141 C1118 1.283 . S
O1142 Mn1116 2.094 . S
O1142 C1120 1.240 . S
O1143 Mn1117 2.117 . S
O1143 C1120 1.264 . S
C1144 C1137 1.403 . S
C1144 C1145 1.399 . S
C1144 H1150 0.929 . S
C1145 C1125 1.449 . S
C1145 C1144 1.399 . S
C1145 H1151 0.930 . S
H1146 C1126 0.931 . S
H1147 C1127 0.930 . S
H1148 C1135 0.931 . S
H1149 C1136 0.929 . S
H1150 C1144 0.929 . S
H1151 C1145 0.930 . S
Mn1152 O1157 2.095 . S
Mn1152 O1167 2.162 . S
Mn1152 O1168 2.297 . S
Mn1152 O1176 2.385 . S
Mn1152 O1177 2.209 . S
Mn1152 O1178 2.094 . S
Mn1153 O1158 2.121 . S
Mn1153 N1160 2.257 . S
Mn1153 N1169 2.282 . S
Mn1153 O1177 2.215 . S
Mn1153 O1179 2.117 . S
C1154 O1176 1.234 . S
C1154 O1177 1.283 . S
C1155 O1167 1.281 . S
C1155 O1168 1.236 . S
C1156 O1178 1.240 . S
C1156 O1179 1.264 . S
O1157 Mn1152 2.095 . S
O1157 C1166 1.250 . S
O1158 Mn1153 2.121 . S
O1158 C1166 1.258 . S
C1159 N1160 1.326 . S
C1159 C1163 1.460 . S
C1159 H1165 0.929 . S
N1160 Mn1153 2.257 . S
N1160 C1159 1.326 . S
N1160 C1164 1.362 . S
C1161 C1162 1.258 1_565 S
C1161 C1164 1.432 . S
C1161 C1181 1.448 1_565 S
C1162 C1161 1.258 1_545 S
C1162 C1163 1.477 1_545 S
C1162 H1182 0.931 . S
C1163 C1159 1.460 . S
C1163 C1162 1.477 1_565 S
C1163 H1183 0.930 . S
C1164 N1160 1.362 . S
C1164 C1161 1.432 . S
C1164 C1174 1.476 . S
H1165 C1159 0.929 . S
C1166 O1157 1.250 . S
C1166 O1158 1.258 . S
O1167 Mn1152 2.162 . S
O1167 C1155 1.281 . S
O1168 Mn1152 2.297 . S
O1168 C1155 1.236 . S
N1169 Mn1153 2.282 . S
N1169 C1170 1.328 . S
N1169 C1174 1.318 . S
C1170 N1169 1.328 . S
C1170 C1171 1.457 . S
C1170 H1175 0.929 . S
C1171 C1170 1.457 . S
C1171 C1172 1.291 . S
C1171 H1184 0.931 . S
C1172 C1171 1.291 . S
C1172 C1173 1.373 . S
C1172 H1185 0.929 1_565 S
C1173 C1172 1.373 . S
C1173 C1174 1.396 . S
C1173 C1180 1.403 1_565 S
C1174 C1164 1.476 . S
C1174 N1169 1.318 . S
C1174 C1173 1.396 . S
H1175 C1170 0.929 . S
O1176 Mn1152 2.385 . S
O1176 C1154 1.234 . S
O1177 Mn1152 2.209 . S
O1177 Mn1153 2.215 . S
O1177 C1154 1.283 . S
O1178 Mn1152 2.094 . S
O1178 C1156 1.240 . S
O1179 Mn1153 2.117 . S
O1179 C1156 1.264 . S
C1180 C1173 1.403 1_545 S
C1180 C1181 1.399 . S
C1180 H1186 0.929 . S
C1181 C1161 1.448 1_545 S
C1181 C1180 1.399 . S
C1181 H1187 0.930 . S
H1182 C1162 0.931 . S
H1183 C1163 0.930 . S
H1184 C1171 0.931 . S
H1185 C1172 0.929 1_545 S
H1186 C1180 0.929 . S
H1187 C1181 0.930 . S
Mn1188 O1193 2.095 . S
Mn1188 O1203 2.162 . S
Mn1188 O1204 2.297 . S
Mn1188 O1212 2.385 . S
Mn1188 O1213 2.209 . S
Mn1188 O1214 2.094 . S
Mn1189 O1194 2.121 1_556 S
Mn1189 N1196 2.257 . S
Mn1189 N1205 2.282 . S
Mn1189 O1213 2.215 . S
Mn1189 O1215 2.117 . S
C1190 O1212 1.234 . S
C1190 O1213 1.283 . S
C1191 O1203 1.281 . S
C1191 O1204 1.236 . S
C1192 O1214 1.240 . S
C1192 O1215 1.264 . S
O1193 Mn1188 2.095 . S
O1193 C1202 1.250 1_556 S
O1194 Mn1189 2.121 1_554 S
O1194 C1202 1.258 . S
C1195 N1196 1.326 1_554 S
C1195 C1199 1.460 . S
C1195 H1201 0.929 . S
N1196 Mn1189 2.257 . S
N1196 C1195 1.326 1_556 S
N1196 C1200 1.362 . S
C1197 C1198 1.258 1_556 S
C1197 C1200 1.431 . S
C1197 C1217 1.449 . S
C1198 C1197 1.258 1_554 S
C1198 C1199 1.477 . S
C1198 H1218 0.931 . S
C1199 C1195 1.460 . S
C1199 C1198 1.477 . S
C1199 H1219 0.930 . S
C1200 N1196 1.362 . S
C1200 C1197 1.431 . S
C1200 C1210 1.476 . S
H1201 C1195 0.929 . S
C1202 O1193 1.250 1_554 S
C1202 O1194 1.258 . S
O1203 Mn1188 2.162 . S
O1203 C1191 1.281 . S
O1204 Mn1188 2.297 . S
O1204 C1191 1.236 . S
N1205 Mn1189 2.282 . S
N1205 C1206 1.328 . S
N1205 C1210 1.318 . S
C1206 N1205 1.328 . S
C1206 C1207 1.457 . S
C1206 H1211 0.929 . S
C1207 C1206 1.457 . S
C1207 C1208 1.291 . S
C1207 H1220 0.931 . S
C1208 C1207 1.291 . S
C1208 C1209 1.373 . S
C1208 H1221 0.929 . S
C1209 C1208 1.373 . S
C1209 C1210 1.396 . S
C1209 C1216 1.403 . S
C1210 C1200 1.476 . S
C1210 N1205 1.318 . S
C1210 C1209 1.396 . S
H1211 C1206 0.929 . S
O1212 Mn1188 2.385 . S
O1212 C1190 1.234 . S
O1213 Mn1188 2.209 . S
O1213 Mn1189 2.215 . S
O1213 C1190 1.283 . S
O1214 Mn1188 2.094 . S
O1214 C1192 1.240 . S
O1215 Mn1189 2.117 . S
O1215 C1192 1.264 . S
C1216 C1209 1.403 . S
C1216 C1217 1.399 . S
C1216 H1222 0.929 . S
C1217 C1197 1.449 . S
C1217 C1216 1.399 . S
C1217 H1223 0.930 . S
H1218 C1198 0.931 . S
H1219 C1199 0.930 . S
H1220 C1207 0.931 . S
H1221 C1208 0.929 . S
H1222 C1216 0.929 . S
H1223 C1217 0.930 . S
Mn1224 O1229 2.095 . S
Mn1224 O1239 2.162 . S
Mn1224 O1240 2.297 . S
Mn1224 O1248 2.385 . S
Mn1224 O1249 2.209 . S
Mn1224 O1250 2.094 . S
Mn1225 O1230 2.121 1_556 S
Mn1225 N1232 2.257 . S
Mn1225 N1241 2.282 . S
Mn1225 O1249 2.215 . S
Mn1225 O1251 2.117 . S
C1226 O1248 1.234 . S
C1226 O1249 1.283 . S
C1227 O1239 1.281 . S
C1227 O1240 1.236 . S
C1228 O1250 1.240 . S
C1228 O1251 1.264 . S
O1229 Mn1224 2.095 . S
O1229 C1238 1.250 1_556 S
O1230 Mn1225 2.121 1_554 S
O1230 C1238 1.258 . S
C1231 N1232 1.326 1_554 S
C1231 C1235 1.460 . S
C1231 H1237 0.929 . S
N1232 Mn1225 2.257 . S
N1232 C1231 1.326 1_556 S
N1232 C1236 1.362 . S
C1233 C1234 1.258 1_556 S
C1233 C1236 1.431 . S
C1233 C1253 1.449 . S
C1234 C1233 1.258 1_554 S
C1234 C1235 1.477 . S
C1234 H1254 0.931 . S
C1235 C1231 1.460 . S
C1235 C1234 1.477 . S
C1235 H1255 0.930 . S
C1236 N1232 1.362 . S
C1236 C1233 1.431 . S
C1236 C1246 1.476 . S
H1237 C1231 0.929 . S
C1238 O1229 1.250 1_554 S
C1238 O1230 1.258 . S
O1239 Mn1224 2.162 . S
O1239 C1227 1.281 . S
O1240 Mn1224 2.297 . S
O1240 C1227 1.236 . S
N1241 Mn1225 2.282 . S
N1241 C1242 1.328 . S
N1241 C1246 1.318 . S
C1242 N1241 1.328 . S
C1242 C1243 1.457 . S
C1242 H1247 0.929 . S
C1243 C1242 1.457 . S
C1243 C1244 1.291 . S
C1243 H1256 0.931 . S
C1244 C1243 1.291 . S
C1244 C1245 1.373 . S
C1244 H1257 0.929 . S
C1245 C1244 1.373 . S
C1245 C1246 1.396 . S
C1245 C1252 1.403 . S
C1246 C1236 1.476 . S
C1246 N1241 1.318 . S
C1246 C1245 1.396 . S
H1247 C1242 0.929 . S
O1248 Mn1224 2.385 . S
O1248 C1226 1.234 . S
O1249 Mn1224 2.209 . S
O1249 Mn1225 2.215 . S
O1249 C1226 1.283 . S
O1250 Mn1224 2.094 . S
O1250 C1228 1.240 . S
O1251 Mn1225 2.117 . S
O1251 C1228 1.264 . S
C1252 C1245 1.403 . S
C1252 C1253 1.399 . S
C1252 H1258 0.929 . S
C1253 C1233 1.449 . S
C1253 C1252 1.399 . S
C1253 H1259 0.930 . S
H1254 C1234 0.931 . S
H1255 C1235 0.930 . S
H1256 C1243 0.931 . S
H1257 C1244 0.929 . S
H1258 C1252 0.929 . S
H1259 C1253 0.930 . S
Mn1260 O1265 2.095 . S
Mn1260 O1275 2.162 . S
Mn1260 O1276 2.297 . S
Mn1260 O1284 2.385 . S
Mn1260 O1285 2.209 . S
Mn1260 O1286 2.094 . S
Mn1261 O1266 2.121 1_556 S
Mn1261 N1268 2.257 . S
Mn1261 N1277 2.282 . S
Mn1261 O1285 2.215 . S
Mn1261 O1287 2.117 . S
C1262 O1284 1.234 . S
C1262 O1285 1.283 . S
C1263 O1275 1.281 . S
C1263 O1276 1.236 . S
C1264 O1286 1.240 . S
C1264 O1287 1.264 . S
O1265 Mn1260 2.095 . S
O1265 C1274 1.250 1_556 S
O1266 Mn1261 2.121 1_554 S
O1266 C1274 1.258 . S
C1267 N1268 1.326 1_554 S
C1267 C1271 1.460 . S
C1267 H1273 0.929 . S
N1268 Mn1261 2.257 . S
N1268 C1267 1.326 1_556 S
N1268 C1272 1.362 . S
C1269 C1270 1.258 1_556 S
C1269 C1272 1.431 . S
C1269 C1289 1.449 . S
C1270 C1269 1.258 1_554 S
C1270 C1271 1.477 . S
C1270 H1290 0.931 . S
C1271 C1267 1.460 . S
C1271 C1270 1.477 . S
C1271 H1291 0.930 . S
C1272 N1268 1.362 . S
C1272 C1269 1.431 . S
C1272 C1282 1.476 . S
H1273 C1267 0.929 . S
C1274 O1265 1.250 1_554 S
C1274 O1266 1.258 . S
O1275 Mn1260 2.162 . S
O1275 C1263 1.281 . S
O1276 Mn1260 2.297 . S
O1276 C1263 1.236 . S
N1277 Mn1261 2.282 . S
N1277 C1278 1.328 . S
N1277 C1282 1.318 . S
C1278 N1277 1.328 . S
C1278 C1279 1.457 . S
C1278 H1283 0.929 . S
C1279 C1278 1.457 . S
C1279 C1280 1.291 . S
C1279 H1292 0.931 . S
C1280 C1279 1.291 . S
C1280 C1281 1.373 . S
C1280 H1293 0.929 . S
C1281 C1280 1.373 . S
C1281 C1282 1.396 . S
C1281 C1288 1.403 . S
C1282 C1272 1.476 . S
C1282 N1277 1.318 . S
C1282 C1281 1.396 . S
H1283 C1278 0.929 . S
O1284 Mn1260 2.385 . S
O1284 C1262 1.234 . S
O1285 Mn1260 2.209 . S
O1285 Mn1261 2.215 . S
O1285 C1262 1.283 . S
O1286 Mn1260 2.094 . S
O1286 C1264 1.240 . S
O1287 Mn1261 2.117 . S
O1287 C1264 1.264 . S
C1288 C1281 1.403 . S
C1288 C1289 1.399 . S
C1288 H1294 0.929 . S
C1289 C1269 1.449 . S
C1289 C1288 1.399 . S
C1289 H1295 0.930 . S
H1290 C1270 0.931 . S
H1291 C1271 0.930 . S
H1292 C1279 0.931 . S
H1293 C1280 0.929 . S
H1294 C1288 0.929 . S
H1295 C1289 0.930 . S
C1296 C1297 1.316 1_545 S
C1296 C1302 1.409 . S
C1296 N1304 1.360 1_545 S
C1297 C1296 1.316 1_565 S
C1297 C1303 1.363 . S
C1298 C1299 1.317 1_565 S
C1298 C1303 1.408 . S
C1298 N1305 1.360 1_565 S
C1299 C1298 1.317 1_545 S
C1299 C1302 1.363 . S
N1300 C1302 1.356 . S
N1300 H1312 0.984 . S
N1300 H1313 0.985 . S
N1301 C1303 1.356 . S
N1301 H1306 0.984 . S
N1301 H1307 0.985 . S
C1302 C1296 1.409 . S
C1302 C1299 1.363 . S
C1302 N1300 1.356 . S
C1303 C1297 1.363 . S
C1303 C1298 1.408 . S
C1303 N1301 1.356 . S
N1304 C1296 1.360 1_565 S
N1304 H1310 0.984 1_565 S
N1304 H1311 0.984 . S
N1305 C1298 1.360 1_545 S
N1305 H1308 0.984 . S
N1305 H1309 0.985 1_545 S
H1306 N1301 0.984 . S
H1307 N1301 0.985 . S
H1308 N1305 0.984 . S
H1309 N1305 0.985 1_565 S
H1310 N1304 0.984 1_545 S
H1311 N1304 0.984 . S
H1312 N1300 0.984 . S
H1313 N1300 0.985 . S
C1314 C1315 1.363 . S
C1314 C1320 1.379 1_455 S
C1314 N1322 1.356 . S
C1315 C1314 1.363 . S
C1315 C1321 1.363 . S
C1316 C1317 1.363 . S
C1316 C1321 1.379 1_655 S
C1316 N1323 1.356 . S
C1317 C1316 1.363 . S
C1317 C1320 1.363 . S
N1318 C1320 1.356 . S
N1318 H1330 0.984 . S
N1318 H1331 0.985 . S
N1319 C1321 1.356 . S
N1319 H1324 0.984 . S
N1319 H1325 0.985 . S
C1320 C1314 1.379 1_655 S
C1320 C1317 1.363 . S
C1320 N1318 1.356 . S
C1321 C1315 1.363 . S
C1321 C1316 1.379 1_455 S
C1321 N1319 1.356 . S
N1322 C1314 1.356 . S
N1322 H1328 0.984 . S
N1322 H1329 0.984 . S
N1323 C1316 1.356 . S
N1323 H1326 0.984 . S
N1323 H1327 0.985 . S
H1324 N1319 0.984 . S
H1325 N1319 0.985 . S
H1326 N1323 0.984 . S
H1327 N1323 0.985 . S
H1328 N1322 0.984 . S
H1329 N1322 0.984 . S
H1330 N1318 0.984 . S
H1331 N1318 0.985 . S
C1332 C1333 1.363 . S
C1332 C1338 1.379 . S
C1332 N1340 1.356 . S
C1333 C1332 1.363 . S
C1333 C1339 1.363 . S
C1334 C1335 1.363 . S
C1334 C1339 1.379 . S
C1334 N1341 1.356 . S
C1335 C1334 1.363 . S
C1335 C1338 1.363 . S
N1336 C1338 1.356 . S
N1336 H1348 0.984 . S
N1336 H1349 0.985 . S
N1337 C1339 1.356 . S
N1337 H1342 0.984 . S
N1337 H1343 0.985 . S
C1338 C1332 1.379 . S
C1338 C1335 1.363 . S
C1338 N1336 1.356 . S
C1339 C1333 1.363 . S
C1339 C1334 1.379 . S
C1339 N1337 1.356 . S
N1340 C1332 1.356 . S
N1340 H1346 0.984 . S
N1340 H1347 0.984 . S
N1341 C1334 1.356 . S
N1341 H1344 0.984 . S
N1341 H1345 0.985 . S
H1342 N1337 0.984 . S
H1343 N1337 0.985 . S
H1344 N1341 0.984 . S
H1345 N1341 0.985 . S
H1346 N1340 0.984 . S
H1347 N1340 0.984 . S
H1348 N1336 0.984 . S
H1349 N1336 0.985 . S
C1350 C1351 1.363 1_545 S
C1350 C1356 1.379 . S
C1350 N1358 1.356 . S
C1351 C1350 1.363 1_565 S
C1351 C1357 1.363 . S
C1352 C1353 1.363 1_565 S
C1352 C1357 1.379 . S
C1352 N1359 1.356 . S
C1353 C1352 1.363 1_545 S
C1353 C1356 1.363 . S
N1354 C1356 1.356 . S
N1354 H1366 0.984 . S
N1354 H1367 0.985 . S
N1355 C1357 1.356 . S
N1355 H1360 0.984 . S
N1355 H1361 0.985 . S
C1356 C1350 1.379 . S
C1356 C1353 1.363 . S
C1356 N1354 1.356 . S
C1357 C1351 1.363 . S
C1357 C1352 1.379 . S
C1357 N1355 1.356 . S
N1358 C1350 1.356 . S
N1358 H1364 0.984 . S
N1358 H1365 0.984 1_545 S
N1359 C1352 1.356 . S
N1359 H1362 0.984 1_565 S
N1359 H1363 0.985 . S
H1360 N1355 0.984 . S
H1361 N1355 0.985 . S
H1362 N1359 0.984 1_545 S
H1363 N1359 0.985 . S
H1364 N1358 0.984 . S
H1365 N1358 0.984 1_565 S
H1366 N1354 0.984 . S
H1367 N1354 0.985 . S
C1368 C1369 1.357 1_655 S
C1368 C1374 1.383 . S
C1368 N1376 1.357 1_655 S
C1369 C1368 1.357 1_455 S
C1369 C1375 1.363 . S
C1370 C1371 1.357 1_455 S
C1370 C1375 1.383 . S
C1370 N1377 1.357 1_455 S
C1371 C1370 1.357 1_655 S
C1371 C1374 1.363 . S
N1372 C1374 1.356 . S
N1372 H1384 0.984 . S
N1372 H1385 0.985 . S
N1373 C1375 1.356 . S
N1373 H1378 0.984 . S
N1373 H1379 0.985 . S
C1374 C1368 1.383 . S
C1374 C1371 1.363 . S
C1374 N1372 1.356 . S
C1375 C1369 1.363 . S
C1375 C1370 1.383 . S
C1375 N1373 1.356 . S
N1376 C1368 1.357 1_455 S
N1376 H1382 0.984 1_455 S
N1376 H1383 0.984 . S
N1377 C1370 1.357 1_655 S
N1377 H1380 0.984 . S
N1377 H1381 0.985 1_655 S
H1378 N1373 0.984 . S
H1379 N1373 0.985 . S
H1380 N1377 0.984 . S
H1381 N1377 0.985 1_455 S
H1382 N1376 0.984 1_655 S
H1383 N1376 0.984 . S
H1384 N1372 0.984 . S
H1385 N1372 0.985 . S
C1386 C1387 1.363 . S
C1386 C1392 1.379 . S
C1386 N1394 1.356 . S
C1387 C1386 1.363 . S
C1387 C1393 1.363 . S
C1388 C1389 1.363 . S
C1388 C1393 1.379 . S
C1388 N1395 1.356 . S
C1389 C1388 1.363 . S
C1389 C1392 1.363 . S
N1390 C1392 1.356 . S
N1390 H1402 0.984 . S
N1390 H1403 0.985 . S
N1391 C1393 1.356 . S
N1391 H1396 0.984 . S
N1391 H1397 0.985 . S
C1392 C1386 1.379 . S
C1392 C1389 1.363 . S
C1392 N1390 1.356 . S
C1393 C1387 1.363 . S
C1393 C1388 1.379 . S
C1393 N1391 1.356 . S
N1394 C1386 1.356 . S
N1394 H1400 0.984 . S
N1394 H1401 0.984 . S
N1395 C1388 1.356 . S
N1395 H1398 0.984 . S
N1395 H1399 0.985 . S
H1396 N1391 0.984 . S
H1397 N1391 0.985 . S
H1398 N1395 0.984 . S
H1399 N1395 0.985 . S
H1400 N1394 0.984 . S
H1401 N1394 0.984 . S
H1402 N1390 0.984 . S
H1403 N1390 0.985 . S
C1404 C1405 1.363 . S
C1404 C1410 1.379 . S
C1404 N1412 1.356 . S
C1405 C1404 1.363 . S
C1405 C1411 1.363 . S
C1406 C1407 1.363 . S
C1406 C1411 1.379 . S
C1406 N1413 1.356 . S
C1407 C1406 1.363 . S
C1407 C1410 1.363 . S
N1408 C1410 1.356 . S
N1408 H1420 0.984 . S
N1408 H1421 0.985 . S
N1409 C1411 1.356 . S
N1409 H1414 0.984 . S
N1409 H1415 0.985 . S
C1410 C1404 1.379 . S
C1410 C1407 1.363 . S
C1410 N1408 1.356 . S
C1411 C1405 1.363 . S
C1411 C1406 1.379 . S
C1411 N1409 1.356 . S
N1412 C1404 1.356 . S
N1412 H1418 0.984 . S
N1412 H1419 0.984 . S
N1413 C1406 1.356 . S
N1413 H1416 0.984 1_556 S
N1413 H1417 0.985 1_556 S
H1414 N1409 0.984 . S
H1415 N1409 0.985 . S
H1416 N1413 0.984 1_554 S
H1417 N1413 0.985 1_554 S
H1418 N1412 0.984 . S
H1419 N1412 0.984 . S
H1420 N1408 0.984 . S
H1421 N1408 0.985 . S
C1422 C1423 1.363 . S
C1422 C1428 1.379 . S
C1422 N1430 1.356 . S
C1423 C1422 1.363 . S
C1423 C1429 1.363 . S
C1424 C1425 1.363 . S
C1424 C1429 1.379 . S
C1424 N1431 1.356 . S
C1425 C1424 1.363 . S
C1425 C1428 1.363 . S
N1426 C1428 1.356 . S
N1426 H1438 0.984 1_556 S
N1426 H1439 0.985 1_556 S
N1427 C1429 1.356 . S
N1427 H1432 0.984 . S
N1427 H1433 0.985 . S
C1428 C1422 1.379 . S
C1428 C1425 1.363 . S
C1428 N1426 1.356 . S
C1429 C1423 1.363 . S
C1429 C1424 1.379 . S
C1429 N1427 1.356 . S
N1430 C1422 1.356 . S
N1430 H1436 0.984 . S
N1430 H1437 0.984 . S
N1431 C1424 1.356 . S
N1431 H1434 0.984 . S
N1431 H1435 0.985 . S
H1432 N1427 0.984 . S
H1433 N1427 0.985 . S
H1434 N1431 0.984 . S
H1435 N1431 0.985 . S
H1436 N1430 0.984 . S
H1437 N1430 0.984 . S
H1438 N1426 0.984 1_554 S
H1439 N1426 0.985 1_554 S
C1440 C1441 1.363 . S
C1440 C1446 1.379 . S
C1440 N1448 1.356 . S
C1441 C1440 1.363 . S
C1441 C1447 1.363 . S
C1442 C1443 1.363 . S
C1442 C1447 1.379 . S
C1442 N1449 1.356 . S
C1443 C1442 1.363 . S
C1443 C1446 1.363 . S
N1444 C1446 1.356 . S
N1444 H1456 0.984 . S
N1444 H1457 0.985 . S
N1445 C1447 1.356 . S
N1445 H1450 0.984 . S
N1445 H1451 0.985 . S
C1446 C1440 1.379 . S
C1446 C1443 1.363 . S
C1446 N1444 1.356 . S
C1447 C1441 1.363 . S
C1447 C1442 1.379 . S
C1447 N1445 1.356 . S
N1448 C1440 1.356 . S
N1448 H1454 0.984 . S
N1448 H1455 0.984 . S
N1449 C1442 1.356 . S
N1449 H1452 0.984 . S
N1449 H1453 0.985 . S
H1450 N1445 0.984 . S
H1451 N1445 0.985 . S
H1452 N1449 0.984 . S
H1453 N1449 0.985 . S
H1454 N1448 0.984 . S
H1455 N1448 0.984 . S
H1456 N1444 0.984 . S
H1457 N1444 0.985 . S
C1458 C1459 1.363 . S
C1458 C1464 1.379 . S
C1458 N1466 1.356 . S
C1459 C1458 1.363 . S
C1459 C1465 1.363 . S
C1460 C1461 1.363 . S
C1460 C1465 1.379 . S
C1460 N1467 1.356 . S
C1461 C1460 1.363 . S
C1461 C1464 1.363 . S
N1462 C1464 1.356 . S
N1462 H1474 0.984 . S
N1462 H1475 0.985 . S
N1463 C1465 1.356 . S
N1463 H1468 0.984 . S
N1463 H1469 0.985 . S
C1464 C1458 1.379 . S
C1464 C1461 1.363 . S
C1464 N1462 1.356 . S
C1465 C1459 1.363 . S
C1465 C1460 1.379 . S
C1465 N1463 1.356 . S
N1466 C1458 1.356 . S
N1466 H1472 0.984 . S
N1466 H1473 0.984 . S
N1467 C1460 1.356 . S
N1467 H1470 0.984 1_556 S
N1467 H1471 0.984 . S
H1468 N1463 0.984 . S
H1469 N1463 0.985 . S
H1470 N1467 0.984 1_554 S
H1471 N1467 0.984 . S
H1472 N1466 0.984 . S
H1473 N1466 0.984 . S
H1474 N1462 0.984 . S
H1475 N1462 0.985 . S
C1476 C1477 1.363 . S
C1476 C1482 1.379 . S
C1476 N1484 1.356 . S
C1477 C1476 1.363 . S
C1477 C1483 1.363 . S
C1478 C1479 1.363 . S
C1478 C1483 1.379 . S
C1478 N1485 1.356 . S
C1479 C1478 1.363 . S
C1479 C1482 1.363 . S
N1480 C1482 1.356 . S
N1480 H1492 0.984 . S
N1480 H1493 0.985 . S
N1481 C1483 1.356 . S
N1481 H1486 0.984 . S
N1481 H1487 0.985 . S
C1482 C1476 1.379 . S
C1482 C1479 1.363 . S
C1482 N1480 1.356 . S
C1483 C1477 1.363 . S
C1483 C1478 1.379 . S
C1483 N1481 1.356 . S
N1484 C1476 1.356 . S
N1484 H1490 0.984 . S
N1484 H1491 0.984 . S
N1485 C1478 1.356 . S
N1485 H1488 0.984 . S
N1485 H1489 0.985 . S
H1486 N1481 0.984 . S
H1487 N1481 0.985 . S
H1488 N1485 0.984 . S
H1489 N1485 0.985 . S
H1490 N1484 0.984 . S
H1491 N1484 0.984 . S
H1492 N1480 0.984 . S
H1493 N1480 0.985 . S
C1494 C1495 1.363 . S
C1494 C1500 1.379 . S
C1494 N1502 1.356 . S
C1495 C1494 1.363 . S
C1495 C1501 1.363 . S
C1496 C1497 1.363 . S
C1496 C1501 1.379 . S
C1496 N1503 1.356 . S
C1497 C1496 1.363 . S
C1497 C1500 1.363 . S
N1498 C1500 1.356 . S
N1498 H1510 0.984 1_556 S
N1498 H1511 0.985 1_556 S
N1499 C1501 1.356 . S
N1499 H1504 0.984 . S
N1499 H1505 0.985 . S
C1500 C1494 1.379 . S
C1500 C1497 1.363 . S
C1500 N1498 1.356 . S
C1501 C1495 1.363 . S
C1501 C1496 1.379 . S
C1501 N1499 1.356 . S
N1502 C1494 1.356 . S
N1502 H1508 0.984 . S
N1502 H1509 0.984 . S
N1503 C1496 1.356 . S
N1503 H1506 0.984 . S
N1503 H1507 0.985 . S
H1504 N1499 0.984 . S
H1505 N1499 0.985 . S
H1506 N1503 0.984 . S
H1507 N1503 0.985 . S
H1508 N1502 0.984 . S
H1509 N1502 0.984 . S
H1510 N1498 0.984 1_554 S
H1511 N1498 0.985 1_554 S
C1512 C1513 1.363 . S
C1512 C1518 1.379 . S
C1512 N1520 1.356 . S
C1513 C1512 1.363 . S
C1513 C1519 1.363 . S
C1514 C1515 1.363 . S
C1514 C1519 1.379 . S
C1514 N1521 1.356 . S
C1515 C1514 1.363 . S
C1515 C1518 1.363 . S
N1516 C1518 1.356 . S
N1516 H1528 0.984 . S
N1516 H1529 0.985 . S
N1517 C1519 1.356 . S
N1517 H1522 0.984 . S
N1517 H1523 0.985 . S
C1518 C1512 1.379 . S
C1518 C1515 1.363 . S
C1518 N1516 1.356 . S
C1519 C1513 1.363 . S
C1519 C1514 1.379 . S
C1519 N1517 1.356 . S
N1520 C1512 1.356 . S
N1520 H1526 0.984 . S
N1520 H1527 0.984 . S
N1521 C1514 1.356 . S
N1521 H1524 0.984 . S
N1521 H1525 0.985 . S
H1522 N1517 0.984 . S
H1523 N1517 0.985 . S
H1524 N1521 0.984 . S
H1525 N1521 0.985 . S
H1526 N1520 0.984 . S
H1527 N1520 0.984 . S
H1528 N1516 0.984 . S
H1529 N1516 0.985 . S
C1530 C1531 1.363 . S
C1530 C1536 1.379 . S
C1530 N1538 1.356 . S
C1531 C1530 1.363 . S
C1531 C1537 1.363 . S
C1532 C1533 1.363 . S
C1532 C1537 1.379 . S
C1532 N1539 1.356 . S
C1533 C1532 1.363 . S
C1533 C1536 1.363 . S
N1534 C1536 1.356 . S
N1534 H1546 0.984 . S
N1534 H1547 0.985 . S
N1535 C1537 1.356 . S
N1535 H1540 0.984 . S
N1535 H1541 0.985 . S
C1536 C1530 1.379 . S
C1536 C1533 1.363 . S
C1536 N1534 1.356 . S
C1537 C1531 1.363 . S
C1537 C1532 1.379 . S
C1537 N1535 1.356 . S
N1538 C1530 1.356 . S
N1538 H1544 0.984 . S
N1538 H1545 0.984 . S
N1539 C1532 1.356 . S
N1539 H1542 0.984 . S
N1539 H1543 0.985 . S
H1540 N1535 0.984 . S
H1541 N1535 0.985 . S
H1542 N1539 0.984 . S
H1543 N1539 0.985 . S
H1544 N1538 0.984 . S
H1545 N1538 0.984 . S
H1546 N1534 0.984 . S
H1547 N1534 0.985 . S
C1548 C1549 1.363 . S
C1548 C1554 1.379 . S
C1548 N1556 1.356 . S
C1549 C1548 1.363 . S
C1549 C1555 1.363 . S
C1550 C1551 1.363 . S
C1550 C1555 1.379 . S
C1550 N1557 1.356 . S
C1551 C1550 1.363 . S
C1551 C1554 1.363 . S
N1552 C1554 1.356 . S
N1552 H1564 0.984 . S
N1552 H1565 0.985 . S
N1553 C1555 1.356 . S
N1553 H1558 0.984 . S
N1553 H1559 0.985 . S
C1554 C1548 1.379 . S
C1554 C1551 1.363 . S
C1554 N1552 1.356 . S
C1555 C1549 1.363 . S
C1555 C1550 1.379 . S
C1555 N1553 1.356 . S
N1556 C1548 1.356 . S
N1556 H1562 0.984 . S
N1556 H1563 0.984 . S
N1557 C1550 1.356 . S
N1557 H1560 0.984 1_554 S
N1557 H1561 0.985 1_554 S
H1558 N1553 0.984 . S
H1559 N1553 0.985 . S
H1560 N1557 0.984 1_556 S
H1561 N1557 0.985 1_556 S
H1562 N1556 0.984 . S
H1563 N1556 0.984 . S
H1564 N1552 0.984 . S
H1565 N1552 0.985 . S
C1566 C1567 1.363 . S
C1566 C1572 1.379 . S
C1566 N1574 1.356 . S
C1567 C1566 1.363 . S
C1567 C1573 1.363 . S
C1568 C1569 1.363 . S
C1568 C1573 1.379 . S
C1568 N1575 1.356 . S
C1569 C1568 1.363 . S
C1569 C1572 1.363 . S
N1570 C1572 1.356 . S
N1570 H1582 0.984 . S
N1570 H1583 0.985 . S
N1571 C1573 1.356 . S
N1571 H1576 0.984 . S
N1571 H1577 0.985 . S
C1572 C1566 1.379 . S
C1572 C1569 1.363 . S
C1572 N1570 1.356 . S
C1573 C1567 1.363 . S
C1573 C1568 1.379 . S
C1573 N1571 1.356 . S
N1574 C1566 1.356 . S
N1574 H1580 0.984 . S
N1574 H1581 0.984 . S
N1575 C1568 1.356 . S
N1575 H1578 0.984 . S
N1575 H1579 0.985 . S
H1576 N1571 0.984 . S
H1577 N1571 0.985 . S
H1578 N1575 0.984 . S
H1579 N1575 0.985 . S
H1580 N1574 0.984 . S
H1581 N1574 0.984 . S
H1582 N1570 0.984 . S
H1583 N1570 0.985 . S
C1584 C1585 1.363 . S
C1584 C1590 1.379 . S
C1584 N1592 1.356 . S
C1585 C1584 1.363 . S
C1585 C1591 1.363 . S
C1586 C1587 1.363 . S
C1586 C1591 1.379 . S
C1586 N1593 1.356 . S
C1587 C1586 1.363 . S
C1587 C1590 1.363 . S
N1588 C1590 1.356 . S
N1588 H1600 0.984 . S
N1588 H1601 0.985 . S
N1589 C1591 1.356 . S
N1589 H1594 0.984 . S
N1589 H1595 0.985 . S
C1590 C1584 1.379 . S
C1590 C1587 1.363 . S
C1590 N1588 1.356 . S
C1591 C1585 1.363 . S
C1591 C1586 1.379 . S
C1591 N1589 1.356 . S
N1592 C1584 1.356 . S
N1592 H1598 0.984 . S
N1592 H1599 0.984 . S
N1593 C1586 1.356 . S
N1593 H1596 0.984 . S
N1593 H1597 0.985 . S
H1594 N1589 0.984 . S
H1595 N1589 0.985 . S
H1596 N1593 0.984 . S
H1597 N1593 0.985 . S
H1598 N1592 0.984 . S
H1599 N1592 0.984 . S
H1600 N1588 0.984 . S
H1601 N1588 0.985 . S
C1602 C1603 1.363 . S
C1602 C1608 1.379 . S
C1602 N1610 1.356 . S
C1603 C1602 1.363 . S
C1603 C1609 1.363 . S
C1604 C1605 1.363 . S
C1604 C1609 1.379 . S
C1604 N1611 1.356 . S
C1605 C1604 1.363 . S
C1605 C1608 1.363 . S
N1606 C1608 1.356 . S
N1606 H1618 0.984 1_554 S
N1606 H1619 0.985 1_554 S
N1607 C1609 1.356 . S
N1607 H1612 0.984 . S
N1607 H1613 0.985 . S
C1608 C1602 1.379 . S
C1608 C1605 1.363 . S
C1608 N1606 1.356 . S
C1609 C1603 1.363 . S
C1609 C1604 1.379 . S
C1609 N1607 1.356 . S
N1610 C1602 1.356 . S
N1610 H1616 0.984 . S
N1610 H1617 0.984 . S
N1611 C1604 1.356 . S
N1611 H1614 0.984 . S
N1611 H1615 0.985 . S
H1612 N1607 0.984 . S
H1613 N1607 0.985 . S
H1614 N1611 0.984 . S
H1615 N1611 0.985 . S
H1616 N1610 0.984 . S
H1617 N1610 0.984 . S
H1618 N1606 0.984 1_556 S
H1619 N1606 0.985 1_556 S
C1620 C1621 1.363 . S
C1620 C1626 1.379 1_556 S
C1620 N1628 1.356 . S
C1621 C1620 1.363 . S
C1621 C1627 1.363 1_565 S
C1622 C1623 1.363 . S
C1622 C1627 1.379 1_554 S
C1622 N1629 1.356 . S
C1623 C1622 1.363 . S
C1623 C1626 1.363 1_545 S
N1624 C1626 1.356 . S
N1624 H1636 0.984 . S
N1624 H1637 0.985 . S
N1625 C1627 1.356 . S
N1625 H1630 0.984 . S
N1625 H1631 0.985 . S
C1626 C1620 1.379 1_554 S
C1626 C1623 1.363 1_565 S
C1626 N1624 1.356 . S
C1627 C1621 1.363 1_545 S
C1627 C1622 1.379 1_556 S
C1627 N1625 1.356 . S
N1628 C1620 1.356 . S
N1628 H1634 0.989 . S
N1628 H1635 0.984 . S
N1629 C1622 1.356 . S
N1629 H1632 0.984 . S
N1629 H1633 0.990 . S
H1630 N1625 0.984 . S
H1631 N1625 0.985 . S
H1632 N1629 0.984 . S
H1633 N1629 0.990 . S
H1634 N1628 0.989 . S
H1635 N1628 0.984 . S
H1636 N1624 0.984 . S
H1637 N1624 0.985 . S
C1638 C1639 1.363 . S
C1638 C1644 1.379 1_554 S
C1638 N1646 1.356 . S
C1639 C1638 1.363 . S
C1639 C1645 1.363 1_655 S
C1640 C1641 1.363 . S
C1640 C1645 1.379 1_556 S
C1640 N1647 1.356 . S
C1641 C1640 1.363 . S
C1641 C1644 1.363 1_455 S
N1642 C1644 1.356 1_455 S
N1642 H1654 0.984 1_455 S
N1642 H1655 0.985 . S
N1643 C1645 1.356 1_655 S
N1643 H1648 0.984 . S
N1643 H1649 0.985 1_655 S
C1644 C1638 1.379 1_556 S
C1644 C1641 1.363 1_655 S
C1644 N1642 1.356 1_655 S
C1645 C1639 1.363 1_455 S
C1645 C1640 1.379 1_554 S
C1645 N1643 1.356 1_455 S
N1646 C1638 1.356 . S
N1646 H1652 0.984 . S
N1646 H1653 0.984 . S
N1647 C1640 1.356 . S
N1647 H1650 0.984 . S
N1647 H1651 0.985 . S
H1648 N1643 0.984 . S
H1649 N1643 0.985 1_455 S
H1650 N1647 0.984 . S
H1651 N1647 0.985 . S
H1652 N1646 0.984 . S
H1653 N1646 0.984 . S
H1654 N1642 0.984 1_655 S
H1655 N1642 0.985 . S
C1656 C1657 1.363 . S
C1656 C1662 1.379 1_556 S
C1656 N1664 1.356 . S
C1657 C1656 1.363 . S
C1657 C1663 1.363 . S
C1658 C1659 1.363 . S
C1658 C1663 1.379 1_554 S
C1658 N1665 1.356 . S
C1659 C1658 1.363 . S
C1659 C1662 1.363 . S
N1660 C1662 1.356 . S
N1660 H1672 0.984 . S
N1660 H1673 0.985 . S
N1661 C1663 1.356 . S
N1661 H1666 0.984 . S
N1661 H1667 0.985 . S
C1662 C1656 1.379 1_554 S
C1662 C1659 1.363 . S
C1662 N1660 1.356 . S
C1663 C1657 1.363 . S
C1663 C1658 1.379 1_556 S
C1663 N1661 1.356 . S
N1664 C1656 1.356 . S
N1664 H1670 0.984 . S
N1664 H1671 0.984 . S
N1665 C1658 1.356 . S
N1665 H1668 0.984 . S
N1665 H1669 0.985 . S
H1666 N1661 0.984 . S
H1667 N1661 0.985 . S
H1668 N1665 0.984 . S
H1669 N1665 0.985 . S
H1670 N1664 0.984 . S
H1671 N1664 0.984 . S
H1672 N1660 0.984 . S
H1673 N1660 0.985 . S
C1674 C1675 1.363 1_545 S
C1674 C1680 1.379 1_556 S
C1674 N1682 1.356 . S
C1675 C1674 1.363 1_565 S
C1675 C1681 1.363 . S
C1676 C1677 1.363 1_565 S
C1676 C1681 1.379 1_554 S
C1676 N1683 1.356 . S
C1677 C1676 1.363 1_545 S
C1677 C1680 1.363 . S
N1678 C1680 1.356 . S
N1678 H1690 0.984 . S
N1678 H1691 0.985 . S
N1679 C1681 1.356 . S
N1679 H1684 0.984 . S
N1679 H1685 0.985 . S
C1680 C1674 1.379 1_554 S
C1680 C1677 1.363 . S
C1680 N1678 1.356 . S
C1681 C1675 1.363 . S
C1681 C1676 1.379 1_556 S
C1681 N1679 1.356 . S
N1682 C1674 1.356 . S
N1682 H1688 0.984 . S
N1682 H1689 0.966 1_545 S
N1683 C1676 1.356 . S
N1683 H1686 0.966 1_565 S
N1683 H1687 0.985 . S
H1684 N1679 0.984 . S
H1685 N1679 0.985 . S
H1686 N1683 0.966 1_545 S
H1687 N1683 0.985 . S
H1688 N1682 0.984 . S
H1689 N1682 0.966 1_565 S
H1690 N1678 0.984 . S
H1691 N1678 0.985 . S
C1692 C1693 1.363 1_655 S
C1692 C1698 1.379 1_556 S
C1692 N1700 1.356 . S
C1693 C1692 1.363 1_455 S
C1693 C1699 1.363 . S
C1694 C1695 1.363 1_455 S
C1694 C1699 1.379 1_554 S
C1694 N1701 1.356 . S
C1695 C1694 1.363 1_655 S
C1695 C1698 1.363 . S
N1696 C1698 1.356 . S
N1696 H1708 0.984 . S
N1696 H1709 0.985 . S
N1697 C1699 1.356 . S
N1697 H1702 0.984 . S
N1697 H1703 0.985 . S
C1698 C1692 1.379 1_554 S
C1698 C1695 1.363 . S
C1698 N1696 1.356 . S
C1699 C1693 1.363 . S
C1699 C1694 1.379 1_556 S
C1699 N1697 1.356 . S
N1700 C1692 1.356 . S
N1700 H1706 0.984 . S
N1700 H1707 0.998 . S
N1701 C1694 1.356 . S
N1701 H1704 0.998 . S
N1701 H1705 0.985 . S
H1702 N1697 0.984 . S
H1703 N1697 0.985 . S
H1704 N1701 0.998 . S
H1705 N1701 0.985 . S
H1706 N1700 0.984 . S
H1707 N1700 0.998 . S
H1708 N1696 0.984 . S
H1709 N1696 0.985 . S
C1710 C1711 1.363 . S
C1710 C1716 1.379 1_554 S
C1710 N1718 1.356 . S
C1711 C1710 1.363 . S
C1711 C1717 1.363 . S
C1712 C1713 1.363 . S
C1712 C1717 1.379 1_556 S
C1712 N1719 1.356 . S
C1713 C1712 1.363 . S
C1713 C1716 1.363 . S
N1714 C1716 1.356 . S
N1714 H1726 0.984 . S
N1714 H1727 0.985 . S
N1715 C1717 1.356 . S
N1715 H1720 0.984 . S
N1715 H1721 0.985 . S
C1716 C1710 1.379 1_556 S
C1716 C1713 1.363 . S
C1716 N1714 1.356 . S
C1717 C1711 1.363 . S
C1717 C1712 1.379 1_554 S
C1717 N1715 1.356 . S
N1718 C1710 1.356 . S
N1718 H1724 0.984 1_554 S
N1718 H1725 0.984 . S
N1719 C1712 1.356 . S
N1719 H1722 0.984 . S
N1719 H1723 0.985 1_556 S
H1720 N1715 0.984 . S
H1721 N1715 0.985 . S
H1722 N1719 0.984 . S
H1723 N1719 0.985 1_554 S
H1724 N1718 0.984 1_556 S
H1725 N1718 0.984 . S
H1726 N1714 0.984 . S
H1727 N1714 0.985 . S
C1728 C1729 1.363 . S
C1728 C1734 1.379 . S
C1728 N1736 1.356 . S
C1729 C1728 1.363 . S
C1729 C1735 1.363 . S
C1730 C1731 1.363 . S
C1730 C1735 1.379 . S
C1730 N1737 1.356 . S
C1731 C1730 1.363 . S
C1731 C1734 1.363 . S
N1732 C1734 1.356 . S
N1732 H1744 0.984 . S
N1732 H1745 0.985 . S
N1733 C1735 1.356 . S
N1733 H1738 0.984 . S
N1733 H1739 0.985 . S
C1734 C1728 1.379 . S
C1734 C1731 1.363 . S
C1734 N1732 1.356 . S
C1735 C1729 1.363 . S
C1735 C1730 1.379 . S
C1735 N1733 1.356 . S
N1736 C1728 1.356 . S
N1736 H1742 0.984 . S
N1736 H1743 0.984 . S
N1737 C1730 1.356 . S
N1737 H1740 0.984 . S
N1737 H1741 0.985 . S
H1738 N1733 0.984 . S
H1739 N1733 0.985 . S
H1740 N1737 0.984 . S
H1741 N1737 0.985 . S
H1742 N1736 0.984 . S
H1743 N1736 0.984 . S
H1744 N1732 0.984 . S
H1745 N1732 0.985 . S
C1746 C1747 1.363 . S
C1746 C1752 1.379 . S
C1746 N1754 1.356 . S
C1747 C1746 1.363 . S
C1747 C1753 1.363 . S
C1748 C1749 1.363 . S
C1748 C1753 1.379 . S
C1748 N1755 1.356 . S
C1749 C1748 1.363 . S
C1749 C1752 1.363 . S
N1750 C1752 1.356 . S
N1750 H1762 0.984 . S
N1750 H1763 0.985 . S
N1751 C1753 1.356 . S
N1751 H1756 0.984 . S
N1751 H1757 0.985 . S
C1752 C1746 1.379 . S
C1752 C1749 1.363 . S
C1752 N1750 1.356 . S
C1753 C1747 1.363 . S
C1753 C1748 1.379 . S
C1753 N1751 1.356 . S
N1754 C1746 1.356 . S
N1754 H1760 0.984 . S
N1754 H1761 0.984 . S
N1755 C1748 1.356 . S
N1755 H1758 0.984 . S
N1755 H1759 0.985 . S
H1756 N1751 0.984 . S
H1757 N1751 0.985 . S
H1758 N1755 0.984 . S
H1759 N1755 0.985 . S
H1760 N1754 0.984 . S
H1761 N1754 0.984 . S
H1762 N1750 0.984 . S
H1763 N1750 0.985 . S
C1764 C1765 1.363 . S
C1764 C1770 1.379 . S
C1764 N1772 1.356 . S
C1765 C1764 1.363 . S
C1765 C1771 1.363 . S
C1766 C1767 1.363 . S
C1766 C1771 1.379 . S
C1766 N1773 1.356 . S
C1767 C1766 1.363 . S
C1767 C1770 1.363 . S
N1768 C1770 1.356 . S
N1768 H1780 0.984 . S
N1768 H1781 0.985 . S
N1769 C1771 1.356 . S
N1769 H1774 0.984 . S
N1769 H1775 0.985 . S
C1770 C1764 1.379 . S
C1770 C1767 1.363 . S
C1770 N1768 1.356 . S
C1771 C1765 1.363 . S
C1771 C1766 1.379 . S
C1771 N1769 1.356 . S
N1772 C1764 1.356 . S
N1772 H1778 0.984 . S
N1772 H1779 0.984 . S
N1773 C1766 1.356 . S
N1773 H1776 0.984 . S
N1773 H1777 0.985 . S
H1774 N1769 0.984 . S
H1775 N1769 0.985 . S
H1776 N1773 0.984 . S
H1777 N1773 0.985 . S
H1778 N1772 0.984 . S
H1779 N1772 0.984 . S
H1780 N1768 0.984 . S
H1781 N1768 0.985 . S
C1782 C1783 1.363 . S
C1782 C1788 1.379 . S
C1782 N1790 1.356 . S
C1783 C1782 1.363 . S
C1783 C1789 1.363 . S
C1784 C1785 1.363 . S
C1784 C1789 1.379 . S
C1784 N1791 1.356 . S
C1785 C1784 1.363 . S
C1785 C1788 1.363 . S
N1786 C1788 1.356 . S
N1786 H1798 0.984 . S
N1786 H1799 0.985 . S
N1787 C1789 1.356 . S
N1787 H1792 0.984 . S
N1787 H1793 0.985 . S
C1788 C1782 1.379 . S
C1788 C1785 1.363 . S
C1788 N1786 1.356 . S
C1789 C1783 1.363 . S
C1789 C1784 1.379 . S
C1789 N1787 1.356 . S
N1790 C1782 1.356 . S
N1790 H1796 0.984 . S
N1790 H1797 0.984 . S
N1791 C1784 1.356 . S
N1791 H1794 0.984 . S
N1791 H1795 0.985 . S
H1792 N1787 0.984 . S
H1793 N1787 0.985 . S
H1794 N1791 0.984 . S
H1795 N1791 0.985 . S
H1796 N1790 0.984 . S
H1797 N1790 0.984 . S
H1798 N1786 0.984 . S
H1799 N1786 0.985 . S
C1800 C1801 1.363 . S
C1800 C1806 1.379 . S
C1800 N1808 1.356 . S
C1801 C1800 1.363 . S
C1801 C1807 1.363 . S
C1802 C1803 1.363 . S
C1802 C1807 1.379 . S
C1802 N1809 1.356 . S
C1803 C1802 1.363 . S
C1803 C1806 1.363 . S
N1804 C1806 1.356 . S
N1804 H1816 0.984 . S
N1804 H1817 0.985 . S
N1805 C1807 1.356 . S
N1805 H1810 0.984 . S
N1805 H1811 0.985 . S
C1806 C1800 1.379 . S
C1806 C1803 1.363 . S
C1806 N1804 1.356 . S
C1807 C1801 1.363 . S
C1807 C1802 1.379 . S
C1807 N1805 1.356 . S
N1808 C1800 1.356 . S
N1808 H1814 0.984 . S
N1808 H1815 0.984 . S
N1809 C1802 1.356 . S
N1809 H1812 0.984 . S
N1809 H1813 0.985 . S
H1810 N1805 0.984 . S
H1811 N1805 0.985 . S
H1812 N1809 0.984 . S
H1813 N1809 0.985 . S
H1814 N1808 0.984 . S
H1815 N1808 0.984 . S
H1816 N1804 0.984 . S
H1817 N1804 0.985 . S
C1818 C1819 1.363 . S
C1818 C1824 1.379 . S
C1818 N1826 1.356 . S
C1819 C1818 1.363 . S
C1819 C1825 1.363 . S
C1820 C1821 1.363 . S
C1820 C1825 1.379 . S
C1820 N1827 1.356 . S
C1821 C1820 1.363 . S
C1821 C1824 1.363 . S
N1822 C1824 1.356 . S
N1822 H1834 0.984 . S
N1822 H1835 0.985 . S
N1823 C1825 1.356 . S
N1823 H1828 0.984 . S
N1823 H1829 0.985 . S
C1824 C1818 1.379 . S
C1824 C1821 1.363 . S
C1824 N1822 1.356 . S
C1825 C1819 1.363 . S
C1825 C1820 1.379 . S
C1825 N1823 1.356 . S
N1826 C1818 1.356 . S
N1826 H1832 0.984 . S
N1826 H1833 0.984 . S
N1827 C1820 1.356 . S
N1827 H1830 0.984 . S
N1827 H1831 0.985 . S
H1828 N1823 0.984 . S
H1829 N1823 0.985 . S
H1830 N1827 0.984 . S
H1831 N1827 0.985 . S
H1832 N1826 0.984 . S
H1833 N1826 0.984 . S
H1834 N1822 0.984 . S
H1835 N1822 0.985 . S
C1836 C1837 1.363 . S
C1836 C1842 1.379 . S
C1836 N1844 1.356 . S
C1837 C1836 1.363 . S
C1837 C1843 1.363 . S
C1838 C1839 1.363 . S
C1838 C1843 1.379 . S
C1838 N1845 1.356 . S
C1839 C1838 1.363 . S
C1839 C1842 1.363 . S
N1840 C1842 1.356 . S
N1840 H1852 0.984 . S
N1840 H1853 0.985 . S
N1841 C1843 1.356 . S
N1841 H1846 0.984 . S
N1841 H1847 0.985 . S
C1842 C1836 1.379 . S
C1842 C1839 1.363 . S
C1842 N1840 1.356 . S
C1843 C1837 1.363 . S
C1843 C1838 1.379 . S
C1843 N1841 1.356 . S
N1844 C1836 1.356 . S
N1844 H1850 0.984 . S
N1844 H1851 0.984 . S
N1845 C1838 1.356 . S
N1845 H1848 0.984 . S
N1845 H1849 0.985 . S
H1846 N1841 0.984 . S
H1847 N1841 0.985 . S
H1848 N1845 0.984 . S
H1849 N1845 0.985 . S
H1850 N1844 0.984 . S
H1851 N1844 0.984 . S
H1852 N1840 0.984 . S
H1853 N1840 0.985 . S
C1854 C1855 1.363 . S
C1854 C1860 1.379 . S
C1854 N1862 1.356 . S
C1855 C1854 1.363 . S
C1855 C1861 1.363 . S
C1856 C1857 1.363 . S
C1856 C1861 1.379 . S
C1856 N1863 1.356 . S
C1857 C1856 1.363 . S
C1857 C1860 1.363 . S
N1858 C1860 1.356 . S
N1858 H1870 0.984 . S
N1858 H1871 0.985 . S
N1859 C1861 1.356 . S
N1859 H1864 0.984 . S
N1859 H1865 0.985 . S
C1860 C1854 1.379 . S
C1860 C1857 1.363 . S
C1860 N1858 1.356 . S
C1861 C1855 1.363 . S
C1861 C1856 1.379 . S
C1861 N1859 1.356 . S
N1862 C1854 1.356 . S
N1862 H1868 0.984 . S
N1862 H1869 0.984 . S
N1863 C1856 1.356 . S
N1863 H1866 0.984 . S
N1863 H1867 0.985 . S
H1864 N1859 0.984 . S
H1865 N1859 0.985 . S
H1866 N1863 0.984 . S
H1867 N1863 0.985 . S
H1868 N1862 0.984 . S
H1869 N1862 0.984 . S
H1870 N1858 0.984 . S
H1871 N1858 0.985 . S
C1872 C1873 1.363 . S
C1872 C1878 1.379 . S
C1872 N1880 1.356 . S
C1873 C1872 1.363 . S
C1873 C1879 1.363 . S
C1874 C1875 1.363 . S
C1874 C1879 1.379 . S
C1874 N1881 1.356 . S
C1875 C1874 1.363 . S
C1875 C1878 1.363 . S
N1876 C1878 1.356 . S
N1876 H1888 0.984 . S
N1876 H1889 0.985 . S
N1877 C1879 1.356 . S
N1877 H1882 0.984 . S
N1877 H1883 0.985 . S
C1878 C1872 1.379 . S
C1878 C1875 1.363 . S
C1878 N1876 1.356 . S
C1879 C1873 1.363 . S
C1879 C1874 1.379 . S
C1879 N1877 1.356 . S
N1880 C1872 1.356 . S
N1880 H1886 0.984 . S
N1880 H1887 0.984 . S
N1881 C1874 1.356 . S
N1881 H1884 0.984 . S
N1881 H1885 0.985 . S
H1882 N1877 0.984 . S
H1883 N1877 0.985 . S
H1884 N1881 0.984 . S
H1885 N1881 0.985 . S
H1886 N1880 0.984 . S
H1887 N1880 0.984 . S
H1888 N1876 0.984 . S
H1889 N1876 0.985 . S
C1890 C1891 1.363 . S
C1890 C1896 1.379 . S
C1890 N1898 1.356 . S
C1891 C1890 1.363 . S
C1891 C1897 1.363 . S
C1892 C1893 1.363 . S
C1892 C1897 1.379 . S
C1892 N1899 1.356 . S
C1893 C1892 1.363 . S
C1893 C1896 1.363 . S
N1894 C1896 1.356 . S
N1894 H1906 0.984 . S
N1894 H1907 0.985 . S
N1895 C1897 1.356 . S
N1895 H1900 0.984 . S
N1895 H1901 0.985 . S
C1896 C1890 1.379 . S
C1896 C1893 1.363 . S
C1896 N1894 1.356 . S
C1897 C1891 1.363 . S
C1897 C1892 1.379 . S
C1897 N1895 1.356 . S
N1898 C1890 1.356 . S
N1898 H1904 0.984 . S
N1898 H1905 0.984 . S
N1899 C1892 1.356 . S
N1899 H1902 0.984 . S
N1899 H1903 0.985 . S
H1900 N1895 0.984 . S
H1901 N1895 0.985 . S
H1902 N1899 0.984 . S
H1903 N1899 0.985 . S
H1904 N1898 0.984 . S
H1905 N1898 0.984 . S
H1906 N1894 0.984 . S
H1907 N1894 0.985 . S
C1908 C1909 1.363 . S
C1908 C1914 1.379 . S
C1908 N1916 1.356 . S
C1909 C1908 1.363 . S
C1909 C1915 1.363 . S
C1910 C1911 1.363 . S
C1910 C1915 1.379 . S
C1910 N1917 1.356 . S
C1911 C1910 1.363 . S
C1911 C1914 1.363 . S
N1912 C1914 1.356 . S
N1912 H1924 0.984 . S
N1912 H1925 0.985 . S
N1913 C1915 1.356 . S
N1913 H1918 0.984 . S
N1913 H1919 0.985 . S
C1914 C1908 1.379 . S
C1914 C1911 1.363 . S
C1914 N1912 1.356 . S
C1915 C1909 1.363 . S
C1915 C1910 1.379 . S
C1915 N1913 1.356 . S
N1916 C1908 1.356 . S
N1916 H1922 0.984 . S
N1916 H1923 0.984 . S
N1917 C1910 1.356 . S
N1917 H1920 0.984 . S
N1917 H1921 0.985 . S
H1918 N1913 0.984 . S
H1919 N1913 0.985 . S
H1920 N1917 0.984 . S
H1921 N1917 0.985 . S
H1922 N1916 0.984 . S
H1923 N1916 0.984 . S
H1924 N1912 0.984 . S
H1925 N1912 0.985 . S
C1926 C1927 1.363 . S
C1926 C1932 1.379 . S
C1926 N1934 1.356 . S
C1927 C1926 1.363 . S
C1927 C1933 1.363 . S
C1928 C1929 1.363 . S
C1928 C1933 1.379 . S
C1928 N1935 1.356 . S
C1929 C1928 1.363 . S
C1929 C1932 1.363 . S
N1930 C1932 1.356 . S
N1930 H1942 0.984 . S
N1930 H1943 0.985 . S
N1931 C1933 1.356 . S
N1931 H1936 0.984 . S
N1931 H1937 0.985 . S
C1932 C1926 1.379 . S
C1932 C1929 1.363 . S
C1932 N1930 1.356 . S
C1933 C1927 1.363 . S
C1933 C1928 1.379 . S
C1933 N1931 1.356 . S
N1934 C1926 1.356 . S
N1934 H1940 0.984 . S
N1934 H1941 0.984 . S
N1935 C1928 1.356 . S
N1935 H1938 0.984 . S
N1935 H1939 0.985 . S
H1936 N1931 0.984 . S
H1937 N1931 0.985 . S
H1938 N1935 0.984 . S
H1939 N1935 0.985 . S
H1940 N1934 0.984 . S
H1941 N1934 0.984 . S
H1942 N1930 0.984 . S
H1943 N1930 0.985 . S
C1944 C1945 1.363 . S
C1944 C1950 1.379 . S
C1944 N1952 1.356 . S
C1945 C1944 1.363 . S
C1945 C1951 1.363 . S
C1946 C1947 1.363 . S
C1946 C1951 1.379 . S
C1946 N1953 1.356 . S
C1947 C1946 1.363 . S
C1947 C1950 1.363 . S
N1948 C1950 1.356 . S
N1948 H1960 0.984 . S
N1948 H1961 0.985 . S
N1949 C1951 1.356 . S
N1949 H1954 0.984 . S
N1949 H1955 0.985 . S
C1950 C1944 1.379 . S
C1950 C1947 1.363 . S
C1950 N1948 1.356 . S
C1951 C1945 1.363 . S
C1951 C1946 1.379 . S
C1951 N1949 1.356 . S
N1952 C1944 1.356 . S
N1952 H1958 0.984 . S
N1952 H1959 0.984 . S
N1953 C1946 1.356 . S
N1953 H1956 0.984 . S
N1953 H1957 0.985 . S
H1954 N1949 0.984 . S
H1955 N1949 0.985 . S
H1956 N1953 0.984 . S
H1957 N1953 0.985 . S
H1958 N1952 0.984 . S
H1959 N1952 0.984 . S
H1960 N1948 0.984 . S
H1961 N1948 0.985 . S
C1962 C1963 1.363 . S
C1962 C1968 1.379 . S
C1962 N1970 1.356 . S
C1963 C1962 1.363 . S
C1963 C1969 1.363 . S
C1964 C1965 1.363 . S
C1964 C1969 1.379 . S
C1964 N1971 1.356 . S
C1965 C1964 1.363 . S
C1965 C1968 1.363 . S
N1966 C1968 1.356 . S
N1966 H1978 0.984 . S
N1966 H1979 0.985 . S
N1967 C1969 1.356 . S
N1967 H1972 0.984 . S
N1967 H1973 0.985 . S
C1968 C1962 1.379 . S
C1968 C1965 1.363 . S
C1968 N1966 1.356 . S
C1969 C1963 1.363 . S
C1969 C1964 1.379 . S
C1969 N1967 1.356 . S
N1970 C1962 1.356 . S
N1970 H1976 0.984 . S
N1970 H1977 0.984 . S
N1971 C1964 1.356 . S
N1971 H1974 0.984 . S
N1971 H1975 0.985 . S
H1972 N1967 0.984 . S
H1973 N1967 0.985 . S
H1974 N1971 0.984 . S
H1975 N1971 0.985 . S
H1976 N1970 0.984 . S
H1977 N1970 0.984 . S
H1978 N1966 0.984 . S
H1979 N1966 0.985 . S
C1980 C1981 1.363 . S
C1980 C1986 1.379 . S
C1980 N1988 1.356 . S
C1981 C1980 1.363 . S
C1981 C1987 1.363 . S
C1982 C1983 1.363 . S
C1982 C1987 1.379 . S
C1982 N1989 1.356 . S
C1983 C1982 1.363 . S
C1983 C1986 1.363 . S
N1984 C1986 1.356 . S
N1984 H1996 0.984 . S
N1984 H1997 0.985 . S
N1985 C1987 1.356 . S
N1985 H1990 0.984 . S
N1985 H1991 0.985 . S
C1986 C1980 1.379 . S
C1986 C1983 1.363 . S
C1986 N1984 1.356 . S
C1987 C1981 1.363 . S
C1987 C1982 1.379 . S
C1987 N1985 1.356 . S
N1988 C1980 1.356 . S
N1988 H1994 0.984 1_554 S
N1988 H1995 0.984 . S
N1989 C1982 1.356 . S
N1989 H1992 0.984 . S
N1989 H1993 0.985 . S
H1990 N1985 0.984 . S
H1991 N1985 0.985 . S
H1992 N1989 0.984 . S
H1993 N1989 0.985 . S
H1994 N1988 0.984 1_556 S
H1995 N1988 0.984 . S
H1996 N1984 0.984 . S
H1997 N1984 0.985 . S
C1998 C1999 1.363 . S
C1998 C2004 1.379 . S
C1998 N2006 1.356 . S
C1999 C1998 1.363 . S
C1999 C2005 1.363 . S
C2000 C2001 1.363 . S
C2000 C2005 1.379 . S
C2000 N2007 1.356 . S
C2001 C2000 1.363 . S
C2001 C2004 1.363 . S
N2002 C2004 1.356 . S
N2002 H2014 0.984 1_556 S
N2002 H2015 0.985 . S
N2003 C2005 1.356 . S
N2003 H2008 0.984 . S
N2003 H2009 0.985 . S
C2004 C1998 1.379 . S
C2004 C2001 1.363 . S
C2004 N2002 1.356 . S
C2005 C1999 1.363 . S
C2005 C2000 1.379 . S
C2005 N2003 1.356 . S
N2006 C1998 1.356 . S
N2006 H2012 0.984 . S
N2006 H2013 0.984 . S
N2007 C2000 1.356 . S
N2007 H2010 0.984 . S
N2007 H2011 0.985 . S
H2008 N2003 0.984 . S
H2009 N2003 0.985 . S
H2010 N2007 0.984 . S
H2011 N2007 0.985 . S
H2012 N2006 0.984 . S
H2013 N2006 0.984 . S
H2014 N2002 0.984 1_554 S
H2015 N2002 0.985 . S
C2016 C2017 1.363 . S
C2016 C2022 1.379 . S
C2016 N2024 1.356 . S
C2017 C2016 1.363 . S
C2017 C2023 1.363 . S
C2018 C2019 1.363 . S
C2018 C2023 1.379 . S
C2018 N2025 1.356 . S
C2019 C2018 1.363 . S
C2019 C2022 1.363 . S
N2020 C2022 1.356 . S
N2020 H2032 0.984 . S
N2020 H2033 0.985 . S
N2021 C2023 1.356 . S
N2021 H2026 0.984 . S
N2021 H2027 0.985 . S
C2022 C2016 1.379 . S
C2022 C2019 1.363 . S
C2022 N2020 1.356 . S
C2023 C2017 1.363 . S
C2023 C2018 1.379 . S
C2023 N2021 1.356 . S
N2024 C2016 1.356 . S
N2024 H2030 0.984 . S
N2024 H2031 0.984 . S
N2025 C2018 1.356 . S
N2025 H2028 0.984 . S
N2025 H2029 0.985 . S
H2026 N2021 0.984 . S
H2027 N2021 0.985 . S
H2028 N2025 0.984 . S
H2029 N2025 0.985 . S
H2030 N2024 0.984 . S
H2031 N2024 0.984 . S
H2032 N2020 0.984 . S
H2033 N2020 0.985 . S
C2034 C2035 1.363 . S
C2034 C2040 1.379 . S
C2034 N2042 1.356 . S
C2035 C2034 1.363 . S
C2035 C2041 1.363 . S
C2036 C2037 1.363 . S
C2036 C2041 1.379 . S
C2036 N2043 1.356 . S
C2037 C2036 1.363 . S
C2037 C2040 1.363 . S
N2038 C2040 1.356 . S
N2038 H2050 0.984 . S
N2038 H2051 0.985 . S
N2039 C2041 1.356 . S
N2039 H2044 0.984 . S
N2039 H2045 0.985 . S
C2040 C2034 1.379 . S
C2040 C2037 1.363 . S
C2040 N2038 1.356 . S
C2041 C2035 1.363 . S
C2041 C2036 1.379 . S
C2041 N2039 1.356 . S
N2042 C2034 1.356 . S
N2042 H2048 0.984 . S
N2042 H2049 0.984 . S
N2043 C2036 1.356 . S
N2043 H2046 0.984 . S
N2043 H2047 0.985 . S
H2044 N2039 0.984 . S
H2045 N2039 0.985 . S
H2046 N2043 0.984 . S
H2047 N2043 0.985 . S
H2048 N2042 0.984 . S
H2049 N2042 0.984 . S
H2050 N2038 0.984 . S
H2051 N2038 0.985 . S
C2052 C2053 1.363 . S
C2052 C2058 1.379 . S
C2052 N2060 1.356 . S
C2053 C2052 1.363 . S
C2053 C2059 1.363 . S
C2054 C2055 1.363 . S
C2054 C2059 1.379 . S
C2054 N2061 1.356 . S
C2055 C2054 1.363 . S
C2055 C2058 1.363 . S
N2056 C2058 1.356 . S
N2056 H2068 0.984 . S
N2056 H2069 0.985 . S
N2057 C2059 1.356 . S
N2057 H2062 0.984 . S
N2057 H2063 0.985 . S
C2058 C2052 1.379 . S
C2058 C2055 1.363 . S
C2058 N2056 1.356 . S
C2059 C2053 1.363 . S
C2059 C2054 1.379 . S
C2059 N2057 1.356 . S
N2060 C2052 1.356 . S
N2060 H2066 0.984 . S
N2060 H2067 0.984 . S
N2061 C2054 1.356 . S
N2061 H2064 0.984 . S
N2061 H2065 0.985 . S
H2062 N2057 0.984 . S
H2063 N2057 0.985 . S
H2064 N2061 0.984 . S
H2065 N2061 0.985 . S
H2066 N2060 0.984 . S
H2067 N2060 0.984 . S
H2068 N2056 0.984 . S
H2069 N2056 0.985 . S
C2070 C2071 1.363 . S
C2070 C2076 1.379 . S
C2070 N2078 1.356 . S
C2071 C2070 1.363 . S
C2071 C2077 1.363 . S
C2072 C2073 1.363 . S
C2072 C2077 1.379 . S
C2072 N2079 1.356 . S
C2073 C2072 1.363 . S
C2073 C2076 1.363 . S
N2074 C2076 1.356 . S
N2074 H2086 0.984 . S
N2074 H2087 0.985 . S
N2075 C2077 1.356 . S
N2075 H2080 0.984 . S
N2075 H2081 0.985 . S
C2076 C2070 1.379 . S
C2076 C2073 1.363 . S
C2076 N2074 1.356 . S
C2077 C2071 1.363 . S
C2077 C2072 1.379 . S
C2077 N2075 1.356 . S
N2078 C2070 1.356 . S
N2078 H2084 0.984 . S
N2078 H2085 0.984 . S
N2079 C2072 1.356 . S
N2079 H2082 0.984 . S
N2079 H2083 0.985 . S
H2080 N2075 0.984 . S
H2081 N2075 0.985 . S
H2082 N2079 0.984 . S
H2083 N2079 0.985 . S
H2084 N2078 0.984 . S
H2085 N2078 0.984 . S
H2086 N2074 0.984 . S
H2087 N2074 0.985 . S
C2088 C2089 1.363 . S
C2088 C2094 1.379 . S
C2088 N2096 1.356 . S
C2089 C2088 1.363 . S
C2089 C2095 1.363 . S
C2090 C2091 1.363 . S
C2090 C2095 1.379 . S
C2090 N2097 1.356 . S
C2091 C2090 1.363 . S
C2091 C2094 1.363 . S
N2092 C2094 1.356 . S
N2092 H2104 0.984 1_556 S
N2092 H2105 0.985 . S
N2093 C2095 1.356 . S
N2093 H2098 0.984 . S
N2093 H2099 0.985 . S
C2094 C2088 1.379 . S
C2094 C2091 1.363 . S
C2094 N2092 1.356 . S
C2095 C2089 1.363 . S
C2095 C2090 1.379 . S
C2095 N2093 1.356 . S
N2096 C2088 1.356 . S
N2096 H2102 0.984 . S
N2096 H2103 0.984 . S
N2097 C2090 1.356 . S
N2097 H2100 0.984 . S
N2097 H2101 0.985 . S
H2098 N2093 0.984 . S
H2099 N2093 0.985 . S
H2100 N2097 0.984 . S
H2101 N2097 0.985 . S
H2102 N2096 0.984 . S
H2103 N2096 0.984 . S
H2104 N2092 0.984 1_554 S
H2105 N2092 0.985 . S
C2106 C2107 1.363 . S
C2106 C2112 1.379 . S
C2106 N2114 1.356 . S
C2107 C2106 1.363 . S
C2107 C2113 1.363 . S
C2108 C2109 1.363 . S
C2108 C2113 1.379 . S
C2108 N2115 1.356 . S
C2109 C2108 1.363 . S
C2109 C2112 1.363 . S
N2110 C2112 1.356 . S
N2110 H2122 0.984 . S
N2110 H2123 0.985 . S
N2111 C2113 1.356 . S
N2111 H2116 0.984 . S
N2111 H2117 0.985 . S
C2112 C2106 1.379 . S
C2112 C2109 1.363 . S
C2112 N2110 1.356 . S
C2113 C2107 1.363 . S
C2113 C2108 1.379 . S
C2113 N2111 1.356 . S
N2114 C2106 1.356 . S
N2114 H2120 0.984 . S
N2114 H2121 0.984 . S
N2115 C2108 1.356 . S
N2115 H2118 0.984 . S
N2115 H2119 0.985 . S
H2116 N2111 0.984 . S
H2117 N2111 0.985 . S
H2118 N2115 0.984 . S
H2119 N2115 0.985 . S
H2120 N2114 0.984 . S
H2121 N2114 0.984 . S
H2122 N2110 0.984 . S
H2123 N2110 0.985 . S
C2124 C2125 1.363 . S
C2124 C2130 1.379 . S
C2124 N2132 1.356 . S
C2125 C2124 1.363 . S
C2125 C2131 1.363 . S
C2126 C2127 1.363 . S
C2126 C2131 1.379 . S
C2126 N2133 1.356 . S
C2127 C2126 1.363 . S
C2127 C2130 1.363 . S
N2128 C2130 1.356 . S
N2128 H2140 0.984 . S
N2128 H2141 0.985 . S
N2129 C2131 1.356 . S
N2129 H2134 0.984 . S
N2129 H2135 0.985 . S
C2130 C2124 1.379 . S
C2130 C2127 1.363 . S
C2130 N2128 1.356 . S
C2131 C2125 1.363 . S
C2131 C2126 1.379 . S
C2131 N2129 1.356 . S
N2132 C2124 1.356 . S
N2132 H2138 0.984 . S
N2132 H2139 0.984 . S
N2133 C2126 1.356 . S
N2133 H2136 0.984 . S
N2133 H2137 0.985 . S
H2134 N2129 0.984 . S
H2135 N2129 0.985 . S
H2136 N2133 0.984 . S
H2137 N2133 0.985 . S
H2138 N2132 0.984 . S
H2139 N2132 0.984 . S
H2140 N2128 0.984 . S
H2141 N2128 0.985 . S
C2142 C2143 1.363 . S
C2142 C2148 1.379 . S
C2142 N2150 1.356 . S
C2143 C2142 1.363 . S
C2143 C2149 1.363 . S
C2144 C2145 1.363 . S
C2144 C2149 1.379 . S
C2144 N2151 1.356 . S
C2145 C2144 1.363 . S
C2145 C2148 1.363 . S
N2146 C2148 1.356 . S
N2146 H2158 0.984 . S
N2146 H2159 0.985 . S
N2147 C2149 1.356 . S
N2147 H2152 0.984 . S
N2147 H2153 0.985 . S
C2148 C2142 1.379 . S
C2148 C2145 1.363 . S
C2148 N2146 1.356 . S
C2149 C2143 1.363 . S
C2149 C2144 1.379 . S
C2149 N2147 1.356 . S
N2150 C2142 1.356 . S
N2150 H2156 0.984 . S
N2150 H2157 0.984 . S
N2151 C2144 1.356 . S
N2151 H2154 0.984 . S
N2151 H2155 0.985 . S
H2152 N2147 0.984 . S
H2153 N2147 0.985 . S
H2154 N2151 0.984 . S
H2155 N2151 0.985 . S
H2156 N2150 0.984 . S
H2157 N2150 0.984 . S
H2158 N2146 0.984 . S
H2159 N2146 0.985 . S
C2160 C2161 1.363 . S
C2160 C2166 1.379 1_455 S
C2160 N2168 1.356 . S
C2161 C2160 1.363 . S
C2161 C2167 1.363 . S
C2162 C2163 1.363 . S
C2162 C2167 1.379 1_655 S
C2162 N2169 1.356 . S
C2163 C2162 1.363 . S
C2163 C2166 1.363 . S
N2164 C2166 1.356 . S
N2164 H2176 0.984 . S
N2164 H2177 0.985 . S
N2165 C2167 1.356 . S
N2165 H2170 0.984 . S
N2165 H2171 0.985 . S
C2166 C2160 1.379 1_655 S
C2166 C2163 1.363 . S
C2166 N2164 1.356 . S
C2167 C2161 1.363 . S
C2167 C2162 1.379 1_455 S
C2167 N2165 1.356 . S
N2168 C2160 1.356 . S
N2168 H2174 0.984 . S
N2168 H2175 0.984 . S
N2169 C2162 1.356 . S
N2169 H2172 0.984 . S
N2169 H2173 0.985 . S
H2170 N2165 0.984 . S
H2171 N2165 0.985 . S
H2172 N2169 0.984 . S
H2173 N2169 0.985 . S
H2174 N2168 0.984 . S
H2175 N2168 0.984 . S
H2176 N2164 0.984 . S
H2177 N2164 0.985 . S
C2178 C2179 1.363 . S
C2178 C2184 1.379 . S
C2178 N2186 1.356 . S
C2179 C2178 1.363 . S
C2179 C2185 1.363 . S
C2180 C2181 1.363 . S
C2180 C2185 1.379 . S
C2180 N2187 1.356 . S
C2181 C2180 1.363 . S
C2181 C2184 1.363 . S
N2182 C2184 1.356 . S
N2182 H2194 0.984 . S
N2182 H2195 0.985 . S
N2183 C2185 1.356 . S
N2183 H2188 0.984 . S
N2183 H2189 0.985 . S
C2184 C2178 1.379 . S
C2184 C2181 1.363 . S
C2184 N2182 1.356 . S
C2185 C2179 1.363 . S
C2185 C2180 1.379 . S
C2185 N2183 1.356 . S
N2186 C2178 1.356 . S
N2186 H2192 0.984 . S
N2186 H2193 0.984 . S
N2187 C2180 1.356 . S
N2187 H2190 0.984 . S
N2187 H2191 0.985 . S
H2188 N2183 0.984 . S
H2189 N2183 0.985 . S
H2190 N2187 0.984 . S
H2191 N2187 0.985 . S
H2192 N2186 0.984 . S
H2193 N2186 0.984 . S
H2194 N2182 0.984 . S
H2195 N2182 0.985 . S
C2196 C2197 1.363 . S
C2196 C2202 1.379 1_545 S
C2196 N2204 1.356 . S
C2197 C2196 1.363 . S
C2197 C2203 1.363 . S
C2198 C2199 1.363 . S
C2198 C2203 1.379 1_565 S
C2198 N2205 1.356 . S
C2199 C2198 1.363 . S
C2199 C2202 1.363 . S
N2200 C2202 1.356 . S
N2200 H2212 0.984 . S
N2200 H2213 0.985 . S
N2201 C2203 1.356 . S
N2201 H2206 0.984 . S
N2201 H2207 0.985 . S
C2202 C2196 1.379 1_565 S
C2202 C2199 1.363 . S
C2202 N2200 1.356 . S
C2203 C2197 1.363 . S
C2203 C2198 1.379 1_545 S
C2203 N2201 1.356 . S
N2204 C2196 1.356 . S
N2204 H2210 0.984 . S
N2204 H2211 0.984 . S
N2205 C2198 1.356 . S
N2205 H2208 0.984 . S
N2205 H2209 0.985 . S
H2206 N2201 0.984 . S
H2207 N2201 0.985 . S
H2208 N2205 0.984 . S
H2209 N2205 0.985 . S
H2210 N2204 0.984 . S
H2211 N2204 0.984 . S
H2212 N2200 0.984 . S
H2213 N2200 0.985 . S
C2214 C2215 1.363 . S
C2214 C2220 1.379 1_545 S
C2214 N2222 1.356 . S
C2215 C2214 1.363 . S
C2215 C2221 1.363 . S
C2216 C2217 1.363 . S
C2216 C2221 1.379 1_565 S
C2216 N2223 1.356 . S
C2217 C2216 1.363 . S
C2217 C2220 1.363 . S
N2218 C2220 1.356 . S
N2218 H2230 0.984 . S
N2218 H2231 0.985 . S
N2219 C2221 1.356 . S
N2219 H2224 0.984 . S
N2219 H2225 0.985 . S
C2220 C2214 1.379 1_565 S
C2220 C2217 1.363 . S
C2220 N2218 1.356 . S
C2221 C2215 1.363 . S
C2221 C2216 1.379 1_545 S
C2221 N2219 1.356 . S
N2222 C2214 1.356 . S
N2222 H2228 0.984 . S
N2222 H2229 0.984 . S
N2223 C2216 1.356 . S
N2223 H2226 0.984 . S
N2223 H2227 0.985 . S
H2224 N2219 0.984 . S
H2225 N2219 0.985 . S
H2226 N2223 0.984 . S
H2227 N2223 0.985 . S
H2228 N2222 0.984 . S
H2229 N2222 0.984 . S
H2230 N2218 0.984 . S
H2231 N2218 0.985 . S
C2232 C2233 1.363 . S
C2232 C2238 1.379 1_655 S
C2232 N2240 1.356 . S
C2233 C2232 1.363 . S
C2233 C2239 1.363 . S
C2234 C2235 1.363 . S
C2234 C2239 1.379 1_455 S
C2234 N2241 1.356 . S
C2235 C2234 1.363 . S
C2235 C2238 1.363 . S
N2236 C2238 1.356 . S
N2236 H2248 0.984 . S
N2236 H2249 0.985 . S
N2237 C2239 1.356 . S
N2237 H2242 0.984 . S
N2237 H2243 0.985 . S
C2238 C2232 1.379 1_455 S
C2238 C2235 1.363 . S
C2238 N2236 1.356 . S
C2239 C2233 1.363 . S
C2239 C2234 1.379 1_655 S
C2239 N2237 1.356 . S
N2240 C2232 1.356 . S
N2240 H2246 0.984 . S
N2240 H2247 0.984 . S
N2241 C2234 1.356 . S
N2241 H2244 0.984 . S
N2241 H2245 0.985 . S
H2242 N2237 0.984 . S
H2243 N2237 0.985 . S
H2244 N2241 0.984 . S
H2245 N2241 0.985 . S
H2246 N2240 0.984 . S
H2247 N2240 0.984 . S
H2248 N2236 0.984 . S
H2249 N2236 0.985 . S
C2250 C2251 1.363 . S
C2250 C2256 1.379 . S
C2250 N2258 1.356 . S
C2251 C2250 1.363 . S
C2251 C2257 1.363 . S
C2252 C2253 1.363 . S
C2252 C2257 1.379 . S
C2252 N2259 1.356 . S
C2253 C2252 1.363 . S
C2253 C2256 1.363 . S
N2254 C2256 1.356 . S
N2254 H2266 0.984 . S
N2254 H2267 0.985 . S
N2255 C2257 1.356 . S
N2255 H2260 0.984 . S
N2255 H2261 0.985 . S
C2256 C2250 1.379 . S
C2256 C2253 1.363 . S
C2256 N2254 1.356 . S
C2257 C2251 1.363 . S
C2257 C2252 1.379 . S
C2257 N2255 1.356 . S
N2258 C2250 1.356 . S
N2258 H2264 0.984 . S
N2258 H2265 0.984 . S
N2259 C2252 1.356 . S
N2259 H2262 0.984 . S
N2259 H2263 0.985 . S
H2260 N2255 0.984 . S
H2261 N2255 0.985 . S
H2262 N2259 0.984 . S
H2263 N2259 0.985 . S
H2264 N2258 0.984 . S
H2265 N2258 0.984 . S
H2266 N2254 0.984 . S
H2267 N2254 0.985 . S
C2268 C2269 1.363 . S
C2268 C2274 1.379 . S
C2268 N2276 1.356 . S
C2269 C2268 1.363 . S
C2269 C2275 1.363 . S
C2270 C2271 1.363 . S
C2270 C2275 1.379 . S
C2270 N2277 1.356 . S
C2271 C2270 1.363 . S
C2271 C2274 1.363 . S
N2272 C2274 1.356 . S
N2272 H2284 0.984 . S
N2272 H2285 0.985 . S
N2273 C2275 1.356 . S
N2273 H2278 0.984 . S
N2273 H2279 0.985 . S
C2274 C2268 1.379 . S
C2274 C2271 1.363 . S
C2274 N2272 1.356 . S
C2275 C2269 1.363 . S
C2275 C2270 1.379 . S
C2275 N2273 1.356 . S
N2276 C2268 1.356 . S
N2276 H2282 0.984 . S
N2276 H2283 0.984 . S
N2277 C2270 1.356 . S
N2277 H2280 0.984 . S
N2277 H2281 0.985 . S
H2278 N2273 0.984 . S
H2279 N2273 0.985 . S
H2280 N2277 0.984 . S
H2281 N2277 0.985 . S
H2282 N2276 0.984 . S
H2283 N2276 0.984 . S
H2284 N2272 0.984 . S
H2285 N2272 0.985 . S
C2286 C2287 1.363 . S
C2286 C2292 1.379 . S
C2286 N2294 1.356 . S
C2287 C2286 1.363 . S
C2287 C2293 1.363 . S
C2288 C2289 1.363 . S
C2288 C2293 1.379 . S
C2288 N2295 1.356 . S
C2289 C2288 1.363 . S
C2289 C2292 1.363 . S
N2290 C2292 1.356 . S
N2290 H2302 0.984 . S
N2290 H2303 0.985 . S
N2291 C2293 1.356 . S
N2291 H2296 0.984 . S
N2291 H2297 0.985 . S
C2292 C2286 1.379 . S
C2292 C2289 1.363 . S
C2292 N2290 1.356 . S
C2293 C2287 1.363 . S
C2293 C2288 1.379 . S
C2293 N2291 1.356 . S
N2294 C2286 1.356 . S
N2294 H2300 0.984 . S
N2294 H2301 0.984 . S
N2295 C2288 1.356 . S
N2295 H2298 0.984 . S
N2295 H2299 0.985 . S
H2296 N2291 0.984 . S
H2297 N2291 0.985 . S
H2298 N2295 0.984 . S
H2299 N2295 0.985 . S
H2300 N2294 0.984 . S
H2301 N2294 0.984 . S
H2302 N2290 0.984 . S
H2303 N2290 0.985 . S
C2304 C2305 1.363 . S
C2304 C2310 1.379 . S
C2304 N2312 1.356 . S
C2305 C2304 1.363 . S
C2305 C2311 1.363 . S
C2306 C2307 1.363 . S
C2306 C2311 1.379 . S
C2306 N2313 1.356 . S
C2307 C2306 1.363 . S
C2307 C2310 1.363 . S
N2308 C2310 1.356 . S
N2308 H2320 0.984 . S
N2308 H2321 0.985 . S
N2309 C2311 1.356 . S
N2309 H2314 0.984 . S
N2309 H2315 0.985 . S
C2310 C2304 1.379 . S
C2310 C2307 1.363 . S
C2310 N2308 1.356 . S
C2311 C2305 1.363 . S
C2311 C2306 1.379 . S
C2311 N2309 1.356 . S
N2312 C2304 1.356 . S
N2312 H2318 0.984 . S
N2312 H2319 0.984 . S
N2313 C2306 1.356 . S
N2313 H2316 0.984 . S
N2313 H2317 0.985 . S
H2314 N2309 0.984 . S
H2315 N2309 0.985 . S
H2316 N2313 0.984 . S
H2317 N2313 0.985 . S
H2318 N2312 0.984 . S
H2319 N2312 0.984 . S
H2320 N2308 0.984 . S
H2321 N2308 0.985 . S
C2322 C2323 1.363 . S
C2322 C2328 1.379 . S
C2322 N2330 1.356 . S
C2323 C2322 1.363 . S
C2323 C2329 1.363 . S
C2324 C2325 1.363 . S
C2324 C2329 1.379 . S
C2324 N2331 1.356 . S
C2325 C2324 1.363 . S
C2325 C2328 1.363 . S
N2326 C2328 1.356 . S
N2326 H2338 0.984 . S
N2326 H2339 0.985 . S
N2327 C2329 1.356 . S
N2327 H2332 0.984 . S
N2327 H2333 0.985 . S
C2328 C2322 1.379 . S
C2328 C2325 1.363 . S
C2328 N2326 1.356 . S
C2329 C2323 1.363 . S
C2329 C2324 1.379 . S
C2329 N2327 1.356 . S
N2330 C2322 1.356 . S
N2330 H2336 0.984 . S
N2330 H2337 0.984 . S
N2331 C2324 1.356 . S
N2331 H2334 0.984 . S
N2331 H2335 0.985 . S
H2332 N2327 0.984 . S
H2333 N2327 0.985 . S
H2334 N2331 0.984 . S
H2335 N2331 0.985 . S
H2336 N2330 0.984 . S
H2337 N2330 0.984 . S
H2338 N2326 0.984 . S
H2339 N2326 0.985 . S
C2340 C2341 1.363 . S
C2340 C2346 1.379 . S
C2340 N2348 1.356 . S
C2341 C2340 1.363 . S
C2341 C2347 1.363 . S
C2342 C2343 1.363 . S
C2342 C2347 1.379 . S
C2342 N2349 1.356 . S
C2343 C2342 1.363 . S
C2343 C2346 1.363 . S
N2344 C2346 1.356 . S
N2344 H2356 0.984 . S
N2344 H2357 0.985 . S
N2345 C2347 1.356 . S
N2345 H2350 0.984 . S
N2345 H2351 0.985 . S
C2346 C2340 1.379 . S
C2346 C2343 1.363 . S
C2346 N2344 1.356 . S
C2347 C2341 1.363 . S
C2347 C2342 1.379 . S
C2347 N2345 1.356 . S
N2348 C2340 1.356 . S
N2348 H2354 0.984 . S
N2348 H2355 0.984 . S
N2349 C2342 1.356 . S
N2349 H2352 0.984 . S
N2349 H2353 0.985 . S
H2350 N2345 0.984 . S
H2351 N2345 0.985 . S
H2352 N2349 0.984 . S
H2353 N2349 0.985 . S
H2354 N2348 0.984 . S
H2355 N2348 0.984 . S
H2356 N2344 0.984 . S
H2357 N2344 0.985 . S
C2358 C2359 1.363 . S
C2358 C2364 1.379 . S
C2358 N2366 1.356 . S
C2359 C2358 1.363 . S
C2359 C2365 1.363 . S
C2360 C2361 1.363 . S
C2360 C2365 1.379 . S
C2360 N2367 1.356 . S
C2361 C2360 1.363 . S
C2361 C2364 1.363 . S
N2362 C2364 1.356 . S
N2362 H2374 0.984 . S
N2362 H2375 0.985 . S
N2363 C2365 1.356 . S
N2363 H2368 0.984 . S
N2363 H2369 0.985 . S
C2364 C2358 1.379 . S
C2364 C2361 1.363 . S
C2364 N2362 1.356 . S
C2365 C2359 1.363 . S
C2365 C2360 1.379 . S
C2365 N2363 1.356 . S
N2366 C2358 1.356 . S
N2366 H2372 0.984 . S
N2366 H2373 0.984 . S
N2367 C2360 1.356 . S
N2367 H2370 0.984 . S
N2367 H2371 0.985 . S
H2368 N2363 0.984 . S
H2369 N2363 0.985 . S
H2370 N2367 0.984 . S
H2371 N2367 0.985 . S
H2372 N2366 0.984 . S
H2373 N2366 0.984 . S
H2374 N2362 0.984 . S
H2375 N2362 0.985 . S
C2376 C2377 1.363 . S
C2376 C2382 1.379 . S
C2376 N2384 1.356 . S
C2377 C2376 1.363 . S
C2377 C2383 1.363 . S
C2378 C2379 1.363 . S
C2378 C2383 1.379 . S
C2378 N2385 1.356 . S
C2379 C2378 1.363 . S
C2379 C2382 1.363 . S
N2380 C2382 1.356 . S
N2380 H2392 0.984 . S
N2380 H2393 0.985 . S
N2381 C2383 1.356 . S
N2381 H2386 0.984 . S
N2381 H2387 0.985 . S
C2382 C2376 1.379 . S
C2382 C2379 1.363 . S
C2382 N2380 1.356 . S
C2383 C2377 1.363 . S
C2383 C2378 1.379 . S
C2383 N2381 1.356 . S
N2384 C2376 1.356 . S
N2384 H2390 0.984 . S
N2384 H2391 0.984 . S
N2385 C2378 1.356 . S
N2385 H2388 0.984 . S
N2385 H2389 0.985 . S
H2386 N2381 0.984 . S
H2387 N2381 0.985 . S
H2388 N2385 0.984 . S
H2389 N2385 0.985 . S
H2390 N2384 0.984 . S
H2391 N2384 0.984 . S
H2392 N2380 0.984 . S
H2393 N2380 0.985 . S
C2394 C2395 1.363 . S
C2394 C2400 1.379 . S
C2394 N2402 1.356 . S
C2395 C2394 1.363 . S
C2395 C2401 1.363 . S
C2396 C2397 1.363 . S
C2396 C2401 1.379 . S
C2396 N2403 1.356 . S
C2397 C2396 1.363 . S
C2397 C2400 1.363 . S
N2398 C2400 1.356 . S
N2398 H2410 0.984 . S
N2398 H2411 0.985 . S
N2399 C2401 1.356 . S
N2399 H2404 0.984 . S
N2399 H2405 0.985 . S
C2400 C2394 1.379 . S
C2400 C2397 1.363 . S
C2400 N2398 1.356 . S
C2401 C2395 1.363 . S
C2401 C2396 1.379 . S
C2401 N2399 1.356 . S
N2402 C2394 1.356 . S
N2402 H2408 0.984 . S
N2402 H2409 0.984 . S
N2403 C2396 1.356 . S
N2403 H2406 0.984 . S
N2403 H2407 0.985 . S
H2404 N2399 0.984 . S
H2405 N2399 0.985 . S
H2406 N2403 0.984 . S
H2407 N2403 0.985 . S
H2408 N2402 0.984 . S
H2409 N2402 0.984 . S
H2410 N2398 0.984 . S
H2411 N2398 0.985 . S
C2412 C2413 1.363 . S
C2412 C2418 1.379 . S
C2412 N2420 1.356 . S
C2413 C2412 1.363 . S
C2413 C2419 1.363 . S
C2414 C2415 1.363 . S
C2414 C2419 1.379 . S
C2414 N2421 1.356 . S
C2415 C2414 1.363 . S
C2415 C2418 1.363 . S
N2416 C2418 1.356 . S
N2416 H2428 0.984 . S
N2416 H2429 0.985 . S
N2417 C2419 1.356 . S
N2417 H2422 0.984 . S
N2417 H2423 0.985 . S
C2418 C2412 1.379 . S
C2418 C2415 1.363 . S
C2418 N2416 1.356 . S
C2419 C2413 1.363 . S
C2419 C2414 1.379 . S
C2419 N2417 1.356 . S
N2420 C2412 1.356 . S
N2420 H2426 0.984 . S
N2420 H2427 0.984 . S
N2421 C2414 1.356 . S
N2421 H2424 0.984 . S
N2421 H2425 0.985 . S
H2422 N2417 0.984 . S
H2423 N2417 0.985 . S
H2424 N2421 0.984 . S
H2425 N2421 0.985 . S
H2426 N2420 0.984 . S
H2427 N2420 0.984 . S
H2428 N2416 0.984 . S
H2429 N2416 0.985 . S
C2430 C2431 1.363 . S
C2430 C2436 1.379 . S
C2430 N2438 1.356 . S
C2431 C2430 1.363 . S
C2431 C2437 1.363 . S
C2432 C2433 1.363 . S
C2432 C2437 1.379 . S
C2432 N2439 1.356 . S
C2433 C2432 1.363 . S
C2433 C2436 1.363 . S
N2434 C2436 1.356 . S
N2434 H2446 0.984 1_554 S
N2434 H2447 0.985 . S
N2435 C2437 1.356 . S
N2435 H2440 0.984 . S
N2435 H2441 0.985 . S
C2436 C2430 1.379 . S
C2436 C2433 1.363 . S
C2436 N2434 1.356 . S
C2437 C2431 1.363 . S
C2437 C2432 1.379 . S
C2437 N2435 1.356 . S
N2438 C2430 1.356 . S
N2438 H2444 0.984 1_554 S
N2438 H2445 0.984 . S
N2439 C2432 1.356 . S
N2439 H2442 0.984 . S
N2439 H2443 0.985 . S
H2440 N2435 0.984 . S
H2441 N2435 0.985 . S
H2442 N2439 0.984 . S
H2443 N2439 0.985 . S
H2444 N2438 0.984 1_556 S
H2445 N2438 0.984 . S
H2446 N2434 0.984 1_556 S
H2447 N2434 0.985 . S
C2448 C2449 1.363 1_556 S
C2448 C2454 1.379 . S
C2448 N2456 1.356 . S
C2449 C2448 1.363 1_554 S
C2449 C2455 1.363 . S
C2450 C2451 1.363 . S
C2450 C2455 1.379 . S
C2450 N2457 1.356 . S
C2451 C2450 1.363 . S
C2451 C2454 1.363 1_554 S
N2452 C2454 1.356 . S
N2452 H2464 0.984 . S
N2452 H2465 0.985 . S
N2453 C2455 1.356 . S
N2453 H2458 0.984 . S
N2453 H2459 0.985 . S
C2454 C2448 1.379 . S
C2454 C2451 1.363 1_556 S
C2454 N2452 1.356 . S
C2455 C2449 1.363 . S
C2455 C2450 1.379 . S
C2455 N2453 1.356 . S
N2456 C2448 1.356 . S
N2456 H2462 0.984 . S
N2456 H2463 0.984 . S
N2457 C2450 1.356 . S
N2457 H2460 0.984 . S
N2457 H2461 0.985 . S
H2458 N2453 0.984 . S
H2459 N2453 0.985 . S
H2460 N2457 0.984 . S
H2461 N2457 0.985 . S
H2462 N2456 0.984 . S
H2463 N2456 0.984 . S
H2464 N2452 0.984 . S
H2465 N2452 0.985 . S
C2466 C2467 1.363 1_556 S
C2466 C2472 1.379 . S
C2466 N2474 1.356 . S
C2467 C2466 1.363 1_554 S
C2467 C2473 1.363 . S
C2468 C2469 1.363 . S
C2468 C2473 1.379 . S
C2468 N2475 1.356 . S
C2469 C2468 1.363 . S
C2469 C2472 1.363 1_554 S
N2470 C2472 1.356 . S
N2470 H2482 0.984 . S
N2470 H2483 0.985 . S
N2471 C2473 1.356 . S
N2471 H2476 0.984 . S
N2471 H2477 0.985 . S
C2472 C2466 1.379 . S
C2472 C2469 1.363 1_556 S
C2472 N2470 1.356 . S
C2473 C2467 1.363 . S
C2473 C2468 1.379 . S
C2473 N2471 1.356 . S
N2474 C2466 1.356 . S
N2474 H2480 0.984 . S
N2474 H2481 0.984 . S
N2475 C2468 1.356 . S
N2475 H2478 0.984 . S
N2475 H2479 0.985 . S
H2476 N2471 0.984 . S
H2477 N2471 0.985 . S
H2478 N2475 0.984 . S
H2479 N2475 0.985 . S
H2480 N2474 0.984 . S
H2481 N2474 0.984 . S
H2482 N2470 0.984 . S
H2483 N2470 0.985 . S
C2484 C2485 1.363 . S
C2484 C2490 1.379 . S
C2484 N2492 1.356 . S
C2485 C2484 1.363 . S
C2485 C2491 1.363 1_556 S
C2486 C2487 1.363 1_554 S
C2486 C2491 1.379 . S
C2486 N2493 1.356 . S
C2487 C2486 1.363 1_556 S
C2487 C2490 1.363 . S
N2488 C2490 1.356 . S
N2488 H2500 0.984 . S
N2488 H2501 0.985 . S
N2489 C2491 1.356 . S
N2489 H2494 0.984 . S
N2489 H2495 0.985 . S
C2490 C2484 1.379 . S
C2490 C2487 1.363 . S
C2490 N2488 1.356 . S
C2491 C2485 1.363 1_554 S
C2491 C2486 1.379 . S
C2491 N2489 1.356 . S
N2492 C2484 1.356 . S
N2492 H2498 0.984 . S
N2492 H2499 0.984 . S
N2493 C2486 1.356 . S
N2493 H2496 0.984 . S
N2493 H2497 0.985 . S
H2494 N2489 0.984 . S
H2495 N2489 0.985 . S
H2496 N2493 0.984 . S
H2497 N2493 0.985 . S
H2498 N2492 0.984 . S
H2499 N2492 0.984 . S
H2500 N2488 0.984 . S
H2501 N2488 0.985 . S
C2502 C2503 1.363 . S
C2502 C2508 1.379 . S
C2502 N2510 1.356 . S
C2503 C2502 1.363 . S
C2503 C2509 1.363 1_556 S
C2504 C2505 1.363 1_554 S
C2504 C2509 1.379 . S
C2504 N2511 1.356 . S
C2505 C2504 1.363 1_556 S
C2505 C2508 1.363 . S
N2506 C2508 1.356 . S
N2506 H2518 0.984 . S
N2506 H2519 0.985 . S
N2507 C2509 1.356 . S
N2507 H2512 0.984 . S
N2507 H2513 0.985 . S
C2508 C2502 1.379 . S
C2508 C2505 1.363 . S
C2508 N2506 1.356 . S
C2509 C2503 1.363 1_554 S
C2509 C2504 1.379 . S
C2509 N2507 1.356 . S
N2510 C2502 1.356 . S
N2510 H2516 0.984 . S
N2510 H2517 0.984 . S
N2511 C2504 1.356 . S
N2511 H2514 0.984 . S
N2511 H2515 0.985 . S
H2512 N2507 0.984 . S
H2513 N2507 0.985 . S
H2514 N2511 0.984 . S
H2515 N2511 0.985 . S
H2516 N2510 0.984 . S
H2517 N2510 0.984 . S
H2518 N2506 0.984 . S
H2519 N2506 0.985 . S
C2520 C2521 1.363 . S
C2520 C2526 1.379 . S
C2520 N2528 1.359 . S
C2521 C2520 1.363 . S
C2521 C2527 1.363 . S
C2522 C2523 1.363 . S
C2522 C2527 1.379 . S
C2522 N2529 1.356 . S
C2523 C2522 1.363 . S
C2523 C2526 1.363 . S
N2524 C2526 1.359 . S
N2524 H2536 0.980 1_556 S
N2524 H2537 0.986 . S
N2525 C2527 1.356 . S
N2525 H2530 0.984 . S
N2525 H2531 0.985 . S
C2526 C2520 1.379 . S
C2526 C2523 1.363 . S
C2526 N2524 1.359 . S
C2527 C2521 1.363 . S
C2527 C2522 1.379 . S
C2527 N2525 1.356 . S
N2528 C2520 1.359 . S
N2528 H2534 0.980 1_556 S
N2528 H2535 0.986 . S
N2529 C2522 1.356 . S
N2529 H2532 0.984 . S
N2529 H2533 0.985 . S
H2530 N2525 0.984 . S
H2531 N2525 0.985 . S
H2532 N2529 0.984 . S
H2533 N2529 0.985 . S
H2534 N2528 0.980 1_554 S
H2535 N2528 0.986 . S
H2536 N2524 0.980 1_554 S
H2537 N2524 0.986 . S
C2538 C2539 1.363 . S
C2538 C2544 1.379 . S
C2538 N2546 1.356 . S
C2539 C2538 1.363 . S
C2539 C2545 1.363 . S
C2540 C2541 1.363 . S
C2540 C2545 1.379 . S
C2540 N2547 1.356 . S
C2541 C2540 1.363 . S
C2541 C2544 1.363 . S
N2542 C2544 1.356 . S
N2542 H2554 0.984 . S
N2542 H2555 0.985 . S
N2543 C2545 1.356 . S
N2543 H2548 0.984 . S
N2543 H2549 0.985 . S
C2544 C2538 1.379 . S
C2544 C2541 1.363 . S
C2544 N2542 1.356 . S
C2545 C2539 1.363 . S
C2545 C2540 1.379 . S
C2545 N2543 1.356 . S
N2546 C2538 1.356 . S
N2546 H2552 0.984 . S
N2546 H2553 0.984 . S
N2547 C2540 1.356 . S
N2547 H2550 0.984 . S
N2547 H2551 0.985 . S
H2548 N2543 0.984 . S
H2549 N2543 0.985 . S
H2550 N2547 0.984 . S
H2551 N2547 0.985 . S
H2552 N2546 0.984 . S
H2553 N2546 0.984 . S
H2554 N2542 0.984 . S
H2555 N2542 0.985 . S
C2556 C2557 1.363 . S
C2556 C2562 1.379 . S
C2556 N2564 1.356 . S
C2557 C2556 1.363 . S
C2557 C2563 1.363 . S
C2558 C2559 1.363 . S
C2558 C2563 1.379 . S
C2558 N2565 1.356 . S
C2559 C2558 1.363 . S
C2559 C2562 1.363 . S
N2560 C2562 1.356 . S
N2560 H2572 0.984 . S
N2560 H2573 0.985 . S
N2561 C2563 1.356 . S
N2561 H2566 0.984 . S
N2561 H2567 0.985 . S
C2562 C2556 1.379 . S
C2562 C2559 1.363 . S
C2562 N2560 1.356 . S
C2563 C2557 1.363 . S
C2563 C2558 1.379 . S
C2563 N2561 1.356 . S
N2564 C2556 1.356 . S
N2564 H2570 0.984 . S
N2564 H2571 0.984 . S
N2565 C2558 1.356 . S
N2565 H2568 0.984 . S
N2565 H2569 0.985 . S
H2566 N2561 0.984 . S
H2567 N2561 0.985 . S
H2568 N2565 0.984 . S
H2569 N2565 0.985 . S
H2570 N2564 0.984 . S
H2571 N2564 0.984 . S
H2572 N2560 0.984 . S
H2573 N2560 0.985 . S
C2574 C2575 1.363 . S
C2574 C2580 1.379 . S
C2574 N2582 1.356 . S
C2575 C2574 1.363 . S
C2575 C2581 1.363 . S
C2576 C2577 1.363 . S
C2576 C2581 1.379 . S
C2576 N2583 1.356 . S
C2577 C2576 1.363 . S
C2577 C2580 1.363 . S
N2578 C2580 1.356 . S
N2578 H2590 0.984 . S
N2578 H2591 0.985 . S
N2579 C2581 1.356 . S
N2579 H2584 0.984 . S
N2579 H2585 0.985 . S
C2580 C2574 1.379 . S
C2580 C2577 1.363 . S
C2580 N2578 1.356 . S
C2581 C2575 1.363 . S
C2581 C2576 1.379 . S
C2581 N2579 1.356 . S
N2582 C2574 1.356 . S
N2582 H2588 0.984 . S
N2582 H2589 0.984 . S
N2583 C2576 1.356 . S
N2583 H2586 0.984 . S
N2583 H2587 0.985 . S
H2584 N2579 0.984 . S
H2585 N2579 0.985 . S
H2586 N2583 0.984 . S
H2587 N2583 0.985 . S
H2588 N2582 0.984 . S
H2589 N2582 0.984 . S
H2590 N2578 0.984 . S
H2591 N2578 0.985 . S
C1297 C194 1.493 . S
C1299 C14 1.493 . S
C1315 C122 1.493 . S
C1317 C50 1.493 . S
C1333 C86 1.493 . S
C1335 C158 1.493 . S
C1351 C230 1.493 . S
C1353 C410 1.493 . S
C1369 C266 1.493 . S
C1371 C338 1.493 . S
C1387 C374 1.493 . S
C1389 C302 1.493 . S
C1405 C446 1.493 . S
C1407 C626 1.493 . S
C1423 C482 1.493 . S
C1425 C554 1.493 . S
C1441 C518 1.493 . S
C1443 C590 1.493 . S
C1459 C842 1.493 . S
C1461 C662 1.493 . S
C1477 C698 1.493 . S
C1479 C770 1.493 . S
C1495 C806 1.493 . S
C1497 C734 1.493 . S
C1513 C1058 1.493 . S
C1515 C878 1.493 . S
C1531 C986 1.493 . S
C1533 C914 1.493 . S
C1549 C1022 1.493 . S
C1551 C950 1.493 . S
C1567 C1094 1.493 . S
C1569 C1274 1.493 . S
C1585 C1130 1.493 . S
C1587 C1202 1.493 . S
C1603 C1166 1.493 . S
C1605 C1238 1.493 . S
C1621 C184 1.339 . S
C1623 C4 1.339 . S
C1639 C40 1.339 . S
C1641 C112 1.339 . S
C1657 C148 1.339 . S
C1659 C76 1.339 . S
C1675 C220 1.339 . S
C1677 C400 1.339 . S
C1693 C256 1.339 . S
C1695 C328 1.339 . S
C1711 C364 1.339 . S
C1713 C292 1.339 . S
C1729 C436 1.339 . S
C1731 C616 1.339 . S
C1747 C544 1.339 . S
C1749 C472 1.339 . S
C1765 C580 1.339 . S
C1767 C508 1.339 . S
C1783 C652 1.339 . S
C1785 C832 1.339 . S
C1801 C688 1.339 . S
C1803 C760 1.339 . S
C1819 C796 1.339 . S
C1821 C724 1.339 . S
C1837 C1048 1.339 . S
C1839 C868 1.339 . S
C1855 C904 1.339 . S
C1857 C976 1.339 . S
C1873 C940 1.339 . S
C1875 C1012 1.339 . S
C1891 C1264 1.339 . S
C1893 C1084 1.339 . S
C1909 C1192 1.339 . S
C1911 C1120 1.339 . S
C1927 C1228 1.339 . S
C1929 C1156 1.339 . S
C1945 C578 1.557 . S
C1947 C2 1.557 . S
C1963 C614 1.557 . S
C1965 C38 1.557 . S
C1981 C542 1.557 . S
C1983 C74 1.557 . S
C1999 C110 1.557 . S
C2001 C938 1.557 . S
C2017 C146 1.557 . S
C2019 C866 1.557 . S
C2035 C182 1.557 . S
C2037 C902 1.557 . S
C2053 C218 1.557 . S
C2055 C1226 1.557 . S
C2071 C254 1.557 . S
C2073 C1262 1.557 . S
C2089 C290 1.557 . S
C2091 C1190 1.557 . S
C2107 C326 1.557 . S
C2109 C722 1.557 . S
C2125 C650 1.557 . S
C2127 C362 1.557 . S
C2143 C686 1.557 . S
C2145 C398 1.557 . S
C2161 C1010 1.557 . S
C2163 C434 1.557 . S
C2179 C470 1.557 . S
C2181 C1046 1.557 . S
C2197 C506 1.557 . S
C2199 C974 1.557 . S
C2215 C758 1.557 . S
C2217 C1154 1.557 . S
C2233 C794 1.557 . S
C2235 C1082 1.557 . S
C2251 C1118 1.557 . S
C2253 C830 1.557 . S
C2269 C3 1.450 . S
C2271 C363 1.450 . S
C2287 C399 1.451 . S
C2289 C39 1.451 . S
C2305 C327 1.451 . S
C2307 C75 1.451 . S
C2323 C111 1.451 . S
C2325 C291 1.451 . S
C2341 C147 1.451 . S
C2343 C219 1.450 . S
C2359 C183 1.451 . S
C2361 C255 1.451 . S
C2377 C435 1.451 . S
C2379 C795 1.451 . S
C2395 C831 1.451 . S
C2397 C471 1.451 . S
C2413 C759 1.451 . S
C2415 C507 1.451 . S
C2431 C543 1.451 . S
C2433 C723 1.451 . S
C2449 C579 1.451 . S
C2451 C651 1.451 . S
C2467 C687 1.451 . S
C2469 C615 1.451 . S
C2485 C867 1.451 . S
C2487 C1227 1.451 . S
C2503 C1263 1.451 . S
C2505 C903 1.451 . S
C2521 C939 1.451 . S
C2523 C1191 1.451 . S
C2539 C975 1.451 . S
C2541 C1155 1.451 . S
C2557 C1083 1.451 . S
C2559 C1011 1.451 . S
C2575 C1047 1.451 . S
C2577 C1119 1.451 . S
