# Generated by pormake.
# Topology sin, (3)-cn, num edge types: 1
# Building blocks:
#     Node 0, Type 0, BuildingBlock: WUSLED_clean_sbu_0, # of connection points: 3
#     Node 1, Type 0, BuildingBlock: WUSLED_clean_sbu_0, # of connection points: 3
#     Node 2, Type 0, BuildingBlock: WUSLED_clean_sbu_0, # of connection points: 3
#     Node 3, Type 0, BuildingBlock: WUSLED_clean_sbu_0, # of connection points: 3
#     Node 4, Type 0, BuildingBlock: WUSLED_clean_sbu_0, # of connection points: 3
#     Node 5, Type 0, BuildingBlock: WUSLED_clean_sbu_0, # of connection points: 3
#     Node 6, Type 0, BuildingBlock: WUSLED_clean_sbu_0, # of connection points: 3
#     Node 7, Type 0, BuildingBlock: WUSLED_clean_sbu_0, # of connection points: 3
#     Node 8, Type 0, BuildingBlock: WUSLED_clean_sbu_0, # of connection points: 3
#     Node 9, Type 0, BuildingBlock: WUSLED_clean_sbu_0, # of connection points: 3
#     Node 10, Type 0, BuildingBlock: WUSLED_clean_sbu_0, # of connection points: 3
#     Node 11, Type 0, BuildingBlock: WUSLED_clean_sbu_0, # of connection points: 3
#     Node 12, Type 0, BuildingBlock: WUSLED_clean_sbu_0, # of connection points: 3
#     Node 13, Type 0, BuildingBlock: WUSLED_clean_sbu_0, # of connection points: 3
#     Node 14, Type 0, BuildingBlock: WUSLED_clean_sbu_0, # of connection points: 3
#     Node 15, Type 0, BuildingBlock: WUSLED_clean_sbu_0, # of connection points: 3
#     Node 16, Type 0, BuildingBlock: WUSLED_clean_sbu_0, # of connection points: 3
#     Node 17, Type 0, BuildingBlock: WUSLED_clean_sbu_0, # of connection points: 3
#     Node 18, Type 0, BuildingBlock: WUSLED_clean_sbu_0, # of connection points: 3
#     Node 19, Type 0, BuildingBlock: WUSLED_clean_sbu_0, # of connection points: 3
#     Node 20, Type 0, BuildingBlock: WUSLED_clean_sbu_0, # of connection points: 3
#     Node 21, Type 0, BuildingBlock: WUSLED_clean_sbu_0, # of connection points: 3
#     Node 22, Type 0, BuildingBlock: WUSLED_clean_sbu_0, # of connection points: 3
#     Node 23, Type 0, BuildingBlock: WUSLED_clean_sbu_0, # of connection points: 3
#     Node 24, Type 0, BuildingBlock: WUSLED_clean_sbu_0, # of connection points: 3
#     Node 25, Type 0, BuildingBlock: WUSLED_clean_sbu_0, # of connection points: 3
#     Node 26, Type 0, BuildingBlock: WUSLED_clean_sbu_0, # of connection points: 3
#     Node 27, Type 0, BuildingBlock: WUSLED_clean_sbu_0, # of connection points: 3
#     Node 28, Type 0, BuildingBlock: WUSLED_clean_sbu_0, # of connection points: 3
#     Node 29, Type 0, BuildingBlock: WUSLED_clean_sbu_0, # of connection points: 3
#     Node 30, Type 0, BuildingBlock: WUSLED_clean_sbu_0, # of connection points: 3
#     Node 31, Type 0, BuildingBlock: WUSLED_clean_sbu_0, # of connection points: 3
#     Node 32, Type 0, BuildingBlock: WUSLED_clean_sbu_0, # of connection points: 3
#     Node 33, Type 0, BuildingBlock: WUSLED_clean_sbu_0, # of connection points: 3
#     Node 34, Type 0, BuildingBlock: WUSLED_clean_sbu_0, # of connection points: 3
#     Node 35, Type 0, BuildingBlock: WUSLED_clean_sbu_0, # of connection points: 3
#     Node 36, Type 0, BuildingBlock: WUSLED_clean_sbu_0, # of connection points: 3
#     Node 37, Type 0, BuildingBlock: WUSLED_clean_sbu_0, # of connection points: 3
#     Node 38, Type 0, BuildingBlock: WUSLED_clean_sbu_0, # of connection points: 3
#     Node 39, Type 0, BuildingBlock: WUSLED_clean_sbu_0, # of connection points: 3
#     Node 40, Type 0, BuildingBlock: WUSLED_clean_sbu_0, # of connection points: 3
#     Node 41, Type 0, BuildingBlock: WUSLED_clean_sbu_0, # of connection points: 3
#     Node 42, Type 0, BuildingBlock: WUSLED_clean_sbu_0, # of connection points: 3
#     Node 43, Type 0, BuildingBlock: WUSLED_clean_sbu_0, # of connection points: 3
#     Node 44, Type 0, BuildingBlock: WUSLED_clean_sbu_0, # of connection points: 3
#     Node 45, Type 0, BuildingBlock: WUSLED_clean_sbu_0, # of connection points: 3
#     Node 46, Type 0, BuildingBlock: WUSLED_clean_sbu_0, # of connection points: 3
#     Node 47, Type 0, BuildingBlock: WUSLED_clean_sbu_0, # of connection points: 3
#     Edge 48, Type (0, 0), None
#     Edge 49, Type (0, 0), None
#     Edge 50, Type (0, 0), None
#     Edge 51, Type (0, 0), None
#     Edge 52, Type (0, 0), None
#     Edge 53, Type (0, 0), None
#     Edge 54, Type (0, 0), None
#     Edge 55, Type (0, 0), None
#     Edge 56, Type (0, 0), None
#     Edge 57, Type (0, 0), None
#     Edge 58, Type (0, 0), None
#     Edge 59, Type (0, 0), None
#     Edge 60, Type (0, 0), None
#     Edge 61, Type (0, 0), None
#     Edge 62, Type (0, 0), None
#     Edge 63, Type (0, 0), None
#     Edge 64, Type (0, 0), None
#     Edge 65, Type (0, 0), None
#     Edge 66, Type (0, 0), None
#     Edge 67, Type (0, 0), None
#     Edge 68, Type (0, 0), None
#     Edge 69, Type (0, 0), None
#     Edge 70, Type (0, 0), None
#     Edge 71, Type (0, 0), None
#     Edge 72, Type (0, 0), None
#     Edge 73, Type (0, 0), None
#     Edge 74, Type (0, 0), None
#     Edge 75, Type (0, 0), None
#     Edge 76, Type (0, 0), None
#     Edge 77, Type (0, 0), None
#     Edge 78, Type (0, 0), None
#     Edge 79, Type (0, 0), None
#     Edge 80, Type (0, 0), None
#     Edge 81, Type (0, 0), None
#     Edge 82, Type (0, 0), None
#     Edge 83, Type (0, 0), None
#     Edge 84, Type (0, 0), None
#     Edge 85, Type (0, 0), None
#     Edge 86, Type (0, 0), None
#     Edge 87, Type (0, 0), None
#     Edge 88, Type (0, 0), None
#     Edge 89, Type (0, 0), None
#     Edge 90, Type (0, 0), None
#     Edge 91, Type (0, 0), None
#     Edge 92, Type (0, 0), None
#     Edge 93, Type (0, 0), None
#     Edge 94, Type (0, 0), None
#     Edge 95, Type (0, 0), None
#     Edge 96, Type (0, 0), None
#     Edge 97, Type (0, 0), None
#     Edge 98, Type (0, 0), None
#     Edge 99, Type (0, 0), None
#     Edge 100, Type (0, 0), None
#     Edge 101, Type (0, 0), None
#     Edge 102, Type (0, 0), None
#     Edge 103, Type (0, 0), None
#     Edge 104, Type (0, 0), None
#     Edge 105, Type (0, 0), None
#     Edge 106, Type (0, 0), None
#     Edge 107, Type (0, 0), None
#     Edge 108, Type (0, 0), None
#     Edge 109, Type (0, 0), None
#     Edge 110, Type (0, 0), None
#     Edge 111, Type (0, 0), None
#     Edge 112, Type (0, 0), None
#     Edge 113, Type (0, 0), None
#     Edge 114, Type (0, 0), None
#     Edge 115, Type (0, 0), None
#     Edge 116, Type (0, 0), None
#     Edge 117, Type (0, 0), None
#     Edge 118, Type (0, 0), None
#     Edge 119, Type (0, 0), None
# Relax obj value: 0.177
# Max RMSD: 0.141
# Mean RMSD: 0.117
data_MOF--net-sin--node1-WUSLED_clean_sbu_0--edge1-none
_symmetry_space_group_name_H-M    P1
_symmetry_Int_Tables_number       1
_symmetry_cell_setting            triclinic
loop_
_symmetry_equiv_pos_as_xyz
'x, y, z'
_cell_length_a     62.275743
_cell_length_b     62.247855
_cell_length_c     62.270925
_cell_angle_alpha  90.997415
_cell_angle_beta   90.99947
_cell_angle_gamma 91.007004
loop_
_atom_site_label
_atom_site_type_symbol
_atom_site_fract_x
_atom_site_fract_y
_atom_site_fract_z
_atom_type_partial_charge
C0 C 0.05563 0.50794 0.5345 0.0
C1 C 0.07 0.4908 0.53409 0.0
C2 C 0.09909 0.51539 0.52389 0.0
C3 C 0.09163 0.49452 0.52885 0.0
C4 C 0.08472 0.5325 0.5257 0.0
C5 C 0.06328 0.52876 0.53072 0.0
U6 U 0.99945 0.47807 0.53828 0.0
O7 O 0.97053 0.4899 0.52176 0.0
O8 O 0.97191 0.48912 0.55742 0.0
C9 C 0.96131 0.49471 0.53998 0.0
C10 C 0.03231 0.50513 0.5372 0.0
C11 C 0.93843 0.50009 0.54035 0.0
C12 C 0.91163 0.52783 0.53809 0.0
C13 C 0.933 0.5218 0.54043 0.0
C14 C 0.90052 0.49036 0.53664 0.0
C15 C 0.89495 0.51224 0.53596 0.0
C16 C 0.92211 0.48435 0.53862 0.0
C17 C 1.00353 0.41358 0.53318 0.0
C18 C 0.98148 0.38127 0.52793 0.0
C19 C 0.02027 0.37912 0.52733 0.0
C20 C 0.02193 0.40116 0.53134 0.0
C21 C 1.00006 0.36883 0.52521 0.0
C22 C 0.9832 0.40357 0.53178 0.0
C23 C 1.00684 0.43696 0.53506 0.0
O24 O 0.02124 0.4987 0.52009 0.0
O25 O 0.02535 0.49679 0.55509 0.0
O26 O 1.00505 0.44691 0.55373 0.0
O27 O 1.00316 0.44894 0.51826 0.0
H28 H 0.06438 0.47457 0.53702 0.0
H29 H 0.10215 0.48092 0.52759 0.0
H30 H 0.08983 0.54886 0.52263 0.0
H31 H 0.05244 0.5422 0.53103 0.0
H32 H 0.90845 0.54481 0.53711 0.0
H33 H 0.94543 0.5342 0.54152 0.0
H34 H 0.8883 0.47782 0.53545 0.0
H35 H 0.92607 0.46748 0.53842 0.0
H36 H 0.96563 0.37388 0.52665 0.0
H37 H 0.03492 0.37038 0.52488 0.0
H38 H 0.03775 0.4087 0.53224 0.0
H39 H 0.96879 0.41295 0.53319 0.0
C40 C 0.08247 0.96974 0.1942 0.0
C41 C 0.08871 0.95371 0.17955 0.0
C42 C 0.12529 0.96937 0.17879 0.0
C43 C 0.10988 0.95366 0.17172 0.0
C44 C 0.11833 0.98565 0.19298 0.0
C45 C 0.0973 0.98592 0.20028 0.0
U46 U 0.0241 0.95411 0.2167 0.0
O47 O 0.01865 0.95654 0.25165 0.0
O48 O 1.00101 0.97773 0.22937 0.0
C49 C 1.0042 0.97141 0.24921 0.0
C50 C 0.06193 0.96934 0.20578 0.0
C51 C 0.99403 0.98194 0.2678 0.0
C52 C 0.99692 1.00563 0.29923 0.0
C53 C 1.00491 0.99825 0.27957 0.0
C54 C 0.96669 0.98086 0.29537 0.0
C55 C 0.97809 0.99649 0.30791 0.0
C56 C 0.97458 0.97372 0.27554 0.0
C57 C 1.00369 0.89982 0.18643 0.0
C58 C 0.98529 0.86536 0.18157 0.0
C59 C 0.01704 0.87342 0.16105 0.0
C60 C 0.01865 0.89384 0.17099 0.0
C61 C 1.00068 0.85866 0.16673 0.0
C62 C 0.98676 0.88571 0.19117 0.0
C63 C 1.00599 0.91931 0.19991 0.0
O64 O 0.04398 0.97511 0.19618 0.0
O65 O 0.05925 0.95473 0.22049 0.0
O66 O 1.00329 0.93838 0.19161 0.0
O67 O 0.01968 0.91906 0.21617 0.0
H68 H 0.07749 0.941 0.17461 0.0
H69 H 0.11416 0.94107 0.16049 0.0
H70 H 0.12927 0.99783 0.19955 0.0
H71 H 0.09291 0.99837 0.21171 0.0
H72 H 1.00593 0.01814 0.30788 0.0
H73 H 0.01999 1.00478 0.27392 0.0
H74 H 0.95229 0.97321 0.30132 0.0
H75 H 0.96601 0.96096 0.26677 0.0
H76 H 0.97271 0.85454 0.18678 0.0
H77 H 0.02895 0.86901 0.14939 0.0
H78 H 0.03185 0.90459 0.16714 0.0
H79 H 0.97514 0.89004 0.20319 0.0
C80 C 0.66118 0.72891 0.01216 0.0
C81 C 0.64602 0.74529 0.01218 0.0
C82 C 0.61688 0.71861 1.00681 0.0
C83 C 0.62402 0.74018 0.00949 0.0
C84 C 0.63228 0.70234 0.00797 0.0
C85 C 0.65409 0.70747 0.01037 0.0
U86 U 0.72092 0.75492 0.01229 0.0
O87 O 0.7471 0.74123 0.0321 0.0
O88 O 0.74636 0.73627 0.99697 0.0
C89 C 0.7559 0.73204 0.01533 0.0
C90 C 0.68455 0.73298 0.01324 0.0
C91 C 0.77908 0.72714 0.01547 0.0
C92 C 0.80578 0.69906 0.01617 0.0
C93 C 0.78461 0.70569 0.01831 0.0
C94 C 0.81688 0.73571 0.00957 0.0
C95 C 0.82247 0.71379 0.01151 0.0
C96 C 0.79538 0.74226 0.01125 0.0
C97 C 0.71621 0.81831 1.00287 0.0
C98 C 0.72546 0.85501 0.9934 0.0
C99 C 0.68818 0.84455 0.9978 0.0
C100 C 0.69439 0.82357 1.00281 0.0
C101 C 0.70369 0.86039 0.99264 0.0
C102 C 0.7316 0.83424 0.99845 0.0
C103 C 0.72414 0.79651 1.00661 0.0
O104 O 0.69467 0.73701 0.99538 0.0
O105 O 0.69338 0.74223 0.03045 0.0
O106 O 0.72217 0.78803 0.0257 0.0
O107 O 0.72315 0.78243 0.99063 0.0
H108 H 0.6512 0.76196 0.01368 0.0
H109 H 0.61279 0.75321 0.0086 0.0
H110 H 0.62762 0.68553 1.00666 0.0
H111 H 0.66555 0.69455 0.0105 0.0
H112 H 0.8086 0.68205 0.01733 0.0
H113 H 0.77226 0.69371 0.02141 0.0
H114 H 0.82894 0.74792 1.00652 0.0
H115 H 0.79149 0.75897 0.00895 0.0
H116 H 0.73783 0.86683 0.98991 0.0
H117 H 0.67123 0.84816 0.99724 0.0
H118 H 0.68224 0.81149 1.00621 0.0
H119 H 0.74853 0.83048 0.99856 0.0
C120 C 0.59029 0.2058 0.75011 0.0
C121 C 0.59293 0.22126 0.73417 0.0
C122 C 0.55399 0.22158 0.72787 0.0
C123 C 0.57488 0.22902 0.72302 0.0
C124 C 0.55181 0.20558 0.74344 0.0
C125 C 0.56971 0.19774 0.75424 0.0
U126 U 0.64797 0.20297 0.77773 0.0
O127 O 0.65155 0.20307 0.81313 0.0
O128 O 0.6614 0.17462 0.79385 0.0
C129 C 0.6592 0.18357 0.81297 0.0
C130 C 0.60772 0.19928 0.76469 0.0
C131 C 0.66745 0.17358 0.83268 0.0
C132 C 0.65966 0.15532 0.8659 0.0
C133 C 0.65301 0.16284 0.84587 0.0
C134 C 0.69553 0.16914 0.85986 0.0
C135 C 0.68091 0.15893 0.87372 0.0
C136 C 0.68888 0.17627 0.83955 0.0
C137 C 0.68404 0.24376 0.74408 0.0
C138 C 0.71302 0.2685 0.73579 0.0
C139 C 0.67898 0.27057 0.71656 0.0
C140 C 0.67096 0.25321 0.7284 0.0
C141 C 0.70002 0.27872 0.72049 0.0
C142 C 0.70516 0.25121 0.74726 0.0
C143 C 0.67624 0.22793 0.75943 0.0
O144 O 0.6229 0.18689 0.75724 0.0
O145 O 0.6147 0.21379 0.77881 0.0
O146 O 0.6729 0.2078 0.75328 0.0
O147 O 0.66347 0.23465 0.7746 0.0
H148 H 0.60876 0.22771 0.73081 0.0
H149 H 0.57726 0.24106 0.71092 0.0
H150 H 0.53617 0.19967 0.74813 0.0
H151 H 0.56733 0.18596 0.76665 0.0
H152 H 0.6478 0.14689 0.87518 0.0
H153 H 0.63635 0.16064 0.84084 0.0
H154 H 0.71195 0.17258 0.86485 0.0
H155 H 0.7003 0.1846 0.82959 0.0
H156 H 0.72907 0.27444 0.73976 0.0
H157 H 0.66863 0.27786 0.70469 0.0
H158 H 0.65454 0.24763 0.72577 0.0
H159 H 0.71539 0.24423 0.75946 0.0
C160 C 0.05895 0.70307 0.15033 0.0
C161 C 0.07206 0.72163 0.15019 0.0
C162 C 0.10341 0.70032 0.15975 0.0
C163 C 0.09416 0.72026 0.15487 0.0
C164 C 0.09018 0.68174 0.15857 0.0
C165 C 0.06826 0.68318 0.15415 0.0
U166 U 0.99993 0.72567 0.14719 0.0
O167 O 0.9737 0.70952 0.16414 0.0
O168 O 0.97271 0.71056 0.12873 0.0
C169 C 0.9638 0.70332 0.14625 0.0
C170 C 0.0354 0.70339 0.14809 0.0
C171 C 0.94051 0.69874 0.1468 0.0
C172 C 0.91257 0.6715 0.15112 0.0
C173 C 0.934 0.67718 0.14777 0.0
C174 C 0.90328 0.70905 0.15106 0.0
C175 C 0.89667 0.68728 0.15314 0.0
C176 C 0.92503 0.71473 0.14823 0.0
C177 C 1.00116 0.79095 0.15137 0.0
C178 C 0.98133 0.82375 0.15666 0.0
C179 C 0.02024 0.82503 0.15663 0.0
C180 C 0.02043 0.80287 0.15271 0.0
C181 C 1.0007 0.83575 0.15917 0.0
C182 C 0.98158 0.8015 0.15298 0.0
C183 C 1.00194 0.76745 0.14981 0.0
O184 O 0.02481 0.70879 0.16533 0.0
O185 O 0.02679 0.7105 0.13021 0.0
O186 O 1.00117 0.75711 0.13121 0.0
O187 O 1.00081 0.75546 0.16695 0.0
H188 H 0.06514 0.73716 0.14722 0.0
H189 H 0.10372 0.73495 0.15568 0.0
H190 H 0.09661 0.66601 0.16156 0.0
H191 H 0.05839 0.66866 0.15426 0.0
H192 H 0.90897 0.65462 0.15301 0.0
H193 H 0.94576 0.66457 0.14683 0.0
H194 H 0.89185 0.72188 0.15185 0.0
H195 H 0.92976 0.73153 0.14753 0.0
H196 H 0.96594 0.83142 0.15806 0.0
H197 H 0.03548 0.83348 0.15875 0.0
H198 H 0.0357 0.79489 0.15153 0.0
H199 H 0.96655 0.79249 0.15191 0.0
C200 C 0.59964 0.9838 0.95955 0.0
C201 C 0.59721 0.96832 0.97559 0.0
C202 C 0.55932 0.97797 0.97991 0.0
C203 C 0.57725 0.96553 0.98579 0.0
C204 C 0.56237 0.99364 0.9641 0.0
C205 C 0.58216 0.99659 0.95433 0.0
U206 U 0.65717 0.97138 0.93675 0.0
O207 O 0.66435 0.9701 0.90217 0.0
O208 O 0.68117 0.99423 0.92337 0.0
C209 C 0.67886 0.98562 0.90399 0.0
C210 C 0.61901 0.98622 0.94617 0.0
C211 C 0.68854 0.99519 0.88469 0.0
C212 C 0.6856 0.0151 0.85143 0.0
C213 C 0.67695 0.00862 0.87106 0.0
C214 C 0.71756 0.99489 0.85883 0.0
C215 C 0.70577 1.00766 0.84445 0.0
C216 C 0.70912 0.98894 0.87866 0.0
C217 C 0.68232 0.9212 0.96905 0.0
C218 C 0.70725 0.89169 0.9677 0.0
C219 C 0.68043 0.89292 0.9954 0.0
C220 C 0.67312 0.91234 0.98733 0.0
C221 C 0.69724 0.88207 0.98539 0.0
C222 C 0.69973 0.91105 0.95949 0.0
C223 C 0.67165 0.93945 0.95903 0.0
O224 O 0.63692 0.99386 0.95511 0.0
O225 O 0.62215 0.97105 0.93173 0.0
O226 O 0.65995 0.93659 0.94144 0.0
O227 O 0.67655 0.95953 0.96422 0.0
H228 H 0.6105 0.95816 0.97991 0.0
H229 H 0.57586 0.95349 0.99804 0.0
H230 H 0.54923 1.00326 0.95838 0.0
H231 H 0.58355 0.00849 0.94191 0.0
H232 H 0.67609 0.02568 0.84169 0.0
H233 H 0.66105 0.01377 0.87537 0.0
H234 H 0.73296 0.98849 0.85457 0.0
H235 H 0.71836 0.97853 0.88892 0.0
H236 H 0.72023 0.88376 0.95958 0.0
H237 H 0.67265 0.88621 0.00924 0.0
H238 H 0.65963 0.92001 0.99487 0.0
H239 H 0.707 0.91765 0.9453 0.0
C240 C 0.69464 0.43902 0.69751 0.0
C241 C 0.67581 0.42672 0.69986 0.0
C242 C 0.65646 0.45912 0.71009 0.0
C243 C 0.65681 0.43672 0.70613 0.0
C244 C 0.67528 0.47131 0.7066 0.0
C245 C 0.69414 0.46133 0.70058 0.0
U246 U 0.74415 0.39976 0.6879 0.0
O247 O 0.76955 0.4081 0.66491 0.0
O248 O 0.77621 0.41021 0.70014 0.0
C249 C 0.78328 0.41288 0.68062 0.0
C250 C 0.71553 0.42967 0.6928 0.0
C251 C 0.8056 0.41939 0.67665 0.0
C252 C 0.83227 0.44812 0.67395 0.0
C253 C 0.81078 0.44115 0.67418 0.0
C254 C 0.84357 0.41127 0.67689 0.0
C255 C 0.84913 0.43337 0.67589 0.0
C256 C 0.82206 0.40443 0.67766 0.0
C257 C 0.7263 0.3381 0.69709 0.0
C258 C 0.73034 0.30051 0.70556 0.0
C259 C 0.69517 0.31645 0.70673 0.0
C260 C 0.70412 0.33617 0.70029 0.0
C261 C 0.70835 0.29854 0.71008 0.0
C262 C 0.73918 0.32008 0.69935 0.0
C263 C 0.73731 0.35855 0.69261 0.0
O264 O 0.72708 0.42232 0.70883 0.0
O265 O 0.71835 0.41962 0.67434 0.0
O266 O 0.73418 0.36806 0.67415 0.0
O267 O 0.74254 0.37161 0.70873 0.0
H268 H 0.67594 0.40944 0.69747 0.0
H269 H 0.64272 0.42676 0.7088 0.0
H270 H 0.67565 0.48859 0.70893 0.0
H271 H 0.70855 0.47109 0.6987 0.0
H272 H 0.83542 0.46523 0.67342 0.0
H273 H 0.7982 0.45294 0.67351 0.0
H274 H 0.85573 0.39911 0.67762 0.0
H275 H 0.81831 0.38751 0.6796 0.0
H276 H 0.74097 0.28705 0.7074 0.0
H277 H 0.67819 0.31556 0.71012 0.0
H278 H 0.69391 0.34996 0.69852 0.0
H279 H 0.75635 0.32127 0.69685 0.0
C280 C 0.07553 0.2392 0.49949 0.0
C281 C 0.07873 0.25672 0.51379 0.0
C282 C 0.11614 0.2463 0.51995 0.0
C283 C 0.09887 0.26015 0.52409 0.0
C284 C 0.11226 0.22843 0.50613 0.0
C285 C 0.09225 0.22488 0.49628 0.0
U286 U 0.01901 0.24964 0.47128 0.0
O287 O 0.0138 0.24532 0.43643 0.0
O288 O 0.99597 0.22454 0.45873 0.0
C289 C 0.99899 0.23034 0.43877 0.0
C290 C 0.05627 0.23611 0.48559 0.0
C291 C 0.99231 0.21658 0.42017 0.0
C292 C 0.9997 0.19022 0.39205 0.0
C293 C 1.00544 0.20064 0.4116 0.0
C294 C 0.96761 0.21142 0.38966 0.0
C295 C 0.98099 0.19593 0.38035 0.0
C296 C 0.97317 0.22147 0.40931 0.0
C297 C 0.99981 0.30459 0.49847 0.0
C298 C 0.9828 0.33917 0.50287 0.0
C299 C 0.01456 0.33103 0.524 0.0
C300 C 0.01523 0.31057 0.5142 0.0
C301 C 0.9987 0.34585 0.51794 0.0
C302 C 0.98336 0.31877 0.49333 0.0
C303 C 1.00103 0.28482 0.48539 0.0
O304 O 0.03793 0.23046 0.49423 0.0
O305 O 0.05417 0.24929 0.46947 0.0
O306 O 0.99783 0.26605 0.49429 0.0
O307 O 0.01502 0.28455 0.46986 0.0
H308 H 0.06596 0.26799 0.5165 0.0
H309 H 0.10099 0.27384 0.53491 0.0
H310 H 0.12493 0.21756 0.50191 0.0
H311 H 0.09015 0.21134 0.4852 0.0
H312 H 0.01026 0.17801 0.38594 0.0
H313 H 0.02035 0.19664 0.4197 0.0
H314 H 0.95331 0.21672 0.38135 0.0
H315 H 0.9629 0.2339 0.41556 0.0
H316 H 0.97056 0.35007 0.49746 0.0
H317 H 0.02686 0.33545 0.53585 0.0
H318 H 0.02805 0.29978 0.51837 0.0
H319 H 0.97137 0.3144 0.48112 0.0
C320 C 0.53475 0.05572 0.50759 0.0
C321 C 0.53434 0.0701 0.49045 0.0
C322 C 0.52414 0.09919 0.51502 0.0
C323 C 0.5291 0.09173 0.49417 0.0
C324 C 0.52594 0.08482 0.53213 0.0
C325 C 0.53095 0.06337 0.5284 0.0
U326 U 0.53851 0.99954 0.47771 0.0
O327 O 0.52199 0.97061 0.48953 0.0
O328 O 0.55764 0.97199 0.48876 0.0
C329 C 0.54021 0.96139 0.49435 0.0
C330 C 0.53744 0.0324 0.50477 0.0
C331 C 0.54057 0.93851 0.49975 0.0
C332 C 0.53832 0.91172 0.5275 0.0
C333 C 0.54067 0.9331 0.52146 0.0
C334 C 0.53685 0.90059 0.49005 0.0
C335 C 0.53618 0.89503 0.51193 0.0
C336 C 0.53882 0.92217 0.48403 0.0
C337 C 0.5334 1.00363 0.41323 0.0
C338 C 0.52814 0.98158 0.38093 0.0
C339 C 0.52756 0.02038 0.37877 0.0
C340 C 0.53156 0.02203 0.40081 0.0
C341 C 0.52542 1.00017 0.36849 0.0
C342 C 0.53199 0.98329 0.40322 0.0
C343 C 0.53528 1.00694 0.4366 0.0
O344 O 0.52033 0.02134 0.49834 0.0
O345 O 0.55533 0.02544 0.49643 0.0
O346 O 0.55396 1.00515 0.44655 0.0
O347 O 0.51849 1.00326 0.44858 0.0
H348 H 0.53728 0.06447 0.47423 0.0
H349 H 0.52785 0.10225 0.48056 0.0
H350 H 0.52286 0.08993 0.54848 0.0
H351 H 0.53126 0.05253 0.54183 0.0
H352 H 0.53736 0.90856 0.54448 0.0
H353 H 0.54176 0.94555 0.53384 0.0
H354 H 0.53565 0.88835 0.47752 0.0
H355 H 0.53862 0.92613 0.46716 0.0
H356 H 0.52685 0.96572 0.37354 0.0
H357 H 0.52512 0.03505 0.37004 0.0
H358 H 0.53248 0.03786 0.40834 0.0
H359 H 0.5334 0.96887 0.41259 0.0
C360 C 0.20726 0.74922 0.59035 0.0
C361 C 0.22257 0.73311 0.59259 0.0
C362 C 0.22255 0.72752 0.55354 0.0
C363 C 0.23008 0.72221 0.57428 0.0
C364 C 0.20669 0.74328 0.55177 0.0
C365 C 0.1991 0.75382 0.56992 0.0
U366 U 0.20263 0.77849 0.6477 0.0
O367 O 0.20104 0.81376 0.64873 0.0
O368 O 0.17296 0.79438 0.65859 0.0
C369 C 0.181 0.81362 0.65488 0.0
C370 C 0.20096 0.76354 0.60806 0.0
C371 C 0.17235 0.83311 0.6652 0.0
C372 C 0.1525 0.86599 0.66018 0.0
C373 C 0.15929 0.84607 0.65254 0.0
C374 C 0.17147 0.86038 0.69377 0.0
C375 C 0.15902 0.87396 0.68068 0.0
C376 C 0.17809 0.84014 0.68609 0.0
C377 C 0.24281 0.74652 0.68522 0.0
C378 C 0.26803 0.73756 0.71362 0.0
C379 C 0.26909 0.71853 0.67941 0.0
C380 C 0.25175 0.73073 0.67185 0.0
C381 C 0.27771 0.72215 0.70032 0.0
C382 C 0.25079 0.74941 0.7062 0.0
C383 C 0.22681 0.76205 0.67794 0.0
O384 O 0.18821 0.7563 0.62303 0.0
O385 O 0.2152 0.77794 0.61502 0.0
O386 O 0.23349 0.77722 0.66513 0.0
O387 O 0.20692 0.75543 0.674 0.0
H388 H 0.22909 0.72939 0.60831 0.0
H389 H 0.24201 0.70995 0.57633 0.0
H390 H 0.20072 0.7483 0.53625 0.0
H391 H 0.18742 0.76638 0.56786 0.0
H392 H 0.1423 0.87517 0.64968 0.0
H393 H 0.1547 0.84097 0.63634 0.0
H394 H 0.17697 0.86565 0.70959 0.0
H395 H 0.1882 0.83037 0.69616 0.0
H396 H 0.27434 0.74129 0.72958 0.0
H397 H 0.27596 0.70661 0.66882 0.0
H398 H 0.24577 0.72825 0.65554 0.0
H399 H 0.24423 0.76163 0.71669 0.0
C400 C 0.16798 0.1941 0.96642 0.0
C401 C 0.16535 0.18132 0.94771 0.0
C402 C 0.17304 0.14876 0.96817 0.0
C403 C 0.1679 0.15886 0.94857 0.0
C404 C 0.17415 0.16183 0.98692 0.0
C405 C 0.17201 0.18407 0.98596 0.0
U406 U 0.16801 0.25396 0.94508 0.0
O407 O 0.18897 0.27924 0.95962 0.0
O408 O 0.1539 0.28217 0.96148 0.0
C409 C 0.17286 0.29046 0.96681 0.0
C410 C 0.16806 0.2179 0.96665 0.0
C411 C 0.17584 0.31409 0.9688 0.0
C412 C 0.18185 0.34465 0.99327 0.0
C413 C 0.17609 0.32309 0.98957 0.0
C414 C 0.18603 0.34923 0.95509 0.0
C415 C 0.18729 0.35814 0.97619 0.0
C416 C 0.18057 0.32737 0.95144 0.0
C417 C 0.16448 0.25265 0.87995 0.0
C418 C 0.16937 0.27115 0.84645 0.0
C419 C 0.16391 0.23249 0.84633 0.0
C420 C 0.16198 0.23314 0.86862 0.0
C421 C 0.16821 0.25142 0.83498 0.0
C422 C 0.16774 0.27171 0.8688 0.0
C423 C 0.16568 0.25271 0.90339 0.0
O424 O 0.18556 0.22764 0.96012 0.0
O425 O 0.15036 0.22786 0.96131 0.0
O426 O 0.14841 0.254 0.91517 0.0
O427 O 0.18418 0.25244 0.91386 0.0
H428 H 0.16205 0.18872 0.93242 0.0
H429 H 0.16676 0.14968 0.93368 0.0
H430 H 0.17703 0.15509 1.00257 0.0
H431 H 0.17393 0.19358 1.00064 0.0
H432 H 0.18296 0.35034 0.00976 0.0
H433 H 0.17272 0.3131 1.00323 0.0
H434 H 0.18962 0.35898 0.94134 0.0
H435 H 0.18054 0.32078 0.93522 0.0
H436 H 0.17222 0.28611 0.83828 0.0
H437 H 0.16324 0.21696 0.83823 0.0
H438 H 0.15953 0.21828 0.87711 0.0
H439 H 0.16966 0.28692 0.87742 0.0
C440 C 0.5241 0.49165 0.15923 0.0
C441 C 0.50959 0.50863 0.15781 0.0
C442 C 0.51916 0.51383 0.12024 0.0
C443 C 0.50722 0.51974 0.13843 0.0
C444 C 0.53413 0.49727 0.12231 0.0
C445 C 0.53661 0.48648 0.14154 0.0
U446 U 0.50755 0.46512 0.21349 0.0
O447 O 0.506 0.43027 0.21797 0.0
O448 O 0.52882 0.45024 0.23785 0.0
C449 C 0.52009 0.43115 0.23388 0.0
C450 C 0.52541 0.47728 0.1777 0.0
C451 C 0.53026 0.41129 0.24081 0.0
C452 C 0.55105 0.37944 0.23364 0.0
C453 C 0.54457 0.40006 0.22788 0.0
C454 C 0.52892 0.38127 0.26517 0.0
C455 C 0.54269 0.36934 0.252 0.0
C456 C 0.52299 0.40202 0.25971 0.0
C457 C 0.45518 0.49644 0.23332 0.0
C458 C 0.42167 0.50004 0.25206 0.0
C459 C 0.43013 0.52381 0.22282 0.0
C460 C 0.44981 0.51362 0.22019 0.0
C461 C 0.41557 0.51669 0.2384 0.0
C462 C 0.4413 0.49009 0.24955 0.0
C463 C 0.47376 0.48307 0.22942 0.0
O464 O 0.53106 0.48549 0.19662 0.0
O465 O 0.5103 0.46235 0.17852 0.0
O466 O 0.47248 0.4679 0.21452 0.0
O467 O 0.49333 0.49001 0.23436 0.0
H468 H 0.49976 0.51286 0.17137 0.0
H469 H 0.49578 0.5326 0.13756 0.0
H470 H 0.54334 0.49179 0.10875 0.0
H471 H 0.54776 0.47332 0.14229 0.0
H472 H 0.56222 0.37133 0.22331 0.0
H473 H 0.55025 0.40696 0.21313 0.0
H474 H 0.52167 0.37436 0.27916 0.0
H475 H 0.51169 0.41041 0.26974 0.0
H476 H 0.41082 0.49384 0.26396 0.0
H477 H 0.42604 0.53681 0.21226 0.0
H478 H 0.46044 0.51865 0.20757 0.0
H479 H 0.44523 0.47669 0.2597 0.0
C480 C 0.53879 0.18281 0.25821 0.0
C481 C 0.53683 0.1688 0.27551 0.0
C482 C 0.52876 0.13875 0.25046 0.0
C483 C 0.53183 0.1469 0.27165 0.0
C484 C 0.53208 0.15289 0.23336 0.0
C485 C 0.53673 0.1746 0.23722 0.0
U486 U 0.54312 0.24138 0.28468 0.0
O487 O 0.52922 0.26879 0.268 0.0
O488 O 0.5643 0.26734 0.27283 0.0
C489 C 0.54805 0.27768 0.2644 0.0
C490 C 0.54188 0.20621 0.26074 0.0
C491 C 0.54922 0.30121 0.26298 0.0
C492 C 0.55077 0.33169 0.23923 0.0
C493 C 0.55225 0.3097 0.24259 0.0
C494 C 0.5446 0.33742 0.27715 0.0
C495 C 0.54661 0.34603 0.25634 0.0
C496 C 0.5456 0.31516 0.28039 0.0
C497 C 0.53473 0.2399 0.34913 0.0
C498 C 0.52756 0.25888 0.38245 0.0
C499 C 0.52812 0.21994 0.38149 0.0
C500 C 0.53309 0.22032 0.35973 0.0
C501 C 0.52488 0.2392 0.39306 0.0
C502 C 0.53226 0.25919 0.3606 0.0
C503 C 0.53776 0.23997 0.32591 0.0
O504 O 0.52483 0.21751 0.26505 0.0
O505 O 0.55961 0.21375 0.27006 0.0
O506 O 0.55693 0.23902 0.31745 0.0
O507 O 0.52151 0.24196 0.31237 0.0
H508 H 0.53851 0.17486 0.29187 0.0
H509 H 0.52943 0.13668 0.28531 0.0
H510 H 0.53069 0.14739 0.21681 0.0
H511 H 0.53831 0.18516 0.22365 0.0
H512 H 0.55193 0.33711 0.22289 0.0
H513 H 0.55489 0.29911 0.22892 0.0
H514 H 0.54192 0.34773 0.29097 0.0
H515 H 0.54316 0.30887 0.29629 0.0
H516 H 0.52555 0.27405 0.39089 0.0
H517 H 0.52584 0.20449 0.38892 0.0
H518 H 0.5349 0.20527 0.35098 0.0
H519 H 0.53356 0.27446 0.35257 0.0
C520 C 0.48597 0.74278 0.60227 0.0
C521 C 0.47011 0.7268 0.59869 0.0
C522 C 0.46928 0.72007 0.63726 0.0
C523 C 0.46193 0.71537 0.6161 0.0
C524 C 0.48587 0.73553 0.64037 0.0
C525 C 0.49416 0.7466 0.62306 0.0
U526 U 0.49164 0.77565 0.54797 0.0
O527 O 0.49427 0.81071 0.55146 0.0
O528 O 0.52174 0.79264 0.53926 0.0
C529 C 0.51424 0.81143 0.54513 0.0
C530 C 0.49251 0.75797 0.58581 0.0
C531 C 0.52156 0.83107 0.53444 0.0
C532 C 0.54027 0.86545 0.5388 0.0
C533 C 0.53473 0.84528 0.54656 0.0
C534 C 0.51979 0.8575 0.50615 0.0
C535 C 0.53238 0.87226 0.51875 0.0
C536 C 0.5144 0.83705 0.51395 0.0
C537 C 0.45132 0.74621 0.5069 0.0
C538 C 0.42533 0.73854 0.47823 0.0
C539 C 0.42474 0.71755 0.51061 0.0
C540 C 0.44245 0.72949 0.51891 0.0
C541 C 0.41549 0.72244 0.49042 0.0
C542 C 0.44305 0.75015 0.48636 0.0
C543 C 0.46758 0.76156 0.51554 0.0
O544 O 0.50516 0.75181 0.57025 0.0
O545 O 0.47859 0.77254 0.58022 0.0
O546 O 0.48722 0.75483 0.51908 0.0
O547 O 0.4611 0.77562 0.5299 0.0
H548 H 0.46359 0.72372 0.58267 0.0
H549 H 0.44948 0.7033 0.61304 0.0
H550 H 0.49177 0.74004 0.6563 0.0
H551 H 0.50627 0.75907 0.62613 0.0
H552 H 0.55054 0.87577 0.54885 0.0
H553 H 0.54034 0.84097 0.56247 0.0
H554 H 0.51327 0.86199 0.49068 0.0
H555 H 0.50411 0.82629 0.50436 0.0
H556 H 0.41865 0.74319 0.46288 0.0
H557 H 0.41788 0.70498 0.52031 0.0
H558 H 0.4487 0.72618 0.53483 0.0
H559 H 0.44968 0.76307 0.47693 0.0
C560 C 0.15085 0.05933 0.70277 0.0
C561 C 0.15083 0.07257 0.72126 0.0
C562 C 0.16038 0.10385 0.69973 0.0
C563 C 0.15556 0.09471 0.71974 0.0
C564 C 0.15894 0.09049 0.68125 0.0
C565 C 0.15451 0.06856 0.68282 0.0
U566 U 0.14775 1.00028 0.72563 0.0
O567 O 0.16488 0.97386 0.70998 0.0
O568 O 0.12944 0.97282 0.71072 0.0
C569 C 0.14705 0.96382 0.70382 0.0
C570 C 0.14865 0.03571 0.70318 0.0
C571 C 0.14768 0.94049 0.69923 0.0
C572 C 0.15116 0.9126 0.67179 0.0
C573 C 0.14782 0.934 0.67763 0.0
C574 C 0.15306 0.90326 0.7093 0.0
C575 C 0.15404 0.89672 0.68745 0.0
C576 C 0.15013 0.92499 0.71514 0.0
C577 C 0.15164 1.00169 0.79084 0.0
C578 C 0.15691 0.98155 0.82345 0.0
C579 C 0.15686 0.02047 0.82505 0.0
C580 C 0.15296 0.02085 0.80292 0.0
C581 C 0.15939 1.00084 0.83561 0.0
C582 C 0.15326 0.98199 0.8012 0.0
C583 C 0.15016 1.00288 0.76738 0.0
O584 O 0.16589 0.02513 0.70865 0.0
O585 O 0.13076 0.02703 0.7102 0.0
O586 O 0.1316 1.00178 0.75697 0.0
O587 O 0.16734 1.00158 0.75549 0.0
H588 H 0.14793 0.06574 0.73684 0.0
H589 H 0.15648 0.10434 0.73437 0.0
H590 H 0.16177 0.0968 0.66544 0.0
H591 H 0.1545 0.05863 0.66835 0.0
H592 H 0.15235 0.90892 0.65483 0.0
H593 H 0.14619 0.94575 0.66508 0.0
H594 H 0.15476 0.89171 0.72197 0.0
H595 H 0.15016 0.92971 0.73197 0.0
H596 H 0.15832 0.96609 0.831 0.0
H597 H 0.15899 0.03566 0.83361 0.0
H598 H 0.1518 0.0362 0.79509 0.0
H599 H 0.15222 0.96703 0.79206 0.0
C600 C 0.23911 0.49982 0.07532 0.0
C601 C 0.25663 0.51411 0.07852 0.0
C602 C 0.24621 0.52028 0.11593 0.0
C603 C 0.26006 0.52441 0.09867 0.0
C604 C 0.22833 0.50647 0.11205 0.0
C605 C 0.22478 0.49662 0.09204 0.0
U606 U 0.24955 0.47159 0.01881 0.0
O607 O 0.24521 0.43673 0.01361 0.0
O608 O 0.22445 0.45903 0.99577 0.0
C609 C 0.23024 0.43906 0.99881 0.0
C610 C 0.23602 0.48591 0.05606 0.0
C611 C 0.21649 0.42046 0.99211 0.0
C612 C 0.19013 0.39231 0.99947 0.0
C613 C 0.20054 0.41187 1.00523 0.0
C614 C 0.21134 0.38994 0.96739 0.0
C615 C 0.19585 0.38062 0.98076 0.0
C616 C 0.22138 0.4096 0.97296 0.0
C617 C 0.30449 0.49878 0.99958 0.0
C618 C 0.33903 0.50319 0.98252 0.0
C619 C 0.33096 0.5243 0.01432 0.0
C620 C 0.31051 0.51449 0.01501 0.0
C621 C 0.34575 0.51826 0.99842 0.0
C622 C 0.31864 0.49365 0.9831 0.0
C623 C 0.28473 0.4857 1.00082 0.0
O624 O 0.23038 0.49455 0.03772 0.0
O625 O 0.24919 0.46979 0.05397 0.0
O626 O 0.26597 0.4946 0.99762 0.0
O627 O 0.28444 0.47017 0.01482 0.0
H628 H 0.2679 0.51682 0.06576 0.0
H629 H 0.27375 0.53523 0.10079 0.0
H630 H 0.21746 0.50225 0.12472 0.0
H631 H 0.21124 0.48555 0.08994 0.0
H632 H 0.17792 0.3862 0.01002 0.0
H633 H 0.19653 0.41996 0.02014 0.0
H634 H 0.21664 0.38164 0.95309 0.0
H635 H 0.23382 0.41586 0.96271 0.0
H636 H 0.3499 0.49779 0.97025 0.0
H637 H 0.33541 0.53613 0.02663 0.0
H638 H 0.29975 0.51866 0.02785 0.0
H639 H 0.31425 0.48144 0.97111 0.0
C640 C 0.50778 0.53459 0.05539 0.0
C641 C 0.49069 0.53402 0.0698 0.0
C642 C 0.51533 0.52347 0.09869 0.0
C643 C 0.49446 0.52854 0.09136 0.0
C644 C 0.5324 0.52545 0.0843 0.0
C645 C 0.52861 0.53072 0.06294 0.0
U646 U 0.47799 0.53867 0.99914 0.0
O647 O 0.48997 0.52222 0.97026 0.0
O648 O 0.48919 0.55788 0.97171 0.0
C649 C 0.49487 0.54047 0.96111 0.0
C650 C 0.50491 0.53743 0.03209 0.0
C651 C 0.50014 0.54084 0.9382 0.0
C652 C 0.5278 0.53862 0.91134 0.0
C653 C 0.52182 0.54101 0.93272 0.0
C654 C 0.49033 0.53699 0.90033 0.0
C655 C 0.5122 0.53638 0.89469 0.0
C656 C 0.48437 0.53899 0.92193 0.0
C657 C 0.41347 0.53353 1.00308 0.0
C658 C 0.38111 0.52828 0.98111 0.0
C659 C 0.37906 0.52765 0.01991 0.0
C660 C 0.4011 0.53167 0.02151 0.0
C661 C 0.36872 0.52553 0.99973 0.0
C662 C 0.40339 0.53215 0.98277 0.0
C663 C 0.43685 0.53541 1.0063 0.0
O664 O 0.4985 0.52036 0.02093 0.0
O665 O 0.49658 0.55536 0.02522 0.0
O666 O 0.4468 0.55411 1.00463 0.0
O667 O 0.44883 0.51861 1.00262 0.0
H668 H 0.47445 0.53702 0.06425 0.0
H669 H 0.48089 0.52717 0.10191 0.0
H670 H 0.54876 0.5223 0.08933 0.0
H671 H 0.54201 0.53115 0.05206 0.0
H672 H 0.54478 0.5377 0.90815 0.0
H673 H 0.53425 0.54218 0.94512 0.0
H674 H 0.47776 0.53572 0.88814 0.0
H675 H 0.46751 0.53872 0.92593 0.0
H676 H 0.37368 0.52701 0.96528 0.0
H677 H 0.37037 0.52519 0.03459 0.0
H678 H 0.40868 0.53256 0.03731 0.0
H679 H 0.41273 0.53357 0.96833 0.0
C680 C 0.96638 0.16816 0.19387 0.0
C681 C 0.94772 0.16548 0.18103 0.0
C682 C 0.96826 0.17318 0.14852 0.0
C683 C 0.94864 0.16802 0.15857 0.0
C684 C 0.98698 0.17434 0.16165 0.0
C685 C 0.98595 0.17221 0.18389 0.0
U686 U 0.94514 0.16844 0.25383 0.0
O687 O 0.96018 0.18917 0.279 0.0
O688 O 0.96144 0.15406 0.28196 0.0
C689 C 0.96711 0.17296 0.29022 0.0
C690 C 0.96655 0.1682 0.21767 0.0
C691 C 0.96909 0.17593 0.31383 0.0
C692 C 0.99353 0.18196 0.3444 0.0
C693 C 0.98986 0.17621 0.32284 0.0
C694 C 0.95535 0.1861 0.34895 0.0
C695 C 0.97644 0.18738 0.35787 0.0
C696 C 0.95172 0.18064 0.32709 0.0
C697 C 0.87997 0.16611 0.25331 0.0
C698 C 0.84682 0.173 0.27188 0.0
C699 C 0.84607 0.16459 0.2337 0.0
C700 C 0.86832 0.16246 0.23415 0.0
C701 C 0.8351 0.17032 0.25247 0.0
C702 C 0.86915 0.17098 0.27227 0.0
C703 C 0.90342 0.16679 0.25284 0.0
O704 O 0.9603 0.1858 0.22744 0.0
O705 O 0.96097 0.15056 0.22763 0.0
O706 O 0.9149 0.14929 0.25395 0.0
O707 O 0.91422 0.18511 0.25261 0.0
H708 H 0.93241 0.16215 0.18837 0.0
H709 H 0.93379 0.16683 0.14935 0.0
H710 H 1.00264 0.17723 0.15496 0.0
H711 H 1.0006 0.17416 0.19344 0.0
H712 H 0.01003 0.18309 0.35009 0.0
H713 H 1.00353 0.17286 0.31286 0.0
H714 H 0.9416 0.18966 0.3587 0.0
H715 H 0.93551 0.18059 0.3205 0.0
H716 H 0.83879 0.17719 0.28662 0.0
H717 H 0.83763 0.16279 0.2184 0.0
H718 H 0.87653 0.15887 0.21934 0.0
H719 H 0.87803 0.17382 0.28719 0.0
C720 C 0.75029 0.59021 0.20558 0.0
C721 C 0.73439 0.59282 0.22106 0.0
C722 C 0.7281 0.55385 0.22135 0.0
C723 C 0.72326 0.57475 0.22881 0.0
C724 C 0.74364 0.55171 0.20532 0.0
C725 C 0.75443 0.56964 0.19749 0.0
U726 U 0.77791 0.64794 0.2027 0.0
O727 O 0.8133 0.65151 0.20276 0.0
O728 O 0.79402 0.66133 0.17432 0.0
C729 C 0.81314 0.65912 0.18325 0.0
C730 C 0.76486 0.60767 0.19906 0.0
C731 C 0.83284 0.66743 0.17328 0.0
C732 C 0.86606 0.65968 0.15501 0.0
C733 C 0.84604 0.653 0.16253 0.0
C734 C 0.85999 0.69555 0.16885 0.0
C735 C 0.87387 0.68094 0.15863 0.0
C736 C 0.83969 0.68887 0.17598 0.0
C737 C 0.74429 0.68407 0.24346 0.0
C738 C 0.73605 0.71306 0.26821 0.0
C739 C 0.71675 0.67905 0.27024 0.0
C740 C 0.72857 0.67101 0.25289 0.0
C741 C 0.72072 0.70008 0.2784 0.0
C742 C 0.74751 0.70518 0.25092 0.0
C743 C 0.75963 0.67624 0.22763 0.0
O744 O 0.75741 0.62284 0.18666 0.0
O745 O 0.77898 0.61466 0.21355 0.0
O746 O 0.75347 0.67289 0.20751 0.0
O747 O 0.7748 0.66347 0.23435 0.0
H748 H 0.73103 0.60865 0.22754 0.0
H749 H 0.71118 0.5771 0.24088 0.0
H750 H 0.74833 0.53607 0.19938 0.0
H751 H 0.76681 0.56728 0.18569 0.0
H752 H 0.87535 0.64783 0.14658 0.0
H753 H 0.84103 0.63633 0.16032 0.0
H754 H 0.86496 0.71198 0.17228 0.0
H755 H 0.82972 0.70028 0.18431 0.0
H756 H 0.74005 0.72911 0.27416 0.0
H757 H 0.70485 0.66872 0.27752 0.0
H758 H 0.72591 0.65459 0.2473 0.0
H759 H 0.75974 0.7154 0.24396 0.0
C760 C 0.72867 0.01208 0.66022 0.0
C761 C 0.7449 0.01192 0.64488 0.0
C762 C 0.71798 1.00605 0.61596 0.0
C763 C 0.7396 0.00891 0.62292 0.0
C764 C 0.70188 1.00753 0.63152 0.0
C765 C 0.70719 0.01026 0.65329 0.0
U766 U 0.75464 0.01254 0.72021 0.0
O767 O 0.7408 0.03237 0.74633 0.0
O768 O 0.73596 0.99723 0.74566 0.0
C769 C 0.73168 0.01558 0.75519 0.0
C770 C 0.73294 0.01326 0.68364 0.0
C771 C 0.72687 0.01574 0.77842 0.0
C772 C 0.69888 0.0165 0.80525 0.0
C773 C 0.70546 0.01864 0.78405 0.0
C774 C 0.73551 0.00978 0.81623 0.0
C775 C 0.71363 0.01179 0.8219 0.0
C776 C 0.74201 0.01147 0.79469 0.0
C777 C 0.81806 1.00326 0.71578 0.0
C778 C 0.85475 0.99384 0.72511 0.0
C779 C 0.84435 0.99817 0.6878 0.0
C780 C 0.82337 1.00318 0.69397 0.0
C781 C 0.86017 0.99303 0.70334 0.0
C782 C 0.83397 0.99889 0.73121 0.0
C783 C 0.79624 1.00698 0.72366 0.0
O784 O 0.73694 0.99547 0.69389 0.0
O785 O 0.74207 0.03055 0.69246 0.0
O786 O 0.78771 0.02604 0.72158 0.0
O787 O 0.7822 0.99096 0.72267 0.0
H788 H 0.7616 0.01348 0.6499 0.0
H789 H 0.75253 1.00788 0.61159 0.0
H790 H 0.68504 1.00618 0.62704 0.0
H791 H 0.69437 0.01055 0.66485 0.0
H792 H 0.68189 0.01772 0.80812 0.0
H793 H 0.69345 0.02178 0.77174 0.0
H794 H 0.74774 1.00668 0.82826 0.0
H795 H 0.75869 0.00912 0.79076 0.0
H796 H 0.86655 0.99036 0.7375 0.0
H797 H 0.84799 0.99758 0.67086 0.0
H798 H 0.81132 1.00654 0.6818 0.0
H799 H 0.83019 0.99902 0.74813 0.0
C800 C 0.49973 0.07575 0.23892 0.0
C801 C 0.51401 0.07898 0.25645 0.0
C802 C 0.52017 0.11639 0.24599 0.0
C803 C 0.5243 0.09914 0.25986 0.0
C804 C 0.50637 0.11248 0.22811 0.0
C805 C 0.49653 0.09245 0.22458 0.0
U806 U 0.4715 0.01919 0.24932 0.0
O807 O 0.43664 0.01404 0.24495 0.0
O808 O 0.45892 0.99619 0.22418 0.0
C809 C 0.43897 0.99926 0.22994 0.0
C810 C 0.48584 0.05647 0.23586 0.0
C811 C 0.42035 0.99252 0.21623 0.0
C812 C 0.39215 0.99982 0.18991 0.0
C813 C 0.41171 1.00562 0.20029 0.0
C814 C 0.38988 0.96772 0.21114 0.0
C815 C 0.38051 0.98107 0.19565 0.0
C816 C 0.40954 0.97334 0.22115 0.0
C817 C 0.49868 0.99992 0.30425 0.0
C818 C 0.50308 0.98291 0.33882 0.0
C819 C 0.52422 0.01468 0.33069 0.0
C820 C 0.51441 0.01535 0.31023 0.0
C821 C 0.51816 0.99881 0.34551 0.0
C822 C 0.49354 0.98347 0.31843 0.0
C823 C 0.48559 1.00115 0.28448 0.0
O824 O 0.49447 0.03813 0.23018 0.0
O825 O 0.46973 0.05436 0.24903 0.0
O826 O 0.49449 0.99796 0.26572 0.0
O827 O 0.47006 0.01514 0.28421 0.0
H828 H 0.51672 0.06622 0.26774 0.0
H829 H 0.53511 0.10129 0.27355 0.0
H830 H 0.50215 0.12514 0.21722 0.0
H831 H 0.48547 0.09033 0.21104 0.0
H832 H 0.38599 0.01035 0.17771 0.0
H833 H 0.41976 0.02054 0.19626 0.0
H834 H 0.38163 0.9534 0.21646 0.0
H835 H 0.41583 0.9631 0.23358 0.0
H836 H 0.49767 0.97066 0.34972 0.0
H837 H 0.53606 0.02698 0.33511 0.0
H838 H 0.51859 0.02817 0.29945 0.0
H839 H 0.48133 0.97148 0.31407 0.0
C840 C 0.24929 0.70505 0.49384 0.0
C841 C 0.26252 0.70687 0.51231 0.0
C842 C 0.23169 0.71784 0.53358 0.0
C843 C 0.25375 0.71322 0.53208 0.0
C844 C 0.21857 0.71489 0.5151 0.0
C845 C 0.22731 0.70879 0.49553 0.0
U846 U 0.29055 0.69575 0.44713 0.0
O847 O 0.28548 0.67378 0.41921 0.0
O848 O 0.28634 0.7092 0.4147 0.0
C849 C 0.28456 0.68992 0.4059 0.0
C850 C 0.25732 0.70025 0.47219 0.0
C851 C 0.27942 0.68654 0.38298 0.0
C852 C 0.25333 0.68175 0.35385 0.0
C853 C 0.25833 0.68214 0.37586 0.0
C854 C 0.29062 0.68928 0.3459 0.0
C855 C 0.26936 0.68564 0.33855 0.0
C856 C 0.29555 0.68981 0.36791 0.0
C857 C 0.35209 0.70222 0.46927 0.0
C858 C 0.38923 0.71038 0.46095 0.0
C859 C 0.37827 0.70872 0.49803 0.0
C860 C 0.35739 0.70332 0.49117 0.0
C861 C 0.3944 0.7129 0.48304 0.0
C862 C 0.36815 0.70535 0.45411 0.0
C863 C 0.32939 0.69983 0.46296 0.0
O864 O 0.26633 0.71623 0.46198 0.0
O865 O 0.26651 0.68168 0.4687 0.0
O866 O 0.31951 0.68101 0.46139 0.0
O867 O 0.31868 0.71623 0.45561 0.0
H868 H 0.27957 0.70397 0.51135 0.0
H869 H 0.2644 0.71538 0.5459 0.0
H870 H 0.20147 0.71767 0.51556 0.0
H871 H 0.21683 0.70737 0.48147 0.0
H872 H 0.2367 0.67927 0.34894 0.0
H873 H 0.24562 0.67981 0.38729 0.0
H874 H 0.30343 0.69201 0.33469 0.0
H875 H 0.31192 0.6933 0.37322 0.0
H876 H 0.40128 0.71299 0.44889 0.0
H877 H 0.38134 0.7108 0.5151 0.0
H878 H 0.34507 0.70106 0.50305 0.0
H879 H 0.36431 0.70448 0.43707 0.0
C880 C 0.74271 0.6025 0.48579 0.0
C881 C 0.72672 0.59891 0.46996 0.0
C882 C 0.71999 0.63749 0.46914 0.0
C883 C 0.71529 0.61632 0.4618 0.0
C884 C 0.73547 0.6406 0.48571 0.0
C885 C 0.74654 0.62329 0.49398 0.0
U886 U 0.77556 0.54818 0.49139 0.0
O887 O 0.81061 0.55168 0.49401 0.0
O888 O 0.79256 0.53943 0.52147 0.0
C889 C 0.81134 0.54533 0.51398 0.0
C890 C 0.7579 0.58604 0.49232 0.0
C891 C 0.83099 0.53467 0.52131 0.0
C892 C 0.86536 0.53911 0.53999 0.0
C893 C 0.84518 0.54684 0.53445 0.0
C894 C 0.85743 0.5064 0.51958 0.0
C895 C 0.87218 0.51904 0.53215 0.0
C896 C 0.83698 0.51417 0.51418 0.0
C897 C 0.7461 0.50718 0.45101 0.0
C898 C 0.73844 0.47854 0.42497 0.0
C899 C 0.71748 0.51094 0.42439 0.0
C900 C 0.72941 0.51921 0.44213 0.0
C901 C 0.72236 0.49075 0.41513 0.0
C902 C 0.75002 0.48664 0.44272 0.0
C903 C 0.76144 0.51579 0.46728 0.0
O904 O 0.75174 0.57046 0.50495 0.0
O905 O 0.77246 0.58047 0.47838 0.0
O906 O 0.75473 0.5193 0.48693 0.0
O907 O 0.77551 0.53016 0.46081 0.0
H908 H 0.72364 0.58288 0.46343 0.0
H909 H 0.7032 0.61326 0.44937 0.0
H910 H 0.73998 0.65654 0.49161 0.0
H911 H 0.75902 0.62636 0.50607 0.0
H912 H 0.87566 0.54919 0.55024 0.0
H913 H 0.84087 0.56276 0.54003 0.0
H914 H 0.86193 0.49092 0.51309 0.0
H915 H 0.82623 0.50455 0.50392 0.0
H916 H 0.74309 0.46318 0.41828 0.0
H917 H 0.70492 0.52065 0.41754 0.0
H918 H 0.7261 0.53514 0.4484 0.0
H919 H 0.76292 0.47718 0.44935 0.0
C920 C 0.95992 0.59976 0.98345 0.0
C921 C 0.97591 0.59728 0.96793 0.0
C922 C 0.98021 0.55941 0.97767 0.0
C923 C 0.98608 0.57731 0.96517 0.0
C924 C 0.96446 0.5625 0.99338 0.0
C925 C 0.95473 0.58232 0.99631 0.0
U926 U 0.93714 0.65728 0.97097 0.0
O927 O 0.90256 0.66444 0.96975 0.0
O928 O 0.9238 0.68128 0.99382 0.0
C929 C 0.90441 0.67894 0.98526 0.0
C930 C 0.94655 0.61913 0.98584 0.0
C931 C 0.88513 0.68863 0.99485 0.0
C932 C 0.85191 0.6857 0.01477 0.0
C933 C 0.87151 0.67703 0.00826 0.0
C934 C 0.85934 0.71769 0.99458 0.0
C935 C 0.84497 0.7059 1.00735 0.0
C936 C 0.87915 0.70923 0.98862 0.0
C937 C 0.96937 0.68242 0.92076 0.0
C938 C 0.96801 0.70733 0.89123 0.0
C939 C 0.9957 0.6805 0.89248 0.0
C940 C 0.98764 0.67321 0.9119 0.0
C941 C 0.98568 0.69731 0.88162 0.0
C942 C 0.9598 0.69983 0.9106 0.0
C943 C 0.95936 0.67177 0.93902 0.0
O944 O 0.95551 0.63705 0.99345 0.0
O945 O 0.93212 0.62225 0.97067 0.0
O946 O 0.94177 0.66006 0.93619 0.0
O947 O 0.96458 0.67667 0.95909 0.0
H948 H 0.9802 0.61055 0.95773 0.0
H949 H 0.9983 0.57588 0.95311 0.0
H950 H 0.95875 0.54939 1.00304 0.0
H951 H 0.94234 0.58376 0.00824 0.0
H952 H 0.84216 0.67619 0.02534 0.0
H953 H 0.8758 0.6611 0.01339 0.0
H954 H 0.8551 0.7331 0.98819 0.0
H955 H 0.88942 0.71846 0.9782 0.0
H956 H 0.95989 0.72031 0.88329 0.0
H957 H 0.00953 0.67271 0.88577 0.0
H958 H 0.99518 0.65972 0.91959 0.0
H959 H 0.94562 0.70711 0.91719 0.0
C960 C 0.49349 0.96713 0.99992 0.0
C961 C 0.50815 0.95025 1.00084 0.0
C962 C 0.53722 0.97433 0.98898 0.0
C963 C 0.52984 0.95382 0.99541 0.0
C964 C 0.5225 0.99129 0.9896 0.0
C965 C 0.50101 0.98766 0.99468 0.0
U966 U 0.4361 0.93931 0.00823 0.0
O967 O 0.40737 0.94955 0.99035 0.0
O968 O 0.40909 0.95424 0.02562 0.0
C969 C 0.39824 0.95722 1.00764 0.0
C970 C 0.47008 0.96438 1.00292 0.0
C971 C 0.37482 0.96099 1.00735 0.0
C972 C 0.34668 0.9876 1.0062 0.0
C973 C 0.3682 0.98229 0.00927 0.0
C974 C 0.33748 0.95004 1.00025 0.0
C975 C 0.33088 0.97167 1.00139 0.0
C976 C 0.35929 0.94476 1.00303 0.0
C977 C 0.44295 0.87482 0.01315 0.0
C978 C 0.42871 0.83837 0.00976 0.0
C979 C 0.46707 0.84475 0.0141 0.0
C980 C 0.46375 0.86689 0.01523 0.0
C981 C 0.44961 0.83026 0.01086 0.0
C982 C 0.42544 0.86049 0.01084 0.0
C983 C 0.43931 0.89788 0.01137 0.0
O984 O 0.45883 0.95554 0.98696 0.0
O985 O 0.46295 0.95924 0.02194 0.0
O986 O 0.44036 0.9108 0.02831 0.0
O987 O 0.43724 0.90717 0.99268 0.0
H988 H 0.50273 0.93427 1.00504 0.0
H989 H 0.54048 0.94027 0.99533 0.0
H990 H 0.52734 1.00753 0.98576 0.0
H991 H 0.49005 1.00098 0.99405 0.0
H992 H 0.34273 1.00445 1.00669 0.0
H993 H 0.37993 0.9951 0.01227 0.0
H994 H 0.3259 0.9372 0.99689 0.0
H995 H 0.36403 0.92816 1.00138 0.0
H996 H 0.41493 0.82766 1.00751 0.0
H997 H 0.48341 0.83909 0.01466 0.0
H998 H 0.47746 0.8778 0.01687 0.0
H999 H 0.40927 0.86647 0.00922 0.0
C1000 C 0.60243 0.48616 0.7425 0.0
C1001 C 0.59885 0.47032 0.72652 0.0
C1002 C 0.63742 0.46951 0.7198 0.0
C1003 C 0.61626 0.46215 0.71509 0.0
C1004 C 0.64052 0.48609 0.73528 0.0
C1005 C 0.62321 0.49436 0.74634 0.0
U1006 U 0.54808 0.4917 0.77527 0.0
O1007 O 0.5515 0.49428 0.81033 0.0
O1008 O 0.53928 0.52177 0.79228 0.0
C1009 C 0.54515 0.51425 0.81106 0.0
C1010 C 0.58596 0.49268 0.75768 0.0
C1011 C 0.53454 0.52161 0.83072 0.0
C1012 C 0.53905 0.54031 0.86508 0.0
C1013 C 0.54675 0.53471 0.84491 0.0
C1014 C 0.50628 0.52 0.85718 0.0
C1015 C 0.51897 0.53253 0.87192 0.0
C1016 C 0.51402 0.51456 0.83672 0.0
C1017 C 0.50711 0.45129 0.74577 0.0
C1018 C 0.4785 0.4252 0.73818 0.0
C1019 C 0.51082 0.4247 0.7171 0.0
C1020 C 0.51909 0.44246 0.72902 0.0
C1021 C 0.49067 0.4154 0.72205 0.0
C1022 C 0.4866 0.44296 0.74976 0.0
C1023 C 0.51574 0.46757 0.7611 0.0
O1024 O 0.57038 0.50531 0.7515 0.0
O1025 O 0.58037 0.47873 0.77222 0.0
O1026 O 0.51924 0.48723 0.75439 0.0
O1027 O 0.53009 0.46109 0.77517 0.0
H1028 H 0.58284 0.46379 0.72342 0.0
H1029 H 0.61321 0.44972 0.70301 0.0
H1030 H 0.65644 0.49199 0.73979 0.0
H1031 H 0.62627 0.50646 0.75882 0.0
H1032 H 0.54917 0.55054 0.87535 0.0
H1033 H 0.56269 0.54024 0.84058 0.0
H1034 H 0.49079 0.51356 0.86168 0.0
H1035 H 0.50436 0.50434 0.82597 0.0
H1036 H 0.46318 0.41848 0.74288 0.0
H1037 H 0.52049 0.41787 0.70451 0.0
H1038 H 0.53498 0.44876 0.72566 0.0
H1039 H 0.47719 0.44956 0.7627 0.0
C1040 C 0.1825 0.2586 0.53862 0.0
C1041 C 0.16849 0.27589 0.53665 0.0
C1042 C 0.13848 0.2508 0.52856 0.0
C1043 C 0.14661 0.27201 0.53163 0.0
C1044 C 0.15263 0.23371 0.53189 0.0
C1045 C 0.17432 0.2376 0.53656 0.0
U1046 U 0.24108 0.28505 0.54294 0.0
O1047 O 0.26845 0.26836 0.52902 0.0
O1048 O 0.26704 0.27319 0.56411 0.0
C1049 C 0.27734 0.26475 0.54785 0.0
C1050 C 0.20589 0.26114 0.54171 0.0
C1051 C 0.30086 0.26323 0.549 0.0
C1052 C 0.33118 0.2393 0.55054 0.0
C1053 C 0.30923 0.24279 0.55206 0.0
C1054 C 0.33712 0.27719 0.54423 0.0
C1055 C 0.3456 0.25633 0.54632 0.0
C1056 C 0.31489 0.28056 0.54528 0.0
C1057 C 0.2397 0.34952 0.53453 0.0
C1058 C 0.25872 0.38281 0.52731 0.0
C1059 C 0.2198 0.38191 0.52794 0.0
C1060 C 0.22015 0.36014 0.53291 0.0
C1061 C 0.23907 0.39345 0.52467 0.0
C1062 C 0.25901 0.36095 0.53202 0.0
C1063 C 0.23974 0.3263 0.53757 0.0
O1064 O 0.2172 0.26545 0.52466 0.0
O1065 O 0.21344 0.27047 0.55944 0.0
O1066 O 0.23877 0.31785 0.55675 0.0
O1067 O 0.24169 0.31275 0.52132 0.0
H1068 H 0.17453 0.29226 0.53832 0.0
H1069 H 0.13637 0.28566 0.52923 0.0
H1070 H 0.14714 0.21715 0.5305 0.0
H1071 H 0.18488 0.22403 0.53815 0.0
H1072 H 0.3365 0.22293 0.55173 0.0
H1073 H 0.29858 0.22918 0.55475 0.0
H1074 H 0.34751 0.29093 0.54146 0.0
H1075 H 0.30869 0.29649 0.5428 0.0
H1076 H 0.27389 0.39123 0.52527 0.0
H1077 H 0.20437 0.38936 0.52568 0.0
H1078 H 0.2051 0.35141 0.53475 0.0
H1079 H 0.27425 0.3529 0.53329 0.0
C1080 C 0.16699 0.69891 0.18828 0.0
C1081 C 0.16273 0.71343 0.17187 0.0
C1082 C 0.126 0.69897 0.16816 0.0
C1083 C 0.14238 0.71334 0.16172 0.0
C1084 C 0.13094 0.684 0.18413 0.0
C1085 C 0.1512 0.6839 0.19389 0.0
U1086 U 0.22203 0.71666 0.21848 0.0
O1087 O 0.22228 0.71381 0.25352 0.0
O1088 O 0.24342 0.69318 0.23412 0.0
C1089 C 0.23594 0.69803 0.2532 0.0
C1090 C 0.18623 0.70032 0.20214 0.0
C1091 C 0.24781 0.69317 0.27305 0.0
C1092 C 0.24691 0.67382 0.30651 0.0
C1093 C 0.23913 0.67697 0.28573 0.0
C1094 C 0.27319 0.70245 0.30196 0.0
C1095 C 0.26353 0.68698 0.31525 0.0
C1096 C 0.26526 0.70564 0.28099 0.0
C1097 C 0.24509 0.77095 0.19293 0.0
C1098 C 0.26404 0.8052 0.19204 0.0
C1099 C 0.23515 0.79728 0.16639 0.0
C1100 C 0.23221 0.77691 0.17539 0.0
C1101 C 0.25073 0.81193 0.17508 0.0
C1102 C 0.2613 0.78494 0.2007 0.0
C1103 C 0.24124 0.75157 0.20542 0.0
O1104 O 0.20515 0.69519 0.19468 0.0
O1105 O 0.18687 0.71536 0.21718 0.0
O1106 O 0.22575 0.75178 0.21946 0.0
O1107 O 0.24544 0.73247 0.1973 0.0
H1108 H 0.1748 0.7252 0.16742 0.0
H1109 H 0.13935 0.72483 0.14923 0.0
H1110 H 0.11889 0.67296 0.19005 0.0
H1111 H 0.15416 0.67272 0.20673 0.0
H1112 H 0.2394 0.66141 0.31593 0.0
H1113 H 0.22555 0.66729 0.27986 0.0
H1114 H 0.28603 0.71291 0.30811 0.0
H1115 H 0.27211 0.71833 0.27143 0.0
H1116 H 0.27585 0.81596 0.19961 0.0
H1117 H 0.22483 0.80178 0.1531 0.0
H1118 H 0.21958 0.76622 0.16917 0.0
H1119 H 0.27127 0.7806 0.21435 0.0
C1120 C 0.49487 0.24906 0.70483 0.0
C1121 C 0.51345 0.2621 0.70689 0.0
C1122 C 0.53427 0.23097 0.71793 0.0
C1123 C 0.53305 0.25309 0.71339 0.0
C1124 C 0.51569 0.21804 0.71467 0.0
C1125 C 0.49628 0.22702 0.70843 0.0
U1126 U 0.44786 0.29018 0.69527 0.0
O1127 O 0.42037 0.28435 0.67285 0.0
O1128 O 0.41539 0.28499 0.7082 0.0
C1129 C 0.40698 0.28243 0.68883 0.0
C1130 C 0.47336 0.25734 0.69994 0.0
C1131 C 0.38395 0.27807 0.68521 0.0
C1132 C 0.35448 0.25224 0.68112 0.0
C1133 C 0.37651 0.25698 0.68155 0.0
C1134 C 0.34706 0.28996 0.6867 0.0
C1135 C 0.33935 0.26859 0.68405 0.0
C1136 C 0.36914 0.29458 0.68754 0.0
C1137 C 0.46939 0.35201 0.70186 0.0
C1138 C 0.46119 0.38917 0.71006 0.0
C1139 C 0.49824 0.37813 0.70827 0.0
C1140 C 0.49132 0.35724 0.70288 0.0
C1141 C 0.48329 0.3943 0.71251 0.0
C1142 C 0.4543 0.36812 0.70504 0.0
C1143 C 0.46273 0.32939 0.69942 0.0
O1144 O 0.46302 0.26625 0.71588 0.0
O1145 O 0.47001 0.26659 0.68139 0.0
O1146 O 0.46172 0.31938 0.68065 0.0
O1147 O 0.45547 0.31857 0.71579 0.0
H1148 H 0.51268 0.27919 0.70407 0.0
H1149 H 0.54695 0.26361 0.71576 0.0
H1150 H 0.51594 0.20091 0.71733 0.0
H1151 H 0.48213 0.21668 0.70679 0.0
H1152 H 0.34951 0.23554 0.6795 0.0
H1153 H 0.38777 0.24399 0.67995 0.0
H1154 H 0.33611 0.30314 0.68853 0.0
H1155 H 0.37467 0.311 0.69047 0.0
H1156 H 0.44916 0.40124 0.71269 0.0
H1157 H 0.51532 0.3812 0.71029 0.0
H1158 H 0.50315 0.34488 0.70056 0.0
H1159 H 0.43726 0.36432 0.70422 0.0
C1160 C 0.15993 0.52377 0.49263 0.0
C1161 C 0.15827 0.50923 0.50954 0.0
C1162 C 0.12077 0.51915 0.51453 0.0
C1163 C 0.1388 0.50703 0.52052 0.0
C1164 C 0.12311 0.53421 0.49808 0.0
C1165 C 0.14243 0.53654 0.48743 0.0
U1166 U 0.21394 0.50745 0.46488 0.0
O1167 O 0.21705 0.50671 0.42981 0.0
O1168 O 0.23751 0.52929 0.4496 0.0
C1169 C 0.23274 0.52105 0.43048 0.0
C1170 C 0.17833 0.52479 0.47818 0.0
C1171 C 0.24013 0.53077 0.41058 0.0
C1172 C 0.23347 0.55149 0.37861 0.0
C1173 C 0.2275 0.54519 0.39919 0.0
C1174 C 0.26467 0.52893 0.38076 0.0
C1175 C 0.25176 0.54283 0.36868 0.0
C1176 C 0.25899 0.52316 0.4015 0.0
C1177 C 0.23424 0.45518 0.49557 0.0
C1178 C 0.25317 0.42197 0.50062 0.0
C1179 C 0.22225 0.43004 0.52228 0.0
C1180 C 0.22001 0.44965 0.51181 0.0
C1181 C 0.23851 0.41568 0.51633 0.0
C1182 C 0.25108 0.44154 0.49046 0.0
C1183 C 0.23109 0.4736 0.48176 0.0
O1184 O 0.19737 0.53044 0.48611 0.0
O1185 O 0.17889 0.50969 0.46322 0.0
O1186 O 0.23585 0.49317 0.48882 0.0
O1187 O 0.21579 0.47239 0.46698 0.0
H1188 H 0.17169 0.4992 0.51377 0.0
H1189 H 0.13774 0.49554 0.53333 0.0
H1190 H 0.10969 0.54357 0.49253 0.0
H1191 H 0.14337 0.54772 0.47431 0.0
H1192 H 0.22335 0.56278 0.3704 0.0
H1193 H 0.21278 0.55114 0.40595 0.0
H1194 H 0.27862 0.5215 0.37395 0.0
H1195 H 0.26879 0.51177 0.41004 0.0
H1196 H 0.26561 0.41132 0.49524 0.0
H1197 H 0.21091 0.42587 0.53458 0.0
H1198 H 0.20689 0.46008 0.51587 0.0
H1199 H 0.26208 0.44558 0.47779 0.0
C1200 C 0.19408 0.96663 0.16781 0.0
C1201 C 0.18127 0.94793 0.16515 0.0
C1202 C 0.14873 0.96842 0.17284 0.0
C1203 C 0.15881 0.94881 0.16769 0.0
C1204 C 0.16182 0.98717 0.17398 0.0
C1205 C 0.18406 0.98619 0.17185 0.0
U1206 U 0.2538 0.94505 0.16784 0.0
O1207 O 0.2792 0.95941 0.18878 0.0
O1208 O 0.28211 0.9613 0.1537 0.0
C1209 C 0.29041 0.96661 0.17267 0.0
C1210 C 0.21788 0.96685 0.16789 0.0
C1211 C 0.31402 0.96878 0.17565 0.0
C1212 C 0.34448 0.99342 0.18164 0.0
C1213 C 0.32292 0.98961 0.1759 0.0
C1214 C 0.34923 0.95526 0.18583 0.0
C1215 C 0.35804 0.97641 0.18709 0.0
C1216 C 0.32739 0.9515 0.18038 0.0
C1217 C 0.25234 0.87984 0.16434 0.0
C1218 C 0.27128 0.84669 0.16983 0.0
C1219 C 0.23273 0.84582 0.16369 0.0
C1220 C 0.23308 0.86812 0.16153 0.0
C1221 C 0.25173 0.83485 0.16854 0.0
C1222 C 0.27152 0.86904 0.16802 0.0
C1223 C 0.25177 0.90332 0.16538 0.0
O1224 O 0.2276 0.96028 0.18539 0.0
O1225 O 0.22784 0.96149 0.1502 0.0
O1226 O 0.2535 0.91511 0.14816 0.0
O1227 O 0.25193 0.91381 0.18389 0.0
H1228 H 0.18864 0.93263 0.16184 0.0
H1229 H 0.14961 0.93393 0.16651 0.0
H1230 H 0.1551 1.00283 0.17686 0.0
H1231 H 0.19358 1.00086 0.17379 0.0
H1232 H 0.35009 0.00995 0.18274 0.0
H1233 H 0.31287 1.00323 0.17253 0.0
H1234 H 0.35905 0.94156 0.18941 0.0
H1235 H 0.3209 0.93524 0.18035 0.0
H1236 H 0.28632 0.8388 0.17304 0.0
H1237 H 0.21735 0.83745 0.16283 0.0
H1238 H 0.21812 0.87633 0.15873 0.0
H1239 H 0.28655 0.87793 0.17015 0.0
C1240 C 0.55174 0.70455 0.98508 0.0
C1241 C 0.5557 0.72157 0.99979 0.0
C1242 C 0.59399 0.71303 1.00086 0.0
C1243 C 0.57669 0.72565 1.00779 0.0
C1244 C 0.58943 0.69555 0.98674 0.0
C1245 C 0.56861 0.69132 0.97915 0.0
U1246 U 0.49268 0.71455 0.96313 0.0
O1247 O 0.48625 0.7127 0.92836 0.0
O1248 O 0.47013 0.68951 0.94978 0.0
C1249 C 0.47383 0.6956 0.93003 0.0
C1250 C 0.53145 0.70156 0.97291 0.0
C1251 C 0.46028 0.68844 0.91168 0.0
C1252 C 0.45848 0.66822 0.87801 0.0
C1253 C 0.46842 0.67272 0.89786 0.0
C1254 C 0.43135 0.69445 0.88597 0.0
C1255 C 0.44027 0.6796 0.87137 0.0
C1256 C 0.44136 0.69891 0.90596 0.0
C1257 C 0.46665 0.76628 0.99269 0.0
C1258 C 0.4425 0.7962 0.98954 0.0
C1259 C 0.47009 0.79661 0.0175 0.0
C1260 C 0.47659 0.77632 0.01062 0.0
C1261 C 0.45355 0.80715 1.0065 0.0
C1262 C 0.44913 0.77593 0.98258 0.0
C1263 C 0.47682 0.74761 0.98292 0.0
O1264 O 0.51425 0.69444 0.98269 0.0
O1265 O 0.52739 0.71593 0.95832 0.0
O1266 O 0.48851 0.74952 0.96568 0.0
O1267 O 0.473 0.72789 0.9893 0.0
H1268 H 0.54283 0.73204 1.00448 0.0
H1269 H 0.57941 0.73898 0.01895 0.0
H1270 H 0.60207 0.68564 0.9805 0.0
H1271 H 0.5659 0.67828 0.9676 0.0
H1272 H 0.46556 0.65627 0.8676 0.0
H1273 H 0.48314 0.66459 0.90199 0.0
H1274 H 0.41741 0.70363 0.88152 0.0
H1275 H 0.43494 0.71121 0.91643 0.0
H1276 H 0.42973 0.80387 0.98066 0.0
H1277 H 0.47865 0.80443 0.03084 0.0
H1278 H 0.49021 0.76903 0.01852 0.0
H1279 H 0.44134 0.76833 0.96865 0.0
C1280 C 1.00018 0.49356 0.96682 0.0
C1281 C 1.00108 0.50823 0.94995 0.0
C1282 C 0.98924 0.53729 0.97403 0.0
C1283 C 0.99565 0.52991 0.95352 0.0
C1284 C 0.98985 0.52255 0.99099 0.0
C1285 C 0.99493 0.50106 0.98734 0.0
U1286 U 0.00843 0.43607 0.93907 0.0
O1287 O 0.99057 0.40744 0.94961 0.0
O1288 O 0.02584 0.40915 0.95413 0.0
C1289 C 1.00787 0.39833 0.95726 0.0
C1290 C 1.00319 0.47015 0.96401 0.0
C1291 C 1.00762 0.37488 0.96088 0.0
C1292 C 1.00646 0.34666 0.9874 0.0
C1293 C 0.00954 0.36819 0.98215 0.0
C1294 C 1.00052 0.33756 0.94983 0.0
C1295 C 1.00166 0.3309 0.97144 0.0
C1296 C 1.0033 0.3594 0.94461 0.0
C1297 C 0.01291 0.4427 0.87454 0.0
C1298 C 0.0092 0.42904 0.83784 0.0
C1299 C 0.01401 0.46727 0.84486 0.0
C1300 C 0.0151 0.46363 0.86694 0.0
C1301 C 0.01065 0.45004 0.83009 0.0
C1302 C 0.01037 0.42543 0.85991 0.0
C1303 C 0.01138 0.43849 0.89753 0.0
O1304 O 0.98721 0.45889 0.95523 0.0
O1305 O 0.0222 0.46305 0.95879 0.0
O1306 O 0.02836 0.43999 0.91039 0.0
O1307 O 0.99274 0.43685 0.90699 0.0
H1308 H 1.00528 0.50281 0.93397 0.0
H1309 H 0.99556 0.54055 0.93998 0.0
H1310 H 0.98602 0.52739 1.00722 0.0
H1311 H 0.9943 0.49008 1.00065 0.0
H1312 H 1.00695 0.34267 1.00424 0.0
H1313 H 0.01253 0.37989 0.995 0.0
H1314 H 0.99716 0.32601 0.93697 0.0
H1315 H 1.00164 0.36419 0.92803 0.0
H1316 H 1.00683 0.41547 0.82689 0.0
H1317 H 0.01489 0.48369 0.83941 0.0
H1318 H 0.01693 0.47716 0.87805 0.0
H1319 H 0.00868 0.40916 0.86564 0.0
C1320 C 0.696 0.19078 0.16606 0.0
C1321 C 0.71116 0.17466 0.16263 0.0
C1322 C 0.69775 0.16948 0.1256 0.0
C1323 C 0.7119 0.16394 0.14253 0.0
C1324 C 0.68228 0.1852 0.12973 0.0
C1325 C 0.68134 0.19547 0.14968 0.0
U1326 U 0.71621 0.21836 0.22039 0.0
O1327 O 0.71795 0.25357 0.22445 0.0
O1328 O 0.69654 0.2342 0.24521 0.0
C1329 C 0.70435 0.25323 0.2403 0.0
C1330 C 0.69623 0.20532 0.18495 0.0
C1331 C 0.69621 0.27324 0.24964 0.0
C1332 C 0.67569 0.30589 0.2464 0.0
C1333 C 0.68023 0.285 0.23925 0.0
C1334 C 0.70269 0.30309 0.27462 0.0
C1335 C 0.68743 0.31553 0.26374 0.0
C1336 C 0.70692 0.28216 0.26769 0.0
C1337 C 0.77031 0.18977 0.24187 0.0
C1338 C 0.8042 0.19407 0.26134 0.0
C1339 C 0.79801 0.16334 0.23742 0.0
C1340 C 0.77736 0.17046 0.23287 0.0
C1341 C 0.81195 0.17547 0.25109 0.0
C1342 C 0.78352 0.20127 0.25663 0.0
C1343 C 0.75057 0.19894 0.23331 0.0
O1344 O 0.69163 0.19758 0.20389 0.0
O1345 O 0.71146 0.22014 0.18557 0.0
O1346 O 0.75127 0.21491 0.21982 0.0
O1347 O 0.73147 0.19356 0.24035 0.0
H1348 H 0.72273 0.17086 0.17512 0.0
H1349 H 0.72383 0.15172 0.14012 0.0
H1350 H 0.67142 0.19055 0.11726 0.0
H1351 H 0.66971 0.20804 0.15194 0.0
H1352 H 0.66345 0.31469 0.2379 0.0
H1353 H 0.67184 0.27835 0.22519 0.0
H1354 H 0.71235 0.30982 0.28778 0.0
H1355 H 0.71949 0.27336 0.27572 0.0
H1356 H 0.81457 0.20384 0.27186 0.0
H1357 H 0.80338 0.14881 0.22952 0.0
H1358 H 0.7673 0.16149 0.22137 0.0
H1359 H 0.77826 0.21628 0.26366 0.0
C1360 C 0.6977 0.69472 0.43866 0.0
C1361 C 0.70005 0.67588 0.42636 0.0
C1362 C 0.71028 0.65653 0.45875 0.0
C1363 C 0.70632 0.65687 0.43636 0.0
C1364 C 0.70678 0.67536 0.47093 0.0
C1365 C 0.70076 0.69422 0.46096 0.0
U1366 U 0.68811 0.74424 0.3994 0.0
O1367 O 0.66512 0.76964 0.40773 0.0
O1368 O 0.70034 0.77631 0.40987 0.0
C1369 C 0.68083 0.78337 0.41253 0.0
C1370 C 0.693 0.71561 0.42931 0.0
C1371 C 0.67686 0.8057 0.41905 0.0
C1372 C 0.67415 0.83236 0.44777 0.0
C1373 C 0.67438 0.81087 0.4408 0.0
C1374 C 0.67711 0.84368 0.41094 0.0
C1375 C 0.6761 0.84924 0.43303 0.0
C1376 C 0.67788 0.82217 0.4041 0.0
C1377 C 0.69732 0.7264 0.33776 0.0
C1378 C 0.70583 0.73044 0.30018 0.0
C1379 C 0.70694 0.69525 0.31612 0.0
C1380 C 0.7005 0.70421 0.33583 0.0
C1381 C 0.71031 0.70843 0.29822 0.0
C1382 C 0.69962 0.73929 0.31974 0.0
C1383 C 0.69284 0.73742 0.3582 0.0
O1384 O 0.70903 0.72716 0.42196 0.0
O1385 O 0.67454 0.71843 0.41925 0.0
O1386 O 0.67437 0.73428 0.3677 0.0
O1387 O 0.70895 0.74265 0.37127 0.0
H1388 H 0.69765 0.67601 0.40909 0.0
H1389 H 0.70898 0.64278 0.42641 0.0
H1390 H 0.70911 0.67573 0.48821 0.0
H1391 H 0.69889 0.70865 0.47071 0.0
H1392 H 0.67361 0.8355 0.46487 0.0
H1393 H 0.6737 0.79828 0.45258 0.0
H1394 H 0.67785 0.85585 0.39879 0.0
H1395 H 0.67983 0.81842 0.38719 0.0
H1396 H 0.70769 0.74107 0.28673 0.0
H1397 H 0.7103 0.67826 0.31524 0.0
H1398 H 0.69871 0.694 0.34961 0.0
H1399 H 0.69713 0.75647 0.32093 0.0
C1400 C 0.98368 0.95987 0.59946 0.0
C1401 C 0.96817 0.97587 0.59698 0.0
C1402 C 0.97791 0.9802 0.55912 0.0
C1403 C 0.96541 0.98606 0.57701 0.0
C1404 C 0.99361 0.96443 0.56221 0.0
C1405 C 0.99653 0.95468 0.58202 0.0
U1406 U 0.9712 0.93706 0.65698 0.0
O1407 O 0.96999 0.90247 0.66415 0.0
O1408 O 0.99405 0.92372 0.68099 0.0
C1409 C 0.98549 0.90432 0.67867 0.0
C1410 C 0.98606 0.9465 0.61884 0.0
C1411 C 0.99511 0.88501 0.68831 0.0
C1412 C 0.01494 0.85172 0.68527 0.0
C1413 C 0.00843 0.87135 0.67664 0.0
C1414 C 0.99496 0.85919 0.71736 0.0
C1415 C 1.00763 0.84477 0.70551 0.0
C1416 C 0.98899 0.87903 0.70894 0.0
C1417 C 0.92097 0.96933 0.68207 0.0
C1418 C 0.89146 0.96809 0.707 0.0
C1419 C 0.89271 0.9957 0.68008 0.0
C1420 C 0.91212 0.98759 0.67281 0.0
C1421 C 0.88186 0.98575 0.69693 0.0
C1422 C 0.9108 0.95984 0.69952 0.0
C1423 C 0.93923 0.95926 0.67149 0.0
O1424 O 0.99367 0.95546 0.63675 0.0
O1425 O 0.97089 0.93205 0.62196 0.0
O1426 O 0.93641 0.94167 0.65976 0.0
O1427 O 0.9593 0.9645 0.67637 0.0
H1428 H 0.95796 0.98017 0.61024 0.0
H1429 H 0.95336 0.99829 0.57559 0.0
H1430 H 1.00327 0.95873 0.54911 0.0
H1431 H 0.00845 0.94229 0.58346 0.0
H1432 H 0.02545 0.84196 0.6757 0.0
H1433 H 0.01347 0.87564 0.66069 0.0
H1434 H 0.98865 0.85497 0.73281 0.0
H1435 H 0.97866 0.88932 0.71824 0.0
H1436 H 0.88352 0.96002 0.72002 0.0
H1437 H 0.88601 0.00952 0.67224 0.0
H1438 H 0.91981 0.99508 0.65929 0.0
H1439 H 0.91739 0.94567 0.70685 0.0
C1440 C 0.01198 0.66055 0.72843 0.0
C1441 C 0.01182 0.64521 0.74466 0.0
C1442 C 1.00596 0.61628 0.71774 0.0
C1443 C 0.00881 0.62324 0.73936 0.0
C1444 C 1.00744 0.63185 0.70164 0.0
C1445 C 0.01016 0.65362 0.70695 0.0
U1446 U 0.01244 0.72054 0.7544 0.0
O1447 O 0.03229 0.74665 0.74056 0.0
O1448 O 0.99716 0.74598 0.73568 0.0
C1449 C 0.01553 0.75551 0.73141 0.0
C1450 C 0.01317 0.68396 0.7327 0.0
C1451 C 0.0157 0.77874 0.72661 0.0
C1452 C 0.01644 0.80556 0.6986 0.0
C1453 C 0.01857 0.78436 0.70518 0.0
C1454 C 0.0098 0.81656 0.73525 0.0
C1455 C 0.01177 0.82223 0.71336 0.0
C1456 C 0.01147 0.79502 0.74175 0.0
C1457 C 1.0031 0.71615 0.81781 0.0
C1458 C 0.99367 0.72549 0.85449 0.0
C1459 C 0.99806 0.68817 0.84411 0.0
C1460 C 1.00305 0.69433 0.82313 0.0
C1461 C 0.99291 0.70372 0.85992 0.0
C1462 C 0.9987 0.73158 0.8337 0.0
C1463 C 1.00684 0.72402 0.79598 0.0
O1464 O 0.99538 0.69422 0.73669 0.0
O1465 O 0.03044 0.69278 0.74185 0.0
O1466 O 0.0259 0.72193 0.78748 0.0
O1467 O 0.99084 0.72302 0.78193 0.0
H1468 H 0.01338 0.65022 0.76136 0.0
H1469 H 1.00778 0.6119 0.75229 0.0
H1470 H 1.00609 0.62736 0.68479 0.0
H1471 H 0.01045 0.66518 0.69413 0.0
H1472 H 0.01763 0.80842 0.68161 0.0
H1473 H 0.02168 0.77204 0.69317 0.0
H1474 H 1.00674 0.82859 0.74749 0.0
H1475 H 0.00915 0.79109 0.75844 0.0
H1476 H 0.99018 0.73788 0.86628 0.0
H1477 H 0.9975 0.67122 0.84776 0.0
H1478 H 1.00644 0.68215 0.81108 0.0
H1479 H 0.9988 0.74851 0.82991 0.0
C1480 C 0.96967 0.19452 0.08226 0.0
C1481 C 0.95363 0.17988 0.0885 0.0
C1482 C 0.96925 0.17912 0.12509 0.0
C1483 C 0.95356 0.17205 0.10966 0.0
C1484 C 0.98555 0.1933 0.11813 0.0
C1485 C 0.98584 0.2006 0.0971 0.0
U1486 U 0.95404 0.217 0.02389 0.0
O1487 O 0.95646 0.25195 0.0184 0.0
O1488 O 0.97764 0.22965 1.00077 0.0
C1489 C 0.97132 0.24949 1.00394 0.0
C1490 C 0.96929 0.20611 0.06172 0.0
C1491 C 0.98186 0.26808 0.99379 0.0
C1492 C 1.00556 0.29951 0.99668 0.0
C1493 C 0.99816 0.27985 1.00468 0.0
C1494 C 0.9808 0.29565 0.96645 0.0
C1495 C 0.99643 0.30819 0.97785 0.0
C1496 C 0.97366 0.27582 0.97433 0.0
C1497 C 0.89975 0.18673 1.00349 0.0
C1498 C 0.86532 0.18189 0.98509 0.0
C1499 C 0.87334 0.16135 0.01684 0.0
C1500 C 0.89376 0.17128 0.01845 0.0
C1501 C 0.8586 0.16705 1.00047 0.0
C1502 C 0.88566 0.19148 0.98656 0.0
C1503 C 0.91924 0.20019 1.0058 0.0
O1504 O 0.97503 0.19649 0.04378 0.0
O1505 O 0.95468 0.22082 0.05903 0.0
O1506 O 0.93831 0.19188 1.0031 0.0
O1507 O 0.91901 0.21646 0.01949 0.0
H1508 H 0.94093 0.17495 0.07727 0.0
H1509 H 0.94096 0.16082 0.11394 0.0
H1510 H 0.99772 0.19987 0.12907 0.0
H1511 H 0.99829 0.21202 0.09271 0.0
H1512 H 0.01806 0.30816 1.00569 0.0
H1513 H 1.00468 0.27419 0.01976 0.0
H1514 H 0.97316 0.3016 0.95204 0.0
H1515 H 0.96091 0.26705 0.96575 0.0
H1516 H 0.85451 0.18711 0.9725 0.0
H1517 H 0.86891 0.14969 0.02875 0.0
H1518 H 0.90449 0.16743 0.03165 0.0
H1519 H 0.89001 0.20351 0.97494 0.0
C1520 C 0.70518 0.49462 0.24879 0.0
C1521 C 0.70722 0.5132 0.26183 0.0
C1522 C 0.71819 0.5341 0.23073 0.0
C1523 C 0.71368 0.53284 0.25284 0.0
C1524 C 0.71493 0.51552 0.21779 0.0
C1525 C 0.70874 0.49608 0.22675 0.0
U1526 U 0.69579 0.44769 0.29002 0.0
O1527 O 0.67363 0.41994 0.28428 0.0
O1528 O 0.70902 0.41529 0.28518 0.0
C1529 C 0.68975 0.40668 0.28257 0.0
C1530 C 0.70038 0.47307 0.25706 0.0
C1531 C 0.68636 0.38355 0.27845 0.0
C1532 C 0.68142 0.35386 0.25294 0.0
C1533 C 0.68181 0.37594 0.25755 0.0
C1534 C 0.68901 0.34674 0.2904 0.0
C1535 C 0.68534 0.3389 0.26922 0.0
C1536 C 0.68974 0.36886 0.29489 0.0
C1537 C 0.70219 0.4695 0.35174 0.0
C1538 C 0.71032 0.46127 0.3889 0.0
C1539 C 0.70863 0.49834 0.37787 0.0
C1540 C 0.70326 0.49143 0.35698 0.0
C1541 C 0.71283 0.48337 0.39404 0.0
C1542 C 0.70532 0.45439 0.36785 0.0
C1543 C 0.69981 0.46293 0.3291 0.0
O1544 O 0.71636 0.46284 0.26605 0.0
O1545 O 0.68183 0.46962 0.26626 0.0
O1546 O 0.68104 0.46161 0.31913 0.0
O1547 O 0.71623 0.45568 0.31835 0.0
H1548 H 0.70443 0.51242 0.27892 0.0
H1549 H 0.71603 0.54674 0.26337 0.0
H1550 H 0.71757 0.51579 0.20066 0.0
H1551 H 0.70712 0.48193 0.2164 0.0
H1552 H 0.679 0.34868 0.23638 0.0
H1553 H 0.67945 0.3871 0.2446 0.0
H1554 H 0.69172 0.33584 0.30348 0.0
H1555 H 0.69337 0.37451 0.31113 0.0
H1556 H 0.71292 0.44922 0.40097 0.0
H1557 H 0.71069 0.51542 0.38093 0.0
H1558 H 0.70099 0.50327 0.34463 0.0
H1559 H 0.70447 0.43733 0.36405 0.0
C1560 C 0.70305 0.98254 0.55125 0.0
C1561 C 0.72019 0.99731 0.55473 0.0
C1562 C 0.71216 0.99951 0.59317 0.0
C1563 C 0.7246 1.00585 0.57551 0.0
C1564 C 0.69453 0.98541 0.58909 0.0
C1565 C 0.69002 0.97724 0.56848 0.0
U1566 U 0.71568 0.96396 0.4926 0.0
O1567 O 0.71786 0.93049 0.48126 0.0
O1568 O 0.69364 0.95162 0.46655 0.0
C1569 C 0.70276 0.9327 0.46653 0.0
C1570 C 0.69962 0.97005 0.53099 0.0
C1571 C 0.69177 0.91329 0.45755 0.0
C1572 C 0.67244 0.87924 0.46124 0.0
C1573 C 0.67892 0.8995 0.46971 0.0
C1574 C 0.69131 0.88674 0.42851 0.0
C1575 C 0.67933 0.87214 0.44078 0.0
C1576 C 0.69717 0.90702 0.4367 0.0
C1577 C 0.76636 0.9962 0.46959 0.0
C1578 C 0.79531 0.99011 0.44464 0.0
C1579 C 0.79749 0.02012 0.46995 0.0
C1580 C 0.77731 0.01454 0.47753 0.0
C1581 C 0.80717 1.00744 0.45414 0.0
C1582 C 0.77502 0.98434 0.45251 0.0
C1583 C 0.74824 0.98858 0.48233 0.0
O1584 O 0.69262 0.9801 0.5139 0.0
O1585 O 0.71431 0.95583 0.52668 0.0
O1586 O 0.75037 0.97047 0.49258 0.0
O1587 O 0.72839 0.99296 0.47663 0.0
H1588 H 0.73052 1.00167 0.54162 0.0
H1589 H 0.73803 0.01699 0.57779 0.0
H1590 H 0.68469 0.97962 0.60198 0.0
H1591 H 0.67684 0.96577 0.56621 0.0
H1592 H 0.66262 0.86899 0.47107 0.0
H1593 H 0.67453 0.90403 0.4859 0.0
H1594 H 0.69747 0.88229 0.41297 0.0
H1595 H 0.70722 0.91738 0.42713 0.0
H1596 H 0.80234 0.98012 0.4323 0.0
H1597 H 0.806 0.03377 0.47727 0.0
H1598 H 0.77086 0.02383 0.49074 0.0
H1599 H 0.76676 0.97009 0.44614 0.0
C1600 C 0.96707 1.00021 0.49328 0.0
C1601 C 0.9502 1.00111 0.50794 0.0
C1602 C 0.97428 0.98924 0.537 0.0
C1603 C 0.95377 0.99566 0.52962 0.0
C1604 C 0.99123 0.98987 0.52227 0.0
C1605 C 0.98759 0.99496 0.50078 0.0
U1606 U 0.93933 0.00849 0.43578 0.0
O1607 O 0.94985 0.99062 0.40716 0.0
O1608 O 0.95439 0.02591 0.40886 0.0
C1609 C 0.9575 1.00792 0.39805 0.0
C1610 C 0.96426 1.00323 0.46987 0.0
C1611 C 0.96113 1.00767 0.3746 0.0
C1612 C 0.98764 1.00652 0.34637 0.0
C1613 C 0.98239 0.00959 0.3679 0.0
C1614 C 0.95008 1.00057 0.33728 0.0
C1615 C 0.97168 1.00171 0.33062 0.0
C1616 C 0.94486 1.00336 0.35911 0.0
C1617 C 0.8748 0.013 0.44241 0.0
C1618 C 0.8381 0.00929 0.42875 0.0
C1619 C 0.84512 0.01411 0.46697 0.0
C1620 C 0.8672 0.0152 0.46333 0.0
C1621 C 0.83034 0.01074 0.44975 0.0
C1622 C 0.86017 0.01046 0.42515 0.0
C1623 C 0.8978 0.01146 0.43822 0.0
O1624 O 0.95548 0.98725 0.45861 0.0
O1625 O 0.95906 0.02225 0.46276 0.0
O1626 O 0.91066 0.02844 0.43971 0.0
O1627 O 0.90725 0.99281 0.43657 0.0
H1628 H 0.93422 1.00531 0.50253 0.0
H1629 H 0.94023 0.99558 0.54026 0.0
H1630 H 1.00746 0.98603 0.52711 0.0
H1631 H 1.0009 0.99433 0.48981 0.0
H1632 H 1.00447 1.00701 0.34238 0.0
H1633 H 0.99524 0.01259 0.37959 0.0
H1634 H 0.93721 0.99722 0.32573 0.0
H1635 H 0.92828 1.00169 0.3639 0.0
H1636 H 0.82715 1.00692 0.41518 0.0
H1637 H 0.83967 0.015 0.48338 0.0
H1638 H 0.8783 0.01703 0.47686 0.0
H1639 H 0.8659 0.00877 0.40888 0.0
C1640 C 0.43872 0.6979 0.69452 0.0
C1641 C 0.42644 0.70023 0.67567 0.0
C1642 C 0.45886 0.71038 0.65631 0.0
C1643 C 0.43646 0.70645 0.65666 0.0
C1644 C 0.47102 0.70689 0.67515 0.0
C1645 C 0.46103 0.70092 0.69401 0.0
U1646 U 0.39896 0.68872 0.74363 0.0
O1647 O 0.40684 0.66606 0.76944 0.0
O1648 O 0.40874 0.70137 0.77576 0.0
C1649 C 0.41108 0.68193 0.78315 0.0
C1650 C 0.42936 0.6933 0.71545 0.0
C1651 C 0.41768 0.67816 0.80545 0.0
C1652 C 0.44641 0.67417 0.83175 0.0
C1653 C 0.43926 0.6744 0.81037 0.0
C1654 C 0.41014 0.68027 0.84358 0.0
C1655 C 0.43203 0.67748 0.84872 0.0
C1656 C 0.40308 0.6808 0.82212 0.0
C1657 C 0.33723 0.69791 0.72548 0.0
C1658 C 0.29977 0.70658 0.73016 0.0
C1659 C 0.31515 0.70785 0.69474 0.0
C1660 C 0.33495 0.70122 0.70335 0.0
C1661 C 0.2975 0.7113 0.70823 0.0
C1662 C 0.31942 0.70018 0.73866 0.0
C1663 C 0.35791 0.69357 0.73611 0.0
O1664 O 0.42191 0.70942 0.7268 0.0
O1665 O 0.41921 0.67488 0.7183 0.0
O1666 O 0.36734 0.675 0.73331 0.0
O1667 O 0.37097 0.70971 0.7413 0.0
H1668 H 0.40917 0.69787 0.67579 0.0
H1669 H 0.42653 0.7091 0.64255 0.0
H1670 H 0.4883 0.70919 0.67552 0.0
H1671 H 0.47077 0.69906 0.70844 0.0
H1672 H 0.46344 0.67243 0.83483 0.0
H1673 H 0.4508 0.67264 0.79766 0.0
H1674 H 0.39849 0.68249 0.85609 0.0
H1675 H 0.38633 0.68384 0.81853 0.0
H1676 H 0.28651 0.70849 0.74101 0.0
H1677 H 0.31403 0.71134 0.6778 0.0
H1678 H 0.34857 0.69946 0.69292 0.0
H1679 H 0.32088 0.69759 0.7558 0.0
C1680 C 0.18987 0.16718 0.69715 0.0
C1681 C 0.17374 0.16328 0.71215 0.0
C1682 C 0.1691 0.12638 0.69813 0.0
C1683 C 0.16328 0.14303 0.71251 0.0
C1684 C 0.18479 0.131 0.68276 0.0
C1685 C 0.19481 0.15111 0.6822 0.0
U1686 U 0.21849 0.22188 0.71657 0.0
O1687 O 0.25382 0.22453 0.71697 0.0
O1688 O 0.23452 0.24559 0.69579 0.0
C1689 C 0.25358 0.24013 0.70309 0.0
C1690 C 0.20417 0.18624 0.69785 0.0
C1691 C 0.27354 0.24934 0.69481 0.0
C1692 C 0.30687 0.24454 0.67584 0.0
C1693 C 0.28599 0.23757 0.68046 0.0
C1694 C 0.30284 0.27527 0.69973 0.0
C1695 C 0.31595 0.26307 0.68606 0.0
C1696 C 0.28182 0.26852 0.70392 0.0
C1697 C 0.19067 0.24351 0.77069 0.0
C1698 C 0.19057 0.26357 0.80432 0.0
C1699 C 0.16509 0.23415 0.79799 0.0
C1700 C 0.17352 0.23069 0.77754 0.0
C1701 C 0.17406 0.25016 0.81193 0.0
C1702 C 0.19867 0.26032 0.78387 0.0
C1703 C 0.20258 0.23836 0.75136 0.0
O1704 O 0.19653 0.2052 0.6931 0.0
O1705 O 0.21903 0.18685 0.71305 0.0
O1706 O 0.19546 0.24359 0.73217 0.0
O1707 O 0.21683 0.22308 0.75176 0.0
H1708 H 0.16975 0.17554 0.7239 0.0
H1709 H 0.15105 0.1403 0.72434 0.0
H1710 H 0.19032 0.11878 0.67171 0.0
H1711 H 0.2074 0.15375 0.67066 0.0
H1712 H 0.31604 0.23497 0.66474 0.0
H1713 H 0.27983 0.22262 0.67339 0.0
H1714 H 0.30906 0.2894 0.70824 0.0
H1715 H 0.27249 0.27763 0.71531 0.0
H1716 H 0.19824 0.27579 0.81454 0.0
H1717 H 0.15209 0.22379 0.80313 0.0
H1718 H 0.16723 0.2176 0.76746 0.0
H1719 H 0.21209 0.27023 0.77879 0.0
C1720 C 0.25855 0.53888 0.18231 0.0
C1721 C 0.27582 0.53693 0.16828 0.0
C1722 C 0.25073 0.52887 0.13828 0.0
C1723 C 0.27193 0.53194 0.1464 0.0
C1724 C 0.23365 0.53219 0.15245 0.0
C1725 C 0.23755 0.53683 0.17414 0.0
U1726 U 0.28496 0.54313 0.24093 0.0
O1727 O 0.26815 0.52929 0.26827 0.0
O1728 O 0.27314 0.56437 0.26684 0.0
C1729 C 0.26462 0.54815 0.27715 0.0
C1730 C 0.26112 0.54196 0.2057 0.0
C1731 C 0.26311 0.54931 0.30066 0.0
C1732 C 0.23922 0.55086 0.33099 0.0
C1733 C 0.2427 0.55237 0.30904 0.0
C1734 C 0.27709 0.54455 0.33692 0.0
C1735 C 0.25625 0.54665 0.3454 0.0
C1736 C 0.28044 0.54559 0.31468 0.0
C1737 C 0.34938 0.53453 0.23975 0.0
C1738 C 0.38255 0.52677 0.25874 0.0
C1739 C 0.3819 0.5286 0.21987 0.0
C1740 C 0.36012 0.53348 0.22022 0.0
C1741 C 0.39331 0.52482 0.2391 0.0
C1742 C 0.36069 0.53145 0.25903 0.0
C1743 C 0.32618 0.53765 0.23974 0.0
O1744 O 0.26536 0.52489 0.21701 0.0
O1745 O 0.2705 0.55967 0.21326 0.0
O1746 O 0.31779 0.55685 0.23864 0.0
O1747 O 0.31258 0.52144 0.24168 0.0
H1748 H 0.2922 0.5386 0.17431 0.0
H1749 H 0.28557 0.52954 0.13615 0.0
H1750 H 0.21709 0.53081 0.14697 0.0
H1751 H 0.224 0.53842 0.18472 0.0
H1752 H 0.22285 0.55206 0.33632 0.0
H1753 H 0.22908 0.55507 0.29839 0.0
H1754 H 0.29083 0.54178 0.3473 0.0
H1755 H 0.29637 0.5431 0.30847 0.0
H1756 H 0.39089 0.52423 0.27386 0.0
H1757 H 0.3895 0.52683 0.20445 0.0
H1758 H 0.35149 0.53573 0.20519 0.0
H1759 H 0.35254 0.53228 0.27425 0.0
C1760 C 0.98243 0.55157 0.70281 0.0
C1761 C 0.9972 0.55504 0.71994 0.0
C1762 C 0.99941 0.59349 0.71192 0.0
C1763 C 1.00575 0.57582 0.72436 0.0
C1764 C 0.98531 0.58942 0.6943 0.0
C1765 C 0.97714 0.5688 0.68978 0.0
U1766 U 0.96385 0.49291 0.71544 0.0
O1767 O 0.9304 0.48157 0.71764 0.0
O1768 O 0.9515 0.46686 0.69341 0.0
C1769 C 0.93259 0.46684 0.70253 0.0
C1770 C 0.96994 0.53131 0.69938 0.0
C1771 C 0.91318 0.45787 0.69154 0.0
C1772 C 0.87914 0.46158 0.67223 0.0
C1773 C 0.8994 0.47004 0.6787 0.0
C1774 C 0.88663 0.42883 0.69108 0.0
C1775 C 0.87203 0.44112 0.67911 0.0
C1776 C 0.90691 0.43702 0.69693 0.0
C1777 C 0.9961 0.4699 0.76611 0.0
C1778 C 0.99002 0.44494 0.79506 0.0
C1779 C 0.02002 0.47025 0.79723 0.0
C1780 C 0.01444 0.47785 0.77706 0.0
C1781 C 1.00734 0.45444 0.80691 0.0
C1782 C 0.98425 0.45281 0.77477 0.0
C1783 C 0.98848 0.48264 0.74799 0.0
O1784 O 0.97999 0.51422 0.69237 0.0
O1785 O 0.95573 0.527 0.71408 0.0
O1786 O 0.97038 0.49289 0.75013 0.0
O1787 O 0.99284 0.47694 0.72814 0.0
H1788 H 1.00156 0.54192 0.73027 0.0
H1789 H 0.01688 0.5781 0.73778 0.0
H1790 H 0.97952 0.60232 0.68446 0.0
H1791 H 0.96567 0.56654 0.67661 0.0
H1792 H 0.86889 0.47143 0.66241 0.0
H1793 H 0.90394 0.48624 0.67431 0.0
H1794 H 0.88217 0.41329 0.69724 0.0
H1795 H 0.91726 0.42743 0.70697 0.0
H1796 H 0.98004 0.43259 0.80209 0.0
H1797 H 0.03367 0.47758 0.80574 0.0
H1798 H 0.02372 0.49106 0.77061 0.0
H1799 H 0.97 0.44644 0.76652 0.0
C1800 C 0.703 0.15059 0.0589 0.0
C1801 C 0.72142 0.15086 0.07224 0.0
C1802 C 0.6996 0.16044 0.10325 0.0
C1803 C 0.71972 0.15575 0.09431 0.0
C1804 C 0.6812 0.15864 0.08982 0.0
C1805 C 0.68295 0.15407 0.06796 0.0
U1806 U 0.72566 0.14748 0.99976 0.0
O1807 O 0.70938 0.16443 0.97361 0.0
O1808 O 0.71044 0.12902 0.97259 0.0
C1809 C 0.70316 0.14654 0.9637 0.0
C1810 C 0.70356 0.14836 0.03534 0.0
C1811 C 0.69862 0.14711 0.9404 0.0
C1812 C 0.67143 0.15144 0.91242 0.0
C1813 C 0.67708 0.1481 0.93387 0.0
C1814 C 0.70897 0.15136 0.90318 0.0
C1815 C 0.68722 0.15345 0.89654 0.0
C1816 C 0.71463 0.14853 0.92493 0.0
C1817 C 0.79092 0.15168 1.00083 0.0
C1818 C 0.82375 0.15695 0.98108 0.0
C1819 C 0.82493 0.15696 0.01999 0.0
C1820 C 0.80277 0.15304 0.02013 0.0
C1821 C 0.8357 0.15948 1.00047 0.0
C1822 C 0.80152 0.15327 0.98128 0.0
C1823 C 0.76742 0.15013 1.00148 0.0
O1824 O 0.70892 0.16562 0.02474 0.0
O1825 O 0.71066 0.13047 0.02672 0.0
O1826 O 0.75709 0.13151 1.00083 0.0
O1827 O 0.75543 0.16727 1.00047 0.0
H1828 H 0.73708 0.1481 0.06551 0.0
H1829 H 0.73428 0.15692 0.10404 0.0
H1830 H 0.66532 0.16136 0.096 0.0
H1831 H 0.66854 0.15385 0.05793 0.0
H1832 H 0.65456 0.15334 0.90881 0.0
H1833 H 0.66446 0.14715 0.94561 0.0
H1834 H 0.72181 0.15214 0.89175 0.0
H1835 H 0.73141 0.14782 0.92967 0.0
H1836 H 0.83146 0.15833 0.9657 0.0
H1837 H 0.83336 0.15909 0.03524 0.0
H1838 H 0.79476 0.15188 0.03538 0.0
H1839 H 0.79255 0.15219 0.96622 0.0
C1840 C 0.19442 0.08251 0.96942 0.0
C1841 C 0.17977 0.08876 0.9534 0.0
C1842 C 0.179 0.12533 0.96909 0.0
C1843 C 0.17194 0.10992 0.95338 0.0
C1844 C 0.19321 0.11837 0.98536 0.0
C1845 C 0.20052 0.09733 0.98561 0.0
U1846 U 0.21698 0.02413 0.95383 0.0
O1847 O 0.25195 0.01878 0.95628 0.0
O1848 O 0.22969 1.00113 0.97749 0.0
C1849 C 0.24953 1.00439 0.97121 0.0
C1850 C 0.20601 0.06197 0.969 0.0
C1851 C 0.2681 0.99414 0.98168 0.0
C1852 C 0.29954 0.99694 1.00535 0.0
C1853 C 0.27988 1.00497 0.998 0.0
C1854 C 0.29564 0.96677 0.98051 0.0
C1855 C 0.30819 0.97812 0.99617 0.0
C1856 C 0.27582 0.97469 0.9734 0.0
C1857 C 0.1867 1.00364 0.89962 0.0
C1858 C 0.18175 0.98528 0.86516 0.0
C1859 C 0.16125 0.01703 0.87332 0.0
C1860 C 0.17124 0.01862 0.8937 0.0
C1861 C 0.16691 1.00069 0.85852 0.0
C1862 C 0.19139 0.98672 0.88548 0.0
C1863 C 0.20022 1.00592 0.91907 0.0
O1864 O 0.19643 0.04402 0.97479 0.0
O1865 O 0.2207 0.0593 0.95437 0.0
O1866 O 0.19193 1.00324 0.93815 0.0
O1867 O 0.21645 0.01964 0.9188 0.0
H1868 H 0.17483 0.07754 0.9407 0.0
H1869 H 0.16069 0.11422 0.9408 0.0
H1870 H 0.19978 0.1293 0.99753 0.0
H1871 H 0.21195 0.09293 0.99803 0.0
H1872 H 0.30821 1.00592 0.01787 0.0
H1873 H 0.27425 0.02004 1.00458 0.0
H1874 H 0.30157 0.95237 0.97284 0.0
H1875 H 0.26703 0.96616 0.96063 0.0
H1876 H 0.18693 0.97271 0.85431 0.0
H1877 H 0.14959 0.02896 0.86896 0.0
H1878 H 0.16743 0.03181 0.90447 0.0
H1879 H 0.20342 0.97509 0.88978 0.0
C1880 C 0.49286 0.16005 0.52336 0.0
C1881 C 0.50978 0.15839 0.50883 0.0
C1882 C 0.51477 0.12088 0.51877 0.0
C1883 C 0.52077 0.13892 0.50665 0.0
C1884 C 0.49831 0.12321 0.53381 0.0
C1885 C 0.48766 0.14254 0.53612 0.0
U1886 U 0.46509 0.21408 0.50705 0.0
O1887 O 0.43002 0.21715 0.50633 0.0
O1888 O 0.4498 0.23761 0.52892 0.0
C1889 C 0.43067 0.23282 0.52069 0.0
C1890 C 0.47841 0.17844 0.52436 0.0
C1891 C 0.41078 0.24021 0.53042 0.0
C1892 C 0.37881 0.23353 0.55114 0.0
C1893 C 0.39939 0.22757 0.54484 0.0
C1894 C 0.38095 0.26475 0.52858 0.0
C1895 C 0.36887 0.25183 0.54248 0.0
C1896 C 0.40169 0.25907 0.52281 0.0
C1897 C 0.49579 0.23438 0.4548 0.0
C1898 C 0.50091 0.25335 0.42162 0.0
C1899 C 0.52242 0.22231 0.42962 0.0
C1900 C 0.51195 0.22008 0.44923 0.0
C1901 C 0.51655 0.23862 0.4153 0.0
C1902 C 0.49076 0.25128 0.4412 0.0
C1903 C 0.48196 0.23125 0.47321 0.0
O1904 O 0.48633 0.19749 0.53002 0.0
O1905 O 0.46346 0.17901 0.50927 0.0
O1906 O 0.48902 0.23601 0.49278 0.0
O1907 O 0.46718 0.21595 0.47201 0.0
H1908 H 0.51401 0.17181 0.49881 0.0
H1909 H 0.53358 0.13786 0.49517 0.0
H1910 H 0.49275 0.10978 0.54316 0.0
H1911 H 0.47453 0.14348 0.54729 0.0
H1912 H 0.3706 0.22341 0.56243 0.0
H1913 H 0.40616 0.21285 0.55079 0.0
H1914 H 0.37414 0.27871 0.52115 0.0
H1915 H 0.41022 0.26888 0.51142 0.0
H1916 H 0.49557 0.26585 0.411 0.0
H1917 H 0.53466 0.21091 0.42543 0.0
H1918 H 0.51596 0.20691 0.45963 0.0
H1919 H 0.47814 0.26234 0.44526 0.0
loop_
_geom_bond_atom_site_label_1
_geom_bond_atom_site_label_2
_geom_bond_distance
_geom_bond_site_symmetry_2
_ccdc_geom_bond_type
C0 C1 1.264 . S
C0 C5 1.479 . S
C0 C10 1.465 . S
C1 C0 1.264 . S
C1 C3 1.339 . S
C1 H28 0.931 . S
C2 C3 1.395 . S
C2 C4 1.320 . S
C3 C1 1.339 . S
C3 C2 1.395 . S
C3 H29 0.929 . S
C4 C2 1.320 . S
C4 C5 1.405 . S
C4 H30 0.930 . S
C5 C0 1.479 . S
C5 C4 1.405 . S
C5 H31 0.931 . S
U6 O7 2.435 1_455 S
U6 O8 2.425 1_455 S
U6 C9 2.955 1_455 S
U6 C10 2.876 . S
U6 C23 2.883 1_455 S
U6 O24 2.459 . S
U6 O25 2.453 . S
U6 O26 2.440 1_455 S
U6 O27 2.464 . S
O7 U6 2.435 1_655 S
O7 C9 1.353 . S
O8 U6 2.425 1_655 S
O8 C9 1.286 . S
C9 U6 2.955 1_655 S
C9 O7 1.353 . S
C9 O8 1.286 . S
C9 C11 1.363 . S
C10 C0 1.465 . S
C10 U6 2.876 . S
C10 O24 1.249 . S
C10 O25 1.202 . S
C11 C9 1.363 . S
C11 C13 1.408 . S
C11 C16 1.342 . S
C12 C13 1.310 . S
C12 C15 1.461 . S
C12 H32 0.932 . S
C13 C11 1.408 . S
C13 C12 1.310 . S
C13 H33 0.930 . S
C14 C15 1.474 . S
C14 C16 1.285 . S
C14 H34 0.929 . S
C15 C12 1.461 . S
C15 C14 1.474 . S
C16 C11 1.342 . S
C16 C14 1.285 . S
C16 H35 0.930 . S
C17 C20 1.424 1_655 S
C17 C22 1.245 . S
C17 C23 1.428 . S
C18 C21 1.277 . S
C18 C22 1.477 . S
C18 H36 0.932 . S
C19 C20 1.384 . S
C19 C21 1.461 1_455 S
C19 H37 0.929 . S
C20 C17 1.424 1_455 S
C20 C19 1.384 . S
C20 H38 0.928 . S
C21 C18 1.277 . S
C21 C19 1.461 1_655 S
C22 C17 1.245 . S
C22 C18 1.477 . S
C22 H39 0.932 . S
C23 U6 2.883 1_655 S
C23 C17 1.428 . S
C23 O26 1.308 . S
C23 O27 1.276 1_655 S
O24 U6 2.459 . S
O24 C10 1.249 . S
O25 U6 2.453 . S
O25 C10 1.202 . S
O26 U6 2.440 1_655 S
O26 C23 1.308 . S
O27 U6 2.464 . S
O27 C23 1.276 1_455 S
H28 C1 0.931 . S
H29 C3 0.929 . S
H30 C4 0.930 . S
H31 C5 0.931 . S
H32 C12 0.932 . S
H33 C13 0.930 . S
H34 C14 0.929 . S
H35 C16 0.930 . S
H36 C18 0.932 . S
H37 C19 0.929 . S
H38 C20 0.928 . S
H39 C22 0.932 . S
C40 C41 1.264 . S
C40 C45 1.479 . S
C40 C50 1.465 . S
C41 C40 1.264 . S
C41 C43 1.339 . S
C41 H68 0.931 . S
C42 C43 1.395 . S
C42 C44 1.319 1_565 S
C43 C41 1.339 . S
C43 C42 1.395 . S
C43 H69 0.929 . S
C44 C42 1.319 1_545 S
C44 C45 1.404 1_545 S
C44 H70 0.931 . S
C45 C40 1.479 . S
C45 C44 1.404 1_565 S
C45 H71 0.931 . S
U46 O47 2.454 1_455 S
U46 O48 2.458 1_455 S
U46 C49 2.984 1_455 S
U46 C50 2.847 . S
U46 C63 2.882 1_455 S
U46 O64 2.441 . S
U46 O65 2.420 . S
U46 O66 2.455 1_455 S
U46 O67 2.449 . S
O47 U46 2.454 1_655 S
O47 C49 1.353 . S
O48 U46 2.458 1_655 S
O48 C49 1.286 . S
C49 U46 2.984 1_655 S
C49 O47 1.353 . S
C49 O48 1.286 . S
C49 C51 1.363 . S
C50 C40 1.465 . S
C50 U46 2.847 . S
C50 O64 1.249 . S
C50 O65 1.202 . S
C51 C49 1.363 . S
C51 C53 1.408 1_565 S
C51 C56 1.342 . S
C52 C53 1.310 . S
C52 C55 1.461 . S
C52 H72 0.932 . S
C53 C51 1.408 1_545 S
C53 C52 1.310 . S
C53 H73 0.930 . S
C54 C55 1.474 1_565 S
C54 C56 1.285 . S
C54 H74 0.929 . S
C55 C52 1.461 . S
C55 C54 1.474 1_545 S
C56 C51 1.342 . S
C56 C54 1.285 . S
C56 H75 0.930 . S
C57 C60 1.424 . S
C57 C62 1.245 . S
C57 C63 1.428 . S
C58 C61 1.260 . S
C58 C62 1.477 . S
C58 H76 0.932 . S
C59 C60 1.384 . S
C59 C61 1.479 . S
C59 H77 0.929 . S
C60 C57 1.424 . S
C60 C59 1.384 . S
C60 H78 0.883 1_655 S
C61 C58 1.260 . S
C61 C59 1.479 . S
C62 C57 1.245 . S
C62 C58 1.477 . S
C62 H79 0.932 . S
C63 U46 2.882 1_655 S
C63 C57 1.428 . S
C63 O66 1.301 . S
C63 O67 1.282 1_655 S
O64 U46 2.441 . S
O64 C50 1.249 . S
O65 U46 2.420 . S
O65 C50 1.202 . S
O66 U46 2.455 1_655 S
O66 C63 1.301 . S
O67 U46 2.449 . S
O67 C63 1.282 1_455 S
H68 C41 0.931 . S
H69 C43 0.929 . S
H70 C44 0.931 . S
H71 C45 0.931 . S
H72 C52 0.932 . S
H73 C53 0.930 . S
H74 C54 0.929 . S
H75 C56 0.930 . S
H76 C58 0.932 . S
H77 C59 0.929 . S
H78 C60 0.883 1_455 S
H79 C62 0.932 . S
C80 C81 1.264 . S
C80 C85 1.479 . S
C80 C90 1.465 . S
C81 C80 1.264 . S
C81 C83 1.339 . S
C81 H108 0.931 . S
C82 C83 1.395 . S
C82 C84 1.320 . S
C83 C81 1.339 . S
C83 C82 1.395 . S
C83 H109 0.929 . S
C84 C82 1.320 . S
C84 C85 1.405 . S
C84 H110 0.930 . S
C85 C80 1.479 . S
C85 C84 1.405 . S
C85 H111 0.931 . S
U86 O87 2.454 . S
U86 O88 2.458 . S
U86 C89 2.984 . S
U86 C90 2.847 . S
U86 C103 2.882 . S
U86 O104 2.441 . S
U86 O105 2.420 . S
U86 O106 2.455 . S
U86 O107 2.449 . S
O87 U86 2.454 . S
O87 C89 1.353 . S
O88 U86 2.458 . S
O88 C89 1.286 . S
C89 U86 2.984 . S
C89 O87 1.353 . S
C89 O88 1.286 . S
C89 C91 1.363 . S
C90 C80 1.465 . S
C90 U86 2.847 . S
C90 O104 1.249 . S
C90 O105 1.202 . S
C91 C89 1.363 . S
C91 C93 1.408 . S
C91 C96 1.342 . S
C92 C93 1.310 . S
C92 C95 1.461 . S
C92 H112 0.932 . S
C93 C91 1.408 . S
C93 C92 1.310 . S
C93 H113 0.930 . S
C94 C95 1.474 . S
C94 C96 1.285 . S
C94 H114 0.939 . S
C95 C92 1.461 . S
C95 C94 1.474 . S
C96 C91 1.342 . S
C96 C94 1.285 . S
C96 H115 0.930 . S
C97 C100 1.420 1_554 S
C97 C102 1.258 . S
C97 C103 1.428 . S
C98 C101 1.260 . S
C98 C102 1.466 1_556 S
C98 H116 0.932 . S
C99 C100 1.388 . S
C99 C101 1.479 . S
C99 H117 0.929 . S
C100 C97 1.420 1_556 S
C100 C99 1.388 . S
C100 H118 0.928 . S
C101 C98 1.260 . S
C101 C99 1.479 . S
C102 C97 1.258 . S
C102 C98 1.466 1_554 S
C102 H119 0.934 . S
C103 U86 2.882 . S
C103 C97 1.428 . S
C103 O106 1.301 . S
C103 O107 1.282 . S
O104 U86 2.441 . S
O104 C90 1.249 . S
O105 U86 2.420 . S
O105 C90 1.202 . S
O106 U86 2.455 . S
O106 C103 1.301 . S
O107 U86 2.449 . S
O107 C103 1.282 . S
H108 C81 0.931 . S
H109 C83 0.929 . S
H110 C84 0.930 . S
H111 C85 0.931 . S
H112 C92 0.932 . S
H113 C93 0.930 . S
H114 C94 0.939 . S
H115 C96 0.930 . S
H116 C98 0.932 . S
H117 C99 0.929 . S
H118 C100 0.928 . S
H119 C102 0.934 . S
C120 C121 1.264 . S
C120 C125 1.479 . S
C120 C130 1.465 . S
C121 C120 1.264 . S
C121 C123 1.339 . S
C121 H148 0.931 . S
C122 C123 1.395 . S
C122 C124 1.320 . S
C123 C121 1.339 . S
C123 C122 1.395 . S
C123 H149 0.929 . S
C124 C122 1.320 . S
C124 C125 1.405 . S
C124 H150 0.930 . S
C125 C120 1.479 . S
C125 C124 1.405 . S
C125 H151 0.931 . S
U126 O127 2.454 . S
U126 O128 2.458 . S
U126 C129 2.984 . S
U126 C130 2.847 . S
U126 C143 2.882 . S
U126 O144 2.441 . S
U126 O145 2.420 . S
U126 O146 2.455 . S
U126 O147 2.449 . S
O127 U126 2.454 . S
O127 C129 1.353 . S
O128 U126 2.458 . S
O128 C129 1.286 . S
C129 U126 2.984 . S
C129 O127 1.353 . S
C129 O128 1.286 . S
C129 C131 1.363 . S
C130 C120 1.465 . S
C130 U126 2.847 . S
C130 O144 1.249 . S
C130 O145 1.202 . S
C131 C129 1.363 . S
C131 C133 1.408 . S
C131 C136 1.342 . S
C132 C133 1.310 . S
C132 C135 1.461 . S
C132 H152 0.932 . S
C133 C131 1.408 . S
C133 C132 1.310 . S
C133 H153 0.930 . S
C134 C135 1.474 . S
C134 C136 1.285 . S
C134 H154 0.929 . S
C135 C132 1.461 . S
C135 C134 1.474 . S
C136 C131 1.342 . S
C136 C134 1.285 . S
C136 H155 0.930 . S
C137 C140 1.424 . S
C137 C142 1.245 . S
C137 C143 1.428 . S
C138 C141 1.260 . S
C138 C142 1.477 . S
C138 H156 0.932 . S
C139 C140 1.384 . S
C139 C141 1.479 . S
C139 H157 0.929 . S
C140 C137 1.424 . S
C140 C139 1.384 . S
C140 H158 0.928 . S
C141 C138 1.260 . S
C141 C139 1.479 . S
C142 C137 1.245 . S
C142 C138 1.477 . S
C142 H159 0.932 . S
C143 U126 2.882 . S
C143 C137 1.428 . S
C143 O146 1.301 . S
C143 O147 1.282 . S
O144 U126 2.441 . S
O144 C130 1.249 . S
O145 U126 2.420 . S
O145 C130 1.202 . S
O146 U126 2.455 . S
O146 C143 1.301 . S
O147 U126 2.449 . S
O147 C143 1.282 . S
H148 C121 0.931 . S
H149 C123 0.929 . S
H150 C124 0.930 . S
H151 C125 0.931 . S
H152 C132 0.932 . S
H153 C133 0.930 . S
H154 C134 0.929 . S
H155 C136 0.930 . S
H156 C138 0.932 . S
H157 C139 0.929 . S
H158 C140 0.928 . S
H159 C142 0.932 . S
C160 C161 1.264 . S
C160 C165 1.479 . S
C160 C170 1.465 . S
C161 C160 1.264 . S
C161 C163 1.339 . S
C161 H188 0.931 . S
C162 C163 1.395 . S
C162 C164 1.320 . S
C163 C161 1.339 . S
C163 C162 1.395 . S
C163 H189 0.929 . S
C164 C162 1.320 . S
C164 C165 1.405 . S
C164 H190 0.930 . S
C165 C160 1.479 . S
C165 C164 1.405 . S
C165 H191 0.931 . S
U166 O167 2.456 1_455 S
U166 O168 2.462 1_455 S
U166 C169 2.988 1_455 S
U166 C170 2.843 . S
U166 C183 2.883 1_455 S
U166 O184 2.438 . S
U166 O185 2.416 . S
U166 O186 2.457 1_455 S
U166 O187 2.447 . S
O167 U166 2.456 1_655 S
O167 C169 1.353 . S
O168 U166 2.462 1_655 S
O168 C169 1.286 . S
C169 U166 2.988 1_655 S
C169 O167 1.353 . S
C169 O168 1.286 . S
C169 C171 1.363 . S
C170 C160 1.465 . S
C170 U166 2.843 . S
C170 O184 1.249 . S
C170 O185 1.202 . S
C171 C169 1.363 . S
C171 C173 1.408 . S
C171 C176 1.342 . S
C172 C173 1.310 . S
C172 C175 1.461 . S
C172 H192 0.932 . S
C173 C171 1.408 . S
C173 C172 1.310 . S
C173 H193 0.930 . S
C174 C175 1.474 . S
C174 C176 1.285 . S
C174 H194 0.929 . S
C175 C172 1.461 . S
C175 C174 1.474 . S
C176 C171 1.342 . S
C176 C174 1.285 . S
C176 H195 0.930 . S
C177 C180 1.424 1_655 S
C177 C182 1.245 . S
C177 C183 1.428 . S
C178 C181 1.260 . S
C178 C182 1.477 . S
C178 H196 0.932 . S
C179 C180 1.384 . S
C179 C181 1.479 1_455 S
C179 H197 0.929 . S
C180 C177 1.424 1_455 S
C180 C179 1.384 . S
C180 H198 0.928 . S
C181 C178 1.260 . S
C181 C179 1.479 1_655 S
C182 C177 1.245 . S
C182 C178 1.477 . S
C182 H199 0.932 . S
C183 U166 2.883 1_655 S
C183 C177 1.428 . S
C183 O186 1.301 . S
C183 O187 1.282 1_655 S
O184 U166 2.438 . S
O184 C170 1.249 . S
O185 U166 2.416 . S
O185 C170 1.202 . S
O186 U166 2.457 1_655 S
O186 C183 1.301 . S
O187 U166 2.447 . S
O187 C183 1.282 1_455 S
H188 C161 0.931 . S
H189 C163 0.929 . S
H190 C164 0.930 . S
H191 C165 0.931 . S
H192 C172 0.932 . S
H193 C173 0.930 . S
H194 C174 0.929 . S
H195 C176 0.930 . S
H196 C178 0.932 . S
H197 C179 0.929 . S
H198 C180 0.928 . S
H199 C182 0.932 . S
C200 C201 1.264 . S
C200 C205 1.479 1_565 S
C200 C210 1.465 . S
C201 C200 1.264 . S
C201 C203 1.339 . S
C201 H228 0.931 . S
C202 C203 1.395 . S
C202 C204 1.320 1_565 S
C203 C201 1.339 . S
C203 C202 1.395 . S
C203 H229 0.929 . S
C204 C202 1.320 1_545 S
C204 C205 1.405 . S
C204 H230 0.930 . S
C205 C200 1.479 1_545 S
C205 C204 1.405 . S
C205 H231 0.931 . S
U206 O207 2.454 . S
U206 O208 2.458 . S
U206 C209 2.984 . S
U206 C210 2.847 . S
U206 C223 2.882 . S
U206 O224 2.441 . S
U206 O225 2.420 . S
U206 O226 2.455 . S
U206 O227 2.449 . S
O207 U206 2.454 . S
O207 C209 1.353 . S
O208 U206 2.458 . S
O208 C209 1.286 . S
C209 U206 2.984 . S
C209 O207 1.353 . S
C209 O208 1.286 . S
C209 C211 1.363 1_565 S
C210 C200 1.465 . S
C210 U206 2.847 . S
C210 O224 1.249 . S
C210 O225 1.202 . S
C211 C209 1.363 1_545 S
C211 C213 1.408 . S
C211 C216 1.342 1_545 S
C212 C213 1.310 . S
C212 C215 1.461 . S
C212 H232 0.932 . S
C213 C211 1.408 . S
C213 C212 1.310 . S
C213 H233 0.930 . S
C214 C215 1.474 . S
C214 C216 1.285 1_545 S
C214 H234 0.929 . S
C215 C212 1.461 . S
C215 C214 1.474 . S
C216 C211 1.342 1_565 S
C216 C214 1.285 1_565 S
C216 H235 0.930 . S
C217 C220 1.424 . S
C217 C222 1.245 . S
C217 C223 1.428 . S
C218 C221 1.260 . S
C218 C222 1.477 . S
C218 H236 0.932 . S
C219 C220 1.384 . S
C219 C221 1.479 . S
C219 H237 0.929 1_556 S
C220 C217 1.424 . S
C220 C219 1.384 . S
C220 H238 0.928 . S
C221 C218 1.260 . S
C221 C219 1.479 . S
C222 C217 1.245 . S
C222 C218 1.477 . S
C222 H239 0.932 . S
C223 U206 2.882 . S
C223 C217 1.428 . S
C223 O226 1.301 . S
C223 O227 1.282 . S
O224 U206 2.441 . S
O224 C210 1.249 . S
O225 U206 2.420 . S
O225 C210 1.202 . S
O226 U206 2.455 . S
O226 C223 1.301 . S
O227 U206 2.449 . S
O227 C223 1.282 . S
H228 C201 0.931 . S
H229 C203 0.929 . S
H230 C204 0.930 . S
H231 C205 0.931 . S
H232 C212 0.932 . S
H233 C213 0.930 . S
H234 C214 0.929 . S
H235 C216 0.930 . S
H236 C218 0.932 . S
H237 C219 0.929 1_554 S
H238 C220 0.928 . S
H239 C222 0.932 . S
C240 C241 1.264 . S
C240 C245 1.479 . S
C240 C250 1.465 . S
C241 C240 1.264 . S
C241 C243 1.339 . S
C241 H268 0.931 . S
C242 C243 1.395 . S
C242 C244 1.320 . S
C243 C241 1.339 . S
C243 C242 1.395 . S
C243 H269 0.929 . S
C244 C242 1.320 . S
C244 C245 1.405 . S
C244 H270 0.930 . S
C245 C240 1.479 . S
C245 C244 1.405 . S
C245 H271 0.931 . S
U246 O247 2.454 . S
U246 O248 2.458 . S
U246 C249 2.984 . S
U246 C250 2.847 . S
U246 C263 2.882 . S
U246 O264 2.441 . S
U246 O265 2.420 . S
U246 O266 2.455 . S
U246 O267 2.449 . S
O247 U246 2.454 . S
O247 C249 1.353 . S
O248 U246 2.458 . S
O248 C249 1.286 . S
C249 U246 2.984 . S
C249 O247 1.353 . S
C249 O248 1.286 . S
C249 C251 1.363 . S
C250 C240 1.465 . S
C250 U246 2.847 . S
C250 O264 1.249 . S
C250 O265 1.202 . S
C251 C249 1.363 . S
C251 C253 1.408 . S
C251 C256 1.342 . S
C252 C253 1.310 . S
C252 C255 1.461 . S
C252 H272 0.932 . S
C253 C251 1.408 . S
C253 C252 1.310 . S
C253 H273 0.930 . S
C254 C255 1.474 . S
C254 C256 1.285 . S
C254 H274 0.929 . S
C255 C252 1.461 . S
C255 C254 1.474 . S
C256 C251 1.342 . S
C256 C254 1.285 . S
C256 H275 0.930 . S
C257 C260 1.424 . S
C257 C262 1.245 . S
C257 C263 1.428 . S
C258 C261 1.260 . S
C258 C262 1.477 . S
C258 H276 0.932 . S
C259 C260 1.384 . S
C259 C261 1.479 . S
C259 H277 0.929 . S
C260 C257 1.424 . S
C260 C259 1.384 . S
C260 H278 0.928 . S
C261 C258 1.260 . S
C261 C259 1.479 . S
C262 C257 1.245 . S
C262 C258 1.477 . S
C262 H279 0.932 . S
C263 U246 2.882 . S
C263 C257 1.428 . S
C263 O266 1.301 . S
C263 O267 1.282 . S
O264 U246 2.441 . S
O264 C250 1.249 . S
O265 U246 2.420 . S
O265 C250 1.202 . S
O266 U246 2.455 . S
O266 C263 1.301 . S
O267 U246 2.449 . S
O267 C263 1.282 . S
H268 C241 0.931 . S
H269 C243 0.929 . S
H270 C244 0.930 . S
H271 C245 0.931 . S
H272 C252 0.932 . S
H273 C253 0.930 . S
H274 C254 0.929 . S
H275 C256 0.930 . S
H276 C258 0.932 . S
H277 C259 0.929 . S
H278 C260 0.928 . S
H279 C262 0.932 . S
C280 C281 1.264 . S
C280 C285 1.479 . S
C280 C290 1.465 . S
C281 C280 1.264 . S
C281 C283 1.339 . S
C281 H308 0.931 . S
C282 C283 1.395 . S
C282 C284 1.320 . S
C283 C281 1.339 . S
C283 C282 1.395 . S
C283 H309 0.929 . S
C284 C282 1.320 . S
C284 C285 1.405 . S
C284 H310 0.930 . S
C285 C280 1.479 . S
C285 C284 1.405 . S
C285 H311 0.931 . S
U286 O287 2.454 . S
U286 O288 2.458 1_455 S
U286 C289 2.984 1_455 S
U286 C290 2.847 . S
U286 C303 2.882 1_455 S
U286 O304 2.441 . S
U286 O305 2.420 . S
U286 O306 2.455 1_455 S
U286 O307 2.449 . S
O287 U286 2.454 . S
O287 C289 1.352 1_455 S
O288 U286 2.458 1_655 S
O288 C289 1.286 . S
C289 U286 2.984 1_655 S
C289 O287 1.352 1_655 S
C289 O288 1.286 . S
C289 C291 1.363 . S
C290 C280 1.465 . S
C290 U286 2.847 . S
C290 O304 1.249 . S
C290 O305 1.202 . S
C291 C289 1.363 . S
C291 C293 1.408 . S
C291 C296 1.342 . S
C292 C293 1.310 . S
C292 C295 1.461 . S
C292 H312 0.932 . S
C293 C291 1.408 . S
C293 C292 1.310 . S
C293 H313 0.930 . S
C294 C295 1.474 . S
C294 C296 1.285 . S
C294 H314 0.929 . S
C295 C292 1.461 . S
C295 C294 1.474 . S
C296 C291 1.342 . S
C296 C294 1.285 . S
C296 H315 0.930 . S
C297 C300 1.424 . S
C297 C302 1.245 . S
C297 C303 1.428 . S
C298 C301 1.260 . S
C298 C302 1.477 . S
C298 H316 0.932 . S
C299 C300 1.384 . S
C299 C301 1.479 . S
C299 H317 0.929 . S
C300 C297 1.424 . S
C300 C299 1.384 . S
C300 H318 0.928 . S
C301 C298 1.260 . S
C301 C299 1.479 . S
C302 C297 1.245 . S
C302 C298 1.477 . S
C302 H319 0.932 . S
C303 U286 2.882 1_655 S
C303 C297 1.428 . S
C303 O306 1.301 . S
C303 O307 1.282 1_655 S
O304 U286 2.441 . S
O304 C290 1.249 . S
O305 U286 2.420 . S
O305 C290 1.202 . S
O306 U286 2.455 1_655 S
O306 C303 1.301 . S
O307 U286 2.449 . S
O307 C303 1.282 1_455 S
H308 C281 0.931 . S
H309 C283 0.929 . S
H310 C284 0.930 . S
H311 C285 0.931 . S
H312 C292 0.932 . S
H313 C293 0.930 . S
H314 C294 0.929 . S
H315 C296 0.930 . S
H316 C298 0.932 . S
H317 C299 0.929 . S
H318 C300 0.928 . S
H319 C302 0.932 . S
C320 C321 1.264 . S
C320 C325 1.479 . S
C320 C330 1.465 . S
C321 C320 1.264 . S
C321 C323 1.339 . S
C321 H348 0.931 . S
C322 C323 1.395 . S
C322 C324 1.320 . S
C323 C321 1.339 . S
C323 C322 1.395 . S
C323 H349 0.929 . S
C324 C322 1.320 . S
C324 C325 1.405 . S
C324 H350 0.930 . S
C325 C320 1.479 . S
C325 C324 1.405 . S
C325 H351 0.931 . S
U326 O327 2.435 1_545 S
U326 O328 2.425 1_545 S
U326 C329 2.955 1_545 S
U326 C330 2.876 . S
U326 C343 2.883 1_545 S
U326 O344 2.459 . S
U326 O345 2.453 . S
U326 O346 2.440 1_545 S
U326 O347 2.464 . S
O327 U326 2.435 1_565 S
O327 C329 1.353 . S
O328 U326 2.425 1_565 S
O328 C329 1.286 . S
C329 U326 2.955 1_565 S
C329 O327 1.353 . S
C329 O328 1.286 . S
C329 C331 1.363 . S
C330 C320 1.465 . S
C330 U326 2.876 . S
C330 O344 1.249 . S
C330 O345 1.202 . S
C331 C329 1.363 . S
C331 C333 1.408 . S
C331 C336 1.342 . S
C332 C333 1.310 . S
C332 C335 1.461 . S
C332 H352 0.932 . S
C333 C331 1.408 . S
C333 C332 1.310 . S
C333 H353 0.930 . S
C334 C335 1.474 . S
C334 C336 1.285 . S
C334 H354 0.929 . S
C335 C332 1.461 . S
C335 C334 1.474 . S
C336 C331 1.342 . S
C336 C334 1.285 . S
C336 H355 0.930 . S
C337 C340 1.424 1_565 S
C337 C342 1.245 . S
C337 C343 1.428 . S
C338 C341 1.277 . S
C338 C342 1.477 . S
C338 H356 0.932 . S
C339 C340 1.384 . S
C339 C341 1.461 1_545 S
C339 H357 0.929 . S
C340 C337 1.424 1_545 S
C340 C339 1.384 . S
C340 H358 0.928 . S
C341 C338 1.277 . S
C341 C339 1.461 1_565 S
C342 C337 1.245 . S
C342 C338 1.477 . S
C342 H359 0.932 . S
C343 U326 2.883 1_565 S
C343 C337 1.428 . S
C343 O346 1.308 . S
C343 O347 1.275 1_565 S
O344 U326 2.459 . S
O344 C330 1.249 . S
O345 U326 2.453 . S
O345 C330 1.202 . S
O346 U326 2.440 1_565 S
O346 C343 1.308 . S
O347 U326 2.464 . S
O347 C343 1.275 1_545 S
H348 C321 0.931 . S
H349 C323 0.929 . S
H350 C324 0.930 . S
H351 C325 0.931 . S
H352 C332 0.932 . S
H353 C333 0.930 . S
H354 C334 0.929 . S
H355 C336 0.930 . S
H356 C338 0.932 . S
H357 C339 0.929 . S
H358 C340 0.928 . S
H359 C342 0.932 . S
C360 C361 1.264 . S
C360 C365 1.479 . S
C360 C370 1.465 . S
C361 C360 1.264 . S
C361 C363 1.339 . S
C361 H388 0.931 . S
C362 C363 1.395 . S
C362 C364 1.320 . S
C363 C361 1.339 . S
C363 C362 1.395 . S
C363 H389 0.929 . S
C364 C362 1.320 . S
C364 C365 1.405 . S
C364 H390 0.930 . S
C365 C360 1.479 . S
C365 C364 1.405 . S
C365 H391 0.931 . S
U366 O367 2.454 . S
U366 O368 2.458 . S
U366 C369 2.984 . S
U366 C370 2.847 . S
U366 C383 2.882 . S
U366 O384 2.441 . S
U366 O385 2.420 . S
U366 O386 2.455 . S
U366 O387 2.449 . S
O367 U366 2.454 . S
O367 C369 1.353 . S
O368 U366 2.458 . S
O368 C369 1.286 . S
C369 U366 2.984 . S
C369 O367 1.353 . S
C369 O368 1.286 . S
C369 C371 1.363 . S
C370 C360 1.465 . S
C370 U366 2.847 . S
C370 O384 1.249 . S
C370 O385 1.202 . S
C371 C369 1.363 . S
C371 C373 1.408 . S
C371 C376 1.342 . S
C372 C373 1.310 . S
C372 C375 1.461 . S
C372 H392 0.932 . S
C373 C371 1.408 . S
C373 C372 1.310 . S
C373 H393 0.930 . S
C374 C375 1.474 . S
C374 C376 1.285 . S
C374 H394 0.929 . S
C375 C372 1.461 . S
C375 C374 1.474 . S
C376 C371 1.342 . S
C376 C374 1.285 . S
C376 H395 0.930 . S
C377 C380 1.424 . S
C377 C382 1.245 . S
C377 C383 1.428 . S
C378 C381 1.260 . S
C378 C382 1.477 . S
C378 H396 0.932 . S
C379 C380 1.384 . S
C379 C381 1.479 . S
C379 H397 0.929 . S
C380 C377 1.424 . S
C380 C379 1.384 . S
C380 H398 0.928 . S
C381 C378 1.260 . S
C381 C379 1.479 . S
C382 C377 1.245 . S
C382 C378 1.477 . S
C382 H399 0.932 . S
C383 U366 2.882 . S
C383 C377 1.428 . S
C383 O386 1.301 . S
C383 O387 1.282 . S
O384 U366 2.441 . S
O384 C370 1.249 . S
O385 U366 2.420 . S
O385 C370 1.202 . S
O386 U366 2.455 . S
O386 C383 1.301 . S
O387 U366 2.449 . S
O387 C383 1.282 . S
H388 C361 0.931 . S
H389 C363 0.929 . S
H390 C364 0.930 . S
H391 C365 0.931 . S
H392 C372 0.932 . S
H393 C373 0.930 . S
H394 C374 0.929 . S
H395 C376 0.930 . S
H396 C378 0.932 . S
H397 C379 0.929 . S
H398 C380 0.928 . S
H399 C382 0.932 . S
C400 C401 1.264 . S
C400 C405 1.479 . S
C400 C410 1.465 . S
C401 C400 1.264 . S
C401 C403 1.339 . S
C401 H428 0.931 . S
C402 C403 1.395 . S
C402 C404 1.320 . S
C403 C401 1.339 . S
C403 C402 1.395 . S
C403 H429 0.929 . S
C404 C402 1.320 . S
C404 C405 1.405 . S
C404 H430 0.930 1_556 S
C405 C400 1.479 . S
C405 C404 1.405 . S
C405 H431 0.931 . S
U406 O407 2.454 . S
U406 O408 2.458 . S
U406 C409 2.984 . S
U406 C410 2.847 . S
U406 C423 2.882 . S
U406 O424 2.441 . S
U406 O425 2.420 . S
U406 O426 2.455 . S
U406 O427 2.449 . S
O407 U406 2.454 . S
O407 C409 1.353 . S
O408 U406 2.458 . S
O408 C409 1.286 . S
C409 U406 2.984 . S
C409 O407 1.353 . S
C409 O408 1.286 . S
C409 C411 1.363 . S
C410 C400 1.465 . S
C410 U406 2.847 . S
C410 O424 1.249 . S
C410 O425 1.202 . S
C411 C409 1.363 . S
C411 C413 1.408 . S
C411 C416 1.342 . S
C412 C413 1.310 1_554 S
C412 C415 1.461 1_554 S
C412 H432 0.932 . S
C413 C411 1.408 . S
C413 C412 1.310 1_556 S
C413 H433 0.937 . S
C414 C415 1.474 . S
C414 C416 1.285 . S
C414 H434 0.929 . S
C415 C412 1.461 1_556 S
C415 C414 1.474 . S
C416 C411 1.342 . S
C416 C414 1.285 . S
C416 H435 0.930 . S
C417 C420 1.424 . S
C417 C422 1.245 . S
C417 C423 1.428 . S
C418 C421 1.260 . S
C418 C422 1.477 . S
C418 H436 0.932 . S
C419 C420 1.384 . S
C419 C421 1.479 . S
C419 H437 0.929 . S
C420 C417 1.424 . S
C420 C419 1.384 . S
C420 H438 0.928 . S
C421 C418 1.260 . S
C421 C419 1.479 . S
C422 C417 1.245 . S
C422 C418 1.477 . S
C422 H439 0.932 . S
C423 U406 2.882 . S
C423 C417 1.428 . S
C423 O426 1.301 . S
C423 O427 1.282 . S
O424 U406 2.441 . S
O424 C410 1.249 . S
O425 U406 2.420 . S
O425 C410 1.202 . S
O426 U406 2.455 . S
O426 C423 1.301 . S
O427 U406 2.449 . S
O427 C423 1.282 . S
H428 C401 0.931 . S
H429 C403 0.929 . S
H430 C404 0.930 1_554 S
H431 C405 0.931 . S
H432 C412 0.932 . S
H433 C413 0.937 . S
H434 C414 0.929 . S
H435 C416 0.930 . S
H436 C418 0.932 . S
H437 C419 0.929 . S
H438 C420 0.928 . S
H439 C422 0.932 . S
C440 C441 1.264 . S
C440 C445 1.479 . S
C440 C450 1.465 . S
C441 C440 1.264 . S
C441 C443 1.339 . S
C441 H468 0.931 . S
C442 C443 1.395 . S
C442 C444 1.320 . S
C443 C441 1.339 . S
C443 C442 1.395 . S
C443 H469 0.929 . S
C444 C442 1.320 . S
C444 C445 1.405 . S
C444 H470 0.930 . S
C445 C440 1.479 . S
C445 C444 1.405 . S
C445 H471 0.931 . S
U446 O447 2.454 . S
U446 O448 2.458 . S
U446 C449 2.984 . S
U446 C450 2.847 . S
U446 C463 2.882 . S
U446 O464 2.441 . S
U446 O465 2.420 . S
U446 O466 2.455 . S
U446 O467 2.449 . S
O447 U446 2.454 . S
O447 C449 1.353 . S
O448 U446 2.458 . S
O448 C449 1.286 . S
C449 U446 2.984 . S
C449 O447 1.353 . S
C449 O448 1.286 . S
C449 C451 1.363 . S
C450 C440 1.465 . S
C450 U446 2.847 . S
C450 O464 1.249 . S
C450 O465 1.202 . S
C451 C449 1.363 . S
C451 C453 1.408 . S
C451 C456 1.342 . S
C452 C453 1.310 . S
C452 C455 1.461 . S
C452 H472 0.932 . S
C453 C451 1.408 . S
C453 C452 1.310 . S
C453 H473 0.930 . S
C454 C455 1.474 . S
C454 C456 1.285 . S
C454 H474 0.929 . S
C455 C452 1.461 . S
C455 C454 1.474 . S
C456 C451 1.342 . S
C456 C454 1.285 . S
C456 H475 0.930 . S
C457 C460 1.424 . S
C457 C462 1.245 . S
C457 C463 1.428 . S
C458 C461 1.260 . S
C458 C462 1.477 . S
C458 H476 0.932 . S
C459 C460 1.384 . S
C459 C461 1.479 . S
C459 H477 0.929 . S
C460 C457 1.424 . S
C460 C459 1.384 . S
C460 H478 0.928 . S
C461 C458 1.260 . S
C461 C459 1.479 . S
C462 C457 1.245 . S
C462 C458 1.477 . S
C462 H479 0.932 . S
C463 U446 2.882 . S
C463 C457 1.428 . S
C463 O466 1.301 . S
C463 O467 1.282 . S
O464 U446 2.441 . S
O464 C450 1.249 . S
O465 U446 2.420 . S
O465 C450 1.202 . S
O466 U446 2.455 . S
O466 C463 1.301 . S
O467 U446 2.449 . S
O467 C463 1.282 . S
H468 C441 0.931 . S
H469 C443 0.929 . S
H470 C444 0.930 . S
H471 C445 0.931 . S
H472 C452 0.932 . S
H473 C453 0.930 . S
H474 C454 0.929 . S
H475 C456 0.930 . S
H476 C458 0.932 . S
H477 C459 0.929 . S
H478 C460 0.928 . S
H479 C462 0.932 . S
C480 C481 1.264 . S
C480 C485 1.479 . S
C480 C490 1.465 . S
C481 C480 1.264 . S
C481 C483 1.339 . S
C481 H508 0.931 . S
C482 C483 1.395 . S
C482 C484 1.320 . S
C483 C481 1.339 . S
C483 C482 1.395 . S
C483 H509 0.929 . S
C484 C482 1.320 . S
C484 C485 1.405 . S
C484 H510 0.930 . S
C485 C480 1.479 . S
C485 C484 1.405 . S
C485 H511 0.931 . S
U486 O487 2.454 . S
U486 O488 2.458 . S
U486 C489 2.984 . S
U486 C490 2.847 . S
U486 C503 2.882 . S
U486 O504 2.441 . S
U486 O505 2.420 . S
U486 O506 2.455 . S
U486 O507 2.449 . S
O487 U486 2.454 . S
O487 C489 1.353 . S
O488 U486 2.458 . S
O488 C489 1.286 . S
C489 U486 2.984 . S
C489 O487 1.353 . S
C489 O488 1.286 . S
C489 C491 1.363 . S
C490 C480 1.465 . S
C490 U486 2.847 . S
C490 O504 1.249 . S
C490 O505 1.202 . S
C491 C489 1.363 . S
C491 C493 1.408 . S
C491 C496 1.342 . S
C492 C493 1.310 . S
C492 C495 1.461 . S
C492 H512 0.932 . S
C493 C491 1.408 . S
C493 C492 1.310 . S
C493 H513 0.930 . S
C494 C495 1.474 . S
C494 C496 1.285 . S
C494 H514 0.929 . S
C495 C492 1.461 . S
C495 C494 1.474 . S
C496 C491 1.342 . S
C496 C494 1.285 . S
C496 H515 0.930 . S
C497 C500 1.424 . S
C497 C502 1.245 . S
C497 C503 1.428 . S
C498 C501 1.260 . S
C498 C502 1.477 . S
C498 H516 0.932 . S
C499 C500 1.384 . S
C499 C501 1.479 . S
C499 H517 0.929 . S
C500 C497 1.424 . S
C500 C499 1.384 . S
C500 H518 0.928 . S
C501 C498 1.260 . S
C501 C499 1.479 . S
C502 C497 1.245 . S
C502 C498 1.477 . S
C502 H519 0.932 . S
C503 U486 2.882 . S
C503 C497 1.428 . S
C503 O506 1.301 . S
C503 O507 1.282 . S
O504 U486 2.441 . S
O504 C490 1.249 . S
O505 U486 2.420 . S
O505 C490 1.202 . S
O506 U486 2.455 . S
O506 C503 1.301 . S
O507 U486 2.449 . S
O507 C503 1.282 . S
H508 C481 0.931 . S
H509 C483 0.929 . S
H510 C484 0.930 . S
H511 C485 0.931 . S
H512 C492 0.932 . S
H513 C493 0.930 . S
H514 C494 0.929 . S
H515 C496 0.930 . S
H516 C498 0.932 . S
H517 C499 0.929 . S
H518 C500 0.928 . S
H519 C502 0.932 . S
C520 C521 1.264 . S
C520 C525 1.479 . S
C520 C530 1.465 . S
C521 C520 1.264 . S
C521 C523 1.339 . S
C521 H548 0.931 . S
C522 C523 1.395 . S
C522 C524 1.320 . S
C523 C521 1.339 . S
C523 C522 1.395 . S
C523 H549 0.929 . S
C524 C522 1.320 . S
C524 C525 1.405 . S
C524 H550 0.930 . S
C525 C520 1.479 . S
C525 C524 1.405 . S
C525 H551 0.931 . S
U526 O527 2.454 . S
U526 O528 2.458 . S
U526 C529 2.984 . S
U526 C530 2.847 . S
U526 C543 2.882 . S
U526 O544 2.441 . S
U526 O545 2.420 . S
U526 O546 2.455 . S
U526 O547 2.449 . S
O527 U526 2.454 . S
O527 C529 1.353 . S
O528 U526 2.458 . S
O528 C529 1.286 . S
C529 U526 2.984 . S
C529 O527 1.353 . S
C529 O528 1.286 . S
C529 C531 1.363 . S
C530 C520 1.465 . S
C530 U526 2.847 . S
C530 O544 1.249 . S
C530 O545 1.202 . S
C531 C529 1.363 . S
C531 C533 1.408 . S
C531 C536 1.342 . S
C532 C533 1.310 . S
C532 C535 1.461 . S
C532 H552 0.932 . S
C533 C531 1.408 . S
C533 C532 1.310 . S
C533 H553 0.930 . S
C534 C535 1.474 . S
C534 C536 1.285 . S
C534 H554 0.929 . S
C535 C532 1.461 . S
C535 C534 1.474 . S
C536 C531 1.342 . S
C536 C534 1.285 . S
C536 H555 0.930 . S
C537 C540 1.424 . S
C537 C542 1.245 . S
C537 C543 1.428 . S
C538 C541 1.260 . S
C538 C542 1.477 . S
C538 H556 0.932 . S
C539 C540 1.384 . S
C539 C541 1.479 . S
C539 H557 0.929 . S
C540 C537 1.424 . S
C540 C539 1.384 . S
C540 H558 0.928 . S
C541 C538 1.260 . S
C541 C539 1.479 . S
C542 C537 1.245 . S
C542 C538 1.477 . S
C542 H559 0.932 . S
C543 U526 2.882 . S
C543 C537 1.428 . S
C543 O546 1.301 . S
C543 O547 1.282 . S
O544 U526 2.441 . S
O544 C530 1.249 . S
O545 U526 2.420 . S
O545 C530 1.202 . S
O546 U526 2.455 . S
O546 C543 1.301 . S
O547 U526 2.449 . S
O547 C543 1.282 . S
H548 C521 0.931 . S
H549 C523 0.929 . S
H550 C524 0.930 . S
H551 C525 0.931 . S
H552 C532 0.932 . S
H553 C533 0.930 . S
H554 C534 0.929 . S
H555 C536 0.930 . S
H556 C538 0.932 . S
H557 C539 0.929 . S
H558 C540 0.928 . S
H559 C542 0.932 . S
C560 C561 1.264 . S
C560 C565 1.479 . S
C560 C570 1.465 . S
C561 C560 1.264 . S
C561 C563 1.339 . S
C561 H588 0.931 . S
C562 C563 1.395 . S
C562 C564 1.320 . S
C563 C561 1.339 . S
C563 C562 1.395 . S
C563 H589 0.929 . S
C564 C562 1.320 . S
C564 C565 1.405 . S
C564 H590 0.930 . S
C565 C560 1.479 . S
C565 C564 1.405 . S
C565 H591 0.931 . S
U566 O567 2.456 1_545 S
U566 O568 2.462 1_545 S
U566 C569 2.988 1_545 S
U566 C570 2.843 . S
U566 C583 2.883 1_545 S
U566 O584 2.438 . S
U566 O585 2.416 . S
U566 O586 2.457 1_545 S
U566 O587 2.447 . S
O567 U566 2.456 1_565 S
O567 C569 1.353 . S
O568 U566 2.462 1_565 S
O568 C569 1.286 . S
C569 U566 2.988 1_565 S
C569 O567 1.353 . S
C569 O568 1.286 . S
C569 C571 1.363 . S
C570 C560 1.465 . S
C570 U566 2.843 . S
C570 O584 1.249 . S
C570 O585 1.202 . S
C571 C569 1.363 . S
C571 C573 1.408 . S
C571 C576 1.342 . S
C572 C573 1.310 . S
C572 C575 1.461 . S
C572 H592 0.932 . S
C573 C571 1.408 . S
C573 C572 1.310 . S
C573 H593 0.930 . S
C574 C575 1.474 . S
C574 C576 1.285 . S
C574 H594 0.929 . S
C575 C572 1.461 . S
C575 C574 1.474 . S
C576 C571 1.342 . S
C576 C574 1.285 . S
C576 H595 0.930 . S
C577 C580 1.424 1_565 S
C577 C582 1.245 . S
C577 C583 1.428 . S
C578 C581 1.260 . S
C578 C582 1.477 . S
C578 H596 0.932 . S
C579 C580 1.384 . S
C579 C581 1.479 1_545 S
C579 H597 0.929 . S
C580 C577 1.424 1_545 S
C580 C579 1.384 . S
C580 H598 0.928 . S
C581 C578 1.260 . S
C581 C579 1.479 1_565 S
C582 C577 1.245 . S
C582 C578 1.477 . S
C582 H599 0.932 . S
C583 U566 2.883 1_565 S
C583 C577 1.428 . S
C583 O586 1.301 . S
C583 O587 1.282 1_565 S
O584 U566 2.438 . S
O584 C570 1.249 . S
O585 U566 2.416 . S
O585 C570 1.202 . S
O586 U566 2.457 1_565 S
O586 C583 1.301 . S
O587 U566 2.447 . S
O587 C583 1.282 1_545 S
H588 C561 0.931 . S
H589 C563 0.929 . S
H590 C564 0.930 . S
H591 C565 0.931 . S
H592 C572 0.932 . S
H593 C573 0.930 . S
H594 C574 0.929 . S
H595 C576 0.930 . S
H596 C578 0.932 . S
H597 C579 0.929 . S
H598 C580 0.928 . S
H599 C582 0.932 . S
C600 C601 1.264 . S
C600 C605 1.479 . S
C600 C610 1.465 . S
C601 C600 1.264 . S
C601 C603 1.339 . S
C601 H628 0.931 . S
C602 C603 1.395 . S
C602 C604 1.320 . S
C603 C601 1.339 . S
C603 C602 1.395 . S
C603 H629 0.929 . S
C604 C602 1.320 . S
C604 C605 1.405 . S
C604 H630 0.930 . S
C605 C600 1.479 . S
C605 C604 1.405 . S
C605 H631 0.931 . S
U606 O607 2.454 . S
U606 O608 2.458 1_554 S
U606 C609 2.984 1_554 S
U606 C610 2.847 . S
U606 C623 2.882 1_554 S
U606 O624 2.441 . S
U606 O625 2.420 . S
U606 O626 2.455 1_554 S
U606 O627 2.449 . S
O607 U606 2.454 . S
O607 C609 1.352 1_554 S
O608 U606 2.458 1_556 S
O608 C609 1.286 . S
C609 U606 2.984 1_556 S
C609 O607 1.352 1_556 S
C609 O608 1.286 . S
C609 C611 1.363 . S
C610 C600 1.465 . S
C610 U606 2.847 . S
C610 O624 1.249 . S
C610 O625 1.202 . S
C611 C609 1.363 . S
C611 C613 1.408 . S
C611 C616 1.342 . S
C612 C613 1.310 . S
C612 C615 1.461 . S
C612 H632 0.932 . S
C613 C611 1.408 . S
C613 C612 1.310 . S
C613 H633 0.930 . S
C614 C615 1.474 . S
C614 C616 1.285 . S
C614 H634 0.929 . S
C615 C612 1.461 . S
C615 C614 1.474 . S
C616 C611 1.342 . S
C616 C614 1.285 . S
C616 H635 0.930 . S
C617 C620 1.424 . S
C617 C622 1.245 . S
C617 C623 1.428 . S
C618 C621 1.260 . S
C618 C622 1.477 . S
C618 H636 0.932 . S
C619 C620 1.384 . S
C619 C621 1.479 . S
C619 H637 0.929 . S
C620 C617 1.424 . S
C620 C619 1.384 . S
C620 H638 0.928 . S
C621 C618 1.260 . S
C621 C619 1.479 . S
C622 C617 1.245 . S
C622 C618 1.477 . S
C622 H639 0.932 . S
C623 U606 2.882 1_556 S
C623 C617 1.428 . S
C623 O626 1.301 . S
C623 O627 1.282 1_556 S
O624 U606 2.441 . S
O624 C610 1.249 . S
O625 U606 2.420 . S
O625 C610 1.202 . S
O626 U606 2.455 1_556 S
O626 C623 1.301 . S
O627 U606 2.449 . S
O627 C623 1.282 1_554 S
H628 C601 0.931 . S
H629 C603 0.929 . S
H630 C604 0.930 . S
H631 C605 0.931 . S
H632 C612 0.932 . S
H633 C613 0.930 . S
H634 C614 0.929 . S
H635 C616 0.930 . S
H636 C618 0.932 . S
H637 C619 0.929 . S
H638 C620 0.928 . S
H639 C622 0.932 . S
C640 C641 1.264 . S
C640 C645 1.479 . S
C640 C650 1.465 . S
C641 C640 1.264 . S
C641 C643 1.339 . S
C641 H668 0.931 . S
C642 C643 1.395 . S
C642 C644 1.320 . S
C643 C641 1.339 . S
C643 C642 1.395 . S
C643 H669 0.929 . S
C644 C642 1.320 . S
C644 C645 1.405 . S
C644 H670 0.930 . S
C645 C640 1.479 . S
C645 C644 1.405 . S
C645 H671 0.931 . S
U646 O647 2.435 1_554 S
U646 O648 2.425 1_554 S
U646 C649 2.955 1_554 S
U646 C650 2.876 . S
U646 C663 2.883 1_554 S
U646 O664 2.459 . S
U646 O665 2.453 . S
U646 O666 2.440 1_554 S
U646 O667 2.464 . S
O647 U646 2.435 1_556 S
O647 C649 1.353 . S
O648 U646 2.425 1_556 S
O648 C649 1.286 . S
C649 U646 2.955 1_556 S
C649 O647 1.353 . S
C649 O648 1.286 . S
C649 C651 1.363 . S
C650 C640 1.465 . S
C650 U646 2.876 . S
C650 O664 1.249 . S
C650 O665 1.202 . S
C651 C649 1.363 . S
C651 C653 1.408 . S
C651 C656 1.342 . S
C652 C653 1.310 . S
C652 C655 1.461 . S
C652 H672 0.932 . S
C653 C651 1.408 . S
C653 C652 1.310 . S
C653 H673 0.930 . S
C654 C655 1.474 . S
C654 C656 1.285 . S
C654 H674 0.929 . S
C655 C652 1.461 . S
C655 C654 1.474 . S
C656 C651 1.342 . S
C656 C654 1.285 . S
C656 H675 0.930 . S
C657 C660 1.424 1_556 S
C657 C662 1.245 . S
C657 C663 1.428 . S
C658 C661 1.277 . S
C658 C662 1.477 . S
C658 H676 0.932 . S
C659 C660 1.384 . S
C659 C661 1.461 1_554 S
C659 H677 0.929 . S
C660 C657 1.424 1_554 S
C660 C659 1.384 . S
C660 H678 0.928 . S
C661 C658 1.277 . S
C661 C659 1.461 1_556 S
C662 C657 1.245 . S
C662 C658 1.477 . S
C662 H679 0.932 . S
C663 U646 2.883 1_556 S
C663 C657 1.428 . S
C663 O666 1.308 . S
C663 O667 1.275 1_556 S
O664 U646 2.459 . S
O664 C650 1.249 . S
O665 U646 2.453 . S
O665 C650 1.202 . S
O666 U646 2.440 1_556 S
O666 C663 1.308 . S
O667 U646 2.464 . S
O667 C663 1.275 1_554 S
H668 C641 0.931 . S
H669 C643 0.929 . S
H670 C644 0.930 . S
H671 C645 0.931 . S
H672 C652 0.932 . S
H673 C653 0.930 . S
H674 C654 0.929 . S
H675 C656 0.930 . S
H676 C658 0.932 . S
H677 C659 0.929 . S
H678 C660 0.928 . S
H679 C662 0.932 . S
C680 C681 1.264 . S
C680 C685 1.479 . S
C680 C690 1.465 . S
C681 C680 1.264 . S
C681 C683 1.339 . S
C681 H708 0.931 . S
C682 C683 1.395 . S
C682 C684 1.320 . S
C683 C681 1.339 . S
C683 C682 1.395 . S
C683 H709 0.929 . S
C684 C682 1.320 . S
C684 C685 1.405 . S
C684 H710 0.930 1_655 S
C685 C680 1.479 . S
C685 C684 1.405 . S
C685 H711 0.931 . S
U686 O687 2.454 . S
U686 O688 2.458 . S
U686 C689 2.984 . S
U686 C690 2.847 . S
U686 C703 2.882 . S
U686 O704 2.441 . S
U686 O705 2.420 . S
U686 O706 2.455 . S
U686 O707 2.449 . S
O687 U686 2.454 . S
O687 C689 1.353 . S
O688 U686 2.458 . S
O688 C689 1.286 . S
C689 U686 2.984 . S
C689 O687 1.353 . S
C689 O688 1.286 . S
C689 C691 1.363 . S
C690 C680 1.465 . S
C690 U686 2.847 . S
C690 O704 1.249 . S
C690 O705 1.202 . S
C691 C689 1.363 . S
C691 C693 1.408 . S
C691 C696 1.342 . S
C692 C693 1.310 1_455 S
C692 C695 1.461 1_455 S
C692 H712 0.932 . S
C693 C691 1.408 . S
C693 C692 1.310 1_655 S
C693 H713 0.937 . S
C694 C695 1.474 . S
C694 C696 1.285 . S
C694 H714 0.929 . S
C695 C692 1.461 1_655 S
C695 C694 1.474 . S
C696 C691 1.342 . S
C696 C694 1.285 . S
C696 H715 0.930 . S
C697 C700 1.424 . S
C697 C702 1.245 . S
C697 C703 1.428 . S
C698 C701 1.260 . S
C698 C702 1.477 . S
C698 H716 0.932 . S
C699 C700 1.384 . S
C699 C701 1.479 . S
C699 H717 0.929 . S
C700 C697 1.424 . S
C700 C699 1.384 . S
C700 H718 0.928 . S
C701 C698 1.260 . S
C701 C699 1.479 . S
C702 C697 1.245 . S
C702 C698 1.477 . S
C702 H719 0.932 . S
C703 U686 2.882 . S
C703 C697 1.428 . S
C703 O706 1.301 . S
C703 O707 1.282 . S
O704 U686 2.441 . S
O704 C690 1.249 . S
O705 U686 2.420 . S
O705 C690 1.202 . S
O706 U686 2.455 . S
O706 C703 1.301 . S
O707 U686 2.449 . S
O707 C703 1.282 . S
H708 C681 0.931 . S
H709 C683 0.929 . S
H710 C684 0.930 1_455 S
H711 C685 0.931 . S
H712 C692 0.932 . S
H713 C693 0.937 . S
H714 C694 0.929 . S
H715 C696 0.930 . S
H716 C698 0.932 . S
H717 C699 0.929 . S
H718 C700 0.928 . S
H719 C702 0.932 . S
C720 C721 1.264 . S
C720 C725 1.479 . S
C720 C730 1.465 . S
C721 C720 1.264 . S
C721 C723 1.339 . S
C721 H748 0.931 . S
C722 C723 1.395 . S
C722 C724 1.320 . S
C723 C721 1.339 . S
C723 C722 1.395 . S
C723 H749 0.929 . S
C724 C722 1.320 . S
C724 C725 1.405 . S
C724 H750 0.930 . S
C725 C720 1.479 . S
C725 C724 1.405 . S
C725 H751 0.931 . S
U726 O727 2.454 . S
U726 O728 2.458 . S
U726 C729 2.984 . S
U726 C730 2.847 . S
U726 C743 2.882 . S
U726 O744 2.441 . S
U726 O745 2.420 . S
U726 O746 2.455 . S
U726 O747 2.449 . S
O727 U726 2.454 . S
O727 C729 1.353 . S
O728 U726 2.458 . S
O728 C729 1.286 . S
C729 U726 2.984 . S
C729 O727 1.353 . S
C729 O728 1.286 . S
C729 C731 1.363 . S
C730 C720 1.465 . S
C730 U726 2.847 . S
C730 O744 1.249 . S
C730 O745 1.202 . S
C731 C729 1.363 . S
C731 C733 1.408 . S
C731 C736 1.342 . S
C732 C733 1.310 . S
C732 C735 1.461 . S
C732 H752 0.932 . S
C733 C731 1.408 . S
C733 C732 1.310 . S
C733 H753 0.930 . S
C734 C735 1.474 . S
C734 C736 1.285 . S
C734 H754 0.929 . S
C735 C732 1.461 . S
C735 C734 1.474 . S
C736 C731 1.342 . S
C736 C734 1.285 . S
C736 H755 0.930 . S
C737 C740 1.424 . S
C737 C742 1.245 . S
C737 C743 1.428 . S
C738 C741 1.260 . S
C738 C742 1.477 . S
C738 H756 0.932 . S
C739 C740 1.384 . S
C739 C741 1.479 . S
C739 H757 0.929 . S
C740 C737 1.424 . S
C740 C739 1.384 . S
C740 H758 0.928 . S
C741 C738 1.260 . S
C741 C739 1.479 . S
C742 C737 1.245 . S
C742 C738 1.477 . S
C742 H759 0.932 . S
C743 U726 2.882 . S
C743 C737 1.428 . S
C743 O746 1.301 . S
C743 O747 1.282 . S
O744 U726 2.441 . S
O744 C730 1.249 . S
O745 U726 2.420 . S
O745 C730 1.202 . S
O746 U726 2.455 . S
O746 C743 1.301 . S
O747 U726 2.449 . S
O747 C743 1.282 . S
H748 C721 0.931 . S
H749 C723 0.929 . S
H750 C724 0.930 . S
H751 C725 0.931 . S
H752 C732 0.932 . S
H753 C733 0.930 . S
H754 C734 0.929 . S
H755 C736 0.930 . S
H756 C738 0.932 . S
H757 C739 0.929 . S
H758 C740 0.928 . S
H759 C742 0.932 . S
C760 C761 1.264 . S
C760 C765 1.479 . S
C760 C770 1.465 . S
C761 C760 1.264 . S
C761 C763 1.339 . S
C761 H788 0.931 . S
C762 C763 1.395 . S
C762 C764 1.320 . S
C763 C761 1.339 . S
C763 C762 1.395 . S
C763 H789 0.929 . S
C764 C762 1.320 . S
C764 C765 1.405 . S
C764 H790 0.930 . S
C765 C760 1.479 . S
C765 C764 1.405 . S
C765 H791 0.931 . S
U766 O767 2.454 . S
U766 O768 2.458 . S
U766 C769 2.984 . S
U766 C770 2.847 . S
U766 C783 2.882 . S
U766 O784 2.441 . S
U766 O785 2.420 . S
U766 O786 2.455 . S
U766 O787 2.449 . S
O767 U766 2.454 . S
O767 C769 1.353 . S
O768 U766 2.458 . S
O768 C769 1.286 . S
C769 U766 2.984 . S
C769 O767 1.353 . S
C769 O768 1.286 . S
C769 C771 1.363 . S
C770 C760 1.465 . S
C770 U766 2.847 . S
C770 O784 1.249 . S
C770 O785 1.202 . S
C771 C769 1.363 . S
C771 C773 1.408 . S
C771 C776 1.342 . S
C772 C773 1.310 . S
C772 C775 1.461 . S
C772 H792 0.932 . S
C773 C771 1.408 . S
C773 C772 1.310 . S
C773 H793 0.930 . S
C774 C775 1.474 . S
C774 C776 1.285 . S
C774 H794 0.939 . S
C775 C772 1.461 . S
C775 C774 1.474 . S
C776 C771 1.342 . S
C776 C774 1.285 . S
C776 H795 0.930 . S
C777 C780 1.420 1_545 S
C777 C782 1.258 . S
C777 C783 1.428 . S
C778 C781 1.260 . S
C778 C782 1.466 1_565 S
C778 H796 0.932 . S
C779 C780 1.388 . S
C779 C781 1.479 . S
C779 H797 0.929 . S
C780 C777 1.420 1_565 S
C780 C779 1.388 . S
C780 H798 0.928 . S
C781 C778 1.260 . S
C781 C779 1.479 . S
C782 C777 1.258 . S
C782 C778 1.466 1_545 S
C782 H799 0.934 . S
C783 U766 2.882 . S
C783 C777 1.428 . S
C783 O786 1.301 . S
C783 O787 1.282 . S
O784 U766 2.441 . S
O784 C770 1.249 . S
O785 U766 2.420 . S
O785 C770 1.202 . S
O786 U766 2.455 . S
O786 C783 1.301 . S
O787 U766 2.449 . S
O787 C783 1.282 . S
H788 C761 0.931 . S
H789 C763 0.929 . S
H790 C764 0.930 . S
H791 C765 0.931 . S
H792 C772 0.932 . S
H793 C773 0.930 . S
H794 C774 0.939 . S
H795 C776 0.930 . S
H796 C778 0.932 . S
H797 C779 0.929 . S
H798 C780 0.928 . S
H799 C782 0.934 . S
C800 C801 1.264 . S
C800 C805 1.479 . S
C800 C810 1.465 . S
C801 C800 1.264 . S
C801 C803 1.339 . S
C801 H828 0.931 . S
C802 C803 1.395 . S
C802 C804 1.320 . S
C803 C801 1.339 . S
C803 C802 1.395 . S
C803 H829 0.929 . S
C804 C802 1.320 . S
C804 C805 1.405 . S
C804 H830 0.930 . S
C805 C800 1.479 . S
C805 C804 1.405 . S
C805 H831 0.931 . S
U806 O807 2.454 . S
U806 O808 2.458 1_545 S
U806 C809 2.984 1_545 S
U806 C810 2.847 . S
U806 C823 2.882 1_545 S
U806 O824 2.441 . S
U806 O825 2.420 . S
U806 O826 2.455 1_545 S
U806 O827 2.449 . S
O807 U806 2.454 . S
O807 C809 1.352 1_545 S
O808 U806 2.458 1_565 S
O808 C809 1.286 . S
C809 U806 2.984 1_565 S
C809 O807 1.352 1_565 S
C809 O808 1.286 . S
C809 C811 1.363 . S
C810 C800 1.465 . S
C810 U806 2.847 . S
C810 O824 1.249 . S
C810 O825 1.202 . S
C811 C809 1.363 . S
C811 C813 1.408 . S
C811 C816 1.342 . S
C812 C813 1.310 . S
C812 C815 1.461 . S
C812 H832 0.932 . S
C813 C811 1.408 . S
C813 C812 1.310 . S
C813 H833 0.930 . S
C814 C815 1.474 . S
C814 C816 1.285 . S
C814 H834 0.929 . S
C815 C812 1.461 . S
C815 C814 1.474 . S
C816 C811 1.342 . S
C816 C814 1.285 . S
C816 H835 0.930 . S
C817 C820 1.424 . S
C817 C822 1.245 . S
C817 C823 1.428 . S
C818 C821 1.260 . S
C818 C822 1.477 . S
C818 H836 0.932 . S
C819 C820 1.384 . S
C819 C821 1.479 . S
C819 H837 0.929 . S
C820 C817 1.424 . S
C820 C819 1.384 . S
C820 H838 0.928 . S
C821 C818 1.260 . S
C821 C819 1.479 . S
C822 C817 1.245 . S
C822 C818 1.477 . S
C822 H839 0.932 . S
C823 U806 2.882 1_565 S
C823 C817 1.428 . S
C823 O826 1.301 . S
C823 O827 1.282 1_565 S
O824 U806 2.441 . S
O824 C810 1.249 . S
O825 U806 2.420 . S
O825 C810 1.202 . S
O826 U806 2.455 1_565 S
O826 C823 1.301 . S
O827 U806 2.449 . S
O827 C823 1.282 1_545 S
H828 C801 0.931 . S
H829 C803 0.929 . S
H830 C804 0.930 . S
H831 C805 0.931 . S
H832 C812 0.932 . S
H833 C813 0.930 . S
H834 C814 0.929 . S
H835 C816 0.930 . S
H836 C818 0.932 . S
H837 C819 0.929 . S
H838 C820 0.928 . S
H839 C822 0.932 . S
C840 C841 1.264 . S
C840 C845 1.479 . S
C840 C850 1.465 . S
C841 C840 1.264 . S
C841 C843 1.339 . S
C841 H868 0.931 . S
C842 C843 1.395 . S
C842 C844 1.320 . S
C843 C841 1.339 . S
C843 C842 1.395 . S
C843 H869 0.929 . S
C844 C842 1.320 . S
C844 C845 1.405 . S
C844 H870 0.930 . S
C845 C840 1.479 . S
C845 C844 1.405 . S
C845 H871 0.931 . S
U846 O847 2.454 . S
U846 O848 2.458 . S
U846 C849 2.984 . S
U846 C850 2.847 . S
U846 C863 2.882 . S
U846 O864 2.441 . S
U846 O865 2.420 . S
U846 O866 2.455 . S
U846 O867 2.449 . S
O847 U846 2.454 . S
O847 C849 1.353 . S
O848 U846 2.458 . S
O848 C849 1.286 . S
C849 U846 2.984 . S
C849 O847 1.353 . S
C849 O848 1.286 . S
C849 C851 1.363 . S
C850 C840 1.465 . S
C850 U846 2.847 . S
C850 O864 1.249 . S
C850 O865 1.202 . S
C851 C849 1.363 . S
C851 C853 1.408 . S
C851 C856 1.342 . S
C852 C853 1.310 . S
C852 C855 1.461 . S
C852 H872 0.932 . S
C853 C851 1.408 . S
C853 C852 1.310 . S
C853 H873 0.930 . S
C854 C855 1.474 . S
C854 C856 1.285 . S
C854 H874 0.929 . S
C855 C852 1.461 . S
C855 C854 1.474 . S
C856 C851 1.342 . S
C856 C854 1.285 . S
C856 H875 0.930 . S
C857 C860 1.424 . S
C857 C862 1.245 . S
C857 C863 1.428 . S
C858 C861 1.260 . S
C858 C862 1.477 . S
C858 H876 0.932 . S
C859 C860 1.384 . S
C859 C861 1.479 . S
C859 H877 0.929 . S
C860 C857 1.424 . S
C860 C859 1.384 . S
C860 H878 0.928 . S
C861 C858 1.260 . S
C861 C859 1.479 . S
C862 C857 1.245 . S
C862 C858 1.477 . S
C862 H879 0.932 . S
C863 U846 2.882 . S
C863 C857 1.428 . S
C863 O866 1.301 . S
C863 O867 1.282 . S
O864 U846 2.441 . S
O864 C850 1.249 . S
O865 U846 2.420 . S
O865 C850 1.202 . S
O866 U846 2.455 . S
O866 C863 1.301 . S
O867 U846 2.449 . S
O867 C863 1.282 . S
H868 C841 0.931 . S
H869 C843 0.929 . S
H870 C844 0.930 . S
H871 C845 0.931 . S
H872 C852 0.932 . S
H873 C853 0.930 . S
H874 C854 0.929 . S
H875 C856 0.930 . S
H876 C858 0.932 . S
H877 C859 0.929 . S
H878 C860 0.928 . S
H879 C862 0.932 . S
C880 C881 1.264 . S
C880 C885 1.479 . S
C880 C890 1.465 . S
C881 C880 1.264 . S
C881 C883 1.339 . S
C881 H908 0.931 . S
C882 C883 1.395 . S
C882 C884 1.320 . S
C883 C881 1.339 . S
C883 C882 1.395 . S
C883 H909 0.929 . S
C884 C882 1.320 . S
C884 C885 1.405 . S
C884 H910 0.930 . S
C885 C880 1.479 . S
C885 C884 1.405 . S
C885 H911 0.931 . S
U886 O887 2.454 . S
U886 O888 2.458 . S
U886 C889 2.984 . S
U886 C890 2.847 . S
U886 C903 2.882 . S
U886 O904 2.441 . S
U886 O905 2.420 . S
U886 O906 2.455 . S
U886 O907 2.449 . S
O887 U886 2.454 . S
O887 C889 1.353 . S
O888 U886 2.458 . S
O888 C889 1.286 . S
C889 U886 2.984 . S
C889 O887 1.353 . S
C889 O888 1.286 . S
C889 C891 1.363 . S
C890 C880 1.465 . S
C890 U886 2.847 . S
C890 O904 1.249 . S
C890 O905 1.202 . S
C891 C889 1.363 . S
C891 C893 1.408 . S
C891 C896 1.342 . S
C892 C893 1.310 . S
C892 C895 1.461 . S
C892 H912 0.932 . S
C893 C891 1.408 . S
C893 C892 1.310 . S
C893 H913 0.930 . S
C894 C895 1.474 . S
C894 C896 1.285 . S
C894 H914 0.929 . S
C895 C892 1.461 . S
C895 C894 1.474 . S
C896 C891 1.342 . S
C896 C894 1.285 . S
C896 H915 0.930 . S
C897 C900 1.424 . S
C897 C902 1.245 . S
C897 C903 1.428 . S
C898 C901 1.260 . S
C898 C902 1.477 . S
C898 H916 0.932 . S
C899 C900 1.384 . S
C899 C901 1.479 . S
C899 H917 0.929 . S
C900 C897 1.424 . S
C900 C899 1.384 . S
C900 H918 0.928 . S
C901 C898 1.260 . S
C901 C899 1.479 . S
C902 C897 1.245 . S
C902 C898 1.477 . S
C902 H919 0.932 . S
C903 U886 2.882 . S
C903 C897 1.428 . S
C903 O906 1.301 . S
C903 O907 1.282 . S
O904 U886 2.441 . S
O904 C890 1.249 . S
O905 U886 2.420 . S
O905 C890 1.202 . S
O906 U886 2.455 . S
O906 C903 1.301 . S
O907 U886 2.449 . S
O907 C903 1.282 . S
H908 C881 0.931 . S
H909 C883 0.929 . S
H910 C884 0.930 . S
H911 C885 0.931 . S
H912 C892 0.932 . S
H913 C893 0.930 . S
H914 C894 0.929 . S
H915 C896 0.930 . S
H916 C898 0.932 . S
H917 C899 0.929 . S
H918 C900 0.928 . S
H919 C902 0.932 . S
C920 C921 1.264 . S
C920 C925 1.479 1_556 S
C920 C930 1.465 . S
C921 C920 1.264 . S
C921 C923 1.339 . S
C921 H948 0.931 . S
C922 C923 1.395 . S
C922 C924 1.320 1_556 S
C923 C921 1.339 . S
C923 C922 1.395 . S
C923 H949 0.929 . S
C924 C922 1.320 1_554 S
C924 C925 1.405 . S
C924 H950 0.930 . S
C925 C920 1.479 1_554 S
C925 C924 1.405 . S
C925 H951 0.931 . S
U926 O927 2.454 . S
U926 O928 2.458 . S
U926 C929 2.984 . S
U926 C930 2.847 . S
U926 C943 2.882 . S
U926 O944 2.441 . S
U926 O945 2.420 . S
U926 O946 2.455 . S
U926 O947 2.449 . S
O927 U926 2.454 . S
O927 C929 1.353 . S
O928 U926 2.458 . S
O928 C929 1.286 . S
C929 U926 2.984 . S
C929 O927 1.353 . S
C929 O928 1.286 . S
C929 C931 1.363 1_556 S
C930 C920 1.465 . S
C930 U926 2.847 . S
C930 O944 1.249 . S
C930 O945 1.202 . S
C931 C929 1.363 1_554 S
C931 C933 1.408 . S
C931 C936 1.342 1_554 S
C932 C933 1.310 . S
C932 C935 1.461 . S
C932 H952 0.932 . S
C933 C931 1.408 . S
C933 C932 1.310 . S
C933 H953 0.930 . S
C934 C935 1.474 . S
C934 C936 1.285 1_554 S
C934 H954 0.929 . S
C935 C932 1.461 . S
C935 C934 1.474 . S
C936 C931 1.342 1_556 S
C936 C934 1.285 1_556 S
C936 H955 0.930 . S
C937 C940 1.424 . S
C937 C942 1.245 . S
C937 C943 1.428 . S
C938 C941 1.260 . S
C938 C942 1.477 . S
C938 H956 0.932 . S
C939 C940 1.384 . S
C939 C941 1.479 . S
C939 H957 0.929 1_655 S
C940 C937 1.424 . S
C940 C939 1.384 . S
C940 H958 0.928 . S
C941 C938 1.260 . S
C941 C939 1.479 . S
C942 C937 1.245 . S
C942 C938 1.477 . S
C942 H959 0.932 . S
C943 U926 2.882 . S
C943 C937 1.428 . S
C943 O946 1.301 . S
C943 O947 1.282 . S
O944 U926 2.441 . S
O944 C930 1.249 . S
O945 U926 2.420 . S
O945 C930 1.202 . S
O946 U926 2.455 . S
O946 C943 1.301 . S
O947 U926 2.449 . S
O947 C943 1.282 . S
H948 C921 0.931 . S
H949 C923 0.929 . S
H950 C924 0.930 . S
H951 C925 0.931 . S
H952 C932 0.932 . S
H953 C933 0.930 . S
H954 C934 0.929 . S
H955 C936 0.930 . S
H956 C938 0.932 . S
H957 C939 0.929 1_455 S
H958 C940 0.928 . S
H959 C942 0.932 . S
C960 C961 1.264 . S
C960 C965 1.480 . S
C960 C970 1.465 . S
C961 C960 1.264 . S
C961 C963 1.339 . S
C961 H988 0.931 . S
C962 C963 1.395 1_556 S
C962 C964 1.320 . S
C963 C961 1.339 . S
C963 C962 1.395 1_554 S
C963 H989 0.929 . S
C964 C962 1.320 . S
C964 C965 1.404 1_556 S
C964 H990 0.930 1_565 S
C965 C960 1.480 . S
C965 C964 1.404 1_554 S
C965 H991 0.931 . S
U966 O967 2.454 . S
U966 O968 2.458 . S
U966 C969 2.984 . S
U966 C970 2.847 . S
U966 C983 2.882 . S
U966 O984 2.441 . S
U966 O985 2.420 . S
U966 O986 2.455 . S
U966 O987 2.449 . S
O967 U966 2.454 . S
O967 C969 1.353 . S
O968 U966 2.458 . S
O968 C969 1.286 . S
C969 U966 2.984 . S
C969 O967 1.353 . S
C969 O968 1.286 . S
C969 C971 1.363 . S
C970 C960 1.465 . S
C970 U966 2.847 . S
C970 O984 1.249 . S
C970 O985 1.202 . S
C971 C969 1.363 . S
C971 C973 1.408 . S
C971 C976 1.342 . S
C972 C973 1.308 1_556 S
C972 C975 1.460 . S
C972 H992 0.936 1_565 S
C973 C971 1.408 . S
C973 C972 1.308 1_554 S
C973 H993 0.930 . S
C974 C975 1.471 1_554 S
C974 C976 1.290 . S
C974 H994 0.930 . S
C975 C972 1.460 . S
C975 C974 1.471 1_556 S
C976 C971 1.342 . S
C976 C974 1.290 . S
C976 H995 0.930 . S
C977 C980 1.424 . S
C977 C982 1.245 . S
C977 C983 1.428 . S
C978 C981 1.260 . S
C978 C982 1.477 . S
C978 H996 0.932 . S
C979 C980 1.384 . S
C979 C981 1.479 . S
C979 H997 0.929 . S
C980 C977 1.424 . S
C980 C979 1.384 . S
C980 H998 0.928 . S
C981 C978 1.260 . S
C981 C979 1.479 . S
C982 C977 1.245 . S
C982 C978 1.477 . S
C982 H999 0.932 . S
C983 U966 2.882 . S
C983 C977 1.428 . S
C983 O986 1.301 . S
C983 O987 1.282 . S
O984 U966 2.441 . S
O984 C970 1.249 . S
O985 U966 2.420 . S
O985 C970 1.202 . S
O986 U966 2.455 . S
O986 C983 1.301 . S
O987 U966 2.449 . S
O987 C983 1.282 . S
H988 C961 0.931 . S
H989 C963 0.929 . S
H990 C964 0.930 1_545 S
H991 C965 0.931 . S
H992 C972 0.936 1_545 S
H993 C973 0.930 . S
H994 C974 0.930 . S
H995 C976 0.930 . S
H996 C978 0.932 . S
H997 C979 0.929 . S
H998 C980 0.928 . S
H999 C982 0.932 . S
C1000 C1001 1.264 . S
C1000 C1005 1.479 . S
C1000 C1010 1.465 . S
C1001 C1000 1.264 . S
C1001 C1003 1.339 . S
C1001 H1028 0.931 . S
C1002 C1003 1.395 . S
C1002 C1004 1.320 . S
C1003 C1001 1.339 . S
C1003 C1002 1.395 . S
C1003 H1029 0.929 . S
C1004 C1002 1.320 . S
C1004 C1005 1.405 . S
C1004 H1030 0.930 . S
C1005 C1000 1.479 . S
C1005 C1004 1.405 . S
C1005 H1031 0.931 . S
U1006 O1007 2.454 . S
U1006 O1008 2.458 . S
U1006 C1009 2.984 . S
U1006 C1010 2.847 . S
U1006 C1023 2.882 . S
U1006 O1024 2.441 . S
U1006 O1025 2.420 . S
U1006 O1026 2.455 . S
U1006 O1027 2.449 . S
O1007 U1006 2.454 . S
O1007 C1009 1.353 . S
O1008 U1006 2.458 . S
O1008 C1009 1.286 . S
C1009 U1006 2.984 . S
C1009 O1007 1.353 . S
C1009 O1008 1.286 . S
C1009 C1011 1.363 . S
C1010 C1000 1.465 . S
C1010 U1006 2.847 . S
C1010 O1024 1.249 . S
C1010 O1025 1.202 . S
C1011 C1009 1.363 . S
C1011 C1013 1.408 . S
C1011 C1016 1.342 . S
C1012 C1013 1.310 . S
C1012 C1015 1.461 . S
C1012 H1032 0.932 . S
C1013 C1011 1.408 . S
C1013 C1012 1.310 . S
C1013 H1033 0.930 . S
C1014 C1015 1.474 . S
C1014 C1016 1.285 . S
C1014 H1034 0.929 . S
C1015 C1012 1.461 . S
C1015 C1014 1.474 . S
C1016 C1011 1.342 . S
C1016 C1014 1.285 . S
C1016 H1035 0.930 . S
C1017 C1020 1.424 . S
C1017 C1022 1.245 . S
C1017 C1023 1.428 . S
C1018 C1021 1.260 . S
C1018 C1022 1.477 . S
C1018 H1036 0.932 . S
C1019 C1020 1.384 . S
C1019 C1021 1.479 . S
C1019 H1037 0.929 . S
C1020 C1017 1.424 . S
C1020 C1019 1.384 . S
C1020 H1038 0.928 . S
C1021 C1018 1.260 . S
C1021 C1019 1.479 . S
C1022 C1017 1.245 . S
C1022 C1018 1.477 . S
C1022 H1039 0.932 . S
C1023 U1006 2.882 . S
C1023 C1017 1.428 . S
C1023 O1026 1.301 . S
C1023 O1027 1.282 . S
O1024 U1006 2.441 . S
O1024 C1010 1.249 . S
O1025 U1006 2.420 . S
O1025 C1010 1.202 . S
O1026 U1006 2.455 . S
O1026 C1023 1.301 . S
O1027 U1006 2.449 . S
O1027 C1023 1.282 . S
H1028 C1001 0.931 . S
H1029 C1003 0.929 . S
H1030 C1004 0.930 . S
H1031 C1005 0.931 . S
H1032 C1012 0.932 . S
H1033 C1013 0.930 . S
H1034 C1014 0.929 . S
H1035 C1016 0.930 . S
H1036 C1018 0.932 . S
H1037 C1019 0.929 . S
H1038 C1020 0.928 . S
H1039 C1022 0.932 . S
C1040 C1041 1.264 . S
C1040 C1045 1.479 . S
C1040 C1050 1.465 . S
C1041 C1040 1.264 . S
C1041 C1043 1.339 . S
C1041 H1068 0.931 . S
C1042 C1043 1.395 . S
C1042 C1044 1.320 . S
C1043 C1041 1.339 . S
C1043 C1042 1.395 . S
C1043 H1069 0.929 . S
C1044 C1042 1.320 . S
C1044 C1045 1.405 . S
C1044 H1070 0.930 . S
C1045 C1040 1.479 . S
C1045 C1044 1.405 . S
C1045 H1071 0.931 . S
U1046 O1047 2.454 . S
U1046 O1048 2.458 . S
U1046 C1049 2.984 . S
U1046 C1050 2.847 . S
U1046 C1063 2.882 . S
U1046 O1064 2.441 . S
U1046 O1065 2.420 . S
U1046 O1066 2.455 . S
U1046 O1067 2.449 . S
O1047 U1046 2.454 . S
O1047 C1049 1.353 . S
O1048 U1046 2.458 . S
O1048 C1049 1.286 . S
C1049 U1046 2.984 . S
C1049 O1047 1.353 . S
C1049 O1048 1.286 . S
C1049 C1051 1.363 . S
C1050 C1040 1.465 . S
C1050 U1046 2.847 . S
C1050 O1064 1.249 . S
C1050 O1065 1.202 . S
C1051 C1049 1.363 . S
C1051 C1053 1.408 . S
C1051 C1056 1.342 . S
C1052 C1053 1.310 . S
C1052 C1055 1.461 . S
C1052 H1072 0.932 . S
C1053 C1051 1.408 . S
C1053 C1052 1.310 . S
C1053 H1073 0.930 . S
C1054 C1055 1.474 . S
C1054 C1056 1.285 . S
C1054 H1074 0.929 . S
C1055 C1052 1.461 . S
C1055 C1054 1.474 . S
C1056 C1051 1.342 . S
C1056 C1054 1.285 . S
C1056 H1075 0.930 . S
C1057 C1060 1.424 . S
C1057 C1062 1.245 . S
C1057 C1063 1.428 . S
C1058 C1061 1.260 . S
C1058 C1062 1.477 . S
C1058 H1076 0.932 . S
C1059 C1060 1.384 . S
C1059 C1061 1.479 . S
C1059 H1077 0.929 . S
C1060 C1057 1.424 . S
C1060 C1059 1.384 . S
C1060 H1078 0.928 . S
C1061 C1058 1.260 . S
C1061 C1059 1.479 . S
C1062 C1057 1.245 . S
C1062 C1058 1.477 . S
C1062 H1079 0.932 . S
C1063 U1046 2.882 . S
C1063 C1057 1.428 . S
C1063 O1066 1.301 . S
C1063 O1067 1.282 . S
O1064 U1046 2.441 . S
O1064 C1050 1.249 . S
O1065 U1046 2.420 . S
O1065 C1050 1.202 . S
O1066 U1046 2.455 . S
O1066 C1063 1.301 . S
O1067 U1046 2.449 . S
O1067 C1063 1.282 . S
H1068 C1041 0.931 . S
H1069 C1043 0.929 . S
H1070 C1044 0.930 . S
H1071 C1045 0.931 . S
H1072 C1052 0.932 . S
H1073 C1053 0.930 . S
H1074 C1054 0.929 . S
H1075 C1056 0.930 . S
H1076 C1058 0.932 . S
H1077 C1059 0.929 . S
H1078 C1060 0.928 . S
H1079 C1062 0.932 . S
C1080 C1081 1.264 . S
C1080 C1085 1.479 . S
C1080 C1090 1.465 . S
C1081 C1080 1.264 . S
C1081 C1083 1.339 . S
C1081 H1108 0.931 . S
C1082 C1083 1.395 . S
C1082 C1084 1.320 . S
C1083 C1081 1.339 . S
C1083 C1082 1.395 . S
C1083 H1109 0.929 . S
C1084 C1082 1.320 . S
C1084 C1085 1.405 . S
C1084 H1110 0.930 . S
C1085 C1080 1.479 . S
C1085 C1084 1.405 . S
C1085 H1111 0.931 . S
U1086 O1087 2.454 . S
U1086 O1088 2.458 . S
U1086 C1089 2.984 . S
U1086 C1090 2.847 . S
U1086 C1103 2.882 . S
U1086 O1104 2.441 . S
U1086 O1105 2.420 . S
U1086 O1106 2.455 . S
U1086 O1107 2.449 . S
O1087 U1086 2.454 . S
O1087 C1089 1.353 . S
O1088 U1086 2.458 . S
O1088 C1089 1.286 . S
C1089 U1086 2.984 . S
C1089 O1087 1.353 . S
C1089 O1088 1.286 . S
C1089 C1091 1.363 . S
C1090 C1080 1.465 . S
C1090 U1086 2.847 . S
C1090 O1104 1.249 . S
C1090 O1105 1.202 . S
C1091 C1089 1.363 . S
C1091 C1093 1.408 . S
C1091 C1096 1.342 . S
C1092 C1093 1.310 . S
C1092 C1095 1.461 . S
C1092 H1112 0.932 . S
C1093 C1091 1.408 . S
C1093 C1092 1.310 . S
C1093 H1113 0.930 . S
C1094 C1095 1.474 . S
C1094 C1096 1.285 . S
C1094 H1114 0.929 . S
C1095 C1092 1.461 . S
C1095 C1094 1.474 . S
C1096 C1091 1.342 . S
C1096 C1094 1.285 . S
C1096 H1115 0.930 . S
C1097 C1100 1.424 . S
C1097 C1102 1.245 . S
C1097 C1103 1.428 . S
C1098 C1101 1.260 . S
C1098 C1102 1.477 . S
C1098 H1116 0.932 . S
C1099 C1100 1.384 . S
C1099 C1101 1.479 . S
C1099 H1117 0.929 . S
C1100 C1097 1.424 . S
C1100 C1099 1.384 . S
C1100 H1118 0.928 . S
C1101 C1098 1.260 . S
C1101 C1099 1.479 . S
C1102 C1097 1.245 . S
C1102 C1098 1.477 . S
C1102 H1119 0.932 . S
C1103 U1086 2.882 . S
C1103 C1097 1.428 . S
C1103 O1106 1.301 . S
C1103 O1107 1.282 . S
O1104 U1086 2.441 . S
O1104 C1090 1.249 . S
O1105 U1086 2.420 . S
O1105 C1090 1.202 . S
O1106 U1086 2.455 . S
O1106 C1103 1.301 . S
O1107 U1086 2.449 . S
O1107 C1103 1.282 . S
H1108 C1081 0.931 . S
H1109 C1083 0.929 . S
H1110 C1084 0.930 . S
H1111 C1085 0.931 . S
H1112 C1092 0.932 . S
H1113 C1093 0.930 . S
H1114 C1094 0.929 . S
H1115 C1096 0.930 . S
H1116 C1098 0.932 . S
H1117 C1099 0.929 . S
H1118 C1100 0.928 . S
H1119 C1102 0.932 . S
C1120 C1121 1.264 . S
C1120 C1125 1.479 . S
C1120 C1130 1.465 . S
C1121 C1120 1.264 . S
C1121 C1123 1.339 . S
C1121 H1148 0.931 . S
C1122 C1123 1.395 . S
C1122 C1124 1.320 . S
C1123 C1121 1.339 . S
C1123 C1122 1.395 . S
C1123 H1149 0.929 . S
C1124 C1122 1.320 . S
C1124 C1125 1.405 . S
C1124 H1150 0.930 . S
C1125 C1120 1.479 . S
C1125 C1124 1.405 . S
C1125 H1151 0.931 . S
U1126 O1127 2.454 . S
U1126 O1128 2.458 . S
U1126 C1129 2.984 . S
U1126 C1130 2.847 . S
U1126 C1143 2.882 . S
U1126 O1144 2.441 . S
U1126 O1145 2.420 . S
U1126 O1146 2.455 . S
U1126 O1147 2.449 . S
O1127 U1126 2.454 . S
O1127 C1129 1.353 . S
O1128 U1126 2.458 . S
O1128 C1129 1.286 . S
C1129 U1126 2.984 . S
C1129 O1127 1.353 . S
C1129 O1128 1.286 . S
C1129 C1131 1.363 . S
C1130 C1120 1.465 . S
C1130 U1126 2.847 . S
C1130 O1144 1.249 . S
C1130 O1145 1.202 . S
C1131 C1129 1.363 . S
C1131 C1133 1.408 . S
C1131 C1136 1.342 . S
C1132 C1133 1.310 . S
C1132 C1135 1.461 . S
C1132 H1152 0.932 . S
C1133 C1131 1.408 . S
C1133 C1132 1.310 . S
C1133 H1153 0.930 . S
C1134 C1135 1.474 . S
C1134 C1136 1.285 . S
C1134 H1154 0.929 . S
C1135 C1132 1.461 . S
C1135 C1134 1.474 . S
C1136 C1131 1.342 . S
C1136 C1134 1.285 . S
C1136 H1155 0.930 . S
C1137 C1140 1.424 . S
C1137 C1142 1.245 . S
C1137 C1143 1.428 . S
C1138 C1141 1.260 . S
C1138 C1142 1.477 . S
C1138 H1156 0.932 . S
C1139 C1140 1.384 . S
C1139 C1141 1.479 . S
C1139 H1157 0.929 . S
C1140 C1137 1.424 . S
C1140 C1139 1.384 . S
C1140 H1158 0.928 . S
C1141 C1138 1.260 . S
C1141 C1139 1.479 . S
C1142 C1137 1.245 . S
C1142 C1138 1.477 . S
C1142 H1159 0.932 . S
C1143 U1126 2.882 . S
C1143 C1137 1.428 . S
C1143 O1146 1.301 . S
C1143 O1147 1.282 . S
O1144 U1126 2.441 . S
O1144 C1130 1.249 . S
O1145 U1126 2.420 . S
O1145 C1130 1.202 . S
O1146 U1126 2.455 . S
O1146 C1143 1.301 . S
O1147 U1126 2.449 . S
O1147 C1143 1.282 . S
H1148 C1121 0.931 . S
H1149 C1123 0.929 . S
H1150 C1124 0.930 . S
H1151 C1125 0.931 . S
H1152 C1132 0.932 . S
H1153 C1133 0.930 . S
H1154 C1134 0.929 . S
H1155 C1136 0.930 . S
H1156 C1138 0.932 . S
H1157 C1139 0.929 . S
H1158 C1140 0.928 . S
H1159 C1142 0.932 . S
C1160 C1161 1.264 . S
C1160 C1165 1.479 . S
C1160 C1170 1.465 . S
C1161 C1160 1.264 . S
C1161 C1163 1.339 . S
C1161 H1188 0.931 . S
C1162 C1163 1.395 . S
C1162 C1164 1.320 . S
C1163 C1161 1.339 . S
C1163 C1162 1.395 . S
C1163 H1189 0.929 . S
C1164 C1162 1.320 . S
C1164 C1165 1.405 . S
C1164 H1190 0.930 . S
C1165 C1160 1.479 . S
C1165 C1164 1.405 . S
C1165 H1191 0.931 . S
U1166 O1167 2.454 . S
U1166 O1168 2.458 . S
U1166 C1169 2.984 . S
U1166 C1170 2.847 . S
U1166 C1183 2.882 . S
U1166 O1184 2.441 . S
U1166 O1185 2.420 . S
U1166 O1186 2.455 . S
U1166 O1187 2.449 . S
O1167 U1166 2.454 . S
O1167 C1169 1.353 . S
O1168 U1166 2.458 . S
O1168 C1169 1.286 . S
C1169 U1166 2.984 . S
C1169 O1167 1.353 . S
C1169 O1168 1.286 . S
C1169 C1171 1.363 . S
C1170 C1160 1.465 . S
C1170 U1166 2.847 . S
C1170 O1184 1.249 . S
C1170 O1185 1.202 . S
C1171 C1169 1.363 . S
C1171 C1173 1.408 . S
C1171 C1176 1.342 . S
C1172 C1173 1.310 . S
C1172 C1175 1.461 . S
C1172 H1192 0.932 . S
C1173 C1171 1.408 . S
C1173 C1172 1.310 . S
C1173 H1193 0.930 . S
C1174 C1175 1.474 . S
C1174 C1176 1.285 . S
C1174 H1194 0.929 . S
C1175 C1172 1.461 . S
C1175 C1174 1.474 . S
C1176 C1171 1.342 . S
C1176 C1174 1.285 . S
C1176 H1195 0.930 . S
C1177 C1180 1.424 . S
C1177 C1182 1.245 . S
C1177 C1183 1.428 . S
C1178 C1181 1.260 . S
C1178 C1182 1.477 . S
C1178 H1196 0.932 . S
C1179 C1180 1.384 . S
C1179 C1181 1.479 . S
C1179 H1197 0.929 . S
C1180 C1177 1.424 . S
C1180 C1179 1.384 . S
C1180 H1198 0.928 . S
C1181 C1178 1.260 . S
C1181 C1179 1.479 . S
C1182 C1177 1.245 . S
C1182 C1178 1.477 . S
C1182 H1199 0.932 . S
C1183 U1166 2.882 . S
C1183 C1177 1.428 . S
C1183 O1186 1.301 . S
C1183 O1187 1.282 . S
O1184 U1166 2.441 . S
O1184 C1170 1.249 . S
O1185 U1166 2.420 . S
O1185 C1170 1.202 . S
O1186 U1166 2.455 . S
O1186 C1183 1.301 . S
O1187 U1166 2.449 . S
O1187 C1183 1.282 . S
H1188 C1161 0.931 . S
H1189 C1163 0.929 . S
H1190 C1164 0.930 . S
H1191 C1165 0.931 . S
H1192 C1172 0.932 . S
H1193 C1173 0.930 . S
H1194 C1174 0.929 . S
H1195 C1176 0.930 . S
H1196 C1178 0.932 . S
H1197 C1179 0.929 . S
H1198 C1180 0.928 . S
H1199 C1182 0.932 . S
C1200 C1201 1.264 . S
C1200 C1205 1.479 . S
C1200 C1210 1.465 . S
C1201 C1200 1.264 . S
C1201 C1203 1.339 . S
C1201 H1228 0.931 . S
C1202 C1203 1.395 . S
C1202 C1204 1.320 . S
C1203 C1201 1.339 . S
C1203 C1202 1.395 . S
C1203 H1229 0.929 . S
C1204 C1202 1.320 . S
C1204 C1205 1.405 . S
C1204 H1230 0.930 1_565 S
C1205 C1200 1.479 . S
C1205 C1204 1.405 . S
C1205 H1231 0.931 . S
U1206 O1207 2.454 . S
U1206 O1208 2.458 . S
U1206 C1209 2.984 . S
U1206 C1210 2.847 . S
U1206 C1223 2.882 . S
U1206 O1224 2.441 . S
U1206 O1225 2.420 . S
U1206 O1226 2.455 . S
U1206 O1227 2.449 . S
O1207 U1206 2.454 . S
O1207 C1209 1.353 . S
O1208 U1206 2.458 . S
O1208 C1209 1.286 . S
C1209 U1206 2.984 . S
C1209 O1207 1.353 . S
C1209 O1208 1.286 . S
C1209 C1211 1.363 . S
C1210 C1200 1.465 . S
C1210 U1206 2.847 . S
C1210 O1224 1.249 . S
C1210 O1225 1.202 . S
C1211 C1209 1.363 . S
C1211 C1213 1.408 . S
C1211 C1216 1.342 . S
C1212 C1213 1.310 1_545 S
C1212 C1215 1.461 1_545 S
C1212 H1232 0.932 . S
C1213 C1211 1.408 . S
C1213 C1212 1.310 1_565 S
C1213 H1233 0.937 . S
C1214 C1215 1.474 . S
C1214 C1216 1.285 . S
C1214 H1234 0.929 . S
C1215 C1212 1.461 1_565 S
C1215 C1214 1.474 . S
C1216 C1211 1.342 . S
C1216 C1214 1.285 . S
C1216 H1235 0.930 . S
C1217 C1220 1.424 . S
C1217 C1222 1.245 . S
C1217 C1223 1.428 . S
C1218 C1221 1.260 . S
C1218 C1222 1.477 . S
C1218 H1236 0.932 . S
C1219 C1220 1.384 . S
C1219 C1221 1.479 . S
C1219 H1237 0.929 . S
C1220 C1217 1.424 . S
C1220 C1219 1.384 . S
C1220 H1238 0.928 . S
C1221 C1218 1.260 . S
C1221 C1219 1.479 . S
C1222 C1217 1.245 . S
C1222 C1218 1.477 . S
C1222 H1239 0.932 . S
C1223 U1206 2.882 . S
C1223 C1217 1.428 . S
C1223 O1226 1.301 . S
C1223 O1227 1.282 . S
O1224 U1206 2.441 . S
O1224 C1210 1.249 . S
O1225 U1206 2.420 . S
O1225 C1210 1.202 . S
O1226 U1206 2.455 . S
O1226 C1223 1.301 . S
O1227 U1206 2.449 . S
O1227 C1223 1.282 . S
H1228 C1201 0.931 . S
H1229 C1203 0.929 . S
H1230 C1204 0.930 1_545 S
H1231 C1205 0.931 . S
H1232 C1212 0.932 . S
H1233 C1213 0.937 . S
H1234 C1214 0.929 . S
H1235 C1216 0.930 . S
H1236 C1218 0.932 . S
H1237 C1219 0.929 . S
H1238 C1220 0.928 . S
H1239 C1222 0.932 . S
C1240 C1241 1.264 . S
C1240 C1245 1.479 . S
C1240 C1250 1.465 . S
C1241 C1240 1.264 . S
C1241 C1243 1.339 1_556 S
C1241 H1268 0.933 . S
C1242 C1243 1.388 1_556 S
C1242 C1244 1.343 . S
C1243 C1241 1.339 1_554 S
C1243 C1242 1.388 1_554 S
C1243 H1269 0.929 . S
C1244 C1242 1.343 . S
C1244 C1245 1.405 . S
C1244 H1270 0.930 . S
C1245 C1240 1.479 . S
C1245 C1244 1.405 . S
C1245 H1271 0.931 . S
U1246 O1247 2.454 . S
U1246 O1248 2.458 . S
U1246 C1249 2.984 . S
U1246 C1250 2.847 . S
U1246 C1263 2.882 . S
U1246 O1264 2.441 . S
U1246 O1265 2.420 . S
U1246 O1266 2.455 . S
U1246 O1267 2.449 . S
O1247 U1246 2.454 . S
O1247 C1249 1.353 . S
O1248 U1246 2.458 . S
O1248 C1249 1.286 . S
C1249 U1246 2.984 . S
C1249 O1247 1.353 . S
C1249 O1248 1.286 . S
C1249 C1251 1.363 . S
C1250 C1240 1.465 . S
C1250 U1246 2.847 . S
C1250 O1264 1.249 . S
C1250 O1265 1.202 . S
C1251 C1249 1.363 . S
C1251 C1253 1.408 . S
C1251 C1256 1.342 . S
C1252 C1253 1.310 . S
C1252 C1255 1.461 . S
C1252 H1272 0.932 . S
C1253 C1251 1.408 . S
C1253 C1252 1.310 . S
C1253 H1273 0.930 . S
C1254 C1255 1.474 . S
C1254 C1256 1.285 . S
C1254 H1274 0.929 . S
C1255 C1252 1.461 . S
C1255 C1254 1.474 . S
C1256 C1251 1.342 . S
C1256 C1254 1.285 . S
C1256 H1275 0.930 . S
C1257 C1260 1.424 1_556 S
C1257 C1262 1.245 . S
C1257 C1263 1.428 . S
C1258 C1261 1.260 1_556 S
C1258 C1262 1.477 . S
C1258 H1276 0.932 . S
C1259 C1260 1.384 . S
C1259 C1261 1.479 . S
C1259 H1277 0.929 . S
C1260 C1257 1.424 1_554 S
C1260 C1259 1.384 . S
C1260 H1278 0.928 . S
C1261 C1258 1.260 1_554 S
C1261 C1259 1.479 . S
C1262 C1257 1.245 . S
C1262 C1258 1.477 . S
C1262 H1279 0.932 . S
C1263 U1246 2.882 . S
C1263 C1257 1.428 . S
C1263 O1266 1.301 . S
C1263 O1267 1.282 . S
O1264 U1246 2.441 . S
O1264 C1250 1.249 . S
O1265 U1246 2.420 . S
O1265 C1250 1.202 . S
O1266 U1246 2.455 . S
O1266 C1263 1.301 . S
O1267 U1246 2.449 . S
O1267 C1263 1.282 . S
H1268 C1241 0.933 . S
H1269 C1243 0.929 . S
H1270 C1244 0.930 . S
H1271 C1245 0.931 . S
H1272 C1252 0.932 . S
H1273 C1253 0.930 . S
H1274 C1254 0.929 . S
H1275 C1256 0.930 . S
H1276 C1258 0.932 . S
H1277 C1259 0.929 . S
H1278 C1260 0.928 . S
H1279 C1262 0.932 . S
C1280 C1281 1.264 . S
C1280 C1285 1.480 . S
C1280 C1290 1.465 . S
C1281 C1280 1.264 . S
C1281 C1283 1.339 . S
C1281 H1308 0.931 . S
C1282 C1283 1.395 1_655 S
C1282 C1284 1.320 . S
C1283 C1281 1.339 . S
C1283 C1282 1.395 1_455 S
C1283 H1309 0.929 . S
C1284 C1282 1.320 . S
C1284 C1285 1.404 1_655 S
C1284 H1310 0.930 1_556 S
C1285 C1280 1.480 . S
C1285 C1284 1.404 1_455 S
C1285 H1311 0.931 . S
U1286 O1287 2.454 . S
U1286 O1288 2.458 . S
U1286 C1289 2.984 . S
U1286 C1290 2.847 . S
U1286 C1303 2.882 . S
U1286 O1304 2.441 . S
U1286 O1305 2.420 . S
U1286 O1306 2.455 . S
U1286 O1307 2.449 . S
O1287 U1286 2.454 . S
O1287 C1289 1.353 . S
O1288 U1286 2.458 . S
O1288 C1289 1.286 . S
C1289 U1286 2.984 . S
C1289 O1287 1.353 . S
C1289 O1288 1.286 . S
C1289 C1291 1.363 . S
C1290 C1280 1.465 . S
C1290 U1286 2.847 . S
C1290 O1304 1.249 . S
C1290 O1305 1.202 . S
C1291 C1289 1.363 . S
C1291 C1293 1.408 . S
C1291 C1296 1.342 . S
C1292 C1293 1.308 1_655 S
C1292 C1295 1.460 . S
C1292 H1312 0.936 1_556 S
C1293 C1291 1.408 . S
C1293 C1292 1.308 1_455 S
C1293 H1313 0.930 . S
C1294 C1295 1.471 1_455 S
C1294 C1296 1.290 . S
C1294 H1314 0.930 . S
C1295 C1292 1.460 . S
C1295 C1294 1.471 1_655 S
C1296 C1291 1.342 . S
C1296 C1294 1.290 . S
C1296 H1315 0.930 . S
C1297 C1300 1.424 . S
C1297 C1302 1.245 . S
C1297 C1303 1.428 . S
C1298 C1301 1.260 . S
C1298 C1302 1.477 . S
C1298 H1316 0.932 . S
C1299 C1300 1.384 . S
C1299 C1301 1.479 . S
C1299 H1317 0.929 . S
C1300 C1297 1.424 . S
C1300 C1299 1.384 . S
C1300 H1318 0.928 . S
C1301 C1298 1.260 . S
C1301 C1299 1.479 . S
C1302 C1297 1.245 . S
C1302 C1298 1.477 . S
C1302 H1319 0.932 . S
C1303 U1286 2.882 . S
C1303 C1297 1.428 . S
C1303 O1306 1.301 . S
C1303 O1307 1.282 . S
O1304 U1286 2.441 . S
O1304 C1290 1.249 . S
O1305 U1286 2.420 . S
O1305 C1290 1.202 . S
O1306 U1286 2.455 . S
O1306 C1303 1.301 . S
O1307 U1286 2.449 . S
O1307 C1303 1.282 . S
H1308 C1281 0.931 . S
H1309 C1283 0.929 . S
H1310 C1284 0.930 1_554 S
H1311 C1285 0.931 . S
H1312 C1292 0.936 1_554 S
H1313 C1293 0.930 . S
H1314 C1294 0.930 . S
H1315 C1296 0.930 . S
H1316 C1298 0.932 . S
H1317 C1299 0.929 . S
H1318 C1300 0.928 . S
H1319 C1302 0.932 . S
C1320 C1321 1.264 . S
C1320 C1325 1.479 . S
C1320 C1330 1.465 . S
C1321 C1320 1.264 . S
C1321 C1323 1.339 . S
C1321 H1348 0.931 . S
C1322 C1323 1.395 . S
C1322 C1324 1.320 . S
C1323 C1321 1.339 . S
C1323 C1322 1.395 . S
C1323 H1349 0.929 . S
C1324 C1322 1.320 . S
C1324 C1325 1.405 . S
C1324 H1350 0.930 . S
C1325 C1320 1.479 . S
C1325 C1324 1.405 . S
C1325 H1351 0.931 . S
U1326 O1327 2.454 . S
U1326 O1328 2.458 . S
U1326 C1329 2.984 . S
U1326 C1330 2.847 . S
U1326 C1343 2.882 . S
U1326 O1344 2.441 . S
U1326 O1345 2.420 . S
U1326 O1346 2.455 . S
U1326 O1347 2.449 . S
O1327 U1326 2.454 . S
O1327 C1329 1.353 . S
O1328 U1326 2.458 . S
O1328 C1329 1.286 . S
C1329 U1326 2.984 . S
C1329 O1327 1.353 . S
C1329 O1328 1.286 . S
C1329 C1331 1.363 . S
C1330 C1320 1.465 . S
C1330 U1326 2.847 . S
C1330 O1344 1.249 . S
C1330 O1345 1.202 . S
C1331 C1329 1.363 . S
C1331 C1333 1.408 . S
C1331 C1336 1.342 . S
C1332 C1333 1.310 . S
C1332 C1335 1.461 . S
C1332 H1352 0.932 . S
C1333 C1331 1.408 . S
C1333 C1332 1.310 . S
C1333 H1353 0.930 . S
C1334 C1335 1.474 . S
C1334 C1336 1.285 . S
C1334 H1354 0.929 . S
C1335 C1332 1.461 . S
C1335 C1334 1.474 . S
C1336 C1331 1.342 . S
C1336 C1334 1.285 . S
C1336 H1355 0.930 . S
C1337 C1340 1.424 . S
C1337 C1342 1.245 . S
C1337 C1343 1.428 . S
C1338 C1341 1.260 . S
C1338 C1342 1.477 . S
C1338 H1356 0.932 . S
C1339 C1340 1.384 . S
C1339 C1341 1.479 . S
C1339 H1357 0.929 . S
C1340 C1337 1.424 . S
C1340 C1339 1.384 . S
C1340 H1358 0.928 . S
C1341 C1338 1.260 . S
C1341 C1339 1.479 . S
C1342 C1337 1.245 . S
C1342 C1338 1.477 . S
C1342 H1359 0.932 . S
C1343 U1326 2.882 . S
C1343 C1337 1.428 . S
C1343 O1346 1.301 . S
C1343 O1347 1.282 . S
O1344 U1326 2.441 . S
O1344 C1330 1.249 . S
O1345 U1326 2.420 . S
O1345 C1330 1.202 . S
O1346 U1326 2.455 . S
O1346 C1343 1.301 . S
O1347 U1326 2.449 . S
O1347 C1343 1.282 . S
H1348 C1321 0.931 . S
H1349 C1323 0.929 . S
H1350 C1324 0.930 . S
H1351 C1325 0.931 . S
H1352 C1332 0.932 . S
H1353 C1333 0.930 . S
H1354 C1334 0.929 . S
H1355 C1336 0.930 . S
H1356 C1338 0.932 . S
H1357 C1339 0.929 . S
H1358 C1340 0.928 . S
H1359 C1342 0.932 . S
C1360 C1361 1.264 . S
C1360 C1365 1.479 . S
C1360 C1370 1.465 . S
C1361 C1360 1.264 . S
C1361 C1363 1.339 . S
C1361 H1388 0.931 . S
C1362 C1363 1.395 . S
C1362 C1364 1.320 . S
C1363 C1361 1.339 . S
C1363 C1362 1.395 . S
C1363 H1389 0.929 . S
C1364 C1362 1.320 . S
C1364 C1365 1.405 . S
C1364 H1390 0.930 . S
C1365 C1360 1.479 . S
C1365 C1364 1.405 . S
C1365 H1391 0.931 . S
U1366 O1367 2.454 . S
U1366 O1368 2.458 . S
U1366 C1369 2.984 . S
U1366 C1370 2.847 . S
U1366 C1383 2.882 . S
U1366 O1384 2.441 . S
U1366 O1385 2.420 . S
U1366 O1386 2.455 . S
U1366 O1387 2.449 . S
O1367 U1366 2.454 . S
O1367 C1369 1.353 . S
O1368 U1366 2.458 . S
O1368 C1369 1.286 . S
C1369 U1366 2.984 . S
C1369 O1367 1.353 . S
C1369 O1368 1.286 . S
C1369 C1371 1.363 . S
C1370 C1360 1.465 . S
C1370 U1366 2.847 . S
C1370 O1384 1.249 . S
C1370 O1385 1.202 . S
C1371 C1369 1.363 . S
C1371 C1373 1.408 . S
C1371 C1376 1.342 . S
C1372 C1373 1.310 . S
C1372 C1375 1.461 . S
C1372 H1392 0.932 . S
C1373 C1371 1.408 . S
C1373 C1372 1.310 . S
C1373 H1393 0.930 . S
C1374 C1375 1.474 . S
C1374 C1376 1.285 . S
C1374 H1394 0.929 . S
C1375 C1372 1.461 . S
C1375 C1374 1.474 . S
C1376 C1371 1.342 . S
C1376 C1374 1.285 . S
C1376 H1395 0.930 . S
C1377 C1380 1.424 . S
C1377 C1382 1.245 . S
C1377 C1383 1.428 . S
C1378 C1381 1.260 . S
C1378 C1382 1.477 . S
C1378 H1396 0.932 . S
C1379 C1380 1.384 . S
C1379 C1381 1.479 . S
C1379 H1397 0.929 . S
C1380 C1377 1.424 . S
C1380 C1379 1.384 . S
C1380 H1398 0.928 . S
C1381 C1378 1.260 . S
C1381 C1379 1.479 . S
C1382 C1377 1.245 . S
C1382 C1378 1.477 . S
C1382 H1399 0.932 . S
C1383 U1366 2.882 . S
C1383 C1377 1.428 . S
C1383 O1386 1.301 . S
C1383 O1387 1.282 . S
O1384 U1366 2.441 . S
O1384 C1370 1.249 . S
O1385 U1366 2.420 . S
O1385 C1370 1.202 . S
O1386 U1366 2.455 . S
O1386 C1383 1.301 . S
O1387 U1366 2.449 . S
O1387 C1383 1.282 . S
H1388 C1361 0.931 . S
H1389 C1363 0.929 . S
H1390 C1364 0.930 . S
H1391 C1365 0.931 . S
H1392 C1372 0.932 . S
H1393 C1373 0.930 . S
H1394 C1374 0.929 . S
H1395 C1376 0.930 . S
H1396 C1378 0.932 . S
H1397 C1379 0.929 . S
H1398 C1380 0.928 . S
H1399 C1382 0.932 . S
C1400 C1401 1.264 . S
C1400 C1405 1.479 1_655 S
C1400 C1410 1.465 . S
C1401 C1400 1.264 . S
C1401 C1403 1.339 . S
C1401 H1428 0.931 . S
C1402 C1403 1.395 . S
C1402 C1404 1.320 1_655 S
C1403 C1401 1.339 . S
C1403 C1402 1.395 . S
C1403 H1429 0.929 . S
C1404 C1402 1.320 1_455 S
C1404 C1405 1.405 . S
C1404 H1430 0.930 . S
C1405 C1400 1.479 1_455 S
C1405 C1404 1.405 . S
C1405 H1431 0.931 . S
U1406 O1407 2.454 . S
U1406 O1408 2.458 . S
U1406 C1409 2.984 . S
U1406 C1410 2.847 . S
U1406 C1423 2.882 . S
U1406 O1424 2.441 . S
U1406 O1425 2.420 . S
U1406 O1426 2.455 . S
U1406 O1427 2.449 . S
O1407 U1406 2.454 . S
O1407 C1409 1.353 . S
O1408 U1406 2.458 . S
O1408 C1409 1.286 . S
C1409 U1406 2.984 . S
C1409 O1407 1.353 . S
C1409 O1408 1.286 . S
C1409 C1411 1.363 1_655 S
C1410 C1400 1.465 . S
C1410 U1406 2.847 . S
C1410 O1424 1.249 . S
C1410 O1425 1.202 . S
C1411 C1409 1.363 1_455 S
C1411 C1413 1.408 . S
C1411 C1416 1.342 1_455 S
C1412 C1413 1.310 . S
C1412 C1415 1.461 . S
C1412 H1432 0.932 . S
C1413 C1411 1.408 . S
C1413 C1412 1.310 . S
C1413 H1433 0.930 . S
C1414 C1415 1.474 . S
C1414 C1416 1.285 1_455 S
C1414 H1434 0.929 . S
C1415 C1412 1.461 . S
C1415 C1414 1.474 . S
C1416 C1411 1.342 1_655 S
C1416 C1414 1.285 1_655 S
C1416 H1435 0.930 . S
C1417 C1420 1.424 . S
C1417 C1422 1.245 . S
C1417 C1423 1.428 . S
C1418 C1421 1.260 . S
C1418 C1422 1.477 . S
C1418 H1436 0.932 . S
C1419 C1420 1.384 . S
C1419 C1421 1.479 . S
C1419 H1437 0.929 1_565 S
C1420 C1417 1.424 . S
C1420 C1419 1.384 . S
C1420 H1438 0.928 . S
C1421 C1418 1.260 . S
C1421 C1419 1.479 . S
C1422 C1417 1.245 . S
C1422 C1418 1.477 . S
C1422 H1439 0.932 . S
C1423 U1406 2.882 . S
C1423 C1417 1.428 . S
C1423 O1426 1.301 . S
C1423 O1427 1.282 . S
O1424 U1406 2.441 . S
O1424 C1410 1.249 . S
O1425 U1406 2.420 . S
O1425 C1410 1.202 . S
O1426 U1406 2.455 . S
O1426 C1423 1.301 . S
O1427 U1406 2.449 . S
O1427 C1423 1.282 . S
H1428 C1401 0.931 . S
H1429 C1403 0.929 . S
H1430 C1404 0.930 . S
H1431 C1405 0.931 . S
H1432 C1412 0.932 . S
H1433 C1413 0.930 . S
H1434 C1414 0.929 . S
H1435 C1416 0.930 . S
H1436 C1418 0.932 . S
H1437 C1419 0.929 1_545 S
H1438 C1420 0.928 . S
H1439 C1422 0.932 . S
C1440 C1441 1.264 . S
C1440 C1445 1.479 . S
C1440 C1450 1.465 . S
C1441 C1440 1.264 . S
C1441 C1443 1.339 . S
C1441 H1468 0.931 . S
C1442 C1443 1.395 . S
C1442 C1444 1.320 . S
C1443 C1441 1.339 . S
C1443 C1442 1.395 . S
C1443 H1469 0.929 . S
C1444 C1442 1.320 . S
C1444 C1445 1.405 . S
C1444 H1470 0.930 . S
C1445 C1440 1.479 . S
C1445 C1444 1.405 . S
C1445 H1471 0.931 . S
U1446 O1447 2.454 . S
U1446 O1448 2.458 . S
U1446 C1449 2.984 . S
U1446 C1450 2.847 . S
U1446 C1463 2.882 . S
U1446 O1464 2.441 . S
U1446 O1465 2.420 . S
U1446 O1466 2.455 . S
U1446 O1467 2.449 . S
O1447 U1446 2.454 . S
O1447 C1449 1.353 . S
O1448 U1446 2.458 . S
O1448 C1449 1.286 . S
C1449 U1446 2.984 . S
C1449 O1447 1.353 . S
C1449 O1448 1.286 . S
C1449 C1451 1.363 . S
C1450 C1440 1.465 . S
C1450 U1446 2.847 . S
C1450 O1464 1.249 . S
C1450 O1465 1.202 . S
C1451 C1449 1.363 . S
C1451 C1453 1.408 . S
C1451 C1456 1.342 . S
C1452 C1453 1.310 . S
C1452 C1455 1.461 . S
C1452 H1472 0.932 . S
C1453 C1451 1.408 . S
C1453 C1452 1.310 . S
C1453 H1473 0.930 . S
C1454 C1455 1.474 . S
C1454 C1456 1.285 . S
C1454 H1474 0.939 . S
C1455 C1452 1.461 . S
C1455 C1454 1.474 . S
C1456 C1451 1.342 . S
C1456 C1454 1.285 . S
C1456 H1475 0.930 . S
C1457 C1460 1.420 1_455 S
C1457 C1462 1.258 . S
C1457 C1463 1.428 . S
C1458 C1461 1.260 . S
C1458 C1462 1.466 1_655 S
C1458 H1476 0.932 . S
C1459 C1460 1.388 . S
C1459 C1461 1.479 . S
C1459 H1477 0.929 . S
C1460 C1457 1.420 1_655 S
C1460 C1459 1.388 . S
C1460 H1478 0.928 . S
C1461 C1458 1.260 . S
C1461 C1459 1.479 . S
C1462 C1457 1.258 . S
C1462 C1458 1.466 1_455 S
C1462 H1479 0.934 . S
C1463 U1446 2.882 . S
C1463 C1457 1.428 . S
C1463 O1466 1.301 . S
C1463 O1467 1.282 . S
O1464 U1446 2.441 . S
O1464 C1450 1.249 . S
O1465 U1446 2.420 . S
O1465 C1450 1.202 . S
O1466 U1446 2.455 . S
O1466 C1463 1.301 . S
O1467 U1446 2.449 . S
O1467 C1463 1.282 . S
H1468 C1441 0.931 . S
H1469 C1443 0.929 . S
H1470 C1444 0.930 . S
H1471 C1445 0.931 . S
H1472 C1452 0.932 . S
H1473 C1453 0.930 . S
H1474 C1454 0.939 . S
H1475 C1456 0.930 . S
H1476 C1458 0.932 . S
H1477 C1459 0.929 . S
H1478 C1460 0.928 . S
H1479 C1462 0.934 . S
C1480 C1481 1.264 . S
C1480 C1485 1.479 . S
C1480 C1490 1.465 . S
C1481 C1480 1.264 . S
C1481 C1483 1.339 . S
C1481 H1508 0.931 . S
C1482 C1483 1.395 . S
C1482 C1484 1.320 1_655 S
C1483 C1481 1.339 . S
C1483 C1482 1.395 . S
C1483 H1509 0.929 . S
C1484 C1482 1.320 1_455 S
C1484 C1485 1.404 1_455 S
C1484 H1510 0.931 . S
C1485 C1480 1.479 . S
C1485 C1484 1.404 1_655 S
C1485 H1511 0.931 . S
U1486 O1487 2.454 1_554 S
U1486 O1488 2.458 1_554 S
U1486 C1489 2.984 1_554 S
U1486 C1490 2.847 . S
U1486 C1503 2.882 1_554 S
U1486 O1504 2.441 . S
U1486 O1505 2.420 . S
U1486 O1506 2.455 1_554 S
U1486 O1507 2.449 . S
O1487 U1486 2.454 1_556 S
O1487 C1489 1.353 . S
O1488 U1486 2.458 1_556 S
O1488 C1489 1.286 . S
C1489 U1486 2.984 1_556 S
C1489 O1487 1.353 . S
C1489 O1488 1.286 . S
C1489 C1491 1.363 . S
C1490 C1480 1.465 . S
C1490 U1486 2.847 . S
C1490 O1504 1.249 . S
C1490 O1505 1.202 . S
C1491 C1489 1.363 . S
C1491 C1493 1.408 1_655 S
C1491 C1496 1.342 . S
C1492 C1493 1.310 . S
C1492 C1495 1.461 . S
C1492 H1512 0.932 . S
C1493 C1491 1.408 1_455 S
C1493 C1492 1.310 . S
C1493 H1513 0.930 . S
C1494 C1495 1.474 1_655 S
C1494 C1496 1.285 . S
C1494 H1514 0.929 . S
C1495 C1492 1.461 . S
C1495 C1494 1.474 1_455 S
C1496 C1491 1.342 . S
C1496 C1494 1.285 . S
C1496 H1515 0.930 . S
C1497 C1500 1.424 . S
C1497 C1502 1.245 . S
C1497 C1503 1.428 . S
C1498 C1501 1.260 . S
C1498 C1502 1.477 . S
C1498 H1516 0.932 . S
C1499 C1500 1.384 . S
C1499 C1501 1.479 . S
C1499 H1517 0.929 . S
C1500 C1497 1.424 . S
C1500 C1499 1.384 . S
C1500 H1518 0.883 1_556 S
C1501 C1498 1.260 . S
C1501 C1499 1.479 . S
C1502 C1497 1.245 . S
C1502 C1498 1.477 . S
C1502 H1519 0.932 . S
C1503 U1486 2.882 1_556 S
C1503 C1497 1.428 . S
C1503 O1506 1.301 . S
C1503 O1507 1.282 1_556 S
O1504 U1486 2.441 . S
O1504 C1490 1.249 . S
O1505 U1486 2.420 . S
O1505 C1490 1.202 . S
O1506 U1486 2.455 1_556 S
O1506 C1503 1.301 . S
O1507 U1486 2.449 . S
O1507 C1503 1.282 1_554 S
H1508 C1481 0.931 . S
H1509 C1483 0.929 . S
H1510 C1484 0.931 . S
H1511 C1485 0.931 . S
H1512 C1492 0.932 . S
H1513 C1493 0.930 . S
H1514 C1494 0.929 . S
H1515 C1496 0.930 . S
H1516 C1498 0.932 . S
H1517 C1499 0.929 . S
H1518 C1500 0.883 1_554 S
H1519 C1502 0.932 . S
C1520 C1521 1.264 . S
C1520 C1525 1.479 . S
C1520 C1530 1.465 . S
C1521 C1520 1.264 . S
C1521 C1523 1.339 . S
C1521 H1548 0.931 . S
C1522 C1523 1.395 . S
C1522 C1524 1.320 . S
C1523 C1521 1.339 . S
C1523 C1522 1.395 . S
C1523 H1549 0.929 . S
C1524 C1522 1.320 . S
C1524 C1525 1.405 . S
C1524 H1550 0.930 . S
C1525 C1520 1.479 . S
C1525 C1524 1.405 . S
C1525 H1551 0.931 . S
U1526 O1527 2.454 . S
U1526 O1528 2.458 . S
U1526 C1529 2.984 . S
U1526 C1530 2.847 . S
U1526 C1543 2.882 . S
U1526 O1544 2.441 . S
U1526 O1545 2.420 . S
U1526 O1546 2.455 . S
U1526 O1547 2.449 . S
O1527 U1526 2.454 . S
O1527 C1529 1.353 . S
O1528 U1526 2.458 . S
O1528 C1529 1.286 . S
C1529 U1526 2.984 . S
C1529 O1527 1.353 . S
C1529 O1528 1.286 . S
C1529 C1531 1.363 . S
C1530 C1520 1.465 . S
C1530 U1526 2.847 . S
C1530 O1544 1.249 . S
C1530 O1545 1.202 . S
C1531 C1529 1.363 . S
C1531 C1533 1.408 . S
C1531 C1536 1.342 . S
C1532 C1533 1.310 . S
C1532 C1535 1.461 . S
C1532 H1552 0.932 . S
C1533 C1531 1.408 . S
C1533 C1532 1.310 . S
C1533 H1553 0.930 . S
C1534 C1535 1.474 . S
C1534 C1536 1.285 . S
C1534 H1554 0.929 . S
C1535 C1532 1.461 . S
C1535 C1534 1.474 . S
C1536 C1531 1.342 . S
C1536 C1534 1.285 . S
C1536 H1555 0.930 . S
C1537 C1540 1.424 . S
C1537 C1542 1.245 . S
C1537 C1543 1.428 . S
C1538 C1541 1.260 . S
C1538 C1542 1.477 . S
C1538 H1556 0.932 . S
C1539 C1540 1.384 . S
C1539 C1541 1.479 . S
C1539 H1557 0.929 . S
C1540 C1537 1.424 . S
C1540 C1539 1.384 . S
C1540 H1558 0.928 . S
C1541 C1538 1.260 . S
C1541 C1539 1.479 . S
C1542 C1537 1.245 . S
C1542 C1538 1.477 . S
C1542 H1559 0.932 . S
C1543 U1526 2.882 . S
C1543 C1537 1.428 . S
C1543 O1546 1.301 . S
C1543 O1547 1.282 . S
O1544 U1526 2.441 . S
O1544 C1530 1.249 . S
O1545 U1526 2.420 . S
O1545 C1530 1.202 . S
O1546 U1526 2.455 . S
O1546 C1543 1.301 . S
O1547 U1526 2.449 . S
O1547 C1543 1.282 . S
H1548 C1521 0.931 . S
H1549 C1523 0.929 . S
H1550 C1524 0.930 . S
H1551 C1525 0.931 . S
H1552 C1532 0.932 . S
H1553 C1533 0.930 . S
H1554 C1534 0.929 . S
H1555 C1536 0.930 . S
H1556 C1538 0.932 . S
H1557 C1539 0.929 . S
H1558 C1540 0.928 . S
H1559 C1542 0.932 . S
C1560 C1561 1.264 . S
C1560 C1565 1.479 . S
C1560 C1570 1.465 . S
C1561 C1560 1.264 . S
C1561 C1563 1.339 1_565 S
C1561 H1588 0.933 . S
C1562 C1563 1.388 1_565 S
C1562 C1564 1.343 . S
C1563 C1561 1.339 1_545 S
C1563 C1562 1.388 1_545 S
C1563 H1589 0.929 . S
C1564 C1562 1.343 . S
C1564 C1565 1.405 . S
C1564 H1590 0.930 . S
C1565 C1560 1.479 . S
C1565 C1564 1.405 . S
C1565 H1591 0.931 . S
U1566 O1567 2.454 . S
U1566 O1568 2.458 . S
U1566 C1569 2.984 . S
U1566 C1570 2.847 . S
U1566 C1583 2.882 . S
U1566 O1584 2.441 . S
U1566 O1585 2.420 . S
U1566 O1586 2.455 . S
U1566 O1587 2.449 . S
O1567 U1566 2.454 . S
O1567 C1569 1.353 . S
O1568 U1566 2.458 . S
O1568 C1569 1.286 . S
C1569 U1566 2.984 . S
C1569 O1567 1.353 . S
C1569 O1568 1.286 . S
C1569 C1571 1.363 . S
C1570 C1560 1.465 . S
C1570 U1566 2.847 . S
C1570 O1584 1.249 . S
C1570 O1585 1.202 . S
C1571 C1569 1.363 . S
C1571 C1573 1.408 . S
C1571 C1576 1.342 . S
C1572 C1573 1.310 . S
C1572 C1575 1.461 . S
C1572 H1592 0.932 . S
C1573 C1571 1.408 . S
C1573 C1572 1.310 . S
C1573 H1593 0.930 . S
C1574 C1575 1.474 . S
C1574 C1576 1.285 . S
C1574 H1594 0.929 . S
C1575 C1572 1.461 . S
C1575 C1574 1.474 . S
C1576 C1571 1.342 . S
C1576 C1574 1.285 . S
C1576 H1595 0.930 . S
C1577 C1580 1.424 1_565 S
C1577 C1582 1.245 . S
C1577 C1583 1.428 . S
C1578 C1581 1.260 1_565 S
C1578 C1582 1.477 . S
C1578 H1596 0.932 . S
C1579 C1580 1.384 . S
C1579 C1581 1.479 . S
C1579 H1597 0.929 . S
C1580 C1577 1.424 1_545 S
C1580 C1579 1.384 . S
C1580 H1598 0.928 . S
C1581 C1578 1.260 1_545 S
C1581 C1579 1.479 . S
C1582 C1577 1.245 . S
C1582 C1578 1.477 . S
C1582 H1599 0.932 . S
C1583 U1566 2.882 . S
C1583 C1577 1.428 . S
C1583 O1586 1.301 . S
C1583 O1587 1.282 . S
O1584 U1566 2.441 . S
O1584 C1570 1.249 . S
O1585 U1566 2.420 . S
O1585 C1570 1.202 . S
O1586 U1566 2.455 . S
O1586 C1583 1.301 . S
O1587 U1566 2.449 . S
O1587 C1583 1.282 . S
H1588 C1561 0.933 . S
H1589 C1563 0.929 . S
H1590 C1564 0.930 . S
H1591 C1565 0.931 . S
H1592 C1572 0.932 . S
H1593 C1573 0.930 . S
H1594 C1574 0.929 . S
H1595 C1576 0.930 . S
H1596 C1578 0.932 . S
H1597 C1579 0.929 . S
H1598 C1580 0.928 . S
H1599 C1582 0.932 . S
C1600 C1601 1.264 . S
C1600 C1605 1.480 . S
C1600 C1610 1.465 . S
C1601 C1600 1.264 . S
C1601 C1603 1.339 . S
C1601 H1628 0.931 . S
C1602 C1603 1.395 1_565 S
C1602 C1604 1.320 . S
C1603 C1601 1.339 . S
C1603 C1602 1.395 1_545 S
C1603 H1629 0.929 . S
C1604 C1602 1.320 . S
C1604 C1605 1.404 1_565 S
C1604 H1630 0.930 1_655 S
C1605 C1600 1.480 . S
C1605 C1604 1.404 1_545 S
C1605 H1631 0.931 . S
U1606 O1607 2.454 . S
U1606 O1608 2.458 . S
U1606 C1609 2.984 . S
U1606 C1610 2.847 . S
U1606 C1623 2.882 . S
U1606 O1624 2.441 . S
U1606 O1625 2.420 . S
U1606 O1626 2.455 . S
U1606 O1627 2.449 . S
O1607 U1606 2.454 . S
O1607 C1609 1.353 . S
O1608 U1606 2.458 . S
O1608 C1609 1.286 . S
C1609 U1606 2.984 . S
C1609 O1607 1.353 . S
C1609 O1608 1.286 . S
C1609 C1611 1.363 . S
C1610 C1600 1.465 . S
C1610 U1606 2.847 . S
C1610 O1624 1.249 . S
C1610 O1625 1.202 . S
C1611 C1609 1.363 . S
C1611 C1613 1.408 . S
C1611 C1616 1.342 . S
C1612 C1613 1.308 1_565 S
C1612 C1615 1.460 . S
C1612 H1632 0.936 1_655 S
C1613 C1611 1.408 . S
C1613 C1612 1.308 1_545 S
C1613 H1633 0.930 . S
C1614 C1615 1.471 1_545 S
C1614 C1616 1.290 . S
C1614 H1634 0.930 . S
C1615 C1612 1.460 . S
C1615 C1614 1.471 1_565 S
C1616 C1611 1.342 . S
C1616 C1614 1.290 . S
C1616 H1635 0.930 . S
C1617 C1620 1.424 . S
C1617 C1622 1.245 . S
C1617 C1623 1.428 . S
C1618 C1621 1.260 . S
C1618 C1622 1.477 . S
C1618 H1636 0.932 . S
C1619 C1620 1.384 . S
C1619 C1621 1.479 . S
C1619 H1637 0.929 . S
C1620 C1617 1.424 . S
C1620 C1619 1.384 . S
C1620 H1638 0.928 . S
C1621 C1618 1.260 . S
C1621 C1619 1.479 . S
C1622 C1617 1.245 . S
C1622 C1618 1.477 . S
C1622 H1639 0.932 . S
C1623 U1606 2.882 . S
C1623 C1617 1.428 . S
C1623 O1626 1.301 . S
C1623 O1627 1.282 . S
O1624 U1606 2.441 . S
O1624 C1610 1.249 . S
O1625 U1606 2.420 . S
O1625 C1610 1.202 . S
O1626 U1606 2.455 . S
O1626 C1623 1.301 . S
O1627 U1606 2.449 . S
O1627 C1623 1.282 . S
H1628 C1601 0.931 . S
H1629 C1603 0.929 . S
H1630 C1604 0.930 1_455 S
H1631 C1605 0.931 . S
H1632 C1612 0.936 1_455 S
H1633 C1613 0.930 . S
H1634 C1614 0.930 . S
H1635 C1616 0.930 . S
H1636 C1618 0.932 . S
H1637 C1619 0.929 . S
H1638 C1620 0.928 . S
H1639 C1622 0.932 . S
C1640 C1641 1.264 . S
C1640 C1645 1.479 . S
C1640 C1650 1.465 . S
C1641 C1640 1.264 . S
C1641 C1643 1.339 . S
C1641 H1668 0.931 . S
C1642 C1643 1.395 . S
C1642 C1644 1.320 . S
C1643 C1641 1.339 . S
C1643 C1642 1.395 . S
C1643 H1669 0.929 . S
C1644 C1642 1.320 . S
C1644 C1645 1.405 . S
C1644 H1670 0.930 . S
C1645 C1640 1.479 . S
C1645 C1644 1.405 . S
C1645 H1671 0.931 . S
U1646 O1647 2.454 . S
U1646 O1648 2.458 . S
U1646 C1649 2.984 . S
U1646 C1650 2.847 . S
U1646 C1663 2.882 . S
U1646 O1664 2.441 . S
U1646 O1665 2.420 . S
U1646 O1666 2.455 . S
U1646 O1667 2.449 . S
O1647 U1646 2.454 . S
O1647 C1649 1.353 . S
O1648 U1646 2.458 . S
O1648 C1649 1.286 . S
C1649 U1646 2.984 . S
C1649 O1647 1.353 . S
C1649 O1648 1.286 . S
C1649 C1651 1.363 . S
C1650 C1640 1.465 . S
C1650 U1646 2.847 . S
C1650 O1664 1.249 . S
C1650 O1665 1.202 . S
C1651 C1649 1.363 . S
C1651 C1653 1.408 . S
C1651 C1656 1.342 . S
C1652 C1653 1.310 . S
C1652 C1655 1.461 . S
C1652 H1672 0.932 . S
C1653 C1651 1.408 . S
C1653 C1652 1.310 . S
C1653 H1673 0.930 . S
C1654 C1655 1.474 . S
C1654 C1656 1.285 . S
C1654 H1674 0.929 . S
C1655 C1652 1.461 . S
C1655 C1654 1.474 . S
C1656 C1651 1.342 . S
C1656 C1654 1.285 . S
C1656 H1675 0.930 . S
C1657 C1660 1.424 . S
C1657 C1662 1.245 . S
C1657 C1663 1.428 . S
C1658 C1661 1.260 . S
C1658 C1662 1.477 . S
C1658 H1676 0.932 . S
C1659 C1660 1.384 . S
C1659 C1661 1.479 . S
C1659 H1677 0.929 . S
C1660 C1657 1.424 . S
C1660 C1659 1.384 . S
C1660 H1678 0.928 . S
C1661 C1658 1.260 . S
C1661 C1659 1.479 . S
C1662 C1657 1.245 . S
C1662 C1658 1.477 . S
C1662 H1679 0.932 . S
C1663 U1646 2.882 . S
C1663 C1657 1.428 . S
C1663 O1666 1.301 . S
C1663 O1667 1.282 . S
O1664 U1646 2.441 . S
O1664 C1650 1.249 . S
O1665 U1646 2.420 . S
O1665 C1650 1.202 . S
O1666 U1646 2.455 . S
O1666 C1663 1.301 . S
O1667 U1646 2.449 . S
O1667 C1663 1.282 . S
H1668 C1641 0.931 . S
H1669 C1643 0.929 . S
H1670 C1644 0.930 . S
H1671 C1645 0.931 . S
H1672 C1652 0.932 . S
H1673 C1653 0.930 . S
H1674 C1654 0.929 . S
H1675 C1656 0.930 . S
H1676 C1658 0.932 . S
H1677 C1659 0.929 . S
H1678 C1660 0.928 . S
H1679 C1662 0.932 . S
C1680 C1681 1.264 . S
C1680 C1685 1.479 . S
C1680 C1690 1.465 . S
C1681 C1680 1.264 . S
C1681 C1683 1.339 . S
C1681 H1708 0.931 . S
C1682 C1683 1.395 . S
C1682 C1684 1.320 . S
C1683 C1681 1.339 . S
C1683 C1682 1.395 . S
C1683 H1709 0.929 . S
C1684 C1682 1.320 . S
C1684 C1685 1.405 . S
C1684 H1710 0.930 . S
C1685 C1680 1.479 . S
C1685 C1684 1.405 . S
C1685 H1711 0.931 . S
U1686 O1687 2.454 . S
U1686 O1688 2.458 . S
U1686 C1689 2.984 . S
U1686 C1690 2.847 . S
U1686 C1703 2.882 . S
U1686 O1704 2.441 . S
U1686 O1705 2.420 . S
U1686 O1706 2.455 . S
U1686 O1707 2.449 . S
O1687 U1686 2.454 . S
O1687 C1689 1.353 . S
O1688 U1686 2.458 . S
O1688 C1689 1.286 . S
C1689 U1686 2.984 . S
C1689 O1687 1.353 . S
C1689 O1688 1.286 . S
C1689 C1691 1.363 . S
C1690 C1680 1.465 . S
C1690 U1686 2.847 . S
C1690 O1704 1.249 . S
C1690 O1705 1.202 . S
C1691 C1689 1.363 . S
C1691 C1693 1.408 . S
C1691 C1696 1.342 . S
C1692 C1693 1.310 . S
C1692 C1695 1.461 . S
C1692 H1712 0.932 . S
C1693 C1691 1.408 . S
C1693 C1692 1.310 . S
C1693 H1713 0.930 . S
C1694 C1695 1.474 . S
C1694 C1696 1.285 . S
C1694 H1714 0.929 . S
C1695 C1692 1.461 . S
C1695 C1694 1.474 . S
C1696 C1691 1.342 . S
C1696 C1694 1.285 . S
C1696 H1715 0.930 . S
C1697 C1700 1.424 . S
C1697 C1702 1.245 . S
C1697 C1703 1.428 . S
C1698 C1701 1.260 . S
C1698 C1702 1.477 . S
C1698 H1716 0.932 . S
C1699 C1700 1.384 . S
C1699 C1701 1.479 . S
C1699 H1717 0.929 . S
C1700 C1697 1.424 . S
C1700 C1699 1.384 . S
C1700 H1718 0.928 . S
C1701 C1698 1.260 . S
C1701 C1699 1.479 . S
C1702 C1697 1.245 . S
C1702 C1698 1.477 . S
C1702 H1719 0.932 . S
C1703 U1686 2.882 . S
C1703 C1697 1.428 . S
C1703 O1706 1.301 . S
C1703 O1707 1.282 . S
O1704 U1686 2.441 . S
O1704 C1690 1.249 . S
O1705 U1686 2.420 . S
O1705 C1690 1.202 . S
O1706 U1686 2.455 . S
O1706 C1703 1.301 . S
O1707 U1686 2.449 . S
O1707 C1703 1.282 . S
H1708 C1681 0.931 . S
H1709 C1683 0.929 . S
H1710 C1684 0.930 . S
H1711 C1685 0.931 . S
H1712 C1692 0.932 . S
H1713 C1693 0.930 . S
H1714 C1694 0.929 . S
H1715 C1696 0.930 . S
H1716 C1698 0.932 . S
H1717 C1699 0.929 . S
H1718 C1700 0.928 . S
H1719 C1702 0.932 . S
C1720 C1721 1.264 . S
C1720 C1725 1.479 . S
C1720 C1730 1.465 . S
C1721 C1720 1.264 . S
C1721 C1723 1.339 . S
C1721 H1748 0.931 . S
C1722 C1723 1.395 . S
C1722 C1724 1.320 . S
C1723 C1721 1.339 . S
C1723 C1722 1.395 . S
C1723 H1749 0.929 . S
C1724 C1722 1.320 . S
C1724 C1725 1.405 . S
C1724 H1750 0.930 . S
C1725 C1720 1.479 . S
C1725 C1724 1.405 . S
C1725 H1751 0.931 . S
U1726 O1727 2.454 . S
U1726 O1728 2.458 . S
U1726 C1729 2.984 . S
U1726 C1730 2.847 . S
U1726 C1743 2.882 . S
U1726 O1744 2.441 . S
U1726 O1745 2.420 . S
U1726 O1746 2.455 . S
U1726 O1747 2.449 . S
O1727 U1726 2.454 . S
O1727 C1729 1.353 . S
O1728 U1726 2.458 . S
O1728 C1729 1.286 . S
C1729 U1726 2.984 . S
C1729 O1727 1.353 . S
C1729 O1728 1.286 . S
C1729 C1731 1.363 . S
C1730 C1720 1.465 . S
C1730 U1726 2.847 . S
C1730 O1744 1.249 . S
C1730 O1745 1.202 . S
C1731 C1729 1.363 . S
C1731 C1733 1.408 . S
C1731 C1736 1.342 . S
C1732 C1733 1.310 . S
C1732 C1735 1.461 . S
C1732 H1752 0.932 . S
C1733 C1731 1.408 . S
C1733 C1732 1.310 . S
C1733 H1753 0.930 . S
C1734 C1735 1.474 . S
C1734 C1736 1.285 . S
C1734 H1754 0.929 . S
C1735 C1732 1.461 . S
C1735 C1734 1.474 . S
C1736 C1731 1.342 . S
C1736 C1734 1.285 . S
C1736 H1755 0.930 . S
C1737 C1740 1.424 . S
C1737 C1742 1.245 . S
C1737 C1743 1.428 . S
C1738 C1741 1.260 . S
C1738 C1742 1.477 . S
C1738 H1756 0.932 . S
C1739 C1740 1.384 . S
C1739 C1741 1.479 . S
C1739 H1757 0.929 . S
C1740 C1737 1.424 . S
C1740 C1739 1.384 . S
C1740 H1758 0.928 . S
C1741 C1738 1.260 . S
C1741 C1739 1.479 . S
C1742 C1737 1.245 . S
C1742 C1738 1.477 . S
C1742 H1759 0.932 . S
C1743 U1726 2.882 . S
C1743 C1737 1.428 . S
C1743 O1746 1.301 . S
C1743 O1747 1.282 . S
O1744 U1726 2.441 . S
O1744 C1730 1.249 . S
O1745 U1726 2.420 . S
O1745 C1730 1.202 . S
O1746 U1726 2.455 . S
O1746 C1743 1.301 . S
O1747 U1726 2.449 . S
O1747 C1743 1.282 . S
H1748 C1721 0.931 . S
H1749 C1723 0.929 . S
H1750 C1724 0.930 . S
H1751 C1725 0.931 . S
H1752 C1732 0.932 . S
H1753 C1733 0.930 . S
H1754 C1734 0.929 . S
H1755 C1736 0.930 . S
H1756 C1738 0.932 . S
H1757 C1739 0.929 . S
H1758 C1740 0.928 . S
H1759 C1742 0.932 . S
C1760 C1761 1.264 . S
C1760 C1765 1.479 . S
C1760 C1770 1.465 . S
C1761 C1760 1.264 . S
C1761 C1763 1.339 1_655 S
C1761 H1788 0.933 . S
C1762 C1763 1.388 1_655 S
C1762 C1764 1.343 . S
C1763 C1761 1.339 1_455 S
C1763 C1762 1.388 1_455 S
C1763 H1789 0.929 . S
C1764 C1762 1.343 . S
C1764 C1765 1.405 . S
C1764 H1790 0.930 . S
C1765 C1760 1.479 . S
C1765 C1764 1.405 . S
C1765 H1791 0.931 . S
U1766 O1767 2.454 . S
U1766 O1768 2.458 . S
U1766 C1769 2.984 . S
U1766 C1770 2.847 . S
U1766 C1783 2.882 . S
U1766 O1784 2.441 . S
U1766 O1785 2.420 . S
U1766 O1786 2.455 . S
U1766 O1787 2.449 . S
O1767 U1766 2.454 . S
O1767 C1769 1.353 . S
O1768 U1766 2.458 . S
O1768 C1769 1.286 . S
C1769 U1766 2.984 . S
C1769 O1767 1.353 . S
C1769 O1768 1.286 . S
C1769 C1771 1.363 . S
C1770 C1760 1.465 . S
C1770 U1766 2.847 . S
C1770 O1784 1.249 . S
C1770 O1785 1.202 . S
C1771 C1769 1.363 . S
C1771 C1773 1.408 . S
C1771 C1776 1.342 . S
C1772 C1773 1.310 . S
C1772 C1775 1.461 . S
C1772 H1792 0.932 . S
C1773 C1771 1.408 . S
C1773 C1772 1.310 . S
C1773 H1793 0.930 . S
C1774 C1775 1.474 . S
C1774 C1776 1.285 . S
C1774 H1794 0.929 . S
C1775 C1772 1.461 . S
C1775 C1774 1.474 . S
C1776 C1771 1.342 . S
C1776 C1774 1.285 . S
C1776 H1795 0.930 . S
C1777 C1780 1.424 1_655 S
C1777 C1782 1.245 . S
C1777 C1783 1.428 . S
C1778 C1781 1.260 1_655 S
C1778 C1782 1.477 . S
C1778 H1796 0.932 . S
C1779 C1780 1.384 . S
C1779 C1781 1.479 . S
C1779 H1797 0.929 . S
C1780 C1777 1.424 1_455 S
C1780 C1779 1.384 . S
C1780 H1798 0.928 . S
C1781 C1778 1.260 1_455 S
C1781 C1779 1.479 . S
C1782 C1777 1.245 . S
C1782 C1778 1.477 . S
C1782 H1799 0.932 . S
C1783 U1766 2.882 . S
C1783 C1777 1.428 . S
C1783 O1786 1.301 . S
C1783 O1787 1.282 . S
O1784 U1766 2.441 . S
O1784 C1770 1.249 . S
O1785 U1766 2.420 . S
O1785 C1770 1.202 . S
O1786 U1766 2.455 . S
O1786 C1783 1.301 . S
O1787 U1766 2.449 . S
O1787 C1783 1.282 . S
H1788 C1761 0.933 . S
H1789 C1763 0.929 . S
H1790 C1764 0.930 . S
H1791 C1765 0.931 . S
H1792 C1772 0.932 . S
H1793 C1773 0.930 . S
H1794 C1774 0.929 . S
H1795 C1776 0.930 . S
H1796 C1778 0.932 . S
H1797 C1779 0.929 . S
H1798 C1780 0.928 . S
H1799 C1782 0.932 . S
C1800 C1801 1.264 . S
C1800 C1805 1.479 . S
C1800 C1810 1.465 . S
C1801 C1800 1.264 . S
C1801 C1803 1.339 . S
C1801 H1828 0.931 . S
C1802 C1803 1.395 . S
C1802 C1804 1.320 . S
C1803 C1801 1.339 . S
C1803 C1802 1.395 . S
C1803 H1829 0.929 . S
C1804 C1802 1.320 . S
C1804 C1805 1.405 . S
C1804 H1830 0.930 . S
C1805 C1800 1.479 . S
C1805 C1804 1.405 . S
C1805 H1831 0.931 . S
U1806 O1807 2.456 1_554 S
U1806 O1808 2.462 1_554 S
U1806 C1809 2.988 1_554 S
U1806 C1810 2.843 . S
U1806 C1823 2.883 1_554 S
U1806 O1824 2.438 . S
U1806 O1825 2.416 . S
U1806 O1826 2.457 1_554 S
U1806 O1827 2.447 . S
O1807 U1806 2.456 1_556 S
O1807 C1809 1.353 . S
O1808 U1806 2.462 1_556 S
O1808 C1809 1.286 . S
C1809 U1806 2.988 1_556 S
C1809 O1807 1.353 . S
C1809 O1808 1.286 . S
C1809 C1811 1.363 . S
C1810 C1800 1.465 . S
C1810 U1806 2.843 . S
C1810 O1824 1.249 . S
C1810 O1825 1.202 . S
C1811 C1809 1.363 . S
C1811 C1813 1.408 . S
C1811 C1816 1.342 . S
C1812 C1813 1.310 . S
C1812 C1815 1.461 . S
C1812 H1832 0.932 . S
C1813 C1811 1.408 . S
C1813 C1812 1.310 . S
C1813 H1833 0.930 . S
C1814 C1815 1.474 . S
C1814 C1816 1.285 . S
C1814 H1834 0.929 . S
C1815 C1812 1.461 . S
C1815 C1814 1.474 . S
C1816 C1811 1.342 . S
C1816 C1814 1.285 . S
C1816 H1835 0.930 . S
C1817 C1820 1.424 1_556 S
C1817 C1822 1.245 . S
C1817 C1823 1.428 . S
C1818 C1821 1.260 . S
C1818 C1822 1.477 . S
C1818 H1836 0.932 . S
C1819 C1820 1.384 . S
C1819 C1821 1.479 1_554 S
C1819 H1837 0.929 . S
C1820 C1817 1.424 1_554 S
C1820 C1819 1.384 . S
C1820 H1838 0.928 . S
C1821 C1818 1.260 . S
C1821 C1819 1.479 1_556 S
C1822 C1817 1.245 . S
C1822 C1818 1.477 . S
C1822 H1839 0.932 . S
C1823 U1806 2.883 1_556 S
C1823 C1817 1.428 . S
C1823 O1826 1.301 . S
C1823 O1827 1.282 1_556 S
O1824 U1806 2.438 . S
O1824 C1810 1.249 . S
O1825 U1806 2.416 . S
O1825 C1810 1.202 . S
O1826 U1806 2.457 1_556 S
O1826 C1823 1.301 . S
O1827 U1806 2.447 . S
O1827 C1823 1.282 1_554 S
H1828 C1801 0.931 . S
H1829 C1803 0.929 . S
H1830 C1804 0.930 . S
H1831 C1805 0.931 . S
H1832 C1812 0.932 . S
H1833 C1813 0.930 . S
H1834 C1814 0.929 . S
H1835 C1816 0.930 . S
H1836 C1818 0.932 . S
H1837 C1819 0.929 . S
H1838 C1820 0.928 . S
H1839 C1822 0.932 . S
C1840 C1841 1.264 . S
C1840 C1845 1.479 . S
C1840 C1850 1.465 . S
C1841 C1840 1.264 . S
C1841 C1843 1.339 . S
C1841 H1868 0.931 . S
C1842 C1843 1.395 . S
C1842 C1844 1.319 1_556 S
C1843 C1841 1.339 . S
C1843 C1842 1.395 . S
C1843 H1869 0.929 . S
C1844 C1842 1.319 1_554 S
C1844 C1845 1.404 1_554 S
C1844 H1870 0.931 . S
C1845 C1840 1.479 . S
C1845 C1844 1.404 1_556 S
C1845 H1871 0.931 . S
U1846 O1847 2.454 1_545 S
U1846 O1848 2.458 1_545 S
U1846 C1849 2.984 1_545 S
U1846 C1850 2.847 . S
U1846 C1863 2.882 1_545 S
U1846 O1864 2.441 . S
U1846 O1865 2.420 . S
U1846 O1866 2.455 1_545 S
U1846 O1867 2.449 . S
O1847 U1846 2.454 1_565 S
O1847 C1849 1.353 . S
O1848 U1846 2.458 1_565 S
O1848 C1849 1.286 . S
C1849 U1846 2.984 1_565 S
C1849 O1847 1.353 . S
C1849 O1848 1.286 . S
C1849 C1851 1.363 . S
C1850 C1840 1.465 . S
C1850 U1846 2.847 . S
C1850 O1864 1.249 . S
C1850 O1865 1.202 . S
C1851 C1849 1.363 . S
C1851 C1853 1.408 1_556 S
C1851 C1856 1.342 . S
C1852 C1853 1.310 . S
C1852 C1855 1.461 . S
C1852 H1872 0.932 . S
C1853 C1851 1.408 1_554 S
C1853 C1852 1.310 . S
C1853 H1873 0.930 . S
C1854 C1855 1.474 1_556 S
C1854 C1856 1.285 . S
C1854 H1874 0.929 . S
C1855 C1852 1.461 . S
C1855 C1854 1.474 1_554 S
C1856 C1851 1.342 . S
C1856 C1854 1.285 . S
C1856 H1875 0.930 . S
C1857 C1860 1.424 . S
C1857 C1862 1.245 . S
C1857 C1863 1.428 . S
C1858 C1861 1.260 . S
C1858 C1862 1.477 . S
C1858 H1876 0.932 . S
C1859 C1860 1.384 . S
C1859 C1861 1.479 . S
C1859 H1877 0.929 . S
C1860 C1857 1.424 . S
C1860 C1859 1.384 . S
C1860 H1878 0.883 1_565 S
C1861 C1858 1.260 . S
C1861 C1859 1.479 . S
C1862 C1857 1.245 . S
C1862 C1858 1.477 . S
C1862 H1879 0.932 . S
C1863 U1846 2.882 1_565 S
C1863 C1857 1.428 . S
C1863 O1866 1.301 . S
C1863 O1867 1.282 1_565 S
O1864 U1846 2.441 . S
O1864 C1850 1.249 . S
O1865 U1846 2.420 . S
O1865 C1850 1.202 . S
O1866 U1846 2.455 1_565 S
O1866 C1863 1.301 . S
O1867 U1846 2.449 . S
O1867 C1863 1.282 1_545 S
H1868 C1841 0.931 . S
H1869 C1843 0.929 . S
H1870 C1844 0.931 . S
H1871 C1845 0.931 . S
H1872 C1852 0.932 . S
H1873 C1853 0.930 . S
H1874 C1854 0.929 . S
H1875 C1856 0.930 . S
H1876 C1858 0.932 . S
H1877 C1859 0.929 . S
H1878 C1860 0.883 1_545 S
H1879 C1862 0.932 . S
C1880 C1881 1.264 . S
C1880 C1885 1.479 . S
C1880 C1890 1.465 . S
C1881 C1880 1.264 . S
C1881 C1883 1.339 . S
C1881 H1908 0.931 . S
C1882 C1883 1.395 . S
C1882 C1884 1.320 . S
C1883 C1881 1.339 . S
C1883 C1882 1.395 . S
C1883 H1909 0.929 . S
C1884 C1882 1.320 . S
C1884 C1885 1.405 . S
C1884 H1910 0.930 . S
C1885 C1880 1.479 . S
C1885 C1884 1.405 . S
C1885 H1911 0.931 . S
U1886 O1887 2.454 . S
U1886 O1888 2.458 . S
U1886 C1889 2.984 . S
U1886 C1890 2.847 . S
U1886 C1903 2.882 . S
U1886 O1904 2.441 . S
U1886 O1905 2.420 . S
U1886 O1906 2.455 . S
U1886 O1907 2.449 . S
O1887 U1886 2.454 . S
O1887 C1889 1.353 . S
O1888 U1886 2.458 . S
O1888 C1889 1.286 . S
C1889 U1886 2.984 . S
C1889 O1887 1.353 . S
C1889 O1888 1.286 . S
C1889 C1891 1.363 . S
C1890 C1880 1.465 . S
C1890 U1886 2.847 . S
C1890 O1904 1.249 . S
C1890 O1905 1.202 . S
C1891 C1889 1.363 . S
C1891 C1893 1.408 . S
C1891 C1896 1.342 . S
C1892 C1893 1.310 . S
C1892 C1895 1.461 . S
C1892 H1912 0.932 . S
C1893 C1891 1.408 . S
C1893 C1892 1.310 . S
C1893 H1913 0.930 . S
C1894 C1895 1.474 . S
C1894 C1896 1.285 . S
C1894 H1914 0.929 . S
C1895 C1892 1.461 . S
C1895 C1894 1.474 . S
C1896 C1891 1.342 . S
C1896 C1894 1.285 . S
C1896 H1915 0.930 . S
C1897 C1900 1.424 . S
C1897 C1902 1.245 . S
C1897 C1903 1.428 . S
C1898 C1901 1.260 . S
C1898 C1902 1.477 . S
C1898 H1916 0.932 . S
C1899 C1900 1.384 . S
C1899 C1901 1.479 . S
C1899 H1917 0.929 . S
C1900 C1897 1.424 . S
C1900 C1899 1.384 . S
C1900 H1918 0.928 . S
C1901 C1898 1.260 . S
C1901 C1899 1.479 . S
C1902 C1897 1.245 . S
C1902 C1898 1.477 . S
C1902 H1919 0.932 . S
C1903 U1886 2.882 . S
C1903 C1897 1.428 . S
C1903 O1906 1.301 . S
C1903 O1907 1.282 . S
O1904 U1886 2.441 . S
O1904 C1890 1.249 . S
O1905 U1886 2.420 . S
O1905 C1890 1.202 . S
O1906 U1886 2.455 . S
O1906 C1903 1.301 . S
O1907 U1886 2.449 . S
O1907 C1903 1.282 . S
H1908 C1881 0.931 . S
H1909 C1883 0.929 . S
H1910 C1884 0.930 . S
H1911 C1885 0.931 . S
H1912 C1892 0.932 . S
H1913 C1893 0.930 . S
H1914 C1894 0.929 . S
H1915 C1896 0.930 . S
H1916 C1898 0.932 . S
H1917 C1899 0.929 . S
H1918 C1900 0.928 . S
H1919 C1902 0.932 . S
C15 C895 3.798 . S
C1615 C55 3.869 1_565 S
C95 C935 2.905 . S
C135 C1815 3.805 . S
C735 C175 3.805 . S
C215 C775 2.905 . S
C1775 C255 2.792 . S
C695 C295 4.509 . S
C535 C335 3.798 . S
C575 C375 3.805 . S
C415 C615 4.509 . S
C455 C495 3.536 . S
C1015 C655 3.798 . S
C1215 C815 4.509 . S
C1095 C855 2.914 . S
C975 C1855 3.869 1_556 S
C1055 C1895 3.536 . S
C1135 C1695 2.914 . S
C1175 C1735 3.536 . S
C1255 C1655 2.792 . S
C1495 C1295 3.869 1_455 S
C1535 C1335 2.914 . S
C1575 C1375 2.792 . S
C1455 C1415 2.905 . S
C21 C301 3.560 . S
C181 C61 3.189 . S
C101 C221 2.040 . S
C141 C261 2.450 . S
C341 C821 3.560 . S
C381 C1661 2.449 . S
C1701 C421 2.408 . S
C1741 C461 2.511 . S
C501 C1901 2.511 . S
C541 C861 2.254 . S
C581 C1861 3.189 . S
C661 C621 3.560 . S
C1341 C701 2.408 . S
C1381 C741 2.449 . S
C1421 C781 2.040 . S
C901 C1541 2.254 . S
C1461 C941 2.040 . S
C1261 C981 2.206 . S
C1021 C1141 2.254 . S
C1061 C1181 2.511 . S
C1221 C1101 2.408 . S
C1781 C1301 2.206 . S
C1501 C1821 3.189 . S
C1621 C1581 2.206 . S
C1162 C2 1.832 . S
C1202 C42 3.139 . S
C1242 C82 2.549 1_556 S
C1122 C122 2.892 . S
C162 C1082 2.080 . S
C202 C962 2.647 . S
C242 C1002 3.188 . S
C1042 C282 2.675 . S
C322 C1882 1.832 . S
C362 C842 2.892 . S
C402 C1842 3.139 . S
C642 C442 1.832 . S
C482 C802 2.675 . S
C1642 C522 3.188 . S
C562 C1682 2.080 . S
C1722 C602 2.675 . S
C1482 C682 3.139 . S
C1522 C722 2.892 . S
C762 C1562 2.549 1_545 S
C882 C1362 3.188 . S
C922 C1282 2.647 . S
C1322 C1802 2.080 . S
C1402 C1602 2.647 . S
C1442 C1762 2.549 1_455 S
