# Generated by pormake.
# Topology uog, (4)-cn, num edge types: 1
# Building blocks:
#     Node 0, Type 0, BuildingBlock: QUQFOY_clean_sbu_3, # of connection points: 4
#     Node 1, Type 0, BuildingBlock: QUQFOY_clean_sbu_3, # of connection points: 4
#     Node 2, Type 0, BuildingBlock: QUQFOY_clean_sbu_3, # of connection points: 4
#     Node 3, Type 0, BuildingBlock: QUQFOY_clean_sbu_3, # of connection points: 4
#     Node 4, Type 0, BuildingBlock: QUQFOY_clean_sbu_3, # of connection points: 4
#     Node 5, Type 0, BuildingBlock: QUQFOY_clean_sbu_3, # of connection points: 4
#     Edge 6, Type (0, 0), BuildingBlock: ZUJKAS_clean_linker_0, # of connection points: 2
#     Edge 7, Type (0, 0), BuildingBlock: ZUJKAS_clean_linker_0, # of connection points: 2
#     Edge 8, Type (0, 0), BuildingBlock: ZUJKAS_clean_linker_0, # of connection points: 2
#     Edge 9, Type (0, 0), BuildingBlock: ZUJKAS_clean_linker_0, # of connection points: 2
#     Edge 10, Type (0, 0), BuildingBlock: ZUJKAS_clean_linker_0, # of connection points: 2
#     Edge 11, Type (0, 0), BuildingBlock: ZUJKAS_clean_linker_0, # of connection points: 2
#     Edge 12, Type (0, 0), BuildingBlock: ZUJKAS_clean_linker_0, # of connection points: 2
#     Edge 13, Type (0, 0), BuildingBlock: ZUJKAS_clean_linker_0, # of connection points: 2
#     Edge 14, Type (0, 0), BuildingBlock: ZUJKAS_clean_linker_0, # of connection points: 2
#     Edge 15, Type (0, 0), BuildingBlock: ZUJKAS_clean_linker_0, # of connection points: 2
#     Edge 16, Type (0, 0), BuildingBlock: ZUJKAS_clean_linker_0, # of connection points: 2
#     Edge 17, Type (0, 0), BuildingBlock: ZUJKAS_clean_linker_0, # of connection points: 2
# Relax obj value: 0.082
# Max RMSD: 0.178
# Mean RMSD: 0.178
data_MOF--net-uog--node1-QUQFOY_clean_sbu_3--edge1-ZUJKAS_clean_linker_0
_symmetry_space_group_name_H-M    P1
_symmetry_Int_Tables_number       1
_symmetry_cell_setting            triclinic
loop_
_symmetry_equiv_pos_as_xyz
'x, y, z'
_cell_length_a     37.836545
_cell_length_b     37.813542
_cell_length_c     56.587674
_cell_angle_alpha  89.862468
_cell_angle_beta   89.945358
_cell_angle_gamma 120.12252
loop_
_atom_site_label
_atom_site_type_symbol
_atom_site_fract_x
_atom_site_fract_y
_atom_site_fract_z
_atom_type_partial_charge
C0 C 0.68011 0.35744 0.17801 0.0
O1 O 0.70082 0.38579 0.16327 0.0
Cd2 Cd 0.66769 0.39065 0.12778 0.0
O3 O 0.64363 0.33026 0.17323 0.0
Cd4 Cd 0.591 0.30519 0.14288 0.0
C5 C 0.58336 0.38853 0.15351 0.0
O6 O 0.6319 0.3275 0.10657 0.0
O7 O 0.56814 0.31054 0.10406 0.0
O8 O 0.59233 0.24259 0.14729 0.0
C9 C 0.60195 0.32193 0.09371 0.0
O10 O 0.6169 0.40704 0.14206 0.0
C11 C 0.55451 0.21937 0.15131 0.0
O12 O 0.56698 0.35052 0.15849 0.0
O13 O 0.53245 0.23607 0.15156 0.0
C14 C 0.33162 0.67125 0.51708 0.0
O15 O 0.3313 0.6976 0.50331 0.0
Cd16 Cd 0.2893 0.67071 0.46843 0.0
O17 O 0.31782 0.63469 0.51021 0.0
Cd18 Cd 0.2931 0.58942 0.47608 0.0
C19 C 0.20526 0.58356 0.4921 0.0
O20 O 0.31127 0.63579 0.44229 0.0
O21 O 0.26317 0.57278 0.4375 0.0
O22 O 0.35782 0.59224 0.4777 0.0
C23 C 0.28543 0.60812 0.42867 0.0
O24 O 0.22254 0.62009 0.48417 0.0
C25 C 0.34411 0.55408 0.47945 0.0
O26 O 0.224 0.56333 0.49227 0.0
O27 O 0.30536 0.53101 0.4797 0.0
C28 C 0.63322 0.33202 0.84456 0.0
O29 O 0.60502 0.32576 0.83011 0.0
Cd30 Cd 0.59699 0.28788 0.79435 0.0
O31 O 0.65991 0.32238 0.83912 0.0
Cd32 Cd 0.68409 0.2961 0.80716 0.0
C33 C 0.60021 0.20526 0.81923 0.0
O34 O 0.65912 0.31473 0.77217 0.0
O35 O 0.6778 0.2695 0.76785 0.0
O36 O 0.74758 0.35994 0.81031 0.0
C37 C 0.66433 0.29097 0.75856 0.0
O38 O 0.58115 0.22135 0.80964 0.0
C39 C 0.77044 0.34486 0.81383 0.0
O40 O 0.639 0.22562 0.82176 0.0
O41 O 0.75311 0.30598 0.81449 0.0
C42 C 0.2882 0.64636 0.18203 0.0
O43 O 0.26845 0.61647 0.16813 0.0
Cd44 Cd 0.29933 0.61253 0.13145 0.0
O45 O 0.32342 0.67537 0.17635 0.0
Cd46 Cd 0.37535 0.70276 0.14549 0.0
C47 C 0.38854 0.62194 0.15503 0.0
O48 O 0.33168 0.67628 0.11082 0.0
O49 O 0.39653 0.69998 0.10577 0.0
O50 O 0.37048 0.76339 0.15023 0.0
C51 C 0.36105 0.6839 0.09685 0.0
O52 O 0.35441 0.60177 0.14441 0.0
C53 C 0.40823 0.7882 0.15335 0.0
O54 O 0.40336 0.65978 0.15993 0.0
O55 O 0.43188 0.77329 0.15307 0.0
C56 C 0.64552 0.29018 0.51109 0.0
O57 O 0.65543 0.26945 0.49791 0.0
Cd58 Cd 0.69779 0.30312 0.46374 0.0
O59 O 0.65463 0.32617 0.50513 0.0
Cd60 Cd 0.68454 0.37756 0.47398 0.0
C61 C 0.77487 0.38928 0.49105 0.0
O62 O 0.67321 0.33701 0.43799 0.0
O63 O 0.71893 0.40152 0.43689 0.0
O64 O 0.61919 0.37395 0.47325 0.0
C65 C 0.69913 0.36783 0.42604 0.0
O66 O 0.76181 0.35473 0.4811 0.0
C67 C 0.6321 0.41138 0.47752 0.0
O68 O 0.75246 0.40561 0.49238 0.0
O69 O 0.67055 0.43431 0.48011 0.0
C70 C 0.34251 0.64642 0.85041 0.0
O71 O 0.37423 0.65743 0.83787 0.0
Cd72 Cd 0.38343 0.69425 0.80129 0.0
O73 O 0.31409 0.65237 0.84322 0.0
Cd74 Cd 0.28999 0.67722 0.81069 0.0
C75 C 0.36907 0.77203 0.82315 0.0
O76 O 0.32241 0.66173 0.77818 0.0
O77 O 0.29378 0.69775 0.77013 0.0
O78 O 0.22834 0.61155 0.81435 0.0
C79 C 0.3138 0.68114 0.76303 0.0
O80 O 0.39157 0.75868 0.81501 0.0
C81 C 0.20379 0.62497 0.81656 0.0
O82 O 0.3303 0.74887 0.82458 0.0
O83 O 0.21929 0.66365 0.81623 0.0
H84 H 0.474 0.159 0.15575 0.0
H85 H 0.44727 0.08511 0.15979 0.0
H86 H 0.5702 0.10586 0.15862 0.0
H87 H 0.59702 0.17916 0.15481 0.0
H88 H 0.45987 0.03582 0.1275 0.0
H89 H 0.52006 0.03058 0.21594 0.0
H90 H 0.51688 0.07415 0.20564 0.0
H91 H 0.55819 0.06691 0.19615 0.0
C92 C 0.49528 0.14779 0.15663 0.0
C93 C 0.5376 0.17494 0.15498 0.0
C94 C 0.48 0.10564 0.15892 0.0
C95 C 0.50681 0.0901 0.15987 0.0
C96 C 0.54901 0.11722 0.15845 0.0
H97 H 0.48775 0.85144 0.15559 0.0
H98 H 0.51132 0.92488 0.15789 0.0
C99 C 0.56425 0.15915 0.15609 0.0
C100 C 0.49095 0.04542 0.16074 0.0
H101 H 0.49554 0.97063 0.19226 0.0
C102 C 0.46726 0.02145 0.14178 0.0
C103 C 0.50101 0.02688 0.17929 0.0
C104 C 0.52512 0.05086 0.20053 0.0
C105 C 0.45418 0.97959 0.14055 0.0
C106 C 0.46445 0.96107 0.15902 0.0
C107 C 0.48787 0.98495 0.17809 0.0
C108 C 0.4505 0.91677 0.15893 0.0
C109 C 0.43044 0.95579 0.11916 0.0
C110 C 0.40864 0.88801 0.15938 0.0
C111 C 0.39518 0.84631 0.15801 0.0
C112 C 0.42332 0.83242 0.15636 0.0
C113 C 0.46535 0.8612 0.15677 0.0
C114 C 0.47883 0.9031 0.15808 0.0
H115 H 0.43432 0.97624 0.10404 0.0
H116 H 0.4401 0.9338 0.1135 0.0
H117 H 0.39744 0.9382 0.12366 0.0
H118 H 0.3863 0.89786 0.16055 0.0
H119 H 0.36258 0.82497 0.15799 0.0
H120 H 0.42686 0.59834 0.48287 0.0
H121 H 0.47503 0.57347 0.48375 0.0
H122 H 0.37521 0.44919 0.47977 0.0
H123 H 0.32627 0.47395 0.47923 0.0
H124 H 0.43538 0.46127 0.51343 0.0
H125 H 0.50583 0.52857 0.42671 0.0
H126 H 0.50548 0.56486 0.44695 0.0
H127 H 0.45793 0.52343 0.43624 0.0
C128 C 0.41497 0.56566 0.48217 0.0
C129 C 0.37267 0.5381 0.48077 0.0
C130 C 0.44266 0.55154 0.48255 0.0
C131 C 0.42878 0.50958 0.48132 0.0
C132 C 0.38653 0.48177 0.48053 0.0
H133 H 0.54911 0.36668 0.47597 0.0
H134 H 0.50058 0.39111 0.47811 0.0
C135 C 0.35865 0.49592 0.48022 0.0
C136 C 0.45863 0.49507 0.481 0.0
H137 H 0.54007 0.50294 0.45026 0.0
C138 C 0.45811 0.47013 0.49956 0.0
C139 C 0.48838 0.50686 0.46291 0.0
C140 C 0.48932 0.53209 0.44195 0.0
C141 C 0.48703 0.45726 0.50073 0.0
C142 C 0.51687 0.46924 0.48271 0.0
C143 C 0.51737 0.49412 0.46415 0.0
C144 C 0.54669 0.45474 0.48218 0.0
C145 C 0.48589 0.43152 0.52145 0.0
C146 C 0.58888 0.48256 0.48333 0.0
C147 C 0.61692 0.46869 0.48206 0.0
C148 C 0.60312 0.4268 0.47935 0.0
C149 C 0.56081 0.39915 0.47812 0.0
C150 C 0.53294 0.41299 0.47949 0.0
H151 H 0.46846 0.4339 0.53658 0.0
H152 H 0.47073 0.39899 0.516 0.0
H153 H 0.51726 0.4407 0.52747 0.0
H154 H 0.60007 0.51499 0.48522 0.0
H155 H 0.64928 0.49072 0.48299 0.0
H156 H 0.81277 0.42804 0.8146 0.0
H157 H 0.88648 0.47346 0.81724 0.0
H158 H 0.90353 0.36916 0.82206 0.0
H159 H 0.82935 0.32314 0.81914 0.0
H160 H 0.94164 0.48072 0.85266 0.0
H161 H 0.9777 0.4356 0.76648 0.0
H162 H 0.92648 0.42272 0.77468 0.0
H163 H 0.94864 0.3943 0.78675 0.0
C164 C 0.83209 0.41462 0.81624 0.0
C165 C 0.81517 0.3719 0.81649 0.0
C166 C 0.87426 0.4407 0.8178 0.0
C167 C 0.90052 0.42473 0.81953 0.0
C168 C 0.88381 0.38211 0.82032 0.0
H169 H 0.16492 0.54197 0.81995 0.0
H170 H 0.09162 0.49392 0.82222 0.0
C171 C 0.84145 0.35587 0.81878 0.0
C172 C 0.94534 0.45302 0.82025 0.0
H173 H 0.03352 0.48297 0.78936 0.0
C174 C 0.96179 0.48121 0.83886 0.0
C175 C 0.97148 0.45367 0.80216 0.0
C176 C 0.95529 0.42524 0.78125 0.0
C177 C 0.0038 0.5098 0.83999 0.0
C178 C 0.02988 0.51067 0.82179 0.0
C179 C 0.01345 0.48227 0.80329 0.0
C180 C 0.07442 0.5405 0.8216 0.0
C181 C 0.01996 0.53833 0.86084 0.0
C182 C 0.0892 0.58279 0.82047 0.0
C183 C 0.13129 0.61051 0.81923 0.0
C184 C 0.15926 0.59633 0.8189 0.0
C185 C 0.14426 0.55397 0.82016 0.0
C186 C 0.10233 0.52639 0.82145 0.0
H187 H -0.00163 0.5268 0.87602 0.0
H188 H 0.04989 0.5427 0.8667 0.0
H189 H 0.02437 0.5686 0.85563 0.0
H190 H 0.06817 0.59433 0.82008 0.0
H191 H 0.14186 0.64292 0.81815 0.0
H192 H 0.14897 0.50182 0.49723 0.0
H193 H 0.07536 0.47147 0.50448 0.0
H194 H 0.09091 0.59189 0.51212 0.0
H195 H 0.16394 0.62238 0.50454 0.0
H196 H 0.02715 0.47878 0.54166 0.0
H197 H 0.01193 0.54252 0.45612 0.0
H198 H 0.05726 0.54082 0.46395 0.0
H199 H 0.04845 0.57959 0.47614 0.0
C200 C 0.13677 0.52177 0.50081 0.0
C201 C 0.16215 0.56449 0.49991 0.0
C202 C 0.09476 0.50441 0.50495 0.0
C203 C 0.07767 0.52952 0.50833 0.0
C204 C 0.10339 0.57203 0.50903 0.0
H205 H 0.82273 0.47064 0.50223 0.0
H206 H 0.89613 0.50702 0.51108 0.0
C207 C 0.14514 0.58936 0.50472 0.0
C208 C 0.03277 0.51163 0.50945 0.0
H209 H 0.95268 0.50793 0.47954 0.0
C210 C 0.01081 0.4852 0.52815 0.0
C211 C 0.0116 0.52021 0.4918 0.0
C212 C 0.03337 0.54704 0.47074 0.0
C213 C 0.96809 0.467 0.52962 0.0
C214 C 0.94691 0.47507 0.51176 0.0
C215 C 0.96902 0.50215 0.49335 0.0
C216 C 0.90171 0.4528 0.5103 0.0
C217 C 0.94601 0.43931 0.55028 0.0
C218 C 0.88053 0.41031 0.50723 0.0
C219 C 0.83889 0.3896 0.50209 0.0
C220 C 0.81748 0.41096 0.4998 0.0
C221 C 0.83831 0.45332 0.50394 0.0
C222 C 0.88021 0.47412 0.50898 0.0
H223 H 0.9665 0.44657 0.56578 0.0
H224 H 0.91904 0.44173 0.55558 0.0
H225 H 0.93525 0.40717 0.54518 0.0
H226 H 0.89659 0.39334 0.50765 0.0
H227 H 0.82378 0.35694 0.49911 0.0
H228 H 0.44976 0.82291 0.83205 0.0
H229 H 0.48502 0.89636 0.83849 0.0
H230 H 0.37004 0.8942 0.83627 0.0
H231 H 0.33413 0.82002 0.82956 0.0
H232 H 0.42921 0.94985 0.80495 0.0
H233 H 0.49493 0.96852 0.89456 0.0
H234 H 0.50509 0.93638 0.87584 0.0
H235 H 0.4533 0.92045 0.88416 0.0
C236 C 0.43173 0.83781 0.83328 0.0
C237 C 0.38909 0.8156 0.83012 0.0
C238 C 0.452 0.87984 0.83722 0.0
C239 C 0.43015 0.90068 0.83818 0.0
C240 C 0.3874 0.87854 0.8358 0.0
H241 H 0.5185 0.16122 0.82762 0.0
H242 H 0.47675 0.08796 0.83481 0.0
C243 C 0.36694 0.83622 0.832 0.0
C244 C 0.4527 0.94597 0.83888 0.0
H245 H 0.52506 0.02814 0.86967 0.0
C246 C 0.44966 0.96703 0.81927 0.0
C247 C 0.47979 0.96823 0.85744 0.0
C248 C 0.48326 0.94727 0.8793 0.0
C249 C 0.47396 0.00964 0.81732 0.0
C250 C 0.50144 0.0319 0.83575 0.0
C251 C 0.50406 0.01097 0.85556 0.0
C252 C 0.52759 0.07697 0.83451 0.0
C253 C 0.47106 0.03029 0.79513 0.0
C254 C 0.57033 0.09545 0.8332 0.0
C255 C 0.59454 0.13766 0.82929 0.0
C256 C 0.5762 0.16183 0.82657 0.0
C257 C 0.53356 0.14339 0.82922 0.0
C258 C 0.50958 0.10148 0.8333 0.0
H259 H 0.45651 0.00823 0.78043 0.0
H260 H 0.45217 0.04456 0.79875 0.0
H261 H 0.50176 0.05469 0.78926 0.0
H262 H 0.5848 0.07699 0.83426 0.0
H263 H 0.62728 0.15099 0.82739 0.0
H264 H 0.38296 0.55612 0.13285 0.0
H265 H 0.41641 0.51764 0.14285 0.0
H266 H 0.47676 0.59843 0.20149 0.0
H267 H 0.44423 0.63861 0.1908 0.0
H268 H 0.52809 0.58288 0.17986 0.0
H269 H 0.38844 0.43475 0.19319 0.0
H270 H 0.38595 0.45356 0.16456 0.0
H271 H 0.38717 0.48168 0.1906 0.0
C272 C 0.40318 0.56571 0.14797 0.0
C273 C 0.41064 0.60018 0.1612 0.0
C274 C 0.42198 0.54332 0.15385 0.0
C275 C 0.4479 0.55406 0.17349 0.0
C276 C 0.4563 0.58911 0.18649 0.0
H277 H 0.52822 0.37273 0.18953 0.0
H278 H 0.49773 0.41436 0.20088 0.0
C279 C 0.43789 0.61213 0.18033 0.0
C280 C 0.46779 0.5297 0.17913 0.0
H281 H 0.44827 0.43125 0.17957 0.0
C282 C 0.51057 0.54974 0.18037 0.0
C283 C 0.44514 0.48646 0.18075 0.0
C284 C 0.39912 0.46303 0.1825 0.0
C285 C 0.53127 0.52762 0.18089 0.0
C286 C 0.50864 0.4844 0.17912 0.0
C287 C 0.46584 0.46437 0.18022 0.0
C288 C 0.52848 0.45998 0.17352 0.0
C289 C 0.57724 0.55102 0.18285 0.0
C290 C 0.55513 0.47114 0.15412 0.0
C291 C 0.57286 0.44791 0.14789 0.0
C292 C 0.56355 0.41217 0.16048 0.0
C293 C 0.53598 0.40015 0.17953 0.0
C294 C 0.5187 0.42399 0.18606 0.0
H295 H 0.58763 0.57888 0.19378 0.0
H296 H 0.58905 0.53211 0.19079 0.0
H297 H 0.5908 0.56119 0.16499 0.0
H298 H 0.5618 0.49759 0.14344 0.0
H299 H 0.59342 0.45766 0.13286 0.0
H300 H 0.57147 0.33662 0.86708 0.0
H301 H 0.56694 0.34738 0.90938 0.0
H302 H 0.68915 0.36881 0.91925 0.0
H303 H 0.69414 0.35855 0.87717 0.0
H304 H 0.5729 0.2952 0.94187 0.0
H305 H 0.68836 0.45617 0.96131 0.0
H306 H 0.66903 0.43872 0.93189 0.0
H307 H 0.70808 0.43019 0.94399 0.0
C308 C 0.59781 0.34482 0.87813 0.0
C309 C 0.63302 0.34636 0.86882 0.0
C310 C 0.59514 0.3509 0.90229 0.0
C311 C 0.62781 0.35916 0.91739 0.0
C312 C 0.66388 0.36322 0.90786 0.0
H313 H 0.66851 0.34194 0.06562 0.0
H314 H 0.67388 0.35308 0.02273 0.0
C315 C 0.66651 0.35699 0.8838 0.0
C316 C 0.62232 0.35752 0.94332 0.0
H317 H 0.66449 0.40985 -0.00569 0.0
C318 C 0.59245 0.32048 0.95335 0.0
C319 C 0.64829 0.39038 0.95819 0.0
C320 C 0.68001 0.43125 0.94831 0.0
C321 C 0.58872 0.31485 0.97789 0.0
C322 C 0.61504 0.34752 -0.0072 0.0
C323 C 0.64446 0.38487 -0.0172 0.0
C324 C 0.61263 0.34307 0.01881 0.0
C325 C 0.55768 0.27347 -0.01239 0.0
C326 C 0.57672 0.3345 0.03076 0.0
C327 C 0.57345 0.32779 0.0551 0.0
C328 C 0.60623 0.32999 0.06802 0.0
C329 C 0.64268 0.33982 0.05612 0.0
C330 C 0.64584 0.34633 0.03167 0.0
H331 H 0.54739 0.24919 0.97398 0.0
H332 H 0.57037 0.2648 0.00279 0.0
H333 H 0.53048 0.2746 -0.00612 0.0
H334 H 0.55105 0.33265 0.0212 0.0
H335 H 0.54511 0.32074 0.06378 0.0
H336 H 0.30912 0.7119 0.21023 0.0
H337 H 0.29884 0.71078 0.25289 0.0
H338 H 0.22497 0.57931 0.25138 0.0
H339 H 0.23465 0.58014 0.20847 0.0
H340 H 0.20054 0.62325 0.28606 0.0
H341 H 0.36416 0.66528 0.28936 0.0
H342 H 0.35293 0.69832 0.27204 0.0
H343 H 0.3339 0.64643 0.26287 0.0
C344 C 0.28974 0.6828 0.21887 0.0
C345 C 0.27325 0.64602 0.20614 0.0
C346 C 0.28392 0.68226 0.24321 0.0
C347 C 0.2619 0.64495 0.25521 0.0
C348 C 0.2422 0.6084 0.24233 0.0
H349 H 0.23378 0.55371 0.39629 0.0
H350 H 0.22586 0.56637 0.35494 0.0
C351 C 0.24771 0.60892 0.21785 0.0
C352 C 0.26438 0.64375 0.28119 0.0
H353 H 0.33108 0.65808 0.32563 0.0
C354 C 0.22904 0.63103 0.2948 0.0
C355 C 0.30171 0.65396 0.2924 0.0
C356 C 0.34034 0.66648 0.27848 0.0
C357 C 0.23009 0.62825 0.31952 0.0
C358 C 0.26728 0.6377 0.33067 0.0
C359 C 0.3027 0.65112 0.31702 0.0
C360 C 0.26984 0.63114 0.35623 0.0
C361 C 0.19147 0.61538 0.33345 0.0
C362 C 0.29799 0.66321 0.37056 0.0
C363 C 0.30304 0.65598 0.39422 0.0
C364 C 0.28015 0.61647 0.40383 0.0
C365 C 0.2518 0.58454 0.38944 0.0
C366 C 0.24686 0.59178 0.36585 0.0
H367 H 0.17001 0.62198 0.32361 0.0
H368 H 0.17584 0.58193 0.33669 0.0
H369 H 0.19825 0.6311 0.3508 0.0
H370 H 0.31635 0.69373 0.36334 0.0
H371 H 0.32504 0.68117 0.40489 0.0
H372 H 0.67704 0.24601 0.72575 0.0
H373 H 0.66 0.23898 0.68381 0.0
H374 H 0.60865 0.31749 0.69219 0.0
H375 H 0.62637 0.32537 0.73427 0.0
H376 H 0.58533 0.20994 0.66053 0.0
H377 H 0.69359 0.37362 0.63993 0.0
H378 H 0.69452 0.35052 0.66767 0.0
H379 H 0.65641 0.36468 0.66238 0.0
C380 C 0.66215 0.26185 0.71871 0.0
C381 C 0.65343 0.28662 0.73326 0.0
C382 C 0.65225 0.25761 0.69476 0.0
C383 C 0.63346 0.27802 0.68488 0.0
C384 C 0.62377 0.30201 0.69944 0.0
H385 H 0.60156 0.31465 0.5373 0.0
H386 H 0.5883 0.30462 0.57969 0.0
C387 C 0.63388 0.30647 0.72344 0.0
C388 C 0.62559 0.27521 0.65916 0.0
H389 H 0.65461 0.33189 0.60852 0.0
C390 C 0.6002 0.2366 0.64912 0.0
C391 C 0.64519 0.31005 0.64438 0.0
C392 C 0.67424 0.35204 0.65403 0.0
C393 C 0.59408 0.23189 0.62458 0.0
C394 C 0.61427 0.26665 0.60982 0.0
C395 C 0.63892 0.30531 0.61994 0.0
C396 C 0.61268 0.26403 0.58371 0.0
C397 C 0.56618 0.18988 0.61469 0.0
C398 C 0.6291 0.24301 0.57174 0.0
C399 C 0.63645 0.24844 0.54739 0.0
C400 C 0.62807 0.2755 0.53484 0.0
C401 C 0.60865 0.29387 0.54657 0.0
C402 C 0.60102 0.28817 0.57078 0.0
H403 H 0.54414 0.16916 0.62821 0.0
H404 H 0.5489 0.19136 0.59924 0.0
H405 H 0.58481 0.17636 0.60879 0.0
H406 H 0.639 0.2248 0.58144 0.0
H407 H 0.65167 0.23411 0.53884 0.0
H408 H 0.40531 0.65765 0.87923 0.0
H409 H 0.40158 0.64769 0.92206 0.0
H410 H 0.27033 0.59149 0.91941 0.0
H411 H 0.27388 0.60209 0.87673 0.0
H412 H 0.3059 0.65891 0.94706 0.0
H413 H 0.36573 0.55655 0.97072 0.0
H414 H 0.39866 0.59689 0.95088 0.0
H415 H 0.34848 0.55877 0.94128 0.0
C416 C 0.37558 0.64188 0.88767 0.0
C417 C 0.33994 0.63115 0.87472 0.0
C418 C 0.37346 0.63604 0.91215 0.0
C419 C 0.33564 0.61877 0.9239 0.0
C420 C 0.29979 0.60487 0.91067 0.0
H421 H 0.2881 0.63997 0.07373 0.0
H422 H 0.27784 0.61875 0.03221 0.0
C423 C 0.3019 0.61102 0.8863 0.0
C424 C 0.33408 0.62172 0.94989 0.0
H425 H 0.36507 0.59972 0.0017 0.0
C426 C 0.31815 0.64533 0.95907 0.0
C427 C 0.35038 0.60427 0.96542 0.0
C428 C 0.36643 0.57737 0.95661 0.0
C429 C 0.31962 0.65345 -0.01672 0.0
C430 C 0.33686 0.63687 -0.00123 0.0
C431 C 0.3518 0.61231 -0.01028 0.0
C432 C 0.34238 0.64729 0.02415 0.0
C433 C 0.30453 0.68131 -0.00809 0.0
C434 C 0.38197 0.66958 0.03337 0.0
C435 C 0.38789 0.68158 0.05698 0.0
C436 C 0.35429 0.67144 0.07182 0.0
C437 C 0.31457 0.64859 0.06264 0.0
C438 C 0.30867 0.63645 0.03897 0.0
H439 H 0.3001 0.69817 0.97717 0.0
H440 H 0.27472 0.6628 0.00099 0.0
H441 H 0.3263 0.70388 0.00475 0.0
H442 H 0.40835 0.67828 0.02217 0.0
H443 H 0.41888 0.69901 0.06355 0.0
H444 H 0.65754 0.30263 0.39621 0.0
H445 H 0.66756 0.30129 0.35347 0.0
H446 H 0.76728 0.42584 0.35592 0.0
H447 H 0.75716 0.42768 0.39834 0.0
H448 H 0.70938 0.41366 0.32295 0.0
H449 H 0.75576 0.29663 0.31374 0.0
H450 H 0.70981 0.2797 0.33066 0.0
H451 H 0.75742 0.32064 0.34161 0.0
C452 C 0.68188 0.32952 0.38766 0.0
C453 C 0.70636 0.36532 0.4006 0.0
C454 C 0.68781 0.32861 0.3633 0.0
C455 C 0.71854 0.36332 0.35162 0.0
C456 C 0.74357 0.39868 0.36463 0.0
H457 H 0.74875 0.41857 0.19951 0.0
H458 H 0.76704 0.42173 0.24136 0.0
C459 C 0.73761 0.39967 0.38887 0.0
C460 C 0.72204 0.36429 0.32555 0.0
H461 H 0.73506 0.316 0.27831 0.0
C462 C 0.71563 0.39276 0.31317 0.0
C463 C 0.73022 0.33697 0.31293 0.0
C464 C 0.73909 0.30699 0.3254 0.0
C465 C 0.71527 0.39343 0.28842 0.0
C466 C 0.72235 0.36537 0.27574 0.0
C467 C 0.72997 0.33766 0.28811 0.0
C468 C 0.71701 0.36129 0.24981 0.0
C469 C 0.70514 0.42273 0.27611 0.0
C470 C 0.68439 0.32544 0.24056 0.0
C471 C 0.67407 0.32345 0.21678 0.0
C472 C 0.69623 0.35732 0.20178 0.0
C473 C 0.73091 0.39211 0.21066 0.0
C474 C 0.74127 0.39404 0.23456 0.0
H475 H 0.69311 0.43686 0.28856 0.0
H476 H 0.73318 0.44763 0.26774 0.0
H477 H 0.68212 0.40687 0.26202 0.0
H478 H 0.66544 0.29976 0.25201 0.0
H479 H 0.6475 0.29596 0.21045 0.0
H480 H 0.27131 0.68062 0.72469 0.0
H481 H 0.29313 0.6901 0.68349 0.0
H482 H 0.40964 0.70533 0.70466 0.0
H483 H 0.38635 0.69267 0.74595 0.0
H484 H 0.35033 0.75168 0.66143 0.0
H485 H 0.38292 0.62406 0.65434 0.0
H486 H 0.35862 0.63059 0.67998 0.0
H487 H 0.41297 0.66214 0.67584 0.0
C488 C 0.30135 0.68541 0.72046 0.0
C489 C 0.327 0.68538 0.73828 0.0
C490 C 0.31397 0.69113 0.69696 0.0
C491 C 0.35294 0.69804 0.69083 0.0
C492 C 0.37903 0.69888 0.70878 0.0
H493 H 0.38526 0.74629 0.53634 0.0
H494 H 0.40396 0.76111 0.57825 0.0
C495 C 0.36582 0.6918 0.73233 0.0
C496 C 0.3652 0.70401 0.66555 0.0
H497 H 0.38975 0.66134 0.62 0.0
C498 C 0.35921 0.73209 0.65234 0.0
C499 C 0.37744 0.67889 0.65379 0.0
C500 C 0.38308 0.64701 0.66663 0.0
C501 C 0.36108 0.73298 0.62758 0.0
C502 C 0.37147 0.7065 0.61575 0.0
C503 C 0.38153 0.68141 0.62912 0.0
C504 C 0.36483 0.6986 0.59 0.0
C505 C 0.34865 0.75983 0.61445 0.0
C506 C 0.33831 0.65842 0.58253 0.0
C507 C 0.32876 0.64983 0.55877 0.0
C508 C 0.34486 0.68132 0.54186 0.0
C509 C 0.37209 0.72155 0.54911 0.0
C510 C 0.38255 0.73004 0.57302 0.0
H511 H 0.33396 0.77218 0.62627 0.0
H512 H 0.37614 0.78616 0.60656 0.0
H513 H 0.32698 0.74262 0.6 0.0
H514 H 0.324 0.6336 0.59521 0.0
H515 H 0.30752 0.61852 0.55378 0.0
loop_
_geom_bond_atom_site_label_1
_geom_bond_atom_site_label_2
_geom_bond_distance
_geom_bond_site_symmetry_2
_ccdc_geom_bond_type
C0 O1 1.306 . S
C0 O3 1.160 . S
O1 C0 1.306 . S
O1 Cd2 2.228 . S
Cd2 O1 2.228 . S
Cd2 O6 2.273 . S
Cd2 O10 2.277 . S
O3 C0 1.160 . S
O3 Cd4 2.203 . S
Cd4 O3 2.203 . S
Cd4 O6 2.411 . S
Cd4 O7 2.333 . S
Cd4 O8 2.352 . S
Cd4 O12 2.277 . S
Cd4 O13 2.356 . S
C5 O10 1.209 . S
C5 O12 1.226 . S
O6 Cd2 2.273 . S
O6 Cd4 2.411 . S
O6 C9 1.320 . S
O7 Cd4 2.333 . S
O7 C9 1.214 . S
O8 Cd4 2.352 . S
O8 C11 1.258 . S
C9 O6 1.320 . S
C9 O7 1.214 . S
O10 Cd2 2.277 . S
O10 C5 1.209 . S
C11 O8 1.258 . S
C11 O13 1.282 . S
O12 Cd4 2.277 . S
O12 C5 1.226 . S
O13 Cd4 2.356 . S
O13 C11 1.282 . S
C14 O15 1.306 . S
C14 O17 1.160 . S
O15 C14 1.306 . S
O15 Cd16 2.228 . S
Cd16 O15 2.228 . S
Cd16 O20 2.273 . S
Cd16 O24 2.277 . S
O17 C14 1.160 . S
O17 Cd18 2.203 . S
Cd18 O17 2.203 . S
Cd18 O20 2.411 . S
Cd18 O21 2.333 . S
Cd18 O22 2.352 . S
Cd18 O26 2.277 . S
Cd18 O27 2.356 . S
C19 O24 1.209 . S
C19 O26 1.226 . S
O20 Cd16 2.273 . S
O20 Cd18 2.411 . S
O20 C23 1.320 . S
O21 Cd18 2.333 . S
O21 C23 1.214 . S
O22 Cd18 2.352 . S
O22 C25 1.258 . S
C23 O20 1.320 . S
C23 O21 1.214 . S
O24 Cd16 2.277 . S
O24 C19 1.209 . S
C25 O22 1.258 . S
C25 O27 1.282 . S
O26 Cd18 2.277 . S
O26 C19 1.226 . S
O27 Cd18 2.356 . S
O27 C25 1.282 . S
C28 O29 1.306 . S
C28 O31 1.160 . S
O29 C28 1.306 . S
O29 Cd30 2.228 . S
Cd30 O29 2.228 . S
Cd30 O34 2.273 . S
Cd30 O38 2.277 . S
O31 C28 1.160 . S
O31 Cd32 2.203 . S
Cd32 O31 2.203 . S
Cd32 O34 2.411 . S
Cd32 O35 2.333 . S
Cd32 O36 2.352 . S
Cd32 O40 2.277 . S
Cd32 O41 2.356 . S
C33 O38 1.209 . S
C33 O40 1.226 . S
O34 Cd30 2.273 . S
O34 Cd32 2.411 . S
O34 C37 1.320 . S
O35 Cd32 2.333 . S
O35 C37 1.214 . S
O36 Cd32 2.352 . S
O36 C39 1.258 . S
C37 O34 1.320 . S
C37 O35 1.214 . S
O38 Cd30 2.277 . S
O38 C33 1.209 . S
C39 O36 1.258 . S
C39 O41 1.282 . S
O40 Cd32 2.277 . S
O40 C33 1.226 . S
O41 Cd32 2.356 . S
O41 C39 1.282 . S
C42 O43 1.306 . S
C42 O45 1.160 . S
O43 C42 1.306 . S
O43 Cd44 2.228 . S
Cd44 O43 2.228 . S
Cd44 O48 2.273 . S
Cd44 O52 2.277 . S
O45 C42 1.160 . S
O45 Cd46 2.203 . S
Cd46 O45 2.203 . S
Cd46 O48 2.411 . S
Cd46 O49 2.333 . S
Cd46 O50 2.352 . S
Cd46 O54 2.277 . S
Cd46 O55 2.356 . S
C47 O52 1.209 . S
C47 O54 1.226 . S
O48 Cd44 2.273 . S
O48 Cd46 2.411 . S
O48 C51 1.320 . S
O49 Cd46 2.333 . S
O49 C51 1.214 . S
O50 Cd46 2.352 . S
O50 C53 1.258 . S
C51 O48 1.320 . S
C51 O49 1.214 . S
O52 Cd44 2.277 . S
O52 C47 1.209 . S
C53 O50 1.258 . S
C53 O55 1.282 . S
O54 Cd46 2.277 . S
O54 C47 1.226 . S
O55 Cd46 2.356 . S
O55 C53 1.282 . S
C56 O57 1.306 . S
C56 O59 1.160 . S
O57 C56 1.306 . S
O57 Cd58 2.228 . S
Cd58 O57 2.228 . S
Cd58 O62 2.273 . S
Cd58 O66 2.277 . S
O59 C56 1.160 . S
O59 Cd60 2.203 . S
Cd60 O59 2.203 . S
Cd60 O62 2.411 . S
Cd60 O63 2.333 . S
Cd60 O64 2.352 . S
Cd60 O68 2.277 . S
Cd60 O69 2.356 . S
C61 O66 1.209 . S
C61 O68 1.226 . S
O62 Cd58 2.273 . S
O62 Cd60 2.411 . S
O62 C65 1.320 . S
O63 Cd60 2.333 . S
O63 C65 1.214 . S
O64 Cd60 2.352 . S
O64 C67 1.258 . S
C65 O62 1.320 . S
C65 O63 1.214 . S
O66 Cd58 2.277 . S
O66 C61 1.209 . S
C67 O64 1.258 . S
C67 O69 1.282 . S
O68 Cd60 2.277 . S
O68 C61 1.226 . S
O69 Cd60 2.356 . S
O69 C67 1.282 . S
C70 O71 1.306 . S
C70 O73 1.160 . S
O71 C70 1.306 . S
O71 Cd72 2.228 . S
Cd72 O71 2.228 . S
Cd72 O76 2.273 . S
Cd72 O80 2.277 . S
O73 C70 1.160 . S
O73 Cd74 2.203 . S
Cd74 O73 2.203 . S
Cd74 O76 2.411 . S
Cd74 O77 2.333 . S
Cd74 O78 2.352 . S
Cd74 O82 2.277 . S
Cd74 O83 2.356 . S
C75 O80 1.209 . S
C75 O82 1.226 . S
O76 Cd72 2.273 . S
O76 Cd74 2.411 . S
O76 C79 1.320 . S
O77 Cd74 2.333 . S
O77 C79 1.214 . S
O78 Cd74 2.352 . S
O78 C81 1.258 . S
C79 O76 1.320 . S
C79 O77 1.214 . S
O80 Cd72 2.277 . S
O80 C75 1.209 . S
C81 O78 1.258 . S
C81 O83 1.282 . S
O82 Cd74 2.277 . S
O82 C75 1.226 . S
O83 Cd74 2.356 . S
O83 C81 1.282 . S
H84 C92 0.929 . S
H85 C94 0.930 . S
H86 C96 0.930 . S
H87 C99 0.929 . S
H88 C102 0.930 . S
H89 C104 0.960 . S
H90 C104 0.960 . S
H91 C104 0.960 . S
C92 H84 0.929 . S
C92 C93 1.377 . S
C92 C94 1.384 . S
C93 C92 1.377 . S
C93 C99 1.390 . S
C94 H85 0.930 . S
C94 C92 1.384 . S
C94 C95 1.372 . S
C95 C94 1.372 . S
C95 C96 1.400 . S
C95 C100 1.490 . S
C96 H86 0.930 . S
C96 C95 1.400 . S
C96 C99 1.386 . S
H97 C113 0.930 . S
H98 C114 0.931 . S
C99 H87 0.929 . S
C99 C93 1.390 . S
C99 C96 1.386 . S
C100 C95 1.490 . S
C100 C102 1.395 . S
C100 C103 1.403 . S
H101 C107 0.930 . S
C102 H88 0.930 . S
C102 C100 1.395 . S
C102 C105 1.403 1_545 S
C103 C100 1.403 . S
C103 C104 1.524 . S
C103 C107 1.400 1_545 S
C104 H89 0.960 . S
C104 H90 0.960 . S
C104 H91 0.960 . S
C104 C103 1.524 . S
C105 C102 1.403 1_565 S
C105 C106 1.392 . S
C105 C109 1.495 . S
C106 C105 1.392 . S
C106 C107 1.385 . S
C106 C108 1.478 . S
C107 H101 0.930 . S
C107 C103 1.400 1_565 S
C107 C106 1.385 . S
C108 C106 1.478 . S
C108 C110 1.381 . S
C108 C114 1.383 . S
C109 C105 1.495 . S
C109 H115 0.959 . S
C109 H116 0.961 . S
C109 H117 0.960 . S
C110 C108 1.381 . S
C110 C111 1.394 . S
C110 H118 0.930 . S
C111 C110 1.394 . S
C111 C112 1.383 . S
C111 H119 0.929 . S
C112 C111 1.383 . S
C112 C113 1.377 . S
C113 H97 0.930 . S
C113 C112 1.377 . S
C113 C114 1.379 . S
C114 H98 0.931 . S
C114 C108 1.383 . S
C114 C113 1.379 . S
H115 C109 0.959 . S
H116 C109 0.961 . S
H117 C109 0.960 . S
H118 C110 0.930 . S
H119 C111 0.929 . S
H120 C128 0.929 . S
H121 C130 0.930 . S
H122 C132 0.930 . S
H123 C135 0.929 . S
H124 C138 0.930 . S
H125 C140 0.960 . S
H126 C140 0.960 . S
H127 C140 0.960 . S
C128 H120 0.929 . S
C128 C129 1.377 . S
C128 C130 1.384 . S
C129 C128 1.377 . S
C129 C135 1.390 . S
C130 H121 0.930 . S
C130 C128 1.384 . S
C130 C131 1.372 . S
C131 C130 1.372 . S
C131 C132 1.400 . S
C131 C136 1.490 . S
C132 H122 0.930 . S
C132 C131 1.400 . S
C132 C135 1.386 . S
H133 C149 0.930 . S
H134 C150 0.931 . S
C135 H123 0.929 . S
C135 C129 1.390 . S
C135 C132 1.386 . S
C136 C131 1.490 . S
C136 C138 1.395 . S
C136 C139 1.403 . S
H137 C143 0.930 . S
C138 H124 0.930 . S
C138 C136 1.395 . S
C138 C141 1.403 . S
C139 C136 1.403 . S
C139 C140 1.524 . S
C139 C143 1.400 . S
C140 H125 0.960 . S
C140 H126 0.960 . S
C140 H127 0.960 . S
C140 C139 1.524 . S
C141 C138 1.403 . S
C141 C142 1.392 . S
C141 C145 1.495 . S
C142 C141 1.392 . S
C142 C143 1.385 . S
C142 C144 1.478 . S
C143 H137 0.930 . S
C143 C139 1.400 . S
C143 C142 1.385 . S
C144 C142 1.478 . S
C144 C146 1.381 . S
C144 C150 1.383 . S
C145 C141 1.495 . S
C145 H151 0.959 . S
C145 H152 0.961 . S
C145 H153 0.960 . S
C146 C144 1.381 . S
C146 C147 1.394 . S
C146 H154 0.930 . S
C147 C146 1.394 . S
C147 C148 1.383 . S
C147 H155 0.929 . S
C148 C147 1.383 . S
C148 C149 1.377 . S
C149 H133 0.930 . S
C149 C148 1.377 . S
C149 C150 1.379 . S
C150 H134 0.931 . S
C150 C144 1.383 . S
C150 C149 1.379 . S
H151 C145 0.959 . S
H152 C145 0.961 . S
H153 C145 0.960 . S
H154 C146 0.930 . S
H155 C147 0.929 . S
H156 C164 0.929 . S
H157 C166 0.930 . S
H158 C168 0.930 . S
H159 C171 0.929 . S
H160 C174 0.930 . S
H161 C176 0.960 1_455 S
H162 C176 0.960 . S
H163 C176 0.960 . S
C164 H156 0.929 . S
C164 C165 1.377 . S
C164 C166 1.384 . S
C165 C164 1.377 . S
C165 C171 1.390 . S
C166 H157 0.930 . S
C166 C164 1.384 . S
C166 C167 1.372 . S
C167 C166 1.372 . S
C167 C168 1.400 . S
C167 C172 1.490 . S
C168 H158 0.930 . S
C168 C167 1.400 . S
C168 C171 1.386 . S
H169 C185 0.930 . S
H170 C186 0.931 . S
C171 H159 0.929 . S
C171 C165 1.390 . S
C171 C168 1.386 . S
C172 C167 1.490 . S
C172 C174 1.395 . S
C172 C175 1.403 . S
H173 C179 0.930 . S
C174 H160 0.930 . S
C174 C172 1.395 . S
C174 C177 1.403 1_655 S
C175 C172 1.403 . S
C175 C176 1.524 . S
C175 C179 1.400 1_655 S
C176 H161 0.960 1_655 S
C176 H162 0.960 . S
C176 H163 0.960 . S
C176 C175 1.524 . S
C177 C174 1.403 1_455 S
C177 C178 1.392 . S
C177 C181 1.495 . S
C178 C177 1.392 . S
C178 C179 1.385 . S
C178 C180 1.478 . S
C179 H173 0.930 . S
C179 C175 1.400 1_455 S
C179 C178 1.385 . S
C180 C178 1.478 . S
C180 C182 1.381 . S
C180 C186 1.383 . S
C181 C177 1.495 . S
C181 H187 0.959 1_455 S
C181 H188 0.961 . S
C181 H189 0.960 . S
C182 C180 1.381 . S
C182 C183 1.394 . S
C182 H190 0.930 . S
C183 C182 1.394 . S
C183 C184 1.383 . S
C183 H191 0.929 . S
C184 C183 1.383 . S
C184 C185 1.377 . S
C185 H169 0.930 . S
C185 C184 1.377 . S
C185 C186 1.379 . S
C186 H170 0.931 . S
C186 C180 1.383 . S
C186 C185 1.379 . S
H187 C181 0.959 1_655 S
H188 C181 0.961 . S
H189 C181 0.960 . S
H190 C182 0.930 . S
H191 C183 0.929 . S
H192 C200 0.929 . S
H193 C202 0.930 . S
H194 C204 0.930 . S
H195 C207 0.929 . S
H196 C210 0.930 . S
H197 C212 0.960 . S
H198 C212 0.960 . S
H199 C212 0.960 . S
C200 H192 0.929 . S
C200 C201 1.377 . S
C200 C202 1.384 . S
C201 C200 1.377 . S
C201 C207 1.390 . S
C202 H193 0.930 . S
C202 C200 1.384 . S
C202 C203 1.372 . S
C203 C202 1.372 . S
C203 C204 1.400 . S
C203 C208 1.490 . S
C204 H194 0.930 . S
C204 C203 1.400 . S
C204 C207 1.386 . S
H205 C221 0.930 . S
H206 C222 0.931 . S
C207 H195 0.929 . S
C207 C201 1.390 . S
C207 C204 1.386 . S
C208 C203 1.490 . S
C208 C210 1.395 . S
C208 C211 1.403 . S
H209 C215 0.930 . S
C210 H196 0.930 . S
C210 C208 1.395 . S
C210 C213 1.403 1_455 S
C211 C208 1.403 . S
C211 C212 1.524 . S
C211 C215 1.400 1_455 S
C212 H197 0.960 . S
C212 H198 0.960 . S
C212 H199 0.960 . S
C212 C211 1.524 . S
C213 C210 1.403 1_655 S
C213 C214 1.392 . S
C213 C217 1.495 . S
C214 C213 1.392 . S
C214 C215 1.385 . S
C214 C216 1.478 . S
C215 H209 0.930 . S
C215 C211 1.400 1_655 S
C215 C214 1.385 . S
C216 C214 1.478 . S
C216 C218 1.381 . S
C216 C222 1.383 . S
C217 C213 1.495 . S
C217 H223 0.959 . S
C217 H224 0.961 . S
C217 H225 0.960 . S
C218 C216 1.381 . S
C218 C219 1.394 . S
C218 H226 0.930 . S
C219 C218 1.394 . S
C219 C220 1.383 . S
C219 H227 0.929 . S
C220 C219 1.383 . S
C220 C221 1.377 . S
C221 H205 0.930 . S
C221 C220 1.377 . S
C221 C222 1.379 . S
C222 H206 0.931 . S
C222 C216 1.383 . S
C222 C221 1.379 . S
H223 C217 0.959 . S
H224 C217 0.961 . S
H225 C217 0.960 . S
H226 C218 0.930 . S
H227 C219 0.929 . S
H228 C236 0.929 . S
H229 C238 0.930 . S
H230 C240 0.930 . S
H231 C243 0.929 . S
H232 C246 0.930 . S
H233 C248 0.960 . S
H234 C248 0.960 . S
H235 C248 0.960 . S
C236 H228 0.929 . S
C236 C237 1.377 . S
C236 C238 1.384 . S
C237 C236 1.377 . S
C237 C243 1.390 . S
C238 H229 0.930 . S
C238 C236 1.384 . S
C238 C239 1.372 . S
C239 C238 1.372 . S
C239 C240 1.400 . S
C239 C244 1.490 . S
C240 H230 0.930 . S
C240 C239 1.400 . S
C240 C243 1.386 . S
H241 C257 0.930 . S
H242 C258 0.931 . S
C243 H231 0.929 . S
C243 C237 1.390 . S
C243 C240 1.386 . S
C244 C239 1.490 . S
C244 C246 1.395 . S
C244 C247 1.403 . S
H245 C251 0.930 . S
C246 H232 0.930 . S
C246 C244 1.395 . S
C246 C249 1.403 1_565 S
C247 C244 1.403 . S
C247 C248 1.524 . S
C247 C251 1.400 1_565 S
C248 H233 0.960 . S
C248 H234 0.960 . S
C248 H235 0.960 . S
C248 C247 1.524 . S
C249 C246 1.403 1_545 S
C249 C250 1.392 . S
C249 C253 1.495 . S
C250 C249 1.392 . S
C250 C251 1.385 . S
C250 C252 1.478 . S
C251 H245 0.930 . S
C251 C247 1.400 1_545 S
C251 C250 1.385 . S
C252 C250 1.478 . S
C252 C254 1.381 . S
C252 C258 1.383 . S
C253 C249 1.495 . S
C253 H259 0.959 . S
C253 H260 0.961 . S
C253 H261 0.960 . S
C254 C252 1.381 . S
C254 C255 1.394 . S
C254 H262 0.930 . S
C255 C254 1.394 . S
C255 C256 1.383 . S
C255 H263 0.929 . S
C256 C255 1.383 . S
C256 C257 1.377 . S
C257 H241 0.930 . S
C257 C256 1.377 . S
C257 C258 1.379 . S
C258 H242 0.931 . S
C258 C252 1.383 . S
C258 C257 1.379 . S
H259 C253 0.959 . S
H260 C253 0.961 . S
H261 C253 0.960 . S
H262 C254 0.930 . S
H263 C255 0.929 . S
H264 C272 0.929 . S
H265 C274 0.930 . S
H266 C276 0.930 . S
H267 C279 0.929 . S
H268 C282 0.930 . S
H269 C284 0.960 . S
H270 C284 0.960 . S
H271 C284 0.960 . S
C272 H264 0.929 . S
C272 C273 1.377 . S
C272 C274 1.384 . S
C273 C272 1.377 . S
C273 C279 1.390 . S
C274 H265 0.930 . S
C274 C272 1.384 . S
C274 C275 1.372 . S
C275 C274 1.372 . S
C275 C276 1.400 . S
C275 C280 1.490 . S
C276 H266 0.930 . S
C276 C275 1.400 . S
C276 C279 1.386 . S
H277 C293 0.930 . S
H278 C294 0.931 . S
C279 H267 0.929 . S
C279 C273 1.390 . S
C279 C276 1.386 . S
C280 C275 1.490 . S
C280 C282 1.395 . S
C280 C283 1.403 . S
H281 C287 0.930 . S
C282 H268 0.930 . S
C282 C280 1.395 . S
C282 C285 1.403 . S
C283 C280 1.403 . S
C283 C284 1.524 . S
C283 C287 1.400 . S
C284 H269 0.960 . S
C284 H270 0.960 . S
C284 H271 0.960 . S
C284 C283 1.524 . S
C285 C282 1.403 . S
C285 C286 1.392 . S
C285 C289 1.495 . S
C286 C285 1.392 . S
C286 C287 1.385 . S
C286 C288 1.478 . S
C287 H281 0.930 . S
C287 C283 1.400 . S
C287 C286 1.385 . S
C288 C286 1.478 . S
C288 C290 1.381 . S
C288 C294 1.383 . S
C289 C285 1.495 . S
C289 H295 0.959 . S
C289 H296 0.961 . S
C289 H297 0.960 . S
C290 C288 1.381 . S
C290 C291 1.394 . S
C290 H298 0.930 . S
C291 C290 1.394 . S
C291 C292 1.383 . S
C291 H299 0.929 . S
C292 C291 1.383 . S
C292 C293 1.377 . S
C293 H277 0.930 . S
C293 C292 1.377 . S
C293 C294 1.379 . S
C294 H278 0.931 . S
C294 C288 1.383 . S
C294 C293 1.379 . S
H295 C289 0.959 . S
H296 C289 0.961 . S
H297 C289 0.960 . S
H298 C290 0.930 . S
H299 C291 0.929 . S
H300 C308 0.929 . S
H301 C310 0.930 . S
H302 C312 0.930 . S
H303 C315 0.929 . S
H304 C318 0.930 . S
H305 C320 0.960 . S
H306 C320 0.960 . S
H307 C320 0.960 . S
C308 H300 0.929 . S
C308 C309 1.377 . S
C308 C310 1.384 . S
C309 C308 1.377 . S
C309 C315 1.390 . S
C310 H301 0.930 . S
C310 C308 1.384 . S
C310 C311 1.372 . S
C311 C310 1.372 . S
C311 C312 1.400 . S
C311 C316 1.490 . S
C312 H302 0.930 . S
C312 C311 1.400 . S
C312 C315 1.386 . S
H313 C329 0.930 . S
H314 C330 0.931 . S
C315 H303 0.929 . S
C315 C309 1.390 . S
C315 C312 1.386 . S
C316 C311 1.490 . S
C316 C318 1.395 . S
C316 C319 1.403 . S
H317 C323 0.930 . S
C318 H304 0.930 . S
C318 C316 1.395 . S
C318 C321 1.403 1_556 S
C319 C316 1.403 . S
C319 C320 1.524 . S
C319 C323 1.400 1_556 S
C320 H305 0.960 . S
C320 H306 0.960 . S
C320 H307 0.960 . S
C320 C319 1.524 . S
C321 C318 1.403 1_554 S
C321 C322 1.392 . S
C321 C325 1.495 . S
C322 C321 1.392 . S
C322 C323 1.385 . S
C322 C324 1.478 . S
C323 H317 0.930 . S
C323 C319 1.400 1_554 S
C323 C322 1.385 . S
C324 C322 1.478 . S
C324 C326 1.381 . S
C324 C330 1.383 . S
C325 C321 1.495 . S
C325 H331 0.959 . S
C325 H332 0.961 . S
C325 H333 0.960 . S
C326 C324 1.381 . S
C326 C327 1.394 . S
C326 H334 0.930 . S
C327 C326 1.394 . S
C327 C328 1.383 . S
C327 H335 0.929 . S
C328 C327 1.383 . S
C328 C329 1.377 . S
C329 H313 0.930 . S
C329 C328 1.377 . S
C329 C330 1.379 . S
C330 H314 0.931 . S
C330 C324 1.383 . S
C330 C329 1.379 . S
H331 C325 0.959 . S
H332 C325 0.961 . S
H333 C325 0.960 . S
H334 C326 0.930 . S
H335 C327 0.929 . S
H336 C344 0.929 . S
H337 C346 0.930 . S
H338 C348 0.930 . S
H339 C351 0.929 . S
H340 C354 0.930 . S
H341 C356 0.960 . S
H342 C356 0.960 . S
H343 C356 0.960 . S
C344 H336 0.929 . S
C344 C345 1.377 . S
C344 C346 1.384 . S
C345 C344 1.377 . S
C345 C351 1.390 . S
C346 H337 0.930 . S
C346 C344 1.384 . S
C346 C347 1.372 . S
C347 C346 1.372 . S
C347 C348 1.400 . S
C347 C352 1.490 . S
C348 H338 0.930 . S
C348 C347 1.400 . S
C348 C351 1.386 . S
H349 C365 0.930 . S
H350 C366 0.931 . S
C351 H339 0.929 . S
C351 C345 1.390 . S
C351 C348 1.386 . S
C352 C347 1.490 . S
C352 C354 1.395 . S
C352 C355 1.403 . S
H353 C359 0.930 . S
C354 H340 0.930 . S
C354 C352 1.395 . S
C354 C357 1.403 . S
C355 C352 1.403 . S
C355 C356 1.524 . S
C355 C359 1.400 . S
C356 H341 0.960 . S
C356 H342 0.960 . S
C356 H343 0.960 . S
C356 C355 1.524 . S
C357 C354 1.403 . S
C357 C358 1.392 . S
C357 C361 1.495 . S
C358 C357 1.392 . S
C358 C359 1.385 . S
C358 C360 1.478 . S
C359 H353 0.930 . S
C359 C355 1.400 . S
C359 C358 1.385 . S
C360 C358 1.478 . S
C360 C362 1.381 . S
C360 C366 1.383 . S
C361 C357 1.495 . S
C361 H367 0.959 . S
C361 H368 0.961 . S
C361 H369 0.960 . S
C362 C360 1.381 . S
C362 C363 1.394 . S
C362 H370 0.930 . S
C363 C362 1.394 . S
C363 C364 1.383 . S
C363 H371 0.929 . S
C364 C363 1.383 . S
C364 C365 1.377 . S
C365 H349 0.930 . S
C365 C364 1.377 . S
C365 C366 1.379 . S
C366 H350 0.931 . S
C366 C360 1.383 . S
C366 C365 1.379 . S
H367 C361 0.959 . S
H368 C361 0.961 . S
H369 C361 0.960 . S
H370 C362 0.930 . S
H371 C363 0.929 . S
H372 C380 0.929 . S
H373 C382 0.930 . S
H374 C384 0.930 . S
H375 C387 0.929 . S
H376 C390 0.930 . S
H377 C392 0.960 . S
H378 C392 0.960 . S
H379 C392 0.960 . S
C380 H372 0.929 . S
C380 C381 1.377 . S
C380 C382 1.384 . S
C381 C380 1.377 . S
C381 C387 1.390 . S
C382 H373 0.930 . S
C382 C380 1.384 . S
C382 C383 1.372 . S
C383 C382 1.372 . S
C383 C384 1.400 . S
C383 C388 1.490 . S
C384 H374 0.930 . S
C384 C383 1.400 . S
C384 C387 1.386 . S
H385 C401 0.930 . S
H386 C402 0.931 . S
C387 H375 0.929 . S
C387 C381 1.390 . S
C387 C384 1.386 . S
C388 C383 1.490 . S
C388 C390 1.395 . S
C388 C391 1.403 . S
H389 C395 0.930 . S
C390 H376 0.930 . S
C390 C388 1.395 . S
C390 C393 1.403 . S
C391 C388 1.403 . S
C391 C392 1.524 . S
C391 C395 1.400 . S
C392 H377 0.960 . S
C392 H378 0.960 . S
C392 H379 0.960 . S
C392 C391 1.524 . S
C393 C390 1.403 . S
C393 C394 1.392 . S
C393 C397 1.495 . S
C394 C393 1.392 . S
C394 C395 1.385 . S
C394 C396 1.478 . S
C395 H389 0.930 . S
C395 C391 1.400 . S
C395 C394 1.385 . S
C396 C394 1.478 . S
C396 C398 1.381 . S
C396 C402 1.383 . S
C397 C393 1.495 . S
C397 H403 0.959 . S
C397 H404 0.961 . S
C397 H405 0.960 . S
C398 C396 1.381 . S
C398 C399 1.394 . S
C398 H406 0.930 . S
C399 C398 1.394 . S
C399 C400 1.383 . S
C399 H407 0.929 . S
C400 C399 1.383 . S
C400 C401 1.377 . S
C401 H385 0.930 . S
C401 C400 1.377 . S
C401 C402 1.379 . S
C402 H386 0.931 . S
C402 C396 1.383 . S
C402 C401 1.379 . S
H403 C397 0.959 . S
H404 C397 0.961 . S
H405 C397 0.960 . S
H406 C398 0.930 . S
H407 C399 0.929 . S
H408 C416 0.929 . S
H409 C418 0.930 . S
H410 C420 0.930 . S
H411 C423 0.929 . S
H412 C426 0.930 . S
H413 C428 0.960 . S
H414 C428 0.960 . S
H415 C428 0.960 . S
C416 H408 0.929 . S
C416 C417 1.377 . S
C416 C418 1.384 . S
C417 C416 1.377 . S
C417 C423 1.390 . S
C418 H409 0.930 . S
C418 C416 1.384 . S
C418 C419 1.372 . S
C419 C418 1.372 . S
C419 C420 1.400 . S
C419 C424 1.490 . S
C420 H410 0.930 . S
C420 C419 1.400 . S
C420 C423 1.386 . S
H421 C437 0.930 . S
H422 C438 0.931 . S
C423 H411 0.929 . S
C423 C417 1.390 . S
C423 C420 1.386 . S
C424 C419 1.490 . S
C424 C426 1.395 . S
C424 C427 1.403 . S
H425 C431 0.930 . S
C426 H412 0.930 . S
C426 C424 1.395 . S
C426 C429 1.403 1_556 S
C427 C424 1.403 . S
C427 C428 1.524 . S
C427 C431 1.400 1_556 S
C428 H413 0.960 . S
C428 H414 0.960 . S
C428 H415 0.960 . S
C428 C427 1.524 . S
C429 C426 1.403 1_554 S
C429 C430 1.392 . S
C429 C433 1.495 . S
C430 C429 1.392 . S
C430 C431 1.385 . S
C430 C432 1.478 . S
C431 H425 0.930 . S
C431 C427 1.400 1_554 S
C431 C430 1.385 . S
C432 C430 1.478 . S
C432 C434 1.381 . S
C432 C438 1.383 . S
C433 C429 1.495 . S
C433 H439 0.959 . S
C433 H440 0.961 . S
C433 H441 0.960 . S
C434 C432 1.381 . S
C434 C435 1.394 . S
C434 H442 0.930 . S
C435 C434 1.394 . S
C435 C436 1.383 . S
C435 H443 0.929 . S
C436 C435 1.383 . S
C436 C437 1.377 . S
C437 H421 0.930 . S
C437 C436 1.377 . S
C437 C438 1.379 . S
C438 H422 0.931 . S
C438 C432 1.383 . S
C438 C437 1.379 . S
H439 C433 0.959 . S
H440 C433 0.961 . S
H441 C433 0.960 . S
H442 C434 0.930 . S
H443 C435 0.929 . S
H444 C452 0.929 . S
H445 C454 0.930 . S
H446 C456 0.930 . S
H447 C459 0.929 . S
H448 C462 0.930 . S
H449 C464 0.960 . S
H450 C464 0.960 . S
H451 C464 0.960 . S
C452 H444 0.929 . S
C452 C453 1.377 . S
C452 C454 1.384 . S
C453 C452 1.377 . S
C453 C459 1.390 . S
C454 H445 0.930 . S
C454 C452 1.384 . S
C454 C455 1.372 . S
C455 C454 1.372 . S
C455 C456 1.400 . S
C455 C460 1.490 . S
C456 H446 0.930 . S
C456 C455 1.400 . S
C456 C459 1.386 . S
H457 C473 0.930 . S
H458 C474 0.931 . S
C459 H447 0.929 . S
C459 C453 1.390 . S
C459 C456 1.386 . S
C460 C455 1.490 . S
C460 C462 1.395 . S
C460 C463 1.403 . S
H461 C467 0.930 . S
C462 H448 0.930 . S
C462 C460 1.395 . S
C462 C465 1.403 . S
C463 C460 1.403 . S
C463 C464 1.524 . S
C463 C467 1.400 . S
C464 H449 0.960 . S
C464 H450 0.960 . S
C464 H451 0.960 . S
C464 C463 1.524 . S
C465 C462 1.403 . S
C465 C466 1.392 . S
C465 C469 1.495 . S
C466 C465 1.392 . S
C466 C467 1.385 . S
C466 C468 1.478 . S
C467 H461 0.930 . S
C467 C463 1.400 . S
C467 C466 1.385 . S
C468 C466 1.478 . S
C468 C470 1.381 . S
C468 C474 1.383 . S
C469 C465 1.495 . S
C469 H475 0.959 . S
C469 H476 0.961 . S
C469 H477 0.960 . S
C470 C468 1.381 . S
C470 C471 1.394 . S
C470 H478 0.930 . S
C471 C470 1.394 . S
C471 C472 1.383 . S
C471 H479 0.929 . S
C472 C471 1.383 . S
C472 C473 1.377 . S
C473 H457 0.930 . S
C473 C472 1.377 . S
C473 C474 1.379 . S
C474 H458 0.931 . S
C474 C468 1.383 . S
C474 C473 1.379 . S
H475 C469 0.959 . S
H476 C469 0.961 . S
H477 C469 0.960 . S
H478 C470 0.930 . S
H479 C471 0.929 . S
H480 C488 0.929 . S
H481 C490 0.930 . S
H482 C492 0.930 . S
H483 C495 0.929 . S
H484 C498 0.930 . S
H485 C500 0.960 . S
H486 C500 0.960 . S
H487 C500 0.960 . S
C488 H480 0.929 . S
C488 C489 1.377 . S
C488 C490 1.384 . S
C489 C488 1.377 . S
C489 C495 1.390 . S
C490 H481 0.930 . S
C490 C488 1.384 . S
C490 C491 1.372 . S
C491 C490 1.372 . S
C491 C492 1.400 . S
C491 C496 1.490 . S
C492 H482 0.930 . S
C492 C491 1.400 . S
C492 C495 1.386 . S
H493 C509 0.930 . S
H494 C510 0.931 . S
C495 H483 0.929 . S
C495 C489 1.390 . S
C495 C492 1.386 . S
C496 C491 1.490 . S
C496 C498 1.395 . S
C496 C499 1.403 . S
H497 C503 0.930 . S
C498 H484 0.930 . S
C498 C496 1.395 . S
C498 C501 1.403 . S
C499 C496 1.403 . S
C499 C500 1.524 . S
C499 C503 1.400 . S
C500 H485 0.960 . S
C500 H486 0.960 . S
C500 H487 0.960 . S
C500 C499 1.524 . S
C501 C498 1.403 . S
C501 C502 1.392 . S
C501 C505 1.495 . S
C502 C501 1.392 . S
C502 C503 1.385 . S
C502 C504 1.478 . S
C503 H497 0.930 . S
C503 C499 1.400 . S
C503 C502 1.385 . S
C504 C502 1.478 . S
C504 C506 1.381 . S
C504 C510 1.383 . S
C505 C501 1.495 . S
C505 H511 0.959 . S
C505 H512 0.961 . S
C505 H513 0.960 . S
C506 C504 1.381 . S
C506 C507 1.394 . S
C506 H514 0.930 . S
C507 C506 1.394 . S
C507 C508 1.383 . S
C507 H515 0.929 . S
C508 C507 1.383 . S
C508 C509 1.377 . S
C509 H493 0.930 . S
C509 C508 1.377 . S
C509 C510 1.379 . S
C510 H494 0.931 . S
C510 C504 1.383 . S
C510 C509 1.379 . S
H511 C505 0.959 . S
H512 C505 0.961 . S
H513 C505 0.960 . S
H514 C506 0.930 . S
H515 C507 0.929 . S
C93 C11 1.320 . S
C112 C53 1.314 . S
C129 C25 1.319 . S
C148 C67 1.320 . S
C165 C39 1.319 . S
C184 C81 1.317 . S
C201 C19 1.546 . S
C220 C61 1.537 . S
C237 C75 1.545 . S
C256 C33 1.540 . S
C273 C47 1.545 . S
C292 C5 1.537 . S
C309 C28 1.128 . S
C328 C9 1.060 . S
C345 C42 1.125 . S
C364 C23 1.075 . S
C381 C37 1.091 . S
C400 C56 1.140 . S
C417 C70 1.125 . S
C436 C51 1.114 . S
C453 C65 1.105 . S
C472 C0 1.112 . S
C489 C79 1.103 . S
C508 C14 1.122 . S
