# Generated by pormake.
# Topology wkd, (5)-cn, num edge types: 1
# Building blocks:
#     Node 0, Type 0, BuildingBlock: XOMCOT_clean_sbu_1, # of connection points: 5
#     Node 1, Type 0, BuildingBlock: XOMCOT_clean_sbu_1, # of connection points: 5
#     Node 2, Type 0, BuildingBlock: XOMCOT_clean_sbu_1, # of connection points: 5
#     Node 3, Type 0, BuildingBlock: XOMCOT_clean_sbu_1, # of connection points: 5
#     Node 4, Type 0, BuildingBlock: XOMCOT_clean_sbu_1, # of connection points: 5
#     Node 5, Type 0, BuildingBlock: XOMCOT_clean_sbu_1, # of connection points: 5
#     Node 6, Type 0, BuildingBlock: XOMCOT_clean_sbu_1, # of connection points: 5
#     Node 7, Type 0, BuildingBlock: XOMCOT_clean_sbu_1, # of connection points: 5
#     Node 8, Type 0, BuildingBlock: XOMCOT_clean_sbu_1, # of connection points: 5
#     Node 9, Type 0, BuildingBlock: XOMCOT_clean_sbu_1, # of connection points: 5
#     Node 10, Type 0, BuildingBlock: XOMCOT_clean_sbu_1, # of connection points: 5
#     Node 11, Type 0, BuildingBlock: XOMCOT_clean_sbu_1, # of connection points: 5
#     Edge 12, Type (0, 0), BuildingBlock: EZIPEK_clean_linker_0, # of connection points: 2
#     Edge 13, Type (0, 0), BuildingBlock: EZIPEK_clean_linker_0, # of connection points: 2
#     Edge 14, Type (0, 0), BuildingBlock: EZIPEK_clean_linker_0, # of connection points: 2
#     Edge 15, Type (0, 0), BuildingBlock: EZIPEK_clean_linker_0, # of connection points: 2
#     Edge 16, Type (0, 0), BuildingBlock: EZIPEK_clean_linker_0, # of connection points: 2
#     Edge 17, Type (0, 0), BuildingBlock: EZIPEK_clean_linker_0, # of connection points: 2
#     Edge 18, Type (0, 0), BuildingBlock: EZIPEK_clean_linker_0, # of connection points: 2
#     Edge 19, Type (0, 0), BuildingBlock: EZIPEK_clean_linker_0, # of connection points: 2
#     Edge 20, Type (0, 0), BuildingBlock: EZIPEK_clean_linker_0, # of connection points: 2
#     Edge 21, Type (0, 0), BuildingBlock: EZIPEK_clean_linker_0, # of connection points: 2
#     Edge 22, Type (0, 0), BuildingBlock: EZIPEK_clean_linker_0, # of connection points: 2
#     Edge 23, Type (0, 0), BuildingBlock: EZIPEK_clean_linker_0, # of connection points: 2
#     Edge 24, Type (0, 0), BuildingBlock: EZIPEK_clean_linker_0, # of connection points: 2
#     Edge 25, Type (0, 0), BuildingBlock: EZIPEK_clean_linker_0, # of connection points: 2
#     Edge 26, Type (0, 0), BuildingBlock: EZIPEK_clean_linker_0, # of connection points: 2
#     Edge 27, Type (0, 0), BuildingBlock: EZIPEK_clean_linker_0, # of connection points: 2
#     Edge 28, Type (0, 0), BuildingBlock: EZIPEK_clean_linker_0, # of connection points: 2
#     Edge 29, Type (0, 0), BuildingBlock: EZIPEK_clean_linker_0, # of connection points: 2
#     Edge 30, Type (0, 0), BuildingBlock: EZIPEK_clean_linker_0, # of connection points: 2
#     Edge 31, Type (0, 0), BuildingBlock: EZIPEK_clean_linker_0, # of connection points: 2
#     Edge 32, Type (0, 0), BuildingBlock: EZIPEK_clean_linker_0, # of connection points: 2
#     Edge 33, Type (0, 0), BuildingBlock: EZIPEK_clean_linker_0, # of connection points: 2
#     Edge 34, Type (0, 0), BuildingBlock: EZIPEK_clean_linker_0, # of connection points: 2
#     Edge 35, Type (0, 0), BuildingBlock: EZIPEK_clean_linker_0, # of connection points: 2
#     Edge 36, Type (0, 0), BuildingBlock: EZIPEK_clean_linker_0, # of connection points: 2
#     Edge 37, Type (0, 0), BuildingBlock: EZIPEK_clean_linker_0, # of connection points: 2
#     Edge 38, Type (0, 0), BuildingBlock: EZIPEK_clean_linker_0, # of connection points: 2
#     Edge 39, Type (0, 0), BuildingBlock: EZIPEK_clean_linker_0, # of connection points: 2
#     Edge 40, Type (0, 0), BuildingBlock: EZIPEK_clean_linker_0, # of connection points: 2
#     Edge 41, Type (0, 0), BuildingBlock: EZIPEK_clean_linker_0, # of connection points: 2
# Relax obj value: 0.119
# Max RMSD: 0.171
# Mean RMSD: 0.170
data_MOF--net-wkd--node1-XOMCOT_clean_sbu_1--edge1-EZIPEK_clean_linker_0
_symmetry_space_group_name_H-M    P1
_symmetry_Int_Tables_number       1
_symmetry_cell_setting            triclinic
loop_
_symmetry_equiv_pos_as_xyz
'x, y, z'
_cell_length_a     19.521907
_cell_length_b     19.512861
_cell_length_c     84.580834
_cell_angle_alpha  90.055962
_cell_angle_beta   89.913917
_cell_angle_gamma 119.90068
loop_
_atom_site_label
_atom_site_type_symbol
_atom_site_fract_x
_atom_site_fract_y
_atom_site_fract_z
_atom_type_partial_charge
C0 C 0.99806 0.25584 0.08293 0.0
C1 C 1.00413 0.20054 0.09196 0.0
N2 N 0.98616 0.13698 0.08293 0.0
N3 N 0.97506 0.22847 0.06809 0.0
C4 C 0.96842 0.15519 0.06851 0.0
H5 H 1.01001 0.31318 0.08703 0.0
Co6 Co 0.95295 0.29097 0.05325 0.0
C7 C 0.89655 0.14728 0.03178 0.0
O8 O 0.96955 0.16107 0.03115 0.0
N9 N 0.92863 0.35209 0.03947 0.0
C10 C 0.85731 0.38725 0.02465 0.0
C11 C 0.85875 0.32533 0.03202 0.0
C12 C 0.96884 0.43092 0.03647 0.0
N13 N 0.92623 0.45346 0.02749 0.0
O14 O 0.86859 0.28337 0.06743 0.0
H15 H 0.81015 0.26522 0.03251 0.0
H16 H 0.02658 0.47128 0.04128 0.0
O17 O 0.88028 0.19185 0.04047 0.0
C18 C 0.89722 0.35176 0.07408 0.0
O19 O 0.97115 0.40457 0.07111 0.0
N20 N 0.04348 0.31441 0.04057 0.0
C21 C 0.18675 0.3984 0.02404 0.0
C22 C 0.18598 0.38515 0.04033 0.0
C23 C 0.11384 0.34371 0.04838 0.0
C24 C 0.04369 0.32494 0.02454 0.0
C25 C 0.11453 0.36615 0.01606 0.0
H26 H 0.11501 0.34067 0.0611 0.0
H27 H 0.989 0.30681 0.01839 0.0
H28 H 0.94981 0.11478 0.05867 0.0
H29 H 0.02181 0.20705 0.10425 0.0
H30 H 0.80827 0.38459 0.01815 0.0
H31 H 0.24079 0.41037 0.04691 0.0
H32 H 0.11286 0.3764 1.00352 0.0
C33 C 0.78699 0.04988 0.24888 0.0
C34 C 0.84892 0.05753 0.25808 0.0
N35 N 0.86999 1.00511 0.25304 0.0
N36 N 0.76817 0.99268 0.23799 0.0
C37 C 0.81995 0.96633 0.24089 0.0
H38 H 0.75759 0.08417 0.25004 0.0
Co39 Co 0.68438 0.95865 0.22278 0.0
C40 C 0.7507 0.90122 0.19682 0.0
O41 O 0.73921 0.94741 0.18719 0.0
N42 N 0.59709 0.91973 0.20768 0.0
C43 C 0.50879 0.84275 0.18942 0.0
C44 C 0.57599 0.85896 0.19742 0.0
C45 C 0.53591 0.93457 0.20637 0.0
N46 N 0.48242 0.88917 0.19521 0.0
O47 O 0.61301 0.8745 0.23728 0.0
H48 H 0.60286 0.82282 0.19639 0.0
H49 H 0.52817 0.97488 0.21395 0.0
O50 O 0.72884 0.89621 0.21143 0.0
C51 C 0.5794 0.90758 0.24479 0.0
O52 O 0.60178 0.98151 0.24145 0.0
N53 N 0.74796 0.05126 0.21049 0.0
C54 C 0.82999 0.19914 0.19556 0.0
C55 C 0.86858 0.15667 0.19927 0.0
C56 C 0.82667 0.08325 0.20709 0.0
C57 C 0.71219 0.09499 0.2078 0.0
C58 C 0.75121 0.16765 0.20008 0.0
H59 H 0.85754 0.05271 0.21062 0.0
H60 H 0.65382 0.07556 0.21226 0.0
H61 H 0.82152 0.91979 0.23423 0.0
H62 H 0.87708 0.09917 0.26765 0.0
H63 H 0.47782 0.79577 0.1809 0.0
H64 H 0.93033 0.18038 0.19634 0.0
H65 H 0.72031 0.19999 0.19794 0.0
C66 C 0.76845 0.75039 0.41901 0.0
C67 C 0.82425 0.80876 0.42853 0.0
N68 N 0.8909 0.84985 0.42012 0.0
N69 N 0.79854 0.75377 0.40441 0.0
C70 C 0.87415 0.81562 0.40558 0.0
H71 H 0.70907 0.70811 0.42264 0.0
Co72 Co 0.74069 0.67655 0.38797 0.0
C73 C 0.89118 0.76933 0.36789 0.0
O74 O 0.8785 0.82918 0.36677 0.0
N75 N 0.68472 0.59769 0.37197 0.0
C76 C 0.66101 0.52168 0.35056 0.0
C77 C 0.71728 0.58481 0.35893 0.0
C78 C 0.60783 0.53906 0.3713 0.0
N79 N 0.59252 0.49176 0.35848 0.0
O80 O 0.74531 0.59467 0.40088 0.0
H81 H 0.77857 0.61807 0.35552 0.0
H82 H 0.56435 0.5291 0.38028 0.0
O83 O 0.84426 0.7087 0.37636 0.0
C84 C 0.67988 0.55986 0.40871 0.0
O85 O 0.6292 0.58476 0.40671 0.0
N86 N 0.71933 0.74999 0.37674 0.0
C87 C 0.63644 0.81794 0.3626 0.0
C88 C 0.64555 0.81897 0.37902 0.0
C89 C 0.68586 0.78374 0.38582 0.0
C90 C 0.71294 0.75117 0.36063 0.0
C91 C 0.67222 0.78494 0.35335 0.0
H92 H 0.68432 0.77844 0.39849 0.0
H93 H 0.73478 0.72182 0.35323 0.0
H94 H 0.91711 0.83525 0.39619 0.0
H95 H 0.81656 0.82024 0.44075 0.0
H96 H 0.67064 0.49638 0.33997 0.0
H97 H 0.61788 0.843 0.3866 0.0
H98 H 0.66589 0.78231 0.34061 0.0
C99 C 0.05196 0.77658 0.58473 0.0
C100 C 0.04869 0.83421 0.5936 0.0
N101 N 0.05671 0.89208 0.58385 0.0
N102 N 0.06243 0.79729 0.56928 0.0
C103 C 0.06441 0.86823 0.56918 0.0
H104 H 0.04642 0.72273 0.58945 0.0
Co105 Co 0.07088 0.73717 0.55204 0.0
C106 C 0.1474 0.87055 0.52724 0.0
O107 O 0.0862 0.83122 0.51798 0.0
N108 N 0.0806 0.67868 0.53437 0.0
C109 C 0.05769 0.61276 0.51147 0.0
C110 C 0.04239 0.66275 0.52026 0.0
C111 C 0.12193 0.6397 0.53327 0.0
N112 N 0.1067 0.5972 0.51979 0.0
O113 O 0.15451 0.72687 0.56358 0.0
H114 H 1.00247 0.6829 0.5166 0.0
H115 H 0.16182 0.64083 0.54221 0.0
O116 O 0.1484 0.84031 0.54078 0.0
C117 C 0.119 0.6605 0.57124 0.0
O118 O 0.04153 0.62039 0.57072 0.0
N119 N 0.97651 0.72615 0.54322 0.0
C120 C 0.82412 0.65565 0.53035 0.0
C121 C 0.87383 0.73861 0.53006 0.0
C122 C 0.95028 0.77318 0.53678 0.0
C123 C 0.92486 0.64726 0.54516 0.0
C124 C 0.85018 0.61072 0.53843 0.0
H125 H 0.98822 0.83658 0.53639 0.0
H126 H 0.94399 0.61065 0.551 0.0
H127 H 0.07057 0.90165 0.55858 0.0
H128 H 0.04039 0.83345 0.60627 0.0
H129 H 0.03201 0.58686 0.50014 0.0
H130 H 0.85447 0.77573 0.52438 0.0
H131 H 0.81343 0.54706 0.53929 0.0
C132 C 0.29199 0.06104 0.74815 0.0
C133 C 0.23173 0.0595 0.75691 0.0
N134 N 0.18027 0.0639 0.74699 0.0
N135 N 0.28032 0.06766 0.73264 0.0
C136 C 0.2108 0.06843 0.73228 0.0
H137 H 0.33939 0.05356 0.75278 0.0
Co138 Co 0.34593 0.06087 0.71665 0.0
C139 C 0.34575 0.16733 0.68943 0.0
O140 O 0.37206 0.13482 0.6793 0.0
N141 N 0.41176 0.05013 0.70115 0.0
C142 C 0.46421 0.98974 0.6873 0.0
C143 C 0.40158 0.97941 0.69635 0.0
C144 C 0.48359 0.10295 0.69509 0.0
N145 N 0.51644 0.06725 0.6867 0.0
O146 O 0.44331 0.14362 0.72771 0.0
H147 H 0.35463 0.92253 0.70002 0.0
H148 H 0.51241 0.1659 0.69725 0.0
O149 O 0.33389 0.14161 0.70377 0.0
C150 C 0.48451 0.11645 0.73431 0.0
O151 O 0.45949 0.04052 0.73298 0.0
N152 N 0.25521 0.97469 0.7073 0.0
C153 C 0.17604 0.82974 0.69172 0.0
C154 C 0.18539 0.89845 0.68445 0.0
C155 C 0.2256 0.97094 0.69247 0.0
C156 C 0.23388 0.90657 0.71543 0.0
C157 C 0.19523 0.83324 0.70777 0.0
H158 H 0.23746 0.02337 0.68617 0.0
H159 H 0.25683 0.90992 0.72722 0.0
H160 H 0.18136 0.06864 0.72146 0.0
H161 H 0.22419 0.05191 0.76959 0.0
H162 H 0.47347 0.94358 0.68246 0.0
H163 H 0.16855 0.89727 0.67221 0.0
H164 H 0.18703 0.78096 0.7139 0.0
C165 C 0.26668 0.23233 0.90982 0.0
C166 C 0.20956 0.17257 0.91886 0.0
N167 N 0.13805 0.15359 0.91308 0.0
N168 N 0.23284 0.25083 0.89793 0.0
C169 C 0.15374 0.20311 0.90055 0.0
H170 H 0.32959 0.25957 0.91168 0.0
Co171 Co 0.29533 0.3258 0.88182 0.0
C172 C 0.1732 0.32609 0.85856 0.0
O173 O 0.22844 0.37406 0.84873 0.0
N174 N 0.36158 0.40169 0.86601 0.0
C175 C 0.4657 0.46237 0.84983 0.0
C176 C 0.41721 0.39419 0.85782 0.0
C177 C 0.37994 0.47763 0.86301 0.0
N178 N 0.44292 0.51515 0.85312 0.0
O179 O 0.31516 0.41382 0.89667 0.0
H180 H 0.4269 0.34461 0.85843 0.0
H181 H 0.35035 0.50593 0.86851 0.0
O182 O 0.19362 0.31109 0.87205 0.0
C183 C 0.38772 0.44223 0.90107 0.0
O184 O 0.42866 0.41588 0.89344 0.0
N185 N 0.29024 0.24238 0.86912 0.0
C186 C 0.34877 0.16637 0.85004 0.0
C187 C 0.29166 0.18302 0.84418 0.0
C188 C 0.26476 0.22326 0.8538 0.0
C189 C 0.33798 0.21682 0.8754 0.0
C190 C 0.3681 0.17903 0.86607 0.0
H191 H 0.23043 0.24515 0.84821 0.0
H192 H 0.36233 0.23554 0.88705 0.0
H193 H 0.10819 0.20375 0.89341 0.0
H194 H 0.21979 0.14464 0.92893 0.0
H195 H 0.51641 0.47381 0.84268 0.0
H196 H 0.27531 0.17359 0.8318 0.0
H197 H 0.41213 0.16679 0.87098 0.0
C198 C 0.75972 0.98339 0.77457 0.0
C199 C 0.81541 0.97749 0.7655 0.0
N200 N 0.88787 0.03071 0.77076 0.0
N201 N 0.79614 0.04051 0.78555 0.0
C202 C 0.87462 0.06827 0.78291 0.0
H203 H 0.69633 0.94774 0.77327 0.0
Co204 Co 0.74226 0.07109 0.80043 0.0
C205 C 0.87132 0.12939 0.82597 0.0
O206 O 0.8228 0.07185 0.83533 0.0
N207 N 0.68864 0.10375 0.8152 0.0
C208 C 0.65421 0.15015 0.83614 0.0
C209 C 0.71237 0.13988 0.82946 0.0
C210 C 0.61565 0.09547 0.81342 0.0
N211 N 0.59353 0.12227 0.82604 0.0
O212 O 0.75668 0.15777 0.78639 0.0
H213 H 0.76878 0.16091 0.83488 0.0
H214 H 0.57881 0.0698 0.80312 0.0
O215 O 0.84698 0.13709 0.81223 0.0
C216 C 0.69524 0.12647 0.77737 0.0
O217 O 0.64595 0.05027 0.77868 0.0
N218 N 0.71054 0.97634 0.81229 0.0
C219 C 0.63254 0.82718 0.82689 0.0
C220 C 0.71462 0.86572 0.82411 0.0
C221 C 0.75239 0.93992 0.81642 0.0
C222 C 0.63014 0.93558 0.81383 0.0
C223 C 0.59064 0.86302 0.8215 0.0
H224 H 0.81453 0.9675 0.81363 0.0
H225 H 0.59487 0.95734 0.80845 0.0
H226 H 0.92144 0.11488 0.78976 0.0
H227 H 0.80363 0.93633 0.7559 0.0
H228 H 0.65721 0.17864 0.84731 0.0
H229 H 0.74852 0.83792 0.82748 0.0
H230 H 0.52689 0.83344 0.82263 0.0
C231 C 0.81449 0.75642 0.94864 0.0
C232 C 0.87306 0.81175 0.93908 0.0
N233 N 0.87354 0.8806 0.94055 0.0
N234 N 0.77761 0.7894 0.9564 0.0
C235 C 0.81429 0.86531 0.95096 0.0
H236 H 0.80109 0.69599 0.95017 0.0
Co237 Co 0.69843 0.73226 0.97207 0.0
C238 C 0.72478 0.85395 0.99724 0.0
O239 O 0.71187 0.79943 1.00773 0.0
N240 N 0.61732 0.67221 0.98801 0.0
C241 C 0.55427 0.59376 1.00867 0.0
C242 C 0.62576 0.63847 1.00138 0.0
C243 C 0.53831 0.64679 0.98779 0.0
N244 N 0.49925 0.59849 1.0001 0.0
O245 O 0.6159 0.72243 0.9568 0.0
H246 H 0.68038 0.64558 1.00598 0.0
H247 H 0.50906 0.66091 0.97858 0.0
O248 O 0.71902 0.83597 0.98236 0.0
C249 C 0.58498 0.65025 0.95192 0.0
O250 O 0.60491 0.6042 0.95956 0.0
N251 N 0.77639 0.72631 0.98438 0.0
C252 C 0.87163 0.67875 1.00009 0.0
C253 C 0.88796 0.75749 1.00113 0.0
C254 C 0.83975 0.78054 0.99296 0.0
C255 C 0.76551 0.65225 0.98216 0.0
C256 C 0.81104 0.62689 0.9901 0.0
H257 H 0.85351 0.84121 0.99364 0.0
H258 H 0.71835 0.61095 0.97463 0.0
H259 H 0.799 0.909 0.9547 0.0
H260 H 0.9139 0.80278 0.9319 0.0
H261 H 0.54306 0.55896 0.01931 0.0
H262 H 0.93646 0.80002 1.00832 0.0
H263 H 0.7979 0.56634 0.98865 0.0
C264 C 0.06086 0.79922 0.11466 0.0
C265 C 0.06893 0.86109 0.10545 0.0
N266 N 1.00624 0.87108 0.10792 0.0
N267 N 0.99266 0.76833 0.1229 0.0
C268 C 0.96029 0.81324 0.1184 0.0
H269 H 0.10315 0.77892 0.11551 0.0
Co270 Co 0.95824 0.68255 0.13773 0.0
C271 C 0.88207 0.72736 0.16379 0.0
O272 O 0.91762 0.70384 0.17378 0.0
N273 N 0.92036 0.59553 0.15229 0.0
C274 C 0.82641 0.48931 0.16487 0.0
C275 C 0.84255 0.55429 0.15596 0.0
C276 C 0.94993 0.55211 0.15897 0.0
N277 N 0.89356 0.48702 0.16657 0.0
O278 O 0.87727 0.60808 0.12274 0.0
H279 H 0.79883 0.56841 0.15172 0.0
H280 H 1.00987 0.56413 0.15742 0.0
O281 O 0.88963 0.72019 0.14876 0.0
C282 C 0.91225 0.58476 0.11291 0.0
O283 O 0.9896 0.62645 0.11204 0.0
N284 N 0.04672 0.74685 0.15067 0.0
C285 C 0.18974 0.82024 0.16724 0.0
C286 C 0.13789 0.85048 0.16799 0.0
C287 C 0.06728 0.81401 0.15921 0.0
C288 C 0.0995 0.72093 0.14902 0.0
C289 C 0.17053 0.75582 0.15732 0.0
H290 H 0.02979 0.83972 0.15945 0.0
H291 H 0.08594 0.67208 0.14116 0.0
H292 H 0.90453 0.80453 0.12284 0.0
H293 H 0.11883 0.89817 0.09794 0.0
H294 H 0.76864 0.44382 0.16881 0.0
H295 H 0.15172 0.90132 0.17531 0.0
H296 H 0.20983 0.73185 0.15617 0.0
C297 C 0.24431 0.97438 0.27581 0.0
C298 C 0.1866 0.97771 0.26701 0.0
N299 N 0.13136 0.9752 0.27691 0.0
N300 N 0.22599 0.96854 0.29131 0.0
C301 C 0.15689 0.97027 0.29162 0.0
H302 H 0.2981 0.97914 0.27117 0.0
Co303 Co 0.29447 0.96973 0.3077 0.0
C304 C 0.18391 0.8647 0.33423 0.0
O305 O 0.24199 0.89758 0.34448 0.0
N306 N 0.36528 0.97311 0.32383 0.0
C307 C 0.46815 0.02077 0.34035 0.0
C308 C 0.42018 0.03842 0.33149 0.0
C309 C 0.38223 0.91626 0.32829 0.0
N310 N 0.44548 0.94426 0.3381 0.0
O311 O 0.31044 0.88881 0.29601 0.0
H312 H 0.42934 0.09713 0.33006 0.0
H313 H 0.35089 0.85622 0.3239 0.0
O314 O 0.19865 0.88834 0.31975 0.0
C315 C 0.38087 0.91779 0.29021 0.0
O316 O 0.4313 0.99283 0.29282 0.0
N317 N 0.29068 0.0556 0.31737 0.0
C318 C 0.35002 0.19986 0.33305 0.0
C319 C 0.28562 0.1314 0.33934 0.0
C320 C 0.25661 0.05915 0.33127 0.0
C321 C 0.34395 0.12375 0.30999 0.0
C322 C 0.37525 0.19656 0.31771 0.0
H323 H 0.21104 1.00665 0.33683 0.0
H324 H 0.36963 0.12039 0.29888 0.0
H325 H 0.1274 0.97083 0.30242 0.0
H326 H 0.18655 0.9843 0.25431 0.0
H327 H 0.51961 0.06236 0.347 0.0
H328 H 0.26315 0.1324 0.35101 0.0
H329 H 0.42379 0.2485 0.31234 0.0
C330 C 0.28137 0.2355 0.44178 0.0
C331 C 0.22087 0.17538 0.43341 0.0
N332 N 0.17578 0.11688 0.44351 0.0
N333 N 0.27601 0.2157 0.45719 0.0
C334 C 0.21001 0.14277 0.45794 0.0
H335 H 0.32492 0.29199 0.43699 0.0
Co336 Co 0.34599 0.2902 0.47231 0.0
C337 C 0.34937 0.18506 0.49984 0.0
O338 O 0.38509 0.24585 0.50938 0.0
N339 N 0.41693 0.37052 0.48658 0.0
C340 C 0.47347 0.49181 0.49711 0.0
C341 C 0.41065 0.43593 0.48868 0.0
C342 C 0.48775 0.39057 0.49336 0.0
N343 N 0.52243 0.46386 0.49996 0.0
O344 O 0.43856 0.29805 0.46075 0.0
H345 H 0.36616 0.44569 0.48336 0.0
H346 H 0.51497 0.35402 0.49285 0.0
O347 O 0.33253 0.19819 0.48585 0.0
C348 C 0.47738 0.36367 0.45315 0.0
O349 O 0.45205 0.41456 0.45388 0.0
N350 N 0.25917 0.29184 0.4823 0.0
C351 C 0.18669 0.36782 0.49693 0.0
C352 C 0.20636 0.3192 0.5057 0.0
C353 C 0.24258 0.28141 0.49814 0.0
C354 C 0.23058 0.33023 0.47334 0.0
C355 C 0.19485 0.36944 0.48046 0.0
H356 H 0.26346 0.25064 0.50538 0.0
H357 H 0.24486 0.33962 0.46089 0.0
H358 H 0.18585 0.11073 0.46885 0.0
H359 H 0.20898 0.17573 0.42092 0.0
H360 H 0.48503 0.55065 0.50007 0.0
H361 H 0.19966 0.31567 0.51844 0.0
H362 H 0.17952 0.40579 0.47329 0.0
C363 C 0.01905 0.26335 0.60691 0.0
C364 C 1.01348 0.20149 0.59801 0.0
N365 N 0.04766 0.16706 0.60605 0.0
N366 N 0.05722 0.26919 0.62059 0.0
C367 C 0.07339 0.20883 0.61972 0.0
H368 H 0.99584 0.30129 0.60361 0.0
Co369 Co 0.07784 0.34753 0.63647 0.0
C370 C 0.1441 0.27166 0.6603 0.0
O371 O 0.0754 0.23018 0.66726 0.0
N372 N 0.09951 0.42614 0.65249 0.0
C373 C 0.10597 0.47702 0.67651 0.0
C374 C 0.09473 0.41175 0.66821 0.0
C375 C 0.11202 0.50116 0.65163 0.0
N376 N 0.11681 0.53316 0.66607 0.0
O377 O 0.16556 0.42786 0.62351 0.0
H378 H 0.07727 0.35518 0.67337 0.0
H379 H 0.11383 0.53105 0.64081 0.0
O380 O 0.15063 0.31696 0.64853 0.0
C381 C 0.13528 0.46198 0.61535 0.0
O382 O 0.05978 0.43757 0.61729 0.0
N383 N 0.98136 0.27587 0.64701 0.0
C384 C 0.82737 0.19401 0.6594 0.0
C385 C 0.86867 0.15388 0.6558 0.0
C386 C 0.94546 0.19585 0.6493 0.0
C387 C 0.93798 0.31274 0.64914 0.0
C388 C 0.86307 0.27424 0.65585 0.0
H389 H 0.9751 0.16377 0.64597 0.0
H390 H 0.9607 0.373 0.64532 0.0
H391 H 0.10126 0.19392 0.62907 0.0
H392 H 0.98541 0.18242 0.58657 0.0
H393 H 0.10316 0.48193 0.68922 0.0
H394 H 0.84145 0.09083 0.6578 0.0
H395 H 0.83208 0.30666 0.6578 0.0
C396 C 0.82507 1.00339 0.99758 0.0
C397 C 0.75549 0.93708 1.00359 0.0
C398 C 0.76804 0.01517 0.02772 0.0
C399 C 0.83673 0.08121 0.02146 0.0
N400 N 0.90979 0.14543 0.99788 0.0
N401 N 0.64774 0.89144 0.02219 0.0
C402 C 0.85777 0.07758 1.00551 0.0
C403 C 0.72269 0.94706 0.01794 0.0
N404 N 0.86503 0.99524 0.98519 0.0
N405 N 0.74825 0.01497 0.04321 0.0
H406 H 0.61227 0.84283 0.01504 0.0
H407 H 0.61815 0.8982 0.0318 0.0
H408 H 0.77925 0.06336 0.05067 0.0
H409 H 0.70441 0.96485 0.0489 0.0
H410 H 0.92046 0.04018 0.98163 0.0
H411 H 0.84768 0.9417 0.97968 0.0
H412 H 0.92209 0.1475 0.98584 0.0
H413 H 0.93261 0.20064 1.00318 0.0
C414 C 0.78088 0.72868 0.18257 0.0
C415 C 0.84001 0.76792 0.17072 0.0
C416 C 0.85038 0.89398 0.17893 0.0
C417 C 0.78609 0.85444 0.1897 0.0
N418 N 0.68409 0.73039 0.20042 0.0
N419 N 0.9186 0.88718 0.15567 0.0
C420 C 0.74994 0.77074 0.19123 0.0
C421 C 0.87038 0.85007 0.16825 0.0
N422 N 0.75419 0.6506 0.18562 0.0
N423 N 0.89596 0.97449 0.17948 0.0
H424 H 0.93627 0.85855 0.14773 0.0
H425 H 0.9347 0.94451 0.15221 0.0
H426 H 0.8865 1.00894 0.18761 0.0
H427 H 0.94869 1.00627 0.17324 0.0
H428 H 0.72025 0.62108 0.19548 0.0
H429 H 0.7689 0.61585 0.17861 0.0
H430 H 0.64861 0.66912 0.20027 0.0
H431 H 0.66186 0.75785 0.20765 0.0
C432 C 0.02325 0.77187 0.36572 0.0
C433 C 0.95857 0.77297 0.35834 0.0
C434 C 0.03241 0.80816 0.33293 0.0
C435 C 0.10008 0.81495 0.34076 0.0
N436 N 0.14241 0.76377 0.36221 0.0
N437 N 0.89312 0.76862 0.33394 0.0
C438 C 0.08996 0.7845 0.35645 0.0
C439 C 0.96091 0.78446 0.34164 0.0
N440 N 0.02316 0.76251 0.38172 0.0
N441 N 0.03532 0.82299 0.31712 0.0
H442 H 0.8397 0.74819 0.3398 0.0
H443 H 0.88735 0.76822 0.32172 0.0
H444 H 0.07491 0.81835 0.30956 0.0
H445 H 0.99626 0.83633 0.31139 0.0
H446 H 0.07274 0.77112 0.38799 0.0
H447 H 0.97524 0.75138 0.38889 0.0
H448 H 0.13518 0.73543 0.37302 0.0
H449 H 0.18723 0.76533 0.3552 0.0
C450 C 0.31723 0.089 0.5232 0.0
C451 C 0.31529 0.10095 0.50656 0.0
C452 C 0.23176 0.95523 0.50432 0.0
C453 C 0.21479 0.94837 0.52089 0.0
N454 N 0.24409 0.0157 0.54618 0.0
N455 N 0.28112 0.03746 0.48093 0.0
C456 C 0.25851 0.01705 0.53037 0.0
C457 C 0.27528 0.03167 0.497 0.0
N458 N 0.37893 0.14295 0.5321 0.0
N459 N 0.21125 0.88834 0.49573 0.0
H460 H 0.3254 0.08668 0.47511 0.0
H461 H 0.2426 0.99233 0.4734 0.0
H462 H 0.18679 0.8325 0.50091 0.0
H463 H 0.2274 0.88892 0.48397 0.0
H464 H 0.38527 0.13429 0.54406 0.0
H465 H 0.43023 0.18847 0.52707 0.0
H466 H 0.26805 0.06697 0.55302 0.0
H467 H 0.20476 0.96508 0.55227 0.0
C468 C 0.265 0.23971 0.6922 0.0
C469 C 0.31343 0.2192 0.68303 0.0
C470 C 0.26818 0.25626 0.65875 0.0
C471 C 0.21346 0.26845 0.66772 0.0
N472 N 0.18534 0.30337 0.69327 0.0
N473 N 0.39115 0.25396 0.65909 0.0
C474 C 0.21938 0.26925 0.68456 0.0
C475 C 0.32417 0.24135 0.66673 0.0
N476 N 0.26361 0.23345 0.70827 0.0
N477 N 0.26616 0.25656 0.64264 0.0
H478 H 0.43802 0.2542 0.66505 0.0
H479 H 0.40521 0.27585 0.6476 0.0
H480 H 0.23096 0.27262 0.63624 0.0
H481 H 0.29722 0.23722 0.63564 0.0
H482 H 0.21843 0.23107 0.71522 0.0
H483 H 0.30915 0.23366 0.71469 0.0
H484 H 0.19259 0.31278 0.70541 0.0
H485 H 0.15745 0.33116 0.68805 0.0
C486 C 0.99563 0.15018 0.83885 0.0
C487 C 0.9529 0.18466 0.8324 0.0
C488 C 0.05293 0.31292 0.84387 0.0
C489 C 0.09053 0.27577 0.85179 0.0
N490 N 0.08088 0.15121 0.85943 0.0
N491 N 0.93688 0.2989 0.83016 0.0
C492 C 0.05671 0.1922 0.85013 0.0
C493 C 0.98073 0.26629 0.8352 0.0
N494 N 0.97982 0.07736 0.83367 0.0
N495 N 0.08611 0.39321 0.84469 0.0
H496 H 0.88646 0.26826 0.82323 0.0
H497 H 0.948 0.35487 0.83351 0.0
H498 H 0.13372 0.42829 0.85207 0.0
H499 H 0.06851 0.42532 0.83762 0.0
H500 H 1.01444 0.05233 0.83659 0.0
H501 H 0.93824 0.0465 0.8249 0.0
H502 H 0.05157 0.08965 0.85985 0.0
H503 H 0.12447 0.17707 0.86793 0.0
C504 C 0.92423 0.98991 0.08735 0.0
C505 C 0.99079 0.06771 0.08806 0.0
C506 C 0.05991 0.01573 0.10419 0.0
C507 C 0.99773 0.93685 0.10193 0.0
N508 N 0.87597 0.84842 0.08872 0.0
N509 N 0.12939 0.14891 0.09374 0.0
C510 C 0.93117 0.92377 0.09276 0.0
C511 C 0.06079 0.07871 0.09549 0.0
N512 N 0.85344 0.9793 0.08217 0.0
N513 N 0.11669 0.03122 0.11525 0.0
H514 H 0.13323 0.19442 0.08665 0.0
H515 H 0.18379 0.15812 0.09776 0.0
H516 H 0.11492 0.98747 0.12259 0.0
H517 H 0.15972 0.08841 0.11837 0.0
H518 H 0.8011 0.92522 0.08278 0.0
H519 H 0.84571 0.02611 0.07861 0.0
H520 H 0.83021 0.83531 0.08081 0.0
H521 H 0.88028 0.79944 0.09218 0.0
C522 C 0.92092 0.92674 0.26724 0.0
C523 C 0.93539 0.99645 0.25909 0.0
C524 C 0.07731 0.05601 0.26545 0.0
C525 C 0.06405 0.9838 0.2722 0.0
N526 N 0.97458 0.84654 0.27748 0.0
N527 N 0.02936 0.1225 0.24817 0.0
C528 C 0.98599 0.9181 0.27259 0.0
C529 C 1.0143 0.05985 0.25763 0.0
N530 N 0.8448 0.86989 0.2703 0.0
N531 N 0.15023 0.12162 0.26686 0.0
H532 H 0.98498 0.12565 0.24192 0.0
H533 H 0.08611 0.16732 0.24532 0.0
H534 H 0.19659 0.12059 0.27278 0.0
H535 H 0.16259 0.17804 0.26356 0.0
H536 H 0.82976 0.82114 0.2775 0.0
H537 H 0.79654 0.87505 0.26667 0.0
H538 H 0.92066 0.79423 0.27663 0.0
H539 H 0.02099 0.83875 0.28132 0.0
C540 C 0.10021 0.97462 0.43592 0.0
C541 C 0.10182 0.04668 0.43928 0.0
C542 C 0.96697 0.99053 0.4285 0.0
C543 C 0.96376 0.91716 0.42585 0.0
N544 N 0.02228 0.83514 0.42891 0.0
N545 N 0.03411 0.12055 0.4409 0.0
C546 C 0.0292 0.90811 0.43008 0.0
C547 C 0.0341 0.05358 0.4362 0.0
N548 N 0.16772 0.97097 0.43788 0.0
N549 N 0.90651 1.00039 0.42312 0.0
H550 H 0.08242 0.16696 0.44659 0.0
H551 H 0.98483 0.12777 0.44037 0.0
H552 H 0.85757 0.95556 0.41729 0.0
H553 H 0.90734 0.05412 0.42328 0.0
H554 H 0.17407 0.92353 0.4342 0.0
H555 H 0.21934 0.01812 0.44248 0.0
H556 H 0.0643 0.82181 0.43315 0.0
H557 H 0.97145 0.78617 0.42455 0.0
C558 C 0.98118 0.02269 0.6005 0.0
C559 C 0.05134 0.0975 0.60101 0.0
C560 C 0.12581 0.03633 0.59012 0.0
C561 C 0.05463 0.96285 0.58859 0.0
N562 N 0.91331 0.88802 0.59029 0.0
N563 N 0.18867 0.17846 0.59452 0.0
C564 C 0.98192 0.95676 0.59323 0.0
C565 C 0.12331 0.10502 0.59534 0.0
N566 N 0.91435 0.01448 0.60747 0.0
N567 N 0.19601 0.03955 0.58704 0.0
H568 H 0.18837 0.22912 0.59837 0.0
H569 H 0.24124 0.19001 0.58909 0.0
H570 H 0.19912 0.99048 0.5831 0.0
H571 H 0.2509 0.08878 0.58934 0.0
H572 H 0.86267 0.96046 0.60889 0.0
H573 H 0.91287 0.06141 0.61306 0.0
H574 H 0.85737 0.88106 0.59196 0.0
H575 H 0.91259 0.83953 0.5849 0.0
C576 C 0.09211 0.12076 0.75177 0.0
C577 C 0.10422 0.0548 0.75165 0.0
C578 C 0.97817 0.97703 0.76594 0.0
C579 C 0.96266 0.04068 0.76488 0.0
N580 N 0.99903 0.16883 0.75439 0.0
N581 N 0.05231 0.91611 0.75608 0.0
C582 C 1.01818 0.11151 0.75712 0.0
C583 C 0.04506 0.98169 0.75799 0.0
N584 N 0.15261 0.19297 0.74735 0.0
N585 N 0.93059 0.91335 0.77516 0.0
H586 H 0.09981 0.91778 0.75005 0.0
H587 H 1.00807 0.85931 0.75908 0.0
H588 H 0.88325 0.90975 0.78159 0.0
H589 H 0.94254 0.86814 0.77769 0.0
H590 H 0.15097 0.24524 0.74858 0.0
H591 H 0.20707 0.2011 0.74358 0.0
H592 H 0.03323 0.21858 0.74747 0.0
H593 H 0.94534 0.16322 0.758 0.0
C594 C 0.93914 0.96309 0.91679 0.0
C595 C 0.93229 0.95525 0.9335 0.0
C596 C 0.04799 0.08857 0.93587 0.0
C597 C 0.06284 0.09113 0.91937 0.0
N598 N 0.02727 0.02191 0.89441 0.0
N599 N 0.99331 1.0043 0.95879 0.0
C600 C 1.00906 0.02638 0.90982 0.0
C601 C 0.98984 0.01671 0.94303 0.0
N602 N 0.87871 0.90946 0.90761 0.0
N603 N 0.08943 0.15528 0.94473 0.0
H604 H 0.95529 0.95052 0.96422 0.0
H605 H 0.03898 0.04427 0.96604 0.0
H606 H 0.13004 0.20936 0.93969 0.0
H607 H 0.07693 0.15856 0.9566 0.0
H608 H 0.8766 0.91541 0.89541 0.0
H609 H 0.82722 0.86321 0.91249 0.0
H610 H 0.99405 0.97256 0.88732 0.0
H611 H 0.07978 0.06395 0.88915 0.0
C612 C 0.37895 0.5847 0.01278 0.0
C613 C 0.41539 0.55271 1.00315 0.0
C614 C 0.29936 0.41995 1.00598 0.0
C615 C 0.26284 0.4519 0.01575 0.0
N616 N 0.2592 0.5663 0.02546 0.0
N617 N 0.40675 0.44516 0.98792 0.0
C618 C 0.30001 0.53499 0.01819 0.0
C619 C 0.37391 0.47182 0.99884 0.0
N620 N 0.42158 0.66209 0.01727 0.0
N621 N 0.26449 0.33986 1.00415 0.0
H622 H 0.46151 0.4824 0.98271 0.0
H623 H 0.37762 0.38862 0.98308 0.0
H624 H 0.20972 0.30037 1.00907 0.0
H625 H 0.29152 0.31194 0.99859 0.0
H626 H 0.40263 0.68766 0.02576 0.0
H627 H 0.47848 0.69988 0.01302 0.0
H628 H 0.27997 0.62673 0.02632 0.0
H629 H 0.20131 0.53168 0.02951 0.0
C630 C 0.92521 0.42124 0.18809 0.0
C631 C 0.89743 0.41945 0.17255 0.0
C632 C 0.85412 0.27768 0.17073 0.0
C633 C 0.86933 0.27679 0.18707 0.0
N634 N 0.92161 0.34683 0.21149 0.0
N635 N 0.83265 0.34607 0.14908 0.0
C636 C 0.90704 0.34874 0.19575 0.0
C637 C 0.86231 0.34782 0.16377 0.0
N638 N 0.9672 0.49235 0.19557 0.0
N639 N 0.83108 0.2109 0.16194 0.0
H640 H 0.83828 0.39641 0.14362 0.0
H641 H 0.79825 0.29439 0.14271 0.0
H642 H 0.82441 0.15881 0.16683 0.0
H643 H 0.82581 0.20911 0.14968 0.0
H644 H 0.99504 0.49973 0.20643 0.0
H645 H 0.97882 0.54538 0.19029 0.0
H646 H 0.94086 0.39512 0.21903 0.0
H647 H 0.91154 0.29524 0.2172 0.0
C648 C 0.45686 0.84131 0.35333 0.0
C649 C 0.49025 0.90672 0.3429 0.0
C650 C 0.6199 0.91534 0.34553 0.0
C651 C 0.58563 0.84702 0.35528 0.0
N652 N 0.46752 0.73422 0.36538 0.0
N653 N 0.59814 0.99306 0.32593 0.0
C654 C 0.50277 0.80671 0.35826 0.0
C655 C 0.57028 0.93981 0.33806 0.0
N656 N 0.38246 0.81453 0.35911 0.0
N657 N 0.70015 0.95889 0.3439 0.0
H658 H 0.56231 1.00945 0.31976 0.0
H659 H 0.65354 0.01371 0.3208 0.0
H660 H 0.73865 0.9436 0.3493 0.0
H661 H 0.72891 0.01382 0.33835 0.0
H662 H 0.35766 0.77252 0.36807 0.0
H663 H 0.34793 0.83922 0.35585 0.0
H664 H 0.4065 0.69863 0.36648 0.0
H665 H 0.49875 0.70625 0.36885 0.0
C666 C 0.67673 0.56286 0.53151 0.0
C667 C 0.745 0.61289 0.52236 0.0
C668 C 0.66369 0.56719 0.49832 0.0
C669 C 0.59918 0.50944 0.50724 0.0
N670 N 0.54494 0.44747 0.53214 0.0
N671 N 0.80546 0.65178 0.49651 0.0
C672 C 0.60621 0.50573 0.5238 0.0
C673 C 0.73904 0.61252 0.5056 0.0
N674 N 0.67867 0.57206 0.54755 0.0
N675 N 0.65238 0.58031 0.48295 0.0
H676 H 0.86208 0.6843 0.50123 0.0
H677 H 0.80494 0.64622 0.48425 0.0
H678 H 0.59863 0.54669 0.47713 0.0
H679 H 0.69461 0.62784 0.47638 0.0
H680 H 0.62919 0.54235 0.55478 0.0
H681 H 0.72828 0.61546 0.55348 0.0
H682 H 0.54863 0.43617 0.54404 0.0
H683 H 0.49216 0.40633 0.52675 0.0
C684 C 0.20331 0.67783 0.66844 0.0
C685 C 0.12767 0.61007 0.66994 0.0
C686 C 0.07956 0.6884 0.68397 0.0
C687 C 0.15544 0.75662 0.68241 0.0
N688 N 0.28387 0.82033 0.66982 0.0
N689 N 0.98986 0.55241 0.67597 0.0
C690 C 0.21535 0.75268 0.67349 0.0
C691 C 0.06446 0.61607 0.67673 0.0
N692 N 0.26486 0.66959 0.66307 0.0
N693 N 0.02267 0.69255 0.69266 0.0
H694 H 0.97789 0.49952 0.67053 0.0
H695 H 0.93942 0.55377 0.67947 0.0
H696 H 0.0306 0.7455 0.69735 0.0
H697 H 0.96913 0.64342 0.6958 0.0
H698 H 0.3236 0.71466 0.66342 0.0
H699 H 0.25789 0.61549 0.65938 0.0
H700 H 0.32607 0.82202 0.66205 0.0
H701 H 0.29568 0.87625 0.67334 0.0
C702 C 0.46393 0.21178 0.83165 0.0
C703 C 0.39855 0.14821 0.83941 0.0
C704 C 0.45274 0.06127 0.83342 0.0
C705 C 0.52341 0.12803 0.82816 0.0
N706 N 0.59952 0.26735 0.8229 0.0
N707 N 0.32634 1.01128 0.84691 0.0
C708 C 0.5293 0.20317 0.82719 0.0
C709 C 0.39107 0.07205 0.83982 0.0
N710 N 0.46411 0.28072 0.82868 0.0
N711 N 0.44621 0.98833 0.83271 0.0
H712 H 0.2789 0.01714 0.85091 0.0
H713 H 0.31999 0.95604 0.84919 0.0
H714 H 0.49193 0.97993 0.82863 0.0
H715 H 0.39463 0.93578 0.83525 0.0
H716 H 0.50637 0.32599 0.82169 0.0
H717 H 0.41805 0.29023 0.83186 0.0
H718 H 0.6117 0.32551 0.82397 0.0
H719 H 0.64791 0.26274 0.81913 0.0
C720 C 0.58596 0.73523 0.85061 0.0
C721 C 0.58698 0.74617 0.83397 0.0
C722 C 0.47964 0.60862 0.83102 0.0
C723 C 0.48353 0.59562 0.84736 0.0
N724 N 0.54694 0.64233 0.87251 0.0
N725 N 0.5437 0.68983 0.80802 0.0
C726 C 0.53832 0.65797 0.85714 0.0
C727 C 0.53612 0.68174 0.82409 0.0
N728 N 0.62881 0.79895 0.8602 0.0
N729 N 0.42069 0.55052 0.82221 0.0
H730 H 0.58549 0.74198 0.80253 0.0
H731 H 0.51382 0.64311 0.80016 0.0
H732 H 0.37849 0.4968 0.82715 0.0
H733 H 0.40919 0.55798 0.81052 0.0
H734 H 0.62403 0.79655 0.87248 0.0
H735 H 0.66555 0.85578 0.85583 0.0
H736 H 0.59165 0.68256 0.87988 0.0
H737 H 0.51211 0.58682 0.87762 0.0
C738 C 0.91851 0.57362 0.03247 0.0
C739 C 0.9438 0.53156 0.02275 0.0
C740 C 0.95871 0.61865 1.00059 0.0
C741 C 0.91528 0.64692 1.00919 0.0
N742 N 0.85569 0.65381 0.03374 0.0
N743 N 0.99539 0.51676 0.99813 0.0
C744 C 0.89764 0.62694 0.02542 0.0
C745 C 0.96793 0.55632 1.00704 0.0
N746 N 0.91309 0.56082 0.04838 0.0
N747 N 0.98906 0.65047 0.98613 0.0
H748 H 1.00477 0.47286 1.00295 0.0
H749 H 1.00621 0.52531 0.98603 0.0
H750 H 0.98292 0.69647 0.98136 0.0
H751 H 0.02558 0.63644 0.97958 0.0
H752 H 0.90067 0.59354 0.05644 0.0
H753 H 0.92904 0.52232 0.05357 0.0
H754 H 0.83271 0.63357 0.04499 0.0
H755 H 0.84032 0.69371 0.02909 0.0
C756 C 0.40473 0.93941 0.1812 0.0
C757 C 0.40705 0.88207 0.19115 0.0
C758 C 0.26252 0.80082 0.18938 0.0
C759 C 0.26192 0.85074 0.17733 0.0
N760 N 0.33219 0.96749 0.16129 0.0
N761 N 0.33822 0.75244 0.20308 0.0
C762 C 0.33279 0.92102 0.1733 0.0
C763 C 0.33577 0.8116 0.19496 0.0
N764 N 0.47207 1.01021 0.17892 0.0
N765 N 0.19261 0.74253 0.19542 0.0
H766 H 0.39027 0.75728 0.2074 0.0
H767 H 0.28935 0.69619 0.20449 0.0
H768 H 0.13791 0.73348 0.19158 0.0
H769 H 0.18908 0.70888 0.20527 0.0
H770 H 0.47346 0.05764 0.173 0.0
H771 H 0.52601 0.02347 0.18395 0.0
H772 H 0.38301 0.01454 0.15649 0.0
H773 H 0.28055 0.95629 0.15548 0.0
C774 C 0.45702 0.41457 0.34751 0.0
C775 C 0.523 0.41663 0.35498 0.0
C776 C 0.45947 0.27223 0.3526 0.0
C777 C 0.3997 0.27151 0.34294 0.0
N778 N 0.33952 0.3408 0.33124 0.0
N779 N 0.59212 0.34866 0.36285 0.0
C780 C 0.39736 0.3424 0.34056 0.0
C781 C 0.52518 0.34564 0.35718 0.0
N782 N 0.45284 0.48227 0.34678 0.0
N783 N 0.4538 0.20273 0.35741 0.0
H784 H 0.64128 0.40074 0.36662 0.0
H785 H 0.60135 0.30049 0.36275 0.0
H786 H 0.40683 0.14753 0.35439 0.0
H787 H 0.49129 0.19965 0.36577 0.0
H788 H 0.40379 0.48454 0.34269 0.0
H789 H 0.49727 0.53597 0.35127 0.0
H790 H 0.33845 0.39109 0.32754 0.0
H791 H 0.29337 0.28827 0.32669 0.0
C792 C 0.20746 0.56033 0.51277 0.0
C793 C 0.1279 0.53792 0.51593 0.0
C794 C 0.08598 0.40171 0.50762 0.0
C795 C 0.16603 0.42366 0.50491 0.0
N796 N 0.30383 0.51805 0.50917 0.0
N797 N 0.99432 0.43421 0.52042 0.0
C798 C 0.22712 0.50126 0.50884 0.0
C799 C 0.06791 0.45747 0.51456 0.0
N800 N 0.26374 0.63852 0.51283 0.0
N801 N 0.02725 0.32821 0.50329 0.0
H802 H 0.98062 0.47331 0.52612 0.0
H803 H 0.94957 0.37538 0.52108 0.0
H804 H 0.03863 0.28513 0.49875 0.0
H805 H 0.96762 0.31166 0.50331 0.0
H806 H 0.32151 0.65955 0.50897 0.0
H807 H 0.25085 0.68307 0.5155 0.0
H808 H 0.35026 0.5714 0.51326 0.0
H809 H 0.3197 0.47532 0.50703 0.0
C810 C 0.65396 0.09277 0.68842 0.0
C811 C 0.59512 0.10092 0.68019 0.0
C812 C 0.68297 0.15226 0.65716 0.0
C813 C 0.74541 0.1538 0.66612 0.0
N814 N 0.79316 0.13591 0.69122 0.0
N815 N 0.55407 0.14311 0.65727 0.0
C816 C 0.73158 0.12631 0.68199 0.0
C817 C 0.61006 0.13243 0.66472 0.0
N818 N 0.6352 0.05179 0.70232 0.0
N819 N 0.69259 0.16693 0.64128 0.0
H820 H 0.49934 0.12655 0.66239 0.0
H821 H 0.5638 0.17328 0.64661 0.0
H822 H 0.74413 0.17878 0.63529 0.0
H823 H 0.64733 0.15999 0.63378 0.0
H824 H 0.67232 0.03532 0.70791 0.0
H825 H 0.58067 0.03084 0.70789 0.0
H826 H 0.78813 0.12529 0.70335 0.0
H827 H 0.85095 0.16054 0.68706 0.0
C828 C 0.82946 0.48475 0.09156 0.0
C829 C 0.87476 0.50286 0.1057 0.0
C830 C 0.88275 0.38139 0.10174 0.0
C831 C 0.85606 0.37521 0.08611 0.0
N832 N 0.78881 0.40906 0.06681 0.0
N833 N 0.95126 0.46929 0.12334 0.0
C834 C 0.82316 0.4225 0.08136 0.0
C835 C 0.90153 0.45019 0.11074 0.0
N836 N 0.79635 0.52962 0.0876 0.0
N837 N 0.89356 0.3225 0.10766 0.0
H838 H 0.96746 0.51898 0.13025 0.0
H839 H 0.9803 0.43853 0.12633 0.0
H840 H 0.87926 0.27195 0.10102 0.0
H841 H 0.90779 0.31994 0.11943 0.0
H842 H 0.76094 0.51964 0.07772 0.0
H843 H 0.80131 0.57513 0.09487 0.0
H844 H 0.7669 0.44286 0.06178 0.0
H845 H 0.78266 0.36249 0.05971 0.0
C846 C 0.437 0.84984 0.25263 0.0
C847 C 0.51478 0.86865 0.25695 0.0
C848 C 0.47962 0.87299 0.28473 0.0
C849 C 0.40993 0.8735 0.28 0.0
N850 N 0.31476 0.8481 0.25965 0.0
N851 N 0.60914 0.89339 0.27742 0.0
C852 C 0.3855 0.85577 0.26401 0.0
C853 C 0.53501 0.87688 0.27316 0.0
N854 N 0.41358 0.82746 0.23744 0.0
N855 N 0.49183 0.86737 0.30039 0.0
H856 H 0.6491 0.89305 0.26924 0.0
H857 H 0.6318 0.91032 0.28879 0.0
H858 H 0.44997 0.86056 0.30877 0.0
H859 H 0.53748 0.85978 0.30475 0.0
H860 H 0.35699 0.80911 0.23326 0.0
H861 H 0.45067 0.82111 0.22943 0.0
H862 H 0.29638 0.84465 0.248 0.0
H863 H 0.27405 0.84539 0.26797 0.0
C864 C 0.53297 0.36535 0.42623 0.0
C865 C 0.54679 0.3847 0.44247 0.0
C866 C 0.6739 0.50281 0.43583 0.0
C867 C 0.6542 0.49021 0.41956 0.0
N868 N 0.58058 0.39834 0.3991 0.0
N869 N 0.64381 0.44967 0.4626 0.0
C870 C 0.58895 0.41693 0.41476 0.0
C871 C 0.62215 0.44628 0.4472 0.0
N872 N 0.46469 0.29936 0.42187 0.0
N873 N 0.73914 0.5712 0.44043 0.0
H874 H 0.60635 0.40758 0.47078 0.0
H875 H 0.70052 0.48825 0.46674 0.0
H876 H 0.77892 0.61136 0.43224 0.0
H877 H 0.75234 0.58874 0.45219 0.0
H878 H 0.44531 0.28487 0.41026 0.0
H879 H 0.42737 0.25848 0.43024 0.0
H880 H 0.53661 0.3452 0.39442 0.0
H881 H 0.62328 0.4353 0.391 0.0
C882 C 0.13691 0.54181 0.57636 0.0
C883 C 0.15833 0.62182 0.5801 0.0
C884 C 0.20486 0.60412 0.60621 0.0
C885 C 0.17676 0.52323 0.60272 0.0
N886 N 0.14877 0.42648 0.5828 0.0
N887 N 0.22983 0.73377 0.59729 0.0
C888 C 0.1554 0.49698 0.58708 0.0
C889 C 0.19936 0.65492 0.59453 0.0
N890 N 0.09255 0.50553 0.56328 0.0
N891 N 0.23375 0.63079 0.62098 0.0
H892 H 0.22551 0.77123 0.58908 0.0
H893 H 0.26383 0.76316 0.60712 0.0
H894 H 0.24302 0.59539 0.62896 0.0
H895 H 0.24778 0.68615 0.62534 0.0
H896 H 0.06804 0.44537 0.56099 0.0
H897 H 0.07368 0.53319 0.55536 0.0
H898 H 0.13953 0.40578 0.5712 0.0
H899 H 0.1614 0.39336 0.59076 0.0
C900 C 0.62984 0.17 0.73861 0.0
C901 C 0.55842 0.16449 0.744 0.0
C902 C 0.61303 0.18858 0.771 0.0
C903 C 0.67151 0.17024 0.76604 0.0
N904 N 0.74104 0.15109 0.74466 0.0
N905 N 0.48823 0.18359 0.76525 0.0
C906 C 0.68271 0.1652 0.74964 0.0
C907 C 0.5527 0.18007 0.76018 0.0
N908 N 0.6475 0.18152 0.72294 0.0
N909 N 0.61575 0.21386 0.7861 0.0
H910 H 0.44779 0.18431 0.7573 0.0
H911 H 0.47475 0.18508 0.77711 0.0
H912 H 0.66219 0.22358 0.79359 0.0
H913 H 0.57803 0.23263 0.7905 0.0
H914 H 0.70211 0.19404 0.71836 0.0
H915 H 0.61046 0.18803 0.715 0.0
H916 H 0.74667 0.13746 0.73298 0.0
H917 H 0.78194 0.15036 0.75251 0.0
C918 C 0.46578 0.61272 0.93289 0.0
C919 C 0.53817 0.61547 0.93686 0.0
C920 C 0.49638 0.4966 0.92115 0.0
C921 C 0.43006 0.49878 0.91479 0.0
N922 N 0.35933 0.57123 0.91356 0.0
N923 N 0.6325 0.57726 0.92846 0.0
C924 C 0.41665 0.56061 0.92032 0.0
C925 C 0.55695 0.56393 0.92863 0.0
N926 N 0.44278 0.65749 0.94126 0.0
N927 N 0.49994 0.42846 0.92114 0.0
H928 H 0.67933 0.62833 0.9333 0.0
H929 H 0.64866 0.54203 0.92196 0.0
H930 H 0.45189 0.37398 0.91799 0.0
H931 H 0.54615 0.42469 0.92647 0.0
H932 H 0.38726 0.65223 0.94001 0.0
H933 H 0.47818 0.69665 0.95005 0.0
H934 H 0.35192 0.61931 0.9162 0.0
H935 H 0.3233 0.53536 0.90449 0.0
loop_
_geom_bond_atom_site_label_1
_geom_bond_atom_site_label_2
_geom_bond_distance
_geom_bond_site_symmetry_2
_ccdc_geom_bond_type
C0 C1 1.351 . S
C0 N3 1.368 1_455 S
C0 H5 0.931 . S
C1 C0 1.351 . S
C1 N2 1.373 . S
C1 H29 0.930 . S
N2 C1 1.373 . S
N2 C4 1.340 1_455 S
N3 C0 1.368 1_655 S
N3 C4 1.321 . S
N3 Co6 2.135 . S
C4 N2 1.340 1_655 S
C4 N3 1.321 . S
C4 H28 0.930 . S
H5 C0 0.931 . S
Co6 N3 2.135 . S
Co6 N9 2.121 . S
Co6 O14 2.055 . S
Co6 O17 2.039 . S
Co6 N20 2.140 1_655 S
C7 O8 1.227 . S
C7 O17 1.265 . S
O8 C7 1.227 . S
N9 Co6 2.121 . S
N9 C11 1.375 . S
N9 C12 1.313 . S
C10 C11 1.338 1_556 S
C10 N13 1.377 1_556 S
C10 H30 0.930 . S
C11 N9 1.375 . S
C11 C10 1.338 1_554 S
C11 H15 0.931 . S
C12 N9 1.313 . S
C12 N13 1.344 . S
C12 H16 0.930 . S
N13 C10 1.377 1_554 S
N13 C12 1.344 . S
O14 Co6 2.055 . S
O14 C18 1.253 . S
H15 C11 0.931 . S
H16 C12 0.930 . S
O17 Co6 2.039 . S
O17 C7 1.265 . S
C18 O14 1.253 . S
C18 O19 1.227 1_655 S
O19 C18 1.227 1_455 S
N20 Co6 2.140 1_455 S
N20 C23 1.346 . S
N20 C24 1.345 . S
C21 C22 1.387 . S
C21 C25 1.391 . S
C22 C21 1.387 . S
C22 C23 1.369 . S
C22 H31 0.929 . S
C23 N20 1.346 . S
C23 C22 1.369 . S
C23 H26 0.928 . S
C24 N20 1.345 . S
C24 C25 1.371 . S
C24 H27 0.931 . S
C25 C21 1.391 . S
C25 C24 1.371 . S
C25 H32 0.930 . S
H26 C23 0.928 . S
H27 C24 0.931 . S
H28 C4 0.930 . S
H29 C1 0.930 . S
H30 C10 0.930 . S
H31 C22 0.929 . S
H32 C25 0.930 . S
C33 C34 1.351 . S
C33 N36 1.368 1_545 S
C33 H38 0.931 . S
C34 C33 1.351 . S
C34 N35 1.373 . S
C34 H62 0.930 . S
N35 C34 1.373 . S
N35 C37 1.340 1_545 S
N36 C33 1.368 1_565 S
N36 C37 1.321 . S
N36 Co39 2.135 . S
C37 N35 1.340 1_565 S
C37 N36 1.321 . S
C37 H61 0.930 . S
H38 C33 0.931 . S
Co39 N36 2.135 . S
Co39 N42 2.121 . S
Co39 O47 2.055 . S
Co39 O50 2.039 . S
Co39 N53 2.140 1_565 S
C40 O41 1.227 . S
C40 O50 1.265 . S
O41 C40 1.227 . S
N42 Co39 2.121 . S
N42 C44 1.375 . S
N42 C45 1.313 . S
C43 C44 1.338 . S
C43 N46 1.377 . S
C43 H63 0.930 . S
C44 N42 1.375 . S
C44 C43 1.338 . S
C44 H48 0.931 . S
C45 N42 1.313 . S
C45 N46 1.344 . S
C45 H49 0.930 . S
N46 C43 1.377 . S
N46 C45 1.344 . S
O47 Co39 2.055 . S
O47 C51 1.253 . S
H48 C44 0.931 . S
H49 C45 0.930 . S
O50 Co39 2.039 . S
O50 C40 1.265 . S
C51 O47 1.253 . S
C51 O52 1.227 1_565 S
O52 C51 1.227 1_545 S
N53 Co39 2.140 1_545 S
N53 C56 1.346 . S
N53 C57 1.345 . S
C54 C55 1.387 . S
C54 C58 1.391 . S
C55 C54 1.387 . S
C55 C56 1.369 . S
C55 H64 0.929 . S
C56 N53 1.346 . S
C56 C55 1.369 . S
C56 H59 0.928 . S
C57 N53 1.345 . S
C57 C58 1.371 . S
C57 H60 0.931 . S
C58 C54 1.391 . S
C58 C57 1.371 . S
C58 H65 0.930 . S
H59 C56 0.928 . S
H60 C57 0.931 . S
H61 C37 0.930 . S
H62 C34 0.930 . S
H63 C43 0.930 . S
H64 C55 0.929 . S
H65 C58 0.930 . S
C66 C67 1.351 . S
C66 N69 1.368 . S
C66 H71 0.931 . S
C67 C66 1.351 . S
C67 N68 1.373 . S
C67 H95 0.930 . S
N68 C67 1.373 . S
N68 C70 1.340 . S
N69 C66 1.368 . S
N69 C70 1.321 . S
N69 Co72 2.135 . S
C70 N68 1.340 . S
C70 N69 1.321 . S
C70 H94 0.930 . S
H71 C66 0.931 . S
Co72 N69 2.135 . S
Co72 N75 2.121 . S
Co72 O80 2.055 . S
Co72 O83 2.039 . S
Co72 N86 2.140 . S
C73 O74 1.227 . S
C73 O83 1.265 . S
O74 C73 1.227 . S
N75 Co72 2.121 . S
N75 C77 1.375 . S
N75 C78 1.313 . S
C76 C77 1.338 . S
C76 N79 1.377 . S
C76 H96 0.930 . S
C77 N75 1.375 . S
C77 C76 1.338 . S
C77 H81 0.931 . S
C78 N75 1.313 . S
C78 N79 1.344 . S
C78 H82 0.930 . S
N79 C76 1.377 . S
N79 C78 1.344 . S
O80 Co72 2.055 . S
O80 C84 1.253 . S
H81 C77 0.931 . S
H82 C78 0.930 . S
O83 Co72 2.039 . S
O83 C73 1.265 . S
C84 O80 1.253 . S
C84 O85 1.227 . S
O85 C84 1.227 . S
N86 Co72 2.140 . S
N86 C89 1.346 . S
N86 C90 1.345 . S
C87 C88 1.387 . S
C87 C91 1.391 . S
C88 C87 1.387 . S
C88 C89 1.369 . S
C88 H97 0.929 . S
C89 N86 1.346 . S
C89 C88 1.369 . S
C89 H92 0.928 . S
C90 N86 1.345 . S
C90 C91 1.371 . S
C90 H93 0.931 . S
C91 C87 1.391 . S
C91 C90 1.371 . S
C91 H98 0.930 . S
H92 C89 0.928 . S
H93 C90 0.931 . S
H94 C70 0.930 . S
H95 C67 0.930 . S
H96 C76 0.930 . S
H97 C88 0.929 . S
H98 C91 0.930 . S
C99 C100 1.351 . S
C99 N102 1.368 1_655 S
C99 H104 0.931 . S
C100 C99 1.351 . S
C100 N101 1.373 . S
C100 H128 0.930 . S
N101 C100 1.373 . S
N101 C103 1.340 1_655 S
N102 C99 1.368 1_455 S
N102 C103 1.321 . S
N102 Co105 2.135 . S
C103 N101 1.340 1_455 S
C103 N102 1.321 . S
C103 H127 0.930 . S
H104 C99 0.931 . S
Co105 N102 2.135 . S
Co105 N108 2.121 . S
Co105 O113 2.055 . S
Co105 O116 2.039 . S
Co105 N119 2.140 1_455 S
C106 O107 1.227 . S
C106 O116 1.265 . S
O107 C106 1.227 . S
N108 Co105 2.121 . S
N108 C110 1.375 . S
N108 C111 1.313 . S
C109 C110 1.338 . S
C109 N112 1.377 . S
C109 H129 0.930 . S
C110 N108 1.375 . S
C110 C109 1.338 . S
C110 H114 0.931 . S
C111 N108 1.313 . S
C111 N112 1.344 . S
C111 H115 0.930 . S
N112 C109 1.377 . S
N112 C111 1.344 . S
O113 Co105 2.055 . S
O113 C117 1.253 . S
H114 C110 0.931 . S
H115 C111 0.930 . S
O116 Co105 2.039 . S
O116 C106 1.265 . S
C117 O113 1.253 . S
C117 O118 1.227 1_455 S
O118 C117 1.227 1_655 S
N119 Co105 2.140 1_655 S
N119 C122 1.346 . S
N119 C123 1.345 . S
C120 C121 1.387 . S
C120 C124 1.391 . S
C121 C120 1.387 . S
C121 C122 1.369 . S
C121 H130 0.929 . S
C122 N119 1.346 . S
C122 C121 1.369 . S
C122 H125 0.928 . S
C123 N119 1.345 . S
C123 C124 1.371 . S
C123 H126 0.931 . S
C124 C120 1.391 . S
C124 C123 1.371 . S
C124 H131 0.930 . S
H125 C122 0.928 . S
H126 C123 0.931 . S
H127 C103 0.930 . S
H128 C100 0.930 . S
H129 C109 0.930 . S
H130 C121 0.929 . S
H131 C124 0.930 . S
C132 C133 1.351 . S
C132 N135 1.368 1_565 S
C132 H137 0.931 . S
C133 C132 1.351 . S
C133 N134 1.373 . S
C133 H161 0.930 . S
N134 C133 1.373 . S
N134 C136 1.340 1_565 S
N135 C132 1.368 1_545 S
N135 C136 1.321 . S
N135 Co138 2.135 . S
C136 N134 1.340 1_545 S
C136 N135 1.321 . S
C136 H160 0.930 . S
H137 C132 0.931 . S
Co138 N135 2.135 . S
Co138 N141 2.121 . S
Co138 O146 2.055 . S
Co138 O149 2.039 . S
Co138 N152 2.140 1_545 S
C139 O140 1.227 . S
C139 O149 1.265 . S
O140 C139 1.227 . S
N141 Co138 2.121 . S
N141 C143 1.375 . S
N141 C144 1.313 . S
C142 C143 1.338 . S
C142 N145 1.377 . S
C142 H162 0.930 . S
C143 N141 1.375 . S
C143 C142 1.338 . S
C143 H147 0.931 . S
C144 N141 1.313 . S
C144 N145 1.344 . S
C144 H148 0.930 . S
N145 C142 1.377 . S
N145 C144 1.344 . S
O146 Co138 2.055 . S
O146 C150 1.253 . S
H147 C143 0.931 . S
H148 C144 0.930 . S
O149 Co138 2.039 . S
O149 C139 1.265 . S
C150 O146 1.253 . S
C150 O151 1.227 1_545 S
O151 C150 1.227 1_565 S
N152 Co138 2.140 1_565 S
N152 C155 1.346 . S
N152 C156 1.345 . S
C153 C154 1.387 . S
C153 C157 1.391 . S
C154 C153 1.387 . S
C154 C155 1.369 . S
C154 H163 0.929 . S
C155 N152 1.346 . S
C155 C154 1.369 . S
C155 H158 0.928 . S
C156 N152 1.345 . S
C156 C157 1.371 . S
C156 H159 0.931 . S
C157 C153 1.391 . S
C157 C156 1.371 . S
C157 H164 0.930 . S
H158 C155 0.928 . S
H159 C156 0.931 . S
H160 C136 0.930 . S
H161 C133 0.930 . S
H162 C142 0.930 . S
H163 C154 0.929 . S
H164 C157 0.930 . S
C165 C166 1.351 . S
C165 N168 1.368 . S
C165 H170 0.931 . S
C166 C165 1.351 . S
C166 N167 1.373 . S
C166 H194 0.930 . S
N167 C166 1.373 . S
N167 C169 1.340 . S
N168 C165 1.368 . S
N168 C169 1.321 . S
N168 Co171 2.135 . S
C169 N167 1.340 . S
C169 N168 1.321 . S
C169 H193 0.930 . S
H170 C165 0.931 . S
Co171 N168 2.135 . S
Co171 N174 2.121 . S
Co171 O179 2.055 . S
Co171 O182 2.039 . S
Co171 N185 2.140 . S
C172 O173 1.227 . S
C172 O182 1.265 . S
O173 C172 1.227 . S
N174 Co171 2.121 . S
N174 C176 1.375 . S
N174 C177 1.313 . S
C175 C176 1.338 . S
C175 N178 1.377 . S
C175 H195 0.930 . S
C176 N174 1.375 . S
C176 C175 1.338 . S
C176 H180 0.931 . S
C177 N174 1.313 . S
C177 N178 1.344 . S
C177 H181 0.930 . S
N178 C175 1.377 . S
N178 C177 1.344 . S
O179 Co171 2.055 . S
O179 C183 1.253 . S
H180 C176 0.931 . S
H181 C177 0.930 . S
O182 Co171 2.039 . S
O182 C172 1.265 . S
C183 O179 1.253 . S
C183 O184 1.227 . S
O184 C183 1.227 . S
N185 Co171 2.140 . S
N185 C188 1.346 . S
N185 C189 1.345 . S
C186 C187 1.387 . S
C186 C190 1.391 . S
C187 C186 1.387 . S
C187 C188 1.369 . S
C187 H196 0.929 . S
C188 N185 1.346 . S
C188 C187 1.369 . S
C188 H191 0.928 . S
C189 N185 1.345 . S
C189 C190 1.371 . S
C189 H192 0.931 . S
C190 C186 1.391 . S
C190 C189 1.371 . S
C190 H197 0.930 . S
H191 C188 0.928 . S
H192 C189 0.931 . S
H193 C169 0.930 . S
H194 C166 0.930 . S
H195 C175 0.930 . S
H196 C187 0.929 . S
H197 C190 0.930 . S
C198 C199 1.351 . S
C198 N201 1.368 1_565 S
C198 H203 0.931 . S
C199 C198 1.351 . S
C199 N200 1.373 . S
C199 H227 0.930 . S
N200 C199 1.373 . S
N200 C202 1.340 1_565 S
N201 C198 1.368 1_545 S
N201 C202 1.321 . S
N201 Co204 2.135 . S
C202 N200 1.340 1_545 S
C202 N201 1.321 . S
C202 H226 0.930 . S
H203 C198 0.931 . S
Co204 N201 2.135 . S
Co204 N207 2.121 . S
Co204 O212 2.055 . S
Co204 O215 2.039 . S
Co204 N218 2.140 1_545 S
C205 O206 1.227 . S
C205 O215 1.265 . S
O206 C205 1.227 . S
N207 Co204 2.121 . S
N207 C209 1.375 . S
N207 C210 1.313 . S
C208 C209 1.338 . S
C208 N211 1.377 . S
C208 H228 0.930 . S
C209 N207 1.375 . S
C209 C208 1.338 . S
C209 H213 0.931 . S
C210 N207 1.313 . S
C210 N211 1.344 . S
C210 H214 0.930 . S
N211 C208 1.377 . S
N211 C210 1.344 . S
O212 Co204 2.055 . S
O212 C216 1.253 . S
H213 C209 0.931 . S
H214 C210 0.930 . S
O215 Co204 2.039 . S
O215 C205 1.265 . S
C216 O212 1.253 . S
C216 O217 1.227 1_545 S
O217 C216 1.227 1_565 S
N218 Co204 2.140 1_565 S
N218 C221 1.346 . S
N218 C222 1.345 . S
C219 C220 1.387 . S
C219 C223 1.391 . S
C220 C219 1.387 . S
C220 C221 1.369 . S
C220 H229 0.929 . S
C221 N218 1.346 . S
C221 C220 1.369 . S
C221 H224 0.928 . S
C222 N218 1.345 . S
C222 C223 1.371 . S
C222 H225 0.931 . S
C223 C219 1.391 . S
C223 C222 1.371 . S
C223 H230 0.930 . S
H224 C221 0.928 . S
H225 C222 0.931 . S
H226 C202 0.930 . S
H227 C199 0.930 . S
H228 C208 0.930 . S
H229 C220 0.929 . S
H230 C223 0.930 . S
C231 C232 1.351 . S
C231 N234 1.368 . S
C231 H236 0.931 . S
C232 C231 1.351 . S
C232 N233 1.373 . S
C232 H260 0.930 . S
N233 C232 1.373 . S
N233 C235 1.340 . S
N234 C231 1.368 . S
N234 C235 1.321 . S
N234 Co237 2.135 . S
C235 N233 1.340 . S
C235 N234 1.321 . S
C235 H259 0.930 . S
H236 C231 0.931 . S
Co237 N234 2.135 . S
Co237 N240 2.121 . S
Co237 O245 2.055 . S
Co237 O248 2.039 . S
Co237 N251 2.140 . S
C238 O239 1.227 . S
C238 O248 1.265 . S
O239 C238 1.227 . S
N240 Co237 2.121 . S
N240 C242 1.375 . S
N240 C243 1.313 . S
C241 C242 1.338 1_554 S
C241 N244 1.377 1_554 S
C241 H261 0.930 . S
C242 N240 1.375 . S
C242 C241 1.338 1_556 S
C242 H246 0.963 . S
C243 N240 1.313 . S
C243 N244 1.344 . S
C243 H247 0.930 . S
N244 C241 1.377 1_556 S
N244 C243 1.344 . S
O245 Co237 2.055 . S
O245 C249 1.253 . S
H246 C242 0.963 . S
H247 C243 0.930 . S
O248 Co237 2.039 . S
O248 C238 1.265 . S
C249 O245 1.253 . S
C249 O250 1.227 . S
O250 C249 1.227 . S
N251 Co237 2.140 . S
N251 C254 1.346 . S
N251 C255 1.345 . S
C252 C253 1.387 . S
C252 C256 1.391 . S
C253 C252 1.387 . S
C253 C254 1.369 . S
C253 H262 0.929 . S
C254 N251 1.346 . S
C254 C253 1.369 . S
C254 H257 0.928 . S
C255 N251 1.345 . S
C255 C256 1.371 . S
C255 H258 0.931 . S
C256 C252 1.391 . S
C256 C255 1.371 . S
C256 H263 0.930 . S
H257 C254 0.928 . S
H258 C255 0.931 . S
H259 C235 0.930 . S
H260 C232 0.930 . S
H261 C241 0.930 . S
H262 C253 0.929 . S
H263 C256 0.930 . S
C264 C265 1.351 . S
C264 N267 1.368 1_455 S
C264 H269 0.931 . S
C265 C264 1.351 . S
C265 N266 1.373 . S
C265 H293 0.930 . S
N266 C265 1.373 . S
N266 C268 1.340 1_455 S
N267 C264 1.368 1_655 S
N267 C268 1.321 . S
N267 Co270 2.135 . S
C268 N266 1.340 1_655 S
C268 N267 1.321 . S
C268 H292 0.930 . S
H269 C264 0.931 . S
Co270 N267 2.135 . S
Co270 N273 2.121 . S
Co270 O278 2.055 . S
Co270 O281 2.039 . S
Co270 N284 2.140 1_655 S
C271 O272 1.227 . S
C271 O281 1.265 . S
O272 C271 1.227 . S
N273 Co270 2.121 . S
N273 C275 1.375 . S
N273 C276 1.313 . S
C274 C275 1.338 . S
C274 N277 1.377 . S
C274 H294 0.930 . S
C275 N273 1.375 . S
C275 C274 1.338 . S
C275 H279 0.931 . S
C276 N273 1.313 . S
C276 N277 1.344 . S
C276 H280 0.930 . S
N277 C274 1.377 . S
N277 C276 1.344 . S
O278 Co270 2.055 . S
O278 C282 1.253 . S
H279 C275 0.931 . S
H280 C276 0.930 . S
O281 Co270 2.039 . S
O281 C271 1.265 . S
C282 O278 1.253 . S
C282 O283 1.227 1_655 S
O283 C282 1.227 1_455 S
N284 Co270 2.140 1_455 S
N284 C287 1.346 . S
N284 C288 1.345 . S
C285 C286 1.387 . S
C285 C289 1.391 . S
C286 C285 1.387 . S
C286 C287 1.369 . S
C286 H295 0.929 . S
C287 N284 1.346 . S
C287 C286 1.369 . S
C287 H290 0.928 . S
C288 N284 1.345 . S
C288 C289 1.371 . S
C288 H291 0.931 . S
C289 C285 1.391 . S
C289 C288 1.371 . S
C289 H296 0.930 . S
H290 C287 0.928 . S
H291 C288 0.931 . S
H292 C268 0.930 . S
H293 C265 0.930 . S
H294 C274 0.930 . S
H295 C286 0.929 . S
H296 C289 0.930 . S
C297 C298 1.351 . S
C297 N300 1.368 1_545 S
C297 H302 0.931 . S
C298 C297 1.351 . S
C298 N299 1.373 . S
C298 H326 0.930 . S
N299 C298 1.373 . S
N299 C301 1.340 1_545 S
N300 C297 1.368 1_565 S
N300 C301 1.321 . S
N300 Co303 2.135 . S
C301 N299 1.340 1_565 S
C301 N300 1.321 . S
C301 H325 0.930 . S
H302 C297 0.931 . S
Co303 N300 2.135 . S
Co303 N306 2.121 . S
Co303 O311 2.055 . S
Co303 O314 2.039 . S
Co303 N317 2.140 1_565 S
C304 O305 1.227 . S
C304 O314 1.265 . S
O305 C304 1.227 . S
N306 Co303 2.121 . S
N306 C308 1.375 . S
N306 C309 1.313 . S
C307 C308 1.338 . S
C307 N310 1.377 . S
C307 H327 0.930 . S
C308 N306 1.375 . S
C308 C307 1.338 . S
C308 H312 0.931 . S
C309 N306 1.313 . S
C309 N310 1.344 . S
C309 H313 0.930 . S
N310 C307 1.377 . S
N310 C309 1.344 . S
O311 Co303 2.055 . S
O311 C315 1.253 . S
H312 C308 0.931 . S
H313 C309 0.930 . S
O314 Co303 2.039 . S
O314 C304 1.265 . S
C315 O311 1.253 . S
C315 O316 1.227 1_565 S
O316 C315 1.227 1_545 S
N317 Co303 2.140 1_545 S
N317 C320 1.346 . S
N317 C321 1.345 . S
C318 C319 1.387 . S
C318 C322 1.391 . S
C319 C318 1.387 . S
C319 C320 1.369 . S
C319 H328 0.929 . S
C320 N317 1.346 . S
C320 C319 1.369 . S
C320 H323 0.928 . S
C321 N317 1.345 . S
C321 C322 1.371 . S
C321 H324 0.931 . S
C322 C318 1.391 . S
C322 C321 1.371 . S
C322 H329 0.930 . S
H323 C320 0.928 . S
H324 C321 0.931 . S
H325 C301 0.930 . S
H326 C298 0.930 . S
H327 C307 0.930 . S
H328 C319 0.929 . S
H329 C322 0.930 . S
C330 C331 1.351 . S
C330 N333 1.368 . S
C330 H335 0.931 . S
C331 C330 1.351 . S
C331 N332 1.373 . S
C331 H359 0.930 . S
N332 C331 1.373 . S
N332 C334 1.340 . S
N333 C330 1.368 . S
N333 C334 1.321 . S
N333 Co336 2.135 . S
C334 N332 1.340 . S
C334 N333 1.321 . S
C334 H358 0.930 . S
H335 C330 0.931 . S
Co336 N333 2.135 . S
Co336 N339 2.121 . S
Co336 O344 2.055 . S
Co336 O347 2.039 . S
Co336 N350 2.140 . S
C337 O338 1.227 . S
C337 O347 1.265 . S
O338 C337 1.227 . S
N339 Co336 2.121 . S
N339 C341 1.375 . S
N339 C342 1.313 . S
C340 C341 1.338 . S
C340 N343 1.377 . S
C340 H360 0.930 . S
C341 N339 1.375 . S
C341 C340 1.338 . S
C341 H345 0.931 . S
C342 N339 1.313 . S
C342 N343 1.344 . S
C342 H346 0.930 . S
N343 C340 1.377 . S
N343 C342 1.344 . S
O344 Co336 2.055 . S
O344 C348 1.253 . S
H345 C341 0.931 . S
H346 C342 0.930 . S
O347 Co336 2.039 . S
O347 C337 1.265 . S
C348 O344 1.253 . S
C348 O349 1.227 . S
O349 C348 1.227 . S
N350 Co336 2.140 . S
N350 C353 1.346 . S
N350 C354 1.345 . S
C351 C352 1.387 . S
C351 C355 1.391 . S
C352 C351 1.387 . S
C352 C353 1.369 . S
C352 H361 0.929 . S
C353 N350 1.346 . S
C353 C352 1.369 . S
C353 H356 0.928 . S
C354 N350 1.345 . S
C354 C355 1.371 . S
C354 H357 0.931 . S
C355 C351 1.391 . S
C355 C354 1.371 . S
C355 H362 0.930 . S
H356 C353 0.928 . S
H357 C354 0.931 . S
H358 C334 0.930 . S
H359 C331 0.930 . S
H360 C340 0.930 . S
H361 C352 0.929 . S
H362 C355 0.930 . S
C363 C364 1.351 . S
C363 N366 1.368 1_655 S
C363 H368 0.931 . S
C364 C363 1.351 . S
C364 N365 1.373 . S
C364 H392 0.930 . S
N365 C364 1.373 . S
N365 C367 1.340 1_655 S
N366 C363 1.368 1_455 S
N366 C367 1.321 . S
N366 Co369 2.135 . S
C367 N365 1.340 1_455 S
C367 N366 1.321 . S
C367 H391 0.930 . S
H368 C363 0.931 . S
Co369 N366 2.135 . S
Co369 N372 2.121 . S
Co369 O377 2.055 . S
Co369 O380 2.039 . S
Co369 N383 2.140 1_455 S
C370 O371 1.227 . S
C370 O380 1.265 . S
O371 C370 1.227 . S
N372 Co369 2.121 . S
N372 C374 1.375 . S
N372 C375 1.313 . S
C373 C374 1.338 . S
C373 N376 1.377 . S
C373 H393 0.930 . S
C374 N372 1.375 . S
C374 C373 1.338 . S
C374 H378 0.931 . S
C375 N372 1.313 . S
C375 N376 1.344 . S
C375 H379 0.930 . S
N376 C373 1.377 . S
N376 C375 1.344 . S
O377 Co369 2.055 . S
O377 C381 1.253 . S
H378 C374 0.931 . S
H379 C375 0.930 . S
O380 Co369 2.039 . S
O380 C370 1.265 . S
C381 O377 1.253 . S
C381 O382 1.227 1_455 S
O382 C381 1.227 1_655 S
N383 Co369 2.140 1_655 S
N383 C386 1.346 . S
N383 C387 1.345 . S
C384 C385 1.387 . S
C384 C388 1.391 . S
C385 C384 1.387 . S
C385 C386 1.369 . S
C385 H394 0.929 . S
C386 N383 1.346 . S
C386 C385 1.369 . S
C386 H389 0.928 . S
C387 N383 1.345 . S
C387 C388 1.371 . S
C387 H390 0.931 . S
C388 C384 1.391 . S
C388 C387 1.371 . S
C388 H395 0.930 . S
H389 C386 0.928 . S
H390 C387 0.931 . S
H391 C367 0.930 . S
H392 C364 0.930 . S
H393 C373 0.930 . S
H394 C385 0.929 . S
H395 C388 0.930 . S
C396 C397 1.363 1_545 S
C396 C402 1.379 . S
C396 N404 1.356 1_545 S
C397 C396 1.363 1_565 S
C397 C403 1.363 1_556 S
C398 C399 1.363 . S
C398 C403 1.379 1_545 S
C398 N405 1.356 . S
C399 C398 1.363 . S
C399 C402 1.363 1_554 S
N400 C402 1.356 . S
N400 H412 0.984 . S
N400 H413 0.985 1_556 S
N401 C403 1.356 . S
N401 H406 0.984 1_554 S
N401 H407 0.985 . S
C402 C396 1.379 . S
C402 C399 1.363 1_556 S
C402 N400 1.356 . S
C403 C397 1.363 1_554 S
C403 C398 1.379 1_565 S
C403 N401 1.356 . S
N404 C396 1.356 1_565 S
N404 H410 0.984 1_565 S
N404 H411 0.984 . S
N405 C398 1.356 . S
N405 H408 0.984 . S
N405 H409 0.985 1_545 S
H406 N401 0.984 1_556 S
H407 N401 0.985 . S
H408 N405 0.984 . S
H409 N405 0.985 1_565 S
H410 N404 0.984 1_545 S
H411 N404 0.984 . S
H412 N400 0.984 . S
H413 N400 0.985 1_554 S
C414 C415 1.363 . S
C414 C420 1.379 . S
C414 N422 1.356 . S
C415 C414 1.363 . S
C415 C421 1.363 . S
C416 C417 1.363 . S
C416 C421 1.379 . S
C416 N423 1.356 . S
C417 C416 1.363 . S
C417 C420 1.363 . S
N418 C420 1.356 . S
N418 H430 0.984 . S
N418 H431 0.985 . S
N419 C421 1.356 . S
N419 H424 0.984 . S
N419 H425 0.985 1_655 S
C420 C414 1.379 . S
C420 C417 1.363 . S
C420 N418 1.356 . S
C421 C415 1.363 . S
C421 C416 1.379 . S
C421 N419 1.356 . S
N422 C414 1.356 . S
N422 H428 0.984 . S
N422 H429 0.984 . S
N423 C416 1.356 . S
N423 H426 0.984 . S
N423 H427 0.985 . S
H424 N419 0.984 . S
H425 N419 0.985 1_455 S
H426 N423 0.984 . S
H427 N423 0.985 . S
H428 N422 0.984 . S
H429 N422 0.984 . S
H430 N418 0.984 . S
H431 N418 0.985 . S
C432 C433 1.363 . S
C432 C438 1.379 1_655 S
C432 N440 1.356 . S
C433 C432 1.363 . S
C433 C439 1.363 . S
C434 C435 1.363 . S
C434 C439 1.379 1_455 S
C434 N441 1.356 . S
C435 C434 1.363 . S
C435 C438 1.363 . S
N436 C438 1.356 . S
N436 H448 0.984 . S
N436 H449 0.985 . S
N437 C439 1.356 . S
N437 H442 0.984 . S
N437 H443 0.985 . S
C438 C432 1.379 1_455 S
C438 C435 1.363 . S
C438 N436 1.356 . S
C439 C433 1.363 . S
C439 C434 1.379 1_655 S
C439 N437 1.356 . S
N440 C432 1.356 . S
N440 H446 0.984 . S
N440 H447 0.984 . S
N441 C434 1.356 . S
N441 H444 0.984 . S
N441 H445 0.985 . S
H442 N437 0.984 . S
H443 N437 0.985 . S
H444 N441 0.984 . S
H445 N441 0.985 . S
H446 N440 0.984 . S
H447 N440 0.984 . S
H448 N436 0.984 . S
H449 N436 0.985 . S
C450 C451 1.363 . S
C450 C456 1.379 . S
C450 N458 1.356 . S
C451 C450 1.363 . S
C451 C457 1.363 1_545 S
C452 C453 1.363 . S
C452 C457 1.379 . S
C452 N459 1.356 . S
C453 C452 1.363 . S
C453 C456 1.363 1_565 S
N454 C456 1.356 1_565 S
N454 H466 0.984 1_565 S
N454 H467 0.985 . S
N455 C457 1.360 . S
N455 H460 0.972 1_565 S
N455 H461 0.994 . S
C456 C450 1.379 . S
C456 C453 1.363 1_545 S
C456 N454 1.356 1_545 S
C457 C451 1.363 1_565 S
C457 C452 1.379 . S
C457 N455 1.360 . S
N458 C450 1.356 . S
N458 H464 0.984 . S
N458 H465 0.984 . S
N459 C452 1.356 . S
N459 H462 0.984 . S
N459 H463 0.985 . S
H460 N455 0.972 1_545 S
H461 N455 0.994 . S
H462 N459 0.984 . S
H463 N459 0.985 . S
H464 N458 0.984 . S
H465 N458 0.984 . S
H466 N454 0.984 1_545 S
H467 N454 0.985 . S
C468 C469 1.363 . S
C468 C474 1.379 . S
C468 N476 1.356 . S
C469 C468 1.363 . S
C469 C475 1.363 . S
C470 C471 1.363 . S
C470 C475 1.379 . S
C470 N477 1.356 . S
C471 C470 1.363 . S
C471 C474 1.363 . S
N472 C474 1.356 . S
N472 H484 0.984 . S
N472 H485 0.985 . S
N473 C475 1.356 . S
N473 H478 0.984 . S
N473 H479 0.985 . S
C474 C468 1.379 . S
C474 C471 1.363 . S
C474 N472 1.356 . S
C475 C469 1.363 . S
C475 C470 1.379 . S
C475 N473 1.356 . S
N476 C468 1.356 . S
N476 H482 0.984 . S
N476 H483 0.984 . S
N477 C470 1.356 . S
N477 H480 0.984 . S
N477 H481 0.985 . S
H478 N473 0.984 . S
H479 N473 0.985 . S
H480 N477 0.984 . S
H481 N477 0.985 . S
H482 N476 0.984 . S
H483 N476 0.984 . S
H484 N472 0.984 . S
H485 N472 0.985 . S
C486 C487 1.363 . S
C486 C492 1.379 1_655 S
C486 N494 1.356 . S
C487 C486 1.363 . S
C487 C493 1.363 . S
C488 C489 1.363 . S
C488 C493 1.379 1_455 S
C488 N495 1.356 . S
C489 C488 1.363 . S
C489 C492 1.363 . S
N490 C492 1.356 . S
N490 H502 0.984 . S
N490 H503 0.985 . S
N491 C493 1.356 . S
N491 H496 0.984 . S
N491 H497 0.985 . S
C492 C486 1.379 1_455 S
C492 C489 1.363 . S
C492 N490 1.356 . S
C493 C487 1.363 . S
C493 C488 1.379 1_655 S
C493 N491 1.356 . S
N494 C486 1.356 . S
N494 H500 0.993 . S
N494 H501 0.984 . S
N495 C488 1.356 . S
N495 H498 0.984 . S
N495 H499 0.985 . S
H496 N491 0.984 . S
H497 N491 0.985 . S
H498 N495 0.984 . S
H499 N495 0.985 . S
H500 N494 0.993 . S
H501 N494 0.984 . S
H502 N490 0.984 . S
H503 N490 0.985 . S
C504 C505 1.363 1_655 S
C504 C510 1.379 1_545 S
C504 N512 1.356 . S
C505 C504 1.363 1_455 S
C505 C511 1.363 . S
C506 C507 1.363 1_545 S
C506 C511 1.379 . S
C506 N513 1.356 . S
C507 C506 1.363 1_565 S
C507 C510 1.363 1_455 S
N508 C510 1.356 . S
N508 H520 0.984 . S
N508 H521 0.985 . S
N509 C511 1.356 . S
N509 H514 0.984 . S
N509 H515 0.985 . S
C510 C504 1.379 1_565 S
C510 C507 1.363 1_655 S
C510 N508 1.356 . S
C511 C505 1.363 . S
C511 C506 1.379 . S
C511 N509 1.356 . S
N512 C504 1.356 . S
N512 H518 0.984 1_545 S
N512 H519 0.984 . S
N513 C506 1.356 . S
N513 H516 0.984 1_545 S
N513 H517 0.985 . S
H514 N509 0.984 . S
H515 N509 0.985 . S
H516 N513 0.984 1_565 S
H517 N513 0.985 . S
H518 N512 0.984 1_565 S
H519 N512 0.984 . S
H520 N508 0.984 . S
H521 N508 0.985 . S
C522 C523 1.363 1_565 S
C522 C528 1.379 1_655 S
C522 N530 1.356 . S
C523 C522 1.363 1_545 S
C523 C529 1.363 1_655 S
C524 C525 1.363 . S
C524 C529 1.379 . S
C524 N531 1.356 . S
C525 C524 1.363 . S
C525 C528 1.363 1_545 S
N526 C528 1.356 . S
N526 H538 0.984 1_455 S
N526 H539 0.985 . S
N527 C529 1.356 . S
N527 H532 0.984 1_455 S
N527 H533 0.985 . S
C528 C522 1.379 1_455 S
C528 C525 1.363 1_565 S
C528 N526 1.356 . S
C529 C523 1.363 1_455 S
C529 C524 1.379 . S
C529 N527 1.356 . S
N530 C522 1.356 . S
N530 H536 0.984 . S
N530 H537 0.984 . S
N531 C524 1.356 . S
N531 H534 0.984 . S
N531 H535 0.985 . S
H532 N527 0.984 1_655 S
H533 N527 0.985 . S
H534 N531 0.984 . S
H535 N531 0.985 . S
H536 N530 0.984 . S
H537 N530 0.984 . S
H538 N526 0.984 1_655 S
H539 N526 0.985 . S
C540 C541 1.363 . S
C540 C546 1.379 1_445 S
C540 N548 1.356 . S
C541 C540 1.363 . S
C541 C547 1.363 1_455 S
C542 C543 1.363 1_545 S
C542 C547 1.379 . S
C542 N549 1.353 . S
C543 C542 1.363 1_565 S
C543 C546 1.363 . S
N544 C546 1.356 . S
N544 H556 0.984 1_655 S
N544 H557 0.985 . S
N545 C547 1.356 . S
N545 H550 0.984 1_655 S
N545 H551 0.985 . S
C546 C540 1.379 1_665 S
C546 C543 1.363 . S
C546 N544 1.356 . S
C547 C541 1.363 1_655 S
C547 C542 1.379 . S
C547 N545 1.356 . S
N548 C540 1.356 . S
N548 H554 0.984 1_545 S
N548 H555 0.984 . S
N549 C542 1.353 . S
N549 H552 0.977 1_545 S
N549 H553 0.995 . S
H550 N545 0.984 1_455 S
H551 N545 0.985 . S
H552 N549 0.977 1_565 S
H553 N549 0.995 . S
H554 N548 0.984 1_565 S
H555 N548 0.984 . S
H556 N544 0.984 1_455 S
H557 N544 0.985 . S
C558 C559 1.363 1_565 S
C558 C564 1.379 . S
C558 N566 1.356 1_565 S
C559 C558 1.363 1_545 S
C559 C565 1.363 1_655 S
C560 C561 1.363 1_455 S
C560 C565 1.379 1_565 S
C560 N567 1.356 . S
C561 C560 1.363 1_655 S
C561 C564 1.363 . S
N562 C564 1.356 . S
N562 H574 0.984 . S
N562 H575 0.985 . S
N563 C565 1.356 . S
N563 H568 0.984 . S
N563 H569 0.985 . S
C564 C558 1.379 . S
C564 C561 1.363 . S
C564 N562 1.356 . S
C565 C559 1.363 1_455 S
C565 C560 1.379 1_545 S
C565 N563 1.356 . S
N566 C558 1.356 1_545 S
N566 H572 0.984 . S
N566 H573 0.984 . S
N567 C560 1.356 . S
N567 H570 0.984 . S
N567 H571 0.985 . S
H568 N563 0.984 . S
H569 N563 0.985 . S
H570 N567 0.984 . S
H571 N567 0.985 . S
H572 N566 0.984 . S
H573 N566 0.984 . S
H574 N562 0.984 . S
H575 N562 0.985 . S
C576 C577 1.363 1_545 S
C576 C582 1.379 1_455 S
C576 N584 1.356 . S
C577 C576 1.363 1_565 S
C577 C583 1.363 1_455 S
C578 C579 1.363 . S
C578 C583 1.379 . S
C578 N585 1.356 . S
C579 C578 1.363 . S
C579 C582 1.363 1_565 S
N580 C582 1.356 . S
N580 H592 0.984 1_655 S
N580 H593 0.985 . S
N581 C583 1.356 . S
N581 H586 0.984 1_655 S
N581 H587 0.985 . S
C582 C576 1.379 1_655 S
C582 C579 1.363 1_545 S
C582 N580 1.356 . S
C583 C577 1.363 1_655 S
C583 C578 1.379 . S
C583 N581 1.356 . S
N584 C576 1.356 . S
N584 H590 0.984 . S
N584 H591 0.984 . S
N585 C578 1.356 . S
N585 H588 0.984 . S
N585 H589 0.985 . S
H586 N581 0.984 1_455 S
H587 N581 0.985 . S
H588 N585 0.984 . S
H589 N585 0.985 . S
H590 N584 0.984 . S
H591 N584 0.984 . S
H592 N580 0.984 1_455 S
H593 N580 0.985 . S
C594 C595 1.363 . S
C594 C600 1.379 1_655 S
C594 N602 1.356 . S
C595 C594 1.363 . S
C595 C601 1.363 1_655 S
C596 C597 1.363 . S
C596 C601 1.379 1_545 S
C596 N603 1.356 . S
C597 C596 1.363 . S
C597 C600 1.363 1_545 S
N598 C600 1.356 . S
N598 H610 0.984 1_455 S
N598 H611 0.985 1_565 S
N599 C601 1.356 . S
N599 H604 0.984 1_455 S
N599 H605 0.985 1_565 S
C600 C594 1.379 1_455 S
C600 C597 1.363 1_565 S
C600 N598 1.356 . S
C601 C595 1.363 1_455 S
C601 C596 1.379 1_565 S
C601 N599 1.356 . S
N602 C594 1.356 . S
N602 H608 0.984 . S
N602 H609 0.984 . S
N603 C596 1.356 . S
N603 H606 0.984 . S
N603 H607 0.985 . S
H604 N599 0.984 1_655 S
H605 N599 0.985 1_545 S
H606 N603 0.984 . S
H607 N603 0.985 . S
H608 N602 0.984 . S
H609 N602 0.984 . S
H610 N598 0.984 1_655 S
H611 N598 0.985 1_545 S
C612 C613 1.346 1_554 S
C612 C618 1.401 . S
C612 N620 1.347 1_554 S
C613 C612 1.346 1_556 S
C613 C619 1.363 . S
C614 C615 1.363 . S
C614 C619 1.379 1_554 S
C614 N621 1.356 . S
C615 C614 1.363 . S
C615 C618 1.363 . S
N616 C618 1.356 . S
N616 H628 0.984 . S
N616 H629 0.985 . S
N617 C619 1.356 . S
N617 H622 0.984 . S
N617 H623 0.985 . S
C618 C612 1.401 . S
C618 C615 1.363 . S
C618 N616 1.356 . S
C619 C613 1.363 . S
C619 C614 1.379 1_556 S
C619 N617 1.356 . S
N620 C612 1.347 1_556 S
N620 H626 0.983 1_556 S
N620 H627 0.984 . S
N621 C614 1.356 . S
N621 H624 0.984 . S
N621 H625 0.985 . S
H622 N617 0.984 . S
H623 N617 0.985 . S
H624 N621 0.984 . S
H625 N621 0.985 . S
H626 N620 0.983 1_554 S
H627 N620 0.984 . S
H628 N616 0.984 . S
H629 N616 0.985 . S
C630 C631 1.363 . S
C630 C636 1.379 . S
C630 N638 1.356 . S
C631 C630 1.363 . S
C631 C637 1.363 . S
C632 C633 1.363 . S
C632 C637 1.379 . S
C632 N639 1.356 . S
C633 C632 1.363 . S
C633 C636 1.363 . S
N634 C636 1.356 . S
N634 H646 0.984 . S
N634 H647 0.985 . S
N635 C637 1.356 . S
N635 H640 0.984 . S
N635 H641 0.985 . S
C636 C630 1.379 . S
C636 C633 1.363 . S
C636 N634 1.356 . S
C637 C631 1.363 . S
C637 C632 1.379 . S
C637 N635 1.356 . S
N638 C630 1.356 . S
N638 H644 0.984 1_655 S
N638 H645 0.984 . S
N639 C632 1.356 . S
N639 H642 0.984 . S
N639 H643 0.985 . S
H640 N635 0.984 . S
H641 N635 0.985 . S
H642 N639 0.984 . S
H643 N639 0.985 . S
H644 N638 0.984 1_455 S
H645 N638 0.984 . S
H646 N634 0.984 . S
H647 N634 0.985 . S
C648 C649 1.363 . S
C648 C654 1.379 . S
C648 N656 1.356 . S
C649 C648 1.363 . S
C649 C655 1.363 . S
C650 C651 1.363 . S
C650 C655 1.379 . S
C650 N657 1.356 . S
C651 C650 1.363 . S
C651 C654 1.363 . S
N652 C654 1.356 . S
N652 H664 0.984 . S
N652 H665 0.985 . S
N653 C655 1.359 . S
N653 H658 0.983 . S
N653 H659 0.983 1_565 S
C654 C648 1.379 . S
C654 C651 1.363 . S
C654 N652 1.356 . S
C655 C649 1.363 . S
C655 C650 1.379 . S
C655 N653 1.359 . S
N656 C648 1.356 . S
N656 H662 0.984 . S
N656 H663 0.984 . S
N657 C650 1.356 . S
N657 H660 0.984 . S
N657 H661 0.985 1_565 S
H658 N653 0.983 . S
H659 N653 0.983 1_545 S
H660 N657 0.984 . S
H661 N657 0.985 1_545 S
H662 N656 0.984 . S
H663 N656 0.984 . S
H664 N652 0.984 . S
H665 N652 0.985 . S
C666 C667 1.363 . S
C666 C672 1.379 . S
C666 N674 1.356 . S
C667 C666 1.363 . S
C667 C673 1.363 . S
C668 C669 1.363 . S
C668 C673 1.379 . S
C668 N675 1.356 . S
C669 C668 1.363 . S
C669 C672 1.363 . S
N670 C672 1.356 . S
N670 H682 0.984 . S
N670 H683 0.985 . S
N671 C673 1.356 . S
N671 H676 0.984 . S
N671 H677 0.985 . S
C672 C666 1.379 . S
C672 C669 1.363 . S
C672 N670 1.356 . S
C673 C667 1.363 . S
C673 C668 1.379 . S
C673 N671 1.356 . S
N674 C666 1.356 . S
N674 H680 0.984 . S
N674 H681 0.984 . S
N675 C668 1.356 . S
N675 H678 0.984 . S
N675 H679 0.985 . S
H676 N671 0.984 . S
H677 N671 0.985 . S
H678 N675 0.984 . S
H679 N675 0.985 . S
H680 N674 0.984 . S
H681 N674 0.984 . S
H682 N670 0.984 . S
H683 N670 0.985 . S
C684 C685 1.363 . S
C684 C690 1.379 . S
C684 N692 1.356 . S
C685 C684 1.363 . S
C685 C691 1.363 . S
C686 C687 1.363 . S
C686 C691 1.379 . S
C686 N693 1.356 . S
C687 C686 1.363 . S
C687 C690 1.363 . S
N688 C690 1.356 . S
N688 H700 0.984 . S
N688 H701 0.985 . S
N689 C691 1.356 . S
N689 H694 0.984 . S
N689 H695 0.985 1_455 S
C690 C684 1.379 . S
C690 C687 1.363 . S
C690 N688 1.356 . S
C691 C685 1.363 . S
C691 C686 1.379 . S
C691 N689 1.356 . S
N692 C684 1.356 . S
N692 H698 0.984 . S
N692 H699 0.984 . S
N693 C686 1.356 . S
N693 H696 0.984 . S
N693 H697 0.985 . S
H694 N689 0.984 . S
H695 N689 0.985 1_655 S
H696 N693 0.984 . S
H697 N693 0.985 . S
H698 N692 0.984 . S
H699 N692 0.984 . S
H700 N688 0.984 . S
H701 N688 0.985 . S
C702 C703 1.363 . S
C702 C708 1.379 . S
C702 N710 1.356 . S
C703 C702 1.363 . S
C703 C709 1.363 . S
C704 C705 1.363 . S
C704 C709 1.379 . S
C704 N711 1.356 . S
C705 C704 1.363 . S
C705 C708 1.363 . S
N706 C708 1.356 . S
N706 H718 0.984 . S
N706 H719 0.985 . S
N707 C709 1.356 . S
N707 H712 0.984 . S
N707 H713 0.985 . S
C708 C702 1.379 . S
C708 C705 1.363 . S
C708 N706 1.356 . S
C709 C703 1.363 . S
C709 C704 1.379 . S
C709 N707 1.356 . S
N710 C702 1.356 . S
N710 H716 0.984 . S
N710 H717 0.984 . S
N711 C704 1.356 . S
N711 H714 0.984 . S
N711 H715 0.985 . S
H712 N707 0.984 . S
H713 N707 0.985 . S
H714 N711 0.984 . S
H715 N711 0.985 . S
H716 N710 0.984 . S
H717 N710 0.984 . S
H718 N706 0.984 . S
H719 N706 0.985 . S
C720 C721 1.363 . S
C720 C726 1.379 . S
C720 N728 1.356 . S
C721 C720 1.363 . S
C721 C727 1.363 . S
C722 C723 1.363 . S
C722 C727 1.379 . S
C722 N729 1.356 . S
C723 C722 1.363 . S
C723 C726 1.363 . S
N724 C726 1.356 . S
N724 H736 0.984 . S
N724 H737 0.985 . S
N725 C727 1.356 . S
N725 H730 0.984 . S
N725 H731 0.985 . S
C726 C720 1.379 . S
C726 C723 1.363 . S
C726 N724 1.356 . S
C727 C721 1.363 . S
C727 C722 1.379 . S
C727 N725 1.356 . S
N728 C720 1.356 . S
N728 H734 0.984 . S
N728 H735 0.984 . S
N729 C722 1.356 . S
N729 H732 0.984 . S
N729 H733 0.985 . S
H730 N725 0.984 . S
H731 N725 0.985 . S
H732 N729 0.984 . S
H733 N729 0.985 . S
H734 N728 0.984 . S
H735 N728 0.984 . S
H736 N724 0.984 . S
H737 N724 0.985 . S
C738 C739 1.363 . S
C738 C744 1.379 . S
C738 N746 1.356 . S
C739 C738 1.363 . S
C739 C745 1.363 1_554 S
C740 C741 1.363 . S
C740 C745 1.379 . S
C740 N747 1.356 . S
C741 C740 1.363 . S
C741 C744 1.363 1_556 S
N742 C744 1.356 . S
N742 H754 0.984 . S
N742 H755 0.985 . S
N743 C745 1.356 . S
N743 H748 0.984 . S
N743 H749 0.985 . S
C744 C738 1.379 . S
C744 C741 1.363 1_554 S
C744 N742 1.356 . S
C745 C739 1.363 1_556 S
C745 C740 1.379 . S
C745 N743 1.356 . S
N746 C738 1.356 . S
N746 H752 0.984 . S
N746 H753 0.984 . S
N747 C740 1.356 . S
N747 H750 0.984 . S
N747 H751 0.985 . S
H748 N743 0.984 . S
H749 N743 0.985 . S
H750 N747 0.984 . S
H751 N747 0.985 . S
H752 N746 0.984 . S
H753 N746 0.984 . S
H754 N742 0.984 . S
H755 N742 0.985 . S
C756 C757 1.363 . S
C756 C762 1.379 . S
C756 N764 1.356 1_565 S
C757 C756 1.363 . S
C757 C763 1.363 . S
C758 C759 1.363 . S
C758 C763 1.379 . S
C758 N765 1.356 . S
C759 C758 1.363 . S
C759 C762 1.363 . S
N760 C762 1.356 . S
N760 H772 0.984 1_565 S
N760 H773 0.985 . S
N761 C763 1.356 . S
N761 H766 0.984 . S
N761 H767 0.985 . S
C762 C756 1.379 . S
C762 C759 1.363 . S
C762 N760 1.356 . S
C763 C757 1.363 . S
C763 C758 1.379 . S
C763 N761 1.356 . S
N764 C756 1.356 1_545 S
N764 H770 0.984 . S
N764 H771 0.980 1_545 S
N765 C758 1.356 . S
N765 H768 0.984 . S
N765 H769 0.985 . S
H766 N761 0.984 . S
H767 N761 0.985 . S
H768 N765 0.984 . S
H769 N765 0.985 . S
H770 N764 0.984 . S
H771 N764 0.980 1_565 S
H772 N760 0.984 1_545 S
H773 N760 0.985 . S
C774 C775 1.363 . S
C774 C780 1.379 . S
C774 N782 1.356 . S
C775 C774 1.363 . S
C775 C781 1.363 . S
C776 C777 1.363 . S
C776 C781 1.379 . S
C776 N783 1.356 . S
C777 C776 1.363 . S
C777 C780 1.363 . S
N778 C780 1.356 . S
N778 H790 0.984 . S
N778 H791 0.985 . S
N779 C781 1.356 . S
N779 H784 0.984 . S
N779 H785 0.985 . S
C780 C774 1.379 . S
C780 C777 1.363 . S
C780 N778 1.356 . S
C781 C775 1.363 . S
C781 C776 1.379 . S
C781 N779 1.356 . S
N782 C774 1.356 . S
N782 H788 0.984 . S
N782 H789 0.984 . S
N783 C776 1.356 . S
N783 H786 0.984 . S
N783 H787 0.985 . S
H784 N779 0.984 . S
H785 N779 0.985 . S
H786 N783 0.984 . S
H787 N783 0.985 . S
H788 N782 0.984 . S
H789 N782 0.984 . S
H790 N778 0.984 . S
H791 N778 0.985 . S
C792 C793 1.363 . S
C792 C798 1.379 . S
C792 N800 1.356 . S
C793 C792 1.363 . S
C793 C799 1.363 . S
C794 C795 1.363 . S
C794 C799 1.379 . S
C794 N801 1.356 . S
C795 C794 1.363 . S
C795 C798 1.363 . S
N796 C798 1.356 . S
N796 H808 0.984 . S
N796 H809 0.985 . S
N797 C799 1.356 . S
N797 H802 0.984 . S
N797 H803 0.985 1_455 S
C798 C792 1.379 . S
C798 C795 1.363 . S
C798 N796 1.356 . S
C799 C793 1.363 . S
C799 C794 1.379 . S
C799 N797 1.356 . S
N800 C792 1.356 . S
N800 H806 0.984 . S
N800 H807 0.984 . S
N801 C794 1.356 . S
N801 H804 0.984 . S
N801 H805 0.985 . S
H802 N797 0.984 . S
H803 N797 0.985 1_655 S
H804 N801 0.984 . S
H805 N801 0.985 . S
H806 N800 0.984 . S
H807 N800 0.984 . S
H808 N796 0.984 . S
H809 N796 0.985 . S
C810 C811 1.363 . S
C810 C816 1.379 . S
C810 N818 1.356 . S
C811 C810 1.363 . S
C811 C817 1.363 . S
C812 C813 1.363 . S
C812 C817 1.379 . S
C812 N819 1.356 . S
C813 C812 1.363 . S
C813 C816 1.363 . S
N814 C816 1.356 . S
N814 H826 0.984 . S
N814 H827 0.985 . S
N815 C817 1.356 . S
N815 H820 0.984 . S
N815 H821 0.985 . S
C816 C810 1.379 . S
C816 C813 1.363 . S
C816 N814 1.356 . S
C817 C811 1.363 . S
C817 C812 1.379 . S
C817 N815 1.356 . S
N818 C810 1.356 . S
N818 H824 0.984 . S
N818 H825 0.984 . S
N819 C812 1.356 . S
N819 H822 0.984 . S
N819 H823 0.985 . S
H820 N815 0.984 . S
H821 N815 0.985 . S
H822 N819 0.984 . S
H823 N819 0.985 . S
H824 N818 0.984 . S
H825 N818 0.984 . S
H826 N814 0.984 . S
H827 N814 0.985 . S
C828 C829 1.363 . S
C828 C834 1.379 . S
C828 N836 1.356 . S
C829 C828 1.363 . S
C829 C835 1.363 . S
C830 C831 1.363 . S
C830 C835 1.379 . S
C830 N837 1.356 1_655 S
C831 C830 1.363 . S
C831 C834 1.363 . S
N832 C834 1.356 . S
N832 H844 0.984 . S
N832 H845 0.985 . S
N833 C835 1.356 1_455 S
N833 H838 0.984 . S
N833 H839 0.985 . S
C834 C828 1.379 . S
C834 C831 1.363 . S
C834 N832 1.356 . S
C835 C829 1.363 . S
C835 C830 1.379 . S
C835 N833 1.356 1_655 S
N836 C828 1.356 . S
N836 H842 0.984 . S
N836 H843 0.984 . S
N837 C830 1.356 1_455 S
N837 H840 0.984 . S
N837 H841 0.985 . S
H838 N833 0.984 . S
H839 N833 0.985 . S
H840 N837 0.984 . S
H841 N837 0.985 . S
H842 N836 0.984 . S
H843 N836 0.984 . S
H844 N832 0.984 . S
H845 N832 0.985 . S
C846 C847 1.363 . S
C846 C852 1.379 . S
C846 N854 1.356 . S
C847 C846 1.363 . S
C847 C853 1.363 . S
C848 C849 1.363 1_545 S
C848 C853 1.379 1_545 S
C848 N855 1.356 . S
C849 C848 1.363 1_565 S
C849 C852 1.363 . S
N850 C852 1.356 . S
N850 H862 0.984 . S
N850 H863 0.985 . S
N851 C853 1.356 1_545 S
N851 H856 0.984 . S
N851 H857 0.985 . S
C852 C846 1.379 . S
C852 C849 1.363 . S
C852 N850 1.356 . S
C853 C847 1.363 . S
C853 C848 1.379 1_565 S
C853 N851 1.356 1_565 S
N854 C846 1.356 . S
N854 H860 0.984 . S
N854 H861 0.984 . S
N855 C848 1.356 . S
N855 H858 0.984 . S
N855 H859 0.985 . S
H856 N851 0.984 . S
H857 N851 0.985 . S
H858 N855 0.984 . S
H859 N855 0.985 . S
H860 N854 0.984 . S
H861 N854 0.984 . S
H862 N850 0.984 . S
H863 N850 0.985 . S
C864 C865 1.363 . S
C864 C870 1.379 . S
C864 N872 1.356 . S
C865 C864 1.363 . S
C865 C871 1.363 . S
C866 C867 1.363 . S
C866 C871 1.379 . S
C866 N873 1.356 . S
C867 C866 1.363 . S
C867 C870 1.363 . S
N868 C870 1.356 . S
N868 H880 0.984 . S
N868 H881 0.985 . S
N869 C871 1.356 . S
N869 H874 0.984 . S
N869 H875 0.985 . S
C870 C864 1.379 . S
C870 C867 1.363 . S
C870 N868 1.356 . S
C871 C865 1.363 . S
C871 C866 1.379 . S
C871 N869 1.356 . S
N872 C864 1.356 . S
N872 H878 0.984 . S
N872 H879 0.984 . S
N873 C866 1.356 . S
N873 H876 0.984 . S
N873 H877 0.985 . S
H874 N869 0.984 . S
H875 N869 0.985 . S
H876 N873 0.984 . S
H877 N873 0.985 . S
H878 N872 0.984 . S
H879 N872 0.984 . S
H880 N868 0.984 . S
H881 N868 0.985 . S
C882 C883 1.363 . S
C882 C888 1.379 . S
C882 N890 1.356 1_455 S
C883 C882 1.363 . S
C883 C889 1.363 . S
C884 C885 1.363 . S
C884 C889 1.379 . S
C884 N891 1.356 . S
C885 C884 1.363 . S
C885 C888 1.363 . S
N886 C888 1.356 1_655 S
N886 H898 0.984 . S
N886 H899 0.985 . S
N887 C889 1.356 . S
N887 H892 0.984 . S
N887 H893 0.985 . S
C888 C882 1.379 . S
C888 C885 1.363 . S
C888 N886 1.356 1_455 S
C889 C883 1.363 . S
C889 C884 1.379 . S
C889 N887 1.356 . S
N890 C882 1.356 1_655 S
N890 H896 0.984 . S
N890 H897 0.984 . S
N891 C884 1.356 . S
N891 H894 0.984 . S
N891 H895 0.985 . S
H892 N887 0.984 . S
H893 N887 0.985 . S
H894 N891 0.984 . S
H895 N891 0.985 . S
H896 N890 0.984 . S
H897 N890 0.984 . S
H898 N886 0.984 . S
H899 N886 0.985 . S
C900 C901 1.363 . S
C900 C906 1.379 . S
C900 N908 1.356 . S
C901 C900 1.363 . S
C901 C907 1.363 1_545 S
C902 C903 1.362 1_565 S
C902 C907 1.377 . S
C902 N909 1.358 . S
C903 C902 1.362 1_545 S
C903 C906 1.363 . S
N904 C906 1.356 . S
N904 H916 0.984 . S
N904 H917 0.985 . S
N905 C907 1.356 . S
N905 H910 0.984 . S
N905 H911 0.985 . S
C906 C900 1.379 . S
C906 C903 1.363 . S
C906 N904 1.356 . S
C907 C901 1.363 1_565 S
C907 C902 1.377 . S
C907 N905 1.356 . S
N908 C900 1.356 . S
N908 H914 0.984 . S
N908 H915 0.984 . S
N909 C902 1.358 . S
N909 H912 0.984 . S
N909 H913 0.985 . S
H910 N905 0.984 . S
H911 N905 0.985 . S
H912 N909 0.984 . S
H913 N909 0.985 . S
H914 N908 0.984 . S
H915 N908 0.984 . S
H916 N904 0.984 . S
H917 N904 0.985 . S
C918 C919 1.363 . S
C918 C924 1.379 . S
C918 N926 1.356 . S
C919 C918 1.363 . S
C919 C925 1.363 . S
C920 C921 1.363 . S
C920 C925 1.379 . S
C920 N927 1.356 . S
C921 C920 1.363 . S
C921 C924 1.363 . S
N922 C924 1.356 . S
N922 H934 0.984 . S
N922 H935 0.985 . S
N923 C925 1.356 . S
N923 H928 0.984 . S
N923 H929 0.985 . S
C924 C918 1.379 . S
C924 C921 1.363 . S
C924 N922 1.356 . S
C925 C919 1.363 . S
C925 C920 1.379 . S
C925 N923 1.356 . S
N926 C918 1.356 . S
N926 H932 0.984 . S
N926 H933 0.984 . S
N927 C920 1.356 . S
N927 H930 0.984 . S
N927 H931 0.985 . S
H928 N923 0.984 . S
H929 N923 0.985 . S
H930 N927 0.984 . S
H931 N927 0.985 . S
H932 N926 0.984 . S
H933 N926 0.984 . S
H934 N922 0.984 . S
H935 N922 0.985 . S
C397 C238 1.627 . S
C399 C7 1.635 . S
C415 C271 1.599 . S
C417 C40 1.602 . S
C433 C73 1.627 . S
C435 C304 1.635 . S
C451 C337 1.627 . S
C453 C106 1.635 . S
C469 C139 1.599 . S
C471 C370 1.602 . S
C487 C205 1.634 . S
C489 C172 1.627 . S
C505 N2 1.652 . S
C507 N266 1.653 . S
C523 N35 1.653 . S
C525 N299 1.652 . S
C541 N332 1.624 . S
C543 N68 1.624 . S
C559 N365 1.653 . S
C561 N101 1.652 . S
C577 N134 1.653 . S
C579 N200 1.652 . S
C595 N233 1.624 . S
C597 N167 1.624 . S
C613 N244 1.168 . S
C615 C21 1.171 . S
C631 N277 1.210 . S
C633 C54 1.216 . S
C649 N310 1.227 . S
C651 C87 1.238 . S
C667 C120 1.173 . S
C669 N343 1.166 . S
C685 N376 1.210 . S
C687 C153 1.216 . S
C703 C186 1.237 . S
C705 N211 1.228 . S
C721 C219 1.173 . S
C723 N178 1.166 . S
C739 N13 1.227 . S
C741 C252 1.238 . S
C757 N46 1.210 . S
C759 C285 1.216 . S
C775 N79 1.168 . S
C777 C318 1.172 . S
C793 N112 1.227 . S
C795 C351 1.238 . S
C811 N145 1.210 . S
C813 C384 1.216 . S
C829 C282 1.566 . S
C831 C18 1.567 . S
C847 C51 1.566 . S
C849 C315 1.567 . S
C865 C348 1.619 . S
C867 C84 1.619 . S
C883 C117 1.567 . S
C885 C381 1.566 . S
C901 C150 1.566 . S
C903 C216 1.567 . S
C919 C249 1.619 . S
C921 C183 1.619 . S
