# Generated by pormake.
# Topology umb, (4)-cn, num edge types: 1
# Building blocks:
#     Node 0, Type 0, BuildingBlock: NAWXER_clean_sbu_0, # of connection points: 4
#     Node 1, Type 0, BuildingBlock: NAWXER_clean_sbu_0, # of connection points: 4
#     Node 2, Type 0, BuildingBlock: NAWXER_clean_sbu_0, # of connection points: 4
#     Node 3, Type 0, BuildingBlock: NAWXER_clean_sbu_0, # of connection points: 4
#     Node 4, Type 0, BuildingBlock: NAWXER_clean_sbu_0, # of connection points: 4
#     Node 5, Type 0, BuildingBlock: NAWXER_clean_sbu_0, # of connection points: 4
#     Node 6, Type 0, BuildingBlock: NAWXER_clean_sbu_0, # of connection points: 4
#     Node 7, Type 0, BuildingBlock: NAWXER_clean_sbu_0, # of connection points: 4
#     Node 8, Type 0, BuildingBlock: NAWXER_clean_sbu_0, # of connection points: 4
#     Node 9, Type 0, BuildingBlock: NAWXER_clean_sbu_0, # of connection points: 4
#     Node 10, Type 0, BuildingBlock: NAWXER_clean_sbu_0, # of connection points: 4
#     Node 11, Type 0, BuildingBlock: NAWXER_clean_sbu_0, # of connection points: 4
#     Edge 12, Type (0, 0), BuildingBlock: ZUJKAS_clean_linker_0, # of connection points: 2
#     Edge 13, Type (0, 0), BuildingBlock: ZUJKAS_clean_linker_0, # of connection points: 2
#     Edge 14, Type (0, 0), BuildingBlock: ZUJKAS_clean_linker_0, # of connection points: 2
#     Edge 15, Type (0, 0), BuildingBlock: ZUJKAS_clean_linker_0, # of connection points: 2
#     Edge 16, Type (0, 0), BuildingBlock: ZUJKAS_clean_linker_0, # of connection points: 2
#     Edge 17, Type (0, 0), BuildingBlock: ZUJKAS_clean_linker_0, # of connection points: 2
#     Edge 18, Type (0, 0), BuildingBlock: ZUJKAS_clean_linker_0, # of connection points: 2
#     Edge 19, Type (0, 0), BuildingBlock: ZUJKAS_clean_linker_0, # of connection points: 2
#     Edge 20, Type (0, 0), BuildingBlock: ZUJKAS_clean_linker_0, # of connection points: 2
#     Edge 21, Type (0, 0), BuildingBlock: ZUJKAS_clean_linker_0, # of connection points: 2
#     Edge 22, Type (0, 0), BuildingBlock: ZUJKAS_clean_linker_0, # of connection points: 2
#     Edge 23, Type (0, 0), BuildingBlock: ZUJKAS_clean_linker_0, # of connection points: 2
#     Edge 24, Type (0, 0), BuildingBlock: ZUJKAS_clean_linker_0, # of connection points: 2
#     Edge 25, Type (0, 0), BuildingBlock: ZUJKAS_clean_linker_0, # of connection points: 2
#     Edge 26, Type (0, 0), BuildingBlock: ZUJKAS_clean_linker_0, # of connection points: 2
#     Edge 27, Type (0, 0), BuildingBlock: ZUJKAS_clean_linker_0, # of connection points: 2
#     Edge 28, Type (0, 0), BuildingBlock: ZUJKAS_clean_linker_0, # of connection points: 2
#     Edge 29, Type (0, 0), BuildingBlock: ZUJKAS_clean_linker_0, # of connection points: 2
#     Edge 30, Type (0, 0), BuildingBlock: ZUJKAS_clean_linker_0, # of connection points: 2
#     Edge 31, Type (0, 0), BuildingBlock: ZUJKAS_clean_linker_0, # of connection points: 2
#     Edge 32, Type (0, 0), BuildingBlock: ZUJKAS_clean_linker_0, # of connection points: 2
#     Edge 33, Type (0, 0), BuildingBlock: ZUJKAS_clean_linker_0, # of connection points: 2
#     Edge 34, Type (0, 0), BuildingBlock: ZUJKAS_clean_linker_0, # of connection points: 2
#     Edge 35, Type (0, 0), BuildingBlock: ZUJKAS_clean_linker_0, # of connection points: 2
# Relax obj value: 0.192
# Max RMSD: 0.212
# Mean RMSD: 0.211
data_MOF--net-umb--node1-NAWXER_clean_sbu_0--edge1-ZUJKAS_clean_linker_0
_symmetry_space_group_name_H-M    P1
_symmetry_Int_Tables_number       1
_symmetry_cell_setting            triclinic
loop_
_symmetry_equiv_pos_as_xyz
'x, y, z'
_cell_length_a     59.763805
_cell_length_b     60.085122
_cell_length_c     49.839345
_cell_angle_alpha  90.222795
_cell_angle_beta   89.918498
_cell_angle_gamma 119.81924
loop_
_atom_site_label
_atom_site_type_symbol
_atom_site_fract_x
_atom_site_fract_y
_atom_site_fract_z
_atom_type_partial_charge
C0 C 0.57535 0.22275 0.34535 0.0
C1 C 0.53209 0.13072 0.33267 0.0
O2 O 0.58437 0.20931 0.33546 0.0
Zn3 Zn 0.55368 0.17684 0.3392 0.0
O4 O 0.55211 0.21177 0.3541 0.0
Zn5 Zn 0.51985 0.17335 0.35685 0.0
O6 O 0.51512 0.16919 0.39574 0.0
O7 O 0.55144 0.17189 0.38204 0.0
O8 O 0.51724 0.13756 0.34431 0.0
O9 O 0.55468 0.14761 0.3258 0.0
O10 O 0.52858 0.18115 0.31178 0.0
O11 O 0.49494 0.17695 0.33428 0.0
C12 C 0.53602 0.1694 0.40121 0.0
C13 C 0.5072 0.18126 0.31226 0.0
C14 C 0.3223 0.53719 0.68893 0.0
C15 C 0.37064 0.49369 0.67582 0.0
O16 O 0.34445 0.54508 0.67878 0.0
Zn17 Zn 0.34503 0.51422 0.68211 0.0
O18 O 0.30921 0.51398 0.69736 0.0
Zn19 Zn 0.31503 0.48084 0.69877 0.0
O20 O 0.31297 0.47479 0.73734 0.0
O21 O 0.34693 0.51122 0.72532 0.0
O22 O 0.34924 0.47851 0.68759 0.0
O23 O 0.37523 0.51573 0.66862 0.0
O24 O 0.31584 0.49067 0.65393 0.0
O25 O 0.28713 0.4563 0.67525 0.0
C26 C 0.33337 0.49539 0.74382 0.0
C27 C 0.29467 0.46925 0.65371 0.0
C28 C 0.82851 0.39463 0.06526 0.0
C29 C 0.80712 0.34495 0.98092 0.0
O30 O 0.83506 0.37725 0.06504 0.0
Zn31 Zn 0.83465 0.34895 0.03777 0.0
O32 O 0.81904 0.3985 0.0441 0.0
Zn33 Zn 0.81974 0.37199 1.02188 0.0
O34 O 0.79325 0.33842 0.04339 0.0
O35 O 0.81284 0.31754 0.05765 0.0
O36 O 0.80446 0.36426 0.9861 0.0
O37 O 0.81825 0.33793 0.99821 0.0
O38 O 0.87089 0.36028 1.03303 0.0
O39 O 0.86001 0.38716 1.01542 0.0
C40 C 0.79268 0.31955 0.05585 0.0
C41 C 0.87727 0.38108 1.02072 0.0
C42 C 0.44087 0.82214 0.39248 0.0
C43 C 0.4752 0.8067 0.309 0.0
O44 O 0.46109 0.8204 0.38952 0.0
Zn45 Zn 0.46027 0.81752 0.35074 0.0
O46 O 0.42802 0.82165 0.3716 0.0
Zn47 Zn 0.43055 0.81803 0.32845 0.0
O48 O 0.39877 0.78759 0.32019 0.0
O49 O 0.42585 0.78109 0.34472 0.0
O50 O 0.4558 0.80989 0.30516 0.0
O51 O 0.48501 0.81032 0.33235 0.0
O52 O 0.46857 0.85521 0.33799 0.0
O53 O 0.43504 0.8493 0.31399 0.0
C54 C 0.40434 0.77238 0.33226 0.0
C55 C 0.45702 0.86436 0.32394 0.0
C56 C 0.68192 0.51651 0.64534 0.0
C57 C 0.64189 0.48184 0.73333 0.0
O58 O 0.68752 0.52838 0.66767 0.0
Zn59 Zn 0.66078 0.50072 0.68968 0.0
O60 O 0.66252 0.49381 0.64412 0.0
Zn61 Zn 0.63441 0.46635 0.67034 0.0
O62 O 0.60237 0.4611 0.6571 0.0
O63 O 0.62416 0.4978 0.6789 0.0
O64 O 0.63064 0.46646 0.71361 0.0
O65 O 0.66065 0.50423 0.72861 0.0
O66 O 0.67192 0.47153 0.6872 0.0
O67 O 0.64072 0.4387 0.66535 0.0
C68 C 0.6037 0.48138 0.66642 0.0
C69 C 0.66239 0.44889 0.67723 0.0
C70 C 0.18132 0.61408 0.06583 0.0
C71 C 0.18797 0.65578 0.97878 0.0
O72 O 0.18086 0.63468 0.06138 0.0
Zn73 Zn 0.18354 0.63481 1.02224 0.0
O74 O 0.18384 0.60191 0.04594 0.0
Zn75 Zn 0.1879 0.60591 1.00308 0.0
O76 O 0.22104 0.6092 0.99729 0.0
O77 O 0.22301 0.64381 1.0153 0.0
O78 O 0.18967 0.63536 0.97686 0.0
O79 O 0.18321 0.66215 1.00156 0.0
O80 O 0.14786 0.60092 1.01072 0.0
O81 O 0.15874 0.57508 0.99028 0.0
C82 C 0.23431 0.6322 1.00548 0.0
C83 C 0.14134 0.57957 0.99873 0.0
C84 C 0.78672 0.45724 0.38316 0.0
C85 C 0.87848 0.50131 0.39749 0.0
O86 O 0.8009 0.44949 0.39373 0.0
Zn87 Zn 0.83232 0.48043 0.39051 0.0
O88 O 0.79686 0.48044 0.37472 0.0
Zn89 Zn 0.83573 0.51376 0.37372 0.0
O90 O 0.8402 0.51973 0.33511 0.0
O91 O 0.83754 0.48331 0.34745 0.0
O92 O 0.87217 0.51654 0.38599 0.0
O93 O 0.86102 0.47898 0.40392 0.0
O94 O 0.82636 0.50406 0.41849 0.0
O95 O 0.83176 0.53814 0.39676 0.0
C96 C 0.83997 0.49907 0.32883 0.0
C97 C 0.82637 0.52537 0.41841 0.0
C98 C 0.34239 0.77076 0.71633 0.0
C99 C 0.39032 0.86264 0.73113 0.0
O100 O 0.36518 0.7843 0.72535 0.0
Zn101 Zn 0.36626 0.81651 0.72327 0.0
O102 O 0.32954 0.78159 0.70901 0.0
Zn103 Zn 0.33513 0.81997 0.70787 0.0
O104 O 0.33338 0.82486 0.6692 0.0
O105 O 0.36741 0.82199 0.6807 0.0
O106 O 0.36813 0.85565 0.7207 0.0
O107 O 0.39669 0.84587 0.73622 0.0
O108 O 0.3372 0.81054 0.75211 0.0
O109 O 0.30723 0.81559 0.73202 0.0
C110 C 0.35385 0.8247 0.66246 0.0
C111 C 0.3156 0.81021 0.75308 0.0
C112 C 0.56543 0.37509 0.99932 0.0
C113 C 0.52848 0.33275 0.08561 0.0
O114 O 0.54404 0.35466 1.00323 0.0
Zn115 Zn 0.54602 0.35403 0.0422 0.0
O116 O 0.57988 0.3868 1.01954 0.0
Zn117 Zn 0.57893 0.38232 0.06263 0.0
O118 O 0.60806 0.37787 0.06942 0.0
O119 O 0.57635 0.34499 0.04831 0.0
O120 O 0.5505 0.35315 0.088 0.0
O121 O 0.51806 0.32633 0.06254 0.0
O122 O 0.54488 0.38838 0.05315 0.0
O123 O 0.58069 0.41327 0.07553 0.0
C124 C 0.59875 0.35558 0.05927 0.0
C125 C 0.55947 0.40944 0.0657 0.0
C126 C 0.15512 0.5115 0.33347 0.0
C127 C 0.1644 0.48007 0.42216 0.0
O128 O 0.14956 0.48861 0.33901 0.0
Zn129 Zn 0.15726 0.49415 0.37751 0.0
O130 O 0.16256 0.52825 0.35237 0.0
Zn131 Zn 0.17029 0.53071 0.39492 0.0
O132 O 0.20576 0.55593 0.39603 0.0
O133 O 0.19821 0.52052 0.37472 0.0
O134 O 0.16981 0.5035 0.42209 0.0
O135 O 0.15584 0.46689 0.40077 0.0
O136 O 0.12712 0.50155 0.39154 0.0
O137 O 0.14687 0.54027 0.40956 0.0
C138 C 0.214 0.54335 0.3828 0.0
C139 C 0.1261 0.52016 0.4032 0.0
C140 C 0.6587 0.18119 0.76297 0.0
C141 C 0.61793 0.16712 0.67373 0.0
O142 O 0.66623 0.17547 0.74144 0.0
Zn143 Zn 0.63768 0.17105 0.71843 0.0
O144 O 0.63705 0.18076 0.76312 0.0
Zn145 Zn 0.60724 0.17508 0.73543 0.0
O146 O 0.5769 0.1456 0.74853 0.0
O147 O 0.60467 0.13562 0.73096 0.0
O148 O 0.60496 0.16989 0.69267 0.0
O149 O 0.63844 0.16668 0.67951 0.0
O150 O 0.64398 0.20937 0.721 0.0
O151 O 0.60931 0.20793 0.73865 0.0
C152 C 0.58277 0.1287 0.74204 0.0
C153 C 0.63209 0.22087 0.7294 0.0
C154 C 0.42938 0.59333 1.0084 0.0
C155 C 0.4607 0.64086 0.09378 0.0
O156 O 0.45275 0.6118 1.00761 0.0
Zn157 Zn 0.48125 0.63999 0.03377 0.0
O158 O 0.41732 0.58785 1.03064 0.0
Zn159 Zn 0.44496 0.61465 0.0526 0.0
O160 O 0.4488 0.64861 0.03487 0.0
O161 O 0.48704 0.67122 1.01556 0.0
O162 O 0.43925 0.62042 0.08984 0.0
O163 O 0.47758 0.64941 0.07492 0.0
O164 O 0.50793 0.63045 0.03437 0.0
O165 O 0.47263 0.60242 0.05546 0.0
C166 C 0.4651 0.66839 1.02177 0.0
C167 C 0.49569 0.6098 0.04766 0.0
H168 H 0.51015 0.16682 0.44804 0.0
H169 H 0.52375 0.16548 0.49421 0.0
H170 H 0.59164 0.16593 0.46418 0.0
H171 H 0.5785 0.16759 0.41828 0.0
H172 H 0.53377 0.12985 0.51976 0.0
H173 H 0.62211 0.2255 0.51727 0.0
H174 H 0.59712 0.21521 0.49219 0.0
H175 H 0.62041 0.20457 0.49058 0.0
C176 C 0.52798 0.16664 0.45127 0.0
C177 C 0.54329 0.16751 0.42936 0.0
C178 C 0.53573 0.16587 0.47769 0.0
C179 C 0.559 0.16612 0.48274 0.0
C180 C 0.57395 0.16636 0.46089 0.0
H181 H 0.64192 0.16516 0.62714 0.0
H182 H 0.62724 0.16361 0.5808 0.0
C183 C 0.56627 0.16715 0.43457 0.0
C184 C 0.56765 0.16587 0.51076 0.0
H185 H 0.6173 0.19923 0.5548 0.0
C186 C 0.55196 0.14509 0.52747 0.0
C187 C 0.59146 0.1857 0.52084 0.0
C188 C 0.60866 0.20913 0.5044 0.0
C189 C 0.55963 0.14338 0.55373 0.0
C190 C 0.58346 0.1632 0.56379 0.0
C191 C 0.59914 0.18396 0.54708 0.0
C192 C 0.59203 0.16324 0.5919 0.0
C193 C 0.54235 0.1201 0.57031 0.0
C194 C 0.57729 0.16376 0.61357 0.0
C195 C 0.58561 0.16466 0.63998 0.0
C196 C 0.609 0.1652 0.64546 0.0
C197 C 0.62377 0.16465 0.62371 0.0
C198 C 0.61543 0.16381 0.5972 0.0
H199 H 0.52885 0.10368 0.55753 0.0
H200 H 0.55383 0.11405 0.58267 0.0
H201 H 0.53065 0.12483 0.58403 0.0
H202 H 0.55949 0.16391 0.61006 0.0
H203 H 0.57374 0.1652 0.65613 0.0
H204 H 0.37748 0.53617 0.76335 0.0
H205 H 0.38964 0.54851 0.81005 0.0
H206 H 0.31902 0.48263 0.83618 0.0
H207 H 0.30684 0.46981 0.78929 0.0
H208 H 0.36454 0.56122 0.84748 0.0
H209 H 0.37198 0.47755 0.88293 0.0
H210 H 0.37036 0.48374 0.84779 0.0
H211 H 0.34163 0.4698 0.86794 0.0
C212 C 0.36457 0.52409 0.77897 0.0
C213 C 0.34117 0.50191 0.77245 0.0
C214 C 0.37157 0.53124 0.80574 0.0
C215 C 0.35543 0.51642 0.82677 0.0
C216 C 0.33209 0.49414 0.8204 0.0
H217 H 0.38012 0.5523 1.00076 0.0
H218 H 0.35959 0.53199 0.95784 0.0
C219 C 0.32509 0.48689 0.79353 0.0
C220 C 0.3628 0.52513 0.85512 0.0
H221 H 0.37855 0.50913 0.91528 0.0
C222 C 0.36747 0.54973 0.86229 0.0
C223 C 0.36649 0.51014 0.87462 0.0
C224 C 0.36258 0.48392 0.86799 0.0
C225 C 0.37615 0.55988 0.8881 0.0
C226 C 0.38056 0.54522 0.90731 0.0
C227 C 0.3751 0.52031 0.90054 0.0
C228 C 0.3929 0.55644 0.93361 0.0
C229 C 0.38082 0.58642 0.89457 0.0
C230 C 0.41853 0.57653 0.93427 0.0
C231 C 0.43028 0.588 0.95858 0.0
C232 C 0.41672 0.57972 0.98299 0.0
C233 C 0.39113 0.5592 0.98239 0.0
C234 C 0.37937 0.54756 0.95789 0.0
H235 H 0.37059 0.59251 0.88036 0.0
H236 H 0.37449 0.58729 0.91531 0.0
H237 H 0.40178 0.60033 0.89313 0.0
H238 H 0.42944 0.58349 0.91584 0.0
H239 H 0.45001 0.60367 0.95812 0.0
H240 H 0.84541 0.45933 0.3099 0.0
H241 H 0.84423 0.44584 0.26347 0.0
H242 H 0.83478 0.50875 0.23642 0.0
H243 H 0.8365 0.52278 0.28304 0.0
H244 H 0.80475 0.42998 0.22833 0.0
H245 H 0.89119 0.51483 0.18661 0.0
H246 H 0.88528 0.51004 0.22221 0.0
H247 H 0.86829 0.52178 0.20234 0.0
C248 C 0.84338 0.47055 0.29412 0.0
C249 C 0.84111 0.49221 0.30029 0.0
C250 C 0.84266 0.46274 0.2675 0.0
C251 C 0.83965 0.47635 0.2463 0.0
C252 C 0.83766 0.4982 0.25231 0.0
H253 H 0.81816 0.43403 0.07415 0.0
H254 H 0.8202 0.45533 0.11709 0.0
C255 C 0.83854 0.50614 0.27903 0.0
C256 C 0.83731 0.46666 0.21821 0.0
H257 H 0.86532 0.48166 0.15601 0.0
C258 C 0.81799 0.44136 0.21255 0.0
C259 C 0.85445 0.4815 0.19745 0.0
C260 C 0.87613 0.50847 0.2024 0.0
C261 C 0.81558 0.43041 0.187 0.0
C262 C 0.83307 0.445 0.16648 0.0
C263 C 0.85192 0.47053 0.17178 0.0
C264 C 0.83302 0.4333 0.14009 0.0
C265 C 0.79443 0.40316 0.18216 0.0
C266 C 0.84001 0.41424 0.1387 0.0
C267 C 0.839 0.40219 0.11432 0.0
C268 C 0.83092 0.40885 0.09064 0.0
C269 C 0.82442 0.42838 0.09196 0.0
C270 C 0.82559 0.44059 0.11646 0.0
H271 H 0.7791 0.39664 0.19769 0.0
H272 H 0.78553 0.40119 0.16211 0.0
H273 H 0.80274 0.39026 0.18272 0.0
H274 H 0.84604 0.40849 0.15661 0.0
H275 H 0.84421 0.3873 0.11419 0.0
H276 H 0.39788 0.82514 0.40572 0.0
H277 H 0.38259 0.82791 0.45051 0.0
H278 H 0.44741 0.82604 0.48589 0.0
H279 H 0.46302 0.82355 0.44118 0.0
H280 H 0.36849 0.79374 0.49292 0.0
H281 H 0.4504 0.88832 0.52244 0.0
H282 H 0.44497 0.87695 0.48818 0.0
H283 H 0.46009 0.86583 0.51162 0.0
C284 C 0.40902 0.82548 0.423 0.0
C285 C 0.43181 0.82426 0.41975 0.0
C286 C 0.4002 0.82703 0.44863 0.0
C287 C 0.41402 0.82758 0.47163 0.0
C288 C 0.43668 0.82621 0.46848 0.0
H289 H 0.39715 0.82593 0.643 0.0
H290 H 0.41014 0.82723 0.59642 0.0
C291 C 0.44552 0.82464 0.44285 0.0
C292 C 0.40436 0.82883 0.4989 0.0
H293 H 0.42129 0.86362 0.5572 0.0
C294 C 0.37992 0.80915 0.5069 0.0
C295 C 0.41922 0.84897 0.51715 0.0
C296 C 0.44502 0.87136 0.50939 0.0
C297 C 0.37038 0.80854 0.53291 0.0
C298 C 0.38548 0.82842 0.55133 0.0
C299 C 0.40969 0.84836 0.54313 0.0
C300 C 0.37725 0.82815 0.57967 0.0
C301 C 0.34465 0.78609 0.54076 0.0
C302 C 0.35453 0.82862 0.58597 0.0
C303 C 0.34694 0.82785 0.61281 0.0
C304 C 0.362 0.8267 0.63388 0.0
C305 C 0.38497 0.82674 0.6274 0.0
C306 C 0.3925 0.82751 0.6007 0.0
H307 H 0.33824 0.76976 0.52652 0.0
H308 H 0.3455 0.77932 0.56123 0.0
H309 H 0.3299 0.79217 0.5408 0.0
H310 H 0.34268 0.82963 0.57014 0.0
H311 H 0.32921 0.82795 0.61703 0.0
H312 H 0.54065 0.35541 0.95122 0.0
H313 H 0.55407 0.37432 0.90647 0.0
H314 H 0.62143 0.43877 0.94075 0.0
H315 H 0.6085 0.41989 0.98527 0.0
H316 H 0.56169 0.42044 0.88728 0.0
H317 H 0.65308 0.41805 0.88077 0.0
H318 H 0.629 0.4006 0.906 0.0
H319 H 0.65105 0.4344 0.91007 0.0
C320 C 0.55844 0.3735 0.94921 0.0
C321 C 0.57357 0.38599 0.97191 0.0
C322 C 0.56606 0.38433 0.9236 0.0
C323 C 0.58901 0.40779 0.92009 0.0
C324 C 0.604 0.42037 0.94275 0.0
H325 H 0.66504 0.50555 0.78096 0.0
H326 H 0.65188 0.48871 0.82659 0.0
C327 C 0.59646 0.40956 0.96829 0.0
C328 C 0.59693 0.41951 0.89292 0.0
H329 H 0.64601 0.4418 0.8471 0.0
C330 C 0.58008 0.42498 0.87846 0.0
C331 C 0.62099 0.4256 0.88138 0.0
C332 C 0.63949 0.41915 0.89522 0.0
C333 C 0.58673 0.43659 0.85302 0.0
C334 C 0.61076 0.44265 0.84151 0.0
C335 C 0.62768 0.43732 0.856 0.0
C336 C 0.61823 0.45347 0.81397 0.0
C337 C 0.56812 0.44266 0.83885 0.0
C338 C 0.60379 0.43925 0.7917 0.0
C339 C 0.61127 0.44876 0.76569 0.0
C340 C 0.63344 0.47275 0.76125 0.0
C341 C 0.64779 0.4871 0.78362 0.0
C342 C 0.64034 0.47746 0.80971 0.0
H343 H 0.55409 0.44331 0.85303 0.0
H344 H 0.57853 0.46133 0.82826 0.0
H345 H 0.55709 0.4275 0.82373 0.0
H346 H 0.58695 0.4205 0.7944 0.0
H347 H 0.59977 0.43709 0.74901 0.0
H348 H 0.1592 0.55664 0.31724 0.0
H349 H 0.16188 0.57228 0.27166 0.0
H350 H 0.15383 0.5017 0.24024 0.0
H351 H 0.15057 0.48557 0.2861 0.0
H352 H 0.198 0.58156 0.23443 0.0
H353 H 0.10228 0.50938 0.19457 0.0
H354 H 0.10986 0.51233 0.2299 0.0
H355 H 0.12068 0.49578 0.20793 0.0
C356 C 0.15767 0.54422 0.30069 0.0
C357 C 0.15458 0.51975 0.30543 0.0
C358 C 0.15927 0.55327 0.27455 0.0
C359 C 0.15783 0.53816 0.25236 0.0
C360 C 0.15445 0.51356 0.25694 0.0
H361 H 0.17783 0.5687 0.08074 0.0
H362 H 0.17244 0.55086 0.12579 0.0
C363 C 0.15267 0.50437 0.28321 0.0
C364 C 0.16113 0.54887 0.2247 0.0
H365 H 0.1322 0.53884 0.1632 0.0
C366 C 0.18353 0.57224 0.21892 0.0
C367 C 0.14231 0.53677 0.20434 0.0
C368 C 0.11732 0.51231 0.20949 0.0
C369 C 0.18773 0.58364 0.19343 0.0
C370 C 0.16892 0.57157 0.17312 0.0
C371 C 0.14661 0.54813 0.17878 0.0
C372 C 0.17223 0.58276 0.14576 0.0
C373 C 0.21255 0.60829 0.18829 0.0
C374 C 0.17371 0.60662 0.14184 0.0
C375 C 0.17677 0.61695 0.11598 0.0
C376 C 0.1784 0.60359 0.09348 0.0
C377 C 0.17678 0.57964 0.09754 0.0
C378 C 0.17362 0.56932 0.12333 0.0
H379 H 0.22743 0.61187 0.20367 0.0
H380 H 0.22041 0.60797 0.16818 0.0
H381 H 0.20874 0.62457 0.18887 0.0
H382 H 0.17228 0.61719 0.15879 0.0
H383 H 0.17779 0.63534 0.11364 0.0
H384 H 0.75981 0.40886 0.40271 0.0
H385 H 0.71509 0.37721 0.39413 0.0
H386 H 0.70533 0.43258 0.34833 0.0
H387 H 0.75074 0.46469 0.35649 0.0
H388 H 0.66819 0.37644 0.40412 0.0
H389 H 0.68754 0.37331 0.29497 0.0
H390 H 0.71355 0.38932 0.31871 0.0
H391 H 0.69416 0.40332 0.30986 0.0
C392 C 0.74821 0.4145 0.39096 0.0
C393 C 0.7589 0.43917 0.37994 0.0
C394 C 0.72257 0.3964 0.38624 0.0
C395 C 0.70703 0.40253 0.37043 0.0
C396 C 0.71718 0.42747 0.36034 0.0
H397 H 0.55961 0.25732 0.35696 0.0
H398 H 0.58637 0.30404 0.35981 0.0
C399 C 0.74303 0.44574 0.36507 0.0
C400 C 0.68108 0.38166 0.36314 0.0
H401 H 0.65112 0.33808 0.31296 0.0
C402 C 0.6639 0.36833 0.38404 0.0
C403 C 0.67574 0.37133 0.33687 0.0
C404 C 0.69365 0.3849 0.31372 0.0
C405 C 0.64295 0.34361 0.38001 0.0
C406 C 0.63892 0.33238 0.35421 0.0
C407 C 0.6545 0.34682 0.33272 0.0
C408 C 0.62192 0.30455 0.35018 0.0
C409 C 0.62688 0.32887 0.40387 0.0
C410 C 0.633 0.28953 0.34304 0.0
C411 C 0.61782 0.26295 0.34116 0.0
C412 C 0.59129 0.25092 0.34654 0.0
C413 C 0.5801 0.26605 0.35306 0.0
C414 C 0.5953 0.29272 0.35471 0.0
H415 H 0.63478 0.3393 0.42308 0.0
H416 H 0.607 0.32556 0.40149 0.0
H417 H 0.62571 0.30987 0.40519 0.0
H418 H 0.65357 0.29836 0.33955 0.0
H419 H 0.62698 0.25184 0.336 0.0
H420 H 0.36522 0.7419 0.72533 0.0
H421 H 0.34522 0.69532 0.72308 0.0
H422 H 0.27209 0.68915 0.70327 0.0
H423 H 0.29208 0.73593 0.70495 0.0
H424 H 0.30255 0.65694 0.75203 0.0
H425 H 0.2847 0.65093 0.64166 0.0
H426 H 0.3058 0.68107 0.65803 0.0
H427 H 0.27153 0.66624 0.66233 0.0
C428 C 0.3449 0.73069 0.72047 0.0
C429 C 0.3303 0.74259 0.71505 0.0
C430 C 0.33346 0.70408 0.71934 0.0
C431 C 0.30724 0.68889 0.71288 0.0
C432 C 0.29243 0.70061 0.70796 0.0
H433 H 0.27804 0.52943 0.7142 0.0
H434 H 0.26361 0.56098 0.72021 0.0
C435 C 0.3039 0.72731 0.70892 0.0
C436 C 0.29625 0.66091 0.71026 0.0
H437 H 0.28218 0.61505 0.66255 0.0
C438 C 0.29732 0.64741 0.73265 0.0
C439 C 0.28918 0.64864 0.68495 0.0
C440 C 0.28776 0.66236 0.66026 0.0
C441 C 0.29426 0.62283 0.72987 0.0
C442 C 0.28967 0.61156 0.70407 0.0
C443 C 0.28572 0.6239 0.68227 0.0
C444 C 0.29555 0.59095 0.69819 0.0
C445 C 0.29855 0.61027 0.75396 0.0
C446 C 0.31779 0.59725 0.68325 0.0
C447 C 0.326 0.57949 0.6798 0.0
C448 C 0.31212 0.55499 0.69123 0.0
C449 C 0.28921 0.54826 0.70533 0.0
C450 C 0.28096 0.56619 0.7088 0.0
H451 H 0.30322 0.62231 0.77234 0.0
H452 H 0.28091 0.59163 0.7579 0.0
H453 H 0.31458 0.60638 0.74998 0.0
H454 H 0.32936 0.61632 0.675 0.0
H455 H 0.34359 0.58525 0.66862 0.0
H456 H 0.64436 0.37022 0.08506 0.0
H457 H 0.66713 0.34601 0.0891 0.0
H458 H 0.60772 0.28409 0.04284 0.0
H459 H 0.58472 0.30813 0.03861 0.0
H460 H 0.64615 0.29073 0.10921 0.0
H461 H 0.6789 0.30913 1.00258 0.0
H462 H 0.66862 0.32901 1.01978 0.0
H463 H 0.64531 0.29692 1.01012 0.0
C464 C 0.63611 0.35147 0.07572 0.0
C465 C 0.61285 0.34122 0.0613 0.0
C466 C 0.64902 0.33758 0.07825 0.0
C467 C 0.639 0.31329 0.06634 0.0
C468 C 0.61569 0.30283 0.05218 0.0
H469 H 0.75564 0.27427 0.03548 0.0
H470 H 0.70969 0.25849 0.04284 0.0
C471 C 0.60268 0.31666 0.04969 0.0
C472 C 0.65414 0.29999 0.06732 0.0
H473 H 0.69817 0.29275 1.03075 0.0
C474 C 0.65717 0.29058 0.09197 0.0
C475 C 0.668 0.29935 0.04466 0.0
C476 C 0.66525 0.30916 1.01772 0.0
C477 C 0.67514 0.28215 0.09495 0.0
C478 C 0.69091 0.28395 0.07292 0.0
C479 C 0.68615 0.29127 0.04773 0.0
C480 C 0.71563 0.28398 0.07628 0.0
C481 C 0.67764 0.27231 0.12191 0.0
C482 C 0.73408 0.30175 0.09418 0.0
C483 C 0.76021 0.31026 0.09032 0.0
C484 C 0.76825 0.30134 0.0684 0.0
C485 C 0.74978 0.28101 0.05285 0.0
C486 C 0.72353 0.27221 0.0569 0.0
H487 H 0.65839 0.261 0.13146 0.0
H488 H 0.68673 0.26013 0.1203 0.0
H489 H 0.68952 0.28882 0.13534 0.0
H490 H 0.7288 0.31162 0.10891 0.0
H491 H 0.77421 0.32637 0.10215 0.0
H492 H 0.39575 0.73691 0.37005 0.0
H493 H 0.37072 0.69043 0.36534 0.0
H494 H 0.35278 0.6987 0.28331 0.0
H495 H 0.37659 0.74547 0.28869 0.0
H496 H 0.31238 0.66586 0.30537 0.0
H497 H 0.38392 0.63845 0.33291 0.0
H498 H 0.38392 0.6587 0.35928 0.0
H499 H 0.39318 0.67136 0.32572 0.0
C500 C 0.38635 0.72873 0.35108 0.0
C501 C 0.38774 0.74456 0.32984 0.0
C502 C 0.37254 0.70219 0.34816 0.0
C503 C 0.36069 0.69099 0.3236 0.0
C504 C 0.36208 0.70689 0.30231 0.0
H505 H 0.23262 0.53373 0.33695 0.0
H506 H 0.27344 0.56354 0.3151 0.0
C507 C 0.37536 0.73352 0.30548 0.0
C508 C 0.34412 0.66279 0.32175 0.0
H509 H 0.33871 0.60827 0.34877 0.0
C510 C 0.31842 0.65304 0.31373 0.0
C511 C 0.35201 0.6458 0.33201 0.0
C512 C 0.37989 0.65421 0.3376 0.0
C513 C 0.29978 0.62767 0.31919 0.0
C514 C 0.3071 0.61195 0.33333 0.0
C515 C 0.3332 0.62062 0.33834 0.0
C516 C 0.28755 0.59 0.34858 0.0
C517 C 0.27191 0.6187 0.31258 0.0
C518 C 0.28288 0.59453 0.37505 0.0
C519 C 0.25954 0.57793 0.38734 0.0
C520 C 0.24081 0.55642 0.37338 0.0
C521 C 0.24681 0.55025 0.34811 0.0
C522 C 0.27009 0.56715 0.33562 0.0
H523 H 0.26963 0.63302 0.30062 0.0
H524 H 0.26356 0.60048 0.30102 0.0
H525 H 0.26062 0.61493 0.33139 0.0
H526 H 0.29621 0.6122 0.38523 0.0
H527 H 0.25541 0.58291 0.40693 0.0
H528 H 0.70129 0.45879 0.71252 0.0
H529 H 0.71675 0.42941 0.72518 0.0
H530 H 0.66763 0.37569 0.66476 0.0
H531 H 0.65243 0.40481 0.65192 0.0
H532 H 0.68379 0.38369 0.74616 0.0
H533 H 0.7299 0.36693 0.65917 0.0
H534 H 0.72695 0.39536 0.66218 0.0
H535 H 0.70111 0.36621 0.64794 0.0
C536 C 0.69444 0.44105 0.70139 0.0
C537 C 0.6754 0.43387 0.68147 0.0
C538 C 0.70335 0.42436 0.70861 0.0
C539 C 0.69361 0.40055 0.69569 0.0
C540 C 0.67595 0.39424 0.67455 0.0
H541 H 0.6116 0.25231 0.73591 0.0
H542 H 0.63454 0.29911 0.73387 0.0
C543 C 0.66697 0.41077 0.66746 0.0
C544 C 0.69743 0.38009 0.70714 0.0
H545 H 0.70069 0.32802 0.68565 0.0
C546 C 0.68843 0.37194 0.7333 0.0
C547 C 0.70418 0.36511 0.69077 0.0
C548 C 0.71636 0.3741 0.66356 0.0
C549 C 0.6826 0.34754 0.74207 0.0
C550 C 0.6854 0.33094 0.72396 0.0
C551 C 0.69778 0.34048 0.69927 0.0
C552 C 0.67231 0.30298 0.72833 0.0
C553 C 0.67208 0.33927 0.77002 0.0
C554 C 0.68582 0.28964 0.72525 0.0
C555 C 0.67265 0.26292 0.72578 0.0
C556 C 0.64574 0.24909 0.72941 0.0
C557 C 0.63232 0.26248 0.73312 0.0
C558 C 0.64548 0.28922 0.73232 0.0
H559 H 0.6807 0.35585 0.78409 0.0
H560 H 0.65093 0.33167 0.76981 0.0
H561 H 0.67589 0.32413 0.77767 0.0
H562 H 0.70647 0.29989 0.72191 0.0
H563 H 0.68359 0.25311 0.72317 0.0
H564 H 0.26676 0.61306 1.01015 0.0
H565 H 0.31326 0.63554 1.00253 0.0
H566 H 0.31132 0.70439 0.98225 0.0
H567 H 0.26495 0.68228 0.99177 0.0
H568 H 0.33958 0.65525 0.95925 0.0
H569 H 0.36957 0.73481 1.03314 0.0
H570 H 0.33712 0.70812 1.03201 0.0
H571 H 0.34792 0.73312 1.00729 0.0
C572 C 0.27638 0.63309 1.00445 0.0
C573 C 0.26247 0.64607 1.00191 0.0
C574 C 0.30291 0.64593 0.99992 0.0
C575 C 0.31599 0.67183 0.99207 0.0
C576 C 0.30195 0.68471 0.98904 0.0
H577 H 0.46859 0.68994 0.97222 0.0
H578 H 0.43896 0.70448 0.9566 0.0
C579 C 0.27545 0.67204 0.99439 0.0
C580 C 0.34423 0.68468 0.98706 0.0
H581 H 0.40215 0.73073 1.01201 0.0
C582 C 0.35336 0.67195 0.97055 0.0
C583 C 0.36219 0.70697 1.00117 0.0
C584 C 0.35381 0.72151 1.01954 0.0
C585 C 0.37941 0.67858 0.97059 0.0
C586 C 0.39716 0.69958 0.98656 0.0
C587 C 0.38852 0.71454 1.0 0.0
C588 C 0.42178 0.70154 0.99571 0.0
C589 C 0.38682 0.66117 0.95584 0.0
C590 C 0.42445 0.69861 1.02326 0.0
C591 C 0.44185 0.69132 1.03218 0.0
C592 C 0.45676 0.68661 1.01375 0.0
C593 C 0.45711 0.69332 0.98675 0.0
C594 C 0.43984 0.70115 0.97779 0.0
H595 H 0.36991 0.64424 0.9468 0.0
H596 H 0.40038 0.67193 0.93937 0.0
H597 H 0.39641 0.65407 0.96967 0.0
H598 H 0.41114 0.69914 0.0377 0.0
H599 H 0.44154 0.68656 0.05319 0.0
H600 H 0.55101 0.11008 0.29656 0.0
H601 H 0.53834 0.06489 0.29083 0.0
H602 H 0.48249 0.04459 0.35443 0.0
H603 H 0.49424 0.0896 0.35933 0.0
H604 H 0.54243 0.03377 0.32365 0.0
H605 H 0.43901 0.9928 0.29981 0.0
H606 H 0.46104 0.02691 0.30048 0.0
H607 H 0.44693 0.00977 0.33113 0.0
C608 C 0.53577 0.09591 0.30905 0.0
C609 C 0.52347 0.10331 0.32826 0.0
C610 C 0.52858 0.07011 0.3058 0.0
C611 C 0.50916 0.05123 0.32189 0.0
C612 C 0.49694 0.05864 0.34119 0.0
H613 H 0.49098 0.90217 0.35728 0.0
H614 H 0.50499 0.94789 0.35516 0.0
C615 C 0.50378 0.08441 0.3441 0.0
C616 C 0.50269 0.02403 0.3194 0.0
H617 H 0.45235 0.96293 0.31322 0.0
C618 C 0.52275 0.0183 0.32106 0.0
C619 C 0.47709 0.00383 0.31555 0.0
C620 C 0.45486 0.00866 0.31134 0.0
C621 C 0.51788 0.99294 0.31962 0.0
C622 C 0.4921 0.97264 0.31747 0.0
C623 C 0.47211 0.97842 0.31517 0.0
C624 C 0.48522 0.94523 0.31784 0.0
C625 C 0.54049 0.98831 0.31996 0.0
C626 C 0.46904 0.92835 0.29789 0.0
C627 C 0.46047 0.90212 0.29947 0.0
C628 C 0.4682 0.89231 0.32085 0.0
C629 C 0.48504 0.90927 0.34036 0.0
C630 C 0.49318 0.93545 0.33908 0.0
H631 H 0.55826 0.00522 0.31227 0.0
H632 H 0.54434 0.98503 0.34092 0.0
H633 H 0.53664 0.97131 0.30768 0.0
H634 H 0.4626 0.93539 0.28133 0.0
H635 H 0.4475 0.88947 0.28414 0.0
H636 H 0.38243 0.46449 0.70855 0.0
H637 H 0.42172 0.46111 0.70672 0.0
H638 H 0.44368 0.50406 0.63289 0.0
H639 H 0.4052 0.50837 0.63525 0.0
H640 H 0.44334 0.44265 0.67235 0.0
H641 H 0.50493 0.5481 0.67942 0.0
H642 H 0.4705 0.5321 0.68427 0.0
H643 H 0.48388 0.53871 0.65092 0.0
C644 C 0.39546 0.47279 0.69173 0.0
C645 C 0.39103 0.48695 0.67222 0.0
C646 C 0.41793 0.47097 0.69076 0.0
C647 C 0.43604 0.48308 0.67012 0.0
C648 C 0.43046 0.49538 0.6495 0.0
H649 H 0.56374 0.45888 0.63107 0.0
H650 H 0.52335 0.45982 0.63214 0.0
C651 C 0.40836 0.49761 0.65073 0.0
C652 C 0.4612 0.48378 0.67055 0.0
H653 H 0.52619 0.52477 0.66757 0.0
C654 C 0.46147 0.46059 0.67147 0.0
C655 C 0.48489 0.50725 0.67008 0.0
C656 C 0.48609 0.53294 0.67142 0.0
C657 C 0.48476 0.46019 0.67114 0.0
C658 C 0.50838 0.48361 0.66894 0.0
C659 C 0.5081 0.50681 0.66878 0.0
C660 C 0.53361 0.48453 0.66707 0.0
C661 C 0.48377 0.43469 0.67368 0.0
C662 C 0.55349 0.49943 0.68527 0.0
C663 C 0.57691 0.49951 0.68423 0.0
C664 C 0.58073 0.48449 0.6651 0.0
C665 C 0.56122 0.47043 0.64622 0.0
C666 C 0.53801 0.47071 0.647 0.0
H667 H 0.46573 0.42024 0.68365 0.0
H668 H 0.48421 0.4273 0.65336 0.0
H669 H 0.50046 0.43654 0.68529 0.0
H670 H 0.55064 0.51048 0.70077 0.0
H671 H 0.59156 0.51043 0.6991 0.0
H672 H 0.92011 0.37765 0.0337 0.0
H673 H 0.96535 0.4102 1.02649 0.0
H674 H 0.94144 0.4583 0.9862 0.0
H675 H 0.89633 0.42593 0.99297 0.0
H676 H 0.98284 0.45664 0.96079 0.0
H677 H -0.00014 0.47775 0.06993 0.0
H678 H 0.98755 0.44473 0.06076 0.0
H679 H 0.96794 0.45932 0.05582 0.0
C680 C 0.92448 0.39503 1.02304 0.0
C681 C 0.90459 0.39927 1.01413 0.0
C682 C 0.95033 0.41365 1.01908 0.0
C683 C 0.9567 0.43681 1.00621 0.0
C684 C 0.93692 0.4406 0.99629 0.0
H685 H 0.09927 0.58169 1.01717 0.0
H686 H 0.05426 0.54724 1.01695 0.0
C687 C 0.91113 0.42206 1.00024 0.0
C688 C 0.98388 0.45763 1.00397 0.0
H689 H 0.03578 0.49969 0.04129 0.0
C690 C 0.99448 0.46603 0.97836 0.0
C691 C -0.00119 0.47011 1.02695 0.0
C692 C 0.98798 0.46274 0.05494 0.0
C693 C 0.01977 0.48647 0.97511 0.0
C694 C 0.03487 0.49858 0.99811 0.0
C695 C 0.02418 0.49028 1.0237 0.0
C696 C 0.06183 0.51996 0.99622 0.0
C697 C 0.02992 0.4953 0.94714 0.0
C698 C 0.08096 0.51608 0.98447 0.0
C699 C 0.1067 0.53574 0.9845 0.0
C700 C 0.11381 0.55961 0.99646 0.0
C701 C 0.09448 0.56358 1.00774 0.0
C702 C 0.06875 0.5439 1.00769 0.0
H703 H 0.01407 0.48858 0.9322 0.0
H704 H 0.04156 0.51655 0.94623 0.0
H705 H 0.04253 0.4874 0.94132 0.0
H706 H 0.07612 0.49761 0.97594 0.0
H707 H 0.1211 0.53198 0.97575 0.0
H708 H 0.11783 0.55736 0.42472 0.0
H709 H 0.07733 0.55797 0.42649 0.0
H710 H 0.03733 0.48203 0.39198 0.0
H711 H 0.0779 0.48137 0.38968 0.0
H712 H 0.02708 0.51691 0.36616 0.0
H713 H 0.01556 0.52024 0.47647 0.0
H714 H 0.04608 0.5446 0.46365 0.0
H715 H 0.03764 0.51147 0.46154 0.0
C716 C 0.10038 0.5406 0.41784 0.0
C717 C 0.10111 0.51928 0.40707 0.0
C718 C 0.07722 0.54098 0.41897 0.0
C719 C 0.05431 0.51997 0.40959 0.0
C720 C 0.05483 0.49843 0.39937 0.0
H721 H 0.89641 0.47554 0.42698 0.0
H722 H 0.94051 0.48386 0.43026 0.0
C723 C 0.07801 0.49804 0.39817 0.0
C724 C 0.03002 0.52093 0.40914 0.0
H725 H 0.98595 0.52522 0.44922 0.0
C726 C 0.01809 0.5188 0.38429 0.0
C727 C 0.01841 0.5234 0.43286 0.0
C728 C 0.02991 0.52484 0.46019 0.0
C729 C 0.99458 0.51863 0.38252 0.0
C730 C 0.98296 0.52114 0.40624 0.0
C731 C 0.99511 0.52366 0.43106 0.0
C732 C 0.95683 0.51816 0.406 0.0
C733 C 0.98187 0.51474 0.35543 0.0
C734 C 0.95145 0.53515 0.39185 0.0
C735 C 0.92605 0.53039 0.38982 0.0
C736 C 0.90575 0.50859 0.40197 0.0
C737 C 0.91152 0.49239 0.41716 0.0
C738 C 0.93677 0.49715 0.41916 0.0
H739 H 0.99093 0.50835 0.34002 0.0
H740 H 0.96102 0.50031 0.35665 0.0
H741 H 0.98363 0.53312 0.34866 0.0
H742 H 0.96679 0.55174 0.38191 0.0
H743 H 0.92223 0.54327 0.37808 0.0
H744 H 0.58707 0.08748 0.72563 0.0
H745 H 0.55386 0.04218 0.72713 0.0
H746 H 0.50214 0.0621 0.767 0.0
H747 H 0.53522 0.10748 0.76573 0.0
H748 H 0.50338 0.01774 0.78856 0.0
H749 H 0.48865 0.01337 0.67812 0.0
H750 H 0.52144 0.02566 0.68885 0.0
H751 H 0.50519 0.04329 0.69639 0.0
C752 C 0.56874 0.08225 0.73498 0.0
C753 C 0.56373 0.10114 0.74538 0.0
C754 C 0.54977 0.05637 0.7357 0.0
C755 C 0.52548 0.04892 0.74681 0.0
C756 C 0.52075 0.06754 0.75822 0.0
H757 H 0.38485 0.90404 0.71873 0.0
H758 H 0.41675 0.94949 0.72454 0.0
C759 C 0.53968 0.09345 0.75745 0.0
C760 C 0.50468 0.02181 0.74561 0.0
H761 H 0.46643 0.9742 0.70176 0.0
C762 C 0.49523 0.00818 0.76963 0.0
C763 C 0.49389 0.0096 0.72087 0.0
C764 C 0.50259 0.02372 0.69455 0.0
C765 C 0.47557 0.98237 0.7695 0.0
C766 C 0.46532 0.96995 0.74469 0.0
C767 C 0.47443 0.98376 0.72073 0.0
C768 C 0.44541 0.94249 0.743 0.0
C769 C 0.46575 0.96867 0.79587 0.0
C770 C 0.45099 0.92356 0.75147 0.0
C771 C 0.43286 0.89761 0.74815 0.0
C772 C 0.40881 0.89011 0.73618 0.0
C773 C 0.40314 0.90915 0.72808 0.0
C774 C 0.42134 0.93512 0.73135 0.0
H775 H 0.47079 0.98237 0.81287 0.0
H776 H 0.44449 0.95596 0.79535 0.0
H777 H 0.47463 0.95658 0.79973 0.0
H778 H 0.46964 0.92886 0.76005 0.0
H779 H 0.4379 0.88345 0.75455 0.0
H780 H 0.5309 0.60428 1.01736 0.0
H781 H 0.54334 0.57127 1.02247 0.0
H782 H 0.49853 0.54527 0.09523 0.0
H783 H 0.48513 0.5773 0.0895 0.0
H784 H 0.56763 0.55867 0.05874 0.0
H785 H 0.46614 0.48035 0.05252 0.0
H786 H 0.4755 0.51331 0.04593 0.0
H787 H 0.4712 0.50176 0.07992 0.0
C788 C 0.52399 0.59169 0.03459 0.0
C789 C 0.50678 0.59308 0.05283 0.0
C790 C 0.53104 0.57281 0.03747 0.0
C791 C 0.52122 0.55526 0.0588 0.0
C792 C 0.50559 0.55795 0.07809 0.0
H793 H 0.57798 0.45051 0.10001 0.0
H794 H 0.5687 0.48586 0.0994 0.0
C795 C 0.49813 0.57641 0.07492 0.0
C796 C 0.52651 0.5336 0.06039 0.0
H797 H 0.49695 0.46838 0.06536 0.0
C798 C 0.55219 0.53891 0.06008 0.0
C799 C 0.50633 0.50775 0.0616 0.0
C800 C 0.47827 0.50041 0.05972 0.0
C801 C 0.55827 0.51914 0.06125 0.0
C802 C 0.5381 0.49337 0.06375 0.0
C803 C 0.51243 0.4881 0.06383 0.0
C804 C 0.543 0.47143 0.06517 0.0
C805 C 0.58618 0.52609 0.05896 0.0
C806 C 0.5306 0.45082 0.04711 0.0
C807 C 0.53528 0.43025 0.04794 0.0
C808 C 0.55268 0.42998 0.06669 0.0
C809 C 0.56465 0.45031 0.08517 0.0
C810 C 0.55958 0.47067 0.08465 0.0
H811 H 0.59795 0.54497 0.04907 0.0
H812 H 0.5942 0.52745 0.07935 0.0
H813 H 0.58825 0.51139 0.04738 0.0
H814 H 0.51761 0.45085 1.03198 0.0
H815 H 0.52585 0.41494 0.03334 0.0
H816 H 0.47917 0.20611 0.30871 0.0
H817 H 0.47508 0.22804 0.26918 0.0
H818 H 0.51367 0.19747 0.22108 0.0
H819 H 0.51849 0.17631 0.26053 0.0
H820 H 0.53692 0.24766 0.21673 0.0
H821 H 0.43223 0.20931 0.20161 0.0
H822 H 0.44282 0.22103 0.23503 0.0
H823 H 0.44471 0.19377 0.22294 0.0
C824 C 0.48606 0.20345 0.28952 0.0
C825 C 0.49921 0.18952 0.28777 0.0
C826 C 0.48367 0.21597 0.26686 0.0
C827 C 0.49398 0.21439 0.24198 0.0
C828 C 0.50561 0.19909 0.23998 0.0
H829 H 0.4928 0.28118 0.08638 0.0
H830 H 0.48192 0.25199 0.12472 0.0
C831 C 0.5083 0.18692 0.26258 0.0
C832 C 0.49565 0.23096 0.21891 0.0
H833 H 0.46063 0.24747 0.17743 0.0
C834 C 0.52015 0.24743 0.2081 0.0
C835 C 0.47383 0.23066 0.20739 0.0
C836 C 0.44688 0.21257 0.21714 0.0
C837 C 0.52352 0.26368 0.18645 0.0
C838 C 0.50187 0.26413 0.17558 0.0
C839 C 0.47725 0.24738 0.18599 0.0
C840 C 0.50484 0.28192 0.15335 0.0
C841 C 0.55031 0.27996 0.17516 0.0
C842 C 0.52034 0.30852 0.15692 0.0
C843 C 0.52672 0.32515 0.1351 0.0
C844 C 0.51742 0.31562 0.10922 0.0
C845 C 0.50025 0.28916 0.10604 0.0
C846 C 0.49405 0.27244 0.12793 0.0
H847 H 0.56327 0.2724 0.18071 0.0
H848 H 0.54982 0.28102 0.15294 0.0
H849 H 0.55877 0.29972 0.18335 0.0
H850 H 0.52845 0.31635 0.17644 0.0
H851 H 0.53978 0.34543 0.13835 0.0
H852 H 0.17906 0.5033 0.47094 0.0
H853 H 0.19518 0.49069 0.50926 0.0
H854 H 0.17997 0.42127 0.46812 0.0
H855 H 0.1643 0.43426 0.42889 0.0
H856 H 0.17511 0.4507 0.54301 0.0
H857 H 0.25586 0.45244 0.48558 0.0
H858 H 0.23603 0.46444 0.47183 0.0
H859 H 0.22398 0.43048 0.47358 0.0
C860 C 0.17889 0.48521 0.46994 0.0
C861 C 0.17059 0.46994 0.44659 0.0
C862 C 0.18811 0.47798 0.49203 0.0
C863 C 0.18931 0.45525 0.49153 0.0
C864 C 0.17982 0.4392 0.46881 0.0
H865 H 0.2462 0.42718 0.64565 0.0
H866 H 0.21845 0.41789 0.60604 0.0
C867 C 0.17061 0.44652 0.44648 0.0
C868 C 0.2016 0.44952 0.51455 0.0
H869 H 0.25506 0.44595 0.53195 0.0
C870 C 0.19238 0.44926 0.54059 0.0
C871 C 0.22429 0.44784 0.51144 0.0
C872 C 0.23583 0.449 0.48417 0.0
C873 C 0.20582 0.4487 0.56352 0.0
C874 C 0.22885 0.44766 0.56041 0.0
C875 C 0.23737 0.44661 0.53436 0.0
C876 C 0.24611 0.45106 0.58359 0.0
C877 C 0.19607 0.45091 0.5908 0.0
C878 C 0.27133 0.47201 0.58376 0.0
C879 C 0.28727 0.47711 0.60609 0.0
C880 C 0.27846 0.46143 0.62901 0.0
C881 C 0.25358 0.43974 0.62844 0.0
C882 C 0.2376 0.43454 0.60588 0.0
H883 H 0.18118 0.45678 0.58944 0.0
H884 H 0.18729 0.43202 0.60095 0.0
H885 H 0.21214 0.46507 0.60352 0.0
H886 H 0.27846 0.48503 0.56687 0.0
H887 H 0.30632 0.49392 0.60564 0.0
H888 H 0.77489 0.34836 0.94382 0.0
H889 H 0.75264 0.31909 0.9063 0.0
H890 H 0.79135 0.27664 0.92462 0.0
H891 H 0.81323 0.3054 0.96234 0.0
H892 H 0.76935 0.30538 0.86066 0.0
H893 H 0.71605 0.22092 0.92676 0.0
H894 H 0.73353 0.25326 0.93964 0.0
H895 H 0.75044 0.23658 0.93052 0.0
C896 C 0.77885 0.33294 0.93974 0.0
C897 C 0.79571 0.32915 0.95631 0.0
C898 C 0.76608 0.31618 0.91827 0.0
C899 C 0.76986 0.29528 0.91294 0.0
C900 C 0.78757 0.29218 0.9287 0.0
H901 H 0.71136 0.20132 0.76571 0.0
H902 H 0.74007 0.22767 0.80216 0.0
C903 C 0.80022 0.30881 0.9502 0.0
C904 C 0.75489 0.27644 0.89133 0.0
H905 H 0.71159 0.21304 0.87999 0.0
C906 C 0.7568 0.28518 0.86487 0.0
C907 C 0.73823 0.25008 0.89682 0.0
C908 C 0.73418 0.23962 0.92499 0.0
C909 C 0.74254 0.26835 0.84383 0.0
C910 C 0.72625 0.24192 0.84926 0.0
C911 C 0.72437 0.23319 0.87572 0.0
C912 C 0.70924 0.22349 0.82828 0.0
C913 C 0.74436 0.27921 0.81614 0.0
C914 C 0.68238 0.21116 0.8314 0.0
C915 C 0.666 0.19593 0.8108 0.0
C916 C 0.67605 0.19249 0.78656 0.0
C917 C 0.70295 0.20347 0.78411 0.0
C918 C 0.7194 0.21883 0.80481 0.0
H919 H 0.75327 0.30043 0.81653 0.0
H920 H 0.75646 0.2743 0.80326 0.0
H921 H 0.72498 0.27089 0.80677 0.0
H922 H 0.67403 0.21424 0.84937 0.0
H923 H 0.64539 0.18773 0.81347 0.0
H924 H 0.43171 0.62802 0.1401 0.0
H925 H 0.43783 0.65571 0.1789 0.0
H926 H 0.50578 0.71696 0.14194 0.0
H927 H 0.50037 0.68925 0.10377 0.0
H928 H 0.51353 0.71632 0.19417 0.0
H929 H 0.4192 0.71111 0.17849 0.0
H930 H 0.41639 0.68039 0.18438 0.0
H931 H 0.4324 0.69812 0.15464 0.0
C932 C 0.44811 0.64729 0.14038 0.0
C933 C 0.46543 0.65639 0.11867 0.0
C934 C 0.45147 0.66322 0.1625 0.0
C935 C 0.47193 0.68873 0.16314 0.0
C936 C 0.48977 0.69746 0.14197 0.0
H937 H 0.47022 0.81023 0.25516 0.0
H938 H 0.47255 0.78294 0.22011 0.0
C939 C 0.48661 0.68151 0.12006 0.0
C940 C 0.47448 0.70673 0.18527 0.0
H941 H 0.4427 0.7334 0.21704 0.0
C942 C 0.49803 0.72006 0.19917 0.0
C943 C 0.45446 0.71203 0.19158 0.0
C944 C 0.42929 0.69988 0.17633 0.0
C945 C 0.5021 0.73844 0.21907 0.0
C946 C 0.48184 0.74322 0.22584 0.0
C947 C 0.45828 0.72978 0.21201 0.0
C948 C 0.4845 0.76236 0.24669 0.0
C949 C 0.52836 0.75308 0.23199 0.0
C950 C 0.49137 0.76071 0.27331 0.0
C951 C 0.49064 0.77682 0.29336 0.0
C952 C 0.48247 0.79452 0.28729 0.0
C953 C 0.47671 0.79689 0.26048 0.0
C954 C 0.47785 0.78113 0.24043 0.0
H955 H 0.54353 0.75299 0.21916 0.0
H956 H 0.53366 0.77329 0.23609 0.0
H957 H 0.52812 0.74385 0.25131 0.0
H958 H 0.49601 0.74608 0.27892 0.0
H959 H 0.49469 0.77414 0.3139 0.0
H960 H 0.72988 0.56004 0.64122 0.0
H961 H 0.75926 0.57315 0.60254 0.0
H962 H 0.70182 0.50879 0.5572 0.0
H963 H 0.67245 0.49614 0.59501 0.0
H964 H 0.77989 0.54749 0.57989 0.0
H965 H 0.72445 0.5633 0.50164 0.0
H966 H 0.71587 0.56085 0.53668 0.0
H967 H 0.7049 0.53237 0.51638 0.0
C968 C 0.72331 0.54911 0.62276 0.0
C969 C 0.69874 0.52707 0.62128 0.0
C970 C 0.74017 0.55655 0.60068 0.0
C971 C 0.73268 0.54223 0.57667 0.0
C972 C 0.70791 0.52066 0.57507 0.0
H973 H 0.81245 0.50073 0.46649 0.0
H974 H 0.79372 0.51028 0.50503 0.0
C975 C 0.69114 0.5133 0.59695 0.0
C976 C 0.75123 0.54799 0.55411 0.0
H977 H 0.75503 0.55053 0.48565 0.0
C978 C 0.77468 0.54871 0.55933 0.0
C979 C 0.74491 0.5502 0.52722 0.0
C980 C 0.72128 0.55194 0.52022 0.0
C981 C 0.79093 0.54965 0.53838 0.0
C982 C 0.78325 0.54916 0.51139 0.0
C983 C 0.7608 0.55041 0.50625 0.0
C984 C 0.79679 0.54493 0.48841 0.0
C985 C 0.816 0.55076 0.54549 0.0
C986 C 0.80443 0.56089 0.46569 0.0
C987 C 0.81496 0.55524 0.4432 0.0
C988 C 0.81791 0.5334 0.44294 0.0
C989 C 0.8107 0.51782 0.46594 0.0
C990 C 0.80013 0.5234 0.48823 0.0
H991 H 0.82359 0.56082 0.56494 0.0
H992 H 0.81261 0.53095 0.54771 0.0
H993 H 0.83087 0.56071 0.5298 0.0
H994 H 0.80187 0.57751 0.46519 0.0
H995 H 0.82014 0.56757 0.4258 0.0
H996 H 0.20395 0.64949 0.92948 0.0
H997 H 0.22001 0.67973 0.89243 0.0
H998 H 0.2026 0.73117 0.93649 0.0
H999 H 0.18717 0.70117 0.97433 0.0
H1000 H 0.19987 0.70022 0.85988 0.0
H1001 H 0.27783 0.77774 0.92054 0.0
H1002 H 0.25854 0.74553 0.93297 0.0
H1003 H 0.24573 0.767 0.93253 0.0
C1004 C 0.20328 0.66712 0.93134 0.0
C1005 C 0.19443 0.67294 0.95509 0.0
C1006 C 0.2125 0.68445 0.91002 0.0
C1007 C 0.21306 0.70804 0.91175 0.0
C1008 C 0.20303 0.71342 0.93488 0.0
H1009 H 0.26581 0.80038 0.7621 0.0
H1010 H 0.23856 0.77888 0.80122 0.0
C1011 C 0.19397 0.69612 0.95643 0.0
C1012 C 0.22508 0.72703 0.88957 0.0
H1013 H 0.27608 0.78619 0.87491 0.0
C1014 C 0.21637 0.71914 0.86319 0.0
C1015 C 0.24677 0.75169 0.89382 0.0
C1016 C 0.25797 0.76101 0.92143 0.0
C1017 C 0.22928 0.73465 0.84096 0.0
C1018 C 0.25118 0.75918 0.84519 0.0
C1019 C 0.25922 0.76751 0.87164 0.0
C1020 C 0.26795 0.77499 0.8226 0.0
C1021 C 0.22024 0.72393 0.81314 0.0
C1022 C 0.29392 0.78129 0.82215 0.0
C1023 C 0.30957 0.79392 0.80017 0.0
C1024 C 0.2997 0.80057 0.77787 0.0
C1025 C 0.27402 0.79545 0.77884 0.0
C1026 C 0.25833 0.7829 0.80109 0.0
H1027 H 0.2067 0.7029 0.8134 0.0
H1028 H 0.21002 0.73324 0.80409 0.0
H1029 H 0.23683 0.7278 0.80005 0.0
H1030 H 0.30193 0.77557 0.83846 0.0
H1031 H 0.32925 0.79761 0.80031 0.0
loop_
_geom_bond_atom_site_label_1
_geom_bond_atom_site_label_2
_geom_bond_distance
_geom_bond_site_symmetry_2
_ccdc_geom_bond_type
C0 O2 1.247 . S
C0 O4 1.258 . S
C1 O8 1.247 . S
C1 O9 1.258 . S
O2 C0 1.247 . S
O2 Zn3 2.028 . S
Zn3 O2 2.028 . S
Zn3 O7 2.035 . S
Zn3 O9 2.035 . S
Zn3 O10 2.028 . S
O4 C0 1.258 . S
O4 Zn5 2.035 . S
Zn5 O4 2.035 . S
Zn5 O6 2.028 . S
Zn5 O8 2.028 . S
Zn5 O11 2.035 . S
O6 Zn5 2.028 . S
O6 C12 1.247 . S
O7 Zn3 2.035 . S
O7 C12 1.258 . S
O8 C1 1.247 . S
O8 Zn5 2.028 . S
O9 C1 1.258 . S
O9 Zn3 2.035 . S
O10 Zn3 2.028 . S
O10 C13 1.247 . S
O11 Zn5 2.035 . S
O11 C13 1.258 . S
C12 O6 1.247 . S
C12 O7 1.258 . S
C13 O10 1.247 . S
C13 O11 1.258 . S
C14 O16 1.247 . S
C14 O18 1.258 . S
C15 O22 1.247 . S
C15 O23 1.258 . S
O16 C14 1.247 . S
O16 Zn17 2.028 . S
Zn17 O16 2.028 . S
Zn17 O21 2.035 . S
Zn17 O23 2.035 . S
Zn17 O24 2.028 . S
O18 C14 1.258 . S
O18 Zn19 2.035 . S
Zn19 O18 2.035 . S
Zn19 O20 2.028 . S
Zn19 O22 2.028 . S
Zn19 O25 2.035 . S
O20 Zn19 2.028 . S
O20 C26 1.247 . S
O21 Zn17 2.035 . S
O21 C26 1.258 . S
O22 C15 1.247 . S
O22 Zn19 2.028 . S
O23 C15 1.258 . S
O23 Zn17 2.035 . S
O24 Zn17 2.028 . S
O24 C27 1.247 . S
O25 Zn19 2.035 . S
O25 C27 1.258 . S
C26 O20 1.247 . S
C26 O21 1.258 . S
C27 O24 1.247 . S
C27 O25 1.258 . S
C28 O30 1.247 . S
C28 O32 1.258 . S
C29 O36 1.247 . S
C29 O37 1.258 . S
O30 C28 1.247 . S
O30 Zn31 2.028 . S
Zn31 O30 2.028 . S
Zn31 O35 2.035 . S
Zn31 O37 2.035 1_554 S
Zn31 O38 2.028 . S
O32 C28 1.258 . S
O32 Zn33 2.035 1_554 S
Zn33 O32 2.035 1_556 S
Zn33 O34 2.028 . S
Zn33 O36 2.028 . S
Zn33 O39 2.035 . S
O34 Zn33 2.028 . S
O34 C40 1.247 1_556 S
O35 Zn31 2.035 . S
O35 C40 1.258 . S
O36 C29 1.247 . S
O36 Zn33 2.028 . S
O37 C29 1.258 . S
O37 Zn31 2.035 1_556 S
O38 Zn31 2.028 . S
O38 C41 1.247 1_554 S
O39 Zn33 2.035 . S
O39 C41 1.258 . S
C40 O34 1.247 1_554 S
C40 O35 1.258 . S
C41 O38 1.247 1_556 S
C41 O39 1.258 . S
C42 O44 1.247 . S
C42 O46 1.258 . S
C43 O50 1.247 . S
C43 O51 1.258 . S
O44 C42 1.247 . S
O44 Zn45 2.028 . S
Zn45 O44 2.028 . S
Zn45 O49 2.035 . S
Zn45 O51 2.035 . S
Zn45 O52 2.028 . S
O46 C42 1.258 . S
O46 Zn47 2.035 . S
Zn47 O46 2.035 . S
Zn47 O48 2.028 . S
Zn47 O50 2.028 . S
Zn47 O53 2.035 . S
O48 Zn47 2.028 . S
O48 C54 1.247 . S
O49 Zn45 2.035 . S
O49 C54 1.258 . S
O50 C43 1.247 . S
O50 Zn47 2.028 . S
O51 C43 1.258 . S
O51 Zn45 2.035 . S
O52 Zn45 2.028 . S
O52 C55 1.247 . S
O53 Zn47 2.035 . S
O53 C55 1.258 . S
C54 O48 1.247 . S
C54 O49 1.258 . S
C55 O52 1.247 . S
C55 O53 1.258 . S
C56 O58 1.247 . S
C56 O60 1.258 . S
C57 O64 1.247 . S
C57 O65 1.258 . S
O58 C56 1.247 . S
O58 Zn59 2.028 . S
Zn59 O58 2.028 . S
Zn59 O63 2.035 . S
Zn59 O65 2.035 . S
Zn59 O66 2.028 . S
O60 C56 1.258 . S
O60 Zn61 2.035 . S
Zn61 O60 2.035 . S
Zn61 O62 2.028 . S
Zn61 O64 2.028 . S
Zn61 O67 2.035 . S
O62 Zn61 2.028 . S
O62 C68 1.247 . S
O63 Zn59 2.035 . S
O63 C68 1.258 . S
O64 C57 1.247 . S
O64 Zn61 2.028 . S
O65 C57 1.258 . S
O65 Zn59 2.035 . S
O66 Zn59 2.028 . S
O66 C69 1.247 . S
O67 Zn61 2.035 . S
O67 C69 1.258 . S
C68 O62 1.247 . S
C68 O63 1.258 . S
C69 O66 1.247 . S
C69 O67 1.258 . S
C70 O72 1.247 . S
C70 O74 1.258 . S
C71 O78 1.247 . S
C71 O79 1.258 . S
O72 C70 1.247 . S
O72 Zn73 2.028 . S
Zn73 O72 2.028 . S
Zn73 O77 2.035 . S
Zn73 O79 2.035 1_554 S
Zn73 O80 2.028 . S
O74 C70 1.258 . S
O74 Zn75 2.035 1_554 S
Zn75 O74 2.035 1_556 S
Zn75 O76 2.028 . S
Zn75 O78 2.028 . S
Zn75 O81 2.035 . S
O76 Zn75 2.028 . S
O76 C82 1.247 1_556 S
O77 Zn73 2.035 . S
O77 C82 1.258 . S
O78 C71 1.247 . S
O78 Zn75 2.028 . S
O79 C71 1.258 . S
O79 Zn73 2.035 1_556 S
O80 Zn73 2.028 . S
O80 C83 1.247 1_554 S
O81 Zn75 2.035 . S
O81 C83 1.258 . S
C82 O76 1.247 1_554 S
C82 O77 1.258 . S
C83 O80 1.247 1_556 S
C83 O81 1.258 . S
C84 O86 1.247 . S
C84 O88 1.258 . S
C85 O92 1.247 . S
C85 O93 1.258 . S
O86 C84 1.247 . S
O86 Zn87 2.028 . S
Zn87 O86 2.028 . S
Zn87 O91 2.035 . S
Zn87 O93 2.035 . S
Zn87 O94 2.028 . S
O88 C84 1.258 . S
O88 Zn89 2.035 . S
Zn89 O88 2.035 . S
Zn89 O90 2.028 . S
Zn89 O92 2.028 . S
Zn89 O95 2.035 . S
O90 Zn89 2.028 . S
O90 C96 1.247 . S
O91 Zn87 2.035 . S
O91 C96 1.258 . S
O92 C85 1.247 . S
O92 Zn89 2.028 . S
O93 C85 1.258 . S
O93 Zn87 2.035 . S
O94 Zn87 2.028 . S
O94 C97 1.247 . S
O95 Zn89 2.035 . S
O95 C97 1.258 . S
C96 O90 1.247 . S
C96 O91 1.258 . S
C97 O94 1.247 . S
C97 O95 1.258 . S
C98 O100 1.247 . S
C98 O102 1.258 . S
C99 O106 1.247 . S
C99 O107 1.258 . S
O100 C98 1.247 . S
O100 Zn101 2.028 . S
Zn101 O100 2.028 . S
Zn101 O105 2.035 . S
Zn101 O107 2.035 . S
Zn101 O108 2.028 . S
O102 C98 1.258 . S
O102 Zn103 2.035 . S
Zn103 O102 2.035 . S
Zn103 O104 2.028 . S
Zn103 O106 2.028 . S
Zn103 O109 2.035 . S
O104 Zn103 2.028 . S
O104 C110 1.247 . S
O105 Zn101 2.035 . S
O105 C110 1.258 . S
O106 C99 1.247 . S
O106 Zn103 2.028 . S
O107 C99 1.258 . S
O107 Zn101 2.035 . S
O108 Zn101 2.028 . S
O108 C111 1.247 . S
O109 Zn103 2.035 . S
O109 C111 1.258 . S
C110 O104 1.247 . S
C110 O105 1.258 . S
C111 O108 1.247 . S
C111 O109 1.258 . S
C112 O114 1.247 . S
C112 O116 1.258 . S
C113 O120 1.247 . S
C113 O121 1.258 . S
O114 C112 1.247 . S
O114 Zn115 2.028 . S
Zn115 O114 2.028 . S
Zn115 O119 2.035 . S
Zn115 O121 2.035 1_556 S
Zn115 O122 2.028 . S
O116 C112 1.258 . S
O116 Zn117 2.035 1_556 S
Zn117 O116 2.035 1_554 S
Zn117 O118 2.028 . S
Zn117 O120 2.028 . S
Zn117 O123 2.035 . S
O118 Zn117 2.028 . S
O118 C124 1.247 1_554 S
O119 Zn115 2.035 . S
O119 C124 1.258 . S
O120 C113 1.247 . S
O120 Zn117 2.028 . S
O121 C113 1.258 . S
O121 Zn115 2.035 1_554 S
O122 Zn115 2.028 . S
O122 C125 1.247 1_556 S
O123 Zn117 2.035 . S
O123 C125 1.258 . S
C124 O118 1.247 1_556 S
C124 O119 1.258 . S
C125 O122 1.247 1_554 S
C125 O123 1.258 . S
C126 O128 1.247 . S
C126 O130 1.258 . S
C127 O134 1.247 . S
C127 O135 1.258 . S
O128 C126 1.247 . S
O128 Zn129 2.028 . S
Zn129 O128 2.028 . S
Zn129 O133 2.035 . S
Zn129 O135 2.035 . S
Zn129 O136 2.028 . S
O130 C126 1.258 . S
O130 Zn131 2.035 . S
Zn131 O130 2.035 . S
Zn131 O132 2.028 . S
Zn131 O134 2.028 . S
Zn131 O137 2.035 . S
O132 Zn131 2.028 . S
O132 C138 1.247 . S
O133 Zn129 2.035 . S
O133 C138 1.258 . S
O134 C127 1.247 . S
O134 Zn131 2.028 . S
O135 C127 1.258 . S
O135 Zn129 2.035 . S
O136 Zn129 2.028 . S
O136 C139 1.247 . S
O137 Zn131 2.035 . S
O137 C139 1.258 . S
C138 O132 1.247 . S
C138 O133 1.258 . S
C139 O136 1.247 . S
C139 O137 1.258 . S
C140 O142 1.247 . S
C140 O144 1.258 . S
C141 O148 1.247 . S
C141 O149 1.258 . S
O142 C140 1.247 . S
O142 Zn143 2.028 . S
Zn143 O142 2.028 . S
Zn143 O147 2.035 . S
Zn143 O149 2.035 . S
Zn143 O150 2.028 . S
O144 C140 1.258 . S
O144 Zn145 2.035 . S
Zn145 O144 2.035 . S
Zn145 O146 2.028 . S
Zn145 O148 2.028 . S
Zn145 O151 2.035 . S
O146 Zn145 2.028 . S
O146 C152 1.247 . S
O147 Zn143 2.035 . S
O147 C152 1.258 . S
O148 C141 1.247 . S
O148 Zn145 2.028 . S
O149 C141 1.258 . S
O149 Zn143 2.035 . S
O150 Zn143 2.028 . S
O150 C153 1.247 . S
O151 Zn145 2.035 . S
O151 C153 1.258 . S
C152 O146 1.247 . S
C152 O147 1.258 . S
C153 O150 1.247 . S
C153 O151 1.258 . S
C154 O156 1.247 . S
C154 O158 1.258 . S
C155 O162 1.247 . S
C155 O163 1.258 . S
O156 C154 1.247 . S
O156 Zn157 2.028 . S
Zn157 O156 2.028 . S
Zn157 O161 2.035 . S
Zn157 O163 2.035 1_556 S
Zn157 O164 2.028 . S
O158 C154 1.258 . S
O158 Zn159 2.035 1_556 S
Zn159 O158 2.035 1_554 S
Zn159 O160 2.028 . S
Zn159 O162 2.028 . S
Zn159 O165 2.035 . S
O160 Zn159 2.028 . S
O160 C166 1.247 1_554 S
O161 Zn157 2.035 . S
O161 C166 1.258 . S
O162 C155 1.247 . S
O162 Zn159 2.028 . S
O163 C155 1.258 . S
O163 Zn157 2.035 1_554 S
O164 Zn157 2.028 . S
O164 C167 1.247 1_556 S
O165 Zn159 2.035 . S
O165 C167 1.258 . S
C166 O160 1.247 1_556 S
C166 O161 1.258 . S
C167 O164 1.247 1_554 S
C167 O165 1.258 . S
H168 C176 0.929 . S
H169 C178 0.930 . S
H170 C180 0.930 . S
H171 C183 0.929 . S
H172 C186 0.930 . S
H173 C188 0.960 . S
H174 C188 0.960 . S
H175 C188 0.960 . S
C176 H168 0.929 . S
C176 C177 1.377 . S
C176 C178 1.384 . S
C177 C176 1.377 . S
C177 C183 1.390 . S
C178 H169 0.930 . S
C178 C176 1.384 . S
C178 C179 1.372 . S
C179 C178 1.372 . S
C179 C180 1.400 . S
C179 C184 1.490 . S
C180 H170 0.930 . S
C180 C179 1.400 . S
C180 C183 1.386 . S
H181 C197 0.930 . S
H182 C198 0.931 . S
C183 H171 0.929 . S
C183 C177 1.390 . S
C183 C180 1.386 . S
C184 C179 1.490 . S
C184 C186 1.395 . S
C184 C187 1.403 . S
H185 C191 0.930 . S
C186 H172 0.930 . S
C186 C184 1.395 . S
C186 C189 1.403 . S
C187 C184 1.403 . S
C187 C188 1.524 . S
C187 C191 1.400 . S
C188 H173 0.960 . S
C188 H174 0.960 . S
C188 H175 0.960 . S
C188 C187 1.524 . S
C189 C186 1.403 . S
C189 C190 1.392 . S
C189 C193 1.495 . S
C190 C189 1.392 . S
C190 C191 1.385 . S
C190 C192 1.478 . S
C191 H185 0.930 . S
C191 C187 1.400 . S
C191 C190 1.385 . S
C192 C190 1.478 . S
C192 C194 1.381 . S
C192 C198 1.383 . S
C193 C189 1.495 . S
C193 H199 0.959 . S
C193 H200 0.961 . S
C193 H201 0.960 . S
C194 C192 1.381 . S
C194 C195 1.394 . S
C194 H202 0.930 . S
C195 C194 1.394 . S
C195 C196 1.383 . S
C195 H203 0.929 . S
C196 C195 1.383 . S
C196 C197 1.377 . S
C197 H181 0.930 . S
C197 C196 1.377 . S
C197 C198 1.379 . S
C198 H182 0.931 . S
C198 C192 1.383 . S
C198 C197 1.379 . S
H199 C193 0.959 . S
H200 C193 0.961 . S
H201 C193 0.960 . S
H202 C194 0.930 . S
H203 C195 0.929 . S
H204 C212 0.929 . S
H205 C214 0.930 . S
H206 C216 0.930 . S
H207 C219 0.929 . S
H208 C222 0.930 . S
H209 C224 0.960 . S
H210 C224 0.960 . S
H211 C224 0.960 . S
C212 H204 0.929 . S
C212 C213 1.377 . S
C212 C214 1.384 . S
C213 C212 1.377 . S
C213 C219 1.390 . S
C214 H205 0.930 . S
C214 C212 1.384 . S
C214 C215 1.372 . S
C215 C214 1.372 . S
C215 C216 1.400 . S
C215 C220 1.490 . S
C216 H206 0.930 . S
C216 C215 1.400 . S
C216 C219 1.386 . S
H217 C233 0.930 . S
H218 C234 0.931 . S
C219 H207 0.929 . S
C219 C213 1.390 . S
C219 C216 1.386 . S
C220 C215 1.490 . S
C220 C222 1.395 . S
C220 C223 1.403 . S
H221 C227 0.930 . S
C222 H208 0.930 . S
C222 C220 1.395 . S
C222 C225 1.403 . S
C223 C220 1.403 . S
C223 C224 1.524 . S
C223 C227 1.400 . S
C224 H209 0.960 . S
C224 H210 0.960 . S
C224 H211 0.960 . S
C224 C223 1.524 . S
C225 C222 1.403 . S
C225 C226 1.392 . S
C225 C229 1.495 . S
C226 C225 1.392 . S
C226 C227 1.385 . S
C226 C228 1.478 . S
C227 H221 0.930 . S
C227 C223 1.400 . S
C227 C226 1.385 . S
C228 C226 1.478 . S
C228 C230 1.381 . S
C228 C234 1.383 . S
C229 C225 1.495 . S
C229 H235 0.959 . S
C229 H236 0.961 . S
C229 H237 0.960 . S
C230 C228 1.381 . S
C230 C231 1.394 . S
C230 H238 0.930 . S
C231 C230 1.394 . S
C231 C232 1.383 . S
C231 H239 0.929 . S
C232 C231 1.383 . S
C232 C233 1.377 . S
C233 H217 0.930 . S
C233 C232 1.377 . S
C233 C234 1.379 . S
C234 H218 0.931 . S
C234 C228 1.383 . S
C234 C233 1.379 . S
H235 C229 0.959 . S
H236 C229 0.961 . S
H237 C229 0.960 . S
H238 C230 0.930 . S
H239 C231 0.929 . S
H240 C248 0.929 . S
H241 C250 0.930 . S
H242 C252 0.930 . S
H243 C255 0.929 . S
H244 C258 0.930 . S
H245 C260 0.960 . S
H246 C260 0.960 . S
H247 C260 0.960 . S
C248 H240 0.929 . S
C248 C249 1.377 . S
C248 C250 1.384 . S
C249 C248 1.377 . S
C249 C255 1.390 . S
C250 H241 0.930 . S
C250 C248 1.384 . S
C250 C251 1.372 . S
C251 C250 1.372 . S
C251 C252 1.400 . S
C251 C256 1.490 . S
C252 H242 0.930 . S
C252 C251 1.400 . S
C252 C255 1.386 . S
H253 C269 0.930 . S
H254 C270 0.931 . S
C255 H243 0.929 . S
C255 C249 1.390 . S
C255 C252 1.386 . S
C256 C251 1.490 . S
C256 C258 1.395 . S
C256 C259 1.403 . S
H257 C263 0.930 . S
C258 H244 0.930 . S
C258 C256 1.395 . S
C258 C261 1.403 . S
C259 C256 1.403 . S
C259 C260 1.524 . S
C259 C263 1.400 . S
C260 H245 0.960 . S
C260 H246 0.960 . S
C260 H247 0.960 . S
C260 C259 1.524 . S
C261 C258 1.403 . S
C261 C262 1.392 . S
C261 C265 1.495 . S
C262 C261 1.392 . S
C262 C263 1.385 . S
C262 C264 1.478 . S
C263 H257 0.930 . S
C263 C259 1.400 . S
C263 C262 1.385 . S
C264 C262 1.478 . S
C264 C266 1.381 . S
C264 C270 1.383 . S
C265 C261 1.495 . S
C265 H271 0.959 . S
C265 H272 0.961 . S
C265 H273 0.960 . S
C266 C264 1.381 . S
C266 C267 1.394 . S
C266 H274 0.930 . S
C267 C266 1.394 . S
C267 C268 1.383 . S
C267 H275 0.929 . S
C268 C267 1.383 . S
C268 C269 1.377 . S
C269 H253 0.930 . S
C269 C268 1.377 . S
C269 C270 1.379 . S
C270 H254 0.931 . S
C270 C264 1.383 . S
C270 C269 1.379 . S
H271 C265 0.959 . S
H272 C265 0.961 . S
H273 C265 0.960 . S
H274 C266 0.930 . S
H275 C267 0.929 . S
H276 C284 0.929 . S
H277 C286 0.930 . S
H278 C288 0.930 . S
H279 C291 0.929 . S
H280 C294 0.930 . S
H281 C296 0.960 . S
H282 C296 0.960 . S
H283 C296 0.960 . S
C284 H276 0.929 . S
C284 C285 1.377 . S
C284 C286 1.384 . S
C285 C284 1.377 . S
C285 C291 1.390 . S
C286 H277 0.930 . S
C286 C284 1.384 . S
C286 C287 1.372 . S
C287 C286 1.372 . S
C287 C288 1.400 . S
C287 C292 1.490 . S
C288 H278 0.930 . S
C288 C287 1.400 . S
C288 C291 1.386 . S
H289 C305 0.930 . S
H290 C306 0.931 . S
C291 H279 0.929 . S
C291 C285 1.390 . S
C291 C288 1.386 . S
C292 C287 1.490 . S
C292 C294 1.395 . S
C292 C295 1.403 . S
H293 C299 0.930 . S
C294 H280 0.930 . S
C294 C292 1.395 . S
C294 C297 1.403 . S
C295 C292 1.403 . S
C295 C296 1.524 . S
C295 C299 1.400 . S
C296 H281 0.960 . S
C296 H282 0.960 . S
C296 H283 0.960 . S
C296 C295 1.524 . S
C297 C294 1.403 . S
C297 C298 1.392 . S
C297 C301 1.495 . S
C298 C297 1.392 . S
C298 C299 1.385 . S
C298 C300 1.478 . S
C299 H293 0.930 . S
C299 C295 1.400 . S
C299 C298 1.385 . S
C300 C298 1.478 . S
C300 C302 1.381 . S
C300 C306 1.383 . S
C301 C297 1.495 . S
C301 H307 0.959 . S
C301 H308 0.961 . S
C301 H309 0.960 . S
C302 C300 1.381 . S
C302 C303 1.394 . S
C302 H310 0.930 . S
C303 C302 1.394 . S
C303 C304 1.383 . S
C303 H311 0.929 . S
C304 C303 1.383 . S
C304 C305 1.377 . S
C305 H289 0.930 . S
C305 C304 1.377 . S
C305 C306 1.379 . S
C306 H290 0.931 . S
C306 C300 1.383 . S
C306 C305 1.379 . S
H307 C301 0.959 . S
H308 C301 0.961 . S
H309 C301 0.960 . S
H310 C302 0.930 . S
H311 C303 0.929 . S
H312 C320 0.929 . S
H313 C322 0.930 . S
H314 C324 0.930 . S
H315 C327 0.929 . S
H316 C330 0.930 . S
H317 C332 0.960 . S
H318 C332 0.960 . S
H319 C332 0.960 . S
C320 H312 0.929 . S
C320 C321 1.377 . S
C320 C322 1.384 . S
C321 C320 1.377 . S
C321 C327 1.390 . S
C322 H313 0.930 . S
C322 C320 1.384 . S
C322 C323 1.372 . S
C323 C322 1.372 . S
C323 C324 1.400 . S
C323 C328 1.490 . S
C324 H314 0.930 . S
C324 C323 1.400 . S
C324 C327 1.386 . S
H325 C341 0.930 . S
H326 C342 0.931 . S
C327 H315 0.929 . S
C327 C321 1.390 . S
C327 C324 1.386 . S
C328 C323 1.490 . S
C328 C330 1.395 . S
C328 C331 1.403 . S
H329 C335 0.930 . S
C330 H316 0.930 . S
C330 C328 1.395 . S
C330 C333 1.403 . S
C331 C328 1.403 . S
C331 C332 1.524 . S
C331 C335 1.400 . S
C332 H317 0.960 . S
C332 H318 0.960 . S
C332 H319 0.960 . S
C332 C331 1.524 . S
C333 C330 1.403 . S
C333 C334 1.392 . S
C333 C337 1.495 . S
C334 C333 1.392 . S
C334 C335 1.385 . S
C334 C336 1.478 . S
C335 H329 0.930 . S
C335 C331 1.400 . S
C335 C334 1.385 . S
C336 C334 1.478 . S
C336 C338 1.381 . S
C336 C342 1.383 . S
C337 C333 1.495 . S
C337 H343 0.959 . S
C337 H344 0.961 . S
C337 H345 0.960 . S
C338 C336 1.381 . S
C338 C339 1.394 . S
C338 H346 0.930 . S
C339 C338 1.394 . S
C339 C340 1.383 . S
C339 H347 0.929 . S
C340 C339 1.383 . S
C340 C341 1.377 . S
C341 H325 0.930 . S
C341 C340 1.377 . S
C341 C342 1.379 . S
C342 H326 0.931 . S
C342 C336 1.383 . S
C342 C341 1.379 . S
H343 C337 0.959 . S
H344 C337 0.961 . S
H345 C337 0.960 . S
H346 C338 0.930 . S
H347 C339 0.929 . S
H348 C356 0.929 . S
H349 C358 0.930 . S
H350 C360 0.930 . S
H351 C363 0.929 . S
H352 C366 0.930 . S
H353 C368 0.960 . S
H354 C368 0.960 . S
H355 C368 0.960 . S
C356 H348 0.929 . S
C356 C357 1.377 . S
C356 C358 1.384 . S
C357 C356 1.377 . S
C357 C363 1.390 . S
C358 H349 0.930 . S
C358 C356 1.384 . S
C358 C359 1.372 . S
C359 C358 1.372 . S
C359 C360 1.400 . S
C359 C364 1.490 . S
C360 H350 0.930 . S
C360 C359 1.400 . S
C360 C363 1.386 . S
H361 C377 0.930 . S
H362 C378 0.931 . S
C363 H351 0.929 . S
C363 C357 1.390 . S
C363 C360 1.386 . S
C364 C359 1.490 . S
C364 C366 1.395 . S
C364 C367 1.403 . S
H365 C371 0.930 . S
C366 H352 0.930 . S
C366 C364 1.395 . S
C366 C369 1.403 . S
C367 C364 1.403 . S
C367 C368 1.524 . S
C367 C371 1.400 . S
C368 H353 0.960 . S
C368 H354 0.960 . S
C368 H355 0.960 . S
C368 C367 1.524 . S
C369 C366 1.403 . S
C369 C370 1.392 . S
C369 C373 1.495 . S
C370 C369 1.392 . S
C370 C371 1.385 . S
C370 C372 1.478 . S
C371 H365 0.930 . S
C371 C367 1.400 . S
C371 C370 1.385 . S
C372 C370 1.478 . S
C372 C374 1.381 . S
C372 C378 1.383 . S
C373 C369 1.495 . S
C373 H379 0.959 . S
C373 H380 0.961 . S
C373 H381 0.960 . S
C374 C372 1.381 . S
C374 C375 1.394 . S
C374 H382 0.930 . S
C375 C374 1.394 . S
C375 C376 1.383 . S
C375 H383 0.929 . S
C376 C375 1.383 . S
C376 C377 1.377 . S
C377 H361 0.930 . S
C377 C376 1.377 . S
C377 C378 1.379 . S
C378 H362 0.931 . S
C378 C372 1.383 . S
C378 C377 1.379 . S
H379 C373 0.959 . S
H380 C373 0.961 . S
H381 C373 0.960 . S
H382 C374 0.930 . S
H383 C375 0.929 . S
H384 C392 0.929 . S
H385 C394 0.930 . S
H386 C396 0.930 . S
H387 C399 0.929 . S
H388 C402 0.930 . S
H389 C404 0.960 . S
H390 C404 0.960 . S
H391 C404 0.960 . S
C392 H384 0.929 . S
C392 C393 1.377 . S
C392 C394 1.384 . S
C393 C392 1.377 . S
C393 C399 1.390 . S
C394 H385 0.930 . S
C394 C392 1.384 . S
C394 C395 1.372 . S
C395 C394 1.372 . S
C395 C396 1.400 . S
C395 C400 1.490 . S
C396 H386 0.930 . S
C396 C395 1.400 . S
C396 C399 1.386 . S
H397 C413 0.930 . S
H398 C414 0.931 . S
C399 H387 0.929 . S
C399 C393 1.390 . S
C399 C396 1.386 . S
C400 C395 1.490 . S
C400 C402 1.395 . S
C400 C403 1.403 . S
H401 C407 0.930 . S
C402 H388 0.930 . S
C402 C400 1.395 . S
C402 C405 1.403 . S
C403 C400 1.403 . S
C403 C404 1.524 . S
C403 C407 1.400 . S
C404 H389 0.960 . S
C404 H390 0.960 . S
C404 H391 0.960 . S
C404 C403 1.524 . S
C405 C402 1.403 . S
C405 C406 1.392 . S
C405 C409 1.495 . S
C406 C405 1.392 . S
C406 C407 1.385 . S
C406 C408 1.478 . S
C407 H401 0.930 . S
C407 C403 1.400 . S
C407 C406 1.385 . S
C408 C406 1.478 . S
C408 C410 1.381 . S
C408 C414 1.383 . S
C409 C405 1.495 . S
C409 H415 0.959 . S
C409 H416 0.961 . S
C409 H417 0.960 . S
C410 C408 1.381 . S
C410 C411 1.394 . S
C410 H418 0.930 . S
C411 C410 1.394 . S
C411 C412 1.383 . S
C411 H419 0.929 . S
C412 C411 1.383 . S
C412 C413 1.377 . S
C413 H397 0.930 . S
C413 C412 1.377 . S
C413 C414 1.379 . S
C414 H398 0.931 . S
C414 C408 1.383 . S
C414 C413 1.379 . S
H415 C409 0.959 . S
H416 C409 0.961 . S
H417 C409 0.960 . S
H418 C410 0.930 . S
H419 C411 0.929 . S
H420 C428 0.929 . S
H421 C430 0.930 . S
H422 C432 0.930 . S
H423 C435 0.929 . S
H424 C438 0.930 . S
H425 C440 0.960 . S
H426 C440 0.960 . S
H427 C440 0.960 . S
C428 H420 0.929 . S
C428 C429 1.377 . S
C428 C430 1.384 . S
C429 C428 1.377 . S
C429 C435 1.390 . S
C430 H421 0.930 . S
C430 C428 1.384 . S
C430 C431 1.372 . S
C431 C430 1.372 . S
C431 C432 1.400 . S
C431 C436 1.490 . S
C432 H422 0.930 . S
C432 C431 1.400 . S
C432 C435 1.386 . S
H433 C449 0.930 . S
H434 C450 0.931 . S
C435 H423 0.929 . S
C435 C429 1.390 . S
C435 C432 1.386 . S
C436 C431 1.490 . S
C436 C438 1.395 . S
C436 C439 1.403 . S
H437 C443 0.930 . S
C438 H424 0.930 . S
C438 C436 1.395 . S
C438 C441 1.403 . S
C439 C436 1.403 . S
C439 C440 1.524 . S
C439 C443 1.400 . S
C440 H425 0.960 . S
C440 H426 0.960 . S
C440 H427 0.960 . S
C440 C439 1.524 . S
C441 C438 1.403 . S
C441 C442 1.392 . S
C441 C445 1.495 . S
C442 C441 1.392 . S
C442 C443 1.385 . S
C442 C444 1.478 . S
C443 H437 0.930 . S
C443 C439 1.400 . S
C443 C442 1.385 . S
C444 C442 1.478 . S
C444 C446 1.381 . S
C444 C450 1.383 . S
C445 C441 1.495 . S
C445 H451 0.959 . S
C445 H452 0.961 . S
C445 H453 0.960 . S
C446 C444 1.381 . S
C446 C447 1.394 . S
C446 H454 0.930 . S
C447 C446 1.394 . S
C447 C448 1.383 . S
C447 H455 0.929 . S
C448 C447 1.383 . S
C448 C449 1.377 . S
C449 H433 0.930 . S
C449 C448 1.377 . S
C449 C450 1.379 . S
C450 H434 0.931 . S
C450 C444 1.383 . S
C450 C449 1.379 . S
H451 C445 0.959 . S
H452 C445 0.961 . S
H453 C445 0.960 . S
H454 C446 0.930 . S
H455 C447 0.929 . S
H456 C464 0.929 . S
H457 C466 0.930 . S
H458 C468 0.933 . S
H459 C471 0.932 . S
H460 C474 0.930 . S
H461 C476 0.960 . S
H462 C476 0.960 . S
H463 C476 0.960 . S
C464 H456 0.929 . S
C464 C465 1.377 . S
C464 C466 1.384 . S
C465 C464 1.377 . S
C465 C471 1.388 1_556 S
C466 H457 0.930 . S
C466 C464 1.384 . S
C466 C467 1.372 . S
C467 C466 1.372 . S
C467 C468 1.398 1_556 S
C467 C472 1.490 1_556 S
C468 H458 0.933 . S
C468 C467 1.398 1_554 S
C468 C471 1.386 . S
H469 C485 0.930 . S
H470 C486 0.931 . S
C471 H459 0.932 . S
C471 C465 1.388 1_554 S
C471 C468 1.386 . S
C472 C467 1.490 1_554 S
C472 C474 1.394 . S
C472 C475 1.403 1_554 S
H473 C479 0.930 . S
C474 H460 0.930 . S
C474 C472 1.394 . S
C474 C477 1.403 . S
C475 C472 1.403 1_556 S
C475 C476 1.524 . S
C475 C479 1.400 . S
C476 H461 0.960 . S
C476 H462 0.960 . S
C476 H463 0.960 . S
C476 C475 1.524 . S
C477 C474 1.403 . S
C477 C478 1.392 . S
C477 C481 1.495 . S
C478 C477 1.392 . S
C478 C479 1.385 1_554 S
C478 C480 1.478 . S
C479 H473 0.930 . S
C479 C475 1.400 . S
C479 C478 1.385 1_556 S
C480 C478 1.478 . S
C480 C482 1.381 . S
C480 C486 1.383 . S
C481 C477 1.495 . S
C481 H487 0.959 . S
C481 H488 0.961 . S
C481 H489 0.960 . S
C482 C480 1.381 . S
C482 C483 1.394 1_554 S
C482 H490 0.930 1_554 S
C483 C482 1.394 1_556 S
C483 C484 1.383 1_556 S
C483 H491 0.929 . S
C484 C483 1.383 1_554 S
C484 C485 1.377 . S
C485 H469 0.930 . S
C485 C484 1.377 . S
C485 C486 1.379 . S
C486 H470 0.931 . S
C486 C480 1.383 . S
C486 C485 1.379 . S
H487 C481 0.959 . S
H488 C481 0.961 . S
H489 C481 0.960 . S
H490 C482 0.930 1_556 S
H491 C483 0.929 . S
H492 C500 0.929 . S
H493 C502 0.930 . S
H494 C504 0.930 . S
H495 C507 0.929 . S
H496 C510 0.930 . S
H497 C512 0.960 . S
H498 C512 0.960 . S
H499 C512 0.960 . S
C500 H492 0.929 . S
C500 C501 1.377 . S
C500 C502 1.384 . S
C501 C500 1.377 . S
C501 C507 1.390 . S
C502 H493 0.930 . S
C502 C500 1.384 . S
C502 C503 1.372 . S
C503 C502 1.372 . S
C503 C504 1.400 . S
C503 C508 1.490 . S
C504 H494 0.930 . S
C504 C503 1.400 . S
C504 C507 1.386 . S
H505 C521 0.930 . S
H506 C522 0.931 . S
C507 H495 0.929 . S
C507 C501 1.390 . S
C507 C504 1.386 . S
C508 C503 1.490 . S
C508 C510 1.395 . S
C508 C511 1.403 . S
H509 C515 0.930 . S
C510 H496 0.930 . S
C510 C508 1.395 . S
C510 C513 1.403 . S
C511 C508 1.403 . S
C511 C512 1.524 . S
C511 C515 1.400 . S
C512 H497 0.960 . S
C512 H498 0.960 . S
C512 H499 0.960 . S
C512 C511 1.524 . S
C513 C510 1.403 . S
C513 C514 1.392 . S
C513 C517 1.495 . S
C514 C513 1.392 . S
C514 C515 1.385 . S
C514 C516 1.478 . S
C515 H509 0.930 . S
C515 C511 1.400 . S
C515 C514 1.385 . S
C516 C514 1.478 . S
C516 C518 1.381 . S
C516 C522 1.383 . S
C517 C513 1.495 . S
C517 H523 0.959 . S
C517 H524 0.961 . S
C517 H525 0.960 . S
C518 C516 1.381 . S
C518 C519 1.394 . S
C518 H526 0.930 . S
C519 C518 1.394 . S
C519 C520 1.383 . S
C519 H527 0.929 . S
C520 C519 1.383 . S
C520 C521 1.377 . S
C521 H505 0.930 . S
C521 C520 1.377 . S
C521 C522 1.379 . S
C522 H506 0.931 . S
C522 C516 1.383 . S
C522 C521 1.379 . S
H523 C517 0.959 . S
H524 C517 0.961 . S
H525 C517 0.960 . S
H526 C518 0.930 . S
H527 C519 0.929 . S
H528 C536 0.929 . S
H529 C538 0.930 . S
H530 C540 0.930 . S
H531 C543 0.929 . S
H532 C546 0.930 . S
H533 C548 0.960 . S
H534 C548 0.960 . S
H535 C548 0.960 . S
C536 H528 0.929 . S
C536 C537 1.377 . S
C536 C538 1.384 . S
C537 C536 1.377 . S
C537 C543 1.390 . S
C538 H529 0.930 . S
C538 C536 1.384 . S
C538 C539 1.372 . S
C539 C538 1.372 . S
C539 C540 1.400 . S
C539 C544 1.490 . S
C540 H530 0.930 . S
C540 C539 1.400 . S
C540 C543 1.386 . S
H541 C557 0.930 . S
H542 C558 0.931 . S
C543 H531 0.929 . S
C543 C537 1.390 . S
C543 C540 1.386 . S
C544 C539 1.490 . S
C544 C546 1.395 . S
C544 C547 1.403 . S
H545 C551 0.930 . S
C546 H532 0.930 . S
C546 C544 1.395 . S
C546 C549 1.403 . S
C547 C544 1.403 . S
C547 C548 1.524 . S
C547 C551 1.400 . S
C548 H533 0.960 . S
C548 H534 0.960 . S
C548 H535 0.960 . S
C548 C547 1.524 . S
C549 C546 1.403 . S
C549 C550 1.392 . S
C549 C553 1.495 . S
C550 C549 1.392 . S
C550 C551 1.385 . S
C550 C552 1.478 . S
C551 H545 0.930 . S
C551 C547 1.400 . S
C551 C550 1.385 . S
C552 C550 1.478 . S
C552 C554 1.381 . S
C552 C558 1.383 . S
C553 C549 1.495 . S
C553 H559 0.959 . S
C553 H560 0.961 . S
C553 H561 0.960 . S
C554 C552 1.381 . S
C554 C555 1.394 . S
C554 H562 0.930 . S
C555 C554 1.394 . S
C555 C556 1.383 . S
C555 H563 0.929 . S
C556 C555 1.383 . S
C556 C557 1.377 . S
C557 H541 0.930 . S
C557 C556 1.377 . S
C557 C558 1.379 . S
C558 H542 0.931 . S
C558 C552 1.383 . S
C558 C557 1.379 . S
H559 C553 0.959 . S
H560 C553 0.961 . S
H561 C553 0.960 . S
H562 C554 0.930 . S
H563 C555 0.929 . S
H564 C572 0.929 . S
H565 C574 0.930 . S
H566 C576 0.930 . S
H567 C579 0.929 . S
H568 C582 0.930 . S
H569 C584 0.960 . S
H570 C584 0.960 . S
H571 C584 0.960 . S
C572 H564 0.929 . S
C572 C573 1.377 . S
C572 C574 1.384 . S
C573 C572 1.377 . S
C573 C579 1.390 1_554 S
C574 H565 0.930 . S
C574 C572 1.384 . S
C574 C575 1.372 . S
C575 C574 1.372 . S
C575 C576 1.400 1_554 S
C575 C580 1.491 . S
C576 H566 0.930 . S
C576 C575 1.400 1_556 S
C576 C579 1.386 . S
H577 C593 0.930 . S
H578 C594 0.931 . S
C579 H567 0.929 . S
C579 C573 1.390 1_556 S
C579 C576 1.386 . S
C580 C575 1.491 . S
C580 C582 1.383 1_554 S
C580 C583 1.414 . S
H581 C587 0.930 . S
C582 H568 0.930 . S
C582 C580 1.383 1_556 S
C582 C585 1.403 . S
C583 C580 1.414 . S
C583 C584 1.524 . S
C583 C587 1.400 . S
C584 H569 0.960 . S
C584 H570 0.960 . S
C584 H571 0.960 . S
C584 C583 1.524 . S
C585 C582 1.403 . S
C585 C586 1.392 . S
C585 C589 1.495 . S
C586 C585 1.392 . S
C586 C587 1.385 1_556 S
C586 C588 1.478 . S
C587 H581 0.930 . S
C587 C583 1.400 . S
C587 C586 1.385 1_554 S
C588 C586 1.478 . S
C588 C590 1.381 1_556 S
C588 C594 1.383 . S
C589 C585 1.495 . S
C589 H595 0.959 . S
C589 H596 0.961 . S
C589 H597 0.960 . S
C590 C588 1.381 1_554 S
C590 C591 1.394 . S
C590 H598 0.930 . S
C591 C590 1.394 . S
C591 C592 1.383 1_554 S
C591 H599 0.929 . S
C592 C591 1.383 1_556 S
C592 C593 1.377 . S
C593 H577 0.930 . S
C593 C592 1.377 . S
C593 C594 1.379 . S
C594 H578 0.931 . S
C594 C588 1.383 . S
C594 C593 1.379 . S
H595 C589 0.959 . S
H596 C589 0.961 . S
H597 C589 0.960 . S
H598 C590 0.930 . S
H599 C591 0.929 . S
H600 C608 0.929 . S
H601 C610 0.930 . S
H602 C612 0.930 . S
H603 C615 0.929 . S
H604 C618 0.930 . S
H605 C620 0.960 . S
H606 C620 0.960 . S
H607 C620 0.960 1_545 S
C608 H600 0.929 . S
C608 C609 1.377 . S
C608 C610 1.384 . S
C609 C608 1.377 . S
C609 C615 1.390 . S
C610 H601 0.930 . S
C610 C608 1.384 . S
C610 C611 1.372 . S
C611 C610 1.372 . S
C611 C612 1.400 . S
C611 C616 1.490 . S
C612 H602 0.930 . S
C612 C611 1.400 . S
C612 C615 1.386 . S
H613 C629 0.930 . S
H614 C630 0.931 . S
C615 H603 0.929 . S
C615 C609 1.390 . S
C615 C612 1.386 . S
C616 C611 1.490 . S
C616 C618 1.395 . S
C616 C619 1.403 1_545 S
H617 C623 0.930 . S
C618 H604 0.930 . S
C618 C616 1.395 . S
C618 C621 1.403 . S
C619 C616 1.403 1_565 S
C619 C620 1.524 . S
C619 C623 1.400 . S
C620 H605 0.960 . S
C620 H606 0.960 . S
C620 H607 0.960 1_565 S
C620 C619 1.524 . S
C621 C618 1.403 . S
C621 C622 1.392 1_545 S
C621 C625 1.495 . S
C622 C621 1.392 1_565 S
C622 C623 1.385 . S
C622 C624 1.478 . S
C623 H617 0.930 . S
C623 C619 1.400 . S
C623 C622 1.385 . S
C624 C622 1.478 . S
C624 C626 1.381 . S
C624 C630 1.383 . S
C625 C621 1.495 . S
C625 H631 0.959 . S
C625 H632 0.961 . S
C625 H633 0.960 1_545 S
C626 C624 1.381 . S
C626 C627 1.394 . S
C626 H634 0.930 . S
C627 C626 1.394 . S
C627 C628 1.383 . S
C627 H635 0.929 . S
C628 C627 1.383 . S
C628 C629 1.377 . S
C629 H613 0.930 . S
C629 C628 1.377 . S
C629 C630 1.379 . S
C630 H614 0.931 . S
C630 C624 1.383 . S
C630 C629 1.379 . S
H631 C625 0.959 . S
H632 C625 0.961 . S
H633 C625 0.960 1_565 S
H634 C626 0.930 . S
H635 C627 0.929 . S
H636 C644 0.929 . S
H637 C646 0.930 . S
H638 C648 0.930 . S
H639 C651 0.929 . S
H640 C654 0.930 . S
H641 C656 0.960 . S
H642 C656 0.960 . S
H643 C656 0.960 . S
C644 H636 0.929 . S
C644 C645 1.377 . S
C644 C646 1.384 . S
C645 C644 1.377 . S
C645 C651 1.390 . S
C646 H637 0.930 . S
C646 C644 1.384 . S
C646 C647 1.372 . S
C647 C646 1.372 . S
C647 C648 1.400 . S
C647 C652 1.490 . S
C648 H638 0.930 . S
C648 C647 1.400 . S
C648 C651 1.386 . S
H649 C665 0.930 . S
H650 C666 0.931 . S
C651 H639 0.929 . S
C651 C645 1.390 . S
C651 C648 1.386 . S
C652 C647 1.490 . S
C652 C654 1.395 . S
C652 C655 1.403 . S
H653 C659 0.930 . S
C654 H640 0.930 . S
C654 C652 1.395 . S
C654 C657 1.403 . S
C655 C652 1.403 . S
C655 C656 1.524 . S
C655 C659 1.400 . S
C656 H641 0.960 . S
C656 H642 0.960 . S
C656 H643 0.960 . S
C656 C655 1.524 . S
C657 C654 1.403 . S
C657 C658 1.392 . S
C657 C661 1.495 . S
C658 C657 1.392 . S
C658 C659 1.385 . S
C658 C660 1.478 . S
C659 H653 0.930 . S
C659 C655 1.400 . S
C659 C658 1.385 . S
C660 C658 1.478 . S
C660 C662 1.381 . S
C660 C666 1.383 . S
C661 C657 1.495 . S
C661 H667 0.959 . S
C661 H668 0.961 . S
C661 H669 0.960 . S
C662 C660 1.381 . S
C662 C663 1.394 . S
C662 H670 0.930 . S
C663 C662 1.394 . S
C663 C664 1.383 . S
C663 H671 0.929 . S
C664 C663 1.383 . S
C664 C665 1.377 . S
C665 H649 0.930 . S
C665 C664 1.377 . S
C665 C666 1.379 . S
C666 H650 0.931 . S
C666 C660 1.383 . S
C666 C665 1.379 . S
H667 C661 0.959 . S
H668 C661 0.961 . S
H669 C661 0.960 . S
H670 C662 0.930 . S
H671 C663 0.929 . S
H672 C680 0.929 . S
H673 C682 0.930 . S
H674 C684 0.930 . S
H675 C687 0.929 . S
H676 C690 0.930 . S
H677 C692 0.960 . S
H678 C692 0.960 . S
H679 C692 0.960 . S
C680 H672 0.929 . S
C680 C681 1.377 1_554 S
C680 C682 1.384 . S
C681 C680 1.377 1_556 S
C681 C687 1.390 . S
C682 H673 0.930 . S
C682 C680 1.384 . S
C682 C683 1.359 1_554 S
C683 C682 1.359 1_556 S
C683 C684 1.413 . S
C683 C688 1.490 . S
C684 H674 0.930 . S
C684 C683 1.413 . S
C684 C687 1.386 . S
H685 C701 0.930 . S
H686 C702 0.931 . S
C687 H675 0.929 . S
C687 C681 1.390 . S
C687 C684 1.386 . S
C688 C683 1.490 . S
C688 C690 1.408 1_655 S
C688 C691 1.391 1_556 S
H689 C695 0.930 . S
C690 H676 0.930 . S
C690 C688 1.408 1_455 S
C690 C693 1.403 . S
C691 C688 1.391 1_554 S
C691 C692 1.524 . S
C691 C695 1.400 1_655 S
C692 H677 0.960 . S
C692 H678 0.960 . S
C692 H679 0.960 . S
C692 C691 1.524 . S
C693 C690 1.403 . S
C693 C694 1.392 . S
C693 C697 1.495 . S
C694 C693 1.392 . S
C694 C695 1.385 1_556 S
C694 C696 1.478 . S
C695 H689 0.930 . S
C695 C691 1.400 1_455 S
C695 C694 1.385 1_554 S
C696 C694 1.478 . S
C696 C698 1.381 1_556 S
C696 C702 1.383 . S
C697 C693 1.495 . S
C697 H703 0.959 . S
C697 H704 0.961 . S
C697 H705 0.960 . S
C698 C696 1.381 1_554 S
C698 C699 1.394 . S
C698 H706 0.930 . S
C699 C698 1.394 . S
C699 C700 1.383 1_554 S
C699 H707 0.929 . S
C700 C699 1.383 1_556 S
C700 C701 1.377 . S
C701 H685 0.930 . S
C701 C700 1.377 . S
C701 C702 1.379 . S
C702 H686 0.931 . S
C702 C696 1.383 . S
C702 C701 1.379 . S
H703 C697 0.959 . S
H704 C697 0.961 . S
H705 C697 0.960 . S
H706 C698 0.930 . S
H707 C699 0.929 . S
H708 C716 0.929 . S
H709 C718 0.930 . S
H710 C720 0.930 . S
H711 C723 0.929 . S
H712 C726 0.930 . S
H713 C728 0.960 . S
H714 C728 0.960 . S
H715 C728 0.960 . S
C716 H708 0.929 . S
C716 C717 1.377 . S
C716 C718 1.384 . S
C717 C716 1.377 . S
C717 C723 1.390 . S
C718 H709 0.930 . S
C718 C716 1.384 . S
C718 C719 1.372 . S
C719 C718 1.372 . S
C719 C720 1.400 . S
C719 C724 1.490 . S
C720 H710 0.930 . S
C720 C719 1.400 . S
C720 C723 1.386 . S
H721 C737 0.930 . S
H722 C738 0.931 . S
C723 H711 0.929 . S
C723 C717 1.390 . S
C723 C720 1.386 . S
C724 C719 1.490 . S
C724 C726 1.395 . S
C724 C727 1.403 . S
H725 C731 0.930 . S
C726 H712 0.930 . S
C726 C724 1.395 . S
C726 C729 1.403 1_455 S
C727 C724 1.403 . S
C727 C728 1.524 . S
C727 C731 1.400 1_455 S
C728 H713 0.960 . S
C728 H714 0.960 . S
C728 H715 0.960 . S
C728 C727 1.524 . S
C729 C726 1.403 1_655 S
C729 C730 1.392 . S
C729 C733 1.495 . S
C730 C729 1.392 . S
C730 C731 1.385 . S
C730 C732 1.478 . S
C731 H725 0.930 . S
C731 C727 1.400 1_655 S
C731 C730 1.385 . S
C732 C730 1.478 . S
C732 C734 1.381 . S
C732 C738 1.383 . S
C733 C729 1.495 . S
C733 H739 0.959 . S
C733 H740 0.961 . S
C733 H741 0.960 . S
C734 C732 1.381 . S
C734 C735 1.394 . S
C734 H742 0.930 . S
C735 C734 1.394 . S
C735 C736 1.383 . S
C735 H743 0.929 . S
C736 C735 1.383 . S
C736 C737 1.377 . S
C737 H721 0.930 . S
C737 C736 1.377 . S
C737 C738 1.379 . S
C738 H722 0.931 . S
C738 C732 1.383 . S
C738 C737 1.379 . S
H739 C733 0.959 . S
H740 C733 0.961 . S
H741 C733 0.960 . S
H742 C734 0.930 . S
H743 C735 0.929 . S
H744 C752 0.929 . S
H745 C754 0.930 . S
H746 C756 0.930 . S
H747 C759 0.929 . S
H748 C762 0.923 . S
H749 C764 0.960 . S
H750 C764 0.960 . S
H751 C764 0.960 . S
C752 H744 0.929 . S
C752 C753 1.377 . S
C752 C754 1.384 . S
C753 C752 1.377 . S
C753 C759 1.390 . S
C754 H745 0.930 . S
C754 C752 1.384 . S
C754 C755 1.372 . S
C755 C754 1.372 . S
C755 C756 1.400 . S
C755 C760 1.490 . S
C756 H746 0.930 . S
C756 C755 1.400 . S
C756 C759 1.386 . S
H757 C773 0.930 . S
H758 C774 0.931 . S
C759 H747 0.929 . S
C759 C753 1.390 . S
C759 C756 1.386 . S
C760 C755 1.490 . S
C760 C762 1.395 1_545 S
C760 C763 1.403 . S
H761 C767 0.930 . S
C762 H748 0.923 . S
C762 C760 1.395 1_565 S
C762 C765 1.403 . S
C763 C760 1.403 . S
C763 C764 1.524 . S
C763 C767 1.400 1_545 S
C764 H749 0.960 . S
C764 H750 0.960 . S
C764 H751 0.960 . S
C764 C763 1.524 . S
C765 C762 1.403 . S
C765 C766 1.392 . S
C765 C769 1.495 . S
C766 C765 1.392 . S
C766 C767 1.385 . S
C766 C768 1.478 . S
C767 H761 0.930 . S
C767 C763 1.400 1_565 S
C767 C766 1.385 . S
C768 C766 1.478 . S
C768 C770 1.381 . S
C768 C774 1.383 . S
C769 C765 1.495 . S
C769 H775 0.959 . S
C769 H776 0.961 . S
C769 H777 0.960 . S
C770 C768 1.381 . S
C770 C771 1.394 . S
C770 H778 0.930 . S
C771 C770 1.394 . S
C771 C772 1.383 . S
C771 H779 0.929 . S
C772 C771 1.383 . S
C772 C773 1.377 . S
C773 H757 0.930 . S
C773 C772 1.377 . S
C773 C774 1.379 . S
C774 H758 0.931 . S
C774 C768 1.383 . S
C774 C773 1.379 . S
H775 C769 0.959 . S
H776 C769 0.961 . S
H777 C769 0.960 . S
H778 C770 0.930 . S
H779 C771 0.929 . S
H780 C788 0.929 . S
H781 C790 0.930 . S
H782 C792 0.930 . S
H783 C795 0.929 . S
H784 C798 0.932 . S
H785 C800 0.963 . S
H786 C800 0.928 1_556 S
H787 C800 0.990 . S
C788 H780 0.929 . S
C788 C789 1.377 1_556 S
C788 C790 1.384 . S
C789 C788 1.377 1_554 S
C789 C795 1.390 . S
C790 H781 0.930 . S
C790 C788 1.384 . S
C790 C791 1.364 1_556 S
C791 C790 1.364 1_554 S
C791 C792 1.408 . S
C791 C796 1.490 . S
C792 H782 0.930 . S
C792 C791 1.408 . S
C792 C795 1.386 . S
H793 C809 0.930 . S
H794 C810 0.931 . S
C795 H783 0.929 . S
C795 C789 1.390 . S
C795 C792 1.386 . S
C796 C791 1.490 . S
C796 C798 1.393 1_554 S
C796 C799 1.403 . S
H797 C803 0.930 . S
C798 H784 0.932 . S
C798 C796 1.393 1_556 S
C798 C801 1.403 . S
C799 C796 1.403 . S
C799 C800 1.524 . S
C799 C803 1.400 . S
C800 H785 0.963 . S
C800 H786 0.928 1_554 S
C800 H787 0.990 . S
C800 C799 1.524 . S
C801 C798 1.403 . S
C801 C802 1.391 1_556 S
C801 C805 1.496 . S
C802 C801 1.391 1_554 S
C802 C803 1.387 . S
C802 C804 1.479 . S
C803 H797 0.930 . S
C803 C799 1.400 . S
C803 C802 1.387 . S
C804 C802 1.479 . S
C804 C806 1.381 1_554 S
C804 C810 1.383 . S
C805 C801 1.496 . S
C805 H811 0.959 . S
C805 H812 0.961 1_556 S
C805 H813 0.960 . S
C806 C804 1.381 1_556 S
C806 C807 1.394 . S
C806 H814 0.930 . S
C807 C806 1.394 . S
C807 C808 1.383 1_556 S
C807 H815 0.929 . S
C808 C807 1.383 1_554 S
C808 C809 1.377 . S
C809 H793 0.930 . S
C809 C808 1.377 . S
C809 C810 1.379 . S
C810 H794 0.931 . S
C810 C804 1.383 . S
C810 C809 1.379 . S
H811 C805 0.959 . S
H812 C805 0.961 1_554 S
H813 C805 0.960 . S
H814 C806 0.930 . S
H815 C807 0.929 . S
H816 C824 0.929 . S
H817 C826 0.930 . S
H818 C828 0.930 . S
H819 C831 0.929 . S
H820 C834 0.930 . S
H821 C836 0.960 . S
H822 C836 0.960 . S
H823 C836 0.960 . S
C824 H816 0.929 . S
C824 C825 1.377 . S
C824 C826 1.384 . S
C825 C824 1.377 . S
C825 C831 1.390 . S
C826 H817 0.930 . S
C826 C824 1.384 . S
C826 C827 1.372 . S
C827 C826 1.372 . S
C827 C828 1.400 . S
C827 C832 1.490 . S
C828 H818 0.930 . S
C828 C827 1.400 . S
C828 C831 1.386 . S
H829 C845 0.930 . S
H830 C846 0.931 . S
C831 H819 0.929 . S
C831 C825 1.390 . S
C831 C828 1.386 . S
C832 C827 1.490 . S
C832 C834 1.395 . S
C832 C835 1.403 . S
H833 C839 0.930 . S
C834 H820 0.930 . S
C834 C832 1.395 . S
C834 C837 1.403 . S
C835 C832 1.403 . S
C835 C836 1.524 . S
C835 C839 1.400 . S
C836 H821 0.960 . S
C836 H822 0.960 . S
C836 H823 0.960 . S
C836 C835 1.524 . S
C837 C834 1.403 . S
C837 C838 1.392 . S
C837 C841 1.495 . S
C838 C837 1.392 . S
C838 C839 1.385 . S
C838 C840 1.478 . S
C839 H833 0.930 . S
C839 C835 1.400 . S
C839 C838 1.385 . S
C840 C838 1.478 . S
C840 C842 1.381 . S
C840 C846 1.383 . S
C841 C837 1.495 . S
C841 H847 0.959 . S
C841 H848 0.961 . S
C841 H849 0.960 . S
C842 C840 1.381 . S
C842 C843 1.394 . S
C842 H850 0.930 . S
C843 C842 1.394 . S
C843 C844 1.383 . S
C843 H851 0.929 . S
C844 C843 1.383 . S
C844 C845 1.377 . S
C845 H829 0.930 . S
C845 C844 1.377 . S
C845 C846 1.379 . S
C846 H830 0.931 . S
C846 C840 1.383 . S
C846 C845 1.379 . S
H847 C841 0.959 . S
H848 C841 0.961 . S
H849 C841 0.960 . S
H850 C842 0.930 . S
H851 C843 0.929 . S
H852 C860 0.929 . S
H853 C862 0.930 . S
H854 C864 0.930 . S
H855 C867 0.929 . S
H856 C870 0.930 . S
H857 C872 0.960 . S
H858 C872 0.960 . S
H859 C872 0.960 . S
C860 H852 0.929 . S
C860 C861 1.377 . S
C860 C862 1.384 . S
C861 C860 1.377 . S
C861 C867 1.390 . S
C862 H853 0.930 . S
C862 C860 1.384 . S
C862 C863 1.372 . S
C863 C862 1.372 . S
C863 C864 1.400 . S
C863 C868 1.490 . S
C864 H854 0.930 . S
C864 C863 1.400 . S
C864 C867 1.386 . S
H865 C881 0.930 . S
H866 C882 0.931 . S
C867 H855 0.929 . S
C867 C861 1.390 . S
C867 C864 1.386 . S
C868 C863 1.490 . S
C868 C870 1.395 . S
C868 C871 1.403 . S
H869 C875 0.930 . S
C870 H856 0.930 . S
C870 C868 1.395 . S
C870 C873 1.403 . S
C871 C868 1.403 . S
C871 C872 1.524 . S
C871 C875 1.400 . S
C872 H857 0.960 . S
C872 H858 0.960 . S
C872 H859 0.960 . S
C872 C871 1.524 . S
C873 C870 1.403 . S
C873 C874 1.392 . S
C873 C877 1.495 . S
C874 C873 1.392 . S
C874 C875 1.385 . S
C874 C876 1.478 . S
C875 H869 0.930 . S
C875 C871 1.400 . S
C875 C874 1.385 . S
C876 C874 1.478 . S
C876 C878 1.381 . S
C876 C882 1.383 . S
C877 C873 1.495 . S
C877 H883 0.959 . S
C877 H884 0.961 . S
C877 H885 0.960 . S
C878 C876 1.381 . S
C878 C879 1.394 . S
C878 H886 0.930 . S
C879 C878 1.394 . S
C879 C880 1.383 . S
C879 H887 0.929 . S
C880 C879 1.383 . S
C880 C881 1.377 . S
C881 H865 0.930 . S
C881 C880 1.377 . S
C881 C882 1.379 . S
C882 H866 0.931 . S
C882 C876 1.383 . S
C882 C881 1.379 . S
H883 C877 0.959 . S
H884 C877 0.961 . S
H885 C877 0.960 . S
H886 C878 0.930 . S
H887 C879 0.929 . S
H888 C896 0.929 . S
H889 C898 0.930 . S
H890 C900 0.930 . S
H891 C903 0.929 . S
H892 C906 0.930 . S
H893 C908 0.960 . S
H894 C908 0.960 . S
H895 C908 0.960 . S
C896 H888 0.929 . S
C896 C897 1.377 . S
C896 C898 1.384 . S
C897 C896 1.377 . S
C897 C903 1.390 . S
C898 H889 0.930 . S
C898 C896 1.384 . S
C898 C899 1.372 . S
C899 C898 1.372 . S
C899 C900 1.400 . S
C899 C904 1.490 . S
C900 H890 0.930 . S
C900 C899 1.400 . S
C900 C903 1.386 . S
H901 C917 0.930 . S
H902 C918 0.931 . S
C903 H891 0.929 . S
C903 C897 1.390 . S
C903 C900 1.386 . S
C904 C899 1.490 . S
C904 C906 1.395 . S
C904 C907 1.403 . S
H905 C911 0.930 . S
C906 H892 0.930 . S
C906 C904 1.395 . S
C906 C909 1.403 . S
C907 C904 1.403 . S
C907 C908 1.524 . S
C907 C911 1.400 . S
C908 H893 0.960 . S
C908 H894 0.960 . S
C908 H895 0.960 . S
C908 C907 1.524 . S
C909 C906 1.403 . S
C909 C910 1.392 . S
C909 C913 1.495 . S
C910 C909 1.392 . S
C910 C911 1.385 . S
C910 C912 1.478 . S
C911 H905 0.930 . S
C911 C907 1.400 . S
C911 C910 1.385 . S
C912 C910 1.478 . S
C912 C914 1.381 . S
C912 C918 1.383 . S
C913 C909 1.495 . S
C913 H919 0.959 . S
C913 H920 0.961 . S
C913 H921 0.960 . S
C914 C912 1.381 . S
C914 C915 1.394 . S
C914 H922 0.930 . S
C915 C914 1.394 . S
C915 C916 1.383 . S
C915 H923 0.929 . S
C916 C915 1.383 . S
C916 C917 1.377 . S
C917 H901 0.930 . S
C917 C916 1.377 . S
C917 C918 1.379 . S
C918 H902 0.931 . S
C918 C912 1.383 . S
C918 C917 1.379 . S
H919 C913 0.959 . S
H920 C913 0.961 . S
H921 C913 0.960 . S
H922 C914 0.930 . S
H923 C915 0.929 . S
H924 C932 0.929 . S
H925 C934 0.930 . S
H926 C936 0.930 . S
H927 C939 0.929 . S
H928 C942 0.930 . S
H929 C944 0.960 . S
H930 C944 0.960 . S
H931 C944 0.960 . S
C932 H924 0.929 . S
C932 C933 1.377 . S
C932 C934 1.384 . S
C933 C932 1.377 . S
C933 C939 1.390 . S
C934 H925 0.930 . S
C934 C932 1.384 . S
C934 C935 1.372 . S
C935 C934 1.372 . S
C935 C936 1.400 . S
C935 C940 1.490 . S
C936 H926 0.930 . S
C936 C935 1.400 . S
C936 C939 1.386 . S
H937 C953 0.930 . S
H938 C954 0.931 . S
C939 H927 0.929 . S
C939 C933 1.390 . S
C939 C936 1.386 . S
C940 C935 1.490 . S
C940 C942 1.395 . S
C940 C943 1.403 . S
H941 C947 0.930 . S
C942 H928 0.930 . S
C942 C940 1.395 . S
C942 C945 1.403 . S
C943 C940 1.403 . S
C943 C944 1.524 . S
C943 C947 1.400 . S
C944 H929 0.960 . S
C944 H930 0.960 . S
C944 H931 0.960 . S
C944 C943 1.524 . S
C945 C942 1.403 . S
C945 C946 1.392 . S
C945 C949 1.495 . S
C946 C945 1.392 . S
C946 C947 1.385 . S
C946 C948 1.478 . S
C947 H941 0.930 . S
C947 C943 1.400 . S
C947 C946 1.385 . S
C948 C946 1.478 . S
C948 C950 1.381 . S
C948 C954 1.383 . S
C949 C945 1.495 . S
C949 H955 0.959 . S
C949 H956 0.961 . S
C949 H957 0.960 . S
C950 C948 1.381 . S
C950 C951 1.394 . S
C950 H958 0.930 . S
C951 C950 1.394 . S
C951 C952 1.383 . S
C951 H959 0.929 . S
C952 C951 1.383 . S
C952 C953 1.377 . S
C953 H937 0.930 . S
C953 C952 1.377 . S
C953 C954 1.379 . S
C954 H938 0.931 . S
C954 C948 1.383 . S
C954 C953 1.379 . S
H955 C949 0.959 . S
H956 C949 0.961 . S
H957 C949 0.960 . S
H958 C950 0.930 . S
H959 C951 0.929 . S
H960 C968 0.929 . S
H961 C970 0.930 . S
H962 C972 0.930 . S
H963 C975 0.929 . S
H964 C978 0.930 . S
H965 C980 0.960 . S
H966 C980 0.960 . S
H967 C980 0.960 . S
C968 H960 0.929 . S
C968 C969 1.377 . S
C968 C970 1.384 . S
C969 C968 1.377 . S
C969 C975 1.390 . S
C970 H961 0.930 . S
C970 C968 1.384 . S
C970 C971 1.372 . S
C971 C970 1.372 . S
C971 C972 1.400 . S
C971 C976 1.490 . S
C972 H962 0.930 . S
C972 C971 1.400 . S
C972 C975 1.386 . S
H973 C989 0.930 . S
H974 C990 0.931 . S
C975 H963 0.929 . S
C975 C969 1.390 . S
C975 C972 1.386 . S
C976 C971 1.490 . S
C976 C978 1.395 . S
C976 C979 1.403 . S
H977 C983 0.930 . S
C978 H964 0.930 . S
C978 C976 1.395 . S
C978 C981 1.403 . S
C979 C976 1.403 . S
C979 C980 1.524 . S
C979 C983 1.400 . S
C980 H965 0.960 . S
C980 H966 0.960 . S
C980 H967 0.960 . S
C980 C979 1.524 . S
C981 C978 1.403 . S
C981 C982 1.392 . S
C981 C985 1.495 . S
C982 C981 1.392 . S
C982 C983 1.385 . S
C982 C984 1.478 . S
C983 H977 0.930 . S
C983 C979 1.400 . S
C983 C982 1.385 . S
C984 C982 1.478 . S
C984 C986 1.381 . S
C984 C990 1.383 . S
C985 C981 1.495 . S
C985 H991 0.959 . S
C985 H992 0.961 . S
C985 H993 0.960 . S
C986 C984 1.381 . S
C986 C987 1.394 . S
C986 H994 0.930 . S
C987 C986 1.394 . S
C987 C988 1.383 . S
C987 H995 0.929 . S
C988 C987 1.383 . S
C988 C989 1.377 . S
C989 H973 0.930 . S
C989 C988 1.377 . S
C989 C990 1.379 . S
C990 H974 0.931 . S
C990 C984 1.383 . S
C990 C989 1.379 . S
H991 C985 0.959 . S
H992 C985 0.961 . S
H993 C985 0.960 . S
H994 C986 0.930 . S
H995 C987 0.929 . S
H996 C1004 0.929 . S
H997 C1006 0.930 . S
H998 C1008 0.930 . S
H999 C1011 0.929 . S
H1000 C1014 0.930 . S
H1001 C1016 0.960 . S
H1002 C1016 0.960 . S
H1003 C1016 0.960 . S
C1004 H996 0.929 . S
C1004 C1005 1.377 . S
C1004 C1006 1.384 . S
C1005 C1004 1.377 . S
C1005 C1011 1.390 . S
C1006 H997 0.930 . S
C1006 C1004 1.384 . S
C1006 C1007 1.372 . S
C1007 C1006 1.372 . S
C1007 C1008 1.400 . S
C1007 C1012 1.490 . S
C1008 H998 0.930 . S
C1008 C1007 1.400 . S
C1008 C1011 1.386 . S
H1009 C1025 0.930 . S
H1010 C1026 0.931 . S
C1011 H999 0.929 . S
C1011 C1005 1.390 . S
C1011 C1008 1.386 . S
C1012 C1007 1.490 . S
C1012 C1014 1.395 . S
C1012 C1015 1.403 . S
H1013 C1019 0.930 . S
C1014 H1000 0.930 . S
C1014 C1012 1.395 . S
C1014 C1017 1.403 . S
C1015 C1012 1.403 . S
C1015 C1016 1.524 . S
C1015 C1019 1.400 . S
C1016 H1001 0.960 . S
C1016 H1002 0.960 . S
C1016 H1003 0.960 . S
C1016 C1015 1.524 . S
C1017 C1014 1.403 . S
C1017 C1018 1.392 . S
C1017 C1021 1.495 . S
C1018 C1017 1.392 . S
C1018 C1019 1.385 . S
C1018 C1020 1.478 . S
C1019 H1013 0.930 . S
C1019 C1015 1.400 . S
C1019 C1018 1.385 . S
C1020 C1018 1.478 . S
C1020 C1022 1.381 . S
C1020 C1026 1.383 . S
C1021 C1017 1.495 . S
C1021 H1027 0.959 . S
C1021 H1028 0.961 . S
C1021 H1029 0.960 . S
C1022 C1020 1.381 . S
C1022 C1023 1.394 . S
C1022 H1030 0.930 . S
C1023 C1022 1.394 . S
C1023 C1024 1.383 . S
C1023 H1031 0.929 . S
C1024 C1023 1.383 . S
C1024 C1025 1.377 . S
C1025 H1009 0.930 . S
C1025 C1024 1.377 . S
C1025 C1026 1.379 . S
C1026 H1010 0.931 . S
C1026 C1020 1.383 . S
C1026 C1025 1.379 . S
H1027 C1021 0.959 . S
H1028 C1021 0.961 . S
H1029 C1021 0.960 . S
H1030 C1022 0.930 . S
H1031 C1023 0.929 . S
C177 C12 1.459 . S
C196 C141 1.465 . S
C213 C26 1.498 . S
C232 C154 1.485 . S
C249 C96 1.502 . S
C268 C28 1.504 . S
C285 C42 1.463 . S
C304 C110 1.463 . S
C321 C112 1.499 . S
C340 C57 1.515 . S
C357 C126 1.500 . S
C376 C70 1.489 . S
C393 C84 0.911 . S
C412 C0 0.868 . S
C429 C98 0.903 . S
C448 C14 0.943 . S
C465 C124 0.900 . S
C484 C40 0.882 . S
C501 C54 0.907 . S
C520 C138 0.872 . S
C537 C69 0.914 . S
C556 C153 0.872 . S
C573 C82 0.903 . S
C592 C166 0.873 . S
C609 C1 2.351 . S
C628 C55 2.362 . S
C645 C15 2.348 . S
C664 C68 2.322 . S
C681 C41 2.345 . S
C700 C83 2.323 . S
C717 C139 2.346 . S
C736 C85 2.342 . S
C753 C152 2.345 . S
C772 C99 2.327 . S
C789 C167 2.344 . S
C808 C125 2.322 . S
C825 C13 2.009 . S
C844 C113 1.999 . S
C861 C127 2.043 . S
C880 C27 2.033 . S
C897 C29 2.008 . S
C916 C140 1.992 . S
C933 C155 2.010 . S
C952 C43 2.006 . S
C969 C56 2.046 . S
C988 C97 2.048 . S
C1005 C71 2.008 . S
C1024 C111 1.992 . S
