# Generated by pormake.
# Topology sra, (4)-cn, num edge types: 1
# Building blocks:
#     Node 0, Type 0, BuildingBlock: QUQFOY_clean_sbu_1, # of connection points: 4
#     Node 1, Type 0, BuildingBlock: QUQFOY_clean_sbu_1, # of connection points: 4
#     Node 2, Type 0, BuildingBlock: QUQFOY_clean_sbu_1, # of connection points: 4
#     Node 3, Type 0, BuildingBlock: QUQFOY_clean_sbu_1, # of connection points: 4
#     Node 4, Type 0, BuildingBlock: QUQFOY_clean_sbu_1, # of connection points: 4
#     Node 5, Type 0, BuildingBlock: QUQFOY_clean_sbu_1, # of connection points: 4
#     Node 6, Type 0, BuildingBlock: QUQFOY_clean_sbu_1, # of connection points: 4
#     Node 7, Type 0, BuildingBlock: QUQFOY_clean_sbu_1, # of connection points: 4
#     Edge 8, Type (0, 0), BuildingBlock: FUNLAD_clean_linker_0, # of connection points: 2
#     Edge 9, Type (0, 0), BuildingBlock: FUNLAD_clean_linker_0, # of connection points: 2
#     Edge 10, Type (0, 0), BuildingBlock: FUNLAD_clean_linker_0, # of connection points: 2
#     Edge 11, Type (0, 0), BuildingBlock: FUNLAD_clean_linker_0, # of connection points: 2
#     Edge 12, Type (0, 0), BuildingBlock: FUNLAD_clean_linker_0, # of connection points: 2
#     Edge 13, Type (0, 0), BuildingBlock: FUNLAD_clean_linker_0, # of connection points: 2
#     Edge 14, Type (0, 0), BuildingBlock: FUNLAD_clean_linker_0, # of connection points: 2
#     Edge 15, Type (0, 0), BuildingBlock: FUNLAD_clean_linker_0, # of connection points: 2
#     Edge 16, Type (0, 0), BuildingBlock: FUNLAD_clean_linker_0, # of connection points: 2
#     Edge 17, Type (0, 0), BuildingBlock: FUNLAD_clean_linker_0, # of connection points: 2
#     Edge 18, Type (0, 0), BuildingBlock: FUNLAD_clean_linker_0, # of connection points: 2
#     Edge 19, Type (0, 0), BuildingBlock: FUNLAD_clean_linker_0, # of connection points: 2
#     Edge 20, Type (0, 0), BuildingBlock: FUNLAD_clean_linker_0, # of connection points: 2
#     Edge 21, Type (0, 0), BuildingBlock: FUNLAD_clean_linker_0, # of connection points: 2
#     Edge 22, Type (0, 0), BuildingBlock: FUNLAD_clean_linker_0, # of connection points: 2
#     Edge 23, Type (0, 0), BuildingBlock: FUNLAD_clean_linker_0, # of connection points: 2
# Relax obj value: 0.040
# Max RMSD: 0.080
# Mean RMSD: 0.080
data_MOF--net-sra--node1-QUQFOY_clean_sbu_1--edge1-FUNLAD_clean_linker_0
_symmetry_space_group_name_H-M    P1
_symmetry_Int_Tables_number       1
_symmetry_cell_setting            triclinic
loop_
_symmetry_equiv_pos_as_xyz
'x, y, z'
_cell_length_a     32.898108
_cell_length_b     62.087393
_cell_length_c     38.878562
_cell_angle_alpha  89.905561
_cell_angle_beta   89.938749
_cell_angle_gamma 90.117616
loop_
_atom_site_label
_atom_site_type_symbol
_atom_site_fract_x
_atom_site_fract_y
_atom_site_fract_z
_atom_type_partial_charge
O0 O 0.97163 0.1065 0.158 0.0
Cd1 Cd 0.02551 0.11363 0.13341 0.0
Cd2 Cd 0.05251 0.11585 0.19917 0.0
O3 O 0.99539 0.1034 0.21089 0.0
O4 O 0.02335 0.10068 0.08622 0.0
O5 O 0.06491 0.08953 0.12721 0.0
C6 C 0.05079 0.08728 0.09649 0.0
C7 C 0.11424 0.10087 0.21704 0.0
C8 C 0.96598 0.10219 0.18965 0.0
C9 C 0.05152 0.15698 0.15718 0.0
O10 O 0.05536 0.1481 0.18651 0.0
O11 O 0.04204 0.14578 0.131 0.0
O12 O 0.09172 0.11154 0.23821 0.0
O13 O 0.10048 0.09772 0.18641 0.0
O14 O 0.12819 0.4079 0.15715 0.0
Cd15 Cd 0.07833 0.4006 0.12717 0.0
Cd16 Cd 0.04207 0.39576 0.18846 0.0
O17 O 0.09636 0.40789 0.20712 0.0
O18 O 0.08725 0.41376 0.08091 0.0
O19 O 0.03894 0.42432 0.11676 0.0
C20 C 0.05758 0.42664 0.08774 0.0
C21 C 0.97931 0.40998 0.20492 0.0
C22 C 0.1286 0.4107 0.18955 0.0
C23 C 0.05078 0.35612 0.14427 0.0
O24 O 0.04139 0.36388 0.17346 0.0
O25 O 0.06443 0.36836 0.12066 0.0
O26 O 1.00029 0.39815 0.22561 0.0
O27 O 0.9948 0.41443 0.17521 0.0
O28 O 0.97946 0.90673 0.85095 0.0
Cd29 Cd 0.03397 0.90076 0.87511 0.0
Cd30 Cd 0.05922 0.89572 0.81017 0.0
O31 O 1.00213 0.90746 0.79753 0.0
O32 O 0.03098 0.91493 0.92108 0.0
O33 O 0.07268 0.92554 0.87963 0.0
C34 C 0.05794 0.92842 0.91007 0.0
C35 C 0.11949 0.90967 0.78729 0.0
C36 C 0.9732 0.90968 0.81902 0.0
C37 C 0.05909 0.85648 0.85655 0.0
O38 O 0.06245 0.86405 0.82628 0.0
O39 O 0.05022 0.86885 0.88148 0.0
O40 O 0.09621 0.89726 0.76938 0.0
O41 O 0.10747 0.91506 0.8177 0.0
O42 O 0.12854 0.60459 0.84618 0.0
Cd43 Cd 0.07653 0.6136 0.87193 0.0
Cd44 Cd 0.04664 0.61516 0.80756 0.0
O45 O 0.10194 0.60125 0.79436 0.0
O46 O 0.08217 0.60298 0.92026 0.0
O47 O 0.03655 0.59032 0.88368 0.0
C48 C 0.05333 0.58949 0.91365 0.0
C49 C 0.98329 0.60075 0.79261 0.0
C50 C 0.1322 0.59959 0.81462 0.0
C51 C 0.05301 0.65707 0.84653 0.0
O52 O 0.04683 0.64778 0.81787 0.0
O53 O 0.06294 0.64611 0.87287 0.0
O54 O 1.00559 0.61058 0.77016 0.0
O55 O 0.99799 0.59817 0.82312 0.0
O56 O 0.47901 0.60134 0.65354 0.0
Cd57 Cd 0.53259 0.60876 0.62847 0.0
Cd58 Cd 0.55915 0.61199 0.6932 0.0
O59 O 0.50342 0.59853 0.70619 0.0
O60 O 0.52698 0.59748 0.58061 0.0
O61 O 0.571 0.58453 0.61828 0.0
C62 C 0.55475 0.5836 0.58812 0.0
C63 C 0.62235 0.59812 0.70935 0.0
C64 C 0.47381 0.59702 0.68524 0.0
C65 C 0.55548 0.65277 0.65134 0.0
O66 O 0.55883 0.64432 0.68101 0.0
O67 O 0.54816 0.64102 0.62529 0.0
O68 O 0.59974 0.60824 0.73114 0.0
O69 O 0.60796 0.59489 0.67889 0.0
O70 O 0.62706 0.90541 0.66292 0.0
Cd71 Cd 0.5751 0.89638 0.637 0.0
Cd72 Cd 0.54673 0.89483 0.70065 0.0
O73 O 0.6003 0.91008 0.71435 0.0
O74 O 0.58418 0.90687 0.58927 0.0
O75 O 0.53602 0.91972 0.62326 0.0
C76 C 0.55546 0.92062 0.59439 0.0
C77 C 0.48254 0.90594 0.719 0.0
C78 C 0.63064 0.91124 0.6941 0.0
C79 C 0.55565 0.85282 0.6621 0.0
O80 O 0.55081 0.8623 0.69075 0.0
O81 O 0.56243 0.86375 0.63501 0.0
O82 O 0.50746 0.89645 0.73962 0.0
O83 O 0.49504 0.91036 0.68827 0.0
O84 O 0.47389 0.40656 0.34307 0.0
Cd85 Cd 0.52395 0.3975 0.37146 0.0
Cd86 Cd 0.55945 0.39596 0.3092 0.0
O87 O 0.50499 0.40916 0.29291 0.0
O88 O 0.51696 0.40892 0.41909 0.0
O89 O 0.56451 0.42042 0.38309 0.0
C90 C 0.5468 0.42186 0.41265 0.0
C91 C 0.62229 0.4106 0.29343 0.0
C92 C 0.47309 0.41114 0.31118 0.0
C93 C 0.55082 0.35412 0.34844 0.0
O94 O 0.56 0.36346 0.32034 0.0
O95 O 0.53737 0.365 0.37369 0.0
O96 O 0.6005 0.39994 0.27173 0.0
O97 O 0.60751 0.41373 0.32377 0.0
O98 O 0.61956 0.10198 0.35077 0.0
Cd99 Cd 0.5681 0.10998 0.37827 0.0
Cd100 Cd 0.53835 0.1151 0.31453 0.0
O101 O 0.59323 0.10199 0.29864 0.0
O102 O 0.57649 0.0971 0.42481 0.0
O103 O 0.52748 0.08682 0.38953 0.0
C104 C 0.5464 0.08438 0.41834 0.0
C105 C 0.47473 0.10122 0.29956 0.0
C106 C 0.62334 0.09894 0.3186 0.0
C107 C 0.54529 0.15476 0.35897 0.0
O108 O 0.53885 0.14704 0.32917 0.0
O109 O 0.55531 0.14241 0.38368 0.0
O110 O 0.4961 0.11215 0.27776 0.0
O111 O 0.49051 0.0973 0.3293 0.0
C112 C 0.03274 0.3191 0.1649 0.0
C113 C 0.0478 0.33254 0.13868 0.0
C114 C 0.03271 0.29676 0.16101 0.0
C115 C 0.04808 0.28725 0.13086 0.0
C116 C 0.06144 0.30068 0.10401 0.0
C117 C 0.06151 0.3231 0.10791 0.0
C118 C 0.05024 0.26345 0.12684 0.0
C119 C 0.05602 0.25021 0.15394 0.0
C120 C 0.05762 0.22627 0.15219 0.0
C121 C 0.0709 0.21507 0.18149 0.0
C122 C 0.07009 0.19262 0.18259 0.0
C123 C 0.0559 0.18069 0.15435 0.0
H124 H 0.03322 0.22223 0.10055 0.0
C125 C 0.04369 0.19178 0.12454 0.0
C126 C 0.04435 0.21435 0.12348 0.0
H127 H 0.03239 0.18307 0.1024 0.0
H128 H 0.02137 0.3258 0.18875 0.0
H129 H 0.02055 0.28701 0.18172 0.0
H130 H 0.07284 0.29379 0.08031 0.0
H131 H 0.07307 0.33298 0.08709 0.0
H132 H 0.04908 0.25701 0.10095 0.0
H133 H 0.06067 0.25731 0.17916 0.0
H134 H 0.0813 0.22374 0.204 0.0
H135 H 0.0799 0.18465 0.20594 0.0
C136 C 0.0748 0.81954 0.83465 0.0
C137 C 0.06307 0.83293 0.86203 0.0
C138 C 0.07519 0.79719 0.83851 0.0
C139 C 0.06342 0.7876 0.86981 0.0
C140 C 0.05353 0.80098 0.89768 0.0
C141 C 0.05319 0.82342 0.89383 0.0
C142 C 0.06141 0.76377 0.87403 0.0
C143 C 0.05317 0.75048 0.84749 0.0
C144 C 0.05117 0.72652 0.84959 0.0
C145 C 0.03683 0.71526 0.82073 0.0
C146 C 0.03651 0.69279 0.82014 0.0
C147 C 0.05055 0.68089 0.8485 0.0
H148 H 0.07645 0.72249 0.90098 0.0
C149 C 0.06407 0.69206 0.8778 0.0
C150 C 0.06457 0.71463 0.87833 0.0
H151 H 0.0753 0.68339 0.90002 0.0
H152 H 0.08325 0.8263 0.80994 0.0
H153 H 0.08478 0.78752 0.81685 0.0
H154 H 0.04497 0.79404 0.92224 0.0
H155 H 0.04422 0.83326 0.91552 0.0
H156 H 0.0648 0.75739 0.89983 0.0
H157 H 0.04659 0.75753 0.82253 0.0
H158 H 0.02632 0.72388 0.79818 0.0
H159 H 0.02578 0.68476 0.79716 0.0
C160 C 0.55971 0.68951 0.67725 0.0
C161 C 0.55788 0.67652 0.64775 0.0
C162 C 0.55939 0.71192 0.67453 0.0
C163 C 0.55794 0.72203 0.64207 0.0
C164 C 0.55639 0.70902 0.61254 0.0
C165 C 0.55637 0.68652 0.6153 0.0
C166 C 0.55597 0.74593 0.63816 0.0
C167 C 0.5664 0.75975 0.6634 0.0
C168 C 0.56152 0.78349 0.66134 0.0
C169 C 0.55715 0.79489 0.69222 0.0
C170 C 0.55405 0.81727 0.69218 0.0
C171 C 0.55587 0.82894 0.66121 0.0
H172 H 0.56683 0.78684 0.60585 0.0
C173 C 0.55994 0.81758 0.63011 0.0
C174 C 0.56265 0.79503 0.63013 0.0
H175 H 0.56166 0.8261 0.60582 0.0
H176 H 0.56035 0.6824 0.7027 0.0
H177 H 0.55905 0.72101 0.69818 0.0
H178 H 0.55488 0.71629 0.58721 0.0
H179 H 0.55476 0.67699 0.59203 0.0
H180 H 0.54481 0.75222 0.61387 0.0
H181 H 0.57793 0.75359 0.68758 0.0
H182 H 0.55626 0.78644 0.71662 0.0
H183 H 0.55108 0.82542 0.71666 0.0
C184 C 0.53797 0.31903 0.37913 0.0
C185 C 0.55402 0.33035 0.35082 0.0
C186 C 0.53824 0.29647 0.37977 0.0
C187 C 0.55492 0.28476 0.35214 0.0
C188 C 0.57177 0.29616 0.32434 0.0
C189 C 0.57139 0.31862 0.32367 0.0
C190 C 0.55344 0.26083 0.34992 0.0
C191 C 0.54512 0.24747 0.3764 0.0
C192 C 0.54324 0.22367 0.37208 0.0
C193 C 0.55334 0.21019 0.3998 0.0
C194 C 0.55333 0.18776 0.3959 0.0
C195 C 0.5428 0.17838 0.36422 0.0
H196 H 0.5215 0.22401 0.31928 0.0
C197 C 0.53112 0.19189 0.33693 0.0
C198 C 0.53116 0.21423 0.34083 0.0
H199 H 0.52224 0.18524 0.31231 0.0
H200 H 0.52416 0.32758 0.4004 0.0
H201 H 0.52423 0.28842 0.40143 0.0
H202 H 0.58479 0.28764 0.30267 0.0
H203 H 0.58415 0.32677 0.30147 0.0
H204 H 0.56054 0.25388 0.325 0.0
H205 H 0.54152 0.25382 0.40219 0.0
H206 H 0.56218 0.21703 0.42431 0.0
H207 H 0.56224 0.17783 0.41753 0.0
C208 C 0.4149 0.10007 0.25969 0.0
C209 C 0.4322 0.09497 0.29171 0.0
C210 C 0.37348 0.0966 0.25365 0.0
C211 C 0.34837 0.08783 0.27953 0.0
C212 C 0.36599 0.08217 0.31116 0.0
C213 C 0.40745 0.08558 0.31716 0.0
C214 C 0.30337 0.08627 0.2756 0.0
C215 C 0.28438 0.08555 0.24489 0.0
C216 C 0.23943 0.08699 0.24048 0.0
C217 C 0.2224 0.08069 0.20894 0.0
C218 C 0.18123 0.08419 0.202 0.0
C219 C 0.1561 0.09425 0.2264 0.0
H220 H 0.22573 0.10188 0.2898 0.0
C221 C 0.17266 0.09982 0.25849 0.0
C222 C 0.21387 0.0963 0.26546 0.0
H223 H 0.15421 0.10772 0.27778 0.0
H224 H 0.43304 0.10745 0.2396 0.0
H225 H 0.36113 0.10175 0.22923 0.0
H226 H 0.34742 0.07552 0.33165 0.0
H227 H 0.41974 0.08153 0.34217 0.0
H228 H 0.28547 0.08579 0.29906 0.0
H229 H 0.30241 0.084 0.22163 0.0
H230 H 0.24127 0.07358 0.18914 0.0
H231 H 0.16951 0.07971 0.17698 0.0
C232 C 0.6803 0.41304 0.25185 0.0
C233 C 0.66418 0.41744 0.28458 0.0
C234 C 0.72131 0.41693 0.2447 0.0
C235 C 0.74719 0.42547 0.27012 0.0
C236 C 0.73066 0.43057 0.30243 0.0
C237 C 0.6896 0.4267 0.30957 0.0
C238 C 0.79201 0.42711 0.26514 0.0
C239 C 0.81022 0.42748 0.23405 0.0
C240 C 0.85493 0.42536 0.22899 0.0
C241 C 0.87196 0.4315 0.19728 0.0
C242 C 0.91286 0.42739 0.18995 0.0
C243 C 0.93759 0.41684 0.21412 0.0
H244 H 0.86821 0.4099 0.278 0.0
C245 C 0.92097 0.41131 0.24626 0.0
C246 C 0.88013 0.41545 0.25361 0.0
H247 H 0.93913 0.40307 0.2654 0.0
H248 H 0.6616 0.40581 0.23206 0.0
H249 H 0.73278 0.41222 0.21976 0.0
H250 H 0.74985 0.43703 0.32259 0.0
H251 H 0.67817 0.43025 0.33507 0.0
H252 H 0.81054 0.42763 0.28821 0.0
H253 H 0.79179 0.42905 0.21105 0.0
H254 H 0.85328 0.43901 0.17773 0.0
H255 H 0.92469 0.43182 0.1649 0.0
C256 C 0.17946 0.90327 0.74928 0.0
C257 C 0.16033 0.91581 0.77461 0.0
C258 C 0.21997 0.90709 0.74033 0.0
C259 C 0.24195 0.92382 0.75602 0.0
C260 C 0.22225 0.93718 0.77983 0.0
C261 C 0.18192 0.93301 0.78947 0.0
C262 C 0.28589 0.92671 0.74883 0.0
C263 C 0.31138 0.90982 0.75025 0.0
C264 C 0.3558 0.91142 0.74441 0.0
C265 C 0.38161 0.89812 0.76364 0.0
C266 C 0.42317 0.89737 0.75654 0.0
C267 C 0.43971 0.90945 0.7293 0.0
H268 H 0.35309 0.93451 0.70257 0.0
C269 C 0.41406 0.92318 0.71042 0.0
C270 C 0.37245 0.92434 0.71816 0.0
H271 H 0.42595 0.93261 0.68921 0.0
H272 H 0.16369 0.88988 0.73739 0.0
H273 H 0.23437 0.89675 0.72151 0.0
H274 H 0.23861 0.95023 0.7921 0.0
H275 H 0.16789 0.94298 0.80898 0.0
H276 H 0.29774 0.94289 0.74499 0.0
H277 H 0.29943 0.89415 0.75777 0.0
H278 H 0.36943 0.88794 0.78387 0.0
H279 H 0.44199 0.88651 0.77142 0.0
C280 C 0.68122 0.59742 0.75031 0.0
C281 C 0.66475 0.59212 0.71806 0.0
C282 C 0.72259 0.59433 0.75707 0.0
C283 C 0.7485 0.58569 0.73173 0.0
C284 C 0.73165 0.57974 0.69992 0.0
C285 C 0.69029 0.58283 0.69318 0.0
C286 C 0.79351 0.58452 0.73622 0.0
C287 C 0.81237 0.58504 0.76703 0.0
C288 C 0.85734 0.58677 0.77139 0.0
C289 C 0.87439 0.58175 0.80353 0.0
C290 C 0.91569 0.58537 0.80998 0.0
C291 C 0.94094 0.59427 0.78445 0.0
H292 H 0.87115 0.59969 0.72059 0.0
C293 C 0.92427 0.59868 0.75191 0.0
C294 C 0.88297 0.59505 0.74545 0.0
H295 H 0.94279 0.60568 0.73173 0.0
H296 H 0.66248 0.60474 0.76999 0.0
H297 H 0.73421 0.59967 0.78162 0.0
H298 H 0.75078 0.57316 0.67983 0.0
H299 H 0.67866 0.5786 0.66802 0.0
H300 H 0.81161 0.58331 0.71296 0.0
H301 H 0.7943 0.58427 0.79037 0.0
H302 H 0.85547 0.57547 0.82408 0.0
H303 H 0.92749 0.58183 0.83536 0.0
C304 C 0.67832 0.92061 0.74237 0.0
C305 C 0.67117 0.91788 0.707 0.0
C306 C 0.71771 0.92449 0.75454 0.0
C307 C 0.75079 0.92564 0.73153 0.0
C308 C 0.74316 0.92412 0.69613 0.0
C309 C 0.70392 0.92018 0.684 0.0
C310 C 0.79374 0.92771 0.74317 0.0
C311 C 0.80674 0.92105 0.77427 0.0
C312 C 0.85026 0.9203 0.78468 0.0
C313 C 0.85945 0.9191 0.81985 0.0
C314 C 0.89947 0.91636 0.83093 0.0
C315 C 0.93141 0.91455 0.80703 0.0
H316 H 0.87663 0.91928 0.7333 0.0
C317 C 0.92246 0.91623 0.77179 0.0
C318 C 0.88232 0.91902 0.76068 0.0
H319 H 0.94628 0.91478 0.75268 0.0
H320 H 0.65371 0.91918 0.76076 0.0
H321 H 0.72196 0.92639 0.78195 0.0
H322 H 0.76789 0.92521 0.67777 0.0
H323 H 0.6995 0.9184 0.65654 0.0
H324 H 0.8156 0.93364 0.72448 0.0
H325 H 0.78486 0.91512 0.79294 0.0
H326 H 0.83545 0.91991 0.83892 0.0
H327 H 0.90515 0.91515 0.8583 0.0
C328 C 0.42387 0.59043 0.73326 0.0
C329 C 0.43225 0.59193 0.69786 0.0
C330 C 0.38381 0.58816 0.74502 0.0
C331 C 0.35119 0.5872 0.72155 0.0
C332 C 0.35986 0.58799 0.68621 0.0
C333 C 0.3998 0.59025 0.67449 0.0
C334 C 0.30774 0.58728 0.73255 0.0
C335 C 0.29474 0.58184 0.76431 0.0
C336 C 0.25195 0.58462 0.77622 0.0
C337 C 0.2447 0.58658 0.81165 0.0
C338 C 0.20568 0.59084 0.82408 0.0
C339 C 0.17269 0.59306 0.80137 0.0
H340 H 0.22247 0.58368 0.72612 0.0
C341 C 0.17948 0.59009 0.76598 0.0
C342 C 0.21864 0.58587 0.75351 0.0
H343 H 0.1547 0.59146 0.74779 0.0
H344 H 0.44809 0.5918 0.75198 0.0
H345 H 0.37869 0.58813 0.77249 0.0
H346 H 0.3355 0.58735 0.6675 0.0
H347 H 0.40503 0.5913 0.64703 0.0
H348 H 0.28591 0.59285 0.71364 0.0
H349 H 0.31652 0.57626 0.78325 0.0
H350 H 0.26957 0.58547 0.82982 0.0
H351 H 0.20162 0.59282 0.85154 0.0
C352 C 0.67092 0.09258 0.26886 0.0
C353 C 0.66388 0.09322 0.30451 0.0
C354 C 0.71018 0.08923 0.25594 0.0
C355 C 0.74336 0.08654 0.27849 0.0
C356 C 0.73585 0.08617 0.31402 0.0
C357 C 0.69673 0.08955 0.3269 0.0
C358 C 0.78626 0.08456 0.26641 0.0
C359 C 0.7994 0.09169 0.23555 0.0
C360 C 0.8429 0.09204 0.22474 0.0
C361 C 0.85179 0.0939 0.18956 0.0
C362 C 0.89183 0.09636 0.1782 0.0
C363 C 0.92416 0.09723 0.20182 0.0
H364 H 0.86996 0.09147 0.27584 0.0
C365 C 0.91551 0.0948 0.23704 0.0
C366 C 0.87534 0.09229 0.24843 0.0
H367 H 0.93963 0.09553 0.25595 0.0
H368 H 0.64626 0.09513 0.25087 0.0
H369 H 0.71418 0.08884 0.22835 0.0
H370 H 0.76059 0.08389 0.33204 0.0
H371 H 0.69247 0.08974 0.35452 0.0
H372 H 0.80802 0.07799 0.28455 0.0
H373 H 0.77771 0.09819 0.21731 0.0
H374 H 0.82754 0.09386 0.17071 0.0
H375 H 0.89723 0.09815 0.15086 0.0
C376 C 0.20361 0.41796 0.18798 0.0
C377 C 0.16749 0.41578 0.20706 0.0
C378 C 0.24099 0.42058 0.20456 0.0
C379 C 0.24311 0.42122 0.24072 0.0
C380 C 0.20684 0.41964 0.25969 0.0
C381 C 0.16946 0.41703 0.24311 0.0
C382 C 0.28244 0.42161 0.25968 0.0
C383 C 0.31821 0.42779 0.24572 0.0
C384 C 0.35799 0.42541 0.26359 0.0
C385 C 0.3935 0.42387 0.24364 0.0
C386 C 0.43112 0.4199 0.25909 0.0
C387 C 0.43411 0.41748 0.29496 0.0
H388 H 0.33513 0.42603 0.31614 0.0
C389 C 0.39891 0.42006 0.31508 0.0
C390 C 0.36133 0.42408 0.29963 0.0
H391 H 0.40019 0.41864 0.34283 0.0
H392 H 0.20327 0.41698 0.16017 0.0
H393 H 0.26805 0.42116 0.1888 0.0
H394 H 0.20749 0.41996 0.28755 0.0
H395 H 0.14228 0.41539 0.25864 0.0
H396 H 0.28167 0.41572 0.28595 0.0
H397 H 0.31908 0.43367 0.21945 0.0
H398 H 0.39198 0.42508 0.21587 0.0
H399 H 0.45763 0.41814 0.24281 0.0
C400 C 0.04909 0.06687 0.04092 0.0
C401 C 0.06334 0.06887 0.07482 0.0
C402 C 0.05702 0.04824 0.0219 0.0
C403 C 0.07932 0.03118 0.03648 0.0
C404 C 0.0945 0.03348 0.06998 0.0
C405 C 0.08693 0.05218 0.08887 0.0
C406 C 0.08354 0.01006 0.01893 0.0
C407 C 0.08258 0.0077 0.98451 0.0
C408 C 0.08069 0.98634 0.9674 0.0
C409 C 0.09482 0.9843 0.93348 0.0
C410 C 0.08937 0.96506 0.91537 0.0
C411 C 0.06893 0.94758 0.93065 0.0
H412 H 0.04933 0.96964 0.00889 0.0
C413 C 0.05576 0.94941 0.9649 0.0
C414 C 0.0616 0.96855 0.98312 0.0
H415 H 0.03975 0.93627 0.97735 0.0
H416 H 0.03069 0.07941 0.02942 0.0
H417 H 0.04392 0.04688 0.99647 0.0
H418 H 0.11151 0.02054 0.08191 0.0
H419 H 0.09826 0.05317 0.11497 0.0
H420 H 0.08728 0.99593 0.03514 0.0
H421 H 0.08289 0.02189 0.96812 0.0
H422 H 0.10933 0.9978 0.92069 0.0
H423 H 0.09967 0.96421 0.88893 0.0
C424 C 0.01908 0.5546 0.92838 0.0
C425 C 0.04214 0.57253 0.93873 0.0
C426 C 1.01288 0.53727 0.95085 0.0
C427 C 0.02942 0.53764 0.9842 0.0
C428 C 0.05035 0.5561 0.99516 0.0
C429 C 0.05701 0.5733 0.97258 0.0
C430 C 0.02674 0.5188 0.00769 0.0
C431 C 0.02804 0.49835 0.99619 0.0
C432 C 0.03248 0.47952 0.01948 0.0
C433 C 0.05475 0.46166 0.00802 0.0
C434 C 0.0622 0.44428 0.02999 0.0
C435 C 0.04678 0.44421 0.0637 0.0
H436 H 0.99762 0.49243 0.06216 0.0
C437 C 0.02281 0.46161 0.07468 0.0
C438 C 0.01585 0.47917 0.05284 0.0
H439 H 1.01034 0.46196 0.10047 0.0
H440 H 1.00699 0.55358 0.90253 0.0
H441 H 0.99557 0.52353 0.94191 0.0
H442 H 0.06303 0.55687 0.02085 0.0
H443 H 0.07463 0.58696 0.98142 0.0
H444 H 0.02857 0.52188 0.03515 0.0
H445 H 0.03053 0.49539 0.96873 0.0
H446 H 0.06757 0.46144 0.98234 0.0
H447 H 0.08051 0.43103 0.02067 0.0
C448 C 0.58369 0.45595 0.4275 0.0
C449 C 0.55854 0.43872 0.4376 0.0
C450 C 0.59118 0.47308 0.44995 0.0
C451 C 0.57383 0.47324 0.48305 0.0
C452 C 0.55054 0.45548 0.49372 0.0
C453 C 0.54264 0.43849 0.47115 0.0
C454 C 0.5783 0.49186 0.50669 0.0
C455 C 0.58056 0.51236 0.49539 0.0
C456 C 0.57781 0.53115 0.51885 0.0
C457 C 0.55841 0.5499 0.50718 0.0
C458 C 0.55195 0.56721 0.52942 0.0
C459 C 0.56549 0.5663 0.56365 0.0
H460 H 0.60905 0.51659 0.56219 0.0
C461 C 0.58693 0.54802 0.57482 0.0
C462 C 0.59292 0.53056 0.55268 0.0
H463 H 0.59795 0.54689 0.60101 0.0
H464 H 0.59662 0.45653 0.40187 0.0
H465 H 0.61026 0.48624 0.44125 0.0
H466 H 0.53716 0.4551 0.5192 0.0
H467 H 0.52341 0.42537 0.4798 0.0
H468 H 0.57493 0.48875 0.53406 0.0
H469 H 0.57965 0.51557 0.46792 0.0
H470 H 0.54685 0.55085 0.48114 0.0
H471 H 0.5356 0.58114 0.51997 0.0
C472 C 0.51851 0.95399 0.57534 0.0
C473 C 0.54831 0.93821 0.56936 0.0
C474 C 0.51624 0.9723 0.55429 0.0
C475 C 0.54392 0.97515 0.52703 0.0
C476 C 0.57248 0.95896 0.52032 0.0
C477 C 0.57447 0.94063 0.54101 0.0
C478 C 0.54689 0.99557 0.5073 0.0
C479 C 0.51568 0.00913 0.50186 0.0
C480 C 0.52173 0.02951 0.48254 0.0
C481 C 0.4932 0.03601 0.45785 0.0
C482 C 0.50054 0.05423 0.43743 0.0
C483 C 0.53611 0.06651 0.44202 0.0
H484 H 0.57848 0.03793 0.50752 0.0
C485 C 0.56346 0.06062 0.46811 0.0
C486 C 0.55645 0.04227 0.48803 0.0
H487 H 0.59105 0.06978 0.47242 0.0
H488 H 0.49802 0.95263 0.59706 0.0
H489 H 0.49425 0.98464 0.56055 0.0
H490 H 0.59419 0.96077 0.49951 0.0
H491 H 0.5978 0.92882 0.53564 0.0
H492 H 0.57631 0.99938 0.496 0.0
H493 H 0.4851 0.00473 0.50979 0.0
H494 H 0.46602 0.02654 0.45343 0.0
H495 H 0.47879 0.05845 0.41765 0.0
loop_
_geom_bond_atom_site_label_1
_geom_bond_atom_site_label_2
_geom_bond_distance
_geom_bond_site_symmetry_2
_ccdc_geom_bond_type
O0 Cd1 2.223 1_655 S
O0 C8 1.315 . S
Cd1 O0 2.223 1_455 S
Cd1 O4 2.297 1_455 S
Cd1 O5 2.439 . S
Cd1 O11 2.240 . S
Cd2 O3 2.240 1_455 S
Cd2 O10 2.223 . S
Cd2 O12 2.297 . S
Cd2 O13 2.439 . S
O3 Cd2 2.240 1_655 S
O3 C8 1.279 . S
O4 Cd1 2.297 1_655 S
O4 C6 1.247 1_655 S
O5 Cd1 2.439 . S
O5 C6 1.208 . S
C6 O4 1.247 1_455 S
C6 O5 1.208 . S
C7 O12 1.247 . S
C7 O13 1.208 . S
C8 O0 1.315 . S
C8 O3 1.279 . S
C9 O10 1.315 . S
C9 O11 1.279 . S
O10 Cd2 2.223 . S
O10 C9 1.315 . S
O11 Cd1 2.240 . S
O11 C9 1.279 . S
O12 Cd2 2.297 . S
O12 C7 1.247 . S
O13 Cd2 2.439 . S
O13 C7 1.208 . S
O14 Cd15 2.223 . S
O14 C22 1.315 . S
Cd15 O14 2.223 . S
Cd15 O18 2.297 . S
Cd15 O19 2.439 . S
Cd15 O25 2.240 . S
Cd16 O17 2.240 . S
Cd16 O24 2.223 . S
Cd16 O26 2.297 1_455 S
Cd16 O27 2.439 1_455 S
O17 Cd16 2.240 . S
O17 C22 1.279 . S
O18 Cd15 2.297 . S
O18 C20 1.247 . S
O19 Cd15 2.439 . S
O19 C20 1.208 . S
C20 O18 1.247 . S
C20 O19 1.208 . S
C21 O26 1.247 . S
C21 O27 1.208 . S
C22 O14 1.315 . S
C22 O17 1.279 . S
C23 O24 1.315 . S
C23 O25 1.279 . S
O24 Cd16 2.223 . S
O24 C23 1.315 . S
O25 Cd15 2.240 . S
O25 C23 1.279 . S
O26 Cd16 2.297 1_655 S
O26 C21 1.247 . S
O27 Cd16 2.439 1_655 S
O27 C21 1.208 . S
O28 Cd29 2.223 1_655 S
O28 C36 1.315 . S
Cd29 O28 2.223 1_455 S
Cd29 O32 2.297 1_455 S
Cd29 O33 2.439 . S
Cd29 O39 2.240 . S
Cd30 O31 2.240 1_455 S
Cd30 O38 2.223 . S
Cd30 O40 2.297 . S
Cd30 O41 2.439 . S
O31 Cd30 2.240 1_655 S
O31 C36 1.279 . S
O32 Cd29 2.297 1_655 S
O32 C34 1.247 1_655 S
O33 Cd29 2.439 . S
O33 C34 1.208 . S
C34 O32 1.247 1_455 S
C34 O33 1.208 . S
C35 O40 1.247 . S
C35 O41 1.208 . S
C36 O28 1.315 . S
C36 O31 1.279 . S
C37 O38 1.315 . S
C37 O39 1.279 . S
O38 Cd30 2.223 . S
O38 C37 1.315 . S
O39 Cd29 2.240 . S
O39 C37 1.279 . S
O40 Cd30 2.297 . S
O40 C35 1.247 . S
O41 Cd30 2.439 . S
O41 C35 1.208 . S
O42 Cd43 2.223 . S
O42 C50 1.315 . S
Cd43 O42 2.223 . S
Cd43 O46 2.297 . S
Cd43 O47 2.439 . S
Cd43 O53 2.240 . S
Cd44 O45 2.240 . S
Cd44 O52 2.223 . S
Cd44 O54 2.297 1_455 S
Cd44 O55 2.439 1_455 S
O45 Cd44 2.240 . S
O45 C50 1.279 . S
O46 Cd43 2.297 . S
O46 C48 1.247 . S
O47 Cd43 2.439 . S
O47 C48 1.208 . S
C48 O46 1.247 . S
C48 O47 1.208 . S
C49 O54 1.247 . S
C49 O55 1.208 . S
C50 O42 1.315 . S
C50 O45 1.279 . S
C51 O52 1.315 . S
C51 O53 1.279 . S
O52 Cd44 2.223 . S
O52 C51 1.315 . S
O53 Cd43 2.240 . S
O53 C51 1.279 . S
O54 Cd44 2.297 1_655 S
O54 C49 1.247 . S
O55 Cd44 2.439 1_655 S
O55 C49 1.208 . S
O56 Cd57 2.223 . S
O56 C64 1.315 . S
Cd57 O56 2.223 . S
Cd57 O60 2.297 . S
Cd57 O61 2.439 . S
Cd57 O67 2.240 . S
Cd58 O59 2.240 . S
Cd58 O66 2.223 . S
Cd58 O68 2.297 . S
Cd58 O69 2.439 . S
O59 Cd58 2.240 . S
O59 C64 1.279 . S
O60 Cd57 2.297 . S
O60 C62 1.247 . S
O61 Cd57 2.439 . S
O61 C62 1.208 . S
C62 O60 1.247 . S
C62 O61 1.208 . S
C63 O68 1.247 . S
C63 O69 1.208 . S
C64 O56 1.315 . S
C64 O59 1.279 . S
C65 O66 1.315 . S
C65 O67 1.279 . S
O66 Cd58 2.223 . S
O66 C65 1.315 . S
O67 Cd57 2.240 . S
O67 C65 1.279 . S
O68 Cd58 2.297 . S
O68 C63 1.247 . S
O69 Cd58 2.439 . S
O69 C63 1.208 . S
O70 Cd71 2.223 . S
O70 C78 1.315 . S
Cd71 O70 2.223 . S
Cd71 O74 2.297 . S
Cd71 O75 2.439 . S
Cd71 O81 2.240 . S
Cd72 O73 2.240 . S
Cd72 O80 2.223 . S
Cd72 O82 2.297 . S
Cd72 O83 2.439 . S
O73 Cd72 2.240 . S
O73 C78 1.279 . S
O74 Cd71 2.297 . S
O74 C76 1.247 . S
O75 Cd71 2.439 . S
O75 C76 1.208 . S
C76 O74 1.247 . S
C76 O75 1.208 . S
C77 O82 1.247 . S
C77 O83 1.208 . S
C78 O70 1.315 . S
C78 O73 1.279 . S
C79 O80 1.315 . S
C79 O81 1.279 . S
O80 Cd72 2.223 . S
O80 C79 1.315 . S
O81 Cd71 2.240 . S
O81 C79 1.279 . S
O82 Cd72 2.297 . S
O82 C77 1.247 . S
O83 Cd72 2.439 . S
O83 C77 1.208 . S
O84 Cd85 2.223 . S
O84 C92 1.315 . S
Cd85 O84 2.223 . S
Cd85 O88 2.297 . S
Cd85 O89 2.439 . S
Cd85 O95 2.240 . S
Cd86 O87 2.240 . S
Cd86 O94 2.223 . S
Cd86 O96 2.297 . S
Cd86 O97 2.439 . S
O87 Cd86 2.240 . S
O87 C92 1.279 . S
O88 Cd85 2.297 . S
O88 C90 1.247 . S
O89 Cd85 2.439 . S
O89 C90 1.208 . S
C90 O88 1.247 . S
C90 O89 1.208 . S
C91 O96 1.247 . S
C91 O97 1.208 . S
C92 O84 1.315 . S
C92 O87 1.279 . S
C93 O94 1.315 . S
C93 O95 1.279 . S
O94 Cd86 2.223 . S
O94 C93 1.315 . S
O95 Cd85 2.240 . S
O95 C93 1.279 . S
O96 Cd86 2.297 . S
O96 C91 1.247 . S
O97 Cd86 2.439 . S
O97 C91 1.208 . S
O98 Cd99 2.223 . S
O98 C106 1.315 . S
Cd99 O98 2.223 . S
Cd99 O102 2.297 . S
Cd99 O103 2.439 . S
Cd99 O109 2.240 . S
Cd100 O101 2.240 . S
Cd100 O108 2.223 . S
Cd100 O110 2.297 . S
Cd100 O111 2.439 . S
O101 Cd100 2.240 . S
O101 C106 1.279 . S
O102 Cd99 2.297 . S
O102 C104 1.247 . S
O103 Cd99 2.439 . S
O103 C104 1.208 . S
C104 O102 1.247 . S
C104 O103 1.208 . S
C105 O110 1.247 . S
C105 O111 1.208 . S
C106 O98 1.315 . S
C106 O101 1.279 . S
C107 O108 1.315 . S
C107 O109 1.279 . S
O108 Cd100 2.223 . S
O108 C107 1.315 . S
O109 Cd99 2.240 . S
O109 C107 1.279 . S
O110 Cd100 2.297 . S
O110 C105 1.247 . S
O111 Cd100 2.439 . S
O111 C105 1.208 . S
C112 C113 1.386 . S
C112 C114 1.383 . S
C112 H128 0.951 . S
C113 C112 1.386 . S
C113 C117 1.383 . S
C114 C112 1.383 . S
C114 C115 1.402 . S
C114 H129 0.951 . S
C115 C114 1.402 . S
C115 C116 1.375 . S
C115 C118 1.481 . S
C116 C115 1.375 . S
C116 C117 1.367 . S
C116 H130 0.951 1_455 S
C117 C113 1.383 . S
C117 C116 1.367 . S
C117 H131 0.965 . S
C118 C115 1.481 . S
C118 C119 1.297 . S
C118 H132 0.950 1_455 S
C119 C118 1.297 . S
C119 C120 1.479 . S
C119 H133 0.950 . S
C120 C119 1.479 . S
C120 C121 1.375 . S
C120 C126 1.404 1_455 S
C121 C120 1.375 . S
C121 C122 1.369 . S
C121 H134 0.950 . S
C122 C121 1.369 . S
C122 C123 1.392 . S
C122 H135 0.951 . S
C123 C122 1.392 . S
C123 C125 1.384 1_455 S
H124 C126 0.949 . S
C125 C123 1.384 1_655 S
C125 C126 1.385 . S
C125 H127 0.950 . S
C126 C120 1.404 1_655 S
C126 H124 0.949 . S
C126 C125 1.385 . S
H127 C125 0.950 . S
H128 C112 0.951 . S
H129 C114 0.951 . S
H130 C116 0.951 1_655 S
H131 C117 0.965 . S
H132 C118 0.950 1_655 S
H133 C119 0.950 . S
H134 C121 0.950 . S
H135 C122 0.951 . S
C136 C137 1.386 . S
C136 C138 1.383 . S
C136 H152 0.951 . S
C137 C136 1.386 . S
C137 C141 1.383 . S
C138 C136 1.383 . S
C138 C139 1.402 . S
C138 H153 0.951 . S
C139 C138 1.402 . S
C139 C140 1.375 . S
C139 C142 1.481 . S
C140 C139 1.375 . S
C140 C141 1.367 . S
C140 H154 0.951 1_455 S
C141 C137 1.383 . S
C141 C140 1.367 . S
C141 H155 0.950 1_455 S
C142 C139 1.481 . S
C142 C143 1.297 . S
C142 H156 0.950 . S
C143 C142 1.297 . S
C143 C144 1.479 . S
C143 H157 0.950 . S
C144 C143 1.479 . S
C144 C145 1.375 . S
C144 C150 1.404 . S
C145 C144 1.375 . S
C145 C146 1.369 . S
C145 H158 0.950 . S
C146 C145 1.369 . S
C146 C147 1.392 . S
C146 H159 0.951 . S
C147 C146 1.392 . S
C147 C149 1.384 . S
H148 C150 0.949 . S
C149 C147 1.384 . S
C149 C150 1.385 . S
C149 H151 0.950 . S
C150 C144 1.404 . S
C150 H148 0.949 . S
C150 C149 1.385 . S
H151 C149 0.950 . S
H152 C136 0.951 . S
H153 C138 0.951 . S
H154 C140 0.951 1_655 S
H155 C141 0.950 1_655 S
H156 C142 0.950 . S
H157 C143 0.950 . S
H158 C145 0.950 . S
H159 C146 0.951 . S
C160 C161 1.386 . S
C160 C162 1.383 . S
C160 H176 0.951 . S
C161 C160 1.386 . S
C161 C165 1.383 . S
C162 C160 1.383 . S
C162 C163 1.402 . S
C162 H177 0.951 . S
C163 C162 1.402 . S
C163 C164 1.375 . S
C163 C166 1.481 . S
C164 C163 1.375 . S
C164 C165 1.367 . S
C164 H178 0.951 . S
C165 C161 1.383 . S
C165 C164 1.367 . S
C165 H179 0.950 . S
C166 C163 1.481 . S
C166 C167 1.297 . S
C166 H180 0.950 . S
C167 C166 1.297 . S
C167 C168 1.479 . S
C167 H181 0.950 . S
C168 C167 1.479 . S
C168 C169 1.375 . S
C168 C174 1.404 . S
C169 C168 1.375 . S
C169 C170 1.369 . S
C169 H182 0.950 . S
C170 C169 1.369 . S
C170 C171 1.392 . S
C170 H183 0.951 . S
C171 C170 1.392 . S
C171 C173 1.384 . S
H172 C174 0.949 . S
C173 C171 1.384 . S
C173 C174 1.385 . S
C173 H175 0.950 . S
C174 C168 1.404 . S
C174 H172 0.949 . S
C174 C173 1.385 . S
H175 C173 0.950 . S
H176 C160 0.951 . S
H177 C162 0.951 . S
H178 C164 0.951 . S
H179 C165 0.950 . S
H180 C166 0.950 . S
H181 C167 0.950 . S
H182 C169 0.950 . S
H183 C170 0.951 . S
C184 C185 1.386 . S
C184 C186 1.383 . S
C184 H200 0.951 . S
C185 C184 1.386 . S
C185 C189 1.383 . S
C186 C184 1.383 . S
C186 C187 1.402 . S
C186 H201 0.951 . S
C187 C186 1.402 . S
C187 C188 1.375 . S
C187 C190 1.481 . S
C188 C187 1.375 . S
C188 C189 1.367 . S
C188 H202 0.951 . S
C189 C185 1.383 . S
C189 C188 1.367 . S
C189 H203 0.950 . S
C190 C187 1.481 . S
C190 C191 1.297 . S
C190 H204 0.950 . S
C191 C190 1.297 . S
C191 C192 1.479 . S
C191 H205 0.950 . S
C192 C191 1.479 . S
C192 C193 1.375 . S
C192 C198 1.404 . S
C193 C192 1.375 . S
C193 C194 1.369 . S
C193 H206 0.950 . S
C194 C193 1.369 . S
C194 C195 1.392 . S
C194 H207 0.951 . S
C195 C194 1.392 . S
C195 C197 1.384 . S
H196 C198 0.949 . S
C197 C195 1.384 . S
C197 C198 1.385 . S
C197 H199 0.950 . S
C198 C192 1.404 . S
C198 H196 0.949 . S
C198 C197 1.385 . S
H199 C197 0.950 . S
H200 C184 0.951 . S
H201 C186 0.951 . S
H202 C188 0.951 . S
H203 C189 0.950 . S
H204 C190 0.950 . S
H205 C191 0.950 . S
H206 C193 0.950 . S
H207 C194 0.951 . S
C208 C209 1.386 . S
C208 C210 1.383 . S
C208 H224 0.951 . S
C209 C208 1.386 . S
C209 C213 1.383 . S
C210 C208 1.383 . S
C210 C211 1.402 . S
C210 H225 0.951 . S
C211 C210 1.402 . S
C211 C212 1.375 . S
C211 C214 1.481 . S
C212 C211 1.375 . S
C212 C213 1.367 . S
C212 H226 0.951 . S
C213 C209 1.383 . S
C213 C212 1.367 . S
C213 H227 0.950 . S
C214 C211 1.481 . S
C214 C215 1.297 . S
C214 H228 0.950 . S
C215 C214 1.297 . S
C215 C216 1.479 . S
C215 H229 0.950 . S
C216 C215 1.479 . S
C216 C217 1.375 . S
C216 C222 1.404 . S
C217 C216 1.375 . S
C217 C218 1.369 . S
C217 H230 0.950 . S
C218 C217 1.369 . S
C218 C219 1.392 . S
C218 H231 0.951 . S
C219 C218 1.392 . S
C219 C221 1.384 . S
H220 C222 0.949 . S
C221 C219 1.384 . S
C221 C222 1.385 . S
C221 H223 0.950 . S
C222 C216 1.404 . S
C222 H220 0.949 . S
C222 C221 1.385 . S
H223 C221 0.950 . S
H224 C208 0.951 . S
H225 C210 0.951 . S
H226 C212 0.951 . S
H227 C213 0.950 . S
H228 C214 0.950 . S
H229 C215 0.950 . S
H230 C217 0.950 . S
H231 C218 0.951 . S
C232 C233 1.386 . S
C232 C234 1.383 . S
C232 H248 0.951 . S
C233 C232 1.386 . S
C233 C237 1.383 . S
C234 C232 1.383 . S
C234 C235 1.402 . S
C234 H249 0.951 . S
C235 C234 1.402 . S
C235 C236 1.375 . S
C235 C238 1.481 . S
C236 C235 1.375 . S
C236 C237 1.367 . S
C236 H250 0.951 . S
C237 C233 1.383 . S
C237 C236 1.367 . S
C237 H251 0.950 . S
C238 C235 1.481 . S
C238 C239 1.297 . S
C238 H252 0.950 . S
C239 C238 1.297 . S
C239 C240 1.479 . S
C239 H253 0.950 . S
C240 C239 1.479 . S
C240 C241 1.375 . S
C240 C246 1.404 . S
C241 C240 1.375 . S
C241 C242 1.369 . S
C241 H254 0.950 . S
C242 C241 1.369 . S
C242 C243 1.392 . S
C242 H255 0.951 . S
C243 C242 1.392 . S
C243 C245 1.384 . S
H244 C246 0.949 . S
C245 C243 1.384 . S
C245 C246 1.385 . S
C245 H247 0.950 . S
C246 C240 1.404 . S
C246 H244 0.949 . S
C246 C245 1.385 . S
H247 C245 0.950 . S
H248 C232 0.951 . S
H249 C234 0.951 . S
H250 C236 0.951 . S
H251 C237 0.950 . S
H252 C238 0.950 . S
H253 C239 0.950 . S
H254 C241 0.950 . S
H255 C242 0.951 . S
C256 C257 1.386 . S
C256 C258 1.383 . S
C256 H272 0.951 . S
C257 C256 1.386 . S
C257 C261 1.383 . S
C258 C256 1.383 . S
C258 C259 1.402 . S
C258 H273 0.951 . S
C259 C258 1.402 . S
C259 C260 1.375 . S
C259 C262 1.481 . S
C260 C259 1.375 . S
C260 C261 1.367 . S
C260 H274 0.951 . S
C261 C257 1.383 . S
C261 C260 1.367 . S
C261 H275 0.950 . S
C262 C259 1.481 . S
C262 C263 1.297 . S
C262 H276 0.950 . S
C263 C262 1.297 . S
C263 C264 1.479 . S
C263 H277 0.950 . S
C264 C263 1.479 . S
C264 C265 1.375 . S
C264 C270 1.404 . S
C265 C264 1.375 . S
C265 C266 1.369 . S
C265 H278 0.950 . S
C266 C265 1.369 . S
C266 C267 1.392 . S
C266 H279 0.951 . S
C267 C266 1.392 . S
C267 C269 1.384 . S
H268 C270 0.949 . S
C269 C267 1.384 . S
C269 C270 1.385 . S
C269 H271 0.950 . S
C270 C264 1.404 . S
C270 H268 0.949 . S
C270 C269 1.385 . S
H271 C269 0.950 . S
H272 C256 0.951 . S
H273 C258 0.951 . S
H274 C260 0.951 . S
H275 C261 0.950 . S
H276 C262 0.950 . S
H277 C263 0.950 . S
H278 C265 0.950 . S
H279 C266 0.951 . S
C280 C281 1.386 . S
C280 C282 1.383 . S
C280 H296 0.951 . S
C281 C280 1.386 . S
C281 C285 1.383 . S
C282 C280 1.383 . S
C282 C283 1.402 . S
C282 H297 0.951 . S
C283 C282 1.402 . S
C283 C284 1.375 . S
C283 C286 1.481 . S
C284 C283 1.375 . S
C284 C285 1.367 . S
C284 H298 0.951 . S
C285 C281 1.383 . S
C285 C284 1.367 . S
C285 H299 0.950 . S
C286 C283 1.481 . S
C286 C287 1.297 . S
C286 H300 0.950 . S
C287 C286 1.297 . S
C287 C288 1.479 . S
C287 H301 0.950 . S
C288 C287 1.479 . S
C288 C289 1.375 . S
C288 C294 1.404 . S
C289 C288 1.375 . S
C289 C290 1.369 . S
C289 H302 0.950 . S
C290 C289 1.369 . S
C290 C291 1.392 . S
C290 H303 0.951 . S
C291 C290 1.392 . S
C291 C293 1.384 . S
H292 C294 0.949 . S
C293 C291 1.384 . S
C293 C294 1.385 . S
C293 H295 0.950 . S
C294 C288 1.404 . S
C294 H292 0.949 . S
C294 C293 1.385 . S
H295 C293 0.950 . S
H296 C280 0.951 . S
H297 C282 0.951 . S
H298 C284 0.951 . S
H299 C285 0.950 . S
H300 C286 0.950 . S
H301 C287 0.950 . S
H302 C289 0.950 . S
H303 C290 0.951 . S
C304 C305 1.386 . S
C304 C306 1.383 . S
C304 H320 0.951 . S
C305 C304 1.386 . S
C305 C309 1.383 . S
C306 C304 1.383 . S
C306 C307 1.402 . S
C306 H321 0.951 . S
C307 C306 1.402 . S
C307 C308 1.375 . S
C307 C310 1.481 . S
C308 C307 1.375 . S
C308 C309 1.367 . S
C308 H322 0.951 . S
C309 C305 1.383 . S
C309 C308 1.367 . S
C309 H323 0.950 . S
C310 C307 1.481 . S
C310 C311 1.297 . S
C310 H324 0.950 . S
C311 C310 1.297 . S
C311 C312 1.479 . S
C311 H325 0.950 . S
C312 C311 1.479 . S
C312 C313 1.375 . S
C312 C318 1.404 . S
C313 C312 1.375 . S
C313 C314 1.369 . S
C313 H326 0.950 . S
C314 C313 1.369 . S
C314 C315 1.392 . S
C314 H327 0.951 . S
C315 C314 1.392 . S
C315 C317 1.384 . S
H316 C318 0.949 . S
C317 C315 1.384 . S
C317 C318 1.385 . S
C317 H319 0.950 . S
C318 C312 1.404 . S
C318 H316 0.949 . S
C318 C317 1.385 . S
H319 C317 0.950 . S
H320 C304 0.951 . S
H321 C306 0.951 . S
H322 C308 0.951 . S
H323 C309 0.950 . S
H324 C310 0.950 . S
H325 C311 0.950 . S
H326 C313 0.950 . S
H327 C314 0.951 . S
C328 C329 1.386 . S
C328 C330 1.383 . S
C328 H344 0.951 . S
C329 C328 1.386 . S
C329 C333 1.383 . S
C330 C328 1.383 . S
C330 C331 1.402 . S
C330 H345 0.951 . S
C331 C330 1.402 . S
C331 C332 1.375 . S
C331 C334 1.481 . S
C332 C331 1.375 . S
C332 C333 1.367 . S
C332 H346 0.951 . S
C333 C329 1.383 . S
C333 C332 1.367 . S
C333 H347 0.950 . S
C334 C331 1.481 . S
C334 C335 1.297 . S
C334 H348 0.950 . S
C335 C334 1.297 . S
C335 C336 1.479 . S
C335 H349 0.950 . S
C336 C335 1.479 . S
C336 C337 1.375 . S
C336 C342 1.404 . S
C337 C336 1.375 . S
C337 C338 1.369 . S
C337 H350 0.950 . S
C338 C337 1.369 . S
C338 C339 1.392 . S
C338 H351 0.951 . S
C339 C338 1.392 . S
C339 C341 1.384 . S
H340 C342 0.949 . S
C341 C339 1.384 . S
C341 C342 1.385 . S
C341 H343 0.950 . S
C342 C336 1.404 . S
C342 H340 0.949 . S
C342 C341 1.385 . S
H343 C341 0.950 . S
H344 C328 0.951 . S
H345 C330 0.951 . S
H346 C332 0.951 . S
H347 C333 0.950 . S
H348 C334 0.950 . S
H349 C335 0.950 . S
H350 C337 0.950 . S
H351 C338 0.951 . S
C352 C353 1.386 . S
C352 C354 1.383 . S
C352 H368 0.951 . S
C353 C352 1.386 . S
C353 C357 1.383 . S
C354 C352 1.383 . S
C354 C355 1.402 . S
C354 H369 0.951 . S
C355 C354 1.402 . S
C355 C356 1.375 . S
C355 C358 1.481 . S
C356 C355 1.375 . S
C356 C357 1.367 . S
C356 H370 0.951 . S
C357 C353 1.383 . S
C357 C356 1.367 . S
C357 H371 0.950 . S
C358 C355 1.481 . S
C358 C359 1.297 . S
C358 H372 0.950 . S
C359 C358 1.297 . S
C359 C360 1.479 . S
C359 H373 0.950 . S
C360 C359 1.479 . S
C360 C361 1.375 . S
C360 C366 1.404 . S
C361 C360 1.375 . S
C361 C362 1.369 . S
C361 H374 0.950 . S
C362 C361 1.369 . S
C362 C363 1.392 . S
C362 H375 0.951 . S
C363 C362 1.392 . S
C363 C365 1.384 . S
H364 C366 0.949 . S
C365 C363 1.384 . S
C365 C366 1.385 . S
C365 H367 0.950 . S
C366 C360 1.404 . S
C366 H364 0.949 . S
C366 C365 1.385 . S
H367 C365 0.950 . S
H368 C352 0.951 . S
H369 C354 0.951 . S
H370 C356 0.951 . S
H371 C357 0.950 . S
H372 C358 0.950 . S
H373 C359 0.950 . S
H374 C361 0.950 . S
H375 C362 0.951 . S
C376 C377 1.386 . S
C376 C378 1.383 . S
C376 H392 0.951 . S
C377 C376 1.386 . S
C377 C381 1.383 . S
C378 C376 1.383 . S
C378 C379 1.402 . S
C378 H393 0.951 . S
C379 C378 1.402 . S
C379 C380 1.375 . S
C379 C382 1.481 . S
C380 C379 1.375 . S
C380 C381 1.367 . S
C380 H394 0.951 . S
C381 C377 1.383 . S
C381 C380 1.367 . S
C381 H395 0.950 . S
C382 C379 1.481 . S
C382 C383 1.297 . S
C382 H396 0.950 . S
C383 C382 1.297 . S
C383 C384 1.479 . S
C383 H397 0.950 . S
C384 C383 1.479 . S
C384 C385 1.375 . S
C384 C390 1.404 . S
C385 C384 1.375 . S
C385 C386 1.369 . S
C385 H398 0.950 . S
C386 C385 1.369 . S
C386 C387 1.392 . S
C386 H399 0.951 . S
C387 C386 1.392 . S
C387 C389 1.384 . S
H388 C390 0.949 . S
C389 C387 1.384 . S
C389 C390 1.385 . S
C389 H391 0.950 . S
C390 C384 1.404 . S
C390 H388 0.949 . S
C390 C389 1.385 . S
H391 C389 0.950 . S
H392 C376 0.951 . S
H393 C378 0.951 . S
H394 C380 0.951 . S
H395 C381 0.950 . S
H396 C382 0.950 . S
H397 C383 0.950 . S
H398 C385 0.950 . S
H399 C386 0.951 . S
C400 C401 1.386 . S
C400 C402 1.383 . S
C400 H416 0.951 . S
C401 C400 1.386 . S
C401 C405 1.383 . S
C402 C400 1.383 . S
C402 C403 1.402 . S
C402 H417 0.951 . S
C403 C402 1.402 . S
C403 C404 1.375 . S
C403 C406 1.481 1_545 S
C404 C403 1.375 . S
C404 C405 1.367 . S
C404 H418 0.951 . S
C405 C401 1.383 . S
C405 C404 1.367 . S
C405 H419 0.950 . S
C406 C403 1.481 1_565 S
C406 C407 1.297 1_554 S
C406 H420 0.950 . S
C407 C406 1.297 1_556 S
C407 C408 1.479 . S
C407 H421 0.950 1_565 S
C408 C407 1.479 . S
C408 C409 1.375 . S
C408 C414 1.404 . S
C409 C408 1.375 . S
C409 C410 1.369 . S
C409 H422 0.950 . S
C410 C409 1.369 . S
C410 C411 1.392 . S
C410 H423 0.951 . S
C411 C410 1.392 . S
C411 C413 1.384 . S
H412 C414 0.949 . S
C413 C411 1.384 . S
C413 C414 1.385 . S
C413 H415 0.950 . S
C414 C408 1.404 . S
C414 H412 0.949 . S
C414 C413 1.385 . S
H415 C413 0.950 . S
H416 C400 0.951 . S
H417 C402 0.951 . S
H418 C404 0.951 . S
H419 C405 0.950 . S
H420 C406 0.950 . S
H421 C407 0.950 1_545 S
H422 C409 0.950 . S
H423 C410 0.951 . S
C424 C425 1.386 . S
C424 C426 1.383 . S
C424 H440 0.951 . S
C425 C424 1.386 . S
C425 C429 1.383 . S
C426 C424 1.383 . S
C426 C427 1.402 . S
C426 H441 0.951 . S
C427 C426 1.402 . S
C427 C428 1.375 . S
C427 C430 1.481 1_556 S
C428 C427 1.375 . S
C428 C429 1.367 . S
C428 H442 0.951 . S
C429 C425 1.383 . S
C429 C428 1.367 . S
C429 H443 0.950 . S
C430 C427 1.481 1_554 S
C430 C431 1.297 . S
C430 H444 0.950 . S
C431 C430 1.297 . S
C431 C432 1.479 . S
C431 H445 0.950 1_554 S
C432 C431 1.479 . S
C432 C433 1.375 . S
C432 C438 1.404 . S
C433 C432 1.375 . S
C433 C434 1.369 . S
C433 H446 0.950 . S
C434 C433 1.369 . S
C434 C435 1.392 . S
C434 H447 0.951 . S
C435 C434 1.392 . S
C435 C437 1.384 . S
H436 C438 0.949 . S
C437 C435 1.384 . S
C437 C438 1.385 . S
C437 H439 0.950 . S
C438 C432 1.404 . S
C438 H436 0.949 . S
C438 C437 1.385 . S
H439 C437 0.950 . S
H440 C424 0.951 . S
H441 C426 0.951 . S
H442 C428 0.951 . S
H443 C429 0.950 . S
H444 C430 0.950 . S
H445 C431 0.950 1_556 S
H446 C433 0.950 . S
H447 C434 0.951 . S
C448 C449 1.386 . S
C448 C450 1.383 . S
C448 H464 0.951 . S
C449 C448 1.386 . S
C449 C453 1.383 . S
C450 C448 1.383 . S
C450 C451 1.402 . S
C450 H465 0.951 . S
C451 C450 1.402 . S
C451 C452 1.375 . S
C451 C454 1.481 . S
C452 C451 1.375 . S
C452 C453 1.367 . S
C452 H466 0.951 . S
C453 C449 1.383 . S
C453 C452 1.367 . S
C453 H467 0.950 . S
C454 C451 1.481 . S
C454 C455 1.297 . S
C454 H468 0.950 . S
C455 C454 1.297 . S
C455 C456 1.479 . S
C455 H469 0.950 . S
C456 C455 1.479 . S
C456 C457 1.375 . S
C456 C462 1.404 . S
C457 C456 1.375 . S
C457 C458 1.369 . S
C457 H470 0.950 . S
C458 C457 1.369 . S
C458 C459 1.392 . S
C458 H471 0.951 . S
C459 C458 1.392 . S
C459 C461 1.384 . S
H460 C462 0.949 . S
C461 C459 1.384 . S
C461 C462 1.385 . S
C461 H463 0.950 . S
C462 C456 1.404 . S
C462 H460 0.949 . S
C462 C461 1.385 . S
H463 C461 0.950 . S
H464 C448 0.951 . S
H465 C450 0.951 . S
H466 C452 0.951 . S
H467 C453 0.950 . S
H468 C454 0.950 . S
H469 C455 0.950 . S
H470 C457 0.950 . S
H471 C458 0.951 . S
C472 C473 1.386 . S
C472 C474 1.383 . S
C472 H488 0.951 . S
C473 C472 1.386 . S
C473 C477 1.383 . S
C474 C472 1.383 . S
C474 C475 1.402 . S
C474 H489 0.951 . S
C475 C474 1.402 . S
C475 C476 1.375 . S
C475 C478 1.481 1_565 S
C476 C475 1.375 . S
C476 C477 1.367 . S
C476 H490 0.951 . S
C477 C473 1.383 . S
C477 C476 1.367 . S
C477 H491 0.950 . S
C478 C475 1.481 1_545 S
C478 C479 1.297 . S
C478 H492 0.950 . S
C479 C478 1.297 . S
C479 C480 1.479 . S
C479 H493 0.950 . S
C480 C479 1.479 . S
C480 C481 1.375 . S
C480 C486 1.404 . S
C481 C480 1.375 . S
C481 C482 1.369 . S
C481 H494 0.950 . S
C482 C481 1.369 . S
C482 C483 1.392 . S
C482 H495 0.951 . S
C483 C482 1.392 . S
C483 C485 1.384 . S
H484 C486 0.949 . S
C485 C483 1.384 . S
C485 C486 1.385 . S
C485 H487 0.950 . S
C486 C480 1.404 . S
C486 H484 0.949 . S
C486 C485 1.385 . S
H487 C485 0.950 . S
H488 C472 0.951 . S
H489 C474 0.951 . S
H490 C476 0.951 . S
H491 C477 0.950 . S
H492 C478 0.950 . S
H493 C479 0.950 . S
H494 C481 0.950 . S
H495 C482 0.951 . S
C113 C23 1.462 . S
C123 C9 1.461 . S
C137 C37 1.496 . S
C147 C51 1.511 . S
C161 C65 1.490 . S
C171 C79 1.505 . S
C185 C93 1.455 . S
C195 C107 1.430 . S
C209 C105 1.281 . S
C219 C7 1.243 . S
C233 C91 1.285 . S
C243 C21 1.254 . S
C257 C35 1.268 . S
C267 C77 1.293 . S
C281 C63 1.285 . S
C291 C49 1.280 . S
C305 C78 1.685 . S
C315 C36 1.710 . S
C329 C64 1.701 . S
C339 C50 1.668 . S
C353 C106 1.693 . S
C363 C8 1.678 . S
C377 C22 1.711 . S
C387 C92 1.668 . S
C401 C6 1.517 . S
C411 C34 1.507 . S
C425 C48 1.482 . S
C435 C20 1.504 . S
C449 C90 1.490 . S
C459 C62 1.469 . S
C473 C76 1.516 . S
C483 C104 1.471 . S
