# Generated by pormake.
# Topology smc, (6)-cn, num edge types: 1
# Building blocks:
#     Node 0, Type 0, BuildingBlock: IZENUY_clean_sbu_0, # of connection points: 6
#     Node 1, Type 0, BuildingBlock: IZENUY_clean_sbu_0, # of connection points: 6
#     Node 2, Type 0, BuildingBlock: IZENUY_clean_sbu_0, # of connection points: 6
#     Node 3, Type 0, BuildingBlock: IZENUY_clean_sbu_0, # of connection points: 6
#     Node 4, Type 0, BuildingBlock: IZENUY_clean_sbu_0, # of connection points: 6
#     Node 5, Type 0, BuildingBlock: IZENUY_clean_sbu_0, # of connection points: 6
#     Node 6, Type 0, BuildingBlock: IZENUY_clean_sbu_0, # of connection points: 6
#     Node 7, Type 0, BuildingBlock: IZENUY_clean_sbu_0, # of connection points: 6
#     Node 8, Type 0, BuildingBlock: IZENUY_clean_sbu_0, # of connection points: 6
#     Edge 9, Type (0, 0), BuildingBlock: EZIPEK_clean_linker_0, # of connection points: 2
#     Edge 10, Type (0, 0), BuildingBlock: EZIPEK_clean_linker_0, # of connection points: 2
#     Edge 11, Type (0, 0), BuildingBlock: EZIPEK_clean_linker_0, # of connection points: 2
#     Edge 12, Type (0, 0), BuildingBlock: EZIPEK_clean_linker_0, # of connection points: 2
#     Edge 13, Type (0, 0), BuildingBlock: EZIPEK_clean_linker_0, # of connection points: 2
#     Edge 14, Type (0, 0), BuildingBlock: EZIPEK_clean_linker_0, # of connection points: 2
#     Edge 15, Type (0, 0), BuildingBlock: EZIPEK_clean_linker_0, # of connection points: 2
#     Edge 16, Type (0, 0), BuildingBlock: EZIPEK_clean_linker_0, # of connection points: 2
#     Edge 17, Type (0, 0), BuildingBlock: EZIPEK_clean_linker_0, # of connection points: 2
#     Edge 18, Type (0, 0), BuildingBlock: EZIPEK_clean_linker_0, # of connection points: 2
#     Edge 19, Type (0, 0), BuildingBlock: EZIPEK_clean_linker_0, # of connection points: 2
#     Edge 20, Type (0, 0), BuildingBlock: EZIPEK_clean_linker_0, # of connection points: 2
#     Edge 21, Type (0, 0), BuildingBlock: EZIPEK_clean_linker_0, # of connection points: 2
#     Edge 22, Type (0, 0), BuildingBlock: EZIPEK_clean_linker_0, # of connection points: 2
#     Edge 23, Type (0, 0), BuildingBlock: EZIPEK_clean_linker_0, # of connection points: 2
#     Edge 24, Type (0, 0), BuildingBlock: EZIPEK_clean_linker_0, # of connection points: 2
#     Edge 25, Type (0, 0), BuildingBlock: EZIPEK_clean_linker_0, # of connection points: 2
#     Edge 26, Type (0, 0), BuildingBlock: EZIPEK_clean_linker_0, # of connection points: 2
#     Edge 27, Type (0, 0), BuildingBlock: EZIPEK_clean_linker_0, # of connection points: 2
#     Edge 28, Type (0, 0), BuildingBlock: EZIPEK_clean_linker_0, # of connection points: 2
#     Edge 29, Type (0, 0), BuildingBlock: EZIPEK_clean_linker_0, # of connection points: 2
#     Edge 30, Type (0, 0), BuildingBlock: EZIPEK_clean_linker_0, # of connection points: 2
#     Edge 31, Type (0, 0), BuildingBlock: EZIPEK_clean_linker_0, # of connection points: 2
#     Edge 32, Type (0, 0), BuildingBlock: EZIPEK_clean_linker_0, # of connection points: 2
#     Edge 33, Type (0, 0), BuildingBlock: EZIPEK_clean_linker_0, # of connection points: 2
#     Edge 34, Type (0, 0), BuildingBlock: EZIPEK_clean_linker_0, # of connection points: 2
#     Edge 35, Type (0, 0), BuildingBlock: EZIPEK_clean_linker_0, # of connection points: 2
# Relax obj value: 0.289
# Max RMSD: 0.292
# Mean RMSD: 0.291
data_MOF--net-smc--node1-IZENUY_clean_sbu_0--edge1-EZIPEK_clean_linker_0
_symmetry_space_group_name_H-M    P1
_symmetry_Int_Tables_number       1
_symmetry_cell_setting            triclinic
loop_
_symmetry_equiv_pos_as_xyz
'x, y, z'
_cell_length_a     21.589928
_cell_length_b     21.737269
_cell_length_c     33.328467
_cell_angle_alpha  89.866155
_cell_angle_beta   90.063736
_cell_angle_gamma 120.24419
loop_
_atom_site_label
_atom_site_type_symbol
_atom_site_fract_x
_atom_site_fract_y
_atom_site_fract_z
_atom_type_partial_charge
Fe0 Fe 0.09049 0.52169 0.9806 0.0
Fe1 Fe 0.03158 0.36813 0.00888 0.0
O2 O 0.03202 0.44958 0.01124 0.0
Fe3 Fe 0.97333 0.45845 0.04429 0.0
O4 O 0.9293 0.47418 1.00373 0.0
O5 O 0.02633 0.55739 0.97458 0.0
O6 O 0.05202 0.47103 0.93554 0.0
C7 C 0.05114 0.41413 0.92753 0.0
C8 C 0.10317 0.59574 0.04765 0.0
O9 O 0.05788 0.37742 0.95515 0.0
C10 C 1.01405 0.38494 0.09204 0.0
O11 O 0.16461 0.49959 0.98298 0.0
O12 O 0.12407 0.41046 0.02586 0.0
O13 O 0.03552 0.55725 0.05353 0.0
O14 O 0.13313 0.57582 0.02325 0.0
C15 C 0.88721 0.31972 0.01031 0.0
O16 O 1.00564 0.34433 0.06249 0.0
O17 O 1.01367 0.44202 0.08697 0.0
C18 C 0.17643 0.46339 0.00929 0.0
O19 O 0.93907 0.32223 0.99144 0.0
O20 O 0.90065 0.36237 0.03977 0.0
C21 C 0.95854 0.52716 0.98115 0.0
Fe22 Fe 0.69718 0.69697 0.00892 0.0
Fe23 Fe 0.54097 0.59784 0.98438 0.0
O24 O 0.6153 0.61639 0.0146 0.0
Fe25 Fe 0.60814 0.55279 0.04913 0.0
O26 O 0.62826 0.61317 0.09029 0.0
O27 O 0.72536 0.70037 0.06215 0.0
O28 O 0.65618 0.74683 0.02478 0.0
C29 C 0.60207 0.74386 0.00886 0.0
C30 C 0.74536 0.6031 0.01168 0.0
O31 O 0.56479 0.69475 0.983 0.0
C32 C 0.53279 0.45954 0.99409 0.0
O33 O 0.68189 0.70629 0.95518 0.0
O34 O 0.59045 0.60353 0.93954 0.0
O35 O 0.70426 0.57456 0.0423 0.0
O36 O 0.74268 0.65129 0.99238 0.0
C37 C 0.46619 0.54286 0.0508 0.0
O38 O 0.5023 0.49555 0.98426 0.0
O39 O 0.5923 0.492 0.00979 0.0
C40 C 0.65002 0.65632 0.92987 0.0
O41 O 0.48888 0.59319 0.02664 0.0
O42 O 0.50707 0.51737 0.05948 0.0
C43 C 0.68664 0.67103 0.093 0.0
Fe44 Fe 0.46094 0.97144 0.98446 0.0
Fe45 Fe 0.36416 0.01968 0.02391 0.0
O46 O 0.44848 0.02511 0.01913 0.0
Fe47 Fe 0.52087 0.08589 0.04865 0.0
O48 O 0.56893 0.13284 1.00541 0.0
O49 O 0.55921 0.0416 0.97279 0.0
O50 O 0.43571 1.00767 0.94328 0.0
C51 C 0.37561 1.00312 0.93992 0.0
C52 C 0.54012 0.96311 0.04383 0.0
O53 O 0.33662 0.99293 0.97069 0.0
C54 C 0.41592 0.03651 0.10423 0.0
O55 O 0.36681 0.89299 0.99243 0.0
O56 O 0.32301 0.92923 0.04084 0.0
O57 O 0.56592 0.02965 0.05101 0.0
O58 O 0.48545 0.93083 0.02275 0.0
C59 C 0.45313 0.16292 0.02255 0.0
O60 O 0.37684 0.04463 0.07835 0.0
O61 O 0.47466 0.04232 0.09412 0.0
C62 C 0.32278 0.87942 0.02176 0.0
O63 O 0.40063 0.11016 1.00673 0.0
O64 O 0.49015 0.15311 0.04934 0.0
C65 C 0.59333 0.10916 0.97977 0.0
Fe66 Fe 0.6343 0.77598 0.37846 0.0
Fe67 Fe 0.69351 0.68681 0.34251 0.0
O68 O 0.69341 0.76792 0.34539 0.0
Fe69 Fe 0.75315 0.84223 0.31682 0.0
O70 O 0.79128 0.89262 0.36084 0.0
O71 O 0.69277 0.87671 0.38634 0.0
O72 O 0.67671 0.76206 0.42105 0.0
C73 C 0.67996 0.7062 0.42581 0.0
C74 C 0.61527 0.83835 0.31445 0.0
O75 O 0.66984 0.6645 0.39642 0.0
C76 C 0.71716 0.73771 0.26153 0.0
O77 O 0.56341 0.67985 0.37443 0.0
O78 O 0.60124 0.63939 0.32593 0.0
O79 O 0.68409 0.87327 0.30884 0.0
O80 O 0.58928 0.78675 0.33782 0.0
C81 C 0.838 0.78621 0.34887 0.0
O82 O 0.71827 0.69673 0.28856 0.0
O83 O 0.72201 0.79594 0.27054 0.0
C84 C 0.54992 0.63745 0.34482 0.0
O85 O 0.78481 0.72833 0.35923 0.0
O86 O 0.82897 0.82303 0.3217 0.0
C87 C 0.76039 0.9165 0.38105 0.0
Fe88 Fe 0.25269 0.84994 0.38555 0.0
Fe89 Fe 0.35386 1.00205 0.35554 0.0
O90 O 0.27118 0.91956 0.35154 0.0
Fe91 Fe 0.2067 0.90393 0.31363 0.0
O92 O 0.13024 0.84768 0.34456 0.0
O93 O 0.17299 0.85307 0.40543 0.0
O94 O 0.30713 0.90438 0.42709 0.0
C95 C 0.32788 0.96775 0.4359 0.0
C96 C 0.1945 0.77142 0.31665 0.0
O97 O 0.34124 1.01299 0.40873 0.0
C98 C 0.33693 0.98791 0.27217 0.0
O99 O 0.32954 0.84531 0.36343 0.0
O100 O 0.40697 0.9592 0.36676 0.0
O101 O 0.2088 0.82432 0.2939 0.0
O102 O 0.19413 0.77811 0.3537 0.0
C103 C 0.24784 0.04039 0.34461 0.0
O104 O 0.37632 1.00152 0.30264 0.0
O105 O 0.27002 0.95787 0.27501 0.0
C106 C 0.39319 0.89733 0.35714 0.0
O107 O 0.31288 0.05638 0.34574 0.0
O108 O 0.19898 0.97993 0.33188 0.0
C109 C 0.12296 0.84733 0.38192 0.0
Fe110 Fe 1.0224 0.34678 0.34214 0.0
Fe111 Fe 0.11415 0.28945 0.30703 0.0
O112 O 0.10288 0.34298 0.34223 0.0
Fe113 Fe 0.1706 0.39338 0.37742 0.0
O114 O 0.10968 0.34906 0.41854 0.0
O115 O 0.02724 0.37081 0.39623 0.0
O116 O 0.97111 0.25524 0.35763 0.0
C117 C 0.97123 0.20404 0.34014 0.0
C118 C 0.12494 0.48674 0.3444 0.0
O119 O 1.01625 0.21604 0.31133 0.0
C120 C 0.25818 0.41559 0.31586 0.0
O121 O 1.00101 0.32356 0.28816 0.0
O122 O 0.10158 0.33548 0.26606 0.0
O123 O 0.15312 0.47074 0.37401 0.0
O124 O 0.07125 0.43829 0.32644 0.0
C125 C 0.17907 0.26338 0.36679 0.0
O126 O 0.215 0.3536 0.30112 0.0
O127 O 0.23569 0.44196 0.34068 0.0
C128 C 0.04442 0.33516 0.25959 0.0
O129 O 0.12723 0.23885 0.34368 0.0
O130 O 0.20252 0.32571 0.38214 0.0
C131 C 0.05597 0.35555 0.42495 0.0
Fe132 Fe 0.4154 0.15334 0.65152 0.0
Fe133 Fe 0.35688 1.00747 0.68885 0.0
O134 O 0.35849 0.08898 0.68552 0.0
Fe135 Fe 0.3062 0.10855 0.71784 0.0
O136 O 0.25747 0.11693 0.67699 0.0
O137 O 0.35266 0.19198 0.64384 0.0
O138 O 0.37118 0.09671 0.60947 0.0
C139 C 0.36722 0.03751 0.60484 0.0
C140 C 0.4393 0.24384 0.70821 0.0
O141 O 0.37688 1.00559 0.63436 0.0
C142 C 0.35317 0.04428 0.77014 0.0
O143 O 0.48753 0.12895 0.65462 0.0
O144 O 0.4506 0.05069 0.7035 0.0
O145 O 0.37274 0.20978 0.71844 0.0
O146 O 0.46349 0.20958 0.6923 0.0
C147 C 0.21468 0.96446 0.69293 0.0
O148 O 0.33609 0.99651 0.74344 0.0
O149 O 0.35104 0.09956 0.76116 0.0
C150 C 0.50145 0.09997 0.68417 0.0
O151 O 0.26382 0.96074 0.67482 0.0
O152 O 0.23104 1.01285 0.71967 0.0
C153 C 0.2864 0.16761 0.65299 0.0
Fe154 Fe 0.94355 0.21283 0.71574 0.0
Fe155 Fe 0.03238 0.3576 0.67605 0.0
O156 O 0.95108 0.2762 0.68067 0.0
Fe157 Fe 0.87672 0.25665 0.64999 0.0
O158 O 0.82321 0.2504 0.69238 0.0
O159 O 0.84236 0.17502 0.72465 0.0
O160 O 0.95928 0.27185 0.75678 0.0
C161 C 1.01547 0.33126 0.76039 0.0
C162 C 0.87217 0.12085 0.65967 0.0
O163 O 0.05641 0.36167 0.73032 0.0
C164 C 0.98335 0.32019 0.59501 0.0
O165 O 0.04036 0.23633 0.71147 0.0
O166 O 0.08134 0.31278 0.66158 0.0
O167 O 0.84057 0.15555 0.64969 0.0
O168 O 0.9309 0.15358 0.67626 0.0
C169 C 0.93324 0.40162 0.67346 0.0
O170 O 1.02134 0.36701 0.62121 0.0
O171 O 0.92651 0.26431 0.6051 0.0
C172 C 0.08299 0.26416 0.68148 0.0
O173 O 0.98783 0.40621 0.69024 0.0
O174 O 0.89877 0.35217 0.64762 0.0
C175 C 0.80104 0.19988 0.71636 0.0
Fe176 Fe 0.78873 0.62737 0.64635 0.0
Fe177 Fe 0.69152 0.68215 0.67701 0.0
O178 O 0.77337 0.68194 0.67875 0.0
Fe179 Fe 0.83918 0.73526 0.71372 0.0
O180 O 0.90003 0.78377 0.67501 0.0
O181 O 0.88963 0.69228 0.64214 0.0
O182 O 0.77745 0.66861 0.6026 0.0
C183 C 0.72243 0.67228 0.59475 0.0
C184 C 0.84834 0.60653 0.71133 0.0
O185 O 0.67755 0.6621 0.62245 0.0
C186 C 0.72277 0.69175 0.76053 0.0
O187 O 0.69298 0.55506 0.64718 0.0
O188 O 0.64246 0.59046 0.69172 0.0
O189 O 0.87669 0.67267 0.72039 0.0
O190 O 0.79755 0.58036 0.68729 0.0
C191 C 0.78604 0.8226 0.68201 0.0
O192 O 0.69202 0.70343 0.73127 0.0
O193 O 0.77953 0.69006 0.75499 0.0
C194 C 0.64647 0.54125 0.67476 0.0
O195 O 0.73607 0.77371 0.66244 0.0
O196 O 0.81589 0.80754 0.71076 0.0
C197 C 0.92601 0.75875 0.65127 0.0
C198 C 0.35884 0.55329 0.0622 0.0
C199 C 0.38528 0.50643 0.05642 0.0
C200 C 0.27029 0.42531 0.02176 0.0
C201 C 0.25175 0.48006 0.02098 0.0
N202 N 0.29531 0.60523 0.03131 0.0
N203 N 0.35948 0.3905 0.03662 0.0
C204 C 0.30055 0.54649 0.03877 0.0
C205 C 0.33843 0.43976 0.03814 0.0
N206 N 0.3913 0.60586 0.08995 0.0
N207 N 0.2237 0.36019 1.0058 0.0
H208 H 0.40228 0.39683 0.054 0.0
H209 H 0.33438 0.34397 0.01977 0.0
H210 H 0.17825 0.35042 0.98964 0.0
H211 H 0.22939 0.31564 0.00868 0.0
H212 H 0.37292 0.64052 0.09713 0.0
H213 H 0.43156 0.60841 0.10852 0.0
H214 H 0.33565 0.6559 0.03965 0.0
H215 H 0.25768 0.60521 0.0119 0.0
C216 C 0.62951 0.93133 0.01969 0.0
C217 C 0.57893 0.92249 0.04911 0.0
C218 C 0.55287 0.79885 0.05773 0.0
C219 C 0.58795 0.80285 0.02058 0.0
N220 N 0.66473 0.87782 0.96739 0.0
N221 N 0.50318 0.85196 0.10269 0.0
C222 C 0.62797 0.87072 1.00201 0.0
C223 C 0.54412 0.8572 0.07028 0.0
N224 N 0.683 0.99827 0.0112 0.0
N225 N 0.53126 0.74099 0.08197 0.0
H226 H 0.50004 0.89572 0.11291 0.0
H227 H 0.47197 0.80519 0.11876 0.0
H228 H 0.53843 0.69857 0.07437 0.0
H229 H 0.51315 0.73821 0.1112 0.0
H230 H 0.7284 1.00765 0.99525 0.0
H231 H 0.68598 0.04246 0.02541 0.0
H232 H 0.68995 0.92517 0.951 0.0
H233 H 0.66512 0.83494 0.95362 0.0
C234 C 0.27847 0.76026 0.05717 0.0
C235 C 0.26361 0.8055 0.03294 0.0
C236 C 0.13445 0.72365 0.04577 0.0
C237 C 0.14938 0.67186 0.06026 0.0
N238 N 0.23107 0.65054 0.09687 0.0
N239 N 0.1748 0.83174 1.00702 0.0
C240 C 0.22056 0.69381 0.07152 0.0
C241 C 0.19071 0.78802 0.02862 0.0
N242 N 0.3477 0.78066 0.0662 0.0
N243 N 0.06796 0.71399 0.05199 0.0
H244 H 0.21376 0.87765 0.99263 0.0
H245 H 0.12262 0.81975 1.00099 0.0
H246 H 0.02733 0.66775 0.06542 0.0
H247 H 0.05712 0.75529 0.04879 0.0
H248 H 0.36322 0.75027 0.08281 0.0
H249 H 0.39043 0.82858 0.05635 0.0
H250 H 0.27986 0.66343 0.10987 0.0
H251 H 0.18787 0.60295 0.10743 0.0
C252 C 0.46 0.27613 0.04519 0.0
C253 C 0.46288 0.23528 0.01366 0.0
C254 C 0.48237 0.33327 0.9673 0.0
C255 C 0.4964 0.37957 1.00042 0.0
N256 N 0.52143 0.39177 0.07324 0.0
N257 N 0.47949 0.22645 0.94278 0.0
C258 C 0.49174 0.35039 0.04007 0.0
C259 C 0.47379 0.26382 0.97393 0.0
N260 N 0.42592 0.24429 0.08007 0.0
N261 N 0.4795 0.35617 0.92957 0.0
H262 H 0.47394 0.17627 0.94648 0.0
H263 H 0.49564 0.24765 0.91411 0.0
H264 H 0.48663 0.40664 0.92412 0.0
H265 H 0.46388 0.32317 0.90449 0.0
H266 H 0.41869 0.27237 0.10321 0.0
H267 H 0.39651 0.18901 0.08307 0.0
H268 H 0.52144 0.37002 0.1012 0.0
H269 H 0.5549 0.44623 0.07295 0.0
C270 C 0.72537 0.14773 0.96579 0.0
C271 C 0.67015 0.16377 0.96843 0.0
C272 C 0.75629 0.28343 0.994 0.0
C273 C 0.81088 0.26476 0.9975 0.0
N274 N 0.84188 0.1724 0.98947 0.0
N275 N 0.64557 0.25852 0.96116 0.0
C276 C 0.79444 0.19556 0.98315 0.0
C277 C 0.69057 0.23597 0.97448 0.0
N278 N 0.71344 0.09006 0.94384 0.0
N279 N 0.76402 0.34405 0.01095 0.0
H280 H 0.59966 0.22429 0.9449 0.0
H281 H 0.65765 0.31133 0.9619 0.0
H282 H 0.80893 0.38117 0.02642 0.0
H283 H 0.72209 0.3546 0.01293 0.0
H284 H 0.75407 0.07994 0.93575 0.0
H285 H 0.66386 0.05696 0.93033 0.0
H286 H 0.83128 0.12162 0.98181 0.0
H287 H 0.8883 0.20053 1.00654 0.0
C288 C 0.92968 0.62657 0.98481 0.0
C289 C 0.91112 0.55787 0.97162 0.0
C290 C 0.78388 0.5262 0.9734 0.0
C291 C 0.80209 0.58596 0.9986 0.0
N292 N 0.89548 0.69923 0.02359 0.0
N293 N 0.8214 0.44866 0.94227 0.0
C294 C 0.87609 0.63835 1.00255 0.0
C295 C 0.83804 0.50973 0.96234 0.0
N296 N 0.99675 0.68154 0.97715 0.0
N297 N 0.71636 0.48833 0.95786 0.0
H298 H 0.86122 0.43914 0.93161 0.0
H299 H 0.76948 0.40772 0.93657 0.0
H300 H 0.67884 0.50442 0.96137 0.0
H301 H 0.69999 0.44657 0.93765 0.0
H302 H 1.00991 0.73445 0.98004 0.0
H303 H 0.0354 0.67386 0.96296 0.0
H304 H 0.94857 0.73775 0.02904 0.0
H305 H 0.85836 0.70922 0.03773 0.0
C306 C 0.97121 0.87732 0.36772 0.0
C307 C 0.91093 0.80621 0.36812 0.0
C308 C 0.99189 0.76561 0.39538 0.0
C309 C 0.05094 0.83544 0.39399 0.0
N310 N 0.08895 0.95896 0.39526 0.0
N311 N 0.86539 0.69533 0.40714 0.0
C312 C 0.03756 0.8915 0.38554 0.0
C313 C 0.92112 0.75371 0.38938 0.0
N314 N 0.96678 0.93229 0.35091 0.0
N315 N 1.00307 0.71006 0.4022 0.0
H316 H 0.8158 0.69025 0.41294 0.0
H317 H 0.87254 0.65861 0.42368 0.0
H318 H 0.05377 0.71776 0.40886 0.0
H319 H 0.96267 0.65704 0.39904 0.0
H320 H 1.01185 0.98167 0.34487 0.0
H321 H 0.91934 0.92967 0.34247 0.0
H322 H 0.08119 1.00251 0.39391 0.0
H323 H 0.13606 0.96838 0.40926 0.0
C324 C 0.23417 0.20454 0.3273 0.0
C325 C 0.21776 0.22147 0.36595 0.0
C326 C 0.23147 0.12349 0.39262 0.0
C327 C 0.23169 0.09874 0.35278 0.0
N328 N 0.22024 0.11217 0.28185 0.0
N329 N 0.19513 0.1903 0.43565 0.0
C330 C 0.22733 0.13734 0.32011 0.0
C331 C 0.21518 0.17913 0.39885 0.0
N332 N 0.26394 0.25519 0.29823 0.0
N333 N 0.2472 0.09455 0.42449 0.0
H334 H 0.18569 0.23217 0.44104 0.0
H335 H 0.18444 0.15593 0.45986 0.0
H336 H 0.25713 0.05291 0.42107 0.0
H337 H 0.25455 0.11484 0.45351 0.0
H338 H 0.27883 0.24604 0.27012 0.0
H339 H 0.289 0.30858 0.30533 0.0
H340 H 0.2103 0.1362 0.25749 0.0
H341 H 0.21784 0.06427 0.27491 0.0
C342 C 0.93288 0.09201 0.38238 0.0
C343 C 0.9147 0.13012 0.35426 0.0
C344 C 0.78636 0.04222 0.36756 0.0
C345 C 0.80557 0.99617 0.38668 0.0
N346 N 0.8966 0.98221 0.41937 0.0
N347 N 0.82129 0.1435 0.32312 0.0
C348 C 0.87896 0.02347 0.39658 0.0
C349 C 0.84041 0.10603 0.34815 0.0
N350 N 1.00065 0.12323 0.39768 0.0
N351 N 0.71707 0.02686 0.36994 0.0
H352 H 0.85878 0.18956 0.30818 0.0
H353 H 0.76852 0.12654 0.31518 0.0
H354 H 0.67798 0.98164 0.38485 0.0
H355 H 0.70102 0.0631 0.362 0.0
H356 H 1.01697 0.10102 0.42004 0.0
H357 H 0.03832 0.17598 0.39192 0.0
H358 H 0.94874 0.9927 0.42385 0.0
H359 H 0.85734 0.93531 0.43289 0.0
C360 C 0.10057 0.64584 0.32106 0.0
C361 C 0.16741 0.69618 0.30422 0.0
C362 C 0.20383 0.6055 0.30775 0.0
C363 C 0.14406 0.5619 0.33329 0.0
N364 N 0.03545 0.54367 0.36481 0.0
N365 N 0.28036 0.72238 0.27745 0.0
C366 C 0.09198 0.58275 0.33967 0.0
C367 C 0.218 0.67495 0.29596 0.0
N368 N 0.04622 0.66064 0.32038 0.0
N369 N 0.24504 0.57953 0.29317 0.0
H370 H 0.28861 0.77111 0.26687 0.0
H371 H 0.32334 0.71429 0.27307 0.0
H372 H 0.23359 0.52811 0.29909 0.0
H373 H 0.28523 0.60561 0.27186 0.0
H374 H 0.99383 0.62431 0.32895 0.0
H375 H 0.05302 0.70739 0.30729 0.0
H376 H 0.9995 0.55969 0.37367 0.0
H377 H 0.02807 0.49821 0.3797 0.0
C378 C 0.37697 0.50853 0.28559 0.0
C379 C 0.33929 0.45448 0.31449 0.0
C380 C 0.43299 0.52694 0.36413 0.0
C381 C 0.47492 0.57807 0.33471 0.0
N382 N 0.49111 0.60708 0.26365 0.0
N383 N 0.35486 0.40231 0.37492 0.0
C384 C 0.44856 0.5653 0.29413 0.0
C385 C 0.37465 0.46071 0.35172 0.0
N386 N 0.34357 0.50718 0.25058 0.0
N387 N 0.44797 0.53974 0.40406 0.0
H388 H 0.32074 0.35199 0.36405 0.0
H389 H 0.38176 0.40306 0.40109 0.0
H390 H 0.48839 0.58758 0.41552 0.0
H391 H 0.41421 0.50511 0.4262 0.0
H392 H 0.36459 0.54936 0.23021 0.0
H393 H 0.29286 0.46481 0.24325 0.0
H394 H 0.47734 0.59573 0.23349 0.0
H395 H 0.54191 0.65073 0.26838 0.0
C396 C 0.441 0.81629 0.33369 0.0
C397 C 0.45266 0.88663 0.33838 0.0
C398 C 0.57391 0.9304 0.3065 0.0
C399 C 0.55999 0.86002 0.30444 0.0
N400 N 0.46663 0.74016 0.29249 0.0
N401 N 0.52813 1.01086 0.31544 0.0
C402 C 0.4876 0.8052 0.3087 0.0
C403 C 0.51838 0.94413 0.32052 0.0
N404 N 0.39051 0.7604 0.3557 0.0
N405 N 0.63899 0.98343 0.29355 0.0
H406 H 0.4936 0.02765 0.32485 0.0
H407 H 0.5694 0.0505 0.29852 0.0
H408 H 0.67605 0.9725 0.28016 0.0
H409 H 0.65624 0.03735 0.29548 0.0
H410 H 0.3834 0.70934 0.35383 0.0
H411 H 0.36475 0.76657 0.3804 0.0
H412 H 0.41462 0.69699 0.29472 0.0
H413 H 0.50107 0.73307 0.27365 0.0
C414 C 0.67735 0.09725 0.69939 0.0
C415 C 0.72016 0.16037 0.72172 0.0
C416 C 0.61323 0.17394 0.72708 0.0
C417 C 0.57739 0.12167 0.69658 0.0
N418 N 0.57711 0.03239 0.65381 0.0
N419 N 0.72652 0.25786 0.7588 0.0
C420 C 0.61011 0.08299 0.68278 0.0
C421 C 0.68699 0.19819 0.73627 0.0
N422 N 0.69911 0.04873 0.69621 0.0
N423 N 0.57605 0.19804 0.74866 0.0
H424 H 0.77872 0.27381 0.76802 0.0
H425 H 0.70869 0.29256 0.76691 0.0
H426 H 0.52121 0.17745 0.74504 0.0
H427 H 0.59732 0.23182 0.77326 0.0
H428 H 0.66912 0.99935 0.6824 0.0
H429 H 0.74187 0.05437 0.71335 0.0
H430 H 0.6017 1.00752 0.6397 0.0
H431 H 0.52723 0.01917 0.64187 0.0
C432 C 0.96713 0.52994 0.69022 0.0
C433 C 0.91244 0.45677 0.68491 0.0
C434 C 0.82806 0.48439 0.71922 0.0
C435 C 0.8789 0.55826 0.71872 0.0
N436 N 1.00298 0.64629 0.71962 0.0
N437 N 0.7851 0.37052 0.68743 0.0
C438 C 0.95056 0.57966 0.70896 0.0
C439 C 0.8414 0.43543 0.69786 0.0
N440 N 0.03363 0.55327 0.67427 0.0
N441 N 0.76552 0.46184 0.73971 0.0
H442 H 0.78967 0.33564 0.6682 0.0
H443 H 0.73182 0.35526 0.69313 0.0
H444 H 0.75627 0.49756 0.75587 0.0
H445 H 0.72744 0.40844 0.74424 0.0
H446 H 0.07495 0.60602 0.67485 0.0
H447 H 0.04572 0.52094 0.65681 0.0
H448 H 0.05735 0.66318 0.71841 0.0
H449 H 0.9914 0.68156 0.7344 0.0
C450 C 0.5723 0.44138 0.72413 0.0
C451 C 0.58899 0.46716 0.68387 0.0
C452 C 0.50838 0.34845 0.65944 0.0
C453 C 0.48305 0.32254 0.69965 0.0
N454 N 0.48629 0.35115 0.76969 0.0
N455 N 0.55078 0.44899 0.61499 0.0
C456 C 0.51275 0.37162 0.73179 0.0
C457 C 0.5494 0.42213 0.65229 0.0
N458 N 0.61593 0.48129 0.75479 0.0
N459 N 0.49851 0.30492 0.62761 0.0
H460 H 0.58057 0.50304 0.60832 0.0
H461 H 0.51613 0.41813 0.59205 0.0
H462 H 0.5233 0.32449 0.59992 0.0
H463 H 0.47506 0.25053 0.62844 0.0
H464 H 0.61074 0.46227 0.78404 0.0
H465 H 0.66152 0.53099 0.75028 0.0
H466 H 0.50192 0.38659 0.79366 0.0
H467 H 0.44429 0.30007 0.77628 0.0
C468 C 0.80276 0.93717 0.70871 0.0
C469 C 0.79922 0.89633 0.6754 0.0
C470 C 0.81686 0.9961 0.63143 0.0
C471 C 0.83642 0.04146 0.66525 0.0
N472 N 0.86595 0.05213 0.73759 0.0
N473 N 0.80766 0.88912 0.60331 0.0
C474 C 0.83482 1.01149 0.70429 0.0
C475 C 0.80654 0.92597 0.63609 0.0
N476 N 0.77401 0.9053 0.74469 0.0
N477 N 0.81061 0.02052 0.59473 0.0
H478 H 0.80157 0.83873 0.60537 0.0
H479 H 0.82074 0.91087 0.57456 0.0
H480 H 0.82005 0.07206 0.5903 0.0
H481 H 0.79021 0.98791 0.56961 0.0
H482 H 0.7701 0.93327 0.76903 0.0
H483 H 0.74568 0.85017 0.74849 0.0
H484 H 0.87081 0.03026 0.76449 0.0
H485 H 0.89414 0.10693 0.73863 0.0
C486 C 0.05585 0.78828 0.65391 0.0
C487 C 1.00516 0.809 0.64484 0.0
C488 C 0.08879 0.93036 0.6693 0.0
C489 C 0.13844 0.90918 0.68165 0.0
N490 N 0.16474 0.8141 0.68955 0.0
N491 N 0.98683 0.90543 0.62718 0.0
C492 C 0.12112 0.83715 0.6743 0.0
C493 C 0.02734 0.88252 0.64651 0.0
N494 N 0.04295 0.72336 0.64116 0.0
N495 N 0.09679 0.99387 0.6815 0.0
H496 H 0.94193 0.8706 0.61035 0.0
H497 H 1.00112 0.9587 0.62461 0.0
H498 H 0.13632 0.02782 0.7013 0.0
H499 H 0.05851 1.00873 0.67641 0.0
H500 H 0.08076 0.70717 0.64234 0.0
H501 H 0.99704 0.68916 0.62488 0.0
H502 H 0.1547 0.76222 0.68698 0.0
H503 H 0.20816 0.84553 0.70821 0.0
C504 C 0.26483 0.27078 0.66652 0.0
C505 C 0.2441 0.20554 0.64655 0.0
C506 C 0.12055 0.18546 0.64277 0.0
C507 C 0.13845 0.24312 0.66987 0.0
N508 N 0.23062 0.34262 0.70646 0.0
N509 N 0.15354 0.10463 0.61113 0.0
C510 C 0.21167 0.28647 0.68125 0.0
C511 C 0.17219 0.16449 0.63313 0.0
N512 N 0.33587 0.31962 0.66932 0.0
N513 N 0.05477 0.15214 0.62506 0.0
H514 H 0.19145 0.09151 0.60147 0.0
H515 H 0.10133 0.06736 0.60309 0.0
H516 H 1.01764 0.16793 0.6302 0.0
H517 H 0.03908 0.1139 0.60267 0.0
H518 H 0.3563 0.37044 0.68123 0.0
H519 H 0.37325 0.31205 0.6539 0.0
H520 H 0.281 0.37139 0.7197 0.0
H521 H 0.19435 0.35778 0.71613 0.0
C522 C 0.9718 0.2949 0.19528 0.0
C523 C 0.03038 0.34819 0.2176 0.0
C524 C 0.08372 0.41488 0.15555 0.0
C525 C 1.02181 0.36607 0.13387 0.0
N526 N 0.90154 0.26493 0.13404 0.0
N527 N 0.13403 0.46626 0.22009 0.0
C528 C 0.96425 0.30734 0.15394 0.0
C529 C 0.08395 0.41035 0.19797 0.0
N530 N 0.92519 0.2313 0.21294 0.0
N531 N 0.14332 0.4645 0.13541 0.0
H532 H 0.13419 0.46572 0.25135 0.0
H533 H 0.17025 0.51562 0.20773 0.0
H534 H 0.14569 0.46836 0.10417 0.0
H535 H 0.19251 0.49682 0.14934 0.0
H536 H 0.88635 0.18763 0.19703 0.0
H537 H 0.92885 0.2202 0.24299 0.0
H538 H 0.85504 0.22652 0.14828 0.0
H539 H 0.89433 0.27152 0.10373 0.0
C540 C 0.75303 0.69135 0.20075 0.0
C541 C 0.7132 0.72085 0.21785 0.0
C542 C 0.68434 0.74237 0.15002 0.0
C543 C 0.71073 0.70039 0.13377 0.0
N544 N 0.76745 0.63041 0.1437 0.0
N545 N 0.62659 0.75969 0.20673 0.0
C546 C 0.74425 0.67336 0.15918 0.0
C547 C 0.67488 0.74238 0.19191 0.0
N548 N 0.80221 0.68438 0.22312 0.0
N549 N 0.66932 0.78336 0.12548 0.0
H550 H 0.61351 0.75658 0.23698 0.0
H551 H 0.59322 0.76917 0.18828 0.0
H552 H 0.67994 0.78721 0.09484 0.0
H553 H 0.65548 0.81984 0.13627 0.0
H554 H 0.83676 0.66904 0.2109 0.0
H555 H 0.81452 0.70154 0.25272 0.0
H556 H 0.78453 0.60234 0.16154 0.0
H557 H 0.76619 0.62038 0.11304 0.0
C558 C 0.38174 0.96061 0.16641 0.0
C559 C 0.39715 0.02568 0.14773 0.0
C560 C 0.38074 0.06983 0.21236 0.0
C561 C 0.36806 1.00597 0.23118 0.0
N562 N 0.37494 0.8991 0.22863 0.0
N563 N 0.43517 0.14981 0.15604 0.0
C564 C 0.37438 0.95397 0.20892 0.0
C565 C 0.40322 0.08256 0.17154 0.0
N566 N 0.37234 0.90451 0.14345 0.0
N567 N 0.37104 0.11822 0.23336 0.0
H568 H 0.45834 0.16172 0.12762 0.0
H569 H 0.44646 0.19455 0.17292 0.0
H570 H 0.35854 0.11247 0.26387 0.0
H571 H 0.37135 0.1617 0.21991 0.0
H572 H 0.35384 0.85352 0.15485 0.0
H573 H 0.37765 0.90747 0.11231 0.0
H574 H 0.38608 0.86294 0.21467 0.0
H575 H 0.37156 0.89434 0.25982 0.0
C576 C 0.34607 0.95076 0.87087 0.0
C577 C 0.35021 1.00267 0.89824 0.0
C578 C 0.37372 0.08467 0.84282 0.0
C579 C 0.36194 0.03117 0.81407 0.0
N580 N 0.34659 0.91398 0.80246 0.0
N581 N 0.34336 0.10819 0.90854 0.0
C582 C 0.3502 0.96399 0.82855 0.0
C583 C 0.35503 0.06557 0.88351 0.0
N584 N 0.34107 0.88977 0.88579 0.0
N585 N 0.41002 0.15513 0.83249 0.0
H586 H 0.32846 0.09461 0.93845 0.0
H587 H 0.34112 0.15243 0.89832 0.0
H588 H 0.43808 0.17342 0.80557 0.0
H589 H 0.42247 0.19576 0.85308 0.0
H590 H 0.34706 0.85309 0.86873 0.0
H591 H 0.33181 0.87645 0.91614 0.0
H592 H 0.32364 0.86023 0.80961 0.0
H593 H 0.37084 0.92679 0.77435 0.0
C594 C 0.09959 0.38781 0.86471 0.0
C595 C 0.04386 0.39223 0.88472 0.0
C596 C 0.98146 0.37516 0.82058 0.0
C597 C 0.0325 0.36233 0.80138 0.0
N598 N 0.13412 0.345 0.80659 0.0
N599 N 0.92463 0.37537 0.88306 0.0
C600 C 0.09029 0.36591 0.82375 0.0
C601 C 0.9829 0.38207 0.86296 0.0
N602 N 0.1622 0.40647 0.88436 0.0
N603 N 0.93188 0.38147 0.79813 0.0
H604 H 0.92243 0.37679 0.91429 0.0
H605 H 0.87589 0.36084 0.86921 0.0
H606 H 0.92961 0.37728 0.76692 0.0
H607 H 0.89778 0.3977 0.80997 0.0
H608 H 0.20748 0.41166 0.87007 0.0
H609 H 0.171 0.42249 0.91429 0.0
H610 H 0.17201 0.33876 0.82266 0.0
H611 H 0.12869 0.32833 0.77688 0.0
C612 C 0.63717 0.62979 0.81685 0.0
C613 C 0.70001 0.69032 0.80287 0.0
C614 C 0.73755 0.72722 0.87292 0.0
C615 C 0.67481 0.66454 0.88669 0.0
N616 N 0.59056 0.54184 0.8692 0.0
N617 N 0.81132 0.79787 0.8168 0.0
C618 C 0.63138 0.61162 0.85803 0.0
C619 C 0.75025 0.7398 0.83081 0.0
N620 N 0.58317 0.58851 0.79088 0.0
N621 N 0.7873 0.77257 0.89984 0.0
H622 H 0.81941 0.81156 0.78654 0.0
H623 H 0.85455 0.83248 0.83454 0.0
H624 H 0.7932 0.75603 0.92822 0.0
H625 H 0.82591 0.825 0.89344 0.0
H626 H 0.53377 0.54679 0.8005 0.0
H627 H 0.58513 0.60046 0.76046 0.0
H628 H 0.56167 0.50098 0.84873 0.0
H629 H 0.59568 0.52328 0.89717 0.0
C630 C 0.63949 0.63516 0.48965 0.0
C631 C 0.69473 0.69072 0.46703 0.0
C632 C 0.76937 0.73326 0.5276 0.0
C633 C 0.70996 0.6833 0.55156 0.0
N634 N 0.58148 0.59879 0.55396 0.0
N635 N 0.81121 0.79669 0.46456 0.0
C636 C 0.64291 0.63786 0.5323 0.0
C637 C 0.75936 0.74076 0.48609 0.0
N638 N 0.58396 0.57895 0.47052 0.0
N639 N 0.83596 0.77401 0.54411 0.0
H640 H 0.80876 0.80122 0.43354 0.0
H641 H 0.85494 0.84056 0.47762 0.0
H642 H 0.84622 0.77879 0.57471 0.0
H643 H 0.88256 0.80146 0.52709 0.0
H644 H 0.54554 0.53348 0.48548 0.0
H645 H 0.58151 0.57376 0.43944 0.0
H646 H 0.53101 0.57061 0.54069 0.0
H647 H 0.57818 0.60089 0.58489 0.0
C648 C 0.4085 1.01443 0.49645 0.0
C649 C 0.33962 0.98798 0.47906 0.0
C650 C 0.28779 0.97789 0.54611 0.0
C651 C 0.3574 1.01031 0.5631 0.0
N652 N 0.48528 0.06573 0.55468 0.0
N653 N 0.21487 0.95213 0.48644 0.0
C654 C 0.41814 0.02997 0.53834 0.0
C655 C 0.27955 0.97154 0.50372 0.0
N656 N 0.46433 0.02307 0.47306 0.0
N657 N 0.22932 0.95233 0.57073 0.0
H658 H 0.20697 0.94708 0.45562 0.0
H659 H 0.17083 0.94716 0.50203 0.0
H660 H 0.23363 0.9571 0.60181 0.0
H661 H 0.17664 0.92114 0.56094 0.0
H662 H 0.51377 0.03411 0.48449 0.0
H663 H 0.4599 0.01489 0.44212 0.0
H664 H 0.53221 0.08964 0.53778 0.0
H665 H 0.49408 0.07471 0.5854 0.0
C666 C 1.0181 0.39617 0.53136 0.0
C667 C 1.00197 0.33155 0.55118 0.0
C668 C 1.00235 0.27971 0.48576 0.0
C669 C 0.02906 0.34681 0.46703 0.0
N670 N 0.07049 0.47214 0.47295 0.0
N671 N 0.99198 0.21578 0.54678 0.0
C672 C 0.03908 0.40605 0.49006 0.0
C673 C 0.99761 0.27439 0.52817 0.0
N674 N 1.00988 0.44662 0.5511 0.0
N675 N 0.97921 0.22022 0.46278 0.0
H676 H 0.99025 0.21022 0.57775 0.0
H677 H 0.9966 0.17632 0.53173 0.0
H678 H 0.97874 0.22239 0.43161 0.0
H679 H 0.95277 0.16868 0.47443 0.0
H680 H 1.01393 0.49127 0.53694 0.0
H681 H 0.99173 0.44053 0.58059 0.0
H682 H 0.08666 0.51855 0.48934 0.0
H683 H 0.08508 0.4811 0.44277 0.0
loop_
_geom_bond_atom_site_label_1
_geom_bond_atom_site_label_2
_geom_bond_distance
_geom_bond_site_symmetry_2
_ccdc_geom_bond_type
Fe0 O2 1.918 1_556 S
Fe0 O5 1.997 1_455 S
Fe0 O6 2.002 . S
Fe0 O11 1.976 . S
Fe0 O14 2.006 . S
Fe1 O2 1.918 . S
Fe1 O9 1.997 1_454 S
Fe1 O12 1.996 1_554 S
Fe1 O16 1.976 . S
Fe1 O19 2.002 1_455 S
O2 Fe0 1.918 1_554 S
O2 Fe1 1.918 . S
O2 Fe3 1.918 1_455 S
Fe3 O2 1.918 1_655 S
Fe3 O4 2.002 . S
Fe3 O13 1.976 1_655 S
Fe3 O17 1.996 . S
Fe3 O20 1.997 . S
O4 Fe3 2.002 . S
O4 C21 1.295 1_554 S
O5 Fe0 1.997 1_655 S
O5 C21 1.235 . S
O6 Fe0 2.002 . S
O6 C7 1.295 1_455 S
C7 O6 1.295 1_655 S
C7 O9 1.235 . S
C8 O13 1.287 . S
C8 O14 1.237 1_554 S
O9 Fe1 1.997 1_656 S
O9 C7 1.235 . S
C10 O16 1.287 . S
C10 O17 1.255 1_455 S
O11 Fe0 1.976 . S
O11 C18 1.287 . S
O12 Fe1 1.996 1_556 S
O12 C18 1.255 . S
O13 Fe3 1.976 1_455 S
O13 C8 1.287 . S
O14 Fe0 2.006 . S
O14 C8 1.237 1_556 S
C15 O19 1.295 . S
C15 O20 1.235 . S
O16 Fe1 1.976 . S
O16 C10 1.287 . S
O17 Fe3 1.996 . S
O17 C10 1.255 1_655 S
C18 O11 1.287 . S
C18 O12 1.255 . S
O19 Fe1 2.002 1_655 S
O19 C15 1.295 . S
O20 Fe3 1.997 . S
O20 C15 1.235 . S
C21 O4 1.295 1_556 S
C21 O5 1.235 . S
Fe22 O24 1.918 . S
Fe22 O27 1.997 . S
Fe22 O28 2.002 1_554 S
Fe22 O33 1.976 1_554 S
Fe22 O36 1.996 . S
Fe23 O24 1.918 1_556 S
Fe23 O31 1.997 . S
Fe23 O34 1.996 . S
Fe23 O38 1.976 . S
Fe23 O41 2.002 . S
O24 Fe22 1.918 . S
O24 Fe23 1.918 1_554 S
O24 Fe25 1.918 . S
Fe25 O24 1.918 . S
Fe25 O26 2.002 . S
Fe25 O35 1.976 . S
Fe25 O39 1.996 . S
Fe25 O42 1.997 . S
O26 Fe25 2.002 . S
O26 C43 1.295 . S
O27 Fe22 1.997 . S
O27 C43 1.235 . S
O28 Fe22 2.002 1_556 S
O28 C29 1.295 . S
C29 O28 1.295 . S
C29 O31 1.235 . S
C30 O35 1.287 . S
C30 O36 1.255 . S
O31 Fe23 1.997 . S
O31 C29 1.235 . S
C32 O38 1.287 . S
C32 O39 1.255 1_556 S
O33 Fe22 1.976 1_556 S
O33 C40 1.287 . S
O34 Fe23 1.996 . S
O34 C40 1.255 . S
O35 Fe25 1.976 . S
O35 C30 1.287 . S
O36 Fe22 1.996 . S
O36 C30 1.255 . S
C37 O41 1.295 1_554 S
C37 O42 1.235 . S
O38 Fe23 1.976 . S
O38 C32 1.287 . S
O39 Fe25 1.996 . S
O39 C32 1.255 1_554 S
C40 O33 1.287 . S
C40 O34 1.255 . S
O41 Fe23 2.002 . S
O41 C37 1.295 1_556 S
O42 Fe25 1.997 . S
O42 C37 1.235 . S
C43 O26 1.295 . S
C43 O27 1.235 . S
Fe44 O46 1.909 1_566 S
Fe44 O49 1.997 1_565 S
Fe44 O50 2.002 . S
Fe44 O55 1.976 . S
Fe44 O58 1.990 1_556 S
Fe45 O46 1.925 . S
Fe45 O53 1.997 1_554 S
Fe45 O56 1.996 1_544 S
Fe45 O60 1.976 1_545 S
Fe45 O63 2.002 . S
O46 Fe44 1.909 1_544 S
O46 Fe45 1.925 . S
O46 Fe47 1.921 . S
Fe47 O46 1.921 . S
Fe47 O48 2.002 . S
Fe47 O57 1.976 1_545 S
Fe47 O61 1.996 . S
Fe47 O64 1.997 . S
O48 Fe47 2.002 . S
O48 C65 1.295 1_554 S
O49 Fe44 1.997 1_545 S
O49 C65 1.235 . S
O50 Fe44 2.002 . S
O50 C51 1.295 1_565 S
C51 O50 1.295 1_545 S
C51 O53 1.235 . S
C52 O57 1.287 . S
C52 O58 1.263 . S
O53 Fe45 1.997 1_556 S
O53 C51 1.235 . S
C54 O60 1.287 . S
C54 O61 1.255 1_565 S
O55 Fe44 1.976 . S
O55 C62 1.287 . S
O56 Fe45 1.996 1_566 S
O56 C62 1.255 . S
O57 Fe47 1.976 1_565 S
O57 C52 1.287 . S
O58 Fe44 1.990 1_554 S
O58 C52 1.263 . S
C59 O63 1.295 . S
C59 O64 1.235 . S
O60 Fe45 1.976 1_565 S
O60 C54 1.287 . S
O61 Fe47 1.996 . S
O61 C54 1.255 1_545 S
C62 O55 1.287 . S
C62 O56 1.255 . S
O63 Fe45 2.002 . S
O63 C59 1.295 . S
O64 Fe47 1.997 . S
O64 C59 1.235 . S
C65 O48 1.295 1_556 S
C65 O49 1.235 . S
Fe66 O68 1.918 . S
Fe66 O71 1.997 . S
Fe66 O72 2.002 . S
Fe66 O77 1.976 . S
Fe66 O80 1.996 . S
Fe67 O68 1.918 . S
Fe67 O75 1.997 . S
Fe67 O78 1.996 . S
Fe67 O82 1.976 . S
Fe67 O85 2.002 . S
O68 Fe66 1.918 . S
O68 Fe67 1.918 . S
O68 Fe69 1.918 . S
Fe69 O68 1.918 . S
Fe69 O70 2.002 . S
Fe69 O79 1.976 . S
Fe69 O83 1.996 . S
Fe69 O86 1.997 . S
O70 Fe69 2.002 . S
O70 C87 1.295 . S
O71 Fe66 1.997 . S
O71 C87 1.235 . S
O72 Fe66 2.002 . S
O72 C73 1.295 . S
C73 O72 1.295 . S
C73 O75 1.235 . S
C74 O79 1.287 . S
C74 O80 1.255 . S
O75 Fe67 1.997 . S
O75 C73 1.235 . S
C76 O82 1.287 . S
C76 O83 1.255 . S
O77 Fe66 1.976 . S
O77 C84 1.287 . S
O78 Fe67 1.996 . S
O78 C84 1.255 . S
O79 Fe69 1.976 . S
O79 C74 1.287 . S
O80 Fe66 1.996 . S
O80 C74 1.255 . S
C81 O85 1.295 . S
C81 O86 1.235 . S
O82 Fe67 1.976 . S
O82 C76 1.287 . S
O83 Fe69 1.996 . S
O83 C76 1.255 . S
C84 O77 1.287 . S
C84 O78 1.255 . S
O85 Fe67 2.002 . S
O85 C81 1.295 . S
O86 Fe69 1.997 . S
O86 C81 1.235 . S
C87 O70 1.295 . S
C87 O71 1.235 . S
Fe88 O90 1.918 . S
Fe88 O93 1.997 . S
Fe88 O94 2.002 . S
Fe88 O99 1.976 . S
Fe88 O102 1.996 . S
Fe89 O90 1.918 . S
Fe89 O97 1.997 1_565 S
Fe89 O100 1.996 . S
Fe89 O104 1.976 . S
Fe89 O107 2.002 1_565 S
O90 Fe88 1.918 . S
O90 Fe89 1.918 . S
O90 Fe91 1.918 . S
Fe91 O90 1.918 . S
Fe91 O92 2.002 . S
Fe91 O101 1.976 . S
Fe91 O105 1.996 . S
Fe91 O108 1.997 . S
O92 Fe91 2.002 . S
O92 C109 1.295 . S
O93 Fe88 1.997 . S
O93 C109 1.235 . S
O94 Fe88 2.002 . S
O94 C95 1.295 . S
C95 O94 1.295 . S
C95 O97 1.235 1_565 S
C96 O101 1.287 . S
C96 O102 1.255 . S
O97 Fe89 1.997 1_545 S
O97 C95 1.235 1_545 S
C98 O104 1.287 . S
C98 O105 1.255 . S
O99 Fe88 1.976 . S
O99 C106 1.287 . S
O100 Fe89 1.996 . S
O100 C106 1.255 . S
O101 Fe91 1.976 . S
O101 C96 1.287 . S
O102 Fe88 1.996 . S
O102 C96 1.255 . S
C103 O107 1.295 . S
C103 O108 1.235 1_545 S
O104 Fe89 1.976 . S
O104 C98 1.287 . S
O105 Fe91 1.996 . S
O105 C98 1.255 . S
C106 O99 1.287 . S
C106 O100 1.255 . S
O107 Fe89 2.002 1_545 S
O107 C103 1.295 . S
O108 Fe91 1.997 . S
O108 C103 1.235 1_565 S
C109 O92 1.295 . S
C109 O93 1.235 . S
Fe110 O112 1.918 . S
Fe110 O115 1.997 1_455 S
Fe110 O116 2.002 1_455 S
Fe110 O121 1.976 . S
Fe110 O124 1.996 . S
Fe111 O112 1.918 . S
Fe111 O119 1.997 . S
Fe111 O122 1.996 . S
Fe111 O126 1.976 . S
Fe111 O129 2.002 . S
O112 Fe110 1.918 . S
O112 Fe111 1.918 . S
O112 Fe113 1.918 . S
Fe113 O112 1.918 . S
Fe113 O114 2.002 . S
Fe113 O123 1.976 . S
Fe113 O127 1.996 . S
Fe113 O130 1.997 . S
O114 Fe113 2.002 . S
O114 C131 1.295 . S
O115 Fe110 1.997 1_655 S
O115 C131 1.235 1_655 S
O116 Fe110 2.002 1_655 S
O116 C117 1.295 . S
C117 O116 1.295 . S
C117 O119 1.235 1_655 S
C118 O123 1.287 . S
C118 O124 1.255 . S
O119 Fe111 1.997 . S
O119 C117 1.235 1_455 S
C120 O126 1.287 . S
C120 O127 1.255 . S
O121 Fe110 1.976 . S
O121 C128 1.287 . S
O122 Fe111 1.996 . S
O122 C128 1.255 . S
O123 Fe113 1.976 . S
O123 C118 1.287 . S
O124 Fe110 1.996 . S
O124 C118 1.255 . S
C125 O129 1.295 . S
C125 O130 1.235 . S
O126 Fe111 1.976 . S
O126 C120 1.287 . S
O127 Fe113 1.996 . S
O127 C120 1.255 . S
C128 O121 1.287 . S
C128 O122 1.255 . S
O129 Fe111 2.002 . S
O129 C125 1.295 . S
O130 Fe113 1.997 . S
O130 C125 1.235 . S
C131 O114 1.295 . S
C131 O115 1.235 1_455 S
Fe132 O134 1.918 . S
Fe132 O137 1.997 . S
Fe132 O138 2.002 . S
Fe132 O143 1.976 . S
Fe132 O146 1.996 . S
Fe133 O134 1.918 . S
Fe133 O141 1.997 . S
Fe133 O144 1.996 . S
Fe133 O148 1.976 . S
Fe133 O151 2.002 1_545 S
O134 Fe132 1.918 . S
O134 Fe133 1.918 . S
O134 Fe135 1.918 . S
Fe135 O134 1.918 . S
Fe135 O136 2.002 . S
Fe135 O145 1.976 . S
Fe135 O149 1.996 . S
Fe135 O152 1.997 . S
O136 Fe135 2.002 . S
O136 C153 1.295 . S
O137 Fe132 1.997 . S
O137 C153 1.235 . S
O138 Fe132 2.002 . S
O138 C139 1.295 . S
C139 O138 1.295 . S
C139 O141 1.245 . S
C140 O145 1.287 . S
C140 O146 1.255 . S
O141 Fe133 1.997 . S
O141 C139 1.245 . S
C142 O148 1.287 . S
C142 O149 1.255 . S
O143 Fe132 1.976 . S
O143 C150 1.287 . S
O144 Fe133 1.996 . S
O144 C150 1.255 . S
O145 Fe135 1.976 . S
O145 C140 1.287 . S
O146 Fe132 1.996 . S
O146 C140 1.255 . S
C147 O151 1.295 . S
C147 O152 1.235 1_565 S
O148 Fe133 1.976 . S
O148 C142 1.287 . S
O149 Fe135 1.996 . S
O149 C142 1.255 . S
C150 O143 1.287 . S
C150 O144 1.255 . S
O151 Fe133 2.002 1_565 S
O151 C147 1.295 . S
O152 Fe135 1.997 . S
O152 C147 1.235 1_545 S
C153 O136 1.295 . S
C153 O137 1.235 . S
Fe154 O156 1.918 . S
Fe154 O159 1.997 . S
Fe154 O160 2.002 . S
Fe154 O165 1.976 . S
Fe154 O168 1.996 . S
Fe155 O156 1.918 . S
Fe155 O163 1.997 . S
Fe155 O166 1.996 1_655 S
Fe155 O170 1.976 1_655 S
Fe155 O173 2.002 . S
O156 Fe154 1.918 . S
O156 Fe155 1.918 . S
O156 Fe157 1.918 . S
Fe157 O156 1.918 . S
Fe157 O158 2.002 . S
Fe157 O167 1.976 . S
Fe157 O171 1.996 . S
Fe157 O174 1.997 . S
O158 Fe157 2.002 . S
O158 C175 1.295 . S
O159 Fe154 1.997 . S
O159 C175 1.235 . S
O160 Fe154 2.002 . S
O160 C161 1.295 . S
C161 O160 1.295 . S
C161 O163 1.235 . S
C162 O167 1.287 . S
C162 O168 1.255 . S
O163 Fe155 1.997 . S
O163 C161 1.235 . S
C164 O170 1.287 1_655 S
C164 O171 1.255 . S
O165 Fe154 1.976 . S
O165 C172 1.287 1_655 S
O166 Fe155 1.996 1_455 S
O166 C172 1.255 . S
O167 Fe157 1.976 . S
O167 C162 1.287 . S
O168 Fe154 1.996 . S
O168 C162 1.255 . S
C169 O173 1.295 . S
C169 O174 1.235 . S
O170 Fe155 1.976 1_455 S
O170 C164 1.287 1_455 S
O171 Fe157 1.996 . S
O171 C164 1.255 . S
C172 O165 1.287 1_455 S
C172 O166 1.255 . S
O173 Fe155 2.002 . S
O173 C169 1.295 . S
O174 Fe157 1.997 . S
O174 C169 1.235 . S
C175 O158 1.295 . S
C175 O159 1.235 . S
Fe176 O178 1.918 . S
Fe176 O181 1.997 . S
Fe176 O182 2.002 . S
Fe176 O187 1.976 . S
Fe176 O190 1.996 . S
Fe177 O178 1.918 . S
Fe177 O185 1.997 . S
Fe177 O188 1.996 . S
Fe177 O192 1.976 . S
Fe177 O195 2.002 . S
O178 Fe176 1.918 . S
O178 Fe177 1.918 . S
O178 Fe179 1.918 . S
Fe179 O178 1.918 . S
Fe179 O180 2.002 . S
Fe179 O189 1.976 . S
Fe179 O193 1.996 . S
Fe179 O196 1.997 . S
O180 Fe179 2.002 . S
O180 C197 1.295 . S
O181 Fe176 1.997 . S
O181 C197 1.235 . S
O182 Fe176 2.002 . S
O182 C183 1.295 . S
C183 O182 1.295 . S
C183 O185 1.235 . S
C184 O189 1.287 . S
C184 O190 1.255 . S
O185 Fe177 1.997 . S
O185 C183 1.235 . S
C186 O192 1.287 . S
C186 O193 1.255 . S
O187 Fe176 1.976 . S
O187 C194 1.287 . S
O188 Fe177 1.996 . S
O188 C194 1.255 . S
O189 Fe179 1.976 . S
O189 C184 1.287 . S
O190 Fe176 1.996 . S
O190 C184 1.255 . S
C191 O195 1.295 . S
C191 O196 1.235 . S
O192 Fe177 1.976 . S
O192 C186 1.287 . S
O193 Fe179 1.996 . S
O193 C186 1.255 . S
C194 O187 1.287 . S
C194 O188 1.255 . S
O195 Fe177 2.002 . S
O195 C191 1.295 . S
O196 Fe179 1.997 . S
O196 C191 1.235 . S
C197 O180 1.295 . S
C197 O181 1.235 . S
C198 C199 1.363 . S
C198 C204 1.379 . S
C198 N206 1.356 . S
C199 C198 1.363 . S
C199 C205 1.363 . S
C200 C201 1.363 . S
C200 C205 1.379 1_556 S
C200 N207 1.356 . S
C201 C200 1.363 . S
C201 C204 1.363 1_556 S
N202 C204 1.356 . S
N202 H214 0.984 . S
N202 H215 0.985 1_554 S
N203 C205 1.356 . S
N203 H208 0.984 . S
N203 H209 0.985 . S
C204 C198 1.379 . S
C204 C201 1.363 1_554 S
C204 N202 1.356 . S
C205 C199 1.363 . S
C205 C200 1.379 1_554 S
C205 N203 1.356 . S
N206 C198 1.356 . S
N206 H212 0.984 . S
N206 H213 0.984 . S
N207 C200 1.356 . S
N207 H210 0.984 . S
N207 H211 0.985 . S
H208 N203 0.984 . S
H209 N203 0.985 . S
H210 N207 0.984 . S
H211 N207 0.985 . S
H212 N206 0.984 . S
H213 N206 0.984 . S
H214 N202 0.984 . S
H215 N202 0.985 1_556 S
C216 C217 1.363 1_556 S
C216 C222 1.379 . S
C216 N224 1.356 . S
C217 C216 1.363 1_554 S
C217 C223 1.363 . S
C218 C219 1.363 1_554 S
C218 C223 1.379 . S
C218 N225 1.356 . S
C219 C218 1.363 1_556 S
C219 C222 1.363 . S
N220 C222 1.356 . S
N220 H232 0.984 . S
N220 H233 0.985 . S
N221 C223 1.356 . S
N221 H226 0.984 . S
N221 H227 0.985 . S
C222 C216 1.379 . S
C222 C219 1.363 . S
C222 N220 1.356 . S
C223 C217 1.363 . S
C223 C218 1.379 . S
C223 N221 1.356 . S
N224 C216 1.356 . S
N224 H230 0.984 . S
N224 H231 0.984 1_556 S
N225 C218 1.356 . S
N225 H228 0.984 . S
N225 H229 0.985 . S
H226 N221 0.984 . S
H227 N221 0.985 . S
H228 N225 0.984 . S
H229 N225 0.985 . S
H230 N224 0.984 . S
H231 N224 0.984 1_554 S
H232 N220 0.984 . S
H233 N220 0.985 . S
C234 C235 1.363 1_554 S
C234 C240 1.379 . S
C234 N242 1.356 . S
C235 C234 1.363 1_556 S
C235 C241 1.363 . S
C236 C237 1.375 . S
C236 C241 1.371 1_554 S
C236 N243 1.356 . S
C237 C236 1.375 . S
C237 C240 1.363 . S
N238 C240 1.356 . S
N238 H250 0.984 . S
N238 H251 0.985 . S
N239 C241 1.356 . S
N239 H244 0.984 . S
N239 H245 0.985 . S
C240 C234 1.379 . S
C240 C237 1.363 . S
C240 N238 1.356 . S
C241 C235 1.363 . S
C241 C236 1.371 1_556 S
C241 N239 1.356 . S
N242 C234 1.356 . S
N242 H248 0.984 . S
N242 H249 0.970 1_554 S
N243 C236 1.356 . S
N243 H246 0.994 . S
N243 H247 0.975 1_554 S
H244 N239 0.984 . S
H245 N239 0.985 . S
H246 N243 0.994 . S
H247 N243 0.975 1_556 S
H248 N242 0.984 . S
H249 N242 0.970 1_556 S
H250 N238 0.984 . S
H251 N238 0.985 . S
C252 C253 1.363 . S
C252 C258 1.379 . S
C252 N260 1.356 . S
C253 C252 1.363 . S
C253 C259 1.363 1_554 S
C254 C255 1.363 . S
C254 C259 1.379 . S
C254 N261 1.356 . S
C255 C254 1.363 . S
C255 C258 1.363 1_556 S
N256 C258 1.356 . S
N256 H268 0.984 . S
N256 H269 0.985 . S
N257 C259 1.356 . S
N257 H262 0.984 . S
N257 H263 0.985 . S
C258 C252 1.379 . S
C258 C255 1.363 1_554 S
C258 N256 1.356 . S
C259 C253 1.363 1_556 S
C259 C254 1.379 . S
C259 N257 1.356 . S
N260 C252 1.356 . S
N260 H266 0.984 . S
N260 H267 0.984 . S
N261 C254 1.356 . S
N261 H264 0.984 . S
N261 H265 0.985 . S
H262 N257 0.984 . S
H263 N257 0.985 . S
H264 N261 0.984 . S
H265 N261 0.985 . S
H266 N260 0.984 . S
H267 N260 0.984 . S
H268 N256 0.984 . S
H269 N256 0.985 . S
C270 C271 1.363 . S
C270 C276 1.367 1_556 S
C270 N278 1.356 . S
C271 C270 1.363 . S
C271 C277 1.353 1_556 S
C272 C273 1.363 . S
C272 C277 1.389 . S
C272 N279 1.356 . S
C273 C272 1.363 . S
C273 C276 1.375 . S
N274 C276 1.360 . S
N274 H286 0.984 1_554 S
N274 H287 0.985 . S
N275 C277 1.353 1_556 S
N275 H280 0.984 . S
N275 H281 0.985 1_556 S
C276 C270 1.367 1_554 S
C276 C273 1.375 . S
C276 N274 1.360 . S
C277 C271 1.353 1_554 S
C277 C272 1.389 . S
C277 N275 1.353 1_554 S
N278 C270 1.356 . S
N278 H284 0.984 . S
N278 H285 0.984 . S
N279 C272 1.356 . S
N279 H282 0.984 . S
N279 H283 0.985 . S
H280 N275 0.984 . S
H281 N275 0.985 1_554 S
H282 N279 0.984 . S
H283 N279 0.985 . S
H284 N278 0.984 . S
H285 N278 0.984 . S
H286 N274 0.984 1_556 S
H287 N274 0.985 . S
C288 C289 1.363 1_554 S
C288 C294 1.379 . S
C288 N296 1.356 . S
C289 C288 1.363 1_556 S
C289 C295 1.363 . S
C290 C291 1.363 1_556 S
C290 C295 1.379 . S
C290 N297 1.354 1_556 S
C291 C290 1.363 1_554 S
C291 C294 1.363 . S
N292 C294 1.356 . S
N292 H304 0.984 . S
N292 H305 0.985 . S
N293 C295 1.356 . S
N293 H298 0.984 . S
N293 H299 0.985 . S
C294 C288 1.379 . S
C294 C291 1.363 . S
C294 N292 1.356 . S
C295 C289 1.363 . S
C295 C290 1.379 . S
C295 N293 1.356 . S
N296 C288 1.356 . S
N296 H302 0.984 . S
N296 H303 0.984 1_554 S
N297 C290 1.354 1_554 S
N297 H300 1.001 . S
N297 H301 0.971 1_554 S
H298 N293 0.984 . S
H299 N293 0.985 . S
H300 N297 1.001 . S
H301 N297 0.971 1_556 S
H302 N296 0.984 . S
H303 N296 0.984 1_556 S
H304 N292 0.984 . S
H305 N292 0.985 . S
C306 C307 1.363 . S
C306 C312 1.379 1_655 S
C306 N314 1.356 . S
C307 C306 1.363 . S
C307 C313 1.363 . S
C308 C309 1.363 1_655 S
C308 C313 1.379 . S
C308 N315 1.356 . S
C309 C308 1.363 1_455 S
C309 C312 1.363 . S
N310 C312 1.356 . S
N310 H322 0.984 . S
N310 H323 0.985 . S
N311 C313 1.356 . S
N311 H316 0.984 . S
N311 H317 0.985 . S
C312 C306 1.379 1_455 S
C312 C309 1.363 . S
C312 N310 1.356 . S
C313 C307 1.363 . S
C313 C308 1.379 . S
C313 N311 1.356 . S
N314 C306 1.356 . S
N314 H320 0.984 . S
N314 H321 0.984 . S
N315 C308 1.356 . S
N315 H318 0.984 1_655 S
N315 H319 0.985 . S
H316 N311 0.984 . S
H317 N311 0.985 . S
H318 N315 0.984 1_455 S
H319 N315 0.985 . S
H320 N314 0.984 . S
H321 N314 0.984 . S
H322 N310 0.984 . S
H323 N310 0.985 . S
C324 C325 1.363 . S
C324 C330 1.379 . S
C324 N332 1.356 . S
C325 C324 1.363 . S
C325 C331 1.363 . S
C326 C327 1.363 . S
C326 C331 1.379 . S
C326 N333 1.356 . S
C327 C326 1.363 . S
C327 C330 1.363 . S
N328 C330 1.356 . S
N328 H340 0.984 . S
N328 H341 0.985 . S
N329 C331 1.356 . S
N329 H334 0.984 . S
N329 H335 0.985 . S
C330 C324 1.379 . S
C330 C327 1.363 . S
C330 N328 1.356 . S
C331 C325 1.363 . S
C331 C326 1.379 . S
C331 N329 1.356 . S
N332 C324 1.356 . S
N332 H338 0.984 . S
N332 H339 0.984 . S
N333 C326 1.356 . S
N333 H336 0.984 . S
N333 H337 0.985 . S
H334 N329 0.984 . S
H335 N329 0.985 . S
H336 N333 0.984 . S
H337 N333 0.985 . S
H338 N332 0.984 . S
H339 N332 0.984 . S
H340 N328 0.984 . S
H341 N328 0.985 . S
C342 C343 1.363 . S
C342 C348 1.379 . S
C342 N350 1.356 . S
C343 C342 1.363 . S
C343 C349 1.363 . S
C344 C345 1.363 1_545 S
C344 C349 1.379 . S
C344 N351 1.356 1_545 S
C345 C344 1.363 1_565 S
C345 C348 1.363 1_565 S
N346 C348 1.356 . S
N346 H358 0.984 . S
N346 H359 0.985 1_545 S
N347 C349 1.356 . S
N347 H352 0.984 . S
N347 H353 0.985 . S
C348 C342 1.379 . S
C348 C345 1.363 1_545 S
C348 N346 1.356 . S
C349 C343 1.363 . S
C349 C344 1.379 . S
C349 N347 1.356 . S
N350 C342 1.356 . S
N350 H356 0.984 1_655 S
N350 H357 0.984 1_655 S
N351 C344 1.356 1_565 S
N351 H354 0.984 . S
N351 H355 0.985 . S
H352 N347 0.984 . S
H353 N347 0.985 . S
H354 N351 0.984 . S
H355 N351 0.985 . S
H356 N350 0.984 1_455 S
H357 N350 0.984 1_455 S
H358 N346 0.984 . S
H359 N346 0.985 1_565 S
C360 C361 1.363 . S
C360 C366 1.379 . S
C360 N368 1.356 . S
C361 C360 1.363 . S
C361 C367 1.363 . S
C362 C363 1.363 . S
C362 C367 1.379 . S
C362 N369 1.356 . S
C363 C362 1.363 . S
C363 C366 1.363 . S
N364 C366 1.356 . S
N364 H376 0.984 . S
N364 H377 0.985 . S
N365 C367 1.356 . S
N365 H370 0.984 . S
N365 H371 0.985 . S
C366 C360 1.379 . S
C366 C363 1.363 . S
C366 N364 1.356 . S
C367 C361 1.363 . S
C367 C362 1.379 . S
C367 N365 1.356 . S
N368 C360 1.356 . S
N368 H374 0.984 . S
N368 H375 0.984 . S
N369 C362 1.356 . S
N369 H372 0.984 . S
N369 H373 0.985 . S
H370 N365 0.984 . S
H371 N365 0.985 . S
H372 N369 0.984 . S
H373 N369 0.985 . S
H374 N368 0.984 . S
H375 N368 0.984 . S
H376 N364 0.984 . S
H377 N364 0.985 . S
C378 C379 1.363 . S
C378 C384 1.379 . S
C378 N386 1.356 . S
C379 C378 1.363 . S
C379 C385 1.363 . S
C380 C381 1.363 . S
C380 C385 1.379 . S
C380 N387 1.356 . S
C381 C380 1.363 . S
C381 C384 1.363 . S
N382 C384 1.356 . S
N382 H394 0.984 . S
N382 H395 0.985 . S
N383 C385 1.356 . S
N383 H388 0.984 . S
N383 H389 0.985 . S
C384 C378 1.379 . S
C384 C381 1.363 . S
C384 N382 1.356 . S
C385 C379 1.363 . S
C385 C380 1.379 . S
C385 N383 1.356 . S
N386 C378 1.356 . S
N386 H392 0.984 . S
N386 H393 0.984 . S
N387 C380 1.356 . S
N387 H390 0.984 . S
N387 H391 0.985 . S
H388 N383 0.984 . S
H389 N383 0.985 . S
H390 N387 0.984 . S
H391 N387 0.985 . S
H392 N386 0.984 . S
H393 N386 0.984 . S
H394 N382 0.984 . S
H395 N382 0.985 . S
C396 C397 1.363 . S
C396 C402 1.379 . S
C396 N404 1.356 . S
C397 C396 1.363 . S
C397 C403 1.363 . S
C398 C399 1.363 . S
C398 C403 1.379 . S
C398 N405 1.356 . S
C399 C398 1.363 . S
C399 C402 1.363 . S
N400 C402 1.356 . S
N400 H412 0.984 . S
N400 H413 0.985 . S
N401 C403 1.356 . S
N401 H406 0.984 . S
N401 H407 0.984 . S
C402 C396 1.379 . S
C402 C399 1.363 . S
C402 N400 1.356 . S
C403 C397 1.363 . S
C403 C398 1.379 . S
C403 N401 1.356 . S
N404 C396 1.356 . S
N404 H410 0.984 . S
N404 H411 0.984 . S
N405 C398 1.356 . S
N405 H408 0.984 . S
N405 H409 0.985 . S
H406 N401 0.984 . S
H407 N401 0.984 . S
H408 N405 0.984 . S
H409 N405 0.985 . S
H410 N404 0.984 . S
H411 N404 0.984 . S
H412 N400 0.984 . S
H413 N400 0.985 . S
C414 C415 1.363 . S
C414 C420 1.379 . S
C414 N422 1.356 . S
C415 C414 1.363 . S
C415 C421 1.363 . S
C416 C417 1.363 . S
C416 C421 1.379 . S
C416 N423 1.356 . S
C417 C416 1.363 . S
C417 C420 1.363 . S
N418 C420 1.356 . S
N418 H430 0.984 1_545 S
N418 H431 0.985 . S
N419 C421 1.356 . S
N419 H424 0.984 . S
N419 H425 0.985 . S
C420 C414 1.379 . S
C420 C417 1.363 . S
C420 N418 1.356 . S
C421 C415 1.363 . S
C421 C416 1.379 . S
C421 N419 1.356 . S
N422 C414 1.356 . S
N422 H428 0.984 . S
N422 H429 0.984 . S
N423 C416 1.356 . S
N423 H426 0.984 . S
N423 H427 0.985 . S
H424 N419 0.984 . S
H425 N419 0.985 . S
H426 N423 0.984 . S
H427 N423 0.985 . S
H428 N422 0.984 . S
H429 N422 0.984 . S
H430 N418 0.984 1_565 S
H431 N418 0.985 . S
C432 C433 1.363 . S
C432 C438 1.379 . S
C432 N440 1.356 . S
C433 C432 1.363 . S
C433 C439 1.363 . S
C434 C435 1.363 . S
C434 C439 1.379 . S
C434 N441 1.356 . S
C435 C434 1.363 . S
C435 C438 1.363 . S
N436 C438 1.356 . S
N436 H448 0.984 1_655 S
N436 H449 0.985 . S
N437 C439 1.356 . S
N437 H442 0.984 . S
N437 H443 0.985 . S
C438 C432 1.379 . S
C438 C435 1.363 . S
C438 N436 1.356 . S
C439 C433 1.363 . S
C439 C434 1.379 . S
C439 N437 1.356 . S
N440 C432 1.356 . S
N440 H446 0.984 1_655 S
N440 H447 0.984 . S
N441 C434 1.356 . S
N441 H444 0.984 . S
N441 H445 0.985 . S
H442 N437 0.984 . S
H443 N437 0.985 . S
H444 N441 0.984 . S
H445 N441 0.985 . S
H446 N440 0.984 1_455 S
H447 N440 0.984 . S
H448 N436 0.984 1_455 S
H449 N436 0.985 . S
C450 C451 1.363 . S
C450 C456 1.379 . S
C450 N458 1.356 . S
C451 C450 1.363 . S
C451 C457 1.363 . S
C452 C453 1.363 . S
C452 C457 1.379 . S
C452 N459 1.356 . S
C453 C452 1.363 . S
C453 C456 1.363 . S
N454 C456 1.356 . S
N454 H466 0.984 . S
N454 H467 0.985 . S
N455 C457 1.356 . S
N455 H460 0.984 . S
N455 H461 0.985 . S
C456 C450 1.379 . S
C456 C453 1.363 . S
C456 N454 1.356 . S
C457 C451 1.363 . S
C457 C452 1.379 . S
C457 N455 1.356 . S
N458 C450 1.356 . S
N458 H464 0.984 . S
N458 H465 0.984 . S
N459 C452 1.356 . S
N459 H462 0.984 . S
N459 H463 0.985 . S
H460 N455 0.984 . S
H461 N455 0.985 . S
H462 N459 0.984 . S
H463 N459 0.985 . S
H464 N458 0.984 . S
H465 N458 0.984 . S
H466 N454 0.984 . S
H467 N454 0.985 . S
C468 C469 1.363 . S
C468 C474 1.379 . S
C468 N476 1.356 . S
C469 C468 1.363 . S
C469 C475 1.363 . S
C470 C471 1.363 1_565 S
C470 C475 1.379 . S
C470 N477 1.356 . S
C471 C470 1.363 1_545 S
C471 C474 1.363 1_545 S
N472 C474 1.356 1_545 S
N472 H484 0.984 . S
N472 H485 0.985 . S
N473 C475 1.356 . S
N473 H478 0.984 . S
N473 H479 0.985 . S
C474 C468 1.379 . S
C474 C471 1.363 1_565 S
C474 N472 1.356 1_565 S
C475 C469 1.363 . S
C475 C470 1.379 . S
C475 N473 1.356 . S
N476 C468 1.356 . S
N476 H482 0.984 . S
N476 H483 0.984 . S
N477 C470 1.356 . S
N477 H480 0.984 1_565 S
N477 H481 0.985 . S
H478 N473 0.984 . S
H479 N473 0.985 . S
H480 N477 0.984 1_545 S
H481 N477 0.985 . S
H482 N476 0.984 . S
H483 N476 0.984 . S
H484 N472 0.984 . S
H485 N472 0.985 . S
C486 C487 1.363 1_455 S
C486 C492 1.379 . S
C486 N494 1.356 . S
C487 C486 1.363 1_655 S
C487 C493 1.363 . S
C488 C489 1.363 . S
C488 C493 1.379 1_455 S
C488 N495 1.356 . S
C489 C488 1.363 . S
C489 C492 1.363 . S
N490 C492 1.356 . S
N490 H502 0.984 . S
N490 H503 0.985 . S
N491 C493 1.356 . S
N491 H496 0.984 . S
N491 H497 0.985 . S
C492 C486 1.379 . S
C492 C489 1.363 . S
C492 N490 1.356 . S
C493 C487 1.363 . S
C493 C488 1.379 1_655 S
C493 N491 1.356 . S
N494 C486 1.356 . S
N494 H500 0.984 . S
N494 H501 0.984 1_455 S
N495 C488 1.356 . S
N495 H498 0.984 . S
N495 H499 0.985 . S
H496 N491 0.984 . S
H497 N491 0.985 . S
H498 N495 0.984 . S
H499 N495 0.985 . S
H500 N494 0.984 . S
H501 N494 0.984 1_655 S
H502 N490 0.984 . S
H503 N490 0.985 . S
C504 C505 1.363 . S
C504 C510 1.379 . S
C504 N512 1.356 . S
C505 C504 1.363 . S
C505 C511 1.363 . S
C506 C507 1.363 . S
C506 C511 1.379 . S
C506 N513 1.356 . S
C507 C506 1.363 . S
C507 C510 1.363 . S
N508 C510 1.356 . S
N508 H520 0.984 . S
N508 H521 0.985 . S
N509 C511 1.356 . S
N509 H514 0.984 . S
N509 H515 0.985 . S
C510 C504 1.379 . S
C510 C507 1.363 . S
C510 N508 1.356 . S
C511 C505 1.363 . S
C511 C506 1.379 . S
C511 N509 1.356 . S
N512 C504 1.356 . S
N512 H518 0.984 . S
N512 H519 0.984 . S
N513 C506 1.356 . S
N513 H516 0.984 1_455 S
N513 H517 0.985 1_455 S
H514 N509 0.984 . S
H515 N509 0.985 . S
H516 N513 0.984 1_655 S
H517 N513 0.985 1_655 S
H518 N512 0.984 . S
H519 N512 0.984 . S
H520 N508 0.984 . S
H521 N508 0.985 . S
C522 C523 1.363 . S
C522 C528 1.379 . S
C522 N530 1.356 . S
C523 C522 1.363 . S
C523 C529 1.363 . S
C524 C525 1.363 . S
C524 C529 1.379 . S
C524 N531 1.356 . S
C525 C524 1.363 . S
C525 C528 1.363 . S
N526 C528 1.356 . S
N526 H538 0.984 . S
N526 H539 0.985 . S
N527 C529 1.356 . S
N527 H532 0.984 . S
N527 H533 0.985 . S
C528 C522 1.379 . S
C528 C525 1.363 . S
C528 N526 1.356 . S
C529 C523 1.363 . S
C529 C524 1.379 . S
C529 N527 1.356 . S
N530 C522 1.356 . S
N530 H536 0.984 . S
N530 H537 0.984 . S
N531 C524 1.356 . S
N531 H534 0.984 . S
N531 H535 0.985 . S
H532 N527 0.984 . S
H533 N527 0.985 . S
H534 N531 0.984 . S
H535 N531 0.985 . S
H536 N530 0.984 . S
H537 N530 0.984 . S
H538 N526 0.984 . S
H539 N526 0.985 . S
C540 C541 1.363 . S
C540 C546 1.379 . S
C540 N548 1.356 . S
C541 C540 1.363 . S
C541 C547 1.363 . S
C542 C543 1.363 . S
C542 C547 1.379 . S
C542 N549 1.356 . S
C543 C542 1.363 . S
C543 C546 1.363 . S
N544 C546 1.356 . S
N544 H556 0.984 . S
N544 H557 0.985 . S
N545 C547 1.356 . S
N545 H550 0.984 . S
N545 H551 0.985 . S
C546 C540 1.379 . S
C546 C543 1.363 . S
C546 N544 1.356 . S
C547 C541 1.363 . S
C547 C542 1.379 . S
C547 N545 1.356 . S
N548 C540 1.356 . S
N548 H554 0.984 . S
N548 H555 0.984 . S
N549 C542 1.356 . S
N549 H552 0.984 . S
N549 H553 0.985 . S
H550 N545 0.984 . S
H551 N545 0.985 . S
H552 N549 0.984 . S
H553 N549 0.985 . S
H554 N548 0.984 . S
H555 N548 0.984 . S
H556 N544 0.984 . S
H557 N544 0.985 . S
C558 C559 1.363 . S
C558 C564 1.379 . S
C558 N566 1.356 . S
C559 C558 1.363 . S
C559 C565 1.363 1_565 S
C560 C561 1.363 1_545 S
C560 C565 1.379 . S
C560 N567 1.356 . S
C561 C560 1.363 1_565 S
C561 C564 1.363 . S
N562 C564 1.356 . S
N562 H574 0.984 . S
N562 H575 0.985 . S
N563 C565 1.356 . S
N563 H568 0.984 . S
N563 H569 0.985 . S
C564 C558 1.379 . S
C564 C561 1.363 . S
C564 N562 1.356 . S
C565 C559 1.363 1_545 S
C565 C560 1.379 . S
C565 N563 1.356 . S
N566 C558 1.356 . S
N566 H572 0.984 . S
N566 H573 0.984 . S
N567 C560 1.356 . S
N567 H570 0.984 . S
N567 H571 0.985 . S
H568 N563 0.984 . S
H569 N563 0.985 . S
H570 N567 0.984 . S
H571 N567 0.985 . S
H572 N566 0.984 . S
H573 N566 0.984 . S
H574 N562 0.984 . S
H575 N562 0.985 . S
C576 C577 1.363 1_565 S
C576 C582 1.379 . S
C576 N584 1.356 . S
C577 C576 1.363 1_545 S
C577 C583 1.363 . S
C578 C579 1.363 . S
C578 C583 1.379 . S
C578 N585 1.356 . S
C579 C578 1.363 . S
C579 C582 1.363 1_545 S
N580 C582 1.356 . S
N580 H592 0.984 . S
N580 H593 0.985 . S
N581 C583 1.356 . S
N581 H586 0.984 . S
N581 H587 0.985 . S
C582 C576 1.379 . S
C582 C579 1.363 1_565 S
C582 N580 1.356 . S
C583 C577 1.363 . S
C583 C578 1.379 . S
C583 N581 1.356 . S
N584 C576 1.356 . S
N584 H590 0.984 . S
N584 H591 0.984 . S
N585 C578 1.356 . S
N585 H588 0.984 . S
N585 H589 0.985 . S
H586 N581 0.984 . S
H587 N581 0.985 . S
H588 N585 0.984 . S
H589 N585 0.985 . S
H590 N584 0.984 . S
H591 N584 0.984 . S
H592 N580 0.984 . S
H593 N580 0.985 . S
C594 C595 1.363 . S
C594 C600 1.379 . S
C594 N602 1.356 1_655 S
C595 C594 1.363 . S
C595 C601 1.363 . S
C596 C597 1.363 . S
C596 C601 1.379 . S
C596 N603 1.356 . S
C597 C596 1.363 . S
C597 C600 1.363 . S
N598 C600 1.356 1_455 S
N598 H610 0.984 . S
N598 H611 0.985 1_455 S
N599 C601 1.356 . S
N599 H604 0.984 . S
N599 H605 0.985 . S
C600 C594 1.379 . S
C600 C597 1.363 . S
C600 N598 1.356 1_655 S
C601 C595 1.363 . S
C601 C596 1.379 . S
C601 N599 1.356 . S
N602 C594 1.356 1_455 S
N602 H608 0.984 . S
N602 H609 0.984 . S
N603 C596 1.356 . S
N603 H606 0.984 . S
N603 H607 0.985 . S
H604 N599 0.984 . S
H605 N599 0.985 . S
H606 N603 0.984 . S
H607 N603 0.985 . S
H608 N602 0.984 . S
H609 N602 0.984 . S
H610 N598 0.984 . S
H611 N598 0.985 1_655 S
C612 C613 1.363 . S
C612 C618 1.379 . S
C612 N620 1.356 . S
C613 C612 1.363 . S
C613 C619 1.363 . S
C614 C615 1.363 . S
C614 C619 1.379 . S
C614 N621 1.356 . S
C615 C614 1.363 . S
C615 C618 1.363 . S
N616 C618 1.356 . S
N616 H628 0.984 . S
N616 H629 0.985 . S
N617 C619 1.356 . S
N617 H622 0.984 . S
N617 H623 0.985 . S
C618 C612 1.379 . S
C618 C615 1.363 . S
C618 N616 1.356 . S
C619 C613 1.363 . S
C619 C614 1.379 . S
C619 N617 1.356 . S
N620 C612 1.356 . S
N620 H626 0.984 . S
N620 H627 0.984 . S
N621 C614 1.356 . S
N621 H624 0.984 . S
N621 H625 0.985 . S
H622 N617 0.984 . S
H623 N617 0.985 . S
H624 N621 0.984 . S
H625 N621 0.985 . S
H626 N620 0.984 . S
H627 N620 0.984 . S
H628 N616 0.984 . S
H629 N616 0.985 . S
C630 C631 1.363 . S
C630 C636 1.379 . S
C630 N638 1.356 . S
C631 C630 1.363 . S
C631 C637 1.363 . S
C632 C633 1.363 . S
C632 C637 1.379 . S
C632 N639 1.356 . S
C633 C632 1.363 . S
C633 C636 1.363 . S
N634 C636 1.356 . S
N634 H646 0.984 . S
N634 H647 0.985 . S
N635 C637 1.356 . S
N635 H640 0.984 . S
N635 H641 0.985 . S
C636 C630 1.379 . S
C636 C633 1.363 . S
C636 N634 1.356 . S
C637 C631 1.363 . S
C637 C632 1.379 . S
C637 N635 1.356 . S
N638 C630 1.356 . S
N638 H644 0.984 . S
N638 H645 0.984 . S
N639 C632 1.356 . S
N639 H642 0.984 . S
N639 H643 0.985 . S
H640 N635 0.984 . S
H641 N635 0.985 . S
H642 N639 0.984 . S
H643 N639 0.985 . S
H644 N638 0.984 . S
H645 N638 0.984 . S
H646 N634 0.984 . S
H647 N634 0.985 . S
C648 C649 1.364 . S
C648 C654 1.379 . S
C648 N656 1.356 . S
C649 C648 1.364 . S
C649 C655 1.362 1_545 S
C650 C651 1.363 1_565 S
C650 C655 1.379 . S
C650 N657 1.356 . S
C651 C650 1.363 1_545 S
C651 C654 1.363 . S
N652 C654 1.356 . S
N652 H664 0.984 . S
N652 H665 0.985 . S
N653 C655 1.356 . S
N653 H658 0.984 . S
N653 H659 0.985 . S
C654 C648 1.379 . S
C654 C651 1.363 . S
C654 N652 1.356 . S
C655 C649 1.362 1_565 S
C655 C650 1.379 . S
C655 N653 1.356 . S
N656 C648 1.356 . S
N656 H662 0.984 . S
N656 H663 0.984 . S
N657 C650 1.356 . S
N657 H660 0.984 . S
N657 H661 0.985 . S
H658 N653 0.984 . S
H659 N653 0.985 . S
H660 N657 0.984 . S
H661 N657 0.985 . S
H662 N656 0.984 . S
H663 N656 0.984 . S
H664 N652 0.984 . S
H665 N652 0.985 . S
C666 C667 1.363 . S
C666 C672 1.379 1_655 S
C666 N674 1.356 . S
C667 C666 1.363 . S
C667 C673 1.363 1_655 S
C668 C669 1.363 . S
C668 C673 1.379 . S
C668 N675 1.356 . S
C669 C668 1.363 . S
C669 C672 1.363 . S
N670 C672 1.356 . S
N670 H682 0.984 1_455 S
N670 H683 0.985 . S
N671 C673 1.356 . S
N671 H676 0.984 . S
N671 H677 0.985 . S
C672 C666 1.379 1_455 S
C672 C669 1.363 . S
C672 N670 1.356 . S
C673 C667 1.363 1_455 S
C673 C668 1.379 . S
C673 N671 1.356 . S
N674 C666 1.356 . S
N674 H680 0.984 . S
N674 H681 0.984 . S
N675 C668 1.356 . S
N675 H678 0.984 . S
N675 H679 0.985 . S
H676 N671 0.984 . S
H677 N671 0.985 . S
H678 N675 0.984 . S
H679 N675 0.985 . S
H680 N674 0.984 . S
H681 N674 0.984 . S
H682 N670 0.984 1_655 S
H683 N670 0.985 . S
C199 C37 1.499 . S
C201 C18 1.595 . S
C217 C52 1.497 . S
C219 C29 1.611 . S
C235 C62 1.545 . S
C237 C8 1.466 . S
C253 C59 1.599 . S
C255 C32 1.484 . S
C271 C65 1.494 . S
C273 C15 1.620 . S
C289 C21 1.477 . S
C291 C30 1.573 . S
C307 C81 1.614 . S
C309 C109 1.484 . S
C325 C125 1.480 . S
C327 C103 1.607 . S
C343 C117 1.620 . S
C345 C87 1.491 . S
C361 C96 1.482 . S
C363 C118 1.562 . S
C379 C120 1.476 . S
C381 C84 1.556 . S
C397 C106 1.569 . S
C399 C74 1.488 . S
C415 C175 1.483 . S
C417 C150 1.577 . S
C433 C169 1.603 . S
C435 C184 1.490 . S
C451 C194 1.556 . S
C453 C140 1.474 . S
C469 C191 1.581 . S
C471 C162 1.467 . S
C487 C197 1.502 . S
C489 C147 1.630 . S
C505 C153 1.470 . S
C507 C172 1.565 . S
C523 C128 1.361 . S
C525 C10 1.361 . S
C541 C76 1.412 . S
C543 C43 1.401 . S
C559 C54 1.370 . S
C561 C98 1.370 . S
C577 C51 1.369 . S
C579 C142 1.379 . S
C595 C7 1.415 . S
C597 C161 1.416 . S
C613 C186 1.334 . S
C615 C40 1.333 . S
C631 C73 1.387 . S
C633 C183 1.388 . S
C649 C95 1.377 1_545 S
C651 C139 1.379 . S
C667 C164 1.347 . S
C669 C131 1.337 . S
