# Generated by pormake.
# Topology wiv, (6)-cn, num edge types: 1
# Building blocks:
#     Node 0, Type 0, BuildingBlock: CUKXOW_clean_sbu_0, # of connection points: 6
#     Node 1, Type 0, BuildingBlock: CUKXOW_clean_sbu_0, # of connection points: 6
#     Node 2, Type 0, BuildingBlock: CUKXOW_clean_sbu_0, # of connection points: 6
#     Node 3, Type 0, BuildingBlock: CUKXOW_clean_sbu_0, # of connection points: 6
#     Node 4, Type 0, BuildingBlock: CUKXOW_clean_sbu_0, # of connection points: 6
#     Node 5, Type 0, BuildingBlock: CUKXOW_clean_sbu_0, # of connection points: 6
#     Node 6, Type 0, BuildingBlock: CUKXOW_clean_sbu_0, # of connection points: 6
#     Node 7, Type 0, BuildingBlock: CUKXOW_clean_sbu_0, # of connection points: 6
#     Node 8, Type 0, BuildingBlock: CUKXOW_clean_sbu_0, # of connection points: 6
#     Node 9, Type 0, BuildingBlock: CUKXOW_clean_sbu_0, # of connection points: 6
#     Node 10, Type 0, BuildingBlock: CUKXOW_clean_sbu_0, # of connection points: 6
#     Node 11, Type 0, BuildingBlock: CUKXOW_clean_sbu_0, # of connection points: 6
#     Node 12, Type 0, BuildingBlock: CUKXOW_clean_sbu_0, # of connection points: 6
#     Node 13, Type 0, BuildingBlock: CUKXOW_clean_sbu_0, # of connection points: 6
#     Node 14, Type 0, BuildingBlock: CUKXOW_clean_sbu_0, # of connection points: 6
#     Node 15, Type 0, BuildingBlock: CUKXOW_clean_sbu_0, # of connection points: 6
#     Edge 16, Type (0, 0), BuildingBlock: XIVTED_clean_linker_0, # of connection points: 2
#     Edge 17, Type (0, 0), BuildingBlock: XIVTED_clean_linker_0, # of connection points: 2
#     Edge 18, Type (0, 0), BuildingBlock: XIVTED_clean_linker_0, # of connection points: 2
#     Edge 19, Type (0, 0), BuildingBlock: XIVTED_clean_linker_0, # of connection points: 2
#     Edge 20, Type (0, 0), BuildingBlock: XIVTED_clean_linker_0, # of connection points: 2
#     Edge 21, Type (0, 0), BuildingBlock: XIVTED_clean_linker_0, # of connection points: 2
#     Edge 22, Type (0, 0), BuildingBlock: XIVTED_clean_linker_0, # of connection points: 2
#     Edge 23, Type (0, 0), BuildingBlock: XIVTED_clean_linker_0, # of connection points: 2
#     Edge 24, Type (0, 0), BuildingBlock: XIVTED_clean_linker_0, # of connection points: 2
#     Edge 25, Type (0, 0), BuildingBlock: XIVTED_clean_linker_0, # of connection points: 2
#     Edge 26, Type (0, 0), BuildingBlock: XIVTED_clean_linker_0, # of connection points: 2
#     Edge 27, Type (0, 0), BuildingBlock: XIVTED_clean_linker_0, # of connection points: 2
#     Edge 28, Type (0, 0), BuildingBlock: XIVTED_clean_linker_0, # of connection points: 2
#     Edge 29, Type (0, 0), BuildingBlock: XIVTED_clean_linker_0, # of connection points: 2
#     Edge 30, Type (0, 0), BuildingBlock: XIVTED_clean_linker_0, # of connection points: 2
#     Edge 31, Type (0, 0), BuildingBlock: XIVTED_clean_linker_0, # of connection points: 2
#     Edge 32, Type (0, 0), BuildingBlock: XIVTED_clean_linker_0, # of connection points: 2
#     Edge 33, Type (0, 0), BuildingBlock: XIVTED_clean_linker_0, # of connection points: 2
#     Edge 34, Type (0, 0), BuildingBlock: XIVTED_clean_linker_0, # of connection points: 2
#     Edge 35, Type (0, 0), BuildingBlock: XIVTED_clean_linker_0, # of connection points: 2
#     Edge 36, Type (0, 0), BuildingBlock: XIVTED_clean_linker_0, # of connection points: 2
#     Edge 37, Type (0, 0), BuildingBlock: XIVTED_clean_linker_0, # of connection points: 2
#     Edge 38, Type (0, 0), BuildingBlock: XIVTED_clean_linker_0, # of connection points: 2
#     Edge 39, Type (0, 0), BuildingBlock: XIVTED_clean_linker_0, # of connection points: 2
#     Edge 40, Type (0, 0), BuildingBlock: XIVTED_clean_linker_0, # of connection points: 2
#     Edge 41, Type (0, 0), BuildingBlock: XIVTED_clean_linker_0, # of connection points: 2
#     Edge 42, Type (0, 0), BuildingBlock: XIVTED_clean_linker_0, # of connection points: 2
#     Edge 43, Type (0, 0), BuildingBlock: XIVTED_clean_linker_0, # of connection points: 2
#     Edge 44, Type (0, 0), BuildingBlock: XIVTED_clean_linker_0, # of connection points: 2
#     Edge 45, Type (0, 0), BuildingBlock: XIVTED_clean_linker_0, # of connection points: 2
#     Edge 46, Type (0, 0), BuildingBlock: XIVTED_clean_linker_0, # of connection points: 2
#     Edge 47, Type (0, 0), BuildingBlock: XIVTED_clean_linker_0, # of connection points: 2
#     Edge 48, Type (0, 0), BuildingBlock: XIVTED_clean_linker_0, # of connection points: 2
#     Edge 49, Type (0, 0), BuildingBlock: XIVTED_clean_linker_0, # of connection points: 2
#     Edge 50, Type (0, 0), BuildingBlock: XIVTED_clean_linker_0, # of connection points: 2
#     Edge 51, Type (0, 0), BuildingBlock: XIVTED_clean_linker_0, # of connection points: 2
#     Edge 52, Type (0, 0), BuildingBlock: XIVTED_clean_linker_0, # of connection points: 2
#     Edge 53, Type (0, 0), BuildingBlock: XIVTED_clean_linker_0, # of connection points: 2
#     Edge 54, Type (0, 0), BuildingBlock: XIVTED_clean_linker_0, # of connection points: 2
#     Edge 55, Type (0, 0), BuildingBlock: XIVTED_clean_linker_0, # of connection points: 2
#     Edge 56, Type (0, 0), BuildingBlock: XIVTED_clean_linker_0, # of connection points: 2
#     Edge 57, Type (0, 0), BuildingBlock: XIVTED_clean_linker_0, # of connection points: 2
#     Edge 58, Type (0, 0), BuildingBlock: XIVTED_clean_linker_0, # of connection points: 2
#     Edge 59, Type (0, 0), BuildingBlock: XIVTED_clean_linker_0, # of connection points: 2
#     Edge 60, Type (0, 0), BuildingBlock: XIVTED_clean_linker_0, # of connection points: 2
#     Edge 61, Type (0, 0), BuildingBlock: XIVTED_clean_linker_0, # of connection points: 2
#     Edge 62, Type (0, 0), BuildingBlock: XIVTED_clean_linker_0, # of connection points: 2
#     Edge 63, Type (0, 0), BuildingBlock: XIVTED_clean_linker_0, # of connection points: 2
# Relax obj value: 0.074
# Max RMSD: 0.158
# Mean RMSD: 0.158
data_MOF--net-wiv--node1-CUKXOW_clean_sbu_0--edge1-XIVTED_clean_linker_0
_symmetry_space_group_name_H-M    P1
_symmetry_Int_Tables_number       1
_symmetry_cell_setting            triclinic
loop_
_symmetry_equiv_pos_as_xyz
'x, y, z'
_cell_length_a     65.373851
_cell_length_b     65.394274
_cell_length_c     14.456602
_cell_angle_alpha  89.929479
_cell_angle_beta   89.850332
_cell_angle_gamma 89.91203
loop_
_atom_site_label
_atom_site_type_symbol
_atom_site_fract_x
_atom_site_fract_y
_atom_site_fract_z
_atom_type_partial_charge
Tb0 Tb 0.39591 0.12375 0.17918 0.0
C1 C 0.37315 0.1659 0.15221 0.0
Tb2 Tb 0.34734 0.1249 0.13695 0.0
O3 O 0.40581 0.12413 1.03202 0.0
O4 O 0.37565 0.12482 0.06757 0.0
O5 O 0.38897 0.15619 0.19017 0.0
C6 C 0.31137 0.12566 0.05148 0.0
O7 O 0.35707 0.15645 0.11531 0.0
C8 C 0.35587 0.12404 0.31707 0.0
C9 C 0.36943 0.08285 0.17426 0.0
O10 O 0.31732 0.13864 0.11374 0.0
O11 O 0.32573 0.11227 1.03688 0.0
O12 O 0.33739 0.12439 0.28393 0.0
O13 O 0.36763 0.12397 0.24839 0.0
O14 O 0.35366 0.09224 0.13453 0.0
O15 O 0.38567 0.09261 0.20778 0.0
C16 C 0.43259 0.12113 0.25793 0.0
O17 O 0.42418 0.1072 0.20679 0.0
O18 O 0.42023 0.13666 0.2657 0.0
C19 C 0.38737 0.12469 0.99881 0.0
Tb20 Tb 0.12426 0.63782 0.93433 0.0
C21 C 0.083 0.61472 0.90148 0.0
Tb22 Tb 0.12512 0.59076 0.89411 0.0
O23 O 0.12587 0.64874 0.78925 0.0
O24 O 0.12614 0.61825 0.82049 0.0
O25 O 0.09202 0.63018 0.94449 0.0
C26 C 0.12115 0.55273 0.83102 0.0
O27 O 0.09336 0.59906 0.86585 0.0
C28 C 0.12965 0.60159 0.06894 0.0
C29 C 0.16654 0.6147 0.90733 0.0
O30 O 0.111 0.56055 0.8997 0.0
O31 O 0.13352 0.56637 0.79727 0.0
O32 O 0.13694 0.58489 1.03328 0.0
O33 O 0.11867 0.61028 1.00897 0.0
O34 O 0.15708 0.59845 0.873 0.0
O35 O 0.15676 0.63062 0.94369 0.0
C36 C 0.12405 0.67356 1.02172 0.0
O37 O 0.1362 0.65837 0.04059 0.0
O38 O 0.11203 0.66857 0.95411 0.0
C39 C 0.12652 0.63052 0.75361 0.0
Tb40 Tb 0.59114 0.85969 0.19417 0.0
C41 C 0.61492 0.81815 0.17873 0.0
Tb42 Tb 0.6382 0.86033 0.1536 0.0
O43 O 0.58524 0.84793 0.05516 0.0
O44 O 0.61072 0.8661 0.07898 0.0
O45 O 0.59873 0.82766 0.21403 0.0
C46 C 0.67412 0.86085 0.06701 0.0
O47 O 0.63089 0.8279 0.14257 0.0
C48 C 0.63086 0.85793 0.33431 0.0
C49 C 0.61508 0.90169 0.18688 0.0
O50 O 0.65912 0.84855 0.04776 0.0
O51 O 0.66884 0.87281 0.13454 0.0
O52 O 0.64908 0.85845 0.29842 0.0
O53 O 0.61859 0.8585 0.26769 0.0
O54 O 0.63057 0.8926 0.14386 0.0
O55 O 0.59939 0.89142 0.22252 0.0
C56 C 0.55302 0.8638 0.25703 0.0
O57 O 0.56093 0.87387 0.18834 0.0
O58 O 0.56663 0.85143 0.29107 0.0
C59 C 0.60194 0.85516 1.01924 0.0
Tb60 Tb 0.86112 0.34831 0.93288 0.0
C61 C 0.90287 0.37076 0.89775 0.0
Tb62 Tb 0.86128 0.39558 0.89374 0.0
O63 O 0.85897 0.33778 0.7875 0.0
O64 O 0.8595 0.36818 0.82012 0.0
O65 O 0.89363 0.35531 0.94048 0.0
C66 C 0.86594 0.43358 0.83097 0.0
O67 O 0.89274 0.38667 0.86324 0.0
C68 C 0.8568 0.38446 0.06826 0.0
C69 C 0.81931 0.37268 0.90843 0.0
O70 O 0.87614 0.42543 0.89856 0.0
O71 O 0.85312 0.4203 0.79821 0.0
O72 O 0.84991 0.40146 1.0339 0.0
O73 O 0.86743 0.37564 1.00732 0.0
O74 O 0.82917 0.38872 0.87397 0.0
O75 O 0.82872 0.35638 0.94375 0.0
C76 C 0.86089 0.31234 1.01912 0.0
O77 O 0.84902 0.32769 1.03921 0.0
O78 O 0.87285 0.31731 0.95094 0.0
C79 C 0.85871 0.35612 0.75279 0.0
Tb80 Tb 0.39759 0.36099 0.13832 0.0
C81 C 0.37431 0.31912 0.1647 0.0
Tb82 Tb 0.34908 0.36062 0.18328 0.0
O83 O 0.40785 0.36077 0.28456 0.0
O84 O 0.37755 0.36016 0.25151 0.0
O85 O 0.3903 0.3287 0.12743 0.0
C86 C 0.31289 0.36034 0.26784 0.0
O87 O 0.35812 0.32866 0.20102 0.0
C88 C 0.35743 0.36136 1.00248 0.0
C89 C 0.37146 0.40228 0.14191 0.0
O90 O 0.31753 0.35002 0.1941 0.0
O91 O 0.32869 0.37079 0.29475 0.0
O92 O 0.33902 0.3614 1.03675 0.0
O93 O 0.36927 0.36121 0.07067 0.0
O94 O 0.35556 0.39328 0.1827 0.0
O95 O 0.38757 0.39214 0.10889 0.0
C96 C 0.43382 0.36335 0.05488 0.0
O97 O 0.42559 0.37749 0.10571 0.0
O98 O 0.4216 0.34769 0.05057 0.0
C99 C 0.38951 0.36031 0.31939 0.0
Tb100 Tb 0.36219 0.63687 0.89407 0.0
C101 C 0.40314 0.61346 0.93324 0.0
Tb102 Tb 0.36103 0.58984 0.9354 0.0
O103 O 0.36006 0.64786 1.03888 0.0
O104 O 0.35975 0.6174 1.00817 0.0
O105 O 0.3945 0.62886 0.88766 0.0
C106 C 0.3648 0.55184 0.99935 0.0
O107 O 0.39245 0.59805 0.96853 0.0
C108 C 0.35712 0.60054 0.75991 0.0
C109 C 0.31975 0.61383 0.91809 0.0
O110 O 0.37541 0.55971 0.93221 0.0
O111 O 0.35205 0.5654 1.03101 0.0
O112 O 0.34973 0.5839 0.7956 0.0
O113 O 0.36796 0.60926 0.82027 0.0
O114 O 0.3291 0.59768 0.95438 0.0
O115 O 0.32966 0.62971 0.88193 0.0
C116 C 0.36316 0.67284 0.80764 0.0
O117 O 0.35075 0.65795 0.78808 0.0
O118 O 0.37501 0.6674 0.87523 0.0
C119 C 0.35924 0.62966 0.07485 0.0
Tb120 Tb 0.59014 0.62332 0.14879 0.0
C121 C 0.61353 0.66497 0.164 0.0
Tb122 Tb 0.63735 0.62288 0.18702 0.0
O123 O 0.58432 0.63466 0.28875 0.0
O124 O 0.60998 0.61677 0.26226 0.0
O125 O 0.59733 0.65542 0.12961 0.0
C126 C 0.6733 0.62286 0.27244 0.0
O127 O 0.62967 0.65527 0.19886 0.0
C128 C 0.62961 0.62562 1.00706 0.0
C129 C 0.61462 0.58148 0.15222 0.0
O130 O 0.65803 0.6348 0.2928 0.0
O131 O 0.66827 0.61095 0.20449 0.0
O132 O 0.64793 0.62507 0.04149 0.0
O133 O 0.61753 0.62488 0.07456 0.0
O134 O 0.63009 0.5905 0.19523 0.0
O135 O 0.59883 0.59182 0.11788 0.0
C136 C 0.55212 0.61862 0.08686 0.0
O137 O 0.56019 0.60867 0.15543 0.0
O138 O 0.56548 0.63125 0.05278 0.0
C139 C 0.6012 0.62749 0.32305 0.0
Tb140 Tb 0.62465 0.34884 0.88441 0.0
C141 C 0.58217 0.37135 0.90254 0.0
Tb142 Tb 0.62347 0.39597 0.92306 0.0
O143 O 0.63698 0.343 1.0226 0.0
O144 O 0.61868 0.3685 0.99922 0.0
O145 O 0.59217 0.35556 0.86637 0.0
C146 C 0.61988 0.43268 1.00061 0.0
O147 O 0.5916 0.38725 0.94028 0.0
C148 C 0.62537 0.38843 0.74247 0.0
C149 C 0.66594 0.37318 0.90108 0.0
O150 O 0.60756 0.42495 0.93996 0.0
O151 O 0.63445 0.41968 1.01839 0.0
O152 O 0.6248 0.40665 0.77767 0.0
O153 O 0.62503 0.37625 0.80963 0.0
O154 O 0.65604 0.38915 0.93665 0.0
O155 O 0.65655 0.35699 0.86571 0.0
C156 C 0.62286 0.31146 0.81251 0.0
O157 O 0.61358 0.31723 0.88763 0.0
O158 O 0.63301 0.32671 0.77812 0.0
C159 C 0.62992 0.35982 0.05825 0.0
Tb160 Tb 0.89713 0.62395 0.68326 0.0
C161 C 0.87444 0.66597 0.65482 0.0
Tb162 Tb 0.8486 0.62483 0.64119 0.0
O163 O 0.90701 0.62418 0.53605 0.0
O164 O 0.87686 0.62445 0.57165 0.0
O165 O 0.89029 0.65639 0.6932 0.0
C166 C 0.81274 0.62531 0.55513 0.0
O167 O 0.85836 0.65639 0.61848 0.0
C168 C 0.85709 0.62455 0.82124 0.0
C169 C 0.87067 0.58304 0.68357 0.0
O170 O 0.81858 0.63844 0.61694 0.0
O171 O 0.82714 0.61193 0.54132 0.0
O172 O 0.8386 0.62465 0.78808 0.0
O173 O 0.86887 0.62445 0.75262 0.0
O174 O 0.85494 0.59213 0.64214 0.0
O175 O 0.88681 0.59309 0.71607 0.0
C176 C 0.93377 0.62033 0.76077 0.0
O177 O 0.92497 0.60668 0.7095 0.0
O178 O 0.92187 0.63621 0.7691 0.0
C179 C 0.88857 0.62445 0.50287 0.0
Tb180 Tb 0.6239 0.13628 0.44337 0.0
C181 C 0.58199 0.1144 0.40259 0.0
Tb182 Tb 0.62303 0.08785 0.39946 0.0
O183 O 0.624 0.14638 0.29636 0.0
O184 O 0.62338 0.11617 0.33121 0.0
O185 O 0.59116 0.13016 0.44319 0.0
C186 C 0.61976 0.0513 0.32052 0.0
O187 O 0.59197 0.09817 0.36975 0.0
C188 C 0.62391 0.09618 0.58041 0.0
C189 C 0.66483 0.11064 0.42522 0.0
O190 O 0.60544 0.0606 0.36642 0.0
O191 O 0.63607 0.06267 0.31826 0.0
O192 O 0.62373 0.07779 0.5466 0.0
O193 O 0.62365 0.10792 0.5119 0.0
O194 O 0.6552 0.09553 0.38185 0.0
O195 O 0.65525 0.12597 0.46795 0.0
C196 C 0.62477 0.17204 0.53005 0.0
O197 O 0.63776 0.16609 0.46748 0.0
O198 O 0.61124 0.15781 0.5442 0.0
C199 C 0.62372 0.12793 0.26273 0.0
Tb200 Tb 0.08984 0.3616 0.69192 0.0
C201 C 0.11341 0.3199 0.66366 0.0
Tb202 Tb 0.13854 0.36154 0.64919 0.0
O203 O 0.08005 0.36141 0.54503 0.0
O204 O 0.11022 0.3612 0.58021 0.0
O205 O 0.09725 0.32924 0.70099 0.0
C206 C 0.17493 0.36133 0.56644 0.0
O207 O 0.12962 0.32967 0.62895 0.0
C208 C 0.1297 0.36186 0.82924 0.0
C209 C 0.11577 0.40299 0.69127 0.0
O210 O 0.17011 0.35085 0.63956 0.0
O211 O 0.15921 0.37193 0.53917 0.0
O212 O 0.14822 0.36209 0.79621 0.0
O213 O 0.11805 0.36171 0.76049 0.0
O214 O 0.13179 0.39417 0.65046 0.0
O215 O 0.09969 0.39269 0.72345 0.0
C216 C 0.05301 0.36428 0.76958 0.0
O217 O 0.06152 0.37813 0.71807 0.0
O218 O 0.06534 0.34875 0.77834 0.0
C219 C 0.09851 0.3612 0.51161 0.0
Tb220 Tb 0.36099 0.84824 0.43483 0.0
C221 C 0.40284 0.87012 0.39124 0.0
Tb222 Tb 0.36194 0.89662 0.3904 0.0
O223 O 0.36129 0.83796 0.28858 0.0
O224 O 0.36128 0.86829 0.3219 0.0
O225 O 0.39375 0.8545 0.43373 0.0
C226 C 0.36495 0.93318 0.31083 0.0
O227 O 0.39276 0.88617 0.35761 0.0
C228 C 0.36166 0.88848 0.57154 0.0
C229 C 0.31988 0.87428 0.42085 0.0
O230 O 0.37901 0.92437 0.35998 0.0
O231 O 0.34904 0.9213 0.30558 0.0
O232 O 0.36196 0.90681 0.53689 0.0
O233 O 0.3615 0.87657 0.50358 0.0
O234 O 0.32951 0.88993 0.38126 0.0
O235 O 0.32941 0.85817 0.45769 0.0
C236 C 0.36006 0.81224 0.52078 0.0
O237 O 0.34691 0.81847 0.45971 0.0
O238 O 0.37371 0.82636 0.53411 0.0
C239 C 0.3613 0.85634 0.25403 0.0
Tb240 Tb 0.89652 0.86173 0.63698 0.0
C241 C 0.87456 0.81924 0.66454 0.0
Tb242 Tb 0.84801 0.85989 0.68008 0.0
O243 O 0.90642 0.86153 0.78388 0.0
O244 O 0.87628 0.86035 0.749 0.0
O245 O 0.89021 0.82919 0.62636 0.0
C246 C 0.81215 0.85871 0.76691 0.0
O247 O 0.85826 0.82845 0.7014 0.0
C248 C 0.8565 0.86088 0.49984 0.0
C249 C 0.86943 0.90228 0.64262 0.0
O250 O 0.81826 0.84574 0.70469 0.0
O251 O 0.82628 0.87232 0.78065 0.0
O252 O 0.83803 0.86025 0.53342 0.0
O253 O 0.86827 0.86112 0.56818 0.0
O254 O 0.85376 0.89266 0.68214 0.0
O255 O 0.88586 0.89276 0.60891 0.0
C256 C 0.93316 0.86469 0.55774 0.0
O257 O 0.92453 0.87858 0.60867 0.0
O258 O 0.92103 0.84902 0.55039 0.0
C259 C 0.88799 0.86068 0.81749 0.0
Tb260 Tb 0.85873 0.13743 0.39626 0.0
C261 C 0.90047 0.11524 0.44063 0.0
Tb262 Tb 0.85935 0.08914 0.44239 0.0
O263 O 0.85865 0.14786 0.54261 0.0
O264 O 0.85883 0.11755 0.50985 0.0
O265 O 0.89145 0.13089 0.39798 0.0
C266 C 0.86151 0.05256 0.52275 0.0
O267 O 0.89034 0.09919 0.47405 0.0
C268 C 0.8591 0.09706 0.26062 0.0
C269 C 0.81772 0.11222 0.41569 0.0
O270 O 0.87661 0.0621 0.48351 0.0
O271 O 0.84508 0.06374 0.51777 0.0
O272 O 0.85926 0.07878 0.29579 0.0
O273 O 0.85907 0.10898 0.32844 0.0
O274 O 0.82734 0.0973 0.46062 0.0
O275 O 0.82732 0.12733 0.37154 0.0
C276 C 0.85839 0.17319 0.30839 0.0
O277 O 0.84505 0.16734 0.36961 0.0
O278 O 0.8719 0.15883 0.29612 0.0
C279 C 0.85869 0.12952 0.57759 0.0
Tb280 Tb 0.08839 0.12473 0.64626 0.0
C281 C 0.11169 0.16659 0.65885 0.0
Tb282 Tb 0.13569 0.12471 0.6842 0.0
O283 O 0.0826 0.13627 0.78599 0.0
O284 O 0.10837 0.11857 0.75969 0.0
O285 O 0.09552 0.15683 0.6253 0.0
C286 C 0.17177 0.12466 0.76887 0.0
O287 O 0.12787 0.15709 0.69441 0.0
C288 C 0.12783 0.12702 0.50426 0.0
C289 C 0.11316 0.08305 0.65159 0.0
O290 O 0.15653 0.13662 0.78956 0.0
O291 O 0.16664 0.11277 0.701 0.0
O292 O 0.14618 0.12673 0.53854 0.0
O293 O 0.11578 0.12627 0.57186 0.0
O294 O 0.12857 0.09233 0.69385 0.0
O295 O 0.09722 0.09313 0.61703 0.0
C296 C 0.05021 0.1201 0.58542 0.0
O297 O 0.05841 0.11009 0.65348 0.0
O298 O 0.06357 0.1327 0.55098 0.0
C299 C 0.09955 0.1293 0.8203 0.0
Tb300 Tb 0.12544 0.84826 0.39685 0.0
C301 C 0.08341 0.87038 0.43399 0.0
Tb302 Tb 0.12437 0.89678 0.43905 0.0
O303 O 0.12487 0.83827 0.54365 0.0
O304 O 0.12449 0.86853 0.5084 0.0
O305 O 0.09276 0.85458 0.39433 0.0
C306 C 0.1204 0.93348 0.51619 0.0
O307 O 0.09325 0.88653 0.46778 0.0
C308 C 0.12549 0.88822 0.25869 0.0
C309 C 0.16652 0.87401 0.4135 0.0
O310 O 0.10685 0.92449 0.46512 0.0
O311 O 0.13638 0.92172 0.52471 0.0
O312 O 0.12507 0.90665 0.29196 0.0
O313 O 0.1254 0.87651 0.32739 0.0
O314 O 0.1568 0.88985 0.45146 0.0
O315 O 0.15706 0.85799 0.37607 0.0
C316 C 0.12602 0.81243 0.31032 0.0
O317 O 0.13911 0.81826 0.3723 0.0
O318 O 0.11263 0.82683 0.29663 0.0
C319 C 0.12455 0.85675 0.57693 0.0
H320 H 0.39799 0.95808 0.31613 0.0
H321 H 0.3379 0.05667 0.13177 0.0
H322 H 0.33505 0.95622 0.228 0.0
H323 H 0.39951 0.05756 0.23916 0.0
H324 H 0.33717 0.01955 0.15339 0.0
H325 H 0.39955 -0.00591 0.27332 0.0
C326 C 0.38453 0.96526 0.28693 0.0
C327 C 0.36633 0.95427 0.27601 0.0
C328 C 0.35085 0.02791 0.17186 0.0
C329 C 0.36789 -0.00442 0.22762 0.0
C330 C 0.3513 0.0491 0.15959 0.0
C331 C 0.36875 0.06033 0.18427 0.0
C332 C 0.36799 0.01787 0.20879 0.0
C333 C 0.38565 0.04965 0.21973 0.0
C334 C 0.3854 0.98585 0.26269 0.0
C335 C 0.34935 0.96425 0.23761 0.0
N336 N 0.38481 0.02907 0.23107 0.0
N337 N 0.35049 0.98444 0.21532 0.0
H338 H 0.95874 0.58735 0.74796 0.0
H339 H 0.05632 0.64511 0.95286 0.0
H340 H 0.95654 0.64914 0.85166 0.0
H341 H 0.05828 0.58508 0.82863 0.0
H342 H 0.01931 0.64584 0.93032 0.0
H343 H -0.00538 0.58516 0.79236 0.0
C344 C 0.96582 0.60042 0.78085 0.0
C345 C 0.95479 0.6185 0.79571 0.0
C346 C 0.02785 0.63249 0.90841 0.0
C347 C -0.0041 0.61619 0.84609 0.0
C348 C 0.04899 0.63203 0.92126 0.0
C349 C 0.06049 0.61505 0.89205 0.0
C350 C 0.01811 0.61583 0.86622 0.0
C351 C 0.05011 0.59856 0.85173 0.0
C352 C 0.98632 0.59918 0.80602 0.0
C353 C 0.96461 0.63495 0.83885 0.0
N354 N 0.02954 0.5994 0.83977 0.0
N355 N 0.98471 0.63346 0.86204 0.0
H356 H 0.64583 0.92813 0.13819 0.0
H357 H 0.58636 0.02678 0.32563 0.0
H358 H 0.58504 0.92668 0.25582 0.0
H359 H 0.64951 0.02791 0.23876 0.0
H360 H 0.5845 0.99073 0.28321 0.0
H361 H 0.64642 0.96519 0.15891 0.0
C362 C 0.63256 0.93558 0.16799 0.0
C363 C 0.61539 0.92422 0.19582 0.0
C364 C 0.59875 -0.00115 0.27282 0.0
C365 C 0.616 0.96666 0.21949 0.0
C366 C 0.5998 0.01943 0.29678 0.0
C367 C 0.61816 0.03021 0.28614 0.0
C368 C 0.61622 0.98894 0.23812 0.0
C369 C 0.63509 0.02005 0.24822 0.0
C370 C 0.63294 0.95676 0.17982 0.0
C371 C 0.59866 0.93475 0.23387 0.0
N372 N 0.63376 -0.00011 0.22604 0.0
N373 N 0.59941 0.95536 0.24477 0.0
H374 H 0.92769 0.40102 0.83113 0.0
H375 H 0.03056 0.33473 0.8587 0.0
H376 H 0.92953 0.33976 0.94291 0.0
H377 H 0.02725 0.3966 0.75613 0.0
H378 H -0.00591 0.3366 0.89965 0.0
H379 H 0.96463 0.39997 0.81141 0.0
C380 C 0.93585 0.38733 0.8517 0.0
C381 C 0.92541 0.3704 0.88824 0.0
C382 C 0.00141 0.34981 0.86886 0.0
C383 C 0.96793 0.36909 0.86566 0.0
C384 C 0.02219 0.34875 0.8458 0.0
C385 C 0.0318 0.3655 0.80358 0.0
C386 C 0.9903 0.36773 0.84928 0.0
C387 C 0.02036 0.38331 0.78814 0.0
C388 C 0.957 0.38676 0.84058 0.0
C389 C 0.93691 0.35315 0.91421 0.0
N390 N 0.00021 0.38391 0.81047 0.0
N391 N 0.95755 0.35289 0.90194 0.0
H392 H 0.40085 0.42611 0.06146 0.0
H393 H 0.3398 0.53146 0.12034 0.0
H394 H 0.3415 0.4298 0.19278 0.0
H395 H 0.39322 0.52374 0.94817 0.0
H396 H 0.34178 0.49513 0.16301 0.0
H397 H 0.39991 0.46278 1.03523 0.0
C398 C 0.38758 0.4346 0.08498 0.0
C399 C 0.37113 0.42474 0.12882 0.0
C400 C 0.3531 0.50144 0.11622 0.0
C401 C 0.37001 0.46699 0.09871 0.0
C402 C 0.35201 0.52213 0.09215 0.0
C403 C 0.36633 0.53047 1.03045 0.0
C404 C 0.36872 0.48918 0.07868 0.0
C405 C 0.38184 0.51783 0.99566 0.0
C406 C 0.38707 0.45561 0.06984 0.0
C407 C 0.35448 0.43671 0.15825 0.0
N408 N 0.3826 0.49781 1.02018 0.0
N409 N 0.35431 0.45723 0.14239 0.0
H410 H 0.52413 0.59082 0.14583 0.0
H411 H 0.43118 0.64144 0.86944 0.0
H412 H 0.53169 0.64182 0.95946 0.0
H413 H 0.42629 0.5857 1.0286 0.0
H414 H 0.46797 0.64186 0.89947 0.0
H415 H 0.48819 0.58862 0.10153 0.0
C416 C 0.51819 0.6015 0.09518 0.0
C417 C 0.53078 0.61656 0.0564 0.0
C418 C 0.45884 0.62949 0.92733 0.0
C419 C 0.48967 0.61427 1.00575 0.0
C420 C 0.43782 0.62925 0.91033 0.0
C421 C 0.42556 0.61356 0.94692 0.0
C422 C 0.46764 0.614 0.98167 0.0
C423 C 0.43506 0.59815 0.99918 0.0
C424 C 0.49769 0.60024 0.06982 0.0
C425 C 0.52241 0.62999 0.99095 0.0
N426 N 0.45548 0.59882 1.01533 0.0
N427 N 0.50229 0.62863 0.96803 0.0
H428 H 0.64477 0.55448 0.20412 0.0
H429 H 0.5882 0.45875 0.97636 0.0
H430 H 0.58528 0.55714 0.07514 0.0
H431 H 0.64744 0.45419 0.1054 0.0
H432 H 0.58611 0.49443 1.02314 0.0
H433 H 0.64541 0.51751 0.17863 0.0
C434 C 0.6318 0.54732 0.17086 0.0
C435 C 0.61499 0.559 0.14118 0.0
C436 C 0.59955 0.48568 0.0419 0.0
C437 C 0.61567 0.51672 0.11196 0.0
C438 C 0.60073 0.46528 1.01525 0.0
C439 C 0.61808 0.45362 1.03665 0.0
C440 C 0.61592 0.49458 0.08983 0.0
C441 C 0.63383 0.46275 0.08749 0.0
C442 C 0.63219 0.5262 0.15641 0.0
C443 C 0.59863 0.54885 0.09873 0.0
N444 N 0.63246 0.48282 0.11184 0.0
N445 N 0.59943 0.52834 0.08513 0.0
H446 H 0.4559 0.33324 0.96779 0.0
H447 H 0.55642 0.40273 0.94612 0.0
H448 H 0.45873 0.39638 0.05257 0.0
H449 H 0.55639 0.33885 0.87067 0.0
H450 H 0.51961 0.40123 0.96837 0.0
H451 H 0.49164 0.33548 0.91544 0.0
C452 C 0.464 0.3476 0.97441 0.0
C453 C 0.45451 0.36461 1.01506 0.0
C454 C 0.52758 0.38753 0.94644 0.0
C455 C 0.49513 0.36729 0.95591 0.0
C456 C 0.54866 0.38837 0.93376 0.0
C457 C 0.55958 0.37082 0.9075 0.0
C458 C 0.51722 0.36896 0.93347 0.0
C459 C 0.5486 0.35273 0.89137 0.0
C460 C 0.48436 0.34887 0.94477 0.0
C461 C 0.46556 0.38287 1.02217 0.0
N462 N 0.52801 0.35221 0.9055 0.0
N463 N 0.4853 0.38369 0.99339 0.0
H464 H 0.8944 0.46127 0.88481 0.0
H465 H 0.8412 0.55565 0.62793 0.0
H466 H 0.84149 0.45449 0.71005 0.0
H467 H 0.89901 0.55919 0.77123 0.0
H468 H 0.84066 0.51873 0.65643 0.0
H469 H 0.89615 0.49737 0.84262 0.0
C470 C 0.88321 0.46741 0.83711 0.0
C471 C 0.86775 0.455 0.80099 0.0
C472 C 0.85349 0.52763 0.68118 0.0
C473 C 0.86948 0.49631 0.75291 0.0
C474 C 0.85379 0.54871 0.66514 0.0
C475 C 0.87012 0.56062 0.69763 0.0
C476 C 0.86957 0.51843 0.73038 0.0
C477 C 0.88604 0.55074 0.74512 0.0
C478 C 0.88419 0.48802 0.81297 0.0
C479 C 0.85364 0.46364 0.73931 0.0
N480 N 0.8853 0.53029 0.76032 0.0
N481 N 0.85475 0.48386 0.71761 0.0
H482 H 0.55733 0.08411 0.33625 0.0
H483 H 0.45455 0.15079 0.34779 0.0
H484 H 0.55525 0.14594 0.44097 0.0
H485 H 0.45859 0.08893 0.24628 0.0
H486 H 0.49079 0.14904 0.39207 0.0
H487 H 0.52063 0.08537 0.31153 0.0
C488 C 0.54918 0.09799 0.35421 0.0
C489 C 0.55951 0.115 0.39025 0.0
C490 C 0.48368 0.13581 0.36072 0.0
C491 C 0.51718 0.11653 0.36187 0.0
C492 C 0.46303 0.1368 0.33574 0.0
C493 C 0.45369 0.12001 0.29302 0.0
C494 C 0.49493 0.11791 0.34263 0.0
C495 C 0.46527 0.10225 0.27871 0.0
C496 C 0.52814 0.09868 0.34017 0.0
C497 C 0.54797 0.13247 0.41276 0.0
N498 N 0.48528 0.10171 0.30303 0.0
N499 N 0.52742 0.13282 0.39776 0.0
H500 H 0.14554 0.53254 0.70691 0.0
H501 H 0.08668 0.4264 0.77678 0.0
H502 H 0.09355 0.5243 0.88737 0.0
H503 H 0.14504 0.43088 0.63723 0.0
H504 H 0.08726 0.46308 0.80301 0.0
H505 H 0.14386 0.49614 0.66587 0.0
C506 C 0.1337 0.52307 0.73726 0.0
C507 C 0.1197 0.53131 0.80079 0.0
C508 C 0.09995 0.45607 0.76661 0.0
C509 C 0.11768 0.48991 0.75446 0.0
C510 C 0.09965 0.43506 0.75145 0.0
C511 C 0.11592 0.42543 0.70517 0.0
C512 C 0.11662 0.46768 0.73522 0.0
C513 C 0.13221 0.4376 0.67365 0.0
C514 C 0.13279 0.50234 0.71413 0.0
C515 C 0.10468 0.51849 0.83837 0.0
N516 N 0.13216 0.45812 0.68943 0.0
N517 N 0.10408 0.49843 0.81471 0.0
H518 H 0.53252 0.83959 0.38104 0.0
H519 H 0.42657 0.89859 0.30391 0.0
H520 H 0.52471 0.89133 0.1992 0.0
H521 H 0.43049 0.84079 0.44801 0.0
H522 H 0.46329 0.8977 0.27908 0.0
H523 H 0.49597 0.84136 0.42046 0.0
C524 C 0.52312 0.8514 0.35007 0.0
C525 C 0.53152 0.8653 0.28662 0.0
C526 C 0.45616 0.88518 0.31615 0.0
C527 C 0.48996 0.86742 0.33103 0.0
C528 C 0.43512 0.88566 0.33049 0.0
C529 C 0.42531 0.86965 0.37771 0.0
C530 C 0.46765 0.8686 0.34925 0.0
C531 C 0.43736 0.85342 0.41083 0.0
C532 C 0.5023 0.85236 0.37225 0.0
C533 C 0.51878 0.88028 0.24818 0.0
N534 N 0.45793 0.85328 0.3958 0.0
N535 N 0.49864 0.88092 0.27091 0.0
H536 H 0.90009 0.92812 0.58907 0.0
H537 H 0.83032 0.0286 0.5885 0.0
H538 H 0.83683 0.92791 0.67634 0.0
H539 H 0.89509 0.02824 0.53099 0.0
H540 H 0.83225 0.99207 0.62704 0.0
H541 H 0.89839 0.96506 0.57153 0.0
C542 C 0.8858 0.93582 0.60457 0.0
C543 C 0.86853 0.92481 0.63371 0.0
C544 C 0.84607 5e-05 0.60682 0.0
C545 C 0.8665 0.96733 0.61373 0.0
C546 C 0.84497 0.02086 0.58511 0.0
C547 C 0.86256 0.03132 0.55615 0.0
C548 C 0.86487 0.98972 0.59898 0.0
C549 C 0.88115 0.02068 0.55264 0.0
C550 C 0.88487 0.95698 0.59485 0.0
C551 C 0.85052 0.93574 0.65351 0.0
N552 N 0.88179 0.00044 0.57313 0.0
N553 N 0.84994 0.9564 0.64262 0.0
H554 H 0.02225 0.0923 0.64467 0.0
H555 H 0.92809 0.14419 0.38056 0.0
H556 H 0.02932 0.14396 0.46174 0.0
H557 H 0.92416 0.0875 0.5333 0.0
H558 H 0.965 0.1448 0.40916 0.0
H559 H 0.98609 0.09057 0.60392 0.0
C560 C 0.01616 0.10323 0.59549 0.0
C561 C 0.0287 0.11832 0.55661 0.0
C562 C 0.95602 0.13221 0.436 0.0
C563 C 0.98728 0.11659 0.51009 0.0
C564 C 0.93494 0.13186 0.41989 0.0
C565 C 0.92291 0.11582 0.45487 0.0
C566 C 0.96512 0.11646 0.48782 0.0
C567 C 0.9327 0.10023 0.50508 0.0
C568 C -0.00448 0.10224 0.57219 0.0
C569 C 0.02009 0.13209 0.49317 0.0
N570 N 0.95316 0.101 0.52028 0.0
N571 N -0.00016 0.13099 0.47224 0.0
H572 H 0.08715 0.95809 0.50332 0.0
H573 H 0.14409 0.05687 0.70162 0.0
H574 H 0.1491 0.95682 0.60506 0.0
H575 H 0.08378 0.05778 0.58023 0.0
H576 H 0.1453 0.01984 0.68004 0.0
H577 H 0.08465 -0.00593 0.54576 0.0
C578 C 0.10019 0.9654 0.53537 0.0
C579 C 0.11841 0.95458 0.55027 0.0
C580 C 0.13178 0.02815 0.65852 0.0
C581 C 0.11574 -0.00416 0.59838 0.0
C582 C 0.13105 0.04932 0.6708 0.0
C583 C 0.11384 0.06053 0.6422 0.0
C584 C 0.11516 0.0181 0.6175 0.0
C585 C 0.09742 0.04985 0.60287 0.0
C586 C 0.09878 0.98596 0.55942 0.0
C587 C 0.13481 0.9647 0.5923 0.0
N588 N 0.09853 0.02927 0.59148 0.0
N589 N 0.13315 0.98486 0.6144 0.0
H590 H 0.05843 0.90088 0.49709 0.0
H591 H 0.95565 0.83491 0.47083 0.0
H592 H 0.05688 0.83911 0.39162 0.0
H593 H 0.95886 0.89703 0.56952 0.0
H594 H 0.99217 0.83649 0.43111 0.0
H595 H 0.02151 0.90001 0.51543 0.0
C596 C 0.05035 0.88709 0.4777 0.0
C597 C 0.06087 0.86998 0.44332 0.0
C598 C 0.98482 0.84981 0.46073 0.0
C599 C 0.01832 0.8689 0.46421 0.0
C600 C 0.96401 0.84893 0.48306 0.0
C601 C 0.95436 0.86583 0.52389 0.0
C602 C -0.00408 0.86772 0.47964 0.0
C603 C 0.96578 0.88363 0.53855 0.0
C604 C 0.02919 0.88663 0.48801 0.0
C605 C 0.04944 0.85264 0.41873 0.0
N606 N 0.98597 0.88406 0.51696 0.0
N607 N 0.02877 0.8525 0.43011 0.0
H608 H 0.34078 0.19176 0.12526 0.0
H609 H 0.40723 0.29368 0.14202 0.0
H610 H 0.40573 0.19154 0.17921 0.0
H611 H 0.3419 0.29308 0.18728 0.0
H612 H 0.40709 0.25632 0.13839 0.0
H613 H 0.34107 0.22911 0.12949 0.0
C614 C 0.35513 0.19955 0.13752 0.0
C615 C 0.37327 0.18849 0.15194 0.0
C616 C 0.39282 0.26439 0.14942 0.0
C617 C 0.37367 0.23121 0.1567 0.0
C618 C 0.39285 0.28571 0.15122 0.0
C619 C 0.37453 0.29653 0.16501 0.0
C620 C 0.3743 0.25381 0.16013 0.0
C621 C 0.35639 0.28537 0.17693 0.0
C622 C 0.35524 0.22086 0.14046 0.0
C623 C 0.39137 0.19943 0.16811 0.0
N624 N 0.35671 0.26461 0.17361 0.0
N625 N 0.39113 0.2202 0.16965 0.0
H626 H 0.294 0.58134 0.94161 0.0
H627 H 0.1918 0.64766 0.9302 0.0
H628 H 0.29404 0.64644 0.89068 0.0
H629 H 0.19274 0.58246 0.88288 0.0
H630 H 0.2292 0.64764 0.93195 0.0
H631 H 0.25667 0.58163 0.93715 0.0
C632 C 0.28617 0.59572 0.92983 0.0
C633 C 0.29716 0.61391 0.91658 0.0
C634 C 0.22119 0.63337 0.92084 0.0
C635 C 0.25445 0.6143 0.91162 0.0
C636 C 0.19985 0.63334 0.92015 0.0
C637 C 0.18913 0.61502 0.90634 0.0
C638 C 0.23185 0.61492 0.90899 0.0
C639 C 0.20037 0.59695 0.89332 0.0
C640 C 0.26487 0.59583 0.9268 0.0
C641 C 0.28619 0.63205 0.90095 0.0
N642 N 0.22113 0.59734 0.89556 0.0
N643 N 0.2654 0.63181 0.89939 0.0
H644 H 0.64767 0.79265 0.1527 0.0
H645 H 0.5809 0.6908 0.14176 0.0
H646 H 0.5825 0.7922 0.20239 0.0
H647 H 0.64614 0.69061 0.18812 0.0
H648 H 0.58122 0.72817 0.14603 0.0
H649 H 0.6474 0.75529 0.14847 0.0
C650 C 0.6333 0.78471 0.16274 0.0
C651 C 0.61508 0.79557 0.17807 0.0
C652 C 0.59544 0.71992 0.15537 0.0
C653 C 0.61467 0.75286 0.17255 0.0
C654 C 0.59531 0.6986 0.15247 0.0
C655 C 0.61353 0.68756 0.16468 0.0
C656 C 0.61397 0.73027 0.16935 0.0
C657 C 0.63172 0.69849 0.1788 0.0
C658 C 0.63319 0.76339 0.16059 0.0
C659 C 0.59693 0.78446 0.1909 0.0
N660 N 0.63149 0.71926 0.18035 0.0
N661 N 0.59717 0.7637 0.18732 0.0
H662 H 0.79419 0.40578 0.88457 0.0
H663 H 0.69147 0.34049 0.87748 0.0
H664 H 0.79289 0.34054 0.93088 0.0
H665 H 0.69195 0.40559 0.92723 0.0
H666 H 0.72878 0.34041 0.87999 0.0
H667 H 0.7568 0.40614 0.8835 0.0
C668 C 0.78606 0.39152 0.89429 0.0
C669 C 0.7967 0.37308 0.90775 0.0
C670 C 0.72072 0.3547 0.89052 0.0
C671 C 0.75394 0.37343 0.90616 0.0
C672 C 0.69941 0.3548 0.88864 0.0
C673 C 0.68855 0.3731 0.90208 0.0
C674 C 0.7313 0.37306 0.90475 0.0
C675 C 0.69969 0.39113 0.91685 0.0
C676 C 0.76473 0.39177 0.89409 0.0
C677 C 0.78534 0.35511 0.92057 0.0
N678 N 0.72049 0.39068 0.9173 0.0
N679 N 0.76457 0.35571 0.91893 0.0
H680 H 0.84198 0.6917 0.62778 0.0
H681 H 0.90775 0.79415 0.63937 0.0
H682 H 0.90701 0.69176 0.67947 0.0
H683 H 0.84262 0.79284 0.68964 0.0
H684 H 0.90798 0.75673 0.63591 0.0
H685 H 0.84216 0.72904 0.63079 0.0
C686 C 0.85632 0.69955 0.63925 0.0
C687 C 0.87451 0.68857 0.6535 0.0
C688 C 0.89367 0.76468 0.648 0.0
C689 C 0.87479 0.73131 0.65685 0.0
C690 C 0.89351 0.78602 0.64974 0.0
C691 C 0.87513 0.79665 0.66496 0.0
C692 C 0.8753 0.75392 0.6601 0.0
C693 C 0.85715 0.7853 0.67824 0.0
C694 C 0.85638 0.72086 0.64149 0.0
C695 C 0.89262 0.6996 0.6686 0.0
N696 N 0.85767 0.76455 0.6749 0.0
N697 N 0.89232 0.72038 0.6695 0.0
H698 H 0.79211 0.12318 0.27502 0.0
H699 H 0.69021 0.12238 0.56476 0.0
H700 H 0.79229 0.10091 0.55598 0.0
H701 H 0.69048 0.09894 0.28599 0.0
H702 H 0.72783 0.12251 0.56263 0.0
H703 H 0.75447 0.12234 0.2767 0.0
C704 C 0.7842 0.11822 0.33704 0.0
C705 C 0.79519 0.11203 0.41539 0.0
C706 C 0.71957 0.11733 0.50218 0.0
C707 C 0.75254 0.11148 0.41827 0.0
C708 C 0.69821 0.11732 0.50317 0.0
C709 C 0.68735 0.11054 0.42557 0.0
C710 C 0.73 0.11116 0.42204 0.0
C711 C 0.69837 0.1041 0.34744 0.0
C712 C 0.76284 0.11765 0.33773 0.0
C713 C 0.7843 0.10564 0.494 0.0
N714 N 0.71916 0.1048 0.34714 0.0
N715 N 0.76351 0.10576 0.49391 0.0
H716 H 0.14594 0.29422 0.63502 0.0
H717 H 0.07903 0.19228 0.63398 0.0
H718 H 0.08076 0.29405 0.68446 0.0
H719 H 0.14429 0.1924 0.67945 0.0
H720 H 0.07935 0.22968 0.6331 0.0
H721 H 0.14555 0.25686 0.63179 0.0
C722 C 0.13153 0.28635 0.64485 0.0
C723 C 0.11335 0.2973 0.66021 0.0
C724 C 0.09358 0.22149 0.64332 0.0
C725 C 0.11282 0.25456 0.65616 0.0
C726 C 0.09344 0.20015 0.64344 0.0
C727 C 0.11166 0.18919 0.65696 0.0
C728 C 0.11212 0.23194 0.65555 0.0
C729 C 0.12986 0.20022 0.66928 0.0
C730 C 0.13135 0.26502 0.64339 0.0
C731 C 0.09515 0.28625 0.67292 0.0
N732 N 0.12964 0.22099 0.6679 0.0
N733 N 0.09534 0.26548 0.67025 0.0
H734 H 0.2946 0.90732 0.39776 0.0
H735 H 0.19226 0.84149 0.38788 0.0
H736 H 0.29364 0.84222 0.44803 0.0
H737 H 0.19233 0.90651 0.43994 0.0
H738 H 0.22961 0.84163 0.39178 0.0
H739 H 0.25719 0.90745 0.39635 0.0
C740 C 0.28654 0.89305 0.4086 0.0
C741 C 0.29727 0.87472 0.42308 0.0
C742 C 0.22143 0.85585 0.40245 0.0
C743 C 0.25451 0.87478 0.42063 0.0
C744 C 0.20011 0.85582 0.3997 0.0
C745 C 0.18913 0.87403 0.4136 0.0
C746 C 0.23189 0.87425 0.41793 0.0
C747 C 0.20016 0.89211 0.42923 0.0
C748 C 0.2652 0.89317 0.40806 0.0
C749 C 0.286 0.85672 0.4371 0.0
N750 N 0.22095 0.89178 0.43051 0.0
N751 N 0.26523 0.85718 0.43486 0.0
H752 H 0.1852 0.1497 0.9071 0.0
H753 H 0.2972 0.09959 0.91933 0.0
H754 H 0.20432 0.10018 0.7299 0.0
H755 H 0.27954 0.15161 0.0845 0.0
H756 H 0.26302 0.09922 0.85072 0.0
H757 H 0.21942 0.15021 0.97591 0.0
C758 C 0.19662 0.13892 0.88294 0.0
C759 C 0.19204 0.1249 0.81286 0.0
C760 C 0.26661 0.11075 0.90184 0.0
C761 C 0.23109 0.12538 0.89069 0.0
C762 C 0.28611 0.11096 0.94087 0.0
C763 C 0.2911 0.12564 1.00751 0.0
C764 C 0.25202 0.12531 0.92996 0.0
C765 C 0.27624 0.14004 1.03319 0.0
C766 C 0.21614 0.13923 0.922 0.0
C767 C 0.2073 0.11125 0.78384 0.0
N768 N 0.25733 0.13949 0.99449 0.0
N769 N 0.22616 0.11183 0.82287 0.0
H770 H 0.14945 0.68663 0.15899 0.0
H771 H 0.09959 0.7986 0.17919 0.0
H772 H 0.09933 0.7061 0.98644 0.0
H773 H 0.15196 0.7805 0.34084 0.0
H774 H 0.09892 0.76454 0.10939 0.0
H775 H 0.15018 0.72067 0.22951 0.0
C776 C 0.13858 0.69809 0.13626 0.0
C777 C 0.12433 0.69366 0.06695 0.0
C778 C 0.11059 0.76801 0.16 0.0
C779 C 0.12506 0.7325 0.14667 0.0
C780 C 0.11097 0.78743 0.1997 0.0
C781 C 0.12584 0.79226 0.26568 0.0
C782 C 0.12516 0.75334 0.18678 0.0
C783 C 0.14025 0.77732 0.29006 0.0
C784 C 0.13901 0.71749 0.17627 0.0
C785 C 0.11057 0.70896 0.03974 0.0
N786 N 0.13953 0.75848 0.2507 0.0
N787 N 0.11128 0.72772 0.07965 0.0
H788 H 0.70613 0.88611 0.10249 0.0
H789 H 0.78087 0.83207 0.73701 0.0
H790 H 0.68792 0.83558 0.92996 0.0
H791 H 0.79764 0.88484 0.8985 0.0
H792 H 0.74699 0.83251 0.80938 0.0
H793 H 0.73996 0.8855 1.03023 0.0
C794 C 0.70929 0.87491 0.04914 0.0
C795 C 0.69431 0.86086 1.02197 0.0
C796 C 0.75807 0.84399 0.82909 0.0
C797 C 0.73293 0.86 0.93927 0.0
C798 C 0.77739 0.84371 0.78797 0.0
C799 C 0.79197 0.85846 0.81197 0.0
C800 C 0.75335 0.85911 0.89473 0.0
C801 C 0.78677 0.87322 0.87816 0.0
C802 C 0.72858 0.87455 1.00797 0.0
C803 C 0.69911 0.84667 0.95271 0.0
N804 N 0.76786 0.87318 0.91728 0.0
N805 N 0.71805 0.84657 0.91374 0.0
H806 H 0.83548 0.29923 0.1572 0.0
H807 H 0.8852 0.18714 0.17796 0.0
H808 H 0.88531 0.27961 0.98237 0.0
H809 H 0.83228 0.20508 0.33727 0.0
H810 H 0.88596 0.22121 0.10769 0.0
H811 H 0.83461 0.26512 0.22754 0.0
C812 C 0.84625 0.28772 0.13388 0.0
C813 C 0.86046 0.29214 0.06401 0.0
C814 C 0.87415 0.2177 0.15787 0.0
C815 C 0.8596 0.25321 0.14364 0.0
C816 C 0.87372 0.19827 0.19785 0.0
C817 C 0.85867 0.19338 0.26333 0.0
C818 C 0.85945 0.23234 0.18391 0.0
C819 C 0.84414 0.20829 0.2869 0.0
C820 C 0.84575 0.26827 0.17381 0.0
C821 C 0.8741 0.27677 1.03611 0.0
N822 N 0.84491 0.22713 0.24735 0.0
N823 N 0.87334 0.25797 0.07601 0.0
H824 H 0.27655 0.35082 0.18833 0.0
H825 H 0.21114 0.35143 0.64666 0.0
H826 H 0.30316 0.37062 0.44569 0.0
H827 H 0.18487 0.37155 0.38874 0.0
H828 H 0.24516 0.35183 0.57431 0.0
H829 H 0.24257 0.35175 0.26093 0.0
C830 C 0.2752 0.35529 0.26023 0.0
C831 C 0.29255 0.36069 0.31139 0.0
C832 C 0.23192 0.35619 0.53385 0.0
C833 C 0.25404 0.36143 0.39455 0.0
C834 C 0.21257 0.35587 0.57472 0.0
C835 C 0.19531 0.36151 0.52331 0.0
C836 C 0.23385 0.36163 0.44041 0.0
C837 C 0.19789 0.3672 0.43054 0.0
C838 C 0.25588 0.35591 0.30123 0.0
C839 C 0.29007 0.36644 0.40409 0.0
N840 N 0.21684 0.3669 0.39152 0.0
N841 N 0.27113 0.36645 0.44325 0.0
H842 H 0.38869 0.70462 0.84378 0.0
H843 H 0.33328 0.7811 0.49076 0.0
H844 H 0.33766 0.68721 0.67278 0.0
H845 H 0.38679 0.79711 0.64861 0.0
H846 H 0.33405 0.74689 0.55936 0.0
H847 H 0.38791 0.73876 0.77477 0.0
C848 C 0.37735 0.70801 0.79139 0.0
C849 C 0.3632 0.69316 0.76378 0.0
C850 C 0.34562 0.75787 0.57912 0.0
C851 C 0.36213 0.73216 0.68488 0.0
C852 C 0.34515 0.7774 0.54017 0.0
C853 C 0.36 0.79187 0.5642 0.0
C854 C 0.36105 0.75282 0.64267 0.0
C855 C 0.37507 0.78635 0.62834 0.0
C856 C 0.3769 0.72749 0.75209 0.0
C857 C 0.34883 0.69828 0.69581 0.0
N858 N 0.37522 0.76723 0.66538 0.0
N859 N 0.34863 0.7174 0.65875 0.0
H860 H 0.68646 0.64808 0.41031 0.0
H861 H 0.79884 0.59896 0.42364 0.0
H862 H 0.70602 0.59857 0.23397 0.0
H863 H 0.78075 0.6511 0.58711 0.0
H864 H 0.76468 0.59822 0.35496 0.0
H865 H 0.72067 0.64897 0.47905 0.0
C866 C 0.69798 0.63738 0.38636 0.0
C867 C 0.69353 0.62325 0.31654 0.0
C868 C 0.76817 0.60986 0.40572 0.0
C869 C 0.73255 0.62416 0.39422 0.0
C870 C 0.78765 0.61028 0.44478 0.0
C871 C 0.79251 0.6251 0.51097 0.0
C872 C 0.75347 0.62434 0.4334 0.0
C873 C 0.77755 0.63943 0.53615 0.0
C874 C 0.71748 0.6379 0.42535 0.0
C875 C 0.7089 0.60971 0.28773 0.0
N876 N 0.75865 0.63867 0.49746 0.0
N877 N 0.72775 0.6105 0.32669 0.0
H878 H 0.65036 0.20371 0.49363 0.0
H879 H 0.60127 0.27823 0.87314 0.0
H880 H 0.5996 0.1861 0.66735 0.0
H881 H 0.64402 0.29774 0.66322 0.0
H882 H 0.60181 0.2437 0.80681 0.0
H883 H 0.64992 0.23761 0.56411 0.0
C884 C 0.63915 0.20701 0.54694 0.0
C885 C 0.62495 0.19221 0.57472 0.0
C886 C 0.61103 0.25556 0.77526 0.0
C887 C 0.62431 0.23091 0.65561 0.0
C888 C 0.61073 0.27521 0.81305 0.0
C889 C 0.62261 0.29074 0.77334 0.0
C890 C 0.62342 0.25151 0.69779 0.0
C891 C 0.63463 0.28615 0.69575 0.0
C892 C 0.63886 0.22636 0.58696 0.0
C893 C 0.61076 0.19719 0.644 0.0
N894 N 0.63476 0.26692 0.66062 0.0
N895 N 0.61079 0.21617 0.68225 0.0
H896 H 0.39391 0.12118 0.398 0.0
H897 H 0.34964 0.12972 0.91695 0.0
H898 H 0.32976 0.12683 0.46266 0.0
H899 H 0.41337 0.1202 0.8536 0.0
H900 H 0.34202 0.12934 0.75069 0.0
H901 H 0.40157 0.1215 0.56443 0.0
C902 C 0.38148 0.12254 0.44722 0.0
C903 C 0.36121 0.12405 0.41662 0.0
C904 C 0.35768 0.12727 0.77313 0.0
C905 C 0.36974 0.12438 0.60694 0.0
C906 C 0.36197 0.12738 0.86812 0.0
C907 C 0.38209 0.12474 0.89913 0.0
C908 C 0.37367 0.1246 0.70866 0.0
C909 C 0.39761 0.12222 0.83266 0.0
C910 C 0.38581 0.12268 0.54221 0.0
C911 C 0.34563 0.12564 0.48333 0.0
N912 N 0.39309 0.1222 0.74084 0.0
N913 N 0.3502 0.12579 0.57506 0.0
H914 H 0.11949 0.65708 0.61302 0.0
H915 H 0.14605 0.57847 0.20723 0.0
H916 H 0.134 0.59383 0.66503 0.0
H917 H 0.11293 0.63459 0.16039 0.0
H918 H 0.14496 0.585 0.37391 0.0
H919 H 0.12011 0.6503 0.44668 0.0
C920 C 0.12279 0.64171 0.58936 0.0
C921 C 0.12664 0.62595 0.65307 0.0
C922 C 0.13795 0.59591 0.32727 0.0
C923 C 0.12758 0.61811 0.46209 0.0
C924 C 0.13863 0.59225 0.23199 0.0
C925 C 0.12962 0.60606 0.16965 0.0
C926 C 0.12842 0.61367 0.36086 0.0
C927 C 0.12018 0.62361 0.20584 0.0
C928 C 0.12309 0.63785 0.4943 0.0
C929 C 0.13083 0.60636 0.61842 0.0
N930 N 0.1199 0.62696 0.29895 0.0
N931 N 0.13131 0.60301 0.52525 0.0
H932 H 0.65749 0.86468 0.47438 0.0
H933 H 0.57877 0.83882 0.8815 0.0
H934 H 0.59414 0.85069 0.42347 0.0
H935 H 0.63503 0.87157 0.92726 0.0
H936 H 0.58531 0.83977 0.71472 0.0
H937 H 0.65071 0.86411 0.64081 0.0
C938 C 0.6421 0.8615 0.49831 0.0
C939 C 0.6263 0.85778 0.43489 0.0
C940 C 0.59624 0.84673 0.76114 0.0
C941 C 0.61848 0.8569 0.62596 0.0
C942 C 0.59258 0.84613 0.85647 0.0
C943 C 0.60642 0.85509 0.91851 0.0
C944 C 0.61404 0.85613 0.72723 0.0
C945 C 0.62402 0.86438 0.88202 0.0
C946 C 0.63825 0.86123 0.59342 0.0
C947 C 0.60669 0.85375 0.46987 0.0
N948 N 0.62737 0.86458 0.78886 0.0
N949 N 0.60335 0.85329 0.56309 0.0
H950 H 0.87286 0.35076 0.15591 0.0
H951 H 0.85207 0.39325 0.66762 0.0
H952 H 0.84107 0.40738 0.2089 0.0
H953 H 0.86487 0.32989 0.61011 0.0
H954 H 0.8515 0.40013 0.50037 0.0
H955 H 0.87334 0.34392 0.32299 0.0
C956 C 0.86588 0.36167 0.20262 0.0
C957 C 0.85678 0.37957 0.16845 0.0
C958 C 0.85444 0.38473 0.52446 0.0
C959 C 0.85767 0.37212 0.35968 0.0
C960 C 0.85486 0.38085 0.61986 0.0
C961 C 0.85854 0.36102 0.65269 0.0
C962 C 0.85799 0.36867 0.46161 0.0
C963 C 0.86193 0.34542 0.58771 0.0
C964 C 0.8662 0.35781 0.29796 0.0
C965 C 0.84817 0.39333 0.23225 0.0
N966 N 0.86166 0.34957 0.49549 0.0
N967 N 0.84893 0.38939 0.32465 0.0
H968 H 0.41581 0.36714 0.4609 0.0
H969 H 0.33088 0.35811 0.85978 0.0
H970 H 0.35258 0.3532 0.40739 0.0
H971 H 0.39524 0.36428 0.91685 0.0
H972 H 0.3384 0.3577 0.69423 0.0
H973 H 0.40853 0.36733 0.62696 0.0
C974 C 0.40031 0.36423 0.48411 0.0
C975 C 0.38466 0.3605 0.41987 0.0
C976 C 0.35093 0.35911 0.74263 0.0
C977 C 0.37621 0.36065 0.61076 0.0
C978 C 0.34665 0.35938 0.83736 0.0
C979 C 0.36248 0.36118 0.90231 0.0
C980 C 0.37124 0.36077 0.71183 0.0
C981 C 0.3826 0.36277 0.86918 0.0
C982 C 0.39619 0.36432 0.5791 0.0
C983 C 0.36495 0.35668 0.45408 0.0
N984 N 0.38641 0.36257 0.77623 0.0
N985 N 0.36127 0.3569 0.54706 0.0
H986 H 0.36584 0.65634 0.21515 0.0
H987 H 0.34093 0.57736 0.62199 0.0
H988 H 0.35234 0.5929 0.16395 0.0
H989 H 0.37352 0.6337 0.66794 0.0
H990 H 0.34174 0.58396 0.45534 0.0
H991 H 0.36553 0.64951 0.38157 0.0
C992 C 0.36281 0.64092 0.239 0.0
C993 C 0.35915 0.62512 0.17548 0.0
C994 C 0.3487 0.5949 0.50176 0.0
C995 C 0.35859 0.61723 0.36658 0.0
C996 C 0.34819 0.5912 0.59704 0.0
C997 C 0.35713 0.60504 0.65915 0.0
C998 C 0.35798 0.61275 0.46787 0.0
C999 C 0.36634 0.62268 0.62268 0.0
C1000 C 0.3627 0.63704 0.33411 0.0
C1001 C 0.35532 0.60547 0.2104 0.0
N1002 N 0.36645 0.62607 0.52953 0.0
N1003 N 0.35502 0.6021 0.30361 0.0
H1004 H 0.59262 0.63306 0.92237 0.0
H1005 H 0.63471 0.61108 0.41059 0.0
H1006 H 0.65571 0.61891 0.86408 0.0
H1007 H 0.57853 0.6437 0.46355 0.0
H1008 H 0.64158 0.61068 0.57752 0.0
H1009 H 0.58573 0.63368 0.75524 0.0
C1010 C 0.60495 0.62998 0.87447 0.0
C1011 C 0.62471 0.62589 0.90705 0.0
C1012 C 0.62778 0.61799 0.55252 0.0
C1013 C 0.61706 0.6265 0.71609 0.0
C1014 C 0.6239 0.61826 0.45727 0.0
C1015 C 0.6061 0.62755 0.42313 0.0
C1016 C 0.6136 0.62678 0.61422 0.0
C1017 C 0.59248 0.63642 0.48688 0.0
C1018 C 0.60108 0.63043 0.77913 0.0
C1019 C 0.64024 0.62216 0.84187 0.0
N1020 N 0.59644 0.63572 0.57922 0.0
N1021 N 0.63609 0.62246 0.74973 0.0
H1022 H 0.61518 0.41406 0.60265 0.0
H1023 H 0.64732 0.33729 0.19613 0.0
H1024 H 0.63705 0.35294 0.65317 0.0
H1025 H 0.61296 0.39265 0.14919 0.0
H1026 H 0.64616 0.34385 0.36275 0.0
H1027 H 0.61654 0.40754 0.43623 0.0
C1028 C 0.62018 0.39917 0.57865 0.0
C1029 C 0.62576 0.38388 0.64201 0.0
C1030 C 0.63889 0.35459 0.31613 0.0
C1031 C 0.6276 0.37637 0.45095 0.0
C1032 C 0.63961 0.3509 0.2209 0.0
C1033 C 0.63019 0.36444 0.15866 0.0
C1034 C 0.62883 0.37207 0.34971 0.0
C1035 C 0.62043 0.38183 0.1947 0.0
C1036 C 0.62093 0.39547 0.48353 0.0
C1037 C 0.63221 0.36496 0.60699 0.0
N1038 N 0.62002 0.38515 0.28777 0.0
N1039 N 0.63305 0.36175 0.51381 0.0
H1040 H 0.89513 0.62181 0.90213 0.0
H1041 H 0.85081 0.62947 0.42122 0.0
H1042 H 0.83095 0.62716 0.96681 0.0
H1043 H 0.91458 0.62031 0.35754 0.0
H1044 H 0.84319 0.62932 0.25496 0.0
H1045 H 0.90278 0.62197 0.06855 0.0
C1046 C 0.88269 0.62307 0.95136 0.0
C1047 C 0.86241 0.62453 0.92078 0.0
C1048 C 0.85886 0.62728 0.27733 0.0
C1049 C 0.87093 0.62469 0.11108 0.0
C1050 C 0.86315 0.62725 0.37231 0.0
C1051 C 0.88328 0.62463 0.40322 0.0
C1052 C 0.87486 0.62478 0.21278 0.0
C1053 C 0.8988 0.6223 0.33668 0.0
C1054 C 0.88701 0.62313 0.04634 0.0
C1055 C 0.84682 0.62601 0.98747 0.0
N1056 N 0.89429 0.62241 0.24487 0.0
N1057 N 0.85139 0.62607 0.07922 0.0
H1058 H 0.62892 0.1339 0.6622 0.0
H1059 H 0.62139 0.08987 0.18183 0.0
H1060 H 0.62016 0.07016 0.72609 0.0
H1061 H 0.62647 0.15399 0.1168 0.0
H1062 H 0.62176 0.08212 1.01542 0.0
H1063 H 0.62885 0.14158 0.82845 0.0
C1064 C 0.62681 0.12157 0.71116 0.0
C1065 C 0.62427 0.10144 0.68025 0.0
C1066 C 0.62281 0.09789 1.03753 0.0
C1067 C 0.62449 0.10993 0.87084 0.0
C1068 C 0.62262 0.10228 0.13252 0.0
C1069 C 0.62393 0.12258 0.16306 0.0
C1070 C 0.62434 0.11393 0.97265 0.0
C1071 C 0.62542 0.13812 0.09622 0.0
C1072 C 0.62688 0.1259 0.80617 0.0
C1073 C 0.62208 0.08593 0.74691 0.0
N1074 N 0.6256 0.13349 1.00446 0.0
N1075 N 0.62221 0.09049 0.83877 0.0
H1076 H 0.13572 0.35369 0.4279 0.0
H1077 H 0.09162 0.36485 0.91097 0.0
H1078 H 0.07278 0.3679 0.36786 0.0
H1079 H 0.15573 0.35856 0.97396 0.0
H1080 H 0.084 0.36451 0.07773 0.0
H1081 H 0.14323 0.35408 0.26146 0.0
C1082 C 0.12359 0.3572 0.37981 0.0
C1083 C 0.10374 0.36121 0.41181 0.0
C1084 C 0.09974 0.36319 0.055 0.0
C1085 C 0.11195 0.36111 0.22104 0.0
C1086 C 0.10405 0.36334 0.95988 0.0
C1087 C 0.1243 0.36169 0.92879 0.0
C1088 C 0.11581 0.36129 0.11925 0.0
C1089 C 0.13988 0.35988 0.99503 0.0
C1090 C 0.12779 0.35724 0.28468 0.0
C1091 C 0.08836 0.36487 0.34613 0.0
N1092 N 0.13533 0.35969 0.08685 0.0
N1093 N 0.09276 0.36475 0.25411 0.0
H1094 H 0.35969 0.8296 0.11116 0.0
H1095 H 0.36499 0.91516 0.71411 0.0
H1096 H 0.36327 0.89414 0.16862 0.0
H1097 H 0.35785 0.8509 0.65778 0.0
H1098 H 0.36494 0.90778 0.87988 0.0
H1099 H 0.35972 0.83706 0.94555 0.0
C1100 C 0.36049 0.84539 0.08881 0.0
C1101 C 0.36144 0.86129 0.15385 0.0
C1102 C 0.36343 0.89525 0.83153 0.0
C1103 C 0.36148 0.86999 0.96342 0.0
C1104 C 0.36346 0.89944 0.73669 0.0
C1105 C 0.3616 0.88357 0.67184 0.0
C1106 C 0.36151 0.87498 0.86243 0.0
C1107 C 0.3596 0.86353 0.70519 0.0
C1108 C 0.36048 0.84964 0.99405 0.0
C1109 C 0.36244 0.88144 0.12087 0.0
N1110 N 0.35963 0.8598 0.79811 0.0
N1111 N 0.36245 0.88522 1.02795 0.0
H1112 H 0.89448 0.86429 0.418 0.0
H1113 H 0.85036 0.85506 0.90019 0.0
H1114 H 0.83043 0.85771 0.35493 0.0
H1115 H 0.91389 0.86565 0.96203 0.0
H1116 H 0.84273 0.85534 0.06663 0.0
H1117 H 0.90213 0.86412 0.25139 0.0
C1118 C 0.88207 0.86276 0.36909 0.0
C1119 C 0.86183 0.86095 0.40017 0.0
C1120 C 0.85834 0.85767 0.04381 0.0
C1121 C 0.87035 0.86077 0.20967 0.0
C1122 C 0.86264 0.85762 0.94873 0.0
C1123 C 0.8827 0.86059 0.91726 0.0
C1124 C 0.87428 0.86061 0.10789 0.0
C1125 C 0.89816 0.86338 0.98334 0.0
C1126 C 0.8864 0.8627 0.274 0.0
C1127 C 0.84627 0.85914 0.33387 0.0
N1128 N 0.89365 0.86333 0.07526 0.0
N1129 N 0.85084 0.85907 0.24203 0.0
H1130 H 0.86227 0.07037 0.11748 0.0
H1131 H 0.85718 0.15622 0.72103 0.0
H1132 H 0.85524 0.13464 0.17448 0.0
H1133 H 0.86023 0.09167 0.66272 0.0
H1134 H 0.85716 0.14864 0.88665 0.0
H1135 H 0.86211 0.07783 0.95164 0.0
C1136 C 0.86074 0.08611 0.09505 0.0
C1137 C 0.85896 0.10195 0.16015 0.0
C1138 C 0.85781 0.13609 0.83796 0.0
C1139 C 0.85875 0.11064 0.96944 0.0
C1140 C 0.85784 0.1404 0.74319 0.0
C1141 C 0.85868 0.12454 0.67788 0.0
C1142 C 0.85869 0.1157 0.86838 0.0
C1143 C 0.85953 0.10435 0.71068 0.0
C1144 C 0.86065 0.09035 1.00016 0.0
C1145 C 0.85695 0.12201 0.12693 0.0
N1146 N 0.85953 0.10051 0.80357 0.0
N1147 N 0.85693 0.12579 1.03402 0.0
H1148 H 0.13317 0.11309 0.9077 0.0
H1149 H 0.09073 0.13403 0.41975 0.0
H1150 H 0.0767 0.14521 0.96097 0.0
H1151 H 0.154 0.12068 0.36126 0.0
H1152 H 0.08386 0.13475 0.25258 0.0
H1153 H 0.13997 0.11254 0.07464 0.0
C1154 C 0.12228 0.12014 0.95445 0.0
C1155 C 0.10443 0.12934 0.9204 0.0
C1156 C 0.09924 0.13166 0.27645 0.0
C1157 C 0.11184 0.12837 0.11151 0.0
C1158 C 0.10311 0.13115 0.37179 0.0
C1159 C 0.12291 0.12727 0.40429 0.0
C1160 C 0.11528 0.12799 0.21337 0.0
C1161 C 0.13849 0.12377 0.33909 0.0
C1162 C 0.12612 0.11977 0.04972 0.0
C1163 C 0.09071 0.13802 0.98425 0.0
N1164 N 0.13434 0.12412 0.24695 0.0
N1165 N 0.09463 0.13723 0.07661 0.0
H1166 H 0.12207 0.89479 0.65814 0.0
H1167 H 0.13028 0.85046 0.17668 0.0
H1168 H 0.12716 0.83061 0.72225 0.0
H1169 H 0.12139 0.91425 0.11366 0.0
H1170 H 0.12986 0.84283 1.01038 0.0
H1171 H 0.12252 0.90243 0.8246 0.0
C1172 C 0.12332 0.88235 0.70725 0.0
C1173 C 0.12463 0.86207 0.6765 0.0
C1174 C 0.12794 0.8585 1.0329 0.0
C1175 C 0.12513 0.87058 0.86683 0.0
C1176 C 0.12807 0.8628 0.12791 0.0
C1177 C 0.12561 0.88293 0.15901 0.0
C1178 C 0.12542 0.87451 0.96854 0.0
C1179 C 0.12327 0.89847 0.09264 0.0
C1180 C 0.12354 0.88667 0.80225 0.0
C1181 C 0.12611 0.84647 0.74305 0.0
N1182 N 0.12321 0.89395 1.00081 0.0
N1183 N 0.12635 0.85104 0.83481 0.0
loop_
_geom_bond_atom_site_label_1
_geom_bond_atom_site_label_2
_geom_bond_distance
_geom_bond_site_symmetry_2
_ccdc_geom_bond_type
Tb0 O3 2.453 1_554 S
Tb0 O4 2.596 . S
Tb0 O5 2.374 . S
Tb0 O13 2.343 . S
Tb0 O15 2.353 . S
Tb0 O17 2.427 . S
Tb0 O18 2.513 . S
C1 O5 1.251 . S
C1 O7 1.263 . S
Tb2 O4 2.343 . S
Tb2 O7 2.353 . S
Tb2 O10 2.427 . S
Tb2 O11 2.513 . S
Tb2 O12 2.453 . S
Tb2 O13 2.596 . S
Tb2 O14 2.374 . S
O3 Tb0 2.453 1_556 S
O3 C19 1.245 . S
O4 Tb0 2.596 . S
O4 Tb2 2.343 . S
O4 C19 1.259 1_554 S
O5 Tb0 2.374 . S
O5 C1 1.251 . S
C6 O10 1.275 . S
C6 O11 1.246 . S
O7 C1 1.263 . S
O7 Tb2 2.353 . S
C8 O12 1.245 . S
C8 O13 1.259 . S
C9 O14 1.250 . S
C9 O15 1.263 . S
O10 Tb2 2.427 . S
O10 C6 1.275 . S
O11 Tb2 2.513 . S
O11 C6 1.246 . S
O12 Tb2 2.453 . S
O12 C8 1.245 . S
O13 Tb0 2.343 . S
O13 Tb2 2.596 . S
O13 C8 1.259 . S
O14 Tb2 2.374 . S
O14 C9 1.250 . S
O15 Tb0 2.353 . S
O15 C9 1.263 . S
C16 O17 1.275 . S
C16 O18 1.246 . S
O17 Tb0 2.427 . S
O17 C16 1.275 . S
O18 Tb0 2.513 . S
O18 C16 1.246 . S
C19 O3 1.245 . S
C19 O4 1.259 1_556 S
Tb20 O23 2.453 . S
Tb20 O24 2.596 . S
Tb20 O25 2.374 . S
Tb20 O33 2.343 . S
Tb20 O35 2.353 . S
Tb20 O37 2.427 . S
Tb20 O38 2.513 . S
C21 O25 1.251 . S
C21 O27 1.263 . S
Tb22 O24 2.343 . S
Tb22 O27 2.353 . S
Tb22 O30 2.427 . S
Tb22 O31 2.513 . S
Tb22 O32 2.453 1_556 S
Tb22 O33 2.596 . S
Tb22 O34 2.374 . S
O23 Tb20 2.453 . S
O23 C39 1.245 . S
O24 Tb20 2.596 . S
O24 Tb22 2.343 . S
O24 C39 1.259 . S
O25 Tb20 2.374 . S
O25 C21 1.251 . S
C26 O30 1.275 . S
C26 O31 1.246 . S
O27 C21 1.263 . S
O27 Tb22 2.353 . S
C28 O32 1.245 . S
C28 O33 1.259 1_554 S
C29 O34 1.250 . S
C29 O35 1.263 . S
O30 Tb22 2.427 . S
O30 C26 1.275 . S
O31 Tb22 2.513 . S
O31 C26 1.246 . S
O32 Tb22 2.453 1_554 S
O32 C28 1.245 . S
O33 Tb20 2.343 . S
O33 Tb22 2.596 . S
O33 C28 1.259 1_556 S
O34 Tb22 2.374 . S
O34 C29 1.250 . S
O35 Tb20 2.353 . S
O35 C29 1.263 . S
C36 O37 1.275 . S
C36 O38 1.246 . S
O37 Tb20 2.427 . S
O37 C36 1.275 . S
O38 Tb20 2.513 . S
O38 C36 1.246 . S
C39 O23 1.245 . S
C39 O24 1.259 . S
Tb40 O43 2.453 1_554 S
Tb40 O44 2.596 . S
Tb40 O45 2.374 . S
Tb40 O53 2.343 . S
Tb40 O55 2.353 . S
Tb40 O57 2.427 . S
Tb40 O58 2.513 . S
C41 O45 1.251 . S
C41 O47 1.263 . S
Tb42 O44 2.343 . S
Tb42 O47 2.353 . S
Tb42 O50 2.427 . S
Tb42 O51 2.513 . S
Tb42 O52 2.453 . S
Tb42 O53 2.596 . S
Tb42 O54 2.374 . S
O43 Tb40 2.453 1_556 S
O43 C59 1.245 . S
O44 Tb40 2.596 . S
O44 Tb42 2.343 . S
O44 C59 1.259 1_554 S
O45 Tb40 2.374 . S
O45 C41 1.251 . S
C46 O50 1.275 . S
C46 O51 1.246 . S
O47 C41 1.263 . S
O47 Tb42 2.353 . S
C48 O52 1.245 . S
C48 O53 1.259 . S
C49 O54 1.250 . S
C49 O55 1.263 . S
O50 Tb42 2.427 . S
O50 C46 1.275 . S
O51 Tb42 2.513 . S
O51 C46 1.246 . S
O52 Tb42 2.453 . S
O52 C48 1.245 . S
O53 Tb40 2.343 . S
O53 Tb42 2.596 . S
O53 C48 1.259 . S
O54 Tb42 2.374 . S
O54 C49 1.250 . S
O55 Tb40 2.353 . S
O55 C49 1.263 . S
C56 O57 1.275 . S
C56 O58 1.246 . S
O57 Tb40 2.427 . S
O57 C56 1.275 . S
O58 Tb40 2.513 . S
O58 C56 1.246 . S
C59 O43 1.245 . S
C59 O44 1.259 1_556 S
Tb60 O63 2.453 . S
Tb60 O64 2.596 . S
Tb60 O65 2.374 . S
Tb60 O73 2.343 . S
Tb60 O75 2.353 . S
Tb60 O77 2.427 . S
Tb60 O78 2.513 . S
C61 O65 1.251 . S
C61 O67 1.263 . S
Tb62 O64 2.343 . S
Tb62 O67 2.353 . S
Tb62 O70 2.427 . S
Tb62 O71 2.513 . S
Tb62 O72 2.453 1_556 S
Tb62 O73 2.596 . S
Tb62 O74 2.374 . S
O63 Tb60 2.453 . S
O63 C79 1.245 . S
O64 Tb60 2.596 . S
O64 Tb62 2.343 . S
O64 C79 1.259 . S
O65 Tb60 2.374 . S
O65 C61 1.251 . S
C66 O70 1.275 . S
C66 O71 1.246 . S
O67 C61 1.263 . S
O67 Tb62 2.353 . S
C68 O72 1.245 . S
C68 O73 1.259 1_554 S
C69 O74 1.250 . S
C69 O75 1.263 . S
O70 Tb62 2.427 . S
O70 C66 1.275 . S
O71 Tb62 2.513 . S
O71 C66 1.246 . S
O72 Tb62 2.453 1_554 S
O72 C68 1.245 . S
O73 Tb60 2.343 . S
O73 Tb62 2.596 . S
O73 C68 1.259 1_556 S
O74 Tb62 2.374 . S
O74 C69 1.250 . S
O75 Tb60 2.353 . S
O75 C69 1.263 . S
C76 O77 1.275 . S
C76 O78 1.246 . S
O77 Tb60 2.427 . S
O77 C76 1.275 . S
O78 Tb60 2.513 . S
O78 C76 1.246 . S
C79 O63 1.245 . S
C79 O64 1.259 . S
Tb80 O83 2.453 . S
Tb80 O84 2.596 . S
Tb80 O85 2.374 . S
Tb80 O93 2.343 . S
Tb80 O95 2.353 . S
Tb80 O97 2.427 . S
Tb80 O98 2.513 . S
C81 O85 1.251 . S
C81 O87 1.263 . S
Tb82 O84 2.343 . S
Tb82 O87 2.353 . S
Tb82 O90 2.427 . S
Tb82 O91 2.513 . S
Tb82 O92 2.453 1_554 S
Tb82 O93 2.596 . S
Tb82 O94 2.374 . S
O83 Tb80 2.453 . S
O83 C99 1.245 . S
O84 Tb80 2.596 . S
O84 Tb82 2.343 . S
O84 C99 1.259 . S
O85 Tb80 2.374 . S
O85 C81 1.251 . S
C86 O90 1.275 . S
C86 O91 1.246 . S
O87 C81 1.263 . S
O87 Tb82 2.353 . S
C88 O92 1.245 . S
C88 O93 1.259 1_556 S
C89 O94 1.250 . S
C89 O95 1.263 . S
O90 Tb82 2.427 . S
O90 C86 1.275 . S
O91 Tb82 2.513 . S
O91 C86 1.246 . S
O92 Tb82 2.453 1_556 S
O92 C88 1.245 . S
O93 Tb80 2.343 . S
O93 Tb82 2.596 . S
O93 C88 1.259 1_554 S
O94 Tb82 2.374 . S
O94 C89 1.250 . S
O95 Tb80 2.353 . S
O95 C89 1.263 . S
C96 O97 1.275 . S
C96 O98 1.246 . S
O97 Tb80 2.427 . S
O97 C96 1.275 . S
O98 Tb80 2.513 . S
O98 C96 1.246 . S
C99 O83 1.245 . S
C99 O84 1.259 . S
Tb100 O103 2.453 1_556 S
Tb100 O104 2.596 . S
Tb100 O105 2.374 . S
Tb100 O113 2.343 . S
Tb100 O115 2.353 . S
Tb100 O117 2.427 . S
Tb100 O118 2.513 . S
C101 O105 1.251 . S
C101 O107 1.263 . S
Tb102 O104 2.343 . S
Tb102 O107 2.353 . S
Tb102 O110 2.427 . S
Tb102 O111 2.513 . S
Tb102 O112 2.453 . S
Tb102 O113 2.596 . S
Tb102 O114 2.374 . S
O103 Tb100 2.453 1_554 S
O103 C119 1.245 . S
O104 Tb100 2.596 . S
O104 Tb102 2.343 . S
O104 C119 1.259 1_556 S
O105 Tb100 2.374 . S
O105 C101 1.251 . S
C106 O110 1.275 . S
C106 O111 1.246 . S
O107 C101 1.263 . S
O107 Tb102 2.353 . S
C108 O112 1.245 . S
C108 O113 1.259 . S
C109 O114 1.250 . S
C109 O115 1.263 . S
O110 Tb102 2.427 . S
O110 C106 1.275 . S
O111 Tb102 2.513 . S
O111 C106 1.246 . S
O112 Tb102 2.453 . S
O112 C108 1.245 . S
O113 Tb100 2.343 . S
O113 Tb102 2.596 . S
O113 C108 1.259 . S
O114 Tb102 2.374 . S
O114 C109 1.250 . S
O115 Tb100 2.353 . S
O115 C109 1.263 . S
C116 O117 1.275 . S
C116 O118 1.246 . S
O117 Tb100 2.427 . S
O117 C116 1.275 . S
O118 Tb100 2.513 . S
O118 C116 1.246 . S
C119 O103 1.245 . S
C119 O104 1.259 1_554 S
Tb120 O123 2.453 . S
Tb120 O124 2.596 . S
Tb120 O125 2.374 . S
Tb120 O133 2.343 . S
Tb120 O135 2.353 . S
Tb120 O137 2.427 . S
Tb120 O138 2.513 . S
C121 O125 1.251 . S
C121 O127 1.263 . S
Tb122 O124 2.343 . S
Tb122 O127 2.353 . S
Tb122 O130 2.427 . S
Tb122 O131 2.513 . S
Tb122 O132 2.453 1_554 S
Tb122 O133 2.596 . S
Tb122 O134 2.374 . S
O123 Tb120 2.453 . S
O123 C139 1.245 . S
O124 Tb120 2.596 . S
O124 Tb122 2.343 . S
O124 C139 1.259 . S
O125 Tb120 2.374 . S
O125 C121 1.251 . S
C126 O130 1.275 . S
C126 O131 1.246 . S
O127 C121 1.263 . S
O127 Tb122 2.353 . S
C128 O132 1.245 . S
C128 O133 1.259 1_556 S
C129 O134 1.250 . S
C129 O135 1.263 . S
O130 Tb122 2.427 . S
O130 C126 1.275 . S
O131 Tb122 2.513 . S
O131 C126 1.246 . S
O132 Tb122 2.453 1_556 S
O132 C128 1.245 . S
O133 Tb120 2.343 . S
O133 Tb122 2.596 . S
O133 C128 1.259 1_554 S
O134 Tb122 2.374 . S
O134 C129 1.250 . S
O135 Tb120 2.353 . S
O135 C129 1.263 . S
C136 O137 1.275 . S
C136 O138 1.246 . S
O137 Tb120 2.427 . S
O137 C136 1.275 . S
O138 Tb120 2.513 . S
O138 C136 1.246 . S
C139 O123 1.245 . S
C139 O124 1.259 . S
Tb140 O143 2.453 1_556 S
Tb140 O144 2.596 . S
Tb140 O145 2.374 . S
Tb140 O153 2.343 . S
Tb140 O155 2.353 . S
Tb140 O157 2.427 . S
Tb140 O158 2.513 . S
C141 O145 1.251 . S
C141 O147 1.263 . S
Tb142 O144 2.343 . S
Tb142 O147 2.353 . S
Tb142 O150 2.427 . S
Tb142 O151 2.513 . S
Tb142 O152 2.453 . S
Tb142 O153 2.596 . S
Tb142 O154 2.374 . S
O143 Tb140 2.453 1_554 S
O143 C159 1.245 . S
O144 Tb140 2.596 . S
O144 Tb142 2.343 . S
O144 C159 1.259 1_556 S
O145 Tb140 2.374 . S
O145 C141 1.251 . S
C146 O150 1.275 . S
C146 O151 1.246 . S
O147 C141 1.263 . S
O147 Tb142 2.353 . S
C148 O152 1.245 . S
C148 O153 1.259 . S
C149 O154 1.250 . S
C149 O155 1.263 . S
O150 Tb142 2.427 . S
O150 C146 1.275 . S
O151 Tb142 2.513 . S
O151 C146 1.246 . S
O152 Tb142 2.453 . S
O152 C148 1.245 . S
O153 Tb140 2.343 . S
O153 Tb142 2.596 . S
O153 C148 1.259 . S
O154 Tb142 2.374 . S
O154 C149 1.250 . S
O155 Tb140 2.353 . S
O155 C149 1.263 . S
C156 O157 1.275 . S
C156 O158 1.246 . S
O157 Tb140 2.427 . S
O157 C156 1.275 . S
O158 Tb140 2.513 . S
O158 C156 1.246 . S
C159 O143 1.245 . S
C159 O144 1.259 1_554 S
Tb160 O163 2.453 . S
Tb160 O164 2.596 . S
Tb160 O165 2.374 . S
Tb160 O173 2.343 . S
Tb160 O175 2.353 . S
Tb160 O177 2.427 . S
Tb160 O178 2.513 . S
C161 O165 1.251 . S
C161 O167 1.263 . S
Tb162 O164 2.343 . S
Tb162 O167 2.353 . S
Tb162 O170 2.427 . S
Tb162 O171 2.513 . S
Tb162 O172 2.453 . S
Tb162 O173 2.596 . S
Tb162 O174 2.374 . S
O163 Tb160 2.453 . S
O163 C179 1.245 . S
O164 Tb160 2.596 . S
O164 Tb162 2.343 . S
O164 C179 1.259 . S
O165 Tb160 2.374 . S
O165 C161 1.251 . S
C166 O170 1.275 . S
C166 O171 1.246 . S
O167 C161 1.263 . S
O167 Tb162 2.353 . S
C168 O172 1.245 . S
C168 O173 1.259 . S
C169 O174 1.250 . S
C169 O175 1.263 . S
O170 Tb162 2.427 . S
O170 C166 1.275 . S
O171 Tb162 2.513 . S
O171 C166 1.246 . S
O172 Tb162 2.453 . S
O172 C168 1.245 . S
O173 Tb160 2.343 . S
O173 Tb162 2.596 . S
O173 C168 1.259 . S
O174 Tb162 2.374 . S
O174 C169 1.250 . S
O175 Tb160 2.353 . S
O175 C169 1.263 . S
C176 O177 1.275 . S
C176 O178 1.246 . S
O177 Tb160 2.427 . S
O177 C176 1.275 . S
O178 Tb160 2.513 . S
O178 C176 1.246 . S
C179 O163 1.245 . S
C179 O164 1.259 . S
Tb180 O183 2.453 . S
Tb180 O184 2.596 . S
Tb180 O185 2.374 . S
Tb180 O193 2.343 . S
Tb180 O195 2.353 . S
Tb180 O197 2.427 . S
Tb180 O198 2.513 . S
C181 O185 1.251 . S
C181 O187 1.263 . S
Tb182 O184 2.343 . S
Tb182 O187 2.353 . S
Tb182 O190 2.427 . S
Tb182 O191 2.513 . S
Tb182 O192 2.453 . S
Tb182 O193 2.596 . S
Tb182 O194 2.374 . S
O183 Tb180 2.453 . S
O183 C199 1.245 . S
O184 Tb180 2.596 . S
O184 Tb182 2.343 . S
O184 C199 1.259 . S
O185 Tb180 2.374 . S
O185 C181 1.251 . S
C186 O190 1.275 . S
C186 O191 1.246 . S
O187 C181 1.263 . S
O187 Tb182 2.353 . S
C188 O192 1.245 . S
C188 O193 1.259 . S
C189 O194 1.250 . S
C189 O195 1.263 . S
O190 Tb182 2.427 . S
O190 C186 1.275 . S
O191 Tb182 2.513 . S
O191 C186 1.246 . S
O192 Tb182 2.453 . S
O192 C188 1.245 . S
O193 Tb180 2.343 . S
O193 Tb182 2.596 . S
O193 C188 1.259 . S
O194 Tb182 2.374 . S
O194 C189 1.250 . S
O195 Tb180 2.353 . S
O195 C189 1.263 . S
C196 O197 1.275 . S
C196 O198 1.246 . S
O197 Tb180 2.427 . S
O197 C196 1.275 . S
O198 Tb180 2.513 . S
O198 C196 1.246 . S
C199 O183 1.245 . S
C199 O184 1.259 . S
Tb200 O203 2.453 . S
Tb200 O204 2.596 . S
Tb200 O205 2.374 . S
Tb200 O213 2.343 . S
Tb200 O215 2.353 . S
Tb200 O217 2.427 . S
Tb200 O218 2.513 . S
C201 O205 1.251 . S
C201 O207 1.263 . S
Tb202 O204 2.343 . S
Tb202 O207 2.353 . S
Tb202 O210 2.427 . S
Tb202 O211 2.513 . S
Tb202 O212 2.453 . S
Tb202 O213 2.596 . S
Tb202 O214 2.374 . S
O203 Tb200 2.453 . S
O203 C219 1.245 . S
O204 Tb200 2.596 . S
O204 Tb202 2.343 . S
O204 C219 1.259 . S
O205 Tb200 2.374 . S
O205 C201 1.251 . S
C206 O210 1.275 . S
C206 O211 1.246 . S
O207 C201 1.263 . S
O207 Tb202 2.353 . S
C208 O212 1.245 . S
C208 O213 1.259 . S
C209 O214 1.250 . S
C209 O215 1.263 . S
O210 Tb202 2.427 . S
O210 C206 1.275 . S
O211 Tb202 2.513 . S
O211 C206 1.246 . S
O212 Tb202 2.453 . S
O212 C208 1.245 . S
O213 Tb200 2.343 . S
O213 Tb202 2.596 . S
O213 C208 1.259 . S
O214 Tb202 2.374 . S
O214 C209 1.250 . S
O215 Tb200 2.353 . S
O215 C209 1.263 . S
C216 O217 1.275 . S
C216 O218 1.246 . S
O217 Tb200 2.427 . S
O217 C216 1.275 . S
O218 Tb200 2.513 . S
O218 C216 1.246 . S
C219 O203 1.245 . S
C219 O204 1.259 . S
Tb220 O223 2.453 . S
Tb220 O224 2.596 . S
Tb220 O225 2.374 . S
Tb220 O233 2.343 . S
Tb220 O235 2.353 . S
Tb220 O237 2.427 . S
Tb220 O238 2.513 . S
C221 O225 1.251 . S
C221 O227 1.263 . S
Tb222 O224 2.343 . S
Tb222 O227 2.353 . S
Tb222 O230 2.427 . S
Tb222 O231 2.513 . S
Tb222 O232 2.453 . S
Tb222 O233 2.596 . S
Tb222 O234 2.374 . S
O223 Tb220 2.453 . S
O223 C239 1.245 . S
O224 Tb220 2.596 . S
O224 Tb222 2.343 . S
O224 C239 1.259 . S
O225 Tb220 2.374 . S
O225 C221 1.251 . S
C226 O230 1.275 . S
C226 O231 1.246 . S
O227 C221 1.263 . S
O227 Tb222 2.353 . S
C228 O232 1.245 . S
C228 O233 1.259 . S
C229 O234 1.250 . S
C229 O235 1.263 . S
O230 Tb222 2.427 . S
O230 C226 1.275 . S
O231 Tb222 2.513 . S
O231 C226 1.246 . S
O232 Tb222 2.453 . S
O232 C228 1.245 . S
O233 Tb220 2.343 . S
O233 Tb222 2.596 . S
O233 C228 1.259 . S
O234 Tb222 2.374 . S
O234 C229 1.250 . S
O235 Tb220 2.353 . S
O235 C229 1.263 . S
C236 O237 1.275 . S
C236 O238 1.246 . S
O237 Tb220 2.427 . S
O237 C236 1.275 . S
O238 Tb220 2.513 . S
O238 C236 1.246 . S
C239 O223 1.245 . S
C239 O224 1.259 . S
Tb240 O243 2.453 . S
Tb240 O244 2.596 . S
Tb240 O245 2.374 . S
Tb240 O253 2.343 . S
Tb240 O255 2.353 . S
Tb240 O257 2.427 . S
Tb240 O258 2.513 . S
C241 O245 1.251 . S
C241 O247 1.263 . S
Tb242 O244 2.343 . S
Tb242 O247 2.353 . S
Tb242 O250 2.427 . S
Tb242 O251 2.513 . S
Tb242 O252 2.453 . S
Tb242 O253 2.596 . S
Tb242 O254 2.374 . S
O243 Tb240 2.453 . S
O243 C259 1.245 . S
O244 Tb240 2.596 . S
O244 Tb242 2.343 . S
O244 C259 1.259 . S
O245 Tb240 2.374 . S
O245 C241 1.251 . S
C246 O250 1.275 . S
C246 O251 1.246 . S
O247 C241 1.263 . S
O247 Tb242 2.353 . S
C248 O252 1.245 . S
C248 O253 1.259 . S
C249 O254 1.250 . S
C249 O255 1.263 . S
O250 Tb242 2.427 . S
O250 C246 1.275 . S
O251 Tb242 2.513 . S
O251 C246 1.246 . S
O252 Tb242 2.453 . S
O252 C248 1.245 . S
O253 Tb240 2.343 . S
O253 Tb242 2.596 . S
O253 C248 1.259 . S
O254 Tb242 2.374 . S
O254 C249 1.250 . S
O255 Tb240 2.353 . S
O255 C249 1.263 . S
C256 O257 1.275 . S
C256 O258 1.246 . S
O257 Tb240 2.427 . S
O257 C256 1.275 . S
O258 Tb240 2.513 . S
O258 C256 1.246 . S
C259 O243 1.245 . S
C259 O244 1.259 . S
Tb260 O263 2.453 . S
Tb260 O264 2.596 . S
Tb260 O265 2.374 . S
Tb260 O273 2.343 . S
Tb260 O275 2.353 . S
Tb260 O277 2.427 . S
Tb260 O278 2.513 . S
C261 O265 1.251 . S
C261 O267 1.263 . S
Tb262 O264 2.343 . S
Tb262 O267 2.353 . S
Tb262 O270 2.427 . S
Tb262 O271 2.513 . S
Tb262 O272 2.453 . S
Tb262 O273 2.596 . S
Tb262 O274 2.374 . S
O263 Tb260 2.453 . S
O263 C279 1.245 . S
O264 Tb260 2.596 . S
O264 Tb262 2.343 . S
O264 C279 1.259 . S
O265 Tb260 2.374 . S
O265 C261 1.251 . S
C266 O270 1.275 . S
C266 O271 1.246 . S
O267 C261 1.263 . S
O267 Tb262 2.353 . S
C268 O272 1.245 . S
C268 O273 1.259 . S
C269 O274 1.250 . S
C269 O275 1.263 . S
O270 Tb262 2.427 . S
O270 C266 1.275 . S
O271 Tb262 2.513 . S
O271 C266 1.246 . S
O272 Tb262 2.453 . S
O272 C268 1.245 . S
O273 Tb260 2.343 . S
O273 Tb262 2.596 . S
O273 C268 1.259 . S
O274 Tb262 2.374 . S
O274 C269 1.250 . S
O275 Tb260 2.353 . S
O275 C269 1.263 . S
C276 O277 1.275 . S
C276 O278 1.246 . S
O277 Tb260 2.427 . S
O277 C276 1.275 . S
O278 Tb260 2.513 . S
O278 C276 1.246 . S
C279 O263 1.245 . S
C279 O264 1.259 . S
Tb280 O283 2.453 . S
Tb280 O284 2.596 . S
Tb280 O285 2.374 . S
Tb280 O293 2.343 . S
Tb280 O295 2.353 . S
Tb280 O297 2.427 . S
Tb280 O298 2.513 . S
C281 O285 1.251 . S
C281 O287 1.263 . S
Tb282 O284 2.343 . S
Tb282 O287 2.353 . S
Tb282 O290 2.427 . S
Tb282 O291 2.513 . S
Tb282 O292 2.453 . S
Tb282 O293 2.596 . S
Tb282 O294 2.374 . S
O283 Tb280 2.453 . S
O283 C299 1.245 . S
O284 Tb280 2.596 . S
O284 Tb282 2.343 . S
O284 C299 1.259 . S
O285 Tb280 2.374 . S
O285 C281 1.251 . S
C286 O290 1.275 . S
C286 O291 1.246 . S
O287 C281 1.263 . S
O287 Tb282 2.353 . S
C288 O292 1.245 . S
C288 O293 1.259 . S
C289 O294 1.250 . S
C289 O295 1.263 . S
O290 Tb282 2.427 . S
O290 C286 1.275 . S
O291 Tb282 2.513 . S
O291 C286 1.246 . S
O292 Tb282 2.453 . S
O292 C288 1.245 . S
O293 Tb280 2.343 . S
O293 Tb282 2.596 . S
O293 C288 1.259 . S
O294 Tb282 2.374 . S
O294 C289 1.250 . S
O295 Tb280 2.353 . S
O295 C289 1.263 . S
C296 O297 1.275 . S
C296 O298 1.246 . S
O297 Tb280 2.427 . S
O297 C296 1.275 . S
O298 Tb280 2.513 . S
O298 C296 1.246 . S
C299 O283 1.245 . S
C299 O284 1.259 . S
Tb300 O303 2.453 . S
Tb300 O304 2.596 . S
Tb300 O305 2.374 . S
Tb300 O313 2.343 . S
Tb300 O315 2.353 . S
Tb300 O317 2.427 . S
Tb300 O318 2.513 . S
C301 O305 1.251 . S
C301 O307 1.263 . S
Tb302 O304 2.343 . S
Tb302 O307 2.353 . S
Tb302 O310 2.427 . S
Tb302 O311 2.513 . S
Tb302 O312 2.453 . S
Tb302 O313 2.596 . S
Tb302 O314 2.374 . S
O303 Tb300 2.453 . S
O303 C319 1.245 . S
O304 Tb300 2.596 . S
O304 Tb302 2.343 . S
O304 C319 1.259 . S
O305 Tb300 2.374 . S
O305 C301 1.251 . S
C306 O310 1.275 . S
C306 O311 1.246 . S
O307 C301 1.263 . S
O307 Tb302 2.353 . S
C308 O312 1.245 . S
C308 O313 1.259 . S
C309 O314 1.250 . S
C309 O315 1.263 . S
O310 Tb302 2.427 . S
O310 C306 1.275 . S
O311 Tb302 2.513 . S
O311 C306 1.246 . S
O312 Tb302 2.453 . S
O312 C308 1.245 . S
O313 Tb300 2.343 . S
O313 Tb302 2.596 . S
O313 C308 1.259 . S
O314 Tb302 2.374 . S
O314 C309 1.250 . S
O315 Tb300 2.353 . S
O315 C309 1.263 . S
C316 O317 1.275 . S
C316 O318 1.246 . S
O317 Tb300 2.427 . S
O317 C316 1.275 . S
O318 Tb300 2.513 . S
O318 C316 1.246 . S
C319 O303 1.245 . S
C319 O304 1.259 . S
H320 C326 0.930 . S
H321 C330 0.930 . S
H322 C335 0.929 . S
H323 C333 0.929 . S
H324 C328 0.929 . S
H325 C334 0.953 . S
C326 H320 0.930 . S
C326 C327 1.367 . S
C326 C334 1.378 . S
C327 C326 1.367 . S
C327 C335 1.433 . S
C328 H324 0.929 . S
C328 C330 1.378 . S
C328 C332 1.350 . S
C329 C332 1.480 . S
C329 C334 1.343 1_545 S
C329 N337 1.419 1_545 S
C330 H321 0.930 . S
C330 C328 1.378 . S
C330 C331 1.367 . S
C331 C330 1.367 . S
C331 C333 1.433 . S
C332 C328 1.350 . S
C332 C329 1.480 . S
C332 N336 1.427 . S
C333 H323 0.929 . S
C333 C331 1.433 . S
C333 N336 1.384 . S
C334 H325 0.953 . S
C334 C326 1.378 . S
C334 C329 1.343 1_565 S
C335 H322 0.929 . S
C335 C327 1.433 . S
C335 N337 1.384 . S
N336 C332 1.427 . S
N336 C333 1.384 . S
N337 C329 1.419 1_565 S
N337 C335 1.384 . S
H338 C344 0.930 . S
H339 C348 0.930 . S
H340 C353 0.929 . S
H341 C351 0.929 . S
H342 C346 0.929 . S
H343 C352 0.929 . S
C344 H338 0.930 . S
C344 C345 1.367 . S
C344 C352 1.378 . S
C345 C344 1.367 . S
C345 C353 1.433 . S
C346 H342 0.929 . S
C346 C348 1.378 . S
C346 C350 1.350 . S
C347 C350 1.473 . S
C347 C352 1.344 1_455 S
C347 N355 1.424 1_455 S
C348 H339 0.930 . S
C348 C346 1.378 . S
C348 C349 1.367 . S
C349 C348 1.367 . S
C349 C351 1.433 . S
C350 C346 1.350 . S
C350 C347 1.473 . S
C350 N354 1.427 . S
C351 H341 0.929 . S
C351 C349 1.433 . S
C351 N354 1.384 . S
C352 H343 0.929 . S
C352 C344 1.378 . S
C352 C347 1.344 1_655 S
C353 H340 0.929 . S
C353 C345 1.433 . S
C353 N355 1.384 . S
N354 C350 1.427 . S
N354 C351 1.384 . S
N355 C347 1.424 1_655 S
N355 C353 1.384 . S
H356 C362 0.930 . S
H357 C366 0.930 . S
H358 C371 0.929 . S
H359 C369 0.929 . S
H360 C364 0.929 . S
H361 C370 0.929 . S
C362 H356 0.930 . S
C362 C363 1.367 . S
C362 C370 1.378 . S
C363 C362 1.367 . S
C363 C371 1.433 . S
C364 H360 0.929 . S
C364 C366 1.378 . S
C364 C368 1.344 1_545 S
C365 C368 1.474 . S
C365 C370 1.350 . S
C365 N373 1.427 . S
C366 H357 0.930 . S
C366 C364 1.378 . S
C366 C367 1.367 . S
C367 C366 1.367 . S
C367 C369 1.433 . S
C368 C364 1.344 1_565 S
C368 C365 1.474 . S
C368 N372 1.423 1_565 S
C369 H359 0.929 . S
C369 C367 1.433 . S
C369 N372 1.384 . S
C370 H361 0.929 . S
C370 C362 1.378 . S
C370 C365 1.350 . S
C371 H358 0.929 . S
C371 C363 1.433 . S
C371 N373 1.384 . S
N372 C368 1.423 1_545 S
N372 C369 1.384 . S
N373 C365 1.427 . S
N373 C371 1.384 . S
H374 C380 0.930 . S
H375 C384 0.930 . S
H376 C389 0.929 . S
H377 C387 0.929 . S
H378 C382 0.907 1_655 S
H379 C388 0.929 . S
C380 H374 0.930 . S
C380 C381 1.367 . S
C380 C388 1.378 . S
C381 C380 1.367 . S
C381 C389 1.433 . S
C382 H378 0.907 1_455 S
C382 C384 1.378 . S
C382 C386 1.343 1_455 S
C383 C386 1.481 . S
C383 C388 1.350 . S
C383 N391 1.427 . S
C384 H375 0.930 . S
C384 C382 1.378 . S
C384 C385 1.367 . S
C385 C384 1.367 . S
C385 C387 1.433 . S
C386 C382 1.343 1_655 S
C386 C383 1.481 . S
C386 N390 1.417 1_655 S
C387 H377 0.929 . S
C387 C385 1.433 . S
C387 N390 1.384 . S
C388 H379 0.929 . S
C388 C380 1.378 . S
C388 C383 1.350 . S
C389 H376 0.929 . S
C389 C381 1.433 . S
C389 N391 1.384 . S
N390 C386 1.417 1_455 S
N390 C387 1.384 . S
N391 C383 1.427 . S
N391 C389 1.384 . S
H392 C398 0.930 . S
H393 C402 0.930 . S
H394 C407 0.929 . S
H395 C405 0.929 . S
H396 C400 0.929 1_556 S
H397 C406 0.929 . S
C398 H392 0.930 . S
C398 C399 1.367 . S
C398 C406 1.378 . S
C399 C398 1.367 . S
C399 C407 1.433 . S
C400 H396 0.929 1_554 S
C400 C402 1.378 1_554 S
C400 C404 1.350 . S
C401 C404 1.463 . S
C401 C406 1.350 . S
C401 N409 1.427 . S
C402 H393 0.930 . S
C402 C400 1.378 1_556 S
C402 C403 1.367 1_556 S
C403 C402 1.367 1_554 S
C403 C405 1.433 . S
C404 C400 1.350 . S
C404 C401 1.463 . S
C404 N408 1.427 . S
C405 H395 0.929 . S
C405 C403 1.433 . S
C405 N408 1.384 . S
C406 H397 0.929 . S
C406 C398 1.378 . S
C406 C401 1.350 . S
C407 H394 0.929 . S
C407 C399 1.433 . S
C407 N409 1.384 . S
N408 C404 1.427 . S
N408 C405 1.384 . S
N409 C401 1.427 . S
N409 C407 1.384 . S
H410 C416 0.930 . S
H411 C420 0.930 . S
H412 C425 0.929 . S
H413 C423 0.929 . S
H414 C418 0.929 . S
H415 C424 0.929 . S
C416 H410 0.930 . S
C416 C417 1.367 1_554 S
C416 C424 1.378 . S
C417 C416 1.367 1_556 S
C417 C425 1.433 . S
C418 H414 0.929 . S
C418 C420 1.378 . S
C418 C422 1.350 . S
C419 C422 1.463 . S
C419 C424 1.350 1_556 S
C419 N427 1.427 . S
C420 H411 0.930 . S
C420 C418 1.378 . S
C420 C421 1.367 . S
C421 C420 1.367 . S
C421 C423 1.433 1_556 S
C422 C418 1.350 . S
C422 C419 1.463 . S
C422 N426 1.427 1_556 S
C423 H413 0.929 . S
C423 C421 1.433 1_554 S
C423 N426 1.384 . S
C424 H415 0.929 . S
C424 C416 1.378 . S
C424 C419 1.350 1_554 S
C425 H412 0.929 . S
C425 C417 1.433 . S
C425 N427 1.384 . S
N426 C422 1.427 1_554 S
N426 C423 1.384 . S
N427 C419 1.427 . S
N427 C425 1.384 . S
H428 C434 0.930 . S
H429 C438 0.930 . S
H430 C443 0.929 . S
H431 C441 0.929 . S
H432 C436 0.929 . S
H433 C442 0.929 . S
C434 H428 0.930 . S
C434 C435 1.367 . S
C434 C442 1.378 . S
C435 C434 1.367 . S
C435 C443 1.433 1_554 S
C436 H432 0.929 . S
C436 C438 1.378 . S
C436 C440 1.350 1_556 S
C437 C440 1.463 . S
C437 C442 1.350 . S
C437 N445 1.427 1_554 S
C438 H429 0.930 . S
C438 C436 1.378 . S
C438 C439 1.367 1_556 S
C439 C438 1.367 1_554 S
C439 C441 1.433 . S
C440 C436 1.350 1_554 S
C440 C437 1.463 . S
C440 N444 1.427 . S
C441 H431 0.929 . S
C441 C439 1.433 . S
C441 N444 1.384 . S
C442 H433 0.929 . S
C442 C434 1.378 . S
C442 C437 1.350 . S
C443 H430 0.929 . S
C443 C435 1.433 1_556 S
C443 N445 1.384 . S
N444 C440 1.427 . S
N444 C441 1.384 . S
N445 C437 1.427 1_556 S
N445 C443 1.384 . S
H446 C452 0.930 1_554 S
H447 C456 0.930 . S
H448 C461 0.929 . S
H449 C459 0.929 . S
H450 C454 0.929 . S
H451 C460 0.927 1_554 S
C452 H446 0.930 1_556 S
C452 C453 1.367 . S
C452 C460 1.378 . S
C453 C452 1.367 . S
C453 C461 1.433 . S
C454 H450 0.929 . S
C454 C456 1.378 . S
C454 C458 1.350 . S
C455 C458 1.463 . S
C455 C460 1.350 . S
C455 N463 1.427 . S
C456 H447 0.930 . S
C456 C454 1.378 . S
C456 C457 1.367 . S
C457 C456 1.367 . S
C457 C459 1.433 . S
C458 C454 1.350 . S
C458 C455 1.463 . S
C458 N462 1.427 . S
C459 H449 0.929 . S
C459 C457 1.433 . S
C459 N462 1.384 . S
C460 H451 0.927 1_556 S
C460 C452 1.378 . S
C460 C455 1.350 . S
C461 H448 0.929 . S
C461 C453 1.433 . S
C461 N463 1.384 . S
N462 C458 1.427 . S
N462 C459 1.384 . S
N463 C455 1.427 . S
N463 C461 1.384 . S
H464 C470 0.930 . S
H465 C474 0.930 . S
H466 C479 0.929 . S
H467 C477 0.929 . S
H468 C472 0.929 . S
H469 C478 0.929 . S
C470 H464 0.930 . S
C470 C471 1.367 . S
C470 C478 1.378 . S
C471 C470 1.367 . S
C471 C479 1.433 . S
C472 H468 0.929 . S
C472 C474 1.378 . S
C472 C476 1.350 . S
C473 C476 1.463 . S
C473 C478 1.350 . S
C473 N481 1.427 . S
C474 H465 0.930 . S
C474 C472 1.378 . S
C474 C475 1.367 . S
C475 C474 1.367 . S
C475 C477 1.433 . S
C476 C472 1.350 . S
C476 C473 1.463 . S
C476 N480 1.427 . S
C477 H467 0.929 . S
C477 C475 1.433 . S
C477 N480 1.384 . S
C478 H469 0.929 . S
C478 C470 1.378 . S
C478 C473 1.350 . S
C479 H466 0.929 . S
C479 C471 1.433 . S
C479 N481 1.384 . S
N480 C476 1.427 . S
N480 C477 1.384 . S
N481 C473 1.427 . S
N481 C479 1.384 . S
H482 C488 0.930 . S
H483 C492 0.930 . S
H484 C497 0.929 . S
H485 C495 0.929 . S
H486 C490 0.929 . S
H487 C496 0.929 . S
C488 H482 0.930 . S
C488 C489 1.367 . S
C488 C496 1.378 . S
C489 C488 1.367 . S
C489 C497 1.433 . S
C490 H486 0.929 . S
C490 C492 1.378 . S
C490 C494 1.350 . S
C491 C494 1.463 . S
C491 C496 1.350 . S
C491 N499 1.427 . S
C492 H483 0.930 . S
C492 C490 1.378 . S
C492 C493 1.367 . S
C493 C492 1.367 . S
C493 C495 1.433 . S
C494 C490 1.350 . S
C494 C491 1.463 . S
C494 N498 1.427 . S
C495 H485 0.929 . S
C495 C493 1.433 . S
C495 N498 1.384 . S
C496 H487 0.929 . S
C496 C488 1.378 . S
C496 C491 1.350 . S
C497 H484 0.929 . S
C497 C489 1.433 . S
C497 N499 1.384 . S
N498 C494 1.427 . S
N498 C495 1.384 . S
N499 C491 1.427 . S
N499 C497 1.384 . S
H500 C506 0.930 . S
H501 C510 0.930 . S
H502 C515 0.929 . S
H503 C513 0.929 . S
H504 C508 0.929 . S
H505 C514 0.929 . S
C506 H500 0.930 . S
C506 C507 1.367 . S
C506 C514 1.378 . S
C507 C506 1.367 . S
C507 C515 1.433 . S
C508 H504 0.929 . S
C508 C510 1.378 . S
C508 C512 1.350 . S
C509 C512 1.463 . S
C509 C514 1.350 . S
C509 N517 1.427 . S
C510 H501 0.930 . S
C510 C508 1.378 . S
C510 C511 1.367 . S
C511 C510 1.367 . S
C511 C513 1.433 . S
C512 C508 1.350 . S
C512 C509 1.463 . S
C512 N516 1.427 . S
C513 H503 0.929 . S
C513 C511 1.433 . S
C513 N516 1.384 . S
C514 H505 0.929 . S
C514 C506 1.378 . S
C514 C509 1.350 . S
C515 H502 0.929 . S
C515 C507 1.433 . S
C515 N517 1.384 . S
N516 C512 1.427 . S
N516 C513 1.384 . S
N517 C509 1.427 . S
N517 C515 1.384 . S
H518 C524 0.930 . S
H519 C528 0.930 . S
H520 C533 0.929 . S
H521 C531 0.929 . S
H522 C526 0.929 . S
H523 C532 0.929 . S
C524 H518 0.930 . S
C524 C525 1.367 . S
C524 C532 1.378 . S
C525 C524 1.367 . S
C525 C533 1.433 . S
C526 H522 0.929 . S
C526 C528 1.378 . S
C526 C530 1.350 . S
C527 C530 1.463 . S
C527 C532 1.350 . S
C527 N535 1.427 . S
C528 H519 0.930 . S
C528 C526 1.378 . S
C528 C529 1.367 . S
C529 C528 1.367 . S
C529 C531 1.433 . S
C530 C526 1.350 . S
C530 C527 1.463 . S
C530 N534 1.427 . S
C531 H521 0.929 . S
C531 C529 1.433 . S
C531 N534 1.384 . S
C532 H523 0.929 . S
C532 C524 1.378 . S
C532 C527 1.350 . S
C533 H520 0.929 . S
C533 C525 1.433 . S
C533 N535 1.384 . S
N534 C530 1.427 . S
N534 C531 1.384 . S
N535 C527 1.427 . S
N535 C533 1.384 . S
H536 C542 0.930 . S
H537 C546 0.930 . S
H538 C551 0.929 . S
H539 C549 0.929 . S
H540 C544 0.908 1_565 S
H541 C550 0.929 . S
C542 H536 0.930 . S
C542 C543 1.367 . S
C542 C550 1.378 . S
C543 C542 1.367 . S
C543 C551 1.433 . S
C544 H540 0.908 1_545 S
C544 C546 1.378 . S
C544 C548 1.343 1_545 S
C545 C548 1.481 . S
C545 C550 1.350 . S
C545 N553 1.427 . S
C546 H537 0.930 . S
C546 C544 1.378 . S
C546 C547 1.367 . S
C547 C546 1.367 . S
C547 C549 1.433 . S
C548 C544 1.343 1_565 S
C548 C545 1.481 . S
C548 N552 1.417 1_565 S
C549 H539 0.929 . S
C549 C547 1.433 . S
C549 N552 1.384 . S
C550 H541 0.929 . S
C550 C542 1.378 . S
C550 C545 1.350 . S
C551 H538 0.929 . S
C551 C543 1.433 . S
C551 N553 1.384 . S
N552 C548 1.417 1_545 S
N552 C549 1.384 . S
N553 C545 1.427 . S
N553 C551 1.384 . S
H554 C560 0.930 . S
H555 C564 0.930 . S
H556 C569 0.929 . S
H557 C567 0.929 . S
H558 C562 0.929 . S
H559 C568 0.929 . S
C560 H554 0.930 . S
C560 C561 1.367 . S
C560 C568 1.378 . S
C561 C560 1.367 . S
C561 C569 1.433 . S
C562 H558 0.929 . S
C562 C564 1.378 . S
C562 C566 1.350 . S
C563 C566 1.473 . S
C563 C568 1.344 1_655 S
C563 N571 1.423 1_655 S
C564 H555 0.930 . S
C564 C562 1.378 . S
C564 C565 1.367 . S
C565 C564 1.367 . S
C565 C567 1.433 . S
C566 C562 1.350 . S
C566 C563 1.473 . S
C566 N570 1.427 . S
C567 H557 0.929 . S
C567 C565 1.433 . S
C567 N570 1.384 . S
C568 H559 0.929 . S
C568 C560 1.378 . S
C568 C563 1.344 1_455 S
C569 H556 0.929 . S
C569 C561 1.433 . S
C569 N571 1.384 . S
N570 C566 1.427 . S
N570 C567 1.384 . S
N571 C563 1.423 1_455 S
N571 C569 1.384 . S
H572 C578 0.930 . S
H573 C582 0.930 . S
H574 C587 0.929 . S
H575 C585 0.929 . S
H576 C580 0.929 . S
H577 C586 0.949 . S
C578 H572 0.930 . S
C578 C579 1.367 . S
C578 C586 1.378 . S
C579 C578 1.367 . S
C579 C587 1.433 . S
C580 H576 0.929 . S
C580 C582 1.378 . S
C580 C584 1.350 . S
C581 C584 1.480 . S
C581 C586 1.343 1_545 S
C581 N589 1.418 1_545 S
C582 H573 0.930 . S
C582 C580 1.378 . S
C582 C583 1.367 . S
C583 C582 1.367 . S
C583 C585 1.433 . S
C584 C580 1.350 . S
C584 C581 1.480 . S
C584 N588 1.427 . S
C585 H575 0.929 . S
C585 C583 1.433 . S
C585 N588 1.384 . S
C586 H577 0.949 . S
C586 C578 1.378 . S
C586 C581 1.343 1_565 S
C587 H574 0.929 . S
C587 C579 1.433 . S
C587 N589 1.384 . S
N588 C584 1.427 . S
N588 C585 1.384 . S
N589 C581 1.418 1_565 S
N589 C587 1.384 . S
H590 C596 0.930 . S
H591 C600 0.930 . S
H592 C605 0.929 . S
H593 C603 0.929 . S
H594 C598 0.935 . S
H595 C604 0.929 . S
C596 H590 0.930 . S
C596 C597 1.367 . S
C596 C604 1.378 . S
C597 C596 1.367 . S
C597 C605 1.433 . S
C598 H594 0.935 . S
C598 C600 1.378 . S
C598 C602 1.343 1_655 S
C599 C602 1.480 . S
C599 C604 1.350 . S
C599 N607 1.427 . S
C600 H591 0.930 . S
C600 C598 1.378 . S
C600 C601 1.367 . S
C601 C600 1.367 . S
C601 C603 1.433 . S
C602 C598 1.343 1_455 S
C602 C599 1.480 . S
C602 N606 1.418 1_455 S
C603 H593 0.929 . S
C603 C601 1.433 . S
C603 N606 1.384 . S
C604 H595 0.929 . S
C604 C596 1.378 . S
C604 C599 1.350 . S
C605 H592 0.929 . S
C605 C597 1.433 . S
C605 N607 1.384 . S
N606 C602 1.418 1_655 S
N606 C603 1.384 . S
N607 C599 1.427 . S
N607 C605 1.384 . S
H608 C614 0.930 . S
H609 C618 0.930 . S
H610 C623 0.929 . S
H611 C621 0.929 . S
H612 C616 0.929 . S
H613 C622 0.929 . S
C614 H608 0.930 . S
C614 C615 1.367 . S
C614 C622 1.378 . S
C615 C614 1.367 . S
C615 C623 1.433 . S
C616 H612 0.929 . S
C616 C618 1.378 . S
C616 C620 1.350 . S
C617 C620 1.463 . S
C617 C622 1.350 . S
C617 N625 1.427 . S
C618 H609 0.930 . S
C618 C616 1.378 . S
C618 C619 1.367 . S
C619 C618 1.367 . S
C619 C621 1.433 . S
C620 C616 1.350 . S
C620 C617 1.463 . S
C620 N624 1.427 . S
C621 H611 0.929 . S
C621 C619 1.433 . S
C621 N624 1.384 . S
C622 H613 0.929 . S
C622 C614 1.378 . S
C622 C617 1.350 . S
C623 H610 0.929 . S
C623 C615 1.433 . S
C623 N625 1.384 . S
N624 C620 1.427 . S
N624 C621 1.384 . S
N625 C617 1.427 . S
N625 C623 1.384 . S
H626 C632 0.930 . S
H627 C636 0.930 . S
H628 C641 0.929 . S
H629 C639 0.929 . S
H630 C634 0.929 . S
H631 C640 0.929 . S
C632 H626 0.930 . S
C632 C633 1.367 . S
C632 C640 1.378 . S
C633 C632 1.367 . S
C633 C641 1.433 . S
C634 H630 0.929 . S
C634 C636 1.378 . S
C634 C638 1.350 . S
C635 C638 1.463 . S
C635 C640 1.350 . S
C635 N643 1.427 . S
C636 H627 0.930 . S
C636 C634 1.378 . S
C636 C637 1.367 . S
C637 C636 1.367 . S
C637 C639 1.433 . S
C638 C634 1.350 . S
C638 C635 1.463 . S
C638 N642 1.427 . S
C639 H629 0.929 . S
C639 C637 1.433 . S
C639 N642 1.384 . S
C640 H631 0.929 . S
C640 C632 1.378 . S
C640 C635 1.350 . S
C641 H628 0.929 . S
C641 C633 1.433 . S
C641 N643 1.384 . S
N642 C638 1.427 . S
N642 C639 1.384 . S
N643 C635 1.427 . S
N643 C641 1.384 . S
H644 C650 0.930 1_556 S
H645 C654 0.930 . S
H646 C659 0.929 . S
H647 C657 0.929 . S
H648 C652 0.929 . S
H649 C658 0.929 . S
C650 H644 0.930 1_554 S
C650 C651 1.367 . S
C650 C658 1.378 . S
C651 C650 1.367 . S
C651 C659 1.433 . S
C652 H648 0.929 . S
C652 C654 1.378 . S
C652 C656 1.350 . S
C653 C656 1.463 . S
C653 C658 1.350 . S
C653 N661 1.427 . S
C654 H645 0.930 . S
C654 C652 1.378 . S
C654 C655 1.367 . S
C655 C654 1.367 . S
C655 C657 1.433 . S
C656 C652 1.350 . S
C656 C653 1.463 . S
C656 N660 1.427 . S
C657 H647 0.929 . S
C657 C655 1.433 . S
C657 N660 1.384 . S
C658 H649 0.929 . S
C658 C650 1.378 . S
C658 C653 1.350 . S
C659 H646 0.929 . S
C659 C651 1.433 . S
C659 N661 1.384 . S
N660 C656 1.427 . S
N660 C657 1.384 . S
N661 C653 1.427 . S
N661 C659 1.384 . S
H662 C668 0.930 . S
H663 C672 0.930 . S
H664 C677 0.929 . S
H665 C675 0.929 . S
H666 C670 0.929 . S
H667 C676 0.929 . S
C668 H662 0.930 . S
C668 C669 1.367 . S
C668 C676 1.378 . S
C669 C668 1.367 . S
C669 C677 1.433 . S
C670 H666 0.929 . S
C670 C672 1.378 . S
C670 C674 1.350 . S
C671 C674 1.463 . S
C671 C676 1.350 . S
C671 N679 1.427 . S
C672 H663 0.930 . S
C672 C670 1.378 . S
C672 C673 1.367 . S
C673 C672 1.367 . S
C673 C675 1.433 . S
C674 C670 1.350 . S
C674 C671 1.463 . S
C674 N678 1.427 . S
C675 H665 0.929 . S
C675 C673 1.433 . S
C675 N678 1.384 . S
C676 H667 0.929 . S
C676 C668 1.378 . S
C676 C671 1.350 . S
C677 H664 0.929 . S
C677 C669 1.433 . S
C677 N679 1.384 . S
N678 C674 1.427 . S
N678 C675 1.384 . S
N679 C671 1.427 . S
N679 C677 1.384 . S
H680 C686 0.930 . S
H681 C690 0.930 . S
H682 C695 0.929 . S
H683 C693 0.929 . S
H684 C688 0.929 . S
H685 C694 0.929 . S
C686 H680 0.930 . S
C686 C687 1.367 . S
C686 C694 1.378 . S
C687 C686 1.367 . S
C687 C695 1.433 . S
C688 H684 0.929 . S
C688 C690 1.378 . S
C688 C692 1.350 . S
C689 C692 1.463 . S
C689 C694 1.350 . S
C689 N697 1.427 . S
C690 H681 0.930 . S
C690 C688 1.378 . S
C690 C691 1.367 . S
C691 C690 1.367 . S
C691 C693 1.433 . S
C692 C688 1.350 . S
C692 C689 1.463 . S
C692 N696 1.427 . S
C693 H683 0.929 . S
C693 C691 1.433 . S
C693 N696 1.384 . S
C694 H685 0.929 . S
C694 C686 1.378 . S
C694 C689 1.350 . S
C695 H682 0.929 . S
C695 C687 1.433 . S
C695 N697 1.384 . S
N696 C692 1.427 . S
N696 C693 1.384 . S
N697 C689 1.427 . S
N697 C695 1.384 . S
H698 C704 0.930 . S
H699 C708 0.930 . S
H700 C713 0.929 . S
H701 C711 0.929 . S
H702 C706 0.929 . S
H703 C712 0.929 . S
C704 H698 0.930 . S
C704 C705 1.367 . S
C704 C712 1.378 . S
C705 C704 1.367 . S
C705 C713 1.433 . S
C706 H702 0.929 . S
C706 C708 1.378 . S
C706 C710 1.350 . S
C707 C710 1.463 . S
C707 C712 1.350 . S
C707 N715 1.427 . S
C708 H699 0.930 . S
C708 C706 1.378 . S
C708 C709 1.367 . S
C709 C708 1.367 . S
C709 C711 1.433 . S
C710 C706 1.350 . S
C710 C707 1.463 . S
C710 N714 1.427 . S
C711 H701 0.929 . S
C711 C709 1.433 . S
C711 N714 1.384 . S
C712 H703 0.929 . S
C712 C704 1.378 . S
C712 C707 1.350 . S
C713 H700 0.929 . S
C713 C705 1.433 . S
C713 N715 1.384 . S
N714 C710 1.427 . S
N714 C711 1.384 . S
N715 C707 1.427 . S
N715 C713 1.384 . S
H716 C722 0.930 . S
H717 C726 0.930 . S
H718 C731 0.929 . S
H719 C729 0.929 . S
H720 C724 0.929 . S
H721 C730 0.929 . S
C722 H716 0.930 . S
C722 C723 1.367 . S
C722 C730 1.378 . S
C723 C722 1.367 . S
C723 C731 1.433 . S
C724 H720 0.929 . S
C724 C726 1.378 . S
C724 C728 1.350 . S
C725 C728 1.463 . S
C725 C730 1.350 . S
C725 N733 1.427 . S
C726 H717 0.930 . S
C726 C724 1.378 . S
C726 C727 1.367 . S
C727 C726 1.367 . S
C727 C729 1.433 . S
C728 C724 1.350 . S
C728 C725 1.463 . S
C728 N732 1.427 . S
C729 H719 0.929 . S
C729 C727 1.433 . S
C729 N732 1.384 . S
C730 H721 0.929 . S
C730 C722 1.378 . S
C730 C725 1.350 . S
C731 H718 0.929 . S
C731 C723 1.433 . S
C731 N733 1.384 . S
N732 C728 1.427 . S
N732 C729 1.384 . S
N733 C725 1.427 . S
N733 C731 1.384 . S
H734 C740 0.930 . S
H735 C744 0.930 . S
H736 C749 0.929 . S
H737 C747 0.929 . S
H738 C742 0.929 . S
H739 C748 0.929 . S
C740 H734 0.930 . S
C740 C741 1.367 . S
C740 C748 1.378 . S
C741 C740 1.367 . S
C741 C749 1.433 . S
C742 H738 0.929 . S
C742 C744 1.378 . S
C742 C746 1.350 . S
C743 C746 1.463 . S
C743 C748 1.350 . S
C743 N751 1.427 . S
C744 H735 0.930 . S
C744 C742 1.378 . S
C744 C745 1.367 . S
C745 C744 1.367 . S
C745 C747 1.433 . S
C746 C742 1.350 . S
C746 C743 1.463 . S
C746 N750 1.427 . S
C747 H737 0.929 . S
C747 C745 1.433 . S
C747 N750 1.384 . S
C748 H739 0.929 . S
C748 C740 1.378 . S
C748 C743 1.350 . S
C749 H736 0.929 . S
C749 C741 1.433 . S
C749 N751 1.384 . S
N750 C746 1.427 . S
N750 C747 1.384 . S
N751 C743 1.427 . S
N751 C749 1.384 . S
H752 C758 0.930 . S
H753 C762 0.930 . S
H754 C767 0.929 . S
H755 C765 0.929 1_554 S
H756 C760 0.929 . S
H757 C766 0.929 . S
C758 H752 0.930 . S
C758 C759 1.367 . S
C758 C766 1.378 . S
C759 C758 1.367 . S
C759 C767 1.433 . S
C760 H756 0.929 . S
C760 C762 1.378 . S
C760 C764 1.350 . S
C761 C764 1.463 . S
C761 C766 1.350 . S
C761 N769 1.427 . S
C762 H753 0.930 . S
C762 C760 1.378 . S
C762 C763 1.367 . S
C763 C762 1.367 . S
C763 C765 1.433 . S
C764 C760 1.350 . S
C764 C761 1.463 . S
C764 N768 1.427 . S
C765 H755 0.929 1_556 S
C765 C763 1.433 . S
C765 N768 1.384 . S
C766 H757 0.929 . S
C766 C758 1.378 . S
C766 C761 1.350 . S
C767 H754 0.929 . S
C767 C759 1.433 . S
C767 N769 1.384 . S
N768 C764 1.427 . S
N768 C765 1.384 . S
N769 C761 1.427 . S
N769 C767 1.384 . S
H770 C776 0.930 . S
H771 C780 0.930 . S
H772 C785 0.929 . S
H773 C783 0.929 . S
H774 C778 0.929 . S
H775 C784 0.929 . S
C776 H770 0.930 . S
C776 C777 1.367 . S
C776 C784 1.378 . S
C777 C776 1.367 . S
C777 C785 1.433 1_554 S
C778 H774 0.929 . S
C778 C780 1.378 . S
C778 C782 1.350 . S
C779 C782 1.463 . S
C779 C784 1.350 . S
C779 N787 1.427 . S
C780 H771 0.930 . S
C780 C778 1.378 . S
C780 C781 1.367 . S
C781 C780 1.367 . S
C781 C783 1.433 . S
C782 C778 1.350 . S
C782 C779 1.463 . S
C782 N786 1.427 . S
C783 H773 0.929 . S
C783 C781 1.433 . S
C783 N786 1.384 . S
C784 H775 0.929 . S
C784 C776 1.378 . S
C784 C779 1.350 . S
C785 H772 0.929 . S
C785 C777 1.433 1_556 S
C785 N787 1.384 1_556 S
N786 C782 1.427 . S
N786 C783 1.384 . S
N787 C779 1.427 . S
N787 C785 1.384 1_554 S
H788 C794 0.930 1_554 S
H789 C798 0.930 . S
H790 C803 0.929 . S
H791 C801 0.929 . S
H792 C796 0.929 . S
H793 C802 0.929 . S
C794 H788 0.930 1_556 S
C794 C795 1.367 . S
C794 C802 1.378 . S
C795 C794 1.367 . S
C795 C803 1.433 . S
C796 H792 0.929 . S
C796 C798 1.378 . S
C796 C800 1.350 . S
C797 C800 1.463 . S
C797 C802 1.350 . S
C797 N805 1.427 . S
C798 H789 0.930 . S
C798 C796 1.378 . S
C798 C799 1.367 . S
C799 C798 1.367 . S
C799 C801 1.433 . S
C800 C796 1.350 . S
C800 C797 1.463 . S
C800 N804 1.427 . S
C801 H791 0.929 . S
C801 C799 1.433 . S
C801 N804 1.384 . S
C802 H793 0.929 . S
C802 C794 1.378 . S
C802 C797 1.350 . S
C803 H790 0.929 . S
C803 C795 1.433 . S
C803 N805 1.384 . S
N804 C800 1.427 . S
N804 C801 1.384 . S
N805 C797 1.427 . S
N805 C803 1.384 . S
H806 C812 0.930 . S
H807 C816 0.930 . S
H808 C821 0.929 . S
H809 C819 0.929 . S
H810 C814 0.929 . S
H811 C820 0.929 . S
C812 H806 0.930 . S
C812 C813 1.367 . S
C812 C820 1.378 . S
C813 C812 1.367 . S
C813 C821 1.433 1_554 S
C814 H810 0.929 . S
C814 C816 1.378 . S
C814 C818 1.350 . S
C815 C818 1.463 . S
C815 C820 1.350 . S
C815 N823 1.427 . S
C816 H807 0.930 . S
C816 C814 1.378 . S
C816 C817 1.367 . S
C817 C816 1.367 . S
C817 C819 1.433 . S
C818 C814 1.350 . S
C818 C815 1.463 . S
C818 N822 1.427 . S
C819 H809 0.929 . S
C819 C817 1.433 . S
C819 N822 1.384 . S
C820 H811 0.929 . S
C820 C812 1.378 . S
C820 C815 1.350 . S
C821 H808 0.929 . S
C821 C813 1.433 1_556 S
C821 N823 1.384 1_556 S
N822 C818 1.427 . S
N822 C819 1.384 . S
N823 C815 1.427 . S
N823 C821 1.384 1_554 S
H824 C830 0.930 . S
H825 C834 0.930 . S
H826 C839 0.929 . S
H827 C837 0.929 . S
H828 C832 0.929 . S
H829 C838 0.929 . S
C830 H824 0.930 . S
C830 C831 1.367 . S
C830 C838 1.378 . S
C831 C830 1.367 . S
C831 C839 1.433 . S
C832 H828 0.929 . S
C832 C834 1.378 . S
C832 C836 1.350 . S
C833 C836 1.463 . S
C833 C838 1.350 . S
C833 N841 1.427 . S
C834 H825 0.930 . S
C834 C832 1.378 . S
C834 C835 1.367 . S
C835 C834 1.367 . S
C835 C837 1.433 . S
C836 C832 1.350 . S
C836 C833 1.463 . S
C836 N840 1.427 . S
C837 H827 0.929 . S
C837 C835 1.433 . S
C837 N840 1.384 . S
C838 H829 0.929 . S
C838 C830 1.378 . S
C838 C833 1.350 . S
C839 H826 0.929 . S
C839 C831 1.433 . S
C839 N841 1.384 . S
N840 C836 1.427 . S
N840 C837 1.384 . S
N841 C833 1.427 . S
N841 C839 1.384 . S
H842 C848 0.930 . S
H843 C852 0.930 . S
H844 C857 0.929 . S
H845 C855 0.929 . S
H846 C850 0.929 . S
H847 C856 0.929 . S
C848 H842 0.930 . S
C848 C849 1.367 . S
C848 C856 1.378 . S
C849 C848 1.367 . S
C849 C857 1.433 . S
C850 H846 0.929 . S
C850 C852 1.378 . S
C850 C854 1.350 . S
C851 C854 1.463 . S
C851 C856 1.350 . S
C851 N859 1.427 . S
C852 H843 0.930 . S
C852 C850 1.378 . S
C852 C853 1.367 . S
C853 C852 1.367 . S
C853 C855 1.433 . S
C854 C850 1.350 . S
C854 C851 1.463 . S
C854 N858 1.427 . S
C855 H845 0.929 . S
C855 C853 1.433 . S
C855 N858 1.384 . S
C856 H847 0.929 . S
C856 C848 1.378 . S
C856 C851 1.350 . S
C857 H844 0.929 . S
C857 C849 1.433 . S
C857 N859 1.384 . S
N858 C854 1.427 . S
N858 C855 1.384 . S
N859 C851 1.427 . S
N859 C857 1.384 . S
H860 C866 0.930 . S
H861 C870 0.930 . S
H862 C875 0.929 . S
H863 C873 0.929 . S
H864 C868 0.929 . S
H865 C874 0.929 . S
C866 H860 0.930 . S
C866 C867 1.367 . S
C866 C874 1.378 . S
C867 C866 1.367 . S
C867 C875 1.433 . S
C868 H864 0.929 . S
C868 C870 1.378 . S
C868 C872 1.350 . S
C869 C872 1.463 . S
C869 C874 1.350 . S
C869 N877 1.427 . S
C870 H861 0.930 . S
C870 C868 1.378 . S
C870 C871 1.367 . S
C871 C870 1.367 . S
C871 C873 1.433 . S
C872 C868 1.350 . S
C872 C869 1.463 . S
C872 N876 1.427 . S
C873 H863 0.929 . S
C873 C871 1.433 . S
C873 N876 1.384 . S
C874 H865 0.929 . S
C874 C866 1.378 . S
C874 C869 1.350 . S
C875 H862 0.929 . S
C875 C867 1.433 . S
C875 N877 1.384 . S
N876 C872 1.427 . S
N876 C873 1.384 . S
N877 C869 1.427 . S
N877 C875 1.384 . S
H878 C884 0.930 . S
H879 C888 0.930 . S
H880 C893 0.929 . S
H881 C891 0.929 . S
H882 C886 0.929 . S
H883 C892 0.929 . S
C884 H878 0.930 . S
C884 C885 1.367 . S
C884 C892 1.378 . S
C885 C884 1.367 . S
C885 C893 1.433 . S
C886 H882 0.929 . S
C886 C888 1.378 . S
C886 C890 1.350 . S
C887 C890 1.463 . S
C887 C892 1.350 . S
C887 N895 1.427 . S
C888 H879 0.930 . S
C888 C886 1.378 . S
C888 C889 1.367 . S
C889 C888 1.367 . S
C889 C891 1.433 . S
C890 C886 1.350 . S
C890 C887 1.463 . S
C890 N894 1.427 . S
C891 H881 0.929 . S
C891 C889 1.433 . S
C891 N894 1.384 . S
C892 H883 0.929 . S
C892 C884 1.378 . S
C892 C887 1.350 . S
C893 H880 0.929 . S
C893 C885 1.433 . S
C893 N895 1.384 . S
N894 C890 1.427 . S
N894 C891 1.384 . S
N895 C887 1.427 . S
N895 C893 1.384 . S
H896 C902 0.930 . S
H897 C906 0.930 . S
H898 C911 0.929 . S
H899 C909 0.929 . S
H900 C904 0.929 . S
H901 C910 0.929 . S
C902 H896 0.930 . S
C902 C903 1.367 . S
C902 C910 1.378 . S
C903 C902 1.367 . S
C903 C911 1.433 . S
C904 H900 0.929 . S
C904 C906 1.378 . S
C904 C908 1.350 . S
C905 C908 1.463 . S
C905 C910 1.350 . S
C905 N913 1.427 . S
C906 H897 0.930 . S
C906 C904 1.378 . S
C906 C907 1.367 . S
C907 C906 1.367 . S
C907 C909 1.433 . S
C908 C904 1.350 . S
C908 C905 1.463 . S
C908 N912 1.427 . S
C909 H899 0.929 . S
C909 C907 1.433 . S
C909 N912 1.384 . S
C910 H901 0.929 . S
C910 C902 1.378 . S
C910 C905 1.350 . S
C911 H898 0.929 . S
C911 C903 1.433 . S
C911 N913 1.384 . S
N912 C908 1.427 . S
N912 C909 1.384 . S
N913 C905 1.427 . S
N913 C911 1.384 . S
H914 C920 0.930 . S
H915 C924 0.930 . S
H916 C929 0.929 . S
H917 C927 0.929 . S
H918 C922 0.929 . S
H919 C928 0.929 . S
C920 H914 0.930 . S
C920 C921 1.367 . S
C920 C928 1.378 . S
C921 C920 1.367 . S
C921 C929 1.433 . S
C922 H918 0.929 . S
C922 C924 1.378 . S
C922 C926 1.350 . S
C923 C926 1.463 . S
C923 C928 1.350 . S
C923 N931 1.427 . S
C924 H915 0.930 . S
C924 C922 1.378 . S
C924 C925 1.367 . S
C925 C924 1.367 . S
C925 C927 1.433 . S
C926 C922 1.350 . S
C926 C923 1.463 . S
C926 N930 1.427 . S
C927 H917 0.929 . S
C927 C925 1.433 . S
C927 N930 1.384 . S
C928 H919 0.929 . S
C928 C920 1.378 . S
C928 C923 1.350 . S
C929 H916 0.929 . S
C929 C921 1.433 . S
C929 N931 1.384 . S
N930 C926 1.427 . S
N930 C927 1.384 . S
N931 C923 1.427 . S
N931 C929 1.384 . S
H932 C938 0.930 . S
H933 C942 0.930 . S
H934 C947 0.929 . S
H935 C945 0.929 . S
H936 C940 0.929 . S
H937 C946 0.929 . S
C938 H932 0.930 . S
C938 C939 1.367 . S
C938 C946 1.378 . S
C939 C938 1.367 . S
C939 C947 1.433 . S
C940 H936 0.929 . S
C940 C942 1.378 . S
C940 C944 1.350 . S
C941 C944 1.463 . S
C941 C946 1.350 . S
C941 N949 1.427 . S
C942 H933 0.930 . S
C942 C940 1.378 . S
C942 C943 1.367 . S
C943 C942 1.367 . S
C943 C945 1.433 . S
C944 C940 1.350 . S
C944 C941 1.463 . S
C944 N948 1.427 . S
C945 H935 0.929 . S
C945 C943 1.433 . S
C945 N948 1.384 . S
C946 H937 0.929 . S
C946 C938 1.378 . S
C946 C941 1.350 . S
C947 H934 0.929 . S
C947 C939 1.433 . S
C947 N949 1.384 . S
N948 C944 1.427 . S
N948 C945 1.384 . S
N949 C941 1.427 . S
N949 C947 1.384 . S
H950 C956 0.930 . S
H951 C960 0.930 . S
H952 C965 0.929 . S
H953 C963 0.929 . S
H954 C958 0.929 . S
H955 C964 0.929 . S
C956 H950 0.930 . S
C956 C957 1.367 . S
C956 C964 1.378 . S
C957 C956 1.367 . S
C957 C965 1.433 . S
C958 H954 0.929 . S
C958 C960 1.378 . S
C958 C962 1.350 . S
C959 C962 1.463 . S
C959 C964 1.350 . S
C959 N967 1.427 . S
C960 H951 0.930 . S
C960 C958 1.378 . S
C960 C961 1.367 . S
C961 C960 1.367 . S
C961 C963 1.433 . S
C962 C958 1.350 . S
C962 C959 1.463 . S
C962 N966 1.427 . S
C963 H953 0.929 . S
C963 C961 1.433 . S
C963 N966 1.384 . S
C964 H955 0.929 . S
C964 C956 1.378 . S
C964 C959 1.350 . S
C965 H952 0.929 . S
C965 C957 1.433 . S
C965 N967 1.384 . S
N966 C962 1.427 . S
N966 C963 1.384 . S
N967 C959 1.427 . S
N967 C965 1.384 . S
H968 C974 0.930 . S
H969 C978 0.930 . S
H970 C983 0.929 . S
H971 C981 0.929 . S
H972 C976 0.929 . S
H973 C982 0.929 . S
C974 H968 0.930 . S
C974 C975 1.367 . S
C974 C982 1.378 . S
C975 C974 1.367 . S
C975 C983 1.433 . S
C976 H972 0.929 . S
C976 C978 1.378 . S
C976 C980 1.350 . S
C977 C980 1.463 . S
C977 C982 1.350 . S
C977 N985 1.427 . S
C978 H969 0.930 . S
C978 C976 1.378 . S
C978 C979 1.367 . S
C979 C978 1.367 . S
C979 C981 1.433 . S
C980 C976 1.350 . S
C980 C977 1.463 . S
C980 N984 1.427 . S
C981 H971 0.929 . S
C981 C979 1.433 . S
C981 N984 1.384 . S
C982 H973 0.929 . S
C982 C974 1.378 . S
C982 C977 1.350 . S
C983 H970 0.929 . S
C983 C975 1.433 . S
C983 N985 1.384 . S
N984 C980 1.427 . S
N984 C981 1.384 . S
N985 C977 1.427 . S
N985 C983 1.384 . S
H986 C992 0.930 . S
H987 C996 0.930 . S
H988 C1001 0.929 . S
H989 C999 0.929 . S
H990 C994 0.929 . S
H991 C1000 0.929 . S
C992 H986 0.930 . S
C992 C993 1.367 . S
C992 C1000 1.378 . S
C993 C992 1.367 . S
C993 C1001 1.433 . S
C994 H990 0.929 . S
C994 C996 1.378 . S
C994 C998 1.350 . S
C995 C998 1.463 . S
C995 C1000 1.350 . S
C995 N1003 1.427 . S
C996 H987 0.930 . S
C996 C994 1.378 . S
C996 C997 1.367 . S
C997 C996 1.367 . S
C997 C999 1.433 . S
C998 C994 1.350 . S
C998 C995 1.463 . S
C998 N1002 1.427 . S
C999 H989 0.929 . S
C999 C997 1.433 . S
C999 N1002 1.384 . S
C1000 H991 0.929 . S
C1000 C992 1.378 . S
C1000 C995 1.350 . S
C1001 H988 0.929 . S
C1001 C993 1.433 . S
C1001 N1003 1.384 . S
N1002 C998 1.427 . S
N1002 C999 1.384 . S
N1003 C995 1.427 . S
N1003 C1001 1.384 . S
H1004 C1010 0.930 . S
H1005 C1014 0.930 . S
H1006 C1019 0.929 . S
H1007 C1017 0.929 . S
H1008 C1012 0.929 . S
H1009 C1018 0.929 . S
C1010 H1004 0.930 . S
C1010 C1011 1.367 . S
C1010 C1018 1.378 . S
C1011 C1010 1.367 . S
C1011 C1019 1.433 . S
C1012 H1008 0.929 . S
C1012 C1014 1.378 . S
C1012 C1016 1.350 . S
C1013 C1016 1.463 . S
C1013 C1018 1.350 . S
C1013 N1021 1.427 . S
C1014 H1005 0.930 . S
C1014 C1012 1.378 . S
C1014 C1015 1.367 . S
C1015 C1014 1.367 . S
C1015 C1017 1.433 . S
C1016 C1012 1.350 . S
C1016 C1013 1.463 . S
C1016 N1020 1.427 . S
C1017 H1007 0.929 . S
C1017 C1015 1.433 . S
C1017 N1020 1.384 . S
C1018 H1009 0.929 . S
C1018 C1010 1.378 . S
C1018 C1013 1.350 . S
C1019 H1006 0.929 . S
C1019 C1011 1.433 . S
C1019 N1021 1.384 . S
N1020 C1016 1.427 . S
N1020 C1017 1.384 . S
N1021 C1013 1.427 . S
N1021 C1019 1.384 . S
H1022 C1028 0.930 . S
H1023 C1032 0.930 . S
H1024 C1037 0.929 . S
H1025 C1035 0.929 . S
H1026 C1030 0.929 . S
H1027 C1036 0.929 . S
C1028 H1022 0.930 . S
C1028 C1029 1.367 . S
C1028 C1036 1.378 . S
C1029 C1028 1.367 . S
C1029 C1037 1.433 . S
C1030 H1026 0.929 . S
C1030 C1032 1.378 . S
C1030 C1034 1.350 . S
C1031 C1034 1.463 . S
C1031 C1036 1.350 . S
C1031 N1039 1.427 . S
C1032 H1023 0.930 . S
C1032 C1030 1.378 . S
C1032 C1033 1.367 . S
C1033 C1032 1.367 . S
C1033 C1035 1.433 . S
C1034 C1030 1.350 . S
C1034 C1031 1.463 . S
C1034 N1038 1.427 . S
C1035 H1025 0.929 . S
C1035 C1033 1.433 . S
C1035 N1038 1.384 . S
C1036 H1027 0.929 . S
C1036 C1028 1.378 . S
C1036 C1031 1.350 . S
C1037 H1024 0.929 . S
C1037 C1029 1.433 . S
C1037 N1039 1.384 . S
N1038 C1034 1.427 . S
N1038 C1035 1.384 . S
N1039 C1031 1.427 . S
N1039 C1037 1.384 . S
H1040 C1046 0.930 . S
H1041 C1050 0.930 . S
H1042 C1055 0.929 . S
H1043 C1053 0.929 . S
H1044 C1048 0.929 . S
H1045 C1054 0.929 . S
C1046 H1040 0.930 . S
C1046 C1047 1.367 . S
C1046 C1054 1.378 1_556 S
C1047 C1046 1.367 . S
C1047 C1055 1.433 . S
C1048 H1044 0.929 . S
C1048 C1050 1.378 . S
C1048 C1052 1.350 . S
C1049 C1052 1.463 . S
C1049 C1054 1.350 . S
C1049 N1057 1.427 . S
C1050 H1041 0.930 . S
C1050 C1048 1.378 . S
C1050 C1051 1.367 . S
C1051 C1050 1.367 . S
C1051 C1053 1.433 . S
C1052 C1048 1.350 . S
C1052 C1049 1.463 . S
C1052 N1056 1.427 . S
C1053 H1043 0.929 . S
C1053 C1051 1.433 . S
C1053 N1056 1.384 . S
C1054 H1045 0.929 . S
C1054 C1046 1.378 1_554 S
C1054 C1049 1.350 . S
C1055 H1042 0.929 . S
C1055 C1047 1.433 . S
C1055 N1057 1.384 1_556 S
N1056 C1052 1.427 . S
N1056 C1053 1.384 . S
N1057 C1049 1.427 . S
N1057 C1055 1.384 1_554 S
H1058 C1064 0.930 . S
H1059 C1068 0.930 . S
H1060 C1073 0.929 . S
H1061 C1071 0.929 . S
H1062 C1066 0.929 . S
H1063 C1072 0.929 . S
C1064 H1058 0.930 . S
C1064 C1065 1.367 . S
C1064 C1072 1.378 . S
C1065 C1064 1.367 . S
C1065 C1073 1.433 . S
C1066 H1062 0.929 . S
C1066 C1068 1.378 1_556 S
C1066 C1070 1.350 . S
C1067 C1070 1.463 . S
C1067 C1072 1.350 . S
C1067 N1075 1.427 . S
C1068 H1059 0.930 . S
C1068 C1066 1.378 1_554 S
C1068 C1069 1.367 . S
C1069 C1068 1.367 . S
C1069 C1071 1.433 . S
C1070 C1066 1.350 . S
C1070 C1067 1.463 . S
C1070 N1074 1.427 . S
C1071 H1061 0.929 . S
C1071 C1069 1.433 . S
C1071 N1074 1.384 1_554 S
C1072 H1063 0.929 . S
C1072 C1064 1.378 . S
C1072 C1067 1.350 . S
C1073 H1060 0.929 . S
C1073 C1065 1.433 . S
C1073 N1075 1.384 . S
N1074 C1070 1.427 . S
N1074 C1071 1.384 1_556 S
N1075 C1067 1.427 . S
N1075 C1073 1.384 . S
H1076 C1082 0.930 . S
H1077 C1086 0.930 . S
H1078 C1091 0.929 . S
H1079 C1089 0.929 . S
H1080 C1084 0.929 . S
H1081 C1090 0.929 . S
C1082 H1076 0.930 . S
C1082 C1083 1.367 . S
C1082 C1090 1.378 . S
C1083 C1082 1.367 . S
C1083 C1091 1.433 . S
C1084 H1080 0.929 . S
C1084 C1086 1.378 1_554 S
C1084 C1088 1.350 . S
C1085 C1088 1.463 . S
C1085 C1090 1.350 . S
C1085 N1093 1.427 . S
C1086 H1077 0.930 . S
C1086 C1084 1.378 1_556 S
C1086 C1087 1.367 . S
C1087 C1086 1.367 . S
C1087 C1089 1.433 . S
C1088 C1084 1.350 . S
C1088 C1085 1.463 . S
C1088 N1092 1.427 . S
C1089 H1079 0.929 . S
C1089 C1087 1.433 . S
C1089 N1092 1.384 1_556 S
C1090 H1081 0.929 . S
C1090 C1082 1.378 . S
C1090 C1085 1.350 . S
C1091 H1078 0.929 . S
C1091 C1083 1.433 . S
C1091 N1093 1.384 . S
N1092 C1088 1.427 . S
N1092 C1089 1.384 1_554 S
N1093 C1085 1.427 . S
N1093 C1091 1.384 . S
H1094 C1100 0.930 . S
H1095 C1104 0.930 . S
H1096 C1109 0.929 . S
H1097 C1107 0.929 . S
H1098 C1102 0.929 . S
H1099 C1108 0.929 . S
C1100 H1094 0.930 . S
C1100 C1101 1.367 . S
C1100 C1108 1.378 1_554 S
C1101 C1100 1.367 . S
C1101 C1109 1.433 . S
C1102 H1098 0.929 . S
C1102 C1104 1.378 . S
C1102 C1106 1.350 . S
C1103 C1106 1.463 . S
C1103 C1108 1.350 . S
C1103 N1111 1.427 . S
C1104 H1095 0.930 . S
C1104 C1102 1.378 . S
C1104 C1105 1.367 . S
C1105 C1104 1.367 . S
C1105 C1107 1.433 . S
C1106 C1102 1.350 . S
C1106 C1103 1.463 . S
C1106 N1110 1.427 . S
C1107 H1097 0.929 . S
C1107 C1105 1.433 . S
C1107 N1110 1.384 . S
C1108 H1099 0.929 . S
C1108 C1100 1.378 1_556 S
C1108 C1103 1.350 . S
C1109 H1096 0.929 . S
C1109 C1101 1.433 . S
C1109 N1111 1.384 1_554 S
N1110 C1106 1.427 . S
N1110 C1107 1.384 . S
N1111 C1103 1.427 . S
N1111 C1109 1.384 1_556 S
H1112 C1118 0.930 . S
H1113 C1122 0.930 . S
H1114 C1127 0.929 . S
H1115 C1125 0.929 . S
H1116 C1120 0.929 . S
H1117 C1126 0.929 . S
C1118 H1112 0.930 . S
C1118 C1119 1.367 . S
C1118 C1126 1.378 . S
C1119 C1118 1.367 . S
C1119 C1127 1.433 . S
C1120 H1116 0.929 . S
C1120 C1122 1.378 1_554 S
C1120 C1124 1.350 . S
C1121 C1124 1.463 . S
C1121 C1126 1.350 . S
C1121 N1129 1.427 . S
C1122 H1113 0.930 . S
C1122 C1120 1.378 1_556 S
C1122 C1123 1.367 . S
C1123 C1122 1.367 . S
C1123 C1125 1.433 . S
C1124 C1120 1.350 . S
C1124 C1121 1.463 . S
C1124 N1128 1.427 . S
C1125 H1115 0.929 . S
C1125 C1123 1.433 . S
C1125 N1128 1.384 1_556 S
C1126 H1117 0.929 . S
C1126 C1118 1.378 . S
C1126 C1121 1.350 . S
C1127 H1114 0.929 . S
C1127 C1119 1.433 . S
C1127 N1129 1.384 . S
N1128 C1124 1.427 . S
N1128 C1125 1.384 1_554 S
N1129 C1121 1.427 . S
N1129 C1127 1.384 . S
H1130 C1136 0.930 . S
H1131 C1140 0.930 . S
H1132 C1145 0.929 . S
H1133 C1143 0.929 . S
H1134 C1138 0.929 . S
H1135 C1144 0.929 . S
C1136 H1130 0.930 . S
C1136 C1137 1.367 . S
C1136 C1144 1.378 1_554 S
C1137 C1136 1.367 . S
C1137 C1145 1.433 . S
C1138 H1134 0.929 . S
C1138 C1140 1.378 . S
C1138 C1142 1.350 . S
C1139 C1142 1.463 . S
C1139 C1144 1.350 . S
C1139 N1147 1.427 . S
C1140 H1131 0.930 . S
C1140 C1138 1.378 . S
C1140 C1141 1.367 . S
C1141 C1140 1.367 . S
C1141 C1143 1.433 . S
C1142 C1138 1.350 . S
C1142 C1139 1.463 . S
C1142 N1146 1.427 . S
C1143 H1133 0.929 . S
C1143 C1141 1.433 . S
C1143 N1146 1.384 . S
C1144 H1135 0.929 . S
C1144 C1136 1.378 1_556 S
C1144 C1139 1.350 . S
C1145 H1132 0.929 . S
C1145 C1137 1.433 . S
C1145 N1147 1.384 1_554 S
N1146 C1142 1.427 . S
N1146 C1143 1.384 . S
N1147 C1139 1.427 . S
N1147 C1145 1.384 1_556 S
H1148 C1154 0.930 . S
H1149 C1158 0.930 . S
H1150 C1163 0.929 . S
H1151 C1161 0.929 . S
H1152 C1156 0.929 . S
H1153 C1162 0.929 . S
C1154 H1148 0.930 . S
C1154 C1155 1.367 . S
C1154 C1162 1.378 1_556 S
C1155 C1154 1.367 . S
C1155 C1163 1.433 . S
C1156 H1152 0.929 . S
C1156 C1158 1.378 . S
C1156 C1160 1.350 . S
C1157 C1160 1.463 . S
C1157 C1162 1.350 . S
C1157 N1165 1.427 . S
C1158 H1149 0.930 . S
C1158 C1156 1.378 . S
C1158 C1159 1.367 . S
C1159 C1158 1.367 . S
C1159 C1161 1.433 . S
C1160 C1156 1.350 . S
C1160 C1157 1.463 . S
C1160 N1164 1.427 . S
C1161 H1151 0.929 . S
C1161 C1159 1.433 . S
C1161 N1164 1.384 . S
C1162 H1153 0.929 . S
C1162 C1154 1.378 1_554 S
C1162 C1157 1.350 . S
C1163 H1150 0.929 . S
C1163 C1155 1.433 . S
C1163 N1165 1.384 1_556 S
N1164 C1160 1.427 . S
N1164 C1161 1.384 . S
N1165 C1157 1.427 . S
N1165 C1163 1.384 1_554 S
H1166 C1172 0.930 . S
H1167 C1176 0.930 . S
H1168 C1181 0.929 . S
H1169 C1179 0.929 . S
H1170 C1174 0.929 . S
H1171 C1180 0.929 . S
C1172 H1166 0.930 . S
C1172 C1173 1.367 . S
C1172 C1180 1.378 . S
C1173 C1172 1.367 . S
C1173 C1181 1.433 . S
C1174 H1170 0.929 . S
C1174 C1176 1.378 1_556 S
C1174 C1178 1.350 . S
C1175 C1178 1.463 . S
C1175 C1180 1.350 . S
C1175 N1183 1.427 . S
C1176 H1167 0.930 . S
C1176 C1174 1.378 1_554 S
C1176 C1177 1.367 . S
C1177 C1176 1.367 . S
C1177 C1179 1.433 . S
C1178 C1174 1.350 . S
C1178 C1175 1.463 . S
C1178 N1182 1.427 . S
C1179 H1169 0.929 . S
C1179 C1177 1.433 . S
C1179 N1182 1.384 1_554 S
C1180 H1171 0.929 . S
C1180 C1172 1.378 . S
C1180 C1175 1.350 . S
C1181 H1168 0.929 . S
C1181 C1173 1.433 . S
C1181 N1183 1.384 . S
N1182 C1178 1.427 . S
N1182 C1179 1.384 1_556 S
N1183 C1175 1.427 . S
N1183 C1181 1.384 . S
C327 C226 1.533 . S
C331 C9 1.616 . S
C345 C176 1.549 . S
C349 C21 1.625 . S
C363 C49 1.621 . S
C367 C186 1.544 . S
C381 C61 1.618 . S
C385 C216 1.532 . S
C399 C89 1.620 . S
C403 C106 1.536 1_554 S
C417 C136 1.533 1_556 S
C421 C101 1.616 . S
C435 C129 1.617 . S
C439 C146 1.532 1_554 S
C453 C96 1.537 1_556 S
C457 C141 1.621 . S
C471 C66 1.534 . S
C475 C169 1.617 . S
C489 C181 1.625 . S
C493 C16 1.550 . S
C507 C26 1.534 . S
C511 C209 1.619 . S
C525 C56 1.539 . S
C529 C221 1.622 . S
C543 C249 1.618 . S
C547 C266 1.533 . S
C561 C296 1.548 . S
C565 C261 1.624 . S
C579 C306 1.532 . S
C583 C289 1.616 . S
C597 C301 1.621 . S
C601 C256 1.537 . S
C615 C1 1.563 . S
C619 C81 1.562 . S
C633 C109 1.562 . S
C637 C29 1.564 . S
C651 C41 1.565 . S
C655 C121 1.564 . S
C669 C69 1.557 . S
C673 C149 1.559 . S
C687 C161 1.564 . S
C691 C241 1.562 . S
C705 C269 1.565 . S
C709 C189 1.565 . S
C723 C201 1.565 . S
C727 C281 1.564 . S
C741 C229 1.552 . S
C745 C309 1.554 . S
C759 C286 1.528 . S
C763 C6 1.526 1_556 S
C777 C36 1.529 1_554 S
C781 C316 1.528 . S
C795 C46 1.521 1_556 S
C799 C246 1.522 . S
C813 C76 1.528 1_554 S
C817 C276 1.528 . S
C831 C86 1.518 . S
C835 C206 1.518 . S
C849 C116 1.519 . S
C853 C236 1.520 . S
C867 C126 1.528 . S
C871 C166 1.526 . S
C885 C196 1.518 . S
C889 C156 1.518 . S
C903 C8 1.844 . S
C907 C19 1.844 . S
C921 C39 1.828 . S
C925 C28 1.828 . S
C939 C48 1.829 . S
C943 C59 1.829 . S
C957 C68 1.841 . S
C961 C79 1.841 . S
C975 C99 1.835 . S
C979 C88 1.835 . S
C993 C119 1.828 . S
C997 C108 1.828 . S
C1011 C128 1.834 . S
C1015 C139 1.834 . S
C1029 C148 1.832 . S
C1033 C159 1.832 . S
C1047 C168 1.843 . S
C1051 C179 1.843 . S
C1065 C188 1.843 . S
C1069 C199 1.843 . S
C1083 C219 1.838 . S
C1087 C208 1.838 . S
C1101 C239 1.830 . S
C1105 C228 1.830 . S
C1119 C248 1.843 . S
C1123 C259 1.843 . S
C1137 C268 1.833 . S
C1141 C279 1.833 . S
C1155 C299 1.842 . S
C1159 C288 1.842 . S
C1173 C319 1.845 . S
C1177 C308 1.845 . S
