# Generated by pormake.
# Topology upb, (4)-cn, num edge types: 1
# Building blocks:
#     Node 0, Type 0, BuildingBlock: TATPOV_clean_sbu_0, # of connection points: 4
#     Node 1, Type 0, BuildingBlock: TATPOV_clean_sbu_0, # of connection points: 4
#     Node 2, Type 0, BuildingBlock: TATPOV_clean_sbu_0, # of connection points: 4
#     Node 3, Type 0, BuildingBlock: TATPOV_clean_sbu_0, # of connection points: 4
#     Node 4, Type 0, BuildingBlock: TATPOV_clean_sbu_0, # of connection points: 4
#     Node 5, Type 0, BuildingBlock: TATPOV_clean_sbu_0, # of connection points: 4
#     Node 6, Type 0, BuildingBlock: TATPOV_clean_sbu_0, # of connection points: 4
#     Node 7, Type 0, BuildingBlock: TATPOV_clean_sbu_0, # of connection points: 4
#     Node 8, Type 0, BuildingBlock: TATPOV_clean_sbu_0, # of connection points: 4
#     Node 9, Type 0, BuildingBlock: TATPOV_clean_sbu_0, # of connection points: 4
#     Node 10, Type 0, BuildingBlock: TATPOV_clean_sbu_0, # of connection points: 4
#     Node 11, Type 0, BuildingBlock: TATPOV_clean_sbu_0, # of connection points: 4
#     Node 12, Type 0, BuildingBlock: TATPOV_clean_sbu_0, # of connection points: 4
#     Node 13, Type 0, BuildingBlock: TATPOV_clean_sbu_0, # of connection points: 4
#     Node 14, Type 0, BuildingBlock: TATPOV_clean_sbu_0, # of connection points: 4
#     Node 15, Type 0, BuildingBlock: TATPOV_clean_sbu_0, # of connection points: 4
#     Edge 16, Type (0, 0), BuildingBlock: KIFKEQ_clean_linker_1, # of connection points: 2
#     Edge 17, Type (0, 0), BuildingBlock: KIFKEQ_clean_linker_1, # of connection points: 2
#     Edge 18, Type (0, 0), BuildingBlock: KIFKEQ_clean_linker_1, # of connection points: 2
#     Edge 19, Type (0, 0), BuildingBlock: KIFKEQ_clean_linker_1, # of connection points: 2
#     Edge 20, Type (0, 0), BuildingBlock: KIFKEQ_clean_linker_1, # of connection points: 2
#     Edge 21, Type (0, 0), BuildingBlock: KIFKEQ_clean_linker_1, # of connection points: 2
#     Edge 22, Type (0, 0), BuildingBlock: KIFKEQ_clean_linker_1, # of connection points: 2
#     Edge 23, Type (0, 0), BuildingBlock: KIFKEQ_clean_linker_1, # of connection points: 2
#     Edge 24, Type (0, 0), BuildingBlock: KIFKEQ_clean_linker_1, # of connection points: 2
#     Edge 25, Type (0, 0), BuildingBlock: KIFKEQ_clean_linker_1, # of connection points: 2
#     Edge 26, Type (0, 0), BuildingBlock: KIFKEQ_clean_linker_1, # of connection points: 2
#     Edge 27, Type (0, 0), BuildingBlock: KIFKEQ_clean_linker_1, # of connection points: 2
#     Edge 28, Type (0, 0), BuildingBlock: KIFKEQ_clean_linker_1, # of connection points: 2
#     Edge 29, Type (0, 0), BuildingBlock: KIFKEQ_clean_linker_1, # of connection points: 2
#     Edge 30, Type (0, 0), BuildingBlock: KIFKEQ_clean_linker_1, # of connection points: 2
#     Edge 31, Type (0, 0), BuildingBlock: KIFKEQ_clean_linker_1, # of connection points: 2
#     Edge 32, Type (0, 0), BuildingBlock: KIFKEQ_clean_linker_1, # of connection points: 2
#     Edge 33, Type (0, 0), BuildingBlock: KIFKEQ_clean_linker_1, # of connection points: 2
#     Edge 34, Type (0, 0), BuildingBlock: KIFKEQ_clean_linker_1, # of connection points: 2
#     Edge 35, Type (0, 0), BuildingBlock: KIFKEQ_clean_linker_1, # of connection points: 2
#     Edge 36, Type (0, 0), BuildingBlock: KIFKEQ_clean_linker_1, # of connection points: 2
#     Edge 37, Type (0, 0), BuildingBlock: KIFKEQ_clean_linker_1, # of connection points: 2
#     Edge 38, Type (0, 0), BuildingBlock: KIFKEQ_clean_linker_1, # of connection points: 2
#     Edge 39, Type (0, 0), BuildingBlock: KIFKEQ_clean_linker_1, # of connection points: 2
#     Edge 40, Type (0, 0), BuildingBlock: KIFKEQ_clean_linker_1, # of connection points: 2
#     Edge 41, Type (0, 0), BuildingBlock: KIFKEQ_clean_linker_1, # of connection points: 2
#     Edge 42, Type (0, 0), BuildingBlock: KIFKEQ_clean_linker_1, # of connection points: 2
#     Edge 43, Type (0, 0), BuildingBlock: KIFKEQ_clean_linker_1, # of connection points: 2
#     Edge 44, Type (0, 0), BuildingBlock: KIFKEQ_clean_linker_1, # of connection points: 2
#     Edge 45, Type (0, 0), BuildingBlock: KIFKEQ_clean_linker_1, # of connection points: 2
#     Edge 46, Type (0, 0), BuildingBlock: KIFKEQ_clean_linker_1, # of connection points: 2
#     Edge 47, Type (0, 0), BuildingBlock: KIFKEQ_clean_linker_1, # of connection points: 2
# Relax obj value: 0.238
# Max RMSD: 0.114
# Mean RMSD: 0.114
data_MOF--net-upb--node1-TATPOV_clean_sbu_0--edge1-KIFKEQ_clean_linker_1
_symmetry_space_group_name_H-M    P1
_symmetry_Int_Tables_number       1
_symmetry_cell_setting            triclinic
loop_
_symmetry_equiv_pos_as_xyz
'x, y, z'
_cell_length_a     40.556218
_cell_length_b     40.551489
_cell_length_c     45.576823
_cell_angle_alpha  89.883037
_cell_angle_beta   90.070423
_cell_angle_gamma 90.04875
loop_
_atom_site_label
_atom_site_type_symbol
_atom_site_fract_x
_atom_site_fract_y
_atom_site_fract_z
_atom_type_partial_charge
Zn0 Zn 0.98158 0.21662 0.37656 0.0
Zn1 Zn 0.00119 0.25711 0.33524 0.0
O2 O 1.00013 0.28652 0.37284 0.0
O3 O 0.98119 0.25218 0.40637 0.0
O4 O 0.01929 0.28799 0.30433 0.0
O5 O 0.02101 0.18751 0.3709 0.0
O6 O 0.03753 0.22132 0.33613 0.0
C7 C 0.99079 0.28067 0.39905 0.0
C8 C 0.93473 0.2207 0.33053 0.0
O9 O 0.95566 0.2404 0.31902 0.0
O10 O 0.94031 0.20747 0.35514 0.0
C11 C 0.01396 0.31889 0.30383 0.0
O12 O 0.99376 0.33179 0.32316 0.0
C13 C 0.04183 0.19532 0.35143 0.0
Zn14 Zn 0.77103 0.98441 0.36763 0.0
Zn15 Zn 0.72095 0.00061 0.33353 0.0
O16 O 0.70005 0.99798 0.37551 0.0
O17 O 0.74192 0.98088 0.40245 0.0
O18 O 0.68456 0.01796 0.30764 0.0
O19 O 0.79466 0.02708 0.35838 0.0
O20 O 0.75429 0.03853 0.32782 0.0
C21 C 0.7119 0.98877 0.40017 0.0
C22 C 0.75947 0.93696 0.3222 0.0
O23 O 0.7361 0.95628 0.31465 0.0
O24 O 0.77782 0.94391 0.34378 0.0
C25 C 0.65355 0.01695 0.31162 0.0
O26 O 0.64156 0.00059 0.33411 0.0
C27 C 0.78183 0.04602 0.33944 0.0
Zn28 Zn 0.99537 0.82502 0.33359 0.0
Zn29 Zn 0.99466 0.76343 0.3195 0.0
O30 O 0.99337 0.75878 0.36462 0.0
O31 O 0.99269 0.81139 0.37624 0.0
O32 O 0.98926 0.71693 0.30434 0.0
O33 O 0.95565 0.83792 0.31118 0.0
O34 O 0.95234 0.78508 0.30098 0.0
C35 C 0.99277 0.78136 0.38404 0.0
C36 C 0.05477 0.80759 0.30556 0.0
O37 O 0.04168 0.77891 0.30605 0.0
O38 O 0.03907 0.83217 0.3152 0.0
C39 C 0.98838 0.7129 0.27668 0.0
O40 O 0.99435 0.73837 0.25961 0.0
C41 C 0.94079 0.81429 0.29895 0.0
Zn42 Zn 0.222 0.00541 0.40017 0.0
Zn43 Zn 0.2863 0.00081 0.33431 0.0
O44 O 0.31831 0.00895 0.3697 0.0
O45 O 0.26855 0.01078 0.3848 0.0
O46 O 0.31282 0.98355 0.30059 0.0
O47 O 0.21299 0.96029 0.38113 0.0
O48 O 0.25049 0.96353 0.34452 0.0
C49 C 0.29885 0.0125 0.39109 0.0
C50 C 0.2408 0.04745 0.34321 0.0
O51 O 0.26151 0.04402 0.32264 0.0
O52 O 0.24287 0.02644 0.36373 0.0
C53 C 0.34302 0.99054 0.29654 0.0
O54 O 0.35751 0.01191 0.31394 0.0
C55 C 0.2271 0.94832 0.35824 0.0
Zn56 Zn 0.01052 0.80315 0.6509 0.0
Zn57 Zn 0.01558 0.74291 0.66495 0.0
O58 O 0.01708 0.74062 0.61921 0.0
O59 O 0.02335 0.79339 0.60944 0.0
O60 O 0.02492 0.69638 0.6785 0.0
O61 O 0.04392 0.81958 0.6794 0.0
O62 O 0.05555 0.76705 0.68452 0.0
C63 C 0.02209 0.76381 0.60075 0.0
C64 C 0.95121 0.77994 0.67588 0.0
O65 O 0.96868 0.75443 0.68116 0.0
O66 O 0.96307 0.80388 0.66161 0.0
C67 C 0.02369 0.69049 0.7059 0.0
O68 O 0.01333 0.71385 0.72357 0.0
C69 C 0.06218 0.79722 0.68982 0.0
Zn70 Zn 0.21955 0.97761 0.62731 0.0
Zn71 Zn 0.26337 0.00173 0.66397 0.0
O72 O 0.28719 0.00218 0.62343 0.0
O73 O 0.25014 0.98114 0.59339 0.0
O74 O 0.29718 0.02222 0.69051 0.0
O75 O 0.18791 0.01433 0.63781 0.0
O76 O 0.22513 0.03495 0.6677 0.0
C77 C 0.2786 0.9928 0.59784 0.0
C78 C 0.23495 0.93227 0.67321 0.0
O79 O 0.25269 0.95595 0.68278 0.0
O80 O 0.21904 0.93536 0.6495 0.0
C81 C 0.32629 0.01151 0.69447 0.0
O82 O 0.33556 0.98416 0.68148 0.0
C83 C 0.1966 0.03624 0.65605 0.0
Zn84 Zn 0.97557 0.21823 0.6254 0.0
Zn85 Zn 0.98162 0.26545 0.66104 0.0
O86 O 0.98996 0.28708 0.62011 0.0
O87 O 0.99492 0.24349 0.5919 0.0
O88 O 0.97897 0.30471 0.68828 0.0
O89 O 0.92662 0.21379 0.63011 0.0
O90 O 0.93565 0.24424 0.66903 0.0
C91 C 0.9968 0.27434 0.59533 0.0
C92 C 0.02414 0.20522 0.66936 0.0
O93 O 0.02062 0.23587 0.67491 0.0
O94 O 0.00553 0.19122 0.65088 0.0
C95 C 0.96183 0.32877 0.67878 0.0
O96 O 0.94945 0.3271 0.65218 0.0
C97 C 0.91646 0.22601 0.65392 0.0
Zn98 Zn 0.78782 0.00091 0.64341 0.0
Zn99 Zn 0.7323 0.99109 0.67204 0.0
O100 O 0.71534 0.99309 0.62922 0.0
O101 O 0.7614 0.00544 0.60604 0.0
O102 O 0.69254 0.98053 0.6971 0.0
O103 O 0.80741 0.95823 0.65662 0.0
O104 O 0.76172 0.9503 0.68172 0.0
C105 C 0.73058 1.00037 0.60563 0.0
C106 C 0.77559 0.05231 0.68385 0.0
O107 O 0.74833 0.03705 0.68738 0.0
O108 O 0.79748 0.04089 0.66701 0.0
C109 C 0.66535 0.9691 0.68756 0.0
O110 O 0.66101 0.96579 0.65915 0.0
C111 C 0.79042 0.94089 0.67403 0.0
Zn112 Zn 0.53846 0.70037 0.87042 0.0
Zn113 Zn 0.53124 0.75563 0.84073 0.0
O114 O 0.52589 0.7711 0.884 0.0
O115 O 0.53166 0.72433 0.90826 0.0
O116 O 0.53187 0.79717 0.81611 0.0
O117 O 0.58431 0.69266 0.85676 0.0
O118 O 0.57632 0.73524 0.82765 0.0
C119 C 0.5267 0.7551 0.90811 0.0
C120 C 0.48166 0.70021 0.83198 0.0
O121 O 0.48979 0.73017 0.82746 0.0
O122 O 0.49938 0.68187 0.84808 0.0
C123 C 0.54237 0.8246 0.82588 0.0
O124 O 0.55008 0.82708 0.85379 0.0
C125 C 0.59439 0.71152 0.8366 0.0
Zn126 Zn 0.27873 0.49991 0.8645 0.0
Zn127 Zn 0.23221 0.51167 0.82925 0.0
O128 O 0.20885 0.5066 0.87006 0.0
O129 O 0.24882 0.48488 0.89634 0.0
O130 O 0.19579 0.52665 0.80178 0.0
O131 O 0.29665 0.54597 0.86396 0.0
O132 O 0.26542 0.55069 0.82476 0.0
C133 C 0.21892 0.49305 0.89373 0.0
C134 C 0.27829 0.45473 0.81714 0.0
O135 O 0.25018 0.46764 0.81205 0.0
O136 O 0.29673 0.46619 0.83705 0.0
C137 C 0.16508 0.52338 0.80668 0.0
O138 O 0.15535 0.5072 0.83013 0.0
C139 C 0.28803 0.562 0.84142 0.0
Zn140 Zn 0.48662 0.26917 0.87818 0.0
Zn141 Zn 0.47986 0.22434 0.84045 0.0
O142 O 0.47929 0.19975 0.88075 0.0
O143 O 0.47073 0.24076 0.91118 0.0
O144 O 0.46976 0.18873 0.81103 0.0
O145 O 0.45557 0.29989 0.85772 0.0
O146 O 0.44157 0.25692 0.83123 0.0
C147 C 0.47306 0.21014 0.90654 0.0
C148 C 0.54501 0.26056 0.84476 0.0
O149 O 0.52562 0.24323 0.829 0.0
O150 O 0.53514 0.2719 0.86906 0.0
C151 C 0.47341 0.15789 0.81492 0.0
O152 O 0.48731 0.14716 0.83917 0.0
C153 C 0.43715 0.28691 0.83854 0.0
Zn154 Zn 0.70353 0.49972 0.85053 0.0
Zn155 Zn 0.76092 0.48201 0.8289 0.0
O156 O 0.7726 0.48888 0.87244 0.0
O157 O 0.7256 0.50776 0.88976 0.0
O158 O 0.80313 0.46436 0.81181 0.0
O159 O 0.68202 0.45693 0.84037 0.0
O160 O 0.72951 0.44232 0.82102 0.0
C161 C 0.75565 0.50039 0.89358 0.0
C162 C 0.72501 0.54354 0.80566 0.0
O163 O 0.75126 0.52622 0.80666 0.0
O164 O 0.70052 0.53616 0.82149 0.0
C165 C 0.8252 0.48007 0.79778 0.0
O166 O 0.82177 0.51191 0.79338 0.0
C167 C 0.69939 0.43607 0.82681 0.0
Zn168 Zn 0.54357 0.28104 0.11087 0.0
Zn169 Zn 0.53649 0.2417 0.156 0.0
O170 O 0.53349 0.2113 0.1191 0.0
O171 O 0.54816 0.24386 0.08273 0.0
O172 O 0.53925 0.20907 0.18938 0.0
O173 O 0.58451 0.30227 0.12639 0.0
O174 O 0.57923 0.26877 0.16409 0.0
C175 C 0.54025 0.21558 0.09203 0.0
C176 C 0.48234 0.29047 0.14392 0.0
O177 O 0.49438 0.26932 0.16168 0.0
O178 O 0.49784 0.29839 0.1208 0.0
C179 C 0.52755 0.17995 0.18948 0.0
O180 O 0.50886 0.17028 0.16756 0.0
C181 C 0.59494 0.29155 0.15074 0.0
Zn182 Zn 0.72524 0.52151 0.14446 0.0
Zn183 Zn 0.7779 0.52886 0.16941 0.0
O184 O 0.79149 0.5269 0.12527 0.0
O185 O 0.74659 0.50318 0.10846 0.0
O186 O 0.81961 0.53974 0.192 0.0
O187 O 0.71245 0.56909 0.14567 0.0
O188 O 0.7492 0.56946 0.18097 0.0
C189 C 0.77601 0.51244 0.10458 0.0
C190 C 0.73131 0.47383 0.18751 0.0
O191 O 0.76121 0.48336 0.18515 0.0
O192 O 0.7087 0.49026 0.17519 0.0
C193 C 0.84832 0.54254 0.18104 0.0
O194 O 0.85296 0.53491 0.15336 0.0
C195 C 0.72578 0.58355 0.16714 0.0
Zn196 Zn 0.48212 0.68572 0.15584 0.0
Zn197 Zn 0.47412 0.7444 0.17979 0.0
O198 O 0.47444 0.7556 0.13568 0.0
O199 O 0.47605 0.70629 0.11558 0.0
O200 O 0.46206 0.78713 0.19883 0.0
O201 O 0.44425 0.66577 0.17732 0.0
O202 O 0.43534 0.7153 0.19514 0.0
C203 C 0.47452 0.73736 0.11297 0.0
C204 C 0.5377 0.70711 0.19088 0.0
O205 O 0.52069 0.73304 0.19518 0.0
O206 O 0.52671 0.68397 0.17503 0.0
C207 C 0.4707 0.81614 0.19157 0.0
O208 O 0.49167 0.82045 0.16995 0.0
C209 C 0.42734 0.68496 0.19309 0.0
Zn210 Zn 0.2741 0.51184 0.12839 0.0
Zn211 Zn 0.22983 0.48145 0.15988 0.0
O212 O 0.20667 0.48743 0.11922 0.0
O213 O 0.2455 0.51141 0.09297 0.0
O214 O 0.19598 0.4568 0.18385 0.0
O215 O 0.30769 0.47631 0.13692 0.0
O216 O 0.26878 0.44844 0.15973 0.0
C217 C 0.2166 0.49995 0.09508 0.0
C218 C 0.25577 0.55011 0.17741 0.0
O219 O 0.2394 0.52427 0.18417 0.0
O220 O 0.27177 0.55133 0.15368 0.0
C221 C 0.16562 0.46452 0.18492 0.0
O222 O 0.15521 0.49045 0.17029 0.0
C223 C 0.29838 0.45073 0.15056 0.0
H224 H 0.05184 0.13371 0.37314 0.0
H225 H 0.09806 0.20888 0.31981 0.0
H226 H 0.10065 0.09964 0.36896 0.0
H227 H 0.14775 0.17472 0.31622 0.0
H228 H 0.21863 0.08525 0.29693 0.0
H229 H 0.17057 0.12208 0.2967 0.0
H230 H 0.1556 0.10223 0.38892 0.0
H231 H 0.20255 0.06531 0.38895 0.0
C232 C 0.07249 0.14305 0.36055 0.0
C233 C 0.07118 0.17421 0.34711 0.0
C234 C 0.10059 0.12353 0.35827 0.0
C235 C 0.12833 0.13472 0.34271 0.0
C236 C 0.12674 0.16541 0.32834 0.0
C237 C 0.09836 0.185 0.3305 0.0
C238 C 0.20509 0.08903 0.31711 0.0
C239 C 0.21399 0.07205 0.34284 0.0
C240 C 0.17769 0.11014 0.31702 0.0
C241 C 0.15892 0.11459 0.34267 0.0
C242 C 0.16892 0.09865 0.36858 0.0
C243 C 0.19597 0.07758 0.36863 0.0
H244 H 0.87286 0.23518 0.34693 0.0
H245 H 0.92904 0.17993 0.2837 0.0
H246 H 0.82739 0.19614 0.34212 0.0
H247 H 0.88331 0.14081 0.27873 0.0
H248 H 0.77802 0.08099 0.28777 0.0
H249 H 0.80824 0.13185 0.27505 0.0
H250 H 0.85268 0.13206 0.36107 0.0
H251 H 0.82368 0.0813 0.37347 0.0
C252 C 0.87451 0.21603 0.33044 0.0
C253 C 0.90431 0.21053 0.31563 0.0
C254 C 0.8486 0.19355 0.32787 0.0
C255 C 0.85215 0.16541 0.31032 0.0
C256 C 0.87998 0.16253 0.2922 0.0
C257 C 0.90604 0.18506 0.29486 0.0
C258 C 0.79416 0.09209 0.30393 0.0
C259 C 0.79865 0.07716 0.33159 0.0
C260 C 0.81133 0.12105 0.29663 0.0
C261 C 0.83235 0.13584 0.31724 0.0
C262 C 0.83626 0.12122 0.34496 0.0
C263 C 0.81985 0.09208 0.35197 0.0
H264 H 0.76645 0.87537 0.34324 0.0
H265 H 0.77442 0.93291 0.26398 0.0
H266 H 0.80352 0.83444 0.32318 0.0
H267 H 0.81163 0.89152 0.24331 0.0
H268 H 0.92311 0.86919 0.26924 0.0
H269 H 0.86748 0.88885 0.26145 0.0
H270 H 0.82904 0.79491 0.29069 0.0
H271 H 0.88549 0.77531 0.29875 0.0
C272 C 0.77474 0.87822 0.32077 0.0
C273 C 0.76803 0.90737 0.30527 0.0
C274 C 0.79603 0.85466 0.30913 0.0
C275 C 0.81139 0.8601 0.2819 0.0
C276 C 0.80071 0.88694 0.26461 0.0
C277 C 0.77914 0.91051 0.27628 0.0
C278 C 0.90282 0.85229 0.27294 0.0
C279 C 0.9085 0.82106 0.28524 0.0
C280 C 0.87076 0.86344 0.2682 0.0
C281 C 0.84359 0.84372 0.27602 0.0
C282 C 0.84943 0.8109 0.28487 0.0
C283 C 0.88173 0.79959 0.28938 0.0
H284 H 0.10679 0.77558 0.33001 0.0
H285 H 0.08138 0.85349 0.26964 0.0
H286 H 0.16068 0.80122 0.33815 0.0
H287 H 0.13502 0.87892 0.27738 0.0
H288 H 0.19481 0.89951 0.38759 0.0
H289 H 0.16349 0.85419 0.3666 0.0
H290 H 0.19697 0.88151 0.27998 0.0
H291 H 0.22874 0.92705 0.30116 0.0
C292 C 0.11351 0.79702 0.31711 0.0
C293 C 0.08999 0.81271 0.29931 0.0
C294 C 0.1442 0.81195 0.32203 0.0
C295 C 0.15181 0.84247 0.30889 0.0
C296 C 0.13003 0.85542 0.28782 0.0
C297 C 0.09926 0.8408 0.28327 0.0
C298 C 0.1962 0.89538 0.36415 0.0
C299 C 0.21381 0.91718 0.346 0.0
C300 C 0.17852 0.86912 0.35211 0.0
C301 C 0.17764 0.86428 0.32158 0.0
C302 C 0.19714 0.88467 0.30358 0.0
C303 C 0.21532 0.91072 0.31572 0.0
H304 H 0.07413 0.85432 0.71877 0.0
H305 H 0.12022 0.76268 0.69384 0.0
H306 H 0.12758 0.87798 0.72925 0.0
H307 H 0.17438 0.78631 0.70486 0.0
H308 H 0.23559 0.86939 0.65427 0.0
H309 H 0.2003 0.82631 0.67341 0.0
H310 H 0.18136 0.88519 0.75052 0.0
H311 H 0.21671 0.92877 0.73072 0.0
C312 C 0.09574 0.83882 0.71655 0.0
C313 C 0.09311 0.80702 0.70466 0.0
C314 C 0.12655 0.85228 0.72292 0.0
C315 C 0.15552 0.83432 0.71731 0.0
C316 C 0.15258 0.80101 0.70893 0.0
C317 C 0.12156 0.78742 0.70269 0.0
C318 C 0.22533 0.87233 0.67605 0.0
C319 C 0.22826 0.90254 0.69078 0.0
C320 C 0.20503 0.84753 0.68717 0.0
C321 C 0.18701 0.85271 0.7131 0.0
C322 C 0.19429 0.8808 0.73012 0.0
C323 C 0.21483 0.90565 0.71898 0.0
H324 H 0.20832 0.0929 0.68775 0.0
H325 H 0.13144 0.03946 0.64239 0.0
H326 H 0.16851 0.13632 0.70015 0.0
H327 H 0.09229 0.08234 0.65458 0.0
H328 H 0.01979 0.14515 0.69427 0.0
H329 H 0.06418 0.10492 0.69811 0.0
H330 H 0.13453 0.17957 0.67245 0.0
H331 H 0.08983 0.22021 0.66946 0.0
C332 C 0.18299 0.09033 0.68055 0.0
C333 C 0.17307 0.0627 0.66405 0.0
C334 C 0.16028 0.11518 0.68762 0.0
C335 C 0.12718 0.11253 0.67872 0.0
C336 C 0.11742 0.08482 0.66237 0.0
C337 C 0.14001 0.06033 0.6551 0.0
C338 C 0.04494 0.15326 0.6907 0.0
C339 C 0.05148 0.18562 0.68149 0.0
C340 C 0.07031 0.13019 0.69259 0.0
C341 C 0.10268 0.13888 0.68477 0.0
C342 C 0.10981 0.17215 0.67857 0.0
C343 C 0.0843 0.19546 0.677 0.0
H344 H 0.89853 0.21925 0.7115 0.0
H345 H 0.86272 0.20607 0.62306 0.0
H346 H 0.85263 0.18594 0.73005 0.0
H347 H 0.81703 0.17325 0.64143 0.0
H348 H 0.74199 0.10847 0.67159 0.0
H349 H 0.76691 0.16349 0.67226 0.0
H350 H 0.84941 0.12489 0.72149 0.0
H351 H 0.82462 0.07029 0.72044 0.0
C352 C 0.88015 0.21036 0.69615 0.0
C353 C 0.88446 0.21471 0.66579 0.0
C354 C 0.85394 0.19124 0.70677 0.0
C355 C 0.83136 0.17668 0.68721 0.0
C356 C 0.83375 0.18426 0.65717 0.0
C357 C 0.86015 0.20287 0.64656 0.0
C358 C 0.76444 0.1123 0.68404 0.0
C359 C 0.78149 0.08533 0.69596 0.0
C360 C 0.77889 0.1437 0.68417 0.0
C361 C 0.81041 0.14842 0.69646 0.0
C362 C 0.82507 0.12223 0.71196 0.0
C363 C 0.81087 0.09087 0.71144 0.0
H364 H 0.76469 0.87836 0.67382 0.0
H365 H 0.84976 0.93515 0.69976 0.0
H366 H 0.79512 0.82708 0.6842 0.0
H367 H 0.87964 0.88468 0.7108 0.0
H368 H 0.93329 0.79887 0.73036 0.0
H369 H 0.88405 0.83177 0.74029 0.0
H370 H 0.84551 0.80656 0.65489 0.0
H371 H 0.8947 0.7739 0.64516 0.0
C372 C 0.78943 0.8798 0.68272 0.0
C373 C 0.8051 0.91047 0.68588 0.0
C374 C 0.80679 0.85058 0.68862 0.0
C375 C 0.83969 0.85184 0.69848 0.0
C376 C 0.85419 0.88277 0.70374 0.0
C377 C 0.83722 0.91172 0.69718 0.0
C378 C 0.91328 0.79866 0.71458 0.0
C379 C 0.91756 0.78384 0.68708 0.0
C380 C 0.88525 0.81776 0.7201 0.0
C381 C 0.86125 0.82225 0.69813 0.0
C382 C 0.86345 0.80349 0.67231 0.0
C383 C 0.89159 0.78463 0.66674 0.0
H384 H 0.6511 0.69477 0.86362 0.0
H385 H 0.60821 0.70874 0.7779 0.0
H386 H 0.69657 0.66461 0.84215 0.0
H387 H 0.65401 0.67796 0.75595 0.0
H388 H 0.6796 0.56208 0.76569 0.0
H389 H 0.65854 0.61787 0.76241 0.0
H390 H 0.74361 0.65335 0.81 0.0
H391 H 0.76454 0.59695 0.81328 0.0
C392 C 0.65222 0.69249 0.83995 0.0
C393 C 0.62603 0.70357 0.82244 0.0
C394 C 0.67849 0.67539 0.8275 0.0
C395 C 0.67879 0.66839 0.79728 0.0
C396 C 0.65437 0.68274 0.77932 0.0
C397 C 0.62822 0.70043 0.79184 0.0
C398 C 0.69485 0.58209 0.77373 0.0
C399 C 0.72335 0.57528 0.79011 0.0
C400 C 0.68275 0.61424 0.77192 0.0
C401 C 0.69883 0.63997 0.78687 0.0
C402 C 0.73032 0.63389 0.7988 0.0
C403 C 0.74255 0.60163 0.8004 0.0
H404 H 0.42198 0.73085 0.83363 0.0
H405 H 0.46937 0.63979 0.80909 0.0
H406 H 0.36788 0.704 0.82933 0.0
H407 H 0.41546 0.61344 0.80368 0.0
H408 H 0.31084 0.57844 0.78713 0.0
H409 H 0.35437 0.6188 0.77619 0.0
H410 H 0.35253 0.65144 0.8662 0.0
H411 H 0.31015 0.6104 0.87738 0.0
C412 C 0.42072 0.70557 0.82608 0.0
C413 C 0.4497 0.68728 0.82173 0.0
C414 C 0.38986 0.69024 0.82372 0.0
C415 C 0.38764 0.65676 0.81611 0.0
C416 C 0.41653 0.63939 0.80924 0.0
C417 C 0.44733 0.65439 0.81242 0.0
C418 C 0.31901 0.59503 0.80427 0.0
C419 C 0.30732 0.59137 0.8331 0.0
C420 C 0.34389 0.61798 0.79803 0.0
C421 C 0.3566 0.6382 0.82035 0.0
C422 C 0.34283 0.6364 0.84855 0.0
C423 C 0.31872 0.61288 0.85497 0.0
H424 H 0.32454 0.45091 0.77489 0.0
H425 H 0.26035 0.39193 0.82898 0.0
H426 H 0.36139 0.40387 0.76884 0.0
H427 H 0.29752 0.34495 0.82366 0.0
H428 H 0.37794 0.26698 0.81471 0.0
H429 H 0.33341 0.30282 0.79643 0.0
H430 H 0.39449 0.38819 0.81273 0.0
H431 H 0.43811 0.35293 0.83102 0.0
C432 C 0.31737 0.42728 0.78403 0.0
C433 C 0.28967 0.42484 0.80226 0.0
C434 C 0.33863 0.40045 0.78089 0.0
C435 C 0.33276 0.37102 0.79642 0.0
C436 C 0.30269 0.36726 0.81139 0.0
C437 C 0.28127 0.39411 0.81433 0.0
C438 C 0.38185 0.29339 0.81386 0.0
C439 C 0.41128 0.30725 0.82458 0.0
C440 C 0.35646 0.31383 0.80341 0.0
C441 C 0.36056 0.34829 0.80284 0.0
C442 C 0.39069 0.36175 0.81228 0.0
C443 C 0.41559 0.34154 0.82316 0.0
H444 H 0.63817 0.42666 0.80509 0.0
H445 H 0.72608 0.37425 0.83102 0.0
H446 H 0.6086 0.37464 0.8004 0.0
H447 H 0.696 0.32173 0.82712 0.0
H448 H 0.60139 0.26961 0.87567 0.0
H449 H 0.64697 0.30566 0.86192 0.0
H450 H 0.60511 0.31698 0.77537 0.0
H451 H 0.55967 0.28016 0.78903 0.0
C452 C 0.65134 0.40384 0.80909 0.0
C453 C 0.68424 0.40435 0.81862 0.0
C454 C 0.63452 0.37403 0.80615 0.0
C455 C 0.65003 0.34414 0.81335 0.0
C456 C 0.68357 0.34445 0.8213 0.0
C457 C 0.70072 0.37439 0.82351 0.0
C458 C 0.60275 0.27859 0.8533 0.0
C459 C 0.57695 0.2724 0.83348 0.0
C460 C 0.62892 0.29914 0.84537 0.0
C461 C 0.62935 0.31438 0.81769 0.0
C462 C 0.60527 0.30555 0.79688 0.0
C463 C 0.57939 0.28439 0.80464 0.0
H464 H 0.76442 0.41644 0.17813 0.0
H465 H 0.67734 0.45646 0.21893 0.0
H466 H 0.73869 0.36183 0.17739 0.0
H467 H 0.65184 0.4021 0.2186 0.0
H468 H 0.60701 0.30308 0.20898 0.0
H469 H 0.64927 0.34004 0.22923 0.0
H470 H 0.6903 0.35269 0.14254 0.0
H471 H 0.64805 0.31659 0.12246 0.0
C472 C 0.74058 0.41321 0.18844 0.0
C473 C 0.72267 0.44064 0.1983 0.0
C474 C 0.72573 0.38202 0.18779 0.0
C475 C 0.69304 0.37784 0.19747 0.0
C476 C 0.67706 0.40445 0.21106 0.0
C477 C 0.69165 0.43565 0.21124 0.0
C478 C 0.62572 0.31303 0.1945 0.0
C479 C 0.62409 0.30738 0.16412 0.0
C480 C 0.64984 0.33415 0.20607 0.0
C481 C 0.6731 0.34925 0.18749 0.0
C482 C 0.67305 0.34115 0.15752 0.0
C483 C 0.64864 0.32071 0.14594 0.0
H484 H 0.59066 0.74524 0.17751 0.0
H485 H 0.56051 0.65985 0.22715 0.0
H486 H 0.64806 0.72645 0.17965 0.0
H487 H 0.61747 0.64129 0.2298 0.0
H488 H 0.70035 0.63265 0.13392 0.0
H489 H 0.66289 0.67564 0.15013 0.0
H490 H 0.67891 0.64662 0.24027 0.0
H491 H 0.71714 0.60362 0.22383 0.0
C492 C 0.59663 0.7235 0.1903 0.0
C493 C 0.57144 0.70384 0.20212 0.0
C494 C 0.62938 0.71263 0.19139 0.0
C495 C 0.63719 0.6822 0.20458 0.0
C496 C 0.61237 0.66494 0.21968 0.0
C497 C 0.57969 0.67549 0.21814 0.0
C498 C 0.69685 0.6363 0.15725 0.0
C499 C 0.71116 0.61462 0.17761 0.0
C500 C 0.67561 0.66114 0.16661 0.0
C501 C 0.66775 0.66435 0.19649 0.0
C502 C 0.68453 0.64464 0.21711 0.0
C503 C 0.70639 0.6201 0.20772 0.0
H504 H 0.41764 0.6226 0.21225 0.0
H505 H 0.36982 0.71742 0.20642 0.0
H506 H 0.3658 0.59698 0.22519 0.0
H507 H 0.31714 0.69162 0.21963 0.0
H508 H 0.24828 0.61515 0.16709 0.0
H509 H 0.2854 0.65621 0.18703 0.0
H510 H 0.31641 0.58704 0.25379 0.0
H511 H 0.27927 0.54564 0.23319 0.0
C512 C 0.39607 0.63814 0.21458 0.0
C513 C 0.39756 0.67182 0.20763 0.0
C514 C 0.36628 0.62351 0.22245 0.0
C515 C 0.33704 0.64215 0.22321 0.0
C516 C 0.33915 0.67653 0.21901 0.0
C517 C 0.36927 0.69131 0.21145 0.0
C518 C 0.26147 0.60944 0.18717 0.0
C519 C 0.26154 0.57712 0.19824 0.0
C520 C 0.28292 0.63304 0.19867 0.0
C521 C 0.30491 0.62447 0.2213 0.0
C522 C 0.30039 0.59406 0.2358 0.0
C523 C 0.27878 0.57042 0.22426 0.0
H524 H 0.36403 0.4567 0.16055 0.0
H525 H 0.28663 0.3842 0.15169 0.0
H526 H 0.40487 0.41257 0.16469 0.0
H527 H 0.328 0.33992 0.15471 0.0
H528 H 0.43319 0.30233 0.10519 0.0
H529 H 0.38454 0.33706 0.11239 0.0
H530 H 0.41261 0.3526 0.2026 0.0
H531 H 0.46084 0.31656 0.19575 0.0
C532 C 0.35576 0.4313 0.15975 0.0
C533 C 0.32224 0.42381 0.15565 0.0
C534 C 0.37906 0.40614 0.16235 0.0
C535 C 0.36939 0.37303 0.1602 0.0
C536 C 0.33584 0.36536 0.15671 0.0
C537 C 0.31231 0.3906 0.15494 0.0
C538 C 0.42845 0.31243 0.12677 0.0
C539 C 0.45063 0.30685 0.14994 0.0
C540 C 0.40062 0.33211 0.13089 0.0
C541 C 0.39496 0.34726 0.15803 0.0
C542 C 0.41645 0.34084 0.18156 0.0
C543 C 0.44388 0.32028 0.17767 0.0
H544 H 0.0118 0.38624 0.29919 0.0
H545 H 0.05998 0.30028 0.26333 0.0
H546 H 0.04739 0.42174 0.26968 0.0
H547 H 0.0951 0.33574 0.23358 0.0
H548 H 0.17906 0.40827 0.21576 0.0
H549 H 0.14072 0.37356 0.24287 0.0
H550 H 0.06061 0.43851 0.21912 0.0
H551 H 0.09915 0.47367 0.19224 0.0
C552 C 0.02968 0.37489 0.28476 0.0
C553 C 0.03317 0.34041 0.2838 0.0
C554 C 0.05 0.39526 0.26776 0.0
C555 C 0.07431 0.38159 0.24949 0.0
C556 C 0.07704 0.34708 0.24783 0.0
C557 C 0.05671 0.32674 0.26475 0.0
C558 C 0.15329 0.41523 0.2163 0.0
C559 C 0.1422 0.44377 0.20179 0.0
C560 C 0.13125 0.39517 0.23169 0.0
C561 C 0.09755 0.40312 0.23299 0.0
C562 C 0.08645 0.43182 0.2187 0.0
C563 C 0.10853 0.45189 0.20321 0.0
H564 H 0.67253 0.0623 0.27089 0.0
H565 H 0.5857 0.01955 0.31075 0.0
H566 H 0.63807 0.10086 0.24392 0.0
H567 H 0.55101 0.05837 0.28308 0.0
H568 H 0.51055 0.11465 0.19566 0.0
H569 H 0.53814 0.07328 0.22638 0.0
H570 H 0.60083 0.14906 0.26249 0.0
H571 H 0.57339 0.19031 0.23233 0.0
C572 C 0.64605 0.06085 0.27371 0.0
C573 C 0.6319 0.03792 0.29317 0.0
C574 C 0.62635 0.08312 0.25836 0.0
C575 C 0.59197 0.08283 0.26176 0.0
C576 C 0.57751 0.0591 0.2802 0.0
C577 C 0.59735 0.03696 0.29599 0.0
C578 C 0.52979 0.12257 0.21057 0.0
C579 C 0.54002 0.15574 0.21125 0.0
C580 C 0.54549 0.09889 0.22814 0.0
C581 C 0.57188 0.108 0.2464 0.0
C582 C 0.58083 0.14137 0.24826 0.0
C583 C 0.56498 0.165 0.23103 0.0
H584 H 0.91119 0.55707 0.16323 0.0
H585 H 0.84493 0.56706 0.23685 0.0
H586 H 0.95113 0.59251 0.1879 0.0
H587 H 0.8844 0.60301 0.2611 0.0
H588 H 0.96584 0.65786 0.30558 0.0
H589 H 0.93748 0.61044 0.28428 0.0
H590 H 0.95271 0.65088 0.19756 0.0
H591 H 0.98157 0.69767 0.2187 0.0
C592 C 0.9053 0.56642 0.18484 0.0
C593 C 0.87465 0.55953 0.19788 0.0
C594 C 0.92814 0.58692 0.19891 0.0
C595 C 0.92085 0.60099 0.22634 0.0
C596 C 0.89103 0.59244 0.24013 0.0
C597 C 0.86823 0.57192 0.22609 0.0
C598 C 0.96368 0.65629 0.28194 0.0
C599 C 0.97569 0.68177 0.26387 0.0
C600 C 0.94724 0.6292 0.26974 0.0
C601 C 0.94249 0.62695 0.23921 0.0
C602 C 0.95615 0.65155 0.22112 0.0
C603 C 0.97255 0.67858 0.23329 0.0
H604 H 0.3204 0.94387 0.25859 0.0
H605 H 0.40991 0.99204 0.28738 0.0
H606 H 0.35293 0.90463 0.2306 0.0
H607 H 0.44248 0.95239 0.2592 0.0
H608 H 0.48401 0.88232 0.18467 0.0
H609 H 0.45384 0.9287 0.20648 0.0
H610 H 0.39027 0.86003 0.25174 0.0
H611 H 0.42002 0.81414 0.23044 0.0
C612 C 0.34699 0.94644 0.2586 0.0
C613 C 0.36259 0.97073 0.27564 0.0
C614 C 0.36559 0.9239 0.24262 0.0
C615 C 0.40017 0.9252 0.24319 0.0
C616 C 0.41583 0.95089 0.25843 0.0
C617 C 0.39716 0.97347 0.27461 0.0
C618 C 0.46369 0.87722 0.1994 0.0
C619 C 0.45434 0.84455 0.20571 0.0
C620 C 0.44651 0.90371 0.21184 0.0
C621 C 0.41947 0.89785 0.23038 0.0
C622 C 0.41062 0.86524 0.23705 0.0
C623 C 0.42789 0.83894 0.22498 0.0
H624 H 0.09853 0.52929 0.81537 0.0
H625 H 0.17672 0.55856 0.75646 0.0
H626 H 0.06005 0.56449 0.78858 0.0
H627 H 0.13837 0.59397 0.72998 0.0
H628 H 0.05829 0.64242 0.67696 0.0
H629 H 0.08898 0.59666 0.69872 0.0
H630 H 0.05381 0.62449 0.78458 0.0
H631 H 0.02291 0.66983 0.76291 0.0
C632 C 0.10744 0.54287 0.79649 0.0
C633 C 0.14081 0.54132 0.78824 0.0
C634 C 0.0854 0.56317 0.78123 0.0
C635 C 0.09617 0.58224 0.75728 0.0
C636 C 0.12916 0.5794 0.74815 0.0
C637 C 0.15122 0.55923 0.76348 0.0
C638 C 0.05663 0.63841 0.70041 0.0
C639 C 0.03836 0.65998 0.71823 0.0
C640 C 0.07439 0.61231 0.71289 0.0
C641 C 0.07407 0.60707 0.74341 0.0
C642 C 0.05439 0.62761 0.76098 0.0
C643 C 0.0368 0.65377 0.74855 0.0
H644 H 0.4406 0.17263 0.76429 0.0
H645 H 0.4697 0.09043 0.81904 0.0
H646 H 0.40758 0.1357 0.73423 0.0
H647 H 0.43628 0.05344 0.78882 0.0
H648 H 0.38974 0.99547 0.71018 0.0
H649 H 0.42906 0.0296 0.73751 0.0
H650 H 0.35537 0.10582 0.74558 0.0
H651 H 0.31634 0.07215 0.71844 0.0
C652 C 0.4403 0.14662 0.76974 0.0
C653 C 0.45748 0.13457 0.79433 0.0
C654 C 0.42122 0.1255 0.75258 0.0
C655 C 0.41894 0.09181 0.75948 0.0
C656 C 0.43761 0.07931 0.78299 0.0
C657 C 0.45667 0.10053 0.80032 0.0
C658 C 0.38196 0.01948 0.71787 0.0
C659 C 0.34994 0.03112 0.71204 0.0
C660 C 0.40444 0.03894 0.73355 0.0
C661 C 0.39538 0.0705 0.74335 0.0
C662 C 0.36326 0.08186 0.73782 0.0
C663 C 0.3408 0.06241 0.72244 0.0
H664 H 0.93269 0.38648 0.66295 0.0
H665 H 0.96733 0.33245 0.73873 0.0
H666 H 0.90661 0.42664 0.69485 0.0
H667 H 0.94145 0.37315 0.77085 0.0
H668 H 0.84215 0.41588 0.80721 0.0
H669 H 0.8829 0.38346 0.78101 0.0
H670 H 0.91219 0.46994 0.73203 0.0
H671 H 0.87088 0.50252 0.7581 0.0
C672 C 0.93534 0.38356 0.68646 0.0
C673 C 0.95165 0.35601 0.69832 0.0
C674 C 0.92058 0.40678 0.70478 0.0
C675 C 0.92168 0.40293 0.7354 0.0
C676 C 0.93983 0.37652 0.74732 0.0
C677 C 0.9548 0.35333 0.72894 0.0
C678 C 0.85754 0.42816 0.79114 0.0
C679 C 0.85292 0.4617 0.78444 0.0
C680 C 0.88118 0.40959 0.7763 0.0
C681 C 0.90071 0.42407 0.75434 0.0
C682 C 0.89726 0.45801 0.74864 0.0
C683 C 0.87366 0.47668 0.76363 0.0
H684 H 0.67134 0.96277 0.747 0.0
H685 H 0.60429 0.94362 0.67528 0.0
H686 H 0.63543 0.93264 0.78009 0.0
H687 H 0.56756 0.91431 0.70873 0.0
H688 H 0.5442 0.82215 0.76596 0.0
H689 H 0.56856 0.86235 0.73287 0.0
H690 H 0.58486 0.92843 0.80578 0.0
H691 H 0.56154 0.88753 0.83911 0.0
C692 C 0.64853 0.95276 0.7384 0.0
C693 C 0.64093 0.95525 0.70839 0.0
C694 C 0.62773 0.93561 0.75748 0.0
C695 C 0.59861 0.92074 0.74711 0.0
C696 C 0.59008 0.92488 0.71739 0.0
C697 C 0.61105 0.94186 0.69822 0.0
C698 C 0.55243 0.84549 0.7749 0.0
C699 C 0.55138 0.85141 0.80525 0.0
C700 C 0.56628 0.86871 0.75584 0.0
C701 C 0.57913 0.89857 0.76665 0.0
C702 C 0.57593 0.9054 0.79677 0.0
C703 C 0.56235 0.88203 0.81587 0.0
H704 H 0.04636 0.31145 0.41804 0.0
H705 H 0.94204 0.30248 0.434 0.0
H706 H 0.05461 0.32957 0.46873 0.0
H707 H 0.94993 0.32061 0.48424 0.0
H708 H 0.96654 0.33093 0.57682 0.0
H709 H 0.96949 0.35388 0.52698 0.0
H710 H 0.04796 0.28568 0.50649 0.0
H711 H 0.04453 0.26284 0.55562 0.0
C712 C 0.025 0.31534 0.43186 0.0
C713 C 0.99364 0.30532 0.42244 0.0
C714 C 0.02971 0.32548 0.46092 0.0
C715 C 0.00304 0.32575 0.4807 0.0
C716 C 0.97103 0.32073 0.4697 0.0
C717 C 0.96643 0.31026 0.44085 0.0
C718 C 0.98527 0.32194 0.56192 0.0
C719 C 0.00496 0.29484 0.56968 0.0
C720 C 0.98695 0.33501 0.53344 0.0
C721 C 0.00873 0.32142 0.51268 0.0
C722 C 0.03109 0.297 0.52188 0.0
C723 C 0.02896 0.28362 0.54998 0.0
H724 H 0.74341 0.04322 0.5617 0.0
H725 H 0.6787 0.96307 0.58568 0.0
H726 H 0.72173 0.04238 0.51198 0.0
H727 H 0.6572 0.96168 0.53519 0.0
H728 H 0.70121 0.9384 0.43762 0.0
H729 H 0.69087 0.94422 0.48998 0.0
H730 H 0.67241 0.04817 0.47762 0.0
H731 H 0.68239 0.04203 0.42487 0.0
C732 C 0.72399 0.02584 0.55641 0.0
C733 C 0.713 0.00293 0.57735 0.0
C734 C 0.71127 0.0256 0.528 0.0
C735 C 0.68768 0.00201 0.51967 0.0
C736 C 0.67527 0.98022 0.54108 0.0
C737 C 0.68756 0.98097 0.56987 0.0
C738 C 0.69309 0.96208 0.44589 0.0
C739 C 0.69256 0.98977 0.42738 0.0
C740 C 0.68717 0.96545 0.4759 0.0
C741 C 0.68133 0.99675 0.48795 0.0
C742 C 0.67705 0.02378 0.46888 0.0
C743 C 0.68246 0.02026 0.43869 0.0
H744 H 0.05563 0.79956 0.56065 0.0
H745 H 0.99144 0.71503 0.56873 0.0
H746 H 0.04879 0.79867 0.50768 0.0
H747 H 0.98419 0.71442 0.5151 0.0
H748 H 0.004 0.72102 0.41055 0.0
H749 H 0.01389 0.71071 0.46305 0.0
H750 H 0.99586 0.81353 0.4812 0.0
H751 H 0.98611 0.82387 0.42956 0.0
C752 C 0.04052 0.78036 0.551 0.0
C753 C 0.02367 0.75767 0.56882 0.0
C754 C 0.03649 0.77995 0.52068 0.0
C755 C 0.01529 0.75701 0.50738 0.0
C756 C 0.00056 0.73246 0.52485 0.0
C757 C 0.00477 0.73276 0.55547 0.0
C758 C 0.00175 0.74127 0.42587 0.0
C759 C 0.99469 0.77337 0.41578 0.0
C760 C 0.00743 0.73534 0.45584 0.0
C761 C 0.00635 0.76148 0.47604 0.0
C762 C 0.99767 0.79307 0.46604 0.0
C763 C 0.99191 0.79893 0.43638 0.0
H764 H 0.306 0.04976 0.57786 0.0
H765 H 0.29736 0.94584 0.55957 0.0
H766 H 0.32448 0.05947 0.52731 0.0
H767 H 0.3166 0.95524 0.50954 0.0
H768 H 0.35051 0.98162 0.41866 0.0
H769 H 0.3605 0.97977 0.47195 0.0
H770 H 0.28115 0.04907 0.48514 0.0
H771 H 0.2706 0.04999 0.43254 0.0
C772 C 0.30976 0.02886 0.56349 0.0
C773 C 0.30027 0.99711 0.57234 0.0
C774 C 0.32018 0.03439 0.53461 0.0
C775 C 0.32179 0.0081 0.51455 0.0
C776 C 0.31592 0.97588 0.52459 0.0
C777 C 0.30482 0.97049 0.55316 0.0
C778 C 0.33591 0.99705 0.43301 0.0
C779 C 0.30964 0.01573 0.42176 0.0
C780 C 0.34162 0.99603 0.46336 0.0
C781 C 0.32175 0.01447 0.48257 0.0
C782 C 0.2972 0.03504 0.47086 0.0
C783 C 0.29095 0.03534 0.4408 0.0
H784 H 0.56737 0.76438 0.95439 0.0
H785 H 0.46705 0.7775 0.92535 0.0
H786 H 0.54999 0.77208 0.00531 0.0
H787 H 0.44934 0.78413 0.97647 0.0
H788 H 0.44584 0.7137 0.06351 0.0
H789 H 0.45551 0.73191 0.01315 0.0
H790 H 0.51739 0.81083 0.04483 0.0
H791 H 0.50671 0.79324 0.09558 0.0
C792 C 0.54186 0.77046 0.95889 0.0
C793 C 0.51856 0.7708 0.93615 0.0
C794 C 0.53189 0.7748 0.98797 0.0
C795 C 0.49832 0.77858 0.99472 0.0
C796 C 0.47536 0.78142 0.97174 0.0
C797 C 0.4855 0.77786 0.94257 0.0
C798 C 0.4607 0.73552 0.05975 0.0
C799 C 0.47562 0.75202 0.08333 0.0
C800 C 0.46606 0.74607 0.03099 0.0
C801 C 0.48711 0.77281 0.0252 0.0
C802 C 0.50089 0.79028 0.04881 0.0
C803 C 0.49475 0.78026 0.07774 0.0
H804 H 0.21796 0.44158 0.93123 0.0
H805 H 0.17291 0.53619 0.91504 0.0
H806 H 0.19821 0.44242 0.98139 0.0
H807 H 0.15276 0.53721 0.96574 0.0
H808 H 0.20982 0.5502 0.0569 0.0
H809 H 0.19115 0.54635 0.00649 0.0
H810 H 0.15891 0.44622 0.0221 0.0
H811 H 0.17789 0.45036 0.07313 0.0
C812 C 0.20258 0.46197 0.93817 0.0
C813 C 0.19747 0.48911 0.91957 0.0
C814 C 0.19097 0.46237 0.96693 0.0
C815 C 0.17441 0.4902 0.97781 0.0
C816 C 0.16583 0.5156 0.95807 0.0
C817 C 0.1772 0.515 0.92903 0.0
C818 C 0.19754 0.52781 0.04986 0.0
C819 C 0.19578 0.50039 0.0686 0.0
C820 C 0.18652 0.52565 0.02097 0.0
C821 C 0.17399 0.49577 0.01006 0.0
C822 C 0.16879 0.46947 0.02981 0.0
C823 C 0.17951 0.47183 0.05901 0.0
H824 H 0.57765 0.20013 0.04499 0.0
H825 H 0.48655 0.17536 0.08846 0.0
H826 H 0.55665 0.17741 0.99946 0.0
H827 H 0.46505 0.15266 0.04252 0.0
H828 H 0.43521 0.21347 0.95527 0.0
H829 H 0.45055 0.19292 0.0034 0.0
H830 H 0.53063 0.13789 0.96479 0.0
H831 H 0.51481 0.15849 0.91624 0.0
C832 C 0.55373 0.1882 0.0451 0.0
C833 C 0.5335 0.18994 0.06998 0.0
C834 C 0.54164 0.175 0.01898 0.0
C835 C 0.50883 0.1639 0.01717 0.0
C836 C 0.49029 0.1614 0.04319 0.0
C837 C 0.50265 0.17422 0.06954 0.0
C838 C 0.45508 0.19569 0.9569 0.0
C839 C 0.47421 0.18802 0.93223 0.0
C840 C 0.46382 0.18368 0.98452 0.0
C841 C 0.49228 0.16426 0.98804 0.0
C842 C 0.50879 0.15309 0.96278 0.0
C843 C 0.49966 0.16476 0.93497 0.0
H844 H 0.74049 0.54742 0.93347 0.0
H845 H 0.80374 0.46325 0.91988 0.0
H846 H 0.75923 0.5512 0.9842 0.0
H847 H 0.82191 0.46651 0.97127 0.0
H848 H 0.77534 0.45816 0.07042 0.0
H849 H 0.7825 0.45675 0.01727 0.0
H850 H 0.81195 0.55905 0.01813 0.0
H851 H 0.80567 0.56012 0.07171 0.0
C852 C 0.7588 0.53003 0.94126 0.0
C853 C 0.77044 0.50485 0.92291 0.0
C854 C 0.76978 0.53242 0.97019 0.0
C855 C 0.79212 0.50924 0.98156 0.0
C856 C 0.80483 0.48479 0.9629 0.0
C857 C 0.79442 0.48291 0.93362 0.0
C858 C 0.78477 0.47989 0.05936 0.0
C859 C 0.78997 0.50923 0.07497 0.0
C860 C 0.78894 0.47908 0.02899 0.0
C861 C 0.79757 0.50786 0.01365 0.0
C862 C 0.80532 0.53655 0.02954 0.0
C863 C 0.80191 0.53712 0.06012 0.0
loop_
_geom_bond_atom_site_label_1
_geom_bond_atom_site_label_2
_geom_bond_distance
_geom_bond_site_symmetry_2
_ccdc_geom_bond_type
Zn0 O3 2.031 . S
Zn0 O5 2.049 . S
Zn0 O10 2.067 1_455 S
Zn1 O2 1.962 . S
Zn1 O4 1.986 . S
Zn1 O6 1.996 . S
Zn1 O9 1.944 1_455 S
O2 Zn1 1.962 . S
O2 C7 1.254 . S
O3 Zn0 2.031 . S
O3 C7 1.269 . S
O4 Zn1 1.986 . S
O4 C11 1.262 . S
O5 Zn0 2.049 . S
O5 C13 1.260 . S
O6 Zn1 1.996 . S
O6 C13 1.257 . S
C7 O2 1.254 . S
C7 O3 1.269 . S
C8 O9 1.248 . S
C8 O10 1.270 . S
O9 Zn1 1.944 1_655 S
O9 C8 1.248 . S
O10 Zn0 2.067 1_655 S
O10 C8 1.270 . S
C11 O4 1.262 . S
C11 O12 1.232 . S
O12 C11 1.232 . S
C13 O5 1.260 . S
C13 O6 1.257 . S
Zn14 O17 2.031 . S
Zn14 O19 2.049 . S
Zn14 O24 2.067 1_545 S
Zn15 O16 1.962 . S
Zn15 O18 1.986 . S
Zn15 O20 1.996 . S
Zn15 O23 1.944 1_545 S
O16 Zn15 1.962 . S
O16 C21 1.254 . S
O17 Zn14 2.031 . S
O17 C21 1.269 . S
O18 Zn15 1.986 . S
O18 C25 1.262 . S
O19 Zn14 2.049 . S
O19 C27 1.260 . S
O20 Zn15 1.996 . S
O20 C27 1.257 . S
C21 O16 1.254 . S
C21 O17 1.269 . S
C22 O23 1.248 . S
C22 O24 1.270 . S
O23 Zn15 1.944 1_565 S
O23 C22 1.248 . S
O24 Zn14 2.067 1_565 S
O24 C22 1.270 . S
C25 O18 1.262 . S
C25 O26 1.232 . S
O26 C25 1.232 . S
C27 O19 1.260 . S
C27 O20 1.257 . S
Zn28 O31 2.031 . S
Zn28 O33 2.049 . S
Zn28 O38 2.067 1_655 S
Zn29 O30 1.962 . S
Zn29 O32 1.986 . S
Zn29 O34 1.996 . S
Zn29 O37 1.944 1_655 S
O30 Zn29 1.962 . S
O30 C35 1.254 . S
O31 Zn28 2.031 . S
O31 C35 1.269 . S
O32 Zn29 1.986 . S
O32 C39 1.262 . S
O33 Zn28 2.049 . S
O33 C41 1.260 . S
O34 Zn29 1.996 . S
O34 C41 1.257 . S
C35 O30 1.254 . S
C35 O31 1.269 . S
C36 O37 1.248 . S
C36 O38 1.270 . S
O37 Zn29 1.944 1_455 S
O37 C36 1.248 . S
O38 Zn28 2.067 1_455 S
O38 C36 1.270 . S
C39 O32 1.262 . S
C39 O40 1.232 . S
O40 C39 1.232 . S
C41 O33 1.260 . S
C41 O34 1.257 . S
Zn42 O45 2.031 . S
Zn42 O47 2.049 . S
Zn42 O52 2.067 1_565 S
Zn43 O44 1.962 . S
Zn43 O46 1.986 . S
Zn43 O48 1.996 . S
Zn43 O51 1.944 1_565 S
O44 Zn43 1.962 . S
O44 C49 1.254 . S
O45 Zn42 2.031 . S
O45 C49 1.269 . S
O46 Zn43 1.986 . S
O46 C53 1.262 . S
O47 Zn42 2.049 . S
O47 C55 1.260 . S
O48 Zn43 1.996 . S
O48 C55 1.257 . S
C49 O44 1.254 . S
C49 O45 1.269 . S
C50 O51 1.248 . S
C50 O52 1.270 . S
O51 Zn43 1.944 1_545 S
O51 C50 1.248 . S
O52 Zn42 2.067 1_545 S
O52 C50 1.270 . S
C53 O46 1.262 . S
C53 O54 1.232 . S
O54 C53 1.232 . S
C55 O47 1.260 . S
C55 O48 1.257 . S
Zn56 O59 2.031 . S
Zn56 O61 2.049 . S
Zn56 O66 2.067 1_455 S
Zn57 O58 1.962 . S
Zn57 O60 1.986 . S
Zn57 O62 1.996 . S
Zn57 O65 1.944 1_455 S
O58 Zn57 1.962 . S
O58 C63 1.254 . S
O59 Zn56 2.031 . S
O59 C63 1.269 . S
O60 Zn57 1.986 . S
O60 C67 1.262 . S
O61 Zn56 2.049 . S
O61 C69 1.260 . S
O62 Zn57 1.996 . S
O62 C69 1.257 . S
C63 O58 1.254 . S
C63 O59 1.269 . S
C64 O65 1.248 . S
C64 O66 1.270 . S
O65 Zn57 1.944 1_655 S
O65 C64 1.248 . S
O66 Zn56 2.067 1_655 S
O66 C64 1.270 . S
C67 O60 1.262 . S
C67 O68 1.232 . S
O68 C67 1.232 . S
C69 O61 1.260 . S
C69 O62 1.257 . S
Zn70 O73 2.031 . S
Zn70 O75 2.049 . S
Zn70 O80 2.067 1_545 S
Zn71 O72 1.962 . S
Zn71 O74 1.986 . S
Zn71 O76 1.996 . S
Zn71 O79 1.944 1_545 S
O72 Zn71 1.962 . S
O72 C77 1.254 . S
O73 Zn70 2.031 . S
O73 C77 1.269 . S
O74 Zn71 1.986 . S
O74 C81 1.262 . S
O75 Zn70 2.049 . S
O75 C83 1.260 . S
O76 Zn71 1.996 . S
O76 C83 1.257 . S
C77 O72 1.254 . S
C77 O73 1.269 . S
C78 O79 1.248 . S
C78 O80 1.270 . S
O79 Zn71 1.944 1_565 S
O79 C78 1.248 . S
O80 Zn70 2.067 1_565 S
O80 C78 1.270 . S
C81 O74 1.262 . S
C81 O82 1.232 . S
O82 C81 1.232 . S
C83 O75 1.260 . S
C83 O76 1.257 . S
Zn84 O87 2.031 . S
Zn84 O89 2.049 . S
Zn84 O94 2.067 1_655 S
Zn85 O86 1.962 . S
Zn85 O88 1.986 . S
Zn85 O90 1.996 . S
Zn85 O93 1.944 1_655 S
O86 Zn85 1.962 . S
O86 C91 1.254 . S
O87 Zn84 2.031 . S
O87 C91 1.269 . S
O88 Zn85 1.986 . S
O88 C95 1.262 . S
O89 Zn84 2.049 . S
O89 C97 1.260 . S
O90 Zn85 1.996 . S
O90 C97 1.257 . S
C91 O86 1.254 . S
C91 O87 1.269 . S
C92 O93 1.248 . S
C92 O94 1.270 . S
O93 Zn85 1.944 1_455 S
O93 C92 1.248 . S
O94 Zn84 2.067 1_455 S
O94 C92 1.270 . S
C95 O88 1.262 . S
C95 O96 1.232 . S
O96 C95 1.232 . S
C97 O89 1.260 . S
C97 O90 1.257 . S
Zn98 O101 2.031 . S
Zn98 O103 2.049 . S
Zn98 O108 2.067 1_565 S
Zn99 O100 1.962 . S
Zn99 O102 1.986 . S
Zn99 O104 1.996 . S
Zn99 O107 1.944 1_565 S
O100 Zn99 1.962 . S
O100 C105 1.254 . S
O101 Zn98 2.031 . S
O101 C105 1.269 . S
O102 Zn99 1.986 . S
O102 C109 1.262 . S
O103 Zn98 2.049 . S
O103 C111 1.260 . S
O104 Zn99 1.996 . S
O104 C111 1.257 . S
C105 O100 1.254 . S
C105 O101 1.269 . S
C106 O107 1.248 . S
C106 O108 1.270 . S
O107 Zn99 1.944 1_545 S
O107 C106 1.248 . S
O108 Zn98 2.067 1_545 S
O108 C106 1.270 . S
C109 O102 1.262 . S
C109 O110 1.232 . S
O110 C109 1.232 . S
C111 O103 1.260 . S
C111 O104 1.257 . S
Zn112 O115 2.031 . S
Zn112 O117 2.049 . S
Zn112 O122 2.067 . S
Zn113 O114 1.962 . S
Zn113 O116 1.986 . S
Zn113 O118 1.996 . S
Zn113 O121 1.943 . S
O114 Zn113 1.962 . S
O114 C119 1.254 . S
O115 Zn112 2.031 . S
O115 C119 1.269 . S
O116 Zn113 1.986 . S
O116 C123 1.262 . S
O117 Zn112 2.049 . S
O117 C125 1.260 . S
O118 Zn113 1.996 . S
O118 C125 1.257 . S
C119 O114 1.254 . S
C119 O115 1.269 . S
C120 O121 1.249 . S
C120 O122 1.270 . S
O121 Zn113 1.943 . S
O121 C120 1.249 . S
O122 Zn112 2.067 . S
O122 C120 1.270 . S
C123 O116 1.262 . S
C123 O124 1.232 . S
O124 C123 1.232 . S
C125 O117 1.260 . S
C125 O118 1.257 . S
Zn126 O129 2.031 . S
Zn126 O131 2.049 . S
Zn126 O136 2.067 . S
Zn127 O128 1.962 . S
Zn127 O130 1.986 . S
Zn127 O132 1.996 . S
Zn127 O135 1.943 . S
O128 Zn127 1.962 . S
O128 C133 1.254 . S
O129 Zn126 2.031 . S
O129 C133 1.269 . S
O130 Zn127 1.986 . S
O130 C137 1.262 . S
O131 Zn126 2.049 . S
O131 C139 1.260 . S
O132 Zn127 1.996 . S
O132 C139 1.257 . S
C133 O128 1.254 . S
C133 O129 1.269 . S
C134 O135 1.249 . S
C134 O136 1.270 . S
O135 Zn127 1.943 . S
O135 C134 1.249 . S
O136 Zn126 2.067 . S
O136 C134 1.270 . S
C137 O130 1.262 . S
C137 O138 1.232 . S
O138 C137 1.232 . S
C139 O131 1.260 . S
C139 O132 1.257 . S
Zn140 O143 2.031 . S
Zn140 O145 2.049 . S
Zn140 O150 2.067 . S
Zn141 O142 1.962 . S
Zn141 O144 1.986 . S
Zn141 O146 1.996 . S
Zn141 O149 1.943 . S
O142 Zn141 1.962 . S
O142 C147 1.254 . S
O143 Zn140 2.031 . S
O143 C147 1.269 . S
O144 Zn141 1.986 . S
O144 C151 1.262 . S
O145 Zn140 2.049 . S
O145 C153 1.260 . S
O146 Zn141 1.996 . S
O146 C153 1.257 . S
C147 O142 1.254 . S
C147 O143 1.269 . S
C148 O149 1.249 . S
C148 O150 1.270 . S
O149 Zn141 1.943 . S
O149 C148 1.249 . S
O150 Zn140 2.067 . S
O150 C148 1.270 . S
C151 O144 1.262 . S
C151 O152 1.232 . S
O152 C151 1.232 . S
C153 O145 1.260 . S
C153 O146 1.257 . S
Zn154 O157 2.031 . S
Zn154 O159 2.049 . S
Zn154 O164 2.067 . S
Zn155 O156 1.962 . S
Zn155 O158 1.986 . S
Zn155 O160 1.996 . S
Zn155 O163 1.943 . S
O156 Zn155 1.962 . S
O156 C161 1.254 . S
O157 Zn154 2.031 . S
O157 C161 1.269 . S
O158 Zn155 1.986 . S
O158 C165 1.262 . S
O159 Zn154 2.049 . S
O159 C167 1.260 . S
O160 Zn155 1.996 . S
O160 C167 1.257 . S
C161 O156 1.254 . S
C161 O157 1.269 . S
C162 O163 1.249 . S
C162 O164 1.270 . S
O163 Zn155 1.943 . S
O163 C162 1.249 . S
O164 Zn154 2.067 . S
O164 C162 1.270 . S
C165 O158 1.262 . S
C165 O166 1.232 . S
O166 C165 1.232 . S
C167 O159 1.260 . S
C167 O160 1.257 . S
Zn168 O171 2.031 . S
Zn168 O173 2.049 . S
Zn168 O178 2.067 . S
Zn169 O170 1.962 . S
Zn169 O172 1.986 . S
Zn169 O174 1.996 . S
Zn169 O177 1.943 . S
O170 Zn169 1.962 . S
O170 C175 1.254 . S
O171 Zn168 2.031 . S
O171 C175 1.269 . S
O172 Zn169 1.986 . S
O172 C179 1.262 . S
O173 Zn168 2.049 . S
O173 C181 1.260 . S
O174 Zn169 1.996 . S
O174 C181 1.257 . S
C175 O170 1.254 . S
C175 O171 1.269 . S
C176 O177 1.249 . S
C176 O178 1.270 . S
O177 Zn169 1.943 . S
O177 C176 1.249 . S
O178 Zn168 2.067 . S
O178 C176 1.270 . S
C179 O172 1.262 . S
C179 O180 1.232 . S
O180 C179 1.232 . S
C181 O173 1.260 . S
C181 O174 1.257 . S
Zn182 O185 2.031 . S
Zn182 O187 2.049 . S
Zn182 O192 2.067 . S
Zn183 O184 1.962 . S
Zn183 O186 1.986 . S
Zn183 O188 1.996 . S
Zn183 O191 1.943 . S
O184 Zn183 1.962 . S
O184 C189 1.254 . S
O185 Zn182 2.031 . S
O185 C189 1.269 . S
O186 Zn183 1.986 . S
O186 C193 1.262 . S
O187 Zn182 2.049 . S
O187 C195 1.260 . S
O188 Zn183 1.996 . S
O188 C195 1.257 . S
C189 O184 1.254 . S
C189 O185 1.269 . S
C190 O191 1.249 . S
C190 O192 1.270 . S
O191 Zn183 1.943 . S
O191 C190 1.249 . S
O192 Zn182 2.067 . S
O192 C190 1.270 . S
C193 O186 1.262 . S
C193 O194 1.232 . S
O194 C193 1.232 . S
C195 O187 1.260 . S
C195 O188 1.257 . S
Zn196 O199 2.031 . S
Zn196 O201 2.049 . S
Zn196 O206 2.067 . S
Zn197 O198 1.962 . S
Zn197 O200 1.986 . S
Zn197 O202 1.996 . S
Zn197 O205 1.943 . S
O198 Zn197 1.962 . S
O198 C203 1.254 . S
O199 Zn196 2.031 . S
O199 C203 1.269 . S
O200 Zn197 1.986 . S
O200 C207 1.262 . S
O201 Zn196 2.049 . S
O201 C209 1.260 . S
O202 Zn197 1.996 . S
O202 C209 1.257 . S
C203 O198 1.254 . S
C203 O199 1.269 . S
C204 O205 1.249 . S
C204 O206 1.270 . S
O205 Zn197 1.943 . S
O205 C204 1.249 . S
O206 Zn196 2.067 . S
O206 C204 1.270 . S
C207 O200 1.262 . S
C207 O208 1.232 . S
O208 C207 1.232 . S
C209 O201 1.260 . S
C209 O202 1.257 . S
Zn210 O213 2.031 . S
Zn210 O215 2.049 . S
Zn210 O220 2.067 . S
Zn211 O212 1.962 . S
Zn211 O214 1.986 . S
Zn211 O216 1.996 . S
Zn211 O219 1.943 . S
O212 Zn211 1.962 . S
O212 C217 1.254 . S
O213 Zn210 2.031 . S
O213 C217 1.269 . S
O214 Zn211 1.986 . S
O214 C221 1.262 . S
O215 Zn210 2.049 . S
O215 C223 1.260 . S
O216 Zn211 1.996 . S
O216 C223 1.257 . S
C217 O212 1.254 . S
C217 O213 1.269 . S
C218 O219 1.249 . S
C218 O220 1.270 . S
O219 Zn211 1.943 . S
O219 C218 1.249 . S
O220 Zn210 2.067 . S
O220 C218 1.270 . S
C221 O214 1.262 . S
C221 O222 1.232 . S
O222 C221 1.232 . S
C223 O215 1.260 . S
C223 O216 1.257 . S
H224 C232 0.950 . S
H225 C237 0.950 . S
H226 C234 0.950 . S
H227 C236 0.950 . S
H228 C238 0.950 . S
H229 C240 0.950 . S
H230 C242 0.950 . S
H231 C243 0.950 . S
C232 H224 0.950 . S
C232 C233 1.386 . S
C232 C234 1.391 . S
C233 C232 1.386 . S
C233 C237 1.393 . S
C234 H226 0.950 . S
C234 C232 1.391 . S
C234 C235 1.400 . S
C235 C234 1.400 . S
C235 C236 1.398 . S
C235 C241 1.491 . S
C236 H227 0.950 . S
C236 C235 1.398 . S
C236 C237 1.391 . S
C237 H225 0.950 . S
C237 C233 1.393 . S
C237 C236 1.391 . S
C238 H228 0.950 . S
C238 C239 1.386 . S
C238 C240 1.391 . S
C239 C238 1.386 . S
C239 C243 1.393 . S
C240 H229 0.950 . S
C240 C238 1.391 . S
C240 C241 1.400 . S
C241 C235 1.491 . S
C241 C240 1.400 . S
C241 C242 1.398 . S
C242 H230 0.950 . S
C242 C241 1.398 . S
C242 C243 1.391 . S
C243 H231 0.950 . S
C243 C239 1.393 . S
C243 C242 1.391 . S
H244 C252 0.950 . S
H245 C257 0.950 . S
H246 C254 0.950 . S
H247 C256 0.950 . S
H248 C258 0.950 . S
H249 C260 0.950 . S
H250 C262 0.950 . S
H251 C263 0.950 . S
C252 H244 0.950 . S
C252 C253 1.386 . S
C252 C254 1.391 . S
C253 C252 1.386 . S
C253 C257 1.393 . S
C254 H246 0.950 . S
C254 C252 1.391 . S
C254 C255 1.400 . S
C255 C254 1.400 . S
C255 C256 1.398 . S
C255 C261 1.491 . S
C256 H247 0.950 . S
C256 C255 1.398 . S
C256 C257 1.391 . S
C257 H245 0.950 . S
C257 C253 1.393 . S
C257 C256 1.391 . S
C258 H248 0.950 . S
C258 C259 1.386 . S
C258 C260 1.391 . S
C259 C258 1.386 . S
C259 C263 1.393 . S
C260 H249 0.950 . S
C260 C258 1.391 . S
C260 C261 1.400 . S
C261 C255 1.491 . S
C261 C260 1.400 . S
C261 C262 1.398 . S
C262 H250 0.950 . S
C262 C261 1.398 . S
C262 C263 1.391 . S
C263 H251 0.950 . S
C263 C259 1.393 . S
C263 C262 1.391 . S
H264 C272 0.950 . S
H265 C277 0.950 . S
H266 C274 0.950 . S
H267 C276 0.950 . S
H268 C278 0.950 . S
H269 C280 0.950 . S
H270 C282 0.950 . S
H271 C283 0.950 . S
C272 H264 0.950 . S
C272 C273 1.386 . S
C272 C274 1.391 . S
C273 C272 1.386 . S
C273 C277 1.393 . S
C274 H266 0.950 . S
C274 C272 1.391 . S
C274 C275 1.400 . S
C275 C274 1.400 . S
C275 C276 1.398 . S
C275 C281 1.491 . S
C276 H267 0.950 . S
C276 C275 1.398 . S
C276 C277 1.391 . S
C277 H265 0.950 . S
C277 C273 1.393 . S
C277 C276 1.391 . S
C278 H268 0.950 . S
C278 C279 1.386 . S
C278 C280 1.391 . S
C279 C278 1.386 . S
C279 C283 1.393 . S
C280 H269 0.950 . S
C280 C278 1.391 . S
C280 C281 1.400 . S
C281 C275 1.491 . S
C281 C280 1.400 . S
C281 C282 1.398 . S
C282 H270 0.950 . S
C282 C281 1.398 . S
C282 C283 1.391 . S
C283 H271 0.950 . S
C283 C279 1.393 . S
C283 C282 1.391 . S
H284 C292 0.950 . S
H285 C297 0.950 . S
H286 C294 0.950 . S
H287 C296 0.950 . S
H288 C298 0.950 . S
H289 C300 0.950 . S
H290 C302 0.950 . S
H291 C303 0.950 . S
C292 H284 0.950 . S
C292 C293 1.386 . S
C292 C294 1.391 . S
C293 C292 1.386 . S
C293 C297 1.393 . S
C294 H286 0.950 . S
C294 C292 1.391 . S
C294 C295 1.400 . S
C295 C294 1.400 . S
C295 C296 1.398 . S
C295 C301 1.491 . S
C296 H287 0.950 . S
C296 C295 1.398 . S
C296 C297 1.391 . S
C297 H285 0.950 . S
C297 C293 1.393 . S
C297 C296 1.391 . S
C298 H288 0.950 . S
C298 C299 1.386 . S
C298 C300 1.391 . S
C299 C298 1.386 . S
C299 C303 1.393 . S
C300 H289 0.950 . S
C300 C298 1.391 . S
C300 C301 1.400 . S
C301 C295 1.491 . S
C301 C300 1.400 . S
C301 C302 1.398 . S
C302 H290 0.950 . S
C302 C301 1.398 . S
C302 C303 1.391 . S
C303 H291 0.950 . S
C303 C299 1.393 . S
C303 C302 1.391 . S
H304 C312 0.950 . S
H305 C317 0.950 . S
H306 C314 0.950 . S
H307 C316 0.950 . S
H308 C318 0.950 . S
H309 C320 0.950 . S
H310 C322 0.950 . S
H311 C323 0.950 . S
C312 H304 0.950 . S
C312 C313 1.386 . S
C312 C314 1.391 . S
C313 C312 1.386 . S
C313 C317 1.393 . S
C314 H306 0.950 . S
C314 C312 1.391 . S
C314 C315 1.400 . S
C315 C314 1.400 . S
C315 C316 1.398 . S
C315 C321 1.491 . S
C316 H307 0.950 . S
C316 C315 1.398 . S
C316 C317 1.391 . S
C317 H305 0.950 . S
C317 C313 1.393 . S
C317 C316 1.391 . S
C318 H308 0.950 . S
C318 C319 1.386 . S
C318 C320 1.391 . S
C319 C318 1.386 . S
C319 C323 1.393 . S
C320 H309 0.950 . S
C320 C318 1.391 . S
C320 C321 1.400 . S
C321 C315 1.491 . S
C321 C320 1.400 . S
C321 C322 1.398 . S
C322 H310 0.950 . S
C322 C321 1.398 . S
C322 C323 1.391 . S
C323 H311 0.950 . S
C323 C319 1.393 . S
C323 C322 1.391 . S
H324 C332 0.950 . S
H325 C337 0.950 . S
H326 C334 0.950 . S
H327 C336 0.950 . S
H328 C338 0.950 . S
H329 C340 0.950 . S
H330 C342 0.950 . S
H331 C343 0.950 . S
C332 H324 0.950 . S
C332 C333 1.386 . S
C332 C334 1.391 . S
C333 C332 1.386 . S
C333 C337 1.393 . S
C334 H326 0.950 . S
C334 C332 1.391 . S
C334 C335 1.400 . S
C335 C334 1.400 . S
C335 C336 1.398 . S
C335 C341 1.491 . S
C336 H327 0.950 . S
C336 C335 1.398 . S
C336 C337 1.391 . S
C337 H325 0.950 . S
C337 C333 1.393 . S
C337 C336 1.391 . S
C338 H328 0.950 . S
C338 C339 1.386 . S
C338 C340 1.391 . S
C339 C338 1.386 . S
C339 C343 1.393 . S
C340 H329 0.950 . S
C340 C338 1.391 . S
C340 C341 1.400 . S
C341 C335 1.491 . S
C341 C340 1.400 . S
C341 C342 1.398 . S
C342 H330 0.950 . S
C342 C341 1.398 . S
C342 C343 1.391 . S
C343 H331 0.950 . S
C343 C339 1.393 . S
C343 C342 1.391 . S
H344 C352 0.950 . S
H345 C357 0.950 . S
H346 C354 0.950 . S
H347 C356 0.950 . S
H348 C358 0.950 . S
H349 C360 0.950 . S
H350 C362 0.950 . S
H351 C363 0.950 . S
C352 H344 0.950 . S
C352 C353 1.386 . S
C352 C354 1.391 . S
C353 C352 1.386 . S
C353 C357 1.393 . S
C354 H346 0.950 . S
C354 C352 1.391 . S
C354 C355 1.400 . S
C355 C354 1.400 . S
C355 C356 1.398 . S
C355 C361 1.491 . S
C356 H347 0.950 . S
C356 C355 1.398 . S
C356 C357 1.391 . S
C357 H345 0.950 . S
C357 C353 1.393 . S
C357 C356 1.391 . S
C358 H348 0.950 . S
C358 C359 1.386 . S
C358 C360 1.391 . S
C359 C358 1.386 . S
C359 C363 1.393 . S
C360 H349 0.950 . S
C360 C358 1.391 . S
C360 C361 1.400 . S
C361 C355 1.491 . S
C361 C360 1.400 . S
C361 C362 1.398 . S
C362 H350 0.950 . S
C362 C361 1.398 . S
C362 C363 1.391 . S
C363 H351 0.950 . S
C363 C359 1.393 . S
C363 C362 1.391 . S
H364 C372 0.950 . S
H365 C377 0.950 . S
H366 C374 0.950 . S
H367 C376 0.950 . S
H368 C378 0.950 . S
H369 C380 0.950 . S
H370 C382 0.950 . S
H371 C383 0.950 . S
C372 H364 0.950 . S
C372 C373 1.386 . S
C372 C374 1.391 . S
C373 C372 1.386 . S
C373 C377 1.393 . S
C374 H366 0.950 . S
C374 C372 1.391 . S
C374 C375 1.400 . S
C375 C374 1.400 . S
C375 C376 1.398 . S
C375 C381 1.491 . S
C376 H367 0.950 . S
C376 C375 1.398 . S
C376 C377 1.391 . S
C377 H365 0.950 . S
C377 C373 1.393 . S
C377 C376 1.391 . S
C378 H368 0.950 . S
C378 C379 1.386 . S
C378 C380 1.391 . S
C379 C378 1.386 . S
C379 C383 1.393 . S
C380 H369 0.950 . S
C380 C378 1.391 . S
C380 C381 1.400 . S
C381 C375 1.491 . S
C381 C380 1.400 . S
C381 C382 1.398 . S
C382 H370 0.950 . S
C382 C381 1.398 . S
C382 C383 1.391 . S
C383 H371 0.950 . S
C383 C379 1.393 . S
C383 C382 1.391 . S
H384 C392 0.950 . S
H385 C397 0.950 . S
H386 C394 0.950 . S
H387 C396 0.950 . S
H388 C398 0.950 . S
H389 C400 0.950 . S
H390 C402 0.950 . S
H391 C403 0.950 . S
C392 H384 0.950 . S
C392 C393 1.386 . S
C392 C394 1.391 . S
C393 C392 1.386 . S
C393 C397 1.393 . S
C394 H386 0.950 . S
C394 C392 1.391 . S
C394 C395 1.400 . S
C395 C394 1.400 . S
C395 C396 1.398 . S
C395 C401 1.491 . S
C396 H387 0.950 . S
C396 C395 1.398 . S
C396 C397 1.391 . S
C397 H385 0.950 . S
C397 C393 1.393 . S
C397 C396 1.391 . S
C398 H388 0.950 . S
C398 C399 1.386 . S
C398 C400 1.391 . S
C399 C398 1.386 . S
C399 C403 1.393 . S
C400 H389 0.950 . S
C400 C398 1.391 . S
C400 C401 1.400 . S
C401 C395 1.491 . S
C401 C400 1.400 . S
C401 C402 1.398 . S
C402 H390 0.950 . S
C402 C401 1.398 . S
C402 C403 1.391 . S
C403 H391 0.950 . S
C403 C399 1.393 . S
C403 C402 1.391 . S
H404 C412 0.950 . S
H405 C417 0.950 . S
H406 C414 0.950 . S
H407 C416 0.950 . S
H408 C418 0.950 . S
H409 C420 0.950 . S
H410 C422 0.950 . S
H411 C423 0.950 . S
C412 H404 0.950 . S
C412 C413 1.386 . S
C412 C414 1.391 . S
C413 C412 1.386 . S
C413 C417 1.393 . S
C414 H406 0.950 . S
C414 C412 1.391 . S
C414 C415 1.400 . S
C415 C414 1.400 . S
C415 C416 1.398 . S
C415 C421 1.491 . S
C416 H407 0.950 . S
C416 C415 1.398 . S
C416 C417 1.391 . S
C417 H405 0.950 . S
C417 C413 1.393 . S
C417 C416 1.391 . S
C418 H408 0.950 . S
C418 C419 1.386 . S
C418 C420 1.391 . S
C419 C418 1.386 . S
C419 C423 1.393 . S
C420 H409 0.950 . S
C420 C418 1.391 . S
C420 C421 1.400 . S
C421 C415 1.491 . S
C421 C420 1.400 . S
C421 C422 1.398 . S
C422 H410 0.950 . S
C422 C421 1.398 . S
C422 C423 1.391 . S
C423 H411 0.950 . S
C423 C419 1.393 . S
C423 C422 1.391 . S
H424 C432 0.950 . S
H425 C437 0.950 . S
H426 C434 0.950 . S
H427 C436 0.950 . S
H428 C438 0.950 . S
H429 C440 0.950 . S
H430 C442 0.950 . S
H431 C443 0.950 . S
C432 H424 0.950 . S
C432 C433 1.386 . S
C432 C434 1.391 . S
C433 C432 1.386 . S
C433 C437 1.393 . S
C434 H426 0.950 . S
C434 C432 1.391 . S
C434 C435 1.400 . S
C435 C434 1.400 . S
C435 C436 1.398 . S
C435 C441 1.491 . S
C436 H427 0.950 . S
C436 C435 1.398 . S
C436 C437 1.391 . S
C437 H425 0.950 . S
C437 C433 1.393 . S
C437 C436 1.391 . S
C438 H428 0.950 . S
C438 C439 1.386 . S
C438 C440 1.391 . S
C439 C438 1.386 . S
C439 C443 1.393 . S
C440 H429 0.950 . S
C440 C438 1.391 . S
C440 C441 1.400 . S
C441 C435 1.491 . S
C441 C440 1.400 . S
C441 C442 1.398 . S
C442 H430 0.950 . S
C442 C441 1.398 . S
C442 C443 1.391 . S
C443 H431 0.950 . S
C443 C439 1.393 . S
C443 C442 1.391 . S
H444 C452 0.950 . S
H445 C457 0.950 . S
H446 C454 0.950 . S
H447 C456 0.950 . S
H448 C458 0.950 . S
H449 C460 0.950 . S
H450 C462 0.950 . S
H451 C463 0.950 . S
C452 H444 0.950 . S
C452 C453 1.386 . S
C452 C454 1.391 . S
C453 C452 1.386 . S
C453 C457 1.393 . S
C454 H446 0.950 . S
C454 C452 1.391 . S
C454 C455 1.400 . S
C455 C454 1.400 . S
C455 C456 1.398 . S
C455 C461 1.491 . S
C456 H447 0.950 . S
C456 C455 1.398 . S
C456 C457 1.391 . S
C457 H445 0.950 . S
C457 C453 1.393 . S
C457 C456 1.391 . S
C458 H448 0.950 . S
C458 C459 1.386 . S
C458 C460 1.391 . S
C459 C458 1.386 . S
C459 C463 1.393 . S
C460 H449 0.950 . S
C460 C458 1.391 . S
C460 C461 1.400 . S
C461 C455 1.491 . S
C461 C460 1.400 . S
C461 C462 1.398 . S
C462 H450 0.950 . S
C462 C461 1.398 . S
C462 C463 1.391 . S
C463 H451 0.950 . S
C463 C459 1.393 . S
C463 C462 1.391 . S
H464 C472 0.950 . S
H465 C477 0.950 . S
H466 C474 0.950 . S
H467 C476 0.950 . S
H468 C478 0.950 . S
H469 C480 0.950 . S
H470 C482 0.950 . S
H471 C483 0.950 . S
C472 H464 0.950 . S
C472 C473 1.386 . S
C472 C474 1.391 . S
C473 C472 1.386 . S
C473 C477 1.393 . S
C474 H466 0.950 . S
C474 C472 1.391 . S
C474 C475 1.400 . S
C475 C474 1.400 . S
C475 C476 1.398 . S
C475 C481 1.491 . S
C476 H467 0.950 . S
C476 C475 1.398 . S
C476 C477 1.391 . S
C477 H465 0.950 . S
C477 C473 1.393 . S
C477 C476 1.391 . S
C478 H468 0.950 . S
C478 C479 1.386 . S
C478 C480 1.391 . S
C479 C478 1.386 . S
C479 C483 1.393 . S
C480 H469 0.950 . S
C480 C478 1.391 . S
C480 C481 1.400 . S
C481 C475 1.491 . S
C481 C480 1.400 . S
C481 C482 1.398 . S
C482 H470 0.950 . S
C482 C481 1.398 . S
C482 C483 1.391 . S
C483 H471 0.950 . S
C483 C479 1.393 . S
C483 C482 1.391 . S
H484 C492 0.950 . S
H485 C497 0.950 . S
H486 C494 0.950 . S
H487 C496 0.950 . S
H488 C498 0.950 . S
H489 C500 0.950 . S
H490 C502 0.950 . S
H491 C503 0.950 . S
C492 H484 0.950 . S
C492 C493 1.386 . S
C492 C494 1.391 . S
C493 C492 1.386 . S
C493 C497 1.393 . S
C494 H486 0.950 . S
C494 C492 1.391 . S
C494 C495 1.400 . S
C495 C494 1.400 . S
C495 C496 1.398 . S
C495 C501 1.491 . S
C496 H487 0.950 . S
C496 C495 1.398 . S
C496 C497 1.391 . S
C497 H485 0.950 . S
C497 C493 1.393 . S
C497 C496 1.391 . S
C498 H488 0.950 . S
C498 C499 1.386 . S
C498 C500 1.391 . S
C499 C498 1.386 . S
C499 C503 1.393 . S
C500 H489 0.950 . S
C500 C498 1.391 . S
C500 C501 1.400 . S
C501 C495 1.491 . S
C501 C500 1.400 . S
C501 C502 1.398 . S
C502 H490 0.950 . S
C502 C501 1.398 . S
C502 C503 1.391 . S
C503 H491 0.950 . S
C503 C499 1.393 . S
C503 C502 1.391 . S
H504 C512 0.950 . S
H505 C517 0.950 . S
H506 C514 0.950 . S
H507 C516 0.950 . S
H508 C518 0.950 . S
H509 C520 0.950 . S
H510 C522 0.950 . S
H511 C523 0.950 . S
C512 H504 0.950 . S
C512 C513 1.386 . S
C512 C514 1.391 . S
C513 C512 1.386 . S
C513 C517 1.393 . S
C514 H506 0.950 . S
C514 C512 1.391 . S
C514 C515 1.400 . S
C515 C514 1.400 . S
C515 C516 1.398 . S
C515 C521 1.491 . S
C516 H507 0.950 . S
C516 C515 1.398 . S
C516 C517 1.391 . S
C517 H505 0.950 . S
C517 C513 1.393 . S
C517 C516 1.391 . S
C518 H508 0.950 . S
C518 C519 1.386 . S
C518 C520 1.391 . S
C519 C518 1.386 . S
C519 C523 1.393 . S
C520 H509 0.950 . S
C520 C518 1.391 . S
C520 C521 1.400 . S
C521 C515 1.491 . S
C521 C520 1.400 . S
C521 C522 1.398 . S
C522 H510 0.950 . S
C522 C521 1.398 . S
C522 C523 1.391 . S
C523 H511 0.950 . S
C523 C519 1.393 . S
C523 C522 1.391 . S
H524 C532 0.950 . S
H525 C537 0.950 . S
H526 C534 0.950 . S
H527 C536 0.950 . S
H528 C538 0.950 . S
H529 C540 0.950 . S
H530 C542 0.950 . S
H531 C543 0.950 . S
C532 H524 0.950 . S
C532 C533 1.386 . S
C532 C534 1.391 . S
C533 C532 1.386 . S
C533 C537 1.393 . S
C534 H526 0.950 . S
C534 C532 1.391 . S
C534 C535 1.400 . S
C535 C534 1.400 . S
C535 C536 1.398 . S
C535 C541 1.491 . S
C536 H527 0.950 . S
C536 C535 1.398 . S
C536 C537 1.391 . S
C537 H525 0.950 . S
C537 C533 1.393 . S
C537 C536 1.391 . S
C538 H528 0.950 . S
C538 C539 1.386 . S
C538 C540 1.391 . S
C539 C538 1.386 . S
C539 C543 1.393 . S
C540 H529 0.950 . S
C540 C538 1.391 . S
C540 C541 1.400 . S
C541 C535 1.491 . S
C541 C540 1.400 . S
C541 C542 1.398 . S
C542 H530 0.950 . S
C542 C541 1.398 . S
C542 C543 1.391 . S
C543 H531 0.950 . S
C543 C539 1.393 . S
C543 C542 1.391 . S
H544 C552 0.950 . S
H545 C557 0.950 . S
H546 C554 0.950 . S
H547 C556 0.950 . S
H548 C558 0.950 . S
H549 C560 0.950 . S
H550 C562 0.950 . S
H551 C563 0.950 . S
C552 H544 0.950 . S
C552 C553 1.386 . S
C552 C554 1.391 . S
C553 C552 1.386 . S
C553 C557 1.393 . S
C554 H546 0.950 . S
C554 C552 1.391 . S
C554 C555 1.400 . S
C555 C554 1.400 . S
C555 C556 1.398 . S
C555 C561 1.491 . S
C556 H547 0.950 . S
C556 C555 1.398 . S
C556 C557 1.391 . S
C557 H545 0.950 . S
C557 C553 1.393 . S
C557 C556 1.391 . S
C558 H548 0.950 . S
C558 C559 1.386 . S
C558 C560 1.391 . S
C559 C558 1.386 . S
C559 C563 1.393 . S
C560 H549 0.950 . S
C560 C558 1.391 . S
C560 C561 1.400 . S
C561 C555 1.491 . S
C561 C560 1.400 . S
C561 C562 1.398 . S
C562 H550 0.950 . S
C562 C561 1.398 . S
C562 C563 1.391 . S
C563 H551 0.950 . S
C563 C559 1.393 . S
C563 C562 1.391 . S
H564 C572 0.950 . S
H565 C577 0.950 . S
H566 C574 0.950 . S
H567 C576 0.950 . S
H568 C578 0.950 . S
H569 C580 0.950 . S
H570 C582 0.950 . S
H571 C583 0.950 . S
C572 H564 0.950 . S
C572 C573 1.386 . S
C572 C574 1.391 . S
C573 C572 1.386 . S
C573 C577 1.393 . S
C574 H566 0.950 . S
C574 C572 1.391 . S
C574 C575 1.400 . S
C575 C574 1.400 . S
C575 C576 1.398 . S
C575 C581 1.491 . S
C576 H567 0.950 . S
C576 C575 1.398 . S
C576 C577 1.391 . S
C577 H565 0.950 . S
C577 C573 1.393 . S
C577 C576 1.391 . S
C578 H568 0.950 . S
C578 C579 1.386 . S
C578 C580 1.391 . S
C579 C578 1.386 . S
C579 C583 1.393 . S
C580 H569 0.950 . S
C580 C578 1.391 . S
C580 C581 1.400 . S
C581 C575 1.491 . S
C581 C580 1.400 . S
C581 C582 1.398 . S
C582 H570 0.950 . S
C582 C581 1.398 . S
C582 C583 1.391 . S
C583 H571 0.950 . S
C583 C579 1.393 . S
C583 C582 1.391 . S
H584 C592 0.950 . S
H585 C597 0.950 . S
H586 C594 0.950 . S
H587 C596 0.950 . S
H588 C598 0.950 . S
H589 C600 0.950 . S
H590 C602 0.950 . S
H591 C603 0.950 . S
C592 H584 0.950 . S
C592 C593 1.386 . S
C592 C594 1.391 . S
C593 C592 1.386 . S
C593 C597 1.393 . S
C594 H586 0.950 . S
C594 C592 1.391 . S
C594 C595 1.400 . S
C595 C594 1.400 . S
C595 C596 1.398 . S
C595 C601 1.491 . S
C596 H587 0.950 . S
C596 C595 1.398 . S
C596 C597 1.391 . S
C597 H585 0.950 . S
C597 C593 1.393 . S
C597 C596 1.391 . S
C598 H588 0.950 . S
C598 C599 1.386 . S
C598 C600 1.391 . S
C599 C598 1.386 . S
C599 C603 1.393 . S
C600 H589 0.950 . S
C600 C598 1.391 . S
C600 C601 1.400 . S
C601 C595 1.491 . S
C601 C600 1.400 . S
C601 C602 1.398 . S
C602 H590 0.950 . S
C602 C601 1.398 . S
C602 C603 1.391 . S
C603 H591 0.950 . S
C603 C599 1.393 . S
C603 C602 1.391 . S
H604 C612 0.950 . S
H605 C617 0.950 . S
H606 C614 0.950 . S
H607 C616 0.950 . S
H608 C618 0.950 . S
H609 C620 0.950 . S
H610 C622 0.950 . S
H611 C623 0.950 . S
C612 H604 0.950 . S
C612 C613 1.386 . S
C612 C614 1.391 . S
C613 C612 1.386 . S
C613 C617 1.393 . S
C614 H606 0.950 . S
C614 C612 1.391 . S
C614 C615 1.400 . S
C615 C614 1.400 . S
C615 C616 1.398 . S
C615 C621 1.491 . S
C616 H607 0.950 . S
C616 C615 1.398 . S
C616 C617 1.391 . S
C617 H605 0.950 . S
C617 C613 1.393 . S
C617 C616 1.391 . S
C618 H608 0.950 . S
C618 C619 1.386 . S
C618 C620 1.391 . S
C619 C618 1.386 . S
C619 C623 1.393 . S
C620 H609 0.950 . S
C620 C618 1.391 . S
C620 C621 1.400 . S
C621 C615 1.491 . S
C621 C620 1.400 . S
C621 C622 1.398 . S
C622 H610 0.950 . S
C622 C621 1.398 . S
C622 C623 1.391 . S
C623 H611 0.950 . S
C623 C619 1.393 . S
C623 C622 1.391 . S
H624 C632 0.950 . S
H625 C637 0.950 . S
H626 C634 0.950 . S
H627 C636 0.950 . S
H628 C638 0.950 . S
H629 C640 0.950 . S
H630 C642 0.950 . S
H631 C643 0.950 . S
C632 H624 0.950 . S
C632 C633 1.386 . S
C632 C634 1.391 . S
C633 C632 1.386 . S
C633 C637 1.393 . S
C634 H626 0.950 . S
C634 C632 1.391 . S
C634 C635 1.400 . S
C635 C634 1.400 . S
C635 C636 1.398 . S
C635 C641 1.491 . S
C636 H627 0.950 . S
C636 C635 1.398 . S
C636 C637 1.391 . S
C637 H625 0.950 . S
C637 C633 1.393 . S
C637 C636 1.391 . S
C638 H628 0.950 . S
C638 C639 1.386 . S
C638 C640 1.391 . S
C639 C638 1.386 . S
C639 C643 1.393 . S
C640 H629 0.950 . S
C640 C638 1.391 . S
C640 C641 1.400 . S
C641 C635 1.491 . S
C641 C640 1.400 . S
C641 C642 1.398 . S
C642 H630 0.950 . S
C642 C641 1.398 . S
C642 C643 1.391 . S
C643 H631 0.950 . S
C643 C639 1.393 . S
C643 C642 1.391 . S
H644 C652 0.950 . S
H645 C657 0.950 . S
H646 C654 0.950 . S
H647 C656 0.950 . S
H648 C658 0.950 . S
H649 C660 0.950 . S
H650 C662 0.950 . S
H651 C663 0.950 . S
C652 H644 0.950 . S
C652 C653 1.386 . S
C652 C654 1.391 . S
C653 C652 1.386 . S
C653 C657 1.393 . S
C654 H646 0.950 . S
C654 C652 1.391 . S
C654 C655 1.400 . S
C655 C654 1.400 . S
C655 C656 1.398 . S
C655 C661 1.491 . S
C656 H647 0.950 . S
C656 C655 1.398 . S
C656 C657 1.391 . S
C657 H645 0.950 . S
C657 C653 1.393 . S
C657 C656 1.391 . S
C658 H648 0.950 . S
C658 C659 1.386 . S
C658 C660 1.391 . S
C659 C658 1.386 . S
C659 C663 1.393 . S
C660 H649 0.950 . S
C660 C658 1.391 . S
C660 C661 1.400 . S
C661 C655 1.491 . S
C661 C660 1.400 . S
C661 C662 1.398 . S
C662 H650 0.950 . S
C662 C661 1.398 . S
C662 C663 1.391 . S
C663 H651 0.950 . S
C663 C659 1.393 . S
C663 C662 1.391 . S
H664 C672 0.950 . S
H665 C677 0.950 . S
H666 C674 0.950 . S
H667 C676 0.950 . S
H668 C678 0.950 . S
H669 C680 0.950 . S
H670 C682 0.950 . S
H671 C683 0.950 . S
C672 H664 0.950 . S
C672 C673 1.386 . S
C672 C674 1.391 . S
C673 C672 1.386 . S
C673 C677 1.393 . S
C674 H666 0.950 . S
C674 C672 1.391 . S
C674 C675 1.400 . S
C675 C674 1.400 . S
C675 C676 1.398 . S
C675 C681 1.491 . S
C676 H667 0.950 . S
C676 C675 1.398 . S
C676 C677 1.391 . S
C677 H665 0.950 . S
C677 C673 1.393 . S
C677 C676 1.391 . S
C678 H668 0.950 . S
C678 C679 1.386 . S
C678 C680 1.391 . S
C679 C678 1.386 . S
C679 C683 1.393 . S
C680 H669 0.950 . S
C680 C678 1.391 . S
C680 C681 1.400 . S
C681 C675 1.491 . S
C681 C680 1.400 . S
C681 C682 1.398 . S
C682 H670 0.950 . S
C682 C681 1.398 . S
C682 C683 1.391 . S
C683 H671 0.950 . S
C683 C679 1.393 . S
C683 C682 1.391 . S
H684 C692 0.950 . S
H685 C697 0.950 . S
H686 C694 0.950 . S
H687 C696 0.950 . S
H688 C698 0.950 . S
H689 C700 0.950 . S
H690 C702 0.950 . S
H691 C703 0.950 . S
C692 H684 0.950 . S
C692 C693 1.386 . S
C692 C694 1.391 . S
C693 C692 1.386 . S
C693 C697 1.393 . S
C694 H686 0.950 . S
C694 C692 1.391 . S
C694 C695 1.400 . S
C695 C694 1.400 . S
C695 C696 1.398 . S
C695 C701 1.491 . S
C696 H687 0.950 . S
C696 C695 1.398 . S
C696 C697 1.391 . S
C697 H685 0.950 . S
C697 C693 1.393 . S
C697 C696 1.391 . S
C698 H688 0.950 . S
C698 C699 1.386 . S
C698 C700 1.391 . S
C699 C698 1.386 . S
C699 C703 1.393 . S
C700 H689 0.950 . S
C700 C698 1.391 . S
C700 C701 1.400 . S
C701 C695 1.491 . S
C701 C700 1.400 . S
C701 C702 1.398 . S
C702 H690 0.950 . S
C702 C701 1.398 . S
C702 C703 1.391 . S
C703 H691 0.950 . S
C703 C699 1.393 . S
C703 C702 1.391 . S
H704 C712 0.950 . S
H705 C717 0.950 . S
H706 C714 0.950 . S
H707 C716 0.950 . S
H708 C718 0.950 . S
H709 C720 0.950 . S
H710 C722 0.950 . S
H711 C723 0.950 . S
C712 H704 0.950 . S
C712 C713 1.386 . S
C712 C714 1.391 . S
C713 C712 1.386 . S
C713 C717 1.393 1_455 S
C714 H706 0.950 . S
C714 C712 1.391 . S
C714 C715 1.400 . S
C715 C714 1.400 . S
C715 C716 1.398 1_455 S
C715 C721 1.491 1_455 S
C716 H707 0.950 . S
C716 C715 1.398 1_655 S
C716 C717 1.391 . S
C717 H705 0.950 . S
C717 C713 1.393 1_655 S
C717 C716 1.391 . S
C718 H708 0.950 . S
C718 C719 1.386 . S
C718 C720 1.391 . S
C719 C718 1.386 . S
C719 C723 1.393 1_655 S
C720 H709 0.950 . S
C720 C718 1.391 . S
C720 C721 1.400 . S
C721 C715 1.491 1_655 S
C721 C720 1.400 . S
C721 C722 1.398 1_655 S
C722 H710 0.950 . S
C722 C721 1.398 1_455 S
C722 C723 1.391 . S
C723 H711 0.950 . S
C723 C719 1.393 1_455 S
C723 C722 1.391 . S
H724 C732 0.950 . S
H725 C737 0.950 . S
H726 C734 0.950 . S
H727 C736 0.950 . S
H728 C738 0.950 . S
H729 C740 0.950 . S
H730 C742 0.950 . S
H731 C743 0.950 . S
C732 H724 0.950 . S
C732 C733 1.386 1_545 S
C732 C734 1.391 . S
C733 C732 1.386 1_565 S
C733 C737 1.393 . S
C734 H726 0.950 . S
C734 C732 1.391 . S
C734 C735 1.400 1_545 S
C735 C734 1.400 1_565 S
C735 C736 1.398 . S
C735 C741 1.491 1_565 S
C736 H727 0.950 . S
C736 C735 1.398 . S
C736 C737 1.391 . S
C737 H725 0.950 . S
C737 C733 1.393 . S
C737 C736 1.391 . S
C738 H728 0.950 . S
C738 C739 1.386 1_565 S
C738 C740 1.391 . S
C739 C738 1.386 1_545 S
C739 C743 1.393 . S
C740 H729 0.950 . S
C740 C738 1.391 . S
C740 C741 1.400 1_565 S
C741 C735 1.491 1_545 S
C741 C740 1.400 1_545 S
C741 C742 1.398 . S
C742 H730 0.950 . S
C742 C741 1.398 . S
C742 C743 1.391 . S
C743 H731 0.950 . S
C743 C739 1.393 . S
C743 C742 1.391 . S
H744 C752 0.950 . S
H745 C757 0.944 1_655 S
H746 C754 0.950 . S
H747 C756 0.950 . S
H748 C758 0.950 . S
H749 C760 0.950 . S
H750 C762 0.950 . S
H751 C763 0.944 1_455 S
C752 H744 0.950 . S
C752 C753 1.386 . S
C752 C754 1.391 . S
C753 C752 1.386 . S
C753 C757 1.393 . S
C754 H746 0.950 . S
C754 C752 1.391 . S
C754 C755 1.400 . S
C755 C754 1.400 . S
C755 C756 1.398 1_455 S
C755 C761 1.491 1_455 S
C756 H747 0.950 . S
C756 C755 1.398 1_655 S
C756 C757 1.391 1_655 S
C757 H745 0.944 1_455 S
C757 C753 1.393 . S
C757 C756 1.391 1_455 S
C758 H748 0.950 . S
C758 C759 1.386 . S
C758 C760 1.391 . S
C759 C758 1.386 . S
C759 C763 1.393 . S
C760 H749 0.950 . S
C760 C758 1.391 . S
C760 C761 1.400 . S
C761 C755 1.491 1_655 S
C761 C760 1.400 . S
C761 C762 1.398 1_655 S
C762 H750 0.950 . S
C762 C761 1.398 1_455 S
C762 C763 1.391 1_455 S
C763 H751 0.944 1_655 S
C763 C759 1.393 . S
C763 C762 1.391 1_655 S
H764 C772 0.950 . S
H765 C777 0.950 . S
H766 C774 0.950 . S
H767 C776 0.950 . S
H768 C778 0.950 . S
H769 C780 0.950 . S
H770 C782 0.950 . S
H771 C783 0.950 . S
C772 H764 0.950 . S
C772 C773 1.386 . S
C772 C774 1.391 . S
C773 C772 1.386 . S
C773 C777 1.393 1_545 S
C774 H766 0.950 . S
C774 C772 1.391 . S
C774 C775 1.400 . S
C775 C774 1.400 . S
C775 C776 1.398 1_545 S
C775 C781 1.491 1_545 S
C776 H767 0.950 . S
C776 C775 1.398 1_565 S
C776 C777 1.391 . S
C777 H765 0.950 . S
C777 C773 1.393 1_565 S
C777 C776 1.391 . S
C778 H768 0.950 . S
C778 C779 1.386 . S
C778 C780 1.391 . S
C779 C778 1.386 . S
C779 C783 1.393 1_565 S
C780 H769 0.950 . S
C780 C778 1.391 . S
C780 C781 1.400 . S
C781 C775 1.491 1_565 S
C781 C780 1.400 . S
C781 C782 1.398 1_565 S
C782 H770 0.950 . S
C782 C781 1.398 1_545 S
C782 C783 1.391 . S
C783 H771 0.950 . S
C783 C779 1.393 1_545 S
C783 C782 1.391 . S
H784 C792 0.950 . S
H785 C797 0.950 . S
H786 C794 0.950 . S
H787 C796 0.950 . S
H788 C798 0.950 . S
H789 C800 0.950 . S
H790 C802 0.950 . S
H791 C803 0.950 . S
C792 H784 0.950 . S
C792 C793 1.386 . S
C792 C794 1.391 . S
C793 C792 1.386 . S
C793 C797 1.393 . S
C794 H786 0.950 . S
C794 C792 1.391 . S
C794 C795 1.400 . S
C795 C794 1.400 . S
C795 C796 1.398 . S
C795 C801 1.491 1_556 S
C796 H787 0.950 . S
C796 C795 1.398 . S
C796 C797 1.391 . S
C797 H785 0.950 . S
C797 C793 1.393 . S
C797 C796 1.391 . S
C798 H788 0.950 . S
C798 C799 1.386 . S
C798 C800 1.391 . S
C799 C798 1.386 . S
C799 C803 1.393 . S
C800 H789 0.950 . S
C800 C798 1.391 . S
C800 C801 1.400 . S
C801 C795 1.491 1_554 S
C801 C800 1.400 . S
C801 C802 1.398 . S
C802 H790 0.950 . S
C802 C801 1.398 . S
C802 C803 1.391 . S
C803 H791 0.950 . S
C803 C799 1.393 . S
C803 C802 1.391 . S
H804 C812 0.950 . S
H805 C817 0.950 . S
H806 C814 0.950 . S
H807 C816 0.950 . S
H808 C818 0.950 . S
H809 C820 0.950 . S
H810 C822 0.950 . S
H811 C823 0.950 . S
C812 H804 0.950 . S
C812 C813 1.386 . S
C812 C814 1.391 . S
C813 C812 1.386 . S
C813 C817 1.393 . S
C814 H806 0.950 . S
C814 C812 1.391 . S
C814 C815 1.400 . S
C815 C814 1.400 . S
C815 C816 1.398 . S
C815 C821 1.491 1_556 S
C816 H807 0.950 . S
C816 C815 1.398 . S
C816 C817 1.391 . S
C817 H805 0.950 . S
C817 C813 1.393 . S
C817 C816 1.391 . S
C818 H808 0.950 . S
C818 C819 1.386 . S
C818 C820 1.391 . S
C819 C818 1.386 . S
C819 C823 1.393 . S
C820 H809 0.950 . S
C820 C818 1.391 . S
C820 C821 1.400 . S
C821 C815 1.491 1_554 S
C821 C820 1.400 . S
C821 C822 1.398 . S
C822 H810 0.950 . S
C822 C821 1.398 . S
C822 C823 1.391 . S
C823 H811 0.950 . S
C823 C819 1.393 . S
C823 C822 1.391 . S
H824 C832 0.950 . S
H825 C837 0.950 . S
H826 C834 0.950 . S
H827 C836 0.950 . S
H828 C838 0.950 . S
H829 C840 0.950 . S
H830 C842 0.950 . S
H831 C843 0.950 . S
C832 H824 0.950 . S
C832 C833 1.386 . S
C832 C834 1.391 . S
C833 C832 1.386 . S
C833 C837 1.393 . S
C834 H826 0.950 . S
C834 C832 1.391 . S
C834 C835 1.400 . S
C835 C834 1.400 . S
C835 C836 1.398 . S
C835 C841 1.491 1_554 S
C836 H827 0.950 . S
C836 C835 1.398 . S
C836 C837 1.391 . S
C837 H825 0.950 . S
C837 C833 1.393 . S
C837 C836 1.391 . S
C838 H828 0.950 . S
C838 C839 1.386 . S
C838 C840 1.391 . S
C839 C838 1.386 . S
C839 C843 1.393 . S
C840 H829 0.950 . S
C840 C838 1.391 . S
C840 C841 1.400 . S
C841 C835 1.491 1_556 S
C841 C840 1.400 . S
C841 C842 1.398 . S
C842 H830 0.950 . S
C842 C841 1.398 . S
C842 C843 1.391 . S
C843 H831 0.950 . S
C843 C839 1.393 . S
C843 C842 1.391 . S
H844 C852 0.950 . S
H845 C857 0.950 . S
H846 C854 0.950 . S
H847 C856 0.950 . S
H848 C858 0.950 . S
H849 C860 0.950 . S
H850 C862 0.950 . S
H851 C863 0.950 . S
C852 H844 0.950 . S
C852 C853 1.386 . S
C852 C854 1.391 . S
C853 C852 1.386 . S
C853 C857 1.393 . S
C854 H846 0.950 . S
C854 C852 1.391 . S
C854 C855 1.400 . S
C855 C854 1.400 . S
C855 C856 1.398 . S
C855 C861 1.491 1_556 S
C856 H847 0.950 . S
C856 C855 1.398 . S
C856 C857 1.391 . S
C857 H845 0.950 . S
C857 C853 1.393 . S
C857 C856 1.391 . S
C858 H848 0.950 . S
C858 C859 1.386 . S
C858 C860 1.391 . S
C859 C858 1.386 . S
C859 C863 1.393 . S
C860 H849 0.950 . S
C860 C858 1.391 . S
C860 C861 1.400 . S
C861 C855 1.491 1_554 S
C861 C860 1.400 . S
C861 C862 1.398 . S
C862 H850 0.950 . S
C862 C861 1.398 . S
C862 C863 1.391 . S
C863 H851 0.950 . S
C863 C859 1.393 . S
C863 C862 1.391 . S
C233 C13 1.289 . S
C239 C50 1.247 . S
C253 C8 1.273 . S
C259 C27 1.259 . S
C273 C22 1.272 . S
C279 C41 1.257 . S
C293 C36 1.245 . S
C299 C55 1.273 . S
C313 C69 1.292 . S
C319 C78 1.243 . S
C333 C83 1.257 . S
C339 C92 1.268 . S
C353 C97 1.272 . S
C359 C106 1.245 . S
C373 C111 1.258 . S
C379 C64 1.272 . S
C393 C125 1.277 . S
C399 C162 1.261 . S
C413 C120 1.271 . S
C419 C139 1.266 . S
C433 C134 1.234 . S
C439 C153 1.296 . S
C453 C167 1.296 . S
C459 C148 1.232 . S
C473 C190 1.269 . S
C479 C181 1.269 . S
C493 C204 1.244 . S
C499 C195 1.273 . S
C513 C209 1.295 . S
C519 C218 1.229 . S
C533 C223 1.296 . S
C539 C176 1.236 . S
C553 C11 0.985 . S
C559 C221 0.983 . S
C573 C25 1.006 . S
C579 C179 0.996 . S
C593 C193 0.983 . S
C599 C39 0.998 . S
C613 C53 1.006 . S
C619 C207 0.994 . S
C633 C137 0.984 . S
C639 C67 0.999 . S
C653 C151 1.006 . S
C659 C81 0.994 . S
C673 C95 0.981 . S
C679 C165 0.990 . S
C693 C109 1.000 . S
C699 C123 0.984 . S
C713 C7 1.393 . S
C719 C91 1.376 . S
C733 C105 1.374 . S
C739 C21 1.399 . S
C753 C63 1.390 . S
C759 C35 1.379 . S
C773 C77 1.392 . S
C779 C49 1.377 . S
C793 C119 1.398 . S
C799 C203 1.380 . S
C813 C133 1.374 . S
C819 C217 1.400 . S
C833 C175 1.399 . S
C839 C147 1.378 . S
C853 C161 1.382 . S
C859 C189 1.386 . S
