# Generated by pormake.
# Topology dia, (4)-cn, num edge types: 1
# Building blocks:
#     Node 0, Type 0, BuildingBlock: KUFVIS_clean_sbu_0, # of connection points: 4
#     Node 1, Type 0, BuildingBlock: KUFVIS_clean_sbu_0, # of connection points: 4
#     Node 2, Type 0, BuildingBlock: KUFVIS_clean_sbu_0, # of connection points: 4
#     Node 3, Type 0, BuildingBlock: KUFVIS_clean_sbu_0, # of connection points: 4
#     Node 4, Type 0, BuildingBlock: KUFVIS_clean_sbu_0, # of connection points: 4
#     Node 5, Type 0, BuildingBlock: KUFVIS_clean_sbu_0, # of connection points: 4
#     Node 6, Type 0, BuildingBlock: KUFVIS_clean_sbu_0, # of connection points: 4
#     Node 7, Type 0, BuildingBlock: KUFVIS_clean_sbu_0, # of connection points: 4
#     Edge 8, Type (0, 0), BuildingBlock: FUNLAD_clean_linker_0, # of connection points: 2
#     Edge 9, Type (0, 0), BuildingBlock: FUNLAD_clean_linker_0, # of connection points: 2
#     Edge 10, Type (0, 0), BuildingBlock: FUNLAD_clean_linker_0, # of connection points: 2
#     Edge 11, Type (0, 0), BuildingBlock: FUNLAD_clean_linker_0, # of connection points: 2
#     Edge 12, Type (0, 0), BuildingBlock: FUNLAD_clean_linker_0, # of connection points: 2
#     Edge 13, Type (0, 0), BuildingBlock: FUNLAD_clean_linker_0, # of connection points: 2
#     Edge 14, Type (0, 0), BuildingBlock: FUNLAD_clean_linker_0, # of connection points: 2
#     Edge 15, Type (0, 0), BuildingBlock: FUNLAD_clean_linker_0, # of connection points: 2
#     Edge 16, Type (0, 0), BuildingBlock: FUNLAD_clean_linker_0, # of connection points: 2
#     Edge 17, Type (0, 0), BuildingBlock: FUNLAD_clean_linker_0, # of connection points: 2
#     Edge 18, Type (0, 0), BuildingBlock: FUNLAD_clean_linker_0, # of connection points: 2
#     Edge 19, Type (0, 0), BuildingBlock: FUNLAD_clean_linker_0, # of connection points: 2
#     Edge 20, Type (0, 0), BuildingBlock: FUNLAD_clean_linker_0, # of connection points: 2
#     Edge 21, Type (0, 0), BuildingBlock: FUNLAD_clean_linker_0, # of connection points: 2
#     Edge 22, Type (0, 0), BuildingBlock: FUNLAD_clean_linker_0, # of connection points: 2
#     Edge 23, Type (0, 0), BuildingBlock: FUNLAD_clean_linker_0, # of connection points: 2
# Relax obj value: 0.070
# Max RMSD: 0.124
# Mean RMSD: 0.124
data_MOF--net-dia--node1-KUFVIS_clean_sbu_0--edge1-FUNLAD_clean_linker_0
_symmetry_space_group_name_H-M    P1
_symmetry_Int_Tables_number       1
_symmetry_cell_setting            triclinic
loop_
_symmetry_equiv_pos_as_xyz
'x, y, z'
_cell_length_a     43.780015
_cell_length_b     37.795604
_cell_length_c     37.974661
_cell_angle_alpha  91.087795
_cell_angle_beta   91.98335
_cell_angle_gamma 91.622642
loop_
_atom_site_label
_atom_site_type_symbol
_atom_site_fract_x
_atom_site_fract_y
_atom_site_fract_z
_atom_type_partial_charge
Mn0 Mn 0.13413 0.14632 0.62741 0.0
Mn1 Mn 0.16052 0.07695 0.58099 0.0
C2 C 0.10615 0.12257 0.57936 0.0
C3 C 0.10665 0.17219 0.67236 0.0
C4 C 0.18441 0.15189 0.57292 0.0
O5 O 0.1663 0.12691 0.6616 0.0
O6 O 0.18217 0.08186 0.62771 0.0
C7 C 0.13767 0.02005 0.62665 0.0
N8 N 0.13909 0.03479 0.59428 0.0
C9 C 0.10831 0.98707 0.56765 0.0
C10 C 0.10664 0.97127 0.60067 0.0
C11 C 0.12129 0.98792 0.63032 0.0
C12 C 0.12481 0.0192 0.56566 0.0
H13 H 0.14897 0.03269 0.64948 0.0
C14 C 0.18334 0.10057 0.65626 0.0
O15 O 0.12892 0.18895 0.65763 0.0
O16 O 0.10114 0.13955 0.66213 0.0
N17 N 0.14164 0.06854 0.53528 0.0
C18 C 0.14459 0.08784 0.50557 0.0
C19 C 0.13083 0.07513 0.47366 0.0
C20 C 0.11462 0.0425 0.47251 0.0
C21 C 0.11233 0.02285 0.50329 0.0
C22 C 0.12647 0.03687 0.53433 0.0
H23 H 0.15723 0.1128 0.50624 0.0
O24 O 0.1022 0.15494 0.58982 0.0
O25 O 0.12632 0.10498 0.5972 0.0
O26 O 0.16764 0.16537 0.59611 0.0
O27 O 0.18353 0.11898 0.56471 0.0
C28 C 0.09634 0.99005 0.50447 0.0
C29 C 0.0941 0.97231 0.53668 0.0
H30 H 0.09408 0.94646 0.6036 0.0
H31 H 0.12002 0.97595 0.65591 0.0
H32 H 0.13276 0.09043 0.45 0.0
H33 H 0.10393 0.03286 0.44788 0.0
H34 H 0.08528 0.97847 0.48085 0.0
H35 H 0.08128 0.94741 0.53736 0.0
Mn36 Mn 0.89998 0.38484 0.87431 0.0
Mn37 Mn 0.87612 0.42945 0.94576 0.0
C38 C 0.92928 0.43188 0.89827 0.0
C39 C 0.92573 0.33776 0.84932 0.0
C40 C 0.84938 0.43875 0.87172 0.0
O41 O 0.86666 0.35195 0.89307 0.0
O42 O 0.85716 0.38108 0.94378 0.0
C43 C 0.90571 0.387 1.00138 0.0
N44 N 0.90085 0.41891 0.98644 0.0
C45 C 0.93204 0.44924 0.03156 0.0
C46 C 0.93699 0.41676 0.04776 0.0
C47 C 0.92393 0.38548 0.03246 0.0
C48 C 0.9138 0.44907 1.00054 0.0
H49 H 0.89585 0.36292 0.98957 0.0
C50 C 0.85366 0.35436 0.92261 0.0
O51 O 0.90451 0.35399 0.83183 0.0
O52 O 0.93138 0.34819 0.88171 0.0
N53 N 0.89285 0.47663 0.95143 0.0
C54 C 0.88747 0.50544 0.93131 0.0
C55 C 0.89991 0.53868 0.94221 0.0
C56 C 0.91735 0.54207 0.9739 0.0
C57 C 0.92224 0.51215 0.99438 0.0
C58 C 0.90934 0.4797 0.98215 0.0
H59 H 0.87383 0.50311 0.90711 0.0
O60 O 0.93312 0.42114 0.86613 0.0
O61 O 0.90899 0.41434 0.91562 0.0
O62 O 0.86765 0.41854 0.85609 0.0
O63 O 0.84962 0.44314 0.90519 0.0
C64 C 0.93972 0.51317 0.02625 0.0
C65 C 0.94482 0.4817 0.04469 0.0
H66 H 0.95104 0.41549 0.07172 0.0
H67 H 0.9279 0.36027 0.0446 0.0
H68 H 0.896 0.56165 0.92627 0.0
H69 H 0.927 0.56773 0.98216 0.0
H70 H 0.94987 0.53793 0.03646 0.0
H71 H 0.95891 0.48271 0.06873 0.0
Mn72 Mn 0.63508 0.14312 0.12465 0.0
Mn73 Mn 0.65852 0.06944 0.08261 0.0
C74 C 0.6059 0.11807 0.07819 0.0
C75 C 0.60889 0.1719 0.16899 0.0
C76 C 0.68541 0.14256 0.07039 0.0
O77 O 0.66735 0.12434 0.15939 0.0
O78 O 0.67945 0.0748 0.12958 0.0
C79 C 0.63175 0.01619 0.12965 0.0
N80 N 0.63464 0.02945 0.0968 0.0
C81 C 0.60219 0.98274 0.07102 0.0
C82 C 0.59897 0.96847 0.10455 0.0
C83 C 0.61371 0.98536 0.13401 0.0
C84 C 0.6203 0.01363 0.06835 0.0
H85 H 0.64314 0.02905 0.15232 0.0
C86 C 0.68227 0.09589 0.15636 0.0
O87 O 0.63115 0.1874 0.15301 0.0
O88 O 0.60268 0.139 0.16032 0.0
N89 N 0.64018 0.06057 0.03672 0.0
C90 C 0.64466 0.07852 0.00645 0.0
C91 C 0.63097 0.0655 0.97462 0.0
C92 C 0.61324 0.03391 0.97415 0.0
C93 C 0.60937 0.01562 1.00553 0.0
C94 C 0.62352 0.0299 0.03645 0.0
H95 H 0.65849 0.10263 0.00661 0.0
O96 O 0.60283 0.151 0.08726 0.0
O97 O 0.62567 0.10059 0.09676 0.0
O98 O 0.66832 0.15909 0.09124 0.0
O99 O 0.68414 0.10903 0.06568 0.0
C100 C 0.59178 0.98397 0.00743 0.0
C101 C 0.58796 0.9677 0.04018 0.0
H102 H 0.58512 0.94467 0.10802 0.0
H103 H 0.61126 0.97458 0.15999 0.0
H104 H 0.63411 0.07974 0.9505 0.0
H105 H 0.60261 0.02403 0.94958 0.0
H106 H 0.58067 0.97221 0.98392 0.0
H107 H 0.57391 0.94373 0.04138 0.0
Mn108 Mn 0.90204 0.88265 0.37264 0.0
Mn109 Mn 0.87639 0.93299 0.43938 0.0
C110 C 0.93187 0.92929 0.39653 0.0
C111 C 0.92792 0.83402 0.35094 0.0
C112 C 0.85386 0.93956 0.3635 0.0
O113 O 0.86752 0.85163 0.39151 0.0
O114 O 0.85402 0.88653 0.4369 0.0
C115 C 0.89802 0.88986 0.49906 0.0
N116 N 0.89754 0.92141 0.48233 0.0
C117 C 0.93014 0.9493 0.5277 0.0
C118 C 0.93085 0.91716 0.54551 0.0
C119 C 0.91478 0.8873 0.53107 0.0
C120 C 0.91303 0.95026 0.49591 0.0
H121 H 0.88575 0.86682 0.48804 0.0
C122 C 0.85158 0.85775 0.41845 0.0
O123 O 0.90752 0.84988 0.33186 0.0
O124 O 0.93252 0.84557 0.38316 0.0
N125 N 0.89652 0.97849 0.44505 0.0
C126 C 0.89457 1.00708 0.42384 0.0
C127 C 0.90982 0.03898 0.4342 0.0
C128 C 0.92672 0.04125 0.46633 0.0
C129 C 0.92814 0.01159 0.48788 0.0
C130 C 0.91229 0.98057 0.47631 0.0
H131 H 0.88156 1.00554 0.39916 0.0
O132 O 0.93646 0.91754 0.36489 0.0
O133 O 0.91 0.9136 0.41299 0.0
O134 O 0.87099 0.91607 0.3509 0.0
O135 O 0.8537 0.94767 0.3963 0.0
C136 C 0.94507 0.01141 0.52012 0.0
C137 C 0.94616 0.98025 0.53995 0.0
H138 H 0.94384 0.91503 0.57015 0.0
H139 H 0.91532 0.86236 0.54459 0.0
H140 H 0.90863 0.06175 0.41741 0.0
H141 H 0.9387 0.06579 0.47406 0.0
H142 H 0.95773 0.03492 0.52962 0.0
H143 H 0.95962 0.98029 0.56443 0.0
Mn144 Mn 0.1357 0.64272 0.13131 0.0
Mn145 Mn 0.15941 0.5743 0.0814 0.0
C146 C 0.10438 0.61807 0.08653 0.0
C147 C 0.11128 0.66789 0.17908 0.0
C148 C 0.18117 0.6498 0.07162 0.0
O149 O 0.17082 0.62387 0.16177 0.0
O150 O 0.18473 0.57942 0.12566 0.0
C151 C 0.14152 0.51658 0.12886 0.0
N152 N 0.13985 0.53165 0.09659 0.0
C153 C 0.10655 0.48439 0.07342 0.0
C154 C 0.10805 0.46827 0.10636 0.0
C155 C 0.12555 0.48449 0.13422 0.0
C156 C 0.12293 0.51638 0.06966 0.0
H157 H 0.1549 0.52897 0.15036 0.0
C158 C 0.18784 0.59803 0.1542 0.0
O159 O 0.13204 0.68513 0.16227 0.0
O160 O 0.10579 0.63509 0.16941 0.0
N161 N 0.13681 0.56596 0.03783 0.0
C162 C 0.13704 0.58546 0.00801 0.0
C163 C 0.12041 0.57307 0.97774 0.0
C164 C 0.10397 0.54063 0.97833 0.0
C165 C 0.10443 0.52078 0.00915 0.0
C166 C 0.1216 0.53436 0.03842 0.0
H167 H 0.14973 0.61034 0.00736 0.0
O168 O 0.10062 0.65039 0.09728 0.0
O169 O 0.12646 0.60134 0.10191 0.0
O170 O 0.16602 0.66267 0.09662 0.0
O171 O 0.18026 0.61694 0.06313 0.0
C172 C 0.08816 0.48834 0.01215 0.0
C173 C 0.08912 0.47023 0.04431 0.0
H174 H 0.09572 0.44355 0.11062 0.0
H175 H 0.12672 0.47227 0.15976 0.0
H176 H 0.12019 0.58852 0.95404 0.0
H177 H 0.09092 0.53133 0.95505 0.0
H178 H 0.07449 0.47733 0.99005 0.0
H179 H 0.07619 0.44555 0.04643 0.0
Mn180 Mn 0.4024 0.38751 0.37057 0.0
Mn181 Mn 0.37714 0.43188 0.44162 0.0
C182 C 0.43122 0.43422 0.3958 0.0
C183 C 0.42904 0.34125 0.34532 0.0
C184 C 0.35276 0.44334 0.36726 0.0
O185 O 0.36929 0.35376 0.38828 0.0
O186 O 0.35578 0.38506 0.43609 0.0
C187 C 0.40142 0.3849 0.49679 0.0
N188 N 0.39941 0.41774 0.48291 0.0
C189 C 0.43038 0.44373 0.53074 0.0
C190 C 0.43268 0.41021 0.54566 0.0
C191 C 0.41824 0.38065 0.52852 0.0
C192 C 0.4135 0.44628 0.49895 0.0
H193 H 0.39025 0.36216 0.48376 0.0
C194 C 0.3535 0.35769 0.41568 0.0
O195 O 0.40787 0.35743 0.3277 0.0
O196 O 0.43409 0.3512 0.37795 0.0
N197 N 0.39576 0.47771 0.45066 0.0
C198 C 0.3922 0.50795 0.43215 0.0
C199 C 0.40571 0.53986 0.44539 0.0
C200 C 0.42225 0.54047 0.47777 0.0
C201 C 0.42513 0.50914 0.49663 0.0
C202 C 0.41126 0.47812 0.48208 0.0
H203 H 0.37924 0.50773 0.40744 0.0
O204 O 0.43532 0.42422 0.36349 0.0
O205 O 0.41072 0.41638 0.4126 0.0
O206 O 0.36982 0.42126 0.35213 0.0
O207 O 0.3534 0.44887 0.40055 0.0
C208 C 0.44145 0.50739 0.52914 0.0
C209 C 0.44432 0.47466 0.54603 0.0
H210 H 0.44557 0.40683 0.57018 0.0
H211 H 0.42 0.35468 0.53981 0.0
H212 H 0.40331 0.56395 0.43071 0.0
H213 H 0.43272 0.5651 0.48784 0.0
H214 H 0.45229 0.53099 0.54113 0.0
H215 H 0.45741 0.47356 0.5707 0.0
Mn216 Mn 0.40116 0.88053 0.86842 0.0
Mn217 Mn 0.37416 0.9289 0.93582 0.0
C218 C 0.43041 0.92669 0.89402 0.0
C219 C 0.4273 0.83247 0.84602 0.0
C220 C 0.35321 0.93791 0.85984 0.0
O221 O 0.36659 0.84874 0.88571 0.0
O222 O 0.35125 0.88284 0.93081 0.0
C223 C 0.39398 0.88308 0.99423 0.0
N224 N 0.39415 0.91533 0.97883 0.0
C225 C 0.42593 0.94101 0.02616 0.0
C226 C 0.42594 0.90811 0.04263 0.0
C227 C 0.40996 0.87901 0.02654 0.0
C228 C 0.40957 0.94347 0.994 0.0
H229 H 0.38178 0.86062 0.98192 0.0
C230 C 0.34944 0.8545 0.91164 0.0
O231 O 0.407 0.84862 0.82706 0.0
O232 O 0.43182 0.84358 0.87839 0.0
N233 N 0.3945 0.97397 0.94396 0.0
C234 C 0.39321 1.0035 0.92398 0.0
C235 C 0.40845 0.03484 0.93608 0.0
C236 C 0.42464 0.03559 0.96868 0.0
C237 C 0.42534 1.005 0.98898 0.0
C238 C 0.40953 0.97461 0.97568 0.0
H239 H 0.38075 1.00311 0.89893 0.0
O240 O 0.43546 0.91589 0.86216 0.0
O241 O 0.40838 0.91039 0.90971 0.0
O242 O 0.37015 0.91431 0.84708 0.0
O243 O 0.35276 0.94547 0.89274 0.0
C244 C 0.44153 1.0033 0.0216 0.0
C245 C 0.4419 0.9713 0.04012 0.0
H246 H 0.43833 0.90483 0.06749 0.0
H247 H 0.40998 0.8535 0.039 0.0
H248 H 0.4078 0.05834 0.92026 0.0
H249 H 0.43662 0.05971 0.97776 0.0
H250 H 0.45415 0.02631 0.03242 0.0
H251 H 0.45479 0.97019 0.06493 0.0
Mn252 Mn 0.63613 0.64064 0.63458 0.0
Mn253 Mn 0.66098 0.57416 0.58297 0.0
C254 C 0.60511 0.61657 0.58928 0.0
C255 C 0.6118 0.6626 0.68386 0.0
C256 C 0.68114 0.65062 0.57488 0.0
O257 O 0.67174 0.62188 0.66419 0.0
O258 O 0.68605 0.57816 0.62753 0.0
C259 C 0.64359 0.51457 0.62842 0.0
N260 N 0.64187 0.53068 0.59666 0.0
C261 C 0.60921 0.48364 0.57184 0.0
C262 C 0.61077 0.46645 0.60423 0.0
C263 C 0.62797 0.48204 0.63265 0.0
C264 C 0.62523 0.51601 0.5692 0.0
H265 H 0.65673 0.52648 0.65036 0.0
C266 C 0.68887 0.59624 0.65641 0.0
O267 O 0.63177 0.68157 0.66751 0.0
O268 O 0.60678 0.63028 0.67244 0.0
N269 N 0.63863 0.56688 0.53907 0.0
C270 C 0.63869 0.58739 0.50993 0.0
C271 C 0.62227 0.57574 0.47925 0.0
C272 C 0.60622 0.54302 0.47871 0.0
C273 C 0.60684 0.52214 0.50884 0.0
C274 C 0.62378 0.53501 0.53858 0.0
H275 H 0.65108 0.61251 0.51013 0.0
O276 O 0.60063 0.64836 0.60116 0.0
O277 O 0.62761 0.60001 0.60401 0.0
O278 O 0.66568 0.66268 0.60006 0.0
O279 O 0.68124 0.61782 0.56621 0.0
C280 C 0.59094 0.48933 0.51072 0.0
C281 C 0.59202 0.47016 0.54224 0.0
H282 H 0.5987 0.4414 0.60763 0.0
H283 H 0.62918 0.46902 0.65778 0.0
H284 H 0.62193 0.59199 0.45609 0.0
H285 H 0.59333 0.53428 0.45512 0.0
H286 H 0.57745 0.47884 0.48824 0.0
H287 H 0.57936 0.44521 0.54351 0.0
C288 C 0.30821 0.33726 0.44849 0.0
C289 C 0.3318 0.32916 0.42577 0.0
C290 C 0.28942 0.31058 0.46152 0.0
C291 C 0.29401 0.27488 0.45267 0.0
C292 C 0.31644 0.2668 0.42839 0.0
C293 C 0.33526 0.29372 0.41505 0.0
C294 C 0.27559 0.24598 0.4686 0.0
C295 C 0.26501 0.24924 0.50144 0.0
C296 C 0.24488 0.22294 0.5188 0.0
C297 C 0.22972 0.23422 0.54881 0.0
C298 C 0.21028 0.21116 0.56628 0.0
C299 C 0.20563 0.17592 0.55441 0.0
H300 H 0.25219 0.17751 0.48437 0.0
C301 C 0.22114 0.1643 0.52464 0.0
C302 C 0.24054 0.18756 0.50695 0.0
H303 H 0.21814 0.13729 0.51482 0.0
H304 H 0.3044 0.36436 0.45664 0.0
H305 H 0.27138 0.31814 0.47867 0.0
H306 H 0.32007 0.23955 0.42062 0.0
H307 H 0.35315 0.28666 0.39744 0.0
H308 H 0.2712 0.22187 0.4531 0.0
H309 H 0.27086 0.27323 0.51669 0.0
H310 H 0.23268 0.26123 0.55871 0.0
H311 H 0.19891 0.22109 0.58919 0.0
C312 C 0.70903 0.58967 0.71875 0.0
C313 C 0.71253 0.58503 0.68231 0.0
C314 C 0.72963 0.57461 0.74288 0.0
C315 C 0.75424 0.55496 0.73085 0.0
C316 C 0.75854 0.55215 0.69449 0.0
C317 C 0.73784 0.56669 0.67052 0.0
C318 C 0.7757 0.53629 0.75479 0.0
C319 C 0.76853 0.52459 0.78687 0.0
C320 C 0.78923 0.50213 0.80819 0.0
C321 C 0.78788 0.50309 0.84506 0.0
C322 C 0.80708 0.48224 0.86573 0.0
C323 C 0.8278 0.45953 0.84991 0.0
H324 H 0.81029 0.47615 0.76396 0.0
C325 C 0.82847 0.45785 0.81292 0.0
C326 C 0.8094 0.47879 0.79232 0.0
H327 H 0.8439 0.4405 0.79973 0.0
H328 H 0.68977 0.60374 0.7286 0.0
H329 H 0.72607 0.57825 0.77074 0.0
H330 H 0.77746 0.53756 0.68447 0.0
H331 H 0.74137 0.56296 0.64261 0.0
H332 H 0.79775 0.53001 0.74439 0.0
H333 H 0.74681 0.5311 0.79791 0.0
H334 H 0.77223 0.52041 0.85795 0.0
H335 H 0.80581 0.48418 0.89413 0.0
C336 C 0.56685 0.07074 0.06388 0.0
C337 C 0.58363 0.10056 0.05333 0.0
C338 C 0.54601 0.05336 0.04041 0.0
C339 C 0.54169 0.06548 0.00579 0.0
C340 C 0.55703 0.0968 0.99614 0.0
C341 C 0.57773 0.11438 0.01986 0.0
C342 C 0.52143 0.04596 0.97937 0.0
C343 C 0.51693 0.01057 0.98022 0.0
C344 C 0.49631 0.98937 0.95555 0.0
C345 C 0.48788 0.95494 0.96541 0.0
C346 C 0.46678 0.9346 0.94492 0.0
C347 C 0.45371 0.94818 0.91403 0.0
H348 H 0.49125 0.02801 0.91401 0.0
C349 C 0.46362 0.98144 0.90249 0.0
C350 C 0.4846 1.00215 0.92328 0.0
H351 H 0.45434 0.99186 0.87812 0.0
H352 H 0.57009 0.06067 0.09024 0.0
H353 H 0.53347 0.03043 0.04954 0.0
H354 H 0.55363 0.10712 0.96993 0.0
H355 H 0.58986 0.13805 0.01168 0.0
H356 H 0.51085 0.06113 0.95855 0.0
H357 H 0.52825 0.996 1.001 0.0
H358 H 0.49688 0.9441 0.98973 0.0
H359 H 0.46015 0.90843 0.95364 0.0
C360 C 0.94798 0.8019 0.29883 0.0
C361 C 0.94694 0.80622 0.3356 0.0
C362 C 0.96831 0.77852 0.28393 0.0
C363 C 0.9878 0.75859 0.30548 0.0
C364 C 0.98566 0.76147 0.34222 0.0
C365 C 0.9657 0.78543 0.35719 0.0
C366 C 1.0108 0.7353 0.28991 0.0
C367 C 0.02727 0.74589 0.2625 0.0
C368 C 0.05077 0.72437 0.24552 0.0
C369 C 0.07462 0.74212 0.22877 0.0
C370 C 0.09529 0.72341 0.20898 0.0
C371 C 0.09228 0.68643 0.20482 0.0
H372 H 0.03009 0.67271 0.25503 0.0
C373 C 0.06903 0.66838 0.22255 0.0
C374 C 0.04851 0.68717 0.24289 0.0
H375 H 0.06602 0.63992 0.21971 0.0
H376 H 0.93379 0.81743 0.28145 0.0
H377 H 0.96891 0.77623 0.25549 0.0
H378 H 1.00024 0.74614 0.35936 0.0
H379 H 0.96529 0.78806 0.38562 0.0
H380 H 1.01561 0.71041 0.30252 0.0
H381 H 0.02422 0.77244 0.25266 0.0
H382 H 0.07686 0.77074 0.23031 0.0
H383 H 0.11285 0.73822 0.19566 0.0
C384 C 0.31618 0.98631 0.84704 0.0
C385 C 0.33316 0.95759 0.83517 0.0
C386 C 0.29738 1.00476 0.82355 0.0
C387 C 0.29514 0.99484 0.7876 0.0
C388 C 0.31198 0.96606 0.77594 0.0
C389 C 0.3308 0.94777 0.79929 0.0
C390 C 0.2753 0.0128 0.76118 0.0
C391 C 0.26253 0.04461 0.76585 0.0
C392 C 0.24368 0.06116 0.73753 0.0
C393 C 0.22029 0.08412 0.74641 0.0
C394 C 0.20116 0.0982 0.7201 0.0
C395 C 0.20519 0.08957 0.68441 0.0
H396 H 0.26744 0.03837 0.69353 0.0
C397 C 0.22962 0.06813 0.67558 0.0
C398 C 0.24874 0.05437 0.70169 0.0
H399 H 0.23387 0.0616 0.64831 0.0
H400 H 0.31739 0.99461 0.87453 0.0
H401 H 0.28445 0.02631 0.83393 0.0
H402 H 0.3107 0.95765 0.74847 0.0
H403 H 0.34339 0.92578 0.7891 0.0
H404 H 0.27127 0.99876 0.73617 0.0
H405 H 0.26521 0.05871 0.79094 0.0
H406 H 0.21623 0.09032 0.77379 0.0
H407 H 0.18263 0.11477 0.72776 0.0
C408 C 0.96758 0.44776 0.94586 0.0
C409 C 0.95109 0.45745 0.91548 0.0
C410 C 0.98783 0.47195 0.96312 0.0
C411 C 0.99182 0.50646 0.95035 0.0
C412 C 0.9768 0.51525 0.91855 0.0
C413 C 0.95667 0.49079 0.90107 0.0
C414 C 1.01151 0.53355 0.96968 0.0
C415 C 1.01536 0.53354 1.00504 0.0
C416 C 0.03608 0.55823 0.02599 0.0
C417 C 0.04502 0.54819 0.06012 0.0
C418 C 0.06682 0.56826 0.07988 0.0
C419 C 0.07996 0.59894 0.066 0.0
H420 H 0.04057 0.59985 0.98744 0.0
C421 C 0.06934 0.61089 0.03322 0.0
C422 C 0.0477 0.59047 0.01307 0.0
H423 H 0.07868 0.63513 0.02261 0.0
H424 H 0.96455 0.42152 0.95646 0.0
H425 H 1.0002 0.46347 0.98649 0.0
H426 H 0.97997 0.54136 0.90774 0.0
H427 H 0.94473 0.49831 0.87702 0.0
H428 H 0.02244 0.55394 0.95439 0.0
H429 H 1.0038 0.51312 0.01972 0.0
H430 H 0.03608 0.52389 0.07106 0.0
H431 H 0.07404 0.55926 0.1057 0.0
C432 C 0.44886 0.31196 0.29136 0.0
C433 C 0.44805 0.31447 0.32829 0.0
C434 C 0.46884 0.28901 0.27514 0.0
C435 C 0.48818 0.26773 0.29552 0.0
C436 C 0.48638 0.26905 0.33235 0.0
C437 C 0.4668 0.29253 0.34863 0.0
C438 C 0.51038 0.24414 0.27881 0.0
C439 C 0.52599 0.25411 0.25051 0.0
C440 C 0.54875 0.23187 0.23302 0.0
C441 C 0.57225 0.24876 0.21488 0.0
C442 C 0.59263 0.22909 0.19552 0.0
C443 C 0.58964 0.19199 0.19324 0.0
H444 H 0.52813 0.18077 0.24497 0.0
C445 C 0.56651 0.17491 0.21198 0.0
C446 C 0.54632 0.19464 0.23184 0.0
H447 H 0.56351 0.14637 0.2106 0.0
H448 H 0.43465 0.32844 0.27495 0.0
H449 H 0.46911 0.28794 0.24664 0.0
H450 H 0.50082 0.25267 0.34861 0.0
H451 H 0.46656 0.29374 0.37714 0.0
H452 H 0.51539 0.21931 0.29143 0.0
H453 H 0.52295 0.28056 0.24044 0.0
H454 H 0.57459 0.27738 0.21523 0.0
H455 H 0.61007 0.24313 0.18129 0.0
C456 C 0.81258 0.8366 0.4604 0.0
C457 C 0.83007 0.82985 0.43075 0.0
C458 C 0.79391 0.81019 0.47414 0.0
C459 C 0.79179 0.77618 0.45839 0.0
C460 C 0.80909 0.76933 0.42862 0.0
C461 C 0.82794 0.79592 0.4148 0.0
C462 C 0.77332 0.74702 0.47391 0.0
C463 C 0.74918 0.75311 0.49413 0.0
C464 C 0.73227 0.72564 0.51395 0.0
C465 C 0.7142 0.73701 0.54159 0.0
C466 C 0.69798 0.7127 0.56148 0.0
C467 C 0.69915 0.67619 0.55411 0.0
H468 H 0.74651 0.67913 0.48485 0.0
C469 C 0.71703 0.66467 0.52622 0.0
C470 C 0.73344 0.6891 0.50634 0.0
H471 H 0.71827 0.63677 0.51957 0.0
H472 H 0.81376 0.86222 0.47374 0.0
H473 H 0.78208 0.81643 0.4979 0.0
H474 H 0.8082 0.74327 0.41619 0.0
H475 H 0.84125 0.78966 0.39211 0.0
H476 H 0.7805 0.72018 0.46912 0.0
H477 H 0.74183 0.78009 0.49767 0.0
H478 H 0.71275 0.76495 0.54806 0.0
H479 H 0.68438 0.72269 0.58257 0.0
C480 C 0.20926 0.5921 0.21615 0.0
C481 C 0.21213 0.5875 0.17962 0.0
C482 C 0.23065 0.57761 0.23975 0.0
C483 C 0.2554 0.5586 0.22708 0.0
C484 C 0.25905 0.55591 0.19061 0.0
C485 C 0.23759 0.56987 0.16718 0.0
C486 C 0.27765 0.54042 0.25047 0.0
C487 C 0.27117 0.52846 0.28264 0.0
C488 C 0.29255 0.50662 0.3037 0.0
C489 C 0.29116 0.50736 0.34054 0.0
C490 C 0.3106 0.48678 0.36112 0.0
C491 C 0.33162 0.46447 0.34526 0.0
H492 H 0.31425 0.48159 0.25937 0.0
C493 C 0.33256 0.46317 0.30829 0.0
C494 C 0.31324 0.48394 0.28774 0.0
H495 H 0.34829 0.44617 0.29513 0.0
H496 H 0.18991 0.60566 0.22646 0.0
H497 H 0.22757 0.58119 0.26772 0.0
H498 H 0.27805 0.54183 0.18009 0.0
H499 H 0.24066 0.56625 0.13917 0.0
H500 H 0.29964 0.53474 0.23961 0.0
H501 H 0.24943 0.53433 0.29402 0.0
H502 H 0.27517 0.5242 0.3535 0.0
H503 H 0.30908 0.4884 0.38951 0.0
C504 C 0.83197 0.31764 0.96998 0.0
C505 C 0.83367 0.32484 0.93392 0.0
C506 C 0.81193 0.29137 0.98156 0.0
C507 C 0.79265 0.27211 0.9574 0.0
C508 C 0.79425 0.27919 0.92131 0.0
C509 C 0.81501 0.30494 0.90956 0.0
C510 C 0.76927 0.24668 0.97003 0.0
C511 C 0.77514 0.22521 0.99715 0.0
C512 C 0.75112 0.20327 0.01344 0.0
C513 C 0.75805 0.16944 0.02539 0.0
C514 C 0.73639 0.14933 0.04318 0.0
C515 C 0.70783 0.16328 0.05046 0.0
H516 H 0.71659 0.24329 0.01172 0.0
C517 C 0.70095 0.19725 0.03869 0.0
C518 C 0.72228 0.21693 0.01999 0.0
H519 H 0.67904 0.20855 0.04385 0.0
H520 H 0.84595 0.33259 0.98942 0.0
H521 H 0.81074 0.2871 0.00961 0.0
H522 H 0.77935 0.26489 0.90226 0.0
H523 H 0.81568 0.31019 0.88164 0.0
H524 H 0.74677 0.24584 0.95696 0.0
H525 H 0.79839 0.22361 0.0079 0.0
H526 H 0.78027 0.15859 0.021 0.0
H527 H 0.74231 0.12326 0.05211 0.0
C528 C 0.81655 0.98759 0.35002 0.0
C529 C 0.83322 0.95838 0.33872 0.0
C530 C 0.79724 1.0052 0.32636 0.0
C531 C 0.79415 0.99388 0.29083 0.0
C532 C 0.81067 0.9646 0.27977 0.0
C533 C 0.83001 0.94719 0.30326 0.0
C534 C 0.77376 0.01085 0.26426 0.0
C535 C 0.76161 0.04316 0.26768 0.0
C536 C 0.74261 0.05878 0.23887 0.0
C537 C 0.71991 0.083 0.24694 0.0
C538 C 0.70075 0.09634 0.22018 0.0
C539 C 0.70404 0.08562 0.18489 0.0
H540 H 0.76514 0.03291 0.19561 0.0
C541 C 0.72777 0.06287 0.1768 0.0
C542 C 0.74694 0.04991 0.20329 0.0
H543 H 0.73148 0.05477 0.14979 0.0
H544 H 0.81842 0.99693 0.37718 0.0
H545 H 0.78458 0.0272 0.33625 0.0
H546 H 0.80874 0.95512 0.25264 0.0
H547 H 0.84233 0.92477 0.29352 0.0
H548 H 0.7689 0.99562 0.24008 0.0
H549 H 0.76513 0.05848 0.29198 0.0
H550 H 0.71643 0.09083 0.27406 0.0
H551 H 0.68277 0.11398 0.22722 0.0
C552 C 0.9653 0.98405 0.40364 0.0
C553 C 0.9556 0.9509 0.4157 0.0
C554 C 0.98661 1.00492 0.42383 0.0
C555 C 0.99886 0.99237 0.45592 0.0
C556 C 0.99067 0.95803 0.46624 0.0
C557 C 0.96919 0.93756 0.44641 0.0
C558 C 0.01978 0.01379 0.48 0.0
C559 C 0.02266 0.04939 0.48017 0.0
C560 C 0.04264 0.06918 0.50667 0.0
C561 C 0.04821 0.05609 0.54071 0.0
C562 C 0.06874 0.0738 0.56425 0.0
C563 C 0.08394 0.10499 0.55444 0.0
H564 H 0.05192 0.11282 0.47211 0.0
C565 C 0.07673 0.11969 0.52167 0.0
C566 C 0.05633 0.10175 0.49783 0.0
H567 H 0.08764 0.14433 0.51407 0.0
H568 H 0.95559 0.99428 0.37941 0.0
H569 H 0.99314 0.03073 0.41431 0.0
H570 H 1.00008 0.9474 0.49047 0.0
H571 H 0.96267 0.91151 0.45554 0.0
H572 H 0.0324 0.99922 0.49976 0.0
H573 H 1.01063 0.06454 0.46038 0.0
H574 H 0.03689 0.03211 0.54931 0.0
H575 H 0.07299 0.0629 0.5901 0.0
C576 C 0.94421 0.30725 0.79537 0.0
C577 C 0.94416 0.31043 0.8323 0.0
C578 C 0.9638 0.28395 0.77903 0.0
C579 C 0.98351 0.26301 0.79928 0.0
C580 C 0.98238 0.26487 0.83616 0.0
C581 C 0.96317 0.2887 0.85256 0.0
C582 C 1.00574 0.23966 0.78233 0.0
C583 C 0.02136 0.25028 0.75429 0.0
C584 C 0.04465 0.22887 0.73681 0.0
C585 C 0.0684 0.24668 0.71998 0.0
C586 C 0.08934 0.22798 0.70056 0.0
C587 C 0.08666 0.19094 0.69683 0.0
H588 H 0.02414 0.17716 0.74648 0.0
C589 C 0.06326 0.17288 0.71429 0.0
C590 C 0.04251 0.19166 0.7343 0.0
H591 H 0.06052 0.14436 0.71177 0.0
H592 H 0.92977 0.32353 0.77902 0.0
H593 H 0.96363 0.28248 0.75051 0.0
H594 H 0.99714 0.24876 0.85232 0.0
H595 H 0.96349 0.29041 0.88107 0.0
H596 H 1.01096 0.21474 0.79466 0.0
H597 H 0.01809 0.27686 0.74462 0.0
H598 H 0.07052 0.27532 0.7214 0.0
H599 H 0.10698 0.24279 0.68737 0.0
C600 C 0.56615 0.66198 0.72204 0.0
C601 C 0.5937 0.67834 0.7121 0.0
C602 C 0.54717 0.6791 0.74549 0.0
C603 C 0.55553 0.71282 0.75968 0.0
C604 C 0.58383 0.7282 0.7512 0.0
C605 C 0.60257 0.71134 0.7274 0.0
C606 C 0.53511 0.73308 0.78266 0.0
C607 C 0.50437 0.73113 0.77884 0.0
C608 C 0.48403 0.75526 0.79791 0.0
C609 C 0.45646 0.76494 0.78128 0.0
C610 C 0.43769 0.78942 0.79725 0.0
C611 C 0.4458 0.80426 0.83058 0.0
H612 H 0.51232 0.76156 0.84586 0.0
C613 C 0.47268 0.79336 0.84803 0.0
C614 C 0.49168 0.76919 0.83182 0.0
H615 H 0.47948 0.8042 0.87381 0.0
H616 H 0.55874 0.63649 0.71078 0.0
H617 H 0.52591 0.66602 0.75223 0.0
H618 H 0.59098 0.75397 0.76203 0.0
H619 H 0.62374 0.72454 0.72044 0.0
H620 H 0.54581 0.7529 0.80053 0.0
H621 H 0.49381 0.71385 0.75841 0.0
H622 H 0.44986 0.75437 0.75531 0.0
H623 H 0.41704 0.79711 0.78322 0.0
C624 C 0.21597 0.663 0.02163 0.0
C625 C 0.20076 0.67446 0.05167 0.0
C626 C 0.23444 0.68665 1.00316 0.0
C627 C 0.23806 0.72231 0.01444 0.0
C628 C 0.22292 0.73352 0.04448 0.0
C629 C 0.20448 0.71006 0.06276 0.0
C630 C 0.25769 0.74885 0.99671 0.0
C631 C 0.26897 0.74506 0.96426 0.0
C632 C 0.28788 0.77355 0.94835 0.0
C633 C 0.3106 0.76471 0.92472 0.0
C634 C 0.33005 0.79105 0.91153 0.0
C635 C 0.327 0.82672 0.92171 0.0
H636 H 0.26551 0.81762 0.97334 0.0
C637 C 0.30315 0.83562 0.94377 0.0
C638 C 0.2837 0.80947 0.95668 0.0
H639 H 0.29967 0.86291 0.95152 0.0
H640 H 0.21367 0.63574 0.01237 0.0
H641 H 0.24605 0.67663 0.98055 0.0
H642 H 0.2253 0.76074 0.05392 0.0
H643 H 0.19326 0.71994 0.08579 0.0
H644 H 0.26295 0.77324 0.01155 0.0
H645 H 0.26515 0.72056 0.94925 0.0
H646 H 0.31396 0.73729 0.91738 0.0
H647 H 0.34812 0.78333 0.89443 0.0
C648 C 0.46879 0.44873 0.44453 0.0
C649 C 0.45316 0.45909 0.41381 0.0
C650 C 0.48916 0.47228 0.46253 0.0
C651 C 0.4941 0.50679 0.45015 0.0
C652 C 0.48 0.51619 0.41801 0.0
C653 C 0.45978 0.49238 0.3998 0.0
C654 C 0.51381 0.5333 0.47024 0.0
C655 C 0.51698 0.53289 0.50564 0.0
C656 C 0.53763 0.55714 0.52717 0.0
C657 C 0.54675 0.54625 0.56095 0.0
C658 C 0.56834 0.56613 0.5812 0.0
C659 C 0.58106 0.59746 0.56819 0.0
H660 H 0.54153 0.59989 0.48979 0.0
C661 C 0.57027 0.61013 0.53576 0.0
C662 C 0.54887 0.58991 0.5151 0.0
H663 H 0.57928 0.63485 0.52584 0.0
H664 H 0.465 0.42249 0.45484 0.0
H665 H 0.50082 0.46331 0.48616 0.0
H666 H 0.48394 0.5423 0.4075 0.0
H667 H 0.44853 0.50037 0.37549 0.0
H668 H 0.52537 0.55365 0.45546 0.0
H669 H 0.50495 0.51251 0.51988 0.0
H670 H 0.53808 0.5215 0.57121 0.0
H671 H 0.57568 0.55655 0.60676 0.0
loop_
_geom_bond_atom_site_label_1
_geom_bond_atom_site_label_2
_geom_bond_distance
_geom_bond_site_symmetry_2
_ccdc_geom_bond_type
Mn0 O5 2.095 . S
Mn0 O15 2.162 . S
Mn0 O16 2.297 . S
Mn0 O24 2.385 . S
Mn0 O25 2.209 . S
Mn0 O26 2.094 . S
Mn1 O6 2.121 . S
Mn1 N8 2.257 . S
Mn1 N17 2.282 . S
Mn1 O25 2.215 . S
Mn1 O27 2.117 . S
C2 O24 1.234 . S
C2 O25 1.283 . S
C3 O15 1.281 . S
C3 O16 1.236 . S
C4 O26 1.240 . S
C4 O27 1.264 . S
O5 Mn0 2.095 . S
O5 C14 1.250 . S
O6 Mn1 2.121 . S
O6 C14 1.258 . S
C7 N8 1.326 1_565 S
C7 C11 1.460 . S
C7 H13 0.930 . S
N8 Mn1 2.257 . S
N8 C7 1.326 1_545 S
N8 C12 1.362 . S
C9 C10 1.258 . S
C9 C12 1.431 1_565 S
C9 C29 1.449 . S
C10 C9 1.258 . S
C10 C11 1.477 . S
C10 H30 0.931 . S
C11 C7 1.460 . S
C11 C10 1.477 . S
C11 H31 0.930 . S
C12 N8 1.362 . S
C12 C9 1.431 1_545 S
C12 C22 1.476 . S
H13 C7 0.930 . S
C14 O5 1.250 . S
C14 O6 1.258 . S
O15 Mn0 2.162 . S
O15 C3 1.281 . S
O16 Mn0 2.297 . S
O16 C3 1.236 . S
N17 Mn1 2.282 . S
N17 C18 1.328 . S
N17 C22 1.318 . S
C18 N17 1.328 . S
C18 C19 1.457 . S
C18 H23 0.929 . S
C19 C18 1.457 . S
C19 C20 1.291 . S
C19 H32 0.931 . S
C20 C19 1.291 . S
C20 C21 1.373 . S
C20 H33 0.929 . S
C21 C20 1.373 . S
C21 C22 1.396 . S
C21 C28 1.403 1_545 S
C22 C12 1.476 . S
C22 N17 1.318 . S
C22 C21 1.396 . S
H23 C18 0.929 . S
O24 Mn0 2.385 . S
O24 C2 1.234 . S
O25 Mn0 2.209 . S
O25 Mn1 2.215 . S
O25 C2 1.283 . S
O26 Mn0 2.094 . S
O26 C4 1.240 . S
O27 Mn1 2.117 . S
O27 C4 1.264 . S
C28 C21 1.403 1_565 S
C28 C29 1.399 . S
C28 H34 0.929 . S
C29 C9 1.449 . S
C29 C28 1.399 . S
C29 H35 0.930 . S
H30 C10 0.931 . S
H31 C11 0.930 . S
H32 C19 0.931 . S
H33 C20 0.929 . S
H34 C28 0.929 . S
H35 C29 0.930 . S
Mn36 O41 2.095 . S
Mn36 O51 2.162 . S
Mn36 O52 2.297 . S
Mn36 O60 2.385 . S
Mn36 O61 2.209 . S
Mn36 O62 2.094 . S
Mn37 O42 2.121 . S
Mn37 N44 2.257 . S
Mn37 N53 2.282 . S
Mn37 O61 2.215 . S
Mn37 O63 2.117 . S
C38 O60 1.234 . S
C38 O61 1.283 . S
C39 O51 1.281 . S
C39 O52 1.236 . S
C40 O62 1.240 . S
C40 O63 1.264 . S
O41 Mn36 2.095 . S
O41 C50 1.250 . S
O42 Mn37 2.121 . S
O42 C50 1.258 . S
C43 N44 1.326 1_554 S
C43 C47 1.460 . S
C43 H49 0.930 . S
N44 Mn37 2.257 . S
N44 C43 1.326 1_556 S
N44 C48 1.362 . S
C45 C46 1.258 . S
C45 C48 1.431 1_554 S
C45 C65 1.449 . S
C46 C45 1.258 . S
C46 C47 1.477 . S
C46 H66 0.931 . S
C47 C43 1.460 . S
C47 C46 1.477 . S
C47 H67 0.930 . S
C48 N44 1.362 . S
C48 C45 1.431 1_556 S
C48 C58 1.476 . S
H49 C43 0.930 . S
C50 O41 1.250 . S
C50 O42 1.258 . S
O51 Mn36 2.162 . S
O51 C39 1.281 . S
O52 Mn36 2.297 . S
O52 C39 1.236 . S
N53 Mn37 2.282 . S
N53 C54 1.328 . S
N53 C58 1.318 . S
C54 N53 1.328 . S
C54 C55 1.457 . S
C54 H59 0.929 . S
C55 C54 1.457 . S
C55 C56 1.291 . S
C55 H68 0.931 . S
C56 C55 1.291 . S
C56 C57 1.373 . S
C56 H69 0.929 . S
C57 C56 1.373 . S
C57 C58 1.396 . S
C57 C64 1.403 1_556 S
C58 C48 1.476 . S
C58 N53 1.318 . S
C58 C57 1.396 . S
H59 C54 0.929 . S
O60 Mn36 2.385 . S
O60 C38 1.234 . S
O61 Mn36 2.209 . S
O61 Mn37 2.215 . S
O61 C38 1.283 . S
O62 Mn36 2.094 . S
O62 C40 1.240 . S
O63 Mn37 2.117 . S
O63 C40 1.264 . S
C64 C57 1.403 1_554 S
C64 C65 1.399 . S
C64 H70 0.929 . S
C65 C45 1.449 . S
C65 C64 1.399 . S
C65 H71 0.930 . S
H66 C46 0.931 . S
H67 C47 0.930 . S
H68 C55 0.931 . S
H69 C56 0.929 . S
H70 C64 0.929 . S
H71 C65 0.930 . S
Mn72 O77 2.095 . S
Mn72 O87 2.162 . S
Mn72 O88 2.297 . S
Mn72 O96 2.385 . S
Mn72 O97 2.209 . S
Mn72 O98 2.094 . S
Mn73 O78 2.121 . S
Mn73 N80 2.257 . S
Mn73 N89 2.282 . S
Mn73 O97 2.215 . S
Mn73 O99 2.117 . S
C74 O96 1.234 . S
C74 O97 1.283 . S
C75 O87 1.281 . S
C75 O88 1.236 . S
C76 O98 1.240 . S
C76 O99 1.264 . S
O77 Mn72 2.095 . S
O77 C86 1.250 . S
O78 Mn73 2.121 . S
O78 C86 1.258 . S
C79 N80 1.326 1_565 S
C79 C83 1.460 . S
C79 H85 0.930 . S
N80 Mn73 2.257 . S
N80 C79 1.326 1_545 S
N80 C84 1.362 . S
C81 C82 1.258 . S
C81 C84 1.431 1_565 S
C81 C101 1.449 . S
C82 C81 1.258 . S
C82 C83 1.477 . S
C82 H102 0.931 . S
C83 C79 1.460 . S
C83 C82 1.477 . S
C83 H103 0.930 . S
C84 N80 1.362 . S
C84 C81 1.431 1_545 S
C84 C94 1.476 . S
H85 C79 0.930 . S
C86 O77 1.250 . S
C86 O78 1.258 . S
O87 Mn72 2.162 . S
O87 C75 1.281 . S
O88 Mn72 2.297 . S
O88 C75 1.236 . S
N89 Mn73 2.282 . S
N89 C90 1.328 . S
N89 C94 1.318 . S
C90 N89 1.328 . S
C90 C91 1.457 1_554 S
C90 H95 0.929 . S
C91 C90 1.457 1_556 S
C91 C92 1.291 . S
C91 H104 0.931 . S
C92 C91 1.291 . S
C92 C93 1.373 . S
C92 H105 0.929 . S
C93 C92 1.373 . S
C93 C94 1.396 1_556 S
C93 C100 1.403 1_545 S
C94 C84 1.476 . S
C94 N89 1.318 . S
C94 C93 1.396 1_554 S
H95 C90 0.929 . S
O96 Mn72 2.385 . S
O96 C74 1.234 . S
O97 Mn72 2.209 . S
O97 Mn73 2.215 . S
O97 C74 1.283 . S
O98 Mn72 2.094 . S
O98 C76 1.240 . S
O99 Mn73 2.117 . S
O99 C76 1.264 . S
C100 C93 1.403 1_565 S
C100 C101 1.399 1_556 S
C100 H106 0.929 . S
C101 C81 1.449 . S
C101 C100 1.399 1_554 S
C101 H107 0.930 1_554 S
H102 C82 0.931 . S
H103 C83 0.930 . S
H104 C91 0.931 . S
H105 C92 0.929 . S
H106 C100 0.929 . S
H107 C101 0.930 1_556 S
Mn108 O113 2.095 . S
Mn108 O123 2.162 . S
Mn108 O124 2.297 . S
Mn108 O132 2.385 . S
Mn108 O133 2.209 . S
Mn108 O134 2.094 . S
Mn109 O114 2.121 . S
Mn109 N116 2.257 . S
Mn109 N125 2.282 . S
Mn109 O133 2.215 . S
Mn109 O135 2.117 . S
C110 O132 1.234 . S
C110 O133 1.283 . S
C111 O123 1.281 . S
C111 O124 1.236 . S
C112 O134 1.240 . S
C112 O135 1.264 . S
O113 Mn108 2.095 . S
O113 C122 1.250 . S
O114 Mn109 2.121 . S
O114 C122 1.258 . S
C115 N116 1.326 . S
C115 C119 1.460 . S
C115 H121 0.929 . S
N116 Mn109 2.257 . S
N116 C115 1.326 . S
N116 C120 1.362 . S
C117 C118 1.258 . S
C117 C120 1.431 . S
C117 C137 1.449 . S
C118 C117 1.258 . S
C118 C119 1.477 . S
C118 H138 0.931 . S
C119 C115 1.460 . S
C119 C118 1.477 . S
C119 H139 0.930 . S
C120 N116 1.362 . S
C120 C117 1.431 . S
C120 C130 1.476 . S
H121 C115 0.929 . S
C122 O113 1.250 . S
C122 O114 1.258 . S
O123 Mn108 2.162 . S
O123 C111 1.281 . S
O124 Mn108 2.297 . S
O124 C111 1.236 . S
N125 Mn109 2.282 . S
N125 C126 1.328 . S
N125 C130 1.318 . S
C126 N125 1.328 . S
C126 C127 1.457 1_565 S
C126 H131 0.929 . S
C127 C126 1.457 1_545 S
C127 C128 1.291 . S
C127 H140 0.931 . S
C128 C127 1.291 . S
C128 C129 1.373 . S
C128 H141 0.929 . S
C129 C128 1.373 . S
C129 C130 1.396 1_545 S
C129 C136 1.403 . S
C130 C120 1.476 . S
C130 N125 1.318 . S
C130 C129 1.396 1_565 S
H131 C126 0.929 . S
O132 Mn108 2.385 . S
O132 C110 1.234 . S
O133 Mn108 2.209 . S
O133 Mn109 2.215 . S
O133 C110 1.283 . S
O134 Mn108 2.094 . S
O134 C112 1.240 . S
O135 Mn109 2.117 . S
O135 C112 1.264 . S
C136 C129 1.403 . S
C136 C137 1.399 1_545 S
C136 H142 0.929 . S
C137 C117 1.449 . S
C137 C136 1.399 1_565 S
C137 H143 0.930 1_565 S
H138 C118 0.931 . S
H139 C119 0.930 . S
H140 C127 0.931 . S
H141 C128 0.929 . S
H142 C136 0.929 . S
H143 C137 0.930 1_545 S
Mn144 O149 2.095 . S
Mn144 O159 2.162 . S
Mn144 O160 2.297 . S
Mn144 O168 2.385 . S
Mn144 O169 2.209 . S
Mn144 O170 2.094 . S
Mn145 O150 2.121 . S
Mn145 N152 2.257 . S
Mn145 N161 2.282 . S
Mn145 O169 2.215 . S
Mn145 O171 2.117 . S
C146 O168 1.234 . S
C146 O169 1.283 . S
C147 O159 1.281 . S
C147 O160 1.236 . S
C148 O170 1.240 . S
C148 O171 1.264 . S
O149 Mn144 2.095 . S
O149 C158 1.250 . S
O150 Mn145 2.121 . S
O150 C158 1.258 . S
C151 N152 1.326 . S
C151 C155 1.460 . S
C151 H157 0.929 . S
N152 Mn145 2.257 . S
N152 C151 1.326 . S
N152 C156 1.362 . S
C153 C154 1.258 . S
C153 C156 1.431 . S
C153 C173 1.449 . S
C154 C153 1.258 . S
C154 C155 1.477 . S
C154 H174 0.931 . S
C155 C151 1.460 . S
C155 C154 1.477 . S
C155 H175 0.930 . S
C156 N152 1.362 . S
C156 C153 1.431 . S
C156 C166 1.476 . S
H157 C151 0.929 . S
C158 O149 1.250 . S
C158 O150 1.258 . S
O159 Mn144 2.162 . S
O159 C147 1.281 . S
O160 Mn144 2.297 . S
O160 C147 1.236 . S
N161 Mn145 2.282 . S
N161 C162 1.328 . S
N161 C166 1.318 . S
C162 N161 1.328 . S
C162 C163 1.457 1_554 S
C162 H167 0.929 . S
C163 C162 1.457 1_556 S
C163 C164 1.291 . S
C163 H176 0.931 . S
C164 C163 1.291 . S
C164 C165 1.373 . S
C164 H177 0.929 . S
C165 C164 1.373 . S
C165 C166 1.396 1_556 S
C165 C172 1.403 . S
C166 C156 1.476 . S
C166 N161 1.318 . S
C166 C165 1.396 1_554 S
H167 C162 0.929 . S
O168 Mn144 2.385 . S
O168 C146 1.234 . S
O169 Mn144 2.209 . S
O169 Mn145 2.215 . S
O169 C146 1.283 . S
O170 Mn144 2.094 . S
O170 C148 1.240 . S
O171 Mn145 2.117 . S
O171 C148 1.264 . S
C172 C165 1.403 . S
C172 C173 1.399 1_556 S
C172 H178 0.929 . S
C173 C153 1.449 . S
C173 C172 1.399 1_554 S
C173 H179 0.930 1_554 S
H174 C154 0.931 . S
H175 C155 0.930 . S
H176 C163 0.931 . S
H177 C164 0.929 . S
H178 C172 0.929 . S
H179 C173 0.930 1_556 S
Mn180 O185 2.095 . S
Mn180 O195 2.162 . S
Mn180 O196 2.297 . S
Mn180 O204 2.385 . S
Mn180 O205 2.209 . S
Mn180 O206 2.094 . S
Mn181 O186 2.121 . S
Mn181 N188 2.257 . S
Mn181 N197 2.282 . S
Mn181 O205 2.215 . S
Mn181 O207 2.117 . S
C182 O204 1.234 . S
C182 O205 1.283 . S
C183 O195 1.281 . S
C183 O196 1.236 . S
C184 O206 1.240 . S
C184 O207 1.264 . S
O185 Mn180 2.095 . S
O185 C194 1.250 . S
O186 Mn181 2.121 . S
O186 C194 1.258 . S
C187 N188 1.326 . S
C187 C191 1.460 . S
C187 H193 0.929 . S
N188 Mn181 2.257 . S
N188 C187 1.326 . S
N188 C192 1.362 . S
C189 C190 1.258 . S
C189 C192 1.431 . S
C189 C209 1.449 . S
C190 C189 1.258 . S
C190 C191 1.477 . S
C190 H210 0.931 . S
C191 C187 1.460 . S
C191 C190 1.477 . S
C191 H211 0.930 . S
C192 N188 1.362 . S
C192 C189 1.431 . S
C192 C202 1.476 . S
H193 C187 0.929 . S
C194 O185 1.250 . S
C194 O186 1.258 . S
O195 Mn180 2.162 . S
O195 C183 1.281 . S
O196 Mn180 2.297 . S
O196 C183 1.236 . S
N197 Mn181 2.282 . S
N197 C198 1.328 . S
N197 C202 1.318 . S
C198 N197 1.328 . S
C198 C199 1.457 . S
C198 H203 0.929 . S
C199 C198 1.457 . S
C199 C200 1.291 . S
C199 H212 0.931 . S
C200 C199 1.291 . S
C200 C201 1.373 . S
C200 H213 0.929 . S
C201 C200 1.373 . S
C201 C202 1.396 . S
C201 C208 1.403 . S
C202 C192 1.476 . S
C202 N197 1.318 . S
C202 C201 1.396 . S
H203 C198 0.929 . S
O204 Mn180 2.385 . S
O204 C182 1.234 . S
O205 Mn180 2.209 . S
O205 Mn181 2.215 . S
O205 C182 1.283 . S
O206 Mn180 2.094 . S
O206 C184 1.240 . S
O207 Mn181 2.117 . S
O207 C184 1.264 . S
C208 C201 1.403 . S
C208 C209 1.399 . S
C208 H214 0.929 . S
C209 C189 1.449 . S
C209 C208 1.399 . S
C209 H215 0.930 . S
H210 C190 0.931 . S
H211 C191 0.930 . S
H212 C199 0.931 . S
H213 C200 0.929 . S
H214 C208 0.929 . S
H215 C209 0.930 . S
Mn216 O221 2.095 . S
Mn216 O231 2.162 . S
Mn216 O232 2.297 . S
Mn216 O240 2.385 . S
Mn216 O241 2.209 . S
Mn216 O242 2.094 . S
Mn217 O222 2.121 . S
Mn217 N224 2.257 . S
Mn217 N233 2.282 . S
Mn217 O241 2.215 . S
Mn217 O243 2.117 . S
C218 O240 1.234 . S
C218 O241 1.283 . S
C219 O231 1.281 . S
C219 O232 1.236 . S
C220 O242 1.240 . S
C220 O243 1.264 . S
O221 Mn216 2.095 . S
O221 C230 1.250 . S
O222 Mn217 2.121 . S
O222 C230 1.258 . S
C223 N224 1.326 1_554 S
C223 C227 1.460 . S
C223 H229 0.930 . S
N224 Mn217 2.257 . S
N224 C223 1.326 1_556 S
N224 C228 1.362 . S
C225 C226 1.258 . S
C225 C228 1.431 1_554 S
C225 C245 1.449 . S
C226 C225 1.258 . S
C226 C227 1.477 . S
C226 H246 0.931 . S
C227 C223 1.460 . S
C227 C226 1.477 . S
C227 H247 0.930 . S
C228 N224 1.362 . S
C228 C225 1.431 1_556 S
C228 C238 1.476 . S
H229 C223 0.930 . S
C230 O221 1.250 . S
C230 O222 1.258 . S
O231 Mn216 2.162 . S
O231 C219 1.281 . S
O232 Mn216 2.297 . S
O232 C219 1.236 . S
N233 Mn217 2.282 . S
N233 C234 1.328 . S
N233 C238 1.318 . S
C234 N233 1.328 . S
C234 C235 1.457 1_565 S
C234 H239 0.929 . S
C235 C234 1.457 1_545 S
C235 C236 1.291 . S
C235 H248 0.931 . S
C236 C235 1.291 . S
C236 C237 1.373 . S
C236 H249 0.929 . S
C237 C236 1.373 . S
C237 C238 1.396 1_545 S
C237 C244 1.403 1_556 S
C238 C228 1.476 . S
C238 N233 1.318 . S
C238 C237 1.396 1_565 S
H239 C234 0.929 . S
O240 Mn216 2.385 . S
O240 C218 1.234 . S
O241 Mn216 2.209 . S
O241 Mn217 2.215 . S
O241 C218 1.283 . S
O242 Mn216 2.094 . S
O242 C220 1.240 . S
O243 Mn217 2.117 . S
O243 C220 1.264 . S
C244 C237 1.403 1_554 S
C244 C245 1.399 1_545 S
C244 H250 0.929 . S
C245 C225 1.449 . S
C245 C244 1.399 1_565 S
C245 H251 0.930 1_565 S
H246 C226 0.931 . S
H247 C227 0.930 . S
H248 C235 0.931 . S
H249 C236 0.929 . S
H250 C244 0.929 . S
H251 C245 0.930 1_545 S
Mn252 O257 2.095 . S
Mn252 O267 2.162 . S
Mn252 O268 2.297 . S
Mn252 O276 2.385 . S
Mn252 O277 2.209 . S
Mn252 O278 2.094 . S
Mn253 O258 2.121 . S
Mn253 N260 2.257 . S
Mn253 N269 2.282 . S
Mn253 O277 2.215 . S
Mn253 O279 2.117 . S
C254 O276 1.234 . S
C254 O277 1.283 . S
C255 O267 1.281 . S
C255 O268 1.236 . S
C256 O278 1.240 . S
C256 O279 1.264 . S
O257 Mn252 2.095 . S
O257 C266 1.250 . S
O258 Mn253 2.121 . S
O258 C266 1.258 . S
C259 N260 1.326 . S
C259 C263 1.460 . S
C259 H265 0.929 . S
N260 Mn253 2.257 . S
N260 C259 1.326 . S
N260 C264 1.362 . S
C261 C262 1.258 . S
C261 C264 1.431 . S
C261 C281 1.449 . S
C262 C261 1.258 . S
C262 C263 1.477 . S
C262 H282 0.931 . S
C263 C259 1.460 . S
C263 C262 1.477 . S
C263 H283 0.930 . S
C264 N260 1.362 . S
C264 C261 1.431 . S
C264 C274 1.476 . S
H265 C259 0.929 . S
C266 O257 1.250 . S
C266 O258 1.258 . S
O267 Mn252 2.162 . S
O267 C255 1.281 . S
O268 Mn252 2.297 . S
O268 C255 1.236 . S
N269 Mn253 2.282 . S
N269 C270 1.328 . S
N269 C274 1.318 . S
C270 N269 1.328 . S
C270 C271 1.457 . S
C270 H275 0.929 . S
C271 C270 1.457 . S
C271 C272 1.291 . S
C271 H284 0.931 . S
C272 C271 1.291 . S
C272 C273 1.373 . S
C272 H285 0.929 . S
C273 C272 1.373 . S
C273 C274 1.396 . S
C273 C280 1.403 . S
C274 C264 1.476 . S
C274 N269 1.318 . S
C274 C273 1.396 . S
H275 C270 0.929 . S
O276 Mn252 2.385 . S
O276 C254 1.234 . S
O277 Mn252 2.209 . S
O277 Mn253 2.215 . S
O277 C254 1.283 . S
O278 Mn252 2.094 . S
O278 C256 1.240 . S
O279 Mn253 2.117 . S
O279 C256 1.264 . S
C280 C273 1.403 . S
C280 C281 1.399 . S
C280 H286 0.929 . S
C281 C261 1.449 . S
C281 C280 1.399 . S
C281 H287 0.930 . S
H282 C262 0.931 . S
H283 C263 0.930 . S
H284 C271 0.931 . S
H285 C272 0.929 . S
H286 C280 0.929 . S
H287 C281 0.930 . S
C288 C289 1.386 . S
C288 C290 1.383 . S
C288 H304 0.951 . S
C289 C288 1.386 . S
C289 C293 1.383 . S
C290 C288 1.383 . S
C290 C291 1.402 . S
C290 H305 0.951 . S
C291 C290 1.402 . S
C291 C292 1.375 . S
C291 C294 1.481 . S
C292 C291 1.375 . S
C292 C293 1.367 . S
C292 H306 0.951 . S
C293 C289 1.383 . S
C293 C292 1.367 . S
C293 H307 0.950 . S
C294 C291 1.481 . S
C294 C295 1.297 . S
C294 H308 0.950 . S
C295 C294 1.297 . S
C295 C296 1.479 . S
C295 H309 0.950 . S
C296 C295 1.479 . S
C296 C297 1.375 . S
C296 C302 1.404 . S
C297 C296 1.375 . S
C297 C298 1.369 . S
C297 H310 0.950 . S
C298 C297 1.369 . S
C298 C299 1.392 . S
C298 H311 0.951 . S
C299 C298 1.392 . S
C299 C301 1.384 . S
H300 C302 0.949 . S
C301 C299 1.384 . S
C301 C302 1.385 . S
C301 H303 0.950 . S
C302 C296 1.404 . S
C302 H300 0.949 . S
C302 C301 1.385 . S
H303 C301 0.950 . S
H304 C288 0.951 . S
H305 C290 0.951 . S
H306 C292 0.951 . S
H307 C293 0.950 . S
H308 C294 0.950 . S
H309 C295 0.950 . S
H310 C297 0.950 . S
H311 C298 0.951 . S
C312 C313 1.386 . S
C312 C314 1.383 . S
C312 H328 0.951 . S
C313 C312 1.386 . S
C313 C317 1.383 . S
C314 C312 1.383 . S
C314 C315 1.402 . S
C314 H329 0.951 . S
C315 C314 1.402 . S
C315 C316 1.375 . S
C315 C318 1.481 . S
C316 C315 1.375 . S
C316 C317 1.367 . S
C316 H330 0.951 . S
C317 C313 1.383 . S
C317 C316 1.367 . S
C317 H331 0.950 . S
C318 C315 1.481 . S
C318 C319 1.297 . S
C318 H332 0.950 . S
C319 C318 1.297 . S
C319 C320 1.479 . S
C319 H333 0.950 . S
C320 C319 1.479 . S
C320 C321 1.375 . S
C320 C326 1.404 . S
C321 C320 1.375 . S
C321 C322 1.369 . S
C321 H334 0.950 . S
C322 C321 1.369 . S
C322 C323 1.392 . S
C322 H335 0.951 . S
C323 C322 1.392 . S
C323 C325 1.384 . S
H324 C326 0.949 . S
C325 C323 1.384 . S
C325 C326 1.385 . S
C325 H327 0.950 . S
C326 C320 1.404 . S
C326 H324 0.949 . S
C326 C325 1.385 . S
H327 C325 0.950 . S
H328 C312 0.951 . S
H329 C314 0.951 . S
H330 C316 0.951 . S
H331 C317 0.950 . S
H332 C318 0.950 . S
H333 C319 0.950 . S
H334 C321 0.950 . S
H335 C322 0.951 . S
C336 C337 1.386 . S
C336 C338 1.383 . S
C336 H352 0.951 . S
C337 C336 1.386 . S
C337 C341 1.383 . S
C338 C336 1.383 . S
C338 C339 1.402 . S
C338 H353 0.951 . S
C339 C338 1.402 . S
C339 C340 1.375 . S
C339 C342 1.468 1_554 S
C340 C339 1.375 . S
C340 C341 1.367 . S
C340 H354 0.951 . S
C341 C337 1.383 . S
C341 C340 1.367 . S
C341 H355 0.950 . S
C342 C339 1.468 1_556 S
C342 C343 1.295 1_546 S
C342 H356 0.967 . S
C343 C342 1.295 1_564 S
C343 C344 1.479 1_554 S
C343 H357 0.950 . S
C344 C343 1.479 1_556 S
C344 C345 1.375 . S
C344 C350 1.404 . S
C345 C344 1.375 . S
C345 C346 1.369 . S
C345 H358 0.950 . S
C346 C345 1.369 . S
C346 C347 1.392 . S
C346 H359 0.951 . S
C347 C346 1.392 . S
C347 C349 1.384 . S
H348 C350 0.949 1_545 S
C349 C347 1.384 . S
C349 C350 1.385 . S
C349 H351 0.950 . S
C350 C344 1.404 . S
C350 H348 0.949 1_565 S
C350 C349 1.385 . S
H351 C349 0.950 . S
H352 C336 0.951 . S
H353 C338 0.951 . S
H354 C340 0.951 . S
H355 C341 0.950 . S
H356 C342 0.967 . S
H357 C343 0.950 . S
H358 C345 0.950 . S
H359 C346 0.951 . S
C360 C361 1.386 . S
C360 C362 1.383 . S
C360 H376 0.951 . S
C361 C360 1.386 . S
C361 C365 1.383 . S
C362 C360 1.383 . S
C362 C363 1.402 . S
C362 H377 0.951 . S
C363 C362 1.402 . S
C363 C364 1.375 . S
C363 C366 1.481 1_655 S
C364 C363 1.375 . S
C364 C365 1.367 . S
C364 H378 0.951 . S
C365 C361 1.383 . S
C365 C364 1.367 . S
C365 H379 0.950 . S
C366 C363 1.481 1_455 S
C366 C367 1.297 . S
C366 H380 0.950 . S
C367 C366 1.297 . S
C367 C368 1.479 . S
C367 H381 0.972 . S
C368 C367 1.479 . S
C368 C369 1.375 . S
C368 C374 1.404 . S
C369 C368 1.375 . S
C369 C370 1.369 . S
C369 H382 0.950 . S
C370 C369 1.369 . S
C370 C371 1.392 . S
C370 H383 0.951 . S
C371 C370 1.392 . S
C371 C373 1.384 . S
H372 C374 0.949 . S
C373 C371 1.384 . S
C373 C374 1.385 . S
C373 H375 0.950 . S
C374 C368 1.404 . S
C374 H372 0.949 . S
C374 C373 1.385 . S
H375 C373 0.950 . S
H376 C360 0.951 . S
H377 C362 0.951 . S
H378 C364 0.951 . S
H379 C365 0.950 . S
H380 C366 0.950 . S
H381 C367 0.972 . S
H382 C369 0.950 . S
H383 C370 0.951 . S
C384 C385 1.386 . S
C384 C386 1.383 . S
C384 H400 0.951 . S
C385 C384 1.386 . S
C385 C389 1.383 . S
C386 C384 1.383 . S
C386 C387 1.402 . S
C386 H401 0.951 . S
C387 C386 1.402 . S
C387 C388 1.375 . S
C387 C390 1.481 1_565 S
C388 C387 1.375 . S
C388 C389 1.367 . S
C388 H402 0.951 1_565 S
C389 C385 1.383 . S
C389 C388 1.367 . S
C389 H403 0.950 . S
C390 C387 1.481 1_545 S
C390 C391 1.297 . S
C390 H404 0.950 . S
C391 C390 1.297 . S
C391 C392 1.479 . S
C391 H405 0.950 . S
C392 C391 1.479 . S
C392 C393 1.375 . S
C392 C398 1.404 . S
C393 C392 1.375 . S
C393 C394 1.369 . S
C393 H406 0.950 . S
C394 C393 1.369 . S
C394 C395 1.392 . S
C394 H407 0.951 . S
C395 C394 1.392 . S
C395 C397 1.384 . S
H396 C398 0.949 . S
C397 C395 1.384 . S
C397 C398 1.385 . S
C397 H399 0.950 . S
C398 C392 1.404 . S
C398 H396 0.949 . S
C398 C397 1.385 . S
H399 C397 0.950 . S
H400 C384 0.951 . S
H401 C386 0.951 . S
H402 C388 0.951 1_545 S
H403 C389 0.950 . S
H404 C390 0.950 . S
H405 C391 0.950 . S
H406 C393 0.950 . S
H407 C394 0.951 . S
C408 C409 1.386 . S
C408 C410 1.383 . S
C408 H424 0.951 . S
C409 C408 1.386 . S
C409 C413 1.383 . S
C410 C408 1.383 . S
C410 C411 1.402 . S
C410 H425 0.951 . S
C411 C410 1.402 . S
C411 C412 1.375 . S
C411 C414 1.481 . S
C412 C411 1.375 . S
C412 C413 1.367 . S
C412 H426 0.951 . S
C413 C409 1.383 . S
C413 C412 1.367 . S
C413 H427 0.950 . S
C414 C411 1.481 . S
C414 C415 1.297 1_655 S
C414 H428 0.950 . S
C415 C414 1.297 1_455 S
C415 C416 1.479 1_556 S
C415 H429 0.950 . S
C416 C415 1.479 1_554 S
C416 C417 1.375 . S
C416 C422 1.404 . S
C417 C416 1.375 . S
C417 C418 1.369 . S
C417 H430 0.950 . S
C418 C417 1.369 . S
C418 C419 1.392 . S
C418 H431 0.951 . S
C419 C418 1.392 . S
C419 C421 1.384 . S
H420 C422 0.949 . S
C421 C419 1.384 . S
C421 C422 1.385 . S
C421 H423 0.950 . S
C422 C416 1.404 . S
C422 H420 0.949 . S
C422 C421 1.385 . S
H423 C421 0.950 . S
H424 C408 0.951 . S
H425 C410 0.951 . S
H426 C412 0.951 . S
H427 C413 0.950 . S
H428 C414 0.950 . S
H429 C415 0.950 . S
H430 C417 0.950 . S
H431 C418 0.951 . S
C432 C433 1.386 . S
C432 C434 1.383 . S
C432 H448 0.951 . S
C433 C432 1.386 . S
C433 C437 1.383 . S
C434 C432 1.383 . S
C434 C435 1.402 . S
C434 H449 0.951 . S
C435 C434 1.402 . S
C435 C436 1.375 . S
C435 C438 1.481 . S
C436 C435 1.375 . S
C436 C437 1.367 . S
C436 H450 0.951 . S
C437 C433 1.383 . S
C437 C436 1.367 . S
C437 H451 0.950 . S
C438 C435 1.481 . S
C438 C439 1.297 . S
C438 H452 0.950 . S
C439 C438 1.297 . S
C439 C440 1.479 . S
C439 H453 0.950 . S
C440 C439 1.479 . S
C440 C441 1.375 . S
C440 C446 1.404 . S
C441 C440 1.375 . S
C441 C442 1.369 . S
C441 H454 0.950 . S
C442 C441 1.369 . S
C442 C443 1.392 . S
C442 H455 0.951 . S
C443 C442 1.392 . S
C443 C445 1.384 . S
H444 C446 0.949 . S
C445 C443 1.384 . S
C445 C446 1.385 . S
C445 H447 0.950 . S
C446 C440 1.404 . S
C446 H444 0.949 . S
C446 C445 1.385 . S
H447 C445 0.950 . S
H448 C432 0.951 . S
H449 C434 0.951 . S
H450 C436 0.951 . S
H451 C437 0.950 . S
H452 C438 0.950 . S
H453 C439 0.950 . S
H454 C441 0.950 . S
H455 C442 0.951 . S
C456 C457 1.386 . S
C456 C458 1.383 . S
C456 H472 0.951 . S
C457 C456 1.386 . S
C457 C461 1.383 . S
C458 C456 1.383 . S
C458 C459 1.402 . S
C458 H473 0.951 . S
C459 C458 1.402 . S
C459 C460 1.375 . S
C459 C462 1.481 . S
C460 C459 1.375 . S
C460 C461 1.367 . S
C460 H474 0.951 . S
C461 C457 1.383 . S
C461 C460 1.367 . S
C461 H475 0.950 . S
C462 C459 1.481 . S
C462 C463 1.297 . S
C462 H476 0.950 . S
C463 C462 1.297 . S
C463 C464 1.479 . S
C463 H477 0.950 . S
C464 C463 1.479 . S
C464 C465 1.375 . S
C464 C470 1.404 . S
C465 C464 1.375 . S
C465 C466 1.369 . S
C465 H478 0.950 . S
C466 C465 1.369 . S
C466 C467 1.392 . S
C466 H479 0.951 . S
C467 C466 1.392 . S
C467 C469 1.384 . S
H468 C470 0.949 . S
C469 C467 1.384 . S
C469 C470 1.385 . S
C469 H471 0.950 . S
C470 C464 1.404 . S
C470 H468 0.949 . S
C470 C469 1.385 . S
H471 C469 0.950 . S
H472 C456 0.951 . S
H473 C458 0.951 . S
H474 C460 0.951 . S
H475 C461 0.950 . S
H476 C462 0.950 . S
H477 C463 0.950 . S
H478 C465 0.950 . S
H479 C466 0.951 . S
C480 C481 1.386 . S
C480 C482 1.383 . S
C480 H496 0.951 . S
C481 C480 1.386 . S
C481 C485 1.383 . S
C482 C480 1.383 . S
C482 C483 1.402 . S
C482 H497 0.951 . S
C483 C482 1.402 . S
C483 C484 1.375 . S
C483 C486 1.481 . S
C484 C483 1.375 . S
C484 C485 1.367 . S
C484 H498 0.951 . S
C485 C481 1.383 . S
C485 C484 1.367 . S
C485 H499 0.950 . S
C486 C483 1.481 . S
C486 C487 1.297 . S
C486 H500 0.950 . S
C487 C486 1.297 . S
C487 C488 1.479 . S
C487 H501 0.950 . S
C488 C487 1.479 . S
C488 C489 1.375 . S
C488 C494 1.404 . S
C489 C488 1.375 . S
C489 C490 1.369 . S
C489 H502 0.950 . S
C490 C489 1.369 . S
C490 C491 1.392 . S
C490 H503 0.951 . S
C491 C490 1.392 . S
C491 C493 1.384 . S
H492 C494 0.949 . S
C493 C491 1.384 . S
C493 C494 1.385 . S
C493 H495 0.950 . S
C494 C488 1.404 . S
C494 H492 0.949 . S
C494 C493 1.385 . S
H495 C493 0.950 . S
H496 C480 0.951 . S
H497 C482 0.951 . S
H498 C484 0.951 . S
H499 C485 0.950 . S
H500 C486 0.950 . S
H501 C487 0.950 . S
H502 C489 0.950 . S
H503 C490 0.951 . S
C504 C505 1.386 . S
C504 C506 1.383 . S
C504 H520 0.951 . S
C505 C504 1.386 . S
C505 C509 1.383 . S
C506 C504 1.383 . S
C506 C507 1.402 . S
C506 H521 0.951 . S
C507 C506 1.402 . S
C507 C508 1.375 . S
C507 C510 1.481 . S
C508 C507 1.375 . S
C508 C509 1.367 . S
C508 H522 0.951 . S
C509 C505 1.383 . S
C509 C508 1.367 . S
C509 H523 0.950 . S
C510 C507 1.481 . S
C510 C511 1.297 1_556 S
C510 H524 0.950 . S
C511 C510 1.297 1_554 S
C511 C512 1.479 . S
C511 H525 0.950 . S
C512 C511 1.479 . S
C512 C513 1.375 . S
C512 C518 1.404 . S
C513 C512 1.375 . S
C513 C514 1.369 . S
C513 H526 0.950 . S
C514 C513 1.369 . S
C514 C515 1.392 . S
C514 H527 0.951 . S
C515 C514 1.392 . S
C515 C517 1.384 . S
H516 C518 0.949 . S
C517 C515 1.384 . S
C517 C518 1.385 . S
C517 H519 0.950 . S
C518 C512 1.404 . S
C518 H516 0.949 . S
C518 C517 1.385 . S
H519 C517 0.950 . S
H520 C504 0.951 . S
H521 C506 0.951 . S
H522 C508 0.951 . S
H523 C509 0.950 . S
H524 C510 0.950 . S
H525 C511 0.950 . S
H526 C513 0.950 . S
H527 C514 0.951 . S
C528 C529 1.386 . S
C528 C530 1.383 . S
C528 H544 0.951 . S
C529 C528 1.386 . S
C529 C533 1.383 . S
C530 C528 1.383 . S
C530 C531 1.402 . S
C530 H545 0.951 1_565 S
C531 C530 1.402 . S
C531 C532 1.375 . S
C531 C534 1.481 . S
C532 C531 1.375 . S
C532 C533 1.367 . S
C532 H546 0.951 . S
C533 C529 1.383 . S
C533 C532 1.367 . S
C533 H547 0.950 . S
C534 C531 1.481 . S
C534 C535 1.297 1_565 S
C534 H548 0.950 . S
C535 C534 1.297 1_545 S
C535 C536 1.479 . S
C535 H549 0.950 . S
C536 C535 1.479 . S
C536 C537 1.375 . S
C536 C542 1.404 . S
C537 C536 1.375 . S
C537 C538 1.369 . S
C537 H550 0.950 . S
C538 C537 1.369 . S
C538 C539 1.392 . S
C538 H551 0.951 . S
C539 C538 1.392 . S
C539 C541 1.384 . S
H540 C542 0.949 . S
C541 C539 1.384 . S
C541 C542 1.385 . S
C541 H543 0.950 . S
C542 C536 1.404 . S
C542 H540 0.949 . S
C542 C541 1.385 . S
H543 C541 0.950 . S
H544 C528 0.951 . S
H545 C530 0.951 1_545 S
H546 C532 0.951 . S
H547 C533 0.950 . S
H548 C534 0.950 . S
H549 C535 0.950 . S
H550 C537 0.950 . S
H551 C538 0.951 . S
C552 C553 1.386 . S
C552 C554 1.383 . S
C552 H568 0.951 . S
C553 C552 1.386 . S
C553 C557 1.383 . S
C554 C552 1.383 . S
C554 C555 1.402 . S
C554 H569 0.951 . S
C555 C554 1.402 . S
C555 C556 1.375 . S
C555 C558 1.481 1_565 S
C556 C555 1.375 . S
C556 C557 1.367 . S
C556 H570 0.951 . S
C557 C553 1.383 . S
C557 C556 1.367 . S
C557 H571 0.950 . S
C558 C555 1.481 1_545 S
C558 C559 1.297 1_655 S
C558 H572 0.950 . S
C559 C558 1.297 1_455 S
C559 C560 1.479 . S
C559 H573 0.950 . S
C560 C559 1.479 . S
C560 C561 1.375 . S
C560 C566 1.404 . S
C561 C560 1.375 . S
C561 C562 1.369 . S
C561 H574 0.950 . S
C562 C561 1.369 . S
C562 C563 1.392 . S
C562 H575 0.951 . S
C563 C562 1.392 . S
C563 C565 1.384 . S
H564 C566 0.949 1_655 S
C565 C563 1.384 . S
C565 C566 1.385 . S
C565 H567 0.950 . S
C566 C560 1.404 . S
C566 H564 0.949 1_455 S
C566 C565 1.385 . S
H567 C565 0.950 . S
H568 C552 0.951 . S
H569 C554 0.951 . S
H570 C556 0.951 . S
H571 C557 0.950 . S
H572 C558 0.950 . S
H573 C559 0.950 . S
H574 C561 0.950 . S
H575 C562 0.951 . S
C576 C577 1.386 . S
C576 C578 1.383 . S
C576 H592 0.951 . S
C577 C576 1.386 . S
C577 C581 1.383 . S
C578 C576 1.383 . S
C578 C579 1.402 . S
C578 H593 0.951 . S
C579 C578 1.402 . S
C579 C580 1.375 . S
C579 C582 1.481 . S
C580 C579 1.375 . S
C580 C581 1.367 . S
C580 H594 0.951 . S
C581 C577 1.383 . S
C581 C580 1.367 . S
C581 H595 0.950 . S
C582 C579 1.481 . S
C582 C583 1.297 1_655 S
C582 H596 0.950 . S
C583 C582 1.297 1_455 S
C583 C584 1.479 . S
C583 H597 0.950 . S
C584 C583 1.479 . S
C584 C585 1.375 . S
C584 C590 1.404 . S
C585 C584 1.375 . S
C585 C586 1.369 . S
C585 H598 0.950 . S
C586 C585 1.369 . S
C586 C587 1.392 . S
C586 H599 0.951 . S
C587 C586 1.392 . S
C587 C589 1.384 . S
H588 C590 0.949 . S
C589 C587 1.384 . S
C589 C590 1.385 . S
C589 H591 0.950 . S
C590 C584 1.404 . S
C590 H588 0.949 . S
C590 C589 1.385 . S
H591 C589 0.950 . S
H592 C576 0.951 . S
H593 C578 0.951 . S
H594 C580 0.951 . S
H595 C581 0.950 . S
H596 C582 0.950 . S
H597 C583 0.950 . S
H598 C585 0.950 . S
H599 C586 0.951 . S
C600 C601 1.386 . S
C600 C602 1.383 . S
C600 H616 0.951 . S
C601 C600 1.386 . S
C601 C605 1.383 . S
C602 C600 1.383 . S
C602 C603 1.402 . S
C602 H617 0.951 . S
C603 C602 1.402 . S
C603 C604 1.375 . S
C603 C606 1.481 . S
C604 C603 1.375 . S
C604 C605 1.367 . S
C604 H618 0.951 . S
C605 C601 1.383 . S
C605 C604 1.367 . S
C605 H619 0.950 . S
C606 C603 1.481 . S
C606 C607 1.297 . S
C606 H620 0.950 . S
C607 C606 1.297 . S
C607 C608 1.479 . S
C607 H621 0.950 . S
C608 C607 1.479 . S
C608 C609 1.375 . S
C608 C614 1.404 . S
C609 C608 1.375 . S
C609 C610 1.369 . S
C609 H622 0.950 . S
C610 C609 1.369 . S
C610 C611 1.392 . S
C610 H623 0.951 . S
C611 C610 1.392 . S
C611 C613 1.384 . S
H612 C614 0.949 . S
C613 C611 1.384 . S
C613 C614 1.385 . S
C613 H615 0.950 . S
C614 C608 1.404 . S
C614 H612 0.949 . S
C614 C613 1.385 . S
H615 C613 0.950 . S
H616 C600 0.951 . S
H617 C602 0.951 . S
H618 C604 0.951 . S
H619 C605 0.950 . S
H620 C606 0.950 . S
H621 C607 0.950 . S
H622 C609 0.950 . S
H623 C610 0.951 . S
C624 C625 1.386 . S
C624 C626 1.383 . S
C624 H640 0.951 . S
C625 C624 1.386 . S
C625 C629 1.383 . S
C626 C624 1.383 . S
C626 C627 1.402 . S
C626 H641 0.951 1_554 S
C627 C626 1.402 . S
C627 C628 1.375 . S
C627 C630 1.481 1_554 S
C628 C627 1.375 . S
C628 C629 1.367 . S
C628 H642 0.951 . S
C629 C625 1.383 . S
C629 C628 1.367 . S
C629 H643 0.950 . S
C630 C627 1.481 1_556 S
C630 C631 1.297 . S
C630 H644 0.950 . S
C631 C630 1.297 . S
C631 C632 1.479 . S
C631 H645 0.950 . S
C632 C631 1.479 . S
C632 C633 1.375 . S
C632 C638 1.404 . S
C633 C632 1.375 . S
C633 C634 1.369 . S
C633 H646 0.950 . S
C634 C633 1.369 . S
C634 C635 1.392 . S
C634 H647 0.951 . S
C635 C634 1.392 . S
C635 C637 1.384 . S
H636 C638 0.949 . S
C637 C635 1.384 . S
C637 C638 1.385 . S
C637 H639 0.950 . S
C638 C632 1.404 . S
C638 H636 0.949 . S
C638 C637 1.385 . S
H639 C637 0.950 . S
H640 C624 0.951 . S
H641 C626 0.951 1_556 S
H642 C628 0.951 . S
H643 C629 0.950 . S
H644 C630 0.950 . S
H645 C631 0.950 . S
H646 C633 0.950 . S
H647 C634 0.951 . S
C648 C649 1.386 . S
C648 C650 1.383 . S
C648 H664 0.951 . S
C649 C648 1.386 . S
C649 C653 1.383 . S
C650 C648 1.383 . S
C650 C651 1.402 . S
C650 H665 0.951 . S
C651 C650 1.402 . S
C651 C652 1.375 . S
C651 C654 1.481 . S
C652 C651 1.375 . S
C652 C653 1.367 . S
C652 H666 0.951 . S
C653 C649 1.383 . S
C653 C652 1.367 . S
C653 H667 0.950 . S
C654 C651 1.481 . S
C654 C655 1.297 . S
C654 H668 0.950 . S
C655 C654 1.297 . S
C655 C656 1.479 . S
C655 H669 0.950 . S
C656 C655 1.479 . S
C656 C657 1.375 . S
C656 C662 1.404 . S
C657 C656 1.375 . S
C657 C658 1.369 . S
C657 H670 0.950 . S
C658 C657 1.369 . S
C658 C659 1.392 . S
C658 H671 0.951 . S
C659 C658 1.392 . S
C659 C661 1.384 . S
H660 C662 0.949 . S
C661 C659 1.384 . S
C661 C662 1.385 . S
C661 H663 0.950 . S
C662 C656 1.404 . S
C662 H660 0.949 . S
C662 C661 1.385 . S
H663 C661 0.950 . S
H664 C648 0.951 . S
H665 C650 0.951 . S
H666 C652 0.951 . S
H667 C653 0.950 . S
H668 C654 0.950 . S
H669 C655 0.950 . S
H670 C657 0.950 . S
H671 C658 0.951 . S
C289 C194 1.484 . S
C299 C4 1.509 . S
C313 C266 1.424 . S
C323 C40 1.519 . S
C337 C74 1.502 . S
C347 C218 1.514 . S
C361 C111 1.532 . S
C371 C147 1.503 . S
C385 C220 1.519 . S
C395 C14 1.496 . S
C409 C38 1.507 . S
C419 C146 1.500 . S
C433 C183 1.533 . S
C443 C75 1.504 . S
C457 C122 1.455 . S
C467 C256 1.517 . S
C481 C158 1.432 . S
C491 C184 1.512 . S
C505 C50 1.424 . S
C515 C76 1.519 . S
C529 C112 1.524 . S
C539 C86 1.407 . S
C553 C110 1.511 . S
C563 C2 1.493 . S
C577 C39 1.534 . S
C587 C3 1.517 . S
C601 C255 1.529 . S
C611 C219 1.528 . S
C625 C148 1.522 . S
C635 C230 1.458 . S
C649 C182 1.502 . S
C659 C254 1.513 . S
