# Generated by pormake.
# Topology vmf, (6)-cn, num edge types: 1
# Building blocks:
#     Node 0, Type 0, BuildingBlock: IZENUY_clean_sbu_0, # of connection points: 6
#     Node 1, Type 0, BuildingBlock: IZENUY_clean_sbu_0, # of connection points: 6
#     Node 2, Type 0, BuildingBlock: IZENUY_clean_sbu_0, # of connection points: 6
#     Node 3, Type 0, BuildingBlock: IZENUY_clean_sbu_0, # of connection points: 6
#     Node 4, Type 0, BuildingBlock: IZENUY_clean_sbu_0, # of connection points: 6
#     Node 5, Type 0, BuildingBlock: IZENUY_clean_sbu_0, # of connection points: 6
#     Node 6, Type 0, BuildingBlock: IZENUY_clean_sbu_0, # of connection points: 6
#     Node 7, Type 0, BuildingBlock: IZENUY_clean_sbu_0, # of connection points: 6
#     Edge 8, Type (0, 0), BuildingBlock: XIVTED_clean_linker_0, # of connection points: 2
#     Edge 9, Type (0, 0), BuildingBlock: XIVTED_clean_linker_0, # of connection points: 2
#     Edge 10, Type (0, 0), BuildingBlock: XIVTED_clean_linker_0, # of connection points: 2
#     Edge 11, Type (0, 0), BuildingBlock: XIVTED_clean_linker_0, # of connection points: 2
#     Edge 12, Type (0, 0), BuildingBlock: XIVTED_clean_linker_0, # of connection points: 2
#     Edge 13, Type (0, 0), BuildingBlock: XIVTED_clean_linker_0, # of connection points: 2
#     Edge 14, Type (0, 0), BuildingBlock: XIVTED_clean_linker_0, # of connection points: 2
#     Edge 15, Type (0, 0), BuildingBlock: XIVTED_clean_linker_0, # of connection points: 2
#     Edge 16, Type (0, 0), BuildingBlock: XIVTED_clean_linker_0, # of connection points: 2
#     Edge 17, Type (0, 0), BuildingBlock: XIVTED_clean_linker_0, # of connection points: 2
#     Edge 18, Type (0, 0), BuildingBlock: XIVTED_clean_linker_0, # of connection points: 2
#     Edge 19, Type (0, 0), BuildingBlock: XIVTED_clean_linker_0, # of connection points: 2
#     Edge 20, Type (0, 0), BuildingBlock: XIVTED_clean_linker_0, # of connection points: 2
#     Edge 21, Type (0, 0), BuildingBlock: XIVTED_clean_linker_0, # of connection points: 2
#     Edge 22, Type (0, 0), BuildingBlock: XIVTED_clean_linker_0, # of connection points: 2
#     Edge 23, Type (0, 0), BuildingBlock: XIVTED_clean_linker_0, # of connection points: 2
#     Edge 24, Type (0, 0), BuildingBlock: XIVTED_clean_linker_0, # of connection points: 2
#     Edge 25, Type (0, 0), BuildingBlock: XIVTED_clean_linker_0, # of connection points: 2
#     Edge 26, Type (0, 0), BuildingBlock: XIVTED_clean_linker_0, # of connection points: 2
#     Edge 27, Type (0, 0), BuildingBlock: XIVTED_clean_linker_0, # of connection points: 2
#     Edge 28, Type (0, 0), BuildingBlock: XIVTED_clean_linker_0, # of connection points: 2
#     Edge 29, Type (0, 0), BuildingBlock: XIVTED_clean_linker_0, # of connection points: 2
#     Edge 30, Type (0, 0), BuildingBlock: XIVTED_clean_linker_0, # of connection points: 2
#     Edge 31, Type (0, 0), BuildingBlock: XIVTED_clean_linker_0, # of connection points: 2
# Relax obj value: 0.282
# Max RMSD: 0.266
# Mean RMSD: 0.266
data_MOF--net-vmf--node1-IZENUY_clean_sbu_0--edge1-XIVTED_clean_linker_0
_symmetry_space_group_name_H-M    P1
_symmetry_Int_Tables_number       1
_symmetry_cell_setting            triclinic
loop_
_symmetry_equiv_pos_as_xyz
'x, y, z'
_cell_length_a     28.775075
_cell_length_b     43.493249
_cell_length_c     28.348939
_cell_angle_alpha  90.227656
_cell_angle_beta   106.13571
_cell_angle_gamma 89.69288
loop_
_atom_site_label
_atom_site_type_symbol
_atom_site_fract_x
_atom_site_fract_y
_atom_site_fract_z
_atom_type_partial_charge
Fe0 Fe 0.21967 0.35649 0.20762 0.0
Fe1 Fe 0.20964 0.29339 0.25344 0.0
O2 O 0.19409 0.33292 0.24497 0.0
Fe3 Fe 0.15164 0.34898 0.27322 0.0
O4 O 0.10994 0.35718 0.21272 0.0
O5 O 0.1643 0.37917 0.18296 0.0
O6 O 0.19832 0.33166 0.15475 0.0
C7 C 0.2061 0.30319 0.15371 0.0
C8 C 0.21704 0.39843 0.27852 0.0
O9 O 0.21729 0.28746 0.19253 0.0
C10 C 0.20533 0.31303 0.34786 0.0
O11 O 0.27907 0.33742 0.22482 0.0
O12 O 0.27349 0.30211 0.27839 0.0
O13 O 0.17619 0.38802 0.27871 0.0
O14 O 0.24334 0.3837 0.25731 0.0
C15 C 0.11434 0.28898 0.24908 0.0
O16 O 0.20536 0.29246 0.31622 0.0
O17 O 0.19101 0.34029 0.33509 0.0
C18 C 0.29868 0.31803 0.25762 0.0
O19 O 0.14675 0.28095 0.22926 0.0
O20 O 0.11848 0.31358 0.27351 0.0
C21 C 0.12087 0.37149 0.1784 0.0
Fe22 Fe 0.77862 0.35681 0.81059 0.0
Fe23 Fe 0.79753 0.29413 0.76999 0.0
O24 O 0.8103 0.33409 0.7774 0.0
Fe25 Fe 0.85481 0.35068 0.75301 0.0
O26 O 0.88034 0.37562 0.80779 0.0
O27 O 0.83367 0.36628 0.85606 0.0
O28 O 0.77265 0.32579 0.85132 0.0
C29 C 0.79844 0.30214 0.86522 0.0
C30 C 0.7897 0.39859 0.73773 0.0
O31 O 0.81738 0.2879 0.83613 0.0
C32 C 0.79992 0.30977 0.67737 0.0
O33 O 0.72043 0.34809 0.76752 0.0
O34 O 0.73436 0.29839 0.77066 0.0
O35 O 0.81451 0.38044 0.71987 0.0
O36 O 0.77987 0.39238 0.77726 0.0
C37 C 0.89822 0.29501 0.77763 0.0
O38 O 0.77655 0.29832 0.70454 0.0
O39 O 0.83639 0.32724 0.69506 0.0
C40 C 0.70501 0.32084 0.76091 0.0
O41 O 0.85782 0.28158 0.76602 0.0
O42 O 0.90015 0.32349 0.78385 0.0
C43 C 0.87308 0.37544 0.85026 0.0
Fe44 Fe 0.78941 0.72535 0.76544 0.0
Fe45 Fe 0.77569 0.66297 0.80896 0.0
O46 O 0.80577 0.68598 0.77508 0.0
Fe47 Fe 0.85244 0.67042 0.75225 0.0
O48 O 0.89525 0.69925 0.78326 0.0
O49 O 0.84843 0.73934 0.76175 0.0
O50 O 0.80847 0.73306 0.83103 0.0
C51 C 0.79186 0.71836 0.86107 0.0
C52 C 0.79526 0.70867 0.67466 0.0
O53 O 0.7671 0.69433 0.84809 0.0
C54 C 0.79008 0.6212 0.73717 0.0
O55 O 0.72673 0.71973 0.76585 0.0
O56 O 0.7166 0.66978 0.76538 0.0
O57 O 0.83352 0.69301 0.69404 0.0
O58 O 0.76951 0.71937 0.70031 0.0
C59 C 0.87178 0.647 0.84974 0.0
O60 O 0.77987 0.62732 0.77666 0.0
O61 O 0.81469 0.63939 0.71944 0.0
C62 C 0.69933 0.69657 0.7561 0.0
O63 O 0.83161 0.65528 0.85528 0.0
O64 O 0.87878 0.64633 0.80727 0.0
C65 C 0.89005 0.72776 0.77753 0.0
Fe66 Fe 0.23486 0.66956 0.20467 0.0
Fe67 Fe 0.16154 0.67588 0.26559 0.0
O68 O 0.20832 0.69149 0.2433 0.0
Fe69 Fe 0.22855 0.72973 0.25895 0.0
O70 O 0.20892 0.7417 0.19503 0.0
O71 O 0.24429 0.70249 0.16944 0.0
O72 O 0.17751 0.66511 0.15919 0.0
C73 C 0.1381 0.6561 0.16528 0.0
C74 C 0.31555 0.69848 0.25889 0.0
O75 O 0.13235 0.65433 0.20818 0.0
C76 C 0.22245 0.70952 0.3475 0.0
O77 O 0.22922 0.63259 0.23242 0.0
O78 O 0.19809 0.64279 0.29334 0.0
O79 O 0.29055 0.72281 0.25545 0.0
O80 O 0.29519 0.67288 0.24686 0.0
C81 C 0.12809 0.73491 0.24984 0.0
O82 O 0.18291 0.69571 0.3265 0.0
O83 O 0.24933 0.71966 0.32283 0.0
C84 C 0.22028 0.62485 0.27184 0.0
O85 O 0.12026 0.70699 0.23934 0.0
O86 O 0.17086 0.74456 0.26658 0.0
C87 C 0.22261 0.72807 0.16175 0.0
Fe88 Fe 0.73601 0.8547 0.20918 0.0
Fe89 Fe 0.72767 0.79317 0.25787 0.0
O90 O 0.70757 0.83168 0.24437 0.0
Fe91 Fe 0.65903 0.84633 0.26524 0.0
O92 O 0.63144 0.86897 0.20869 0.0
O93 O 0.68003 0.86033 0.16215 0.0
O94 O 0.74687 0.82271 0.17233 0.0
C95 C 0.7249 0.79745 0.16179 0.0
C96 C 0.7176 0.89742 0.27796 0.0
O97 O 0.70977 0.78296 0.19313 0.0
C98 C 0.7188 0.81175 0.34638 0.0
O99 O 0.79527 0.8503 0.25312 0.0
O100 O 0.79029 0.8002 0.25684 0.0
O101 O 0.6939 0.87896 0.29638 0.0
O102 O 0.7291 0.8908 0.23928 0.0
C103 C 0.62682 0.78758 0.245 0.0
O104 O 0.74657 0.80188 0.32225 0.0
O105 O 0.67897 0.82533 0.32502 0.0
C106 C 0.81547 0.82439 0.26329 0.0
O107 O 0.66951 0.77788 0.26281 0.0
O108 O 0.61902 0.8156 0.23555 0.0
C109 C 0.63951 0.86852 0.1667 0.0
Fe110 Fe 0.29446 0.79394 0.77148 0.0
Fe111 Fe 0.35115 0.85072 0.75422 0.0
O112 O 0.30805 0.83382 0.78034 0.0
Fe113 Fe 0.27843 0.85582 0.81643 0.0
O114 O 0.27675 0.82417 0.85759 0.0
O115 O 0.31874 0.78649 0.83684 0.0
O116 O 0.35255 0.78151 0.76258 0.0
C117 C 0.39349 0.79405 0.77416 0.0
C118 C 0.20344 0.81944 0.77179 0.0
O119 O 0.39698 0.8225 0.78132 0.0
C120 C 0.28599 0.899 0.74388 0.0
O121 O 0.26961 0.79976 0.70649 0.0
O122 O 0.32936 0.82841 0.69572 0.0
O123 O 0.21857 0.84676 0.77619 0.0
O124 O 0.23323 0.79739 0.77786 0.0
C125 C 0.3737 0.87479 0.85221 0.0
O126 O 0.31068 0.88157 0.72452 0.0
O127 O 0.27647 0.89165 0.7831 0.0
C128 C 0.29226 0.81137 0.67864 0.0
O129 O 0.37967 0.8745 0.80928 0.0
O130 O 0.33481 0.86591 0.8596 0.0
C131 C 0.30383 0.80079 0.8688 0.0
Fe132 Fe 0.30161 0.22833 0.77035 0.0
Fe133 Fe 0.28778 0.16443 0.81127 0.0
O134 O 0.31594 0.18853 0.77695 0.0
Fe135 Fe 0.35942 0.17293 0.74973 0.0
O136 O 0.39472 0.20802 0.75525 0.0
O137 O 0.36404 0.23957 0.79947 0.0
O138 O 0.28963 0.23272 0.82967 0.0
C139 C 0.2996 0.2164 0.86782 0.0
C140 C 0.31037 0.21157 0.67663 0.0
O141 O 0.30782 0.18805 0.86583 0.0
C142 C 0.2917 0.1241 0.7385 0.0
O143 O 0.23826 0.22027 0.74094 0.0
O144 O 0.22924 0.18435 0.79229 0.0
O145 O 0.32272 0.18383 0.68775 0.0
O146 O 0.31059 0.23127 0.70952 0.0
C147 C 0.38588 0.14771 0.843 0.0
O148 O 0.26513 0.13845 0.75979 0.0
O149 O 0.33305 0.13434 0.73969 0.0
C150 C 0.21139 0.20408 0.75938 0.0
O151 O 0.3419 0.1408 0.83691 0.0
O152 O 0.39861 0.16239 0.81019 0.0
C153 C 0.3991 0.2306 0.78424 0.0
Fe154 Fe 0.71468 0.22589 0.25031 0.0
Fe155 Fe 0.72983 0.16319 0.20722 0.0
O156 O 0.69992 0.18618 0.24175 0.0
Fe157 Fe 0.65524 0.16997 0.26639 0.0
O158 O 0.61076 0.19793 0.23662 0.0
O159 O 0.65465 0.23933 0.25447 0.0
O160 O 0.69516 0.23306 0.18441 0.0
C161 C 0.71325 0.21876 0.15476 0.0
C162 C 0.71174 0.20985 0.34266 0.0
O163 O 0.73736 0.19437 0.16755 0.0
C164 C 0.71839 0.12116 0.27945 0.0
O165 O 0.77799 0.22044 0.2497 0.0
O166 O 0.7885 0.17031 0.24996 0.0
O167 O 0.67475 0.19288 0.32476 0.0
O168 O 0.73552 0.22099 0.31565 0.0
C169 C 0.63495 0.14583 0.16851 0.0
O170 O 0.72709 0.12738 0.23938 0.0
O171 O 0.69486 0.13951 0.2985 0.0
C172 C 0.80563 0.19706 0.25806 0.0
O173 O 0.67399 0.15519 0.16204 0.0
O174 O 0.6284 0.14552 0.21128 0.0
C175 C 0.61375 0.22639 0.24331 0.0
H176 H 0.53294 0.20071 0.25709 0.0
H177 H 0.36645 0.34755 0.22202 0.0
H178 H 0.59337 0.28917 0.23936 0.0
H179 H 0.34888 0.26923 0.30851 0.0
H180 H 0.4468 0.32806 0.22227 0.0
H181 H 0.46135 0.22604 0.26743 0.0
C182 C 0.53111 0.22557 0.25491 0.0
C183 C 0.56942 0.24279 0.24695 0.0
C184 C 0.42556 0.31552 0.24182 0.0
C185 C 0.4865 0.27214 0.25911 0.0
C186 C 0.37969 0.32656 0.24175 0.0
C187 C 0.35043 0.30983 0.26483 0.0
C188 C 0.44183 0.28731 0.26438 0.0
C189 C 0.36973 0.28286 0.28992 0.0
C190 C 0.49019 0.24004 0.26138 0.0
C191 C 0.56471 0.275 0.24526 0.0
N192 N 0.41375 0.27224 0.28832 0.0
N193 N 0.52365 0.2887 0.25079 0.0
H194 H 0.63605 0.35698 0.78611 0.0
H195 H 0.48877 0.20735 0.80491 0.0
H196 H 0.65783 0.26843 0.72615 0.0
H197 H 0.411 0.29349 0.78066 0.0
H198 H 0.56073 0.23345 0.79684 0.0
H199 H 0.55888 0.33825 0.79709 0.0
C200 C 0.62404 0.33398 0.77404 0.0
C201 C 0.65363 0.31403 0.75578 0.0
C202 C 0.52813 0.24679 0.79382 0.0
C203 C 0.56721 0.29251 0.76975 0.0
C204 C 0.48731 0.232 0.79901 0.0
C205 C 0.44406 0.24832 0.79312 0.0
C206 C 0.52585 0.2782 0.78245 0.0
C207 C 0.44396 0.28024 0.78566 0.0
C208 C 0.58039 0.32329 0.78077 0.0
C209 C 0.63657 0.28441 0.74106 0.0
N210 N 0.48437 0.29427 0.7799 0.0
N211 N 0.59501 0.27443 0.74914 0.0
H212 H 0.47908 0.81719 0.7675 0.0
H213 H 0.63021 0.665 0.78744 0.0
H214 H 0.40653 0.73109 0.77245 0.0
H215 H 0.65024 0.74338 0.70255 0.0
H216 H 0.55076 0.68611 0.78875 0.0
H217 H 0.54781 0.78904 0.75493 0.0
C218 C 0.4777 0.7923 0.7664 0.0
C219 C 0.43682 0.77651 0.77097 0.0
C220 C 0.57221 0.69816 0.76887 0.0
C221 C 0.51584 0.74403 0.75629 0.0
C222 C 0.61721 0.68603 0.7677 0.0
C223 C 0.64692 0.70271 0.74528 0.0
C224 C 0.55776 0.72717 0.74807 0.0
C225 C 0.6287 0.73002 0.72078 0.0
C226 C 0.51684 0.77625 0.75869 0.0
C227 C 0.43731 0.74416 0.76897 0.0
N228 N 0.58582 0.74166 0.72364 0.0
N229 N 0.47645 0.72887 0.76207 0.0
H230 H 0.38916 0.71844 0.33609 0.0
H231 H 0.54161 0.78251 0.17315 0.0
H232 H 0.35682 0.68945 0.18503 0.0
H233 H 0.61689 0.74883 0.31703 0.0
H234 H 0.46937 0.75393 0.17739 0.0
H235 H 0.47008 0.73463 0.3325 0.0
C236 C 0.39972 0.71472 0.30268 0.0
C237 C 0.367 0.70202 0.26112 0.0
C238 C 0.50198 0.75246 0.20767 0.0
C239 C 0.45777 0.72181 0.25598 0.0
C240 C 0.54302 0.76874 0.20529 0.0
C241 C 0.58523 0.76768 0.24456 0.0
C242 C 0.50264 0.736 0.25038 0.0
C243 C 0.58516 0.74982 0.28571 0.0
C244 C 0.44561 0.72404 0.30056 0.0
C245 C 0.38161 0.69852 0.21813 0.0
N246 N 0.54415 0.73513 0.28801 0.0
N247 N 0.4256 0.70894 0.21632 0.0
H248 H 0.11917 0.77055 0.32617 0.0
H249 H 0.8596 0.83893 0.19355 0.0
H250 H 0.04278 0.74313 0.17887 0.0
H251 H 0.88692 0.79913 0.33764 0.0
H252 H 0.94005 0.82143 0.19 0.0
H253 H 0.04616 0.79824 0.33257 0.0
C254 C 0.08738 0.77099 0.29484 0.0
C255 C 0.08682 0.75473 0.25182 0.0
C256 C 0.92879 0.81728 0.22283 0.0
C257 C 1.00422 0.7866 0.25865 0.0
C258 C 0.88333 0.82752 0.22515 0.0
C259 C 0.86719 0.82085 0.26632 0.0
C260 C 0.95858 0.80089 0.26241 0.0
C261 C 0.89853 0.80508 0.30565 0.0
C262 C 0.04587 0.78655 0.29867 0.0
C263 C 0.04454 0.75548 0.21257 0.0
N264 N 0.94294 0.79568 0.30285 0.0
N265 N 1.00495 0.77134 0.21677 0.0
H266 H 0.89784 0.78341 0.73442 0.0
H267 H 0.18605 0.78105 0.83856 0.0
H268 H 0.98154 0.71526 0.83283 0.0
H269 H 0.11263 0.84148 0.72085 0.0
H270 H 0.10866 0.76362 0.84613 0.0
H271 H 0.97305 0.81102 0.73746 0.0
C272 C 0.9319 0.77454 0.75724 0.0
C273 C 0.93358 0.74687 0.78316 0.0
C274 C 0.10905 0.78074 0.81862 0.0
C275 C 0.0192 0.77823 0.78675 0.0
C276 C 0.15334 0.79071 0.81424 0.0
C277 C 0.1556 0.81229 0.77835 0.0
C278 C 0.0662 0.79207 0.7865 0.0
C279 C 0.1122 0.8246 0.74868 0.0
C280 C 0.97471 0.79021 0.75871 0.0
C281 C 0.97857 0.73631 0.81188 0.0
N282 N 0.06895 0.81396 0.75292 0.0
N283 N 0.01943 0.75192 0.81273 0.0
H284 H 0.9837 0.32132 0.7777 0.0
H285 H 0.13963 0.172 0.78418 0.0
H286 H 0.91522 0.23255 0.77001 0.0
H287 H 0.16595 0.25658 0.71677 0.0
H288 H 0.05996 0.19188 0.78531 0.0
H289 H 0.05504 0.29668 0.76526 0.0
C290 C 0.98367 0.29653 0.77386 0.0
C291 C 0.94309 0.279 0.77495 0.0
C292 C 0.08294 0.20576 0.76951 0.0
C293 C 0.02553 0.25058 0.76041 0.0
C294 C 0.12837 0.19449 0.76878 0.0
C295 C 0.15985 0.21281 0.75085 0.0
C296 C 0.06945 0.23572 0.75309 0.0
C297 C 0.14318 0.24168 0.73118 0.0
C298 C 0.02445 0.28252 0.7662 0.0
C299 C 0.94564 0.24694 0.76946 0.0
N300 N 0.09954 0.25243 0.73367 0.0
N301 N 0.98642 0.23365 0.76274 0.0
H302 H 0.08233 0.28257 0.329 0.0
H303 H 0.86513 0.16817 0.21126 0.0
H304 H 0.06137 0.24605 0.18284 0.0
H305 H 0.8629 0.23856 0.3181 0.0
H306 H 0.94717 0.18454 0.21173 0.0
H307 H 0.01332 0.25344 0.33691 0.0
C308 C 0.06322 0.26823 0.29848 0.0
C309 C 0.07681 0.26734 0.25461 0.0
C310 C 0.92892 0.19593 0.23564 0.0
C311 C 0.99732 0.23379 0.26369 0.0
C312 C 0.88252 0.18644 0.23584 0.0
C313 C 0.85762 0.20203 0.26497 0.0
C314 C 0.9505 0.22066 0.26553 0.0
C315 C 0.88105 0.22595 0.29529 0.0
C316 C 0.02384 0.25156 0.30317 0.0
C317 C 0.05162 0.24761 0.217 0.0
N318 N 0.92614 0.23452 0.29478 0.0
N319 N 0.01235 0.23183 0.22208 0.0
H320 H 0.97282 0.37872 0.86617 0.0
H321 H 0.02136 0.36845 0.15714 0.0
H322 H 0.86108 0.38949 0.93985 0.0
H323 H 0.1357 0.38834 0.09064 0.0
H324 H 0.96232 0.37476 0.07671 0.0
H325 H 0.03391 0.38196 0.94662 0.0
C326 C 0.9611 0.38247 0.8989 0.0
C327 C 0.91156 0.38369 0.89593 0.0
C328 C 1.00032 0.37808 0.0798 0.0
C329 C 0.98111 0.38655 0.98817 0.0
C330 C 0.03407 0.37447 0.12584 0.0
C331 C 0.08368 0.37806 0.13103 0.0
C332 C 0.01615 0.38476 0.0382 0.0
C333 C 0.09784 0.38563 0.08871 0.0
C334 C 0.99596 0.38406 0.94489 0.0
C335 C 0.8987 0.38814 0.93999 0.0
N336 N 0.06443 0.3884 0.04416 0.0
N337 N 0.933 0.38899 0.98397 0.0
H338 H 0.04084 0.6457 0.15566 0.0
H339 H 0.96996 0.64137 0.86027 0.0
H340 H 0.14472 0.64893 0.07145 0.0
H341 H 0.86515 0.63886 0.94346 0.0
H342 H 0.03485 0.63882 0.93751 0.0
H343 H 0.97633 0.63819 0.07887 0.0
C344 C 0.05025 0.64444 0.12128 0.0
C345 C 0.09846 0.64811 0.12035 0.0
C346 C 0.99761 0.63846 0.93881 0.0
C347 C 0.02465 0.63974 0.032 0.0
C348 C 0.96049 0.63969 0.89457 0.0
C349 C 0.91181 0.64038 0.89502 0.0
C350 C 0.98616 0.63797 0.98404 0.0
C351 C 0.90203 0.63851 0.94099 0.0
C352 C 0.01336 0.64027 0.07733 0.0
C353 C 0.1082 0.64643 0.07432 0.0
N354 N 0.93867 0.63763 0.9834 0.0
N355 N 0.07181 0.64257 0.03229 0.0
H356 H 0.64962 0.8754 0.07416 0.0
H357 H 0.36594 0.89034 0.94314 0.0
H358 H 0.54156 0.8796 0.15348 0.0
H359 H 0.47256 0.87683 0.86383 0.0
H360 H 0.43051 0.8938 0.01956 0.0
H361 H 0.58658 0.88277 0.99752 0.0
C362 C 0.61265 0.87819 0.07572 0.0
C363 C 0.60114 0.8767 0.12085 0.0
C364 C 0.43998 0.89047 0.98549 0.0
C365 C 0.52811 0.8851 0.03202 0.0
C366 C 0.40305 0.88862 0.94155 0.0
C367 C 0.41359 0.88314 0.89659 0.0
C368 C 0.48829 0.88677 0.98505 0.0
C369 C 0.46254 0.88122 0.89733 0.0
C370 C 0.57656 0.88236 0.03162 0.0
C371 C 0.55238 0.8806 0.11988 0.0
N372 N 0.49797 0.88272 0.94086 0.0
N373 N 0.51771 0.8844 0.07623 0.0
H374 H 0.64761 0.12774 0.08106 0.0
H375 H 0.36807 0.13156 0.92978 0.0
H376 H 0.53496 0.14434 0.15176 0.0
H377 H 0.48547 0.14834 0.86616 0.0
H378 H 0.42687 0.12558 1.01044 0.0
H379 H 0.58672 0.12357 1.00238 0.0
C380 C 0.60989 0.13002 0.08028 0.0
C381 C 0.5966 0.13669 0.12342 0.0
C382 C 0.43972 0.13024 0.97873 0.0
C383 C 0.52615 0.13208 0.03229 0.0
C384 C 0.40624 0.13344 0.93249 0.0
C385 C 0.42175 0.14034 0.89077 0.0
C386 C 0.48927 0.13349 0.98343 0.0
C387 C 0.47171 0.14295 0.89702 0.0
C388 C 0.57511 0.12778 0.03506 0.0
C389 C 0.54696 0.13909 0.11967 0.0
N390 N 0.50354 0.1395 0.94232 0.0
N391 N 0.5135 0.13706 0.07478 0.0
H392 H 0.28844 0.58676 0.25326 0.0
H393 H 0.17048 0.4363 0.32825 0.0
H394 H 0.176 0.58928 0.32704 0.0
H395 H 0.28886 0.43504 0.26232 0.0
H396 H 0.17966 0.49186 0.33917 0.0
H397 H 0.29685 0.53153 0.26736 0.0
C398 C 0.26591 0.57572 0.27309 0.0
C399 C 0.23101 0.59264 0.28846 0.0
C400 C 0.20411 0.47941 0.32298 0.0
C401 C 0.24004 0.52903 0.30418 0.0
C402 C 0.19896 0.4476 0.31674 0.0
C403 C 0.22848 0.43091 0.2936 0.0
C404 C 0.23885 0.49481 0.3057 0.0
C405 C 0.26499 0.44688 0.27996 0.0
C406 C 0.27075 0.54411 0.28112 0.0
C407 C 0.20327 0.57714 0.31444 0.0
N408 N 0.26866 0.47795 0.28556 0.0
N409 N 0.20783 0.54611 0.32078 0.0
H410 H 0.71293 0.5864 0.73962 0.0
H411 H 0.83652 0.43183 0.68249 0.0
H412 H 0.84078 0.58505 0.68853 0.0
H413 H 0.71777 0.43678 0.74753 0.0
H414 H 0.82733 0.48711 0.66516 0.0
H415 H 0.70255 0.53158 0.72237 0.0
C416 C 0.73837 0.57459 0.72389 0.0
C417 C 0.77818 0.59014 0.7162 0.0
C418 C 0.80269 0.47594 0.68232 0.0
C419 C 0.76724 0.52707 0.69739 0.0
C420 C 0.80773 0.44436 0.69197 0.0
C421 C 0.77832 0.42982 0.7172 0.0
C422 C 0.76784 0.49291 0.69778 0.0
C423 C 0.74172 0.44717 0.72874 0.0
C424 C 0.73252 0.54324 0.71414 0.0
C425 C 0.80971 0.57384 0.69518 0.0
N426 N 0.73791 0.47779 0.71945 0.0
N427 N 0.80415 0.54297 0.68743 0.0
H428 H 0.66707 0.93206 0.32896 0.0
H429 H 0.79324 0.08476 0.27303 0.0
H430 H 0.79019 0.93493 0.27035 0.0
H431 H 0.6684 0.08585 0.32902 0.0
H432 H 0.80219 0.02976 0.28892 0.0
H433 H 0.67585 0.98757 0.34549 0.0
C434 C 0.6966 0.94421 0.32067 0.0
C435 C 0.7275 0.92902 0.29753 0.0
C436 C 0.77319 0.04197 0.29851 0.0
C437 C 0.73758 0.99227 0.316 0.0
C438 C 0.76819 0.07343 0.28954 0.0
C439 C 0.7297 0.08977 0.29917 0.0
C440 C 0.73885 0.02645 0.31635 0.0
C441 C 0.69853 0.07404 0.32097 0.0
C442 C 0.70146 0.97589 0.32988 0.0
C443 C 0.76506 0.94584 0.28745 0.0
N444 N 0.70318 0.04306 0.32793 0.0
N445 N 0.76869 0.97652 0.29624 0.0
H446 H 0.21598 0.93694 0.75974 0.0
H447 H 0.33936 0.08616 0.68977 0.0
H448 H 0.3294 0.93374 0.68726 0.0
H449 H 0.21674 0.08843 0.74946 0.0
H450 H 0.3284 0.03084 0.6768 0.0
H451 H 0.20754 0.99209 0.74441 0.0
C452 C 0.23857 0.94777 0.73978 0.0
C453 C 0.2739 0.93072 0.72532 0.0
C454 C 0.30339 0.04349 0.692 0.0
C455 C 0.26499 0.99421 0.70837 0.0
C456 C 0.30959 0.07516 0.6994 0.0
C457 C 0.27943 0.09201 0.72154 0.0
C458 C 0.26701 0.0284 0.70719 0.0
C459 C 0.24121 0.07644 0.73275 0.0
C460 C 0.23376 0.97933 0.73108 0.0
C461 C 0.3018 0.94596 0.69921 0.0
N462 N 0.2366 0.04548 0.72619 0.0
N463 N 0.29736 0.97694 0.69236 0.0
H464 H 0.25865 0.18495 0.58913 0.0
H465 H 0.26121 0.33958 0.43376 0.0
H466 H 0.33772 0.26656 0.64978 0.0
H467 H 0.17408 0.26018 0.37732 0.0
H468 H 0.28979 0.31361 0.51384 0.0
H469 H 0.23043 0.21131 0.50946 0.0
C470 C 0.27087 0.20809 0.58536 0.0
C471 C 0.3004 0.22359 0.626 0.0
C472 C 0.26401 0.30203 0.48397 0.0
C473 C 0.2676 0.25418 0.53583 0.0
C474 C 0.24727 0.31709 0.4386 0.0
C475 C 0.21533 0.30202 0.39902 0.0
C476 C 0.24866 0.2718 0.48943 0.0
C477 C 0.19898 0.27256 0.40692 0.0
C478 C 0.25431 0.22333 0.54019 0.0
C479 C 0.31463 0.25382 0.61937 0.0
N480 N 0.21602 0.25838 0.45091 0.0
N481 N 0.29797 0.26814 0.57541 0.0
H482 H 0.85569 0.30754 0.61174 0.0
H483 H 0.65596 0.21226 0.40822 0.0
H484 H 0.71404 0.28519 0.62527 0.0
H485 H 0.79791 0.23406 0.39497 0.0
H486 H 0.67702 0.23803 0.48871 0.0
H487 H 0.83473 0.2817 0.53127 0.0
C488 C 0.82003 0.29767 0.59756 0.0
C489 C 0.78676 0.29853 0.62556 0.0
C490 C 0.70364 0.23699 0.46824 0.0
C491 C 0.76268 0.26839 0.53385 0.0
C492 C 0.69172 0.22198 0.42247 0.0
C493 C 0.72503 0.22099 0.39453 0.0
C494 C 0.74922 0.25109 0.48628 0.0
C495 C 0.77078 0.23439 0.41487 0.0
C496 C 0.80817 0.28263 0.55181 0.0
C497 C 0.74113 0.28496 0.60532 0.0
N498 N 0.78135 0.24892 0.45912 0.0
N499 N 0.73061 0.27043 0.56108 0.0
H500 H 0.65584 0.80272 0.40276 0.0
H501 H 0.85639 0.71565 0.61585 0.0
H502 H 0.80643 0.79505 0.40656 0.0
H503 H 0.70796 0.72829 0.61737 0.0
H504 H 0.83787 0.74273 0.53696 0.0
H505 H 0.67398 0.77578 0.48176 0.0
C506 C 0.69281 0.79597 0.42064 0.0
C507 C 0.72959 0.80112 0.39794 0.0
C508 C 0.80928 0.73937 0.55444 0.0
C509 C 0.75047 0.76959 0.48757 0.0
C510 C 0.81977 0.72357 0.59917 0.0
C511 C 0.78377 0.71976 0.62331 0.0
C512 C 0.76246 0.75133 0.53371 0.0
C513 C 0.73698 0.73088 0.60022 0.0
C514 C 0.70311 0.78025 0.46545 0.0
C515 C 0.77682 0.79142 0.42254 0.0
N516 N 0.72777 0.74625 0.55698 0.0
N517 N 0.78579 0.77598 0.4657 0.0
H518 H 0.20621 0.78709 0.62552 0.0
H519 H 0.30959 0.72822 0.40641 0.0
H520 H 0.34945 0.80794 0.61515 0.0
H521 H 0.16071 0.71657 0.40621 0.0
H522 H 0.32564 0.75459 0.48525 0.0
H523 H 0.18909 0.7604 0.54665 0.0
C524 C 0.23394 0.78641 0.60634 0.0
C525 C 0.27945 0.79985 0.62717 0.0
C526 C 0.28951 0.74613 0.46826 0.0
C527 C 0.26017 0.76864 0.53683 0.0
C528 C 0.28031 0.73081 0.42329 0.0
C529 C 0.23361 0.72011 0.3994 0.0
C530 C 0.25182 0.75095 0.48999 0.0
C531 C 0.19731 0.72416 0.42333 0.0
C532 C 0.22413 0.77099 0.56134 0.0
C533 C 0.3138 0.79818 0.60047 0.0
N534 N 0.20711 0.73942 0.46713 0.0
N535 N 0.30359 0.78263 0.55695 0.0
H536 H 0.22235 0.24268 0.13768 0.0
H537 H 0.28397 0.2766 0.88556 0.0
H538 H 0.20517 0.33164 0.0674 0.0
H539 H 0.29538 0.18648 0.95157 0.0
H540 H 0.25714 0.29727 0.95338 0.0
H541 H 0.24737 0.22132 0.06904 0.0
C542 C 0.2232 0.25766 0.10749 0.0
C543 C 0.2122 0.2891 0.10853 0.0
C544 C 0.26569 0.273 0.95319 0.0
C545 C 0.24148 0.26484 0.03029 0.0
C546 C 0.28135 0.26119 0.91463 0.0
C547 C 0.2915 0.22968 0.91268 0.0
C548 C 0.26015 0.25321 0.99013 0.0
C549 C 0.28779 0.21089 0.95153 0.0
C550 C 0.23779 0.24545 0.06846 0.0
C551 C 0.21359 0.30733 0.06827 0.0
N552 N 0.27204 0.22293 0.9886 0.0
N553 N 0.22849 0.29495 0.03094 0.0
H554 H 0.72092 0.27992 0.13458 0.0
H555 H 0.79393 0.2411 0.88756 0.0
H556 H 0.71601 0.18898 0.0721 0.0
H557 H 0.79457 0.33262 0.94697 0.0
H558 H 0.76932 0.22104 0.95764 0.0
H559 H 0.74653 0.30017 0.06516 0.0
C560 C 0.72401 0.26442 0.10559 0.0
C561 C 0.7166 0.23283 0.1089 0.0
C562 C 0.77538 0.24549 0.95559 0.0
C563 C 0.74715 0.25538 0.03071 0.0
C564 C 0.79014 0.25679 0.91605 0.0
C565 C 0.79599 0.28847 0.91165 0.0
C566 C 0.76658 0.2661 0.99062 0.0
C567 C 0.78999 0.308 0.94906 0.0
C568 C 0.73932 0.27582 0.06642 0.0
C569 C 0.72177 0.21353 0.07088 0.0
N570 N 0.77519 0.29654 0.98679 0.0
N571 N 0.73714 0.22506 0.03356 0.0
H572 H 0.78569 0.7789 0.88521 0.0
H573 H 0.73949 0.73685 0.14309 0.0
H574 H 0.79636 0.68683 0.94354 0.0
H575 H 0.71567 0.82675 0.07661 0.0
H576 H 0.76118 0.71756 0.07055 0.0
H577 H 0.76632 0.7977 0.95911 0.0
C578 C 0.78512 0.76286 0.91418 0.0
C579 C 0.79206 0.73139 0.90856 0.0
C580 C 0.75067 0.74143 0.07169 0.0
C581 C 0.76882 0.75222 0.99176 0.0
C582 C 0.73764 0.75222 0.11264 0.0
C583 C 0.72618 0.78332 0.11548 0.0
C584 C 0.75211 0.76204 0.03396 0.0
C585 C 0.72482 0.8026 0.07564 0.0
C586 C 0.77338 0.77341 0.95591 0.0
C587 C 0.79058 0.71131 0.94665 0.0
N588 N 0.73813 0.79171 0.03662 0.0
N589 N 0.77864 0.72203 0.98658 0.0
H590 H 0.19049 0.70515 0.07082 0.0
H591 H 0.33085 0.82887 0.95664 0.0
H592 H 0.26105 0.78398 0.1518 0.0
H593 H 0.27722 0.74308 0.88633 0.0
H594 H 0.30685 0.81321 0.02911 0.0
H595 H 0.21681 0.72137 1.00017 0.0
C596 C 0.21021 0.72652 0.07289 0.0
C597 C 0.22337 0.74354 0.11656 0.0
C598 C 0.30121 0.79751 0.99832 0.0
C599 C 0.25554 0.76141 0.03723 0.0
C600 C 0.3156 0.8062 0.95742 0.0
C601 C 0.30627 0.787 0.9161 0.0
C602 C 0.27667 0.76965 0.99725 0.0
C603 C 0.28567 0.75819 0.91801 0.0
C604 C 0.226 0.73544 0.03304 0.0
C605 C 0.24959 0.77067 0.11823 0.0
N606 N 0.27079 0.75053 0.95781 0.0
N607 N 0.26543 0.77866 0.0791 0.0
loop_
_geom_bond_atom_site_label_1
_geom_bond_atom_site_label_2
_geom_bond_distance
_geom_bond_site_symmetry_2
_ccdc_geom_bond_type
Fe0 O2 1.918 . S
Fe0 O5 1.997 . S
Fe0 O6 2.002 . S
Fe0 O11 1.976 . S
Fe0 O14 1.996 . S
Fe1 O2 1.918 . S
Fe1 O9 1.997 . S
Fe1 O12 1.996 . S
Fe1 O16 1.976 . S
Fe1 O19 2.002 . S
O2 Fe0 1.918 . S
O2 Fe1 1.918 . S
O2 Fe3 1.918 . S
Fe3 O2 1.918 . S
Fe3 O4 2.002 . S
Fe3 O13 1.976 . S
Fe3 O17 1.996 . S
Fe3 O20 1.997 . S
O4 Fe3 2.002 . S
O4 C21 1.295 . S
O5 Fe0 1.997 . S
O5 C21 1.235 . S
O6 Fe0 2.002 . S
O6 C7 1.295 . S
C7 O6 1.295 . S
C7 O9 1.235 . S
C8 O13 1.287 . S
C8 O14 1.255 . S
O9 Fe1 1.997 . S
O9 C7 1.235 . S
C10 O16 1.287 . S
C10 O17 1.255 . S
O11 Fe0 1.976 . S
O11 C18 1.287 . S
O12 Fe1 1.996 . S
O12 C18 1.255 . S
O13 Fe3 1.976 . S
O13 C8 1.287 . S
O14 Fe0 1.996 . S
O14 C8 1.255 . S
C15 O19 1.295 . S
C15 O20 1.235 . S
O16 Fe1 1.976 . S
O16 C10 1.287 . S
O17 Fe3 1.996 . S
O17 C10 1.255 . S
C18 O11 1.287 . S
C18 O12 1.255 . S
O19 Fe1 2.002 . S
O19 C15 1.295 . S
O20 Fe3 1.997 . S
O20 C15 1.235 . S
C21 O4 1.295 . S
C21 O5 1.235 . S
Fe22 O24 1.918 . S
Fe22 O27 1.997 . S
Fe22 O28 2.002 . S
Fe22 O33 1.976 . S
Fe22 O36 1.996 . S
Fe23 O24 1.918 . S
Fe23 O31 1.997 . S
Fe23 O34 1.996 . S
Fe23 O38 1.976 . S
Fe23 O41 2.002 . S
O24 Fe22 1.918 . S
O24 Fe23 1.918 . S
O24 Fe25 1.918 . S
Fe25 O24 1.918 . S
Fe25 O26 2.002 . S
Fe25 O35 1.976 . S
Fe25 O39 1.996 . S
Fe25 O42 1.997 . S
O26 Fe25 2.002 . S
O26 C43 1.295 . S
O27 Fe22 1.997 . S
O27 C43 1.235 . S
O28 Fe22 2.002 . S
O28 C29 1.295 . S
C29 O28 1.295 . S
C29 O31 1.235 . S
C30 O35 1.287 . S
C30 O36 1.255 . S
O31 Fe23 1.997 . S
O31 C29 1.235 . S
C32 O38 1.287 . S
C32 O39 1.255 . S
O33 Fe22 1.976 . S
O33 C40 1.287 . S
O34 Fe23 1.996 . S
O34 C40 1.255 . S
O35 Fe25 1.976 . S
O35 C30 1.287 . S
O36 Fe22 1.996 . S
O36 C30 1.255 . S
C37 O41 1.295 . S
C37 O42 1.235 . S
O38 Fe23 1.976 . S
O38 C32 1.287 . S
O39 Fe25 1.996 . S
O39 C32 1.255 . S
C40 O33 1.287 . S
C40 O34 1.255 . S
O41 Fe23 2.002 . S
O41 C37 1.295 . S
O42 Fe25 1.997 . S
O42 C37 1.235 . S
C43 O26 1.295 . S
C43 O27 1.235 . S
Fe44 O46 1.918 . S
Fe44 O49 1.997 . S
Fe44 O50 2.002 . S
Fe44 O55 1.976 . S
Fe44 O58 1.996 . S
Fe45 O46 1.918 . S
Fe45 O53 1.997 . S
Fe45 O56 1.996 . S
Fe45 O60 1.976 . S
Fe45 O63 2.002 . S
O46 Fe44 1.918 . S
O46 Fe45 1.918 . S
O46 Fe47 1.918 . S
Fe47 O46 1.918 . S
Fe47 O48 2.002 . S
Fe47 O57 1.976 . S
Fe47 O61 1.996 . S
Fe47 O64 1.997 . S
O48 Fe47 2.002 . S
O48 C65 1.295 . S
O49 Fe44 1.997 . S
O49 C65 1.235 . S
O50 Fe44 2.002 . S
O50 C51 1.295 . S
C51 O50 1.295 . S
C51 O53 1.235 . S
C52 O57 1.287 . S
C52 O58 1.255 . S
O53 Fe45 1.997 . S
O53 C51 1.235 . S
C54 O60 1.287 . S
C54 O61 1.255 . S
O55 Fe44 1.976 . S
O55 C62 1.287 . S
O56 Fe45 1.996 . S
O56 C62 1.255 . S
O57 Fe47 1.976 . S
O57 C52 1.287 . S
O58 Fe44 1.996 . S
O58 C52 1.255 . S
C59 O63 1.295 . S
C59 O64 1.235 . S
O60 Fe45 1.976 . S
O60 C54 1.287 . S
O61 Fe47 1.996 . S
O61 C54 1.255 . S
C62 O55 1.287 . S
C62 O56 1.255 . S
O63 Fe45 2.002 . S
O63 C59 1.295 . S
O64 Fe47 1.997 . S
O64 C59 1.235 . S
C65 O48 1.295 . S
C65 O49 1.235 . S
Fe66 O68 1.918 . S
Fe66 O71 1.997 . S
Fe66 O72 2.002 . S
Fe66 O77 1.976 . S
Fe66 O80 1.996 . S
Fe67 O68 1.918 . S
Fe67 O75 1.997 . S
Fe67 O78 1.996 . S
Fe67 O82 1.976 . S
Fe67 O85 2.002 . S
O68 Fe66 1.918 . S
O68 Fe67 1.918 . S
O68 Fe69 1.918 . S
Fe69 O68 1.918 . S
Fe69 O70 2.002 . S
Fe69 O79 1.976 . S
Fe69 O83 1.996 . S
Fe69 O86 1.997 . S
O70 Fe69 2.002 . S
O70 C87 1.295 . S
O71 Fe66 1.997 . S
O71 C87 1.235 . S
O72 Fe66 2.002 . S
O72 C73 1.295 . S
C73 O72 1.295 . S
C73 O75 1.235 . S
C74 O79 1.287 . S
C74 O80 1.255 . S
O75 Fe67 1.997 . S
O75 C73 1.235 . S
C76 O82 1.287 . S
C76 O83 1.255 . S
O77 Fe66 1.976 . S
O77 C84 1.287 . S
O78 Fe67 1.996 . S
O78 C84 1.255 . S
O79 Fe69 1.976 . S
O79 C74 1.287 . S
O80 Fe66 1.996 . S
O80 C74 1.255 . S
C81 O85 1.295 . S
C81 O86 1.235 . S
O82 Fe67 1.976 . S
O82 C76 1.287 . S
O83 Fe69 1.996 . S
O83 C76 1.255 . S
C84 O77 1.287 . S
C84 O78 1.255 . S
O85 Fe67 2.002 . S
O85 C81 1.295 . S
O86 Fe69 1.997 . S
O86 C81 1.235 . S
C87 O70 1.295 . S
C87 O71 1.235 . S
Fe88 O90 1.918 . S
Fe88 O93 1.997 . S
Fe88 O94 2.002 . S
Fe88 O99 1.976 . S
Fe88 O102 1.996 . S
Fe89 O90 1.918 . S
Fe89 O97 1.997 . S
Fe89 O100 1.996 . S
Fe89 O104 1.976 . S
Fe89 O107 2.002 . S
O90 Fe88 1.918 . S
O90 Fe89 1.918 . S
O90 Fe91 1.918 . S
Fe91 O90 1.918 . S
Fe91 O92 2.002 . S
Fe91 O101 1.976 . S
Fe91 O105 1.996 . S
Fe91 O108 1.997 . S
O92 Fe91 2.002 . S
O92 C109 1.295 . S
O93 Fe88 1.997 . S
O93 C109 1.235 . S
O94 Fe88 2.002 . S
O94 C95 1.295 . S
C95 O94 1.295 . S
C95 O97 1.235 . S
C96 O101 1.287 . S
C96 O102 1.255 . S
O97 Fe89 1.997 . S
O97 C95 1.235 . S
C98 O104 1.287 . S
C98 O105 1.255 . S
O99 Fe88 1.976 . S
O99 C106 1.287 . S
O100 Fe89 1.996 . S
O100 C106 1.255 . S
O101 Fe91 1.976 . S
O101 C96 1.287 . S
O102 Fe88 1.996 . S
O102 C96 1.255 . S
C103 O107 1.295 . S
C103 O108 1.235 . S
O104 Fe89 1.976 . S
O104 C98 1.287 . S
O105 Fe91 1.996 . S
O105 C98 1.255 . S
C106 O99 1.287 . S
C106 O100 1.255 . S
O107 Fe89 2.002 . S
O107 C103 1.295 . S
O108 Fe91 1.997 . S
O108 C103 1.235 . S
C109 O92 1.295 . S
C109 O93 1.235 . S
Fe110 O112 1.918 . S
Fe110 O115 1.997 . S
Fe110 O116 2.002 . S
Fe110 O121 1.976 . S
Fe110 O124 1.996 . S
Fe111 O112 1.918 . S
Fe111 O119 1.997 . S
Fe111 O122 1.996 . S
Fe111 O126 1.976 . S
Fe111 O129 2.002 . S
O112 Fe110 1.918 . S
O112 Fe111 1.918 . S
O112 Fe113 1.918 . S
Fe113 O112 1.918 . S
Fe113 O114 2.002 . S
Fe113 O123 1.976 . S
Fe113 O127 1.996 . S
Fe113 O130 1.997 . S
O114 Fe113 2.002 . S
O114 C131 1.295 . S
O115 Fe110 1.997 . S
O115 C131 1.235 . S
O116 Fe110 2.002 . S
O116 C117 1.295 . S
C117 O116 1.295 . S
C117 O119 1.235 . S
C118 O123 1.287 . S
C118 O124 1.255 . S
O119 Fe111 1.997 . S
O119 C117 1.235 . S
C120 O126 1.287 . S
C120 O127 1.255 . S
O121 Fe110 1.976 . S
O121 C128 1.287 . S
O122 Fe111 1.996 . S
O122 C128 1.255 . S
O123 Fe113 1.976 . S
O123 C118 1.287 . S
O124 Fe110 1.996 . S
O124 C118 1.255 . S
C125 O129 1.295 . S
C125 O130 1.235 . S
O126 Fe111 1.976 . S
O126 C120 1.287 . S
O127 Fe113 1.996 . S
O127 C120 1.255 . S
C128 O121 1.287 . S
C128 O122 1.255 . S
O129 Fe111 2.002 . S
O129 C125 1.295 . S
O130 Fe113 1.997 . S
O130 C125 1.235 . S
C131 O114 1.295 . S
C131 O115 1.235 . S
Fe132 O134 1.918 . S
Fe132 O137 1.997 . S
Fe132 O138 2.002 . S
Fe132 O143 1.976 . S
Fe132 O146 1.996 . S
Fe133 O134 1.918 . S
Fe133 O141 1.997 . S
Fe133 O144 1.996 . S
Fe133 O148 1.976 . S
Fe133 O151 2.002 . S
O134 Fe132 1.918 . S
O134 Fe133 1.918 . S
O134 Fe135 1.918 . S
Fe135 O134 1.918 . S
Fe135 O136 2.002 . S
Fe135 O145 1.976 . S
Fe135 O149 1.996 . S
Fe135 O152 1.997 . S
O136 Fe135 2.002 . S
O136 C153 1.295 . S
O137 Fe132 1.997 . S
O137 C153 1.235 . S
O138 Fe132 2.002 . S
O138 C139 1.295 . S
C139 O138 1.295 . S
C139 O141 1.235 . S
C140 O145 1.287 . S
C140 O146 1.255 . S
O141 Fe133 1.997 . S
O141 C139 1.235 . S
C142 O148 1.287 . S
C142 O149 1.255 . S
O143 Fe132 1.976 . S
O143 C150 1.287 . S
O144 Fe133 1.996 . S
O144 C150 1.255 . S
O145 Fe135 1.976 . S
O145 C140 1.287 . S
O146 Fe132 1.996 . S
O146 C140 1.255 . S
C147 O151 1.295 . S
C147 O152 1.235 . S
O148 Fe133 1.976 . S
O148 C142 1.287 . S
O149 Fe135 1.996 . S
O149 C142 1.255 . S
C150 O143 1.287 . S
C150 O144 1.255 . S
O151 Fe133 2.002 . S
O151 C147 1.295 . S
O152 Fe135 1.997 . S
O152 C147 1.235 . S
C153 O136 1.295 . S
C153 O137 1.235 . S
Fe154 O156 1.918 . S
Fe154 O159 1.997 . S
Fe154 O160 2.002 . S
Fe154 O165 1.976 . S
Fe154 O168 1.996 . S
Fe155 O156 1.918 . S
Fe155 O163 1.997 . S
Fe155 O166 1.996 . S
Fe155 O170 1.976 . S
Fe155 O173 2.002 . S
O156 Fe154 1.918 . S
O156 Fe155 1.918 . S
O156 Fe157 1.918 . S
Fe157 O156 1.918 . S
Fe157 O158 2.002 . S
Fe157 O167 1.976 . S
Fe157 O171 1.996 . S
Fe157 O174 1.997 . S
O158 Fe157 2.002 . S
O158 C175 1.295 . S
O159 Fe154 1.997 . S
O159 C175 1.235 . S
O160 Fe154 2.002 . S
O160 C161 1.295 . S
C161 O160 1.295 . S
C161 O163 1.235 . S
C162 O167 1.287 . S
C162 O168 1.255 . S
O163 Fe155 1.997 . S
O163 C161 1.235 . S
C164 O170 1.287 . S
C164 O171 1.255 . S
O165 Fe154 1.976 . S
O165 C172 1.287 . S
O166 Fe155 1.996 . S
O166 C172 1.255 . S
O167 Fe157 1.976 . S
O167 C162 1.287 . S
O168 Fe154 1.996 . S
O168 C162 1.255 . S
C169 O173 1.295 . S
C169 O174 1.235 . S
O170 Fe155 1.976 . S
O170 C164 1.287 . S
O171 Fe157 1.996 . S
O171 C164 1.255 . S
C172 O165 1.287 . S
C172 O166 1.255 . S
O173 Fe155 2.002 . S
O173 C169 1.295 . S
O174 Fe157 1.997 . S
O174 C169 1.235 . S
C175 O158 1.295 . S
C175 O159 1.235 . S
H176 C182 0.930 . S
H177 C186 0.930 . S
H178 C191 0.929 . S
H179 C189 0.929 . S
H180 C184 0.929 . S
H181 C190 0.929 . S
C182 H176 0.930 . S
C182 C183 1.367 . S
C182 C190 1.378 . S
C183 C182 1.367 . S
C183 C191 1.433 . S
C184 H180 0.929 . S
C184 C186 1.378 . S
C184 C188 1.350 . S
C185 C188 1.463 . S
C185 C190 1.350 . S
C185 N193 1.427 . S
C186 H177 0.930 . S
C186 C184 1.378 . S
C186 C187 1.367 . S
C187 C186 1.367 . S
C187 C189 1.433 . S
C188 C184 1.350 . S
C188 C185 1.463 . S
C188 N192 1.427 . S
C189 H179 0.929 . S
C189 C187 1.433 . S
C189 N192 1.384 . S
C190 H181 0.929 . S
C190 C182 1.378 . S
C190 C185 1.350 . S
C191 H178 0.929 . S
C191 C183 1.433 . S
C191 N193 1.384 . S
N192 C188 1.427 . S
N192 C189 1.384 . S
N193 C185 1.427 . S
N193 C191 1.384 . S
H194 C200 0.930 . S
H195 C204 0.930 . S
H196 C209 0.929 . S
H197 C207 0.929 . S
H198 C202 0.929 . S
H199 C208 0.929 . S
C200 H194 0.930 . S
C200 C201 1.367 . S
C200 C208 1.378 . S
C201 C200 1.367 . S
C201 C209 1.433 . S
C202 H198 0.929 . S
C202 C204 1.378 . S
C202 C206 1.350 . S
C203 C206 1.463 . S
C203 C208 1.350 . S
C203 N211 1.427 . S
C204 H195 0.930 . S
C204 C202 1.378 . S
C204 C205 1.367 . S
C205 C204 1.367 . S
C205 C207 1.433 . S
C206 C202 1.350 . S
C206 C203 1.463 . S
C206 N210 1.427 . S
C207 H197 0.929 . S
C207 C205 1.433 . S
C207 N210 1.384 . S
C208 H199 0.929 . S
C208 C200 1.378 . S
C208 C203 1.350 . S
C209 H196 0.929 . S
C209 C201 1.433 . S
C209 N211 1.384 . S
N210 C206 1.427 . S
N210 C207 1.384 . S
N211 C203 1.427 . S
N211 C209 1.384 . S
H212 C218 0.930 . S
H213 C222 0.930 . S
H214 C227 0.929 . S
H215 C225 0.929 . S
H216 C220 0.929 . S
H217 C226 0.929 . S
C218 H212 0.930 . S
C218 C219 1.367 . S
C218 C226 1.378 . S
C219 C218 1.367 . S
C219 C227 1.433 . S
C220 H216 0.929 . S
C220 C222 1.378 . S
C220 C224 1.350 . S
C221 C224 1.463 . S
C221 C226 1.350 . S
C221 N229 1.427 . S
C222 H213 0.930 . S
C222 C220 1.378 . S
C222 C223 1.367 . S
C223 C222 1.367 . S
C223 C225 1.433 . S
C224 C220 1.350 . S
C224 C221 1.463 . S
C224 N228 1.427 . S
C225 H215 0.929 . S
C225 C223 1.433 . S
C225 N228 1.384 . S
C226 H217 0.929 . S
C226 C218 1.378 . S
C226 C221 1.350 . S
C227 H214 0.929 . S
C227 C219 1.433 . S
C227 N229 1.384 . S
N228 C224 1.427 . S
N228 C225 1.384 . S
N229 C221 1.427 . S
N229 C227 1.384 . S
H230 C236 0.930 . S
H231 C240 0.930 . S
H232 C245 0.929 . S
H233 C243 0.929 . S
H234 C238 0.929 . S
H235 C244 0.929 . S
C236 H230 0.930 . S
C236 C237 1.367 . S
C236 C244 1.378 . S
C237 C236 1.367 . S
C237 C245 1.433 . S
C238 H234 0.929 . S
C238 C240 1.378 . S
C238 C242 1.350 . S
C239 C242 1.463 . S
C239 C244 1.350 . S
C239 N247 1.427 . S
C240 H231 0.930 . S
C240 C238 1.378 . S
C240 C241 1.367 . S
C241 C240 1.367 . S
C241 C243 1.433 . S
C242 C238 1.350 . S
C242 C239 1.463 . S
C242 N246 1.427 . S
C243 H233 0.929 . S
C243 C241 1.433 . S
C243 N246 1.384 . S
C244 H235 0.929 . S
C244 C236 1.378 . S
C244 C239 1.350 . S
C245 H232 0.929 . S
C245 C237 1.433 . S
C245 N247 1.384 . S
N246 C242 1.427 . S
N246 C243 1.384 . S
N247 C239 1.427 . S
N247 C245 1.384 . S
H248 C254 0.930 . S
H249 C258 0.930 . S
H250 C263 0.929 . S
H251 C261 0.929 . S
H252 C256 0.929 . S
H253 C262 0.929 . S
C254 H248 0.930 . S
C254 C255 1.367 . S
C254 C262 1.378 . S
C255 C254 1.367 . S
C255 C263 1.433 . S
C256 H252 0.929 . S
C256 C258 1.378 . S
C256 C260 1.350 . S
C257 C260 1.463 1_455 S
C257 C262 1.350 . S
C257 N265 1.427 . S
C258 H249 0.930 . S
C258 C256 1.378 . S
C258 C259 1.367 . S
C259 C258 1.367 . S
C259 C261 1.433 . S
C260 C256 1.350 . S
C260 C257 1.463 1_655 S
C260 N264 1.427 . S
C261 H251 0.929 . S
C261 C259 1.433 . S
C261 N264 1.384 . S
C262 H253 0.929 . S
C262 C254 1.378 . S
C262 C257 1.350 . S
C263 H250 0.929 . S
C263 C255 1.433 . S
C263 N265 1.384 . S
N264 C260 1.427 . S
N264 C261 1.384 . S
N265 C257 1.427 . S
N265 C263 1.384 . S
H266 C272 0.930 . S
H267 C276 0.930 . S
H268 C281 0.929 . S
H269 C279 0.929 . S
H270 C274 0.929 . S
H271 C280 0.929 . S
C272 H266 0.930 . S
C272 C273 1.367 . S
C272 C280 1.378 . S
C273 C272 1.367 . S
C273 C281 1.433 . S
C274 H270 0.929 . S
C274 C276 1.378 . S
C274 C278 1.350 . S
C275 C278 1.463 1_655 S
C275 C280 1.350 . S
C275 N283 1.427 . S
C276 H267 0.930 . S
C276 C274 1.378 . S
C276 C277 1.367 . S
C277 C276 1.367 . S
C277 C279 1.433 . S
C278 C274 1.350 . S
C278 C275 1.463 1_455 S
C278 N282 1.427 . S
C279 H269 0.929 . S
C279 C277 1.433 . S
C279 N282 1.384 . S
C280 H271 0.929 . S
C280 C272 1.378 . S
C280 C275 1.350 . S
C281 H268 0.929 . S
C281 C273 1.433 . S
C281 N283 1.384 . S
N282 C278 1.427 . S
N282 C279 1.384 . S
N283 C275 1.427 . S
N283 C281 1.384 . S
H284 C290 0.930 . S
H285 C294 0.930 . S
H286 C299 0.929 . S
H287 C297 0.929 . S
H288 C292 0.929 . S
H289 C298 0.929 . S
C290 H284 0.930 . S
C290 C291 1.367 . S
C290 C298 1.378 . S
C291 C290 1.367 . S
C291 C299 1.433 . S
C292 H288 0.929 . S
C292 C294 1.378 . S
C292 C296 1.350 . S
C293 C296 1.463 1_655 S
C293 C298 1.350 . S
C293 N301 1.427 . S
C294 H285 0.930 . S
C294 C292 1.378 . S
C294 C295 1.367 . S
C295 C294 1.367 . S
C295 C297 1.433 . S
C296 C292 1.350 . S
C296 C293 1.463 1_455 S
C296 N300 1.427 . S
C297 H287 0.929 . S
C297 C295 1.433 . S
C297 N300 1.384 . S
C298 H289 0.929 . S
C298 C290 1.378 . S
C298 C293 1.350 . S
C299 H286 0.929 . S
C299 C291 1.433 . S
C299 N301 1.384 . S
N300 C296 1.427 . S
N300 C297 1.384 . S
N301 C293 1.427 . S
N301 C299 1.384 . S
H302 C308 0.930 . S
H303 C312 0.930 . S
H304 C317 0.929 . S
H305 C315 0.929 . S
H306 C310 0.929 . S
H307 C316 0.929 . S
C308 H302 0.930 . S
C308 C309 1.367 . S
C308 C316 1.378 . S
C309 C308 1.367 . S
C309 C317 1.433 . S
C310 H306 0.929 . S
C310 C312 1.378 . S
C310 C314 1.350 . S
C311 C314 1.463 1_455 S
C311 C316 1.350 . S
C311 N319 1.427 . S
C312 H303 0.930 . S
C312 C310 1.378 . S
C312 C313 1.367 . S
C313 C312 1.367 . S
C313 C315 1.433 . S
C314 C310 1.350 . S
C314 C311 1.463 1_655 S
C314 N318 1.427 . S
C315 H305 0.929 . S
C315 C313 1.433 . S
C315 N318 1.384 . S
C316 H307 0.929 . S
C316 C308 1.378 . S
C316 C311 1.350 . S
C317 H304 0.929 . S
C317 C309 1.433 . S
C317 N319 1.384 . S
N318 C314 1.427 . S
N318 C315 1.384 . S
N319 C311 1.427 . S
N319 C317 1.384 . S
H320 C326 0.930 . S
H321 C330 0.930 . S
H322 C335 0.929 . S
H323 C333 0.929 . S
H324 C328 0.929 1_655 S
H325 C334 0.929 1_455 S
C326 H320 0.930 . S
C326 C327 1.367 . S
C326 C334 1.378 . S
C327 C326 1.367 . S
C327 C335 1.433 . S
C328 H324 0.929 1_455 S
C328 C330 1.378 . S
C328 C332 1.350 . S
C329 C332 1.463 1_656 S
C329 C334 1.350 . S
C329 N337 1.427 . S
C330 H321 0.930 . S
C330 C328 1.378 . S
C330 C331 1.367 . S
C331 C330 1.367 . S
C331 C333 1.433 . S
C332 C328 1.350 . S
C332 C329 1.463 1_454 S
C332 N336 1.427 . S
C333 H323 0.929 . S
C333 C331 1.433 . S
C333 N336 1.384 . S
C334 H325 0.929 1_655 S
C334 C326 1.378 . S
C334 C329 1.350 . S
C335 H322 0.929 . S
C335 C327 1.433 . S
C335 N337 1.384 . S
N336 C332 1.427 . S
N336 C333 1.384 . S
N337 C329 1.427 . S
N337 C335 1.384 . S
H338 C344 0.930 . S
H339 C348 0.930 . S
H340 C353 0.929 . S
H341 C351 0.929 . S
H342 C346 0.929 . S
H343 C352 0.929 . S
C344 H338 0.930 . S
C344 C345 1.367 . S
C344 C352 1.378 . S
C345 C344 1.367 . S
C345 C353 1.433 . S
C346 H342 0.929 . S
C346 C348 1.378 . S
C346 C350 1.350 . S
C347 C350 1.463 1_454 S
C347 C352 1.350 . S
C347 N355 1.427 . S
C348 H339 0.930 . S
C348 C346 1.378 . S
C348 C349 1.367 . S
C349 C348 1.367 . S
C349 C351 1.433 . S
C350 C346 1.350 . S
C350 C347 1.463 1_656 S
C350 N354 1.427 . S
C351 H341 0.929 . S
C351 C349 1.433 . S
C351 N354 1.384 . S
C352 H343 0.929 . S
C352 C344 1.378 . S
C352 C347 1.350 . S
C353 H340 0.929 . S
C353 C345 1.433 . S
C353 N355 1.384 . S
N354 C350 1.427 . S
N354 C351 1.384 . S
N355 C347 1.427 . S
N355 C353 1.384 . S
H356 C362 0.930 . S
H357 C366 0.930 . S
H358 C371 0.929 . S
H359 C369 0.929 . S
H360 C364 0.929 1_554 S
H361 C370 0.929 1_556 S
C362 H356 0.930 . S
C362 C363 1.367 . S
C362 C370 1.378 . S
C363 C362 1.367 . S
C363 C371 1.433 . S
C364 H360 0.929 1_556 S
C364 C366 1.378 . S
C364 C368 1.350 . S
C365 C368 1.463 1_554 S
C365 C370 1.350 . S
C365 N373 1.427 . S
C366 H357 0.930 . S
C366 C364 1.378 . S
C366 C367 1.367 . S
C367 C366 1.367 . S
C367 C369 1.433 . S
C368 C364 1.350 . S
C368 C365 1.463 1_556 S
C368 N372 1.427 . S
C369 H359 0.929 . S
C369 C367 1.433 . S
C369 N372 1.384 . S
C370 H361 0.929 1_554 S
C370 C362 1.378 . S
C370 C365 1.350 . S
C371 H358 0.929 . S
C371 C363 1.433 . S
C371 N373 1.384 . S
N372 C368 1.427 . S
N372 C369 1.384 . S
N373 C365 1.427 . S
N373 C371 1.384 . S
H374 C380 0.930 . S
H375 C384 0.930 . S
H376 C389 0.929 . S
H377 C387 0.929 . S
H378 C382 0.929 1_554 S
H379 C388 0.929 1_556 S
C380 H374 0.930 . S
C380 C381 1.367 . S
C380 C388 1.378 . S
C381 C380 1.367 . S
C381 C389 1.433 . S
C382 H378 0.929 1_556 S
C382 C384 1.378 . S
C382 C386 1.350 . S
C383 C386 1.463 1_554 S
C383 C388 1.350 . S
C383 N391 1.427 . S
C384 H375 0.930 . S
C384 C382 1.378 . S
C384 C385 1.367 . S
C385 C384 1.367 . S
C385 C387 1.433 . S
C386 C382 1.350 . S
C386 C383 1.463 1_556 S
C386 N390 1.427 . S
C387 H377 0.929 . S
C387 C385 1.433 . S
C387 N390 1.384 . S
C388 H379 0.929 1_554 S
C388 C380 1.378 . S
C388 C383 1.350 . S
C389 H376 0.929 . S
C389 C381 1.433 . S
C389 N391 1.384 . S
N390 C386 1.427 . S
N390 C387 1.384 . S
N391 C383 1.427 . S
N391 C389 1.384 . S
H392 C398 0.930 . S
H393 C402 0.930 . S
H394 C407 0.929 . S
H395 C405 0.929 . S
H396 C400 0.929 . S
H397 C406 0.929 . S
C398 H392 0.930 . S
C398 C399 1.367 . S
C398 C406 1.378 . S
C399 C398 1.367 . S
C399 C407 1.433 . S
C400 H396 0.929 . S
C400 C402 1.378 . S
C400 C404 1.350 . S
C401 C404 1.463 . S
C401 C406 1.350 . S
C401 N409 1.427 . S
C402 H393 0.930 . S
C402 C400 1.378 . S
C402 C403 1.367 . S
C403 C402 1.367 . S
C403 C405 1.433 . S
C404 C400 1.350 . S
C404 C401 1.463 . S
C404 N408 1.427 . S
C405 H395 0.929 . S
C405 C403 1.433 . S
C405 N408 1.384 . S
C406 H397 0.929 . S
C406 C398 1.378 . S
C406 C401 1.350 . S
C407 H394 0.929 . S
C407 C399 1.433 . S
C407 N409 1.384 . S
N408 C404 1.427 . S
N408 C405 1.384 . S
N409 C401 1.427 . S
N409 C407 1.384 . S
H410 C416 0.930 . S
H411 C420 0.930 . S
H412 C425 0.929 . S
H413 C423 0.929 . S
H414 C418 0.929 . S
H415 C424 0.929 . S
C416 H410 0.930 . S
C416 C417 1.367 . S
C416 C424 1.378 . S
C417 C416 1.367 . S
C417 C425 1.433 . S
C418 H414 0.929 . S
C418 C420 1.378 . S
C418 C422 1.350 . S
C419 C422 1.463 . S
C419 C424 1.350 . S
C419 N427 1.427 . S
C420 H411 0.930 . S
C420 C418 1.378 . S
C420 C421 1.367 . S
C421 C420 1.367 . S
C421 C423 1.433 . S
C422 C418 1.350 . S
C422 C419 1.463 . S
C422 N426 1.427 . S
C423 H413 0.929 . S
C423 C421 1.433 . S
C423 N426 1.384 . S
C424 H415 0.929 . S
C424 C416 1.378 . S
C424 C419 1.350 . S
C425 H412 0.929 . S
C425 C417 1.433 . S
C425 N427 1.384 . S
N426 C422 1.427 . S
N426 C423 1.384 . S
N427 C419 1.427 . S
N427 C425 1.384 . S
H428 C434 0.930 . S
H429 C438 0.930 . S
H430 C443 0.929 . S
H431 C441 0.929 . S
H432 C436 0.929 . S
H433 C442 0.929 . S
C434 H428 0.930 . S
C434 C435 1.367 . S
C434 C442 1.378 . S
C435 C434 1.367 . S
C435 C443 1.433 . S
C436 H432 0.929 . S
C436 C438 1.378 . S
C436 C440 1.350 . S
C437 C440 1.463 1_565 S
C437 C442 1.350 . S
C437 N445 1.427 . S
C438 H429 0.930 . S
C438 C436 1.378 . S
C438 C439 1.367 . S
C439 C438 1.367 . S
C439 C441 1.433 . S
C440 C436 1.350 . S
C440 C437 1.463 1_545 S
C440 N444 1.427 . S
C441 H431 0.929 . S
C441 C439 1.433 . S
C441 N444 1.384 . S
C442 H433 0.929 . S
C442 C434 1.378 . S
C442 C437 1.350 . S
C443 H430 0.929 . S
C443 C435 1.433 . S
C443 N445 1.384 . S
N444 C440 1.427 . S
N444 C441 1.384 . S
N445 C437 1.427 . S
N445 C443 1.384 . S
H446 C452 0.930 . S
H447 C456 0.930 . S
H448 C461 0.929 . S
H449 C459 0.929 . S
H450 C454 0.929 . S
H451 C460 0.929 . S
C452 H446 0.930 . S
C452 C453 1.367 . S
C452 C460 1.378 . S
C453 C452 1.367 . S
C453 C461 1.433 . S
C454 H450 0.929 . S
C454 C456 1.378 . S
C454 C458 1.350 . S
C455 C458 1.463 1_565 S
C455 C460 1.350 . S
C455 N463 1.427 . S
C456 H447 0.930 . S
C456 C454 1.378 . S
C456 C457 1.367 . S
C457 C456 1.367 . S
C457 C459 1.433 . S
C458 C454 1.350 . S
C458 C455 1.463 1_545 S
C458 N462 1.427 . S
C459 H449 0.929 . S
C459 C457 1.433 . S
C459 N462 1.384 . S
C460 H451 0.929 . S
C460 C452 1.378 . S
C460 C455 1.350 . S
C461 H448 0.929 . S
C461 C453 1.433 . S
C461 N463 1.384 . S
N462 C458 1.427 . S
N462 C459 1.384 . S
N463 C455 1.427 . S
N463 C461 1.384 . S
H464 C470 0.930 . S
H465 C474 0.930 . S
H466 C479 0.929 . S
H467 C477 0.929 . S
H468 C472 0.929 . S
H469 C478 0.929 . S
C470 H464 0.930 . S
C470 C471 1.367 . S
C470 C478 1.378 . S
C471 C470 1.367 . S
C471 C479 1.433 . S
C472 H468 0.929 . S
C472 C474 1.378 . S
C472 C476 1.350 . S
C473 C476 1.463 . S
C473 C478 1.350 . S
C473 N481 1.427 . S
C474 H465 0.930 . S
C474 C472 1.378 . S
C474 C475 1.367 . S
C475 C474 1.367 . S
C475 C477 1.433 . S
C476 C472 1.350 . S
C476 C473 1.463 . S
C476 N480 1.427 . S
C477 H467 0.929 . S
C477 C475 1.433 . S
C477 N480 1.384 . S
C478 H469 0.929 . S
C478 C470 1.378 . S
C478 C473 1.350 . S
C479 H466 0.929 . S
C479 C471 1.433 . S
C479 N481 1.384 . S
N480 C476 1.427 . S
N480 C477 1.384 . S
N481 C473 1.427 . S
N481 C479 1.384 . S
H482 C488 0.930 . S
H483 C492 0.930 . S
H484 C497 0.929 . S
H485 C495 0.929 . S
H486 C490 0.929 . S
H487 C496 0.929 . S
C488 H482 0.930 . S
C488 C489 1.367 . S
C488 C496 1.378 . S
C489 C488 1.367 . S
C489 C497 1.433 . S
C490 H486 0.929 . S
C490 C492 1.378 . S
C490 C494 1.350 . S
C491 C494 1.463 . S
C491 C496 1.350 . S
C491 N499 1.427 . S
C492 H483 0.930 . S
C492 C490 1.378 . S
C492 C493 1.367 . S
C493 C492 1.367 . S
C493 C495 1.433 . S
C494 C490 1.350 . S
C494 C491 1.463 . S
C494 N498 1.427 . S
C495 H485 0.929 . S
C495 C493 1.433 . S
C495 N498 1.384 . S
C496 H487 0.929 . S
C496 C488 1.378 . S
C496 C491 1.350 . S
C497 H484 0.929 . S
C497 C489 1.433 . S
C497 N499 1.384 . S
N498 C494 1.427 . S
N498 C495 1.384 . S
N499 C491 1.427 . S
N499 C497 1.384 . S
H500 C506 0.930 . S
H501 C510 0.930 . S
H502 C515 0.929 . S
H503 C513 0.929 . S
H504 C508 0.929 . S
H505 C514 0.929 . S
C506 H500 0.930 . S
C506 C507 1.367 . S
C506 C514 1.378 . S
C507 C506 1.367 . S
C507 C515 1.433 . S
C508 H504 0.929 . S
C508 C510 1.378 . S
C508 C512 1.350 . S
C509 C512 1.463 . S
C509 C514 1.350 . S
C509 N517 1.427 . S
C510 H501 0.930 . S
C510 C508 1.378 . S
C510 C511 1.367 . S
C511 C510 1.367 . S
C511 C513 1.433 . S
C512 C508 1.350 . S
C512 C509 1.463 . S
C512 N516 1.427 . S
C513 H503 0.929 . S
C513 C511 1.433 . S
C513 N516 1.384 . S
C514 H505 0.929 . S
C514 C506 1.378 . S
C514 C509 1.350 . S
C515 H502 0.929 . S
C515 C507 1.433 . S
C515 N517 1.384 . S
N516 C512 1.427 . S
N516 C513 1.384 . S
N517 C509 1.427 . S
N517 C515 1.384 . S
H518 C524 0.930 . S
H519 C528 0.930 . S
H520 C533 0.929 . S
H521 C531 0.929 . S
H522 C526 0.929 . S
H523 C532 0.929 . S
C524 H518 0.930 . S
C524 C525 1.367 . S
C524 C532 1.378 . S
C525 C524 1.367 . S
C525 C533 1.433 . S
C526 H522 0.929 . S
C526 C528 1.378 . S
C526 C530 1.350 . S
C527 C530 1.463 . S
C527 C532 1.350 . S
C527 N535 1.427 . S
C528 H519 0.930 . S
C528 C526 1.378 . S
C528 C529 1.367 . S
C529 C528 1.367 . S
C529 C531 1.433 . S
C530 C526 1.350 . S
C530 C527 1.463 . S
C530 N534 1.427 . S
C531 H521 0.929 . S
C531 C529 1.433 . S
C531 N534 1.384 . S
C532 H523 0.929 . S
C532 C524 1.378 . S
C532 C527 1.350 . S
C533 H520 0.929 . S
C533 C525 1.433 . S
C533 N535 1.384 . S
N534 C530 1.427 . S
N534 C531 1.384 . S
N535 C527 1.427 . S
N535 C533 1.384 . S
H536 C542 0.930 . S
H537 C546 0.930 . S
H538 C551 0.929 . S
H539 C549 0.929 . S
H540 C544 0.929 . S
H541 C550 0.929 . S
C542 H536 0.930 . S
C542 C543 1.367 . S
C542 C550 1.378 . S
C543 C542 1.367 . S
C543 C551 1.433 . S
C544 H540 0.929 . S
C544 C546 1.378 . S
C544 C548 1.350 . S
C545 C548 1.463 1_554 S
C545 C550 1.350 . S
C545 N553 1.427 . S
C546 H537 0.930 . S
C546 C544 1.378 . S
C546 C547 1.367 . S
C547 C546 1.367 . S
C547 C549 1.433 . S
C548 C544 1.350 . S
C548 C545 1.463 1_556 S
C548 N552 1.427 . S
C549 H539 0.929 . S
C549 C547 1.433 . S
C549 N552 1.384 . S
C550 H541 0.929 . S
C550 C542 1.378 . S
C550 C545 1.350 . S
C551 H538 0.929 . S
C551 C543 1.433 . S
C551 N553 1.384 . S
N552 C548 1.427 . S
N552 C549 1.384 . S
N553 C545 1.427 . S
N553 C551 1.384 . S
H554 C560 0.930 . S
H555 C564 0.930 . S
H556 C569 0.929 . S
H557 C567 0.929 . S
H558 C562 0.929 . S
H559 C568 0.929 . S
C560 H554 0.930 . S
C560 C561 1.367 . S
C560 C568 1.378 . S
C561 C560 1.367 . S
C561 C569 1.433 . S
C562 H558 0.929 . S
C562 C564 1.378 . S
C562 C566 1.350 . S
C563 C566 1.463 1_554 S
C563 C568 1.350 . S
C563 N571 1.427 . S
C564 H555 0.930 . S
C564 C562 1.378 . S
C564 C565 1.367 . S
C565 C564 1.367 . S
C565 C567 1.433 . S
C566 C562 1.350 . S
C566 C563 1.463 1_556 S
C566 N570 1.427 . S
C567 H557 0.929 . S
C567 C565 1.433 . S
C567 N570 1.384 . S
C568 H559 0.929 . S
C568 C560 1.378 . S
C568 C563 1.350 . S
C569 H556 0.929 . S
C569 C561 1.433 . S
C569 N571 1.384 . S
N570 C566 1.427 . S
N570 C567 1.384 . S
N571 C563 1.427 . S
N571 C569 1.384 . S
H572 C578 0.930 . S
H573 C582 0.930 . S
H574 C587 0.929 . S
H575 C585 0.929 . S
H576 C580 0.929 . S
H577 C586 0.929 . S
C578 H572 0.930 . S
C578 C579 1.367 . S
C578 C586 1.378 . S
C579 C578 1.367 . S
C579 C587 1.433 . S
C580 H576 0.929 . S
C580 C582 1.378 . S
C580 C584 1.350 . S
C581 C584 1.463 1_556 S
C581 C586 1.350 . S
C581 N589 1.427 . S
C582 H573 0.930 . S
C582 C580 1.378 . S
C582 C583 1.367 . S
C583 C582 1.367 . S
C583 C585 1.433 . S
C584 C580 1.350 . S
C584 C581 1.463 1_554 S
C584 N588 1.427 . S
C585 H575 0.929 . S
C585 C583 1.433 . S
C585 N588 1.384 . S
C586 H577 0.929 . S
C586 C578 1.378 . S
C586 C581 1.350 . S
C587 H574 0.929 . S
C587 C579 1.433 . S
C587 N589 1.384 . S
N588 C584 1.427 . S
N588 C585 1.384 . S
N589 C581 1.427 . S
N589 C587 1.384 . S
H590 C596 0.930 . S
H591 C600 0.930 . S
H592 C605 0.929 . S
H593 C603 0.929 . S
H594 C598 0.929 . S
H595 C604 0.929 . S
C596 H590 0.930 . S
C596 C597 1.367 . S
C596 C604 1.378 . S
C597 C596 1.367 . S
C597 C605 1.433 . S
C598 H594 0.929 . S
C598 C600 1.378 . S
C598 C602 1.350 . S
C599 C602 1.463 1_554 S
C599 C604 1.350 . S
C599 N607 1.427 . S
C600 H591 0.930 . S
C600 C598 1.378 . S
C600 C601 1.367 . S
C601 C600 1.367 . S
C601 C603 1.433 . S
C602 C598 1.350 . S
C602 C599 1.463 1_556 S
C602 N606 1.427 . S
C603 H593 0.929 . S
C603 C601 1.433 . S
C603 N606 1.384 . S
C604 H595 0.929 . S
C604 C596 1.378 . S
C604 C599 1.350 . S
C605 H592 0.929 . S
C605 C597 1.433 . S
C605 N607 1.384 . S
N606 C602 1.427 . S
N606 C603 1.384 . S
N607 C599 1.427 . S
N607 C605 1.384 . S
C183 C175 1.361 . S
C187 C18 1.354 . S
C201 C40 1.354 . S
C205 C153 1.361 . S
C219 C117 1.370 . S
C223 C62 1.361 . S
C237 C74 1.360 . S
C241 C103 1.376 . S
C255 C81 1.363 . S
C259 C106 1.348 . S
C273 C65 1.367 . S
C277 C118 1.345 . S
C291 C37 1.369 . S
C295 C150 1.357 . S
C309 C15 1.369 . S
C313 C172 1.356 . S
C327 C43 1.574 . S
C331 C21 1.574 . S
C345 C73 1.583 . S
C349 C59 1.578 . S
C363 C109 1.576 . S
C367 C125 1.572 . S
C381 C169 1.578 . S
C385 C147 1.582 . S
C399 C84 1.431 . S
C403 C8 1.440 . S
C417 C54 1.440 . S
C421 C30 1.432 . S
C435 C96 1.440 . S
C439 C164 1.432 . S
C453 C120 1.431 . S
C457 C142 1.440 . S
C471 C140 1.831 . S
C475 C10 1.843 . S
C489 C32 1.840 . S
C493 C162 1.830 . S
C507 C98 1.840 . S
C511 C52 1.830 . S
C525 C128 1.835 . S
C529 C76 1.823 . S
C543 C7 0.930 . S
C547 C139 0.936 . S
C561 C161 0.953 . S
C565 C29 0.949 . S
C579 C51 0.946 . S
C583 C95 0.942 . S
C597 C87 0.937 . S
C601 C131 0.932 . S
