# Generated by pormake.
# Topology oof, (8)-cn, num edge types: 1
# Building blocks:
#     Node 0, Type 0, BuildingBlock: TAGTUT_clean_sbu_3, # of connection points: 8
#     Node 1, Type 0, BuildingBlock: TAGTUT_clean_sbu_3, # of connection points: 8
#     Node 2, Type 0, BuildingBlock: TAGTUT_clean_sbu_3, # of connection points: 8
#     Node 3, Type 0, BuildingBlock: TAGTUT_clean_sbu_3, # of connection points: 8
#     Edge 4, Type (0, 0), BuildingBlock: EZIPEK_clean_linker_0, # of connection points: 2
#     Edge 5, Type (0, 0), BuildingBlock: EZIPEK_clean_linker_0, # of connection points: 2
#     Edge 6, Type (0, 0), BuildingBlock: EZIPEK_clean_linker_0, # of connection points: 2
#     Edge 7, Type (0, 0), BuildingBlock: EZIPEK_clean_linker_0, # of connection points: 2
#     Edge 8, Type (0, 0), BuildingBlock: EZIPEK_clean_linker_0, # of connection points: 2
#     Edge 9, Type (0, 0), BuildingBlock: EZIPEK_clean_linker_0, # of connection points: 2
#     Edge 10, Type (0, 0), BuildingBlock: EZIPEK_clean_linker_0, # of connection points: 2
#     Edge 11, Type (0, 0), BuildingBlock: EZIPEK_clean_linker_0, # of connection points: 2
#     Edge 12, Type (0, 0), BuildingBlock: EZIPEK_clean_linker_0, # of connection points: 2
#     Edge 13, Type (0, 0), BuildingBlock: EZIPEK_clean_linker_0, # of connection points: 2
#     Edge 14, Type (0, 0), BuildingBlock: EZIPEK_clean_linker_0, # of connection points: 2
#     Edge 15, Type (0, 0), BuildingBlock: EZIPEK_clean_linker_0, # of connection points: 2
#     Edge 16, Type (0, 0), BuildingBlock: EZIPEK_clean_linker_0, # of connection points: 2
#     Edge 17, Type (0, 0), BuildingBlock: EZIPEK_clean_linker_0, # of connection points: 2
#     Edge 18, Type (0, 0), BuildingBlock: EZIPEK_clean_linker_0, # of connection points: 2
#     Edge 19, Type (0, 0), BuildingBlock: EZIPEK_clean_linker_0, # of connection points: 2
# Relax obj value: 0.058
# Max RMSD: 0.151
# Mean RMSD: 0.151
data_MOF--net-oof--node1-TAGTUT_clean_sbu_3--edge1-EZIPEK_clean_linker_0
_symmetry_space_group_name_H-M    P1
_symmetry_Int_Tables_number       1
_symmetry_cell_setting            triclinic
loop_
_symmetry_equiv_pos_as_xyz
'x, y, z'
_cell_length_a     11.536361
_cell_length_b     50.814975
_cell_length_c     11.506948
_cell_angle_alpha  89.970521
_cell_angle_beta   84.745456
_cell_angle_gamma 90.009454
loop_
_atom_site_label
_atom_site_type_symbol
_atom_site_fract_x
_atom_site_fract_y
_atom_site_fract_z
_atom_type_partial_charge
C0 C 0.28222 0.15221 0.19068 0.0
C1 C 0.05203 0.23989 0.30106 0.0
C2 C 0.79343 0.20305 0.10005 0.0
Mg3 Mg 0.18087 0.0939 0.15963 0.0
Mg4 Mg 0.93809 0.07814 0.30881 0.0
O5 O 0.00841 0.09924 0.18931 0.0
Mg6 Mg 0.01063 0.13783 0.22977 0.0
O7 O 0.02012 0.17619 0.26361 0.0
Mg8 Mg 0.07999 0.18973 0.10709 0.0
Mg9 Mg 0.88366 0.19197 0.33288 0.0
C10 C 0.74067 0.11926 0.26971 0.0
O11 O 0.98682 0.13226 0.42345 0.0
O12 O 0.1395 0.05149 0.10298 0.0
O13 O 0.87999 0.16743 0.48875 0.0
O14 O 0.19908 0.07515 0.34102 0.0
O15 O 0.98901 0.04066 0.23217 0.0
O16 O 0.03653 0.08042 0.45557 0.0
O17 O 0.0378 0.14727 0.0406 0.0
O18 O 0.1455 0.11212 0.98293 0.0
C19 C 0.09033 0.13319 0.96055 0.0
C20 C 0.06802 0.03443 0.15101 0.0
O21 O 0.81606 0.13659 0.2336 0.0
O22 O 0.10726 0.2292 0.21034 0.0
O23 O 0.76676 0.09655 0.30946 0.0
O24 O 0.90083 0.20375 0.06267 0.0
O25 O 0.96092 0.22964 0.35458 0.0
O26 O 0.75961 0.19516 0.20307 0.0
O27 O 0.20287 0.13591 0.22557 0.0
O28 O 0.25869 0.17462 0.14827 0.0
C29 C 0.14069 0.07197 0.44 0.0
C30 C 0.93574 0.14607 0.50577 0.0
C31 C 0.05424 0.87114 0.46811 0.0
C32 C 0.05471 0.97078 0.61246 0.0
C33 C 0.05934 0.93661 0.93694 0.0
Mg34 Mg 0.02254 0.81576 0.62077 0.0
Mg35 Mg 0.82017 0.81582 0.83907 0.0
O36 O 0.9621 0.82998 0.77595 0.0
Mg37 Mg 0.96152 0.86817 0.7377 0.0
O38 O 0.97249 0.90623 0.68675 0.0
Mg39 Mg 0.14534 0.90975 0.67418 0.0
Mg40 Mg 0.88287 0.9332 0.75361 0.0
C41 C 0.87782 0.86015 0.01725 0.0
O42 O 0.76806 0.87123 0.73014 0.0
O43 O 0.03923 0.77673 0.72879 0.0
O44 O 0.71494 0.91407 0.747 0.0
O45 O 0.83789 0.80485 0.56792 0.0
O46 O 0.87923 0.77608 0.85591 0.0
O47 O 0.7027 0.81781 0.70573 0.0
O48 O 0.15092 0.86792 0.7426 0.0
O49 O 0.20383 0.82889 0.66746 0.0
C50 C 0.22898 0.8512 0.71008 0.0
C51 C 0.9764 0.76616 0.81499 0.0
O52 O 0.93316 0.87393 0.93626 0.0
O53 O 0.13088 0.95242 0.61138 0.0
O54 O 0.81737 0.83968 -0.00319 0.0
O55 O 0.14097 0.92862 0.86151 0.0
O56 O 0.94885 0.96734 0.65437 0.0
O57 O 0.95287 0.9363 0.91487 0.0
O58 O -0.00528 0.8583 0.54839 0.0
O59 O 0.11834 0.89097 0.49144 0.0
C60 C 0.73115 0.80948 0.60269 0.0
C61 C 0.69165 0.88952 0.73584 0.0
C62 C 0.55865 0.63916 0.96677 0.0
C63 C 0.55558 0.53947 0.1187 0.0
C64 C 0.5649 0.57433 0.43919 0.0
Mg65 Mg 0.52308 0.69472 0.12231 0.0
Mg66 Mg 0.32009 0.69406 0.34014 0.0
O67 O 0.46214 0.68018 0.27578 0.0
Mg68 Mg 0.46323 0.64211 0.23621 0.0
O69 O 0.47422 0.60403 0.18612 0.0
Mg70 Mg 0.64771 0.60065 0.17409 0.0
Mg71 Mg 0.38539 0.57762 0.26007 0.0
C72 C 0.38056 0.64968 0.51634 0.0
O73 O 0.26958 0.63905 0.22947 0.0
O74 O 0.53709 0.73364 0.23101 0.0
O75 O 0.21583 0.59649 0.2565 0.0
O76 O 0.33834 0.7053 0.0683 0.0
O77 O 0.37793 0.73382 0.35893 0.0
O78 O 0.20299 0.69236 0.20636 0.0
O79 O 0.65257 0.64251 0.24058 0.0
O80 O 0.70326 0.68234 0.17474 0.0
C81 C 0.73011 0.6597 0.21279 0.0
C82 C 0.47437 0.74402 0.31761 0.0
O83 O 0.43594 0.63624 0.4344 0.0
O84 O 0.63202 0.55785 0.11337 0.0
O85 O 0.31828 0.66995 0.49726 0.0
O86 O 0.64486 0.58196 0.3613 0.0
O87 O 0.4507 0.54303 0.16358 0.0
O88 O 0.45754 0.57525 0.42073 0.0
O89 O 0.49778 0.65205 0.0463 0.0
O90 O 0.62223 0.61935 0.99142 0.0
C91 C 0.23151 0.70083 0.10348 0.0
C92 C 0.19262 0.62091 0.24087 0.0
C93 C 0.58909 0.37704 0.46196 0.0
C94 C 0.56768 0.4759 0.65004 0.0
C95 C 0.63681 0.43838 0.94143 0.0
Mg96 Mg 0.57815 0.32062 0.6084 0.0
Mg97 Mg 0.38183 0.31818 0.83427 0.0
O98 O 0.5181 0.33408 0.76504 0.0
Mg99 Mg 0.50879 0.37248 0.73128 0.0
O100 O 0.50684 0.41107 0.69023 0.0
Mg101 Mg 0.67929 0.4164 0.66102 0.0
Mg102 Mg 0.43572 0.43243 0.80798 0.0
C103 C 0.43357 0.36406 0.00743 0.0
O104 O 0.31432 0.37374 0.73443 0.0
O105 O 0.6056 0.2811 0.71117 0.0
O106 O 0.26466 0.41397 0.80801 0.0
O107 O 0.39917 0.30663 0.56377 0.0
O108 O 0.45968 0.28055 0.85582 0.0
O109 O 0.25782 0.31495 0.70434 0.0
O110 O 0.70119 0.37442 0.72777 0.0
O111 O 0.75645 0.33571 0.64983 0.0
C112 C 0.78021 0.35807 0.6925 0.0
C113 C 0.55074 0.27036 0.80201 0.0
O114 O 0.48443 0.37797 0.92517 0.0
O115 O 0.63876 0.45869 0.60284 0.0
O116 O 0.37808 0.34267 0.99025 0.0
O117 O 0.69655 0.43532 0.84294 0.0
O118 O 0.48802 0.46985 0.73088 0.0
O119 O 0.53254 0.42997 0.95561 0.0
O120 O 0.53641 0.3631 0.54243 0.0
O121 O 0.64454 0.3981 0.48397 0.0
C122 C 0.29177 0.30721 0.60115 0.0
C123 C 0.23883 0.39115 0.76928 0.0
C124 C 0.12392 0.14899 0.75666 0.0
C125 C 0.05195 0.13598 0.84391 0.0
C126 C 0.89911 0.13034 0.71174 0.0
C127 C 0.97433 0.14185 0.62209 0.0
N128 N 0.16568 0.15821 0.55182 0.0
N129 N 0.87868 0.1109 0.90464 0.0
C130 C 0.08905 0.14996 0.64224 0.0
C131 C 0.94133 0.12574 0.82175 0.0
N132 N 0.22319 0.16134 0.78427 0.0
N133 N 0.78771 0.12391 0.69168 0.0
H134 H 0.9058 0.1073 0.98712 0.0
H135 H 0.80397 0.10047 0.88928 0.0
H136 H 0.75735 0.12527 0.60946 0.0
H137 H 0.72373 0.11856 0.75712 0.0
H138 H 0.27208 0.17392 0.72751 0.0
H139 H 0.25166 0.16082 0.86772 0.0
H140 H 0.25428 0.16063 0.55932 0.0
H141 H 0.14342 0.161 0.46702 0.0
C142 C 0.0572 0.84882 0.2737 0.0
C143 C 0.01351 0.86895 0.35036 0.0
C144 C 0.8623 0.87905 0.21965 0.0
C145 C 0.91843 0.86222 0.13502 0.0
N146 N 0.07352 0.83157 0.07712 0.0
N147 N 0.87933 0.90499 0.3935 0.0
C148 C 0.01714 0.8472 0.16087 0.0
C149 C 0.91732 0.8846 0.32251 0.0
N150 N 0.13373 0.83072 0.31004 0.0
N151 N 0.75568 0.8893 0.20265 0.0
H152 H 0.91578 0.90959 0.47048 0.0
H153 H 0.81699 0.91852 0.37197 0.0
H154 H 0.7145 0.88567 0.12718 0.0
H155 H 0.70451 0.89956 0.26672 0.0
H156 H 0.15869 0.81382 0.26309 0.0
H157 H 0.16421 0.83129 0.39248 0.0
H158 H 0.15228 0.82222 0.08716 0.0
H159 H 0.04605 0.82926 0.99391 0.0
C160 C 0.41683 0.62664 0.8247 0.0
C161 C 0.51885 0.64069 0.84818 0.0
C162 C 0.52662 0.6613 0.65523 0.0
C163 C 0.42314 0.64751 0.63329 0.0
N164 N 0.25558 0.62228 0.70446 0.0
N165 N 0.67887 0.66895 0.7846 0.0
C166 C 0.36374 0.63182 0.72048 0.0
C167 C 0.57573 0.6575 0.76316 0.0
N168 N 0.37422 0.6073 0.89935 0.0
N169 N 0.57476 0.67884 0.57434 0.0
H170 H 0.71597 0.66624 0.86285 0.0
H171 H 0.73182 0.67969 0.72389 0.0
H172 H 0.54286 0.68188 0.49354 0.0
H173 H 0.64284 0.69154 0.58797 0.0
H174 H 0.30876 0.59429 0.88056 0.0
H175 H 0.4107 0.6027 0.97631 0.0
H176 H 0.20221 0.61288 0.76956 0.0
H177 H 0.21542 0.62563 0.62821 0.0
C178 C 0.39687 0.37953 0.21379 0.0
C179 C 0.47224 0.36822 0.1238 0.0
C180 C 0.62237 0.36124 0.25801 0.0
C181 C 0.55041 0.37418 0.34542 0.0
N182 N 0.37671 0.39906 0.40638 0.0
N183 N 0.66385 0.35212 0.0531 0.0
C184 C 0.43942 0.38424 0.32355 0.0
C185 C 0.58723 0.36026 0.14368 0.0
N186 N 0.28501 0.38567 0.19435 0.0
N187 N 0.72185 0.34895 0.28538 0.0
H188 H 0.64142 0.3493 0.96838 0.0
H189 H 0.75255 0.34981 0.0604 0.0
H190 H 0.75031 0.34942 0.36883 0.0
H191 H 0.77084 0.33644 0.22848 0.0
H192 H 0.22115 0.39087 0.26015 0.0
H193 H 0.25414 0.38416 0.11243 0.0
H194 H 0.30177 0.4094 0.39101 0.0
H195 H 0.40409 0.40278 0.48864 0.0
C196 C 0.56272 0.14493 0.33089 0.0
C197 C 0.61905 0.12572 0.25649 0.0
C198 C 0.46108 0.12681 0.12939 0.0
C199 C 0.40296 0.14529 0.20597 0.0
N200 N 0.40261 0.17567 0.36663 0.0
N201 N 0.62046 0.09595 0.09312 0.0
C202 C 0.45494 0.15545 0.30332 0.0
C203 C 0.56758 0.11585 0.15817 0.0
N204 N 0.61103 0.15224 0.43002 0.0
N205 N 0.41785 0.12125 0.0255 0.0
H206 H 0.70048 0.08793 0.10974 0.0
H207 H 0.58205 0.086 0.02757 0.0
H208 H 0.34451 0.13067 -0.00079 0.0
H209 H 0.46002 0.10964 0.96029 0.0
H210 H 0.57135 0.16446 0.49432 0.0
H211 H 0.68915 0.14437 0.45227 0.0
H212 H 0.4399 0.18574 0.43247 0.0
H213 H 0.32332 0.18376 0.34843 0.0
C214 C 0.53909 0.87201 0.61849 0.0
C215 C 0.57151 0.88129 0.72712 0.0
C216 C 0.38712 0.86649 0.8255 0.0
C217 C 0.35057 0.85917 0.71562 0.0
N218 N 0.38277 0.85868 0.50522 0.0
N219 N 0.52492 0.89052 0.93165 0.0
C220 C 0.42428 0.86276 0.61127 0.0
C221 C 0.49477 0.87961 0.82997 0.0
N222 N 0.6184 0.87191 0.5225 0.0
N223 N 0.32054 0.85989 0.92571 0.0
H224 H 0.60529 0.89944 0.93928 0.0
H225 H 0.46746 0.89251 0.00632 0.0
H226 H 0.24233 0.84969 0.92506 0.0
H227 H 0.34712 0.86227 0.00909 0.0
H228 H 0.60446 0.86259 0.44446 0.0
H229 H 0.70163 0.87988 0.52269 0.0
H230 H 0.42782 0.86385 0.42597 0.0
H231 H 0.29889 0.85201 0.49617 0.0
C232 C 0.88364 0.64211 0.33039 0.0
C233 C 0.85237 0.65232 0.22228 0.0
C234 C 0.03959 0.63845 0.12505 0.0
C235 C 0.07204 0.62922 0.23359 0.0
N236 N 0.03568 0.62526 0.44231 0.0
N237 N 0.90705 0.66426 0.02082 0.0
C238 C -0.00318 0.63172 0.3371 0.0
C239 C 0.93248 0.65186 0.12087 0.0
N240 N 0.80478 0.64236 0.42671 0.0
N241 N 0.11021 0.63357 0.02534 0.0
H242 H 0.82894 0.67382 0.01174 0.0
H243 H 0.96693 0.66709 0.94865 0.0
H244 H 0.18907 0.62363 0.02586 0.0
H245 H 0.08718 0.63722 0.94152 0.0
H246 H 0.81528 0.63192 0.50289 0.0
H247 H 0.7259 0.65239 0.42935 0.0
H248 H -0.00906 0.62965 0.52262 0.0
H249 H 0.11696 0.6168 0.45002 0.0
C250 C 0.95328 0.3549 0.8045 0.0
C251 C 0.90109 0.36493 0.70706 0.0
C252 C 0.06569 0.39429 0.6578 0.0
C253 C 0.11733 0.38458 0.75631 0.0
N254 N 0.10993 0.35822 0.93045 0.0
N255 N 0.91588 0.38861 0.52553 0.0
C256 C 0.06123 0.36544 0.83138 0.0
C257 C 0.95917 0.38326 0.62962 0.0
N258 N 0.90099 0.33475 0.8685 0.0
N259 N 0.11837 0.41413 0.59202 0.0
H260 H 0.84253 0.37911 0.49973 0.0
H261 H 0.95809 0.40008 0.45976 0.0
H262 H 0.19844 0.42219 0.60817 0.0
H263 H 0.07973 0.42397 0.52629 0.0
H264 H 0.9383 0.32478 0.93465 0.0
H265 H 0.82168 0.32662 0.85059 0.0
H266 H 0.0705 0.34605 -0.00487 0.0
H267 H 0.18823 0.3661 0.95215 0.0
C268 C 0.17143 0.30276 0.43008 0.0
C269 C 0.21246 0.29203 0.53283 0.0
C270 C 0.16309 0.24774 0.47163 0.0
C271 C 0.11467 0.25839 0.37263 0.0
N272 N 0.0581 0.29595 0.26389 0.0
N273 N 0.22684 0.25517 0.66316 0.0
C274 C 0.1144 0.28596 0.35347 0.0
C275 C 0.20105 0.26481 0.55744 0.0
N276 N 0.18911 0.32882 0.40518 0.0
N277 N 0.17694 0.22112 0.48153 0.0
H278 H 0.25776 0.26684 0.72805 0.0
H279 H 0.20752 0.23604 0.69111 0.0
H280 H 0.15033 0.20772 0.42079 0.0
H281 H 0.22503 0.21243 0.54352 0.0
H282 H 0.17263 0.33741 0.3262 0.0
H283 H 0.22537 0.34169 0.46263 0.0
H284 H 0.04474 0.31598 0.2515 0.0
H285 H 0.01876 0.28392 0.20536 0.0
C286 C 0.66216 0.26248 0.97238 0.0
C287 C 0.6139 0.25187 0.87323 0.0
C288 C 0.67297 0.20755 0.92906 0.0
C289 C 0.71374 0.2182 0.03205 0.0
N290 N 0.72691 0.2549 0.1634 0.0
N291 N 0.55888 0.21436 0.76341 0.0
C292 C 0.70117 0.24536 0.05752 0.0
C293 C 0.61493 0.22434 0.85316 0.0
N294 N 0.67498 0.28911 0.98297 0.0
N295 N 0.69185 0.18157 0.90325 0.0
H296 H 0.51873 0.2264 0.70544 0.0
H297 H 0.54649 0.19432 0.75039 0.0
H298 H 0.72891 0.1687 0.96016 0.0
H299 H 0.67564 0.17308 0.82404 0.0
H300 H 0.72286 0.29781 0.0451 0.0
H301 H 0.6478 0.30255 0.92264 0.0
H302 H 0.70671 0.27394 0.19198 0.0
H303 H 0.75875 0.24322 0.22778 0.0
C304 C 0.59454 0.78575 0.33234 0.0
C305 C 0.52388 0.7655 0.38713 0.0
C306 C 0.54292 0.78678 0.57519 0.0
C307 C 0.6394 0.80133 0.52596 0.0
N308 N 0.74759 0.81791 0.35207 0.0
N309 N 0.45974 0.74382 0.57189 0.0
C310 C 0.66205 0.80192 0.40229 0.0
C311 C 0.50429 0.7653 0.51166 0.0
N312 N 0.59478 0.79001 0.21515 0.0
N313 N 0.48868 0.79287 0.68214 0.0
H314 H 0.44687 0.72561 0.53389 0.0
H315 H 0.45252 0.74295 0.66288 0.0
H316 H 0.50576 0.81011 0.7263 0.0
H317 H 0.41415 0.78298 0.71699 0.0
H318 H 0.6379 0.80572 0.17206 0.0
H319 H 0.54158 0.77947 0.16324 0.0
H320 H 0.77852 0.81682 0.26427 0.0
H321 H 0.7891 0.83193 0.4 0.0
C322 C 0.04671 0.72494 0.07641 0.0
C323 C 0.13986 0.70933 0.02744 0.0
C324 C 0.09472 0.7242 0.83266 0.0
C325 C 0.02674 0.74504 0.88588 0.0
N326 N 0.96738 0.76821 0.06784 0.0
N327 N 0.24253 0.69086 0.85484 0.0
C328 C 0.00929 0.74614 0.01038 0.0
C329 C 0.16057 0.70789 0.90377 0.0
N330 N -0.00595 0.72004 0.18534 0.0
N331 N 0.09394 0.71956 0.71586 0.0
H332 H 0.28219 0.67683 0.90435 0.0
H333 H 0.27246 0.69109 0.76666 0.0
H334 H 0.04255 0.73039 0.66314 0.0
H335 H 0.13474 0.70345 0.67379 0.0
H336 H 0.92147 0.73063 0.21999 0.0
H337 H 0.00966 0.70309 0.23223 0.0
H338 H 0.96259 0.76989 0.15854 0.0
H339 H 0.95384 0.78605 0.02699 0.0
C340 C 0.18693 0.99394 0.08246 0.0
C341 C 0.07702 0.00626 0.11483 0.0
C342 C 0.98592 0.9632 0.10641 0.0
C343 C 0.08442 0.95343 0.03845 0.0
N344 N 0.29391 0.95652 0.0038 0.0
N345 N 0.86613 1.00157 0.13132 0.0
C346 C 0.18956 0.96777 0.03859 0.0
C347 C 0.97466 0.99054 0.12216 0.0
N348 N 0.28938 0.00659 0.09541 0.0
N349 N 0.89897 0.94648 0.14563 0.0
H350 H 0.85174 0.0217 0.12337 0.0
H351 H 0.7905 0.99039 0.12926 0.0
H352 H 0.90726 0.92636 0.13025 0.0
H353 H 0.82694 0.95243 0.20082 0.0
H354 H 0.37011 0.99811 0.0697 0.0
H355 H 0.29452 0.02443 0.13896 0.0
H356 H 0.3035 0.93669 0.98122 0.0
H357 H 0.3035 0.93669 0.98122 0.0
C358 C 0.10412 0.04515 0.62241 0.0
C359 C 0.16979 0.04903 0.51359 0.0
C360 C 0.17346 1.00172 0.47809 0.0
C361 C 0.09636 0.99774 0.58001 0.0
N362 N 0.03107 0.01429 0.77265 0.0
N363 N 0.31821 0.02909 0.37861 0.0
C364 C 0.07432 0.01906 0.65996 0.0
C365 C 0.22234 0.02683 0.45595 0.0
N366 N 0.06817 0.06659 0.68742 0.0
N367 N 0.20014 0.98179 0.40067 0.0
H368 H 0.36504 0.04658 0.36505 0.0
H369 H 0.36504 0.04658 0.36505 0.0
H370 H 0.15946 0.96346 0.4065 0.0
H371 H 0.25781 0.98441 0.32621 0.0
H372 H 0.008 0.06571 0.76053 0.0
H373 H 0.09782 0.08549 0.66457 0.0
H374 H 0.02246 0.02877 0.83685 0.0
H375 H 0.01517 0.9954 0.80572 0.0
C376 C 0.57317 0.49103 0.16462 0.0
C377 C 0.59583 0.51246 0.08541 0.0
C378 C 0.71967 0.4832 0.95985 0.0
C379 C 0.66498 0.46115 0.01617 0.0
N380 N 0.56114 0.44348 0.18885 0.0
N381 N 0.69014 0.52807 0.90135 0.0
C382 C 0.59949 0.46493 0.12512 0.0
C383 C 0.67044 0.50842 0.98177 0.0
N384 N 0.53222 0.49563 0.27806 0.0
N385 N 0.81858 0.48005 0.8869 0.0
H386 H 0.64856 0.54628 0.90877 0.0
H387 H 0.73877 0.52523 0.82155 0.0
H388 H 0.86077 0.46189 0.87763 0.0
H389 H 0.86587 0.49589 0.84954 0.0
H390 H 0.52318 0.48095 0.34142 0.0
H391 H 0.51911 0.5145 0.31232 0.0
H392 H 0.50111 0.44449 0.26205 0.0
H393 H 0.58869 0.4245 0.165 0.0
C394 C 0.69078 0.51575 0.58072 0.0
C395 C 0.57951 0.50409 0.61415 0.0
C396 C 0.49484 0.54781 0.61005 0.0
C397 C 0.59209 0.55693 0.5383 0.0
N398 N 0.79702 0.55208 0.48253 0.0
N399 N 0.36941 0.51038 0.63541 0.0
C400 C 0.69536 0.54172 0.53243 0.0
C401 C 0.47956 0.52054 0.62426 0.0
N402 N 0.79111 0.50297 0.6012 0.0
N403 N 0.41195 0.56509 0.6534 0.0
H404 H 0.35169 0.49042 0.62645 0.0
H405 H 0.29547 0.52222 0.63602 0.0
H406 H 0.42312 0.58518 0.63896 0.0
H407 H 0.34085 0.55949 0.71069 0.0
H408 H 0.87332 0.51144 0.58648 0.0
H409 H 0.79229 0.48527 0.64656 0.0
H410 H 0.87122 0.54086 0.45984 0.0
H411 H 0.80638 0.57216 0.4652 0.0
loop_
_geom_bond_atom_site_label_1
_geom_bond_atom_site_label_2
_geom_bond_distance
_geom_bond_site_symmetry_2
_ccdc_geom_bond_type
C0 O27 1.312 . S
C0 O28 1.208 . S
C1 O22 1.331 . S
C1 O25 1.244 . S
C2 O24 1.264 . S
C2 O26 1.273 . S
Mg3 O5 1.936 1_455 S
Mg3 O12 2.081 . S
Mg3 O14 2.023 . S
Mg3 O18 2.031 . S
Mg3 O27 2.291 . S
Mg4 O5 1.963 . S
Mg4 O15 1.942 . S
Mg4 O16 1.955 . S
Mg4 O23 1.986 . S
O5 Mg3 1.936 1_655 S
O5 Mg4 1.963 . S
O5 Mg6 1.915 . S
Mg6 O5 1.915 . S
Mg6 O7 1.915 1_655 S
Mg6 O11 2.013 . S
Mg6 O17 2.114 1_655 S
Mg6 O21 2.013 . S
Mg6 O27 2.114 1_655 S
O7 Mg6 1.915 1_455 S
O7 Mg8 1.936 . S
O7 Mg9 1.963 1_455 S
Mg8 O7 1.936 . S
Mg8 O17 2.291 . S
Mg8 O22 2.081 . S
Mg8 O24 2.023 1_455 S
Mg8 O28 2.031 . S
Mg9 O7 1.963 1_655 S
Mg9 O13 1.986 . S
Mg9 O25 1.942 1_655 S
Mg9 O26 1.955 . S
C10 O21 1.191 . S
C10 O23 1.307 . S
O11 Mg6 2.013 . S
O11 C30 1.191 . S
O12 Mg3 2.081 . S
O12 C20 1.331 1_455 S
O13 Mg9 1.986 . S
O13 C30 1.307 . S
O14 Mg3 2.023 . S
O14 C29 1.264 . S
O15 Mg4 1.942 . S
O15 C20 1.244 . S
O16 Mg4 1.955 . S
O16 C29 1.273 1_655 S
O17 Mg6 2.114 1_455 S
O17 Mg8 2.291 . S
O17 C19 1.312 1_554 S
O18 Mg3 2.031 . S
O18 C19 1.208 1_554 S
C19 O17 1.312 1_556 S
C19 O18 1.208 1_556 S
C20 O12 1.331 1_655 S
C20 O15 1.244 . S
O21 Mg6 2.013 . S
O21 C10 1.191 . S
O22 C1 1.331 . S
O22 Mg8 2.081 . S
O23 Mg4 1.986 . S
O23 C10 1.307 . S
O24 C2 1.264 . S
O24 Mg8 2.023 1_655 S
O25 C1 1.244 . S
O25 Mg9 1.942 1_455 S
O26 C2 1.273 . S
O26 Mg9 1.955 . S
O27 C0 1.312 . S
O27 Mg3 2.291 . S
O27 Mg6 2.114 1_455 S
O28 C0 1.208 . S
O28 Mg8 2.031 . S
C29 O14 1.264 . S
C29 O16 1.273 1_455 S
C30 O11 1.191 . S
C30 O13 1.307 . S
C31 O58 1.312 . S
C31 O59 1.208 . S
C32 O53 1.331 1_655 S
C32 O56 1.244 . S
C33 O55 1.264 . S
C33 O57 1.273 1_455 S
Mg34 O36 1.936 . S
Mg34 O43 2.081 . S
Mg34 O45 2.023 1_455 S
Mg34 O49 2.031 . S
Mg34 O58 2.291 . S
Mg35 O36 1.963 1_655 S
Mg35 O46 1.942 1_655 S
Mg35 O47 1.955 . S
Mg35 O54 1.986 1_556 S
O36 Mg34 1.936 . S
O36 Mg35 1.963 1_455 S
O36 Mg37 1.915 1_455 S
Mg37 O36 1.915 1_655 S
Mg37 O38 1.915 . S
Mg37 O42 2.013 . S
Mg37 O48 2.114 1_655 S
Mg37 O52 2.013 . S
Mg37 O58 2.114 1_655 S
O38 Mg37 1.915 . S
O38 Mg39 1.936 1_655 S
O38 Mg40 1.963 . S
Mg39 O38 1.936 1_455 S
Mg39 O48 2.291 . S
Mg39 O53 2.081 . S
Mg39 O55 2.023 . S
Mg39 O59 2.031 . S
Mg40 O38 1.963 . S
Mg40 O44 1.986 . S
Mg40 O56 1.942 . S
Mg40 O57 1.955 . S
C41 O52 1.191 1_554 S
C41 O54 1.307 . S
O42 Mg37 2.013 . S
O42 C61 1.191 . S
O43 Mg34 2.081 . S
O43 C51 1.331 . S
O44 Mg40 1.986 . S
O44 C61 1.307 . S
O45 Mg34 2.023 1_655 S
O45 C60 1.264 . S
O46 Mg35 1.942 1_455 S
O46 C51 1.244 . S
O47 Mg35 1.955 . S
O47 C60 1.273 . S
O48 Mg37 2.114 1_455 S
O48 Mg39 2.291 . S
O48 C50 1.312 . S
O49 Mg34 2.031 . S
O49 C50 1.208 . S
C50 O48 1.312 . S
C50 O49 1.208 . S
C51 O43 1.331 . S
C51 O46 1.244 . S
O52 Mg37 2.013 . S
O52 C41 1.191 1_556 S
O53 C32 1.331 1_455 S
O53 Mg39 2.081 . S
O54 Mg35 1.986 1_554 S
O54 C41 1.307 . S
O55 C33 1.264 . S
O55 Mg39 2.023 . S
O56 C32 1.244 . S
O56 Mg40 1.942 . S
O57 C33 1.273 1_655 S
O57 Mg40 1.955 . S
O58 C31 1.312 . S
O58 Mg34 2.291 . S
O58 Mg37 2.114 1_455 S
O59 C31 1.208 . S
O59 Mg39 2.031 . S
C60 O45 1.264 . S
C60 O47 1.273 . S
C61 O42 1.191 . S
C61 O44 1.307 . S
C62 O89 1.312 1_556 S
C62 O90 1.208 1_556 S
C63 O84 1.331 . S
C63 O87 1.244 . S
C64 O86 1.264 . S
C64 O88 1.273 . S
Mg65 O67 1.936 . S
Mg65 O74 2.081 . S
Mg65 O76 2.023 . S
Mg65 O80 2.031 . S
Mg65 O89 2.291 . S
Mg66 O67 1.963 . S
Mg66 O77 1.942 . S
Mg66 O78 1.955 . S
Mg66 O85 1.986 . S
O67 Mg65 1.936 . S
O67 Mg66 1.963 . S
O67 Mg68 1.915 . S
Mg68 O67 1.915 . S
Mg68 O69 1.915 . S
Mg68 O73 2.013 . S
Mg68 O79 2.114 . S
Mg68 O83 2.013 . S
Mg68 O89 2.114 . S
O69 Mg68 1.915 . S
O69 Mg70 1.936 . S
O69 Mg71 1.963 . S
Mg70 O69 1.936 . S
Mg70 O79 2.291 . S
Mg70 O84 2.081 . S
Mg70 O86 2.023 . S
Mg70 O90 2.031 . S
Mg71 O69 1.963 . S
Mg71 O75 1.986 . S
Mg71 O87 1.942 . S
Mg71 O88 1.955 . S
C72 O83 1.191 . S
C72 O85 1.307 . S
O73 Mg68 2.013 . S
O73 C92 1.191 . S
O74 Mg65 2.081 . S
O74 C82 1.331 . S
O75 Mg71 1.986 . S
O75 C92 1.307 . S
O76 Mg65 2.023 . S
O76 C91 1.264 . S
O77 Mg66 1.942 . S
O77 C82 1.244 . S
O78 Mg66 1.955 . S
O78 C91 1.273 . S
O79 Mg68 2.114 . S
O79 Mg70 2.291 . S
O79 C81 1.312 . S
O80 Mg65 2.031 . S
O80 C81 1.208 . S
C81 O79 1.312 . S
C81 O80 1.208 . S
C82 O74 1.331 . S
C82 O77 1.244 . S
O83 Mg68 2.013 . S
O83 C72 1.191 . S
O84 C63 1.331 . S
O84 Mg70 2.081 . S
O85 Mg66 1.986 . S
O85 C72 1.307 . S
O86 C64 1.264 . S
O86 Mg70 2.023 . S
O87 C63 1.244 . S
O87 Mg71 1.942 . S
O88 C64 1.273 . S
O88 Mg71 1.955 . S
O89 C62 1.312 1_554 S
O89 Mg65 2.291 . S
O89 Mg68 2.114 . S
O90 C62 1.208 1_554 S
O90 Mg70 2.031 . S
C91 O76 1.264 . S
C91 O78 1.273 . S
C92 O73 1.191 . S
C92 O75 1.307 . S
C93 O120 1.312 . S
C93 O121 1.208 . S
C94 O115 1.331 . S
C94 O118 1.244 . S
C95 O117 1.264 . S
C95 O119 1.273 . S
Mg96 O98 1.936 . S
Mg96 O105 2.081 . S
Mg96 O107 2.023 . S
Mg96 O111 2.031 . S
Mg96 O120 2.291 . S
Mg97 O98 1.963 . S
Mg97 O108 1.942 . S
Mg97 O109 1.955 . S
Mg97 O116 1.986 1_556 S
O98 Mg96 1.936 . S
O98 Mg97 1.963 . S
O98 Mg99 1.915 . S
Mg99 O98 1.915 . S
Mg99 O100 1.915 . S
Mg99 O104 2.013 . S
Mg99 O110 2.114 . S
Mg99 O114 2.013 . S
Mg99 O120 2.114 . S
O100 Mg99 1.915 . S
O100 Mg101 1.936 . S
O100 Mg102 1.963 . S
Mg101 O100 1.936 . S
Mg101 O110 2.291 . S
Mg101 O115 2.081 . S
Mg101 O117 2.023 . S
Mg101 O121 2.031 . S
Mg102 O100 1.963 . S
Mg102 O106 1.986 . S
Mg102 O118 1.942 . S
Mg102 O119 1.955 . S
C103 O114 1.191 1_554 S
C103 O116 1.307 . S
O104 Mg99 2.013 . S
O104 C123 1.191 . S
O105 Mg96 2.081 . S
O105 C113 1.331 . S
O106 Mg102 1.986 . S
O106 C123 1.307 . S
O107 Mg96 2.023 . S
O107 C122 1.264 . S
O108 Mg97 1.942 . S
O108 C113 1.244 . S
O109 Mg97 1.955 . S
O109 C122 1.273 . S
O110 Mg99 2.114 . S
O110 Mg101 2.291 . S
O110 C112 1.312 . S
O111 Mg96 2.031 . S
O111 C112 1.208 . S
C112 O110 1.312 . S
C112 O111 1.208 . S
C113 O105 1.331 . S
C113 O108 1.244 . S
O114 Mg99 2.013 . S
O114 C103 1.191 1_556 S
O115 C94 1.331 . S
O115 Mg101 2.081 . S
O116 Mg97 1.986 1_554 S
O116 C103 1.307 . S
O117 C95 1.264 . S
O117 Mg101 2.023 . S
O118 C94 1.244 . S
O118 Mg102 1.942 . S
O119 C95 1.273 . S
O119 Mg102 1.955 . S
O120 C93 1.312 . S
O120 Mg96 2.291 . S
O120 Mg99 2.114 . S
O121 C93 1.208 . S
O121 Mg101 2.031 . S
C122 O107 1.264 . S
C122 O109 1.273 . S
C123 O104 1.191 . S
C123 O106 1.307 . S
C124 C125 1.363 . S
C124 C130 1.379 . S
C124 N132 1.356 . S
C125 C124 1.363 . S
C125 C131 1.363 1_455 S
C126 C127 1.363 . S
C126 C131 1.379 . S
C126 N133 1.356 . S
C127 C126 1.363 . S
C127 C130 1.363 1_655 S
N128 C130 1.356 . S
N128 H140 0.984 . S
N128 H141 0.985 . S
N129 C131 1.356 . S
N129 H134 0.984 1_556 S
N129 H135 0.985 . S
C130 C124 1.379 . S
C130 C127 1.363 1_455 S
C130 N128 1.356 . S
C131 C125 1.363 1_655 S
C131 C126 1.379 . S
C131 N129 1.356 . S
N132 C124 1.356 . S
N132 H138 0.984 . S
N132 H139 0.984 . S
N133 C126 1.356 . S
N133 H136 0.984 . S
N133 H137 0.985 . S
H134 N129 0.984 1_554 S
H135 N129 0.985 . S
H136 N133 0.984 . S
H137 N133 0.985 . S
H138 N132 0.984 . S
H139 N132 0.984 . S
H140 N128 0.984 . S
H141 N128 0.985 . S
C142 C143 1.363 . S
C142 C148 1.379 . S
C142 N150 1.356 . S
C143 C142 1.363 . S
C143 C149 1.363 1_455 S
C144 C145 1.363 . S
C144 C149 1.379 . S
C144 N151 1.356 . S
C145 C144 1.363 . S
C145 C148 1.363 1_655 S
N146 C148 1.356 . S
N146 H158 0.984 . S
N146 H159 0.985 . S
N147 C149 1.356 . S
N147 H152 0.984 . S
N147 H153 0.985 . S
C148 C142 1.379 . S
C148 C145 1.363 1_455 S
C148 N146 1.356 . S
C149 C143 1.363 1_655 S
C149 C144 1.379 . S
C149 N147 1.356 . S
N150 C142 1.356 . S
N150 H156 0.984 . S
N150 H157 0.984 . S
N151 C144 1.356 . S
N151 H154 0.984 . S
N151 H155 0.985 . S
H152 N147 0.984 . S
H153 N147 0.985 . S
H154 N151 0.984 . S
H155 N151 0.985 . S
H156 N150 0.984 . S
H157 N150 0.984 . S
H158 N146 0.984 . S
H159 N146 0.985 . S
C160 C161 1.363 . S
C160 C166 1.379 . S
C160 N168 1.356 . S
C161 C160 1.363 . S
C161 C167 1.363 . S
C162 C163 1.363 . S
C162 C167 1.379 . S
C162 N169 1.356 . S
C163 C162 1.363 . S
C163 C166 1.363 . S
N164 C166 1.356 . S
N164 H176 0.984 . S
N164 H177 0.985 . S
N165 C167 1.356 . S
N165 H170 0.984 . S
N165 H171 0.985 . S
C166 C160 1.379 . S
C166 C163 1.363 . S
C166 N164 1.356 . S
C167 C161 1.363 . S
C167 C162 1.379 . S
C167 N165 1.356 . S
N168 C160 1.356 . S
N168 H174 0.984 . S
N168 H175 0.984 1_556 S
N169 C162 1.356 . S
N169 H172 0.984 . S
N169 H173 0.985 . S
H170 N165 0.984 . S
H171 N165 0.985 . S
H172 N169 0.984 . S
H173 N169 0.985 . S
H174 N168 0.984 . S
H175 N168 0.984 1_554 S
H176 N164 0.984 . S
H177 N164 0.985 . S
C178 C179 1.363 . S
C178 C184 1.379 . S
C178 N186 1.356 . S
C179 C178 1.363 . S
C179 C185 1.363 . S
C180 C181 1.363 . S
C180 C185 1.379 . S
C180 N187 1.356 . S
C181 C180 1.363 . S
C181 C184 1.363 . S
N182 C184 1.356 . S
N182 H194 0.984 . S
N182 H195 0.985 . S
N183 C185 1.356 . S
N183 H188 0.984 . S
N183 H189 0.985 . S
C184 C178 1.379 . S
C184 C181 1.363 . S
C184 N182 1.356 . S
C185 C179 1.363 . S
C185 C180 1.379 . S
C185 N183 1.356 . S
N186 C178 1.356 . S
N186 H192 0.984 . S
N186 H193 0.984 . S
N187 C180 1.356 . S
N187 H190 0.984 . S
N187 H191 0.985 . S
H188 N183 0.984 . S
H189 N183 0.985 . S
H190 N187 0.984 . S
H191 N187 0.985 . S
H192 N186 0.984 . S
H193 N186 0.984 . S
H194 N182 0.984 . S
H195 N182 0.985 . S
C196 C197 1.363 . S
C196 C202 1.379 . S
C196 N204 1.356 . S
C197 C196 1.363 . S
C197 C203 1.363 . S
C198 C199 1.363 . S
C198 C203 1.379 . S
C198 N205 1.356 . S
C199 C198 1.363 . S
C199 C202 1.363 . S
N200 C202 1.356 . S
N200 H212 0.984 . S
N200 H213 0.985 . S
N201 C203 1.356 . S
N201 H206 0.984 . S
N201 H207 0.985 . S
C202 C196 1.379 . S
C202 C199 1.363 . S
C202 N200 1.356 . S
C203 C197 1.363 . S
C203 C198 1.379 . S
C203 N201 1.356 . S
N204 C196 1.356 . S
N204 H210 0.984 . S
N204 H211 0.984 . S
N205 C198 1.356 . S
N205 H208 0.984 . S
N205 H209 0.985 . S
H206 N201 0.984 . S
H207 N201 0.985 . S
H208 N205 0.984 . S
H209 N205 0.985 . S
H210 N204 0.984 . S
H211 N204 0.984 . S
H212 N200 0.984 . S
H213 N200 0.985 . S
C214 C215 1.363 . S
C214 C220 1.379 . S
C214 N222 1.356 . S
C215 C214 1.363 . S
C215 C221 1.363 . S
C216 C217 1.363 . S
C216 C221 1.379 . S
C216 N223 1.356 . S
C217 C216 1.363 . S
C217 C220 1.363 . S
N218 C220 1.356 . S
N218 H230 0.984 . S
N218 H231 0.985 . S
N219 C221 1.356 . S
N219 H224 0.984 . S
N219 H225 0.985 . S
C220 C214 1.379 . S
C220 C217 1.363 . S
C220 N218 1.356 . S
C221 C215 1.363 . S
C221 C216 1.379 . S
C221 N219 1.356 . S
N222 C214 1.356 . S
N222 H228 0.984 . S
N222 H229 0.984 . S
N223 C216 1.356 . S
N223 H226 0.984 . S
N223 H227 0.985 . S
H224 N219 0.984 . S
H225 N219 0.985 . S
H226 N223 0.984 . S
H227 N223 0.985 . S
H228 N222 0.984 . S
H229 N222 0.984 . S
H230 N218 0.984 . S
H231 N218 0.985 . S
C232 C233 1.363 . S
C232 C238 1.379 1_655 S
C232 N240 1.356 . S
C233 C232 1.363 . S
C233 C239 1.363 . S
C234 C235 1.363 . S
C234 C239 1.379 1_455 S
C234 N241 1.356 . S
C235 C234 1.363 . S
C235 C238 1.363 . S
N236 C238 1.356 . S
N236 H248 0.984 . S
N236 H249 0.985 . S
N237 C239 1.356 . S
N237 H242 0.984 . S
N237 H243 0.985 . S
C238 C232 1.379 1_455 S
C238 C235 1.363 . S
C238 N236 1.356 . S
C239 C233 1.363 . S
C239 C234 1.379 1_655 S
C239 N237 1.356 . S
N240 C232 1.356 . S
N240 H246 0.984 . S
N240 H247 0.984 . S
N241 C234 1.356 . S
N241 H244 0.984 . S
N241 H245 0.985 . S
H242 N237 0.984 . S
H243 N237 0.985 . S
H244 N241 0.984 . S
H245 N241 0.985 . S
H246 N240 0.984 . S
H247 N240 0.984 . S
H248 N236 0.984 . S
H249 N236 0.985 . S
C250 C251 1.363 . S
C250 C256 1.379 1_655 S
C250 N258 1.356 . S
C251 C250 1.363 . S
C251 C257 1.363 . S
C252 C253 1.363 . S
C252 C257 1.379 1_455 S
C252 N259 1.356 . S
C253 C252 1.363 . S
C253 C256 1.363 . S
N254 C256 1.356 . S
N254 H266 0.984 . S
N254 H267 0.985 . S
N255 C257 1.356 . S
N255 H260 0.984 . S
N255 H261 0.985 . S
C256 C250 1.379 1_455 S
C256 C253 1.363 . S
C256 N254 1.356 . S
C257 C251 1.363 . S
C257 C252 1.379 1_655 S
C257 N255 1.356 . S
N258 C250 1.356 . S
N258 H264 0.984 . S
N258 H265 0.984 . S
N259 C252 1.356 . S
N259 H262 0.984 . S
N259 H263 0.985 . S
H260 N255 0.984 . S
H261 N255 0.985 . S
H262 N259 0.984 . S
H263 N259 0.985 . S
H264 N258 0.984 . S
H265 N258 0.984 . S
H266 N254 0.984 . S
H267 N254 0.985 . S
C268 C269 1.363 . S
C268 C274 1.379 . S
C268 N276 1.356 . S
C269 C268 1.363 . S
C269 C275 1.363 . S
C270 C271 1.363 . S
C270 C275 1.379 . S
C270 N277 1.356 . S
C271 C270 1.363 . S
C271 C274 1.363 . S
N272 C274 1.356 . S
N272 H284 0.984 . S
N272 H285 0.985 . S
N273 C275 1.356 . S
N273 H278 0.984 . S
N273 H279 0.985 . S
C274 C268 1.379 . S
C274 C271 1.363 . S
C274 N272 1.356 . S
C275 C269 1.363 . S
C275 C270 1.379 . S
C275 N273 1.356 . S
N276 C268 1.356 . S
N276 H282 0.984 . S
N276 H283 0.984 . S
N277 C270 1.356 . S
N277 H280 0.984 . S
N277 H281 0.985 . S
H278 N273 0.984 . S
H279 N273 0.985 . S
H280 N277 0.984 . S
H281 N277 0.985 . S
H282 N276 0.984 . S
H283 N276 0.984 . S
H284 N272 0.984 . S
H285 N272 0.985 . S
C286 C287 1.363 1_554 S
C286 C292 1.379 . S
C286 N294 1.356 . S
C287 C286 1.363 1_556 S
C287 C293 1.363 . S
C288 C289 1.363 1_556 S
C288 C293 1.379 . S
C288 N295 1.356 . S
C289 C288 1.363 1_554 S
C289 C292 1.363 . S
N290 C292 1.356 . S
N290 H302 0.984 . S
N290 H303 0.985 . S
N291 C293 1.356 . S
N291 H296 0.984 . S
N291 H297 0.985 . S
C292 C286 1.379 . S
C292 C289 1.363 . S
C292 N290 1.356 . S
C293 C287 1.363 . S
C293 C288 1.379 . S
C293 N291 1.356 . S
N294 C286 1.356 . S
N294 H300 0.984 . S
N294 H301 0.984 1_554 S
N295 C288 1.356 . S
N295 H298 0.984 1_556 S
N295 H299 0.985 . S
H296 N291 0.984 . S
H297 N291 0.985 . S
H298 N295 0.984 1_554 S
H299 N295 0.985 . S
H300 N294 0.984 . S
H301 N294 0.984 1_556 S
H302 N290 0.984 . S
H303 N290 0.985 . S
C304 C305 1.363 . S
C304 C310 1.379 . S
C304 N312 1.356 . S
C305 C304 1.363 . S
C305 C311 1.363 . S
C306 C307 1.363 . S
C306 C311 1.379 . S
C306 N313 1.356 . S
C307 C306 1.363 . S
C307 C310 1.363 . S
N308 C310 1.356 . S
N308 H320 0.984 1_655 S
N308 H321 0.985 . S
N309 C311 1.356 . S
N309 H314 0.984 . S
N309 H315 0.985 . S
C310 C304 1.379 . S
C310 C307 1.363 . S
C310 N308 1.356 . S
C311 C305 1.363 . S
C311 C306 1.379 . S
C311 N309 1.356 . S
N312 C304 1.356 . S
N312 H318 0.984 . S
N312 H319 0.984 . S
N313 C306 1.356 . S
N313 H316 0.984 . S
N313 H317 0.985 . S
H314 N309 0.984 . S
H315 N309 0.985 . S
H316 N313 0.984 . S
H317 N313 0.985 . S
H318 N312 0.984 . S
H319 N312 0.984 . S
H320 N308 0.984 1_455 S
H321 N308 0.985 . S
C322 C323 1.363 . S
C322 C328 1.379 . S
C322 N330 1.356 . S
C323 C322 1.363 . S
C323 C329 1.363 1_554 S
C324 C325 1.363 . S
C324 C329 1.379 . S
C324 N331 1.356 . S
C325 C324 1.363 . S
C325 C328 1.363 1_556 S
N326 C328 1.356 . S
N326 H338 0.984 . S
N326 H339 0.985 . S
N327 C329 1.356 . S
N327 H332 0.984 . S
N327 H333 0.985 . S
C328 C322 1.379 . S
C328 C325 1.363 1_554 S
C328 N326 1.356 . S
C329 C323 1.363 1_556 S
C329 C324 1.379 . S
C329 N327 1.356 . S
N330 C322 1.356 . S
N330 H336 0.984 . S
N330 H337 0.984 . S
N331 C324 1.356 . S
N331 H334 0.984 . S
N331 H335 0.985 . S
H332 N327 0.984 . S
H333 N327 0.985 . S
H334 N331 0.984 . S
H335 N331 0.985 . S
H336 N330 0.984 . S
H337 N330 0.984 . S
H338 N326 0.984 . S
H339 N326 0.985 . S
C340 C341 1.363 1_556 S
C340 C346 1.379 1_645 S
C340 N348 1.356 . S
C341 C340 1.363 1_554 S
C341 C347 1.363 . S
C342 C343 1.363 1_554 S
C342 C347 1.379 1_465 S
C342 N349 1.356 . S
C343 C342 1.363 1_556 S
C343 C346 1.363 . S
N344 C346 1.356 . S
N344 H356 0.984 . S
N344 H357 0.985 . S
N345 C347 1.356 . S
N345 H350 0.984 . S
N345 H351 0.985 . S
C346 C340 1.379 1_465 S
C346 C343 1.363 . S
C346 N344 1.356 . S
C347 C341 1.363 . S
C347 C342 1.379 1_645 S
C347 N345 1.356 . S
N348 C340 1.356 . S
N348 H354 0.984 . S
N348 H355 0.984 . S
N349 C342 1.356 . S
N349 H352 0.984 . S
N349 H353 0.985 . S
H350 N345 0.984 . S
H351 N345 0.985 . S
H352 N349 0.984 . S
H353 N349 0.985 . S
H354 N348 0.984 . S
H355 N348 0.984 . S
H356 N344 0.984 . S
H357 N344 0.985 . S
C358 C359 1.363 . S
C358 C364 1.379 1_545 S
C358 N366 1.356 . S
C359 C358 1.363 . S
C359 C365 1.363 1_455 S
C360 C361 1.363 . S
C360 C365 1.379 1_565 S
C360 N367 1.356 . S
C361 C360 1.363 . S
C361 C364 1.363 1_655 S
N362 C364 1.356 1_655 S
N362 H374 0.984 1_655 S
N362 H375 0.985 . S
N363 C365 1.356 1_455 S
N363 H368 0.984 . S
N363 H369 0.985 1_455 S
C364 C358 1.379 1_565 S
C364 C361 1.363 1_455 S
C364 N362 1.356 1_455 S
C365 C359 1.363 1_655 S
C365 C360 1.379 1_545 S
C365 N363 1.356 1_655 S
N366 C358 1.356 . S
N366 H372 0.984 . S
N366 H373 0.984 . S
N367 C360 1.356 . S
N367 H370 0.984 . S
N367 H371 0.985 . S
H368 N363 0.984 . S
H369 N363 0.985 1_655 S
H370 N367 0.984 . S
H371 N367 0.985 . S
H372 N366 0.984 . S
H373 N366 0.984 . S
H374 N362 0.984 1_455 S
H375 N362 0.985 . S
C376 C377 1.363 . S
C376 C382 1.379 . S
C376 N384 1.356 . S
C377 C376 1.363 . S
C377 C383 1.363 1_554 S
C378 C379 1.363 . S
C378 C383 1.379 . S
C378 N385 1.356 . S
C379 C378 1.363 . S
C379 C382 1.363 1_556 S
N380 C382 1.356 . S
N380 H392 0.984 . S
N380 H393 0.985 . S
N381 C383 1.356 . S
N381 H386 0.984 . S
N381 H387 0.985 . S
C382 C376 1.379 . S
C382 C379 1.363 1_554 S
C382 N380 1.356 . S
C383 C377 1.363 1_556 S
C383 C378 1.379 . S
C383 N381 1.356 . S
N384 C376 1.356 . S
N384 H390 0.984 . S
N384 H391 0.984 . S
N385 C378 1.356 . S
N385 H388 0.984 . S
N385 H389 0.985 . S
H386 N381 0.984 . S
H387 N381 0.985 . S
H388 N385 0.984 . S
H389 N385 0.985 . S
H390 N384 0.984 . S
H391 N384 0.984 . S
H392 N380 0.984 . S
H393 N380 0.985 . S
C394 C395 1.363 . S
C394 C400 1.379 . S
C394 N402 1.356 . S
C395 C394 1.363 . S
C395 C401 1.363 . S
C396 C397 1.363 . S
C396 C401 1.379 . S
C396 N403 1.356 . S
C397 C396 1.363 . S
C397 C400 1.363 . S
N398 C400 1.356 . S
N398 H410 0.984 . S
N398 H411 0.985 . S
N399 C401 1.356 . S
N399 H404 0.984 . S
N399 H405 0.985 . S
C400 C394 1.379 . S
C400 C397 1.363 . S
C400 N398 1.356 . S
C401 C395 1.363 . S
C401 C396 1.379 . S
C401 N399 1.356 . S
N402 C394 1.356 . S
N402 H408 0.984 . S
N402 H409 0.984 . S
N403 C396 1.356 . S
N403 H406 0.984 . S
N403 H407 0.985 . S
H404 N399 0.984 . S
H405 N399 0.985 . S
H406 N403 0.984 . S
H407 N403 0.985 . S
H408 N402 0.984 . S
H409 N402 0.984 . S
H410 N398 0.984 . S
H411 N398 0.985 . S
C125 C19 1.478 . S
C127 C30 1.478 . S
C143 C31 1.478 . S
C145 C41 1.478 . S
C161 C62 1.478 . S
C163 C72 1.478 . S
C179 C103 1.478 . S
C181 C93 1.478 . S
C197 C10 1.358 . S
C199 C0 1.340 . S
C215 C61 1.358 . S
C217 C50 1.340 . S
C233 C81 1.340 . S
C235 C92 1.358 . S
C251 C112 1.340 . S
C253 C123 1.358 . S
C269 C122 1.683 . S
C271 C1 1.680 . S
C287 C113 1.681 . S
C289 C2 1.683 . S
C305 C82 1.681 . S
C307 C60 1.683 . S
C323 C91 1.683 . S
C325 C51 1.680 . S
C341 C20 1.548 . S
C343 C33 1.517 . S
C359 C29 1.517 . S
C361 C32 1.548 . S
C377 C63 1.548 . S
C379 C95 1.517 . S
C395 C94 1.548 . S
C397 C64 1.517 . S
