# Generated by pormake.
# Topology uoj, (4)-cn, num edge types: 1
# Building blocks:
#     Node 0, Type 0, BuildingBlock: KOZSID_clean_sbu_0, # of connection points: 4
#     Node 1, Type 0, BuildingBlock: KOZSID_clean_sbu_0, # of connection points: 4
#     Node 2, Type 0, BuildingBlock: KOZSID_clean_sbu_0, # of connection points: 4
#     Node 3, Type 0, BuildingBlock: KOZSID_clean_sbu_0, # of connection points: 4
#     Node 4, Type 0, BuildingBlock: KOZSID_clean_sbu_0, # of connection points: 4
#     Node 5, Type 0, BuildingBlock: KOZSID_clean_sbu_0, # of connection points: 4
#     Node 6, Type 0, BuildingBlock: KOZSID_clean_sbu_0, # of connection points: 4
#     Node 7, Type 0, BuildingBlock: KOZSID_clean_sbu_0, # of connection points: 4
#     Edge 8, Type (0, 0), BuildingBlock: TEMPAE_clean_linker_10, # of connection points: 2
#     Edge 9, Type (0, 0), BuildingBlock: TEMPAE_clean_linker_10, # of connection points: 2
#     Edge 10, Type (0, 0), BuildingBlock: TEMPAE_clean_linker_10, # of connection points: 2
#     Edge 11, Type (0, 0), BuildingBlock: TEMPAE_clean_linker_10, # of connection points: 2
#     Edge 12, Type (0, 0), BuildingBlock: TEMPAE_clean_linker_10, # of connection points: 2
#     Edge 13, Type (0, 0), BuildingBlock: TEMPAE_clean_linker_10, # of connection points: 2
#     Edge 14, Type (0, 0), BuildingBlock: TEMPAE_clean_linker_10, # of connection points: 2
#     Edge 15, Type (0, 0), BuildingBlock: TEMPAE_clean_linker_10, # of connection points: 2
#     Edge 16, Type (0, 0), BuildingBlock: TEMPAE_clean_linker_10, # of connection points: 2
#     Edge 17, Type (0, 0), BuildingBlock: TEMPAE_clean_linker_10, # of connection points: 2
#     Edge 18, Type (0, 0), BuildingBlock: TEMPAE_clean_linker_10, # of connection points: 2
#     Edge 19, Type (0, 0), BuildingBlock: TEMPAE_clean_linker_10, # of connection points: 2
#     Edge 20, Type (0, 0), BuildingBlock: TEMPAE_clean_linker_10, # of connection points: 2
#     Edge 21, Type (0, 0), BuildingBlock: TEMPAE_clean_linker_10, # of connection points: 2
#     Edge 22, Type (0, 0), BuildingBlock: TEMPAE_clean_linker_10, # of connection points: 2
#     Edge 23, Type (0, 0), BuildingBlock: TEMPAE_clean_linker_10, # of connection points: 2
# Relax obj value: 0.034
# Max RMSD: 0.317
# Mean RMSD: 0.297
data_MOF--net-uoj--node1-KOZSID_clean_sbu_0--edge1-TEMPAE_clean_linker_10
_symmetry_space_group_name_H-M    P1
_symmetry_Int_Tables_number       1
_symmetry_cell_setting            triclinic
loop_
_symmetry_equiv_pos_as_xyz
'x, y, z'
_cell_length_a     38.897924
_cell_length_b     41.074566
_cell_length_c     48.391315
_cell_angle_alpha  89.99212
_cell_angle_beta   90.044095
_cell_angle_gamma 94.287932
loop_
_atom_site_label
_atom_site_type_symbol
_atom_site_fract_x
_atom_site_fract_y
_atom_site_fract_z
_atom_type_partial_charge
C0 C 0.1206 0.30883 0.38177 0.0
C1 C 0.15352 0.32316 0.38624 0.0
C2 C 0.15814 0.32453 0.41429 0.0
C3 C 0.12786 0.31101 0.42535 0.0
N4 N 0.10437 0.30099 0.40618 0.0
Co5 Co 0.05606 0.28277 0.41383 0.0
N6 N 0.06168 0.28634 0.45516 0.0
C7 C 0.09115 0.2962 0.46828 0.0
C8 C 0.08959 0.29164 0.49633 0.0
C9 C 0.05712 0.27782 0.50146 0.0
C10 C 0.04022 0.2752 0.4762 0.0
N11 N 1.00695 0.26696 0.42099 0.0
C12 C 0.98874 0.26518 0.44499 0.0
C13 C 0.95349 0.2611 0.44 0.0
C14 C 0.94945 0.25835 0.4121 0.0
C15 C 0.98222 0.26187 0.40164 0.0
N16 N 0.05053 0.27649 0.37279 0.0
C17 C 0.02154 0.26503 0.35969 0.0
C18 C 0.02504 0.26254 0.33163 0.0
C19 C 0.05829 0.27355 0.32633 0.0
C20 C 0.07327 0.28224 0.35162 0.0
N21 N 0.07232 0.23785 0.41681 0.0
C22 C 0.10933 0.18395 0.43353 0.0
C23 C 0.07738 0.18988 0.44537 0.0
C24 C 0.05912 0.2162 0.43632 0.0
C25 C 0.12002 0.20363 0.41088 0.0
C26 C 0.10124 0.23003 0.40284 0.0
N27 N 0.04159 0.32853 0.41157 0.0
C28 C 0.04268 0.38025 0.38713 0.0
C29 C 0.03463 0.39721 0.41117 0.0
C30 C 0.02751 0.37821 0.43498 0.0
C31 C 0.03044 0.34422 0.43458 0.0
C32 C 0.04624 0.34655 0.3878 0.0
H33 H 0.02444 0.33115 0.4534 0.0
H34 H 0.05362 0.33588 0.36882 0.0
H35 H 0.03511 0.21957 0.44623 0.0
H36 H 0.1113 0.24481 0.38598 0.0
C37 C 0.12032 0.30762 0.45342 0.0
C38 C 0.10679 0.30095 0.35402 0.0
C39 C 1.00377 0.26233 0.47271 0.0
C40 C 0.99067 0.2601 0.3739 0.0
H41 H 0.17236 0.33128 0.37078 0.0
H42 H 0.18088 0.33425 0.42529 0.0
H43 H 0.11005 0.29677 0.51124 0.0
H44 H 0.04764 0.27009 0.52153 0.0
H45 H 0.93291 0.25893 0.45509 0.0
H46 H 0.92551 0.25406 0.40081 0.0
H47 H 1.00528 0.25515 0.31666 0.0
H48 H 0.06942 0.27665 0.30595 0.0
H49 H 0.06696 0.17536 0.46248 0.0
H50 H 0.1433 0.19932 0.39965 0.0
H51 H 0.04673 0.39282 0.36762 0.0
H52 H 0.02072 0.38939 0.45425 0.0
C53 C 0.385 0.96474 0.57276 0.0
C54 C 0.41093 0.95466 0.55575 0.0
C55 C 0.39791 0.92692 0.54285 0.0
C56 C 0.3649 0.92165 0.55258 0.0
N57 N 0.35574 0.94448 0.57058 0.0
Co58 Co 0.3092 0.94635 0.58827 0.0
N59 N 0.29071 0.90525 0.56929 0.0
C60 C 0.30914 0.88513 0.5543 0.0
C61 C 0.29066 0.85721 0.54577 0.0
C62 C 0.25818 0.85978 0.55572 0.0
C63 C 0.2587 0.88942 0.56957 0.0
N64 N 0.26172 0.94927 0.60394 0.0
C65 C 0.23118 0.93223 0.59745 0.0
C66 C 0.2039 0.94455 0.61141 0.0
C67 C 0.21762 0.97003 0.62718 0.0
C68 C 0.2524 0.97199 0.6219 0.0
N69 N 0.32901 0.98562 0.60914 0.0
C70 C 0.3119 1.00291 0.62753 0.0
C71 C 0.33249 0.02685 0.64054 0.0
C72 C 0.36485 0.02446 0.62991 0.0
C73 C 0.36216 0.99914 0.61093 0.0
N74 N 0.29462 0.97453 0.55706 0.0
C75 C 0.26052 0.01953 0.52403 0.0
C76 C 0.28977 0.02954 0.53967 0.0
C77 C 0.30679 1.00675 0.55534 0.0
C78 C 0.2509 0.98601 0.52318 0.0
C79 C 0.26823 0.96414 0.53954 0.0
N80 N 0.32284 0.91957 0.62053 0.0
C81 C 0.30614 0.893 0.66386 0.0
C82 C 0.34018 0.89636 0.67394 0.0
C83 C 0.36557 0.90882 0.65531 0.0
C84 C 0.35648 0.92025 0.62917 0.0
C85 C 0.29826 0.90393 0.63716 0.0
H86 H 0.37716 0.93053 0.61667 0.0
H87 H 0.2718 0.90062 0.63068 0.0
H88 H 0.32921 1.01597 0.5666 0.0
H89 H 0.25897 0.93907 0.53828 0.0
C90 C 0.34281 0.89444 0.54671 0.0
C91 C 0.39136 0.98998 0.59398 0.0
C92 C 0.22731 0.90357 0.57906 0.0
C93 C 0.27675 0.99561 0.63221 0.0
H94 H 0.43718 0.96516 0.55395 0.0
H95 H 0.41135 0.91169 0.52888 0.0
H96 H 0.29945 0.83783 0.53303 0.0
H97 H 0.23621 0.84252 0.55216 0.0
H98 H 0.17695 0.93598 0.61036 0.0
H99 H 0.20377 0.98562 0.64055 0.0
H100 H 0.32493 0.04393 0.65603 0.0
H101 H 0.38776 0.03974 0.63526 0.0
H102 H 0.29928 0.055 0.54012 0.0
H103 H 0.229 0.97673 0.51092 0.0
H104 H 0.28514 0.88312 0.6767 0.0
H105 H 0.39258 0.91044 0.66087 0.0
C106 C 0.9249 0.71886 0.3843 0.0
C107 C 0.89881 0.69448 0.38868 0.0
C108 C 0.90285 0.68324 0.41506 0.0
C109 C 0.93098 0.70138 0.42545 0.0
N110 N 0.94453 0.72398 0.40751 0.0
Co111 Co 0.98779 0.75235 0.414 0.0
N112 N 0.98846 0.74257 0.45447 0.0
C113 C 0.96949 0.71823 0.46711 0.0
C114 C 0.97523 0.71731 0.49513 0.0
C115 C 0.99946 0.74261 0.50046 0.0
C116 C 1.0072 0.75762 0.47535 0.0
N117 N 0.0318 0.77971 0.42007 0.0
C118 C 0.04712 0.79117 0.44372 0.0
C119 C 0.07786 0.80948 0.43819 0.0
C120 C 0.08199 0.80944 0.4102 0.0
C121 C 0.05369 0.79127 0.40022 0.0
N122 N 0.98716 0.76348 0.3737 0.0
C123 C 1.01352 0.77862 0.35947 0.0
C124 C 1.00663 0.78285 0.33204 0.0
C125 C 0.97403 0.76897 0.32833 0.0
C126 C 0.96272 0.75689 0.35389 0.0
N127 N 0.96055 0.78996 0.42255 0.0
C128 C 0.92317 0.84238 0.44125 0.0
C129 C 0.95196 0.84784 0.42371 0.0
C130 C 0.97027 0.82132 0.41459 0.0
C131 C 0.91301 0.80996 0.44805 0.0
C132 C 0.93184 0.78453 0.43873 0.0
N133 N 1.01368 0.71331 0.40651 0.0
C134 C 1.0131 0.6615 0.38264 0.0
C135 C 0.02878 0.6468 0.40515 0.0
C136 C 0.04074 0.66772 0.42675 0.0
C137 C 0.03379 0.7009 0.42662 0.0
C138 C 1.00566 0.69432 0.3838 0.0
H139 H 0.04259 0.71577 0.44395 0.0
H140 H 0.99125 0.70328 0.3669 0.0
H141 H 0.99263 0.82627 0.40165 0.0
H142 H 0.92332 0.76041 0.44546 0.0
C143 C 0.94401 0.69949 0.45242 0.0
C144 C 0.9318 0.73428 0.35708 0.0
C145 C 0.03427 0.78441 0.47174 0.0
C146 C 0.04391 0.78974 0.37264 0.0
H147 H 0.87946 0.68516 0.37403 0.0
H148 H 0.88714 0.66408 0.4254 0.0
H149 H 0.96271 0.70072 0.51002 0.0
H150 H 1.01048 0.74909 0.52044 0.0
H151 H 0.0954 0.82185 0.45281 0.0
H152 H 0.10234 0.82244 0.39846 0.0
H153 H 0.0235 0.79425 0.31647 0.0
H154 H 0.96106 0.76657 0.3086 0.0
H155 H 0.96092 0.87241 0.4177 0.0
H156 H 0.89056 0.80404 0.46082 0.0
H157 H 1.00519 0.64757 0.36445 0.0
H158 H 0.05378 0.65847 0.44452 0.0
C159 C 0.65493 0.06943 0.57216 0.0
C160 C 0.62935 0.07474 0.553 0.0
C161 C 0.64213 0.09954 0.53641 0.0
C162 C 0.67455 0.10791 0.54639 0.0
N163 N 0.68356 0.09009 0.56819 0.0
Co164 Co 0.72981 0.09334 0.58714 0.0
N165 N 0.74671 0.13274 0.56479 0.0
C166 C 0.72883 0.14634 0.54446 0.0
C167 C 0.74664 0.17144 0.53103 0.0
C168 C 0.77817 0.17404 0.54321 0.0
C169 C 0.77781 0.15065 0.56413 0.0
N170 N 0.77687 0.09544 0.60457 0.0
C171 C 0.80599 0.11548 0.5996 0.0
C172 C 0.83258 0.10798 0.61708 0.0
C173 C 0.8203 0.08204 0.63285 0.0
C174 C 0.78683 0.0753 0.62451 0.0
N175 N 0.71176 0.05517 0.6103 0.0
C176 C 0.72967 0.04025 0.62973 0.0
C177 C 0.71022 1.0166 0.64405 0.0
C178 C 0.67769 1.01664 0.63318 0.0
C179 C 0.67917 0.04038 0.61281 0.0
N180 N 0.74738 0.06322 0.55882 0.0
C181 C 0.78132 1.01638 0.52764 0.0
C182 C 0.74923 1.00834 0.54029 0.0
C183 C 0.73264 0.03204 0.55542 0.0
C184 C 0.79432 0.04904 0.52922 0.0
C185 C 0.77727 0.07167 0.54469 0.0
N186 N 0.71311 0.12246 0.61683 0.0
C187 C 0.7275 0.15232 0.65914 0.0
C188 C 0.69383 0.1464 0.66954 0.0
C189 C 0.66933 0.1316 0.65119 0.0
C190 C 0.67937 0.12 0.6253 0.0
C191 C 0.73618 0.14115 0.63274 0.0
H192 H 0.65946 0.10824 0.61288 0.0
H193 H 0.7622 0.14677 0.62603 0.0
H194 H 0.70845 0.02454 0.56509 0.0
H195 H 0.7896 0.09565 0.54566 0.0
C196 C 0.69638 0.13344 0.53679 0.0
C197 C 0.6493 0.04722 0.59563 0.0
C198 C 0.80906 0.14305 0.57974 0.0
C199 C 0.76396 0.05064 0.6351 0.0
H200 H 0.60371 0.06267 0.55164 0.0
H201 H 0.62903 0.11072 0.51954 0.0
H202 H 0.73833 0.18507 0.5134 0.0
H203 H 0.79926 0.19012 0.53569 0.0
H204 H 0.85808 0.1203 0.61863 0.0
H205 H 0.83408 0.06976 0.64873 0.0
H206 H 0.71851 1.00157 0.6608 0.0
H207 H 0.65539 1.00107 0.63947 0.0
H208 H 0.73751 0.98361 0.5395 0.0
H209 H 0.81815 0.05724 0.51897 0.0
H210 H 0.74781 0.16435 0.67152 0.0
H211 H 0.64238 0.12821 0.65678 0.0
C212 C 0.40867 0.76206 0.97288 0.0
C213 C 0.38089 0.75815 0.99091 0.0
C214 C 0.38045 0.78644 1.00555 0.0
C215 C 0.40777 0.80599 0.99565 0.0
N216 N 0.42552 0.79222 0.97542 0.0
Co217 Co 0.46621 0.81351 0.95496 0.0
N218 N 0.46374 0.85581 0.97567 0.0
C219 C 0.44309 0.8607 0.99738 0.0
C220 C 0.44758 0.89138 1.00853 0.0
C221 C 0.47261 0.90733 0.99289 0.0
C222 C 0.48205 0.88532 0.97301 0.0
N223 N 0.50542 0.8361 0.93364 0.0
C224 C 0.51727 0.86839 0.93252 0.0
C225 C 0.54344 0.87342 0.91328 0.0
C226 C 0.54822 0.84354 0.90186 0.0
C227 C 0.5247 0.82194 0.91468 0.0
N228 N 0.46988 0.77057 0.93572 0.0
C229 C 0.49435 0.76412 0.91731 0.0
C230 C 0.49229 0.73211 0.90884 0.0
C231 C 0.46486 0.71721 0.9229 0.0
C232 C 0.45169 0.74101 0.93923 0.0
N233 N 0.43435 0.8275 0.92526 0.0
C234 C 0.40517 0.84353 0.87362 0.0
C235 C 0.40165 0.81165 0.88398 0.0
C236 C 0.41549 0.80441 0.90988 0.0
C237 C 0.42043 0.86781 0.89098 0.0
C238 C 0.43456 0.85934 0.91657 0.0
N239 N 0.49915 0.798 0.98331 0.0
C240 C 0.55784 0.79785 1.00105 0.0
C241 C 0.55133 0.76653 1.01268 0.0
C242 C 0.5174 0.7526 1.01069 0.0
C243 C 0.49214 0.76849 0.99627 0.0
C244 C 0.53151 0.81323 0.98694 0.0
H245 H 0.46738 0.75552 0.9948 0.0
H246 H 0.53798 0.83704 0.97827 0.0
H247 H 0.41168 0.77963 0.91665 0.0
H248 H 0.44647 0.87882 0.92857 0.0
C249 C 0.41771 0.83706 1.00523 0.0
C250 C 0.42067 0.73497 0.9566 0.0
C251 C 0.50563 0.89473 0.95024 0.0
C252 C 0.51855 0.78878 0.90847 0.0
H253 H 0.36352 0.73662 0.994 0.0
H254 H 0.36274 0.79189 0.02186 0.0
H255 H 0.43345 0.90133 0.02543 0.0
H256 H 0.48194 0.93264 0.99531 0.0
H257 H 0.55768 0.8963 0.90823 0.0
H258 H 0.56633 0.8383 0.88578 0.0
H259 H 0.50875 0.72092 0.89414 0.0
H260 H 0.45537 0.69184 0.92117 0.0
H261 H 0.38871 0.79217 0.87192 0.0
H262 H 0.42295 0.89305 0.88432 0.0
H263 H 0.58325 0.8104 1.00256 0.0
H264 H 0.51048 0.72858 0.01912 0.0
C265 C 0.74128 0.59805 0.09945 0.0
C266 C 0.71115 0.58313 0.11038 0.0
C267 C 0.71861 0.55253 0.11886 0.0
C268 C 0.75284 0.55035 0.11275 0.0
N269 N 0.76763 0.5779 0.10143 0.0
Co270 Co 0.81592 0.58276 0.08711 0.0
N271 N 0.82997 0.543 0.10666 0.0
C272 C 0.80806 0.51948 0.11741 0.0
C273 C 0.82479 0.49482 0.12952 0.0
C274 C 0.85941 0.50328 0.126 0.0
C275 C 0.86198 0.53272 0.1119 0.0
N276 N 0.86394 0.58755 0.07224 0.0
C277 C 0.89299 0.5736 0.08025 0.0
C278 C 0.92084 0.58389 0.06366 0.0
C279 C 0.90893 0.60497 0.04469 0.0
C280 C 0.87463 0.60638 0.05068 0.0
N281 N 0.8028 0.62292 0.06749 0.0
C282 C 0.82113 0.63842 0.04713 0.0
C283 C 0.80612 0.66493 0.03671 0.0
C284 C 0.77602 0.66613 0.05099 0.0
C285 C 0.77426 0.64009 0.06943 0.0
N286 N 0.83025 0.60883 0.12019 0.0
C287 C 0.85039 0.64205 0.16981 0.0
C288 C 0.8615 0.65411 0.14369 0.0
C289 C 0.85116 0.63716 0.11918 0.0
C290 C 0.82923 0.61292 0.17006 0.0
C291 C 0.81939 0.59716 0.14545 0.0
N292 N 0.80014 0.55505 0.05507 0.0
C293 C 0.75128 0.53484 0.02716 0.0
C294 C 0.76528 0.50465 0.0232 0.0
C295 C 0.79885 0.50172 0.03339 0.0
C296 C 0.81591 0.52722 0.04883 0.0
C297 C 0.76907 0.55956 0.04278 0.0
H298 H 0.84104 0.52346 0.05717 0.0
H299 H 0.75621 0.58141 0.04644 0.0
H300 H 0.86012 0.64686 0.09951 0.0
H301 H 0.80315 0.57498 0.14718 0.0
C302 C 0.77263 0.52397 0.119 0.0
C303 C 0.74286 0.63001 0.08511 0.0
C304 C 0.89497 0.54916 0.1022 0.0
C305 C 0.85348 0.62897 0.03972 0.0
H306 H 0.68616 0.59302 0.11142 0.0
H307 H 0.70111 0.5341 0.12838 0.0
H308 H 0.81328 0.47367 0.14035 0.0
H309 H 0.88035 0.48931 0.13283 0.0
H310 H 0.94707 0.57689 0.06506 0.0
H311 H 0.92384 0.61866 0.02912 0.0
H312 H 0.81589 0.68143 0.02062 0.0
H313 H 0.75694 0.68351 0.04736 0.0
H314 H 0.87779 0.67657 0.1421 0.0
H315 H 0.82056 0.60165 0.1893 0.0
H316 H 0.7257 0.53888 0.01972 0.0
H317 H 0.8116 0.4795 0.03015 0.0
C318 C 0.63134 0.2769 0.97086 0.0
C319 C 0.65952 0.28074 0.98855 0.0
C320 C 0.66043 0.2523 1.00292 0.0
C321 C 0.63299 0.23274 0.99323 0.0
N322 N 0.6147 0.24664 0.97337 0.0
Co323 Co 0.57366 0.22538 0.95327 0.0
N324 N 0.57675 0.18294 0.97368 0.0
C325 C 0.59791 0.17793 0.99507 0.0
C326 C 0.59369 0.1472 1.00615 0.0
C327 C 0.56829 0.13133 0.99078 0.0
C328 C 0.55842 0.15343 0.97114 0.0
N329 N 0.5341 0.2028 0.93229 0.0
C330 C 0.52229 0.1705 0.93119 0.0
C331 C 0.49577 0.1655 0.91222 0.0
C332 C 0.49074 0.19542 0.90095 0.0
C333 C 0.51446 0.21701 0.91359 0.0
N334 N 0.56943 0.26845 0.93439 0.0
C335 C 0.54461 0.27493 0.91627 0.0
C336 C 0.54635 0.30702 0.908 0.0
C337 C 0.57394 0.32193 0.92191 0.0
C338 C 0.58752 0.29807 0.93794 0.0
N339 N 0.60492 0.21174 0.92305 0.0
C340 C 0.63227 0.19623 0.87065 0.0
C341 C 0.63599 0.22804 0.88114 0.0
C342 C 0.62312 0.23502 0.90743 0.0
C343 C 0.61785 0.17175 0.8882 0.0
C344 C 0.60459 0.17996 0.91417 0.0
N345 N 0.54119 0.24052 0.9821 0.0
C346 C 0.48264 0.24045 1.00006 0.0
C347 C 0.48911 0.27179 1.01164 0.0
C348 C 0.52301 0.28579 1.00963 0.0
C349 C 0.54825 0.26998 0.99514 0.0
C350 C 0.50893 0.22517 0.98588 0.0
H351 H 0.573 0.28297 0.99362 0.0
H352 H 0.50247 0.20134 0.97723 0.0
H353 H 0.62704 0.25976 0.9143 0.0
H354 H 0.59318 0.16036 0.92629 0.0
C355 C 0.62339 0.20157 1.00272 0.0
C356 C 0.61883 0.30411 0.95503 0.0
C357 C 0.53433 0.14411 0.94868 0.0
C358 C 0.52038 0.25023 0.90751 0.0
H359 H 0.67684 0.30231 0.99161 0.0
H360 H 0.67853 0.24677 0.01895 0.0
H361 H 0.60818 0.13717 0.02281 0.0
H362 H 0.55897 0.10601 0.99322 0.0
H363 H 0.48149 0.14263 0.90723 0.0
H364 H 0.47232 0.2007 0.8851 0.0
H365 H 0.52959 0.31825 0.89355 0.0
H366 H 0.58326 0.34735 0.92027 0.0
H367 H 0.64833 0.24766 0.86889 0.0
H368 H 0.61527 0.14655 0.88143 0.0
H369 H 0.45727 0.22783 1.00163 0.0
H370 H 0.52991 0.30981 0.01808 0.0
C371 C 0.29845 0.43937 0.09822 0.0
C372 C 0.32856 0.45417 0.10932 0.0
C373 C 0.32107 0.48464 0.11809 0.0
C374 C 0.28683 0.48686 0.11197 0.0
N375 N 0.27206 0.45945 0.10037 0.0
Co376 Co 0.22374 0.45472 0.086 0.0
N377 N 0.20963 0.4941 0.10605 0.0
C378 C 0.23151 0.51741 0.11717 0.0
C379 C 0.21475 0.54188 0.12953 0.0
C380 C 0.18015 0.53351 0.12579 0.0
C381 C 0.17761 0.5043 0.11135 0.0
N382 N 0.17572 0.45014 0.07101 0.0
C383 C 0.14664 0.46396 0.0791 0.0
C384 C 0.11868 0.4534 0.06269 0.0
C385 C 0.13061 0.43251 0.0436 0.0
C386 C 0.16499 0.43135 0.04942 0.0
N387 N 0.23696 0.41488 0.06597 0.0
C388 C 0.21862 0.39954 0.04553 0.0
C389 C 0.23367 0.37318 0.0349 0.0
C390 C 0.26381 0.37188 0.04916 0.0
C391 C 0.26553 0.39772 0.06779 0.0
N392 N 0.20942 0.42812 0.11874 0.0
C393 C 0.18885 0.39432 0.16786 0.0
C394 C 0.17697 0.38319 0.14169 0.0
C395 C 0.18766 0.40035 0.1174 0.0
C396 C 0.21105 0.42274 0.16849 0.0
C397 C 0.22094 0.43893 0.1441 0.0
N398 N 0.23947 0.48293 0.05429 0.0
C399 C 0.2882 0.50353 0.0265 0.0
C400 C 0.27415 0.53375 0.02285 0.0
C401 C 0.24062 0.53653 0.03313 0.0
C402 C 0.22364 0.51082 0.04836 0.0
C403 C 0.27049 0.4786 0.04191 0.0
H404 H 0.19854 0.51445 0.05678 0.0
H405 H 0.28339 0.45672 0.04535 0.0
H406 H 0.17821 0.39132 0.09765 0.0
H407 H 0.23768 0.46076 0.14609 0.0
C408 C 0.26696 0.51302 0.11863 0.0
C409 C 0.2969 0.40759 0.08363 0.0
C410 C 0.14464 0.48833 0.10113 0.0
C411 C 0.18619 0.40893 0.03829 0.0
H412 H 0.35356 0.44429 0.1103 0.0
H413 H 0.33852 0.50293 0.12784 0.0
H414 H 0.22623 0.56288 0.14057 0.0
H415 H 0.15919 0.54743 0.13261 0.0
H416 H 0.09233 0.45997 0.06435 0.0
H417 H 0.11564 0.4187 0.02813 0.0
H418 H 0.22388 0.3568 0.01873 0.0
H419 H 0.28291 0.35455 0.04543 0.0
H420 H 0.15983 0.36129 0.13992 0.0
H421 H 0.2204 0.4331 0.18791 0.0
H422 H 0.31376 0.49961 0.01897 0.0
H423 H 0.22784 0.55879 0.03012 0.0
C424 C 0.20204 0.37644 0.21658 0.0
C425 C 0.17834 0.37747 0.19462 0.0
C426 C 0.1922 0.36388 0.24277 0.0
C427 C 0.15776 0.35142 0.24744 0.0
C428 C 0.13389 0.35132 0.22518 0.0
C429 C 0.14439 0.36433 0.19916 0.0
C430 C 0.21866 0.36455 0.26565 0.0
C431 C 0.09699 0.33805 0.22902 0.0
C432 C 0.13821 0.29406 0.30902 0.0
C433 C 0.124 0.31473 0.3283 0.0
C434 C 0.14944 0.30563 0.28282 0.0
C435 C 0.14673 0.33886 0.27565 0.0
C436 C 0.13346 0.36006 0.29553 0.0
C437 C 0.12219 0.34774 0.32151 0.0
C438 C 0.16326 0.28202 0.26249 0.0
C439 C 0.13041 0.39568 0.28913 0.0
H440 H 0.22854 0.38575 0.2134 0.0
H441 H 0.12567 0.3651 0.18263 0.0
H442 H 0.21023 0.37956 0.28309 0.0
H443 H 0.22099 0.33952 0.27369 0.0
H444 H 0.24449 0.37469 0.2587 0.0
H445 H 0.08193 0.33833 0.20951 0.0
H446 H 0.09614 0.31262 0.23686 0.0
H447 H 0.08431 0.35279 0.2447 0.0
H448 H 0.13932 0.26845 0.31412 0.0
H449 H 0.11088 0.36371 0.33625 0.0
H450 H 0.18941 0.29108 0.25554 0.0
H451 H 0.1465 0.28017 0.2439 0.0
H452 H 0.16461 0.25723 0.27141 0.0
H453 H 0.15587 0.40736 0.2829 0.0
H454 H 0.12074 0.40922 0.30705 0.0
H455 H 0.11255 0.39804 0.27148 0.0
C456 C 0.32884 0.86455 0.71891 0.0
C457 C 0.34918 0.88791 0.70351 0.0
C458 C 0.33656 0.85746 0.74674 0.0
C459 C 0.366 0.87323 0.75969 0.0
C460 C 0.38693 0.89642 0.74431 0.0
C461 C 0.37802 0.90382 0.71685 0.0
C462 C 0.31303 0.83304 0.76235 0.0
C463 C 0.41897 0.91345 0.75685 0.0
C464 C 0.37419 0.87715 0.83885 0.0
C465 C 0.39428 0.85094 0.84462 0.0
C466 C 0.36417 0.88421 0.81152 0.0
C467 C 0.37525 0.86524 0.78913 0.0
C468 C 0.39585 0.83896 0.79488 0.0
C469 C 0.40468 0.83193 0.82243 0.0
C470 C 0.34154 0.91193 0.80663 0.0
C471 C 0.40919 0.81859 0.77184 0.0
H472 H 0.30685 0.85143 0.70927 0.0
H473 H 0.39371 0.92258 0.70603 0.0
H474 H 0.32732 0.81176 0.76837 0.0
H475 H 0.30407 0.84421 0.78168 0.0
H476 H 0.29015 0.82415 0.74999 0.0
H477 H 0.43346 0.92972 0.74187 0.0
H478 H 0.41195 0.92826 0.77486 0.0
H479 H 0.43629 0.89514 0.7645 0.0
H480 H 0.36585 0.89188 0.85581 0.0
H481 H 0.42058 0.8119 0.82659 0.0
H482 H 0.31799 0.90293 0.79517 0.0
H483 H 0.35536 0.93094 0.79366 0.0
H484 H 0.33373 0.92337 0.82622 0.0
H485 H 0.38735 0.80687 0.75983 0.0
H486 H 0.42519 0.79925 0.77963 0.0
H487 H 0.42495 0.83447 0.75738 0.0
C488 C 0.92076 0.68842 0.32264 0.0
C489 C 0.9148 0.72015 0.33124 0.0
C490 C 0.90941 0.67639 0.29658 0.0
C491 C 0.89222 0.69672 0.27821 0.0
C492 C 0.8856 0.72861 0.28707 0.0
C493 C 0.89661 0.73975 0.31349 0.0
C494 C 0.91643 0.64203 0.28851 0.0
C495 C 0.8679 0.75142 0.26825 0.0
C496 C 0.89344 0.67474 0.20085 0.0
C497 C 0.86058 0.65867 0.19685 0.0
C498 C 0.90378 0.68782 0.22691 0.0
C499 C 0.88104 0.68453 0.24988 0.0
C500 C 0.84767 0.66901 0.24584 0.0
C501 C 0.83778 0.6568 0.21954 0.0
C502 C 0.93938 0.70469 0.22998 0.0
C503 C 0.82251 0.66459 0.26954 0.0
H504 H 0.93522 0.67329 0.33606 0.0
H505 H 0.89232 0.76442 0.31988 0.0
H506 H 0.89204 0.62813 0.28241 0.0
H507 H 0.93384 0.6426 0.27035 0.0
H508 H 0.92849 0.62876 0.30555 0.0
H509 H 0.86424 0.77526 0.27825 0.0
H510 H 0.88341 0.7559 0.24921 0.0
H511 H 0.84235 0.74013 0.26183 0.0
H512 H 0.91154 0.67635 0.18382 0.0
H513 H 0.81195 0.64546 0.2169 0.0
H514 H 0.95486 0.69063 0.24434 0.0
H515 H 0.93771 0.72932 0.23908 0.0
H516 H 0.95319 0.70725 0.20992 0.0
H517 H 0.83377 0.65016 0.28621 0.0
H518 H 0.79753 0.65193 0.26313 0.0
H519 H 0.81749 0.68865 0.27844 0.0
C520 C 0.62977 0.20757 0.8195 0.0
C521 C 0.64206 0.1891 0.84135 0.0
C522 C 0.63769 0.20087 0.7917 0.0
C523 C 0.65933 0.17558 0.78532 0.0
C524 C 0.67223 0.15714 0.80736 0.0
C525 C 0.66304 0.16376 0.83497 0.0
C526 C 0.62237 0.22056 0.76909 0.0
C527 C 0.69606 0.13054 0.80181 0.0
C528 C 0.65678 0.1374 0.7128 0.0
C529 C 0.68452 0.15468 0.69912 0.0
C530 C 0.64806 0.14427 0.74042 0.0
C531 C 0.66813 0.1683 0.75563 0.0
C532 C 0.69638 0.18556 0.7423 0.0
C533 C 0.70381 0.17902 0.71432 0.0
C534 C 0.61718 0.1257 0.75335 0.0
C535 C 0.71904 0.21093 0.75769 0.0
H536 H 0.61319 0.22692 0.82416 0.0
H537 H 0.67278 0.14945 0.85167 0.0
H538 H 0.64319 0.23353 0.7568 0.0
H539 H 0.60712 0.20404 0.75476 0.0
H540 H 0.60538 0.23884 0.77734 0.0
H541 H 0.70504 0.11932 0.82115 0.0
H542 H 0.68273 0.11113 0.78894 0.0
H543 H 0.71888 0.14061 0.78999 0.0
H544 H 0.64188 0.11793 0.70217 0.0
H545 H 0.72484 0.19332 0.70448 0.0
H546 H 0.59919 0.14303 0.76164 0.0
H547 H 0.62553 0.11093 0.77097 0.0
H548 H 0.60296 0.10914 0.73841 0.0
H549 H 0.70371 0.23134 0.76411 0.0
H550 H 0.74114 0.221 0.74501 0.0
H551 H 0.7292 0.20011 0.77677 0.0
C552 C 0.23047 0.07203 0.5234 0.0
C553 C 0.23956 0.04382 0.5096 0.0
C554 C 0.20933 0.09431 0.51081 0.0
C555 C 0.19728 0.08883 0.48338 0.0
C556 C 0.20688 0.06067 0.46916 0.0
C557 C 0.22746 0.03842 0.48248 0.0
C558 C 0.19939 0.12349 0.5271 0.0
C559 C 0.19546 0.05406 0.43975 0.0
C560 C 0.11734 0.13052 0.45897 0.0
C561 C 0.13174 0.15856 0.44521 0.0
C562 C 0.13819 0.10782 0.47138 0.0
C563 C 0.17464 0.11251 0.4697 0.0
C564 C 0.18941 0.14022 0.45536 0.0
C565 C 0.168 0.1629 0.44367 0.0
C566 C 0.12112 0.07896 0.48669 0.0
C567 C 0.22802 0.1462 0.45262 0.0
H568 H 0.23919 0.07629 0.54447 0.0
H569 H 0.23445 1.01689 0.4715 0.0
H570 H 0.2083 0.14636 0.51625 0.0
H571 H 0.17089 0.12304 0.52871 0.0
H572 H 0.21047 0.12418 0.54828 0.0
H573 H 0.20584 0.03169 0.43122 0.0
H574 H 0.16691 0.05124 0.43869 0.0
H575 H 0.20407 0.0751 0.42643 0.0
H576 H 0.0896 0.12609 0.46009 0.0
H577 H 0.17996 0.18452 0.4338 0.0
H578 H 0.13004 0.07927 0.50849 0.0
H579 H 0.12861 0.05589 0.47733 0.0
H580 H 0.09255 0.07884 0.48649 0.0
H581 H 0.23979 0.15028 0.47333 0.0
H582 H 0.23554 0.16769 0.43943 0.0
H583 H 0.23904 0.12442 0.44362 0.0
C584 C 0.18781 0.89112 0.53855 0.0
C585 C 0.19308 0.8904 0.56726 0.0
C586 C 0.1591 0.874 0.52602 0.0
C587 C 0.13443 0.85571 0.5425 0.0
C588 C 0.13882 0.85604 0.57167 0.0
C589 C 0.16817 0.8731 0.58365 0.0
C590 C 0.15603 0.87438 0.49492 0.0
C591 C 0.11311 0.83744 0.59018 0.0
C592 C 0.04971 0.83094 0.5045 0.0
C593 C 0.05505 0.79926 0.49546 0.0
C594 C 0.07417 0.84881 0.52132 0.0
C595 C 0.10531 0.83509 0.52883 0.0
C596 C 0.10998 0.80246 0.52072 0.0
C597 C 0.08482 0.78498 0.50431 0.0
C598 C 0.06755 0.88315 0.5297 0.0
C599 C 0.14273 0.78674 0.52772 0.0
H600 H 0.20707 0.9041 0.52568 0.0
H601 H 0.17228 0.87189 0.60577 0.0
H602 H 0.15756 0.8493 0.48673 0.0
H603 H 0.13063 0.88261 0.48871 0.0
H604 H 0.17661 0.89064 0.48508 0.0
H605 H 0.11807 0.84276 0.61239 0.0
H606 H 0.08654 0.84352 0.58503 0.0
H607 H 0.11433 0.81084 0.58677 0.0
H608 H 0.02715 0.84237 0.49724 0.0
H609 H 0.0895 0.76084 0.4968 0.0
H610 H 0.08477 0.90077 0.51783 0.0
H611 H 0.07341 0.88709 0.55195 0.0
H612 H 0.04043 0.88861 0.52578 0.0
H613 H 0.1647 0.79952 0.51656 0.0
H614 H 0.14132 0.76048 0.522 0.0
H615 H 0.1483 0.78902 0.55015 0.0
C616 C 0.83823 0.99369 0.51558 0.0
C617 C 0.80197 0.99128 0.51378 0.0
C618 C 0.85832 0.97079 0.50282 0.0
C619 C 0.84208 0.94419 0.48794 0.0
C620 C 0.80554 0.94144 0.48601 0.0
C621 C 0.78601 0.9649 0.49886 0.0
C622 C 0.89707 0.97485 0.50565 0.0
C623 C 0.78701 0.91345 0.47056 0.0
C624 C 0.89633 0.89691 0.43741 0.0
C625 C 0.90381 0.86958 0.45318 0.0
C626 C 0.87628 0.92128 0.44831 0.0
C627 C 0.8633 0.91847 0.47572 0.0
C628 C 0.87127 0.89123 0.49183 0.0
C629 C 0.89141 0.86742 0.48051 0.0
C630 C 0.86874 0.94995 0.43041 0.0
C631 C 0.85839 0.88709 0.52115 0.0
H632 H 0.85114 1.01331 0.5275 0.0
H633 H 0.75819 0.96269 0.49696 0.0
H634 H 0.90631 0.95386 0.5172 0.0
H635 H 0.90931 0.97506 0.48495 0.0
H636 H 0.90592 0.99771 0.51663 0.0
H637 H 0.75864 0.9151 0.47026 0.0
H638 H 0.79645 0.91293 0.44894 0.0
H639 H 0.79264 0.88997 0.48029 0.0
H640 H 0.90547 0.89892 0.41629 0.0
H641 H 0.89753 0.84695 0.49326 0.0
H642 H 0.87828 0.97308 0.44062 0.0
H643 H 0.84047 0.95071 0.42775 0.0
H644 H 0.88084 0.94886 0.40967 0.0
H645 H 0.86836 0.90817 0.5339 0.0
H646 H 0.86636 0.86433 0.53086 0.0
H647 H 0.82983 0.88657 0.52151 0.0
C648 C 0.8722 0.14282 0.56522 0.0
C649 C 0.84385 0.16034 0.57242 0.0
C650 C 0.90295 0.15867 0.55462 0.0
C651 C 0.90441 0.19256 0.54788 0.0
C652 C 0.87608 0.21042 0.55609 0.0
C653 C 0.84778 0.19449 0.57012 0.0
C654 C 0.93319 0.13829 0.5503 0.0
C655 C 0.87383 0.24601 0.54898 0.0
C656 C 0.9783 0.25289 0.52142 0.0
C657 C 0.98305 0.24213 0.49421 0.0
C658 C 0.95555 0.23529 0.53991 0.0
C659 C 0.93344 0.20838 0.53023 0.0
C660 C 0.93805 0.19778 0.50256 0.0
C661 C 0.96423 0.21316 0.48598 0.0
C662 C 0.95538 0.2465 0.56958 0.0
C663 C 0.91462 0.17122 0.48926 0.0
H664 H 0.8703 0.11648 0.56739 0.0
H665 H 0.82693 0.20865 0.57695 0.0
H666 H 0.92691 0.12003 0.53381 0.0
H667 H 0.95736 0.15298 0.54496 0.0
H668 H 0.93776 0.12431 0.56943 0.0
H669 H 0.8829 0.26118 0.56688 0.0
H670 H 0.88924 0.25365 0.53051 0.0
H671 H 0.84667 0.25133 0.54501 0.0
H672 H 0.99156 0.27554 0.52831 0.0
H673 H 0.96804 0.20377 0.46535 0.0
H674 H 0.94075 0.22904 0.58347 0.0
H675 H 0.94439 0.27063 0.57073 0.0
H676 H 0.98229 0.2501 0.57731 0.0
H677 H 0.92683 0.14774 0.49058 0.0
H678 H 0.91101 0.17639 0.46694 0.0
H679 H 0.88876 0.16839 0.49897 0.0
C680 C 0.29325 0.59424 0.02025 0.0
C681 C 0.29511 0.56238 1.00993 0.0
C682 C 0.31436 0.62095 1.00976 0.0
C683 C 0.33825 0.61613 0.98824 0.0
C684 C 0.33991 0.58419 0.97739 0.0
C685 C 0.3185 0.55789 0.98828 0.0
C686 C 0.31153 0.65437 0.02213 0.0
C687 C 0.36465 0.57769 0.95438 0.0
C688 C 0.37151 0.69266 0.94769 0.0
C689 C 0.40308 0.70141 0.96074 0.0
C690 C 0.35083 0.66444 0.95566 0.0
C691 C 0.36167 0.64444 0.97748 0.0
C692 C 0.39423 0.65266 0.99 0.0
C693 C 0.41441 0.68098 0.98155 0.0
C694 C 0.31656 0.65689 0.94156 0.0
C695 C 0.4071 0.63235 0.01327 0.0
H696 H 0.27591 0.59828 0.03721 0.0
H697 H 0.32012 0.53369 0.97971 0.0
H698 H 0.33654 0.66324 0.0315 0.0
H699 H 0.30563 0.67201 1.00574 0.0
H700 H 0.29121 0.6544 0.03825 0.0
H701 H 0.3625 0.55173 0.94775 0.0
H702 H 0.35974 0.59325 0.93627 0.0
H703 H 0.39151 0.5842 0.96123 0.0
H704 H 0.36229 0.70875 0.93202 0.0
H705 H 0.43841 0.68803 0.99212 0.0
H706 H 0.29539 0.66004 0.95644 0.0
H707 H 0.31407 0.63112 0.93453 0.0
H708 H 0.31311 0.67301 0.92348 0.0
H709 H 0.39002 0.63399 0.0315 0.0
H710 H 0.43387 0.64048 0.01951 0.0
H711 H 0.40628 0.60629 1.00712 0.0
C712 C 0.70737 0.67903 0.09016 0.0
C713 C 0.71082 0.64773 0.0793 0.0
C714 C 0.68114 0.69861 0.08094 0.0
C715 C 0.65765 0.68696 0.06003 0.0
C716 C 0.66055 0.65493 0.04955 0.0
C717 C 0.68697 0.63586 0.05922 0.0
C718 C 0.67933 0.73231 0.09297 0.0
C719 C 0.63646 0.64118 0.02731 0.0
C720 C 0.57221 0.7273 0.0489 0.0
C721 C 0.57934 0.74781 0.02591 0.0
C722 C 0.59728 0.70786 0.06028 0.0
C723 C 0.63078 0.70847 0.04859 0.0
C724 C 0.63839 0.72948 0.0257 0.0
C725 C 0.61284 0.74879 0.01478 0.0
C726 C 0.58773 0.68633 0.08478 0.0
C727 C 0.6735 0.7311 1.01231 0.0
H728 H 0.72609 0.6887 0.10522 0.0
H729 H 0.68989 0.61204 0.05023 0.0
H730 H 0.68507 0.7509 0.07665 0.0
H731 H 0.65291 0.73551 0.10062 0.0
H732 H 0.69785 0.73709 0.11024 0.0
H733 H 0.64085 0.61545 0.02222 0.0
H734 H 0.60928 0.64238 0.03392 0.0
H735 H 0.64007 0.6561 1.00827 0.0
H736 H 0.54682 0.72642 0.05817 0.0
H737 H 0.61891 0.76401 0.99689 0.0
H738 H 0.60572 0.69234 0.10216 0.0
H739 H 0.59023 0.66039 0.07929 0.0
H740 H 0.56097 0.68899 0.09196 0.0
H741 H 0.69375 0.73785 0.02787 0.0
H742 H 0.67583 0.74906 0.99512 0.0
H743 H 0.67864 0.70671 1.0041 0.0
C744 C 0.74618 0.44415 0.01995 0.0
C745 C 0.74424 0.47619 1.01002 0.0
C746 C 0.72504 0.4176 1.0092 0.0
C747 C 0.70102 0.42273 0.98781 0.0
C748 C 0.69926 0.45485 0.97736 0.0
C749 C 0.72071 0.48099 0.9885 0.0
C750 C 0.728 0.38397 0.02116 0.0
C751 C 0.6744 0.46169 0.95451 0.0
C752 C 0.66771 0.34683 0.94637 0.0
C753 C 0.63623 0.33774 0.95941 0.0
C754 C 0.68837 0.37495 0.95465 0.0
C755 C 0.67759 0.39455 0.97676 0.0
C756 C 0.6451 0.38602 0.98926 0.0
C757 C 0.62495 0.35779 0.98051 0.0
C758 C 0.72256 0.38281 0.94055 0.0
C759 C 0.63229 0.40589 1.01281 0.0
H760 H 0.76363 0.43986 0.0368 0.0
H761 H 0.71902 0.50532 0.98022 0.0
H762 H 0.70304 0.37491 0.03049 0.0
H763 H 0.73385 0.36663 1.00454 0.0
H764 H 0.74839 0.38371 0.03723 0.0
H765 H 0.67645 0.48777 0.9482 0.0
H766 H 0.67927 0.44647 0.93619 0.0
H767 H 0.64758 0.45499 0.96134 0.0
H768 H 0.67691 0.33103 0.93049 0.0
H769 H 0.60104 0.35048 0.99108 0.0
H770 H 0.74381 0.37941 0.95534 0.0
H771 H 0.72498 0.40871 0.93387 0.0
H772 H 0.72595 0.36703 0.92226 0.0
H773 H 0.64944 0.40393 0.03098 0.0
H774 H 0.60555 0.39761 0.01899 0.0
H775 H 0.63306 0.43206 1.007 0.0
C776 C 0.46807 0.311 0.04778 0.0
C777 C 0.46104 0.29046 0.0248 0.0
C778 C 0.44287 0.33032 0.05912 0.0
C779 C 0.40937 0.32956 0.04736 0.0
C780 C 0.40189 0.30854 0.02445 0.0
C781 C 0.42754 0.28934 0.01359 0.0
C782 C 0.45228 0.35187 0.08364 0.0
C783 C 0.3668 0.30679 1.01098 0.0
C784 C 0.33248 0.35862 0.08866 0.0
C785 C 0.32895 0.38992 0.07781 0.0
C786 C 0.35885 0.33918 0.07954 0.0
C787 C 0.38238 0.35095 0.05872 0.0
C788 C 0.37936 0.38296 0.04823 0.0
C789 C 0.35282 0.40191 0.05783 0.0
C790 C 0.3608 0.3055 0.09159 0.0
C791 C 0.40346 0.39682 0.02607 0.0
H792 H 0.49346 0.31198 0.05709 0.0
H793 H 0.42156 0.2741 0.9957 0.0
H794 H 0.44969 0.37779 0.07814 0.0
H795 H 0.43428 0.34578 0.10097 0.0
H796 H 0.47905 0.34931 0.09089 0.0
H797 H 0.36459 0.28886 0.99377 0.0
H798 H 0.34655 0.29992 0.02649 0.0
H799 H 0.36155 0.33116 1.00279 0.0
H800 H 0.31375 0.34888 0.10366 0.0
H801 H 0.34984 0.42573 0.04886 0.0
H802 H 0.38722 0.30242 0.09932 0.0
H803 H 0.3552 0.28689 0.07526 0.0
H804 H 0.34225 0.30063 0.10881 0.0
H805 H 0.43063 0.39576 0.03278 0.0
H806 H 0.39894 0.42252 0.02095 0.0
H807 H 0.4 0.38188 1.00703 0.0
C808 C 0.05627 0.59571 0.42208 0.0
C809 C 0.03083 0.61008 0.40643 0.0
C810 C 0.05719 0.56143 0.42413 0.0
C811 C 0.03277 0.54052 0.40957 0.0
C812 C 1.00736 0.5547 0.39349 0.0
C813 C 1.0063 0.58892 0.39255 0.0
C814 C 0.08429 0.54755 0.44206 0.0
C815 C 0.98117 0.53365 0.3771 0.0
C816 C 0.05513 0.45339 0.3927 0.0
C817 C 0.03432 0.43413 0.41124 0.0
C818 C 0.05472 0.48769 0.39188 0.0
C819 C 0.03397 0.5039 0.41071 0.0
C820 C 1.01365 0.48494 0.43002 0.0
C821 C 1.01367 0.45051 0.42979 0.0
C822 C 0.07628 0.5066 0.3705 0.0
C823 C 0.99167 0.50105 0.45093 0.0
H824 H 0.07577 0.61114 0.43274 0.0
H825 H 0.98566 0.59893 0.38108 0.0
H826 H 0.07187 0.53033 0.45738 0.0
H827 H 0.10156 0.53352 0.42919 0.0
H828 H 0.10022 0.56684 0.4533 0.0
H829 H 0.96406 0.54834 0.36458 0.0
H830 H 0.99451 0.51737 0.36303 0.0
H831 H 0.96495 0.51781 0.39125 0.0
H832 H 0.07216 0.4418 0.37873 0.0
H833 H 0.99701 0.43654 0.44406 0.0
H834 H 0.09532 0.52403 0.38079 0.0
H835 H 0.05956 0.52113 0.35751 0.0
H836 H 0.09036 0.49043 0.35682 0.0
H837 H 1.00757 0.52001 0.46254 0.0
H838 H 0.9794 0.48327 0.46589 0.0
H839 H 0.97111 0.51346 0.4402 0.0
C840 C 0.59652 1.00865 0.58809 0.0
C841 C 0.61287 0.03499 0.60265 0.0
C842 C 0.56045 1.00142 0.58963 0.0
C843 C 0.5399 0.021 0.60612 0.0
C844 C 0.55665 0.04672 0.62188 0.0
C845 C 0.59277 0.05346 0.61985 0.0
C846 C 0.54412 0.97377 0.57245 0.0
C847 C 0.53623 0.0682 0.63989 0.0
C848 C 0.4458 0.02487 0.58279 0.0
C849 C 0.42808 1.00211 0.60025 0.0
C850 C 0.48182 0.03196 0.58509 0.0
C851 C 0.50093 1.01587 0.60532 0.0
C852 C 0.4828 0.99376 0.6237 0.0
C853 C 0.44673 0.98709 0.6209 0.0
C854 C 0.49966 0.05573 0.56503 0.0
C855 C 0.50169 0.97607 0.64566 0.0
H856 H 0.61181 0.9947 0.57435 0.0
H857 H 0.60514 0.07419 0.63079 0.0
H858 H 0.52725 0.95712 0.58551 0.0
H859 H 0.52762 0.98369 0.55624 0.0
H860 H 0.56363 0.9594 0.56228 0.0
H861 H 0.55313 0.08488 0.65297 0.0
H862 H 0.52017 0.08313 0.62669 0.0
H863 H 0.51848 0.05307 0.65347 0.0
H864 H 0.43161 0.03613 0.56654 0.0
H865 H 0.43326 0.9691 0.63416 0.0
H866 H 0.51747 0.04279 0.55175 0.0
H867 H 0.51542 0.07498 0.5764 0.0
H868 H 0.48113 0.06758 0.55155 0.0
H869 H 0.51873 0.95902 0.63573 0.0
H870 H 0.48376 0.96191 0.65982 0.0
H871 H 0.51836 0.99369 0.65801 0.0
C872 C 0.54655 0.09142 0.92442 0.0
C873 C 0.52603 0.10811 0.94273 0.0
C874 C 0.54392 0.05684 0.92266 0.0
C875 C 0.5203 0.03798 0.93976 0.0
C876 C 0.49867 0.05491 0.95759 0.0
C877 C 0.50183 0.0895 0.95888 0.0
C878 C 0.56751 0.04042 0.90324 0.0
C879 C 0.47305 0.03637 0.97624 0.0
C880 C 0.49393 0.94694 0.92492 0.0
C881 C 0.51372 0.93073 0.94413 0.0
C882 C 0.49649 0.9815 0.92266 0.0
C883 C 0.51931 1.00079 0.94011 0.0
C884 C 0.54024 0.98433 0.95886 0.0
C885 C 0.53719 0.94977 0.96063 0.0
C886 C 0.4737 0.99742 0.90224 0.0
C887 C 0.56502 1.00333 0.97792 0.0
H888 H 0.56572 0.10542 0.91218 0.0
H889 H 0.48632 0.10205 0.97347 0.0
H890 H 0.58592 0.02675 0.91534 0.0
H891 H 0.55241 0.02249 0.89003 0.0
H892 H 0.58241 0.05822 0.88974 0.0
H893 H 0.4567 0.05284 0.9877 0.0
H894 H 0.45609 1.0189 0.96398 0.0
H895 H 0.48695 0.02192 0.99142 0.0
H896 H 0.47539 0.93261 0.91232 0.0
H897 H 0.55219 0.93758 0.97583 0.0
H898 H 0.48936 1.01497 0.88908 0.0
H899 H 0.45487 1.01145 0.91353 0.0
H900 H 0.4593 0.97928 0.88872 0.0
H901 H 0.58254 0.02048 0.96583 0.0
H902 H 0.58082 0.98717 0.99023 0.0
H903 H 0.55047 1.01818 0.99233 0.0
C904 C 0.08816 0.48675 0.12752 0.0
C905 C 0.10995 0.5013 0.10714 0.0
C906 C 0.0532 0.4941 0.12987 0.0
C907 C 0.03906 0.51611 0.11103 0.0
C908 C 0.06136 0.53144 0.09084 0.0
C909 C 0.0963 0.52399 0.08923 0.0
C910 C 0.03105 0.47742 0.15202 0.0
C911 C 0.04791 0.55475 0.07005 0.0
C912 C 0.94152 0.50993 0.0947 0.0
C913 C 0.9299 0.53697 0.10872 0.0
C914 C 0.97649 0.50238 0.09591 0.0
C915 C 1.0009 0.52221 0.1116 0.0
C916 C 0.98888 0.54885 0.12662 0.0
C917 C 0.95386 0.55606 0.12475 0.0
C918 C 0.98764 0.47396 0.07927 0.0
C919 C 1.01335 0.5706 0.14389 0.0
H920 H 0.0982 0.46872 0.14109 0.0
H921 H 0.11266 0.53479 0.07303 0.0
H922 H 1.01764 0.49573 0.16399 0.0
H923 H 1.01091 0.46058 0.14233 0.0
H924 H 0.0463 0.46323 0.16651 0.0
H925 H 0.06859 0.56565 0.05633 0.0
H926 H 0.0278 0.54169 0.05706 0.0
H927 H 0.03566 0.57473 0.0808 0.0
H928 H 0.92351 0.49556 0.08166 0.0
H929 H 0.94539 0.57743 0.13513 0.0
H930 H 1.00131 0.45724 0.0927 0.0
H931 H 1.00603 0.48302 0.06299 0.0
H932 H 0.96553 0.45989 0.06926 0.0
H933 H 0.02825 0.55567 0.15801 0.0
H934 H 0.99967 0.5883 0.15637 0.0
H935 H 0.03212 0.58443 0.13025 0.0
loop_
_geom_bond_atom_site_label_1
_geom_bond_atom_site_label_2
_geom_bond_distance
_geom_bond_site_symmetry_2
_ccdc_geom_bond_type
C0 C1 1.443 . S
C0 N4 1.376 . S
C0 C38 1.389 . S
C1 C0 1.443 . S
C1 C2 1.340 . S
C1 H41 0.951 . S
C2 C1 1.340 . S
C2 C3 1.439 . S
C2 H42 0.950 . S
C3 C2 1.439 . S
C3 N4 1.374 . S
C3 C37 1.395 . S
N4 C0 1.376 . S
N4 C3 1.374 . S
N4 Co5 2.008 . S
Co5 N4 2.008 . S
Co5 N6 1.995 . S
Co5 N11 2.008 1_455 S
Co5 N16 1.995 . S
Co5 N21 2.282 . S
Co5 N27 2.282 . S
N6 Co5 1.995 . S
N6 C7 1.376 . S
N6 C10 1.383 . S
C7 N6 1.376 . S
C7 C8 1.446 . S
C7 C37 1.391 . S
C8 C7 1.446 . S
C8 C9 1.339 . S
C8 H43 0.949 . S
C9 C8 1.339 . S
C9 C10 1.439 . S
C9 H44 0.960 . S
C10 N6 1.383 . S
C10 C9 1.439 . S
C10 C39 1.392 1_455 S
N11 Co5 2.008 1_655 S
N11 C12 1.376 . S
N11 C15 1.374 . S
C12 N11 1.376 . S
C12 C13 1.443 . S
C12 C39 1.389 . S
C13 C12 1.443 . S
C13 C14 1.340 . S
C13 H45 0.951 . S
C14 C13 1.340 . S
C14 C15 1.439 . S
C14 H46 0.950 . S
C15 N11 1.374 . S
C15 C14 1.439 . S
C15 C40 1.395 . S
N16 Co5 1.995 . S
N16 C17 1.376 . S
N16 C20 1.383 . S
C17 N16 1.376 . S
C17 C18 1.446 . S
C17 C40 1.391 1_455 S
C18 C17 1.446 . S
C18 C19 1.339 . S
C18 H47 0.949 . S
C19 C18 1.339 . S
C19 C20 1.439 . S
C19 H48 0.950 . S
C20 N16 1.383 . S
C20 C19 1.439 . S
C20 C38 1.392 . S
N21 Co5 2.282 . S
N21 C24 1.332 . S
N21 C26 1.332 . S
C22 C23 1.386 . S
C22 C25 1.388 . S
C23 C22 1.386 . S
C23 C24 1.382 . S
C23 H49 0.950 . S
C24 N21 1.332 . S
C24 C23 1.382 . S
C24 H35 0.952 . S
C25 C22 1.388 . S
C25 C26 1.382 . S
C25 H50 0.950 . S
C26 N21 1.332 . S
C26 C25 1.382 . S
C26 H36 0.948 . S
N27 Co5 2.282 . S
N27 C31 1.332 . S
N27 C32 1.332 1_455 S
C28 C29 1.388 . S
C28 C32 1.382 . S
C28 H51 0.950 . S
C29 C28 1.388 . S
C29 C30 1.386 1_655 S
C30 C29 1.386 1_455 S
C30 C31 1.382 . S
C30 H52 0.950 . S
C31 N27 1.332 . S
C31 C30 1.382 . S
C31 H33 0.952 . S
C32 N27 1.332 1_655 S
C32 C28 1.382 . S
C32 H34 0.948 . S
H33 C31 0.952 . S
H34 C32 0.948 . S
H35 C24 0.952 . S
H36 C26 0.948 . S
C37 C3 1.395 . S
C37 C7 1.391 . S
C38 C0 1.389 . S
C38 C20 1.392 . S
C39 C10 1.392 1_655 S
C39 C12 1.389 . S
C40 C15 1.395 . S
C40 C17 1.391 1_655 S
H41 C1 0.951 . S
H42 C2 0.950 . S
H43 C8 0.949 . S
H44 C9 0.960 . S
H45 C13 0.951 . S
H46 C14 0.950 . S
H47 C18 0.949 . S
H48 C19 0.950 . S
H49 C23 0.950 . S
H50 C25 0.950 . S
H51 C28 0.950 . S
H52 C30 0.950 . S
C53 C54 1.443 . S
C53 N57 1.376 . S
C53 C91 1.389 . S
C54 C53 1.443 . S
C54 C55 1.340 . S
C54 H94 0.951 . S
C55 C54 1.340 . S
C55 C56 1.439 . S
C55 H95 0.950 . S
C56 C55 1.439 . S
C56 N57 1.374 . S
C56 C90 1.395 . S
N57 C53 1.376 . S
N57 C56 1.374 . S
N57 Co58 2.008 . S
Co58 N57 2.008 . S
Co58 N59 1.995 . S
Co58 N64 2.008 . S
Co58 N69 1.995 . S
Co58 N74 2.282 . S
Co58 N80 2.282 . S
N59 Co58 1.995 . S
N59 C60 1.376 . S
N59 C63 1.383 . S
C60 N59 1.376 . S
C60 C61 1.446 . S
C60 C90 1.391 . S
C61 C60 1.446 . S
C61 C62 1.339 . S
C61 H96 0.949 . S
C62 C61 1.339 . S
C62 C63 1.439 . S
C62 H97 0.950 . S
C63 N59 1.383 . S
C63 C62 1.439 . S
C63 C92 1.392 . S
N64 Co58 2.008 . S
N64 C65 1.376 . S
N64 C68 1.374 . S
C65 N64 1.376 . S
C65 C66 1.443 . S
C65 C92 1.389 . S
C66 C65 1.443 . S
C66 C67 1.340 . S
C66 H98 0.951 . S
C67 C66 1.340 . S
C67 C68 1.439 . S
C67 H99 0.950 . S
C68 N64 1.374 . S
C68 C67 1.439 . S
C68 C93 1.395 . S
N69 Co58 1.995 . S
N69 C70 1.376 . S
N69 C73 1.383 . S
C70 N69 1.376 . S
C70 C71 1.446 1_565 S
C70 C93 1.391 . S
C71 C70 1.446 1_545 S
C71 C72 1.339 . S
C71 H100 0.949 . S
C72 C71 1.339 . S
C72 C73 1.439 1_545 S
C72 H101 0.950 . S
C73 N69 1.383 . S
C73 C72 1.439 1_565 S
C73 C91 1.392 . S
N74 Co58 2.282 . S
N74 C77 1.332 . S
N74 C79 1.332 . S
C75 C76 1.386 . S
C75 C78 1.388 1_545 S
C76 C75 1.386 . S
C76 C77 1.382 1_545 S
C76 H102 0.950 . S
C77 N74 1.332 . S
C77 C76 1.382 1_565 S
C77 H88 0.952 1_565 S
C78 C75 1.388 1_565 S
C78 C79 1.382 . S
C78 H103 0.950 . S
C79 N74 1.332 . S
C79 C78 1.382 . S
C79 H89 0.948 . S
N80 Co58 2.282 . S
N80 C84 1.332 . S
N80 C85 1.332 . S
C81 C82 1.388 . S
C81 C85 1.382 . S
C81 H104 0.950 . S
C82 C81 1.388 . S
C82 C83 1.386 . S
C83 C82 1.386 . S
C83 C84 1.382 . S
C83 H105 0.950 . S
C84 N80 1.332 . S
C84 C83 1.382 . S
C84 H86 0.952 . S
C85 N80 1.332 . S
C85 C81 1.382 . S
C85 H87 0.948 . S
H86 C84 0.952 . S
H87 C85 0.948 . S
H88 C77 0.952 1_545 S
H89 C79 0.948 . S
C90 C56 1.395 . S
C90 C60 1.391 . S
C91 C53 1.389 . S
C91 C73 1.392 . S
C92 C63 1.392 . S
C92 C65 1.389 . S
C93 C68 1.395 . S
C93 C70 1.391 . S
H94 C54 0.951 . S
H95 C55 0.950 . S
H96 C61 0.949 . S
H97 C62 0.950 . S
H98 C66 0.951 . S
H99 C67 0.950 . S
H100 C71 0.949 . S
H101 C72 0.950 . S
H102 C76 0.950 . S
H103 C78 0.950 . S
H104 C81 0.950 . S
H105 C83 0.950 . S
C106 C107 1.443 . S
C106 N110 1.376 . S
C106 C144 1.389 . S
C107 C106 1.443 . S
C107 C108 1.340 . S
C107 H147 0.951 . S
C108 C107 1.340 . S
C108 C109 1.439 . S
C108 H148 0.950 . S
C109 C108 1.439 . S
C109 N110 1.374 . S
C109 C143 1.395 . S
N110 C106 1.376 . S
N110 C109 1.374 . S
N110 Co111 2.008 . S
Co111 N110 2.008 . S
Co111 N112 1.995 . S
Co111 N117 2.008 1_655 S
Co111 N122 1.995 . S
Co111 N127 2.282 . S
Co111 N133 2.282 . S
N112 Co111 1.995 . S
N112 C113 1.376 . S
N112 C116 1.383 . S
C113 N112 1.376 . S
C113 C114 1.446 . S
C113 C143 1.391 . S
C114 C113 1.446 . S
C114 C115 1.339 . S
C114 H149 0.949 . S
C115 C114 1.339 . S
C115 C116 1.439 . S
C115 H150 0.960 . S
C116 N112 1.383 . S
C116 C115 1.439 . S
C116 C145 1.392 1_655 S
N117 Co111 2.008 1_455 S
N117 C118 1.376 . S
N117 C121 1.374 . S
C118 N117 1.376 . S
C118 C119 1.443 . S
C118 C145 1.389 . S
C119 C118 1.443 . S
C119 C120 1.340 . S
C119 H151 0.951 . S
C120 C119 1.340 . S
C120 C121 1.439 . S
C120 H152 0.950 . S
C121 N117 1.374 . S
C121 C120 1.439 . S
C121 C146 1.395 . S
N122 Co111 1.995 . S
N122 C123 1.376 . S
N122 C126 1.383 . S
C123 N122 1.376 . S
C123 C124 1.446 . S
C123 C146 1.391 1_655 S
C124 C123 1.446 . S
C124 C125 1.339 . S
C124 H153 0.949 . S
C125 C124 1.339 . S
C125 C126 1.439 . S
C125 H154 0.950 . S
C126 N122 1.383 . S
C126 C125 1.439 . S
C126 C144 1.392 . S
N127 Co111 2.282 . S
N127 C130 1.332 . S
N127 C132 1.332 . S
C128 C129 1.386 . S
C128 C131 1.388 . S
C129 C128 1.386 . S
C129 C130 1.382 . S
C129 H155 0.950 . S
C130 N127 1.332 . S
C130 C129 1.382 . S
C130 H141 0.952 . S
C131 C128 1.388 . S
C131 C132 1.382 . S
C131 H156 0.950 . S
C132 N127 1.332 . S
C132 C131 1.382 . S
C132 H142 0.948 . S
N133 Co111 2.282 . S
N133 C137 1.332 . S
N133 C138 1.332 1_655 S
C134 C135 1.388 . S
C134 C138 1.382 . S
C134 H157 0.950 . S
C135 C134 1.388 . S
C135 C136 1.386 1_455 S
C136 C135 1.386 1_655 S
C136 C137 1.382 . S
C136 H158 0.950 . S
C137 N133 1.332 . S
C137 C136 1.382 . S
C137 H139 0.952 . S
C138 N133 1.332 1_455 S
C138 C134 1.382 . S
C138 H140 0.948 . S
H139 C137 0.952 . S
H140 C138 0.948 . S
H141 C130 0.952 . S
H142 C132 0.948 . S
C143 C109 1.395 . S
C143 C113 1.391 . S
C144 C106 1.389 . S
C144 C126 1.392 . S
C145 C116 1.392 1_455 S
C145 C118 1.389 . S
C146 C121 1.395 . S
C146 C123 1.391 1_455 S
H147 C107 0.951 . S
H148 C108 0.950 . S
H149 C114 0.949 . S
H150 C115 0.960 . S
H151 C119 0.951 . S
H152 C120 0.950 . S
H153 C124 0.949 . S
H154 C125 0.950 . S
H155 C129 0.950 . S
H156 C131 0.950 . S
H157 C134 0.950 . S
H158 C136 0.950 . S
C159 C160 1.443 . S
C159 N163 1.376 . S
C159 C197 1.389 . S
C160 C159 1.443 . S
C160 C161 1.340 . S
C160 H200 0.951 . S
C161 C160 1.340 . S
C161 C162 1.439 . S
C161 H201 0.950 . S
C162 C161 1.439 . S
C162 N163 1.374 . S
C162 C196 1.395 . S
N163 C159 1.376 . S
N163 C162 1.374 . S
N163 Co164 2.008 . S
Co164 N163 2.008 . S
Co164 N165 1.995 . S
Co164 N170 2.008 . S
Co164 N175 1.995 . S
Co164 N180 2.282 . S
Co164 N186 2.282 . S
N165 Co164 1.995 . S
N165 C166 1.376 . S
N165 C169 1.383 . S
C166 N165 1.376 . S
C166 C167 1.446 . S
C166 C196 1.391 . S
C167 C166 1.446 . S
C167 C168 1.339 . S
C167 H202 0.949 . S
C168 C167 1.339 . S
C168 C169 1.439 . S
C168 H203 0.950 . S
C169 N165 1.383 . S
C169 C168 1.439 . S
C169 C198 1.392 . S
N170 Co164 2.008 . S
N170 C171 1.376 . S
N170 C174 1.374 . S
C171 N170 1.376 . S
C171 C172 1.443 . S
C171 C198 1.389 . S
C172 C171 1.443 . S
C172 C173 1.340 . S
C172 H204 0.951 . S
C173 C172 1.340 . S
C173 C174 1.439 . S
C173 H205 0.950 . S
C174 N170 1.374 . S
C174 C173 1.439 . S
C174 C199 1.395 . S
N175 Co164 1.995 . S
N175 C176 1.376 . S
N175 C179 1.383 . S
C176 N175 1.376 . S
C176 C177 1.446 1_545 S
C176 C199 1.391 . S
C177 C176 1.446 1_565 S
C177 C178 1.339 . S
C177 H206 0.949 . S
C178 C177 1.339 . S
C178 C179 1.439 1_565 S
C178 H207 0.950 . S
C179 N175 1.383 . S
C179 C178 1.439 1_545 S
C179 C197 1.392 . S
N180 Co164 2.282 . S
N180 C183 1.332 . S
N180 C185 1.332 . S
C181 C182 1.386 . S
C181 C184 1.388 1_565 S
C182 C181 1.386 . S
C182 C183 1.382 1_565 S
C182 H208 0.950 . S
C183 N180 1.332 . S
C183 C182 1.382 1_545 S
C183 H194 0.952 1_545 S
C184 C181 1.388 1_545 S
C184 C185 1.382 . S
C184 H209 0.950 . S
C185 N180 1.332 . S
C185 C184 1.382 . S
C185 H195 0.948 . S
N186 Co164 2.282 . S
N186 C190 1.332 . S
N186 C191 1.332 . S
C187 C188 1.388 . S
C187 C191 1.382 . S
C187 H210 0.950 . S
C188 C187 1.388 . S
C188 C189 1.386 . S
C189 C188 1.386 . S
C189 C190 1.382 . S
C189 H211 0.950 . S
C190 N186 1.332 . S
C190 C189 1.382 . S
C190 H192 0.952 . S
C191 N186 1.332 . S
C191 C187 1.382 . S
C191 H193 0.948 . S
H192 C190 0.952 . S
H193 C191 0.948 . S
H194 C183 0.952 1_565 S
H195 C185 0.948 . S
C196 C162 1.395 . S
C196 C166 1.391 . S
C197 C159 1.389 . S
C197 C179 1.392 . S
C198 C169 1.392 . S
C198 C171 1.389 . S
C199 C174 1.395 . S
C199 C176 1.391 . S
H200 C160 0.951 . S
H201 C161 0.950 . S
H202 C167 0.949 . S
H203 C168 0.950 . S
H204 C172 0.951 . S
H205 C173 0.950 . S
H206 C177 0.949 . S
H207 C178 0.950 . S
H208 C182 0.950 . S
H209 C184 0.950 . S
H210 C187 0.950 . S
H211 C189 0.950 . S
C212 C213 1.443 . S
C212 N216 1.376 . S
C212 C250 1.389 . S
C213 C212 1.443 . S
C213 C214 1.340 . S
C213 H253 0.951 . S
C214 C213 1.340 . S
C214 C215 1.439 . S
C214 H254 0.950 1_556 S
C215 C214 1.439 . S
C215 N216 1.374 . S
C215 C249 1.395 . S
N216 C212 1.376 . S
N216 C215 1.374 . S
N216 Co217 2.008 . S
Co217 N216 2.008 . S
Co217 N218 1.995 . S
Co217 N223 2.008 . S
Co217 N228 1.995 . S
Co217 N233 2.282 . S
Co217 N239 2.282 . S
N218 Co217 1.995 . S
N218 C219 1.376 . S
N218 C222 1.383 . S
C219 N218 1.376 . S
C219 C220 1.446 . S
C219 C249 1.391 . S
C220 C219 1.446 . S
C220 C221 1.339 . S
C220 H255 0.949 . S
C221 C220 1.339 . S
C221 C222 1.439 . S
C221 H256 0.950 . S
C222 N218 1.383 . S
C222 C221 1.439 . S
C222 C251 1.392 . S
N223 Co217 2.008 . S
N223 C224 1.376 . S
N223 C227 1.374 . S
C224 N223 1.376 . S
C224 C225 1.443 . S
C224 C251 1.389 . S
C225 C224 1.443 . S
C225 C226 1.340 . S
C225 H257 0.951 . S
C226 C225 1.340 . S
C226 C227 1.439 . S
C226 H258 0.950 . S
C227 N223 1.374 . S
C227 C226 1.439 . S
C227 C252 1.395 . S
N228 Co217 1.995 . S
N228 C229 1.376 . S
N228 C232 1.383 . S
C229 N228 1.376 . S
C229 C230 1.446 . S
C229 C252 1.391 . S
C230 C229 1.446 . S
C230 C231 1.339 . S
C230 H259 0.949 . S
C231 C230 1.339 . S
C231 C232 1.439 . S
C231 H260 0.950 . S
C232 N228 1.383 . S
C232 C231 1.439 . S
C232 C250 1.392 . S
N233 Co217 2.282 . S
N233 C236 1.332 . S
N233 C238 1.332 . S
C234 C235 1.386 . S
C234 C237 1.388 . S
C235 C234 1.386 . S
C235 C236 1.382 . S
C235 H261 0.950 . S
C236 N233 1.332 . S
C236 C235 1.382 . S
C236 H247 0.952 . S
C237 C234 1.388 . S
C237 C238 1.382 . S
C237 H262 0.950 . S
C238 N233 1.332 . S
C238 C237 1.382 . S
C238 H248 0.948 . S
N239 Co217 2.282 . S
N239 C243 1.332 . S
N239 C244 1.332 . S
C240 C241 1.388 . S
C240 C244 1.382 . S
C240 H263 0.950 . S
C241 C240 1.388 . S
C241 C242 1.386 1_556 S
C242 C241 1.386 1_554 S
C242 C243 1.382 1_554 S
C242 H264 0.950 . S
C243 N239 1.332 . S
C243 C242 1.382 1_556 S
C243 H245 0.952 . S
C244 N239 1.332 . S
C244 C240 1.382 . S
C244 H246 0.948 . S
H245 C243 0.952 . S
H246 C244 0.948 . S
H247 C236 0.952 . S
H248 C238 0.948 . S
C249 C215 1.395 . S
C249 C219 1.391 . S
C250 C212 1.389 . S
C250 C232 1.392 . S
C251 C222 1.392 . S
C251 C224 1.389 . S
C252 C227 1.395 . S
C252 C229 1.391 . S
H253 C213 0.951 . S
H254 C214 0.950 1_554 S
H255 C220 0.949 . S
H256 C221 0.950 . S
H257 C225 0.951 . S
H258 C226 0.950 . S
H259 C230 0.949 . S
H260 C231 0.950 . S
H261 C235 0.950 . S
H262 C237 0.950 . S
H263 C240 0.950 . S
H264 C242 0.950 . S
C265 C266 1.443 . S
C265 N269 1.376 . S
C265 C303 1.389 . S
C266 C265 1.443 . S
C266 C267 1.340 . S
C266 H306 0.951 . S
C267 C266 1.340 . S
C267 C268 1.439 . S
C267 H307 0.950 . S
C268 C267 1.439 . S
C268 N269 1.374 . S
C268 C302 1.395 . S
N269 C265 1.376 . S
N269 C268 1.374 . S
N269 Co270 2.008 . S
Co270 N269 2.008 . S
Co270 N271 1.995 . S
Co270 N276 2.008 . S
Co270 N281 1.995 . S
Co270 N286 2.282 . S
Co270 N292 2.282 . S
N271 Co270 1.995 . S
N271 C272 1.376 . S
N271 C275 1.383 . S
C272 N271 1.376 . S
C272 C273 1.446 . S
C272 C302 1.391 . S
C273 C272 1.446 . S
C273 C274 1.339 . S
C273 H308 0.949 . S
C274 C273 1.339 . S
C274 C275 1.439 . S
C274 H309 0.950 . S
C275 N271 1.383 . S
C275 C274 1.439 . S
C275 C304 1.392 . S
N276 Co270 2.008 . S
N276 C277 1.376 . S
N276 C280 1.374 . S
C277 N276 1.376 . S
C277 C278 1.443 . S
C277 C304 1.389 . S
C278 C277 1.443 . S
C278 C279 1.340 . S
C278 H310 0.951 . S
C279 C278 1.340 . S
C279 C280 1.439 . S
C279 H311 0.950 . S
C280 N276 1.374 . S
C280 C279 1.439 . S
C280 C305 1.395 . S
N281 Co270 1.995 . S
N281 C282 1.376 . S
N281 C285 1.383 . S
C282 N281 1.376 . S
C282 C283 1.446 . S
C282 C305 1.391 . S
C283 C282 1.446 . S
C283 C284 1.339 . S
C283 H312 0.949 . S
C284 C283 1.339 . S
C284 C285 1.439 . S
C284 H313 0.950 . S
C285 N281 1.383 . S
C285 C284 1.439 . S
C285 C303 1.392 . S
N286 Co270 2.282 . S
N286 C289 1.332 . S
N286 C291 1.332 . S
C287 C288 1.386 . S
C287 C290 1.388 . S
C288 C287 1.386 . S
C288 C289 1.382 . S
C288 H314 0.950 . S
C289 N286 1.332 . S
C289 C288 1.382 . S
C289 H300 0.952 . S
C290 C287 1.388 . S
C290 C291 1.382 . S
C290 H315 0.950 . S
C291 N286 1.332 . S
C291 C290 1.382 . S
C291 H301 0.948 . S
N292 Co270 2.282 . S
N292 C296 1.332 . S
N292 C297 1.332 . S
C293 C294 1.388 . S
C293 C297 1.382 . S
C293 H316 0.950 1_554 S
C294 C293 1.388 . S
C294 C295 1.386 . S
C295 C294 1.386 . S
C295 C296 1.382 . S
C295 H317 0.950 . S
C296 N292 1.332 . S
C296 C295 1.382 . S
C296 H298 0.952 . S
C297 N292 1.332 . S
C297 C293 1.382 . S
C297 H299 0.948 . S
H298 C296 0.952 . S
H299 C297 0.948 . S
H300 C289 0.952 . S
H301 C291 0.948 . S
C302 C268 1.395 . S
C302 C272 1.391 . S
C303 C265 1.389 . S
C303 C285 1.392 . S
C304 C275 1.392 . S
C304 C277 1.389 . S
C305 C280 1.395 . S
C305 C282 1.391 . S
H306 C266 0.951 . S
H307 C267 0.950 . S
H308 C273 0.949 . S
H309 C274 0.950 . S
H310 C278 0.951 . S
H311 C279 0.950 . S
H312 C283 0.949 . S
H313 C284 0.950 . S
H314 C288 0.950 . S
H315 C290 0.950 . S
H316 C293 0.950 1_556 S
H317 C295 0.950 . S
C318 C319 1.443 . S
C318 N322 1.376 . S
C318 C356 1.389 . S
C319 C318 1.443 . S
C319 C320 1.340 . S
C319 H359 0.951 . S
C320 C319 1.340 . S
C320 C321 1.439 . S
C320 H360 0.950 1_556 S
C321 C320 1.439 . S
C321 N322 1.374 . S
C321 C355 1.395 . S
N322 C318 1.376 . S
N322 C321 1.374 . S
N322 Co323 2.008 . S
Co323 N322 2.008 . S
Co323 N324 1.995 . S
Co323 N329 2.008 . S
Co323 N334 1.995 . S
Co323 N339 2.282 . S
Co323 N345 2.282 . S
N324 Co323 1.995 . S
N324 C325 1.376 . S
N324 C328 1.383 . S
C325 N324 1.376 . S
C325 C326 1.446 . S
C325 C355 1.391 . S
C326 C325 1.446 . S
C326 C327 1.339 . S
C326 H361 0.949 . S
C327 C326 1.339 . S
C327 C328 1.439 . S
C327 H362 0.950 . S
C328 N324 1.383 . S
C328 C327 1.439 . S
C328 C357 1.392 . S
N329 Co323 2.008 . S
N329 C330 1.376 . S
N329 C333 1.374 . S
C330 N329 1.376 . S
C330 C331 1.443 . S
C330 C357 1.389 . S
C331 C330 1.443 . S
C331 C332 1.340 . S
C331 H363 0.951 . S
C332 C331 1.340 . S
C332 C333 1.439 . S
C332 H364 0.950 . S
C333 N329 1.374 . S
C333 C332 1.439 . S
C333 C358 1.395 . S
N334 Co323 1.995 . S
N334 C335 1.376 . S
N334 C338 1.383 . S
C335 N334 1.376 . S
C335 C336 1.446 . S
C335 C358 1.391 . S
C336 C335 1.446 . S
C336 C337 1.339 . S
C336 H365 0.949 . S
C337 C336 1.339 . S
C337 C338 1.439 . S
C337 H366 0.950 . S
C338 N334 1.383 . S
C338 C337 1.439 . S
C338 C356 1.392 . S
N339 Co323 2.282 . S
N339 C342 1.332 . S
N339 C344 1.332 . S
C340 C341 1.386 . S
C340 C343 1.388 . S
C341 C340 1.386 . S
C341 C342 1.382 . S
C341 H367 0.950 . S
C342 N339 1.332 . S
C342 C341 1.382 . S
C342 H353 0.952 . S
C343 C340 1.388 . S
C343 C344 1.382 . S
C343 H368 0.950 . S
C344 N339 1.332 . S
C344 C343 1.382 . S
C344 H354 0.948 . S
N345 Co323 2.282 . S
N345 C349 1.332 . S
N345 C350 1.332 . S
C346 C347 1.388 . S
C346 C350 1.382 . S
C346 H369 0.950 . S
C347 C346 1.388 . S
C347 C348 1.386 1_556 S
C348 C347 1.386 1_554 S
C348 C349 1.382 1_554 S
C348 H370 0.950 . S
C349 N345 1.332 . S
C349 C348 1.382 1_556 S
C349 H351 0.952 . S
C350 N345 1.332 . S
C350 C346 1.382 . S
C350 H352 0.948 . S
H351 C349 0.952 . S
H352 C350 0.948 . S
H353 C342 0.952 . S
H354 C344 0.948 . S
C355 C321 1.395 . S
C355 C325 1.391 . S
C356 C318 1.389 . S
C356 C338 1.392 . S
C357 C328 1.392 . S
C357 C330 1.389 . S
C358 C333 1.395 . S
C358 C335 1.391 . S
H359 C319 0.951 . S
H360 C320 0.950 1_554 S
H361 C326 0.949 . S
H362 C327 0.950 . S
H363 C331 0.951 . S
H364 C332 0.950 . S
H365 C336 0.949 . S
H366 C337 0.950 . S
H367 C341 0.950 . S
H368 C343 0.950 . S
H369 C346 0.950 . S
H370 C348 0.950 . S
C371 C372 1.443 . S
C371 N375 1.376 . S
C371 C409 1.389 . S
C372 C371 1.443 . S
C372 C373 1.340 . S
C372 H412 0.951 . S
C373 C372 1.340 . S
C373 C374 1.439 . S
C373 H413 0.950 . S
C374 C373 1.439 . S
C374 N375 1.374 . S
C374 C408 1.395 . S
N375 C371 1.376 . S
N375 C374 1.374 . S
N375 Co376 2.008 . S
Co376 N375 2.008 . S
Co376 N377 1.995 . S
Co376 N382 2.008 . S
Co376 N387 1.995 . S
Co376 N392 2.282 . S
Co376 N398 2.282 . S
N377 Co376 1.995 . S
N377 C378 1.376 . S
N377 C381 1.383 . S
C378 N377 1.376 . S
C378 C379 1.446 . S
C378 C408 1.391 . S
C379 C378 1.446 . S
C379 C380 1.339 . S
C379 H414 0.949 . S
C380 C379 1.339 . S
C380 C381 1.439 . S
C380 H415 0.950 . S
C381 N377 1.383 . S
C381 C380 1.439 . S
C381 C410 1.392 . S
N382 Co376 2.008 . S
N382 C383 1.376 . S
N382 C386 1.374 . S
C383 N382 1.376 . S
C383 C384 1.443 . S
C383 C410 1.389 . S
C384 C383 1.443 . S
C384 C385 1.340 . S
C384 H416 0.951 . S
C385 C384 1.340 . S
C385 C386 1.439 . S
C385 H417 0.950 . S
C386 N382 1.374 . S
C386 C385 1.439 . S
C386 C411 1.395 . S
N387 Co376 1.995 . S
N387 C388 1.376 . S
N387 C391 1.383 . S
C388 N387 1.376 . S
C388 C389 1.446 . S
C388 C411 1.391 . S
C389 C388 1.446 . S
C389 C390 1.339 . S
C389 H418 0.949 . S
C390 C389 1.339 . S
C390 C391 1.439 . S
C390 H419 0.950 . S
C391 N387 1.383 . S
C391 C390 1.439 . S
C391 C409 1.392 . S
N392 Co376 2.282 . S
N392 C395 1.332 . S
N392 C397 1.332 . S
C393 C394 1.386 . S
C393 C396 1.388 . S
C394 C393 1.386 . S
C394 C395 1.382 . S
C394 H420 0.950 . S
C395 N392 1.332 . S
C395 C394 1.382 . S
C395 H406 0.952 . S
C396 C393 1.388 . S
C396 C397 1.382 . S
C396 H421 0.950 . S
C397 N392 1.332 . S
C397 C396 1.382 . S
C397 H407 0.948 . S
N398 Co376 2.282 . S
N398 C402 1.332 . S
N398 C403 1.332 . S
C399 C400 1.388 . S
C399 C403 1.382 . S
C399 H422 0.950 1_554 S
C400 C399 1.388 . S
C400 C401 1.386 . S
C401 C400 1.386 . S
C401 C402 1.382 . S
C401 H423 0.950 . S
C402 N398 1.332 . S
C402 C401 1.382 . S
C402 H404 0.952 . S
C403 N398 1.332 . S
C403 C399 1.382 . S
C403 H405 0.948 . S
H404 C402 0.952 . S
H405 C403 0.948 . S
H406 C395 0.952 . S
H407 C397 0.948 . S
C408 C374 1.395 . S
C408 C378 1.391 . S
C409 C371 1.389 . S
C409 C391 1.392 . S
C410 C381 1.392 . S
C410 C383 1.389 . S
C411 C386 1.395 . S
C411 C388 1.391 . S
H412 C372 0.951 . S
H413 C373 0.950 . S
H414 C379 0.949 . S
H415 C380 0.950 . S
H416 C384 0.951 . S
H417 C385 0.950 . S
H418 C389 0.949 . S
H419 C390 0.950 . S
H420 C394 0.950 . S
H421 C396 0.950 . S
H422 C399 0.950 1_556 S
H423 C401 0.950 . S
C424 C425 1.391 . S
C424 C426 1.394 . S
C424 H440 0.931 . S
C425 C424 1.391 . S
C425 C429 1.376 . S
C426 C424 1.394 . S
C426 C427 1.369 . S
C426 C430 1.531 . S
C427 C426 1.369 . S
C427 C428 1.410 . S
C427 C435 1.503 . S
C428 C427 1.410 . S
C428 C429 1.392 . S
C428 C431 1.511 . S
C429 C425 1.376 . S
C429 C428 1.392 . S
C429 H441 0.929 . S
C430 C426 1.531 . S
C430 H442 0.960 . S
C430 H443 0.962 . S
C430 H444 0.960 . S
C431 C428 1.511 . S
C431 H445 0.961 . S
C431 H446 0.961 . S
C431 H447 0.961 . S
C432 C433 1.370 . S
C432 C434 1.363 . S
C432 H448 0.931 . S
C433 C432 1.370 . S
C433 C437 1.408 . S
C434 C432 1.363 . S
C434 C435 1.370 . S
C434 C438 1.524 . S
C435 C427 1.503 . S
C435 C434 1.370 . S
C435 C436 1.403 . S
C436 C435 1.403 . S
C436 C437 1.404 . S
C436 C439 1.539 . S
C437 C433 1.408 . S
C437 C436 1.404 . S
C437 H449 0.930 . S
C438 C434 1.524 . S
C438 H450 0.956 . S
C438 H451 0.961 . S
C438 H452 0.961 . S
C439 C436 1.539 . S
C439 H453 0.958 . S
C439 H454 0.961 . S
C439 H455 0.960 . S
H440 C424 0.931 . S
H441 C429 0.929 . S
H442 C430 0.960 . S
H443 C430 0.962 . S
H444 C430 0.960 . S
H445 C431 0.961 . S
H446 C431 0.961 . S
H447 C431 0.961 . S
H448 C432 0.931 . S
H449 C437 0.930 . S
H450 C438 0.956 . S
H451 C438 0.961 . S
H452 C438 0.961 . S
H453 C439 0.958 . S
H454 C439 0.961 . S
H455 C439 0.960 . S
C456 C457 1.391 . S
C456 C458 1.394 . S
C456 H472 0.931 . S
C457 C456 1.391 . S
C457 C461 1.376 . S
C458 C456 1.394 . S
C458 C459 1.369 . S
C458 C462 1.531 . S
C459 C458 1.369 . S
C459 C460 1.410 . S
C459 C467 1.503 . S
C460 C459 1.410 . S
C460 C461 1.392 . S
C460 C463 1.511 . S
C461 C457 1.376 . S
C461 C460 1.392 . S
C461 H473 0.929 . S
C462 C458 1.531 . S
C462 H474 0.960 . S
C462 H475 0.962 . S
C462 H476 0.960 . S
C463 C460 1.511 . S
C463 H477 0.961 . S
C463 H478 0.961 . S
C463 H479 0.961 . S
C464 C465 1.370 . S
C464 C466 1.363 . S
C464 H480 0.931 . S
C465 C464 1.370 . S
C465 C469 1.408 . S
C466 C464 1.363 . S
C466 C467 1.370 . S
C466 C470 1.524 . S
C467 C459 1.503 . S
C467 C466 1.370 . S
C467 C468 1.403 . S
C468 C467 1.403 . S
C468 C469 1.404 . S
C468 C471 1.539 . S
C469 C465 1.408 . S
C469 C468 1.404 . S
C469 H481 0.930 . S
C470 C466 1.524 . S
C470 H482 0.956 . S
C470 H483 0.961 . S
C470 H484 0.961 . S
C471 C468 1.539 . S
C471 H485 0.958 . S
C471 H486 0.961 . S
C471 H487 0.960 . S
H472 C456 0.931 . S
H473 C461 0.929 . S
H474 C462 0.960 . S
H475 C462 0.962 . S
H476 C462 0.960 . S
H477 C463 0.961 . S
H478 C463 0.961 . S
H479 C463 0.961 . S
H480 C464 0.931 . S
H481 C469 0.930 . S
H482 C470 0.956 . S
H483 C470 0.961 . S
H484 C470 0.961 . S
H485 C471 0.958 . S
H486 C471 0.961 . S
H487 C471 0.960 . S
C488 C489 1.391 . S
C488 C490 1.394 . S
C488 H504 0.931 . S
C489 C488 1.391 . S
C489 C493 1.376 . S
C490 C488 1.394 . S
C490 C491 1.369 . S
C490 C494 1.531 . S
C491 C490 1.369 . S
C491 C492 1.410 . S
C491 C499 1.503 . S
C492 C491 1.410 . S
C492 C493 1.392 . S
C492 C495 1.511 . S
C493 C489 1.376 . S
C493 C492 1.392 . S
C493 H505 0.929 . S
C494 C490 1.531 . S
C494 H506 0.960 . S
C494 H507 0.962 . S
C494 H508 0.960 . S
C495 C492 1.511 . S
C495 H509 0.961 . S
C495 H510 0.961 . S
C495 H511 0.961 . S
C496 C497 1.370 . S
C496 C498 1.363 . S
C496 H512 0.931 . S
C497 C496 1.370 . S
C497 C501 1.408 . S
C498 C496 1.363 . S
C498 C499 1.370 . S
C498 C502 1.524 . S
C499 C491 1.503 . S
C499 C498 1.370 . S
C499 C500 1.403 . S
C500 C499 1.403 . S
C500 C501 1.404 . S
C500 C503 1.539 . S
C501 C497 1.408 . S
C501 C500 1.404 . S
C501 H513 0.930 . S
C502 C498 1.524 . S
C502 H514 0.956 . S
C502 H515 0.961 . S
C502 H516 0.961 . S
C503 C500 1.539 . S
C503 H517 0.958 . S
C503 H518 0.961 . S
C503 H519 0.960 . S
H504 C488 0.931 . S
H505 C493 0.929 . S
H506 C494 0.960 . S
H507 C494 0.962 . S
H508 C494 0.960 . S
H509 C495 0.961 . S
H510 C495 0.961 . S
H511 C495 0.961 . S
H512 C496 0.931 . S
H513 C501 0.930 . S
H514 C502 0.956 . S
H515 C502 0.961 . S
H516 C502 0.961 . S
H517 C503 0.958 . S
H518 C503 0.961 . S
H519 C503 0.960 . S
C520 C521 1.391 . S
C520 C522 1.394 . S
C520 H536 0.931 . S
C521 C520 1.391 . S
C521 C525 1.376 . S
C522 C520 1.394 . S
C522 C523 1.369 . S
C522 C526 1.531 . S
C523 C522 1.369 . S
C523 C524 1.410 . S
C523 C531 1.503 . S
C524 C523 1.410 . S
C524 C525 1.392 . S
C524 C527 1.511 . S
C525 C521 1.376 . S
C525 C524 1.392 . S
C525 H537 0.929 . S
C526 C522 1.531 . S
C526 H538 0.960 . S
C526 H539 0.962 . S
C526 H540 0.960 . S
C527 C524 1.511 . S
C527 H541 0.961 . S
C527 H542 0.961 . S
C527 H543 0.961 . S
C528 C529 1.370 . S
C528 C530 1.363 . S
C528 H544 0.931 . S
C529 C528 1.370 . S
C529 C533 1.408 . S
C530 C528 1.363 . S
C530 C531 1.370 . S
C530 C534 1.524 . S
C531 C523 1.503 . S
C531 C530 1.370 . S
C531 C532 1.403 . S
C532 C531 1.403 . S
C532 C533 1.404 . S
C532 C535 1.539 . S
C533 C529 1.408 . S
C533 C532 1.404 . S
C533 H545 0.930 . S
C534 C530 1.524 . S
C534 H546 0.956 . S
C534 H547 0.961 . S
C534 H548 0.961 . S
C535 C532 1.539 . S
C535 H549 0.958 . S
C535 H550 0.961 . S
C535 H551 0.960 . S
H536 C520 0.931 . S
H537 C525 0.929 . S
H538 C526 0.960 . S
H539 C526 0.962 . S
H540 C526 0.960 . S
H541 C527 0.961 . S
H542 C527 0.961 . S
H543 C527 0.961 . S
H544 C528 0.931 . S
H545 C533 0.930 . S
H546 C534 0.956 . S
H547 C534 0.961 . S
H548 C534 0.961 . S
H549 C535 0.958 . S
H550 C535 0.961 . S
H551 C535 0.960 . S
C552 C553 1.391 . S
C552 C554 1.394 . S
C552 H568 0.931 . S
C553 C552 1.391 . S
C553 C557 1.376 . S
C554 C552 1.394 . S
C554 C555 1.369 . S
C554 C558 1.531 . S
C555 C554 1.369 . S
C555 C556 1.410 . S
C555 C563 1.503 . S
C556 C555 1.410 . S
C556 C557 1.392 . S
C556 C559 1.511 . S
C557 C553 1.376 . S
C557 C556 1.392 . S
C557 H569 0.929 . S
C558 C554 1.531 . S
C558 H570 0.960 . S
C558 H571 0.962 . S
C558 H572 0.960 . S
C559 C556 1.511 . S
C559 H573 0.961 . S
C559 H574 0.961 . S
C559 H575 0.961 . S
C560 C561 1.370 . S
C560 C562 1.363 . S
C560 H576 0.931 . S
C561 C560 1.370 . S
C561 C565 1.408 . S
C562 C560 1.363 . S
C562 C563 1.370 . S
C562 C566 1.524 . S
C563 C555 1.503 . S
C563 C562 1.370 . S
C563 C564 1.403 . S
C564 C563 1.403 . S
C564 C565 1.404 . S
C564 C567 1.539 . S
C565 C561 1.408 . S
C565 C564 1.404 . S
C565 H577 0.930 . S
C566 C562 1.524 . S
C566 H578 0.956 . S
C566 H579 0.961 . S
C566 H580 0.961 . S
C567 C564 1.539 . S
C567 H581 0.958 . S
C567 H582 0.961 . S
C567 H583 0.960 . S
H568 C552 0.931 . S
H569 C557 0.929 . S
H570 C558 0.960 . S
H571 C558 0.962 . S
H572 C558 0.960 . S
H573 C559 0.961 . S
H574 C559 0.961 . S
H575 C559 0.961 . S
H576 C560 0.931 . S
H577 C565 0.930 . S
H578 C566 0.956 . S
H579 C566 0.961 . S
H580 C566 0.961 . S
H581 C567 0.958 . S
H582 C567 0.961 . S
H583 C567 0.960 . S
C584 C585 1.391 . S
C584 C586 1.394 . S
C584 H600 0.931 . S
C585 C584 1.391 . S
C585 C589 1.376 . S
C586 C584 1.394 . S
C586 C587 1.369 . S
C586 C590 1.531 . S
C587 C586 1.369 . S
C587 C588 1.410 . S
C587 C595 1.503 . S
C588 C587 1.410 . S
C588 C589 1.392 . S
C588 C591 1.511 . S
C589 C585 1.376 . S
C589 C588 1.392 . S
C589 H601 0.929 . S
C590 C586 1.531 . S
C590 H602 0.960 . S
C590 H603 0.962 . S
C590 H604 0.960 . S
C591 C588 1.511 . S
C591 H605 0.961 . S
C591 H606 0.961 . S
C591 H607 0.961 . S
C592 C593 1.370 . S
C592 C594 1.363 . S
C592 H608 0.931 . S
C593 C592 1.370 . S
C593 C597 1.408 . S
C594 C592 1.363 . S
C594 C595 1.370 . S
C594 C598 1.524 . S
C595 C587 1.503 . S
C595 C594 1.370 . S
C595 C596 1.403 . S
C596 C595 1.403 . S
C596 C597 1.404 . S
C596 C599 1.539 . S
C597 C593 1.408 . S
C597 C596 1.404 . S
C597 H609 0.930 . S
C598 C594 1.524 . S
C598 H610 0.956 . S
C598 H611 0.961 . S
C598 H612 0.961 . S
C599 C596 1.539 . S
C599 H613 0.958 . S
C599 H614 0.961 . S
C599 H615 0.960 . S
H600 C584 0.931 . S
H601 C589 0.929 . S
H602 C590 0.960 . S
H603 C590 0.962 . S
H604 C590 0.960 . S
H605 C591 0.961 . S
H606 C591 0.961 . S
H607 C591 0.961 . S
H608 C592 0.931 . S
H609 C597 0.930 . S
H610 C598 0.956 . S
H611 C598 0.961 . S
H612 C598 0.961 . S
H613 C599 0.958 . S
H614 C599 0.961 . S
H615 C599 0.960 . S
C616 C617 1.391 . S
C616 C618 1.394 . S
C616 H632 0.931 . S
C617 C616 1.391 . S
C617 C621 1.376 . S
C618 C616 1.394 . S
C618 C619 1.369 . S
C618 C622 1.531 . S
C619 C618 1.369 . S
C619 C620 1.410 . S
C619 C627 1.503 . S
C620 C619 1.410 . S
C620 C621 1.392 . S
C620 C623 1.511 . S
C621 C617 1.376 . S
C621 C620 1.392 . S
C621 H633 0.929 . S
C622 C618 1.531 . S
C622 H634 0.960 . S
C622 H635 0.962 . S
C622 H636 0.960 . S
C623 C620 1.511 . S
C623 H637 0.961 . S
C623 H638 0.961 . S
C623 H639 0.961 . S
C624 C625 1.370 . S
C624 C626 1.363 . S
C624 H640 0.931 . S
C625 C624 1.370 . S
C625 C629 1.408 . S
C626 C624 1.363 . S
C626 C627 1.370 . S
C626 C630 1.524 . S
C627 C619 1.503 . S
C627 C626 1.370 . S
C627 C628 1.403 . S
C628 C627 1.403 . S
C628 C629 1.404 . S
C628 C631 1.539 . S
C629 C625 1.408 . S
C629 C628 1.404 . S
C629 H641 0.930 . S
C630 C626 1.524 . S
C630 H642 0.956 . S
C630 H643 0.961 . S
C630 H644 0.961 . S
C631 C628 1.539 . S
C631 H645 0.958 . S
C631 H646 0.961 . S
C631 H647 0.960 . S
H632 C616 0.931 . S
H633 C621 0.929 . S
H634 C622 0.960 . S
H635 C622 0.962 . S
H636 C622 0.960 . S
H637 C623 0.961 . S
H638 C623 0.961 . S
H639 C623 0.961 . S
H640 C624 0.931 . S
H641 C629 0.930 . S
H642 C630 0.956 . S
H643 C630 0.961 . S
H644 C630 0.961 . S
H645 C631 0.958 . S
H646 C631 0.961 . S
H647 C631 0.960 . S
C648 C649 1.391 . S
C648 C650 1.394 . S
C648 H664 0.931 . S
C649 C648 1.391 . S
C649 C653 1.376 . S
C650 C648 1.394 . S
C650 C651 1.369 . S
C650 C654 1.531 . S
C651 C650 1.369 . S
C651 C652 1.410 . S
C651 C659 1.503 . S
C652 C651 1.410 . S
C652 C653 1.392 . S
C652 C655 1.511 . S
C653 C649 1.376 . S
C653 C652 1.392 . S
C653 H665 0.929 . S
C654 C650 1.531 . S
C654 H666 0.960 . S
C654 H667 0.962 . S
C654 H668 0.960 . S
C655 C652 1.511 . S
C655 H669 0.961 . S
C655 H670 0.961 . S
C655 H671 0.961 . S
C656 C657 1.370 . S
C656 C658 1.363 . S
C656 H672 0.931 . S
C657 C656 1.370 . S
C657 C661 1.408 . S
C658 C656 1.363 . S
C658 C659 1.370 . S
C658 C662 1.524 . S
C659 C651 1.503 . S
C659 C658 1.370 . S
C659 C660 1.403 . S
C660 C659 1.403 . S
C660 C661 1.404 . S
C660 C663 1.539 . S
C661 C657 1.408 . S
C661 C660 1.404 . S
C661 H673 0.930 . S
C662 C658 1.524 . S
C662 H674 0.956 . S
C662 H675 0.961 . S
C662 H676 0.961 . S
C663 C660 1.539 . S
C663 H677 0.958 . S
C663 H678 0.961 . S
C663 H679 0.960 . S
H664 C648 0.931 . S
H665 C653 0.929 . S
H666 C654 0.960 . S
H667 C654 0.962 . S
H668 C654 0.960 . S
H669 C655 0.961 . S
H670 C655 0.961 . S
H671 C655 0.961 . S
H672 C656 0.931 . S
H673 C661 0.930 . S
H674 C662 0.956 . S
H675 C662 0.961 . S
H676 C662 0.961 . S
H677 C663 0.958 . S
H678 C663 0.961 . S
H679 C663 0.960 . S
C680 C681 1.391 . S
C680 C682 1.394 . S
C680 H696 0.931 . S
C681 C680 1.391 . S
C681 C685 1.376 1_554 S
C682 C680 1.394 . S
C682 C683 1.369 1_554 S
C682 C686 1.531 . S
C683 C682 1.369 1_556 S
C683 C684 1.410 . S
C683 C691 1.503 . S
C684 C683 1.410 . S
C684 C685 1.392 . S
C684 C687 1.511 . S
C685 C681 1.376 1_556 S
C685 C684 1.392 . S
C685 H697 0.929 . S
C686 C682 1.531 . S
C686 H698 0.960 . S
C686 H699 0.962 1_554 S
C686 H700 0.960 . S
C687 C684 1.511 . S
C687 H701 0.961 . S
C687 H702 0.961 . S
C687 H703 0.961 . S
C688 C689 1.370 . S
C688 C690 1.363 . S
C688 H704 0.931 . S
C689 C688 1.370 . S
C689 C693 1.408 . S
C690 C688 1.363 . S
C690 C691 1.370 . S
C690 C694 1.524 . S
C691 C683 1.503 . S
C691 C690 1.370 . S
C691 C692 1.403 . S
C692 C691 1.403 . S
C692 C693 1.404 . S
C692 C695 1.539 1_556 S
C693 C689 1.408 . S
C693 C692 1.404 . S
C693 H705 0.930 . S
C694 C690 1.524 . S
C694 H706 0.956 . S
C694 H707 0.961 . S
C694 H708 0.961 . S
C695 C692 1.539 1_554 S
C695 H709 0.958 . S
C695 H710 0.961 . S
C695 H711 0.960 . S
H696 C680 0.931 . S
H697 C685 0.929 . S
H698 C686 0.960 . S
H699 C686 0.962 1_556 S
H700 C686 0.960 . S
H701 C687 0.961 . S
H702 C687 0.961 . S
H703 C687 0.961 . S
H704 C688 0.931 . S
H705 C693 0.930 . S
H706 C694 0.956 . S
H707 C694 0.961 . S
H708 C694 0.961 . S
H709 C695 0.958 . S
H710 C695 0.961 . S
H711 C695 0.960 . S
C712 C713 1.391 . S
C712 C714 1.394 . S
C712 H728 0.931 . S
C713 C712 1.391 . S
C713 C717 1.376 . S
C714 C712 1.394 . S
C714 C715 1.369 . S
C714 C718 1.531 . S
C715 C714 1.369 . S
C715 C716 1.410 . S
C715 C723 1.503 . S
C716 C715 1.410 . S
C716 C717 1.392 . S
C716 C719 1.511 . S
C717 C713 1.376 . S
C717 C716 1.392 . S
C717 H729 0.929 . S
C718 C714 1.531 . S
C718 H730 0.960 . S
C718 H731 0.962 . S
C718 H732 0.960 . S
C719 C716 1.511 . S
C719 H733 0.961 . S
C719 H734 0.961 . S
C719 H735 0.961 . S
C720 C721 1.370 . S
C720 C722 1.363 . S
C720 H736 0.931 . S
C721 C720 1.370 . S
C721 C725 1.408 1_554 S
C722 C720 1.363 . S
C722 C723 1.370 . S
C722 C726 1.524 . S
C723 C715 1.503 . S
C723 C722 1.370 . S
C723 C724 1.403 . S
C724 C723 1.403 . S
C724 C725 1.404 1_554 S
C724 C727 1.539 1_554 S
C725 C721 1.408 1_556 S
C725 C724 1.404 1_556 S
C725 H737 0.930 . S
C726 C722 1.524 . S
C726 H738 0.956 . S
C726 H739 0.961 . S
C726 H740 0.961 . S
C727 C724 1.539 1_556 S
C727 H741 0.958 . S
C727 H742 0.961 . S
C727 H743 0.960 . S
H728 C712 0.931 . S
H729 C717 0.929 . S
H730 C718 0.960 . S
H731 C718 0.962 . S
H732 C718 0.960 . S
H733 C719 0.961 . S
H734 C719 0.961 . S
H735 C719 0.961 . S
H736 C720 0.931 . S
H737 C725 0.930 . S
H738 C726 0.956 . S
H739 C726 0.961 . S
H740 C726 0.961 . S
H741 C727 0.958 . S
H742 C727 0.961 . S
H743 C727 0.960 . S
C744 C745 1.391 . S
C744 C746 1.394 . S
C744 H760 0.931 . S
C745 C744 1.391 . S
C745 C749 1.376 1_554 S
C746 C744 1.394 . S
C746 C747 1.369 1_554 S
C746 C750 1.531 . S
C747 C746 1.369 1_556 S
C747 C748 1.410 . S
C747 C755 1.503 . S
C748 C747 1.410 . S
C748 C749 1.392 . S
C748 C751 1.511 . S
C749 C745 1.376 1_556 S
C749 C748 1.392 . S
C749 H761 0.929 . S
C750 C746 1.531 . S
C750 H762 0.960 . S
C750 H763 0.962 . S
C750 H764 0.960 . S
C751 C748 1.511 . S
C751 H765 0.961 . S
C751 H766 0.961 . S
C751 H767 0.961 . S
C752 C753 1.370 . S
C752 C754 1.363 . S
C752 H768 0.931 . S
C753 C752 1.370 . S
C753 C757 1.408 . S
C754 C752 1.363 . S
C754 C755 1.370 . S
C754 C758 1.524 . S
C755 C747 1.503 . S
C755 C754 1.370 . S
C755 C756 1.403 . S
C756 C755 1.403 . S
C756 C757 1.404 . S
C756 C759 1.539 1_556 S
C757 C753 1.408 . S
C757 C756 1.404 . S
C757 H769 0.930 . S
C758 C754 1.524 . S
C758 H770 0.956 . S
C758 H771 0.961 . S
C758 H772 0.961 . S
C759 C756 1.539 1_554 S
C759 H773 0.958 . S
C759 H774 0.962 . S
C759 H775 0.960 . S
H760 C744 0.931 . S
H761 C749 0.929 . S
H762 C750 0.960 . S
H763 C750 0.962 . S
H764 C750 0.960 . S
H765 C751 0.961 . S
H766 C751 0.961 . S
H767 C751 0.961 . S
H768 C752 0.931 . S
H769 C757 0.930 . S
H770 C758 0.956 . S
H771 C758 0.961 . S
H772 C758 0.961 . S
H773 C759 0.958 . S
H774 C759 0.962 . S
H775 C759 0.960 . S
C776 C777 1.391 . S
C776 C778 1.394 . S
C776 H792 0.931 . S
C777 C776 1.391 . S
C777 C781 1.374 1_554 S
C778 C776 1.394 . S
C778 C779 1.369 . S
C778 C782 1.531 . S
C779 C778 1.369 . S
C779 C780 1.410 . S
C779 C787 1.503 . S
C780 C779 1.410 . S
C780 C781 1.391 1_554 S
C780 C783 1.511 1_554 S
C781 C777 1.374 1_556 S
C781 C780 1.391 1_556 S
C781 H793 0.931 . S
C782 C778 1.531 . S
C782 H794 0.960 . S
C782 H795 0.962 . S
C782 H796 0.960 . S
C783 C780 1.511 1_556 S
C783 H797 0.961 . S
C783 H798 0.961 1_556 S
C783 H799 0.961 . S
C784 C785 1.370 . S
C784 C786 1.363 . S
C784 H800 0.931 . S
C785 C784 1.370 . S
C785 C789 1.408 . S
C786 C784 1.363 . S
C786 C787 1.370 . S
C786 C790 1.524 . S
C787 C779 1.503 . S
C787 C786 1.370 . S
C787 C788 1.403 . S
C788 C787 1.403 . S
C788 C789 1.404 . S
C788 C791 1.539 . S
C789 C785 1.408 . S
C789 C788 1.404 . S
C789 H801 0.930 . S
C790 C786 1.524 . S
C790 H802 0.956 . S
C790 H803 0.961 . S
C790 H804 0.961 . S
C791 C788 1.539 . S
C791 H805 0.958 . S
C791 H806 0.961 . S
C791 H807 0.960 . S
H792 C776 0.931 . S
H793 C781 0.931 . S
H794 C782 0.960 . S
H795 C782 0.962 . S
H796 C782 0.960 . S
H797 C783 0.961 . S
H798 C783 0.961 1_554 S
H799 C783 0.961 . S
H800 C784 0.931 . S
H801 C789 0.930 . S
H802 C790 0.956 . S
H803 C790 0.961 . S
H804 C790 0.961 . S
H805 C791 0.958 . S
H806 C791 0.961 . S
H807 C791 0.960 . S
C808 C809 1.391 . S
C808 C810 1.394 . S
C808 H824 0.931 . S
C809 C808 1.391 . S
C809 C813 1.376 1_455 S
C810 C808 1.394 . S
C810 C811 1.369 1_455 S
C810 C814 1.531 . S
C811 C810 1.369 1_655 S
C811 C812 1.410 . S
C811 C819 1.503 . S
C812 C811 1.410 . S
C812 C813 1.392 . S
C812 C815 1.511 . S
C813 C809 1.376 1_655 S
C813 C812 1.392 . S
C813 H825 0.929 . S
C814 C810 1.531 . S
C814 H826 0.960 . S
C814 H827 0.962 . S
C814 H828 0.960 . S
C815 C812 1.511 . S
C815 H829 0.961 . S
C815 H830 0.961 . S
C815 H831 0.961 . S
C816 C817 1.370 1_455 S
C816 C818 1.363 . S
C816 H832 0.931 . S
C817 C816 1.370 1_655 S
C817 C821 1.408 . S
C818 C816 1.363 . S
C818 C819 1.370 1_455 S
C818 C822 1.524 . S
C819 C811 1.503 . S
C819 C818 1.370 1_655 S
C819 C820 1.403 . S
C820 C819 1.403 . S
C820 C821 1.404 . S
C820 C823 1.539 . S
C821 C817 1.408 . S
C821 C820 1.404 . S
C821 H833 0.930 . S
C822 C818 1.524 . S
C822 H834 0.956 . S
C822 H835 0.961 . S
C822 H836 0.961 . S
C823 C820 1.539 . S
C823 H837 0.958 . S
C823 H838 0.961 . S
C823 H839 0.960 . S
H824 C808 0.931 . S
H825 C813 0.929 . S
H826 C814 0.960 . S
H827 C814 0.962 . S
H828 C814 0.960 . S
H829 C815 0.961 . S
H830 C815 0.961 . S
H831 C815 0.961 . S
H832 C816 0.931 . S
H833 C821 0.930 . S
H834 C822 0.956 . S
H835 C822 0.961 . S
H836 C822 0.961 . S
H837 C823 0.958 . S
H838 C823 0.961 . S
H839 C823 0.960 . S
C840 C841 1.391 . S
C840 C842 1.394 . S
C840 H856 0.931 . S
C841 C840 1.391 . S
C841 C845 1.376 1_545 S
C842 C840 1.394 . S
C842 C843 1.369 1_545 S
C842 C846 1.531 . S
C843 C842 1.369 1_565 S
C843 C844 1.410 . S
C843 C851 1.503 . S
C844 C843 1.410 . S
C844 C845 1.392 . S
C844 C847 1.511 . S
C845 C841 1.376 1_565 S
C845 C844 1.392 . S
C845 H857 0.929 . S
C846 C842 1.531 . S
C846 H858 0.960 . S
C846 H859 0.962 . S
C846 H860 0.960 . S
C847 C844 1.511 . S
C847 H861 0.961 . S
C847 H862 0.961 . S
C847 H863 0.961 . S
C848 C849 1.370 1_545 S
C848 C850 1.363 . S
C848 H864 0.931 . S
C849 C848 1.370 1_565 S
C849 C853 1.408 . S
C850 C848 1.363 . S
C850 C851 1.370 1_545 S
C850 C854 1.524 . S
C851 C843 1.503 . S
C851 C850 1.370 1_565 S
C851 C852 1.403 . S
C852 C851 1.403 . S
C852 C853 1.404 . S
C852 C855 1.539 . S
C853 C849 1.408 . S
C853 C852 1.404 . S
C853 H865 0.930 . S
C854 C850 1.524 . S
C854 H866 0.956 . S
C854 H867 0.961 . S
C854 H868 0.961 . S
C855 C852 1.539 . S
C855 H869 0.958 . S
C855 H870 0.961 . S
C855 H871 0.960 . S
H856 C840 0.931 . S
H857 C845 0.929 . S
H858 C846 0.960 . S
H859 C846 0.962 . S
H860 C846 0.960 . S
H861 C847 0.961 . S
H862 C847 0.961 . S
H863 C847 0.961 . S
H864 C848 0.931 . S
H865 C853 0.930 . S
H866 C854 0.956 . S
H867 C854 0.961 . S
H868 C854 0.961 . S
H869 C855 0.958 . S
H870 C855 0.961 . S
H871 C855 0.960 . S
C872 C873 1.391 . S
C872 C874 1.394 . S
C872 H888 0.931 . S
C873 C872 1.391 . S
C873 C877 1.376 . S
C874 C872 1.394 . S
C874 C875 1.369 . S
C874 C878 1.531 . S
C875 C874 1.369 . S
C875 C876 1.410 . S
C875 C883 1.503 1_545 S
C876 C875 1.410 . S
C876 C877 1.392 . S
C876 C879 1.511 . S
C877 C873 1.376 . S
C877 C876 1.392 . S
C877 H889 0.929 . S
C878 C874 1.531 . S
C878 H890 0.960 . S
C878 H891 0.962 . S
C878 H892 0.960 . S
C879 C876 1.511 . S
C879 H893 0.961 . S
C879 H894 0.961 1_545 S
C879 H895 0.961 . S
C880 C881 1.370 . S
C880 C882 1.363 . S
C880 H896 0.931 . S
C881 C880 1.370 . S
C881 C885 1.408 . S
C882 C880 1.363 . S
C882 C883 1.370 . S
C882 C886 1.524 . S
C883 C875 1.503 1_565 S
C883 C882 1.370 . S
C883 C884 1.403 . S
C884 C883 1.403 . S
C884 C885 1.404 . S
C884 C887 1.539 . S
C885 C881 1.408 . S
C885 C884 1.404 . S
C885 H897 0.930 . S
C886 C882 1.524 . S
C886 H898 0.956 1_565 S
C886 H899 0.945 1_565 S
C886 H900 0.961 . S
C887 C884 1.539 . S
C887 H901 0.958 . S
C887 H902 0.961 . S
C887 H903 0.960 . S
H888 C872 0.931 . S
H889 C877 0.929 . S
H890 C878 0.960 . S
H891 C878 0.962 . S
H892 C878 0.960 . S
H893 C879 0.961 . S
H894 C879 0.961 1_565 S
H895 C879 0.961 . S
H896 C880 0.931 . S
H897 C885 0.930 . S
H898 C886 0.956 1_545 S
H899 C886 0.945 1_545 S
H900 C886 0.961 . S
H901 C887 0.958 . S
H902 C887 0.961 . S
H903 C887 0.960 . S
C904 C905 1.391 . S
C904 C906 1.394 . S
C904 H920 0.931 . S
C905 C904 1.391 . S
C905 C909 1.376 . S
C906 C904 1.394 . S
C906 C907 1.369 . S
C906 C910 1.531 . S
C907 C906 1.369 . S
C907 C908 1.410 . S
C907 C915 1.503 1_455 S
C908 C907 1.410 . S
C908 C909 1.392 . S
C908 C911 1.511 . S
C909 C905 1.376 . S
C909 C908 1.392 . S
C909 H921 0.929 . S
C910 C906 1.531 . S
C910 H922 0.960 1_455 S
C910 H923 0.962 . S
C910 H924 0.960 . S
C911 C908 1.511 . S
C911 H925 0.961 . S
C911 H926 0.961 . S
C911 H927 0.961 . S
C912 C913 1.370 . S
C912 C914 1.363 . S
C912 H928 0.931 . S
C913 C912 1.370 . S
C913 C917 1.408 . S
C914 C912 1.363 . S
C914 C915 1.370 . S
C914 C918 1.524 . S
C915 C907 1.503 1_655 S
C915 C914 1.370 . S
C915 C916 1.403 . S
C916 C915 1.403 . S
C916 C917 1.404 . S
C916 C919 1.539 . S
C917 C913 1.408 . S
C917 C916 1.404 . S
C917 H929 0.930 . S
C918 C914 1.524 . S
C918 H930 0.956 . S
C918 H931 0.961 . S
C918 H932 0.961 . S
C919 C916 1.539 . S
C919 H933 0.958 . S
C919 H934 0.961 . S
C919 H935 0.960 1_655 S
H920 C904 0.931 . S
H921 C909 0.929 . S
H922 C910 0.960 1_655 S
H923 C910 0.962 . S
H924 C910 0.960 . S
H925 C911 0.961 . S
H926 C911 0.961 . S
H927 C911 0.961 . S
H928 C912 0.931 . S
H929 C917 0.930 . S
H930 C918 0.956 . S
H931 C918 0.961 . S
H932 C918 0.961 . S
H933 C919 0.958 . S
H934 C919 0.961 . S
H935 C919 0.960 1_455 S
C425 C393 1.767 . S
C433 C38 1.795 . S
C457 C82 2.003 . S
C465 C234 1.985 . S
C489 C144 1.812 . S
C497 C287 1.770 . S
C521 C340 2.002 . S
C529 C188 1.975 . S
C553 C75 1.842 . S
C561 C22 1.817 . S
C585 C92 1.793 . S
C593 C145 1.818 . S
C617 C181 1.822 . S
C625 C128 1.818 . S
C649 C198 1.801 . S
C657 C39 1.817 . S
C681 C400 1.935 . S
C689 C250 1.950 . S
C713 C303 2.058 . S
C721 C241 2.028 1_554 S
C745 C294 1.940 . S
C753 C356 1.952 . S
C777 C347 2.018 1_554 S
C785 C409 2.062 . S
C809 C135 1.843 . S
C817 C29 1.874 . S
C841 C197 2.086 . S
C849 C91 2.084 . S
C873 C357 2.465 . S
C881 C251 2.470 . S
C905 C410 2.103 . S
C913 C304 2.092 . S
