# Generated by pormake.
# Topology ske, (6)-cn, num edge types: 1
# Building blocks:
#     Node 0, Type 0, BuildingBlock: KUMBOL_clean_sbu_1, # of connection points: 6
#     Node 1, Type 0, BuildingBlock: KUMBOL_clean_sbu_1, # of connection points: 6
#     Node 2, Type 0, BuildingBlock: KUMBOL_clean_sbu_1, # of connection points: 6
#     Node 3, Type 0, BuildingBlock: KUMBOL_clean_sbu_1, # of connection points: 6
#     Node 4, Type 0, BuildingBlock: KUMBOL_clean_sbu_1, # of connection points: 6
#     Node 5, Type 0, BuildingBlock: KUMBOL_clean_sbu_1, # of connection points: 6
#     Node 6, Type 0, BuildingBlock: KUMBOL_clean_sbu_1, # of connection points: 6
#     Node 7, Type 0, BuildingBlock: KUMBOL_clean_sbu_1, # of connection points: 6
#     Edge 8, Type (0, 0), BuildingBlock: AJUNOK_clean_linker_0, # of connection points: 2
#     Edge 9, Type (0, 0), BuildingBlock: AJUNOK_clean_linker_0, # of connection points: 2
#     Edge 10, Type (0, 0), BuildingBlock: AJUNOK_clean_linker_0, # of connection points: 2
#     Edge 11, Type (0, 0), BuildingBlock: AJUNOK_clean_linker_0, # of connection points: 2
#     Edge 12, Type (0, 0), BuildingBlock: AJUNOK_clean_linker_0, # of connection points: 2
#     Edge 13, Type (0, 0), BuildingBlock: AJUNOK_clean_linker_0, # of connection points: 2
#     Edge 14, Type (0, 0), BuildingBlock: AJUNOK_clean_linker_0, # of connection points: 2
#     Edge 15, Type (0, 0), BuildingBlock: AJUNOK_clean_linker_0, # of connection points: 2
#     Edge 16, Type (0, 0), BuildingBlock: AJUNOK_clean_linker_0, # of connection points: 2
#     Edge 17, Type (0, 0), BuildingBlock: AJUNOK_clean_linker_0, # of connection points: 2
#     Edge 18, Type (0, 0), BuildingBlock: AJUNOK_clean_linker_0, # of connection points: 2
#     Edge 19, Type (0, 0), BuildingBlock: AJUNOK_clean_linker_0, # of connection points: 2
#     Edge 20, Type (0, 0), BuildingBlock: AJUNOK_clean_linker_0, # of connection points: 2
#     Edge 21, Type (0, 0), BuildingBlock: AJUNOK_clean_linker_0, # of connection points: 2
#     Edge 22, Type (0, 0), BuildingBlock: AJUNOK_clean_linker_0, # of connection points: 2
#     Edge 23, Type (0, 0), BuildingBlock: AJUNOK_clean_linker_0, # of connection points: 2
#     Edge 24, Type (0, 0), BuildingBlock: AJUNOK_clean_linker_0, # of connection points: 2
#     Edge 25, Type (0, 0), BuildingBlock: AJUNOK_clean_linker_0, # of connection points: 2
#     Edge 26, Type (0, 0), BuildingBlock: AJUNOK_clean_linker_0, # of connection points: 2
#     Edge 27, Type (0, 0), BuildingBlock: AJUNOK_clean_linker_0, # of connection points: 2
#     Edge 28, Type (0, 0), BuildingBlock: AJUNOK_clean_linker_0, # of connection points: 2
#     Edge 29, Type (0, 0), BuildingBlock: AJUNOK_clean_linker_0, # of connection points: 2
#     Edge 30, Type (0, 0), BuildingBlock: AJUNOK_clean_linker_0, # of connection points: 2
#     Edge 31, Type (0, 0), BuildingBlock: AJUNOK_clean_linker_0, # of connection points: 2
# Relax obj value: 0.211
# Max RMSD: 0.237
# Mean RMSD: 0.234
data_MOF--net-ske--node1-KUMBOL_clean_sbu_1--edge1-AJUNOK_clean_linker_0
_symmetry_space_group_name_H-M    P1
_symmetry_Int_Tables_number       1
_symmetry_cell_setting            triclinic
loop_
_symmetry_equiv_pos_as_xyz
'x, y, z'
_cell_length_a     83.830087
_cell_length_b     21.867006
_cell_length_c     11.277606
_cell_angle_alpha  98.984877
_cell_angle_beta   90.062313
_cell_angle_gamma 89.935789
loop_
_atom_site_label
_atom_site_type_symbol
_atom_site_fract_x
_atom_site_fract_y
_atom_site_fract_z
_atom_type_partial_charge
C0 C 0.08948 0.26492 0.72631 0.0
C1 C 0.07861 0.36906 0.75365 0.0
C2 C 0.08821 0.32237 0.68885 0.0
C3 C 0.07045 0.3573 0.85648 0.0
C4 C 0.08117 0.2527 0.82866 0.0
C5 C 0.07168 0.29923 0.89365 0.0
N6 N 0.09889 0.2209 0.66249 0.0
C7 C 0.09958 0.16253 0.69068 0.0
C8 C 0.08252 0.19382 0.86195 0.0
C9 C 0.09166 0.14838 0.79197 0.0
Gd10 Gd 0.15878 0.2459 0.48768 0.0
Gd11 Gd 0.11068 0.24741 0.48942 0.0
N12 N 0.09597 0.332 0.58741 0.0
C13 C 0.07728 0.42589 0.712 0.0
C14 C 0.09405 0.38629 0.54325 0.0
C15 C 0.08495 0.43436 0.60595 0.0
H16 H 0.09924 0.39247 0.45835 0.0
H17 H 0.08364 0.47756 0.57136 0.0
H18 H 0.16811 0.09389 0.4487 0.0
H19 H 0.10617 0.12698 0.63437 0.0
H20 H 0.18031 0.01665 0.29247 0.0
H21 H 0.07007 0.463 0.75956 0.0
H22 H 0.06304 0.39266 0.90737 0.0
H23 H 0.16106 0.38197 0.38507 0.0
H24 H 0.07634 0.18268 0.94015 0.0
H25 H 0.09246 0.10228 0.81516 0.0
H26 H 0.1932 0.13134 0.97582 0.0
H27 H 0.06523 0.29076 0.97269 0.0
H28 H 0.17956 0.34675 0.02857 0.0
H29 H 0.16865 0.41977 0.1981 0.0
N30 N 0.1662 0.28809 0.3176 0.0
C31 C 0.17357 0.24806 0.22968 0.0
C32 C 0.16516 0.34947 0.30987 0.0
C33 C 0.17631 0.33 0.11034 0.0
C34 C 0.16987 0.37119 0.20519 0.0
C35 C 0.17867 0.26799 0.12293 0.0
H36 H 0.18964 0.23987 0.94899 0.0
N37 N 0.1697 0.16736 0.34585 0.0
C38 C 0.17543 0.18619 0.24444 0.0
C39 C 0.18421 0.08183 0.17061 0.0
C40 C 0.18261 0.14356 0.15319 0.0
C41 C 0.17173 0.10778 0.36511 0.0
C42 C 0.17887 0.06404 0.27742 0.0
O43 O 0.1218 0.25597 0.67745 0.0
O44 O 0.1495 0.24447 0.6777 0.0
O45 O 0.18126 0.21181 0.55289 0.0
O46 O 0.17877 0.30792 0.53378 0.0
O47 O 0.12331 0.33177 0.44331 0.0
O48 O 0.14664 0.3394 0.55266 0.0
O49 O 0.14431 0.2142 0.31174 0.0
O50 O 0.12232 0.27653 0.32593 0.0
O51 O 0.08652 0.25749 0.42249 0.0
O52 O 0.09929 0.17154 0.37316 0.0
O53 O 0.14784 0.16304 0.55464 0.0
O54 O 0.12421 0.15621 0.44903 0.0
C55 C 0.13557 0.25191 0.73345 0.0
C56 C 0.1342 0.36511 0.50754 0.0
C57 C 0.1991 0.28404 0.66634 0.0
C58 C 0.22631 0.2876 0.75022 0.0
C59 C 0.20489 0.34893 0.85614 0.0
C60 C 0.19405 0.326 0.76614 0.0
C61 C 0.22079 0.32979 0.84892 0.0
C62 C 0.21524 0.26473 0.65895 0.0
C63 C 0.18823 0.26549 0.56339 0.0
C64 C 0.18775 0.16355 0.04711 0.0
C65 C 0.18574 0.22545 0.03184 0.0
H66 H 0.18963 0.04768 0.10258 0.0
C67 C 0.13331 0.2447 0.2596 0.0
C68 C 0.13491 0.13256 0.51445 0.0
C69 C 0.07131 0.16521 0.4042 0.0
C70 C 0.04223 0.15202 0.40804 0.0
C71 C 0.05974 0.08014 0.49008 0.0
C72 C 0.07307 0.11237 0.45981 0.0
C73 C 0.04447 0.09953 0.4642 0.0
C74 C 0.0558 0.185 0.37872 0.0
C75 C 0.08556 0.19974 0.37343 0.0
H76 H 0.20106 0.38258 0.93136 0.0
H77 H 0.18181 0.34214 0.77309 0.0
H78 H 0.22882 0.34842 0.92089 0.0
H79 H 0.21925 0.2339 0.57995 0.0
H80 H 0.06124 0.0396 0.53314 0.0
H81 H 0.08477 0.09569 0.47989 0.0
H82 H 0.03437 0.07269 0.48663 0.0
H83 H 0.05434 0.22613 0.33724 0.0
C84 C 0.84373 0.2851 0.26558 0.0
C85 C 0.83665 0.18411 0.15734 0.0
C86 C 0.84318 0.22108 0.25968 0.0
C87 C 0.83152 0.21188 0.05964 0.0
C88 C 0.83823 0.31329 0.16901 0.0
C89 C 0.83232 0.27626 0.06544 0.0
N90 N 0.85009 0.31979 0.36533 0.0
C91 C 0.85012 0.38289 0.37817 0.0
C92 C 0.83888 0.37792 0.17945 0.0
C93 C 0.84469 0.41287 0.28497 0.0
Gd94 Gd 0.90635 0.24088 0.51637 0.0
Gd95 Gd 0.85906 0.26564 0.51681 0.0
N96 N 0.84846 0.19529 0.35525 0.0
C97 C 0.83502 0.1205 0.15753 0.0
C98 C 0.84541 0.13429 0.35978 0.0
C99 C 0.83904 0.09581 0.26034 0.0
H100 H 0.84744 0.11486 0.44063 0.0
H101 H 0.83704 0.04723 0.26377 0.0
H102 H 0.91652 0.39498 0.58399 0.0
H103 H 0.85422 0.40999 0.46077 0.0
H104 H 0.92445 0.46778 0.76095 0.0
H105 H 0.83005 0.09054 0.08081 0.0
H106 H 0.82665 0.18404 0.97996 0.0
H107 H 0.91229 0.09977 0.58615 0.0
H108 H 0.83476 0.4013 0.10718 0.0
H109 H 0.84495 0.46289 0.29472 0.0
H110 H 0.93513 0.33969 0.0586 0.0
H111 H 0.82816 0.297 0.98982 0.0
H112 H 0.9318 0.12001 0.94068 0.0
H113 H 0.92309 0.0528 0.75543 0.0
N114 N 0.91522 0.19214 0.67523 0.0
C115 C 0.92082 0.23013 0.77371 0.0
C116 C 0.91622 0.12922 0.66682 0.0
C117 C 0.92748 0.14085 0.86604 0.0
C118 C 0.92244 0.10265 0.76182 0.0
C119 C 0.92668 0.20531 0.87324 0.0
H120 H 0.93587 0.22735 0.05419 0.0
N121 N 0.91504 0.31691 0.67645 0.0
C122 C 0.92023 0.29407 0.77577 0.0
C123 C 0.92649 0.39763 0.87422 0.0
C124 C 0.92577 0.33412 0.87802 0.0
C125 C 0.91773 0.3778 0.66795 0.0
C126 C 0.92288 0.41929 0.76756 0.0
O127 O 0.87285 0.28362 0.34855 0.0
O128 O 0.89496 0.22023 0.3285 0.0
O129 O 0.92844 0.27504 0.44329 0.0
O130 O 0.9263 0.17979 0.46742 0.0
O131 O 0.86882 0.17071 0.54491 0.0
O132 O 0.89213 0.157 0.43438 0.0
O133 O 0.89191 0.21905 0.68004 0.0
O134 O 0.8707 0.28589 0.70361 0.0
O135 O 0.83724 0.22895 0.5857 0.0
O136 O 0.84026 0.32719 0.59661 0.0
O137 O 0.89706 0.33335 0.4734 0.0
O138 O 0.87417 0.34936 0.58726 0.0
C139 C 0.88349 0.25029 0.28058 0.0
C140 C 0.87963 0.13455 0.48326 0.0
C141 C 0.94726 0.20125 0.34185 0.0
C142 C 0.97536 0.18224 0.28684 0.0
C143 C 0.95413 0.13367 0.15766 0.0
C144 C 0.9426 0.16214 0.23711 0.0
C145 C 0.97034 0.14337 0.18217 0.0
C146 C 0.96363 0.21153 0.36588 0.0
C147 C 0.93563 0.22191 0.43763 0.0
C148 C 0.93101 0.30952 0.97903 0.0
C149 C 0.93152 0.24538 0.97641 0.0
H150 H 0.93066 0.42983 0.95083 0.0
C151 C 0.88158 0.25306 0.75043 0.0
C152 C 0.88585 0.37033 0.5269 0.0
C153 C 0.81379 0.28894 0.57109 0.0
C154 C 0.78498 0.27745 0.60066 0.0
C155 C 0.79483 0.32286 0.4314 0.0
C156 C 0.81049 0.31566 0.46831 0.0
C157 C 0.78216 0.30422 0.49709 0.0
C158 C 0.80093 0.27003 0.63747 0.0
C159 C 0.8305 0.28296 0.61184 0.0
H160 H 0.95056 0.10188 0.079 0.0
H161 H 0.93011 0.15205 0.21886 0.0
H162 H 0.97893 0.11794 0.12182 0.0
H163 H 0.96722 0.24 0.44904 0.0
H164 H 0.79249 0.34397 0.35243 0.0
H165 H 0.81994 0.33225 0.41734 0.0
H166 H 0.77011 0.3122 0.46831 0.0
H167 H 0.80331 0.24989 0.71764 0.0
C168 C 0.08656 0.80175 0.33334 0.0
C169 C 0.07847 0.70944 0.19686 0.0
C170 C 0.08734 0.73751 0.29708 0.0
C171 C 0.06821 0.74566 0.13793 0.0
C172 C 0.07649 0.83808 0.27239 0.0
C173 C 0.06699 0.80942 0.17752 0.0
N174 N 0.09522 0.82834 0.43046 0.0
C175 C 0.09452 0.89072 0.46904 0.0
C176 C 0.07604 0.90221 0.30979 0.0
C177 C 0.08524 0.92862 0.40759 0.0
Gd178 Gd 0.15578 0.7453 0.52743 0.0
Gd179 Gd 0.1076 0.75748 0.53676 0.0
N180 N 0.09693 0.70279 0.3589 0.0
C181 C 0.07984 0.64545 0.16069 0.0
C182 C 0.09772 0.64006 0.32694 0.0
C183 C 0.08952 0.61069 0.22594 0.0
H184 H 0.10431 0.61201 0.38 0.0
H185 H 0.09034 0.56098 0.20024 0.0
H186 H 0.16307 0.90068 0.59334 0.0
H187 H 0.10038 0.91116 0.55074 0.0
H188 H 0.17127 0.97534 0.76799 0.0
H189 H 0.07326 0.62228 0.08386 0.0
H190 H 0.06097 0.72467 0.06285 0.0
H191 H 0.16311 0.60558 0.59696 0.0
H192 H 0.06854 0.93166 0.26428 0.0
H193 H 0.08483 0.97796 0.4381 0.0
H194 H 0.18664 0.84923 0.05993 0.0
H195 H 0.05847 0.83631 0.1356 0.0
H196 H 0.18448 0.62888 0.94664 0.0
H197 H 0.17481 0.56019 0.76543 0.0
N198 N 0.1657 0.69824 0.68462 0.0
C199 C 0.17144 0.73708 0.78139 0.0
C200 C 0.16707 0.63556 0.67679 0.0
C201 C 0.17933 0.64891 0.87329 0.0
C202 C 0.17382 0.60993 0.77134 0.0
C203 C 0.17818 0.71327 0.87935 0.0
H204 H 0.18854 0.73678 0.05674 0.0
N205 N 0.16431 0.82249 0.68469 0.0
C206 C 0.17034 0.80079 0.78266 0.0
C207 C 0.17572 0.90548 0.87895 0.0
C208 C 0.17604 0.84187 0.88283 0.0
C209 C 0.16552 0.88399 0.67637 0.0
C210 C 0.17073 0.9265 0.77435 0.0
O211 O 0.11847 0.7541 0.34872 0.0
O212 O 0.14602 0.74156 0.3374 0.0
O213 O 0.17819 0.78319 0.47306 0.0
O214 O 0.17451 0.68454 0.44244 0.0
O215 O 0.11833 0.66379 0.55954 0.0
O216 O 0.1421 0.65869 0.45352 0.0
O217 O 0.14165 0.72331 0.69208 0.0
O218 O 0.12066 0.79103 0.71248 0.0
O219 O 0.09131 0.71052 0.6479 0.0
O220 O 0.08373 0.79051 0.57544 0.0
O221 O 0.14413 0.83223 0.48035 0.0
O222 O 0.12183 0.84464 0.60089 0.0
C223 C 0.13195 0.74754 0.28733 0.0
C224 C 0.13074 0.63265 0.5088 0.0
C225 C 0.20133 0.7202 0.46654 0.0
C226 C 0.22982 0.72388 0.41731 0.0
C227 C 0.22126 0.68946 0.60224 0.0
C228 C 0.20534 0.6983 0.57313 0.0
C229 C 0.23341 0.70202 0.52514 0.0
C230 C 0.21364 0.73321 0.38896 0.0
C231 C 0.18446 0.72938 0.43437 0.0
C232 C 0.18232 0.81827 0.98209 0.0
C233 C 0.18346 0.7542 0.98012 0.0
H234 H 0.17994 0.93851 0.95414 0.0
C235 C 0.13126 0.75778 0.76123 0.0
C236 C 0.13276 0.86716 0.53584 0.0
C237 C 0.06916 0.77151 0.73916 0.0
C238 C 0.04178 0.79263 0.8126 0.0
C239 C 0.0642 0.85217 0.90796 0.0
C240 C 0.07479 0.8183 0.82814 0.0
C241 C 0.04786 0.83941 0.90086 0.0
C242 C 0.05263 0.75844 0.73195 0.0
C243 C 0.07952 0.74819 0.63662 0.0
H244 H 0.22419 0.67243 0.68473 0.0
H245 H 0.19625 0.68768 0.63392 0.0
H246 H 0.24565 0.69382 0.54926 0.0
H247 H 0.21062 0.75103 0.30734 0.0
H248 H 0.06863 0.88954 0.97409 0.0
H249 H 0.08724 0.8311 0.83079 0.0
H250 H 0.03991 0.86759 0.96247 0.0
H251 H 0.04819 0.72366 0.66054 0.0
C252 C 0.84465 0.73824 0.75579 0.0
C253 C 0.83951 0.84392 0.84994 0.0
C254 C 0.8452 0.80154 0.7516 0.0
C255 C 0.83395 0.82213 0.95316 0.0
C256 C 0.83851 0.71614 0.85746 0.0
C257 C 0.83339 0.75844 0.95671 0.0
N258 N 0.85045 0.69817 0.66119 0.0
C259 C 0.84948 0.63564 0.65838 0.0
C260 C 0.83797 0.65205 0.85692 0.0
C261 C 0.84331 0.61162 0.7565 0.0
Gd262 Gd 0.90726 0.76484 0.50933 0.0
Gd263 Gd 0.85947 0.74195 0.49749 0.0
N264 N 0.85056 0.82142 0.64992 0.0
C265 C 0.83904 0.90686 0.84016 0.0
C266 C 0.84829 0.88179 0.63567 0.0
C267 C 0.8431 0.92565 0.73154 0.0
H268 H 0.84989 0.89654 0.54974 0.0
H269 H 0.84183 0.9737 0.72046 0.0
H270 H 0.91236 0.62735 0.32966 0.0
H271 H 0.8536 0.60447 0.58053 0.0
H272 H 0.92692 0.5876 0.14354 0.0
H273 H 0.83481 0.94086 0.91374 0.0
H274 H 0.8297 0.85414 0.02976 0.0
H275 H 0.91363 0.91949 0.56135 0.0
H276 H 0.83364 0.63332 0.93385 0.0
H277 H 0.84284 0.56206 0.75521 0.0
H278 H 0.95295 0.76634 0.03752 0.0
H279 H 0.82885 0.74242 0.03632 0.0
H280 H 0.94348 0.96314 0.27938 0.0
H281 H 0.92805 0.99663 0.46491 0.0
N282 N 0.91898 0.8444 0.42283 0.0
C283 C 0.92742 0.82473 0.32047 0.0
C284 C 0.91935 0.90499 0.47588 0.0
C285 C 0.93661 0.92941 0.31855 0.0
C286 C 0.92786 0.94858 0.42306 0.0
C287 C 0.93669 0.86679 0.26722 0.0
H288 H 0.95365 0.87657 0.12775 0.0
N289 N 0.91864 0.72125 0.32612 0.0
C290 C 0.92745 0.76163 0.27191 0.0
C291 C 0.93593 0.67723 0.12047 0.0
C292 C 0.93637 0.74036 0.16779 0.0
C293 C 0.9187 0.65932 0.28328 0.0
C294 C 0.92707 0.63661 0.17845 0.0
O295 O 0.87442 0.72311 0.66117 0.0
O296 O 0.89392 0.79675 0.68419 0.0
O297 O 0.92275 0.71892 0.62784 0.0
O298 O 0.93155 0.79368 0.54521 0.0
O299 O 0.86959 0.83095 0.44526 0.0
O300 O 0.89142 0.84771 0.5696 0.0
O301 O 0.89624 0.7569 0.32056 0.0
O302 O 0.86877 0.74125 0.30681 0.0
O303 O 0.8356 0.77159 0.44735 0.0
O304 O 0.84156 0.67466 0.42776 0.0
O305 O 0.8983 0.6681 0.52524 0.0
O306 O 0.87386 0.65568 0.42672 0.0
C307 C 0.88398 0.76071 0.73204 0.0
C308 C 0.88075 0.86787 0.49907 0.0
C309 C 0.94504 0.7794 0.71704 0.0
C310 C 0.9721 0.79862 0.79834 0.0
C311 C 0.94986 0.86415 0.87869 0.0
C312 C 0.93941 0.82963 0.79858 0.0
C313 C 0.96604 0.84867 0.8794 0.0
C314 C 0.96142 0.76389 0.71718 0.0
C315 C 0.93501 0.75376 0.61386 0.0
C316 C 0.94571 0.78229 0.11578 0.0
C317 C 0.94601 0.84506 0.16624 0.0
H318 H 0.94259 0.65924 0.04024 0.0
C319 C 0.88284 0.74886 0.25792 0.0
C320 C 0.88636 0.63329 0.477 0.0
C321 C 0.81911 0.7003 0.31529 0.0
C322 C 0.7915 0.70068 0.24091 0.0
C323 C 0.81152 0.63451 0.12989 0.0
C324 C 0.82312 0.65652 0.21485 0.0
C325 C 0.79589 0.65637 0.14246 0.0
C326 C 0.80325 0.72279 0.32721 0.0
C327 C 0.83053 0.71516 0.41647 0.0
H328 H 0.94546 0.90412 0.93852 0.0
H329 H 0.92712 0.84435 0.79508 0.0
H330 H 0.97393 0.87712 0.9411 0.0
H331 H 0.96594 0.72661 0.651 0.0
H332 H 0.81455 0.59922 0.05505 0.0
H333 H 0.83508 0.63772 0.20394 0.0
H334 H 0.78715 0.63832 0.07515 0.0
H335 H 0.79991 0.75519 0.40608 0.0
C336 C 0.59803 0.75224 0.30483 0.0
C337 C 0.5958 0.86059 0.39055 0.0
C338 C 0.59916 0.81427 0.29196 0.0
C339 C 0.59288 0.84375 0.50384 0.0
C340 C 0.5941 0.73504 0.41634 0.0
C341 C 0.59213 0.78106 0.51656 0.0
N342 N 0.60064 0.7085 0.20738 0.0
C343 C 0.59754 0.64757 0.21077 0.0
C344 C 0.59218 0.67204 0.42338 0.0
C345 C 0.59357 0.62821 0.31947 0.0
Gd346 Gd 0.65655 0.75067 1.01185 0.0
Gd347 Gd 0.6088 0.74411 0.03232 0.0
N348 N 0.60227 0.82904 0.18126 0.0
C349 C 0.59476 0.92209 0.37114 0.0
C350 C 0.59935 0.88782 0.15957 0.0
C351 C 0.59598 0.93542 0.25439 0.0
H352 H 0.59947 0.89842 0.06923 0.0
H353 H 0.59425 0.98231 0.23718 0.0
H354 H 0.66816 0.6228 0.83 0.0
H355 H 0.59851 0.61405 0.12988 0.0
H356 H 0.67565 0.59263 0.61566 0.0
H357 H 0.59216 0.95904 0.44438 0.0
H358 H 0.59078 0.87879 0.5814 0.0
H359 H 0.66716 0.90173 0.08439 0.0
H360 H 0.58923 0.65697 0.50777 0.0
H361 H 0.59165 0.5796 0.32315 0.0
H362 H 0.67716 0.78581 0.46457 0.0
H363 H 0.58977 0.76834 0.60351 0.0
H364 H 0.6758 0.97104 0.75522 0.0
H365 H 0.67381 0.98861 0.97683 0.0
N366 N 0.66443 0.83676 0.92418 0.0
C367 C 0.66736 0.82464 0.80423 0.0
C368 C 0.66782 0.89379 0.9874 0.0
C369 C 0.67281 0.93284 0.80177 0.0
C370 C 0.67168 0.943 0.92694 0.0
C371 C 0.67118 0.87265 0.73911 0.0
H372 H 0.67648 0.89493 0.56271 0.0
N373 N 0.66557 0.7179 0.81584 0.0
C374 C 0.6682 0.76335 0.74883 0.0
C375 C 0.67468 0.6863 0.57789 0.0
C376 C 0.67244 0.74864 0.62703 0.0
C377 C 0.66917 0.65764 0.77227 0.0
C378 C 0.67343 0.64071 0.6517 0.0
O379 O 0.62506 0.71281 0.17976 0.0
O380 O 0.64629 0.77841 0.20353 0.0
O381 O 0.67264 0.70639 0.12675 0.0
O382 O 0.6821 0.76578 1.01035 0.0
O383 O 0.61982 0.8293 0.97599 0.0
O384 O 0.6427 0.83722 0.0885 0.0
O385 O 0.64141 0.712 0.84294 0.0
O386 O 0.61824 0.76734 0.85069 0.0
O387 O 0.58343 0.76179 0.04718 0.0
O388 O 0.59188 0.69233 0.90594 0.0
O389 O 0.64721 0.65349 1.01689 0.0
O390 O 0.61961 0.64874 0.9769 0.0
C391 C 0.63522 0.74691 0.2521 0.0
C392 C 0.63168 0.86219 0.02819 0.0
C393 C 0.69667 0.76209 0.18546 0.0
C394 C 0.72406 0.7751 0.26418 0.0
C395 C 0.70277 0.84421 0.34972 0.0
C396 C 0.69187 0.81357 0.26756 0.0
C397 C 0.71866 0.82485 0.34912 0.0
C398 C 0.71281 0.74318 0.18342 0.0
C399 C 0.6854 0.73278 0.09272 0.0
C400 C 0.67462 0.79653 0.55928 0.0
C401 C 0.67407 0.85849 0.61513 0.0
H402 H 0.67788 0.67312 0.48431 0.0
C403 C 0.63055 0.74164 0.78761 0.0
C404 C 0.63366 0.62302 0.99135 0.0
C405 C 0.56806 0.74766 0.87351 0.0
C406 C 0.5404 0.7612 0.81086 0.0
C407 C 0.56174 0.82315 0.74414 0.0
C408 C 0.57285 0.79465 0.80993 0.0
C409 C 0.54567 0.8065 0.7441 0.0
C410 C 0.55179 0.73094 0.87382 0.0
C411 C 0.57949 0.72283 0.95342 0.0
H412 H 0.69892 0.88347 0.41387 0.0
H413 H 0.67967 0.8301 0.26795 0.0
H414 H 0.72673 0.84908 0.41532 0.0
H415 H 0.71669 0.70506 0.11642 0.0
H416 H 0.56554 0.8591 0.69455 0.0
H417 H 0.58516 0.8099 0.8128 0.0
H418 H 0.53731 0.82952 0.69251 0.0
H419 H 0.54792 0.69647 0.927 0.0
C420 C 0.34192 0.73462 0.76152 0.0
C421 C 0.33519 0.62659 0.69591 0.0
C422 C 0.34137 0.67376 0.7835 0.0
C423 C 0.32953 0.64142 0.58657 0.0
C424 C 0.3362 0.74964 0.65198 0.0
C425 C 0.33001 0.70276 0.56477 0.0
N426 N 0.34864 0.77867 0.84558 0.0
C427 C 0.34872 0.8392 0.82986 0.0
C428 C 0.33706 0.81127 0.63281 0.0
C429 C 0.34319 0.85632 0.7227 0.0
Gd430 Gd 0.40463 0.76463 0.04107 0.0
Gd431 Gd 0.35754 0.74478 0.02209 0.0
N432 N 0.34731 0.66049 0.88899 0.0
C433 C 0.33503 0.56575 0.72034 0.0
C434 C 0.34675 0.60156 0.91465 0.0
C435 C 0.34076 0.55328 0.83043 0.0
H436 H 0.3507 0.59168 1.00072 0.0
H437 H 0.3405 0.5065 0.85066 0.0
H438 H 0.41341 0.91418 0.0254 0.0
H439 H 0.35253 0.87464 0.90094 0.0
H440 H 0.42577 1.00291 0.15381 0.0
H441 H 0.33044 0.52818 0.6552 0.0
H442 H 0.32481 0.60573 0.51807 0.0
H443 H 0.40646 0.64644 0.19695 0.0
H444 H 0.33284 0.82466 0.54972 0.0
H445 H 0.34348 0.90437 0.71012 0.0
H446 H 0.4419 0.92181 0.50695 0.0
H447 H 0.32565 0.7134 0.47981 0.0
H448 H 0.42869 0.71156 0.53432 0.0
H449 H 0.41584 0.6271 0.3955 0.0
N450 N 0.41286 0.74136 0.22741 0.0
C451 C 0.42071 0.78747 0.29958 0.0
C452 C 0.41166 0.6837 0.25822 0.0
C453 C 0.42458 0.72007 0.44757 0.0
C454 C 0.41719 0.67248 0.36982 0.0
C455 C 0.42668 0.77807 0.41218 0.0
H456 H 0.43908 0.82033 0.57297 0.0
N457 N 0.41598 0.85318 0.15429 0.0
C458 C 0.42215 0.84509 0.26254 0.0
C459 C 0.43088 0.95171 0.29788 0.0
C460 C 0.42976 0.89425 0.33724 0.0
C461 C 0.41748 0.90866 0.11398 0.0
C462 C 0.42474 0.95889 0.18574 0.0
O463 O 0.37189 0.72038 0.84483 0.0
O464 O 0.3947 0.77972 0.85874 0.0
O465 O 0.42809 0.79041 0.97971 0.0
O466 O 0.42257 0.69444 0.98691 0.0
O467 O 0.37088 0.66705 0.08809 0.0
O468 O 0.39424 0.66789 0.9819 0.0
O469 O 0.39031 0.7906 0.21786 0.0
O470 O 0.36804 0.72873 0.20223 0.0
O471 O 0.33493 0.71019 0.08025 0.0
O472 O 0.3393 0.80851 0.10417 0.0
O473 O 0.39151 0.84253 0.97373 0.0
O474 O 0.36781 0.84222 0.07724 0.0
C475 C 0.38296 0.75096 0.79428 0.0
C476 C 0.38331 0.63833 0.03487 0.0
C477 C 0.44449 0.71373 0.86397 0.0
C478 C 0.47205 0.70519 0.78963 0.0
C479 C 0.45041 0.65271 0.67042 0.0
C480 C 0.43937 0.67595 0.75891 0.0
C481 C 0.46661 0.6671 0.68543 0.0
C482 C 0.46084 0.72829 0.87885 0.0
C483 C 0.43337 0.73379 0.96397 0.0
C484 C 0.43597 0.88463 0.44865 0.0
C485 C 0.43439 0.82679 0.48617 0.0
H486 H 0.43661 0.99058 0.35278 0.0
C487 C 0.37893 0.76161 0.26853 0.0
C488 C 0.37903 0.87141 0.0259 0.0
C489 C 0.31238 0.77506 0.07553 0.0
C490 C 0.28355 0.77058 0.11169 0.0
C491 C 0.29363 0.80909 0.93497 0.0
C492 C 0.30928 0.79918 0.96964 0.0
C493 C 0.28085 0.79523 1.00546 0.0
C494 C 0.29945 0.76085 0.14643 0.0
C495 C 0.32896 0.76502 0.11363 0.0
H496 H 0.4464 0.62325 0.58977 0.0
H497 H 0.4269 0.66373 0.74609 0.0
H498 H 0.47487 0.64882 0.61496 0.0
H499 H 0.46486 0.75613 0.96147 0.0
H500 H 0.29139 0.82819 0.85355 0.0
H501 H 0.31891 0.81103 0.91419 0.0
H502 H 0.26886 0.80487 0.97781 0.0
H503 H 0.30177 0.74205 0.22822 0.0
C504 C 0.59069 0.26339 0.75675 0.0
C505 C 0.58536 0.16017 0.64961 0.0
C506 C 0.5922 0.19915 0.74832 0.0
C507 C 0.57731 0.1861 0.56019 0.0
C508 C 0.58217 0.2893 0.66891 0.0
C509 C 0.57555 0.2503 0.57069 0.0
N510 N 0.59767 0.30061 0.85065 0.0
C511 C 0.59641 0.36361 0.86307 0.0
C512 C 0.58041 0.35374 0.68324 0.0
C513 C 0.5876 0.39105 0.78031 0.0
Gd514 Gd 0.65648 0.23207 0.99078 0.0
Gd515 Gd 0.6087 0.24968 0.9988 0.0
N516 N 0.59963 0.17485 0.83847 0.0
C517 C 0.58616 0.09606 0.64592 0.0
C518 C 0.59863 0.11261 0.84109 0.0
C519 C 0.59255 0.07227 0.7432 0.0
H520 H 0.60167 0.09322 0.91994 0.0
H521 H 0.59225 0.02292 0.74495 0.0
H522 H 0.66493 0.38676 0.06535 0.0
H523 H 0.60162 0.39237 0.93988 0.0
H524 H 0.67439 0.45749 0.24082 0.0
H525 H 0.5811 0.06472 0.57148 0.0
H526 H 0.57198 0.15676 0.48417 0.0
H527 H 0.66297 0.09014 0.05157 0.0
H528 H 0.57356 0.37528 0.61996 0.0
H529 H 0.58634 0.44088 0.79152 0.0
H530 H 0.69005 0.32434 0.51946 0.0
H531 H 0.56888 0.26912 0.50278 0.0
H532 H 0.68517 0.10524 0.39729 0.0
H533 H 0.67436 0.04038 0.21541 0.0
N534 N 0.66659 0.18135 0.14286 0.0
C535 C 0.67303 0.21804 0.23982 0.0
C536 C 0.66733 0.11844 0.13193 0.0
C537 C 0.68011 0.12715 0.32604 0.0
C538 C 0.67396 0.09035 0.22375 0.0
C539 C 0.67974 0.19178 0.33499 0.0
H540 H 0.69083 0.21134 0.51046 0.0
N541 N 0.66619 0.30611 0.15001 0.0
C542 C 0.67249 0.28208 0.24458 0.0
C543 C 0.67892 0.38496 0.3453 0.0
C544 C 0.67883 0.32101 0.34524 0.0
C545 C 0.66769 0.36798 0.14562 0.0
C546 C 0.6736 0.40838 0.24415 0.0
O547 O 0.62122 0.2687 0.82571 0.0
O548 O 0.64459 0.21223 0.80521 0.0
O549 O 0.67811 0.27055 0.92287 0.0
O550 O 0.67538 0.17191 0.90781 0.0
O551 O 0.61928 0.15948 0.04057 0.0
O552 O 0.64194 0.14674 0.9235 0.0
O553 O 0.64322 0.2154 0.16248 0.0
O554 O 0.62099 0.27805 0.18123 0.0
O555 O 0.58847 0.21136 0.08896 0.0
O556 O 0.5876 0.30381 0.04758 0.0
O557 O 0.64581 0.32253 0.9518 0.0
O558 O 0.62304 0.33511 0.06791 0.0
C559 C 0.63289 0.24142 0.75841 0.0
C560 C 0.6308 0.1245 0.98664 0.0
C561 C 0.70181 0.21096 0.92853 0.0
C562 C 0.73042 0.22031 0.88777 0.0
C563 C 0.72157 0.17935 0.06501 0.0
C564 C 0.70571 0.18615 0.03239 0.0
C565 C 0.73384 0.1962 0.99348 0.0
C566 C 0.71427 0.22811 0.85626 0.0
C567 C 0.68491 0.21689 0.89266 0.0
C568 C 0.68523 0.29502 0.44132 0.0
C569 C 0.68573 0.23063 0.43605 0.0
H570 H 0.68365 0.4164 0.42096 0.0
C571 C 0.63253 0.24891 0.23022 0.0
C572 C 0.63442 0.3577 1.00715 0.0
C573 C 0.56916 0.28305 0.19117 0.0
C574 C 0.54169 0.2988 0.26415 0.0
C575 C 0.56344 0.35946 0.36583 0.0
C576 C 0.57439 0.32856 0.28465 0.0
C577 C 0.54726 0.34418 0.35705 0.0
C578 C 0.55277 0.26825 0.1812 0.0
C579 C 0.57986 0.26104 0.08991 0.0
H580 H 0.72436 0.16012 0.14541 0.0
H581 H 0.69658 0.17101 0.08786 0.0
H582 H 0.74606 0.18913 0.01969 0.0
H583 H 0.71139 0.24736 0.77593 0.0
H584 H 0.56745 0.39653 0.43406 0.0
H585 H 0.58682 0.34226 0.29127 0.0
H586 H 0.539 0.36949 0.42042 0.0
H587 H 0.54859 0.23479 0.10648 0.0
C588 C 0.34123 0.30122 0.27323 0.0
C589 C 0.33346 0.40934 0.2942 0.0
C590 C 0.34049 0.35641 0.22668 0.0
C591 C 0.3273 0.40603 0.40887 0.0
C592 C 0.33509 0.29776 0.38819 0.0
C593 C 0.32809 0.35038 0.45566 0.0
N594 N 0.34852 0.25144 0.20753 0.0
C595 C 0.34885 0.19555 0.24683 0.0
C596 C 0.33635 0.24165 0.43249 0.0
C597 C 0.34308 0.19009 0.36104 0.0
Gd598 Gd 0.40498 0.24196 0.99491 0.0
Gd599 Gd 0.35775 0.2652 1.01747 0.0
N600 N 0.34653 0.35821 0.11533 0.0
C601 C 0.33271 0.46393 0.2441 0.0
C602 C 0.34518 0.41062 0.06402 0.0
C603 C 0.33847 0.46438 0.12817 0.0
H604 H 0.34909 0.41102 0.97288 0.0
H605 H 0.3376 0.50597 0.08779 0.0
H606 H 0.41154 0.08852 0.98592 0.0
H607 H 0.3538 0.15562 0.19069 0.0
H608 H 0.42078 1.00024 0.83925 0.0
H609 H 0.32747 0.50564 0.29334 0.0
H610 H 0.3219 0.44627 0.46205 0.0
H611 H 0.40856 0.36688 0.85945 0.0
H612 H 0.33211 0.23784 0.52145 0.0
H613 H 0.34382 0.14623 0.39386 0.0
H614 H 0.43464 0.09038 0.49155 0.0
H615 H 0.32335 0.34861 0.54442 0.0
H616 H 0.42542 0.30718 0.50293 0.0
H617 H 0.41601 0.39108 0.66006 0.0
N618 N 0.41267 0.27063 0.812 0.0
C619 C 0.419 0.22466 0.73007 0.0
C620 C 0.41227 0.33016 0.79038 0.0
C621 C 0.42243 0.29684 0.59063 0.0
C622 C 0.41683 0.34406 0.6785 0.0
C623 C 0.42394 0.23658 0.6165 0.0
H624 H 0.4334 0.19612 0.44311 0.0
N625 N 0.41409 0.15406 0.866 0.0
C626 C 0.41956 0.16464 0.75729 0.0
C627 C 0.42546 0.05575 0.70121 0.0
C628 C 0.42522 0.11556 0.67148 0.0
C629 C 0.41488 0.09625 0.89711 0.0
C630 C 0.42038 0.04616 0.81478 0.0
O631 O 0.37153 0.28525 0.19751 0.0
O632 O 0.39591 0.2343 0.18385 0.0
O633 O 0.42784 0.2089 0.05533 0.0
O634 O 0.42485 0.3048 0.03558 0.0
O635 O 0.37184 0.34088 0.95105 0.0
O636 O 0.39518 0.33932 0.05759 0.0
O637 O 0.38939 0.21567 0.82324 0.0
O638 O 0.36788 0.28131 0.83725 0.0
O639 O 0.33391 0.28794 0.9585 0.0
O640 O 0.34092 0.19234 0.95142 0.0
O641 O 0.39213 0.16622 0.07107 0.0
O642 O 0.36813 0.16727 0.97157 0.0
C643 C 0.38391 0.26158 0.24788 0.0
C644 C 0.38396 0.36953 1.00861 0.0
C645 C 0.4451 0.28309 0.16873 0.0
C646 C 0.47216 0.29565 0.25325 0.0
C647 C 0.44942 0.34521 0.36371 0.0
C648 C 0.43911 0.32023 0.27162 0.0
C649 C 0.46574 0.33291 0.3551 0.0
C650 C 0.46165 0.27057 0.16002 0.0
C651 C 0.43456 0.26307 0.06487 0.0
C652 C 0.4303 0.12752 0.55861 0.0
C653 C 0.42964 0.1878 0.53113 0.0
H654 H 0.42965 0.01679 0.63753 0.0
C655 C 0.37894 0.24891 0.77191 0.0
C656 C 0.37887 0.13888 0.02927 0.0
C657 C 0.31941 0.21294 0.82378 0.0
C658 C 0.29287 0.2119 0.73018 0.0
C659 C 0.31484 0.15319 0.62658 0.0
C660 C 0.32509 0.17353 0.72243 0.0
C661 C 0.2989 0.17221 0.63005 0.0
C662 C 0.30329 0.2321 0.82697 0.0
C663 C 0.32961 0.23042 0.93106 0.0
H664 H 0.4448 0.37522 0.44154 0.0
H665 H 0.4265 0.33118 0.27934 0.0
H666 H 0.47344 0.35406 0.42723 0.0
H667 H 0.4663 0.24215 0.08021 0.0
H668 H 0.3193 0.12267 0.54882 0.0
H669 H 0.33737 0.15793 0.71781 0.0
H670 H 0.29131 0.15617 0.55379 0.0
H671 H 0.29878 0.26113 0.90659 0.0
C672 C 0.24795 0.20839 0.69959 0.0
C673 C 0.24367 0.27037 0.7422 0.0
C674 C 0.2637 0.18877 0.69569 0.0
C675 C 0.27568 0.23101 0.7338 0.0
H676 H 0.2388 0.17413 0.67206 0.0
H677 H 0.26643 0.14049 0.66472 0.0
S678 S 0.27415 0.4141 0.85297 0.0
N679 N 0.27095 0.33655 0.80031 0.0
N680 N 0.28058 0.34178 0.80771 0.0
C681 C 0.27055 0.29775 0.77584 0.0
C682 C 0.2547 0.31905 0.78253 0.0
C683 C 0.75723 0.26868 0.86488 0.0
C684 C 0.74391 0.23588 0.81138 0.0
C685 C 0.77057 0.28064 0.79682 0.0
C686 C 0.77115 0.26045 0.67224 0.0
H687 H 0.75732 0.28558 0.96043 0.0
H688 H 0.78037 0.30698 0.84187 0.0
S689 S 0.73991 0.16923 0.48937 0.0
N690 N 0.73251 0.1811 0.62669 0.0
N691 N 0.7575 0.20361 0.49876 0.0
C692 C 0.75799 0.22711 0.61763 0.0
C693 C 0.7444 0.21495 0.687 0.0
C694 C 0.26988 0.77848 0.31192 0.0
C695 C 0.26977 0.75722 0.18756 0.0
C696 C 0.25684 0.76846 0.38457 0.0
C697 C 0.24311 0.73658 0.33621 0.0
H698 H 0.28004 0.80397 0.35333 0.0
H699 H 0.25748 0.78624 0.47964 0.0
S700 S 0.23718 0.66795 1.01687 0.0
N701 N 0.25497 0.70055 0.01981 0.0
N702 N 0.23053 0.68164 0.15629 0.0
C703 C 0.24287 0.71471 0.21204 0.0
C704 C 0.25616 0.72495 0.13794 0.0
C705 C 0.74595 0.69463 0.24739 0.0
C706 C 0.74139 0.75732 0.25975 0.0
C707 C 0.76211 0.67698 0.24408 0.0
C708 C 0.77447 0.72121 0.25361 0.0
H709 H 0.73694 0.65878 0.24118 0.0
H710 H 0.76498 0.62812 0.23396 0.0
S711 S 0.76919 0.89102 0.27905 0.0
N712 N 0.75081 0.86364 0.27515 0.0
N713 N 0.78105 0.83021 0.27146 0.0
C714 C 0.77014 0.78394 0.26595 0.0
C715 C 0.75368 0.80201 0.26825 0.0
C716 C 0.13074 0.97903 0.63289 0.0
C717 C 0.13307 0.93478 0.52931 0.0
C718 C 0.13174 0.04303 0.6283 0.0
C719 C 0.13432 0.06504 0.51901 0.0
H720 H 0.12855 0.96405 0.71854 0.0
H721 H 0.13024 0.07553 0.71046 0.0
S722 S 0.14138 0.96884 0.22309 0.0
N723 N 0.13898 0.91809 0.31582 0.0
N724 N 0.13917 0.03772 0.30537 0.0
C725 C 0.13641 0.02139 0.41491 0.0
C726 C 0.1362 0.95648 0.42054 0.0
C727 C 0.88659 0.45627 0.4013 0.0
C728 C 0.88622 0.43743 0.51536 0.0
C729 C 0.88633 0.51957 0.38865 0.0
C730 C 0.88651 0.56634 0.48974 0.0
H731 H 0.88668 0.42177 0.32123 0.0
H732 H 0.88625 0.53197 0.29934 0.0
S733 S 0.88659 0.54155 0.80786 0.0
N734 N 0.88595 0.47089 0.73067 0.0
N735 N 0.88708 0.589 0.70736 0.0
C736 C 0.8867 0.54791 0.60391 0.0
C737 C 0.88614 0.48376 0.61666 0.0
C738 C 0.88197 0.97932 0.59683 0.0
C739 C 0.87987 0.93555 0.4925 0.0
C740 C 0.88119 0.04329 0.59306 0.0
C741 C 0.87913 0.06645 0.48468 0.0
H742 H 0.88398 0.96403 0.68249 0.0
H743 H 0.88263 0.07496 0.67519 0.0
S744 S 0.8723 0.97194 0.18668 0.0
N745 N 0.87426 0.92037 0.27843 0.0
N746 N 0.87466 0.04043 0.27028 0.0
C747 C 0.87706 0.02335 0.37961 0.0
C748 C 0.87696 0.95807 0.384 0.0
C749 C 0.13187 0.53979 0.6162 0.0
C750 C 0.13149 0.56461 0.50806 0.0
C751 C 0.13333 0.47535 0.6161 0.0
C752 C 0.13387 0.43343 0.50784 0.0
H753 H 0.13137 0.5705 0.70136 0.0
H754 H 0.13367 0.45815 0.70109 0.0
S755 S 0.1328 0.47533 0.20119 0.0
N756 N 0.13205 0.54253 0.29092 0.0
N757 N 0.1334 0.42203 0.29 0.0
C758 C 0.1331 0.45798 0.39958 0.0
C759 C 0.13231 0.52336 0.39986 0.0
C760 C 0.62758 0.53125 0.0899 0.0
C761 C 0.63388 0.55535 0.99141 0.0
C762 C 0.62771 0.46739 0.09394 0.0
C763 C 0.63442 0.42516 1.00031 0.0
H764 H 0.6227 0.56201 0.16541 0.0
H765 H 0.62273 0.45115 0.17201 0.0
S766 S 0.65213 0.46498 0.72022 0.0
N767 N 0.64653 0.53231 0.79635 0.0
N768 N 0.64738 0.41247 0.80478 0.0
C769 C 0.64087 0.44887 0.90129 0.0
C770 C 0.64047 0.51391 0.89666 0.0
C771 C 0.37711 0.9648 0.92145 0.0
C772 C 0.37788 0.93955 0.0289 0.0
C773 C 0.37666 0.02933 0.92232 0.0
C774 C 0.37752 0.07105 0.03059 0.0
H775 H 0.37677 0.93444 0.83604 0.0
H776 H 0.37622 0.04669 0.83749 0.0
S777 S 0.38023 0.02857 0.33597 0.0
N778 N 0.37947 0.9613 0.24606 0.0
N779 N 0.37937 0.08211 0.24769 0.0
C780 C 0.37843 0.04626 0.13833 0.0
C781 C 0.37841 0.98067 0.13756 0.0
C782 C 0.38643 0.46588 0.91396 0.0
C783 C 0.38485 0.43797 0.01783 0.0
C784 C 0.38664 0.53078 0.92064 0.0
C785 C 0.38449 0.57008 0.03074 0.0
H786 H 0.38751 0.43741 0.82678 0.0
H787 H 0.38788 0.55028 0.83853 0.0
S788 S 0.37846 0.51995 0.32711 0.0
N789 N 0.38073 0.45454 0.23321 0.0
N790 N 0.37996 0.57599 0.245 0.0
C791 C 0.38244 0.54258 0.13458 0.0
C792 C 0.38289 0.4767 0.12835 0.0
C793 C 0.63133 0.01213 0.89658 0.0
C794 C 0.63119 0.05789 0.99896 0.0
C795 C 0.63129 0.9489 0.90721 0.0
C796 C 0.6321 0.92922 0.02009 0.0
H797 H 0.63103 0.02528 0.80788 0.0
H798 H 0.63094 0.91512 0.82651 0.0
S799 S 0.6325 0.03059 0.31528 0.0
N800 N 0.63123 0.07896 0.21675 0.0
N801 N 0.63331 0.96048 0.23585 0.0
C802 C 0.63253 0.97447 0.12278 0.0
C803 C 0.6315 0.03869 0.11233 0.0
C804 C 0.14334 0.20557 0.04581 0.0
C805 C 0.13352 0.2459 0.12462 0.0
C806 C 0.14431 0.20881 0.92118 0.0
C807 C 0.13509 0.25122 0.86756 0.0
H808 H 0.1503 0.17062 0.08025 0.0
H809 H 0.15211 0.17667 0.86583 0.0
S810 S 0.1066 0.36483 0.0289 0.0
N811 N 0.11369 0.32803 0.13474 0.0
N812 N 0.11557 0.33378 0.9037 0.0
C813 C 0.1249 0.29057 0.94413 0.0
C814 C 0.12403 0.2878 0.07097 0.0
C815 C 0.8786 0.30382 0.09642 0.0
C816 C 0.88312 0.25055 0.14561 0.0
C817 C 0.87795 0.30424 0.97027 0.0
C818 C 0.88172 0.25131 0.88582 0.0
H819 H 0.87563 0.346 0.15605 0.0
H820 H 0.87466 0.34684 0.93875 0.0
S821 S 0.89136 0.09676 0.96707 0.0
N822 N 0.88974 0.14185 0.09813 0.0
N823 N 0.88828 0.14204 0.86495 0.0
C824 C 0.88567 0.19735 0.93466 0.0
C825 C 0.88645 0.19711 0.0627 0.0
C826 C 0.13965 0.70669 0.07012 0.0
C827 C 0.13128 0.7499 0.15348 0.0
C828 C 0.13916 0.7086 0.94485 0.0
C829 C 0.13096 0.75553 0.89589 0.0
H830 H 0.14639 0.67011 0.10165 0.0
H831 H 0.14522 0.67236 0.88568 0.0
S832 S 0.1074 0.88132 0.07547 0.0
N833 N 0.11415 0.84046 0.17629 0.0
N834 N 0.11441 0.8472 0.945 0.0
C835 C 0.12264 0.79928 0.97883 0.0
C836 C 0.12258 0.79582 0.10581 0.0
C837 C 0.87651 0.71022 0.9148 0.0
C838 C 0.88431 0.75824 0.86685 0.0
C839 C 0.87582 0.7079 0.0397 0.0
C840 C 0.88365 0.75197 0.12437 0.0
H841 H 0.87082 0.67351 0.85512 0.0
H842 H 0.86934 0.67035 0.06987 0.0
S843 S 0.90667 0.88627 0.05004 0.0
N844 N 0.90014 0.85152 0.91849 0.0
N845 N 0.90003 0.84461 0.14979 0.0
C846 C 0.89205 0.7991 0.07806 0.0
C847 C 0.89217 0.80276 0.95104 0.0
C848 C 0.63378 0.79955 0.47511 0.0
C849 C 0.63485 0.74503 0.38893 0.0
C850 C 0.63195 0.7981 0.60111 0.0
C851 C 0.63163 0.74219 0.65048 0.0
H852 H 0.63389 0.84411 0.44462 0.0
H853 H 0.63102 0.84164 0.66062 0.0
S854 S 0.6346 0.58581 0.46696 0.0
N855 N 0.63551 0.63292 0.36596 0.0
N856 N 0.63291 0.63048 0.5988 0.0
C857 C 0.63304 0.68751 0.56549 0.0
C858 C 0.63442 0.68887 0.43702 0.0
C859 C 0.37455 0.70735 0.5787 0.0
C860 C 0.38201 0.75436 0.66037 0.0
C861 C 0.37324 0.71075 0.4542 0.0
C862 C 0.37943 0.76108 0.40365 0.0
H863 H 0.36973 0.6671 0.61102 0.0
H864 H 0.36745 0.67298 0.39683 0.0
S865 S 0.39795 0.90107 0.5796 0.0
N866 N 0.39449 0.85565 0.68069 0.0
N867 N 0.39175 0.86245 0.45021 0.0
C868 C 0.38643 0.80934 0.48499 0.0
C869 C 0.38784 0.80576 0.61153 0.0
C870 C 0.64026 0.2009 0.41575 0.0
C871 C 0.63277 0.24898 0.3656 0.0
C872 C 0.64035 0.19894 0.541 0.0
C873 C 0.63307 0.24546 0.62443 0.0
H874 H 0.6461 0.16379 0.35769 0.0
H875 H 0.64607 0.16002 0.57241 0.0
S876 S 0.61476 0.38882 0.54435 0.0
N877 N 0.61956 0.34838 0.41326 0.0
N878 N 0.62014 0.34614 0.64634 0.0
C879 C 0.62623 0.29553 0.5761 0.0
C880 C 0.62598 0.29699 0.44821 0.0
C881 C 0.38907 0.20944 0.4325 0.0
C882 C 0.3834 0.26081 0.38268 0.0
C883 C 0.38718 0.20491 0.55608 0.0
C884 C 0.38011 0.25272 0.63822 0.0
H885 H 0.3949 0.17179 0.37523 0.0
H886 H 0.39144 0.16354 0.58759 0.0
S887 S 0.36561 0.40212 0.55913 0.0
N888 N 0.37164 0.36314 0.42958 0.0
N889 N 0.36863 0.35599 0.65974 0.0
C890 C 0.37492 0.3054 0.59019 0.0
C891 C 0.37654 0.30933 0.46398 0.0
C892 C 0.01344 0.16933 0.4654 0.0
C893 C 0.02562 0.17023 0.37963 0.0
C894 C 0.99733 0.17656 0.43638 0.0
C895 C 0.99266 0.18526 0.32023 0.0
H896 H 0.01633 0.16085 0.55508 0.0
H897 H 0.98844 0.17216 0.50413 0.0
S898 S 0.01996 0.19863 0.06632 0.0
N899 N 0.03193 0.18501 0.17565 0.0
N900 N 1.00173 0.2008 0.12226 0.0
C901 C 1.00479 0.19012 0.23561 0.0
C902 C 0.02122 0.18233 0.26506 0.0
C903 C 0.99805 0.78377 0.90249 0.0
C904 C 0.98971 0.78681 0.79505 0.0
C905 C 0.01482 0.78222 0.9058 0.0
C906 C 0.02405 0.7839 0.80192 0.0
H907 H 0.99155 0.7844 0.98565 0.0
H908 H 0.02063 0.78156 0.99145 0.0
S909 S 0.00808 0.79142 0.49729 0.0
N910 N 0.992 0.79019 0.58145 0.0
N911 N 0.02345 0.78778 0.58768 0.0
C912 C 0.01586 0.78465 0.69294 0.0
C913 C 0.99874 0.78602 0.68953 0.0
C914 C 0.51742 0.68593 0.78699 0.0
C915 C 0.52299 0.74714 0.81576 0.0
C916 C 0.50098 0.67269 0.7806 0.0
C917 C 0.48944 0.72003 0.80426 0.0
H918 H 0.52583 0.64816 0.7657 0.0
H919 H 0.49727 0.62495 0.75611 0.0
S920 S 0.4978 0.88767 0.8905 0.0
N921 N 0.51562 0.85523 0.87404 0.0
N922 N 0.48486 0.83046 0.86087 0.0
C923 C 0.49487 0.78119 0.83664 0.0
C924 C 0.51158 0.79469 0.8425 0.0
C925 C 0.49844 0.27411 0.34661 0.0
C926 C 0.48987 0.2864 0.24519 0.0
C927 C 0.51519 0.27515 0.34966 0.0
C928 C 0.52415 0.28778 0.25095 0.0
H929 H 0.49212 0.26558 0.42615 0.0
H930 H 0.52119 0.26779 0.43143 0.0
S931 S 0.50777 0.32079 0.96188 0.0
N932 N 0.49183 0.30999 0.04196 0.0
N933 N 0.52328 0.31072 0.0472 0.0
C934 C 0.51583 0.29716 0.14681 0.0
C935 C 0.49872 0.29666 0.14395 0.0
loop_
_geom_bond_atom_site_label_1
_geom_bond_atom_site_label_2
_geom_bond_distance
_geom_bond_site_symmetry_2
_ccdc_geom_bond_type
C0 C2 1.422 . S
C0 C4 1.415 . S
C0 N6 1.369 . S
C1 C2 1.421 . S
C1 C3 1.417 . S
C1 C13 1.422 . S
C2 C0 1.422 . S
C2 C1 1.421 . S
C2 N12 1.359 . S
C3 C1 1.417 . S
C3 C5 1.329 . S
C3 H22 0.930 1_556 S
C4 C0 1.415 . S
C4 C5 1.437 . S
C4 C8 1.413 . S
C5 C3 1.329 . S
C5 C4 1.437 . S
C5 H27 0.929 . S
N6 C0 1.369 . S
N6 C7 1.338 . S
N6 Gd11 2.622 . S
C7 N6 1.338 . S
C7 C9 1.378 . S
C7 H19 0.929 . S
C8 C4 1.413 . S
C8 C9 1.348 . S
C8 H24 0.931 . S
C9 C7 1.378 . S
C9 C8 1.348 . S
C9 H25 0.930 . S
Gd10 N30 2.622 . S
Gd10 N37 2.570 . S
Gd10 O44 2.353 . S
Gd10 O45 2.468 . S
Gd10 O46 2.427 . S
Gd10 O48 2.388 . S
Gd10 O49 2.386 . S
Gd10 O53 2.307 . S
Gd10 C63 2.805 . S
Gd11 N6 2.622 . S
Gd11 N12 2.570 . S
Gd11 O43 2.386 . S
Gd11 O47 2.307 . S
Gd11 O50 2.353 . S
Gd11 O51 2.468 . S
Gd11 O52 2.427 . S
Gd11 O54 2.388 . S
Gd11 C75 2.805 . S
N12 C2 1.359 . S
N12 Gd11 2.570 . S
N12 C14 1.343 . S
C13 C1 1.422 . S
C13 C15 1.321 . S
C13 H21 0.931 . S
C14 N12 1.343 . S
C14 C15 1.390 . S
C14 H16 0.931 . S
C15 C13 1.321 . S
C15 C14 1.390 . S
C15 H17 0.930 . S
H16 C14 0.931 . S
H17 C15 0.930 . S
H18 C41 0.931 . S
H19 C7 0.929 . S
H20 C42 0.930 . S
H21 C13 0.931 . S
H22 C3 0.930 1_554 S
H23 C32 0.929 . S
H24 C8 0.931 . S
H25 C9 0.930 . S
H26 C64 0.930 . S
H27 C5 0.929 . S
H28 C33 0.931 . S
H29 C34 0.930 . S
N30 Gd10 2.622 . S
N30 C31 1.369 . S
N30 C32 1.338 . S
C31 N30 1.369 . S
C31 C35 1.415 . S
C31 C38 1.422 . S
C32 H23 0.929 . S
C32 N30 1.338 . S
C32 C34 1.378 . S
C33 H28 0.931 . S
C33 C34 1.348 . S
C33 C35 1.413 . S
C34 H29 0.930 . S
C34 C32 1.378 . S
C34 C33 1.348 . S
C35 C31 1.415 . S
C35 C33 1.413 . S
C35 C65 1.437 . S
H36 C65 0.929 1_556 S
N37 Gd10 2.570 . S
N37 C38 1.359 . S
N37 C41 1.343 . S
C38 C31 1.422 . S
C38 N37 1.359 . S
C38 C40 1.421 . S
C39 C40 1.422 . S
C39 C42 1.321 . S
C39 H66 0.931 1_554 S
C40 C38 1.421 . S
C40 C39 1.422 . S
C40 C64 1.417 1_554 S
C41 H18 0.931 . S
C41 N37 1.343 . S
C41 C42 1.390 . S
C42 H20 0.930 . S
C42 C39 1.321 . S
C42 C41 1.390 . S
O43 Gd11 2.386 . S
O43 C55 1.265 . S
O44 Gd10 2.353 . S
O44 C55 1.242 . S
O45 Gd10 2.468 . S
O45 C63 1.263 . S
O46 Gd10 2.427 . S
O46 C63 1.252 . S
O47 Gd11 2.307 . S
O47 C56 1.261 . S
O48 Gd10 2.388 . S
O48 C56 1.252 . S
O49 Gd10 2.386 . S
O49 C67 1.265 . S
O50 Gd11 2.353 . S
O50 C67 1.242 . S
O51 Gd11 2.468 . S
O51 C75 1.263 . S
O52 Gd11 2.427 . S
O52 C75 1.252 . S
O53 Gd10 2.307 . S
O53 C68 1.261 . S
O54 Gd11 2.388 . S
O54 C68 1.252 . S
C55 O43 1.265 . S
C55 O44 1.242 . S
C56 O47 1.261 . S
C56 O48 1.252 . S
C57 C60 1.394 . S
C57 C62 1.370 . S
C57 C63 1.500 . S
C58 C61 1.383 . S
C58 C62 1.395 . S
C59 C60 1.396 . S
C59 C61 1.365 . S
C59 H76 0.929 . S
C60 C57 1.394 . S
C60 C59 1.396 . S
C60 H77 0.930 . S
C61 C58 1.383 . S
C61 C59 1.365 . S
C61 H78 0.931 . S
C62 C57 1.370 . S
C62 C58 1.395 . S
C62 H79 0.930 . S
C63 Gd10 2.805 . S
C63 O45 1.263 . S
C63 O46 1.252 . S
C63 C57 1.500 . S
C64 H26 0.930 . S
C64 C40 1.417 1_556 S
C64 C65 1.329 1_556 S
C65 C35 1.437 . S
C65 H36 0.929 1_554 S
C65 C64 1.329 1_554 S
H66 C39 0.931 1_556 S
C67 O49 1.265 . S
C67 O50 1.242 . S
C68 O53 1.261 . S
C68 O54 1.252 . S
C69 C72 1.394 . S
C69 C74 1.370 . S
C69 C75 1.500 . S
C70 C73 1.383 . S
C70 C74 1.395 . S
C71 C72 1.396 . S
C71 C73 1.365 . S
C71 H80 0.929 . S
C72 C69 1.394 . S
C72 C71 1.396 . S
C72 H81 0.930 . S
C73 C70 1.383 . S
C73 C71 1.365 . S
C73 H82 0.931 . S
C74 C69 1.370 . S
C74 C70 1.395 . S
C74 H83 0.930 . S
C75 Gd11 2.805 . S
C75 O51 1.263 . S
C75 O52 1.252 . S
C75 C69 1.500 . S
H76 C59 0.929 . S
H77 C60 0.930 . S
H78 C61 0.931 . S
H79 C62 0.930 . S
H80 C71 0.929 . S
H81 C72 0.930 . S
H82 C73 0.931 . S
H83 C74 0.930 . S
C84 C86 1.422 . S
C84 C88 1.415 . S
C84 N90 1.369 . S
C85 C86 1.421 . S
C85 C87 1.417 1_554 S
C85 C97 1.422 . S
C86 C84 1.422 . S
C86 C85 1.421 . S
C86 N96 1.359 . S
C87 C85 1.417 1_556 S
C87 C89 1.329 1_556 S
C87 H106 0.930 . S
C88 C84 1.415 . S
C88 C89 1.437 . S
C88 C92 1.413 . S
C89 C87 1.329 1_554 S
C89 C88 1.437 . S
C89 H111 0.929 1_554 S
N90 C84 1.369 . S
N90 C91 1.338 . S
N90 Gd95 2.622 . S
C91 N90 1.338 . S
C91 C93 1.378 . S
C91 H103 0.929 . S
C92 C88 1.413 . S
C92 C93 1.348 . S
C92 H108 0.931 . S
C93 C91 1.378 . S
C93 C92 1.348 . S
C93 H109 0.930 . S
Gd94 N114 2.622 . S
Gd94 N121 2.570 . S
Gd94 O128 2.353 . S
Gd94 O129 2.468 . S
Gd94 O130 2.427 . S
Gd94 O132 2.388 . S
Gd94 O133 2.386 . S
Gd94 O137 2.307 . S
Gd94 C147 2.805 . S
Gd95 N90 2.622 . S
Gd95 N96 2.570 . S
Gd95 O127 2.386 . S
Gd95 O131 2.307 . S
Gd95 O134 2.353 . S
Gd95 O135 2.468 . S
Gd95 O136 2.427 . S
Gd95 O138 2.388 . S
Gd95 C159 2.805 . S
N96 C86 1.359 . S
N96 Gd95 2.570 . S
N96 C98 1.343 . S
C97 C85 1.422 . S
C97 C99 1.321 . S
C97 H105 0.931 1_554 S
C98 N96 1.343 . S
C98 C99 1.390 . S
C98 H100 0.931 . S
C99 C97 1.321 . S
C99 C98 1.390 . S
C99 H101 0.930 . S
H100 C98 0.931 . S
H101 C99 0.930 . S
H102 C125 0.931 . S
H103 C91 0.929 . S
H104 C126 0.930 . S
H105 C97 0.931 1_556 S
H106 C87 0.930 . S
H107 C116 0.929 . S
H108 C92 0.931 . S
H109 C93 0.930 . S
H110 C148 0.930 1_554 S
H111 C89 0.929 1_556 S
H112 C117 0.931 . S
H113 C118 0.930 . S
N114 Gd94 2.622 . S
N114 C115 1.369 . S
N114 C116 1.338 . S
C115 N114 1.369 . S
C115 C119 1.415 . S
C115 C122 1.422 . S
C116 H107 0.929 . S
C116 N114 1.338 . S
C116 C118 1.378 . S
C117 H112 0.931 . S
C117 C118 1.348 . S
C117 C119 1.413 . S
C118 H113 0.930 . S
C118 C116 1.378 . S
C118 C117 1.348 . S
C119 C115 1.415 . S
C119 C117 1.413 . S
C119 C149 1.437 . S
H120 C149 0.929 . S
N121 Gd94 2.570 . S
N121 C122 1.359 . S
N121 C125 1.343 . S
C122 C115 1.422 . S
C122 N121 1.359 . S
C122 C124 1.421 . S
C123 C124 1.422 . S
C123 C126 1.321 . S
C123 H150 0.931 . S
C124 C122 1.421 . S
C124 C123 1.422 . S
C124 C148 1.417 . S
C125 H102 0.931 . S
C125 N121 1.343 . S
C125 C126 1.390 . S
C126 H104 0.930 . S
C126 C123 1.321 . S
C126 C125 1.390 . S
O127 Gd95 2.386 . S
O127 C139 1.265 . S
O128 Gd94 2.353 . S
O128 C139 1.242 . S
O129 Gd94 2.468 . S
O129 C147 1.263 . S
O130 Gd94 2.427 . S
O130 C147 1.252 . S
O131 Gd95 2.307 . S
O131 C140 1.261 . S
O132 Gd94 2.388 . S
O132 C140 1.252 . S
O133 Gd94 2.386 . S
O133 C151 1.265 . S
O134 Gd95 2.353 . S
O134 C151 1.242 . S
O135 Gd95 2.468 . S
O135 C159 1.263 . S
O136 Gd95 2.427 . S
O136 C159 1.252 . S
O137 Gd94 2.307 . S
O137 C152 1.261 . S
O138 Gd95 2.388 . S
O138 C152 1.252 . S
C139 O127 1.265 . S
C139 O128 1.242 . S
C140 O131 1.261 . S
C140 O132 1.252 . S
C141 C144 1.394 . S
C141 C146 1.370 . S
C141 C147 1.500 . S
C142 C145 1.383 . S
C142 C146 1.395 . S
C143 C144 1.396 . S
C143 C145 1.365 . S
C143 H160 0.929 . S
C144 C141 1.394 . S
C144 C143 1.396 . S
C144 H161 0.930 . S
C145 C142 1.383 . S
C145 C143 1.365 . S
C145 H162 0.931 . S
C146 C141 1.370 . S
C146 C142 1.395 . S
C146 H163 0.930 . S
C147 Gd94 2.805 . S
C147 O129 1.263 . S
C147 O130 1.252 . S
C147 C141 1.500 . S
C148 H110 0.930 1_556 S
C148 C124 1.417 . S
C148 C149 1.329 . S
C149 C119 1.437 . S
C149 H120 0.929 . S
C149 C148 1.329 . S
H150 C123 0.931 . S
C151 O133 1.265 . S
C151 O134 1.242 . S
C152 O137 1.261 . S
C152 O138 1.252 . S
C153 C156 1.394 . S
C153 C158 1.370 . S
C153 C159 1.500 . S
C154 C157 1.383 . S
C154 C158 1.395 . S
C155 C156 1.396 . S
C155 C157 1.365 . S
C155 H164 0.929 . S
C156 C153 1.394 . S
C156 C155 1.396 . S
C156 H165 0.930 . S
C157 C154 1.383 . S
C157 C155 1.365 . S
C157 H166 0.931 . S
C158 C153 1.370 . S
C158 C154 1.395 . S
C158 H167 0.930 . S
C159 Gd95 2.805 . S
C159 O135 1.263 . S
C159 O136 1.252 . S
C159 C153 1.500 . S
H160 C143 0.929 . S
H161 C144 0.930 . S
H162 C145 0.931 . S
H163 C146 0.930 . S
H164 C155 0.929 . S
H165 C156 0.930 . S
H166 C157 0.931 . S
H167 C158 0.930 . S
C168 C170 1.422 . S
C168 C172 1.415 . S
C168 N174 1.369 . S
C169 C170 1.421 . S
C169 C171 1.417 . S
C169 C181 1.422 . S
C170 C168 1.422 . S
C170 C169 1.421 . S
C170 N180 1.359 . S
C171 C169 1.417 . S
C171 C173 1.329 . S
C171 H190 0.930 1_554 S
C172 C168 1.415 . S
C172 C173 1.437 . S
C172 C176 1.413 . S
C173 C171 1.329 . S
C173 C172 1.437 . S
C173 H195 0.929 . S
N174 C168 1.369 . S
N174 C175 1.338 . S
N174 Gd179 2.622 . S
C175 N174 1.338 . S
C175 C177 1.378 . S
C175 H187 0.929 . S
C176 C172 1.413 . S
C176 C177 1.348 . S
C176 H192 0.931 . S
C177 C175 1.378 . S
C177 C176 1.348 . S
C177 H193 0.930 . S
Gd178 N198 2.622 . S
Gd178 N205 2.570 . S
Gd178 O212 2.353 . S
Gd178 O213 2.468 . S
Gd178 O214 2.427 . S
Gd178 O216 2.388 . S
Gd178 O217 2.386 . S
Gd178 O221 2.307 . S
Gd178 C231 2.805 . S
Gd179 N174 2.622 . S
Gd179 N180 2.570 . S
Gd179 O211 2.386 . S
Gd179 O215 2.307 . S
Gd179 O218 2.353 . S
Gd179 O219 2.468 . S
Gd179 O220 2.427 . S
Gd179 O222 2.388 . S
Gd179 C243 2.805 . S
N180 C170 1.359 . S
N180 Gd179 2.570 . S
N180 C182 1.343 . S
C181 C169 1.422 . S
C181 C183 1.321 . S
C181 H189 0.931 . S
C182 N180 1.343 . S
C182 C183 1.390 . S
C182 H184 0.931 . S
C183 C181 1.321 . S
C183 C182 1.390 . S
C183 H185 0.930 . S
H184 C182 0.931 . S
H185 C183 0.930 . S
H186 C209 0.931 . S
H187 C175 0.929 . S
H188 C210 0.930 . S
H189 C181 0.931 . S
H190 C171 0.930 1_556 S
H191 C200 0.929 . S
H192 C176 0.931 . S
H193 C177 0.930 . S
H194 C232 0.930 . S
H195 C173 0.929 . S
H196 C201 0.931 . S
H197 C202 0.930 . S
N198 Gd178 2.622 . S
N198 C199 1.369 . S
N198 C200 1.338 . S
C199 N198 1.369 . S
C199 C203 1.415 . S
C199 C206 1.422 . S
C200 H191 0.929 . S
C200 N198 1.338 . S
C200 C202 1.378 . S
C201 H196 0.931 . S
C201 C202 1.348 . S
C201 C203 1.413 . S
C202 H197 0.930 . S
C202 C200 1.378 . S
C202 C201 1.348 . S
C203 C199 1.415 . S
C203 C201 1.413 . S
C203 C233 1.437 . S
H204 C233 0.929 1_554 S
N205 Gd178 2.570 . S
N205 C206 1.359 . S
N205 C209 1.343 . S
C206 C199 1.422 . S
C206 N205 1.359 . S
C206 C208 1.421 . S
C207 C208 1.422 . S
C207 C210 1.321 . S
C207 H234 0.931 1_556 S
C208 C206 1.421 . S
C208 C207 1.422 . S
C208 C232 1.417 1_556 S
C209 H186 0.931 . S
C209 N205 1.343 . S
C209 C210 1.390 . S
C210 H188 0.930 . S
C210 C207 1.321 . S
C210 C209 1.390 . S
O211 Gd179 2.386 . S
O211 C223 1.265 . S
O212 Gd178 2.353 . S
O212 C223 1.242 . S
O213 Gd178 2.468 . S
O213 C231 1.263 . S
O214 Gd178 2.427 . S
O214 C231 1.252 . S
O215 Gd179 2.307 . S
O215 C224 1.261 . S
O216 Gd178 2.388 . S
O216 C224 1.252 . S
O217 Gd178 2.386 . S
O217 C235 1.265 . S
O218 Gd179 2.353 . S
O218 C235 1.242 . S
O219 Gd179 2.468 . S
O219 C243 1.263 . S
O220 Gd179 2.427 . S
O220 C243 1.252 . S
O221 Gd178 2.307 . S
O221 C236 1.261 . S
O222 Gd179 2.388 . S
O222 C236 1.252 . S
C223 O211 1.265 . S
C223 O212 1.242 . S
C224 O215 1.261 . S
C224 O216 1.252 . S
C225 C228 1.394 . S
C225 C230 1.370 . S
C225 C231 1.500 . S
C226 C229 1.383 . S
C226 C230 1.395 . S
C227 C228 1.396 . S
C227 C229 1.365 . S
C227 H244 0.929 . S
C228 C225 1.394 . S
C228 C227 1.396 . S
C228 H245 0.930 . S
C229 C226 1.383 . S
C229 C227 1.365 . S
C229 H246 0.931 . S
C230 C225 1.370 . S
C230 C226 1.395 . S
C230 H247 0.930 . S
C231 Gd178 2.805 . S
C231 O213 1.263 . S
C231 O214 1.252 . S
C231 C225 1.500 . S
C232 H194 0.930 . S
C232 C208 1.417 1_554 S
C232 C233 1.329 1_554 S
C233 C203 1.437 . S
C233 H204 0.929 1_556 S
C233 C232 1.329 1_556 S
H234 C207 0.931 1_554 S
C235 O217 1.265 . S
C235 O218 1.242 . S
C236 O221 1.261 . S
C236 O222 1.252 . S
C237 C240 1.394 . S
C237 C242 1.370 . S
C237 C243 1.500 . S
C238 C241 1.383 . S
C238 C242 1.395 . S
C239 C240 1.396 . S
C239 C241 1.365 . S
C239 H248 0.929 . S
C240 C237 1.394 . S
C240 C239 1.396 . S
C240 H249 0.930 . S
C241 C238 1.383 . S
C241 C239 1.365 . S
C241 H250 0.931 . S
C242 C237 1.370 . S
C242 C238 1.395 . S
C242 H251 0.930 . S
C243 Gd179 2.805 . S
C243 O219 1.263 . S
C243 O220 1.252 . S
C243 C237 1.500 . S
H244 C227 0.929 . S
H245 C228 0.930 . S
H246 C229 0.931 . S
H247 C230 0.930 . S
H248 C239 0.929 . S
H249 C240 0.930 . S
H250 C241 0.931 . S
H251 C242 0.930 . S
C252 C254 1.422 . S
C252 C256 1.415 . S
C252 N258 1.369 . S
C253 C254 1.421 . S
C253 C255 1.417 1_556 S
C253 C265 1.422 . S
C254 C252 1.422 . S
C254 C253 1.421 . S
C254 N264 1.359 . S
C255 C253 1.417 1_554 S
C255 C257 1.329 1_554 S
C255 H274 0.930 . S
C256 C252 1.415 . S
C256 C257 1.437 . S
C256 C260 1.413 . S
C257 C255 1.329 1_556 S
C257 C256 1.437 . S
C257 H279 0.929 1_556 S
N258 C252 1.369 . S
N258 C259 1.338 . S
N258 Gd263 2.622 . S
C259 N258 1.338 . S
C259 C261 1.378 . S
C259 H271 0.929 . S
C260 C256 1.413 . S
C260 C261 1.348 . S
C260 H276 0.931 . S
C261 C259 1.378 . S
C261 C260 1.348 . S
C261 H277 0.930 . S
Gd262 N282 2.622 . S
Gd262 N289 2.570 . S
Gd262 O296 2.353 . S
Gd262 O297 2.468 . S
Gd262 O298 2.427 . S
Gd262 O300 2.388 . S
Gd262 O301 2.386 . S
Gd262 O305 2.307 . S
Gd262 C315 2.805 . S
Gd263 N258 2.622 . S
Gd263 N264 2.570 . S
Gd263 O295 2.386 . S
Gd263 O299 2.307 . S
Gd263 O302 2.353 . S
Gd263 O303 2.468 . S
Gd263 O304 2.427 . S
Gd263 O306 2.388 . S
Gd263 C327 2.805 . S
N264 C254 1.359 . S
N264 Gd263 2.570 . S
N264 C266 1.343 . S
C265 C253 1.422 . S
C265 C267 1.321 . S
C265 H273 0.931 1_556 S
C266 N264 1.343 . S
C266 C267 1.390 . S
C266 H268 0.931 . S
C267 C265 1.321 . S
C267 C266 1.390 . S
C267 H269 0.930 . S
H268 C266 0.931 . S
H269 C267 0.930 . S
H270 C293 0.931 . S
H271 C259 0.929 . S
H272 C294 0.930 . S
H273 C265 0.931 1_554 S
H274 C255 0.930 . S
H275 C284 0.929 . S
H276 C260 0.931 . S
H277 C261 0.930 . S
H278 C316 0.930 1_556 S
H279 C257 0.929 1_554 S
H280 C285 0.931 . S
H281 C286 0.930 . S
N282 Gd262 2.622 . S
N282 C283 1.369 . S
N282 C284 1.338 . S
C283 N282 1.369 . S
C283 C287 1.415 . S
C283 C290 1.422 . S
C284 H275 0.929 . S
C284 N282 1.338 . S
C284 C286 1.378 . S
C285 H280 0.931 . S
C285 C286 1.348 . S
C285 C287 1.413 . S
C286 H281 0.930 . S
C286 C284 1.378 . S
C286 C285 1.348 . S
C287 C283 1.415 . S
C287 C285 1.413 . S
C287 C317 1.437 . S
H288 C317 0.929 . S
N289 Gd262 2.570 . S
N289 C290 1.359 . S
N289 C293 1.343 . S
C290 C283 1.422 . S
C290 N289 1.359 . S
C290 C292 1.421 . S
C291 C292 1.422 . S
C291 C294 1.321 . S
C291 H318 0.931 . S
C292 C290 1.421 . S
C292 C291 1.422 . S
C292 C316 1.417 . S
C293 H270 0.931 . S
C293 N289 1.343 . S
C293 C294 1.390 . S
C294 H272 0.930 . S
C294 C291 1.321 . S
C294 C293 1.390 . S
O295 Gd263 2.386 . S
O295 C307 1.265 . S
O296 Gd262 2.353 . S
O296 C307 1.242 . S
O297 Gd262 2.468 . S
O297 C315 1.263 . S
O298 Gd262 2.427 . S
O298 C315 1.252 . S
O299 Gd263 2.307 . S
O299 C308 1.261 . S
O300 Gd262 2.388 . S
O300 C308 1.252 . S
O301 Gd262 2.386 . S
O301 C319 1.265 . S
O302 Gd263 2.353 . S
O302 C319 1.242 . S
O303 Gd263 2.468 . S
O303 C327 1.263 . S
O304 Gd263 2.427 . S
O304 C327 1.252 . S
O305 Gd262 2.307 . S
O305 C320 1.261 . S
O306 Gd263 2.388 . S
O306 C320 1.252 . S
C307 O295 1.265 . S
C307 O296 1.242 . S
C308 O299 1.261 . S
C308 O300 1.252 . S
C309 C312 1.394 . S
C309 C314 1.370 . S
C309 C315 1.500 . S
C310 C313 1.383 . S
C310 C314 1.395 . S
C311 C312 1.396 . S
C311 C313 1.365 . S
C311 H328 0.929 . S
C312 C309 1.394 . S
C312 C311 1.396 . S
C312 H329 0.930 . S
C313 C310 1.383 . S
C313 C311 1.365 . S
C313 H330 0.931 . S
C314 C309 1.370 . S
C314 C310 1.395 . S
C314 H331 0.930 . S
C315 Gd262 2.805 . S
C315 O297 1.263 . S
C315 O298 1.252 . S
C315 C309 1.500 . S
C316 H278 0.930 1_554 S
C316 C292 1.417 . S
C316 C317 1.329 . S
C317 C287 1.437 . S
C317 H288 0.929 . S
C317 C316 1.329 . S
H318 C291 0.931 . S
C319 O301 1.265 . S
C319 O302 1.242 . S
C320 O305 1.261 . S
C320 O306 1.252 . S
C321 C324 1.394 . S
C321 C326 1.370 . S
C321 C327 1.500 . S
C322 C325 1.383 . S
C322 C326 1.395 . S
C323 C324 1.396 . S
C323 C325 1.365 . S
C323 H332 0.929 . S
C324 C321 1.394 . S
C324 C323 1.396 . S
C324 H333 0.930 . S
C325 C322 1.383 . S
C325 C323 1.365 . S
C325 H334 0.931 . S
C326 C321 1.370 . S
C326 C322 1.395 . S
C326 H335 0.930 . S
C327 Gd263 2.805 . S
C327 O303 1.263 . S
C327 O304 1.252 . S
C327 C321 1.500 . S
H328 C311 0.929 . S
H329 C312 0.930 . S
H330 C313 0.931 . S
H331 C314 0.930 . S
H332 C323 0.929 . S
H333 C324 0.930 . S
H334 C325 0.931 . S
H335 C326 0.930 . S
C336 C338 1.422 . S
C336 C340 1.415 . S
C336 N342 1.369 . S
C337 C338 1.421 . S
C337 C339 1.417 . S
C337 C349 1.422 . S
C338 C336 1.422 . S
C338 C337 1.421 . S
C338 N348 1.359 . S
C339 C337 1.417 . S
C339 C341 1.329 . S
C339 H358 0.930 . S
C340 C336 1.415 . S
C340 C341 1.437 . S
C340 C344 1.413 . S
C341 C339 1.329 . S
C341 C340 1.437 . S
C341 H363 0.929 . S
N342 C336 1.369 . S
N342 C343 1.338 . S
N342 Gd347 2.622 . S
C343 N342 1.338 . S
C343 C345 1.378 . S
C343 H355 0.929 . S
C344 C340 1.413 . S
C344 C345 1.348 . S
C344 H360 0.931 . S
C345 C343 1.378 . S
C345 C344 1.348 . S
C345 H361 0.930 . S
Gd346 N366 2.622 . S
Gd346 N373 2.570 . S
Gd346 O380 2.353 1_556 S
Gd346 O381 2.468 1_556 S
Gd346 O382 2.427 1_556 S
Gd346 O384 2.388 1_556 S
Gd346 O385 2.386 . S
Gd346 O389 2.307 . S
Gd346 C399 2.805 1_556 S
Gd347 N342 2.622 . S
Gd347 N348 2.570 . S
Gd347 O379 2.386 . S
Gd347 O383 2.307 . S
Gd347 O386 2.353 1_554 S
Gd347 O387 2.468 1_554 S
Gd347 O388 2.427 1_554 S
Gd347 O390 2.388 1_554 S
Gd347 C411 2.805 1_554 S
N348 C338 1.359 . S
N348 Gd347 2.570 . S
N348 C350 1.343 . S
C349 C337 1.422 . S
C349 C351 1.321 . S
C349 H357 0.931 . S
C350 N348 1.343 . S
C350 C351 1.390 . S
C350 H352 0.931 . S
C351 C349 1.321 . S
C351 C350 1.390 . S
C351 H353 0.930 . S
H352 C350 0.931 . S
H353 C351 0.930 . S
H354 C377 0.931 . S
H355 C343 0.929 . S
H356 C378 0.930 . S
H357 C349 0.931 . S
H358 C339 0.930 . S
H359 C368 0.929 . S
H360 C344 0.931 . S
H361 C345 0.930 . S
H362 C400 0.930 . S
H363 C341 0.929 . S
H364 C369 0.931 . S
H365 C370 0.930 1_545 S
N366 Gd346 2.622 . S
N366 C367 1.369 . S
N366 C368 1.338 . S
C367 N366 1.369 . S
C367 C371 1.415 . S
C367 C374 1.422 . S
C368 H359 0.929 . S
C368 N366 1.338 . S
C368 C370 1.378 . S
C369 H364 0.931 . S
C369 C370 1.348 . S
C369 C371 1.413 . S
C370 H365 0.930 1_565 S
C370 C368 1.378 . S
C370 C369 1.348 . S
C371 C367 1.415 . S
C371 C369 1.413 . S
C371 C401 1.437 . S
H372 C401 0.929 . S
N373 Gd346 2.570 . S
N373 C374 1.359 . S
N373 C377 1.343 . S
C374 C367 1.422 . S
C374 N373 1.359 . S
C374 C376 1.421 . S
C375 C376 1.422 . S
C375 C378 1.321 . S
C375 H402 0.931 . S
C376 C374 1.421 . S
C376 C375 1.422 . S
C376 C400 1.417 . S
C377 H354 0.931 . S
C377 N373 1.343 . S
C377 C378 1.390 . S
C378 H356 0.930 . S
C378 C375 1.321 . S
C378 C377 1.390 . S
O379 Gd347 2.386 . S
O379 C391 1.265 . S
O380 Gd346 2.353 1_554 S
O380 C391 1.242 . S
O381 Gd346 2.468 1_554 S
O381 C399 1.263 . S
O382 Gd346 2.427 1_554 S
O382 C399 1.252 . S
O383 Gd347 2.307 . S
O383 C392 1.261 . S
O384 Gd346 2.388 1_554 S
O384 C392 1.252 . S
O385 Gd346 2.386 . S
O385 C403 1.265 . S
O386 Gd347 2.353 1_556 S
O386 C403 1.242 . S
O387 Gd347 2.468 1_556 S
O387 C411 1.263 . S
O388 Gd347 2.427 1_556 S
O388 C411 1.252 . S
O389 Gd346 2.307 . S
O389 C404 1.261 . S
O390 Gd347 2.388 1_556 S
O390 C404 1.252 . S
C391 O379 1.265 . S
C391 O380 1.242 . S
C392 O383 1.261 . S
C392 O384 1.252 . S
C393 C396 1.394 . S
C393 C398 1.370 . S
C393 C399 1.500 . S
C394 C397 1.383 . S
C394 C398 1.395 . S
C395 C396 1.396 . S
C395 C397 1.365 . S
C395 H412 0.929 . S
C396 C393 1.394 . S
C396 C395 1.396 . S
C396 H413 0.930 . S
C397 C394 1.383 . S
C397 C395 1.365 . S
C397 H414 0.931 . S
C398 C393 1.370 . S
C398 C394 1.395 . S
C398 H415 0.930 . S
C399 Gd346 2.805 1_554 S
C399 O381 1.263 . S
C399 O382 1.252 . S
C399 C393 1.500 . S
C400 H362 0.930 . S
C400 C376 1.417 . S
C400 C401 1.329 . S
C401 C371 1.437 . S
C401 H372 0.929 . S
C401 C400 1.329 . S
H402 C375 0.931 . S
C403 O385 1.265 . S
C403 O386 1.242 . S
C404 O389 1.261 . S
C404 O390 1.252 . S
C405 C408 1.394 . S
C405 C410 1.370 . S
C405 C411 1.500 . S
C406 C409 1.383 . S
C406 C410 1.395 . S
C407 C408 1.396 . S
C407 C409 1.365 . S
C407 H416 0.929 . S
C408 C405 1.394 . S
C408 C407 1.396 . S
C408 H417 0.930 . S
C409 C406 1.383 . S
C409 C407 1.365 . S
C409 H418 0.931 . S
C410 C405 1.370 . S
C410 C406 1.395 . S
C410 H419 0.930 . S
C411 Gd347 2.805 1_556 S
C411 O387 1.263 . S
C411 O388 1.252 . S
C411 C405 1.500 . S
H412 C395 0.929 . S
H413 C396 0.930 . S
H414 C397 0.931 . S
H415 C398 0.930 . S
H416 C407 0.929 . S
H417 C408 0.930 . S
H418 C409 0.931 . S
H419 C410 0.930 . S
C420 C422 1.422 . S
C420 C424 1.415 . S
C420 N426 1.369 . S
C421 C422 1.421 . S
C421 C423 1.417 . S
C421 C433 1.422 . S
C422 C420 1.422 . S
C422 C421 1.421 . S
C422 N432 1.359 . S
C423 C421 1.417 . S
C423 C425 1.329 . S
C423 H442 0.930 . S
C424 C420 1.415 . S
C424 C425 1.437 . S
C424 C428 1.413 . S
C425 C423 1.329 . S
C425 C424 1.437 . S
C425 H447 0.929 . S
N426 C420 1.369 . S
N426 C427 1.338 . S
N426 Gd431 2.622 . S
C427 N426 1.338 . S
C427 C429 1.378 . S
C427 H439 0.929 . S
C428 C424 1.413 . S
C428 C429 1.348 . S
C428 H444 0.931 . S
C429 C427 1.378 . S
C429 C428 1.348 . S
C429 H445 0.930 1_565 S
Gd430 N450 2.622 . S
Gd430 N457 2.570 . S
Gd430 O464 2.353 1_554 S
Gd430 O465 2.468 1_554 S
Gd430 O466 2.427 1_554 S
Gd430 O468 2.388 1_554 S
Gd430 O469 2.386 . S
Gd430 O473 2.307 . S
Gd430 C483 2.805 1_554 S
Gd431 N426 2.622 . S
Gd431 N432 2.570 . S
Gd431 O463 2.386 . S
Gd431 O467 2.307 . S
Gd431 O470 2.353 1_556 S
Gd431 O471 2.468 1_556 S
Gd431 O472 2.427 1_556 S
Gd431 O474 2.388 1_556 S
Gd431 C495 2.805 1_556 S
N432 C422 1.359 . S
N432 Gd431 2.570 . S
N432 C434 1.343 . S
C433 C421 1.422 . S
C433 C435 1.321 . S
C433 H441 0.931 . S
C434 N432 1.343 . S
C434 C435 1.390 . S
C434 H436 0.931 . S
C435 C433 1.321 . S
C435 C434 1.390 . S
C435 H437 0.930 . S
H436 C434 0.931 . S
H437 C435 0.930 . S
H438 C461 0.931 . S
H439 C427 0.929 . S
H440 C462 0.930 . S
H441 C433 0.931 . S
H442 C423 0.930 . S
H443 C452 0.929 . S
H444 C428 0.931 . S
H445 C429 0.930 1_545 S
H446 C484 0.930 . S
H447 C425 0.929 . S
H448 C453 0.931 . S
H449 C454 0.930 . S
N450 Gd430 2.622 . S
N450 C451 1.369 . S
N450 C452 1.338 . S
C451 N450 1.369 . S
C451 C455 1.415 . S
C451 C458 1.422 . S
C452 H443 0.929 . S
C452 N450 1.338 . S
C452 C454 1.378 . S
C453 H448 0.931 . S
C453 C454 1.348 . S
C453 C455 1.413 . S
C454 H449 0.930 . S
C454 C452 1.378 . S
C454 C453 1.348 . S
C455 C451 1.415 . S
C455 C453 1.413 . S
C455 C485 1.437 . S
H456 C485 0.929 . S
N457 Gd430 2.570 . S
N457 C458 1.359 . S
N457 C461 1.343 . S
C458 C451 1.422 . S
C458 N457 1.359 . S
C458 C460 1.421 . S
C459 C460 1.422 . S
C459 C462 1.321 . S
C459 H486 0.931 . S
C460 C458 1.421 . S
C460 C459 1.422 . S
C460 C484 1.417 . S
C461 H438 0.931 . S
C461 N457 1.343 . S
C461 C462 1.390 . S
C462 H440 0.930 . S
C462 C459 1.321 . S
C462 C461 1.390 . S
O463 Gd431 2.386 . S
O463 C475 1.265 . S
O464 Gd430 2.353 1_556 S
O464 C475 1.242 . S
O465 Gd430 2.468 1_556 S
O465 C483 1.263 . S
O466 Gd430 2.427 1_556 S
O466 C483 1.252 . S
O467 Gd431 2.307 . S
O467 C476 1.261 . S
O468 Gd430 2.388 1_556 S
O468 C476 1.252 . S
O469 Gd430 2.386 . S
O469 C487 1.265 . S
O470 Gd431 2.353 1_554 S
O470 C487 1.242 . S
O471 Gd431 2.468 1_554 S
O471 C495 1.263 . S
O472 Gd431 2.427 1_554 S
O472 C495 1.252 . S
O473 Gd430 2.307 . S
O473 C488 1.261 . S
O474 Gd431 2.388 1_554 S
O474 C488 1.252 . S
C475 O463 1.265 . S
C475 O464 1.242 . S
C476 O467 1.261 . S
C476 O468 1.252 . S
C477 C480 1.394 . S
C477 C482 1.370 . S
C477 C483 1.500 . S
C478 C481 1.383 . S
C478 C482 1.395 . S
C479 C480 1.396 . S
C479 C481 1.365 . S
C479 H496 0.929 . S
C480 C477 1.394 . S
C480 C479 1.396 . S
C480 H497 0.930 . S
C481 C478 1.383 . S
C481 C479 1.365 . S
C481 H498 0.931 . S
C482 C477 1.370 . S
C482 C478 1.395 . S
C482 H499 0.930 . S
C483 Gd430 2.805 1_556 S
C483 O465 1.263 . S
C483 O466 1.252 . S
C483 C477 1.500 . S
C484 H446 0.930 . S
C484 C460 1.417 . S
C484 C485 1.329 . S
C485 C455 1.437 . S
C485 H456 0.929 . S
C485 C484 1.329 . S
H486 C459 0.931 . S
C487 O469 1.265 . S
C487 O470 1.242 . S
C488 O473 1.261 . S
C488 O474 1.252 . S
C489 C492 1.394 . S
C489 C494 1.370 . S
C489 C495 1.500 . S
C490 C493 1.383 . S
C490 C494 1.395 . S
C491 C492 1.396 . S
C491 C493 1.365 . S
C491 H500 0.929 . S
C492 C489 1.394 . S
C492 C491 1.396 . S
C492 H501 0.930 . S
C493 C490 1.383 . S
C493 C491 1.365 . S
C493 H502 0.931 . S
C494 C489 1.370 . S
C494 C490 1.395 . S
C494 H503 0.930 . S
C495 Gd431 2.805 1_554 S
C495 O471 1.263 . S
C495 O472 1.252 . S
C495 C489 1.500 . S
H496 C479 0.929 . S
H497 C480 0.930 . S
H498 C481 0.931 . S
H499 C482 0.930 . S
H500 C491 0.929 . S
H501 C492 0.930 . S
H502 C493 0.931 . S
H503 C494 0.930 . S
C504 C506 1.422 . S
C504 C508 1.415 . S
C504 N510 1.369 . S
C505 C506 1.421 . S
C505 C507 1.417 . S
C505 C517 1.422 . S
C506 C504 1.422 . S
C506 C505 1.421 . S
C506 N516 1.359 . S
C507 C505 1.417 . S
C507 C509 1.329 . S
C507 H526 0.930 . S
C508 C504 1.415 . S
C508 C509 1.437 . S
C508 C512 1.413 . S
C509 C507 1.329 . S
C509 C508 1.437 . S
C509 H531 0.929 . S
N510 C504 1.369 . S
N510 C511 1.338 . S
N510 Gd515 2.622 . S
C511 N510 1.338 . S
C511 C513 1.378 . S
C511 H523 0.929 . S
C512 C508 1.413 . S
C512 C513 1.348 . S
C512 H528 0.931 . S
C513 C511 1.378 . S
C513 C512 1.348 . S
C513 H529 0.930 . S
Gd514 N534 2.622 . S
Gd514 N541 2.570 . S
Gd514 O548 2.353 1_554 S
Gd514 O549 2.468 1_554 S
Gd514 O550 2.427 1_554 S
Gd514 O552 2.388 1_554 S
Gd514 O553 2.386 . S
Gd514 O557 2.307 . S
Gd514 C567 2.805 1_554 S
Gd515 N510 2.622 . S
Gd515 N516 2.570 . S
Gd515 O547 2.386 . S
Gd515 O551 2.307 . S
Gd515 O554 2.353 1_556 S
Gd515 O555 2.468 1_556 S
Gd515 O556 2.427 1_556 S
Gd515 O558 2.388 1_556 S
Gd515 C579 2.805 1_556 S
N516 C506 1.359 . S
N516 Gd515 2.570 . S
N516 C518 1.343 . S
C517 C505 1.422 . S
C517 C519 1.321 . S
C517 H525 0.931 . S
C518 N516 1.343 . S
C518 C519 1.390 . S
C518 H520 0.931 . S
C519 C517 1.321 . S
C519 C518 1.390 . S
C519 H521 0.930 . S
H520 C518 0.931 . S
H521 C519 0.930 . S
H522 C545 0.931 . S
H523 C511 0.929 . S
H524 C546 0.930 . S
H525 C517 0.931 . S
H526 C507 0.930 . S
H527 C536 0.929 . S
H528 C512 0.931 . S
H529 C513 0.930 . S
H530 C568 0.930 . S
H531 C509 0.929 . S
H532 C537 0.931 . S
H533 C538 0.930 1_565 S
N534 Gd514 2.622 . S
N534 C535 1.369 . S
N534 C536 1.338 . S
C535 N534 1.369 . S
C535 C539 1.415 . S
C535 C542 1.422 . S
C536 H527 0.929 . S
C536 N534 1.338 . S
C536 C538 1.378 . S
C537 H532 0.931 . S
C537 C538 1.348 . S
C537 C539 1.413 . S
C538 H533 0.930 1_545 S
C538 C536 1.378 . S
C538 C537 1.348 . S
C539 C535 1.415 . S
C539 C537 1.413 . S
C539 C569 1.437 . S
H540 C569 0.929 . S
N541 Gd514 2.570 . S
N541 C542 1.359 . S
N541 C545 1.343 . S
C542 C535 1.422 . S
C542 N541 1.359 . S
C542 C544 1.421 . S
C543 C544 1.422 . S
C543 C546 1.321 . S
C543 H570 0.931 . S
C544 C542 1.421 . S
C544 C543 1.422 . S
C544 C568 1.417 . S
C545 H522 0.931 . S
C545 N541 1.343 . S
C545 C546 1.390 . S
C546 H524 0.930 . S
C546 C543 1.321 . S
C546 C545 1.390 . S
O547 Gd515 2.386 . S
O547 C559 1.265 . S
O548 Gd514 2.353 1_556 S
O548 C559 1.242 . S
O549 Gd514 2.468 1_556 S
O549 C567 1.263 . S
O550 Gd514 2.427 1_556 S
O550 C567 1.252 . S
O551 Gd515 2.307 . S
O551 C560 1.261 . S
O552 Gd514 2.388 1_556 S
O552 C560 1.252 . S
O553 Gd514 2.386 . S
O553 C571 1.265 . S
O554 Gd515 2.353 1_554 S
O554 C571 1.242 . S
O555 Gd515 2.468 1_554 S
O555 C579 1.263 . S
O556 Gd515 2.427 1_554 S
O556 C579 1.252 . S
O557 Gd514 2.307 . S
O557 C572 1.261 . S
O558 Gd515 2.388 1_554 S
O558 C572 1.252 . S
C559 O547 1.265 . S
C559 O548 1.242 . S
C560 O551 1.261 . S
C560 O552 1.252 . S
C561 C564 1.394 . S
C561 C566 1.370 . S
C561 C567 1.500 . S
C562 C565 1.383 . S
C562 C566 1.395 . S
C563 C564 1.396 . S
C563 C565 1.365 . S
C563 H580 0.929 . S
C564 C561 1.394 . S
C564 C563 1.396 . S
C564 H581 0.930 . S
C565 C562 1.383 . S
C565 C563 1.365 . S
C565 H582 0.931 . S
C566 C561 1.370 . S
C566 C562 1.395 . S
C566 H583 0.930 . S
C567 Gd514 2.805 1_556 S
C567 O549 1.263 . S
C567 O550 1.252 . S
C567 C561 1.500 . S
C568 H530 0.930 . S
C568 C544 1.417 . S
C568 C569 1.329 . S
C569 C539 1.437 . S
C569 H540 0.929 . S
C569 C568 1.329 . S
H570 C543 0.931 . S
C571 O553 1.265 . S
C571 O554 1.242 . S
C572 O557 1.261 . S
C572 O558 1.252 . S
C573 C576 1.394 . S
C573 C578 1.370 . S
C573 C579 1.500 . S
C574 C577 1.383 . S
C574 C578 1.395 . S
C575 C576 1.396 . S
C575 C577 1.365 . S
C575 H584 0.929 . S
C576 C573 1.394 . S
C576 C575 1.396 . S
C576 H585 0.930 . S
C577 C574 1.383 . S
C577 C575 1.365 . S
C577 H586 0.931 . S
C578 C573 1.370 . S
C578 C574 1.395 . S
C578 H587 0.930 . S
C579 Gd515 2.805 1_554 S
C579 O555 1.263 . S
C579 O556 1.252 . S
C579 C573 1.500 . S
H580 C563 0.929 . S
H581 C564 0.930 . S
H582 C565 0.931 . S
H583 C566 0.930 . S
H584 C575 0.929 . S
H585 C576 0.930 . S
H586 C577 0.931 . S
H587 C578 0.930 . S
C588 C590 1.422 . S
C588 C592 1.415 . S
C588 N594 1.369 . S
C589 C590 1.421 . S
C589 C591 1.417 . S
C589 C601 1.422 . S
C590 C588 1.422 . S
C590 C589 1.421 . S
C590 N600 1.359 . S
C591 C589 1.417 . S
C591 C593 1.329 . S
C591 H610 0.930 . S
C592 C588 1.415 . S
C592 C593 1.437 . S
C592 C596 1.413 . S
C593 C591 1.329 . S
C593 C592 1.437 . S
C593 H615 0.929 . S
N594 C588 1.369 . S
N594 C595 1.338 . S
N594 Gd599 2.622 . S
C595 N594 1.338 . S
C595 C597 1.378 . S
C595 H607 0.929 . S
C596 C592 1.413 . S
C596 C597 1.348 . S
C596 H612 0.931 . S
C597 C595 1.378 . S
C597 C596 1.348 . S
C597 H613 0.930 1_545 S
Gd598 N618 2.622 . S
Gd598 N625 2.570 . S
Gd598 O632 2.353 1_556 S
Gd598 O633 2.468 1_556 S
Gd598 O634 2.427 1_556 S
Gd598 O636 2.388 1_556 S
Gd598 O637 2.386 . S
Gd598 O641 2.307 . S
Gd598 C651 2.805 1_556 S
Gd599 N594 2.622 . S
Gd599 N600 2.570 . S
Gd599 O631 2.386 . S
Gd599 O635 2.307 . S
Gd599 O638 2.353 1_554 S
Gd599 O639 2.468 1_554 S
Gd599 O640 2.427 1_554 S
Gd599 O642 2.388 1_554 S
Gd599 C663 2.805 1_554 S
N600 C590 1.359 . S
N600 Gd599 2.570 . S
N600 C602 1.343 . S
C601 C589 1.422 . S
C601 C603 1.321 . S
C601 H609 0.931 . S
C602 N600 1.343 . S
C602 C603 1.390 . S
C602 H604 0.931 . S
C603 C601 1.321 . S
C603 C602 1.390 . S
C603 H605 0.930 . S
H604 C602 0.931 . S
H605 C603 0.930 . S
H606 C629 0.931 . S
H607 C595 0.929 . S
H608 C630 0.930 . S
H609 C601 0.931 . S
H610 C591 0.930 . S
H611 C620 0.929 . S
H612 C596 0.931 . S
H613 C597 0.930 1_565 S
H614 C652 0.930 . S
H615 C593 0.929 . S
H616 C621 0.931 . S
H617 C622 0.930 . S
N618 Gd598 2.622 . S
N618 C619 1.369 . S
N618 C620 1.338 . S
C619 N618 1.369 . S
C619 C623 1.415 . S
C619 C626 1.422 . S
C620 H611 0.929 . S
C620 N618 1.338 . S
C620 C622 1.378 . S
C621 H616 0.931 . S
C621 C622 1.348 . S
C621 C623 1.413 . S
C622 H617 0.930 . S
C622 C620 1.378 . S
C622 C621 1.348 . S
C623 C619 1.415 . S
C623 C621 1.413 . S
C623 C653 1.437 . S
H624 C653 0.929 . S
N625 Gd598 2.570 . S
N625 C626 1.359 . S
N625 C629 1.343 . S
C626 C619 1.422 . S
C626 N625 1.359 . S
C626 C628 1.421 . S
C627 C628 1.422 . S
C627 C630 1.321 . S
C627 H654 0.931 . S
C628 C626 1.421 . S
C628 C627 1.422 . S
C628 C652 1.417 . S
C629 H606 0.931 . S
C629 N625 1.343 . S
C629 C630 1.390 . S
C630 H608 0.930 . S
C630 C627 1.321 . S
C630 C629 1.390 . S
O631 Gd599 2.386 . S
O631 C643 1.265 . S
O632 Gd598 2.353 1_554 S
O632 C643 1.242 . S
O633 Gd598 2.468 1_554 S
O633 C651 1.263 . S
O634 Gd598 2.427 1_554 S
O634 C651 1.252 . S
O635 Gd599 2.307 . S
O635 C644 1.261 . S
O636 Gd598 2.388 1_554 S
O636 C644 1.252 . S
O637 Gd598 2.386 . S
O637 C655 1.265 . S
O638 Gd599 2.353 1_556 S
O638 C655 1.242 . S
O639 Gd599 2.468 1_556 S
O639 C663 1.263 . S
O640 Gd599 2.427 1_556 S
O640 C663 1.252 . S
O641 Gd598 2.307 . S
O641 C656 1.261 . S
O642 Gd599 2.388 1_556 S
O642 C656 1.252 . S
C643 O631 1.265 . S
C643 O632 1.242 . S
C644 O635 1.261 . S
C644 O636 1.252 . S
C645 C648 1.394 . S
C645 C650 1.370 . S
C645 C651 1.500 . S
C646 C649 1.383 . S
C646 C650 1.395 . S
C647 C648 1.396 . S
C647 C649 1.365 . S
C647 H664 0.929 . S
C648 C645 1.394 . S
C648 C647 1.396 . S
C648 H665 0.930 . S
C649 C646 1.383 . S
C649 C647 1.365 . S
C649 H666 0.931 . S
C650 C645 1.370 . S
C650 C646 1.395 . S
C650 H667 0.930 . S
C651 Gd598 2.805 1_554 S
C651 O633 1.263 . S
C651 O634 1.252 . S
C651 C645 1.500 . S
C652 H614 0.930 . S
C652 C628 1.417 . S
C652 C653 1.329 . S
C653 C623 1.437 . S
C653 H624 0.929 . S
C653 C652 1.329 . S
H654 C627 0.931 . S
C655 O637 1.265 . S
C655 O638 1.242 . S
C656 O641 1.261 . S
C656 O642 1.252 . S
C657 C660 1.394 . S
C657 C662 1.370 . S
C657 C663 1.500 . S
C658 C661 1.383 . S
C658 C662 1.395 . S
C659 C660 1.396 . S
C659 C661 1.365 . S
C659 H668 0.929 . S
C660 C657 1.394 . S
C660 C659 1.396 . S
C660 H669 0.930 . S
C661 C658 1.383 . S
C661 C659 1.365 . S
C661 H670 0.931 . S
C662 C657 1.370 . S
C662 C658 1.395 . S
C662 H671 0.930 . S
C663 Gd599 2.805 1_556 S
C663 O639 1.263 . S
C663 O640 1.252 . S
C663 C657 1.500 . S
H664 C647 0.929 . S
H665 C648 0.930 . S
H666 C649 0.931 . S
H667 C650 0.930 . S
H668 C659 0.929 . S
H669 C660 0.930 . S
H670 C661 0.931 . S
H671 C662 0.930 . S
C672 C673 1.369 . S
C672 C674 1.419 . S
C672 H676 0.930 . S
C673 C672 1.369 . S
C673 C682 1.429 . S
C674 C672 1.419 . S
C674 C675 1.363 . S
C674 H677 0.929 . S
C675 C674 1.363 . S
C675 C681 1.428 . S
H676 C672 0.930 . S
H677 C674 0.929 . S
S678 N679 1.613 . S
S678 N680 1.610 . S
N679 S678 1.613 . S
N679 C682 1.350 . S
N680 S678 1.610 . S
N680 C681 1.351 . S
C681 C675 1.428 . S
C681 N680 1.351 . S
C681 C682 1.434 . S
C682 C673 1.429 . S
C682 N679 1.350 . S
C682 C681 1.434 . S
C683 C684 1.369 . S
C683 C685 1.419 . S
C683 H687 0.930 . S
C684 C683 1.369 . S
C684 C693 1.429 . S
C685 C683 1.419 . S
C685 C686 1.363 . S
C685 H688 0.929 . S
C686 C685 1.363 . S
C686 C692 1.428 . S
H687 C683 0.930 . S
H688 C685 0.929 . S
S689 N690 1.613 . S
S689 N691 1.610 . S
N690 S689 1.613 . S
N690 C693 1.350 . S
N691 S689 1.610 . S
N691 C692 1.351 . S
C692 C686 1.428 . S
C692 N691 1.351 . S
C692 C693 1.434 . S
C693 C684 1.429 . S
C693 N690 1.350 . S
C693 C692 1.434 . S
C694 C695 1.369 . S
C694 C696 1.419 . S
C694 H698 0.930 . S
C695 C694 1.369 . S
C695 C704 1.429 . S
C696 C694 1.419 . S
C696 C697 1.363 . S
C696 H699 0.929 . S
C697 C696 1.363 . S
C697 C703 1.428 . S
H698 C694 0.930 . S
H699 C696 0.929 . S
S700 N701 1.613 . S
S700 N702 1.610 . S
N701 S700 1.613 . S
N701 C704 1.350 . S
N702 S700 1.610 . S
N702 C703 1.351 . S
C703 C697 1.428 . S
C703 N702 1.351 . S
C703 C704 1.434 . S
C704 C695 1.429 . S
C704 N701 1.350 . S
C704 C703 1.434 . S
C705 C706 1.369 . S
C705 C707 1.419 . S
C705 H709 0.930 . S
C706 C705 1.369 . S
C706 C715 1.429 . S
C707 C705 1.419 . S
C707 C708 1.363 . S
C707 H710 0.929 . S
C708 C707 1.363 . S
C708 C714 1.428 . S
H709 C705 0.930 . S
H710 C707 0.929 . S
S711 N712 1.613 . S
S711 N713 1.610 . S
N712 S711 1.613 . S
N712 C715 1.350 . S
N713 S711 1.610 . S
N713 C714 1.351 . S
C714 C708 1.428 . S
C714 N713 1.351 . S
C714 C715 1.434 . S
C715 C706 1.429 . S
C715 N712 1.350 . S
C715 C714 1.434 . S
C716 C717 1.369 . S
C716 C718 1.419 1_565 S
C716 H720 0.930 . S
C717 C716 1.369 . S
C717 C726 1.429 . S
C718 C716 1.419 1_545 S
C718 C719 1.363 . S
C718 H721 0.929 . S
C719 C718 1.363 . S
C719 C725 1.428 . S
H720 C716 0.930 . S
H721 C718 0.929 . S
S722 N723 1.613 . S
S722 N724 1.610 1_565 S
N723 S722 1.613 . S
N723 C726 1.350 . S
N724 S722 1.610 1_545 S
N724 C725 1.351 . S
C725 C719 1.428 . S
C725 N724 1.351 . S
C725 C726 1.434 1_545 S
C726 C717 1.429 . S
C726 N723 1.350 . S
C726 C725 1.434 1_565 S
C727 C728 1.369 . S
C727 C729 1.419 . S
C727 H731 0.930 . S
C728 C727 1.369 . S
C728 C737 1.429 . S
C729 C727 1.419 . S
C729 C730 1.363 . S
C729 H732 0.929 . S
C730 C729 1.363 . S
C730 C736 1.428 . S
H731 C727 0.930 . S
H732 C729 0.929 . S
S733 N734 1.613 . S
S733 N735 1.610 . S
N734 S733 1.613 . S
N734 C737 1.350 . S
N735 S733 1.610 . S
N735 C736 1.351 . S
C736 C730 1.428 . S
C736 N735 1.351 . S
C736 C737 1.434 . S
C737 C728 1.429 . S
C737 N734 1.350 . S
C737 C736 1.434 . S
C738 C739 1.369 . S
C738 C740 1.419 1_565 S
C738 H742 0.930 . S
C739 C738 1.369 . S
C739 C748 1.429 . S
C740 C738 1.419 1_545 S
C740 C741 1.363 . S
C740 H743 0.929 . S
C741 C740 1.363 . S
C741 C747 1.428 . S
H742 C738 0.930 . S
H743 C740 0.929 . S
S744 N745 1.613 . S
S744 N746 1.610 1_565 S
N745 S744 1.613 . S
N745 C748 1.350 . S
N746 S744 1.610 1_545 S
N746 C747 1.351 . S
C747 C741 1.428 . S
C747 N746 1.351 . S
C747 C748 1.434 1_545 S
C748 C739 1.429 . S
C748 N745 1.350 . S
C748 C747 1.434 1_565 S
C749 C750 1.369 . S
C749 C751 1.419 . S
C749 H753 0.930 . S
C750 C749 1.369 . S
C750 C759 1.429 . S
C751 C749 1.419 . S
C751 C752 1.363 . S
C751 H754 0.929 . S
C752 C751 1.363 . S
C752 C758 1.428 . S
H753 C749 0.930 . S
H754 C751 0.929 . S
S755 N756 1.613 . S
S755 N757 1.610 . S
N756 S755 1.613 . S
N756 C759 1.350 . S
N757 S755 1.610 . S
N757 C758 1.351 . S
C758 C752 1.428 . S
C758 N757 1.351 . S
C758 C759 1.434 . S
C759 C750 1.429 . S
C759 N756 1.350 . S
C759 C758 1.434 . S
C760 C761 1.369 1_554 S
C760 C762 1.419 . S
C760 H764 0.930 . S
C761 C760 1.369 1_556 S
C761 C770 1.429 . S
C762 C760 1.419 . S
C762 C763 1.363 . S
C762 H765 0.929 . S
C763 C762 1.363 . S
C763 C769 1.428 1_554 S
H764 C760 0.930 . S
H765 C762 0.929 . S
S766 N767 1.613 . S
S766 N768 1.610 . S
N767 S766 1.613 . S
N767 C770 1.350 . S
N768 S766 1.610 . S
N768 C769 1.351 . S
C769 C763 1.428 1_556 S
C769 N768 1.351 . S
C769 C770 1.434 . S
C770 C761 1.429 . S
C770 N767 1.350 . S
C770 C769 1.434 . S
C771 C772 1.369 1_556 S
C771 C773 1.419 1_565 S
C771 H775 0.930 . S
C772 C771 1.369 1_554 S
C772 C781 1.429 . S
C773 C771 1.419 1_545 S
C773 C774 1.363 . S
C773 H776 0.929 . S
C774 C773 1.363 . S
C774 C780 1.428 1_556 S
H775 C771 0.930 . S
H776 C773 0.929 . S
S777 N778 1.613 1_545 S
S777 N779 1.610 . S
N778 S777 1.613 1_565 S
N778 C781 1.350 . S
N779 S777 1.610 . S
N779 C780 1.351 . S
C780 C774 1.428 1_554 S
C780 N779 1.351 . S
C780 C781 1.434 1_545 S
C781 C772 1.429 . S
C781 N778 1.350 . S
C781 C780 1.434 1_565 S
C782 C783 1.369 1_556 S
C782 C784 1.419 . S
C782 H786 0.930 . S
C783 C782 1.369 1_554 S
C783 C792 1.429 . S
C784 C782 1.419 . S
C784 C785 1.363 . S
C784 H787 0.929 . S
C785 C784 1.363 . S
C785 C791 1.428 1_556 S
H786 C782 0.930 . S
H787 C784 0.929 . S
S788 N789 1.613 . S
S788 N790 1.610 . S
N789 S788 1.613 . S
N789 C792 1.350 . S
N790 S788 1.610 . S
N790 C791 1.351 . S
C791 C785 1.428 1_554 S
C791 N790 1.351 . S
C791 C792 1.434 . S
C792 C783 1.429 . S
C792 N789 1.350 . S
C792 C791 1.434 . S
C793 C794 1.369 . S
C793 C795 1.419 1_545 S
C793 H797 0.930 . S
C794 C793 1.369 . S
C794 C803 1.429 1_556 S
C795 C793 1.419 1_565 S
C795 C796 1.363 1_556 S
C795 H798 0.929 . S
C796 C795 1.363 1_554 S
C796 C802 1.428 . S
H797 C793 0.930 . S
H798 C795 0.929 . S
S799 N800 1.613 . S
S799 N801 1.610 1_545 S
N800 S799 1.613 . S
N800 C803 1.350 . S
N801 S799 1.610 1_565 S
N801 C802 1.351 . S
C802 C796 1.428 . S
C802 N801 1.351 . S
C802 C803 1.434 1_565 S
C803 C794 1.429 1_554 S
C803 N800 1.350 . S
C803 C802 1.434 1_545 S
C804 C805 1.369 . S
C804 C806 1.419 1_554 S
C804 H808 0.930 . S
C805 C804 1.369 . S
C805 C814 1.429 . S
C806 C804 1.419 1_556 S
C806 C807 1.363 . S
C806 H809 0.929 . S
C807 C806 1.363 . S
C807 C813 1.428 . S
H808 C804 0.930 . S
H809 C806 0.929 . S
S810 N811 1.613 1_556 S
S810 N812 1.610 . S
N811 S810 1.613 1_554 S
N811 C814 1.350 . S
N812 S810 1.610 . S
N812 C813 1.351 . S
C813 C807 1.428 . S
C813 N812 1.351 . S
C813 C814 1.434 1_556 S
C814 C805 1.429 . S
C814 N811 1.350 . S
C814 C813 1.434 1_554 S
C815 C816 1.369 . S
C815 C817 1.419 1_554 S
C815 H819 0.930 . S
C816 C815 1.369 . S
C816 C825 1.429 1_554 S
C817 C815 1.419 1_556 S
C817 C818 1.363 . S
C817 H820 0.929 . S
C818 C817 1.363 . S
C818 C824 1.428 . S
H819 C815 0.930 . S
H820 C817 0.929 . S
S821 N822 1.613 . S
S821 N823 1.610 . S
N822 S821 1.613 . S
N822 C825 1.350 . S
N823 S821 1.610 . S
N823 C824 1.351 . S
C824 C818 1.428 . S
C824 N823 1.351 . S
C824 C825 1.434 . S
C825 C816 1.429 1_556 S
C825 N822 1.350 . S
C825 C824 1.434 . S
C826 C827 1.369 . S
C826 C828 1.419 1_554 S
C826 H830 0.930 . S
C827 C826 1.369 . S
C827 C836 1.429 . S
C828 C826 1.419 1_556 S
C828 C829 1.363 . S
C828 H831 0.929 . S
C829 C828 1.363 . S
C829 C835 1.428 1_556 S
H830 C826 0.930 . S
H831 C828 0.929 . S
S832 N833 1.613 . S
S832 N834 1.610 . S
N833 S832 1.613 . S
N833 C836 1.350 . S
N834 S832 1.610 . S
N834 C835 1.351 . S
C835 C829 1.428 1_554 S
C835 N834 1.351 . S
C835 C836 1.434 . S
C836 C827 1.429 . S
C836 N833 1.350 . S
C836 C835 1.434 . S
C837 C838 1.369 . S
C837 C839 1.419 1_556 S
C837 H841 0.930 . S
C838 C837 1.369 . S
C838 C847 1.429 1_556 S
C839 C837 1.419 1_554 S
C839 C840 1.363 . S
C839 H842 0.929 . S
C840 C839 1.363 . S
C840 C846 1.428 . S
H841 C837 0.930 . S
H842 C839 0.929 . S
S843 N844 1.613 . S
S843 N845 1.610 . S
N844 S843 1.613 . S
N844 C847 1.350 . S
N845 S843 1.610 . S
N845 C846 1.351 . S
C846 C840 1.428 . S
C846 N845 1.351 . S
C846 C847 1.434 . S
C847 C838 1.429 1_554 S
C847 N844 1.350 . S
C847 C846 1.434 . S
C848 C849 1.369 . S
C848 C850 1.419 . S
C848 H852 0.930 . S
C849 C848 1.369 . S
C849 C858 1.429 . S
C850 C848 1.419 . S
C850 C851 1.363 . S
C850 H853 0.929 . S
C851 C850 1.363 . S
C851 C857 1.428 . S
H852 C848 0.930 . S
H853 C850 0.929 . S
S854 N855 1.613 . S
S854 N856 1.610 . S
N855 S854 1.613 . S
N855 C858 1.350 . S
N856 S854 1.610 . S
N856 C857 1.351 . S
C857 C851 1.428 . S
C857 N856 1.351 . S
C857 C858 1.434 . S
C858 C849 1.429 . S
C858 N855 1.350 . S
C858 C857 1.434 . S
C859 C860 1.369 . S
C859 C861 1.419 . S
C859 H863 0.930 . S
C860 C859 1.369 . S
C860 C869 1.429 . S
C861 C859 1.419 . S
C861 C862 1.363 . S
C861 H864 0.929 . S
C862 C861 1.363 . S
C862 C868 1.428 . S
H863 C859 0.930 . S
H864 C861 0.929 . S
S865 N866 1.613 . S
S865 N867 1.610 . S
N866 S865 1.613 . S
N866 C869 1.350 . S
N867 S865 1.610 . S
N867 C868 1.351 . S
C868 C862 1.428 . S
C868 N867 1.351 . S
C868 C869 1.434 . S
C869 C860 1.429 . S
C869 N866 1.350 . S
C869 C868 1.434 . S
C870 C871 1.369 . S
C870 C872 1.419 . S
C870 H874 0.930 . S
C871 C870 1.369 . S
C871 C880 1.429 . S
C872 C870 1.419 . S
C872 C873 1.363 . S
C872 H875 0.929 . S
C873 C872 1.363 . S
C873 C879 1.428 . S
H874 C870 0.930 . S
H875 C872 0.929 . S
S876 N877 1.613 . S
S876 N878 1.610 . S
N877 S876 1.613 . S
N877 C880 1.350 . S
N878 S876 1.610 . S
N878 C879 1.351 . S
C879 C873 1.428 . S
C879 N878 1.351 . S
C879 C880 1.434 . S
C880 C871 1.429 . S
C880 N877 1.350 . S
C880 C879 1.434 . S
C881 C882 1.369 . S
C881 C883 1.419 . S
C881 H885 0.930 . S
C882 C881 1.369 . S
C882 C891 1.429 . S
C883 C881 1.419 . S
C883 C884 1.363 . S
C883 H886 0.929 . S
C884 C883 1.363 . S
C884 C890 1.428 . S
H885 C881 0.930 . S
H886 C883 0.929 . S
S887 N888 1.613 . S
S887 N889 1.610 . S
N888 S887 1.613 . S
N888 C891 1.350 . S
N889 S887 1.610 . S
N889 C890 1.351 . S
C890 C884 1.428 . S
C890 N889 1.351 . S
C890 C891 1.434 . S
C891 C882 1.429 . S
C891 N888 1.350 . S
C891 C890 1.434 . S
C892 C893 1.369 . S
C892 C894 1.419 1_455 S
C892 H896 0.930 . S
C893 C892 1.369 . S
C893 C902 1.429 . S
C894 C892 1.419 1_655 S
C894 C895 1.363 . S
C894 H897 0.929 . S
C895 C894 1.363 . S
C895 C901 1.428 . S
H896 C892 0.930 . S
H897 C894 0.929 . S
S898 N899 1.619 1_655 S
S898 N900 1.605 . S
N899 S898 1.619 1_455 S
N899 C902 1.350 . S
N900 S898 1.605 . S
N900 C901 1.351 . S
C901 C895 1.428 . S
C901 N900 1.351 . S
C901 C902 1.434 1_655 S
C902 C893 1.429 . S
C902 N899 1.350 . S
C902 C901 1.434 1_455 S
C903 C904 1.369 . S
C903 C905 1.419 1_655 S
C903 H907 0.930 . S
C904 C903 1.369 . S
C904 C913 1.429 . S
C905 C903 1.419 1_455 S
C905 C906 1.363 . S
C905 H908 0.929 . S
C906 C905 1.363 . S
C906 C912 1.428 . S
H907 C903 0.930 . S
H908 C905 0.929 . S
S909 N910 1.619 1_455 S
S909 N911 1.605 . S
N910 S909 1.619 1_655 S
N910 C913 1.350 . S
N911 S909 1.605 . S
N911 C912 1.351 . S
C912 C906 1.428 . S
C912 N911 1.351 . S
C912 C913 1.434 1_455 S
C913 C904 1.429 . S
C913 N910 1.350 . S
C913 C912 1.434 1_655 S
C914 C915 1.369 . S
C914 C916 1.419 . S
C914 H918 0.930 . S
C915 C914 1.369 . S
C915 C924 1.429 . S
C916 C914 1.419 . S
C916 C917 1.363 . S
C916 H919 0.929 . S
C917 C916 1.363 . S
C917 C923 1.428 . S
H918 C914 0.930 . S
H919 C916 0.929 . S
S920 N921 1.613 1_545 S
S920 N922 1.610 1_545 S
N921 S920 1.613 1_565 S
N921 C924 1.350 . S
N922 S920 1.610 1_565 S
N922 C923 1.351 . S
C923 C917 1.428 . S
C923 N922 1.351 . S
C923 C924 1.434 . S
C924 C915 1.429 . S
C924 N921 1.350 . S
C924 C923 1.434 . S
C925 C926 1.369 . S
C925 C927 1.419 . S
C925 H929 0.930 . S
C926 C925 1.369 . S
C926 C935 1.429 . S
C927 C925 1.419 . S
C927 C928 1.363 . S
C927 H930 0.929 . S
C928 C927 1.363 . S
C928 C934 1.428 . S
H929 C925 0.930 . S
H930 C927 0.929 . S
S931 N932 1.613 1_556 S
S931 N933 1.610 1_556 S
N932 S931 1.613 1_554 S
N932 C935 1.350 . S
N933 S931 1.610 1_554 S
N933 C934 1.351 . S
C934 C928 1.428 . S
C934 N933 1.351 . S
C934 C935 1.434 . S
C935 C926 1.429 . S
C935 N932 1.350 . S
C935 C934 1.434 . S
C673 C58 1.507 . S
C675 C658 1.522 . S
C684 C562 1.514 . S
C686 C154 1.515 . S
C695 C490 1.520 . S
C697 C226 1.511 . S
C706 C394 1.507 . S
C708 C322 1.522 . S
C717 C236 2.324 . S
C719 C68 2.324 . S
C728 C152 0.781 . S
C730 C320 0.788 . S
C739 C308 2.322 . S
C741 C140 2.323 . S
C750 C224 0.778 . S
C752 C56 0.784 . S
C761 C404 2.318 . S
C763 C572 2.318 . S
C772 C488 0.749 . S
C774 C656 0.750 . S
C783 C644 2.314 . S
C785 C476 2.315 . S
C794 C560 0.754 . S
C796 C392 0.755 . S
C805 C67 1.812 . S
C807 C55 1.806 . S
C816 C139 1.812 . S
C818 C151 1.806 . S
C827 C223 1.805 . S
C829 C235 1.811 . S
C838 C307 1.812 . S
C840 C319 1.806 . S
C849 C391 1.805 . S
C851 C403 1.811 . S
C860 C475 1.807 . S
C862 C487 1.810 . S
C871 C571 1.812 . S
C873 C559 1.806 . S
C882 C643 1.811 . S
C884 C655 1.807 . S
C893 C70 1.948 . S
C895 C142 1.948 . S
C904 C310 1.946 . S
C906 C238 1.946 . S
C915 C406 1.956 . S
C917 C478 1.955 . S
C926 C646 1.950 . S
C928 C574 1.950 . S
