# Generated by pormake.
# Topology snk, (6)-cn, num edge types: 1
# Building blocks:
#     Node 0, Type 0, BuildingBlock: KUMBOL_clean_sbu_1, # of connection points: 6
#     Node 1, Type 0, BuildingBlock: KUMBOL_clean_sbu_1, # of connection points: 6
#     Node 2, Type 0, BuildingBlock: KUMBOL_clean_sbu_1, # of connection points: 6
#     Node 3, Type 0, BuildingBlock: KUMBOL_clean_sbu_1, # of connection points: 6
#     Node 4, Type 0, BuildingBlock: KUMBOL_clean_sbu_1, # of connection points: 6
#     Node 5, Type 0, BuildingBlock: KUMBOL_clean_sbu_1, # of connection points: 6
#     Node 6, Type 0, BuildingBlock: KUMBOL_clean_sbu_1, # of connection points: 6
#     Node 7, Type 0, BuildingBlock: KUMBOL_clean_sbu_1, # of connection points: 6
#     Edge 8, Type (0, 0), BuildingBlock: ZUJKAS_clean_linker_0, # of connection points: 2
#     Edge 9, Type (0, 0), BuildingBlock: ZUJKAS_clean_linker_0, # of connection points: 2
#     Edge 10, Type (0, 0), BuildingBlock: ZUJKAS_clean_linker_0, # of connection points: 2
#     Edge 11, Type (0, 0), BuildingBlock: ZUJKAS_clean_linker_0, # of connection points: 2
#     Edge 12, Type (0, 0), BuildingBlock: ZUJKAS_clean_linker_0, # of connection points: 2
#     Edge 13, Type (0, 0), BuildingBlock: ZUJKAS_clean_linker_0, # of connection points: 2
#     Edge 14, Type (0, 0), BuildingBlock: ZUJKAS_clean_linker_0, # of connection points: 2
#     Edge 15, Type (0, 0), BuildingBlock: ZUJKAS_clean_linker_0, # of connection points: 2
#     Edge 16, Type (0, 0), BuildingBlock: ZUJKAS_clean_linker_0, # of connection points: 2
#     Edge 17, Type (0, 0), BuildingBlock: ZUJKAS_clean_linker_0, # of connection points: 2
#     Edge 18, Type (0, 0), BuildingBlock: ZUJKAS_clean_linker_0, # of connection points: 2
#     Edge 19, Type (0, 0), BuildingBlock: ZUJKAS_clean_linker_0, # of connection points: 2
#     Edge 20, Type (0, 0), BuildingBlock: ZUJKAS_clean_linker_0, # of connection points: 2
#     Edge 21, Type (0, 0), BuildingBlock: ZUJKAS_clean_linker_0, # of connection points: 2
#     Edge 22, Type (0, 0), BuildingBlock: ZUJKAS_clean_linker_0, # of connection points: 2
#     Edge 23, Type (0, 0), BuildingBlock: ZUJKAS_clean_linker_0, # of connection points: 2
#     Edge 24, Type (0, 0), BuildingBlock: ZUJKAS_clean_linker_0, # of connection points: 2
#     Edge 25, Type (0, 0), BuildingBlock: ZUJKAS_clean_linker_0, # of connection points: 2
#     Edge 26, Type (0, 0), BuildingBlock: ZUJKAS_clean_linker_0, # of connection points: 2
#     Edge 27, Type (0, 0), BuildingBlock: ZUJKAS_clean_linker_0, # of connection points: 2
#     Edge 28, Type (0, 0), BuildingBlock: ZUJKAS_clean_linker_0, # of connection points: 2
#     Edge 29, Type (0, 0), BuildingBlock: ZUJKAS_clean_linker_0, # of connection points: 2
#     Edge 30, Type (0, 0), BuildingBlock: ZUJKAS_clean_linker_0, # of connection points: 2
#     Edge 31, Type (0, 0), BuildingBlock: ZUJKAS_clean_linker_0, # of connection points: 2
# Relax obj value: 0.009
# Max RMSD: 0.071
# Mean RMSD: 0.070
data_MOF--net-snk--node1-KUMBOL_clean_sbu_1--edge1-ZUJKAS_clean_linker_0
_symmetry_space_group_name_H-M    P1
_symmetry_Int_Tables_number       1
_symmetry_cell_setting            triclinic
loop_
_symmetry_equiv_pos_as_xyz
'x, y, z'
_cell_length_a     50.876494
_cell_length_b     50.839774
_cell_length_c     29.408567
_cell_angle_alpha  90.14346
_cell_angle_beta   90.026106
_cell_angle_gamma 90.047439
loop_
_atom_site_label
_atom_site_type_symbol
_atom_site_fract_x
_atom_site_fract_y
_atom_site_fract_z
_atom_type_partial_charge
C0 C 0.96326 0.94045 0.45079 0.0
C1 C 0.92112 0.95777 0.42717 0.0
C2 C 0.94788 0.96159 0.43784 0.0
C3 C 0.90987 0.93267 0.43212 0.0
C4 C 0.95246 0.91498 0.45357 0.0
C5 C 0.92553 0.9113 0.44514 0.0
N6 N 0.98909 0.94475 0.45957 0.0
C7 C 0.00577 0.92429 0.46773 0.0
C8 C 0.96918 0.89396 0.464 0.0
C9 C 0.99603 0.8986 0.47047 0.0
Gd10 Gd 0.00887 0.02422 0.57947 0.0
Gd11 Gd 0.00384 0.98831 0.45597 0.0
N12 N 0.95952 0.98548 0.43275 0.0
C13 C 0.90675 0.97904 0.41018 0.0
C14 C 0.94622 0.00549 0.41209 0.0
C15 C 0.91951 0.00286 0.40171 0.0
H16 H 0.95618 0.02345 0.40294 0.0
H17 H 0.90891 0.01905 0.38652 0.0
H18 H 0.07 0.01093 0.61163 0.0
H19 H 0.02648 0.92795 0.47286 0.0
H20 H 0.11267 0.03419 0.6197 0.0
H21 H 0.88613 0.97695 0.40162 0.0
H22 H 0.88926 0.92943 0.42462 0.0
H23 H 0.96275 0.07237 0.57482 0.0
H24 H 0.96165 0.87407 0.4664 0.0
H25 H 0.00918 0.88243 0.47778 0.0
H26 H 0.09274 0.12352 0.57935 0.0
H27 H 0.91676 0.89193 0.44762 0.0
H28 H 0.00235 0.14554 0.55409 0.0
H29 H 0.9611 0.11999 0.56021 0.0
N30 N 0.00452 0.07016 0.57106 0.0
C31 C 0.0273 0.08416 0.57138 0.0
C32 C 0.98092 0.08295 0.5698 0.0
C33 C 0.00321 0.12446 0.55915 0.0
C34 C 0.97989 0.1101 0.5625 0.0
C35 C 0.0273 0.11165 0.565 0.0
H36 H 0.05158 0.14665 0.56121 0.0
N37 N 0.04971 0.04488 0.58866 0.0
C38 C 0.05054 0.07121 0.58139 0.0
C39 C 0.09698 0.07161 0.59856 0.0
C40 C 0.07432 0.08525 0.58536 0.0
C41 C 0.07132 0.03169 0.60405 0.0
C42 C 0.09538 0.04478 0.6086 0.0
O43 O 0.98953 0.96775 0.52 0.0
O44 O 0.97213 1.00114 0.56277 0.0
O45 O 0.01304 0.00266 0.64285 0.0
O46 O 0.99773 0.04208 0.64391 0.0
O47 O 0.98743 0.02953 0.46428 0.0
O48 O 0.97178 0.03116 0.53782 0.0
O49 O 0.04184 0.02639 0.52715 0.0
O50 O 0.01964 0.02967 0.46027 0.0
O51 O 1.00146 0.98462 0.3817 0.0
O52 O 0.03872 0.97831 0.41718 0.0
O53 O 0.02779 0.98418 0.57464 0.0
O54 O 0.03916 0.97643 0.4989 0.0
C55 C 0.97201 0.97652 0.54917 0.0
C56 C 0.97064 0.03831 0.49482 0.0
C57 C 0.98307 0.01311 0.70112 0.0
C58 C 0.97109 0.00276 0.77981 0.0
C59 C 0.93847 1.00007 0.71911 0.0
C60 C 0.95725 0.00782 0.68729 0.0
C61 C 0.94523 0.99764 0.76498 0.0
C62 C 0.98996 0.01048 0.74725 0.0
C63 C 0.00301 0.02125 0.66775 0.0
C64 C 0.0746 0.11242 0.57694 0.0
C65 C 0.05116 0.12557 0.56655 0.0
H66 H 0.11565 0.0817 0.60198 0.0
C67 C 0.03939 0.03645 0.48635 0.0
C68 C 0.04195 0.97227 0.5431 0.0
C69 C 0.0398 0.97372 0.33471 0.0
C70 C 0.04204 0.97628 0.25159 0.0
C71 C 0.07933 0.95998 0.29482 0.0
C72 C 0.06553 0.9637 0.33526 0.0
C73 C 0.0678 0.96639 0.25332 0.0
C74 C 0.0279 0.97962 0.2925 0.0
C75 C 0.02636 0.97917 0.37842 0.0
H76 H 0.91853 0.99609 0.70823 0.0
H77 H 0.95166 0.00982 0.65196 0.0
H78 H 0.93003 0.99215 0.78889 0.0
H79 H 0.01009 0.01419 0.75752 0.0
H80 H 0.09916 0.95229 0.29568 0.0
H81 H 0.07515 0.95891 0.36705 0.0
H82 H 0.07897 0.96343 0.22237 0.0
H83 H 0.00814 0.98754 0.29148 0.0
C84 C 0.32019 0.70458 0.71007 0.0
C85 C 0.30195 0.66239 0.68836 0.0
C86 C 0.29912 0.68973 0.69499 0.0
C87 C 0.32583 0.65014 0.69964 0.0
C88 C 0.34458 0.69265 0.71945 0.0
C89 C 0.34712 0.66525 0.71503 0.0
N90 N 0.31695 0.73094 0.71455 0.0
C91 C 0.33777 0.74688 0.72458 0.0
C92 C 0.36574 0.70872 0.73214 0.0
C93 C 0.36239 0.73599 0.73414 0.0
Gd94 Gd 0.23404 0.75519 0.82128 0.0
Gd95 Gd 0.27461 0.74759 0.7016 0.0
N96 N 0.27646 0.70229 0.6839 0.0
C97 C 0.28107 0.6484 0.66891 0.0
C98 C 0.2572 0.68918 0.66073 0.0
C99 C 0.25882 0.66198 0.65411 0.0
H100 H 0.24065 0.69966 0.64679 0.0
H101 H 0.24308 0.65158 0.63697 0.0
H102 H 0.24269 0.81769 0.85115 0.0
H103 H 0.33507 0.76792 0.72631 0.0
H104 H 0.21705 0.85915 0.85376 0.0
H105 H 0.28242 0.62738 0.66329 0.0
H106 H 0.32828 0.62912 0.69525 0.0
H107 H 0.18877 0.70669 0.82259 0.0
H108 H 0.38484 0.70034 0.73954 0.0
H109 H 0.37874 0.74861 0.74312 0.0
H110 H 0.13032 0.83308 0.80648 0.0
H111 H 0.36564 0.65564 0.72235 0.0
H112 H 0.11375 0.74053 0.7926 0.0
H113 H 0.14145 0.70132 0.80625 0.0
N114 N 0.18848 0.74809 0.81274 0.0
C115 C 0.17327 0.76989 0.8089 0.0
C116 C 0.17711 0.72379 0.81455 0.0
C117 C 0.13464 0.7429 0.79849 0.0
C118 C 0.1502 0.72073 0.80617 0.0
C119 C 0.14597 0.76795 0.80125 0.0
H120 H 0.10983 0.78992 0.7923 0.0
N121 N 0.21072 0.79491 0.82651 0.0
C122 C 0.18469 0.79411 0.81679 0.0
C123 C 0.1813 0.84089 0.83001 0.0
C124 C 0.16932 0.81715 0.81741 0.0
C125 C 0.2222 0.81762 0.84155 0.0
C126 C 0.20775 0.84103 0.84297 0.0
O127 O 0.29182 0.73675 0.77029 0.0
O128 O 0.25714 0.7182 0.80716 0.0
O129 O 0.25568 0.76136 0.88405 0.0
O130 O 0.21704 0.74436 0.88675 0.0
O131 O 0.23267 0.73256 0.70519 0.0
O132 O 0.22816 0.71799 0.77895 0.0
O133 O 0.23305 0.78729 0.76741 0.0
O134 O 0.23381 0.76482 0.69991 0.0
O135 O 0.28116 0.74234 0.62825 0.0
O136 O 0.2885 0.78032 0.66083 0.0
O137 O 0.27291 0.77678 0.81767 0.0
O138 O 0.28489 0.78441 0.74194 0.0
C139 C 0.28223 0.71872 0.79736 0.0
C140 C 0.22175 0.71697 0.73553 0.0
C141 C 0.24756 0.73171 0.94348 0.0
C142 C 0.25934 0.72082 0.02202 0.0
C143 C 0.26834 0.68995 0.96043 0.0
C144 C 0.25751 0.70738 0.92902 0.0
C145 C 0.26934 0.69659 1.00651 0.0
C146 C 0.24829 0.7383 0.99007 0.0
C147 C 0.23785 0.75086 0.90987 0.0
C148 C 0.14242 0.81555 0.80692 0.0
C149 C 0.13077 0.79098 0.79876 0.0
H150 H 0.17016 0.85904 0.83099 0.0
C151 C 0.22543 0.78445 0.72502 0.0
C152 C 0.28632 0.78953 0.78608 0.0
C153 C 0.29686 0.77814 0.57941 0.0
C154 C 0.29784 0.77838 0.49601 0.0
C155 C 0.32177 0.81155 0.53907 0.0
C156 C 0.31312 0.80048 0.57971 0.0
C157 C 0.31431 0.80057 0.49756 0.0
C158 C 0.28902 0.7672 0.53724 0.0
C159 C 0.28849 0.76666 0.62335 0.0
H160 H 0.2761 0.67125 0.94897 0.0
H161 H 0.25711 0.70196 0.89343 0.0
H162 H 0.27774 0.68262 0.03016 0.0
H163 H 0.24091 0.75725 1.00121 0.0
H164 H 0.33436 0.82872 0.53975 0.0
H165 H 0.31941 0.8093 0.61149 0.0
H166 H 0.3212 0.80963 0.46645 0.0
H167 H 0.27638 0.75003 0.53645 0.0
C168 C 0.52198 0.0835 0.96657 0.0
C169 C 0.56909 0.08646 0.95507 0.0
C170 C 0.54579 0.07152 0.95741 0.0
C171 C 0.56827 0.11349 0.96491 0.0
C172 C 0.52081 0.1109 0.97384 0.0
C173 C 0.54416 0.12569 0.97438 0.0
N174 N 0.49977 0.06869 0.96465 0.0
C175 C 0.4757 0.08053 0.96464 0.0
C176 C 0.49612 0.12275 0.97833 0.0
C177 C 0.47345 0.10756 0.97276 0.0
Gd178 Gd 0.49962 0.98182 0.07467 0.0
Gd179 Gd 0.50581 0.02302 0.95547 0.0
N180 N 0.54594 0.04534 0.94858 0.0
C181 C 0.59233 0.07387 0.94163 0.0
C182 C 0.56811 0.03321 0.93286 0.0
C183 C 0.59172 0.04722 0.92969 0.0
H184 H 0.56758 0.01258 0.92392 0.0
H185 H 0.60944 0.03746 0.91831 0.0
H186 H 0.44691 0.01282 0.12129 0.0
H187 H 0.45815 0.06921 0.95801 0.0
H188 H 0.3992 0.00578 0.12724 0.0
H189 H 0.61065 0.08466 0.9393 0.0
H190 H 0.58602 0.12527 0.96397 0.0
H191 H 0.52596 0.92373 0.05036 0.0
H192 H 0.49435 0.14374 0.984 0.0
H193 H 0.45426 0.11671 0.97403 0.0
H194 H 0.38667 0.91738 0.07375 0.0
H195 H 0.54369 0.14671 0.98047 0.0
H196 H 0.46365 0.86745 0.03583 0.0
H197 H 0.51111 0.87824 0.03374 0.0
N198 N 0.48731 0.93811 0.06121 0.0
C199 C 0.46134 0.93235 0.0648 0.0
C200 C 0.50527 0.91898 0.05158 0.0
C201 C 0.47009 0.88729 0.04347 0.0
C202 C 0.49691 0.89331 0.04219 0.0
C203 C 0.45193 0.90687 0.05519 0.0
H204 H 0.41715 0.8824 0.04986 0.0
N205 N 0.4542 0.97634 0.08797 0.0
C206 C 0.44421 0.95219 0.07777 0.0
C207 C 0.40067 0.96675 0.09865 0.0
C208 C 0.41712 0.94687 0.08214 0.0
C209 C 0.43859 0.99491 0.1079 0.0
C210 C 0.41155 0.9907 0.11245 0.0
O211 O 0.53822 0.02509 1.00873 0.0
O212 O 0.51619 0.02295 0.07648 0.0
O213 O 0.49266 0.97647 0.14723 0.0
O214 O 0.53076 0.96783 0.11901 0.0
O215 O 0.52651 0.98377 0.95924 0.0
O216 O 0.53706 0.97418 0.03476 0.0
O217 O 0.48803 0.96466 1.00629 0.0
O218 O 0.46922 0.99949 0.97015 0.0
O219 O 0.51164 1.00191 0.89196 0.0
O220 O 0.49417 0.0404 0.89083 0.0
O221 O 0.48367 0.02325 0.07213 0.0
O222 O 0.46901 0.02898 0.99844 0.0
C223 C 0.5356 0.03186 0.05159 0.0
C224 C 0.54084 0.97173 0.9904 0.0
C225 C 0.52948 0.9875 0.19236 0.0
C226 C 0.53206 1.00165 0.27224 0.0
C227 C 0.56033 0.02161 0.21495 0.0
C228 C 0.54918 0.00579 0.18134 0.0
C229 C 0.55196 0.01956 0.25995 0.0
C230 C 0.52098 0.98548 0.23796 0.0
C231 C 0.51714 0.97134 0.15608 0.0
C232 C 0.40747 0.92173 0.07111 0.0
C233 C 0.42483 0.90178 0.05767 0.0
H234 H 0.37974 0.96347 0.10251 0.0
C235 C 0.47008 0.97427 0.97901 0.0
C236 C 0.46835 0.03482 0.04214 0.0
C237 C 0.48208 0.01061 0.8324 0.0
C238 C 0.47209 0.99921 0.75322 0.0
C239 C 0.43965 0.99203 0.81287 0.0
C240 C 0.45703 1.00199 0.84537 0.0
C241 C 0.44712 0.99047 0.76721 0.0
C242 C 0.4895 0.00939 0.78627 0.0
C243 C 0.50094 0.01997 0.86688 0.0
H244 H 0.57558 0.03555 0.20606 0.0
H245 H 0.55598 0.00794 0.14667 0.0
H246 H 0.56137 0.03188 0.28526 0.0
H247 H 0.50546 0.97174 0.24645 0.0
H248 H 0.42028 0.98554 0.82313 0.0
H249 H 0.45097 0.00292 0.88061 0.0
H250 H 0.43316 0.98282 0.74267 0.0
H251 H 0.50896 0.0159 0.7763 0.0
C252 C 0.33431 0.27334 0.31776 0.0
C253 C 0.3364 0.32017 0.33363 0.0
C254 C 0.32185 0.29676 0.3285 0.0
C255 C 0.36361 0.31991 0.3257 0.0
C256 C 0.36181 0.27278 0.31165 0.0
C257 C 0.37626 0.2963 0.31441 0.0
N258 N 0.31986 0.25084 0.3168 0.0
C259 C 0.33212 0.22698 0.31488 0.0
C260 C 0.37409 0.24846 0.30504 0.0
C261 C 0.35923 0.22541 0.30755 0.0
Gd262 Gd 0.23574 0.25296 0.20368 0.0
Gd263 Gd 0.27411 0.25595 0.32575 0.0
N264 N 0.29552 0.29639 0.33588 0.0
C265 C 0.32327 0.34296 0.34785 0.0
C266 C 0.28286 0.31805 0.35252 0.0
C267 C 0.29645 0.34179 0.35801 0.0
H268 H 0.26214 0.31705 0.36038 0.0
H269 H 0.28625 0.35913 0.37003 0.0
H270 H 0.26857 0.20367 0.15035 0.0
H271 H 0.32111 0.20904 0.31953 0.0
H272 H 0.26224 0.15654 0.13436 0.0
H273 H 0.33376 0.36135 0.35213 0.0
H274 H 0.37515 0.33771 0.32938 0.0
H275 H 0.1767 0.27762 0.2251 0.0
H276 H 0.39516 0.24718 0.30011 0.0
H277 H 0.36871 0.20642 0.3047 0.0
H278 H 0.17236 0.14049 0.17522 0.0
H279 H 0.39737 0.29628 0.30952 0.0
H280 H 0.1204 0.21486 0.22021 0.0
H281 H 0.13073 0.26198 0.23227 0.0
N282 N 0.19185 0.23973 0.21 0.0
C283 C 0.18646 0.21409 0.20101 0.0
C284 C 0.17221 0.25708 0.21981 0.0
C285 C 0.1405 0.22166 0.21687 0.0
C286 C 0.14625 0.24828 0.22376 0.0
C287 C 0.16068 0.20422 0.20501 0.0
H288 H 0.13628 0.16937 0.20006 0.0
N289 N 0.23113 0.20858 0.18139 0.0
C290 C 0.20684 0.1979 0.18718 0.0
C291 C 0.22241 0.15602 0.15914 0.0
C292 C 0.20188 0.17126 0.17671 0.0
C293 C 0.25041 0.19443 0.16029 0.0
C294 C 0.24663 0.16781 0.15003 0.0
O295 O 0.27631 0.28969 0.275 0.0
O296 O 0.27713 0.26896 0.20614 0.0
O297 O 0.23184 0.25015 0.12956 0.0
O298 O 0.22443 0.28739 0.16465 0.0
O299 O 0.2342 0.275 0.3226 0.0
O300 O 0.22599 0.28832 0.2481 0.0
O301 O 0.21653 0.23786 0.26846 0.0
O302 O 0.25067 0.21955 0.30803 0.0
O303 O 0.25291 0.25984 0.38969 0.0
O304 O 0.29198 0.24373 0.38951 0.0
O305 O 0.27691 0.23647 0.20855 0.0
O306 O 0.2805 0.2198 0.28126 0.0
C307 C 0.28501 0.28796 0.23311 0.0
C308 C 0.22284 0.29055 0.29264 0.0
C309 C 0.21964 0.28778 0.08204 0.0
C310 C 0.22238 0.28974 0.99882 0.0
C311 C 0.20424 0.32646 0.04158 0.0
C312 C 0.20845 0.31304 0.08221 0.0
C313 C 0.21131 0.31503 1.00024 0.0
C314 C 0.22622 0.27595 0.03995 0.0
C315 C 0.22562 0.27486 0.12601 0.0
C316 C 0.17646 0.16098 0.1826 0.0
C317 C 0.15589 0.17743 0.19661 0.0
H318 H 0.21943 0.13548 0.15069 0.0
C319 C 0.22575 0.21989 0.29632 0.0
C320 C 0.2869 0.21966 0.23782 0.0
C321 C 0.26328 0.22972 0.44783 0.0
C322 C 0.25264 0.21839 0.52681 0.0
C323 C 0.25075 0.18511 0.4669 0.0
C324 C 0.25841 0.20368 0.43466 0.0
C325 C 0.24799 0.1923 0.51256 0.0
C326 C 0.2603 0.23705 0.49379 0.0
C327 C 0.27148 0.2494 0.414 0.0
H328 H 0.19565 0.34593 0.04217 0.0
H329 H 0.20314 0.32259 0.11386 0.0
H330 H 0.20796 0.32593 0.96916 0.0
H331 H 0.23505 0.25656 0.0392 0.0
H332 H 0.24712 0.16499 0.45652 0.0
H333 H 0.26071 0.19774 0.39952 0.0
H334 H 0.24262 0.17722 0.53677 0.0
H335 H 0.26371 0.25733 0.50357 0.0
C336 C 0.83454 0.23317 0.19961 0.0
C337 C 0.83549 0.18544 0.19599 0.0
C338 C 0.82129 0.20921 0.19852 0.0
C339 C 0.86307 0.18606 0.19454 0.0
C340 C 0.86224 0.23384 0.19827 0.0
C341 C 0.8764 0.21018 0.19567 0.0
N342 N 0.82037 0.25575 0.20296 0.0
C343 C 0.83256 0.27965 0.20396 0.0
C344 C 0.8749 0.25829 0.19992 0.0
C345 C 0.85998 0.28129 0.20266 0.0
Gd346 Gd 0.73316 0.25328 0.32157 0.0
Gd347 Gd 0.77464 0.25086 0.20508 0.0
N348 N 0.79457 0.20917 0.20157 0.0
C349 C 0.82154 0.16171 0.19527 0.0
C350 C 0.78087 0.18614 0.19896 0.0
C351 C 0.79411 0.16209 0.19638 0.0
H352 H 0.75979 0.18605 0.19825 0.0
H353 H 0.78314 0.14386 0.1949 0.0
H354 H 0.7554 0.31474 0.34702 0.0
H355 H 0.82109 0.29749 0.20475 0.0
H356 H 0.73841 0.35988 0.3476 0.0
H357 H 0.83172 0.14303 0.19338 0.0
H358 H 0.87429 0.16798 0.19268 0.0
H359 H 0.68092 0.21412 0.3109 0.0
H360 H 0.89615 0.25962 0.19896 0.0
H361 H 0.86958 0.30029 0.2035 0.0
H362 H 0.64606 0.34974 0.32007 0.0
H363 H 0.89769 0.21032 0.19466 0.0
H364 H 0.61212 0.26231 0.30259 0.0
H365 H 0.63279 0.21826 0.30186 0.0
N366 N 0.68732 0.25527 0.31523 0.0
C367 C 0.67635 0.27964 0.31683 0.0
C368 C 0.67207 0.23338 0.31047 0.0
C369 C 0.63323 0.26059 0.30633 0.0
C370 C 0.64483 0.23568 0.30578 0.0
C371 C 0.64898 0.28296 0.31204 0.0
H372 H 0.6173 0.31135 0.30906 0.0
N373 N 0.7191 0.29741 0.3271 0.0
C374 C 0.6927 0.30132 0.32277 0.0
C375 C 0.69872 0.34816 0.3321 0.0
C376 C 0.68189 0.32684 0.32445 0.0
C377 C 0.73519 0.31795 0.33809 0.0
C378 C 0.72541 0.34363 0.33972 0.0
O379 O 0.79344 0.23291 0.26791 0.0
O380 O 0.75876 0.21769 0.3105 0.0
O381 O 0.74712 0.25996 0.39046 0.0
O382 O 0.71413 0.23408 0.37873 0.0
O383 O 0.73557 0.22926 0.20771 0.0
O384 O 0.72865 0.21555 0.28184 0.0
O385 O 0.71487 0.2678 0.25588 0.0
O386 O 0.74932 0.28662 0.21835 0.0
O387 O 0.75892 0.2395 0.13929 0.0
O388 O 0.78969 0.26869 0.14323 0.0
O389 O 0.77348 0.27267 0.31955 0.0
O390 O 0.77855 0.28806 0.24631 0.0
C391 C 0.78385 0.21782 0.30017 0.0
C392 C 0.72398 0.21393 0.23782 0.0
C393 C 0.71457 0.25872 0.44703 0.0
C394 C 0.71293 0.27072 0.52734 0.0
C395 C 0.67892 0.28581 0.47553 0.0
C396 C 0.69122 0.27275 0.43969 0.0
C397 C 0.6897 0.28491 0.51909 0.0
C398 C 0.72528 0.25757 0.49103 0.0
C399 C 0.72847 0.2461 0.40895 0.0
C400 C 0.65467 0.33026 0.31907 0.0
C401 C 0.63827 0.30839 0.31292 0.0
H402 H 0.6912 0.36808 0.33353 0.0
C403 C 0.72422 0.28571 0.22835 0.0
C404 C 0.78473 0.28843 0.28976 0.0
C405 C 0.75879 0.27281 0.08417 0.0
C406 C 0.7474 0.28358 1.00584 0.0
C407 C 0.72818 0.30821 0.0686 0.0
C408 C 0.74228 0.29299 0.09947 0.0
C409 C 0.73067 0.30357 0.02205 0.0
C410 C 0.76131 0.26808 0.03733 0.0
C411 C 0.77311 0.25646 0.11696 0.0
H412 H 0.66093 0.29663 0.46955 0.0
H413 H 0.68247 0.27365 0.40639 0.0
H414 H 0.67963 0.29498 0.54652 0.0
H415 H 0.74339 0.24685 0.49682 0.0
H416 H 0.71528 0.32361 0.08078 0.0
H417 H 0.74036 0.29693 0.13525 0.0
H418 H 0.71929 0.31546 0.99875 0.0
H419 H 0.77429 0.25261 0.02552 0.0
C420 C 0.83801 0.77098 0.82715 0.0
C421 C 0.83926 0.81856 0.83481 0.0
C422 C 0.82489 0.7949 0.83133 0.0
C423 C 0.86685 0.81788 0.83412 0.0
C424 C 0.86572 0.77026 0.82641 0.0
C425 C 0.88003 0.79381 0.83 0.0
N426 N 0.82369 0.74853 0.82252 0.0
C427 C 0.83573 0.7247 0.81824 0.0
C428 C 0.87822 0.74588 0.82157 0.0
C429 C 0.86315 0.72301 0.81759 0.0
Gd430 Gd 0.73454 0.75804 0.70913 0.0
Gd431 Gd 0.77802 0.75351 0.824 0.0
N432 N 0.7981 0.79507 0.83028 0.0
C433 C 0.82546 0.84226 0.83856 0.0
C434 C 0.78462 0.818 0.83616 0.0
C435 C 0.79803 0.84193 0.83969 0.0
H436 H 0.7636 0.81806 0.83886 0.0
H437 H 0.7872 0.86011 0.84367 0.0
H438 H 0.74691 0.69398 0.68782 0.0
H439 H 0.82416 0.70695 0.81628 0.0
H440 H 0.72226 0.65242 0.68223 0.0
H441 H 0.83578 0.86086 0.84114 0.0
H442 H 0.87818 0.83588 0.8366 0.0
H443 H 0.68965 0.80572 0.71888 0.0
H444 H 0.89947 0.74451 0.82091 0.0
H445 H 0.87264 0.70406 0.81421 0.0
H446 H 0.6321 0.67828 0.69953 0.0
H447 H 0.90132 0.79363 0.82939 0.0
H448 H 0.61342 0.76996 0.72041 0.0
H449 H 0.64136 0.80975 0.72504 0.0
N450 N 0.68897 0.76411 0.713 0.0
C451 C 0.67398 0.74204 0.70935 0.0
C452 C 0.67762 0.78823 0.71792 0.0
C453 C 0.63459 0.76807 0.71815 0.0
C454 C 0.6503 0.79058 0.72088 0.0
C455 C 0.64636 0.74342 0.71206 0.0
H456 H 0.61016 0.72092 0.71078 0.0
N457 N 0.71313 0.71728 0.70099 0.0
C458 C 0.68638 0.71796 0.70271 0.0
C459 C 0.68459 0.67085 0.69227 0.0
C460 C 0.67142 0.6947 0.69897 0.0
C461 C 0.72596 0.69428 0.6923 0.0
C462 C 0.71195 0.67069 0.68845 0.0
O463 O 0.79643 0.77221 0.76129 0.0
O464 O 0.76183 0.79187 0.72469 0.0
O465 O 0.74848 0.74973 0.64056 0.0
O466 O 0.71988 0.78045 0.65172 0.0
O467 O 0.73858 0.77404 0.82586 0.0
O468 O 0.73312 0.79324 0.75554 0.0
O469 O 0.7168 0.73794 0.77112 0.0
O470 O 0.75118 0.71894 0.81001 0.0
O471 O 0.76547 0.7639 0.89234 0.0
O472 O 0.7936 0.7326 0.88245 0.0
O473 O 0.77308 0.73579 0.7077 0.0
O474 O 0.78038 0.71769 0.77884 0.0
C475 C 0.78711 0.7898 0.7328 0.0
C476 C 0.72755 0.79154 0.79908 0.0
C477 C 0.71773 0.75749 0.58176 0.0
C478 C 0.71381 0.75157 0.49947 0.0
C479 C 0.67773 0.7393 0.5493 0.0
C480 C 0.69224 0.74739 0.58702 0.0
C481 C 0.68835 0.74147 0.50578 0.0
C482 C 0.72862 0.75927 0.53782 0.0
C483 C 0.73276 0.76672 0.62167 0.0
C484 C 0.6439 0.69597 0.70214 0.0
C485 C 0.63141 0.72026 0.7086 0.0
H486 H 0.67381 0.65252 0.68939 0.0
C487 C 0.7262 0.7199 0.79865 0.0
C488 C 0.78383 0.71802 0.73442 0.0
C489 C 0.76471 0.72916 0.94499 0.0
C490 C 0.7507 0.72137 0.02342 0.0
C491 C 0.7367 0.69193 0.96249 0.0
C492 C 0.75065 0.70687 0.93096 0.0
C493 C 0.73674 0.69903 1.00837 0.0
C494 C 0.76468 0.7364 0.99118 0.0
C495 C 0.779 0.74523 0.91155 0.0
H496 H 0.6581 0.73151 0.55378 0.0
H497 H 0.68337 0.74601 0.62016 0.0
H498 H 0.67668 0.73509 0.47696 0.0
H499 H 0.74824 0.76721 0.53341 0.0
H500 H 0.72594 0.6747 0.95136 0.0
H501 H 0.7506 0.70101 0.89565 0.0
H502 H 0.72615 0.68674 0.03216 0.0
H503 H 0.77527 0.75388 1.00179 0.0
C504 C 0.48768 0.42369 0.95106 0.0
C505 C 0.43998 0.42197 0.94872 0.0
C506 C 0.46356 0.43655 0.95015 0.0
C507 C 0.44096 0.39436 0.94817 0.0
C508 C 0.48873 0.39597 0.95038 0.0
C509 C 0.46526 0.38141 0.94895 0.0
N510 N 0.51006 0.43826 0.95344 0.0
C511 C 0.53413 0.42645 0.95364 0.0
C512 C 0.51335 0.38371 0.9515 0.0
C513 C 0.53615 0.39903 0.95294 0.0
Gd514 Gd 0.50737 0.52474 0.07377 0.0
Gd515 Gd 0.50456 0.484 0.95619 0.0
N516 N 0.4632 0.46331 0.95252 0.0
C517 C 0.41608 0.43557 0.94829 0.0
C518 C 0.44 0.47666 0.95003 0.0
C519 C 0.41612 0.46303 0.94849 0.0
H520 H 0.43969 0.49775 0.94898 0.0
H521 H 0.39775 0.47374 0.94727 0.0
H522 H 0.5684 0.50058 0.09671 0.0
H523 H 0.55179 0.43821 0.95349 0.0
H524 H 0.61384 0.51647 0.09813 0.0
H525 H 0.39754 0.42509 0.94736 0.0
H526 H 0.42304 0.38285 0.94726 0.0
H527 H 0.46967 0.57812 0.06519 0.0
H528 H 0.51499 0.36246 0.95104 0.0
H529 H 0.55528 0.38973 0.95332 0.0
H530 H 0.60584 0.60966 0.07953 0.0
H531 H 0.46569 0.3601 0.94855 0.0
H532 H 0.5195 0.64595 0.06306 0.0
H533 H 0.47502 0.62631 0.05978 0.0
N534 N 0.51054 0.57062 0.06969 0.0
C535 C 0.53512 0.58098 0.07272 0.0
C536 C 0.48911 0.58649 0.06564 0.0
C537 C 0.51723 0.62479 0.06515 0.0
C538 C 0.4921 0.61378 0.0631 0.0
C539 C 0.53914 0.60839 0.07014 0.0
H540 H 0.56825 0.63953 0.07028 0.0
N541 N 0.5519 0.53758 0.07903 0.0
C542 C 0.55639 0.564 0.07717 0.0
C543 C 0.60306 0.55677 0.08599 0.0
C544 C 0.58214 0.57423 0.07993 0.0
C545 C 0.57205 0.52082 0.08882 0.0
C546 C 0.59793 0.53 0.09122 0.0
O547 O 0.48599 0.46535 0.01845 0.0
O548 O 0.47131 0.49919 0.06421 0.0
O549 O 0.51722 0.51309 0.14276 0.0
O550 O 0.48817 0.54326 0.13159 0.0
O551 O 0.48252 0.5228 0.96041 0.0
O552 O 0.46955 0.53097 0.03486 0.0
O553 O 0.52198 0.54356 1.00837 0.0
O554 O 0.54037 0.50922 0.96941 0.0
O555 O 0.49339 0.50088 0.89119 0.0
O556 O 0.52143 0.46905 0.8934 0.0
O557 O 0.52516 0.48373 0.0705 0.0
O558 O 0.54151 0.47963 0.99776 0.0
C559 C 0.47027 0.47466 0.05007 0.0
C560 C 0.46698 0.53421 0.99054 0.0
C561 C 0.48295 0.51612 0.19606 0.0
C562 C 0.47519 0.50376 0.27528 0.0
C563 C 0.44378 0.49159 0.21632 0.0
C564 C 0.45932 0.5039 0.18361 0.0
C565 C 0.45159 0.49149 0.26184 0.0
C566 C 0.49084 0.51602 0.24188 0.0
C567 C 0.4998 0.52841 0.16141 0.0
C568 C 0.5862 0.60151 0.07732 0.0
C569 C 0.56478 0.61853 0.0723 0.0
H570 H 0.62312 0.56384 0.08817 0.0
C571 C 0.53965 0.5343 0.98002 0.0
C572 C 0.5412 0.47269 0.04083 0.0
C573 C 0.52575 0.49981 0.83402 0.0
C574 C 0.53365 0.51275 0.75514 0.0
C575 C 0.56392 0.52618 0.81511 0.0
C576 C 0.54867 0.51304 0.84726 0.0
C577 C 0.55654 0.52604 0.76936 0.0
C578 C 0.51826 0.49971 0.78802 0.0
C579 C 0.50948 0.48617 0.86791 0.0
H580 H 0.42554 0.4822 0.20639 0.0
H581 H 0.45292 0.50399 0.14862 0.0
H582 H 0.4389 0.48221 0.28663 0.0
H583 H 0.50928 0.52523 0.25133 0.0
H584 H 0.58163 0.53633 0.82563 0.0
H585 H 0.55477 0.51302 0.8824 0.0
H586 H 0.56906 0.53593 0.74502 0.0
H587 H 0.50036 0.48966 0.77802 0.0
C588 C 0.02376 0.58137 0.46648 0.0
C589 C 0.07056 0.58197 0.45021 0.0
C590 C 0.04662 0.56824 0.45454 0.0
C591 C 0.07147 0.60893 0.46052 0.0
C592 C 0.02437 0.60872 0.4747 0.0
C593 C 0.04844 0.62226 0.47292 0.0
N594 N 1.00073 0.56776 0.46715 0.0
C595 C 0.97741 0.58092 0.47061 0.0
C596 C 1.00063 0.6218 0.48278 0.0
C597 C 0.97701 0.60792 0.4798 0.0
Gd598 Gd 1.00014 0.48371 0.57782 0.0
Gd599 Gd 0.00421 0.52196 0.45532 0.0
N600 N 0.0453 0.542 0.44619 0.0
C601 C 0.09276 0.56819 0.43507 0.0
C602 C 0.06646 0.52868 0.4293 0.0
C603 C 0.0906 0.54151 0.42396 0.0
H604 H 0.06471 0.50804 0.42091 0.0
H605 H 0.10752 0.53082 0.4115 0.0
H606 H 0.95355 0.51725 0.63556 0.0
H607 H 0.95898 0.57082 0.46565 0.0
H608 H 0.90782 0.51058 0.6605 0.0
H609 H 0.11151 0.57805 0.43121 0.0
H610 H 0.08977 0.61976 0.45813 0.0
H611 H 0.02312 0.42465 0.54895 0.0
H612 H 1.00025 0.64278 0.48932 0.0
H613 H 0.95846 0.61807 0.4838 0.0
H614 H 0.89019 0.42008 0.62481 0.0
H615 H 0.04932 0.6432 0.4797 0.0
H616 H 0.9606 0.36866 0.56259 0.0
H617 H 0.00665 0.37896 0.54203 0.0
N618 N 0.98652 0.43985 0.57166 0.0
C619 C 0.96161 0.43443 0.5853 0.0
C620 C 0.00299 0.42024 0.55775 0.0
C621 C 0.96772 0.38868 0.56561 0.0
C622 C 0.99373 0.39442 0.55393 0.0
C623 C 0.95139 0.40872 0.58204 0.0
H624 H 0.91711 0.38424 0.59317 0.0
N625 N 0.95721 0.4791 0.60641 0.0
C626 C 0.94644 0.45471 0.60283 0.0
C627 C 0.90639 0.47027 0.63783 0.0
C628 C 0.92063 0.44969 0.61803 0.0
C629 C 0.94407 0.49871 0.62858 0.0
C630 C 0.91832 0.49479 0.64372 0.0
O631 O 0.03739 0.524 0.50747 0.0
O632 O 0.01433 0.52543 0.57356 0.0
O633 O 0.99933 0.48048 0.65205 0.0
O634 O 0.03581 0.47346 0.6146 0.0
O635 O 0.01985 0.48073 0.45929 0.0
O636 O 0.03502 0.47358 0.53269 0.0
O637 O 0.9825 0.4645 0.5149 0.0
O638 O 0.96748 0.49845 0.46963 0.0
O639 O 0.01061 0.50276 0.39008 0.0
O640 O 0.99105 0.54022 0.39244 0.0
O641 O 0.98264 0.52447 0.5711 0.0
O642 O 0.96723 0.52834 0.49744 0.0
C643 C 0.03486 0.53222 0.54958 0.0
C644 C 0.03641 0.47003 0.48818 0.0
C645 C 0.03824 0.46971 0.69738 0.0
C646 C 0.04135 0.47257 0.78057 0.0
C647 C 0.07841 0.45675 0.73604 0.0
C648 C 0.06412 0.46013 0.69604 0.0
C649 C 0.06724 0.46307 0.77793 0.0
C650 C 0.02673 0.47557 0.74003 0.0
C651 C 0.02423 0.47487 0.65407 0.0
C652 C 0.91006 0.42425 0.6137 0.0
C653 C 0.9254 0.40383 0.59573 0.0
H654 H 0.88649 0.46724 0.64987 0.0
C655 C 0.96613 0.47413 0.48456 0.0
C656 C 0.96545 0.53336 0.54136 0.0
C657 C 0.97961 0.51127 0.33249 0.0
C658 C 0.96932 0.49991 0.25324 0.0
C659 C 0.9363 0.49498 0.31284 0.0
C660 C 0.95409 0.50409 0.34536 0.0
C661 C 0.94372 0.49302 0.26722 0.0
C662 C 0.98721 0.50906 0.28655 0.0
C663 C 0.99855 0.52075 0.36679 0.0
H664 H 0.09835 0.4494 0.73455 0.0
H665 H 0.07347 0.45545 0.66394 0.0
H666 H 0.07881 0.46031 0.80849 0.0
H667 H 0.00686 0.48319 0.74166 0.0
H668 H 0.91658 0.48955 0.32299 0.0
H669 H 0.94794 0.50555 0.38053 0.0
H670 H 0.92918 0.48645 0.24282 0.0
H671 H 0.00714 0.51417 0.27703 0.0
H672 H 0.09179 0.03921 0.50668 0.0
H673 H 0.1242 0.0707 0.47719 0.0
H674 H 0.06377 0.10777 0.39708 0.0
H675 H 0.03131 0.07644 0.42655 0.0
H676 H 0.13368 0.08043 0.37435 0.0
H677 H 0.10258 0.16811 0.4745 0.0
H678 H 0.09701 0.1349 0.49397 0.0
H679 H 0.0773 0.14808 0.44898 0.0
C680 C 0.0854 0.05425 0.48315 0.0
C681 C 0.05902 0.0555 0.46912 0.0
C682 C 0.10394 0.07212 0.46617 0.0
C683 C 0.09634 0.09165 0.43517 0.0
C684 C 0.06999 0.09296 0.42122 0.0
H685 H 0.17228 0.22339 0.30279 0.0
H686 H 0.14174 0.19137 0.33481 0.0
C687 C 0.05152 0.07498 0.43788 0.0
C688 C 0.11602 0.11025 0.41632 0.0
H689 H 0.13527 0.1746 0.41888 0.0
C690 C 0.13419 0.10101 0.38418 0.0
C691 C 0.11638 0.13708 0.42888 0.0
C692 C 0.0974 0.14781 0.46363 0.0
C693 C 0.15242 0.11804 0.36351 0.0
C694 C 0.15306 0.14492 0.37648 0.0
C695 C 0.1349 0.15405 0.40893 0.0
C696 C 0.17193 0.16406 0.35615 0.0
C697 C 0.17011 0.10721 0.32678 0.0
C698 C 0.19921 0.15965 0.35759 0.0
C699 C 0.2167 0.17766 0.33798 0.0
C700 C 0.20734 0.20075 0.31733 0.0
C701 C 0.18012 0.20549 0.31718 0.0
C702 C 0.16262 0.1873 0.33604 0.0
H703 H 0.16193 0.08892 0.3116 0.0
H704 H 0.17315 0.12178 0.2992 0.0
H705 H 0.18951 0.10232 0.34174 0.0
H706 H 0.20703 0.14232 0.37404 0.0
H707 H 0.23754 0.17341 0.3388 0.0
H708 H 0.07732 0.94369 0.492 0.0
H709 H 0.10871 0.91065 0.51929 0.0
H710 H 0.08219 0.92329 0.65678 0.0
H711 H 0.05089 0.956 0.63026 0.0
H712 H 0.14994 0.91683 0.58609 0.0
H713 H 0.07569 0.84281 0.63818 0.0
H714 H 0.06815 0.86962 0.60016 0.0
H715 H 0.06995 0.87523 0.66045 0.0
C716 C 0.07812 0.93941 0.52803 0.0
C717 C 0.0614 0.95247 0.55881 0.0
C718 C 0.09609 0.92054 0.54355 0.0
C719 C 0.09748 0.91426 0.58997 0.0
C720 C 0.08111 0.92749 0.62072 0.0
H721 H 0.2192 0.83641 0.74653 0.0
H722 H 0.18807 0.86766 0.71307 0.0
C723 C 0.06327 0.94633 0.60538 0.0
C724 C 0.11627 0.89419 0.60681 0.0
H725 H 0.1195 0.83588 0.66403 0.0
C726 C 0.14333 0.89902 0.60282 0.0
C727 C 0.10757 0.87088 0.62829 0.0
C728 C 0.07876 0.86412 0.63174 0.0
C729 C 0.16194 0.88147 0.62087 0.0
C730 C 0.15321 0.85867 0.64393 0.0
C731 C 0.12615 0.85351 0.64679 0.0
C732 C 0.17182 0.83976 0.66491 0.0
C733 C 0.19079 0.88738 0.61479 0.0
C734 C 0.17253 0.81355 0.64986 0.0
C735 C 0.19002 0.79564 0.6694 0.0
C736 C 0.20693 0.80352 0.70472 0.0
C737 C 0.20608 0.82971 0.71995 0.0
C738 C 0.18858 0.84764 0.7004 0.0
H739 H 0.1942 0.90168 0.58689 0.0
H740 H 0.19864 0.89606 0.64669 0.0
H741 H 0.20201 0.86915 0.60737 0.0
H742 H 0.15968 0.80701 0.62271 0.0
H743 H 0.19016 0.77553 0.65709 0.0
H744 H 0.32545 0.81446 0.73773 0.0
H745 H 0.35835 0.84532 0.76699 0.0
H746 H 0.32127 0.84331 0.89881 0.0
H747 H 0.28956 0.81137 0.87089 0.0
H748 H 0.35701 0.89268 0.80063 0.0
H749 H 0.3944 0.8274 0.93567 0.0
H750 H 0.37199 0.81594 0.89245 0.0
H751 H 0.35982 0.83267 0.94233 0.0
C752 C 0.32443 0.82039 0.77306 0.0
C753 C 0.30509 0.80995 0.80209 0.0
C754 C 0.34322 0.83814 0.78973 0.0
C755 C 0.34283 0.84609 0.83556 0.0
C756 C 0.3227 0.83675 0.86384 0.0
H757 H 0.41997 0.98378 0.95048 0.0
H758 H 0.38976 0.95282 0.91357 0.0
C759 C 0.30432 0.81863 0.84756 0.0
C760 C 0.3632 0.86433 0.8539 0.0
H761 H 0.40566 0.87301 0.94272 0.0
C762 C 0.36781 0.88826 0.83148 0.0
C763 C 0.37786 0.85839 0.89357 0.0
C764 C 0.37598 0.83207 0.91703 0.0
C765 C 0.38605 0.90667 0.84832 0.0
C766 C 0.39928 0.90149 0.88972 0.0
C767 C 0.3952 0.87726 0.91143 0.0
C768 C 0.41768 0.92068 0.91104 0.0
C769 C 0.39144 0.93112 0.8209 0.0
C770 C 0.44317 0.91279 0.92329 0.0
C771 C 0.46022 0.93031 0.94508 0.0
C772 C 0.45217 0.9561 0.95498 0.0
C773 C 0.42675 0.96409 0.94265 0.0
C774 C 0.40956 0.94646 0.92129 0.0
H775 H 0.38606 0.92838 0.78457 0.0
H776 H 0.37951 0.94762 0.83447 0.0
H777 H 0.41251 0.93669 0.82284 0.0
H778 H 0.44991 0.89301 0.91602 0.0
H779 H 0.47977 0.92368 0.95402 0.0
H780 H 0.4738 0.06361 0.11913 0.0
H781 H 0.4427 0.09437 0.15254 0.0
H782 H 0.39079 0.08358 0.0379 0.0
H783 H 0.42149 0.05143 1.00519 0.0
H784 H 0.42481 0.13997 0.12486 0.0
H785 H 0.3413 0.07052 0.1422 0.0
H786 H 0.37398 0.05983 0.12727 0.0
H787 H 0.35274 0.07381 0.08479 0.0
C788 C 0.45571 0.06765 0.10101 0.0
C789 C 0.45002 0.05501 0.05958 0.0
C790 C 0.43798 0.08534 0.12013 0.0
C791 C 0.41419 0.09097 0.0982 0.0
C792 C 0.40875 0.07905 0.05601 0.0
H793 H 0.31786 0.22544 0.16348 0.0
H794 H 0.34867 0.19391 0.13128 0.0
C795 C 0.42644 0.061 0.03701 0.0
C796 C 0.39545 0.10953 0.11983 0.0
H797 H 0.33255 0.11544 0.15912 0.0
C798 C 0.40465 0.13456 0.13242 0.0
C799 C 0.36932 0.10227 0.13065 0.0
C800 C 0.35878 0.07506 0.12098 0.0
C801 C 0.38842 0.15262 0.15502 0.0
C802 C 0.36194 0.14583 0.16391 0.0
C803 C 0.3528 0.12068 0.15195 0.0
C804 C 0.34323 0.16488 0.18417 0.0
C805 C 0.40001 0.1786 0.16994 0.0
C806 C 0.3293 0.15877 0.22404 0.0
C807 C 0.31119 0.17668 0.24221 0.0
C808 C 0.30677 0.20091 0.22069 0.0
C809 C 0.32085 0.20693 0.18092 0.0
C810 C 0.33867 0.18902 0.16265 0.0
H811 H 0.42166 0.17724 0.1743 0.0
H812 H 0.39608 0.19362 0.14349 0.0
H813 H 0.39125 0.18544 0.20246 0.0
H814 H 0.3324 0.14015 0.24102 0.0
H815 H 0.30038 0.17141 0.27259 0.0
H816 H 0.97504 0.92292 0.55326 0.0
H817 H 0.94237 0.89219 0.58321 0.0
H818 H 0.89309 0.95729 0.62255 0.0
H819 H 0.92522 0.98818 0.59068 0.0
H820 H 0.90376 0.91423 0.69239 0.0
H821 H 0.86655 0.87907 0.52492 0.0
H822 H 0.90166 0.88006 0.53224 0.0
H823 H 0.88334 0.91018 0.53166 0.0
C824 C 0.95706 0.93071 0.56748 0.0
C825 C 0.95257 0.95798 0.56885 0.0
C826 C 0.93849 0.91311 0.58493 0.0
C827 C 0.91522 0.92246 0.60475 0.0
C828 C 0.9109 0.94969 0.60724 0.0
H829 H 0.77521 0.83474 0.68548 0.0
H830 H 0.80589 0.8674 0.65478 0.0
C831 C 0.92934 0.9673 0.5892 0.0
C832 C 0.89547 0.90372 0.62291 0.0
H833 H 0.85084 0.85701 0.59043 0.0
C834 C 0.89211 0.90178 0.67017 0.0
C835 C 0.88025 0.88761 0.59377 0.0
C836 C 0.88287 0.88932 0.54277 0.0
C837 C 0.87426 0.8837 0.68907 0.0
C838 C 0.85936 0.86727 0.65993 0.0
C839 C 0.86234 0.8696 0.61266 0.0
C840 C 0.84082 0.84731 0.67803 0.0
C841 C 0.87134 0.88225 0.74006 0.0
C842 C 0.85034 0.82497 0.70055 0.0
C843 C 0.83291 0.80611 0.71754 0.0
C844 C 0.80556 0.80936 0.713 0.0
C845 C 0.79612 0.83163 0.68982 0.0
C846 C 0.81361 0.85035 0.67231 0.0
H847 H 0.88055 0.89938 0.7574 0.0
H848 H 0.85026 0.8813 0.74971 0.0
H849 H 0.88095 0.86407 0.75263 0.0
H850 H 0.87129 0.82205 0.70474 0.0
H851 H 0.84096 0.78895 0.73418 0.0
H852 H 0.92073 0.04535 0.5277 0.0
H853 H 0.88684 0.07511 0.49765 0.0
H854 H 0.9423 0.10493 0.39953 0.0
H855 H 0.9758 0.07496 0.42857 0.0
H856 H 0.88391 0.12884 0.48884 0.0
H857 H 0.88229 0.08231 0.31846 0.0
H858 H 0.89862 0.06748 0.36644 0.0
H859 H 0.91461 0.09303 0.3344 0.0
C860 C 0.92563 0.0584 0.49988 0.0
C861 C 0.95072 0.05764 0.48 0.0
C862 C 0.90629 0.07532 0.48269 0.0
C863 C 0.91182 0.09176 0.44552 0.0
C864 C 0.9373 0.09185 0.42723 0.0
H865 H 0.83746 0.21487 0.29328 0.0
H866 H 0.86689 0.18341 0.32963 0.0
C867 C 0.95647 0.07482 0.44402 0.0
C868 C 0.89112 0.1088 0.42547 0.0
H869 H 0.86126 0.12424 0.32484 0.0
C870 C 0.87872 0.12763 0.45312 0.0
C871 C 0.88421 0.10711 0.37885 0.0
C872 C 0.89543 0.08621 0.34793 0.0
C873 C 0.86039 0.14546 0.43499 0.0
C874 C 0.85426 0.14432 0.38814 0.0
C875 C 0.86618 0.12516 0.36071 0.0
C876 C 0.83611 0.16335 0.36654 0.0
C877 C 0.84823 0.16594 0.46561 0.0
C878 C 0.80899 0.16233 0.37494 0.0
C879 C 0.79196 0.18004 0.35351 0.0
C880 C 0.8018 0.19912 0.32333 0.0
C881 C 0.82907 0.20017 0.31551 0.0
C882 C 0.846 0.18231 0.33653 0.0
H883 H 0.85768 0.16652 0.49966 0.0
H884 H 0.84976 0.18571 0.44986 0.0
H885 H 0.82703 0.16148 0.47017 0.0
H886 H 0.80098 0.14766 0.39773 0.0
H887 H 0.7711 0.17865 0.36042 0.0
H888 H 0.70171 0.21145 0.15345 0.0
H889 H 0.66928 0.17997 0.12552 0.0
H890 H 0.66958 0.14077 0.25537 0.0
H891 H 0.70268 0.17189 0.28343 0.0
H892 H 0.67162 0.10613 0.18296 0.0
H893 H 0.59149 0.17842 0.15798 0.0
H894 H 0.62131 0.18736 0.1293 0.0
H895 H 0.62072 0.18586 0.19041 0.0
C896 C 0.69498 0.19612 0.17617 0.0
C897 C 0.70464 0.19437 0.22091 0.0
C898 C 0.67623 0.17827 0.16021 0.0
C899 C 0.66659 0.15837 0.18864 0.0
C900 C 0.67657 0.15616 0.233 0.0
H901 H 0.52825 0.06358 0.12536 0.0
H902 H 0.56009 0.09339 0.16075 0.0
C903 C 0.69541 0.17401 0.24902 0.0
C904 C 0.64652 0.13956 0.17157 0.0
H905 H 0.58532 0.13613 0.12411 0.0
C906 C 0.65268 0.11265 0.17038 0.0
C907 C 0.62165 0.14804 0.15581 0.0
C908 C 0.61324 0.17646 0.15881 0.0
C909 C 0.63492 0.09409 0.15266 0.0
C910 C 0.61058 0.10275 0.13484 0.0
C911 C 0.60413 0.12956 0.13723 0.0
C912 C 0.59149 0.08434 0.11364 0.0
C913 C 0.64226 0.06535 0.15366 0.0
C914 C 0.59851 0.06943 0.07526 0.0
C915 C 0.58043 0.0522 0.0553 0.0
C916 C 0.55486 0.04992 0.07276 0.0
C917 C 0.54783 0.06493 0.11107 0.0
C918 C 0.56595 0.08204 0.13123 0.0
H919 H 0.65771 0.06134 0.17944 0.0
H920 H 0.62489 0.05286 0.16121 0.0
H921 H 0.65009 0.05951 0.11991 0.0
H922 H 0.61796 0.07119 0.06062 0.0
H923 H 0.58657 0.04045 0.02652 0.0
H924 H 0.69968 0.78493 0.87705 0.0
H925 H 0.66865 0.81556 0.91203 0.0
H926 H 0.68184 0.87079 0.80338 0.0
H927 H 0.7132 0.84025 0.76813 0.0
H928 H 0.68399 0.89132 0.89923 0.0
H929 H 0.59407 0.83372 0.85713 0.0
H930 H 0.6208 0.81583 0.88252 0.0
H931 H 0.62467 0.82958 0.82679 0.0
C932 C 0.69603 0.80361 0.86058 0.0
C933 C 0.70872 0.81015 0.81967 0.0
C934 C 0.67823 0.821 0.88054 0.0
C935 C 0.67289 0.84525 0.86005 0.0
C936 C 0.68572 0.85205 0.81952 0.0
H937 H 0.54968 0.95662 0.90271 0.0
H938 H 0.58249 0.92597 0.87441 0.0
C939 C 0.70346 0.83458 0.79935 0.0
C940 C 0.65385 0.86348 0.88108 0.0
H941 H 0.58854 0.8713 0.90357 0.0
C942 C 0.66312 0.887 0.90033 0.0
C943 C 0.6267 0.85768 0.88217 0.0
C944 C 0.6158 0.83294 0.86081 0.0
C945 C 0.64581 0.90495 0.92083 0.0
C946 C 0.61868 0.89906 0.92217 0.0
C947 C 0.60943 0.87555 0.90285 0.0
C948 C 0.59926 0.91791 0.94044 0.0
C949 C 0.65647 0.93037 0.93996 0.0
C950 C 0.59782 0.92345 0.98716 0.0
C951 C 0.57891 0.94103 1.00375 0.0
C952 C 0.56124 0.95333 0.97374 0.0
C953 C 0.56295 0.94766 0.92694 0.0
C954 C 0.58168 0.93007 0.91056 0.0
H955 H 0.67735 0.93363 0.93042 0.0
H956 H 0.64461 0.94728 0.92779 0.0
H957 H 0.6551 0.92994 0.97761 0.0
H958 H 0.61114 0.91399 1.01075 0.0
H959 H 0.57811 0.94492 0.03994 0.0
H960 H 0.58786 0.52214 0.94399 0.0
H961 H 0.62053 0.55252 0.91226 0.0
H962 H 0.56988 0.61807 0.94311 0.0
H963 H 0.53669 0.58783 0.97308 0.0
H964 H 0.60952 0.5946 0.83765 0.0
H965 H 0.64586 0.63205 1.00426 0.0
H966 H 0.62943 0.60069 0.99846 0.0
H967 H 0.6108 0.63061 0.99621 0.0
C968 C 0.58355 0.543 0.94359 0.0
C969 C 0.55962 0.55255 0.96098 0.0
C970 C 0.60228 0.56032 0.92562 0.0
C971 C 0.59764 0.58752 0.92548 0.0
C972 C 0.57389 0.59714 0.94309 0.0
H973 H 0.67265 0.7228 0.80438 0.0
H974 H 0.64217 0.68949 0.83296 0.0
C975 C 0.55501 0.57983 0.96041 0.0
C976 C 0.61757 0.60593 0.90685 0.0
H977 H 0.6622 0.65294 0.93812 0.0
C978 C 0.62113 0.60728 0.85956 0.0
C979 C 0.6327 0.62239 0.93555 0.0
C980 C 0.62976 0.62139 0.98652 0.0
C981 C 0.63909 0.62512 0.84024 0.0
C982 C 0.65394 0.64178 0.86897 0.0
C983 C 0.65074 0.6401 0.91625 0.0
C984 C 0.6725 0.66152 0.85037 0.0
C985 C 0.64209 0.62629 0.78927 0.0
C986 C 0.69966 0.65674 0.8505 0.0
C987 C 0.71716 0.67558 0.83339 0.0
C988 C 0.70781 0.69971 0.81657 0.0
C989 C 0.68054 0.70438 0.81668 0.0
C990 C 0.66307 0.68541 0.83319 0.0
H991 H 0.63109 0.6103 0.77181 0.0
H992 H 0.63469 0.6455 0.77675 0.0
H993 H 0.66318 0.62493 0.77984 0.0
H994 H 0.70729 0.63838 0.86361 0.0
H995 H 0.73798 0.67119 0.83319 0.0
H996 H 0.73538 0.33569 0.19986 0.0
H997 H 0.70487 0.36776 0.16675 0.0
H998 H 0.64132 0.31218 0.18033 0.0
H999 H 0.67173 0.27996 0.21276 0.0
H1000 H 0.64575 0.33771 0.09179 0.0
H1001 H 0.64555 0.40794 0.23705 0.0
H1002 H 0.67736 0.39819 0.2163 0.0
H1003 H 0.65638 0.37427 0.24256 0.0
C1004 C 0.71491 0.33033 0.19569 0.0
C1005 C 0.70594 0.30532 0.2088 0.0
C1006 C 0.69749 0.3487 0.17703 0.0
C1007 C 0.67081 0.34238 0.17129 0.0
C1008 C 0.66183 0.31743 0.18442 0.0
H1009 H 0.53812 0.44418 0.11905 0.0
H1010 H 0.56979 0.41244 0.14872 0.0
C1011 C 0.6792 0.29911 0.20315 0.0
C1012 C 0.65225 0.36165 0.15119 0.0
H1013 H 0.62241 0.42074 0.17093 0.0
C1014 C 0.64065 0.3559 0.10898 0.0
C1015 C 0.64546 0.3852 0.17397 0.0
C1016 C 0.65661 0.39182 0.22015 0.0
C1017 C 0.62252 0.37318 0.08878 0.0
C1018 C 0.61604 0.39698 0.11121 0.0
C1019 C 0.62754 0.40261 0.15359 0.0
C1020 C 0.59669 0.4159 0.09211 0.0
C1021 C 0.60999 0.36555 0.04414 0.0
C1022 C 0.60131 0.42855 0.05043 0.0
C1023 C 0.58319 0.44678 0.03333 0.0
C1024 C 0.56013 0.45271 0.05763 0.0
C1025 C 0.55565 0.44005 0.0994 0.0
C1026 C 0.57374 0.42189 0.11645 0.0
H1027 H 0.61227 0.34422 0.03685 0.0
H1028 H 0.58872 0.37046 0.044 0.0
H1029 H 0.61954 0.37665 0.01622 0.0
H1030 H 0.61914 0.42466 0.03149 0.0
H1031 H 0.5875 0.45659 1.00155 0.0
H1032 H 0.92082 0.45416 0.51879 0.0
H1033 H 0.89091 0.42266 0.48229 0.0
H1034 H 0.93934 0.42332 0.36188 0.0
H1035 H 0.96972 0.45425 0.39921 0.0
H1036 H 0.86266 0.42842 0.39878 0.0
H1037 H 0.93223 0.34415 0.39461 0.0
H1038 H 0.93725 0.37254 0.43063 0.0
H1039 H 0.94428 0.37441 0.3709 0.0
C1040 C 0.92523 0.4472 0.4849 0.0
C1041 C 0.94768 0.45607 0.46202 0.0
C1042 C 0.90804 0.42946 0.46387 0.0
C1043 C 0.9131 0.42036 0.41961 0.0
C1044 C 0.93532 0.42972 0.39633 0.0
H1045 H 0.80065 0.33428 0.24904 0.0
H1046 H 0.83234 0.36652 0.27817 0.0
C1047 C 0.95252 0.44745 0.41746 0.0
C1048 C 0.89499 0.40116 0.39793 0.0
H1049 H 0.89107 0.33793 0.35884 0.0
C1050 C 0.86886 0.40866 0.38986 0.0
C1051 C 0.9031 0.37532 0.38682 0.0
C1052 C 0.93067 0.36593 0.39644 0.0
C1053 C 0.85059 0.391 0.3709 0.0
C1054 C 0.85878 0.36526 0.35926 0.0
C1055 C 0.88492 0.35775 0.36741 0.0
C1056 C 0.8402 0.34545 0.34056 0.0
C1057 C 0.82251 0.3998 0.3646 0.0
C1058 C 0.83456 0.32263 0.36544 0.0
C1059 C 0.81664 0.30411 0.34876 0.0
C1060 C 0.80416 0.30792 0.3066 0.0
C1061 C 0.81009 0.33065 0.28143 0.0
C1062 C 0.82802 0.34921 0.29821 0.0
H1063 H 0.81814 0.41799 0.38418 0.0
H1064 H 0.81897 0.40392 0.32807 0.0
H1065 H 0.80861 0.38415 0.37532 0.0
H1066 H 0.84379 0.3193 0.39813 0.0
H1067 H 0.81258 0.28678 0.36893 0.0
H1068 H 0.80255 0.71789 0.64762 0.0
H1069 H 0.831 0.6855 0.61162 0.0
H1070 H 0.83299 0.64072 0.73596 0.0
H1071 H 0.80351 0.6726 0.77194 0.0
H1072 H 0.88052 0.6723 0.63516 0.0
H1073 H 0.81591 0.58447 0.64224 0.0
H1074 H 0.80392 0.61733 0.65288 0.0
H1075 H 0.82115 0.59969 0.69664 0.0
C1076 C 0.80879 0.70105 0.66736 0.0
C1077 C 0.80091 0.69798 0.7129 0.0
C1078 C 0.82513 0.68257 0.64666 0.0
C1079 C 0.83391 0.66057 0.67091 0.0
C1080 C 0.82606 0.65733 0.71634 0.0
H1081 H 0.96957 0.56598 0.61422 0.0
H1082 H 0.93693 0.59696 0.64285 0.0
C1083 C 0.80951 0.67576 0.73706 0.0
C1084 C 0.85223 0.64179 0.64899 0.0
H1085 H 0.8606 0.57708 0.6212 0.0
C1086 C 0.87608 0.65151 0.63187 0.0
C1087 C 0.84622 0.61475 0.64409 0.0
C1088 C 0.8203 0.60344 0.65951 0.0
C1089 C 0.89438 0.63482 0.61095 0.0
C1090 C 0.88888 0.60762 0.60789 0.0
C1091 C 0.86478 0.59795 0.62392 0.0
C1092 C 0.90846 0.58878 0.58999 0.0
C1093 C 0.9194 0.64647 0.59212 0.0
C1094 C 0.90303 0.57355 0.55122 0.0
C1095 C 0.92164 0.55561 0.53487 0.0
C1096 C 0.94578 0.55254 0.55743 0.0
C1097 C 0.95107 0.56782 0.59626 0.0
C1098 C 0.93254 0.58568 0.61248 0.0
H1099 H 0.91732 0.66787 0.58549 0.0
H1100 H 0.93547 0.64384 0.61723 0.0
H1101 H 0.92527 0.63652 0.56003 0.0
H1102 H 0.88445 0.57562 0.53357 0.0
H1103 H 0.91708 0.54397 0.50499 0.0
H1104 H 0.32253 0.28121 0.16802 0.0
H1105 H 0.3535 0.31396 0.13871 0.0
H1106 H 0.31982 0.37255 0.22758 0.0
H1107 H 0.28919 0.3397 0.25748 0.0
H1108 H 0.34541 0.35885 0.09387 0.0
H1109 H 0.39635 0.38203 0.2559 0.0
H1110 H 0.37539 0.35369 0.24889 0.0
H1111 H 0.36131 0.38561 0.25921 0.0
C1112 C 0.32183 0.30107 0.18141 0.0
C1113 C 0.30368 0.30784 0.21548 0.0
C1114 C 0.33954 0.31978 0.16466 0.0
C1115 C 0.33941 0.34569 0.18144 0.0
C1116 C 0.32094 0.35256 0.21498 0.0
H1117 H 0.42385 0.48695 0.09303 0.0
H1118 H 0.39161 0.45632 0.12546 0.0
C1119 C 0.30337 0.33378 0.23202 0.0
C1120 C 0.3581 0.36559 0.16286 0.0
H1121 H 0.40604 0.40959 0.19305 0.0
C1122 C 0.35868 0.36986 0.11563 0.0
C1123 C 0.37559 0.37996 0.1911 0.0
C1124 C 0.37739 0.37499 0.24154 0.0
C1125 C 0.37605 0.38816 0.09607 0.0
C1126 C 0.39319 0.40267 0.12441 0.0
C1127 C 0.3926 0.39861 0.17154 0.0
C1128 C 0.41274 0.42129 0.10537 0.0
C1129 C 0.37605 0.39198 0.04521 0.0
C1130 C 0.43536 0.41169 0.08379 0.0
C1131 C 0.45405 0.42909 0.06626 0.0
C1132 C 0.45042 0.45647 0.06958 0.0
C1133 C 0.42758 0.46602 0.09089 0.0
C1134 C 0.40902 0.44856 0.10903 0.0
H1135 H 0.35914 0.38203 0.02856 0.0
H1136 H 0.37548 0.41327 0.03686 0.0
H1137 H 0.39449 0.38383 0.03077 0.0
H1138 H 0.43863 0.39071 0.08079 0.0
H1139 H 0.47145 0.42101 0.0503 0.0
H1140 H 0.42967 0.56236 0.03861 0.0
H1141 H 0.39822 0.59421 1.00871 0.0
H1142 H 0.42372 0.57649 0.87213 0.0
H1143 H 0.4566 0.54649 0.90186 0.0
H1144 H 0.41917 0.62579 0.8786 0.0
H1145 H 0.32868 0.58375 0.95303 0.0
H1146 H 0.35193 0.59272 0.99613 0.0
H1147 H 0.35986 0.56706 0.956 0.0
C1148 C 0.42888 0.5655 1.00226 0.0
C1149 C 0.44621 0.55218 0.97289 0.0
C1150 C 0.41044 0.58342 0.98506 0.0
C1151 C 0.40817 0.58764 0.93794 0.0
C1152 C 0.42501 0.5738 0.9086 0.0
H1153 H 0.27543 0.66603 0.80809 0.0
H1154 H 0.30645 0.63457 0.84137 0.0
C1155 C 0.44384 0.55647 0.92578 0.0
C1156 C 0.38914 0.60711 0.91886 0.0
H1157 H 0.32474 0.62628 0.91982 0.0
C1158 C 0.39847 0.62571 0.88744 0.0
C1159 C 0.36199 0.60698 0.9297 0.0
C1160 C 0.34997 0.58637 0.96017 0.0
C1161 C 0.38163 0.6439 0.86647 0.0
C1162 C 0.3547 0.6446 0.8789 0.0
C1163 C 0.34535 0.62605 0.91043 0.0
C1164 C 0.33578 0.66387 0.85887 0.0
C1165 C 0.39291 0.66141 0.82995 0.0
C1166 C 0.34157 0.69094 0.85788 0.0
C1167 C 0.32424 0.70871 0.83747 0.0
C1168 C 0.30023 0.69997 0.81948 0.0
C1169 C 0.29382 0.67318 0.822 0.0
C1170 C 0.31155 0.65526 0.84106 0.0
H1171 H 0.41033 0.65225 0.81355 0.0
H1172 H 0.37819 0.6657 0.8032 0.0
H1173 H 0.39944 0.68023 0.84545 0.0
H1174 H 0.35953 0.69841 0.87284 0.0
H1175 H 0.32944 0.72937 0.83632 0.0
H1176 H 0.20635 0.67055 0.77535 0.0
H1177 H 0.17402 0.63888 0.74645 0.0
H1178 H 0.16136 0.68769 0.62864 0.0
H1179 H 0.19217 0.72005 0.65874 0.0
H1180 H 0.11659 0.67023 0.65696 0.0
H1181 H 0.18521 0.58586 0.64841 0.0
H1182 H 0.18221 0.59891 0.70485 0.0
H1183 H 0.19618 0.61887 0.66048 0.0
C1184 C 0.19637 0.67465 0.74362 0.0
C1185 C 0.20183 0.6978 0.71935 0.0
C1186 C 0.1782 0.65634 0.72674 0.0
C1187 C 0.16564 0.66053 0.68474 0.0
C1188 C 0.17083 0.68386 0.66094 0.0
H1189 H 0.08575 0.54066 0.52295 0.0
H1190 H 0.11704 0.57252 0.55438 0.0
C1191 C 0.18859 0.70231 0.67813 0.0
C1192 C 0.14682 0.64098 0.66549 0.0
H1193 H 0.14004 0.57641 0.63495 0.0
C1194 C 0.12179 0.64973 0.65207 0.0
C1195 C 0.1537 0.61431 0.65811 0.0
C1196 C 0.18087 0.60397 0.66825 0.0
C1197 C 0.10348 0.63263 0.63187 0.0
C1198 C 0.10989 0.60569 0.62658 0.0
C1199 C 0.13498 0.59696 0.63955 0.0
C1200 C 0.09089 0.58635 0.60737 0.0
C1201 C 0.07776 0.64384 0.61515 0.0
C1202 C 0.06594 0.58316 0.62698 0.0
C1203 C 0.04784 0.56551 0.60823 0.0
C1204 C 0.05444 0.55036 0.56984 0.0
C1205 C 0.07979 0.55273 0.55144 0.0
C1206 C 0.09779 0.5707 0.56978 0.0
H1207 H 0.07936 0.66529 0.60847 0.0
H1208 H 0.07114 0.63393 0.58346 0.0
H1209 H 0.06248 0.64103 0.6416 0.0
H1210 H 0.06041 0.59433 0.65686 0.0
H1211 H 0.02857 0.56392 0.62366 0.0
H1212 H 0.21382 0.30266 0.38169 0.0
H1213 H 0.18308 0.3346 0.41262 0.0
H1214 H 0.15966 0.35645 0.27702 0.0
H1215 H 0.19077 0.32447 0.24516 0.0
H1216 H 0.17998 0.39181 0.39241 0.0
H1217 H 0.0905 0.33398 0.34793 0.0
H1218 H 0.12271 0.31919 0.35138 0.0
H1219 H 0.11429 0.33932 0.30358 0.0
C1220 C 0.20227 0.31421 0.35814 0.0
C1221 C 0.20466 0.31077 0.31077 0.0
C1222 C 0.18474 0.33253 0.37605 0.0
C1223 C 0.16903 0.34764 0.34712 0.0
C1224 C 0.17153 0.34471 0.29984 0.0
H1225 H 0.04297 0.45628 0.39926 0.0
H1226 H 0.0759 0.42733 0.36664 0.0
C1227 C 0.18931 0.32646 0.28174 0.0
C1228 C 0.14974 0.36606 0.36696 0.0
H1229 H 0.08407 0.3747 0.38455 0.0
C1230 C 0.15899 0.38819 0.39066 0.0
C1231 C 0.12247 0.36104 0.36474 0.0
C1232 C 0.11173 0.33704 0.34083 0.0
C1233 C 0.14154 0.40576 0.41178 0.0
C1234 C 0.11424 0.40063 0.4099 0.0
C1235 C 0.10504 0.37849 0.38609 0.0
C1236 C 0.0947 0.41853 0.43075 0.0
C1237 C 0.1524 0.42993 0.43503 0.0
C1238 C 0.09421 0.42307 0.4779 0.0
C1239 C 0.07531 0.4398 0.49695 0.0
C1240 C 0.05653 0.4521 0.46909 0.0
C1241 C 0.05709 0.44725 0.42192 0.0
C1242 C 0.07592 0.43065 0.40306 0.0
H1243 H 0.1729 0.43416 0.42426 0.0
H1244 H 0.14005 0.44741 0.42772 0.0
H1245 H 0.15243 0.42677 0.47235 0.0
H1246 H 0.10829 0.41349 0.49997 0.0
H1247 H 0.07538 0.44303 0.53337 0.0
H1248 H 0.00461 0.03369 0.83059 0.0
H1249 H 0.0153 0.02976 0.91138 0.0
H1250 H 0.9629 0.96339 0.92234 0.0
H1251 H 0.95327 0.96618 0.8413 0.0
H1252 H 0.98456 0.0343 0.98512 0.0
H1253 H 0.02723 0.93414 0.98211 0.0
H1254 H 0.02061 0.95237 0.93085 0.0
H1255 H 0.99456 0.93495 0.95928 0.0
C1256 C 0.99575 0.01789 0.84989 0.0
C1257 C 0.97811 1.00021 0.82905 0.0
C1258 C 1.0017 0.01584 0.89629 0.0
C1259 C 0.99021 0.99604 0.92301 0.0
C1260 C 0.97249 0.97848 0.90242 0.0
H1261 H 0.99644 0.95803 0.21328 0.0
H1262 H 0.98155 0.96438 0.13436 0.0
C1263 C 0.96669 0.98038 0.85602 0.0
C1264 C 0.9962 0.99419 0.97258 0.0
H1265 H 0.01794 0.95218 0.05513 0.0
C1266 C 0.99196 0.01636 1.00032 0.0
C1267 C 0.00594 0.97081 0.99262 0.0
C1268 C 0.01261 0.94681 0.96461 0.0
C1269 C 0.99686 0.01566 0.04741 0.0
C1270 C 0.00622 0.9922 0.06735 0.0
C1271 C 0.01041 0.97004 0.0398 0.0
C1272 C 0.01334 0.99063 0.11628 0.0
C1273 C 0.99188 0.03992 0.0757 0.0
C1274 C 0.03591 0.00352 0.1323 0.0
C1275 C 0.04452 0.99972 0.17697 0.0
C1276 C 0.0306 0.98313 0.20665 0.0
C1277 C 0.00736 0.9711 0.19122 0.0
C1278 C 0.99894 0.97462 0.14619 0.0
H1279 H 0.98007 0.05477 0.05704 0.0
H1280 H 0.98151 0.03471 0.10765 0.0
H1281 H 0.01098 0.049 0.0851 0.0
H1282 H 0.04744 0.01575 0.10971 0.0
H1283 H 0.06251 0.0092 0.18804 0.0
H1284 H 0.33043 0.76299 0.42781 0.0
H1285 H 0.31867 0.75122 0.34958 0.0
H1286 H 0.2365 0.75865 0.38287 0.0
H1287 H 0.24826 0.77024 0.46177 0.0
H1288 H 0.2815 0.70872 0.31564 0.0
H1289 H 0.2526 0.81144 0.27293 0.0
H1290 H 0.2736 0.80408 0.32079 0.0
H1291 H 0.23918 0.79669 0.32351 0.0
C1292 C 0.30984 0.76172 0.41862 0.0
C1293 C 0.29025 0.76751 0.45083 0.0
C1294 C 0.30315 0.75503 0.37393 0.0
C1295 C 0.27674 0.75437 0.36024 0.0
C1296 C 0.25702 0.75926 0.39266 0.0
H1297 H 0.22085 0.74181 0.07684 0.0
H1298 H 0.2228 0.74946 0.15932 0.0
C1299 C 0.26372 0.76564 0.43773 0.0
C1300 C 0.27029 0.74942 0.3116 0.0
H1301 H 0.25265 0.78058 0.21328 0.0
C1302 C 0.27496 0.72435 0.2933 0.0
C1303 C 0.26159 0.76978 0.28256 0.0
C1304 C 0.2565 0.79711 0.30058 0.0
C1305 C 0.27155 0.71919 0.24665 0.0
C1306 C 0.2641 0.73988 0.21706 0.0
C1307 C 0.25856 0.76475 0.23571 0.0
C1308 C 0.26303 0.73629 0.16665 0.0
C1309 C 0.27582 0.69148 0.22966 0.0
C1310 C 0.28519 0.72718 0.14289 0.0
C1311 C 0.28407 0.72267 0.09599 0.0
C1312 C 0.26086 0.72757 0.0714 0.0
C1313 C 0.23902 0.73785 0.09478 0.0
C1314 C 0.24009 0.74213 0.14195 0.0
H1315 H 0.27262 0.67685 0.25712 0.0
H1316 H 0.26247 0.68672 0.2009 0.0
H1317 H 0.29642 0.6894 0.21782 0.0
H1318 H 0.30343 0.72341 0.16071 0.0
H1319 H 0.30142 0.71529 0.07889 0.0
H1320 H 0.49572 0.03726 0.70131 0.0
H1321 H 0.50514 0.03591 0.61958 0.0
H1322 H 0.4756 0.95646 0.61288 0.0
H1323 H 0.46553 0.95799 0.69419 0.0
H1324 H 0.53623 0.00623 0.56779 0.0
H1325 H 0.43327 0.98927 0.51352 0.0
H1326 H 0.44178 0.99784 0.57121 0.0
H1327 H 0.44506 0.96443 0.55157 0.0
C1328 C 0.49134 0.01947 0.68242 0.0
C1329 C 0.47959 0.99784 0.70418 0.0
C1330 C 0.49666 0.01873 0.63563 0.0
C1331 C 0.49047 0.99632 0.60955 0.0
C1332 C 0.47973 0.97433 0.63168 0.0
H1333 H 0.51912 0.95766 0.32241 0.0
H1334 H 0.5084 0.95553 0.40376 0.0
C1335 C 0.47412 0.97516 0.6783 0.0
C1336 C 0.49543 0.99596 0.55943 0.0
H1337 H 0.46595 0.98586 0.45604 0.0
C1338 C 0.5208 1.00185 0.54346 0.0
C1339 C 0.47533 0.99029 0.52735 0.0
C1340 C 0.44728 0.98536 0.54168 0.0
C1341 C 0.52663 1.00202 0.49668 0.0
C1342 C 0.5066 0.99621 0.46481 0.0
C1343 C 0.48132 0.99011 0.48057 0.0
C1344 C 0.51144 0.99747 0.41494 0.0
C1345 C 0.55425 0.00828 0.48153 0.0
C1346 C 0.51593 0.0218 0.39397 0.0
C1347 C 0.52172 0.02313 0.34754 0.0
C1348 C 0.52336 1.00012 0.32083 0.0
C1349 C 0.51792 0.97579 0.34169 0.0
C1350 C 0.51195 0.97451 0.38827 0.0
H1351 H 0.56851 0.00734 0.51011 0.0
H1352 H 0.56064 0.99444 0.45442 0.0
H1353 H 0.55476 0.02846 0.46723 0.0
H1354 H 0.51517 0.03981 0.41371 0.0
H1355 H 0.52511 0.04229 0.33261 0.0
H1356 H 0.20594 0.24348 0.96006 0.0
H1357 H 0.21309 0.2289 0.88108 0.0
H1358 H 0.26231 0.29653 0.85735 0.0
H1359 H 0.25495 0.31128 0.93573 0.0
H1360 H 0.19993 0.26476 0.80199 0.0
H1361 H 0.30381 0.23083 0.80407 0.0
H1362 H 0.28364 0.23156 0.85466 0.0
H1363 H 0.29683 0.26155 0.83214 0.0
C1364 C 0.21874 0.25485 0.93821 0.0
C1365 C 0.22991 0.27847 0.95395 0.0
C1366 C 0.22271 0.24661 0.89311 0.0
C1367 C 0.23833 0.26157 0.86339 0.0
C1368 C 0.2504 0.28455 0.87974 0.0
H1369 H 0.28248 0.25318 0.57729 0.0
H1370 H 0.27807 0.26424 0.65793 0.0
C1371 C 0.24614 0.29297 0.92447 0.0
C1372 C 0.24031 0.25457 0.81435 0.0
H1373 H 0.28334 0.23445 0.73212 0.0
C1374 C 0.21809 0.2579 0.7867 0.0
C1375 C 0.26414 0.24613 0.7944 0.0
C1376 C 0.28851 0.2421 0.82272 0.0
C1377 C 0.21912 0.25343 0.73949 0.0
C1378 C 0.24287 0.24453 0.71944 0.0
C1379 C 0.26511 0.24119 0.74727 0.0
C1380 C 0.24498 0.23837 0.66985 0.0
C1381 C 0.19496 0.25921 0.71147 0.0
C1382 C 0.22794 0.2201 0.64937 0.0
C1383 C 0.23009 0.2141 0.60303 0.0
C1384 C 0.2497 0.22581 0.57594 0.0
C1385 C 0.26686 0.24403 0.59663 0.0
C1386 C 0.26453 0.2502 0.64299 0.0
H1387 H 0.18187 0.27356 0.72882 0.0
H1388 H 0.20025 0.26717 0.67756 0.0
H1389 H 0.18363 0.24077 0.7065 0.0
H1390 H 0.21307 0.21021 0.66933 0.0
H1391 H 0.21627 0.20024 0.58848 0.0
H1392 H 0.75247 0.32048 0.93932 0.0
H1393 H 0.75191 0.31354 0.85709 0.0
H1394 H 0.74799 0.22969 0.87729 0.0
H1395 H 0.74816 0.23644 0.96004 0.0
H1396 H 0.78487 0.25211 0.8017 0.0
H1397 H 0.68052 0.28442 0.79819 0.0
H1398 H 0.70262 0.30533 0.82952 0.0
H1399 H 0.69629 0.27252 0.84919 0.0
C1400 C 0.75157 0.30054 0.92635 0.0
C1401 C 0.74996 0.27902 0.95616 0.0
C1402 C 0.75145 0.29662 0.87941 0.0
C1403 C 0.74972 0.27115 0.86136 0.0
C1404 C 0.7494 0.24949 0.89078 0.0
H1405 H 0.72928 0.22727 0.57431 0.0
H1406 H 0.74125 0.22502 0.6551 0.0
C1407 C 0.74952 0.25339 0.93793 0.0
C1408 C 0.74598 0.26764 0.81192 0.0
H1409 H 0.70215 0.28064 0.72728 0.0
C1410 C 0.76675 0.25805 0.78525 0.0
C1411 C 0.72222 0.27527 0.79093 0.0
C1412 C 0.699 0.28477 0.81833 0.0
C1413 C 0.76472 0.25708 0.73754 0.0
C1414 C 0.74125 0.26567 0.7165 0.0
C1415 C 0.72022 0.27433 0.7435 0.0
C1416 C 0.73801 0.26697 0.66652 0.0
C1417 C 0.78794 0.24784 0.70995 0.0
C1418 C 0.73249 0.29128 0.64617 0.0
C1419 C 0.72544 0.29257 0.60042 0.0
C1420 C 0.72378 0.26955 0.57407 0.0
C1421 C 0.7306 0.24533 0.59382 0.0
C1422 C 0.73751 0.24403 0.63987 0.0
H1423 H 0.80618 0.24686 0.73064 0.0
H1424 H 0.7838 0.22787 0.69641 0.0
H1425 H 0.79135 0.26109 0.68058 0.0
H1426 H 0.7328 0.30921 0.66616 0.0
H1427 H 0.72062 0.31152 0.58588 0.0
H1428 H 0.76077 0.73347 0.46612 0.0
H1429 H 0.77499 0.73267 0.38613 0.0
H1430 H 0.7044 0.77389 0.34754 0.0
H1431 H 0.6902 0.77467 0.42694 0.0
H1432 H 0.74445 0.70792 0.31644 0.0
H1433 H 0.76301 0.81279 0.27667 0.0
H1434 H 0.76291 0.80021 0.33411 0.0
H1435 H 0.73243 0.80714 0.30561 0.0
C1436 C 0.74865 0.74286 0.44061 0.0
C1437 C 0.72436 0.75405 0.45261 0.0
C1438 C 0.75672 0.74233 0.39501 0.0
C1439 C 0.74087 0.75347 0.36096 0.0
C1440 C 0.71715 0.76558 0.37328 0.0
H1441 H 0.70963 0.71905 0.08357 0.0
H1442 H 0.71051 0.7273 0.16541 0.0
C1443 C 0.70896 0.76583 0.41859 0.0
C1444 C 0.74741 0.75008 0.3121 0.0
H1445 H 0.75557 0.78405 0.21289 0.0
C1446 C 0.74734 0.72453 0.29393 0.0
C1447 C 0.75129 0.77177 0.28276 0.0
C1448 C 0.75268 0.79953 0.30076 0.0
C1449 C 0.74968 0.72019 0.24694 0.0
C1450 C 0.75202 0.74194 0.21736 0.0
C1451 C 0.75349 0.76742 0.23564 0.0
C1452 C 0.75151 0.73847 0.1673 0.0
C1453 C 0.749 0.69236 0.22904 0.0
C1454 C 0.77415 0.74263 0.14107 0.0
C1455 C 0.77382 0.73764 0.09417 0.0
C1456 C 0.75077 0.72856 0.07266 0.0
C1457 C 0.72789 0.7254 0.09904 0.0
C1458 C 0.7283 0.73025 0.14581 0.0
H1459 H 0.75294 0.67777 0.25627 0.0
H1460 H 0.72924 0.68824 0.21466 0.0
H1461 H 0.76367 0.68966 0.20147 0.0
H1462 H 0.79224 0.74904 0.15709 0.0
H1463 H 0.79184 0.74011 0.07507 0.0
H1464 H 0.53693 0.55283 0.69309 0.0
H1465 H 0.52722 0.55113 0.61179 0.0
H1466 H 0.50321 0.47013 0.62466 0.0
H1467 H 0.51387 0.47133 0.70578 0.0
H1468 H 0.53676 0.47817 0.55248 0.0
H1469 H 0.45617 0.55152 0.54903 0.0
H1470 H 0.48588 0.56366 0.57448 0.0
H1471 H 0.46815 0.53727 0.60123 0.0
C1472 C 0.52966 0.5346 0.67868 0.0
C1473 C 0.52622 0.5122 0.70609 0.0
C1474 C 0.5238 0.53377 0.63223 0.0
C1475 C 0.51411 0.51062 0.61221 0.0
C1476 C 0.5105 0.48827 0.63944 0.0
H1477 H 0.47137 0.4637 0.33721 0.0
H1478 H 0.4816 0.46512 0.41839 0.0
C1479 C 0.51641 0.48906 0.68591 0.0
C1480 C 0.5088 0.50941 0.56255 0.0
H1481 H 0.47297 0.5377 0.47745 0.0
C1482 C 0.5227 0.49107 0.5361 0.0
C1483 C 0.49052 0.52633 0.54118 0.0
C1484 C 0.47413 0.54564 0.56796 0.0
C1485 C 0.51917 0.4895 0.48877 0.0
C1486 C 0.50094 0.50647 0.46741 0.0
C1487 C 0.48703 0.52479 0.49385 0.0
C1488 C 0.49564 0.5053 0.41776 0.0
C1489 C 0.5354 0.47008 0.46196 0.0
C1490 C 0.49976 0.52754 0.39047 0.0
C1491 C 0.49365 0.5269 0.34407 0.0
C1492 C 0.48308 0.50404 0.32409 0.0
C1493 C 0.47923 0.48171 0.35153 0.0
C1494 C 0.48535 0.48238 0.39788 0.0
H1495 H 0.55318 0.46383 0.48103 0.0
H1496 H 0.5234 0.45229 0.45495 0.0
H1497 H 0.54164 0.47854 0.4289 0.0
H1498 H 0.50753 0.5455 0.40518 0.0
H1499 H 0.49655 0.54454 0.32413 0.0
H1500 H 0.06292 0.50435 0.84534 0.0
H1501 H 0.04821 0.51074 0.92396 0.0
H1502 H 0.98066 0.46174 0.89796 0.0
H1503 H 0.99521 0.45547 0.81881 0.0
H1504 H 0.99354 0.52834 0.9606 0.0
H1505 H 0.02664 0.42749 1.00673 0.0
H1506 H 0.03942 0.44465 0.95776 0.0
H1507 H 0.00682 0.43128 0.95639 0.0
C1508 C 0.04472 0.49523 0.85621 0.0
C1509 C 0.03026 0.4793 0.82601 0.0
C1510 C 0.03634 0.49894 0.90109 0.0
C1511 C 0.0135 0.48652 0.91691 0.0
C1512 C 0.99842 0.47141 0.88643 0.0
H1513 H 0.95424 0.46228 0.19102 0.0
H1514 H 0.96411 0.46028 0.11002 0.0
C1515 C 0.00665 0.46796 0.84122 0.0
C1516 C 0.00645 0.48822 0.96593 0.0
H1517 H 0.00799 0.45317 0.06487 0.0
C1518 C 0.99659 0.51192 0.98347 0.0
C1519 C 0.0105 0.46679 0.99564 0.0
C1520 C 0.02155 0.44107 0.97854 0.0
C1521 C 0.99027 0.51464 0.02991 0.0
C1522 C 0.99475 0.4933 0.05996 0.0
C1523 C 0.00459 0.46958 0.04213 0.0
C1524 C 0.9889 0.49488 0.10974 0.0
C1525 C 0.97824 0.54014 0.04593 0.0
C1526 C 0.9999 0.51471 0.13726 0.0
C1527 C 0.99385 0.51624 0.18374 0.0
C1528 C 0.97695 0.49772 0.2041 0.0
C1529 C 0.96676 0.47734 0.17665 0.0
C1530 C 0.9726 0.476 0.13018 0.0
H1531 H 0.96885 0.55098 0.01747 0.0
H1532 H 0.96325 0.53668 0.07269 0.0
H1533 H 0.99388 0.55291 0.06027 0.0
H1534 H 0.01318 0.52908 0.12282 0.0
H1535 H 1.00205 0.53227 0.20346 0.0
loop_
_geom_bond_atom_site_label_1
_geom_bond_atom_site_label_2
_geom_bond_distance
_geom_bond_site_symmetry_2
_ccdc_geom_bond_type
C0 C2 1.422 . S
C0 C4 1.415 . S
C0 N6 1.369 1_655 S
C1 C2 1.421 . S
C1 C3 1.417 . S
C1 C13 1.422 . S
C2 C0 1.422 . S
C2 C1 1.421 . S
C2 N12 1.359 . S
C3 C1 1.417 . S
C3 C5 1.329 . S
C3 H22 0.930 . S
C4 C0 1.415 . S
C4 C5 1.437 . S
C4 C8 1.413 1_655 S
C5 C3 1.329 . S
C5 C4 1.437 . S
C5 H27 0.929 . S
N6 C0 1.369 1_455 S
N6 C7 1.338 . S
N6 Gd11 2.623 . S
C7 N6 1.338 . S
C7 C9 1.378 . S
C7 H19 0.929 . S
C8 C4 1.413 1_455 S
C8 C9 1.348 . S
C8 H24 0.931 . S
C9 C7 1.378 . S
C9 C8 1.348 . S
C9 H25 0.930 . S
Gd10 N30 2.623 . S
Gd10 N37 2.549 1_655 S
Gd10 O44 2.368 1_545 S
Gd10 O45 2.464 1_655 S
Gd10 O46 2.440 . S
Gd10 O48 2.407 . S
Gd10 O49 2.373 1_655 S
Gd10 O53 2.291 1_645 S
Gd10 C63 2.810 . S
Gd11 N6 2.623 . S
Gd11 N12 2.541 1_455 S
Gd11 O43 2.368 1_455 S
Gd11 O47 2.285 1_465 S
Gd11 O50 2.374 1_565 S
Gd11 O51 2.463 1_455 S
Gd11 O52 2.446 . S
Gd11 O54 2.414 . S
Gd11 C75 2.813 . S
N12 C2 1.359 . S
N12 Gd11 2.541 1_655 S
N12 C14 1.343 . S
C13 C1 1.422 . S
C13 C15 1.321 . S
C13 H21 0.931 . S
C14 N12 1.343 . S
C14 C15 1.390 . S
C14 H16 0.931 . S
C15 C13 1.321 . S
C15 C14 1.390 . S
C15 H17 0.930 . S
H16 C14 0.931 . S
H17 C15 0.930 . S
H18 C41 0.931 . S
H19 C7 0.929 . S
H20 C42 0.930 . S
H21 C13 0.931 . S
H22 C3 0.930 . S
H23 C32 0.929 . S
H24 C8 0.931 . S
H25 C9 0.930 . S
H26 C64 0.930 . S
H27 C5 0.929 . S
H28 C33 0.931 . S
H29 C34 0.930 . S
N30 Gd10 2.623 . S
N30 C31 1.369 1_655 S
N30 C32 1.338 . S
C31 N30 1.369 1_455 S
C31 C35 1.415 . S
C31 C38 1.422 . S
C32 H23 0.929 . S
C32 N30 1.338 . S
C32 C34 1.378 . S
C33 H28 0.931 . S
C33 C34 1.348 . S
C33 C35 1.413 1_655 S
C34 H29 0.930 . S
C34 C32 1.378 . S
C34 C33 1.348 . S
C35 C31 1.415 . S
C35 C33 1.413 1_455 S
C35 C65 1.437 . S
H36 C65 0.929 . S
N37 Gd10 2.549 1_455 S
N37 C38 1.359 . S
N37 C41 1.343 . S
C38 C31 1.422 . S
C38 N37 1.359 . S
C38 C40 1.421 . S
C39 C40 1.422 . S
C39 C42 1.321 . S
C39 H66 0.931 . S
C40 C38 1.421 . S
C40 C39 1.422 . S
C40 C64 1.417 . S
C41 H18 0.931 . S
C41 N37 1.343 . S
C41 C42 1.390 . S
C42 H20 0.930 . S
C42 C39 1.321 . S
C42 C41 1.390 . S
O43 Gd11 2.368 1_655 S
O43 C55 1.265 . S
O44 Gd10 2.368 1_565 S
O44 C55 1.242 . S
O45 Gd10 2.464 1_455 S
O45 C63 1.263 1_455 S
O46 Gd10 2.440 . S
O46 C63 1.252 . S
O47 Gd11 2.285 1_645 S
O47 C56 1.261 . S
O48 Gd10 2.407 . S
O48 C56 1.252 . S
O49 Gd10 2.373 1_455 S
O49 C67 1.265 . S
O50 Gd11 2.374 1_545 S
O50 C67 1.242 . S
O51 Gd11 2.463 1_655 S
O51 C75 1.263 1_655 S
O52 Gd11 2.446 . S
O52 C75 1.252 . S
O53 Gd10 2.291 1_465 S
O53 C68 1.261 . S
O54 Gd11 2.414 . S
O54 C68 1.252 . S
C55 O43 1.265 . S
C55 O44 1.242 . S
C56 O47 1.261 . S
C56 O48 1.252 . S
C57 C60 1.394 . S
C57 C62 1.387 . S
C57 C63 1.500 . S
C58 C61 1.382 1_565 S
C58 C62 1.394 1_565 S
C59 C60 1.396 . S
C59 C61 1.365 . S
C59 H76 0.929 . S
C60 C57 1.394 . S
C60 C59 1.396 . S
C60 H77 0.930 . S
C61 C58 1.382 1_545 S
C61 C59 1.365 . S
C61 H78 0.931 . S
C62 C57 1.387 . S
C62 C58 1.394 1_545 S
C62 H79 0.914 1_645 S
C63 Gd10 2.810 . S
C63 O45 1.263 1_655 S
C63 O46 1.252 . S
C63 C57 1.500 . S
C64 H26 0.930 . S
C64 C40 1.417 . S
C64 C65 1.329 . S
C65 C35 1.437 . S
C65 H36 0.929 . S
C65 C64 1.329 . S
H66 C39 0.931 . S
C67 O49 1.265 . S
C67 O50 1.242 . S
C68 O53 1.261 . S
C68 O54 1.252 . S
C69 C72 1.394 . S
C69 C74 1.381 . S
C69 C75 1.500 . S
C70 C73 1.376 1_545 S
C70 C74 1.394 1_545 S
C71 C72 1.396 . S
C71 C73 1.365 . S
C71 H80 0.929 . S
C72 C69 1.394 . S
C72 C71 1.396 . S
C72 H81 0.930 . S
C73 C70 1.376 1_565 S
C73 C71 1.365 . S
C73 H82 0.931 . S
C74 C69 1.381 . S
C74 C70 1.394 1_565 S
C74 H83 0.920 1_465 S
C75 Gd11 2.813 . S
C75 O51 1.263 1_455 S
C75 O52 1.252 . S
C75 C69 1.500 . S
H76 C59 0.929 . S
H77 C60 0.930 . S
H78 C61 0.931 . S
H79 C62 0.914 1_465 S
H80 C71 0.929 . S
H81 C72 0.930 . S
H82 C73 0.931 . S
H83 C74 0.920 1_645 S
C84 C86 1.422 . S
C84 C88 1.415 . S
C84 N90 1.369 . S
C85 C86 1.421 . S
C85 C87 1.417 . S
C85 C97 1.422 . S
C86 C84 1.422 . S
C86 C85 1.421 . S
C86 N96 1.359 . S
C87 C85 1.417 . S
C87 C89 1.329 . S
C87 H106 0.930 . S
C88 C84 1.415 . S
C88 C89 1.437 . S
C88 C92 1.413 . S
C89 C87 1.329 . S
C89 C88 1.437 . S
C89 H111 0.929 . S
N90 C84 1.369 . S
N90 C91 1.338 . S
N90 Gd95 2.622 . S
C91 N90 1.338 . S
C91 C93 1.378 . S
C91 H103 0.929 . S
C92 C88 1.413 . S
C92 C93 1.348 . S
C92 H108 0.931 . S
C93 C91 1.378 . S
C93 C92 1.348 . S
C93 H109 0.930 . S
Gd94 N114 2.622 . S
Gd94 N121 2.570 . S
Gd94 O128 2.353 . S
Gd94 O129 2.468 . S
Gd94 O130 2.427 . S
Gd94 O132 2.388 . S
Gd94 O133 2.386 . S
Gd94 O137 2.307 . S
Gd94 C147 2.805 . S
Gd95 N90 2.622 . S
Gd95 N96 2.570 . S
Gd95 O127 2.386 . S
Gd95 O131 2.307 . S
Gd95 O134 2.353 . S
Gd95 O135 2.468 . S
Gd95 O136 2.427 . S
Gd95 O138 2.388 . S
Gd95 C159 2.805 . S
N96 C86 1.359 . S
N96 Gd95 2.570 . S
N96 C98 1.343 . S
C97 C85 1.422 . S
C97 C99 1.321 . S
C97 H105 0.931 . S
C98 N96 1.343 . S
C98 C99 1.390 . S
C98 H100 0.931 . S
C99 C97 1.321 . S
C99 C98 1.390 . S
C99 H101 0.930 . S
H100 C98 0.931 . S
H101 C99 0.930 . S
H102 C125 0.931 . S
H103 C91 0.929 . S
H104 C126 0.930 . S
H105 C97 0.931 . S
H106 C87 0.930 . S
H107 C116 0.929 . S
H108 C92 0.931 . S
H109 C93 0.930 . S
H110 C148 0.930 . S
H111 C89 0.929 . S
H112 C117 0.931 . S
H113 C118 0.930 . S
N114 Gd94 2.622 . S
N114 C115 1.369 . S
N114 C116 1.338 . S
C115 N114 1.369 . S
C115 C119 1.415 . S
C115 C122 1.422 . S
C116 H107 0.929 . S
C116 N114 1.338 . S
C116 C118 1.378 . S
C117 H112 0.931 . S
C117 C118 1.348 . S
C117 C119 1.413 . S
C118 H113 0.930 . S
C118 C116 1.378 . S
C118 C117 1.348 . S
C119 C115 1.415 . S
C119 C117 1.413 . S
C119 C149 1.437 . S
H120 C149 0.929 . S
N121 Gd94 2.570 . S
N121 C122 1.359 . S
N121 C125 1.343 . S
C122 C115 1.422 . S
C122 N121 1.359 . S
C122 C124 1.421 . S
C123 C124 1.422 . S
C123 C126 1.321 . S
C123 H150 0.931 . S
C124 C122 1.421 . S
C124 C123 1.422 . S
C124 C148 1.417 . S
C125 H102 0.931 . S
C125 N121 1.343 . S
C125 C126 1.390 . S
C126 H104 0.930 . S
C126 C123 1.321 . S
C126 C125 1.390 . S
O127 Gd95 2.386 . S
O127 C139 1.265 . S
O128 Gd94 2.353 . S
O128 C139 1.242 . S
O129 Gd94 2.468 . S
O129 C147 1.263 . S
O130 Gd94 2.427 . S
O130 C147 1.252 . S
O131 Gd95 2.307 . S
O131 C140 1.261 . S
O132 Gd94 2.388 . S
O132 C140 1.252 . S
O133 Gd94 2.386 . S
O133 C151 1.265 . S
O134 Gd95 2.353 . S
O134 C151 1.242 . S
O135 Gd95 2.468 . S
O135 C159 1.263 . S
O136 Gd95 2.427 . S
O136 C159 1.252 . S
O137 Gd94 2.307 . S
O137 C152 1.261 . S
O138 Gd95 2.388 . S
O138 C152 1.252 . S
C139 O127 1.265 . S
C139 O128 1.242 . S
C140 O131 1.261 . S
C140 O132 1.252 . S
C141 C144 1.394 . S
C141 C146 1.370 . S
C141 C147 1.500 . S
C142 C145 1.383 . S
C142 C146 1.395 1_554 S
C143 C144 1.396 1_554 S
C143 C145 1.365 . S
C143 H160 0.929 . S
C144 C141 1.394 . S
C144 C143 1.396 1_556 S
C144 H161 0.930 . S
C145 C142 1.383 . S
C145 C143 1.365 . S
C145 H162 0.931 . S
C146 C141 1.370 . S
C146 C142 1.395 1_556 S
C146 H163 0.930 . S
C147 Gd94 2.805 . S
C147 O129 1.263 . S
C147 O130 1.252 . S
C147 C141 1.500 . S
C148 H110 0.930 . S
C148 C124 1.417 . S
C148 C149 1.329 . S
C149 C119 1.437 . S
C149 H120 0.929 . S
C149 C148 1.329 . S
H150 C123 0.931 . S
C151 O133 1.265 . S
C151 O134 1.242 . S
C152 O137 1.261 . S
C152 O138 1.252 . S
C153 C156 1.394 . S
C153 C158 1.370 . S
C153 C159 1.500 . S
C154 C157 1.383 . S
C154 C158 1.395 . S
C155 C156 1.396 . S
C155 C157 1.365 . S
C155 H164 0.929 . S
C156 C153 1.394 . S
C156 C155 1.396 . S
C156 H165 0.930 . S
C157 C154 1.383 . S
C157 C155 1.365 . S
C157 H166 0.931 . S
C158 C153 1.370 . S
C158 C154 1.395 . S
C158 H167 0.930 . S
C159 Gd95 2.805 . S
C159 O135 1.263 . S
C159 O136 1.252 . S
C159 C153 1.500 . S
H160 C143 0.929 . S
H161 C144 0.930 . S
H162 C145 0.931 . S
H163 C146 0.930 . S
H164 C155 0.929 . S
H165 C156 0.930 . S
H166 C157 0.931 . S
H167 C158 0.930 . S
C168 C170 1.422 . S
C168 C172 1.415 . S
C168 N174 1.369 . S
C169 C170 1.421 . S
C169 C171 1.417 . S
C169 C181 1.422 . S
C170 C168 1.422 . S
C170 C169 1.421 . S
C170 N180 1.359 . S
C171 C169 1.417 . S
C171 C173 1.329 . S
C171 H190 0.930 . S
C172 C168 1.415 . S
C172 C173 1.437 . S
C172 C176 1.413 . S
C173 C171 1.329 . S
C173 C172 1.437 . S
C173 H195 0.929 . S
N174 C168 1.369 . S
N174 C175 1.338 . S
N174 Gd179 2.622 . S
C175 N174 1.338 . S
C175 C177 1.378 . S
C175 H187 0.929 . S
C176 C172 1.413 . S
C176 C177 1.348 . S
C176 H192 0.931 . S
C177 C175 1.378 . S
C177 C176 1.348 . S
C177 H193 0.930 . S
Gd178 N198 2.622 . S
Gd178 N205 2.570 . S
Gd178 O212 2.353 1_565 S
Gd178 O213 2.468 . S
Gd178 O214 2.427 . S
Gd178 O216 2.388 . S
Gd178 O217 2.386 1_554 S
Gd178 O221 2.307 1_565 S
Gd178 C231 2.805 . S
Gd179 N174 2.622 . S
Gd179 N180 2.570 . S
Gd179 O211 2.386 1_556 S
Gd179 O215 2.307 1_545 S
Gd179 O218 2.353 1_545 S
Gd179 O219 2.468 . S
Gd179 O220 2.427 . S
Gd179 O222 2.388 . S
Gd179 C243 2.805 . S
N180 C170 1.359 . S
N180 Gd179 2.570 . S
N180 C182 1.343 . S
C181 C169 1.422 . S
C181 C183 1.321 . S
C181 H189 0.931 . S
C182 N180 1.343 . S
C182 C183 1.390 . S
C182 H184 0.931 . S
C183 C181 1.321 . S
C183 C182 1.390 . S
C183 H185 0.930 . S
H184 C182 0.931 . S
H185 C183 0.930 . S
H186 C209 0.931 . S
H187 C175 0.929 . S
H188 C210 0.930 . S
H189 C181 0.931 . S
H190 C171 0.930 . S
H191 C200 0.929 . S
H192 C176 0.931 . S
H193 C177 0.930 . S
H194 C232 0.930 . S
H195 C173 0.929 . S
H196 C201 0.931 . S
H197 C202 0.930 . S
N198 Gd178 2.622 . S
N198 C199 1.369 . S
N198 C200 1.338 . S
C199 N198 1.369 . S
C199 C203 1.415 . S
C199 C206 1.422 . S
C200 H191 0.929 . S
C200 N198 1.338 . S
C200 C202 1.378 . S
C201 H196 0.931 . S
C201 C202 1.348 . S
C201 C203 1.413 . S
C202 H197 0.930 . S
C202 C200 1.378 . S
C202 C201 1.348 . S
C203 C199 1.415 . S
C203 C201 1.413 . S
C203 C233 1.437 . S
H204 C233 0.929 . S
N205 Gd178 2.570 . S
N205 C206 1.359 . S
N205 C209 1.343 . S
C206 C199 1.422 . S
C206 N205 1.359 . S
C206 C208 1.421 . S
C207 C208 1.422 . S
C207 C210 1.321 . S
C207 H234 0.931 . S
C208 C206 1.421 . S
C208 C207 1.422 . S
C208 C232 1.417 . S
C209 H186 0.931 . S
C209 N205 1.343 . S
C209 C210 1.390 . S
C210 H188 0.930 . S
C210 C207 1.321 . S
C210 C209 1.390 . S
O211 Gd179 2.386 1_554 S
O211 C223 1.265 . S
O212 Gd178 2.353 1_545 S
O212 C223 1.242 . S
O213 Gd178 2.468 . S
O213 C231 1.263 . S
O214 Gd178 2.427 . S
O214 C231 1.252 . S
O215 Gd179 2.307 1_565 S
O215 C224 1.261 . S
O216 Gd178 2.388 . S
O216 C224 1.252 1_554 S
O217 Gd178 2.386 1_556 S
O217 C235 1.265 . S
O218 Gd179 2.353 1_565 S
O218 C235 1.242 . S
O219 Gd179 2.468 . S
O219 C243 1.263 . S
O220 Gd179 2.427 . S
O220 C243 1.252 . S
O221 Gd178 2.307 1_545 S
O221 C236 1.261 . S
O222 Gd179 2.388 . S
O222 C236 1.252 1_556 S
C223 O211 1.265 . S
C223 O212 1.242 . S
C224 O215 1.261 . S
C224 O216 1.252 1_556 S
C225 C228 1.394 . S
C225 C230 1.348 1_565 S
C225 C231 1.500 . S
C226 C229 1.383 1_545 S
C226 C230 1.397 . S
C227 C228 1.396 . S
C227 C229 1.365 . S
C227 H244 0.929 . S
C228 C225 1.394 . S
C228 C227 1.396 . S
C228 H245 0.930 . S
C229 C226 1.383 1_565 S
C229 C227 1.365 . S
C229 H246 0.931 . S
C230 C225 1.348 1_545 S
C230 C226 1.397 . S
C230 H247 0.952 . S
C231 Gd178 2.805 . S
C231 O213 1.263 . S
C231 O214 1.252 . S
C231 C225 1.500 . S
C232 H194 0.930 . S
C232 C208 1.417 . S
C232 C233 1.329 . S
C233 C203 1.437 . S
C233 H204 0.929 . S
C233 C232 1.329 . S
H234 C207 0.931 . S
C235 O217 1.265 . S
C235 O218 1.242 . S
C236 O221 1.261 . S
C236 O222 1.252 1_554 S
C237 C240 1.394 . S
C237 C242 1.355 1_545 S
C237 C243 1.500 . S
C238 C241 1.383 1_565 S
C238 C242 1.396 . S
C239 C240 1.396 . S
C239 C241 1.365 . S
C239 H248 0.929 . S
C240 C237 1.394 . S
C240 C239 1.396 . S
C240 H249 0.930 . S
C241 C238 1.383 1_545 S
C241 C239 1.365 . S
C241 H250 0.931 . S
C242 C237 1.355 1_565 S
C242 C238 1.396 . S
C242 H251 0.945 . S
C243 Gd179 2.805 . S
C243 O219 1.263 . S
C243 O220 1.252 . S
C243 C237 1.500 . S
H244 C227 0.929 . S
H245 C228 0.930 . S
H246 C229 0.931 . S
H247 C230 0.952 . S
H248 C239 0.929 . S
H249 C240 0.930 . S
H250 C241 0.931 . S
H251 C242 0.945 . S
C252 C254 1.422 . S
C252 C256 1.415 . S
C252 N258 1.369 . S
C253 C254 1.421 . S
C253 C255 1.417 . S
C253 C265 1.422 . S
C254 C252 1.422 . S
C254 C253 1.421 . S
C254 N264 1.359 . S
C255 C253 1.417 . S
C255 C257 1.329 . S
C255 H274 0.930 . S
C256 C252 1.415 . S
C256 C257 1.437 . S
C256 C260 1.413 . S
C257 C255 1.329 . S
C257 C256 1.437 . S
C257 H279 0.929 . S
N258 C252 1.369 . S
N258 C259 1.338 . S
N258 Gd263 2.622 . S
C259 N258 1.338 . S
C259 C261 1.378 . S
C259 H271 0.929 . S
C260 C256 1.413 . S
C260 C261 1.348 . S
C260 H276 0.931 . S
C261 C259 1.378 . S
C261 C260 1.348 . S
C261 H277 0.930 . S
Gd262 N282 2.622 . S
Gd262 N289 2.570 . S
Gd262 O296 2.353 . S
Gd262 O297 2.468 . S
Gd262 O298 2.427 . S
Gd262 O300 2.388 . S
Gd262 O301 2.386 . S
Gd262 O305 2.307 . S
Gd262 C315 2.805 . S
Gd263 N258 2.622 . S
Gd263 N264 2.570 . S
Gd263 O295 2.386 . S
Gd263 O299 2.307 . S
Gd263 O302 2.353 . S
Gd263 O303 2.468 . S
Gd263 O304 2.427 . S
Gd263 O306 2.388 . S
Gd263 C327 2.805 . S
N264 C254 1.359 . S
N264 Gd263 2.570 . S
N264 C266 1.343 . S
C265 C253 1.422 . S
C265 C267 1.321 . S
C265 H273 0.931 . S
C266 N264 1.343 . S
C266 C267 1.390 . S
C266 H268 0.931 . S
C267 C265 1.321 . S
C267 C266 1.390 . S
C267 H269 0.930 . S
H268 C266 0.931 . S
H269 C267 0.930 . S
H270 C293 0.931 . S
H271 C259 0.929 . S
H272 C294 0.930 . S
H273 C265 0.931 . S
H274 C255 0.930 . S
H275 C284 0.929 . S
H276 C260 0.931 . S
H277 C261 0.930 . S
H278 C316 0.930 . S
H279 C257 0.929 . S
H280 C285 0.931 . S
H281 C286 0.930 . S
N282 Gd262 2.622 . S
N282 C283 1.369 . S
N282 C284 1.338 . S
C283 N282 1.369 . S
C283 C287 1.415 . S
C283 C290 1.422 . S
C284 H275 0.929 . S
C284 N282 1.338 . S
C284 C286 1.378 . S
C285 H280 0.931 . S
C285 C286 1.348 . S
C285 C287 1.413 . S
C286 H281 0.930 . S
C286 C284 1.378 . S
C286 C285 1.348 . S
C287 C283 1.415 . S
C287 C285 1.413 . S
C287 C317 1.437 . S
H288 C317 0.929 . S
N289 Gd262 2.570 . S
N289 C290 1.359 . S
N289 C293 1.343 . S
C290 C283 1.422 . S
C290 N289 1.359 . S
C290 C292 1.421 . S
C291 C292 1.422 . S
C291 C294 1.321 . S
C291 H318 0.931 . S
C292 C290 1.421 . S
C292 C291 1.422 . S
C292 C316 1.417 . S
C293 H270 0.931 . S
C293 N289 1.343 . S
C293 C294 1.390 . S
C294 H272 0.930 . S
C294 C291 1.321 . S
C294 C293 1.390 . S
O295 Gd263 2.386 . S
O295 C307 1.265 . S
O296 Gd262 2.353 . S
O296 C307 1.242 . S
O297 Gd262 2.468 . S
O297 C315 1.263 . S
O298 Gd262 2.427 . S
O298 C315 1.252 . S
O299 Gd263 2.307 . S
O299 C308 1.261 . S
O300 Gd262 2.388 . S
O300 C308 1.252 . S
O301 Gd262 2.386 . S
O301 C319 1.265 . S
O302 Gd263 2.353 . S
O302 C319 1.242 . S
O303 Gd263 2.468 . S
O303 C327 1.263 . S
O304 Gd263 2.427 . S
O304 C327 1.252 . S
O305 Gd262 2.307 . S
O305 C320 1.261 . S
O306 Gd263 2.388 . S
O306 C320 1.252 . S
C307 O295 1.265 . S
C307 O296 1.242 . S
C308 O299 1.261 . S
C308 O300 1.252 . S
C309 C312 1.394 . S
C309 C314 1.370 . S
C309 C315 1.500 . S
C310 C313 1.383 . S
C310 C314 1.395 1_556 S
C311 C312 1.396 1_556 S
C311 C313 1.365 . S
C311 H328 0.929 . S
C312 C309 1.394 . S
C312 C311 1.396 1_554 S
C312 H329 0.930 . S
C313 C310 1.383 . S
C313 C311 1.365 . S
C313 H330 0.931 . S
C314 C309 1.370 . S
C314 C310 1.395 1_554 S
C314 H331 0.930 . S
C315 Gd262 2.805 . S
C315 O297 1.263 . S
C315 O298 1.252 . S
C315 C309 1.500 . S
C316 H278 0.930 . S
C316 C292 1.417 . S
C316 C317 1.329 . S
C317 C287 1.437 . S
C317 H288 0.929 . S
C317 C316 1.329 . S
H318 C291 0.931 . S
C319 O301 1.265 . S
C319 O302 1.242 . S
C320 O305 1.261 . S
C320 O306 1.252 . S
C321 C324 1.394 . S
C321 C326 1.370 . S
C321 C327 1.500 . S
C322 C325 1.383 . S
C322 C326 1.395 . S
C323 C324 1.396 . S
C323 C325 1.365 . S
C323 H332 0.929 . S
C324 C321 1.394 . S
C324 C323 1.396 . S
C324 H333 0.930 . S
C325 C322 1.383 . S
C325 C323 1.365 . S
C325 H334 0.931 . S
C326 C321 1.370 . S
C326 C322 1.395 . S
C326 H335 0.930 . S
C327 Gd263 2.805 . S
C327 O303 1.263 . S
C327 O304 1.252 . S
C327 C321 1.500 . S
H328 C311 0.929 . S
H329 C312 0.930 . S
H330 C313 0.931 . S
H331 C314 0.930 . S
H332 C323 0.929 . S
H333 C324 0.930 . S
H334 C325 0.931 . S
H335 C326 0.930 . S
C336 C338 1.422 . S
C336 C340 1.415 . S
C336 N342 1.369 . S
C337 C338 1.421 . S
C337 C339 1.417 . S
C337 C349 1.422 . S
C338 C336 1.422 . S
C338 C337 1.421 . S
C338 N348 1.359 . S
C339 C337 1.417 . S
C339 C341 1.329 . S
C339 H358 0.930 . S
C340 C336 1.415 . S
C340 C341 1.437 . S
C340 C344 1.413 . S
C341 C339 1.329 . S
C341 C340 1.437 . S
C341 H363 0.929 . S
N342 C336 1.369 . S
N342 C343 1.338 . S
N342 Gd347 2.622 . S
C343 N342 1.338 . S
C343 C345 1.378 . S
C343 H355 0.929 . S
C344 C340 1.413 . S
C344 C345 1.348 . S
C344 H360 0.931 . S
C345 C343 1.378 . S
C345 C344 1.348 . S
C345 H361 0.930 . S
Gd346 N366 2.622 . S
Gd346 N373 2.570 . S
Gd346 O380 2.353 . S
Gd346 O381 2.468 . S
Gd346 O382 2.427 . S
Gd346 O384 2.388 . S
Gd346 O385 2.386 . S
Gd346 O389 2.307 . S
Gd346 C399 2.805 . S
Gd347 N342 2.622 . S
Gd347 N348 2.570 . S
Gd347 O379 2.386 . S
Gd347 O383 2.307 . S
Gd347 O386 2.353 . S
Gd347 O387 2.468 . S
Gd347 O388 2.427 . S
Gd347 O390 2.388 . S
Gd347 C411 2.805 . S
N348 C338 1.359 . S
N348 Gd347 2.570 . S
N348 C350 1.343 . S
C349 C337 1.422 . S
C349 C351 1.321 . S
C349 H357 0.931 . S
C350 N348 1.343 . S
C350 C351 1.390 . S
C350 H352 0.931 . S
C351 C349 1.321 . S
C351 C350 1.390 . S
C351 H353 0.930 . S
H352 C350 0.931 . S
H353 C351 0.930 . S
H354 C377 0.931 . S
H355 C343 0.929 . S
H356 C378 0.930 . S
H357 C349 0.931 . S
H358 C339 0.930 . S
H359 C368 0.929 . S
H360 C344 0.931 . S
H361 C345 0.930 . S
H362 C400 0.930 . S
H363 C341 0.929 . S
H364 C369 0.931 . S
H365 C370 0.930 . S
N366 Gd346 2.622 . S
N366 C367 1.369 . S
N366 C368 1.338 . S
C367 N366 1.369 . S
C367 C371 1.415 . S
C367 C374 1.422 . S
C368 H359 0.929 . S
C368 N366 1.338 . S
C368 C370 1.378 . S
C369 H364 0.931 . S
C369 C370 1.348 . S
C369 C371 1.413 . S
C370 H365 0.930 . S
C370 C368 1.378 . S
C370 C369 1.348 . S
C371 C367 1.415 . S
C371 C369 1.413 . S
C371 C401 1.437 . S
H372 C401 0.929 . S
N373 Gd346 2.570 . S
N373 C374 1.359 . S
N373 C377 1.343 . S
C374 C367 1.422 . S
C374 N373 1.359 . S
C374 C376 1.421 . S
C375 C376 1.422 . S
C375 C378 1.321 . S
C375 H402 0.931 . S
C376 C374 1.421 . S
C376 C375 1.422 . S
C376 C400 1.417 . S
C377 H354 0.931 . S
C377 N373 1.343 . S
C377 C378 1.390 . S
C378 H356 0.930 . S
C378 C375 1.321 . S
C378 C377 1.390 . S
O379 Gd347 2.386 . S
O379 C391 1.265 . S
O380 Gd346 2.353 . S
O380 C391 1.242 . S
O381 Gd346 2.468 . S
O381 C399 1.263 . S
O382 Gd346 2.427 . S
O382 C399 1.252 . S
O383 Gd347 2.307 . S
O383 C392 1.261 . S
O384 Gd346 2.388 . S
O384 C392 1.252 . S
O385 Gd346 2.386 . S
O385 C403 1.265 . S
O386 Gd347 2.353 . S
O386 C403 1.242 . S
O387 Gd347 2.468 . S
O387 C411 1.263 . S
O388 Gd347 2.427 . S
O388 C411 1.252 . S
O389 Gd346 2.307 . S
O389 C404 1.261 . S
O390 Gd347 2.388 . S
O390 C404 1.252 . S
C391 O379 1.265 . S
C391 O380 1.242 . S
C392 O383 1.261 . S
C392 O384 1.252 . S
C393 C396 1.394 . S
C393 C398 1.370 . S
C393 C399 1.500 . S
C394 C397 1.383 . S
C394 C398 1.395 . S
C395 C396 1.396 . S
C395 C397 1.365 . S
C395 H412 0.929 . S
C396 C393 1.394 . S
C396 C395 1.396 . S
C396 H413 0.930 . S
C397 C394 1.383 . S
C397 C395 1.365 . S
C397 H414 0.931 . S
C398 C393 1.370 . S
C398 C394 1.395 . S
C398 H415 0.930 . S
C399 Gd346 2.805 . S
C399 O381 1.263 . S
C399 O382 1.252 . S
C399 C393 1.500 . S
C400 H362 0.930 . S
C400 C376 1.417 . S
C400 C401 1.329 . S
C401 C371 1.437 . S
C401 H372 0.929 . S
C401 C400 1.329 . S
H402 C375 0.931 . S
C403 O385 1.265 . S
C403 O386 1.242 . S
C404 O389 1.261 . S
C404 O390 1.252 . S
C405 C408 1.394 . S
C405 C410 1.370 . S
C405 C411 1.500 . S
C406 C409 1.383 . S
C406 C410 1.395 1_556 S
C407 C408 1.396 1_556 S
C407 C409 1.365 . S
C407 H416 0.929 . S
C408 C405 1.394 . S
C408 C407 1.396 1_554 S
C408 H417 0.930 . S
C409 C406 1.383 . S
C409 C407 1.365 . S
C409 H418 0.931 . S
C410 C405 1.370 . S
C410 C406 1.395 1_554 S
C410 H419 0.930 . S
C411 Gd347 2.805 . S
C411 O387 1.263 . S
C411 O388 1.252 . S
C411 C405 1.500 . S
H412 C395 0.929 . S
H413 C396 0.930 . S
H414 C397 0.931 . S
H415 C398 0.930 . S
H416 C407 0.929 . S
H417 C408 0.930 . S
H418 C409 0.931 . S
H419 C410 0.930 . S
C420 C422 1.422 . S
C420 C424 1.415 . S
C420 N426 1.369 . S
C421 C422 1.421 . S
C421 C423 1.417 . S
C421 C433 1.422 . S
C422 C420 1.422 . S
C422 C421 1.421 . S
C422 N432 1.359 . S
C423 C421 1.417 . S
C423 C425 1.329 . S
C423 H442 0.930 . S
C424 C420 1.415 . S
C424 C425 1.437 . S
C424 C428 1.413 . S
C425 C423 1.329 . S
C425 C424 1.437 . S
C425 H447 0.929 . S
N426 C420 1.369 . S
N426 C427 1.338 . S
N426 Gd431 2.622 . S
C427 N426 1.338 . S
C427 C429 1.378 . S
C427 H439 0.929 . S
C428 C424 1.413 . S
C428 C429 1.348 . S
C428 H444 0.931 . S
C429 C427 1.378 . S
C429 C428 1.348 . S
C429 H445 0.930 . S
Gd430 N450 2.622 . S
Gd430 N457 2.570 . S
Gd430 O464 2.353 . S
Gd430 O465 2.468 . S
Gd430 O466 2.427 . S
Gd430 O468 2.388 . S
Gd430 O469 2.386 . S
Gd430 O473 2.307 . S
Gd430 C483 2.805 . S
Gd431 N426 2.622 . S
Gd431 N432 2.570 . S
Gd431 O463 2.386 . S
Gd431 O467 2.307 . S
Gd431 O470 2.353 . S
Gd431 O471 2.468 . S
Gd431 O472 2.427 . S
Gd431 O474 2.388 . S
Gd431 C495 2.805 . S
N432 C422 1.359 . S
N432 Gd431 2.570 . S
N432 C434 1.343 . S
C433 C421 1.422 . S
C433 C435 1.321 . S
C433 H441 0.931 . S
C434 N432 1.343 . S
C434 C435 1.390 . S
C434 H436 0.931 . S
C435 C433 1.321 . S
C435 C434 1.390 . S
C435 H437 0.930 . S
H436 C434 0.931 . S
H437 C435 0.930 . S
H438 C461 0.931 . S
H439 C427 0.929 . S
H440 C462 0.930 . S
H441 C433 0.931 . S
H442 C423 0.930 . S
H443 C452 0.929 . S
H444 C428 0.931 . S
H445 C429 0.930 . S
H446 C484 0.930 . S
H447 C425 0.929 . S
H448 C453 0.931 . S
H449 C454 0.930 . S
N450 Gd430 2.622 . S
N450 C451 1.369 . S
N450 C452 1.338 . S
C451 N450 1.369 . S
C451 C455 1.415 . S
C451 C458 1.422 . S
C452 H443 0.929 . S
C452 N450 1.338 . S
C452 C454 1.378 . S
C453 H448 0.931 . S
C453 C454 1.348 . S
C453 C455 1.413 . S
C454 H449 0.930 . S
C454 C452 1.378 . S
C454 C453 1.348 . S
C455 C451 1.415 . S
C455 C453 1.413 . S
C455 C485 1.437 . S
H456 C485 0.929 . S
N457 Gd430 2.570 . S
N457 C458 1.359 . S
N457 C461 1.343 . S
C458 C451 1.422 . S
C458 N457 1.359 . S
C458 C460 1.421 . S
C459 C460 1.422 . S
C459 C462 1.321 . S
C459 H486 0.931 . S
C460 C458 1.421 . S
C460 C459 1.422 . S
C460 C484 1.417 . S
C461 H438 0.931 . S
C461 N457 1.343 . S
C461 C462 1.390 . S
C462 H440 0.930 . S
C462 C459 1.321 . S
C462 C461 1.390 . S
O463 Gd431 2.386 . S
O463 C475 1.265 . S
O464 Gd430 2.353 . S
O464 C475 1.242 . S
O465 Gd430 2.468 . S
O465 C483 1.263 . S
O466 Gd430 2.427 . S
O466 C483 1.252 . S
O467 Gd431 2.307 . S
O467 C476 1.261 . S
O468 Gd430 2.388 . S
O468 C476 1.252 . S
O469 Gd430 2.386 . S
O469 C487 1.265 . S
O470 Gd431 2.353 . S
O470 C487 1.242 . S
O471 Gd431 2.468 . S
O471 C495 1.263 . S
O472 Gd431 2.427 . S
O472 C495 1.252 . S
O473 Gd430 2.307 . S
O473 C488 1.261 . S
O474 Gd431 2.388 . S
O474 C488 1.252 . S
C475 O463 1.265 . S
C475 O464 1.242 . S
C476 O467 1.261 . S
C476 O468 1.252 . S
C477 C480 1.394 . S
C477 C482 1.370 . S
C477 C483 1.500 . S
C478 C481 1.383 . S
C478 C482 1.395 . S
C479 C480 1.396 . S
C479 C481 1.365 . S
C479 H496 0.929 . S
C480 C477 1.394 . S
C480 C479 1.396 . S
C480 H497 0.930 . S
C481 C478 1.383 . S
C481 C479 1.365 . S
C481 H498 0.931 . S
C482 C477 1.370 . S
C482 C478 1.395 . S
C482 H499 0.930 . S
C483 Gd430 2.805 . S
C483 O465 1.263 . S
C483 O466 1.252 . S
C483 C477 1.500 . S
C484 H446 0.930 . S
C484 C460 1.417 . S
C484 C485 1.329 . S
C485 C455 1.437 . S
C485 H456 0.929 . S
C485 C484 1.329 . S
H486 C459 0.931 . S
C487 O469 1.265 . S
C487 O470 1.242 . S
C488 O473 1.261 . S
C488 O474 1.252 . S
C489 C492 1.394 . S
C489 C494 1.370 . S
C489 C495 1.500 . S
C490 C493 1.383 . S
C490 C494 1.395 1_554 S
C491 C492 1.396 1_554 S
C491 C493 1.365 . S
C491 H500 0.929 . S
C492 C489 1.394 . S
C492 C491 1.396 1_556 S
C492 H501 0.930 . S
C493 C490 1.383 . S
C493 C491 1.365 . S
C493 H502 0.931 . S
C494 C489 1.370 . S
C494 C490 1.395 1_556 S
C494 H503 0.930 . S
C495 Gd431 2.805 . S
C495 O471 1.263 . S
C495 O472 1.252 . S
C495 C489 1.500 . S
H496 C479 0.929 . S
H497 C480 0.930 . S
H498 C481 0.931 . S
H499 C482 0.930 . S
H500 C491 0.929 . S
H501 C492 0.930 . S
H502 C493 0.931 . S
H503 C494 0.930 . S
C504 C506 1.422 . S
C504 C508 1.415 . S
C504 N510 1.369 . S
C505 C506 1.421 . S
C505 C507 1.417 . S
C505 C517 1.422 . S
C506 C504 1.422 . S
C506 C505 1.421 . S
C506 N516 1.359 . S
C507 C505 1.417 . S
C507 C509 1.329 . S
C507 H526 0.930 . S
C508 C504 1.415 . S
C508 C509 1.437 . S
C508 C512 1.413 . S
C509 C507 1.329 . S
C509 C508 1.437 . S
C509 H531 0.929 . S
N510 C504 1.369 . S
N510 C511 1.338 . S
N510 Gd515 2.622 . S
C511 N510 1.338 . S
C511 C513 1.378 . S
C511 H523 0.929 . S
C512 C508 1.413 . S
C512 C513 1.348 . S
C512 H528 0.931 . S
C513 C511 1.378 . S
C513 C512 1.348 . S
C513 H529 0.930 . S
Gd514 N534 2.622 . S
Gd514 N541 2.570 . S
Gd514 O548 2.353 . S
Gd514 O549 2.468 . S
Gd514 O550 2.427 . S
Gd514 O552 2.388 . S
Gd514 O553 2.386 1_554 S
Gd514 O557 2.307 . S
Gd514 C567 2.805 . S
Gd515 N510 2.622 . S
Gd515 N516 2.570 . S
Gd515 O547 2.386 1_556 S
Gd515 O551 2.307 . S
Gd515 O554 2.353 . S
Gd515 O555 2.468 . S
Gd515 O556 2.427 . S
Gd515 O558 2.388 . S
Gd515 C579 2.805 . S
N516 C506 1.359 . S
N516 Gd515 2.570 . S
N516 C518 1.343 . S
C517 C505 1.422 . S
C517 C519 1.321 . S
C517 H525 0.931 . S
C518 N516 1.343 . S
C518 C519 1.390 . S
C518 H520 0.931 . S
C519 C517 1.321 . S
C519 C518 1.390 . S
C519 H521 0.930 . S
H520 C518 0.931 . S
H521 C519 0.930 . S
H522 C545 0.931 . S
H523 C511 0.929 . S
H524 C546 0.930 . S
H525 C517 0.931 . S
H526 C507 0.930 . S
H527 C536 0.929 . S
H528 C512 0.931 . S
H529 C513 0.930 . S
H530 C568 0.930 . S
H531 C509 0.929 . S
H532 C537 0.931 . S
H533 C538 0.930 . S
N534 Gd514 2.622 . S
N534 C535 1.369 . S
N534 C536 1.338 . S
C535 N534 1.369 . S
C535 C539 1.415 . S
C535 C542 1.422 . S
C536 H527 0.929 . S
C536 N534 1.338 . S
C536 C538 1.378 . S
C537 H532 0.931 . S
C537 C538 1.348 . S
C537 C539 1.413 . S
C538 H533 0.930 . S
C538 C536 1.378 . S
C538 C537 1.348 . S
C539 C535 1.415 . S
C539 C537 1.413 . S
C539 C569 1.437 . S
H540 C569 0.929 . S
N541 Gd514 2.570 . S
N541 C542 1.359 . S
N541 C545 1.343 . S
C542 C535 1.422 . S
C542 N541 1.359 . S
C542 C544 1.421 . S
C543 C544 1.422 . S
C543 C546 1.321 . S
C543 H570 0.931 . S
C544 C542 1.421 . S
C544 C543 1.422 . S
C544 C568 1.417 . S
C545 H522 0.931 . S
C545 N541 1.343 . S
C545 C546 1.390 . S
C546 H524 0.930 . S
C546 C543 1.321 . S
C546 C545 1.390 . S
O547 Gd515 2.386 1_554 S
O547 C559 1.265 . S
O548 Gd514 2.353 . S
O548 C559 1.242 . S
O549 Gd514 2.468 . S
O549 C567 1.263 . S
O550 Gd514 2.427 . S
O550 C567 1.252 . S
O551 Gd515 2.307 . S
O551 C560 1.261 . S
O552 Gd514 2.388 . S
O552 C560 1.252 1_554 S
O553 Gd514 2.386 1_556 S
O553 C571 1.265 . S
O554 Gd515 2.353 . S
O554 C571 1.242 . S
O555 Gd515 2.468 . S
O555 C579 1.263 . S
O556 Gd515 2.427 . S
O556 C579 1.252 . S
O557 Gd514 2.307 . S
O557 C572 1.261 . S
O558 Gd515 2.388 . S
O558 C572 1.252 1_556 S
C559 O547 1.265 . S
C559 O548 1.242 . S
C560 O551 1.261 . S
C560 O552 1.252 1_556 S
C561 C564 1.394 . S
C561 C566 1.370 . S
C561 C567 1.500 . S
C562 C565 1.383 . S
C562 C566 1.395 . S
C563 C564 1.396 . S
C563 C565 1.365 . S
C563 H580 0.929 . S
C564 C561 1.394 . S
C564 C563 1.396 . S
C564 H581 0.930 . S
C565 C562 1.383 . S
C565 C563 1.365 . S
C565 H582 0.931 . S
C566 C561 1.370 . S
C566 C562 1.395 . S
C566 H583 0.930 . S
C567 Gd514 2.805 . S
C567 O549 1.263 . S
C567 O550 1.252 . S
C567 C561 1.500 . S
C568 H530 0.930 . S
C568 C544 1.417 . S
C568 C569 1.329 . S
C569 C539 1.437 . S
C569 H540 0.929 . S
C569 C568 1.329 . S
H570 C543 0.931 . S
C571 O553 1.265 . S
C571 O554 1.242 . S
C572 O557 1.261 . S
C572 O558 1.252 1_554 S
C573 C576 1.394 . S
C573 C578 1.370 . S
C573 C579 1.500 . S
C574 C577 1.383 . S
C574 C578 1.395 . S
C575 C576 1.396 . S
C575 C577 1.365 . S
C575 H584 0.929 . S
C576 C573 1.394 . S
C576 C575 1.396 . S
C576 H585 0.930 . S
C577 C574 1.383 . S
C577 C575 1.365 . S
C577 H586 0.931 . S
C578 C573 1.370 . S
C578 C574 1.395 . S
C578 H587 0.930 . S
C579 Gd515 2.805 . S
C579 O555 1.263 . S
C579 O556 1.252 . S
C579 C573 1.500 . S
H580 C563 0.929 . S
H581 C564 0.930 . S
H582 C565 0.931 . S
H583 C566 0.930 . S
H584 C575 0.929 . S
H585 C576 0.930 . S
H586 C577 0.931 . S
H587 C578 0.930 . S
C588 C590 1.422 . S
C588 C592 1.415 . S
C588 N594 1.369 1_455 S
C589 C590 1.421 . S
C589 C591 1.417 . S
C589 C601 1.422 . S
C590 C588 1.422 . S
C590 C589 1.421 . S
C590 N600 1.359 . S
C591 C589 1.417 . S
C591 C593 1.329 . S
C591 H610 0.930 . S
C592 C588 1.415 . S
C592 C593 1.437 . S
C592 C596 1.413 1_455 S
C593 C591 1.329 . S
C593 C592 1.437 . S
C593 H615 0.929 . S
N594 C588 1.369 1_655 S
N594 C595 1.338 . S
N594 Gd599 2.623 . S
C595 N594 1.338 . S
C595 C597 1.378 . S
C595 H607 0.929 . S
C596 C592 1.413 1_655 S
C596 C597 1.348 . S
C596 H612 0.931 . S
C597 C595 1.378 . S
C597 C596 1.348 . S
C597 H613 0.930 . S
Gd598 N618 2.623 . S
Gd598 N625 2.541 1_455 S
Gd598 O632 2.374 . S
Gd598 O633 2.463 1_455 S
Gd598 O634 2.446 . S
Gd598 O636 2.414 . S
Gd598 O637 2.368 1_455 S
Gd598 O641 2.285 1_455 S
Gd598 C651 2.813 . S
Gd599 N594 2.623 . S
Gd599 N600 2.550 1_655 S
Gd599 O631 2.373 1_655 S
Gd599 O635 2.291 1_655 S
Gd599 O638 2.368 . S
Gd599 O639 2.464 1_655 S
Gd599 O640 2.440 . S
Gd599 O642 2.407 . S
Gd599 C663 2.810 . S
N600 C590 1.359 . S
N600 Gd599 2.550 1_455 S
N600 C602 1.343 . S
C601 C589 1.422 . S
C601 C603 1.321 . S
C601 H609 0.931 . S
C602 N600 1.343 . S
C602 C603 1.390 . S
C602 H604 0.931 . S
C603 C601 1.321 . S
C603 C602 1.390 . S
C603 H605 0.930 . S
H604 C602 0.931 . S
H605 C603 0.930 . S
H606 C629 0.931 . S
H607 C595 0.929 . S
H608 C630 0.930 . S
H609 C601 0.931 . S
H610 C591 0.930 . S
H611 C620 0.929 . S
H612 C596 0.931 . S
H613 C597 0.930 . S
H614 C652 0.930 . S
H615 C593 0.929 . S
H616 C621 0.931 . S
H617 C622 0.930 . S
N618 Gd598 2.623 . S
N618 C619 1.369 1_455 S
N618 C620 1.338 . S
C619 N618 1.369 1_655 S
C619 C623 1.415 . S
C619 C626 1.422 . S
C620 H611 0.929 . S
C620 N618 1.338 . S
C620 C622 1.378 . S
C621 H616 0.931 . S
C621 C622 1.348 . S
C621 C623 1.413 1_455 S
C622 H617 0.930 . S
C622 C620 1.378 . S
C622 C621 1.348 . S
C623 C619 1.415 . S
C623 C621 1.413 1_655 S
C623 C653 1.437 . S
H624 C653 0.929 . S
N625 Gd598 2.541 1_655 S
N625 C626 1.359 . S
N625 C629 1.343 . S
C626 C619 1.422 . S
C626 N625 1.359 . S
C626 C628 1.421 . S
C627 C628 1.422 . S
C627 C630 1.321 . S
C627 H654 0.931 . S
C628 C626 1.421 . S
C628 C627 1.422 . S
C628 C652 1.417 . S
C629 H606 0.931 . S
C629 N625 1.343 . S
C629 C630 1.390 . S
C630 H608 0.930 . S
C630 C627 1.321 . S
C630 C629 1.390 . S
O631 Gd599 2.373 1_455 S
O631 C643 1.265 . S
O632 Gd598 2.374 . S
O632 C643 1.242 . S
O633 Gd598 2.463 1_655 S
O633 C651 1.263 1_655 S
O634 Gd598 2.446 . S
O634 C651 1.252 . S
O635 Gd599 2.291 1_455 S
O635 C644 1.261 . S
O636 Gd598 2.414 . S
O636 C644 1.252 . S
O637 Gd598 2.368 1_655 S
O637 C655 1.265 . S
O638 Gd599 2.368 . S
O638 C655 1.242 . S
O639 Gd599 2.464 1_455 S
O639 C663 1.263 1_455 S
O640 Gd599 2.440 . S
O640 C663 1.252 . S
O641 Gd598 2.285 1_655 S
O641 C656 1.261 . S
O642 Gd599 2.407 . S
O642 C656 1.252 . S
C643 O631 1.265 . S
C643 O632 1.242 . S
C644 O635 1.261 . S
C644 O636 1.252 . S
C645 C648 1.394 . S
C645 C650 1.370 . S
C645 C651 1.500 . S
C646 C649 1.383 . S
C646 C650 1.395 . S
C647 C648 1.396 . S
C647 C649 1.365 . S
C647 H664 0.929 . S
C648 C645 1.394 . S
C648 C647 1.396 . S
C648 H665 0.930 . S
C649 C646 1.383 . S
C649 C647 1.365 . S
C649 H666 0.931 . S
C650 C645 1.370 . S
C650 C646 1.395 . S
C650 H667 0.930 1_455 S
C651 Gd598 2.813 . S
C651 O633 1.263 1_455 S
C651 O634 1.252 . S
C651 C645 1.500 . S
C652 H614 0.930 . S
C652 C628 1.417 . S
C652 C653 1.329 . S
C653 C623 1.437 . S
C653 H624 0.929 . S
C653 C652 1.329 . S
H654 C627 0.931 . S
C655 O637 1.265 . S
C655 O638 1.242 . S
C656 O641 1.261 . S
C656 O642 1.252 . S
C657 C660 1.394 . S
C657 C662 1.370 . S
C657 C663 1.500 . S
C658 C661 1.383 . S
C658 C662 1.395 . S
C659 C660 1.396 . S
C659 C661 1.365 . S
C659 H668 0.929 . S
C660 C657 1.394 . S
C660 C659 1.396 . S
C660 H669 0.930 . S
C661 C658 1.383 . S
C661 C659 1.365 . S
C661 H670 0.931 . S
C662 C657 1.370 . S
C662 C658 1.395 . S
C662 H671 0.930 1_655 S
C663 Gd599 2.810 . S
C663 O639 1.263 1_655 S
C663 O640 1.252 . S
C663 C657 1.500 . S
H664 C647 0.929 . S
H665 C648 0.930 . S
H666 C649 0.931 . S
H667 C650 0.930 1_655 S
H668 C659 0.929 . S
H669 C660 0.930 . S
H670 C661 0.931 . S
H671 C662 0.930 1_455 S
H672 C680 0.929 . S
H673 C682 0.930 . S
H674 C684 0.930 . S
H675 C687 0.929 . S
H676 C690 0.930 . S
H677 C692 0.960 . S
H678 C692 0.960 . S
H679 C692 0.960 . S
C680 H672 0.929 . S
C680 C681 1.377 . S
C680 C682 1.384 . S
C681 C680 1.377 . S
C681 C687 1.390 . S
C682 H673 0.930 . S
C682 C680 1.384 . S
C682 C683 1.372 . S
C683 C682 1.372 . S
C683 C684 1.400 . S
C683 C688 1.490 . S
C684 H674 0.930 . S
C684 C683 1.400 . S
C684 C687 1.386 . S
H685 C701 0.930 . S
H686 C702 0.931 . S
C687 H675 0.929 . S
C687 C681 1.390 . S
C687 C684 1.386 . S
C688 C683 1.490 . S
C688 C690 1.395 . S
C688 C691 1.403 . S
H689 C695 0.930 . S
C690 H676 0.930 . S
C690 C688 1.395 . S
C690 C693 1.403 . S
C691 C688 1.403 . S
C691 C692 1.524 . S
C691 C695 1.400 . S
C692 H677 0.960 . S
C692 H678 0.960 . S
C692 H679 0.960 . S
C692 C691 1.524 . S
C693 C690 1.403 . S
C693 C694 1.392 . S
C693 C697 1.495 . S
C694 C693 1.392 . S
C694 C695 1.385 . S
C694 C696 1.478 . S
C695 H689 0.930 . S
C695 C691 1.400 . S
C695 C694 1.385 . S
C696 C694 1.478 . S
C696 C698 1.381 . S
C696 C702 1.383 . S
C697 C693 1.495 . S
C697 H703 0.959 . S
C697 H704 0.961 . S
C697 H705 0.960 . S
C698 C696 1.381 . S
C698 C699 1.394 . S
C698 H706 0.930 . S
C699 C698 1.394 . S
C699 C700 1.383 . S
C699 H707 0.929 . S
C700 C699 1.383 . S
C700 C701 1.377 . S
C701 H685 0.930 . S
C701 C700 1.377 . S
C701 C702 1.379 . S
C702 H686 0.931 . S
C702 C696 1.383 . S
C702 C701 1.379 . S
H703 C697 0.959 . S
H704 C697 0.961 . S
H705 C697 0.960 . S
H706 C698 0.930 . S
H707 C699 0.929 . S
H708 C716 0.929 . S
H709 C718 0.930 . S
H710 C720 0.930 . S
H711 C723 0.929 . S
H712 C726 0.930 . S
H713 C728 0.960 . S
H714 C728 0.960 . S
H715 C728 0.960 . S
C716 H708 0.929 . S
C716 C717 1.377 . S
C716 C718 1.384 . S
C717 C716 1.377 . S
C717 C723 1.390 . S
C718 H709 0.930 . S
C718 C716 1.384 . S
C718 C719 1.372 . S
C719 C718 1.372 . S
C719 C720 1.400 . S
C719 C724 1.490 . S
C720 H710 0.930 . S
C720 C719 1.400 . S
C720 C723 1.386 . S
H721 C737 0.930 . S
H722 C738 0.931 . S
C723 H711 0.929 . S
C723 C717 1.390 . S
C723 C720 1.386 . S
C724 C719 1.490 . S
C724 C726 1.395 . S
C724 C727 1.403 . S
H725 C731 0.930 . S
C726 H712 0.930 . S
C726 C724 1.395 . S
C726 C729 1.403 . S
C727 C724 1.403 . S
C727 C728 1.524 . S
C727 C731 1.400 . S
C728 H713 0.960 . S
C728 H714 0.960 . S
C728 H715 0.960 . S
C728 C727 1.524 . S
C729 C726 1.403 . S
C729 C730 1.392 . S
C729 C733 1.495 . S
C730 C729 1.392 . S
C730 C731 1.385 . S
C730 C732 1.478 . S
C731 H725 0.930 . S
C731 C727 1.400 . S
C731 C730 1.385 . S
C732 C730 1.478 . S
C732 C734 1.381 . S
C732 C738 1.383 . S
C733 C729 1.495 . S
C733 H739 0.959 . S
C733 H740 0.961 . S
C733 H741 0.960 . S
C734 C732 1.381 . S
C734 C735 1.394 . S
C734 H742 0.930 . S
C735 C734 1.394 . S
C735 C736 1.383 . S
C735 H743 0.929 . S
C736 C735 1.383 . S
C736 C737 1.377 . S
C737 H721 0.930 . S
C737 C736 1.377 . S
C737 C738 1.379 . S
C738 H722 0.931 . S
C738 C732 1.383 . S
C738 C737 1.379 . S
H739 C733 0.959 . S
H740 C733 0.961 . S
H741 C733 0.960 . S
H742 C734 0.930 . S
H743 C735 0.929 . S
H744 C752 0.929 . S
H745 C754 0.930 . S
H746 C756 0.930 . S
H747 C759 0.929 . S
H748 C762 0.930 . S
H749 C764 0.960 . S
H750 C764 0.960 . S
H751 C764 0.960 . S
C752 H744 0.929 . S
C752 C753 1.377 . S
C752 C754 1.384 . S
C753 C752 1.377 . S
C753 C759 1.390 . S
C754 H745 0.930 . S
C754 C752 1.384 . S
C754 C755 1.372 . S
C755 C754 1.372 . S
C755 C756 1.400 . S
C755 C760 1.490 . S
C756 H746 0.930 . S
C756 C755 1.400 . S
C756 C759 1.386 . S
H757 C773 0.930 . S
H758 C774 0.931 . S
C759 H747 0.929 . S
C759 C753 1.390 . S
C759 C756 1.386 . S
C760 C755 1.490 . S
C760 C762 1.395 . S
C760 C763 1.403 . S
H761 C767 0.930 . S
C762 H748 0.930 . S
C762 C760 1.395 . S
C762 C765 1.403 . S
C763 C760 1.403 . S
C763 C764 1.524 . S
C763 C767 1.400 . S
C764 H749 0.960 . S
C764 H750 0.960 . S
C764 H751 0.960 . S
C764 C763 1.524 . S
C765 C762 1.403 . S
C765 C766 1.392 . S
C765 C769 1.495 . S
C766 C765 1.392 . S
C766 C767 1.385 . S
C766 C768 1.478 . S
C767 H761 0.930 . S
C767 C763 1.400 . S
C767 C766 1.385 . S
C768 C766 1.478 . S
C768 C770 1.381 . S
C768 C774 1.383 . S
C769 C765 1.495 . S
C769 H775 0.959 . S
C769 H776 0.961 . S
C769 H777 0.960 . S
C770 C768 1.381 . S
C770 C771 1.394 . S
C770 H778 0.930 . S
C771 C770 1.394 . S
C771 C772 1.383 . S
C771 H779 0.929 . S
C772 C771 1.383 . S
C772 C773 1.377 . S
C773 H757 0.930 . S
C773 C772 1.377 . S
C773 C774 1.379 . S
C774 H758 0.931 . S
C774 C768 1.383 . S
C774 C773 1.379 . S
H775 C769 0.959 . S
H776 C769 0.961 . S
H777 C769 0.960 . S
H778 C770 0.930 . S
H779 C771 0.929 . S
H780 C788 0.929 . S
H781 C790 0.930 . S
H782 C792 0.930 . S
H783 C795 0.929 . S
H784 C798 0.930 . S
H785 C800 0.960 . S
H786 C800 0.960 . S
H787 C800 0.960 . S
C788 H780 0.929 . S
C788 C789 1.377 . S
C788 C790 1.384 . S
C789 C788 1.377 . S
C789 C795 1.390 . S
C790 H781 0.930 . S
C790 C788 1.384 . S
C790 C791 1.372 . S
C791 C790 1.372 . S
C791 C792 1.400 . S
C791 C796 1.490 . S
C792 H782 0.930 . S
C792 C791 1.400 . S
C792 C795 1.386 . S
H793 C809 0.930 . S
H794 C810 0.931 . S
C795 H783 0.929 . S
C795 C789 1.390 . S
C795 C792 1.386 . S
C796 C791 1.490 . S
C796 C798 1.395 . S
C796 C799 1.403 . S
H797 C803 0.930 . S
C798 H784 0.930 . S
C798 C796 1.395 . S
C798 C801 1.403 . S
C799 C796 1.403 . S
C799 C800 1.524 . S
C799 C803 1.400 . S
C800 H785 0.960 . S
C800 H786 0.960 . S
C800 H787 0.960 . S
C800 C799 1.524 . S
C801 C798 1.403 . S
C801 C802 1.392 . S
C801 C805 1.495 . S
C802 C801 1.392 . S
C802 C803 1.385 . S
C802 C804 1.478 . S
C803 H797 0.930 . S
C803 C799 1.400 . S
C803 C802 1.385 . S
C804 C802 1.478 . S
C804 C806 1.381 . S
C804 C810 1.383 . S
C805 C801 1.495 . S
C805 H811 0.959 . S
C805 H812 0.961 . S
C805 H813 0.960 . S
C806 C804 1.381 . S
C806 C807 1.394 . S
C806 H814 0.930 . S
C807 C806 1.394 . S
C807 C808 1.383 . S
C807 H815 0.929 . S
C808 C807 1.383 . S
C808 C809 1.377 . S
C809 H793 0.930 . S
C809 C808 1.377 . S
C809 C810 1.379 . S
C810 H794 0.931 . S
C810 C804 1.383 . S
C810 C809 1.379 . S
H811 C805 0.959 . S
H812 C805 0.961 . S
H813 C805 0.960 . S
H814 C806 0.930 . S
H815 C807 0.929 . S
H816 C824 0.929 . S
H817 C826 0.930 . S
H818 C828 0.930 . S
H819 C831 0.929 . S
H820 C834 0.930 . S
H821 C836 0.960 . S
H822 C836 0.960 . S
H823 C836 0.960 . S
C824 H816 0.929 . S
C824 C825 1.377 . S
C824 C826 1.384 . S
C825 C824 1.377 . S
C825 C831 1.390 . S
C826 H817 0.930 . S
C826 C824 1.384 . S
C826 C827 1.372 . S
C827 C826 1.372 . S
C827 C828 1.400 . S
C827 C832 1.490 . S
C828 H818 0.930 . S
C828 C827 1.400 . S
C828 C831 1.386 . S
H829 C845 0.930 . S
H830 C846 0.931 . S
C831 H819 0.929 . S
C831 C825 1.390 . S
C831 C828 1.386 . S
C832 C827 1.490 . S
C832 C834 1.395 . S
C832 C835 1.403 . S
H833 C839 0.930 . S
C834 H820 0.930 . S
C834 C832 1.395 . S
C834 C837 1.403 . S
C835 C832 1.403 . S
C835 C836 1.524 . S
C835 C839 1.400 . S
C836 H821 0.960 . S
C836 H822 0.960 . S
C836 H823 0.960 . S
C836 C835 1.524 . S
C837 C834 1.403 . S
C837 C838 1.392 . S
C837 C841 1.495 . S
C838 C837 1.392 . S
C838 C839 1.385 . S
C838 C840 1.478 . S
C839 H833 0.930 . S
C839 C835 1.400 . S
C839 C838 1.385 . S
C840 C838 1.478 . S
C840 C842 1.381 . S
C840 C846 1.383 . S
C841 C837 1.495 . S
C841 H847 0.959 . S
C841 H848 0.961 . S
C841 H849 0.960 . S
C842 C840 1.381 . S
C842 C843 1.394 . S
C842 H850 0.930 . S
C843 C842 1.394 . S
C843 C844 1.383 . S
C843 H851 0.929 . S
C844 C843 1.383 . S
C844 C845 1.377 . S
C845 H829 0.930 . S
C845 C844 1.377 . S
C845 C846 1.379 . S
C846 H830 0.931 . S
C846 C840 1.383 . S
C846 C845 1.379 . S
H847 C841 0.959 . S
H848 C841 0.961 . S
H849 C841 0.960 . S
H850 C842 0.930 . S
H851 C843 0.929 . S
H852 C860 0.929 . S
H853 C862 0.930 . S
H854 C864 0.930 . S
H855 C867 0.929 . S
H856 C870 0.930 . S
H857 C872 0.960 . S
H858 C872 0.960 . S
H859 C872 0.960 . S
C860 H852 0.929 . S
C860 C861 1.377 . S
C860 C862 1.384 . S
C861 C860 1.377 . S
C861 C867 1.390 . S
C862 H853 0.930 . S
C862 C860 1.384 . S
C862 C863 1.372 . S
C863 C862 1.372 . S
C863 C864 1.400 . S
C863 C868 1.490 . S
C864 H854 0.930 . S
C864 C863 1.400 . S
C864 C867 1.386 . S
H865 C881 0.930 . S
H866 C882 0.931 . S
C867 H855 0.929 . S
C867 C861 1.390 . S
C867 C864 1.386 . S
C868 C863 1.490 . S
C868 C870 1.395 . S
C868 C871 1.403 . S
H869 C875 0.930 . S
C870 H856 0.930 . S
C870 C868 1.395 . S
C870 C873 1.403 . S
C871 C868 1.403 . S
C871 C872 1.524 . S
C871 C875 1.400 . S
C872 H857 0.960 . S
C872 H858 0.960 . S
C872 H859 0.960 . S
C872 C871 1.524 . S
C873 C870 1.403 . S
C873 C874 1.392 . S
C873 C877 1.495 . S
C874 C873 1.392 . S
C874 C875 1.385 . S
C874 C876 1.478 . S
C875 H869 0.930 . S
C875 C871 1.400 . S
C875 C874 1.385 . S
C876 C874 1.478 . S
C876 C878 1.381 . S
C876 C882 1.383 . S
C877 C873 1.495 . S
C877 H883 0.959 . S
C877 H884 0.961 . S
C877 H885 0.960 . S
C878 C876 1.381 . S
C878 C879 1.394 . S
C878 H886 0.930 . S
C879 C878 1.394 . S
C879 C880 1.383 . S
C879 H887 0.929 . S
C880 C879 1.383 . S
C880 C881 1.377 . S
C881 H865 0.930 . S
C881 C880 1.377 . S
C881 C882 1.379 . S
C882 H866 0.931 . S
C882 C876 1.383 . S
C882 C881 1.379 . S
H883 C877 0.959 . S
H884 C877 0.961 . S
H885 C877 0.960 . S
H886 C878 0.930 . S
H887 C879 0.929 . S
H888 C896 0.929 . S
H889 C898 0.930 . S
H890 C900 0.930 . S
H891 C903 0.929 . S
H892 C906 0.930 . S
H893 C908 0.960 . S
H894 C908 0.960 . S
H895 C908 0.960 . S
C896 H888 0.929 . S
C896 C897 1.377 . S
C896 C898 1.384 . S
C897 C896 1.377 . S
C897 C903 1.390 . S
C898 H889 0.930 . S
C898 C896 1.384 . S
C898 C899 1.372 . S
C899 C898 1.372 . S
C899 C900 1.400 . S
C899 C904 1.490 . S
C900 H890 0.930 . S
C900 C899 1.400 . S
C900 C903 1.386 . S
H901 C917 0.930 . S
H902 C918 0.931 . S
C903 H891 0.929 . S
C903 C897 1.390 . S
C903 C900 1.386 . S
C904 C899 1.490 . S
C904 C906 1.395 . S
C904 C907 1.403 . S
H905 C911 0.930 . S
C906 H892 0.930 . S
C906 C904 1.395 . S
C906 C909 1.403 . S
C907 C904 1.403 . S
C907 C908 1.524 . S
C907 C911 1.400 . S
C908 H893 0.960 . S
C908 H894 0.960 . S
C908 H895 0.960 . S
C908 C907 1.524 . S
C909 C906 1.403 . S
C909 C910 1.392 . S
C909 C913 1.495 . S
C910 C909 1.392 . S
C910 C911 1.385 . S
C910 C912 1.478 . S
C911 H905 0.930 . S
C911 C907 1.400 . S
C911 C910 1.385 . S
C912 C910 1.478 . S
C912 C914 1.381 . S
C912 C918 1.383 . S
C913 C909 1.495 . S
C913 H919 0.959 . S
C913 H920 0.961 . S
C913 H921 0.960 . S
C914 C912 1.381 . S
C914 C915 1.394 . S
C914 H922 0.930 . S
C915 C914 1.394 . S
C915 C916 1.383 . S
C915 H923 0.929 . S
C916 C915 1.383 . S
C916 C917 1.377 . S
C917 H901 0.930 . S
C917 C916 1.377 . S
C917 C918 1.379 . S
C918 H902 0.931 . S
C918 C912 1.383 . S
C918 C917 1.379 . S
H919 C913 0.959 . S
H920 C913 0.961 . S
H921 C913 0.960 . S
H922 C914 0.930 . S
H923 C915 0.929 . S
H924 C932 0.929 . S
H925 C934 0.930 . S
H926 C936 0.930 . S
H927 C939 0.929 . S
H928 C942 0.930 . S
H929 C944 0.960 . S
H930 C944 0.960 . S
H931 C944 0.960 . S
C932 H924 0.929 . S
C932 C933 1.377 . S
C932 C934 1.384 . S
C933 C932 1.377 . S
C933 C939 1.390 . S
C934 H925 0.930 . S
C934 C932 1.384 . S
C934 C935 1.372 . S
C935 C934 1.372 . S
C935 C936 1.400 . S
C935 C940 1.490 . S
C936 H926 0.930 . S
C936 C935 1.400 . S
C936 C939 1.386 . S
H937 C953 0.930 . S
H938 C954 0.931 . S
C939 H927 0.929 . S
C939 C933 1.390 . S
C939 C936 1.386 . S
C940 C935 1.490 . S
C940 C942 1.395 . S
C940 C943 1.403 . S
H941 C947 0.930 . S
C942 H928 0.930 . S
C942 C940 1.395 . S
C942 C945 1.403 . S
C943 C940 1.403 . S
C943 C944 1.524 . S
C943 C947 1.400 . S
C944 H929 0.960 . S
C944 H930 0.960 . S
C944 H931 0.960 . S
C944 C943 1.524 . S
C945 C942 1.403 . S
C945 C946 1.392 . S
C945 C949 1.495 . S
C946 C945 1.392 . S
C946 C947 1.385 . S
C946 C948 1.478 . S
C947 H941 0.930 . S
C947 C943 1.400 . S
C947 C946 1.385 . S
C948 C946 1.478 . S
C948 C950 1.381 . S
C948 C954 1.383 . S
C949 C945 1.495 . S
C949 H955 0.959 . S
C949 H956 0.961 . S
C949 H957 0.960 . S
C950 C948 1.381 . S
C950 C951 1.394 . S
C950 H958 0.930 . S
C951 C950 1.394 . S
C951 C952 1.383 . S
C951 H959 0.929 1_556 S
C952 C951 1.383 . S
C952 C953 1.377 . S
C953 H937 0.930 . S
C953 C952 1.377 . S
C953 C954 1.379 . S
C954 H938 0.931 . S
C954 C948 1.383 . S
C954 C953 1.379 . S
H955 C949 0.959 . S
H956 C949 0.961 . S
H957 C949 0.960 . S
H958 C950 0.930 . S
H959 C951 0.929 1_554 S
H960 C968 0.929 . S
H961 C970 0.930 . S
H962 C972 0.930 . S
H963 C975 0.929 . S
H964 C978 0.930 . S
H965 C980 0.960 . S
H966 C980 0.960 . S
H967 C980 0.960 . S
C968 H960 0.929 . S
C968 C969 1.377 . S
C968 C970 1.384 . S
C969 C968 1.377 . S
C969 C975 1.390 . S
C970 H961 0.930 . S
C970 C968 1.384 . S
C970 C971 1.372 . S
C971 C970 1.372 . S
C971 C972 1.400 . S
C971 C976 1.490 . S
C972 H962 0.930 . S
C972 C971 1.400 . S
C972 C975 1.386 . S
H973 C989 0.930 . S
H974 C990 0.931 . S
C975 H963 0.929 . S
C975 C969 1.390 . S
C975 C972 1.386 . S
C976 C971 1.490 . S
C976 C978 1.395 . S
C976 C979 1.403 . S
H977 C983 0.930 . S
C978 H964 0.930 . S
C978 C976 1.395 . S
C978 C981 1.403 . S
C979 C976 1.403 . S
C979 C980 1.524 . S
C979 C983 1.400 . S
C980 H965 0.960 . S
C980 H966 0.960 . S
C980 H967 0.960 . S
C980 C979 1.524 . S
C981 C978 1.403 . S
C981 C982 1.392 . S
C981 C985 1.495 . S
C982 C981 1.392 . S
C982 C983 1.385 . S
C982 C984 1.478 . S
C983 H977 0.930 . S
C983 C979 1.400 . S
C983 C982 1.385 . S
C984 C982 1.478 . S
C984 C986 1.381 . S
C984 C990 1.383 . S
C985 C981 1.495 . S
C985 H991 0.959 . S
C985 H992 0.961 . S
C985 H993 0.960 . S
C986 C984 1.381 . S
C986 C987 1.394 . S
C986 H994 0.930 . S
C987 C986 1.394 . S
C987 C988 1.383 . S
C987 H995 0.929 . S
C988 C987 1.383 . S
C988 C989 1.377 . S
C989 H973 0.930 . S
C989 C988 1.377 . S
C989 C990 1.379 . S
C990 H974 0.931 . S
C990 C984 1.383 . S
C990 C989 1.379 . S
H991 C985 0.959 . S
H992 C985 0.961 . S
H993 C985 0.960 . S
H994 C986 0.930 . S
H995 C987 0.929 . S
H996 C1004 0.929 . S
H997 C1006 0.930 . S
H998 C1008 0.930 . S
H999 C1011 0.929 . S
H1000 C1014 0.930 . S
H1001 C1016 0.960 . S
H1002 C1016 0.960 . S
H1003 C1016 0.960 . S
C1004 H996 0.929 . S
C1004 C1005 1.377 . S
C1004 C1006 1.384 . S
C1005 C1004 1.377 . S
C1005 C1011 1.390 . S
C1006 H997 0.930 . S
C1006 C1004 1.384 . S
C1006 C1007 1.372 . S
C1007 C1006 1.372 . S
C1007 C1008 1.400 . S
C1007 C1012 1.490 . S
C1008 H998 0.930 . S
C1008 C1007 1.400 . S
C1008 C1011 1.386 . S
H1009 C1025 0.930 . S
H1010 C1026 0.931 . S
C1011 H999 0.929 . S
C1011 C1005 1.390 . S
C1011 C1008 1.386 . S
C1012 C1007 1.490 . S
C1012 C1014 1.395 . S
C1012 C1015 1.403 . S
H1013 C1019 0.930 . S
C1014 H1000 0.930 . S
C1014 C1012 1.395 . S
C1014 C1017 1.403 . S
C1015 C1012 1.403 . S
C1015 C1016 1.524 . S
C1015 C1019 1.400 . S
C1016 H1001 0.960 . S
C1016 H1002 0.960 . S
C1016 H1003 0.960 . S
C1016 C1015 1.524 . S
C1017 C1014 1.403 . S
C1017 C1018 1.392 . S
C1017 C1021 1.495 . S
C1018 C1017 1.392 . S
C1018 C1019 1.385 . S
C1018 C1020 1.478 . S
C1019 H1013 0.930 . S
C1019 C1015 1.400 . S
C1019 C1018 1.385 . S
C1020 C1018 1.478 . S
C1020 C1022 1.381 . S
C1020 C1026 1.383 . S
C1021 C1017 1.495 . S
C1021 H1027 0.959 . S
C1021 H1028 0.961 . S
C1021 H1029 0.960 . S
C1022 C1020 1.381 . S
C1022 C1023 1.394 . S
C1022 H1030 0.930 . S
C1023 C1022 1.394 . S
C1023 C1024 1.383 . S
C1023 H1031 0.929 . S
C1024 C1023 1.383 . S
C1024 C1025 1.377 . S
C1025 H1009 0.930 . S
C1025 C1024 1.377 . S
C1025 C1026 1.379 . S
C1026 H1010 0.931 . S
C1026 C1020 1.383 . S
C1026 C1025 1.379 . S
H1027 C1021 0.959 . S
H1028 C1021 0.961 . S
H1029 C1021 0.960 . S
H1030 C1022 0.930 . S
H1031 C1023 0.929 . S
H1032 C1040 0.929 . S
H1033 C1042 0.930 . S
H1034 C1044 0.930 . S
H1035 C1047 0.929 . S
H1036 C1050 0.930 . S
H1037 C1052 0.960 . S
H1038 C1052 0.960 . S
H1039 C1052 0.960 . S
C1040 H1032 0.929 . S
C1040 C1041 1.377 . S
C1040 C1042 1.384 . S
C1041 C1040 1.377 . S
C1041 C1047 1.390 . S
C1042 H1033 0.930 . S
C1042 C1040 1.384 . S
C1042 C1043 1.372 . S
C1043 C1042 1.372 . S
C1043 C1044 1.400 . S
C1043 C1048 1.490 . S
C1044 H1034 0.930 . S
C1044 C1043 1.400 . S
C1044 C1047 1.386 . S
H1045 C1061 0.930 . S
H1046 C1062 0.931 . S
C1047 H1035 0.929 . S
C1047 C1041 1.390 . S
C1047 C1044 1.386 . S
C1048 C1043 1.490 . S
C1048 C1050 1.395 . S
C1048 C1051 1.403 . S
H1049 C1055 0.930 . S
C1050 H1036 0.930 . S
C1050 C1048 1.395 . S
C1050 C1053 1.403 . S
C1051 C1048 1.403 . S
C1051 C1052 1.524 . S
C1051 C1055 1.400 . S
C1052 H1037 0.960 . S
C1052 H1038 0.960 . S
C1052 H1039 0.960 . S
C1052 C1051 1.524 . S
C1053 C1050 1.403 . S
C1053 C1054 1.392 . S
C1053 C1057 1.495 . S
C1054 C1053 1.392 . S
C1054 C1055 1.385 . S
C1054 C1056 1.478 . S
C1055 H1049 0.930 . S
C1055 C1051 1.400 . S
C1055 C1054 1.385 . S
C1056 C1054 1.478 . S
C1056 C1058 1.381 . S
C1056 C1062 1.383 . S
C1057 C1053 1.495 . S
C1057 H1063 0.959 . S
C1057 H1064 0.961 . S
C1057 H1065 0.960 . S
C1058 C1056 1.381 . S
C1058 C1059 1.394 . S
C1058 H1066 0.930 . S
C1059 C1058 1.394 . S
C1059 C1060 1.383 . S
C1059 H1067 0.929 . S
C1060 C1059 1.383 . S
C1060 C1061 1.377 . S
C1061 H1045 0.930 . S
C1061 C1060 1.377 . S
C1061 C1062 1.379 . S
C1062 H1046 0.931 . S
C1062 C1056 1.383 . S
C1062 C1061 1.379 . S
H1063 C1057 0.959 . S
H1064 C1057 0.961 . S
H1065 C1057 0.960 . S
H1066 C1058 0.930 . S
H1067 C1059 0.929 . S
H1068 C1076 0.929 . S
H1069 C1078 0.930 . S
H1070 C1080 0.930 . S
H1071 C1083 0.929 . S
H1072 C1086 0.930 . S
H1073 C1088 0.960 . S
H1074 C1088 0.960 . S
H1075 C1088 0.960 . S
C1076 H1068 0.929 . S
C1076 C1077 1.377 . S
C1076 C1078 1.384 . S
C1077 C1076 1.377 . S
C1077 C1083 1.390 . S
C1078 H1069 0.930 . S
C1078 C1076 1.384 . S
C1078 C1079 1.372 . S
C1079 C1078 1.372 . S
C1079 C1080 1.400 . S
C1079 C1084 1.490 . S
C1080 H1070 0.930 . S
C1080 C1079 1.400 . S
C1080 C1083 1.386 . S
H1081 C1097 0.930 . S
H1082 C1098 0.931 . S
C1083 H1071 0.929 . S
C1083 C1077 1.390 . S
C1083 C1080 1.386 . S
C1084 C1079 1.490 . S
C1084 C1086 1.395 . S
C1084 C1087 1.403 . S
H1085 C1091 0.930 . S
C1086 H1072 0.930 . S
C1086 C1084 1.395 . S
C1086 C1089 1.403 . S
C1087 C1084 1.403 . S
C1087 C1088 1.524 . S
C1087 C1091 1.400 . S
C1088 H1073 0.960 . S
C1088 H1074 0.960 . S
C1088 H1075 0.960 . S
C1088 C1087 1.524 . S
C1089 C1086 1.403 . S
C1089 C1090 1.392 . S
C1089 C1093 1.495 . S
C1090 C1089 1.392 . S
C1090 C1091 1.385 . S
C1090 C1092 1.478 . S
C1091 H1085 0.930 . S
C1091 C1087 1.400 . S
C1091 C1090 1.385 . S
C1092 C1090 1.478 . S
C1092 C1094 1.381 . S
C1092 C1098 1.383 . S
C1093 C1089 1.495 . S
C1093 H1099 0.959 . S
C1093 H1100 0.961 . S
C1093 H1101 0.960 . S
C1094 C1092 1.381 . S
C1094 C1095 1.394 . S
C1094 H1102 0.930 . S
C1095 C1094 1.394 . S
C1095 C1096 1.383 . S
C1095 H1103 0.929 . S
C1096 C1095 1.383 . S
C1096 C1097 1.377 . S
C1097 H1081 0.930 . S
C1097 C1096 1.377 . S
C1097 C1098 1.379 . S
C1098 H1082 0.931 . S
C1098 C1092 1.383 . S
C1098 C1097 1.379 . S
H1099 C1093 0.959 . S
H1100 C1093 0.961 . S
H1101 C1093 0.960 . S
H1102 C1094 0.930 . S
H1103 C1095 0.929 . S
H1104 C1112 0.929 . S
H1105 C1114 0.930 . S
H1106 C1116 0.930 . S
H1107 C1119 0.929 . S
H1108 C1122 0.930 . S
H1109 C1124 0.960 . S
H1110 C1124 0.960 . S
H1111 C1124 0.960 . S
C1112 H1104 0.929 . S
C1112 C1113 1.377 . S
C1112 C1114 1.384 . S
C1113 C1112 1.377 . S
C1113 C1119 1.390 . S
C1114 H1105 0.930 . S
C1114 C1112 1.384 . S
C1114 C1115 1.372 . S
C1115 C1114 1.372 . S
C1115 C1116 1.400 . S
C1115 C1120 1.490 . S
C1116 H1106 0.930 . S
C1116 C1115 1.400 . S
C1116 C1119 1.386 . S
H1117 C1133 0.930 . S
H1118 C1134 0.931 . S
C1119 H1107 0.929 . S
C1119 C1113 1.390 . S
C1119 C1116 1.386 . S
C1120 C1115 1.490 . S
C1120 C1122 1.395 . S
C1120 C1123 1.403 . S
H1121 C1127 0.930 . S
C1122 H1108 0.930 . S
C1122 C1120 1.395 . S
C1122 C1125 1.403 . S
C1123 C1120 1.403 . S
C1123 C1124 1.524 . S
C1123 C1127 1.400 . S
C1124 H1109 0.960 . S
C1124 H1110 0.960 . S
C1124 H1111 0.960 . S
C1124 C1123 1.524 . S
C1125 C1122 1.403 . S
C1125 C1126 1.392 . S
C1125 C1129 1.495 . S
C1126 C1125 1.392 . S
C1126 C1127 1.385 . S
C1126 C1128 1.478 . S
C1127 H1121 0.930 . S
C1127 C1123 1.400 . S
C1127 C1126 1.385 . S
C1128 C1126 1.478 . S
C1128 C1130 1.381 . S
C1128 C1134 1.383 . S
C1129 C1125 1.495 . S
C1129 H1135 0.959 . S
C1129 H1136 0.961 . S
C1129 H1137 0.960 . S
C1130 C1128 1.381 . S
C1130 C1131 1.394 . S
C1130 H1138 0.930 . S
C1131 C1130 1.394 . S
C1131 C1132 1.383 . S
C1131 H1139 0.929 . S
C1132 C1131 1.383 . S
C1132 C1133 1.377 . S
C1133 H1117 0.930 . S
C1133 C1132 1.377 . S
C1133 C1134 1.379 . S
C1134 H1118 0.931 . S
C1134 C1128 1.383 . S
C1134 C1133 1.379 . S
H1135 C1129 0.959 . S
H1136 C1129 0.961 . S
H1137 C1129 0.960 . S
H1138 C1130 0.930 . S
H1139 C1131 0.929 . S
H1140 C1148 0.929 1_554 S
H1141 C1150 0.930 . S
H1142 C1152 0.930 . S
H1143 C1155 0.929 . S
H1144 C1158 0.930 . S
H1145 C1160 0.960 . S
H1146 C1160 0.960 . S
H1147 C1160 0.960 . S
C1148 H1140 0.929 1_556 S
C1148 C1149 1.377 . S
C1148 C1150 1.384 . S
C1149 C1148 1.377 . S
C1149 C1155 1.390 . S
C1150 H1141 0.930 . S
C1150 C1148 1.384 . S
C1150 C1151 1.372 . S
C1151 C1150 1.372 . S
C1151 C1152 1.400 . S
C1151 C1156 1.490 . S
C1152 H1142 0.930 . S
C1152 C1151 1.400 . S
C1152 C1155 1.386 . S
H1153 C1169 0.930 . S
H1154 C1170 0.931 . S
C1155 H1143 0.929 . S
C1155 C1149 1.390 . S
C1155 C1152 1.386 . S
C1156 C1151 1.490 . S
C1156 C1158 1.395 . S
C1156 C1159 1.403 . S
H1157 C1163 0.930 . S
C1158 H1144 0.930 . S
C1158 C1156 1.395 . S
C1158 C1161 1.403 . S
C1159 C1156 1.403 . S
C1159 C1160 1.524 . S
C1159 C1163 1.400 . S
C1160 H1145 0.960 . S
C1160 H1146 0.960 . S
C1160 H1147 0.960 . S
C1160 C1159 1.524 . S
C1161 C1158 1.403 . S
C1161 C1162 1.392 . S
C1161 C1165 1.495 . S
C1162 C1161 1.392 . S
C1162 C1163 1.385 . S
C1162 C1164 1.478 . S
C1163 H1157 0.930 . S
C1163 C1159 1.400 . S
C1163 C1162 1.385 . S
C1164 C1162 1.478 . S
C1164 C1166 1.381 . S
C1164 C1170 1.383 . S
C1165 C1161 1.495 . S
C1165 H1171 0.959 . S
C1165 H1172 0.961 . S
C1165 H1173 0.960 . S
C1166 C1164 1.381 . S
C1166 C1167 1.394 . S
C1166 H1174 0.930 . S
C1167 C1166 1.394 . S
C1167 C1168 1.383 . S
C1167 H1175 0.929 . S
C1168 C1167 1.383 . S
C1168 C1169 1.377 . S
C1169 H1153 0.930 . S
C1169 C1168 1.377 . S
C1169 C1170 1.379 . S
C1170 H1154 0.931 . S
C1170 C1164 1.383 . S
C1170 C1169 1.379 . S
H1171 C1165 0.959 . S
H1172 C1165 0.961 . S
H1173 C1165 0.960 . S
H1174 C1166 0.930 . S
H1175 C1167 0.929 . S
H1176 C1184 0.929 . S
H1177 C1186 0.930 . S
H1178 C1188 0.930 . S
H1179 C1191 0.929 . S
H1180 C1194 0.930 . S
H1181 C1196 0.960 . S
H1182 C1196 0.960 . S
H1183 C1196 0.960 . S
C1184 H1176 0.929 . S
C1184 C1185 1.377 . S
C1184 C1186 1.384 . S
C1185 C1184 1.377 . S
C1185 C1191 1.390 . S
C1186 H1177 0.930 . S
C1186 C1184 1.384 . S
C1186 C1187 1.372 . S
C1187 C1186 1.372 . S
C1187 C1188 1.400 . S
C1187 C1192 1.490 . S
C1188 H1178 0.930 . S
C1188 C1187 1.400 . S
C1188 C1191 1.386 . S
H1189 C1205 0.930 . S
H1190 C1206 0.931 . S
C1191 H1179 0.929 . S
C1191 C1185 1.390 . S
C1191 C1188 1.386 . S
C1192 C1187 1.490 . S
C1192 C1194 1.395 . S
C1192 C1195 1.403 . S
H1193 C1199 0.930 . S
C1194 H1180 0.930 . S
C1194 C1192 1.395 . S
C1194 C1197 1.403 . S
C1195 C1192 1.403 . S
C1195 C1196 1.524 . S
C1195 C1199 1.400 . S
C1196 H1181 0.960 . S
C1196 H1182 0.960 . S
C1196 H1183 0.960 . S
C1196 C1195 1.524 . S
C1197 C1194 1.403 . S
C1197 C1198 1.392 . S
C1197 C1201 1.495 . S
C1198 C1197 1.392 . S
C1198 C1199 1.385 . S
C1198 C1200 1.478 . S
C1199 H1193 0.930 . S
C1199 C1195 1.400 . S
C1199 C1198 1.385 . S
C1200 C1198 1.478 . S
C1200 C1202 1.381 . S
C1200 C1206 1.383 . S
C1201 C1197 1.495 . S
C1201 H1207 0.959 . S
C1201 H1208 0.961 . S
C1201 H1209 0.960 . S
C1202 C1200 1.381 . S
C1202 C1203 1.394 . S
C1202 H1210 0.930 . S
C1203 C1202 1.394 . S
C1203 C1204 1.383 . S
C1203 H1211 0.929 . S
C1204 C1203 1.383 . S
C1204 C1205 1.377 . S
C1205 H1189 0.930 . S
C1205 C1204 1.377 . S
C1205 C1206 1.379 . S
C1206 H1190 0.931 . S
C1206 C1200 1.383 . S
C1206 C1205 1.379 . S
H1207 C1201 0.959 . S
H1208 C1201 0.961 . S
H1209 C1201 0.960 . S
H1210 C1202 0.930 . S
H1211 C1203 0.929 . S
H1212 C1220 0.929 . S
H1213 C1222 0.930 . S
H1214 C1224 0.930 . S
H1215 C1227 0.929 . S
H1216 C1230 0.930 . S
H1217 C1232 0.960 . S
H1218 C1232 0.960 . S
H1219 C1232 0.960 . S
C1220 H1212 0.929 . S
C1220 C1221 1.377 . S
C1220 C1222 1.384 . S
C1221 C1220 1.377 . S
C1221 C1227 1.390 . S
C1222 H1213 0.930 . S
C1222 C1220 1.384 . S
C1222 C1223 1.372 . S
C1223 C1222 1.372 . S
C1223 C1224 1.400 . S
C1223 C1228 1.490 . S
C1224 H1214 0.930 . S
C1224 C1223 1.400 . S
C1224 C1227 1.386 . S
H1225 C1241 0.930 . S
H1226 C1242 0.931 . S
C1227 H1215 0.929 . S
C1227 C1221 1.390 . S
C1227 C1224 1.386 . S
C1228 C1223 1.490 . S
C1228 C1230 1.395 . S
C1228 C1231 1.403 . S
H1229 C1235 0.930 . S
C1230 H1216 0.930 . S
C1230 C1228 1.395 . S
C1230 C1233 1.403 . S
C1231 C1228 1.403 . S
C1231 C1232 1.524 . S
C1231 C1235 1.400 . S
C1232 H1217 0.960 . S
C1232 H1218 0.960 . S
C1232 H1219 0.960 . S
C1232 C1231 1.524 . S
C1233 C1230 1.403 . S
C1233 C1234 1.392 . S
C1233 C1237 1.495 . S
C1234 C1233 1.392 . S
C1234 C1235 1.385 . S
C1234 C1236 1.478 . S
C1235 H1229 0.930 . S
C1235 C1231 1.400 . S
C1235 C1234 1.385 . S
C1236 C1234 1.478 . S
C1236 C1238 1.381 . S
C1236 C1242 1.383 . S
C1237 C1233 1.495 . S
C1237 H1243 0.959 . S
C1237 H1244 0.961 . S
C1237 H1245 0.960 . S
C1238 C1236 1.381 . S
C1238 C1239 1.394 . S
C1238 H1246 0.930 . S
C1239 C1238 1.394 . S
C1239 C1240 1.383 . S
C1239 H1247 0.929 . S
C1240 C1239 1.383 . S
C1240 C1241 1.377 . S
C1241 H1225 0.930 . S
C1241 C1240 1.377 . S
C1241 C1242 1.379 . S
C1242 H1226 0.931 . S
C1242 C1236 1.383 . S
C1242 C1241 1.379 . S
H1243 C1237 0.959 . S
H1244 C1237 0.961 . S
H1245 C1237 0.960 . S
H1246 C1238 0.930 . S
H1247 C1239 0.929 . S
H1248 C1256 0.929 . S
H1249 C1258 0.930 . S
H1250 C1260 0.930 . S
H1251 C1263 0.929 . S
H1252 C1266 0.930 . S
H1253 C1268 0.960 . S
H1254 C1268 0.960 . S
H1255 C1268 0.960 . S
C1256 H1248 0.929 . S
C1256 C1257 1.377 1_445 S
C1256 C1258 1.384 . S
C1257 C1256 1.377 1_665 S
C1257 C1263 1.390 . S
C1258 H1249 0.930 . S
C1258 C1256 1.384 . S
C1258 C1259 1.377 1_545 S
C1259 C1258 1.377 1_565 S
C1259 C1260 1.395 1_455 S
C1259 C1264 1.490 1_565 S
C1260 H1250 0.930 . S
C1260 C1259 1.395 1_655 S
C1260 C1263 1.386 . S
H1261 C1277 0.930 . S
H1262 C1278 0.931 . S
C1263 H1251 0.929 . S
C1263 C1257 1.390 . S
C1263 C1260 1.386 . S
C1264 C1259 1.490 1_545 S
C1264 C1266 1.387 1_455 S
C1264 C1267 1.410 1_545 S
H1265 C1271 0.930 . S
C1266 H1252 0.930 . S
C1266 C1264 1.387 1_655 S
C1266 C1269 1.403 1_556 S
C1267 C1264 1.410 1_565 S
C1267 C1268 1.524 . S
C1267 C1271 1.400 1_556 S
C1268 H1253 0.960 . S
C1268 H1254 0.960 . S
C1268 H1255 0.960 . S
C1268 C1267 1.524 . S
C1269 C1266 1.403 1_554 S
C1269 C1270 1.408 . S
C1269 C1273 1.495 . S
C1270 C1269 1.408 . S
C1270 C1271 1.369 1_645 S
C1270 C1272 1.479 . S
C1271 H1265 0.930 . S
C1271 C1267 1.400 1_554 S
C1271 C1270 1.369 1_465 S
C1272 C1270 1.479 . S
C1272 C1274 1.381 1_655 S
C1272 C1278 1.383 1_545 S
C1273 C1269 1.495 . S
C1273 H1279 0.959 . S
C1273 H1280 0.961 . S
C1273 H1281 0.960 . S
C1274 C1272 1.381 1_455 S
C1274 C1275 1.394 . S
C1274 H1282 0.930 . S
C1275 C1274 1.394 . S
C1275 C1276 1.405 . S
C1275 H1283 0.929 . S
C1276 C1275 1.405 . S
C1276 C1277 1.354 1_445 S
C1277 H1261 0.930 . S
C1277 C1276 1.354 1_665 S
C1277 C1278 1.379 . S
C1278 H1262 0.931 . S
C1278 C1272 1.383 1_565 S
C1278 C1277 1.379 . S
H1279 C1273 0.959 . S
H1280 C1273 0.961 . S
H1281 C1273 0.960 . S
H1282 C1274 0.930 . S
H1283 C1275 0.929 . S
H1284 C1292 0.929 . S
H1285 C1294 0.930 . S
H1286 C1296 0.930 . S
H1287 C1299 0.929 . S
H1288 C1302 0.930 . S
H1289 C1304 0.960 . S
H1290 C1304 0.960 . S
H1291 C1304 0.960 . S
C1292 H1284 0.929 . S
C1292 C1293 1.377 . S
C1292 C1294 1.384 . S
C1293 C1292 1.377 . S
C1293 C1299 1.390 . S
C1294 H1285 0.930 . S
C1294 C1292 1.384 . S
C1294 C1295 1.372 . S
C1295 C1294 1.372 . S
C1295 C1296 1.400 . S
C1295 C1300 1.490 . S
C1296 H1286 0.930 . S
C1296 C1295 1.400 . S
C1296 C1299 1.386 . S
H1297 C1313 0.930 . S
H1298 C1314 0.931 . S
C1299 H1287 0.929 . S
C1299 C1293 1.390 . S
C1299 C1296 1.386 . S
C1300 C1295 1.490 . S
C1300 C1302 1.395 . S
C1300 C1303 1.403 . S
H1301 C1307 0.930 . S
C1302 H1288 0.930 . S
C1302 C1300 1.395 . S
C1302 C1305 1.403 . S
C1303 C1300 1.403 . S
C1303 C1304 1.524 . S
C1303 C1307 1.400 . S
C1304 H1289 0.960 . S
C1304 H1290 0.960 . S
C1304 H1291 0.960 . S
C1304 C1303 1.524 . S
C1305 C1302 1.403 . S
C1305 C1306 1.392 . S
C1305 C1309 1.495 . S
C1306 C1305 1.392 . S
C1306 C1307 1.385 . S
C1306 C1308 1.478 . S
C1307 H1301 0.930 . S
C1307 C1303 1.400 . S
C1307 C1306 1.385 . S
C1308 C1306 1.478 . S
C1308 C1310 1.381 . S
C1308 C1314 1.383 . S
C1309 C1305 1.495 . S
C1309 H1315 0.959 . S
C1309 H1316 0.961 . S
C1309 H1317 0.960 . S
C1310 C1308 1.381 . S
C1310 C1311 1.394 . S
C1310 H1318 0.930 . S
C1311 C1310 1.394 . S
C1311 C1312 1.383 . S
C1311 H1319 0.929 . S
C1312 C1311 1.383 . S
C1312 C1313 1.377 . S
C1313 H1297 0.930 . S
C1313 C1312 1.377 . S
C1313 C1314 1.379 . S
C1314 H1298 0.931 . S
C1314 C1308 1.383 . S
C1314 C1313 1.379 . S
H1315 C1309 0.959 . S
H1316 C1309 0.961 . S
H1317 C1309 0.960 . S
H1318 C1310 0.930 . S
H1319 C1311 0.929 . S
H1320 C1328 0.929 . S
H1321 C1330 0.930 . S
H1322 C1332 0.930 . S
H1323 C1335 0.929 . S
H1324 C1338 0.930 . S
H1325 C1340 0.960 . S
H1326 C1340 0.960 . S
H1327 C1340 0.960 . S
C1328 H1320 0.929 . S
C1328 C1329 1.377 1_545 S
C1328 C1330 1.384 . S
C1329 C1328 1.377 1_565 S
C1329 C1335 1.390 . S
C1330 H1321 0.930 . S
C1330 C1328 1.384 . S
C1330 C1331 1.372 1_545 S
C1331 C1330 1.372 1_565 S
C1331 C1332 1.400 . S
C1331 C1336 1.491 . S
C1332 H1322 0.930 . S
C1332 C1331 1.400 . S
C1332 C1335 1.386 . S
H1333 C1349 0.930 . S
H1334 C1350 0.931 . S
C1335 H1323 0.929 . S
C1335 C1329 1.390 . S
C1335 C1332 1.386 . S
C1336 C1331 1.491 . S
C1336 C1338 1.391 1_565 S
C1336 C1339 1.405 . S
H1337 C1343 0.930 . S
C1338 H1324 0.930 . S
C1338 C1336 1.391 1_545 S
C1338 C1341 1.403 . S
C1339 C1336 1.405 . S
C1339 C1340 1.524 . S
C1339 C1343 1.400 . S
C1340 H1325 0.960 . S
C1340 H1326 0.960 . S
C1340 H1327 0.960 . S
C1340 C1339 1.524 . S
C1341 C1338 1.403 . S
C1341 C1342 1.392 . S
C1341 C1345 1.495 . S
C1342 C1341 1.392 . S
C1342 C1343 1.385 1_545 S
C1342 C1344 1.478 . S
C1343 H1337 0.930 . S
C1343 C1339 1.400 . S
C1343 C1342 1.385 1_565 S
C1344 C1342 1.478 . S
C1344 C1346 1.381 . S
C1344 C1350 1.383 1_545 S
C1345 C1341 1.495 . S
C1345 H1351 0.959 . S
C1345 H1352 0.961 . S
C1345 H1353 0.960 . S
C1346 C1344 1.381 . S
C1346 C1347 1.394 . S
C1346 H1354 0.930 . S
C1347 C1346 1.394 . S
C1347 C1348 1.383 . S
C1347 H1355 0.929 . S
C1348 C1347 1.383 . S
C1348 C1349 1.377 1_545 S
C1349 H1333 0.930 . S
C1349 C1348 1.377 1_565 S
C1349 C1350 1.379 . S
C1350 H1334 0.931 . S
C1350 C1344 1.383 1_565 S
C1350 C1349 1.379 . S
H1351 C1345 0.959 . S
H1352 C1345 0.961 . S
H1353 C1345 0.960 . S
H1354 C1346 0.930 . S
H1355 C1347 0.929 . S
H1356 C1364 0.929 . S
H1357 C1366 0.930 . S
H1358 C1368 0.930 . S
H1359 C1371 0.929 . S
H1360 C1374 0.930 . S
H1361 C1376 0.960 . S
H1362 C1376 0.960 . S
H1363 C1376 0.960 . S
C1364 H1356 0.929 . S
C1364 C1365 1.377 . S
C1364 C1366 1.384 . S
C1365 C1364 1.377 . S
C1365 C1371 1.390 . S
C1366 H1357 0.930 . S
C1366 C1364 1.384 . S
C1366 C1367 1.372 . S
C1367 C1366 1.372 . S
C1367 C1368 1.400 . S
C1367 C1372 1.490 . S
C1368 H1358 0.930 . S
C1368 C1367 1.400 . S
C1368 C1371 1.386 . S
H1369 C1385 0.930 . S
H1370 C1386 0.931 . S
C1371 H1359 0.929 . S
C1371 C1365 1.390 . S
C1371 C1368 1.386 . S
C1372 C1367 1.490 . S
C1372 C1374 1.395 . S
C1372 C1375 1.403 . S
H1373 C1379 0.930 . S
C1374 H1360 0.930 . S
C1374 C1372 1.395 . S
C1374 C1377 1.403 . S
C1375 C1372 1.403 . S
C1375 C1376 1.524 . S
C1375 C1379 1.400 . S
C1376 H1361 0.960 . S
C1376 H1362 0.960 . S
C1376 H1363 0.960 . S
C1376 C1375 1.524 . S
C1377 C1374 1.403 . S
C1377 C1378 1.392 . S
C1377 C1381 1.495 . S
C1378 C1377 1.392 . S
C1378 C1379 1.385 . S
C1378 C1380 1.478 . S
C1379 H1373 0.930 . S
C1379 C1375 1.400 . S
C1379 C1378 1.385 . S
C1380 C1378 1.478 . S
C1380 C1382 1.381 . S
C1380 C1386 1.383 . S
C1381 C1377 1.495 . S
C1381 H1387 0.959 . S
C1381 H1388 0.961 . S
C1381 H1389 0.960 . S
C1382 C1380 1.381 . S
C1382 C1383 1.394 . S
C1382 H1390 0.930 . S
C1383 C1382 1.394 . S
C1383 C1384 1.383 . S
C1383 H1391 0.929 . S
C1384 C1383 1.383 . S
C1384 C1385 1.377 . S
C1385 H1369 0.930 . S
C1385 C1384 1.377 . S
C1385 C1386 1.379 . S
C1386 H1370 0.931 . S
C1386 C1380 1.383 . S
C1386 C1385 1.379 . S
H1387 C1381 0.959 . S
H1388 C1381 0.961 . S
H1389 C1381 0.960 . S
H1390 C1382 0.930 . S
H1391 C1383 0.929 . S
H1392 C1400 0.929 . S
H1393 C1402 0.930 . S
H1394 C1404 0.930 . S
H1395 C1407 0.929 . S
H1396 C1410 0.930 . S
H1397 C1412 0.960 . S
H1398 C1412 0.960 . S
H1399 C1412 0.960 . S
C1400 H1392 0.929 . S
C1400 C1401 1.377 . S
C1400 C1402 1.384 . S
C1401 C1400 1.377 . S
C1401 C1407 1.390 . S
C1402 H1393 0.930 . S
C1402 C1400 1.384 . S
C1402 C1403 1.372 . S
C1403 C1402 1.372 . S
C1403 C1404 1.400 . S
C1403 C1408 1.490 . S
C1404 H1394 0.930 . S
C1404 C1403 1.400 . S
C1404 C1407 1.386 . S
H1405 C1421 0.930 . S
H1406 C1422 0.931 . S
C1407 H1395 0.929 . S
C1407 C1401 1.390 . S
C1407 C1404 1.386 . S
C1408 C1403 1.490 . S
C1408 C1410 1.395 . S
C1408 C1411 1.403 . S
H1409 C1415 0.930 . S
C1410 H1396 0.930 . S
C1410 C1408 1.395 . S
C1410 C1413 1.403 . S
C1411 C1408 1.403 . S
C1411 C1412 1.524 . S
C1411 C1415 1.400 . S
C1412 H1397 0.960 . S
C1412 H1398 0.960 . S
C1412 H1399 0.960 . S
C1412 C1411 1.524 . S
C1413 C1410 1.403 . S
C1413 C1414 1.392 . S
C1413 C1417 1.495 . S
C1414 C1413 1.392 . S
C1414 C1415 1.385 . S
C1414 C1416 1.478 . S
C1415 H1409 0.930 . S
C1415 C1411 1.400 . S
C1415 C1414 1.385 . S
C1416 C1414 1.478 . S
C1416 C1418 1.381 . S
C1416 C1422 1.383 . S
C1417 C1413 1.495 . S
C1417 H1423 0.959 . S
C1417 H1424 0.961 . S
C1417 H1425 0.960 . S
C1418 C1416 1.381 . S
C1418 C1419 1.394 . S
C1418 H1426 0.930 . S
C1419 C1418 1.394 . S
C1419 C1420 1.383 . S
C1419 H1427 0.929 . S
C1420 C1419 1.383 . S
C1420 C1421 1.377 . S
C1421 H1405 0.930 . S
C1421 C1420 1.377 . S
C1421 C1422 1.379 . S
C1422 H1406 0.931 . S
C1422 C1416 1.383 . S
C1422 C1421 1.379 . S
H1423 C1417 0.959 . S
H1424 C1417 0.961 . S
H1425 C1417 0.960 . S
H1426 C1418 0.930 . S
H1427 C1419 0.929 . S
H1428 C1436 0.929 . S
H1429 C1438 0.930 . S
H1430 C1440 0.930 . S
H1431 C1443 0.929 . S
H1432 C1446 0.930 . S
H1433 C1448 0.960 . S
H1434 C1448 0.960 . S
H1435 C1448 0.960 . S
C1436 H1428 0.929 . S
C1436 C1437 1.377 . S
C1436 C1438 1.384 . S
C1437 C1436 1.377 . S
C1437 C1443 1.390 . S
C1438 H1429 0.930 . S
C1438 C1436 1.384 . S
C1438 C1439 1.372 . S
C1439 C1438 1.372 . S
C1439 C1440 1.400 . S
C1439 C1444 1.490 . S
C1440 H1430 0.930 . S
C1440 C1439 1.400 . S
C1440 C1443 1.386 . S
H1441 C1457 0.930 . S
H1442 C1458 0.931 . S
C1443 H1431 0.929 . S
C1443 C1437 1.390 . S
C1443 C1440 1.386 . S
C1444 C1439 1.490 . S
C1444 C1446 1.395 . S
C1444 C1447 1.403 . S
H1445 C1451 0.930 . S
C1446 H1432 0.930 . S
C1446 C1444 1.395 . S
C1446 C1449 1.403 . S
C1447 C1444 1.403 . S
C1447 C1448 1.524 . S
C1447 C1451 1.400 . S
C1448 H1433 0.960 . S
C1448 H1434 0.960 . S
C1448 H1435 0.960 . S
C1448 C1447 1.524 . S
C1449 C1446 1.403 . S
C1449 C1450 1.392 . S
C1449 C1453 1.495 . S
C1450 C1449 1.392 . S
C1450 C1451 1.385 . S
C1450 C1452 1.478 . S
C1451 H1445 0.930 . S
C1451 C1447 1.400 . S
C1451 C1450 1.385 . S
C1452 C1450 1.478 . S
C1452 C1454 1.381 . S
C1452 C1458 1.383 . S
C1453 C1449 1.495 . S
C1453 H1459 0.959 . S
C1453 H1460 0.961 . S
C1453 H1461 0.960 . S
C1454 C1452 1.381 . S
C1454 C1455 1.394 . S
C1454 H1462 0.930 . S
C1455 C1454 1.394 . S
C1455 C1456 1.383 . S
C1455 H1463 0.929 . S
C1456 C1455 1.383 . S
C1456 C1457 1.377 . S
C1457 H1441 0.930 . S
C1457 C1456 1.377 . S
C1457 C1458 1.379 . S
C1458 H1442 0.931 . S
C1458 C1452 1.383 . S
C1458 C1457 1.379 . S
H1459 C1453 0.959 . S
H1460 C1453 0.961 . S
H1461 C1453 0.960 . S
H1462 C1454 0.930 . S
H1463 C1455 0.929 . S
H1464 C1472 0.929 . S
H1465 C1474 0.930 . S
H1466 C1476 0.930 . S
H1467 C1479 0.929 . S
H1468 C1482 0.930 . S
H1469 C1484 0.960 . S
H1470 C1484 0.960 . S
H1471 C1484 0.960 . S
C1472 H1464 0.929 . S
C1472 C1473 1.377 . S
C1472 C1474 1.384 . S
C1473 C1472 1.377 . S
C1473 C1479 1.390 . S
C1474 H1465 0.930 . S
C1474 C1472 1.384 . S
C1474 C1475 1.372 . S
C1475 C1474 1.372 . S
C1475 C1476 1.400 . S
C1475 C1480 1.490 . S
C1476 H1466 0.930 . S
C1476 C1475 1.400 . S
C1476 C1479 1.386 . S
H1477 C1493 0.930 . S
H1478 C1494 0.931 . S
C1479 H1467 0.929 . S
C1479 C1473 1.390 . S
C1479 C1476 1.386 . S
C1480 C1475 1.490 . S
C1480 C1482 1.395 . S
C1480 C1483 1.403 . S
H1481 C1487 0.930 . S
C1482 H1468 0.930 . S
C1482 C1480 1.395 . S
C1482 C1485 1.403 . S
C1483 C1480 1.403 . S
C1483 C1484 1.524 . S
C1483 C1487 1.400 . S
C1484 H1469 0.960 . S
C1484 H1470 0.960 . S
C1484 H1471 0.960 . S
C1484 C1483 1.524 . S
C1485 C1482 1.403 . S
C1485 C1486 1.392 . S
C1485 C1489 1.495 . S
C1486 C1485 1.392 . S
C1486 C1487 1.385 . S
C1486 C1488 1.478 . S
C1487 H1481 0.930 . S
C1487 C1483 1.400 . S
C1487 C1486 1.385 . S
C1488 C1486 1.478 . S
C1488 C1490 1.381 . S
C1488 C1494 1.383 . S
C1489 C1485 1.495 . S
C1489 H1495 0.959 . S
C1489 H1496 0.961 . S
C1489 H1497 0.960 . S
C1490 C1488 1.381 . S
C1490 C1491 1.394 . S
C1490 H1498 0.930 . S
C1491 C1490 1.394 . S
C1491 C1492 1.383 . S
C1491 H1499 0.929 . S
C1492 C1491 1.383 . S
C1492 C1493 1.377 . S
C1493 H1477 0.930 . S
C1493 C1492 1.377 . S
C1493 C1494 1.379 . S
C1494 H1478 0.931 . S
C1494 C1488 1.383 . S
C1494 C1493 1.379 . S
H1495 C1489 0.959 . S
H1496 C1489 0.961 . S
H1497 C1489 0.960 . S
H1498 C1490 0.930 . S
H1499 C1491 0.929 . S
H1500 C1508 0.929 . S
H1501 C1510 0.930 . S
H1502 C1512 0.930 . S
H1503 C1515 0.929 . S
H1504 C1518 0.930 . S
H1505 C1520 0.960 . S
H1506 C1520 0.960 . S
H1507 C1520 0.960 . S
C1508 H1500 0.929 . S
C1508 C1509 1.377 . S
C1508 C1510 1.384 . S
C1509 C1508 1.377 . S
C1509 C1515 1.390 1_455 S
C1510 H1501 0.930 . S
C1510 C1508 1.384 . S
C1510 C1511 1.372 . S
C1511 C1510 1.372 . S
C1511 C1512 1.400 1_455 S
C1511 C1516 1.492 . S
C1512 H1502 0.930 . S
C1512 C1511 1.400 1_655 S
C1512 C1515 1.386 . S
H1513 C1529 0.930 . S
H1514 C1530 0.931 . S
C1515 H1503 0.929 . S
C1515 C1509 1.390 1_655 S
C1515 C1512 1.386 . S
C1516 C1511 1.492 . S
C1516 C1518 1.375 1_455 S
C1516 C1519 1.421 . S
H1517 C1523 0.930 . S
C1518 H1504 0.930 . S
C1518 C1516 1.375 1_655 S
C1518 C1521 1.403 1_556 S
C1519 C1516 1.421 . S
C1519 C1520 1.524 . S
C1519 C1523 1.400 1_556 S
C1520 H1505 0.960 . S
C1520 H1506 0.960 . S
C1520 H1507 0.960 . S
C1520 C1519 1.524 . S
C1521 C1518 1.403 1_554 S
C1521 C1522 1.392 . S
C1521 C1525 1.495 . S
C1522 C1521 1.392 . S
C1522 C1523 1.385 1_655 S
C1522 C1524 1.478 . S
C1523 H1517 0.930 . S
C1523 C1519 1.400 1_554 S
C1523 C1522 1.385 1_455 S
C1524 C1522 1.478 . S
C1524 C1526 1.381 1_655 S
C1524 C1530 1.383 . S
C1525 C1521 1.495 . S
C1525 H1531 0.959 . S
C1525 H1532 0.961 . S
C1525 H1533 0.960 . S
C1526 C1524 1.381 1_455 S
C1526 C1527 1.394 . S
C1526 H1534 0.930 . S
C1527 C1526 1.394 . S
C1527 C1528 1.383 1_455 S
C1527 H1535 0.929 . S
C1528 C1527 1.383 1_655 S
C1528 C1529 1.377 . S
C1529 H1513 0.930 . S
C1529 C1528 1.377 . S
C1529 C1530 1.379 . S
C1530 H1514 0.931 . S
C1530 C1524 1.383 . S
C1530 C1529 1.379 . S
H1531 C1525 0.959 . S
H1532 C1525 0.961 . S
H1533 C1525 0.960 . S
H1534 C1526 0.930 . S
H1535 C1527 0.929 . S
C681 C67 1.506 . S
C700 C319 1.507 . S
C717 C68 1.496 . S
C736 C151 1.509 . S
C753 C152 1.485 . S
C772 C235 1.503 . S
C789 C236 1.484 . S
C808 C320 1.464 . S
C825 C55 1.505 . S
C844 C475 1.508 . S
C861 C56 1.499 . S
C880 C391 1.509 . S
C897 C392 1.488 . S
C916 C223 1.499 . S
C933 C476 1.487 . S
C952 C224 1.478 . S
C969 C571 1.507 . S
C988 C487 1.514 . S
C1005 C403 1.507 . S
C1024 C572 1.476 . S
C1041 C655 1.495 . S
C1060 C404 1.479 . S
C1077 C488 1.487 . S
C1096 C656 1.485 . S
C1113 C307 1.504 . S
C1132 C559 1.511 . S
C1149 C560 1.493 . S
C1168 C139 1.492 . S
C1185 C140 1.482 . S
C1204 C643 1.479 . S
C1221 C308 1.488 . S
C1240 C644 1.474 . S
C1257 C58 1.461 . S
C1276 C70 1.510 . S
C1293 C154 1.443 . S
C1312 C142 1.440 . S
C1329 C238 1.450 . S
C1348 C226 1.447 . S
C1365 C310 1.462 . S
C1384 C322 1.472 . S
C1401 C406 1.448 . S
C1420 C394 1.474 . S
C1437 C478 1.460 . S
C1456 C490 1.443 . S
C1473 C574 1.457 . S
C1492 C562 1.494 . S
C1509 C646 1.454 . S
C1528 C658 1.412 . S
