# Generated by pormake.
# Topology sma, (6)-cn, num edge types: 1
# Building blocks:
#     Node 0, Type 0, BuildingBlock: CUWYAW_clean_sbu_0, # of connection points: 6
#     Node 1, Type 0, BuildingBlock: CUWYAW_clean_sbu_0, # of connection points: 6
#     Node 2, Type 0, BuildingBlock: CUWYAW_clean_sbu_0, # of connection points: 6
#     Edge 3, Type (0, 0), BuildingBlock: ZUJKAS_clean_linker_0, # of connection points: 2
#     Edge 4, Type (0, 0), BuildingBlock: ZUJKAS_clean_linker_0, # of connection points: 2
#     Edge 5, Type (0, 0), BuildingBlock: ZUJKAS_clean_linker_0, # of connection points: 2
#     Edge 6, Type (0, 0), BuildingBlock: ZUJKAS_clean_linker_0, # of connection points: 2
#     Edge 7, Type (0, 0), BuildingBlock: ZUJKAS_clean_linker_0, # of connection points: 2
#     Edge 8, Type (0, 0), BuildingBlock: ZUJKAS_clean_linker_0, # of connection points: 2
#     Edge 9, Type (0, 0), BuildingBlock: ZUJKAS_clean_linker_0, # of connection points: 2
#     Edge 10, Type (0, 0), BuildingBlock: ZUJKAS_clean_linker_0, # of connection points: 2
#     Edge 11, Type (0, 0), BuildingBlock: ZUJKAS_clean_linker_0, # of connection points: 2
# Relax obj value: 0.086
# Max RMSD: 0.185
# Mean RMSD: 0.185
data_MOF--net-sma--node1-CUWYAW_clean_sbu_0--edge1-ZUJKAS_clean_linker_0
_symmetry_space_group_name_H-M    P1
_symmetry_Int_Tables_number       1
_symmetry_cell_setting            triclinic
loop_
_symmetry_equiv_pos_as_xyz
'x, y, z'
_cell_length_a     48.082897
_cell_length_b     48.107309
_cell_length_c     18.035474
_cell_angle_alpha  90.180344
_cell_angle_beta   89.444077
_cell_angle_gamma 119.84489
loop_
_atom_site_label
_atom_site_type_symbol
_atom_site_fract_x
_atom_site_fract_y
_atom_site_fract_z
_atom_type_partial_charge
C0 C 0.99954 0.42846 0.07105 0.0
Eu1 Eu 1.02976 0.49041 0.0889 0.0
C2 C 0.96938 0.40098 0.10017 0.0
C3 C 0.97089 0.3804 0.15306 0.0
C4 C 0.9429 0.35523 0.18398 0.0
C5 C 0.91252 0.34969 0.16226 0.0
C6 C 0.91101 0.36995 0.10813 0.0
C7 C 0.93908 0.39531 0.07753 0.0
C8 C 1.0261 0.5152 0.21973 0.0
C9 C 0.99853 0.5339 0.05733 0.0
C10 C 0.10161 0.62368 0.15098 0.0
Eu11 Eu 0.07394 0.56405 0.10784 0.0
C12 C 0.13376 0.65016 0.16871 0.0
C13 C 0.16077 0.64622 0.16583 0.0
C14 C 0.19113 0.67187 0.18328 0.0
C15 C 0.19493 0.70186 0.20367 0.0
C16 C 0.16764 0.70549 0.20642 0.0
C17 C 0.1374 0.67989 0.18909 0.0
C18 C 0.07664 0.54079 -0.02603 0.0
C19 C 0.10751 0.52179 0.10841 0.0
O20 O 0.99731 0.44814 0.02448 0.0
O21 O 1.02231 0.44347 0.11957 0.0
O22 O 1.00171 0.49139 0.18884 0.0
O23 O 1.05134 0.52293 0.18362 0.0
O24 O 0.99682 0.50619 0.04194 0.0
O25 O 1.02393 0.55764 0.09017 0.0
O26 O 0.08935 0.59929 0.19669 0.0
O27 O 0.09632 0.61494 0.08143 0.0
O28 O 0.10095 0.56577 0.0029 0.0
O29 O 1.05199 0.53172 0.0135 0.0
O30 O 0.10949 0.54832 0.13542 0.0
O31 O 0.08065 0.4987 0.0791 0.0
H32 H 0.99386 0.38407 0.1715 0.0
H33 H 0.94517 0.34053 0.22613 0.0
H34 H 0.88811 0.36615 0.08896 0.0
H35 H 0.93697 0.41055 0.03655 0.0
H36 H 0.15837 0.62338 0.15003 0.0
H37 H 0.21165 0.66832 0.1799 0.0
H38 H 0.16955 0.72802 0.22303 0.0
H39 H 0.11676 0.68329 0.19188 0.0
C40 C 0.51085 0.09002 0.35782 0.0
Eu41 Eu 0.53728 0.05846 0.41037 0.0
C42 C 0.51402 0.12106 0.37942 0.0
C43 C 0.48869 0.12706 0.36784 0.0
C44 C 0.49038 0.15521 0.39483 0.0
C45 C 0.51747 0.17789 0.43398 0.0
C46 C 0.543 0.1719 0.44446 0.0
C47 C 0.54123 0.14374 0.41774 0.0
C48 C 0.54075 0.05274 0.55818 0.0
C49 C 0.61285 0.09326 0.4369 0.0
C50 C 0.58944 0.98708 0.54067 0.0
Eu51 Eu 0.56517 1.01559 0.46393 0.0
C52 C 0.58292 0.95477 0.562 0.0
C53 C 0.56924 0.92892 0.51227 0.0
C54 C 0.56588 0.89922 0.53184 0.0
C55 C 0.57607 0.89477 0.60158 0.0
C56 C 0.58884 0.92053 0.65188 0.0
C57 C 0.59227 0.95019 0.63219 0.0
C58 C 0.55896 1.01737 0.3172 0.0
C59 C 0.4926 0.98032 0.40927 0.0
O60 O 0.53622 0.09093 0.32766 0.0
O61 O 0.49705 0.06732 0.40755 0.0
O62 O 0.54643 0.07921 0.52667 0.0
O63 O 0.53284 1.03102 0.51115 0.0
O64 O 0.58937 0.09519 0.40448 0.0
O65 O 0.60825 0.06657 0.46973 0.0
O66 O 0.57103 0.99722 0.56997 0.0
O67 O 0.59645 0.99518 0.47083 0.0
O68 O 0.55621 0.99233 0.35141 0.0
O69 O 0.56752 0.04066 0.36075 0.0
O70 O 0.51302 0.97799 0.45419 0.0
O71 O 0.499 1.00795 0.37839 0.0
H72 H 0.46735 0.10969 0.33909 0.0
H73 H 0.47043 0.15919 0.38517 0.0
H74 H 0.56399 0.18854 0.47529 0.0
H75 H 0.56084 0.13934 0.42852 0.0
H76 H 0.56179 0.93186 0.45774 0.0
H77 H 0.55619 0.88007 0.49144 0.0
H78 H 0.59637 0.91786 0.70652 0.0
H79 H 0.60277 0.96978 0.67147 0.0
C80 C 0.65819 0.57888 0.70246 0.0
Eu81 Eu 0.59725 0.5493 0.73637 0.0
C82 C 0.68656 0.57714 0.72792 0.0
C83 C 0.70997 0.602 0.77111 0.0
C84 C 0.73624 0.60018 0.79792 0.0
C85 C 0.7399 0.57356 0.7816 0.0
C86 C 0.71679 0.54895 0.73724 0.0
C87 C 0.69041 0.55067 0.7108 0.0
C88 C 0.57889 0.52965 0.87745 0.0
C89 C 0.55327 0.4735 0.72203 0.0
C90 C 0.46681 0.49106 0.82992 0.0
Eu91 Eu 0.52433 0.52017 0.77179 0.0
C92 C 0.44075 0.4972 0.85371 0.0
C93 C 0.41132 0.48177 0.81666 0.0
C94 C 0.38557 0.4854 0.84067 0.0
C95 C 0.38849 0.50436 0.90289 0.0
C96 C 0.41817 0.52024 0.93937 0.0
C97 C 0.44401 0.51668 0.91513 0.0
C98 C 0.54184 0.5415 0.6328 0.0
C99 C 0.56635 0.596 0.75678 0.0
O100 O 0.63649 0.55444 0.66508 0.0
O101 O 0.64548 0.58999 0.75024 0.0
O102 O 0.60109 0.52698 0.84276 0.0
O103 O 0.56859 0.54369 0.83726 0.0
O104 O 0.58016 0.49886 0.69978 0.0
O105 O 0.53046 0.47615 0.75801 0.0
O106 O 0.49306 0.5036 0.86923 0.0
O107 O 0.47246 0.49177 0.75859 0.0
O108 O 0.51759 0.54124 0.66591 0.0
O109 O 0.55304 0.52756 0.67095 0.0
O110 O 0.54114 0.57247 0.79106 0.0
O111 O 0.58838 0.59132 0.72315 0.0
H112 H 0.70782 0.62281 0.78469 0.0
H113 H 0.75383 0.61975 0.83107 0.0
H114 H 0.71871 0.52798 0.72419 0.0
H115 H 0.67289 0.53106 0.67763 0.0
H116 H 0.40806 0.46651 0.76939 0.0
H117 H 0.36332 0.47326 0.81034 0.0
H118 H 0.42123 0.53478 -0.01212 0.0
H119 H 0.46633 0.52878 0.94527 0.0
H120 H 0.11272 0.47023 0.06315 0.0
H121 H 0.16172 0.46828 0.0382 0.0
H122 H 0.2185 0.56631 0.1101 0.0
H123 H 0.16957 0.56837 0.13642 0.0
H124 H 0.20798 0.50575 0.9369 0.0
H125 H 0.26164 0.52361 0.21634 0.0
H126 H 0.22037 0.51303 0.20278 0.0
H127 H 0.25198 0.55371 0.18959 0.0
C128 C 0.13558 0.49126 0.0749 0.0
C129 C 0.13712 0.51946 0.10186 0.0
C130 C 0.16361 0.4901 0.06045 0.0
C131 C 0.19383 0.51704 0.0728 0.0
C132 C 0.19549 0.545 0.10152 0.0
H133 H 0.38773 0.55746 0.95785 0.0
H134 H 0.34116 0.5613 0.00028 0.0
C135 C 0.16742 0.54616 0.11629 0.0
C136 C 0.22339 0.51646 0.05027 0.0
H137 H 0.29405 0.52525 0.11424 0.0
C138 C 0.22672 0.50988 -0.02418 0.0
C139 C 0.24798 0.52213 0.10089 0.0
C140 C 0.24531 0.52825 0.18201 0.0
C141 C 0.25392 0.50888 0.95054 0.0
C142 C 0.27832 0.51417 0.00124 0.0
C143 C 0.27529 0.52119 0.0755 0.0
C144 C 0.30673 0.51164 -0.02177 0.0
C145 C 0.25651 0.50258 0.86944 0.0
C146 C 0.30289 0.48231 0.95313 0.0
C147 C 0.3294 0.47997 0.92932 0.0
C148 C 0.36043 0.50692 0.93013 0.0
C149 C 0.36427 0.53616 0.95686 0.0
C150 C 0.33767 0.53845 -0.01911 0.0
H151 H 0.24013 0.50712 0.83501 0.0
H152 H 0.28143 0.51779 0.84856 0.0
H153 H 0.2499 0.47712 0.86216 0.0
H154 H 0.27931 0.46116 0.95203 0.0
H155 H 0.32556 0.45689 0.91084 0.0
H156 H 0.63024 0.15463 0.39808 0.0
H157 H 0.68364 0.19783 0.36358 0.0
H158 H 0.72373 0.13796 0.41858 0.0
H159 H 0.67017 0.09434 0.45323 0.0
H160 H 0.74417 0.2294 0.44454 0.0
H161 H 0.74734 0.16264 0.1949 0.0
H162 H 0.71062 0.15198 0.24477 0.0
H163 H 0.73894 0.14195 0.28231 0.0
C164 C 0.65043 0.1507 0.4039 0.0
C165 C 0.64584 0.12087 0.42795 0.0
C166 C 0.68096 0.17548 0.38416 0.0
C167 C 0.70755 0.17094 0.38738 0.0
C168 C 0.70342 0.1418 0.41477 0.0
H169 H 0.90028 0.28953 0.20297 0.0
H170 H 0.85217 0.24696 0.26296 0.0
C171 C 0.67283 0.11698 0.43511 0.0
C172 C 0.73912 0.19622 0.35839 0.0
H173 H 0.79189 0.21375 0.21415 0.0
C174 C 0.75475 0.22598 0.39441 0.0
C175 C 0.75283 0.19167 0.29296 0.0
C176 C 0.73659 0.16046 0.2509 0.0
C177 C 0.7838 0.25132 0.36688 0.0
C178 C 0.79713 0.24707 0.30028 0.0
C179 C 0.7817 0.21708 0.26501 0.0
C180 C 0.82672 0.27349 0.26545 0.0
C181 C 0.8001 0.28222 0.41011 0.0
C182 C 0.82841 0.30253 0.2458 0.0
C183 C 0.85611 0.32716 0.21235 0.0
C184 C 0.88269 0.3232 0.19675 0.0
C185 C 0.88064 0.29379 0.21529 0.0
C186 C 0.85299 0.26927 0.24918 0.0
H187 H 0.79269 0.27831 0.46944 0.0
H188 H 0.82661 0.29344 0.40674 0.0
H189 H 0.79321 0.29924 0.38686 0.0
H190 H 0.80819 0.30613 0.25592 0.0
H191 H 0.85679 0.34947 0.19959 0.0
H192 H 0.62024 0.88575 0.67694 0.0
H193 H 0.61797 0.83519 0.70722 0.0
H194 H 0.52636 0.78302 0.5999 0.0
H195 H 0.52815 0.83351 0.57016 0.0
H196 H 0.5719 0.78227 0.78998 0.0
H197 H 0.58069 0.74887 0.49917 0.0
H198 H 0.58994 0.78882 0.52517 0.0
H199 H 0.54893 0.75754 0.51658 0.0
C200 C 0.59939 0.86356 0.66042 0.0
C201 C 0.57437 0.86381 0.62097 0.0
C202 C 0.59823 0.83465 0.67749 0.0
C203 C 0.5722 0.80535 0.65507 0.0
C204 C 0.54698 0.80539 0.61654 0.0
H205 H 0.5238 0.61426 0.80764 0.0
H206 H 0.5255 0.66527 0.78624 0.0
C207 C 0.54807 0.83431 0.5995 0.0
C208 C 0.57155 0.77482 0.67216 0.0
H209 H 0.57094 0.71015 0.59162 0.0
C210 C 0.57168 0.76648 0.74667 0.0
C211 C 0.57171 0.75446 0.61557 0.0
C212 C 0.5731 0.7629 0.53459 0.0
C213 C 0.5716 0.73814 0.7661 0.0
C214 C 0.57098 0.7174 0.70949 0.0
C215 C 0.57119 0.72594 0.63499 0.0
C216 C 0.57061 0.68695 0.72599 0.0
C217 C 0.57283 0.73098 0.847 0.0
C218 C 0.59523 0.68199 0.69871 0.0
C219 C 0.59428 0.6528 0.71051 0.0
C220 C 0.56854 0.6278 0.74959 0.0
C221 C 0.5441 0.633 0.77777 0.0
C222 C 0.54508 0.66224 0.76584 0.0
H223 H 0.58146 0.75279 0.8818 0.0
H224 H 0.54837 0.71319 0.8665 0.0
H225 H 0.58873 0.7207 0.85557 0.0
H226 H 0.61513 0.70068 0.66764 0.0
H227 H 0.6135 0.64971 0.68781 0.0
H228 H 0.76472 0.58807 0.92161 0.0
H229 H 0.80965 0.58369 -0.0289 0.0
H230 H 0.82179 0.54864 0.75994 0.0
H231 H 0.77727 0.55349 0.70958 0.0
H232 H 0.81518 0.52771 -0.01994 0.0
H233 H 0.91274 0.62243 0.80894 0.0
H234 H 0.87388 0.61926 0.81969 0.0
H235 H 0.87912 0.59304 0.75717 0.0
C236 C 0.77721 0.57982 0.88538 0.0
C237 C 0.76747 0.57127 0.81149 0.0
C238 C 0.80275 0.57715 0.91391 0.0
C239 C 0.8193 0.5662 0.86898 0.0
C240 C 0.80966 0.5576 0.79528 0.0
H241 H 0.94178 0.49029 -0.00587 0.0
H242 H 0.89851 0.49882 0.95192 0.0
C243 C 0.78401 0.56009 0.7668 0.0
C244 C 0.84604 0.56289 0.89986 0.0
H245 H 0.92609 0.58914 0.87956 0.0
C246 C 0.83946 0.54123 0.95835 0.0
C247 C 0.87778 0.58083 0.87202 0.0
C248 C 0.8865 0.60543 0.81143 0.0
C249 C 0.86361 0.53647 -0.01142 0.0
C250 C 0.89512 0.55362 0.95907 0.0
C251 C 0.90187 0.57585 0.90178 0.0
C252 C 0.92128 0.54844 -0.0139 0.0
C253 C 0.85524 0.5133 0.05226 0.0
C254 C 0.94878 0.57366 0.01832 0.0
C255 C 0.9737 0.5689 0.04252 0.0
C256 C 0.97172 0.53887 0.03429 0.0
C257 C 0.94413 0.5137 0.00175 0.0
C258 C 0.91923 0.51847 -0.02217 0.0
H259 H 0.83268 0.50854 0.08066 0.0
H260 H 0.85184 0.49018 0.03078 0.0
H261 H 0.87481 0.52257 0.09357 0.0
H262 H 0.95091 0.59704 0.02487 0.0
H263 H 0.99461 0.58886 0.06697 0.0
H264 H 0.47212 0.91843 0.45299 0.0
H265 H 0.42309 0.86987 0.41634 0.0
H266 H 0.39542 0.9268 0.28524 0.0
H267 H 0.44449 0.97534 0.32036 0.0
H268 H 0.35961 0.85298 0.43749 0.0
H269 H 0.38788 0.85958 0.13717 0.0
H270 H 0.41761 0.88355 0.2051 0.0
H271 H 0.38975 0.89537 0.17257 0.0
C272 C 0.45565 0.92067 0.41628 0.0
C273 C 0.46239 0.95086 0.38943 0.0
C274 C 0.42762 0.89285 0.39537 0.0
C275 C 0.40586 0.89461 0.34695 0.0
C276 C 0.41222 0.92474 0.3212 0.0
H277 H 0.22023 0.76496 0.16485 0.0
H278 H 0.27174 0.81043 0.20106 0.0
C279 C 0.44024 0.95254 0.34187 0.0
C280 C 0.37615 0.86507 0.32458 0.0
H281 H 0.33427 0.82197 0.17364 0.0
C282 C 0.35418 0.84602 0.37987 0.0
C283 C 0.36912 0.85599 0.24934 0.0
C284 C 0.39246 0.8745 0.18764 0.0
C285 C 0.32492 0.81873 0.36184 0.0
C286 C 0.31767 0.80998 0.28652 0.0
C287 C 0.33983 0.82876 0.23132 0.0
C288 C 0.28675 0.78199 0.26371 0.0
C289 C 0.30157 0.80009 0.4234 0.0
C290 C 0.27828 0.75077 0.28583 0.0
C291 C 0.24871 0.72468 0.26557 0.0
C292 C 0.22706 0.72931 0.22257 0.0
C293 C 0.23604 0.76057 0.19909 0.0
C294 C 0.26558 0.78659 0.2193 0.0
H295 H 0.30744 0.814 0.47582 0.0
H296 H 0.27668 0.79315 0.4076 0.0
H297 H 0.30245 0.77784 0.43413 0.0
H298 H 0.29451 0.7466 0.31901 0.0
H299 H 0.24254 0.70099 0.28491 0.0
H300 H 0.49864 0.41482 0.74035 0.0
H301 H 0.48998 0.36233 0.70023 0.0
H302 H 0.58709 0.40686 0.61683 0.0
H303 H 0.5961 0.45906 0.6571 0.0
H304 H 0.49527 0.3437 0.55495 0.0
H305 H 0.58027 0.33289 0.74147 0.0
H306 H 0.56668 0.3613 0.75753 0.0
H307 H 0.59811 0.37 0.69103 0.0
C308 C 0.51828 0.4134 0.71428 0.0
C309 C 0.5481 0.44124 0.70221 0.0
C310 C 0.51325 0.38338 0.6912 0.0
C311 C 0.53802 0.38059 0.65641 0.0
C312 C 0.56782 0.40829 0.64488 0.0
H313 H 0.56879 0.23904 0.43579 0.0
H314 H 0.57165 0.28684 0.49127 0.0
C315 C 0.57285 0.43822 0.66764 0.0
C316 C 0.53254 0.34911 0.62876 0.0
H317 H 0.56161 0.29729 0.63798 0.0
C318 C 0.50947 0.3333 0.57369 0.0
C319 C 0.55114 0.33562 0.65317 0.0
C320 C 0.57523 0.35064 0.71456 0.0
C321 C 0.5054 0.30506 0.54029 0.0
C322 C 0.52454 0.29197 0.56353 0.0
C323 C 0.54708 0.30741 0.61984 0.0
C324 C 0.52225 0.26278 0.52893 0.0
C325 C 0.4815 0.29018 0.47847 0.0
C326 C 0.49357 0.23325 0.53195 0.0
C327 C 0.49186 0.20582 0.50025 0.0
C328 C 0.5189 0.20729 0.46543 0.0
C329 C 0.5476 0.23694 0.46273 0.0
C330 C 0.54925 0.26433 0.49424 0.0
H331 H 0.47462 0.30723 0.45511 0.0
H332 H 0.4913 0.28185 0.43301 0.0
H333 H 0.45946 0.26913 0.50036 0.0
H334 H 0.47262 0.23127 0.55987 0.0
H335 H 0.46955 0.1833 0.50459 0.0
H336 H 0.12078 0.57253 0.86501 0.0
H337 H 0.10911 0.56759 0.73214 0.0
H338 H 1.01542 0.48625 0.77584 0.0
H339 H 1.0271 0.49061 0.90781 0.0
H340 H 1.04364 0.48223 0.64354 0.0
H341 H 1.04503 0.59786 0.67591 0.0
H342 H 0.08179 0.59931 0.7011 0.0
H343 H 1.04581 0.57482 0.75386 0.0
C344 C 0.0982 0.55297 0.84575 0.0
C345 C 0.07441 0.53246 0.89591 0.0
C346 C 0.09149 0.55036 0.77037 0.0
C347 C 0.06105 0.52732 0.74564 0.0
C348 C 1.03883 0.50446 0.79474 0.0
H349 H 0.97453 0.49564 0.31143 0.0
H350 H 0.97673 0.50285 0.4463 0.0
C351 C 1.04554 0.50697 0.8698 0.0
C352 C 1.05093 0.52897 0.67057 0.0
H353 H 1.03867 0.57714 0.55326 0.0
C354 C 1.04222 0.50276 0.62377 0.0
C355 C 1.04846 0.55562 0.64661 0.0
C356 C 0.05545 0.58339 0.69717 0.0
C357 C 1.03261 0.50321 0.55136 0.0
C358 C 1.03165 0.53051 0.52629 0.0
C359 C 1.03926 0.55626 0.57377 0.0
C360 C 1.0281 0.53446 0.44766 0.0
C361 C 1.02501 0.47521 0.50094 0.0
C362 C 0.05609 0.55131 0.40519 0.0
C363 C 0.05504 0.54674 0.32919 0.0
C364 C 1.02589 0.5257 0.29532 0.0
C365 C 0.9973 0.51174 0.33694 0.0
C366 C 0.99843 0.51601 0.41343 0.0
H367 H 1.02887 0.45676 0.52827 0.0
H368 H 0.99958 0.4638 0.48361 0.0
H369 H 1.04018 0.48365 0.45008 0.0
H370 H 0.07915 0.56542 0.43155 0.0
H371 H 0.07741 0.55751 0.2983 0.0
H372 H 0.51894 0.96457 0.2382 0.0
H373 H 0.5003 0.96324 0.1116 0.0
H374 H 0.55301 0.06665 0.10409 0.0
H375 H 0.5709 0.06812 0.23129 0.0
H376 H 0.49237 0.03825 0.03272 0.0
H377 H 0.56763 0.98495 0.94748 0.0
H378 H 0.5368 0.96305 0.01535 0.0
H379 H 0.57015 1.00154 0.03855 0.0
C380 C 0.52639 0.98695 0.20937 0.0
C381 C 0.54692 1.01646 0.24293 0.0
C382 C 0.51557 0.98615 0.13769 0.0
C383 C 0.52577 1.01483 0.09877 0.0
C384 C 0.54496 0.04432 0.1337 0.0
H385 H 0.55587 0.09555 0.67107 0.0
H386 H 0.54487 0.08292 0.80353 0.0
C387 C 0.55538 0.04514 0.2057 0.0
C388 C 0.52001 1.01445 0.01909 0.0
H389 H 0.54455 0.99966 0.85362 0.0
C390 C 0.50329 1.0294 -0.00676 0.0
C391 C 0.53442 1.00285 -0.03157 0.0
C392 C 0.55346 0.98738 -0.00651 0.0
C393 C 0.50146 1.03399 0.91725 0.0
C394 C 0.51722 1.02378 0.86696 0.0
C395 C 0.53257 1.00747 0.89278 0.0
C396 C 0.52024 1.03145 0.78761 0.0
C397 C 0.48318 0.0501 0.89162 0.0
C398 C 0.51063 1.00671 0.7358 0.0
C399 C 0.51764 1.01387 0.66113 0.0
C400 C 0.53413 0.0459 0.63718 0.0
C401 C 0.54315 0.07072 0.68868 0.0
C402 C 0.53647 0.06352 0.76384 0.0
H403 H 0.46449 0.04703 0.93275 0.0
H404 H 0.50004 0.07617 0.88509 0.0
H405 H 0.47157 0.04045 0.8374 0.0
H406 H 0.49839 0.98187 0.75345 0.0
H407 H 0.51017 0.99427 0.62222 0.0
H408 H 0.60078 0.55968 0.57944 0.0
H409 H 0.61919 0.57317 0.45167 0.0
H410 H 0.53005 0.56879 0.39556 0.0
H411 H 0.51197 0.55606 0.52487 0.0
H412 H 0.57618 0.52132 0.36096 0.0
H413 H 0.59859 0.63904 0.25421 0.0
H414 H 0.60318 0.63219 0.35077 0.0
H415 H 0.56392 0.618 0.31344 0.0
C416 C 0.58566 0.56263 0.54041 0.0
C417 C 0.5548 0.55601 0.56076 0.0
C418 C 0.59631 0.57073 0.46783 0.0
C419 C 0.57592 0.57189 0.41479 0.0
C420 C 0.54625 0.56846 0.43642 0.0
H421 H 0.53737 0.53971 0.95918 0.0
H422 H 0.53954 0.5497 0.09192 0.0
C423 C 0.53579 0.56078 0.50974 0.0
C424 C 0.58149 0.5676 0.33693 0.0
H425 H 0.5888 0.59862 0.1643 0.0
C426 C 0.57952 0.5384 0.31778 0.0
C427 C 0.58546 0.58991 0.28178 0.0
C428 C 0.58818 0.6217 0.30084 0.0
C429 C 0.57979 0.53008 0.24384 0.0
C430 C 0.583 0.55206 0.18824 0.0
C431 C 0.58629 0.58188 0.20756 0.0
C432 C 0.58072 0.5437 0.10957 0.0
C433 C 0.57487 0.49722 0.22612 0.0
C434 C 0.60263 0.53612 0.07661 0.0
C435 C 0.60067 0.52921 0.00122 0.0
C436 C 0.57734 0.53073 0.95807 0.0
C437 C 0.55513 0.53775 -0.00841 0.0
C438 C 0.55667 0.54397 0.06702 0.0
H439 H 0.5649 0.48066 0.27427 0.0
H440 H 0.55843 0.48636 0.17856 0.0
H441 H 0.59828 0.49934 0.2111 0.0
H442 H 0.62168 0.53638 0.10867 0.0
H443 H 0.61836 0.52431 -0.0238 0.0
loop_
_geom_bond_atom_site_label_1
_geom_bond_atom_site_label_2
_geom_bond_distance
_geom_bond_site_symmetry_2
_ccdc_geom_bond_type
C0 Eu1 2.835 . S
C0 C2 1.500 . S
C0 O20 1.257 . S
C0 O21 1.260 . S
Eu1 C0 2.835 . S
Eu1 O20 2.473 . S
Eu1 O21 2.480 . S
Eu1 O22 2.430 . S
Eu1 O23 2.670 1_655 S
Eu1 O24 2.394 . S
Eu1 O29 2.355 . S
Eu1 O31 2.374 1_655 S
C2 C0 1.500 . S
C2 C3 1.377 . S
C2 C7 1.377 . S
C3 C2 1.377 . S
C3 C4 1.395 . S
C3 H32 0.931 . S
C4 C3 1.395 . S
C4 C5 1.383 . S
C4 H33 0.931 . S
C5 C4 1.383 . S
C5 C6 1.394 . S
C6 C5 1.394 . S
C6 C7 1.378 . S
C6 H34 0.931 . S
C7 C2 1.377 . S
C7 C6 1.378 . S
C7 H35 0.931 . S
C8 O22 1.259 1_455 S
C8 O23 1.270 . S
C9 O24 1.251 . S
C9 O25 1.251 . S
C10 Eu11 2.835 . S
C10 C12 1.500 . S
C10 O26 1.257 . S
C10 O27 1.260 . S
Eu11 C10 2.835 . S
Eu11 O23 2.355 . S
Eu11 O25 2.374 1_455 S
Eu11 O26 2.473 . S
Eu11 O27 2.480 . S
Eu11 O28 2.430 . S
Eu11 O29 2.670 1_455 S
Eu11 O30 2.394 . S
C12 C10 1.500 . S
C12 C13 1.377 . S
C12 C17 1.377 . S
C13 C12 1.377 . S
C13 C14 1.395 . S
C13 H36 0.931 . S
C14 C13 1.395 . S
C14 C15 1.383 . S
C14 H37 0.931 . S
C15 C14 1.383 . S
C15 C16 1.394 . S
C16 C15 1.394 . S
C16 C17 1.378 . S
C16 H38 0.931 . S
C17 C12 1.377 . S
C17 C16 1.378 . S
C17 H39 0.931 . S
C18 O28 1.259 . S
C18 O29 1.270 1_455 S
C19 O30 1.251 . S
C19 O31 1.251 . S
O20 C0 1.257 . S
O20 Eu1 2.473 . S
O21 C0 1.260 . S
O21 Eu1 2.480 . S
O22 Eu1 2.430 . S
O22 C8 1.259 1_655 S
O23 Eu1 2.670 1_455 S
O23 C8 1.270 . S
O23 Eu11 2.355 . S
O24 Eu1 2.394 . S
O24 C9 1.251 . S
O25 C9 1.251 . S
O25 Eu11 2.374 1_655 S
O26 C10 1.257 . S
O26 Eu11 2.473 . S
O27 C10 1.260 . S
O27 Eu11 2.480 . S
O28 Eu11 2.430 . S
O28 C18 1.259 . S
O29 Eu1 2.355 . S
O29 Eu11 2.670 1_655 S
O29 C18 1.270 1_655 S
O30 Eu11 2.394 . S
O30 C19 1.251 . S
O31 Eu1 2.374 1_455 S
O31 C19 1.251 . S
H32 C3 0.931 . S
H33 C4 0.931 . S
H34 C6 0.931 . S
H35 C7 0.931 . S
H36 C13 0.931 . S
H37 C14 0.931 . S
H38 C16 0.931 . S
H39 C17 0.931 . S
C40 Eu41 2.835 . S
C40 C42 1.500 . S
C40 O60 1.257 . S
C40 O61 1.260 . S
Eu41 C40 2.835 . S
Eu41 O60 2.473 . S
Eu41 O61 2.480 . S
Eu41 O62 2.430 . S
Eu41 O63 2.670 1_545 S
Eu41 O64 2.394 . S
Eu41 O69 2.355 . S
Eu41 O71 2.374 1_545 S
C42 C40 1.500 . S
C42 C43 1.377 . S
C42 C47 1.377 . S
C43 C42 1.377 . S
C43 C44 1.395 . S
C43 H72 0.931 . S
C44 C43 1.395 . S
C44 C45 1.383 . S
C44 H73 0.931 . S
C45 C44 1.383 . S
C45 C46 1.394 . S
C46 C45 1.394 . S
C46 C47 1.378 . S
C46 H74 0.931 . S
C47 C42 1.377 . S
C47 C46 1.378 . S
C47 H75 0.931 . S
C48 O62 1.282 . S
C48 O63 1.258 1_545 S
C49 O64 1.251 . S
C49 O65 1.251 . S
C50 Eu51 2.835 . S
C50 C52 1.500 . S
C50 O66 1.257 . S
C50 O67 1.260 . S
Eu51 C50 2.835 . S
Eu51 O63 2.355 . S
Eu51 O65 2.374 1_565 S
Eu51 O66 2.473 . S
Eu51 O67 2.480 . S
Eu51 O68 2.430 . S
Eu51 O69 2.670 1_565 S
Eu51 O70 2.394 . S
C52 C50 1.500 . S
C52 C53 1.377 . S
C52 C57 1.377 . S
C53 C52 1.377 . S
C53 C54 1.395 . S
C53 H76 0.931 . S
C54 C53 1.395 . S
C54 C55 1.383 . S
C54 H77 0.931 . S
C55 C54 1.383 . S
C55 C56 1.394 . S
C56 C55 1.394 . S
C56 C57 1.378 . S
C56 H78 0.931 . S
C57 C52 1.377 . S
C57 C56 1.378 . S
C57 H79 0.931 . S
C58 O68 1.257 . S
C58 O69 1.271 1_565 S
C59 O70 1.251 . S
C59 O71 1.251 . S
O60 C40 1.257 . S
O60 Eu41 2.473 . S
O61 C40 1.260 . S
O61 Eu41 2.480 . S
O62 Eu41 2.430 . S
O62 C48 1.282 . S
O63 Eu41 2.670 1_565 S
O63 C48 1.258 1_565 S
O63 Eu51 2.355 . S
O64 Eu41 2.394 . S
O64 C49 1.251 . S
O65 C49 1.251 . S
O65 Eu51 2.374 1_545 S
O66 C50 1.257 . S
O66 Eu51 2.473 . S
O67 C50 1.260 . S
O67 Eu51 2.480 . S
O68 Eu51 2.430 . S
O68 C58 1.257 . S
O69 Eu41 2.355 . S
O69 Eu51 2.670 1_545 S
O69 C58 1.271 1_545 S
O70 Eu51 2.394 . S
O70 C59 1.251 . S
O71 Eu41 2.374 1_565 S
O71 C59 1.251 . S
H72 C43 0.931 . S
H73 C44 0.931 . S
H74 C46 0.931 . S
H75 C47 0.931 . S
H76 C53 0.931 . S
H77 C54 0.931 . S
H78 C56 0.931 . S
H79 C57 0.931 . S
C80 Eu81 2.835 . S
C80 C82 1.500 . S
C80 O100 1.257 . S
C80 O101 1.260 . S
Eu81 C80 2.835 . S
Eu81 O100 2.473 . S
Eu81 O101 2.480 . S
Eu81 O102 2.430 . S
Eu81 O103 2.670 . S
Eu81 O104 2.394 . S
Eu81 O109 2.355 . S
Eu81 O111 2.374 . S
C82 C80 1.500 . S
C82 C83 1.377 . S
C82 C87 1.377 . S
C83 C82 1.377 . S
C83 C84 1.395 . S
C83 H112 0.931 . S
C84 C83 1.395 . S
C84 C85 1.383 . S
C84 H113 0.931 . S
C85 C84 1.383 . S
C85 C86 1.394 . S
C86 C85 1.394 . S
C86 C87 1.378 . S
C86 H114 0.931 . S
C87 C82 1.377 . S
C87 C86 1.378 . S
C87 H115 0.931 . S
C88 O102 1.259 . S
C88 O103 1.270 . S
C89 O104 1.251 . S
C89 O105 1.251 . S
C90 Eu91 2.835 . S
C90 C92 1.500 . S
C90 O106 1.257 . S
C90 O107 1.260 . S
Eu91 C90 2.835 . S
Eu91 O103 2.355 . S
Eu91 O105 2.374 . S
Eu91 O106 2.473 . S
Eu91 O107 2.480 . S
Eu91 O108 2.430 . S
Eu91 O109 2.670 . S
Eu91 O110 2.394 . S
C92 C90 1.500 . S
C92 C93 1.377 . S
C92 C97 1.377 . S
C93 C92 1.377 . S
C93 C94 1.395 . S
C93 H116 0.931 . S
C94 C93 1.395 . S
C94 C95 1.383 . S
C94 H117 0.931 . S
C95 C94 1.383 . S
C95 C96 1.394 . S
C96 C95 1.394 . S
C96 C97 1.378 . S
C96 H118 0.931 . S
C97 C92 1.377 . S
C97 C96 1.378 . S
C97 H119 0.931 . S
C98 O108 1.259 . S
C98 O109 1.270 . S
C99 O110 1.251 . S
C99 O111 1.251 . S
O100 C80 1.257 . S
O100 Eu81 2.473 . S
O101 C80 1.260 . S
O101 Eu81 2.480 . S
O102 Eu81 2.430 . S
O102 C88 1.259 . S
O103 Eu81 2.670 . S
O103 C88 1.270 . S
O103 Eu91 2.355 . S
O104 Eu81 2.394 . S
O104 C89 1.251 . S
O105 C89 1.251 . S
O105 Eu91 2.374 . S
O106 C90 1.257 . S
O106 Eu91 2.473 . S
O107 C90 1.260 . S
O107 Eu91 2.480 . S
O108 Eu91 2.430 . S
O108 C98 1.259 . S
O109 Eu81 2.355 . S
O109 Eu91 2.670 . S
O109 C98 1.270 . S
O110 Eu91 2.394 . S
O110 C99 1.251 . S
O111 Eu81 2.374 . S
O111 C99 1.251 . S
H112 C83 0.931 . S
H113 C84 0.931 . S
H114 C86 0.931 . S
H115 C87 0.931 . S
H116 C93 0.931 . S
H117 C94 0.931 . S
H118 C96 0.931 . S
H119 C97 0.931 . S
H120 C128 0.929 . S
H121 C130 0.930 . S
H122 C132 0.930 . S
H123 C135 0.929 . S
H124 C138 0.930 . S
H125 C140 0.960 . S
H126 C140 0.960 . S
H127 C140 0.960 . S
C128 H120 0.929 . S
C128 C129 1.377 . S
C128 C130 1.384 . S
C129 C128 1.377 . S
C129 C135 1.390 . S
C130 H121 0.930 . S
C130 C128 1.384 . S
C130 C131 1.372 . S
C131 C130 1.372 . S
C131 C132 1.400 . S
C131 C136 1.490 . S
C132 H122 0.930 . S
C132 C131 1.400 . S
C132 C135 1.386 . S
H133 C149 0.930 . S
H134 C150 0.931 . S
C135 H123 0.929 . S
C135 C129 1.390 . S
C135 C132 1.386 . S
C136 C131 1.490 . S
C136 C138 1.395 1_554 S
C136 C139 1.403 . S
H137 C143 0.930 . S
C138 H124 0.930 . S
C138 C136 1.395 1_556 S
C138 C141 1.403 . S
C139 C136 1.403 . S
C139 C140 1.524 . S
C139 C143 1.400 . S
C140 H125 0.960 . S
C140 H126 0.960 . S
C140 H127 0.960 . S
C140 C139 1.524 . S
C141 C138 1.403 . S
C141 C142 1.392 . S
C141 C145 1.495 . S
C142 C141 1.392 . S
C142 C143 1.385 1_556 S
C142 C144 1.478 . S
C143 H137 0.930 . S
C143 C139 1.400 . S
C143 C142 1.385 1_554 S
C144 C142 1.478 . S
C144 C146 1.381 . S
C144 C150 1.383 . S
C145 C141 1.495 . S
C145 H151 0.959 . S
C145 H152 0.961 . S
C145 H153 0.960 . S
C146 C144 1.381 . S
C146 C147 1.394 . S
C146 H154 0.930 . S
C147 C146 1.394 . S
C147 C148 1.383 . S
C147 H155 0.929 . S
C148 C147 1.383 . S
C148 C149 1.377 . S
C149 H133 0.930 . S
C149 C148 1.377 . S
C149 C150 1.379 . S
C150 H134 0.931 . S
C150 C144 1.383 . S
C150 C149 1.379 . S
H151 C145 0.959 . S
H152 C145 0.961 . S
H153 C145 0.960 . S
H154 C146 0.930 . S
H155 C147 0.929 . S
H156 C164 0.929 . S
H157 C166 0.930 . S
H158 C168 0.930 . S
H159 C171 0.929 . S
H160 C174 0.930 . S
H161 C176 0.960 . S
H162 C176 0.960 . S
H163 C176 0.960 . S
C164 H156 0.929 . S
C164 C165 1.377 . S
C164 C166 1.384 . S
C165 C164 1.377 . S
C165 C171 1.390 . S
C166 H157 0.930 . S
C166 C164 1.384 . S
C166 C167 1.372 . S
C167 C166 1.372 . S
C167 C168 1.400 . S
C167 C172 1.490 . S
C168 H158 0.930 . S
C168 C167 1.400 . S
C168 C171 1.386 . S
H169 C185 0.930 . S
H170 C186 0.931 . S
C171 H159 0.929 . S
C171 C165 1.390 . S
C171 C168 1.386 . S
C172 C167 1.490 . S
C172 C174 1.395 . S
C172 C175 1.403 . S
H173 C179 0.930 . S
C174 H160 0.930 . S
C174 C172 1.395 . S
C174 C177 1.403 . S
C175 C172 1.403 . S
C175 C176 1.524 . S
C175 C179 1.400 . S
C176 H161 0.960 . S
C176 H162 0.960 . S
C176 H163 0.960 . S
C176 C175 1.524 . S
C177 C174 1.403 . S
C177 C178 1.392 . S
C177 C181 1.495 . S
C178 C177 1.392 . S
C178 C179 1.385 . S
C178 C180 1.478 . S
C179 H173 0.930 . S
C179 C175 1.400 . S
C179 C178 1.385 . S
C180 C178 1.478 . S
C180 C182 1.381 . S
C180 C186 1.383 . S
C181 C177 1.495 . S
C181 H187 0.959 . S
C181 H188 0.961 . S
C181 H189 0.960 . S
C182 C180 1.381 . S
C182 C183 1.394 . S
C182 H190 0.930 . S
C183 C182 1.394 . S
C183 C184 1.383 . S
C183 H191 0.929 . S
C184 C183 1.383 . S
C184 C185 1.377 . S
C185 H169 0.930 . S
C185 C184 1.377 . S
C185 C186 1.379 . S
C186 H170 0.931 . S
C186 C180 1.383 . S
C186 C185 1.379 . S
H187 C181 0.959 . S
H188 C181 0.961 . S
H189 C181 0.960 . S
H190 C182 0.930 . S
H191 C183 0.929 . S
H192 C200 0.929 . S
H193 C202 0.930 . S
H194 C204 0.930 . S
H195 C207 0.929 . S
H196 C210 0.930 . S
H197 C212 0.960 . S
H198 C212 0.960 . S
H199 C212 0.960 . S
C200 H192 0.929 . S
C200 C201 1.377 . S
C200 C202 1.384 . S
C201 C200 1.377 . S
C201 C207 1.390 . S
C202 H193 0.930 . S
C202 C200 1.384 . S
C202 C203 1.372 . S
C203 C202 1.372 . S
C203 C204 1.400 . S
C203 C208 1.490 . S
C204 H194 0.930 . S
C204 C203 1.400 . S
C204 C207 1.386 . S
H205 C221 0.930 . S
H206 C222 0.931 . S
C207 H195 0.929 . S
C207 C201 1.390 . S
C207 C204 1.386 . S
C208 C203 1.490 . S
C208 C210 1.395 . S
C208 C211 1.403 . S
H209 C215 0.930 . S
C210 H196 0.930 . S
C210 C208 1.395 . S
C210 C213 1.403 . S
C211 C208 1.403 . S
C211 C212 1.524 . S
C211 C215 1.400 . S
C212 H197 0.960 . S
C212 H198 0.960 . S
C212 H199 0.960 . S
C212 C211 1.524 . S
C213 C210 1.403 . S
C213 C214 1.392 . S
C213 C217 1.495 . S
C214 C213 1.392 . S
C214 C215 1.385 . S
C214 C216 1.478 . S
C215 H209 0.930 . S
C215 C211 1.400 . S
C215 C214 1.385 . S
C216 C214 1.478 . S
C216 C218 1.381 . S
C216 C222 1.383 . S
C217 C213 1.495 . S
C217 H223 0.959 . S
C217 H224 0.961 . S
C217 H225 0.960 . S
C218 C216 1.381 . S
C218 C219 1.394 . S
C218 H226 0.930 . S
C219 C218 1.394 . S
C219 C220 1.383 . S
C219 H227 0.929 . S
C220 C219 1.383 . S
C220 C221 1.377 . S
C221 H205 0.930 . S
C221 C220 1.377 . S
C221 C222 1.379 . S
C222 H206 0.931 . S
C222 C216 1.383 . S
C222 C221 1.379 . S
H223 C217 0.959 . S
H224 C217 0.961 . S
H225 C217 0.960 . S
H226 C218 0.930 . S
H227 C219 0.929 . S
H228 C236 0.929 . S
H229 C238 0.930 1_554 S
H230 C240 0.930 . S
H231 C243 0.929 . S
H232 C246 0.930 . S
H233 C248 0.960 . S
H234 C248 0.960 . S
H235 C248 0.960 . S
C236 H228 0.929 . S
C236 C237 1.377 . S
C236 C238 1.384 . S
C237 C236 1.377 . S
C237 C243 1.390 . S
C238 H229 0.930 1_556 S
C238 C236 1.384 . S
C238 C239 1.372 . S
C239 C238 1.372 . S
C239 C240 1.400 . S
C239 C244 1.490 . S
C240 H230 0.930 . S
C240 C239 1.400 . S
C240 C243 1.386 . S
H241 C257 0.930 . S
H242 C258 0.931 1_556 S
C243 H231 0.929 . S
C243 C237 1.390 . S
C243 C240 1.386 . S
C244 C239 1.490 . S
C244 C246 1.395 1_556 S
C244 C247 1.403 . S
H245 C251 0.930 . S
C246 H232 0.930 . S
C246 C244 1.395 1_554 S
C246 C249 1.403 . S
C247 C244 1.403 . S
C247 C248 1.524 . S
C247 C251 1.400 . S
C248 H233 0.960 . S
C248 H234 0.960 . S
C248 H235 0.960 . S
C248 C247 1.524 . S
C249 C246 1.403 . S
C249 C250 1.392 . S
C249 C253 1.495 . S
C250 C249 1.392 . S
C250 C251 1.385 1_554 S
C250 C252 1.478 . S
C251 H245 0.930 . S
C251 C247 1.400 . S
C251 C250 1.385 1_556 S
C252 C250 1.478 . S
C252 C254 1.381 . S
C252 C258 1.383 . S
C253 C249 1.495 . S
C253 H259 0.959 . S
C253 H260 0.961 . S
C253 H261 0.960 . S
C254 C252 1.381 . S
C254 C255 1.394 . S
C254 H262 0.930 . S
C255 C254 1.394 . S
C255 C256 1.383 . S
C255 H263 0.929 . S
C256 C255 1.383 . S
C256 C257 1.377 . S
C257 H241 0.930 . S
C257 C256 1.377 . S
C257 C258 1.379 . S
C258 H242 0.931 1_554 S
C258 C252 1.383 . S
C258 C257 1.379 . S
H259 C253 0.959 . S
H260 C253 0.961 . S
H261 C253 0.960 . S
H262 C254 0.930 . S
H263 C255 0.929 . S
H264 C272 0.929 . S
H265 C274 0.930 . S
H266 C276 0.930 . S
H267 C279 0.929 . S
H268 C282 0.930 . S
H269 C284 0.960 . S
H270 C284 0.960 . S
H271 C284 0.960 . S
C272 H264 0.929 . S
C272 C273 1.377 . S
C272 C274 1.384 . S
C273 C272 1.377 . S
C273 C279 1.390 . S
C274 H265 0.930 . S
C274 C272 1.384 . S
C274 C275 1.372 . S
C275 C274 1.372 . S
C275 C276 1.400 . S
C275 C280 1.490 . S
C276 H266 0.930 . S
C276 C275 1.400 . S
C276 C279 1.386 . S
H277 C293 0.930 . S
H278 C294 0.931 . S
C279 H267 0.929 . S
C279 C273 1.390 . S
C279 C276 1.386 . S
C280 C275 1.490 . S
C280 C282 1.395 . S
C280 C283 1.403 . S
H281 C287 0.930 . S
C282 H268 0.930 . S
C282 C280 1.395 . S
C282 C285 1.403 . S
C283 C280 1.403 . S
C283 C284 1.524 . S
C283 C287 1.400 . S
C284 H269 0.960 . S
C284 H270 0.960 . S
C284 H271 0.960 . S
C284 C283 1.524 . S
C285 C282 1.403 . S
C285 C286 1.392 . S
C285 C289 1.495 . S
C286 C285 1.392 . S
C286 C287 1.385 . S
C286 C288 1.478 . S
C287 H281 0.930 . S
C287 C283 1.400 . S
C287 C286 1.385 . S
C288 C286 1.478 . S
C288 C290 1.381 . S
C288 C294 1.383 . S
C289 C285 1.495 . S
C289 H295 0.959 . S
C289 H296 0.961 . S
C289 H297 0.960 . S
C290 C288 1.381 . S
C290 C291 1.394 . S
C290 H298 0.930 . S
C291 C290 1.394 . S
C291 C292 1.383 . S
C291 H299 0.929 . S
C292 C291 1.383 . S
C292 C293 1.377 . S
C293 H277 0.930 . S
C293 C292 1.377 . S
C293 C294 1.379 . S
C294 H278 0.931 . S
C294 C288 1.383 . S
C294 C293 1.379 . S
H295 C289 0.959 . S
H296 C289 0.961 . S
H297 C289 0.960 . S
H298 C290 0.930 . S
H299 C291 0.929 . S
H300 C308 0.929 . S
H301 C310 0.930 . S
H302 C312 0.930 . S
H303 C315 0.929 . S
H304 C318 0.930 . S
H305 C320 0.960 . S
H306 C320 0.960 . S
H307 C320 0.960 . S
C308 H300 0.929 . S
C308 C309 1.377 . S
C308 C310 1.384 . S
C309 C308 1.377 . S
C309 C315 1.390 . S
C310 H301 0.930 . S
C310 C308 1.384 . S
C310 C311 1.372 . S
C311 C310 1.372 . S
C311 C312 1.400 . S
C311 C316 1.490 . S
C312 H302 0.930 . S
C312 C311 1.400 . S
C312 C315 1.386 . S
H313 C329 0.930 . S
H314 C330 0.931 . S
C315 H303 0.929 . S
C315 C309 1.390 . S
C315 C312 1.386 . S
C316 C311 1.490 . S
C316 C318 1.395 . S
C316 C319 1.403 . S
H317 C323 0.930 . S
C318 H304 0.930 . S
C318 C316 1.395 . S
C318 C321 1.403 . S
C319 C316 1.403 . S
C319 C320 1.524 . S
C319 C323 1.400 . S
C320 H305 0.960 . S
C320 H306 0.960 . S
C320 H307 0.960 . S
C320 C319 1.524 . S
C321 C318 1.403 . S
C321 C322 1.392 . S
C321 C325 1.495 . S
C322 C321 1.392 . S
C322 C323 1.385 . S
C322 C324 1.478 . S
C323 H317 0.930 . S
C323 C319 1.400 . S
C323 C322 1.385 . S
C324 C322 1.478 . S
C324 C326 1.381 . S
C324 C330 1.383 . S
C325 C321 1.495 . S
C325 H331 0.959 . S
C325 H332 0.961 . S
C325 H333 0.960 . S
C326 C324 1.381 . S
C326 C327 1.394 . S
C326 H334 0.930 . S
C327 C326 1.394 . S
C327 C328 1.383 . S
C327 H335 0.929 . S
C328 C327 1.383 . S
C328 C329 1.377 . S
C329 H313 0.930 . S
C329 C328 1.377 . S
C329 C330 1.379 . S
C330 H314 0.931 . S
C330 C324 1.383 . S
C330 C329 1.379 . S
H331 C325 0.959 . S
H332 C325 0.961 . S
H333 C325 0.960 . S
H334 C326 0.930 . S
H335 C327 0.929 . S
H336 C344 0.929 . S
H337 C346 0.930 . S
H338 C348 0.930 . S
H339 C351 0.929 . S
H340 C354 0.930 . S
H341 C356 0.960 . S
H342 C356 0.960 . S
H343 C356 0.960 1_655 S
C344 H336 0.929 . S
C344 C345 1.343 1_456 S
C344 C346 1.384 . S
C345 C344 1.343 1_654 S
C345 C351 1.423 1_554 S
C346 H337 0.930 . S
C346 C344 1.384 . S
C346 C347 1.372 . S
C347 C346 1.372 . S
C347 C348 1.400 1_455 S
C347 C352 1.490 . S
C348 H338 0.930 . S
C348 C347 1.400 1_655 S
C348 C351 1.386 . S
H349 C365 0.930 . S
H350 C366 0.931 . S
C351 H339 0.929 . S
C351 C345 1.423 1_556 S
C351 C348 1.386 . S
C352 C347 1.490 . S
C352 C354 1.395 1_455 S
C352 C355 1.403 . S
H353 C359 0.930 . S
C354 H340 0.930 . S
C354 C352 1.395 1_655 S
C354 C357 1.403 . S
C355 C352 1.403 . S
C355 C356 1.524 . S
C355 C359 1.400 . S
C356 H341 0.960 . S
C356 H342 0.960 . S
C356 H343 0.960 1_455 S
C356 C355 1.524 . S
C357 C354 1.403 . S
C357 C358 1.392 1_655 S
C357 C361 1.495 . S
C358 C357 1.392 1_455 S
C358 C359 1.385 . S
C358 C360 1.478 . S
C359 H353 0.930 . S
C359 C355 1.400 . S
C359 C358 1.385 . S
C360 C358 1.478 . S
C360 C362 1.381 . S
C360 C366 1.383 1_455 S
C361 C357 1.495 . S
C361 H367 0.959 . S
C361 H368 0.961 . S
C361 H369 0.960 1_655 S
C362 C360 1.381 . S
C362 C363 1.394 . S
C362 H370 0.930 . S
C363 C362 1.394 . S
C363 C364 1.383 . S
C363 H371 0.929 . S
C364 C363 1.383 . S
C364 C365 1.377 1_455 S
C365 H349 0.930 . S
C365 C364 1.377 1_655 S
C365 C366 1.379 . S
C366 H350 0.931 . S
C366 C360 1.383 1_655 S
C366 C365 1.379 . S
H367 C361 0.959 . S
H368 C361 0.961 . S
H369 C361 0.960 1_455 S
H370 C362 0.930 . S
H371 C363 0.929 . S
H372 C380 0.916 . S
H373 C382 0.930 . S
H374 C384 0.930 . S
H375 C387 0.929 . S
H376 C390 0.930 . S
H377 C392 0.960 . S
H378 C392 0.960 . S
H379 C392 0.960 . S
C380 H372 0.916 . S
C380 C381 1.391 1_565 S
C380 C382 1.385 . S
C381 C380 1.391 1_545 S
C381 C387 1.390 . S
C382 H373 0.930 . S
C382 C380 1.385 . S
C382 C383 1.372 1_565 S
C383 C382 1.372 1_545 S
C383 C384 1.400 . S
C383 C388 1.490 . S
C384 H374 0.930 . S
C384 C383 1.400 . S
C384 C387 1.386 . S
H385 C401 0.930 . S
H386 C402 0.931 . S
C387 H375 0.929 . S
C387 C381 1.390 . S
C387 C384 1.386 . S
C388 C383 1.490 . S
C388 C390 1.395 . S
C388 C391 1.403 1_545 S
H389 C395 0.930 . S
C390 H376 0.930 . S
C390 C388 1.395 . S
C390 C393 1.403 1_554 S
C391 C388 1.403 1_565 S
C391 C392 1.524 . S
C391 C395 1.400 1_554 S
C392 H377 0.960 . S
C392 H378 0.960 . S
C392 H379 0.960 . S
C392 C391 1.524 . S
C393 C390 1.403 1_556 S
C393 C394 1.392 . S
C393 C397 1.495 . S
C394 C393 1.392 . S
C394 C395 1.385 1_545 S
C394 C396 1.478 . S
C395 H389 0.930 . S
C395 C391 1.400 1_556 S
C395 C394 1.385 1_565 S
C396 C394 1.478 . S
C396 C398 1.381 1_545 S
C396 C402 1.383 . S
C397 C393 1.495 . S
C397 H403 0.959 . S
C397 H404 0.961 . S
C397 H405 0.960 . S
C398 C396 1.381 1_565 S
C398 C399 1.394 . S
C398 H406 0.930 . S
C399 C398 1.394 . S
C399 C400 1.372 . S
C399 H407 0.929 . S
C400 C399 1.372 . S
C400 C401 1.385 1_565 S
C401 H385 0.930 . S
C401 C400 1.385 1_545 S
C401 C402 1.379 . S
C402 H386 0.931 . S
C402 C396 1.383 . S
C402 C401 1.379 . S
H403 C397 0.959 . S
H404 C397 0.961 . S
H405 C397 0.960 . S
H406 C398 0.930 . S
H407 C399 0.929 . S
H408 C416 0.929 . S
H409 C418 0.930 . S
H410 C420 0.930 . S
H411 C423 0.929 . S
H412 C426 0.930 . S
H413 C428 0.960 . S
H414 C428 0.960 . S
H415 C428 0.960 . S
C416 H408 0.929 . S
C416 C417 1.377 . S
C416 C418 1.384 . S
C417 C416 1.377 . S
C417 C423 1.390 . S
C418 H409 0.930 . S
C418 C416 1.384 . S
C418 C419 1.372 . S
C419 C418 1.372 . S
C419 C420 1.400 . S
C419 C424 1.490 . S
C420 H410 0.930 . S
C420 C419 1.400 . S
C420 C423 1.386 . S
H421 C437 0.930 . S
H422 C438 0.931 . S
C423 H411 0.929 . S
C423 C417 1.390 . S
C423 C420 1.386 . S
C424 C419 1.490 . S
C424 C426 1.395 . S
C424 C427 1.403 . S
H425 C431 0.930 . S
C426 H412 0.930 . S
C426 C424 1.395 . S
C426 C429 1.403 . S
C427 C424 1.403 . S
C427 C428 1.524 . S
C427 C431 1.400 . S
C428 H413 0.960 . S
C428 H414 0.960 . S
C428 H415 0.960 . S
C428 C427 1.524 . S
C429 C426 1.403 . S
C429 C430 1.392 . S
C429 C433 1.495 . S
C430 C429 1.392 . S
C430 C431 1.385 . S
C430 C432 1.478 . S
C431 H425 0.930 . S
C431 C427 1.400 . S
C431 C430 1.385 . S
C432 C430 1.478 . S
C432 C434 1.381 . S
C432 C438 1.383 . S
C433 C429 1.495 . S
C433 H439 0.959 . S
C433 H440 0.961 . S
C433 H441 0.960 . S
C434 C432 1.381 . S
C434 C435 1.394 . S
C434 H442 0.930 . S
C435 C434 1.394 . S
C435 C436 1.383 1_554 S
C435 H443 0.929 1_554 S
C436 C435 1.383 1_556 S
C436 C437 1.377 1_556 S
C437 H421 0.930 . S
C437 C436 1.377 1_554 S
C437 C438 1.379 . S
C438 H422 0.931 . S
C438 C432 1.383 . S
C438 C437 1.379 . S
H439 C433 0.959 . S
H440 C433 0.961 . S
H441 C433 0.960 . S
H442 C434 0.930 . S
H443 C435 0.929 1_556 S
C129 C19 1.880 . S
C148 C95 1.945 . S
C165 C49 2.257 . S
C184 C5 2.179 . S
C201 C55 1.941 . S
C220 C99 1.897 . S
C237 C85 2.189 . S
C256 C9 2.262 . S
C273 C59 1.876 . S
C292 C15 1.938 . S
C309 C89 2.260 . S
C328 C45 2.178 . S
C345 C18 0.431 1_655 S
C364 C8 0.334 . S
C381 C58 0.439 1_545 S
C400 C48 0.322 1_565 S
C417 C98 0.454 . S
C436 C88 0.477 . S
