# Generated by pormake.
# Topology kfi, (4)-cn, num edge types: 1
# Building blocks:
#     Node 0, Type 0, BuildingBlock: GALJAG_clean_sbu_0, # of connection points: 4
#     Node 1, Type 0, BuildingBlock: GALJAG_clean_sbu_0, # of connection points: 4
#     Node 2, Type 0, BuildingBlock: GALJAG_clean_sbu_0, # of connection points: 4
#     Node 3, Type 0, BuildingBlock: GALJAG_clean_sbu_0, # of connection points: 4
#     Node 4, Type 0, BuildingBlock: GALJAG_clean_sbu_0, # of connection points: 4
#     Node 5, Type 0, BuildingBlock: GALJAG_clean_sbu_0, # of connection points: 4
#     Node 6, Type 0, BuildingBlock: GALJAG_clean_sbu_0, # of connection points: 4
#     Node 7, Type 0, BuildingBlock: GALJAG_clean_sbu_0, # of connection points: 4
#     Node 8, Type 0, BuildingBlock: GALJAG_clean_sbu_0, # of connection points: 4
#     Node 9, Type 0, BuildingBlock: GALJAG_clean_sbu_0, # of connection points: 4
#     Node 10, Type 0, BuildingBlock: GALJAG_clean_sbu_0, # of connection points: 4
#     Node 11, Type 0, BuildingBlock: GALJAG_clean_sbu_0, # of connection points: 4
#     Node 12, Type 0, BuildingBlock: GALJAG_clean_sbu_0, # of connection points: 4
#     Node 13, Type 0, BuildingBlock: GALJAG_clean_sbu_0, # of connection points: 4
#     Node 14, Type 0, BuildingBlock: GALJAG_clean_sbu_0, # of connection points: 4
#     Node 15, Type 0, BuildingBlock: GALJAG_clean_sbu_0, # of connection points: 4
#     Node 16, Type 0, BuildingBlock: GALJAG_clean_sbu_0, # of connection points: 4
#     Node 17, Type 0, BuildingBlock: GALJAG_clean_sbu_0, # of connection points: 4
#     Node 18, Type 0, BuildingBlock: GALJAG_clean_sbu_0, # of connection points: 4
#     Node 19, Type 0, BuildingBlock: GALJAG_clean_sbu_0, # of connection points: 4
#     Node 20, Type 0, BuildingBlock: GALJAG_clean_sbu_0, # of connection points: 4
#     Node 21, Type 0, BuildingBlock: GALJAG_clean_sbu_0, # of connection points: 4
#     Node 22, Type 0, BuildingBlock: GALJAG_clean_sbu_0, # of connection points: 4
#     Node 23, Type 0, BuildingBlock: GALJAG_clean_sbu_0, # of connection points: 4
#     Node 24, Type 0, BuildingBlock: GALJAG_clean_sbu_0, # of connection points: 4
#     Node 25, Type 0, BuildingBlock: GALJAG_clean_sbu_0, # of connection points: 4
#     Node 26, Type 0, BuildingBlock: GALJAG_clean_sbu_0, # of connection points: 4
#     Node 27, Type 0, BuildingBlock: GALJAG_clean_sbu_0, # of connection points: 4
#     Node 28, Type 0, BuildingBlock: GALJAG_clean_sbu_0, # of connection points: 4
#     Node 29, Type 0, BuildingBlock: GALJAG_clean_sbu_0, # of connection points: 4
#     Node 30, Type 0, BuildingBlock: GALJAG_clean_sbu_0, # of connection points: 4
#     Node 31, Type 0, BuildingBlock: GALJAG_clean_sbu_0, # of connection points: 4
#     Node 32, Type 0, BuildingBlock: GALJAG_clean_sbu_0, # of connection points: 4
#     Node 33, Type 0, BuildingBlock: GALJAG_clean_sbu_0, # of connection points: 4
#     Node 34, Type 0, BuildingBlock: GALJAG_clean_sbu_0, # of connection points: 4
#     Node 35, Type 0, BuildingBlock: GALJAG_clean_sbu_0, # of connection points: 4
#     Node 36, Type 0, BuildingBlock: GALJAG_clean_sbu_0, # of connection points: 4
#     Node 37, Type 0, BuildingBlock: GALJAG_clean_sbu_0, # of connection points: 4
#     Node 38, Type 0, BuildingBlock: GALJAG_clean_sbu_0, # of connection points: 4
#     Node 39, Type 0, BuildingBlock: GALJAG_clean_sbu_0, # of connection points: 4
#     Node 40, Type 0, BuildingBlock: GALJAG_clean_sbu_0, # of connection points: 4
#     Node 41, Type 0, BuildingBlock: GALJAG_clean_sbu_0, # of connection points: 4
#     Node 42, Type 0, BuildingBlock: GALJAG_clean_sbu_0, # of connection points: 4
#     Node 43, Type 0, BuildingBlock: GALJAG_clean_sbu_0, # of connection points: 4
#     Node 44, Type 0, BuildingBlock: GALJAG_clean_sbu_0, # of connection points: 4
#     Node 45, Type 0, BuildingBlock: GALJAG_clean_sbu_0, # of connection points: 4
#     Node 46, Type 0, BuildingBlock: GALJAG_clean_sbu_0, # of connection points: 4
#     Node 47, Type 0, BuildingBlock: GALJAG_clean_sbu_0, # of connection points: 4
#     Node 48, Type 0, BuildingBlock: GALJAG_clean_sbu_0, # of connection points: 4
#     Node 49, Type 0, BuildingBlock: GALJAG_clean_sbu_0, # of connection points: 4
#     Node 50, Type 0, BuildingBlock: GALJAG_clean_sbu_0, # of connection points: 4
#     Node 51, Type 0, BuildingBlock: GALJAG_clean_sbu_0, # of connection points: 4
#     Node 52, Type 0, BuildingBlock: GALJAG_clean_sbu_0, # of connection points: 4
#     Node 53, Type 0, BuildingBlock: GALJAG_clean_sbu_0, # of connection points: 4
#     Node 54, Type 0, BuildingBlock: GALJAG_clean_sbu_0, # of connection points: 4
#     Node 55, Type 0, BuildingBlock: GALJAG_clean_sbu_0, # of connection points: 4
#     Node 56, Type 0, BuildingBlock: GALJAG_clean_sbu_0, # of connection points: 4
#     Node 57, Type 0, BuildingBlock: GALJAG_clean_sbu_0, # of connection points: 4
#     Node 58, Type 0, BuildingBlock: GALJAG_clean_sbu_0, # of connection points: 4
#     Node 59, Type 0, BuildingBlock: GALJAG_clean_sbu_0, # of connection points: 4
#     Node 60, Type 0, BuildingBlock: GALJAG_clean_sbu_0, # of connection points: 4
#     Node 61, Type 0, BuildingBlock: GALJAG_clean_sbu_0, # of connection points: 4
#     Node 62, Type 0, BuildingBlock: GALJAG_clean_sbu_0, # of connection points: 4
#     Node 63, Type 0, BuildingBlock: GALJAG_clean_sbu_0, # of connection points: 4
#     Node 64, Type 0, BuildingBlock: GALJAG_clean_sbu_0, # of connection points: 4
#     Node 65, Type 0, BuildingBlock: GALJAG_clean_sbu_0, # of connection points: 4
#     Node 66, Type 0, BuildingBlock: GALJAG_clean_sbu_0, # of connection points: 4
#     Node 67, Type 0, BuildingBlock: GALJAG_clean_sbu_0, # of connection points: 4
#     Node 68, Type 0, BuildingBlock: GALJAG_clean_sbu_0, # of connection points: 4
#     Node 69, Type 0, BuildingBlock: GALJAG_clean_sbu_0, # of connection points: 4
#     Node 70, Type 0, BuildingBlock: GALJAG_clean_sbu_0, # of connection points: 4
#     Node 71, Type 0, BuildingBlock: GALJAG_clean_sbu_0, # of connection points: 4
#     Node 72, Type 0, BuildingBlock: GALJAG_clean_sbu_0, # of connection points: 4
#     Node 73, Type 0, BuildingBlock: GALJAG_clean_sbu_0, # of connection points: 4
#     Node 74, Type 0, BuildingBlock: GALJAG_clean_sbu_0, # of connection points: 4
#     Node 75, Type 0, BuildingBlock: GALJAG_clean_sbu_0, # of connection points: 4
#     Node 76, Type 0, BuildingBlock: GALJAG_clean_sbu_0, # of connection points: 4
#     Node 77, Type 0, BuildingBlock: GALJAG_clean_sbu_0, # of connection points: 4
#     Node 78, Type 0, BuildingBlock: GALJAG_clean_sbu_0, # of connection points: 4
#     Node 79, Type 0, BuildingBlock: GALJAG_clean_sbu_0, # of connection points: 4
#     Node 80, Type 0, BuildingBlock: GALJAG_clean_sbu_0, # of connection points: 4
#     Node 81, Type 0, BuildingBlock: GALJAG_clean_sbu_0, # of connection points: 4
#     Node 82, Type 0, BuildingBlock: GALJAG_clean_sbu_0, # of connection points: 4
#     Node 83, Type 0, BuildingBlock: GALJAG_clean_sbu_0, # of connection points: 4
#     Node 84, Type 0, BuildingBlock: GALJAG_clean_sbu_0, # of connection points: 4
#     Node 85, Type 0, BuildingBlock: GALJAG_clean_sbu_0, # of connection points: 4
#     Node 86, Type 0, BuildingBlock: GALJAG_clean_sbu_0, # of connection points: 4
#     Node 87, Type 0, BuildingBlock: GALJAG_clean_sbu_0, # of connection points: 4
#     Node 88, Type 0, BuildingBlock: GALJAG_clean_sbu_0, # of connection points: 4
#     Node 89, Type 0, BuildingBlock: GALJAG_clean_sbu_0, # of connection points: 4
#     Node 90, Type 0, BuildingBlock: GALJAG_clean_sbu_0, # of connection points: 4
#     Node 91, Type 0, BuildingBlock: GALJAG_clean_sbu_0, # of connection points: 4
#     Node 92, Type 0, BuildingBlock: GALJAG_clean_sbu_0, # of connection points: 4
#     Node 93, Type 0, BuildingBlock: GALJAG_clean_sbu_0, # of connection points: 4
#     Node 94, Type 0, BuildingBlock: GALJAG_clean_sbu_0, # of connection points: 4
#     Node 95, Type 0, BuildingBlock: GALJAG_clean_sbu_0, # of connection points: 4
#     Edge 96, Type (0, 0), BuildingBlock: AJUNOK_clean_linker_0, # of connection points: 2
#     Edge 97, Type (0, 0), BuildingBlock: AJUNOK_clean_linker_0, # of connection points: 2
#     Edge 98, Type (0, 0), BuildingBlock: AJUNOK_clean_linker_0, # of connection points: 2
#     Edge 99, Type (0, 0), BuildingBlock: AJUNOK_clean_linker_0, # of connection points: 2
#     Edge 100, Type (0, 0), BuildingBlock: AJUNOK_clean_linker_0, # of connection points: 2
#     Edge 101, Type (0, 0), BuildingBlock: AJUNOK_clean_linker_0, # of connection points: 2
#     Edge 102, Type (0, 0), BuildingBlock: AJUNOK_clean_linker_0, # of connection points: 2
#     Edge 103, Type (0, 0), BuildingBlock: AJUNOK_clean_linker_0, # of connection points: 2
#     Edge 104, Type (0, 0), BuildingBlock: AJUNOK_clean_linker_0, # of connection points: 2
#     Edge 105, Type (0, 0), BuildingBlock: AJUNOK_clean_linker_0, # of connection points: 2
#     Edge 106, Type (0, 0), BuildingBlock: AJUNOK_clean_linker_0, # of connection points: 2
#     Edge 107, Type (0, 0), BuildingBlock: AJUNOK_clean_linker_0, # of connection points: 2
#     Edge 108, Type (0, 0), BuildingBlock: AJUNOK_clean_linker_0, # of connection points: 2
#     Edge 109, Type (0, 0), BuildingBlock: AJUNOK_clean_linker_0, # of connection points: 2
#     Edge 110, Type (0, 0), BuildingBlock: AJUNOK_clean_linker_0, # of connection points: 2
#     Edge 111, Type (0, 0), BuildingBlock: AJUNOK_clean_linker_0, # of connection points: 2
#     Edge 112, Type (0, 0), BuildingBlock: AJUNOK_clean_linker_0, # of connection points: 2
#     Edge 113, Type (0, 0), BuildingBlock: AJUNOK_clean_linker_0, # of connection points: 2
#     Edge 114, Type (0, 0), BuildingBlock: AJUNOK_clean_linker_0, # of connection points: 2
#     Edge 115, Type (0, 0), BuildingBlock: AJUNOK_clean_linker_0, # of connection points: 2
#     Edge 116, Type (0, 0), BuildingBlock: AJUNOK_clean_linker_0, # of connection points: 2
#     Edge 117, Type (0, 0), BuildingBlock: AJUNOK_clean_linker_0, # of connection points: 2
#     Edge 118, Type (0, 0), BuildingBlock: AJUNOK_clean_linker_0, # of connection points: 2
#     Edge 119, Type (0, 0), BuildingBlock: AJUNOK_clean_linker_0, # of connection points: 2
#     Edge 120, Type (0, 0), BuildingBlock: AJUNOK_clean_linker_0, # of connection points: 2
#     Edge 121, Type (0, 0), BuildingBlock: AJUNOK_clean_linker_0, # of connection points: 2
#     Edge 122, Type (0, 0), BuildingBlock: AJUNOK_clean_linker_0, # of connection points: 2
#     Edge 123, Type (0, 0), BuildingBlock: AJUNOK_clean_linker_0, # of connection points: 2
#     Edge 124, Type (0, 0), BuildingBlock: AJUNOK_clean_linker_0, # of connection points: 2
#     Edge 125, Type (0, 0), BuildingBlock: AJUNOK_clean_linker_0, # of connection points: 2
#     Edge 126, Type (0, 0), BuildingBlock: AJUNOK_clean_linker_0, # of connection points: 2
#     Edge 127, Type (0, 0), BuildingBlock: AJUNOK_clean_linker_0, # of connection points: 2
#     Edge 128, Type (0, 0), BuildingBlock: AJUNOK_clean_linker_0, # of connection points: 2
#     Edge 129, Type (0, 0), BuildingBlock: AJUNOK_clean_linker_0, # of connection points: 2
#     Edge 130, Type (0, 0), BuildingBlock: AJUNOK_clean_linker_0, # of connection points: 2
#     Edge 131, Type (0, 0), BuildingBlock: AJUNOK_clean_linker_0, # of connection points: 2
#     Edge 132, Type (0, 0), BuildingBlock: AJUNOK_clean_linker_0, # of connection points: 2
#     Edge 133, Type (0, 0), BuildingBlock: AJUNOK_clean_linker_0, # of connection points: 2
#     Edge 134, Type (0, 0), BuildingBlock: AJUNOK_clean_linker_0, # of connection points: 2
#     Edge 135, Type (0, 0), BuildingBlock: AJUNOK_clean_linker_0, # of connection points: 2
#     Edge 136, Type (0, 0), BuildingBlock: AJUNOK_clean_linker_0, # of connection points: 2
#     Edge 137, Type (0, 0), BuildingBlock: AJUNOK_clean_linker_0, # of connection points: 2
#     Edge 138, Type (0, 0), BuildingBlock: AJUNOK_clean_linker_0, # of connection points: 2
#     Edge 139, Type (0, 0), BuildingBlock: AJUNOK_clean_linker_0, # of connection points: 2
#     Edge 140, Type (0, 0), BuildingBlock: AJUNOK_clean_linker_0, # of connection points: 2
#     Edge 141, Type (0, 0), BuildingBlock: AJUNOK_clean_linker_0, # of connection points: 2
#     Edge 142, Type (0, 0), BuildingBlock: AJUNOK_clean_linker_0, # of connection points: 2
#     Edge 143, Type (0, 0), BuildingBlock: AJUNOK_clean_linker_0, # of connection points: 2
#     Edge 144, Type (0, 0), BuildingBlock: AJUNOK_clean_linker_0, # of connection points: 2
#     Edge 145, Type (0, 0), BuildingBlock: AJUNOK_clean_linker_0, # of connection points: 2
#     Edge 146, Type (0, 0), BuildingBlock: AJUNOK_clean_linker_0, # of connection points: 2
#     Edge 147, Type (0, 0), BuildingBlock: AJUNOK_clean_linker_0, # of connection points: 2
#     Edge 148, Type (0, 0), BuildingBlock: AJUNOK_clean_linker_0, # of connection points: 2
#     Edge 149, Type (0, 0), BuildingBlock: AJUNOK_clean_linker_0, # of connection points: 2
#     Edge 150, Type (0, 0), BuildingBlock: AJUNOK_clean_linker_0, # of connection points: 2
#     Edge 151, Type (0, 0), BuildingBlock: AJUNOK_clean_linker_0, # of connection points: 2
#     Edge 152, Type (0, 0), BuildingBlock: AJUNOK_clean_linker_0, # of connection points: 2
#     Edge 153, Type (0, 0), BuildingBlock: AJUNOK_clean_linker_0, # of connection points: 2
#     Edge 154, Type (0, 0), BuildingBlock: AJUNOK_clean_linker_0, # of connection points: 2
#     Edge 155, Type (0, 0), BuildingBlock: AJUNOK_clean_linker_0, # of connection points: 2
#     Edge 156, Type (0, 0), BuildingBlock: AJUNOK_clean_linker_0, # of connection points: 2
#     Edge 157, Type (0, 0), BuildingBlock: AJUNOK_clean_linker_0, # of connection points: 2
#     Edge 158, Type (0, 0), BuildingBlock: AJUNOK_clean_linker_0, # of connection points: 2
#     Edge 159, Type (0, 0), BuildingBlock: AJUNOK_clean_linker_0, # of connection points: 2
#     Edge 160, Type (0, 0), BuildingBlock: AJUNOK_clean_linker_0, # of connection points: 2
#     Edge 161, Type (0, 0), BuildingBlock: AJUNOK_clean_linker_0, # of connection points: 2
#     Edge 162, Type (0, 0), BuildingBlock: AJUNOK_clean_linker_0, # of connection points: 2
#     Edge 163, Type (0, 0), BuildingBlock: AJUNOK_clean_linker_0, # of connection points: 2
#     Edge 164, Type (0, 0), BuildingBlock: AJUNOK_clean_linker_0, # of connection points: 2
#     Edge 165, Type (0, 0), BuildingBlock: AJUNOK_clean_linker_0, # of connection points: 2
#     Edge 166, Type (0, 0), BuildingBlock: AJUNOK_clean_linker_0, # of connection points: 2
#     Edge 167, Type (0, 0), BuildingBlock: AJUNOK_clean_linker_0, # of connection points: 2
#     Edge 168, Type (0, 0), BuildingBlock: AJUNOK_clean_linker_0, # of connection points: 2
#     Edge 169, Type (0, 0), BuildingBlock: AJUNOK_clean_linker_0, # of connection points: 2
#     Edge 170, Type (0, 0), BuildingBlock: AJUNOK_clean_linker_0, # of connection points: 2
#     Edge 171, Type (0, 0), BuildingBlock: AJUNOK_clean_linker_0, # of connection points: 2
#     Edge 172, Type (0, 0), BuildingBlock: AJUNOK_clean_linker_0, # of connection points: 2
#     Edge 173, Type (0, 0), BuildingBlock: AJUNOK_clean_linker_0, # of connection points: 2
#     Edge 174, Type (0, 0), BuildingBlock: AJUNOK_clean_linker_0, # of connection points: 2
#     Edge 175, Type (0, 0), BuildingBlock: AJUNOK_clean_linker_0, # of connection points: 2
#     Edge 176, Type (0, 0), BuildingBlock: AJUNOK_clean_linker_0, # of connection points: 2
#     Edge 177, Type (0, 0), BuildingBlock: AJUNOK_clean_linker_0, # of connection points: 2
#     Edge 178, Type (0, 0), BuildingBlock: AJUNOK_clean_linker_0, # of connection points: 2
#     Edge 179, Type (0, 0), BuildingBlock: AJUNOK_clean_linker_0, # of connection points: 2
#     Edge 180, Type (0, 0), BuildingBlock: AJUNOK_clean_linker_0, # of connection points: 2
#     Edge 181, Type (0, 0), BuildingBlock: AJUNOK_clean_linker_0, # of connection points: 2
#     Edge 182, Type (0, 0), BuildingBlock: AJUNOK_clean_linker_0, # of connection points: 2
#     Edge 183, Type (0, 0), BuildingBlock: AJUNOK_clean_linker_0, # of connection points: 2
#     Edge 184, Type (0, 0), BuildingBlock: AJUNOK_clean_linker_0, # of connection points: 2
#     Edge 185, Type (0, 0), BuildingBlock: AJUNOK_clean_linker_0, # of connection points: 2
#     Edge 186, Type (0, 0), BuildingBlock: AJUNOK_clean_linker_0, # of connection points: 2
#     Edge 187, Type (0, 0), BuildingBlock: AJUNOK_clean_linker_0, # of connection points: 2
#     Edge 188, Type (0, 0), BuildingBlock: AJUNOK_clean_linker_0, # of connection points: 2
#     Edge 189, Type (0, 0), BuildingBlock: AJUNOK_clean_linker_0, # of connection points: 2
#     Edge 190, Type (0, 0), BuildingBlock: AJUNOK_clean_linker_0, # of connection points: 2
#     Edge 191, Type (0, 0), BuildingBlock: AJUNOK_clean_linker_0, # of connection points: 2
#     Edge 192, Type (0, 0), BuildingBlock: AJUNOK_clean_linker_0, # of connection points: 2
#     Edge 193, Type (0, 0), BuildingBlock: AJUNOK_clean_linker_0, # of connection points: 2
#     Edge 194, Type (0, 0), BuildingBlock: AJUNOK_clean_linker_0, # of connection points: 2
#     Edge 195, Type (0, 0), BuildingBlock: AJUNOK_clean_linker_0, # of connection points: 2
#     Edge 196, Type (0, 0), BuildingBlock: AJUNOK_clean_linker_0, # of connection points: 2
#     Edge 197, Type (0, 0), BuildingBlock: AJUNOK_clean_linker_0, # of connection points: 2
#     Edge 198, Type (0, 0), BuildingBlock: AJUNOK_clean_linker_0, # of connection points: 2
#     Edge 199, Type (0, 0), BuildingBlock: AJUNOK_clean_linker_0, # of connection points: 2
#     Edge 200, Type (0, 0), BuildingBlock: AJUNOK_clean_linker_0, # of connection points: 2
#     Edge 201, Type (0, 0), BuildingBlock: AJUNOK_clean_linker_0, # of connection points: 2
#     Edge 202, Type (0, 0), BuildingBlock: AJUNOK_clean_linker_0, # of connection points: 2
#     Edge 203, Type (0, 0), BuildingBlock: AJUNOK_clean_linker_0, # of connection points: 2
#     Edge 204, Type (0, 0), BuildingBlock: AJUNOK_clean_linker_0, # of connection points: 2
#     Edge 205, Type (0, 0), BuildingBlock: AJUNOK_clean_linker_0, # of connection points: 2
#     Edge 206, Type (0, 0), BuildingBlock: AJUNOK_clean_linker_0, # of connection points: 2
#     Edge 207, Type (0, 0), BuildingBlock: AJUNOK_clean_linker_0, # of connection points: 2
#     Edge 208, Type (0, 0), BuildingBlock: AJUNOK_clean_linker_0, # of connection points: 2
#     Edge 209, Type (0, 0), BuildingBlock: AJUNOK_clean_linker_0, # of connection points: 2
#     Edge 210, Type (0, 0), BuildingBlock: AJUNOK_clean_linker_0, # of connection points: 2
#     Edge 211, Type (0, 0), BuildingBlock: AJUNOK_clean_linker_0, # of connection points: 2
#     Edge 212, Type (0, 0), BuildingBlock: AJUNOK_clean_linker_0, # of connection points: 2
#     Edge 213, Type (0, 0), BuildingBlock: AJUNOK_clean_linker_0, # of connection points: 2
#     Edge 214, Type (0, 0), BuildingBlock: AJUNOK_clean_linker_0, # of connection points: 2
#     Edge 215, Type (0, 0), BuildingBlock: AJUNOK_clean_linker_0, # of connection points: 2
#     Edge 216, Type (0, 0), BuildingBlock: AJUNOK_clean_linker_0, # of connection points: 2
#     Edge 217, Type (0, 0), BuildingBlock: AJUNOK_clean_linker_0, # of connection points: 2
#     Edge 218, Type (0, 0), BuildingBlock: AJUNOK_clean_linker_0, # of connection points: 2
#     Edge 219, Type (0, 0), BuildingBlock: AJUNOK_clean_linker_0, # of connection points: 2
#     Edge 220, Type (0, 0), BuildingBlock: AJUNOK_clean_linker_0, # of connection points: 2
#     Edge 221, Type (0, 0), BuildingBlock: AJUNOK_clean_linker_0, # of connection points: 2
#     Edge 222, Type (0, 0), BuildingBlock: AJUNOK_clean_linker_0, # of connection points: 2
#     Edge 223, Type (0, 0), BuildingBlock: AJUNOK_clean_linker_0, # of connection points: 2
#     Edge 224, Type (0, 0), BuildingBlock: AJUNOK_clean_linker_0, # of connection points: 2
#     Edge 225, Type (0, 0), BuildingBlock: AJUNOK_clean_linker_0, # of connection points: 2
#     Edge 226, Type (0, 0), BuildingBlock: AJUNOK_clean_linker_0, # of connection points: 2
#     Edge 227, Type (0, 0), BuildingBlock: AJUNOK_clean_linker_0, # of connection points: 2
#     Edge 228, Type (0, 0), BuildingBlock: AJUNOK_clean_linker_0, # of connection points: 2
#     Edge 229, Type (0, 0), BuildingBlock: AJUNOK_clean_linker_0, # of connection points: 2
#     Edge 230, Type (0, 0), BuildingBlock: AJUNOK_clean_linker_0, # of connection points: 2
#     Edge 231, Type (0, 0), BuildingBlock: AJUNOK_clean_linker_0, # of connection points: 2
#     Edge 232, Type (0, 0), BuildingBlock: AJUNOK_clean_linker_0, # of connection points: 2
#     Edge 233, Type (0, 0), BuildingBlock: AJUNOK_clean_linker_0, # of connection points: 2
#     Edge 234, Type (0, 0), BuildingBlock: AJUNOK_clean_linker_0, # of connection points: 2
#     Edge 235, Type (0, 0), BuildingBlock: AJUNOK_clean_linker_0, # of connection points: 2
#     Edge 236, Type (0, 0), BuildingBlock: AJUNOK_clean_linker_0, # of connection points: 2
#     Edge 237, Type (0, 0), BuildingBlock: AJUNOK_clean_linker_0, # of connection points: 2
#     Edge 238, Type (0, 0), BuildingBlock: AJUNOK_clean_linker_0, # of connection points: 2
#     Edge 239, Type (0, 0), BuildingBlock: AJUNOK_clean_linker_0, # of connection points: 2
#     Edge 240, Type (0, 0), BuildingBlock: AJUNOK_clean_linker_0, # of connection points: 2
#     Edge 241, Type (0, 0), BuildingBlock: AJUNOK_clean_linker_0, # of connection points: 2
#     Edge 242, Type (0, 0), BuildingBlock: AJUNOK_clean_linker_0, # of connection points: 2
#     Edge 243, Type (0, 0), BuildingBlock: AJUNOK_clean_linker_0, # of connection points: 2
#     Edge 244, Type (0, 0), BuildingBlock: AJUNOK_clean_linker_0, # of connection points: 2
#     Edge 245, Type (0, 0), BuildingBlock: AJUNOK_clean_linker_0, # of connection points: 2
#     Edge 246, Type (0, 0), BuildingBlock: AJUNOK_clean_linker_0, # of connection points: 2
#     Edge 247, Type (0, 0), BuildingBlock: AJUNOK_clean_linker_0, # of connection points: 2
#     Edge 248, Type (0, 0), BuildingBlock: AJUNOK_clean_linker_0, # of connection points: 2
#     Edge 249, Type (0, 0), BuildingBlock: AJUNOK_clean_linker_0, # of connection points: 2
#     Edge 250, Type (0, 0), BuildingBlock: AJUNOK_clean_linker_0, # of connection points: 2
#     Edge 251, Type (0, 0), BuildingBlock: AJUNOK_clean_linker_0, # of connection points: 2
#     Edge 252, Type (0, 0), BuildingBlock: AJUNOK_clean_linker_0, # of connection points: 2
#     Edge 253, Type (0, 0), BuildingBlock: AJUNOK_clean_linker_0, # of connection points: 2
#     Edge 254, Type (0, 0), BuildingBlock: AJUNOK_clean_linker_0, # of connection points: 2
#     Edge 255, Type (0, 0), BuildingBlock: AJUNOK_clean_linker_0, # of connection points: 2
#     Edge 256, Type (0, 0), BuildingBlock: AJUNOK_clean_linker_0, # of connection points: 2
#     Edge 257, Type (0, 0), BuildingBlock: AJUNOK_clean_linker_0, # of connection points: 2
#     Edge 258, Type (0, 0), BuildingBlock: AJUNOK_clean_linker_0, # of connection points: 2
#     Edge 259, Type (0, 0), BuildingBlock: AJUNOK_clean_linker_0, # of connection points: 2
#     Edge 260, Type (0, 0), BuildingBlock: AJUNOK_clean_linker_0, # of connection points: 2
#     Edge 261, Type (0, 0), BuildingBlock: AJUNOK_clean_linker_0, # of connection points: 2
#     Edge 262, Type (0, 0), BuildingBlock: AJUNOK_clean_linker_0, # of connection points: 2
#     Edge 263, Type (0, 0), BuildingBlock: AJUNOK_clean_linker_0, # of connection points: 2
#     Edge 264, Type (0, 0), BuildingBlock: AJUNOK_clean_linker_0, # of connection points: 2
#     Edge 265, Type (0, 0), BuildingBlock: AJUNOK_clean_linker_0, # of connection points: 2
#     Edge 266, Type (0, 0), BuildingBlock: AJUNOK_clean_linker_0, # of connection points: 2
#     Edge 267, Type (0, 0), BuildingBlock: AJUNOK_clean_linker_0, # of connection points: 2
#     Edge 268, Type (0, 0), BuildingBlock: AJUNOK_clean_linker_0, # of connection points: 2
#     Edge 269, Type (0, 0), BuildingBlock: AJUNOK_clean_linker_0, # of connection points: 2
#     Edge 270, Type (0, 0), BuildingBlock: AJUNOK_clean_linker_0, # of connection points: 2
#     Edge 271, Type (0, 0), BuildingBlock: AJUNOK_clean_linker_0, # of connection points: 2
#     Edge 272, Type (0, 0), BuildingBlock: AJUNOK_clean_linker_0, # of connection points: 2
#     Edge 273, Type (0, 0), BuildingBlock: AJUNOK_clean_linker_0, # of connection points: 2
#     Edge 274, Type (0, 0), BuildingBlock: AJUNOK_clean_linker_0, # of connection points: 2
#     Edge 275, Type (0, 0), BuildingBlock: AJUNOK_clean_linker_0, # of connection points: 2
#     Edge 276, Type (0, 0), BuildingBlock: AJUNOK_clean_linker_0, # of connection points: 2
#     Edge 277, Type (0, 0), BuildingBlock: AJUNOK_clean_linker_0, # of connection points: 2
#     Edge 278, Type (0, 0), BuildingBlock: AJUNOK_clean_linker_0, # of connection points: 2
#     Edge 279, Type (0, 0), BuildingBlock: AJUNOK_clean_linker_0, # of connection points: 2
#     Edge 280, Type (0, 0), BuildingBlock: AJUNOK_clean_linker_0, # of connection points: 2
#     Edge 281, Type (0, 0), BuildingBlock: AJUNOK_clean_linker_0, # of connection points: 2
#     Edge 282, Type (0, 0), BuildingBlock: AJUNOK_clean_linker_0, # of connection points: 2
#     Edge 283, Type (0, 0), BuildingBlock: AJUNOK_clean_linker_0, # of connection points: 2
#     Edge 284, Type (0, 0), BuildingBlock: AJUNOK_clean_linker_0, # of connection points: 2
#     Edge 285, Type (0, 0), BuildingBlock: AJUNOK_clean_linker_0, # of connection points: 2
#     Edge 286, Type (0, 0), BuildingBlock: AJUNOK_clean_linker_0, # of connection points: 2
#     Edge 287, Type (0, 0), BuildingBlock: AJUNOK_clean_linker_0, # of connection points: 2
# Relax obj value: 0.145
# Max RMSD: 0.099
# Mean RMSD: 0.099
data_MOF--net-kfi--node1-GALJAG_clean_sbu_0--edge1-AJUNOK_clean_linker_0
_symmetry_space_group_name_H-M    P1
_symmetry_Int_Tables_number       1
_symmetry_cell_setting            triclinic
loop_
_symmetry_equiv_pos_as_xyz
'x, y, z'
_cell_length_a     66.370494
_cell_length_b     66.365703
_cell_length_c     66.362961
_cell_angle_alpha  89.998803
_cell_angle_beta   89.999213
_cell_angle_gamma 89.995002
loop_
_atom_site_label
_atom_site_type_symbol
_atom_site_fract_x
_atom_site_fract_y
_atom_site_fract_z
_atom_type_partial_charge
In0 In 0.08369 0.20119 0.32005 0.0
O1 O 0.10039 0.17656 0.30287 0.0
O2 O 0.09781 0.1732 0.33452 0.0
C3 C 0.07958 0.22848 0.29007 0.0
C4 C 0.10754 0.22365 0.34425 0.0
C5 C 0.0447 0.19077 0.32609 0.0
O6 O 0.08877 0.21199 0.28767 0.0
O7 O 0.07235 0.23097 0.30746 0.0
O8 O 0.05523 0.19931 0.33943 0.0
O9 O 0.05411 0.18684 0.31006 0.0
C10 C 0.10466 0.16621 0.31822 0.0
O11 O 0.09041 0.21749 0.34982 0.0
O12 O 0.11253 0.21821 0.32676 0.0
In13 In 0.80018 0.08483 0.32004 0.0
O14 O 0.785 0.09046 0.35054 0.0
O15 O 0.78197 0.11284 0.32794 0.0
C16 C 0.8106 0.0457 0.3255 0.0
C17 C 0.83469 0.10663 0.31804 0.0
C18 C 0.77365 0.08103 0.28933 0.0
O19 O 0.80167 0.05595 0.33877 0.0
O20 O 0.81489 0.05542 0.30975 0.0
O21 O 0.79069 0.0892 0.28726 0.0
O22 O 0.77008 0.07467 0.30688 0.0
C23 C 0.77767 0.1073 0.3456 0.0
O24 O 0.82339 0.10359 0.30311 0.0
O25 O 0.82886 0.09823 0.33406 0.0
In26 In 0.91773 0.80134 0.31865 0.0
O27 O 0.90072 0.82608 0.30205 0.0
O28 O 0.90367 0.8291 0.3337 0.0
C29 C 0.92095 0.77501 0.28771 0.0
C30 C 0.89438 0.7787 0.34322 0.0
C31 C 0.95681 0.81176 0.32429 0.0
O32 O 0.91195 0.79167 0.28611 0.0
O33 O 0.92853 0.7718 0.30484 0.0
O34 O 0.94683 0.80199 0.33718 0.0
O35 O 0.94687 0.8168 0.30892 0.0
C36 C 0.89659 0.83624 0.31755 0.0
O37 O 0.91155 0.78498 0.34852 0.0
O38 O 0.88911 0.78407 0.32578 0.0
In39 In 0.20145 0.91767 0.31913 0.0
O40 O 0.2187 0.91219 0.34865 0.0
O41 O 0.21667 0.88827 0.32752 0.0
C42 C 0.19125 0.95696 0.32339 0.0
C43 C 0.16635 0.89693 0.31899 0.0
C44 C 0.22819 0.92007 0.28847 0.0
O45 O 0.20031 0.9472 0.33697 0.0
O46 O 0.1868 0.94668 0.30804 0.0
O47 O 0.21098 0.91224 0.28644 0.0
O48 O 0.23174 0.92682 0.30587 0.0
C49 C 0.22321 0.8942 0.34433 0.0
O50 O 0.17709 0.89924 0.30348 0.0
O51 O 0.17299 0.90571 0.3345 0.0
In52 In 0.08541 0.79973 0.68199 0.0
O53 O 0.0913 0.78248 0.65256 0.0
O54 O 0.11466 0.78374 0.67434 0.0
C55 C 0.04623 0.80985 0.67666 0.0
C56 C 0.10582 0.83507 0.68322 0.0
C57 C 0.08253 0.77305 0.71266 0.0
O58 O 0.05663 0.80161 0.66304 0.0
O59 O 0.05582 0.81359 0.69262 0.0
O60 O 0.09148 0.78974 0.71439 0.0
O61 O 0.07494 0.76995 0.69552 0.0
C62 C 0.10901 0.77739 0.65736 0.0
O63 O 0.10197 0.82473 0.69868 0.0
O64 O 0.09885 0.82786 0.66706 0.0
In65 In 0.20128 0.08517 0.68125 0.0
O66 O 0.17701 0.10277 0.69794 0.0
O67 O 0.17356 0.09957 0.66638 0.0
C68 C 0.22728 0.08205 0.71245 0.0
C69 C 0.22418 0.10722 0.65567 0.0
C70 C 0.19084 0.04596 0.67643 0.0
O71 O 0.21109 0.09193 0.71353 0.0
O72 O 0.23025 0.07365 0.69566 0.0
O73 O 0.20129 0.05548 0.66373 0.0
O74 O 0.18505 0.05645 0.69116 0.0
C75 C 0.16671 0.10689 0.68255 0.0
O76 O 0.21587 0.09092 0.65046 0.0
O77 O 0.22066 0.11243 0.6736 0.0
In78 In 0.91818 0.20196 0.68166 0.0
O79 O 0.90146 0.17709 0.69851 0.0
O80 O 0.90363 0.17444 0.66677 0.0
C81 C 0.92308 0.22832 0.7123 0.0
C82 C 0.89468 0.22545 0.65804 0.0
C83 C 0.95704 0.19147 0.67512 0.0
O84 O 0.9127 0.21247 0.71405 0.0
O85 O 0.93107 0.23066 0.69523 0.0
O86 O 0.94664 0.20091 0.6623 0.0
O87 O 0.94757 0.18667 0.69088 0.0
C88 C 0.89693 0.16712 0.68299 0.0
O89 O 0.91101 0.21791 0.6518 0.0
O90 O 0.89024 0.22081 0.67591 0.0
In91 In 0.80172 0.91788 0.68083 0.0
O92 O 0.78475 0.91188 0.65128 0.0
O93 O 0.78593 0.88858 0.67313 0.0
C94 C 0.81198 0.95701 0.67553 0.0
C95 C 0.83673 0.89696 0.68218 0.0
C96 C 0.77403 0.92139 0.7105 0.0
O97 O 0.80424 0.94647 0.66173 0.0
O98 O 0.81517 0.94758 0.69172 0.0
O99 O 0.79112 0.91356 0.71344 0.0
O100 O 0.77119 0.92762 0.69279 0.0
C101 C 0.77961 0.8942 0.65613 0.0
O102 O 0.82566 0.8996 0.69741 0.0
O103 O 0.83044 0.90545 0.66637 0.0
In104 In 0.32294 0.08399 0.20102 0.0
O105 O 0.30722 0.10172 0.17612 0.0
O106 O 0.33872 0.09742 0.1734 0.0
C107 C 0.29126 0.08132 0.2265 0.0
C108 C 0.34788 0.10651 0.22408 0.0
C109 C 0.328 0.04465 0.1913 0.0
O110 O 0.29032 0.09055 0.20991 0.0
O111 O 0.3081 0.07327 0.23007 0.0
O112 O 0.34047 0.05433 0.20187 0.0
O113 O 0.31335 0.05502 0.18508 0.0
C114 C 0.32298 0.10518 0.1661 0.0
O115 O 0.35323 0.0899 0.21652 0.0
O116 O 0.33016 0.11177 0.21974 0.0
In117 In 0.91805 0.32234 0.2017 0.0
O118 O 0.89994 0.3051 0.17814 0.0
O119 O 0.90275 0.33664 0.17418 0.0
C120 C 0.92289 0.29215 0.22857 0.0
C121 C 0.89563 0.34648 0.22565 0.0
C122 C 0.95697 0.32763 0.19054 0.0
O123 O 0.91322 0.28988 0.21232 0.0
O124 O 0.93038 0.30945 0.23092 0.0
O125 O 0.94739 0.34049 0.20075 0.0
O126 O 0.94666 0.31256 0.18535 0.0
C127 C 0.89547 0.32032 0.16769 0.0
O128 O 0.91061 0.3531 0.21592 0.0
O129 O 0.89178 0.32814 0.22266 0.0
In130 In 0.67959 0.91743 0.20149 0.0
O131 O 0.69592 0.89949 0.17707 0.0
O132 O 0.66458 0.90441 0.17333 0.0
C133 C 0.70986 0.92192 0.22837 0.0
C134 C 0.65591 0.89314 0.22404 0.0
C135 C 0.67325 0.95653 0.19166 0.0
O136 O 0.71248 0.91371 0.2114 0.0
O137 O 0.69214 0.92798 0.2315 0.0
O138 O 0.66033 0.946 0.2008 0.0
O139 O 0.68901 0.94707 0.1868 0.0
C140 C 0.6804 0.89631 0.16656 0.0
O141 O 0.65002 0.91018 0.21791 0.0
O142 O 0.67347 0.88845 0.21854 0.0
In143 In 0.08291 0.6813 0.20155 0.0
O144 O 0.10076 0.69738 0.17692 0.0
O145 O 0.09685 0.66581 0.17409 0.0
C146 C 0.07821 0.71227 0.22754 0.0
C147 C 0.10611 0.65758 0.22523 0.0
C148 C 0.04394 0.6755 0.19101 0.0
O149 O 0.0884 0.71388 0.21155 0.0
O150 O 0.07029 0.6952 0.23014 0.0
O151 O 0.05372 0.66302 0.20152 0.0
O152 O 0.05408 0.69049 0.18522 0.0
C153 C 0.1045 0.68166 0.16691 0.0
O154 O 0.09012 0.6512 0.21709 0.0
O155 O 0.11036 0.6756 0.22105 0.0
In156 In 0.32094 0.91817 0.80128 0.0
O157 O 0.30407 0.90086 0.82565 0.0
O158 O 0.33567 0.90364 0.829 0.0
C159 C 0.28968 0.9215 0.77536 0.0
C160 C 0.34616 0.89549 0.77867 0.0
C161 C 0.32654 0.95743 0.81109 0.0
O162 O 0.28838 0.91215 0.79186 0.0
O163 O 0.3067 0.9293 0.77207 0.0
O164 O 0.33861 0.94773 0.8001 0.0
O165 O 0.31203 0.94711 0.8177 0.0
C166 C 0.31944 0.89657 0.83593 0.0
O167 O 0.35188 0.91129 0.78758 0.0
O168 O 0.3279 0.89108 0.78146 0.0
In169 In 0.08283 0.32249 0.80003 0.0
O170 O 0.09026 0.35249 0.78437 0.0
O171 O 0.11113 0.3284 0.78194 0.0
C172 C 0.0438 0.32837 0.81046 0.0
C173 C 0.10446 0.3215 0.83465 0.0
C174 C 0.07825 0.29227 0.77311 0.0
O175 O 0.05376 0.34106 0.80038 0.0
O176 O 0.05378 0.31312 0.81585 0.0
O177 O 0.08682 0.2897 0.78991 0.0
O178 O 0.07177 0.30989 0.77022 0.0
C179 C 0.10678 0.34626 0.77721 0.0
O180 O 0.10106 0.30603 0.82414 0.0
O181 O 0.0964 0.33739 0.828 0.0
In182 In 0.68128 0.08294 0.7998 0.0
O183 O 0.6516 0.08824 0.78281 0.0
O184 O 0.6721 0.11262 0.78562 0.0
C185 C 0.67712 0.04369 0.81018 0.0
C186 C 0.68277 0.10373 0.83485 0.0
C187 C 0.71073 0.08021 0.77176 0.0
O188 O 0.66309 0.05369 0.80213 0.0
O189 O 0.6929 0.05371 0.81357 0.0
O190 O 0.71386 0.08729 0.78914 0.0
O191 O 0.69292 0.0744 0.76876 0.0
C192 C 0.65547 0.10646 0.77884 0.0
O193 O 0.69766 0.10207 0.82315 0.0
O194 O 0.66725 0.09431 0.82917 0.0
In195 In 0.91743 0.68022 0.80109 0.0
O196 O 0.91015 0.65081 0.78443 0.0
O197 O 0.88865 0.67446 0.78356 0.0
C198 C 0.95662 0.67349 0.81043 0.0
C199 C 0.89653 0.68088 0.83618 0.0
C200 C 0.92116 0.71148 0.77524 0.0
O201 O 0.94597 0.66087 0.80103 0.0
O202 O 0.94725 0.68913 0.81578 0.0
O203 O 0.91286 0.71322 0.79226 0.0
O204 O 0.92774 0.69406 0.77144 0.0
C205 C 0.89326 0.65688 0.77806 0.0
O206 O 0.90097 0.69656 0.82642 0.0
O207 O 0.90321 0.66479 0.82856 0.0
In208 In 0.20103 0.31867 0.08292 0.0
O209 O 0.2178 0.34826 0.08934 0.0
O210 O 0.21828 0.3254 0.11167 0.0
C211 C 0.19036 0.3248 0.04402 0.0
C212 C 0.1661 0.31748 0.10401 0.0
C213 C 0.22788 0.28834 0.07863 0.0
O214 O 0.19913 0.33802 0.05449 0.0
O215 O 0.18631 0.30879 0.05344 0.0
O216 O 0.21186 0.2864 0.08871 0.0
O217 O 0.23015 0.30544 0.07069 0.0
C218 C 0.2239 0.34279 0.10653 0.0
O219 O 0.17611 0.30192 0.09969 0.0
O220 O 0.17337 0.33362 0.09709 0.0
In221 In 0.20031 0.68099 0.91865 0.0
O222 O 0.2169 0.65126 0.91224 0.0
O223 O 0.21844 0.67461 0.89045 0.0
C224 C 0.18985 0.67626 0.95779 0.0
C225 C 0.1657 0.68032 0.89706 0.0
C226 C 0.22608 0.71229 0.9223 0.0
O227 O 0.20002 0.66331 0.94826 0.0
O228 O 0.1844 0.69114 0.94733 0.0
O229 O 0.20916 0.71394 0.91375 0.0
O230 O 0.22978 0.69495 0.92915 0.0
C231 C 0.2237 0.65705 0.89541 0.0
O232 O 0.17577 0.69617 0.9 0.0
O233 O 0.17278 0.66486 0.90556 0.0
In234 In 0.32156 0.20206 0.91742 0.0
O235 O 0.30568 0.17697 0.9 0.0
O236 O 0.33729 0.17463 0.90379 0.0
C237 C 0.29062 0.2283 0.92135 0.0
C238 C 0.34631 0.22535 0.89492 0.0
C239 C 0.32735 0.19132 0.95633 0.0
O240 O 0.28923 0.2124 0.91098 0.0
O241 O 0.30749 0.23076 0.92971 0.0
O242 O 0.34042 0.20059 0.94612 0.0
O243 O 0.31158 0.18688 0.94668 0.0
C244 C 0.32152 0.16713 0.89631 0.0
O245 O 0.35127 0.21875 0.91205 0.0
O246 O 0.32901 0.22001 0.88916 0.0
In247 In 0.79902 0.32145 0.91701 0.0
O248 O 0.7818 0.35092 0.91125 0.0
O249 O 0.78437 0.32986 0.88732 0.0
C250 C 0.80948 0.3269 0.95614 0.0
C251 C 0.83377 0.31942 0.8957 0.0
C252 C 0.77121 0.29179 0.92023 0.0
O253 O 0.80157 0.34062 0.94562 0.0
O254 O 0.81278 0.31076 0.94668 0.0
O255 O 0.78861 0.28873 0.91319 0.0
O256 O 0.76806 0.30967 0.9258 0.0
C257 C 0.77763 0.34662 0.89318 0.0
O258 O 0.82255 0.3044 0.89877 0.0
O259 O 0.82782 0.33545 0.90405 0.0
In260 In 0.68019 0.7996 0.91785 0.0
O261 O 0.64921 0.78574 0.91126 0.0
O262 O 0.67292 0.78009 0.89061 0.0
C263 C 0.67507 0.80942 0.9572 0.0
C264 C 0.68105 0.83425 0.89619 0.0
C265 C 0.71147 0.77368 0.92102 0.0
O266 O 0.66285 0.79848 0.94761 0.0
O267 O 0.68953 0.81593 0.94674 0.0
O268 O 0.71286 0.79039 0.91204 0.0
O269 O 0.69439 0.77024 0.9286 0.0
C270 C 0.65474 0.77712 0.89523 0.0
O271 O 0.69641 0.82348 0.89917 0.0
O272 O 0.66528 0.82783 0.90465 0.0
In273 In 0.799 0.67979 0.08371 0.0
O274 O 0.8241 0.69562 0.10114 0.0
O275 O 0.82624 0.66396 0.09766 0.0
C276 C 0.77338 0.71107 0.07894 0.0
C277 C 0.77515 0.65642 0.10709 0.0
C278 C 0.80925 0.67337 0.04477 0.0
O279 O 0.78935 0.71249 0.0892 0.0
O280 O 0.77057 0.69401 0.07106 0.0
O281 O 0.79928 0.66083 0.05501 0.0
O282 O 0.81469 0.6888 0.05445 0.0
C283 C 0.83379 0.67975 0.10506 0.0
O284 O 0.78261 0.65014 0.09074 0.0
O285 O 0.77999 0.67422 0.11158 0.0
In286 In 0.3221 0.80023 0.08451 0.0
O287 O 0.30675 0.82646 0.10052 0.0
O288 O 0.33854 0.82755 0.09766 0.0
C289 C 0.29025 0.77498 0.08201 0.0
C290 C 0.34564 0.77719 0.10852 0.0
C291 C 0.32813 0.80925 0.04518 0.0
O292 O 0.28951 0.79146 0.09146 0.0
O293 O 0.30693 0.77145 0.07363 0.0
O294 O 0.34075 0.79954 0.05556 0.0
O295 O 0.31281 0.81499 0.05487 0.0
C296 C 0.32282 0.83582 0.10443 0.0
O297 O 0.35119 0.7827 0.09116 0.0
O298 O 0.32847 0.78347 0.11362 0.0
In299 In 0.68118 0.20027 0.08261 0.0
O300 O 0.65156 0.21721 0.08763 0.0
O301 O 0.67344 0.21805 0.11092 0.0
C302 C 0.67552 0.18989 0.04348 0.0
C303 C 0.68203 0.16559 0.10429 0.0
C304 C 0.71228 0.22642 0.07931 0.0
O305 O 0.66209 0.19829 0.05396 0.0
O306 O 0.69151 0.18604 0.05298 0.0
O307 O 0.71393 0.20956 0.08792 0.0
O308 O 0.69499 0.22998 0.07228 0.0
C309 C 0.65632 0.22367 0.10488 0.0
O310 O 0.69755 0.17574 0.10025 0.0
O311 O 0.66599 0.17263 0.09688 0.0
In312 In 0.91963 0.80001 0.68247 0.0
O313 O 0.90067 0.82396 0.69826 0.0
O314 O 0.90752 0.82867 0.66745 0.0
C315 C 0.92224 0.7737 0.7135 0.0
C316 C 0.89724 0.77727 0.65708 0.0
C317 C 0.95889 0.80999 0.67718 0.0
O318 O 0.91481 0.7911 0.71542 0.0
O319 O 0.92852 0.76975 0.69601 0.0
O320 O 0.94834 0.80205 0.66352 0.0
O321 O 0.94943 0.81351 0.69328 0.0
C322 C 0.8985 0.83498 0.68295 0.0
O323 O 0.91508 0.7825 0.6531 0.0
O324 O 0.89069 0.78378 0.67369 0.0
In325 In 0.20138 0.91942 0.68238 0.0
O326 O 0.21688 0.91402 0.65203 0.0
O327 O 0.21971 0.89151 0.67454 0.0
C328 C 0.19099 0.95862 0.6772 0.0
C329 C 0.16669 0.89787 0.68335 0.0
C330 C 0.22755 0.92215 0.71353 0.0
O331 O 0.20105 0.94883 0.66439 0.0
O332 O 0.18562 0.94842 0.69229 0.0
O333 O 0.21097 0.91295 0.71481 0.0
O334 O 0.23079 0.93013 0.69659 0.0
C335 C 0.22419 0.89716 0.65696 0.0
O336 O 0.17672 0.90217 0.69888 0.0
O337 O 0.17385 0.90495 0.66723 0.0
In338 In 0.08311 0.20332 0.68076 0.0
O339 O 0.10092 0.17936 0.69776 0.0
O340 O 0.09729 0.17534 0.6663 0.0
C341 C 0.07892 0.23054 0.71081 0.0
C342 C 0.10569 0.22603 0.65558 0.0
C343 C 0.04426 0.19226 0.67494 0.0
O344 O 0.08795 0.21398 0.71325 0.0
O345 O 0.07194 0.23316 0.69335 0.0
O346 O 0.0546 0.20095 0.66159 0.0
O347 O 0.05376 0.18849 0.69096 0.0
C348 C 0.10482 0.16878 0.68248 0.0
O349 O 0.08851 0.21945 0.65077 0.0
O350 O 0.11153 0.22085 0.67291 0.0
In351 In 0.80078 0.08341 0.6803 0.0
O352 O 0.78416 0.08832 0.65045 0.0
O353 O 0.78451 0.11228 0.67163 0.0
C354 C 0.81159 0.04434 0.67531 0.0
C355 C 0.83546 0.10486 0.68241 0.0
C356 C 0.77282 0.08032 0.70977 0.0
O357 O 0.80419 0.05482 0.6613 0.0
O358 O 0.81421 0.05381 0.69157 0.0
O359 O 0.78979 0.08841 0.71264 0.0
O360 O 0.77021 0.07361 0.6922 0.0
C361 C 0.77854 0.10599 0.65472 0.0
O362 O 0.82459 0.10119 0.69754 0.0
O363 O 0.82913 0.0972 0.66619 0.0
In364 In 0.91858 0.20262 0.3204 0.0
O365 O 0.9004 0.17924 0.3031 0.0
O366 O 0.90523 0.17391 0.33423 0.0
C367 C 0.92258 0.23025 0.2907 0.0
C368 C 0.89496 0.22443 0.34542 0.0
C369 C 0.95745 0.19158 0.32612 0.0
O370 O 0.9146 0.21324 0.2878 0.0
O371 O 0.92865 0.23314 0.30846 0.0
O372 O 0.94695 0.19961 0.33978 0.0
O373 O 0.94808 0.18847 0.30989 0.0
C374 C 0.89709 0.16801 0.31807 0.0
O375 O 0.91281 0.21963 0.34997 0.0
O376 O 0.88919 0.21808 0.32848 0.0
In377 In 0.79988 0.91939 0.31976 0.0
O378 O 0.82421 0.90214 0.30267 0.0
O379 O 0.82783 0.90519 0.33423 0.0
C380 C 0.77234 0.92283 0.28991 0.0
C381 C 0.77725 0.89697 0.34516 0.0
C382 C 0.81056 0.95842 0.32521 0.0
O383 O 0.78887 0.91372 0.28752 0.0
O384 O 0.76995 0.93032 0.3072 0.0
O385 O 0.80249 0.94794 0.33884 0.0
O386 O 0.81392 0.94897 0.30907 0.0
C387 C 0.83465 0.89804 0.31799 0.0
O388 O 0.78376 0.91423 0.34981 0.0
O389 O 0.78251 0.89096 0.32791 0.0
In390 In 0.08303 0.80034 0.32049 0.0
O391 O 0.08853 0.7844 0.35066 0.0
O392 O 0.11099 0.782 0.32806 0.0
C393 C 0.04408 0.81144 0.32535 0.0
C394 C 0.10456 0.83501 0.31987 0.0
C395 C 0.07876 0.77396 0.28974 0.0
O396 O 0.05362 0.80144 0.3384 0.0
O397 O 0.05445 0.81645 0.31023 0.0
O398 O 0.08899 0.78991 0.28812 0.0
O399 O 0.07073 0.77149 0.30677 0.0
C400 C 0.1054 0.77723 0.34558 0.0
O401 O 0.10143 0.82447 0.30436 0.0
O402 O 0.09635 0.82831 0.33566 0.0
In403 In 0.20174 0.08355 0.31831 0.0
O404 O 0.17688 0.10059 0.30187 0.0
O405 O 0.17396 0.09743 0.3335 0.0
C406 C 0.22831 0.08119 0.28749 0.0
C407 C 0.22452 0.10575 0.34381 0.0
C408 C 0.19128 0.04433 0.3229 0.0
O409 O 0.2119 0.0907 0.28618 0.0
O410 O 0.23116 0.07275 0.30427 0.0
O411 O 0.20033 0.05419 0.33639 0.0
O412 O 0.18693 0.05447 0.30744 0.0
C413 C 0.16672 0.10456 0.31742 0.0
O414 O 0.21823 0.08835 0.34827 0.0
O415 O 0.21901 0.11194 0.32671 0.0
In416 In 0.68135 0.91716 0.79923 0.0
O417 O 0.69722 0.89818 0.82309 0.0
O418 O 0.66635 0.905 0.82779 0.0
C419 C 0.71138 0.92073 0.77193 0.0
C420 C 0.65645 0.89371 0.77711 0.0
C421 C 0.67699 0.9563 0.80988 0.0
O422 O 0.71406 0.91271 0.78899 0.0
O423 O 0.69373 0.92702 0.76891 0.0
O424 O 0.66329 0.94653 0.801 0.0
O425 O 0.69248 0.94609 0.81396 0.0
C426 C 0.68186 0.89596 0.83409 0.0
O427 O 0.65164 0.91137 0.78241 0.0
O428 O 0.67353 0.88807 0.78317 0.0
In429 In 0.08327 0.67885 0.79968 0.0
O430 O 0.10041 0.69477 0.82488 0.0
O431 O 0.09701 0.66314 0.82721 0.0
C432 C 0.08089 0.71044 0.77404 0.0
C433 C 0.10592 0.65412 0.7765 0.0
C434 C 0.04397 0.67312 0.80926 0.0
O435 O 0.08984 0.71145 0.79078 0.0
O436 O 0.07289 0.69359 0.77042 0.0
O437 O 0.0542 0.6604 0.79956 0.0
O438 O 0.05374 0.68849 0.81465 0.0
C439 C 0.10428 0.679 0.83473 0.0
O440 O 0.0891 0.64885 0.78363 0.0
O441 O 0.11134 0.67167 0.78135 0.0
In442 In 0.32084 0.08385 0.79988 0.0
O443 O 0.35034 0.0901 0.78288 0.0
O444 O 0.3274 0.11234 0.78221 0.0
C445 C 0.32633 0.04475 0.81017 0.0
C446 C 0.32132 0.10498 0.83476 0.0
C447 C 0.28921 0.08087 0.77441 0.0
O448 O 0.33887 0.05447 0.79969 0.0
O449 O 0.31138 0.05496 0.81593 0.0
O450 O 0.28815 0.09003 0.79104 0.0
O451 O 0.30611 0.07294 0.77087 0.0
C452 C 0.34476 0.10717 0.77654 0.0
O453 O 0.30537 0.10127 0.82512 0.0
O454 O 0.33702 0.09745 0.82713 0.0
In455 In 0.91762 0.3221 0.79918 0.0
O456 O 0.89996 0.30489 0.82307 0.0
O457 O 0.90244 0.33649 0.82674 0.0
C458 C 0.92291 0.2909 0.77356 0.0
C459 C 0.89463 0.34592 0.77529 0.0
C460 C 0.9565 0.32841 0.81 0.0
O461 O 0.91216 0.28958 0.78921 0.0
O462 O 0.9311 0.30786 0.77106 0.0
O463 O 0.94687 0.34039 0.7988 0.0
O464 O 0.94624 0.31373 0.81633 0.0
C465 C 0.89536 0.32015 0.8334 0.0
O466 O 0.90948 0.35273 0.78505 0.0
O467 O 0.89134 0.32743 0.77798 0.0
In468 In 0.68019 0.08307 0.2017 0.0
O469 O 0.65057 0.0904 0.21808 0.0
O470 O 0.67447 0.11154 0.21974 0.0
C471 C 0.67357 0.0439 0.19207 0.0
C472 C 0.68136 0.10419 0.16671 0.0
C473 C 0.71151 0.07953 0.22753 0.0
O474 O 0.66091 0.05443 0.20156 0.0
O475 O 0.6892 0.05335 0.18686 0.0
O476 O 0.7131 0.08788 0.21052 0.0
O477 O 0.69419 0.07269 0.23132 0.0
C478 C 0.65678 0.10703 0.22495 0.0
O479 O 0.69686 0.09963 0.17668 0.0
O480 O 0.66513 0.09757 0.1741 0.0
In481 In 0.91746 0.68023 0.20148 0.0
O482 O 0.89902 0.6957 0.17695 0.0
O483 O 0.9039 0.6643 0.17402 0.0
C484 C 0.92068 0.712 0.22679 0.0
C485 C 0.89514 0.65542 0.22491 0.0
C486 C 0.95665 0.67507 0.1912 0.0
O487 O 0.91162 0.71306 0.21011 0.0
O488 O 0.92827 0.69498 0.23053 0.0
O489 O 0.9471 0.66267 0.20197 0.0
O490 O 0.94621 0.68972 0.18508 0.0
C491 C 0.89573 0.67992 0.16691 0.0
O492 O 0.91168 0.65003 0.21722 0.0
O493 O 0.88985 0.67314 0.22053 0.0
In494 In 0.32245 0.91799 0.20149 0.0
O495 O 0.30702 0.90082 0.17611 0.0
O496 O 0.33856 0.90536 0.17373 0.0
C497 C 0.291 0.92042 0.2273 0.0
C498 C 0.34667 0.89403 0.22383 0.0
C499 C 0.32768 0.95728 0.19173 0.0
O500 O 0.28959 0.91227 0.21018 0.0
O501 O 0.30818 0.92752 0.23122 0.0
O502 O 0.34052 0.94739 0.20168 0.0
O503 O 0.31258 0.94715 0.18625 0.0
C504 C 0.32291 0.89766 0.16616 0.0
O505 O 0.35166 0.91175 0.21898 0.0
O506 O 0.3297 0.88858 0.21729 0.0
In507 In 0.08328 0.32083 0.20106 0.0
O508 O 0.08961 0.35155 0.21547 0.0
O509 O 0.11108 0.32825 0.21969 0.0
C510 C 0.04424 0.32649 0.19045 0.0
C511 C 0.10468 0.3187 0.16633 0.0
C512 C 0.07938 0.29067 0.22822 0.0
O513 O 0.05416 0.33927 0.20042 0.0
O514 O 0.05424 0.31119 0.18528 0.0
O515 O 0.08912 0.28863 0.21201 0.0
O516 O 0.07151 0.3078 0.23052 0.0
C517 C 0.10606 0.34621 0.22338 0.0
O518 O 0.10035 0.30346 0.1768 0.0
O519 O 0.09777 0.33506 0.17313 0.0
In520 In 0.79902 0.67996 0.9184 0.0
O521 O 0.82477 0.69632 0.90257 0.0
O522 O 0.82611 0.66447 0.90348 0.0
C523 C 0.77322 0.71143 0.92111 0.0
C524 C 0.77544 0.65528 0.89612 0.0
C525 C 0.80911 0.67378 0.9575 0.0
O526 O 0.78941 0.71226 0.9112 0.0
O527 O 0.77018 0.6948 0.92979 0.0
O528 O 0.80013 0.66077 0.94697 0.0
O529 O 0.81362 0.68965 0.94807 0.0
C530 C 0.83417 0.68062 0.89752 0.0
O531 O 0.78203 0.65039 0.91327 0.0
O532 O 0.78105 0.67243 0.89015 0.0
In533 In 0.80006 0.31967 0.08264 0.0
O534 O 0.78418 0.34956 0.08991 0.0
O535 O 0.78099 0.32527 0.11042 0.0
C536 C 0.80997 0.32623 0.04351 0.0
C537 C 0.83445 0.31884 0.10476 0.0
C538 C 0.77433 0.28834 0.07868 0.0
O539 O 0.80034 0.33884 0.05395 0.0
O540 O 0.81523 0.31065 0.05304 0.0
O541 O 0.79139 0.28663 0.08692 0.0
O542 O 0.77047 0.30577 0.07215 0.0
C543 C 0.77648 0.3432 0.10612 0.0
O544 O 0.82448 0.30328 0.10042 0.0
O545 O 0.82747 0.33488 0.09731 0.0
In546 In 0.68076 0.79925 0.08364 0.0
O547 O 0.69662 0.82396 0.1016 0.0
O548 O 0.66515 0.82688 0.09708 0.0
C549 C 0.7118 0.77333 0.07892 0.0
C550 C 0.657 0.77574 0.10704 0.0
C551 C 0.67511 0.80964 0.04459 0.0
O552 O 0.71339 0.78932 0.08912 0.0
O553 O 0.69471 0.77066 0.07108 0.0
O554 O 0.66259 0.79917 0.05436 0.0
O555 O 0.69005 0.81548 0.05478 0.0
C556 C 0.68088 0.83406 0.10498 0.0
O557 O 0.65081 0.78333 0.09071 0.0
O558 O 0.67488 0.7803 0.11148 0.0
In559 In 0.20148 0.68248 0.08404 0.0
O560 O 0.17642 0.69807 0.10167 0.0
O561 O 0.17402 0.66651 0.0975 0.0
C562 C 0.2275 0.7138 0.08181 0.0
C563 C 0.2251 0.65714 0.10551 0.0
C564 C 0.19044 0.67756 0.04507 0.0
O565 O 0.21138 0.71459 0.09185 0.0
O566 O 0.23027 0.69735 0.07272 0.0
O567 O 0.19937 0.66406 0.05503 0.0
O568 O 0.18652 0.69329 0.05498 0.0
C569 C 0.16656 0.68221 0.10519 0.0
O570 O 0.2198 0.65346 0.08763 0.0
O571 O 0.2182 0.67336 0.11257 0.0
In572 In 0.32209 0.20152 0.08249 0.0
O573 O 0.35154 0.21878 0.08735 0.0
O574 O 0.32966 0.21962 0.11063 0.0
C575 C 0.3277 0.19076 0.04356 0.0
C576 C 0.32238 0.16674 0.1039 0.0
C577 C 0.29091 0.22747 0.07861 0.0
O578 O 0.34091 0.1998 0.05379 0.0
O579 O 0.31191 0.18645 0.05324 0.0
O580 O 0.28967 0.21154 0.08895 0.0
O581 O 0.30776 0.23011 0.07026 0.0
C582 C 0.34674 0.22532 0.10455 0.0
O583 O 0.30649 0.17652 0.10029 0.0
O584 O 0.33805 0.1742 0.09617 0.0
In585 In 0.20149 0.32037 0.91775 0.0
O586 O 0.17689 0.3046 0.89946 0.0
O587 O 0.17377 0.33597 0.90446 0.0
C588 C 0.22808 0.28972 0.9216 0.0
C589 C 0.22504 0.34534 0.89575 0.0
C590 C 0.19052 0.32555 0.95671 0.0
O591 O 0.21208 0.28807 0.91143 0.0
O592 O 0.23044 0.30668 0.92982 0.0
O593 O 0.19914 0.33908 0.94652 0.0
O594 O 0.18675 0.30966 0.94698 0.0
C595 C 0.1667 0.32034 0.89629 0.0
O596 O 0.21872 0.34991 0.9131 0.0
O597 O 0.2192 0.32839 0.88948 0.0
In598 In 0.68039 0.20106 0.917 0.0
O599 O 0.69714 0.17762 0.89826 0.0
O600 O 0.66661 0.17163 0.90551 0.0
C601 C 0.70967 0.22923 0.9202 0.0
C602 C 0.65501 0.22209 0.89306 0.0
C603 C 0.67532 0.19073 0.95615 0.0
O604 O 0.713 0.21186 0.91319 0.0
O605 O 0.69174 0.23215 0.92573 0.0
O606 O 0.66137 0.19821 0.94563 0.0
O607 O 0.69156 0.18787 0.94671 0.0
C608 C 0.68229 0.1659 0.89641 0.0
O609 O 0.65087 0.2182 0.91123 0.0
O610 O 0.67168 0.21517 0.88713 0.0
In611 In 0.31978 0.7996 0.91869 0.0
O612 O 0.30326 0.82461 0.90197 0.0
O613 O 0.33494 0.82732 0.90466 0.0
C614 C 0.28833 0.77396 0.92247 0.0
C615 C 0.34333 0.77684 0.89442 0.0
C616 C 0.32689 0.80891 0.95782 0.0
O617 O 0.28671 0.79102 0.91426 0.0
O618 O 0.30574 0.77001 0.92899 0.0
O619 O 0.3391 0.79895 0.94722 0.0
O620 O 0.31142 0.81475 0.94847 0.0
C621 C 0.31882 0.83465 0.89774 0.0
O622 O 0.34946 0.78355 0.91114 0.0
O623 O 0.32555 0.78184 0.89002 0.0
In624 In 0.5821 0.70257 0.81985 0.0
O625 O 0.60171 0.67913 0.80415 0.0
O626 O 0.59417 0.67376 0.83469 0.0
C627 C 0.57895 0.72862 0.78865 0.0
C628 C 0.60445 0.72548 0.84514 0.0
C629 C 0.54293 0.69235 0.82528 0.0
O630 O 0.58614 0.71113 0.78671 0.0
O631 O 0.57322 0.73283 0.80626 0.0
O632 O 0.55342 0.70053 0.83883 0.0
O633 O 0.55242 0.68866 0.80923 0.0
C634 C 0.60363 0.66783 0.8193 0.0
O635 O 0.58661 0.72026 0.84915 0.0
O636 O 0.61101 0.71889 0.82857 0.0
In637 In 0.29916 0.58328 0.82191 0.0
O638 O 0.2823 0.58984 0.85145 0.0
O639 O 0.28206 0.61211 0.82853 0.0
C640 C 0.30955 0.54425 0.82775 0.0
C641 C 0.33414 0.6043 0.82138 0.0
C642 C 0.27264 0.57935 0.79124 0.0
O643 O 0.3004 0.55453 0.84087 0.0
O644 O 0.31405 0.5539 0.81201 0.0
O645 O 0.28921 0.58848 0.78927 0.0
O646 O 0.26968 0.57209 0.80855 0.0
C647 C 0.27631 0.60704 0.8459 0.0
O648 O 0.32397 0.60075 0.80572 0.0
O649 O 0.32698 0.59666 0.83725 0.0
In650 In 0.4183 0.29942 0.81855 0.0
O651 O 0.40032 0.32345 0.80176 0.0
O652 O 0.40426 0.32735 0.8332 0.0
C653 C 0.42245 0.27246 0.78822 0.0
C654 C 0.39594 0.27689 0.84412 0.0
C655 C 0.45723 0.31045 0.82394 0.0
O656 O 0.41248 0.28855 0.78629 0.0
O657 O 0.43035 0.27015 0.80534 0.0
O658 O 0.44744 0.30051 0.83685 0.0
O659 O 0.44713 0.31541 0.80862 0.0
C660 C 0.39656 0.33397 0.81712 0.0
O661 O 0.41267 0.28442 0.84911 0.0
O662 O 0.39047 0.28097 0.82639 0.0
In663 In 0.70088 0.41832 0.81914 0.0
O664 O 0.71585 0.41112 0.84956 0.0
O665 O 0.72169 0.39185 0.82475 0.0
C666 C 0.69009 0.4573 0.82502 0.0
C667 C 0.66678 0.39582 0.81821 0.0
C668 C 0.72642 0.42226 0.78769 0.0
O669 O 0.70095 0.44767 0.83729 0.0
O670 O 0.68411 0.44703 0.8102 0.0
O671 O 0.71022 0.41236 0.78656 0.0
O672 O 0.72948 0.43046 0.80456 0.0
C673 C 0.7251 0.39582 0.84299 0.0
O674 O 0.6763 0.40095 0.8026 0.0
O675 O 0.67416 0.40253 0.8344 0.0
In676 In 0.58434 0.29929 0.17978 0.0
O677 O 0.60219 0.32324 0.19655 0.0
O678 O 0.59869 0.32715 0.16507 0.0
C679 C 0.58084 0.27354 0.21117 0.0
C680 C 0.6069 0.27654 0.15456 0.0
C681 C 0.54524 0.30975 0.17419 0.0
O682 O 0.58961 0.29033 0.21257 0.0
O683 O 0.57369 0.26983 0.19396 0.0
O684 O 0.55482 0.29879 0.16199 0.0
O685 O 0.55559 0.31593 0.18886 0.0
C686 C 0.60615 0.33377 0.18126 0.0
O687 O 0.59057 0.28465 0.14914 0.0
O688 O 0.61191 0.28022 0.17252 0.0
In689 In 0.70094 0.5827 0.18166 0.0
O690 O 0.71752 0.58912 0.15199 0.0
O691 O 0.71728 0.61183 0.17449 0.0
C692 C 0.69149 0.54333 0.17645 0.0
C693 C 0.66575 0.60334 0.18157 0.0
C694 C 0.72704 0.58003 0.21286 0.0
O695 O 0.70137 0.5533 0.16362 0.0
O696 O 0.68587 0.55343 0.19152 0.0
O697 O 0.70972 0.58768 0.21463 0.0
O698 O 0.73101 0.57354 0.19545 0.0
C699 C 0.72306 0.60658 0.15719 0.0
O700 O 0.67615 0.60063 0.19724 0.0
O701 O 0.67278 0.59502 0.16598 0.0
In702 In 0.41756 0.70051 0.18255 0.0
O703 O 0.40117 0.67506 0.19884 0.0
O704 O 0.4028 0.6734 0.16703 0.0
C705 C 0.42113 0.72598 0.21416 0.0
C706 C 0.39435 0.72421 0.15883 0.0
C707 C 0.45664 0.69076 0.1758 0.0
O708 O 0.41131 0.70973 0.21514 0.0
O709 O 0.42937 0.72917 0.19733 0.0
O710 O 0.44616 0.70056 0.16336 0.0
O711 O 0.44718 0.68528 0.19135 0.0
C712 C 0.39634 0.66559 0.18312 0.0
O713 O 0.41073 0.71667 0.15274 0.0
O714 O 0.38971 0.7195 0.17663 0.0
In715 In 0.29921 0.41697 0.17976 0.0
O716 O 0.32484 0.40111 0.19621 0.0
O717 O 0.3266 0.40254 0.16438 0.0
C718 C 0.27362 0.42029 0.21129 0.0
C719 C 0.2761 0.39306 0.15617 0.0
C720 C 0.30856 0.45618 0.17315 0.0
O721 O 0.29012 0.41091 0.21241 0.0
O722 O 0.27022 0.4282 0.19434 0.0
O723 O 0.29865 0.44573 0.16075 0.0
O724 O 0.31432 0.44664 0.18853 0.0
C725 C 0.33447 0.39636 0.18054 0.0
O726 O 0.2832 0.4096 0.14997 0.0
O727 O 0.28094 0.38865 0.17399 0.0
In728 In 0.81899 0.58491 0.70171 0.0
O729 O 0.80228 0.60267 0.67746 0.0
O730 O 0.83379 0.59905 0.67392 0.0
C731 C 0.7887 0.58024 0.72855 0.0
C732 C 0.84301 0.60827 0.7249 0.0
C733 C 0.82518 0.54603 0.69091 0.0
O734 O 0.78635 0.5894 0.71204 0.0
O735 O 0.80618 0.57331 0.73127 0.0
O736 O 0.83835 0.55646 0.69979 0.0
O737 O 0.8092 0.55548 0.68683 0.0
C738 C 0.81772 0.60661 0.66713 0.0
O739 O 0.84872 0.59142 0.71814 0.0
O740 O 0.82546 0.61328 0.71967 0.0
In741 In 0.41765 0.8217 0.70151 0.0
O742 O 0.40004 0.80629 0.67632 0.0
O743 O 0.40412 0.83787 0.67415 0.0
C744 C 0.42001 0.79001 0.72707 0.0
C745 C 0.39572 0.84638 0.72544 0.0
C746 C 0.45673 0.8273 0.69102 0.0
O747 O 0.41084 0.7891 0.71045 0.0
O748 O 0.42818 0.8068 0.73059 0.0
O749 O 0.44627 0.84075 0.69941 0.0
O750 O 0.44725 0.81125 0.68729 0.0
C751 C 0.39644 0.82221 0.66659 0.0
O752 O 0.41357 0.85039 0.72025 0.0
O753 O 0.38893 0.83014 0.7183 0.0
In754 In 0.18152 0.41842 0.70154 0.0
O755 O 0.15173 0.41246 0.71818 0.0
O756 O 0.17426 0.38978 0.7186 0.0
C757 C 0.17688 0.45732 0.69028 0.0
C758 C 0.18212 0.39691 0.66689 0.0
C759 C 0.21159 0.42259 0.72869 0.0
O760 O 0.16336 0.44766 0.69955 0.0
O761 O 0.19236 0.44711 0.68615 0.0
O762 O 0.21405 0.41366 0.71206 0.0
O763 O 0.19412 0.42954 0.73136 0.0
C764 C 0.15696 0.39518 0.72425 0.0
O765 O 0.19755 0.39958 0.67767 0.0
O766 O 0.16647 0.40559 0.67332 0.0
In767 In 0.58304 0.17918 0.7015 0.0
O768 O 0.59077 0.14893 0.71654 0.0
O769 O 0.60934 0.17416 0.72274 0.0
C770 C 0.54431 0.17222 0.69056 0.0
C771 C 0.60555 0.18085 0.66741 0.0
C772 C 0.57771 0.21034 0.72714 0.0
O773 O 0.55443 0.15996 0.70098 0.0
O774 O 0.554 0.18759 0.68502 0.0
O775 O 0.58847 0.21169 0.7115 0.0
O776 O 0.56948 0.19339 0.72959 0.0
C777 C 0.60574 0.15583 0.72605 0.0
O778 O 0.60007 0.19628 0.67702 0.0
O779 O 0.59919 0.16448 0.67469 0.0
In780 In 0.82149 0.41889 0.30127 0.0
O781 O 0.83128 0.38923 0.28748 0.0
O782 O 0.85021 0.41449 0.28237 0.0
C783 C 0.82561 0.45805 0.31204 0.0
C784 C 0.821 0.39787 0.3362 0.0
C785 C 0.79076 0.4208 0.27455 0.0
O786 O 0.83963 0.44818 0.30381 0.0
O787 O 0.80988 0.44796 0.31537 0.0
O788 O 0.78876 0.41347 0.29196 0.0
O789 O 0.80819 0.42732 0.27075 0.0
C790 C 0.84707 0.39596 0.27937 0.0
O791 O 0.80572 0.39994 0.3251 0.0
O792 O 0.83649 0.40703 0.33001 0.0
In793 In 0.58372 0.81899 0.30028 0.0
O794 O 0.59047 0.84874 0.28401 0.0
O795 O 0.61193 0.82516 0.28194 0.0
C796 C 0.54469 0.82566 0.31035 0.0
C797 C 0.60546 0.81806 0.33487 0.0
C798 C 0.57974 0.78779 0.27437 0.0
O799 O 0.55518 0.83828 0.30077 0.0
O800 O 0.55413 0.80998 0.31546 0.0
O801 O 0.58808 0.786 0.29136 0.0
O802 O 0.57315 0.80523 0.27065 0.0
C803 C 0.60712 0.84284 0.27694 0.0
O804 O 0.60139 0.80254 0.32471 0.0
O805 O 0.59798 0.8341 0.32791 0.0
In806 In 0.18059 0.5836 0.29924 0.0
O807 O 0.15102 0.58982 0.28241 0.0
O808 O 0.17302 0.613 0.28358 0.0
C809 C 0.17505 0.54454 0.30972 0.0
C810 C 0.18224 0.60448 0.33428 0.0
C811 C 0.21026 0.57984 0.27153 0.0
O812 O 0.16142 0.55503 0.30161 0.0
O813 O 0.19115 0.55401 0.3132 0.0
O814 O 0.21305 0.58826 0.28837 0.0
O815 O 0.19264 0.57325 0.2689 0.0
C816 C 0.15591 0.60752 0.2774 0.0
O817 O 0.19757 0.60088 0.32362 0.0
O818 O 0.16611 0.59697 0.32757 0.0
In819 In 0.4191 0.18217 0.29958 0.0
O820 O 0.41397 0.15188 0.28385 0.0
O821 O 0.39118 0.17417 0.28137 0.0
C822 C 0.45816 0.177 0.31047 0.0
C823 C 0.39689 0.18334 0.33387 0.0
C824 C 0.42234 0.21314 0.27324 0.0
O825 O 0.44843 0.16405 0.30055 0.0
O826 O 0.44797 0.19223 0.31546 0.0
O827 O 0.41383 0.21488 0.29014 0.0
O828 O 0.4294 0.19585 0.26977 0.0
C829 C 0.39702 0.15671 0.27668 0.0
O830 O 0.40065 0.19869 0.32335 0.0
O831 O 0.40484 0.16732 0.32741 0.0
In832 In 0.70241 0.82189 0.58314 0.0
O833 O 0.67758 0.80499 0.59987 0.0
O834 O 0.675 0.83675 0.59798 0.0
C835 C 0.72918 0.79156 0.57847 0.0
C836 C 0.726 0.84534 0.60666 0.0
C837 C 0.69179 0.82825 0.54426 0.0
O838 O 0.71298 0.78944 0.58823 0.0
O839 O 0.73158 0.8088 0.57087 0.0
O840 O 0.70093 0.84127 0.55467 0.0
O841 O 0.68738 0.81238 0.55372 0.0
C842 C 0.66766 0.8205 0.60457 0.0
O843 O 0.7186 0.85164 0.59028 0.0
O844 O 0.72107 0.82757 0.61116 0.0
In845 In 0.70278 0.18193 0.41868 0.0
O846 O 0.71856 0.15173 0.41299 0.0
O847 O 0.72109 0.17447 0.39067 0.0
C848 C 0.69145 0.17659 0.45754 0.0
C849 C 0.66827 0.18341 0.39691 0.0
C850 C 0.72951 0.21239 0.4231 0.0
O851 O 0.70123 0.16352 0.44778 0.0
O852 O 0.68677 0.19198 0.44743 0.0
O853 O 0.71355 0.21422 0.41292 0.0
O854 O 0.73183 0.1953 0.43105 0.0
C855 C 0.72576 0.15689 0.39615 0.0
O856 O 0.67867 0.19878 0.40096 0.0
O857 O 0.675 0.16724 0.40432 0.0
In858 In 0.82202 0.70355 0.41833 0.0
O859 O 0.8048 0.6791 0.40146 0.0
O860 O 0.83643 0.67561 0.40401 0.0
C861 C 0.79189 0.73056 0.42292 0.0
C862 C 0.84555 0.72629 0.39405 0.0
C863 C 0.82853 0.69336 0.45734 0.0
O864 O 0.78938 0.71387 0.41413 0.0
O865 O 0.80945 0.73336 0.4296 0.0
O866 O 0.8414 0.70263 0.44685 0.0
O867 O 0.81275 0.6886 0.44789 0.0
C868 C 0.82011 0.66872 0.39711 0.0
O869 O 0.8519 0.71924 0.41056 0.0
O870 O 0.82767 0.7215 0.38984 0.0
In871 In 0.29917 0.82111 0.41788 0.0
O872 O 0.32546 0.80484 0.4028 0.0
O873 O 0.32574 0.83673 0.40226 0.0
C874 C 0.27395 0.78927 0.42089 0.0
C875 C 0.27521 0.84456 0.39468 0.0
C876 C 0.30848 0.82793 0.45706 0.0
O877 O 0.28987 0.78881 0.41049 0.0
O878 O 0.271 0.80567 0.43004 0.0
O879 O 0.29827 0.84008 0.44662 0.0
O880 O 0.31454 0.81265 0.44753 0.0
C881 C 0.33432 0.8206 0.39701 0.0
O882 O 0.28365 0.85116 0.41042 0.0
O883 O 0.27925 0.82646 0.39063 0.0
In884 In 0.18069 0.29991 0.41745 0.0
O885 O 0.19656 0.32494 0.39992 0.0
O886 O 0.16497 0.3274 0.40388 0.0
C887 C 0.21134 0.27346 0.42173 0.0
C888 C 0.15706 0.27647 0.39395 0.0
C889 C 0.17483 0.31024 0.45646 0.0
O890 O 0.21324 0.28974 0.41205 0.0
O891 O 0.19415 0.2708 0.42936 0.0
O892 O 0.16177 0.30101 0.44618 0.0
O893 O 0.19053 0.31491 0.4468 0.0
C894 C 0.18073 0.33482 0.39628 0.0
O895 O 0.15115 0.28314 0.41078 0.0
O896 O 0.17457 0.28192 0.38906 0.0
In897 In 0.29974 0.18083 0.58223 0.0
O898 O 0.32465 0.19724 0.5993 0.0
O899 O 0.32745 0.16561 0.59629 0.0
C900 C 0.27366 0.21204 0.57928 0.0
C901 C 0.27668 0.15607 0.605 0.0
C902 C 0.30971 0.17489 0.54302 0.0
O903 O 0.2906 0.21359 0.58774 0.0
O904 O 0.27 0.1948 0.57217 0.0
O905 O 0.30092 0.16175 0.55354 0.0
O906 O 0.3141 0.19076 0.5525 0.0
C907 C 0.33473 0.18168 0.60337 0.0
O908 O 0.2829 0.1512 0.5877 0.0
O909 O 0.28237 0.17324 0.61084 0.0
In910 In 0.82123 0.30069 0.58413 0.0
O911 O 0.80498 0.32576 0.6012 0.0
O912 O 0.83647 0.32884 0.59687 0.0
C913 C 0.79067 0.27406 0.57994 0.0
C914 C 0.84522 0.27812 0.60814 0.0
C915 C 0.82753 0.31082 0.54515 0.0
O916 O 0.78869 0.29039 0.5895 0.0
O917 O 0.80791 0.27138 0.57247 0.0
O918 O 0.84059 0.3019 0.55571 0.0
O919 O 0.81157 0.31522 0.55451 0.0
C920 C 0.8206 0.3361 0.60441 0.0
O921 O 0.85053 0.28355 0.59069 0.0
O922 O 0.82804 0.28428 0.61337 0.0
In923 In 0.18209 0.70205 0.58303 0.0
O924 O 0.15212 0.71765 0.59064 0.0
O925 O 0.17649 0.72078 0.61107 0.0
C926 C 0.17548 0.69234 0.54388 0.0
C927 C 0.18335 0.66716 0.60429 0.0
C928 C 0.21315 0.72813 0.57933 0.0
O929 O 0.16293 0.70202 0.55436 0.0
O930 O 0.19104 0.68698 0.55337 0.0
O931 O 0.21483 0.71138 0.58818 0.0
O932 O 0.19592 0.73149 0.57205 0.0
C933 C 0.15852 0.72525 0.60689 0.0
O934 O 0.19886 0.67707 0.59964 0.0
O935 O 0.16712 0.67454 0.59766 0.0
In936 In 0.41876 0.30067 0.17955 0.0
O937 O 0.41258 0.28601 0.14895 0.0
O938 O 0.39113 0.28173 0.17226 0.0
C939 C 0.45797 0.31068 0.17401 0.0
C940 C 0.39709 0.33528 0.18055 0.0
C941 C 0.42198 0.2747 0.21082 0.0
O942 O 0.44824 0.29994 0.16174 0.0
O943 O 0.4477 0.31695 0.1887 0.0
O944 O 0.41315 0.29146 0.21227 0.0
O945 O 0.4293 0.27115 0.19364 0.0
C946 C 0.39618 0.27802 0.15432 0.0
O947 O 0.40129 0.32517 0.19606 0.0
O948 O 0.40431 0.3282 0.16444 0.0
In949 In 0.70276 0.41681 0.18129 0.0
O950 O 0.6784 0.39916 0.19764 0.0
O951 O 0.67467 0.40347 0.16621 0.0
C952 C 0.7291 0.41983 0.21224 0.0
C953 C 0.72475 0.39308 0.15655 0.0
C954 C 0.69244 0.45598 0.17617 0.0
O955 O 0.71197 0.41179 0.21408 0.0
O956 O 0.7328 0.42649 0.19484 0.0
O957 O 0.70246 0.44627 0.16326 0.0
O958 O 0.68712 0.44572 0.19123 0.0
C959 C 0.66789 0.39571 0.18221 0.0
O960 O 0.71908 0.41052 0.15142 0.0
O961 O 0.7192 0.3878 0.17393 0.0
In962 In 0.58319 0.7004 0.18064 0.0
O963 O 0.60101 0.67572 0.19653 0.0
O964 O 0.59589 0.67223 0.16521 0.0
C965 C 0.57981 0.72623 0.21198 0.0
C966 C 0.60706 0.72311 0.1566 0.0
C967 C 0.54396 0.69074 0.17478 0.0
O968 O 0.58779 0.70905 0.21367 0.0
O969 O 0.57338 0.73022 0.19455 0.0
O970 O 0.5543 0.70004 0.16183 0.0
O971 O 0.55363 0.68573 0.19035 0.0
C972 C 0.60397 0.66526 0.18094 0.0
O973 O 0.58969 0.71748 0.15123 0.0
O974 O 0.61226 0.71709 0.17385 0.0
In975 In 0.29937 0.5828 0.17925 0.0
O976 O 0.28588 0.59038 0.14839 0.0
O977 O 0.28042 0.61055 0.17259 0.0
C978 C 0.30881 0.54355 0.17295 0.0
C979 C 0.33424 0.60395 0.18157 0.0
C980 C 0.2721 0.57906 0.2093 0.0
O981 O 0.29908 0.55397 0.1604 0.0
O982 O 0.31441 0.55315 0.18836 0.0
O983 O 0.28878 0.58789 0.2117 0.0
O984 O 0.26942 0.57195 0.19188 0.0
C985 C 0.27747 0.6064 0.15429 0.0
O986 O 0.32374 0.59958 0.19678 0.0
O987 O 0.32745 0.59713 0.16518 0.0
In988 In 0.41633 0.70168 0.8199 0.0
O989 O 0.39901 0.6763 0.80441 0.0
O990 O 0.40339 0.67405 0.83595 0.0
C991 C 0.41934 0.72757 0.78861 0.0
C992 C 0.39284 0.7248 0.84388 0.0
C993 C 0.45558 0.69202 0.8255 0.0
O994 O 0.41037 0.71086 0.78721 0.0
O995 O 0.42697 0.73099 0.80567 0.0
O996 O 0.44524 0.70111 0.83861 0.0
O997 O 0.4459 0.68722 0.80986 0.0
C998 C 0.3957 0.66644 0.82033 0.0
O999 O 0.41007 0.71879 0.8493 0.0
O1000 O 0.38757 0.71892 0.82661 0.0
In1001 In 0.30037 0.41785 0.82113 0.0
O1002 O 0.3241 0.4003 0.80351 0.0
O1003 O 0.32862 0.40347 0.83492 0.0
C1004 C 0.27324 0.42216 0.79103 0.0
C1005 C 0.27793 0.39496 0.84632 0.0
C1006 C 0.31057 0.45693 0.82734 0.0
O1007 O 0.28975 0.41301 0.78868 0.0
O1008 O 0.2706 0.42921 0.80847 0.0
O1009 O 0.30153 0.44643 0.84032 0.0
O1010 O 0.31519 0.44747 0.81151 0.0
C1011 C 0.33491 0.39614 0.81855 0.0
O1012 O 0.28592 0.41133 0.85178 0.0
O1013 O 0.2816 0.39006 0.82834 0.0
In1014 In 0.58321 0.29899 0.81924 0.0
O1015 O 0.59028 0.28371 0.84954 0.0
O1016 O 0.6099 0.27845 0.82486 0.0
C1017 C 0.54445 0.31044 0.82476 0.0
C1018 C 0.60552 0.33318 0.81815 0.0
C1019 C 0.57799 0.27279 0.78854 0.0
O1020 O 0.55398 0.30001 0.8375 0.0
O1021 O 0.55478 0.31572 0.80971 0.0
O1022 O 0.58879 0.28838 0.78691 0.0
O1023 O 0.56974 0.27068 0.80552 0.0
C1024 C 0.60576 0.27474 0.84301 0.0
O1025 O 0.60082 0.32334 0.80258 0.0
O1026 O 0.59857 0.32599 0.83432 0.0
In1027 In 0.69977 0.58378 0.82089 0.0
O1028 O 0.7146 0.58962 0.85153 0.0
O1029 O 0.71829 0.61157 0.8286 0.0
C1030 C 0.68927 0.54463 0.82574 0.0
C1031 C 0.66528 0.60563 0.81981 0.0
C1032 C 0.72671 0.57975 0.79058 0.0
O1033 O 0.69915 0.55434 0.83875 0.0
O1034 O 0.68405 0.55491 0.81063 0.0
O1035 O 0.71004 0.58862 0.78826 0.0
O1036 O 0.72956 0.57284 0.80804 0.0
C1037 C 0.72229 0.60624 0.84638 0.0
O1038 O 0.67641 0.60308 0.80463 0.0
O1039 O 0.67125 0.59666 0.83547 0.0
In1040 In 0.1806 0.41804 0.29951 0.0
O1041 O 0.19636 0.40035 0.32448 0.0
O1042 O 0.16484 0.40451 0.32709 0.0
C1043 C 0.21189 0.42068 0.27353 0.0
C1044 C 0.15568 0.39593 0.276 0.0
C1045 C 0.17519 0.45721 0.30978 0.0
O1046 O 0.21313 0.41157 0.29018 0.0
O1047 O 0.19496 0.42862 0.27018 0.0
O1048 O 0.16174 0.44681 0.30132 0.0
O1049 O 0.19113 0.44763 0.31369 0.0
C1050 C 0.18058 0.39679 0.33444 0.0
O1051 O 0.15122 0.41341 0.28202 0.0
O1052 O 0.17253 0.3896 0.28209 0.0
In1053 In 0.58457 0.18182 0.30058 0.0
O1054 O 0.59107 0.15176 0.28466 0.0
O1055 O 0.61303 0.17492 0.28299 0.0
C1056 C 0.54546 0.17656 0.31112 0.0
C1057 C 0.60619 0.1833 0.33517 0.0
C1058 C 0.58088 0.21253 0.27406 0.0
O1059 O 0.55527 0.16356 0.3013 0.0
O1060 O 0.55562 0.19177 0.3162 0.0
O1061 O 0.58925 0.21455 0.291 0.0
O1062 O 0.57418 0.19508 0.27064 0.0
C1063 C 0.60802 0.1573 0.278 0.0
O1064 O 0.60242 0.19859 0.32456 0.0
O1065 O 0.59851 0.16716 0.32864 0.0
In1066 In 0.81999 0.58444 0.30118 0.0
O1067 O 0.85002 0.58932 0.28488 0.0
O1068 O 0.82808 0.61251 0.28323 0.0
C1069 C 0.82492 0.54536 0.31207 0.0
C1070 C 0.81906 0.6064 0.33563 0.0
C1071 C 0.78901 0.58117 0.27487 0.0
O1072 O 0.83823 0.55518 0.30273 0.0
O1073 O 0.80949 0.55548 0.31652 0.0
O1074 O 0.7873 0.5898 0.29172 0.0
O1075 O 0.8063 0.57408 0.27142 0.0
C1076 C 0.84534 0.60645 0.27807 0.0
O1077 O 0.80365 0.60277 0.32516 0.0
O1078 O 0.83503 0.59848 0.329 0.0
In1079 In 0.41825 0.82014 0.30096 0.0
O1080 O 0.40232 0.80417 0.32692 0.0
O1081 O 0.40269 0.83606 0.32739 0.0
C1082 C 0.42148 0.78821 0.27586 0.0
C1083 C 0.39551 0.84376 0.27672 0.0
C1084 C 0.4574 0.82648 0.31074 0.0
O1085 O 0.4112 0.78769 0.29185 0.0
O1086 O 0.43033 0.80474 0.27274 0.0
O1087 O 0.44718 0.83885 0.30055 0.0
O1088 O 0.44764 0.81127 0.31659 0.0
C1089 C 0.39684 0.82004 0.33578 0.0
O1090 O 0.41144 0.85009 0.285 0.0
O1091 O 0.39107 0.8258 0.281 0.0
In1092 In 0.1818 0.58351 0.70073 0.0
O1093 O 0.1515 0.58844 0.71646 0.0
O1094 O 0.17353 0.6115 0.71868 0.0
C1095 C 0.17704 0.54457 0.68947 0.0
C1096 C 0.18336 0.60522 0.66617 0.0
C1097 C 0.21162 0.57969 0.72826 0.0
O1098 O 0.16347 0.55442 0.69841 0.0
O1099 O 0.19267 0.55463 0.68554 0.0
O1100 O 0.21379 0.58968 0.71222 0.0
O1101 O 0.19456 0.57159 0.7302 0.0
C1102 C 0.15616 0.60549 0.72349 0.0
O1103 O 0.19874 0.60114 0.67656 0.0
O1104 O 0.16719 0.59788 0.67294 0.0
In1105 In 0.41815 0.17968 0.69986 0.0
O1106 O 0.4019 0.19661 0.67472 0.0
O1107 O 0.40323 0.1648 0.67249 0.0
C1108 C 0.42271 0.21035 0.72632 0.0
C1109 C 0.39433 0.15617 0.72312 0.0
C1110 C 0.45706 0.17267 0.68969 0.0
O1111 O 0.41286 0.2122 0.71016 0.0
O1112 O 0.4304 0.19317 0.72889 0.0
O1113 O 0.44647 0.16007 0.69919 0.0
O1114 O 0.44776 0.18846 0.68466 0.0
C1115 C 0.39693 0.18108 0.66497 0.0
O1116 O 0.41084 0.14994 0.71597 0.0
O1117 O 0.38989 0.17397 0.71822 0.0
In1118 In 0.82039 0.41954 0.70045 0.0
O1119 O 0.80458 0.40168 0.67576 0.0
O1120 O 0.83582 0.40722 0.67214 0.0
C1121 C 0.78904 0.42209 0.72638 0.0
C1122 C 0.84503 0.39602 0.72291 0.0
C1123 C 0.82584 0.45872 0.69035 0.0
O1124 O 0.78756 0.41396 0.70927 0.0
O1125 O 0.80628 0.42905 0.73029 0.0
O1126 O 0.83942 0.44825 0.69855 0.0
O1127 O 0.80983 0.4492 0.68662 0.0
C1128 C 0.82016 0.39892 0.66525 0.0
O1129 O 0.84898 0.41428 0.7193 0.0
O1130 O 0.82884 0.38983 0.71517 0.0
In1131 In 0.58315 0.82123 0.70028 0.0
O1132 O 0.59041 0.85108 0.71629 0.0
O1133 O 0.61092 0.82676 0.71938 0.0
C1134 C 0.54405 0.82753 0.69024 0.0
C1135 C 0.60501 0.8202 0.66576 0.0
C1136 C 0.57902 0.79013 0.72622 0.0
O1137 O 0.55443 0.84035 0.69966 0.0
O1138 O 0.55363 0.81191 0.68524 0.0
O1139 O 0.58753 0.7883 0.70931 0.0
O1140 O 0.57236 0.80756 0.72984 0.0
C1141 C 0.60658 0.84466 0.72402 0.0
O1142 O 0.60055 0.80467 0.67573 0.0
O1143 O 0.59791 0.83634 0.67289 0.0
In1144 In 0.29954 0.18052 0.4166 0.0
O1145 O 0.28488 0.14991 0.41019 0.0
O1146 O 0.28033 0.17344 0.38906 0.0
C1147 C 0.30986 0.17453 0.45567 0.0
C1148 C 0.33425 0.1825 0.39508 0.0
C1149 C 0.27289 0.21106 0.42089 0.0
O1150 O 0.30038 0.16167 0.4454 0.0
O1151 O 0.31483 0.19011 0.44597 0.0
O1152 O 0.28882 0.21278 0.41065 0.0
O1153 O 0.27055 0.19402 0.42896 0.0
C1154 C 0.27671 0.15544 0.39393 0.0
O1155 O 0.32382 0.19776 0.39943 0.0
O1156 O 0.32747 0.16618 0.4021 0.0
In1157 In 0.29935 0.82296 0.58372 0.0
O1158 O 0.32389 0.80719 0.60193 0.0
O1159 O 0.32733 0.83848 0.59678 0.0
C1160 C 0.27389 0.79131 0.58035 0.0
C1161 C 0.27632 0.84775 0.6065 0.0
C1162 C 0.3088 0.82884 0.54441 0.0
O1163 O 0.29086 0.78995 0.58881 0.0
O1164 O 0.2699 0.80857 0.5735 0.0
O1165 O 0.29892 0.8414 0.55466 0.0
O1166 O 0.31456 0.81361 0.55421 0.0
C1167 C 0.33426 0.8228 0.60498 0.0
O1168 O 0.28353 0.85302 0.58971 0.0
O1169 O 0.28097 0.83011 0.61183 0.0
In1170 In 0.18101 0.30062 0.58302 0.0
O1171 O 0.1971 0.32423 0.60219 0.0
O1172 O 0.16625 0.32913 0.59576 0.0
C1173 C 0.21198 0.27436 0.57953 0.0
C1174 C 0.15577 0.27801 0.60567 0.0
C1175 C 0.17523 0.31044 0.54379 0.0
O1176 O 0.21401 0.29164 0.5872 0.0
O1177 O 0.19441 0.2705 0.57342 0.0
O1178 O 0.1623 0.30117 0.55415 0.0
O1179 O 0.19085 0.31536 0.55342 0.0
C1180 C 0.18185 0.33526 0.60471 0.0
O1181 O 0.1507 0.28523 0.58883 0.0
O1182 O 0.17342 0.28245 0.61112 0.0
In1183 In 0.7023 0.18123 0.58379 0.0
O1184 O 0.71725 0.15061 0.58946 0.0
O1185 O 0.72205 0.17391 0.61081 0.0
C1186 C 0.69121 0.17617 0.54481 0.0
C1187 C 0.66794 0.18212 0.60588 0.0
C1188 C 0.7288 0.21194 0.57977 0.0
O1189 O 0.70141 0.16331 0.55438 0.0
O1190 O 0.68597 0.19122 0.55517 0.0
O1191 O 0.71306 0.21338 0.59036 0.0
O1192 O 0.73096 0.19514 0.57117 0.0
C1193 C 0.72569 0.156 0.60564 0.0
O1194 O 0.67786 0.19772 0.60152 0.0
O1195 O 0.67507 0.16606 0.59864 0.0
In1196 In 0.82204 0.70327 0.58372 0.0
O1197 O 0.80436 0.67941 0.60106 0.0
O1198 O 0.83583 0.67509 0.59825 0.0
C1199 C 0.79172 0.73013 0.5792 0.0
C1200 C 0.84721 0.72563 0.60674 0.0
C1201 C 0.82848 0.69311 0.54466 0.0
O1202 O 0.78962 0.71386 0.58882 0.0
O1203 O 0.80903 0.73269 0.57181 0.0
O1204 O 0.84106 0.70285 0.55502 0.0
O1205 O 0.81295 0.68782 0.55425 0.0
C1206 C 0.81941 0.66868 0.60537 0.0
O1207 O 0.85287 0.7171 0.59072 0.0
O1208 O 0.829 0.72259 0.61122 0.0
In1209 In 0.70235 0.82228 0.41802 0.0
O1210 O 0.71735 0.85272 0.41185 0.0
O1211 O 0.72056 0.82969 0.38992 0.0
C1212 C 0.69168 0.82828 0.45699 0.0
C1213 C 0.66781 0.81973 0.39633 0.0
C1214 C 0.72979 0.79246 0.42242 0.0
O1215 O 0.70048 0.84149 0.44655 0.0
O1216 O 0.68759 0.81233 0.44751 0.0
O1217 O 0.71323 0.78986 0.41344 0.0
O1218 O 0.73231 0.80999 0.42929 0.0
C1219 C 0.72479 0.84746 0.39515 0.0
O1220 O 0.6787 0.8047 0.40036 0.0
O1221 O 0.67407 0.83609 0.40372 0.0
In1222 In 0.18056 0.70142 0.41721 0.0
O1223 O 0.15017 0.71679 0.4115 0.0
O1224 O 0.1731 0.72036 0.38956 0.0
C1225 C 0.17471 0.69174 0.4565 0.0
C1226 C 0.18186 0.66637 0.39615 0.0
C1227 C 0.2119 0.72736 0.41997 0.0
O1228 O 0.16193 0.70127 0.44618 0.0
O1229 O 0.19014 0.68642 0.44677 0.0
O1230 O 0.21264 0.7114 0.40968 0.0
O1231 O 0.19541 0.73011 0.42899 0.0
C1232 C 0.15537 0.72454 0.39494 0.0
O1233 O 0.19736 0.67617 0.40104 0.0
O1234 O 0.1656 0.67393 0.40245 0.0
In1235 In 0.82213 0.30066 0.4189 0.0
O1236 O 0.80591 0.32512 0.40095 0.0
O1237 O 0.83733 0.32854 0.40543 0.0
C1238 C 0.79137 0.27445 0.4237 0.0
C1239 C 0.84563 0.27696 0.39549 0.0
C1240 C 0.82821 0.31089 0.45789 0.0
O1241 O 0.78948 0.29069 0.41395 0.0
O1242 O 0.80862 0.27171 0.43117 0.0
O1243 O 0.84104 0.30129 0.44765 0.0
O1244 O 0.81265 0.31594 0.4482 0.0
C1245 C 0.82148 0.33549 0.39759 0.0
O1246 O 0.85208 0.28489 0.41155 0.0
O1247 O 0.82768 0.28142 0.39122 0.0
C1248 C 0.11347 0.24414 0.37546 0.0
C1249 C 0.12053 0.23674 0.35688 0.0
C1250 C 0.12531 0.25703 0.38734 0.0
C1251 C 0.14469 0.26299 0.3811 0.0
H1252 H 0.0986 0.24007 0.38084 0.0
H1253 H 0.11921 0.26237 0.40151 0.0
S1254 S 0.1704 0.24748 0.33385 0.0
N1255 N 0.14831 0.23612 0.33295 0.0
N1256 N 0.1705 0.26024 0.35519 0.0
C1257 C 0.15198 0.25558 0.36261 0.0
C1258 C 0.13993 0.24249 0.35053 0.0
C1259 C 0.74483 0.15012 0.36445 0.0
C1260 C 0.7389 0.14371 0.38377 0.0
C1261 C 0.7574 0.13826 0.35235 0.0
C1262 C 0.76467 0.11952 0.35907 0.0
H1263 H 0.73968 0.16443 0.35852 0.0
H1264 H 0.76143 0.14389 0.33756 0.0
S1265 S 0.75389 0.09589 0.40863 0.0
N1266 N 0.74141 0.11741 0.40918 0.0
N1267 N 0.76513 0.09513 0.38644 0.0
C1268 C 0.75896 0.11292 0.37841 0.0
C1269 C 0.74605 0.125 0.39074 0.0
C1270 C 0.87754 0.74494 0.3864 0.0
C1271 C 0.85779 0.73957 0.38086 0.0
C1272 C 0.88923 0.75775 0.37427 0.0
C1273 C 0.88162 0.76564 0.35611 0.0
H1274 H 0.88406 0.73923 0.40023 0.0
H1275 H 0.90439 0.76137 0.37911 0.0
S1276 S 0.8306 0.75657 0.33496 0.0
N1277 N 0.83104 0.74343 0.35606 0.0
N1278 N 0.85292 0.76738 0.33334 0.0
C1279 C 0.86185 0.76046 0.35044 0.0
C1280 C 0.84996 0.74747 0.36279 0.0
C1281 C 0.2464 0.88954 0.37382 0.0
C1282 C 0.23573 0.8812 0.3575 0.0
C1283 C 0.25908 0.8776 0.38585 0.0
C1284 C 0.26152 0.85688 0.38202 0.0
H1285 H 0.2452 0.90547 0.37716 0.0
H1286 H 0.26715 0.88472 0.39812 0.0
S1287 S 0.23581 0.82745 0.34194 0.0
N1288 N 0.22772 0.85074 0.33875 0.0
N1289 N 0.25142 0.82837 0.36127 0.0
C1290 C 0.2506 0.84829 0.36599 0.0
C1291 C 0.23774 0.86043 0.35376 0.0
C1292 C 0.12592 0.74265 0.61498 0.0
C1293 C 0.14618 0.73866 0.61986 0.0
C1294 C 0.11405 0.75536 0.62704 0.0
C1295 C 0.12197 0.76454 0.64444 0.0
H1296 H 0.11913 0.73586 0.60179 0.0
H1297 H 0.09849 0.75785 0.62277 0.0
S1298 S 0.17438 0.75962 0.66343 0.0
N1299 N 0.17377 0.74538 0.64307 0.0
N1300 N 0.15153 0.76916 0.66563 0.0
C1301 C 0.14226 0.76084 0.64937 0.0
C1302 C 0.15433 0.74793 0.63711 0.0
C1303 C 0.25809 0.14928 0.63699 0.0
C1304 C 0.26342 0.14307 0.61744 0.0
C1305 C 0.24537 0.1376 0.64912 0.0
C1306 C 0.23736 0.11923 0.64219 0.0
H1307 H 0.26378 0.16332 0.64307 0.0
H1308 H 0.24179 0.14309 0.66407 0.0
S1309 S 0.24656 0.09614 0.59208 0.0
N1310 N 0.25967 0.11728 0.59165 0.0
N1311 N 0.23569 0.09534 0.61444 0.0
C1312 C 0.24252 0.11281 0.62265 0.0
C1313 C 0.25557 0.1247 0.61029 0.0
C1314 C 0.87567 0.25647 0.61374 0.0
C1315 C 0.8578 0.2651 0.62123 0.0
C1316 C 0.88748 0.24362 0.6257 0.0
C1317 C 0.88191 0.23895 0.64562 0.0
H1318 H 0.88051 0.25951 0.59845 0.0
H1319 H 0.90107 0.2373 0.61924 0.0
S1320 S 0.83678 0.25813 0.67264 0.0
N1321 N 0.83532 0.26836 0.65002 0.0
N1322 N 0.85746 0.24433 0.67243 0.0
C1323 C 0.86416 0.24763 0.65335 0.0
C1324 C 0.85213 0.26067 0.64118 0.0
C1325 C 0.75756 0.8892 0.62584 0.0
C1326 C 0.76651 0.88134 0.64339 0.0
C1327 C 0.74445 0.8775 0.61405 0.0
C1328 C 0.73979 0.85751 0.61936 0.0
H1329 H 0.76054 0.90458 0.62125 0.0
H1330 H 0.73787 0.88423 0.60071 0.0
S1331 S 0.75984 0.82955 0.66353 0.0
N1332 N 0.77016 0.8521 0.66522 0.0
N1333 N 0.74561 0.8302 0.64316 0.0
C1334 C 0.74882 0.8494 0.63677 0.0
C1335 C 0.76215 0.86129 0.64874 0.0
C1336 C 0.35382 0.13739 0.24469 0.0
C1337 C 0.36098 0.11884 0.23733 0.0
C1338 C 0.36558 0.14939 0.25744 0.0
C1339 C 0.38497 0.14333 0.26346 0.0
H1340 H 0.33897 0.14276 0.24058 0.0
H1341 H 0.35934 0.16355 0.26262 0.0
S1342 S 0.41087 0.09608 0.24841 0.0
N1343 N 0.3888 0.09496 0.23697 0.0
N1344 N 0.4109 0.11753 0.26103 0.0
C1345 C 0.39236 0.12479 0.25627 0.0
C1346 C 0.38038 0.11256 0.24318 0.0
C1347 C 0.88548 0.38005 0.23989 0.0
C1348 C 0.88373 0.35892 0.2399 0.0
C1349 C 0.87392 0.39199 0.25302 0.0
C1350 C 0.86022 0.38319 0.26662 0.0
H1351 H 0.89561 0.38746 0.22946 0.0
H1352 H 0.87542 0.40822 0.25221 0.0
S1353 S 0.8516 0.32843 0.27412 0.0
N1354 N 0.8683 0.32966 0.25574 0.0
N1355 N 0.84667 0.352 0.28028 0.0
C1356 C 0.85881 0.36205 0.2672 0.0
C1357 C 0.87054 0.34994 0.25387 0.0
C1358 C 0.62496 0.88677 0.24474 0.0
C1359 C 0.64355 0.87994 0.23718 0.0
C1360 C 0.61331 0.87474 0.25767 0.0
C1361 C 0.61979 0.8554 0.26348 0.0
H1362 H 0.61938 0.90159 0.24078 0.0
H1363 H 0.59911 0.88066 0.26312 0.0
S1364 S 0.66723 0.8303 0.24758 0.0
N1365 N 0.6678 0.85244 0.23629 0.0
N1366 N 0.64598 0.8299 0.26047 0.0
C1367 C 0.63832 0.84835 0.25593 0.0
C1368 C 0.65017 0.86059 0.24281 0.0
C1369 C 0.11412 0.62472 0.24214 0.0
C1370 C 0.11878 0.64514 0.23881 0.0
C1371 C 0.12601 0.6127 0.25487 0.0
C1372 C 0.14302 0.62065 0.26472 0.0
H1373 H 0.10126 0.6179 0.23476 0.0
H1374 H 0.12196 0.59701 0.25679 0.0
S1375 S 0.16114 0.67352 0.26192 0.0
N1376 N 0.14123 0.67296 0.24705 0.0
N1377 N 0.16349 0.65044 0.27085 0.0
C1378 C 0.14767 0.64112 0.26176 0.0
C1379 C 0.13558 0.65334 0.24884 0.0
C1380 C 0.35148 0.86624 0.75565 0.0
C1381 C 0.35942 0.88327 0.76548 0.0
C1382 C 0.36335 0.85452 0.74275 0.0
C1383 C 0.38365 0.85934 0.73906 0.0
H1384 H 0.33591 0.8619 0.75787 0.0
H1385 H 0.35647 0.84158 0.73556 0.0
S1386 S 0.41189 0.9022 0.76131 0.0
N1387 N 0.389 0.90425 0.77083 0.0
N1388 N 0.41132 0.88221 0.74651 0.0
C1389 C 0.39186 0.87629 0.74882 0.0
C1390 C 0.37975 0.88824 0.76205 0.0
C1391 C 0.12597 0.3899 0.7453 0.0
C1392 C 0.1442 0.38242 0.73746 0.0
C1393 C 0.114 0.37821 0.75826 0.0
C1394 C 0.11979 0.35857 0.76383 0.0
H1395 H 0.12094 0.40496 0.74152 0.0
H1396 H 0.10009 0.38461 0.76392 0.0
S1397 S 0.16605 0.33179 0.74715 0.0
N1398 N 0.16734 0.354 0.73606 0.0
N1399 N 0.14495 0.33211 0.76029 0.0
C1400 C 0.13796 0.35089 0.75601 0.0
C1401 C 0.15012 0.36278 0.74286 0.0
C1402 C 0.61502 0.12263 0.74162 0.0
C1403 C 0.61806 0.14357 0.74012 0.0
C1404 C 0.62686 0.11075 0.75454 0.0
C1405 C 0.64219 0.11937 0.76638 0.0
H1406 H 0.60359 0.1153 0.73258 0.0
H1407 H 0.62423 0.09465 0.75492 0.0
S1408 S 0.65513 0.17373 0.76928 0.0
N1409 N 0.63679 0.17256 0.75253 0.0
N1410 N 0.65897 0.15029 0.77665 0.0
C1411 C 0.64503 0.14035 0.7654 0.0
C1412 C 0.63299 0.15243 0.75231 0.0
C1413 C 0.88671 0.62578 0.7576 0.0
C1414 C 0.88013 0.64464 0.76474 0.0
C1415 C 0.8747 0.61417 0.74463 0.0
C1416 C 0.85562 0.62095 0.73833 0.0
H1417 H 0.90132 0.61995 0.76198 0.0
H1418 H 0.88042 0.59975 0.73955 0.0
S1419 S 0.83126 0.66922 0.75284 0.0
N1420 N 0.85317 0.6695 0.76459 0.0
N1421 N 0.83066 0.64775 0.74032 0.0
C1422 C 0.84883 0.63976 0.7454 0.0
C1423 C 0.86105 0.65158 0.75857 0.0
C1424 C 0.24472 0.37383 0.11219 0.0
C1425 C 0.23695 0.3555 0.11949 0.0
C1426 C 0.25744 0.38585 0.12408 0.0
C1427 C 0.26284 0.38002 0.14375 0.0
H1428 H 0.24106 0.37891 0.09712 0.0
H1429 H 0.26306 0.39982 0.11779 0.0
S1430 S 0.24622 0.33352 0.17014 0.0
N1431 N 0.23541 0.33222 0.14779 0.0
N1432 N 0.25919 0.35473 0.17007 0.0
C1433 C 0.25508 0.36176 0.15127 0.0
C1434 C 0.24217 0.34953 0.13917 0.0
C1435 C 0.24288 0.62509 0.88888 0.0
C1436 C 0.23709 0.64452 0.88261 0.0
C1437 C 0.25569 0.61311 0.87703 0.0
C1438 C 0.26318 0.62009 0.85845 0.0
H1439 H 0.23747 0.61906 0.90305 0.0
H1440 H 0.25965 0.59823 0.88244 0.0
S1441 S 0.25283 0.67 0.83531 0.0
N1442 N 0.24006 0.67024 0.85663 0.0
N1443 N 0.26402 0.64782 0.83447 0.0
C1444 C 0.25758 0.63953 0.85206 0.0
C1445 C 0.24457 0.6517 0.8641 0.0
C1446 C 0.36475 0.25711 0.85114 0.0
C1447 C 0.38372 0.26399 0.85765 0.0
C1448 C 0.35286 0.24465 0.86332 0.0
C1449 C 0.35945 0.23846 0.88249 0.0
H1450 H 0.35897 0.26137 0.83648 0.0
H1451 H 0.33837 0.23981 0.85757 0.0
S1452 S 0.408 0.25221 0.90665 0.0
N1453 N 0.40859 0.26368 0.88458 0.0
N1454 N 0.38623 0.24018 0.90747 0.0
C1455 C 0.37839 0.24521 0.88923 0.0
C1456 C 0.39051 0.25799 0.87682 0.0
C1457 C 0.74072 0.3871 0.87632 0.0
C1458 C 0.73901 0.38356 0.85547 0.0
C1459 C 0.75356 0.37537 0.88839 0.0
C1460 C 0.76511 0.35965 0.88006 0.0
H1461 H 0.73193 0.39887 0.88343 0.0
H1462 H 0.75415 0.37842 0.90442 0.0
S1463 S 0.76728 0.34523 0.82605 0.0
N1464 N 0.75084 0.36386 0.82688 0.0
N1465 N 0.77481 0.34189 0.84951 0.0
C1466 C 0.76388 0.35627 0.85918 0.0
C1467 C 0.75087 0.3682 0.8469 0.0
C1468 C 0.63704 0.74222 0.85358 0.0
C1469 C 0.61673 0.73858 0.85843 0.0
C1470 C 0.64908 0.75473 0.86555 0.0
C1471 C 0.64134 0.76419 0.88287 0.0
H1472 H 0.64377 0.73533 0.8404 0.0
H1473 H 0.66464 0.75695 0.86114 0.0
S1474 S 0.58897 0.75991 0.90207 0.0
N1475 N 0.58929 0.74562 0.8817 0.0
N1476 N 0.61195 0.7692 0.90421 0.0
C1477 C 0.62103 0.76076 0.88791 0.0
C1478 C 0.60873 0.74794 0.8757 0.0
C1479 C 0.75702 0.6241 0.11447 0.0
C1480 C 0.76165 0.64407 0.11992 0.0
C1481 C 0.74433 0.61214 0.12645 0.0
C1482 C 0.73582 0.61968 0.14435 0.0
H1483 H 0.7633 0.61759 0.10089 0.0
H1484 H 0.74134 0.5968 0.12173 0.0
S1485 S 0.7426 0.67127 0.16499 0.0
N1486 N 0.75626 0.67101 0.14422 0.0
N1487 N 0.73252 0.6486 0.16666 0.0
C1488 C 0.74015 0.6397 0.14985 0.0
C1489 C 0.75303 0.65187 0.13767 0.0
C1490 C 0.37602 0.75551 0.11445 0.0
C1491 C 0.358 0.76403 0.1217 0.0
C1492 C 0.38766 0.74261 0.12651 0.0
C1493 C 0.38174 0.73776 0.1463 0.0
H1494 H 0.38113 0.75871 0.09928 0.0
H1495 H 0.40138 0.73639 0.12025 0.0
S1496 S 0.33604 0.7565 0.17264 0.0
N1497 N 0.33497 0.76693 0.15009 0.0
N1498 N 0.35678 0.74279 0.17269 0.0
C1499 C 0.36382 0.74629 0.15378 0.0
C1500 C 0.35197 0.75939 0.1415 0.0
C1501 C 0.64934 0.24278 0.13652 0.0
C1502 C 0.64322 0.23709 0.11704 0.0
C1503 C 0.63753 0.2556 0.1484 0.0
C1504 C 0.61912 0.26334 0.1413 0.0
H1505 H 0.6634 0.23727 0.14272 0.0
H1506 H 0.64293 0.25944 0.16332 0.0
S1507 S 0.59626 0.2532 0.09126 0.0
N1508 N 0.6175 0.24025 0.0911 0.0
N1509 N 0.59531 0.26442 0.11344 0.0
C1510 C 0.61281 0.25785 0.12181 0.0
C1511 C 0.62484 0.2447 0.10969 0.0
C1512 C 0.86486 0.75998 0.64888 0.0
C1513 C 0.88499 0.76419 0.64374 0.0
C1514 C 0.85288 0.74746 0.63685 0.0
C1515 C 0.86052 0.73855 0.6192 0.0
H1516 H 0.85823 0.76642 0.66233 0.0
H1517 H 0.83746 0.74477 0.64148 0.0
S1518 S 0.91237 0.74458 0.59907 0.0
N1519 N 0.91212 0.75836 0.61978 0.0
N1520 N 0.88959 0.73476 0.59717 0.0
C1521 C 0.88065 0.74258 0.61386 0.0
C1522 C 0.89287 0.75541 0.62612 0.0
C1523 C 0.24368 0.86579 0.64982 0.0
C1524 C 0.23729 0.88501 0.64355 0.0
C1525 C 0.25631 0.85396 0.63774 0.0
C1526 C 0.26315 0.86087 0.61891 0.0
H1527 H 0.23889 0.85976 0.66421 0.0
H1528 H 0.26073 0.83925 0.64328 0.0
S1529 S 0.25093 0.91019 0.59549 0.0
N1530 N 0.23882 0.91047 0.61722 0.0
N1531 N 0.26262 0.88824 0.59452 0.0
C1532 C 0.25693 0.88008 0.61242 0.0
C1533 C 0.24398 0.89213 0.62472 0.0
C1534 C 0.1375 0.24476 0.64841 0.0
C1535 C 0.11799 0.23914 0.64232 0.0
C1536 C 0.14948 0.25738 0.63648 0.0
C1537 C 0.14245 0.26496 0.61798 0.0
H1538 H 0.14364 0.23937 0.66254 0.0
H1539 H 0.16441 0.26118 0.64186 0.0
S1540 S 0.09233 0.25501 0.59521 0.0
N1541 N 0.09208 0.24225 0.61657 0.0
N1542 N 0.11461 0.26602 0.59414 0.0
C1543 C 0.12294 0.25952 0.61169 0.0
C1544 C 0.11072 0.2466 0.62385 0.0
C1545 C 0.76089 0.13827 0.64699 0.0
C1546 C 0.76541 0.1183 0.64149 0.0
C1547 C 0.74806 0.15022 0.63529 0.0
C1548 C 0.73912 0.14272 0.61759 0.0
H1549 H 0.76728 0.14478 0.66053 0.0
H1550 H 0.74511 0.16549 0.64024 0.0
S1551 S 0.74597 0.09138 0.59647 0.0
N1552 N 0.75992 0.09151 0.61707 0.0
N1553 N 0.73572 0.11401 0.59505 0.0
C1554 C 0.74352 0.12279 0.61182 0.0
C1555 C 0.75668 0.11059 0.62376 0.0
C1556 C 0.89033 0.24751 0.37497 0.0
C1557 C 0.88202 0.23713 0.35846 0.0
C1558 C 0.87848 0.26034 0.38693 0.0
C1559 C 0.85788 0.26324 0.38281 0.0
H1560 H 0.90618 0.24596 0.37855 0.0
H1561 H 0.88558 0.26816 0.39937 0.0
S1562 S 0.82853 0.23846 0.34209 0.0
N1563 N 0.85169 0.2299 0.33918 0.0
N1564 N 0.82949 0.25389 0.36156 0.0
C1565 C 0.84931 0.25263 0.36656 0.0
C1566 C 0.86136 0.23961 0.35442 0.0
C1567 C 0.75804 0.86544 0.35229 0.0
C1568 C 0.76405 0.8848 0.35846 0.0
C1569 C 0.74528 0.85361 0.36422 0.0
C1570 C 0.73793 0.86066 0.38282 0.0
H1571 H 0.76321 0.85929 0.33808 0.0
H1572 H 0.74118 0.83878 0.35877 0.0
S1573 S 0.74906 0.91039 0.4059 0.0
N1574 N 0.76164 0.91057 0.38444 0.0
N1575 N 0.7376 0.88833 0.40688 0.0
C1576 C 0.74378 0.88002 0.3892 0.0
C1577 C 0.75685 0.89208 0.37704 0.0
C1578 C 0.14886 0.74505 0.36408 0.0
C1579 C 0.14208 0.73781 0.38282 0.0
C1580 C 0.1369 0.75781 0.35228 0.0
C1581 C 0.11767 0.76397 0.35873 0.0
H1582 H 0.16357 0.74082 0.3584 0.0
H1583 H 0.14285 0.76288 0.33795 0.0
S1584 S 0.0928 0.74935 0.40666 0.0
N1585 N 0.11481 0.73776 0.40733 0.0
N1586 N 0.09234 0.76184 0.38515 0.0
C1587 C 0.11067 0.75691 0.37747 0.0
C1588 C 0.12286 0.74381 0.38949 0.0
C1589 C 0.24258 0.13778 0.35162 0.0
C1590 C 0.23765 0.11792 0.35716 0.0
C1591 C 0.25524 0.14967 0.3636 0.0
C1592 C 0.26357 0.14221 0.3816 0.0
H1593 H 0.23662 0.14427 0.33788 0.0
H1594 H 0.25849 0.16488 0.35864 0.0
S1595 S 0.25557 0.09108 0.40286 0.0
N1596 N 0.24219 0.09123 0.38188 0.0
N1597 N 0.26605 0.1136 0.4044 0.0
C1598 C 0.25882 0.12235 0.38735 0.0
C1599 C 0.24584 0.11022 0.37515 0.0
C1600 C 0.62637 0.88891 0.7547 0.0
C1601 C 0.64353 0.88084 0.76419 0.0
C1602 C 0.61447 0.87714 0.74173 0.0
C1603 C 0.61929 0.85686 0.73778 0.0
H1604 H 0.6222 0.9045 0.7571 0.0
H1605 H 0.60148 0.88405 0.73467 0.0
S1606 S 0.66213 0.82824 0.75969 0.0
N1607 N 0.66433 0.85107 0.76927 0.0
N1608 N 0.64209 0.82905 0.74501 0.0
C1609 C 0.63626 0.84854 0.74743 0.0
C1610 C 0.64834 0.8605 0.7606 0.0
C1611 C 0.14868 0.63688 0.74276 0.0
C1612 C 0.14275 0.61744 0.73676 0.0
C1613 C 0.13668 0.6485 0.75564 0.0
C1614 C 0.11826 0.64117 0.76312 0.0
H1615 H 0.16275 0.64325 0.73748 0.0
H1616 H 0.14195 0.6634 0.75973 0.0
S1617 S 0.09589 0.59107 0.75219 0.0
N1618 N 0.11722 0.59126 0.73939 0.0
N1619 N 0.09466 0.61312 0.76366 0.0
C1620 C 0.11211 0.62173 0.75729 0.0
C1621 C 0.12434 0.60987 0.74409 0.0
C1622 C 0.37573 0.11273 0.75559 0.0
C1623 C 0.35727 0.11995 0.76313 0.0
C1624 C 0.38757 0.12446 0.74254 0.0
C1625 C 0.38142 0.14387 0.73659 0.0
H1626 H 0.38106 0.09786 0.7597 0.0
H1627 H 0.40167 0.11826 0.73715 0.0
S1628 S 0.3344 0.16988 0.75227 0.0
N1629 N 0.33347 0.14785 0.76376 0.0
N1630 N 0.35565 0.16981 0.73937 0.0
C1631 C 0.36301 0.15128 0.74408 0.0
C1632 C 0.35097 0.13935 0.75731 0.0
C1633 C 0.8851 0.37939 0.76041 0.0
C1634 C 0.88213 0.35841 0.76157 0.0
C1635 C 0.87325 0.39144 0.74766 0.0
C1636 C 0.85797 0.38298 0.73563 0.0
H1637 H 0.89655 0.3866 0.76953 0.0
H1638 H 0.87592 0.40754 0.74745 0.0
S1639 S 0.84496 0.32867 0.7321 0.0
N1640 N 0.86332 0.32961 0.74884 0.0
N1641 N 0.84114 0.3522 0.72503 0.0
C1642 C 0.85509 0.36199 0.73639 0.0
C1643 C 0.86714 0.34973 0.74931 0.0
C1644 C 0.62511 0.11409 0.24438 0.0
C1645 C 0.64458 0.12004 0.23845 0.0
C1646 C 0.61345 0.12608 0.25736 0.0
C1647 C 0.62081 0.14451 0.26485 0.0
H1648 H 0.61878 0.10005 0.23897 0.0
H1649 H 0.5985 0.12092 0.2614 0.0
S1650 S 0.67106 0.16676 0.25427 0.0
N1651 N 0.67081 0.14551 0.24137 0.0
N1652 N 0.64898 0.16796 0.26562 0.0
C1653 C 0.64031 0.15057 0.25913 0.0
C1654 C 0.65217 0.13837 0.24597 0.0
C1655 C 0.86456 0.64967 0.24602 0.0
C1656 C 0.88292 0.64238 0.23833 0.0
C1657 C 0.85266 0.63796 0.25891 0.0
C1658 C 0.85863 0.61847 0.26472 0.0
H1659 H 0.85926 0.6646 0.24207 0.0
H1660 H 0.83864 0.64431 0.26435 0.0
S1661 S 0.90539 0.59223 0.24878 0.0
N1662 N 0.90653 0.61435 0.23744 0.0
N1663 N 0.88415 0.59232 0.26174 0.0
C1664 C 0.87698 0.61095 0.25719 0.0
C1665 C 0.88911 0.6229 0.24398 0.0
C1666 C 0.37629 0.88868 0.24669 0.0
C1667 C 0.35932 0.88083 0.23669 0.0
C1668 C 0.38795 0.8766 0.25958 0.0
C1669 C 0.3831 0.85622 0.26292 0.0
H1670 H 0.38048 0.90433 0.24477 0.0
H1671 H 0.40079 0.88335 0.26708 0.0
S1672 S 0.34078 0.8281 0.23945 0.0
N1673 N 0.33869 0.85117 0.23043 0.0
N1674 N 0.36053 0.82856 0.25453 0.0
C1675 C 0.36635 0.84812 0.25273 0.0
C1676 C 0.35449 0.8604 0.23966 0.0
C1677 C 0.14845 0.36415 0.25724 0.0
C1678 C 0.14257 0.3838 0.26257 0.0
C1679 C 0.1366 0.35226 0.24447 0.0
C1680 C 0.11837 0.35952 0.23644 0.0
H1681 H 0.16235 0.35781 0.26299 0.0
H1682 H 0.14181 0.3372 0.24092 0.0
S1683 S 0.09621 0.41007 0.24553 0.0
N1684 N 0.11731 0.4101 0.25871 0.0
N1685 N 0.09502 0.38773 0.23465 0.0
C1686 C 0.11231 0.37919 0.24155 0.0
C1687 C 0.12439 0.39132 0.25463 0.0
C1688 C 0.75604 0.6486 0.8646 0.0
C1689 C 0.76191 0.6423 0.88397 0.0
C1690 C 0.74313 0.63689 0.85272 0.0
C1691 C 0.73549 0.61839 0.85971 0.0
H1692 H 0.76148 0.66272 0.85848 0.0
H1693 H 0.73918 0.64242 0.83788 0.0
S1694 S 0.74602 0.59511 0.90947 0.0
N1695 N 0.75896 0.61635 0.90971 0.0
N1696 N 0.73464 0.59434 0.88736 0.0
C1697 C 0.74113 0.61191 0.87909 0.0
C1698 C 0.75436 0.62385 0.89121 0.0
C1699 C 0.75898 0.37579 0.11395 0.0
C1700 C 0.76304 0.35559 0.11899 0.0
C1701 C 0.74636 0.38776 0.126 0.0
C1702 C 0.73738 0.37999 0.14358 0.0
H1703 H 0.76567 0.38247 0.10065 0.0
H1704 H 0.74383 0.40328 0.12163 0.0
S1705 S 0.74241 0.32773 0.16295 0.0
N1706 N 0.75649 0.32818 0.14247 0.0
N1707 N 0.73291 0.35061 0.16504 0.0
C1708 C 0.74111 0.35974 0.14864 0.0
C1709 C 0.7539 0.34757 0.13637 0.0
C1710 C 0.62475 0.75729 0.11407 0.0
C1711 C 0.64453 0.76229 0.11984 0.0
C1712 C 0.61278 0.74446 0.12592 0.0
C1713 C 0.62013 0.73617 0.14401 0.0
H1714 H 0.61841 0.76333 0.1003 0.0
H1715 H 0.59761 0.74114 0.1209 0.0
S1716 S 0.67111 0.74419 0.16568 0.0
N1717 N 0.67103 0.75766 0.14479 0.0
N1718 N 0.64862 0.73367 0.16696 0.0
C1719 C 0.63994 0.74096 0.14989 0.0
C1720 C 0.65211 0.75398 0.13784 0.0
C1721 C 0.25442 0.63572 0.14959 0.0
C1722 C 0.26455 0.61908 0.14121 0.0
C1723 C 0.24171 0.64782 0.13791 0.0
C1724 C 0.23853 0.6438 0.11735 0.0
H1725 H 0.25622 0.63942 0.16539 0.0
H1726 H 0.23425 0.66042 0.14514 0.0
S1727 S 0.26192 0.6024 0.08788 0.0
N1728 N 0.27085 0.59942 0.11091 0.0
N1729 N 0.24689 0.6222 0.08893 0.0
C1730 C 0.24863 0.62728 0.10869 0.0
C1731 C 0.26165 0.61493 0.12062 0.0
C1732 C 0.35368 0.24442 0.13619 0.0
C1733 C 0.35979 0.23878 0.11669 0.0
C1734 C 0.36551 0.25718 0.14811 0.0
C1735 C 0.38393 0.26491 0.14102 0.0
H1736 H 0.33963 0.2389 0.14239 0.0
H1737 H 0.36013 0.26097 0.16304 0.0
S1738 S 0.40672 0.25495 0.09091 0.0
N1739 N 0.38547 0.24202 0.09073 0.0
N1740 N 0.40771 0.26608 0.11313 0.0
C1741 C 0.39022 0.25949 0.1215 0.0
C1742 C 0.37816 0.24641 0.10935 0.0
C1743 C 0.25659 0.36455 0.85216 0.0
C1744 C 0.2648 0.38264 0.85956 0.0
C1745 C 0.24376 0.3527 0.86398 0.0
C1746 C 0.23852 0.35846 0.8837 0.0
H1747 H 0.26005 0.35945 0.83704 0.0
H1748 H 0.23786 0.33891 0.85753 0.0
S1749 S 0.25609 0.40439 0.91036 0.0
N1750 N 0.26689 0.4057 0.88798 0.0
N1751 N 0.2427 0.38342 0.91022 0.0
C1752 C 0.24664 0.37649 0.89136 0.0
C1753 C 0.2598 0.38857 0.8793 0.0
C1754 C 0.62604 0.2459 0.88825 0.0
C1755 C 0.64195 0.2346 0.87994 0.0
C1756 C 0.6143 0.25876 0.87622 0.0
C1757 C 0.61803 0.26079 0.85544 0.0
H1758 H 0.62284 0.24508 0.90423 0.0
H1759 H 0.60238 0.26735 0.88332 0.0
S1760 S 0.65697 0.2333 0.82605 0.0
N1761 N 0.66013 0.22548 0.84944 0.0
N1762 N 0.63816 0.24954 0.8269 0.0
C1763 C 0.6336 0.24919 0.84687 0.0
C1764 C 0.64553 0.23613 0.8591 0.0
C1765 C 0.37499 0.75742 0.88751 0.0
C1766 C 0.35577 0.76379 0.88121 0.0
C1767 C 0.38685 0.74474 0.87541 0.0
C1768 C 0.37995 0.73799 0.85653 0.0
H1769 H 0.38093 0.76217 0.90195 0.0
H1770 H 0.40154 0.74025 0.88092 0.0
S1771 S 0.33074 0.75046 0.83295 0.0
N1772 N 0.33043 0.76244 0.85473 0.0
N1773 N 0.35264 0.73873 0.83206 0.0
C1774 C 0.36077 0.7443 0.85002 0.0
C1775 C 0.34871 0.75716 0.86234 0.0
C1776 C 0.08823 0.24119 0.25562 0.0
C1777 C 0.07823 0.24404 0.2741 0.0
C1778 C 0.0882 0.25618 0.24073 0.0
C1779 C 0.07814 0.27461 0.24371 0.0
H1780 H 0.09647 0.2274 0.25274 0.0
H1781 H 0.0964 0.2534 0.22689 0.0
S1782 S 0.04875 0.28921 0.28905 0.0
N1783 N 0.05732 0.26645 0.29424 0.0
N1784 N 0.05724 0.29456 0.2663 0.0
C1785 C 0.06766 0.27747 0.26193 0.0
C1786 C 0.0677 0.26221 0.2771 0.0
C1787 C 0.73952 0.07146 0.27669 0.0
C1788 C 0.75865 0.07972 0.27283 0.0
C1789 C 0.72457 0.07104 0.26179 0.0
C1790 C 0.72815 0.07888 0.24241 0.0
H1791 H 0.73588 0.06555 0.29146 0.0
H1792 H 0.70998 0.06485 0.26566 0.0
S1793 S 0.77612 0.10113 0.22418 0.0
N1794 N 0.78067 0.09514 0.24789 0.0
N1795 N 0.75258 0.09437 0.21988 0.0
C1796 C 0.74739 0.0867 0.23816 0.0
C1797 C 0.76264 0.08712 0.25336 0.0
C1798 C 0.93125 0.72612 0.26001 0.0
C1799 C 0.92158 0.7289 0.24136 0.0
C1800 C 0.93133 0.74129 0.27468 0.0
C1801 C 0.92173 0.75988 0.2713 0.0
H1802 H 0.93859 0.71196 0.26351 0.0
H1803 H 0.93871 0.73823 0.28891 0.0
S1804 S 0.89508 0.77522 0.22456 0.0
N1805 N 0.90278 0.75201 0.21999 0.0
N1806 N 0.90291 0.78055 0.24756 0.0
C1807 C 0.91242 0.7631 0.25252 0.0
C1808 C 0.91234 0.74761 0.23755 0.0
C1809 C 0.26233 0.9295 0.27587 0.0
C1810 C 0.24339 0.92075 0.27213 0.0
C1811 C 0.27744 0.9296 0.26114 0.0
C1812 C 0.27425 0.92095 0.24206 0.0
H1813 H 0.26567 0.93614 0.2904 0.0
H1814 H 0.29183 0.93631 0.2649 0.0
S1815 S 0.22705 0.89671 0.22433 0.0
N1816 N 0.22206 0.90366 0.24769 0.0
N1817 N 0.25048 0.90385 0.21999 0.0
C1818 C 0.25525 0.91246 0.23794 0.0
C1819 C 0.23983 0.91236 0.25298 0.0
C1820 C 0.07095 0.72455 0.7406 0.0
C1821 C 0.08063 0.7272 0.75927 0.0
C1822 C 0.0714 0.7396 0.72581 0.0
C1823 C 0.08153 0.75793 0.72907 0.0
H1824 H 0.06318 0.71061 0.7372 0.0
H1825 H 0.06393 0.73668 0.71159 0.0
S1826 S 0.10865 0.77275 0.77571 0.0
N1827 N 0.10018 0.74985 0.78046 0.0
N1828 N 0.10101 0.77814 0.75265 0.0
C1829 C 0.09094 0.76098 0.74783 0.0
C1830 C 0.09048 0.74562 0.76293 0.0
C1831 C 0.27505 0.06995 0.74133 0.0
C1832 C 0.2725 0.08036 0.75962 0.0
C1833 C 0.26016 0.07027 0.72639 0.0
C1834 C 0.24211 0.08104 0.7291 0.0
H1835 H 0.28882 0.0617 0.73834 0.0
H1836 H 0.26302 0.06225 0.71246 0.0
S1837 S 0.22758 0.11012 0.77464 0.0
N1838 N 0.2502 0.10121 0.77992 0.0
N1839 N 0.22219 0.10183 0.75181 0.0
C1840 C 0.23912 0.09113 0.74752 0.0
C1841 C 0.25431 0.09079 0.76277 0.0
C1842 C 0.91258 0.25702 0.76065 0.0
C1843 C 0.92462 0.27436 0.75865 0.0
C1844 C 0.91261 0.24192 0.74587 0.0
C1845 C 0.92468 0.24358 0.72852 0.0
H1846 H 0.90264 0.2553 0.77348 0.0
H1847 H 0.9027 0.22911 0.74784 0.0
S1848 S 0.96036 0.2851 0.71697 0.0
N1849 N 0.94997 0.29166 0.73859 0.0
N1850 N 0.95003 0.26333 0.71086 0.0
C1851 C 0.93736 0.26048 0.7267 0.0
C1852 C 0.93733 0.27585 0.74175 0.0
C1853 C 0.7467 0.91409 0.76032 0.0
C1854 C 0.72742 0.922 0.75642 0.0
C1855 C 0.76181 0.91428 0.74552 0.0
C1856 C 0.75821 0.92239 0.72626 0.0
H1857 H 0.75011 0.90744 0.77483 0.0
H1858 H 0.77632 0.90776 0.74915 0.0
S1859 S 0.71045 0.94563 0.70859 0.0
N1860 N 0.70573 0.93868 0.73199 0.0
N1861 N 0.73403 0.93903 0.70427 0.0
C1862 C 0.7391 0.93069 0.72228 0.0
C1863 C 0.72374 0.9305 0.73733 0.0
C1864 C 0.26173 0.07027 0.27414 0.0
C1865 C 0.24347 0.08061 0.27111 0.0
C1866 C 0.27688 0.0703 0.25946 0.0
C1867 C 0.2744 0.08065 0.24113 0.0
H1868 H 0.26452 0.06229 0.2881 0.0
H1869 H 0.29076 0.06233 0.26267 0.0
S1870 S 0.22908 0.10942 0.22536 0.0
N1871 N 0.2235 0.101 0.24809 0.0
N1872 N 0.25199 0.10103 0.22047 0.0
C1873 C 0.25605 0.09071 0.23768 0.0
C1874 C 0.24059 0.09069 0.25267 0.0
C1875 C 0.91585 0.25708 0.24057 0.0
C1876 C 0.92421 0.27623 0.24418 0.0
C1877 C 0.91575 0.24218 0.25556 0.0
C1878 C 0.92396 0.24586 0.27477 0.0
H1879 H 0.90906 0.25363 0.22614 0.0
H1880 H 0.90889 0.22777 0.25213 0.0
S1881 S 0.94825 0.29332 0.29175 0.0
N1882 N 0.9414 0.29788 0.26829 0.0
N1883 N 0.94117 0.26995 0.2964 0.0
C1884 C 0.93272 0.26481 0.27846 0.0
C1885 C 0.93287 0.27997 0.26319 0.0
C1886 C 0.75997 0.91483 0.25515 0.0
C1887 C 0.75664 0.92387 0.27405 0.0
C1888 C 0.74493 0.91465 0.2403 0.0
C1889 C 0.72596 0.92346 0.24378 0.0
H1890 H 0.77422 0.90758 0.25187 0.0
H1891 H 0.7481 0.90723 0.22611 0.0
S1892 S 0.70986 0.94984 0.29045 0.0
N1893 N 0.73312 0.94246 0.29517 0.0
N1894 N 0.70492 0.94209 0.26735 0.0
C1895 C 0.72258 0.93293 0.26246 0.0
C1896 C 0.73789 0.93314 0.27756 0.0
C1897 C 0.08871 0.746 0.2408 0.0
C1898 C 0.07678 0.72858 0.24273 0.0
C1899 C 0.08889 0.76085 0.25584 0.0
C1900 C 0.07714 0.75885 0.27338 0.0
H1901 H 0.09839 0.74797 0.2278 0.0
H1902 H 0.09867 0.77377 0.25389 0.0
S1903 S 0.04191 0.71694 0.28493 0.0
N1904 N 0.05192 0.71081 0.263 0.0
N1905 N 0.05225 0.73867 0.2912 0.0
C1906 C 0.0646 0.74185 0.27516 0.0
C1907 C 0.06441 0.72674 0.25986 0.0
C1908 C 0.26125 0.93214 0.72694 0.0
C1909 C 0.2425 0.92278 0.73011 0.0
C1910 C 0.27621 0.93198 0.74182 0.0
C1911 C 0.27304 0.92246 0.7605 0.0
H1912 H 0.26459 0.93939 0.7127 0.0
H1913 H 0.2905 0.93912 0.73849 0.0
S1914 S 0.22614 0.89669 0.77682 0.0
N1915 N 0.22126 0.9044 0.75368 0.0
N1916 N 0.24939 0.90411 0.78167 0.0
C1917 C 0.25417 0.91346 0.76409 0.0
C1918 C 0.23891 0.91362 0.7489 0.0
C1919 C 0.08611 0.24252 0.74588 0.0
C1920 C 0.07742 0.24602 0.72686 0.0
C1921 C 0.08589 0.25737 0.76093 0.0
C1922 C 0.07698 0.27631 0.75753 0.0
H1923 H 0.09345 0.2283 0.74911 0.0
H1924 H 0.09309 0.25408 0.7752 0.0
S1925 S 0.0513 0.29278 0.71059 0.0
N1926 N 0.05899 0.26964 0.7057 0.0
N1927 N 0.05858 0.29748 0.73389 0.0
C1928 C 0.0678 0.27984 0.73873 0.0
C1929 C 0.06802 0.26472 0.72342 0.0
C1930 C 0.74607 0.08642 0.76003 0.0
C1931 C 0.7265 0.07935 0.75596 0.0
C1932 C 0.76102 0.08646 0.74509 0.0
C1933 C 0.757 0.07938 0.72551 0.0
H1934 H 0.74985 0.09217 0.77483 0.0
H1935 H 0.77581 0.09222 0.74891 0.0
S1936 S 0.70823 0.05901 0.70711 0.0
N1937 N 0.70397 0.06486 0.7309 0.0
N1938 N 0.73201 0.0649 0.70291 0.0
C1939 C 0.73755 0.07204 0.72129 0.0
C1940 C 0.72233 0.07203 0.73649 0.0
C1941 C 0.93041 0.72439 0.74115 0.0
C1942 C 0.92228 0.72811 0.76037 0.0
C1943 C 0.93065 0.73936 0.72629 0.0
C1944 C 0.9228 0.75869 0.73002 0.0
H1945 H 0.93636 0.70967 0.73738 0.0
H1946 H 0.93679 0.73559 0.71164 0.0
S1947 S 0.90074 0.77655 0.77823 0.0
N1948 N 0.90687 0.75284 0.78262 0.0
N1949 N 0.90735 0.78101 0.75467 0.0
C1950 C 0.91507 0.76281 0.74934 0.0
C1951 C 0.9148 0.74752 0.76451 0.0
C1952 C 0.24195 0.25505 0.08949 0.0
C1953 C 0.24332 0.27227 0.07718 0.0
C1954 C 0.25717 0.24038 0.0895 0.0
C1955 C 0.27433 0.24237 0.0772 0.0
H1956 H 0.22926 0.2531 0.09956 0.0
H1957 H 0.25566 0.22763 0.09957 0.0
S1958 S 0.28428 0.28371 0.04082 0.0
N1959 N 0.26261 0.28979 0.05139 0.0
N1960 N 0.29114 0.26227 0.0514 0.0
C1961 C 0.27554 0.25916 0.06431 0.0
C1962 C 0.26006 0.27409 0.0643 0.0
C1963 C 0.2601 0.7252 0.93178 0.0
C1964 C 0.241 0.72887 0.92334 0.0
C1965 C 0.27508 0.74003 0.93183 0.0
C1966 C 0.27161 0.75919 0.92345 0.0
H1967 H 0.26369 0.71058 0.9381 0.0
H1968 H 0.28964 0.73628 0.93818 0.0
S1969 S 0.22376 0.77696 0.90055 0.0
N1970 N 0.21911 0.75344 0.90718 0.0
N1971 N 0.2473 0.78137 0.90727 0.0
C1972 C 0.2524 0.76331 0.91546 0.0
C1973 C 0.23709 0.74815 0.91541 0.0
C1974 C 0.24187 0.25635 0.91058 0.0
C1975 C 0.24341 0.27352 0.92293 0.0
C1976 C 0.25697 0.24155 0.91051 0.0
C1977 C 0.27417 0.24335 0.92278 0.0
H1978 H 0.22914 0.25453 0.90053 0.0
H1979 H 0.25534 0.22883 0.90041 0.0
S1980 S 0.28456 0.28453 0.95923 0.0
N1981 N 0.26291 0.29081 0.94872 0.0
N1982 N 0.29121 0.26306 0.94859 0.0
C1983 C 0.27555 0.2601 0.93571 0.0
C1984 C 0.2602 0.27516 0.93578 0.0
C1985 C 0.74502 0.24118 0.91447 0.0
C1986 C 0.72531 0.24517 0.92119 0.0
C1987 C 0.75984 0.25626 0.91448 0.0
C1988 C 0.75553 0.2759 0.92121 0.0
H1989 H 0.74902 0.22635 0.90895 0.0
H1990 H 0.77474 0.2525 0.90896 0.0
S1991 S 0.70633 0.29406 0.94075 0.0
N1992 N 0.70237 0.27018 0.9351 0.0
N1993 N 0.73015 0.29842 0.93512 0.0
C1994 C 0.73595 0.28002 0.92824 0.0
C1995 C 0.72087 0.26468 0.92823 0.0
C1996 C 0.72527 0.74049 0.93216 0.0
C1997 C 0.72809 0.75877 0.92179 0.0
C1998 C 0.74012 0.72551 0.93218 0.0
C1999 C 0.75842 0.72815 0.9218 0.0
H2000 H 0.71132 0.73756 0.94013 0.0
H2001 H 0.73706 0.7116 0.94015 0.0
S2002 S 0.7737 0.77362 0.89301 0.0
N2003 N 0.75091 0.77897 0.90141 0.0
N2004 N 0.77883 0.75078 0.90142 0.0
C2005 C 0.76166 0.74654 0.91174 0.0
C2006 C 0.74651 0.76184 0.91175 0.0
C2007 C 0.76027 0.74483 0.08958 0.0
C2008 C 0.75847 0.72761 0.07732 0.0
C2009 C 0.74541 0.75986 0.08957 0.0
C2010 C 0.72819 0.75825 0.0773 0.0
H2011 H 0.77299 0.74647 0.09967 0.0
H2012 H 0.74719 0.77257 0.09966 0.0
S2013 S 0.71728 0.71715 0.04092 0.0
N2014 N 0.7388 0.71056 0.0515 0.0
N2015 N 0.71093 0.73875 0.05148 0.0
C2016 C 0.7266 0.7415 0.06439 0.0
C2017 C 0.74172 0.72621 0.0644 0.0
C2018 C 0.25987 0.72831 0.06934 0.0
C2019 C 0.2425 0.73033 0.08134 0.0
C2020 C 0.27497 0.74303 0.0694 0.0
C2021 C 0.27335 0.7604 0.08142 0.0
H2022 H 0.26199 0.71509 0.06 0.0
H2023 H 0.28816 0.7406 0.06009 0.0
S2024 S 0.23067 0.77322 0.11524 0.0
N2025 N 0.22434 0.75131 0.1053 0.0
N2026 N 0.25276 0.77902 0.10538 0.0
C2027 C 0.25588 0.76285 0.0932 0.0
C2028 C 0.24046 0.74781 0.09316 0.0
C2029 C 0.72529 0.26041 0.06976 0.0
C2030 C 0.72889 0.24132 0.07824 0.0
C2031 C 0.74024 0.2753 0.06956 0.0
C2032 C 0.75944 0.27171 0.07782 0.0
H2033 H 0.71066 0.26408 0.06352 0.0
H2034 H 0.73655 0.28987 0.06319 0.0
S2035 S 0.77701 0.22382 0.10079 0.0
N2036 N 0.75341 0.21932 0.09434 0.0
N2037 N 0.78154 0.24731 0.09395 0.0
C2038 C 0.76346 0.25251 0.08586 0.0
C2039 C 0.74819 0.23732 0.08608 0.0
C2040 C 0.5703 0.77763 0.7606 0.0
C2041 C 0.57797 0.77364 0.74124 0.0
C2042 C 0.57035 0.76284 0.77564 0.0
C2043 C 0.57803 0.74343 0.77196 0.0
H2044 H 0.56454 0.79244 0.76434 0.0
H2045 H 0.56459 0.76681 0.79039 0.0
S2046 S 0.59879 0.72487 0.72343 0.0
N2047 N 0.59269 0.74856 0.71892 0.0
N2048 N 0.59274 0.72072 0.74721 0.0
C2049 C 0.58525 0.73904 0.75251 0.0
C2050 C 0.58524 0.75414 0.73716 0.0
C2051 C 0.24572 0.58882 0.74161 0.0
C2052 C 0.22744 0.57832 0.74398 0.0
C2053 C 0.26044 0.5887 0.75678 0.0
C2054 C 0.25745 0.57811 0.77491 0.0
H2055 H 0.24857 0.59748 0.72808 0.0
H2056 H 0.27411 0.5973 0.7544 0.0
S2057 S 0.2127 0.54723 0.78813 0.0
N2058 N 0.20756 0.55631 0.76555 0.0
N2059 N 0.23516 0.55613 0.79399 0.0
C2060 C 0.23946 0.56714 0.77726 0.0
C2061 C 0.22449 0.56723 0.76182 0.0
C2062 C 0.41292 0.24444 0.73921 0.0
C2063 C 0.42412 0.22659 0.74161 0.0
C2064 C 0.41283 0.25939 0.75415 0.0
C2065 C 0.42393 0.25708 0.77207 0.0
H2066 H 0.4038 0.24673 0.72587 0.0
H2067 H 0.40365 0.27268 0.75178 0.0
S2068 S 0.45693 0.2138 0.78511 0.0
N2069 N 0.44747 0.20794 0.76287 0.0
N2070 N 0.44729 0.23599 0.79088 0.0
C2071 C 0.43568 0.23958 0.7744 0.0
C2072 C 0.43577 0.22435 0.75919 0.0
C2073 C 0.75985 0.43306 0.77425 0.0
C2074 C 0.74139 0.42311 0.77114 0.0
C2075 C 0.77497 0.43292 0.75954 0.0
C2076 C 0.77225 0.42288 0.74108 0.0
H2077 H 0.76285 0.44074 0.78834 0.0
H2078 H 0.78902 0.44055 0.76283 0.0
S2079 S 0.72632 0.39526 0.72502 0.0
N2080 N 0.72096 0.40348 0.74788 0.0
N2081 N 0.74937 0.40326 0.72019 0.0
C2082 C 0.75367 0.41328 0.73752 0.0
C2083 C 0.73826 0.41339 0.75256 0.0
C2084 C 0.57173 0.2249 0.23972 0.0
C2085 C 0.57988 0.22887 0.25889 0.0
C2086 C 0.57172 0.23959 0.22457 0.0
C2087 C 0.57988 0.25885 0.22796 0.0
H2088 H 0.5656 0.21018 0.23622 0.0
H2089 H 0.56559 0.23564 0.20997 0.0
S2090 S 0.60194 0.27738 0.27592 0.0
N2091 N 0.5955 0.25384 0.28073 0.0
N2092 N 0.5955 0.28146 0.25224 0.0
C2093 C 0.58759 0.26324 0.24722 0.0
C2094 C 0.58759 0.24826 0.26268 0.0
C2095 C 0.77622 0.57181 0.24076 0.0
C2096 C 0.77247 0.58011 0.2599 0.0
C2097 C 0.7613 0.57152 0.22585 0.0
C2098 C 0.74199 0.57951 0.22945 0.0
H2099 H 0.79092 0.56573 0.2371 0.0
H2100 H 0.76508 0.56524 0.21126 0.0
S2101 S 0.72409 0.60207 0.27741 0.0
N2102 N 0.74775 0.59585 0.28193 0.0
N2103 N 0.71968 0.5953 0.25388 0.0
C2104 C 0.73786 0.58744 0.24868 0.0
C2105 C 0.7531 0.58775 0.2639 0.0
C2106 C 0.43339 0.75851 0.22852 0.0
C2107 C 0.42205 0.74076 0.23088 0.0
C2108 C 0.43348 0.77349 0.24339 0.0
C2109 C 0.42222 0.77136 0.26122 0.0
H2110 H 0.44204 0.76107 0.21492 0.0
H2111 H 0.44219 0.78702 0.24066 0.0
S2112 S 0.39068 0.72732 0.27522 0.0
N2113 N 0.3998 0.72156 0.2528 0.0
N2114 N 0.39996 0.74973 0.28074 0.0
C2115 C 0.41121 0.75345 0.26404 0.0
C2116 C 0.41113 0.73815 0.24888 0.0
C2117 C 0.24058 0.43154 0.22533 0.0
C2118 C 0.25885 0.42114 0.22803 0.0
C2119 C 0.22572 0.43162 0.2403 0.0
C2120 C 0.2285 0.4213 0.25861 0.0
H2121 H 0.23754 0.43946 0.21138 0.0
H2122 H 0.2118 0.4396 0.23733 0.0
S2123 S 0.27401 0.39241 0.27358 0.0
N2124 N 0.2792 0.40076 0.25073 0.0
N2125 N 0.25125 0.40091 0.2789 0.0
C2126 C 0.2469 0.41121 0.26174 0.0
C2127 C 0.26206 0.41113 0.24645 0.0
C2128 C 0.73907 0.5883 0.75595 0.0
C2129 C 0.74214 0.57844 0.77447 0.0
C2130 C 0.75401 0.58841 0.74099 0.0
C2131 C 0.77261 0.57867 0.74398 0.0
H2132 H 0.72515 0.59634 0.75309 0.0
H2133 H 0.75108 0.59654 0.72714 0.0
S2134 S 0.78773 0.54957 0.78934 0.0
N2135 N 0.76488 0.55786 0.79458 0.0
N2136 N 0.79289 0.55807 0.76655 0.0
C2137 C 0.77566 0.56827 0.76221 0.0
C2138 C 0.76046 0.56816 0.77743 0.0
C2139 C 0.43107 0.7756 0.75999 0.0
C2140 C 0.42049 0.77321 0.74179 0.0
C2141 C 0.43091 0.76058 0.7748 0.0
C2142 C 0.42017 0.74251 0.77203 0.0
H2143 H 0.43936 0.78933 0.76302 0.0
H2144 H 0.43908 0.76331 0.78866 0.0
S2145 S 0.39049 0.72846 0.72674 0.0
N2146 N 0.39937 0.75111 0.72155 0.0
N2147 N 0.39907 0.72284 0.7494 0.0
C2148 C 0.40986 0.7397 0.75371 0.0
C2149 C 0.41001 0.75505 0.73859 0.0
C2150 C 0.26101 0.41407 0.75628 0.0
C2151 C 0.25782 0.42363 0.77493 0.0
C2152 C 0.24616 0.41419 0.74123 0.0
C2153 C 0.22755 0.42388 0.74427 0.0
H2154 H 0.27495 0.4061 0.75335 0.0
H2155 H 0.24919 0.4063 0.72727 0.0
S2156 S 0.2121 0.45215 0.79004 0.0
N2157 N 0.23494 0.44381 0.79528 0.0
N2158 N 0.20709 0.44404 0.76707 0.0
C2159 C 0.22436 0.43395 0.76266 0.0
C2160 C 0.23948 0.43383 0.77797 0.0
C2161 C 0.58778 0.25947 0.75465 0.0
C2162 C 0.57624 0.25753 0.77234 0.0
C2163 C 0.58769 0.24441 0.73984 0.0
C2164 C 0.57608 0.22682 0.74213 0.0
H2165 H 0.59734 0.2725 0.75242 0.0
H2166 H 0.59721 0.24637 0.72672 0.0
S2167 S 0.54197 0.21511 0.78492 0.0
N2168 N 0.55195 0.23713 0.79075 0.0
N2169 N 0.5518 0.20887 0.76295 0.0
C2170 C 0.56392 0.22501 0.75941 0.0
C2171 C 0.564 0.24034 0.77449 0.0
C2172 C 0.77811 0.42904 0.2401 0.0
C2173 C 0.77435 0.42117 0.25942 0.0
C2174 C 0.76327 0.42882 0.22511 0.0
C2175 C 0.74404 0.42071 0.2288 0.0
H2176 H 0.79275 0.43523 0.23638 0.0
H2177 H 0.76704 0.43484 0.21041 0.0
S2178 S 0.72619 0.39888 0.27712 0.0
N2179 N 0.74973 0.40553 0.28164 0.0
N2180 N 0.72182 0.40511 0.25344 0.0
C2181 C 0.73992 0.4131 0.24817 0.0
C2182 C 0.75506 0.41334 0.26347 0.0
C2183 C 0.57034 0.77494 0.24029 0.0
C2184 C 0.57875 0.77125 0.2594 0.0
C2185 C 0.5704 0.76014 0.22526 0.0
C2186 C 0.57885 0.741 0.2287 0.0
H2187 H 0.56397 0.78954 0.23672 0.0
H2188 H 0.56404 0.76389 0.2107 0.0
S2189 S 0.60182 0.72325 0.27653 0.0
N2190 N 0.59504 0.74672 0.28124 0.0
N2191 N 0.59513 0.71886 0.25297 0.0
C2192 C 0.58683 0.73688 0.24792 0.0
C2193 C 0.58678 0.752 0.26326 0.0
C2194 C 0.26009 0.58688 0.24421 0.0
C2195 C 0.25651 0.57802 0.22528 0.0
C2196 C 0.24518 0.5871 0.2592 0.0
C2197 C 0.22611 0.57847 0.25584 0.0
H2198 H 0.27443 0.59398 0.24743 0.0
H2199 H 0.24857 0.59434 0.27343 0.0
S2200 S 0.20932 0.55268 0.20908 0.0
N2201 N 0.23261 0.55987 0.20421 0.0
N2202 N 0.20466 0.56028 0.2323 0.0
C2203 C 0.22246 0.56921 0.2371 0.0
C2204 C 0.23764 0.56898 0.22186 0.0
C2205 C 0.4315 0.22593 0.23905 0.0
C2206 C 0.42313 0.22962 0.25818 0.0
C2207 C 0.4314 0.24075 0.22403 0.0
C2208 C 0.42292 0.25986 0.22749 0.0
H2209 H 0.4379 0.21135 0.23549 0.0
H2210 H 0.43774 0.23701 0.20945 0.0
S2211 S 0.40011 0.27762 0.27539 0.0
N2212 N 0.40689 0.25415 0.28007 0.0
N2213 N 0.4067 0.282 0.2518 0.0
C2214 C 0.41495 0.26396 0.24671 0.0
C2215 C 0.41506 0.24885 0.26205 0.0
C2216 C 0.75717 0.74253 0.58785 0.0
C2217 C 0.7755 0.7454 0.57757 0.0
C2218 C 0.74207 0.75732 0.58764 0.0
C2219 C 0.7447 0.77554 0.57713 0.0
H2220 H 0.75458 0.72892 0.59648 0.0
H2221 H 0.7284 0.75457 0.59613 0.0
S2222 S 0.78939 0.78994 0.54667 0.0
N2223 N 0.79502 0.76749 0.55577 0.0
N2224 N 0.7667 0.79521 0.55535 0.0
C2225 C 0.76272 0.77836 0.56629 0.0
C2226 C 0.77809 0.76331 0.56652 0.0
C2227 C 0.75734 0.26153 0.41381 0.0
C2228 C 0.77512 0.2592 0.42512 0.0
C2229 C 0.74246 0.24653 0.41361 0.0
C2230 C 0.74477 0.22862 0.42473 0.0
H2231 H 0.75508 0.27484 0.40464 0.0
H2232 H 0.72923 0.24883 0.40432 0.0
S2233 S 0.78781 0.21582 0.45813 0.0
N2234 N 0.79365 0.23807 0.44868 0.0
N2235 N 0.76573 0.20994 0.44832 0.0
C2236 C 0.76217 0.22639 0.43665 0.0
C2237 C 0.77733 0.24165 0.43684 0.0
C2238 C 0.75696 0.74259 0.41533 0.0
C2239 C 0.77587 0.74608 0.42424 0.0
C2240 C 0.742 0.75752 0.41517 0.0
C2241 C 0.74538 0.77653 0.42393 0.0
H2242 H 0.75375 0.72832 0.40807 0.0
H2243 H 0.72781 0.75421 0.40782 0.0
S2244 S 0.79202 0.79301 0.4501 0.0
N2245 N 0.79689 0.76977 0.44273 0.0
N2246 N 0.76885 0.79778 0.44244 0.0
C2247 C 0.76405 0.78006 0.43334 0.0
C2248 C 0.77928 0.76486 0.4335 0.0
C2249 C 0.22657 0.75959 0.43271 0.0
C2250 C 0.22861 0.74216 0.42082 0.0
C2251 C 0.24154 0.77446 0.43298 0.0
C2252 C 0.25918 0.77252 0.42138 0.0
H2253 H 0.21315 0.76196 0.44169 0.0
H2254 H 0.23907 0.78774 0.44214 0.0
S2255 S 0.27228 0.72937 0.38826 0.0
N2256 N 0.24999 0.72349 0.3976 0.0
N2257 N 0.27812 0.75145 0.3981 0.0
C2258 C 0.26166 0.75495 0.40977 0.0
C2259 C 0.24638 0.73977 0.40949 0.0
C2260 C 0.25994 0.24514 0.41116 0.0
C2261 C 0.25771 0.22737 0.42252 0.0
C2262 C 0.24513 0.26022 0.41141 0.0
C2263 C 0.22752 0.25811 0.42301 0.0
H2264 H 0.27304 0.24727 0.40165 0.0
H2265 H 0.24733 0.27342 0.40206 0.0
S2266 S 0.21512 0.21517 0.45669 0.0
N2267 N 0.23701 0.20906 0.44662 0.0
N2268 N 0.20924 0.23734 0.44708 0.0
C2269 C 0.2254 0.2407 0.43494 0.0
C2270 C 0.24047 0.22535 0.4347 0.0
C2271 C 0.22469 0.24013 0.57043 0.0
C2272 C 0.22849 0.25933 0.57859 0.0
C2273 C 0.23953 0.22513 0.57037 0.0
C2274 C 0.25878 0.22868 0.5785 0.0
H2275 H 0.21001 0.2365 0.56429 0.0
H2276 H 0.23572 0.21051 0.56419 0.0
S2277 S 0.2768 0.27674 0.60076 0.0
N2278 N 0.25323 0.28135 0.59431 0.0
N2279 N 0.28113 0.25313 0.59423 0.0
C2280 C 0.26297 0.24796 0.58628 0.0
C2281 C 0.24783 0.26328 0.58632 0.0
C2282 C 0.75683 0.26079 0.59011 0.0
C2283 C 0.77445 0.25877 0.57849 0.0
C2284 C 0.74193 0.24579 0.59009 0.0
C2285 C 0.74405 0.22822 0.57841 0.0
H2286 H 0.75471 0.27385 0.59968 0.0
H2287 H 0.72884 0.24784 0.59962 0.0
S2288 S 0.78661 0.21637 0.54405 0.0
N2289 N 0.79262 0.23832 0.55408 0.0
N2290 N 0.76466 0.21022 0.55399 0.0
C2291 C 0.76129 0.22632 0.56621 0.0
C2292 C 0.77647 0.24156 0.56626 0.0
C2293 C 0.24053 0.77738 0.56995 0.0
C2294 C 0.25936 0.77438 0.57923 0.0
C2295 C 0.22594 0.76215 0.56963 0.0
C2296 C 0.22955 0.74328 0.5786 0.0
H2297 H 0.23686 0.79174 0.56312 0.0
H2298 H 0.21157 0.76537 0.5626 0.0
S2299 S 0.27678 0.72733 0.60397 0.0
N2300 N 0.28113 0.75079 0.59693 0.0
N2301 N 0.25368 0.72215 0.59636 0.0
C2302 C 0.2485 0.73986 0.58748 0.0
C2303 C 0.2634 0.75541 0.5878 0.0
C2304 C 0.01154 0.18116 0.31116 0.0
C2305 C 0.0226 0.18797 0.32792 0.0
C2306 C 0.99043 0.18137 0.31116 0.0
C2307 C 0.9795 0.18838 0.32792 0.0
H2308 H 0.0192 0.17642 0.29755 0.0
H2309 H 0.98267 0.17677 0.29755 0.0
S2310 S 0.00123 0.20536 0.3766 0.0
N2311 N 0.02102 0.20007 0.36248 0.0
N2312 N 0.98133 0.20045 0.3625 0.0
C2313 C 0.99034 0.19401 0.34527 0.0
C2314 C 0.01188 0.19382 0.34526 0.0
C2315 C 0.82036 0.99155 0.31022 0.0
C2316 C 0.81353 0.9805 0.32698 0.0
C2317 C 0.82037 0.01267 0.31029 0.0
C2318 C 0.81353 0.0236 0.32713 0.0
H2319 H 0.82497 0.98386 0.29658 0.0
H2320 H 0.82499 0.02044 0.2967 0.0
S2321 S 0.7965 0.00191 0.3758 0.0
N2322 N 0.80155 0.98211 0.36161 0.0
N2323 N 0.80156 0.02179 0.36173 0.0
C2324 C 0.80783 0.01277 0.34444 0.0
C2325 C 0.80783 0.99123 0.34438 0.0
C2326 C 0.98966 0.80558 0.34171 0.0
C2327 C 0.9789 0.81481 0.32594 0.0
C2328 C 0.01078 0.80552 0.34198 0.0
C2329 C 0.02199 0.81469 0.32648 0.0
H2330 H 0.98175 0.79757 0.35353 0.0
H2331 H 0.01835 0.79746 0.35398 0.0
S2332 S 0.00106 0.84326 0.28316 0.0
N2333 N 0.98105 0.83511 0.29549 0.0
N2334 N 0.02071 0.835 0.29598 0.0
C2335 C 0.01142 0.82507 0.3113 0.0
C2336 C 0.9899 0.82513 0.31103 0.0
C2337 C 0.19646 0.01131 0.34036 0.0
C2338 C 0.18824 0.02221 0.32413 0.0
C2339 C 0.19646 0.99017 0.34048 0.0
C2340 C 0.18824 0.9791 0.32437 0.0
H2341 H 0.2037 0.01912 0.35273 0.0
H2342 H 0.2037 0.98249 0.35293 0.0
S2343 S 0.16265 1.00042 0.2794 0.0
N2344 N 0.17 0.02032 0.29238 0.0
N2345 N 0.16999 0.98066 0.2926 0.0
C2346 C 0.17891 0.98981 0.30861 0.0
C2347 C 0.17892 0.01133 0.30849 0.0
C2348 C 0.01322 0.81928 0.6921 0.0
C2349 C 0.0241 0.8127 0.67513 0.0
C2350 C 0.99211 0.8193 0.69224 0.0
C2351 C 0.981 0.81276 0.67541 0.0
H2352 H 0.02103 0.82371 0.70573 0.0
H2353 H 0.98448 0.82375 0.70597 0.0
S2354 S 0.00223 0.7964 0.6263 0.0
N2355 N 0.02217 0.80121 0.64037 0.0
N2356 N 0.98249 0.80128 0.64062 0.0
C2357 C 0.99167 0.80728 0.65791 0.0
C2358 C 0.01321 0.80724 0.65777 0.0
C2359 C 0.19714 0.01271 0.65985 0.0
C2360 C 0.18783 0.02383 0.67533 0.0
C2361 C 0.19718 0.99159 0.66004 0.0
C2362 C 0.18793 0.98072 0.67573 0.0
H2363 H 0.20518 0.02035 0.64788 0.0
H2364 H 0.20525 0.98376 0.64821 0.0
S2365 S 0.15933 0.0026 0.71855 0.0
N2366 N 0.16749 0.02234 0.7058 0.0
N2367 N 0.16759 0.98267 0.70617 0.0
C2368 C 0.17754 0.99162 0.69067 0.0
C2369 C 0.17748 0.01316 0.69046 0.0
C2370 C 0.99021 0.18116 0.68961 0.0
C2371 C 0.97913 0.18864 0.67315 0.0
C2372 C 0.01133 0.18138 0.68958 0.0
C2373 C 0.02221 0.18906 0.67309 0.0
H2374 H 0.98256 0.1759 0.70304 0.0
H2375 H 0.01912 0.17626 0.70298 0.0
S2376 S 1.0004 0.20796 0.62516 0.0
N2377 N 0.98064 0.20211 0.63909 0.0
N2378 N 0.02032 0.20248 0.63902 0.0
C2379 C 0.01134 0.19537 0.656 0.0
C2380 C 0.98981 0.19517 0.65604 0.0
C2381 C 0.82075 0.01131 0.69087 0.0
C2382 C 0.81464 0.02224 0.67376 0.0
C2383 C 0.82085 0.99019 0.69093 0.0
C2384 C 0.81482 0.97913 0.67387 0.0
H2385 H 0.82475 0.01908 0.70466 0.0
H2386 H 0.82491 0.98253 0.70475 0.0
S2387 S 0.79985 1.0005 0.62438 0.0
N2388 N 0.8042 0.02039 0.63867 0.0
N2389 N 0.80436 0.98071 0.63877 0.0
C2390 C 0.80983 0.98984 0.65626 0.0
C2391 C 0.80975 0.01139 0.6562 0.0
C2392 C 0.34443 0.99037 0.19847 0.0
C2393 C 0.32911 0.97939 0.18876 0.0
C2394 C 0.3445 0.0115 0.19836 0.0
C2395 C 0.32926 0.0225 0.18852 0.0
H2396 H 0.35605 0.98262 0.20693 0.0
H2397 H 0.35618 0.01924 0.20674 0.0
S2398 S 0.2871 0.00094 0.15874 0.0
N2399 N 0.29932 0.98111 0.16746 0.0
N2400 N 0.29946 0.02078 0.16725 0.0
C2401 C 0.31452 0.01171 0.17776 0.0
C2402 C 0.31443 0.99018 0.17789 0.0
C2403 C 0.99027 0.3442 0.19667 0.0
C2404 C 0.97907 0.32882 0.18732 0.0
C2405 C 0.0114 0.34391 0.19667 0.0
C2406 C 0.02217 0.3282 0.18733 0.0
H2407 H 0.98269 0.35614 0.20483 0.0
H2408 H 0.0193 0.35563 0.20482 0.0
S2409 S 1.00004 0.28572 0.15843 0.0
N2410 N 0.98038 0.2985 0.16673 0.0
N2411 N 0.02004 0.29794 0.16675 0.0
C2412 C 0.01118 0.31341 0.17684 0.0
C2413 C 0.98965 0.31372 0.17683 0.0
C2414 C 0.68744 0.98965 0.18072 0.0
C2415 C 0.67134 0.97867 0.18907 0.0
C2416 C 0.68752 0.01077 0.18084 0.0
C2417 C 0.67151 0.02179 0.18933 0.0
H2418 H 0.7005 0.98191 0.17474 0.0
H2419 H 0.70064 0.01847 0.17494 0.0
S2420 S 0.62463 1.0003 0.21099 0.0
N2421 N 0.6381 0.98044 0.20444 0.0
N2422 N 0.63826 0.02013 0.20468 0.0
C2423 C 0.65477 0.01103 0.19666 0.0
C2424 C 0.65468 0.98948 0.19653 0.0
C2425 C 0.01096 0.65864 0.19785 0.0
C2426 C 0.02185 0.67393 0.18799 0.0
C2427 C 0.98983 0.65856 0.19792 0.0
C2428 C 0.97875 0.67375 0.18812 0.0
H2429 H 0.01877 0.64708 0.20633 0.0
H2430 H 0.98218 0.64693 0.20644 0.0
S2431 S 1.00003 0.71575 0.1579 0.0
N2432 N 0.01994 0.70359 0.16652 0.0
N2433 N 0.98027 0.70342 0.16665 0.0
C2434 C 0.98944 0.68843 0.17716 0.0
C2435 C 0.01097 0.68852 0.17709 0.0
C2436 C 0.34298 0.99049 0.80358 0.0
C2437 C 0.32796 0.97958 0.81384 0.0
C2438 C 0.34293 0.01161 0.80335 0.0
C2439 C 0.32785 0.02267 0.81334 0.0
H2440 H 0.35443 0.98269 0.79496 0.0
H2441 H 0.35434 0.01928 0.79455 0.0
S2442 S 0.28659 0.00136 0.84455 0.0
N2443 N 0.29871 0.98146 0.83586 0.0
N2444 N 0.29861 0.02113 0.8354 0.0
C2445 C 0.31345 0.01198 0.82467 0.0
C2446 C 0.31351 0.99044 0.82492 0.0
C2447 C 0.01077 0.34505 0.80323 0.0
C2448 C 0.02169 0.32999 0.81342 0.0
C2449 C 0.98963 0.34505 0.80311 0.0
C2450 C 0.97858 0.33003 0.81321 0.0
H2451 H 0.01856 0.35643 0.7945 0.0
H2452 H 0.98194 0.35644 0.7943 0.0
S2453 S 0.99997 0.2888 0.84441 0.0
N2454 N 0.01985 0.30083 0.83555 0.0
N2455 N 0.98018 0.30086 0.83537 0.0
C2456 C 0.98931 0.31565 0.82453 0.0
C2457 C 0.01084 0.31562 0.82462 0.0
C2458 C 0.6596 0.01061 0.80541 0.0
C2459 C 0.67603 0.02155 0.81317 0.0
C2460 C 0.65957 0.98947 0.80533 0.0
C2461 C 0.67597 0.97843 0.81302 0.0
H2462 H 0.647 0.01841 0.79857 0.0
H2463 H 0.64695 0.98176 0.79843 0.0
S2464 S 0.72159 0.99984 0.83734 0.0
N2465 N 0.70831 0.01971 0.83044 0.0
N2466 N 0.70825 0.98006 0.83032 0.0
C2467 C 0.69195 0.98917 0.82191 0.0
C2468 C 0.69199 0.0107 0.82197 0.0
C2469 C 0.98994 0.68744 0.82108 0.0
C2470 C 0.97876 0.67144 0.81277 0.0
C2471 C 0.01105 0.68738 0.82076 0.0
C2472 C 0.02186 0.67132 0.81211 0.0
H2473 H 0.98235 0.70053 0.82719 0.0
H2474 H 0.01891 0.70041 0.82664 0.0
S2475 S 0.99983 0.62466 0.79048 0.0
N2476 N 0.98014 0.63825 0.79726 0.0
N2477 N 0.01981 0.63813 0.79666 0.0
C2478 C 0.01091 0.65468 0.80481 0.0
C2479 C 0.98938 0.65474 0.80514 0.0
C2480 C 0.1805 0.31007 0.01078 0.0
C2481 C 0.18741 0.32674 0.02193 0.0
C2482 C 0.18054 0.31025 0.98966 0.0
C2483 C 0.18747 0.3271 0.97882 0.0
H2484 H 0.17581 0.29641 0.01838 0.0
H2485 H 0.17588 0.29671 0.9818 0.0
S2486 S 0.20468 0.37558 0.00082 0.0
N2487 N 0.19954 0.3613 0.02053 0.0
N2488 N 0.19959 0.36164 0.98085 0.0
C2489 C 0.19323 0.34434 0.98976 0.0
C2490 C 0.1932 0.34415 0.0113 0.0
C2491 C 0.19565 0.65958 0.99109 0.0
C2492 C 0.18683 0.6753 0.97993 0.0
C2493 C 0.19578 0.6599 0.01222 0.0
C2494 C 0.18714 0.67599 0.02302 0.0
H2495 H 0.20326 0.6473 0.98349 0.0
H2496 H 0.20349 0.64786 0.02009 0.0
S2497 S 0.15981 0.71954 0.00101 0.0
N2498 N 0.16746 0.70641 0.98131 0.0
N2499 N 0.16779 0.70704 0.02098 0.0
C2500 C 0.17719 0.69118 0.01208 0.0
C2501 C 0.17701 0.69082 0.99055 0.0
C2502 C 0.3127 0.18071 0.0105 0.0
C2503 C 0.32939 0.18785 0.02146 0.0
C2504 C 0.31261 0.18087 0.98938 0.0
C2505 C 0.3292 0.18818 0.97838 0.0
H2506 H 0.29922 0.17577 0.01826 0.0
H2507 H 0.29906 0.17603 0.98167 0.0
S2508 S 0.37767 0.20604 0.99984 0.0
N2509 N 0.36374 0.20055 0.0197 0.0
N2510 N 0.36356 0.20085 0.98003 0.0
C2511 C 0.34648 0.19415 0.98913 0.0
C2512 C 0.34658 0.19398 0.01065 0.0
C2513 C 0.81991 0.31194 0.9891 0.0
C2514 C 0.81242 0.32856 0.97826 0.0
C2515 C 0.82006 0.31179 0.01022 0.0
C2516 C 0.81266 0.32822 0.02139 0.0
H2517 H 0.825 0.29857 0.98124 0.0
H2518 H 0.82523 0.29829 0.01781 0.0
S2519 S 0.79367 0.37644 1.00031 0.0
N2520 N 0.79914 0.36268 0.98032 0.0
N2521 N 0.79936 0.36235 0.02002 0.0
C2522 C 0.80623 0.34542 0.01077 0.0
C2523 C 0.80613 0.3456 0.98922 0.0
C2524 C 0.65856 0.80248 0.01149 0.0
C2525 C 0.67366 0.81255 0.02246 0.0
C2526 C 0.65859 0.80238 0.99036 0.0
C2527 C 0.6737 0.81237 0.97933 0.0
H2528 H 0.64707 0.79387 0.01925 0.0
H2529 H 0.6471 0.79373 0.98265 0.0
S2530 S 0.71523 0.8431 0.0008 0.0
N2531 N 0.70307 0.83436 0.02067 0.0
N2532 N 0.70312 0.83419 0.98099 0.0
C2533 C 0.6882 0.8235 0.99009 0.0
C2534 C 0.68818 0.82359 0.01163 0.0
C2535 C 0.82025 0.68773 0.01175 0.0
C2536 C 0.81205 0.6715 0.02268 0.0
C2537 C 0.82018 0.68785 0.99063 0.0
C2538 C 0.81194 0.67173 0.97958 0.0
H2539 H 0.826 0.70087 0.01953 0.0
H2540 H 0.8259 0.70107 0.98295 0.0
S2541 S 0.79092 0.62449 0.00094 0.0
N2542 N 0.7972 0.63804 0.02083 0.0
N2543 N 0.79711 0.63824 0.98116 0.0
C2544 C 0.80485 0.65486 0.99029 0.0
C2545 C 0.80489 0.65475 0.01183 0.0
C2546 C 0.31396 0.82067 0.01221 0.0
C2547 C 0.32984 0.81168 0.02302 0.0
C2548 C 0.31366 0.82059 0.99109 0.0
C2549 C 0.32922 0.81151 0.97991 0.0
H2550 H 0.30123 0.82717 0.02009 0.0
H2551 H 0.30071 0.82702 0.98352 0.0
S2552 S 0.37542 0.78795 0.0009 0.0
N2553 N 0.36242 0.795 0.02091 0.0
N2554 N 0.36185 0.79484 0.98123 0.0
C2555 C 0.34576 0.80349 0.99049 0.0
C2556 C 0.34607 0.80358 0.01203 0.0
C2557 C 0.69064 0.18101 0.98914 0.0
C2558 C 0.67371 0.18766 0.97825 0.0
C2559 C 0.69068 0.18075 0.01026 0.0
C2560 C 0.67379 0.18717 0.02136 0.0
H2561 H 0.70432 0.17668 0.98135 0.0
H2562 H 0.70438 0.17627 0.01791 0.0
S2563 S 0.62475 0.20367 1.00008 0.0
N2564 N 0.63892 0.19907 0.98015 0.0
N2565 N 0.63899 0.19862 0.01984 0.0
C2566 C 0.65633 0.19272 0.01067 0.0
C2567 C 0.65629 0.19296 0.98912 0.0
C2568 C 0.48869 0.68224 0.81046 0.0
C2569 C 0.47772 0.68935 0.82716 0.0
C2570 C 0.50981 0.68233 0.8104 0.0
C2571 C 0.52082 0.68949 0.82704 0.0
H2572 H 0.48095 0.67731 0.79696 0.0
H2573 H 0.51752 0.67746 0.79686 0.0
S2574 S 0.49932 0.70743 0.87548 0.0
N2575 N 0.47947 0.70204 0.8615 0.0
N2576 N 0.51915 0.70216 0.86141 0.0
C2577 C 0.51006 0.69552 0.8443 0.0
C2578 C 0.48852 0.69546 0.84435 0.0
C2579 C 0.32044 0.51134 0.81301 0.0
C2580 C 0.31262 0.52217 0.82949 0.0
C2581 C 0.32071 0.49022 0.81292 0.0
C2582 C 0.31319 0.47906 0.8293 0.0
H2583 H 0.32564 0.51919 0.79968 0.0
H2584 H 0.32611 0.48262 0.79951 0.0
S2585 S 0.29341 0.50015 0.8772 0.0
N2586 N 0.29891 0.52013 0.86343 0.0
N2587 N 0.29944 0.48045 0.86326 0.0
C2588 C 0.30647 0.48968 0.84639 0.0
C2589 C 0.30618 0.51122 0.84648 0.0
C2590 C 0.51124 0.30469 0.8416 0.0
C2591 C 0.52238 0.31375 0.826 0.0
C2592 C 0.49012 0.30467 0.84138 0.0
C2593 C 0.47929 0.31369 0.82553 0.0
H2594 H 0.51886 0.29675 0.85366 0.0
H2595 H 0.48227 0.29673 0.85329 0.0
S2596 S 0.50124 0.34178 0.78242 0.0
N2597 N 0.52095 0.33376 0.7953 0.0
N2598 N 0.48128 0.33368 0.79487 0.0
C2599 C 0.49021 0.32392 0.81051 0.0
C2600 C 0.51174 0.32396 0.81075 0.0
C2601 C 0.69622 0.49033 0.84212 0.0
C2602 C 0.6868 0.47937 0.8266 0.0
C2603 C 0.696 0.51146 0.8423 0.0
C2604 C 0.68637 0.52249 0.82695 0.0
H2605 H 0.70457 0.48258 0.85381 0.0
H2606 H 0.70419 0.51917 0.85412 0.0
S2607 S 0.65727 0.50101 0.78428 0.0
N2608 N 0.66589 0.48115 0.79653 0.0
N2609 N 0.66552 0.52083 0.79686 0.0
C2610 C 0.67585 0.51172 0.81202 0.0
C2611 C 0.67604 0.49019 0.81185 0.0
C2612 C 0.491 0.30323 0.15754 0.0
C2613 C 0.4801 0.31347 0.17257 0.0
C2614 C 0.51212 0.30299 0.15759 0.0
C2615 C 0.52318 0.31298 0.17268 0.0
H2616 H 0.4832 0.29461 0.14608 0.0
H2617 H 0.51978 0.29419 0.14618 0.0
S2618 S 0.50188 0.34417 0.21395 0.0
N2619 N 0.48198 0.33549 0.20182 0.0
N2620 N 0.52165 0.33504 0.20192 0.0
C2621 C 0.51249 0.32431 0.18707 0.0
C2622 C 0.49096 0.32455 0.18702 0.0
C2623 C 0.69859 0.48921 0.15944 0.0
C2624 C 0.68928 0.47808 0.1749 0.0
C2625 C 0.69836 0.51035 0.15951 0.0
C2626 C 0.68882 0.52118 0.17505 0.0
H2627 H 0.70683 0.4816 0.14759 0.0
H2628 H 0.70644 0.51822 0.14771 0.0
S2629 S 0.66009 0.49918 0.21773 0.0
N2630 N 0.66863 0.47948 0.20517 0.0
N2631 N 0.66822 0.51914 0.20531 0.0
C2632 C 0.67844 0.51023 0.18996 0.0
C2633 C 0.67867 0.48871 0.18988 0.0
C2634 C 0.51102 0.67981 0.18939 0.0
C2635 C 0.52182 0.68805 0.17311 0.0
C2636 C 0.4899 0.6798 0.18964 0.0
C2637 C 0.47872 0.68804 0.17362 0.0
H2638 H 0.51889 0.67403 0.20247 0.0
H2639 H 0.48233 0.67403 0.2029 0.0
S2640 S 0.49972 0.70918 0.12626 0.0
N2641 N 0.51972 0.70294 0.13968 0.0
N2642 N 0.48004 0.70294 0.14014 0.0
C2643 C 0.48931 0.69522 0.1567 0.0
C2644 C 0.51085 0.69522 0.15644 0.0
C2645 C 0.32003 0.4893 0.18694 0.0
C2646 C 0.31119 0.4783 0.17111 0.0
C2647 C 0.3201 0.51042 0.18689 0.0
C2648 C 0.31133 0.52141 0.17102 0.0
H2649 H 0.32627 0.48158 0.1999 0.0
H2650 H 0.32638 0.51816 0.19982 0.0
S2651 S 0.28833 0.49982 0.1248 0.0
N2652 N 0.29502 0.47999 0.13825 0.0
N2653 N 0.29516 0.51967 0.13815 0.0
C2654 C 0.30349 0.51061 0.15453 0.0
C2655 C 0.30341 0.48907 0.15458 0.0
C2656 C 0.81049 0.51289 0.68076 0.0
C2657 C 0.82713 0.52397 0.68783 0.0
C2658 C 0.81065 0.49178 0.68064 0.0
C2659 C 0.82745 0.48086 0.68758 0.0
H2660 H 0.79686 0.52054 0.67605 0.0
H2661 H 0.79713 0.48399 0.67584 0.0
S2662 S 0.87586 0.50267 0.70519 0.0
N2663 N 0.86163 0.52244 0.70012 0.0
N2664 N 0.86193 0.48275 0.69989 0.0
C2665 C 0.84467 0.49173 0.69351 0.0
C2666 C 0.8445 0.51328 0.69364 0.0
C2667 C 0.5109 0.81277 0.68017 0.0
C2668 C 0.52192 0.82931 0.68757 0.0
C2669 C 0.48978 0.81269 0.6804 0.0
C2670 C 0.47881 0.82916 0.68799 0.0
H2671 H 0.51862 0.79937 0.67493 0.0
H2672 H 0.48205 0.79924 0.67531 0.0
S2673 S 0.5004 0.87725 0.70677 0.0
N2674 N 0.52023 0.86339 0.70096 0.0
N2675 N 0.48055 0.86328 0.70134 0.0
C2676 C 0.4896 0.84631 0.69428 0.0
C2677 C 0.51114 0.84638 0.69408 0.0
C2678 C 0.15953 0.5116 0.69458 0.0
C2679 C 0.17578 0.52247 0.68635 0.0
C2680 C 0.1595 0.49047 0.69481 0.0
C2681 C 0.17571 0.47938 0.68681 0.0
H2682 H 0.14712 0.51943 0.70172 0.0
H2683 H 0.14706 0.48282 0.70211 0.0
S2684 S 0.22063 0.5006 0.66108 0.0
N2685 N 0.20756 0.52053 0.66819 0.0
N2686 N 0.2075 0.48087 0.6686 0.0
C2687 C 0.19143 0.49005 0.67738 0.0
C2688 C 0.19147 0.51157 0.67716 0.0
C2689 C 0.49032 0.18634 0.67848 0.0
C2690 C 0.47915 0.17045 0.687 0.0
C2691 C 0.51143 0.18622 0.67868 0.0
C2692 C 0.52226 0.17022 0.68742 0.0
H2693 H 0.48272 0.19943 0.67237 0.0
H2694 H 0.51928 0.19923 0.67272 0.0
S2695 S 0.50025 0.1237 0.70935 0.0
N2696 N 0.48055 0.1373 0.70262 0.0
N2697 N 0.52023 0.1371 0.70301 0.0
C2698 C 0.51132 0.15362 0.69482 0.0
C2699 C 0.48978 0.15373 0.6946 0.0
C2700 C 0.84279 0.49127 0.30721 0.0
C2701 C 0.82661 0.48016 0.31523 0.0
C2702 C 0.84261 0.51241 0.30721 0.0
C2703 C 0.82626 0.52326 0.31525 0.0
H2704 H 0.85532 0.48363 0.30008 0.0
H2705 H 0.85502 0.52026 0.30008 0.0
S2706 S 0.78139 0.50134 0.34047 0.0
N2707 N 0.7947 0.48162 0.33321 0.0
N2708 N 0.79437 0.52128 0.33324 0.0
C2709 C 0.81058 0.51235 0.32445 0.0
C2710 C 0.81075 0.49082 0.32443 0.0
C2711 C 0.51152 0.81189 0.32169 0.0
C2712 C 0.52262 0.82784 0.3132 0.0
C2713 C 0.4904 0.8121 0.3218 0.0
C2714 C 0.47952 0.82826 0.31341 0.0
H2715 H 0.51915 0.79872 0.32757 0.0
H2716 H 0.48258 0.79907 0.32776 0.0
S2717 S 0.50141 0.87491 0.29165 0.0
N2718 N 0.52115 0.86115 0.29794 0.0
N2719 N 0.48147 0.86153 0.29813 0.0
C2720 C 0.49043 0.84487 0.30599 0.0
C2721 C 0.51196 0.84466 0.3059 0.0
C2722 C 0.19025 0.49035 0.31943 0.0
C2723 C 0.17347 0.47932 0.31264 0.0
C2724 C 0.19021 0.51147 0.31942 0.0
C2725 C 0.17337 0.52243 0.31262 0.0
H2726 H 0.20389 0.48265 0.32404 0.0
H2727 H 0.20382 0.51921 0.32402 0.0
S2728 S 0.12467 0.50078 0.29566 0.0
N2729 N 0.13884 0.48097 0.30071 0.0
N2730 N 0.13876 0.52065 0.30068 0.0
C2731 C 0.15604 0.51162 0.30695 0.0
C2732 C 0.15609 0.49007 0.30695 0.0
C2733 C 0.51234 0.15968 0.30488 0.0
C2734 C 0.52333 0.17528 0.3141 0.0
C2735 C 0.4912 0.1598 0.30471 0.0
C2736 C 0.48023 0.17555 0.31375 0.0
H2737 H 0.52007 0.14768 0.29696 0.0
H2738 H 0.48346 0.14789 0.29667 0.0
S2739 S 0.50179 0.21861 0.3422 0.0
N2740 N 0.52162 0.20588 0.33424 0.0
N2741 N 0.48195 0.20612 0.3339 0.0
C2742 C 0.49101 0.19058 0.32411 0.0
C2743 C 0.51254 0.19045 0.32429 0.0
C2744 C 0.68115 0.81372 0.49007 0.0
C2745 C 0.68875 0.83017 0.47907 0.0
C2746 C 0.68117 0.81372 0.51119 0.0
C2747 C 0.68882 0.83017 0.52218 0.0
H2748 H 0.6759 0.80033 0.48235 0.0
H2749 H 0.67594 0.80033 0.51891 0.0
S2750 S 0.70808 0.87805 0.50061 0.0
N2751 N 0.70233 0.86419 0.48077 0.0
N2752 N 0.7024 0.86418 0.52046 0.0
C2753 C 0.69529 0.84725 0.51139 0.0
C2754 C 0.69525 0.84725 0.48985 0.0
C2755 C 0.69702 0.15928 0.49054 0.0
C2756 C 0.68813 0.17512 0.4796 0.0
C2757 C 0.69697 0.15919 0.51167 0.0
C2758 C 0.68801 0.17492 0.52271 0.0
H2759 H 0.70488 0.14727 0.48278 0.0
H2760 H 0.70478 0.1471 0.51937 0.0
S2761 S 0.66033 0.21857 0.50128 0.0
N2762 N 0.66835 0.20594 0.48141 0.0
N2763 N 0.66824 0.20576 0.52108 0.0
C2764 C 0.67793 0.19019 0.51197 0.0
C2765 C 0.678 0.19029 0.49043 0.0
C2766 C 0.81438 0.68207 0.51152 0.0
C2767 C 0.83047 0.69037 0.52255 0.0
C2768 C 0.8144 0.68215 0.4904 0.0
C2769 C 0.83051 0.69052 0.47943 0.0
H2770 H 0.80124 0.67621 0.51922 0.0
H2771 H 0.80127 0.67633 0.48265 0.0
S2772 S 0.87744 0.7119 0.5011 0.0
N2773 N 0.86383 0.70549 0.52091 0.0
N2774 N 0.86386 0.70563 0.48122 0.0
C2775 C 0.84726 0.69774 0.49025 0.0
C2776 C 0.84724 0.69767 0.5118 0.0
C2777 C 0.31995 0.81435 0.49028 0.0
C2778 C 0.31113 0.83011 0.47916 0.0
C2779 C 0.32004 0.81457 0.5114 0.0
C2780 C 0.31132 0.83056 0.52226 0.0
H2781 H 0.32615 0.80131 0.48266 0.0
H2782 H 0.32629 0.80169 0.51925 0.0
S2783 S 0.28846 0.87667 0.50031 0.0
N2784 N 0.29508 0.86304 0.48059 0.0
N2785 N 0.29526 0.86346 0.52026 0.0
C2786 C 0.30351 0.84698 0.51133 0.0
C2787 C 0.30341 0.84675 0.4898 0.0
C2788 C 0.18963 0.32075 0.48947 0.0
C2789 C 0.17312 0.31312 0.47857 0.0
C2790 C 0.18974 0.32079 0.5106 0.0
C2791 C 0.17335 0.31318 0.52168 0.0
H2792 H 0.20297 0.326 0.48167 0.0
H2793 H 0.20316 0.32606 0.51825 0.0
S2794 S 0.12536 0.29383 0.5004 0.0
N2795 N 0.13913 0.29951 0.48048 0.0
N2796 N 0.13933 0.29958 0.52015 0.0
C2797 C 0.15623 0.30664 0.51099 0.0
C2798 C 0.15612 0.3066 0.48945 0.0
C2799 C 0.32037 0.18926 0.50986 0.0
C2800 C 0.3125 0.17297 0.52091 0.0
C2801 C 0.32045 0.18916 0.48873 0.0
C2802 C 0.31263 0.17277 0.47779 0.0
H2803 H 0.32582 0.20259 0.51755 0.0
H2804 H 0.32593 0.20243 0.48096 0.0
S2805 S 0.29244 0.12533 0.49951 0.0
N2806 N 0.29833 0.13919 0.5193 0.0
N2807 N 0.29845 0.13901 0.47962 0.0
C2808 C 0.30579 0.15587 0.48864 0.0
C2809 C 0.30574 0.15597 0.51018 0.0
C2810 C 0.81349 0.32153 0.49086 0.0
C2811 C 0.82994 0.31374 0.47999 0.0
C2812 C 0.81331 0.32149 0.51197 0.0
C2813 C 0.82959 0.31368 0.52308 0.0
H2814 H 0.80022 0.32694 0.48303 0.0
H2815 H 0.79992 0.32688 0.51959 0.0
S2816 S 0.87744 0.2939 0.50189 0.0
N2817 N 0.86379 0.29979 0.48194 0.0
N2818 N 0.86347 0.29973 0.52163 0.0
C2819 C 0.84668 0.30701 0.51243 0.0
C2820 C 0.84685 0.30703 0.49089 0.0
C2821 C 0.18937 0.68111 0.5107 0.0
C2822 C 0.17338 0.68955 0.52178 0.0
C2823 C 0.18918 0.68094 0.48957 0.0
C2824 C 0.17299 0.68921 0.47866 0.0
H2825 H 0.20256 0.67528 0.51836 0.0
H2826 H 0.20223 0.67501 0.48177 0.0
S2827 S 0.12628 0.71094 0.50048 0.0
N2828 N 0.14005 0.70473 0.52025 0.0
N2829 N 0.13968 0.70441 0.48057 0.0
C2830 C 0.15636 0.69661 0.48955 0.0
C2831 C 0.15655 0.69679 0.51109 0.0
C2832 C 0.14054 0.12504 0.33528 0.0
C2833 C 0.149 0.11819 0.31708 0.0
C2834 C 0.12554 0.13994 0.33547 0.0
C2835 C 0.11839 0.14857 0.31746 0.0
H2836 H 0.14607 0.11941 0.34958 0.0
H2837 H 0.12006 0.14523 0.34991 0.0
S2838 S 0.13387 0.13422 0.26564 0.0
N2839 N 0.14783 0.11995 0.28047 0.0
N2840 N 0.11969 0.14789 0.28083 0.0
C2841 C 0.12594 0.14109 0.29911 0.0
C2842 C 0.14122 0.12592 0.29892 0.0
C2843 C 0.87759 0.1405 0.33504 0.0
C2844 C 0.88309 0.1506 0.31721 0.0
C2845 C 0.86249 0.1257 0.33505 0.0
C2846 C 0.85228 0.12042 0.31722 0.0
H2847 H 0.88451 0.14453 0.34927 0.0
H2848 H 0.85834 0.11885 0.34927 0.0
S2849 S 0.86239 0.1409 0.26613 0.0
N2850 N 0.87815 0.15314 0.28097 0.0
N2851 N 0.84984 0.1254 0.28097 0.0
C2852 C 0.85831 0.1297 0.29912 0.0
C2853 C 0.87368 0.14476 0.29912 0.0
C2854 C 0.876 0.86246 0.33525 0.0
C2855 C 0.88283 0.85387 0.3171 0.0
C2856 C 0.86103 0.87738 0.33535 0.0
C2857 C 0.85228 0.8843 0.3173 0.0
H2858 H 0.88173 0.85712 0.34957 0.0
H2859 H 0.85577 0.88299 0.34975 0.0
S2860 S 0.86647 0.86836 0.26558 0.0
N2861 N 0.88089 0.85464 0.28049 0.0
N2862 N 0.85279 0.88262 0.28068 0.0
C2863 C 0.85972 0.87659 0.29899 0.0
C2864 C 0.87497 0.86141 0.29889 0.0
C2865 C 0.12829 0.85796 0.3018 0.0
C2866 C 0.11829 0.85265 0.31972 0.0
C2867 C 0.14317 0.87293 0.30158 0.0
C2868 C 0.14868 0.88324 0.31927 0.0
H2869 H 0.1251 0.85005 0.28788 0.0
H2870 H 0.15087 0.87595 0.2875 0.0
S2871 S 0.12569 0.87643 0.36982 0.0
N2872 N 0.1139 0.85996 0.35538 0.0
N2873 N 0.14187 0.88811 0.35497 0.0
C2874 C 0.13811 0.8788 0.33712 0.0
C2875 C 0.12293 0.86351 0.33735 0.0
C2876 C 0.14097 0.87666 0.66565 0.0
C2877 C 0.14921 0.88393 0.68379 0.0
C2878 C 0.12625 0.86148 0.66562 0.0
C2879 C 0.1192 0.85297 0.68373 0.0
H2880 H 0.14645 0.88218 0.6513 0.0
H2881 H 0.12093 0.85586 0.65125 0.0
S2882 S 0.13417 0.86837 0.7354 0.0
N2883 N 0.14792 0.88269 0.72042 0.0
N2884 N 0.12032 0.85422 0.72036 0.0
C2885 C 0.12653 0.86087 0.702 0.0
C2886 C 0.1415 0.87632 0.70203 0.0
C2887 C 0.14022 0.12733 0.66507 0.0
C2888 C 0.14917 0.12076 0.68314 0.0
C2889 C 0.12526 0.14227 0.66507 0.0
C2890 C 0.11868 0.15125 0.68313 0.0
H2891 H 0.14526 0.12138 0.65073 0.0
H2892 H 0.11933 0.1473 0.65071 0.0
S2893 S 0.13576 0.13788 0.73471 0.0
N2894 N 0.14919 0.12326 0.71973 0.0
N2895 N 0.12115 0.15131 0.7197 0.0
C2896 C 0.1268 0.14412 0.70137 0.0
C2897 C 0.14202 0.12889 0.70138 0.0
C2898 C 0.87674 0.14058 0.66535 0.0
C2899 C 0.88324 0.14944 0.68349 0.0
C2900 C 0.86192 0.12551 0.6652 0.0
C2901 C 0.85298 0.11873 0.6832 0.0
H2902 H 0.88263 0.14579 0.65104 0.0
H2903 H 0.85692 0.11969 0.6508 0.0
S2904 S 0.86625 0.13542 0.73493 0.0
N2905 N 0.88077 0.14909 0.72007 0.0
N2906 N 0.85292 0.12085 0.7198 0.0
C2907 C 0.86007 0.12672 0.70152 0.0
C2908 C 0.87519 0.14205 0.70167 0.0
C2909 C 0.87389 0.85754 0.70036 0.0
C2910 C 0.88483 0.85269 0.68285 0.0
C2911 C 0.859 0.87251 0.70018 0.0
C2912 C 0.85441 0.88325 0.68249 0.0
H2913 H 0.87635 0.84926 0.71421 0.0
H2914 H 0.85056 0.87516 0.7139 0.0
S2915 S 0.88011 0.87781 0.63309 0.0
N2916 N 0.89112 0.86095 0.64769 0.0
N2917 N 0.86312 0.88908 0.64736 0.0
C2918 C 0.86592 0.87928 0.66512 0.0
C2919 C 0.88113 0.86401 0.6653 0.0
C2920 C 0.30485 0.1429 0.12719 0.0
C2921 C 0.32276 0.14918 0.11775 0.0
C2922 C 0.305 0.12806 0.1422 0.0
C2923 C 0.32307 0.11886 0.14841 0.0
H2924 H 0.29061 0.14996 0.12344 0.0
H2925 H 0.29087 0.12425 0.14943 0.0
S2926 S 0.3739 0.1285 0.12712 0.0
N2927 N 0.35893 0.14398 0.11467 0.0
N2928 N 0.35921 0.11608 0.1429 0.0
C2929 C 0.34098 0.12428 0.13842 0.0
C2930 C 0.34083 0.13943 0.1231 0.0
C2931 C 0.87512 0.33716 0.14069 0.0
C2932 C 0.88157 0.31932 0.15017 0.0
C2933 C 0.86045 0.3368 0.12545 0.0
C2934 C 0.85166 0.31857 0.11907 0.0
H2935 H 0.88099 0.35162 0.14545 0.0
H2936 H 0.85554 0.351 0.11906 0.0
S2937 S 0.86457 0.26745 0.13782 0.0
N2938 N 0.87897 0.28276 0.15112 0.0
N2939 N 0.85148 0.28207 0.12255 0.0
C2940 C 0.8586 0.30054 0.12783 0.0
C2941 C 0.87352 0.30091 0.14335 0.0
C2942 C 0.69838 0.87249 0.14354 0.0
C2943 C 0.68047 0.88247 0.14897 0.0
C2944 C 0.69849 0.85746 0.1287 0.0
C2945 C 0.68069 0.85175 0.11868 0.0
H2946 H 0.71237 0.87583 0.15126 0.0
H2947 H 0.71256 0.8498 0.12556 0.0
S2948 S 0.63011 0.87455 0.12591 0.0
N2949 N 0.6447 0.88658 0.14208 0.0
N2950 N 0.6449 0.85833 0.11422 0.0
C2951 C 0.66285 0.86226 0.12327 0.0
C2952 C 0.66274 0.87761 0.13839 0.0
C2953 C 0.14302 0.69977 0.12877 0.0
C2954 C 0.14889 0.68194 0.11891 0.0
C2955 C 0.12806 0.69964 0.14367 0.0
C2956 C 0.11834 0.68168 0.14933 0.0
H2957 H 0.1505 0.7139 0.12546 0.0
H2958 H 0.12459 0.71367 0.15125 0.0
S2959 S 0.12666 0.6312 0.12667 0.0
N2960 N 0.14269 0.64605 0.11478 0.0
N2961 N 0.11456 0.6458 0.14277 0.0
C2962 C 0.12334 0.66389 0.1389 0.0
C2963 C 0.13861 0.66403 0.1237 0.0
C2964 C 0.33675 0.8758 0.86226 0.0
C2965 C 0.31874 0.88277 0.85351 0.0
C2966 C 0.3366 0.86086 0.87722 0.0
C2967 C 0.31842 0.8523 0.88402 0.0
H2968 H 0.35117 0.8814 0.85704 0.0
H2969 H 0.3509 0.85548 0.88296 0.0
S2970 S 0.26696 0.86685 0.86754 0.0
N2971 N 0.28211 0.88112 0.85393 0.0
N2972 N 0.28182 0.8531 0.88199 0.0
C2973 C 0.30025 0.85987 0.87613 0.0
C2974 C 0.3004 0.87508 0.8609 0.0
C2975 C 0.14342 0.303 0.87223 0.0
C2976 C 0.14907 0.32067 0.88251 0.0
C2977 C 0.12841 0.30329 0.85737 0.0
C2978 C 0.1184 0.32125 0.85216 0.0
H2979 H 0.15109 0.2889 0.8752 0.0
H2980 H 0.12509 0.28939 0.84947 0.0
S2981 S 0.12619 0.37131 0.8759 0.0
N2982 N 0.14242 0.35639 0.88743 0.0
N2983 N 0.11423 0.35692 0.85952 0.0
C2984 C 0.12322 0.33885 0.86297 0.0
C2985 C 0.13854 0.33856 0.87813 0.0
C2986 C 0.70009 0.1442 0.87129 0.0
C2987 C 0.68275 0.14809 0.88287 0.0
C2988 C 0.7002 0.12919 0.85644 0.0
C2989 C 0.68299 0.11743 0.85253 0.0
H2990 H 0.71351 0.15328 0.87319 0.0
H2991 H 0.71371 0.1273 0.84748 0.0
S2992 S 0.6344 0.12009 0.88014 0.0
N2993 N 0.64841 0.13782 0.89054 0.0
N2994 N 0.64863 0.10961 0.86262 0.0
C2995 C 0.66588 0.12043 0.86471 0.0
C2996 C 0.66576 0.13575 0.87987 0.0
C2997 C 0.87485 0.66297 0.86135 0.0
C2998 C 0.88277 0.68115 0.85381 0.0
C2999 C 0.85975 0.66291 0.87614 0.0
C3000 C 0.85198 0.68102 0.884 0.0
H3001 H 0.87978 0.64866 0.85523 0.0
H3002 H 0.85361 0.64855 0.8809 0.0
S3003 S 0.86931 0.73263 0.87108 0.0
N3004 N 0.88296 0.7177 0.85662 0.0
N3005 N 0.85465 0.71759 0.88439 0.0
C3006 C 0.86055 0.69926 0.87739 0.0
C3007 C 0.87591 0.69932 0.86231 0.0
C3008 C 0.14008 0.3354 0.12461 0.0
C3009 C 0.14855 0.31715 0.11787 0.0
C3010 C 0.12527 0.3357 0.13969 0.0
C3011 C 0.11834 0.31777 0.14865 0.0
H3012 H 0.14542 0.34965 0.11872 0.0
H3013 H 0.11975 0.35017 0.14484 0.0
S3014 S 0.13401 0.26586 0.13484 0.0
N3015 N 0.14768 0.28058 0.12017 0.0
N3016 N 0.1199 0.28114 0.14847 0.0
C3017 C 0.12593 0.29936 0.14133 0.0
C3018 C 0.14101 0.29905 0.12596 0.0
C3019 C 0.14185 0.69755 0.87357 0.0
C3020 C 0.14818 0.67974 0.88317 0.0
C3021 C 0.12702 0.69723 0.85855 0.0
C3022 C 0.11792 0.67908 0.85246 0.0
H3023 H 0.14883 0.71185 0.87722 0.0
H3024 H 0.12317 0.71129 0.85121 0.0
S3025 S 0.12776 0.62844 0.87411 0.0
N3026 N 0.14315 0.64357 0.88649 0.0
N3027 N 0.1153 0.64297 0.85821 0.0
C3028 C 0.12341 0.66126 0.86257 0.0
C3029 C 0.13852 0.66159 0.87793 0.0
C3030 C 0.30367 0.14291 0.87368 0.0
C3031 C 0.32173 0.14941 0.88267 0.0
C3032 C 0.30363 0.12789 0.85884 0.0
C3033 C 0.32164 0.11876 0.85236 0.0
H3034 H 0.28947 0.14991 0.87763 0.0
H3035 H 0.28939 0.12391 0.85192 0.0
S3036 S 0.37282 0.12899 0.87249 0.0
N3037 N 0.35799 0.14451 0.88507 0.0
N3038 N 0.3579 0.1163 0.85717 0.0
C3039 C 0.33971 0.12441 0.86192 0.0
C3040 C 0.33975 0.13972 0.87707 0.0
C3041 C 0.87575 0.33696 0.86096 0.0
C3042 C 0.8814 0.31918 0.85087 0.0
C3043 C 0.86096 0.33677 0.87608 0.0
C3044 C 0.85119 0.31879 0.88167 0.0
H3045 H 0.88237 0.35128 0.85676 0.0
H3046 H 0.85668 0.35096 0.88293 0.0
S3047 S 0.86169 0.26781 0.86113 0.0
N3048 N 0.87698 0.28285 0.84854 0.0
N3049 N 0.84922 0.28251 0.87684 0.0
C3050 C 0.85732 0.30077 0.87233 0.0
C3051 C 0.87241 0.30096 0.85697 0.0
C3052 C 0.69923 0.8714 0.85674 0.0
C3053 C 0.6817 0.88222 0.85175 0.0
C3054 C 0.69903 0.85651 0.87172 0.0
C3055 C 0.68128 0.8518 0.88232 0.0
H3056 H 0.71314 0.87397 0.84859 0.0
H3057 H 0.71279 0.84819 0.87452 0.0
S3058 S 0.63173 0.87707 0.87638 0.0
N3059 N 0.6464 0.8882 0.85966 0.0
N3060 N 0.64602 0.8602 0.88779 0.0
C3061 C 0.66385 0.86315 0.87816 0.0
C3062 C 0.66406 0.87836 0.86289 0.0
C3063 C 0.85759 0.69756 0.12817 0.0
C3064 C 0.85139 0.67955 0.11886 0.0
C3065 C 0.87252 0.69759 0.14311 0.0
C3066 C 0.88188 0.67962 0.14936 0.0
H3067 H 0.85043 0.71173 0.12437 0.0
H3068 H 0.87628 0.71179 0.15023 0.0
S3069 S 0.87241 0.6286 0.12846 0.0
N3070 N 0.85677 0.6434 0.116 0.0
N3071 N 0.88483 0.64346 0.14407 0.0
C3072 C 0.8765 0.66161 0.13952 0.0
C3073 C 0.86126 0.66158 0.12429 0.0
C3074 C 0.30513 0.86066 0.12648 0.0
C3075 C 0.32321 0.8537 0.11786 0.0
C3076 C 0.30516 0.87558 0.14141 0.0
C3077 C 0.32325 0.88419 0.14833 0.0
H3078 H 0.29084 0.85402 0.12223 0.0
H3079 H 0.29088 0.87986 0.14807 0.0
S3080 S 0.37456 0.87281 0.12914 0.0
N3081 N 0.35961 0.85773 0.11618 0.0
N3082 N 0.35965 0.88581 0.14424 0.0
C3083 C 0.34136 0.87819 0.13905 0.0
C3084 C 0.34134 0.86294 0.12383 0.0
C3085 C 0.66413 0.13983 0.12533 0.0
C3086 C 0.68234 0.1481 0.11824 0.0
C3087 C 0.66397 0.12501 0.14042 0.0
C3088 C 0.682 0.11785 0.149 0.0
H3089 H 0.64984 0.14535 0.11971 0.0
H3090 H 0.64955 0.11964 0.14587 0.0
S3091 S 0.7338 0.13299 0.13418 0.0
N3092 N 0.71894 0.14683 0.11982 0.0
N3093 N 0.71864 0.11902 0.14809 0.0
C3094 C 0.70034 0.12526 0.14132 0.0
C3095 C 0.7005 0.14036 0.12598 0.0
C3096 C 0.6287 0.64575 0.80195 0.0
C3097 C 0.61741 0.65021 0.81933 0.0
C3098 C 0.64356 0.63076 0.80206 0.0
C3099 C 0.64778 0.61957 0.81958 0.0
H3100 H 0.62652 0.65434 0.78823 0.0
H3101 H 0.65224 0.62838 0.78844 0.0
S3102 S 0.62117 0.62396 0.86859 0.0
N3103 N 0.61046 0.64118 0.85418 0.0
N3104 N 0.63841 0.61299 0.85441 0.0
C3105 C 0.63597 0.6232 0.83683 0.0
C3106 C 0.62079 0.63851 0.8367 0.0
C3107 C 0.35781 0.62725 0.80318 0.0
C3108 C 0.35178 0.61804 0.82131 0.0
C3109 C 0.37267 0.64225 0.80293 0.0
C3110 C 0.38213 0.64867 0.82078 0.0
H3111 H 0.35052 0.62336 0.7891 0.0
H3112 H 0.37626 0.64933 0.78866 0.0
S3113 S 0.37324 0.628 0.87201 0.0
N3114 N 0.35752 0.61539 0.85742 0.0
N3115 N 0.38545 0.64357 0.85694 0.0
C3116 C 0.37698 0.63889 0.83889 0.0
C3117 C 0.36182 0.62359 0.83915 0.0
C3118 C 0.37692 0.36087 0.83486 0.0
C3119 C 0.3827 0.35153 0.81671 0.0
C3120 C 0.36205 0.37589 0.83521 0.0
C3121 C 0.35235 0.38217 0.81742 0.0
H3122 H 0.38345 0.35611 0.84904 0.0
H3123 H 0.35767 0.38213 0.84964 0.0
S3124 S 0.36338 0.36392 0.76568 0.0
N3125 N 0.37859 0.35074 0.78029 0.0
N3126 N 0.35069 0.37892 0.78093 0.0
C3127 C 0.35866 0.37364 0.79905 0.0
C3128 C 0.37381 0.35834 0.7987 0.0
C3129 C 0.62663 0.35901 0.83581 0.0
C3130 C 0.61942 0.3507 0.81767 0.0
C3131 C 0.64139 0.37414 0.83583 0.0
C3132 C 0.64953 0.38158 0.81771 0.0
H3133 H 0.62129 0.35337 0.85017 0.0
H3134 H 0.64689 0.37959 0.8502 0.0
S3135 S 0.6344 0.36627 0.76605 0.0
N3136 N 0.62054 0.35208 0.78105 0.0
N3137 N 0.64821 0.38047 0.78108 0.0
C3138 C 0.64182 0.37404 0.79945 0.0
C3139 C 0.62679 0.35862 0.79943 0.0
C3140 C 0.64156 0.37542 0.16432 0.0
C3141 C 0.65029 0.38194 0.18252 0.0
C3142 C 0.62666 0.36041 0.16409 0.0
C3143 C 0.61993 0.35135 0.18205 0.0
H3144 H 0.64677 0.38141 0.15006 0.0
H3145 H 0.62092 0.35539 0.14966 0.0
S3146 S 0.63632 0.36465 0.23388 0.0
N3147 N 0.64987 0.37935 0.2191 0.0
N3148 N 0.62195 0.35122 0.21866 0.0
C3149 C 0.62779 0.35847 0.20041 0.0
C3150 C 0.64294 0.37374 0.20065 0.0
C3151 C 0.62728 0.64182 0.19894 0.0
C3152 C 0.61757 0.64751 0.18096 0.0
C3153 C 0.64218 0.62687 0.19909 0.0
C3154 C 0.64801 0.61696 0.18128 0.0
H3155 H 0.62385 0.64944 0.21296 0.0
H3156 H 0.64965 0.62357 0.21322 0.0
S3157 S 0.62584 0.62479 0.13051 0.0
N3158 N 0.61378 0.64094 0.14509 0.0
N3159 N 0.6418 0.61282 0.14538 0.0
C3160 C 0.63772 0.62174 0.16335 0.0
C3161 C 0.6225 0.63701 0.1632 0.0
C3162 C 0.37578 0.63964 0.16503 0.0
C3163 C 0.38251 0.64801 0.18332 0.0
C3164 C 0.36079 0.62475 0.16466 0.0
C3165 C 0.3519 0.61765 0.18256 0.0
H3166 H 0.38163 0.6451 0.1508 0.0
H3167 H 0.35564 0.6193 0.15016 0.0
S3168 S 0.36564 0.6331 0.23455 0.0
N3169 N 0.38023 0.64692 0.2199 0.0
N3170 N 0.35207 0.619 0.2192 0.0
C3171 C 0.35919 0.62516 0.20101 0.0
C3172 C 0.37449 0.64031 0.20139 0.0
C3173 C 0.37561 0.36074 0.16283 0.0
C3174 C 0.38317 0.35277 0.18096 0.0
C3175 C 0.36046 0.3755 0.16283 0.0
C3176 C 0.35231 0.38288 0.18097 0.0
H3177 H 0.38086 0.35502 0.14847 0.0
H3178 H 0.35461 0.38061 0.14847 0.0
S3179 S 0.36858 0.36866 0.23259 0.0
N3180 N 0.38258 0.35463 0.21757 0.0
N3181 N 0.3542 0.38232 0.21758 0.0
C3182 C 0.36051 0.37581 0.19921 0.0
C3183 C 0.3759 0.36077 0.19921 0.0
C3184 C 0.83601 0.64149 0.6256 0.0
C3185 C 0.81824 0.65116 0.61924 0.0
C3186 C 0.83559 0.62649 0.6405 0.0
C3187 C 0.81739 0.62057 0.64965 0.0
H3188 H 0.85047 0.64596 0.61951 0.0
H3189 H 0.84976 0.61999 0.64534 0.0
S3190 S 0.7664 0.63981 0.63699 0.0
N3191 N 0.78173 0.65267 0.62221 0.0
N3192 N 0.78095 0.62455 0.65017 0.0
C3193 C 0.79941 0.62945 0.64275 0.0
C3194 C 0.79983 0.64472 0.62757 0.0
C3195 C 0.35792 0.80485 0.62812 0.0
C3196 C 0.35195 0.82287 0.61867 0.0
C3197 C 0.37294 0.8047 0.64296 0.0
C3198 C 0.38262 0.82257 0.649 0.0
H3199 H 0.3505 0.79076 0.62451 0.0
H3200 H 0.37649 0.79051 0.6502 0.0
S3201 S 0.37393 0.87353 0.62761 0.0
N3202 N 0.35796 0.85889 0.61539 0.0
N3203 N 0.38617 0.85861 0.64331 0.0
C3204 C 0.3775 0.84057 0.63901 0.0
C3205 C 0.36218 0.84072 0.62384 0.0
C3206 C 0.19962 0.35751 0.62936 0.0
C3207 C 0.18196 0.35278 0.61862 0.0
C3208 C 0.19969 0.37237 0.64436 0.0
C3209 C 0.18209 0.38313 0.64927 0.0
H3210 H 0.21343 0.34924 0.62662 0.0
H3211 H 0.21354 0.37497 0.65259 0.0
S3212 S 0.13228 0.37786 0.62434 0.0
N3213 N 0.1467 0.36107 0.61297 0.0
N3214 N 0.14682 0.38901 0.64117 0.0
C3215 C 0.16453 0.37922 0.63802 0.0
C3216 C 0.16447 0.36406 0.62271 0.0
C3217 C 0.64204 0.16411 0.6266 0.0
C3218 C 0.65045 0.18237 0.61983 0.0
C3219 C 0.627 0.1638 0.64145 0.0
C3220 C 0.61973 0.18174 0.65012 0.0
H3221 H 0.64755 0.14986 0.62085 0.0
H3222 H 0.62147 0.14932 0.64658 0.0
S3223 S 0.6354 0.23367 0.63635 0.0
N3224 N 0.64938 0.21895 0.62198 0.0
N3225 N 0.62114 0.21838 0.64982 0.0
C3226 C 0.62737 0.20015 0.64286 0.0
C3227 C 0.64271 0.20046 0.62775 0.0
C3228 C 0.80361 0.35817 0.37342 0.0
C3229 C 0.82133 0.35323 0.38396 0.0
C3230 C 0.8035 0.37323 0.35864 0.0
C3231 C 0.82109 0.38403 0.35378 0.0
H3232 H 0.78981 0.34987 0.3761 0.0
H3233 H 0.78961 0.37595 0.35051 0.0
S3234 S 0.87098 0.3784 0.37843 0.0
N3235 N 0.85661 0.36144 0.3896 0.0
N3236 N 0.85638 0.38979 0.36182 0.0
C3237 C 0.83869 0.37997 0.3649 0.0
C3238 C 0.83881 0.36456 0.37997 0.0
C3239 C 0.64059 0.83638 0.37617 0.0
C3240 C 0.65024 0.8186 0.38253 0.0
C3241 C 0.62552 0.83598 0.36135 0.0
C3242 C 0.61949 0.81777 0.35229 0.0
H3243 H 0.64514 0.85085 0.38221 0.0
H3244 H 0.61903 0.85015 0.3565 0.0
S3245 S 0.63865 0.76674 0.36498 0.0
N3246 N 0.65162 0.78207 0.37964 0.0
N3247 N 0.62335 0.78131 0.35185 0.0
C3248 C 0.62835 0.79977 0.35919 0.0
C3249 C 0.6437 0.80018 0.37427 0.0
C3250 C 0.1645 0.63998 0.37549 0.0
C3251 C 0.18254 0.64871 0.38243 0.0
C3252 C 0.1646 0.625 0.36057 0.0
C3253 C 0.18274 0.61819 0.35194 0.0
H3254 H 0.1501 0.64523 0.38111 0.0
H3255 H 0.15027 0.61928 0.35523 0.0
S3256 S 0.23425 0.63458 0.36635 0.0
N3257 N 0.21916 0.64821 0.38067 0.0
N3258 N 0.21933 0.62016 0.35264 0.0
C3259 C 0.20094 0.62605 0.35946 0.0
C3260 C 0.20084 0.64128 0.37469 0.0
C3261 C 0.36135 0.16547 0.37504 0.0
C3262 C 0.35187 0.18338 0.38133 0.0
C3263 C 0.37649 0.16567 0.36028 0.0
C3264 C 0.38274 0.18379 0.3512 0.0
H3265 H 0.35661 0.15107 0.3811 0.0
H3266 H 0.38285 0.15142 0.35549 0.0
S3267 S 0.3641 0.23506 0.36368 0.0
N3268 N 0.3509 0.21991 0.37834 0.0
N3269 N 0.37928 0.22029 0.35065 0.0
C3270 C 0.37405 0.2019 0.35801 0.0
C3271 C 0.35864 0.2017 0.37305 0.0
C3272 C 0.64143 0.83798 0.62534 0.0
C3273 C 0.64997 0.8199 0.61826 0.0
C3274 C 0.62628 0.83791 0.64009 0.0
C3275 C 0.61908 0.81976 0.64836 0.0
H3276 H 0.64693 0.85237 0.61994 0.0
H3277 H 0.62068 0.85225 0.64553 0.0
S3278 S 0.63493 0.7682 0.63349 0.0
N3279 N 0.64896 0.78327 0.61954 0.0
N3280 N 0.62056 0.78314 0.64722 0.0
C3281 C 0.6268 0.80154 0.64072 0.0
C3282 C 0.64222 0.80161 0.62569 0.0
C3283 C 0.62658 0.16592 0.36178 0.0
C3284 C 0.6201 0.18395 0.35268 0.0
C3285 C 0.6416 0.16595 0.37667 0.0
C3286 C 0.65071 0.18401 0.38306 0.0
H3287 H 0.62053 0.15158 0.35689 0.0
H3288 H 0.64655 0.15163 0.38272 0.0
S3289 S 0.63764 0.23552 0.36551 0.0
N3290 N 0.62286 0.22051 0.35229 0.0
N3291 N 0.65101 0.22057 0.38022 0.0
C3292 C 0.64367 0.20223 0.37479 0.0
C3293 C 0.62839 0.2022 0.35962 0.0
C3294 C 0.83694 0.62693 0.36178 0.0
C3295 C 0.81874 0.62037 0.3531 0.0
C3296 C 0.83719 0.64199 0.37663 0.0
C3297 C 0.81924 0.65107 0.38339 0.0
H3298 H 0.8512 0.62091 0.35659 0.0
H3299 H 0.85163 0.64702 0.38234 0.0
S3300 S 0.76741 0.63773 0.36706 0.0
N3301 N 0.78218 0.62299 0.35353 0.0
N3302 N 0.78264 0.6512 0.38139 0.0
C3303 C 0.80087 0.64393 0.37556 0.0
C3304 C 0.80063 0.62861 0.36043 0.0
C3305 C 0.37444 0.83812 0.36017 0.0
C3306 C 0.38295 0.81994 0.35331 0.0
C3307 C 0.35932 0.83825 0.37495 0.0
C3308 C 0.35212 0.82021 0.38347 0.0
H3309 H 0.37894 0.85235 0.35356 0.0
H3310 H 0.35275 0.85258 0.37918 0.0
S3311 S 0.371 0.76872 0.37239 0.0
N3312 N 0.38422 0.78353 0.35741 0.0
N3313 N 0.35587 0.78378 0.38515 0.0
C3314 C 0.36123 0.80201 0.37751 0.0
C3315 C 0.37662 0.80188 0.36245 0.0
C3316 C 0.19842 0.37368 0.35825 0.0
C3317 C 0.18041 0.38301 0.35206 0.0
C3318 C 0.19847 0.35873 0.37317 0.0
C3319 C 0.1805 0.35248 0.38254 0.0
H3320 H 0.21258 0.37746 0.35106 0.0
H3321 H 0.21265 0.35156 0.3769 0.0
S3322 S 0.12949 0.37348 0.37317 0.0
N3323 N 0.14428 0.38593 0.35752 0.0
N3324 N 0.14435 0.35784 0.38555 0.0
C3325 C 0.1625 0.36236 0.3772 0.0
C3326 C 0.16246 0.37761 0.36198 0.0
C3327 C 0.37567 0.16367 0.63908 0.0
C3328 C 0.3831 0.18173 0.64738 0.0
C3329 C 0.36065 0.16381 0.6242 0.0
C3330 C 0.35244 0.18201 0.61704 0.0
H3331 H 0.38098 0.14926 0.64461 0.0
H3332 H 0.35493 0.1495 0.61882 0.0
S3333 S 0.36824 0.2335 0.6322 0.0
N3334 N 0.38225 0.21836 0.6461 0.0
N3335 N 0.35407 0.21861 0.6182 0.0
C3336 C 0.36045 0.20019 0.62447 0.0
C3337 C 0.37576 0.20005 0.63961 0.0
C3338 C 0.80251 0.375 0.64215 0.0
C3339 C 0.82032 0.38512 0.64764 0.0
C3340 C 0.80261 0.3598 0.62749 0.0
C3341 C 0.82053 0.35408 0.61771 0.0
H3342 H 0.78844 0.3783 0.64974 0.0
H3343 H 0.78862 0.35201 0.62435 0.0
S3344 S 0.87087 0.37737 0.625 0.0
N3345 N 0.85609 0.38946 0.64094 0.0
N3346 N 0.85629 0.3609 0.61339 0.0
C3347 C 0.83826 0.36481 0.62227 0.0
C3348 C 0.83815 0.38032 0.63722 0.0
C3349 C 0.16583 0.62602 0.64001 0.0
C3350 C 0.18394 0.61908 0.64861 0.0
C3351 C 0.16582 0.64097 0.62506 0.0
C3352 C 0.18392 0.64956 0.6181 0.0
H3353 H 0.15147 0.62039 0.64534 0.0
H3354 H 0.15146 0.64631 0.61944 0.0
S3355 S 0.23555 0.63509 0.63412 0.0
N3356 N 0.22054 0.6208 0.64787 0.0
N3357 N 0.22054 0.64882 0.61981 0.0
C3358 C 0.20218 0.64203 0.62584 0.0
C3359 C 0.20218 0.62682 0.64108 0.0
loop_
_geom_bond_atom_site_label_1
_geom_bond_atom_site_label_2
_geom_bond_distance
_geom_bond_site_symmetry_2
_ccdc_geom_bond_type
In0 O1 2.294 . S
In0 O2 2.326 . S
In0 O6 2.266 . S
In0 O7 2.326 . S
In0 O8 2.266 . S
In0 O9 2.326 . S
In0 O11 2.294 . S
In0 O12 2.326 . S
O1 In0 2.294 . S
O1 C10 1.240 . S
O2 In0 2.326 . S
O2 C10 1.252 . S
C3 O6 1.252 . S
C3 O7 1.260 . S
C4 O11 1.240 . S
C4 O12 1.252 . S
C5 O8 1.252 . S
C5 O9 1.260 . S
O6 In0 2.266 . S
O6 C3 1.252 . S
O7 In0 2.326 . S
O7 C3 1.260 . S
O8 In0 2.266 . S
O8 C5 1.252 . S
O9 In0 2.326 . S
O9 C5 1.260 . S
C10 O1 1.240 . S
C10 O2 1.252 . S
O11 In0 2.294 . S
O11 C4 1.240 . S
O12 In0 2.326 . S
O12 C4 1.252 . S
In13 O14 2.294 . S
In13 O15 2.326 . S
In13 O19 2.266 . S
In13 O20 2.326 . S
In13 O21 2.266 . S
In13 O22 2.326 . S
In13 O24 2.294 . S
In13 O25 2.326 . S
O14 In13 2.294 . S
O14 C23 1.240 . S
O15 In13 2.326 . S
O15 C23 1.252 . S
C16 O19 1.252 . S
C16 O20 1.260 . S
C17 O24 1.240 . S
C17 O25 1.252 . S
C18 O21 1.252 . S
C18 O22 1.260 . S
O19 In13 2.266 . S
O19 C16 1.252 . S
O20 In13 2.326 . S
O20 C16 1.260 . S
O21 In13 2.266 . S
O21 C18 1.252 . S
O22 In13 2.326 . S
O22 C18 1.260 . S
C23 O14 1.240 . S
C23 O15 1.252 . S
O24 In13 2.294 . S
O24 C17 1.240 . S
O25 In13 2.326 . S
O25 C17 1.252 . S
In26 O27 2.294 . S
In26 O28 2.326 . S
In26 O32 2.266 . S
In26 O33 2.326 . S
In26 O34 2.266 . S
In26 O35 2.326 . S
In26 O37 2.294 . S
In26 O38 2.326 . S
O27 In26 2.294 . S
O27 C36 1.240 . S
O28 In26 2.326 . S
O28 C36 1.252 . S
C29 O32 1.252 . S
C29 O33 1.260 . S
C30 O37 1.240 . S
C30 O38 1.252 . S
C31 O34 1.252 . S
C31 O35 1.260 . S
O32 In26 2.266 . S
O32 C29 1.252 . S
O33 In26 2.326 . S
O33 C29 1.260 . S
O34 In26 2.266 . S
O34 C31 1.252 . S
O35 In26 2.326 . S
O35 C31 1.260 . S
C36 O27 1.240 . S
C36 O28 1.252 . S
O37 In26 2.294 . S
O37 C30 1.240 . S
O38 In26 2.326 . S
O38 C30 1.252 . S
In39 O40 2.294 . S
In39 O41 2.326 . S
In39 O45 2.266 . S
In39 O46 2.326 . S
In39 O47 2.266 . S
In39 O48 2.326 . S
In39 O50 2.294 . S
In39 O51 2.326 . S
O40 In39 2.294 . S
O40 C49 1.240 . S
O41 In39 2.326 . S
O41 C49 1.252 . S
C42 O45 1.252 . S
C42 O46 1.260 . S
C43 O50 1.240 . S
C43 O51 1.252 . S
C44 O47 1.252 . S
C44 O48 1.260 . S
O45 In39 2.266 . S
O45 C42 1.252 . S
O46 In39 2.326 . S
O46 C42 1.260 . S
O47 In39 2.266 . S
O47 C44 1.252 . S
O48 In39 2.326 . S
O48 C44 1.260 . S
C49 O40 1.240 . S
C49 O41 1.252 . S
O50 In39 2.294 . S
O50 C43 1.240 . S
O51 In39 2.326 . S
O51 C43 1.252 . S
In52 O53 2.294 . S
In52 O54 2.326 . S
In52 O58 2.266 . S
In52 O59 2.326 . S
In52 O60 2.266 . S
In52 O61 2.326 . S
In52 O63 2.294 . S
In52 O64 2.326 . S
O53 In52 2.294 . S
O53 C62 1.240 . S
O54 In52 2.326 . S
O54 C62 1.252 . S
C55 O58 1.252 . S
C55 O59 1.260 . S
C56 O63 1.240 . S
C56 O64 1.252 . S
C57 O60 1.252 . S
C57 O61 1.260 . S
O58 In52 2.266 . S
O58 C55 1.252 . S
O59 In52 2.326 . S
O59 C55 1.260 . S
O60 In52 2.266 . S
O60 C57 1.252 . S
O61 In52 2.326 . S
O61 C57 1.260 . S
C62 O53 1.240 . S
C62 O54 1.252 . S
O63 In52 2.294 . S
O63 C56 1.240 . S
O64 In52 2.326 . S
O64 C56 1.252 . S
In65 O66 2.294 . S
In65 O67 2.326 . S
In65 O71 2.266 . S
In65 O72 2.326 . S
In65 O73 2.266 . S
In65 O74 2.326 . S
In65 O76 2.294 . S
In65 O77 2.326 . S
O66 In65 2.294 . S
O66 C75 1.240 . S
O67 In65 2.326 . S
O67 C75 1.252 . S
C68 O71 1.252 . S
C68 O72 1.260 . S
C69 O76 1.240 . S
C69 O77 1.252 . S
C70 O73 1.252 . S
C70 O74 1.260 . S
O71 In65 2.266 . S
O71 C68 1.252 . S
O72 In65 2.326 . S
O72 C68 1.260 . S
O73 In65 2.266 . S
O73 C70 1.252 . S
O74 In65 2.326 . S
O74 C70 1.260 . S
C75 O66 1.240 . S
C75 O67 1.252 . S
O76 In65 2.294 . S
O76 C69 1.240 . S
O77 In65 2.326 . S
O77 C69 1.252 . S
In78 O79 2.294 . S
In78 O80 2.326 . S
In78 O84 2.266 . S
In78 O85 2.326 . S
In78 O86 2.266 . S
In78 O87 2.326 . S
In78 O89 2.294 . S
In78 O90 2.326 . S
O79 In78 2.294 . S
O79 C88 1.240 . S
O80 In78 2.326 . S
O80 C88 1.252 . S
C81 O84 1.252 . S
C81 O85 1.260 . S
C82 O89 1.240 . S
C82 O90 1.252 . S
C83 O86 1.252 . S
C83 O87 1.260 . S
O84 In78 2.266 . S
O84 C81 1.252 . S
O85 In78 2.326 . S
O85 C81 1.260 . S
O86 In78 2.266 . S
O86 C83 1.252 . S
O87 In78 2.326 . S
O87 C83 1.260 . S
C88 O79 1.240 . S
C88 O80 1.252 . S
O89 In78 2.294 . S
O89 C82 1.240 . S
O90 In78 2.326 . S
O90 C82 1.252 . S
In91 O92 2.294 . S
In91 O93 2.326 . S
In91 O97 2.266 . S
In91 O98 2.326 . S
In91 O99 2.266 . S
In91 O100 2.326 . S
In91 O102 2.294 . S
In91 O103 2.326 . S
O92 In91 2.294 . S
O92 C101 1.240 . S
O93 In91 2.326 . S
O93 C101 1.252 . S
C94 O97 1.252 . S
C94 O98 1.260 . S
C95 O102 1.240 . S
C95 O103 1.252 . S
C96 O99 1.252 . S
C96 O100 1.260 . S
O97 In91 2.266 . S
O97 C94 1.252 . S
O98 In91 2.326 . S
O98 C94 1.260 . S
O99 In91 2.266 . S
O99 C96 1.252 . S
O100 In91 2.326 . S
O100 C96 1.260 . S
C101 O92 1.240 . S
C101 O93 1.252 . S
O102 In91 2.294 . S
O102 C95 1.240 . S
O103 In91 2.326 . S
O103 C95 1.252 . S
In104 O105 2.294 . S
In104 O106 2.326 . S
In104 O110 2.266 . S
In104 O111 2.326 . S
In104 O112 2.266 . S
In104 O113 2.326 . S
In104 O115 2.294 . S
In104 O116 2.326 . S
O105 In104 2.294 . S
O105 C114 1.240 . S
O106 In104 2.326 . S
O106 C114 1.252 . S
C107 O110 1.252 . S
C107 O111 1.260 . S
C108 O115 1.240 . S
C108 O116 1.252 . S
C109 O112 1.252 . S
C109 O113 1.260 . S
O110 In104 2.266 . S
O110 C107 1.252 . S
O111 In104 2.326 . S
O111 C107 1.260 . S
O112 In104 2.266 . S
O112 C109 1.252 . S
O113 In104 2.326 . S
O113 C109 1.260 . S
C114 O105 1.240 . S
C114 O106 1.252 . S
O115 In104 2.294 . S
O115 C108 1.240 . S
O116 In104 2.326 . S
O116 C108 1.252 . S
In117 O118 2.294 . S
In117 O119 2.326 . S
In117 O123 2.266 . S
In117 O124 2.326 . S
In117 O125 2.266 . S
In117 O126 2.326 . S
In117 O128 2.294 . S
In117 O129 2.326 . S
O118 In117 2.294 . S
O118 C127 1.240 . S
O119 In117 2.326 . S
O119 C127 1.252 . S
C120 O123 1.252 . S
C120 O124 1.260 . S
C121 O128 1.240 . S
C121 O129 1.252 . S
C122 O125 1.252 . S
C122 O126 1.260 . S
O123 In117 2.266 . S
O123 C120 1.252 . S
O124 In117 2.326 . S
O124 C120 1.260 . S
O125 In117 2.266 . S
O125 C122 1.252 . S
O126 In117 2.326 . S
O126 C122 1.260 . S
C127 O118 1.240 . S
C127 O119 1.252 . S
O128 In117 2.294 . S
O128 C121 1.240 . S
O129 In117 2.326 . S
O129 C121 1.252 . S
In130 O131 2.294 . S
In130 O132 2.326 . S
In130 O136 2.266 . S
In130 O137 2.326 . S
In130 O138 2.266 . S
In130 O139 2.326 . S
In130 O141 2.294 . S
In130 O142 2.326 . S
O131 In130 2.294 . S
O131 C140 1.240 . S
O132 In130 2.326 . S
O132 C140 1.252 . S
C133 O136 1.252 . S
C133 O137 1.260 . S
C134 O141 1.240 . S
C134 O142 1.252 . S
C135 O138 1.252 . S
C135 O139 1.260 . S
O136 In130 2.266 . S
O136 C133 1.252 . S
O137 In130 2.326 . S
O137 C133 1.260 . S
O138 In130 2.266 . S
O138 C135 1.252 . S
O139 In130 2.326 . S
O139 C135 1.260 . S
C140 O131 1.240 . S
C140 O132 1.252 . S
O141 In130 2.294 . S
O141 C134 1.240 . S
O142 In130 2.326 . S
O142 C134 1.252 . S
In143 O144 2.294 . S
In143 O145 2.326 . S
In143 O149 2.266 . S
In143 O150 2.326 . S
In143 O151 2.266 . S
In143 O152 2.326 . S
In143 O154 2.294 . S
In143 O155 2.326 . S
O144 In143 2.294 . S
O144 C153 1.240 . S
O145 In143 2.326 . S
O145 C153 1.252 . S
C146 O149 1.252 . S
C146 O150 1.260 . S
C147 O154 1.240 . S
C147 O155 1.252 . S
C148 O151 1.252 . S
C148 O152 1.260 . S
O149 In143 2.266 . S
O149 C146 1.252 . S
O150 In143 2.326 . S
O150 C146 1.260 . S
O151 In143 2.266 . S
O151 C148 1.252 . S
O152 In143 2.326 . S
O152 C148 1.260 . S
C153 O144 1.240 . S
C153 O145 1.252 . S
O154 In143 2.294 . S
O154 C147 1.240 . S
O155 In143 2.326 . S
O155 C147 1.252 . S
In156 O157 2.294 . S
In156 O158 2.326 . S
In156 O162 2.266 . S
In156 O163 2.326 . S
In156 O164 2.266 . S
In156 O165 2.326 . S
In156 O167 2.294 . S
In156 O168 2.326 . S
O157 In156 2.294 . S
O157 C166 1.240 . S
O158 In156 2.326 . S
O158 C166 1.252 . S
C159 O162 1.252 . S
C159 O163 1.260 . S
C160 O167 1.240 . S
C160 O168 1.252 . S
C161 O164 1.252 . S
C161 O165 1.260 . S
O162 In156 2.266 . S
O162 C159 1.252 . S
O163 In156 2.326 . S
O163 C159 1.260 . S
O164 In156 2.266 . S
O164 C161 1.252 . S
O165 In156 2.326 . S
O165 C161 1.260 . S
C166 O157 1.240 . S
C166 O158 1.252 . S
O167 In156 2.294 . S
O167 C160 1.240 . S
O168 In156 2.326 . S
O168 C160 1.252 . S
In169 O170 2.294 . S
In169 O171 2.326 . S
In169 O175 2.266 . S
In169 O176 2.326 . S
In169 O177 2.266 . S
In169 O178 2.326 . S
In169 O180 2.294 . S
In169 O181 2.326 . S
O170 In169 2.294 . S
O170 C179 1.240 . S
O171 In169 2.326 . S
O171 C179 1.252 . S
C172 O175 1.252 . S
C172 O176 1.260 . S
C173 O180 1.240 . S
C173 O181 1.252 . S
C174 O177 1.252 . S
C174 O178 1.260 . S
O175 In169 2.266 . S
O175 C172 1.252 . S
O176 In169 2.326 . S
O176 C172 1.260 . S
O177 In169 2.266 . S
O177 C174 1.252 . S
O178 In169 2.326 . S
O178 C174 1.260 . S
C179 O170 1.240 . S
C179 O171 1.252 . S
O180 In169 2.294 . S
O180 C173 1.240 . S
O181 In169 2.326 . S
O181 C173 1.252 . S
In182 O183 2.294 . S
In182 O184 2.326 . S
In182 O188 2.266 . S
In182 O189 2.326 . S
In182 O190 2.266 . S
In182 O191 2.326 . S
In182 O193 2.294 . S
In182 O194 2.326 . S
O183 In182 2.294 . S
O183 C192 1.240 . S
O184 In182 2.326 . S
O184 C192 1.252 . S
C185 O188 1.252 . S
C185 O189 1.260 . S
C186 O193 1.240 . S
C186 O194 1.252 . S
C187 O190 1.252 . S
C187 O191 1.260 . S
O188 In182 2.266 . S
O188 C185 1.252 . S
O189 In182 2.326 . S
O189 C185 1.260 . S
O190 In182 2.266 . S
O190 C187 1.252 . S
O191 In182 2.326 . S
O191 C187 1.260 . S
C192 O183 1.240 . S
C192 O184 1.252 . S
O193 In182 2.294 . S
O193 C186 1.240 . S
O194 In182 2.326 . S
O194 C186 1.252 . S
In195 O196 2.294 . S
In195 O197 2.326 . S
In195 O201 2.266 . S
In195 O202 2.326 . S
In195 O203 2.266 . S
In195 O204 2.326 . S
In195 O206 2.294 . S
In195 O207 2.326 . S
O196 In195 2.294 . S
O196 C205 1.240 . S
O197 In195 2.326 . S
O197 C205 1.252 . S
C198 O201 1.252 . S
C198 O202 1.260 . S
C199 O206 1.240 . S
C199 O207 1.252 . S
C200 O203 1.252 . S
C200 O204 1.260 . S
O201 In195 2.266 . S
O201 C198 1.252 . S
O202 In195 2.326 . S
O202 C198 1.260 . S
O203 In195 2.266 . S
O203 C200 1.252 . S
O204 In195 2.326 . S
O204 C200 1.260 . S
C205 O196 1.240 . S
C205 O197 1.252 . S
O206 In195 2.294 . S
O206 C199 1.240 . S
O207 In195 2.326 . S
O207 C199 1.252 . S
In208 O209 2.294 . S
In208 O210 2.326 . S
In208 O214 2.266 . S
In208 O215 2.326 . S
In208 O216 2.266 . S
In208 O217 2.326 . S
In208 O219 2.294 . S
In208 O220 2.326 . S
O209 In208 2.294 . S
O209 C218 1.240 . S
O210 In208 2.326 . S
O210 C218 1.252 . S
C211 O214 1.252 . S
C211 O215 1.260 . S
C212 O219 1.240 . S
C212 O220 1.252 . S
C213 O216 1.252 . S
C213 O217 1.260 . S
O214 In208 2.266 . S
O214 C211 1.252 . S
O215 In208 2.326 . S
O215 C211 1.260 . S
O216 In208 2.266 . S
O216 C213 1.252 . S
O217 In208 2.326 . S
O217 C213 1.260 . S
C218 O209 1.240 . S
C218 O210 1.252 . S
O219 In208 2.294 . S
O219 C212 1.240 . S
O220 In208 2.326 . S
O220 C212 1.252 . S
In221 O222 2.294 . S
In221 O223 2.326 . S
In221 O227 2.266 . S
In221 O228 2.326 . S
In221 O229 2.266 . S
In221 O230 2.326 . S
In221 O232 2.294 . S
In221 O233 2.326 . S
O222 In221 2.294 . S
O222 C231 1.240 . S
O223 In221 2.326 . S
O223 C231 1.252 . S
C224 O227 1.252 . S
C224 O228 1.260 . S
C225 O232 1.240 . S
C225 O233 1.252 . S
C226 O229 1.252 . S
C226 O230 1.260 . S
O227 In221 2.266 . S
O227 C224 1.252 . S
O228 In221 2.326 . S
O228 C224 1.260 . S
O229 In221 2.266 . S
O229 C226 1.252 . S
O230 In221 2.326 . S
O230 C226 1.260 . S
C231 O222 1.240 . S
C231 O223 1.252 . S
O232 In221 2.294 . S
O232 C225 1.240 . S
O233 In221 2.326 . S
O233 C225 1.252 . S
In234 O235 2.294 . S
In234 O236 2.326 . S
In234 O240 2.266 . S
In234 O241 2.326 . S
In234 O242 2.266 . S
In234 O243 2.326 . S
In234 O245 2.294 . S
In234 O246 2.326 . S
O235 In234 2.294 . S
O235 C244 1.240 . S
O236 In234 2.326 . S
O236 C244 1.252 . S
C237 O240 1.252 . S
C237 O241 1.260 . S
C238 O245 1.240 . S
C238 O246 1.252 . S
C239 O242 1.252 . S
C239 O243 1.260 . S
O240 In234 2.266 . S
O240 C237 1.252 . S
O241 In234 2.326 . S
O241 C237 1.260 . S
O242 In234 2.266 . S
O242 C239 1.252 . S
O243 In234 2.326 . S
O243 C239 1.260 . S
C244 O235 1.240 . S
C244 O236 1.252 . S
O245 In234 2.294 . S
O245 C238 1.240 . S
O246 In234 2.326 . S
O246 C238 1.252 . S
In247 O248 2.294 . S
In247 O249 2.326 . S
In247 O253 2.266 . S
In247 O254 2.326 . S
In247 O255 2.266 . S
In247 O256 2.326 . S
In247 O258 2.294 . S
In247 O259 2.326 . S
O248 In247 2.294 . S
O248 C257 1.240 . S
O249 In247 2.326 . S
O249 C257 1.252 . S
C250 O253 1.252 . S
C250 O254 1.260 . S
C251 O258 1.240 . S
C251 O259 1.252 . S
C252 O255 1.252 . S
C252 O256 1.260 . S
O253 In247 2.266 . S
O253 C250 1.252 . S
O254 In247 2.326 . S
O254 C250 1.260 . S
O255 In247 2.266 . S
O255 C252 1.252 . S
O256 In247 2.326 . S
O256 C252 1.260 . S
C257 O248 1.240 . S
C257 O249 1.252 . S
O258 In247 2.294 . S
O258 C251 1.240 . S
O259 In247 2.326 . S
O259 C251 1.252 . S
In260 O261 2.294 . S
In260 O262 2.326 . S
In260 O266 2.266 . S
In260 O267 2.326 . S
In260 O268 2.266 . S
In260 O269 2.326 . S
In260 O271 2.294 . S
In260 O272 2.326 . S
O261 In260 2.294 . S
O261 C270 1.240 . S
O262 In260 2.326 . S
O262 C270 1.252 . S
C263 O266 1.252 . S
C263 O267 1.260 . S
C264 O271 1.240 . S
C264 O272 1.252 . S
C265 O268 1.252 . S
C265 O269 1.260 . S
O266 In260 2.266 . S
O266 C263 1.252 . S
O267 In260 2.326 . S
O267 C263 1.260 . S
O268 In260 2.266 . S
O268 C265 1.252 . S
O269 In260 2.326 . S
O269 C265 1.260 . S
C270 O261 1.240 . S
C270 O262 1.252 . S
O271 In260 2.294 . S
O271 C264 1.240 . S
O272 In260 2.326 . S
O272 C264 1.252 . S
In273 O274 2.294 . S
In273 O275 2.326 . S
In273 O279 2.266 . S
In273 O280 2.326 . S
In273 O281 2.266 . S
In273 O282 2.326 . S
In273 O284 2.294 . S
In273 O285 2.326 . S
O274 In273 2.294 . S
O274 C283 1.240 . S
O275 In273 2.326 . S
O275 C283 1.252 . S
C276 O279 1.252 . S
C276 O280 1.260 . S
C277 O284 1.240 . S
C277 O285 1.252 . S
C278 O281 1.252 . S
C278 O282 1.260 . S
O279 In273 2.266 . S
O279 C276 1.252 . S
O280 In273 2.326 . S
O280 C276 1.260 . S
O281 In273 2.266 . S
O281 C278 1.252 . S
O282 In273 2.326 . S
O282 C278 1.260 . S
C283 O274 1.240 . S
C283 O275 1.252 . S
O284 In273 2.294 . S
O284 C277 1.240 . S
O285 In273 2.326 . S
O285 C277 1.252 . S
In286 O287 2.294 . S
In286 O288 2.326 . S
In286 O292 2.266 . S
In286 O293 2.326 . S
In286 O294 2.266 . S
In286 O295 2.326 . S
In286 O297 2.294 . S
In286 O298 2.326 . S
O287 In286 2.294 . S
O287 C296 1.240 . S
O288 In286 2.326 . S
O288 C296 1.252 . S
C289 O292 1.252 . S
C289 O293 1.260 . S
C290 O297 1.240 . S
C290 O298 1.252 . S
C291 O294 1.252 . S
C291 O295 1.260 . S
O292 In286 2.266 . S
O292 C289 1.252 . S
O293 In286 2.326 . S
O293 C289 1.260 . S
O294 In286 2.266 . S
O294 C291 1.252 . S
O295 In286 2.326 . S
O295 C291 1.260 . S
C296 O287 1.240 . S
C296 O288 1.252 . S
O297 In286 2.294 . S
O297 C290 1.240 . S
O298 In286 2.326 . S
O298 C290 1.252 . S
In299 O300 2.294 . S
In299 O301 2.326 . S
In299 O305 2.266 . S
In299 O306 2.326 . S
In299 O307 2.266 . S
In299 O308 2.326 . S
In299 O310 2.294 . S
In299 O311 2.326 . S
O300 In299 2.294 . S
O300 C309 1.240 . S
O301 In299 2.326 . S
O301 C309 1.252 . S
C302 O305 1.252 . S
C302 O306 1.260 . S
C303 O310 1.240 . S
C303 O311 1.252 . S
C304 O307 1.252 . S
C304 O308 1.260 . S
O305 In299 2.266 . S
O305 C302 1.252 . S
O306 In299 2.326 . S
O306 C302 1.260 . S
O307 In299 2.266 . S
O307 C304 1.252 . S
O308 In299 2.326 . S
O308 C304 1.260 . S
C309 O300 1.240 . S
C309 O301 1.252 . S
O310 In299 2.294 . S
O310 C303 1.240 . S
O311 In299 2.326 . S
O311 C303 1.252 . S
In312 O313 2.294 . S
In312 O314 2.326 . S
In312 O318 2.266 . S
In312 O319 2.326 . S
In312 O320 2.266 . S
In312 O321 2.326 . S
In312 O323 2.294 . S
In312 O324 2.326 . S
O313 In312 2.294 . S
O313 C322 1.240 . S
O314 In312 2.326 . S
O314 C322 1.252 . S
C315 O318 1.252 . S
C315 O319 1.260 . S
C316 O323 1.240 . S
C316 O324 1.252 . S
C317 O320 1.252 . S
C317 O321 1.260 . S
O318 In312 2.266 . S
O318 C315 1.252 . S
O319 In312 2.326 . S
O319 C315 1.260 . S
O320 In312 2.266 . S
O320 C317 1.252 . S
O321 In312 2.326 . S
O321 C317 1.260 . S
C322 O313 1.240 . S
C322 O314 1.252 . S
O323 In312 2.294 . S
O323 C316 1.240 . S
O324 In312 2.326 . S
O324 C316 1.252 . S
In325 O326 2.294 . S
In325 O327 2.326 . S
In325 O331 2.266 . S
In325 O332 2.326 . S
In325 O333 2.266 . S
In325 O334 2.326 . S
In325 O336 2.294 . S
In325 O337 2.326 . S
O326 In325 2.294 . S
O326 C335 1.240 . S
O327 In325 2.326 . S
O327 C335 1.252 . S
C328 O331 1.252 . S
C328 O332 1.260 . S
C329 O336 1.240 . S
C329 O337 1.252 . S
C330 O333 1.252 . S
C330 O334 1.260 . S
O331 In325 2.266 . S
O331 C328 1.252 . S
O332 In325 2.326 . S
O332 C328 1.260 . S
O333 In325 2.266 . S
O333 C330 1.252 . S
O334 In325 2.326 . S
O334 C330 1.260 . S
C335 O326 1.240 . S
C335 O327 1.252 . S
O336 In325 2.294 . S
O336 C329 1.240 . S
O337 In325 2.326 . S
O337 C329 1.252 . S
In338 O339 2.294 . S
In338 O340 2.326 . S
In338 O344 2.266 . S
In338 O345 2.326 . S
In338 O346 2.266 . S
In338 O347 2.326 . S
In338 O349 2.294 . S
In338 O350 2.326 . S
O339 In338 2.294 . S
O339 C348 1.240 . S
O340 In338 2.326 . S
O340 C348 1.252 . S
C341 O344 1.252 . S
C341 O345 1.260 . S
C342 O349 1.240 . S
C342 O350 1.252 . S
C343 O346 1.252 . S
C343 O347 1.260 . S
O344 In338 2.266 . S
O344 C341 1.252 . S
O345 In338 2.326 . S
O345 C341 1.260 . S
O346 In338 2.266 . S
O346 C343 1.252 . S
O347 In338 2.326 . S
O347 C343 1.260 . S
C348 O339 1.240 . S
C348 O340 1.252 . S
O349 In338 2.294 . S
O349 C342 1.240 . S
O350 In338 2.326 . S
O350 C342 1.252 . S
In351 O352 2.294 . S
In351 O353 2.326 . S
In351 O357 2.266 . S
In351 O358 2.326 . S
In351 O359 2.266 . S
In351 O360 2.326 . S
In351 O362 2.294 . S
In351 O363 2.326 . S
O352 In351 2.294 . S
O352 C361 1.240 . S
O353 In351 2.326 . S
O353 C361 1.252 . S
C354 O357 1.252 . S
C354 O358 1.260 . S
C355 O362 1.240 . S
C355 O363 1.252 . S
C356 O359 1.252 . S
C356 O360 1.260 . S
O357 In351 2.266 . S
O357 C354 1.252 . S
O358 In351 2.326 . S
O358 C354 1.260 . S
O359 In351 2.266 . S
O359 C356 1.252 . S
O360 In351 2.326 . S
O360 C356 1.260 . S
C361 O352 1.240 . S
C361 O353 1.252 . S
O362 In351 2.294 . S
O362 C355 1.240 . S
O363 In351 2.326 . S
O363 C355 1.252 . S
In364 O365 2.294 . S
In364 O366 2.326 . S
In364 O370 2.266 . S
In364 O371 2.326 . S
In364 O372 2.266 . S
In364 O373 2.326 . S
In364 O375 2.294 . S
In364 O376 2.326 . S
O365 In364 2.294 . S
O365 C374 1.240 . S
O366 In364 2.326 . S
O366 C374 1.252 . S
C367 O370 1.252 . S
C367 O371 1.260 . S
C368 O375 1.240 . S
C368 O376 1.252 . S
C369 O372 1.252 . S
C369 O373 1.260 . S
O370 In364 2.266 . S
O370 C367 1.252 . S
O371 In364 2.326 . S
O371 C367 1.260 . S
O372 In364 2.266 . S
O372 C369 1.252 . S
O373 In364 2.326 . S
O373 C369 1.260 . S
C374 O365 1.240 . S
C374 O366 1.252 . S
O375 In364 2.294 . S
O375 C368 1.240 . S
O376 In364 2.326 . S
O376 C368 1.252 . S
In377 O378 2.294 . S
In377 O379 2.326 . S
In377 O383 2.266 . S
In377 O384 2.326 . S
In377 O385 2.266 . S
In377 O386 2.326 . S
In377 O388 2.294 . S
In377 O389 2.326 . S
O378 In377 2.294 . S
O378 C387 1.240 . S
O379 In377 2.326 . S
O379 C387 1.252 . S
C380 O383 1.252 . S
C380 O384 1.260 . S
C381 O388 1.240 . S
C381 O389 1.252 . S
C382 O385 1.252 . S
C382 O386 1.260 . S
O383 In377 2.266 . S
O383 C380 1.252 . S
O384 In377 2.326 . S
O384 C380 1.260 . S
O385 In377 2.266 . S
O385 C382 1.252 . S
O386 In377 2.326 . S
O386 C382 1.260 . S
C387 O378 1.240 . S
C387 O379 1.252 . S
O388 In377 2.294 . S
O388 C381 1.240 . S
O389 In377 2.326 . S
O389 C381 1.252 . S
In390 O391 2.294 . S
In390 O392 2.326 . S
In390 O396 2.266 . S
In390 O397 2.326 . S
In390 O398 2.266 . S
In390 O399 2.326 . S
In390 O401 2.294 . S
In390 O402 2.326 . S
O391 In390 2.294 . S
O391 C400 1.240 . S
O392 In390 2.326 . S
O392 C400 1.252 . S
C393 O396 1.252 . S
C393 O397 1.260 . S
C394 O401 1.240 . S
C394 O402 1.252 . S
C395 O398 1.252 . S
C395 O399 1.260 . S
O396 In390 2.266 . S
O396 C393 1.252 . S
O397 In390 2.326 . S
O397 C393 1.260 . S
O398 In390 2.266 . S
O398 C395 1.252 . S
O399 In390 2.326 . S
O399 C395 1.260 . S
C400 O391 1.240 . S
C400 O392 1.252 . S
O401 In390 2.294 . S
O401 C394 1.240 . S
O402 In390 2.326 . S
O402 C394 1.252 . S
In403 O404 2.294 . S
In403 O405 2.326 . S
In403 O409 2.266 . S
In403 O410 2.326 . S
In403 O411 2.266 . S
In403 O412 2.326 . S
In403 O414 2.294 . S
In403 O415 2.326 . S
O404 In403 2.294 . S
O404 C413 1.240 . S
O405 In403 2.326 . S
O405 C413 1.252 . S
C406 O409 1.252 . S
C406 O410 1.260 . S
C407 O414 1.240 . S
C407 O415 1.252 . S
C408 O411 1.252 . S
C408 O412 1.260 . S
O409 In403 2.266 . S
O409 C406 1.252 . S
O410 In403 2.326 . S
O410 C406 1.260 . S
O411 In403 2.266 . S
O411 C408 1.252 . S
O412 In403 2.326 . S
O412 C408 1.260 . S
C413 O404 1.240 . S
C413 O405 1.252 . S
O414 In403 2.294 . S
O414 C407 1.240 . S
O415 In403 2.326 . S
O415 C407 1.252 . S
In416 O417 2.294 . S
In416 O418 2.326 . S
In416 O422 2.266 . S
In416 O423 2.326 . S
In416 O424 2.266 . S
In416 O425 2.326 . S
In416 O427 2.294 . S
In416 O428 2.326 . S
O417 In416 2.294 . S
O417 C426 1.240 . S
O418 In416 2.326 . S
O418 C426 1.252 . S
C419 O422 1.252 . S
C419 O423 1.260 . S
C420 O427 1.240 . S
C420 O428 1.252 . S
C421 O424 1.252 . S
C421 O425 1.260 . S
O422 In416 2.266 . S
O422 C419 1.252 . S
O423 In416 2.326 . S
O423 C419 1.260 . S
O424 In416 2.266 . S
O424 C421 1.252 . S
O425 In416 2.326 . S
O425 C421 1.260 . S
C426 O417 1.240 . S
C426 O418 1.252 . S
O427 In416 2.294 . S
O427 C420 1.240 . S
O428 In416 2.326 . S
O428 C420 1.252 . S
In429 O430 2.294 . S
In429 O431 2.326 . S
In429 O435 2.266 . S
In429 O436 2.326 . S
In429 O437 2.266 . S
In429 O438 2.326 . S
In429 O440 2.294 . S
In429 O441 2.326 . S
O430 In429 2.294 . S
O430 C439 1.240 . S
O431 In429 2.326 . S
O431 C439 1.252 . S
C432 O435 1.252 . S
C432 O436 1.260 . S
C433 O440 1.240 . S
C433 O441 1.252 . S
C434 O437 1.252 . S
C434 O438 1.260 . S
O435 In429 2.266 . S
O435 C432 1.252 . S
O436 In429 2.326 . S
O436 C432 1.260 . S
O437 In429 2.266 . S
O437 C434 1.252 . S
O438 In429 2.326 . S
O438 C434 1.260 . S
C439 O430 1.240 . S
C439 O431 1.252 . S
O440 In429 2.294 . S
O440 C433 1.240 . S
O441 In429 2.326 . S
O441 C433 1.252 . S
In442 O443 2.294 . S
In442 O444 2.326 . S
In442 O448 2.266 . S
In442 O449 2.326 . S
In442 O450 2.266 . S
In442 O451 2.326 . S
In442 O453 2.294 . S
In442 O454 2.326 . S
O443 In442 2.294 . S
O443 C452 1.240 . S
O444 In442 2.326 . S
O444 C452 1.252 . S
C445 O448 1.252 . S
C445 O449 1.260 . S
C446 O453 1.240 . S
C446 O454 1.252 . S
C447 O450 1.252 . S
C447 O451 1.260 . S
O448 In442 2.266 . S
O448 C445 1.252 . S
O449 In442 2.326 . S
O449 C445 1.260 . S
O450 In442 2.266 . S
O450 C447 1.252 . S
O451 In442 2.326 . S
O451 C447 1.260 . S
C452 O443 1.240 . S
C452 O444 1.252 . S
O453 In442 2.294 . S
O453 C446 1.240 . S
O454 In442 2.326 . S
O454 C446 1.252 . S
In455 O456 2.294 . S
In455 O457 2.326 . S
In455 O461 2.266 . S
In455 O462 2.326 . S
In455 O463 2.266 . S
In455 O464 2.326 . S
In455 O466 2.294 . S
In455 O467 2.326 . S
O456 In455 2.294 . S
O456 C465 1.240 . S
O457 In455 2.326 . S
O457 C465 1.252 . S
C458 O461 1.252 . S
C458 O462 1.260 . S
C459 O466 1.240 . S
C459 O467 1.252 . S
C460 O463 1.252 . S
C460 O464 1.260 . S
O461 In455 2.266 . S
O461 C458 1.252 . S
O462 In455 2.326 . S
O462 C458 1.260 . S
O463 In455 2.266 . S
O463 C460 1.252 . S
O464 In455 2.326 . S
O464 C460 1.260 . S
C465 O456 1.240 . S
C465 O457 1.252 . S
O466 In455 2.294 . S
O466 C459 1.240 . S
O467 In455 2.326 . S
O467 C459 1.252 . S
In468 O469 2.294 . S
In468 O470 2.326 . S
In468 O474 2.266 . S
In468 O475 2.326 . S
In468 O476 2.266 . S
In468 O477 2.326 . S
In468 O479 2.294 . S
In468 O480 2.326 . S
O469 In468 2.294 . S
O469 C478 1.240 . S
O470 In468 2.326 . S
O470 C478 1.252 . S
C471 O474 1.252 . S
C471 O475 1.260 . S
C472 O479 1.240 . S
C472 O480 1.252 . S
C473 O476 1.252 . S
C473 O477 1.260 . S
O474 In468 2.266 . S
O474 C471 1.252 . S
O475 In468 2.326 . S
O475 C471 1.260 . S
O476 In468 2.266 . S
O476 C473 1.252 . S
O477 In468 2.326 . S
O477 C473 1.260 . S
C478 O469 1.240 . S
C478 O470 1.252 . S
O479 In468 2.294 . S
O479 C472 1.240 . S
O480 In468 2.326 . S
O480 C472 1.252 . S
In481 O482 2.294 . S
In481 O483 2.326 . S
In481 O487 2.266 . S
In481 O488 2.326 . S
In481 O489 2.266 . S
In481 O490 2.326 . S
In481 O492 2.294 . S
In481 O493 2.326 . S
O482 In481 2.294 . S
O482 C491 1.240 . S
O483 In481 2.326 . S
O483 C491 1.252 . S
C484 O487 1.252 . S
C484 O488 1.260 . S
C485 O492 1.240 . S
C485 O493 1.252 . S
C486 O489 1.252 . S
C486 O490 1.260 . S
O487 In481 2.266 . S
O487 C484 1.252 . S
O488 In481 2.326 . S
O488 C484 1.260 . S
O489 In481 2.266 . S
O489 C486 1.252 . S
O490 In481 2.326 . S
O490 C486 1.260 . S
C491 O482 1.240 . S
C491 O483 1.252 . S
O492 In481 2.294 . S
O492 C485 1.240 . S
O493 In481 2.326 . S
O493 C485 1.252 . S
In494 O495 2.294 . S
In494 O496 2.326 . S
In494 O500 2.266 . S
In494 O501 2.326 . S
In494 O502 2.266 . S
In494 O503 2.326 . S
In494 O505 2.294 . S
In494 O506 2.326 . S
O495 In494 2.294 . S
O495 C504 1.240 . S
O496 In494 2.326 . S
O496 C504 1.252 . S
C497 O500 1.252 . S
C497 O501 1.260 . S
C498 O505 1.240 . S
C498 O506 1.252 . S
C499 O502 1.252 . S
C499 O503 1.260 . S
O500 In494 2.266 . S
O500 C497 1.252 . S
O501 In494 2.326 . S
O501 C497 1.260 . S
O502 In494 2.266 . S
O502 C499 1.252 . S
O503 In494 2.326 . S
O503 C499 1.260 . S
C504 O495 1.240 . S
C504 O496 1.252 . S
O505 In494 2.294 . S
O505 C498 1.240 . S
O506 In494 2.326 . S
O506 C498 1.252 . S
In507 O508 2.294 . S
In507 O509 2.326 . S
In507 O513 2.266 . S
In507 O514 2.326 . S
In507 O515 2.266 . S
In507 O516 2.326 . S
In507 O518 2.294 . S
In507 O519 2.326 . S
O508 In507 2.294 . S
O508 C517 1.240 . S
O509 In507 2.326 . S
O509 C517 1.252 . S
C510 O513 1.252 . S
C510 O514 1.260 . S
C511 O518 1.240 . S
C511 O519 1.252 . S
C512 O515 1.252 . S
C512 O516 1.260 . S
O513 In507 2.266 . S
O513 C510 1.252 . S
O514 In507 2.326 . S
O514 C510 1.260 . S
O515 In507 2.266 . S
O515 C512 1.252 . S
O516 In507 2.326 . S
O516 C512 1.260 . S
C517 O508 1.240 . S
C517 O509 1.252 . S
O518 In507 2.294 . S
O518 C511 1.240 . S
O519 In507 2.326 . S
O519 C511 1.252 . S
In520 O521 2.294 . S
In520 O522 2.326 . S
In520 O526 2.266 . S
In520 O527 2.326 . S
In520 O528 2.266 . S
In520 O529 2.326 . S
In520 O531 2.294 . S
In520 O532 2.326 . S
O521 In520 2.294 . S
O521 C530 1.240 . S
O522 In520 2.326 . S
O522 C530 1.252 . S
C523 O526 1.252 . S
C523 O527 1.260 . S
C524 O531 1.240 . S
C524 O532 1.252 . S
C525 O528 1.252 . S
C525 O529 1.260 . S
O526 In520 2.266 . S
O526 C523 1.252 . S
O527 In520 2.326 . S
O527 C523 1.260 . S
O528 In520 2.266 . S
O528 C525 1.252 . S
O529 In520 2.326 . S
O529 C525 1.260 . S
C530 O521 1.240 . S
C530 O522 1.252 . S
O531 In520 2.294 . S
O531 C524 1.240 . S
O532 In520 2.326 . S
O532 C524 1.252 . S
In533 O534 2.294 . S
In533 O535 2.326 . S
In533 O539 2.266 . S
In533 O540 2.326 . S
In533 O541 2.266 . S
In533 O542 2.326 . S
In533 O544 2.294 . S
In533 O545 2.326 . S
O534 In533 2.294 . S
O534 C543 1.240 . S
O535 In533 2.326 . S
O535 C543 1.252 . S
C536 O539 1.252 . S
C536 O540 1.260 . S
C537 O544 1.240 . S
C537 O545 1.252 . S
C538 O541 1.252 . S
C538 O542 1.260 . S
O539 In533 2.266 . S
O539 C536 1.252 . S
O540 In533 2.326 . S
O540 C536 1.260 . S
O541 In533 2.266 . S
O541 C538 1.252 . S
O542 In533 2.326 . S
O542 C538 1.260 . S
C543 O534 1.240 . S
C543 O535 1.252 . S
O544 In533 2.294 . S
O544 C537 1.240 . S
O545 In533 2.326 . S
O545 C537 1.252 . S
In546 O547 2.294 . S
In546 O548 2.326 . S
In546 O552 2.266 . S
In546 O553 2.326 . S
In546 O554 2.266 . S
In546 O555 2.326 . S
In546 O557 2.294 . S
In546 O558 2.326 . S
O547 In546 2.294 . S
O547 C556 1.240 . S
O548 In546 2.326 . S
O548 C556 1.252 . S
C549 O552 1.252 . S
C549 O553 1.260 . S
C550 O557 1.240 . S
C550 O558 1.252 . S
C551 O554 1.252 . S
C551 O555 1.260 . S
O552 In546 2.266 . S
O552 C549 1.252 . S
O553 In546 2.326 . S
O553 C549 1.260 . S
O554 In546 2.266 . S
O554 C551 1.252 . S
O555 In546 2.326 . S
O555 C551 1.260 . S
C556 O547 1.240 . S
C556 O548 1.252 . S
O557 In546 2.294 . S
O557 C550 1.240 . S
O558 In546 2.326 . S
O558 C550 1.252 . S
In559 O560 2.294 . S
In559 O561 2.326 . S
In559 O565 2.266 . S
In559 O566 2.326 . S
In559 O567 2.266 . S
In559 O568 2.326 . S
In559 O570 2.294 . S
In559 O571 2.326 . S
O560 In559 2.294 . S
O560 C569 1.240 . S
O561 In559 2.326 . S
O561 C569 1.252 . S
C562 O565 1.252 . S
C562 O566 1.260 . S
C563 O570 1.240 . S
C563 O571 1.252 . S
C564 O567 1.252 . S
C564 O568 1.260 . S
O565 In559 2.266 . S
O565 C562 1.252 . S
O566 In559 2.326 . S
O566 C562 1.260 . S
O567 In559 2.266 . S
O567 C564 1.252 . S
O568 In559 2.326 . S
O568 C564 1.260 . S
C569 O560 1.240 . S
C569 O561 1.252 . S
O570 In559 2.294 . S
O570 C563 1.240 . S
O571 In559 2.326 . S
O571 C563 1.252 . S
In572 O573 2.294 . S
In572 O574 2.326 . S
In572 O578 2.266 . S
In572 O579 2.326 . S
In572 O580 2.266 . S
In572 O581 2.326 . S
In572 O583 2.294 . S
In572 O584 2.326 . S
O573 In572 2.294 . S
O573 C582 1.240 . S
O574 In572 2.326 . S
O574 C582 1.252 . S
C575 O578 1.252 . S
C575 O579 1.260 . S
C576 O583 1.240 . S
C576 O584 1.252 . S
C577 O580 1.252 . S
C577 O581 1.260 . S
O578 In572 2.266 . S
O578 C575 1.252 . S
O579 In572 2.326 . S
O579 C575 1.260 . S
O580 In572 2.266 . S
O580 C577 1.252 . S
O581 In572 2.326 . S
O581 C577 1.260 . S
C582 O573 1.240 . S
C582 O574 1.252 . S
O583 In572 2.294 . S
O583 C576 1.240 . S
O584 In572 2.326 . S
O584 C576 1.252 . S
In585 O586 2.294 . S
In585 O587 2.326 . S
In585 O591 2.266 . S
In585 O592 2.326 . S
In585 O593 2.266 . S
In585 O594 2.326 . S
In585 O596 2.294 . S
In585 O597 2.326 . S
O586 In585 2.294 . S
O586 C595 1.240 . S
O587 In585 2.326 . S
O587 C595 1.252 . S
C588 O591 1.252 . S
C588 O592 1.260 . S
C589 O596 1.240 . S
C589 O597 1.252 . S
C590 O593 1.252 . S
C590 O594 1.260 . S
O591 In585 2.266 . S
O591 C588 1.252 . S
O592 In585 2.326 . S
O592 C588 1.260 . S
O593 In585 2.266 . S
O593 C590 1.252 . S
O594 In585 2.326 . S
O594 C590 1.260 . S
C595 O586 1.240 . S
C595 O587 1.252 . S
O596 In585 2.294 . S
O596 C589 1.240 . S
O597 In585 2.326 . S
O597 C589 1.252 . S
In598 O599 2.294 . S
In598 O600 2.326 . S
In598 O604 2.266 . S
In598 O605 2.326 . S
In598 O606 2.266 . S
In598 O607 2.326 . S
In598 O609 2.294 . S
In598 O610 2.326 . S
O599 In598 2.294 . S
O599 C608 1.240 . S
O600 In598 2.326 . S
O600 C608 1.252 . S
C601 O604 1.252 . S
C601 O605 1.260 . S
C602 O609 1.240 . S
C602 O610 1.252 . S
C603 O606 1.252 . S
C603 O607 1.260 . S
O604 In598 2.266 . S
O604 C601 1.252 . S
O605 In598 2.326 . S
O605 C601 1.260 . S
O606 In598 2.266 . S
O606 C603 1.252 . S
O607 In598 2.326 . S
O607 C603 1.260 . S
C608 O599 1.240 . S
C608 O600 1.252 . S
O609 In598 2.294 . S
O609 C602 1.240 . S
O610 In598 2.326 . S
O610 C602 1.252 . S
In611 O612 2.294 . S
In611 O613 2.326 . S
In611 O617 2.266 . S
In611 O618 2.326 . S
In611 O619 2.266 . S
In611 O620 2.326 . S
In611 O622 2.294 . S
In611 O623 2.326 . S
O612 In611 2.294 . S
O612 C621 1.240 . S
O613 In611 2.326 . S
O613 C621 1.252 . S
C614 O617 1.252 . S
C614 O618 1.260 . S
C615 O622 1.240 . S
C615 O623 1.252 . S
C616 O619 1.252 . S
C616 O620 1.260 . S
O617 In611 2.266 . S
O617 C614 1.252 . S
O618 In611 2.326 . S
O618 C614 1.260 . S
O619 In611 2.266 . S
O619 C616 1.252 . S
O620 In611 2.326 . S
O620 C616 1.260 . S
C621 O612 1.240 . S
C621 O613 1.252 . S
O622 In611 2.294 . S
O622 C615 1.240 . S
O623 In611 2.326 . S
O623 C615 1.252 . S
In624 O625 2.294 . S
In624 O626 2.326 . S
In624 O630 2.266 . S
In624 O631 2.326 . S
In624 O632 2.266 . S
In624 O633 2.326 . S
In624 O635 2.294 . S
In624 O636 2.326 . S
O625 In624 2.294 . S
O625 C634 1.240 . S
O626 In624 2.326 . S
O626 C634 1.252 . S
C627 O630 1.252 . S
C627 O631 1.260 . S
C628 O635 1.240 . S
C628 O636 1.252 . S
C629 O632 1.252 . S
C629 O633 1.260 . S
O630 In624 2.266 . S
O630 C627 1.252 . S
O631 In624 2.326 . S
O631 C627 1.260 . S
O632 In624 2.266 . S
O632 C629 1.252 . S
O633 In624 2.326 . S
O633 C629 1.260 . S
C634 O625 1.240 . S
C634 O626 1.252 . S
O635 In624 2.294 . S
O635 C628 1.240 . S
O636 In624 2.326 . S
O636 C628 1.252 . S
In637 O638 2.294 . S
In637 O639 2.326 . S
In637 O643 2.266 . S
In637 O644 2.326 . S
In637 O645 2.266 . S
In637 O646 2.326 . S
In637 O648 2.294 . S
In637 O649 2.326 . S
O638 In637 2.294 . S
O638 C647 1.240 . S
O639 In637 2.326 . S
O639 C647 1.252 . S
C640 O643 1.252 . S
C640 O644 1.260 . S
C641 O648 1.240 . S
C641 O649 1.252 . S
C642 O645 1.252 . S
C642 O646 1.260 . S
O643 In637 2.266 . S
O643 C640 1.252 . S
O644 In637 2.326 . S
O644 C640 1.260 . S
O645 In637 2.266 . S
O645 C642 1.252 . S
O646 In637 2.326 . S
O646 C642 1.260 . S
C647 O638 1.240 . S
C647 O639 1.252 . S
O648 In637 2.294 . S
O648 C641 1.240 . S
O649 In637 2.326 . S
O649 C641 1.252 . S
In650 O651 2.294 . S
In650 O652 2.326 . S
In650 O656 2.266 . S
In650 O657 2.326 . S
In650 O658 2.266 . S
In650 O659 2.326 . S
In650 O661 2.294 . S
In650 O662 2.326 . S
O651 In650 2.294 . S
O651 C660 1.240 . S
O652 In650 2.326 . S
O652 C660 1.252 . S
C653 O656 1.252 . S
C653 O657 1.260 . S
C654 O661 1.240 . S
C654 O662 1.252 . S
C655 O658 1.252 . S
C655 O659 1.260 . S
O656 In650 2.266 . S
O656 C653 1.252 . S
O657 In650 2.326 . S
O657 C653 1.260 . S
O658 In650 2.266 . S
O658 C655 1.252 . S
O659 In650 2.326 . S
O659 C655 1.260 . S
C660 O651 1.240 . S
C660 O652 1.252 . S
O661 In650 2.294 . S
O661 C654 1.240 . S
O662 In650 2.326 . S
O662 C654 1.252 . S
In663 O664 2.294 . S
In663 O665 2.326 . S
In663 O669 2.266 . S
In663 O670 2.326 . S
In663 O671 2.266 . S
In663 O672 2.326 . S
In663 O674 2.294 . S
In663 O675 2.326 . S
O664 In663 2.294 . S
O664 C673 1.240 . S
O665 In663 2.326 . S
O665 C673 1.252 . S
C666 O669 1.252 . S
C666 O670 1.260 . S
C667 O674 1.240 . S
C667 O675 1.252 . S
C668 O671 1.252 . S
C668 O672 1.260 . S
O669 In663 2.266 . S
O669 C666 1.252 . S
O670 In663 2.326 . S
O670 C666 1.260 . S
O671 In663 2.266 . S
O671 C668 1.252 . S
O672 In663 2.326 . S
O672 C668 1.260 . S
C673 O664 1.240 . S
C673 O665 1.252 . S
O674 In663 2.294 . S
O674 C667 1.240 . S
O675 In663 2.326 . S
O675 C667 1.252 . S
In676 O677 2.294 . S
In676 O678 2.326 . S
In676 O682 2.266 . S
In676 O683 2.326 . S
In676 O684 2.266 . S
In676 O685 2.326 . S
In676 O687 2.294 . S
In676 O688 2.326 . S
O677 In676 2.294 . S
O677 C686 1.240 . S
O678 In676 2.326 . S
O678 C686 1.252 . S
C679 O682 1.252 . S
C679 O683 1.260 . S
C680 O687 1.240 . S
C680 O688 1.252 . S
C681 O684 1.252 . S
C681 O685 1.260 . S
O682 In676 2.266 . S
O682 C679 1.252 . S
O683 In676 2.326 . S
O683 C679 1.260 . S
O684 In676 2.266 . S
O684 C681 1.252 . S
O685 In676 2.326 . S
O685 C681 1.260 . S
C686 O677 1.240 . S
C686 O678 1.252 . S
O687 In676 2.294 . S
O687 C680 1.240 . S
O688 In676 2.326 . S
O688 C680 1.252 . S
In689 O690 2.294 . S
In689 O691 2.326 . S
In689 O695 2.266 . S
In689 O696 2.326 . S
In689 O697 2.266 . S
In689 O698 2.326 . S
In689 O700 2.294 . S
In689 O701 2.326 . S
O690 In689 2.294 . S
O690 C699 1.240 . S
O691 In689 2.326 . S
O691 C699 1.252 . S
C692 O695 1.252 . S
C692 O696 1.260 . S
C693 O700 1.240 . S
C693 O701 1.252 . S
C694 O697 1.252 . S
C694 O698 1.260 . S
O695 In689 2.266 . S
O695 C692 1.252 . S
O696 In689 2.326 . S
O696 C692 1.260 . S
O697 In689 2.266 . S
O697 C694 1.252 . S
O698 In689 2.326 . S
O698 C694 1.260 . S
C699 O690 1.240 . S
C699 O691 1.252 . S
O700 In689 2.294 . S
O700 C693 1.240 . S
O701 In689 2.326 . S
O701 C693 1.252 . S
In702 O703 2.294 . S
In702 O704 2.326 . S
In702 O708 2.266 . S
In702 O709 2.326 . S
In702 O710 2.266 . S
In702 O711 2.326 . S
In702 O713 2.294 . S
In702 O714 2.326 . S
O703 In702 2.294 . S
O703 C712 1.240 . S
O704 In702 2.326 . S
O704 C712 1.252 . S
C705 O708 1.252 . S
C705 O709 1.260 . S
C706 O713 1.240 . S
C706 O714 1.252 . S
C707 O710 1.252 . S
C707 O711 1.260 . S
O708 In702 2.266 . S
O708 C705 1.252 . S
O709 In702 2.326 . S
O709 C705 1.260 . S
O710 In702 2.266 . S
O710 C707 1.252 . S
O711 In702 2.326 . S
O711 C707 1.260 . S
C712 O703 1.240 . S
C712 O704 1.252 . S
O713 In702 2.294 . S
O713 C706 1.240 . S
O714 In702 2.326 . S
O714 C706 1.252 . S
In715 O716 2.294 . S
In715 O717 2.326 . S
In715 O721 2.266 . S
In715 O722 2.326 . S
In715 O723 2.266 . S
In715 O724 2.326 . S
In715 O726 2.294 . S
In715 O727 2.326 . S
O716 In715 2.294 . S
O716 C725 1.240 . S
O717 In715 2.326 . S
O717 C725 1.252 . S
C718 O721 1.252 . S
C718 O722 1.260 . S
C719 O726 1.240 . S
C719 O727 1.252 . S
C720 O723 1.252 . S
C720 O724 1.260 . S
O721 In715 2.266 . S
O721 C718 1.252 . S
O722 In715 2.326 . S
O722 C718 1.260 . S
O723 In715 2.266 . S
O723 C720 1.252 . S
O724 In715 2.326 . S
O724 C720 1.260 . S
C725 O716 1.240 . S
C725 O717 1.252 . S
O726 In715 2.294 . S
O726 C719 1.240 . S
O727 In715 2.326 . S
O727 C719 1.252 . S
In728 O729 2.294 . S
In728 O730 2.326 . S
In728 O734 2.266 . S
In728 O735 2.326 . S
In728 O736 2.266 . S
In728 O737 2.326 . S
In728 O739 2.294 . S
In728 O740 2.326 . S
O729 In728 2.294 . S
O729 C738 1.240 . S
O730 In728 2.326 . S
O730 C738 1.252 . S
C731 O734 1.252 . S
C731 O735 1.260 . S
C732 O739 1.240 . S
C732 O740 1.252 . S
C733 O736 1.252 . S
C733 O737 1.260 . S
O734 In728 2.266 . S
O734 C731 1.252 . S
O735 In728 2.326 . S
O735 C731 1.260 . S
O736 In728 2.266 . S
O736 C733 1.252 . S
O737 In728 2.326 . S
O737 C733 1.260 . S
C738 O729 1.240 . S
C738 O730 1.252 . S
O739 In728 2.294 . S
O739 C732 1.240 . S
O740 In728 2.326 . S
O740 C732 1.252 . S
In741 O742 2.294 . S
In741 O743 2.326 . S
In741 O747 2.266 . S
In741 O748 2.326 . S
In741 O749 2.266 . S
In741 O750 2.326 . S
In741 O752 2.294 . S
In741 O753 2.326 . S
O742 In741 2.294 . S
O742 C751 1.240 . S
O743 In741 2.326 . S
O743 C751 1.252 . S
C744 O747 1.252 . S
C744 O748 1.260 . S
C745 O752 1.240 . S
C745 O753 1.252 . S
C746 O749 1.252 . S
C746 O750 1.260 . S
O747 In741 2.266 . S
O747 C744 1.252 . S
O748 In741 2.326 . S
O748 C744 1.260 . S
O749 In741 2.266 . S
O749 C746 1.252 . S
O750 In741 2.326 . S
O750 C746 1.260 . S
C751 O742 1.240 . S
C751 O743 1.252 . S
O752 In741 2.294 . S
O752 C745 1.240 . S
O753 In741 2.326 . S
O753 C745 1.252 . S
In754 O755 2.294 . S
In754 O756 2.326 . S
In754 O760 2.266 . S
In754 O761 2.326 . S
In754 O762 2.266 . S
In754 O763 2.326 . S
In754 O765 2.294 . S
In754 O766 2.326 . S
O755 In754 2.294 . S
O755 C764 1.240 . S
O756 In754 2.326 . S
O756 C764 1.252 . S
C757 O760 1.252 . S
C757 O761 1.260 . S
C758 O765 1.240 . S
C758 O766 1.252 . S
C759 O762 1.252 . S
C759 O763 1.260 . S
O760 In754 2.266 . S
O760 C757 1.252 . S
O761 In754 2.326 . S
O761 C757 1.260 . S
O762 In754 2.266 . S
O762 C759 1.252 . S
O763 In754 2.326 . S
O763 C759 1.260 . S
C764 O755 1.240 . S
C764 O756 1.252 . S
O765 In754 2.294 . S
O765 C758 1.240 . S
O766 In754 2.326 . S
O766 C758 1.252 . S
In767 O768 2.294 . S
In767 O769 2.326 . S
In767 O773 2.266 . S
In767 O774 2.326 . S
In767 O775 2.266 . S
In767 O776 2.326 . S
In767 O778 2.294 . S
In767 O779 2.326 . S
O768 In767 2.294 . S
O768 C777 1.240 . S
O769 In767 2.326 . S
O769 C777 1.252 . S
C770 O773 1.252 . S
C770 O774 1.260 . S
C771 O778 1.240 . S
C771 O779 1.252 . S
C772 O775 1.252 . S
C772 O776 1.260 . S
O773 In767 2.266 . S
O773 C770 1.252 . S
O774 In767 2.326 . S
O774 C770 1.260 . S
O775 In767 2.266 . S
O775 C772 1.252 . S
O776 In767 2.326 . S
O776 C772 1.260 . S
C777 O768 1.240 . S
C777 O769 1.252 . S
O778 In767 2.294 . S
O778 C771 1.240 . S
O779 In767 2.326 . S
O779 C771 1.252 . S
In780 O781 2.294 . S
In780 O782 2.326 . S
In780 O786 2.266 . S
In780 O787 2.326 . S
In780 O788 2.266 . S
In780 O789 2.326 . S
In780 O791 2.294 . S
In780 O792 2.326 . S
O781 In780 2.294 . S
O781 C790 1.240 . S
O782 In780 2.326 . S
O782 C790 1.252 . S
C783 O786 1.252 . S
C783 O787 1.260 . S
C784 O791 1.240 . S
C784 O792 1.252 . S
C785 O788 1.252 . S
C785 O789 1.260 . S
O786 In780 2.266 . S
O786 C783 1.252 . S
O787 In780 2.326 . S
O787 C783 1.260 . S
O788 In780 2.266 . S
O788 C785 1.252 . S
O789 In780 2.326 . S
O789 C785 1.260 . S
C790 O781 1.240 . S
C790 O782 1.252 . S
O791 In780 2.294 . S
O791 C784 1.240 . S
O792 In780 2.326 . S
O792 C784 1.252 . S
In793 O794 2.294 . S
In793 O795 2.326 . S
In793 O799 2.266 . S
In793 O800 2.326 . S
In793 O801 2.266 . S
In793 O802 2.326 . S
In793 O804 2.294 . S
In793 O805 2.326 . S
O794 In793 2.294 . S
O794 C803 1.240 . S
O795 In793 2.326 . S
O795 C803 1.252 . S
C796 O799 1.252 . S
C796 O800 1.260 . S
C797 O804 1.240 . S
C797 O805 1.252 . S
C798 O801 1.252 . S
C798 O802 1.260 . S
O799 In793 2.266 . S
O799 C796 1.252 . S
O800 In793 2.326 . S
O800 C796 1.260 . S
O801 In793 2.266 . S
O801 C798 1.252 . S
O802 In793 2.326 . S
O802 C798 1.260 . S
C803 O794 1.240 . S
C803 O795 1.252 . S
O804 In793 2.294 . S
O804 C797 1.240 . S
O805 In793 2.326 . S
O805 C797 1.252 . S
In806 O807 2.294 . S
In806 O808 2.326 . S
In806 O812 2.266 . S
In806 O813 2.326 . S
In806 O814 2.266 . S
In806 O815 2.326 . S
In806 O817 2.294 . S
In806 O818 2.326 . S
O807 In806 2.294 . S
O807 C816 1.240 . S
O808 In806 2.326 . S
O808 C816 1.252 . S
C809 O812 1.252 . S
C809 O813 1.260 . S
C810 O817 1.240 . S
C810 O818 1.252 . S
C811 O814 1.252 . S
C811 O815 1.260 . S
O812 In806 2.266 . S
O812 C809 1.252 . S
O813 In806 2.326 . S
O813 C809 1.260 . S
O814 In806 2.266 . S
O814 C811 1.252 . S
O815 In806 2.326 . S
O815 C811 1.260 . S
C816 O807 1.240 . S
C816 O808 1.252 . S
O817 In806 2.294 . S
O817 C810 1.240 . S
O818 In806 2.326 . S
O818 C810 1.252 . S
In819 O820 2.294 . S
In819 O821 2.326 . S
In819 O825 2.266 . S
In819 O826 2.326 . S
In819 O827 2.266 . S
In819 O828 2.326 . S
In819 O830 2.294 . S
In819 O831 2.326 . S
O820 In819 2.294 . S
O820 C829 1.240 . S
O821 In819 2.326 . S
O821 C829 1.252 . S
C822 O825 1.252 . S
C822 O826 1.260 . S
C823 O830 1.240 . S
C823 O831 1.252 . S
C824 O827 1.252 . S
C824 O828 1.260 . S
O825 In819 2.266 . S
O825 C822 1.252 . S
O826 In819 2.326 . S
O826 C822 1.260 . S
O827 In819 2.266 . S
O827 C824 1.252 . S
O828 In819 2.326 . S
O828 C824 1.260 . S
C829 O820 1.240 . S
C829 O821 1.252 . S
O830 In819 2.294 . S
O830 C823 1.240 . S
O831 In819 2.326 . S
O831 C823 1.252 . S
In832 O833 2.294 . S
In832 O834 2.326 . S
In832 O838 2.266 . S
In832 O839 2.326 . S
In832 O840 2.266 . S
In832 O841 2.326 . S
In832 O843 2.294 . S
In832 O844 2.326 . S
O833 In832 2.294 . S
O833 C842 1.240 . S
O834 In832 2.326 . S
O834 C842 1.252 . S
C835 O838 1.252 . S
C835 O839 1.260 . S
C836 O843 1.240 . S
C836 O844 1.252 . S
C837 O840 1.252 . S
C837 O841 1.260 . S
O838 In832 2.266 . S
O838 C835 1.252 . S
O839 In832 2.326 . S
O839 C835 1.260 . S
O840 In832 2.266 . S
O840 C837 1.252 . S
O841 In832 2.326 . S
O841 C837 1.260 . S
C842 O833 1.240 . S
C842 O834 1.252 . S
O843 In832 2.294 . S
O843 C836 1.240 . S
O844 In832 2.326 . S
O844 C836 1.252 . S
In845 O846 2.294 . S
In845 O847 2.326 . S
In845 O851 2.266 . S
In845 O852 2.326 . S
In845 O853 2.266 . S
In845 O854 2.326 . S
In845 O856 2.294 . S
In845 O857 2.326 . S
O846 In845 2.294 . S
O846 C855 1.240 . S
O847 In845 2.326 . S
O847 C855 1.252 . S
C848 O851 1.252 . S
C848 O852 1.260 . S
C849 O856 1.240 . S
C849 O857 1.252 . S
C850 O853 1.252 . S
C850 O854 1.260 . S
O851 In845 2.266 . S
O851 C848 1.252 . S
O852 In845 2.326 . S
O852 C848 1.260 . S
O853 In845 2.266 . S
O853 C850 1.252 . S
O854 In845 2.326 . S
O854 C850 1.260 . S
C855 O846 1.240 . S
C855 O847 1.252 . S
O856 In845 2.294 . S
O856 C849 1.240 . S
O857 In845 2.326 . S
O857 C849 1.252 . S
In858 O859 2.294 . S
In858 O860 2.326 . S
In858 O864 2.266 . S
In858 O865 2.326 . S
In858 O866 2.266 . S
In858 O867 2.326 . S
In858 O869 2.294 . S
In858 O870 2.326 . S
O859 In858 2.294 . S
O859 C868 1.240 . S
O860 In858 2.326 . S
O860 C868 1.252 . S
C861 O864 1.252 . S
C861 O865 1.260 . S
C862 O869 1.240 . S
C862 O870 1.252 . S
C863 O866 1.252 . S
C863 O867 1.260 . S
O864 In858 2.266 . S
O864 C861 1.252 . S
O865 In858 2.326 . S
O865 C861 1.260 . S
O866 In858 2.266 . S
O866 C863 1.252 . S
O867 In858 2.326 . S
O867 C863 1.260 . S
C868 O859 1.240 . S
C868 O860 1.252 . S
O869 In858 2.294 . S
O869 C862 1.240 . S
O870 In858 2.326 . S
O870 C862 1.252 . S
In871 O872 2.294 . S
In871 O873 2.326 . S
In871 O877 2.266 . S
In871 O878 2.326 . S
In871 O879 2.266 . S
In871 O880 2.326 . S
In871 O882 2.294 . S
In871 O883 2.326 . S
O872 In871 2.294 . S
O872 C881 1.240 . S
O873 In871 2.326 . S
O873 C881 1.252 . S
C874 O877 1.252 . S
C874 O878 1.260 . S
C875 O882 1.240 . S
C875 O883 1.252 . S
C876 O879 1.252 . S
C876 O880 1.260 . S
O877 In871 2.266 . S
O877 C874 1.252 . S
O878 In871 2.326 . S
O878 C874 1.260 . S
O879 In871 2.266 . S
O879 C876 1.252 . S
O880 In871 2.326 . S
O880 C876 1.260 . S
C881 O872 1.240 . S
C881 O873 1.252 . S
O882 In871 2.294 . S
O882 C875 1.240 . S
O883 In871 2.326 . S
O883 C875 1.252 . S
In884 O885 2.294 . S
In884 O886 2.326 . S
In884 O890 2.266 . S
In884 O891 2.326 . S
In884 O892 2.266 . S
In884 O893 2.326 . S
In884 O895 2.294 . S
In884 O896 2.326 . S
O885 In884 2.294 . S
O885 C894 1.240 . S
O886 In884 2.326 . S
O886 C894 1.252 . S
C887 O890 1.252 . S
C887 O891 1.260 . S
C888 O895 1.240 . S
C888 O896 1.252 . S
C889 O892 1.252 . S
C889 O893 1.260 . S
O890 In884 2.266 . S
O890 C887 1.252 . S
O891 In884 2.326 . S
O891 C887 1.260 . S
O892 In884 2.266 . S
O892 C889 1.252 . S
O893 In884 2.326 . S
O893 C889 1.260 . S
C894 O885 1.240 . S
C894 O886 1.252 . S
O895 In884 2.294 . S
O895 C888 1.240 . S
O896 In884 2.326 . S
O896 C888 1.252 . S
In897 O898 2.294 . S
In897 O899 2.326 . S
In897 O903 2.266 . S
In897 O904 2.326 . S
In897 O905 2.266 . S
In897 O906 2.326 . S
In897 O908 2.294 . S
In897 O909 2.326 . S
O898 In897 2.294 . S
O898 C907 1.240 . S
O899 In897 2.326 . S
O899 C907 1.252 . S
C900 O903 1.252 . S
C900 O904 1.260 . S
C901 O908 1.240 . S
C901 O909 1.252 . S
C902 O905 1.252 . S
C902 O906 1.260 . S
O903 In897 2.266 . S
O903 C900 1.252 . S
O904 In897 2.326 . S
O904 C900 1.260 . S
O905 In897 2.266 . S
O905 C902 1.252 . S
O906 In897 2.326 . S
O906 C902 1.260 . S
C907 O898 1.240 . S
C907 O899 1.252 . S
O908 In897 2.294 . S
O908 C901 1.240 . S
O909 In897 2.326 . S
O909 C901 1.252 . S
In910 O911 2.294 . S
In910 O912 2.326 . S
In910 O916 2.266 . S
In910 O917 2.326 . S
In910 O918 2.266 . S
In910 O919 2.326 . S
In910 O921 2.294 . S
In910 O922 2.326 . S
O911 In910 2.294 . S
O911 C920 1.240 . S
O912 In910 2.326 . S
O912 C920 1.252 . S
C913 O916 1.252 . S
C913 O917 1.260 . S
C914 O921 1.240 . S
C914 O922 1.252 . S
C915 O918 1.252 . S
C915 O919 1.260 . S
O916 In910 2.266 . S
O916 C913 1.252 . S
O917 In910 2.326 . S
O917 C913 1.260 . S
O918 In910 2.266 . S
O918 C915 1.252 . S
O919 In910 2.326 . S
O919 C915 1.260 . S
C920 O911 1.240 . S
C920 O912 1.252 . S
O921 In910 2.294 . S
O921 C914 1.240 . S
O922 In910 2.326 . S
O922 C914 1.252 . S
In923 O924 2.294 . S
In923 O925 2.326 . S
In923 O929 2.266 . S
In923 O930 2.326 . S
In923 O931 2.266 . S
In923 O932 2.326 . S
In923 O934 2.294 . S
In923 O935 2.326 . S
O924 In923 2.294 . S
O924 C933 1.240 . S
O925 In923 2.326 . S
O925 C933 1.252 . S
C926 O929 1.252 . S
C926 O930 1.260 . S
C927 O934 1.240 . S
C927 O935 1.252 . S
C928 O931 1.252 . S
C928 O932 1.260 . S
O929 In923 2.266 . S
O929 C926 1.252 . S
O930 In923 2.326 . S
O930 C926 1.260 . S
O931 In923 2.266 . S
O931 C928 1.252 . S
O932 In923 2.326 . S
O932 C928 1.260 . S
C933 O924 1.240 . S
C933 O925 1.252 . S
O934 In923 2.294 . S
O934 C927 1.240 . S
O935 In923 2.326 . S
O935 C927 1.252 . S
In936 O937 2.294 . S
In936 O938 2.326 . S
In936 O942 2.266 . S
In936 O943 2.326 . S
In936 O944 2.266 . S
In936 O945 2.326 . S
In936 O947 2.294 . S
In936 O948 2.326 . S
O937 In936 2.294 . S
O937 C946 1.240 . S
O938 In936 2.326 . S
O938 C946 1.252 . S
C939 O942 1.252 . S
C939 O943 1.260 . S
C940 O947 1.240 . S
C940 O948 1.252 . S
C941 O944 1.252 . S
C941 O945 1.260 . S
O942 In936 2.266 . S
O942 C939 1.252 . S
O943 In936 2.326 . S
O943 C939 1.260 . S
O944 In936 2.266 . S
O944 C941 1.252 . S
O945 In936 2.326 . S
O945 C941 1.260 . S
C946 O937 1.240 . S
C946 O938 1.252 . S
O947 In936 2.294 . S
O947 C940 1.240 . S
O948 In936 2.326 . S
O948 C940 1.252 . S
In949 O950 2.294 . S
In949 O951 2.326 . S
In949 O955 2.266 . S
In949 O956 2.326 . S
In949 O957 2.266 . S
In949 O958 2.326 . S
In949 O960 2.294 . S
In949 O961 2.326 . S
O950 In949 2.294 . S
O950 C959 1.240 . S
O951 In949 2.326 . S
O951 C959 1.252 . S
C952 O955 1.252 . S
C952 O956 1.260 . S
C953 O960 1.240 . S
C953 O961 1.252 . S
C954 O957 1.252 . S
C954 O958 1.260 . S
O955 In949 2.266 . S
O955 C952 1.252 . S
O956 In949 2.326 . S
O956 C952 1.260 . S
O957 In949 2.266 . S
O957 C954 1.252 . S
O958 In949 2.326 . S
O958 C954 1.260 . S
C959 O950 1.240 . S
C959 O951 1.252 . S
O960 In949 2.294 . S
O960 C953 1.240 . S
O961 In949 2.326 . S
O961 C953 1.252 . S
In962 O963 2.294 . S
In962 O964 2.326 . S
In962 O968 2.266 . S
In962 O969 2.326 . S
In962 O970 2.266 . S
In962 O971 2.326 . S
In962 O973 2.294 . S
In962 O974 2.326 . S
O963 In962 2.294 . S
O963 C972 1.240 . S
O964 In962 2.326 . S
O964 C972 1.252 . S
C965 O968 1.252 . S
C965 O969 1.260 . S
C966 O973 1.240 . S
C966 O974 1.252 . S
C967 O970 1.252 . S
C967 O971 1.260 . S
O968 In962 2.266 . S
O968 C965 1.252 . S
O969 In962 2.326 . S
O969 C965 1.260 . S
O970 In962 2.266 . S
O970 C967 1.252 . S
O971 In962 2.326 . S
O971 C967 1.260 . S
C972 O963 1.240 . S
C972 O964 1.252 . S
O973 In962 2.294 . S
O973 C966 1.240 . S
O974 In962 2.326 . S
O974 C966 1.252 . S
In975 O976 2.294 . S
In975 O977 2.326 . S
In975 O981 2.266 . S
In975 O982 2.326 . S
In975 O983 2.266 . S
In975 O984 2.326 . S
In975 O986 2.294 . S
In975 O987 2.326 . S
O976 In975 2.294 . S
O976 C985 1.240 . S
O977 In975 2.326 . S
O977 C985 1.252 . S
C978 O981 1.252 . S
C978 O982 1.260 . S
C979 O986 1.240 . S
C979 O987 1.252 . S
C980 O983 1.252 . S
C980 O984 1.260 . S
O981 In975 2.266 . S
O981 C978 1.252 . S
O982 In975 2.326 . S
O982 C978 1.260 . S
O983 In975 2.266 . S
O983 C980 1.252 . S
O984 In975 2.326 . S
O984 C980 1.260 . S
C985 O976 1.240 . S
C985 O977 1.252 . S
O986 In975 2.294 . S
O986 C979 1.240 . S
O987 In975 2.326 . S
O987 C979 1.252 . S
In988 O989 2.294 . S
In988 O990 2.326 . S
In988 O994 2.266 . S
In988 O995 2.326 . S
In988 O996 2.266 . S
In988 O997 2.326 . S
In988 O999 2.294 . S
In988 O1000 2.326 . S
O989 In988 2.294 . S
O989 C998 1.240 . S
O990 In988 2.326 . S
O990 C998 1.252 . S
C991 O994 1.252 . S
C991 O995 1.260 . S
C992 O999 1.240 . S
C992 O1000 1.252 . S
C993 O996 1.252 . S
C993 O997 1.260 . S
O994 In988 2.266 . S
O994 C991 1.252 . S
O995 In988 2.326 . S
O995 C991 1.260 . S
O996 In988 2.266 . S
O996 C993 1.252 . S
O997 In988 2.326 . S
O997 C993 1.260 . S
C998 O989 1.240 . S
C998 O990 1.252 . S
O999 In988 2.294 . S
O999 C992 1.240 . S
O1000 In988 2.326 . S
O1000 C992 1.252 . S
In1001 O1002 2.294 . S
In1001 O1003 2.326 . S
In1001 O1007 2.266 . S
In1001 O1008 2.326 . S
In1001 O1009 2.266 . S
In1001 O1010 2.326 . S
In1001 O1012 2.294 . S
In1001 O1013 2.326 . S
O1002 In1001 2.294 . S
O1002 C1011 1.240 . S
O1003 In1001 2.326 . S
O1003 C1011 1.252 . S
C1004 O1007 1.252 . S
C1004 O1008 1.260 . S
C1005 O1012 1.240 . S
C1005 O1013 1.252 . S
C1006 O1009 1.252 . S
C1006 O1010 1.260 . S
O1007 In1001 2.266 . S
O1007 C1004 1.252 . S
O1008 In1001 2.326 . S
O1008 C1004 1.260 . S
O1009 In1001 2.266 . S
O1009 C1006 1.252 . S
O1010 In1001 2.326 . S
O1010 C1006 1.260 . S
C1011 O1002 1.240 . S
C1011 O1003 1.252 . S
O1012 In1001 2.294 . S
O1012 C1005 1.240 . S
O1013 In1001 2.326 . S
O1013 C1005 1.252 . S
In1014 O1015 2.294 . S
In1014 O1016 2.326 . S
In1014 O1020 2.266 . S
In1014 O1021 2.326 . S
In1014 O1022 2.266 . S
In1014 O1023 2.326 . S
In1014 O1025 2.294 . S
In1014 O1026 2.326 . S
O1015 In1014 2.294 . S
O1015 C1024 1.240 . S
O1016 In1014 2.326 . S
O1016 C1024 1.252 . S
C1017 O1020 1.252 . S
C1017 O1021 1.260 . S
C1018 O1025 1.240 . S
C1018 O1026 1.252 . S
C1019 O1022 1.252 . S
C1019 O1023 1.260 . S
O1020 In1014 2.266 . S
O1020 C1017 1.252 . S
O1021 In1014 2.326 . S
O1021 C1017 1.260 . S
O1022 In1014 2.266 . S
O1022 C1019 1.252 . S
O1023 In1014 2.326 . S
O1023 C1019 1.260 . S
C1024 O1015 1.240 . S
C1024 O1016 1.252 . S
O1025 In1014 2.294 . S
O1025 C1018 1.240 . S
O1026 In1014 2.326 . S
O1026 C1018 1.252 . S
In1027 O1028 2.294 . S
In1027 O1029 2.326 . S
In1027 O1033 2.266 . S
In1027 O1034 2.326 . S
In1027 O1035 2.266 . S
In1027 O1036 2.326 . S
In1027 O1038 2.294 . S
In1027 O1039 2.326 . S
O1028 In1027 2.294 . S
O1028 C1037 1.240 . S
O1029 In1027 2.326 . S
O1029 C1037 1.252 . S
C1030 O1033 1.252 . S
C1030 O1034 1.260 . S
C1031 O1038 1.240 . S
C1031 O1039 1.252 . S
C1032 O1035 1.252 . S
C1032 O1036 1.260 . S
O1033 In1027 2.266 . S
O1033 C1030 1.252 . S
O1034 In1027 2.326 . S
O1034 C1030 1.260 . S
O1035 In1027 2.266 . S
O1035 C1032 1.252 . S
O1036 In1027 2.326 . S
O1036 C1032 1.260 . S
C1037 O1028 1.240 . S
C1037 O1029 1.252 . S
O1038 In1027 2.294 . S
O1038 C1031 1.240 . S
O1039 In1027 2.326 . S
O1039 C1031 1.252 . S
In1040 O1041 2.294 . S
In1040 O1042 2.326 . S
In1040 O1046 2.266 . S
In1040 O1047 2.326 . S
In1040 O1048 2.266 . S
In1040 O1049 2.326 . S
In1040 O1051 2.294 . S
In1040 O1052 2.326 . S
O1041 In1040 2.294 . S
O1041 C1050 1.240 . S
O1042 In1040 2.326 . S
O1042 C1050 1.252 . S
C1043 O1046 1.252 . S
C1043 O1047 1.260 . S
C1044 O1051 1.240 . S
C1044 O1052 1.252 . S
C1045 O1048 1.252 . S
C1045 O1049 1.260 . S
O1046 In1040 2.266 . S
O1046 C1043 1.252 . S
O1047 In1040 2.326 . S
O1047 C1043 1.260 . S
O1048 In1040 2.266 . S
O1048 C1045 1.252 . S
O1049 In1040 2.326 . S
O1049 C1045 1.260 . S
C1050 O1041 1.240 . S
C1050 O1042 1.252 . S
O1051 In1040 2.294 . S
O1051 C1044 1.240 . S
O1052 In1040 2.326 . S
O1052 C1044 1.252 . S
In1053 O1054 2.294 . S
In1053 O1055 2.326 . S
In1053 O1059 2.266 . S
In1053 O1060 2.326 . S
In1053 O1061 2.266 . S
In1053 O1062 2.326 . S
In1053 O1064 2.294 . S
In1053 O1065 2.326 . S
O1054 In1053 2.294 . S
O1054 C1063 1.240 . S
O1055 In1053 2.326 . S
O1055 C1063 1.252 . S
C1056 O1059 1.252 . S
C1056 O1060 1.260 . S
C1057 O1064 1.240 . S
C1057 O1065 1.252 . S
C1058 O1061 1.252 . S
C1058 O1062 1.260 . S
O1059 In1053 2.266 . S
O1059 C1056 1.252 . S
O1060 In1053 2.326 . S
O1060 C1056 1.260 . S
O1061 In1053 2.266 . S
O1061 C1058 1.252 . S
O1062 In1053 2.326 . S
O1062 C1058 1.260 . S
C1063 O1054 1.240 . S
C1063 O1055 1.252 . S
O1064 In1053 2.294 . S
O1064 C1057 1.240 . S
O1065 In1053 2.326 . S
O1065 C1057 1.252 . S
In1066 O1067 2.294 . S
In1066 O1068 2.326 . S
In1066 O1072 2.266 . S
In1066 O1073 2.326 . S
In1066 O1074 2.266 . S
In1066 O1075 2.326 . S
In1066 O1077 2.294 . S
In1066 O1078 2.326 . S
O1067 In1066 2.294 . S
O1067 C1076 1.240 . S
O1068 In1066 2.326 . S
O1068 C1076 1.252 . S
C1069 O1072 1.252 . S
C1069 O1073 1.260 . S
C1070 O1077 1.240 . S
C1070 O1078 1.252 . S
C1071 O1074 1.252 . S
C1071 O1075 1.260 . S
O1072 In1066 2.266 . S
O1072 C1069 1.252 . S
O1073 In1066 2.326 . S
O1073 C1069 1.260 . S
O1074 In1066 2.266 . S
O1074 C1071 1.252 . S
O1075 In1066 2.326 . S
O1075 C1071 1.260 . S
C1076 O1067 1.240 . S
C1076 O1068 1.252 . S
O1077 In1066 2.294 . S
O1077 C1070 1.240 . S
O1078 In1066 2.326 . S
O1078 C1070 1.252 . S
In1079 O1080 2.294 . S
In1079 O1081 2.326 . S
In1079 O1085 2.266 . S
In1079 O1086 2.326 . S
In1079 O1087 2.266 . S
In1079 O1088 2.326 . S
In1079 O1090 2.294 . S
In1079 O1091 2.326 . S
O1080 In1079 2.294 . S
O1080 C1089 1.240 . S
O1081 In1079 2.326 . S
O1081 C1089 1.252 . S
C1082 O1085 1.252 . S
C1082 O1086 1.260 . S
C1083 O1090 1.240 . S
C1083 O1091 1.252 . S
C1084 O1087 1.252 . S
C1084 O1088 1.260 . S
O1085 In1079 2.266 . S
O1085 C1082 1.252 . S
O1086 In1079 2.326 . S
O1086 C1082 1.260 . S
O1087 In1079 2.266 . S
O1087 C1084 1.252 . S
O1088 In1079 2.326 . S
O1088 C1084 1.260 . S
C1089 O1080 1.240 . S
C1089 O1081 1.252 . S
O1090 In1079 2.294 . S
O1090 C1083 1.240 . S
O1091 In1079 2.326 . S
O1091 C1083 1.252 . S
In1092 O1093 2.294 . S
In1092 O1094 2.326 . S
In1092 O1098 2.266 . S
In1092 O1099 2.326 . S
In1092 O1100 2.266 . S
In1092 O1101 2.326 . S
In1092 O1103 2.294 . S
In1092 O1104 2.326 . S
O1093 In1092 2.294 . S
O1093 C1102 1.240 . S
O1094 In1092 2.326 . S
O1094 C1102 1.252 . S
C1095 O1098 1.252 . S
C1095 O1099 1.260 . S
C1096 O1103 1.240 . S
C1096 O1104 1.252 . S
C1097 O1100 1.252 . S
C1097 O1101 1.260 . S
O1098 In1092 2.266 . S
O1098 C1095 1.252 . S
O1099 In1092 2.326 . S
O1099 C1095 1.260 . S
O1100 In1092 2.266 . S
O1100 C1097 1.252 . S
O1101 In1092 2.326 . S
O1101 C1097 1.260 . S
C1102 O1093 1.240 . S
C1102 O1094 1.252 . S
O1103 In1092 2.294 . S
O1103 C1096 1.240 . S
O1104 In1092 2.326 . S
O1104 C1096 1.252 . S
In1105 O1106 2.294 . S
In1105 O1107 2.326 . S
In1105 O1111 2.266 . S
In1105 O1112 2.326 . S
In1105 O1113 2.266 . S
In1105 O1114 2.326 . S
In1105 O1116 2.294 . S
In1105 O1117 2.326 . S
O1106 In1105 2.294 . S
O1106 C1115 1.240 . S
O1107 In1105 2.326 . S
O1107 C1115 1.252 . S
C1108 O1111 1.252 . S
C1108 O1112 1.260 . S
C1109 O1116 1.240 . S
C1109 O1117 1.252 . S
C1110 O1113 1.252 . S
C1110 O1114 1.260 . S
O1111 In1105 2.266 . S
O1111 C1108 1.252 . S
O1112 In1105 2.326 . S
O1112 C1108 1.260 . S
O1113 In1105 2.266 . S
O1113 C1110 1.252 . S
O1114 In1105 2.326 . S
O1114 C1110 1.260 . S
C1115 O1106 1.240 . S
C1115 O1107 1.252 . S
O1116 In1105 2.294 . S
O1116 C1109 1.240 . S
O1117 In1105 2.326 . S
O1117 C1109 1.252 . S
In1118 O1119 2.294 . S
In1118 O1120 2.326 . S
In1118 O1124 2.266 . S
In1118 O1125 2.326 . S
In1118 O1126 2.266 . S
In1118 O1127 2.326 . S
In1118 O1129 2.294 . S
In1118 O1130 2.326 . S
O1119 In1118 2.294 . S
O1119 C1128 1.240 . S
O1120 In1118 2.326 . S
O1120 C1128 1.252 . S
C1121 O1124 1.252 . S
C1121 O1125 1.260 . S
C1122 O1129 1.240 . S
C1122 O1130 1.252 . S
C1123 O1126 1.252 . S
C1123 O1127 1.260 . S
O1124 In1118 2.266 . S
O1124 C1121 1.252 . S
O1125 In1118 2.326 . S
O1125 C1121 1.260 . S
O1126 In1118 2.266 . S
O1126 C1123 1.252 . S
O1127 In1118 2.326 . S
O1127 C1123 1.260 . S
C1128 O1119 1.240 . S
C1128 O1120 1.252 . S
O1129 In1118 2.294 . S
O1129 C1122 1.240 . S
O1130 In1118 2.326 . S
O1130 C1122 1.252 . S
In1131 O1132 2.294 . S
In1131 O1133 2.326 . S
In1131 O1137 2.266 . S
In1131 O1138 2.326 . S
In1131 O1139 2.266 . S
In1131 O1140 2.326 . S
In1131 O1142 2.294 . S
In1131 O1143 2.326 . S
O1132 In1131 2.294 . S
O1132 C1141 1.240 . S
O1133 In1131 2.326 . S
O1133 C1141 1.252 . S
C1134 O1137 1.252 . S
C1134 O1138 1.260 . S
C1135 O1142 1.240 . S
C1135 O1143 1.252 . S
C1136 O1139 1.252 . S
C1136 O1140 1.260 . S
O1137 In1131 2.266 . S
O1137 C1134 1.252 . S
O1138 In1131 2.326 . S
O1138 C1134 1.260 . S
O1139 In1131 2.266 . S
O1139 C1136 1.252 . S
O1140 In1131 2.326 . S
O1140 C1136 1.260 . S
C1141 O1132 1.240 . S
C1141 O1133 1.252 . S
O1142 In1131 2.294 . S
O1142 C1135 1.240 . S
O1143 In1131 2.326 . S
O1143 C1135 1.252 . S
In1144 O1145 2.294 . S
In1144 O1146 2.326 . S
In1144 O1150 2.266 . S
In1144 O1151 2.326 . S
In1144 O1152 2.266 . S
In1144 O1153 2.326 . S
In1144 O1155 2.294 . S
In1144 O1156 2.326 . S
O1145 In1144 2.294 . S
O1145 C1154 1.240 . S
O1146 In1144 2.326 . S
O1146 C1154 1.252 . S
C1147 O1150 1.252 . S
C1147 O1151 1.260 . S
C1148 O1155 1.240 . S
C1148 O1156 1.252 . S
C1149 O1152 1.252 . S
C1149 O1153 1.260 . S
O1150 In1144 2.266 . S
O1150 C1147 1.252 . S
O1151 In1144 2.326 . S
O1151 C1147 1.260 . S
O1152 In1144 2.266 . S
O1152 C1149 1.252 . S
O1153 In1144 2.326 . S
O1153 C1149 1.260 . S
C1154 O1145 1.240 . S
C1154 O1146 1.252 . S
O1155 In1144 2.294 . S
O1155 C1148 1.240 . S
O1156 In1144 2.326 . S
O1156 C1148 1.252 . S
In1157 O1158 2.294 . S
In1157 O1159 2.326 . S
In1157 O1163 2.266 . S
In1157 O1164 2.326 . S
In1157 O1165 2.266 . S
In1157 O1166 2.326 . S
In1157 O1168 2.294 . S
In1157 O1169 2.326 . S
O1158 In1157 2.294 . S
O1158 C1167 1.240 . S
O1159 In1157 2.326 . S
O1159 C1167 1.252 . S
C1160 O1163 1.252 . S
C1160 O1164 1.260 . S
C1161 O1168 1.240 . S
C1161 O1169 1.252 . S
C1162 O1165 1.252 . S
C1162 O1166 1.260 . S
O1163 In1157 2.266 . S
O1163 C1160 1.252 . S
O1164 In1157 2.326 . S
O1164 C1160 1.260 . S
O1165 In1157 2.266 . S
O1165 C1162 1.252 . S
O1166 In1157 2.326 . S
O1166 C1162 1.260 . S
C1167 O1158 1.240 . S
C1167 O1159 1.252 . S
O1168 In1157 2.294 . S
O1168 C1161 1.240 . S
O1169 In1157 2.326 . S
O1169 C1161 1.252 . S
In1170 O1171 2.294 . S
In1170 O1172 2.326 . S
In1170 O1176 2.266 . S
In1170 O1177 2.326 . S
In1170 O1178 2.266 . S
In1170 O1179 2.326 . S
In1170 O1181 2.294 . S
In1170 O1182 2.326 . S
O1171 In1170 2.294 . S
O1171 C1180 1.240 . S
O1172 In1170 2.326 . S
O1172 C1180 1.252 . S
C1173 O1176 1.252 . S
C1173 O1177 1.260 . S
C1174 O1181 1.240 . S
C1174 O1182 1.252 . S
C1175 O1178 1.252 . S
C1175 O1179 1.260 . S
O1176 In1170 2.266 . S
O1176 C1173 1.252 . S
O1177 In1170 2.326 . S
O1177 C1173 1.260 . S
O1178 In1170 2.266 . S
O1178 C1175 1.252 . S
O1179 In1170 2.326 . S
O1179 C1175 1.260 . S
C1180 O1171 1.240 . S
C1180 O1172 1.252 . S
O1181 In1170 2.294 . S
O1181 C1174 1.240 . S
O1182 In1170 2.326 . S
O1182 C1174 1.252 . S
In1183 O1184 2.294 . S
In1183 O1185 2.326 . S
In1183 O1189 2.266 . S
In1183 O1190 2.326 . S
In1183 O1191 2.266 . S
In1183 O1192 2.326 . S
In1183 O1194 2.294 . S
In1183 O1195 2.326 . S
O1184 In1183 2.294 . S
O1184 C1193 1.240 . S
O1185 In1183 2.326 . S
O1185 C1193 1.252 . S
C1186 O1189 1.252 . S
C1186 O1190 1.260 . S
C1187 O1194 1.240 . S
C1187 O1195 1.252 . S
C1188 O1191 1.252 . S
C1188 O1192 1.260 . S
O1189 In1183 2.266 . S
O1189 C1186 1.252 . S
O1190 In1183 2.326 . S
O1190 C1186 1.260 . S
O1191 In1183 2.266 . S
O1191 C1188 1.252 . S
O1192 In1183 2.326 . S
O1192 C1188 1.260 . S
C1193 O1184 1.240 . S
C1193 O1185 1.252 . S
O1194 In1183 2.294 . S
O1194 C1187 1.240 . S
O1195 In1183 2.326 . S
O1195 C1187 1.252 . S
In1196 O1197 2.294 . S
In1196 O1198 2.326 . S
In1196 O1202 2.266 . S
In1196 O1203 2.326 . S
In1196 O1204 2.266 . S
In1196 O1205 2.326 . S
In1196 O1207 2.294 . S
In1196 O1208 2.326 . S
O1197 In1196 2.294 . S
O1197 C1206 1.240 . S
O1198 In1196 2.326 . S
O1198 C1206 1.252 . S
C1199 O1202 1.252 . S
C1199 O1203 1.260 . S
C1200 O1207 1.240 . S
C1200 O1208 1.252 . S
C1201 O1204 1.252 . S
C1201 O1205 1.260 . S
O1202 In1196 2.266 . S
O1202 C1199 1.252 . S
O1203 In1196 2.326 . S
O1203 C1199 1.260 . S
O1204 In1196 2.266 . S
O1204 C1201 1.252 . S
O1205 In1196 2.326 . S
O1205 C1201 1.260 . S
C1206 O1197 1.240 . S
C1206 O1198 1.252 . S
O1207 In1196 2.294 . S
O1207 C1200 1.240 . S
O1208 In1196 2.326 . S
O1208 C1200 1.252 . S
In1209 O1210 2.294 . S
In1209 O1211 2.326 . S
In1209 O1215 2.266 . S
In1209 O1216 2.326 . S
In1209 O1217 2.266 . S
In1209 O1218 2.326 . S
In1209 O1220 2.294 . S
In1209 O1221 2.326 . S
O1210 In1209 2.294 . S
O1210 C1219 1.240 . S
O1211 In1209 2.326 . S
O1211 C1219 1.252 . S
C1212 O1215 1.252 . S
C1212 O1216 1.260 . S
C1213 O1220 1.240 . S
C1213 O1221 1.252 . S
C1214 O1217 1.252 . S
C1214 O1218 1.260 . S
O1215 In1209 2.266 . S
O1215 C1212 1.252 . S
O1216 In1209 2.326 . S
O1216 C1212 1.260 . S
O1217 In1209 2.266 . S
O1217 C1214 1.252 . S
O1218 In1209 2.326 . S
O1218 C1214 1.260 . S
C1219 O1210 1.240 . S
C1219 O1211 1.252 . S
O1220 In1209 2.294 . S
O1220 C1213 1.240 . S
O1221 In1209 2.326 . S
O1221 C1213 1.252 . S
In1222 O1223 2.294 . S
In1222 O1224 2.326 . S
In1222 O1228 2.266 . S
In1222 O1229 2.326 . S
In1222 O1230 2.266 . S
In1222 O1231 2.326 . S
In1222 O1233 2.294 . S
In1222 O1234 2.326 . S
O1223 In1222 2.294 . S
O1223 C1232 1.240 . S
O1224 In1222 2.326 . S
O1224 C1232 1.252 . S
C1225 O1228 1.252 . S
C1225 O1229 1.260 . S
C1226 O1233 1.240 . S
C1226 O1234 1.252 . S
C1227 O1230 1.252 . S
C1227 O1231 1.260 . S
O1228 In1222 2.266 . S
O1228 C1225 1.252 . S
O1229 In1222 2.326 . S
O1229 C1225 1.260 . S
O1230 In1222 2.266 . S
O1230 C1227 1.252 . S
O1231 In1222 2.326 . S
O1231 C1227 1.260 . S
C1232 O1223 1.240 . S
C1232 O1224 1.252 . S
O1233 In1222 2.294 . S
O1233 C1226 1.240 . S
O1234 In1222 2.326 . S
O1234 C1226 1.252 . S
In1235 O1236 2.294 . S
In1235 O1237 2.326 . S
In1235 O1241 2.266 . S
In1235 O1242 2.326 . S
In1235 O1243 2.266 . S
In1235 O1244 2.326 . S
In1235 O1246 2.294 . S
In1235 O1247 2.326 . S
O1236 In1235 2.294 . S
O1236 C1245 1.240 . S
O1237 In1235 2.326 . S
O1237 C1245 1.252 . S
C1238 O1241 1.252 . S
C1238 O1242 1.260 . S
C1239 O1246 1.240 . S
C1239 O1247 1.252 . S
C1240 O1243 1.252 . S
C1240 O1244 1.260 . S
O1241 In1235 2.266 . S
O1241 C1238 1.252 . S
O1242 In1235 2.326 . S
O1242 C1238 1.260 . S
O1243 In1235 2.266 . S
O1243 C1240 1.252 . S
O1244 In1235 2.326 . S
O1244 C1240 1.260 . S
C1245 O1236 1.240 . S
C1245 O1237 1.252 . S
O1246 In1235 2.294 . S
O1246 C1239 1.240 . S
O1247 In1235 2.326 . S
O1247 C1239 1.252 . S
C1248 C1249 1.369 . S
C1248 C1250 1.419 . S
C1248 H1252 0.930 . S
C1249 C1248 1.369 . S
C1249 C1258 1.429 . S
C1250 C1248 1.419 . S
C1250 C1251 1.363 . S
C1250 H1253 0.929 . S
C1251 C1250 1.363 . S
C1251 C1257 1.428 . S
H1252 C1248 0.930 . S
H1253 C1250 0.929 . S
S1254 N1255 1.613 . S
S1254 N1256 1.610 . S
N1255 S1254 1.613 . S
N1255 C1258 1.350 . S
N1256 S1254 1.610 . S
N1256 C1257 1.351 . S
C1257 C1251 1.428 . S
C1257 N1256 1.351 . S
C1257 C1258 1.434 . S
C1258 C1249 1.429 . S
C1258 N1255 1.350 . S
C1258 C1257 1.434 . S
C1259 C1260 1.369 . S
C1259 C1261 1.419 . S
C1259 H1263 0.930 . S
C1260 C1259 1.369 . S
C1260 C1269 1.429 . S
C1261 C1259 1.419 . S
C1261 C1262 1.363 . S
C1261 H1264 0.929 . S
C1262 C1261 1.363 . S
C1262 C1268 1.428 . S
H1263 C1259 0.930 . S
H1264 C1261 0.929 . S
S1265 N1266 1.613 . S
S1265 N1267 1.610 . S
N1266 S1265 1.613 . S
N1266 C1269 1.350 . S
N1267 S1265 1.610 . S
N1267 C1268 1.351 . S
C1268 C1262 1.428 . S
C1268 N1267 1.351 . S
C1268 C1269 1.434 . S
C1269 C1260 1.429 . S
C1269 N1266 1.350 . S
C1269 C1268 1.434 . S
C1270 C1271 1.369 . S
C1270 C1272 1.419 . S
C1270 H1274 0.930 . S
C1271 C1270 1.369 . S
C1271 C1280 1.429 . S
C1272 C1270 1.419 . S
C1272 C1273 1.363 . S
C1272 H1275 0.929 . S
C1273 C1272 1.363 . S
C1273 C1279 1.428 . S
H1274 C1270 0.930 . S
H1275 C1272 0.929 . S
S1276 N1277 1.613 . S
S1276 N1278 1.610 . S
N1277 S1276 1.613 . S
N1277 C1280 1.350 . S
N1278 S1276 1.610 . S
N1278 C1279 1.351 . S
C1279 C1273 1.428 . S
C1279 N1278 1.351 . S
C1279 C1280 1.434 . S
C1280 C1271 1.429 . S
C1280 N1277 1.350 . S
C1280 C1279 1.434 . S
C1281 C1282 1.369 . S
C1281 C1283 1.419 . S
C1281 H1285 0.930 . S
C1282 C1281 1.369 . S
C1282 C1291 1.429 . S
C1283 C1281 1.419 . S
C1283 C1284 1.363 . S
C1283 H1286 0.929 . S
C1284 C1283 1.363 . S
C1284 C1290 1.428 . S
H1285 C1281 0.930 . S
H1286 C1283 0.929 . S
S1287 N1288 1.613 . S
S1287 N1289 1.610 . S
N1288 S1287 1.613 . S
N1288 C1291 1.350 . S
N1289 S1287 1.610 . S
N1289 C1290 1.351 . S
C1290 C1284 1.428 . S
C1290 N1289 1.351 . S
C1290 C1291 1.434 . S
C1291 C1282 1.429 . S
C1291 N1288 1.350 . S
C1291 C1290 1.434 . S
C1292 C1293 1.369 . S
C1292 C1294 1.419 . S
C1292 H1296 0.930 . S
C1293 C1292 1.369 . S
C1293 C1302 1.429 . S
C1294 C1292 1.419 . S
C1294 C1295 1.363 . S
C1294 H1297 0.929 . S
C1295 C1294 1.363 . S
C1295 C1301 1.428 . S
H1296 C1292 0.930 . S
H1297 C1294 0.929 . S
S1298 N1299 1.613 . S
S1298 N1300 1.610 . S
N1299 S1298 1.613 . S
N1299 C1302 1.350 . S
N1300 S1298 1.610 . S
N1300 C1301 1.351 . S
C1301 C1295 1.428 . S
C1301 N1300 1.351 . S
C1301 C1302 1.434 . S
C1302 C1293 1.429 . S
C1302 N1299 1.350 . S
C1302 C1301 1.434 . S
C1303 C1304 1.369 . S
C1303 C1305 1.419 . S
C1303 H1307 0.930 . S
C1304 C1303 1.369 . S
C1304 C1313 1.429 . S
C1305 C1303 1.419 . S
C1305 C1306 1.363 . S
C1305 H1308 0.929 . S
C1306 C1305 1.363 . S
C1306 C1312 1.428 . S
H1307 C1303 0.930 . S
H1308 C1305 0.929 . S
S1309 N1310 1.613 . S
S1309 N1311 1.610 . S
N1310 S1309 1.613 . S
N1310 C1313 1.350 . S
N1311 S1309 1.610 . S
N1311 C1312 1.351 . S
C1312 C1306 1.428 . S
C1312 N1311 1.351 . S
C1312 C1313 1.434 . S
C1313 C1304 1.429 . S
C1313 N1310 1.350 . S
C1313 C1312 1.434 . S
C1314 C1315 1.369 . S
C1314 C1316 1.419 . S
C1314 H1318 0.930 . S
C1315 C1314 1.369 . S
C1315 C1324 1.429 . S
C1316 C1314 1.419 . S
C1316 C1317 1.363 . S
C1316 H1319 0.929 . S
C1317 C1316 1.363 . S
C1317 C1323 1.428 . S
H1318 C1314 0.930 . S
H1319 C1316 0.929 . S
S1320 N1321 1.613 . S
S1320 N1322 1.610 . S
N1321 S1320 1.613 . S
N1321 C1324 1.350 . S
N1322 S1320 1.610 . S
N1322 C1323 1.351 . S
C1323 C1317 1.428 . S
C1323 N1322 1.351 . S
C1323 C1324 1.434 . S
C1324 C1315 1.429 . S
C1324 N1321 1.350 . S
C1324 C1323 1.434 . S
C1325 C1326 1.369 . S
C1325 C1327 1.419 . S
C1325 H1329 0.930 . S
C1326 C1325 1.369 . S
C1326 C1335 1.429 . S
C1327 C1325 1.419 . S
C1327 C1328 1.363 . S
C1327 H1330 0.929 . S
C1328 C1327 1.363 . S
C1328 C1334 1.428 . S
H1329 C1325 0.930 . S
H1330 C1327 0.929 . S
S1331 N1332 1.613 . S
S1331 N1333 1.610 . S
N1332 S1331 1.613 . S
N1332 C1335 1.350 . S
N1333 S1331 1.610 . S
N1333 C1334 1.351 . S
C1334 C1328 1.428 . S
C1334 N1333 1.351 . S
C1334 C1335 1.434 . S
C1335 C1326 1.429 . S
C1335 N1332 1.350 . S
C1335 C1334 1.434 . S
C1336 C1337 1.369 . S
C1336 C1338 1.419 . S
C1336 H1340 0.930 . S
C1337 C1336 1.369 . S
C1337 C1346 1.429 . S
C1338 C1336 1.419 . S
C1338 C1339 1.363 . S
C1338 H1341 0.929 . S
C1339 C1338 1.363 . S
C1339 C1345 1.428 . S
H1340 C1336 0.930 . S
H1341 C1338 0.929 . S
S1342 N1343 1.613 . S
S1342 N1344 1.610 . S
N1343 S1342 1.613 . S
N1343 C1346 1.350 . S
N1344 S1342 1.610 . S
N1344 C1345 1.351 . S
C1345 C1339 1.428 . S
C1345 N1344 1.351 . S
C1345 C1346 1.434 . S
C1346 C1337 1.429 . S
C1346 N1343 1.350 . S
C1346 C1345 1.434 . S
C1347 C1348 1.369 . S
C1347 C1349 1.419 . S
C1347 H1351 0.930 . S
C1348 C1347 1.369 . S
C1348 C1357 1.429 . S
C1349 C1347 1.419 . S
C1349 C1350 1.363 . S
C1349 H1352 0.929 . S
C1350 C1349 1.363 . S
C1350 C1356 1.428 . S
H1351 C1347 0.930 . S
H1352 C1349 0.929 . S
S1353 N1354 1.613 . S
S1353 N1355 1.610 . S
N1354 S1353 1.613 . S
N1354 C1357 1.350 . S
N1355 S1353 1.610 . S
N1355 C1356 1.351 . S
C1356 C1350 1.428 . S
C1356 N1355 1.351 . S
C1356 C1357 1.434 . S
C1357 C1348 1.429 . S
C1357 N1354 1.350 . S
C1357 C1356 1.434 . S
C1358 C1359 1.369 . S
C1358 C1360 1.419 . S
C1358 H1362 0.930 . S
C1359 C1358 1.369 . S
C1359 C1368 1.429 . S
C1360 C1358 1.419 . S
C1360 C1361 1.363 . S
C1360 H1363 0.929 . S
C1361 C1360 1.363 . S
C1361 C1367 1.428 . S
H1362 C1358 0.930 . S
H1363 C1360 0.929 . S
S1364 N1365 1.613 . S
S1364 N1366 1.610 . S
N1365 S1364 1.613 . S
N1365 C1368 1.350 . S
N1366 S1364 1.610 . S
N1366 C1367 1.351 . S
C1367 C1361 1.428 . S
C1367 N1366 1.351 . S
C1367 C1368 1.434 . S
C1368 C1359 1.429 . S
C1368 N1365 1.350 . S
C1368 C1367 1.434 . S
C1369 C1370 1.369 . S
C1369 C1371 1.419 . S
C1369 H1373 0.930 . S
C1370 C1369 1.369 . S
C1370 C1379 1.429 . S
C1371 C1369 1.419 . S
C1371 C1372 1.363 . S
C1371 H1374 0.929 . S
C1372 C1371 1.363 . S
C1372 C1378 1.428 . S
H1373 C1369 0.930 . S
H1374 C1371 0.929 . S
S1375 N1376 1.613 . S
S1375 N1377 1.610 . S
N1376 S1375 1.613 . S
N1376 C1379 1.350 . S
N1377 S1375 1.610 . S
N1377 C1378 1.351 . S
C1378 C1372 1.428 . S
C1378 N1377 1.351 . S
C1378 C1379 1.434 . S
C1379 C1370 1.429 . S
C1379 N1376 1.350 . S
C1379 C1378 1.434 . S
C1380 C1381 1.369 . S
C1380 C1382 1.419 . S
C1380 H1384 0.930 . S
C1381 C1380 1.369 . S
C1381 C1390 1.429 . S
C1382 C1380 1.419 . S
C1382 C1383 1.363 . S
C1382 H1385 0.929 . S
C1383 C1382 1.363 . S
C1383 C1389 1.428 . S
H1384 C1380 0.930 . S
H1385 C1382 0.929 . S
S1386 N1387 1.613 . S
S1386 N1388 1.610 . S
N1387 S1386 1.613 . S
N1387 C1390 1.350 . S
N1388 S1386 1.610 . S
N1388 C1389 1.351 . S
C1389 C1383 1.428 . S
C1389 N1388 1.351 . S
C1389 C1390 1.434 . S
C1390 C1381 1.429 . S
C1390 N1387 1.350 . S
C1390 C1389 1.434 . S
C1391 C1392 1.369 . S
C1391 C1393 1.419 . S
C1391 H1395 0.930 . S
C1392 C1391 1.369 . S
C1392 C1401 1.429 . S
C1393 C1391 1.419 . S
C1393 C1394 1.363 . S
C1393 H1396 0.929 . S
C1394 C1393 1.363 . S
C1394 C1400 1.428 . S
H1395 C1391 0.930 . S
H1396 C1393 0.929 . S
S1397 N1398 1.613 . S
S1397 N1399 1.610 . S
N1398 S1397 1.613 . S
N1398 C1401 1.350 . S
N1399 S1397 1.610 . S
N1399 C1400 1.351 . S
C1400 C1394 1.428 . S
C1400 N1399 1.351 . S
C1400 C1401 1.434 . S
C1401 C1392 1.429 . S
C1401 N1398 1.350 . S
C1401 C1400 1.434 . S
C1402 C1403 1.369 . S
C1402 C1404 1.419 . S
C1402 H1406 0.930 . S
C1403 C1402 1.369 . S
C1403 C1412 1.429 . S
C1404 C1402 1.419 . S
C1404 C1405 1.363 . S
C1404 H1407 0.929 . S
C1405 C1404 1.363 . S
C1405 C1411 1.428 . S
H1406 C1402 0.930 . S
H1407 C1404 0.929 . S
S1408 N1409 1.613 . S
S1408 N1410 1.610 . S
N1409 S1408 1.613 . S
N1409 C1412 1.350 . S
N1410 S1408 1.610 . S
N1410 C1411 1.351 . S
C1411 C1405 1.428 . S
C1411 N1410 1.351 . S
C1411 C1412 1.434 . S
C1412 C1403 1.429 . S
C1412 N1409 1.350 . S
C1412 C1411 1.434 . S
C1413 C1414 1.369 . S
C1413 C1415 1.419 . S
C1413 H1417 0.930 . S
C1414 C1413 1.369 . S
C1414 C1423 1.429 . S
C1415 C1413 1.419 . S
C1415 C1416 1.363 . S
C1415 H1418 0.929 . S
C1416 C1415 1.363 . S
C1416 C1422 1.428 . S
H1417 C1413 0.930 . S
H1418 C1415 0.929 . S
S1419 N1420 1.613 . S
S1419 N1421 1.610 . S
N1420 S1419 1.613 . S
N1420 C1423 1.350 . S
N1421 S1419 1.610 . S
N1421 C1422 1.351 . S
C1422 C1416 1.428 . S
C1422 N1421 1.351 . S
C1422 C1423 1.434 . S
C1423 C1414 1.429 . S
C1423 N1420 1.350 . S
C1423 C1422 1.434 . S
C1424 C1425 1.369 . S
C1424 C1426 1.419 . S
C1424 H1428 0.930 . S
C1425 C1424 1.369 . S
C1425 C1434 1.429 . S
C1426 C1424 1.419 . S
C1426 C1427 1.363 . S
C1426 H1429 0.929 . S
C1427 C1426 1.363 . S
C1427 C1433 1.428 . S
H1428 C1424 0.930 . S
H1429 C1426 0.929 . S
S1430 N1431 1.613 . S
S1430 N1432 1.610 . S
N1431 S1430 1.613 . S
N1431 C1434 1.350 . S
N1432 S1430 1.610 . S
N1432 C1433 1.351 . S
C1433 C1427 1.428 . S
C1433 N1432 1.351 . S
C1433 C1434 1.434 . S
C1434 C1425 1.429 . S
C1434 N1431 1.350 . S
C1434 C1433 1.434 . S
C1435 C1436 1.369 . S
C1435 C1437 1.419 . S
C1435 H1439 0.930 . S
C1436 C1435 1.369 . S
C1436 C1445 1.429 . S
C1437 C1435 1.419 . S
C1437 C1438 1.363 . S
C1437 H1440 0.929 . S
C1438 C1437 1.363 . S
C1438 C1444 1.428 . S
H1439 C1435 0.930 . S
H1440 C1437 0.929 . S
S1441 N1442 1.613 . S
S1441 N1443 1.610 . S
N1442 S1441 1.613 . S
N1442 C1445 1.350 . S
N1443 S1441 1.610 . S
N1443 C1444 1.351 . S
C1444 C1438 1.428 . S
C1444 N1443 1.351 . S
C1444 C1445 1.434 . S
C1445 C1436 1.429 . S
C1445 N1442 1.350 . S
C1445 C1444 1.434 . S
C1446 C1447 1.369 . S
C1446 C1448 1.419 . S
C1446 H1450 0.930 . S
C1447 C1446 1.369 . S
C1447 C1456 1.429 . S
C1448 C1446 1.419 . S
C1448 C1449 1.363 . S
C1448 H1451 0.929 . S
C1449 C1448 1.363 . S
C1449 C1455 1.428 . S
H1450 C1446 0.930 . S
H1451 C1448 0.929 . S
S1452 N1453 1.613 . S
S1452 N1454 1.610 . S
N1453 S1452 1.613 . S
N1453 C1456 1.350 . S
N1454 S1452 1.610 . S
N1454 C1455 1.351 . S
C1455 C1449 1.428 . S
C1455 N1454 1.351 . S
C1455 C1456 1.434 . S
C1456 C1447 1.429 . S
C1456 N1453 1.350 . S
C1456 C1455 1.434 . S
C1457 C1458 1.369 . S
C1457 C1459 1.419 . S
C1457 H1461 0.930 . S
C1458 C1457 1.369 . S
C1458 C1467 1.429 . S
C1459 C1457 1.419 . S
C1459 C1460 1.363 . S
C1459 H1462 0.929 . S
C1460 C1459 1.363 . S
C1460 C1466 1.428 . S
H1461 C1457 0.930 . S
H1462 C1459 0.929 . S
S1463 N1464 1.613 . S
S1463 N1465 1.610 . S
N1464 S1463 1.613 . S
N1464 C1467 1.350 . S
N1465 S1463 1.610 . S
N1465 C1466 1.351 . S
C1466 C1460 1.428 . S
C1466 N1465 1.351 . S
C1466 C1467 1.434 . S
C1467 C1458 1.429 . S
C1467 N1464 1.350 . S
C1467 C1466 1.434 . S
C1468 C1469 1.369 . S
C1468 C1470 1.419 . S
C1468 H1472 0.930 . S
C1469 C1468 1.369 . S
C1469 C1478 1.429 . S
C1470 C1468 1.419 . S
C1470 C1471 1.363 . S
C1470 H1473 0.929 . S
C1471 C1470 1.363 . S
C1471 C1477 1.428 . S
H1472 C1468 0.930 . S
H1473 C1470 0.929 . S
S1474 N1475 1.613 . S
S1474 N1476 1.610 . S
N1475 S1474 1.613 . S
N1475 C1478 1.350 . S
N1476 S1474 1.610 . S
N1476 C1477 1.351 . S
C1477 C1471 1.428 . S
C1477 N1476 1.351 . S
C1477 C1478 1.434 . S
C1478 C1469 1.429 . S
C1478 N1475 1.350 . S
C1478 C1477 1.434 . S
C1479 C1480 1.369 . S
C1479 C1481 1.419 . S
C1479 H1483 0.930 . S
C1480 C1479 1.369 . S
C1480 C1489 1.429 . S
C1481 C1479 1.419 . S
C1481 C1482 1.363 . S
C1481 H1484 0.929 . S
C1482 C1481 1.363 . S
C1482 C1488 1.428 . S
H1483 C1479 0.930 . S
H1484 C1481 0.929 . S
S1485 N1486 1.613 . S
S1485 N1487 1.610 . S
N1486 S1485 1.613 . S
N1486 C1489 1.350 . S
N1487 S1485 1.610 . S
N1487 C1488 1.351 . S
C1488 C1482 1.428 . S
C1488 N1487 1.351 . S
C1488 C1489 1.434 . S
C1489 C1480 1.429 . S
C1489 N1486 1.350 . S
C1489 C1488 1.434 . S
C1490 C1491 1.369 . S
C1490 C1492 1.419 . S
C1490 H1494 0.930 . S
C1491 C1490 1.369 . S
C1491 C1500 1.429 . S
C1492 C1490 1.419 . S
C1492 C1493 1.363 . S
C1492 H1495 0.929 . S
C1493 C1492 1.363 . S
C1493 C1499 1.428 . S
H1494 C1490 0.930 . S
H1495 C1492 0.929 . S
S1496 N1497 1.613 . S
S1496 N1498 1.610 . S
N1497 S1496 1.613 . S
N1497 C1500 1.350 . S
N1498 S1496 1.610 . S
N1498 C1499 1.351 . S
C1499 C1493 1.428 . S
C1499 N1498 1.351 . S
C1499 C1500 1.434 . S
C1500 C1491 1.429 . S
C1500 N1497 1.350 . S
C1500 C1499 1.434 . S
C1501 C1502 1.369 . S
C1501 C1503 1.419 . S
C1501 H1505 0.930 . S
C1502 C1501 1.369 . S
C1502 C1511 1.429 . S
C1503 C1501 1.419 . S
C1503 C1504 1.363 . S
C1503 H1506 0.929 . S
C1504 C1503 1.363 . S
C1504 C1510 1.428 . S
H1505 C1501 0.930 . S
H1506 C1503 0.929 . S
S1507 N1508 1.613 . S
S1507 N1509 1.610 . S
N1508 S1507 1.613 . S
N1508 C1511 1.350 . S
N1509 S1507 1.610 . S
N1509 C1510 1.351 . S
C1510 C1504 1.428 . S
C1510 N1509 1.351 . S
C1510 C1511 1.434 . S
C1511 C1502 1.429 . S
C1511 N1508 1.350 . S
C1511 C1510 1.434 . S
C1512 C1513 1.369 . S
C1512 C1514 1.419 . S
C1512 H1516 0.930 . S
C1513 C1512 1.369 . S
C1513 C1522 1.429 . S
C1514 C1512 1.419 . S
C1514 C1515 1.363 . S
C1514 H1517 0.929 . S
C1515 C1514 1.363 . S
C1515 C1521 1.428 . S
H1516 C1512 0.930 . S
H1517 C1514 0.929 . S
S1518 N1519 1.613 . S
S1518 N1520 1.610 . S
N1519 S1518 1.613 . S
N1519 C1522 1.350 . S
N1520 S1518 1.610 . S
N1520 C1521 1.351 . S
C1521 C1515 1.428 . S
C1521 N1520 1.351 . S
C1521 C1522 1.434 . S
C1522 C1513 1.429 . S
C1522 N1519 1.350 . S
C1522 C1521 1.434 . S
C1523 C1524 1.369 . S
C1523 C1525 1.419 . S
C1523 H1527 0.930 . S
C1524 C1523 1.369 . S
C1524 C1533 1.429 . S
C1525 C1523 1.419 . S
C1525 C1526 1.363 . S
C1525 H1528 0.929 . S
C1526 C1525 1.363 . S
C1526 C1532 1.428 . S
H1527 C1523 0.930 . S
H1528 C1525 0.929 . S
S1529 N1530 1.613 . S
S1529 N1531 1.610 . S
N1530 S1529 1.613 . S
N1530 C1533 1.350 . S
N1531 S1529 1.610 . S
N1531 C1532 1.351 . S
C1532 C1526 1.428 . S
C1532 N1531 1.351 . S
C1532 C1533 1.434 . S
C1533 C1524 1.429 . S
C1533 N1530 1.350 . S
C1533 C1532 1.434 . S
C1534 C1535 1.369 . S
C1534 C1536 1.419 . S
C1534 H1538 0.930 . S
C1535 C1534 1.369 . S
C1535 C1544 1.429 . S
C1536 C1534 1.419 . S
C1536 C1537 1.363 . S
C1536 H1539 0.929 . S
C1537 C1536 1.363 . S
C1537 C1543 1.428 . S
H1538 C1534 0.930 . S
H1539 C1536 0.929 . S
S1540 N1541 1.613 . S
S1540 N1542 1.610 . S
N1541 S1540 1.613 . S
N1541 C1544 1.350 . S
N1542 S1540 1.610 . S
N1542 C1543 1.351 . S
C1543 C1537 1.428 . S
C1543 N1542 1.351 . S
C1543 C1544 1.434 . S
C1544 C1535 1.429 . S
C1544 N1541 1.350 . S
C1544 C1543 1.434 . S
C1545 C1546 1.369 . S
C1545 C1547 1.419 . S
C1545 H1549 0.930 . S
C1546 C1545 1.369 . S
C1546 C1555 1.429 . S
C1547 C1545 1.419 . S
C1547 C1548 1.363 . S
C1547 H1550 0.929 . S
C1548 C1547 1.363 . S
C1548 C1554 1.428 . S
H1549 C1545 0.930 . S
H1550 C1547 0.929 . S
S1551 N1552 1.613 . S
S1551 N1553 1.610 . S
N1552 S1551 1.613 . S
N1552 C1555 1.350 . S
N1553 S1551 1.610 . S
N1553 C1554 1.351 . S
C1554 C1548 1.428 . S
C1554 N1553 1.351 . S
C1554 C1555 1.434 . S
C1555 C1546 1.429 . S
C1555 N1552 1.350 . S
C1555 C1554 1.434 . S
C1556 C1557 1.369 . S
C1556 C1558 1.419 . S
C1556 H1560 0.930 . S
C1557 C1556 1.369 . S
C1557 C1566 1.429 . S
C1558 C1556 1.419 . S
C1558 C1559 1.363 . S
C1558 H1561 0.929 . S
C1559 C1558 1.363 . S
C1559 C1565 1.428 . S
H1560 C1556 0.930 . S
H1561 C1558 0.929 . S
S1562 N1563 1.613 . S
S1562 N1564 1.610 . S
N1563 S1562 1.613 . S
N1563 C1566 1.350 . S
N1564 S1562 1.610 . S
N1564 C1565 1.351 . S
C1565 C1559 1.428 . S
C1565 N1564 1.351 . S
C1565 C1566 1.434 . S
C1566 C1557 1.429 . S
C1566 N1563 1.350 . S
C1566 C1565 1.434 . S
C1567 C1568 1.369 . S
C1567 C1569 1.419 . S
C1567 H1571 0.930 . S
C1568 C1567 1.369 . S
C1568 C1577 1.429 . S
C1569 C1567 1.419 . S
C1569 C1570 1.363 . S
C1569 H1572 0.929 . S
C1570 C1569 1.363 . S
C1570 C1576 1.428 . S
H1571 C1567 0.930 . S
H1572 C1569 0.929 . S
S1573 N1574 1.613 . S
S1573 N1575 1.610 . S
N1574 S1573 1.613 . S
N1574 C1577 1.350 . S
N1575 S1573 1.610 . S
N1575 C1576 1.351 . S
C1576 C1570 1.428 . S
C1576 N1575 1.351 . S
C1576 C1577 1.434 . S
C1577 C1568 1.429 . S
C1577 N1574 1.350 . S
C1577 C1576 1.434 . S
C1578 C1579 1.369 . S
C1578 C1580 1.419 . S
C1578 H1582 0.930 . S
C1579 C1578 1.369 . S
C1579 C1588 1.429 . S
C1580 C1578 1.419 . S
C1580 C1581 1.363 . S
C1580 H1583 0.929 . S
C1581 C1580 1.363 . S
C1581 C1587 1.428 . S
H1582 C1578 0.930 . S
H1583 C1580 0.929 . S
S1584 N1585 1.613 . S
S1584 N1586 1.610 . S
N1585 S1584 1.613 . S
N1585 C1588 1.350 . S
N1586 S1584 1.610 . S
N1586 C1587 1.351 . S
C1587 C1581 1.428 . S
C1587 N1586 1.351 . S
C1587 C1588 1.434 . S
C1588 C1579 1.429 . S
C1588 N1585 1.350 . S
C1588 C1587 1.434 . S
C1589 C1590 1.369 . S
C1589 C1591 1.419 . S
C1589 H1593 0.930 . S
C1590 C1589 1.369 . S
C1590 C1599 1.429 . S
C1591 C1589 1.419 . S
C1591 C1592 1.363 . S
C1591 H1594 0.929 . S
C1592 C1591 1.363 . S
C1592 C1598 1.428 . S
H1593 C1589 0.930 . S
H1594 C1591 0.929 . S
S1595 N1596 1.613 . S
S1595 N1597 1.610 . S
N1596 S1595 1.613 . S
N1596 C1599 1.350 . S
N1597 S1595 1.610 . S
N1597 C1598 1.351 . S
C1598 C1592 1.428 . S
C1598 N1597 1.351 . S
C1598 C1599 1.434 . S
C1599 C1590 1.429 . S
C1599 N1596 1.350 . S
C1599 C1598 1.434 . S
C1600 C1601 1.369 . S
C1600 C1602 1.419 . S
C1600 H1604 0.930 . S
C1601 C1600 1.369 . S
C1601 C1610 1.429 . S
C1602 C1600 1.419 . S
C1602 C1603 1.363 . S
C1602 H1605 0.929 . S
C1603 C1602 1.363 . S
C1603 C1609 1.428 . S
H1604 C1600 0.930 . S
H1605 C1602 0.929 . S
S1606 N1607 1.613 . S
S1606 N1608 1.610 . S
N1607 S1606 1.613 . S
N1607 C1610 1.350 . S
N1608 S1606 1.610 . S
N1608 C1609 1.351 . S
C1609 C1603 1.428 . S
C1609 N1608 1.351 . S
C1609 C1610 1.434 . S
C1610 C1601 1.429 . S
C1610 N1607 1.350 . S
C1610 C1609 1.434 . S
C1611 C1612 1.369 . S
C1611 C1613 1.419 . S
C1611 H1615 0.930 . S
C1612 C1611 1.369 . S
C1612 C1621 1.429 . S
C1613 C1611 1.419 . S
C1613 C1614 1.363 . S
C1613 H1616 0.929 . S
C1614 C1613 1.363 . S
C1614 C1620 1.428 . S
H1615 C1611 0.930 . S
H1616 C1613 0.929 . S
S1617 N1618 1.613 . S
S1617 N1619 1.610 . S
N1618 S1617 1.613 . S
N1618 C1621 1.350 . S
N1619 S1617 1.610 . S
N1619 C1620 1.351 . S
C1620 C1614 1.428 . S
C1620 N1619 1.351 . S
C1620 C1621 1.434 . S
C1621 C1612 1.429 . S
C1621 N1618 1.350 . S
C1621 C1620 1.434 . S
C1622 C1623 1.369 . S
C1622 C1624 1.419 . S
C1622 H1626 0.930 . S
C1623 C1622 1.369 . S
C1623 C1632 1.429 . S
C1624 C1622 1.419 . S
C1624 C1625 1.363 . S
C1624 H1627 0.929 . S
C1625 C1624 1.363 . S
C1625 C1631 1.428 . S
H1626 C1622 0.930 . S
H1627 C1624 0.929 . S
S1628 N1629 1.613 . S
S1628 N1630 1.610 . S
N1629 S1628 1.613 . S
N1629 C1632 1.350 . S
N1630 S1628 1.610 . S
N1630 C1631 1.351 . S
C1631 C1625 1.428 . S
C1631 N1630 1.351 . S
C1631 C1632 1.434 . S
C1632 C1623 1.429 . S
C1632 N1629 1.350 . S
C1632 C1631 1.434 . S
C1633 C1634 1.369 . S
C1633 C1635 1.419 . S
C1633 H1637 0.930 . S
C1634 C1633 1.369 . S
C1634 C1643 1.429 . S
C1635 C1633 1.419 . S
C1635 C1636 1.363 . S
C1635 H1638 0.929 . S
C1636 C1635 1.363 . S
C1636 C1642 1.428 . S
H1637 C1633 0.930 . S
H1638 C1635 0.929 . S
S1639 N1640 1.613 . S
S1639 N1641 1.610 . S
N1640 S1639 1.613 . S
N1640 C1643 1.350 . S
N1641 S1639 1.610 . S
N1641 C1642 1.351 . S
C1642 C1636 1.428 . S
C1642 N1641 1.351 . S
C1642 C1643 1.434 . S
C1643 C1634 1.429 . S
C1643 N1640 1.350 . S
C1643 C1642 1.434 . S
C1644 C1645 1.369 . S
C1644 C1646 1.419 . S
C1644 H1648 0.930 . S
C1645 C1644 1.369 . S
C1645 C1654 1.429 . S
C1646 C1644 1.419 . S
C1646 C1647 1.363 . S
C1646 H1649 0.929 . S
C1647 C1646 1.363 . S
C1647 C1653 1.428 . S
H1648 C1644 0.930 . S
H1649 C1646 0.929 . S
S1650 N1651 1.613 . S
S1650 N1652 1.610 . S
N1651 S1650 1.613 . S
N1651 C1654 1.350 . S
N1652 S1650 1.610 . S
N1652 C1653 1.351 . S
C1653 C1647 1.428 . S
C1653 N1652 1.351 . S
C1653 C1654 1.434 . S
C1654 C1645 1.429 . S
C1654 N1651 1.350 . S
C1654 C1653 1.434 . S
C1655 C1656 1.369 . S
C1655 C1657 1.419 . S
C1655 H1659 0.930 . S
C1656 C1655 1.369 . S
C1656 C1665 1.429 . S
C1657 C1655 1.419 . S
C1657 C1658 1.363 . S
C1657 H1660 0.929 . S
C1658 C1657 1.363 . S
C1658 C1664 1.428 . S
H1659 C1655 0.930 . S
H1660 C1657 0.929 . S
S1661 N1662 1.613 . S
S1661 N1663 1.610 . S
N1662 S1661 1.613 . S
N1662 C1665 1.350 . S
N1663 S1661 1.610 . S
N1663 C1664 1.351 . S
C1664 C1658 1.428 . S
C1664 N1663 1.351 . S
C1664 C1665 1.434 . S
C1665 C1656 1.429 . S
C1665 N1662 1.350 . S
C1665 C1664 1.434 . S
C1666 C1667 1.369 . S
C1666 C1668 1.419 . S
C1666 H1670 0.930 . S
C1667 C1666 1.369 . S
C1667 C1676 1.429 . S
C1668 C1666 1.419 . S
C1668 C1669 1.363 . S
C1668 H1671 0.929 . S
C1669 C1668 1.363 . S
C1669 C1675 1.428 . S
H1670 C1666 0.930 . S
H1671 C1668 0.929 . S
S1672 N1673 1.613 . S
S1672 N1674 1.610 . S
N1673 S1672 1.613 . S
N1673 C1676 1.350 . S
N1674 S1672 1.610 . S
N1674 C1675 1.351 . S
C1675 C1669 1.428 . S
C1675 N1674 1.351 . S
C1675 C1676 1.434 . S
C1676 C1667 1.429 . S
C1676 N1673 1.350 . S
C1676 C1675 1.434 . S
C1677 C1678 1.369 . S
C1677 C1679 1.419 . S
C1677 H1681 0.930 . S
C1678 C1677 1.369 . S
C1678 C1687 1.429 . S
C1679 C1677 1.419 . S
C1679 C1680 1.363 . S
C1679 H1682 0.929 . S
C1680 C1679 1.363 . S
C1680 C1686 1.428 . S
H1681 C1677 0.930 . S
H1682 C1679 0.929 . S
S1683 N1684 1.613 . S
S1683 N1685 1.610 . S
N1684 S1683 1.613 . S
N1684 C1687 1.350 . S
N1685 S1683 1.610 . S
N1685 C1686 1.351 . S
C1686 C1680 1.428 . S
C1686 N1685 1.351 . S
C1686 C1687 1.434 . S
C1687 C1678 1.429 . S
C1687 N1684 1.350 . S
C1687 C1686 1.434 . S
C1688 C1689 1.369 . S
C1688 C1690 1.419 . S
C1688 H1692 0.930 . S
C1689 C1688 1.369 . S
C1689 C1698 1.429 . S
C1690 C1688 1.419 . S
C1690 C1691 1.363 . S
C1690 H1693 0.929 . S
C1691 C1690 1.363 . S
C1691 C1697 1.428 . S
H1692 C1688 0.930 . S
H1693 C1690 0.929 . S
S1694 N1695 1.613 . S
S1694 N1696 1.610 . S
N1695 S1694 1.613 . S
N1695 C1698 1.350 . S
N1696 S1694 1.610 . S
N1696 C1697 1.351 . S
C1697 C1691 1.428 . S
C1697 N1696 1.351 . S
C1697 C1698 1.434 . S
C1698 C1689 1.429 . S
C1698 N1695 1.350 . S
C1698 C1697 1.434 . S
C1699 C1700 1.369 . S
C1699 C1701 1.419 . S
C1699 H1703 0.930 . S
C1700 C1699 1.369 . S
C1700 C1709 1.429 . S
C1701 C1699 1.419 . S
C1701 C1702 1.363 . S
C1701 H1704 0.929 . S
C1702 C1701 1.363 . S
C1702 C1708 1.428 . S
H1703 C1699 0.930 . S
H1704 C1701 0.929 . S
S1705 N1706 1.613 . S
S1705 N1707 1.610 . S
N1706 S1705 1.613 . S
N1706 C1709 1.350 . S
N1707 S1705 1.610 . S
N1707 C1708 1.351 . S
C1708 C1702 1.428 . S
C1708 N1707 1.351 . S
C1708 C1709 1.434 . S
C1709 C1700 1.429 . S
C1709 N1706 1.350 . S
C1709 C1708 1.434 . S
C1710 C1711 1.369 . S
C1710 C1712 1.419 . S
C1710 H1714 0.930 . S
C1711 C1710 1.369 . S
C1711 C1720 1.429 . S
C1712 C1710 1.419 . S
C1712 C1713 1.363 . S
C1712 H1715 0.929 . S
C1713 C1712 1.363 . S
C1713 C1719 1.428 . S
H1714 C1710 0.930 . S
H1715 C1712 0.929 . S
S1716 N1717 1.613 . S
S1716 N1718 1.610 . S
N1717 S1716 1.613 . S
N1717 C1720 1.350 . S
N1718 S1716 1.610 . S
N1718 C1719 1.351 . S
C1719 C1713 1.428 . S
C1719 N1718 1.351 . S
C1719 C1720 1.434 . S
C1720 C1711 1.429 . S
C1720 N1717 1.350 . S
C1720 C1719 1.434 . S
C1721 C1722 1.369 . S
C1721 C1723 1.419 . S
C1721 H1725 0.930 . S
C1722 C1721 1.369 . S
C1722 C1731 1.429 . S
C1723 C1721 1.419 . S
C1723 C1724 1.363 . S
C1723 H1726 0.929 . S
C1724 C1723 1.363 . S
C1724 C1730 1.428 . S
H1725 C1721 0.930 . S
H1726 C1723 0.929 . S
S1727 N1728 1.613 . S
S1727 N1729 1.610 . S
N1728 S1727 1.613 . S
N1728 C1731 1.350 . S
N1729 S1727 1.610 . S
N1729 C1730 1.351 . S
C1730 C1724 1.428 . S
C1730 N1729 1.351 . S
C1730 C1731 1.434 . S
C1731 C1722 1.429 . S
C1731 N1728 1.350 . S
C1731 C1730 1.434 . S
C1732 C1733 1.369 . S
C1732 C1734 1.419 . S
C1732 H1736 0.930 . S
C1733 C1732 1.369 . S
C1733 C1742 1.429 . S
C1734 C1732 1.419 . S
C1734 C1735 1.363 . S
C1734 H1737 0.929 . S
C1735 C1734 1.363 . S
C1735 C1741 1.428 . S
H1736 C1732 0.930 . S
H1737 C1734 0.929 . S
S1738 N1739 1.613 . S
S1738 N1740 1.610 . S
N1739 S1738 1.613 . S
N1739 C1742 1.350 . S
N1740 S1738 1.610 . S
N1740 C1741 1.351 . S
C1741 C1735 1.428 . S
C1741 N1740 1.351 . S
C1741 C1742 1.434 . S
C1742 C1733 1.429 . S
C1742 N1739 1.350 . S
C1742 C1741 1.434 . S
C1743 C1744 1.369 . S
C1743 C1745 1.419 . S
C1743 H1747 0.930 . S
C1744 C1743 1.369 . S
C1744 C1753 1.429 . S
C1745 C1743 1.419 . S
C1745 C1746 1.363 . S
C1745 H1748 0.929 . S
C1746 C1745 1.363 . S
C1746 C1752 1.428 . S
H1747 C1743 0.930 . S
H1748 C1745 0.929 . S
S1749 N1750 1.613 . S
S1749 N1751 1.610 . S
N1750 S1749 1.613 . S
N1750 C1753 1.350 . S
N1751 S1749 1.610 . S
N1751 C1752 1.351 . S
C1752 C1746 1.428 . S
C1752 N1751 1.351 . S
C1752 C1753 1.434 . S
C1753 C1744 1.429 . S
C1753 N1750 1.350 . S
C1753 C1752 1.434 . S
C1754 C1755 1.369 . S
C1754 C1756 1.419 . S
C1754 H1758 0.930 . S
C1755 C1754 1.369 . S
C1755 C1764 1.429 . S
C1756 C1754 1.419 . S
C1756 C1757 1.363 . S
C1756 H1759 0.929 . S
C1757 C1756 1.363 . S
C1757 C1763 1.428 . S
H1758 C1754 0.930 . S
H1759 C1756 0.929 . S
S1760 N1761 1.613 . S
S1760 N1762 1.610 . S
N1761 S1760 1.613 . S
N1761 C1764 1.350 . S
N1762 S1760 1.610 . S
N1762 C1763 1.351 . S
C1763 C1757 1.428 . S
C1763 N1762 1.351 . S
C1763 C1764 1.434 . S
C1764 C1755 1.429 . S
C1764 N1761 1.350 . S
C1764 C1763 1.434 . S
C1765 C1766 1.369 . S
C1765 C1767 1.419 . S
C1765 H1769 0.930 . S
C1766 C1765 1.369 . S
C1766 C1775 1.429 . S
C1767 C1765 1.419 . S
C1767 C1768 1.363 . S
C1767 H1770 0.929 . S
C1768 C1767 1.363 . S
C1768 C1774 1.428 . S
H1769 C1765 0.930 . S
H1770 C1767 0.929 . S
S1771 N1772 1.613 . S
S1771 N1773 1.610 . S
N1772 S1771 1.613 . S
N1772 C1775 1.350 . S
N1773 S1771 1.610 . S
N1773 C1774 1.351 . S
C1774 C1768 1.428 . S
C1774 N1773 1.351 . S
C1774 C1775 1.434 . S
C1775 C1766 1.429 . S
C1775 N1772 1.350 . S
C1775 C1774 1.434 . S
C1776 C1777 1.369 . S
C1776 C1778 1.419 . S
C1776 H1780 0.930 . S
C1777 C1776 1.369 . S
C1777 C1786 1.429 . S
C1778 C1776 1.419 . S
C1778 C1779 1.363 . S
C1778 H1781 0.929 . S
C1779 C1778 1.363 . S
C1779 C1785 1.428 . S
H1780 C1776 0.930 . S
H1781 C1778 0.929 . S
S1782 N1783 1.613 . S
S1782 N1784 1.610 . S
N1783 S1782 1.613 . S
N1783 C1786 1.350 . S
N1784 S1782 1.610 . S
N1784 C1785 1.351 . S
C1785 C1779 1.428 . S
C1785 N1784 1.351 . S
C1785 C1786 1.434 . S
C1786 C1777 1.429 . S
C1786 N1783 1.350 . S
C1786 C1785 1.434 . S
C1787 C1788 1.369 . S
C1787 C1789 1.419 . S
C1787 H1791 0.930 . S
C1788 C1787 1.369 . S
C1788 C1797 1.429 . S
C1789 C1787 1.419 . S
C1789 C1790 1.363 . S
C1789 H1792 0.929 . S
C1790 C1789 1.363 . S
C1790 C1796 1.428 . S
H1791 C1787 0.930 . S
H1792 C1789 0.929 . S
S1793 N1794 1.613 . S
S1793 N1795 1.610 . S
N1794 S1793 1.613 . S
N1794 C1797 1.350 . S
N1795 S1793 1.610 . S
N1795 C1796 1.351 . S
C1796 C1790 1.428 . S
C1796 N1795 1.351 . S
C1796 C1797 1.434 . S
C1797 C1788 1.429 . S
C1797 N1794 1.350 . S
C1797 C1796 1.434 . S
C1798 C1799 1.369 . S
C1798 C1800 1.419 . S
C1798 H1802 0.930 . S
C1799 C1798 1.369 . S
C1799 C1808 1.429 . S
C1800 C1798 1.419 . S
C1800 C1801 1.363 . S
C1800 H1803 0.929 . S
C1801 C1800 1.363 . S
C1801 C1807 1.428 . S
H1802 C1798 0.930 . S
H1803 C1800 0.929 . S
S1804 N1805 1.613 . S
S1804 N1806 1.610 . S
N1805 S1804 1.613 . S
N1805 C1808 1.350 . S
N1806 S1804 1.610 . S
N1806 C1807 1.351 . S
C1807 C1801 1.428 . S
C1807 N1806 1.351 . S
C1807 C1808 1.434 . S
C1808 C1799 1.429 . S
C1808 N1805 1.350 . S
C1808 C1807 1.434 . S
C1809 C1810 1.369 . S
C1809 C1811 1.419 . S
C1809 H1813 0.930 . S
C1810 C1809 1.369 . S
C1810 C1819 1.429 . S
C1811 C1809 1.419 . S
C1811 C1812 1.363 . S
C1811 H1814 0.929 . S
C1812 C1811 1.363 . S
C1812 C1818 1.428 . S
H1813 C1809 0.930 . S
H1814 C1811 0.929 . S
S1815 N1816 1.613 . S
S1815 N1817 1.610 . S
N1816 S1815 1.613 . S
N1816 C1819 1.350 . S
N1817 S1815 1.610 . S
N1817 C1818 1.351 . S
C1818 C1812 1.428 . S
C1818 N1817 1.351 . S
C1818 C1819 1.434 . S
C1819 C1810 1.429 . S
C1819 N1816 1.350 . S
C1819 C1818 1.434 . S
C1820 C1821 1.369 . S
C1820 C1822 1.419 . S
C1820 H1824 0.930 . S
C1821 C1820 1.369 . S
C1821 C1830 1.429 . S
C1822 C1820 1.419 . S
C1822 C1823 1.363 . S
C1822 H1825 0.929 . S
C1823 C1822 1.363 . S
C1823 C1829 1.428 . S
H1824 C1820 0.930 . S
H1825 C1822 0.929 . S
S1826 N1827 1.613 . S
S1826 N1828 1.610 . S
N1827 S1826 1.613 . S
N1827 C1830 1.350 . S
N1828 S1826 1.610 . S
N1828 C1829 1.351 . S
C1829 C1823 1.428 . S
C1829 N1828 1.351 . S
C1829 C1830 1.434 . S
C1830 C1821 1.429 . S
C1830 N1827 1.350 . S
C1830 C1829 1.434 . S
C1831 C1832 1.369 . S
C1831 C1833 1.419 . S
C1831 H1835 0.930 . S
C1832 C1831 1.369 . S
C1832 C1841 1.429 . S
C1833 C1831 1.419 . S
C1833 C1834 1.363 . S
C1833 H1836 0.929 . S
C1834 C1833 1.363 . S
C1834 C1840 1.428 . S
H1835 C1831 0.930 . S
H1836 C1833 0.929 . S
S1837 N1838 1.613 . S
S1837 N1839 1.610 . S
N1838 S1837 1.613 . S
N1838 C1841 1.350 . S
N1839 S1837 1.610 . S
N1839 C1840 1.351 . S
C1840 C1834 1.428 . S
C1840 N1839 1.351 . S
C1840 C1841 1.434 . S
C1841 C1832 1.429 . S
C1841 N1838 1.350 . S
C1841 C1840 1.434 . S
C1842 C1843 1.369 . S
C1842 C1844 1.419 . S
C1842 H1846 0.930 . S
C1843 C1842 1.369 . S
C1843 C1852 1.429 . S
C1844 C1842 1.419 . S
C1844 C1845 1.363 . S
C1844 H1847 0.929 . S
C1845 C1844 1.363 . S
C1845 C1851 1.428 . S
H1846 C1842 0.930 . S
H1847 C1844 0.929 . S
S1848 N1849 1.613 . S
S1848 N1850 1.610 . S
N1849 S1848 1.613 . S
N1849 C1852 1.350 . S
N1850 S1848 1.610 . S
N1850 C1851 1.351 . S
C1851 C1845 1.428 . S
C1851 N1850 1.351 . S
C1851 C1852 1.434 . S
C1852 C1843 1.429 . S
C1852 N1849 1.350 . S
C1852 C1851 1.434 . S
C1853 C1854 1.369 . S
C1853 C1855 1.419 . S
C1853 H1857 0.930 . S
C1854 C1853 1.369 . S
C1854 C1863 1.429 . S
C1855 C1853 1.419 . S
C1855 C1856 1.363 . S
C1855 H1858 0.929 . S
C1856 C1855 1.363 . S
C1856 C1862 1.428 . S
H1857 C1853 0.930 . S
H1858 C1855 0.929 . S
S1859 N1860 1.613 . S
S1859 N1861 1.610 . S
N1860 S1859 1.613 . S
N1860 C1863 1.350 . S
N1861 S1859 1.610 . S
N1861 C1862 1.351 . S
C1862 C1856 1.428 . S
C1862 N1861 1.351 . S
C1862 C1863 1.434 . S
C1863 C1854 1.429 . S
C1863 N1860 1.350 . S
C1863 C1862 1.434 . S
C1864 C1865 1.369 . S
C1864 C1866 1.419 . S
C1864 H1868 0.930 . S
C1865 C1864 1.369 . S
C1865 C1874 1.429 . S
C1866 C1864 1.419 . S
C1866 C1867 1.363 . S
C1866 H1869 0.929 . S
C1867 C1866 1.363 . S
C1867 C1873 1.428 . S
H1868 C1864 0.930 . S
H1869 C1866 0.929 . S
S1870 N1871 1.613 . S
S1870 N1872 1.610 . S
N1871 S1870 1.613 . S
N1871 C1874 1.350 . S
N1872 S1870 1.610 . S
N1872 C1873 1.351 . S
C1873 C1867 1.428 . S
C1873 N1872 1.351 . S
C1873 C1874 1.434 . S
C1874 C1865 1.429 . S
C1874 N1871 1.350 . S
C1874 C1873 1.434 . S
C1875 C1876 1.369 . S
C1875 C1877 1.419 . S
C1875 H1879 0.930 . S
C1876 C1875 1.369 . S
C1876 C1885 1.429 . S
C1877 C1875 1.419 . S
C1877 C1878 1.363 . S
C1877 H1880 0.929 . S
C1878 C1877 1.363 . S
C1878 C1884 1.428 . S
H1879 C1875 0.930 . S
H1880 C1877 0.929 . S
S1881 N1882 1.613 . S
S1881 N1883 1.610 . S
N1882 S1881 1.613 . S
N1882 C1885 1.350 . S
N1883 S1881 1.610 . S
N1883 C1884 1.351 . S
C1884 C1878 1.428 . S
C1884 N1883 1.351 . S
C1884 C1885 1.434 . S
C1885 C1876 1.429 . S
C1885 N1882 1.350 . S
C1885 C1884 1.434 . S
C1886 C1887 1.369 . S
C1886 C1888 1.419 . S
C1886 H1890 0.930 . S
C1887 C1886 1.369 . S
C1887 C1896 1.429 . S
C1888 C1886 1.419 . S
C1888 C1889 1.363 . S
C1888 H1891 0.929 . S
C1889 C1888 1.363 . S
C1889 C1895 1.428 . S
H1890 C1886 0.930 . S
H1891 C1888 0.929 . S
S1892 N1893 1.613 . S
S1892 N1894 1.610 . S
N1893 S1892 1.613 . S
N1893 C1896 1.350 . S
N1894 S1892 1.610 . S
N1894 C1895 1.351 . S
C1895 C1889 1.428 . S
C1895 N1894 1.351 . S
C1895 C1896 1.434 . S
C1896 C1887 1.429 . S
C1896 N1893 1.350 . S
C1896 C1895 1.434 . S
C1897 C1898 1.369 . S
C1897 C1899 1.419 . S
C1897 H1901 0.930 . S
C1898 C1897 1.369 . S
C1898 C1907 1.429 . S
C1899 C1897 1.419 . S
C1899 C1900 1.363 . S
C1899 H1902 0.929 . S
C1900 C1899 1.363 . S
C1900 C1906 1.428 . S
H1901 C1897 0.930 . S
H1902 C1899 0.929 . S
S1903 N1904 1.613 . S
S1903 N1905 1.610 . S
N1904 S1903 1.613 . S
N1904 C1907 1.350 . S
N1905 S1903 1.610 . S
N1905 C1906 1.351 . S
C1906 C1900 1.428 . S
C1906 N1905 1.351 . S
C1906 C1907 1.434 . S
C1907 C1898 1.429 . S
C1907 N1904 1.350 . S
C1907 C1906 1.434 . S
C1908 C1909 1.369 . S
C1908 C1910 1.419 . S
C1908 H1912 0.930 . S
C1909 C1908 1.369 . S
C1909 C1918 1.429 . S
C1910 C1908 1.419 . S
C1910 C1911 1.363 . S
C1910 H1913 0.929 . S
C1911 C1910 1.363 . S
C1911 C1917 1.428 . S
H1912 C1908 0.930 . S
H1913 C1910 0.929 . S
S1914 N1915 1.613 . S
S1914 N1916 1.610 . S
N1915 S1914 1.613 . S
N1915 C1918 1.350 . S
N1916 S1914 1.610 . S
N1916 C1917 1.351 . S
C1917 C1911 1.428 . S
C1917 N1916 1.351 . S
C1917 C1918 1.434 . S
C1918 C1909 1.429 . S
C1918 N1915 1.350 . S
C1918 C1917 1.434 . S
C1919 C1920 1.369 . S
C1919 C1921 1.419 . S
C1919 H1923 0.930 . S
C1920 C1919 1.369 . S
C1920 C1929 1.429 . S
C1921 C1919 1.419 . S
C1921 C1922 1.363 . S
C1921 H1924 0.929 . S
C1922 C1921 1.363 . S
C1922 C1928 1.428 . S
H1923 C1919 0.930 . S
H1924 C1921 0.929 . S
S1925 N1926 1.613 . S
S1925 N1927 1.610 . S
N1926 S1925 1.613 . S
N1926 C1929 1.350 . S
N1927 S1925 1.610 . S
N1927 C1928 1.351 . S
C1928 C1922 1.428 . S
C1928 N1927 1.351 . S
C1928 C1929 1.434 . S
C1929 C1920 1.429 . S
C1929 N1926 1.350 . S
C1929 C1928 1.434 . S
C1930 C1931 1.369 . S
C1930 C1932 1.419 . S
C1930 H1934 0.930 . S
C1931 C1930 1.369 . S
C1931 C1940 1.429 . S
C1932 C1930 1.419 . S
C1932 C1933 1.363 . S
C1932 H1935 0.929 . S
C1933 C1932 1.363 . S
C1933 C1939 1.428 . S
H1934 C1930 0.930 . S
H1935 C1932 0.929 . S
S1936 N1937 1.613 . S
S1936 N1938 1.610 . S
N1937 S1936 1.613 . S
N1937 C1940 1.350 . S
N1938 S1936 1.610 . S
N1938 C1939 1.351 . S
C1939 C1933 1.428 . S
C1939 N1938 1.351 . S
C1939 C1940 1.434 . S
C1940 C1931 1.429 . S
C1940 N1937 1.350 . S
C1940 C1939 1.434 . S
C1941 C1942 1.369 . S
C1941 C1943 1.419 . S
C1941 H1945 0.930 . S
C1942 C1941 1.369 . S
C1942 C1951 1.429 . S
C1943 C1941 1.419 . S
C1943 C1944 1.363 . S
C1943 H1946 0.929 . S
C1944 C1943 1.363 . S
C1944 C1950 1.428 . S
H1945 C1941 0.930 . S
H1946 C1943 0.929 . S
S1947 N1948 1.613 . S
S1947 N1949 1.610 . S
N1948 S1947 1.613 . S
N1948 C1951 1.350 . S
N1949 S1947 1.610 . S
N1949 C1950 1.351 . S
C1950 C1944 1.428 . S
C1950 N1949 1.351 . S
C1950 C1951 1.434 . S
C1951 C1942 1.429 . S
C1951 N1948 1.350 . S
C1951 C1950 1.434 . S
C1952 C1953 1.369 . S
C1952 C1954 1.419 . S
C1952 H1956 0.930 . S
C1953 C1952 1.369 . S
C1953 C1962 1.429 . S
C1954 C1952 1.419 . S
C1954 C1955 1.363 . S
C1954 H1957 0.929 . S
C1955 C1954 1.363 . S
C1955 C1961 1.428 . S
H1956 C1952 0.930 . S
H1957 C1954 0.929 . S
S1958 N1959 1.613 . S
S1958 N1960 1.610 . S
N1959 S1958 1.613 . S
N1959 C1962 1.350 . S
N1960 S1958 1.610 . S
N1960 C1961 1.351 . S
C1961 C1955 1.428 . S
C1961 N1960 1.351 . S
C1961 C1962 1.434 . S
C1962 C1953 1.429 . S
C1962 N1959 1.350 . S
C1962 C1961 1.434 . S
C1963 C1964 1.369 . S
C1963 C1965 1.419 . S
C1963 H1967 0.930 . S
C1964 C1963 1.369 . S
C1964 C1973 1.429 . S
C1965 C1963 1.419 . S
C1965 C1966 1.363 . S
C1965 H1968 0.929 . S
C1966 C1965 1.363 . S
C1966 C1972 1.428 . S
H1967 C1963 0.930 . S
H1968 C1965 0.929 . S
S1969 N1970 1.613 . S
S1969 N1971 1.610 . S
N1970 S1969 1.613 . S
N1970 C1973 1.350 . S
N1971 S1969 1.610 . S
N1971 C1972 1.351 . S
C1972 C1966 1.428 . S
C1972 N1971 1.351 . S
C1972 C1973 1.434 . S
C1973 C1964 1.429 . S
C1973 N1970 1.350 . S
C1973 C1972 1.434 . S
C1974 C1975 1.369 . S
C1974 C1976 1.419 . S
C1974 H1978 0.930 . S
C1975 C1974 1.369 . S
C1975 C1984 1.429 . S
C1976 C1974 1.419 . S
C1976 C1977 1.363 . S
C1976 H1979 0.929 . S
C1977 C1976 1.363 . S
C1977 C1983 1.428 . S
H1978 C1974 0.930 . S
H1979 C1976 0.929 . S
S1980 N1981 1.613 . S
S1980 N1982 1.610 . S
N1981 S1980 1.613 . S
N1981 C1984 1.350 . S
N1982 S1980 1.610 . S
N1982 C1983 1.351 . S
C1983 C1977 1.428 . S
C1983 N1982 1.351 . S
C1983 C1984 1.434 . S
C1984 C1975 1.429 . S
C1984 N1981 1.350 . S
C1984 C1983 1.434 . S
C1985 C1986 1.369 . S
C1985 C1987 1.419 . S
C1985 H1989 0.930 . S
C1986 C1985 1.369 . S
C1986 C1995 1.429 . S
C1987 C1985 1.419 . S
C1987 C1988 1.363 . S
C1987 H1990 0.929 . S
C1988 C1987 1.363 . S
C1988 C1994 1.428 . S
H1989 C1985 0.930 . S
H1990 C1987 0.929 . S
S1991 N1992 1.613 . S
S1991 N1993 1.610 . S
N1992 S1991 1.613 . S
N1992 C1995 1.350 . S
N1993 S1991 1.610 . S
N1993 C1994 1.351 . S
C1994 C1988 1.428 . S
C1994 N1993 1.351 . S
C1994 C1995 1.434 . S
C1995 C1986 1.429 . S
C1995 N1992 1.350 . S
C1995 C1994 1.434 . S
C1996 C1997 1.369 . S
C1996 C1998 1.419 . S
C1996 H2000 0.930 . S
C1997 C1996 1.369 . S
C1997 C2006 1.429 . S
C1998 C1996 1.419 . S
C1998 C1999 1.363 . S
C1998 H2001 0.929 . S
C1999 C1998 1.363 . S
C1999 C2005 1.428 . S
H2000 C1996 0.930 . S
H2001 C1998 0.929 . S
S2002 N2003 1.613 . S
S2002 N2004 1.610 . S
N2003 S2002 1.613 . S
N2003 C2006 1.350 . S
N2004 S2002 1.610 . S
N2004 C2005 1.351 . S
C2005 C1999 1.428 . S
C2005 N2004 1.351 . S
C2005 C2006 1.434 . S
C2006 C1997 1.429 . S
C2006 N2003 1.350 . S
C2006 C2005 1.434 . S
C2007 C2008 1.369 . S
C2007 C2009 1.419 . S
C2007 H2011 0.930 . S
C2008 C2007 1.369 . S
C2008 C2017 1.429 . S
C2009 C2007 1.419 . S
C2009 C2010 1.363 . S
C2009 H2012 0.929 . S
C2010 C2009 1.363 . S
C2010 C2016 1.428 . S
H2011 C2007 0.930 . S
H2012 C2009 0.929 . S
S2013 N2014 1.613 . S
S2013 N2015 1.610 . S
N2014 S2013 1.613 . S
N2014 C2017 1.350 . S
N2015 S2013 1.610 . S
N2015 C2016 1.351 . S
C2016 C2010 1.428 . S
C2016 N2015 1.351 . S
C2016 C2017 1.434 . S
C2017 C2008 1.429 . S
C2017 N2014 1.350 . S
C2017 C2016 1.434 . S
C2018 C2019 1.369 . S
C2018 C2020 1.419 . S
C2018 H2022 0.930 . S
C2019 C2018 1.369 . S
C2019 C2028 1.429 . S
C2020 C2018 1.419 . S
C2020 C2021 1.363 . S
C2020 H2023 0.929 . S
C2021 C2020 1.363 . S
C2021 C2027 1.428 . S
H2022 C2018 0.930 . S
H2023 C2020 0.929 . S
S2024 N2025 1.613 . S
S2024 N2026 1.610 . S
N2025 S2024 1.613 . S
N2025 C2028 1.350 . S
N2026 S2024 1.610 . S
N2026 C2027 1.351 . S
C2027 C2021 1.428 . S
C2027 N2026 1.351 . S
C2027 C2028 1.434 . S
C2028 C2019 1.429 . S
C2028 N2025 1.350 . S
C2028 C2027 1.434 . S
C2029 C2030 1.369 . S
C2029 C2031 1.419 . S
C2029 H2033 0.930 . S
C2030 C2029 1.369 . S
C2030 C2039 1.429 . S
C2031 C2029 1.419 . S
C2031 C2032 1.363 . S
C2031 H2034 0.929 . S
C2032 C2031 1.363 . S
C2032 C2038 1.428 . S
H2033 C2029 0.930 . S
H2034 C2031 0.929 . S
S2035 N2036 1.613 . S
S2035 N2037 1.610 . S
N2036 S2035 1.613 . S
N2036 C2039 1.350 . S
N2037 S2035 1.610 . S
N2037 C2038 1.351 . S
C2038 C2032 1.428 . S
C2038 N2037 1.351 . S
C2038 C2039 1.434 . S
C2039 C2030 1.429 . S
C2039 N2036 1.350 . S
C2039 C2038 1.434 . S
C2040 C2041 1.369 . S
C2040 C2042 1.419 . S
C2040 H2044 0.930 . S
C2041 C2040 1.369 . S
C2041 C2050 1.429 . S
C2042 C2040 1.419 . S
C2042 C2043 1.363 . S
C2042 H2045 0.929 . S
C2043 C2042 1.363 . S
C2043 C2049 1.428 . S
H2044 C2040 0.930 . S
H2045 C2042 0.929 . S
S2046 N2047 1.613 . S
S2046 N2048 1.610 . S
N2047 S2046 1.613 . S
N2047 C2050 1.350 . S
N2048 S2046 1.610 . S
N2048 C2049 1.351 . S
C2049 C2043 1.428 . S
C2049 N2048 1.351 . S
C2049 C2050 1.434 . S
C2050 C2041 1.429 . S
C2050 N2047 1.350 . S
C2050 C2049 1.434 . S
C2051 C2052 1.369 . S
C2051 C2053 1.419 . S
C2051 H2055 0.930 . S
C2052 C2051 1.369 . S
C2052 C2061 1.429 . S
C2053 C2051 1.419 . S
C2053 C2054 1.363 . S
C2053 H2056 0.929 . S
C2054 C2053 1.363 . S
C2054 C2060 1.428 . S
H2055 C2051 0.930 . S
H2056 C2053 0.929 . S
S2057 N2058 1.613 . S
S2057 N2059 1.610 . S
N2058 S2057 1.613 . S
N2058 C2061 1.350 . S
N2059 S2057 1.610 . S
N2059 C2060 1.351 . S
C2060 C2054 1.428 . S
C2060 N2059 1.351 . S
C2060 C2061 1.434 . S
C2061 C2052 1.429 . S
C2061 N2058 1.350 . S
C2061 C2060 1.434 . S
C2062 C2063 1.369 . S
C2062 C2064 1.419 . S
C2062 H2066 0.930 . S
C2063 C2062 1.369 . S
C2063 C2072 1.429 . S
C2064 C2062 1.419 . S
C2064 C2065 1.363 . S
C2064 H2067 0.929 . S
C2065 C2064 1.363 . S
C2065 C2071 1.428 . S
H2066 C2062 0.930 . S
H2067 C2064 0.929 . S
S2068 N2069 1.613 . S
S2068 N2070 1.610 . S
N2069 S2068 1.613 . S
N2069 C2072 1.350 . S
N2070 S2068 1.610 . S
N2070 C2071 1.351 . S
C2071 C2065 1.428 . S
C2071 N2070 1.351 . S
C2071 C2072 1.434 . S
C2072 C2063 1.429 . S
C2072 N2069 1.350 . S
C2072 C2071 1.434 . S
C2073 C2074 1.369 . S
C2073 C2075 1.419 . S
C2073 H2077 0.930 . S
C2074 C2073 1.369 . S
C2074 C2083 1.429 . S
C2075 C2073 1.419 . S
C2075 C2076 1.363 . S
C2075 H2078 0.929 . S
C2076 C2075 1.363 . S
C2076 C2082 1.428 . S
H2077 C2073 0.930 . S
H2078 C2075 0.929 . S
S2079 N2080 1.613 . S
S2079 N2081 1.610 . S
N2080 S2079 1.613 . S
N2080 C2083 1.350 . S
N2081 S2079 1.610 . S
N2081 C2082 1.351 . S
C2082 C2076 1.428 . S
C2082 N2081 1.351 . S
C2082 C2083 1.434 . S
C2083 C2074 1.429 . S
C2083 N2080 1.350 . S
C2083 C2082 1.434 . S
C2084 C2085 1.369 . S
C2084 C2086 1.419 . S
C2084 H2088 0.930 . S
C2085 C2084 1.369 . S
C2085 C2094 1.429 . S
C2086 C2084 1.419 . S
C2086 C2087 1.363 . S
C2086 H2089 0.929 . S
C2087 C2086 1.363 . S
C2087 C2093 1.428 . S
H2088 C2084 0.930 . S
H2089 C2086 0.929 . S
S2090 N2091 1.613 . S
S2090 N2092 1.610 . S
N2091 S2090 1.613 . S
N2091 C2094 1.350 . S
N2092 S2090 1.610 . S
N2092 C2093 1.351 . S
C2093 C2087 1.428 . S
C2093 N2092 1.351 . S
C2093 C2094 1.434 . S
C2094 C2085 1.429 . S
C2094 N2091 1.350 . S
C2094 C2093 1.434 . S
C2095 C2096 1.369 . S
C2095 C2097 1.419 . S
C2095 H2099 0.930 . S
C2096 C2095 1.369 . S
C2096 C2105 1.429 . S
C2097 C2095 1.419 . S
C2097 C2098 1.363 . S
C2097 H2100 0.929 . S
C2098 C2097 1.363 . S
C2098 C2104 1.428 . S
H2099 C2095 0.930 . S
H2100 C2097 0.929 . S
S2101 N2102 1.613 . S
S2101 N2103 1.610 . S
N2102 S2101 1.613 . S
N2102 C2105 1.350 . S
N2103 S2101 1.610 . S
N2103 C2104 1.351 . S
C2104 C2098 1.428 . S
C2104 N2103 1.351 . S
C2104 C2105 1.434 . S
C2105 C2096 1.429 . S
C2105 N2102 1.350 . S
C2105 C2104 1.434 . S
C2106 C2107 1.369 . S
C2106 C2108 1.419 . S
C2106 H2110 0.930 . S
C2107 C2106 1.369 . S
C2107 C2116 1.429 . S
C2108 C2106 1.419 . S
C2108 C2109 1.363 . S
C2108 H2111 0.929 . S
C2109 C2108 1.363 . S
C2109 C2115 1.428 . S
H2110 C2106 0.930 . S
H2111 C2108 0.929 . S
S2112 N2113 1.613 . S
S2112 N2114 1.610 . S
N2113 S2112 1.613 . S
N2113 C2116 1.350 . S
N2114 S2112 1.610 . S
N2114 C2115 1.351 . S
C2115 C2109 1.428 . S
C2115 N2114 1.351 . S
C2115 C2116 1.434 . S
C2116 C2107 1.429 . S
C2116 N2113 1.350 . S
C2116 C2115 1.434 . S
C2117 C2118 1.369 . S
C2117 C2119 1.419 . S
C2117 H2121 0.930 . S
C2118 C2117 1.369 . S
C2118 C2127 1.429 . S
C2119 C2117 1.419 . S
C2119 C2120 1.363 . S
C2119 H2122 0.929 . S
C2120 C2119 1.363 . S
C2120 C2126 1.428 . S
H2121 C2117 0.930 . S
H2122 C2119 0.929 . S
S2123 N2124 1.613 . S
S2123 N2125 1.610 . S
N2124 S2123 1.613 . S
N2124 C2127 1.350 . S
N2125 S2123 1.610 . S
N2125 C2126 1.351 . S
C2126 C2120 1.428 . S
C2126 N2125 1.351 . S
C2126 C2127 1.434 . S
C2127 C2118 1.429 . S
C2127 N2124 1.350 . S
C2127 C2126 1.434 . S
C2128 C2129 1.369 . S
C2128 C2130 1.419 . S
C2128 H2132 0.930 . S
C2129 C2128 1.369 . S
C2129 C2138 1.429 . S
C2130 C2128 1.419 . S
C2130 C2131 1.363 . S
C2130 H2133 0.929 . S
C2131 C2130 1.363 . S
C2131 C2137 1.428 . S
H2132 C2128 0.930 . S
H2133 C2130 0.929 . S
S2134 N2135 1.613 . S
S2134 N2136 1.610 . S
N2135 S2134 1.613 . S
N2135 C2138 1.350 . S
N2136 S2134 1.610 . S
N2136 C2137 1.351 . S
C2137 C2131 1.428 . S
C2137 N2136 1.351 . S
C2137 C2138 1.434 . S
C2138 C2129 1.429 . S
C2138 N2135 1.350 . S
C2138 C2137 1.434 . S
C2139 C2140 1.369 . S
C2139 C2141 1.419 . S
C2139 H2143 0.930 . S
C2140 C2139 1.369 . S
C2140 C2149 1.429 . S
C2141 C2139 1.419 . S
C2141 C2142 1.363 . S
C2141 H2144 0.929 . S
C2142 C2141 1.363 . S
C2142 C2148 1.428 . S
H2143 C2139 0.930 . S
H2144 C2141 0.929 . S
S2145 N2146 1.613 . S
S2145 N2147 1.610 . S
N2146 S2145 1.613 . S
N2146 C2149 1.350 . S
N2147 S2145 1.610 . S
N2147 C2148 1.351 . S
C2148 C2142 1.428 . S
C2148 N2147 1.351 . S
C2148 C2149 1.434 . S
C2149 C2140 1.429 . S
C2149 N2146 1.350 . S
C2149 C2148 1.434 . S
C2150 C2151 1.369 . S
C2150 C2152 1.419 . S
C2150 H2154 0.930 . S
C2151 C2150 1.369 . S
C2151 C2160 1.429 . S
C2152 C2150 1.419 . S
C2152 C2153 1.363 . S
C2152 H2155 0.929 . S
C2153 C2152 1.363 . S
C2153 C2159 1.428 . S
H2154 C2150 0.930 . S
H2155 C2152 0.929 . S
S2156 N2157 1.613 . S
S2156 N2158 1.610 . S
N2157 S2156 1.613 . S
N2157 C2160 1.350 . S
N2158 S2156 1.610 . S
N2158 C2159 1.351 . S
C2159 C2153 1.428 . S
C2159 N2158 1.351 . S
C2159 C2160 1.434 . S
C2160 C2151 1.429 . S
C2160 N2157 1.350 . S
C2160 C2159 1.434 . S
C2161 C2162 1.369 . S
C2161 C2163 1.419 . S
C2161 H2165 0.930 . S
C2162 C2161 1.369 . S
C2162 C2171 1.429 . S
C2163 C2161 1.419 . S
C2163 C2164 1.363 . S
C2163 H2166 0.929 . S
C2164 C2163 1.363 . S
C2164 C2170 1.428 . S
H2165 C2161 0.930 . S
H2166 C2163 0.929 . S
S2167 N2168 1.613 . S
S2167 N2169 1.610 . S
N2168 S2167 1.613 . S
N2168 C2171 1.350 . S
N2169 S2167 1.610 . S
N2169 C2170 1.351 . S
C2170 C2164 1.428 . S
C2170 N2169 1.351 . S
C2170 C2171 1.434 . S
C2171 C2162 1.429 . S
C2171 N2168 1.350 . S
C2171 C2170 1.434 . S
C2172 C2173 1.369 . S
C2172 C2174 1.419 . S
C2172 H2176 0.930 . S
C2173 C2172 1.369 . S
C2173 C2182 1.429 . S
C2174 C2172 1.419 . S
C2174 C2175 1.363 . S
C2174 H2177 0.929 . S
C2175 C2174 1.363 . S
C2175 C2181 1.428 . S
H2176 C2172 0.930 . S
H2177 C2174 0.929 . S
S2178 N2179 1.613 . S
S2178 N2180 1.610 . S
N2179 S2178 1.613 . S
N2179 C2182 1.350 . S
N2180 S2178 1.610 . S
N2180 C2181 1.351 . S
C2181 C2175 1.428 . S
C2181 N2180 1.351 . S
C2181 C2182 1.434 . S
C2182 C2173 1.429 . S
C2182 N2179 1.350 . S
C2182 C2181 1.434 . S
C2183 C2184 1.369 . S
C2183 C2185 1.419 . S
C2183 H2187 0.930 . S
C2184 C2183 1.369 . S
C2184 C2193 1.429 . S
C2185 C2183 1.419 . S
C2185 C2186 1.363 . S
C2185 H2188 0.929 . S
C2186 C2185 1.363 . S
C2186 C2192 1.428 . S
H2187 C2183 0.930 . S
H2188 C2185 0.929 . S
S2189 N2190 1.613 . S
S2189 N2191 1.610 . S
N2190 S2189 1.613 . S
N2190 C2193 1.350 . S
N2191 S2189 1.610 . S
N2191 C2192 1.351 . S
C2192 C2186 1.428 . S
C2192 N2191 1.351 . S
C2192 C2193 1.434 . S
C2193 C2184 1.429 . S
C2193 N2190 1.350 . S
C2193 C2192 1.434 . S
C2194 C2195 1.369 . S
C2194 C2196 1.419 . S
C2194 H2198 0.930 . S
C2195 C2194 1.369 . S
C2195 C2204 1.429 . S
C2196 C2194 1.419 . S
C2196 C2197 1.363 . S
C2196 H2199 0.929 . S
C2197 C2196 1.363 . S
C2197 C2203 1.428 . S
H2198 C2194 0.930 . S
H2199 C2196 0.929 . S
S2200 N2201 1.613 . S
S2200 N2202 1.610 . S
N2201 S2200 1.613 . S
N2201 C2204 1.350 . S
N2202 S2200 1.610 . S
N2202 C2203 1.351 . S
C2203 C2197 1.428 . S
C2203 N2202 1.351 . S
C2203 C2204 1.434 . S
C2204 C2195 1.429 . S
C2204 N2201 1.350 . S
C2204 C2203 1.434 . S
C2205 C2206 1.369 . S
C2205 C2207 1.419 . S
C2205 H2209 0.930 . S
C2206 C2205 1.369 . S
C2206 C2215 1.429 . S
C2207 C2205 1.419 . S
C2207 C2208 1.363 . S
C2207 H2210 0.929 . S
C2208 C2207 1.363 . S
C2208 C2214 1.428 . S
H2209 C2205 0.930 . S
H2210 C2207 0.929 . S
S2211 N2212 1.613 . S
S2211 N2213 1.610 . S
N2212 S2211 1.613 . S
N2212 C2215 1.350 . S
N2213 S2211 1.610 . S
N2213 C2214 1.351 . S
C2214 C2208 1.428 . S
C2214 N2213 1.351 . S
C2214 C2215 1.434 . S
C2215 C2206 1.429 . S
C2215 N2212 1.350 . S
C2215 C2214 1.434 . S
C2216 C2217 1.369 . S
C2216 C2218 1.419 . S
C2216 H2220 0.930 . S
C2217 C2216 1.369 . S
C2217 C2226 1.429 . S
C2218 C2216 1.419 . S
C2218 C2219 1.363 . S
C2218 H2221 0.929 . S
C2219 C2218 1.363 . S
C2219 C2225 1.428 . S
H2220 C2216 0.930 . S
H2221 C2218 0.929 . S
S2222 N2223 1.613 . S
S2222 N2224 1.610 . S
N2223 S2222 1.613 . S
N2223 C2226 1.350 . S
N2224 S2222 1.610 . S
N2224 C2225 1.351 . S
C2225 C2219 1.428 . S
C2225 N2224 1.351 . S
C2225 C2226 1.434 . S
C2226 C2217 1.429 . S
C2226 N2223 1.350 . S
C2226 C2225 1.434 . S
C2227 C2228 1.369 . S
C2227 C2229 1.419 . S
C2227 H2231 0.930 . S
C2228 C2227 1.369 . S
C2228 C2237 1.429 . S
C2229 C2227 1.419 . S
C2229 C2230 1.363 . S
C2229 H2232 0.929 . S
C2230 C2229 1.363 . S
C2230 C2236 1.428 . S
H2231 C2227 0.930 . S
H2232 C2229 0.929 . S
S2233 N2234 1.613 . S
S2233 N2235 1.610 . S
N2234 S2233 1.613 . S
N2234 C2237 1.350 . S
N2235 S2233 1.610 . S
N2235 C2236 1.351 . S
C2236 C2230 1.428 . S
C2236 N2235 1.351 . S
C2236 C2237 1.434 . S
C2237 C2228 1.429 . S
C2237 N2234 1.350 . S
C2237 C2236 1.434 . S
C2238 C2239 1.369 . S
C2238 C2240 1.419 . S
C2238 H2242 0.930 . S
C2239 C2238 1.369 . S
C2239 C2248 1.429 . S
C2240 C2238 1.419 . S
C2240 C2241 1.363 . S
C2240 H2243 0.929 . S
C2241 C2240 1.363 . S
C2241 C2247 1.428 . S
H2242 C2238 0.930 . S
H2243 C2240 0.929 . S
S2244 N2245 1.613 . S
S2244 N2246 1.610 . S
N2245 S2244 1.613 . S
N2245 C2248 1.350 . S
N2246 S2244 1.610 . S
N2246 C2247 1.351 . S
C2247 C2241 1.428 . S
C2247 N2246 1.351 . S
C2247 C2248 1.434 . S
C2248 C2239 1.429 . S
C2248 N2245 1.350 . S
C2248 C2247 1.434 . S
C2249 C2250 1.369 . S
C2249 C2251 1.419 . S
C2249 H2253 0.930 . S
C2250 C2249 1.369 . S
C2250 C2259 1.429 . S
C2251 C2249 1.419 . S
C2251 C2252 1.363 . S
C2251 H2254 0.929 . S
C2252 C2251 1.363 . S
C2252 C2258 1.428 . S
H2253 C2249 0.930 . S
H2254 C2251 0.929 . S
S2255 N2256 1.613 . S
S2255 N2257 1.610 . S
N2256 S2255 1.613 . S
N2256 C2259 1.350 . S
N2257 S2255 1.610 . S
N2257 C2258 1.351 . S
C2258 C2252 1.428 . S
C2258 N2257 1.351 . S
C2258 C2259 1.434 . S
C2259 C2250 1.429 . S
C2259 N2256 1.350 . S
C2259 C2258 1.434 . S
C2260 C2261 1.369 . S
C2260 C2262 1.419 . S
C2260 H2264 0.930 . S
C2261 C2260 1.369 . S
C2261 C2270 1.429 . S
C2262 C2260 1.419 . S
C2262 C2263 1.363 . S
C2262 H2265 0.929 . S
C2263 C2262 1.363 . S
C2263 C2269 1.428 . S
H2264 C2260 0.930 . S
H2265 C2262 0.929 . S
S2266 N2267 1.613 . S
S2266 N2268 1.610 . S
N2267 S2266 1.613 . S
N2267 C2270 1.350 . S
N2268 S2266 1.610 . S
N2268 C2269 1.351 . S
C2269 C2263 1.428 . S
C2269 N2268 1.351 . S
C2269 C2270 1.434 . S
C2270 C2261 1.429 . S
C2270 N2267 1.350 . S
C2270 C2269 1.434 . S
C2271 C2272 1.369 . S
C2271 C2273 1.419 . S
C2271 H2275 0.930 . S
C2272 C2271 1.369 . S
C2272 C2281 1.429 . S
C2273 C2271 1.419 . S
C2273 C2274 1.363 . S
C2273 H2276 0.929 . S
C2274 C2273 1.363 . S
C2274 C2280 1.428 . S
H2275 C2271 0.930 . S
H2276 C2273 0.929 . S
S2277 N2278 1.613 . S
S2277 N2279 1.610 . S
N2278 S2277 1.613 . S
N2278 C2281 1.350 . S
N2279 S2277 1.610 . S
N2279 C2280 1.351 . S
C2280 C2274 1.428 . S
C2280 N2279 1.351 . S
C2280 C2281 1.434 . S
C2281 C2272 1.429 . S
C2281 N2278 1.350 . S
C2281 C2280 1.434 . S
C2282 C2283 1.369 . S
C2282 C2284 1.419 . S
C2282 H2286 0.930 . S
C2283 C2282 1.369 . S
C2283 C2292 1.429 . S
C2284 C2282 1.419 . S
C2284 C2285 1.363 . S
C2284 H2287 0.929 . S
C2285 C2284 1.363 . S
C2285 C2291 1.428 . S
H2286 C2282 0.930 . S
H2287 C2284 0.929 . S
S2288 N2289 1.613 . S
S2288 N2290 1.610 . S
N2289 S2288 1.613 . S
N2289 C2292 1.350 . S
N2290 S2288 1.610 . S
N2290 C2291 1.351 . S
C2291 C2285 1.428 . S
C2291 N2290 1.351 . S
C2291 C2292 1.434 . S
C2292 C2283 1.429 . S
C2292 N2289 1.350 . S
C2292 C2291 1.434 . S
C2293 C2294 1.369 . S
C2293 C2295 1.419 . S
C2293 H2297 0.930 . S
C2294 C2293 1.369 . S
C2294 C2303 1.429 . S
C2295 C2293 1.419 . S
C2295 C2296 1.363 . S
C2295 H2298 0.929 . S
C2296 C2295 1.363 . S
C2296 C2302 1.428 . S
H2297 C2293 0.930 . S
H2298 C2295 0.929 . S
S2299 N2300 1.613 . S
S2299 N2301 1.610 . S
N2300 S2299 1.613 . S
N2300 C2303 1.350 . S
N2301 S2299 1.610 . S
N2301 C2302 1.351 . S
C2302 C2296 1.428 . S
C2302 N2301 1.351 . S
C2302 C2303 1.434 . S
C2303 C2294 1.429 . S
C2303 N2300 1.350 . S
C2303 C2302 1.434 . S
C2304 C2305 1.369 . S
C2304 C2306 1.419 1_455 S
C2304 H2308 0.930 . S
C2305 C2304 1.369 . S
C2305 C2314 1.429 . S
C2306 C2304 1.419 1_655 S
C2306 C2307 1.363 . S
C2306 H2309 0.929 . S
C2307 C2306 1.363 . S
C2307 C2313 1.428 . S
H2308 C2304 0.930 . S
H2309 C2306 0.929 . S
S2310 N2311 1.618 1_655 S
S2310 N2312 1.606 . S
N2311 S2310 1.618 1_455 S
N2311 C2314 1.350 . S
N2312 S2310 1.606 . S
N2312 C2313 1.351 . S
C2313 C2307 1.428 . S
C2313 N2312 1.351 . S
C2313 C2314 1.434 1_655 S
C2314 C2305 1.429 . S
C2314 N2311 1.350 . S
C2314 C2313 1.434 1_455 S
C2315 C2316 1.369 . S
C2315 C2317 1.419 1_565 S
C2315 H2319 0.930 . S
C2316 C2315 1.369 . S
C2316 C2325 1.429 . S
C2317 C2315 1.419 1_545 S
C2317 C2318 1.363 . S
C2317 H2320 0.929 . S
C2318 C2317 1.363 . S
C2318 C2324 1.428 . S
H2319 C2315 0.930 . S
H2320 C2317 0.929 . S
S2321 N2322 1.618 1_545 S
S2321 N2323 1.606 . S
N2322 S2321 1.618 1_565 S
N2322 C2325 1.350 . S
N2323 S2321 1.606 . S
N2323 C2324 1.351 . S
C2324 C2318 1.428 . S
C2324 N2323 1.351 . S
C2324 C2325 1.434 1_545 S
C2325 C2316 1.429 . S
C2325 N2322 1.350 . S
C2325 C2324 1.434 1_565 S
C2326 C2327 1.369 . S
C2326 C2328 1.419 1_655 S
C2326 H2330 0.930 . S
C2327 C2326 1.369 . S
C2327 C2336 1.429 . S
C2328 C2326 1.419 1_455 S
C2328 C2329 1.363 . S
C2328 H2331 0.929 . S
C2329 C2328 1.363 . S
C2329 C2335 1.428 . S
H2330 C2326 0.930 . S
H2331 C2328 0.929 . S
S2332 N2333 1.618 1_455 S
S2332 N2334 1.606 . S
N2333 S2332 1.618 1_655 S
N2333 C2336 1.350 . S
N2334 S2332 1.606 . S
N2334 C2335 1.351 . S
C2335 C2329 1.428 . S
C2335 N2334 1.351 . S
C2335 C2336 1.434 1_455 S
C2336 C2327 1.429 . S
C2336 N2333 1.350 . S
C2336 C2335 1.434 1_655 S
C2337 C2338 1.369 . S
C2337 C2339 1.419 1_545 S
C2337 H2341 0.930 . S
C2338 C2337 1.369 . S
C2338 C2347 1.429 . S
C2339 C2337 1.419 1_565 S
C2339 C2340 1.363 . S
C2339 H2342 0.929 . S
C2340 C2339 1.363 . S
C2340 C2346 1.428 . S
H2341 C2337 0.930 . S
H2342 C2339 0.929 . S
S2343 N2344 1.618 1_565 S
S2343 N2345 1.606 . S
N2344 S2343 1.618 1_545 S
N2344 C2347 1.350 . S
N2345 S2343 1.606 . S
N2345 C2346 1.351 . S
C2346 C2340 1.428 . S
C2346 N2345 1.351 . S
C2346 C2347 1.434 1_565 S
C2347 C2338 1.429 . S
C2347 N2344 1.350 . S
C2347 C2346 1.434 1_545 S
C2348 C2349 1.369 . S
C2348 C2350 1.419 1_455 S
C2348 H2352 0.930 . S
C2349 C2348 1.369 . S
C2349 C2358 1.429 . S
C2350 C2348 1.419 1_655 S
C2350 C2351 1.363 . S
C2350 H2353 0.929 . S
C2351 C2350 1.363 . S
C2351 C2357 1.428 . S
H2352 C2348 0.930 . S
H2353 C2350 0.929 . S
S2354 N2355 1.618 1_655 S
S2354 N2356 1.606 . S
N2355 S2354 1.618 1_455 S
N2355 C2358 1.350 . S
N2356 S2354 1.606 . S
N2356 C2357 1.351 . S
C2357 C2351 1.428 . S
C2357 N2356 1.351 . S
C2357 C2358 1.434 1_655 S
C2358 C2349 1.429 . S
C2358 N2355 1.350 . S
C2358 C2357 1.434 1_455 S
C2359 C2360 1.369 . S
C2359 C2361 1.419 1_545 S
C2359 H2363 0.930 . S
C2360 C2359 1.369 . S
C2360 C2369 1.429 . S
C2361 C2359 1.419 1_565 S
C2361 C2362 1.363 . S
C2361 H2364 0.929 . S
C2362 C2361 1.363 . S
C2362 C2368 1.428 . S
H2363 C2359 0.930 . S
H2364 C2361 0.929 . S
S2365 N2366 1.618 1_565 S
S2365 N2367 1.606 . S
N2366 S2365 1.618 1_545 S
N2366 C2369 1.350 . S
N2367 S2365 1.606 . S
N2367 C2368 1.351 . S
C2368 C2362 1.428 . S
C2368 N2367 1.351 . S
C2368 C2369 1.434 1_565 S
C2369 C2360 1.429 . S
C2369 N2366 1.350 . S
C2369 C2368 1.434 1_545 S
C2370 C2371 1.369 . S
C2370 C2372 1.419 1_655 S
C2370 H2374 0.930 . S
C2371 C2370 1.369 . S
C2371 C2380 1.429 . S
C2372 C2370 1.419 1_455 S
C2372 C2373 1.363 . S
C2372 H2375 0.929 . S
C2373 C2372 1.363 . S
C2373 C2379 1.428 . S
H2374 C2370 0.930 . S
H2375 C2372 0.929 . S
S2376 N2377 1.618 1_455 S
S2376 N2378 1.606 . S
N2377 S2376 1.618 1_655 S
N2377 C2380 1.350 . S
N2378 S2376 1.606 . S
N2378 C2379 1.351 . S
C2379 C2373 1.428 . S
C2379 N2378 1.351 . S
C2379 C2380 1.434 1_455 S
C2380 C2371 1.429 . S
C2380 N2377 1.350 . S
C2380 C2379 1.434 1_655 S
C2381 C2382 1.369 . S
C2381 C2383 1.419 1_545 S
C2381 H2385 0.930 . S
C2382 C2381 1.369 . S
C2382 C2391 1.429 . S
C2383 C2381 1.419 1_565 S
C2383 C2384 1.363 . S
C2383 H2386 0.929 . S
C2384 C2383 1.363 . S
C2384 C2390 1.428 . S
H2385 C2381 0.930 . S
H2386 C2383 0.929 . S
S2387 N2388 1.618 1_565 S
S2387 N2389 1.606 . S
N2388 S2387 1.618 1_545 S
N2388 C2391 1.350 . S
N2389 S2387 1.606 . S
N2389 C2390 1.351 . S
C2390 C2384 1.428 . S
C2390 N2389 1.351 . S
C2390 C2391 1.434 1_565 S
C2391 C2382 1.429 . S
C2391 N2388 1.350 . S
C2391 C2390 1.434 1_545 S
C2392 C2393 1.369 . S
C2392 C2394 1.419 1_565 S
C2392 H2396 0.930 . S
C2393 C2392 1.369 . S
C2393 C2402 1.429 . S
C2394 C2392 1.419 1_545 S
C2394 C2395 1.363 . S
C2394 H2397 0.929 . S
C2395 C2394 1.363 . S
C2395 C2401 1.428 . S
H2396 C2392 0.930 . S
H2397 C2394 0.929 . S
S2398 N2399 1.618 1_545 S
S2398 N2400 1.606 . S
N2399 S2398 1.618 1_565 S
N2399 C2402 1.350 . S
N2400 S2398 1.606 . S
N2400 C2401 1.351 . S
C2401 C2395 1.428 . S
C2401 N2400 1.351 . S
C2401 C2402 1.434 1_545 S
C2402 C2393 1.429 . S
C2402 N2399 1.350 . S
C2402 C2401 1.434 1_565 S
C2403 C2404 1.369 . S
C2403 C2405 1.419 1_655 S
C2403 H2407 0.930 . S
C2404 C2403 1.369 . S
C2404 C2413 1.429 . S
C2405 C2403 1.419 1_455 S
C2405 C2406 1.363 . S
C2405 H2408 0.929 . S
C2406 C2405 1.363 . S
C2406 C2412 1.428 . S
H2407 C2403 0.930 . S
H2408 C2405 0.929 . S
S2409 N2410 1.618 1_455 S
S2409 N2411 1.606 . S
N2410 S2409 1.618 1_655 S
N2410 C2413 1.350 . S
N2411 S2409 1.606 . S
N2411 C2412 1.351 . S
C2412 C2406 1.428 . S
C2412 N2411 1.351 . S
C2412 C2413 1.434 1_455 S
C2413 C2404 1.429 . S
C2413 N2410 1.350 . S
C2413 C2412 1.434 1_655 S
C2414 C2415 1.369 . S
C2414 C2416 1.419 1_565 S
C2414 H2418 0.930 . S
C2415 C2414 1.369 . S
C2415 C2424 1.429 . S
C2416 C2414 1.419 1_545 S
C2416 C2417 1.363 . S
C2416 H2419 0.929 . S
C2417 C2416 1.363 . S
C2417 C2423 1.428 . S
H2418 C2414 0.930 . S
H2419 C2416 0.929 . S
S2420 N2421 1.618 1_545 S
S2420 N2422 1.606 . S
N2421 S2420 1.618 1_565 S
N2421 C2424 1.350 . S
N2422 S2420 1.606 . S
N2422 C2423 1.351 . S
C2423 C2417 1.428 . S
C2423 N2422 1.351 . S
C2423 C2424 1.434 1_545 S
C2424 C2415 1.429 . S
C2424 N2421 1.350 . S
C2424 C2423 1.434 1_565 S
C2425 C2426 1.369 . S
C2425 C2427 1.419 1_455 S
C2425 H2429 0.930 . S
C2426 C2425 1.369 . S
C2426 C2435 1.429 . S
C2427 C2425 1.419 1_655 S
C2427 C2428 1.363 . S
C2427 H2430 0.929 . S
C2428 C2427 1.363 . S
C2428 C2434 1.428 . S
H2429 C2425 0.930 . S
H2430 C2427 0.929 . S
S2431 N2432 1.618 1_655 S
S2431 N2433 1.606 . S
N2432 S2431 1.618 1_455 S
N2432 C2435 1.350 . S
N2433 S2431 1.606 . S
N2433 C2434 1.351 . S
C2434 C2428 1.428 . S
C2434 N2433 1.351 . S
C2434 C2435 1.434 1_655 S
C2435 C2426 1.429 . S
C2435 N2432 1.350 . S
C2435 C2434 1.434 1_455 S
C2436 C2437 1.369 . S
C2436 C2438 1.419 1_565 S
C2436 H2440 0.930 . S
C2437 C2436 1.369 . S
C2437 C2446 1.429 . S
C2438 C2436 1.419 1_545 S
C2438 C2439 1.363 . S
C2438 H2441 0.929 . S
C2439 C2438 1.363 . S
C2439 C2445 1.428 . S
H2440 C2436 0.930 . S
H2441 C2438 0.929 . S
S2442 N2443 1.618 1_545 S
S2442 N2444 1.606 . S
N2443 S2442 1.618 1_565 S
N2443 C2446 1.350 . S
N2444 S2442 1.606 . S
N2444 C2445 1.351 . S
C2445 C2439 1.428 . S
C2445 N2444 1.351 . S
C2445 C2446 1.434 1_545 S
C2446 C2437 1.429 . S
C2446 N2443 1.350 . S
C2446 C2445 1.434 1_565 S
C2447 C2448 1.369 . S
C2447 C2449 1.419 1_455 S
C2447 H2451 0.930 . S
C2448 C2447 1.369 . S
C2448 C2457 1.429 . S
C2449 C2447 1.419 1_655 S
C2449 C2450 1.363 . S
C2449 H2452 0.929 . S
C2450 C2449 1.363 . S
C2450 C2456 1.428 . S
H2451 C2447 0.930 . S
H2452 C2449 0.929 . S
S2453 N2454 1.618 1_655 S
S2453 N2455 1.606 . S
N2454 S2453 1.618 1_455 S
N2454 C2457 1.350 . S
N2455 S2453 1.606 . S
N2455 C2456 1.351 . S
C2456 C2450 1.428 . S
C2456 N2455 1.351 . S
C2456 C2457 1.434 1_655 S
C2457 C2448 1.429 . S
C2457 N2454 1.350 . S
C2457 C2456 1.434 1_455 S
C2458 C2459 1.369 . S
C2458 C2460 1.419 1_545 S
C2458 H2462 0.930 . S
C2459 C2458 1.369 . S
C2459 C2468 1.429 . S
C2460 C2458 1.419 1_565 S
C2460 C2461 1.363 . S
C2460 H2463 0.929 . S
C2461 C2460 1.363 . S
C2461 C2467 1.428 . S
H2462 C2458 0.930 . S
H2463 C2460 0.929 . S
S2464 N2465 1.618 1_565 S
S2464 N2466 1.606 . S
N2465 S2464 1.618 1_545 S
N2465 C2468 1.350 . S
N2466 S2464 1.606 . S
N2466 C2467 1.351 . S
C2467 C2461 1.428 . S
C2467 N2466 1.351 . S
C2467 C2468 1.434 1_565 S
C2468 C2459 1.429 . S
C2468 N2465 1.350 . S
C2468 C2467 1.434 1_545 S
C2469 C2470 1.369 . S
C2469 C2471 1.419 1_655 S
C2469 H2473 0.930 . S
C2470 C2469 1.369 . S
C2470 C2479 1.429 . S
C2471 C2469 1.419 1_455 S
C2471 C2472 1.363 . S
C2471 H2474 0.929 . S
C2472 C2471 1.363 . S
C2472 C2478 1.428 . S
H2473 C2469 0.930 . S
H2474 C2471 0.929 . S
S2475 N2476 1.618 1_455 S
S2475 N2477 1.606 . S
N2476 S2475 1.618 1_655 S
N2476 C2479 1.350 . S
N2477 S2475 1.606 . S
N2477 C2478 1.351 . S
C2478 C2472 1.428 . S
C2478 N2477 1.351 . S
C2478 C2479 1.434 1_455 S
C2479 C2470 1.429 . S
C2479 N2476 1.350 . S
C2479 C2478 1.434 1_655 S
C2480 C2481 1.369 . S
C2480 C2482 1.419 1_554 S
C2480 H2484 0.930 . S
C2481 C2480 1.369 . S
C2481 C2490 1.429 . S
C2482 C2480 1.419 1_556 S
C2482 C2483 1.363 . S
C2482 H2485 0.929 . S
C2483 C2482 1.363 . S
C2483 C2489 1.428 . S
H2484 C2480 0.930 . S
H2485 C2482 0.929 . S
S2486 N2487 1.618 1_556 S
S2486 N2488 1.606 . S
N2487 S2486 1.618 1_554 S
N2487 C2490 1.350 . S
N2488 S2486 1.606 . S
N2488 C2489 1.351 . S
C2489 C2483 1.428 . S
C2489 N2488 1.351 . S
C2489 C2490 1.434 1_556 S
C2490 C2481 1.429 . S
C2490 N2487 1.350 . S
C2490 C2489 1.434 1_554 S
C2491 C2492 1.369 . S
C2491 C2493 1.419 1_556 S
C2491 H2495 0.930 . S
C2492 C2491 1.369 . S
C2492 C2501 1.429 . S
C2493 C2491 1.419 1_554 S
C2493 C2494 1.363 . S
C2493 H2496 0.929 . S
C2494 C2493 1.363 . S
C2494 C2500 1.428 . S
H2495 C2491 0.930 . S
H2496 C2493 0.929 . S
S2497 N2498 1.618 1_554 S
S2497 N2499 1.606 . S
N2498 S2497 1.618 1_556 S
N2498 C2501 1.350 . S
N2499 S2497 1.606 . S
N2499 C2500 1.351 . S
C2500 C2494 1.428 . S
C2500 N2499 1.351 . S
C2500 C2501 1.434 1_554 S
C2501 C2492 1.429 . S
C2501 N2498 1.350 . S
C2501 C2500 1.434 1_556 S
C2502 C2503 1.369 . S
C2502 C2504 1.419 1_554 S
C2502 H2506 0.930 . S
C2503 C2502 1.369 . S
C2503 C2512 1.429 . S
C2504 C2502 1.419 1_556 S
C2504 C2505 1.363 . S
C2504 H2507 0.929 . S
C2505 C2504 1.363 . S
C2505 C2511 1.428 . S
H2506 C2502 0.930 . S
H2507 C2504 0.929 . S
S2508 N2509 1.618 1_556 S
S2508 N2510 1.606 . S
N2509 S2508 1.618 1_554 S
N2509 C2512 1.350 . S
N2510 S2508 1.606 . S
N2510 C2511 1.351 . S
C2511 C2505 1.428 . S
C2511 N2510 1.351 . S
C2511 C2512 1.434 1_556 S
C2512 C2503 1.429 . S
C2512 N2509 1.350 . S
C2512 C2511 1.434 1_554 S
C2513 C2514 1.369 . S
C2513 C2515 1.419 1_556 S
C2513 H2517 0.930 . S
C2514 C2513 1.369 . S
C2514 C2523 1.429 . S
C2515 C2513 1.419 1_554 S
C2515 C2516 1.363 . S
C2515 H2518 0.929 . S
C2516 C2515 1.363 . S
C2516 C2522 1.428 . S
H2517 C2513 0.930 . S
H2518 C2515 0.929 . S
S2519 N2520 1.618 1_554 S
S2519 N2521 1.606 . S
N2520 S2519 1.618 1_556 S
N2520 C2523 1.350 . S
N2521 S2519 1.606 . S
N2521 C2522 1.351 . S
C2522 C2516 1.428 . S
C2522 N2521 1.351 . S
C2522 C2523 1.434 1_554 S
C2523 C2514 1.429 . S
C2523 N2520 1.350 . S
C2523 C2522 1.434 1_556 S
C2524 C2525 1.369 . S
C2524 C2526 1.419 1_554 S
C2524 H2528 0.930 . S
C2525 C2524 1.369 . S
C2525 C2534 1.429 . S
C2526 C2524 1.419 1_556 S
C2526 C2527 1.363 . S
C2526 H2529 0.929 . S
C2527 C2526 1.363 . S
C2527 C2533 1.428 . S
H2528 C2524 0.930 . S
H2529 C2526 0.929 . S
S2530 N2531 1.618 1_556 S
S2530 N2532 1.606 . S
N2531 S2530 1.618 1_554 S
N2531 C2534 1.350 . S
N2532 S2530 1.606 . S
N2532 C2533 1.351 . S
C2533 C2527 1.428 . S
C2533 N2532 1.351 . S
C2533 C2534 1.434 1_556 S
C2534 C2525 1.429 . S
C2534 N2531 1.350 . S
C2534 C2533 1.434 1_554 S
C2535 C2536 1.369 . S
C2535 C2537 1.419 1_554 S
C2535 H2539 0.930 . S
C2536 C2535 1.369 . S
C2536 C2545 1.429 . S
C2537 C2535 1.419 1_556 S
C2537 C2538 1.363 . S
C2537 H2540 0.929 . S
C2538 C2537 1.363 . S
C2538 C2544 1.428 . S
H2539 C2535 0.930 . S
H2540 C2537 0.929 . S
S2541 N2542 1.618 1_556 S
S2541 N2543 1.606 . S
N2542 S2541 1.618 1_554 S
N2542 C2545 1.350 . S
N2543 S2541 1.606 . S
N2543 C2544 1.351 . S
C2544 C2538 1.428 . S
C2544 N2543 1.351 . S
C2544 C2545 1.434 1_556 S
C2545 C2536 1.429 . S
C2545 N2542 1.350 . S
C2545 C2544 1.434 1_554 S
C2546 C2547 1.369 . S
C2546 C2548 1.419 1_554 S
C2546 H2550 0.930 . S
C2547 C2546 1.369 . S
C2547 C2556 1.429 . S
C2548 C2546 1.419 1_556 S
C2548 C2549 1.363 . S
C2548 H2551 0.929 . S
C2549 C2548 1.363 . S
C2549 C2555 1.428 . S
H2550 C2546 0.930 . S
H2551 C2548 0.929 . S
S2552 N2553 1.618 1_556 S
S2552 N2554 1.606 . S
N2553 S2552 1.618 1_554 S
N2553 C2556 1.350 . S
N2554 S2552 1.606 . S
N2554 C2555 1.351 . S
C2555 C2549 1.428 . S
C2555 N2554 1.351 . S
C2555 C2556 1.434 1_556 S
C2556 C2547 1.429 . S
C2556 N2553 1.350 . S
C2556 C2555 1.434 1_554 S
C2557 C2558 1.369 . S
C2557 C2559 1.419 1_556 S
C2557 H2561 0.930 . S
C2558 C2557 1.369 . S
C2558 C2567 1.429 . S
C2559 C2557 1.419 1_554 S
C2559 C2560 1.363 . S
C2559 H2562 0.929 . S
C2560 C2559 1.363 . S
C2560 C2566 1.428 . S
H2561 C2557 0.930 . S
H2562 C2559 0.929 . S
S2563 N2564 1.618 1_554 S
S2563 N2565 1.606 . S
N2564 S2563 1.618 1_556 S
N2564 C2567 1.350 . S
N2565 S2563 1.606 . S
N2565 C2566 1.351 . S
C2566 C2560 1.428 . S
C2566 N2565 1.351 . S
C2566 C2567 1.434 1_554 S
C2567 C2558 1.429 . S
C2567 N2564 1.350 . S
C2567 C2566 1.434 1_556 S
C2568 C2569 1.369 . S
C2568 C2570 1.419 . S
C2568 H2572 0.930 . S
C2569 C2568 1.369 . S
C2569 C2578 1.429 . S
C2570 C2568 1.419 . S
C2570 C2571 1.363 . S
C2570 H2573 0.929 . S
C2571 C2570 1.363 . S
C2571 C2577 1.428 . S
H2572 C2568 0.930 . S
H2573 C2570 0.929 . S
S2574 N2575 1.613 . S
S2574 N2576 1.610 . S
N2575 S2574 1.613 . S
N2575 C2578 1.350 . S
N2576 S2574 1.610 . S
N2576 C2577 1.351 . S
C2577 C2571 1.428 . S
C2577 N2576 1.351 . S
C2577 C2578 1.434 . S
C2578 C2569 1.429 . S
C2578 N2575 1.350 . S
C2578 C2577 1.434 . S
C2579 C2580 1.369 . S
C2579 C2581 1.419 . S
C2579 H2583 0.930 . S
C2580 C2579 1.369 . S
C2580 C2589 1.429 . S
C2581 C2579 1.419 . S
C2581 C2582 1.363 . S
C2581 H2584 0.929 . S
C2582 C2581 1.363 . S
C2582 C2588 1.428 . S
H2583 C2579 0.930 . S
H2584 C2581 0.929 . S
S2585 N2586 1.613 . S
S2585 N2587 1.610 . S
N2586 S2585 1.613 . S
N2586 C2589 1.350 . S
N2587 S2585 1.610 . S
N2587 C2588 1.351 . S
C2588 C2582 1.428 . S
C2588 N2587 1.351 . S
C2588 C2589 1.434 . S
C2589 C2580 1.429 . S
C2589 N2586 1.350 . S
C2589 C2588 1.434 . S
C2590 C2591 1.369 . S
C2590 C2592 1.419 . S
C2590 H2594 0.930 . S
C2591 C2590 1.369 . S
C2591 C2600 1.429 . S
C2592 C2590 1.419 . S
C2592 C2593 1.363 . S
C2592 H2595 0.929 . S
C2593 C2592 1.363 . S
C2593 C2599 1.428 . S
H2594 C2590 0.930 . S
H2595 C2592 0.929 . S
S2596 N2597 1.613 . S
S2596 N2598 1.610 . S
N2597 S2596 1.613 . S
N2597 C2600 1.350 . S
N2598 S2596 1.610 . S
N2598 C2599 1.351 . S
C2599 C2593 1.428 . S
C2599 N2598 1.351 . S
C2599 C2600 1.434 . S
C2600 C2591 1.429 . S
C2600 N2597 1.350 . S
C2600 C2599 1.434 . S
C2601 C2602 1.369 . S
C2601 C2603 1.419 . S
C2601 H2605 0.930 . S
C2602 C2601 1.369 . S
C2602 C2611 1.429 . S
C2603 C2601 1.419 . S
C2603 C2604 1.363 . S
C2603 H2606 0.929 . S
C2604 C2603 1.363 . S
C2604 C2610 1.428 . S
H2605 C2601 0.930 . S
H2606 C2603 0.929 . S
S2607 N2608 1.613 . S
S2607 N2609 1.610 . S
N2608 S2607 1.613 . S
N2608 C2611 1.350 . S
N2609 S2607 1.610 . S
N2609 C2610 1.351 . S
C2610 C2604 1.428 . S
C2610 N2609 1.351 . S
C2610 C2611 1.434 . S
C2611 C2602 1.429 . S
C2611 N2608 1.350 . S
C2611 C2610 1.434 . S
C2612 C2613 1.369 . S
C2612 C2614 1.419 . S
C2612 H2616 0.930 . S
C2613 C2612 1.369 . S
C2613 C2622 1.429 . S
C2614 C2612 1.419 . S
C2614 C2615 1.363 . S
C2614 H2617 0.929 . S
C2615 C2614 1.363 . S
C2615 C2621 1.428 . S
H2616 C2612 0.930 . S
H2617 C2614 0.929 . S
S2618 N2619 1.613 . S
S2618 N2620 1.610 . S
N2619 S2618 1.613 . S
N2619 C2622 1.350 . S
N2620 S2618 1.610 . S
N2620 C2621 1.351 . S
C2621 C2615 1.428 . S
C2621 N2620 1.351 . S
C2621 C2622 1.434 . S
C2622 C2613 1.429 . S
C2622 N2619 1.350 . S
C2622 C2621 1.434 . S
C2623 C2624 1.369 . S
C2623 C2625 1.419 . S
C2623 H2627 0.930 . S
C2624 C2623 1.369 . S
C2624 C2633 1.429 . S
C2625 C2623 1.419 . S
C2625 C2626 1.363 . S
C2625 H2628 0.929 . S
C2626 C2625 1.363 . S
C2626 C2632 1.428 . S
H2627 C2623 0.930 . S
H2628 C2625 0.929 . S
S2629 N2630 1.613 . S
S2629 N2631 1.610 . S
N2630 S2629 1.613 . S
N2630 C2633 1.350 . S
N2631 S2629 1.610 . S
N2631 C2632 1.351 . S
C2632 C2626 1.428 . S
C2632 N2631 1.351 . S
C2632 C2633 1.434 . S
C2633 C2624 1.429 . S
C2633 N2630 1.350 . S
C2633 C2632 1.434 . S
C2634 C2635 1.369 . S
C2634 C2636 1.419 . S
C2634 H2638 0.930 . S
C2635 C2634 1.369 . S
C2635 C2644 1.429 . S
C2636 C2634 1.419 . S
C2636 C2637 1.363 . S
C2636 H2639 0.929 . S
C2637 C2636 1.363 . S
C2637 C2643 1.428 . S
H2638 C2634 0.930 . S
H2639 C2636 0.929 . S
S2640 N2641 1.613 . S
S2640 N2642 1.610 . S
N2641 S2640 1.613 . S
N2641 C2644 1.350 . S
N2642 S2640 1.610 . S
N2642 C2643 1.351 . S
C2643 C2637 1.428 . S
C2643 N2642 1.351 . S
C2643 C2644 1.434 . S
C2644 C2635 1.429 . S
C2644 N2641 1.350 . S
C2644 C2643 1.434 . S
C2645 C2646 1.369 . S
C2645 C2647 1.419 . S
C2645 H2649 0.930 . S
C2646 C2645 1.369 . S
C2646 C2655 1.429 . S
C2647 C2645 1.419 . S
C2647 C2648 1.363 . S
C2647 H2650 0.929 . S
C2648 C2647 1.363 . S
C2648 C2654 1.428 . S
H2649 C2645 0.930 . S
H2650 C2647 0.929 . S
S2651 N2652 1.613 . S
S2651 N2653 1.610 . S
N2652 S2651 1.613 . S
N2652 C2655 1.350 . S
N2653 S2651 1.610 . S
N2653 C2654 1.351 . S
C2654 C2648 1.428 . S
C2654 N2653 1.351 . S
C2654 C2655 1.434 . S
C2655 C2646 1.429 . S
C2655 N2652 1.350 . S
C2655 C2654 1.434 . S
C2656 C2657 1.369 . S
C2656 C2658 1.419 . S
C2656 H2660 0.930 . S
C2657 C2656 1.369 . S
C2657 C2666 1.429 . S
C2658 C2656 1.419 . S
C2658 C2659 1.363 . S
C2658 H2661 0.929 . S
C2659 C2658 1.363 . S
C2659 C2665 1.428 . S
H2660 C2656 0.930 . S
H2661 C2658 0.929 . S
S2662 N2663 1.613 . S
S2662 N2664 1.610 . S
N2663 S2662 1.613 . S
N2663 C2666 1.350 . S
N2664 S2662 1.610 . S
N2664 C2665 1.351 . S
C2665 C2659 1.428 . S
C2665 N2664 1.351 . S
C2665 C2666 1.434 . S
C2666 C2657 1.429 . S
C2666 N2663 1.350 . S
C2666 C2665 1.434 . S
C2667 C2668 1.369 . S
C2667 C2669 1.419 . S
C2667 H2671 0.930 . S
C2668 C2667 1.369 . S
C2668 C2677 1.429 . S
C2669 C2667 1.419 . S
C2669 C2670 1.363 . S
C2669 H2672 0.929 . S
C2670 C2669 1.363 . S
C2670 C2676 1.428 . S
H2671 C2667 0.930 . S
H2672 C2669 0.929 . S
S2673 N2674 1.613 . S
S2673 N2675 1.610 . S
N2674 S2673 1.613 . S
N2674 C2677 1.350 . S
N2675 S2673 1.610 . S
N2675 C2676 1.351 . S
C2676 C2670 1.428 . S
C2676 N2675 1.351 . S
C2676 C2677 1.434 . S
C2677 C2668 1.429 . S
C2677 N2674 1.350 . S
C2677 C2676 1.434 . S
C2678 C2679 1.369 . S
C2678 C2680 1.419 . S
C2678 H2682 0.930 . S
C2679 C2678 1.369 . S
C2679 C2688 1.429 . S
C2680 C2678 1.419 . S
C2680 C2681 1.363 . S
C2680 H2683 0.929 . S
C2681 C2680 1.363 . S
C2681 C2687 1.428 . S
H2682 C2678 0.930 . S
H2683 C2680 0.929 . S
S2684 N2685 1.613 . S
S2684 N2686 1.610 . S
N2685 S2684 1.613 . S
N2685 C2688 1.350 . S
N2686 S2684 1.610 . S
N2686 C2687 1.351 . S
C2687 C2681 1.428 . S
C2687 N2686 1.351 . S
C2687 C2688 1.434 . S
C2688 C2679 1.429 . S
C2688 N2685 1.350 . S
C2688 C2687 1.434 . S
C2689 C2690 1.369 . S
C2689 C2691 1.419 . S
C2689 H2693 0.930 . S
C2690 C2689 1.369 . S
C2690 C2699 1.429 . S
C2691 C2689 1.419 . S
C2691 C2692 1.363 . S
C2691 H2694 0.929 . S
C2692 C2691 1.363 . S
C2692 C2698 1.428 . S
H2693 C2689 0.930 . S
H2694 C2691 0.929 . S
S2695 N2696 1.613 . S
S2695 N2697 1.610 . S
N2696 S2695 1.613 . S
N2696 C2699 1.350 . S
N2697 S2695 1.610 . S
N2697 C2698 1.351 . S
C2698 C2692 1.428 . S
C2698 N2697 1.351 . S
C2698 C2699 1.434 . S
C2699 C2690 1.429 . S
C2699 N2696 1.350 . S
C2699 C2698 1.434 . S
C2700 C2701 1.369 . S
C2700 C2702 1.419 . S
C2700 H2704 0.930 . S
C2701 C2700 1.369 . S
C2701 C2710 1.429 . S
C2702 C2700 1.419 . S
C2702 C2703 1.363 . S
C2702 H2705 0.929 . S
C2703 C2702 1.363 . S
C2703 C2709 1.428 . S
H2704 C2700 0.930 . S
H2705 C2702 0.929 . S
S2706 N2707 1.613 . S
S2706 N2708 1.610 . S
N2707 S2706 1.613 . S
N2707 C2710 1.350 . S
N2708 S2706 1.610 . S
N2708 C2709 1.351 . S
C2709 C2703 1.428 . S
C2709 N2708 1.351 . S
C2709 C2710 1.434 . S
C2710 C2701 1.429 . S
C2710 N2707 1.350 . S
C2710 C2709 1.434 . S
C2711 C2712 1.369 . S
C2711 C2713 1.419 . S
C2711 H2715 0.930 . S
C2712 C2711 1.369 . S
C2712 C2721 1.429 . S
C2713 C2711 1.419 . S
C2713 C2714 1.363 . S
C2713 H2716 0.929 . S
C2714 C2713 1.363 . S
C2714 C2720 1.428 . S
H2715 C2711 0.930 . S
H2716 C2713 0.929 . S
S2717 N2718 1.613 . S
S2717 N2719 1.610 . S
N2718 S2717 1.613 . S
N2718 C2721 1.350 . S
N2719 S2717 1.610 . S
N2719 C2720 1.351 . S
C2720 C2714 1.428 . S
C2720 N2719 1.351 . S
C2720 C2721 1.434 . S
C2721 C2712 1.429 . S
C2721 N2718 1.350 . S
C2721 C2720 1.434 . S
C2722 C2723 1.369 . S
C2722 C2724 1.419 . S
C2722 H2726 0.930 . S
C2723 C2722 1.369 . S
C2723 C2732 1.429 . S
C2724 C2722 1.419 . S
C2724 C2725 1.363 . S
C2724 H2727 0.929 . S
C2725 C2724 1.363 . S
C2725 C2731 1.428 . S
H2726 C2722 0.930 . S
H2727 C2724 0.929 . S
S2728 N2729 1.613 . S
S2728 N2730 1.610 . S
N2729 S2728 1.613 . S
N2729 C2732 1.350 . S
N2730 S2728 1.610 . S
N2730 C2731 1.351 . S
C2731 C2725 1.428 . S
C2731 N2730 1.351 . S
C2731 C2732 1.434 . S
C2732 C2723 1.429 . S
C2732 N2729 1.350 . S
C2732 C2731 1.434 . S
C2733 C2734 1.369 . S
C2733 C2735 1.419 . S
C2733 H2737 0.930 . S
C2734 C2733 1.369 . S
C2734 C2743 1.429 . S
C2735 C2733 1.419 . S
C2735 C2736 1.363 . S
C2735 H2738 0.929 . S
C2736 C2735 1.363 . S
C2736 C2742 1.428 . S
H2737 C2733 0.930 . S
H2738 C2735 0.929 . S
S2739 N2740 1.613 . S
S2739 N2741 1.610 . S
N2740 S2739 1.613 . S
N2740 C2743 1.350 . S
N2741 S2739 1.610 . S
N2741 C2742 1.351 . S
C2742 C2736 1.428 . S
C2742 N2741 1.351 . S
C2742 C2743 1.434 . S
C2743 C2734 1.429 . S
C2743 N2740 1.350 . S
C2743 C2742 1.434 . S
C2744 C2745 1.369 . S
C2744 C2746 1.419 . S
C2744 H2748 0.930 . S
C2745 C2744 1.369 . S
C2745 C2754 1.429 . S
C2746 C2744 1.419 . S
C2746 C2747 1.363 . S
C2746 H2749 0.929 . S
C2747 C2746 1.363 . S
C2747 C2753 1.428 . S
H2748 C2744 0.930 . S
H2749 C2746 0.929 . S
S2750 N2751 1.613 . S
S2750 N2752 1.610 . S
N2751 S2750 1.613 . S
N2751 C2754 1.350 . S
N2752 S2750 1.610 . S
N2752 C2753 1.351 . S
C2753 C2747 1.428 . S
C2753 N2752 1.351 . S
C2753 C2754 1.434 . S
C2754 C2745 1.429 . S
C2754 N2751 1.350 . S
C2754 C2753 1.434 . S
C2755 C2756 1.369 . S
C2755 C2757 1.419 . S
C2755 H2759 0.930 . S
C2756 C2755 1.369 . S
C2756 C2765 1.429 . S
C2757 C2755 1.419 . S
C2757 C2758 1.363 . S
C2757 H2760 0.929 . S
C2758 C2757 1.363 . S
C2758 C2764 1.428 . S
H2759 C2755 0.930 . S
H2760 C2757 0.929 . S
S2761 N2762 1.613 . S
S2761 N2763 1.610 . S
N2762 S2761 1.613 . S
N2762 C2765 1.350 . S
N2763 S2761 1.610 . S
N2763 C2764 1.351 . S
C2764 C2758 1.428 . S
C2764 N2763 1.351 . S
C2764 C2765 1.434 . S
C2765 C2756 1.429 . S
C2765 N2762 1.350 . S
C2765 C2764 1.434 . S
C2766 C2767 1.369 . S
C2766 C2768 1.419 . S
C2766 H2770 0.930 . S
C2767 C2766 1.369 . S
C2767 C2776 1.429 . S
C2768 C2766 1.419 . S
C2768 C2769 1.363 . S
C2768 H2771 0.929 . S
C2769 C2768 1.363 . S
C2769 C2775 1.428 . S
H2770 C2766 0.930 . S
H2771 C2768 0.929 . S
S2772 N2773 1.613 . S
S2772 N2774 1.610 . S
N2773 S2772 1.613 . S
N2773 C2776 1.350 . S
N2774 S2772 1.610 . S
N2774 C2775 1.351 . S
C2775 C2769 1.428 . S
C2775 N2774 1.351 . S
C2775 C2776 1.434 . S
C2776 C2767 1.429 . S
C2776 N2773 1.350 . S
C2776 C2775 1.434 . S
C2777 C2778 1.369 . S
C2777 C2779 1.419 . S
C2777 H2781 0.930 . S
C2778 C2777 1.369 . S
C2778 C2787 1.429 . S
C2779 C2777 1.419 . S
C2779 C2780 1.363 . S
C2779 H2782 0.929 . S
C2780 C2779 1.363 . S
C2780 C2786 1.428 . S
H2781 C2777 0.930 . S
H2782 C2779 0.929 . S
S2783 N2784 1.613 . S
S2783 N2785 1.610 . S
N2784 S2783 1.613 . S
N2784 C2787 1.350 . S
N2785 S2783 1.610 . S
N2785 C2786 1.351 . S
C2786 C2780 1.428 . S
C2786 N2785 1.351 . S
C2786 C2787 1.434 . S
C2787 C2778 1.429 . S
C2787 N2784 1.350 . S
C2787 C2786 1.434 . S
C2788 C2789 1.369 . S
C2788 C2790 1.419 . S
C2788 H2792 0.930 . S
C2789 C2788 1.369 . S
C2789 C2798 1.429 . S
C2790 C2788 1.419 . S
C2790 C2791 1.363 . S
C2790 H2793 0.929 . S
C2791 C2790 1.363 . S
C2791 C2797 1.428 . S
H2792 C2788 0.930 . S
H2793 C2790 0.929 . S
S2794 N2795 1.613 . S
S2794 N2796 1.610 . S
N2795 S2794 1.613 . S
N2795 C2798 1.350 . S
N2796 S2794 1.610 . S
N2796 C2797 1.351 . S
C2797 C2791 1.428 . S
C2797 N2796 1.351 . S
C2797 C2798 1.434 . S
C2798 C2789 1.429 . S
C2798 N2795 1.350 . S
C2798 C2797 1.434 . S
C2799 C2800 1.369 . S
C2799 C2801 1.419 . S
C2799 H2803 0.930 . S
C2800 C2799 1.369 . S
C2800 C2809 1.429 . S
C2801 C2799 1.419 . S
C2801 C2802 1.363 . S
C2801 H2804 0.929 . S
C2802 C2801 1.363 . S
C2802 C2808 1.428 . S
H2803 C2799 0.930 . S
H2804 C2801 0.929 . S
S2805 N2806 1.613 . S
S2805 N2807 1.610 . S
N2806 S2805 1.613 . S
N2806 C2809 1.350 . S
N2807 S2805 1.610 . S
N2807 C2808 1.351 . S
C2808 C2802 1.428 . S
C2808 N2807 1.351 . S
C2808 C2809 1.434 . S
C2809 C2800 1.429 . S
C2809 N2806 1.350 . S
C2809 C2808 1.434 . S
C2810 C2811 1.369 . S
C2810 C2812 1.419 . S
C2810 H2814 0.930 . S
C2811 C2810 1.369 . S
C2811 C2820 1.429 . S
C2812 C2810 1.419 . S
C2812 C2813 1.363 . S
C2812 H2815 0.929 . S
C2813 C2812 1.363 . S
C2813 C2819 1.428 . S
H2814 C2810 0.930 . S
H2815 C2812 0.929 . S
S2816 N2817 1.613 . S
S2816 N2818 1.610 . S
N2817 S2816 1.613 . S
N2817 C2820 1.350 . S
N2818 S2816 1.610 . S
N2818 C2819 1.351 . S
C2819 C2813 1.428 . S
C2819 N2818 1.351 . S
C2819 C2820 1.434 . S
C2820 C2811 1.429 . S
C2820 N2817 1.350 . S
C2820 C2819 1.434 . S
C2821 C2822 1.369 . S
C2821 C2823 1.419 . S
C2821 H2825 0.930 . S
C2822 C2821 1.369 . S
C2822 C2831 1.429 . S
C2823 C2821 1.419 . S
C2823 C2824 1.363 . S
C2823 H2826 0.929 . S
C2824 C2823 1.363 . S
C2824 C2830 1.428 . S
H2825 C2821 0.930 . S
H2826 C2823 0.929 . S
S2827 N2828 1.613 . S
S2827 N2829 1.610 . S
N2828 S2827 1.613 . S
N2828 C2831 1.350 . S
N2829 S2827 1.610 . S
N2829 C2830 1.351 . S
C2830 C2824 1.428 . S
C2830 N2829 1.351 . S
C2830 C2831 1.434 . S
C2831 C2822 1.429 . S
C2831 N2828 1.350 . S
C2831 C2830 1.434 . S
C2832 C2833 1.369 . S
C2832 C2834 1.419 . S
C2832 H2836 0.930 . S
C2833 C2832 1.369 . S
C2833 C2842 1.429 . S
C2834 C2832 1.419 . S
C2834 C2835 1.363 . S
C2834 H2837 0.929 . S
C2835 C2834 1.363 . S
C2835 C2841 1.428 . S
H2836 C2832 0.930 . S
H2837 C2834 0.929 . S
S2838 N2839 1.613 . S
S2838 N2840 1.610 . S
N2839 S2838 1.613 . S
N2839 C2842 1.350 . S
N2840 S2838 1.610 . S
N2840 C2841 1.351 . S
C2841 C2835 1.428 . S
C2841 N2840 1.351 . S
C2841 C2842 1.434 . S
C2842 C2833 1.429 . S
C2842 N2839 1.350 . S
C2842 C2841 1.434 . S
C2843 C2844 1.369 . S
C2843 C2845 1.419 . S
C2843 H2847 0.930 . S
C2844 C2843 1.369 . S
C2844 C2853 1.429 . S
C2845 C2843 1.419 . S
C2845 C2846 1.363 . S
C2845 H2848 0.929 . S
C2846 C2845 1.363 . S
C2846 C2852 1.428 . S
H2847 C2843 0.930 . S
H2848 C2845 0.929 . S
S2849 N2850 1.613 . S
S2849 N2851 1.610 . S
N2850 S2849 1.613 . S
N2850 C2853 1.350 . S
N2851 S2849 1.610 . S
N2851 C2852 1.351 . S
C2852 C2846 1.428 . S
C2852 N2851 1.351 . S
C2852 C2853 1.434 . S
C2853 C2844 1.429 . S
C2853 N2850 1.350 . S
C2853 C2852 1.434 . S
C2854 C2855 1.369 . S
C2854 C2856 1.419 . S
C2854 H2858 0.930 . S
C2855 C2854 1.369 . S
C2855 C2864 1.429 . S
C2856 C2854 1.419 . S
C2856 C2857 1.363 . S
C2856 H2859 0.929 . S
C2857 C2856 1.363 . S
C2857 C2863 1.428 . S
H2858 C2854 0.930 . S
H2859 C2856 0.929 . S
S2860 N2861 1.613 . S
S2860 N2862 1.610 . S
N2861 S2860 1.613 . S
N2861 C2864 1.350 . S
N2862 S2860 1.610 . S
N2862 C2863 1.351 . S
C2863 C2857 1.428 . S
C2863 N2862 1.351 . S
C2863 C2864 1.434 . S
C2864 C2855 1.429 . S
C2864 N2861 1.350 . S
C2864 C2863 1.434 . S
C2865 C2866 1.369 . S
C2865 C2867 1.419 . S
C2865 H2869 0.930 . S
C2866 C2865 1.369 . S
C2866 C2875 1.429 . S
C2867 C2865 1.419 . S
C2867 C2868 1.363 . S
C2867 H2870 0.929 . S
C2868 C2867 1.363 . S
C2868 C2874 1.428 . S
H2869 C2865 0.930 . S
H2870 C2867 0.929 . S
S2871 N2872 1.613 . S
S2871 N2873 1.610 . S
N2872 S2871 1.613 . S
N2872 C2875 1.350 . S
N2873 S2871 1.610 . S
N2873 C2874 1.351 . S
C2874 C2868 1.428 . S
C2874 N2873 1.351 . S
C2874 C2875 1.434 . S
C2875 C2866 1.429 . S
C2875 N2872 1.350 . S
C2875 C2874 1.434 . S
C2876 C2877 1.369 . S
C2876 C2878 1.419 . S
C2876 H2880 0.930 . S
C2877 C2876 1.369 . S
C2877 C2886 1.429 . S
C2878 C2876 1.419 . S
C2878 C2879 1.363 . S
C2878 H2881 0.929 . S
C2879 C2878 1.363 . S
C2879 C2885 1.428 . S
H2880 C2876 0.930 . S
H2881 C2878 0.929 . S
S2882 N2883 1.613 . S
S2882 N2884 1.610 . S
N2883 S2882 1.613 . S
N2883 C2886 1.350 . S
N2884 S2882 1.610 . S
N2884 C2885 1.351 . S
C2885 C2879 1.428 . S
C2885 N2884 1.351 . S
C2885 C2886 1.434 . S
C2886 C2877 1.429 . S
C2886 N2883 1.350 . S
C2886 C2885 1.434 . S
C2887 C2888 1.369 . S
C2887 C2889 1.419 . S
C2887 H2891 0.930 . S
C2888 C2887 1.369 . S
C2888 C2897 1.429 . S
C2889 C2887 1.419 . S
C2889 C2890 1.363 . S
C2889 H2892 0.929 . S
C2890 C2889 1.363 . S
C2890 C2896 1.428 . S
H2891 C2887 0.930 . S
H2892 C2889 0.929 . S
S2893 N2894 1.613 . S
S2893 N2895 1.610 . S
N2894 S2893 1.613 . S
N2894 C2897 1.350 . S
N2895 S2893 1.610 . S
N2895 C2896 1.351 . S
C2896 C2890 1.428 . S
C2896 N2895 1.351 . S
C2896 C2897 1.434 . S
C2897 C2888 1.429 . S
C2897 N2894 1.350 . S
C2897 C2896 1.434 . S
C2898 C2899 1.369 . S
C2898 C2900 1.419 . S
C2898 H2902 0.930 . S
C2899 C2898 1.369 . S
C2899 C2908 1.429 . S
C2900 C2898 1.419 . S
C2900 C2901 1.363 . S
C2900 H2903 0.929 . S
C2901 C2900 1.363 . S
C2901 C2907 1.428 . S
H2902 C2898 0.930 . S
H2903 C2900 0.929 . S
S2904 N2905 1.613 . S
S2904 N2906 1.610 . S
N2905 S2904 1.613 . S
N2905 C2908 1.350 . S
N2906 S2904 1.610 . S
N2906 C2907 1.351 . S
C2907 C2901 1.428 . S
C2907 N2906 1.351 . S
C2907 C2908 1.434 . S
C2908 C2899 1.429 . S
C2908 N2905 1.350 . S
C2908 C2907 1.434 . S
C2909 C2910 1.369 . S
C2909 C2911 1.419 . S
C2909 H2913 0.930 . S
C2910 C2909 1.369 . S
C2910 C2919 1.429 . S
C2911 C2909 1.419 . S
C2911 C2912 1.363 . S
C2911 H2914 0.929 . S
C2912 C2911 1.363 . S
C2912 C2918 1.428 . S
H2913 C2909 0.930 . S
H2914 C2911 0.929 . S
S2915 N2916 1.613 . S
S2915 N2917 1.610 . S
N2916 S2915 1.613 . S
N2916 C2919 1.350 . S
N2917 S2915 1.610 . S
N2917 C2918 1.351 . S
C2918 C2912 1.428 . S
C2918 N2917 1.351 . S
C2918 C2919 1.434 . S
C2919 C2910 1.429 . S
C2919 N2916 1.350 . S
C2919 C2918 1.434 . S
C2920 C2921 1.369 . S
C2920 C2922 1.419 . S
C2920 H2924 0.930 . S
C2921 C2920 1.369 . S
C2921 C2930 1.429 . S
C2922 C2920 1.419 . S
C2922 C2923 1.363 . S
C2922 H2925 0.929 . S
C2923 C2922 1.363 . S
C2923 C2929 1.428 . S
H2924 C2920 0.930 . S
H2925 C2922 0.929 . S
S2926 N2927 1.613 . S
S2926 N2928 1.610 . S
N2927 S2926 1.613 . S
N2927 C2930 1.350 . S
N2928 S2926 1.610 . S
N2928 C2929 1.351 . S
C2929 C2923 1.428 . S
C2929 N2928 1.351 . S
C2929 C2930 1.434 . S
C2930 C2921 1.429 . S
C2930 N2927 1.350 . S
C2930 C2929 1.434 . S
C2931 C2932 1.369 . S
C2931 C2933 1.419 . S
C2931 H2935 0.930 . S
C2932 C2931 1.369 . S
C2932 C2941 1.429 . S
C2933 C2931 1.419 . S
C2933 C2934 1.363 . S
C2933 H2936 0.929 . S
C2934 C2933 1.363 . S
C2934 C2940 1.428 . S
H2935 C2931 0.930 . S
H2936 C2933 0.929 . S
S2937 N2938 1.613 . S
S2937 N2939 1.610 . S
N2938 S2937 1.613 . S
N2938 C2941 1.350 . S
N2939 S2937 1.610 . S
N2939 C2940 1.351 . S
C2940 C2934 1.428 . S
C2940 N2939 1.351 . S
C2940 C2941 1.434 . S
C2941 C2932 1.429 . S
C2941 N2938 1.350 . S
C2941 C2940 1.434 . S
C2942 C2943 1.369 . S
C2942 C2944 1.419 . S
C2942 H2946 0.930 . S
C2943 C2942 1.369 . S
C2943 C2952 1.429 . S
C2944 C2942 1.419 . S
C2944 C2945 1.363 . S
C2944 H2947 0.929 . S
C2945 C2944 1.363 . S
C2945 C2951 1.428 . S
H2946 C2942 0.930 . S
H2947 C2944 0.929 . S
S2948 N2949 1.613 . S
S2948 N2950 1.610 . S
N2949 S2948 1.613 . S
N2949 C2952 1.350 . S
N2950 S2948 1.610 . S
N2950 C2951 1.351 . S
C2951 C2945 1.428 . S
C2951 N2950 1.351 . S
C2951 C2952 1.434 . S
C2952 C2943 1.429 . S
C2952 N2949 1.350 . S
C2952 C2951 1.434 . S
C2953 C2954 1.369 . S
C2953 C2955 1.419 . S
C2953 H2957 0.930 . S
C2954 C2953 1.369 . S
C2954 C2963 1.429 . S
C2955 C2953 1.419 . S
C2955 C2956 1.363 . S
C2955 H2958 0.929 . S
C2956 C2955 1.363 . S
C2956 C2962 1.428 . S
H2957 C2953 0.930 . S
H2958 C2955 0.929 . S
S2959 N2960 1.613 . S
S2959 N2961 1.610 . S
N2960 S2959 1.613 . S
N2960 C2963 1.350 . S
N2961 S2959 1.610 . S
N2961 C2962 1.351 . S
C2962 C2956 1.428 . S
C2962 N2961 1.351 . S
C2962 C2963 1.434 . S
C2963 C2954 1.429 . S
C2963 N2960 1.350 . S
C2963 C2962 1.434 . S
C2964 C2965 1.369 . S
C2964 C2966 1.419 . S
C2964 H2968 0.930 . S
C2965 C2964 1.369 . S
C2965 C2974 1.429 . S
C2966 C2964 1.419 . S
C2966 C2967 1.363 . S
C2966 H2969 0.929 . S
C2967 C2966 1.363 . S
C2967 C2973 1.428 . S
H2968 C2964 0.930 . S
H2969 C2966 0.929 . S
S2970 N2971 1.613 . S
S2970 N2972 1.610 . S
N2971 S2970 1.613 . S
N2971 C2974 1.350 . S
N2972 S2970 1.610 . S
N2972 C2973 1.351 . S
C2973 C2967 1.428 . S
C2973 N2972 1.351 . S
C2973 C2974 1.434 . S
C2974 C2965 1.429 . S
C2974 N2971 1.350 . S
C2974 C2973 1.434 . S
C2975 C2976 1.369 . S
C2975 C2977 1.419 . S
C2975 H2979 0.930 . S
C2976 C2975 1.369 . S
C2976 C2985 1.429 . S
C2977 C2975 1.419 . S
C2977 C2978 1.363 . S
C2977 H2980 0.929 . S
C2978 C2977 1.363 . S
C2978 C2984 1.428 . S
H2979 C2975 0.930 . S
H2980 C2977 0.929 . S
S2981 N2982 1.613 . S
S2981 N2983 1.610 . S
N2982 S2981 1.613 . S
N2982 C2985 1.350 . S
N2983 S2981 1.610 . S
N2983 C2984 1.351 . S
C2984 C2978 1.428 . S
C2984 N2983 1.351 . S
C2984 C2985 1.434 . S
C2985 C2976 1.429 . S
C2985 N2982 1.350 . S
C2985 C2984 1.434 . S
C2986 C2987 1.369 . S
C2986 C2988 1.419 . S
C2986 H2990 0.930 . S
C2987 C2986 1.369 . S
C2987 C2996 1.429 . S
C2988 C2986 1.419 . S
C2988 C2989 1.363 . S
C2988 H2991 0.929 . S
C2989 C2988 1.363 . S
C2989 C2995 1.428 . S
H2990 C2986 0.930 . S
H2991 C2988 0.929 . S
S2992 N2993 1.613 . S
S2992 N2994 1.610 . S
N2993 S2992 1.613 . S
N2993 C2996 1.350 . S
N2994 S2992 1.610 . S
N2994 C2995 1.351 . S
C2995 C2989 1.428 . S
C2995 N2994 1.351 . S
C2995 C2996 1.434 . S
C2996 C2987 1.429 . S
C2996 N2993 1.350 . S
C2996 C2995 1.434 . S
C2997 C2998 1.369 . S
C2997 C2999 1.419 . S
C2997 H3001 0.930 . S
C2998 C2997 1.369 . S
C2998 C3007 1.429 . S
C2999 C2997 1.419 . S
C2999 C3000 1.363 . S
C2999 H3002 0.929 . S
C3000 C2999 1.363 . S
C3000 C3006 1.428 . S
H3001 C2997 0.930 . S
H3002 C2999 0.929 . S
S3003 N3004 1.613 . S
S3003 N3005 1.610 . S
N3004 S3003 1.613 . S
N3004 C3007 1.350 . S
N3005 S3003 1.610 . S
N3005 C3006 1.351 . S
C3006 C3000 1.428 . S
C3006 N3005 1.351 . S
C3006 C3007 1.434 . S
C3007 C2998 1.429 . S
C3007 N3004 1.350 . S
C3007 C3006 1.434 . S
C3008 C3009 1.369 . S
C3008 C3010 1.419 . S
C3008 H3012 0.930 . S
C3009 C3008 1.369 . S
C3009 C3018 1.429 . S
C3010 C3008 1.419 . S
C3010 C3011 1.363 . S
C3010 H3013 0.929 . S
C3011 C3010 1.363 . S
C3011 C3017 1.428 . S
H3012 C3008 0.930 . S
H3013 C3010 0.929 . S
S3014 N3015 1.613 . S
S3014 N3016 1.610 . S
N3015 S3014 1.613 . S
N3015 C3018 1.350 . S
N3016 S3014 1.610 . S
N3016 C3017 1.351 . S
C3017 C3011 1.428 . S
C3017 N3016 1.351 . S
C3017 C3018 1.434 . S
C3018 C3009 1.429 . S
C3018 N3015 1.350 . S
C3018 C3017 1.434 . S
C3019 C3020 1.369 . S
C3019 C3021 1.419 . S
C3019 H3023 0.930 . S
C3020 C3019 1.369 . S
C3020 C3029 1.429 . S
C3021 C3019 1.419 . S
C3021 C3022 1.363 . S
C3021 H3024 0.929 . S
C3022 C3021 1.363 . S
C3022 C3028 1.428 . S
H3023 C3019 0.930 . S
H3024 C3021 0.929 . S
S3025 N3026 1.613 . S
S3025 N3027 1.610 . S
N3026 S3025 1.613 . S
N3026 C3029 1.350 . S
N3027 S3025 1.610 . S
N3027 C3028 1.351 . S
C3028 C3022 1.428 . S
C3028 N3027 1.351 . S
C3028 C3029 1.434 . S
C3029 C3020 1.429 . S
C3029 N3026 1.350 . S
C3029 C3028 1.434 . S
C3030 C3031 1.369 . S
C3030 C3032 1.419 . S
C3030 H3034 0.930 . S
C3031 C3030 1.369 . S
C3031 C3040 1.429 . S
C3032 C3030 1.419 . S
C3032 C3033 1.363 . S
C3032 H3035 0.929 . S
C3033 C3032 1.363 . S
C3033 C3039 1.428 . S
H3034 C3030 0.930 . S
H3035 C3032 0.929 . S
S3036 N3037 1.613 . S
S3036 N3038 1.610 . S
N3037 S3036 1.613 . S
N3037 C3040 1.350 . S
N3038 S3036 1.610 . S
N3038 C3039 1.351 . S
C3039 C3033 1.428 . S
C3039 N3038 1.351 . S
C3039 C3040 1.434 . S
C3040 C3031 1.429 . S
C3040 N3037 1.350 . S
C3040 C3039 1.434 . S
C3041 C3042 1.369 . S
C3041 C3043 1.419 . S
C3041 H3045 0.930 . S
C3042 C3041 1.369 . S
C3042 C3051 1.429 . S
C3043 C3041 1.419 . S
C3043 C3044 1.363 . S
C3043 H3046 0.929 . S
C3044 C3043 1.363 . S
C3044 C3050 1.428 . S
H3045 C3041 0.930 . S
H3046 C3043 0.929 . S
S3047 N3048 1.613 . S
S3047 N3049 1.610 . S
N3048 S3047 1.613 . S
N3048 C3051 1.350 . S
N3049 S3047 1.610 . S
N3049 C3050 1.351 . S
C3050 C3044 1.428 . S
C3050 N3049 1.351 . S
C3050 C3051 1.434 . S
C3051 C3042 1.429 . S
C3051 N3048 1.350 . S
C3051 C3050 1.434 . S
C3052 C3053 1.369 . S
C3052 C3054 1.419 . S
C3052 H3056 0.930 . S
C3053 C3052 1.369 . S
C3053 C3062 1.429 . S
C3054 C3052 1.419 . S
C3054 C3055 1.363 . S
C3054 H3057 0.929 . S
C3055 C3054 1.363 . S
C3055 C3061 1.428 . S
H3056 C3052 0.930 . S
H3057 C3054 0.929 . S
S3058 N3059 1.613 . S
S3058 N3060 1.610 . S
N3059 S3058 1.613 . S
N3059 C3062 1.350 . S
N3060 S3058 1.610 . S
N3060 C3061 1.351 . S
C3061 C3055 1.428 . S
C3061 N3060 1.351 . S
C3061 C3062 1.434 . S
C3062 C3053 1.429 . S
C3062 N3059 1.350 . S
C3062 C3061 1.434 . S
C3063 C3064 1.369 . S
C3063 C3065 1.419 . S
C3063 H3067 0.930 . S
C3064 C3063 1.369 . S
C3064 C3073 1.429 . S
C3065 C3063 1.419 . S
C3065 C3066 1.363 . S
C3065 H3068 0.929 . S
C3066 C3065 1.363 . S
C3066 C3072 1.428 . S
H3067 C3063 0.930 . S
H3068 C3065 0.929 . S
S3069 N3070 1.613 . S
S3069 N3071 1.610 . S
N3070 S3069 1.613 . S
N3070 C3073 1.350 . S
N3071 S3069 1.610 . S
N3071 C3072 1.351 . S
C3072 C3066 1.428 . S
C3072 N3071 1.351 . S
C3072 C3073 1.434 . S
C3073 C3064 1.429 . S
C3073 N3070 1.350 . S
C3073 C3072 1.434 . S
C3074 C3075 1.369 . S
C3074 C3076 1.419 . S
C3074 H3078 0.930 . S
C3075 C3074 1.369 . S
C3075 C3084 1.429 . S
C3076 C3074 1.419 . S
C3076 C3077 1.363 . S
C3076 H3079 0.929 . S
C3077 C3076 1.363 . S
C3077 C3083 1.428 . S
H3078 C3074 0.930 . S
H3079 C3076 0.929 . S
S3080 N3081 1.613 . S
S3080 N3082 1.610 . S
N3081 S3080 1.613 . S
N3081 C3084 1.350 . S
N3082 S3080 1.610 . S
N3082 C3083 1.351 . S
C3083 C3077 1.428 . S
C3083 N3082 1.351 . S
C3083 C3084 1.434 . S
C3084 C3075 1.429 . S
C3084 N3081 1.350 . S
C3084 C3083 1.434 . S
C3085 C3086 1.369 . S
C3085 C3087 1.419 . S
C3085 H3089 0.930 . S
C3086 C3085 1.369 . S
C3086 C3095 1.429 . S
C3087 C3085 1.419 . S
C3087 C3088 1.363 . S
C3087 H3090 0.929 . S
C3088 C3087 1.363 . S
C3088 C3094 1.428 . S
H3089 C3085 0.930 . S
H3090 C3087 0.929 . S
S3091 N3092 1.613 . S
S3091 N3093 1.610 . S
N3092 S3091 1.613 . S
N3092 C3095 1.350 . S
N3093 S3091 1.610 . S
N3093 C3094 1.351 . S
C3094 C3088 1.428 . S
C3094 N3093 1.351 . S
C3094 C3095 1.434 . S
C3095 C3086 1.429 . S
C3095 N3092 1.350 . S
C3095 C3094 1.434 . S
C3096 C3097 1.369 . S
C3096 C3098 1.419 . S
C3096 H3100 0.930 . S
C3097 C3096 1.369 . S
C3097 C3106 1.429 . S
C3098 C3096 1.419 . S
C3098 C3099 1.363 . S
C3098 H3101 0.929 . S
C3099 C3098 1.363 . S
C3099 C3105 1.428 . S
H3100 C3096 0.930 . S
H3101 C3098 0.929 . S
S3102 N3103 1.613 . S
S3102 N3104 1.610 . S
N3103 S3102 1.613 . S
N3103 C3106 1.350 . S
N3104 S3102 1.610 . S
N3104 C3105 1.351 . S
C3105 C3099 1.428 . S
C3105 N3104 1.351 . S
C3105 C3106 1.434 . S
C3106 C3097 1.429 . S
C3106 N3103 1.350 . S
C3106 C3105 1.434 . S
C3107 C3108 1.369 . S
C3107 C3109 1.419 . S
C3107 H3111 0.930 . S
C3108 C3107 1.369 . S
C3108 C3117 1.429 . S
C3109 C3107 1.419 . S
C3109 C3110 1.363 . S
C3109 H3112 0.929 . S
C3110 C3109 1.363 . S
C3110 C3116 1.428 . S
H3111 C3107 0.930 . S
H3112 C3109 0.929 . S
S3113 N3114 1.613 . S
S3113 N3115 1.610 . S
N3114 S3113 1.613 . S
N3114 C3117 1.350 . S
N3115 S3113 1.610 . S
N3115 C3116 1.351 . S
C3116 C3110 1.428 . S
C3116 N3115 1.351 . S
C3116 C3117 1.434 . S
C3117 C3108 1.429 . S
C3117 N3114 1.350 . S
C3117 C3116 1.434 . S
C3118 C3119 1.369 . S
C3118 C3120 1.419 . S
C3118 H3122 0.930 . S
C3119 C3118 1.369 . S
C3119 C3128 1.429 . S
C3120 C3118 1.419 . S
C3120 C3121 1.363 . S
C3120 H3123 0.929 . S
C3121 C3120 1.363 . S
C3121 C3127 1.428 . S
H3122 C3118 0.930 . S
H3123 C3120 0.929 . S
S3124 N3125 1.613 . S
S3124 N3126 1.610 . S
N3125 S3124 1.613 . S
N3125 C3128 1.350 . S
N3126 S3124 1.610 . S
N3126 C3127 1.351 . S
C3127 C3121 1.428 . S
C3127 N3126 1.351 . S
C3127 C3128 1.434 . S
C3128 C3119 1.429 . S
C3128 N3125 1.350 . S
C3128 C3127 1.434 . S
C3129 C3130 1.369 . S
C3129 C3131 1.419 . S
C3129 H3133 0.930 . S
C3130 C3129 1.369 . S
C3130 C3139 1.429 . S
C3131 C3129 1.419 . S
C3131 C3132 1.363 . S
C3131 H3134 0.929 . S
C3132 C3131 1.363 . S
C3132 C3138 1.428 . S
H3133 C3129 0.930 . S
H3134 C3131 0.929 . S
S3135 N3136 1.613 . S
S3135 N3137 1.610 . S
N3136 S3135 1.613 . S
N3136 C3139 1.350 . S
N3137 S3135 1.610 . S
N3137 C3138 1.351 . S
C3138 C3132 1.428 . S
C3138 N3137 1.351 . S
C3138 C3139 1.434 . S
C3139 C3130 1.429 . S
C3139 N3136 1.350 . S
C3139 C3138 1.434 . S
C3140 C3141 1.369 . S
C3140 C3142 1.419 . S
C3140 H3144 0.930 . S
C3141 C3140 1.369 . S
C3141 C3150 1.429 . S
C3142 C3140 1.419 . S
C3142 C3143 1.363 . S
C3142 H3145 0.929 . S
C3143 C3142 1.363 . S
C3143 C3149 1.428 . S
H3144 C3140 0.930 . S
H3145 C3142 0.929 . S
S3146 N3147 1.613 . S
S3146 N3148 1.610 . S
N3147 S3146 1.613 . S
N3147 C3150 1.350 . S
N3148 S3146 1.610 . S
N3148 C3149 1.351 . S
C3149 C3143 1.428 . S
C3149 N3148 1.351 . S
C3149 C3150 1.434 . S
C3150 C3141 1.429 . S
C3150 N3147 1.350 . S
C3150 C3149 1.434 . S
C3151 C3152 1.369 . S
C3151 C3153 1.419 . S
C3151 H3155 0.930 . S
C3152 C3151 1.369 . S
C3152 C3161 1.429 . S
C3153 C3151 1.419 . S
C3153 C3154 1.363 . S
C3153 H3156 0.929 . S
C3154 C3153 1.363 . S
C3154 C3160 1.428 . S
H3155 C3151 0.930 . S
H3156 C3153 0.929 . S
S3157 N3158 1.613 . S
S3157 N3159 1.610 . S
N3158 S3157 1.613 . S
N3158 C3161 1.350 . S
N3159 S3157 1.610 . S
N3159 C3160 1.351 . S
C3160 C3154 1.428 . S
C3160 N3159 1.351 . S
C3160 C3161 1.434 . S
C3161 C3152 1.429 . S
C3161 N3158 1.350 . S
C3161 C3160 1.434 . S
C3162 C3163 1.369 . S
C3162 C3164 1.419 . S
C3162 H3166 0.930 . S
C3163 C3162 1.369 . S
C3163 C3172 1.429 . S
C3164 C3162 1.419 . S
C3164 C3165 1.363 . S
C3164 H3167 0.929 . S
C3165 C3164 1.363 . S
C3165 C3171 1.428 . S
H3166 C3162 0.930 . S
H3167 C3164 0.929 . S
S3168 N3169 1.613 . S
S3168 N3170 1.610 . S
N3169 S3168 1.613 . S
N3169 C3172 1.350 . S
N3170 S3168 1.610 . S
N3170 C3171 1.351 . S
C3171 C3165 1.428 . S
C3171 N3170 1.351 . S
C3171 C3172 1.434 . S
C3172 C3163 1.429 . S
C3172 N3169 1.350 . S
C3172 C3171 1.434 . S
C3173 C3174 1.369 . S
C3173 C3175 1.419 . S
C3173 H3177 0.930 . S
C3174 C3173 1.369 . S
C3174 C3183 1.429 . S
C3175 C3173 1.419 . S
C3175 C3176 1.363 . S
C3175 H3178 0.929 . S
C3176 C3175 1.363 . S
C3176 C3182 1.428 . S
H3177 C3173 0.930 . S
H3178 C3175 0.929 . S
S3179 N3180 1.613 . S
S3179 N3181 1.610 . S
N3180 S3179 1.613 . S
N3180 C3183 1.350 . S
N3181 S3179 1.610 . S
N3181 C3182 1.351 . S
C3182 C3176 1.428 . S
C3182 N3181 1.351 . S
C3182 C3183 1.434 . S
C3183 C3174 1.429 . S
C3183 N3180 1.350 . S
C3183 C3182 1.434 . S
C3184 C3185 1.369 . S
C3184 C3186 1.419 . S
C3184 H3188 0.930 . S
C3185 C3184 1.369 . S
C3185 C3194 1.429 . S
C3186 C3184 1.419 . S
C3186 C3187 1.363 . S
C3186 H3189 0.929 . S
C3187 C3186 1.363 . S
C3187 C3193 1.428 . S
H3188 C3184 0.930 . S
H3189 C3186 0.929 . S
S3190 N3191 1.613 . S
S3190 N3192 1.610 . S
N3191 S3190 1.613 . S
N3191 C3194 1.350 . S
N3192 S3190 1.610 . S
N3192 C3193 1.351 . S
C3193 C3187 1.428 . S
C3193 N3192 1.351 . S
C3193 C3194 1.434 . S
C3194 C3185 1.429 . S
C3194 N3191 1.350 . S
C3194 C3193 1.434 . S
C3195 C3196 1.369 . S
C3195 C3197 1.419 . S
C3195 H3199 0.930 . S
C3196 C3195 1.369 . S
C3196 C3205 1.429 . S
C3197 C3195 1.419 . S
C3197 C3198 1.363 . S
C3197 H3200 0.929 . S
C3198 C3197 1.363 . S
C3198 C3204 1.428 . S
H3199 C3195 0.930 . S
H3200 C3197 0.929 . S
S3201 N3202 1.613 . S
S3201 N3203 1.610 . S
N3202 S3201 1.613 . S
N3202 C3205 1.350 . S
N3203 S3201 1.610 . S
N3203 C3204 1.351 . S
C3204 C3198 1.428 . S
C3204 N3203 1.351 . S
C3204 C3205 1.434 . S
C3205 C3196 1.429 . S
C3205 N3202 1.350 . S
C3205 C3204 1.434 . S
C3206 C3207 1.369 . S
C3206 C3208 1.419 . S
C3206 H3210 0.930 . S
C3207 C3206 1.369 . S
C3207 C3216 1.429 . S
C3208 C3206 1.419 . S
C3208 C3209 1.363 . S
C3208 H3211 0.929 . S
C3209 C3208 1.363 . S
C3209 C3215 1.428 . S
H3210 C3206 0.930 . S
H3211 C3208 0.929 . S
S3212 N3213 1.613 . S
S3212 N3214 1.610 . S
N3213 S3212 1.613 . S
N3213 C3216 1.350 . S
N3214 S3212 1.610 . S
N3214 C3215 1.351 . S
C3215 C3209 1.428 . S
C3215 N3214 1.351 . S
C3215 C3216 1.434 . S
C3216 C3207 1.429 . S
C3216 N3213 1.350 . S
C3216 C3215 1.434 . S
C3217 C3218 1.369 . S
C3217 C3219 1.419 . S
C3217 H3221 0.930 . S
C3218 C3217 1.369 . S
C3218 C3227 1.429 . S
C3219 C3217 1.419 . S
C3219 C3220 1.363 . S
C3219 H3222 0.929 . S
C3220 C3219 1.363 . S
C3220 C3226 1.428 . S
H3221 C3217 0.930 . S
H3222 C3219 0.929 . S
S3223 N3224 1.613 . S
S3223 N3225 1.610 . S
N3224 S3223 1.613 . S
N3224 C3227 1.350 . S
N3225 S3223 1.610 . S
N3225 C3226 1.351 . S
C3226 C3220 1.428 . S
C3226 N3225 1.351 . S
C3226 C3227 1.434 . S
C3227 C3218 1.429 . S
C3227 N3224 1.350 . S
C3227 C3226 1.434 . S
C3228 C3229 1.369 . S
C3228 C3230 1.419 . S
C3228 H3232 0.930 . S
C3229 C3228 1.369 . S
C3229 C3238 1.429 . S
C3230 C3228 1.419 . S
C3230 C3231 1.363 . S
C3230 H3233 0.929 . S
C3231 C3230 1.363 . S
C3231 C3237 1.428 . S
H3232 C3228 0.930 . S
H3233 C3230 0.929 . S
S3234 N3235 1.613 . S
S3234 N3236 1.610 . S
N3235 S3234 1.613 . S
N3235 C3238 1.350 . S
N3236 S3234 1.610 . S
N3236 C3237 1.351 . S
C3237 C3231 1.428 . S
C3237 N3236 1.351 . S
C3237 C3238 1.434 . S
C3238 C3229 1.429 . S
C3238 N3235 1.350 . S
C3238 C3237 1.434 . S
C3239 C3240 1.369 . S
C3239 C3241 1.419 . S
C3239 H3243 0.930 . S
C3240 C3239 1.369 . S
C3240 C3249 1.429 . S
C3241 C3239 1.419 . S
C3241 C3242 1.363 . S
C3241 H3244 0.929 . S
C3242 C3241 1.363 . S
C3242 C3248 1.428 . S
H3243 C3239 0.930 . S
H3244 C3241 0.929 . S
S3245 N3246 1.613 . S
S3245 N3247 1.610 . S
N3246 S3245 1.613 . S
N3246 C3249 1.350 . S
N3247 S3245 1.610 . S
N3247 C3248 1.351 . S
C3248 C3242 1.428 . S
C3248 N3247 1.351 . S
C3248 C3249 1.434 . S
C3249 C3240 1.429 . S
C3249 N3246 1.350 . S
C3249 C3248 1.434 . S
C3250 C3251 1.369 . S
C3250 C3252 1.419 . S
C3250 H3254 0.930 . S
C3251 C3250 1.369 . S
C3251 C3260 1.429 . S
C3252 C3250 1.419 . S
C3252 C3253 1.363 . S
C3252 H3255 0.929 . S
C3253 C3252 1.363 . S
C3253 C3259 1.428 . S
H3254 C3250 0.930 . S
H3255 C3252 0.929 . S
S3256 N3257 1.613 . S
S3256 N3258 1.610 . S
N3257 S3256 1.613 . S
N3257 C3260 1.350 . S
N3258 S3256 1.610 . S
N3258 C3259 1.351 . S
C3259 C3253 1.428 . S
C3259 N3258 1.351 . S
C3259 C3260 1.434 . S
C3260 C3251 1.429 . S
C3260 N3257 1.350 . S
C3260 C3259 1.434 . S
C3261 C3262 1.369 . S
C3261 C3263 1.419 . S
C3261 H3265 0.930 . S
C3262 C3261 1.369 . S
C3262 C3271 1.429 . S
C3263 C3261 1.419 . S
C3263 C3264 1.363 . S
C3263 H3266 0.929 . S
C3264 C3263 1.363 . S
C3264 C3270 1.428 . S
H3265 C3261 0.930 . S
H3266 C3263 0.929 . S
S3267 N3268 1.613 . S
S3267 N3269 1.610 . S
N3268 S3267 1.613 . S
N3268 C3271 1.350 . S
N3269 S3267 1.610 . S
N3269 C3270 1.351 . S
C3270 C3264 1.428 . S
C3270 N3269 1.351 . S
C3270 C3271 1.434 . S
C3271 C3262 1.429 . S
C3271 N3268 1.350 . S
C3271 C3270 1.434 . S
C3272 C3273 1.369 . S
C3272 C3274 1.419 . S
C3272 H3276 0.930 . S
C3273 C3272 1.369 . S
C3273 C3282 1.429 . S
C3274 C3272 1.419 . S
C3274 C3275 1.363 . S
C3274 H3277 0.929 . S
C3275 C3274 1.363 . S
C3275 C3281 1.428 . S
H3276 C3272 0.930 . S
H3277 C3274 0.929 . S
S3278 N3279 1.613 . S
S3278 N3280 1.610 . S
N3279 S3278 1.613 . S
N3279 C3282 1.350 . S
N3280 S3278 1.610 . S
N3280 C3281 1.351 . S
C3281 C3275 1.428 . S
C3281 N3280 1.351 . S
C3281 C3282 1.434 . S
C3282 C3273 1.429 . S
C3282 N3279 1.350 . S
C3282 C3281 1.434 . S
C3283 C3284 1.369 . S
C3283 C3285 1.419 . S
C3283 H3287 0.930 . S
C3284 C3283 1.369 . S
C3284 C3293 1.429 . S
C3285 C3283 1.419 . S
C3285 C3286 1.363 . S
C3285 H3288 0.929 . S
C3286 C3285 1.363 . S
C3286 C3292 1.428 . S
H3287 C3283 0.930 . S
H3288 C3285 0.929 . S
S3289 N3290 1.613 . S
S3289 N3291 1.610 . S
N3290 S3289 1.613 . S
N3290 C3293 1.350 . S
N3291 S3289 1.610 . S
N3291 C3292 1.351 . S
C3292 C3286 1.428 . S
C3292 N3291 1.351 . S
C3292 C3293 1.434 . S
C3293 C3284 1.429 . S
C3293 N3290 1.350 . S
C3293 C3292 1.434 . S
C3294 C3295 1.369 . S
C3294 C3296 1.419 . S
C3294 H3298 0.930 . S
C3295 C3294 1.369 . S
C3295 C3304 1.429 . S
C3296 C3294 1.419 . S
C3296 C3297 1.363 . S
C3296 H3299 0.929 . S
C3297 C3296 1.363 . S
C3297 C3303 1.428 . S
H3298 C3294 0.930 . S
H3299 C3296 0.929 . S
S3300 N3301 1.613 . S
S3300 N3302 1.610 . S
N3301 S3300 1.613 . S
N3301 C3304 1.350 . S
N3302 S3300 1.610 . S
N3302 C3303 1.351 . S
C3303 C3297 1.428 . S
C3303 N3302 1.351 . S
C3303 C3304 1.434 . S
C3304 C3295 1.429 . S
C3304 N3301 1.350 . S
C3304 C3303 1.434 . S
C3305 C3306 1.369 . S
C3305 C3307 1.419 . S
C3305 H3309 0.930 . S
C3306 C3305 1.369 . S
C3306 C3315 1.429 . S
C3307 C3305 1.419 . S
C3307 C3308 1.363 . S
C3307 H3310 0.929 . S
C3308 C3307 1.363 . S
C3308 C3314 1.428 . S
H3309 C3305 0.930 . S
H3310 C3307 0.929 . S
S3311 N3312 1.613 . S
S3311 N3313 1.610 . S
N3312 S3311 1.613 . S
N3312 C3315 1.350 . S
N3313 S3311 1.610 . S
N3313 C3314 1.351 . S
C3314 C3308 1.428 . S
C3314 N3313 1.351 . S
C3314 C3315 1.434 . S
C3315 C3306 1.429 . S
C3315 N3312 1.350 . S
C3315 C3314 1.434 . S
C3316 C3317 1.369 . S
C3316 C3318 1.419 . S
C3316 H3320 0.930 . S
C3317 C3316 1.369 . S
C3317 C3326 1.429 . S
C3318 C3316 1.419 . S
C3318 C3319 1.363 . S
C3318 H3321 0.929 . S
C3319 C3318 1.363 . S
C3319 C3325 1.428 . S
H3320 C3316 0.930 . S
H3321 C3318 0.929 . S
S3322 N3323 1.613 . S
S3322 N3324 1.610 . S
N3323 S3322 1.613 . S
N3323 C3326 1.350 . S
N3324 S3322 1.610 . S
N3324 C3325 1.351 . S
C3325 C3319 1.428 . S
C3325 N3324 1.351 . S
C3325 C3326 1.434 . S
C3326 C3317 1.429 . S
C3326 N3323 1.350 . S
C3326 C3325 1.434 . S
C3327 C3328 1.369 . S
C3327 C3329 1.419 . S
C3327 H3331 0.930 . S
C3328 C3327 1.369 . S
C3328 C3337 1.429 . S
C3329 C3327 1.419 . S
C3329 C3330 1.363 . S
C3329 H3332 0.929 . S
C3330 C3329 1.363 . S
C3330 C3336 1.428 . S
H3331 C3327 0.930 . S
H3332 C3329 0.929 . S
S3333 N3334 1.613 . S
S3333 N3335 1.610 . S
N3334 S3333 1.613 . S
N3334 C3337 1.350 . S
N3335 S3333 1.610 . S
N3335 C3336 1.351 . S
C3336 C3330 1.428 . S
C3336 N3335 1.351 . S
C3336 C3337 1.434 . S
C3337 C3328 1.429 . S
C3337 N3334 1.350 . S
C3337 C3336 1.434 . S
C3338 C3339 1.369 . S
C3338 C3340 1.419 . S
C3338 H3342 0.930 . S
C3339 C3338 1.369 . S
C3339 C3348 1.429 . S
C3340 C3338 1.419 . S
C3340 C3341 1.363 . S
C3340 H3343 0.929 . S
C3341 C3340 1.363 . S
C3341 C3347 1.428 . S
H3342 C3338 0.930 . S
H3343 C3340 0.929 . S
S3344 N3345 1.613 . S
S3344 N3346 1.610 . S
N3345 S3344 1.613 . S
N3345 C3348 1.350 . S
N3346 S3344 1.610 . S
N3346 C3347 1.351 . S
C3347 C3341 1.428 . S
C3347 N3346 1.351 . S
C3347 C3348 1.434 . S
C3348 C3339 1.429 . S
C3348 N3345 1.350 . S
C3348 C3347 1.434 . S
C3349 C3350 1.369 . S
C3349 C3351 1.419 . S
C3349 H3353 0.930 . S
C3350 C3349 1.369 . S
C3350 C3359 1.429 . S
C3351 C3349 1.419 . S
C3351 C3352 1.363 . S
C3351 H3354 0.929 . S
C3352 C3351 1.363 . S
C3352 C3358 1.428 . S
H3353 C3349 0.930 . S
H3354 C3351 0.929 . S
S3355 N3356 1.613 . S
S3355 N3357 1.610 . S
N3356 S3355 1.613 . S
N3356 C3359 1.350 . S
N3357 S3355 1.610 . S
N3357 C3358 1.351 . S
C3358 C3352 1.428 . S
C3358 N3357 1.351 . S
C3358 C3359 1.434 . S
C3359 C3350 1.429 . S
C3359 N3356 1.350 . S
C3359 C3358 1.434 . S
C1249 C4 1.694 . S
C1251 C888 1.693 . S
C1260 C855 1.691 . S
C1262 C23 1.696 . S
C1271 C862 1.691 . S
C1273 C30 1.695 . S
C1282 C49 1.696 . S
C1284 C875 1.692 . S
C1293 C933 1.692 . S
C1295 C62 1.695 . S
C1304 C901 1.692 . S
C1306 C69 1.695 . S
C1315 C914 1.695 . S
C1317 C82 1.693 . S
C1326 C101 1.695 . S
C1328 C836 1.692 . S
C1337 C108 1.695 . S
C1339 C829 1.693 . S
C1348 C121 1.691 . S
C1350 C790 1.695 . S
C1359 C134 1.695 . S
C1361 C803 1.693 . S
C1370 C147 1.692 . S
C1372 C816 1.695 . S
C1381 C160 1.696 . S
C1383 C745 1.692 . S
C1392 C764 1.695 . S
C1394 C179 1.692 . S
C1403 C777 1.691 . S
C1405 C192 1.695 . S
C1414 C205 1.695 . S
C1416 C732 1.693 . S
C1425 C218 1.696 . S
C1427 C719 1.692 . S
C1436 C231 1.694 . S
C1438 C647 1.693 . S
C1447 C654 1.692 . S
C1449 C238 1.695 . S
C1458 C673 1.691 . S
C1460 C257 1.695 . S
C1469 C628 1.691 . S
C1471 C270 1.696 . S
C1480 C277 1.694 . S
C1482 C699 1.693 . S
C1491 C290 1.696 . S
C1493 C706 1.692 . S
C1502 C309 1.693 . S
C1504 C680 1.694 . S
C1513 C316 1.693 . S
C1515 C1200 1.695 . S
C1524 C335 1.694 . S
C1526 C1161 1.694 . S
C1535 C342 1.692 . S
C1537 C1174 1.695 . S
C1546 C361 1.692 . S
C1548 C1193 1.695 . S
C1557 C368 1.695 . S
C1559 C1239 1.692 . S
C1568 C381 1.695 . S
C1570 C1219 1.693 . S
C1579 C1232 1.696 . S
C1581 C400 1.693 . S
C1590 C407 1.694 . S
C1592 C1154 1.694 . S
C1601 C420 1.695 . S
C1603 C1141 1.692 . S
C1612 C1102 1.692 . S
C1614 C433 1.696 . S
C1623 C452 1.693 . S
C1625 C1109 1.693 . S
C1634 C459 1.691 . S
C1636 C1122 1.696 . S
C1645 C478 1.691 . S
C1647 C1063 1.695 . S
C1656 C485 1.696 . S
C1658 C1076 1.692 . S
C1667 C498 1.695 . S
C1669 C1083 1.692 . S
C1678 C1044 1.692 . S
C1680 C517 1.695 . S
C1689 C524 1.693 . S
C1691 C1037 1.695 . S
C1700 C543 1.691 . S
C1702 C953 1.696 . S
C1711 C550 1.692 . S
C1713 C966 1.694 . S
C1722 C985 1.696 . S
C1724 C563 1.692 . S
C1733 C582 1.693 . S
C1735 C946 1.695 . S
C1744 C1005 1.696 . S
C1746 C589 1.692 . S
C1755 C602 1.695 . S
C1757 C1024 1.692 . S
C1766 C615 1.693 . S
C1768 C992 1.694 . S
C1777 C3 1.452 . S
C1779 C512 1.452 . S
C1788 C18 1.453 . S
C1790 C473 1.453 . S
C1799 C484 1.454 . S
C1801 C29 1.453 . S
C1810 C44 1.453 . S
C1812 C497 1.453 . S
C1821 C432 1.453 . S
C1823 C57 1.453 . S
C1832 C447 1.452 . S
C1834 C68 1.452 . S
C1843 C458 1.454 . S
C1845 C81 1.454 . S
C1854 C419 1.451 . S
C1856 C96 1.452 . S
C1865 C406 1.452 . S
C1867 C107 1.452 . S
C1876 C120 1.452 . S
C1878 C367 1.452 . S
C1887 C380 1.451 . S
C1889 C133 1.452 . S
C1898 C146 1.454 . S
C1900 C395 1.454 . S
C1909 C330 1.454 . S
C1911 C159 1.454 . S
C1920 C341 1.451 . S
C1922 C174 1.452 . S
C1931 C187 1.452 . S
C1933 C356 1.452 . S
C1942 C200 1.454 . S
C1944 C315 1.454 . S
C1953 C213 1.454 . S
C1955 C577 1.454 . S
C1964 C226 1.454 . S
C1966 C614 1.454 . S
C1975 C588 1.452 . S
C1977 C237 1.453 . S
C1986 C601 1.452 . S
C1988 C252 1.452 . S
C1997 C265 1.451 . S
C1999 C523 1.452 . S
C2008 C276 1.454 . S
C2010 C549 1.454 . S
C2019 C562 1.452 . S
C2021 C289 1.452 . S
C2030 C304 1.454 . S
C2032 C538 1.454 . S
C2041 C1136 1.454 . S
C2043 C627 1.454 . S
C2052 C1097 1.452 . S
C2054 C642 1.452 . S
C2063 C1108 1.453 . S
C2065 C653 1.453 . S
C2074 C668 1.452 . S
C2076 C1121 1.452 . S
C2085 C1058 1.453 . S
C2087 C679 1.453 . S
C2096 C1071 1.454 . S
C2098 C694 1.454 . S
C2107 C705 1.451 . S
C2109 C1082 1.452 . S
C2118 C718 1.451 . S
C2120 C1043 1.452 . S
C2129 C1032 1.452 . S
C2131 C731 1.452 . S
C2140 C744 1.451 . S
C2142 C991 1.452 . S
C2151 C1004 1.452 . S
C2153 C759 1.452 . S
C2162 C1019 1.451 . S
C2164 C772 1.452 . S
C2173 C785 1.452 . S
C2175 C952 1.452 . S
C2184 C798 1.452 . S
C2186 C965 1.452 . S
C2195 C980 1.451 . S
C2197 C811 1.452 . S
C2206 C824 1.454 . S
C2208 C941 1.454 . S
C2217 C1199 1.451 . S
C2219 C835 1.452 . S
C2228 C1238 1.454 . S
C2230 C850 1.453 . S
C2239 C861 1.452 . S
C2241 C1214 1.452 . S
C2250 C1227 1.452 . S
C2252 C874 1.452 . S
C2261 C1149 1.454 . S
C2263 C887 1.453 . S
C2272 C1173 1.454 . S
C2274 C900 1.454 . S
C2283 C913 1.454 . S
C2285 C1188 1.453 . S
C2294 C1160 1.453 . S
C2296 C928 1.453 . S
C2305 C5 1.325 . S
C2307 C369 1.325 . S
C2316 C382 1.324 . S
C2318 C16 1.324 . S
C2327 C31 1.325 . S
C2329 C393 1.324 . S
C2338 C408 1.322 . S
C2340 C42 1.322 . S
C2349 C55 1.325 . S
C2351 C317 1.325 . S
C2360 C70 1.322 . S
C2362 C328 1.322 . S
C2371 C83 1.323 . S
C2373 C343 1.323 . S
C2382 C354 1.323 . S
C2384 C94 1.323 . S
C2393 C499 1.325 . S
C2395 C109 1.325 . S
C2404 C122 1.324 . S
C2406 C510 1.324 . S
C2415 C135 1.321 . S
C2417 C471 1.322 . S
C2426 C148 1.324 . S
C2428 C486 1.324 . S
C2437 C161 1.322 . S
C2439 C445 1.322 . S
C2448 C172 1.324 . S
C2450 C460 1.324 . S
C2459 C185 1.321 . S
C2461 C421 1.321 . S
C2470 C198 1.322 . S
C2472 C434 1.322 . S
C2481 C211 1.323 . S
C2483 C590 1.323 . S
C2492 C224 1.323 . S
C2494 C564 1.323 . S
C2503 C575 1.321 . S
C2505 C239 1.321 . S
C2514 C250 1.322 . S
C2516 C536 1.322 . S
C2525 C551 1.325 . S
C2527 C263 1.325 . S
C2536 C278 1.321 . S
C2538 C525 1.321 . S
C2547 C291 1.321 . S
C2549 C616 1.321 . S
C2558 C603 1.321 . S
C2560 C302 1.321 . S
C2569 C993 1.321 . S
C2571 C629 1.321 . S
C2580 C640 1.324 . S
C2582 C1006 1.323 . S
C2591 C1017 1.322 . S
C2593 C655 1.322 . S
C2602 C666 1.323 . S
C2604 C1030 1.323 . S
C2613 C939 1.325 . S
C2615 C681 1.325 . S
C2624 C954 1.322 . S
C2626 C692 1.322 . S
C2635 C967 1.324 . S
C2637 C707 1.324 . S
C2646 C720 1.322 . S
C2648 C978 1.322 . S
C2657 C733 1.325 . S
C2659 C1123 1.325 . S
C2668 C1134 1.321 . S
C2670 C746 1.321 . S
C2679 C1095 1.322 . S
C2681 C757 1.322 . S
C2690 C1110 1.321 . S
C2692 C770 1.322 . S
C2701 C783 1.324 . S
C2703 C1069 1.324 . S
C2712 C796 1.325 . S
C2714 C1084 1.324 . S
C2723 C1045 1.321 . S
C2725 C809 1.321 . S
C2734 C1056 1.325 . S
C2736 C822 1.324 . S
C2745 C1212 1.321 . S
C2747 C837 1.321 . S
C2756 C848 1.324 . S
C2758 C1186 1.324 . S
C2767 C1201 1.321 . S
C2769 C863 1.321 . S
C2778 C876 1.322 . S
C2780 C1162 1.322 . S
C2789 C889 1.325 . S
C2791 C1175 1.324 . S
C2800 C902 1.321 . S
C2802 C1147 1.321 . S
C2811 C1240 1.323 . S
C2813 C915 1.323 . S
C2822 C926 1.323 . S
C2824 C1225 1.323 . S
C2833 C413 1.662 . S
C2835 C10 1.663 . S
C2844 C374 1.661 . S
C2846 C17 1.662 . S
C2855 C36 1.665 . S
C2857 C387 1.665 . S
C2866 C394 1.666 . S
C2868 C43 1.665 . S
C2877 C329 1.663 . S
C2879 C56 1.663 . S
C2888 C75 1.662 . S
C2890 C348 1.662 . S
C2899 C88 1.664 . S
C2901 C355 1.664 . S
C2910 C322 1.666 . S
C2912 C95 1.665 . S
C2921 C576 1.666 . S
C2923 C114 1.665 . S
C2932 C127 1.663 . S
C2934 C537 1.663 . S
C2943 C140 1.663 . S
C2945 C556 1.663 . S
C2954 C569 1.665 . S
C2956 C153 1.665 . S
C2965 C166 1.664 . S
C2967 C621 1.664 . S
C2976 C595 1.664 . S
C2978 C173 1.664 . S
C2987 C608 1.665 . S
C2989 C186 1.665 . S
C2998 C199 1.666 . S
C3000 C530 1.665 . S
C3009 C212 1.665 . S
C3011 C511 1.665 . S
C3020 C225 1.663 . S
C3022 C439 1.663 . S
C3031 C244 1.661 . S
C3033 C446 1.662 . S
C3042 C465 1.662 . S
C3044 C251 1.662 . S
C3053 C426 1.666 . S
C3055 C264 1.665 . S
C3064 C283 1.662 . S
C3066 C491 1.662 . S
C3075 C296 1.661 . S
C3077 C504 1.662 . S
C3086 C303 1.665 . S
C3088 C472 1.665 . S
C3097 C634 1.666 . S
C3099 C1031 1.665 . S
C3108 C641 1.661 . S
C3110 C998 1.662 . S
C3119 C660 1.661 . S
C3121 C1011 1.662 . S
C3130 C1018 1.664 . S
C3132 C667 1.664 . S
C3141 C959 1.661 . S
C3143 C686 1.662 . S
C3152 C972 1.665 . S
C3154 C693 1.665 . S
C3163 C712 1.662 . S
C3165 C979 1.662 . S
C3174 C940 1.664 . S
C3176 C725 1.664 . S
C3185 C1206 1.661 . S
C3187 C738 1.662 . S
C3196 C1167 1.665 . S
C3198 C751 1.665 . S
C3207 C1180 1.666 . S
C3209 C758 1.665 . S
C3218 C1187 1.662 . S
C3220 C771 1.662 . S
C3229 C1245 1.666 . S
C3231 C784 1.665 . S
C3240 C1213 1.662 . S
C3242 C797 1.662 . S
C3251 C1226 1.662 . S
C3253 C810 1.662 . S
C3262 C1148 1.662 . S
C3264 C823 1.662 . S
C3273 C842 1.665 . S
C3275 C1135 1.665 . S
C3284 C1057 1.662 . S
C3286 C849 1.662 . S
C3295 C1070 1.664 . S
C3297 C868 1.664 . S
C3306 C1089 1.664 . S
C3308 C881 1.664 . S
C3317 C1050 1.662 . S
C3319 C894 1.663 . S
C3328 C1115 1.664 . S
C3330 C907 1.664 . S
C3339 C1128 1.666 . S
C3341 C920 1.665 . S
C3350 C1096 1.663 . S
C3352 C927 1.663 . S
