# Generated by pormake.
# Topology dft, (4)-cn, num edge types: 1
# Building blocks:
#     Node 0, Type 0, BuildingBlock: QUQFOY_clean_sbu_1, # of connection points: 4
#     Node 1, Type 0, BuildingBlock: QUQFOY_clean_sbu_1, # of connection points: 4
#     Node 2, Type 0, BuildingBlock: QUQFOY_clean_sbu_1, # of connection points: 4
#     Node 3, Type 0, BuildingBlock: QUQFOY_clean_sbu_1, # of connection points: 4
#     Node 4, Type 0, BuildingBlock: QUQFOY_clean_sbu_1, # of connection points: 4
#     Node 5, Type 0, BuildingBlock: QUQFOY_clean_sbu_1, # of connection points: 4
#     Node 6, Type 0, BuildingBlock: QUQFOY_clean_sbu_1, # of connection points: 4
#     Node 7, Type 0, BuildingBlock: QUQFOY_clean_sbu_1, # of connection points: 4
#     Edge 8, Type (0, 0), BuildingBlock: FUNLAD_clean_linker_1, # of connection points: 2
#     Edge 9, Type (0, 0), BuildingBlock: FUNLAD_clean_linker_1, # of connection points: 2
#     Edge 10, Type (0, 0), BuildingBlock: FUNLAD_clean_linker_1, # of connection points: 2
#     Edge 11, Type (0, 0), BuildingBlock: FUNLAD_clean_linker_1, # of connection points: 2
#     Edge 12, Type (0, 0), BuildingBlock: FUNLAD_clean_linker_1, # of connection points: 2
#     Edge 13, Type (0, 0), BuildingBlock: FUNLAD_clean_linker_1, # of connection points: 2
#     Edge 14, Type (0, 0), BuildingBlock: FUNLAD_clean_linker_1, # of connection points: 2
#     Edge 15, Type (0, 0), BuildingBlock: FUNLAD_clean_linker_1, # of connection points: 2
#     Edge 16, Type (0, 0), BuildingBlock: FUNLAD_clean_linker_1, # of connection points: 2
#     Edge 17, Type (0, 0), BuildingBlock: FUNLAD_clean_linker_1, # of connection points: 2
#     Edge 18, Type (0, 0), BuildingBlock: FUNLAD_clean_linker_1, # of connection points: 2
#     Edge 19, Type (0, 0), BuildingBlock: FUNLAD_clean_linker_1, # of connection points: 2
#     Edge 20, Type (0, 0), BuildingBlock: FUNLAD_clean_linker_1, # of connection points: 2
#     Edge 21, Type (0, 0), BuildingBlock: FUNLAD_clean_linker_1, # of connection points: 2
#     Edge 22, Type (0, 0), BuildingBlock: FUNLAD_clean_linker_1, # of connection points: 2
#     Edge 23, Type (0, 0), BuildingBlock: FUNLAD_clean_linker_1, # of connection points: 2
# Relax obj value: 0.210
# Max RMSD: 0.224
# Mean RMSD: 0.224
data_MOF--net-dft--node1-QUQFOY_clean_sbu_1--edge1-FUNLAD_clean_linker_1
_symmetry_space_group_name_H-M    P1
_symmetry_Int_Tables_number       1
_symmetry_cell_setting            triclinic
loop_
_symmetry_equiv_pos_as_xyz
'x, y, z'
_cell_length_a     38.321395
_cell_length_b     38.379507
_cell_length_c     41.632193
_cell_angle_alpha  90.016828
_cell_angle_beta   89.895683
_cell_angle_gamma 89.984283
loop_
_atom_site_label
_atom_site_type_symbol
_atom_site_fract_x
_atom_site_fract_y
_atom_site_fract_z
_atom_type_partial_charge
O0 O 0.35234 0.07396 0.14061 0.0
Cd1 Cd 0.35086 0.07839 0.18988 0.0
Cd2 Cd 0.29919 0.0265 0.18291 0.0
O3 O 0.31707 0.02866 0.13619 0.0
O4 O 0.39442 0.10377 0.2011 0.0
O5 O 0.38475 0.04872 0.21453 0.0
C6 C 0.40553 0.07525 0.21379 0.0
C7 C 0.28258 0.9723 0.20355 0.0
C8 C 0.33752 0.05089 0.12359 0.0
C9 C 0.27836 0.09658 0.21076 0.0
O10 O 0.2691 0.06707 0.19997 0.0
O11 O 0.31022 0.1058 0.21052 0.0
O12 O 0.26519 0.98734 0.18106 0.0
O13 O 0.31038 0.98751 0.21395 0.0
O14 O 0.99475 0.3525 0.63824 0.0
Cd15 Cd 0.99383 0.3559 0.68758 0.0
Cd16 Cd 0.03359 0.29656 0.68352 0.0
O17 O 0.03336 0.30988 0.63544 0.0
O18 O 0.98275 0.40529 0.6977 0.0
O19 O 0.03339 0.38045 0.70953 0.0
C20 C 0.01389 0.40792 0.70919 0.0
C21 C 0.08618 0.27569 0.70448 0.0
C22 C 0.01437 0.33265 0.62184 0.0
C23 C 0.96151 0.29201 0.71409 0.0
O24 O 0.98845 0.27623 0.70365 0.0
O25 O 0.95886 0.32485 0.7117 0.0
O26 O 0.06698 0.25685 0.68599 0.0
O27 O 0.07573 0.30686 0.71107 0.0
O28 O 0.7285 0.01175 0.13382 0.0
Cd29 Cd 0.72016 1.00006 0.18165 0.0
Cd30 Cd 0.78334 0.04046 0.18762 0.0
O31 O 0.77563 0.04453 0.13888 0.0
O32 O 0.67305 0.97821 0.18196 0.0
O33 O 0.68457 0.02797 0.20662 0.0
C34 C 0.66227 0.00423 0.19874 0.0
C35 C 0.80602 0.08981 0.21325 0.0
C36 C 0.75234 0.03054 0.12153 0.0
C37 C 0.78373 0.96516 0.20977 0.0
O38 O 0.80051 0.99329 0.20516 0.0
O39 O 0.75155 0.96289 0.2029 0.0
O40 O 0.82455 0.07128 0.1939 0.0
O41 O 0.77412 0.0805 0.21822 0.0
O42 O 0.07207 0.73008 0.64075 0.0
Cd43 Cd 0.07117 0.72754 0.69 0.0
Cd44 Cd 0.02467 0.78408 0.68309 0.0
O45 O 0.02983 0.7689 0.63558 0.0
O46 O 0.08614 0.67955 0.7014 0.0
O47 O 0.03289 0.6999 0.71079 0.0
C48 C 0.05476 0.67427 0.7116 0.0
C49 C 0.97128 0.80931 0.69775 0.0
C50 C 0.05163 0.74777 0.62323 0.0
C51 C 0.09491 0.79457 0.71709 0.0
O52 O 0.06668 0.80701 0.70601 0.0
O53 O 0.10189 0.76234 0.71453 0.0
O54 O 0.99319 0.82518 0.67955 0.0
O55 O 0.97898 0.77825 0.70731 0.0
O56 O 0.3422 0.01471 0.86279 0.0
Cd57 Cd 0.34988 0.00303 0.8149 0.0
Cd58 Cd 0.28126 0.03989 0.81206 0.0
O59 O 0.2913 0.04193 0.86059 0.0
O60 O 0.39724 0.98167 0.81497 0.0
O61 O 0.38533 0.03085 0.78958 0.0
C62 C 0.40783 0.00746 0.79785 0.0
C63 C 0.24929 0.08715 0.7919 0.0
C64 C 0.31706 0.03042 0.8765 0.0
C65 C 0.28753 0.96516 0.78731 0.0
O66 O 0.26915 0.99221 0.79228 0.0
O67 O 0.31977 0.96451 0.79424 0.0
O68 O 0.2351 0.06366 0.80957 0.0
O69 O 0.28209 0.08415 0.7853 0.0
O70 O 0.07643 0.35448 0.35893 0.0
Cd71 Cd 0.07744 0.35731 0.30955 0.0
Cd72 Cd 0.03687 0.29805 0.31414 0.0
O73 O 0.03556 0.31407 0.3615 0.0
O74 O 0.0902 0.40619 0.29907 0.0
O75 O 0.03868 0.38313 0.28751 0.0
C76 C 0.05915 0.40988 0.28763 0.0
C77 C 0.98572 0.27351 0.29353 0.0
C78 C 0.05539 0.33604 0.37519 0.0
C79 C 0.1093 0.29221 0.28477 0.0
O80 O 0.08258 0.27678 0.29605 0.0
O81 O 0.11176 0.32516 0.2858 0.0
O82 O 0.00414 0.25774 0.31487 0.0
O83 O 0.99602 0.30375 0.28386 0.0
O84 O 0.72167 0.06996 0.85698 0.0
Cd85 Cd 0.72106 0.0762 0.8079 0.0
Cd86 Cd 0.77463 0.02465 0.81256 0.0
O87 O 0.76145 0.02839 0.86058 0.0
O88 O 0.67744 0.10287 0.79978 0.0
O89 O 0.68542 0.0486 0.78317 0.0
C90 C 0.66525 0.07543 0.786 0.0
C91 C 0.78896 0.96941 0.79272 0.0
C92 C 0.73954 0.04886 0.87367 0.0
C93 C 0.79201 0.0951 0.78296 0.0
O94 O 0.80197 0.06499 0.79159 0.0
O95 O 0.76051 0.10472 0.78667 0.0
O96 O 0.8097 0.9864 0.8113 0.0
O97 O 0.75927 0.98337 0.7858 0.0
O98 O 0.00185 0.72999 0.35876 0.0
Cd99 Cd 1.00079 0.72828 0.30941 0.0
Cd100 Cd 0.04956 0.77913 0.31434 0.0
O101 O 0.04846 0.76361 0.36187 0.0
O102 O 0.98647 0.68041 0.29685 0.0
O103 O 0.03914 0.70226 0.28728 0.0
C104 C 0.01787 0.67616 0.28618 0.0
C105 C 0.10317 0.79525 0.29188 0.0
C106 C 0.02527 0.74491 0.37531 0.0
C107 C 0.97865 0.79712 0.28602 0.0
O108 O 0.0078 0.80754 0.29686 0.0
O109 O 0.97065 0.76501 0.28661 0.0
O110 O 0.08801 0.81398 0.31343 0.0
O111 O 0.08846 0.7664 0.28356 0.0
H112 H 0.3645 0.06719 0.07921 0.0
C113 C 0.34403 0.05048 0.08872 0.0
H114 H 0.30449 0.0141 0.07778 0.0
H115 H 0.33889 0.0943 0.93856 0.0
H116 H 0.32028 0.14761 0.96477 0.0
H117 H 0.30427 0.14781 0.02219 0.0
H118 H 0.30784 0.09506 0.05388 0.0
C119 C 0.32467 0.03128 0.06851 0.0
C120 C 0.33131 0.03109 0.03328 0.0
C121 C 0.327 0.06186 0.01477 0.0
C122 C 0.33381 0.06124 0.98119 0.0
C123 C 0.33207 0.09288 0.96374 0.0
C124 C 0.32172 0.12374 0.97855 0.0
C125 C 0.31289 0.12389 0.0109 0.0
C126 C 0.31538 0.09341 0.0289 0.0
H127 H 0.29279 0.04386 0.92283 0.0
C128 C 0.31675 0.03465 0.91165 0.0
H129 H 0.36847 0.0176 0.9193 0.0
H130 H 0.34373 0.96802 0.06191 0.0
H131 H 0.35987 0.91426 0.03518 0.0
H132 H 0.36756 0.91227 0.97637 0.0
H133 H 0.35955 0.96408 0.94401 0.0
C134 C 0.34455 0.02735 0.9301 0.0
C135 C 0.34221 0.02933 0.96577 0.0
C136 C 0.34669 0.99864 0.98427 0.0
C137 C 0.34151 0.9996 0.01809 0.0
C138 C 0.34671 0.96869 0.03607 0.0
C139 C 0.35607 0.93763 0.02105 0.0
C140 C 0.36045 0.93652 0.98795 0.0
C141 C 0.3558 0.96654 0.96966 0.0
H142 H 0.99319 0.35043 0.57545 0.0
C143 C 0.0143 0.33589 0.5866 0.0
H144 H 0.0605 0.30709 0.57918 0.0
H145 H 0.03191 0.2594 0.43778 0.0
H146 H 0.03307 0.20455 0.46643 0.0
H147 H 0.0355 0.20316 0.5256 0.0
H148 H 0.03729 0.25661 0.55643 0.0
C149 C 0.03947 0.32185 0.56818 0.0
C150 C 0.03778 0.32322 0.53246 0.0
C151 C 0.03597 0.29165 0.51482 0.0
C152 C 0.03358 0.29247 0.48075 0.0
C153 C 0.03294 0.26047 0.46372 0.0
C154 C 0.0337 0.2287 0.47986 0.0
C155 C 0.03513 0.22792 0.51316 0.0
C156 C 0.03624 0.25889 0.53056 0.0
H157 H 0.07672 0.35304 0.4218 0.0
C158 C 0.05525 0.33924 0.41045 0.0
H159 H 0.00869 0.31094 0.41743 0.0
H160 H 0.04712 0.38848 0.55813 0.0
H161 H 0.04226 0.44346 0.5299 0.0
H162 H 0.03029 0.44494 0.47171 0.0
H163 H 0.02427 0.39143 0.44132 0.0
C164 C 0.02997 0.32512 0.42867 0.0
C165 C 0.03213 0.32486 0.46439 0.0
C166 C 0.03316 0.35647 0.48209 0.0
C167 C 0.03746 0.35563 0.51602 0.0
C168 C 0.04167 0.38755 0.53268 0.0
C169 C 0.03928 0.41934 0.51671 0.0
C170 C 0.03273 0.42016 0.48393 0.0
C171 C 0.02965 0.3892 0.46671 0.0
H172 H 0.71204 0.06274 0.91839 0.0
C173 C 0.73403 0.04822 0.90868 0.0
H174 H 0.77707 0.01592 0.91931 0.0
H175 H 0.72805 0.09181 0.05781 0.0
H176 H 0.74191 0.14686 0.03225 0.0
H177 H 0.76125 0.14882 0.97572 0.0
H178 H 0.76572 0.09593 0.94423 0.0
C179 C 0.75535 0.03101 0.92874 0.0
C180 C 0.7484 0.02981 0.96394 0.0
C181 C 0.7482 0.06085 0.98253 0.0
C182 C 0.73956 0.05947 0.01573 0.0
C183 C 0.73652 0.09113 0.03303 0.0
C184 C 0.74409 0.12296 0.01857 0.0
C185 C 0.75479 0.12408 0.98671 0.0
C186 C 0.75692 0.0935 0.9688 0.0
H187 H 0.77783 0.04741 0.07677 0.0
C188 C 0.75445 0.03525 0.08648 0.0
H189 H 0.70604 0.01183 0.07571 0.0
H190 H 0.74561 0.96559 0.9352 0.0
H191 H 0.73496 0.91031 0.96152 0.0
H192 H 0.72446 0.90747 0.01992 0.0
H193 H 0.7241 0.95991 0.05227 0.0
C194 C 0.72923 0.02461 0.06637 0.0
C195 C 0.73401 0.02681 0.0309 0.0
C196 C 0.73462 0.99577 0.01241 0.0
C197 C 0.7415 0.99731 0.97886 0.0
C198 C 0.74117 0.96595 0.96086 0.0
C199 C 0.73501 0.93399 0.97565 0.0
C200 C 0.72905 0.9324 0.00851 0.0
C201 C 0.72886 0.96279 0.0268 0.0
H202 H 1.00118 0.72985 0.42134 0.0
C203 C 0.02414 0.74171 0.41053 0.0
H204 H 0.07249 0.76637 0.41889 0.0
H205 H 0.03759 0.82319 0.55658 0.0
H206 H 0.04496 0.87635 0.526 0.0
H207 H 0.05212 0.87457 0.46714 0.0
H208 H 0.05238 0.81962 0.43858 0.0
C209 C 0.04976 0.75386 0.42945 0.0
C210 C 0.04595 0.75443 0.46504 0.0
C211 C 0.04528 0.78691 0.4813 0.0
C212 C 0.04031 0.788 0.51513 0.0
C213 C 0.04061 0.82078 0.53084 0.0
C214 C 0.0449 0.85156 0.51359 0.0
C215 C 0.04899 0.85056 0.48047 0.0
C216 C 0.04917 0.81874 0.46438 0.0
H217 H 0.07605 0.72944 0.57833 0.0
C218 C 0.05418 0.74409 0.5881 0.0
H219 H 0.0091 0.77351 0.57753 0.0
H220 H 0.0515 0.68753 0.4423 0.0
H221 H 0.04097 0.63447 0.47235 0.0
H222 H 0.02567 0.63673 0.52991 0.0
H223 H 0.02181 0.69198 0.55788 0.0
C224 C 0.0307 0.75827 0.56806 0.0
C225 C 0.03539 0.75665 0.53259 0.0
C226 C 0.03547 0.72417 0.51626 0.0
C227 C 0.04201 0.72299 0.48263 0.0
C228 C 0.04473 0.69008 0.46741 0.0
C229 C 0.03904 0.65937 0.48445 0.0
C230 C 0.03061 0.66063 0.51688 0.0
C231 C 0.02877 0.69256 0.53271 0.0
H232 H 0.45772 0.09655 0.22337 0.0
C233 C 0.44234 0.07274 0.22364 0.0
H234 H 0.44416 0.01777 0.22539 0.0
H235 H 0.59403 0.03942 0.15786 0.0
H236 H 0.55806 0.03511 0.11029 0.0
H237 H 0.49392 0.03227 0.11463 0.0
H238 H 0.46543 0.03431 0.16661 0.0
C239 C 0.45865 0.04203 0.22702 0.0
C240 C 0.49737 0.04042 0.22518 0.0
C241 C 0.51367 0.03769 0.19469 0.0
C242 C 0.55067 0.03791 0.19227 0.0
C243 C 0.56612 0.0376 0.16131 0.0
C244 C 0.54575 0.03551 0.13371 0.0
C245 C 0.50965 0.03401 0.13614 0.0
C246 C 0.49365 0.03523 0.16617 0.0
H247 H 0.60831 0.98507 0.20007 0.0
C248 C 0.62489 0.00692 0.20665 0.0
H249 H 0.62604 0.05821 0.22519 0.0
H250 H 0.47419 0.04662 0.28692 0.0
H251 H 0.51013 0.0505 0.33487 0.0
H252 H 0.57438 0.04888 0.33098 0.0
H253 H 0.60316 0.04359 0.27916 0.0
C254 C 0.6101 0.03608 0.2182 0.0
C255 C 0.57137 0.03904 0.22054 0.0
C256 C 0.55502 0.04218 0.25099 0.0
C257 C 0.51794 0.04295 0.25329 0.0
C258 C 0.50224 0.04599 0.28394 0.0
C259 C 0.52255 0.04817 0.31159 0.0
C260 C 0.55874 0.04726 0.3094 0.0
C261 C 0.57493 0.04423 0.27952 0.0
H262 H 0.05551 0.44382 0.72511 0.0
C263 C 0.02802 0.44207 0.71893 0.0
H264 H 0.98138 0.46999 0.71027 0.0
H265 H 0.04563 0.60525 0.77983 0.0
H266 H 0.0186 0.57945 0.82698 0.0
H267 H 0.9941 0.52004 0.82498 0.0
H268 H 0.99669 0.48591 0.77583 0.0
C269 C 0.0088 0.47126 0.71674 0.0
C270 C 0.02503 0.50633 0.71865 0.0
C271 C 0.02294 0.52603 0.74735 0.0
C272 C 0.03661 0.5605 0.74834 0.0
C273 C 0.03497 0.57927 0.77757 0.0
C274 C 0.01969 0.5647 0.80483 0.0
C275 C 0.00592 0.53123 0.80372 0.0
C276 C 0.00751 0.51195 0.77538 0.0
H277 H 0.01548 0.63486 0.72533 0.0
C278 C 0.04314 0.63906 0.72097 0.0
H279 H 0.09256 0.61568 0.715 0.0
H280 H 0.03288 0.4756 0.65959 0.0
H281 H 0.05968 0.50125 0.61248 0.0
H282 H 0.08318 0.56105 0.61404 0.0
H283 H 0.07998 0.59551 0.66267 0.0
C284 C 0.06509 0.61172 0.72043 0.0
C285 C 0.05186 0.57527 0.72044 0.0
C286 C 0.05441 0.5553 0.69183 0.0
C287 C 0.04086 0.52085 0.69091 0.0
C288 C 0.043 0.50179 0.66179 0.0
C289 C 0.05826 0.51623 0.63449 0.0
C290 C 0.07149 0.54987 0.63537 0.0
C291 C 0.06957 0.56934 0.66356 0.0
H292 H 0.613 0.09814 0.78032 0.0
C293 C 0.62808 0.07436 0.77716 0.0
H294 H 0.6255 0.02012 0.76841 0.0
H295 H 0.47452 0.04712 0.83772 0.0
H296 H 0.50949 0.04571 0.8861 0.0
H297 H 0.57368 0.04191 0.88305 0.0
H298 H 0.60321 0.04019 0.83158 0.0
C299 C 0.6113 0.0445 0.7707 0.0
C300 C 0.57253 0.04327 0.77215 0.0
C301 C 0.55562 0.04272 0.80249 0.0
C302 C 0.5186 0.04324 0.80426 0.0
C303 C 0.5025 0.04501 0.8349 0.0
C304 C 0.52229 0.04456 0.86292 0.0
C305 C 0.55841 0.04255 0.8612 0.0
C306 C 0.57503 0.04171 0.83144 0.0
H307 H 0.46201 0.98896 0.79752 0.0
C308 C 0.44521 0.01033 0.79008 0.0
H309 H 0.44367 0.0608 0.7697 0.0
H310 H 0.59688 0.0448 0.71053 0.0
H311 H 0.56184 0.04509 0.66188 0.0
H312 H 0.49753 0.04388 0.66484 0.0
H313 H 0.46777 0.04259 0.71642 0.0
C314 C 0.45975 0.03912 0.77759 0.0
C315 C 0.49847 0.04233 0.77565 0.0
C316 C 0.51539 0.04313 0.74535 0.0
C317 C 0.5525 0.04361 0.74362 0.0
C318 C 0.56877 0.04437 0.7131 0.0
C319 C 0.54899 0.04451 0.68505 0.0
C320 C 0.51276 0.04383 0.68672 0.0
C321 C 0.49601 0.04309 0.71645 0.0
H322 H 0.01856 0.44754 0.27289 0.0
C323 C 0.04625 0.4445 0.27776 0.0
H324 H 0.0946 0.46979 0.28412 0.0
H325 H 0.99804 0.59652 0.21994 0.0
H326 H 0.99664 0.56136 0.17137 0.0
H327 H 0.02152 0.50205 0.17076 0.0
H328 H 0.04772 0.47738 0.21871 0.0
C329 C 0.06711 0.47266 0.27826 0.0
C330 C 0.05265 0.50864 0.27765 0.0
C331 C 0.03781 0.52272 0.24929 0.0
C332 C 0.02394 0.55714 0.24948 0.0
C333 C 0.00902 0.57056 0.22098 0.0
C334 C 0.0081 0.55069 0.19298 0.0
C335 C 0.02208 0.51727 0.19265 0.0
C336 C 0.03689 0.50335 0.22038 0.0
H337 H 0.05792 0.63852 0.27031 0.0
C338 C 0.03043 0.64147 0.27621 0.0
H339 H 0.98275 0.61539 0.28511 0.0
H340 H 0.07905 0.48952 0.33633 0.0
H341 H 0.08068 0.52486 0.38448 0.0
H342 H 0.05681 0.58455 0.38464 0.0
H343 H 0.0312 0.60921 0.33661 0.0
C344 C 0.01011 0.61305 0.27859 0.0
C345 C 0.0254 0.57748 0.27782 0.0
C346 C 0.04036 0.56347 0.30614 0.0
C347 C 0.05412 0.52908 0.30603 0.0
C348 C 0.06855 0.51563 0.33482 0.0
C349 C 0.06955 0.5356 0.36274 0.0
C350 C 0.0561 0.56918 0.36284 0.0
C351 C 0.04156 0.58305 0.33501 0.0
H352 H 0.16201 0.28578 0.2641 0.0
C353 C 0.13864 0.27186 0.27153 0.0
H354 H 0.11496 0.22265 0.27774 0.0
H355 H 0.24804 0.18809 0.17897 0.0
H356 H 0.21908 0.22566 0.14042 0.0
H357 H 0.16623 0.25855 0.15555 0.0
H358 H 0.14223 0.25439 0.2093 0.0
C359 C 0.13775 0.23693 0.26945 0.0
C360 C 0.16896 0.21648 0.25948 0.0
C361 C 0.18226 0.21888 0.2277 0.0
C362 C 0.21219 0.19922 0.2187 0.0
C363 C 0.22519 0.20225 0.18696 0.0
C364 C 0.20882 0.22369 0.1646 0.0
C365 C 0.17911 0.24227 0.17314 0.0
C366 C 0.16577 0.23986 0.20421 0.0
H367 H 0.22479 0.10984 0.22553 0.0
C368 C 0.25114 0.12008 0.22327 0.0
H369 H 0.28295 0.16494 0.2274 0.0
H370 H 0.15063 0.20625 0.3225 0.0
H371 H 0.17907 0.16775 0.36045 0.0
H372 H 0.23041 0.13302 0.3444 0.0
H373 H 0.25364 0.13667 0.29023 0.0
C374 C 0.25724 0.15355 0.23068 0.0
C375 C 0.22803 0.1764 0.2411 0.0
C376 C 0.21483 0.17403 0.27283 0.0
C377 C 0.18524 0.19406 0.28203 0.0
C378 C 0.17281 0.19139 0.31402 0.0
C379 C 0.18896 0.16946 0.33612 0.0
C380 C 0.21786 0.1499 0.32709 0.0
C381 C 0.23082 0.15213 0.29588 0.0
H382 H 0.90884 0.28628 0.73505 0.0
C383 C 0.932 0.27206 0.72752 0.0
H384 H 0.95469 0.22253 0.72035 0.0
H385 H 0.82225 0.18573 0.81853 0.0
H386 H 0.8519 0.2214 0.85811 0.0
H387 H 0.90467 0.25472 0.84363 0.0
H388 H 0.92794 0.25282 0.7895 0.0
C389 C 0.93222 0.23709 0.729 0.0
C390 C 0.90056 0.21704 0.73833 0.0
C391 C 0.88755 0.21826 0.77025 0.0
C392 C 0.85755 0.19847 0.77879 0.0
C393 C 0.84504 0.20012 0.81079 0.0
C394 C 0.86182 0.22047 0.83376 0.0
C395 C 0.89149 0.23927 0.82559 0.0
C396 C 0.90443 0.23815 0.79431 0.0
H397 H 0.84396 0.10865 0.76414 0.0
C398 C 0.81821 0.1191 0.7695 0.0
H399 H 0.78746 0.16477 0.77248 0.0
H400 H 0.91793 0.20974 0.67475 0.0
H401 H 0.8883 0.17382 0.63544 0.0
H402 H 0.83651 0.13928 0.65049 0.0
H403 H 0.81407 0.14048 0.70502 0.0
C404 C 0.81234 0.15333 0.76568 0.0
C405 C 0.84126 0.17679 0.75568 0.0
C406 C 0.8539 0.17599 0.72369 0.0
C407 C 0.88365 0.19603 0.71502 0.0
C408 C 0.89562 0.19483 0.68281 0.0
C409 C 0.87878 0.1744 0.65993 0.0
C410 C 0.84964 0.15494 0.66841 0.0
C411 C 0.83715 0.15571 0.69984 0.0
H412 H 0.9627 0.85024 0.27276 0.0
C413 C 0.95377 0.82338 0.2742 0.0
H414 H 0.9108 0.78936 0.26828 0.0
H415 H 0.84384 0.94919 0.28645 0.0
H416 H 0.86342 0.94417 0.34168 0.0
H417 H 0.8969 0.89282 0.35956 0.0
H418 H 0.91127 0.84637 0.32229 0.0
C419 C 0.92034 0.816 0.2674 0.0
C420 C 0.89582 0.84429 0.25804 0.0
C421 C 0.88681 0.87073 0.28042 0.0
C422 C 0.86689 0.89996 0.2703 0.0
C423 C 0.85888 0.92638 0.29291 0.0
C424 C 0.86986 0.92378 0.3247 0.0
C425 C 0.88875 0.8949 0.33475 0.0
C426 C 0.89708 0.86855 0.31303 0.0
H427 H 0.78713 0.91028 0.22562 0.0
C428 C 0.80203 0.93406 0.22196 0.0
H429 H 0.85184 0.95765 0.22424 0.0
H430 H 0.90561 0.79642 0.21015 0.0
H431 H 0.88431 0.80046 0.15541 0.0
H432 H 0.84981 0.85123 0.13777 0.0
H433 H 0.83632 0.89819 0.17472 0.0
C434 C 0.8366 0.934 0.22721 0.0
C435 C 0.85519 0.90219 0.23813 0.0
C436 C 0.86268 0.87492 0.21616 0.0
C437 C 0.88285 0.8458 0.22623 0.0
C438 C 0.89039 0.81912 0.20376 0.0
C439 C 0.87835 0.82112 0.17226 0.0
C440 C 0.8589 0.84969 0.16234 0.0
C441 C 0.85121 0.87642 0.18386 0.0
H442 H 0.11131 0.84537 0.73615 0.0
C443 C 0.12003 0.81882 0.73169 0.0
H444 H 0.16347 0.7848 0.73099 0.0
H445 H 0.25935 0.91998 0.71248 0.0
H446 H 0.26481 0.89239 0.66033 0.0
H447 H 0.23126 0.83938 0.64737 0.0
H448 H 0.19186 0.81377 0.68648 0.0
C449 C 0.15356 0.81052 0.737 0.0
C450 C 0.1785 0.83808 0.74706 0.0
C451 C 0.2024 0.85191 0.72438 0.0
C452 C 0.22217 0.88215 0.73205 0.0
C453 C 0.24436 0.89656 0.70829 0.0
C454 C 0.24761 0.88108 0.67816 0.0
C455 C 0.22868 0.85127 0.67084 0.0
C456 C 0.20617 0.83683 0.69352 0.0
H457 H 0.28687 0.91004 0.77175 0.0
C458 C 0.27085 0.93313 0.77515 0.0
H459 H 0.21981 0.95384 0.77491 0.0
H460 H 0.13905 0.81475 0.79741 0.0
H461 H 0.13485 0.84105 0.85036 0.0
H462 H 0.16911 0.89346 0.86386 0.0
H463 H 0.20776 0.91985 0.82458 0.0
C464 C 0.23626 0.93133 0.77021 0.0
C465 C 0.21848 0.89792 0.76269 0.0
C466 C 0.19605 0.88284 0.78598 0.0
C467 C 0.17616 0.85279 0.77819 0.0
C468 C 0.15422 0.83801 0.80195 0.0
C469 C 0.15174 0.85271 0.83247 0.0
C470 C 0.17104 0.8822 0.84007 0.0
C471 C 0.19303 0.89716 0.81724 0.0
H472 H 0.78034 0.91988 0.76635 0.0
C473 C 0.7996 0.93557 0.77887 0.0
H474 H 0.85205 0.94076 0.79314 0.0
H475 H 0.91628 0.79552 0.78638 0.0
H476 H 0.91069 0.80282 0.84396 0.0
H477 H 0.87469 0.85014 0.86664 0.0
H478 H 0.84436 0.89073 0.83174 0.0
C479 C 0.83309 0.92513 0.78015 0.0
C480 C 0.84624 0.89186 0.76613 0.0
C481 C 0.86263 0.86741 0.78674 0.0
C482 C 0.88281 0.83969 0.77365 0.0
C483 C 0.90032 0.81682 0.79492 0.0
C484 C 0.8973 0.82069 0.82808 0.0
C485 C 0.87707 0.84735 0.84085 0.0
C486 C 0.85993 0.87054 0.82056 0.0
H487 H 0.93827 0.8555 0.70253 0.0
C488 C 0.93976 0.82795 0.70848 0.0
H489 H 0.91572 0.78626 0.73297 0.0
H490 H 0.81731 0.93306 0.71889 0.0
H491 H 0.81757 0.92157 0.6618 0.0
H492 H 0.84705 0.86957 0.63987 0.0
H493 H 0.87749 0.82932 0.67519 0.0
C494 C 0.91423 0.81354 0.72622 0.0
C495 C 0.88609 0.83616 0.7399 0.0
C496 C 0.8659 0.85777 0.71944 0.0
C497 C 0.84702 0.88649 0.73238 0.0
C498 C 0.83051 0.90981 0.71084 0.0
C499 C 0.83065 0.90365 0.67785 0.0
C500 C 0.84737 0.87446 0.66547 0.0
C501 C 0.8649 0.85174 0.68592 0.0
H502 H 0.27648 0.93528 0.24382 0.0
C503 C 0.26864 0.94077 0.21926 0.0
H504 H 0.23549 0.92789 0.18084 0.0
H505 H 0.20619 0.80189 0.2897 0.0
H506 H 0.26687 0.7851 0.2827 0.0
H507 H 0.30619 0.81955 0.24809 0.0
H508 H 0.28525 0.87127 0.2206 0.0
C509 C 0.24317 0.92198 0.20537 0.0
C510 C 0.21957 0.89906 0.22443 0.0
C511 C 0.23202 0.86833 0.23951 0.0
C512 C 0.20907 0.84783 0.25872 0.0
C513 C 0.22238 0.81798 0.27441 0.0
C514 C 0.25713 0.8081 0.27062 0.0
C515 C 0.2793 0.82754 0.25118 0.0
C516 C 0.26701 0.85729 0.23569 0.0
H517 H 0.14336 0.79474 0.25358 0.0
C518 C 0.1346 0.80818 0.27511 0.0
H519 H 0.14013 0.85235 0.3048 0.0
H520 H 0.18677 0.95642 0.19872 0.0
H521 H 0.1257 0.97124 0.20367 0.0
H522 H 0.08554 0.93416 0.23492 0.0
H523 H 0.10642 0.88216 0.26162 0.0
C524 C 0.14968 0.83834 0.28386 0.0
C525 C 0.17361 0.85766 0.26209 0.0
C526 C 0.16087 0.88762 0.24604 0.0
C527 C 0.18387 0.90849 0.22741 0.0
C528 C 0.17049 0.93897 0.21256 0.0
C529 C 0.13541 0.94796 0.21531 0.0
C530 C 0.11283 0.92715 0.23295 0.0
C531 C 0.12524 0.89738 0.24823 0.0
H532 H 0.13563 0.27895 0.7319 0.0
C533 C 0.11887 0.26169 0.71814 0.0
H534 H 0.11101 0.2109 0.70027 0.0
H535 H 0.25732 0.14474 0.70435 0.0
H536 H 0.25044 0.154 0.64709 0.0
H537 H 0.20272 0.1907 0.62624 0.0
H538 H 0.16137 0.21811 0.66254 0.0
C539 C 0.12742 0.22789 0.71466 0.0
C540 C 0.15991 0.21223 0.72801 0.0
C541 C 0.18459 0.1973 0.70658 0.0
C542 C 0.21249 0.17663 0.71863 0.0
C543 C 0.23585 0.16094 0.69656 0.0
C544 C 0.23222 0.16606 0.6636 0.0
C545 C 0.20533 0.18669 0.65186 0.0
C546 C 0.1817 0.20215 0.67296 0.0
H547 H 0.19967 0.11414 0.78404 0.0
C548 C 0.22762 0.11596 0.77977 0.0
H549 H 0.26807 0.14608 0.75928 0.0
H550 H 0.11755 0.23692 0.77644 0.0
H551 H 0.12791 0.23213 0.83355 0.0
H552 H 0.17977 0.20137 0.85416 0.0
H553 H 0.22108 0.17433 0.81751 0.0
C554 C 0.24033 0.14398 0.76437 0.0
C555 C 0.21591 0.17125 0.75213 0.0
C556 C 0.19342 0.18917 0.77366 0.0
C557 C 0.16468 0.20871 0.76167 0.0
C558 C 0.14079 0.22329 0.78394 0.0
C559 C 0.14628 0.22053 0.81692 0.0
C560 C 0.17539 0.20308 0.82853 0.0
C561 C 0.19873 0.18748 0.80727 0.0
H562 H 0.94751 0.26359 0.25485 0.0
C563 C 0.95535 0.25603 0.27893 0.0
H564 H 0.94777 0.22195 0.31787 0.0
H565 H 0.81585 0.18833 0.21569 0.0
H566 H 0.79787 0.24841 0.22304 0.0
H567 H 0.83274 0.28864 0.25623 0.0
H568 H 0.88622 0.26923 0.2817 0.0
C569 C 0.93963 0.22912 0.29376 0.0
C570 C 0.91604 0.20458 0.27648 0.0
C571 C 0.88396 0.21595 0.26305 0.0
C572 C 0.86293 0.19227 0.24517 0.0
C573 C 0.83216 0.20483 0.23041 0.0
C574 C 0.8216 0.23931 0.23434 0.0
C575 C 0.8413 0.26199 0.25294 0.0
C576 C 0.8721 0.25059 0.26723 0.0
H577 H 0.80794 0.1307 0.25085 0.0
C578 C 0.82159 0.11975 0.23029 0.0
H579 H 0.86692 0.12055 0.20156 0.0
H580 H 0.97595 0.17373 0.29919 0.0
H581 H 0.99163 0.11292 0.29493 0.0
H582 H 0.95313 0.07119 0.26722 0.0
H583 H 0.89887 0.09025 0.24326 0.0
C584 C 0.85315 0.13207 0.22181 0.0
C585 C 0.87323 0.15692 0.24208 0.0
C586 C 0.90444 0.14521 0.25681 0.0
C587 C 0.92607 0.16908 0.27364 0.0
C588 C 0.95786 0.15675 0.28689 0.0
C589 C 0.96736 0.12182 0.2845 0.0
C590 C 0.94574 0.09836 0.26884 0.0
C591 C 0.91469 0.10974 0.25507 0.0
loop_
_geom_bond_atom_site_label_1
_geom_bond_atom_site_label_2
_geom_bond_distance
_geom_bond_site_symmetry_2
_ccdc_geom_bond_type
O0 Cd1 2.223 . S
O0 C8 1.315 . S
Cd1 O0 2.223 . S
Cd1 O4 2.297 . S
Cd1 O5 2.439 . S
Cd1 O11 2.240 . S
Cd2 O3 2.240 1_565 S
Cd2 O10 2.223 1_565 S
Cd2 O12 2.297 . S
Cd2 O13 2.439 . S
O3 Cd2 2.240 1_545 S
O3 C8 1.279 . S
O4 Cd1 2.297 . S
O4 C6 1.247 . S
O5 Cd1 2.439 . S
O5 C6 1.208 . S
C6 O4 1.247 . S
C6 O5 1.208 . S
C7 O12 1.247 . S
C7 O13 1.208 . S
C8 O0 1.315 . S
C8 O3 1.279 . S
C9 O10 1.315 . S
C9 O11 1.279 . S
O10 Cd2 2.223 1_545 S
O10 C9 1.315 . S
O11 Cd1 2.240 . S
O11 C9 1.279 . S
O12 Cd2 2.297 . S
O12 C7 1.247 . S
O13 Cd2 2.439 . S
O13 C7 1.208 . S
O14 Cd15 2.223 1_655 S
O14 C22 1.315 1_655 S
Cd15 O14 2.223 1_455 S
Cd15 O18 2.297 . S
Cd15 O19 2.439 . S
Cd15 O25 2.240 . S
Cd16 O17 2.240 . S
Cd16 O24 2.223 . S
Cd16 O26 2.297 . S
Cd16 O27 2.439 . S
O17 Cd16 2.240 . S
O17 C22 1.279 . S
O18 Cd15 2.297 . S
O18 C20 1.247 . S
O19 Cd15 2.439 . S
O19 C20 1.208 . S
C20 O18 1.247 . S
C20 O19 1.208 . S
C21 O26 1.247 . S
C21 O27 1.208 . S
C22 O14 1.315 1_455 S
C22 O17 1.279 . S
C23 O24 1.327 . S
C23 O25 1.286 . S
O24 Cd16 2.223 . S
O24 C23 1.327 . S
O25 Cd15 2.240 . S
O25 C23 1.286 . S
O26 Cd16 2.297 . S
O26 C21 1.247 . S
O27 Cd16 2.439 . S
O27 C21 1.208 . S
O28 Cd29 2.223 1_565 S
O28 C36 1.315 1_565 S
Cd29 O28 2.223 1_545 S
Cd29 O32 2.297 . S
Cd29 O33 2.439 . S
Cd29 O39 2.240 . S
Cd30 O31 2.240 . S
Cd30 O38 2.223 . S
Cd30 O40 2.297 . S
Cd30 O41 2.439 . S
O31 Cd30 2.240 . S
O31 C36 1.279 . S
O32 Cd29 2.297 . S
O32 C34 1.247 . S
O33 Cd29 2.439 . S
O33 C34 1.208 . S
C34 O32 1.247 . S
C34 O33 1.208 . S
C35 O40 1.247 . S
C35 O41 1.208 . S
C36 O28 1.315 1_545 S
C36 O31 1.279 . S
C37 O38 1.327 . S
C37 O39 1.286 . S
O38 Cd30 2.223 . S
O38 C37 1.327 . S
O39 Cd29 2.240 . S
O39 C37 1.286 . S
O40 Cd30 2.297 . S
O40 C35 1.247 . S
O41 Cd30 2.439 . S
O41 C35 1.208 . S
O42 Cd43 2.223 . S
O42 C50 1.315 . S
Cd43 O42 2.223 . S
Cd43 O46 2.297 . S
Cd43 O47 2.439 . S
Cd43 O53 2.240 . S
Cd44 O45 2.240 1_655 S
Cd44 O52 2.223 1_655 S
Cd44 O54 2.297 . S
Cd44 O55 2.439 . S
O45 Cd44 2.240 1_455 S
O45 C50 1.279 . S
O46 Cd43 2.297 . S
O46 C48 1.247 . S
O47 Cd43 2.439 . S
O47 C48 1.208 . S
C48 O46 1.247 . S
C48 O47 1.208 . S
C49 O54 1.247 . S
C49 O55 1.208 . S
C50 O42 1.315 . S
C50 O45 1.279 . S
C51 O52 1.315 . S
C51 O53 1.279 . S
O52 Cd44 2.223 1_455 S
O52 C51 1.315 . S
O53 Cd43 2.240 . S
O53 C51 1.279 . S
O54 Cd44 2.297 . S
O54 C49 1.247 . S
O55 Cd44 2.439 . S
O55 C49 1.208 . S
O56 Cd57 2.223 1_565 S
O56 C64 1.315 1_565 S
Cd57 O56 2.223 1_545 S
Cd57 O60 2.297 . S
Cd57 O61 2.439 . S
Cd57 O67 2.240 . S
Cd58 O59 2.240 . S
Cd58 O66 2.223 . S
Cd58 O68 2.297 . S
Cd58 O69 2.439 . S
O59 Cd58 2.240 . S
O59 C64 1.279 . S
O60 Cd57 2.297 . S
O60 C62 1.247 . S
O61 Cd57 2.439 . S
O61 C62 1.208 . S
C62 O60 1.247 . S
C62 O61 1.208 . S
C63 O68 1.247 . S
C63 O69 1.208 . S
C64 O56 1.315 1_545 S
C64 O59 1.279 . S
C65 O66 1.327 . S
C65 O67 1.286 . S
O66 Cd58 2.223 . S
O66 C65 1.327 . S
O67 Cd57 2.240 . S
O67 C65 1.286 . S
O68 Cd58 2.297 . S
O68 C63 1.247 . S
O69 Cd58 2.439 . S
O69 C63 1.208 . S
O70 Cd71 2.223 . S
O70 C78 1.315 . S
Cd71 O70 2.223 . S
Cd71 O74 2.297 . S
Cd71 O75 2.439 . S
Cd71 O81 2.240 . S
Cd72 O73 2.240 1_655 S
Cd72 O80 2.223 1_655 S
Cd72 O82 2.297 . S
Cd72 O83 2.439 . S
O73 Cd72 2.240 1_455 S
O73 C78 1.279 . S
O74 Cd71 2.297 . S
O74 C76 1.247 . S
O75 Cd71 2.439 . S
O75 C76 1.208 . S
C76 O74 1.247 . S
C76 O75 1.208 . S
C77 O82 1.247 . S
C77 O83 1.208 . S
C78 O70 1.315 . S
C78 O73 1.279 . S
C79 O80 1.315 . S
C79 O81 1.279 . S
O80 Cd72 2.223 1_455 S
O80 C79 1.315 . S
O81 Cd71 2.240 . S
O81 C79 1.279 . S
O82 Cd72 2.297 . S
O82 C77 1.247 . S
O83 Cd72 2.439 . S
O83 C77 1.208 . S
O84 Cd85 2.223 . S
O84 C92 1.315 . S
Cd85 O84 2.223 . S
Cd85 O88 2.297 . S
Cd85 O89 2.439 . S
Cd85 O95 2.240 . S
Cd86 O87 2.240 1_565 S
Cd86 O94 2.223 1_565 S
Cd86 O96 2.297 . S
Cd86 O97 2.439 . S
O87 Cd86 2.240 1_545 S
O87 C92 1.279 . S
O88 Cd85 2.297 . S
O88 C90 1.247 . S
O89 Cd85 2.439 . S
O89 C90 1.208 . S
C90 O88 1.247 . S
C90 O89 1.208 . S
C91 O96 1.247 . S
C91 O97 1.208 . S
C92 O84 1.315 . S
C92 O87 1.279 . S
C93 O94 1.315 . S
C93 O95 1.279 . S
O94 Cd86 2.223 1_545 S
O94 C93 1.315 . S
O95 Cd85 2.240 . S
O95 C93 1.279 . S
O96 Cd86 2.297 . S
O96 C91 1.247 . S
O97 Cd86 2.439 . S
O97 C91 1.208 . S
O98 Cd99 2.223 1_655 S
O98 C106 1.315 1_655 S
Cd99 O98 2.223 1_455 S
Cd99 O102 2.297 . S
Cd99 O103 2.439 . S
Cd99 O109 2.240 . S
Cd100 O101 2.240 . S
Cd100 O108 2.223 . S
Cd100 O110 2.297 . S
Cd100 O111 2.439 . S
O101 Cd100 2.240 . S
O101 C106 1.279 . S
O102 Cd99 2.297 . S
O102 C104 1.247 . S
O103 Cd99 2.439 . S
O103 C104 1.208 . S
C104 O102 1.247 . S
C104 O103 1.208 . S
C105 O110 1.247 . S
C105 O111 1.208 . S
C106 O98 1.315 1_455 S
C106 O101 1.279 . S
C107 O108 1.327 . S
C107 O109 1.286 . S
O108 Cd100 2.223 . S
O108 C107 1.327 . S
O109 Cd99 2.240 . S
O109 C107 1.286 . S
O110 Cd100 2.297 . S
O110 C105 1.247 . S
O111 Cd100 2.439 . S
O111 C105 1.208 . S
H112 C113 0.951 . S
C113 H112 0.951 . S
C113 C119 1.265 . S
H114 C119 0.950 . S
H115 C123 0.949 . S
H116 C124 0.950 . S
H117 C125 0.951 1_554 S
H118 C126 0.951 . S
C119 C113 1.265 . S
C119 H114 0.950 . S
C119 C120 1.478 . S
C120 C119 1.478 . S
C120 C121 1.397 . S
C120 C137 1.394 . S
C121 C120 1.397 . S
C121 C122 1.438 1_554 S
C121 C126 1.429 . S
C122 C121 1.438 1_556 S
C122 C123 1.428 . S
C122 C135 1.394 . S
C123 H115 0.949 . S
C123 C122 1.428 . S
C123 C124 1.345 . S
C124 H116 0.950 . S
C124 C123 1.345 . S
C124 C125 1.424 . S
C125 H117 0.951 1_556 S
C125 C124 1.424 . S
C125 C126 1.347 1_556 S
C126 H118 0.951 . S
C126 C121 1.429 . S
C126 C125 1.347 1_554 S
H127 C128 0.951 . S
C128 H127 0.951 . S
C128 C134 1.265 . S
H129 C134 0.950 . S
H130 C138 0.949 . S
H131 C139 0.950 . S
H132 C140 0.951 1_556 S
H133 C141 0.951 . S
C134 C128 1.265 . S
C134 H129 0.950 . S
C134 C135 1.478 . S
C135 C122 1.394 . S
C135 C134 1.478 . S
C135 C136 1.397 . S
C136 C135 1.397 . S
C136 C137 1.438 1_556 S
C136 C141 1.429 1_545 S
C137 C120 1.394 . S
C137 C136 1.438 1_554 S
C137 C138 1.428 1_545 S
C138 H130 0.949 . S
C138 C137 1.428 1_565 S
C138 C139 1.345 . S
C139 H131 0.950 . S
C139 C138 1.345 . S
C139 C140 1.424 . S
C140 H132 0.951 1_554 S
C140 C139 1.424 . S
C140 C141 1.347 1_554 S
C141 H133 0.951 . S
C141 C136 1.429 1_565 S
C141 C140 1.347 1_556 S
H142 C143 0.951 1_655 S
C143 H142 0.951 1_455 S
C143 C149 1.265 . S
H144 C149 0.950 . S
H145 C153 0.949 . S
H146 C154 0.950 . S
H147 C155 0.951 . S
H148 C156 0.951 . S
C149 C143 1.265 . S
C149 H144 0.950 . S
C149 C150 1.478 . S
C150 C149 1.478 . S
C150 C151 1.397 . S
C150 C167 1.394 . S
C151 C150 1.397 . S
C151 C152 1.438 . S
C151 C156 1.429 . S
C152 C151 1.438 . S
C152 C153 1.428 . S
C152 C165 1.394 . S
C153 H145 0.949 . S
C153 C152 1.428 . S
C153 C154 1.345 . S
C154 H146 0.950 . S
C154 C153 1.345 . S
C154 C155 1.424 . S
C155 H147 0.951 . S
C155 C154 1.424 . S
C155 C156 1.347 . S
C156 H148 0.951 . S
C156 C151 1.429 . S
C156 C155 1.347 . S
H157 C158 0.951 . S
C158 H157 0.951 . S
C158 C164 1.265 . S
H159 C164 0.950 . S
H160 C168 0.949 . S
H161 C169 0.950 1_655 S
H162 C170 0.941 1_655 S
H163 C171 0.951 . S
C164 C158 1.265 . S
C164 H159 0.950 . S
C164 C165 1.478 . S
C165 C152 1.394 . S
C165 C164 1.478 . S
C165 C166 1.397 . S
C166 C165 1.397 . S
C166 C167 1.438 . S
C166 C171 1.429 . S
C167 C150 1.394 . S
C167 C166 1.438 . S
C167 C168 1.428 . S
C168 H160 0.949 . S
C168 C167 1.428 . S
C168 C169 1.345 . S
C169 H161 0.950 1_455 S
C169 C168 1.345 . S
C169 C170 1.426 . S
C170 H162 0.941 1_455 S
C170 C169 1.426 . S
C170 C171 1.355 . S
C171 H163 0.951 . S
C171 C166 1.429 . S
C171 C170 1.355 . S
H172 C173 0.951 . S
C173 H172 0.951 . S
C173 C179 1.265 . S
H174 C179 0.950 . S
H175 C183 0.949 . S
H176 C184 0.950 . S
H177 C185 0.951 1_556 S
H178 C186 0.951 . S
C179 C173 1.265 . S
C179 H174 0.950 . S
C179 C180 1.478 . S
C180 C179 1.478 . S
C180 C181 1.397 . S
C180 C197 1.394 . S
C181 C180 1.397 . S
C181 C182 1.438 1_556 S
C181 C186 1.429 . S
C182 C181 1.438 1_554 S
C182 C183 1.428 . S
C182 C195 1.394 . S
C183 H175 0.949 . S
C183 C182 1.428 . S
C183 C184 1.345 . S
C184 H176 0.950 . S
C184 C183 1.345 . S
C184 C185 1.424 . S
C185 H177 0.951 1_554 S
C185 C184 1.424 . S
C185 C186 1.347 1_554 S
C186 H178 0.951 . S
C186 C181 1.429 . S
C186 C185 1.347 1_556 S
H187 C188 0.951 . S
C188 H187 0.951 . S
C188 C194 1.265 . S
H189 C194 0.950 . S
H190 C198 0.949 . S
H191 C199 0.950 . S
H192 C200 0.951 1_554 S
H193 C201 0.951 . S
C194 C188 1.265 . S
C194 H189 0.950 . S
C194 C195 1.478 . S
C195 C182 1.394 . S
C195 C194 1.478 . S
C195 C196 1.397 . S
C196 C195 1.397 . S
C196 C197 1.438 1_554 S
C196 C201 1.429 1_545 S
C197 C180 1.394 . S
C197 C196 1.438 1_556 S
C197 C198 1.428 1_545 S
C198 H190 0.949 . S
C198 C197 1.428 1_565 S
C198 C199 1.345 . S
C199 H191 0.950 . S
C199 C198 1.345 . S
C199 C200 1.424 . S
C200 H192 0.951 1_556 S
C200 C199 1.424 . S
C200 C201 1.347 1_556 S
C201 H193 0.951 . S
C201 C196 1.429 1_565 S
C201 C200 1.347 1_554 S
H202 C203 0.951 1_655 S
C203 H202 0.951 1_455 S
C203 C209 1.265 . S
H204 C209 0.950 . S
H205 C213 0.949 . S
H206 C214 0.950 . S
H207 C215 0.951 . S
H208 C216 0.951 . S
C209 C203 1.265 . S
C209 H204 0.950 . S
C209 C210 1.478 . S
C210 C209 1.478 . S
C210 C211 1.397 . S
C210 C227 1.394 . S
C211 C210 1.397 . S
C211 C212 1.438 . S
C211 C216 1.429 . S
C212 C211 1.438 . S
C212 C213 1.428 . S
C212 C225 1.394 . S
C213 H205 0.949 . S
C213 C212 1.428 . S
C213 C214 1.345 . S
C214 H206 0.950 . S
C214 C213 1.345 . S
C214 C215 1.424 . S
C215 H207 0.951 . S
C215 C214 1.424 . S
C215 C216 1.347 . S
C216 H208 0.951 . S
C216 C211 1.429 . S
C216 C215 1.347 . S
H217 C218 0.951 . S
C218 H217 0.951 . S
C218 C224 1.265 . S
H219 C224 0.950 . S
H220 C228 0.949 1_455 S
H221 C229 0.950 . S
H222 C230 0.951 . S
H223 C231 0.951 . S
C224 C218 1.265 . S
C224 H219 0.950 . S
C224 C225 1.478 . S
C225 C212 1.394 . S
C225 C224 1.478 . S
C225 C226 1.397 . S
C226 C225 1.397 . S
C226 C227 1.438 . S
C226 C231 1.429 1_455 S
C227 C210 1.394 . S
C227 C226 1.438 . S
C227 C228 1.428 1_455 S
C228 H220 0.949 1_655 S
C228 C227 1.428 1_655 S
C228 C229 1.345 . S
C229 H221 0.950 . S
C229 C228 1.345 . S
C229 C230 1.424 . S
C230 H222 0.951 . S
C230 C229 1.424 . S
C230 C231 1.347 . S
C231 H223 0.951 . S
C231 C226 1.429 1_655 S
C231 C230 1.347 . S
H232 C233 0.951 . S
C233 H232 0.951 . S
C233 C239 1.265 . S
H234 C239 0.950 1_565 S
H235 C243 0.949 . S
H236 C244 0.950 . S
H237 C245 0.951 . S
H238 C246 0.945 1_565 S
C239 C233 1.265 . S
C239 H234 0.950 1_545 S
C239 C240 1.478 . S
C240 C239 1.478 . S
C240 C241 1.397 . S
C240 C257 1.394 . S
C241 C240 1.397 . S
C241 C242 1.438 . S
C241 C246 1.438 . S
C242 C241 1.438 . S
C242 C243 1.428 . S
C242 C255 1.394 . S
C243 H235 0.949 . S
C243 C242 1.428 . S
C243 C244 1.345 . S
C244 H236 0.950 . S
C244 C243 1.345 . S
C244 C245 1.424 1_545 S
C245 H237 0.951 . S
C245 C244 1.424 1_565 S
C245 C246 1.344 1_565 S
C246 H238 0.945 1_545 S
C246 C241 1.438 . S
C246 C245 1.344 1_545 S
H247 C248 0.951 . S
C248 H247 0.951 . S
C248 C254 1.265 . S
H249 C254 0.950 . S
H250 C258 0.949 . S
H251 C259 0.950 . S
H252 C260 0.951 . S
H253 C261 0.951 . S
C254 C248 1.265 . S
C254 H249 0.950 . S
C254 C255 1.478 . S
C255 C242 1.394 . S
C255 C254 1.478 . S
C255 C256 1.397 . S
C256 C255 1.397 . S
C256 C257 1.438 . S
C256 C261 1.429 . S
C257 C240 1.394 . S
C257 C256 1.438 . S
C257 C258 1.428 . S
C258 H250 0.949 . S
C258 C257 1.428 . S
C258 C259 1.345 . S
C259 H251 0.950 . S
C259 C258 1.345 . S
C259 C260 1.424 . S
C260 H252 0.951 . S
C260 C259 1.424 . S
C260 C261 1.347 . S
C261 H253 0.951 . S
C261 C256 1.429 . S
C261 C260 1.347 . S
H262 C263 0.951 . S
C263 H262 0.951 . S
C263 C269 1.265 . S
H264 C269 0.950 . S
H265 C273 0.949 . S
H266 C274 0.950 1_655 S
H267 C275 0.951 1_655 S
H268 C276 0.951 . S
C269 C263 1.265 . S
C269 H264 0.950 . S
C269 C270 1.478 . S
C270 C269 1.478 . S
C270 C271 1.397 . S
C270 C287 1.394 . S
C271 C270 1.397 . S
C271 C272 1.438 . S
C271 C276 1.429 . S
C272 C271 1.438 . S
C272 C273 1.428 . S
C272 C285 1.394 . S
C273 H265 0.949 . S
C273 C272 1.428 . S
C273 C274 1.345 . S
C274 H266 0.950 1_455 S
C274 C273 1.345 . S
C274 C275 1.424 . S
C275 H267 0.951 1_455 S
C275 C274 1.424 . S
C275 C276 1.347 . S
C276 H268 0.951 . S
C276 C271 1.429 . S
C276 C275 1.347 . S
H277 C278 0.951 1_655 S
C278 H277 0.951 1_455 S
C278 C284 1.265 . S
H279 C284 0.950 . S
H280 C288 0.949 . S
H281 C289 0.950 . S
H282 C290 0.951 . S
H283 C291 0.951 . S
C284 C278 1.265 . S
C284 H279 0.950 . S
C284 C285 1.478 . S
C285 C272 1.394 . S
C285 C284 1.478 . S
C285 C286 1.397 . S
C286 C285 1.397 . S
C286 C287 1.438 . S
C286 C291 1.429 . S
C287 C270 1.394 . S
C287 C286 1.438 . S
C287 C288 1.428 . S
C288 H280 0.949 . S
C288 C287 1.428 . S
C288 C289 1.345 . S
C289 H281 0.950 . S
C289 C288 1.345 . S
C289 C290 1.424 . S
C290 H282 0.951 . S
C290 C289 1.424 . S
C290 C291 1.347 . S
C291 H283 0.951 . S
C291 C286 1.429 . S
C291 C290 1.347 . S
H292 C293 0.951 . S
C293 H292 0.951 . S
C293 C299 1.265 . S
H294 C299 0.950 1_565 S
H295 C303 0.949 . S
H296 C304 0.950 . S
H297 C305 0.951 1_565 S
H298 C306 0.951 1_565 S
C299 C293 1.265 . S
C299 H294 0.950 1_545 S
C299 C300 1.478 . S
C300 C299 1.478 . S
C300 C301 1.397 . S
C300 C317 1.394 . S
C301 C300 1.397 . S
C301 C302 1.438 . S
C301 C306 1.429 . S
C302 C301 1.438 . S
C302 C303 1.428 . S
C302 C315 1.394 . S
C303 H295 0.949 . S
C303 C302 1.428 . S
C303 C304 1.345 . S
C304 H296 0.950 . S
C304 C303 1.345 . S
C304 C305 1.424 . S
C305 H297 0.951 1_545 S
C305 C304 1.424 . S
C305 C306 1.347 . S
C306 H298 0.951 1_545 S
C306 C301 1.429 . S
C306 C305 1.347 . S
H307 C308 0.951 . S
C308 H307 0.951 . S
C308 C314 1.265 . S
H309 C314 0.950 . S
H310 C318 0.949 . S
H311 C319 0.950 . S
H312 C320 0.951 . S
H313 C321 0.951 . S
C314 C308 1.265 . S
C314 H309 0.950 . S
C314 C315 1.478 . S
C315 C302 1.394 . S
C315 C314 1.478 . S
C315 C316 1.397 . S
C316 C315 1.397 . S
C316 C317 1.438 . S
C316 C321 1.429 . S
C317 C300 1.394 . S
C317 C316 1.438 . S
C317 C318 1.428 . S
C318 H310 0.949 . S
C318 C317 1.428 . S
C318 C319 1.345 . S
C319 H311 0.950 . S
C319 C318 1.345 . S
C319 C320 1.424 . S
C320 H312 0.951 . S
C320 C319 1.424 . S
C320 C321 1.347 . S
C321 H313 0.951 . S
C321 C316 1.429 . S
C321 C320 1.347 . S
H322 C323 0.951 . S
C323 H322 0.951 . S
C323 C329 1.265 . S
H324 C329 0.950 . S
H325 C333 0.949 . S
H326 C334 0.950 . S
H327 C335 0.951 . S
H328 C336 0.951 . S
C329 C323 1.265 . S
C329 H324 0.950 . S
C329 C330 1.478 . S
C330 C329 1.478 . S
C330 C331 1.397 . S
C330 C347 1.394 . S
C331 C330 1.397 . S
C331 C332 1.438 . S
C331 C336 1.429 1_455 S
C332 C331 1.438 . S
C332 C333 1.428 . S
C332 C345 1.394 . S
C333 H325 0.949 . S
C333 C332 1.428 . S
C333 C334 1.345 1_455 S
C334 H326 0.950 . S
C334 C333 1.345 1_655 S
C334 C335 1.424 . S
C335 H327 0.951 . S
C335 C334 1.424 . S
C335 C336 1.347 . S
C336 H328 0.951 . S
C336 C331 1.429 1_655 S
C336 C335 1.347 . S
H337 C338 0.951 . S
C338 H337 0.951 . S
C338 C344 1.265 . S
H339 C344 0.950 . S
H340 C348 0.949 . S
H341 C349 0.950 . S
H342 C350 0.951 . S
H343 C351 0.951 . S
C344 C338 1.265 . S
C344 H339 0.950 . S
C344 C345 1.478 . S
C345 C332 1.394 . S
C345 C344 1.478 . S
C345 C346 1.397 . S
C346 C345 1.397 . S
C346 C347 1.438 . S
C346 C351 1.429 . S
C347 C330 1.394 . S
C347 C346 1.438 . S
C347 C348 1.428 . S
C348 H340 0.949 . S
C348 C347 1.428 . S
C348 C349 1.345 . S
C349 H341 0.950 . S
C349 C348 1.345 . S
C349 C350 1.424 . S
C350 H342 0.951 . S
C350 C349 1.424 . S
C350 C351 1.347 . S
C351 H343 0.951 . S
C351 C346 1.429 . S
C351 C350 1.347 . S
H352 C353 0.951 . S
C353 H352 0.951 . S
C353 C359 1.265 . S
H354 C359 0.950 . S
H355 C363 0.949 . S
H356 C364 0.950 . S
H357 C365 0.951 . S
H358 C366 0.951 . S
C359 C353 1.265 . S
C359 H354 0.950 . S
C359 C360 1.478 . S
C360 C359 1.478 . S
C360 C361 1.397 . S
C360 C377 1.394 . S
C361 C360 1.397 . S
C361 C362 1.438 . S
C361 C366 1.429 . S
C362 C361 1.438 . S
C362 C363 1.428 . S
C362 C375 1.394 . S
C363 H355 0.949 . S
C363 C362 1.428 . S
C363 C364 1.345 . S
C364 H356 0.950 . S
C364 C363 1.345 . S
C364 C365 1.424 . S
C365 H357 0.951 . S
C365 C364 1.424 . S
C365 C366 1.347 . S
C366 H358 0.951 . S
C366 C361 1.429 . S
C366 C365 1.347 . S
H367 C368 0.951 . S
C368 H367 0.951 . S
C368 C374 1.265 . S
H369 C374 0.950 . S
H370 C378 0.949 . S
H371 C379 0.950 . S
H372 C380 0.951 . S
H373 C381 0.951 . S
C374 C368 1.265 . S
C374 H369 0.950 . S
C374 C375 1.478 . S
C375 C362 1.394 . S
C375 C374 1.478 . S
C375 C376 1.397 . S
C376 C375 1.397 . S
C376 C377 1.438 . S
C376 C381 1.429 . S
C377 C360 1.394 . S
C377 C376 1.438 . S
C377 C378 1.428 . S
C378 H370 0.949 . S
C378 C377 1.428 . S
C378 C379 1.345 . S
C379 H371 0.950 . S
C379 C378 1.345 . S
C379 C380 1.424 . S
C380 H372 0.951 . S
C380 C379 1.424 . S
C380 C381 1.347 . S
C381 H373 0.951 . S
C381 C376 1.429 . S
C381 C380 1.347 . S
H382 C383 0.951 . S
C383 H382 0.951 . S
C383 C389 1.265 . S
H384 C389 0.950 . S
H385 C393 0.949 . S
H386 C394 0.950 . S
H387 C395 0.951 . S
H388 C396 0.951 . S
C389 C383 1.265 . S
C389 H384 0.950 . S
C389 C390 1.478 . S
C390 C389 1.478 . S
C390 C391 1.397 . S
C390 C407 1.394 . S
C391 C390 1.397 . S
C391 C392 1.438 . S
C391 C396 1.429 . S
C392 C391 1.438 . S
C392 C393 1.428 . S
C392 C405 1.394 . S
C393 H385 0.949 . S
C393 C392 1.428 . S
C393 C394 1.345 . S
C394 H386 0.950 . S
C394 C393 1.345 . S
C394 C395 1.424 . S
C395 H387 0.951 . S
C395 C394 1.424 . S
C395 C396 1.347 . S
C396 H388 0.951 . S
C396 C391 1.429 . S
C396 C395 1.347 . S
H397 C398 0.951 . S
C398 H397 0.951 . S
C398 C404 1.265 . S
H399 C404 0.950 . S
H400 C408 0.949 . S
H401 C409 0.950 . S
H402 C410 0.951 . S
H403 C411 0.951 . S
C404 C398 1.265 . S
C404 H399 0.950 . S
C404 C405 1.478 . S
C405 C392 1.394 . S
C405 C404 1.478 . S
C405 C406 1.397 . S
C406 C405 1.397 . S
C406 C407 1.438 . S
C406 C411 1.429 . S
C407 C390 1.394 . S
C407 C406 1.438 . S
C407 C408 1.428 . S
C408 H400 0.949 . S
C408 C407 1.428 . S
C408 C409 1.345 . S
C409 H401 0.950 . S
C409 C408 1.345 . S
C409 C410 1.424 . S
C410 H402 0.951 . S
C410 C409 1.424 . S
C410 C411 1.347 . S
C411 H403 0.951 . S
C411 C406 1.429 . S
C411 C410 1.347 . S
H412 C413 0.951 . S
C413 H412 0.951 . S
C413 C419 1.265 . S
H414 C419 0.950 . S
H415 C423 0.949 . S
H416 C424 0.950 . S
H417 C425 0.951 . S
H418 C426 0.951 . S
C419 C413 1.265 . S
C419 H414 0.950 . S
C419 C420 1.478 . S
C420 C419 1.478 . S
C420 C421 1.397 . S
C420 C437 1.394 . S
C421 C420 1.397 . S
C421 C422 1.438 . S
C421 C426 1.429 . S
C422 C421 1.438 . S
C422 C423 1.428 . S
C422 C435 1.394 . S
C423 H415 0.949 . S
C423 C422 1.428 . S
C423 C424 1.345 . S
C424 H416 0.950 . S
C424 C423 1.345 . S
C424 C425 1.424 . S
C425 H417 0.951 . S
C425 C424 1.424 . S
C425 C426 1.347 . S
C426 H418 0.951 . S
C426 C421 1.429 . S
C426 C425 1.347 . S
H427 C428 0.951 . S
C428 H427 0.951 . S
C428 C434 1.265 . S
H429 C434 0.950 . S
H430 C438 0.949 . S
H431 C439 0.950 . S
H432 C440 0.951 . S
H433 C441 0.951 . S
C434 C428 1.265 . S
C434 H429 0.950 . S
C434 C435 1.478 . S
C435 C422 1.394 . S
C435 C434 1.478 . S
C435 C436 1.397 . S
C436 C435 1.397 . S
C436 C437 1.438 . S
C436 C441 1.429 . S
C437 C420 1.394 . S
C437 C436 1.438 . S
C437 C438 1.428 . S
C438 H430 0.949 . S
C438 C437 1.428 . S
C438 C439 1.345 . S
C439 H431 0.950 . S
C439 C438 1.345 . S
C439 C440 1.424 . S
C440 H432 0.951 . S
C440 C439 1.424 . S
C440 C441 1.347 . S
C441 H433 0.951 . S
C441 C436 1.429 . S
C441 C440 1.347 . S
H442 C443 0.951 . S
C443 H442 0.951 . S
C443 C449 1.265 . S
H444 C449 0.950 . S
H445 C453 0.949 . S
H446 C454 0.950 . S
H447 C455 0.951 . S
H448 C456 0.951 . S
C449 C443 1.265 . S
C449 H444 0.950 . S
C449 C450 1.478 . S
C450 C449 1.478 . S
C450 C451 1.397 . S
C450 C467 1.394 . S
C451 C450 1.397 . S
C451 C452 1.438 . S
C451 C456 1.429 . S
C452 C451 1.438 . S
C452 C453 1.428 . S
C452 C465 1.394 . S
C453 H445 0.949 . S
C453 C452 1.428 . S
C453 C454 1.345 . S
C454 H446 0.950 . S
C454 C453 1.345 . S
C454 C455 1.424 . S
C455 H447 0.951 . S
C455 C454 1.424 . S
C455 C456 1.347 . S
C456 H448 0.951 . S
C456 C451 1.429 . S
C456 C455 1.347 . S
H457 C458 0.951 . S
C458 H457 0.951 . S
C458 C464 1.265 . S
H459 C464 0.950 . S
H460 C468 0.949 . S
H461 C469 0.950 . S
H462 C470 0.951 . S
H463 C471 0.951 . S
C464 C458 1.265 . S
C464 H459 0.950 . S
C464 C465 1.478 . S
C465 C452 1.394 . S
C465 C464 1.478 . S
C465 C466 1.397 . S
C466 C465 1.397 . S
C466 C467 1.438 . S
C466 C471 1.429 . S
C467 C450 1.394 . S
C467 C466 1.438 . S
C467 C468 1.428 . S
C468 H460 0.949 . S
C468 C467 1.428 . S
C468 C469 1.345 . S
C469 H461 0.950 . S
C469 C468 1.345 . S
C469 C470 1.424 . S
C470 H462 0.951 . S
C470 C469 1.424 . S
C470 C471 1.347 . S
C471 H463 0.951 . S
C471 C466 1.429 . S
C471 C470 1.347 . S
H472 C473 0.951 . S
C473 H472 0.951 . S
C473 C479 1.265 . S
H474 C479 0.950 . S
H475 C483 0.949 . S
H476 C484 0.950 . S
H477 C485 0.951 . S
H478 C486 0.951 . S
C479 C473 1.265 . S
C479 H474 0.950 . S
C479 C480 1.478 . S
C480 C479 1.478 . S
C480 C481 1.397 . S
C480 C497 1.394 . S
C481 C480 1.397 . S
C481 C482 1.438 . S
C481 C486 1.429 . S
C482 C481 1.438 . S
C482 C483 1.428 . S
C482 C495 1.394 . S
C483 H475 0.949 . S
C483 C482 1.428 . S
C483 C484 1.345 . S
C484 H476 0.950 . S
C484 C483 1.345 . S
C484 C485 1.424 . S
C485 H477 0.951 . S
C485 C484 1.424 . S
C485 C486 1.347 . S
C486 H478 0.951 . S
C486 C481 1.429 . S
C486 C485 1.347 . S
H487 C488 0.951 . S
C488 H487 0.951 . S
C488 C494 1.265 . S
H489 C494 0.950 . S
H490 C498 0.949 . S
H491 C499 0.950 . S
H492 C500 0.951 . S
H493 C501 0.951 . S
C494 C488 1.265 . S
C494 H489 0.950 . S
C494 C495 1.478 . S
C495 C482 1.394 . S
C495 C494 1.478 . S
C495 C496 1.397 . S
C496 C495 1.397 . S
C496 C497 1.438 . S
C496 C501 1.429 . S
C497 C480 1.394 . S
C497 C496 1.438 . S
C497 C498 1.428 . S
C498 H490 0.949 . S
C498 C497 1.428 . S
C498 C499 1.345 . S
C499 H491 0.950 . S
C499 C498 1.345 . S
C499 C500 1.424 . S
C500 H492 0.951 . S
C500 C499 1.424 . S
C500 C501 1.347 . S
C501 H493 0.951 . S
C501 C496 1.429 . S
C501 C500 1.347 . S
H502 C503 0.951 . S
C503 H502 0.951 . S
C503 C509 1.265 . S
H504 C509 0.950 . S
H505 C513 0.949 . S
H506 C514 0.950 . S
H507 C515 0.951 . S
H508 C516 0.951 . S
C509 C503 1.265 . S
C509 H504 0.950 . S
C509 C510 1.478 . S
C510 C509 1.478 . S
C510 C511 1.397 . S
C510 C527 1.394 . S
C511 C510 1.397 . S
C511 C512 1.438 . S
C511 C516 1.429 . S
C512 C511 1.438 . S
C512 C513 1.428 . S
C512 C525 1.394 . S
C513 H505 0.949 . S
C513 C512 1.428 . S
C513 C514 1.345 . S
C514 H506 0.950 . S
C514 C513 1.345 . S
C514 C515 1.424 . S
C515 H507 0.951 . S
C515 C514 1.424 . S
C515 C516 1.347 . S
C516 H508 0.951 . S
C516 C511 1.429 . S
C516 C515 1.347 . S
H517 C518 0.951 . S
C518 H517 0.951 . S
C518 C524 1.265 . S
H519 C524 0.950 . S
H520 C528 0.949 . S
H521 C529 0.950 . S
H522 C530 0.951 . S
H523 C531 0.951 . S
C524 C518 1.265 . S
C524 H519 0.950 . S
C524 C525 1.478 . S
C525 C512 1.394 . S
C525 C524 1.478 . S
C525 C526 1.397 . S
C526 C525 1.397 . S
C526 C527 1.438 . S
C526 C531 1.429 . S
C527 C510 1.394 . S
C527 C526 1.438 . S
C527 C528 1.428 . S
C528 H520 0.949 . S
C528 C527 1.428 . S
C528 C529 1.345 . S
C529 H521 0.950 . S
C529 C528 1.345 . S
C529 C530 1.424 . S
C530 H522 0.951 . S
C530 C529 1.424 . S
C530 C531 1.347 . S
C531 H523 0.951 . S
C531 C526 1.429 . S
C531 C530 1.347 . S
H532 C533 0.951 . S
C533 H532 0.951 . S
C533 C539 1.265 . S
H534 C539 0.950 . S
H535 C543 0.949 . S
H536 C544 0.950 . S
H537 C545 0.951 . S
H538 C546 0.951 . S
C539 C533 1.265 . S
C539 H534 0.950 . S
C539 C540 1.478 . S
C540 C539 1.478 . S
C540 C541 1.397 . S
C540 C557 1.394 . S
C541 C540 1.397 . S
C541 C542 1.438 . S
C541 C546 1.429 . S
C542 C541 1.438 . S
C542 C543 1.428 . S
C542 C555 1.394 . S
C543 H535 0.949 . S
C543 C542 1.428 . S
C543 C544 1.345 . S
C544 H536 0.950 . S
C544 C543 1.345 . S
C544 C545 1.424 . S
C545 H537 0.951 . S
C545 C544 1.424 . S
C545 C546 1.347 . S
C546 H538 0.951 . S
C546 C541 1.429 . S
C546 C545 1.347 . S
H547 C548 0.951 . S
C548 H547 0.951 . S
C548 C554 1.265 . S
H549 C554 0.950 . S
H550 C558 0.949 . S
H551 C559 0.950 . S
H552 C560 0.951 . S
H553 C561 0.951 . S
C554 C548 1.265 . S
C554 H549 0.950 . S
C554 C555 1.478 . S
C555 C542 1.394 . S
C555 C554 1.478 . S
C555 C556 1.397 . S
C556 C555 1.397 . S
C556 C557 1.438 . S
C556 C561 1.429 . S
C557 C540 1.394 . S
C557 C556 1.438 . S
C557 C558 1.428 . S
C558 H550 0.949 . S
C558 C557 1.428 . S
C558 C559 1.345 . S
C559 H551 0.950 . S
C559 C558 1.345 . S
C559 C560 1.424 . S
C560 H552 0.951 . S
C560 C559 1.424 . S
C560 C561 1.347 . S
C561 H553 0.951 . S
C561 C556 1.429 . S
C561 C560 1.347 . S
H562 C563 0.951 . S
C563 H562 0.951 . S
C563 C569 1.265 . S
H564 C569 0.950 . S
H565 C573 0.949 . S
H566 C574 0.950 . S
H567 C575 0.951 . S
H568 C576 0.951 . S
C569 C563 1.265 . S
C569 H564 0.950 . S
C569 C570 1.478 . S
C570 C569 1.478 . S
C570 C571 1.397 . S
C570 C587 1.394 . S
C571 C570 1.397 . S
C571 C572 1.438 . S
C571 C576 1.429 . S
C572 C571 1.438 . S
C572 C573 1.428 . S
C572 C585 1.394 . S
C573 H565 0.949 . S
C573 C572 1.428 . S
C573 C574 1.345 . S
C574 H566 0.950 . S
C574 C573 1.345 . S
C574 C575 1.424 . S
C575 H567 0.951 . S
C575 C574 1.424 . S
C575 C576 1.347 . S
C576 H568 0.951 . S
C576 C571 1.429 . S
C576 C575 1.347 . S
H577 C578 0.951 . S
C578 H577 0.951 . S
C578 C584 1.265 . S
H579 C584 0.950 . S
H580 C588 0.949 . S
H581 C589 0.950 . S
H582 C590 0.951 . S
H583 C591 0.951 . S
C584 C578 1.265 . S
C584 H579 0.950 . S
C584 C585 1.478 . S
C585 C572 1.394 . S
C585 C584 1.478 . S
C585 C586 1.397 . S
C586 C585 1.397 . S
C586 C587 1.438 . S
C586 C591 1.429 . S
C587 C570 1.394 . S
C587 C586 1.438 . S
C587 C588 1.428 . S
C588 H580 0.949 . S
C588 C587 1.428 . S
C588 C589 1.345 . S
C589 H581 0.950 . S
C589 C588 1.345 . S
C589 C590 1.424 . S
C590 H582 0.951 . S
C590 C589 1.424 . S
C590 C591 1.347 . S
C591 H583 0.951 . S
C591 C586 1.429 . S
C591 C590 1.347 . S
C113 C8 1.682 . S
C128 C64 1.721 . S
C143 C22 1.712 . S
C158 C78 1.715 . S
C173 C92 1.678 . S
C188 C36 1.719 . S
C203 C106 1.717 . S
C218 C50 1.708 . S
C233 C6 1.208 . S
C248 C34 1.207 . S
C263 C20 1.330 . S
C278 C48 1.331 . S
C293 C90 1.209 . S
C308 C62 1.207 . S
C323 C76 1.295 . S
C338 C104 1.308 . S
C353 C79 2.090 . S
C368 C9 2.059 . S
C383 C23 2.076 1_655 S
C398 C93 2.054 . S
C413 C107 2.025 1_655 S
C428 C37 2.057 1_565 S
C443 C51 2.038 . S
C458 C65 2.069 1_565 S
C473 C91 0.953 . S
C488 C49 0.870 . S
C503 C7 0.849 . S
C518 C105 0.936 . S
C533 C21 0.936 . S
C548 C63 0.848 . S
C563 C77 0.861 . S
C578 C35 0.946 . S
