# Generated by pormake.
# Topology umg, (4)-cn, num edge types: 1
# Building blocks:
#     Node 0, Type 0, BuildingBlock: NAWXER_clean_sbu_0, # of connection points: 4
#     Node 1, Type 0, BuildingBlock: NAWXER_clean_sbu_0, # of connection points: 4
#     Node 2, Type 0, BuildingBlock: NAWXER_clean_sbu_0, # of connection points: 4
#     Node 3, Type 0, BuildingBlock: NAWXER_clean_sbu_0, # of connection points: 4
#     Node 4, Type 0, BuildingBlock: NAWXER_clean_sbu_0, # of connection points: 4
#     Node 5, Type 0, BuildingBlock: NAWXER_clean_sbu_0, # of connection points: 4
#     Node 6, Type 0, BuildingBlock: NAWXER_clean_sbu_0, # of connection points: 4
#     Node 7, Type 0, BuildingBlock: NAWXER_clean_sbu_0, # of connection points: 4
#     Node 8, Type 0, BuildingBlock: NAWXER_clean_sbu_0, # of connection points: 4
#     Node 9, Type 0, BuildingBlock: NAWXER_clean_sbu_0, # of connection points: 4
#     Node 10, Type 0, BuildingBlock: NAWXER_clean_sbu_0, # of connection points: 4
#     Node 11, Type 0, BuildingBlock: NAWXER_clean_sbu_0, # of connection points: 4
#     Edge 12, Type (0, 0), BuildingBlock: AJUNOK_clean_linker_0, # of connection points: 2
#     Edge 13, Type (0, 0), BuildingBlock: AJUNOK_clean_linker_0, # of connection points: 2
#     Edge 14, Type (0, 0), BuildingBlock: AJUNOK_clean_linker_0, # of connection points: 2
#     Edge 15, Type (0, 0), BuildingBlock: AJUNOK_clean_linker_0, # of connection points: 2
#     Edge 16, Type (0, 0), BuildingBlock: AJUNOK_clean_linker_0, # of connection points: 2
#     Edge 17, Type (0, 0), BuildingBlock: AJUNOK_clean_linker_0, # of connection points: 2
#     Edge 18, Type (0, 0), BuildingBlock: AJUNOK_clean_linker_0, # of connection points: 2
#     Edge 19, Type (0, 0), BuildingBlock: AJUNOK_clean_linker_0, # of connection points: 2
#     Edge 20, Type (0, 0), BuildingBlock: AJUNOK_clean_linker_0, # of connection points: 2
#     Edge 21, Type (0, 0), BuildingBlock: AJUNOK_clean_linker_0, # of connection points: 2
#     Edge 22, Type (0, 0), BuildingBlock: AJUNOK_clean_linker_0, # of connection points: 2
#     Edge 23, Type (0, 0), BuildingBlock: AJUNOK_clean_linker_0, # of connection points: 2
#     Edge 24, Type (0, 0), BuildingBlock: AJUNOK_clean_linker_0, # of connection points: 2
#     Edge 25, Type (0, 0), BuildingBlock: AJUNOK_clean_linker_0, # of connection points: 2
#     Edge 26, Type (0, 0), BuildingBlock: AJUNOK_clean_linker_0, # of connection points: 2
#     Edge 27, Type (0, 0), BuildingBlock: AJUNOK_clean_linker_0, # of connection points: 2
#     Edge 28, Type (0, 0), BuildingBlock: AJUNOK_clean_linker_0, # of connection points: 2
#     Edge 29, Type (0, 0), BuildingBlock: AJUNOK_clean_linker_0, # of connection points: 2
#     Edge 30, Type (0, 0), BuildingBlock: AJUNOK_clean_linker_0, # of connection points: 2
#     Edge 31, Type (0, 0), BuildingBlock: AJUNOK_clean_linker_0, # of connection points: 2
#     Edge 32, Type (0, 0), BuildingBlock: AJUNOK_clean_linker_0, # of connection points: 2
#     Edge 33, Type (0, 0), BuildingBlock: AJUNOK_clean_linker_0, # of connection points: 2
#     Edge 34, Type (0, 0), BuildingBlock: AJUNOK_clean_linker_0, # of connection points: 2
#     Edge 35, Type (0, 0), BuildingBlock: AJUNOK_clean_linker_0, # of connection points: 2
# Relax obj value: 0.016
# Max RMSD: 0.161
# Mean RMSD: 0.161
data_MOF--net-umg--node1-NAWXER_clean_sbu_0--edge1-AJUNOK_clean_linker_0
_symmetry_space_group_name_H-M    P1
_symmetry_Int_Tables_number       1
_symmetry_cell_setting            triclinic
loop_
_symmetry_equiv_pos_as_xyz
'x, y, z'
_cell_length_a     21.390428
_cell_length_b     21.388063
_cell_length_c     63.905844
_cell_angle_alpha  90.012443
_cell_angle_beta   89.990552
_cell_angle_gamma 119.99266
loop_
_atom_site_label
_atom_site_type_symbol
_atom_site_fract_x
_atom_site_fract_y
_atom_site_fract_z
_atom_type_partial_charge
C0 C 0.16015 0.53264 0.09315 0.0
C1 C 0.38908 0.53199 0.09262 0.0
O2 O 0.16898 0.47812 0.09381 0.0
Zn3 Zn 0.27382 0.52996 0.09265 0.0
O4 O 0.21577 0.59592 0.09206 0.0
Zn5 Zn 0.33084 0.64487 0.09098 0.0
O6 O 0.35466 0.69292 0.06401 0.0
O7 O 0.2958 0.57425 0.0617 0.0
O8 O 0.39691 0.59541 0.09174 0.0
O9 O 0.32575 0.47732 0.09308 0.0
O10 O 0.30408 0.58443 0.12224 0.0
O11 O 0.3599 0.70181 0.11632 0.0
C12 C 0.32665 0.63628 0.05278 0.0
C13 C 0.33674 0.64941 0.12913 0.0
C14 C 0.69497 0.33477 0.46209 0.0
C15 C 0.70572 0.31799 0.38601 0.0
O16 O 0.66798 0.35781 0.44847 0.0
Zn17 Zn 0.69834 0.32679 0.424 0.0
O18 O 0.72834 0.30203 0.45617 0.0
Zn19 Zn 0.75611 0.26996 0.42754 0.0
O20 O 0.8606 0.32239 0.4287 0.0
O21 O 0.8137 0.3931 0.42539 0.0
O22 O 0.73605 0.2884 0.39602 0.0
O23 O 0.67639 0.34761 0.39621 0.0
O24 O 0.63235 0.2117 0.42585 0.0
O25 O 0.70328 0.16527 0.4294 0.0
C26 C 0.86927 0.38557 0.42721 0.0
C27 C 0.64 0.1563 0.42792 0.0
C28 C 0.37113 0.69007 0.79547 0.0
C29 C 0.3955 0.70372 0.7194 0.0
O30 O 0.32085 0.66457 0.78194 0.0
Zn31 Zn 0.38158 0.69398 0.75736 0.0
O32 O 0.4371 0.7221 0.78945 0.0
Zn33 Zn 0.49547 0.74852 0.76055 0.0
O34 O 0.55113 0.85218 0.7619 0.0
O35 O 0.43424 0.8106 0.75875 0.0
O36 O 0.45602 0.73203 0.72909 0.0
O37 O 0.33708 0.6735 0.72983 0.0
O38 O 0.42759 0.62462 0.75854 0.0
O39 O 0.54521 0.69402 0.76172 0.0
C40 C 0.49881 0.8642 0.76038 0.0
C41 C 0.49034 0.6312 0.76025 0.0
C42 C 0.69018 0.37096 0.12895 0.0
C43 C 0.70204 0.39206 0.05277 0.0
O44 O 0.66813 0.3199 0.1157 0.0
Zn45 Zn 0.69842 0.37962 0.09081 0.0
O46 O 0.72296 0.43653 0.12261 0.0
Zn47 Zn 0.75442 0.49333 0.09359 0.0
O48 O 0.70483 0.54686 0.09465 0.0
O49 O 0.63133 0.42947 0.09187 0.0
O50 O 0.73266 0.4529 0.0623 0.0
O51 O 0.67532 0.33405 0.06338 0.0
O52 O 0.8146 0.42898 0.09201 0.0
O53 O 0.85792 0.54598 0.09494 0.0
C54 C 0.64096 0.49362 0.09337 0.0
C55 C 0.86896 0.49309 0.09359 0.0
C56 C 0.3347 0.68682 0.4625 0.0
C57 C 0.32168 0.7003 0.38642 0.0
O58 O 0.36156 0.66378 0.44886 0.0
Zn59 Zn 0.33087 0.69465 0.42441 0.0
O60 O 0.30125 0.71947 0.45661 0.0
Zn61 Zn 0.27372 0.75085 0.42786 0.0
O62 O 0.17061 0.70122 0.42924 0.0
O63 O 0.21411 0.62762 0.42582 0.0
O64 O 0.29181 0.73066 0.39629 0.0
O65 O 0.35245 0.67246 0.39675 0.0
O66 O 0.39791 0.81095 0.42594 0.0
O67 O 0.3244 0.85428 0.42949 0.0
C68 C 0.15974 0.63735 0.42763 0.0
C69 C 0.38828 0.86529 0.4279 0.0
C70 C 0.5386 0.15518 0.7591 0.0
C71 C 0.53067 0.38003 0.75974 0.0
O72 O 0.48336 0.16281 0.75975 0.0
Zn73 Zn 0.53375 0.26678 0.75929 0.0
O74 O 0.60158 0.21154 0.75826 0.0
Zn75 Zn 0.64785 0.32748 0.75762 0.0
O76 O 0.70507 0.3571 0.78289 0.0
O77 O 0.58798 0.29254 0.7889 0.0
O78 O 0.59534 0.39111 0.75866 0.0
O79 O 0.47839 0.31553 0.76044 0.0
O80 O 0.57791 0.29023 0.72828 0.0
O81 O 0.69642 0.35332 0.73075 0.0
C82 C 0.65295 0.32672 0.79575 0.0
C83 C 0.64004 0.32318 0.71945 0.0
C84 C 0.49432 0.86931 0.58645 0.0
C85 C 0.50287 0.64494 0.58871 0.0
O86 O 0.54943 0.86158 0.58545 0.0
Zn87 Zn 0.49985 0.75756 0.58751 0.0
O88 O 0.43158 0.81312 0.5882 0.0
Zn89 Zn 0.38557 0.69775 0.59014 0.0
O90 O 0.33979 0.67572 0.61753 0.0
O91 O 0.45857 0.73915 0.61873 0.0
O92 O 0.43828 0.63413 0.58983 0.0
O93 O 0.55537 0.70923 0.58736 0.0
O94 O 0.44331 0.72325 0.55844 0.0
O95 O 0.32647 0.66483 0.5652 0.0
C96 C 0.39761 0.70806 0.62819 0.0
C97 C 0.37786 0.68833 0.55203 0.0
C98 C 0.6946 0.36783 0.88549 0.0
C99 C 0.70117 0.39108 0.96157 0.0
O100 O 0.66638 0.31749 0.89896 0.0
Zn101 Zn 0.6975 0.37778 0.92361 0.0
O102 O 0.72956 0.43368 0.89161 0.0
Zn103 Zn 0.75783 0.4917 0.92058 0.0
O104 O 0.86185 0.54157 0.92 0.0
O105 O 0.8131 0.42368 0.92286 0.0
O106 O 0.73388 0.45175 0.95197 0.0
O107 O 0.67255 0.33281 0.95106 0.0
O108 O 0.63393 0.43052 0.92194 0.0
O109 O 0.7094 0.5472 0.91873 0.0
C110 C 0.86946 0.48647 0.92146 0.0
C111 C 0.64496 0.49504 0.92013 0.0
C112 C 0.3192 0.69718 0.29503 0.0
C113 C 0.33712 0.6893 0.2189 0.0
O114 O 0.34938 0.66864 0.28471 0.0
Zn115 Zn 0.32914 0.69178 0.25702 0.0
O116 O 0.28996 0.72813 0.28515 0.0
Zn117 Zn 0.27244 0.74976 0.25369 0.0
O118 O 0.16779 0.69719 0.25168 0.0
O119 O 0.21407 0.62601 0.25494 0.0
O120 O 0.30449 0.72265 0.22494 0.0
O121 O 0.36025 0.66209 0.23241 0.0
O122 O 0.3956 0.8071 0.25606 0.0
O123 O 0.32518 0.85433 0.25285 0.0
C124 C 0.15877 0.63383 0.25289 0.0
C125 C 0.38827 0.86283 0.25447 0.0
C126 C 0.64149 0.32405 0.62811 0.0
C127 C 0.65531 0.33706 0.55178 0.0
O128 O 0.69817 0.35138 0.6169 0.0
Zn129 Zn 0.65015 0.32979 0.58992 0.0
O130 O 0.57956 0.29509 0.61916 0.0
Zn131 Zn 0.53587 0.27623 0.58816 0.0
O132 O 0.48076 0.17215 0.58657 0.0
O133 O 0.59778 0.21382 0.58844 0.0
O134 O 0.59033 0.30593 0.55863 0.0
O135 O 0.70742 0.35844 0.56464 0.0
O136 O 0.60393 0.39927 0.58965 0.0
O137 O 0.48567 0.33008 0.58811 0.0
C138 C 0.53322 0.16015 0.58716 0.0
C139 C 0.54104 0.39284 0.58889 0.0
C140 C 0.32946 0.64906 0.88512 0.0
C141 C 0.32785 0.63581 0.96142 0.0
O142 O 0.35711 0.70131 0.89801 0.0
Zn143 Zn 0.33069 0.64393 0.92324 0.0
O144 O 0.29876 0.58402 0.89192 0.0
Zn145 Zn 0.27636 0.52979 0.9215 0.0
O146 O 0.17255 0.47384 0.92124 0.0
O147 O 0.21412 0.59104 0.92279 0.0
O148 O 0.29819 0.57375 0.95253 0.0
O149 O 0.35442 0.69232 0.95016 0.0
O150 O 0.40025 0.59802 0.92198 0.0
O151 O 0.33079 0.48003 0.92015 0.0
C152 C 0.16048 0.52626 0.92201 0.0
C153 C 0.39368 0.53514 0.9208 0.0
C154 C 0.706 0.31756 0.29454 0.0
C155 C 0.68865 0.32708 0.21845 0.0
O156 O 0.67666 0.347 0.28426 0.0
Zn157 Zn 0.69751 0.32429 0.25655 0.0
O158 O 0.73575 0.28727 0.28459 0.0
Zn159 Zn 0.75383 0.26718 0.25304 0.0
O160 O 0.8572 0.31792 0.25102 0.0
O161 O 0.81374 0.39131 0.25467 0.0
O162 O 0.72156 0.29388 0.22434 0.0
O163 O 0.6658 0.3541 0.2321 0.0
O164 O 0.63055 0.20765 0.25555 0.0
O165 O 0.70396 0.16391 0.2521 0.0
C166 C 0.8681 0.38179 0.25256 0.0
C167 C 0.64019 0.15319 0.2539 0.0
C168 C 0.3002 0.57503 0.99621 0.0
C169 C 0.3298 0.63966 0.98467 0.0
C170 C 0.2998 0.57514 0.01805 0.0
C171 C 0.32901 0.63989 0.02953 0.0
H172 H 0.27676 0.52328 0.98835 0.0
H173 H 0.27613 0.52347 0.02596 0.0
S174 S 0.41356 0.8245 1.00702 0.0
N175 N 0.38952 0.77076 0.98642 0.0
N176 N 0.3888 0.77096 0.02767 0.0
C177 C 0.35914 0.70524 0.01828 0.0
C178 C 0.35952 0.70513 0.99586 0.0
C179 C 0.67585 0.35224 0.35124 0.0
C180 C 0.70565 0.31718 0.36272 0.0
C181 C 0.67602 0.35223 0.32923 0.0
C182 C 0.70601 0.31718 0.31783 0.0
H183 H 0.65232 0.38013 0.35927 0.0
H184 H 0.65257 0.38008 0.32114 0.0
S185 S 0.78998 0.21623 0.34038 0.0
N186 N 0.76534 0.24563 0.36086 0.0
N187 N 0.7657 0.24566 0.31984 0.0
C188 C 0.73572 0.28166 0.32915 0.0
C189 C 0.73553 0.28165 0.35147 0.0
C190 C 0.33309 0.66057 0.68463 0.0
C191 C 0.39509 0.70752 0.69621 0.0
C192 C 0.33357 0.66172 0.66262 0.0
C193 C 0.39603 0.70994 0.65142 0.0
H194 H 0.28428 0.62162 0.69259 0.0
H195 H 0.28511 0.62356 0.65437 0.0
S196 S 0.57006 0.84965 0.67441 0.0
N197 N 0.51886 0.80743 0.69476 0.0
N198 N 0.51977 0.80969 0.6537 0.0
C199 C 0.45753 0.75883 0.66287 0.0
C200 C 0.45706 0.75759 0.68517 0.0
C201 C 0.68328 0.32842 0.01821 0.0
C202 C 0.69815 0.39083 0.02956 0.0
C203 C 0.68294 0.32814 0.9962 0.0
C204 C 0.69751 0.39028 0.98477 0.0
H205 H 0.67323 0.27985 0.02636 0.0
H206 H 0.67272 0.2794 0.98812 0.0
S207 S 0.73144 0.5651 1.00701 0.0
N208 N 0.72209 0.51462 0.02759 0.0
N209 N 0.72151 0.51406 0.98652 0.0
C210 C 0.70999 0.45218 0.99596 0.0
C211 C 0.7103 0.45246 0.01826 0.0
C212 C 0.36001 0.6743 0.32972 0.0
C213 C 0.31768 0.69588 0.3183 0.0
C214 C 0.36077 0.67526 0.35173 0.0
C215 C 0.31924 0.69784 0.36315 0.0
H216 H 0.39359 0.65738 0.32164 0.0
H217 H 0.39482 0.65893 0.3598 0.0
S218 S 0.19519 0.75502 0.34074 0.0
N219 N 0.2304 0.73725 0.32022 0.0
N220 N 0.23186 0.7391 0.36125 0.0
C221 C 0.27558 0.71818 0.35189 0.0
C222 C 0.27479 0.71718 0.32957 0.0
C223 C 0.57976 0.28824 0.68461 0.0
C224 C 0.64415 0.32484 0.69621 0.0
C225 C 0.58013 0.2883 0.66277 0.0
C226 C 0.6449 0.32492 0.65135 0.0
H227 H 0.52801 0.25903 0.69243 0.0
H228 H 0.52865 0.25912 0.65481 0.0
S229 S 0.82893 0.42928 0.67402 0.0
N230 N 0.77506 0.39883 0.69457 0.0
N231 N 0.77573 0.39893 0.65332 0.0
C232 C 0.71003 0.3616 0.66265 0.0
C233 C 0.70966 0.36159 0.68507 0.0
C234 C 0.34442 0.73205 0.18217 0.0
C235 C 0.34497 0.68148 0.19619 0.0
C236 C 0.34493 0.72298 0.16047 0.0
C237 C 0.34453 0.66222 0.15197 0.0
H238 H 0.34251 0.77863 0.18801 0.0
H239 H 0.34279 0.7624 0.15031 0.0
S240 S 0.35059 0.51637 0.1818 0.0
N241 N 0.34933 0.57063 0.19997 0.0
N242 N 0.34901 0.55279 0.15917 0.0
C243 C 0.34735 0.61236 0.16578 0.0
C244 C 0.34802 0.62224 0.18789 0.0
C245 C 0.73733 0.34212 0.49885 0.0
C246 C 0.68726 0.34327 0.48476 0.0
C247 C 0.72841 0.34342 0.52054 0.0
C248 C 0.66832 0.34452 0.52895 0.0
H249 H 0.7834 0.3391 0.49309 0.0
H250 H 0.76738 0.34067 0.53075 0.0
S251 S 0.52417 0.353 0.4989 0.0
N252 N 0.57775 0.35001 0.48081 0.0
N253 N 0.5602 0.35125 0.52159 0.0
C254 C 0.61906 0.34809 0.51507 0.0
C255 C 0.62877 0.34789 0.49297 0.0
C256 C 0.4059 0.73229 0.83227 0.0
C257 C 0.35515 0.6819 0.81815 0.0
C258 C 0.39564 0.72305 0.85395 0.0
C259 C 0.33501 0.66222 0.86231 0.0
H260 H 0.45454 0.7789 0.82652 0.0
H261 H 0.4369 0.76235 0.86421 0.0
S262 S 0.18419 0.51652 0.83216 0.0
N263 N 0.24014 0.57103 0.8141 0.0
N264 N 0.22151 0.55274 0.85487 0.0
C265 C 0.28283 0.61244 0.84839 0.0
C266 C 0.29266 0.62256 0.82631 0.0
C267 C 0.68292 0.29625 0.15988 0.0
C268 C 0.6811 0.35619 0.15166 0.0
C269 C 0.68329 0.28634 0.18155 0.0
C270 C 0.68043 0.33522 0.19578 0.0
H271 H 0.68715 0.25838 0.14954 0.0
H272 H 0.68711 0.24059 0.18719 0.0
S273 S 0.66759 0.49692 0.18205 0.0
N274 N 0.67142 0.46249 0.15929 0.0
N275 N 0.67086 0.44311 0.20001 0.0
C276 C 0.67482 0.39332 0.18772 0.0
C277 C 0.67559 0.40405 0.16566 0.0
C278 C 0.30271 0.67921 0.52103 0.0
C279 C 0.36346 0.67908 0.5293 0.0
C280 C 0.29303 0.67975 0.49935 0.0
C281 C 0.34294 0.67871 0.48517 0.0
H282 H 0.26399 0.68203 0.53134 0.0
H283 H 0.24658 0.68223 0.49368 0.0
S284 S 0.50735 0.67103 0.499 0.0
N285 N 0.47189 0.67321 0.52175 0.0
N286 N 0.45287 0.67283 0.481 0.0
C287 C 0.40197 0.67483 0.49326 0.0
C288 C 0.41248 0.6755 0.51533 0.0
C289 C 0.73586 0.40357 0.84864 0.0
C290 C 0.68611 0.35222 0.86277 0.0
C291 C 0.72639 0.39357 0.82695 0.0
C292 C 0.66605 0.3325 0.81858 0.0
H293 H 0.78217 0.4525 0.85437 0.0
H294 H 0.76523 0.43528 0.81671 0.0
S295 S 0.52234 0.17979 0.84871 0.0
N296 N 0.57642 0.23609 0.86676 0.0
N297 N 0.5579 0.2178 0.82601 0.0
C298 C 0.61698 0.27968 0.83249 0.0
C299 C 0.62724 0.28934 0.85458 0.0
C300 C 0.95505 0.44529 0.09346 0.0
C301 C 0.94374 0.50481 0.09369 0.0
C302 C 0.02488 0.45464 0.09339 0.0
C303 C 0.08654 0.52395 0.09349 0.0
H304 H 0.90958 0.39073 0.09332 0.0
H305 H 0.0304 0.40699 0.09316 0.0
S306 S 0.08692 0.69807 0.09422 0.0
N307 N 1.00067 0.63581 0.09411 0.0
N308 N 0.13136 0.65347 0.09398 0.0
C309 C 0.07602 0.58403 0.09379 0.0
C310 C 1.00492 0.57448 0.0939 0.0
C311 C 0.58268 0.02105 0.42756 0.0
C312 C 0.57514 0.08271 0.42834 0.0
C313 C 0.52215 0.95125 0.42746 0.0
C314 C 0.45139 0.94003 0.42822 0.0
H315 H 0.63581 0.02654 0.42684 0.0
H316 H 0.53114 0.90577 0.42674 0.0
S317 S 0.40174 0.08336 0.431 0.0
N318 N 0.49074 0.1277 0.4303 0.0
N319 N 0.37756 0.99709 0.43011 0.0
C320 C 0.44305 1.00124 0.42921 0.0
C321 C 0.50465 0.0723 0.42926 0.0
C322 C 0.57744 0.51349 0.75952 0.0
C323 C 0.51812 0.44259 0.76008 0.0
C324 C 0.56792 0.57379 0.75969 0.0
C325 C 0.49864 0.56605 0.76037 0.0
H326 H 0.63206 0.52285 0.75891 0.0
H327 H 0.61553 0.62695 0.75915 0.0
S328 S 0.32499 0.39229 0.76247 0.0
N329 N 0.38727 0.36831 0.76165 0.0
N330 N 0.36933 0.48135 0.76195 0.0
C331 C 0.43869 0.49546 0.76105 0.0
C332 C 0.44843 0.43394 0.76092 0.0
C333 C 0.58053 0.07394 0.58756 0.0
C334 C 0.52107 0.08523 0.58655 0.0
C335 C 0.57138 1.00428 0.5873 0.0
C336 C 0.50233 0.94261 0.58607 0.0
H337 H 0.63497 0.11931 0.58866 0.0
H338 H 0.61905 0.99893 0.58828 0.0
S339 S 0.32855 0.94199 0.58239 0.0
N340 N 0.39042 0.02828 0.58378 0.0
N341 N 0.37315 0.89757 0.5833 0.0
C342 C 0.44228 0.95297 0.58483 0.0
C343 C 0.45164 0.02407 0.58507 0.0
C344 C 0.45123 0.45767 0.92024 0.0
C345 C 0.45891 0.52697 0.92033 0.0
C346 C 0.51154 0.44819 0.92008 0.0
C347 C 0.58242 0.50757 0.91994 0.0
H348 H 0.39808 0.40997 0.9204 0.0
H349 H 0.50221 0.39354 0.92009 0.0
S350 S 0.63271 0.70085 0.91988 0.0
N351 N 0.54364 0.65644 0.9201 0.0
N352 N 0.65668 0.63853 0.91978 0.0
C353 C 0.59105 0.5773 0.9199 0.0
C354 C 0.52952 0.58701 0.9201 0.0
C355 C 0.02357 0.57628 0.2538 0.0
C356 C 0.08524 0.569 0.25221 0.0
C357 C 0.95386 0.51564 0.25381 0.0
C358 C 0.94273 0.44505 0.25213 0.0
H359 H 0.02903 0.62924 0.25531 0.0
H360 H 0.90836 0.5244 0.25524 0.0
S361 S 0.08612 0.39632 0.24667 0.0
N362 N 0.13035 0.4852 0.24827 0.0
N363 N 0.99987 0.37178 0.24828 0.0
C364 C 1.00395 0.43703 0.25023 0.0
C365 C 0.07492 0.49874 0.25027 0.0
C366 C 0.50754 0.44582 0.09074 0.0
C367 C 0.57777 0.50495 0.0935 0.0
C368 C 0.44691 0.45485 0.09061 0.0
C369 C 0.4539 0.52339 0.09315 0.0
H370 H 0.49908 0.39192 0.08857 0.0
H371 H 0.39421 0.40765 0.0883 0.0
S372 S 0.62547 0.6957 0.1018 0.0
N373 N 0.65034 0.63442 0.09943 0.0
N374 N 0.5369 0.65142 0.09918 0.0
C375 C 0.52378 0.58296 0.09615 0.0
C376 C 0.58547 0.57374 0.09631 0.0
C377 C 1.00438 0.44302 0.42699 0.0
C378 C 0.94268 0.45051 0.42755 0.0
C379 C 0.07407 0.50358 0.42704 0.0
C380 C 0.08513 0.57428 0.42775 0.0
H381 H 0.999 0.38994 0.42637 0.0
H382 H 0.11963 0.49466 0.42652 0.0
S383 S 0.94164 0.62378 0.42981 0.0
N384 N 0.89742 0.53477 0.42913 0.0
N385 N 0.02794 0.64805 0.42923 0.0
C386 C 0.02388 0.58258 0.42845 0.0
C387 C 0.95291 0.52095 0.42835 0.0
C388 C 0.46126 0.02032 0.76026 0.0
C389 C 0.53051 0.08189 0.75946 0.0
C390 C 0.45185 0.9506 0.76062 0.0
C391 C 0.51125 0.93917 0.76026 0.0
H392 H 0.41358 0.02577 0.76058 0.0
H393 H 0.39725 0.90527 0.76121 0.0
S394 S 0.70437 0.08199 0.75809 0.0
N395 N 0.65994 0.12664 0.75828 0.0
N396 N 0.64213 0.99575 0.75898 0.0
C397 C 0.58093 1.0002 0.7595 0.0
C398 C 0.59057 0.07136 0.75909 0.0
C399 C 0.45538 0.51159 0.5901 0.0
C400 C 0.51494 0.58219 0.58882 0.0
C401 C 0.46436 0.45102 0.5901 0.0
C402 C 0.53332 0.45822 0.58886 0.0
H403 H 0.40097 0.50267 0.5911 0.0
H404 H 0.4166 0.39808 0.59113 0.0
S405 S 0.70739 0.63105 0.58497 0.0
N406 N 0.64563 0.65565 0.58612 0.0
N407 N 0.66262 0.54207 0.58612 0.0
C408 C 0.59353 0.52853 0.58755 0.0
C409 C 0.58433 0.59032 0.58753 0.0
C410 C 0.07408 0.57322 0.92173 0.0
C411 C 0.08549 0.51379 0.92189 0.0
C412 C 1.00436 0.56382 0.92155 0.0
C413 C 0.94275 0.49453 0.92157 0.0
H414 H 0.11942 0.62788 0.92171 0.0
H415 H 0.99894 0.61153 0.92145 0.0
S416 S 0.94247 0.32054 0.92185 0.0
N417 N 0.02876 0.38281 0.92198 0.0
N418 N 0.89789 0.36503 0.92166 0.0
C419 C 0.95323 0.43444 0.92171 0.0
C420 C 0.0244 0.44406 0.92186 0.0
C421 C 0.44596 0.99791 0.25289 0.0
C422 C 0.4533 0.93625 0.25443 0.0
C423 C 0.50654 0.06759 0.25277 0.0
C424 C 0.57712 0.07865 0.2541 0.0
H425 H 0.39296 0.99253 0.25176 0.0
H426 H 0.49776 0.11313 0.25151 0.0
S427 S 0.62637 0.9355 0.25879 0.0
N428 N 0.53744 0.89118 0.25759 0.0
N429 N 0.65072 0.02172 0.25732 0.0
C430 C 0.58533 0.01751 0.2557 0.0
C431 C 0.52368 0.94655 0.25589 0.0
loop_
_geom_bond_atom_site_label_1
_geom_bond_atom_site_label_2
_geom_bond_distance
_geom_bond_site_symmetry_2
_ccdc_geom_bond_type
C0 O2 1.247 . S
C0 O4 1.258 . S
C1 O8 1.247 . S
C1 O9 1.258 . S
O2 C0 1.247 . S
O2 Zn3 2.028 . S
Zn3 O2 2.028 . S
Zn3 O7 2.035 . S
Zn3 O9 2.035 . S
Zn3 O10 2.028 . S
O4 C0 1.258 . S
O4 Zn5 2.035 . S
Zn5 O4 2.035 . S
Zn5 O6 2.028 . S
Zn5 O8 2.028 . S
Zn5 O11 2.035 . S
O6 Zn5 2.028 . S
O6 C12 1.247 . S
O7 Zn3 2.035 . S
O7 C12 1.258 . S
O8 C1 1.247 . S
O8 Zn5 2.028 . S
O9 C1 1.258 . S
O9 Zn3 2.035 . S
O10 Zn3 2.028 . S
O10 C13 1.247 . S
O11 Zn5 2.035 . S
O11 C13 1.258 . S
C12 O6 1.247 . S
C12 O7 1.258 . S
C13 O10 1.247 . S
C13 O11 1.258 . S
C14 O16 1.247 . S
C14 O18 1.258 . S
C15 O22 1.247 . S
C15 O23 1.258 . S
O16 C14 1.247 . S
O16 Zn17 2.028 . S
Zn17 O16 2.028 . S
Zn17 O21 2.035 . S
Zn17 O23 2.035 . S
Zn17 O24 2.028 . S
O18 C14 1.258 . S
O18 Zn19 2.035 . S
Zn19 O18 2.035 . S
Zn19 O20 2.028 . S
Zn19 O22 2.028 . S
Zn19 O25 2.035 . S
O20 Zn19 2.028 . S
O20 C26 1.247 . S
O21 Zn17 2.035 . S
O21 C26 1.258 . S
O22 C15 1.247 . S
O22 Zn19 2.028 . S
O23 C15 1.258 . S
O23 Zn17 2.035 . S
O24 Zn17 2.028 . S
O24 C27 1.247 . S
O25 Zn19 2.035 . S
O25 C27 1.258 . S
C26 O20 1.247 . S
C26 O21 1.258 . S
C27 O24 1.247 . S
C27 O25 1.258 . S
C28 O30 1.247 . S
C28 O32 1.258 . S
C29 O36 1.247 . S
C29 O37 1.258 . S
O30 C28 1.247 . S
O30 Zn31 2.028 . S
Zn31 O30 2.028 . S
Zn31 O35 2.035 . S
Zn31 O37 2.035 . S
Zn31 O38 2.028 . S
O32 C28 1.258 . S
O32 Zn33 2.035 . S
Zn33 O32 2.035 . S
Zn33 O34 2.028 . S
Zn33 O36 2.028 . S
Zn33 O39 2.035 . S
O34 Zn33 2.028 . S
O34 C40 1.247 . S
O35 Zn31 2.035 . S
O35 C40 1.258 . S
O36 C29 1.247 . S
O36 Zn33 2.028 . S
O37 C29 1.258 . S
O37 Zn31 2.035 . S
O38 Zn31 2.028 . S
O38 C41 1.247 . S
O39 Zn33 2.035 . S
O39 C41 1.258 . S
C40 O34 1.247 . S
C40 O35 1.258 . S
C41 O38 1.247 . S
C41 O39 1.258 . S
C42 O44 1.247 . S
C42 O46 1.258 . S
C43 O50 1.247 . S
C43 O51 1.258 . S
O44 C42 1.247 . S
O44 Zn45 2.028 . S
Zn45 O44 2.028 . S
Zn45 O49 2.035 . S
Zn45 O51 2.035 . S
Zn45 O52 2.028 . S
O46 C42 1.258 . S
O46 Zn47 2.035 . S
Zn47 O46 2.035 . S
Zn47 O48 2.028 . S
Zn47 O50 2.028 . S
Zn47 O53 2.035 . S
O48 Zn47 2.028 . S
O48 C54 1.247 . S
O49 Zn45 2.035 . S
O49 C54 1.258 . S
O50 C43 1.247 . S
O50 Zn47 2.028 . S
O51 C43 1.258 . S
O51 Zn45 2.035 . S
O52 Zn45 2.028 . S
O52 C55 1.247 . S
O53 Zn47 2.035 . S
O53 C55 1.258 . S
C54 O48 1.247 . S
C54 O49 1.258 . S
C55 O52 1.247 . S
C55 O53 1.258 . S
C56 O58 1.247 . S
C56 O60 1.258 . S
C57 O64 1.247 . S
C57 O65 1.258 . S
O58 C56 1.247 . S
O58 Zn59 2.028 . S
Zn59 O58 2.028 . S
Zn59 O63 2.035 . S
Zn59 O65 2.035 . S
Zn59 O66 2.028 . S
O60 C56 1.258 . S
O60 Zn61 2.035 . S
Zn61 O60 2.035 . S
Zn61 O62 2.028 . S
Zn61 O64 2.028 . S
Zn61 O67 2.035 . S
O62 Zn61 2.028 . S
O62 C68 1.247 . S
O63 Zn59 2.035 . S
O63 C68 1.258 . S
O64 C57 1.247 . S
O64 Zn61 2.028 . S
O65 C57 1.258 . S
O65 Zn59 2.035 . S
O66 Zn59 2.028 . S
O66 C69 1.247 . S
O67 Zn61 2.035 . S
O67 C69 1.258 . S
C68 O62 1.247 . S
C68 O63 1.258 . S
C69 O66 1.247 . S
C69 O67 1.258 . S
C70 O72 1.247 . S
C70 O74 1.258 . S
C71 O78 1.247 . S
C71 O79 1.258 . S
O72 C70 1.247 . S
O72 Zn73 2.028 . S
Zn73 O72 2.028 . S
Zn73 O77 2.035 . S
Zn73 O79 2.035 . S
Zn73 O80 2.028 . S
O74 C70 1.258 . S
O74 Zn75 2.035 . S
Zn75 O74 2.035 . S
Zn75 O76 2.028 . S
Zn75 O78 2.028 . S
Zn75 O81 2.035 . S
O76 Zn75 2.028 . S
O76 C82 1.247 . S
O77 Zn73 2.035 . S
O77 C82 1.258 . S
O78 C71 1.247 . S
O78 Zn75 2.028 . S
O79 C71 1.258 . S
O79 Zn73 2.035 . S
O80 Zn73 2.028 . S
O80 C83 1.247 . S
O81 Zn75 2.035 . S
O81 C83 1.258 . S
C82 O76 1.247 . S
C82 O77 1.258 . S
C83 O80 1.247 . S
C83 O81 1.258 . S
C84 O86 1.247 . S
C84 O88 1.258 . S
C85 O92 1.247 . S
C85 O93 1.258 . S
O86 C84 1.247 . S
O86 Zn87 2.028 . S
Zn87 O86 2.028 . S
Zn87 O91 2.035 . S
Zn87 O93 2.035 . S
Zn87 O94 2.028 . S
O88 C84 1.258 . S
O88 Zn89 2.035 . S
Zn89 O88 2.035 . S
Zn89 O90 2.028 . S
Zn89 O92 2.028 . S
Zn89 O95 2.035 . S
O90 Zn89 2.028 . S
O90 C96 1.247 . S
O91 Zn87 2.035 . S
O91 C96 1.258 . S
O92 C85 1.247 . S
O92 Zn89 2.028 . S
O93 C85 1.258 . S
O93 Zn87 2.035 . S
O94 Zn87 2.028 . S
O94 C97 1.247 . S
O95 Zn89 2.035 . S
O95 C97 1.258 . S
C96 O90 1.247 . S
C96 O91 1.258 . S
C97 O94 1.247 . S
C97 O95 1.258 . S
C98 O100 1.247 . S
C98 O102 1.258 . S
C99 O106 1.247 . S
C99 O107 1.258 . S
O100 C98 1.247 . S
O100 Zn101 2.028 . S
Zn101 O100 2.028 . S
Zn101 O105 2.035 . S
Zn101 O107 2.035 . S
Zn101 O108 2.028 . S
O102 C98 1.258 . S
O102 Zn103 2.035 . S
Zn103 O102 2.035 . S
Zn103 O104 2.028 . S
Zn103 O106 2.028 . S
Zn103 O109 2.035 . S
O104 Zn103 2.028 . S
O104 C110 1.247 . S
O105 Zn101 2.035 . S
O105 C110 1.258 . S
O106 C99 1.247 . S
O106 Zn103 2.028 . S
O107 C99 1.258 . S
O107 Zn101 2.035 . S
O108 Zn101 2.028 . S
O108 C111 1.247 . S
O109 Zn103 2.035 . S
O109 C111 1.258 . S
C110 O104 1.247 . S
C110 O105 1.258 . S
C111 O108 1.247 . S
C111 O109 1.258 . S
C112 O114 1.247 . S
C112 O116 1.258 . S
C113 O120 1.247 . S
C113 O121 1.258 . S
O114 C112 1.247 . S
O114 Zn115 2.028 . S
Zn115 O114 2.028 . S
Zn115 O119 2.035 . S
Zn115 O121 2.035 . S
Zn115 O122 2.028 . S
O116 C112 1.258 . S
O116 Zn117 2.035 . S
Zn117 O116 2.035 . S
Zn117 O118 2.028 . S
Zn117 O120 2.028 . S
Zn117 O123 2.035 . S
O118 Zn117 2.028 . S
O118 C124 1.247 . S
O119 Zn115 2.035 . S
O119 C124 1.258 . S
O120 C113 1.247 . S
O120 Zn117 2.028 . S
O121 C113 1.258 . S
O121 Zn115 2.035 . S
O122 Zn115 2.028 . S
O122 C125 1.247 . S
O123 Zn117 2.035 . S
O123 C125 1.258 . S
C124 O118 1.247 . S
C124 O119 1.258 . S
C125 O122 1.247 . S
C125 O123 1.258 . S
C126 O128 1.247 . S
C126 O130 1.258 . S
C127 O134 1.247 . S
C127 O135 1.258 . S
O128 C126 1.247 . S
O128 Zn129 2.028 . S
Zn129 O128 2.028 . S
Zn129 O133 2.035 . S
Zn129 O135 2.035 . S
Zn129 O136 2.028 . S
O130 C126 1.258 . S
O130 Zn131 2.035 . S
Zn131 O130 2.035 . S
Zn131 O132 2.028 . S
Zn131 O134 2.028 . S
Zn131 O137 2.035 . S
O132 Zn131 2.028 . S
O132 C138 1.247 . S
O133 Zn129 2.035 . S
O133 C138 1.258 . S
O134 C127 1.247 . S
O134 Zn131 2.028 . S
O135 C127 1.258 . S
O135 Zn129 2.035 . S
O136 Zn129 2.028 . S
O136 C139 1.247 . S
O137 Zn131 2.035 . S
O137 C139 1.258 . S
C138 O132 1.247 . S
C138 O133 1.258 . S
C139 O136 1.247 . S
C139 O137 1.258 . S
C140 O142 1.247 . S
C140 O144 1.258 . S
C141 O148 1.247 . S
C141 O149 1.258 . S
O142 C140 1.247 . S
O142 Zn143 2.028 . S
Zn143 O142 2.028 . S
Zn143 O147 2.035 . S
Zn143 O149 2.035 . S
Zn143 O150 2.028 . S
O144 C140 1.258 . S
O144 Zn145 2.035 . S
Zn145 O144 2.035 . S
Zn145 O146 2.028 . S
Zn145 O148 2.028 . S
Zn145 O151 2.035 . S
O146 Zn145 2.028 . S
O146 C152 1.247 . S
O147 Zn143 2.035 . S
O147 C152 1.258 . S
O148 C141 1.247 . S
O148 Zn145 2.028 . S
O149 C141 1.258 . S
O149 Zn143 2.035 . S
O150 Zn143 2.028 . S
O150 C153 1.247 . S
O151 Zn145 2.035 . S
O151 C153 1.258 . S
C152 O146 1.247 . S
C152 O147 1.258 . S
C153 O150 1.247 . S
C153 O151 1.258 . S
C154 O156 1.247 . S
C154 O158 1.258 . S
C155 O162 1.247 . S
C155 O163 1.258 . S
O156 C154 1.247 . S
O156 Zn157 2.028 . S
Zn157 O156 2.028 . S
Zn157 O161 2.035 . S
Zn157 O163 2.035 . S
Zn157 O164 2.028 . S
O158 C154 1.258 . S
O158 Zn159 2.035 . S
Zn159 O158 2.035 . S
Zn159 O160 2.028 . S
Zn159 O162 2.028 . S
Zn159 O165 2.035 . S
O160 Zn159 2.028 . S
O160 C166 1.247 . S
O161 Zn157 2.035 . S
O161 C166 1.258 . S
O162 C155 1.247 . S
O162 Zn159 2.028 . S
O163 C155 1.258 . S
O163 Zn157 2.035 . S
O164 Zn157 2.028 . S
O164 C167 1.247 . S
O165 Zn159 2.035 . S
O165 C167 1.258 . S
C166 O160 1.247 . S
C166 O161 1.258 . S
C167 O164 1.247 . S
C167 O165 1.258 . S
C168 C169 1.369 . S
C168 C170 1.419 1_556 S
C168 H172 0.930 . S
C169 C168 1.369 . S
C169 C178 1.429 . S
C170 C168 1.419 1_554 S
C170 C171 1.363 . S
C170 H173 0.929 . S
C171 C170 1.363 . S
C171 C177 1.428 . S
H172 C168 0.930 . S
H173 C170 0.929 . S
S174 N175 1.613 1_554 S
S174 N176 1.610 . S
N175 S174 1.613 1_556 S
N175 C178 1.350 . S
N176 S174 1.610 . S
N176 C177 1.351 . S
C177 C171 1.428 . S
C177 N176 1.351 . S
C177 C178 1.434 1_554 S
C178 C169 1.429 . S
C178 N175 1.350 . S
C178 C177 1.434 1_556 S
C179 C180 1.369 . S
C179 C181 1.419 . S
C179 H183 0.930 . S
C180 C179 1.369 . S
C180 C189 1.429 . S
C181 C179 1.419 . S
C181 C182 1.363 . S
C181 H184 0.929 . S
C182 C181 1.363 . S
C182 C188 1.428 . S
H183 C179 0.930 . S
H184 C181 0.929 . S
S185 N186 1.613 . S
S185 N187 1.610 . S
N186 S185 1.613 . S
N186 C189 1.350 . S
N187 S185 1.610 . S
N187 C188 1.351 . S
C188 C182 1.428 . S
C188 N187 1.351 . S
C188 C189 1.434 . S
C189 C180 1.429 . S
C189 N186 1.350 . S
C189 C188 1.434 . S
C190 C191 1.369 . S
C190 C192 1.419 . S
C190 H194 0.930 . S
C191 C190 1.369 . S
C191 C200 1.429 . S
C192 C190 1.419 . S
C192 C193 1.363 . S
C192 H195 0.929 . S
C193 C192 1.363 . S
C193 C199 1.428 . S
H194 C190 0.930 . S
H195 C192 0.929 . S
S196 N197 1.613 . S
S196 N198 1.610 . S
N197 S196 1.613 . S
N197 C200 1.350 . S
N198 S196 1.610 . S
N198 C199 1.351 . S
C199 C193 1.428 . S
C199 N198 1.351 . S
C199 C200 1.434 . S
C200 C191 1.429 . S
C200 N197 1.350 . S
C200 C199 1.434 . S
C201 C202 1.369 . S
C201 C203 1.419 1_554 S
C201 H205 0.930 . S
C202 C201 1.369 . S
C202 C211 1.429 . S
C203 C201 1.419 1_556 S
C203 C204 1.363 . S
C203 H206 0.929 . S
C204 C203 1.363 . S
C204 C210 1.428 . S
H205 C201 0.930 . S
H206 C203 0.929 . S
S207 N208 1.613 1_556 S
S207 N209 1.610 . S
N208 S207 1.613 1_554 S
N208 C211 1.350 . S
N209 S207 1.610 . S
N209 C210 1.351 . S
C210 C204 1.428 . S
C210 N209 1.351 . S
C210 C211 1.434 1_556 S
C211 C202 1.429 . S
C211 N208 1.350 . S
C211 C210 1.434 1_554 S
C212 C213 1.369 . S
C212 C214 1.419 . S
C212 H216 0.930 . S
C213 C212 1.369 . S
C213 C222 1.429 . S
C214 C212 1.419 . S
C214 C215 1.363 . S
C214 H217 0.929 . S
C215 C214 1.363 . S
C215 C221 1.428 . S
H216 C212 0.930 . S
H217 C214 0.929 . S
S218 N219 1.613 . S
S218 N220 1.610 . S
N219 S218 1.613 . S
N219 C222 1.350 . S
N220 S218 1.610 . S
N220 C221 1.351 . S
C221 C215 1.428 . S
C221 N220 1.351 . S
C221 C222 1.434 . S
C222 C213 1.429 . S
C222 N219 1.350 . S
C222 C221 1.434 . S
C223 C224 1.369 . S
C223 C225 1.419 . S
C223 H227 0.930 . S
C224 C223 1.369 . S
C224 C233 1.429 . S
C225 C223 1.419 . S
C225 C226 1.363 . S
C225 H228 0.929 . S
C226 C225 1.363 . S
C226 C232 1.428 . S
H227 C223 0.930 . S
H228 C225 0.929 . S
S229 N230 1.613 . S
S229 N231 1.610 . S
N230 S229 1.613 . S
N230 C233 1.350 . S
N231 S229 1.610 . S
N231 C232 1.351 . S
C232 C226 1.428 . S
C232 N231 1.351 . S
C232 C233 1.434 . S
C233 C224 1.429 . S
C233 N230 1.350 . S
C233 C232 1.434 . S
C234 C235 1.369 . S
C234 C236 1.419 . S
C234 H238 0.930 . S
C235 C234 1.369 . S
C235 C244 1.429 . S
C236 C234 1.419 . S
C236 C237 1.363 . S
C236 H239 0.929 . S
C237 C236 1.363 . S
C237 C243 1.428 . S
H238 C234 0.930 . S
H239 C236 0.929 . S
S240 N241 1.613 . S
S240 N242 1.610 . S
N241 S240 1.613 . S
N241 C244 1.350 . S
N242 S240 1.610 . S
N242 C243 1.351 . S
C243 C237 1.428 . S
C243 N242 1.351 . S
C243 C244 1.434 . S
C244 C235 1.429 . S
C244 N241 1.350 . S
C244 C243 1.434 . S
C245 C246 1.369 . S
C245 C247 1.419 . S
C245 H249 0.930 . S
C246 C245 1.369 . S
C246 C255 1.429 . S
C247 C245 1.419 . S
C247 C248 1.363 . S
C247 H250 0.929 . S
C248 C247 1.363 . S
C248 C254 1.428 . S
H249 C245 0.930 . S
H250 C247 0.929 . S
S251 N252 1.613 . S
S251 N253 1.610 . S
N252 S251 1.613 . S
N252 C255 1.350 . S
N253 S251 1.610 . S
N253 C254 1.351 . S
C254 C248 1.428 . S
C254 N253 1.351 . S
C254 C255 1.434 . S
C255 C246 1.429 . S
C255 N252 1.350 . S
C255 C254 1.434 . S
C256 C257 1.369 . S
C256 C258 1.419 . S
C256 H260 0.930 . S
C257 C256 1.369 . S
C257 C266 1.429 . S
C258 C256 1.419 . S
C258 C259 1.363 . S
C258 H261 0.929 . S
C259 C258 1.363 . S
C259 C265 1.428 . S
H260 C256 0.930 . S
H261 C258 0.929 . S
S262 N263 1.613 . S
S262 N264 1.610 . S
N263 S262 1.613 . S
N263 C266 1.350 . S
N264 S262 1.610 . S
N264 C265 1.351 . S
C265 C259 1.428 . S
C265 N264 1.351 . S
C265 C266 1.434 . S
C266 C257 1.429 . S
C266 N263 1.350 . S
C266 C265 1.434 . S
C267 C268 1.369 . S
C267 C269 1.419 . S
C267 H271 0.930 . S
C268 C267 1.369 . S
C268 C277 1.429 . S
C269 C267 1.419 . S
C269 C270 1.363 . S
C269 H272 0.929 . S
C270 C269 1.363 . S
C270 C276 1.428 . S
H271 C267 0.930 . S
H272 C269 0.929 . S
S273 N274 1.613 . S
S273 N275 1.610 . S
N274 S273 1.613 . S
N274 C277 1.350 . S
N275 S273 1.610 . S
N275 C276 1.351 . S
C276 C270 1.428 . S
C276 N275 1.351 . S
C276 C277 1.434 . S
C277 C268 1.429 . S
C277 N274 1.350 . S
C277 C276 1.434 . S
C278 C279 1.369 . S
C278 C280 1.419 . S
C278 H282 0.930 . S
C279 C278 1.369 . S
C279 C288 1.429 . S
C280 C278 1.419 . S
C280 C281 1.363 . S
C280 H283 0.929 . S
C281 C280 1.363 . S
C281 C287 1.428 . S
H282 C278 0.930 . S
H283 C280 0.929 . S
S284 N285 1.613 . S
S284 N286 1.610 . S
N285 S284 1.613 . S
N285 C288 1.350 . S
N286 S284 1.610 . S
N286 C287 1.351 . S
C287 C281 1.428 . S
C287 N286 1.351 . S
C287 C288 1.434 . S
C288 C279 1.429 . S
C288 N285 1.350 . S
C288 C287 1.434 . S
C289 C290 1.369 . S
C289 C291 1.419 . S
C289 H293 0.930 . S
C290 C289 1.369 . S
C290 C299 1.429 . S
C291 C289 1.419 . S
C291 C292 1.363 . S
C291 H294 0.929 . S
C292 C291 1.363 . S
C292 C298 1.428 . S
H293 C289 0.930 . S
H294 C291 0.929 . S
S295 N296 1.613 . S
S295 N297 1.610 . S
N296 S295 1.613 . S
N296 C299 1.350 . S
N297 S295 1.610 . S
N297 C298 1.351 . S
C298 C292 1.428 . S
C298 N297 1.351 . S
C298 C299 1.434 . S
C299 C290 1.429 . S
C299 N296 1.350 . S
C299 C298 1.434 . S
C300 C301 1.369 . S
C300 C302 1.419 1_655 S
C300 H304 0.930 . S
C301 C300 1.369 . S
C301 C310 1.429 . S
C302 C300 1.419 1_455 S
C302 C303 1.363 . S
C302 H305 0.929 . S
C303 C302 1.363 . S
C303 C309 1.428 . S
H304 C300 0.930 . S
H305 C302 0.929 . S
S306 N307 1.613 1_455 S
S306 N308 1.610 . S
N307 S306 1.613 1_655 S
N307 C310 1.350 . S
N308 S306 1.610 . S
N308 C309 1.351 . S
C309 C303 1.428 . S
C309 N308 1.351 . S
C309 C310 1.434 1_455 S
C310 C301 1.429 . S
C310 N307 1.350 . S
C310 C309 1.434 1_655 S
C311 C312 1.369 . S
C311 C313 1.419 1_545 S
C311 H315 0.930 . S
C312 C311 1.369 . S
C312 C321 1.429 . S
C313 C311 1.419 1_565 S
C313 C314 1.363 . S
C313 H316 0.929 . S
C314 C313 1.363 . S
C314 C320 1.428 . S
H315 C311 0.930 . S
H316 C313 0.929 . S
S317 N318 1.613 . S
S317 N319 1.610 1_545 S
N318 S317 1.613 . S
N318 C321 1.350 . S
N319 S317 1.610 1_565 S
N319 C320 1.351 . S
C320 C314 1.428 . S
C320 N319 1.351 . S
C320 C321 1.434 1_565 S
C321 C312 1.429 . S
C321 N318 1.350 . S
C321 C320 1.434 1_545 S
C322 C323 1.369 . S
C322 C324 1.419 . S
C322 H326 0.930 . S
C323 C322 1.369 . S
C323 C332 1.429 . S
C324 C322 1.419 . S
C324 C325 1.363 . S
C324 H327 0.929 . S
C325 C324 1.363 . S
C325 C331 1.428 . S
H326 C322 0.930 . S
H327 C324 0.929 . S
S328 N329 1.613 . S
S328 N330 1.610 . S
N329 S328 1.613 . S
N329 C332 1.350 . S
N330 S328 1.610 . S
N330 C331 1.351 . S
C331 C325 1.428 . S
C331 N330 1.351 . S
C331 C332 1.434 . S
C332 C323 1.429 . S
C332 N329 1.350 . S
C332 C331 1.434 . S
C333 C334 1.369 . S
C333 C335 1.419 1_545 S
C333 H337 0.930 . S
C334 C333 1.369 . S
C334 C343 1.429 . S
C335 C333 1.419 1_565 S
C335 C336 1.363 . S
C335 H338 0.929 . S
C336 C335 1.363 . S
C336 C342 1.428 . S
H337 C333 0.930 . S
H338 C335 0.929 . S
S339 N340 1.613 1_565 S
S339 N341 1.610 . S
N340 S339 1.613 1_545 S
N340 C343 1.350 . S
N341 S339 1.610 . S
N341 C342 1.351 . S
C342 C336 1.428 . S
C342 N341 1.351 . S
C342 C343 1.434 1_565 S
C343 C334 1.429 . S
C343 N340 1.350 . S
C343 C342 1.434 1_545 S
C344 C345 1.369 . S
C344 C346 1.419 . S
C344 H348 0.930 . S
C345 C344 1.369 . S
C345 C354 1.429 . S
C346 C344 1.419 . S
C346 C347 1.363 . S
C346 H349 0.929 . S
C347 C346 1.363 . S
C347 C353 1.428 . S
H348 C344 0.930 . S
H349 C346 0.929 . S
S350 N351 1.613 . S
S350 N352 1.610 . S
N351 S350 1.613 . S
N351 C354 1.350 . S
N352 S350 1.610 . S
N352 C353 1.351 . S
C353 C347 1.428 . S
C353 N352 1.351 . S
C353 C354 1.434 . S
C354 C345 1.429 . S
C354 N351 1.350 . S
C354 C353 1.434 . S
C355 C356 1.369 . S
C355 C357 1.419 1_455 S
C355 H359 0.930 . S
C356 C355 1.369 . S
C356 C365 1.429 . S
C357 C355 1.419 1_655 S
C357 C358 1.363 . S
C357 H360 0.929 . S
C358 C357 1.363 . S
C358 C364 1.428 . S
H359 C355 0.930 . S
H360 C357 0.929 . S
S361 N362 1.613 . S
S361 N363 1.610 1_455 S
N362 S361 1.613 . S
N362 C365 1.350 . S
N363 S361 1.610 1_655 S
N363 C364 1.351 . S
C364 C358 1.428 . S
C364 N363 1.351 . S
C364 C365 1.434 1_655 S
C365 C356 1.429 . S
C365 N362 1.350 . S
C365 C364 1.434 1_455 S
C366 C367 1.369 . S
C366 C368 1.419 . S
C366 H370 0.930 . S
C367 C366 1.369 . S
C367 C376 1.429 . S
C368 C366 1.419 . S
C368 C369 1.363 . S
C368 H371 0.929 . S
C369 C368 1.363 . S
C369 C375 1.428 . S
H370 C366 0.930 . S
H371 C368 0.929 . S
S372 N373 1.613 . S
S372 N374 1.610 . S
N373 S372 1.613 . S
N373 C376 1.350 . S
N374 S372 1.610 . S
N374 C375 1.351 . S
C375 C369 1.428 . S
C375 N374 1.351 . S
C375 C376 1.434 . S
C376 C367 1.429 . S
C376 N373 1.350 . S
C376 C375 1.434 . S
C377 C378 1.369 . S
C377 C379 1.419 1_655 S
C377 H381 0.930 . S
C378 C377 1.369 . S
C378 C387 1.429 . S
C379 C377 1.419 1_455 S
C379 C380 1.363 . S
C379 H382 0.929 . S
C380 C379 1.363 . S
C380 C386 1.428 . S
H381 C377 0.930 . S
H382 C379 0.929 . S
S383 N384 1.613 . S
S383 N385 1.610 1_655 S
N384 S383 1.613 . S
N384 C387 1.350 . S
N385 S383 1.610 1_455 S
N385 C386 1.351 . S
C386 C380 1.428 . S
C386 N385 1.351 . S
C386 C387 1.434 1_455 S
C387 C378 1.429 . S
C387 N384 1.350 . S
C387 C386 1.434 1_655 S
C388 C389 1.369 . S
C388 C390 1.419 1_545 S
C388 H392 0.930 . S
C389 C388 1.369 . S
C389 C398 1.429 . S
C390 C388 1.419 1_565 S
C390 C391 1.363 . S
C390 H393 0.929 . S
C391 C390 1.363 . S
C391 C397 1.428 . S
H392 C388 0.930 . S
H393 C390 0.929 . S
S394 N395 1.613 . S
S394 N396 1.610 1_545 S
N395 S394 1.613 . S
N395 C398 1.350 . S
N396 S394 1.610 1_565 S
N396 C397 1.351 . S
C397 C391 1.428 . S
C397 N396 1.351 . S
C397 C398 1.434 1_565 S
C398 C389 1.429 . S
C398 N395 1.350 . S
C398 C397 1.434 1_545 S
C399 C400 1.369 . S
C399 C401 1.419 . S
C399 H403 0.930 . S
C400 C399 1.369 . S
C400 C409 1.429 . S
C401 C399 1.419 . S
C401 C402 1.363 . S
C401 H404 0.929 . S
C402 C401 1.363 . S
C402 C408 1.428 . S
H403 C399 0.930 . S
H404 C401 0.929 . S
S405 N406 1.613 . S
S405 N407 1.610 . S
N406 S405 1.613 . S
N406 C409 1.350 . S
N407 S405 1.610 . S
N407 C408 1.351 . S
C408 C402 1.428 . S
C408 N407 1.351 . S
C408 C409 1.434 . S
C409 C400 1.429 . S
C409 N406 1.350 . S
C409 C408 1.434 . S
C410 C411 1.369 . S
C410 C412 1.419 1_455 S
C410 H414 0.930 . S
C411 C410 1.369 . S
C411 C420 1.429 . S
C412 C410 1.419 1_655 S
C412 C413 1.363 . S
C412 H415 0.929 . S
C413 C412 1.363 . S
C413 C419 1.428 . S
H414 C410 0.930 . S
H415 C412 0.929 . S
S416 N417 1.613 1_655 S
S416 N418 1.610 . S
N417 S416 1.613 1_455 S
N417 C420 1.350 . S
N418 S416 1.610 . S
N418 C419 1.351 . S
C419 C413 1.428 . S
C419 N418 1.351 . S
C419 C420 1.434 1_655 S
C420 C411 1.429 . S
C420 N417 1.350 . S
C420 C419 1.434 1_455 S
C421 C422 1.369 . S
C421 C423 1.419 1_565 S
C421 H425 0.930 . S
C422 C421 1.369 . S
C422 C431 1.429 . S
C423 C421 1.419 1_545 S
C423 C424 1.363 . S
C423 H426 0.929 . S
C424 C423 1.363 . S
C424 C430 1.428 . S
H425 C421 0.930 . S
H426 C423 0.929 . S
S427 N428 1.613 . S
S427 N429 1.610 1_565 S
N428 S427 1.613 . S
N428 C431 1.350 . S
N429 S427 1.610 1_545 S
N429 C430 1.351 . S
C430 C424 1.428 . S
C430 N429 1.351 . S
C430 C431 1.434 1_545 S
C431 C422 1.429 . S
C431 N428 1.350 . S
C431 C430 1.434 1_565 S
C169 C141 1.589 . S
C171 C12 1.588 . S
C180 C15 1.592 . S
C182 C154 1.590 . S
C191 C29 1.593 . S
C193 C96 1.588 . S
C202 C43 1.592 . S
C204 C99 1.588 . S
C213 C112 1.590 . S
C215 C57 1.591 . S
C224 C83 1.587 . S
C226 C126 1.591 . S
C235 C113 1.624 . S
C237 C13 1.629 . S
C246 C14 1.622 . S
C248 C127 1.628 . S
C257 C28 1.623 . S
C259 C140 1.626 . S
C268 C42 1.627 . S
C270 C155 1.625 . S
C279 C97 1.630 . S
C281 C56 1.623 . S
C290 C98 1.622 . S
C292 C82 1.627 . S
C301 C55 1.454 . S
C303 C0 1.457 . S
C312 C27 1.461 . S
C314 C69 1.454 . S
C323 C71 1.453 . S
C325 C41 1.460 . S
C334 C138 1.453 . S
C336 C84 1.457 . S
C345 C153 1.461 . S
C347 C111 1.454 . S
C356 C124 1.458 . S
C358 C166 1.453 . S
C367 C54 1.758 . S
C369 C1 1.761 . S
C378 C26 1.762 . S
C380 C68 1.757 . S
C389 C70 1.760 . S
C391 C40 1.759 . S
C400 C85 1.759 . S
C402 C139 1.762 . S
C411 C152 1.756 . S
C413 C110 1.761 . S
C422 C125 1.761 . S
C424 C167 1.762 . S
