# Generated by pormake.
# Topology pcl, (4)-cn, num edge types: 1
# Building blocks:
#     Node 0, Type 0, BuildingBlock: GALJAG_clean_sbu_0, # of connection points: 4
#     Node 1, Type 0, BuildingBlock: GALJAG_clean_sbu_0, # of connection points: 4
#     Node 2, Type 0, BuildingBlock: GALJAG_clean_sbu_0, # of connection points: 4
#     Node 3, Type 0, BuildingBlock: GALJAG_clean_sbu_0, # of connection points: 4
#     Node 4, Type 0, BuildingBlock: GALJAG_clean_sbu_0, # of connection points: 4
#     Node 5, Type 0, BuildingBlock: GALJAG_clean_sbu_0, # of connection points: 4
#     Node 6, Type 0, BuildingBlock: GALJAG_clean_sbu_0, # of connection points: 4
#     Node 7, Type 0, BuildingBlock: GALJAG_clean_sbu_0, # of connection points: 4
#     Node 8, Type 0, BuildingBlock: GALJAG_clean_sbu_0, # of connection points: 4
#     Node 9, Type 0, BuildingBlock: GALJAG_clean_sbu_0, # of connection points: 4
#     Node 10, Type 0, BuildingBlock: GALJAG_clean_sbu_0, # of connection points: 4
#     Node 11, Type 0, BuildingBlock: GALJAG_clean_sbu_0, # of connection points: 4
#     Node 12, Type 0, BuildingBlock: GALJAG_clean_sbu_0, # of connection points: 4
#     Node 13, Type 0, BuildingBlock: GALJAG_clean_sbu_0, # of connection points: 4
#     Node 14, Type 0, BuildingBlock: GALJAG_clean_sbu_0, # of connection points: 4
#     Node 15, Type 0, BuildingBlock: GALJAG_clean_sbu_0, # of connection points: 4
#     Edge 16, Type (0, 0), BuildingBlock: UVAHIK_clean_linker_0, # of connection points: 2
#     Edge 17, Type (0, 0), BuildingBlock: UVAHIK_clean_linker_0, # of connection points: 2
#     Edge 18, Type (0, 0), BuildingBlock: UVAHIK_clean_linker_0, # of connection points: 2
#     Edge 19, Type (0, 0), BuildingBlock: UVAHIK_clean_linker_0, # of connection points: 2
#     Edge 20, Type (0, 0), BuildingBlock: UVAHIK_clean_linker_0, # of connection points: 2
#     Edge 21, Type (0, 0), BuildingBlock: UVAHIK_clean_linker_0, # of connection points: 2
#     Edge 22, Type (0, 0), BuildingBlock: UVAHIK_clean_linker_0, # of connection points: 2
#     Edge 23, Type (0, 0), BuildingBlock: UVAHIK_clean_linker_0, # of connection points: 2
#     Edge 24, Type (0, 0), BuildingBlock: UVAHIK_clean_linker_0, # of connection points: 2
#     Edge 25, Type (0, 0), BuildingBlock: UVAHIK_clean_linker_0, # of connection points: 2
#     Edge 26, Type (0, 0), BuildingBlock: UVAHIK_clean_linker_0, # of connection points: 2
#     Edge 27, Type (0, 0), BuildingBlock: UVAHIK_clean_linker_0, # of connection points: 2
#     Edge 28, Type (0, 0), BuildingBlock: UVAHIK_clean_linker_0, # of connection points: 2
#     Edge 29, Type (0, 0), BuildingBlock: UVAHIK_clean_linker_0, # of connection points: 2
#     Edge 30, Type (0, 0), BuildingBlock: UVAHIK_clean_linker_0, # of connection points: 2
#     Edge 31, Type (0, 0), BuildingBlock: UVAHIK_clean_linker_0, # of connection points: 2
#     Edge 32, Type (0, 0), BuildingBlock: UVAHIK_clean_linker_0, # of connection points: 2
#     Edge 33, Type (0, 0), BuildingBlock: UVAHIK_clean_linker_0, # of connection points: 2
#     Edge 34, Type (0, 0), BuildingBlock: UVAHIK_clean_linker_0, # of connection points: 2
#     Edge 35, Type (0, 0), BuildingBlock: UVAHIK_clean_linker_0, # of connection points: 2
#     Edge 36, Type (0, 0), BuildingBlock: UVAHIK_clean_linker_0, # of connection points: 2
#     Edge 37, Type (0, 0), BuildingBlock: UVAHIK_clean_linker_0, # of connection points: 2
#     Edge 38, Type (0, 0), BuildingBlock: UVAHIK_clean_linker_0, # of connection points: 2
#     Edge 39, Type (0, 0), BuildingBlock: UVAHIK_clean_linker_0, # of connection points: 2
#     Edge 40, Type (0, 0), BuildingBlock: UVAHIK_clean_linker_0, # of connection points: 2
#     Edge 41, Type (0, 0), BuildingBlock: UVAHIK_clean_linker_0, # of connection points: 2
#     Edge 42, Type (0, 0), BuildingBlock: UVAHIK_clean_linker_0, # of connection points: 2
#     Edge 43, Type (0, 0), BuildingBlock: UVAHIK_clean_linker_0, # of connection points: 2
#     Edge 44, Type (0, 0), BuildingBlock: UVAHIK_clean_linker_0, # of connection points: 2
#     Edge 45, Type (0, 0), BuildingBlock: UVAHIK_clean_linker_0, # of connection points: 2
#     Edge 46, Type (0, 0), BuildingBlock: UVAHIK_clean_linker_0, # of connection points: 2
#     Edge 47, Type (0, 0), BuildingBlock: UVAHIK_clean_linker_0, # of connection points: 2
# Relax obj value: 0.122
# Max RMSD: 0.108
# Mean RMSD: 0.092
data_MOF--net-pcl--node1-GALJAG_clean_sbu_0--edge1-UVAHIK_clean_linker_0
_symmetry_space_group_name_H-M    P1
_symmetry_Int_Tables_number       1
_symmetry_cell_setting            triclinic
loop_
_symmetry_equiv_pos_as_xyz
'x, y, z'
_cell_length_a     68.864482
_cell_length_b     51.638145
_cell_length_c     56.555654
_cell_angle_alpha  90.03148
_cell_angle_beta   89.991834
_cell_angle_gamma 90.002333
loop_
_atom_site_label
_atom_site_type_symbol
_atom_site_fract_x
_atom_site_fract_y
_atom_site_fract_z
_atom_type_partial_charge
In0 In 0.09911 0.32496 0.07312 0.0
O1 O 0.11341 0.28806 0.05863 0.0
O2 O 0.12403 0.32444 0.04693 0.0
C3 C 0.06154 0.31013 0.07575 0.0
C4 C 0.11746 0.32241 0.11521 0.0
C5 C 0.09358 0.37241 0.05474 0.0
O6 O 0.0726 0.30272 0.0593 0.0
O7 O 0.06955 0.32442 0.09094 0.0
O8 O 0.09719 0.36886 0.07638 0.0
O9 O 0.09245 0.352 0.04252 0.0
C10 C 0.12544 0.30017 0.04593 0.0
O11 O 0.11884 0.34162 0.10157 0.0
O12 O 0.10679 0.30436 0.10764 0.0
In13 In 0.89425 0.669 0.57443 0.0
O14 O 0.88101 0.70365 0.55504 0.0
O15 O 0.86326 0.67062 0.56102 0.0
C16 C 0.93093 0.68745 0.57169 0.0
C17 C 0.88038 0.67093 0.61889 0.0
C18 C 0.89907 0.62182 0.55467 0.0
O19 O 0.9193 0.68812 0.55451 0.0
O20 O 0.92395 0.678 0.59038 0.0
O21 O 0.9016 0.62587 0.57643 0.0
O22 O 0.89432 0.64155 0.54293 0.0
C23 C 0.86465 0.69302 0.55236 0.0
O24 O 0.88125 0.65028 0.60702 0.0
O25 O 0.88669 0.69082 0.60839 0.0
In26 In 0.0975 0.66626 0.91778 0.0
O27 O 0.10715 0.64746 0.88353 0.0
O28 O 0.10152 0.68787 0.88265 0.0
C29 C 0.0986 0.62113 0.94157 0.0
C30 C 0.12653 0.69164 0.93991 0.0
C31 C 0.05925 0.67791 0.91937 0.0
O32 O 0.09986 0.62249 0.91935 0.0
O33 O 0.09696 0.64267 0.95195 0.0
O34 O 0.07214 0.69513 0.92154 0.0
O35 O 0.06572 0.65544 0.91597 0.0
C36 C 0.10679 0.66792 0.87144 0.0
O37 O 0.10888 0.69626 0.9442 0.0
O38 O 0.12941 0.67463 0.92431 0.0
In39 In 0.89456 0.32874 0.41632 0.0
O40 O 0.88024 0.34606 0.38404 0.0
O41 O 0.89008 0.30716 0.38125 0.0
C42 C 0.89486 0.37352 0.44086 0.0
C43 C 0.8671 0.30155 0.43953 0.0
C44 C 0.93301 0.31901 0.41323 0.0
O45 O 0.89186 0.37245 0.4189 0.0
O46 O 0.89755 0.35187 0.45065 0.0
O47 O 0.92116 0.30211 0.42048 0.0
O48 O 0.92535 0.34011 0.40712 0.0
C49 C 0.88174 0.32607 0.37137 0.0
O50 O 0.86329 0.31917 0.42487 0.0
O51 O 0.88498 0.29731 0.44257 0.0
In52 In 0.8163 0.66705 0.9082 0.0
O53 O 0.80225 0.69884 0.93025 0.0
O54 O 0.78391 0.67633 0.90812 0.0
C55 C 0.8539 0.6772 0.91805 0.0
C56 C 0.81062 0.62282 0.93246 0.0
C57 C 0.81732 0.67036 0.86058 0.0
O58 O 0.84114 0.69473 0.918 0.0
O59 O 0.84764 0.65488 0.91329 0.0
O60 O 0.8133 0.64963 0.8713 0.0
O61 O 0.82029 0.68957 0.87386 0.0
C62 C 0.78522 0.69427 0.92317 0.0
O63 O 0.81062 0.62361 0.91013 0.0
O64 O 0.81329 0.64438 0.94248 0.0
In65 In 0.17847 0.33348 0.40293 0.0
O66 O 0.18433 0.37696 0.40369 0.0
O67 O 0.18063 0.35756 0.43654 0.0
C68 C 0.18002 0.3271 0.35562 0.0
C69 C 0.20829 0.30596 0.42087 0.0
C70 C 0.14019 0.32551 0.41016 0.0
O71 O 0.18502 0.34788 0.36566 0.0
O72 O 0.17476 0.30933 0.36949 0.0
O73 O 0.15264 0.30797 0.41369 0.0
O74 O 0.14711 0.34678 0.40322 0.0
C75 C 0.18377 0.37865 0.42596 0.0
O76 O 0.1909 0.3022 0.42698 0.0
O77 O 0.21058 0.32313 0.40527 0.0
In78 In 0.81799 0.33754 0.08432 0.0
O79 O 0.81286 0.38116 0.08299 0.0
O80 O 0.81856 0.36174 0.05062 0.0
C81 C 0.81606 0.33039 0.13143 0.0
C82 C 0.78677 0.31127 0.06849 0.0
C83 C 0.85597 0.32663 0.07838 0.0
O84 O 0.81276 0.352 0.1218 0.0
O85 O 0.81964 0.31217 0.1172 0.0
O86 O 0.84284 0.3141 0.06777 0.0
O87 O 0.8499 0.34474 0.09137 0.0
C88 C 0.81489 0.38286 0.06088 0.0
O89 O 0.80394 0.30392 0.06449 0.0
O90 O 0.78539 0.33159 0.08075 0.0
In91 In 0.17181 0.66052 0.58123 0.0
O92 O 0.179 0.61754 0.5785 0.0
O93 O 0.17439 0.63849 0.54656 0.0
C94 C 0.16868 0.66237 0.62882 0.0
C95 C 0.20392 0.68671 0.56826 0.0
C96 C 0.13506 0.67368 0.56975 0.0
O97 O 0.16965 0.64134 0.61754 0.0
O98 O 0.16986 0.68239 0.61618 0.0
O99 O 0.14841 0.69026 0.57174 0.0
O100 O 0.14032 0.65064 0.57325 0.0
C101 C 0.17833 0.61706 0.55617 0.0
O102 O 0.18713 0.69286 0.56132 0.0
O103 O 0.20449 0.66762 0.58216 0.0
In104 In 0.6006 0.83119 0.07901 0.0
O105 O 0.61443 0.84808 0.1119 0.0
O106 O 0.60488 0.80904 0.11383 0.0
C107 C 0.60044 0.87643 0.05531 0.0
C108 C 0.62801 0.80527 0.05452 0.0
C109 C 0.56216 0.82083 0.08024 0.0
O110 O 0.60195 0.87512 0.07749 0.0
O111 O 0.59903 0.85485 0.04497 0.0
O112 O 0.57446 0.80386 0.07441 0.0
O113 O 0.56934 0.84238 0.0859 0.0
C114 C 0.61282 0.82791 0.12425 0.0
O115 O 0.61017 0.80008 0.05256 0.0
O116 O 0.6319 0.82301 0.06908 0.0
In117 In 0.39235 0.16613 0.57678 0.0
O118 O 0.36095 0.17401 0.56714 0.0
O119 O 0.38237 0.19808 0.55141 0.0
C120 C 0.43073 0.1766 0.57837 0.0
C121 C 0.3801 0.16912 0.62203 0.0
C122 C 0.39323 0.12123 0.55243 0.0
O123 O 0.41853 0.19313 0.5713 0.0
O124 O 0.42346 0.15549 0.58513 0.0
O125 O 0.3908 0.12225 0.57451 0.0
O126 O 0.39506 0.14295 0.54248 0.0
C127 C 0.36458 0.19251 0.55332 0.0
O128 O 0.37812 0.1492 0.60939 0.0
O129 O 0.38851 0.18783 0.61193 0.0
In130 In 0.603 0.1688 0.91499 0.0
O131 O 0.61858 0.15527 0.88193 0.0
O132 O 0.60797 0.19387 0.88208 0.0
C133 C 0.60147 0.12235 0.93654 0.0
C134 C 0.63013 0.19337 0.94096 0.0
C135 C 0.56452 0.17843 0.91332 0.0
O136 O 0.60405 0.12477 0.91458 0.0
O137 O 0.59967 0.14339 0.94768 0.0
O138 O 0.5761 0.19294 0.92445 0.0
O139 O 0.57245 0.15982 0.90262 0.0
C140 C 0.61692 0.17636 0.87094 0.0
O141 O 0.61289 0.20159 0.9395 0.0
O142 O 0.63354 0.17313 0.92922 0.0
In143 In 0.3911 0.82572 0.41904 0.0
O144 O 0.37888 0.79051 0.43859 0.0
O145 O 0.36092 0.82373 0.43497 0.0
C146 C 0.42818 0.80871 0.42078 0.0
C147 C 0.37596 0.82255 0.3752 0.0
C148 C 0.39604 0.87317 0.4382 0.0
O149 O 0.41659 0.80647 0.43789 0.0
O150 O 0.42097 0.81901 0.40259 0.0
O151 O 0.39742 0.86911 0.41628 0.0
O152 O 0.39234 0.85334 0.45035 0.0
C153 C 0.36275 0.80109 0.44295 0.0
O154 O 0.37569 0.84304 0.38734 0.0
O155 O 0.384 0.80344 0.38513 0.0
In156 In 0.31923 0.15899 0.91209 0.0
O157 O 0.31191 0.11581 0.91314 0.0
O158 O 0.31605 0.13544 0.9458 0.0
C159 C 0.31981 0.1654 0.86484 0.0
C160 C 0.28896 0.18726 0.92772 0.0
C161 C 0.35744 0.16618 0.92016 0.0
O162 O 0.31463 0.14445 0.87447 0.0
O163 O 0.32411 0.18333 0.87908 0.0
O164 O 0.3451 0.18376 0.92412 0.0
O165 O 0.3504 0.14523 0.91258 0.0
C166 C 0.31227 0.11442 0.93542 0.0
O167 O 0.3058 0.1894 0.93633 0.0
O168 O 0.28754 0.1714 0.91085 0.0
In169 In 0.67081 0.83142 0.41609 0.0
O170 O 0.67706 0.87466 0.41819 0.0
O171 O 0.67337 0.85405 0.45048 0.0
C172 C 0.6696 0.82849 0.36844 0.0
C173 C 0.7023 0.80489 0.43069 0.0
C174 C 0.63342 0.81986 0.42577 0.0
O175 O 0.67249 0.84947 0.3793 0.0
O176 O 0.6678 0.80894 0.38159 0.0
O177 O 0.64647 0.80276 0.42482 0.0
O178 O 0.63929 0.84263 0.42217 0.0
C179 C 0.67672 0.87547 0.44051 0.0
O180 O 0.68537 0.79969 0.43776 0.0
O181 O 0.70329 0.8231 0.4159 0.0
In182 In 0.31691 0.82891 0.08519 0.0
O183 O 0.30965 0.87199 0.08426 0.0
O184 O 0.31458 0.85282 0.0515 0.0
C185 C 0.31634 0.82335 0.13262 0.0
C186 C 0.2871 0.80076 0.068 0.0
C187 C 0.3552 0.82163 0.07753 0.0
O188 O 0.31157 0.84413 0.12245 0.0
O189 O 0.32087 0.80512 0.11882 0.0
O190 O 0.343 0.80362 0.07482 0.0
O191 O 0.34803 0.843 0.08382 0.0
C192 C 0.31057 0.87371 0.06201 0.0
O193 O 0.30438 0.79761 0.06116 0.0
O194 O 0.28496 0.81759 0.08395 0.0
In195 In 0.67561 0.16514 0.58319 0.0
O196 O 0.68166 0.12172 0.58482 0.0
O197 O 0.67832 0.1391 0.55096 0.0
C198 C 0.67595 0.17502 0.62997 0.0
C199 C 0.70629 0.19086 0.56527 0.0
C200 C 0.63749 0.17264 0.57455 0.0
O201 O 0.68051 0.15323 0.62151 0.0
O202 O 0.67168 0.19198 0.6148 0.0
O203 O 0.64998 0.19 0.57049 0.0
O204 O 0.64431 0.15181 0.58263 0.0
C205 C 0.6814 0.11871 0.56265 0.0
O206 O 0.68921 0.19419 0.55776 0.0
O207 O 0.70778 0.17507 0.58217 0.0
C208 C 0.02912 0.31387 0.095 0.0
C209 C 0.04056 0.30424 0.07644 0.0
C210 C 0.00903 0.31051 0.09483 0.0
C211 C 0.96834 0.30044 0.05386 0.0
H212 H 0.93949 0.29293 0.11236 0.0
C213 C 0.88375 0.3025 0.05984 0.0
C214 C 0.87678 0.32005 0.07685 0.0
C215 C 0.90353 0.29622 0.05899 0.0
C216 C 0.94737 0.29495 0.09587 0.0
H217 H 0.04006 0.28277 0.0435 0.0
H218 H 0.00482 0.2766 0.04331 0.0
H219 H 0.97473 0.28839 0.11267 0.0
H220 H 0.88493 0.34463 0.10634 0.0
H221 H 0.91925 0.33348 0.105 0.0
H222 H 0.94084 0.30738 0.03722 0.0
C223 C 0.0114 0.28704 0.05785 0.0
C224 C 0.96754 0.29244 0.09604 0.0
C225 C 0.03158 0.29043 0.05803 0.0
C226 C 0.88987 0.33109 0.093 0.0
C227 C 0.90949 0.32455 0.09236 0.0
C228 C 0.9481 0.30274 0.05367 0.0
C229 C -0.00012 0.29736 0.07612 0.0
C230 C 0.97833 0.29598 0.07519 0.0
C231 C 0.91653 0.30704 0.07541 0.0
C232 C 0.93751 0.30081 0.07482 0.0
H233 H 0.03561 0.32465 0.10941 0.0
H234 H 0.00062 0.3191 0.10898 0.0
H235 H 0.9762 0.30348 0.03751 0.0
H236 H 0.87395 0.29372 0.04719 0.0
H237 H 0.90863 0.28267 0.04574 0.0
C238 C 0.96385 0.69374 0.58929 0.0
C239 C 0.95154 0.69493 0.56954 0.0
C240 C 0.98379 0.69779 0.58677 0.0
C241 C 0.0219 0.6896 0.54282 0.0
H242 H 0.05414 0.7227 0.59026 0.0
C243 C 0.10109 0.66111 0.55989 0.0
C244 C 0.11467 0.68061 0.56497 0.0
C245 C 0.08149 0.66718 0.55712 0.0
C246 C 0.04533 0.71373 0.57666 0.0
H247 H 0.95024 0.70256 0.53187 0.0
H248 H 0.98514 0.70959 0.52746 0.0
H249 H 0.01884 0.72724 0.59226 0.0
H250 H 0.11854 0.72182 0.57057 0.0
H251 H 0.08406 0.73243 0.56598 0.0
H252 H 0.04833 0.67546 0.52762 0.0
C253 C 0.97938 0.70533 0.54484 0.0
C254 C 0.02514 0.71613 0.57793 0.0
C255 C 0.9594 0.70142 0.5474 0.0
C256 C 0.10836 0.70642 0.56665 0.0
C257 C 0.08866 0.71247 0.56413 0.0
C258 C 0.04206 0.68706 0.54164 0.0
C259 C 0.99182 0.703 0.56442 0.0
C260 C 0.01321 0.7036 0.56133 0.0
C261 C 0.07502 0.69285 0.55957 0.0
C262 C 0.05394 0.69857 0.55887 0.0
H263 H 0.95819 0.68881 0.60658 0.0
H264 H 0.99302 0.6956 0.60214 0.0
H265 H 0.0131 0.67953 0.52987 0.0
H266 H 0.10555 0.64105 0.55847 0.0
H267 H 0.07128 0.6516 0.55391 0.0
C268 C 0.88206 0.70748 0.92377 0.0
C269 C 0.87465 0.68214 0.92275 0.0
C270 C 0.90198 0.71167 0.92705 0.0
C271 C 0.9466 0.67913 0.94798 0.0
H272 H 0.97377 0.72339 0.90352 0.0
C273 C 0.02538 0.66186 0.92295 0.0
C274 C 0.03824 0.68292 0.92177 0.0
C275 C 0.00557 0.66589 0.92609 0.0
C276 C 0.96635 0.71137 0.91635 0.0
H277 H 0.8821 0.6414 0.92482 0.0
H278 H 0.91662 0.64865 0.93057 0.0
H279 H 0.93819 0.72312 0.9042 0.0
H280 H 0.04043 0.72479 0.9226 0.0
H281 H 0.00536 0.7319 0.92771 0.0
H282 H 0.97464 0.66654 0.95945 0.0
C283 C 0.90715 0.66532 0.92902 0.0
C284 C 0.94602 0.71122 0.91676 0.0
C285 C 0.88738 0.66115 0.92555 0.0
C286 C 0.03082 0.70822 0.92347 0.0
C287 C 0.01082 0.71228 0.92636 0.0
C288 C 0.96683 0.67925 0.94753 0.0
C289 C 0.91472 0.69058 0.92967 0.0
C290 C 0.93597 0.69439 0.93201 0.0
C291 C -0.00193 0.69108 0.92797 0.0
C292 C 0.97689 0.69466 0.93115 0.0
H293 H 0.87254 0.724 0.92162 0.0
H294 H 0.90743 0.73134 0.92753 0.0
H295 H 0.93925 0.66638 0.96027 0.0
H296 H 0.03063 0.64213 0.92168 0.0
H297 H 0.99605 0.64921 0.92683 0.0
C298 C 0.10642 0.34266 0.41048 0.0
C299 C 0.11912 0.32166 0.41347 0.0
C300 C 0.08646 0.33937 0.41306 0.0
C301 C 0.04763 0.29092 0.4102 0.0
H302 H 0.01798 0.34568 0.44022 0.0
C303 C 0.96286 0.29198 0.42027 0.0
C304 C 0.95429 0.31553 0.41341 0.0
C305 C 0.98311 0.28983 0.42195 0.0
C306 C 0.02607 0.33023 0.43179 0.0
H307 H 0.12091 0.28069 0.42152 0.0
H308 H 0.08574 0.27489 0.42607 0.0
H309 H 0.05331 0.34717 0.44111 0.0
H310 H 0.96018 0.355 0.40237 0.0
H311 H 0.99524 0.35126 0.40542 0.0
H312 H 0.02014 0.27426 0.40061 0.0
C313 C 0.09134 0.29389 0.42164 0.0
C314 C 0.04628 0.33109 0.43226 0.0
C315 C 0.11143 0.29723 0.41915 0.0
C316 C 0.9663 0.33662 0.40779 0.0
C317 C 0.9864 0.33455 0.40968 0.0
C318 C 0.02729 0.28999 0.40982 0.0
C319 C 0.07866 0.31498 0.41867 0.0
C320 C 0.0573 0.31189 0.42086 0.0
C321 C 0.99501 0.3113 0.4171 0.0
C322 C 0.01637 0.31008 0.42002 0.0
H323 H 0.11189 0.36171 0.40601 0.0
H324 H 0.07707 0.35591 0.41021 0.0
H325 H 0.05573 0.27588 0.40119 0.0
H326 H 0.95393 0.27541 0.42468 0.0
H327 H 0.98943 0.27167 0.42767 0.0
C328 C 0.38868 0.83968 0.07621 0.0
C329 C 0.37631 0.81819 0.07421 0.0
C330 C 0.4087 0.83677 0.07391 0.0
C331 C 0.44808 0.78957 0.07988 0.0
H332 H 0.47748 0.8434 0.04816 0.0
C333 C 0.53297 0.79264 0.07297 0.0
C334 C 0.54096 0.8168 0.07907 0.0
C335 C 0.51282 0.78981 0.07046 0.0
C336 C 0.46946 0.82821 0.05706 0.0
H337 H 0.37515 0.77678 0.06808 0.0
H338 H 0.41042 0.77166 0.06401 0.0
H339 H 0.44215 0.84377 0.04616 0.0
H340 H 0.53415 0.8567 0.08783 0.0
H341 H 0.49927 0.85177 0.08337 0.0
H342 H 0.4756 0.77435 0.09109 0.0
C343 C 0.40452 0.79074 0.06746 0.0
C344 C 0.44925 0.82843 0.05595 0.0
C345 C 0.38437 0.79368 0.06967 0.0
C346 C 0.52847 0.83786 0.08304 0.0
C347 C 0.50849 0.83509 0.08032 0.0
C348 C 0.4684 0.78928 0.0809 0.0
C349 C 0.41688 0.8123 0.06956 0.0
C350 C 0.4383 0.80962 0.06795 0.0
C351 C 0.50046 0.81117 0.07372 0.0
C352 C 0.47922 0.80908 0.0701 0.0
H353 H 0.38292 0.85881 0.07978 0.0
H354 H 0.41782 0.8537 0.07606 0.0
H355 H 0.44003 0.77486 0.08938 0.0
H356 H 0.54228 0.77609 0.06982 0.0
H357 H 0.50696 0.77115 0.06539 0.0
C358 C 0.60383 0.15521 0.57405 0.0
C359 C 0.61645 0.17627 0.57087 0.0
C360 C 0.58385 0.15836 0.57161 0.0
C361 C 0.54505 0.2066 0.57538 0.0
H362 H 0.51489 0.15129 0.54699 0.0
C363 C 0.46002 0.20408 0.56958 0.0
C364 C 0.45196 0.18047 0.57713 0.0
C365 C 0.48017 0.20657 0.56679 0.0
C366 C 0.52313 0.16691 0.55495 0.0
H367 H 0.61808 0.21716 0.56244 0.0
H368 H 0.58285 0.22271 0.55816 0.0
H369 H 0.55019 0.15025 0.54446 0.0
H370 H 0.45863 0.14125 0.58825 0.0
H371 H 0.49353 0.14558 0.58327 0.0
H372 H 0.51777 0.22293 0.5862 0.0
C373 C 0.58854 0.20378 0.56262 0.0
C374 C 0.54332 0.16631 0.55353 0.0
C375 C 0.60866 0.20058 0.56495 0.0
C376 C 0.46437 0.15968 0.58233 0.0
C377 C 0.48436 0.16208 0.57932 0.0
C378 C 0.52474 0.20726 0.5767 0.0
C379 C 0.57594 0.18266 0.56595 0.0
C380 C 0.55454 0.18567 0.56439 0.0
C381 C 0.49245 0.18538 0.5712 0.0
C382 C 0.51366 0.18696 0.56713 0.0
H383 H 0.60937 0.13625 0.57868 0.0
H384 H 0.57454 0.14179 0.57472 0.0
H385 H 0.55332 0.22175 0.58399 0.0
H386 H 0.45077 0.22043 0.56546 0.0
H387 H 0.48609 0.22476 0.56054 0.0
C388 C 0.53133 0.16173 0.90497 0.0
C389 C 0.54321 0.18131 0.91436 0.0
C390 C 0.51126 0.16271 0.90787 0.0
C391 C 0.46973 0.2044 0.918 0.0
H392 H 0.44607 0.14142 0.94184 0.0
C393 C 0.38633 0.19344 0.93101 0.0
C394 C 0.37856 0.1698 0.92312 0.0
C395 C 0.40647 0.19675 0.93275 0.0
C396 C 0.45241 0.15911 0.93503 0.0
H397 H 0.54334 0.21782 0.93331 0.0
H398 H 0.5079 0.21975 0.93797 0.0
H399 H 0.48125 0.14424 0.93849 0.0
H400 H 0.38572 0.13113 0.91092 0.0
H401 H 0.42057 0.13697 0.91355 0.0
H402 H 0.44078 0.21889 0.91362 0.0
C403 C 0.5143 0.20359 0.92857 0.0
C404 C 0.47255 0.16073 0.93319 0.0
C405 C 0.53452 0.20246 0.92592 0.0
C406 C 0.39124 0.14953 0.91721 0.0
C407 C 0.41126 0.15284 0.91888 0.0
C408 C 0.44947 0.20269 0.91961 0.0
C409 C 0.50258 0.1834 0.92 0.0
C410 C 0.48137 0.18313 0.92416 0.0
C411 C 0.41916 0.17646 0.92664 0.0
C412 C 0.44059 0.17975 0.9276 0.0
H413 H 0.53758 0.14522 0.89593 0.0
H414 H 0.5025 0.14709 0.9008 0.0
H415 H 0.47623 0.22187 0.91096 0.0
H416 H 0.37686 0.2094 0.93567 0.0
H417 H 0.4121 0.21513 0.93894 0.0
C418 C 0.46118 0.80431 0.40284 0.0
C419 C 0.44894 0.8019 0.42257 0.0
C420 C 0.48119 0.80063 0.40514 0.0
C421 C 0.51942 0.80763 0.44904 0.0
H422 H 0.55168 0.77495 0.40137 0.0
C423 C 0.59947 0.83387 0.43404 0.0
C424 C 0.61272 0.81381 0.42953 0.0
C425 C 0.57966 0.82862 0.43595 0.0
C426 C 0.54285 0.78384 0.415 0.0
H427 H 0.44787 0.79267 0.45996 0.0
H428 H 0.48288 0.7864 0.46399 0.0
H429 H 0.51633 0.77117 0.39887 0.0
H430 H 0.61577 0.77248 0.4239 0.0
H431 H 0.58094 0.76334 0.42692 0.0
H432 H 0.54588 0.82094 0.46477 0.0
C433 C 0.477 0.79125 0.44679 0.0
C434 C 0.52265 0.78186 0.41345 0.0
C435 C 0.45697 0.79473 0.44445 0.0
C436 C 0.60585 0.7883 0.42743 0.0
C437 C 0.58596 0.78308 0.42904 0.0
C438 C 0.53959 0.80981 0.45045 0.0
C439 C 0.48934 0.79465 0.42726 0.0
C440 C 0.51073 0.79412 0.43023 0.0
C441 C 0.57267 0.80325 0.43313 0.0
C442 C 0.55148 0.79834 0.43321 0.0
H443 H 0.45539 0.80979 0.38575 0.0
H444 H 0.49036 0.80363 0.38982 0.0
H445 H 0.51061 0.81748 0.46212 0.0
H446 H 0.60437 0.85372 0.43575 0.0
H447 H 0.56974 0.84459 0.43884 0.0
C448 C 0.13859 0.3425 0.14606 0.0
C449 C 0.12719 0.32154 0.13845 0.0
C450 C 0.14714 0.34228 0.16844 0.0
C451 C 0.16095 0.29941 0.21806 0.0
H452 H 0.15595 0.36214 0.25529 0.0
C453 C 0.17057 0.3023 0.31947 0.0
C454 C 0.17867 0.32462 0.32967 0.0
C455 C 0.16709 0.30117 0.29515 0.0
C456 C 0.15781 0.3446 0.24502 0.0
H457 H 0.11614 0.28366 0.14802 0.0
H458 H 0.13093 0.28336 0.18726 0.0
H459 H 0.14445 0.36158 0.21465 0.0
H460 H 0.19045 0.36271 0.32235 0.0
H461 H 0.18467 0.3606 0.27983 0.0
H462 H 0.17406 0.28234 0.24866 0.0
C463 C 0.13342 0.29985 0.17584 0.0
C464 C 0.15118 0.34428 0.22172 0.0
C465 C 0.12485 0.30009 0.15344 0.0
C466 C 0.18407 0.34532 0.31498 0.0
C467 C 0.18064 0.34417 0.29066 0.0
C468 C 0.16763 0.29975 0.24141 0.0
C469 C 0.14448 0.32108 0.18368 0.0
C470 C 0.1525 0.32162 0.20804 0.0
C471 C 0.1717 0.32233 0.28055 0.0
C472 C 0.16597 0.32229 0.25522 0.0
H473 H 0.14074 0.35924 0.13483 0.0
H474 H 0.15579 0.35877 0.17385 0.0
H475 H 0.1624 0.28177 0.20785 0.0
H476 H 0.16624 0.28605 0.33037 0.0
H477 H 0.16002 0.28416 0.28799 0.0
C478 C 0.87213 0.69473 0.65618 0.0
C479 C 0.87248 0.67159 0.64314 0.0
C480 C 0.86471 0.69508 0.6792 0.0
C481 C 0.85455 0.65181 0.7296 0.0
H482 H 0.82263 0.70872 0.75183 0.0
C483 C 0.81819 0.64903 0.82094 0.0
C484 C 0.82006 0.67151 0.83472 0.0
C485 C 0.82284 0.64945 0.79691 0.0
C486 C 0.83163 0.69278 0.7459 0.0
H487 H 0.86511 0.63075 0.64377 0.0
H488 H 0.852 0.63141 0.68374 0.0
H489 H 0.83459 0.70876 0.71114 0.0
H490 H 0.82753 0.7123 0.83404 0.0
H491 H 0.83576 0.71302 0.79208 0.0
H492 H 0.85173 0.63588 0.7643 0.0
C493 C 0.85772 0.64921 0.67639 0.0
C494 C 0.83851 0.69283 0.72263 0.0
C495 C 0.86514 0.64887 0.65345 0.0
C496 C 0.82594 0.69467 0.82384 0.0
C497 C 0.83057 0.6951 0.79979 0.0
C498 C 0.84766 0.65174 0.7528 0.0
C499 C 0.8575 0.67228 0.6896 0.0
C500 C 0.85006 0.67234 0.71424 0.0
C501 C 0.82945 0.67237 0.78617 0.0
C502 C 0.83614 0.67222 0.76123 0.0
H503 H 0.8777 0.71254 0.64867 0.0
H504 H 0.86494 0.7131 0.689 0.0
H505 H 0.86371 0.63597 0.72384 0.0
H506 H 0.81361 0.63092 0.82883 0.0
H507 H 0.82153 0.63172 0.78679 0.0
C508 C 0.11728 0.64497 0.83484 0.0
C509 C 0.11269 0.66828 0.84635 0.0
C510 C 0.12348 0.64502 0.81136 0.0
C511 C 0.14609 0.68628 0.76626 0.0
H512 H 0.12644 0.63424 0.72297 0.0
C513 C 0.16184 0.68745 0.6657 0.0
C514 C 0.16479 0.6635 0.65447 0.0
C515 C 0.15628 0.68847 0.68944 0.0
C516 C 0.13228 0.64868 0.73491 0.0
H517 H 0.11088 0.70995 0.84234 0.0
H518 H 0.12172 0.71006 0.80109 0.0
H519 H 0.11441 0.6356 0.76344 0.0
H520 H 0.16498 0.62188 0.65945 0.0
H521 H 0.15558 0.62364 0.70101 0.0
H522 H 0.16404 0.69928 0.73771 0.0
C523 C 0.12062 0.69176 0.81035 0.0
C524 C 0.12533 0.64951 0.75807 0.0
C525 C 0.11431 0.6917 0.83388 0.0
C526 C 0.16272 0.64062 0.66762 0.0
C527 C 0.15719 0.64164 0.69136 0.0
C528 C 0.15309 0.68542 0.74306 0.0
C529 C 0.12529 0.6684 0.79888 0.0
C530 C 0.13222 0.66824 0.77404 0.0
C531 C 0.15358 0.66555 0.70244 0.0
C532 C 0.14632 0.66652 0.72716 0.0
H533 H 0.11622 0.62661 0.84401 0.0
H534 H 0.1272 0.62675 0.80312 0.0
H535 H 0.15184 0.70073 0.77825 0.0
H536 H 0.16329 0.70542 0.65598 0.0
H537 H 0.15346 0.70719 0.69737 0.0
C538 C 0.81458 0.34862 0.17227 0.0
C539 C 0.818 0.32744 0.15726 0.0
C540 C 0.81925 0.34714 0.19624 0.0
C541 C 0.83257 0.3023 0.24485 0.0
H542 H 0.86067 0.36216 0.26819 0.0
C543 C 0.87543 0.30259 0.33327 0.0
C544 C 0.87381 0.32505 0.34715 0.0
C545 C 0.86764 0.30195 0.31042 0.0
C546 C 0.85265 0.34541 0.26207 0.0
H547 H 0.82798 0.28765 0.15577 0.0
H548 H 0.83634 0.28515 0.19762 0.0
H549 H 0.84757 0.3626 0.22831 0.0
H550 H 0.86258 0.36429 0.34819 0.0
H551 H 0.84891 0.3631 0.30859 0.0
H552 H 0.8379 0.28507 0.27872 0.0
C553 C 0.82991 0.30283 0.19093 0.0
C554 C 0.84508 0.34568 0.23922 0.0
C555 C 0.82518 0.30428 0.16693 0.0
C556 C 0.86419 0.34675 0.33785 0.0
C557 C 0.85642 0.34611 0.31511 0.0
C558 C 0.84016 0.30203 0.2678 0.0
C559 C 0.82751 0.3245 0.20569 0.0
C560 C 0.83491 0.32419 0.23034 0.0
C561 C 0.85813 0.32377 0.30107 0.0
C562 C 0.85025 0.32363 0.27665 0.0
H563 H 0.80893 0.36666 0.16534 0.0
H564 H 0.81685 0.36399 0.20728 0.0
H565 H 0.82469 0.2855 0.23856 0.0
H566 H 0.88276 0.28557 0.34003 0.0
H567 H 0.86933 0.28453 0.29994 0.0
C568 C 0.6613 0.80392 0.33172 0.0
C569 C 0.66698 0.8272 0.34257 0.0
C570 C 0.65694 0.80326 0.3076 0.0
C571 C 0.64114 0.84645 0.25955 0.0
H572 H 0.65401 0.78825 0.2191 0.0
C573 C 0.62796 0.84894 0.15936 0.0
C574 C 0.61978 0.8268 0.14891 0.0
C575 C 0.63444 0.84833 0.1827 0.0
C576 C 0.65017 0.80451 0.23026 0.0
H577 H 0.67336 0.86777 0.33657 0.0
H578 H 0.6661 0.86655 0.29438 0.0
H579 H 0.66495 0.78854 0.26021 0.0
H580 H 0.61216 0.78656 0.15458 0.0
H581 H 0.62345 0.78551 0.19563 0.0
H582 H 0.62637 0.86243 0.2297 0.0
C583 C 0.66461 0.84891 0.30458 0.0
C584 C 0.65644 0.8047 0.25378 0.0
C585 C 0.66891 0.84959 0.3287 0.0
C586 C 0.61839 0.80391 0.16221 0.0
C587 C 0.62495 0.80328 0.18563 0.0
C588 C 0.63493 0.84629 0.23608 0.0
C589 C 0.65821 0.82586 0.29384 0.0
C590 C 0.65202 0.82571 0.26868 0.0
C591 C 0.63293 0.82556 0.19614 0.0
C592 C 0.6394 0.82536 0.22116 0.0
H593 H 0.65965 0.78636 0.342 0.0
H594 H 0.6519 0.78525 0.29995 0.0
H595 H 0.6371 0.86266 0.27067 0.0
H596 H 0.62933 0.86684 0.14951 0.0
H597 H 0.64078 0.8657 0.19019 0.0
C598 C 0.33036 0.19071 0.82941 0.0
C599 C 0.32244 0.16796 0.83904 0.0
C600 C 0.33499 0.19203 0.80538 0.0
C601 C 0.34784 0.14921 0.75593 0.0
H602 H 0.3406 0.2106 0.71746 0.0
C603 C 0.36321 0.14871 0.65623 0.0
C604 C 0.37289 0.1702 0.64659 0.0
C605 C 0.35635 0.14932 0.67942 0.0
C606 C 0.34289 0.19342 0.72807 0.0
H607 H 0.31227 0.12923 0.83092 0.0
H608 H 0.32011 0.13165 0.78892 0.0
H609 H 0.32889 0.21017 0.75828 0.0
H610 H 0.38283 0.20928 0.65357 0.0
H611 H 0.37098 0.21027 0.69438 0.0
H612 H 0.36194 0.13248 0.72594 0.0
C613 C 0.32308 0.14829 0.80001 0.0
C614 C 0.33615 0.19315 0.75141 0.0
C615 C 0.31847 0.14697 0.82402 0.0
C616 C 0.37544 0.19243 0.66057 0.0
C617 C 0.36855 0.19304 0.68385 0.0
C618 C 0.35456 0.14948 0.73267 0.0
C619 C 0.3318 0.17062 0.79052 0.0
C620 C 0.3385 0.17099 0.76557 0.0
C621 C 0.35903 0.17141 0.69356 0.0
C622 C 0.35211 0.17153 0.71843 0.0
H623 H 0.3336 0.2072 0.84058 0.0
H624 H 0.34181 0.20944 0.79866 0.0
H625 H 0.35029 0.13205 0.76652 0.0
H626 H 0.36091 0.13135 0.64585 0.0
H627 H 0.3488 0.1325 0.68621 0.0
C628 C 0.62262 0.20352 0.83486 0.0
C629 C 0.62506 0.18005 0.84705 0.0
C630 C 0.63033 0.20664 0.81215 0.0
C631 C 0.66663 0.17896 0.7709 0.0
H632 H 0.6336 0.2079 0.72211 0.0
C633 C 0.67829 0.15979 0.67177 0.0
C634 C 0.67418 0.17967 0.65562 0.0
C635 C 0.67468 0.16324 0.69586 0.0
C636 C 0.64316 0.20022 0.73559 0.0
H637 H 0.63757 0.14155 0.84518 0.0
H638 H 0.6508 0.14688 0.80563 0.0
H639 H 0.62254 0.20781 0.76305 0.0
H640 H 0.66381 0.21914 0.65205 0.0
H641 H 0.6576 0.22522 0.69421 0.0
H642 H 0.68704 0.17077 0.74335 0.0
C643 C 0.6432 0.16301 0.81364 0.0
C644 C 0.63681 0.20015 0.75905 0.0
C645 C 0.63546 0.15988 0.83624 0.0
C646 C 0.66706 0.20343 0.6641 0.0
C647 C 0.6634 0.20686 0.6882 0.0
C648 C 0.67297 0.17902 0.74746 0.0
C649 C 0.6407 0.18638 0.8013 0.0
C650 C 0.6483 0.18902 0.77688 0.0
C651 C 0.66685 0.18664 0.70428 0.0
C652 C 0.66114 0.18917 0.72948 0.0
H653 H 0.61471 0.21942 0.84283 0.0
H654 H 0.62828 0.22493 0.80313 0.0
H655 H 0.67597 0.17069 0.78433 0.0
H656 H 0.68377 0.14126 0.66574 0.0
H657 H 0.67729 0.14717 0.70775 0.0
C658 C 0.31402 0.84268 0.17301 0.0
C659 C 0.31824 0.8213 0.15855 0.0
C660 C 0.31794 0.84184 0.19722 0.0
C661 C 0.32943 0.79795 0.24713 0.0
H662 H 0.35573 0.8585 0.27206 0.0
C663 C 0.36921 0.79874 0.33745 0.0
C664 C 0.36762 0.82131 0.35118 0.0
C665 C 0.36172 0.79806 0.31446 0.0
C666 C 0.34815 0.84157 0.26551 0.0
H667 H 0.32909 0.78189 0.15819 0.0
H668 H 0.3361 0.78047 0.20046 0.0
H669 H 0.34451 0.85843 0.23131 0.0
H670 H 0.35657 0.86064 0.35189 0.0
H671 H 0.34334 0.85936 0.31201 0.0
H672 H 0.33329 0.78103 0.2814 0.0
C673 C 0.32962 0.79782 0.19315 0.0
C674 C 0.3417 0.84155 0.24214 0.0
C675 C 0.32568 0.79866 0.16892 0.0
C676 C 0.35814 0.84301 0.34167 0.0
C677 C 0.35064 0.84232 0.31876 0.0
C678 C 0.33588 0.79799 0.27059 0.0
C679 C 0.32619 0.81961 0.20747 0.0
C680 C 0.33229 0.81974 0.23265 0.0
C681 C 0.3525 0.81994 0.30479 0.0
C682 C 0.34535 0.8198 0.28002 0.0
H683 H 0.30818 0.86035 0.16553 0.0
H684 H 0.31482 0.85878 0.20786 0.0
H685 H 0.32208 0.78094 0.24039 0.0
H686 H 0.37645 0.78172 0.34434 0.0
H687 H 0.36356 0.7806 0.30407 0.0
C688 C 0.27346 0.21395 0.95937 0.0
C689 C 0.27193 0.20064 0.93779 0.0
C690 C 0.25697 0.22458 0.97 0.0
C691 C 0.2074 0.24707 0.95826 0.0
H692 H 0.19944 0.23371 0.02507 0.0
C693 C 0.15153 0.30183 0.01545 0.0
C694 C 0.14051 0.2873 0.0316 0.0
C695 C 0.16657 0.29027 0.00275 0.0
C696 C 0.2014 0.2374 0.00637 0.0
H697 H 0.25215 0.18866 0.91003 0.0
H698 H 0.22336 0.20754 0.92851 0.0
H699 H 0.22812 0.21625 0.00525 0.0
H700 H 0.13631 0.24923 0.04688 0.0
H701 H 0.16287 0.22898 0.02476 0.0
H702 H 0.18073 0.26838 0.95944 0.0
C703 C 0.23729 0.20969 0.9372 0.0
C704 C 0.2179 0.22767 0.9951 0.0
C705 C 0.25374 0.19884 0.92667 0.0
C706 C 0.14458 0.26086 0.03453 0.0
C707 C 0.15981 0.24933 0.02199 0.0
C708 C 0.19099 0.25702 0.96959 0.0
C709 C 0.2387 0.2223 0.95914 0.0
C710 C 0.22111 0.23251 0.97097 0.0
C711 C 0.17103 0.264 0.00611 0.0
C712 C 0.18787 0.25235 0.99377 0.0
H713 H 0.2873 0.21562 0.96834 0.0
H714 H 0.2585 0.2345 0.98678 0.0
H715 H 0.20956 0.25115 0.93966 0.0
H716 H 0.14868 0.32226 0.01281 0.0
H717 H 0.1751 0.30209 0.99081 0.0
C718 C 0.83005 0.69368 0.53953 0.0
C719 C 0.84849 0.70525 0.53941 0.0
C720 C 0.81485 0.70446 0.52656 0.0
C721 C 0.79896 0.76489 0.49725 0.0
H722 H 0.76272 0.71867 0.46595 0.0
C723 C 0.73829 0.80176 0.43537 0.0
C724 C 0.71969 0.7919 0.44019 0.0
C725 C 0.75466 0.79075 0.44591 0.0
C726 C 0.7727 0.73178 0.47468 0.0
H727 H 0.86554 0.7372 0.52578 0.0
H728 H 0.83905 0.75582 0.50265 0.0
H729 H 0.79024 0.70071 0.48753 0.0
H730 H 0.70364 0.76239 0.45919 0.0
H731 H 0.7323 0.74295 0.4774 0.0
H732 H 0.78139 0.79596 0.48416 0.0
C733 C 0.83623 0.73865 0.51309 0.0
C734 C 0.78842 0.72153 0.48712 0.0
C735 C 0.85143 0.72796 0.52626 0.0
C736 C 0.7178 0.77037 0.45516 0.0
C737 C 0.7342 0.75919 0.4655 0.0
C738 C 0.78332 0.77514 0.48461 0.0
C739 C 0.81778 0.72692 0.51298 0.0
C740 C 0.8016 0.73795 0.49882 0.0
C741 C 0.75275 0.76951 0.46123 0.0
C742 C 0.76993 0.75867 0.47343 0.0
H743 H 0.82734 0.67624 0.54964 0.0
H744 H 0.80074 0.69523 0.52731 0.0
H745 H 0.80867 0.77809 0.50629 0.0
H746 H 0.74016 0.81837 0.42391 0.0
H747 H 0.76882 0.79891 0.44216 0.0
C748 C 0.25141 0.79325 0.06385 0.0
C749 C 0.2705 0.7874 0.05689 0.0
C750 C 0.23562 0.78246 0.05187 0.0
C751 C 0.22275 0.7544 0.99413 0.0
H752 H 0.17638 0.73107 0.02669 0.0
C753 C 0.16194 0.69806 0.94696 0.0
C754 C 0.14265 0.70412 0.95278 0.0
C755 C 0.1773 0.70878 0.95974 0.0
C756 C 0.18914 0.73781 0.01734 0.0
H757 H 0.28807 0.76501 0.03251 0.0
H758 H 0.26051 0.74586 0.0118 0.0
H759 H 0.20383 0.74753 0.04952 0.0
H760 H 0.12425 0.72637 0.97634 0.0
H761 H 0.15116 0.74534 -0.00137 0.0
H762 H 0.20812 0.74467 0.96198 0.0
C763 C 0.25773 0.75914 0.02624 0.0
C764 C 0.20487 0.74718 0.03041 0.0
C765 C 0.27351 0.76994 0.03821 0.0
C766 C 0.13899 0.72137 0.97147 0.0
C767 C 0.15438 0.73206 0.98432 0.0
C768 C 0.20705 0.74503 0.98109 0.0
C769 C 0.23861 0.7656 0.03269 0.0
C770 C 0.22189 0.75548 0.01895 0.0
C771 C 0.1737 0.72578 0.97865 0.0
C772 C 0.1901 0.73653 0.99254 0.0
H773 H 0.24865 0.80671 0.07816 0.0
H774 H 0.22108 0.78798 0.05715 0.0
H775 H 0.23549 0.76114 0.98474 0.0
H776 H 0.16522 0.68475 0.93269 0.0
H777 H 0.192 0.70329 0.95511 0.0
C778 C 0.72111 0.2189 0.53415 0.0
C779 C 0.72337 0.20296 0.55406 0.0
C780 C 0.73736 0.22863 0.52236 0.0
C781 C 0.7898 0.24161 0.52883 0.0
H782 H 0.78884 0.24024 0.46027 0.0
C783 C 0.85599 0.27095 0.47121 0.0
C784 C 0.85163 0.28768 0.45237 0.0
C785 C 0.84103 0.25889 0.48385 0.0
C786 C 0.78929 0.24087 0.47941 0.0
H787 H 0.74435 0.18522 0.57763 0.0
H788 H 0.77275 0.20216 0.55696 0.0
H789 H 0.76124 0.22346 0.48241 0.0
H790 H 0.82833 0.30461 0.43172 0.0
H791 H 0.80237 0.28366 0.45365 0.0
H792 H 0.81786 0.25922 0.52573 0.0
C793 C 0.75843 0.20727 0.55055 0.0
C794 C 0.77345 0.23134 0.49209 0.0
C795 C 0.74217 0.1975 0.56233 0.0
C796 C 0.83214 0.2918 0.44615 0.0
C797 C 0.81726 0.27967 0.45862 0.0
C798 C 0.80568 0.25114 0.51612 0.0
C799 C 0.7562 0.22263 0.53023 0.0
C800 C 0.77341 0.23193 0.51693 0.0
C801 C 0.82151 0.2632 0.47768 0.0
C802 C 0.80546 0.25119 0.49127 0.0
H803 H 0.7068 0.2235 0.52741 0.0
H804 H 0.73516 0.24081 0.507 0.0
H805 H 0.79014 0.24247 0.54796 0.0
H806 H 0.87091 0.26746 0.47638 0.0
H807 H 0.84472 0.24615 0.49838 0.0
C808 C 0.66269 0.8001 0.04288 0.0
C809 C 0.64319 0.79283 0.04002 0.0
C810 C 0.67705 0.78971 0.02833 0.0
C811 C 0.68824 0.73491 0.98911 0.0
H812 H 0.72852 0.78099 0.96612 0.0
C813 C 0.74925 0.69987 0.92663 0.0
C814 C 0.76809 0.70764 0.93298 0.0
C815 C 0.73306 0.7111 0.93745 0.0
C816 C 0.71743 0.76786 0.9725 0.0
H817 H 0.62342 0.76864 0.01994 0.0
H818 H 0.64863 0.75041 0.99437 0.0
H819 H 0.70193 0.79839 0.98972 0.0
H820 H 0.78478 0.7337 0.95513 0.0
H821 H 0.75658 0.75325 0.97405 0.0
H822 H 0.70393 0.70431 0.97213 0.0
C823 C 0.65278 0.76408 0.00799 0.0
C824 C 0.70222 0.7778 0.98604 0.0
C825 C 0.63836 0.77454 0.02258 0.0
C826 C 0.77044 0.72735 0.94984 0.0
C827 C 0.75427 0.73864 0.96059 0.0
C828 C 0.70348 0.72495 0.97554 0.0
C829 C 0.67226 0.7718 0.01056 0.0
C830 C 0.68763 0.76138 0.99483 0.0
C831 C 0.73541 0.73041 0.95474 0.0
C832 C 0.71839 0.74127 0.96741 0.0
H833 H 0.66687 0.81408 0.05624 0.0
H834 H 0.69197 0.79565 0.03107 0.0
H835 H 0.6773 0.72173 0.99579 0.0
H836 H 0.74701 0.68471 0.91365 0.0
H837 H 0.7187 0.70458 0.93239 0.0
C838 C 0.32961 0.19939 0.54399 0.0
C839 C 0.34914 0.2058 0.53993 0.0
C840 C 0.31488 0.21103 0.53084 0.0
C841 C 0.30546 0.24358 0.47436 0.0
H842 H 0.25786 0.26501 0.50538 0.0
C843 C 0.24397 0.29946 0.42654 0.0
C844 C 0.22478 0.29282 0.43242 0.0
C845 C 0.25956 0.28874 0.43896 0.0
C846 C 0.27097 0.25884 0.49641 0.0
H847 H 0.36861 0.22957 0.51906 0.0
H848 H 0.34275 0.25007 0.496 0.0
H849 H 0.28447 0.24764 0.52887 0.0
H850 H 0.20685 0.26911 0.4553 0.0
H851 H 0.23404 0.25009 0.47675 0.0
H852 H 0.29185 0.25465 0.44184 0.0
C853 C 0.3389 0.23587 0.50929 0.0
C854 C 0.28623 0.24896 0.50988 0.0
C855 C 0.35367 0.22428 0.52256 0.0
C856 C 0.22148 0.27467 0.45045 0.0
C857 C 0.23706 0.26394 0.46285 0.0
C858 C 0.29015 0.25344 0.46085 0.0
C859 C 0.31935 0.2293 0.51327 0.0
C860 C 0.30358 0.24103 0.499 0.0
C861 C 0.25625 0.27116 0.4575 0.0
C862 C 0.27267 0.26098 0.47172 0.0
H863 H 0.32567 0.18516 0.55722 0.0
H864 H 0.29999 0.2053 0.53412 0.0
H865 H 0.31857 0.23734 0.46545 0.0
H866 H 0.24694 0.31345 0.41274 0.0
H867 H 0.27415 0.29484 0.43452 0.0
C868 C 0.75096 0.30828 0.06196 0.0
C869 C 0.76964 0.29794 0.05865 0.0
C870 C 0.73484 0.29661 0.05141 0.0
C871 C 0.71787 0.23565 0.02434 0.0
H872 H 0.68157 0.28007 0.99109 0.0
C873 C 0.66405 0.19567 0.95608 0.0
C874 C 0.64515 0.20586 0.95564 0.0
C875 C 0.67832 0.20689 0.97024 0.0
C876 C 0.69139 0.26742 0.00059 0.0
H877 H 0.78608 0.267 0.04219 0.0
H878 H 0.75794 0.24663 0.02371 0.0
H879 H 0.70817 0.29932 0.01351 0.0
H880 H 0.62633 0.23582 0.96963 0.0
H881 H 0.65133 0.25544 0.99462 0.0
H882 H 0.70124 0.20375 0.01126 0.0
C883 C 0.75573 0.26364 0.03459 0.0
C884 C 0.70663 0.27845 0.01342 0.0
C885 C 0.77185 0.27537 0.04507 0.0
C886 C 0.6408 0.22762 0.96958 0.0
C887 C 0.65512 0.23888 0.98381 0.0
C888 C 0.70262 0.22464 0.01156 0.0
C889 C 0.73708 0.2743 0.03744 0.0
C890 C 0.72018 0.26266 0.02516 0.0
C891 C 0.67402 0.22855 0.98435 0.0
C892 C 0.68938 0.24038 -0.00074 0.0
H893 H 0.74881 0.32565 0.07239 0.0
H894 H 0.72063 0.30508 0.05413 0.0
H895 H 0.72789 0.22302 0.03353 0.0
H896 H 0.66786 0.17896 0.94545 0.0
H897 H 0.69282 0.19876 0.9699 0.0
C898 C 0.22001 0.72254 0.54611 0.0
C899 C 0.22155 0.69974 0.55949 0.0
C900 C 0.23653 0.73383 0.53621 0.0
C901 C 0.28461 0.71721 0.5143 0.0
H902 H 0.29294 0.79146 0.51495 0.0
C903 C 0.35092 0.76519 0.46899 0.0
C904 C 0.34739 0.78856 0.45706 0.0
C905 C 0.33652 0.75414 0.48322 0.0
C906 C 0.29073 0.77071 0.5144 0.0
H907 H 0.24154 0.67114 0.57347 0.0
H908 H 0.27046 0.69082 0.5559 0.0
H909 H 0.26608 0.77299 0.5374 0.0
H910 H 0.326 0.81843 0.4502 0.0
H911 H 0.30078 0.79889 0.4744 0.0
H912 H 0.30884 0.71492 0.4907 0.0
C913 C 0.25646 0.69989 0.5531 0.0
C914 C 0.2754 0.76016 0.52734 0.0
C915 C 0.23995 0.68874 0.56325 0.0
C916 C 0.32917 0.80047 0.45931 0.0
C917 C 0.31477 0.78937 0.47336 0.0
C918 C 0.29986 0.72778 0.50117 0.0
C919 C 0.25486 0.7224 0.5393 0.0
C920 C 0.27205 0.73335 0.52718 0.0
C921 C 0.31831 0.7662 0.48567 0.0
C922 C 0.30292 0.7547 0.50079 0.0
H923 H 0.206 0.73142 0.54294 0.0
H924 H 0.23486 0.75105 0.52547 0.0
H925 H 0.28222 0.69649 0.51367 0.0
H926 H 0.36489 0.75567 0.46765 0.0
H927 H 0.33979 0.7364 0.49262 0.0
C928 C 0.09859 0.57288 0.94139 0.0
C929 C 0.09843 0.59617 0.9542 0.0
C930 C 0.09793 0.54916 0.95312 0.0
C931 C 0.08432 0.51914 0.01001 0.0
H932 H 0.115 0.46189 0.98599 0.0
C933 C 0.09322 0.4207 0.0584 0.0
C934 C 0.09212 0.39843 0.04417 0.0
C935 C 0.09332 0.4453 0.0481 0.0
C936 C 0.10621 0.47764 0.99277 0.0
H937 H 0.09759 0.61299 0.98931 0.0
H938 H 0.0968 0.57141 0.00992 0.0
H939 H 0.11727 0.50411 0.96707 0.0
H940 H 0.08969 0.38439 0.00814 0.0
H941 H 0.08988 0.42732 0.9902 0.0
H942 H 0.07345 0.49251 0.03591 0.0
C943 C 0.09712 0.57151 0.99078 0.0
C944 C 0.1075 0.50183 0.98193 0.0
C945 C 0.09771 0.5953 0.979 0.0
C946 C 0.09061 0.40121 0.01955 0.0
C947 C 0.09084 0.42576 0.00927 0.0
C948 C 0.08313 0.49493 0.02097 0.0
C949 C 0.0972 0.54817 0.97795 0.0
C950 C 0.09642 0.5228 0.99025 0.0
C951 C 0.09247 0.44802 0.02341 0.0
C952 C 0.09393 0.4739 0.01228 0.0
H953 H 0.09902 0.57295 0.92225 0.0
H954 H 0.09767 0.53158 0.94268 0.0
H955 H 0.07543 0.53482 0.01669 0.0
H956 H 0.09439 0.41911 0.07744 0.0
H957 H 0.09468 0.46215 0.05941 0.0
C958 C 0.89799 0.5928 0.51943 0.0
C959 C 0.9008 0.59594 0.54385 0.0
C960 C 0.8988 0.56824 0.50921 0.0
C961 C 0.89303 0.4993 0.5234 0.0
H962 H 0.91757 0.48942 0.46233 0.0
C963 C 0.89966 0.39892 0.47813 0.0
C964 C 0.89577 0.39831 0.45376 0.0
C965 C 0.90114 0.42258 0.49003 0.0
C966 C 0.91052 0.49192 0.47931 0.0
H967 H 0.90693 0.57594 0.57672 0.0
H968 H 0.90844 0.53289 0.55878 0.0
H969 H 0.91914 0.53164 0.48151 0.0
H970 H 0.8901 0.42186 0.42277 0.0
H971 H 0.89248 0.46304 0.44353 0.0
H972 H 0.88423 0.45961 0.52104 0.0
C973 C 0.90544 0.54944 0.54761 0.0
C974 C 0.91144 0.51609 0.49029 0.0
C975 C 0.90468 0.57407 0.55784 0.0
C976 C 0.89319 0.42172 0.44156 0.0
C977 C 0.89469 0.44532 0.45341 0.0
C978 C 0.89211 0.47509 0.5124 0.0
C979 C 0.90241 0.54627 0.5232 0.0
C980 C 0.9025 0.52014 0.51231 0.0
C981 C 0.89881 0.44604 0.47774 0.0
C982 C 0.90063 0.47125 0.49009 0.0
H983 H 0.89493 0.60931 0.50822 0.0
H984 H 0.89615 0.56639 0.49041 0.0
H985 H 0.88581 0.50191 0.54025 0.0
H986 H 0.90175 0.38114 0.48797 0.0
H987 H 0.90445 0.42253 0.50875 0.0
C988 C 0.81396 0.40813 0.02321 0.0
C989 C 0.81311 0.40761 0.04802 0.0
C990 C 0.81236 0.43155 0.01102 0.0
C991 C 0.81928 0.50153 0.01838 0.0
H992 H 0.78757 0.50659 0.9619 0.0
C993 C 0.80784 0.5988 0.97065 0.0
C994 C 0.80861 0.59843 0.94584 0.0
C995 C 0.80703 0.57568 0.98341 0.0
C996 C 0.79664 0.50543 0.9775 0.0
H997 H 0.80983 0.43112 0.07954 0.0
H998 H 0.80709 0.47209 0.05823 0.0
H999 H 0.78896 0.4658 0.98361 0.0
H1000 H 0.80881 0.57366 0.91488 0.0
H1001 H 0.80775 0.53326 0.93714 0.0
H1002 H 0.82727 0.54093 0.01213 0.0
C1003 C 0.8091 0.45439 0.04823 0.0
C1004 C 0.79741 0.48208 0.98994 0.0
C1005 C 0.81058 0.43095 0.06041 0.0
C1006 C 0.80817 0.57453 0.93401 0.0
C1007 C 0.80746 0.55139 0.94677 0.0
C1008 C 0.81859 0.52483 0.00588 0.0
C1009 C 0.80999 0.45494 0.0234 0.0
C1010 C 0.80879 0.47987 0.01047 0.0
C1011 C 0.80707 0.55167 0.97164 0.0
C1012 C 0.80731 0.52705 0.98525 0.0
H1013 H 0.81591 0.39043 0.01319 0.0
H1014 H 0.81331 0.43141 0.9919 0.0
H1015 H 0.82839 0.5003 0.03395 0.0
H1016 H 0.80805 0.61696 0.98024 0.0
H1017 H 0.8064 0.57662 0.00252 0.0
C1018 C 0.1862 0.40399 0.46348 0.0
C1019 C 0.18593 0.40346 0.43866 0.0
C1020 C 0.18738 0.42753 0.47558 0.0
C1021 C 0.17625 0.49644 0.46859 0.0
H1022 H 0.20857 0.50474 0.52423 0.0
C1023 C 0.18163 0.59402 0.51752 0.0
C1024 C 0.18139 0.59316 0.54233 0.0
C1025 C 0.18382 0.57132 0.50435 0.0
C1026 C 0.19933 0.50266 0.50885 0.0
H1027 H 0.18704 0.42704 0.40698 0.0
H1028 H 0.18907 0.46823 0.42813 0.0
H1029 H 0.20953 0.46416 0.5021 0.0
H1030 H 0.18348 0.56796 0.57287 0.0
H1031 H 0.18691 0.52823 0.54991 0.0
H1032 H 0.1657 0.53461 0.47554 0.0
C1033 C 0.18824 0.45044 0.43823 0.0
C1034 C 0.19992 0.47944 0.49616 0.0
C1035 C 0.18718 0.42688 0.42613 0.0
C1036 C 0.18366 0.56921 0.55375 0.0
C1037 C 0.18575 0.54648 0.54058 0.0
C1038 C 0.17559 0.51959 0.48133 0.0
C1039 C 0.1882 0.45102 0.46308 0.0
C1040 C 0.1883 0.47604 0.47597 0.0
C1041 C 0.18571 0.54723 0.51571 0.0
C1042 C 0.18703 0.52293 0.5017 0.0
H1043 H 0.18527 0.38623 0.47361 0.0
H1044 H 0.18712 0.42737 0.49472 0.0
H1045 H 0.16691 0.49425 0.45331 0.0
H1046 H 0.18004 0.61224 0.50823 0.0
H1047 H 0.18405 0.57266 0.48524 0.0
C1048 C 0.60156 0.07401 0.93487 0.0
C1049 C 0.60071 0.09688 0.94828 0.0
C1050 C 0.60095 0.04989 0.94598 0.0
C1051 C 0.58688 0.01815 0.00204 0.0
H1052 H 0.62088 0.96332 0.98002 0.0
C1053 C 0.60013 0.92473 0.05519 0.0
C1054 C 0.60013 0.90131 0.04256 0.0
C1055 C 0.5997 0.94835 0.04323 0.0
C1056 C 0.61115 0.97836 0.98619 0.0
H1057 H 0.59858 0.11254 0.98376 0.0
H1058 H 0.59786 0.07043 0.00322 0.0
H1059 H 0.62109 0.00516 0.96003 0.0
H1060 H 0.59972 0.88415 0.00757 0.0
H1061 H 0.59901 0.92553 0.98662 0.0
H1062 H 0.57716 0.99142 0.02841 0.0
C1063 C 0.59866 0.07109 0.9841 0.0
C1064 C 0.61125 0.00231 0.97474 0.0
C1065 C 0.59919 0.09521 0.97298 0.0
C1066 C 0.59975 0.90193 0.01774 0.0
C1067 C 0.59944 0.92558 0.00576 0.0
C1068 C 0.58686 0.99425 0.01355 0.0
C1069 C 0.59955 0.04815 0.97073 0.0
C1070 C 0.59917 0.02252 0.98259 0.0
C1071 C 0.59936 0.94902 0.01841 0.0
C1072 C 0.59905 0.97415 0.0058 0.0
H1073 H 0.60264 0.07474 0.91578 0.0
H1074 H 0.60139 0.03259 0.93515 0.0
H1075 H 0.57715 0.03315 0.00827 0.0
H1076 H 0.60043 0.92484 0.07434 0.0
H1077 H 0.59989 0.96612 0.05343 0.0
C1078 C 0.4008 0.92107 0.43456 0.0
C1079 C 0.39796 0.89913 0.44883 0.0
C1080 C 0.40181 0.94573 0.44471 0.0
C1081 C 0.41043 0.97925 0.5015 0.0
H1082 H 0.38094 0.03509 0.473 0.0
C1083 C 0.39287 0.07295 0.55179 0.0
C1084 C 0.39434 0.09647 0.53949 0.0
C1085 C 0.39437 0.04943 0.53979 0.0
C1086 C 0.38946 0.01979 0.48099 0.0
H1087 H 0.3942 0.88569 0.48486 0.0
H1088 H 0.39585 0.92863 0.50253 0.0
H1089 H 0.38214 0.99288 0.4536 0.0
H1090 H 0.39844 0.11391 0.50498 0.0
H1091 H 0.40113 0.07268 0.48394 0.0
H1092 H 0.41756 0.00601 0.52903 0.0
C1093 C 0.3975 0.92683 0.48355 0.0
C1094 C 0.39016 0.99563 0.46988 0.0
C1095 C 0.39644 0.90224 0.47342 0.0
C1096 C 0.39721 0.09604 0.5149 0.0
C1097 C 0.39868 0.07247 0.50286 0.0
C1098 C 0.40973 0.00337 0.5126 0.0
C1099 C 0.40009 0.94887 0.46932 0.0
C1100 C 0.40044 0.97501 0.48019 0.0
C1101 C 0.39738 0.04891 0.51522 0.0
C1102 C 0.39902 0.0238 0.50264 0.0
H1103 H 0.40205 0.91922 0.41554 0.0
H1104 H 0.404 0.96232 0.43331 0.0
H1105 H 0.41876 0.96387 0.50966 0.0
H1106 H 0.3906 0.07267 0.57074 0.0
H1107 H 0.39299 0.03161 0.54975 0.0
C1108 C 0.3083 0.89906 0.02447 0.0
C1109 C 0.30791 0.89842 0.0493 0.0
C1110 C 0.30673 0.92259 0.01243 0.0
C1111 C 0.31565 0.99197 0.02034 0.0
H1112 H 0.28458 -0.00065 0.96356 0.0
C1113 C 0.30831 0.09011 0.97325 0.0
C1114 C 0.30925 0.08998 0.94845 0.0
C1115 C 0.30645 0.06695 0.98577 0.0
C1116 C 0.29347 0.99753 0.97926 0.0
H1117 H 0.30519 0.92176 0.081 0.0
H1118 H 0.30249 0.9629 0.05995 0.0
H1119 H 0.28435 0.95837 0.9851 0.0
H1120 H 0.30865 0.06562 0.91724 0.0
H1121 H 0.30579 0.02506 0.93911 0.0
H1122 H 0.32514 0.03079 0.01434 0.0
C1123 C 0.30413 0.94523 0.04982 0.0
C1124 C 0.2933 0.97408 0.99161 0.0
C1125 C 0.30559 0.92168 0.06186 0.0
C1126 C 0.30792 0.06629 0.93637 0.0
C1127 C 0.30617 0.04308 0.9489 0.0
C1128 C 0.31591 0.01533 0.00795 0.0
C1129 C 0.30487 0.94595 0.02499 0.0
C1130 C 0.30444 0.97105 0.01225 0.0
C1131 C 0.30562 0.04311 0.97378 0.0
C1132 C 0.30487 0.01839 0.98722 0.0
H1133 H 0.31007 0.88142 0.01433 0.0
H1134 H 0.30753 0.92255 0.9933 0.0
H1135 H 0.32464 0.99007 0.03596 0.0
H1136 H 0.30916 0.10811 0.98304 0.0
H1137 H 0.3057 0.06775 0.00488 0.0
C1138 C 0.68489 0.07051 0.56483 0.0
C1139 C 0.68381 0.09321 0.55122 0.0
C1140 C 0.68615 0.04631 0.55385 0.0
C1141 C 0.69863 0.01441 0.49739 0.0
H1142 H 0.66402 0.9603 0.51939 0.0
C1143 C 0.6819 0.92335 0.44204 0.0
C1144 C 0.67963 0.89969 0.45393 0.0
C1145 C 0.68406 0.94638 0.45474 0.0
C1146 C 0.67401 0.97503 0.51324 0.0
H1147 H 0.68366 0.10848 0.51551 0.0
H1148 H 0.68586 0.06628 0.49636 0.0
H1149 H 0.6652 0.00154 0.5403 0.0
H1150 H 0.67822 0.88143 0.4884 0.0
H1151 H 0.68225 0.92159 0.5106 0.0
H1152 H 0.70735 0.98799 0.47023 0.0
C1153 C 0.68584 0.06715 0.51549 0.0
C1154 C 0.67467 -0.00133 0.52523 0.0
C1155 C 0.68446 0.09131 0.52646 0.0
C1156 C 0.67984 0.89942 0.47876 0.0
C1157 C 0.68205 0.92244 0.49147 0.0
C1158 C 0.69803 0.99073 0.48545 0.0
C1159 C 0.68651 0.04438 0.52905 0.0
C1160 C 0.68681 0.01871 0.51726 0.0
C1161 C 0.68405 0.94622 0.47961 0.0
C1162 C 0.68554 0.97087 0.49307 0.0
H1163 H 0.68445 0.07141 0.58396 0.0
H1164 H 0.68683 0.0291 0.56475 0.0
H1165 H 0.70833 0.02938 0.49104 0.0
H1166 H 0.68175 0.92415 0.4229 0.0
H1167 H 0.68528 0.96438 0.44504 0.0
loop_
_geom_bond_atom_site_label_1
_geom_bond_atom_site_label_2
_geom_bond_distance
_geom_bond_site_symmetry_2
_ccdc_geom_bond_type
In0 O1 2.294 . S
In0 O2 2.326 . S
In0 O6 2.266 . S
In0 O7 2.326 . S
In0 O8 2.266 . S
In0 O9 2.326 . S
In0 O11 2.294 . S
In0 O12 2.326 . S
O1 In0 2.294 . S
O1 C10 1.240 . S
O2 In0 2.326 . S
O2 C10 1.252 . S
C3 O6 1.252 . S
C3 O7 1.260 . S
C4 O11 1.240 . S
C4 O12 1.252 . S
C5 O8 1.252 . S
C5 O9 1.260 . S
O6 In0 2.266 . S
O6 C3 1.252 . S
O7 In0 2.326 . S
O7 C3 1.260 . S
O8 In0 2.266 . S
O8 C5 1.252 . S
O9 In0 2.326 . S
O9 C5 1.260 . S
C10 O1 1.240 . S
C10 O2 1.252 . S
O11 In0 2.294 . S
O11 C4 1.240 . S
O12 In0 2.326 . S
O12 C4 1.252 . S
In13 O14 2.294 . S
In13 O15 2.326 . S
In13 O19 2.266 . S
In13 O20 2.326 . S
In13 O21 2.266 . S
In13 O22 2.326 . S
In13 O24 2.294 . S
In13 O25 2.326 . S
O14 In13 2.294 . S
O14 C23 1.240 . S
O15 In13 2.326 . S
O15 C23 1.252 . S
C16 O19 1.252 . S
C16 O20 1.260 . S
C17 O24 1.240 . S
C17 O25 1.252 . S
C18 O21 1.252 . S
C18 O22 1.260 . S
O19 In13 2.266 . S
O19 C16 1.252 . S
O20 In13 2.326 . S
O20 C16 1.260 . S
O21 In13 2.266 . S
O21 C18 1.252 . S
O22 In13 2.326 . S
O22 C18 1.260 . S
C23 O14 1.240 . S
C23 O15 1.252 . S
O24 In13 2.294 . S
O24 C17 1.240 . S
O25 In13 2.326 . S
O25 C17 1.252 . S
In26 O27 2.294 . S
In26 O28 2.326 . S
In26 O32 2.266 . S
In26 O33 2.326 . S
In26 O34 2.266 . S
In26 O35 2.326 . S
In26 O37 2.294 . S
In26 O38 2.326 . S
O27 In26 2.294 . S
O27 C36 1.240 . S
O28 In26 2.326 . S
O28 C36 1.252 . S
C29 O32 1.252 . S
C29 O33 1.260 . S
C30 O37 1.240 . S
C30 O38 1.252 . S
C31 O34 1.252 . S
C31 O35 1.260 . S
O32 In26 2.266 . S
O32 C29 1.252 . S
O33 In26 2.326 . S
O33 C29 1.260 . S
O34 In26 2.266 . S
O34 C31 1.252 . S
O35 In26 2.326 . S
O35 C31 1.260 . S
C36 O27 1.240 . S
C36 O28 1.252 . S
O37 In26 2.294 . S
O37 C30 1.240 . S
O38 In26 2.326 . S
O38 C30 1.252 . S
In39 O40 2.294 . S
In39 O41 2.326 . S
In39 O45 2.266 . S
In39 O46 2.326 . S
In39 O47 2.266 . S
In39 O48 2.326 . S
In39 O50 2.294 . S
In39 O51 2.326 . S
O40 In39 2.294 . S
O40 C49 1.240 . S
O41 In39 2.326 . S
O41 C49 1.252 . S
C42 O45 1.252 . S
C42 O46 1.260 . S
C43 O50 1.240 . S
C43 O51 1.252 . S
C44 O47 1.252 . S
C44 O48 1.260 . S
O45 In39 2.266 . S
O45 C42 1.252 . S
O46 In39 2.326 . S
O46 C42 1.260 . S
O47 In39 2.266 . S
O47 C44 1.252 . S
O48 In39 2.326 . S
O48 C44 1.260 . S
C49 O40 1.240 . S
C49 O41 1.252 . S
O50 In39 2.294 . S
O50 C43 1.240 . S
O51 In39 2.326 . S
O51 C43 1.252 . S
In52 O53 2.294 . S
In52 O54 2.326 . S
In52 O58 2.266 . S
In52 O59 2.326 . S
In52 O60 2.266 . S
In52 O61 2.326 . S
In52 O63 2.294 . S
In52 O64 2.326 . S
O53 In52 2.294 . S
O53 C62 1.240 . S
O54 In52 2.326 . S
O54 C62 1.252 . S
C55 O58 1.252 . S
C55 O59 1.260 . S
C56 O63 1.240 . S
C56 O64 1.252 . S
C57 O60 1.252 . S
C57 O61 1.260 . S
O58 In52 2.266 . S
O58 C55 1.252 . S
O59 In52 2.326 . S
O59 C55 1.260 . S
O60 In52 2.266 . S
O60 C57 1.252 . S
O61 In52 2.326 . S
O61 C57 1.260 . S
C62 O53 1.240 . S
C62 O54 1.252 . S
O63 In52 2.294 . S
O63 C56 1.240 . S
O64 In52 2.326 . S
O64 C56 1.252 . S
In65 O66 2.294 . S
In65 O67 2.326 . S
In65 O71 2.266 . S
In65 O72 2.326 . S
In65 O73 2.266 . S
In65 O74 2.326 . S
In65 O76 2.294 . S
In65 O77 2.326 . S
O66 In65 2.294 . S
O66 C75 1.240 . S
O67 In65 2.326 . S
O67 C75 1.252 . S
C68 O71 1.252 . S
C68 O72 1.260 . S
C69 O76 1.240 . S
C69 O77 1.252 . S
C70 O73 1.252 . S
C70 O74 1.260 . S
O71 In65 2.266 . S
O71 C68 1.252 . S
O72 In65 2.326 . S
O72 C68 1.260 . S
O73 In65 2.266 . S
O73 C70 1.252 . S
O74 In65 2.326 . S
O74 C70 1.260 . S
C75 O66 1.240 . S
C75 O67 1.252 . S
O76 In65 2.294 . S
O76 C69 1.240 . S
O77 In65 2.326 . S
O77 C69 1.252 . S
In78 O79 2.294 . S
In78 O80 2.326 . S
In78 O84 2.266 . S
In78 O85 2.326 . S
In78 O86 2.266 . S
In78 O87 2.326 . S
In78 O89 2.294 . S
In78 O90 2.326 . S
O79 In78 2.294 . S
O79 C88 1.240 . S
O80 In78 2.326 . S
O80 C88 1.252 . S
C81 O84 1.252 . S
C81 O85 1.260 . S
C82 O89 1.240 . S
C82 O90 1.252 . S
C83 O86 1.252 . S
C83 O87 1.260 . S
O84 In78 2.266 . S
O84 C81 1.252 . S
O85 In78 2.326 . S
O85 C81 1.260 . S
O86 In78 2.266 . S
O86 C83 1.252 . S
O87 In78 2.326 . S
O87 C83 1.260 . S
C88 O79 1.240 . S
C88 O80 1.252 . S
O89 In78 2.294 . S
O89 C82 1.240 . S
O90 In78 2.326 . S
O90 C82 1.252 . S
In91 O92 2.294 . S
In91 O93 2.326 . S
In91 O97 2.266 . S
In91 O98 2.326 . S
In91 O99 2.266 . S
In91 O100 2.326 . S
In91 O102 2.294 . S
In91 O103 2.326 . S
O92 In91 2.294 . S
O92 C101 1.240 . S
O93 In91 2.326 . S
O93 C101 1.252 . S
C94 O97 1.252 . S
C94 O98 1.260 . S
C95 O102 1.240 . S
C95 O103 1.252 . S
C96 O99 1.252 . S
C96 O100 1.260 . S
O97 In91 2.266 . S
O97 C94 1.252 . S
O98 In91 2.326 . S
O98 C94 1.260 . S
O99 In91 2.266 . S
O99 C96 1.252 . S
O100 In91 2.326 . S
O100 C96 1.260 . S
C101 O92 1.240 . S
C101 O93 1.252 . S
O102 In91 2.294 . S
O102 C95 1.240 . S
O103 In91 2.326 . S
O103 C95 1.252 . S
In104 O105 2.294 . S
In104 O106 2.326 . S
In104 O110 2.266 . S
In104 O111 2.326 . S
In104 O112 2.266 . S
In104 O113 2.326 . S
In104 O115 2.294 . S
In104 O116 2.326 . S
O105 In104 2.294 . S
O105 C114 1.240 . S
O106 In104 2.326 . S
O106 C114 1.252 . S
C107 O110 1.252 . S
C107 O111 1.260 . S
C108 O115 1.240 . S
C108 O116 1.252 . S
C109 O112 1.252 . S
C109 O113 1.260 . S
O110 In104 2.266 . S
O110 C107 1.252 . S
O111 In104 2.326 . S
O111 C107 1.260 . S
O112 In104 2.266 . S
O112 C109 1.252 . S
O113 In104 2.326 . S
O113 C109 1.260 . S
C114 O105 1.240 . S
C114 O106 1.252 . S
O115 In104 2.294 . S
O115 C108 1.240 . S
O116 In104 2.326 . S
O116 C108 1.252 . S
In117 O118 2.294 . S
In117 O119 2.326 . S
In117 O123 2.266 . S
In117 O124 2.326 . S
In117 O125 2.266 . S
In117 O126 2.326 . S
In117 O128 2.294 . S
In117 O129 2.326 . S
O118 In117 2.294 . S
O118 C127 1.240 . S
O119 In117 2.326 . S
O119 C127 1.252 . S
C120 O123 1.252 . S
C120 O124 1.260 . S
C121 O128 1.240 . S
C121 O129 1.252 . S
C122 O125 1.252 . S
C122 O126 1.260 . S
O123 In117 2.266 . S
O123 C120 1.252 . S
O124 In117 2.326 . S
O124 C120 1.260 . S
O125 In117 2.266 . S
O125 C122 1.252 . S
O126 In117 2.326 . S
O126 C122 1.260 . S
C127 O118 1.240 . S
C127 O119 1.252 . S
O128 In117 2.294 . S
O128 C121 1.240 . S
O129 In117 2.326 . S
O129 C121 1.252 . S
In130 O131 2.294 . S
In130 O132 2.326 . S
In130 O136 2.266 . S
In130 O137 2.326 . S
In130 O138 2.266 . S
In130 O139 2.326 . S
In130 O141 2.294 . S
In130 O142 2.326 . S
O131 In130 2.294 . S
O131 C140 1.240 . S
O132 In130 2.326 . S
O132 C140 1.252 . S
C133 O136 1.252 . S
C133 O137 1.260 . S
C134 O141 1.240 . S
C134 O142 1.252 . S
C135 O138 1.252 . S
C135 O139 1.260 . S
O136 In130 2.266 . S
O136 C133 1.252 . S
O137 In130 2.326 . S
O137 C133 1.260 . S
O138 In130 2.266 . S
O138 C135 1.252 . S
O139 In130 2.326 . S
O139 C135 1.260 . S
C140 O131 1.240 . S
C140 O132 1.252 . S
O141 In130 2.294 . S
O141 C134 1.240 . S
O142 In130 2.326 . S
O142 C134 1.252 . S
In143 O144 2.294 . S
In143 O145 2.326 . S
In143 O149 2.266 . S
In143 O150 2.326 . S
In143 O151 2.266 . S
In143 O152 2.326 . S
In143 O154 2.294 . S
In143 O155 2.326 . S
O144 In143 2.294 . S
O144 C153 1.240 . S
O145 In143 2.326 . S
O145 C153 1.252 . S
C146 O149 1.252 . S
C146 O150 1.260 . S
C147 O154 1.240 . S
C147 O155 1.252 . S
C148 O151 1.252 . S
C148 O152 1.260 . S
O149 In143 2.266 . S
O149 C146 1.252 . S
O150 In143 2.326 . S
O150 C146 1.260 . S
O151 In143 2.266 . S
O151 C148 1.252 . S
O152 In143 2.326 . S
O152 C148 1.260 . S
C153 O144 1.240 . S
C153 O145 1.252 . S
O154 In143 2.294 . S
O154 C147 1.240 . S
O155 In143 2.326 . S
O155 C147 1.252 . S
In156 O157 2.294 . S
In156 O158 2.326 . S
In156 O162 2.266 . S
In156 O163 2.326 . S
In156 O164 2.266 . S
In156 O165 2.326 . S
In156 O167 2.294 . S
In156 O168 2.326 . S
O157 In156 2.294 . S
O157 C166 1.240 . S
O158 In156 2.326 . S
O158 C166 1.252 . S
C159 O162 1.252 . S
C159 O163 1.260 . S
C160 O167 1.240 . S
C160 O168 1.252 . S
C161 O164 1.252 . S
C161 O165 1.260 . S
O162 In156 2.266 . S
O162 C159 1.252 . S
O163 In156 2.326 . S
O163 C159 1.260 . S
O164 In156 2.266 . S
O164 C161 1.252 . S
O165 In156 2.326 . S
O165 C161 1.260 . S
C166 O157 1.240 . S
C166 O158 1.252 . S
O167 In156 2.294 . S
O167 C160 1.240 . S
O168 In156 2.326 . S
O168 C160 1.252 . S
In169 O170 2.294 . S
In169 O171 2.326 . S
In169 O175 2.266 . S
In169 O176 2.326 . S
In169 O177 2.266 . S
In169 O178 2.326 . S
In169 O180 2.294 . S
In169 O181 2.326 . S
O170 In169 2.294 . S
O170 C179 1.240 . S
O171 In169 2.326 . S
O171 C179 1.252 . S
C172 O175 1.252 . S
C172 O176 1.260 . S
C173 O180 1.240 . S
C173 O181 1.252 . S
C174 O177 1.252 . S
C174 O178 1.260 . S
O175 In169 2.266 . S
O175 C172 1.252 . S
O176 In169 2.326 . S
O176 C172 1.260 . S
O177 In169 2.266 . S
O177 C174 1.252 . S
O178 In169 2.326 . S
O178 C174 1.260 . S
C179 O170 1.240 . S
C179 O171 1.252 . S
O180 In169 2.294 . S
O180 C173 1.240 . S
O181 In169 2.326 . S
O181 C173 1.252 . S
In182 O183 2.294 . S
In182 O184 2.326 . S
In182 O188 2.266 . S
In182 O189 2.326 . S
In182 O190 2.266 . S
In182 O191 2.326 . S
In182 O193 2.294 . S
In182 O194 2.326 . S
O183 In182 2.294 . S
O183 C192 1.240 . S
O184 In182 2.326 . S
O184 C192 1.252 . S
C185 O188 1.252 . S
C185 O189 1.260 . S
C186 O193 1.240 . S
C186 O194 1.252 . S
C187 O190 1.252 . S
C187 O191 1.260 . S
O188 In182 2.266 . S
O188 C185 1.252 . S
O189 In182 2.326 . S
O189 C185 1.260 . S
O190 In182 2.266 . S
O190 C187 1.252 . S
O191 In182 2.326 . S
O191 C187 1.260 . S
C192 O183 1.240 . S
C192 O184 1.252 . S
O193 In182 2.294 . S
O193 C186 1.240 . S
O194 In182 2.326 . S
O194 C186 1.252 . S
In195 O196 2.294 . S
In195 O197 2.326 . S
In195 O201 2.266 . S
In195 O202 2.326 . S
In195 O203 2.266 . S
In195 O204 2.326 . S
In195 O206 2.294 . S
In195 O207 2.326 . S
O196 In195 2.294 . S
O196 C205 1.240 . S
O197 In195 2.326 . S
O197 C205 1.252 . S
C198 O201 1.252 . S
C198 O202 1.260 . S
C199 O206 1.240 . S
C199 O207 1.252 . S
C200 O203 1.252 . S
C200 O204 1.260 . S
O201 In195 2.266 . S
O201 C198 1.252 . S
O202 In195 2.326 . S
O202 C198 1.260 . S
O203 In195 2.266 . S
O203 C200 1.252 . S
O204 In195 2.326 . S
O204 C200 1.260 . S
C205 O196 1.240 . S
C205 O197 1.252 . S
O206 In195 2.294 . S
O206 C199 1.240 . S
O207 In195 2.326 . S
O207 C199 1.252 . S
C208 C209 1.349 . S
C208 C210 1.327 . S
C208 H233 0.950 . S
C209 C208 1.349 . S
C209 C225 1.349 . S
C210 C208 1.327 . S
C210 C229 1.429 . S
C210 H234 0.950 . S
C211 C228 1.574 . S
C211 C230 1.368 . S
C211 H235 0.949 . S
H212 C216 0.949 . S
C213 C214 1.349 . S
C213 C215 1.327 . S
C213 H236 0.950 . S
C214 C213 1.349 . S
C214 C226 1.349 . S
C215 C213 1.327 . S
C215 C231 1.429 . S
C215 H237 0.950 . S
C216 H212 0.949 . S
C216 C224 1.574 . S
C216 C232 1.368 . S
H217 C225 0.950 . S
H218 C223 0.950 . S
H219 C224 0.949 . S
H220 C226 0.950 . S
H221 C227 0.950 . S
H222 C228 0.949 . S
C223 H218 0.950 . S
C223 C225 1.327 . S
C223 C229 1.429 . S
C224 C216 1.574 . S
C224 H219 0.949 . S
C224 C230 1.368 . S
C225 C209 1.349 . S
C225 H217 0.950 . S
C225 C223 1.327 . S
C226 C214 1.349 . S
C226 H220 0.950 . S
C226 C227 1.327 . S
C227 H221 0.950 . S
C227 C226 1.327 . S
C227 C231 1.429 . S
C228 C211 1.574 . S
C228 H222 0.949 . S
C228 C232 1.368 . S
C229 C210 1.429 . S
C229 C223 1.429 . S
C229 C230 1.523 1_455 S
C230 C211 1.368 . S
C230 C224 1.368 . S
C230 C229 1.523 1_655 S
C231 C215 1.429 . S
C231 C227 1.429 . S
C231 C232 1.523 . S
C232 C216 1.368 . S
C232 C228 1.368 . S
C232 C231 1.523 . S
H233 C208 0.950 . S
H234 C210 0.950 . S
H235 C211 0.949 . S
H236 C213 0.950 . S
H237 C215 0.950 . S
C238 C239 1.349 . S
C238 C240 1.327 . S
C238 H263 0.950 . S
C239 C238 1.349 . S
C239 C255 1.349 . S
C240 C238 1.327 . S
C240 C259 1.429 . S
C240 H264 0.950 . S
C241 C258 1.574 . S
C241 C260 1.368 . S
C241 H265 0.949 . S
H242 C246 0.949 . S
C243 C244 1.349 . S
C243 C245 1.327 . S
C243 H266 0.950 . S
C244 C243 1.349 . S
C244 C256 1.349 . S
C245 C243 1.327 . S
C245 C261 1.429 . S
C245 H267 0.950 . S
C246 H242 0.949 . S
C246 C254 1.574 . S
C246 C262 1.368 . S
H247 C255 0.950 . S
H248 C253 0.950 . S
H249 C254 0.949 . S
H250 C256 0.950 . S
H251 C257 0.950 . S
H252 C258 0.949 . S
C253 H248 0.950 . S
C253 C255 1.327 . S
C253 C259 1.429 . S
C254 C246 1.574 . S
C254 H249 0.949 . S
C254 C260 1.368 . S
C255 C239 1.349 . S
C255 H247 0.950 . S
C255 C253 1.327 . S
C256 C244 1.349 . S
C256 H250 0.950 . S
C256 C257 1.327 . S
C257 H251 0.950 . S
C257 C256 1.327 . S
C257 C261 1.429 . S
C258 C241 1.574 . S
C258 H252 0.949 . S
C258 C262 1.368 . S
C259 C240 1.429 . S
C259 C253 1.429 . S
C259 C260 1.523 1_655 S
C260 C241 1.368 . S
C260 C254 1.368 . S
C260 C259 1.523 1_455 S
C261 C245 1.429 . S
C261 C257 1.429 . S
C261 C262 1.523 . S
C262 C246 1.368 . S
C262 C258 1.368 . S
C262 C261 1.523 . S
H263 C238 0.950 . S
H264 C240 0.950 . S
H265 C241 0.949 . S
H266 C243 0.950 . S
H267 C245 0.950 . S
C268 C269 1.349 . S
C268 C270 1.327 . S
C268 H293 0.950 . S
C269 C268 1.349 . S
C269 C285 1.349 . S
C270 C268 1.327 . S
C270 C289 1.429 . S
C270 H294 0.950 . S
C271 C288 1.574 . S
C271 C290 1.368 . S
C271 H295 0.949 . S
H272 C276 0.949 . S
C273 C274 1.349 . S
C273 C275 1.327 . S
C273 H296 0.950 . S
C274 C273 1.349 . S
C274 C286 1.349 . S
C275 C273 1.327 . S
C275 C291 1.429 . S
C275 H297 0.950 . S
C276 H272 0.949 . S
C276 C284 1.574 . S
C276 C292 1.368 . S
H277 C285 0.950 . S
H278 C283 0.950 . S
H279 C284 0.949 . S
H280 C286 0.950 . S
H281 C287 0.950 . S
H282 C288 0.949 . S
C283 H278 0.950 . S
C283 C285 1.327 . S
C283 C289 1.429 . S
C284 C276 1.574 . S
C284 H279 0.949 . S
C284 C290 1.368 . S
C285 C269 1.349 . S
C285 H277 0.950 . S
C285 C283 1.327 . S
C286 C274 1.349 . S
C286 H280 0.950 . S
C286 C287 1.327 . S
C287 H281 0.950 . S
C287 C286 1.327 . S
C287 C291 1.429 . S
C288 C271 1.574 . S
C288 H282 0.949 . S
C288 C292 1.368 . S
C289 C270 1.429 . S
C289 C283 1.429 . S
C289 C290 1.523 . S
C290 C271 1.368 . S
C290 C284 1.368 . S
C290 C289 1.523 . S
C291 C275 1.429 . S
C291 C287 1.429 . S
C291 C292 1.523 1_455 S
C292 C276 1.368 . S
C292 C288 1.368 . S
C292 C291 1.523 1_655 S
H293 C268 0.950 . S
H294 C270 0.950 . S
H295 C271 0.949 . S
H296 C273 0.950 . S
H297 C275 0.950 . S
C298 C299 1.349 . S
C298 C300 1.327 . S
C298 H323 0.950 . S
C299 C298 1.349 . S
C299 C315 1.349 . S
C300 C298 1.327 . S
C300 C319 1.429 . S
C300 H324 0.950 . S
C301 C318 1.574 . S
C301 C320 1.368 . S
C301 H325 0.949 . S
H302 C306 0.949 . S
C303 C304 1.349 . S
C303 C305 1.327 . S
C303 H326 0.950 . S
C304 C303 1.349 . S
C304 C316 1.349 . S
C305 C303 1.327 . S
C305 C321 1.429 . S
C305 H327 0.950 . S
C306 H302 0.949 . S
C306 C314 1.574 . S
C306 C322 1.368 . S
H307 C315 0.950 . S
H308 C313 0.950 . S
H309 C314 0.949 . S
H310 C316 0.950 . S
H311 C317 0.950 . S
H312 C318 0.949 . S
C313 H308 0.950 . S
C313 C315 1.327 . S
C313 C319 1.429 . S
C314 C306 1.574 . S
C314 H309 0.949 . S
C314 C320 1.368 . S
C315 C299 1.349 . S
C315 H307 0.950 . S
C315 C313 1.327 . S
C316 C304 1.349 . S
C316 H310 0.950 . S
C316 C317 1.327 . S
C317 H311 0.950 . S
C317 C316 1.327 . S
C317 C321 1.429 . S
C318 C301 1.574 . S
C318 H312 0.949 . S
C318 C322 1.368 . S
C319 C300 1.429 . S
C319 C313 1.429 . S
C319 C320 1.523 . S
C320 C301 1.368 . S
C320 C314 1.368 . S
C320 C319 1.523 . S
C321 C305 1.429 . S
C321 C317 1.429 . S
C321 C322 1.523 1_655 S
C322 C306 1.368 . S
C322 C318 1.368 . S
C322 C321 1.523 1_455 S
H323 C298 0.950 . S
H324 C300 0.950 . S
H325 C301 0.949 . S
H326 C303 0.950 . S
H327 C305 0.950 . S
C328 C329 1.349 . S
C328 C330 1.327 . S
C328 H353 0.950 . S
C329 C328 1.349 . S
C329 C345 1.349 . S
C330 C328 1.327 . S
C330 C349 1.429 . S
C330 H354 0.950 . S
C331 C348 1.574 . S
C331 C350 1.368 . S
C331 H355 0.949 . S
H332 C336 0.949 . S
C333 C334 1.349 . S
C333 C335 1.327 . S
C333 H356 0.950 . S
C334 C333 1.349 . S
C334 C346 1.349 . S
C335 C333 1.327 . S
C335 C351 1.429 . S
C335 H357 0.950 . S
C336 H332 0.949 . S
C336 C344 1.574 . S
C336 C352 1.368 . S
H337 C345 0.950 . S
H338 C343 0.950 . S
H339 C344 0.949 . S
H340 C346 0.950 . S
H341 C347 0.950 . S
H342 C348 0.949 . S
C343 H338 0.950 . S
C343 C345 1.327 . S
C343 C349 1.429 . S
C344 C336 1.574 . S
C344 H339 0.949 . S
C344 C350 1.368 . S
C345 C329 1.349 . S
C345 H337 0.950 . S
C345 C343 1.327 . S
C346 C334 1.349 . S
C346 H340 0.950 . S
C346 C347 1.327 . S
C347 H341 0.950 . S
C347 C346 1.327 . S
C347 C351 1.429 . S
C348 C331 1.574 . S
C348 H342 0.949 . S
C348 C352 1.368 . S
C349 C330 1.429 . S
C349 C343 1.429 . S
C349 C350 1.523 . S
C350 C331 1.368 . S
C350 C344 1.368 . S
C350 C349 1.523 . S
C351 C335 1.429 . S
C351 C347 1.429 . S
C351 C352 1.523 . S
C352 C336 1.368 . S
C352 C348 1.368 . S
C352 C351 1.523 . S
H353 C328 0.950 . S
H354 C330 0.950 . S
H355 C331 0.949 . S
H356 C333 0.950 . S
H357 C335 0.950 . S
C358 C359 1.349 . S
C358 C360 1.327 . S
C358 H383 0.950 . S
C359 C358 1.349 . S
C359 C375 1.349 . S
C360 C358 1.327 . S
C360 C379 1.429 . S
C360 H384 0.950 . S
C361 C378 1.574 . S
C361 C380 1.368 . S
C361 H385 0.949 . S
H362 C366 0.949 . S
C363 C364 1.349 . S
C363 C365 1.327 . S
C363 H386 0.950 . S
C364 C363 1.349 . S
C364 C376 1.349 . S
C365 C363 1.327 . S
C365 C381 1.429 . S
C365 H387 0.950 . S
C366 H362 0.949 . S
C366 C374 1.574 . S
C366 C382 1.368 . S
H367 C375 0.950 . S
H368 C373 0.950 . S
H369 C374 0.949 . S
H370 C376 0.950 . S
H371 C377 0.950 . S
H372 C378 0.949 . S
C373 H368 0.950 . S
C373 C375 1.327 . S
C373 C379 1.429 . S
C374 C366 1.574 . S
C374 H369 0.949 . S
C374 C380 1.368 . S
C375 C359 1.349 . S
C375 H367 0.950 . S
C375 C373 1.327 . S
C376 C364 1.349 . S
C376 H370 0.950 . S
C376 C377 1.327 . S
C377 H371 0.950 . S
C377 C376 1.327 . S
C377 C381 1.429 . S
C378 C361 1.574 . S
C378 H372 0.949 . S
C378 C382 1.368 . S
C379 C360 1.429 . S
C379 C373 1.429 . S
C379 C380 1.523 . S
C380 C361 1.368 . S
C380 C374 1.368 . S
C380 C379 1.523 . S
C381 C365 1.429 . S
C381 C377 1.429 . S
C381 C382 1.523 . S
C382 C366 1.368 . S
C382 C378 1.368 . S
C382 C381 1.523 . S
H383 C358 0.950 . S
H384 C360 0.950 . S
H385 C361 0.949 . S
H386 C363 0.950 . S
H387 C365 0.950 . S
C388 C389 1.349 . S
C388 C390 1.327 . S
C388 H413 0.950 . S
C389 C388 1.349 . S
C389 C405 1.349 . S
C390 C388 1.327 . S
C390 C409 1.429 . S
C390 H414 0.950 . S
C391 C408 1.574 . S
C391 C410 1.368 . S
C391 H415 0.949 . S
H392 C396 0.949 . S
C393 C394 1.349 . S
C393 C395 1.327 . S
C393 H416 0.950 . S
C394 C393 1.349 . S
C394 C406 1.349 . S
C395 C393 1.327 . S
C395 C411 1.429 . S
C395 H417 0.950 . S
C396 H392 0.949 . S
C396 C404 1.574 . S
C396 C412 1.368 . S
H397 C405 0.950 . S
H398 C403 0.950 . S
H399 C404 0.949 . S
H400 C406 0.950 . S
H401 C407 0.950 . S
H402 C408 0.949 . S
C403 H398 0.950 . S
C403 C405 1.327 . S
C403 C409 1.429 . S
C404 C396 1.574 . S
C404 H399 0.949 . S
C404 C410 1.368 . S
C405 C389 1.349 . S
C405 H397 0.950 . S
C405 C403 1.327 . S
C406 C394 1.349 . S
C406 H400 0.950 . S
C406 C407 1.327 . S
C407 H401 0.950 . S
C407 C406 1.327 . S
C407 C411 1.429 . S
C408 C391 1.574 . S
C408 H402 0.949 . S
C408 C412 1.368 . S
C409 C390 1.429 . S
C409 C403 1.429 . S
C409 C410 1.523 . S
C410 C391 1.368 . S
C410 C404 1.368 . S
C410 C409 1.523 . S
C411 C395 1.429 . S
C411 C407 1.429 . S
C411 C412 1.523 . S
C412 C396 1.368 . S
C412 C408 1.368 . S
C412 C411 1.523 . S
H413 C388 0.950 . S
H414 C390 0.950 . S
H415 C391 0.949 . S
H416 C393 0.950 . S
H417 C395 0.950 . S
C418 C419 1.349 . S
C418 C420 1.327 . S
C418 H443 0.950 . S
C419 C418 1.349 . S
C419 C435 1.349 . S
C420 C418 1.327 . S
C420 C439 1.429 . S
C420 H444 0.950 . S
C421 C438 1.574 . S
C421 C440 1.368 . S
C421 H445 0.949 . S
H422 C426 0.949 . S
C423 C424 1.349 . S
C423 C425 1.327 . S
C423 H446 0.950 . S
C424 C423 1.349 . S
C424 C436 1.349 . S
C425 C423 1.327 . S
C425 C441 1.429 . S
C425 H447 0.950 . S
C426 H422 0.949 . S
C426 C434 1.574 . S
C426 C442 1.368 . S
H427 C435 0.950 . S
H428 C433 0.950 . S
H429 C434 0.949 . S
H430 C436 0.950 . S
H431 C437 0.950 . S
H432 C438 0.949 . S
C433 H428 0.950 . S
C433 C435 1.327 . S
C433 C439 1.429 . S
C434 C426 1.574 . S
C434 H429 0.949 . S
C434 C440 1.368 . S
C435 C419 1.349 . S
C435 H427 0.950 . S
C435 C433 1.327 . S
C436 C424 1.349 . S
C436 H430 0.950 . S
C436 C437 1.327 . S
C437 H431 0.950 . S
C437 C436 1.327 . S
C437 C441 1.429 . S
C438 C421 1.574 . S
C438 H432 0.949 . S
C438 C442 1.368 . S
C439 C420 1.429 . S
C439 C433 1.429 . S
C439 C440 1.523 . S
C440 C421 1.368 . S
C440 C434 1.368 . S
C440 C439 1.523 . S
C441 C425 1.429 . S
C441 C437 1.429 . S
C441 C442 1.523 . S
C442 C426 1.368 . S
C442 C438 1.368 . S
C442 C441 1.523 . S
H443 C418 0.950 . S
H444 C420 0.950 . S
H445 C421 0.949 . S
H446 C423 0.950 . S
H447 C425 0.950 . S
C448 C449 1.349 . S
C448 C450 1.327 . S
C448 H473 0.950 . S
C449 C448 1.349 . S
C449 C465 1.349 . S
C450 C448 1.327 . S
C450 C469 1.429 . S
C450 H474 0.950 . S
C451 C468 1.574 . S
C451 C470 1.368 . S
C451 H475 0.949 . S
H452 C456 0.949 . S
C453 C454 1.349 . S
C453 C455 1.327 . S
C453 H476 0.950 . S
C454 C453 1.349 . S
C454 C466 1.349 . S
C455 C453 1.327 . S
C455 C471 1.429 . S
C455 H477 0.950 . S
C456 H452 0.949 . S
C456 C464 1.574 . S
C456 C472 1.368 . S
H457 C465 0.950 . S
H458 C463 0.950 . S
H459 C464 0.949 . S
H460 C466 0.950 . S
H461 C467 0.950 . S
H462 C468 0.949 . S
C463 H458 0.950 . S
C463 C465 1.327 . S
C463 C469 1.429 . S
C464 C456 1.574 . S
C464 H459 0.949 . S
C464 C470 1.368 . S
C465 C449 1.349 . S
C465 H457 0.950 . S
C465 C463 1.327 . S
C466 C454 1.349 . S
C466 H460 0.950 . S
C466 C467 1.327 . S
C467 H461 0.950 . S
C467 C466 1.327 . S
C467 C471 1.429 . S
C468 C451 1.574 . S
C468 H462 0.949 . S
C468 C472 1.368 . S
C469 C450 1.429 . S
C469 C463 1.429 . S
C469 C470 1.523 . S
C470 C451 1.368 . S
C470 C464 1.368 . S
C470 C469 1.523 . S
C471 C455 1.429 . S
C471 C467 1.429 . S
C471 C472 1.523 . S
C472 C456 1.368 . S
C472 C468 1.368 . S
C472 C471 1.523 . S
H473 C448 0.950 . S
H474 C450 0.950 . S
H475 C451 0.949 . S
H476 C453 0.950 . S
H477 C455 0.950 . S
C478 C479 1.349 . S
C478 C480 1.327 . S
C478 H503 0.950 . S
C479 C478 1.349 . S
C479 C495 1.349 . S
C480 C478 1.327 . S
C480 C499 1.429 . S
C480 H504 0.950 . S
C481 C498 1.574 . S
C481 C500 1.368 . S
C481 H505 0.949 . S
H482 C486 0.949 . S
C483 C484 1.349 . S
C483 C485 1.327 . S
C483 H506 0.950 . S
C484 C483 1.349 . S
C484 C496 1.349 . S
C485 C483 1.327 . S
C485 C501 1.429 . S
C485 H507 0.950 . S
C486 H482 0.949 . S
C486 C494 1.574 . S
C486 C502 1.368 . S
H487 C495 0.950 . S
H488 C493 0.950 . S
H489 C494 0.949 . S
H490 C496 0.950 . S
H491 C497 0.950 . S
H492 C498 0.949 . S
C493 H488 0.950 . S
C493 C495 1.327 . S
C493 C499 1.429 . S
C494 C486 1.574 . S
C494 H489 0.949 . S
C494 C500 1.368 . S
C495 C479 1.349 . S
C495 H487 0.950 . S
C495 C493 1.327 . S
C496 C484 1.349 . S
C496 H490 0.950 . S
C496 C497 1.327 . S
C497 H491 0.950 . S
C497 C496 1.327 . S
C497 C501 1.429 . S
C498 C481 1.574 . S
C498 H492 0.949 . S
C498 C502 1.368 . S
C499 C480 1.429 . S
C499 C493 1.429 . S
C499 C500 1.523 . S
C500 C481 1.368 . S
C500 C494 1.368 . S
C500 C499 1.523 . S
C501 C485 1.429 . S
C501 C497 1.429 . S
C501 C502 1.523 . S
C502 C486 1.368 . S
C502 C498 1.368 . S
C502 C501 1.523 . S
H503 C478 0.950 . S
H504 C480 0.950 . S
H505 C481 0.949 . S
H506 C483 0.950 . S
H507 C485 0.950 . S
C508 C509 1.349 . S
C508 C510 1.327 . S
C508 H533 0.950 . S
C509 C508 1.349 . S
C509 C525 1.349 . S
C510 C508 1.327 . S
C510 C529 1.429 . S
C510 H534 0.950 . S
C511 C528 1.574 . S
C511 C530 1.368 . S
C511 H535 0.949 . S
H512 C516 0.949 . S
C513 C514 1.349 . S
C513 C515 1.327 . S
C513 H536 0.950 . S
C514 C513 1.349 . S
C514 C526 1.349 . S
C515 C513 1.327 . S
C515 C531 1.429 . S
C515 H537 0.950 . S
C516 H512 0.949 . S
C516 C524 1.574 . S
C516 C532 1.368 . S
H517 C525 0.950 . S
H518 C523 0.950 . S
H519 C524 0.949 . S
H520 C526 0.950 . S
H521 C527 0.950 . S
H522 C528 0.949 . S
C523 H518 0.950 . S
C523 C525 1.327 . S
C523 C529 1.429 . S
C524 C516 1.574 . S
C524 H519 0.949 . S
C524 C530 1.368 . S
C525 C509 1.349 . S
C525 H517 0.950 . S
C525 C523 1.327 . S
C526 C514 1.349 . S
C526 H520 0.950 . S
C526 C527 1.327 . S
C527 H521 0.950 . S
C527 C526 1.327 . S
C527 C531 1.429 . S
C528 C511 1.574 . S
C528 H522 0.949 . S
C528 C532 1.368 . S
C529 C510 1.429 . S
C529 C523 1.429 . S
C529 C530 1.523 . S
C530 C511 1.368 . S
C530 C524 1.368 . S
C530 C529 1.523 . S
C531 C515 1.429 . S
C531 C527 1.429 . S
C531 C532 1.523 . S
C532 C516 1.368 . S
C532 C528 1.368 . S
C532 C531 1.523 . S
H533 C508 0.950 . S
H534 C510 0.950 . S
H535 C511 0.949 . S
H536 C513 0.950 . S
H537 C515 0.950 . S
C538 C539 1.349 . S
C538 C540 1.327 . S
C538 H563 0.950 . S
C539 C538 1.349 . S
C539 C555 1.349 . S
C540 C538 1.327 . S
C540 C559 1.429 . S
C540 H564 0.950 . S
C541 C558 1.574 . S
C541 C560 1.368 . S
C541 H565 0.949 . S
H542 C546 0.949 . S
C543 C544 1.349 . S
C543 C545 1.327 . S
C543 H566 0.950 . S
C544 C543 1.349 . S
C544 C556 1.349 . S
C545 C543 1.327 . S
C545 C561 1.429 . S
C545 H567 0.950 . S
C546 H542 0.949 . S
C546 C554 1.574 . S
C546 C562 1.368 . S
H547 C555 0.950 . S
H548 C553 0.950 . S
H549 C554 0.949 . S
H550 C556 0.950 . S
H551 C557 0.950 . S
H552 C558 0.949 . S
C553 H548 0.950 . S
C553 C555 1.327 . S
C553 C559 1.429 . S
C554 C546 1.574 . S
C554 H549 0.949 . S
C554 C560 1.368 . S
C555 C539 1.349 . S
C555 H547 0.950 . S
C555 C553 1.327 . S
C556 C544 1.349 . S
C556 H550 0.950 . S
C556 C557 1.327 . S
C557 H551 0.950 . S
C557 C556 1.327 . S
C557 C561 1.429 . S
C558 C541 1.574 . S
C558 H552 0.949 . S
C558 C562 1.368 . S
C559 C540 1.429 . S
C559 C553 1.429 . S
C559 C560 1.523 . S
C560 C541 1.368 . S
C560 C554 1.368 . S
C560 C559 1.523 . S
C561 C545 1.429 . S
C561 C557 1.429 . S
C561 C562 1.523 . S
C562 C546 1.368 . S
C562 C558 1.368 . S
C562 C561 1.523 . S
H563 C538 0.950 . S
H564 C540 0.950 . S
H565 C541 0.949 . S
H566 C543 0.950 . S
H567 C545 0.950 . S
C568 C569 1.349 . S
C568 C570 1.327 . S
C568 H593 0.950 . S
C569 C568 1.349 . S
C569 C585 1.349 . S
C570 C568 1.327 . S
C570 C589 1.429 . S
C570 H594 0.950 . S
C571 C588 1.574 . S
C571 C590 1.368 . S
C571 H595 0.949 . S
H572 C576 0.949 . S
C573 C574 1.349 . S
C573 C575 1.327 . S
C573 H596 0.950 . S
C574 C573 1.349 . S
C574 C586 1.349 . S
C575 C573 1.327 . S
C575 C591 1.429 . S
C575 H597 0.950 . S
C576 H572 0.949 . S
C576 C584 1.574 . S
C576 C592 1.368 . S
H577 C585 0.950 . S
H578 C583 0.950 . S
H579 C584 0.949 . S
H580 C586 0.950 . S
H581 C587 0.950 . S
H582 C588 0.949 . S
C583 H578 0.950 . S
C583 C585 1.327 . S
C583 C589 1.429 . S
C584 C576 1.574 . S
C584 H579 0.949 . S
C584 C590 1.368 . S
C585 C569 1.349 . S
C585 H577 0.950 . S
C585 C583 1.327 . S
C586 C574 1.349 . S
C586 H580 0.950 . S
C586 C587 1.327 . S
C587 H581 0.950 . S
C587 C586 1.327 . S
C587 C591 1.429 . S
C588 C571 1.574 . S
C588 H582 0.949 . S
C588 C592 1.368 . S
C589 C570 1.429 . S
C589 C583 1.429 . S
C589 C590 1.523 . S
C590 C571 1.368 . S
C590 C584 1.368 . S
C590 C589 1.523 . S
C591 C575 1.429 . S
C591 C587 1.429 . S
C591 C592 1.523 . S
C592 C576 1.368 . S
C592 C588 1.368 . S
C592 C591 1.523 . S
H593 C568 0.950 . S
H594 C570 0.950 . S
H595 C571 0.949 . S
H596 C573 0.950 . S
H597 C575 0.950 . S
C598 C599 1.349 . S
C598 C600 1.327 . S
C598 H623 0.950 . S
C599 C598 1.349 . S
C599 C615 1.349 . S
C600 C598 1.327 . S
C600 C619 1.429 . S
C600 H624 0.950 . S
C601 C618 1.574 . S
C601 C620 1.368 . S
C601 H625 0.949 . S
H602 C606 0.949 . S
C603 C604 1.349 . S
C603 C605 1.327 . S
C603 H626 0.950 . S
C604 C603 1.349 . S
C604 C616 1.349 . S
C605 C603 1.327 . S
C605 C621 1.429 . S
C605 H627 0.950 . S
C606 H602 0.949 . S
C606 C614 1.574 . S
C606 C622 1.368 . S
H607 C615 0.950 . S
H608 C613 0.950 . S
H609 C614 0.949 . S
H610 C616 0.950 . S
H611 C617 0.950 . S
H612 C618 0.949 . S
C613 H608 0.950 . S
C613 C615 1.327 . S
C613 C619 1.429 . S
C614 C606 1.574 . S
C614 H609 0.949 . S
C614 C620 1.368 . S
C615 C599 1.349 . S
C615 H607 0.950 . S
C615 C613 1.327 . S
C616 C604 1.349 . S
C616 H610 0.950 . S
C616 C617 1.327 . S
C617 H611 0.950 . S
C617 C616 1.327 . S
C617 C621 1.429 . S
C618 C601 1.574 . S
C618 H612 0.949 . S
C618 C622 1.368 . S
C619 C600 1.429 . S
C619 C613 1.429 . S
C619 C620 1.523 . S
C620 C601 1.368 . S
C620 C614 1.368 . S
C620 C619 1.523 . S
C621 C605 1.429 . S
C621 C617 1.429 . S
C621 C622 1.523 . S
C622 C606 1.368 . S
C622 C618 1.368 . S
C622 C621 1.523 . S
H623 C598 0.950 . S
H624 C600 0.950 . S
H625 C601 0.949 . S
H626 C603 0.950 . S
H627 C605 0.950 . S
C628 C629 1.349 . S
C628 C630 1.327 . S
C628 H653 0.950 . S
C629 C628 1.349 . S
C629 C645 1.349 . S
C630 C628 1.327 . S
C630 C649 1.429 . S
C630 H654 0.950 . S
C631 C648 1.574 . S
C631 C650 1.368 . S
C631 H655 0.949 . S
H632 C636 0.949 . S
C633 C634 1.349 . S
C633 C635 1.327 . S
C633 H656 0.950 . S
C634 C633 1.349 . S
C634 C646 1.349 . S
C635 C633 1.327 . S
C635 C651 1.429 . S
C635 H657 0.950 . S
C636 H632 0.949 . S
C636 C644 1.574 . S
C636 C652 1.368 . S
H637 C645 0.950 . S
H638 C643 0.950 . S
H639 C644 0.949 . S
H640 C646 0.950 . S
H641 C647 0.950 . S
H642 C648 0.949 . S
C643 H638 0.950 . S
C643 C645 1.327 . S
C643 C649 1.429 . S
C644 C636 1.574 . S
C644 H639 0.949 . S
C644 C650 1.368 . S
C645 C629 1.349 . S
C645 H637 0.950 . S
C645 C643 1.327 . S
C646 C634 1.349 . S
C646 H640 0.950 . S
C646 C647 1.327 . S
C647 H641 0.950 . S
C647 C646 1.327 . S
C647 C651 1.429 . S
C648 C631 1.574 . S
C648 H642 0.949 . S
C648 C652 1.368 . S
C649 C630 1.429 . S
C649 C643 1.429 . S
C649 C650 1.523 . S
C650 C631 1.368 . S
C650 C644 1.368 . S
C650 C649 1.523 . S
C651 C635 1.429 . S
C651 C647 1.429 . S
C651 C652 1.523 . S
C652 C636 1.368 . S
C652 C648 1.368 . S
C652 C651 1.523 . S
H653 C628 0.950 . S
H654 C630 0.950 . S
H655 C631 0.949 . S
H656 C633 0.950 . S
H657 C635 0.950 . S
C658 C659 1.349 . S
C658 C660 1.327 . S
C658 H683 0.950 . S
C659 C658 1.349 . S
C659 C675 1.349 . S
C660 C658 1.327 . S
C660 C679 1.429 . S
C660 H684 0.950 . S
C661 C678 1.574 . S
C661 C680 1.368 . S
C661 H685 0.949 . S
H662 C666 0.949 . S
C663 C664 1.349 . S
C663 C665 1.327 . S
C663 H686 0.950 . S
C664 C663 1.349 . S
C664 C676 1.349 . S
C665 C663 1.327 . S
C665 C681 1.429 . S
C665 H687 0.950 . S
C666 H662 0.949 . S
C666 C674 1.574 . S
C666 C682 1.368 . S
H667 C675 0.950 . S
H668 C673 0.950 . S
H669 C674 0.949 . S
H670 C676 0.950 . S
H671 C677 0.950 . S
H672 C678 0.949 . S
C673 H668 0.950 . S
C673 C675 1.327 . S
C673 C679 1.429 . S
C674 C666 1.574 . S
C674 H669 0.949 . S
C674 C680 1.368 . S
C675 C659 1.349 . S
C675 H667 0.950 . S
C675 C673 1.327 . S
C676 C664 1.349 . S
C676 H670 0.950 . S
C676 C677 1.327 . S
C677 H671 0.950 . S
C677 C676 1.327 . S
C677 C681 1.429 . S
C678 C661 1.574 . S
C678 H672 0.949 . S
C678 C682 1.368 . S
C679 C660 1.429 . S
C679 C673 1.429 . S
C679 C680 1.523 . S
C680 C661 1.368 . S
C680 C674 1.368 . S
C680 C679 1.523 . S
C681 C665 1.429 . S
C681 C677 1.429 . S
C681 C682 1.523 . S
C682 C666 1.368 . S
C682 C678 1.368 . S
C682 C681 1.523 . S
H683 C658 0.950 . S
H684 C660 0.950 . S
H685 C661 0.949 . S
H686 C663 0.950 . S
H687 C665 0.950 . S
C688 C689 1.349 . S
C688 C690 1.327 . S
C688 H713 0.950 . S
C689 C688 1.349 . S
C689 C705 1.349 . S
C690 C688 1.327 . S
C690 C709 1.429 . S
C690 H714 0.950 . S
C691 C708 1.574 . S
C691 C710 1.368 . S
C691 H715 0.949 . S
H692 C696 0.949 . S
C693 C694 1.349 . S
C693 C695 1.327 . S
C693 H716 0.950 . S
C694 C693 1.349 . S
C694 C706 1.349 . S
C695 C693 1.327 . S
C695 C711 1.429 . S
C695 H717 0.950 . S
C696 H692 0.949 . S
C696 C704 1.574 . S
C696 C712 1.368 . S
H697 C705 0.950 . S
H698 C703 0.950 . S
H699 C704 0.949 . S
H700 C706 0.950 . S
H701 C707 0.950 . S
H702 C708 0.949 . S
C703 H698 0.950 . S
C703 C705 1.327 . S
C703 C709 1.429 . S
C704 C696 1.574 . S
C704 H699 0.949 . S
C704 C710 1.368 1_554 S
C705 C689 1.349 . S
C705 H697 0.950 . S
C705 C703 1.327 . S
C706 C694 1.349 . S
C706 H700 0.950 . S
C706 C707 1.327 . S
C707 H701 0.950 . S
C707 C706 1.327 . S
C707 C711 1.429 . S
C708 C691 1.574 . S
C708 H702 0.949 . S
C708 C712 1.368 1_556 S
C709 C690 1.429 . S
C709 C703 1.429 . S
C709 C710 1.523 . S
C710 C691 1.368 . S
C710 C704 1.368 1_556 S
C710 C709 1.523 . S
C711 C695 1.429 . S
C711 C707 1.429 . S
C711 C712 1.523 . S
C712 C696 1.368 . S
C712 C708 1.368 1_554 S
C712 C711 1.523 . S
H713 C688 0.950 . S
H714 C690 0.950 . S
H715 C691 0.949 . S
H716 C693 0.950 . S
H717 C695 0.950 . S
C718 C719 1.349 . S
C718 C720 1.327 . S
C718 H743 0.950 . S
C719 C718 1.349 . S
C719 C735 1.349 . S
C720 C718 1.327 . S
C720 C739 1.429 . S
C720 H744 0.950 . S
C721 C738 1.574 . S
C721 C740 1.368 . S
C721 H745 0.949 . S
H722 C726 0.949 . S
C723 C724 1.349 . S
C723 C725 1.327 . S
C723 H746 0.950 . S
C724 C723 1.349 . S
C724 C736 1.349 . S
C725 C723 1.327 . S
C725 C741 1.429 . S
C725 H747 0.950 . S
C726 H722 0.949 . S
C726 C734 1.574 . S
C726 C742 1.368 . S
H727 C735 0.950 . S
H728 C733 0.950 . S
H729 C734 0.949 . S
H730 C736 0.950 . S
H731 C737 0.950 . S
H732 C738 0.949 . S
C733 H728 0.950 . S
C733 C735 1.327 . S
C733 C739 1.429 . S
C734 C726 1.574 . S
C734 H729 0.949 . S
C734 C740 1.368 . S
C735 C719 1.349 . S
C735 H727 0.950 . S
C735 C733 1.327 . S
C736 C724 1.349 . S
C736 H730 0.950 . S
C736 C737 1.327 . S
C737 H731 0.950 . S
C737 C736 1.327 . S
C737 C741 1.429 . S
C738 C721 1.574 . S
C738 H732 0.949 . S
C738 C742 1.368 . S
C739 C720 1.429 . S
C739 C733 1.429 . S
C739 C740 1.523 . S
C740 C721 1.368 . S
C740 C734 1.368 . S
C740 C739 1.523 . S
C741 C725 1.429 . S
C741 C737 1.429 . S
C741 C742 1.523 . S
C742 C726 1.368 . S
C742 C738 1.368 . S
C742 C741 1.523 . S
H743 C718 0.950 . S
H744 C720 0.950 . S
H745 C721 0.949 . S
H746 C723 0.950 . S
H747 C725 0.950 . S
C748 C749 1.349 . S
C748 C750 1.327 . S
C748 H773 0.950 . S
C749 C748 1.349 . S
C749 C765 1.349 . S
C750 C748 1.327 . S
C750 C769 1.429 . S
C750 H774 0.950 . S
C751 C768 1.574 . S
C751 C770 1.368 1_556 S
C751 H775 0.949 . S
H752 C756 0.949 . S
C753 C754 1.349 . S
C753 C755 1.327 . S
C753 H776 0.950 . S
C754 C753 1.349 . S
C754 C766 1.349 . S
C755 C753 1.327 . S
C755 C771 1.429 . S
C755 H777 0.950 . S
C756 H752 0.949 . S
C756 C764 1.574 . S
C756 C772 1.368 1_554 S
H757 C765 0.950 . S
H758 C763 0.950 . S
H759 C764 0.949 . S
H760 C766 0.950 . S
H761 C767 0.950 1_554 S
H762 C768 0.949 . S
C763 H758 0.950 . S
C763 C765 1.327 . S
C763 C769 1.429 . S
C764 C756 1.574 . S
C764 H759 0.949 . S
C764 C770 1.368 . S
C765 C749 1.349 . S
C765 H757 0.950 . S
C765 C763 1.327 . S
C766 C754 1.349 . S
C766 H760 0.950 . S
C766 C767 1.327 . S
C767 H761 0.950 1_556 S
C767 C766 1.327 . S
C767 C771 1.429 . S
C768 C751 1.574 . S
C768 H762 0.949 . S
C768 C772 1.368 . S
C769 C750 1.429 . S
C769 C763 1.429 . S
C769 C770 1.523 . S
C770 C751 1.368 1_554 S
C770 C764 1.368 . S
C770 C769 1.523 . S
C771 C755 1.429 . S
C771 C767 1.429 . S
C771 C772 1.523 . S
C772 C756 1.368 1_556 S
C772 C768 1.368 . S
C772 C771 1.523 . S
H773 C748 0.950 . S
H774 C750 0.950 . S
H775 C751 0.949 . S
H776 C753 0.950 . S
H777 C755 0.950 . S
C778 C779 1.349 . S
C778 C780 1.327 . S
C778 H803 0.950 . S
C779 C778 1.349 . S
C779 C795 1.349 . S
C780 C778 1.327 . S
C780 C799 1.429 . S
C780 H804 0.950 . S
C781 C798 1.574 . S
C781 C800 1.368 . S
C781 H805 0.949 . S
H782 C786 0.949 . S
C783 C784 1.349 . S
C783 C785 1.327 . S
C783 H806 0.950 . S
C784 C783 1.349 . S
C784 C796 1.349 . S
C785 C783 1.327 . S
C785 C801 1.429 . S
C785 H807 0.950 . S
C786 H782 0.949 . S
C786 C794 1.574 . S
C786 C802 1.368 . S
H787 C795 0.950 . S
H788 C793 0.950 . S
H789 C794 0.949 . S
H790 C796 0.950 . S
H791 C797 0.950 . S
H792 C798 0.949 . S
C793 H788 0.950 . S
C793 C795 1.327 . S
C793 C799 1.429 . S
C794 C786 1.574 . S
C794 H789 0.949 . S
C794 C800 1.368 . S
C795 C779 1.349 . S
C795 H787 0.950 . S
C795 C793 1.327 . S
C796 C784 1.349 . S
C796 H790 0.950 . S
C796 C797 1.327 . S
C797 H791 0.950 . S
C797 C796 1.327 . S
C797 C801 1.429 . S
C798 C781 1.574 . S
C798 H792 0.949 . S
C798 C802 1.368 . S
C799 C780 1.429 . S
C799 C793 1.429 . S
C799 C800 1.523 . S
C800 C781 1.368 . S
C800 C794 1.368 . S
C800 C799 1.523 . S
C801 C785 1.429 . S
C801 C797 1.429 . S
C801 C802 1.523 . S
C802 C786 1.368 . S
C802 C798 1.368 . S
C802 C801 1.523 . S
H803 C778 0.950 . S
H804 C780 0.950 . S
H805 C781 0.949 . S
H806 C783 0.950 . S
H807 C785 0.950 . S
C808 C809 1.349 . S
C808 C810 1.327 . S
C808 H833 0.950 . S
C809 C808 1.349 . S
C809 C825 1.349 . S
C810 C808 1.327 . S
C810 C829 1.429 . S
C810 H834 0.950 . S
C811 C828 1.574 1_554 S
C811 C830 1.368 . S
C811 H835 0.949 . S
H812 C816 0.949 . S
C813 C814 1.349 . S
C813 C815 1.327 . S
C813 H836 0.950 . S
C814 C813 1.349 . S
C814 C826 1.349 . S
C815 C813 1.327 . S
C815 C831 1.429 . S
C815 H837 0.950 . S
C816 H812 0.949 . S
C816 C824 1.574 1_556 S
C816 C832 1.368 . S
H817 C825 0.950 . S
H818 C823 0.950 . S
H819 C824 0.949 . S
H820 C826 0.950 . S
H821 C827 0.950 . S
H822 C828 0.949 . S
C823 H818 0.950 . S
C823 C825 1.327 . S
C823 C829 1.429 . S
C824 C816 1.574 1_554 S
C824 H819 0.949 . S
C824 C830 1.368 . S
C825 C809 1.349 . S
C825 H817 0.950 . S
C825 C823 1.327 . S
C826 C814 1.349 . S
C826 H820 0.950 . S
C826 C827 1.327 . S
C827 H821 0.950 . S
C827 C826 1.327 . S
C827 C831 1.429 . S
C828 C811 1.574 1_556 S
C828 H822 0.949 . S
C828 C832 1.368 . S
C829 C810 1.429 . S
C829 C823 1.429 . S
C829 C830 1.523 . S
C830 C811 1.368 . S
C830 C824 1.368 . S
C830 C829 1.523 . S
C831 C815 1.429 . S
C831 C827 1.429 . S
C831 C832 1.523 . S
C832 C816 1.368 . S
C832 C828 1.368 . S
C832 C831 1.523 . S
H833 C808 0.950 . S
H834 C810 0.950 . S
H835 C811 0.949 . S
H836 C813 0.950 . S
H837 C815 0.950 . S
C838 C839 1.349 . S
C838 C840 1.327 . S
C838 H863 0.950 . S
C839 C838 1.349 . S
C839 C855 1.349 . S
C840 C838 1.327 . S
C840 C859 1.429 . S
C840 H864 0.950 . S
C841 C858 1.574 . S
C841 C860 1.368 . S
C841 H865 0.949 . S
H842 C846 0.949 . S
C843 C844 1.349 . S
C843 C845 1.327 . S
C843 H866 0.950 . S
C844 C843 1.349 . S
C844 C856 1.349 . S
C845 C843 1.327 . S
C845 C861 1.429 . S
C845 H867 0.950 . S
C846 H842 0.949 . S
C846 C854 1.574 . S
C846 C862 1.368 . S
H847 C855 0.950 . S
H848 C853 0.950 . S
H849 C854 0.949 . S
H850 C856 0.950 . S
H851 C857 0.950 . S
H852 C858 0.949 . S
C853 H848 0.950 . S
C853 C855 1.327 . S
C853 C859 1.429 . S
C854 C846 1.574 . S
C854 H849 0.949 . S
C854 C860 1.368 . S
C855 C839 1.349 . S
C855 H847 0.950 . S
C855 C853 1.327 . S
C856 C844 1.349 . S
C856 H850 0.950 . S
C856 C857 1.327 . S
C857 H851 0.950 . S
C857 C856 1.327 . S
C857 C861 1.429 . S
C858 C841 1.574 . S
C858 H852 0.949 . S
C858 C862 1.368 . S
C859 C840 1.429 . S
C859 C853 1.429 . S
C859 C860 1.523 . S
C860 C841 1.368 . S
C860 C854 1.368 . S
C860 C859 1.523 . S
C861 C845 1.429 . S
C861 C857 1.429 . S
C861 C862 1.523 . S
C862 C846 1.368 . S
C862 C858 1.368 . S
C862 C861 1.523 . S
H863 C838 0.950 . S
H864 C840 0.950 . S
H865 C841 0.949 . S
H866 C843 0.950 . S
H867 C845 0.950 . S
C868 C869 1.349 . S
C868 C870 1.327 . S
C868 H893 0.950 . S
C869 C868 1.349 . S
C869 C885 1.349 . S
C870 C868 1.327 . S
C870 C889 1.429 . S
C870 H894 0.950 . S
C871 C888 1.597 . S
C871 C890 1.368 . S
C871 H895 0.949 . S
H872 C876 0.949 . S
C873 C874 1.349 . S
C873 C875 1.327 . S
C873 H896 0.950 . S
C874 C873 1.349 . S
C874 C886 1.349 . S
C875 C873 1.327 . S
C875 C891 1.429 . S
C875 H897 0.950 . S
C876 H872 0.949 . S
C876 C884 1.574 1_556 S
C876 C892 1.368 . S
H877 C885 0.950 . S
H878 C883 0.950 . S
H879 C884 0.949 . S
H880 C886 0.950 . S
H881 C887 0.950 . S
H882 C888 0.947 1_556 S
C883 H878 0.950 . S
C883 C885 1.327 . S
C883 C889 1.429 . S
C884 C876 1.574 1_554 S
C884 H879 0.949 . S
C884 C890 1.368 . S
C885 C869 1.349 . S
C885 H877 0.950 . S
C885 C883 1.327 . S
C886 C874 1.349 . S
C886 H880 0.950 . S
C886 C887 1.327 . S
C887 H881 0.950 . S
C887 C886 1.327 . S
C887 C891 1.429 . S
C888 C871 1.597 . S
C888 H882 0.947 1_554 S
C888 C892 1.350 1_554 S
C889 C870 1.429 . S
C889 C883 1.429 . S
C889 C890 1.523 . S
C890 C871 1.368 . S
C890 C884 1.368 . S
C890 C889 1.523 . S
C891 C875 1.429 . S
C891 C887 1.429 . S
C891 C892 1.523 . S
C892 C876 1.368 . S
C892 C888 1.350 1_556 S
C892 C891 1.523 . S
H893 C868 0.950 . S
H894 C870 0.950 . S
H895 C871 0.949 . S
H896 C873 0.950 . S
H897 C875 0.950 . S
C898 C899 1.349 . S
C898 C900 1.327 . S
C898 H923 0.950 . S
C899 C898 1.349 . S
C899 C915 1.349 . S
C900 C898 1.327 . S
C900 C919 1.429 . S
C900 H924 0.950 . S
C901 C918 1.574 . S
C901 C920 1.368 . S
C901 H925 0.949 . S
H902 C906 0.949 . S
C903 C904 1.349 . S
C903 C905 1.327 . S
C903 H926 0.950 . S
C904 C903 1.349 . S
C904 C916 1.349 . S
C905 C903 1.327 . S
C905 C921 1.429 . S
C905 H927 0.950 . S
C906 H902 0.949 . S
C906 C914 1.574 . S
C906 C922 1.368 . S
H907 C915 0.950 . S
H908 C913 0.950 . S
H909 C914 0.949 . S
H910 C916 0.950 . S
H911 C917 0.950 . S
H912 C918 0.949 . S
C913 H908 0.950 . S
C913 C915 1.327 . S
C913 C919 1.429 . S
C914 C906 1.574 . S
C914 H909 0.949 . S
C914 C920 1.368 . S
C915 C899 1.349 . S
C915 H907 0.950 . S
C915 C913 1.327 . S
C916 C904 1.349 . S
C916 H910 0.950 . S
C916 C917 1.327 . S
C917 H911 0.950 . S
C917 C916 1.327 . S
C917 C921 1.429 . S
C918 C901 1.574 . S
C918 H912 0.949 . S
C918 C922 1.368 . S
C919 C900 1.429 . S
C919 C913 1.429 . S
C919 C920 1.523 . S
C920 C901 1.368 . S
C920 C914 1.368 . S
C920 C919 1.523 . S
C921 C905 1.429 . S
C921 C917 1.429 . S
C921 C922 1.523 . S
C922 C906 1.368 . S
C922 C918 1.368 . S
C922 C921 1.523 . S
H923 C898 0.950 . S
H924 C900 0.950 . S
H925 C901 0.949 . S
H926 C903 0.950 . S
H927 C905 0.950 . S
C928 C929 1.349 . S
C928 C930 1.327 . S
C928 H953 0.950 . S
C929 C928 1.349 . S
C929 C945 1.349 . S
C930 C928 1.327 . S
C930 C949 1.429 . S
C930 H954 0.950 . S
C931 C948 1.574 . S
C931 C950 1.368 1_554 S
C931 H955 0.949 . S
H932 C936 0.949 . S
C933 C934 1.349 . S
C933 C935 1.327 . S
C933 H956 0.950 . S
C934 C933 1.349 . S
C934 C946 1.349 . S
C935 C933 1.327 . S
C935 C951 1.429 . S
C935 H957 0.950 . S
C936 H932 0.949 . S
C936 C944 1.574 . S
C936 C952 1.368 1_556 S
H937 C945 0.950 . S
H938 C943 0.950 1_554 S
H939 C944 0.949 . S
H940 C946 0.950 . S
H941 C947 0.950 1_556 S
H942 C948 0.949 . S
C943 H938 0.950 1_556 S
C943 C945 1.327 . S
C943 C949 1.429 . S
C944 C936 1.574 . S
C944 H939 0.949 . S
C944 C950 1.368 . S
C945 C929 1.349 . S
C945 H937 0.950 . S
C945 C943 1.327 . S
C946 C934 1.349 . S
C946 H940 0.950 . S
C946 C947 1.327 . S
C947 H941 0.950 1_554 S
C947 C946 1.327 . S
C947 C951 1.429 . S
C948 C931 1.574 . S
C948 H942 0.949 . S
C948 C952 1.368 . S
C949 C930 1.429 . S
C949 C943 1.429 . S
C949 C950 1.523 . S
C950 C931 1.368 1_556 S
C950 C944 1.368 . S
C950 C949 1.523 . S
C951 C935 1.429 . S
C951 C947 1.429 . S
C951 C952 1.523 . S
C952 C936 1.368 1_554 S
C952 C948 1.368 . S
C952 C951 1.523 . S
H953 C928 0.950 . S
H954 C930 0.950 . S
H955 C931 0.949 . S
H956 C933 0.950 . S
H957 C935 0.950 . S
C958 C959 1.349 . S
C958 C960 1.327 . S
C958 H983 0.950 . S
C959 C958 1.349 . S
C959 C975 1.349 . S
C960 C958 1.327 . S
C960 C979 1.429 . S
C960 H984 0.950 . S
C961 C978 1.574 . S
C961 C980 1.368 . S
C961 H985 0.949 . S
H962 C966 0.949 . S
C963 C964 1.349 . S
C963 C965 1.327 . S
C963 H986 0.950 . S
C964 C963 1.349 . S
C964 C976 1.349 . S
C965 C963 1.327 . S
C965 C981 1.429 . S
C965 H987 0.950 . S
C966 H962 0.949 . S
C966 C974 1.574 . S
C966 C982 1.368 . S
H967 C975 0.950 . S
H968 C973 0.950 . S
H969 C974 0.949 . S
H970 C976 0.950 . S
H971 C977 0.950 . S
H972 C978 0.949 . S
C973 H968 0.950 . S
C973 C975 1.327 . S
C973 C979 1.429 . S
C974 C966 1.574 . S
C974 H969 0.949 . S
C974 C980 1.368 . S
C975 C959 1.349 . S
C975 H967 0.950 . S
C975 C973 1.327 . S
C976 C964 1.349 . S
C976 H970 0.950 . S
C976 C977 1.327 . S
C977 H971 0.950 . S
C977 C976 1.327 . S
C977 C981 1.429 . S
C978 C961 1.574 . S
C978 H972 0.949 . S
C978 C982 1.368 . S
C979 C960 1.429 . S
C979 C973 1.429 . S
C979 C980 1.523 . S
C980 C961 1.368 . S
C980 C974 1.368 . S
C980 C979 1.523 . S
C981 C965 1.429 . S
C981 C977 1.429 . S
C981 C982 1.523 . S
C982 C966 1.368 . S
C982 C978 1.368 . S
C982 C981 1.523 . S
H983 C958 0.950 . S
H984 C960 0.950 . S
H985 C961 0.949 . S
H986 C963 0.950 . S
H987 C965 0.950 . S
C988 C989 1.349 . S
C988 C990 1.327 . S
C988 H1013 0.950 . S
C989 C988 1.349 . S
C989 C1005 1.349 . S
C990 C988 1.327 . S
C990 C1009 1.429 . S
C990 H1014 0.950 . S
C991 C1008 1.574 . S
C991 C1010 1.368 . S
C991 H1015 0.949 . S
H992 C996 0.949 . S
C993 C994 1.349 . S
C993 C995 1.327 . S
C993 H1016 0.950 . S
C994 C993 1.349 . S
C994 C1006 1.349 . S
C995 C993 1.327 . S
C995 C1011 1.429 . S
C995 H1017 0.950 . S
C996 H992 0.949 . S
C996 C1004 1.574 . S
C996 C1012 1.368 . S
H997 C1005 0.950 . S
H998 C1003 0.950 . S
H999 C1004 0.949 . S
H1000 C1006 0.950 . S
H1001 C1007 0.950 . S
H1002 C1008 0.949 . S
C1003 H998 0.950 . S
C1003 C1005 1.327 . S
C1003 C1009 1.429 . S
C1004 C996 1.574 . S
C1004 H999 0.949 . S
C1004 C1010 1.368 1_556 S
C1005 C989 1.349 . S
C1005 H997 0.950 . S
C1005 C1003 1.327 . S
C1006 C994 1.349 . S
C1006 H1000 0.950 . S
C1006 C1007 1.327 . S
C1007 H1001 0.950 . S
C1007 C1006 1.327 . S
C1007 C1011 1.429 . S
C1008 C991 1.574 . S
C1008 H1002 0.949 . S
C1008 C1012 1.368 1_554 S
C1009 C990 1.429 . S
C1009 C1003 1.429 . S
C1009 C1010 1.523 . S
C1010 C991 1.368 . S
C1010 C1004 1.368 1_554 S
C1010 C1009 1.523 . S
C1011 C995 1.429 . S
C1011 C1007 1.429 . S
C1011 C1012 1.523 . S
C1012 C996 1.368 . S
C1012 C1008 1.368 1_556 S
C1012 C1011 1.523 . S
H1013 C988 0.950 . S
H1014 C990 0.950 . S
H1015 C991 0.949 . S
H1016 C993 0.950 . S
H1017 C995 0.950 . S
C1018 C1019 1.349 . S
C1018 C1020 1.327 . S
C1018 H1043 0.950 . S
C1019 C1018 1.349 . S
C1019 C1035 1.349 . S
C1020 C1018 1.327 . S
C1020 C1039 1.429 . S
C1020 H1044 0.950 . S
C1021 C1038 1.574 . S
C1021 C1040 1.368 . S
C1021 H1045 0.949 . S
H1022 C1026 0.949 . S
C1023 C1024 1.349 . S
C1023 C1025 1.327 . S
C1023 H1046 0.950 . S
C1024 C1023 1.349 . S
C1024 C1036 1.349 . S
C1025 C1023 1.327 . S
C1025 C1041 1.429 . S
C1025 H1047 0.950 . S
C1026 H1022 0.949 . S
C1026 C1034 1.574 . S
C1026 C1042 1.368 . S
H1027 C1035 0.950 . S
H1028 C1033 0.950 . S
H1029 C1034 0.949 . S
H1030 C1036 0.950 . S
H1031 C1037 0.950 . S
H1032 C1038 0.949 . S
C1033 H1028 0.950 . S
C1033 C1035 1.327 . S
C1033 C1039 1.429 . S
C1034 C1026 1.574 . S
C1034 H1029 0.949 . S
C1034 C1040 1.368 . S
C1035 C1019 1.349 . S
C1035 H1027 0.950 . S
C1035 C1033 1.327 . S
C1036 C1024 1.349 . S
C1036 H1030 0.950 . S
C1036 C1037 1.327 . S
C1037 H1031 0.950 . S
C1037 C1036 1.327 . S
C1037 C1041 1.429 . S
C1038 C1021 1.574 . S
C1038 H1032 0.949 . S
C1038 C1042 1.368 . S
C1039 C1020 1.429 . S
C1039 C1033 1.429 . S
C1039 C1040 1.523 . S
C1040 C1021 1.368 . S
C1040 C1034 1.368 . S
C1040 C1039 1.523 . S
C1041 C1025 1.429 . S
C1041 C1037 1.429 . S
C1041 C1042 1.523 . S
C1042 C1026 1.368 . S
C1042 C1038 1.368 . S
C1042 C1041 1.523 . S
H1043 C1018 0.950 . S
H1044 C1020 0.950 . S
H1045 C1021 0.949 . S
H1046 C1023 0.950 . S
H1047 C1025 0.950 . S
C1048 C1049 1.349 . S
C1048 C1050 1.327 . S
C1048 H1073 0.950 . S
C1049 C1048 1.349 . S
C1049 C1065 1.349 . S
C1050 C1048 1.327 . S
C1050 C1069 1.429 . S
C1050 H1074 0.950 . S
C1051 C1068 1.574 1_545 S
C1051 C1070 1.368 1_554 S
C1051 H1075 0.949 . S
H1052 C1056 0.949 . S
C1053 C1054 1.349 . S
C1053 C1055 1.327 . S
C1053 H1076 0.950 . S
C1054 C1053 1.349 . S
C1054 C1066 1.349 . S
C1055 C1053 1.327 . S
C1055 C1071 1.429 . S
C1055 H1077 0.950 . S
C1056 H1052 0.949 . S
C1056 C1064 1.574 1_565 S
C1056 C1072 1.368 1_556 S
H1057 C1065 0.950 . S
H1058 C1063 0.950 1_554 S
H1059 C1064 0.949 . S
H1060 C1066 0.950 . S
H1061 C1067 0.950 1_556 S
H1062 C1068 0.949 . S
C1063 H1058 0.950 1_556 S
C1063 C1065 1.327 . S
C1063 C1069 1.429 . S
C1064 C1056 1.574 1_545 S
C1064 H1059 0.949 . S
C1064 C1070 1.368 . S
C1065 C1049 1.349 . S
C1065 H1057 0.950 . S
C1065 C1063 1.327 . S
C1066 C1054 1.349 . S
C1066 H1060 0.950 . S
C1066 C1067 1.327 . S
C1067 H1061 0.950 1_554 S
C1067 C1066 1.327 . S
C1067 C1071 1.429 . S
C1068 C1051 1.574 1_565 S
C1068 H1062 0.949 . S
C1068 C1072 1.368 . S
C1069 C1050 1.429 . S
C1069 C1063 1.429 . S
C1069 C1070 1.523 . S
C1070 C1051 1.368 1_556 S
C1070 C1064 1.368 . S
C1070 C1069 1.523 . S
C1071 C1055 1.429 . S
C1071 C1067 1.429 . S
C1071 C1072 1.523 . S
C1072 C1056 1.368 1_554 S
C1072 C1068 1.368 . S
C1072 C1071 1.523 . S
H1073 C1048 0.950 . S
H1074 C1050 0.950 . S
H1075 C1051 0.949 . S
H1076 C1053 0.950 . S
H1077 C1055 0.950 . S
C1078 C1079 1.349 . S
C1078 C1080 1.327 . S
C1078 H1103 0.950 . S
C1079 C1078 1.349 . S
C1079 C1095 1.349 . S
C1080 C1078 1.327 . S
C1080 C1099 1.429 . S
C1080 H1104 0.950 . S
C1081 C1098 1.574 1_565 S
C1081 C1100 1.368 . S
C1081 H1105 0.949 . S
H1082 C1086 0.949 . S
C1083 C1084 1.349 . S
C1083 C1085 1.327 . S
C1083 H1106 0.950 . S
C1084 C1083 1.349 . S
C1084 C1096 1.349 . S
C1085 C1083 1.327 . S
C1085 C1101 1.429 . S
C1085 H1107 0.950 . S
C1086 H1082 0.949 . S
C1086 C1094 1.574 1_545 S
C1086 C1102 1.368 . S
H1087 C1095 0.950 . S
H1088 C1093 0.950 . S
H1089 C1094 0.949 . S
H1090 C1096 0.950 . S
H1091 C1097 0.950 . S
H1092 C1098 0.949 . S
C1093 H1088 0.950 . S
C1093 C1095 1.327 . S
C1093 C1099 1.429 . S
C1094 C1086 1.574 1_565 S
C1094 H1089 0.949 . S
C1094 C1100 1.368 . S
C1095 C1079 1.349 . S
C1095 H1087 0.950 . S
C1095 C1093 1.327 . S
C1096 C1084 1.349 . S
C1096 H1090 0.950 . S
C1096 C1097 1.327 . S
C1097 H1091 0.950 . S
C1097 C1096 1.327 . S
C1097 C1101 1.429 . S
C1098 C1081 1.574 1_545 S
C1098 H1092 0.949 . S
C1098 C1102 1.368 . S
C1099 C1080 1.429 . S
C1099 C1093 1.429 . S
C1099 C1100 1.523 . S
C1100 C1081 1.368 . S
C1100 C1094 1.368 . S
C1100 C1099 1.523 . S
C1101 C1085 1.429 . S
C1101 C1097 1.429 . S
C1101 C1102 1.523 . S
C1102 C1086 1.368 . S
C1102 C1098 1.368 . S
C1102 C1101 1.523 . S
H1103 C1078 0.950 . S
H1104 C1080 0.950 . S
H1105 C1081 0.949 . S
H1106 C1083 0.950 . S
H1107 C1085 0.950 . S
C1108 C1109 1.349 . S
C1108 C1110 1.327 . S
C1108 H1133 0.950 . S
C1109 C1108 1.349 . S
C1109 C1125 1.349 . S
C1110 C1108 1.327 . S
C1110 C1129 1.429 . S
C1110 H1134 0.951 1_554 S
C1111 C1128 1.574 1_565 S
C1111 C1130 1.368 . S
C1111 H1135 0.949 . S
H1112 C1116 0.949 . S
C1113 C1114 1.349 . S
C1113 C1115 1.327 . S
C1113 H1136 0.950 . S
C1114 C1113 1.349 . S
C1114 C1126 1.349 . S
C1115 C1113 1.327 . S
C1115 C1131 1.429 . S
C1115 H1137 0.951 1_556 S
C1116 H1112 0.949 . S
C1116 C1124 1.574 1_545 S
C1116 C1132 1.368 . S
H1117 C1125 0.950 . S
H1118 C1123 0.950 . S
H1119 C1124 0.949 . S
H1120 C1126 0.950 . S
H1121 C1127 0.950 . S
H1122 C1128 0.949 . S
C1123 H1118 0.950 . S
C1123 C1125 1.327 . S
C1123 C1129 1.429 . S
C1124 C1116 1.574 1_565 S
C1124 H1119 0.949 . S
C1124 C1130 1.368 1_556 S
C1125 C1109 1.349 . S
C1125 H1117 0.950 . S
C1125 C1123 1.327 . S
C1126 C1114 1.349 . S
C1126 H1120 0.950 . S
C1126 C1127 1.327 . S
C1127 H1121 0.950 . S
C1127 C1126 1.327 . S
C1127 C1131 1.429 . S
C1128 C1111 1.574 1_545 S
C1128 H1122 0.949 . S
C1128 C1132 1.368 1_554 S
C1129 C1110 1.429 . S
C1129 C1123 1.429 . S
C1129 C1130 1.523 . S
C1130 C1111 1.368 . S
C1130 C1124 1.368 1_554 S
C1130 C1129 1.523 . S
C1131 C1115 1.429 . S
C1131 C1127 1.429 . S
C1131 C1132 1.523 . S
C1132 C1116 1.368 . S
C1132 C1128 1.368 1_556 S
C1132 C1131 1.523 . S
H1133 C1108 0.950 . S
H1134 C1110 0.951 1_556 S
H1135 C1111 0.949 . S
H1136 C1113 0.950 . S
H1137 C1115 0.951 1_554 S
C1138 C1139 1.349 . S
C1138 C1140 1.327 . S
C1138 H1163 0.950 . S
C1139 C1138 1.349 . S
C1139 C1155 1.349 . S
C1140 C1138 1.327 . S
C1140 C1159 1.429 . S
C1140 H1164 0.950 . S
C1141 C1158 1.574 1_545 S
C1141 C1160 1.368 . S
C1141 H1165 0.949 . S
H1142 C1146 0.949 . S
C1143 C1144 1.349 . S
C1143 C1145 1.327 . S
C1143 H1166 0.950 . S
C1144 C1143 1.349 . S
C1144 C1156 1.349 . S
C1145 C1143 1.327 . S
C1145 C1161 1.429 . S
C1145 H1167 0.950 . S
C1146 H1142 0.949 . S
C1146 C1154 1.574 1_565 S
C1146 C1162 1.368 . S
H1147 C1155 0.950 . S
H1148 C1153 0.950 . S
H1149 C1154 0.949 . S
H1150 C1156 0.950 . S
H1151 C1157 0.950 . S
H1152 C1158 0.949 . S
C1153 H1148 0.950 . S
C1153 C1155 1.327 . S
C1153 C1159 1.429 . S
C1154 C1146 1.574 1_545 S
C1154 H1149 0.949 . S
C1154 C1160 1.368 . S
C1155 C1139 1.349 . S
C1155 H1147 0.950 . S
C1155 C1153 1.327 . S
C1156 C1144 1.349 . S
C1156 H1150 0.950 . S
C1156 C1157 1.327 . S
C1157 H1151 0.950 . S
C1157 C1156 1.327 . S
C1157 C1161 1.429 . S
C1158 C1141 1.574 1_565 S
C1158 H1152 0.949 . S
C1158 C1162 1.368 . S
C1159 C1140 1.429 . S
C1159 C1153 1.429 . S
C1159 C1160 1.523 . S
C1160 C1141 1.368 . S
C1160 C1154 1.368 . S
C1160 C1159 1.523 . S
C1161 C1145 1.429 . S
C1161 C1157 1.429 . S
C1161 C1162 1.523 . S
C1162 C1146 1.368 . S
C1162 C1158 1.368 . S
C1162 C1161 1.523 . S
H1163 C1138 0.950 . S
H1164 C1140 0.950 . S
H1165 C1141 0.949 . S
H1166 C1143 0.950 . S
H1167 C1145 0.950 . S
C209 C3 1.448 . S
C214 C83 1.447 . S
C239 C16 1.448 . S
C244 C96 1.447 . S
C269 C55 1.447 . S
C274 C31 1.448 . S
C299 C70 1.447 . S
C304 C44 1.448 . S
C329 C187 1.447 . S
C334 C109 1.448 . S
C359 C200 1.447 . S
C364 C120 1.448 . S
C389 C135 1.448 . S
C394 C161 1.447 . S
C419 C146 1.448 . S
C424 C174 1.447 . S
C449 C4 1.554 . S
C454 C68 1.554 . S
C479 C17 1.554 . S
C484 C57 1.554 . S
C509 C36 1.554 . S
C514 C94 1.554 . S
C539 C81 1.554 . S
C544 C49 1.554 . S
C569 C172 1.554 . S
C574 C114 1.554 . S
C599 C159 1.554 . S
C604 C121 1.554 . S
C629 C140 1.554 . S
C634 C198 1.554 . S
C659 C185 1.554 . S
C664 C147 1.554 . S
C689 C160 1.458 . S
C694 C10 1.459 . S
C719 C23 1.459 . S
C724 C173 1.458 . S
C749 C186 1.457 . S
C754 C30 1.459 . S
C779 C199 1.457 . S
C784 C43 1.459 . S
C809 C108 1.459 . S
C814 C62 1.457 . S
C839 C127 1.459 . S
C844 C69 1.457 . S
C869 C82 1.458 . S
C874 C134 1.459 . S
C899 C95 1.458 . S
C904 C153 1.459 . S
C929 C29 1.779 . S
C934 C5 1.779 . S
C959 C18 1.779 . S
C964 C42 1.779 . S
C989 C88 1.304 . S
C994 C56 1.305 . S
C1019 C75 1.304 . S
C1024 C101 1.304 . S
C1049 C133 1.779 . S
C1054 C107 1.779 . S
C1079 C148 1.779 . S
C1084 C122 1.779 . S
C1109 C192 1.304 . S
C1114 C166 1.304 . S
C1139 C205 1.304 . S
C1144 C179 1.304 . S
