# Generated by pormake.
# Topology soh, (5)-cn, num edge types: 1
# Building blocks:
#     Node 0, Type 0, BuildingBlock: BEQFEK_clean_sbu_0, # of connection points: 5
#     Node 1, Type 0, BuildingBlock: BEQFEK_clean_sbu_0, # of connection points: 5
#     Node 2, Type 0, BuildingBlock: BEQFEK_clean_sbu_0, # of connection points: 5
#     Node 3, Type 0, BuildingBlock: BEQFEK_clean_sbu_0, # of connection points: 5
#     Node 4, Type 0, BuildingBlock: BEQFEK_clean_sbu_0, # of connection points: 5
#     Node 5, Type 0, BuildingBlock: BEQFEK_clean_sbu_0, # of connection points: 5
#     Node 6, Type 0, BuildingBlock: BEQFEK_clean_sbu_0, # of connection points: 5
#     Node 7, Type 0, BuildingBlock: BEQFEK_clean_sbu_0, # of connection points: 5
#     Node 8, Type 0, BuildingBlock: BEQFEK_clean_sbu_0, # of connection points: 5
#     Node 9, Type 0, BuildingBlock: BEQFEK_clean_sbu_0, # of connection points: 5
#     Node 10, Type 0, BuildingBlock: BEQFEK_clean_sbu_0, # of connection points: 5
#     Node 11, Type 0, BuildingBlock: BEQFEK_clean_sbu_0, # of connection points: 5
#     Node 12, Type 0, BuildingBlock: BEQFEK_clean_sbu_0, # of connection points: 5
#     Node 13, Type 0, BuildingBlock: BEQFEK_clean_sbu_0, # of connection points: 5
#     Node 14, Type 0, BuildingBlock: BEQFEK_clean_sbu_0, # of connection points: 5
#     Node 15, Type 0, BuildingBlock: BEQFEK_clean_sbu_0, # of connection points: 5
#     Node 16, Type 0, BuildingBlock: BEQFEK_clean_sbu_0, # of connection points: 5
#     Node 17, Type 0, BuildingBlock: BEQFEK_clean_sbu_0, # of connection points: 5
#     Node 18, Type 0, BuildingBlock: BEQFEK_clean_sbu_0, # of connection points: 5
#     Node 19, Type 0, BuildingBlock: BEQFEK_clean_sbu_0, # of connection points: 5
#     Node 20, Type 0, BuildingBlock: BEQFEK_clean_sbu_0, # of connection points: 5
#     Node 21, Type 0, BuildingBlock: BEQFEK_clean_sbu_0, # of connection points: 5
#     Node 22, Type 0, BuildingBlock: BEQFEK_clean_sbu_0, # of connection points: 5
#     Node 23, Type 0, BuildingBlock: BEQFEK_clean_sbu_0, # of connection points: 5
#     Node 24, Type 0, BuildingBlock: BEQFEK_clean_sbu_0, # of connection points: 5
#     Node 25, Type 0, BuildingBlock: BEQFEK_clean_sbu_0, # of connection points: 5
#     Node 26, Type 0, BuildingBlock: BEQFEK_clean_sbu_0, # of connection points: 5
#     Node 27, Type 0, BuildingBlock: BEQFEK_clean_sbu_0, # of connection points: 5
#     Node 28, Type 0, BuildingBlock: BEQFEK_clean_sbu_0, # of connection points: 5
#     Node 29, Type 0, BuildingBlock: BEQFEK_clean_sbu_0, # of connection points: 5
#     Node 30, Type 0, BuildingBlock: BEQFEK_clean_sbu_0, # of connection points: 5
#     Node 31, Type 0, BuildingBlock: BEQFEK_clean_sbu_0, # of connection points: 5
#     Edge 32, Type (0, 0), BuildingBlock: OJICUG_clean_linker_0, # of connection points: 2
#     Edge 33, Type (0, 0), BuildingBlock: OJICUG_clean_linker_0, # of connection points: 2
#     Edge 34, Type (0, 0), BuildingBlock: OJICUG_clean_linker_0, # of connection points: 2
#     Edge 35, Type (0, 0), BuildingBlock: OJICUG_clean_linker_0, # of connection points: 2
#     Edge 36, Type (0, 0), BuildingBlock: OJICUG_clean_linker_0, # of connection points: 2
#     Edge 37, Type (0, 0), BuildingBlock: OJICUG_clean_linker_0, # of connection points: 2
#     Edge 38, Type (0, 0), BuildingBlock: OJICUG_clean_linker_0, # of connection points: 2
#     Edge 39, Type (0, 0), BuildingBlock: OJICUG_clean_linker_0, # of connection points: 2
#     Edge 40, Type (0, 0), BuildingBlock: OJICUG_clean_linker_0, # of connection points: 2
#     Edge 41, Type (0, 0), BuildingBlock: OJICUG_clean_linker_0, # of connection points: 2
#     Edge 42, Type (0, 0), BuildingBlock: OJICUG_clean_linker_0, # of connection points: 2
#     Edge 43, Type (0, 0), BuildingBlock: OJICUG_clean_linker_0, # of connection points: 2
#     Edge 44, Type (0, 0), BuildingBlock: OJICUG_clean_linker_0, # of connection points: 2
#     Edge 45, Type (0, 0), BuildingBlock: OJICUG_clean_linker_0, # of connection points: 2
#     Edge 46, Type (0, 0), BuildingBlock: OJICUG_clean_linker_0, # of connection points: 2
#     Edge 47, Type (0, 0), BuildingBlock: OJICUG_clean_linker_0, # of connection points: 2
#     Edge 48, Type (0, 0), BuildingBlock: OJICUG_clean_linker_0, # of connection points: 2
#     Edge 49, Type (0, 0), BuildingBlock: OJICUG_clean_linker_0, # of connection points: 2
#     Edge 50, Type (0, 0), BuildingBlock: OJICUG_clean_linker_0, # of connection points: 2
#     Edge 51, Type (0, 0), BuildingBlock: OJICUG_clean_linker_0, # of connection points: 2
#     Edge 52, Type (0, 0), BuildingBlock: OJICUG_clean_linker_0, # of connection points: 2
#     Edge 53, Type (0, 0), BuildingBlock: OJICUG_clean_linker_0, # of connection points: 2
#     Edge 54, Type (0, 0), BuildingBlock: OJICUG_clean_linker_0, # of connection points: 2
#     Edge 55, Type (0, 0), BuildingBlock: OJICUG_clean_linker_0, # of connection points: 2
#     Edge 56, Type (0, 0), BuildingBlock: OJICUG_clean_linker_0, # of connection points: 2
#     Edge 57, Type (0, 0), BuildingBlock: OJICUG_clean_linker_0, # of connection points: 2
#     Edge 58, Type (0, 0), BuildingBlock: OJICUG_clean_linker_0, # of connection points: 2
#     Edge 59, Type (0, 0), BuildingBlock: OJICUG_clean_linker_0, # of connection points: 2
#     Edge 60, Type (0, 0), BuildingBlock: OJICUG_clean_linker_0, # of connection points: 2
#     Edge 61, Type (0, 0), BuildingBlock: OJICUG_clean_linker_0, # of connection points: 2
#     Edge 62, Type (0, 0), BuildingBlock: OJICUG_clean_linker_0, # of connection points: 2
#     Edge 63, Type (0, 0), BuildingBlock: OJICUG_clean_linker_0, # of connection points: 2
#     Edge 64, Type (0, 0), BuildingBlock: OJICUG_clean_linker_0, # of connection points: 2
#     Edge 65, Type (0, 0), BuildingBlock: OJICUG_clean_linker_0, # of connection points: 2
#     Edge 66, Type (0, 0), BuildingBlock: OJICUG_clean_linker_0, # of connection points: 2
#     Edge 67, Type (0, 0), BuildingBlock: OJICUG_clean_linker_0, # of connection points: 2
#     Edge 68, Type (0, 0), BuildingBlock: OJICUG_clean_linker_0, # of connection points: 2
#     Edge 69, Type (0, 0), BuildingBlock: OJICUG_clean_linker_0, # of connection points: 2
#     Edge 70, Type (0, 0), BuildingBlock: OJICUG_clean_linker_0, # of connection points: 2
#     Edge 71, Type (0, 0), BuildingBlock: OJICUG_clean_linker_0, # of connection points: 2
#     Edge 72, Type (0, 0), BuildingBlock: OJICUG_clean_linker_0, # of connection points: 2
#     Edge 73, Type (0, 0), BuildingBlock: OJICUG_clean_linker_0, # of connection points: 2
#     Edge 74, Type (0, 0), BuildingBlock: OJICUG_clean_linker_0, # of connection points: 2
#     Edge 75, Type (0, 0), BuildingBlock: OJICUG_clean_linker_0, # of connection points: 2
#     Edge 76, Type (0, 0), BuildingBlock: OJICUG_clean_linker_0, # of connection points: 2
#     Edge 77, Type (0, 0), BuildingBlock: OJICUG_clean_linker_0, # of connection points: 2
#     Edge 78, Type (0, 0), BuildingBlock: OJICUG_clean_linker_0, # of connection points: 2
#     Edge 79, Type (0, 0), BuildingBlock: OJICUG_clean_linker_0, # of connection points: 2
#     Edge 80, Type (0, 0), BuildingBlock: OJICUG_clean_linker_0, # of connection points: 2
#     Edge 81, Type (0, 0), BuildingBlock: OJICUG_clean_linker_0, # of connection points: 2
#     Edge 82, Type (0, 0), BuildingBlock: OJICUG_clean_linker_0, # of connection points: 2
#     Edge 83, Type (0, 0), BuildingBlock: OJICUG_clean_linker_0, # of connection points: 2
#     Edge 84, Type (0, 0), BuildingBlock: OJICUG_clean_linker_0, # of connection points: 2
#     Edge 85, Type (0, 0), BuildingBlock: OJICUG_clean_linker_0, # of connection points: 2
#     Edge 86, Type (0, 0), BuildingBlock: OJICUG_clean_linker_0, # of connection points: 2
#     Edge 87, Type (0, 0), BuildingBlock: OJICUG_clean_linker_0, # of connection points: 2
#     Edge 88, Type (0, 0), BuildingBlock: OJICUG_clean_linker_0, # of connection points: 2
#     Edge 89, Type (0, 0), BuildingBlock: OJICUG_clean_linker_0, # of connection points: 2
#     Edge 90, Type (0, 0), BuildingBlock: OJICUG_clean_linker_0, # of connection points: 2
#     Edge 91, Type (0, 0), BuildingBlock: OJICUG_clean_linker_0, # of connection points: 2
#     Edge 92, Type (0, 0), BuildingBlock: OJICUG_clean_linker_0, # of connection points: 2
#     Edge 93, Type (0, 0), BuildingBlock: OJICUG_clean_linker_0, # of connection points: 2
#     Edge 94, Type (0, 0), BuildingBlock: OJICUG_clean_linker_0, # of connection points: 2
#     Edge 95, Type (0, 0), BuildingBlock: OJICUG_clean_linker_0, # of connection points: 2
#     Edge 96, Type (0, 0), BuildingBlock: OJICUG_clean_linker_0, # of connection points: 2
#     Edge 97, Type (0, 0), BuildingBlock: OJICUG_clean_linker_0, # of connection points: 2
#     Edge 98, Type (0, 0), BuildingBlock: OJICUG_clean_linker_0, # of connection points: 2
#     Edge 99, Type (0, 0), BuildingBlock: OJICUG_clean_linker_0, # of connection points: 2
#     Edge 100, Type (0, 0), BuildingBlock: OJICUG_clean_linker_0, # of connection points: 2
#     Edge 101, Type (0, 0), BuildingBlock: OJICUG_clean_linker_0, # of connection points: 2
#     Edge 102, Type (0, 0), BuildingBlock: OJICUG_clean_linker_0, # of connection points: 2
#     Edge 103, Type (0, 0), BuildingBlock: OJICUG_clean_linker_0, # of connection points: 2
#     Edge 104, Type (0, 0), BuildingBlock: OJICUG_clean_linker_0, # of connection points: 2
#     Edge 105, Type (0, 0), BuildingBlock: OJICUG_clean_linker_0, # of connection points: 2
#     Edge 106, Type (0, 0), BuildingBlock: OJICUG_clean_linker_0, # of connection points: 2
#     Edge 107, Type (0, 0), BuildingBlock: OJICUG_clean_linker_0, # of connection points: 2
#     Edge 108, Type (0, 0), BuildingBlock: OJICUG_clean_linker_0, # of connection points: 2
#     Edge 109, Type (0, 0), BuildingBlock: OJICUG_clean_linker_0, # of connection points: 2
#     Edge 110, Type (0, 0), BuildingBlock: OJICUG_clean_linker_0, # of connection points: 2
#     Edge 111, Type (0, 0), BuildingBlock: OJICUG_clean_linker_0, # of connection points: 2
# Relax obj value: 0.494
# Max RMSD: 0.193
# Mean RMSD: 0.193
data_MOF--net-soh--node1-BEQFEK_clean_sbu_0--edge1-OJICUG_clean_linker_0
_symmetry_space_group_name_H-M    P1
_symmetry_Int_Tables_number       1
_symmetry_cell_setting            triclinic
loop_
_symmetry_equiv_pos_as_xyz
'x, y, z'
_cell_length_a     55.382262
_cell_length_b     30.162588
_cell_length_c     36.113565
_cell_angle_alpha  90.000212
_cell_angle_beta   89.999899
_cell_angle_gamma 90.00187
loop_
_atom_site_label
_atom_site_type_symbol
_atom_site_fract_x
_atom_site_fract_y
_atom_site_fract_z
_atom_type_partial_charge
Co0 Co 0.30828 0.34194 0.19045 0.0
Co1 Co 0.29567 0.41825 0.24428 0.0
C2 C 0.34719 0.39627 0.21998 0.0
O3 O 0.34076 0.36423 0.19952 0.0
O4 O 0.33186 0.419 0.23813 0.0
C5 C 0.33081 0.26492 0.15996 0.0
O6 O 0.35096 0.28703 0.16509 0.0
C7 C 0.30083 0.44093 0.31932 0.0
C8 C 0.2702 0.48542 0.33136 0.0
C9 C 0.28822 0.46042 0.34817 0.0
N10 N 0.29046 0.4529 0.28728 0.0
N11 N 0.27263 0.48073 0.29438 0.0
C12 C 0.31894 0.40393 0.32242 0.0
H13 H 0.32076 0.3853 0.2963 0.0
H14 H 0.31369 0.38002 0.34431 0.0
H15 H 0.33683 0.41803 0.32963 0.0
C16 C 0.29136 0.28944 0.2568 0.0
N17 N 0.29327 0.32743 0.2369 0.0
N18 N 0.28368 0.35987 0.256 0.0
C19 C 0.27363 0.34281 0.28719 0.0
C20 C 0.27873 0.29766 0.28943 0.0
C21 C 0.30451 0.24762 0.24781 0.0
H22 H 0.32137 0.25527 0.23272 0.0
H23 H 0.30922 0.22895 0.27328 0.0
H24 H 0.29262 0.22648 0.23063 0.0
O25 O 0.29155 0.38932 0.15904 0.0
O26 O 0.282 0.44405 0.1977 0.0
H27 H 0.24163 0.3472 0.32033 0.0
H28 H 0.26716 0.37525 0.33894 0.0
C29 C 0.25748 0.36791 0.31291 0.0
H30 H 0.25116 0.39908 0.2999 0.0
H31 H 0.26072 0.49293 0.27445 0.0
O32 O 0.31073 0.28485 0.16397 0.0
C33 C 0.28291 0.42816 0.16489 0.0
Co34 Co 0.98639 0.99843 0.19039 0.0
Co35 Co 0.99899 0.92211 0.24422 0.0
C36 C 0.94747 0.94411 0.21993 0.0
O37 O 0.95391 0.97615 0.19947 0.0
O38 O 0.9628 0.92137 0.23807 0.0
C39 C 0.96385 0.07544 0.1599 0.0
O40 O 0.94371 0.05332 0.16501 0.0
C41 C 0.99383 0.89942 0.31926 0.0
C42 C 0.02445 0.85491 0.3313 0.0
C43 C 1.00643 0.87992 0.34811 0.0
N44 N 1.0042 0.88745 0.28722 0.0
N45 N 1.02202 0.85961 0.29431 0.0
C46 C 0.97572 0.93642 0.32236 0.0
H47 H 0.9739 0.95506 0.29624 0.0
H48 H 0.98097 0.96032 0.34426 0.0
H49 H 0.95783 0.92233 0.32958 0.0
C50 C 1.00332 0.05091 0.25674 0.0
N51 N 1.0014 1.01292 0.23684 0.0
N52 N 1.01099 0.98048 0.25594 0.0
C53 C 1.02104 0.99753 0.28714 0.0
C54 C 1.01595 1.04269 0.28937 0.0
C55 C 0.99019 0.09274 0.24774 0.0
H56 H 0.97332 0.08511 0.23266 0.0
H57 H 0.98549 0.11143 0.2732 0.0
H58 H 1.00208 0.11386 0.23055 0.0
O59 O 1.00311 0.95104 0.15897 0.0
O60 O 1.01265 0.89631 0.19764 0.0
H61 H 0.05303 0.99313 0.32028 0.0
H62 H 0.0275 0.96508 0.33887 0.0
C63 C 0.03718 0.97242 0.31285 0.0
H64 H 0.0435 0.94125 0.29984 0.0
H65 H 0.03394 0.84741 0.27438 0.0
O66 O 0.98393 0.05552 0.16392 0.0
C67 C 1.01174 0.91219 0.16482 0.0
Co68 Co 0.30822 0.99857 0.15031 0.0
Co69 Co 0.29567 0.92224 0.09647 0.0
C70 C 0.34718 0.94432 0.12078 0.0
O71 O 0.34071 0.97636 0.14122 0.0
O72 O 0.33186 0.92156 0.10262 0.0
C73 C 0.33075 0.07555 0.18088 0.0
O74 O 0.35089 0.05341 0.17583 0.0
C75 C 0.30085 0.89956 1.02143 0.0
C76 C 0.27025 0.85503 1.00937 0.0
C77 C 0.28827 0.88005 0.99257 0.0
N78 N 0.29048 0.88758 0.05347 0.0
N79 N 0.27266 0.85973 0.04636 0.0
C80 C 0.31895 0.93659 1.01833 0.0
H81 H 0.32075 0.95523 1.04445 0.0
H82 H 0.3137 0.96048 0.99643 0.0
H83 H 0.33685 0.92252 1.01113 0.0
C84 C 0.29127 0.05105 0.08399 0.0
N85 N 0.2932 1.01306 0.10387 0.0
N86 N 0.28364 0.9806 0.08475 0.0
C87 C 0.2736 0.99765 0.05355 0.0
C88 C 0.27866 1.04282 0.05134 0.0
C89 C 0.30438 0.0929 0.09302 0.0
H90 H 0.32125 0.0853 0.10811 0.0
H91 H 0.30908 0.11162 0.06757 0.0
H92 H 0.29247 0.11399 0.11021 0.0
O93 O 0.29152 0.95115 0.18172 0.0
O94 O 0.28201 0.89641 0.14305 0.0
H95 H 0.24163 0.99321 1.02037 0.0
H96 H 0.26718 0.96522 1.00179 0.0
C97 C 0.25749 0.97253 1.02781 0.0
H98 H 0.25117 0.94134 1.0408 0.0
H99 H 0.26075 0.84752 0.06629 0.0
O100 O 0.31066 0.05565 0.17681 0.0
C101 C 0.28291 0.9123 0.17586 0.0
Co102 Co 0.9864 0.34184 0.15021 0.0
Co103 Co 0.99906 0.41813 0.09638 0.0
C104 C 0.94753 0.3962 0.12064 0.0
O105 O 0.95392 0.36416 0.14112 0.0
O106 O 0.96287 0.41892 0.10252 0.0
C107 C 0.96385 0.26484 0.18069 0.0
O108 O 0.9437 0.28695 0.17554 0.0
C109 C 0.99389 0.44077 1.02134 0.0
C110 C 0.02453 0.48523 1.00926 0.0
C111 C 1.00649 0.46023 0.99247 0.0
N112 N 1.00428 0.45275 0.05337 0.0
N113 N 1.02211 0.48056 0.04624 0.0
C114 C 0.97577 0.40377 1.01827 0.0
H115 H 0.97397 0.38514 1.04439 0.0
H116 H 0.981 0.37987 0.99636 0.0
H117 H 0.95788 0.41789 1.01109 0.0
C118 C 1.00332 0.28933 0.08388 0.0
N119 N 1.00142 0.32732 0.10378 0.0
N120 N 1.01104 0.35974 0.08469 0.0
C121 C 1.02109 0.34268 0.0535 0.0
C122 C 1.01597 0.29753 0.05126 0.0
C123 C 0.99015 0.24753 0.09285 0.0
H124 H 0.97329 0.25519 0.10793 0.0
H125 H 0.98544 0.22887 0.06738 0.0
H126 H 1.00202 0.22636 0.11003 0.0
O127 O 1.00313 0.38922 0.18163 0.0
O128 O 1.01272 0.44393 0.14297 0.0
H129 H 0.05309 0.34703 1.02038 0.0
H130 H 0.02758 0.37513 1.00178 0.0
C131 C 0.03725 0.36776 1.0278 0.0
H132 H 0.04359 0.39892 1.04082 0.0
H133 H 0.03403 0.49277 0.06616 0.0
O134 O 0.98393 0.28475 0.1767 0.0
C135 C 1.01179 0.42805 0.17578 0.0
Co136 Co 0.73639 0.74832 0.90021 0.0
Co137 Co 0.74902 0.67202 0.84637 0.0
C138 C 0.6975 0.69397 0.87063 0.0
O139 O 0.70391 0.72601 0.89111 0.0
O140 O 0.71283 0.67125 0.8525 0.0
C141 C 0.71382 0.82531 0.9307 0.0
O142 O 0.69368 0.80318 0.92556 0.0
C143 C 0.74389 0.64934 0.77133 0.0
C144 C 0.77452 0.60486 0.75931 0.0
C145 C 0.75649 0.62986 0.74249 0.0
N146 N 0.75426 0.63738 0.80338 0.0
N147 N 0.77208 0.60955 0.79629 0.0
C148 C 0.72577 0.68633 0.76823 0.0
H149 H 0.72395 0.70497 0.79435 0.0
H150 H 0.73101 0.71023 0.74633 0.0
H151 H 0.70788 0.67222 0.76103 0.0
C152 C 0.75332 0.80083 0.83388 0.0
N153 N 0.75141 0.76284 0.85377 0.0
N154 N 0.76101 0.73041 0.83467 0.0
C155 C 0.77106 0.74748 0.80349 0.0
C156 C 0.76596 0.79263 0.80125 0.0
C157 C 0.74016 0.84264 0.84286 0.0
H158 H 0.7233 0.83499 0.85795 0.0
H159 H 0.73545 0.86131 0.81739 0.0
H160 H 0.75204 0.8638 0.86004 0.0
O161 O 0.75311 0.70094 0.93163 0.0
O162 O 0.76268 0.64622 0.89296 0.0
H163 H 0.80306 0.74311 0.77035 0.0
H164 H 0.77754 0.71504 0.75174 0.0
C165 C 0.78722 0.72239 0.77777 0.0
H166 H 0.79354 0.69122 0.79078 0.0
H167 H 0.784 0.59736 0.81623 0.0
O168 O 0.73391 0.8054 0.92669 0.0
C169 C 0.76175 0.6621 0.92578 0.0
Co170 Co 0.05825 0.09178 0.90024 0.0
Co171 Co 0.0457 0.16812 0.84641 0.0
C172 C 0.0972 0.14606 0.87073 0.0
O173 O 0.09074 0.11402 0.89117 0.0
O174 O 0.08189 0.16882 0.85258 0.0
C175 C 0.08077 1.01478 0.93077 0.0
O176 O 0.10092 1.0369 0.92571 0.0
C177 C 0.05087 0.19081 0.77137 0.0
C178 C 1.02026 0.23534 0.75933 0.0
C179 C 0.03828 0.21032 0.74252 0.0
N180 N 0.0405 0.20279 0.80341 0.0
N181 N 0.02268 0.23064 0.79631 0.0
C182 C 0.06897 0.15379 0.76827 0.0
H183 H 0.07078 0.13516 0.79439 0.0
H184 H 0.06371 0.12989 0.74638 0.0
H185 H 0.08686 0.16787 0.76104 0.0
C186 C 0.04132 1.03932 0.83389 0.0
N187 N 0.04324 0.07731 0.85379 0.0
N188 N 0.03368 0.10976 0.83468 0.0
C189 C 0.02363 0.09272 0.80348 0.0
C190 C 0.0287 0.04755 0.80125 0.0
C191 C 0.05444 0.99748 0.84291 0.0
H192 H 0.0713 1.00509 0.858 0.0
H193 H 0.05914 0.97878 0.81745 0.0
H194 H 0.04253 0.97637 0.86009 0.0
O195 O 0.04154 0.13918 0.93165 0.0
O196 O 0.03203 0.19393 0.89299 0.0
H197 H 0.99165 0.09715 0.77032 0.0
H198 H 1.01719 0.12517 0.75173 0.0
C199 C 1.0075 0.11784 0.77775 0.0
H200 H 1.00119 0.14902 0.79076 0.0
H201 H 1.01077 0.24285 0.81625 0.0
O202 O 0.06069 1.03468 0.92672 0.0
C203 C 0.03292 0.17804 0.9258 0.0
Co204 Co 0.73638 0.09171 0.94038 0.0
Co205 Co 0.74905 0.168 0.9942 0.0
C206 C 0.69752 0.14612 0.96993 0.0
O207 O 0.70391 0.11407 0.94946 0.0
O208 O 0.71287 0.16882 0.98806 0.0
C209 C 0.71381 1.01471 0.90992 0.0
O210 O 0.69366 1.03682 0.9151 0.0
C211 C 0.74392 0.19068 0.06923 0.0
C212 C 0.77456 0.23513 0.08127 0.0
C213 C 0.75653 0.21015 0.09808 0.0
N214 N 0.7543 0.20264 1.03719 0.0
N215 N 0.77213 0.23044 1.04429 0.0
C216 C 0.72578 0.15371 0.07233 0.0
H217 H 0.72396 0.13507 0.04621 0.0
H218 H 0.73101 0.1298 0.09423 0.0
H219 H 0.7079 0.16784 0.07953 0.0
C220 C 0.7533 1.03919 1.00671 0.0
N221 N 0.7514 0.07718 0.98681 0.0
N222 N 0.76102 0.1096 1.0059 0.0
C223 C 0.77107 0.09253 1.03709 0.0
C224 C 0.76595 0.04738 1.03933 0.0
C225 C 0.74013 0.99738 0.99774 0.0
H226 H 0.72327 1.00504 0.98267 0.0
H227 H 0.73543 0.97871 1.02321 0.0
H228 H 0.752 0.97623 0.98054 0.0
O229 O 0.75313 0.13906 0.90895 0.0
O230 O 0.76272 0.19377 0.94761 0.0
H231 H 0.80307 0.09687 0.07021 0.0
H232 H 0.77756 0.12497 0.08882 0.0
C233 C 0.78723 0.1176 0.0628 0.0
H234 H 0.79357 0.14876 0.04978 0.0
H235 H 0.78405 0.24262 1.02436 0.0
O236 O 0.73389 1.03462 0.91389 0.0
C237 C 0.76179 0.17788 0.91479 0.0
Co238 Co 0.05826 0.74837 0.94042 0.0
Co239 Co 0.04559 0.67209 0.99424 0.0
C240 C 0.09712 0.69401 0.97 0.0
O241 O 0.09073 0.72606 0.94953 0.0
O242 O 0.08178 0.67129 0.98812 0.0
C243 C 0.08081 0.82538 0.90995 0.0
O244 O 0.10096 0.80328 0.91512 0.0
C245 C 0.05073 0.64942 0.06928 0.0
C246 C 1.02009 0.60495 0.08133 0.0
C247 C 0.03812 0.62995 0.09813 0.0
N248 N 0.04035 0.63745 1.03724 0.0
N249 N 0.02252 0.60964 1.04434 0.0
C250 C 0.06885 0.68641 0.07238 0.0
H251 H 0.07066 0.70504 0.04626 0.0
H252 H 0.06361 0.71031 0.09427 0.0
H253 H 0.08674 0.67229 0.07957 0.0
C254 C 0.04133 0.80089 1.00675 0.0
N255 N 0.04323 0.7629 0.98685 0.0
N256 N 0.03361 0.73048 1.00594 0.0
C257 C 0.02356 0.74755 1.03712 0.0
C258 C 0.02867 0.79269 1.03937 0.0
C259 C 0.0545 0.84269 0.99778 0.0
H260 H 0.07137 0.83502 0.98271 0.0
H261 H 0.05921 0.86135 1.02325 0.0
H262 H 0.04264 0.86385 0.98059 0.0
O263 O 0.04154 0.70099 0.90899 0.0
O264 O 0.03194 0.64628 0.94765 0.0
H265 H 0.99155 0.74319 0.07024 0.0
H266 H 1.01706 0.7151 0.08885 0.0
C267 C 1.00739 0.72246 0.06282 0.0
H268 H 1.00106 0.6913 0.04981 0.0
H269 H 1.0106 0.59744 1.02441 0.0
O270 O 0.06073 0.80546 0.91393 0.0
C271 C 0.03288 0.66216 0.91484 0.0
Co272 Co 0.30824 0.84189 0.69045 0.0
Co273 Co 0.29568 0.91821 0.74429 0.0
C274 C 0.34718 0.89617 0.71996 0.0
O275 O 0.34073 0.86414 0.69951 0.0
O276 O 0.33187 0.91892 0.73813 0.0
C277 C 0.33077 0.7649 0.6599 0.0
O278 O 0.35091 0.78704 0.66497 0.0
C279 C 0.30086 0.94089 0.81933 0.0
C280 C 0.27025 0.98541 0.83139 0.0
C281 C 0.28827 0.96039 0.84819 0.0
N282 N 0.29048 0.95287 0.7873 0.0
N283 N 0.27267 0.98072 0.7944 0.0
C284 C 0.31896 0.90387 0.82242 0.0
H285 H 0.32076 0.88524 0.7963 0.0
H286 H 0.31371 0.87997 0.84432 0.0
H287 H 0.33686 0.91795 0.82963 0.0
C288 C 0.29131 0.78941 0.75679 0.0
N289 N 0.29323 0.8274 0.7369 0.0
N290 N 0.28366 0.85985 0.75601 0.0
C291 C 0.27362 0.8428 0.78721 0.0
C292 C 0.27869 0.79764 0.78943 0.0
C293 C 0.30443 0.74757 0.74777 0.0
H294 H 0.32129 0.75518 0.73267 0.0
H295 H 0.30913 0.72887 0.77322 0.0
H296 H 0.29252 0.72646 0.73059 0.0
O297 O 0.29153 0.88929 0.65904 0.0
O298 O 0.28201 0.94404 0.69771 0.0
H299 H 0.24163 0.84722 0.82037 0.0
H300 H 0.26718 0.87525 0.83895 0.0
C301 C 0.25749 0.86792 0.81294 0.0
H302 H 0.25117 0.89909 0.79994 0.0
H303 H 0.26075 0.99293 0.77448 0.0
O304 O 0.31069 0.7848 0.66396 0.0
C305 C 0.28291 0.92815 0.6649 0.0
Co306 Co 0.98641 0.49843 0.69038 0.0
Co307 Co 0.99897 0.42209 0.74421 0.0
C308 C 0.94746 0.44415 0.71989 0.0
O309 O 0.95392 0.47619 0.69945 0.0
O310 O 0.96278 0.42139 0.73805 0.0
C311 C 0.96389 0.57544 0.65985 0.0
O312 O 0.94374 0.55331 0.66492 0.0
C313 C 0.9938 0.39939 0.81925 0.0
C314 C 0.02442 0.35486 0.83127 0.0
C315 C 1.0064 0.37988 0.84809 0.0
N316 N 1.00417 0.38742 0.7872 0.0
N317 N 1.02199 0.35957 0.79429 0.0
C318 C 0.9757 0.43641 0.82236 0.0
H319 H 0.97388 0.45504 0.79624 0.0
H320 H 0.98097 0.46031 0.84424 0.0
H321 H 0.95781 0.42233 0.82959 0.0
C322 C 1.00334 0.5509 0.75673 0.0
N323 N 1.00142 0.51291 0.73683 0.0
N324 N 1.01099 0.48046 0.75594 0.0
C325 C 1.02103 0.4975 0.78714 0.0
C326 C 1.01596 0.54266 0.78937 0.0
C327 C 0.99022 0.59274 0.74772 0.0
H328 H 0.97336 0.58512 0.73262 0.0
H329 H 0.98552 0.61143 0.77318 0.0
H330 H 1.00212 0.61385 0.73054 0.0
O331 O 1.00312 0.45104 0.65897 0.0
O332 O 1.01263 0.39629 0.69763 0.0
H333 H 0.05302 0.49307 0.8203 0.0
H334 H 0.02747 0.46506 0.83889 0.0
C335 C 0.03716 0.47238 0.81287 0.0
H336 H 0.04347 0.4412 0.79987 0.0
H337 H 0.0339 0.34736 0.77435 0.0
O338 O 0.98397 0.55553 0.6639 0.0
C339 C 1.01174 0.41218 0.66482 0.0
Co340 Co 0.30828 0.49849 0.65027 0.0
Co341 Co 0.29562 0.4222 0.59645 0.0
C342 C 0.34715 0.44412 0.6207 0.0
O343 O 0.34076 0.47617 0.64118 0.0
O344 O 0.33181 0.42141 0.60258 0.0
C345 C 0.33084 0.57551 0.68073 0.0
O346 O 0.35099 0.55341 0.67555 0.0
C347 C 0.30077 0.39954 0.52141 0.0
C348 C 0.27014 0.35507 0.50935 0.0
C349 C 0.28817 0.38006 0.49255 0.0
N350 N 0.29039 0.38757 0.55344 0.0
N351 N 0.27256 0.35975 0.54633 0.0
C352 C 0.3189 0.43653 0.51832 0.0
H353 H 0.3207 0.45517 0.54444 0.0
H354 H 0.31366 0.46042 0.49642 0.0
H355 H 0.33679 0.42241 0.51113 0.0
C356 C 0.29136 0.551 0.58393 0.0
N357 N 0.29326 0.51301 0.60383 0.0
N358 N 0.28364 0.48059 0.58475 0.0
C359 C 0.27359 0.49766 0.55356 0.0
C360 C 0.27871 0.5428 0.55132 0.0
C361 C 0.30453 0.59281 0.5929 0.0
H362 H 0.29266 0.61397 0.61009 0.0
H363 H 0.3214 0.58514 0.60798 0.0
H364 H 0.30923 0.61147 0.56743 0.0
O365 O 0.29155 0.45112 0.68169 0.0
O366 O 0.28196 0.39641 0.64304 0.0
H367 H 0.24159 0.4933 0.52044 0.0
H368 H 0.2671 0.4652 0.50183 0.0
C369 C 0.25743 0.47257 0.52786 0.0
H370 H 0.25109 0.44141 0.54088 0.0
H371 H 0.26064 0.34756 0.56626 0.0
O372 O 0.31076 0.55557 0.67676 0.0
C373 C 0.28289 0.41229 0.67585 0.0
Co374 Co 0.98641 0.84182 0.65023 0.0
Co375 Co 0.99902 0.91811 0.59639 0.0
C376 C 0.9475 0.89613 0.62067 0.0
O377 O 0.95392 0.86409 0.64114 0.0
O378 O 0.96283 0.91886 0.60254 0.0
C379 C 0.96387 0.76482 0.68075 0.0
O380 O 0.94372 0.78693 0.67562 0.0
C381 C 0.99386 0.94077 0.52135 0.0
C382 C 0.02448 0.98526 0.50929 0.0
C383 C 1.00645 0.96026 0.49249 0.0
N384 N 1.00424 0.95275 0.55339 0.0
N385 N 1.02206 0.98058 0.54627 0.0
C386 C 0.97574 0.90377 0.51827 0.0
H387 H 0.97394 0.88513 0.54439 0.0
H388 H 0.98098 0.87987 0.49637 0.0
H389 H 0.95785 0.91787 0.51108 0.0
C390 C 1.00334 0.78931 0.5839 0.0
N391 N 1.00143 0.8273 0.6038 0.0
N392 N 1.01102 0.85973 0.58469 0.0
C393 C 1.02107 0.84267 0.5535 0.0
C394 C 1.01597 0.79752 0.55127 0.0
C395 C 0.99019 0.74749 0.5929 0.0
H396 H 0.97333 0.75513 0.60798 0.0
H397 H 0.98549 0.72881 0.56744 0.0
H398 H 1.00207 0.72635 0.61009 0.0
O399 O 1.00312 0.88921 0.68164 0.0
O400 O 1.01268 0.94393 0.64297 0.0
H401 H 0.05306 0.84706 0.52035 0.0
H402 H 0.02753 0.87511 0.50176 0.0
C403 C 0.03721 0.86777 0.52778 0.0
H404 H 0.04354 0.89894 0.54078 0.0
H405 H 0.03398 0.99279 0.5662 0.0
O406 O 0.98395 0.78474 0.67673 0.0
C407 C 1.01176 0.92805 0.67579 0.0
Co408 Co 0.73639 0.24831 0.4002 0.0
Co409 Co 0.74903 0.17201 0.34637 0.0
C410 C 0.69751 0.19396 0.37063 0.0
O411 O 0.70391 0.226 0.3911 0.0
O412 O 0.71284 0.17124 0.3525 0.0
C413 C 0.71383 0.3253 0.43069 0.0
O414 O 0.69368 0.30317 0.42556 0.0
C415 C 0.74389 0.14933 0.27133 0.0
C416 C 0.77453 0.10485 0.2593 0.0
C417 C 0.7565 0.12985 0.24248 0.0
N418 N 0.75426 0.13737 0.30337 0.0
N419 N 0.77209 0.10954 0.29628 0.0
C420 C 0.72577 0.18633 0.26823 0.0
H421 H 0.72396 0.20496 0.29435 0.0
H422 H 0.73102 0.21022 0.24633 0.0
H423 H 0.70788 0.17221 0.26102 0.0
C424 C 0.75332 0.30082 0.33386 0.0
N425 N 0.75141 0.26283 0.35376 0.0
N426 N 0.76102 0.2304 0.33467 0.0
C427 C 0.77107 0.24746 0.30348 0.0
C428 C 0.76597 0.29261 0.30124 0.0
C429 C 0.74016 0.34263 0.34284 0.0
H430 H 0.7233 0.33498 0.35793 0.0
H431 H 0.73545 0.36128 0.31737 0.0
H432 H 0.75204 0.36379 0.36001 0.0
O433 O 0.75311 0.20094 0.43162 0.0
O434 O 0.76269 0.14622 0.39296 0.0
H435 H 0.80307 0.24309 0.27036 0.0
H436 H 0.77756 0.21502 0.25175 0.0
C437 C 0.78723 0.22237 0.27777 0.0
H438 H 0.79356 0.19121 0.29079 0.0
H439 H 0.78401 0.09735 0.31622 0.0
O440 O 0.73391 0.3054 0.42668 0.0
C441 C 0.76176 0.16211 0.42578 0.0
Co442 Co 0.0583 0.59185 0.40021 0.0
Co443 Co 0.0456 0.66814 0.3464 0.0
C444 C 0.09715 0.64628 0.37065 0.0
O445 O 0.09077 0.61422 0.39111 0.0
O446 O 0.08179 0.66899 0.35254 0.0
C447 C 0.08088 0.51483 0.43064 0.0
O448 O 0.10102 0.53694 0.42543 0.0
C449 C 0.05073 0.69082 0.27137 0.0
C450 C 1.02008 0.73526 0.25933 0.0
C451 C 0.03812 0.71029 0.24252 0.0
N452 N 0.04036 0.70278 0.30341 0.0
N453 N 0.02252 0.73057 0.29631 0.0
C454 C 0.06887 0.65386 0.26827 0.0
H455 H 0.07069 0.63523 0.29439 0.0
H456 H 0.06364 0.62995 0.24638 0.0
H457 H 0.08675 0.668 0.26107 0.0
C458 C 0.04139 0.53934 0.33387 0.0
N459 N 0.04328 0.57732 0.35377 0.0
N460 N 0.03365 0.60974 0.3347 0.0
C461 C 0.02359 0.59267 0.30351 0.0
C462 C 0.02873 0.54753 0.30126 0.0
C463 C 0.05457 0.49754 0.34282 0.0
H464 H 0.07144 0.50522 0.35789 0.0
H465 H 0.05927 0.47889 0.31735 0.0
H466 H 0.04271 0.47637 0.36002 0.0
O467 O 0.04157 0.63921 0.43165 0.0
O468 O 0.03194 0.69391 0.39299 0.0
H469 H 0.99158 0.59699 0.27041 0.0
H470 H 1.01708 0.62511 0.25179 0.0
C471 C 1.00742 0.61774 0.27782 0.0
H472 H 1.00108 0.64889 0.29085 0.0
H473 H 1.0106 0.74275 0.31625 0.0
O474 O 0.0608 0.53476 0.42669 0.0
C475 C 0.03289 0.67802 0.42581 0.0
Co476 Co 0.73637 0.59171 0.44038 0.0
Co477 Co 0.74905 0.66799 0.4942 0.0
C478 C 0.69752 0.64612 0.46995 0.0
O479 O 0.7039 0.61407 0.44947 0.0
O480 O 0.71287 0.66882 0.48807 0.0
C481 C 0.71379 0.51471 0.40993 0.0
O482 O 0.69365 0.53681 0.41513 0.0
C483 C 0.74392 0.69067 0.56923 0.0
C484 C 0.77457 0.73512 0.58127 0.0
C485 C 0.75653 0.71014 0.59808 0.0
N486 N 0.7543 0.70262 0.53719 0.0
N487 N 0.77214 0.73043 0.54429 0.0
C488 C 0.72578 0.65371 0.57233 0.0
H489 H 0.72397 0.63506 0.54621 0.0
H490 H 0.73101 0.62981 0.59423 0.0
H491 H 0.7079 0.66784 0.57952 0.0
C492 C 0.7533 0.53917 0.5067 0.0
N493 N 0.75139 0.57717 0.48681 0.0
N494 N 0.76102 0.60958 0.5059 0.0
C495 C 0.77107 0.59251 0.53708 0.0
C496 C 0.76595 0.54736 0.53932 0.0
C497 C 0.74013 0.49737 0.49772 0.0
H498 H 0.752 0.47622 0.48052 0.0
H499 H 0.72326 0.50503 0.48266 0.0
H500 H 0.73544 0.47868 0.52319 0.0
O501 O 0.75311 0.63906 0.40895 0.0
O502 O 0.76272 0.69376 0.44761 0.0
H503 H 0.80307 0.59685 0.57022 0.0
H504 H 0.77755 0.62494 0.58882 0.0
C505 C 0.78723 0.61758 0.5628 0.0
H506 H 0.79357 0.64874 0.54978 0.0
H507 H 0.78406 0.74261 0.52436 0.0
O508 O 0.73387 0.53462 0.41389 0.0
C509 C 0.76178 0.67788 0.41479 0.0
Co510 Co 0.05827 0.24843 0.44039 0.0
Co511 Co 0.04566 0.17212 0.49423 0.0
C512 C 0.09717 0.19411 0.46995 0.0
O513 O 0.09075 0.22615 0.44948 0.0
O514 O 0.08185 0.17138 0.48809 0.0
C515 C 0.08082 0.32543 0.40989 0.0
O516 O 0.10096 0.3033 0.415 0.0
C517 C 0.05082 0.14947 0.56927 0.0
C518 C 1.0202 0.10497 0.58134 0.0
C519 C 0.03823 0.12998 0.59813 0.0
N520 N 0.04044 0.13749 0.53724 0.0
N521 N 0.02262 0.10966 0.54435 0.0
C522 C 0.06893 0.18648 0.57235 0.0
H523 H 0.07074 0.20511 0.54623 0.0
H524 H 0.06369 0.21037 0.59426 0.0
H525 H 0.08683 0.17238 0.57955 0.0
C526 C 0.04134 0.30092 0.50673 0.0
N527 N 0.04325 0.26293 0.48683 0.0
N528 N 0.03365 0.23049 0.50593 0.0
C529 C 0.0236 0.24755 0.53712 0.0
C530 C 0.0287 0.2927 0.53936 0.0
C531 C 0.05449 0.34274 0.49774 0.0
H532 H 0.07135 0.3351 0.48265 0.0
H533 H 0.05919 0.36141 0.52321 0.0
H534 H 0.0426 0.36388 0.48056 0.0
O535 O 0.04155 0.20103 0.40898 0.0
O536 O 0.032 0.14631 0.44764 0.0
H537 H 0.99161 0.24316 0.57025 0.0
H538 H 1.01713 0.21509 0.58885 0.0
C539 C 1.00745 0.22245 0.56283 0.0
H540 H 1.00113 0.19128 0.54981 0.0
H541 H 1.0107 0.09745 0.52443 0.0
O542 O 0.06074 0.30552 0.41391 0.0
C543 C 0.03291 0.16219 0.41483 0.0
Co544 Co 0.80833 0.34174 0.6904 0.0
Co545 Co 0.79555 0.41799 0.7442 0.0
C546 C 0.84712 0.39623 0.72002 0.0
O547 O 0.84079 0.36415 0.69954 0.0
O548 O 0.83174 0.41891 0.73808 0.0
C549 C 0.83094 0.26474 0.66 0.0
O550 O 0.85108 0.28684 0.66526 0.0
C551 C 0.80067 0.44064 0.81924 0.0
C552 C 0.77001 0.48503 0.8313 0.0
C553 C 0.78806 0.46008 0.8481 0.0
N554 N 0.79029 0.4526 0.78721 0.0
N555 N 0.77243 0.48036 0.79432 0.0
C556 C 0.81883 0.40371 0.82232 0.0
H557 H 0.82065 0.38507 0.7962 0.0
H558 H 0.81362 0.37979 0.84422 0.0
H559 H 0.83671 0.41787 0.82949 0.0
C560 C 0.79141 0.28919 0.75673 0.0
N561 N 0.79329 0.32717 0.73682 0.0
N562 N 0.78362 0.35957 0.75588 0.0
C563 C 0.77357 0.34248 0.78705 0.0
C564 C 0.77873 0.29735 0.78932 0.0
C565 C 0.80463 0.24742 0.74779 0.0
H566 H 0.8215 0.25513 0.73274 0.0
H567 H 0.80934 0.2288 0.77328 0.0
H568 H 0.79279 0.2262 0.73061 0.0
O569 O 0.79159 0.38909 0.65896 0.0
O570 O 0.78189 0.44375 0.69761 0.0
H571 H 0.74154 0.34675 0.82013 0.0
H572 H 0.76702 0.37493 0.83877 0.0
C573 C 0.75737 0.36752 0.81273 0.0
H574 H 0.75102 0.39866 0.7997 0.0
H575 H 0.76051 0.49254 0.77439 0.0
O576 O 0.81086 0.28466 0.66391 0.0
C577 C 0.78288 0.42788 0.66479 0.0
Co578 Co 0.48636 0.99843 0.69038 0.0
Co579 Co 0.49909 0.92215 0.74418 0.0
C580 C 0.44754 0.94399 0.71999 0.0
O581 O 0.45389 0.97605 0.69951 0.0
O582 O 0.46291 0.92129 0.73808 0.0
C583 C 0.46376 0.07543 0.65996 0.0
O584 O 0.44362 0.05333 0.66519 0.0
C585 C 0.49398 0.89946 0.81922 0.0
C586 C 0.52464 0.85503 0.83123 0.0
C587 C 0.50661 0.88 0.84806 0.0
N588 N 0.50436 0.88752 0.78717 0.0
N589 N 0.5222 0.85973 0.79425 0.0
C590 C 0.47584 0.93642 0.82232 0.0
H591 H 0.47402 0.95506 0.79621 0.0
H592 H 0.48107 0.96032 0.84423 0.0
H593 H 0.45796 0.92227 0.82952 0.0
C594 C 0.5033 0.05096 0.7567 0.0
N595 N 0.5014 1.01297 0.7368 0.0
N596 N 0.51104 0.98056 0.75587 0.0
C597 C 0.5211 0.99764 0.78705 0.0
C598 C 0.51597 1.04278 0.78931 0.0
C599 C 0.4901 0.09275 0.74775 0.0
H600 H 0.50195 0.11393 0.73055 0.0
H601 H 0.47323 0.08506 0.7327 0.0
H602 H 0.48541 0.1114 0.77323 0.0
O603 O 0.50309 0.95108 0.65893 0.0
O604 O 0.51274 0.89639 0.69758 0.0
H605 H 0.55312 0.99333 0.82015 0.0
H606 H 0.52762 0.9652 0.83877 0.0
C607 C 0.53728 0.97258 0.81274 0.0
H608 H 0.54363 0.94143 0.79971 0.0
H609 H 0.53412 0.84755 0.77431 0.0
O610 O 0.48385 0.05551 0.6639 0.0
C611 C 0.51178 0.91227 0.66477 0.0
Co612 Co 0.80828 0.99832 0.6502 0.0
Co613 Co 0.79561 0.92202 0.59638 0.0
C614 C 0.84715 0.94392 0.62062 0.0
O615 O 0.84076 0.97597 0.64109 0.0
O616 O 0.8318 0.92121 0.6025 0.0
C617 C 0.83088 0.07531 0.68065 0.0
O618 O 0.85101 0.05318 0.67549 0.0
C619 C 0.80074 0.89931 0.52135 0.0
C620 C 0.77009 0.85485 0.50934 0.0
C621 C 0.78812 0.87983 0.49251 0.0
N622 N 0.79037 0.88737 0.5534 0.0
N623 N 0.77253 0.85955 0.54632 0.0
C624 C 0.81887 0.93629 0.51823 0.0
H625 H 0.82069 0.95493 0.54435 0.0
H626 H 0.81363 0.96018 0.49633 0.0
H627 H 0.83675 0.92216 0.51103 0.0
C628 C 0.79136 0.05082 0.58386 0.0
N629 N 0.79326 1.01284 0.60376 0.0
N630 N 0.78364 0.98041 0.58468 0.0
C631 C 0.77359 0.99748 0.55349 0.0
C632 C 0.7787 1.04262 0.55124 0.0
C633 C 0.80452 0.09263 0.59283 0.0
H634 H 0.82139 0.08497 0.60791 0.0
H635 H 0.80922 0.1113 0.56736 0.0
H636 H 0.79265 0.11379 0.61002 0.0
O637 O 0.79156 0.95096 0.68164 0.0
O638 O 0.78196 0.89625 0.64298 0.0
H639 H 0.74158 0.99312 0.52037 0.0
H640 H 0.76709 0.96502 0.50176 0.0
C641 C 0.75743 0.97239 0.52779 0.0
H642 H 0.75109 0.94123 0.54081 0.0
H643 H 0.76061 0.84737 0.56626 0.0
O644 O 0.81079 0.05542 0.67666 0.0
C645 C 0.78289 0.91213 0.67579 0.0
Co646 Co 0.48638 0.34185 0.65017 0.0
Co647 Co 0.49902 0.41815 0.59635 0.0
C648 C 0.4475 0.39623 0.62063 0.0
O649 O 0.45391 0.36418 0.64109 0.0
O650 O 0.46284 0.41895 0.60249 0.0
C651 C 0.46381 0.26485 0.68065 0.0
O652 O 0.44367 0.28698 0.6755 0.0
C653 C 0.49389 0.44084 0.52131 0.0
C654 C 0.52454 0.48531 0.50929 0.0
C655 C 0.50651 0.46032 0.49247 0.0
N656 N 0.50426 0.4528 0.55336 0.0
N657 N 0.5221 0.48062 0.54627 0.0
C658 C 0.47577 0.40386 0.5182 0.0
H659 H 0.47394 0.38523 0.54432 0.0
H660 H 0.48101 0.37996 0.49631 0.0
H661 H 0.45788 0.41798 0.51099 0.0
C662 C 0.5033 0.28935 0.58383 0.0
N663 N 0.50139 0.32734 0.60373 0.0
N664 N 0.511 0.35976 0.58464 0.0
C665 C 0.52105 0.3427 0.55345 0.0
C666 C 0.51594 0.29755 0.55121 0.0
C667 C 0.49014 0.24753 0.59281 0.0
H668 H 0.47328 0.25519 0.6079 0.0
H669 H 0.48543 0.22887 0.56735 0.0
H670 H 0.50202 0.22638 0.61 0.0
O671 O 0.50311 0.38921 0.6816 0.0
O672 O 0.51269 0.44393 0.64294 0.0
H673 H 0.55306 0.34706 0.52034 0.0
H674 H 0.52755 0.37514 0.50172 0.0
C675 C 0.53721 0.36779 0.52775 0.0
H676 H 0.54355 0.39895 0.54076 0.0
H677 H 0.53401 0.49281 0.56621 0.0
O678 O 0.48389 0.28475 0.67665 0.0
C679 C 0.51176 0.42805 0.67575 0.0
Co680 Co 0.2364 0.74852 0.40029 0.0
Co681 Co 0.24901 0.67222 0.34646 0.0
C682 C 0.19749 0.6942 0.37075 0.0
O683 O 0.20391 0.72624 0.39121 0.0
O684 O 0.21282 0.67147 0.35261 0.0
C685 C 0.21386 0.82554 0.43079 0.0
O686 O 0.19371 0.80342 0.42567 0.0
C687 C 0.24385 0.64954 0.27142 0.0
C688 C 0.27448 0.60505 0.25937 0.0
C689 C 0.25645 0.63006 0.24257 0.0
N690 N 0.25423 0.63757 0.30346 0.0
N691 N 0.27205 0.60974 0.29636 0.0
C692 C 0.22574 0.68655 0.26833 0.0
H693 H 0.22393 0.70518 0.29445 0.0
H694 H 0.23099 0.71045 0.24644 0.0
H695 H 0.20785 0.67245 0.26112 0.0
C696 C 0.25332 0.80101 0.33395 0.0
N697 N 0.25141 0.76303 0.35385 0.0
N698 N 0.26101 0.73059 0.33476 0.0
C699 C 0.27106 0.74765 0.30356 0.0
C700 C 0.26596 0.7928 0.30132 0.0
C701 C 0.24017 0.84283 0.34294 0.0
H702 H 0.22331 0.83519 0.35803 0.0
H703 H 0.23546 0.86151 0.31747 0.0
H704 H 0.25205 0.86398 0.36012 0.0
O705 O 0.25312 0.70114 0.43171 0.0
O706 O 0.26267 0.64641 0.39305 0.0
H707 H 0.30306 0.74326 0.27043 0.0
H708 H 0.27753 0.71519 0.25183 0.0
C709 C 0.28721 0.72255 0.27785 0.0
H710 H 0.29353 0.69138 0.29087 0.0
H711 H 0.28397 0.59754 0.31629 0.0
O712 O 0.23394 0.80562 0.42677 0.0
C713 C 0.26176 0.6623 0.42586 0.0
Co714 Co 0.55825 0.09185 0.40018 0.0
Co715 Co 0.54562 0.16814 0.34634 0.0
C716 C 0.59714 0.1462 0.37061 0.0
O717 O 0.59073 0.11416 0.39108 0.0
O718 O 0.58181 0.16892 0.35247 0.0
C719 C 0.58082 1.01487 0.43068 0.0
O720 O 0.60097 1.03701 0.42555 0.0
C721 C 0.55077 0.19083 0.27131 0.0
C722 C 0.52014 0.23531 0.25927 0.0
C723 C 0.53817 0.21032 0.24246 0.0
N724 N 0.54039 0.20279 0.30335 0.0
N725 N 0.52256 0.23061 0.29625 0.0
C726 C 0.56889 0.15384 0.26821 0.0
H727 H 0.5707 0.13519 0.29432 0.0
H728 H 0.56366 0.12996 0.2463 0.0
H729 H 0.58678 0.16797 0.26103 0.0
C730 C 0.54131 1.03933 0.33386 0.0
N731 N 0.54323 0.07733 0.35374 0.0
N732 N 0.53363 0.10975 0.33464 0.0
C733 C 0.52358 0.09269 0.30345 0.0
C734 C 0.52868 0.04753 0.30123 0.0
C735 C 0.55446 0.99751 0.34285 0.0
H736 H 0.57132 1.00515 0.35793 0.0
H737 H 0.55915 0.97882 0.31739 0.0
H738 H 0.54257 0.97638 0.36005 0.0
O739 O 0.54153 0.13922 0.4316 0.0
O740 O 0.53196 0.19394 0.39293 0.0
H741 H 0.4916 0.09706 0.27029 0.0
H742 H 0.51713 0.12512 0.2517 0.0
C743 C 0.50744 0.11778 0.27772 0.0
H744 H 0.50111 0.14895 0.29072 0.0
H745 H 0.51064 0.2428 0.31618 0.0
O746 O 0.56074 1.03477 0.42667 0.0
C747 C 0.53288 0.17806 0.42575 0.0
Co748 Co 0.2364 0.09196 0.44048 0.0
Co749 Co 0.24907 0.16826 0.49429 0.0
C750 C 0.19754 0.14634 0.47004 0.0
O751 O 0.20393 0.11429 0.44956 0.0
O752 O 0.21288 0.16906 0.48816 0.0
C753 C 0.21384 1.01494 0.41003 0.0
O754 O 0.1937 1.03705 0.4152 0.0
C755 C 0.24394 0.19095 0.56933 0.0
C756 C 0.27458 0.23542 0.58134 0.0
C757 C 0.25656 0.21043 0.59817 0.0
N758 N 0.25431 0.20291 0.53728 0.0
N759 N 0.27214 0.23072 0.54436 0.0
C760 C 0.22581 0.15397 0.57244 0.0
H761 H 0.22399 0.13534 0.54632 0.0
H762 H 0.23105 0.13007 0.59433 0.0
H763 H 0.20793 0.1681 0.57965 0.0
C764 C 0.25332 1.03946 0.50682 0.0
N765 N 0.25142 0.07744 0.48692 0.0
N766 N 0.26104 0.10986 0.506 0.0
C767 C 0.27109 0.0928 0.53719 0.0
C768 C 0.26597 0.04766 0.53944 0.0
C769 C 0.24014 0.99766 0.49785 0.0
H770 H 0.25201 0.97649 0.48066 0.0
H771 H 0.22328 1.00532 0.48278 0.0
H772 H 0.23544 0.97899 0.52333 0.0
O773 O 0.25313 0.13932 0.40904 0.0
O774 O 0.26273 0.19403 0.4477 0.0
H775 H 0.3031 0.09715 0.5703 0.0
H776 H 0.27759 0.12525 0.58892 0.0
C777 C 0.28726 0.11788 0.56289 0.0
H778 H 0.29359 0.14904 0.54987 0.0
H779 H 0.28406 0.24291 0.52442 0.0
O780 O 0.23392 1.03486 0.414 0.0
C781 C 0.26179 0.17815 0.41489 0.0
Co782 Co 0.5583 0.74847 0.44035 0.0
Co783 Co 0.54565 0.67218 0.49417 0.0
C784 C 0.59718 0.6941 0.4699 0.0
O785 O 0.59078 0.72615 0.44944 0.0
O786 O 0.58184 0.67139 0.48804 0.0
C787 C 0.58087 0.82548 0.40988 0.0
O788 O 0.60101 0.80337 0.41504 0.0
C789 C 0.55079 0.6495 0.56921 0.0
C790 C 0.52015 0.60503 0.58124 0.0
C791 C 0.53818 0.63002 0.59806 0.0
N792 N 0.54042 0.63754 0.53717 0.0
N793 N 0.52259 0.60972 0.54426 0.0
C794 C 0.56891 0.68649 0.57231 0.0
H795 H 0.57073 0.70512 0.54619 0.0
H796 H 0.56367 0.71039 0.5942 0.0
H797 H 0.5868 0.67237 0.57952 0.0
C798 C 0.54137 0.80099 0.50668 0.0
N799 N 0.54328 0.763 0.48678 0.0
N800 N 0.53367 0.73057 0.50587 0.0
C801 C 0.52362 0.74764 0.53706 0.0
C802 C 0.52872 0.79278 0.5393 0.0
C803 C 0.55453 0.8428 0.4977 0.0
H804 H 0.57139 0.83516 0.48262 0.0
H805 H 0.55923 0.86147 0.52317 0.0
H806 H 0.54265 0.86395 0.48052 0.0
O807 O 0.54158 0.70111 0.40892 0.0
O808 O 0.53199 0.64639 0.44758 0.0
H809 H 0.49161 0.74327 0.57018 0.0
H810 H 0.51713 0.7152 0.5888 0.0
C811 C 0.50746 0.72255 0.56277 0.0
H812 H 0.50113 0.69138 0.54975 0.0
H813 H 0.51067 0.59753 0.52432 0.0
O814 O 0.56079 0.80556 0.41386 0.0
C815 C 0.53292 0.66228 0.41476 0.0
Co816 Co 0.8083 0.84174 0.19039 0.0
Co817 Co 0.79558 0.918 0.24421 0.0
C818 C 0.84713 0.89618 0.21999 0.0
O819 O 0.84077 0.86411 0.19951 0.0
O820 O 0.83177 0.91887 0.23809 0.0
C821 C 0.83089 0.76473 0.15996 0.0
O822 O 0.85103 0.78683 0.16519 0.0
C823 C 0.8007 0.94066 0.31925 0.0
C824 C 0.77005 0.98508 0.33129 0.0
C825 C 0.78809 0.96011 0.3481 0.0
N826 N 0.79032 0.95262 0.28721 0.0
N827 N 0.77248 0.98041 0.29431 0.0
C828 C 0.81885 0.9037 0.32234 0.0
H829 H 0.82067 0.88507 0.29622 0.0
H830 H 0.81362 0.87979 0.34423 0.0
H831 H 0.83673 0.91785 0.32953 0.0
C832 C 0.79138 0.78919 0.25672 0.0
N833 N 0.79328 0.82718 0.23682 0.0
N834 N 0.78363 0.85959 0.25589 0.0
C835 C 0.77358 0.8425 0.28707 0.0
C836 C 0.77871 0.79737 0.28933 0.0
C837 C 0.80458 0.74741 0.24777 0.0
H838 H 0.82144 0.7551 0.2327 0.0
H839 H 0.80928 0.72876 0.27324 0.0
H840 H 0.79272 0.72622 0.23057 0.0
O841 O 0.79156 0.88909 0.15896 0.0
O842 O 0.78192 0.94377 0.19761 0.0
H843 H 0.74156 0.84681 0.32017 0.0
H844 H 0.76705 0.87494 0.3388 0.0
C845 C 0.75739 0.86756 0.31276 0.0
H846 H 0.75105 0.89871 0.29974 0.0
H847 H 0.76056 0.99259 0.27438 0.0
O848 O 0.81081 0.78465 0.1639 0.0
C849 C 0.78288 0.9279 0.1648 0.0
Co850 Co 0.4864 0.49848 0.19034 0.0
Co851 Co 0.49908 0.4222 0.24416 0.0
C852 C 0.44754 0.44408 0.21994 0.0
O853 O 0.45393 0.47613 0.19946 0.0
O854 O 0.46289 0.42138 0.23805 0.0
C855 C 0.4638 0.57546 0.15988 0.0
O856 O 0.44367 0.55331 0.16503 0.0
C857 C 0.49395 0.39952 0.31921 0.0
C858 C 0.5246 0.35507 0.33125 0.0
C859 C 0.50656 0.38005 0.34805 0.0
N860 N 0.50433 0.38757 0.28716 0.0
N861 N 0.52217 0.35976 0.29426 0.0
C862 C 0.47582 0.43649 0.3223 0.0
H863 H 0.47401 0.45514 0.29619 0.0
H864 H 0.48105 0.46039 0.34421 0.0
H865 H 0.45793 0.42236 0.32949 0.0
C866 C 0.50333 0.55101 0.25667 0.0
N867 N 0.50143 0.51301 0.23677 0.0
N868 N 0.51105 0.4806 0.25586 0.0
C869 C 0.5211 0.49767 0.28704 0.0
C870 C 0.51598 0.54281 0.28929 0.0
C871 C 0.49016 0.59281 0.2477 0.0
H872 H 0.4733 0.58514 0.23262 0.0
H873 H 0.48546 0.61147 0.27317 0.0
H874 H 0.50203 0.61397 0.2305 0.0
O875 O 0.50313 0.45112 0.15891 0.0
O876 O 0.51273 0.39642 0.19757 0.0
H877 H 0.55311 0.49333 0.32016 0.0
H878 H 0.5276 0.46522 0.33877 0.0
C879 C 0.53727 0.47259 0.31274 0.0
H880 H 0.54361 0.44144 0.29972 0.0
H881 H 0.53409 0.34758 0.27433 0.0
O882 O 0.48389 0.55558 0.16387 0.0
C883 C 0.51179 0.4123 0.16475 0.0
Co884 Co 0.80827 0.49832 0.1502 0.0
Co885 Co 0.79565 0.42201 0.09638 0.0
C886 C 0.84717 0.44398 0.12064 0.0
O887 O 0.84075 0.47602 0.14111 0.0
O888 O 0.83184 0.42125 0.1025 0.0
C889 C 0.83084 0.57532 0.18068 0.0
O890 O 0.85098 0.55319 0.17556 0.0
C891 C 0.80077 0.39929 1.02134 0.0
C892 C 0.77014 0.3548 1.00934 0.0
C893 C 0.78816 0.37979 0.99251 0.0
N894 N 0.79041 0.38734 0.05339 0.0
N895 N 0.77258 0.35951 0.04632 0.0
C896 C 0.81889 0.43629 1.01822 0.0
H897 H 0.82072 0.45493 1.04433 0.0
H898 H 0.81364 0.46018 0.99632 0.0
H899 H 0.83678 0.42217 1.011 0.0
C900 C 0.79134 0.55081 0.08386 0.0
N901 N 0.79325 0.51282 0.10376 0.0
N902 N 0.78365 0.48039 0.08466 0.0
C903 C 0.7736 0.49745 0.05347 0.0
C904 C 0.7787 0.5426 0.05123 0.0
C905 C 0.80448 0.59264 0.09285 0.0
H906 H 0.82135 0.585 0.10793 0.0
H907 H 0.80918 0.61132 0.06739 0.0
H908 H 0.7926 0.61377 0.11004 0.0
O909 O 0.79155 0.45095 0.18163 0.0
O910 O 0.78199 0.39622 0.14297 0.0
H911 H 0.7416 0.49306 1.02034 0.0
H912 H 0.76713 0.465 1.00173 0.0
C913 C 0.75745 0.47235 1.02776 0.0
H914 H 0.75113 0.44118 1.04077 0.0
H915 H 0.76067 0.34732 0.06627 0.0
O916 O 0.81075 0.55542 0.17667 0.0
C917 C 0.78291 0.41211 0.17578 0.0
Co918 Co 0.4863 0.84191 0.15013 0.0
Co919 Co 0.49909 0.91818 0.09635 0.0
C920 C 0.44752 0.89642 0.12053 0.0
O921 O 0.45384 0.86432 0.14099 0.0
O922 O 0.46291 0.91911 0.10247 0.0
C923 C 0.4637 0.76489 0.18051 0.0
O924 O 0.44356 0.78697 0.17523 0.0
C925 C 0.49399 0.94085 1.02131 0.0
C926 C 0.52466 0.98524 1.00928 0.0
C927 C 0.50662 0.96029 0.99246 0.0
N928 N 0.50436 0.9528 0.05335 0.0
N929 N 0.52222 0.98057 0.04626 0.0
C930 C 0.47583 0.90391 1.01822 0.0
H931 H 0.474 0.88529 1.04434 0.0
H932 H 0.48105 0.87999 0.99633 0.0
H933 H 0.45795 0.91808 1.01101 0.0
C934 C 0.50322 0.78937 0.0838 0.0
N935 N 0.50134 0.82736 0.10371 0.0
N936 N 0.51101 0.85975 0.08466 0.0
C937 C 0.52107 0.84267 0.05348 0.0
C938 C 0.51591 0.79755 0.05121 0.0
C939 C 0.49 0.74761 0.09272 0.0
H940 H 0.47313 0.75532 0.10777 0.0
H941 H 0.48529 0.72899 0.06723 0.0
H942 H 0.50183 0.72638 0.10991 0.0
O943 O 0.50305 0.88925 0.18158 0.0
O944 O 0.51275 0.94392 0.14294 0.0
H945 H 0.55311 0.84694 1.02042 0.0
H946 H 0.52764 0.87512 1.00177 0.0
C947 C 0.53728 0.86772 1.02782 0.0
H948 H 0.54363 0.89885 1.04085 0.0
H949 H 0.53414 0.99274 0.0662 0.0
O950 O 0.48378 0.78483 0.17661 0.0
C951 C 0.51176 0.92805 0.17576 0.0
Co952 Co 0.23633 0.24846 0.90024 0.0
Co953 Co 0.24911 0.1722 0.84646 0.0
C954 C 0.19754 0.19398 0.87062 0.0
O955 O 0.20387 0.22607 0.89109 0.0
O956 O 0.21293 0.17129 0.85256 0.0
C957 C 0.21373 0.32548 0.93063 0.0
O958 O 0.19359 0.30339 0.92537 0.0
C959 C 0.244 0.14955 0.77141 0.0
C960 C 0.27467 0.10515 0.75936 0.0
C961 C 0.25662 0.13011 0.74256 0.0
N962 N 0.25438 0.13759 0.80345 0.0
N963 N 0.27223 0.10982 0.79635 0.0
C964 C 0.22585 0.18649 0.76833 0.0
H965 H 0.22403 0.20512 0.79445 0.0
H966 H 0.23107 0.21041 0.74643 0.0
H967 H 0.20796 0.17233 0.76114 0.0
C968 C 0.25326 0.30101 0.83392 0.0
N969 N 0.25138 0.26302 0.85383 0.0
N970 N 0.26105 0.23062 0.83477 0.0
C971 C 0.27111 0.2477 0.8036 0.0
C972 C 0.26595 0.29283 0.80133 0.0
C973 C 0.24004 0.34277 0.84285 0.0
H974 H 0.22318 0.33507 0.8579 0.0
H975 H 0.23534 0.3614 0.81735 0.0
H976 H 0.25188 0.36399 0.86004 0.0
O977 O 0.25306 0.20111 0.93169 0.0
O978 O 0.26276 0.14644 0.89305 0.0
H979 H 0.30314 0.24342 0.77053 0.0
H980 H 0.27766 0.21525 0.75189 0.0
C981 C 0.28731 0.22265 0.77793 0.0
H982 H 0.29366 0.19152 0.79097 0.0
H983 H 0.28415 0.09764 0.81628 0.0
O984 O 0.23381 0.30555 0.92672 0.0
C985 C 0.26177 0.16231 0.92587 0.0
Co986 Co 0.55824 0.59186 0.90018 0.0
Co987 Co 0.54561 0.66816 0.84635 0.0
C988 C 0.59713 0.64622 0.87062 0.0
O989 O 0.59072 0.61418 0.8911 0.0
O990 O 0.5818 0.66894 0.85248 0.0
C991 C 0.58081 0.51488 0.93068 0.0
O992 O 0.60095 0.53701 0.92555 0.0
C993 C 0.55076 0.69084 0.77131 0.0
C994 C 0.52013 0.73532 0.75927 0.0
C995 C 0.53816 0.71033 0.74246 0.0
N996 N 0.54039 0.7028 0.80335 0.0
N997 N 0.52256 0.73062 0.79625 0.0
C998 C 0.56889 0.65385 0.76821 0.0
H999 H 0.5707 0.63521 0.79433 0.0
H1000 H 0.56365 0.62996 0.74631 0.0
H1001 H 0.58678 0.66797 0.76102 0.0
C1002 C 0.54133 0.53935 0.83384 0.0
N1003 N 0.54323 0.57734 0.85374 0.0
N1004 N 0.53363 0.60977 0.83464 0.0
C1005 C 0.52358 0.5927 0.80345 0.0
C1006 C 0.52869 0.54755 0.80121 0.0
C1007 C 0.55448 0.49754 0.84283 0.0
H1008 H 0.57134 0.50519 0.85792 0.0
H1009 H 0.55919 0.47887 0.81736 0.0
H1010 H 0.5426 0.47639 0.86001 0.0
O1011 O 0.54151 0.63923 0.9316 0.0
O1012 O 0.53195 0.69395 0.89293 0.0
H1013 H 0.49159 0.59707 0.7703 0.0
H1014 H 0.51711 0.62515 0.75171 0.0
C1015 C 0.50743 0.61779 0.77773 0.0
H1016 H 0.5011 0.64896 0.79074 0.0
H1017 H 0.51064 0.74281 0.81618 0.0
O1018 O 0.56073 0.53477 0.92666 0.0
C1019 C 0.53286 0.67806 0.92575 0.0
Co1020 Co 0.23638 0.5919 0.94046 0.0
Co1021 Co 0.249 0.66821 0.99429 0.0
C1022 C 0.19748 0.64623 0.97001 0.0
O1023 O 0.2039 0.61419 0.94954 0.0
O1024 O 0.21281 0.66897 0.98815 0.0
C1025 C 0.21382 0.5149 0.90996 0.0
O1026 O 0.19368 0.53704 0.91508 0.0
C1027 C 0.24385 0.69089 0.06933 0.0
C1028 C 0.27447 0.73538 0.08137 0.0
C1029 C 0.25645 0.71038 0.09818 0.0
N1030 N 0.25422 0.70286 1.03729 0.0
N1031 N 0.27205 0.73069 1.04439 0.0
C1032 C 0.22573 0.65389 0.07242 0.0
H1033 H 0.22392 0.63525 0.0463 0.0
H1034 H 0.23097 0.63 0.09432 0.0
H1035 H 0.20784 0.66799 0.07962 0.0
C1036 C 0.25332 0.53941 1.0068 0.0
N1037 N 0.2514 0.5774 0.9869 0.0
N1038 N 0.261 0.60983 1.00599 0.0
C1039 C 0.27105 0.59278 1.03719 0.0
C1040 C 0.26595 0.54763 1.03943 0.0
C1041 C 0.24017 0.49758 0.9978 0.0
H1042 H 0.22331 0.50522 0.98272 0.0
H1043 H 0.23548 0.4789 1.02327 0.0
H1044 H 0.25206 0.47645 0.98061 0.0
O1045 O 0.2531 0.63928 0.90903 0.0
O1046 O 0.26266 0.69401 0.9477 0.0
H1047 H 0.30304 0.59718 0.07032 0.0
H1048 H 0.27752 0.62524 0.08892 0.0
C1049 C 0.2872 0.61789 0.0629 0.0
H1050 H 0.29352 0.64905 0.04988 0.0
H1051 H 0.28396 0.74289 1.02445 0.0
O1052 O 0.23391 0.53479 0.91399 0.0
C1053 C 0.26174 0.67812 0.91488 0.0
Co1054 Co 0.55831 0.24847 0.94034 0.0
Co1055 Co 0.54566 0.17218 0.99417 0.0
C1056 C 0.59719 0.19409 0.9699 0.0
O1057 O 0.59079 0.22614 0.94943 0.0
O1058 O 0.58184 0.17138 0.98803 0.0
C1059 C 0.58087 0.32548 0.90988 0.0
O1060 O 0.60101 0.30338 0.91505 0.0
C1061 C 0.55079 0.1495 0.06921 0.0
C1062 C 0.52015 0.10503 0.08124 0.0
C1063 C 0.53818 0.13003 0.09805 0.0
N1064 N 0.54042 0.13754 1.03716 0.0
N1065 N 0.52259 0.10972 1.04426 0.0
C1066 C 0.56892 0.18649 0.07231 0.0
H1067 H 0.57074 0.20512 0.04618 0.0
H1068 H 0.56368 0.21039 0.0942 0.0
H1069 H 0.58681 0.17237 0.07952 0.0
C1070 C 0.54139 0.30099 1.00668 0.0
N1071 N 0.54329 0.26299 0.98678 0.0
N1072 N 0.53368 0.23057 1.00587 0.0
C1073 C 0.52363 0.24764 1.03706 0.0
C1074 C 0.52874 0.29279 1.0393 0.0
C1075 C 0.55455 0.34279 0.9977 0.0
H1076 H 0.57142 0.33514 0.98262 0.0
H1077 H 0.55926 0.36146 1.02317 0.0
H1078 H 0.54268 0.36395 0.98051 0.0
O1079 O 0.54158 0.2011 0.90892 0.0
O1080 O 0.53199 0.14639 0.94758 0.0
H1081 H 0.49162 0.24328 0.07018 0.0
H1082 H 0.51714 0.2152 0.08879 0.0
C1083 C 0.50747 0.22256 0.06277 0.0
H1084 H 0.50114 0.19139 0.04975 0.0
H1085 H 0.51067 0.09753 1.02432 0.0
O1086 O 0.56079 0.30555 0.91385 0.0
C1087 C 0.53292 0.16227 0.91476 0.0
C1088 C 0.30988 0.43244 0.40402 0.0
C1089 C 0.28807 0.44364 0.38661 0.0
H1090 H 0.327 0.39891 0.44897 0.0
C1091 C 0.26617 0.43189 0.40361 0.0
H1092 H 0.32702 0.44149 0.39179 0.0
C1093 C 0.26616 0.40863 0.43709 0.0
C1094 C 0.28805 0.39683 0.45411 0.0
H1095 H 0.24907 0.43951 0.39053 0.0
H1096 H 0.24905 0.40104 0.45017 0.0
C1097 C 0.30986 0.40799 0.43672 0.0
C1098 C 0.98477 0.93231 0.43666 0.0
C1099 C 1.00659 0.94349 0.45406 0.0
H1100 H 0.96762 0.89881 0.39172 0.0
C1101 C 0.02848 0.9317 0.43703 0.0
H1102 H 0.96764 0.94138 0.44891 0.0
C1103 C 0.02847 0.90844 0.40355 0.0
C1104 C 1.00657 0.89668 0.38655 0.0
H1105 H 0.04559 0.9393 0.45011 0.0
H1106 H 0.04557 0.90084 0.39047 0.0
C1107 C 0.98477 0.90786 0.40396 0.0
C1108 C 0.30994 0.93244 0.90403 0.0
C1109 C 0.28813 0.94362 0.88663 0.0
H1110 H 0.32708 0.89894 0.94898 0.0
C1111 C 0.26623 0.93185 0.90364 0.0
H1112 H 0.32708 0.9415 0.89178 0.0
C1113 C 0.26623 0.90859 0.93712 0.0
C1114 C 0.28813 0.89681 0.95413 0.0
H1115 H 0.24913 0.93945 0.89056 0.0
H1116 H 0.24913 0.90098 0.9502 0.0
C1117 C 0.30994 0.908 0.93673 0.0
C1118 C 0.98479 0.43231 0.93665 0.0
C1119 C 1.00661 0.44346 0.95404 0.0
H1120 H 0.96761 0.39882 0.89173 0.0
C1121 C 0.02849 0.43165 0.93701 0.0
H1122 H 0.96765 0.4414 0.94891 0.0
C1123 C 0.02847 0.40838 0.90353 0.0
C1124 C 1.00656 0.39664 0.88653 0.0
H1125 H 0.0456 0.43923 0.95007 0.0
H1126 H 0.04557 0.40076 0.89043 0.0
C1127 C 0.98476 0.40786 0.90396 0.0
C1128 C 0.77854 0.65836 0.68704 0.0
C1129 C 0.75664 0.64661 0.70405 0.0
H1130 H 0.79566 0.68918 0.64047 0.0
C1131 C 0.73484 0.6578 0.68663 0.0
H1132 H 0.79564 0.65075 0.70012 0.0
C1133 C 0.73485 0.68224 0.65393 0.0
C1134 C 0.75666 0.69339 0.63652 0.0
H1135 H 0.71769 0.64876 0.69887 0.0
H1136 H 0.71771 0.69132 0.64168 0.0
C1137 C 0.77855 0.6816 0.65355 0.0
C1138 C 0.05993 0.18236 0.68667 0.0
C1139 C 0.03813 0.19356 0.70408 0.0
H1140 H 0.07706 0.14885 0.64171 0.0
C1141 C 1.01622 0.1818 0.68707 0.0
H1142 H 0.07708 0.19141 0.6989 0.0
C1143 C 1.01621 0.15855 0.65359 0.0
C1144 C 0.0381 0.14675 0.63657 0.0
H1145 H 0.99912 0.18942 0.70016 0.0
H1146 H 0.9991 0.15096 0.64052 0.0
C1147 C 0.05992 0.15792 0.65397 0.0
C1148 C 0.73484 0.15779 0.18663 0.0
C1149 C 0.75665 0.14661 0.20404 0.0
H1150 H 0.71771 0.1913 0.14168 0.0
C1151 C 0.77854 0.15837 0.18703 0.0
H1152 H 0.7177 0.14873 0.19887 0.0
C1153 C 0.77855 0.18161 0.15354 0.0
C1154 C 0.75666 0.19339 0.13652 0.0
H1155 H 0.79565 0.15076 0.20012 0.0
H1156 H 0.79566 0.1892 0.14046 0.0
C1157 C 0.73485 0.18223 0.15393 0.0
C1158 C 1.01608 0.68174 0.18707 0.0
C1159 C 0.03798 0.69352 0.20408 0.0
H1160 H 0.99898 0.65088 0.14051 0.0
C1161 C 0.05979 0.68235 0.18667 0.0
H1162 H 0.99898 0.68933 0.20016 0.0
C1163 C 0.05979 0.6579 0.15398 0.0
C1164 C 0.03798 0.64671 0.13657 0.0
H1165 H 0.07693 0.69142 0.19891 0.0
H1166 H 0.07693 0.64884 0.14173 0.0
C1167 C 1.01608 0.65848 0.15359 0.0
C1168 C 0.80979 0.40775 0.93663 0.0
C1169 C 0.78799 0.39654 0.95406 0.0
H1170 H 0.8269 0.44128 0.89167 0.0
C1171 C 0.76609 0.40826 0.93706 0.0
H1172 H 0.82694 0.39872 0.94886 0.0
C1173 C 0.76606 0.4315 0.90357 0.0
C1174 C 0.78794 0.44331 0.88654 0.0
H1175 H 0.74899 0.40063 0.95016 0.0
H1176 H 0.74894 0.43906 0.8905 0.0
C1177 C 0.80976 0.43218 0.90393 0.0
C1178 C 0.48494 0.93236 0.93661 0.0
C1179 C 0.50675 0.94352 0.95402 0.0
H1180 H 0.4678 0.89886 0.89168 0.0
C1181 C 0.52865 0.93175 0.93701 0.0
H1182 H 0.4678 0.94143 0.94885 0.0
C1183 C 0.52864 0.90851 0.90351 0.0
C1184 C 0.50675 0.89675 0.8865 0.0
H1185 H 0.54575 0.93934 0.95009 0.0
H1186 H 0.54575 0.90091 0.89043 0.0
C1187 C 0.48494 0.90792 0.90392 0.0
C1188 C 0.80978 0.90775 0.43664 0.0
C1189 C 0.78797 0.89657 0.45407 0.0
H1190 H 0.82691 0.94126 0.3917 0.0
C1191 C 0.76607 0.90833 0.43705 0.0
H1192 H 0.82692 0.8987 0.44888 0.0
C1193 C 0.76606 0.93157 0.40356 0.0
C1194 C 0.78796 0.94335 0.38654 0.0
H1195 H 0.74897 0.90072 0.45014 0.0
H1196 H 0.74896 0.93915 0.39048 0.0
C1197 C 0.80977 0.93219 0.40394 0.0
C1198 C 0.52857 0.40859 0.40353 0.0
C1199 C 0.50669 0.3968 0.3865 0.0
H1200 H 0.54566 0.43943 0.45011 0.0
C1201 C 0.48487 0.40795 0.4039 0.0
H1202 H 0.54568 0.40101 0.39045 0.0
C1203 C 0.48486 0.43238 0.43661 0.0
C1204 C 0.50666 0.44357 0.45403 0.0
H1205 H 0.46773 0.39887 0.39165 0.0
H1206 H 0.46771 0.44142 0.44884 0.0
C1207 C 0.52856 0.43182 0.43702 0.0
C1208 C 0.23478 0.658 0.18673 0.0
C1209 C 0.25659 0.64682 0.20413 0.0
H1210 H 0.21763 0.6915 0.14178 0.0
C1211 C 0.27848 0.6586 0.18711 0.0
H1212 H 0.21764 0.64894 0.19897 0.0
C1213 C 0.27848 0.68185 0.15363 0.0
C1214 C 0.25658 0.69362 0.13662 0.0
H1215 H 0.29559 0.65099 0.20019 0.0
H1216 H 0.29559 0.68945 0.14055 0.0
C1217 C 0.23478 0.68244 0.15403 0.0
C1218 C 0.51614 0.15855 0.15351 0.0
C1219 C 0.53804 0.14679 0.13649 0.0
H1220 H 0.49903 0.18939 0.20007 0.0
C1221 C 0.55985 0.15797 0.15391 0.0
H1222 H 0.49904 0.15095 0.14042 0.0
C1223 C 0.55984 0.18241 0.18661 0.0
C1224 C 0.53803 0.19357 0.20402 0.0
H1225 H 0.57699 0.14891 0.14167 0.0
H1226 H 0.57698 0.19147 0.19886 0.0
C1227 C 0.51614 0.1818 0.18699 0.0
C1228 C 0.27861 0.18194 0.65361 0.0
C1229 C 0.25671 0.19368 0.63661 0.0
H1230 H 0.29574 0.15111 0.70017 0.0
C1231 C 0.23491 0.18247 0.65403 0.0
H1232 H 0.29571 0.18956 0.64052 0.0
C1233 C 0.23493 0.15802 0.68672 0.0
C1234 C 0.25674 0.14688 0.70412 0.0
H1235 H 0.21776 0.19152 0.6418 0.0
H1236 H 0.21779 0.14893 0.69897 0.0
C1237 C 0.27863 0.15869 0.6871 0.0
C1238 C 0.51614 0.65855 0.65351 0.0
C1239 C 0.53804 0.64679 0.6365 0.0
H1240 H 0.49903 0.68939 0.70007 0.0
C1241 C 0.55984 0.65797 0.65391 0.0
H1242 H 0.49904 0.65095 0.64042 0.0
C1243 C 0.55984 0.68241 0.68661 0.0
C1244 C 0.53803 0.69357 0.70402 0.0
H1245 H 0.57699 0.64891 0.64167 0.0
H1246 H 0.57698 0.69147 0.69886 0.0
C1247 C 0.51613 0.6818 0.68699 0.0
C1248 C 0.385 0.4153 0.25434 0.0
C1249 C 0.37279 0.40875 0.22071 0.0
H1250 H 0.41895 0.43034 0.28046 0.0
C1251 C 0.38529 0.41367 0.18719 0.0
H1252 H 0.37562 0.41144 0.28047 0.0
C1253 C 0.40957 0.42577 0.18718 0.0
C1254 C 0.42196 0.43154 0.22069 0.0
H1255 H 0.37614 0.40883 0.16098 0.0
H1256 H 0.41881 0.42998 0.16096 0.0
C1257 C 0.40964 0.42582 0.25434 0.0
C1258 C 0.90924 0.92748 0.1872 0.0
C1259 C 0.92186 0.93166 0.22068 0.0
H1260 H 0.87563 0.91168 0.161 0.0
C1261 C 0.90976 0.92437 0.2543 0.0
H1262 H 0.91829 0.93288 0.16098 0.0
C1263 C 0.88513 0.91381 0.25435 0.0
C1264 C 0.8727 0.90881 0.22072 0.0
H1265 H 0.91924 0.92765 0.28041 0.0
H1266 H 0.87591 0.90869 0.28047 0.0
C1267 C 0.88496 0.91534 0.1872 0.0
C1268 C 0.38567 0.92917 0.15336 0.0
C1269 C 0.37282 0.932 0.11998 0.0
H1270 H 0.41945 0.91441 0.17946 0.0
C1271 C 0.3847 0.92337 0.08639 0.0
H1272 H 0.37679 0.93559 0.17956 0.0
C1273 C 0.40934 0.91281 0.08627 0.0
C1274 C 0.42198 0.90916 0.11982 0.0
H1275 H 0.37506 0.92558 0.06035 0.0
H1276 H 0.41839 0.90663 0.06017 0.0
C1277 C 0.40995 0.91705 0.15332 0.0
C1278 C 0.90955 0.41444 0.15342 0.0
C1279 C 0.92194 0.40873 0.1199 0.0
H1280 H 0.87611 0.43134 0.17964 0.0
C1281 C 0.90962 0.41448 0.08626 0.0
H1282 H 0.91879 0.4102 0.17964 0.0
C1283 C 0.88498 0.425 0.08627 0.0
C1284 C 0.87277 0.4315 0.1199 0.0
H1285 H 0.91893 0.41001 0.06013 0.0
H1286 H 0.8756 0.42889 0.06014 0.0
C1287 C 0.88527 0.42654 0.15341 0.0
C1288 C 0.65947 0.67609 0.9034 0.0
C1289 C 0.6719 0.68147 0.86989 0.0
H1290 H 0.62599 0.65946 0.92962 0.0
C1291 C 0.65963 0.67539 0.83624 0.0
H1292 H 0.66866 0.68058 0.92963 0.0
C1293 C 0.63499 0.66488 0.83624 0.0
C1294 C 0.62273 0.65872 0.86988 0.0
H1295 H 0.66898 0.6796 0.81012 0.0
H1296 H 0.62564 0.66073 0.81012 0.0
C1297 C 0.63518 0.664 0.9034 0.0
C1298 C 0.13561 0.16158 0.90339 0.0
C1299 C 0.12283 0.15842 0.86997 0.0
H1300 H 0.16935 0.17659 0.92955 0.0
C1301 C 0.13478 0.16673 0.83638 0.0
H1302 H 0.12668 0.15541 0.92959 0.0
C1303 C 0.15942 0.17729 0.8363 0.0
C1304 C 0.17199 0.18127 0.86988 0.0
H1305 H 0.12519 0.16426 0.81031 0.0
H1306 H 0.16851 0.18322 0.8102 0.0
C1307 C 0.15989 0.17371 0.90338 0.0
C1308 C 0.63501 0.17523 1.00429 0.0
C1309 C 0.62278 0.18156 0.97064 0.0
H1310 H 0.66897 0.16031 1.03043 0.0
C1311 C 0.63525 0.17638 0.93713 0.0
H1312 H 0.62564 0.17928 1.03041 0.0
C1313 C 0.65953 0.16423 0.93714 0.0
C1314 C 0.67193 0.15868 0.97066 0.0
H1315 H 0.62608 0.18105 0.91091 0.0
H1316 H 0.66874 0.15983 0.91092 0.0
C1317 C 0.65965 0.16466 1.0043 0.0
C1318 C 0.13503 0.67579 1.00439 0.0
C1319 C 0.12271 0.68147 0.97075 0.0
H1320 H 0.16907 0.66145 1.03051 0.0
C1321 C 0.13509 0.67569 0.93723 0.0
H1322 H 0.12574 0.68033 1.03052 0.0
C1323 C 0.15937 0.66358 0.93724 0.0
C1324 C 0.17188 0.6587 0.97075 0.0
H1325 H 0.12584 0.67986 0.91101 0.0
H1326 H 0.16851 0.65873 0.91102 0.0
C1327 C 0.15968 0.66527 1.00438 0.0
C1328 C 0.4095 0.92669 0.75436 0.0
C1329 C 0.42197 0.93136 0.72074 0.0
H1330 H 0.37536 0.91313 0.78042 0.0
C1331 C 0.40975 0.92453 0.68723 0.0
H1332 H 0.41869 0.93203 0.78047 0.0
C1333 C 0.38547 0.91243 0.68723 0.0
C1334 C 0.37281 0.90857 0.72071 0.0
H1335 H 0.41912 0.92795 0.66103 0.0
H1336 H 0.37644 0.9068 0.66102 0.0
C1337 C 0.38486 0.91616 0.75432 0.0
C1338 C 0.90988 0.42347 0.75425 0.0
C1339 C 0.92183 0.43179 0.72066 0.0
H1340 H 0.87616 0.40698 0.78043 0.0
C1341 C 0.90905 0.42865 0.68724 0.0
H1342 H 0.91948 0.42593 0.78031 0.0
C1343 C 0.88476 0.41652 0.68725 0.0
C1344 C 0.87267 0.40895 0.72075 0.0
H1345 H 0.91797 0.43483 0.66104 0.0
H1346 H 0.87531 0.41364 0.66108 0.0
C1347 C 0.88525 0.41291 0.75433 0.0
C1348 C 0.38516 0.42603 0.65345 0.0
C1349 C 0.37275 0.43159 0.61994 0.0
H1350 H 0.41862 0.40921 0.67965 0.0
C1351 C 0.38502 0.42565 0.58629 0.0
H1352 H 0.37595 0.4304 0.67968 0.0
C1353 C 0.40966 0.4151 0.58628 0.0
C1354 C 0.4219 0.40875 0.61991 0.0
H1355 H 0.37569 0.43001 0.56017 0.0
H1356 H 0.41902 0.41107 0.56015 0.0
C1357 C 0.40944 0.4139 0.65343 0.0
C1358 C 0.8851 0.92557 0.65341 0.0
C1359 C 0.87273 0.93137 0.61989 0.0
H1360 H 0.91852 0.90861 0.67965 0.0
C1361 C 0.88506 0.9257 0.58625 0.0
H1362 H 0.87585 0.92975 0.67963 0.0
C1363 C 0.90971 0.91518 0.58628 0.0
C1364 C 0.9219 0.9086 0.61992 0.0
H1365 H 0.87577 0.93024 0.56012 0.0
H1366 H 0.91911 0.91135 0.56016 0.0
C1367 C 0.90938 0.91347 0.65342 0.0
C1368 C 0.63516 0.16412 0.40339 0.0
C1369 C 0.62274 0.15871 0.36987 0.0
H1370 H 0.66863 0.18079 0.42962 0.0
C1371 C 0.63502 0.16475 0.33623 0.0
H1372 H 0.62596 0.15967 0.42961 0.0
C1373 C 0.65966 0.17526 0.33624 0.0
C1374 C 0.67191 0.18146 0.36988 0.0
H1375 H 0.62568 0.1605 0.3101 0.0
H1376 H 0.66902 0.17937 0.31011 0.0
C1377 C 0.65945 0.17622 0.40339 0.0
C1378 C 0.15976 0.67466 0.33635 0.0
C1379 C 0.17188 0.68174 0.36999 0.0
H1380 H 0.12589 0.65917 0.31017 0.0
C1381 C 0.15928 0.67734 0.40347 0.0
H1382 H 0.16922 0.67811 0.31025 0.0
C1383 C 0.135 0.6652 0.40345 0.0
C1384 C 0.12272 0.6589 0.36992 0.0
H1385 H 0.16836 0.68257 0.4297 0.0
H1386 H 0.12569 0.66138 0.42966 0.0
C1387 C 0.13512 0.66411 0.3363 0.0
C1388 C 0.65961 0.66443 0.50432 0.0
C1389 C 0.67193 0.6587 0.47068 0.0
H1390 H 0.62558 0.67886 0.53041 0.0
C1391 C 0.65957 0.6645 0.43715 0.0
H1392 H 0.6689 0.65989 0.53044 0.0
C1393 C 0.63529 0.67666 0.43715 0.0
C1394 C 0.62278 0.68158 0.47065 0.0
H1395 H 0.66881 0.66029 0.41094 0.0
H1396 H 0.62615 0.68152 0.41092 0.0
C1397 C 0.63498 0.675 0.5043 0.0
C1398 C 0.1596 0.16443 0.50439 0.0
C1399 C 0.17195 0.1589 0.47076 0.0
H1400 H 0.12554 0.17866 0.53047 0.0
C1401 C 0.15961 0.16483 0.43723 0.0
H1402 H 0.16887 0.15978 0.53052 0.0
C1403 C 0.13532 0.17693 0.43722 0.0
C1404 C 0.12278 0.18166 0.47071 0.0
H1405 H 0.16888 0.16076 0.41102 0.0
H1406 H 0.12621 0.18189 0.41099 0.0
C1407 C 0.13495 0.17495 0.50436 0.0
C1408 C 0.30925 0.14787 0.17506 0.0
C1409 C 0.33106 0.12449 0.17868 0.0
H1410 H 0.29206 0.20934 0.16274 0.0
C1411 C 0.35295 0.14753 0.1744 0.0
H1412 H 0.29203 0.13121 0.17802 0.0
C1413 C 0.35297 0.19291 0.16648 0.0
C1414 C 0.33109 0.21598 0.16215 0.0
H1415 H 0.37009 0.13045 0.17666 0.0
H1416 H 0.37012 0.20996 0.16426 0.0
C1417 C 0.30927 0.19265 0.16572 0.0
C1418 C 0.98537 0.14774 0.16566 0.0
C1419 C 0.96356 0.12438 0.16207 0.0
H1420 H 1.00258 0.20922 0.17791 0.0
C1421 C 0.94167 0.14744 0.16635 0.0
H1422 H 1.00259 0.13107 0.16271 0.0
C1423 C 0.94167 0.19283 0.17423 0.0
C1424 C 0.96355 0.21589 0.17853 0.0
H1425 H 0.92453 0.13037 0.16411 0.0
H1426 H 0.92452 0.20989 0.17645 0.0
C1427 C 0.98537 0.19254 0.17495 0.0
C1428 C 0.69163 0.9427 0.91639 0.0
C1429 C 0.71351 0.96576 0.91208 0.0
H1430 H 0.67449 0.88024 0.9265 0.0
C1431 C 0.73533 0.94241 0.91564 0.0
H1432 H 0.67449 0.95976 0.91417 0.0
C1433 C 0.73533 0.89762 0.92494 0.0
C1434 C 0.71352 0.87425 0.92853 0.0
H1435 H 0.75254 0.95909 0.91267 0.0
H1436 H 0.75255 0.88094 0.92788 0.0
C1437 C 0.69164 0.89731 0.92426 0.0
C1438 C 0.05926 0.94246 0.92497 0.0
C1439 C 0.08107 0.96583 0.92859 0.0
H1440 H 0.04207 0.88099 0.91269 0.0
C1441 C 0.10296 0.94278 0.92433 0.0
H1442 H 0.04205 0.95913 0.9279 0.0
C1443 C 0.10298 0.8974 0.91645 0.0
C1444 C 0.0811 0.87433 0.91212 0.0
H1445 H 0.1201 0.95986 0.92659 0.0
H1446 H 0.12012 0.88034 0.91424 0.0
C1447 C 0.05928 0.89767 0.91567 0.0
C1448 C 0.35297 0.69292 0.66634 0.0
C1449 C 0.33108 0.71596 0.66209 0.0
H1450 H 0.37014 0.63049 0.67643 0.0
C1451 C 0.30927 0.69258 0.66572 0.0
H1452 H 0.37011 0.71 0.66407 0.0
C1453 C 0.30929 0.64779 0.67502 0.0
C1454 C 0.33112 0.62445 0.67856 0.0
H1455 H 0.29205 0.70923 0.66278 0.0
H1456 H 0.29209 0.63109 0.678 0.0
C1457 C 0.35299 0.64754 0.67423 0.0
C1458 C 0.94171 0.64743 0.66633 0.0
C1459 C 0.96359 0.62438 0.66205 0.0
H1460 H 0.92455 0.70987 0.67646 0.0
C1461 C 0.9854 0.64774 0.66567 0.0
H1462 H 0.92456 0.63036 0.66408 0.0
C1463 C 0.9854 0.69253 0.67499 0.0
C1464 C 0.96358 0.71587 0.67856 0.0
H1465 H 1.00262 0.63108 0.66271 0.0
H1466 H 1.00261 0.70921 0.67797 0.0
C1467 C 0.9417 0.69281 0.67424 0.0
C1468 C 0.73532 0.44241 0.41562 0.0
C1469 C 0.7135 0.46576 0.41208 0.0
H1470 H 0.75255 0.38095 0.42784 0.0
C1471 C 0.69162 0.44269 0.4164 0.0
H1472 H 0.75253 0.4591 0.41264 0.0
C1473 C 0.69163 0.3973 0.42427 0.0
C1474 C 0.71352 0.37425 0.42852 0.0
H1475 H 0.67447 0.45975 0.4142 0.0
H1476 H 0.67449 0.38022 0.42652 0.0
C1477 C 0.73533 0.39762 0.42491 0.0
C1478 C 0.10302 0.39742 0.4163 0.0
C1479 C 0.08113 0.37437 0.41205 0.0
H1480 H 0.12019 0.45986 0.42636 0.0
C1481 C 0.05932 0.39775 0.41567 0.0
H1482 H 0.12016 0.38034 0.41404 0.0
C1483 C 0.05934 0.44254 0.42495 0.0
C1484 C 0.08116 0.46589 0.42848 0.0
H1485 H 0.0421 0.38108 0.41274 0.0
H1486 H 0.04213 0.45924 0.42792 0.0
C1487 C 0.10304 0.44281 0.42417 0.0
C1488 C 0.80938 0.14764 0.67491 0.0
C1489 C 0.83119 0.12426 0.67851 0.0
H1490 H 0.79219 0.20914 0.66269 0.0
C1491 C 0.85308 0.14731 0.67427 0.0
H1492 H 0.79216 0.13098 0.67783 0.0
C1493 C 0.8531 0.1927 0.66643 0.0
C1494 C 0.83122 0.21579 0.66213 0.0
H1495 H 0.87022 0.13022 0.67651 0.0
H1496 H 0.87025 0.20976 0.66424 0.0
C1497 C 0.8094 0.19244 0.66565 0.0
C1498 C 0.4853 0.14773 0.66563 0.0
C1499 C 0.46348 0.12438 0.6621 0.0
H1500 H 0.50253 0.2092 0.67782 0.0
C1501 C 0.4416 0.14746 0.66641 0.0
H1502 H 0.50251 0.13104 0.66266 0.0
C1503 C 0.44161 0.19285 0.67426 0.0
C1504 C 0.4635 0.2159 0.6785 0.0
H1505 H 0.42445 0.1304 0.66422 0.0
H1506 H 0.42447 0.20993 0.67651 0.0
C1507 C 0.48531 0.19253 0.6749 0.0
C1508 C 0.23537 0.89784 0.42503 0.0
C1509 C 0.21356 0.87448 0.42862 0.0
H1510 H 0.25258 0.95932 0.41278 0.0
C1511 C 0.19167 0.89754 0.42436 0.0
H1512 H 0.25259 0.88117 0.42797 0.0
C1513 C 0.19167 0.94293 0.41649 0.0
C1514 C 0.21355 0.96599 0.41219 0.0
H1515 H 0.17453 0.88047 0.4266 0.0
H1516 H 0.17452 0.95999 0.41428 0.0
C1517 C 0.23536 0.94264 0.41574 0.0
C1518 C 0.60302 0.94289 0.42423 0.0
C1519 C 0.58113 0.96593 0.42851 0.0
H1520 H 0.62018 0.88045 0.41412 0.0
C1521 C 0.55932 0.94255 0.42492 0.0
H1522 H 0.62016 0.95997 0.42646 0.0
C1523 C 0.55934 0.89776 0.41561 0.0
C1524 C 0.58116 0.87442 0.41204 0.0
H1525 H 0.5421 0.95921 0.42787 0.0
H1526 H 0.54212 0.88108 0.41265 0.0
C1527 C 0.60303 0.8975 0.41634 0.0
C1528 C 0.80934 0.64764 0.17492 0.0
C1529 C 0.83115 0.62427 0.17852 0.0
H1530 H 0.79215 0.70913 0.16267 0.0
C1531 C 0.85304 0.64732 0.17427 0.0
H1532 H 0.79212 0.63098 0.17785 0.0
C1533 C 0.85305 0.69271 0.16641 0.0
C1534 C 0.83118 0.71579 0.1621 0.0
H1535 H 0.87018 0.63024 0.17652 0.0
H1536 H 0.8702 0.70977 0.16422 0.0
C1537 C 0.80936 0.69244 0.16564 0.0
C1538 C 0.48528 0.6478 0.16562 0.0
C1539 C 0.46348 0.62441 0.16202 0.0
H1540 H 0.50246 0.70932 0.17783 0.0
C1541 C 0.44158 0.64744 0.16625 0.0
H1542 H 0.5025 0.63115 0.1627 0.0
C1543 C 0.44155 0.69284 0.17408 0.0
C1544 C 0.46342 0.71594 0.17838 0.0
H1545 H 0.42445 0.63034 0.164 0.0
H1546 H 0.4244 0.70988 0.17626 0.0
C1547 C 0.48525 0.69261 0.17487 0.0
C1548 C 0.19158 0.39752 0.92418 0.0
C1549 C 0.21345 0.37443 0.9285 0.0
H1550 H 0.17447 0.46 0.91407 0.0
C1551 C 0.23528 0.39776 0.92499 0.0
H1552 H 0.17443 0.38047 0.92636 0.0
C1553 C 0.23531 0.44257 0.91573 0.0
C1554 C 0.2135 0.46595 0.91211 0.0
H1555 H 0.25249 0.38106 0.92797 0.0
H1556 H 0.25253 0.45923 0.91283 0.0
C1557 C 0.19161 0.44291 0.91633 0.0
C1558 C 0.60303 0.39751 0.91635 0.0
C1559 C 0.58115 0.37443 0.91204 0.0
H1560 H 0.62015 0.45997 0.92648 0.0
C1561 C 0.55933 0.39776 0.9156 0.0
H1562 H 0.62018 0.38045 0.91414 0.0
C1563 C 0.55931 0.44255 0.9249 0.0
C1564 C 0.58112 0.46593 0.9285 0.0
H1565 H 0.54212 0.38107 0.91263 0.0
H1566 H 0.54209 0.45921 0.92784 0.0
C1567 C 0.60301 0.44289 0.92423 0.0
C1568 C 0.2635 0.19374 0.34586 0.0
C1569 C 0.26801 0.20747 0.38256 0.0
H1570 H 0.26282 0.21132 0.28816 0.0
C1571 C 0.27636 0.25114 0.3881 0.0
H1572 H 0.25685 0.16065 0.34027 0.0
C1573 C 0.27976 0.2802 0.35808 0.0
C1574 C 0.27479 0.2667 0.32154 0.0
H1575 H 0.28003 0.26322 0.41578 0.0
H1576 H 0.2866 0.31313 0.36359 0.0
C1577 C 0.26683 0.22291 0.31586 0.0
C1578 C 1.01834 0.0892 0.38805 0.0
C1579 C 0.0267 0.13287 0.38251 0.0
H1580 H 1.00809 1.02721 0.36354 0.0
C1581 C 0.03119 0.1466 0.34581 0.0
H1582 H 1.01467 0.07712 0.41573 0.0
C1583 C 0.02786 0.11743 0.31581 0.0
C1584 C 1.01989 0.07364 0.32148 0.0
H1585 H 0.03785 0.17968 0.34021 0.0
H1586 H 0.03187 0.12902 0.2881 0.0
C1587 C 1.01494 0.06014 0.35803 0.0
C1588 C 0.26674 0.11755 1.02489 0.0
C1589 C 0.27474 0.07377 1.01923 0.0
H1590 H 0.25673 0.17978 1.00047 0.0
C1591 C 0.27975 0.0603 0.9827 0.0
H1592 H 0.26269 0.12911 0.05259 0.0
C1593 C 0.27636 0.08936 0.95268 0.0
C1594 C 0.26797 0.133 0.9582 0.0
H1595 H 0.28662 1.02738 0.9772 0.0
H1596 H 0.28007 0.07729 0.925 0.0
C1597 C 0.26342 0.14671 0.99489 0.0
C1598 C 0.03117 0.19361 0.99482 0.0
C1599 C 0.0267 0.20736 0.95812 0.0
H1600 H 0.03183 0.21117 0.05253 0.0
C1601 C 1.01837 0.25105 0.95258 0.0
H1602 H 0.0378 0.16051 1.00042 0.0
C1603 C 1.01497 0.2801 0.9826 0.0
C1604 C 1.0199 0.26658 1.01915 0.0
H1605 H 1.01473 0.26314 0.9249 0.0
H1606 H 1.00815 0.31304 0.97709 0.0
C1607 C 0.02784 0.22277 1.02482 0.0
C1608 C 0.76493 0.81008 0.7326 0.0
C1609 C 0.76989 0.82358 0.76915 0.0
H1610 H 0.76466 0.82706 0.6749 0.0
C1611 C 0.77785 0.86738 0.77482 0.0
H1612 H 0.75809 0.77715 0.72709 0.0
C1613 C 0.78118 0.89655 0.74482 0.0
C1614 C 0.77668 0.88281 0.70812 0.0
H1615 H 0.78186 0.87897 0.80253 0.0
H1616 H 0.78783 0.92964 0.75041 0.0
C1617 C 0.76833 0.83914 0.70258 0.0
C1618 C 1.01679 0.97282 0.77481 0.0
C1619 C 0.02477 1.01661 0.76914 0.0
H1620 H 1.0068 0.91057 0.7504 0.0
C1621 C 0.02974 1.0301 0.7326 0.0
H1622 H 1.01277 0.96124 0.80251 0.0
C1623 C 0.02634 1.00104 0.70258 0.0
C1624 C 1.01798 0.95738 0.70811 0.0
H1625 H 0.03659 0.06302 0.72709 0.0
H1626 H 0.03002 1.01312 0.6749 0.0
C1627 C 1.01346 0.94366 0.74481 0.0
C1628 C 0.76832 1.00089 0.138 0.0
C1629 C 0.77666 0.95721 0.13247 0.0
H1630 H 0.75809 0.06288 0.11349 0.0
C1631 C 0.78116 0.94347 0.09577 0.0
H1632 H 0.76465 1.01297 0.16568 0.0
C1633 C 0.77783 0.97263 0.06577 0.0
C1634 C 0.76988 1.01643 0.07144 0.0
H1635 H 0.78781 0.91038 0.09018 0.0
H1636 H 0.78184 0.96104 1.03806 0.0
C1637 C 0.76492 1.02994 0.10798 0.0
C1638 C 1.01681 0.86745 0.0658 0.0
C1639 C 0.02475 0.82364 0.07147 0.0
H1640 H 1.00685 0.92972 0.09021 0.0
C1641 C 0.02968 0.81013 0.10802 0.0
H1642 H 1.01282 0.87905 1.03809 0.0
C1643 C 0.02628 0.83918 0.13805 0.0
C1644 C 1.01796 0.88287 0.13251 0.0
H1645 H 0.03651 0.77718 0.11354 0.0
H1646 H 0.02993 0.82709 0.16573 0.0
C1647 C 1.01348 0.89662 0.0958 0.0
C1648 C 0.27972 0.78017 0.85808 0.0
C1649 C 0.27475 0.76668 0.82154 0.0
H1650 H 0.28 0.76318 0.91578 0.0
C1651 C 0.26678 0.7229 0.81586 0.0
H1652 H 0.28658 0.81309 0.86359 0.0
C1653 C 0.26344 0.69373 0.84586 0.0
C1654 C 0.26796 0.70745 0.88256 0.0
H1655 H 0.26275 0.71132 0.78816 0.0
H1656 H 0.25678 0.66064 0.84027 0.0
C1657 C 0.27632 0.75111 0.8881 0.0
C1658 C 1.0183 0.58918 0.88804 0.0
C1659 C 0.02667 0.63284 0.88251 0.0
H1660 H 1.00805 0.5272 0.86353 0.0
C1661 C 0.03119 0.64656 0.84582 0.0
H1662 H 1.01462 0.57711 0.91572 0.0
C1663 C 0.02787 0.6174 0.81581 0.0
C1664 C 1.01989 0.57361 0.82148 0.0
H1665 H 0.03786 0.67964 0.84023 0.0
H1666 H 0.0319 0.62898 0.78811 0.0
C1667 C 1.01491 0.56012 0.85802 0.0
C1668 C 0.26684 0.61756 0.52489 0.0
C1669 C 0.27478 0.57375 0.51921 0.0
H1670 H 0.25686 0.67982 0.50048 0.0
C1671 C 0.27971 0.56024 0.48266 0.0
H1672 H 0.26284 0.62916 0.55259 0.0
C1673 C 0.27631 0.5893 0.45264 0.0
C1674 C 0.26798 0.63298 0.45818 0.0
H1675 H 0.28654 0.5273 0.47715 0.0
H1676 H 0.27996 0.5772 0.42496 0.0
C1677 C 0.2635 0.64672 0.49488 0.0
C1678 C 1.01493 0.78006 0.48262 0.0
C1679 C 1.0199 0.76657 0.51917 0.0
H1680 H 1.01464 0.76309 0.42493 0.0
C1681 C 0.02786 0.72277 0.52484 0.0
H1682 H 1.00808 0.81299 0.47712 0.0
C1683 C 0.03119 0.69361 0.49483 0.0
C1684 C 0.02668 0.70734 0.45813 0.0
H1685 H 0.03188 0.71119 0.55254 0.0
H1686 H 0.03785 0.66052 0.50042 0.0
C1687 C 1.01832 0.75101 0.4526 0.0
C1688 C 0.78118 0.39653 0.24481 0.0
C1689 C 0.77669 0.38279 0.2081 0.0
H1690 H 0.78185 0.37896 0.30251 0.0
C1691 C 0.76835 0.33911 0.20257 0.0
H1692 H 0.78782 0.42963 0.2504 0.0
C1693 C 0.76495 0.31006 0.23259 0.0
C1694 C 0.7699 0.32356 0.26913 0.0
H1695 H 0.76469 0.32702 0.17489 0.0
H1696 H 0.75812 0.27712 0.22707 0.0
C1697 C 0.77785 0.36737 0.27481 0.0
C1698 C 0.02973 0.53011 0.2326 0.0
C1699 C 0.0248 0.51658 0.26915 0.0
H1700 H 0.02998 0.51316 0.17489 0.0
C1701 C 1.01687 0.47277 0.27481 0.0
H1702 H 0.03655 0.56306 0.22709 0.0
C1703 C 1.01353 0.44361 0.24481 0.0
C1704 C 1.018 0.45737 0.20811 0.0
H1705 H 1.01287 0.46116 0.30252 0.0
H1706 H 1.0069 0.41051 0.2504 0.0
C1707 C 0.02633 0.50106 0.20257 0.0
C1708 C 0.76831 0.50086 0.63799 0.0
C1709 C 0.77666 0.45719 0.63246 0.0
H1710 H 0.75807 0.56285 0.61347 0.0
C1711 C 0.78117 0.44345 0.59576 0.0
H1712 H 0.76463 0.51294 0.66567 0.0
C1713 C 0.77783 0.47261 0.56576 0.0
C1714 C 0.76988 0.51641 0.57142 0.0
H1715 H 0.78782 0.41036 0.59017 0.0
H1716 H 0.78185 0.46102 0.53805 0.0
C1717 C 0.76491 0.52991 0.60797 0.0
C1718 C 0.02631 0.33919 0.63804 0.0
C1719 C 1.01796 0.38287 0.6325 0.0
H1720 H 0.03655 0.2772 0.61352 0.0
C1721 C 1.01348 0.39661 0.5958 0.0
H1722 H 0.02996 0.3271 0.66572 0.0
C1723 C 1.01682 0.36745 0.56579 0.0
C1724 C 0.02477 0.32365 0.57146 0.0
H1725 H 1.00683 0.4297 0.5902 0.0
H1726 H 1.01281 0.37904 0.53809 0.0
C1727 C 0.02971 0.31014 0.60801 0.0
C1728 C 0.76356 0.19342 0.84577 0.0
C1729 C 0.76801 0.2072 0.88247 0.0
H1730 H 0.76292 0.21096 0.78805 0.0
C1731 C 0.77632 0.2509 0.888 0.0
H1732 H 0.75695 0.16031 0.84017 0.0
C1733 C 0.77972 0.27994 0.85798 0.0
C1734 C 0.77481 0.26641 0.82143 0.0
H1735 H 0.77995 0.26301 0.91568 0.0
H1736 H 0.78652 0.31291 0.86349 0.0
C1737 C 0.7669 0.22258 0.81576 0.0
C1738 C 0.52783 0.11754 0.81574 0.0
C1739 C 0.5199 0.07373 0.82141 0.0
H1740 H 0.53779 0.17981 0.84014 0.0
C1741 C 0.51497 0.06021 0.85796 0.0
H1742 H 0.53181 0.12915 0.78803 0.0
C1743 C 0.51837 0.08926 0.88798 0.0
C1744 C 0.5267 0.13295 0.88244 0.0
H1745 H 0.50815 1.02726 0.86347 0.0
H1746 H 0.51473 0.07716 0.91566 0.0
C1747 C 0.53116 0.14671 0.84574 0.0
C1748 C 0.76683 0.11737 0.52481 0.0
C1749 C 0.77477 0.07357 0.51913 0.0
H1750 H 0.75686 0.17963 0.50039 0.0
C1751 C 0.77972 0.06006 0.48259 0.0
H1752 H 0.76283 0.12897 0.55251 0.0
C1753 C 0.77632 0.08911 0.45256 0.0
C1754 C 0.76798 0.13279 0.4581 0.0
H1755 H 0.78654 1.02711 0.47708 0.0
H1756 H 0.77997 0.07701 0.42488 0.0
C1757 C 0.7635 0.14653 0.4948 0.0
C1758 C 0.52782 0.2228 0.52477 0.0
C1759 C 0.51987 0.2666 0.5191 0.0
H1760 H 0.5378 0.16054 0.50037 0.0
C1761 C 0.51493 0.28011 0.48255 0.0
H1762 H 0.53183 0.21121 0.55248 0.0
C1763 C 0.51833 0.25106 0.45253 0.0
C1764 C 0.52667 0.20738 0.45807 0.0
H1765 H 0.5081 0.31305 0.47704 0.0
H1766 H 0.51467 0.26315 0.42485 0.0
C1767 C 0.53115 0.19364 0.49477 0.0
C1768 C 0.27784 0.86755 0.27488 0.0
C1769 C 0.26989 0.82374 0.26921 0.0
H1770 H 0.28781 0.92981 0.25048 0.0
C1771 C 0.26495 0.81024 0.23266 0.0
H1772 H 0.28184 0.87914 0.30259 0.0
C1773 C 0.26835 0.83929 0.20264 0.0
C1774 C 0.27669 0.88297 0.20818 0.0
H1775 H 0.25812 0.7773 0.22715 0.0
H1776 H 0.2647 0.8272 0.17496 0.0
C1777 C 0.28117 0.89671 0.24488 0.0
C1778 C 0.52974 1.03007 0.23258 0.0
C1779 C 0.52475 1.01658 0.26912 0.0
H1780 H 0.53004 1.01309 0.17489 0.0
C1781 C 0.51678 0.97279 0.27479 0.0
H1782 H 0.5366 0.06299 0.22708 0.0
C1783 C 0.51345 0.94363 0.24478 0.0
C1784 C 0.51797 0.95735 0.20809 0.0
H1785 H 0.51274 0.96121 0.30249 0.0
H1786 H 0.50678 0.91055 0.25037 0.0
C1787 C 0.52635 1.00101 0.20256 0.0
C1788 C 0.28116 0.94373 0.59588 0.0
C1789 C 0.27669 0.95748 0.63258 0.0
H1790 H 0.28182 0.96129 0.53817 0.0
C1791 C 0.26837 1.00117 0.63812 0.0
H1792 H 0.28779 0.91063 0.59028 0.0
C1793 C 0.26497 1.03022 0.6081 0.0
C1794 C 0.2699 1.01671 0.57155 0.0
H1795 H 0.26472 1.01326 0.6658 0.0
H1796 H 0.25815 0.06317 0.61362 0.0
C1797 C 0.27783 0.97289 0.56587 0.0
C1798 C 0.51349 0.89669 0.59574 0.0
C1799 C 0.518 0.88296 0.63244 0.0
H1800 H 0.51282 0.87912 0.53803 0.0
C1801 C 0.52635 0.83929 0.63797 0.0
H1802 H 0.50684 0.92978 0.59015 0.0
C1803 C 0.52975 0.81023 0.60795 0.0
C1804 C 0.52479 0.82373 0.5714 0.0
H1805 H 0.53002 0.8272 0.66565 0.0
H1806 H 0.53659 0.7773 0.61346 0.0
C1807 C 0.51683 0.86753 0.56573 0.0
C1808 C 0.76353 0.69344 0.34576 0.0
C1809 C 0.768 0.7072 0.38247 0.0
H1810 H 0.76287 0.711 0.28805 0.0
C1811 C 0.77633 0.75089 0.388 0.0
H1812 H 0.7569 0.66034 0.34017 0.0
C1813 C 0.77972 0.77994 0.35798 0.0
C1814 C 0.77479 0.76642 0.32143 0.0
H1815 H 0.77997 0.76299 0.41568 0.0
H1816 H 0.78654 0.81289 0.36349 0.0
C1817 C 0.76686 0.7226 0.31576 0.0
C1818 C 0.51497 0.56024 0.35794 0.0
C1819 C 0.51991 0.57376 0.3214 0.0
H1820 H 0.51471 0.57719 0.41565 0.0
C1821 C 0.52785 0.61756 0.31573 0.0
H1822 H 0.50814 0.52729 0.36345 0.0
C1823 C 0.53118 0.64672 0.34574 0.0
C1824 C 0.5267 0.63297 0.38244 0.0
H1825 H 0.53185 0.62917 0.28803 0.0
H1826 H 0.53782 0.67982 0.34015 0.0
C1827 C 0.51836 0.58928 0.38797 0.0
C1828 C 0.76347 0.64651 0.9948 0.0
C1829 C 0.76797 0.63278 0.9581 0.0
H1830 H 0.76279 0.62893 0.05251 0.0
C1831 C 0.77632 0.58911 0.95256 0.0
H1832 H 0.75682 0.6796 1.00039 0.0
C1833 C 0.77972 0.56005 0.98258 0.0
C1834 C 0.77476 0.57355 1.01913 0.0
H1835 H 0.77998 0.57703 0.92488 0.0
H1836 H 0.78656 0.52712 0.97707 0.0
C1837 C 0.76681 0.61735 1.0248 0.0
C1838 C 0.51834 0.75109 0.95253 0.0
C1839 C 0.52664 0.70738 0.95807 0.0
H1840 H 0.50814 0.8131 0.97704 0.0
C1841 C 0.53108 0.69361 0.99477 0.0
H1842 H 0.51472 0.7632 0.92484 0.0
C1843 C 0.52774 0.72277 1.02478 0.0
C1844 C 0.51984 0.7666 1.0191 0.0
H1845 H 0.53769 0.66049 1.00037 0.0
H1846 H 0.53171 0.71115 0.05249 0.0
C1847 C 0.51494 0.78014 0.98255 0.0
C1848 C 0.27779 0.3676 0.77489 0.0
C1849 C 0.26988 0.32377 0.76922 0.0
H1850 H 0.28774 0.42987 0.75047 0.0
C1851 C 0.26497 0.31023 0.73267 0.0
H1852 H 0.28176 0.37922 0.8026 0.0
C1853 C 0.26837 0.33928 0.70264 0.0
C1854 C 0.27667 0.38298 0.70818 0.0
H1855 H 0.25816 0.27727 0.72716 0.0
H1856 H 0.26474 0.32716 0.67496 0.0
C1857 C 0.28112 0.39675 0.74488 0.0
C1858 C 0.52972 0.5301 0.73256 0.0
C1859 C 0.52476 0.5166 0.76911 0.0
H1860 H 0.52999 0.51313 0.67486 0.0
C1861 C 0.51681 0.4728 0.77478 0.0
H1862 H 0.53656 0.56304 0.72705 0.0
C1863 C 0.51348 0.44363 0.74478 0.0
C1864 C 0.51798 0.45737 0.70808 0.0
H1865 H 0.5128 0.46121 0.80248 0.0
H1866 H 0.50684 0.41054 0.75037 0.0
C1867 C 0.52633 0.50104 0.70254 0.0
C1868 C 0.26834 0.50114 0.1381 0.0
C1869 C 0.27669 0.45747 0.13257 0.0
H1870 H 0.25809 0.56313 0.11359 0.0
C1871 C 0.28118 0.44373 0.09587 0.0
H1872 H 0.26468 0.51323 0.16578 0.0
C1873 C 0.27785 0.47289 0.06586 0.0
C1874 C 0.26989 0.51669 0.07153 0.0
H1875 H 0.28783 0.41064 0.09028 0.0
H1876 H 0.28186 0.4613 1.03816 0.0
C1877 C 0.26494 0.53019 0.10808 0.0
C1878 C 0.52976 0.31024 0.10795 0.0
C1879 C 0.52481 0.32374 0.0714 0.0
H1880 H 0.53002 0.32721 0.16565 0.0
C1881 C 0.51686 0.36754 0.06573 0.0
H1882 H 0.53659 0.2773 0.11346 0.0
C1883 C 0.51352 0.39671 0.09573 0.0
C1884 C 0.51801 0.38298 0.13243 0.0
H1885 H 0.51285 0.37914 1.03802 0.0
H1886 H 0.50688 0.4298 0.09013 0.0
C1887 C 0.52636 0.3393 0.13797 0.0
loop_
_geom_bond_atom_site_label_1
_geom_bond_atom_site_label_2
_geom_bond_distance
_geom_bond_site_symmetry_2
_ccdc_geom_bond_type
Co0 O3 1.970 . S
Co0 N17 1.989 . S
Co0 O25 1.967 . S
Co0 O32 1.920 . S
Co1 O4 1.966 . S
Co1 N10 2.022 . S
Co1 N18 1.993 . S
Co1 O26 1.941 . S
C2 O3 1.258 . S
C2 O4 1.263 . S
O3 Co0 1.970 . S
O3 C2 1.258 . S
O4 Co1 1.966 . S
O4 C2 1.263 . S
C5 O6 1.235 . S
C5 O32 1.289 . S
O6 C5 1.235 . S
C7 C9 1.400 . S
C7 N10 1.351 . S
C7 C12 1.501 . S
C8 C9 1.387 . S
C8 N11 1.341 . S
C9 C7 1.400 . S
C9 C8 1.387 . S
N10 Co1 2.022 . S
N10 C7 1.351 . S
N10 N11 1.365 . S
N11 C8 1.341 . S
N11 N10 1.365 . S
N11 H31 0.862 . S
C12 C7 1.501 . S
C12 H13 0.961 . S
C12 H14 0.961 . S
C12 H15 0.960 . S
H13 C12 0.961 . S
H14 C12 0.961 . S
H15 C12 0.960 . S
C16 N17 1.342 . S
C16 C20 1.401 . S
C16 C21 1.499 . S
N17 Co0 1.989 . S
N17 C16 1.342 . S
N17 N18 1.388 . S
N18 Co1 1.993 . S
N18 N17 1.388 . S
N18 C19 1.346 . S
C19 N18 1.346 . S
C19 C20 1.396 . S
C19 C29 1.510 . S
C20 C16 1.401 . S
C20 C19 1.396 . S
C21 C16 1.499 . S
C21 H22 0.959 . S
C21 H23 0.960 . S
C21 H24 0.961 . S
H22 C21 0.959 . S
H23 C21 0.960 . S
H24 C21 0.961 . S
O25 Co0 1.967 . S
O25 C33 1.258 . S
O26 Co1 1.941 . S
O26 C33 1.266 . S
H27 C29 0.959 . S
H28 C29 0.961 . S
C29 C19 1.510 . S
C29 H27 0.959 . S
C29 H28 0.961 . S
C29 H30 0.960 . S
H30 C29 0.960 . S
H31 N11 0.862 . S
O32 Co0 1.920 . S
O32 C5 1.289 . S
C33 O25 1.258 . S
C33 O26 1.266 . S
Co34 O37 1.971 1_545 S
Co34 N51 1.989 . S
Co34 O59 1.968 1_545 S
Co34 O66 1.919 . S
Co35 O38 1.966 . S
Co35 N44 2.022 . S
Co35 N52 1.993 . S
Co35 O60 1.941 . S
C36 O37 1.258 . S
C36 O38 1.263 . S
O37 Co34 1.971 1_565 S
O37 C36 1.258 . S
O38 Co35 1.966 . S
O38 C36 1.263 . S
C39 O40 1.235 . S
C39 O66 1.289 . S
O40 C39 1.235 . S
C41 C43 1.400 . S
C41 N44 1.351 . S
C41 C46 1.501 . S
C42 C43 1.387 . S
C42 N45 1.341 . S
C43 C41 1.400 . S
C43 C42 1.387 . S
N44 Co35 2.022 . S
N44 C41 1.351 . S
N44 N45 1.365 . S
N45 C42 1.341 . S
N45 N44 1.365 . S
N45 H65 0.876 . S
C46 C41 1.501 . S
C46 H47 0.961 . S
C46 H48 0.961 . S
C46 H49 0.960 . S
H47 C46 0.961 . S
H48 C46 0.961 . S
H49 C46 0.960 . S
C50 N51 1.342 . S
C50 C54 1.401 . S
C50 C55 1.499 . S
N51 Co34 1.989 . S
N51 C50 1.342 . S
N51 N52 1.388 1_545 S
N52 Co35 1.993 . S
N52 N51 1.388 1_565 S
N52 C53 1.346 1_565 S
C53 N52 1.346 1_545 S
C53 C54 1.396 . S
C53 C63 1.510 1_545 S
C54 C50 1.401 . S
C54 C53 1.396 . S
C55 C50 1.499 . S
C55 H56 0.959 . S
C55 H57 0.960 . S
C55 H58 0.961 . S
H56 C55 0.959 . S
H57 C55 0.960 . S
H58 C55 0.961 . S
O59 Co34 1.968 1_565 S
O59 C67 1.258 . S
O60 Co35 1.941 . S
O60 C67 1.266 . S
H61 C63 0.994 . S
H62 C63 0.968 . S
C63 C53 1.510 1_565 S
C63 H61 0.994 . S
C63 H62 0.968 . S
C63 H64 0.960 . S
H64 C63 0.960 . S
H65 N45 0.876 . S
O66 Co34 1.919 . S
O66 C39 1.289 . S
C67 O59 1.258 . S
C67 O60 1.266 . S
Co68 O71 1.971 1_545 S
Co68 N85 1.989 . S
Co68 O93 1.968 1_545 S
Co68 O100 1.919 . S
Co69 O72 1.966 . S
Co69 N78 2.022 1_554 S
Co69 N86 1.989 1_554 S
Co69 O94 1.941 . S
C70 O71 1.258 . S
C70 O72 1.263 . S
O71 Co68 1.971 1_565 S
O71 C70 1.258 . S
O72 Co69 1.966 . S
O72 C70 1.263 . S
C73 O74 1.235 . S
C73 O100 1.289 . S
O74 C73 1.235 . S
C75 C77 1.400 . S
C75 N78 1.351 . S
C75 C80 1.501 . S
C76 C77 1.387 . S
C76 N79 1.341 . S
C77 C75 1.400 . S
C77 C76 1.387 . S
N78 Co69 2.022 1_556 S
N78 C75 1.351 . S
N78 N79 1.365 . S
N79 C76 1.341 . S
N79 N78 1.365 . S
N79 H99 0.862 . S
C80 C75 1.501 . S
C80 H81 0.961 . S
C80 H82 0.961 . S
C80 H83 0.960 . S
H81 C80 0.961 . S
H82 C80 0.961 . S
H83 C80 0.960 . S
C84 N85 1.342 . S
C84 C88 1.401 1_554 S
C84 C89 1.499 . S
N85 Co68 1.989 . S
N85 C84 1.342 . S
N85 N86 1.376 1_544 S
N86 Co69 1.989 1_556 S
N86 N85 1.376 1_566 S
N86 C87 1.358 1_565 S
C87 N86 1.358 1_545 S
C87 C88 1.396 . S
C87 C97 1.510 1_545 S
C88 C84 1.401 1_556 S
C88 C87 1.396 . S
C89 C84 1.499 . S
C89 H90 0.959 . S
C89 H91 0.960 . S
C89 H92 0.961 . S
H90 C89 0.959 . S
H91 C89 0.960 . S
H92 C89 0.961 . S
O93 Co68 1.968 1_565 S
O93 C101 1.258 . S
O94 Co69 1.941 . S
O94 C101 1.266 . S
H95 C97 0.959 . S
H96 C97 0.968 . S
C97 C87 1.510 1_565 S
C97 H95 0.959 . S
C97 H96 0.968 . S
C97 H98 0.960 . S
H98 C97 0.960 . S
H99 N79 0.862 . S
O100 Co68 1.919 . S
O100 C73 1.289 . S
C101 O93 1.258 . S
C101 O94 1.266 . S
Co102 O105 1.970 . S
Co102 N119 1.989 . S
Co102 O127 1.967 . S
Co102 O134 1.920 . S
Co103 O106 1.966 . S
Co103 N112 2.022 1_554 S
Co103 N120 1.989 1_554 S
Co103 O128 1.941 . S
C104 O105 1.258 . S
C104 O106 1.263 . S
O105 Co102 1.970 . S
O105 C104 1.258 . S
O106 Co103 1.966 . S
O106 C104 1.263 . S
C107 O108 1.235 . S
C107 O134 1.289 . S
O108 C107 1.235 . S
C109 C111 1.400 . S
C109 N112 1.351 . S
C109 C114 1.501 . S
C110 C111 1.387 . S
C110 N113 1.341 . S
C111 C109 1.400 . S
C111 C110 1.387 . S
N112 Co103 2.022 1_556 S
N112 C109 1.351 . S
N112 N113 1.365 . S
N113 C110 1.341 . S
N113 N112 1.365 . S
N113 H133 0.876 . S
C114 C109 1.501 . S
C114 H115 0.961 . S
C114 H116 0.961 . S
C114 H117 0.960 . S
H115 C114 0.961 . S
H116 C114 0.961 . S
H117 C114 0.960 . S
C118 N119 1.342 . S
C118 C122 1.401 1_554 S
C118 C123 1.499 . S
N119 Co102 1.989 . S
N119 C118 1.342 . S
N119 N120 1.376 1_554 S
N120 Co103 1.989 1_556 S
N120 N119 1.376 1_556 S
N120 C121 1.358 . S
C121 N120 1.358 . S
C121 C122 1.396 . S
C121 C131 1.510 . S
C122 C118 1.401 1_556 S
C122 C121 1.396 . S
C123 C118 1.499 . S
C123 H124 0.959 . S
C123 H125 0.960 . S
C123 H126 0.961 . S
H124 C123 0.959 . S
H125 C123 0.960 . S
H126 C123 0.961 . S
O127 Co102 1.967 . S
O127 C135 1.258 . S
O128 Co103 1.941 . S
O128 C135 1.266 . S
H129 C131 0.994 . S
H130 C131 0.961 . S
C131 C121 1.510 . S
C131 H129 0.994 . S
C131 H130 0.961 . S
C131 H132 0.960 . S
H132 C131 0.960 . S
H133 N113 0.876 . S
O134 Co102 1.920 . S
O134 C107 1.289 . S
C135 O127 1.258 . S
C135 O128 1.266 . S
Co136 O139 1.970 . S
Co136 N153 1.989 . S
Co136 O161 1.967 . S
Co136 O168 1.920 . S
Co137 O140 1.966 . S
Co137 N146 2.022 . S
Co137 N154 1.993 . S
Co137 O162 1.941 . S
C138 O139 1.258 . S
C138 O140 1.263 . S
O139 Co136 1.970 . S
O139 C138 1.258 . S
O140 Co137 1.966 . S
O140 C138 1.263 . S
C141 O142 1.235 . S
C141 O168 1.289 . S
O142 C141 1.235 . S
C143 C145 1.400 . S
C143 N146 1.351 . S
C143 C148 1.501 . S
C144 C145 1.387 . S
C144 N147 1.341 . S
C145 C143 1.400 . S
C145 C144 1.387 . S
N146 Co137 2.022 . S
N146 C143 1.351 . S
N146 N147 1.365 . S
N147 C144 1.341 . S
N147 N146 1.365 . S
N147 H167 0.862 . S
C148 C143 1.501 . S
C148 H149 0.961 . S
C148 H150 0.961 . S
C148 H151 0.960 . S
H149 C148 0.961 . S
H150 C148 0.961 . S
H151 C148 0.960 . S
C152 N153 1.342 . S
C152 C156 1.401 . S
C152 C157 1.499 . S
N153 Co136 1.989 . S
N153 C152 1.342 . S
N153 N154 1.388 . S
N154 Co137 1.993 . S
N154 N153 1.388 . S
N154 C155 1.346 . S
C155 N154 1.346 . S
C155 C156 1.396 . S
C155 C165 1.510 . S
C156 C152 1.401 . S
C156 C155 1.396 . S
C157 C152 1.499 . S
C157 H158 0.959 . S
C157 H159 0.960 . S
C157 H160 0.961 . S
H158 C157 0.959 . S
H159 C157 0.960 . S
H160 C157 0.961 . S
O161 Co136 1.967 . S
O161 C169 1.258 . S
O162 Co137 1.941 . S
O162 C169 1.266 . S
H163 C165 0.959 . S
H164 C165 0.961 . S
C165 C155 1.510 . S
C165 H163 0.959 . S
C165 H164 0.961 . S
C165 H166 0.960 . S
H166 C165 0.960 . S
H167 N147 0.862 . S
O168 Co136 1.920 . S
O168 C141 1.289 . S
C169 O161 1.258 . S
C169 O162 1.266 . S
Co170 O173 1.971 1_565 S
Co170 N187 1.989 . S
Co170 O195 1.968 1_565 S
Co170 O202 1.919 . S
Co171 O174 1.966 . S
Co171 N180 2.022 . S
Co171 N188 1.993 . S
Co171 O196 1.941 . S
C172 O173 1.258 . S
C172 O174 1.263 . S
O173 Co170 1.971 1_545 S
O173 C172 1.258 . S
O174 Co171 1.966 . S
O174 C172 1.263 . S
C175 O176 1.235 . S
C175 O202 1.289 . S
O176 C175 1.235 . S
C177 C179 1.400 . S
C177 N180 1.351 . S
C177 C182 1.501 . S
C178 C179 1.387 . S
C178 N181 1.341 . S
C179 C177 1.400 . S
C179 C178 1.387 . S
N180 Co171 2.022 . S
N180 C177 1.351 . S
N180 N181 1.365 . S
N181 C178 1.341 . S
N181 N180 1.365 . S
N181 H201 0.876 . S
C182 C177 1.501 . S
C182 H183 0.961 . S
C182 H184 0.961 . S
C182 H185 0.960 . S
H183 C182 0.961 . S
H184 C182 0.961 . S
H185 C182 0.960 . S
C186 N187 1.342 . S
C186 C190 1.401 . S
C186 C191 1.499 . S
N187 Co170 1.989 . S
N187 C186 1.342 . S
N187 N188 1.388 1_565 S
N188 Co171 1.993 . S
N188 N187 1.388 1_545 S
N188 C189 1.346 1_545 S
C189 N188 1.346 1_565 S
C189 C190 1.396 . S
C189 C199 1.510 1_565 S
C190 C186 1.401 . S
C190 C189 1.396 . S
C191 C186 1.499 . S
C191 H192 0.959 . S
C191 H193 0.960 . S
C191 H194 0.961 . S
H192 C191 0.959 . S
H193 C191 0.960 . S
H194 C191 0.961 . S
O195 Co170 1.968 1_545 S
O195 C203 1.258 . S
O196 Co171 1.941 . S
O196 C203 1.266 . S
H197 C199 0.994 . S
H198 C199 0.968 . S
C199 C189 1.510 1_545 S
C199 H197 0.994 . S
C199 H198 0.968 . S
C199 H200 0.960 . S
H200 C199 0.960 . S
H201 N181 0.876 . S
O202 Co170 1.919 . S
O202 C175 1.289 . S
C203 O195 1.258 . S
C203 O196 1.266 . S
Co204 O207 1.971 1_565 S
Co204 N221 1.989 . S
Co204 O229 1.968 1_565 S
Co204 O236 1.919 . S
Co205 O208 1.966 . S
Co205 N214 2.022 1_556 S
Co205 N222 1.989 1_556 S
Co205 O230 1.941 . S
C206 O207 1.258 . S
C206 O208 1.263 . S
O207 Co204 1.971 1_545 S
O207 C206 1.258 . S
O208 Co205 1.966 . S
O208 C206 1.263 . S
C209 O210 1.235 . S
C209 O236 1.289 . S
O210 C209 1.235 . S
C211 C213 1.400 . S
C211 N214 1.351 . S
C211 C216 1.501 . S
C212 C213 1.387 . S
C212 N215 1.341 . S
C213 C211 1.400 . S
C213 C212 1.387 . S
N214 Co205 2.022 1_554 S
N214 C211 1.351 . S
N214 N215 1.365 . S
N215 C212 1.341 . S
N215 N214 1.365 . S
N215 H235 0.862 . S
C216 C211 1.501 . S
C216 H217 0.961 . S
C216 H218 0.961 . S
C216 H219 0.960 . S
H217 C216 0.961 . S
H218 C216 0.961 . S
H219 C216 0.960 . S
C220 N221 1.342 . S
C220 C224 1.401 1_556 S
C220 C225 1.499 . S
N221 Co204 1.989 . S
N221 C220 1.342 . S
N221 N222 1.376 1_566 S
N222 Co205 1.989 1_554 S
N222 N221 1.376 1_544 S
N222 C223 1.358 1_545 S
C223 N222 1.358 1_565 S
C223 C224 1.396 . S
C223 C233 1.510 1_565 S
C224 C220 1.401 1_554 S
C224 C223 1.396 . S
C225 C220 1.499 . S
C225 H226 0.959 . S
C225 H227 0.960 . S
C225 H228 0.961 . S
H226 C225 0.959 . S
H227 C225 0.960 . S
H228 C225 0.961 . S
O229 Co204 1.968 1_545 S
O229 C237 1.258 . S
O230 Co205 1.941 . S
O230 C237 1.266 . S
H231 C233 0.959 . S
H232 C233 0.968 . S
C233 C223 1.510 1_545 S
C233 H231 0.959 . S
C233 H232 0.968 . S
C233 H234 0.960 . S
H234 C233 0.960 . S
H235 N215 0.862 . S
O236 Co204 1.919 . S
O236 C209 1.289 . S
C237 O229 1.258 . S
C237 O230 1.266 . S
Co238 O241 1.970 . S
Co238 N255 1.989 . S
Co238 O263 1.967 . S
Co238 O270 1.920 . S
Co239 O242 1.966 . S
Co239 N248 2.022 1_556 S
Co239 N256 1.989 1_556 S
Co239 O264 1.941 . S
C240 O241 1.258 . S
C240 O242 1.263 . S
O241 Co238 1.970 . S
O241 C240 1.258 . S
O242 Co239 1.966 . S
O242 C240 1.263 . S
C243 O244 1.235 . S
C243 O270 1.289 . S
O244 C243 1.235 . S
C245 C247 1.400 . S
C245 N248 1.351 . S
C245 C250 1.501 . S
C246 C247 1.387 . S
C246 N249 1.341 . S
C247 C245 1.400 . S
C247 C246 1.387 . S
N248 Co239 2.022 1_554 S
N248 C245 1.351 . S
N248 N249 1.365 . S
N249 C246 1.341 . S
N249 N248 1.365 . S
N249 H269 0.876 . S
C250 C245 1.501 . S
C250 H251 0.961 . S
C250 H252 0.961 . S
C250 H253 0.960 . S
H251 C250 0.961 . S
H252 C250 0.961 . S
H253 C250 0.960 . S
C254 N255 1.342 . S
C254 C258 1.401 1_556 S
C254 C259 1.499 . S
N255 Co238 1.989 . S
N255 C254 1.342 . S
N255 N256 1.376 1_556 S
N256 Co239 1.989 1_554 S
N256 N255 1.376 1_554 S
N256 C257 1.358 . S
C257 N256 1.358 . S
C257 C258 1.396 . S
C257 C267 1.510 . S
C258 C254 1.401 1_554 S
C258 C257 1.396 . S
C259 C254 1.499 . S
C259 H260 0.959 . S
C259 H261 0.960 . S
C259 H262 0.961 . S
H260 C259 0.959 . S
H261 C259 0.960 . S
H262 C259 0.961 . S
O263 Co238 1.967 . S
O263 C271 1.258 . S
O264 Co239 1.941 . S
O264 C271 1.266 . S
H265 C267 0.994 . S
H266 C267 0.961 . S
C267 C257 1.510 . S
C267 H265 0.994 . S
C267 H266 0.961 . S
C267 H268 0.960 . S
H268 C267 0.960 . S
H269 N249 0.876 . S
O270 Co238 1.920 . S
O270 C243 1.289 . S
C271 O263 1.258 . S
C271 O264 1.266 . S
Co272 O275 1.970 . S
Co272 N289 1.989 . S
Co272 O297 1.967 . S
Co272 O304 1.920 . S
Co273 O276 1.966 . S
Co273 N282 2.022 . S
Co273 N290 1.993 . S
Co273 O298 1.941 . S
C274 O275 1.258 . S
C274 O276 1.263 . S
O275 Co272 1.970 . S
O275 C274 1.258 . S
O276 Co273 1.966 . S
O276 C274 1.263 . S
C277 O278 1.235 . S
C277 O304 1.289 . S
O278 C277 1.235 . S
C279 C281 1.400 . S
C279 N282 1.351 . S
C279 C284 1.501 . S
C280 C281 1.387 . S
C280 N283 1.341 . S
C281 C279 1.400 . S
C281 C280 1.387 . S
N282 Co273 2.022 . S
N282 C279 1.351 . S
N282 N283 1.365 . S
N283 C280 1.341 . S
N283 N282 1.365 . S
N283 H303 0.862 . S
C284 C279 1.501 . S
C284 H285 0.961 . S
C284 H286 0.961 . S
C284 H287 0.960 . S
H285 C284 0.961 . S
H286 C284 0.961 . S
H287 C284 0.960 . S
C288 N289 1.342 . S
C288 C292 1.401 . S
C288 C293 1.499 . S
N289 Co272 1.989 . S
N289 C288 1.342 . S
N289 N290 1.388 . S
N290 Co273 1.993 . S
N290 N289 1.388 . S
N290 C291 1.346 . S
C291 N290 1.346 . S
C291 C292 1.396 . S
C291 C301 1.510 . S
C292 C288 1.401 . S
C292 C291 1.396 . S
C293 C288 1.499 . S
C293 H294 0.959 . S
C293 H295 0.960 . S
C293 H296 0.961 . S
H294 C293 0.959 . S
H295 C293 0.960 . S
H296 C293 0.961 . S
O297 Co272 1.967 . S
O297 C305 1.258 . S
O298 Co273 1.941 . S
O298 C305 1.266 . S
H299 C301 0.959 . S
H300 C301 0.961 . S
C301 C291 1.510 . S
C301 H299 0.959 . S
C301 H300 0.961 . S
C301 H302 0.960 . S
H302 C301 0.960 . S
H303 N283 0.862 . S
O304 Co272 1.920 . S
O304 C277 1.289 . S
C305 O297 1.258 . S
C305 O298 1.266 . S
Co306 O309 1.970 . S
Co306 N323 1.989 . S
Co306 O331 1.967 . S
Co306 O338 1.920 . S
Co307 O310 1.966 . S
Co307 N316 2.022 . S
Co307 N324 1.993 . S
Co307 O332 1.941 . S
C308 O309 1.258 . S
C308 O310 1.263 . S
O309 Co306 1.970 . S
O309 C308 1.258 . S
O310 Co307 1.966 . S
O310 C308 1.263 . S
C311 O312 1.235 . S
C311 O338 1.289 . S
O312 C311 1.235 . S
C313 C315 1.400 . S
C313 N316 1.351 . S
C313 C318 1.501 . S
C314 C315 1.387 . S
C314 N317 1.341 . S
C315 C313 1.400 . S
C315 C314 1.387 . S
N316 Co307 2.022 . S
N316 C313 1.351 . S
N316 N317 1.365 . S
N317 C314 1.341 . S
N317 N316 1.365 . S
N317 H337 0.876 . S
C318 C313 1.501 . S
C318 H319 0.961 . S
C318 H320 0.961 . S
C318 H321 0.960 . S
H319 C318 0.961 . S
H320 C318 0.961 . S
H321 C318 0.960 . S
C322 N323 1.342 . S
C322 C326 1.401 . S
C322 C327 1.499 . S
N323 Co306 1.989 . S
N323 C322 1.342 . S
N323 N324 1.388 . S
N324 Co307 1.993 . S
N324 N323 1.388 . S
N324 C325 1.346 . S
C325 N324 1.346 . S
C325 C326 1.396 . S
C325 C335 1.510 . S
C326 C322 1.401 . S
C326 C325 1.396 . S
C327 C322 1.499 . S
C327 H328 0.959 . S
C327 H329 0.960 . S
C327 H330 0.961 . S
H328 C327 0.959 . S
H329 C327 0.960 . S
H330 C327 0.961 . S
O331 Co306 1.967 . S
O331 C339 1.258 . S
O332 Co307 1.941 . S
O332 C339 1.266 . S
H333 C335 0.994 . S
H334 C335 0.961 . S
C335 C325 1.510 . S
C335 H333 0.994 . S
C335 H334 0.961 . S
C335 H336 0.960 . S
H336 C335 0.960 . S
H337 N317 0.876 . S
O338 Co306 1.920 . S
O338 C311 1.289 . S
C339 O331 1.258 . S
C339 O332 1.266 . S
Co340 O343 1.970 . S
Co340 N357 1.989 . S
Co340 O365 1.967 . S
Co340 O372 1.920 . S
Co341 O344 1.966 . S
Co341 N350 2.022 . S
Co341 N358 1.993 . S
Co341 O366 1.941 . S
C342 O343 1.258 . S
C342 O344 1.263 . S
O343 Co340 1.970 . S
O343 C342 1.258 . S
O344 Co341 1.966 . S
O344 C342 1.263 . S
C345 O346 1.235 . S
C345 O372 1.289 . S
O346 C345 1.235 . S
C347 C349 1.400 . S
C347 N350 1.351 . S
C347 C352 1.501 . S
C348 C349 1.387 . S
C348 N351 1.341 . S
C349 C347 1.400 . S
C349 C348 1.387 . S
N350 Co341 2.022 . S
N350 C347 1.351 . S
N350 N351 1.365 . S
N351 C348 1.341 . S
N351 N350 1.365 . S
N351 H371 0.862 . S
C352 C347 1.501 . S
C352 H353 0.961 . S
C352 H354 0.961 . S
C352 H355 0.960 . S
H353 C352 0.961 . S
H354 C352 0.961 . S
H355 C352 0.960 . S
C356 N357 1.342 . S
C356 C360 1.401 . S
C356 C361 1.499 . S
N357 Co340 1.989 . S
N357 C356 1.342 . S
N357 N358 1.388 . S
N358 Co341 1.993 . S
N358 N357 1.388 . S
N358 C359 1.346 . S
C359 N358 1.346 . S
C359 C360 1.396 . S
C359 C369 1.510 . S
C360 C356 1.401 . S
C360 C359 1.396 . S
C361 C356 1.499 . S
C361 H362 0.959 . S
C361 H363 0.960 . S
C361 H364 0.961 . S
H362 C361 0.959 . S
H363 C361 0.960 . S
H364 C361 0.961 . S
O365 Co340 1.967 . S
O365 C373 1.258 . S
O366 Co341 1.941 . S
O366 C373 1.266 . S
H367 C369 0.959 . S
H368 C369 0.961 . S
C369 C359 1.510 . S
C369 H367 0.959 . S
C369 H368 0.961 . S
C369 H370 0.960 . S
H370 C369 0.960 . S
H371 N351 0.862 . S
O372 Co340 1.920 . S
O372 C345 1.289 . S
C373 O365 1.258 . S
C373 O366 1.266 . S
Co374 O377 1.970 . S
Co374 N391 1.989 . S
Co374 O399 1.967 . S
Co374 O406 1.920 . S
Co375 O378 1.966 . S
Co375 N384 2.022 . S
Co375 N392 1.993 . S
Co375 O400 1.941 . S
C376 O377 1.258 . S
C376 O378 1.263 . S
O377 Co374 1.970 . S
O377 C376 1.258 . S
O378 Co375 1.966 . S
O378 C376 1.263 . S
C379 O380 1.235 . S
C379 O406 1.289 . S
O380 C379 1.235 . S
C381 C383 1.400 . S
C381 N384 1.351 . S
C381 C386 1.501 . S
C382 C383 1.387 . S
C382 N385 1.341 . S
C383 C381 1.400 . S
C383 C382 1.387 . S
N384 Co375 2.022 . S
N384 C381 1.351 . S
N384 N385 1.365 . S
N385 C382 1.341 . S
N385 N384 1.365 . S
N385 H405 0.876 . S
C386 C381 1.501 . S
C386 H387 0.961 . S
C386 H388 0.961 . S
C386 H389 0.960 . S
H387 C386 0.961 . S
H388 C386 0.961 . S
H389 C386 0.960 . S
C390 N391 1.342 . S
C390 C394 1.401 . S
C390 C395 1.499 . S
N391 Co374 1.989 . S
N391 C390 1.342 . S
N391 N392 1.388 . S
N392 Co375 1.993 . S
N392 N391 1.388 . S
N392 C393 1.346 . S
C393 N392 1.346 . S
C393 C394 1.396 . S
C393 C403 1.510 . S
C394 C390 1.401 . S
C394 C393 1.396 . S
C395 C390 1.499 . S
C395 H396 0.959 . S
C395 H397 0.960 . S
C395 H398 0.961 . S
H396 C395 0.959 . S
H397 C395 0.960 . S
H398 C395 0.961 . S
O399 Co374 1.967 . S
O399 C407 1.258 . S
O400 Co375 1.941 . S
O400 C407 1.266 . S
H401 C403 0.994 . S
H402 C403 0.961 . S
C403 C393 1.510 . S
C403 H401 0.994 . S
C403 H402 0.961 . S
C403 H404 0.960 . S
H404 C403 0.960 . S
H405 N385 0.876 . S
O406 Co374 1.920 . S
O406 C379 1.289 . S
C407 O399 1.258 . S
C407 O400 1.266 . S
Co408 O411 1.970 . S
Co408 N425 1.989 . S
Co408 O433 1.967 . S
Co408 O440 1.920 . S
Co409 O412 1.966 . S
Co409 N418 2.022 . S
Co409 N426 1.993 . S
Co409 O434 1.941 . S
C410 O411 1.258 . S
C410 O412 1.263 . S
O411 Co408 1.970 . S
O411 C410 1.258 . S
O412 Co409 1.966 . S
O412 C410 1.263 . S
C413 O414 1.235 . S
C413 O440 1.289 . S
O414 C413 1.235 . S
C415 C417 1.400 . S
C415 N418 1.351 . S
C415 C420 1.501 . S
C416 C417 1.387 . S
C416 N419 1.341 . S
C417 C415 1.400 . S
C417 C416 1.387 . S
N418 Co409 2.022 . S
N418 C415 1.351 . S
N418 N419 1.365 . S
N419 C416 1.341 . S
N419 N418 1.365 . S
N419 H439 0.862 . S
C420 C415 1.501 . S
C420 H421 0.961 . S
C420 H422 0.961 . S
C420 H423 0.960 . S
H421 C420 0.961 . S
H422 C420 0.961 . S
H423 C420 0.960 . S
C424 N425 1.342 . S
C424 C428 1.401 . S
C424 C429 1.499 . S
N425 Co408 1.989 . S
N425 C424 1.342 . S
N425 N426 1.388 . S
N426 Co409 1.993 . S
N426 N425 1.388 . S
N426 C427 1.346 . S
C427 N426 1.346 . S
C427 C428 1.396 . S
C427 C437 1.510 . S
C428 C424 1.401 . S
C428 C427 1.396 . S
C429 C424 1.499 . S
C429 H430 0.959 . S
C429 H431 0.960 . S
C429 H432 0.961 . S
H430 C429 0.959 . S
H431 C429 0.960 . S
H432 C429 0.961 . S
O433 Co408 1.967 . S
O433 C441 1.258 . S
O434 Co409 1.941 . S
O434 C441 1.266 . S
H435 C437 0.959 . S
H436 C437 0.961 . S
C437 C427 1.510 . S
C437 H435 0.959 . S
C437 H436 0.961 . S
C437 H438 0.960 . S
H438 C437 0.960 . S
H439 N419 0.862 . S
O440 Co408 1.920 . S
O440 C413 1.289 . S
C441 O433 1.258 . S
C441 O434 1.266 . S
Co442 O445 1.970 . S
Co442 N459 1.989 . S
Co442 O467 1.967 . S
Co442 O474 1.920 . S
Co443 O446 1.966 . S
Co443 N452 2.022 . S
Co443 N460 1.993 . S
Co443 O468 1.941 . S
C444 O445 1.258 . S
C444 O446 1.263 . S
O445 Co442 1.970 . S
O445 C444 1.258 . S
O446 Co443 1.966 . S
O446 C444 1.263 . S
C447 O448 1.235 . S
C447 O474 1.289 . S
O448 C447 1.235 . S
C449 C451 1.400 . S
C449 N452 1.351 . S
C449 C454 1.501 . S
C450 C451 1.387 . S
C450 N453 1.341 . S
C451 C449 1.400 . S
C451 C450 1.387 . S
N452 Co443 2.022 . S
N452 C449 1.351 . S
N452 N453 1.365 . S
N453 C450 1.341 . S
N453 N452 1.365 . S
N453 H473 0.876 . S
C454 C449 1.501 . S
C454 H455 0.961 . S
C454 H456 0.961 . S
C454 H457 0.960 . S
H455 C454 0.961 . S
H456 C454 0.961 . S
H457 C454 0.960 . S
C458 N459 1.342 . S
C458 C462 1.401 . S
C458 C463 1.499 . S
N459 Co442 1.989 . S
N459 C458 1.342 . S
N459 N460 1.388 . S
N460 Co443 1.993 . S
N460 N459 1.388 . S
N460 C461 1.346 . S
C461 N460 1.346 . S
C461 C462 1.396 . S
C461 C471 1.510 . S
C462 C458 1.401 . S
C462 C461 1.396 . S
C463 C458 1.499 . S
C463 H464 0.959 . S
C463 H465 0.960 . S
C463 H466 0.961 . S
H464 C463 0.959 . S
H465 C463 0.960 . S
H466 C463 0.961 . S
O467 Co442 1.967 . S
O467 C475 1.258 . S
O468 Co443 1.941 . S
O468 C475 1.266 . S
H469 C471 0.994 . S
H470 C471 0.961 . S
C471 C461 1.510 . S
C471 H469 0.994 . S
C471 H470 0.961 . S
C471 H472 0.960 . S
H472 C471 0.960 . S
H473 N453 0.876 . S
O474 Co442 1.920 . S
O474 C447 1.289 . S
C475 O467 1.258 . S
C475 O468 1.266 . S
Co476 O479 1.970 . S
Co476 N493 1.989 . S
Co476 O501 1.967 . S
Co476 O508 1.920 . S
Co477 O480 1.966 . S
Co477 N486 2.022 . S
Co477 N494 1.993 . S
Co477 O502 1.941 . S
C478 O479 1.258 . S
C478 O480 1.263 . S
O479 Co476 1.970 . S
O479 C478 1.258 . S
O480 Co477 1.966 . S
O480 C478 1.263 . S
C481 O482 1.235 . S
C481 O508 1.289 . S
O482 C481 1.235 . S
C483 C485 1.400 . S
C483 N486 1.351 . S
C483 C488 1.501 . S
C484 C485 1.387 . S
C484 N487 1.341 . S
C485 C483 1.400 . S
C485 C484 1.387 . S
N486 Co477 2.022 . S
N486 C483 1.351 . S
N486 N487 1.365 . S
N487 C484 1.341 . S
N487 N486 1.365 . S
N487 H507 0.862 . S
C488 C483 1.501 . S
C488 H489 0.961 . S
C488 H490 0.961 . S
C488 H491 0.960 . S
H489 C488 0.961 . S
H490 C488 0.961 . S
H491 C488 0.960 . S
C492 N493 1.342 . S
C492 C496 1.401 . S
C492 C497 1.499 . S
N493 Co476 1.989 . S
N493 C492 1.342 . S
N493 N494 1.388 . S
N494 Co477 1.993 . S
N494 N493 1.388 . S
N494 C495 1.346 . S
C495 N494 1.346 . S
C495 C496 1.396 . S
C495 C505 1.510 . S
C496 C492 1.401 . S
C496 C495 1.396 . S
C497 C492 1.499 . S
C497 H498 0.959 . S
C497 H499 0.960 . S
C497 H500 0.961 . S
H498 C497 0.959 . S
H499 C497 0.960 . S
H500 C497 0.961 . S
O501 Co476 1.967 . S
O501 C509 1.258 . S
O502 Co477 1.941 . S
O502 C509 1.266 . S
H503 C505 0.959 . S
H504 C505 0.961 . S
C505 C495 1.510 . S
C505 H503 0.959 . S
C505 H504 0.961 . S
C505 H506 0.960 . S
H506 C505 0.960 . S
H507 N487 0.862 . S
O508 Co476 1.920 . S
O508 C481 1.289 . S
C509 O501 1.258 . S
C509 O502 1.266 . S
Co510 O513 1.970 . S
Co510 N527 1.989 . S
Co510 O535 1.967 . S
Co510 O542 1.920 . S
Co511 O514 1.966 . S
Co511 N520 2.022 . S
Co511 N528 1.993 . S
Co511 O536 1.941 . S
C512 O513 1.258 . S
C512 O514 1.263 . S
O513 Co510 1.970 . S
O513 C512 1.258 . S
O514 Co511 1.966 . S
O514 C512 1.263 . S
C515 O516 1.235 . S
C515 O542 1.289 . S
O516 C515 1.235 . S
C517 C519 1.400 . S
C517 N520 1.351 . S
C517 C522 1.501 . S
C518 C519 1.387 . S
C518 N521 1.341 . S
C519 C517 1.400 . S
C519 C518 1.387 . S
N520 Co511 2.022 . S
N520 C517 1.351 . S
N520 N521 1.365 . S
N521 C518 1.341 . S
N521 N520 1.365 . S
N521 H541 0.876 . S
C522 C517 1.501 . S
C522 H523 0.961 . S
C522 H524 0.961 . S
C522 H525 0.960 . S
H523 C522 0.961 . S
H524 C522 0.961 . S
H525 C522 0.960 . S
C526 N527 1.342 . S
C526 C530 1.401 . S
C526 C531 1.499 . S
N527 Co510 1.989 . S
N527 C526 1.342 . S
N527 N528 1.388 . S
N528 Co511 1.993 . S
N528 N527 1.388 . S
N528 C529 1.346 . S
C529 N528 1.346 . S
C529 C530 1.396 . S
C529 C539 1.510 . S
C530 C526 1.401 . S
C530 C529 1.396 . S
C531 C526 1.499 . S
C531 H532 0.959 . S
C531 H533 0.960 . S
C531 H534 0.961 . S
H532 C531 0.959 . S
H533 C531 0.960 . S
H534 C531 0.961 . S
O535 Co510 1.967 . S
O535 C543 1.258 . S
O536 Co511 1.941 . S
O536 C543 1.266 . S
H537 C539 0.994 . S
H538 C539 0.961 . S
C539 C529 1.510 . S
C539 H537 0.994 . S
C539 H538 0.961 . S
C539 H540 0.960 . S
H540 C539 0.960 . S
H541 N521 0.876 . S
O542 Co510 1.920 . S
O542 C515 1.289 . S
C543 O535 1.258 . S
C543 O536 1.266 . S
Co544 O547 1.970 . S
Co544 N561 1.989 . S
Co544 O569 1.967 . S
Co544 O576 1.920 . S
Co545 O548 1.966 . S
Co545 N554 2.022 . S
Co545 N562 1.993 . S
Co545 O570 1.941 . S
C546 O547 1.258 . S
C546 O548 1.263 . S
O547 Co544 1.970 . S
O547 C546 1.258 . S
O548 Co545 1.966 . S
O548 C546 1.263 . S
C549 O550 1.235 . S
C549 O576 1.289 . S
O550 C549 1.235 . S
C551 C553 1.400 . S
C551 N554 1.351 . S
C551 C556 1.501 . S
C552 C553 1.387 . S
C552 N555 1.341 . S
C553 C551 1.400 . S
C553 C552 1.387 . S
N554 Co545 2.022 . S
N554 C551 1.351 . S
N554 N555 1.365 . S
N555 C552 1.341 . S
N555 N554 1.365 . S
N555 H575 0.862 . S
C556 C551 1.501 . S
C556 H557 0.961 . S
C556 H558 0.961 . S
C556 H559 0.960 . S
H557 C556 0.961 . S
H558 C556 0.961 . S
H559 C556 0.960 . S
C560 N561 1.342 . S
C560 C564 1.401 . S
C560 C565 1.499 . S
N561 Co544 1.989 . S
N561 C560 1.342 . S
N561 N562 1.388 . S
N562 Co545 1.993 . S
N562 N561 1.388 . S
N562 C563 1.346 . S
C563 N562 1.346 . S
C563 C564 1.396 . S
C563 C573 1.510 . S
C564 C560 1.401 . S
C564 C563 1.396 . S
C565 C560 1.499 . S
C565 H566 0.959 . S
C565 H567 0.960 . S
C565 H568 0.961 . S
H566 C565 0.959 . S
H567 C565 0.960 . S
H568 C565 0.961 . S
O569 Co544 1.967 . S
O569 C577 1.258 . S
O570 Co545 1.941 . S
O570 C577 1.266 . S
H571 C573 0.959 . S
H572 C573 0.961 . S
C573 C563 1.510 . S
C573 H571 0.959 . S
C573 H572 0.961 . S
C573 H574 0.960 . S
H574 C573 0.960 . S
H575 N555 0.862 . S
O576 Co544 1.920 . S
O576 C549 1.289 . S
C577 O569 1.258 . S
C577 O570 1.266 . S
Co578 O581 1.971 1_545 S
Co578 N595 1.989 . S
Co578 O603 1.968 1_545 S
Co578 O610 1.919 . S
Co579 O582 1.966 . S
Co579 N588 2.022 . S
Co579 N596 1.993 . S
Co579 O604 1.941 . S
C580 O581 1.258 . S
C580 O582 1.263 . S
O581 Co578 1.971 1_565 S
O581 C580 1.258 . S
O582 Co579 1.966 . S
O582 C580 1.263 . S
C583 O584 1.235 . S
C583 O610 1.289 . S
O584 C583 1.235 . S
C585 C587 1.400 . S
C585 N588 1.351 . S
C585 C590 1.501 . S
C586 C587 1.387 . S
C586 N589 1.341 . S
C587 C585 1.400 . S
C587 C586 1.387 . S
N588 Co579 2.022 . S
N588 C585 1.351 . S
N588 N589 1.365 . S
N589 C586 1.341 . S
N589 N588 1.365 . S
N589 H609 0.862 . S
C590 C585 1.501 . S
C590 H591 0.961 . S
C590 H592 0.961 . S
C590 H593 0.960 . S
H591 C590 0.961 . S
H592 C590 0.961 . S
H593 C590 0.960 . S
C594 N595 1.342 . S
C594 C598 1.401 . S
C594 C599 1.499 . S
N595 Co578 1.989 . S
N595 C594 1.342 . S
N595 N596 1.388 1_545 S
N596 Co579 1.993 . S
N596 N595 1.388 1_565 S
N596 C597 1.346 1_565 S
C597 N596 1.346 1_545 S
C597 C598 1.396 . S
C597 C607 1.510 1_545 S
C598 C594 1.401 . S
C598 C597 1.396 . S
C599 C594 1.499 . S
C599 H600 0.959 . S
C599 H601 0.960 . S
C599 H602 0.961 . S
H600 C599 0.959 . S
H601 C599 0.960 . S
H602 C599 0.961 . S
O603 Co578 1.968 1_565 S
O603 C611 1.258 . S
O604 Co579 1.941 . S
O604 C611 1.266 . S
H605 C607 0.959 . S
H606 C607 0.968 . S
C607 C597 1.510 1_565 S
C607 H605 0.959 . S
C607 H606 0.968 . S
C607 H608 0.960 . S
H608 C607 0.960 . S
H609 N589 0.862 . S
O610 Co578 1.919 . S
O610 C583 1.289 . S
C611 O603 1.258 . S
C611 O604 1.266 . S
Co612 O615 1.971 1_545 S
Co612 N629 1.989 . S
Co612 O637 1.968 1_545 S
Co612 O644 1.919 . S
Co613 O616 1.966 . S
Co613 N622 2.022 . S
Co613 N630 1.993 . S
Co613 O638 1.941 . S
C614 O615 1.258 . S
C614 O616 1.263 . S
O615 Co612 1.971 1_565 S
O615 C614 1.258 . S
O616 Co613 1.966 . S
O616 C614 1.263 . S
C617 O618 1.235 . S
C617 O644 1.289 . S
O618 C617 1.235 . S
C619 C621 1.400 . S
C619 N622 1.351 . S
C619 C624 1.501 . S
C620 C621 1.387 . S
C620 N623 1.341 . S
C621 C619 1.400 . S
C621 C620 1.387 . S
N622 Co613 2.022 . S
N622 C619 1.351 . S
N622 N623 1.365 . S
N623 C620 1.341 . S
N623 N622 1.365 . S
N623 H643 0.862 . S
C624 C619 1.501 . S
C624 H625 0.961 . S
C624 H626 0.961 . S
C624 H627 0.960 . S
H625 C624 0.961 . S
H626 C624 0.961 . S
H627 C624 0.960 . S
C628 N629 1.342 . S
C628 C632 1.401 . S
C628 C633 1.499 . S
N629 Co612 1.989 . S
N629 C628 1.342 . S
N629 N630 1.388 1_545 S
N630 Co613 1.993 . S
N630 N629 1.388 1_565 S
N630 C631 1.346 1_565 S
C631 N630 1.346 1_545 S
C631 C632 1.396 . S
C631 C641 1.510 1_545 S
C632 C628 1.401 . S
C632 C631 1.396 . S
C633 C628 1.499 . S
C633 H634 0.959 . S
C633 H635 0.960 . S
C633 H636 0.961 . S
H634 C633 0.959 . S
H635 C633 0.960 . S
H636 C633 0.961 . S
O637 Co612 1.968 1_565 S
O637 C645 1.258 . S
O638 Co613 1.941 . S
O638 C645 1.266 . S
H639 C641 0.959 . S
H640 C641 0.968 . S
C641 C631 1.510 1_565 S
C641 H639 0.959 . S
C641 H640 0.968 . S
C641 H642 0.960 . S
H642 C641 0.960 . S
H643 N623 0.862 . S
O644 Co612 1.919 . S
O644 C617 1.289 . S
C645 O637 1.258 . S
C645 O638 1.266 . S
Co646 O649 1.970 . S
Co646 N663 1.989 . S
Co646 O671 1.967 . S
Co646 O678 1.920 . S
Co647 O650 1.966 . S
Co647 N656 2.022 . S
Co647 N664 1.993 . S
Co647 O672 1.941 . S
C648 O649 1.258 . S
C648 O650 1.263 . S
O649 Co646 1.970 . S
O649 C648 1.258 . S
O650 Co647 1.966 . S
O650 C648 1.263 . S
C651 O652 1.235 . S
C651 O678 1.289 . S
O652 C651 1.235 . S
C653 C655 1.400 . S
C653 N656 1.351 . S
C653 C658 1.501 . S
C654 C655 1.387 . S
C654 N657 1.341 . S
C655 C653 1.400 . S
C655 C654 1.387 . S
N656 Co647 2.022 . S
N656 C653 1.351 . S
N656 N657 1.365 . S
N657 C654 1.341 . S
N657 N656 1.365 . S
N657 H677 0.862 . S
C658 C653 1.501 . S
C658 H659 0.961 . S
C658 H660 0.961 . S
C658 H661 0.960 . S
H659 C658 0.961 . S
H660 C658 0.961 . S
H661 C658 0.960 . S
C662 N663 1.342 . S
C662 C666 1.401 . S
C662 C667 1.499 . S
N663 Co646 1.989 . S
N663 C662 1.342 . S
N663 N664 1.388 . S
N664 Co647 1.993 . S
N664 N663 1.388 . S
N664 C665 1.346 . S
C665 N664 1.346 . S
C665 C666 1.396 . S
C665 C675 1.510 . S
C666 C662 1.401 . S
C666 C665 1.396 . S
C667 C662 1.499 . S
C667 H668 0.959 . S
C667 H669 0.960 . S
C667 H670 0.961 . S
H668 C667 0.959 . S
H669 C667 0.960 . S
H670 C667 0.961 . S
O671 Co646 1.967 . S
O671 C679 1.258 . S
O672 Co647 1.941 . S
O672 C679 1.266 . S
H673 C675 0.959 . S
H674 C675 0.961 . S
C675 C665 1.510 . S
C675 H673 0.959 . S
C675 H674 0.961 . S
C675 H676 0.960 . S
H676 C675 0.960 . S
H677 N657 0.862 . S
O678 Co646 1.920 . S
O678 C651 1.289 . S
C679 O671 1.258 . S
C679 O672 1.266 . S
Co680 O683 1.970 . S
Co680 N697 1.989 . S
Co680 O705 1.967 . S
Co680 O712 1.920 . S
Co681 O684 1.966 . S
Co681 N690 2.022 . S
Co681 N698 1.993 . S
Co681 O706 1.941 . S
C682 O683 1.258 . S
C682 O684 1.263 . S
O683 Co680 1.970 . S
O683 C682 1.258 . S
O684 Co681 1.966 . S
O684 C682 1.263 . S
C685 O686 1.235 . S
C685 O712 1.289 . S
O686 C685 1.235 . S
C687 C689 1.400 . S
C687 N690 1.351 . S
C687 C692 1.501 . S
C688 C689 1.387 . S
C688 N691 1.341 . S
C689 C687 1.400 . S
C689 C688 1.387 . S
N690 Co681 2.022 . S
N690 C687 1.351 . S
N690 N691 1.365 . S
N691 C688 1.341 . S
N691 N690 1.365 . S
N691 H711 0.862 . S
C692 C687 1.501 . S
C692 H693 0.961 . S
C692 H694 0.961 . S
C692 H695 0.960 . S
H693 C692 0.961 . S
H694 C692 0.961 . S
H695 C692 0.960 . S
C696 N697 1.342 . S
C696 C700 1.401 . S
C696 C701 1.499 . S
N697 Co680 1.989 . S
N697 C696 1.342 . S
N697 N698 1.388 . S
N698 Co681 1.993 . S
N698 N697 1.388 . S
N698 C699 1.346 . S
C699 N698 1.346 . S
C699 C700 1.396 . S
C699 C709 1.510 . S
C700 C696 1.401 . S
C700 C699 1.396 . S
C701 C696 1.499 . S
C701 H702 0.959 . S
C701 H703 0.960 . S
C701 H704 0.961 . S
H702 C701 0.959 . S
H703 C701 0.960 . S
H704 C701 0.961 . S
O705 Co680 1.967 . S
O705 C713 1.258 . S
O706 Co681 1.941 . S
O706 C713 1.266 . S
H707 C709 0.959 . S
H708 C709 0.961 . S
C709 C699 1.510 . S
C709 H707 0.959 . S
C709 H708 0.961 . S
C709 H710 0.960 . S
H710 C709 0.960 . S
H711 N691 0.862 . S
O712 Co680 1.920 . S
O712 C685 1.289 . S
C713 O705 1.258 . S
C713 O706 1.266 . S
Co714 O717 1.971 1_565 S
Co714 N731 1.989 . S
Co714 O739 1.968 1_565 S
Co714 O746 1.919 . S
Co715 O718 1.966 . S
Co715 N724 2.022 . S
Co715 N732 1.993 . S
Co715 O740 1.941 . S
C716 O717 1.258 . S
C716 O718 1.263 . S
O717 Co714 1.971 1_545 S
O717 C716 1.258 . S
O718 Co715 1.966 . S
O718 C716 1.263 . S
C719 O720 1.235 . S
C719 O746 1.289 . S
O720 C719 1.235 . S
C721 C723 1.400 . S
C721 N724 1.351 . S
C721 C726 1.501 . S
C722 C723 1.387 . S
C722 N725 1.341 . S
C723 C721 1.400 . S
C723 C722 1.387 . S
N724 Co715 2.022 . S
N724 C721 1.351 . S
N724 N725 1.365 . S
N725 C722 1.341 . S
N725 N724 1.365 . S
N725 H745 0.862 . S
C726 C721 1.501 . S
C726 H727 0.961 . S
C726 H728 0.961 . S
C726 H729 0.960 . S
H727 C726 0.961 . S
H728 C726 0.961 . S
H729 C726 0.960 . S
C730 N731 1.342 . S
C730 C734 1.401 . S
C730 C735 1.499 . S
N731 Co714 1.989 . S
N731 C730 1.342 . S
N731 N732 1.388 1_565 S
N732 Co715 1.993 . S
N732 N731 1.388 1_545 S
N732 C733 1.346 1_545 S
C733 N732 1.346 1_565 S
C733 C734 1.396 . S
C733 C743 1.510 1_565 S
C734 C730 1.401 . S
C734 C733 1.396 . S
C735 C730 1.499 . S
C735 H736 0.959 . S
C735 H737 0.960 . S
C735 H738 0.961 . S
H736 C735 0.959 . S
H737 C735 0.960 . S
H738 C735 0.961 . S
O739 Co714 1.968 1_545 S
O739 C747 1.258 . S
O740 Co715 1.941 . S
O740 C747 1.266 . S
H741 C743 0.959 . S
H742 C743 0.968 . S
C743 C733 1.510 1_545 S
C743 H741 0.959 . S
C743 H742 0.968 . S
C743 H744 0.960 . S
H744 C743 0.960 . S
H745 N725 0.862 . S
O746 Co714 1.919 . S
O746 C719 1.289 . S
C747 O739 1.258 . S
C747 O740 1.266 . S
Co748 O751 1.971 1_565 S
Co748 N765 1.989 . S
Co748 O773 1.968 1_565 S
Co748 O780 1.919 . S
Co749 O752 1.966 . S
Co749 N758 2.022 . S
Co749 N766 1.993 . S
Co749 O774 1.941 . S
C750 O751 1.258 . S
C750 O752 1.263 . S
O751 Co748 1.971 1_545 S
O751 C750 1.258 . S
O752 Co749 1.966 . S
O752 C750 1.263 . S
C753 O754 1.235 . S
C753 O780 1.289 . S
O754 C753 1.235 . S
C755 C757 1.400 . S
C755 N758 1.351 . S
C755 C760 1.501 . S
C756 C757 1.387 . S
C756 N759 1.341 . S
C757 C755 1.400 . S
C757 C756 1.387 . S
N758 Co749 2.022 . S
N758 C755 1.351 . S
N758 N759 1.365 . S
N759 C756 1.341 . S
N759 N758 1.365 . S
N759 H779 0.862 . S
C760 C755 1.501 . S
C760 H761 0.961 . S
C760 H762 0.961 . S
C760 H763 0.960 . S
H761 C760 0.961 . S
H762 C760 0.961 . S
H763 C760 0.960 . S
C764 N765 1.342 . S
C764 C768 1.401 . S
C764 C769 1.499 . S
N765 Co748 1.989 . S
N765 C764 1.342 . S
N765 N766 1.388 1_565 S
N766 Co749 1.993 . S
N766 N765 1.388 1_545 S
N766 C767 1.346 1_545 S
C767 N766 1.346 1_565 S
C767 C768 1.396 . S
C767 C777 1.510 1_565 S
C768 C764 1.401 . S
C768 C767 1.396 . S
C769 C764 1.499 . S
C769 H770 0.959 . S
C769 H771 0.960 . S
C769 H772 0.961 . S
H770 C769 0.959 . S
H771 C769 0.960 . S
H772 C769 0.961 . S
O773 Co748 1.968 1_545 S
O773 C781 1.258 . S
O774 Co749 1.941 . S
O774 C781 1.266 . S
H775 C777 0.959 . S
H776 C777 0.968 . S
C777 C767 1.510 1_545 S
C777 H775 0.959 . S
C777 H776 0.968 . S
C777 H778 0.960 . S
H778 C777 0.960 . S
H779 N759 0.862 . S
O780 Co748 1.919 . S
O780 C753 1.289 . S
C781 O773 1.258 . S
C781 O774 1.266 . S
Co782 O785 1.970 . S
Co782 N799 1.989 . S
Co782 O807 1.967 . S
Co782 O814 1.920 . S
Co783 O786 1.966 . S
Co783 N792 2.022 . S
Co783 N800 1.993 . S
Co783 O808 1.941 . S
C784 O785 1.258 . S
C784 O786 1.263 . S
O785 Co782 1.970 . S
O785 C784 1.258 . S
O786 Co783 1.966 . S
O786 C784 1.263 . S
C787 O788 1.235 . S
C787 O814 1.289 . S
O788 C787 1.235 . S
C789 C791 1.400 . S
C789 N792 1.351 . S
C789 C794 1.501 . S
C790 C791 1.387 . S
C790 N793 1.341 . S
C791 C789 1.400 . S
C791 C790 1.387 . S
N792 Co783 2.022 . S
N792 C789 1.351 . S
N792 N793 1.365 . S
N793 C790 1.341 . S
N793 N792 1.365 . S
N793 H813 0.862 . S
C794 C789 1.501 . S
C794 H795 0.961 . S
C794 H796 0.961 . S
C794 H797 0.960 . S
H795 C794 0.961 . S
H796 C794 0.961 . S
H797 C794 0.960 . S
C798 N799 1.342 . S
C798 C802 1.401 . S
C798 C803 1.499 . S
N799 Co782 1.989 . S
N799 C798 1.342 . S
N799 N800 1.388 . S
N800 Co783 1.993 . S
N800 N799 1.388 . S
N800 C801 1.346 . S
C801 N800 1.346 . S
C801 C802 1.396 . S
C801 C811 1.510 . S
C802 C798 1.401 . S
C802 C801 1.396 . S
C803 C798 1.499 . S
C803 H804 0.959 . S
C803 H805 0.960 . S
C803 H806 0.961 . S
H804 C803 0.959 . S
H805 C803 0.960 . S
H806 C803 0.961 . S
O807 Co782 1.967 . S
O807 C815 1.258 . S
O808 Co783 1.941 . S
O808 C815 1.266 . S
H809 C811 0.959 . S
H810 C811 0.961 . S
C811 C801 1.510 . S
C811 H809 0.959 . S
C811 H810 0.961 . S
C811 H812 0.960 . S
H812 C811 0.960 . S
H813 N793 0.862 . S
O814 Co782 1.920 . S
O814 C787 1.289 . S
C815 O807 1.258 . S
C815 O808 1.266 . S
Co816 O819 1.970 . S
Co816 N833 1.989 . S
Co816 O841 1.967 . S
Co816 O848 1.920 . S
Co817 O820 1.966 . S
Co817 N826 2.022 . S
Co817 N834 1.993 . S
Co817 O842 1.941 . S
C818 O819 1.258 . S
C818 O820 1.263 . S
O819 Co816 1.970 . S
O819 C818 1.258 . S
O820 Co817 1.966 . S
O820 C818 1.263 . S
C821 O822 1.235 . S
C821 O848 1.289 . S
O822 C821 1.235 . S
C823 C825 1.400 . S
C823 N826 1.351 . S
C823 C828 1.501 . S
C824 C825 1.387 . S
C824 N827 1.341 . S
C825 C823 1.400 . S
C825 C824 1.387 . S
N826 Co817 2.022 . S
N826 C823 1.351 . S
N826 N827 1.365 . S
N827 C824 1.341 . S
N827 N826 1.365 . S
N827 H847 0.862 . S
C828 C823 1.501 . S
C828 H829 0.961 . S
C828 H830 0.961 . S
C828 H831 0.960 . S
H829 C828 0.961 . S
H830 C828 0.961 . S
H831 C828 0.960 . S
C832 N833 1.342 . S
C832 C836 1.401 . S
C832 C837 1.499 . S
N833 Co816 1.989 . S
N833 C832 1.342 . S
N833 N834 1.388 . S
N834 Co817 1.993 . S
N834 N833 1.388 . S
N834 C835 1.346 . S
C835 N834 1.346 . S
C835 C836 1.396 . S
C835 C845 1.510 . S
C836 C832 1.401 . S
C836 C835 1.396 . S
C837 C832 1.499 . S
C837 H838 0.959 . S
C837 H839 0.960 . S
C837 H840 0.961 . S
H838 C837 0.959 . S
H839 C837 0.960 . S
H840 C837 0.961 . S
O841 Co816 1.967 . S
O841 C849 1.258 . S
O842 Co817 1.941 . S
O842 C849 1.266 . S
H843 C845 0.959 . S
H844 C845 0.961 . S
C845 C835 1.510 . S
C845 H843 0.959 . S
C845 H844 0.961 . S
C845 H846 0.960 . S
H846 C845 0.960 . S
H847 N827 0.862 . S
O848 Co816 1.920 . S
O848 C821 1.289 . S
C849 O841 1.258 . S
C849 O842 1.266 . S
Co850 O853 1.970 . S
Co850 N867 1.989 . S
Co850 O875 1.967 . S
Co850 O882 1.920 . S
Co851 O854 1.966 . S
Co851 N860 2.022 . S
Co851 N868 1.993 . S
Co851 O876 1.941 . S
C852 O853 1.258 . S
C852 O854 1.263 . S
O853 Co850 1.970 . S
O853 C852 1.258 . S
O854 Co851 1.966 . S
O854 C852 1.263 . S
C855 O856 1.235 . S
C855 O882 1.289 . S
O856 C855 1.235 . S
C857 C859 1.400 . S
C857 N860 1.351 . S
C857 C862 1.501 . S
C858 C859 1.387 . S
C858 N861 1.341 . S
C859 C857 1.400 . S
C859 C858 1.387 . S
N860 Co851 2.022 . S
N860 C857 1.351 . S
N860 N861 1.365 . S
N861 C858 1.341 . S
N861 N860 1.365 . S
N861 H881 0.862 . S
C862 C857 1.501 . S
C862 H863 0.961 . S
C862 H864 0.961 . S
C862 H865 0.960 . S
H863 C862 0.961 . S
H864 C862 0.961 . S
H865 C862 0.960 . S
C866 N867 1.342 . S
C866 C870 1.401 . S
C866 C871 1.499 . S
N867 Co850 1.989 . S
N867 C866 1.342 . S
N867 N868 1.388 . S
N868 Co851 1.993 . S
N868 N867 1.388 . S
N868 C869 1.346 . S
C869 N868 1.346 . S
C869 C870 1.396 . S
C869 C879 1.510 . S
C870 C866 1.401 . S
C870 C869 1.396 . S
C871 C866 1.499 . S
C871 H872 0.959 . S
C871 H873 0.960 . S
C871 H874 0.961 . S
H872 C871 0.959 . S
H873 C871 0.960 . S
H874 C871 0.961 . S
O875 Co850 1.967 . S
O875 C883 1.258 . S
O876 Co851 1.941 . S
O876 C883 1.266 . S
H877 C879 0.959 . S
H878 C879 0.961 . S
C879 C869 1.510 . S
C879 H877 0.959 . S
C879 H878 0.961 . S
C879 H880 0.960 . S
H880 C879 0.960 . S
H881 N861 0.862 . S
O882 Co850 1.920 . S
O882 C855 1.289 . S
C883 O875 1.258 . S
C883 O876 1.266 . S
Co884 O887 1.970 . S
Co884 N901 1.989 . S
Co884 O909 1.967 . S
Co884 O916 1.920 . S
Co885 O888 1.966 . S
Co885 N894 2.022 1_554 S
Co885 N902 1.989 1_554 S
Co885 O910 1.941 . S
C886 O887 1.258 . S
C886 O888 1.263 . S
O887 Co884 1.970 . S
O887 C886 1.258 . S
O888 Co885 1.966 . S
O888 C886 1.263 . S
C889 O890 1.235 . S
C889 O916 1.289 . S
O890 C889 1.235 . S
C891 C893 1.400 . S
C891 N894 1.351 . S
C891 C896 1.501 . S
C892 C893 1.387 . S
C892 N895 1.341 . S
C893 C891 1.400 . S
C893 C892 1.387 . S
N894 Co885 2.022 1_556 S
N894 C891 1.351 . S
N894 N895 1.365 . S
N895 C892 1.341 . S
N895 N894 1.365 . S
N895 H915 0.862 . S
C896 C891 1.501 . S
C896 H897 0.961 . S
C896 H898 0.961 . S
C896 H899 0.960 . S
H897 C896 0.961 . S
H898 C896 0.961 . S
H899 C896 0.960 . S
C900 N901 1.342 . S
C900 C904 1.401 1_554 S
C900 C905 1.499 . S
N901 Co884 1.989 . S
N901 C900 1.342 . S
N901 N902 1.376 1_554 S
N902 Co885 1.989 1_556 S
N902 N901 1.376 1_556 S
N902 C903 1.358 . S
C903 N902 1.358 . S
C903 C904 1.396 . S
C903 C913 1.510 . S
C904 C900 1.401 1_556 S
C904 C903 1.396 . S
C905 C900 1.499 . S
C905 H906 0.959 . S
C905 H907 0.960 . S
C905 H908 0.961 . S
H906 C905 0.959 . S
H907 C905 0.960 . S
H908 C905 0.961 . S
O909 Co884 1.967 . S
O909 C917 1.258 . S
O910 Co885 1.941 . S
O910 C917 1.266 . S
H911 C913 0.959 . S
H912 C913 0.961 . S
C913 C903 1.510 . S
C913 H911 0.959 . S
C913 H912 0.961 . S
C913 H914 0.960 . S
H914 C913 0.960 . S
H915 N895 0.862 . S
O916 Co884 1.920 . S
O916 C889 1.289 . S
C917 O909 1.258 . S
C917 O910 1.266 . S
Co918 O921 1.970 . S
Co918 N935 1.989 . S
Co918 O943 1.967 . S
Co918 O950 1.920 . S
Co919 O922 1.966 . S
Co919 N928 2.022 1_554 S
Co919 N936 1.989 1_554 S
Co919 O944 1.941 . S
C920 O921 1.258 . S
C920 O922 1.263 . S
O921 Co918 1.970 . S
O921 C920 1.258 . S
O922 Co919 1.966 . S
O922 C920 1.263 . S
C923 O924 1.235 . S
C923 O950 1.289 . S
O924 C923 1.235 . S
C925 C927 1.400 . S
C925 N928 1.351 . S
C925 C930 1.501 . S
C926 C927 1.387 . S
C926 N929 1.341 . S
C927 C925 1.400 . S
C927 C926 1.387 . S
N928 Co919 2.022 1_556 S
N928 C925 1.351 . S
N928 N929 1.365 . S
N929 C926 1.341 . S
N929 N928 1.365 . S
N929 H949 0.862 . S
C930 C925 1.501 . S
C930 H931 0.961 . S
C930 H932 0.961 . S
C930 H933 0.960 . S
H931 C930 0.961 . S
H932 C930 0.961 . S
H933 C930 0.960 . S
C934 N935 1.342 . S
C934 C938 1.401 1_554 S
C934 C939 1.499 . S
N935 Co918 1.989 . S
N935 C934 1.342 . S
N935 N936 1.376 1_554 S
N936 Co919 1.989 1_556 S
N936 N935 1.376 1_556 S
N936 C937 1.358 . S
C937 N936 1.358 . S
C937 C938 1.396 . S
C937 C947 1.510 . S
C938 C934 1.401 1_556 S
C938 C937 1.396 . S
C939 C934 1.499 . S
C939 H940 0.959 . S
C939 H941 0.960 . S
C939 H942 0.961 . S
H940 C939 0.959 . S
H941 C939 0.960 . S
H942 C939 0.961 . S
O943 Co918 1.967 . S
O943 C951 1.258 . S
O944 Co919 1.941 . S
O944 C951 1.266 . S
H945 C947 0.959 . S
H946 C947 0.961 . S
C947 C937 1.510 . S
C947 H945 0.959 . S
C947 H946 0.961 . S
C947 H948 0.960 . S
H948 C947 0.960 . S
H949 N929 0.862 . S
O950 Co918 1.920 . S
O950 C923 1.289 . S
C951 O943 1.258 . S
C951 O944 1.266 . S
Co952 O955 1.970 . S
Co952 N969 1.989 . S
Co952 O977 1.967 . S
Co952 O984 1.920 . S
Co953 O956 1.966 . S
Co953 N962 2.022 . S
Co953 N970 1.993 . S
Co953 O978 1.941 . S
C954 O955 1.258 . S
C954 O956 1.263 . S
O955 Co952 1.970 . S
O955 C954 1.258 . S
O956 Co953 1.966 . S
O956 C954 1.263 . S
C957 O958 1.235 . S
C957 O984 1.289 . S
O958 C957 1.235 . S
C959 C961 1.400 . S
C959 N962 1.351 . S
C959 C964 1.501 . S
C960 C961 1.387 . S
C960 N963 1.341 . S
C961 C959 1.400 . S
C961 C960 1.387 . S
N962 Co953 2.022 . S
N962 C959 1.351 . S
N962 N963 1.365 . S
N963 C960 1.341 . S
N963 N962 1.365 . S
N963 H983 0.862 . S
C964 C959 1.501 . S
C964 H965 0.961 . S
C964 H966 0.961 . S
C964 H967 0.960 . S
H965 C964 0.961 . S
H966 C964 0.961 . S
H967 C964 0.960 . S
C968 N969 1.342 . S
C968 C972 1.401 . S
C968 C973 1.499 . S
N969 Co952 1.989 . S
N969 C968 1.342 . S
N969 N970 1.388 . S
N970 Co953 1.993 . S
N970 N969 1.388 . S
N970 C971 1.346 . S
C971 N970 1.346 . S
C971 C972 1.396 . S
C971 C981 1.510 . S
C972 C968 1.401 . S
C972 C971 1.396 . S
C973 C968 1.499 . S
C973 H974 0.959 . S
C973 H975 0.960 . S
C973 H976 0.961 . S
H974 C973 0.959 . S
H975 C973 0.960 . S
H976 C973 0.961 . S
O977 Co952 1.967 . S
O977 C985 1.258 . S
O978 Co953 1.941 . S
O978 C985 1.266 . S
H979 C981 0.959 . S
H980 C981 0.961 . S
C981 C971 1.510 . S
C981 H979 0.959 . S
C981 H980 0.961 . S
C981 H982 0.960 . S
H982 C981 0.960 . S
H983 N963 0.862 . S
O984 Co952 1.920 . S
O984 C957 1.289 . S
C985 O977 1.258 . S
C985 O978 1.266 . S
Co986 O989 1.970 . S
Co986 N1003 1.989 . S
Co986 O1011 1.967 . S
Co986 O1018 1.920 . S
Co987 O990 1.966 . S
Co987 N996 2.022 . S
Co987 N1004 1.993 . S
Co987 O1012 1.941 . S
C988 O989 1.258 . S
C988 O990 1.263 . S
O989 Co986 1.970 . S
O989 C988 1.258 . S
O990 Co987 1.966 . S
O990 C988 1.263 . S
C991 O992 1.235 . S
C991 O1018 1.289 . S
O992 C991 1.235 . S
C993 C995 1.400 . S
C993 N996 1.351 . S
C993 C998 1.501 . S
C994 C995 1.387 . S
C994 N997 1.341 . S
C995 C993 1.400 . S
C995 C994 1.387 . S
N996 Co987 2.022 . S
N996 C993 1.351 . S
N996 N997 1.365 . S
N997 C994 1.341 . S
N997 N996 1.365 . S
N997 H1017 0.862 . S
C998 C993 1.501 . S
C998 H999 0.961 . S
C998 H1000 0.961 . S
C998 H1001 0.960 . S
H999 C998 0.961 . S
H1000 C998 0.961 . S
H1001 C998 0.960 . S
C1002 N1003 1.342 . S
C1002 C1006 1.401 . S
C1002 C1007 1.499 . S
N1003 Co986 1.989 . S
N1003 C1002 1.342 . S
N1003 N1004 1.388 . S
N1004 Co987 1.993 . S
N1004 N1003 1.388 . S
N1004 C1005 1.346 . S
C1005 N1004 1.346 . S
C1005 C1006 1.396 . S
C1005 C1015 1.510 . S
C1006 C1002 1.401 . S
C1006 C1005 1.396 . S
C1007 C1002 1.499 . S
C1007 H1008 0.959 . S
C1007 H1009 0.960 . S
C1007 H1010 0.961 . S
H1008 C1007 0.959 . S
H1009 C1007 0.960 . S
H1010 C1007 0.961 . S
O1011 Co986 1.967 . S
O1011 C1019 1.258 . S
O1012 Co987 1.941 . S
O1012 C1019 1.266 . S
H1013 C1015 0.959 . S
H1014 C1015 0.961 . S
C1015 C1005 1.510 . S
C1015 H1013 0.959 . S
C1015 H1014 0.961 . S
C1015 H1016 0.960 . S
H1016 C1015 0.960 . S
H1017 N997 0.862 . S
O1018 Co986 1.920 . S
O1018 C991 1.289 . S
C1019 O1011 1.258 . S
C1019 O1012 1.266 . S
Co1020 O1023 1.970 . S
Co1020 N1037 1.989 . S
Co1020 O1045 1.967 . S
Co1020 O1052 1.920 . S
Co1021 O1024 1.966 . S
Co1021 N1030 2.022 1_556 S
Co1021 N1038 1.989 1_556 S
Co1021 O1046 1.941 . S
C1022 O1023 1.258 . S
C1022 O1024 1.263 . S
O1023 Co1020 1.970 . S
O1023 C1022 1.258 . S
O1024 Co1021 1.966 . S
O1024 C1022 1.263 . S
C1025 O1026 1.235 . S
C1025 O1052 1.289 . S
O1026 C1025 1.235 . S
C1027 C1029 1.400 . S
C1027 N1030 1.351 . S
C1027 C1032 1.501 . S
C1028 C1029 1.387 . S
C1028 N1031 1.341 . S
C1029 C1027 1.400 . S
C1029 C1028 1.387 . S
N1030 Co1021 2.022 1_554 S
N1030 C1027 1.351 . S
N1030 N1031 1.365 . S
N1031 C1028 1.341 . S
N1031 N1030 1.365 . S
N1031 H1051 0.862 . S
C1032 C1027 1.501 . S
C1032 H1033 0.961 . S
C1032 H1034 0.961 . S
C1032 H1035 0.960 . S
H1033 C1032 0.961 . S
H1034 C1032 0.961 . S
H1035 C1032 0.960 . S
C1036 N1037 1.342 . S
C1036 C1040 1.401 1_556 S
C1036 C1041 1.499 . S
N1037 Co1020 1.989 . S
N1037 C1036 1.342 . S
N1037 N1038 1.376 1_556 S
N1038 Co1021 1.989 1_554 S
N1038 N1037 1.376 1_554 S
N1038 C1039 1.358 . S
C1039 N1038 1.358 . S
C1039 C1040 1.396 . S
C1039 C1049 1.510 . S
C1040 C1036 1.401 1_554 S
C1040 C1039 1.396 . S
C1041 C1036 1.499 . S
C1041 H1042 0.959 . S
C1041 H1043 0.960 . S
C1041 H1044 0.961 . S
H1042 C1041 0.959 . S
H1043 C1041 0.960 . S
H1044 C1041 0.961 . S
O1045 Co1020 1.967 . S
O1045 C1053 1.258 . S
O1046 Co1021 1.941 . S
O1046 C1053 1.266 . S
H1047 C1049 0.959 . S
H1048 C1049 0.961 . S
C1049 C1039 1.510 . S
C1049 H1047 0.959 . S
C1049 H1048 0.961 . S
C1049 H1050 0.960 . S
H1050 C1049 0.960 . S
H1051 N1031 0.862 . S
O1052 Co1020 1.920 . S
O1052 C1025 1.289 . S
C1053 O1045 1.258 . S
C1053 O1046 1.266 . S
Co1054 O1057 1.970 . S
Co1054 N1071 1.989 . S
Co1054 O1079 1.967 . S
Co1054 O1086 1.920 . S
Co1055 O1058 1.966 . S
Co1055 N1064 2.022 1_556 S
Co1055 N1072 1.989 1_556 S
Co1055 O1080 1.941 . S
C1056 O1057 1.258 . S
C1056 O1058 1.263 . S
O1057 Co1054 1.970 . S
O1057 C1056 1.258 . S
O1058 Co1055 1.966 . S
O1058 C1056 1.263 . S
C1059 O1060 1.235 . S
C1059 O1086 1.289 . S
O1060 C1059 1.235 . S
C1061 C1063 1.400 . S
C1061 N1064 1.351 . S
C1061 C1066 1.501 . S
C1062 C1063 1.387 . S
C1062 N1065 1.341 . S
C1063 C1061 1.400 . S
C1063 C1062 1.387 . S
N1064 Co1055 2.022 1_554 S
N1064 C1061 1.351 . S
N1064 N1065 1.365 . S
N1065 C1062 1.341 . S
N1065 N1064 1.365 . S
N1065 H1085 0.862 . S
C1066 C1061 1.501 . S
C1066 H1067 0.961 . S
C1066 H1068 0.961 . S
C1066 H1069 0.960 . S
H1067 C1066 0.961 . S
H1068 C1066 0.961 . S
H1069 C1066 0.960 . S
C1070 N1071 1.342 . S
C1070 C1074 1.401 1_556 S
C1070 C1075 1.499 . S
N1071 Co1054 1.989 . S
N1071 C1070 1.342 . S
N1071 N1072 1.376 1_556 S
N1072 Co1055 1.989 1_554 S
N1072 N1071 1.376 1_554 S
N1072 C1073 1.358 . S
C1073 N1072 1.358 . S
C1073 C1074 1.396 . S
C1073 C1083 1.510 . S
C1074 C1070 1.401 1_554 S
C1074 C1073 1.396 . S
C1075 C1070 1.499 . S
C1075 H1076 0.959 . S
C1075 H1077 0.960 . S
C1075 H1078 0.961 . S
H1076 C1075 0.959 . S
H1077 C1075 0.960 . S
H1078 C1075 0.961 . S
O1079 Co1054 1.967 . S
O1079 C1087 1.258 . S
O1080 Co1055 1.941 . S
O1080 C1087 1.266 . S
H1081 C1083 0.959 . S
H1082 C1083 0.961 . S
C1083 C1073 1.510 . S
C1083 H1081 0.959 . S
C1083 H1082 0.961 . S
C1083 H1084 0.960 . S
H1084 C1083 0.960 . S
H1085 N1065 0.862 . S
O1086 Co1054 1.920 . S
O1086 C1059 1.289 . S
C1087 O1079 1.258 . S
C1087 O1080 1.266 . S
C1088 C1089 1.387 . S
C1088 H1092 0.950 . S
C1088 C1097 1.390 . S
C1089 C1088 1.387 . S
C1089 C1091 1.387 . S
H1090 C1097 0.950 . S
C1091 C1089 1.387 . S
C1091 C1093 1.390 . S
C1091 H1095 0.950 . S
H1092 C1088 0.950 . S
C1093 C1091 1.390 . S
C1093 C1094 1.387 . S
C1093 H1096 0.950 . S
C1094 C1093 1.387 . S
C1094 C1097 1.387 . S
H1095 C1091 0.950 . S
H1096 C1093 0.950 . S
C1097 C1088 1.390 . S
C1097 H1090 0.950 . S
C1097 C1094 1.387 . S
C1098 C1099 1.387 . S
C1098 H1102 0.950 . S
C1098 C1107 1.390 . S
C1099 C1098 1.387 . S
C1099 C1101 1.387 . S
H1100 C1107 0.950 . S
C1101 C1099 1.387 . S
C1101 C1103 1.390 . S
C1101 H1105 0.950 . S
H1102 C1098 0.950 . S
C1103 C1101 1.390 . S
C1103 C1104 1.387 . S
C1103 H1106 0.950 . S
C1104 C1103 1.387 . S
C1104 C1107 1.387 . S
H1105 C1101 0.950 . S
H1106 C1103 0.950 . S
C1107 C1098 1.390 . S
C1107 H1100 0.950 . S
C1107 C1104 1.387 . S
C1108 C1109 1.387 . S
C1108 H1112 0.950 . S
C1108 C1117 1.390 . S
C1109 C1108 1.387 . S
C1109 C1111 1.387 . S
H1110 C1117 0.950 . S
C1111 C1109 1.387 . S
C1111 C1113 1.390 . S
C1111 H1115 0.950 . S
H1112 C1108 0.950 . S
C1113 C1111 1.390 . S
C1113 C1114 1.387 . S
C1113 H1116 0.950 . S
C1114 C1113 1.387 . S
C1114 C1117 1.387 . S
H1115 C1111 0.950 . S
H1116 C1113 0.950 . S
C1117 C1108 1.390 . S
C1117 H1110 0.950 . S
C1117 C1114 1.387 . S
C1118 C1119 1.387 . S
C1118 H1122 0.950 . S
C1118 C1127 1.390 . S
C1119 C1118 1.387 . S
C1119 C1121 1.387 . S
H1120 C1127 0.950 . S
C1121 C1119 1.387 . S
C1121 C1123 1.390 . S
C1121 H1125 0.950 . S
H1122 C1118 0.950 . S
C1123 C1121 1.390 . S
C1123 C1124 1.387 . S
C1123 H1126 0.950 . S
C1124 C1123 1.387 . S
C1124 C1127 1.387 . S
H1125 C1121 0.950 . S
H1126 C1123 0.950 . S
C1127 C1118 1.390 . S
C1127 H1120 0.950 . S
C1127 C1124 1.387 . S
C1128 C1129 1.387 . S
C1128 H1132 0.950 . S
C1128 C1137 1.390 . S
C1129 C1128 1.387 . S
C1129 C1131 1.387 . S
H1130 C1137 0.950 . S
C1131 C1129 1.387 . S
C1131 C1133 1.390 . S
C1131 H1135 0.950 . S
H1132 C1128 0.950 . S
C1133 C1131 1.390 . S
C1133 C1134 1.387 . S
C1133 H1136 0.950 . S
C1134 C1133 1.387 . S
C1134 C1137 1.387 . S
H1135 C1131 0.950 . S
H1136 C1133 0.950 . S
C1137 C1128 1.390 . S
C1137 H1130 0.950 . S
C1137 C1134 1.387 . S
C1138 C1139 1.387 . S
C1138 H1142 0.950 . S
C1138 C1147 1.390 . S
C1139 C1138 1.387 . S
C1139 C1141 1.387 . S
H1140 C1147 0.950 . S
C1141 C1139 1.387 . S
C1141 C1143 1.390 . S
C1141 H1145 0.950 . S
H1142 C1138 0.950 . S
C1143 C1141 1.390 . S
C1143 C1144 1.387 . S
C1143 H1146 0.950 . S
C1144 C1143 1.387 . S
C1144 C1147 1.387 . S
H1145 C1141 0.950 . S
H1146 C1143 0.950 . S
C1147 C1138 1.390 . S
C1147 H1140 0.950 . S
C1147 C1144 1.387 . S
C1148 C1149 1.387 . S
C1148 H1152 0.950 . S
C1148 C1157 1.390 . S
C1149 C1148 1.387 . S
C1149 C1151 1.387 . S
H1150 C1157 0.950 . S
C1151 C1149 1.387 . S
C1151 C1153 1.390 . S
C1151 H1155 0.950 . S
H1152 C1148 0.950 . S
C1153 C1151 1.390 . S
C1153 C1154 1.387 . S
C1153 H1156 0.950 . S
C1154 C1153 1.387 . S
C1154 C1157 1.387 . S
H1155 C1151 0.950 . S
H1156 C1153 0.950 . S
C1157 C1148 1.390 . S
C1157 H1150 0.950 . S
C1157 C1154 1.387 . S
C1158 C1159 1.387 . S
C1158 H1162 0.950 . S
C1158 C1167 1.390 . S
C1159 C1158 1.387 . S
C1159 C1161 1.387 . S
H1160 C1167 0.950 . S
C1161 C1159 1.387 . S
C1161 C1163 1.390 . S
C1161 H1165 0.950 . S
H1162 C1158 0.950 . S
C1163 C1161 1.390 . S
C1163 C1164 1.387 . S
C1163 H1166 0.950 . S
C1164 C1163 1.387 . S
C1164 C1167 1.387 . S
H1165 C1161 0.950 . S
H1166 C1163 0.950 . S
C1167 C1158 1.390 . S
C1167 H1160 0.950 . S
C1167 C1164 1.387 . S
C1168 C1169 1.387 . S
C1168 H1172 0.950 . S
C1168 C1177 1.390 . S
C1169 C1168 1.387 . S
C1169 C1171 1.387 . S
H1170 C1177 0.950 . S
C1171 C1169 1.387 . S
C1171 C1173 1.390 . S
C1171 H1175 0.950 . S
H1172 C1168 0.950 . S
C1173 C1171 1.390 . S
C1173 C1174 1.387 . S
C1173 H1176 0.950 . S
C1174 C1173 1.387 . S
C1174 C1177 1.387 . S
H1175 C1171 0.950 . S
H1176 C1173 0.950 . S
C1177 C1168 1.390 . S
C1177 H1170 0.950 . S
C1177 C1174 1.387 . S
C1178 C1179 1.387 . S
C1178 H1182 0.950 . S
C1178 C1187 1.390 . S
C1179 C1178 1.387 . S
C1179 C1181 1.387 . S
H1180 C1187 0.950 . S
C1181 C1179 1.387 . S
C1181 C1183 1.390 . S
C1181 H1185 0.950 . S
H1182 C1178 0.950 . S
C1183 C1181 1.390 . S
C1183 C1184 1.387 . S
C1183 H1186 0.950 . S
C1184 C1183 1.387 . S
C1184 C1187 1.387 . S
H1185 C1181 0.950 . S
H1186 C1183 0.950 . S
C1187 C1178 1.390 . S
C1187 H1180 0.950 . S
C1187 C1184 1.387 . S
C1188 C1189 1.387 . S
C1188 H1192 0.950 . S
C1188 C1197 1.390 . S
C1189 C1188 1.387 . S
C1189 C1191 1.387 . S
H1190 C1197 0.950 . S
C1191 C1189 1.387 . S
C1191 C1193 1.390 . S
C1191 H1195 0.950 . S
H1192 C1188 0.950 . S
C1193 C1191 1.390 . S
C1193 C1194 1.387 . S
C1193 H1196 0.950 . S
C1194 C1193 1.387 . S
C1194 C1197 1.387 . S
H1195 C1191 0.950 . S
H1196 C1193 0.950 . S
C1197 C1188 1.390 . S
C1197 H1190 0.950 . S
C1197 C1194 1.387 . S
C1198 C1199 1.387 . S
C1198 H1202 0.950 . S
C1198 C1207 1.390 . S
C1199 C1198 1.387 . S
C1199 C1201 1.387 . S
H1200 C1207 0.950 . S
C1201 C1199 1.387 . S
C1201 C1203 1.390 . S
C1201 H1205 0.950 . S
H1202 C1198 0.950 . S
C1203 C1201 1.390 . S
C1203 C1204 1.387 . S
C1203 H1206 0.950 . S
C1204 C1203 1.387 . S
C1204 C1207 1.387 . S
H1205 C1201 0.950 . S
H1206 C1203 0.950 . S
C1207 C1198 1.390 . S
C1207 H1200 0.950 . S
C1207 C1204 1.387 . S
C1208 C1209 1.387 . S
C1208 H1212 0.950 . S
C1208 C1217 1.390 . S
C1209 C1208 1.387 . S
C1209 C1211 1.387 . S
H1210 C1217 0.950 . S
C1211 C1209 1.387 . S
C1211 C1213 1.390 . S
C1211 H1215 0.950 . S
H1212 C1208 0.950 . S
C1213 C1211 1.390 . S
C1213 C1214 1.387 . S
C1213 H1216 0.950 . S
C1214 C1213 1.387 . S
C1214 C1217 1.387 . S
H1215 C1211 0.950 . S
H1216 C1213 0.950 . S
C1217 C1208 1.390 . S
C1217 H1210 0.950 . S
C1217 C1214 1.387 . S
C1218 C1219 1.387 . S
C1218 H1222 0.950 . S
C1218 C1227 1.390 . S
C1219 C1218 1.387 . S
C1219 C1221 1.387 . S
H1220 C1227 0.950 . S
C1221 C1219 1.387 . S
C1221 C1223 1.390 . S
C1221 H1225 0.950 . S
H1222 C1218 0.950 . S
C1223 C1221 1.390 . S
C1223 C1224 1.387 . S
C1223 H1226 0.950 . S
C1224 C1223 1.387 . S
C1224 C1227 1.387 . S
H1225 C1221 0.950 . S
H1226 C1223 0.950 . S
C1227 C1218 1.390 . S
C1227 H1220 0.950 . S
C1227 C1224 1.387 . S
C1228 C1229 1.387 . S
C1228 H1232 0.950 . S
C1228 C1237 1.390 . S
C1229 C1228 1.387 . S
C1229 C1231 1.387 . S
H1230 C1237 0.950 . S
C1231 C1229 1.387 . S
C1231 C1233 1.390 . S
C1231 H1235 0.950 . S
H1232 C1228 0.950 . S
C1233 C1231 1.390 . S
C1233 C1234 1.387 . S
C1233 H1236 0.950 . S
C1234 C1233 1.387 . S
C1234 C1237 1.387 . S
H1235 C1231 0.950 . S
H1236 C1233 0.950 . S
C1237 C1228 1.390 . S
C1237 H1230 0.950 . S
C1237 C1234 1.387 . S
C1238 C1239 1.387 . S
C1238 H1242 0.950 . S
C1238 C1247 1.390 . S
C1239 C1238 1.387 . S
C1239 C1241 1.387 . S
H1240 C1247 0.950 . S
C1241 C1239 1.387 . S
C1241 C1243 1.390 . S
C1241 H1245 0.950 . S
H1242 C1238 0.950 . S
C1243 C1241 1.390 . S
C1243 C1244 1.387 . S
C1243 H1246 0.950 . S
C1244 C1243 1.387 . S
C1244 C1247 1.387 . S
H1245 C1241 0.950 . S
H1246 C1243 0.950 . S
C1247 C1238 1.390 . S
C1247 H1240 0.950 . S
C1247 C1244 1.387 . S
C1248 C1249 1.387 . S
C1248 H1252 0.950 . S
C1248 C1257 1.390 . S
C1249 C1248 1.387 . S
C1249 C1251 1.387 . S
H1250 C1257 0.950 . S
C1251 C1249 1.387 . S
C1251 C1253 1.390 . S
C1251 H1255 0.950 . S
H1252 C1248 0.950 . S
C1253 C1251 1.390 . S
C1253 C1254 1.387 . S
C1253 H1256 0.950 . S
C1254 C1253 1.387 . S
C1254 C1257 1.387 . S
H1255 C1251 0.950 . S
H1256 C1253 0.950 . S
C1257 C1248 1.390 . S
C1257 H1250 0.950 . S
C1257 C1254 1.387 . S
C1258 C1259 1.387 . S
C1258 H1262 0.950 . S
C1258 C1267 1.390 . S
C1259 C1258 1.387 . S
C1259 C1261 1.387 . S
H1260 C1267 0.950 . S
C1261 C1259 1.387 . S
C1261 C1263 1.390 . S
C1261 H1265 0.950 . S
H1262 C1258 0.950 . S
C1263 C1261 1.390 . S
C1263 C1264 1.387 . S
C1263 H1266 0.950 . S
C1264 C1263 1.387 . S
C1264 C1267 1.387 . S
H1265 C1261 0.950 . S
H1266 C1263 0.950 . S
C1267 C1258 1.390 . S
C1267 H1260 0.950 . S
C1267 C1264 1.387 . S
C1268 C1269 1.387 . S
C1268 H1272 0.950 . S
C1268 C1277 1.390 . S
C1269 C1268 1.387 . S
C1269 C1271 1.387 . S
H1270 C1277 0.950 . S
C1271 C1269 1.387 . S
C1271 C1273 1.390 . S
C1271 H1275 0.950 1_554 S
H1272 C1268 0.950 . S
C1273 C1271 1.390 . S
C1273 C1274 1.387 . S
C1273 H1276 0.950 1_554 S
C1274 C1273 1.387 . S
C1274 C1277 1.387 . S
H1275 C1271 0.950 1_556 S
H1276 C1273 0.950 1_556 S
C1277 C1268 1.390 . S
C1277 H1270 0.950 . S
C1277 C1274 1.387 . S
C1278 C1279 1.387 . S
C1278 H1282 0.950 . S
C1278 C1287 1.390 . S
C1279 C1278 1.387 . S
C1279 C1281 1.387 . S
H1280 C1287 0.950 . S
C1281 C1279 1.387 . S
C1281 C1283 1.390 . S
C1281 H1285 0.950 1_554 S
H1282 C1278 0.950 . S
C1283 C1281 1.390 . S
C1283 C1284 1.387 . S
C1283 H1286 0.950 1_554 S
C1284 C1283 1.387 . S
C1284 C1287 1.387 . S
H1285 C1281 0.950 1_556 S
H1286 C1283 0.950 1_556 S
C1287 C1278 1.390 . S
C1287 H1280 0.950 . S
C1287 C1284 1.387 . S
C1288 C1289 1.387 . S
C1288 H1292 0.950 . S
C1288 C1297 1.390 . S
C1289 C1288 1.387 . S
C1289 C1291 1.387 . S
H1290 C1297 0.950 . S
C1291 C1289 1.387 . S
C1291 C1293 1.390 . S
C1291 H1295 0.950 . S
H1292 C1288 0.950 . S
C1293 C1291 1.390 . S
C1293 C1294 1.387 . S
C1293 H1296 0.950 . S
C1294 C1293 1.387 . S
C1294 C1297 1.387 . S
H1295 C1291 0.950 . S
H1296 C1293 0.950 . S
C1297 C1288 1.390 . S
C1297 H1290 0.950 . S
C1297 C1294 1.387 . S
C1298 C1299 1.387 . S
C1298 H1302 0.950 . S
C1298 C1307 1.390 . S
C1299 C1298 1.387 . S
C1299 C1301 1.387 . S
H1300 C1307 0.950 . S
C1301 C1299 1.387 . S
C1301 C1303 1.390 . S
C1301 H1305 0.950 . S
H1302 C1298 0.950 . S
C1303 C1301 1.390 . S
C1303 C1304 1.387 . S
C1303 H1306 0.950 . S
C1304 C1303 1.387 . S
C1304 C1307 1.387 . S
H1305 C1301 0.950 . S
H1306 C1303 0.950 . S
C1307 C1298 1.390 . S
C1307 H1300 0.950 . S
C1307 C1304 1.387 . S
C1308 C1309 1.387 . S
C1308 H1312 0.950 1_556 S
C1308 C1317 1.390 . S
C1309 C1308 1.387 . S
C1309 C1311 1.387 . S
H1310 C1317 0.950 1_554 S
C1311 C1309 1.387 . S
C1311 C1313 1.390 . S
C1311 H1315 0.950 . S
H1312 C1308 0.950 1_554 S
C1313 C1311 1.390 . S
C1313 C1314 1.387 . S
C1313 H1316 0.950 . S
C1314 C1313 1.387 . S
C1314 C1317 1.387 . S
H1315 C1311 0.950 . S
H1316 C1313 0.950 . S
C1317 C1308 1.390 . S
C1317 H1310 0.950 1_556 S
C1317 C1314 1.387 . S
C1318 C1319 1.387 . S
C1318 H1322 0.950 1_556 S
C1318 C1327 1.390 . S
C1319 C1318 1.387 . S
C1319 C1321 1.387 . S
H1320 C1327 0.950 1_554 S
C1321 C1319 1.387 . S
C1321 C1323 1.390 . S
C1321 H1325 0.950 . S
H1322 C1318 0.950 1_554 S
C1323 C1321 1.390 . S
C1323 C1324 1.387 . S
C1323 H1326 0.950 . S
C1324 C1323 1.387 . S
C1324 C1327 1.387 . S
H1325 C1321 0.950 . S
H1326 C1323 0.950 . S
C1327 C1318 1.390 . S
C1327 H1320 0.950 1_556 S
C1327 C1324 1.387 . S
C1328 C1329 1.387 . S
C1328 H1332 0.950 . S
C1328 C1337 1.390 . S
C1329 C1328 1.387 . S
C1329 C1331 1.387 . S
H1330 C1337 0.950 . S
C1331 C1329 1.387 . S
C1331 C1333 1.390 . S
C1331 H1335 0.950 . S
H1332 C1328 0.950 . S
C1333 C1331 1.390 . S
C1333 C1334 1.387 . S
C1333 H1336 0.950 . S
C1334 C1333 1.387 . S
C1334 C1337 1.387 . S
H1335 C1331 0.950 . S
H1336 C1333 0.950 . S
C1337 C1328 1.390 . S
C1337 H1330 0.950 . S
C1337 C1334 1.387 . S
C1338 C1339 1.387 . S
C1338 H1342 0.950 . S
C1338 C1347 1.390 . S
C1339 C1338 1.387 . S
C1339 C1341 1.387 . S
H1340 C1347 0.950 . S
C1341 C1339 1.387 . S
C1341 C1343 1.390 . S
C1341 H1345 0.950 . S
H1342 C1338 0.950 . S
C1343 C1341 1.390 . S
C1343 C1344 1.387 . S
C1343 H1346 0.950 . S
C1344 C1343 1.387 . S
C1344 C1347 1.387 . S
H1345 C1341 0.950 . S
H1346 C1343 0.950 . S
C1347 C1338 1.390 . S
C1347 H1340 0.950 . S
C1347 C1344 1.387 . S
C1348 C1349 1.387 . S
C1348 H1352 0.950 . S
C1348 C1357 1.390 . S
C1349 C1348 1.387 . S
C1349 C1351 1.387 . S
H1350 C1357 0.950 . S
C1351 C1349 1.387 . S
C1351 C1353 1.390 . S
C1351 H1355 0.950 . S
H1352 C1348 0.950 . S
C1353 C1351 1.390 . S
C1353 C1354 1.387 . S
C1353 H1356 0.950 . S
C1354 C1353 1.387 . S
C1354 C1357 1.387 . S
H1355 C1351 0.950 . S
H1356 C1353 0.950 . S
C1357 C1348 1.390 . S
C1357 H1350 0.950 . S
C1357 C1354 1.387 . S
C1358 C1359 1.387 . S
C1358 H1362 0.950 . S
C1358 C1367 1.390 . S
C1359 C1358 1.387 . S
C1359 C1361 1.387 . S
H1360 C1367 0.950 . S
C1361 C1359 1.387 . S
C1361 C1363 1.390 . S
C1361 H1365 0.950 . S
H1362 C1358 0.950 . S
C1363 C1361 1.390 . S
C1363 C1364 1.387 . S
C1363 H1366 0.950 . S
C1364 C1363 1.387 . S
C1364 C1367 1.387 . S
H1365 C1361 0.950 . S
H1366 C1363 0.950 . S
C1367 C1358 1.390 . S
C1367 H1360 0.950 . S
C1367 C1364 1.387 . S
C1368 C1369 1.387 . S
C1368 H1372 0.950 . S
C1368 C1377 1.390 . S
C1369 C1368 1.387 . S
C1369 C1371 1.387 . S
H1370 C1377 0.950 . S
C1371 C1369 1.387 . S
C1371 C1373 1.390 . S
C1371 H1375 0.950 . S
H1372 C1368 0.950 . S
C1373 C1371 1.390 . S
C1373 C1374 1.387 . S
C1373 H1376 0.950 . S
C1374 C1373 1.387 . S
C1374 C1377 1.387 . S
H1375 C1371 0.950 . S
H1376 C1373 0.950 . S
C1377 C1368 1.390 . S
C1377 H1370 0.950 . S
C1377 C1374 1.387 . S
C1378 C1379 1.387 . S
C1378 H1382 0.950 . S
C1378 C1387 1.390 . S
C1379 C1378 1.387 . S
C1379 C1381 1.387 . S
H1380 C1387 0.950 . S
C1381 C1379 1.387 . S
C1381 C1383 1.390 . S
C1381 H1385 0.950 . S
H1382 C1378 0.950 . S
C1383 C1381 1.390 . S
C1383 C1384 1.387 . S
C1383 H1386 0.950 . S
C1384 C1383 1.387 . S
C1384 C1387 1.387 . S
H1385 C1381 0.950 . S
H1386 C1383 0.950 . S
C1387 C1378 1.390 . S
C1387 H1380 0.950 . S
C1387 C1384 1.387 . S
C1388 C1389 1.387 . S
C1388 H1392 0.950 . S
C1388 C1397 1.390 . S
C1389 C1388 1.387 . S
C1389 C1391 1.387 . S
H1390 C1397 0.950 . S
C1391 C1389 1.387 . S
C1391 C1393 1.390 . S
C1391 H1395 0.950 . S
H1392 C1388 0.950 . S
C1393 C1391 1.390 . S
C1393 C1394 1.387 . S
C1393 H1396 0.950 . S
C1394 C1393 1.387 . S
C1394 C1397 1.387 . S
H1395 C1391 0.950 . S
H1396 C1393 0.950 . S
C1397 C1388 1.390 . S
C1397 H1390 0.950 . S
C1397 C1394 1.387 . S
C1398 C1399 1.387 . S
C1398 H1402 0.950 . S
C1398 C1407 1.390 . S
C1399 C1398 1.387 . S
C1399 C1401 1.387 . S
H1400 C1407 0.950 . S
C1401 C1399 1.387 . S
C1401 C1403 1.390 . S
C1401 H1405 0.950 . S
H1402 C1398 0.950 . S
C1403 C1401 1.390 . S
C1403 C1404 1.387 . S
C1403 H1406 0.950 . S
C1404 C1403 1.387 . S
C1404 C1407 1.387 . S
H1405 C1401 0.950 . S
H1406 C1403 0.950 . S
C1407 C1398 1.390 . S
C1407 H1400 0.950 . S
C1407 C1404 1.387 . S
C1408 C1409 1.387 . S
C1408 H1412 0.950 . S
C1408 C1417 1.390 . S
C1409 C1408 1.387 . S
C1409 C1411 1.387 . S
H1410 C1417 0.950 . S
C1411 C1409 1.387 . S
C1411 C1413 1.390 . S
C1411 H1415 0.950 . S
H1412 C1408 0.950 . S
C1413 C1411 1.390 . S
C1413 C1414 1.387 . S
C1413 H1416 0.950 . S
C1414 C1413 1.387 . S
C1414 C1417 1.387 . S
H1415 C1411 0.950 . S
H1416 C1413 0.950 . S
C1417 C1408 1.390 . S
C1417 H1410 0.950 . S
C1417 C1414 1.387 . S
C1418 C1419 1.387 . S
C1418 H1422 0.950 . S
C1418 C1427 1.390 . S
C1419 C1418 1.387 . S
C1419 C1421 1.387 . S
H1420 C1427 0.950 . S
C1421 C1419 1.387 . S
C1421 C1423 1.390 . S
C1421 H1425 0.950 . S
H1422 C1418 0.950 . S
C1423 C1421 1.390 . S
C1423 C1424 1.387 . S
C1423 H1426 0.950 . S
C1424 C1423 1.387 . S
C1424 C1427 1.387 . S
H1425 C1421 0.950 . S
H1426 C1423 0.950 . S
C1427 C1418 1.390 . S
C1427 H1420 0.950 . S
C1427 C1424 1.387 . S
C1428 C1429 1.387 . S
C1428 H1432 0.950 . S
C1428 C1437 1.390 . S
C1429 C1428 1.387 . S
C1429 C1431 1.387 . S
H1430 C1437 0.950 . S
C1431 C1429 1.387 . S
C1431 C1433 1.390 . S
C1431 H1435 0.950 . S
H1432 C1428 0.950 . S
C1433 C1431 1.390 . S
C1433 C1434 1.387 . S
C1433 H1436 0.950 . S
C1434 C1433 1.387 . S
C1434 C1437 1.387 . S
H1435 C1431 0.950 . S
H1436 C1433 0.950 . S
C1437 C1428 1.390 . S
C1437 H1430 0.950 . S
C1437 C1434 1.387 . S
C1438 C1439 1.387 . S
C1438 H1442 0.950 . S
C1438 C1447 1.390 . S
C1439 C1438 1.387 . S
C1439 C1441 1.387 . S
H1440 C1447 0.950 . S
C1441 C1439 1.387 . S
C1441 C1443 1.390 . S
C1441 H1445 0.950 . S
H1442 C1438 0.950 . S
C1443 C1441 1.390 . S
C1443 C1444 1.387 . S
C1443 H1446 0.950 . S
C1444 C1443 1.387 . S
C1444 C1447 1.387 . S
H1445 C1441 0.950 . S
H1446 C1443 0.950 . S
C1447 C1438 1.390 . S
C1447 H1440 0.950 . S
C1447 C1444 1.387 . S
C1448 C1449 1.387 . S
C1448 H1452 0.950 . S
C1448 C1457 1.390 . S
C1449 C1448 1.387 . S
C1449 C1451 1.387 . S
H1450 C1457 0.950 . S
C1451 C1449 1.387 . S
C1451 C1453 1.390 . S
C1451 H1455 0.950 . S
H1452 C1448 0.950 . S
C1453 C1451 1.390 . S
C1453 C1454 1.387 . S
C1453 H1456 0.950 . S
C1454 C1453 1.387 . S
C1454 C1457 1.387 . S
H1455 C1451 0.950 . S
H1456 C1453 0.950 . S
C1457 C1448 1.390 . S
C1457 H1450 0.950 . S
C1457 C1454 1.387 . S
C1458 C1459 1.387 . S
C1458 H1462 0.950 . S
C1458 C1467 1.390 . S
C1459 C1458 1.387 . S
C1459 C1461 1.387 . S
H1460 C1467 0.950 . S
C1461 C1459 1.387 . S
C1461 C1463 1.390 . S
C1461 H1465 0.950 . S
H1462 C1458 0.950 . S
C1463 C1461 1.390 . S
C1463 C1464 1.387 . S
C1463 H1466 0.950 . S
C1464 C1463 1.387 . S
C1464 C1467 1.387 . S
H1465 C1461 0.950 . S
H1466 C1463 0.950 . S
C1467 C1458 1.390 . S
C1467 H1460 0.950 . S
C1467 C1464 1.387 . S
C1468 C1469 1.387 . S
C1468 H1472 0.950 . S
C1468 C1477 1.390 . S
C1469 C1468 1.387 . S
C1469 C1471 1.387 . S
H1470 C1477 0.950 . S
C1471 C1469 1.387 . S
C1471 C1473 1.390 . S
C1471 H1475 0.950 . S
H1472 C1468 0.950 . S
C1473 C1471 1.390 . S
C1473 C1474 1.387 . S
C1473 H1476 0.950 . S
C1474 C1473 1.387 . S
C1474 C1477 1.387 . S
H1475 C1471 0.950 . S
H1476 C1473 0.950 . S
C1477 C1468 1.390 . S
C1477 H1470 0.950 . S
C1477 C1474 1.387 . S
C1478 C1479 1.387 . S
C1478 H1482 0.950 . S
C1478 C1487 1.390 . S
C1479 C1478 1.387 . S
C1479 C1481 1.387 . S
H1480 C1487 0.950 . S
C1481 C1479 1.387 . S
C1481 C1483 1.390 . S
C1481 H1485 0.950 . S
H1482 C1478 0.950 . S
C1483 C1481 1.390 . S
C1483 C1484 1.387 . S
C1483 H1486 0.950 . S
C1484 C1483 1.387 . S
C1484 C1487 1.387 . S
H1485 C1481 0.950 . S
H1486 C1483 0.950 . S
C1487 C1478 1.390 . S
C1487 H1480 0.950 . S
C1487 C1484 1.387 . S
C1488 C1489 1.387 . S
C1488 H1492 0.950 . S
C1488 C1497 1.390 . S
C1489 C1488 1.387 . S
C1489 C1491 1.387 . S
H1490 C1497 0.950 . S
C1491 C1489 1.387 . S
C1491 C1493 1.390 . S
C1491 H1495 0.950 . S
H1492 C1488 0.950 . S
C1493 C1491 1.390 . S
C1493 C1494 1.387 . S
C1493 H1496 0.950 . S
C1494 C1493 1.387 . S
C1494 C1497 1.387 . S
H1495 C1491 0.950 . S
H1496 C1493 0.950 . S
C1497 C1488 1.390 . S
C1497 H1490 0.950 . S
C1497 C1494 1.387 . S
C1498 C1499 1.387 . S
C1498 H1502 0.950 . S
C1498 C1507 1.390 . S
C1499 C1498 1.387 . S
C1499 C1501 1.387 . S
H1500 C1507 0.950 . S
C1501 C1499 1.387 . S
C1501 C1503 1.390 . S
C1501 H1505 0.950 . S
H1502 C1498 0.950 . S
C1503 C1501 1.390 . S
C1503 C1504 1.387 . S
C1503 H1506 0.950 . S
C1504 C1503 1.387 . S
C1504 C1507 1.387 . S
H1505 C1501 0.950 . S
H1506 C1503 0.950 . S
C1507 C1498 1.390 . S
C1507 H1500 0.950 . S
C1507 C1504 1.387 . S
C1508 C1509 1.387 . S
C1508 H1512 0.950 . S
C1508 C1517 1.390 . S
C1509 C1508 1.387 . S
C1509 C1511 1.387 . S
H1510 C1517 0.950 . S
C1511 C1509 1.387 . S
C1511 C1513 1.390 . S
C1511 H1515 0.950 . S
H1512 C1508 0.950 . S
C1513 C1511 1.390 . S
C1513 C1514 1.387 . S
C1513 H1516 0.950 . S
C1514 C1513 1.387 . S
C1514 C1517 1.387 . S
H1515 C1511 0.950 . S
H1516 C1513 0.950 . S
C1517 C1508 1.390 . S
C1517 H1510 0.950 . S
C1517 C1514 1.387 . S
C1518 C1519 1.387 . S
C1518 H1522 0.950 . S
C1518 C1527 1.390 . S
C1519 C1518 1.387 . S
C1519 C1521 1.387 . S
H1520 C1527 0.950 . S
C1521 C1519 1.387 . S
C1521 C1523 1.390 . S
C1521 H1525 0.950 . S
H1522 C1518 0.950 . S
C1523 C1521 1.390 . S
C1523 C1524 1.387 . S
C1523 H1526 0.950 . S
C1524 C1523 1.387 . S
C1524 C1527 1.387 . S
H1525 C1521 0.950 . S
H1526 C1523 0.950 . S
C1527 C1518 1.390 . S
C1527 H1520 0.950 . S
C1527 C1524 1.387 . S
C1528 C1529 1.387 . S
C1528 H1532 0.950 . S
C1528 C1537 1.390 . S
C1529 C1528 1.387 . S
C1529 C1531 1.387 . S
H1530 C1537 0.950 . S
C1531 C1529 1.387 . S
C1531 C1533 1.390 . S
C1531 H1535 0.950 . S
H1532 C1528 0.950 . S
C1533 C1531 1.390 . S
C1533 C1534 1.387 . S
C1533 H1536 0.950 . S
C1534 C1533 1.387 . S
C1534 C1537 1.387 . S
H1535 C1531 0.950 . S
H1536 C1533 0.950 . S
C1537 C1528 1.390 . S
C1537 H1530 0.950 . S
C1537 C1534 1.387 . S
C1538 C1539 1.387 . S
C1538 H1542 0.950 . S
C1538 C1547 1.390 . S
C1539 C1538 1.387 . S
C1539 C1541 1.387 . S
H1540 C1547 0.950 . S
C1541 C1539 1.387 . S
C1541 C1543 1.390 . S
C1541 H1545 0.950 . S
H1542 C1538 0.950 . S
C1543 C1541 1.390 . S
C1543 C1544 1.387 . S
C1543 H1546 0.950 . S
C1544 C1543 1.387 . S
C1544 C1547 1.387 . S
H1545 C1541 0.950 . S
H1546 C1543 0.950 . S
C1547 C1538 1.390 . S
C1547 H1540 0.950 . S
C1547 C1544 1.387 . S
C1548 C1549 1.387 . S
C1548 H1552 0.950 . S
C1548 C1557 1.390 . S
C1549 C1548 1.387 . S
C1549 C1551 1.387 . S
H1550 C1557 0.950 . S
C1551 C1549 1.387 . S
C1551 C1553 1.390 . S
C1551 H1555 0.950 . S
H1552 C1548 0.950 . S
C1553 C1551 1.390 . S
C1553 C1554 1.387 . S
C1553 H1556 0.950 . S
C1554 C1553 1.387 . S
C1554 C1557 1.387 . S
H1555 C1551 0.950 . S
H1556 C1553 0.950 . S
C1557 C1548 1.390 . S
C1557 H1550 0.950 . S
C1557 C1554 1.387 . S
C1558 C1559 1.387 . S
C1558 H1562 0.950 . S
C1558 C1567 1.390 . S
C1559 C1558 1.387 . S
C1559 C1561 1.387 . S
H1560 C1567 0.950 . S
C1561 C1559 1.387 . S
C1561 C1563 1.390 . S
C1561 H1565 0.950 . S
H1562 C1558 0.950 . S
C1563 C1561 1.390 . S
C1563 C1564 1.387 . S
C1563 H1566 0.950 . S
C1564 C1563 1.387 . S
C1564 C1567 1.387 . S
H1565 C1561 0.950 . S
H1566 C1563 0.950 . S
C1567 C1558 1.390 . S
C1567 H1560 0.950 . S
C1567 C1564 1.387 . S
C1568 C1569 1.387 . S
C1568 H1572 0.950 . S
C1568 C1577 1.390 . S
C1569 C1568 1.387 . S
C1569 C1571 1.387 . S
H1570 C1577 0.950 . S
C1571 C1569 1.387 . S
C1571 C1573 1.390 . S
C1571 H1575 0.950 . S
H1572 C1568 0.950 . S
C1573 C1571 1.390 . S
C1573 C1574 1.387 . S
C1573 H1576 0.950 . S
C1574 C1573 1.387 . S
C1574 C1577 1.387 . S
H1575 C1571 0.950 . S
H1576 C1573 0.950 . S
C1577 C1568 1.390 . S
C1577 H1570 0.950 . S
C1577 C1574 1.387 . S
C1578 C1579 1.387 . S
C1578 H1582 0.950 . S
C1578 C1587 1.390 . S
C1579 C1578 1.387 . S
C1579 C1581 1.387 . S
H1580 C1587 0.950 . S
C1581 C1579 1.387 . S
C1581 C1583 1.390 1_455 S
C1581 H1585 0.950 . S
H1582 C1578 0.950 . S
C1583 C1581 1.390 1_655 S
C1583 C1584 1.387 . S
C1583 H1586 0.950 . S
C1584 C1583 1.387 . S
C1584 C1587 1.387 1_655 S
H1585 C1581 0.950 . S
H1586 C1583 0.950 . S
C1587 C1578 1.390 . S
C1587 H1580 0.950 . S
C1587 C1584 1.387 1_455 S
C1588 C1589 1.387 . S
C1588 H1592 0.950 . S
C1588 C1597 1.390 . S
C1589 C1588 1.387 . S
C1589 C1591 1.387 . S
H1590 C1597 0.950 . S
C1591 C1589 1.387 . S
C1591 C1593 1.390 . S
C1591 H1595 0.950 . S
H1592 C1588 0.950 . S
C1593 C1591 1.390 . S
C1593 C1594 1.387 . S
C1593 H1596 0.950 . S
C1594 C1593 1.387 . S
C1594 C1597 1.387 . S
H1595 C1591 0.950 . S
H1596 C1593 0.950 . S
C1597 C1588 1.390 . S
C1597 H1590 0.950 . S
C1597 C1594 1.387 . S
C1598 C1599 1.386 . S
C1598 H1602 0.950 1_455 S
C1598 C1607 1.391 1_455 S
C1599 C1598 1.386 . S
C1599 C1601 1.387 . S
H1600 C1607 0.950 . S
C1601 C1599 1.387 . S
C1601 C1603 1.390 . S
C1601 H1605 0.950 . S
H1602 C1598 0.950 1_655 S
C1603 C1601 1.390 . S
C1603 C1604 1.387 1_455 S
C1603 H1606 0.950 . S
C1604 C1603 1.387 1_655 S
C1604 C1607 1.387 . S
H1605 C1601 0.950 . S
H1606 C1603 0.950 . S
C1607 C1598 1.391 1_655 S
C1607 H1600 0.950 . S
C1607 C1604 1.387 . S
C1608 C1609 1.387 . S
C1608 H1612 0.950 . S
C1608 C1617 1.390 . S
C1609 C1608 1.387 . S
C1609 C1611 1.387 . S
H1610 C1617 0.950 . S
C1611 C1609 1.387 . S
C1611 C1613 1.390 . S
C1611 H1615 0.950 . S
H1612 C1608 0.950 . S
C1613 C1611 1.390 . S
C1613 C1614 1.387 . S
C1613 H1616 0.950 . S
C1614 C1613 1.387 . S
C1614 C1617 1.387 . S
H1615 C1611 0.950 . S
H1616 C1613 0.950 . S
C1617 C1608 1.390 . S
C1617 H1610 0.950 . S
C1617 C1614 1.387 . S
C1618 C1619 1.387 . S
C1618 H1622 0.950 . S
C1618 C1627 1.390 . S
C1619 C1618 1.387 . S
C1619 C1621 1.387 1_455 S
H1620 C1627 0.950 . S
C1621 C1619 1.387 1_655 S
C1621 C1623 1.390 . S
C1621 H1625 0.950 . S
H1622 C1618 0.950 . S
C1623 C1621 1.390 . S
C1623 C1624 1.387 . S
C1623 H1626 0.950 . S
C1624 C1623 1.387 . S
C1624 C1627 1.387 1_655 S
H1625 C1621 0.950 . S
H1626 C1623 0.950 . S
C1627 C1618 1.390 . S
C1627 H1620 0.950 . S
C1627 C1624 1.387 1_455 S
C1628 C1629 1.387 . S
C1628 H1632 0.950 . S
C1628 C1637 1.390 . S
C1629 C1628 1.387 . S
C1629 C1631 1.387 . S
H1630 C1637 0.950 . S
C1631 C1629 1.387 . S
C1631 C1633 1.390 . S
C1631 H1635 0.950 . S
H1632 C1628 0.950 . S
C1633 C1631 1.390 . S
C1633 C1634 1.387 . S
C1633 H1636 0.950 . S
C1634 C1633 1.387 . S
C1634 C1637 1.387 . S
H1635 C1631 0.950 . S
H1636 C1633 0.950 . S
C1637 C1628 1.390 . S
C1637 H1630 0.950 . S
C1637 C1634 1.387 . S
C1638 C1639 1.387 1_655 S
C1638 H1642 0.950 . S
C1638 C1647 1.390 . S
C1639 C1638 1.387 1_455 S
C1639 C1641 1.387 . S
H1640 C1647 0.950 . S
C1641 C1639 1.387 . S
C1641 C1643 1.390 . S
C1641 H1645 0.950 . S
H1642 C1638 0.950 . S
C1643 C1641 1.390 . S
C1643 C1644 1.387 1_455 S
C1643 H1646 0.950 . S
C1644 C1643 1.387 1_655 S
C1644 C1647 1.387 . S
H1645 C1641 0.950 . S
H1646 C1643 0.950 . S
C1647 C1638 1.390 . S
C1647 H1640 0.950 . S
C1647 C1644 1.387 . S
C1648 C1649 1.387 . S
C1648 H1652 0.950 . S
C1648 C1657 1.390 . S
C1649 C1648 1.387 . S
C1649 C1651 1.387 . S
H1650 C1657 0.950 . S
C1651 C1649 1.387 . S
C1651 C1653 1.390 . S
C1651 H1655 0.950 . S
H1652 C1648 0.950 . S
C1653 C1651 1.390 . S
C1653 C1654 1.387 . S
C1653 H1656 0.950 . S
C1654 C1653 1.387 . S
C1654 C1657 1.387 . S
H1655 C1651 0.950 . S
H1656 C1653 0.950 . S
C1657 C1648 1.390 . S
C1657 H1650 0.950 . S
C1657 C1654 1.387 . S
C1658 C1659 1.387 . S
C1658 H1662 0.950 . S
C1658 C1667 1.390 . S
C1659 C1658 1.387 . S
C1659 C1661 1.387 1_455 S
H1660 C1667 0.950 . S
C1661 C1659 1.387 1_655 S
C1661 C1663 1.390 . S
C1661 H1665 0.950 . S
H1662 C1658 0.950 . S
C1663 C1661 1.390 . S
C1663 C1664 1.387 . S
C1663 H1666 0.950 . S
C1664 C1663 1.387 . S
C1664 C1667 1.387 1_655 S
H1665 C1661 0.950 . S
H1666 C1663 0.950 . S
C1667 C1658 1.390 . S
C1667 H1660 0.950 . S
C1667 C1664 1.387 1_455 S
C1668 C1669 1.387 . S
C1668 H1672 0.950 . S
C1668 C1677 1.390 . S
C1669 C1668 1.387 . S
C1669 C1671 1.387 . S
H1670 C1677 0.950 . S
C1671 C1669 1.387 . S
C1671 C1673 1.390 . S
C1671 H1675 0.950 . S
H1672 C1668 0.950 . S
C1673 C1671 1.390 . S
C1673 C1674 1.387 . S
C1673 H1676 0.950 . S
C1674 C1673 1.387 . S
C1674 C1677 1.387 . S
H1675 C1671 0.950 . S
H1676 C1673 0.950 . S
C1677 C1668 1.390 . S
C1677 H1670 0.950 . S
C1677 C1674 1.387 . S
C1678 C1679 1.387 1_455 S
C1678 H1682 0.950 . S
C1678 C1687 1.390 . S
C1679 C1678 1.387 1_655 S
C1679 C1681 1.387 . S
H1680 C1687 0.950 . S
C1681 C1679 1.387 . S
C1681 C1683 1.390 . S
C1681 H1685 0.950 . S
H1682 C1678 0.950 . S
C1683 C1681 1.390 . S
C1683 C1684 1.387 1_655 S
C1683 H1686 0.950 . S
C1684 C1683 1.387 1_455 S
C1684 C1687 1.387 . S
H1685 C1681 0.950 . S
H1686 C1683 0.950 . S
C1687 C1678 1.390 . S
C1687 H1680 0.950 . S
C1687 C1684 1.387 . S
C1688 C1689 1.387 . S
C1688 H1692 0.950 . S
C1688 C1697 1.390 . S
C1689 C1688 1.387 . S
C1689 C1691 1.387 . S
H1690 C1697 0.950 . S
C1691 C1689 1.387 . S
C1691 C1693 1.390 . S
C1691 H1695 0.950 . S
H1692 C1688 0.950 . S
C1693 C1691 1.390 . S
C1693 C1694 1.387 . S
C1693 H1696 0.950 . S
C1694 C1693 1.387 . S
C1694 C1697 1.387 . S
H1695 C1691 0.950 . S
H1696 C1693 0.950 . S
C1697 C1688 1.390 . S
C1697 H1690 0.950 . S
C1697 C1694 1.387 . S
C1698 C1699 1.387 1_655 S
C1698 H1702 0.950 . S
C1698 C1707 1.390 . S
C1699 C1698 1.387 1_455 S
C1699 C1701 1.387 . S
H1700 C1707 0.950 . S
C1701 C1699 1.387 . S
C1701 C1703 1.390 . S
C1701 H1705 0.950 . S
H1702 C1698 0.950 . S
C1703 C1701 1.390 . S
C1703 C1704 1.387 1_455 S
C1703 H1706 0.950 . S
C1704 C1703 1.387 1_655 S
C1704 C1707 1.387 . S
H1705 C1701 0.950 . S
H1706 C1703 0.950 . S
C1707 C1698 1.390 . S
C1707 H1700 0.950 . S
C1707 C1704 1.387 . S
C1708 C1709 1.387 . S
C1708 H1712 0.950 . S
C1708 C1717 1.390 . S
C1709 C1708 1.387 . S
C1709 C1711 1.387 . S
H1710 C1717 0.950 . S
C1711 C1709 1.387 . S
C1711 C1713 1.390 . S
C1711 H1715 0.950 . S
H1712 C1708 0.950 . S
C1713 C1711 1.390 . S
C1713 C1714 1.387 . S
C1713 H1716 0.950 . S
C1714 C1713 1.387 . S
C1714 C1717 1.387 . S
H1715 C1711 0.950 . S
H1716 C1713 0.950 . S
C1717 C1708 1.390 . S
C1717 H1710 0.950 . S
C1717 C1714 1.387 . S
C1718 C1719 1.387 . S
C1718 H1722 0.950 . S
C1718 C1727 1.390 1_655 S
C1719 C1718 1.387 . S
C1719 C1721 1.387 . S
H1720 C1727 0.950 . S
C1721 C1719 1.387 . S
C1721 C1723 1.390 . S
C1721 H1725 0.950 . S
H1722 C1718 0.950 . S
C1723 C1721 1.390 . S
C1723 C1724 1.387 1_655 S
C1723 H1726 0.950 . S
C1724 C1723 1.387 1_455 S
C1724 C1727 1.388 . S
H1725 C1721 0.950 . S
H1726 C1723 0.950 . S
C1727 C1718 1.390 1_455 S
C1727 H1720 0.950 . S
C1727 C1724 1.388 . S
C1728 C1729 1.387 . S
C1728 H1732 0.950 . S
C1728 C1737 1.390 . S
C1729 C1728 1.387 . S
C1729 C1731 1.387 . S
H1730 C1737 0.950 . S
C1731 C1729 1.387 . S
C1731 C1733 1.390 . S
C1731 H1735 0.950 . S
H1732 C1728 0.950 . S
C1733 C1731 1.390 . S
C1733 C1734 1.387 . S
C1733 H1736 0.950 . S
C1734 C1733 1.387 . S
C1734 C1737 1.387 . S
H1735 C1731 0.950 . S
H1736 C1733 0.950 . S
C1737 C1728 1.390 . S
C1737 H1730 0.950 . S
C1737 C1734 1.387 . S
C1738 C1739 1.387 . S
C1738 H1742 0.950 . S
C1738 C1747 1.390 . S
C1739 C1738 1.387 . S
C1739 C1741 1.387 . S
H1740 C1747 0.950 . S
C1741 C1739 1.387 . S
C1741 C1743 1.390 . S
C1741 H1745 0.950 . S
H1742 C1738 0.950 . S
C1743 C1741 1.390 . S
C1743 C1744 1.387 . S
C1743 H1746 0.950 . S
C1744 C1743 1.387 . S
C1744 C1747 1.387 . S
H1745 C1741 0.950 . S
H1746 C1743 0.950 . S
C1747 C1738 1.390 . S
C1747 H1740 0.950 . S
C1747 C1744 1.387 . S
C1748 C1749 1.387 . S
C1748 H1752 0.950 . S
C1748 C1757 1.390 . S
C1749 C1748 1.387 . S
C1749 C1751 1.387 . S
H1750 C1757 0.950 . S
C1751 C1749 1.387 . S
C1751 C1753 1.390 . S
C1751 H1755 0.950 . S
H1752 C1748 0.950 . S
C1753 C1751 1.390 . S
C1753 C1754 1.387 . S
C1753 H1756 0.950 . S
C1754 C1753 1.387 . S
C1754 C1757 1.387 . S
H1755 C1751 0.950 . S
H1756 C1753 0.950 . S
C1757 C1748 1.390 . S
C1757 H1750 0.950 . S
C1757 C1754 1.387 . S
C1758 C1759 1.387 . S
C1758 H1762 0.950 . S
C1758 C1767 1.390 . S
C1759 C1758 1.387 . S
C1759 C1761 1.387 . S
H1760 C1767 0.950 . S
C1761 C1759 1.387 . S
C1761 C1763 1.390 . S
C1761 H1765 0.950 . S
H1762 C1758 0.950 . S
C1763 C1761 1.390 . S
C1763 C1764 1.387 . S
C1763 H1766 0.950 . S
C1764 C1763 1.387 . S
C1764 C1767 1.387 . S
H1765 C1761 0.950 . S
H1766 C1763 0.950 . S
C1767 C1758 1.390 . S
C1767 H1760 0.950 . S
C1767 C1764 1.387 . S
C1768 C1769 1.387 . S
C1768 H1772 0.950 . S
C1768 C1777 1.390 . S
C1769 C1768 1.387 . S
C1769 C1771 1.387 . S
H1770 C1777 0.950 . S
C1771 C1769 1.387 . S
C1771 C1773 1.390 . S
C1771 H1775 0.950 . S
H1772 C1768 0.950 . S
C1773 C1771 1.390 . S
C1773 C1774 1.387 . S
C1773 H1776 0.950 . S
C1774 C1773 1.387 . S
C1774 C1777 1.387 . S
H1775 C1771 0.950 . S
H1776 C1773 0.950 . S
C1777 C1768 1.390 . S
C1777 H1770 0.950 . S
C1777 C1774 1.387 . S
C1778 C1779 1.387 . S
C1778 H1782 0.950 . S
C1778 C1787 1.390 . S
C1779 C1778 1.387 . S
C1779 C1781 1.387 . S
H1780 C1787 0.950 . S
C1781 C1779 1.387 . S
C1781 C1783 1.390 . S
C1781 H1785 0.950 . S
H1782 C1778 0.950 . S
C1783 C1781 1.390 . S
C1783 C1784 1.387 . S
C1783 H1786 0.950 . S
C1784 C1783 1.387 . S
C1784 C1787 1.387 . S
H1785 C1781 0.950 . S
H1786 C1783 0.950 . S
C1787 C1778 1.390 . S
C1787 H1780 0.950 . S
C1787 C1784 1.387 . S
C1788 C1789 1.387 . S
C1788 H1792 0.950 . S
C1788 C1797 1.390 . S
C1789 C1788 1.387 . S
C1789 C1791 1.387 . S
H1790 C1797 0.950 . S
C1791 C1789 1.387 . S
C1791 C1793 1.390 . S
C1791 H1795 0.950 . S
H1792 C1788 0.950 . S
C1793 C1791 1.390 . S
C1793 C1794 1.387 . S
C1793 H1796 0.950 . S
C1794 C1793 1.387 . S
C1794 C1797 1.387 . S
H1795 C1791 0.950 . S
H1796 C1793 0.950 . S
C1797 C1788 1.390 . S
C1797 H1790 0.950 . S
C1797 C1794 1.387 . S
C1798 C1799 1.387 . S
C1798 H1802 0.950 . S
C1798 C1807 1.390 . S
C1799 C1798 1.387 . S
C1799 C1801 1.387 . S
H1800 C1807 0.950 . S
C1801 C1799 1.387 . S
C1801 C1803 1.390 . S
C1801 H1805 0.950 . S
H1802 C1798 0.950 . S
C1803 C1801 1.390 . S
C1803 C1804 1.387 . S
C1803 H1806 0.950 . S
C1804 C1803 1.387 . S
C1804 C1807 1.387 . S
H1805 C1801 0.950 . S
H1806 C1803 0.950 . S
C1807 C1798 1.390 . S
C1807 H1800 0.950 . S
C1807 C1804 1.387 . S
C1808 C1809 1.387 . S
C1808 H1812 0.950 . S
C1808 C1817 1.390 . S
C1809 C1808 1.387 . S
C1809 C1811 1.387 . S
H1810 C1817 0.950 . S
C1811 C1809 1.387 . S
C1811 C1813 1.390 . S
C1811 H1815 0.950 . S
H1812 C1808 0.950 . S
C1813 C1811 1.390 . S
C1813 C1814 1.387 . S
C1813 H1816 0.950 . S
C1814 C1813 1.387 . S
C1814 C1817 1.387 . S
H1815 C1811 0.950 . S
H1816 C1813 0.950 . S
C1817 C1808 1.390 . S
C1817 H1810 0.950 . S
C1817 C1814 1.387 . S
C1818 C1819 1.387 . S
C1818 H1822 0.950 . S
C1818 C1827 1.390 . S
C1819 C1818 1.387 . S
C1819 C1821 1.387 . S
H1820 C1827 0.950 . S
C1821 C1819 1.387 . S
C1821 C1823 1.390 . S
C1821 H1825 0.950 . S
H1822 C1818 0.950 . S
C1823 C1821 1.390 . S
C1823 C1824 1.387 . S
C1823 H1826 0.950 . S
C1824 C1823 1.387 . S
C1824 C1827 1.387 . S
H1825 C1821 0.950 . S
H1826 C1823 0.950 . S
C1827 C1818 1.390 . S
C1827 H1820 0.950 . S
C1827 C1824 1.387 . S
C1828 C1829 1.387 . S
C1828 H1832 0.950 . S
C1828 C1837 1.390 . S
C1829 C1828 1.387 . S
C1829 C1831 1.387 . S
H1830 C1837 0.950 . S
C1831 C1829 1.387 . S
C1831 C1833 1.390 . S
C1831 H1835 0.950 . S
H1832 C1828 0.950 . S
C1833 C1831 1.390 . S
C1833 C1834 1.387 . S
C1833 H1836 0.950 . S
C1834 C1833 1.387 . S
C1834 C1837 1.387 . S
H1835 C1831 0.950 . S
H1836 C1833 0.950 . S
C1837 C1828 1.390 . S
C1837 H1830 0.950 . S
C1837 C1834 1.387 . S
C1838 C1839 1.387 . S
C1838 H1842 0.950 . S
C1838 C1847 1.390 . S
C1839 C1838 1.387 . S
C1839 C1841 1.387 . S
H1840 C1847 0.950 . S
C1841 C1839 1.387 . S
C1841 C1843 1.390 . S
C1841 H1845 0.950 . S
H1842 C1838 0.950 . S
C1843 C1841 1.390 . S
C1843 C1844 1.387 . S
C1843 H1846 0.950 . S
C1844 C1843 1.387 . S
C1844 C1847 1.387 . S
H1845 C1841 0.950 . S
H1846 C1843 0.950 . S
C1847 C1838 1.390 . S
C1847 H1840 0.950 . S
C1847 C1844 1.387 . S
C1848 C1849 1.387 . S
C1848 H1852 0.950 . S
C1848 C1857 1.390 . S
C1849 C1848 1.387 . S
C1849 C1851 1.387 . S
H1850 C1857 0.950 . S
C1851 C1849 1.387 . S
C1851 C1853 1.390 . S
C1851 H1855 0.950 . S
H1852 C1848 0.950 . S
C1853 C1851 1.390 . S
C1853 C1854 1.387 . S
C1853 H1856 0.950 . S
C1854 C1853 1.387 . S
C1854 C1857 1.387 . S
H1855 C1851 0.950 . S
H1856 C1853 0.950 . S
C1857 C1848 1.390 . S
C1857 H1850 0.950 . S
C1857 C1854 1.387 . S
C1858 C1859 1.387 . S
C1858 H1862 0.950 . S
C1858 C1867 1.390 . S
C1859 C1858 1.387 . S
C1859 C1861 1.387 . S
H1860 C1867 0.950 . S
C1861 C1859 1.387 . S
C1861 C1863 1.390 . S
C1861 H1865 0.950 . S
H1862 C1858 0.950 . S
C1863 C1861 1.390 . S
C1863 C1864 1.387 . S
C1863 H1866 0.950 . S
C1864 C1863 1.387 . S
C1864 C1867 1.387 . S
H1865 C1861 0.950 . S
H1866 C1863 0.950 . S
C1867 C1858 1.390 . S
C1867 H1860 0.950 . S
C1867 C1864 1.387 . S
C1868 C1869 1.387 . S
C1868 H1872 0.950 . S
C1868 C1877 1.390 . S
C1869 C1868 1.387 . S
C1869 C1871 1.387 . S
H1870 C1877 0.950 . S
C1871 C1869 1.387 . S
C1871 C1873 1.390 . S
C1871 H1875 0.950 . S
H1872 C1868 0.950 . S
C1873 C1871 1.390 . S
C1873 C1874 1.387 . S
C1873 H1876 0.950 . S
C1874 C1873 1.387 . S
C1874 C1877 1.387 . S
H1875 C1871 0.950 . S
H1876 C1873 0.950 . S
C1877 C1868 1.390 . S
C1877 H1870 0.950 . S
C1877 C1874 1.387 . S
C1878 C1879 1.387 . S
C1878 H1882 0.950 . S
C1878 C1887 1.390 . S
C1879 C1878 1.387 . S
C1879 C1881 1.387 . S
H1880 C1887 0.950 . S
C1881 C1879 1.387 . S
C1881 C1883 1.390 . S
C1881 H1885 0.950 . S
H1882 C1878 0.950 . S
C1883 C1881 1.390 . S
C1883 C1884 1.387 . S
C1883 H1886 0.950 . S
C1884 C1883 1.387 . S
C1884 C1887 1.387 . S
H1885 C1881 0.950 . S
H1886 C1883 0.950 . S
C1887 C1878 1.390 . S
C1887 H1880 0.950 . S
C1887 C1884 1.387 . S
C1089 C9 0.558 . S
C1094 C349 0.558 . S
C1099 C383 0.558 . S
C1104 C43 0.558 . S
C1109 C281 0.558 . S
C1114 C77 0.558 . S
C1119 C111 0.558 . S
C1124 C315 0.558 . S
C1129 C145 0.558 . S
C1134 C485 0.558 . S
C1139 C179 0.566 . S
C1144 C519 0.566 . S
C1149 C417 0.566 . S
C1154 C213 0.566 . S
C1159 C451 0.558 . S
C1164 C247 0.558 . S
C1169 C893 0.558 . S
C1174 C553 0.558 . S
C1179 C927 0.558 . S
C1184 C587 0.558 . S
C1189 C621 0.558 . S
C1194 C825 0.558 . S
C1199 C859 0.566 . S
C1204 C655 0.566 . S
C1209 C689 0.566 . S
C1214 C1029 0.566 . S
C1219 C1063 0.558 . S
C1224 C723 0.558 . S
C1229 C757 0.558 . S
C1234 C961 0.558 . S
C1239 C791 0.558 . S
C1244 C995 0.558 . S
C1249 C2 1.872 . S
C1254 C852 1.872 . S
C1259 C36 1.874 . S
C1264 C818 1.874 . S
C1269 C70 1.874 . S
C1274 C920 1.874 . S
C1279 C104 1.874 . S
C1284 C886 1.874 . S
C1289 C138 1.872 . S
C1294 C988 1.872 . S
C1299 C172 1.872 . S
C1304 C954 1.872 . S
C1309 C1056 1.874 . S
C1314 C206 1.874 . S
C1319 C240 1.874 . S
C1324 C1022 1.874 . S
C1329 C580 1.872 . S
C1334 C274 1.872 . S
C1339 C308 1.872 . S
C1344 C546 1.872 . S
C1349 C342 1.874 . S
C1354 C648 1.874 . S
C1359 C614 1.874 . S
C1364 C376 1.874 . S
C1369 C716 1.872 . S
C1374 C410 1.872 . S
C1379 C682 1.874 . S
C1384 C444 1.874 . S
C1389 C478 1.874 . S
C1394 C784 1.874 . S
C1399 C750 1.874 . S
C1404 C512 1.874 . S
C1409 C73 0.749 . S
C1414 C5 0.749 . S
C1419 C39 0.749 . S
C1424 C107 0.749 . S
C1429 C209 0.749 . S
C1434 C141 0.749 . S
C1439 C175 0.757 . S
C1444 C243 0.757 . S
C1449 C277 0.757 . S
C1454 C345 0.757 . S
C1459 C311 0.757 . S
C1464 C379 0.757 . S
C1469 C481 0.757 . S
C1474 C413 0.757 . S
C1479 C515 0.749 . S
C1484 C447 0.749 . S
C1489 C617 0.749 . S
C1494 C549 0.749 . S
C1499 C583 0.749 . S
C1504 C651 0.749 . S
C1509 C685 0.757 . S
C1514 C753 0.757 . S
C1519 C719 0.749 . S
C1524 C787 0.749 . S
C1529 C889 0.749 . S
C1534 C821 0.749 . S
C1539 C855 0.749 . S
C1544 C923 0.749 . S
C1549 C957 0.749 . S
C1554 C1025 0.749 . S
C1559 C1059 0.749 . S
C1564 C991 0.749 . S
C1569 C781 2.439 . S
C1574 C20 2.417 . S
C1579 C543 2.438 . S
C1584 C54 2.415 . S
C1589 C88 2.417 . S
C1594 C985 2.439 . S
C1599 C203 2.439 . S
C1604 C122 2.417 . S
C1609 C156 2.417 . S
C1614 C645 2.439 . S
C1619 C190 2.415 . S
C1624 C407 2.439 . S
C1629 C849 2.439 . S
C1634 C224 2.417 . S
C1639 C258 2.415 . S
C1644 C67 2.438 . S
C1649 C292 2.415 . S
C1654 C1053 2.439 . S
C1659 C271 2.439 . S
C1664 C326 2.415 . S
C1669 C360 2.416 . S
C1674 C713 2.439 . S
C1679 C394 2.415 . S
C1684 C475 2.438 . S
C1689 C917 2.439 . S
C1694 C428 2.415 . S
C1699 C462 2.417 . S
C1704 C135 2.439 . S
C1709 C577 2.439 . S
C1714 C496 2.415 . S
C1719 C339 2.439 . S
C1724 C530 2.417 . S
C1729 C237 2.439 . S
C1734 C564 2.417 . S
C1739 C598 2.415 . S
C1744 C1087 2.439 . S
C1749 C632 2.417 . S
C1754 C441 2.439 . S
C1759 C666 2.417 . S
C1764 C747 2.439 . S
C1769 C700 2.416 . S
C1774 C101 2.439 . S
C1779 C734 2.417 . S
C1784 C951 2.439 . S
C1789 C305 2.439 . S
C1794 C768 2.416 . S
C1799 C611 2.438 . S
C1804 C802 2.415 . S
C1809 C509 2.439 . S
C1814 C836 2.417 . S
C1819 C870 2.416 . S
C1824 C815 2.438 . S
C1829 C169 2.439 . S
C1834 C904 2.417 . S
C1839 C1019 2.438 . S
C1844 C938 2.415 . S
C1849 C972 2.415 . S
C1854 C373 2.438 . S
C1859 C1006 2.417 . S
C1864 C679 2.439 . S
C1869 C33 2.439 . S
C1874 C1040 2.417 . S
C1879 C1074 2.417 . S
C1884 C883 2.439 . S
