# Generated by pormake.
# Topology msp, (4)-cn, num edge types: 1
# Building blocks:
#     Node 0, Type 0, BuildingBlock: NAWXER_clean_sbu_0, # of connection points: 4
#     Node 1, Type 0, BuildingBlock: NAWXER_clean_sbu_0, # of connection points: 4
#     Node 2, Type 0, BuildingBlock: NAWXER_clean_sbu_0, # of connection points: 4
#     Node 3, Type 0, BuildingBlock: NAWXER_clean_sbu_0, # of connection points: 4
#     Node 4, Type 0, BuildingBlock: NAWXER_clean_sbu_0, # of connection points: 4
#     Node 5, Type 0, BuildingBlock: NAWXER_clean_sbu_0, # of connection points: 4
#     Node 6, Type 0, BuildingBlock: NAWXER_clean_sbu_0, # of connection points: 4
#     Node 7, Type 0, BuildingBlock: NAWXER_clean_sbu_0, # of connection points: 4
#     Edge 8, Type (0, 0), BuildingBlock: MIFKUJ_clean_linker_0, # of connection points: 2
#     Edge 9, Type (0, 0), BuildingBlock: MIFKUJ_clean_linker_0, # of connection points: 2
#     Edge 10, Type (0, 0), BuildingBlock: MIFKUJ_clean_linker_0, # of connection points: 2
#     Edge 11, Type (0, 0), BuildingBlock: MIFKUJ_clean_linker_0, # of connection points: 2
#     Edge 12, Type (0, 0), BuildingBlock: MIFKUJ_clean_linker_0, # of connection points: 2
#     Edge 13, Type (0, 0), BuildingBlock: MIFKUJ_clean_linker_0, # of connection points: 2
#     Edge 14, Type (0, 0), BuildingBlock: MIFKUJ_clean_linker_0, # of connection points: 2
#     Edge 15, Type (0, 0), BuildingBlock: MIFKUJ_clean_linker_0, # of connection points: 2
#     Edge 16, Type (0, 0), BuildingBlock: MIFKUJ_clean_linker_0, # of connection points: 2
#     Edge 17, Type (0, 0), BuildingBlock: MIFKUJ_clean_linker_0, # of connection points: 2
#     Edge 18, Type (0, 0), BuildingBlock: MIFKUJ_clean_linker_0, # of connection points: 2
#     Edge 19, Type (0, 0), BuildingBlock: MIFKUJ_clean_linker_0, # of connection points: 2
#     Edge 20, Type (0, 0), BuildingBlock: MIFKUJ_clean_linker_0, # of connection points: 2
#     Edge 21, Type (0, 0), BuildingBlock: MIFKUJ_clean_linker_0, # of connection points: 2
#     Edge 22, Type (0, 0), BuildingBlock: MIFKUJ_clean_linker_0, # of connection points: 2
#     Edge 23, Type (0, 0), BuildingBlock: MIFKUJ_clean_linker_0, # of connection points: 2
# Relax obj value: 0.113
# Max RMSD: 0.238
# Mean RMSD: 0.238
data_MOF--net-msp--node1-NAWXER_clean_sbu_0--edge1-MIFKUJ_clean_linker_0
_symmetry_space_group_name_H-M    P1
_symmetry_Int_Tables_number       1
_symmetry_cell_setting            triclinic
loop_
_symmetry_equiv_pos_as_xyz
'x, y, z'
_cell_length_a     29.670615
_cell_length_b     25.30666
_cell_length_c     57.824286
_cell_angle_alpha  89.997964
_cell_angle_beta   100.71157
_cell_angle_gamma 89.990777
loop_
_atom_site_label
_atom_site_type_symbol
_atom_site_fract_x
_atom_site_fract_y
_atom_site_fract_z
_atom_type_partial_charge
C0 C 0.11038 0.2507 0.391 0.0
C1 C 0.96832 0.26879 0.33475 0.0
O2 O 0.10619 0.29724 0.38196 0.0
Zn3 Zn 0.0563 0.33907 0.35585 0.0
O4 O 0.07981 0.21608 0.38416 0.0
Zn5 Zn 0.04062 0.26113 0.36287 0.0
O6 O 0.08109 0.27065 0.33554 0.0
O7 O 0.09167 0.35627 0.33221 0.0
O8 O 0.9841 0.23018 0.34769 0.0
O9 O 0.99151 0.31186 0.33593 0.0
O10 O 0.04061 0.39683 0.3745 0.0
O11 O 0.02252 0.31922 0.38741 0.0
C12 C 0.09848 0.3094 0.32585 0.0
C13 C 0.02538 0.36964 0.38983 0.0
C14 C 0.40486 0.31676 0.67964 0.0
C15 C 0.46876 0.3823 0.61341 0.0
O16 O 0.42364 0.27941 0.66975 0.0
Zn17 Zn 0.46262 0.27314 0.64161 0.0
O18 O 0.40878 0.36409 0.67302 0.0
Zn19 Zn 0.44338 0.34956 0.64873 0.0
O20 O 0.39438 0.3038 0.62363 0.0
O21 O 0.42527 0.2249 0.62132 0.0
O22 O 0.45416 0.40836 0.62928 0.0
O23 O 0.47461 0.3322 0.61598 0.0
O24 O 0.52131 0.24652 0.65582 0.0
O25 O 0.51046 0.32717 0.66782 0.0
C26 C 0.39244 0.25701 0.61483 0.0
C27 C 0.53577 0.28581 0.6686 0.0
C28 C 0.92494 0.67894 0.67411 0.0
C29 C 1.00089 0.60949 0.61278 0.0
O30 O 0.93133 0.63125 0.66873 0.0
Zn31 Zn 0.96845 0.64493 0.64549 0.0
O32 O 0.94374 0.71609 0.66409 0.0
Zn33 Zn 0.98629 0.72107 0.63734 0.0
O34 O 0.94984 0.76564 0.61503 0.0
O35 O 0.92015 0.68648 0.61826 0.0
O36 O 0.0045 0.66 0.61428 0.0
O37 O 0.98409 0.58456 0.62824 0.0
O38 O 0.03303 0.67216 0.66598 0.0
O39 O 0.04256 0.75175 0.65237 0.0
C40 C 0.91801 0.73235 0.60854 0.0
C41 C 0.057 0.71453 0.6664 0.0
C42 C 0.45333 0.73124 0.33906 0.0
C43 C 0.59246 0.7507 0.39687 0.0
O44 O 0.46796 0.76968 0.35236 0.0
Zn45 Zn 0.52408 0.73928 0.36795 0.0
O46 O 0.47728 0.68872 0.34016 0.0
Zn47 Zn 0.542 0.66228 0.36065 0.0
O48 O 0.52595 0.60309 0.37858 0.0
O49 O 0.50443 0.67953 0.39112 0.0
O50 O 0.59019 0.70465 0.38735 0.0
O51 O 0.56068 0.78403 0.39031 0.0
O52 O 0.56637 0.73252 0.34117 0.0
O53 O 0.57889 0.64744 0.33734 0.0
C54 C 0.5079 0.62912 0.39329 0.0
C55 C 0.58505 0.69483 0.33143 0.0
C56 C 0.60423 0.80708 0.82463 0.0
C57 C 0.54437 0.87464 0.89177 0.0
O58 O 0.5834 0.77064 0.83402 0.0
Zn59 Zn 0.54388 0.76646 0.8622 0.0
O60 O 0.60293 0.85427 0.8319 0.0
Zn61 Zn 0.56805 0.84096 0.85606 0.0
O62 O 0.61448 0.78934 0.88004 0.0
O63 O 0.57702 0.71419 0.88168 0.0
O64 O 0.5611 0.89982 0.87637 0.0
O65 O 0.53551 0.82522 0.88858 0.0
O66 O 0.48386 0.74512 0.84802 0.0
O67 O 0.49963 0.82472 0.83654 0.0
C68 C 0.61265 0.74215 0.88809 0.0
C69 C 0.4718 0.78557 0.83558 0.0
C70 C 0.90041 0.81589 0.17659 0.0
C71 C 0.9758 0.88607 0.11509 0.0
O72 O 0.92103 0.77916 0.16728 0.0
Zn73 Zn 0.96468 0.77512 0.14105 0.0
O74 O 0.90474 0.86344 0.17041 0.0
Zn75 Zn 0.94304 0.85074 0.14761 0.0
O76 O 0.89801 0.80557 0.12039 0.0
O77 O 0.93154 0.72801 0.11869 0.0
O78 O 0.95636 0.91095 0.12959 0.0
O79 O 0.98197 0.83601 0.1176 0.0
O80 O 0.02174 0.74827 0.15701 0.0
O81 O 0.00895 0.82885 0.16854 0.0
C82 C 0.89875 0.75943 0.11116 0.0
C83 C 0.0347 0.7877 0.17 0.0
C84 C 0.481 0.13123 0.10656 0.0
C85 C 0.41815 0.19764 0.17283 0.0
O86 O 0.46414 0.10584 0.12185 0.0
Zn87 Zn 0.45614 0.16448 0.14199 0.0
O88 O 0.48948 0.18073 0.10978 0.0
Zn89 Zn 0.4798 0.23941 0.13601 0.0
O90 O 0.53938 0.26137 0.15111 0.0
O91 O 0.52374 0.18137 0.1621 0.0
O92 O 0.43887 0.23454 0.16366 0.0
O93 O 0.4205 0.15049 0.16568 0.0
O94 O 0.40979 0.21556 0.11781 0.0
O95 O 0.44654 0.29118 0.11602 0.0
C96 C 0.55124 0.2209 0.1636 0.0
C97 C 0.41122 0.26266 0.10962 0.0
C98 C 0.95323 0.22146 0.83812 0.0
C99 C 0.09198 0.24091 0.8964 0.0
O100 O 0.96724 0.25933 0.85189 0.0
Zn101 Zn 0.02355 0.22923 0.86747 0.0
O102 O 0.97756 0.17926 0.839 0.0
Zn103 Zn 0.04243 0.1531 0.85955 0.0
O104 O 0.0274 0.09283 0.87707 0.0
O105 O 0.00486 0.16811 0.89024 0.0
O106 O 0.09041 0.19533 0.88649 0.0
O107 O 0.05955 0.27365 0.89023 0.0
O108 O 0.06627 0.22453 0.8408 0.0
O109 O 0.07961 0.13983 0.8363 0.0
C110 C 0.00923 0.11772 0.89205 0.0
C111 C 0.08542 0.1876 0.83083 0.0
H112 H 0.99515 0.32289 0.42693 0.0
H113 H 0.99073 0.36241 0.46502 0.0
H114 H 0.03343 0.5124 0.4411 0.0
H115 H 0.03776 0.47341 0.40291 0.0
H116 H 0.08309 0.48779 0.48322 0.0
H117 H 0.92228 0.49044 0.44898 0.0
H118 H 0.8486 0.45212 0.4294 0.0
H119 H 0.85161 0.34424 0.48699 0.0
H120 H 0.92564 0.3815 0.50678 0.0
H121 H 0.03273 0.6517 0.57526 0.0
H122 H 0.03866 0.60814 0.53826 0.0
H123 H 0.99655 0.46074 0.56508 0.0
H124 H 0.99003 0.50416 0.6021 0.0
H125 H 0.94786 0.48067 0.52227 0.0
H126 H 0.10696 0.47905 0.55713 0.0
H127 H 0.18097 0.5162 0.57689 0.0
H128 H 0.18184 0.62068 0.51847 0.0
H129 H 0.1075 0.58464 0.49848 0.0
C130 C 0.00286 0.36451 0.42959 0.0
C131 C 0.01672 0.39495 0.41178 0.0
C132 C 1.00044 0.38702 0.45144 0.0
C133 C 0.01191 0.44033 0.456 0.0
C134 C 0.02462 0.47112 0.43806 0.0
C135 C 0.02677 0.44879 0.41615 0.0
C136 C 0.01258 0.46345 0.47975 0.0
C137 C 0.05328 0.48694 0.49161 0.0
C138 C 0.97426 0.46077 0.49109 0.0
C139 C 0.9297 0.43844 0.47925 0.0
C140 C 0.9074 0.45828 0.45739 0.0
C141 C 0.86554 0.4368 0.44627 0.0
C142 C 0.84549 0.39568 0.45692 0.0
C143 C 0.86721 0.37605 0.47875 0.0
C144 C 0.90908 0.39737 0.48994 0.0
C145 C 0.02547 0.60981 0.57349 0.0
C146 C 0.01088 0.5815 0.59171 0.0
C147 C 0.02894 0.58488 0.55228 0.0
C148 C 0.01818 0.53105 0.54886 0.0
C149 C 0.00493 0.50232 0.56727 0.0
C150 C 1.00149 0.52719 0.5885 0.0
C151 C 0.01821 0.50559 0.52563 0.0
C152 C 0.97769 0.48152 0.5139 0.0
C153 C 0.05674 0.50764 0.51443 0.0
C154 C 0.10142 0.52948 0.52641 0.0
C155 C 0.12273 0.51026 0.54858 0.0
C156 C 0.16479 0.53105 0.55981 0.0
C157 C 0.18603 0.57087 0.54897 0.0
C158 C 0.16532 0.58988 0.52686 0.0
C159 C 0.12324 0.56924 0.51556 0.0
H160 H 0.2186 0.58691 0.55769 0.0
H161 H 0.81309 0.37911 0.44828 0.0
H162 H 0.46973 0.6734 0.42839 0.0
H163 H 0.4579 0.63187 0.46497 0.0
H164 H 0.50725 0.48369 0.44254 0.0
H165 H 0.51848 0.52464 0.40571 0.0
H166 H 0.43204 0.47159 0.46435 0.0
H167 H 0.57728 0.57088 0.47938 0.0
H168 H 0.62013 0.65452 0.47921 0.0
H169 H 0.53882 0.72511 0.52509 0.0
H170 H 0.49497 0.64241 0.5252 0.0
H171 H 0.4866 0.33583 0.5732 0.0
H172 H 0.48749 0.37776 0.5352 0.0
H173 H 0.46051 0.529 0.56427 0.0
H174 H 0.46024 0.48752 0.60237 0.0
H175 H 0.52122 0.54247 0.53897 0.0
H176 H 0.37706 0.46152 0.52663 0.0
H177 H 0.31416 0.39677 0.52328 0.0
H178 H 0.37227 0.30832 0.47268 0.0
H179 H 0.43609 0.37209 0.47599 0.0
C180 C 0.47752 0.63179 0.43106 0.0
C181 C 0.49539 0.60249 0.41413 0.0
C182 C 0.47095 0.60816 0.45207 0.0
C183 C 0.48257 0.5549 0.45673 0.0
C184 C 0.49832 0.52492 0.4394 0.0
C185 C 0.50474 0.54845 0.41834 0.0
C186 C 0.48013 0.5308 0.47997 0.0
C187 C 0.45212 0.48637 0.48067 0.0
C188 C 0.50442 0.55197 0.50137 0.0
C189 C 0.53253 0.60062 0.5021 0.0
C190 C 0.56847 0.60429 0.48937 0.0
C191 C 0.59287 0.65156 0.48925 0.0
C192 C 0.58187 0.69514 0.50198 0.0
C193 C 0.54706 0.69138 0.51514 0.0
C194 C 0.52247 0.64435 0.51525 0.0
C195 C 0.48138 0.37814 0.57161 0.0
C196 C 0.47363 0.40833 0.59095 0.0
C197 C 0.48135 0.402 0.54974 0.0
C198 C 0.47346 0.45655 0.54668 0.0
C199 C 0.46664 0.48688 0.5661 0.0
C200 C 0.4666 0.46307 0.58794 0.0
C201 C 0.47361 0.48229 0.52347 0.0
C202 C 0.50132 0.52705 0.52273 0.0
C203 C 0.44742 0.46276 0.50215 0.0
C204 C 0.41168 0.42144 0.50173 0.0
C205 C 0.37697 0.42778 0.5151 0.0
C206 C 0.34093 0.39147 0.51307 0.0
C207 C 0.33896 0.34887 0.49757 0.0
C208 C 0.37364 0.34169 0.4845 0.0
C209 C 0.40983 0.37782 0.4865 0.0
H210 H 0.31071 0.32123 0.49581 0.0
H211 H 0.60025 0.73188 0.50168 0.0
H212 H 0.5028 0.17693 0.06705 0.0
H213 H 0.51049 0.13373 0.03013 0.0
H214 H 0.47966 0.98324 0.05852 0.0
H215 H 0.47212 0.02604 0.09552 0.0
H216 H 0.5541 0.97667 0.03869 0.0
H217 H 0.39417 0.03009 0.00674 0.0
H218 H 0.32833 0.09103 0.99706 0.0
H219 H 0.41313 0.20364 0.9697 0.0
H220 H 0.47892 0.14222 0.97829 0.0
H221 H 0.52201 0.82927 0.9312 0.0
H222 H 0.51417 0.87259 0.96806 0.0
H223 H 0.54638 0.02275 0.93986 0.0
H224 H 0.5541 0.9798 0.9029 0.0
H225 H 0.47119 0.02952 0.95957 0.0
H226 H 0.63181 0.97487 0.99239 0.0
H227 H 0.69688 0.91303 0.0027 0.0
H228 H 0.60937 0.80137 0.02868 0.0
H229 H 0.54432 0.86365 0.01945 0.0
C230 C 0.49777 0.13461 0.06549 0.0
C231 C 0.48732 0.10491 0.08439 0.0
C232 C 0.50155 0.11004 0.04421 0.0
C233 C 0.49506 0.05526 0.04137 0.0
C234 C 0.48462 0.02557 0.06022 0.0
C235 C 0.48054 0.05012 0.08142 0.0
C236 C 0.50262 0.02834 0.01951 0.0
C237 C 0.53542 0.98781 0.02143 0.0
C238 C 0.47936 0.04343 0.99687 0.0
C239 C 0.44141 0.08208 0.99345 0.0
C240 C 0.39877 0.06807 0.99885 0.0
C241 C 0.36139 0.10238 0.9933 0.0
C242 C 0.36662 0.15133 0.98292 0.0
C243 C 0.40916 0.16581 0.97781 0.0
C244 C 0.44638 0.13109 0.98281 0.0
C245 C 0.52736 0.87154 0.93279 0.0
C246 C 0.53825 0.9011 0.91395 0.0
C247 C 0.52347 0.89618 0.95404 0.0
C248 C 0.5303 0.9509 0.95691 0.0
C249 C 0.54117 0.98046 0.93813 0.0
C250 C 0.54537 0.95584 0.91695 0.0
C251 C 0.52271 0.97787 0.97876 0.0
C252 C 0.4899 0.01843 0.97684 0.0
C253 C 0.54583 0.96266 1.00141 0.0
C254 C 0.58326 0.92338 0.00492 0.0
C255 C 0.62644 0.93688 1.00009 0.0
C256 C 0.66339 0.90208 0.006 0.0
C257 C 0.65718 0.85317 0.01621 0.0
C258 C 0.61409 0.83917 0.02071 0.0
C259 C 0.57729 0.87436 0.01534 0.0
H260 H 0.68577 0.8262 0.02068 0.0
H261 H 0.3377 0.17799 0.97881 0.0
H262 H 0.01913 0.84533 0.08114 0.0
H263 H 0.02554 0.88534 0.0434 0.0
H264 H 0.96034 0.02692 0.06252 0.0
H265 H 0.95375 0.98724 0.10031 0.0
H266 H 0.92007 0.99077 0.01916 0.0
H267 H 0.07263 0.02807 0.05984 0.0
H268 H 0.14911 0.00867 0.08324 0.0
H269 H 0.17597 0.90168 0.02979 0.0
H270 H 0.09938 0.91993 0.00618 0.0
H271 H 0.96542 0.15746 0.92602 0.0
H272 H 0.9579 0.116 0.96332 0.0
H273 H 0.02259 0.97481 0.94344 0.0
H274 H 0.03013 0.01585 0.90605 0.0
H275 H 0.06293 0.00993 0.987 0.0
H276 H 0.91112 0.97225 0.94626 0.0
H277 H 0.83438 0.99016 0.92283 0.0
H278 H 0.80586 0.09641 0.97618 0.0
H279 H 0.88269 0.07964 0.99982 0.0
C280 C 0.00687 0.88534 0.07752 0.0
C281 C 0.98588 0.91302 0.0938 0.0
C282 C 0.0106 0.90819 0.05591 0.0
C283 C 0.9934 0.95916 0.0501 0.0
C284 C 0.97374 0.9875 0.0666 0.0
C285 C 0.97026 0.96483 0.08827 0.0
C286 C 0.99352 0.98164 0.02634 0.0
C287 C 0.9514 0.99576 0.01226 0.0
C288 C 0.03421 0.98657 0.01705 0.0
C289 C 0.08004 0.97494 0.03136 0.0
C290 C 0.09464 0.99998 0.05318 0.0
C291 C 0.13807 0.9893 0.06646 0.0
C292 C 0.16733 0.95386 0.05804 0.0
C293 C 0.15324 0.92907 0.0363 0.0
C294 C 0.10984 0.9396 0.02296 0.0
C295 C 0.97731 0.11723 0.92937 0.0
C296 C 0.99846 0.09005 0.91302 0.0
C297 C 0.97292 0.09354 0.95072 0.0
C298 C 0.98972 0.04228 0.9562 0.0
C299 C 0.00947 0.01443 0.9396 0.0
C300 C 0.01352 0.03789 0.91817 0.0
C301 C 0.98949 0.01921 0.97984 0.0
C302 C 0.0316 0.00496 0.9939 0.0
C303 C 0.94877 0.01405 0.98909 0.0
C304 C 0.90291 0.02515 0.97469 0.0
C305 C 0.88871 0.99992 0.95287 0.0
C306 C 0.84514 0.00975 0.93958 0.0
C307 C 0.81533 0.04454 0.94797 0.0
C308 C 0.82902 0.06955 0.96968 0.0
C309 C 0.87257 0.05986 0.98304 0.0
H310 H 0.78155 0.05197 0.93768 0.0
H311 H 0.20096 0.94571 0.06832 0.0
H312 H 0.58665 0.14401 0.19546 0.0
H313 H 0.65819 0.14779 0.22452 0.0
H314 H 0.68665 0.30219 0.19906 0.0
H315 H 0.6161 0.29842 0.16988 0.0
H316 H 0.76232 0.2438 0.2067 0.0
H317 H 0.64206 0.28659 0.24932 0.0
H318 H 0.56998 0.27128 0.26373 0.0
H319 H 0.62627 0.12993 0.29882 0.0
H320 H 0.69851 0.14405 0.28433 0.0
H321 H 0.9273 0.34016 0.30177 0.0
H322 H 0.85655 0.32835 0.27284 0.0
H323 H 0.83951 0.17285 0.30052 0.0
H324 H 0.90982 0.18444 0.32961 0.0
H325 H 0.75899 0.22656 0.29185 0.0
H326 H 0.8807 0.18636 0.25046 0.0
H327 H 0.95286 0.20285 0.2363 0.0
H328 H 0.89372 0.3404 0.19899 0.0
H329 H 0.82138 0.32514 0.21322 0.0
C330 C 0.60834 0.17857 0.19595 0.0
C331 C 0.59553 0.22098 0.1804 0.0
C332 C 0.64908 0.18079 0.21264 0.0
C333 C 0.67751 0.22558 0.21415 0.0
C334 C 0.66529 0.26727 0.19825 0.0
C335 C 0.62478 0.26505 0.1816 0.0
C336 C 0.71968 0.22989 0.23245 0.0
C337 C 0.76149 0.24051 0.22533 0.0
C338 C 0.71882 0.22451 0.25674 0.0
C339 C 0.67548 0.21606 0.26552 0.0
C340 C 0.63893 0.25202 0.25995 0.0
C341 C 0.59807 0.2436 0.26816 0.0
C342 C 0.5935 0.19957 0.28212 0.0
C343 C 0.62983 0.16396 0.28796 0.0
C344 C 0.67075 0.17217 0.27977 0.0
C345 C 0.90838 0.30357 0.30179 0.0
C346 C 0.92437 0.26316 0.31793 0.0
C347 C 0.86806 0.29678 0.28518 0.0
C348 C 0.84309 0.24943 0.28434 0.0
C349 C 0.8583 0.20963 0.30082 0.0
C350 C 0.89861 0.21632 0.31739 0.0
C351 C 0.80144 0.24105 0.26608 0.0
C352 C 0.7598 0.2296 0.27321 0.0
C353 C 0.80241 0.24579 0.24179 0.0
C354 C 0.84577 0.25487 0.23308 0.0
C355 C 0.88319 0.22035 0.23938 0.0
C356 C 0.92411 0.22944 0.23132 0.0
C357 C 0.92791 0.27272 0.2168 0.0
C358 C 0.89075 0.30692 0.21026 0.0
C359 C 0.84977 0.29805 0.2183 0.0
H360 H 0.95962 0.27969 0.21058 0.0
H361 H 0.56184 0.19312 0.28847 0.0
H362 H 0.57621 0.35966 0.70065 0.0
H363 H 0.64872 0.35118 0.72872 0.0
H364 H 0.6682 0.19553 0.70179 0.0
H365 H 0.59658 0.2039 0.6736 0.0
H366 H 0.67246 0.28092 0.76383 0.0
H367 H 0.78142 0.17012 0.70578 0.0
H368 H 0.78959 0.16546 0.66415 0.0
H369 H 0.73693 0.32328 0.65283 0.0
H370 H 0.72904 0.32916 0.69445 0.0
H371 H 0.91317 0.15006 0.80479 0.0
H372 H 0.84224 0.16143 0.7758 0.0
H373 H 0.82529 0.31738 0.80305 0.0
H374 H 0.89536 0.30617 0.83215 0.0
H375 H 0.82017 0.23314 0.74075 0.0
H376 H 0.71219 0.34448 0.79886 0.0
H377 H 0.70403 0.3492 0.8405 0.0
H378 H 0.7546 0.19048 0.85158 0.0
H379 H 0.76247 0.18454 0.80995 0.0
C380 C 0.59619 0.32388 0.70056 0.0
C381 C 0.58062 0.28254 0.68485 0.0
C382 C 0.63751 0.319 0.71666 0.0
C383 C 0.6641 0.27292 0.71721 0.0
C384 C 0.64871 0.23181 0.70144 0.0
C385 C 0.60757 0.23664 0.68538 0.0
C386 C 0.70706 0.26668 0.73481 0.0
C387 C 0.70493 0.27135 0.75876 0.0
C388 C 0.74914 0.25272 0.72823 0.0
C389 C 0.75422 0.24984 0.7032 0.0
C390 C 0.77175 0.2039 0.69443 0.0
C391 C 0.77631 0.20103 0.67083 0.0
C392 C 0.76365 0.24398 0.65584 0.0
C393 C 0.74655 0.28996 0.66444 0.0
C394 C 0.74196 0.29305 0.68803 0.0
C395 C 0.89416 0.1866 0.80469 0.0
C396 C 0.90985 0.22707 0.82086 0.0
C397 C 0.85375 0.19313 0.78807 0.0
C398 C 0.82823 0.24004 0.78742 0.0
C399 C 0.84397 0.28051 0.80347 0.0
C400 C 0.8842 0.27403 0.82006 0.0
C401 C 0.78552 0.24731 0.76974 0.0
C402 C 0.78771 0.24281 0.74579 0.0
C403 C 0.74348 0.26144 0.77632 0.0
C404 C 0.73836 0.26431 0.80134 0.0
C405 C 0.72141 0.31053 0.81017 0.0
C406 C 0.71686 0.31342 0.83377 0.0
C407 C 0.72893 0.27023 0.84869 0.0
C408 C 0.74543 0.22398 0.84002 0.0
C409 C 0.75001 0.22086 0.81643 0.0
H410 H 0.72541 0.27257 0.86696 0.0
H411 H 0.76718 0.24167 0.63757 0.0
H412 H 0.12077 0.79205 0.66672 0.0
H413 H 0.19059 0.80664 0.69568 0.0
H414 H 0.16166 0.66801 0.73378 0.0
H415 H 0.09126 0.65299 0.70474 0.0
H416 H 0.18532 0.75594 0.76257 0.0
H417 H 0.24354 0.66209 0.70227 0.0
H418 H 0.25474 0.6441 0.66182 0.0
H419 H 0.31877 0.79563 0.65935 0.0
H420 H 0.30735 0.81485 0.6997 0.0
H421 H 0.4013 0.71691 0.83548 0.0
H422 H 0.32976 0.71107 0.80713 0.0
H423 H 0.3683 0.84762 0.77061 0.0
H424 H 0.44072 0.85364 0.79906 0.0
H425 H 0.33918 0.76534 0.74076 0.0
H426 H 0.28395 0.85816 0.80155 0.0
H427 H 0.27266 0.87665 0.84194 0.0
H428 H 0.20293 0.72842 0.84354 0.0
H429 H 0.21438 0.70865 0.80326 0.0
C430 C 0.12926 0.76441 0.68118 0.0
C431 C 0.10046 0.72128 0.68342 0.0
C432 C 0.1693 0.77278 0.69767 0.0
C433 C 0.18138 0.73827 0.71678 0.0
C434 C 0.15286 0.69507 0.71911 0.0
C435 C 0.11284 0.6864 0.70247 0.0
C436 C 0.22343 0.74813 0.7345 0.0
C437 C 0.21907 0.75728 0.75791 0.0
C438 C 0.26717 0.7516 0.72818 0.0
C439 C 0.27415 0.74013 0.70392 0.0
C440 C 0.25964 0.69177 0.69303 0.0
C441 C 0.2661 0.68131 0.67013 0.0
C442 C 0.28734 0.71876 0.658 0.0
C443 C 0.30226 0.76669 0.66876 0.0
C444 C 0.29584 0.77737 0.69165 0.0
C445 C 0.39451 0.74611 0.82157 0.0
C446 C 0.42677 0.78571 0.81948 0.0
C447 C 0.35341 0.74283 0.80543 0.0
C448 C 0.34356 0.7791 0.78686 0.0
C449 C 0.37527 0.81931 0.78488 0.0
C450 C 0.41647 0.82284 0.80118 0.0
C451 C 0.30119 0.77281 0.76892 0.0
C452 C 0.30544 0.7643 0.74545 0.0
C453 C 0.25734 0.77003 0.77518 0.0
C454 C 0.25039 0.78172 0.79944 0.0
C455 C 0.26655 0.82928 0.81058 0.0
C456 C 0.26006 0.84004 0.83345 0.0
C457 C 0.23718 0.80368 0.84532 0.0
C458 C 0.22067 0.75653 0.83433 0.0
C459 C 0.22711 0.74555 0.81147 0.0
H460 H 0.23218 0.81209 0.86302 0.0
H461 H 0.29232 0.71058 0.64027 0.0
H462 H 0.41565 0.66209 0.30427 0.0
H463 H 0.34441 0.67324 0.27555 0.0
H464 H 0.32104 0.82308 0.30686 0.0
H465 H 0.39177 0.81221 0.33564 0.0
H466 H 0.24305 0.76403 0.29729 0.0
H467 H 0.36249 0.82022 0.25697 0.0
H468 H 0.43502 0.81097 0.24232 0.0
H469 H 0.38079 0.6765 0.20106 0.0
H470 H 0.30812 0.68448 0.21574 0.0
H471 H 0.07012 0.8594 0.20425 0.0
H472 H 0.14189 0.85191 0.23298 0.0
H473 H 0.1701 0.7026 0.20261 0.0
H474 H 0.09908 0.70988 0.17387 0.0
H475 H 0.24601 0.76357 0.21176 0.0
H476 H 0.12758 0.70574 0.25252 0.0
H477 H 0.05503 0.71387 0.26723 0.0
H478 H 0.10727 0.85022 0.30769 0.0
H479 H 0.17995 0.84333 0.29294 0.0
C480 C 0.39523 0.69727 0.30511 0.0
C481 C 0.4095 0.73636 0.32217 0.0
C482 C 0.35466 0.70369 0.28863 0.0
C483 C 0.32773 0.74926 0.28895 0.0
C484 C 0.34135 0.78768 0.30629 0.0
C485 C 0.38191 0.78143 0.32268 0.0
C486 C 0.28563 0.75742 0.27103 0.0
C487 C 0.24375 0.7646 0.27859 0.0
C488 C 0.28651 0.75725 0.24665 0.0
C489 C 0.33003 0.75263 0.23764 0.0
C490 C 0.36615 0.78843 0.24491 0.0
C491 C 0.40727 0.78346 0.23658 0.0
C492 C 0.41256 0.74308 0.22082 0.0
C493 C 0.37667 0.7077 0.21329 0.0
C494 C 0.3355 0.71246 0.2216 0.0
C495 C 0.09176 0.82515 0.20363 0.0
C496 C 0.07876 0.78513 0.18686 0.0
C497 C 0.13263 0.82083 0.22009 0.0
C498 C 0.16107 0.77643 0.22004 0.0
C499 C 0.14867 0.73716 0.20296 0.0
C500 C 0.10791 0.74134 0.1866 0.0
C501 C 0.20339 0.77002 0.23801 0.0
C502 C 0.24532 0.76315 0.23046 0.0
C503 C 0.20253 0.77035 0.26239 0.0
C504 C 0.159 0.77437 0.27142 0.0
C505 C 0.12346 0.73771 0.26441 0.0
C506 C 0.08234 0.74205 0.27278 0.0
C507 C 0.07649 0.78264 0.28833 0.0
C508 C 0.11182 0.81886 0.29561 0.0
C509 C 0.153 0.81474 0.28726 0.0
H510 H 0.04461 0.78596 0.29478 0.0
H511 H 0.44443 0.73928 0.2144 0.0
H512 H 0.37052 0.12876 0.19568 0.0
H513 H 0.31679 0.1499 0.22158 0.0
H514 H 0.34452 0.31599 0.21506 0.0
H515 H 0.39892 0.29515 0.18931 0.0
H516 H 0.33873 0.29045 0.25991 0.0
H517 H 0.24855 0.26145 0.18324 0.0
H518 H 0.22188 0.21276 0.1463 0.0
H519 H 0.17638 0.08499 0.1851 0.0
H520 H 0.20343 0.1326 0.22233 0.0
H521 H 0.14468 0.38185 0.30386 0.0
H522 H 0.19877 0.36447 0.27763 0.0
H523 H 0.17548 0.197 0.28272 0.0
H524 H 0.12095 0.214 0.30877 0.0
H525 H 0.17856 0.22578 0.23798 0.0
H526 H 0.27034 0.25424 0.3147 0.0
H527 H 0.2971 0.30309 0.35159 0.0
H528 H 0.33928 0.43241 0.3125 0.0
H529 H 0.31216 0.3846 0.27532 0.0
C530 C 0.36556 0.16981 0.19989 0.0
C531 C 0.38886 0.21029 0.19027 0.0
C532 C 0.33461 0.18183 0.21461 0.0
C533 C 0.32598 0.23458 0.21992 0.0
C534 C 0.35047 0.27501 0.21111 0.0
C535 C 0.38155 0.26302 0.19638 0.0
C536 C 0.29068 0.24744 0.23422 0.0
C537 C 0.30355 0.27696 0.25494 0.0
C538 C 0.24494 0.22903 0.22797 0.0
C539 C 0.22842 0.2004 0.20559 0.0
C540 C 0.23318 0.2228 0.18391 0.0
C541 C 0.21794 0.19542 0.16292 0.0
C542 C 0.19755 0.14576 0.16336 0.0
C543 C 0.19224 0.12343 0.18479 0.0
C544 C 0.20749 0.15062 0.20584 0.0
C545 C 0.15075 0.34131 0.29927 0.0
C546 C 0.12861 0.29929 0.30853 0.0
C547 C 0.1819 0.33145 0.28436 0.0
C548 C 0.19171 0.27939 0.27849 0.0
C549 C 0.16856 0.23748 0.28708 0.0
C550 C 0.13743 0.24728 0.302 0.0
C551 C 0.22667 0.2685 0.26373 0.0
C552 C 0.21371 0.23938 0.24291 0.0
C553 C 0.27229 0.28734 0.26988 0.0
C554 C 0.28879 0.31606 0.29222 0.0
C555 C 0.28499 0.29326 0.31396 0.0
C556 C 0.30028 0.32073 0.33492 0.0
C557 C 0.31976 0.37088 0.33439 0.0
C558 C 0.32411 0.3936 0.31288 0.0
C559 C 0.30882 0.36632 0.29186 0.0
H560 H 0.33159 0.39208 0.35064 0.0
H561 H 0.18577 0.12462 0.14708 0.0
H562 H 0.39001 0.22006 0.69812 0.0
H563 H 0.3372 0.19863 0.72453 0.0
H564 H 0.3006 0.36319 0.72714 0.0
H565 H 0.35397 0.38514 0.70108 0.0
H566 H 0.30866 0.31861 0.76983 0.0
H567 H 0.23209 0.27612 0.69124 0.0
H568 H 0.22395 0.23304 0.65243 0.0
H569 H 0.23387 0.08049 0.68551 0.0
H570 H 0.24274 0.1227 0.72456 0.0
H571 H 0.10328 0.2852 0.81412 0.0
H572 H 0.15784 0.30726 0.78871 0.0
H573 H 0.19291 0.14244 0.78498 0.0
H574 H 0.13774 0.11991 0.80996 0.0
H575 H 0.1859 0.18729 0.74297 0.0
H576 H 0.26202 0.22949 0.82156 0.0
H577 H 0.27022 0.27239 0.86041 0.0
H578 H 0.26135 0.42511 0.82752 0.0
H579 H 0.25242 0.38309 0.78842 0.0
C580 C 0.37108 0.25182 0.70447 0.0
C581 C 0.37604 0.3043 0.69733 0.0
C582 C 0.34069 0.23944 0.71949 0.0
C583 C 0.31428 0.27917 0.72749 0.0
C584 C 0.32046 0.33184 0.72113 0.0
C585 C 0.35098 0.3443 0.70618 0.0
C586 C 0.27927 0.26568 0.74191 0.0
C587 C 0.28149 0.29037 0.76383 0.0
C588 C 0.2443 0.22806 0.73432 0.0
C589 C 0.23852 0.20259 0.71084 0.0
C590 C 0.23285 0.2334 0.69025 0.0
C591 C 0.22806 0.20913 0.66821 0.0
C592 C 0.22851 0.15406 0.66651 0.0
C593 C 0.2336 0.12314 0.68685 0.0
C594 C 0.23847 0.14721 0.70894 0.0
C595 C 0.12236 0.25356 0.80778 0.0
C596 C 0.11625 0.20079 0.81418 0.0
C597 C 0.15377 0.26629 0.79335 0.0
C598 C 0.18011 0.22661 0.78525 0.0
C599 C 0.17312 0.17376 0.79107 0.0
C600 C 0.14156 0.16096 0.80539 0.0
C601 C 0.21529 0.24014 0.77093 0.0
C602 C 0.21308 0.21549 0.749 0.0
C603 C 0.25028 0.27776 0.77854 0.0
C604 C 0.25611 0.30312 0.80205 0.0
C605 C 0.2615 0.27221 0.8226 0.0
C606 C 0.26632 0.29637 0.84466 0.0
C607 C 0.26619 0.35144 0.84643 0.0
C608 C 0.26138 0.38246 0.82612 0.0
C609 C 0.25647 0.35849 0.80401 0.0
H610 H 0.2699 0.37006 0.86353 0.0
H611 H 0.22481 0.13535 0.64943 0.0
H612 H 0.62138 0.70906 0.80806 0.0
H613 H 0.67394 0.68673 0.78158 0.0
H614 H 0.7045 0.852 0.7748 0.0
H615 H 0.65168 0.87475 0.80103 0.0
H616 H 0.69583 0.80166 0.73288 0.0
H617 H 0.77664 0.77401 0.81194 0.0
H618 H 0.78819 0.73693 0.85205 0.0
H619 H 0.78536 0.57979 0.8238 0.0
H620 H 0.77306 0.61595 0.78347 0.0
H621 H 0.90228 0.77667 0.68884 0.0
H622 H 0.84671 0.79762 0.71384 0.0
H623 H 0.82026 0.63147 0.72122 0.0
H624 H 0.87633 0.61009 0.69657 0.0
H625 H 0.82578 0.68121 0.76246 0.0
H626 H 0.74623 0.71003 0.68303 0.0
H627 H 0.73483 0.7484 0.64313 0.0
H628 H 0.73603 0.90452 0.67231 0.0
H629 H 0.74799 0.86713 0.71239 0.0
C630 C 0.63886 0.74074 0.80074 0.0
C631 C 0.6325 0.7937 0.8068 0.0
C632 C 0.6691 0.72787 0.78569 0.0
C633 C 0.6937 0.76764 0.77649 0.0
C634 C 0.68601 0.82065 0.78175 0.0
C635 C 0.65584 0.83355 0.7968 0.0
C636 C 0.72862 0.75402 0.76206 0.0
C637 C 0.72451 0.77575 0.73943 0.0
C638 C 0.76564 0.7195 0.77044 0.0
C639 C 0.77345 0.69767 0.79468 0.0
C640 C 0.77813 0.73153 0.81427 0.0
C641 C 0.78486 0.71069 0.83705 0.0
C642 C 0.78739 0.65603 0.84047 0.0
C643 C 0.78332 0.62212 0.82112 0.0
C644 C 0.77649 0.64276 0.7983 0.0
C645 C 0.88491 0.74452 0.69591 0.0
C646 C 0.89367 0.69168 0.6906 0.0
C647 C 0.8529 0.7566 0.71009 0.0
C648 C 0.82869 0.71615 0.7191 0.0
C649 C 0.83835 0.66335 0.7144 0.0
C650 C 0.87043 0.65122 0.70027 0.0
C651 C 0.79303 0.72883 0.73324 0.0
C652 C 0.79702 0.70695 0.75585 0.0
C653 C 0.75596 0.76332 0.72484 0.0
C654 C 0.74844 0.78579 0.70072 0.0
C655 C 0.74438 0.75255 0.68094 0.0
C656 C 0.73776 0.77412 0.65829 0.0
C657 C 0.73486 0.82886 0.65521 0.0
C658 C 0.73836 0.86213 0.67474 0.0
C659 C 0.74501 0.84078 0.69742 0.0
H660 H 0.72983 0.84557 0.6377 0.0
H661 H 0.7926 0.63997 0.85811 0.0
H662 H 0.85045 0.88399 0.19862 0.0
H663 H 0.79778 0.86223 0.225 0.0
H664 H 0.82892 0.69672 0.21955 0.0
H665 H 0.8813 0.7181 0.19281 0.0
H666 H 0.73812 0.71199 0.21483 0.0
H667 H 0.87178 0.76724 0.26934 0.0
H668 H 0.93543 0.82694 0.2857 0.0
H669 H 0.839 0.94745 0.29576 0.0
H670 H 0.77475 0.88869 0.27915 0.0
H671 H 0.63374 0.62496 0.30946 0.0
H672 H 0.68717 0.64503 0.28322 0.0
H673 H 0.65888 0.81135 0.28844 0.0
H674 H 0.60591 0.79169 0.31504 0.0
H675 H 0.74897 0.79464 0.29347 0.0
H676 H 0.61537 0.73991 0.23858 0.0
H677 H 0.55164 0.68049 0.22203 0.0
H678 H 0.64785 0.55924 0.21258 0.0
H679 H 0.71218 0.61772 0.22937 0.0
C680 C 0.8464 0.84295 0.20313 0.0
C681 C 0.87025 0.80281 0.19361 0.0
C682 C 0.81631 0.83058 0.2183 0.0
C683 C 0.80965 0.77785 0.22446 0.0
C684 C 0.83351 0.73769 0.21506 0.0
C685 C 0.86361 0.75002 0.19985 0.0
C686 C 0.77698 0.76464 0.24027 0.0
C687 C 0.7409 0.72945 0.23218 0.0
C688 C 0.77988 0.78839 0.26268 0.0
C689 C 0.81845 0.82371 0.2728 0.0
C690 C 0.86415 0.8066 0.27488 0.0
C691 C 0.90033 0.84025 0.28423 0.0
C692 C 0.89126 0.891 0.29171 0.0
C693 C 0.84598 0.90815 0.28993 0.0
C694 C 0.80966 0.87467 0.28057 0.0
C695 C 0.63858 0.66582 0.30491 0.0
C696 C 0.61539 0.7067 0.31435 0.0
C697 C 0.6691 0.67723 0.28983 0.0
C698 C 0.67682 0.72971 0.28366 0.0
C699 C 0.65352 0.77057 0.29294 0.0
C700 C 0.62307 0.75921 0.30807 0.0
C701 C 0.71001 0.74208 0.26801 0.0
C702 C 0.7462 0.77712 0.27614 0.0
C703 C 0.7072 0.7182 0.24563 0.0
C704 C 0.66858 0.68303 0.23545 0.0
C705 C 0.62293 0.70043 0.23314 0.0
C706 C 0.5867 0.66695 0.22369 0.0
C707 C 0.59568 0.61608 0.21632 0.0
C708 C 0.64094 0.59864 0.21832 0.0
C709 C 0.6773 0.63195 0.22779 0.0
H710 H 0.56759 0.59021 0.209 0.0
H711 H 0.91932 0.917 0.29894 0.0
H712 H 0.37719 0.16213 0.59201 0.0
H713 H 0.32681 0.14626 0.55411 0.0
H714 H 0.27595 0.30601 0.55419 0.0
H715 H 0.32518 0.32185 0.59216 0.0
H716 H 0.20938 0.24056 0.53499 0.0
H717 H 0.3671 0.27205 0.53171 0.0
H718 H 0.45031 0.25743 0.53805 0.0
H719 H 0.42902 0.11025 0.50068 0.0
H720 H 0.34533 0.12387 0.49414 0.0
H721 H 0.16972 0.32149 0.41576 0.0
H722 H 0.21983 0.30698 0.45376 0.0
H723 H 0.18475 0.14157 0.45052 0.0
H724 H 0.13369 0.15563 0.41254 0.0
H725 H 0.29337 0.19825 0.4706 0.0
H726 H 0.13243 0.16441 0.48175 0.0
H727 H 0.05024 0.18771 0.4729 0.0
H728 H 0.08287 0.34803 0.494 0.0
H729 H 0.1654 0.32559 0.50276 0.0
C730 C 0.35442 0.19343 0.58423 0.0
C731 C 0.35566 0.24351 0.59487 0.0
C732 C 0.3258 0.18432 0.56257 0.0
C733 C 0.2985 0.22532 0.55119 0.0
C734 C 0.29694 0.2739 0.56268 0.0
C735 C 0.32522 0.28292 0.58438 0.0
C736 C 0.27494 0.2199 0.52648 0.0
C737 C 0.22782 0.23077 0.52101 0.0
C738 C 0.29911 0.20741 0.50817 0.0
C739 C 0.34962 0.19885 0.51254 0.0
C740 C 0.37992 0.2364 0.5249 0.0
C741 C 0.4273 0.22833 0.52852 0.0
C742 C 0.44497 0.18287 0.51982 0.0
C743 C 0.41527 0.14544 0.50743 0.0
C744 C 0.36783 0.15337 0.50374 0.0
C745 C 0.17343 0.28172 0.42278 0.0
C746 C 0.14731 0.23978 0.4113 0.0
C747 C 0.20213 0.27358 0.44446 0.0
C748 C 0.20555 0.22336 0.45479 0.0
C749 C 0.18237 0.18056 0.44265 0.0
C750 C 0.15319 0.18874 0.42104 0.0
C751 C 0.22822 0.21777 0.47952 0.0
C752 C 0.27508 0.20602 0.48484 0.0
C753 C 0.20426 0.22987 0.49774 0.0
C754 C 0.15488 0.24342 0.49274 0.0
C755 C 0.12203 0.20467 0.48435 0.0
C756 C 0.07545 0.21768 0.47939 0.0
C757 C 0.06137 0.26929 0.48289 0.0
C758 C 0.09385 0.30805 0.49132 0.0
C759 C 0.14051 0.29519 0.49631 0.0
H760 H 0.02526 0.27907 0.47915 0.0
H761 H 0.48168 0.17667 0.52264 0.0
H762 H 0.90381 0.82512 0.58416 0.0
H763 H 0.84679 0.8428 0.54876 0.0
H764 H 0.79189 0.68573 0.55216 0.0
H765 H 0.84837 0.66783 0.58771 0.0
H766 H 0.8386 0.79196 0.50713 0.0
H767 H 0.67939 0.68616 0.52886 0.0
H768 H 0.64285 0.66737 0.56295 0.0
H769 H 0.70623 0.80515 0.59824 0.0
H770 H 0.7424 0.82536 0.56417 0.0
H771 H 0.67286 0.69721 0.4106 0.0
H772 H 0.72976 0.71118 0.4465 0.0
H773 H 0.65253 0.84464 0.46434 0.0
H774 H 0.59569 0.83141 0.42838 0.0
H775 H 0.67076 0.7673 0.49937 0.0
H776 H 0.75077 0.86999 0.45101 0.0
H777 H 0.7857 0.88927 0.41645 0.0
H778 H 0.87949 0.76003 0.43433 0.0
H779 H 0.84465 0.73945 0.46882 0.0
C780 C 0.87919 0.79455 0.57758 0.0
C781 C 0.88066 0.74498 0.58869 0.0
C782 C 0.84678 0.80472 0.55732 0.0
C783 C 0.81514 0.76567 0.54794 0.0
C784 C 0.81568 0.71665 0.55933 0.0
C785 C 0.84805 0.70643 0.57961 0.0
C786 C 0.78329 0.77495 0.52547 0.0
C787 C 0.80182 0.78684 0.50543 0.0
C788 C 0.73538 0.76868 0.52338 0.0
C789 C 0.71371 0.75713 0.54398 0.0
C790 C 0.68526 0.71265 0.54384 0.0
C791 C 0.66468 0.7017 0.56318 0.0
C792 C 0.67236 0.73495 0.58281 0.0
C793 C 0.70048 0.77932 0.58308 0.0
C794 C 0.72103 0.79054 0.56375 0.0
C795 C 0.66842 0.7301 0.42195 0.0
C796 C 0.62975 0.76306 0.41676 0.0
C797 C 0.70102 0.73815 0.44237 0.0
C798 C 0.69523 0.77901 0.45793 0.0
C799 C 0.65752 0.81305 0.45243 0.0
C800 C 0.62521 0.80546 0.43187 0.0
C801 C 0.72605 0.78264 0.48101 0.0
C802 C 0.7074 0.7729 0.50114 0.0
C803 C 0.77373 0.79069 0.48314 0.0
C804 C 0.79484 0.80294 0.46242 0.0
C805 C 0.77858 0.84539 0.44747 0.0
C806 C 0.79842 0.85661 0.42791 0.0
C807 C 0.83474 0.82584 0.42317 0.0
C808 C 0.85134 0.78383 0.43801 0.0
C809 C 0.83159 0.7724 0.45759 0.0
H810 H 0.85006 0.8346 0.40802 0.0
H811 H 0.65647 0.7264 0.59779 0.0
H812 H 0.81492 0.80449 0.09543 0.0
H813 H 0.76387 0.78845 0.05769 0.0
H814 H 0.85776 0.67045 0.04073 0.0
H815 H 0.90731 0.68429 0.07872 0.0
H816 H 0.77722 0.80685 0.01676 0.0
H817 H 0.80765 0.58214 0.00197 0.0
H818 H 0.81879 0.49993 0.02526 0.0
H819 H 0.75019 0.56891 0.07709 0.0
H820 H 0.73807 0.65124 0.05397 0.0
H821 H 0.70259 0.77192 0.8979 0.0
H822 H 0.75548 0.75858 0.93532 0.0
H823 H 0.65426 0.66189 0.96002 0.0
H824 H 0.60274 0.67239 0.92234 0.0
H825 H 0.73386 0.63166 0.9809 0.0
H826 H 0.65721 0.79646 0.96475 0.0
H827 H 0.63466 0.87872 0.94288 0.0
H828 H 0.77444 0.93201 0.9573 0.0
H829 H 0.79815 0.8493 0.9787 0.0
C830 C 0.82401 0.77429 0.08383 0.0
C831 C 0.86494 0.7455 0.09002 0.0
C832 C 0.795 0.76534 0.06225 0.0
C833 C 0.80679 0.728 0.04639 0.0
C834 C 0.84724 0.69851 0.05284 0.0
C835 C 0.87569 0.70663 0.07457 0.0
C836 C 0.77882 0.72257 0.02245 0.0
C837 C 0.76762 0.76852 0.00899 0.0
C838 C 0.76552 0.67264 0.01238 0.0
C839 C 0.77235 0.62306 0.02632 0.0
C840 C 0.79477 0.57969 0.01829 0.0
C841 C 0.80129 0.53308 0.03147 0.0
C842 C 0.78534 0.52926 0.05267 0.0
C843 C 0.7627 0.57199 0.06071 0.0
C844 C 0.75605 0.61867 0.04758 0.0
C845 C 0.69243 0.74635 0.91106 0.0
C846 C 0.6484 0.72403 0.90751 0.0
C847 C 0.72251 0.73884 0.9324 0.0
C848 C 0.70807 0.71082 0.9507 0.0
C849 C 0.66597 0.68406 0.94624 0.0
C850 C 0.63646 0.69025 0.92468 0.0
C851 C 0.73312 0.71578 0.97522 0.0
C852 C 0.74366 0.66988 0.98874 0.0
C853 C 0.74391 0.76593 0.98571 0.0
C854 C 0.7296 0.81621 0.9731 0.0
C855 C 0.68329 0.82534 0.96299 0.0
C856 C 0.67028 0.87207 0.95065 0.0
C857 C 0.70312 0.91046 0.94859 0.0
C858 C 0.74905 0.90217 0.95886 0.0
C859 C 0.76232 0.85532 0.97107 0.0
H860 H 0.69294 0.94674 0.93914 0.0
H861 H 0.79044 0.49315 0.06286 0.0
H862 H 0.32121 0.23419 0.10153 0.0
H863 H 0.26628 0.24633 0.06476 0.0
H864 H 0.36592 0.33926 0.03691 0.0
H865 H 0.41989 0.32966 0.07404 0.0
H866 H 0.28369 0.3702 0.01745 0.0
H867 H 0.36236 0.20792 0.03253 0.0
H868 H 0.38911 0.12738 0.0548 0.0
H869 H 0.25069 0.07014 0.04538 0.0
H870 H 0.22282 0.15124 0.0237 0.0
H871 H 0.17628 0.19425 0.90729 0.0
H872 H 0.23563 0.21047 0.94203 0.0
H873 H 0.14993 0.32952 0.96543 0.0
H874 H 0.09181 0.31528 0.93032 0.0
H875 H 0.23491 0.19359 0.98472 0.0
H876 H 0.20874 0.41988 0.99984 0.0
H877 H 0.19269 0.50086 0.976 0.0
H878 H 0.24577 0.4276 0.91966 0.0
H879 H 0.26276 0.34648 0.94327 0.0
C880 C 0.3307 0.25866 0.08782 0.0
C881 C 0.37489 0.28021 0.09035 0.0
C882 C 0.29942 0.26553 0.06685 0.0
C883 C 0.31269 0.29221 0.04789 0.0
C884 C 0.35515 0.31818 0.05126 0.0
C885 C 0.386 0.31252 0.07246 0.0
C886 C 0.28554 0.28637 0.02385 0.0
C887 C 0.27274 0.3317 0.01028 0.0
C888 C 0.27358 0.23578 0.0141 0.0
C889 C 0.29037 0.18614 0.02667 0.0
C890 C 0.33748 0.17856 0.03546 0.0
C891 C 0.35287 0.1328 0.04803 0.0
C892 C 0.32161 0.09376 0.05159 0.0
C893 C 0.27487 0.10046 0.04262 0.0
C894 C 0.25924 0.14639 0.03022 0.0
C895 C 0.17056 0.2245 0.91968 0.0
C896 C 0.12953 0.25359 0.91611 0.0
C897 C 0.20439 0.23364 0.93954 0.0
C898 C 0.19749 0.27154 0.95629 0.0
C899 C 0.15669 0.30104 0.95252 0.0
C900 C 0.12331 0.29266 0.93248 0.0
C901 C 0.23116 0.27769 0.97855 0.0
C902 C 0.24568 0.23222 0.99179 0.0
C903 C 0.24643 0.32798 0.98753 0.0
C904 C 0.23666 0.3769 0.97329 0.0
C905 C 0.2172 0.42112 0.98241 0.0
C906 C 0.2079 0.46705 0.96892 0.0
C907 C 0.21809 0.46932 0.9463 0.0
C908 C 0.23774 0.42573 0.93715 0.0
C909 C 0.24715 0.37974 0.95057 0.0
H910 H 0.21083 0.5049 0.93589 0.0
H911 H 0.33362 0.05823 0.06121 0.0
loop_
_geom_bond_atom_site_label_1
_geom_bond_atom_site_label_2
_geom_bond_distance
_geom_bond_site_symmetry_2
_ccdc_geom_bond_type
C0 O2 1.247 . S
C0 O4 1.258 . S
C1 O8 1.247 . S
C1 O9 1.258 1_655 S
O2 C0 1.247 . S
O2 Zn3 2.028 . S
Zn3 O2 2.028 . S
Zn3 O7 2.035 . S
Zn3 O9 2.035 . S
Zn3 O10 2.028 . S
O4 C0 1.258 . S
O4 Zn5 2.035 . S
Zn5 O4 2.035 . S
Zn5 O6 2.028 . S
Zn5 O8 2.028 1_455 S
Zn5 O11 2.035 . S
O6 Zn5 2.028 . S
O6 C12 1.247 . S
O7 Zn3 2.035 . S
O7 C12 1.258 . S
O8 C1 1.247 . S
O8 Zn5 2.028 1_655 S
O9 C1 1.258 1_455 S
O9 Zn3 2.035 . S
O10 Zn3 2.028 . S
O10 C13 1.247 . S
O11 Zn5 2.035 . S
O11 C13 1.258 . S
C12 O6 1.247 . S
C12 O7 1.258 . S
C13 O10 1.247 . S
C13 O11 1.258 . S
C14 O16 1.247 . S
C14 O18 1.258 . S
C15 O22 1.247 . S
C15 O23 1.258 . S
O16 C14 1.247 . S
O16 Zn17 2.028 . S
Zn17 O16 2.028 . S
Zn17 O21 2.035 . S
Zn17 O23 2.035 . S
Zn17 O24 2.028 . S
O18 C14 1.258 . S
O18 Zn19 2.035 . S
Zn19 O18 2.035 . S
Zn19 O20 2.028 . S
Zn19 O22 2.028 . S
Zn19 O25 2.035 . S
O20 Zn19 2.028 . S
O20 C26 1.247 . S
O21 Zn17 2.035 . S
O21 C26 1.258 . S
O22 C15 1.247 . S
O22 Zn19 2.028 . S
O23 C15 1.258 . S
O23 Zn17 2.035 . S
O24 Zn17 2.028 . S
O24 C27 1.247 . S
O25 Zn19 2.035 . S
O25 C27 1.258 . S
C26 O20 1.247 . S
C26 O21 1.258 . S
C27 O24 1.247 . S
C27 O25 1.258 . S
C28 O30 1.247 . S
C28 O32 1.258 . S
C29 O36 1.247 . S
C29 O37 1.258 . S
O30 C28 1.247 . S
O30 Zn31 2.028 . S
Zn31 O30 2.028 . S
Zn31 O35 2.035 . S
Zn31 O37 2.035 . S
Zn31 O38 2.028 . S
O32 C28 1.258 . S
O32 Zn33 2.035 . S
Zn33 O32 2.035 . S
Zn33 O34 2.028 . S
Zn33 O36 2.028 . S
Zn33 O39 2.035 1_655 S
O34 Zn33 2.028 . S
O34 C40 1.247 . S
O35 Zn31 2.035 . S
O35 C40 1.258 . S
O36 C29 1.247 . S
O36 Zn33 2.028 . S
O37 C29 1.258 . S
O37 Zn31 2.035 . S
O38 Zn31 2.028 . S
O38 C41 1.247 1_655 S
O39 Zn33 2.035 1_455 S
O39 C41 1.258 . S
C40 O34 1.247 . S
C40 O35 1.258 . S
C41 O38 1.247 1_455 S
C41 O39 1.258 . S
C42 O44 1.247 . S
C42 O46 1.258 . S
C43 O50 1.247 . S
C43 O51 1.258 . S
O44 C42 1.247 . S
O44 Zn45 2.028 . S
Zn45 O44 2.028 . S
Zn45 O49 2.035 . S
Zn45 O51 2.035 . S
Zn45 O52 2.028 . S
O46 C42 1.258 . S
O46 Zn47 2.035 . S
Zn47 O46 2.035 . S
Zn47 O48 2.028 . S
Zn47 O50 2.028 . S
Zn47 O53 2.035 . S
O48 Zn47 2.028 . S
O48 C54 1.247 . S
O49 Zn45 2.035 . S
O49 C54 1.258 . S
O50 C43 1.247 . S
O50 Zn47 2.028 . S
O51 C43 1.258 . S
O51 Zn45 2.035 . S
O52 Zn45 2.028 . S
O52 C55 1.247 . S
O53 Zn47 2.035 . S
O53 C55 1.258 . S
C54 O48 1.247 . S
C54 O49 1.258 . S
C55 O52 1.247 . S
C55 O53 1.258 . S
C56 O58 1.247 . S
C56 O60 1.258 . S
C57 O64 1.247 . S
C57 O65 1.258 . S
O58 C56 1.247 . S
O58 Zn59 2.028 . S
Zn59 O58 2.028 . S
Zn59 O63 2.035 . S
Zn59 O65 2.035 . S
Zn59 O66 2.028 . S
O60 C56 1.258 . S
O60 Zn61 2.035 . S
Zn61 O60 2.035 . S
Zn61 O62 2.028 . S
Zn61 O64 2.028 . S
Zn61 O67 2.035 . S
O62 Zn61 2.028 . S
O62 C68 1.247 . S
O63 Zn59 2.035 . S
O63 C68 1.258 . S
O64 C57 1.247 . S
O64 Zn61 2.028 . S
O65 C57 1.258 . S
O65 Zn59 2.035 . S
O66 Zn59 2.028 . S
O66 C69 1.247 . S
O67 Zn61 2.035 . S
O67 C69 1.258 . S
C68 O62 1.247 . S
C68 O63 1.258 . S
C69 O66 1.247 . S
C69 O67 1.258 . S
C70 O72 1.247 . S
C70 O74 1.258 . S
C71 O78 1.247 . S
C71 O79 1.258 . S
O72 C70 1.247 . S
O72 Zn73 2.028 . S
Zn73 O72 2.028 . S
Zn73 O77 2.035 . S
Zn73 O79 2.035 . S
Zn73 O80 2.028 1_655 S
O74 C70 1.258 . S
O74 Zn75 2.035 . S
Zn75 O74 2.035 . S
Zn75 O76 2.028 . S
Zn75 O78 2.028 . S
Zn75 O81 2.035 . S
O76 Zn75 2.028 . S
O76 C82 1.247 . S
O77 Zn73 2.035 . S
O77 C82 1.258 . S
O78 C71 1.247 . S
O78 Zn75 2.028 . S
O79 C71 1.258 . S
O79 Zn73 2.035 . S
O80 Zn73 2.028 1_455 S
O80 C83 1.247 . S
O81 Zn75 2.035 . S
O81 C83 1.258 1_655 S
C82 O76 1.247 . S
C82 O77 1.258 . S
C83 O80 1.247 . S
C83 O81 1.258 1_455 S
C84 O86 1.247 . S
C84 O88 1.258 . S
C85 O92 1.247 . S
C85 O93 1.258 . S
O86 C84 1.247 . S
O86 Zn87 2.028 . S
Zn87 O86 2.028 . S
Zn87 O91 2.035 . S
Zn87 O93 2.035 . S
Zn87 O94 2.028 . S
O88 C84 1.258 . S
O88 Zn89 2.035 . S
Zn89 O88 2.035 . S
Zn89 O90 2.028 . S
Zn89 O92 2.028 . S
Zn89 O95 2.035 . S
O90 Zn89 2.028 . S
O90 C96 1.247 . S
O91 Zn87 2.035 . S
O91 C96 1.258 . S
O92 C85 1.247 . S
O92 Zn89 2.028 . S
O93 C85 1.258 . S
O93 Zn87 2.035 . S
O94 Zn87 2.028 . S
O94 C97 1.247 . S
O95 Zn89 2.035 . S
O95 C97 1.258 . S
C96 O90 1.247 . S
C96 O91 1.258 . S
C97 O94 1.247 . S
C97 O95 1.258 . S
C98 O100 1.247 . S
C98 O102 1.258 1_655 S
C99 O106 1.247 . S
C99 O107 1.258 . S
O100 C98 1.247 . S
O100 Zn101 2.028 1_655 S
Zn101 O100 2.028 1_455 S
Zn101 O105 2.035 . S
Zn101 O107 2.035 . S
Zn101 O108 2.028 . S
O102 C98 1.258 1_455 S
O102 Zn103 2.035 . S
Zn103 O102 2.035 . S
Zn103 O104 2.028 . S
Zn103 O106 2.028 . S
Zn103 O109 2.035 . S
O104 Zn103 2.028 . S
O104 C110 1.247 . S
O105 Zn101 2.035 . S
O105 C110 1.258 . S
O106 C99 1.247 . S
O106 Zn103 2.028 . S
O107 C99 1.258 . S
O107 Zn101 2.035 . S
O108 Zn101 2.028 . S
O108 C111 1.247 . S
O109 Zn103 2.035 . S
O109 C111 1.258 . S
C110 O104 1.247 . S
C110 O105 1.258 . S
C111 O108 1.247 . S
C111 O109 1.258 . S
H112 C130 0.951 . S
H113 C132 0.951 . S
H114 C134 0.950 . S
H115 C135 0.950 . S
H116 C137 0.950 . S
H117 C140 0.950 . S
H118 C141 0.950 . S
H119 C143 0.950 . S
H120 C144 0.950 . S
H121 C145 0.951 . S
H122 C147 0.951 . S
H123 C149 0.950 . S
H124 C150 0.950 . S
H125 C152 0.950 . S
H126 C155 0.950 . S
H127 C156 0.950 . S
H128 C158 0.950 . S
H129 C159 0.950 . S
C130 H112 0.951 . S
C130 C131 1.358 1_655 S
C130 C132 1.388 . S
C131 C130 1.358 1_455 S
C131 C135 1.390 . S
C132 H113 0.951 . S
C132 C130 1.388 . S
C132 C133 1.366 . S
C133 C132 1.366 . S
C133 C134 1.414 1_655 S
C133 C136 1.499 . S
C134 H114 0.950 . S
C134 C133 1.414 1_455 S
C134 C135 1.374 . S
C135 H115 0.950 . S
C135 C131 1.390 . S
C135 C134 1.374 . S
C136 C133 1.499 . S
C136 C137 1.373 1_655 S
C136 C138 1.389 . S
C137 H116 0.950 . S
C137 C136 1.373 1_455 S
C137 C153 1.377 . S
C138 C136 1.389 . S
C138 C139 1.524 . S
C138 C152 1.377 . S
C139 C138 1.524 . S
C139 C140 1.397 . S
C139 C144 1.363 . S
C140 H117 0.950 . S
C140 C139 1.397 . S
C140 C141 1.334 . S
C141 H118 0.950 . S
C141 C140 1.334 . S
C141 C142 1.287 . S
C142 C141 1.287 . S
C142 C143 1.524 . S
C142 H161 0.913 . S
C143 H119 0.950 . S
C143 C142 1.524 . S
C143 C144 1.415 . S
C144 H120 0.950 . S
C144 C139 1.363 . S
C144 C143 1.415 . S
C145 H121 0.951 . S
C145 C146 1.358 1_455 S
C145 C147 1.388 . S
C146 C145 1.358 1_655 S
C146 C150 1.390 . S
C147 H122 0.951 . S
C147 C145 1.388 . S
C147 C148 1.366 . S
C148 C147 1.366 . S
C148 C149 1.414 1_455 S
C148 C151 1.499 . S
C149 H123 0.950 . S
C149 C148 1.414 1_655 S
C149 C150 1.374 . S
C150 H124 0.950 . S
C150 C146 1.390 . S
C150 C149 1.374 . S
C151 C148 1.499 . S
C151 C152 1.373 1_455 S
C151 C153 1.389 . S
C152 H125 0.950 . S
C152 C138 1.377 . S
C152 C151 1.373 1_655 S
C153 C137 1.377 . S
C153 C151 1.389 . S
C153 C154 1.524 . S
C154 C153 1.524 . S
C154 C155 1.397 . S
C154 C159 1.363 . S
C155 H126 0.950 . S
C155 C154 1.397 . S
C155 C156 1.334 . S
C156 H127 0.950 . S
C156 C155 1.334 . S
C156 C157 1.287 . S
C157 C156 1.287 . S
C157 C158 1.524 . S
C157 H160 0.999 . S
C158 H128 0.950 . S
C158 C157 1.524 . S
C158 C159 1.415 . S
C159 H129 0.950 . S
C159 C154 1.363 . S
C159 C158 1.415 . S
H160 C157 0.999 . S
H161 C142 0.913 . S
H162 C180 0.951 . S
H163 C182 0.951 . S
H164 C184 0.950 . S
H165 C185 0.950 . S
H166 C187 0.950 . S
H167 C190 0.950 . S
H168 C191 0.950 . S
H169 C193 0.950 . S
H170 C194 0.950 . S
H171 C195 0.951 . S
H172 C197 0.951 . S
H173 C199 0.950 . S
H174 C200 0.950 . S
H175 C202 0.950 . S
H176 C205 0.950 . S
H177 C206 0.950 . S
H178 C208 0.950 . S
H179 C209 0.950 . S
C180 H162 0.951 . S
C180 C181 1.366 . S
C180 C182 1.388 . S
C181 C180 1.366 . S
C181 C185 1.385 . S
C182 H163 0.951 . S
C182 C180 1.388 . S
C182 C183 1.366 . S
C183 C182 1.366 . S
C183 C184 1.414 . S
C183 C186 1.499 . S
C184 H164 0.950 . S
C184 C183 1.414 . S
C184 C185 1.374 . S
C185 H165 0.950 . S
C185 C181 1.385 . S
C185 C184 1.374 . S
C186 C183 1.499 . S
C186 C187 1.373 . S
C186 C188 1.389 . S
C187 H166 0.950 . S
C187 C186 1.373 . S
C187 C203 1.377 . S
C188 C186 1.389 . S
C188 C189 1.524 . S
C188 C202 1.377 . S
C189 C188 1.524 . S
C189 C190 1.397 . S
C189 C194 1.363 . S
C190 H167 0.950 . S
C190 C189 1.397 . S
C190 C191 1.334 . S
C191 H168 0.950 . S
C191 C190 1.334 . S
C191 C192 1.287 . S
C192 C191 1.287 . S
C192 C193 1.524 . S
C192 H211 0.913 . S
C193 H169 0.950 . S
C193 C192 1.524 . S
C193 C194 1.415 . S
C194 H170 0.950 . S
C194 C189 1.363 . S
C194 C193 1.415 . S
C195 H171 0.951 . S
C195 C196 1.366 . S
C195 C197 1.388 . S
C196 C195 1.366 . S
C196 C200 1.385 . S
C197 H172 0.951 . S
C197 C195 1.388 . S
C197 C198 1.366 . S
C198 C197 1.366 . S
C198 C199 1.414 . S
C198 C201 1.499 . S
C199 H173 0.950 . S
C199 C198 1.414 . S
C199 C200 1.374 . S
C200 H174 0.950 . S
C200 C196 1.385 . S
C200 C199 1.374 . S
C201 C198 1.499 . S
C201 C202 1.373 . S
C201 C203 1.389 . S
C202 H175 0.950 . S
C202 C188 1.377 . S
C202 C201 1.373 . S
C203 C187 1.377 . S
C203 C201 1.389 . S
C203 C204 1.524 . S
C204 C203 1.524 . S
C204 C205 1.397 . S
C204 C209 1.363 . S
C205 H176 0.950 . S
C205 C204 1.397 . S
C205 C206 1.334 . S
C206 H177 0.950 . S
C206 C205 1.334 . S
C206 C207 1.287 . S
C207 C206 1.287 . S
C207 C208 1.524 . S
C207 H210 0.999 . S
C208 H178 0.950 . S
C208 C207 1.524 . S
C208 C209 1.415 . S
C209 H179 0.950 . S
C209 C204 1.363 . S
C209 C208 1.415 . S
H210 C207 0.999 . S
H211 C192 0.913 . S
H212 C230 0.951 . S
H213 C232 0.951 . S
H214 C234 0.950 . S
H215 C235 0.950 . S
H216 C237 0.950 . S
H217 C240 0.950 . S
H218 C241 0.950 1_554 S
H219 C243 0.950 . S
H220 C244 0.950 . S
H221 C245 0.951 . S
H222 C247 0.951 . S
H223 C249 0.950 . S
H224 C250 0.950 . S
H225 C252 0.950 . S
H226 C255 0.950 . S
H227 C256 0.950 1_556 S
H228 C258 0.950 . S
H229 C259 0.950 . S
C230 H212 0.951 . S
C230 C231 1.366 . S
C230 C232 1.388 . S
C231 C230 1.366 . S
C231 C235 1.385 . S
C232 H213 0.951 . S
C232 C230 1.388 . S
C232 C233 1.366 . S
C233 C232 1.366 . S
C233 C234 1.414 . S
C233 C236 1.499 . S
C234 H214 0.950 . S
C234 C233 1.414 . S
C234 C235 1.374 . S
C235 H215 0.950 . S
C235 C231 1.385 . S
C235 C234 1.374 . S
C236 C233 1.499 . S
C236 C237 1.373 1_545 S
C236 C238 1.389 1_554 S
C237 H216 0.950 . S
C237 C236 1.373 1_565 S
C237 C253 1.377 . S
C238 C236 1.389 1_556 S
C238 C239 1.524 . S
C238 C252 1.377 . S
C239 C238 1.524 . S
C239 C240 1.397 1_556 S
C239 C244 1.363 . S
C240 H217 0.950 . S
C240 C239 1.397 1_554 S
C240 C241 1.334 1_554 S
C241 H218 0.950 1_556 S
C241 C240 1.334 1_556 S
C241 C242 1.287 . S
C242 C241 1.287 . S
C242 C243 1.524 . S
C242 H261 0.913 . S
C243 H219 0.950 . S
C243 C242 1.524 . S
C243 C244 1.415 . S
C244 H220 0.950 . S
C244 C239 1.363 . S
C244 C243 1.415 . S
C245 H221 0.951 . S
C245 C246 1.366 . S
C245 C247 1.388 . S
C246 C245 1.366 . S
C246 C250 1.385 . S
C247 H222 0.951 . S
C247 C245 1.388 . S
C247 C248 1.366 . S
C248 C247 1.366 . S
C248 C249 1.414 . S
C248 C251 1.499 . S
C249 H223 0.950 . S
C249 C248 1.414 . S
C249 C250 1.374 . S
C250 H224 0.950 . S
C250 C246 1.385 . S
C250 C249 1.374 . S
C251 C248 1.499 . S
C251 C252 1.373 1_565 S
C251 C253 1.389 1_556 S
C252 H225 0.950 . S
C252 C238 1.377 . S
C252 C251 1.373 1_545 S
C253 C237 1.377 . S
C253 C251 1.389 1_554 S
C253 C254 1.524 . S
C254 C253 1.524 . S
C254 C255 1.397 1_554 S
C254 C259 1.363 . S
C255 H226 0.950 . S
C255 C254 1.397 1_556 S
C255 C256 1.334 1_556 S
C256 H227 0.950 1_554 S
C256 C255 1.334 1_554 S
C256 C257 1.287 . S
C257 C256 1.287 . S
C257 C258 1.524 . S
C257 H260 0.999 . S
C258 H228 0.950 . S
C258 C257 1.524 . S
C258 C259 1.415 . S
C259 H229 0.950 . S
C259 C254 1.363 . S
C259 C258 1.415 . S
H260 C257 0.999 . S
H261 C242 0.913 . S
H262 C280 0.951 . S
H263 C282 0.951 . S
H264 C284 0.950 . S
H265 C285 0.950 . S
H266 C287 0.950 . S
H267 C290 0.950 . S
H268 C291 0.950 . S
H269 C293 0.950 . S
H270 C294 0.950 . S
H271 C295 0.951 . S
H272 C297 0.951 . S
H273 C299 0.950 . S
H274 C300 0.950 . S
H275 C302 0.950 . S
H276 C305 0.950 . S
H277 C306 0.950 . S
H278 C308 0.950 . S
H279 C309 0.950 . S
C280 H262 0.951 . S
C280 C281 1.364 . S
C280 C282 1.388 . S
C281 C280 1.364 . S
C281 C285 1.383 1_655 S
C282 H263 0.951 . S
C282 C280 1.388 . S
C282 C283 1.366 1_655 S
C283 C282 1.366 1_455 S
C283 C284 1.414 . S
C283 C286 1.499 . S
C284 H264 0.950 . S
C284 C283 1.414 . S
C284 C285 1.374 . S
C285 H265 0.950 . S
C285 C281 1.383 1_455 S
C285 C284 1.374 . S
C286 C283 1.499 . S
C286 C287 1.373 1_465 S
C286 C288 1.414 . S
C287 H266 0.950 . S
C287 C286 1.373 1_645 S
C287 C303 1.355 1_554 S
C288 C286 1.414 . S
C288 C289 1.526 . S
C288 C302 1.355 1_554 S
C289 C288 1.526 . S
C289 C290 1.427 . S
C289 C294 1.327 1_554 S
C290 H267 0.950 . S
C290 C289 1.427 . S
C290 C291 1.334 . S
C291 H268 0.950 . S
C291 C290 1.334 . S
C291 C292 1.287 . S
C292 C291 1.287 . S
C292 C293 1.524 1_554 S
C292 H311 0.913 . S
C293 H269 0.950 . S
C293 C292 1.524 1_556 S
C293 C294 1.415 . S
C294 H270 0.950 . S
C294 C289 1.327 1_556 S
C294 C293 1.415 . S
C295 H271 0.951 . S
C295 C296 1.364 . S
C295 C297 1.388 . S
C296 C295 1.364 . S
C296 C300 1.383 1_455 S
C297 H272 0.951 . S
C297 C295 1.388 . S
C297 C298 1.366 1_455 S
C298 C297 1.366 1_655 S
C298 C299 1.414 . S
C298 C301 1.499 . S
C299 H273 0.950 . S
C299 C298 1.414 . S
C299 C300 1.374 . S
C300 H274 0.950 . S
C300 C296 1.383 1_655 S
C300 C299 1.374 . S
C301 C298 1.499 . S
C301 C302 1.373 1_645 S
C301 C303 1.414 . S
C302 H275 0.950 . S
C302 C288 1.355 1_556 S
C302 C301 1.373 1_465 S
C303 C287 1.355 1_556 S
C303 C301 1.414 . S
C303 C304 1.526 . S
C304 C303 1.526 . S
C304 C305 1.428 . S
C304 C309 1.327 1_556 S
C305 H276 0.950 . S
C305 C304 1.428 . S
C305 C306 1.334 . S
C306 H277 0.950 . S
C306 C305 1.334 . S
C306 C307 1.287 . S
C307 C306 1.287 . S
C307 C308 1.524 1_556 S
C307 H310 0.999 . S
C308 H278 0.950 . S
C308 C307 1.524 1_554 S
C308 C309 1.415 . S
C309 H279 0.950 . S
C309 C304 1.327 1_554 S
C309 C308 1.415 . S
H310 C307 0.999 . S
H311 C292 0.913 . S
H312 C330 0.951 . S
H313 C332 0.951 . S
H314 C334 0.950 . S
H315 C335 0.950 . S
H316 C337 0.950 . S
H317 C340 0.950 . S
H318 C341 0.950 . S
H319 C343 0.950 . S
H320 C344 0.950 . S
H321 C345 0.951 . S
H322 C347 0.951 . S
H323 C349 0.950 . S
H324 C350 0.950 . S
H325 C352 0.950 . S
H326 C355 0.950 . S
H327 C356 0.950 . S
H328 C358 0.950 . S
H329 C359 0.950 . S
C330 H312 0.951 . S
C330 C331 1.366 . S
C330 C332 1.388 . S
C331 C330 1.366 . S
C331 C335 1.385 . S
C332 H313 0.951 . S
C332 C330 1.388 . S
C332 C333 1.366 . S
C333 C332 1.366 . S
C333 C334 1.414 . S
C333 C336 1.499 . S
C334 H314 0.950 . S
C334 C333 1.414 . S
C334 C335 1.374 . S
C335 H315 0.950 . S
C335 C331 1.385 . S
C335 C334 1.374 . S
C336 C333 1.499 . S
C336 C337 1.373 . S
C336 C338 1.389 . S
C337 H316 0.950 . S
C337 C336 1.373 . S
C337 C353 1.377 . S
C338 C336 1.389 . S
C338 C339 1.524 . S
C338 C352 1.377 . S
C339 C338 1.524 . S
C339 C340 1.397 . S
C339 C344 1.363 . S
C340 H317 0.950 . S
C340 C339 1.397 . S
C340 C341 1.334 . S
C341 H318 0.950 . S
C341 C340 1.334 . S
C341 C342 1.287 . S
C342 C341 1.287 . S
C342 C343 1.524 . S
C342 H361 0.913 . S
C343 H319 0.950 . S
C343 C342 1.524 . S
C343 C344 1.415 . S
C344 H320 0.950 . S
C344 C339 1.363 . S
C344 C343 1.415 . S
C345 H321 0.951 . S
C345 C346 1.366 . S
C345 C347 1.388 . S
C346 C345 1.366 . S
C346 C350 1.385 . S
C347 H322 0.951 . S
C347 C345 1.388 . S
C347 C348 1.366 . S
C348 C347 1.366 . S
C348 C349 1.414 . S
C348 C351 1.499 . S
C349 H323 0.950 . S
C349 C348 1.414 . S
C349 C350 1.374 . S
C350 H324 0.950 . S
C350 C346 1.385 . S
C350 C349 1.374 . S
C351 C348 1.499 . S
C351 C352 1.373 . S
C351 C353 1.389 . S
C352 H325 0.950 . S
C352 C338 1.377 . S
C352 C351 1.373 . S
C353 C337 1.377 . S
C353 C351 1.389 . S
C353 C354 1.524 . S
C354 C353 1.524 . S
C354 C355 1.397 . S
C354 C359 1.363 . S
C355 H326 0.950 . S
C355 C354 1.397 . S
C355 C356 1.334 . S
C356 H327 0.950 . S
C356 C355 1.334 . S
C356 C357 1.287 . S
C357 C356 1.287 . S
C357 C358 1.524 . S
C357 H360 0.999 . S
C358 H328 0.950 . S
C358 C357 1.524 . S
C358 C359 1.415 . S
C359 H329 0.950 . S
C359 C354 1.363 . S
C359 C358 1.415 . S
H360 C357 0.999 . S
H361 C342 0.913 . S
H362 C380 0.951 . S
H363 C382 0.951 . S
H364 C384 0.950 . S
H365 C385 0.950 . S
H366 C387 0.950 . S
H367 C390 0.950 . S
H368 C391 0.950 . S
H369 C393 0.950 . S
H370 C394 0.950 . S
H371 C395 0.951 . S
H372 C397 0.951 . S
H373 C399 0.950 . S
H374 C400 0.950 . S
H375 C402 0.950 . S
H376 C405 0.950 . S
H377 C406 0.950 . S
H378 C408 0.950 . S
H379 C409 0.950 . S
C380 H362 0.951 . S
C380 C381 1.366 . S
C380 C382 1.388 . S
C381 C380 1.366 . S
C381 C385 1.385 . S
C382 H363 0.951 . S
C382 C380 1.388 . S
C382 C383 1.366 . S
C383 C382 1.366 . S
C383 C384 1.414 . S
C383 C386 1.499 . S
C384 H364 0.950 . S
C384 C383 1.414 . S
C384 C385 1.374 . S
C385 H365 0.950 . S
C385 C381 1.385 . S
C385 C384 1.374 . S
C386 C383 1.499 . S
C386 C387 1.373 . S
C386 C388 1.389 . S
C387 H366 0.950 . S
C387 C386 1.373 . S
C387 C403 1.377 . S
C388 C386 1.389 . S
C388 C389 1.524 . S
C388 C402 1.377 . S
C389 C388 1.524 . S
C389 C390 1.397 . S
C389 C394 1.363 . S
C390 H367 0.950 . S
C390 C389 1.397 . S
C390 C391 1.334 . S
C391 H368 0.950 . S
C391 C390 1.334 . S
C391 C392 1.287 . S
C392 C391 1.287 . S
C392 C393 1.524 . S
C392 H411 0.913 . S
C393 H369 0.950 . S
C393 C392 1.524 . S
C393 C394 1.415 . S
C394 H370 0.950 . S
C394 C389 1.363 . S
C394 C393 1.415 . S
C395 H371 0.951 . S
C395 C396 1.366 . S
C395 C397 1.388 . S
C396 C395 1.366 . S
C396 C400 1.385 . S
C397 H372 0.951 . S
C397 C395 1.388 . S
C397 C398 1.366 . S
C398 C397 1.366 . S
C398 C399 1.414 . S
C398 C401 1.499 . S
C399 H373 0.950 . S
C399 C398 1.414 . S
C399 C400 1.374 . S
C400 H374 0.950 . S
C400 C396 1.385 . S
C400 C399 1.374 . S
C401 C398 1.499 . S
C401 C402 1.373 . S
C401 C403 1.389 . S
C402 H375 0.950 . S
C402 C388 1.377 . S
C402 C401 1.373 . S
C403 C387 1.377 . S
C403 C401 1.389 . S
C403 C404 1.524 . S
C404 C403 1.524 . S
C404 C405 1.397 . S
C404 C409 1.363 . S
C405 H376 0.950 . S
C405 C404 1.397 . S
C405 C406 1.334 . S
C406 H377 0.950 . S
C406 C405 1.334 . S
C406 C407 1.287 . S
C407 C406 1.287 . S
C407 C408 1.524 . S
C407 H410 0.999 . S
C408 H378 0.950 . S
C408 C407 1.524 . S
C408 C409 1.415 . S
C409 H379 0.950 . S
C409 C404 1.363 . S
C409 C408 1.415 . S
H410 C407 0.999 . S
H411 C392 0.913 . S
H412 C430 0.951 . S
H413 C432 0.951 . S
H414 C434 0.950 . S
H415 C435 0.950 . S
H416 C437 0.950 . S
H417 C440 0.950 . S
H418 C441 0.950 . S
H419 C443 0.950 . S
H420 C444 0.950 . S
H421 C445 0.951 . S
H422 C447 0.951 . S
H423 C449 0.950 . S
H424 C450 0.950 . S
H425 C452 0.950 . S
H426 C455 0.950 . S
H427 C456 0.950 . S
H428 C458 0.950 . S
H429 C459 0.950 . S
C430 H412 0.951 . S
C430 C431 1.366 . S
C430 C432 1.388 . S
C431 C430 1.366 . S
C431 C435 1.385 . S
C432 H413 0.951 . S
C432 C430 1.388 . S
C432 C433 1.366 . S
C433 C432 1.366 . S
C433 C434 1.414 . S
C433 C436 1.499 . S
C434 H414 0.950 . S
C434 C433 1.414 . S
C434 C435 1.374 . S
C435 H415 0.950 . S
C435 C431 1.385 . S
C435 C434 1.374 . S
C436 C433 1.499 . S
C436 C437 1.373 . S
C436 C438 1.389 . S
C437 H416 0.950 . S
C437 C436 1.373 . S
C437 C453 1.377 . S
C438 C436 1.389 . S
C438 C439 1.524 . S
C438 C452 1.377 . S
C439 C438 1.524 . S
C439 C440 1.397 . S
C439 C444 1.363 . S
C440 H417 0.950 . S
C440 C439 1.397 . S
C440 C441 1.334 . S
C441 H418 0.950 . S
C441 C440 1.334 . S
C441 C442 1.287 . S
C442 C441 1.287 . S
C442 C443 1.524 . S
C442 H461 0.913 . S
C443 H419 0.950 . S
C443 C442 1.524 . S
C443 C444 1.415 . S
C444 H420 0.950 . S
C444 C439 1.363 . S
C444 C443 1.415 . S
C445 H421 0.951 . S
C445 C446 1.366 . S
C445 C447 1.388 . S
C446 C445 1.366 . S
C446 C450 1.385 . S
C447 H422 0.951 . S
C447 C445 1.388 . S
C447 C448 1.366 . S
C448 C447 1.366 . S
C448 C449 1.414 . S
C448 C451 1.499 . S
C449 H423 0.950 . S
C449 C448 1.414 . S
C449 C450 1.374 . S
C450 H424 0.950 . S
C450 C446 1.385 . S
C450 C449 1.374 . S
C451 C448 1.499 . S
C451 C452 1.373 . S
C451 C453 1.389 . S
C452 H425 0.950 . S
C452 C438 1.377 . S
C452 C451 1.373 . S
C453 C437 1.377 . S
C453 C451 1.389 . S
C453 C454 1.524 . S
C454 C453 1.524 . S
C454 C455 1.397 . S
C454 C459 1.363 . S
C455 H426 0.950 . S
C455 C454 1.397 . S
C455 C456 1.334 . S
C456 H427 0.950 . S
C456 C455 1.334 . S
C456 C457 1.287 . S
C457 C456 1.287 . S
C457 C458 1.524 . S
C457 H460 0.999 . S
C458 H428 0.950 . S
C458 C457 1.524 . S
C458 C459 1.415 . S
C459 H429 0.950 . S
C459 C454 1.363 . S
C459 C458 1.415 . S
H460 C457 0.999 . S
H461 C442 0.913 . S
H462 C480 0.951 . S
H463 C482 0.951 . S
H464 C484 0.950 . S
H465 C485 0.950 . S
H466 C487 0.950 . S
H467 C490 0.950 . S
H468 C491 0.950 . S
H469 C493 0.950 . S
H470 C494 0.950 . S
H471 C495 0.951 . S
H472 C497 0.951 . S
H473 C499 0.950 . S
H474 C500 0.950 . S
H475 C502 0.950 . S
H476 C505 0.950 . S
H477 C506 0.950 . S
H478 C508 0.950 . S
H479 C509 0.950 . S
C480 H462 0.951 . S
C480 C481 1.366 . S
C480 C482 1.388 . S
C481 C480 1.366 . S
C481 C485 1.385 . S
C482 H463 0.951 . S
C482 C480 1.388 . S
C482 C483 1.366 . S
C483 C482 1.366 . S
C483 C484 1.414 . S
C483 C486 1.499 . S
C484 H464 0.950 . S
C484 C483 1.414 . S
C484 C485 1.374 . S
C485 H465 0.950 . S
C485 C481 1.385 . S
C485 C484 1.374 . S
C486 C483 1.499 . S
C486 C487 1.373 . S
C486 C488 1.389 . S
C487 H466 0.950 . S
C487 C486 1.373 . S
C487 C503 1.377 . S
C488 C486 1.389 . S
C488 C489 1.524 . S
C488 C502 1.377 . S
C489 C488 1.524 . S
C489 C490 1.397 . S
C489 C494 1.363 . S
C490 H467 0.950 . S
C490 C489 1.397 . S
C490 C491 1.334 . S
C491 H468 0.950 . S
C491 C490 1.334 . S
C491 C492 1.287 . S
C492 C491 1.287 . S
C492 C493 1.524 . S
C492 H511 0.913 . S
C493 H469 0.950 . S
C493 C492 1.524 . S
C493 C494 1.415 . S
C494 H470 0.950 . S
C494 C489 1.363 . S
C494 C493 1.415 . S
C495 H471 0.951 . S
C495 C496 1.366 . S
C495 C497 1.388 . S
C496 C495 1.366 . S
C496 C500 1.385 . S
C497 H472 0.951 . S
C497 C495 1.388 . S
C497 C498 1.366 . S
C498 C497 1.366 . S
C498 C499 1.414 . S
C498 C501 1.499 . S
C499 H473 0.950 . S
C499 C498 1.414 . S
C499 C500 1.374 . S
C500 H474 0.950 . S
C500 C496 1.385 . S
C500 C499 1.374 . S
C501 C498 1.499 . S
C501 C502 1.373 . S
C501 C503 1.389 . S
C502 H475 0.950 . S
C502 C488 1.377 . S
C502 C501 1.373 . S
C503 C487 1.377 . S
C503 C501 1.389 . S
C503 C504 1.524 . S
C504 C503 1.524 . S
C504 C505 1.397 . S
C504 C509 1.363 . S
C505 H476 0.950 . S
C505 C504 1.397 . S
C505 C506 1.334 . S
C506 H477 0.950 . S
C506 C505 1.334 . S
C506 C507 1.287 . S
C507 C506 1.287 . S
C507 C508 1.524 . S
C507 H510 0.999 . S
C508 H478 0.950 . S
C508 C507 1.524 . S
C508 C509 1.415 . S
C509 H479 0.950 . S
C509 C504 1.363 . S
C509 C508 1.415 . S
H510 C507 0.999 . S
H511 C492 0.913 . S
H512 C530 0.951 . S
H513 C532 0.951 . S
H514 C534 0.950 . S
H515 C535 0.950 . S
H516 C537 0.950 . S
H517 C540 0.950 . S
H518 C541 0.950 . S
H519 C543 0.950 . S
H520 C544 0.950 . S
H521 C545 0.951 . S
H522 C547 0.951 . S
H523 C549 0.950 . S
H524 C550 0.950 . S
H525 C552 0.950 . S
H526 C555 0.950 . S
H527 C556 0.950 . S
H528 C558 0.950 . S
H529 C559 0.950 . S
C530 H512 0.951 . S
C530 C531 1.366 . S
C530 C532 1.388 . S
C531 C530 1.366 . S
C531 C535 1.385 . S
C532 H513 0.951 . S
C532 C530 1.388 . S
C532 C533 1.366 . S
C533 C532 1.366 . S
C533 C534 1.414 . S
C533 C536 1.499 . S
C534 H514 0.950 . S
C534 C533 1.414 . S
C534 C535 1.374 . S
C535 H515 0.950 . S
C535 C531 1.385 . S
C535 C534 1.374 . S
C536 C533 1.499 . S
C536 C537 1.373 . S
C536 C538 1.389 . S
C537 H516 0.950 . S
C537 C536 1.373 . S
C537 C553 1.377 . S
C538 C536 1.389 . S
C538 C539 1.524 . S
C538 C552 1.377 . S
C539 C538 1.524 . S
C539 C540 1.397 . S
C539 C544 1.363 . S
C540 H517 0.950 . S
C540 C539 1.397 . S
C540 C541 1.334 . S
C541 H518 0.950 . S
C541 C540 1.334 . S
C541 C542 1.287 . S
C542 C541 1.287 . S
C542 C543 1.524 . S
C542 H561 0.913 . S
C543 H519 0.950 . S
C543 C542 1.524 . S
C543 C544 1.415 . S
C544 H520 0.950 . S
C544 C539 1.363 . S
C544 C543 1.415 . S
C545 H521 0.951 . S
C545 C546 1.366 . S
C545 C547 1.388 . S
C546 C545 1.366 . S
C546 C550 1.385 . S
C547 H522 0.951 . S
C547 C545 1.388 . S
C547 C548 1.366 . S
C548 C547 1.366 . S
C548 C549 1.414 . S
C548 C551 1.499 . S
C549 H523 0.950 . S
C549 C548 1.414 . S
C549 C550 1.374 . S
C550 H524 0.950 . S
C550 C546 1.385 . S
C550 C549 1.374 . S
C551 C548 1.499 . S
C551 C552 1.373 . S
C551 C553 1.389 . S
C552 H525 0.950 . S
C552 C538 1.377 . S
C552 C551 1.373 . S
C553 C537 1.377 . S
C553 C551 1.389 . S
C553 C554 1.524 . S
C554 C553 1.524 . S
C554 C555 1.397 . S
C554 C559 1.363 . S
C555 H526 0.950 . S
C555 C554 1.397 . S
C555 C556 1.334 . S
C556 H527 0.950 . S
C556 C555 1.334 . S
C556 C557 1.287 . S
C557 C556 1.287 . S
C557 C558 1.524 . S
C557 H560 0.999 . S
C558 H528 0.950 . S
C558 C557 1.524 . S
C558 C559 1.415 . S
C559 H529 0.950 . S
C559 C554 1.363 . S
C559 C558 1.415 . S
H560 C557 0.999 . S
H561 C542 0.913 . S
H562 C580 0.951 . S
H563 C582 0.951 . S
H564 C584 0.950 . S
H565 C585 0.950 . S
H566 C587 0.950 . S
H567 C590 0.950 . S
H568 C591 0.950 . S
H569 C593 0.950 . S
H570 C594 0.950 . S
H571 C595 0.951 . S
H572 C597 0.951 . S
H573 C599 0.950 . S
H574 C600 0.950 . S
H575 C602 0.950 . S
H576 C605 0.950 . S
H577 C606 0.950 . S
H578 C608 0.950 . S
H579 C609 0.950 . S
C580 H562 0.951 . S
C580 C581 1.366 . S
C580 C582 1.388 . S
C581 C580 1.366 . S
C581 C585 1.385 . S
C582 H563 0.951 . S
C582 C580 1.388 . S
C582 C583 1.366 . S
C583 C582 1.366 . S
C583 C584 1.414 . S
C583 C586 1.499 . S
C584 H564 0.950 . S
C584 C583 1.414 . S
C584 C585 1.374 . S
C585 H565 0.950 . S
C585 C581 1.385 . S
C585 C584 1.374 . S
C586 C583 1.499 . S
C586 C587 1.373 . S
C586 C588 1.389 . S
C587 H566 0.950 . S
C587 C586 1.373 . S
C587 C603 1.377 . S
C588 C586 1.389 . S
C588 C589 1.524 . S
C588 C602 1.377 . S
C589 C588 1.524 . S
C589 C590 1.397 . S
C589 C594 1.363 . S
C590 H567 0.950 . S
C590 C589 1.397 . S
C590 C591 1.334 . S
C591 H568 0.950 . S
C591 C590 1.334 . S
C591 C592 1.287 . S
C592 C591 1.287 . S
C592 C593 1.524 . S
C592 H611 0.913 . S
C593 H569 0.950 . S
C593 C592 1.524 . S
C593 C594 1.415 . S
C594 H570 0.950 . S
C594 C589 1.363 . S
C594 C593 1.415 . S
C595 H571 0.951 . S
C595 C596 1.366 . S
C595 C597 1.388 . S
C596 C595 1.366 . S
C596 C600 1.385 . S
C597 H572 0.951 . S
C597 C595 1.388 . S
C597 C598 1.366 . S
C598 C597 1.366 . S
C598 C599 1.414 . S
C598 C601 1.499 . S
C599 H573 0.950 . S
C599 C598 1.414 . S
C599 C600 1.374 . S
C600 H574 0.950 . S
C600 C596 1.385 . S
C600 C599 1.374 . S
C601 C598 1.499 . S
C601 C602 1.373 . S
C601 C603 1.389 . S
C602 H575 0.950 . S
C602 C588 1.377 . S
C602 C601 1.373 . S
C603 C587 1.377 . S
C603 C601 1.389 . S
C603 C604 1.524 . S
C604 C603 1.524 . S
C604 C605 1.397 . S
C604 C609 1.363 . S
C605 H576 0.950 . S
C605 C604 1.397 . S
C605 C606 1.334 . S
C606 H577 0.950 . S
C606 C605 1.334 . S
C606 C607 1.287 . S
C607 C606 1.287 . S
C607 C608 1.524 . S
C607 H610 0.999 . S
C608 H578 0.950 . S
C608 C607 1.524 . S
C608 C609 1.415 . S
C609 H579 0.950 . S
C609 C604 1.363 . S
C609 C608 1.415 . S
H610 C607 0.999 . S
H611 C592 0.913 . S
H612 C630 0.951 . S
H613 C632 0.951 . S
H614 C634 0.950 . S
H615 C635 0.950 . S
H616 C637 0.950 . S
H617 C640 0.950 . S
H618 C641 0.950 . S
H619 C643 0.950 . S
H620 C644 0.950 . S
H621 C645 0.951 . S
H622 C647 0.951 . S
H623 C649 0.950 . S
H624 C650 0.950 . S
H625 C652 0.950 . S
H626 C655 0.950 . S
H627 C656 0.950 . S
H628 C658 0.950 . S
H629 C659 0.950 . S
C630 H612 0.951 . S
C630 C631 1.366 . S
C630 C632 1.388 . S
C631 C630 1.366 . S
C631 C635 1.385 . S
C632 H613 0.951 . S
C632 C630 1.388 . S
C632 C633 1.366 . S
C633 C632 1.366 . S
C633 C634 1.414 . S
C633 C636 1.499 . S
C634 H614 0.950 . S
C634 C633 1.414 . S
C634 C635 1.374 . S
C635 H615 0.950 . S
C635 C631 1.385 . S
C635 C634 1.374 . S
C636 C633 1.499 . S
C636 C637 1.373 . S
C636 C638 1.389 . S
C637 H616 0.950 . S
C637 C636 1.373 . S
C637 C653 1.377 . S
C638 C636 1.389 . S
C638 C639 1.524 . S
C638 C652 1.377 . S
C639 C638 1.524 . S
C639 C640 1.397 . S
C639 C644 1.363 . S
C640 H617 0.950 . S
C640 C639 1.397 . S
C640 C641 1.334 . S
C641 H618 0.950 . S
C641 C640 1.334 . S
C641 C642 1.287 . S
C642 C641 1.287 . S
C642 C643 1.524 . S
C642 H661 0.913 . S
C643 H619 0.950 . S
C643 C642 1.524 . S
C643 C644 1.415 . S
C644 H620 0.950 . S
C644 C639 1.363 . S
C644 C643 1.415 . S
C645 H621 0.951 . S
C645 C646 1.366 . S
C645 C647 1.388 . S
C646 C645 1.366 . S
C646 C650 1.385 . S
C647 H622 0.951 . S
C647 C645 1.388 . S
C647 C648 1.366 . S
C648 C647 1.366 . S
C648 C649 1.414 . S
C648 C651 1.499 . S
C649 H623 0.950 . S
C649 C648 1.414 . S
C649 C650 1.374 . S
C650 H624 0.950 . S
C650 C646 1.385 . S
C650 C649 1.374 . S
C651 C648 1.499 . S
C651 C652 1.373 . S
C651 C653 1.389 . S
C652 H625 0.950 . S
C652 C638 1.377 . S
C652 C651 1.373 . S
C653 C637 1.377 . S
C653 C651 1.389 . S
C653 C654 1.524 . S
C654 C653 1.524 . S
C654 C655 1.397 . S
C654 C659 1.363 . S
C655 H626 0.950 . S
C655 C654 1.397 . S
C655 C656 1.334 . S
C656 H627 0.950 . S
C656 C655 1.334 . S
C656 C657 1.287 . S
C657 C656 1.287 . S
C657 C658 1.524 . S
C657 H660 0.999 . S
C658 H628 0.950 . S
C658 C657 1.524 . S
C658 C659 1.415 . S
C659 H629 0.950 . S
C659 C654 1.363 . S
C659 C658 1.415 . S
H660 C657 0.999 . S
H661 C642 0.913 . S
H662 C680 0.951 . S
H663 C682 0.951 . S
H664 C684 0.950 . S
H665 C685 0.950 . S
H666 C687 0.950 . S
H667 C690 0.950 . S
H668 C691 0.950 . S
H669 C693 0.950 . S
H670 C694 0.950 . S
H671 C695 0.951 . S
H672 C697 0.951 . S
H673 C699 0.950 . S
H674 C700 0.950 . S
H675 C702 0.950 . S
H676 C705 0.950 . S
H677 C706 0.950 . S
H678 C708 0.950 . S
H679 C709 0.950 . S
C680 H662 0.951 . S
C680 C681 1.366 . S
C680 C682 1.388 . S
C681 C680 1.366 . S
C681 C685 1.385 . S
C682 H663 0.951 . S
C682 C680 1.388 . S
C682 C683 1.366 . S
C683 C682 1.366 . S
C683 C684 1.414 . S
C683 C686 1.499 . S
C684 H664 0.950 . S
C684 C683 1.414 . S
C684 C685 1.374 . S
C685 H665 0.950 . S
C685 C681 1.385 . S
C685 C684 1.374 . S
C686 C683 1.499 . S
C686 C687 1.373 . S
C686 C688 1.389 . S
C687 H666 0.950 . S
C687 C686 1.373 . S
C687 C703 1.377 . S
C688 C686 1.389 . S
C688 C689 1.524 . S
C688 C702 1.377 . S
C689 C688 1.524 . S
C689 C690 1.397 . S
C689 C694 1.363 . S
C690 H667 0.950 . S
C690 C689 1.397 . S
C690 C691 1.334 . S
C691 H668 0.950 . S
C691 C690 1.334 . S
C691 C692 1.287 . S
C692 C691 1.287 . S
C692 C693 1.524 . S
C692 H711 0.913 . S
C693 H669 0.950 . S
C693 C692 1.524 . S
C693 C694 1.415 . S
C694 H670 0.950 . S
C694 C689 1.363 . S
C694 C693 1.415 . S
C695 H671 0.951 . S
C695 C696 1.366 . S
C695 C697 1.388 . S
C696 C695 1.366 . S
C696 C700 1.385 . S
C697 H672 0.951 . S
C697 C695 1.388 . S
C697 C698 1.366 . S
C698 C697 1.366 . S
C698 C699 1.414 . S
C698 C701 1.499 . S
C699 H673 0.950 . S
C699 C698 1.414 . S
C699 C700 1.374 . S
C700 H674 0.950 . S
C700 C696 1.385 . S
C700 C699 1.374 . S
C701 C698 1.499 . S
C701 C702 1.373 . S
C701 C703 1.389 . S
C702 H675 0.950 . S
C702 C688 1.377 . S
C702 C701 1.373 . S
C703 C687 1.377 . S
C703 C701 1.389 . S
C703 C704 1.524 . S
C704 C703 1.524 . S
C704 C705 1.397 . S
C704 C709 1.363 . S
C705 H676 0.950 . S
C705 C704 1.397 . S
C705 C706 1.334 . S
C706 H677 0.950 . S
C706 C705 1.334 . S
C706 C707 1.287 . S
C707 C706 1.287 . S
C707 C708 1.524 . S
C707 H710 0.999 . S
C708 H678 0.950 . S
C708 C707 1.524 . S
C708 C709 1.415 . S
C709 H679 0.950 . S
C709 C704 1.363 . S
C709 C708 1.415 . S
H710 C707 0.999 . S
H711 C692 0.913 . S
H712 C730 0.951 . S
H713 C732 0.951 . S
H714 C734 0.950 . S
H715 C735 0.950 . S
H716 C737 0.950 . S
H717 C740 0.950 . S
H718 C741 0.950 . S
H719 C743 0.950 . S
H720 C744 0.950 . S
H721 C745 0.951 . S
H722 C747 0.951 . S
H723 C749 0.950 . S
H724 C750 0.950 . S
H725 C752 0.950 . S
H726 C755 0.950 . S
H727 C756 0.950 . S
H728 C758 0.950 . S
H729 C759 0.950 . S
C730 H712 0.951 . S
C730 C731 1.366 . S
C730 C732 1.388 . S
C731 C730 1.366 . S
C731 C735 1.385 . S
C732 H713 0.951 . S
C732 C730 1.388 . S
C732 C733 1.366 . S
C733 C732 1.366 . S
C733 C734 1.414 . S
C733 C736 1.499 . S
C734 H714 0.950 . S
C734 C733 1.414 . S
C734 C735 1.374 . S
C735 H715 0.950 . S
C735 C731 1.385 . S
C735 C734 1.374 . S
C736 C733 1.499 . S
C736 C737 1.373 . S
C736 C738 1.389 . S
C737 H716 0.950 . S
C737 C736 1.373 . S
C737 C753 1.377 . S
C738 C736 1.389 . S
C738 C739 1.524 . S
C738 C752 1.377 . S
C739 C738 1.524 . S
C739 C740 1.397 . S
C739 C744 1.363 . S
C740 H717 0.950 . S
C740 C739 1.397 . S
C740 C741 1.334 . S
C741 H718 0.950 . S
C741 C740 1.334 . S
C741 C742 1.287 . S
C742 C741 1.287 . S
C742 C743 1.524 . S
C742 H761 0.913 . S
C743 H719 0.950 . S
C743 C742 1.524 . S
C743 C744 1.415 . S
C744 H720 0.950 . S
C744 C739 1.363 . S
C744 C743 1.415 . S
C745 H721 0.951 . S
C745 C746 1.366 . S
C745 C747 1.388 . S
C746 C745 1.366 . S
C746 C750 1.385 . S
C747 H722 0.951 . S
C747 C745 1.388 . S
C747 C748 1.366 . S
C748 C747 1.366 . S
C748 C749 1.414 . S
C748 C751 1.499 . S
C749 H723 0.950 . S
C749 C748 1.414 . S
C749 C750 1.374 . S
C750 H724 0.950 . S
C750 C746 1.385 . S
C750 C749 1.374 . S
C751 C748 1.499 . S
C751 C752 1.373 . S
C751 C753 1.389 . S
C752 H725 0.950 . S
C752 C738 1.377 . S
C752 C751 1.373 . S
C753 C737 1.377 . S
C753 C751 1.389 . S
C753 C754 1.524 . S
C754 C753 1.524 . S
C754 C755 1.397 . S
C754 C759 1.363 . S
C755 H726 0.950 . S
C755 C754 1.397 . S
C755 C756 1.334 . S
C756 H727 0.950 . S
C756 C755 1.334 . S
C756 C757 1.287 . S
C757 C756 1.287 . S
C757 C758 1.524 . S
C757 H760 0.999 . S
C758 H728 0.950 . S
C758 C757 1.524 . S
C758 C759 1.415 . S
C759 H729 0.950 . S
C759 C754 1.363 . S
C759 C758 1.415 . S
H760 C757 0.999 . S
H761 C742 0.913 . S
H762 C780 0.951 . S
H763 C782 0.951 . S
H764 C784 0.950 . S
H765 C785 0.950 . S
H766 C787 0.950 . S
H767 C790 0.950 . S
H768 C791 0.950 . S
H769 C793 0.950 . S
H770 C794 0.950 . S
H771 C795 0.951 . S
H772 C797 0.951 . S
H773 C799 0.950 . S
H774 C800 0.950 . S
H775 C802 0.950 . S
H776 C805 0.950 . S
H777 C806 0.950 . S
H778 C808 0.950 . S
H779 C809 0.950 . S
C780 H762 0.951 . S
C780 C781 1.366 . S
C780 C782 1.388 . S
C781 C780 1.366 . S
C781 C785 1.385 . S
C782 H763 0.951 . S
C782 C780 1.388 . S
C782 C783 1.366 . S
C783 C782 1.366 . S
C783 C784 1.414 . S
C783 C786 1.499 . S
C784 H764 0.950 . S
C784 C783 1.414 . S
C784 C785 1.374 . S
C785 H765 0.950 . S
C785 C781 1.385 . S
C785 C784 1.374 . S
C786 C783 1.499 . S
C786 C787 1.373 . S
C786 C788 1.389 . S
C787 H766 0.950 . S
C787 C786 1.373 . S
C787 C803 1.377 . S
C788 C786 1.389 . S
C788 C789 1.524 . S
C788 C802 1.377 . S
C789 C788 1.524 . S
C789 C790 1.397 . S
C789 C794 1.363 . S
C790 H767 0.950 . S
C790 C789 1.397 . S
C790 C791 1.334 . S
C791 H768 0.950 . S
C791 C790 1.334 . S
C791 C792 1.287 . S
C792 C791 1.287 . S
C792 C793 1.524 . S
C792 H811 0.913 . S
C793 H769 0.950 . S
C793 C792 1.524 . S
C793 C794 1.415 . S
C794 H770 0.950 . S
C794 C789 1.363 . S
C794 C793 1.415 . S
C795 H771 0.951 . S
C795 C796 1.366 . S
C795 C797 1.388 . S
C796 C795 1.366 . S
C796 C800 1.385 . S
C797 H772 0.951 . S
C797 C795 1.388 . S
C797 C798 1.366 . S
C798 C797 1.366 . S
C798 C799 1.414 . S
C798 C801 1.499 . S
C799 H773 0.950 . S
C799 C798 1.414 . S
C799 C800 1.374 . S
C800 H774 0.950 . S
C800 C796 1.385 . S
C800 C799 1.374 . S
C801 C798 1.499 . S
C801 C802 1.373 . S
C801 C803 1.389 . S
C802 H775 0.950 . S
C802 C788 1.377 . S
C802 C801 1.373 . S
C803 C787 1.377 . S
C803 C801 1.389 . S
C803 C804 1.524 . S
C804 C803 1.524 . S
C804 C805 1.397 . S
C804 C809 1.363 . S
C805 H776 0.950 . S
C805 C804 1.397 . S
C805 C806 1.334 . S
C806 H777 0.950 . S
C806 C805 1.334 . S
C806 C807 1.287 . S
C807 C806 1.287 . S
C807 C808 1.524 . S
C807 H810 0.999 . S
C808 H778 0.950 . S
C808 C807 1.524 . S
C808 C809 1.415 . S
C809 H779 0.950 . S
C809 C804 1.363 . S
C809 C808 1.415 . S
H810 C807 0.999 . S
H811 C792 0.913 . S
H812 C830 0.951 . S
H813 C832 0.951 . S
H814 C834 0.950 . S
H815 C835 0.950 . S
H816 C837 0.950 . S
H817 C840 0.950 . S
H818 C841 0.950 . S
H819 C843 0.950 . S
H820 C844 0.950 . S
H821 C845 0.951 . S
H822 C847 0.951 . S
H823 C849 0.950 . S
H824 C850 0.950 . S
H825 C852 0.950 . S
H826 C855 0.950 . S
H827 C856 0.950 . S
H828 C858 0.950 . S
H829 C859 0.950 . S
C830 H812 0.951 . S
C830 C831 1.366 . S
C830 C832 1.388 . S
C831 C830 1.366 . S
C831 C835 1.385 . S
C832 H813 0.951 . S
C832 C830 1.388 . S
C832 C833 1.366 . S
C833 C832 1.366 . S
C833 C834 1.414 . S
C833 C836 1.499 . S
C834 H814 0.950 . S
C834 C833 1.414 . S
C834 C835 1.374 . S
C835 H815 0.950 . S
C835 C831 1.385 . S
C835 C834 1.374 . S
C836 C833 1.499 . S
C836 C837 1.373 . S
C836 C838 1.389 . S
C837 H816 0.950 . S
C837 C836 1.373 . S
C837 C853 1.377 1_554 S
C838 C836 1.389 . S
C838 C839 1.524 . S
C838 C852 1.377 1_554 S
C839 C838 1.524 . S
C839 C840 1.397 . S
C839 C844 1.363 . S
C840 H817 0.950 . S
C840 C839 1.397 . S
C840 C841 1.334 . S
C841 H818 0.950 . S
C841 C840 1.334 . S
C841 C842 1.287 . S
C842 C841 1.287 . S
C842 C843 1.524 . S
C842 H861 0.913 . S
C843 H819 0.950 . S
C843 C842 1.524 . S
C843 C844 1.415 . S
C844 H820 0.950 . S
C844 C839 1.363 . S
C844 C843 1.415 . S
C845 H821 0.951 . S
C845 C846 1.366 . S
C845 C847 1.388 . S
C846 C845 1.366 . S
C846 C850 1.385 . S
C847 H822 0.951 . S
C847 C845 1.388 . S
C847 C848 1.366 . S
C848 C847 1.366 . S
C848 C849 1.414 . S
C848 C851 1.499 . S
C849 H823 0.950 . S
C849 C848 1.414 . S
C849 C850 1.374 . S
C850 H824 0.950 . S
C850 C846 1.385 . S
C850 C849 1.374 . S
C851 C848 1.499 . S
C851 C852 1.373 . S
C851 C853 1.389 . S
C852 H825 0.950 . S
C852 C838 1.377 1_556 S
C852 C851 1.373 . S
C853 C837 1.377 1_556 S
C853 C851 1.389 . S
C853 C854 1.524 . S
C854 C853 1.524 . S
C854 C855 1.397 . S
C854 C859 1.363 . S
C855 H826 0.950 . S
C855 C854 1.397 . S
C855 C856 1.334 . S
C856 H827 0.950 . S
C856 C855 1.334 . S
C856 C857 1.287 . S
C857 C856 1.287 . S
C857 C858 1.524 . S
C857 H860 0.999 . S
C858 H828 0.950 . S
C858 C857 1.524 . S
C858 C859 1.415 . S
C859 H829 0.950 . S
C859 C854 1.363 . S
C859 C858 1.415 . S
H860 C857 0.999 . S
H861 C842 0.913 . S
H862 C880 0.951 . S
H863 C882 0.951 . S
H864 C884 0.950 . S
H865 C885 0.950 . S
H866 C887 0.950 . S
H867 C890 0.950 . S
H868 C891 0.950 . S
H869 C893 0.950 . S
H870 C894 0.950 . S
H871 C895 0.951 . S
H872 C897 0.951 . S
H873 C899 0.950 . S
H874 C900 0.950 . S
H875 C902 0.950 . S
H876 C905 0.950 . S
H877 C906 0.950 . S
H878 C908 0.950 . S
H879 C909 0.950 . S
C880 H862 0.951 . S
C880 C881 1.366 . S
C880 C882 1.388 . S
C881 C880 1.366 . S
C881 C885 1.385 . S
C882 H863 0.951 . S
C882 C880 1.388 . S
C882 C883 1.366 . S
C883 C882 1.366 . S
C883 C884 1.414 . S
C883 C886 1.499 . S
C884 H864 0.950 . S
C884 C883 1.414 . S
C884 C885 1.374 . S
C885 H865 0.950 . S
C885 C881 1.385 . S
C885 C884 1.374 . S
C886 C883 1.499 . S
C886 C887 1.373 . S
C886 C888 1.389 . S
C887 H866 0.950 . S
C887 C886 1.373 . S
C887 C903 1.377 1_554 S
C888 C886 1.389 . S
C888 C889 1.524 . S
C888 C902 1.377 1_554 S
C889 C888 1.524 . S
C889 C890 1.397 . S
C889 C894 1.363 . S
C890 H867 0.950 . S
C890 C889 1.397 . S
C890 C891 1.334 . S
C891 H868 0.950 . S
C891 C890 1.334 . S
C891 C892 1.287 . S
C892 C891 1.287 . S
C892 C893 1.524 . S
C892 H911 0.913 . S
C893 H869 0.950 . S
C893 C892 1.524 . S
C893 C894 1.415 . S
C894 H870 0.950 . S
C894 C889 1.363 . S
C894 C893 1.415 . S
C895 H871 0.951 . S
C895 C896 1.366 . S
C895 C897 1.388 . S
C896 C895 1.366 . S
C896 C900 1.385 . S
C897 H872 0.951 . S
C897 C895 1.388 . S
C897 C898 1.366 . S
C898 C897 1.366 . S
C898 C899 1.414 . S
C898 C901 1.499 . S
C899 H873 0.950 . S
C899 C898 1.414 . S
C899 C900 1.374 . S
C900 H874 0.950 . S
C900 C896 1.385 . S
C900 C899 1.374 . S
C901 C898 1.499 . S
C901 C902 1.373 . S
C901 C903 1.389 . S
C902 H875 0.950 . S
C902 C888 1.377 1_556 S
C902 C901 1.373 . S
C903 C887 1.377 1_556 S
C903 C901 1.389 . S
C903 C904 1.524 . S
C904 C903 1.524 . S
C904 C905 1.397 . S
C904 C909 1.363 . S
C905 H876 0.950 . S
C905 C904 1.397 . S
C905 C906 1.334 . S
C906 H877 0.950 . S
C906 C905 1.334 . S
C906 C907 1.287 . S
C907 C906 1.287 . S
C907 C908 1.524 . S
C907 H910 0.999 . S
C908 H878 0.950 . S
C908 C907 1.524 . S
C908 C909 1.415 . S
C909 H879 0.950 . S
C909 C904 1.363 . S
C909 C908 1.415 . S
H910 C907 0.999 . S
H911 C892 0.913 . S
C131 C13 1.799 . S
C146 C29 1.801 . S
C181 C54 1.793 . S
C196 C15 1.793 . S
C231 C84 1.793 . S
C246 C57 1.793 . S
C281 C71 1.798 . S
C296 C110 1.798 . S
C331 C96 2.077 . S
C346 C1 2.077 . S
C381 C27 2.077 . S
C396 C98 2.077 . S
C431 C41 2.078 . S
C446 C69 2.077 . S
C481 C42 2.077 . S
C496 C83 2.077 . S
C531 C85 2.190 . S
C546 C12 2.190 . S
C581 C14 2.190 . S
C596 C111 2.190 . S
C631 C56 2.191 . S
C646 C28 2.188 . S
C681 C70 2.190 . S
C696 C55 2.190 . S
C731 C26 0.346 . S
C746 C0 0.346 . S
C781 C40 0.345 . S
C796 C43 0.345 . S
C831 C82 0.345 . S
C846 C68 0.345 . S
C881 C97 0.345 . S
C896 C99 0.345 . S
