# Generated by pormake.
# Topology ecn, (8)-cn, num edge types: 1
# Building blocks:
#     Node 0, Type 0, BuildingBlock: EBIMEJ_clean_sbu_0, # of connection points: 8
#     Node 1, Type 0, BuildingBlock: EBIMEJ_clean_sbu_0, # of connection points: 8
#     Node 2, Type 0, BuildingBlock: EBIMEJ_clean_sbu_0, # of connection points: 8
#     Node 3, Type 0, BuildingBlock: EBIMEJ_clean_sbu_0, # of connection points: 8
#     Node 4, Type 0, BuildingBlock: EBIMEJ_clean_sbu_0, # of connection points: 8
#     Node 5, Type 0, BuildingBlock: EBIMEJ_clean_sbu_0, # of connection points: 8
#     Node 6, Type 0, BuildingBlock: EBIMEJ_clean_sbu_0, # of connection points: 8
#     Node 7, Type 0, BuildingBlock: EBIMEJ_clean_sbu_0, # of connection points: 8
#     Node 8, Type 0, BuildingBlock: EBIMEJ_clean_sbu_0, # of connection points: 8
#     Edge 9, Type (0, 0), BuildingBlock: XUDNAN_clean_linker_2, # of connection points: 2
#     Edge 10, Type (0, 0), BuildingBlock: XUDNAN_clean_linker_2, # of connection points: 2
#     Edge 11, Type (0, 0), BuildingBlock: XUDNAN_clean_linker_2, # of connection points: 2
#     Edge 12, Type (0, 0), BuildingBlock: XUDNAN_clean_linker_2, # of connection points: 2
#     Edge 13, Type (0, 0), BuildingBlock: XUDNAN_clean_linker_2, # of connection points: 2
#     Edge 14, Type (0, 0), BuildingBlock: XUDNAN_clean_linker_2, # of connection points: 2
#     Edge 15, Type (0, 0), BuildingBlock: XUDNAN_clean_linker_2, # of connection points: 2
#     Edge 16, Type (0, 0), BuildingBlock: XUDNAN_clean_linker_2, # of connection points: 2
#     Edge 17, Type (0, 0), BuildingBlock: XUDNAN_clean_linker_2, # of connection points: 2
#     Edge 18, Type (0, 0), BuildingBlock: XUDNAN_clean_linker_2, # of connection points: 2
#     Edge 19, Type (0, 0), BuildingBlock: XUDNAN_clean_linker_2, # of connection points: 2
#     Edge 20, Type (0, 0), BuildingBlock: XUDNAN_clean_linker_2, # of connection points: 2
#     Edge 21, Type (0, 0), BuildingBlock: XUDNAN_clean_linker_2, # of connection points: 2
#     Edge 22, Type (0, 0), BuildingBlock: XUDNAN_clean_linker_2, # of connection points: 2
#     Edge 23, Type (0, 0), BuildingBlock: XUDNAN_clean_linker_2, # of connection points: 2
#     Edge 24, Type (0, 0), BuildingBlock: XUDNAN_clean_linker_2, # of connection points: 2
#     Edge 25, Type (0, 0), BuildingBlock: XUDNAN_clean_linker_2, # of connection points: 2
#     Edge 26, Type (0, 0), BuildingBlock: XUDNAN_clean_linker_2, # of connection points: 2
#     Edge 27, Type (0, 0), BuildingBlock: XUDNAN_clean_linker_2, # of connection points: 2
#     Edge 28, Type (0, 0), BuildingBlock: XUDNAN_clean_linker_2, # of connection points: 2
#     Edge 29, Type (0, 0), BuildingBlock: XUDNAN_clean_linker_2, # of connection points: 2
#     Edge 30, Type (0, 0), BuildingBlock: XUDNAN_clean_linker_2, # of connection points: 2
#     Edge 31, Type (0, 0), BuildingBlock: XUDNAN_clean_linker_2, # of connection points: 2
#     Edge 32, Type (0, 0), BuildingBlock: XUDNAN_clean_linker_2, # of connection points: 2
#     Edge 33, Type (0, 0), BuildingBlock: XUDNAN_clean_linker_2, # of connection points: 2
#     Edge 34, Type (0, 0), BuildingBlock: XUDNAN_clean_linker_2, # of connection points: 2
#     Edge 35, Type (0, 0), BuildingBlock: XUDNAN_clean_linker_2, # of connection points: 2
#     Edge 36, Type (0, 0), BuildingBlock: XUDNAN_clean_linker_2, # of connection points: 2
#     Edge 37, Type (0, 0), BuildingBlock: XUDNAN_clean_linker_2, # of connection points: 2
#     Edge 38, Type (0, 0), BuildingBlock: XUDNAN_clean_linker_2, # of connection points: 2
#     Edge 39, Type (0, 0), BuildingBlock: XUDNAN_clean_linker_2, # of connection points: 2
#     Edge 40, Type (0, 0), BuildingBlock: XUDNAN_clean_linker_2, # of connection points: 2
#     Edge 41, Type (0, 0), BuildingBlock: XUDNAN_clean_linker_2, # of connection points: 2
#     Edge 42, Type (0, 0), BuildingBlock: XUDNAN_clean_linker_2, # of connection points: 2
#     Edge 43, Type (0, 0), BuildingBlock: XUDNAN_clean_linker_2, # of connection points: 2
#     Edge 44, Type (0, 0), BuildingBlock: XUDNAN_clean_linker_2, # of connection points: 2
# Relax obj value: 0.176
# Max RMSD: 0.239
# Mean RMSD: 0.239
data_MOF--net-ecn--node1-EBIMEJ_clean_sbu_0--edge1-XUDNAN_clean_linker_2
_symmetry_space_group_name_H-M    P1
_symmetry_Int_Tables_number       1
_symmetry_cell_setting            triclinic
loop_
_symmetry_equiv_pos_as_xyz
'x, y, z'
_cell_length_a     53.203039
_cell_length_b     53.254924
_cell_length_c     15.601482
_cell_angle_alpha  89.985199
_cell_angle_beta   89.941133
_cell_angle_gamma 119.7293
loop_
_atom_site_label
_atom_site_type_symbol
_atom_site_fract_x
_atom_site_fract_y
_atom_site_fract_z
_atom_type_partial_charge
Co0 Co 0.19056 0.30403 0.93753 0.0
Co1 Co 0.15594 0.23872 0.02536 0.0
Co2 Co 0.12306 0.26989 0.98526 0.0
H3 H 0.15726 0.28317 0.98132 0.0
O4 O 0.16319 0.27887 0.02752 0.0
H5 H 0.12225 0.22509 0.01899 0.0
O6 O 0.11698 0.23047 0.97397 0.0
Co7 Co 0.08802 0.20236 0.05266 0.0
O8 O 0.10362 0.17586 0.08545 0.0
O9 O 0.14753 0.19755 0.02503 0.0
O10 O 0.06239 0.22026 0.06625 0.0
O11 O 0.08091 0.25725 0.97271 0.0
O12 O 0.22647 0.32594 0.85978 0.0
O13 O 0.22489 0.34243 0.97898 0.0
O14 O 0.1016 0.22892 0.15224 0.0
O15 O 0.14656 0.23632 0.15165 0.0
C16 C 0.15079 0.33057 0.93463 0.0
C17 C 0.21951 0.27235 0.02966 0.0
C18 C 0.04488 0.15498 0.02152 0.0
C19 C 0.14638 0.27232 0.80683 0.0
C20 C 0.12653 0.17576 0.06183 0.0
C21 C 0.0608 0.23994 0.02381 0.0
C22 C 0.23959 0.34624 0.91216 0.0
C23 C 0.12503 0.23557 0.19046 0.0
O24 O 0.17278 0.32942 0.90597 0.0
O25 O 0.13175 0.31086 0.98299 0.0
O26 O 0.19625 0.25088 0.05783 0.0
O27 O 0.21967 0.29213 0.98246 0.0
O28 O 0.06218 0.15928 0.08166 0.0
O29 O 0.05219 0.17752 0.97865 0.0
O30 O 0.17247 0.28216 0.82982 0.0
O31 O 0.12669 0.27028 0.85776 0.0
Co32 Co 0.74555 0.89403 0.9463 0.0
Co33 Co 0.81026 0.92485 0.02655 0.0
Co34 Co 0.78182 0.86176 0.9863 0.0
H35 H 0.76695 0.88154 0.98719 0.0
O36 O 0.77114 0.89117 0.03447 0.0
H37 H 0.82563 0.90596 0.02501 0.0
O38 O 0.82088 0.89541 0.97992 0.0
Co39 Co 0.85027 0.89681 0.06043 0.0
O40 O 0.87855 0.94056 0.04949 0.0
O41 O 0.84939 0.958 0.01354 0.0
O42 O 0.83145 0.85279 0.07136 0.0
O43 O 0.79668 0.83417 0.97019 0.0
O44 O 0.71877 0.90061 0.86373 0.0
O45 O 0.70952 0.89467 0.99331 0.0
O46 O 0.83169 0.89136 0.17587 0.0
O47 O 0.81559 0.92228 0.1531 0.0
C48 C 0.72199 0.82876 0.92999 0.0
C49 C 0.77562 0.95455 0.03039 0.0
C50 C 0.89807 0.89989 0.03829 0.0
C51 C 0.78515 0.89119 0.82229 0.0
C52 C 0.87443 0.96126 0.02613 0.0
C53 C 0.81336 0.83161 0.02498 0.0
C54 C 0.70181 0.89935 0.92172 0.0
C55 C 0.82143 0.90687 0.2031 0.0
O56 O 0.72276 0.85199 0.90444 0.0
O57 O 0.74126 0.82897 0.97962 0.0
O58 O 0.79705 0.95241 0.05723 0.0
O59 O 0.75557 0.93503 0.98446 0.0
O60 O 0.89275 0.91245 0.09781 0.0
O61 O 0.87628 0.88563 0.99175 0.0
O62 O 0.77741 0.90745 0.85955 0.0
O63 O 0.78202 0.86823 0.85837 0.0
Co64 Co 0.15165 0.85823 0.9515 0.0
Co65 Co 0.12722 0.89648 0.0299 0.0
Co66 Co 0.19096 0.92624 0.99208 0.0
H67 H 0.16839 0.89223 0.99374 0.0
O68 O 0.15865 0.88745 0.04084 0.0
H69 H 0.14843 0.92999 0.03243 0.0
O70 O 0.15962 0.9359 0.98848 0.0
Co71 Co 0.15918 0.96308 0.07475 0.0
O72 O 0.11658 0.95219 0.05247 0.0
O73 O 0.09627 0.90583 0.01387 0.0
O74 O 0.20319 0.98744 0.06714 0.0
O75 O 0.22123 0.96769 0.97406 0.0
O76 O 0.1321 0.8286 0.85494 0.0
O77 O 0.15766 0.82273 0.9441 0.0
O78 O 0.16519 0.94649 0.18309 0.0
O79 O 0.12841 0.90261 0.15712 0.0
C80 C 0.21847 0.89141 0.94652 0.0
C81 C 0.09238 0.83177 0.03487 0.0
C82 C 0.15565 1.00736 0.10257 0.0
C83 C 0.15858 0.90203 0.83301 0.0
C84 C 0.09492 0.92865 0.0265 0.0
C85 C 0.22386 0.9885 0.02217 0.0
C86 C 0.14216 0.81282 0.87835 0.0
C87 C 0.14665 0.92143 0.20859 0.0
O88 O 0.19356 0.8699 0.92969 0.0
O89 O 0.22157 0.91443 0.98283 0.0
O90 O 0.09642 0.85663 0.05466 0.0
O91 O 0.11133 0.82805 0.99556 0.0
O92 O 0.14296 0.9844 0.14546 0.0
O93 O 0.17044 1.00522 0.04321 0.0
O94 O 0.13983 0.88155 0.87848 0.0
O95 O 0.1834 0.91951 0.86459 0.0
Co96 Co 0.85577 0.63445 0.27402 0.0
Co97 Co 0.81933 0.56894 0.35367 0.0
Co98 Co 0.78746 0.6007 0.31552 0.0
H99 H 0.82183 0.614 0.31574 0.0
O100 O 0.82715 0.60912 0.3619 0.0
H101 H 0.78543 0.55609 0.35582 0.0
O102 O 0.77968 0.56073 0.31025 0.0
Co103 Co 0.75211 0.53493 0.39848 0.0
O104 O 0.76219 0.50453 0.35636 0.0
O105 O 0.81048 0.52818 0.34592 0.0
O106 O 0.73012 0.5572 0.40931 0.0
O107 O 0.74573 0.58803 0.29768 0.0
O108 O 0.90054 0.65932 0.27129 0.0
O109 O 0.87543 0.6708 0.19767 0.0
O110 O 0.76888 0.55836 0.50521 0.0
O111 O 0.81328 0.56589 0.48072 0.0
C112 C 0.81702 0.6625 0.27056 0.0
C113 C 0.88368 0.60048 0.35016 0.0
C114 C 0.70883 0.48672 0.42909 0.0
C115 C 0.81372 0.59739 0.15361 0.0
C116 C 0.78612 0.50491 0.34447 0.0
C117 C 0.72711 0.57389 0.35643 0.0
C118 C 0.9007 0.67697 0.2177 0.0
C119 C 0.79431 0.56596 0.53067 0.0
O120 O 0.84002 0.66216 0.24762 0.0
O121 O 0.79662 0.64169 0.31238 0.0
O122 O 0.85979 0.57984 0.37758 0.0
O123 O 0.8857 0.6221 0.30799 0.0
O124 O 0.73216 0.49757 0.47029 0.0
O125 O 0.71 0.50333 0.37012 0.0
O126 O 0.83477 0.59988 0.19798 0.0
O127 O 0.79446 0.60181 0.18795 0.0
Co128 Co 0.41877 0.23259 0.25635 0.0
Co129 Co 0.47983 0.25711 0.35486 0.0
Co130 Co 0.44608 0.19318 0.31312 0.0
H131 H 0.43542 0.21631 0.30543 0.0
O132 O 0.43911 0.22609 0.35222 0.0
H133 H 0.4921 0.23571 0.35181 0.0
O134 O 0.48699 0.22492 0.30707 0.0
Co135 Co 0.51285 0.22278 0.39427 0.0
O136 O 0.54182 0.26524 0.41818 0.0
O137 O 0.52125 0.28839 0.35738 0.0
O138 O 0.49502 0.17925 0.39276 0.0
O139 O 0.45639 0.16162 0.30464 0.0
O140 O 0.41053 0.26035 0.18506 0.0
O141 O 0.37657 0.22358 0.23936 0.0
O142 O 0.47728 0.20644 0.46683 0.0
O143 O 0.47957 0.2486 0.48082 0.0
C144 C 0.38548 0.16574 0.25755 0.0
C145 C 0.44687 0.28833 0.36664 0.0
C146 C 0.56041 0.22579 0.42374 0.0
C147 C 0.44885 0.21555 0.13375 0.0
C148 C 0.5428 0.28849 0.39324 0.0
C149 C 0.47452 0.15846 0.35158 0.0
C150 C 0.38354 0.2456 0.19421 0.0
C151 C 0.47281 0.22376 0.51091 0.0
O152 O 0.39015 0.19049 0.23174 0.0
O153 O 0.40374 0.16293 0.30482 0.0
O154 O 0.46929 0.28674 0.38649 0.0
O155 O 0.42647 0.26931 0.32048 0.0
O156 O 0.5483 0.23552 0.47178 0.0
O157 O 0.54572 0.21466 0.35736 0.0
O158 O 0.44414 0.2357 0.15699 0.0
O159 O 0.44656 0.19599 0.18547 0.0
Co160 Co 0.82321 0.19414 0.27584 0.0
Co161 Co 0.793 0.22752 0.36941 0.0
Co162 Co 0.85646 0.26145 0.32924 0.0
H163 H 0.83608 0.22714 0.32256 0.0
O164 O 0.82622 0.22084 0.36916 0.0
H165 H 0.81169 0.261 0.36004 0.0
O166 O 0.82245 0.26649 0.31517 0.0
Co167 Co 0.82105 0.29466 0.39342 0.0
O168 O 0.77988 0.27755 0.43768 0.0
O169 O 0.75953 0.23483 0.3716 0.0
O170 O 0.86396 0.32194 0.40499 0.0
O171 O 0.88531 0.30413 0.31846 0.0
O172 O 0.79779 0.1611 0.19288 0.0
O173 O 0.82986 0.15913 0.26296 0.0
O174 O 0.83838 0.28276 0.48689 0.0
O175 O 0.80196 0.2377 0.49479 0.0
C176 C 0.89012 0.23375 0.28806 0.0
C177 C 0.76568 0.16426 0.38312 0.0
C178 C 0.81111 0.33434 0.35584 0.0
C179 C 0.83853 0.23953 0.14786 0.0
C180 C 0.75754 0.25444 0.41304 0.0
C181 C 0.88603 0.32443 0.36486 0.0
C182 C 0.81015 0.14671 0.20824 0.0
C183 C 0.82419 0.25927 0.52771 0.0
O184 O 0.86737 0.21145 0.25915 0.0
O185 O 0.88887 0.25327 0.33274 0.0
O186 O 0.7663 0.18758 0.40526 0.0
O187 O 0.78538 0.16393 0.33629 0.0
O188 O 0.83036 0.33696 0.40731 0.0
O189 O 0.79757 0.30925 0.32553 0.0
O190 O 0.82015 0.21399 0.1704 0.0
O191 O 0.85605 0.25817 0.2011 0.0
Co192 Co 0.52604 0.97364 0.62794 0.0
Co193 Co 0.49365 0.9105 0.71957 0.0
Co194 Co 0.45789 0.93763 0.67591 0.0
H195 H 0.49257 0.95278 0.6715 0.0
O196 O 0.49842 0.94945 0.71934 0.0
H197 H 0.45992 0.89392 0.70652 0.0
O198 O 0.4549 0.89946 0.6613 0.0
Co199 Co 0.42596 0.86753 0.73267 0.0
O200 O 0.44281 0.84078 0.7488 0.0
O201 O 0.48938 0.87145 0.72002 0.0
O202 O 0.39863 0.88335 0.74999 0.0
O203 O 0.41504 0.92218 0.66309 0.0
O204 O 0.56088 0.97987 0.55402 0.0
O205 O 0.56036 1.01505 0.60902 0.0
O206 O 0.43433 0.89163 0.83783 0.0
O207 O 0.48164 0.90752 0.84332 0.0
C208 C 0.48375 0.99848 0.63359 0.0
C209 C 0.55586 0.94891 0.74752 0.0
C210 C 0.3842 0.81962 0.69351 0.0
C211 C 0.48159 0.94442 0.49469 0.0
C212 C 0.46876 0.84625 0.73746 0.0
C213 C 0.39537 0.90262 0.71079 0.0
C214 C 0.57422 1.00689 0.56234 0.0
C215 C 0.45817 0.90353 0.87787 0.0
O216 O 0.50687 0.99879 0.60751 0.0
O217 O 0.46429 0.97759 0.67794 0.0
O218 O 0.53298 0.92507 0.76175 0.0
O219 O 0.55654 0.96904 0.7005 0.0
O220 O 0.4002 0.82385 0.75728 0.0
O221 O 0.39224 0.84244 0.65138 0.0
O222 O 0.50772 0.95377 0.51686 0.0
O223 O 0.4619 0.94058 0.54837 0.0
Co224 Co 0.0843 0.56608 0.59128 0.0
Co225 Co 0.14643 0.59351 0.67801 0.0
Co226 Co 0.11552 0.52962 0.63937 0.0
H227 H 0.10267 0.55108 0.63756 0.0
O228 O 0.10664 0.56085 0.68457 0.0
H229 H 0.16026 0.57338 0.6795 0.0
O230 O 0.1556 0.56243 0.6352 0.0
Co231 Co 0.18319 0.563 0.72104 0.0
O232 O 0.21348 0.60583 0.70065 0.0
O233 O 0.1864 0.62575 0.66616 0.0
O234 O 0.16242 0.51905 0.73127 0.0
O235 O 0.12879 0.50048 0.62713 0.0
O236 O 0.05903 0.58562 0.58277 0.0
O237 O 0.05151 0.55183 0.50168 0.0
O238 O 0.16053 0.55596 0.82936 0.0
O239 O 0.15078 0.59136 0.80533 0.0
C240 C 0.05329 0.49945 0.59338 0.0
C241 C 0.11313 0.62498 0.67958 0.0
C242 C 0.23017 0.56402 0.73881 0.0
C243 C 0.12382 0.56089 0.47824 0.0
C244 C 0.21087 0.62748 0.67783 0.0
C245 C 0.14461 0.49777 0.68486 0.0
C246 C 0.04385 0.56984 0.52244 0.0
C247 C 0.15289 0.57365 0.85585 0.0
O248 O 0.05581 0.52377 0.57258 0.0
O249 O 0.0738 0.49749 0.63058 0.0
O250 O 0.13455 0.62254 0.70507 0.0
O251 O 0.09273 0.60571 0.63407 0.0
O252 O 0.20779 0.54829 0.78172 0.0
O253 O 0.22588 0.57917 0.68553 0.0
O254 O 0.11982 0.57912 0.51955 0.0
O255 O 0.1167 0.53625 0.51131 0.0
Co256 Co 0.48433 0.5237 0.6173 0.0
Co257 Co 0.45955 0.56186 0.70106 0.0
Co258 Co 0.52272 0.59226 0.65604 0.0
H259 H 0.5006 0.55811 0.65677 0.0
O260 O 0.49137 0.55332 0.70459 0.0
H261 H 0.48039 0.59533 0.69993 0.0
O262 O 0.49076 0.60109 0.65428 0.0
Co263 Co 0.49242 0.62843 0.74291 0.0
O264 O 0.44922 0.61514 0.75849 0.0
O265 O 0.42793 0.57106 0.69941 0.0
O266 O 0.53636 0.64965 0.74921 0.0
O267 O 0.5527 0.63399 0.64016 0.0
O268 O 0.49536 0.49227 0.59076 0.0
O269 O 0.45496 0.48612 0.55731 0.0
O270 O 0.50183 0.61283 0.84709 0.0
O271 O 0.46492 0.56857 0.8271 0.0
C272 C 0.55047 0.56015 0.59497 0.0
C273 C 0.43046 0.49831 0.73039 0.0
C274 C 0.49442 0.67595 0.74484 0.0
C275 C 0.49208 0.5671 0.49461 0.0
C276 C 0.42676 0.59226 0.73255 0.0
C277 C 0.55672 0.6525 0.69921 0.0
C278 C 0.47142 0.47553 0.5565 0.0
C279 C 0.48498 0.58746 0.87389 0.0
O280 O 0.52565 0.53877 0.57579 0.0
O281 O 0.55334 0.5808 0.64404 0.0
O282 O 0.43057 0.5222 0.73315 0.0
O283 O 0.45021 0.49527 0.6931 0.0
O284 O 0.51345 0.67134 0.77626 0.0
O285 O 0.47419 0.65357 0.71164 0.0
O286 O 0.47306 0.54604 0.53777 0.0
O287 O 0.51562 0.58597 0.52942 0.0
H288 H 0.22873 0.2319 0.11297 0.0
H289 H 0.27415 0.31647 0.99174 0.0
H290 H 0.3207 0.31854 0.02027 0.0
H291 H 0.28119 0.24656 0.28047 0.0
H292 H 0.27693 0.21082 0.27695 0.0
H293 H 0.24712 0.21616 0.24827 0.0
H294 H 0.24322 0.19193 0.10162 0.0
H295 H 0.27306 0.18655 0.12937 0.0
H296 H 0.2745 0.20575 0.03265 0.0
H297 H 0.36242 0.31129 0.05991 0.0
H298 H 0.39641 0.29552 0.11048 0.0
H299 H 0.32415 0.21572 0.20574 0.0
C300 C 0.24844 0.25098 0.09287 0.0
C301 C 0.24762 0.27405 0.05014 0.0
C302 C 0.27404 0.29849 0.02454 0.0
C303 C 0.30066 0.29988 0.04042 0.0
C304 C 0.30062 0.27669 0.08194 0.0
C305 C 0.27523 0.25273 0.10805 0.0
C306 C 0.28121 0.23063 0.15083 0.0
C307 C 0.27101 0.22577 0.24471 0.0
C308 C 0.26718 0.20203 0.10058 0.0
C309 C 0.31396 0.24594 0.14468 0.0
C310 C 0.3247 0.27247 0.10463 0.0
C311 C 0.35427 0.29057 0.09136 0.0
C312 C 0.3734 0.28141 0.12013 0.0
C313 C 0.36292 0.25441 0.16183 0.0
C314 C 0.33278 0.23647 0.17399 0.0
H315 H 0.83359 0.11152 0.2363 0.0
H316 H 0.76506 0.11609 0.09926 0.0
H317 H 0.74787 0.06701 0.0418 0.0
H318 H 0.84916 0.07348 0.07255 0.0
H319 H 0.8559 0.05173 0.14743 0.0
H320 H 0.86257 0.08708 0.17839 0.0
H321 H 0.82866 0.06473 0.30948 0.0
H322 H 0.82179 0.02928 0.27864 0.0
H323 H 0.79201 0.03598 0.29325 0.0
H324 H 0.7378 1.01703 -1e-05 0.0
H325 H 0.7371 0.97102 0.97199 0.0
H326 H 0.81256 0.9993 0.13507 0.0
C327 C 0.81502 0.10219 0.19405 0.0
C328 C 0.80066 0.11762 0.17217 0.0
C329 C 0.77641 0.10468 0.11675 0.0
C330 C 0.76644 0.07678 0.08396 0.0
C331 C 0.78094 0.06205 0.10706 0.0
C332 C 0.8048 0.07434 0.16053 0.0
C333 C 0.81666 0.054 0.1746 0.0
C334 C 0.84792 0.06737 0.14123 0.0
C335 C 0.81465 0.0455 0.26964 0.0
C336 C 0.7959 0.02848 0.12026 0.0
C337 C 0.77533 0.03344 0.08231 0.0
C338 C 0.75384 1.01292 0.02932 0.0
C339 C 0.75358 0.98679 0.01394 0.0
C340 C 0.77478 0.98141 0.05102 0.0
C341 C 0.79602 1.00261 0.10543 0.0
H342 H 0.07116 0.78088 0.12987 0.0
H343 H 0.04595 0.82973 0.96305 0.0
H344 H 0.99454 0.79456 0.98828 0.0
H345 H 1.01044 0.70797 0.07217 0.0
H346 H 1.00613 0.69451 0.18033 0.0
H347 H 0.04122 0.7219 0.14295 0.0
H348 H 0.04458 0.75475 0.26988 0.0
H349 H 1.00941 0.72758 0.30699 0.0
H350 H 1.01634 0.7637 0.28505 0.0
H351 H 0.94645 0.75709 0.03789 0.0
H352 H 0.90321 0.7172 0.10573 0.0
H353 H 0.95775 0.69155 0.24363 0.0
C354 C 0.05471 0.78358 0.09719 0.0
C355 C 0.06237 0.80774 0.0436 0.0
C356 C 0.04039 0.81117 0.00366 0.0
C357 C 1.01116 0.79136 0.01768 0.0
C358 C 1.00412 0.76816 0.07227 0.0
C359 C 1.02509 0.76391 0.11116 0.0
C360 C 1.01115 0.73777 0.17035 0.0
C361 C 1.01762 0.71413 0.13959 0.0
C362 C 1.02096 0.74648 0.26359 0.0
C363 C 0.97928 0.72846 0.15926 0.0
C364 C 0.97588 0.74632 0.10201 0.0
C365 C 0.94876 0.74274 0.08226 0.0
C366 C 0.92432 0.72007 0.12131 0.0
C367 C 0.92709 0.70125 0.17972 0.0
C368 C 0.95499 0.7056 0.19911 0.0
H369 H 0.85372 0.81866 0.08957 0.0
H370 H 0.76395 0.77896 0.00975 0.0
H371 H 0.7554 0.73193 0.06606 0.0
H372 H 0.86309 0.75623 0.0365 0.0
H373 H 0.88644 0.76208 0.12691 0.0
H374 H 0.8857 0.79228 0.07734 0.0
H375 H 0.87365 0.80638 0.22422 0.0
H376 H 0.87396 0.77602 0.27403 0.0
H377 H 0.84243 0.78016 0.28317 0.0
H378 H 0.75528 0.69071 0.14586 0.0
H379 H 0.7652 0.65568 0.22009 0.0
H380 H 0.85616 0.7204 0.2376 0.0
C381 C 0.83238 0.79993 0.08247 0.0
C382 C 0.80947 0.80253 0.04496 0.0
C383 C 0.78189 0.77751 0.03719 0.0
C384 C 0.77678 0.75074 0.06975 0.0
C385 C 0.7996 0.74915 0.10852 0.0
C386 C 0.82706 0.77289 0.11302 0.0
C387 C 0.84786 0.7652 0.15715 0.0
C388 C 0.87221 0.76918 0.0958 0.0
C389 C 0.8602 0.78301 0.23952 0.0
C390 C 0.82772 0.73347 0.17765 0.0
C391 C 0.79988 0.72487 0.15034 0.0
C392 C 0.77708 0.69711 0.16632 0.0
C393 C 0.78291 0.67743 0.2094 0.0
C394 C 0.81145 0.68523 0.23494 0.0
C395 C 0.83414 0.71374 0.21873 0.0
H396 H 0.27501 1.00141 0.10381 0.0
H397 H 0.23192 0.03874 0.95988 0.0
H398 H 0.26879 0.08741 0.00657 0.0
H399 H 0.29316 0.04606 0.28094 0.0
H400 H 0.32873 0.05091 0.29972 0.0
H401 H 0.30167 1.0188 0.24665 0.0
H402 H 0.33574 0.02906 0.11687 0.0
H403 H 0.36323 0.06083 0.17053 0.0
H404 H 0.35153 0.06378 0.06447 0.0
H405 H 0.30342 0.12967 0.08684 0.0
H406 H 0.34222 0.16747 0.17075 0.0
H407 H 0.36833 0.10623 0.25888 0.0
C408 C 0.27439 1.02004 0.07859 0.0
C409 C 0.25111 1.01646 0.02585 0.0
C410 C 0.25004 0.04114 -0.0022 0.0
C411 C 0.27069 0.06883 0.02499 0.0
C412 C 0.29256 0.07161 0.07989 0.0
C413 C 0.29529 0.04818 0.10454 0.0
C414 C 0.32066 0.05775 0.16649 0.0
C415 C 0.31043 0.04246 0.2536 0.0
C416 C 0.3442 0.05255 0.12724 0.0
C417 C 0.33107 0.08999 0.17434 0.0
C418 C 0.31406 0.09708 0.12431 0.0
C419 C 0.31749 0.12464 0.12418 0.0
C420 C 0.33973 0.14603 0.17301 0.0
C421 C 0.35911 0.14032 0.22089 0.0
C422 C 0.35422 0.11155 0.22285 0.0
H423 H 1.00537 0.19909 0.06521 0.0
H424 H 0.06169 0.29161 0.03684 0.0
H425 H 1.02438 0.29997 0.10475 0.0
H426 H 0.93701 0.19958 0.02164 0.0
H427 H 0.91689 0.17097 0.09757 0.0
H428 H 0.94733 0.17259 0.04177 0.0
H429 H 0.9704 0.17222 0.18747 0.0
H430 H 0.94036 0.17122 0.24376 0.0
H431 H 0.97674 0.19955 0.26608 0.0
H432 H 0.98354 0.29815 0.1925 0.0
H433 H 0.93829 0.28666 0.26761 0.0
H434 H 0.90667 0.19504 0.22978 0.0
C435 C 1.00951 0.22108 0.07123 0.0
C436 C 0.03637 0.24474 0.04531 0.0
C437 C 0.04112 0.2732 0.0549 0.0
C438 C 1.02017 0.27813 0.09431 0.0
C439 C 0.99438 0.25435 0.12216 0.0
C440 C 0.98861 0.22635 0.10877 0.0
C441 C 0.95913 0.20458 0.14429 0.0
C442 C 0.93889 0.18583 0.07201 0.0
C443 C 0.96184 0.18579 0.21456 0.0
C444 C 0.94941 0.2247 0.18145 0.0
C445 C 0.97027 0.25331 0.16904 0.0
C446 C 0.96689 0.27584 0.20135 0.0
C447 C 0.94119 0.26904 0.24491 0.0
C448 C 0.91885 0.23991 0.2549 0.0
C449 C 0.92327 0.21749 0.22321 0.0
H450 H 0.93578 0.6321 0.43717 0.0
H451 H 0.88644 0.55637 0.27863 0.0
H452 H 0.92349 0.542 0.29918 0.0
H453 H 1.00907 0.64579 0.37072 0.0
H454 H 1.02377 0.65618 0.47716 0.0
H455 H 0.99518 0.66265 0.44212 0.0
H456 H 0.96429 0.63407 0.57317 0.0
H457 H 0.99266 0.62733 0.60805 0.0
H458 H 0.95666 0.59748 0.59063 0.0
H459 H 0.96333 0.53365 0.34334 0.0
H460 H 1.00448 0.53183 0.40956 0.0
H461 H 1.02834 0.61176 0.54491 0.0
C462 C 0.93338 0.61302 0.405 0.0
C463 C 0.90861 0.59556 0.35494 0.0
C464 C 0.90554 0.57018 0.31608 0.0
C465 C 0.92643 0.56183 0.32745 0.0
C466 C 0.95033 0.57903 0.37838 0.0
C467 C 0.9541 0.60414 0.41648 0.0
C468 C 0.98095 0.6174 0.47278 0.0
C469 C 1.00358 0.64728 0.43864 0.0
C470 C 0.97316 0.61916 0.56672 0.0
C471 C 0.99111 0.59545 0.46163 0.0
C472 C 0.97324 0.57373 0.406 0.0
C473 C 0.97767 0.55067 0.38642 0.0
C474 C 1.00108 0.54979 0.4244 0.0
C475 C 1.01963 0.57165 0.48206 0.0
C476 C 1.01453 0.59478 0.50084 0.0
H477 H 0.5042 0.44864 0.54719 0.0
H478 H 0.41863 0.43608 0.49442 0.0
H479 H 0.40289 0.38661 0.44352 0.0
H480 H 0.50775 0.40932 0.3634 0.0
H481 H 0.5263 0.3937 0.41945 0.0
H482 H 0.53116 0.42824 0.45235 0.0
H483 H 0.51514 0.40869 0.60637 0.0
H484 H 0.51039 0.37415 0.57391 0.0
H485 H 0.48083 0.3763 0.623 0.0
H486 H 0.39644 0.33892 0.39675 0.0
H487 H 0.39968 0.29593 0.35609 0.0
H488 H 0.48928 0.33873 0.44048 0.0
C489 C 0.48218 0.43545 0.5248 0.0
C490 C 0.46263 0.44619 0.52452 0.0
C491 C 0.43399 0.42832 0.49482 0.0
C492 C 0.42482 0.40017 0.46598 0.0
C493 C 0.44455 0.39017 0.46718 0.0
C494 C 0.47264 0.40722 0.49565 0.0
C495 C 0.48948 0.39116 0.48952 0.0
C496 C 0.51519 0.40654 0.42746 0.0
C497 C 0.49954 0.38735 0.57851 0.0
C498 C 0.46643 0.36246 0.45337 0.0
C499 C 0.44071 0.36241 0.4409 0.0
C500 C 0.41643 0.33864 0.40651 0.0
C501 C 0.41851 0.31428 0.38362 0.0
C502 C 0.44467 0.31376 0.39544 0.0
C503 C 0.46886 0.33823 0.43138 0.0
H504 H 0.60702 0.06596 0.57756 0.0
H505 H 0.60805 0.99132 0.47038 0.0
H506 H 0.65775 0.02302 0.41655 0.0
H507 H 0.64641 0.11543 0.40598 0.0
H508 H 0.6659 0.14595 0.47619 0.0
H509 H 0.6305 0.1173 0.50615 0.0
H510 H 0.65138 0.11049 0.6488 0.0
H511 H 0.68687 0.13902 0.61892 0.0
H512 H 0.6814 0.10375 0.6461 0.0
H513 H 0.70764 0.06324 0.37366 0.0
H514 H 0.75284 0.10875 0.34194 0.0
H515 H 0.71906 0.15678 0.47876 0.0
C516 C 0.61769 0.05631 0.54257 0.0
C517 C 0.60366 0.02617 0.52803 0.0
C518 C 0.61836 1.01437 0.48207 0.0
C519 C 0.64662 0.03219 0.45142 0.0
C520 C 0.65994 0.06181 0.46722 0.0
C521 C 0.6459 0.07381 0.51147 0.0
C522 C 0.66494 0.1063 0.51941 0.0
C523 C 0.65112 0.12217 0.47422 0.0
C524 C 0.67154 0.11541 0.61393 0.0
C525 C 0.69181 0.11069 0.47257 0.0
C526 C 0.68858 0.08482 0.44306 0.0
C527 C 0.71045 0.08363 0.3968 0.0
C528 C 0.73612 0.10961 0.37934 0.0
C529 C 0.73976 0.13647 0.40812 0.0
C530 C 0.71725 0.13672 0.45611 0.0
H531 H 0.51566 0.14369 0.38926 0.0
H532 H 0.42284 0.10786 0.36704 0.0
H533 H 0.41513 0.06308 0.43891 0.0
H534 H 0.51554 0.07441 0.3554 0.0
H535 H 0.54462 0.08422 0.43074 0.0
H536 H 0.54244 0.11188 0.37016 0.0
H537 H 0.54339 0.13766 0.51161 0.0
H538 H 0.54488 0.10979 0.57285 0.0
H539 H 0.51647 0.11817 0.59274 0.0
H540 H 0.41781 0.02522 0.53149 0.0
H541 H 0.43022 0.99306 0.61243 0.0
H542 H 0.52153 0.05261 0.56812 0.0
C543 C 0.4937 0.12603 0.39694 0.0
C544 C 0.46982 0.12918 0.37177 0.0
C545 C 0.44144 0.10575 0.38416 0.0
C546 C 0.43688 0.08038 0.42596 0.0
C547 C 0.46093 0.0786 0.45366 0.0
C548 C 0.48881 0.10049 0.4374 0.0
C549 C 0.51097 0.0935 0.47486 0.0
C550 C 0.52948 0.09083 0.40353 0.0
C551 C 0.53004 0.11613 0.54199 0.0
C552 C 0.49123 0.06448 0.51639 0.0
C553 C 0.46245 0.05643 0.50427 0.0
C554 C 0.44026 0.03114 0.54017 0.0
C555 C 0.44758 1.01314 0.58707 0.0
C556 C 0.4769 0.02025 0.59708 0.0
C557 C 0.49893 0.0465 0.56177 0.0
H558 H 0.03959 0.44133 0.56789 0.0
H559 H 1.00355 0.49889 0.55504 0.0
H560 H 0.96143 0.46205 0.47928 0.0
H561 H 1.01346 0.40569 0.36562 0.0
H562 H 1.00261 0.36966 0.40274 0.0
H563 H 1.03155 0.40051 0.4559 0.0
H564 H 1.00465 0.38359 0.60099 0.0
H565 H 0.976 0.35236 0.5486 0.0
H566 H 0.9678 0.37622 0.6092 0.0
H567 H 0.92549 0.42255 0.3948 0.0
H568 H 0.88881 0.37532 0.33949 0.0
H569 H 0.94171 0.33809 0.4167 0.0
C570 C 1.02256 0.44589 0.55054 0.0
C571 C 1.02562 0.47361 0.56583 0.0
C572 C 1.00251 0.47839 0.5425 0.0
C573 C 0.97831 0.45755 0.49884 0.0
C574 C 0.97665 0.43131 0.48054 0.0
C575 C 0.99734 0.42468 0.5083 0.0
C576 C 0.98821 0.39346 0.48462 0.0
C577 C 1.01029 0.39227 0.4236 0.0
C578 C 0.9839 0.37533 0.56568 0.0
C579 C 0.95947 0.38408 0.43905 0.0
C580 C 0.95397 0.40683 0.43598 0.0
C581 C 0.92932 0.40441 0.39741 0.0
C582 C 0.90872 0.37753 0.36536 0.0
C583 C 0.91244 0.3531 0.37304 0.0
C584 C 0.9386 0.35655 0.40814 0.0
H585 H 0.60944 0.5886 0.63679 0.0
H586 H 0.54806 0.53731 0.43841 0.0
H587 H 0.58761 0.5406 0.34985 0.0
H588 H 0.66942 0.63532 0.49075 0.0
H589 H 0.69691 0.63553 0.55863 0.0
H590 H 0.66419 0.63181 0.60523 0.0
H591 H 0.65432 0.58427 0.6798 0.0
H592 H 0.68711 0.58807 0.6342 0.0
H593 H 0.65315 0.55543 0.61627 0.0
H594 H 0.63298 0.54806 0.28186 0.0
H595 H 0.68116 0.55392 0.24868 0.0
H596 H 0.71357 0.59735 0.4917 0.0
C597 C 0.60445 0.57829 0.57451 0.0
C598 C 0.57551 0.56267 0.54506 0.0
C599 C 0.56991 0.54922 0.46328 0.0
C600 C 0.5923 0.55118 0.41168 0.0
C601 C 0.62046 0.56656 0.44225 0.0
C602 C 0.6267 0.57957 0.52214 0.0
C603 C 0.65877 0.59277 0.54157 0.0
C604 C 0.67317 0.62582 0.54953 0.0
C605 C 0.66361 0.57932 0.62275 0.0
C606 C 0.66915 0.5843 0.46146 0.0
C607 C 0.6468 0.56995 0.40396 0.0
C608 C 0.65078 0.55952 0.32595 0.0
C609 C 0.6782 0.56312 0.30717 0.0
C610 C 0.70101 0.57654 0.36679 0.0
C611 C 0.69651 0.58756 0.44435 0.0
H612 H 0.60179 0.94848 0.66975 0.0
H613 H 0.56663 0.95204 0.91693 0.0
H614 H 0.60205 0.94199 0.98884 0.0
H615 H 0.60991 0.88973 0.71469 0.0
H616 H 0.64341 0.90145 0.65776 0.0
H617 H 0.61924 0.91417 0.62508 0.0
H618 H 0.66009 0.96731 0.64188 0.0
H619 H 0.68467 0.95479 0.67267 0.0
H620 H 0.67951 0.97898 0.74179 0.0
H621 H 0.63609 0.92488 0.03265 0.0
H622 H 0.67024 0.90643 0.04722 0.0
H623 H 0.68382 0.91323 0.77195 0.0
C624 C 0.6027 0.94865 0.73911 0.0
C625 C 0.58228 0.95211 0.78826 0.0
C626 C 0.58282 0.95047 0.87867 0.0
C627 C 0.60267 0.94449 0.9199 0.0
C628 C 0.62179 0.94002 0.86976 0.0
C629 C 0.62237 0.94248 0.78139 0.0
C630 C 0.64354 0.93429 0.74257 0.0
C631 C 0.62809 0.90837 0.68143 0.0
C632 C 0.66844 0.9604 0.69704 0.0
C633 C 0.65411 0.92612 0.82261 0.0
C634 C 0.64132 0.9297 0.89519 0.0
C635 C 0.64657 0.92239 0.97639 0.0
C636 C 0.66582 0.91168 0.98396 0.0
C637 C 0.67966 0.90831 0.91083 0.0
C638 C 0.67357 0.91556 0.82906 0.0
H639 H 0.14431 0.66524 0.80367 0.0
H640 H 0.08091 0.64575 0.60234 0.0
H641 H 0.08177 0.69165 0.63149 0.0
H642 H 0.11556 0.69831 0.94875 0.0
H643 H 0.15078 0.72518 0.98649 0.0
H644 H 0.14489 0.69051 0.95067 0.0
H645 H 0.18707 0.71601 0.84226 0.0
H646 H 0.193 0.75075 0.87733 0.0
H647 H 0.18648 0.74106 0.7656 0.0
H648 H 0.09088 0.74036 0.67781 0.0
H649 H 0.10529 0.78754 0.74485 0.0
H650 H 0.16197 0.77532 0.91874 0.0
C651 C 0.13052 0.67056 0.76589 0.0
C652 C 0.11251 0.65181 0.70066 0.0
C653 C 0.09469 0.65956 0.65307 0.0
C654 C 0.09514 0.68569 0.66885 0.0
C655 C 0.11333 0.70376 0.73293 0.0
C656 C 0.13048 0.69645 0.78134 0.0
C657 C 0.14782 0.71965 0.84706 0.0
C658 C 0.13924 0.7077 0.93866 0.0
C659 C 0.18053 0.73263 0.83212 0.0
C660 C 0.13807 0.74136 0.82703 0.0
C661 C 0.1182 0.73173 0.76086 0.0
C662 C 0.10629 0.74807 0.73001 0.0
C663 C 0.11466 0.77486 0.76836 0.0
C664 C 0.13467 0.78502 0.83701 0.0
C665 C 0.14659 0.76806 0.86642 0.0
H666 H 0.27578 0.3568 0.77396 0.0
H667 H 0.27151 0.38869 0.02652 0.0
H668 H 0.32218 0.42765 0.01208 0.0
H669 H 0.35143 0.37315 0.7875 0.0
H670 H 0.35924 0.3843 0.67702 0.0
H671 H 0.32308 0.35752 0.70839 0.0
H672 H 0.30291 0.38865 0.64288 0.0
H673 H 0.33892 0.41533 0.61065 0.0
H674 H 0.31773 0.42571 0.67655 0.0
H675 H 0.37103 0.46469 0.96798 0.0
H676 H 0.41549 0.4997 0.8937 0.0
H677 H 0.39052 0.44425 0.67013 0.0
C678 C 0.28563 0.37194 0.82628 0.0
C679 C 0.26977 0.36978 0.90148 0.0
C680 C 0.28326 0.38999 0.96843 0.0
C681 C 0.31208 0.41206 0.96102 0.0
C682 C 0.32717 0.41357 0.88643 0.0
C683 C 0.31452 0.39419 0.81995 0.0
C684 C 0.33533 0.40183 0.74493 0.0
C685 C 0.3427 0.37776 0.72851 0.0
C686 C 0.32299 0.40827 0.66399 0.0
C687 C 0.36139 0.42893 0.77906 0.0
C688 C 0.35613 0.43498 0.86125 0.0
C689 C 0.37571 0.45989 0.9045 0.0
C690 C 0.40101 0.47957 0.86201 0.0
C691 C 0.40682 0.4742 0.77753 0.0
C692 C 0.38704 0.44827 0.73594 0.0
H693 H 0.17696 0.38956 0.95918 0.0
H694 H 0.1098 0.31858 0.81496 0.0
H695 H 0.10087 0.35307 0.73195 0.0
H696 H 0.13816 0.431 0.97005 0.0
H697 H 0.17104 0.46538 0.96333 0.0
H698 H 0.17148 0.4349 0.01187 0.0
H699 H 0.21194 0.44122 0.90662 0.0
H700 H 0.21142 0.47153 0.85743 0.0
H701 H 0.20611 0.44124 0.79277 0.0
H702 H 0.10088 0.3964 0.65975 0.0
H703 H 0.10754 0.44395 0.61352 0.0
H704 H 0.17371 0.48582 0.80866 0.0
C705 C 0.16012 0.38138 0.91096 0.0
C706 C 0.14381 0.35146 0.89384 0.0
C707 C 0.12214 0.34144 0.82978 0.0
C708 C 0.11705 0.36088 0.78201 0.0
C709 C 0.13358 0.39035 0.79982 0.0
C710 C 0.15435 0.40049 0.86382 0.0
C711 C 0.16865 0.43309 0.87162 0.0
C712 C 0.16193 0.44159 0.95941 0.0
C713 C 0.20148 0.44761 0.85613 0.0
C714 C 0.15358 0.43976 0.79997 0.0
C715 C 0.13327 0.41492 0.75944 0.0
C716 C 0.11667 0.416 0.69146 0.0
C717 C 0.12067 0.44313 0.66525 0.0
C718 C 0.14119 0.46887 0.70674 0.0
C719 C 0.15787 0.46681 0.77463 0.0
H720 H 0.66911 0.78514 0.98509 0.0
H721 H 0.72952 0.81228 0.77297 0.0
H722 H 0.69527 0.76883 0.69066 0.0
H723 H 0.64099 0.70717 0.96236 0.0
H724 H 0.60452 0.69815 0.98945 0.0
H725 H 0.6347 0.73028 0.03301 0.0
H726 H 0.61362 0.76121 0.97131 0.0
H727 H 0.58347 0.72918 0.92755 0.0
H728 H 0.60564 0.75929 0.85841 0.0
H729 H 0.65275 0.72227 0.6294 0.0
H730 H 0.60574 0.67853 0.59507 0.0
H731 H 0.57386 0.68344 0.84725 0.0
C732 C 0.67519 0.78157 0.9219 0.0
C733 C 0.70198 0.80164 0.88548 0.0
C734 C 0.70912 0.79678 0.80199 0.0
C735 C 0.68982 0.77222 0.75486 0.0
C736 C 0.66336 0.75274 0.79207 0.0
C737 C 0.65606 0.75721 0.87378 0.0
C738 C 0.62584 0.73381 0.89773 0.0
C739 C 0.62657 0.71632 0.97522 0.0
C740 C 0.60599 0.74665 0.91471 0.0
C741 C 0.61718 0.71577 0.8167 0.0
C742 C 0.63905 0.72671 0.75648 0.0
C743 C 0.63549 0.71349 0.67635 0.0
C744 C 0.60877 0.68863 0.65729 0.0
C745 C 0.58592 0.67754 0.71781 0.0
C746 C 0.59063 0.69134 0.79868 0.0
H747 H 0.38142 0.94226 0.77977 0.0
H748 H 0.3446 0.85601 0.67276 0.0
H749 H 0.29633 0.84476 0.72345 0.0
H750 H 0.33977 0.92254 0.9675 0.0
H751 H 0.33391 0.95307 0.97237 0.0
H752 H 0.36562 0.95652 0.9197 0.0
H753 H 0.35217 0.97343 0.78033 0.0
H754 H 0.32073 0.97066 0.83313 0.0
H755 H 0.31676 0.95154 0.73423 0.0
H756 H 0.25452 0.83982 0.80141 0.0
H757 H 0.21697 0.8436 0.87992 0.0
H758 H 0.2774 0.9342 0.93411 0.0
C759 C 0.3629 0.92152 0.76396 0.0
C760 C 0.36657 0.90012 0.72062 0.0
C761 C 0.34212 0.87279 0.70424 0.0
C762 C 0.31466 0.86613 0.73352 0.0
C763 C 0.31186 0.88707 0.77913 0.0
C764 C 0.33498 0.91447 0.79276 0.0
C765 C 0.32547 0.93229 0.84648 0.0
C766 C 0.3422 0.94166 0.93155 0.0
C767 C 0.32899 0.95854 0.79549 0.0
C768 C 0.29362 0.91037 0.86168 0.0
C769 C 0.28667 0.88443 0.82277 0.0
C770 C 0.25944 0.8602 0.83049 0.0
C771 C 0.2382 0.86266 0.87605 0.0
C772 C 0.24377 0.88937 0.91285 0.0
C773 C 0.27223 0.9135 0.90681 0.0
H774 H 0.18108 0.05979 0.01736 0.0
H775 H 0.11623 1.00912 0.20888 0.0
H776 H 0.10289 0.04715 0.21994 0.0
H777 H 0.20346 0.13091 0.11347 0.0
H778 H 0.20821 0.14838 0.011 0.0
H779 H 0.21355 0.11764 0.02084 0.0
H780 H 0.176 0.09195 0.89972 0.0
H781 H 0.17038 0.12253 0.89118 0.0
H782 H 0.14008 0.08699 0.91091 0.0
H783 H 0.09446 0.08843 0.20562 0.0
H784 H 0.09287 0.13265 0.17289 0.0
H785 H 0.16412 0.15885 0.99328 0.0
C786 C 0.16436 0.05697 0.06236 0.0
C787 C 0.14979 0.03158 0.11273 0.0
C788 C 0.12784 0.02848 0.17031 0.0
C789 C 0.12005 0.04992 0.17689 0.0
C790 C 0.13457 0.07452 0.12603 0.0
C791 C 0.15643 0.0784 0.07038 0.0
C792 C 0.16812 0.1069 0.02239 0.0
C793 C 0.20024 0.12715 0.04323 0.0
C794 C 0.16335 0.10177 0.9253 0.0
C795 C 0.14924 0.11823 0.05961 0.0
C796 C 0.13 0.09901 0.11888 0.0
C797 C 0.10959 0.10383 0.15999 0.0
C798 C 0.10883 0.12905 0.14054 0.0
C799 C 0.12844 0.14942 0.08064 0.0
C800 C 0.14903 0.1439 0.03991 0.0
H801 H 1.02863 0.10278 0.09836 0.0
H802 H 1.00207 0.14441 0.90791 0.0
H803 H 0.95705 0.09829 0.88346 0.0
H804 H 0.999 0.03301 0.98788 0.0
H805 H 0.98722 1.01209 0.08519 0.0
H806 H 1.01841 0.04788 0.08647 0.0
H807 H 0.99511 0.06332 0.20582 0.0
H808 H 0.96407 0.02751 0.20636 0.0
H809 H 0.9594 0.05846 0.18996 0.0
H810 H 0.91425 0.04967 0.886 0.0
H811 H 0.8753 1.00002 0.91268 0.0
H812 H 0.92911 0.98813 0.09914 0.0
C813 C 1.01341 0.10204 0.05097 0.0
C814 C 1.01873 0.12706 0.00473 0.0
C815 C 0.9984 0.12542 0.94353 0.0
C816 C 0.97282 0.09935 0.92923 0.0
C817 C 0.9681 0.07513 0.9761 0.0
C818 C 0.9878 0.07608 0.03538 0.0
C819 C 0.97683 0.04693 0.07867 0.0
C820 C 0.99657 0.03425 0.0583 0.0
C821 C 0.97366 0.0492 0.17596 0.0
C822 C 0.94758 0.02968 0.0357 0.0
C823 C 0.9432 0.04649 0.97661 0.0
C824 C 0.91749 0.03617 0.93142 0.0
C825 C 0.89545 1.00796 0.94744 0.0
C826 C 0.89919 0.99023 0.00805 0.0
C827 C 0.92581 1.0011 0.05183 0.0
H828 H 0.94908 0.93243 0.12706 0.0
H829 H 0.9119 0.87427 0.91061 0.0
H830 H 0.95955 0.8794 0.87819 0.0
H831 H 1.01906 0.98039 0.02918 0.0
H832 H 0.03981 0.98511 0.12512 0.0
H833 H 1.00316 0.97826 0.13297 0.0
H834 H 0.98868 0.93392 0.22931 0.0
H835 H 1.02538 0.9408 0.2252 0.0
H836 H 0.99599 0.90591 0.19426 0.0
H837 H 1.00951 0.88855 0.87187 0.0
H838 H 0.05953 0.89935 0.89573 0.0
H839 H 0.06637 0.95229 0.11562 0.0
C840 C 0.95108 0.9209 0.07271 0.0
C841 C 0.92681 0.90297 0.02108 0.0
C842 C 0.93018 0.88813 0.95078 0.0
C843 C 0.95719 0.89101 0.93166 0.0
C844 C 0.98068 0.90889 0.98327 0.0
C845 C 0.97803 0.92353 0.0526 0.0
C846 C 1.00673 0.94026 0.09963 0.0
C847 C 1.01785 0.97295 0.09645 0.0
C848 C 1.00402 0.92957 0.1926 0.0
C849 C 1.02572 0.93235 0.04641 0.0
C850 C 1.01011 0.9144 0.97932 0.0
C851 C 1.02206 0.90281 0.92355 0.0
C852 C 0.05051 0.90909 0.93769 0.0
C853 C 0.06687 0.92683 0.00703 0.0
C854 C 0.05454 0.93917 0.0611 0.0
H855 H 0.84234 0.39184 0.39767 0.0
H856 H 0.76256 0.32792 0.2772 0.0
H857 H 0.7481 0.36503 0.25676 0.0
H858 H 0.8127 0.42918 0.5105 0.0
H859 H 0.84369 0.46458 0.49481 0.0
H860 H 0.84821 0.43325 0.49753 0.0
H861 H 0.87301 0.44688 0.34858 0.0
H862 H 0.86861 0.4783 0.34549 0.0
H863 H 0.85454 0.45224 0.25972 0.0
H864 H 0.74058 0.40805 0.26006 0.0
H865 H 0.74227 0.45504 0.27655 0.0
H866 H 0.82825 0.49177 0.38646 0.0
C867 C 0.82196 0.38577 0.36629 0.0
C868 C 0.80354 0.35706 0.33892 0.0
C869 C 0.77703 0.34985 0.29821 0.0
C870 C 0.76861 0.37075 0.28653 0.0
C871 C 0.78712 0.39882 0.31496 0.0
C872 C 0.8134 0.40647 0.3531 0.0
C873 C 0.82914 0.4381 0.3785 0.0
C874 C 0.83369 0.44146 0.47612 0.0
C875 C 0.85803 0.45487 0.33016 0.0
C876 C 0.80752 0.44698 0.34914 0.0
C877 C 0.78331 0.42393 0.31343 0.0
C878 C 0.75962 0.42638 0.28661 0.0
C879 C 0.76074 0.45311 0.29638 0.0
C880 C 0.78555 0.47713 0.33147 0.0
C881 C 0.80926 0.47396 0.35763 0.0
H882 H 0.6561 0.45854 0.34603 0.0
H883 H 0.70888 0.44618 0.5348 0.0
H884 H 0.67214 0.39456 0.54581 0.0
H885 H 0.58587 0.40857 0.44407 0.0
H886 H 0.56829 0.39585 0.34186 0.0
H887 H 0.59834 0.43208 0.35183 0.0
H888 H 0.62446 0.42131 0.2287 0.0
H889 H 0.59459 0.38493 0.22042 0.0
H890 H 0.63067 0.39108 0.2384 0.0
H891 H 0.63144 0.34405 0.53123 0.0
H892 H 0.58732 0.29804 0.49995 0.0
H893 H 0.55918 0.34241 0.32398 0.0
C894 C 0.6597 0.44499 0.3904 0.0
C895 C 0.68532 0.4564 0.43987 0.0
C896 C 0.68936 0.43798 0.49674 0.0
C897 C 0.66865 0.40858 0.50324 0.0
C898 C 0.64383 0.39791 0.45299 0.0
C899 C 0.63903 0.41552 0.39833 0.0
C900 C 0.61047 0.39831 0.35128 0.0
C901 C 0.58951 0.40937 0.37368 0.0
C902 C 0.61535 0.39895 0.25393 0.0
C903 C 0.6001 0.36831 0.38787 0.0
C904 C 0.61984 0.36863 0.44593 0.0
C905 C 0.61568 0.34355 0.48642 0.0
C906 C 0.59055 0.31744 0.46783 0.0
C907 C 0.56963 0.31646 0.40961 0.0
C908 C 0.5746 0.34238 0.3692 0.0
H909 H 0.59029 0.20437 0.33268 0.0
H910 H 0.59684 0.25777 0.5511 0.0
H911 H 0.64703 0.26889 0.57495 0.0
H912 H 0.63426 0.17527 0.42771 0.0
H913 H 0.65103 0.17541 0.32718 0.0
H914 H 0.61493 0.17036 0.3287 0.0
H915 H 0.63108 0.21377 0.2251 0.0
H916 H 0.66719 0.21897 0.2233 0.0
H917 H 0.66141 0.24838 0.25353 0.0
H918 H 0.69713 0.27759 0.56907 0.0
H919 H 0.74424 0.28119 0.53904 0.0
H920 H 0.70584 0.22038 0.32894 0.0
C921 C 0.60226 0.21812 0.386 0.0
C922 C 0.58973 0.23031 0.43991 0.0
C923 C 0.606 0.24823 0.509 0.0
C924 C 0.63453 0.25466 0.52316 0.0
C925 C 0.64642 0.24267 0.46847 0.0
C926 C 0.63081 0.2245 0.40189 0.0
C927 C 0.64917 0.21493 0.35218 0.0
C928 C 0.63659 0.18204 0.35939 0.0
C929 C 0.6524 0.2246 0.25796 0.0
C930 C 0.67768 0.23122 0.39998 0.0
C931 C 0.67547 0.24703 0.46681 0.0
C932 C 0.6991 0.26502 0.51768 0.0
C933 C 0.7258 0.26701 0.49985 0.0
C934 C 0.72871 0.25094 0.43203 0.0
C935 C 0.70419 0.23259 0.38199 0.0
H936 H 0.43545 0.78783 0.70179 0.0
H937 H 0.51947 0.8531 0.7968 0.0
H938 H 0.53438 0.81636 0.81068 0.0
H939 H 0.42801 0.72812 0.83413 0.0
H940 H 0.4119 0.70165 0.75 0.0
H941 H 0.40707 0.73282 0.75137 0.0
H942 H 0.42763 0.74572 0.59733 0.0
H943 H 0.43278 0.71475 0.59589 0.0
H944 H 0.4629 0.75029 0.5747 0.0
H945 H 0.54093 0.77375 0.81339 0.0
H946 H 0.53903 0.72667 0.80181 0.0
H947 H 0.45177 0.68836 0.69993 0.0
C948 C 0.45682 0.79419 0.72637 0.0
C949 C 0.4763 0.82326 0.74844 0.0
C950 C 0.50427 0.83096 0.77915 0.0
C951 C 0.51294 0.81026 0.78753 0.0
C952 C 0.49351 0.78194 0.76418 0.0
C953 C 0.46609 0.77376 0.73388 0.0
C954 C 0.45011 0.74194 0.71 0.0
C955 C 0.42265 0.72513 0.76469 0.0
C956 C 0.44295 0.73796 0.61376 0.0
C957 C 0.47284 0.73368 0.73234 0.0
C958 C 0.49763 0.75714 0.76371 0.0
C959 C 0.52168 0.75515 0.78886 0.0
C960 C 0.52041 0.72837 0.78199 0.0
C961 C 0.49534 0.70401 0.74976 0.0
C962 C 0.47127 0.70673 0.72443 0.0
H963 H 0.26369 0.65325 0.76157 0.0
H964 H 0.21612 0.66599 0.55633 0.0
H965 H 0.2569 0.71506 0.53201 0.0
H966 H 0.29242 0.72371 0.84727 0.0
H967 H 0.3271 0.72791 0.87609 0.0
H968 H 0.29571 0.69238 0.87183 0.0
H969 H 0.32188 0.67599 0.76488 0.0
H970 H 0.35344 0.71142 0.7695 0.0
H971 H 0.33697 0.69631 0.66756 0.0
H972 H 0.3007 0.76335 0.53458 0.0
H973 H 0.34522 0.80914 0.56666 0.0
H974 H 0.36483 0.76702 0.77338 0.0
C975 C 0.26224 0.66623 0.71044 0.0
C976 C 0.23684 0.65578 0.66042 0.0
C977 C 0.23537 0.67358 0.59538 0.0
C978 C 0.25846 0.70145 0.58081 0.0
C979 C 0.28292 0.71141 0.63215 0.0
C980 C 0.28506 0.69449 0.69582 0.0
C981 C 0.31298 0.71155 0.74598 0.0
C982 C 0.30666 0.71403 0.8409 0.0
C983 C 0.33248 0.69801 0.7363 0.0
C984 C 0.32589 0.74064 0.70094 0.0
C985 C 0.30824 0.73988 0.63496 0.0
C986 C 0.31488 0.7642 0.58557 0.0
C987 C 0.3402 0.79011 0.60427 0.0
C988 C 0.35848 0.7916 0.6722 0.0
C989 C 0.35129 0.76645 0.72076 0.0
H990 H 0.3991 0.61988 0.66422 0.0
H991 H 0.389 0.553 0.84224 0.0
H992 H 0.33818 0.54008 0.86795 0.0
H993 H 0.35085 0.64134 0.77392 0.0
H994 H 0.33632 0.64572 0.67424 0.0
H995 H 0.37273 0.65178 0.67812 0.0
H996 H 0.35982 0.61456 0.55532 0.0
H997 H 0.32325 0.60813 0.55348 0.0
H998 H 0.32988 0.57836 0.56877 0.0
H999 H 0.2883 0.53237 0.8688 0.0
H1000 H 0.24145 0.53029 0.84494 0.0
H1001 H 0.28236 0.60091 0.66248 0.0
C1002 C 0.38624 0.60305 0.71005 0.0
C1003 C 0.39782 0.58768 0.75269 0.0
C1004 C 0.38037 0.56515 0.81015 0.0
C1005 C 0.35156 0.55768 0.82501 0.0
C1006 C 0.34045 0.57277 0.78113 0.0
C1007 C 0.35713 0.59498 0.72476 0.0
C1008 C 0.33903 0.60616 0.68157 0.0
C1009 C 0.35042 0.63815 0.70339 0.0
C1010 C 0.33793 0.60151 0.58401 0.0
C1011 C 0.30973 0.58679 0.72266 0.0
C1012 C 0.31116 0.56778 0.78002 0.0
C1013 C 0.28688 0.54726 0.82451 0.0
C1014 C 0.26038 0.54619 0.81043 0.0
C1015 C 0.25831 0.56541 0.75202 0.0
C1016 C 0.28334 0.58596 0.70758 0.0
H1017 H 0.17967 0.29477 0.66325 0.0
H1018 H 0.09515 0.22825 0.7514 0.0
H1019 H 0.08167 0.21089 0.60281 0.0
H1020 H 0.15273 0.31019 0.4683 0.0
H1021 H 0.1841 0.31738 0.40576 0.0
H1022 H 0.18749 0.32422 0.51943 0.0
H1023 H 0.21005 0.29114 0.53679 0.0
H1024 H 0.20656 0.28404 0.42331 0.0
H1025 H 0.19058 0.2544 0.49836 0.0
H1026 H 0.07707 0.20106 0.44829 0.0
H1027 H 0.08049 0.19996 0.29126 0.0
H1028 H 0.16797 0.27295 0.29992 0.0
C1029 C 0.15841 0.27645 0.65098 0.0
C1030 C 0.13842 0.26264 0.71815 0.0
C1031 C 0.11062 0.23911 0.70029 0.0
C1032 C 0.10286 0.22905 0.61643 0.0
C1033 C 0.12304 0.24309 0.55157 0.0
C1034 C 0.15012 0.26643 0.56736 0.0
C1035 C 0.16711 0.27834 0.48503 0.0
C1036 C 0.17322 0.30937 0.46868 0.0
C1037 C 0.19524 0.27687 0.48597 0.0
C1038 C 0.1456 0.25743 0.42084 0.0
C1039 C 0.12028 0.23748 0.46101 0.0
C1040 C 0.09671 0.21654 0.41591 0.0
C1041 C 0.09885 0.21619 0.32693 0.0
C1042 C 0.12445 0.23648 0.2842 0.0
C1043 C 0.1483 0.25712 0.3316 0.0
H1044 H 0.80841 0.86566 0.32864 0.0
H1045 H 0.82858 0.95439 0.28763 0.0
H1046 H 0.82582 0.96054 0.44309 0.0
H1047 H 0.75555 0.85071 0.49277 0.0
H1048 H 0.76465 0.82782 0.55495 0.0
H1049 H 0.77045 0.83075 0.44079 0.0
H1050 H 0.82437 0.84613 0.4645 0.0
H1051 H 0.81877 0.84342 0.57887 0.0
H1052 H 0.84641 0.87672 0.53213 0.0
H1053 H 0.82062 0.95755 0.59934 0.0
H1054 H 0.80762 0.94423 0.7499 0.0
H1055 H 0.78788 0.85633 0.69443 0.0
C1056 C 0.81243 0.88639 0.35279 0.0
C1057 C 0.81885 0.90963 0.29634 0.0
C1058 C 0.82352 0.9363 0.32976 0.0
C1059 C 0.82223 0.94008 0.41797 0.0
C1060 C 0.81591 0.91687 0.47192 0.0
C1061 C 0.81064 0.89039 0.44102 0.0
C1062 C 0.80212 0.86849 0.51328 0.0
C1063 C 0.77136 0.84294 0.49962 0.0
C1064 C 0.82424 0.85808 0.52273 0.0
C1065 C 0.80329 0.88685 0.58929 0.0
C1066 C 0.81176 0.91478 0.5635 0.0
C1067 C 0.81391 0.93577 0.6205 0.0
C1068 C 0.80641 0.92791 0.70598 0.0
C1069 C 0.79655 0.89917 0.734 0.0
C1070 C 0.79558 0.8785 0.67509 0.0
H1071 H 0.19176 0.94171 0.70649 0.0
H1072 H 0.1099 0.86284 0.75036 0.0
H1073 H 0.09887 0.85985 0.59747 0.0
H1074 H 0.16345 0.97034 0.54111 0.0
H1075 H 0.19608 0.98563 0.47775 0.0
H1076 H 0.19794 0.98243 0.59227 0.0
H1077 H 0.22463 0.95334 0.5706 0.0
H1078 H 0.22268 0.9563 0.45606 0.0
H1079 H 0.20824 0.92119 0.50531 0.0
H1080 H 0.09708 0.86288 0.44134 0.0
H1081 H 0.10292 0.87442 0.28773 0.0
H1082 H 0.18465 0.95245 0.33931 0.0
C1083 C 0.17143 0.92402 0.6839 0.0
C1084 C 0.15182 0.90251 0.741 0.0
C1085 C 0.12541 0.87967 0.70861 0.0
C1086 C 0.11885 0.87765 0.62149 0.0
C1087 C 0.13869 0.8988 0.56695 0.0
C1088 C 0.16426 0.92178 0.59641 0.0
C1089 C 0.18146 0.94154 0.52269 0.0
C1090 C 0.18493 0.97178 0.53415 0.0
C1091 C 0.211 0.94318 0.51313 0.0
C1092 C 0.16168 0.92567 0.44773 0.0
C1093 C 0.13723 0.90103 0.47525 0.0
C1094 C 0.116 0.88226 0.41876 0.0
C1095 C 0.1196 0.88899 0.33144 0.0
C1096 C 0.14419 0.91441 0.30118 0.0
C1097 C 0.16554 0.93295 0.3604 0.0
H1098 H 0.75849 0.56035 0.66688 0.0
H1099 H 0.84822 0.58963 0.6 0.0
H1100 H 0.86208 0.60132 0.75086 0.0
H1101 H 0.77356 0.61466 0.83156 0.0
H1102 H 0.74481 0.58998 0.90123 0.0
H1103 H 0.74154 0.58456 0.78688 0.0
H1104 H 0.73282 0.53257 0.80743 0.0
H1105 H 0.73616 0.53785 0.92179 0.0
H1106 H 0.75896 0.52712 0.86575 0.0
H1107 H 0.86649 0.60773 0.90612 0.0
H1108 H 0.86187 0.61068 0.06146 0.0
H1109 H 0.76957 0.57852 0.03351 0.0
C1110 C 0.78107 0.56945 0.68394 0.0
C1111 C 0.80224 0.57397 0.62141 0.0
C1112 C 0.83154 0.58578 0.64651 0.0
C1113 C 0.83969 0.59257 0.73212 0.0
C1114 C 0.81835 0.58751 0.79208 0.0
C1115 C 0.78967 0.57639 0.76962 0.0
C1116 C 0.77118 0.57263 0.84808 0.0
C1117 C 0.75694 0.5916 0.84153 0.0
C1118 C 0.74843 0.54064 0.86153 0.0
C1119 C 0.79404 0.58334 0.91785 0.0
C1120 C 0.82101 0.59165 0.88347 0.0
C1121 C 0.84555 0.60142 0.93401 0.0
C1122 C 0.84259 0.60282 0.0224 0.0
C1123 C 0.81529 0.59468 0.05981 0.0
C1124 C 0.79068 0.58496 0.00664 0.0
H1125 H 0.45974 0.2547 0.0043 0.0
H1126 H 0.44709 0.16891 0.05541 0.0
H1127 H 0.44909 0.16119 0.90077 0.0
H1128 H 0.41716 0.23666 0.81326 0.0
H1129 H 0.44109 0.26993 0.75852 0.0
H1130 H 0.43886 0.26922 0.87382 0.0
H1131 H 0.49428 0.28971 0.8845 0.0
H1132 H 0.49671 0.29087 0.7693 0.0
H1133 H 0.51051 0.27147 0.82975 0.0
H1134 H 0.45047 0.16166 0.74303 0.0
H1135 H 0.45735 0.17244 0.5891 0.0
H1136 H 0.47065 0.25858 0.63808 0.0
C1137 C 0.45762 0.23438 0.98303 0.0
C1138 C 0.45321 0.21239 0.04197 0.0
C1139 C 0.45061 0.18613 0.01159 0.0
C1140 C 0.4515 0.18143 0.92383 0.0
C1141 C 0.4552 0.20325 0.86752 0.0
C1142 C 0.45868 0.22937 0.89558 0.0
C1143 C 0.46314 0.24944 0.82113 0.0
C1144 C 0.43859 0.25673 0.81644 0.0
C1145 C 0.49293 0.277 0.8265 0.0
C1146 C 0.46168 0.23045 0.74694 0.0
C1147 C 0.45672 0.2038 0.77545 0.0
C1148 C 0.45453 0.18249 0.71972 0.0
C1149 C 0.45842 0.18886 0.63233 0.0
C1150 C 0.46474 0.21646 0.60159 0.0
C1151 C 0.46578 0.2373 0.65963 0.0
H1152 H 0.79301 0.21929 0.65359 0.0
H1153 H 0.87413 0.29842 0.60561 0.0
H1154 H 0.88655 0.30134 0.75815 0.0
H1155 H 0.7777 0.24048 0.85218 0.0
H1156 H 0.76305 0.20552 0.90252 0.0
H1157 H 0.76093 0.20809 0.78795 0.0
H1158 H 0.7872 0.17858 0.76677 0.0
H1159 H 0.78914 0.17563 0.88135 0.0
H1160 H 0.8217 0.19048 0.81769 0.0
H1161 H 0.88891 0.2982 0.91571 0.0
H1162 H 0.88278 0.28676 0.06991 0.0
H1163 H 0.80077 0.20921 0.01768 0.0
C1164 C 0.81359 0.23692 0.67499 0.0
C1165 C 0.8325 0.25867 0.61764 0.0
C1166 C 0.85915 0.28156 0.64831 0.0
C1167 C 0.86647 0.28345 0.73492 0.0
C1168 C 0.84705 0.26219 0.79014 0.0
C1169 C 0.82133 0.23916 0.76162 0.0
C1170 C 0.80412 0.21968 0.83545 0.0
C1171 C 0.77471 0.21839 0.84506 0.0
C1172 C 0.80033 0.1893 0.82466 0.0
C1173 C 0.82406 0.23567 0.90964 0.0
C1174 C 0.84865 0.26015 0.88188 0.0
C1175 C 0.86989 0.27895 0.93841 0.0
C1176 C 0.86611 0.27234 0.02593 0.0
C1177 C 0.84133 0.24708 0.05594 0.0
C1178 C 0.82002 0.22861 -0.00325 0.0
H1179 H 0.51394 0.94121 0.36143 0.0
H1180 H 0.43145 0.93564 0.42047 0.0
H1181 H 0.41797 0.92699 0.26821 0.0
H1182 H 0.52531 0.97715 0.15545 0.0
H1183 H 0.54058 0.95711 0.10608 0.0
H1184 H 0.54456 0.96405 0.2197 0.0
H1185 H 0.52131 0.90909 0.24946 0.0
H1186 H 0.51735 0.90205 0.13598 0.0
H1187 H 0.4862 0.88463 0.20533 0.0
H1188 H 0.41262 0.9179 0.11237 0.0
H1189 H 0.41493 0.90719 0.9603 0.0
H1190 H 0.50069 0.91817 -0.00017 0.0
C1191 C 0.49312 0.93832 0.34226 0.0
C1192 C 0.47376 0.9391 0.40302 0.0
C1193 C 0.44661 0.935 0.37535 0.0
C1194 C 0.43878 0.93021 0.2889 0.0
C1195 C 0.45828 0.92951 0.23086 0.0
C1196 C 0.48483 0.93334 0.25605 0.0
C1197 C 0.50123 0.93049 0.18057 0.0
C1198 C 0.5296 0.9589 0.16452 0.0
C1199 C 0.50684 0.90505 0.19364 0.0
C1200 C 0.4796 0.92432 0.10931 0.0
C1201 C 0.45508 0.92402 0.13997 0.0
C1202 C 0.43171 0.91813 0.08739 0.0
C1203 C 0.43324 0.912 0.0011 0.0
C1204 C 0.45797 0.91175 0.96814 0.0
C1205 C 0.48159 0.91836 0.02298 0.0
H1206 H 0.12325 0.52478 0.34887 0.0
H1207 H 0.14752 0.61394 0.40488 0.0
H1208 H 0.15817 0.62636 0.25306 0.0
H1209 H 0.17916 0.54308 0.17879 0.0
H1210 H 0.15547 0.5123 0.11407 0.0
H1211 H 0.15171 0.51043 0.22908 0.0
H1212 H 0.09776 0.49605 0.21322 0.0
H1213 H 0.10145 0.4983 0.09832 0.0
H1214 H 0.08835 0.51925 0.15375 0.0
H1215 H 0.16046 0.62851 0.09624 0.0
H1216 H 0.16133 0.62177 0.94046 0.0
H1217 H 0.13884 0.53232 0.98141 0.0
C1218 C 0.13143 0.547 0.32932 0.0
C1219 C 0.13426 0.56828 0.38889 0.0
C1220 C 0.14485 0.59713 0.36061 0.0
C1221 C 0.15101 0.60449 0.27434 0.0
C1222 C 0.14694 0.58292 0.21685 0.0
C1223 C 0.13803 0.55491 0.24281 0.0
C1224 C 0.13505 0.53599 0.16632 0.0
C1225 C 0.15664 0.52479 0.17244 0.0
C1226 C 0.10379 0.51092 0.15742 0.0
C1227 C 0.14294 0.55767 0.09383 0.0
C1228 C 0.14953 0.58452 0.12486 0.0
C1229 C 0.15585 0.60774 0.07091 0.0
C1230 C 0.15602 0.60361 0.98251 0.0
C1231 C 0.15026 0.57658 0.94896 0.0
C1232 C 0.14358 0.5533 0.00548 0.0
H1233 H 0.51637 0.6118 0.37729 0.0
H1234 H 0.46137 0.51867 0.4005 0.0
H1235 H 0.45749 0.51428 0.24414 0.0
H1236 H 0.47667 0.61963 0.2036 0.0
H1237 H 0.50812 0.64752 0.1495 0.0
H1238 H 0.50853 0.64362 0.26405 0.0
H1239 H 0.55453 0.63882 0.25067 0.0
H1240 H 0.55408 0.64247 0.1359 0.0
H1241 H 0.55402 0.61138 0.18184 0.0
H1242 H 0.45925 0.51896 0.08887 0.0
H1243 H 0.46184 0.5333 0.93824 0.0
H1244 H 0.51282 0.62371 0.01051 0.0
C1245 C 0.5036 0.59056 0.34908 0.0
C1246 C 0.48912 0.56561 0.40085 0.0
C1247 C 0.4724 0.53813 0.36213 0.0
C1248 C 0.47028 0.53533 0.2733 0.0
C1249 C 0.48477 0.56021 0.22402 0.0
C1250 C 0.50078 0.58736 0.25989 0.0
C1251 C 0.51249 0.61058 0.19112 0.0
C1252 C 0.50074 0.63157 0.20277 0.0
C1253 C 0.54576 0.62676 0.18983 0.0
C1254 C 0.50013 0.59208 0.11164 0.0
C1255 C 0.48472 0.56309 0.1326 0.0
C1256 C 0.47103 0.5416 0.07138 0.0
C1257 C 0.47242 0.54998 0.98613 0.0
C1258 C 0.48688 0.57958 0.96306 0.0
C1259 C 0.50152 0.60091 0.02642 0.0
loop_
_geom_bond_atom_site_label_1
_geom_bond_atom_site_label_2
_geom_bond_distance
_geom_bond_site_symmetry_2
_ccdc_geom_bond_type
Co0 H3 2.400 1_556 S
Co0 O4 2.009 1_556 S
Co0 O12 2.115 . S
Co0 O13 2.315 1_556 S
Co0 O24 2.053 . S
Co0 O27 2.094 . S
Co0 O30 2.122 . S
Co1 O4 2.126 . S
Co1 H5 2.388 1_554 S
Co1 O6 2.053 1_554 S
Co1 O9 2.047 . S
Co1 O15 2.113 . S
Co1 O26 2.063 . S
Co2 H3 2.388 1_556 S
Co2 O4 2.053 1_556 S
Co2 O6 2.126 . S
Co2 O11 2.063 . S
Co2 O25 2.047 . S
Co2 O31 2.113 . S
H3 Co0 2.400 1_554 S
H3 Co2 2.388 1_554 S
H3 O4 0.760 . S
O4 Co0 2.009 1_554 S
O4 Co1 2.126 . S
O4 Co2 2.053 1_554 S
O4 H3 0.760 . S
H5 Co1 2.388 1_556 S
H5 O6 0.760 . S
H5 Co7 2.400 1_556 S
O6 Co1 2.053 1_556 S
O6 Co2 2.126 . S
O6 H5 0.760 . S
O6 Co7 2.009 1_556 S
Co7 H5 2.400 1_554 S
Co7 O6 2.009 1_554 S
Co7 O8 2.053 . S
Co7 O10 2.094 . S
Co7 O14 2.122 . S
Co7 O28 2.115 . S
Co7 O29 2.315 1_554 S
O8 Co7 2.053 . S
O8 C20 1.259 . S
O9 Co1 2.047 . S
O9 C20 1.257 . S
O10 Co7 2.094 . S
O10 C21 1.253 . S
O11 Co2 2.063 . S
O11 C21 1.268 1_556 S
O12 Co0 2.115 . S
O12 C22 1.281 . S
O13 Co0 2.315 1_554 S
O13 C22 1.252 1_554 S
O14 Co7 2.122 . S
O14 C23 1.272 . S
O15 Co1 2.113 . S
O15 C23 1.245 . S
C16 O24 1.259 . S
C16 O25 1.257 . S
C17 O26 1.268 1_556 S
C17 O27 1.253 . S
C18 O28 1.281 . S
C18 O29 1.252 1_554 S
C19 O30 1.272 . S
C19 O31 1.245 . S
C20 O8 1.259 . S
C20 O9 1.257 . S
C21 O10 1.253 . S
C21 O11 1.268 1_554 S
C22 O12 1.281 . S
C22 O13 1.252 1_556 S
C23 O14 1.272 . S
C23 O15 1.245 . S
O24 Co0 2.053 . S
O24 C16 1.259 . S
O25 Co2 2.047 . S
O25 C16 1.257 . S
O26 Co1 2.063 . S
O26 C17 1.268 1_554 S
O27 Co0 2.094 . S
O27 C17 1.253 . S
O28 Co7 2.115 . S
O28 C18 1.281 . S
O29 Co7 2.315 1_556 S
O29 C18 1.252 1_556 S
O30 Co0 2.122 . S
O30 C19 1.272 . S
O31 Co2 2.113 . S
O31 C19 1.245 . S
Co32 H35 2.400 1_556 S
Co32 O36 2.009 1_556 S
Co32 O44 2.115 . S
Co32 O45 2.315 1_556 S
Co32 O56 2.053 . S
Co32 O59 2.094 . S
Co32 O62 2.122 . S
Co33 O36 2.126 . S
Co33 H37 2.388 1_554 S
Co33 O38 2.053 1_554 S
Co33 O41 2.047 . S
Co33 O47 2.113 . S
Co33 O58 2.063 . S
Co34 H35 2.388 1_556 S
Co34 O36 2.053 1_556 S
Co34 O38 2.126 . S
Co34 O43 2.063 . S
Co34 O57 2.047 . S
Co34 O63 2.113 . S
H35 Co32 2.400 1_554 S
H35 Co34 2.388 1_554 S
H35 O36 0.760 . S
O36 Co32 2.009 1_554 S
O36 Co33 2.126 . S
O36 Co34 2.053 1_554 S
O36 H35 0.760 . S
H37 Co33 2.388 1_556 S
H37 O38 0.760 . S
H37 Co39 2.400 1_556 S
O38 Co33 2.053 1_556 S
O38 Co34 2.126 . S
O38 H37 0.760 . S
O38 Co39 2.009 1_556 S
Co39 H37 2.400 1_554 S
Co39 O38 2.009 1_554 S
Co39 O40 2.053 . S
Co39 O42 2.094 . S
Co39 O46 2.122 . S
Co39 O60 2.115 . S
Co39 O61 2.315 1_554 S
O40 Co39 2.053 . S
O40 C52 1.259 . S
O41 Co33 2.047 . S
O41 C52 1.257 . S
O42 Co39 2.094 . S
O42 C53 1.253 . S
O43 Co34 2.063 . S
O43 C53 1.268 1_556 S
O44 Co32 2.115 . S
O44 C54 1.281 . S
O45 Co32 2.315 1_554 S
O45 C54 1.252 1_554 S
O46 Co39 2.122 . S
O46 C55 1.272 . S
O47 Co33 2.113 . S
O47 C55 1.245 . S
C48 O56 1.259 . S
C48 O57 1.257 . S
C49 O58 1.268 1_556 S
C49 O59 1.253 . S
C50 O60 1.281 . S
C50 O61 1.252 1_554 S
C51 O62 1.272 . S
C51 O63 1.245 . S
C52 O40 1.259 . S
C52 O41 1.257 . S
C53 O42 1.253 . S
C53 O43 1.268 1_554 S
C54 O44 1.281 . S
C54 O45 1.252 1_556 S
C55 O46 1.272 . S
C55 O47 1.245 . S
O56 Co32 2.053 . S
O56 C48 1.259 . S
O57 Co34 2.047 . S
O57 C48 1.257 . S
O58 Co33 2.063 . S
O58 C49 1.268 1_554 S
O59 Co32 2.094 . S
O59 C49 1.253 . S
O60 Co39 2.115 . S
O60 C50 1.281 . S
O61 Co39 2.315 1_556 S
O61 C50 1.252 1_556 S
O62 Co32 2.122 . S
O62 C51 1.272 . S
O63 Co34 2.113 . S
O63 C51 1.245 . S
Co64 H67 2.400 1_556 S
Co64 O68 2.009 1_556 S
Co64 O76 2.115 . S
Co64 O77 2.315 1_556 S
Co64 O88 2.053 . S
Co64 O91 2.094 . S
Co64 O94 2.122 . S
Co65 O68 2.126 . S
Co65 H69 2.388 1_554 S
Co65 O70 2.053 1_554 S
Co65 O73 2.047 . S
Co65 O79 2.113 . S
Co65 O90 2.063 . S
Co66 H67 2.388 1_556 S
Co66 O68 2.053 1_556 S
Co66 O70 2.126 . S
Co66 O75 2.063 . S
Co66 O89 2.047 . S
Co66 O95 2.113 . S
H67 Co64 2.400 1_554 S
H67 Co66 2.388 1_554 S
H67 O68 0.760 . S
O68 Co64 2.009 1_554 S
O68 Co65 2.126 . S
O68 Co66 2.053 1_554 S
O68 H67 0.760 . S
H69 Co65 2.388 1_556 S
H69 O70 0.760 . S
H69 Co71 2.400 1_556 S
O70 Co65 2.053 1_556 S
O70 Co66 2.126 . S
O70 H69 0.760 . S
O70 Co71 2.009 1_556 S
Co71 H69 2.400 1_554 S
Co71 O70 2.009 1_554 S
Co71 O72 2.053 . S
Co71 O74 2.094 . S
Co71 O78 2.122 . S
Co71 O92 2.115 . S
Co71 O93 2.315 1_554 S
O72 Co71 2.053 . S
O72 C84 1.259 . S
O73 Co65 2.047 . S
O73 C84 1.257 . S
O74 Co71 2.094 . S
O74 C85 1.253 . S
O75 Co66 2.063 . S
O75 C85 1.268 1_556 S
O76 Co64 2.115 . S
O76 C86 1.281 . S
O77 Co64 2.315 1_554 S
O77 C86 1.252 1_554 S
O78 Co71 2.122 . S
O78 C87 1.272 . S
O79 Co65 2.113 . S
O79 C87 1.245 . S
C80 O88 1.259 . S
C80 O89 1.257 . S
C81 O90 1.268 1_556 S
C81 O91 1.253 . S
C82 O92 1.281 . S
C82 O93 1.252 1_554 S
C83 O94 1.272 . S
C83 O95 1.245 . S
C84 O72 1.259 . S
C84 O73 1.257 . S
C85 O74 1.253 . S
C85 O75 1.268 1_554 S
C86 O76 1.281 . S
C86 O77 1.252 1_556 S
C87 O78 1.272 . S
C87 O79 1.245 . S
O88 Co64 2.053 . S
O88 C80 1.259 . S
O89 Co66 2.047 . S
O89 C80 1.257 . S
O90 Co65 2.063 . S
O90 C81 1.268 1_554 S
O91 Co64 2.094 . S
O91 C81 1.253 . S
O92 Co71 2.115 . S
O92 C82 1.281 . S
O93 Co71 2.315 1_556 S
O93 C82 1.252 1_556 S
O94 Co64 2.122 . S
O94 C83 1.272 . S
O95 Co66 2.113 . S
O95 C83 1.245 . S
Co96 H99 2.400 . S
Co96 O100 2.009 . S
Co96 O108 2.115 . S
Co96 O109 2.315 . S
Co96 O120 2.053 . S
Co96 O123 2.094 . S
Co96 O126 2.122 . S
Co97 O100 2.126 . S
Co97 H101 2.388 . S
Co97 O102 2.053 . S
Co97 O105 2.047 . S
Co97 O111 2.113 . S
Co97 O122 2.063 . S
Co98 H99 2.388 . S
Co98 O100 2.053 . S
Co98 O102 2.126 . S
Co98 O107 2.063 . S
Co98 O121 2.047 . S
Co98 O127 2.113 . S
H99 Co96 2.400 . S
H99 Co98 2.388 . S
H99 O100 0.760 . S
O100 Co96 2.009 . S
O100 Co97 2.126 . S
O100 Co98 2.053 . S
O100 H99 0.760 . S
H101 Co97 2.388 . S
H101 O102 0.760 . S
H101 Co103 2.400 . S
O102 Co97 2.053 . S
O102 Co98 2.126 . S
O102 H101 0.760 . S
O102 Co103 2.009 . S
Co103 H101 2.400 . S
Co103 O102 2.009 . S
Co103 O104 2.053 . S
Co103 O106 2.094 . S
Co103 O110 2.122 . S
Co103 O124 2.115 . S
Co103 O125 2.315 . S
O104 Co103 2.053 . S
O104 C116 1.259 . S
O105 Co97 2.047 . S
O105 C116 1.257 . S
O106 Co103 2.094 . S
O106 C117 1.253 . S
O107 Co98 2.063 . S
O107 C117 1.268 . S
O108 Co96 2.115 . S
O108 C118 1.281 . S
O109 Co96 2.315 . S
O109 C118 1.252 . S
O110 Co103 2.122 . S
O110 C119 1.272 . S
O111 Co97 2.113 . S
O111 C119 1.245 . S
C112 O120 1.259 . S
C112 O121 1.257 . S
C113 O122 1.268 . S
C113 O123 1.253 . S
C114 O124 1.281 . S
C114 O125 1.252 . S
C115 O126 1.272 . S
C115 O127 1.245 . S
C116 O104 1.259 . S
C116 O105 1.257 . S
C117 O106 1.253 . S
C117 O107 1.268 . S
C118 O108 1.281 . S
C118 O109 1.252 . S
C119 O110 1.272 . S
C119 O111 1.245 . S
O120 Co96 2.053 . S
O120 C112 1.259 . S
O121 Co98 2.047 . S
O121 C112 1.257 . S
O122 Co97 2.063 . S
O122 C113 1.268 . S
O123 Co96 2.094 . S
O123 C113 1.253 . S
O124 Co103 2.115 . S
O124 C114 1.281 . S
O125 Co103 2.315 . S
O125 C114 1.252 . S
O126 Co96 2.122 . S
O126 C115 1.272 . S
O127 Co98 2.113 . S
O127 C115 1.245 . S
Co128 H131 2.400 . S
Co128 O132 2.009 . S
Co128 O140 2.115 . S
Co128 O141 2.315 . S
Co128 O152 2.053 . S
Co128 O155 2.094 . S
Co128 O158 2.122 . S
Co129 O132 2.126 . S
Co129 H133 2.388 . S
Co129 O134 2.053 . S
Co129 O137 2.047 . S
Co129 O143 2.113 . S
Co129 O154 2.063 . S
Co130 H131 2.388 . S
Co130 O132 2.053 . S
Co130 O134 2.126 . S
Co130 O139 2.063 . S
Co130 O153 2.047 . S
Co130 O159 2.113 . S
H131 Co128 2.400 . S
H131 Co130 2.388 . S
H131 O132 0.760 . S
O132 Co128 2.009 . S
O132 Co129 2.126 . S
O132 Co130 2.053 . S
O132 H131 0.760 . S
H133 Co129 2.388 . S
H133 O134 0.760 . S
H133 Co135 2.400 . S
O134 Co129 2.053 . S
O134 Co130 2.126 . S
O134 H133 0.760 . S
O134 Co135 2.009 . S
Co135 H133 2.400 . S
Co135 O134 2.009 . S
Co135 O136 2.053 . S
Co135 O138 2.094 . S
Co135 O142 2.122 . S
Co135 O156 2.115 . S
Co135 O157 2.315 . S
O136 Co135 2.053 . S
O136 C148 1.259 . S
O137 Co129 2.047 . S
O137 C148 1.257 . S
O138 Co135 2.094 . S
O138 C149 1.253 . S
O139 Co130 2.063 . S
O139 C149 1.268 . S
O140 Co128 2.115 . S
O140 C150 1.281 . S
O141 Co128 2.315 . S
O141 C150 1.252 . S
O142 Co135 2.122 . S
O142 C151 1.272 . S
O143 Co129 2.113 . S
O143 C151 1.245 . S
C144 O152 1.259 . S
C144 O153 1.257 . S
C145 O154 1.268 . S
C145 O155 1.253 . S
C146 O156 1.281 . S
C146 O157 1.252 . S
C147 O158 1.272 . S
C147 O159 1.245 . S
C148 O136 1.259 . S
C148 O137 1.257 . S
C149 O138 1.253 . S
C149 O139 1.268 . S
C150 O140 1.281 . S
C150 O141 1.252 . S
C151 O142 1.272 . S
C151 O143 1.245 . S
O152 Co128 2.053 . S
O152 C144 1.259 . S
O153 Co130 2.047 . S
O153 C144 1.257 . S
O154 Co129 2.063 . S
O154 C145 1.268 . S
O155 Co128 2.094 . S
O155 C145 1.253 . S
O156 Co135 2.115 . S
O156 C146 1.281 . S
O157 Co135 2.315 . S
O157 C146 1.252 . S
O158 Co128 2.122 . S
O158 C147 1.272 . S
O159 Co130 2.113 . S
O159 C147 1.245 . S
Co160 H163 2.400 . S
Co160 O164 2.009 . S
Co160 O172 2.115 . S
Co160 O173 2.315 . S
Co160 O184 2.053 . S
Co160 O187 2.094 . S
Co160 O190 2.122 . S
Co161 O164 2.126 . S
Co161 H165 2.388 . S
Co161 O166 2.053 . S
Co161 O169 2.047 . S
Co161 O175 2.113 . S
Co161 O186 2.063 . S
Co162 H163 2.388 . S
Co162 O164 2.053 . S
Co162 O166 2.126 . S
Co162 O171 2.063 . S
Co162 O185 2.047 . S
Co162 O191 2.113 . S
H163 Co160 2.400 . S
H163 Co162 2.388 . S
H163 O164 0.760 . S
O164 Co160 2.009 . S
O164 Co161 2.126 . S
O164 Co162 2.053 . S
O164 H163 0.760 . S
H165 Co161 2.388 . S
H165 O166 0.760 . S
H165 Co167 2.400 . S
O166 Co161 2.053 . S
O166 Co162 2.126 . S
O166 H165 0.760 . S
O166 Co167 2.009 . S
Co167 H165 2.400 . S
Co167 O166 2.009 . S
Co167 O168 2.053 . S
Co167 O170 2.094 . S
Co167 O174 2.122 . S
Co167 O188 2.115 . S
Co167 O189 2.315 . S
O168 Co167 2.053 . S
O168 C180 1.259 . S
O169 Co161 2.047 . S
O169 C180 1.257 . S
O170 Co167 2.094 . S
O170 C181 1.253 . S
O171 Co162 2.063 . S
O171 C181 1.268 . S
O172 Co160 2.115 . S
O172 C182 1.281 . S
O173 Co160 2.315 . S
O173 C182 1.252 . S
O174 Co167 2.122 . S
O174 C183 1.272 . S
O175 Co161 2.113 . S
O175 C183 1.245 . S
C176 O184 1.259 . S
C176 O185 1.257 . S
C177 O186 1.268 . S
C177 O187 1.253 . S
C178 O188 1.281 . S
C178 O189 1.252 . S
C179 O190 1.272 . S
C179 O191 1.245 . S
C180 O168 1.259 . S
C180 O169 1.257 . S
C181 O170 1.253 . S
C181 O171 1.268 . S
C182 O172 1.281 . S
C182 O173 1.252 . S
C183 O174 1.272 . S
C183 O175 1.245 . S
O184 Co160 2.053 . S
O184 C176 1.259 . S
O185 Co162 2.047 . S
O185 C176 1.257 . S
O186 Co161 2.063 . S
O186 C177 1.268 . S
O187 Co160 2.094 . S
O187 C177 1.253 . S
O188 Co167 2.115 . S
O188 C178 1.281 . S
O189 Co167 2.315 . S
O189 C178 1.252 . S
O190 Co160 2.122 . S
O190 C179 1.272 . S
O191 Co162 2.113 . S
O191 C179 1.245 . S
Co192 H195 2.400 . S
Co192 O196 2.009 . S
Co192 O204 2.115 . S
Co192 O205 2.315 . S
Co192 O216 2.053 . S
Co192 O219 2.094 . S
Co192 O222 2.122 . S
Co193 O196 2.126 . S
Co193 H197 2.388 . S
Co193 O198 2.053 . S
Co193 O201 2.047 . S
Co193 O207 2.113 . S
Co193 O218 2.063 . S
Co194 H195 2.388 . S
Co194 O196 2.053 . S
Co194 O198 2.126 . S
Co194 O203 2.063 . S
Co194 O217 2.047 . S
Co194 O223 2.113 . S
H195 Co192 2.400 . S
H195 Co194 2.388 . S
H195 O196 0.760 . S
O196 Co192 2.009 . S
O196 Co193 2.126 . S
O196 Co194 2.053 . S
O196 H195 0.760 . S
H197 Co193 2.388 . S
H197 O198 0.760 . S
H197 Co199 2.400 . S
O198 Co193 2.053 . S
O198 Co194 2.126 . S
O198 H197 0.760 . S
O198 Co199 2.009 . S
Co199 H197 2.400 . S
Co199 O198 2.009 . S
Co199 O200 2.053 . S
Co199 O202 2.094 . S
Co199 O206 2.122 . S
Co199 O220 2.115 . S
Co199 O221 2.315 . S
O200 Co199 2.053 . S
O200 C212 1.259 . S
O201 Co193 2.047 . S
O201 C212 1.257 . S
O202 Co199 2.094 . S
O202 C213 1.253 . S
O203 Co194 2.063 . S
O203 C213 1.268 . S
O204 Co192 2.115 . S
O204 C214 1.281 . S
O205 Co192 2.315 . S
O205 C214 1.252 . S
O206 Co199 2.122 . S
O206 C215 1.272 . S
O207 Co193 2.113 . S
O207 C215 1.245 . S
C208 O216 1.259 . S
C208 O217 1.257 . S
C209 O218 1.268 . S
C209 O219 1.253 . S
C210 O220 1.281 . S
C210 O221 1.252 . S
C211 O222 1.272 . S
C211 O223 1.245 . S
C212 O200 1.259 . S
C212 O201 1.257 . S
C213 O202 1.253 . S
C213 O203 1.268 . S
C214 O204 1.281 . S
C214 O205 1.252 . S
C215 O206 1.272 . S
C215 O207 1.245 . S
O216 Co192 2.053 . S
O216 C208 1.259 . S
O217 Co194 2.047 . S
O217 C208 1.257 . S
O218 Co193 2.063 . S
O218 C209 1.268 . S
O219 Co192 2.094 . S
O219 C209 1.253 . S
O220 Co199 2.115 . S
O220 C210 1.281 . S
O221 Co199 2.315 . S
O221 C210 1.252 . S
O222 Co192 2.122 . S
O222 C211 1.272 . S
O223 Co194 2.113 . S
O223 C211 1.245 . S
Co224 H227 2.400 . S
Co224 O228 2.009 . S
Co224 O236 2.115 . S
Co224 O237 2.315 . S
Co224 O248 2.053 . S
Co224 O251 2.094 . S
Co224 O254 2.122 . S
Co225 O228 2.126 . S
Co225 H229 2.388 . S
Co225 O230 2.053 . S
Co225 O233 2.047 . S
Co225 O239 2.113 . S
Co225 O250 2.063 . S
Co226 H227 2.388 . S
Co226 O228 2.053 . S
Co226 O230 2.126 . S
Co226 O235 2.063 . S
Co226 O249 2.047 . S
Co226 O255 2.113 . S
H227 Co224 2.400 . S
H227 Co226 2.388 . S
H227 O228 0.760 . S
O228 Co224 2.009 . S
O228 Co225 2.126 . S
O228 Co226 2.053 . S
O228 H227 0.760 . S
H229 Co225 2.388 . S
H229 O230 0.760 . S
H229 Co231 2.400 . S
O230 Co225 2.053 . S
O230 Co226 2.126 . S
O230 H229 0.760 . S
O230 Co231 2.009 . S
Co231 H229 2.400 . S
Co231 O230 2.009 . S
Co231 O232 2.053 . S
Co231 O234 2.094 . S
Co231 O238 2.122 . S
Co231 O252 2.115 . S
Co231 O253 2.315 . S
O232 Co231 2.053 . S
O232 C244 1.259 . S
O233 Co225 2.047 . S
O233 C244 1.257 . S
O234 Co231 2.094 . S
O234 C245 1.253 . S
O235 Co226 2.063 . S
O235 C245 1.268 . S
O236 Co224 2.115 . S
O236 C246 1.281 . S
O237 Co224 2.315 . S
O237 C246 1.252 . S
O238 Co231 2.122 . S
O238 C247 1.272 . S
O239 Co225 2.113 . S
O239 C247 1.245 . S
C240 O248 1.259 . S
C240 O249 1.257 . S
C241 O250 1.268 . S
C241 O251 1.253 . S
C242 O252 1.281 . S
C242 O253 1.252 . S
C243 O254 1.272 . S
C243 O255 1.245 . S
C244 O232 1.259 . S
C244 O233 1.257 . S
C245 O234 1.253 . S
C245 O235 1.268 . S
C246 O236 1.281 . S
C246 O237 1.252 . S
C247 O238 1.272 . S
C247 O239 1.245 . S
O248 Co224 2.053 . S
O248 C240 1.259 . S
O249 Co226 2.047 . S
O249 C240 1.257 . S
O250 Co225 2.063 . S
O250 C241 1.268 . S
O251 Co224 2.094 . S
O251 C241 1.253 . S
O252 Co231 2.115 . S
O252 C242 1.281 . S
O253 Co231 2.315 . S
O253 C242 1.252 . S
O254 Co224 2.122 . S
O254 C243 1.272 . S
O255 Co226 2.113 . S
O255 C243 1.245 . S
Co256 H259 2.400 . S
Co256 O260 2.009 . S
Co256 O268 2.115 . S
Co256 O269 2.315 . S
Co256 O280 2.053 . S
Co256 O283 2.094 . S
Co256 O286 2.122 . S
Co257 O260 2.126 . S
Co257 H261 2.388 . S
Co257 O262 2.053 . S
Co257 O265 2.047 . S
Co257 O271 2.113 . S
Co257 O282 2.063 . S
Co258 H259 2.388 . S
Co258 O260 2.053 . S
Co258 O262 2.126 . S
Co258 O267 2.063 . S
Co258 O281 2.047 . S
Co258 O287 2.113 . S
H259 Co256 2.400 . S
H259 Co258 2.388 . S
H259 O260 0.760 . S
O260 Co256 2.009 . S
O260 Co257 2.126 . S
O260 Co258 2.053 . S
O260 H259 0.760 . S
H261 Co257 2.388 . S
H261 O262 0.760 . S
H261 Co263 2.400 . S
O262 Co257 2.053 . S
O262 Co258 2.126 . S
O262 H261 0.760 . S
O262 Co263 2.009 . S
Co263 H261 2.400 . S
Co263 O262 2.009 . S
Co263 O264 2.053 . S
Co263 O266 2.094 . S
Co263 O270 2.122 . S
Co263 O284 2.115 . S
Co263 O285 2.315 . S
O264 Co263 2.053 . S
O264 C276 1.259 . S
O265 Co257 2.047 . S
O265 C276 1.257 . S
O266 Co263 2.094 . S
O266 C277 1.253 . S
O267 Co258 2.063 . S
O267 C277 1.268 . S
O268 Co256 2.115 . S
O268 C278 1.281 . S
O269 Co256 2.315 . S
O269 C278 1.252 . S
O270 Co263 2.122 . S
O270 C279 1.272 . S
O271 Co257 2.113 . S
O271 C279 1.245 . S
C272 O280 1.259 . S
C272 O281 1.257 . S
C273 O282 1.268 . S
C273 O283 1.253 . S
C274 O284 1.281 . S
C274 O285 1.252 . S
C275 O286 1.272 . S
C275 O287 1.245 . S
C276 O264 1.259 . S
C276 O265 1.257 . S
C277 O266 1.253 . S
C277 O267 1.268 . S
C278 O268 1.281 . S
C278 O269 1.252 . S
C279 O270 1.272 . S
C279 O271 1.245 . S
O280 Co256 2.053 . S
O280 C272 1.259 . S
O281 Co258 2.047 . S
O281 C272 1.257 . S
O282 Co257 2.063 . S
O282 C273 1.268 . S
O283 Co256 2.094 . S
O283 C273 1.253 . S
O284 Co263 2.115 . S
O284 C274 1.281 . S
O285 Co263 2.315 . S
O285 C274 1.252 . S
O286 Co256 2.122 . S
O286 C275 1.272 . S
O287 Co258 2.113 . S
O287 C275 1.245 . S
H288 C300 0.930 . S
H289 C302 0.930 1_556 S
H290 C303 0.930 . S
H291 C307 0.959 . S
H292 C307 0.959 . S
H293 C307 0.961 . S
H294 C308 0.960 . S
H295 C308 0.961 . S
H296 C308 0.959 . S
H297 C311 0.929 . S
H298 C312 0.931 . S
H299 C314 0.930 . S
C300 H288 0.930 . S
C300 C301 1.399 . S
C300 C305 1.399 . S
C301 C300 1.399 . S
C301 C302 1.376 . S
C302 H289 0.930 1_554 S
C302 C301 1.376 . S
C302 C303 1.388 . S
C303 H290 0.930 . S
C303 C302 1.388 . S
C303 C304 1.390 . S
C304 C303 1.390 . S
C304 C305 1.394 . S
C304 C310 1.465 . S
C305 C300 1.399 . S
C305 C304 1.394 . S
C305 C306 1.516 . S
C306 C305 1.516 . S
C306 C307 1.502 . S
C306 C308 1.561 . S
C306 C309 1.526 . S
C307 H291 0.959 . S
C307 H292 0.959 . S
C307 H293 0.961 . S
C307 C306 1.502 . S
C308 H294 0.960 . S
C308 H295 0.961 . S
C308 H296 0.959 . S
C308 C306 1.561 . S
C309 C306 1.526 . S
C309 C310 1.396 . S
C309 C314 1.390 . S
C310 C304 1.465 . S
C310 C309 1.396 . S
C310 C311 1.399 . S
C311 H297 0.929 . S
C311 C310 1.399 . S
C311 C312 1.385 . S
C312 H298 0.931 . S
C312 C311 1.385 . S
C312 C313 1.389 . S
C313 C312 1.389 . S
C313 C314 1.387 . S
C314 H299 0.930 . S
C314 C309 1.390 . S
C314 C313 1.387 . S
H315 C327 0.930 . S
H316 C329 0.930 . S
H317 C330 0.930 . S
H318 C334 0.959 . S
H319 C334 0.959 . S
H320 C334 0.961 . S
H321 C335 0.960 1_545 S
H322 C335 0.961 . S
H323 C335 0.959 . S
H324 C338 0.929 . S
H325 C339 0.931 . S
H326 C341 0.930 . S
C327 H315 0.930 . S
C327 C328 1.399 . S
C327 C332 1.399 . S
C328 C327 1.399 . S
C328 C329 1.376 . S
C329 H316 0.930 . S
C329 C328 1.376 . S
C329 C330 1.388 . S
C330 H317 0.930 . S
C330 C329 1.388 . S
C330 C331 1.390 . S
C331 C330 1.390 . S
C331 C332 1.394 . S
C331 C337 1.465 . S
C332 C327 1.399 . S
C332 C331 1.394 . S
C332 C333 1.516 . S
C333 C332 1.516 . S
C333 C334 1.502 . S
C333 C335 1.561 1_545 S
C333 C336 1.526 . S
C334 H318 0.959 . S
C334 H319 0.959 . S
C334 H320 0.961 . S
C334 C333 1.502 . S
C335 H321 0.960 1_565 S
C335 H322 0.961 . S
C335 H323 0.959 . S
C335 C333 1.561 1_565 S
C336 C333 1.526 . S
C336 C337 1.396 . S
C336 C341 1.390 1_545 S
C337 C331 1.465 . S
C337 C336 1.396 . S
C337 C338 1.399 1_554 S
C338 H324 0.929 . S
C338 C337 1.399 1_556 S
C338 C339 1.385 1_545 S
C339 H325 0.931 . S
C339 C338 1.385 1_565 S
C339 C340 1.389 1_556 S
C340 C339 1.389 1_554 S
C340 C341 1.387 . S
C341 H326 0.930 . S
C341 C336 1.390 1_565 S
C341 C340 1.387 . S
H342 C354 0.930 . S
H343 C356 0.926 1_556 S
H344 C357 0.930 . S
H345 C361 0.959 . S
H346 C361 0.959 . S
H347 C361 0.961 1_455 S
H348 C362 0.960 . S
H349 C362 0.961 1_655 S
H350 C362 0.959 1_655 S
H351 C365 0.929 . S
H352 C366 0.931 . S
H353 C368 0.930 . S
C354 H342 0.930 . S
C354 C355 1.399 . S
C354 C359 1.399 1_455 S
C355 C354 1.399 . S
C355 C356 1.389 . S
C356 H343 0.926 1_554 S
C356 C355 1.389 . S
C356 C357 1.380 1_455 S
C357 H344 0.930 . S
C357 C356 1.380 1_655 S
C357 C358 1.390 . S
C358 C357 1.390 . S
C358 C359 1.394 . S
C358 C364 1.465 . S
C359 C354 1.399 1_655 S
C359 C358 1.394 . S
C359 C360 1.516 . S
C360 C359 1.516 . S
C360 C361 1.502 . S
C360 C362 1.561 1_655 S
C360 C363 1.526 . S
C361 H345 0.959 . S
C361 H346 0.959 . S
C361 H347 0.961 1_655 S
C361 C360 1.502 . S
C362 H348 0.960 . S
C362 H349 0.961 1_455 S
C362 H350 0.959 1_455 S
C362 C360 1.561 1_455 S
C363 C360 1.526 . S
C363 C364 1.396 . S
C363 C368 1.390 . S
C364 C358 1.465 . S
C364 C363 1.396 . S
C364 C365 1.399 . S
C365 H351 0.929 . S
C365 C364 1.399 . S
C365 C366 1.385 . S
C366 H352 0.931 . S
C366 C365 1.385 . S
C366 C367 1.389 . S
C367 C366 1.389 . S
C367 C368 1.387 . S
C368 H353 0.930 . S
C368 C363 1.390 . S
C368 C367 1.387 . S
H369 C381 0.930 . S
H370 C383 0.930 . S
H371 C384 0.930 . S
H372 C388 0.959 . S
H373 C388 0.959 . S
H374 C388 0.961 . S
H375 C389 0.960 . S
H376 C389 0.961 . S
H377 C389 0.959 . S
H378 C392 0.929 . S
H379 C393 0.931 . S
H380 C395 0.930 . S
C381 H369 0.930 . S
C381 C382 1.399 . S
C381 C386 1.399 . S
C382 C381 1.399 . S
C382 C383 1.376 1_554 S
C383 H370 0.930 . S
C383 C382 1.376 1_556 S
C383 C384 1.388 . S
C384 H371 0.930 . S
C384 C383 1.388 . S
C384 C385 1.390 1_556 S
C385 C384 1.390 1_554 S
C385 C386 1.394 . S
C385 C391 1.465 . S
C386 C381 1.399 . S
C386 C385 1.394 . S
C386 C387 1.516 . S
C387 C386 1.516 . S
C387 C388 1.502 . S
C387 C389 1.561 . S
C387 C390 1.526 . S
C388 H372 0.959 . S
C388 H373 0.959 . S
C388 H374 0.961 . S
C388 C387 1.502 . S
C389 H375 0.960 . S
C389 H376 0.961 . S
C389 H377 0.959 . S
C389 C387 1.561 . S
C390 C387 1.526 . S
C390 C391 1.396 . S
C390 C395 1.390 . S
C391 C385 1.465 . S
C391 C390 1.396 . S
C391 C392 1.399 . S
C392 H378 0.929 . S
C392 C391 1.399 . S
C392 C393 1.385 . S
C393 H379 0.931 . S
C393 C392 1.385 . S
C393 C394 1.389 . S
C394 C393 1.389 . S
C394 C395 1.387 . S
C395 H380 0.930 . S
C395 C390 1.390 . S
C395 C394 1.387 . S
H396 C408 0.930 1_565 S
H397 C410 0.930 1_556 S
H398 C411 0.930 . S
H399 C415 0.959 . S
H400 C415 0.959 . S
H401 C415 0.961 . S
H402 C416 0.960 . S
H403 C416 0.961 . S
H404 C416 0.959 . S
H405 C419 0.929 . S
H406 C420 0.931 . S
H407 C422 0.930 . S
C408 H396 0.930 1_545 S
C408 C409 1.399 . S
C408 C413 1.399 . S
C409 C408 1.399 . S
C409 C410 1.376 . S
C410 H397 0.930 1_554 S
C410 C409 1.376 . S
C410 C411 1.388 . S
C411 H398 0.930 . S
C411 C410 1.388 . S
C411 C412 1.390 . S
C412 C411 1.390 . S
C412 C413 1.394 . S
C412 C418 1.465 . S
C413 C408 1.399 . S
C413 C412 1.394 . S
C413 C414 1.516 . S
C414 C413 1.516 . S
C414 C415 1.502 . S
C414 C416 1.561 . S
C414 C417 1.526 . S
C415 H399 0.959 . S
C415 H400 0.959 . S
C415 H401 0.961 . S
C415 C414 1.502 . S
C416 H402 0.960 . S
C416 H403 0.961 . S
C416 H404 0.959 . S
C416 C414 1.561 . S
C417 C414 1.526 . S
C417 C418 1.396 . S
C417 C422 1.390 . S
C418 C412 1.465 . S
C418 C417 1.396 . S
C418 C419 1.399 . S
C419 H405 0.929 . S
C419 C418 1.399 . S
C419 C420 1.385 . S
C420 H406 0.931 . S
C420 C419 1.385 . S
C420 C421 1.389 . S
C421 C420 1.389 . S
C421 C422 1.387 . S
C422 H407 0.930 . S
C422 C417 1.390 . S
C422 C421 1.387 . S
H423 C435 0.930 . S
H424 C437 0.930 . S
H425 C438 0.930 . S
H426 C442 0.959 1_556 S
H427 C442 0.959 . S
H428 C442 0.961 1_556 S
H429 C443 0.960 . S
H430 C443 0.961 . S
H431 C443 0.959 . S
H432 C446 0.929 . S
H433 C447 0.931 . S
H434 C449 0.930 . S
C435 H423 0.930 . S
C435 C436 1.430 . S
C435 C440 1.399 . S
C436 C435 1.430 . S
C436 C437 1.383 1_655 S
C437 H424 0.930 . S
C437 C436 1.383 1_455 S
C437 C438 1.388 1_455 S
C438 H425 0.930 . S
C438 C437 1.388 1_655 S
C438 C439 1.390 . S
C439 C438 1.390 . S
C439 C440 1.394 . S
C439 C445 1.465 . S
C440 C435 1.399 . S
C440 C439 1.394 . S
C440 C441 1.516 . S
C441 C440 1.516 . S
C441 C442 1.502 . S
C441 C443 1.561 . S
C441 C444 1.526 . S
C442 H426 0.959 1_554 S
C442 H427 0.959 . S
C442 H428 0.961 1_554 S
C442 C441 1.502 . S
C443 H429 0.960 . S
C443 H430 0.961 . S
C443 H431 0.959 . S
C443 C441 1.561 . S
C444 C441 1.526 . S
C444 C445 1.396 . S
C444 C449 1.390 . S
C445 C439 1.465 . S
C445 C444 1.396 . S
C445 C446 1.399 . S
C446 H432 0.929 . S
C446 C445 1.399 . S
C446 C447 1.385 . S
C447 H433 0.931 . S
C447 C446 1.385 . S
C447 C448 1.389 . S
C448 C447 1.389 . S
C448 C449 1.387 . S
C449 H434 0.930 . S
C449 C444 1.390 . S
C449 C448 1.387 . S
H450 C462 0.930 . S
H451 C464 0.930 . S
H452 C465 0.930 . S
H453 C469 0.959 . S
H454 C469 0.959 . S
H455 C469 0.961 . S
H456 C470 0.960 . S
H457 C470 0.961 . S
H458 C470 0.959 . S
H459 C473 0.929 . S
H460 C474 0.931 . S
H461 C476 0.930 1_455 S
C462 H450 0.930 . S
C462 C463 1.399 . S
C462 C467 1.399 . S
C463 C462 1.399 . S
C463 C464 1.376 . S
C464 H451 0.930 . S
C464 C463 1.376 . S
C464 C465 1.388 . S
C465 H452 0.930 . S
C465 C464 1.388 . S
C465 C466 1.390 . S
C466 C465 1.390 . S
C466 C467 1.394 . S
C466 C472 1.465 . S
C467 C462 1.399 . S
C467 C466 1.394 . S
C467 C468 1.516 . S
C468 C467 1.516 . S
C468 C469 1.502 . S
C468 C470 1.561 . S
C468 C471 1.526 . S
C469 H453 0.959 . S
C469 H454 0.959 . S
C469 H455 0.961 . S
C469 C468 1.502 . S
C470 H456 0.960 . S
C470 H457 0.961 . S
C470 H458 0.959 . S
C470 C468 1.561 . S
C471 C468 1.526 . S
C471 C472 1.396 . S
C471 C476 1.390 . S
C472 C466 1.465 . S
C472 C471 1.396 . S
C472 C473 1.399 . S
C473 H459 0.929 . S
C473 C472 1.399 . S
C473 C474 1.385 . S
C474 H460 0.931 . S
C474 C473 1.385 . S
C474 C475 1.389 . S
C475 C474 1.389 . S
C475 C476 1.387 . S
C476 H461 0.930 1_655 S
C476 C471 1.390 . S
C476 C475 1.387 . S
H477 C489 0.930 . S
H478 C491 0.930 . S
H479 C492 0.930 . S
H480 C496 0.959 . S
H481 C496 0.959 . S
H482 C496 0.961 . S
H483 C497 0.960 . S
H484 C497 0.961 . S
H485 C497 0.959 . S
H486 C500 0.929 . S
H487 C501 0.931 . S
H488 C503 0.930 . S
C489 H477 0.930 . S
C489 C490 1.399 . S
C489 C494 1.399 . S
C490 C489 1.399 . S
C490 C491 1.376 . S
C491 H478 0.930 . S
C491 C490 1.376 . S
C491 C492 1.388 . S
C492 H479 0.930 . S
C492 C491 1.388 . S
C492 C493 1.390 . S
C493 C492 1.390 . S
C493 C494 1.394 . S
C493 C499 1.465 . S
C494 C489 1.399 . S
C494 C493 1.394 . S
C494 C495 1.516 . S
C495 C494 1.516 . S
C495 C496 1.502 . S
C495 C497 1.561 . S
C495 C498 1.526 . S
C496 H480 0.959 . S
C496 H481 0.959 . S
C496 H482 0.961 . S
C496 C495 1.502 . S
C497 H483 0.960 . S
C497 H484 0.961 . S
C497 H485 0.959 . S
C497 C495 1.561 . S
C498 C495 1.526 . S
C498 C499 1.396 . S
C498 C503 1.390 . S
C499 C493 1.465 . S
C499 C498 1.396 . S
C499 C500 1.399 . S
C500 H486 0.929 . S
C500 C499 1.399 . S
C500 C501 1.385 . S
C501 H487 0.931 . S
C501 C500 1.385 . S
C501 C502 1.389 . S
C502 C501 1.389 . S
C502 C503 1.387 . S
C503 H488 0.930 . S
C503 C498 1.390 . S
C503 C502 1.387 . S
H504 C516 0.930 . S
H505 C518 0.930 . S
H506 C519 0.930 . S
H507 C523 0.959 . S
H508 C523 0.959 . S
H509 C523 0.961 . S
H510 C524 0.960 . S
H511 C524 0.961 . S
H512 C524 0.959 . S
H513 C527 0.929 . S
H514 C528 0.931 . S
H515 C530 0.930 . S
C516 H504 0.930 . S
C516 C517 1.399 . S
C516 C521 1.399 . S
C517 C516 1.399 . S
C517 C518 1.376 1_545 S
C518 H505 0.930 . S
C518 C517 1.376 1_565 S
C518 C519 1.388 1_565 S
C519 H506 0.930 . S
C519 C518 1.388 1_545 S
C519 C520 1.390 . S
C520 C519 1.390 . S
C520 C521 1.394 . S
C520 C526 1.465 . S
C521 C516 1.399 . S
C521 C520 1.394 . S
C521 C522 1.516 . S
C522 C521 1.516 . S
C522 C523 1.502 . S
C522 C524 1.561 . S
C522 C525 1.526 . S
C523 H507 0.959 . S
C523 H508 0.959 . S
C523 H509 0.961 . S
C523 C522 1.502 . S
C524 H510 0.960 . S
C524 H511 0.961 . S
C524 H512 0.959 . S
C524 C522 1.561 . S
C525 C522 1.526 . S
C525 C526 1.396 . S
C525 C530 1.390 . S
C526 C520 1.465 . S
C526 C525 1.396 . S
C526 C527 1.399 . S
C527 H513 0.929 . S
C527 C526 1.399 . S
C527 C528 1.385 . S
C528 H514 0.931 . S
C528 C527 1.385 . S
C528 C529 1.389 . S
C529 C528 1.389 . S
C529 C530 1.387 . S
C530 H515 0.930 . S
C530 C525 1.390 . S
C530 C529 1.387 . S
H531 C543 0.930 . S
H532 C545 0.930 . S
H533 C546 0.930 . S
H534 C550 0.959 . S
H535 C550 0.959 . S
H536 C550 0.961 . S
H537 C551 0.960 . S
H538 C551 0.961 . S
H539 C551 0.959 . S
H540 C554 0.929 . S
H541 C555 0.931 . S
H542 C557 0.930 . S
C543 H531 0.930 . S
C543 C544 1.399 . S
C543 C548 1.399 . S
C544 C543 1.399 . S
C544 C545 1.376 . S
C545 H532 0.930 . S
C545 C544 1.376 . S
C545 C546 1.388 . S
C546 H533 0.930 . S
C546 C545 1.388 . S
C546 C547 1.390 . S
C547 C546 1.390 . S
C547 C548 1.394 . S
C547 C553 1.465 . S
C548 C543 1.399 . S
C548 C547 1.394 . S
C548 C549 1.516 . S
C549 C548 1.516 . S
C549 C550 1.502 . S
C549 C551 1.561 . S
C549 C552 1.526 . S
C550 H534 0.959 . S
C550 H535 0.959 . S
C550 H536 0.961 . S
C550 C549 1.502 . S
C551 H537 0.960 . S
C551 H538 0.961 . S
C551 H539 0.959 . S
C551 C549 1.561 . S
C552 C549 1.526 . S
C552 C553 1.396 . S
C552 C557 1.390 . S
C553 C547 1.465 . S
C553 C552 1.396 . S
C553 C554 1.399 . S
C554 H540 0.929 . S
C554 C553 1.399 . S
C554 C555 1.385 1_545 S
C555 H541 0.931 . S
C555 C554 1.385 1_565 S
C555 C556 1.389 1_565 S
C556 C555 1.389 1_545 S
C556 C557 1.387 . S
C557 H542 0.930 . S
C557 C552 1.390 . S
C557 C556 1.387 . S
H558 C570 0.930 1_455 S
H559 C572 0.930 . S
H560 C573 0.930 . S
H561 C577 0.959 . S
H562 C577 0.959 . S
H563 C577 0.961 . S
H564 C578 0.960 . S
H565 C578 0.961 . S
H566 C578 0.959 . S
H567 C581 0.929 . S
H568 C582 0.931 . S
H569 C584 0.930 . S
C570 H558 0.930 1_655 S
C570 C571 1.399 . S
C570 C575 1.399 . S
C571 C570 1.399 . S
C571 C572 1.376 . S
C572 H559 0.930 . S
C572 C571 1.376 . S
C572 C573 1.388 . S
C573 H560 0.930 . S
C573 C572 1.388 . S
C573 C574 1.390 . S
C574 C573 1.390 . S
C574 C575 1.394 . S
C574 C580 1.465 . S
C575 C570 1.399 . S
C575 C574 1.394 . S
C575 C576 1.516 . S
C576 C575 1.516 . S
C576 C577 1.502 . S
C576 C578 1.561 . S
C576 C579 1.526 . S
C577 H561 0.959 . S
C577 H562 0.959 . S
C577 H563 0.961 . S
C577 C576 1.502 . S
C578 H564 0.960 . S
C578 H565 0.961 . S
C578 H566 0.959 . S
C578 C576 1.561 . S
C579 C576 1.526 . S
C579 C580 1.396 . S
C579 C584 1.390 . S
C580 C574 1.465 . S
C580 C579 1.396 . S
C580 C581 1.399 . S
C581 H567 0.929 . S
C581 C580 1.399 . S
C581 C582 1.385 . S
C582 H568 0.931 . S
C582 C581 1.385 . S
C582 C583 1.389 . S
C583 C582 1.389 . S
C583 C584 1.387 . S
C584 H569 0.930 . S
C584 C579 1.390 . S
C584 C583 1.387 . S
H585 C597 0.930 . S
H586 C599 0.930 . S
H587 C600 0.930 . S
H588 C604 0.959 . S
H589 C604 0.959 . S
H590 C604 0.961 . S
H591 C605 0.960 . S
H592 C605 0.961 . S
H593 C605 0.959 . S
H594 C608 0.929 . S
H595 C609 0.931 . S
H596 C611 0.930 . S
C597 H585 0.930 . S
C597 C598 1.399 . S
C597 C602 1.399 . S
C598 C597 1.399 . S
C598 C599 1.376 . S
C599 H586 0.930 . S
C599 C598 1.376 . S
C599 C600 1.388 . S
C600 H587 0.930 . S
C600 C599 1.388 . S
C600 C601 1.390 . S
C601 C600 1.390 . S
C601 C602 1.394 . S
C601 C607 1.465 . S
C602 C597 1.399 . S
C602 C601 1.394 . S
C602 C603 1.516 . S
C603 C602 1.516 . S
C603 C604 1.502 . S
C603 C605 1.561 . S
C603 C606 1.526 . S
C604 H588 0.959 . S
C604 H589 0.959 . S
C604 H590 0.961 . S
C604 C603 1.502 . S
C605 H591 0.960 . S
C605 H592 0.961 . S
C605 H593 0.959 . S
C605 C603 1.561 . S
C606 C603 1.526 . S
C606 C607 1.396 . S
C606 C611 1.390 . S
C607 C601 1.465 . S
C607 C606 1.396 . S
C607 C608 1.399 . S
C608 H594 0.929 . S
C608 C607 1.399 . S
C608 C609 1.385 . S
C609 H595 0.931 . S
C609 C608 1.385 . S
C609 C610 1.389 . S
C610 C609 1.389 . S
C610 C611 1.387 . S
C611 H596 0.930 . S
C611 C606 1.390 . S
C611 C610 1.387 . S
H612 C624 0.930 . S
H613 C626 0.930 . S
H614 C627 0.930 . S
H615 C631 0.959 . S
H616 C631 0.959 . S
H617 C631 0.961 . S
H618 C632 0.960 . S
H619 C632 0.961 . S
H620 C632 0.959 . S
H621 C635 0.929 . S
H622 C636 0.931 1_554 S
H623 C638 0.930 . S
C624 H612 0.930 . S
C624 C625 1.399 . S
C624 C629 1.399 . S
C625 C624 1.399 . S
C625 C626 1.376 . S
C626 H613 0.930 . S
C626 C625 1.376 . S
C626 C627 1.388 . S
C627 H614 0.930 . S
C627 C626 1.388 . S
C627 C628 1.390 . S
C628 C627 1.390 . S
C628 C629 1.394 . S
C628 C634 1.465 . S
C629 C624 1.399 . S
C629 C628 1.394 . S
C629 C630 1.516 . S
C630 C629 1.516 . S
C630 C631 1.502 . S
C630 C632 1.561 . S
C630 C633 1.526 . S
C631 H615 0.959 . S
C631 H616 0.959 . S
C631 H617 0.961 . S
C631 C630 1.502 . S
C632 H618 0.960 . S
C632 H619 0.961 . S
C632 H620 0.959 . S
C632 C630 1.561 . S
C633 C630 1.526 . S
C633 C634 1.396 . S
C633 C638 1.390 . S
C634 C628 1.465 . S
C634 C633 1.396 . S
C634 C635 1.399 . S
C635 H621 0.929 . S
C635 C634 1.399 . S
C635 C636 1.385 . S
C636 H622 0.931 1_556 S
C636 C635 1.385 . S
C636 C637 1.389 . S
C637 C636 1.389 . S
C637 C638 1.387 . S
C638 H623 0.930 . S
C638 C633 1.390 . S
C638 C637 1.387 . S
H639 C651 0.930 . S
H640 C653 0.930 . S
H641 C654 0.930 . S
H642 C658 0.959 . S
H643 C658 0.959 . S
H644 C658 0.961 . S
H645 C659 0.960 . S
H646 C659 0.961 1_554 S
H647 C659 0.959 . S
H648 C662 0.929 . S
H649 C663 0.931 . S
H650 C665 0.930 . S
C651 H639 0.930 . S
C651 C652 1.399 . S
C651 C656 1.399 . S
C652 C651 1.399 . S
C652 C653 1.376 . S
C653 H640 0.930 . S
C653 C652 1.376 . S
C653 C654 1.388 . S
C654 H641 0.930 . S
C654 C653 1.388 . S
C654 C655 1.390 . S
C655 C654 1.390 . S
C655 C656 1.394 . S
C655 C661 1.465 . S
C656 C651 1.399 . S
C656 C655 1.394 . S
C656 C657 1.516 . S
C657 C656 1.516 . S
C657 C658 1.502 . S
C657 C659 1.561 . S
C657 C660 1.526 . S
C658 H642 0.959 . S
C658 H643 0.959 . S
C658 H644 0.961 . S
C658 C657 1.502 . S
C659 H645 0.960 . S
C659 H646 0.961 1_556 S
C659 H647 0.959 . S
C659 C657 1.561 . S
C660 C657 1.526 . S
C660 C661 1.396 . S
C660 C665 1.390 . S
C661 C655 1.465 . S
C661 C660 1.396 . S
C661 C662 1.399 . S
C662 H648 0.929 . S
C662 C661 1.399 . S
C662 C663 1.385 . S
C663 H649 0.931 . S
C663 C662 1.385 . S
C663 C664 1.389 . S
C664 C663 1.389 . S
C664 C665 1.387 . S
C665 H650 0.930 . S
C665 C660 1.390 . S
C665 C664 1.387 . S
H666 C678 0.930 . S
H667 C680 0.930 1_554 S
H668 C681 0.930 . S
H669 C685 0.959 . S
H670 C685 0.959 . S
H671 C685 0.961 . S
H672 C686 0.960 . S
H673 C686 0.961 . S
H674 C686 0.959 . S
H675 C689 0.929 . S
H676 C690 0.931 . S
H677 C692 0.930 . S
C678 H666 0.930 . S
C678 C679 1.399 . S
C678 C683 1.399 . S
C679 C678 1.399 . S
C679 C680 1.376 . S
C680 H667 0.930 1_556 S
C680 C679 1.376 . S
C680 C681 1.388 . S
C681 H668 0.930 . S
C681 C680 1.388 . S
C681 C682 1.390 . S
C682 C681 1.390 . S
C682 C683 1.394 . S
C682 C688 1.465 . S
C683 C678 1.399 . S
C683 C682 1.394 . S
C683 C684 1.516 . S
C684 C683 1.516 . S
C684 C685 1.502 . S
C684 C686 1.561 . S
C684 C687 1.526 . S
C685 H669 0.959 . S
C685 H670 0.959 . S
C685 H671 0.961 . S
C685 C684 1.502 . S
C686 H672 0.960 . S
C686 H673 0.961 . S
C686 H674 0.959 . S
C686 C684 1.561 . S
C687 C684 1.526 . S
C687 C688 1.396 . S
C687 C692 1.390 . S
C688 C682 1.465 . S
C688 C687 1.396 . S
C688 C689 1.399 . S
C689 H675 0.929 . S
C689 C688 1.399 . S
C689 C690 1.385 . S
C690 H676 0.931 . S
C690 C689 1.385 . S
C690 C691 1.389 . S
C691 C690 1.389 . S
C691 C692 1.387 . S
C692 H677 0.930 . S
C692 C687 1.390 . S
C692 C691 1.387 . S
H693 C705 0.930 . S
H694 C707 0.930 . S
H695 C708 0.930 . S
H696 C712 0.959 . S
H697 C712 0.959 . S
H698 C712 0.961 . S
H699 C713 0.960 . S
H700 C713 0.961 . S
H701 C713 0.959 . S
H702 C716 0.929 . S
H703 C717 0.931 . S
H704 C719 0.930 . S
C705 H693 0.930 . S
C705 C706 1.399 . S
C705 C710 1.399 . S
C706 C705 1.399 . S
C706 C707 1.376 . S
C707 H694 0.930 . S
C707 C706 1.376 . S
C707 C708 1.388 . S
C708 H695 0.930 . S
C708 C707 1.388 . S
C708 C709 1.390 . S
C709 C708 1.390 . S
C709 C710 1.394 . S
C709 C715 1.465 . S
C710 C705 1.399 . S
C710 C709 1.394 . S
C710 C711 1.516 . S
C711 C710 1.516 . S
C711 C712 1.502 . S
C711 C713 1.561 . S
C711 C714 1.526 . S
C712 H696 0.959 . S
C712 H697 0.959 . S
C712 H698 0.961 . S
C712 C711 1.502 . S
C713 H699 0.960 . S
C713 H700 0.961 . S
C713 H701 0.959 . S
C713 C711 1.561 . S
C714 C711 1.526 . S
C714 C715 1.396 . S
C714 C719 1.390 . S
C715 C709 1.465 . S
C715 C714 1.396 . S
C715 C716 1.399 . S
C716 H702 0.929 . S
C716 C715 1.399 . S
C716 C717 1.385 . S
C717 H703 0.931 . S
C717 C716 1.385 . S
C717 C718 1.389 . S
C718 C717 1.389 . S
C718 C719 1.387 . S
C719 H704 0.930 . S
C719 C714 1.390 . S
C719 C718 1.387 . S
H720 C732 0.930 . S
H721 C734 0.930 . S
H722 C735 0.930 . S
H723 C739 0.959 . S
H724 C739 0.959 . S
H725 C739 0.961 . S
H726 C740 0.960 1_554 S
H727 C740 0.961 . S
H728 C740 0.959 . S
H729 C743 0.929 . S
H730 C744 0.931 . S
H731 C746 0.930 . S
C732 H720 0.930 . S
C732 C733 1.399 . S
C732 C737 1.399 . S
C733 C732 1.399 . S
C733 C734 1.376 . S
C734 H721 0.930 . S
C734 C733 1.376 . S
C734 C735 1.388 . S
C735 H722 0.930 . S
C735 C734 1.388 . S
C735 C736 1.390 . S
C736 C735 1.390 . S
C736 C737 1.394 . S
C736 C742 1.465 . S
C737 C732 1.399 . S
C737 C736 1.394 . S
C737 C738 1.516 . S
C738 C737 1.516 . S
C738 C739 1.502 . S
C738 C740 1.561 . S
C738 C741 1.526 . S
C739 H723 0.959 . S
C739 H724 0.959 . S
C739 H725 0.961 . S
C739 C738 1.502 . S
C740 H726 0.960 1_556 S
C740 H727 0.961 . S
C740 H728 0.959 . S
C740 C738 1.561 . S
C741 C738 1.526 . S
C741 C742 1.396 . S
C741 C746 1.390 . S
C742 C736 1.465 . S
C742 C741 1.396 . S
C742 C743 1.399 . S
C743 H729 0.929 . S
C743 C742 1.399 . S
C743 C744 1.385 . S
C744 H730 0.931 . S
C744 C743 1.385 . S
C744 C745 1.389 . S
C745 C744 1.389 . S
C745 C746 1.387 . S
C746 H731 0.930 . S
C746 C741 1.390 . S
C746 C745 1.387 . S
H747 C759 0.930 . S
H748 C761 0.930 . S
H749 C762 0.930 . S
H750 C766 0.959 . S
H751 C766 0.959 . S
H752 C766 0.961 . S
H753 C767 0.960 . S
H754 C767 0.961 . S
H755 C767 0.959 . S
H756 C770 0.929 . S
H757 C771 0.931 . S
H758 C773 0.930 . S
C759 H747 0.930 . S
C759 C760 1.399 . S
C759 C764 1.399 . S
C760 C759 1.399 . S
C760 C761 1.376 . S
C761 H748 0.930 . S
C761 C760 1.376 . S
C761 C762 1.388 . S
C762 H749 0.930 . S
C762 C761 1.388 . S
C762 C763 1.390 . S
C763 C762 1.390 . S
C763 C764 1.394 . S
C763 C769 1.465 . S
C764 C759 1.399 . S
C764 C763 1.394 . S
C764 C765 1.516 . S
C765 C764 1.516 . S
C765 C766 1.502 . S
C765 C767 1.561 . S
C765 C768 1.526 . S
C766 H750 0.959 . S
C766 H751 0.959 . S
C766 H752 0.961 . S
C766 C765 1.502 . S
C767 H753 0.960 . S
C767 H754 0.961 . S
C767 H755 0.959 . S
C767 C765 1.561 . S
C768 C765 1.526 . S
C768 C769 1.396 . S
C768 C773 1.390 . S
C769 C763 1.465 . S
C769 C768 1.396 . S
C769 C770 1.399 . S
C770 H756 0.929 . S
C770 C769 1.399 . S
C770 C771 1.385 . S
C771 H757 0.931 . S
C771 C770 1.385 . S
C771 C772 1.389 . S
C772 C771 1.389 . S
C772 C773 1.387 . S
C773 H758 0.930 . S
C773 C768 1.390 . S
C773 C772 1.387 . S
H774 C786 0.930 1_556 S
H775 C788 0.930 1_565 S
H776 C789 0.930 . S
H777 C793 0.959 1_554 S
H778 C793 0.959 . S
H779 C793 0.961 . S
H780 C794 0.960 . S
H781 C794 0.961 . S
H782 C794 0.959 . S
H783 C797 0.929 . S
H784 C798 0.931 . S
H785 C800 0.930 1_556 S
C786 H774 0.930 1_554 S
C786 C787 1.399 . S
C786 C791 1.399 . S
C787 C786 1.399 . S
C787 C788 1.376 . S
C788 H775 0.930 1_545 S
C788 C787 1.376 . S
C788 C789 1.388 . S
C789 H776 0.930 . S
C789 C788 1.388 . S
C789 C790 1.390 . S
C790 C789 1.390 . S
C790 C791 1.394 . S
C790 C796 1.465 . S
C791 C786 1.399 . S
C791 C790 1.394 . S
C791 C792 1.516 1_554 S
C792 C791 1.516 1_556 S
C792 C793 1.502 . S
C792 C794 1.561 . S
C792 C795 1.526 1_556 S
C793 H777 0.959 1_556 S
C793 H778 0.959 . S
C793 H779 0.961 . S
C793 C792 1.502 . S
C794 H780 0.960 . S
C794 H781 0.961 . S
C794 H782 0.959 . S
C794 C792 1.561 . S
C795 C792 1.526 1_554 S
C795 C796 1.396 . S
C795 C800 1.390 . S
C796 C790 1.465 . S
C796 C795 1.396 . S
C796 C797 1.399 . S
C797 H783 0.929 . S
C797 C796 1.399 . S
C797 C798 1.385 . S
C798 H784 0.931 . S
C798 C797 1.385 . S
C798 C799 1.389 . S
C799 C798 1.389 . S
C799 C800 1.387 . S
C800 H785 0.930 1_554 S
C800 C795 1.390 . S
C800 C799 1.387 . S
H801 C813 0.930 . S
H802 C815 0.930 . S
H803 C816 0.930 . S
H804 C820 0.959 . S
H805 C820 0.959 . S
H806 C820 0.961 . S
H807 C821 0.960 . S
H808 C821 0.961 . S
H809 C821 0.959 . S
H810 C824 0.929 . S
H811 C825 0.931 . S
H812 C827 0.930 . S
C813 H801 0.930 . S
C813 C814 1.399 . S
C813 C818 1.399 . S
C814 C813 1.399 . S
C814 C815 1.376 . S
C815 H802 0.930 . S
C815 C814 1.376 . S
C815 C816 1.388 . S
C816 H803 0.930 . S
C816 C815 1.388 . S
C816 C817 1.390 . S
C817 C816 1.390 . S
C817 C818 1.394 . S
C817 C823 1.465 . S
C818 C813 1.399 . S
C818 C817 1.394 . S
C818 C819 1.516 . S
C819 C818 1.516 . S
C819 C820 1.502 . S
C819 C821 1.561 . S
C819 C822 1.526 . S
C820 H804 0.959 . S
C820 H805 0.959 . S
C820 H806 0.961 . S
C820 C819 1.502 . S
C821 H807 0.960 . S
C821 H808 0.961 . S
C821 H809 0.959 . S
C821 C819 1.561 . S
C822 C819 1.526 . S
C822 C823 1.396 . S
C822 C827 1.390 1_545 S
C823 C817 1.465 . S
C823 C822 1.396 . S
C823 C824 1.399 . S
C824 H810 0.929 . S
C824 C823 1.399 . S
C824 C825 1.385 1_545 S
C825 H811 0.931 . S
C825 C824 1.385 1_565 S
C825 C826 1.389 . S
C826 C825 1.389 . S
C826 C827 1.387 . S
C827 H812 0.930 . S
C827 C822 1.390 1_565 S
C827 C826 1.387 . S
H828 C840 0.930 . S
H829 C842 0.930 . S
H830 C843 0.930 . S
H831 C847 0.959 . S
H832 C847 0.959 . S
H833 C847 0.961 . S
H834 C848 0.960 . S
H835 C848 0.961 . S
H836 C848 0.959 . S
H837 C851 0.929 . S
H838 C852 0.968 . S
H839 C854 0.930 . S
C840 H828 0.930 . S
C840 C841 1.399 . S
C840 C845 1.399 . S
C841 C840 1.399 . S
C841 C842 1.376 . S
C842 H829 0.930 . S
C842 C841 1.376 . S
C842 C843 1.388 . S
C843 H830 0.930 . S
C843 C842 1.388 . S
C843 C844 1.390 . S
C844 C843 1.390 . S
C844 C845 1.394 . S
C844 C850 1.465 . S
C845 C840 1.399 . S
C845 C844 1.394 . S
C845 C846 1.516 . S
C846 C845 1.516 . S
C846 C847 1.502 . S
C846 C848 1.561 . S
C846 C849 1.526 . S
C847 H831 0.959 . S
C847 H832 0.959 . S
C847 H833 0.961 . S
C847 C846 1.502 . S
C848 H834 0.960 . S
C848 H835 0.961 . S
C848 H836 0.959 . S
C848 C846 1.561 . S
C849 C846 1.526 . S
C849 C850 1.396 . S
C849 C854 1.390 1_655 S
C850 C844 1.465 . S
C850 C849 1.396 . S
C850 C851 1.399 . S
C851 H837 0.929 . S
C851 C850 1.399 . S
C851 C852 1.339 1_655 S
C852 H838 0.968 . S
C852 C851 1.339 1_455 S
C852 C853 1.401 . S
C853 C852 1.401 . S
C853 C854 1.387 . S
C854 H839 0.930 . S
C854 C849 1.390 1_455 S
C854 C853 1.387 . S
H855 C867 0.930 . S
H856 C869 0.930 . S
H857 C870 0.930 . S
H858 C874 0.959 . S
H859 C874 0.959 . S
H860 C874 0.961 . S
H861 C875 0.960 . S
H862 C875 0.961 . S
H863 C875 0.959 . S
H864 C878 0.929 . S
H865 C879 0.931 . S
H866 C881 0.930 . S
C867 H855 0.930 . S
C867 C868 1.399 . S
C867 C872 1.399 . S
C868 C867 1.399 . S
C868 C869 1.376 . S
C869 H856 0.930 . S
C869 C868 1.376 . S
C869 C870 1.388 . S
C870 H857 0.930 . S
C870 C869 1.388 . S
C870 C871 1.390 . S
C871 C870 1.390 . S
C871 C872 1.394 . S
C871 C877 1.465 . S
C872 C867 1.399 . S
C872 C871 1.394 . S
C872 C873 1.516 . S
C873 C872 1.516 . S
C873 C874 1.502 . S
C873 C875 1.561 . S
C873 C876 1.526 . S
C874 H858 0.959 . S
C874 H859 0.959 . S
C874 H860 0.961 . S
C874 C873 1.502 . S
C875 H861 0.960 . S
C875 H862 0.961 . S
C875 H863 0.959 . S
C875 C873 1.561 . S
C876 C873 1.526 . S
C876 C877 1.396 . S
C876 C881 1.390 . S
C877 C871 1.465 . S
C877 C876 1.396 . S
C877 C878 1.399 . S
C878 H864 0.929 . S
C878 C877 1.399 . S
C878 C879 1.385 . S
C879 H865 0.931 . S
C879 C878 1.385 . S
C879 C880 1.389 . S
C880 C879 1.389 . S
C880 C881 1.387 . S
C881 H866 0.930 . S
C881 C876 1.390 . S
C881 C880 1.387 . S
H882 C894 0.930 . S
H883 C896 0.930 . S
H884 C897 0.930 . S
H885 C901 0.959 . S
H886 C901 0.959 . S
H887 C901 0.961 . S
H888 C902 0.960 . S
H889 C902 0.961 . S
H890 C902 0.959 . S
H891 C905 0.929 . S
H892 C906 0.931 . S
H893 C908 0.930 . S
C894 H882 0.930 . S
C894 C895 1.399 . S
C894 C899 1.399 . S
C895 C894 1.399 . S
C895 C896 1.376 . S
C896 H883 0.930 . S
C896 C895 1.376 . S
C896 C897 1.388 . S
C897 H884 0.930 . S
C897 C896 1.388 . S
C897 C898 1.390 . S
C898 C897 1.390 . S
C898 C899 1.394 . S
C898 C904 1.465 . S
C899 C894 1.399 . S
C899 C898 1.394 . S
C899 C900 1.516 . S
C900 C899 1.516 . S
C900 C901 1.502 . S
C900 C902 1.561 . S
C900 C903 1.526 . S
C901 H885 0.959 . S
C901 H886 0.959 . S
C901 H887 0.961 . S
C901 C900 1.502 . S
C902 H888 0.960 . S
C902 H889 0.961 . S
C902 H890 0.959 . S
C902 C900 1.561 . S
C903 C900 1.526 . S
C903 C904 1.396 . S
C903 C908 1.390 . S
C904 C898 1.465 . S
C904 C903 1.396 . S
C904 C905 1.399 . S
C905 H891 0.929 . S
C905 C904 1.399 . S
C905 C906 1.385 . S
C906 H892 0.931 . S
C906 C905 1.385 . S
C906 C907 1.389 . S
C907 C906 1.389 . S
C907 C908 1.387 . S
C908 H893 0.930 . S
C908 C903 1.390 . S
C908 C907 1.387 . S
H909 C921 0.930 . S
H910 C923 0.930 . S
H911 C924 0.930 . S
H912 C928 0.959 . S
H913 C928 0.959 . S
H914 C928 0.961 . S
H915 C929 0.960 . S
H916 C929 0.961 . S
H917 C929 0.959 . S
H918 C932 0.929 . S
H919 C933 0.931 . S
H920 C935 0.930 . S
C921 H909 0.930 . S
C921 C922 1.399 . S
C921 C926 1.399 . S
C922 C921 1.399 . S
C922 C923 1.376 . S
C923 H910 0.930 . S
C923 C922 1.376 . S
C923 C924 1.388 . S
C924 H911 0.930 . S
C924 C923 1.388 . S
C924 C925 1.390 . S
C925 C924 1.390 . S
C925 C926 1.394 . S
C925 C931 1.465 . S
C926 C921 1.399 . S
C926 C925 1.394 . S
C926 C927 1.516 . S
C927 C926 1.516 . S
C927 C928 1.502 . S
C927 C929 1.561 . S
C927 C930 1.526 . S
C928 H912 0.959 . S
C928 H913 0.959 . S
C928 H914 0.961 . S
C928 C927 1.502 . S
C929 H915 0.960 . S
C929 H916 0.961 . S
C929 H917 0.959 . S
C929 C927 1.561 . S
C930 C927 1.526 . S
C930 C931 1.396 . S
C930 C935 1.390 . S
C931 C925 1.465 . S
C931 C930 1.396 . S
C931 C932 1.399 . S
C932 H918 0.929 . S
C932 C931 1.399 . S
C932 C933 1.385 . S
C933 H919 0.931 . S
C933 C932 1.385 . S
C933 C934 1.389 . S
C934 C933 1.389 . S
C934 C935 1.387 . S
C935 H920 0.930 . S
C935 C930 1.390 . S
C935 C934 1.387 . S
H936 C948 0.930 . S
H937 C950 0.930 . S
H938 C951 0.930 . S
H939 C955 0.959 . S
H940 C955 0.959 . S
H941 C955 0.961 . S
H942 C956 0.960 . S
H943 C956 0.961 . S
H944 C956 0.959 . S
H945 C959 0.929 . S
H946 C960 0.931 . S
H947 C962 0.930 . S
C948 H936 0.930 . S
C948 C949 1.399 . S
C948 C953 1.399 . S
C949 C948 1.399 . S
C949 C950 1.376 . S
C950 H937 0.930 . S
C950 C949 1.376 . S
C950 C951 1.388 . S
C951 H938 0.930 . S
C951 C950 1.388 . S
C951 C952 1.390 . S
C952 C951 1.390 . S
C952 C953 1.394 . S
C952 C958 1.465 . S
C953 C948 1.399 . S
C953 C952 1.394 . S
C953 C954 1.516 . S
C954 C953 1.516 . S
C954 C955 1.502 . S
C954 C956 1.561 . S
C954 C957 1.526 . S
C955 H939 0.959 . S
C955 H940 0.959 . S
C955 H941 0.961 . S
C955 C954 1.502 . S
C956 H942 0.960 . S
C956 H943 0.961 . S
C956 H944 0.959 . S
C956 C954 1.561 . S
C957 C954 1.526 . S
C957 C958 1.396 . S
C957 C962 1.390 . S
C958 C952 1.465 . S
C958 C957 1.396 . S
C958 C959 1.399 . S
C959 H945 0.929 . S
C959 C958 1.399 . S
C959 C960 1.385 . S
C960 H946 0.931 . S
C960 C959 1.385 . S
C960 C961 1.389 . S
C961 C960 1.389 . S
C961 C962 1.387 . S
C962 H947 0.930 . S
C962 C957 1.390 . S
C962 C961 1.387 . S
H963 C975 0.930 . S
H964 C977 0.930 . S
H965 C978 0.930 . S
H966 C982 0.959 . S
H967 C982 0.959 . S
H968 C982 0.961 . S
H969 C983 0.960 . S
H970 C983 0.961 . S
H971 C983 0.959 . S
H972 C986 0.929 . S
H973 C987 0.931 . S
H974 C989 0.930 . S
C975 H963 0.930 . S
C975 C976 1.399 . S
C975 C980 1.399 . S
C976 C975 1.399 . S
C976 C977 1.376 . S
C977 H964 0.930 . S
C977 C976 1.376 . S
C977 C978 1.388 . S
C978 H965 0.930 . S
C978 C977 1.388 . S
C978 C979 1.390 . S
C979 C978 1.390 . S
C979 C980 1.394 . S
C979 C985 1.465 . S
C980 C975 1.399 . S
C980 C979 1.394 . S
C980 C981 1.516 . S
C981 C980 1.516 . S
C981 C982 1.502 . S
C981 C983 1.561 . S
C981 C984 1.526 . S
C982 H966 0.959 . S
C982 H967 0.959 . S
C982 H968 0.961 . S
C982 C981 1.502 . S
C983 H969 0.960 . S
C983 H970 0.961 . S
C983 H971 0.959 . S
C983 C981 1.561 . S
C984 C981 1.526 . S
C984 C985 1.396 . S
C984 C989 1.390 . S
C985 C979 1.465 . S
C985 C984 1.396 . S
C985 C986 1.399 . S
C986 H972 0.929 . S
C986 C985 1.399 . S
C986 C987 1.385 . S
C987 H973 0.931 . S
C987 C986 1.385 . S
C987 C988 1.389 . S
C988 C987 1.389 . S
C988 C989 1.387 . S
C989 H974 0.930 . S
C989 C984 1.390 . S
C989 C988 1.387 . S
H990 C1002 0.930 . S
H991 C1004 0.930 . S
H992 C1005 0.930 . S
H993 C1009 0.959 . S
H994 C1009 0.959 . S
H995 C1009 0.961 . S
H996 C1010 0.960 . S
H997 C1010 0.961 . S
H998 C1010 0.959 . S
H999 C1013 0.929 . S
H1000 C1014 0.931 . S
H1001 C1016 0.930 . S
C1002 H990 0.930 . S
C1002 C1003 1.399 . S
C1002 C1007 1.399 . S
C1003 C1002 1.399 . S
C1003 C1004 1.376 . S
C1004 H991 0.930 . S
C1004 C1003 1.376 . S
C1004 C1005 1.388 . S
C1005 H992 0.930 . S
C1005 C1004 1.388 . S
C1005 C1006 1.390 . S
C1006 C1005 1.390 . S
C1006 C1007 1.394 . S
C1006 C1012 1.465 . S
C1007 C1002 1.399 . S
C1007 C1006 1.394 . S
C1007 C1008 1.516 . S
C1008 C1007 1.516 . S
C1008 C1009 1.502 . S
C1008 C1010 1.561 . S
C1008 C1011 1.526 . S
C1009 H993 0.959 . S
C1009 H994 0.959 . S
C1009 H995 0.961 . S
C1009 C1008 1.502 . S
C1010 H996 0.960 . S
C1010 H997 0.961 . S
C1010 H998 0.959 . S
C1010 C1008 1.561 . S
C1011 C1008 1.526 . S
C1011 C1012 1.396 . S
C1011 C1016 1.390 . S
C1012 C1006 1.465 . S
C1012 C1011 1.396 . S
C1012 C1013 1.399 . S
C1013 H999 0.929 . S
C1013 C1012 1.399 . S
C1013 C1014 1.385 . S
C1014 H1000 0.931 . S
C1014 C1013 1.385 . S
C1014 C1015 1.389 . S
C1015 C1014 1.389 . S
C1015 C1016 1.387 . S
C1016 H1001 0.930 . S
C1016 C1011 1.390 . S
C1016 C1015 1.387 . S
H1017 C1029 0.930 . S
H1018 C1031 0.930 . S
H1019 C1032 0.930 . S
H1020 C1036 0.959 . S
H1021 C1036 0.959 . S
H1022 C1036 0.961 . S
H1023 C1037 0.960 . S
H1024 C1037 0.961 . S
H1025 C1037 0.959 . S
H1026 C1040 0.929 . S
H1027 C1041 0.931 . S
H1028 C1043 0.930 . S
C1029 H1017 0.930 . S
C1029 C1030 1.399 . S
C1029 C1034 1.399 . S
C1030 C1029 1.399 . S
C1030 C1031 1.376 . S
C1031 H1018 0.930 . S
C1031 C1030 1.376 . S
C1031 C1032 1.388 . S
C1032 H1019 0.930 . S
C1032 C1031 1.388 . S
C1032 C1033 1.390 . S
C1033 C1032 1.390 . S
C1033 C1034 1.394 . S
C1033 C1039 1.465 . S
C1034 C1029 1.399 . S
C1034 C1033 1.394 . S
C1034 C1035 1.516 . S
C1035 C1034 1.516 . S
C1035 C1036 1.502 . S
C1035 C1037 1.561 . S
C1035 C1038 1.526 . S
C1036 H1020 0.959 . S
C1036 H1021 0.959 . S
C1036 H1022 0.961 . S
C1036 C1035 1.502 . S
C1037 H1023 0.960 . S
C1037 H1024 0.961 . S
C1037 H1025 0.959 . S
C1037 C1035 1.561 . S
C1038 C1035 1.526 . S
C1038 C1039 1.396 . S
C1038 C1043 1.390 . S
C1039 C1033 1.465 . S
C1039 C1038 1.396 . S
C1039 C1040 1.399 . S
C1040 H1026 0.929 . S
C1040 C1039 1.399 . S
C1040 C1041 1.385 . S
C1041 H1027 0.931 . S
C1041 C1040 1.385 . S
C1041 C1042 1.389 . S
C1042 C1041 1.389 . S
C1042 C1043 1.387 . S
C1043 H1028 0.930 . S
C1043 C1038 1.390 . S
C1043 C1042 1.387 . S
H1044 C1056 0.930 . S
H1045 C1058 0.930 . S
H1046 C1059 0.930 . S
H1047 C1063 0.959 . S
H1048 C1063 0.959 . S
H1049 C1063 0.961 . S
H1050 C1064 0.960 . S
H1051 C1064 0.961 . S
H1052 C1064 0.959 . S
H1053 C1067 0.929 . S
H1054 C1068 0.931 . S
H1055 C1070 0.930 . S
C1056 H1044 0.930 . S
C1056 C1057 1.399 . S
C1056 C1061 1.399 . S
C1057 C1056 1.399 . S
C1057 C1058 1.376 . S
C1058 H1045 0.930 . S
C1058 C1057 1.376 . S
C1058 C1059 1.388 . S
C1059 H1046 0.930 . S
C1059 C1058 1.388 . S
C1059 C1060 1.390 . S
C1060 C1059 1.390 . S
C1060 C1061 1.394 . S
C1060 C1066 1.465 . S
C1061 C1056 1.399 . S
C1061 C1060 1.394 . S
C1061 C1062 1.516 . S
C1062 C1061 1.516 . S
C1062 C1063 1.502 . S
C1062 C1064 1.561 . S
C1062 C1065 1.526 . S
C1063 H1047 0.959 . S
C1063 H1048 0.959 . S
C1063 H1049 0.961 . S
C1063 C1062 1.502 . S
C1064 H1050 0.960 . S
C1064 H1051 0.961 . S
C1064 H1052 0.959 . S
C1064 C1062 1.561 . S
C1065 C1062 1.526 . S
C1065 C1066 1.396 . S
C1065 C1070 1.390 . S
C1066 C1060 1.465 . S
C1066 C1065 1.396 . S
C1066 C1067 1.399 . S
C1067 H1053 0.929 . S
C1067 C1066 1.399 . S
C1067 C1068 1.385 . S
C1068 H1054 0.931 . S
C1068 C1067 1.385 . S
C1068 C1069 1.389 . S
C1069 C1068 1.389 . S
C1069 C1070 1.387 . S
C1070 H1055 0.930 . S
C1070 C1065 1.390 . S
C1070 C1069 1.387 . S
H1071 C1083 0.930 . S
H1072 C1085 0.930 . S
H1073 C1086 0.930 . S
H1074 C1090 0.959 . S
H1075 C1090 0.959 . S
H1076 C1090 0.961 . S
H1077 C1091 0.960 . S
H1078 C1091 0.961 . S
H1079 C1091 0.959 . S
H1080 C1094 0.929 . S
H1081 C1095 0.931 . S
H1082 C1097 0.930 . S
C1083 H1071 0.930 . S
C1083 C1084 1.399 . S
C1083 C1088 1.399 . S
C1084 C1083 1.399 . S
C1084 C1085 1.376 . S
C1085 H1072 0.930 . S
C1085 C1084 1.376 . S
C1085 C1086 1.388 . S
C1086 H1073 0.930 . S
C1086 C1085 1.388 . S
C1086 C1087 1.390 . S
C1087 C1086 1.390 . S
C1087 C1088 1.394 . S
C1087 C1093 1.465 . S
C1088 C1083 1.399 . S
C1088 C1087 1.394 . S
C1088 C1089 1.516 . S
C1089 C1088 1.516 . S
C1089 C1090 1.502 . S
C1089 C1091 1.561 . S
C1089 C1092 1.526 . S
C1090 H1074 0.959 . S
C1090 H1075 0.959 . S
C1090 H1076 0.961 . S
C1090 C1089 1.502 . S
C1091 H1077 0.960 . S
C1091 H1078 0.961 . S
C1091 H1079 0.959 . S
C1091 C1089 1.561 . S
C1092 C1089 1.526 . S
C1092 C1093 1.396 . S
C1092 C1097 1.390 . S
C1093 C1087 1.465 . S
C1093 C1092 1.396 . S
C1093 C1094 1.399 . S
C1094 H1080 0.929 . S
C1094 C1093 1.399 . S
C1094 C1095 1.385 . S
C1095 H1081 0.931 . S
C1095 C1094 1.385 . S
C1095 C1096 1.389 . S
C1096 C1095 1.389 . S
C1096 C1097 1.387 . S
C1097 H1082 0.930 . S
C1097 C1092 1.390 . S
C1097 C1096 1.387 . S
H1098 C1110 0.930 . S
H1099 C1112 0.930 . S
H1100 C1113 0.930 . S
H1101 C1117 0.959 . S
H1102 C1117 0.959 . S
H1103 C1117 0.961 . S
H1104 C1118 0.960 . S
H1105 C1118 0.961 . S
H1106 C1118 0.959 . S
H1107 C1121 0.929 . S
H1108 C1122 0.931 . S
H1109 C1124 0.930 . S
C1110 H1098 0.930 . S
C1110 C1111 1.399 . S
C1110 C1115 1.399 . S
C1111 C1110 1.399 . S
C1111 C1112 1.376 . S
C1112 H1099 0.930 . S
C1112 C1111 1.376 . S
C1112 C1113 1.388 . S
C1113 H1100 0.930 . S
C1113 C1112 1.388 . S
C1113 C1114 1.390 . S
C1114 C1113 1.390 . S
C1114 C1115 1.394 . S
C1114 C1120 1.465 . S
C1115 C1110 1.399 . S
C1115 C1114 1.394 . S
C1115 C1116 1.516 . S
C1116 C1115 1.516 . S
C1116 C1117 1.502 . S
C1116 C1118 1.561 . S
C1116 C1119 1.526 . S
C1117 H1101 0.959 . S
C1117 H1102 0.959 . S
C1117 H1103 0.961 . S
C1117 C1116 1.502 . S
C1118 H1104 0.960 . S
C1118 H1105 0.961 . S
C1118 H1106 0.959 . S
C1118 C1116 1.561 . S
C1119 C1116 1.526 . S
C1119 C1120 1.396 . S
C1119 C1124 1.390 1_556 S
C1120 C1114 1.465 . S
C1120 C1119 1.396 . S
C1120 C1121 1.399 . S
C1121 H1107 0.929 . S
C1121 C1120 1.399 . S
C1121 C1122 1.385 1_556 S
C1122 H1108 0.931 . S
C1122 C1121 1.385 1_554 S
C1122 C1123 1.389 . S
C1123 C1122 1.389 . S
C1123 C1124 1.387 . S
C1124 H1109 0.930 . S
C1124 C1119 1.390 1_554 S
C1124 C1123 1.387 . S
H1125 C1137 0.930 . S
H1126 C1139 0.930 . S
H1127 C1140 0.930 . S
H1128 C1144 0.959 . S
H1129 C1144 0.959 . S
H1130 C1144 0.961 . S
H1131 C1145 0.960 . S
H1132 C1145 0.961 . S
H1133 C1145 0.959 . S
H1134 C1148 0.929 . S
H1135 C1149 0.931 . S
H1136 C1151 0.930 . S
C1137 H1125 0.930 . S
C1137 C1138 1.399 . S
C1137 C1142 1.399 1_554 S
C1138 C1137 1.399 . S
C1138 C1139 1.376 . S
C1139 H1126 0.930 . S
C1139 C1138 1.376 . S
C1139 C1140 1.388 1_554 S
C1140 H1127 0.930 . S
C1140 C1139 1.388 1_556 S
C1140 C1141 1.390 . S
C1141 C1140 1.390 . S
C1141 C1142 1.394 . S
C1141 C1147 1.465 . S
C1142 C1137 1.399 1_556 S
C1142 C1141 1.394 . S
C1142 C1143 1.516 . S
C1143 C1142 1.516 . S
C1143 C1144 1.502 . S
C1143 C1145 1.561 . S
C1143 C1146 1.526 . S
C1144 H1128 0.959 . S
C1144 H1129 0.959 . S
C1144 H1130 0.961 . S
C1144 C1143 1.502 . S
C1145 H1131 0.960 . S
C1145 H1132 0.961 . S
C1145 H1133 0.959 . S
C1145 C1143 1.561 . S
C1146 C1143 1.526 . S
C1146 C1147 1.396 . S
C1146 C1151 1.390 . S
C1147 C1141 1.465 . S
C1147 C1146 1.396 . S
C1147 C1148 1.399 . S
C1148 H1134 0.929 . S
C1148 C1147 1.399 . S
C1148 C1149 1.385 . S
C1149 H1135 0.931 . S
C1149 C1148 1.385 . S
C1149 C1150 1.389 . S
C1150 C1149 1.389 . S
C1150 C1151 1.387 . S
C1151 H1136 0.930 . S
C1151 C1146 1.390 . S
C1151 C1150 1.387 . S
H1152 C1164 0.930 . S
H1153 C1166 0.930 . S
H1154 C1167 0.930 . S
H1155 C1171 0.959 . S
H1156 C1171 0.959 . S
H1157 C1171 0.961 . S
H1158 C1172 0.960 . S
H1159 C1172 0.961 . S
H1160 C1172 0.959 . S
H1161 C1175 0.929 . S
H1162 C1176 0.931 . S
H1163 C1178 0.930 . S
C1164 H1152 0.930 . S
C1164 C1165 1.399 . S
C1164 C1169 1.399 . S
C1165 C1164 1.399 . S
C1165 C1166 1.376 . S
C1166 H1153 0.930 . S
C1166 C1165 1.376 . S
C1166 C1167 1.388 . S
C1167 H1154 0.930 . S
C1167 C1166 1.388 . S
C1167 C1168 1.390 . S
C1168 C1167 1.390 . S
C1168 C1169 1.394 . S
C1168 C1174 1.465 . S
C1169 C1164 1.399 . S
C1169 C1168 1.394 . S
C1169 C1170 1.516 . S
C1170 C1169 1.516 . S
C1170 C1171 1.502 . S
C1170 C1172 1.561 . S
C1170 C1173 1.526 . S
C1171 H1155 0.959 . S
C1171 H1156 0.959 . S
C1171 H1157 0.961 . S
C1171 C1170 1.502 . S
C1172 H1158 0.960 . S
C1172 H1159 0.961 . S
C1172 H1160 0.959 . S
C1172 C1170 1.561 . S
C1173 C1170 1.526 . S
C1173 C1174 1.396 . S
C1173 C1178 1.390 1_556 S
C1174 C1168 1.465 . S
C1174 C1173 1.396 . S
C1174 C1175 1.399 . S
C1175 H1161 0.929 . S
C1175 C1174 1.399 . S
C1175 C1176 1.385 1_556 S
C1176 H1162 0.931 . S
C1176 C1175 1.385 1_554 S
C1176 C1177 1.389 . S
C1177 C1176 1.389 . S
C1177 C1178 1.387 . S
C1178 H1163 0.930 . S
C1178 C1173 1.390 1_554 S
C1178 C1177 1.387 . S
H1179 C1191 0.930 . S
H1180 C1193 0.930 . S
H1181 C1194 0.930 . S
H1182 C1198 0.959 . S
H1183 C1198 0.959 . S
H1184 C1198 0.961 . S
H1185 C1199 0.960 . S
H1186 C1199 0.961 . S
H1187 C1199 0.959 . S
H1188 C1202 0.929 . S
H1189 C1203 0.931 . S
H1190 C1205 0.930 . S
C1191 H1179 0.930 . S
C1191 C1192 1.399 . S
C1191 C1196 1.399 . S
C1192 C1191 1.399 . S
C1192 C1193 1.376 . S
C1193 H1180 0.930 . S
C1193 C1192 1.376 . S
C1193 C1194 1.388 . S
C1194 H1181 0.930 . S
C1194 C1193 1.388 . S
C1194 C1195 1.390 . S
C1195 C1194 1.390 . S
C1195 C1196 1.394 . S
C1195 C1201 1.465 . S
C1196 C1191 1.399 . S
C1196 C1195 1.394 . S
C1196 C1197 1.516 . S
C1197 C1196 1.516 . S
C1197 C1198 1.502 . S
C1197 C1199 1.561 . S
C1197 C1200 1.526 . S
C1198 H1182 0.959 . S
C1198 H1183 0.959 . S
C1198 H1184 0.961 . S
C1198 C1197 1.502 . S
C1199 H1185 0.960 . S
C1199 H1186 0.961 . S
C1199 H1187 0.959 . S
C1199 C1197 1.561 . S
C1200 C1197 1.526 . S
C1200 C1201 1.396 . S
C1200 C1205 1.390 . S
C1201 C1195 1.465 . S
C1201 C1200 1.396 . S
C1201 C1202 1.399 . S
C1202 H1188 0.929 . S
C1202 C1201 1.399 . S
C1202 C1203 1.385 1_554 S
C1203 H1189 0.931 . S
C1203 C1202 1.385 1_556 S
C1203 C1204 1.389 . S
C1204 C1203 1.389 . S
C1204 C1205 1.387 1_556 S
C1205 H1190 0.930 . S
C1205 C1200 1.390 . S
C1205 C1204 1.387 1_554 S
H1206 C1218 0.930 . S
H1207 C1220 0.930 . S
H1208 C1221 0.930 . S
H1209 C1225 0.959 . S
H1210 C1225 0.959 . S
H1211 C1225 0.961 . S
H1212 C1226 0.960 . S
H1213 C1226 0.961 . S
H1214 C1226 0.959 . S
H1215 C1229 0.929 . S
H1216 C1230 0.931 . S
H1217 C1232 0.930 1_556 S
C1218 H1206 0.930 . S
C1218 C1219 1.399 . S
C1218 C1223 1.399 . S
C1219 C1218 1.399 . S
C1219 C1220 1.376 . S
C1220 H1207 0.930 . S
C1220 C1219 1.376 . S
C1220 C1221 1.388 . S
C1221 H1208 0.930 . S
C1221 C1220 1.388 . S
C1221 C1222 1.390 . S
C1222 C1221 1.390 . S
C1222 C1223 1.394 . S
C1222 C1228 1.465 . S
C1223 C1218 1.399 . S
C1223 C1222 1.394 . S
C1223 C1224 1.516 . S
C1224 C1223 1.516 . S
C1224 C1225 1.502 . S
C1224 C1226 1.561 . S
C1224 C1227 1.526 . S
C1225 H1209 0.959 . S
C1225 H1210 0.959 . S
C1225 H1211 0.961 . S
C1225 C1224 1.502 . S
C1226 H1212 0.960 . S
C1226 H1213 0.961 . S
C1226 H1214 0.959 . S
C1226 C1224 1.561 . S
C1227 C1224 1.526 . S
C1227 C1228 1.396 . S
C1227 C1232 1.390 . S
C1228 C1222 1.465 . S
C1228 C1227 1.396 . S
C1228 C1229 1.399 . S
C1229 H1215 0.929 . S
C1229 C1228 1.399 . S
C1229 C1230 1.385 1_554 S
C1230 H1216 0.931 . S
C1230 C1229 1.385 1_556 S
C1230 C1231 1.389 . S
C1231 C1230 1.389 . S
C1231 C1232 1.387 1_556 S
C1232 H1217 0.930 1_554 S
C1232 C1227 1.390 . S
C1232 C1231 1.387 1_554 S
H1233 C1245 0.930 . S
H1234 C1247 0.930 . S
H1235 C1248 0.930 . S
H1236 C1252 0.959 . S
H1237 C1252 0.959 . S
H1238 C1252 0.961 . S
H1239 C1253 0.960 . S
H1240 C1253 0.961 . S
H1241 C1253 0.959 . S
H1242 C1256 0.929 . S
H1243 C1257 0.931 . S
H1244 C1259 0.930 1_556 S
C1245 H1233 0.930 . S
C1245 C1246 1.399 . S
C1245 C1250 1.399 . S
C1246 C1245 1.399 . S
C1246 C1247 1.376 . S
C1247 H1234 0.930 . S
C1247 C1246 1.376 . S
C1247 C1248 1.388 . S
C1248 H1235 0.930 . S
C1248 C1247 1.388 . S
C1248 C1249 1.390 . S
C1249 C1248 1.390 . S
C1249 C1250 1.394 . S
C1249 C1255 1.465 . S
C1250 C1245 1.399 . S
C1250 C1249 1.394 . S
C1250 C1251 1.516 . S
C1251 C1250 1.516 . S
C1251 C1252 1.502 . S
C1251 C1253 1.561 . S
C1251 C1254 1.526 . S
C1252 H1236 0.959 . S
C1252 H1237 0.959 . S
C1252 H1238 0.961 . S
C1252 C1251 1.502 . S
C1253 H1239 0.960 . S
C1253 H1240 0.961 . S
C1253 H1241 0.959 . S
C1253 C1251 1.561 . S
C1254 C1251 1.526 . S
C1254 C1255 1.396 . S
C1254 C1259 1.390 . S
C1255 C1249 1.465 . S
C1255 C1254 1.396 . S
C1255 C1256 1.399 . S
C1256 H1242 0.929 . S
C1256 C1255 1.399 . S
C1256 C1257 1.385 1_554 S
C1257 H1243 0.931 . S
C1257 C1256 1.385 1_556 S
C1257 C1258 1.389 . S
C1258 C1257 1.389 . S
C1258 C1259 1.387 1_556 S
C1259 H1244 0.930 1_554 S
C1259 C1254 1.390 . S
C1259 C1258 1.387 1_554 S
C301 C17 1.627 1_554 S
C313 C150 1.577 . S
C328 C182 1.556 . S
C340 C49 1.630 1_554 S
C355 C81 1.586 1_554 S
C367 C118 1.552 . S
C382 C53 2.313 . S
C394 C112 2.353 . S
C409 C85 2.320 1_545 S
C421 C144 2.348 . S
C436 C21 2.242 1_655 S
C448 C176 2.360 . S
C463 C113 1.576 . S
C475 C246 1.570 1_655 S
C490 C278 1.612 . S
C502 C145 1.593 . S
C517 C214 1.560 1_545 S
C529 C177 1.630 . S
C544 C149 2.297 . S
C556 C208 2.357 1_545 S
C571 C240 2.352 1_655 S
C583 C181 2.300 . S
C598 C272 2.348 . S
C610 C117 2.313 . S
C625 C209 1.572 . S
C637 C54 1.600 . S
C652 C241 1.613 . S
C664 C86 1.538 . S
C679 C22 1.588 . S
C691 C273 1.571 . S
C706 C16 2.348 . S
C718 C245 2.324 . S
C733 C48 2.348 . S
C745 C277 2.323 . S
C760 C213 2.320 . S
C772 C80 2.348 . S
C787 C82 1.396 1_545 S
C799 C20 1.453 . S
C814 C18 1.455 1_655 S
C826 C52 1.425 . S
C841 C50 1.455 . S
C853 C84 1.426 . S
C868 C178 1.435 . S
C880 C116 1.410 . S
C895 C114 1.395 . S
C907 C148 1.452 . S
C922 C146 1.401 . S
C934 C180 1.457 . S
C949 C212 1.451 . S
C961 C274 1.437 . S
C976 C244 1.415 . S
C988 C210 1.452 . S
C1003 C276 1.446 . S
C1015 C242 1.443 . S
C1030 C19 1.105 . S
C1042 C23 1.128 . S
C1057 C55 1.122 . S
C1069 C51 1.110 . S
C1084 C83 1.102 . S
C1096 C87 1.146 . S
C1111 C119 1.149 . S
C1123 C115 1.099 . S
C1138 C147 1.152 . S
C1150 C151 1.090 . S
C1165 C183 1.100 . S
C1177 C179 1.147 . S
C1192 C211 1.148 . S
C1204 C215 1.100 . S
C1219 C243 1.089 . S
C1231 C247 1.150 . S
C1246 C275 1.103 . S
C1258 C279 1.146 . S
