# Generated by pormake.
# Topology umn, (4)-cn, num edge types: 1
# Building blocks:
#     Node 0, Type 0, BuildingBlock: NAHDIM_clean_sbu_0, # of connection points: 4
#     Node 1, Type 0, BuildingBlock: NAHDIM_clean_sbu_0, # of connection points: 4
#     Node 2, Type 0, BuildingBlock: NAHDIM_clean_sbu_0, # of connection points: 4
#     Node 3, Type 0, BuildingBlock: NAHDIM_clean_sbu_0, # of connection points: 4
#     Node 4, Type 0, BuildingBlock: NAHDIM_clean_sbu_0, # of connection points: 4
#     Node 5, Type 0, BuildingBlock: NAHDIM_clean_sbu_0, # of connection points: 4
#     Node 6, Type 0, BuildingBlock: NAHDIM_clean_sbu_0, # of connection points: 4
#     Node 7, Type 0, BuildingBlock: NAHDIM_clean_sbu_0, # of connection points: 4
#     Node 8, Type 0, BuildingBlock: NAHDIM_clean_sbu_0, # of connection points: 4
#     Node 9, Type 0, BuildingBlock: NAHDIM_clean_sbu_0, # of connection points: 4
#     Node 10, Type 0, BuildingBlock: NAHDIM_clean_sbu_0, # of connection points: 4
#     Node 11, Type 0, BuildingBlock: NAHDIM_clean_sbu_0, # of connection points: 4
#     Node 12, Type 0, BuildingBlock: NAHDIM_clean_sbu_0, # of connection points: 4
#     Node 13, Type 0, BuildingBlock: NAHDIM_clean_sbu_0, # of connection points: 4
#     Node 14, Type 0, BuildingBlock: NAHDIM_clean_sbu_0, # of connection points: 4
#     Node 15, Type 0, BuildingBlock: NAHDIM_clean_sbu_0, # of connection points: 4
#     Node 16, Type 0, BuildingBlock: NAHDIM_clean_sbu_0, # of connection points: 4
#     Node 17, Type 0, BuildingBlock: NAHDIM_clean_sbu_0, # of connection points: 4
#     Node 18, Type 0, BuildingBlock: NAHDIM_clean_sbu_0, # of connection points: 4
#     Node 19, Type 0, BuildingBlock: NAHDIM_clean_sbu_0, # of connection points: 4
#     Node 20, Type 0, BuildingBlock: NAHDIM_clean_sbu_0, # of connection points: 4
#     Node 21, Type 0, BuildingBlock: NAHDIM_clean_sbu_0, # of connection points: 4
#     Node 22, Type 0, BuildingBlock: NAHDIM_clean_sbu_0, # of connection points: 4
#     Node 23, Type 0, BuildingBlock: NAHDIM_clean_sbu_0, # of connection points: 4
#     Node 24, Type 0, BuildingBlock: NAHDIM_clean_sbu_0, # of connection points: 4
#     Node 25, Type 0, BuildingBlock: NAHDIM_clean_sbu_0, # of connection points: 4
#     Node 26, Type 0, BuildingBlock: NAHDIM_clean_sbu_0, # of connection points: 4
#     Node 27, Type 0, BuildingBlock: NAHDIM_clean_sbu_0, # of connection points: 4
#     Node 28, Type 0, BuildingBlock: NAHDIM_clean_sbu_0, # of connection points: 4
#     Node 29, Type 0, BuildingBlock: NAHDIM_clean_sbu_0, # of connection points: 4
#     Node 30, Type 0, BuildingBlock: NAHDIM_clean_sbu_0, # of connection points: 4
#     Node 31, Type 0, BuildingBlock: NAHDIM_clean_sbu_0, # of connection points: 4
#     Node 32, Type 0, BuildingBlock: NAHDIM_clean_sbu_0, # of connection points: 4
#     Node 33, Type 0, BuildingBlock: NAHDIM_clean_sbu_0, # of connection points: 4
#     Node 34, Type 0, BuildingBlock: NAHDIM_clean_sbu_0, # of connection points: 4
#     Node 35, Type 0, BuildingBlock: NAHDIM_clean_sbu_0, # of connection points: 4
#     Edge 36, Type (0, 0), BuildingBlock: AJUNOK_clean_linker_0, # of connection points: 2
#     Edge 37, Type (0, 0), BuildingBlock: AJUNOK_clean_linker_0, # of connection points: 2
#     Edge 38, Type (0, 0), BuildingBlock: AJUNOK_clean_linker_0, # of connection points: 2
#     Edge 39, Type (0, 0), BuildingBlock: AJUNOK_clean_linker_0, # of connection points: 2
#     Edge 40, Type (0, 0), BuildingBlock: AJUNOK_clean_linker_0, # of connection points: 2
#     Edge 41, Type (0, 0), BuildingBlock: AJUNOK_clean_linker_0, # of connection points: 2
#     Edge 42, Type (0, 0), BuildingBlock: AJUNOK_clean_linker_0, # of connection points: 2
#     Edge 43, Type (0, 0), BuildingBlock: AJUNOK_clean_linker_0, # of connection points: 2
#     Edge 44, Type (0, 0), BuildingBlock: AJUNOK_clean_linker_0, # of connection points: 2
#     Edge 45, Type (0, 0), BuildingBlock: AJUNOK_clean_linker_0, # of connection points: 2
#     Edge 46, Type (0, 0), BuildingBlock: AJUNOK_clean_linker_0, # of connection points: 2
#     Edge 47, Type (0, 0), BuildingBlock: AJUNOK_clean_linker_0, # of connection points: 2
#     Edge 48, Type (0, 0), BuildingBlock: AJUNOK_clean_linker_0, # of connection points: 2
#     Edge 49, Type (0, 0), BuildingBlock: AJUNOK_clean_linker_0, # of connection points: 2
#     Edge 50, Type (0, 0), BuildingBlock: AJUNOK_clean_linker_0, # of connection points: 2
#     Edge 51, Type (0, 0), BuildingBlock: AJUNOK_clean_linker_0, # of connection points: 2
#     Edge 52, Type (0, 0), BuildingBlock: AJUNOK_clean_linker_0, # of connection points: 2
#     Edge 53, Type (0, 0), BuildingBlock: AJUNOK_clean_linker_0, # of connection points: 2
#     Edge 54, Type (0, 0), BuildingBlock: AJUNOK_clean_linker_0, # of connection points: 2
#     Edge 55, Type (0, 0), BuildingBlock: AJUNOK_clean_linker_0, # of connection points: 2
#     Edge 56, Type (0, 0), BuildingBlock: AJUNOK_clean_linker_0, # of connection points: 2
#     Edge 57, Type (0, 0), BuildingBlock: AJUNOK_clean_linker_0, # of connection points: 2
#     Edge 58, Type (0, 0), BuildingBlock: AJUNOK_clean_linker_0, # of connection points: 2
#     Edge 59, Type (0, 0), BuildingBlock: AJUNOK_clean_linker_0, # of connection points: 2
#     Edge 60, Type (0, 0), BuildingBlock: AJUNOK_clean_linker_0, # of connection points: 2
#     Edge 61, Type (0, 0), BuildingBlock: AJUNOK_clean_linker_0, # of connection points: 2
#     Edge 62, Type (0, 0), BuildingBlock: AJUNOK_clean_linker_0, # of connection points: 2
#     Edge 63, Type (0, 0), BuildingBlock: AJUNOK_clean_linker_0, # of connection points: 2
#     Edge 64, Type (0, 0), BuildingBlock: AJUNOK_clean_linker_0, # of connection points: 2
#     Edge 65, Type (0, 0), BuildingBlock: AJUNOK_clean_linker_0, # of connection points: 2
#     Edge 66, Type (0, 0), BuildingBlock: AJUNOK_clean_linker_0, # of connection points: 2
#     Edge 67, Type (0, 0), BuildingBlock: AJUNOK_clean_linker_0, # of connection points: 2
#     Edge 68, Type (0, 0), BuildingBlock: AJUNOK_clean_linker_0, # of connection points: 2
#     Edge 69, Type (0, 0), BuildingBlock: AJUNOK_clean_linker_0, # of connection points: 2
#     Edge 70, Type (0, 0), BuildingBlock: AJUNOK_clean_linker_0, # of connection points: 2
#     Edge 71, Type (0, 0), BuildingBlock: AJUNOK_clean_linker_0, # of connection points: 2
#     Edge 72, Type (0, 0), BuildingBlock: AJUNOK_clean_linker_0, # of connection points: 2
#     Edge 73, Type (0, 0), BuildingBlock: AJUNOK_clean_linker_0, # of connection points: 2
#     Edge 74, Type (0, 0), BuildingBlock: AJUNOK_clean_linker_0, # of connection points: 2
#     Edge 75, Type (0, 0), BuildingBlock: AJUNOK_clean_linker_0, # of connection points: 2
#     Edge 76, Type (0, 0), BuildingBlock: AJUNOK_clean_linker_0, # of connection points: 2
#     Edge 77, Type (0, 0), BuildingBlock: AJUNOK_clean_linker_0, # of connection points: 2
#     Edge 78, Type (0, 0), BuildingBlock: AJUNOK_clean_linker_0, # of connection points: 2
#     Edge 79, Type (0, 0), BuildingBlock: AJUNOK_clean_linker_0, # of connection points: 2
#     Edge 80, Type (0, 0), BuildingBlock: AJUNOK_clean_linker_0, # of connection points: 2
#     Edge 81, Type (0, 0), BuildingBlock: AJUNOK_clean_linker_0, # of connection points: 2
#     Edge 82, Type (0, 0), BuildingBlock: AJUNOK_clean_linker_0, # of connection points: 2
#     Edge 83, Type (0, 0), BuildingBlock: AJUNOK_clean_linker_0, # of connection points: 2
#     Edge 84, Type (0, 0), BuildingBlock: AJUNOK_clean_linker_0, # of connection points: 2
#     Edge 85, Type (0, 0), BuildingBlock: AJUNOK_clean_linker_0, # of connection points: 2
#     Edge 86, Type (0, 0), BuildingBlock: AJUNOK_clean_linker_0, # of connection points: 2
#     Edge 87, Type (0, 0), BuildingBlock: AJUNOK_clean_linker_0, # of connection points: 2
#     Edge 88, Type (0, 0), BuildingBlock: AJUNOK_clean_linker_0, # of connection points: 2
#     Edge 89, Type (0, 0), BuildingBlock: AJUNOK_clean_linker_0, # of connection points: 2
#     Edge 90, Type (0, 0), BuildingBlock: AJUNOK_clean_linker_0, # of connection points: 2
#     Edge 91, Type (0, 0), BuildingBlock: AJUNOK_clean_linker_0, # of connection points: 2
#     Edge 92, Type (0, 0), BuildingBlock: AJUNOK_clean_linker_0, # of connection points: 2
#     Edge 93, Type (0, 0), BuildingBlock: AJUNOK_clean_linker_0, # of connection points: 2
#     Edge 94, Type (0, 0), BuildingBlock: AJUNOK_clean_linker_0, # of connection points: 2
#     Edge 95, Type (0, 0), BuildingBlock: AJUNOK_clean_linker_0, # of connection points: 2
#     Edge 96, Type (0, 0), BuildingBlock: AJUNOK_clean_linker_0, # of connection points: 2
#     Edge 97, Type (0, 0), BuildingBlock: AJUNOK_clean_linker_0, # of connection points: 2
#     Edge 98, Type (0, 0), BuildingBlock: AJUNOK_clean_linker_0, # of connection points: 2
#     Edge 99, Type (0, 0), BuildingBlock: AJUNOK_clean_linker_0, # of connection points: 2
#     Edge 100, Type (0, 0), BuildingBlock: AJUNOK_clean_linker_0, # of connection points: 2
#     Edge 101, Type (0, 0), BuildingBlock: AJUNOK_clean_linker_0, # of connection points: 2
#     Edge 102, Type (0, 0), BuildingBlock: AJUNOK_clean_linker_0, # of connection points: 2
#     Edge 103, Type (0, 0), BuildingBlock: AJUNOK_clean_linker_0, # of connection points: 2
#     Edge 104, Type (0, 0), BuildingBlock: AJUNOK_clean_linker_0, # of connection points: 2
#     Edge 105, Type (0, 0), BuildingBlock: AJUNOK_clean_linker_0, # of connection points: 2
#     Edge 106, Type (0, 0), BuildingBlock: AJUNOK_clean_linker_0, # of connection points: 2
#     Edge 107, Type (0, 0), BuildingBlock: AJUNOK_clean_linker_0, # of connection points: 2
# Relax obj value: 0.319
# Max RMSD: 0.323
# Mean RMSD: 0.323
data_MOF--net-umn--node1-NAHDIM_clean_sbu_0--edge1-AJUNOK_clean_linker_0
_symmetry_space_group_name_H-M    P1
_symmetry_Int_Tables_number       1
_symmetry_cell_setting            triclinic
loop_
_symmetry_equiv_pos_as_xyz
'x, y, z'
_cell_length_a     62.780531
_cell_length_b     62.745292
_cell_length_c     25.569008
_cell_angle_alpha  90.065907
_cell_angle_beta   90.027904
_cell_angle_gamma 120.03178
loop_
_atom_site_label
_atom_site_type_symbol
_atom_site_fract_x
_atom_site_fract_y
_atom_site_fract_z
_atom_type_partial_charge
C0 C 0.36249 0.12707 0.153 0.0
O1 O 0.35503 0.11938 0.20085 0.0
O2 O 0.3616 0.05798 0.10176 0.0
Zn3 Zn 0.35445 0.07923 0.15098 0.0
O4 O 0.36666 0.08253 0.22615 0.0
C5 C 0.30986 0.0428 0.1862 0.0
O6 O 0.32454 0.03389 0.19415 0.0
O7 O 0.36479 0.11269 0.12139 0.0
C8 C 0.37051 0.06791 0.25367 0.0
O9 O 0.37151 0.0497 0.23063 0.0
C10 C 0.38139 0.05713 0.099 0.0
O11 O 0.39966 0.07096 0.13067 0.0
O12 O 0.31786 0.06288 0.16167 0.0
C13 C 0.85414 0.21618 0.23597 0.0
O14 O 0.85618 0.22227 0.28562 0.0
O15 O 0.91554 0.28778 0.17513 0.0
Zn16 Zn 0.90148 0.26064 0.22999 0.0
O17 O 0.89641 0.27285 0.29935 0.0
C18 C 0.92349 0.23895 0.29095 0.0
O19 O 0.90376 0.23233 0.31941 0.0
O20 O 0.87075 0.23058 0.20435 0.0
C21 C 0.91567 0.28894 0.32292 0.0
O22 O 0.93659 0.29968 0.29732 0.0
C23 C 0.93867 0.30065 0.16798 0.0
O24 O 0.95335 0.29613 0.19654 0.0
O25 O 0.92595 0.25004 0.24779 0.0
C26 C 0.77579 0.66075 0.22355 0.0
O27 O 0.75548 0.63942 0.2287 0.0
O28 O 0.71538 0.64881 0.23982 0.0
Zn29 Zn 0.74599 0.67825 0.27019 0.0
O30 O 0.74673 0.6786 0.3496 0.0
C31 C 0.73542 0.70773 0.20286 0.0
O32 O 0.73344 0.69149 0.16785 0.0
O33 O 0.77622 0.68005 0.24 0.0
C34 C 0.73625 0.68852 0.37416 0.0
O35 O 0.7248 0.69767 0.34754 0.0
C36 C 0.69429 0.64687 0.2447 0.0
O37 O 0.6922 0.66281 0.27437 0.0
O38 O 0.74439 0.70773 0.24735 0.0
C39 C 0.11539 0.31072 0.34214 0.0
O40 O 0.12028 0.33366 0.3413 0.0
O41 O 0.06787 0.32789 0.35483 0.0
Zn42 Zn 0.06688 0.30031 0.31122 0.0
O43 O 0.06824 0.3067 0.23318 0.0
C44 C 0.0201 0.26729 0.35979 0.0
O45 O 0.02869 0.28287 0.39907 0.0
O46 O 0.09378 0.29365 0.33111 0.0
C47 C 0.04813 0.29944 0.20843 0.0
O48 O 0.02741 0.28959 0.23467 0.0
C49 C 0.05549 0.33803 0.34159 0.0
O50 O 0.04332 0.33153 0.29727 0.0
O51 O 0.03448 0.26983 0.32246 0.0
C52 C 0.60715 0.75025 0.33246 0.0
O53 O 0.58371 0.73469 0.32415 0.0
O54 O 0.61298 0.69079 0.37741 0.0
Zn55 Zn 0.61344 0.70817 0.31069 0.0
O56 O 0.57971 0.68978 0.2775 0.0
C57 C 0.66041 0.72808 0.25964 0.0
O58 O 0.66502 0.74788 0.28616 0.0
O59 O 0.62245 0.74271 0.32898 0.0
C60 C 0.57385 0.68419 0.22975 0.0
O61 O 0.55053 0.67006 0.21763 0.0
C62 C 0.60504 0.66779 0.37594 0.0
O63 O 0.59734 0.65624 0.33099 0.0
O64 O 0.63941 0.70881 0.26372 0.0
C65 C 0.17929 0.89055 0.28788 0.0
O66 O 0.18168 0.89764 0.23888 0.0
O67 O 0.25842 0.92283 0.32662 0.0
Zn68 Zn 0.23092 0.926 0.29166 0.0
O69 O 0.2323 0.92491 0.21243 0.0
C70 C 0.22611 0.96851 0.27881 0.0
O71 O 0.20742 0.95371 0.24901 0.0
O72 O 0.19802 0.9 0.31763 0.0
C73 C 0.24872 0.94363 0.1881 0.0
O74 O 0.26605 0.9618 0.2153 0.0
C75 C 0.27906 0.94194 0.33637 0.0
O76 O 0.2825 0.96351 0.32179 0.0
O77 O 0.23552 0.95915 0.30842 0.0
C78 C 0.66832 0.88259 0.88206 0.0
O79 O 0.64794 0.88361 0.88367 0.0
O80 O 0.6681 0.9408 0.87563 0.0
Zn81 Zn 0.68602 0.9285 0.82883 0.0
O82 O 0.67038 0.91871 0.75705 0.0
C83 C 0.74043 0.96444 0.84133 0.0
O84 O 0.74087 0.95614 0.8882 0.0
O85 O 0.68725 0.90017 0.86101 0.0
C86 C 0.67779 0.93542 0.72228 0.0
O87 O 0.69461 0.95805 0.73423 0.0
C88 C 0.66275 0.95676 0.85954 0.0
O89 O 0.66816 0.96464 0.8112 0.0
O90 O 0.72038 0.95556 0.81602 0.0
C91 C 0.10944 0.79322 0.77657 0.0
O92 O 0.11077 0.78128 0.73564 0.0
O93 O 0.06304 0.72278 0.8148 0.0
Zn94 Zn 0.06085 0.75115 0.78203 0.0
O95 O 0.05784 0.74878 0.70291 0.0
C96 C 0.02089 0.7385 0.85272 0.0
O97 O 0.03508 0.7355 0.88609 0.0
O98 O 0.08966 0.78371 0.80303 0.0
C99 C 0.03708 0.73712 0.67991 0.0
O100 O 0.01692 0.72509 0.70775 0.0
C101 C 0.04503 0.70099 0.80911 0.0
O102 O 0.02698 0.69746 0.77778 0.0
O103 O 0.02968 0.74834 0.80873 0.0
C104 C 0.20017 0.32455 0.75657 0.0
O105 O 0.21367 0.31968 0.78819 0.0
O106 O 0.26731 0.37076 0.7594 0.0
Zn107 Zn 0.24539 0.3506 0.69865 0.0
O108 O 0.25262 0.3711 0.63274 0.0
C109 C 0.23694 0.30029 0.68183 0.0
O110 O 0.21322 0.2921 0.68554 0.0
O111 O 0.21003 0.33744 0.71611 0.0
C112 C 0.24814 0.36397 0.58523 0.0
O113 O 0.25267 0.38029 0.54848 0.0
C114 C 0.2903 0.37897 0.75486 0.0
O115 O 0.29846 0.37493 0.71079 0.0
O116 O 0.25205 0.32317 0.68647 0.0
C117 C 0.85581 0.62661 0.7017 0.0
O118 O 0.84538 0.60321 0.71413 0.0
O119 O 0.92194 0.62653 0.66134 0.0
Zn120 Zn 0.90101 0.62615 0.72193 0.0
O121 O 0.88096 0.59117 0.74802 0.0
C122 C 0.92471 0.66817 0.79163 0.0
O123 O 0.9092 0.67398 0.77067 0.0
O124 O 0.8791 0.63939 0.69941 0.0
C125 C 0.87733 0.58332 0.79484 0.0
O126 O 0.86533 0.55947 0.80312 0.0
C127 C 0.93386 0.61522 0.66728 0.0
O128 O 0.93193 0.60404 0.71191 0.0
O129 O 0.92407 0.6484 0.77764 0.0
C130 C 0.3337 0.20209 0.64878 0.0
O131 O 0.35269 0.22061 0.67165 0.0
O132 O 0.3346 0.26218 0.61195 0.0
Zn133 Zn 0.31514 0.23433 0.66342 0.0
O134 O 0.32652 0.24189 0.73873 0.0
C135 C 0.27316 0.23505 0.62435 0.0
O136 O 0.284 0.23708 0.57927 0.0
O137 O 0.31464 0.20371 0.6402 0.0
C138 C 0.32084 0.25562 0.76478 0.0
O139 O 0.31049 0.26649 0.74023 0.0
C140 C 0.35285 0.28357 0.6201 0.0
O141 O 0.36257 0.28925 0.66713 0.0
O142 O 0.28107 0.22927 0.66435 0.0
C143 C 0.78344 0.11993 0.68003 0.0
O144 O 0.77361 0.10444 0.64082 0.0
O145 O 0.72489 0.06368 0.69048 0.0
Zn146 Zn 0.75408 0.0765 0.73966 0.0
O147 O 0.74501 0.07184 0.8162 0.0
C148 C 0.78677 0.05914 0.76313 0.0
O149 O 0.79596 0.07825 0.7947 0.0
O150 O 0.77756 0.11197 0.72638 0.0
C151 C 0.73731 0.05082 0.83705 0.0
O152 O 0.73171 0.03183 0.80664 0.0
C153 C 0.7142 0.07571 0.6786 0.0
O154 O 0.72145 0.09708 0.7012 0.0
O155 O 0.77108 0.0571 0.72905 0.0
C156 C 0.02823 0.46815 0.5266 0.0
O157 O 0.04516 0.46948 0.55881 0.0
O158 O 0.01945 0.40032 0.48641 0.0
Zn159 Zn 0.00676 0.41529 0.53916 0.0
O160 O 0.02118 0.41916 0.61125 0.0
C161 C 0.95202 0.38588 0.52343 0.0
O162 O 0.95436 0.39368 0.47499 0.0
O163 O 0.01082 0.44713 0.51287 0.0
C164 C 0.01404 0.39967 0.63805 0.0
O165 O 0.0009 0.37819 0.61509 0.0
C166 C 0.0367 0.39565 0.4943 0.0
O167 O 0.04771 0.4008 0.54005 0.0
O168 O 0.97097 0.39259 0.55168 0.0
C169 C 0.53769 0.53023 0.57501 0.0
O170 O 0.53809 0.55102 0.58433 0.0
O171 O 0.58786 0.58723 0.55613 0.0
Zn172 Zn 0.58597 0.56118 0.60558 0.0
O173 O 0.58245 0.56742 0.68182 0.0
C174 C 0.63169 0.5693 0.56175 0.0
O175 O 0.6237 0.57465 0.51904 0.0
O176 O 0.55712 0.52922 0.58316 0.0
C177 C 0.60161 0.58085 0.70894 0.0
O178 O 0.62308 0.59249 0.68553 0.0
C179 C 0.60153 0.61048 0.55873 0.0
O180 O 0.61608 0.62035 0.59928 0.0
O181 O 0.61725 0.56045 0.60049 0.0
C182 C 0.45337 0.98248 0.5174 0.0
O183 O 0.45029 0.97958 0.56827 0.0
O184 O 0.37567 0.96161 0.47147 0.0
Zn185 Zn 0.40303 0.96955 0.52378 0.0
O186 O 0.3943 0.94538 0.58261 0.0
C187 C 0.42646 0.01949 0.57441 0.0
O188 O 0.4477 0.02614 0.55209 0.0
O189 O 0.435 0.97808 0.48901 0.0
C190 C 0.3773 0.94424 0.61163 0.0
O191 O 0.364 0.95352 0.59399 0.0
C192 C 0.35592 0.94121 0.46436 0.0
O193 O 0.35226 0.92189 0.49142 0.0
O194 O 0.40769 -0.00116 0.56388 0.0
C195 C 0.79877 0.67581 0.68037 0.0
O196 O 0.79998 0.68641 0.63534 0.0
O197 O 0.74016 0.68803 0.75181 0.0
Zn198 Zn 0.75384 0.6771 0.69218 0.0
O199 O 0.75987 0.69607 0.62497 0.0
C200 C 0.72946 0.63411 0.62893 0.0
O201 O 0.74956 0.64614 0.6009 0.0
O202 O 0.78208 0.67253 0.71282 0.0
C203 C 0.74052 0.69254 0.60134 0.0
O204 O 0.71956 0.68174 0.62687 0.0
C205 C 0.74023 0.70825 0.75627 0.0
O206 O 0.75142 0.72533 0.72053 0.0
O207 O 0.72748 0.64332 0.67174 0.0
C208 C 0.33278 0.11211 0.58848 0.0
O209 O 0.315 0.09609 0.55827 0.0
O210 O 0.32258 0.04745 0.6246 0.0
Zn211 Zn 0.34883 0.07661 0.58356 0.0
O212 O 0.34635 0.07264 0.50435 0.0
C213 C 0.38643 0.07531 0.64685 0.0
O214 O 0.37113 0.07066 0.68591 0.0
O215 O 0.34914 0.10741 0.60422 0.0
C216 C 0.3575 0.06318 0.4806 0.0
O217 O 0.3683 0.05365 0.50828 0.0
C218 C 0.3227 0.02724 0.62664 0.0
O219 O 0.33861 0.0247 0.59785 0.0
O220 O 0.38128 0.08047 0.60238 0.0
C221 C 0.85588 0.22185 0.63523 0.0
O222 O 0.85894 0.22935 0.58645 0.0
O223 O 0.92814 0.27908 0.69448 0.0
Zn224 Zn 0.89816 0.26938 0.64955 0.0
O225 O 0.90585 0.26882 0.57349 0.0
C226 C 0.87821 0.29846 0.615 0.0
O227 O 0.86472 0.27915 0.58549 0.0
O228 O 0.87038 0.23628 0.67008 0.0
C229 C 0.92008 0.28879 0.54987 0.0
O230 O 0.9325 0.30908 0.57733 0.0
C231 C 0.94188 0.26967 0.68958 0.0
O232 O 0.93642 0.25268 0.65374 0.0
O233 O 0.8891 0.29575 0.65427 0.0
C234 C 0.35494 0.21044 0.08068 0.0
O235 O 0.35506 0.21499 0.0305 0.0
O236 O 0.30939 0.23933 0.14764 0.0
Zn237 Zn 0.33513 0.2435 0.09355 0.0
O238 O 0.32358 0.23831 0.01778 0.0
C239 C 0.36373 0.29264 0.13268 0.0
O240 O 0.35249 0.28296 0.17702 0.0
O241 O 0.34751 0.22069 0.113 0.0
C242 C 0.32545 0.25676 0.99285 0.0
O243 O 0.33199 0.27725 0.01854 0.0
C244 C 0.29807 0.25141 0.14927 0.0
O245 O 0.30065 0.26608 0.1102 0.0
O246 O 0.36261 0.27845 0.09616 0.0
C247 C 0.78031 0.11953 0.15906 0.0
O248 O 0.775 0.11659 0.10891 0.0
O249 O 0.73384 0.04088 0.21191 0.0
Zn250 Zn 0.74477 0.06827 0.15905 0.0
O251 O 0.75652 0.06223 0.09065 0.0
C252 C 0.71059 0.08721 0.14143 0.0
O253 O 0.72363 0.10514 0.17446 0.0
O254 O 0.7698 0.10097 0.18911 0.0
C255 C 0.74013 0.04476 0.06334 0.0
O256 O 0.71905 0.02925 0.08529 0.0
C257 C 0.73568 0.02164 0.20846 0.0
O258 O 0.74661 0.01869 0.16759 0.0
O259 O 0.7156 0.07018 0.13462 0.0
C260 C 0.86043 0.66343 0.12367 0.0
O261 O 0.8809 0.68408 0.11404 0.0
O262 O 0.91972 0.67153 0.12419 0.0
Zn263 Zn 0.88984 0.6435 0.08888 0.0
O264 O 0.89147 0.64414 0.00981 0.0
C265 C 0.8749 0.59263 0.08016 0.0
O266 O 0.85875 0.59282 0.04775 0.0
O267 O 0.85959 0.64315 0.11433 0.0
C268 C 0.90599 0.63789 0.9892 0.0
O269 O 0.92181 0.63589 0.01946 0.0
C270 C 0.93823 0.66959 0.13728 0.0
O271 O 0.93855 0.64941 0.12515 0.0
O272 O 0.88797 0.6117 0.10779 0.0
C273 C 0.55574 0.00316 0.01666 0.0
O274 O 0.56098 0.99117 0.05166 0.0
O275 O 0.6242 0.02322 0.98038 0.0
Zn276 Zn 0.60865 0.04081 0.01695 0.0
O277 O 0.61278 0.04298 0.09577 0.0
C278 C 0.64151 0.09434 1.00295 0.0
O279 O 0.64674 0.11608 0.98543 0.0
O280 O 0.57283 0.02343 0.99881 0.0
C281 C 0.62814 0.03939 0.12108 0.0
O282 O 0.64201 0.03276 0.0955 0.0
C283 C 0.62133 0.00236 0.99344 0.0
O284 O 0.60764 0.99092 0.03419 0.0
O285 O 0.62172 0.07535 0.9886 0.0
C286 C 0.01356 0.54907 0.01271 0.0
O287 O 0.03224 0.56825 0.03468 0.0
O288 O 0.00596 0.60562 0.96444 0.0
Zn289 Zn -0.00686 0.58021 0.02228 0.0
O290 O 0.01044 0.59241 0.09148 0.0
C291 C 0.93768 0.55678 0.01919 0.0
O292 O 0.9359 0.54349 0.97793 0.0
O293 O -0.00566 0.55008 1.00186 0.0
C294 C 0.00436 0.60488 0.12075 0.0
O295 O 0.99013 0.61277 0.10157 0.0
C296 C 0.02613 0.62598 0.965 0.0
O297 O 0.04064 0.63159 0.00592 0.0
O298 O 0.95865 0.57144 0.03857 0.0
C299 C 0.42477 0.46014 0.05196 0.0
O300 O 0.41965 0.44548 0.0924 0.0
O301 O 0.34947 0.41879 0.98009 0.0
Zn302 Zn 0.3753 0.4259 0.03648 0.0
O303 O 0.36807 0.43057 0.11182 0.0
C304 C 0.36242 0.37596 0.04366 0.0
O305 O 0.34047 0.37293 0.035 0.0
O306 O 0.40782 0.4555 0.01898 0.0
C307 C 0.35103 0.41427 0.14003 0.0
O308 O 0.33272 0.39507 0.11735 0.0
C309 C 0.35682 0.41761 0.93428 0.0
O310 O 0.37935 0.42162 0.92901 0.0
O311 O 0.38107 0.39737 0.04142 0.0
C312 C 0.67202 0.79492 0.93956 0.0
O313 O 0.6932 0.79595 0.94742 0.0
O314 O 0.67911 0.74025 0.91819 0.0
Zn315 Zn 0.65116 0.74235 0.95398 0.0
O316 O 0.64816 0.73653 0.03238 0.0
C317 C 0.59958 0.71187 0.94995 0.0
O318 O 0.60089 0.72927 0.98077 0.0
O319 O 0.65238 0.77418 0.93959 0.0
C320 C 0.63762 0.71433 0.04818 0.0
O321 O 0.63419 0.69703 0.01464 0.0
C322 C 0.67602 0.71929 0.90507 0.0
O323 O 0.65516 0.69946 0.91684 0.0
O324 O 0.61905 0.7154 0.92702 0.0
C325 C 0.19148 0.88685 0.84704 0.0
O326 O 0.18726 0.90001 0.88104 0.0
O327 O 0.25747 0.95223 0.81979 0.0
Zn328 Zn 0.24185 0.92301 0.86941 0.0
O329 O 0.23106 0.92935 0.93942 0.0
C330 C 0.28413 0.93008 0.9204 0.0
O331 O 0.28598 0.95174 0.92553 0.0
O332 O 0.21359 0.89352 0.83503 0.0
C333 C 0.24049 0.95008 0.96233 0.0
O334 O 0.25436 0.97015 0.93529 0.0
C335 C 0.26618 0.949 0.77748 0.0
O336 O 0.26406 0.92736 0.769 0.0
O337 O 0.26721 0.91404 0.89148 0.0
C338 C 0.10179 0.30407 0.8077 0.0
O339 O 0.08881 0.30809 0.77288 0.0
O340 O 0.03953 0.29417 0.83332 0.0
Zn341 Zn 0.06943 0.30851 0.88123 0.0
O342 O 0.06111 0.2962 0.95497 0.0
C343 C 0.09399 0.3622 0.85624 0.0
O344 O 0.09591 0.35722 0.80715 0.0
O345 O 0.09599 0.30256 0.85559 0.0
C346 C 0.0479 0.30236 0.98137 0.0
O347 O 0.03799 0.31391 0.95794 0.0
C348 C 0.02769 0.30552 0.8263 0.0
O349 O 0.03497 0.32645 0.85087 0.0
O350 O 0.08374 0.34482 0.88915 0.0
C351 C 0.45615 0.97268 0.94718 0.0
O352 O 0.45307 0.98832 0.91853 0.0
O353 O 0.40501 0.98049 0.97182 0.0
Zn354 Zn 0.40573 0.95115 0.93938 0.0
O355 O 0.40397 0.95147 0.85992 0.0
C356 C 0.36491 0.92314 0.0039 0.0
O357 O 0.37862 0.93842 0.0409 0.0
O358 O 0.43719 0.953 0.96183 0.0
C359 C 0.38296 0.9408 0.83786 0.0
O360 O 0.36321 0.93051 0.86719 0.0
C361 C 0.38835 0.98591 0.96284 0.0
O362 O 0.37122 0.9729 0.92823 0.0
O363 O 0.37578 0.9205 0.96471 0.0
C364 C 0.01282 0.45722 0.9742 0.0
O365 O -0.00575 0.43971 0.94811 0.0
O366 O 0.00712 0.39453 0.01758 0.0
Zn367 Zn 0.0282 0.4221 0.96764 0.0
O368 O 0.01672 0.4149 0.8928 0.0
C369 C 0.0756 0.43587 0.92751 0.0
O370 O 0.0704 0.44901 0.8955 0.0
O371 O 0.03014 0.45368 0.98877 0.0
C372 C 0.01973 0.39972 0.86529 0.0
O373 O 0.02694 0.38565 0.88813 0.0
C374 C 0.98438 0.37887 0.01222 0.0
O375 O 0.97261 0.38022 0.97103 0.0
O376 O 0.06159 0.42561 0.96648 0.0
C377 C 0.52325 0.54322 0.01755 0.0
O378 O 0.52825 0.55452 0.97217 0.0
O379 O 0.59773 0.59066 0.09065 0.0
Zn380 Zn 0.57291 0.5789 0.03137 0.0
O381 O 0.58385 0.57046 0.96439 0.0
C382 C 0.55372 0.61433 0.02116 0.0
O383 O 0.53804 0.60405 0.05974 0.0
O384 O 0.54019 0.55056 0.05172 0.0
C385 C 0.59853 0.58831 0.93551 0.0
O386 O 0.6097 0.61068 0.95517 0.0
C387 C 0.61796 0.59061 0.0906 0.0
O388 O 0.62347 0.58148 0.04993 0.0
O389 O 0.56833 0.60669 0.00892 0.0
C390 C 0.02239 0.55384 0.46028 0.0
O391 O 0.00217 0.54994 0.43654 0.0
O392 O 0.00517 0.60085 0.49797 0.0
Zn393 Zn 0.03078 0.60168 0.44831 0.0
O394 O 0.01936 0.59554 0.37309 0.0
C395 C 0.06905 0.65076 0.48391 0.0
O396 O 0.05993 0.64408 0.53119 0.0
O397 O 0.03884 0.57587 0.47025 0.0
C398 C 0.02066 0.61311 0.34582 0.0
O399 O 0.02702 0.63426 0.3685 0.0
C400 C -9e-05 0.61786 0.5033 0.0
O401 O 0.01088 0.63742 0.4733 0.0
O402 O 0.06054 0.63505 0.44724 0.0
C403 C 0.45001 0.44405 0.49543 0.0
O404 O 0.44697 0.42212 0.50485 0.0
O405 O 0.39765 0.38497 0.48232 0.0
Zn406 Zn 0.40057 0.41668 0.45368 0.0
O407 O 0.39358 0.41578 0.37542 0.0
C408 C 0.36348 0.40729 0.52799 0.0
O409 O 0.37582 0.4005 0.55867 0.0
O410 O 0.43303 0.44581 0.47246 0.0
C411 C 0.37148 0.40776 0.36027 0.0
O412 O 0.35382 0.39901 0.3952 0.0
C413 C 0.37948 0.3638 0.47194 0.0
O414 O 0.36347 0.36202 0.43666 0.0
O415 O 0.37451 0.42088 0.4891 0.0
C416 C 0.55257 0.02316 0.43365 0.0
O417 O 0.55675 0.02366 0.38324 0.0
O418 O 0.62857 0.04781 0.4969 0.0
Zn419 Zn 0.60218 0.03197 0.44046 0.0
O420 O 0.61304 0.04907 0.3705 0.0
C421 C 0.5869 0.98736 0.38205 0.0
O422 O 0.58065 -0.00156 0.34683 0.0
O423 O 0.57 0.02795 0.4654 0.0
C424 C 0.63008 0.04699 0.34838 0.0
O425 O 0.64176 0.03843 0.37613 0.0
C426 C 0.64145 0.03815 0.50999 0.0
O427 O 0.63792 0.01825 0.48537 0.0
O428 O 0.59555 -0.00226 0.42588 0.0
C429 C 0.18978 0.28326 0.38231 0.0
O430 O 0.18305 0.25978 0.38299 0.0
O431 O 0.24427 0.27541 0.34242 0.0
Zn432 Zn 0.23557 0.28736 0.40861 0.0
O433 O 0.21953 0.26098 0.46384 0.0
C434 C 0.26981 0.33666 0.44441 0.0
O435 O 0.25302 0.34171 0.42793 0.0
O436 O 0.21211 0.29905 0.39118 0.0
C437 C 0.21521 0.26502 0.51043 0.0
O438 O 0.2042 0.24652 0.54309 0.0
C439 C 0.25686 0.26462 0.34346 0.0
O440 O 0.26356 0.26024 0.38902 0.0
O441 O 0.26631 0.31502 0.43885 0.0
C442 C 0.64519 0.85349 0.384 0.0
O443 O 0.66767 0.86647 0.40252 0.0
O444 O 0.67277 0.92269 0.35448 0.0
Zn445 Zn 0.64463 0.89852 0.40006 0.0
O446 O 0.65399 0.90355 0.47696 0.0
C447 C 0.61386 0.91394 0.34771 0.0
O448 O 0.62614 0.91424 0.30587 0.0
O449 O 0.63226 0.8637 0.37883 0.0
C450 C 0.64785 0.91643 0.50487 0.0
O451 O 0.6356 0.92601 0.48322 0.0
C452 C 0.68037 0.94539 0.36253 0.0
O453 O 0.67106 0.95147 0.40194 0.0
O454 O 0.61747 0.90584 0.39027 0.0
C455 C 0.08883 0.80618 0.35957 0.0
O456 O 0.08185 0.80287 0.40866 0.0
O457 O 0.02824 0.73492 0.30039 0.0
Zn458 Zn 0.05423 0.75458 0.35439 0.0
O459 O 0.04106 0.75595 0.42561 0.0
C460 C 0.08648 0.74229 0.40832 0.0
O461 O 0.09044 0.76126 0.43714 0.0
O462 O 0.07844 0.78821 0.32794 0.0
C463 C 0.0311 0.73644 0.45306 0.0
O464 O 0.02511 0.71534 0.43055 0.0
C465 C 0.01063 0.73802 0.28583 0.0
O466 O 0.00766 0.7552 0.30831 0.0
O467 O 0.07278 0.73691 0.36811 0.0
C468 C 0.24277 -0.00016 0.20786 0.0
C469 C 0.24285 0.99398 0.26113 0.0
C470 C 0.26422 0.01823 0.18386 0.0
C471 C 0.28604 0.03115 0.21269 0.0
H472 H 0.22716 0.98832 0.1831 0.0
H473 H 0.26438 0.02044 0.14181 0.0
S474 S 0.29379 0.02798 0.35544 0.0
N475 N 0.26493 0.00672 0.34388 0.0
N476 N 0.30528 0.04081 0.29829 0.0
C477 C 0.2853 0.02804 0.26701 0.0
C478 C 0.26353 0.00964 0.29153 0.0
C479 C 0.98502 0.24281 0.29925 0.0
C480 C -0.00673 0.25303 0.34944 0.0
C481 C 0.96154 0.23657 0.28155 0.0
C482 C 0.94514 0.23936 0.31406 0.0
H483 H -0.00259 0.24152 0.27162 0.0
H484 H 0.95669 0.23081 0.24124 0.0
S485 S 0.95552 0.25989 0.45253 0.0
N486 N 0.98167 0.26192 0.43406 0.0
N487 N 0.93711 0.24925 0.40123 0.0
C488 C 0.95195 0.2466 0.36632 0.0
C489 C 0.97612 0.25356 0.38403 0.0
C490 C 0.72379 0.73794 0.23392 0.0
C491 C 0.71888 0.71805 0.20091 0.0
C492 C 0.70501 0.74243 0.24927 0.0
C493 C 0.68061 0.72685 0.23293 0.0
H494 H 0.74183 0.74885 0.25147 0.0
H495 H 0.70934 0.75691 0.27755 0.0
S496 S 0.65931 0.67589 0.13675 0.0
N497 N 0.68891 0.68572 0.14422 0.0
N498 N 0.65334 0.69334 0.17539 0.0
C499 C 0.676 0.70855 0.19566 0.0
C500 C 0.69527 0.70444 0.17881 0.0
C501 C 0.77346 0.00782 0.85516 0.0
C502 C 0.76116 0.98753 0.82151 0.0
C503 C 0.78548 0.03184 0.8351 0.0
C504 C 0.78532 0.03606 0.78094 0.0
H505 H 0.77133 0.00537 0.89715 0.0
H506 H 0.79214 0.04698 0.86262 0.0
S507 S 0.76214 0.98866 0.67663 0.0
N508 N 0.75449 0.97285 0.73173 0.0
N509 N 0.77702 0.01796 0.69401 0.0
C510 C 0.77652 0.0158 0.74695 0.0
C511 C 0.76435 0.99146 0.76732 0.0
C512 C 0.97911 0.72947 0.82714 0.0
C513 C -0.00604 0.72257 0.85527 0.0
C514 C 0.95539 0.71186 0.81107 0.0
C515 C 0.94604 0.68674 0.82162 0.0
H516 H 0.98664 0.74824 0.81363 0.0
H517 H 0.94536 0.71775 0.78612 0.0
S518 S 0.97535 0.65998 0.90402 0.0
N519 N -0.00421 0.68965 0.90161 0.0
N520 N 0.95167 0.65642 0.86909 0.0
C521 C 0.95962 0.68002 0.8545 0.0
C522 C 0.98349 0.69803 0.87213 0.0
C523 C 0.23847 0.24199 0.64801 0.0
C524 C 0.26318 0.25132 0.63431 0.0
C525 C 0.23 0.25794 0.66349 0.0
C526 C 0.24621 0.28355 0.66725 0.0
H527 H 0.22573 0.22234 0.64705 0.0
H528 H 0.2107 0.25012 0.67299 0.0
S529 S 0.31321 0.31643 0.63741 0.0
N530 N 0.30375 0.2872 0.62543 0.0
N531 N 0.28857 0.31711 0.65724 0.0
C532 C 0.27119 0.29283 0.65461 0.0
C533 C 0.27946 0.27672 0.6373 0.0
C534 C 0.92519 0.36485 0.59941 0.0
C535 C 0.9281 0.36697 0.54479 0.0
C536 C 0.90635 0.34354 0.62231 0.0
C537 C 0.88995 0.32339 0.59142 0.0
H538 H 0.93867 0.379 0.62488 0.0
H539 H 0.90622 0.34196 0.66452 0.0
S540 S 0.88561 0.32269 0.44638 0.0
N541 N 0.91003 0.34952 0.46028 0.0
N542 N 0.87445 0.30921 0.5032 0.0
C543 C 0.89048 0.32674 0.53674 0.0
C544 C 0.90973 0.34861 0.51337 0.0
C545 C 0.66633 0.57862 0.62232 0.0
C546 C 0.65843 0.5806 0.57184 0.0
C547 C 0.69021 0.59494 0.63942 0.0
C548 C 0.70726 0.61333 0.60623 0.0
H549 H 0.65346 0.56574 0.65051 0.0
H550 H 0.69492 0.59411 0.67987 0.0
S551 S 0.69764 0.62324 0.4673 0.0
N552 N 0.67085 0.60019 0.4864 0.0
N553 N 0.71603 0.63053 0.5185 0.0
C554 C 0.70063 0.61373 0.55389 0.0
C555 C 0.67612 0.59734 0.5366 0.0
C556 C 0.4231 0.07549 0.61099 0.0
C557 C 0.40338 0.06553 0.6467 0.0
C558 C 0.43284 0.06126 0.59162 0.0
C559 C 0.42287 0.03667 0.60716 0.0
H560 H 0.42926 0.09343 0.59383 0.0
H561 H 0.44628 0.06869 0.56043 0.0
S562 S 0.37543 0.00397 0.70889 0.0
N563 N 0.3776 0.03124 0.70412 0.0
N564 N 0.39582 0.00448 0.66738 0.0
C565 C 0.40554 0.02767 0.64791 0.0
C566 C 0.39585 0.0422 0.66805 0.0
C567 C 0.34912 0.34304 0.1099 0.0
C568 C 0.36477 0.35613 0.06822 0.0
C569 C 0.35059 0.32387 0.13416 0.0
C570 C 0.36737 0.31677 0.11665 0.0
H571 H 0.33549 0.34751 0.12361 0.0
H572 H 0.33741 0.3136 0.16463 0.0
S573 S 0.41338 0.34641 0.01094 0.0
N574 N 0.39871 0.36212 0.01283 0.0
N575 N 0.40078 0.32516 0.05688 0.0
C576 C 0.38373 0.33036 0.07622 0.0
C577 C 0.38261 0.3503 0.05235 0.0
C578 C 0.66377 0.10304 0.08797 0.0
C579 C 0.65872 0.09212 0.03815 0.0
C580 C 0.68044 0.10121 0.12168 0.0
C581 C 0.69255 0.08847 0.10635 0.0
H582 H 0.65463 0.11285 0.10104 0.0
H583 H 0.68375 0.10968 0.15999 0.0
S584 S 0.68732 0.05905 0.97699 0.0
N585 N 0.66828 0.06997 0.97329 0.0
N586 N 0.69937 0.06616 0.03622 0.0
C587 C 0.68794 0.07797 0.05588 0.0
C588 C 0.67106 0.0799 0.02183 0.0
C589 C 0.90265 0.57689 0.10537 0.0
C590 C 0.88431 0.57547 0.07158 0.0
C591 C 0.91841 0.56846 0.08971 0.0
C592 C 0.91639 0.55814 0.03979 0.0
H593 H 0.90629 0.58654 0.14239 0.0
H594 H 0.93346 0.57175 0.11555 0.0
S595 S 0.86678 0.54332 0.94329 0.0
N596 N 0.86147 0.55789 0.99084 0.0
N597 N 0.89135 0.54201 0.96138 0.0
C598 C 0.89601 0.55336 0.0087 0.0
C599 C 0.87984 0.56201 0.0247 0.0
C600 C 0.55607 0.65519 0.02483 0.0
C601 C 0.55743 0.63696 0.99563 0.0
C602 C 0.56723 0.67949 0.00649 0.0
C603 C 0.58002 0.6861 0.95851 0.0
H604 H 0.54862 0.65131 0.06411 0.0
H605 H 0.56803 0.69348 0.03262 0.0
S606 S 0.58236 0.64336 0.86146 0.0
N607 N 0.56761 0.62581 0.91201 0.0
N608 N 0.58855 0.67139 0.87756 0.0
C609 C 0.57831 0.66725 0.926 0.0
C610 C 0.56704 0.64264 0.94466 0.0
C611 C 0.32606 0.90466 0.95177 0.0
C612 C 0.34003 0.91959 0.99403 0.0
C613 C 0.3071 0.90725 0.92935 0.0
C614 C 0.30134 0.92467 0.94885 0.0
H615 H 0.33106 0.89225 0.93321 0.0
H616 H 0.29798 0.89662 0.89469 0.0
S617 S 0.32713 0.96281 0.06834 0.0
N618 N 0.34304 0.94855 0.06128 0.0
N619 N 0.30732 0.95321 0.01939 0.0
C620 C 0.31305 0.93748 0.99492 0.0
C621 C 0.33229 0.93482 0.0178 0.0
C622 C 0.09366 0.40093 0.83641 0.0
C623 C 0.09827 0.38665 0.87198 0.0
C624 C 0.08952 0.41968 0.85426 0.0
C625 C 0.0898 0.42455 0.90816 0.0
H626 H 0.09078 0.39605 0.79533 0.0
H627 H 0.08343 0.42843 0.82617 0.0
S628 S 0.10783 0.39692 0.01501 0.0
N629 N 0.10813 0.38212 0.96182 0.0
N630 N 0.10016 0.41724 0.99532 0.0
C631 C 0.09777 0.41272 0.94301 0.0
C632 C 0.10201 0.39372 0.92491 0.0
C633 C 0.08632 0.7174 0.48389 0.0
C634 C 0.09076 0.72312 0.4304 0.0
C635 C 0.0821 0.69467 0.50291 0.0
C636 C 0.08231 0.67709 0.46897 0.0
H637 H 0.08365 0.7294 0.51023 0.0
H638 H 0.07636 0.69005 0.54324 0.0
S639 S 0.09978 0.68642 0.32854 0.0
N640 N 0.09979 0.71176 0.34606 0.0
N641 N 0.0927 0.66935 0.38179 0.0
C642 C 0.09017 0.68418 0.41701 0.0
C643 C 0.09408 0.70712 0.39762 0.0
C644 C 0.30605 0.34777 0.50157 0.0
C645 C 0.29197 0.35531 0.47232 0.0
C646 C 0.32787 0.36491 0.52603 0.0
C647 C 0.33699 0.3903 0.52032 0.0
H648 H 0.3005 0.32847 0.50482 0.0
H649 H 0.33863 0.35818 0.54569 0.0
S650 S 0.30602 0.41965 0.45291 0.0
N651 N 0.28743 0.38984 0.44393 0.0
N652 N 0.32927 0.42219 0.488 0.0
C653 C 0.32237 0.39807 0.49425 0.0
C654 C 0.29976 0.38056 0.47033 0.0
C655 C 0.59091 0.92997 0.39792 0.0
C656 C 0.6014 0.92865 0.35015 0.0
C657 C 0.58482 0.94823 0.40687 0.0
C658 C 0.58838 0.96543 0.36801 0.0
H659 H 0.58884 0.91784 0.43005 0.0
H660 H 0.5783 0.94956 0.4453 0.0
S661 S 0.6118 0.96801 0.23367 0.0
N662 N 0.61259 0.94468 0.26151 0.0
N663 N 0.60057 0.97873 0.27827 0.0
C664 C 0.59669 0.96305 0.3185 0.0
C665 C 0.60328 0.94464 0.30952 0.0
C666 C 0.36837 0.05014 0.39677 0.0
C667 C 0.36036 0.06469 0.42272 0.0
C668 C 0.37226 0.05181 0.3425 0.0
C669 C 0.36859 0.06831 0.31178 0.0
H670 H 0.37151 0.03714 0.41846 0.0
H671 H 0.37797 0.03984 0.32452 0.0
S672 S 0.348 0.11092 0.36084 0.0
N673 N 0.34905 0.09632 0.41354 0.0
N674 N 0.35662 0.09976 0.31199 0.0
C675 C 0.36087 0.08324 0.33742 0.0
C676 C 0.35662 0.0813 0.39264 0.0
C677 C 0.89972 0.27042 0.46458 0.0
C678 C 0.91937 0.28971 0.49205 0.0
C679 C 0.89793 0.27101 0.4101 0.0
C680 C 0.91594 0.29074 0.38069 0.0
H681 H 0.88546 0.25468 0.48526 0.0
H682 H 0.88274 0.25542 0.39086 0.0
S683 S 0.97026 0.34653 0.43384 0.0
N684 N 0.95653 0.32973 0.48591 0.0
N685 N 0.95345 0.33063 0.38323 0.0
C686 C 0.93542 0.31041 0.40767 0.0
C687 C 0.93707 0.30995 0.46334 0.0
C688 C 0.75923 0.69424 0.5138 0.0
C689 C 0.74035 0.69432 0.54348 0.0
C690 C 0.75768 0.69213 0.4591 0.0
C691 C 0.73746 0.6905 0.43191 0.0
H692 H 0.77493 0.69489 0.53298 0.0
H693 H 0.77248 0.6918 0.43799 0.0
S694 S 0.68336 0.69033 0.49072 0.0
N695 N 0.70089 0.69283 0.54117 0.0
N696 N 0.69827 0.68935 0.43848 0.0
C697 C 0.71876 0.69116 0.46087 0.0
C698 C 0.72014 0.69295 0.51658 0.0
C699 C 0.06772 0.30256 0.12142 0.0
C700 C 0.04769 0.30031 0.15056 0.0
C701 C 0.06726 0.30229 0.0666 0.0
C702 C 0.04694 0.30021 0.03891 0.0
H703 H 0.08381 0.30427 0.14103 0.0
H704 H 0.08322 0.30435 0.04581 0.0
S705 S 0.98962 0.29329 0.09617 0.0
N706 N 0.00667 0.29538 0.14724 0.0
N707 N 0.00616 0.2954 0.04425 0.0
C708 C 0.0268 0.29792 0.06738 0.0
C709 C 0.02708 0.29783 0.12317 0.0
C710 C 0.59135 0.67495 0.1517 0.0
C711 C 0.59248 0.69227 0.18797 0.0
C712 C 0.60692 0.68224 0.10813 0.0
C713 C 0.62406 0.70725 0.09865 0.0
H714 H 0.578 0.65559 0.15651 0.0
H715 H 0.60489 0.66811 0.08089 0.0
S716 S 0.63413 0.75981 0.18278 0.0
N717 N 0.61193 0.73537 0.21228 0.0
N718 N 0.64151 0.74931 0.13066 0.0
C719 C 0.62571 0.72474 0.13551 0.0
C720 C 0.60982 0.7172 0.18004 0.0
C721 C 0.2266 0.92768 0.1027 0.0
C722 C 0.24679 0.94607 0.13066 0.0
C723 C 0.22409 0.92973 0.0487 0.0
C724 C 0.2415 0.95038 0.02039 0.0
H725 H 0.21265 0.91139 0.12249 0.0
H726 H 0.20857 0.91474 0.02879 0.0
S727 S 0.29766 0.00387 0.07494 0.0
N728 N 0.28459 0.98569 0.1256 0.0
N729 N 0.2795 0.98981 0.02465 0.0
C730 C 0.26146 0.96921 0.04802 0.0
C731 C 0.26423 0.96695 0.1029 0.0
C732 C 0.66568 0.90871 0.6427 0.0
C733 C 0.66837 0.92973 0.66836 0.0
C734 C 0.65918 0.90455 0.58957 0.0
C735 C 0.65461 0.921 0.56086 0.0
H736 H 0.66939 0.89584 0.66333 0.0
H737 H 0.65767 0.88834 0.57094 0.0
S738 S 0.65776 0.97797 0.61185 0.0
N739 N 0.66528 0.96668 0.66227 0.0
N740 N 0.65245 0.95869 0.56303 0.0
C741 C 0.65658 0.94172 0.58681 0.0
C742 C 0.66364 0.94614 0.64043 0.0
C743 C 0.01534 0.71709 0.54053 0.0
C744 C 0.03136 0.73795 0.51098 0.0
C745 C 0.01706 0.71709 0.59527 0.0
C746 C 0.03536 0.73769 0.62231 0.0
H747 H 0.00151 0.70052 0.52119 0.0
H748 H 0.00437 0.7006 0.61642 0.0
S749 S 0.0816 0.7971 0.5638 0.0
N750 N 0.06566 0.78009 0.51346 0.0
N751 N 0.06939 0.77967 0.61591 0.0
C752 C 0.05138 0.75871 0.59343 0.0
C753 C 0.04922 0.75896 0.53789 0.0
C754 C 0.24675 0.3047 0.54994 0.0
C755 C 0.22308 0.29016 0.52899 0.0
C756 C 0.25437 0.32828 0.57022 0.0
C757 C 0.23859 0.33806 0.57006 0.0
H758 H 0.25953 0.29786 0.55009 0.0
H759 H 0.27292 0.33919 0.58518 0.0
S760 S 0.17453 0.3071 0.52056 0.0
N761 N 0.18359 0.28681 0.51067 0.0
N762 N 0.19821 0.33147 0.54717 0.0
C763 C 0.21485 0.32369 0.54921 0.0
C764 C 0.20698 0.29957 0.52923 0.0
C765 C 0.90969 0.61087 0.9224 0.0
C766 C 0.90113 0.62709 0.93589 0.0
C767 C 0.90277 0.59766 0.87533 0.0
C768 C 0.88711 0.60016 0.83991 0.0
H769 H 0.92115 0.60762 0.94914 0.0
H770 H 0.90917 0.58483 0.86728 0.0
S771 S 0.86005 0.64045 0.8552 0.0
N772 N 0.87675 0.64545 0.90858 0.0
N773 N 0.86343 0.6201 0.82061 0.0
C774 C 0.87893 0.6167 0.85194 0.0
C775 C 0.88601 0.63028 0.89985 0.0
C776 C 0.32486 0.23815 0.90548 0.0
C777 C 0.32338 0.25635 0.93488 0.0
C778 C 0.32473 0.23845 0.85056 0.0
C779 C 0.32281 0.25679 0.82276 0.0
H780 H 0.3265 0.22372 0.92496 0.0
H781 H 0.32575 0.22393 0.82981 0.0
S782 S 0.31849 0.30874 0.881 0.0
N783 N 0.32003 0.29336 0.93179 0.0
N784 N 0.31958 0.29376 0.82892 0.0
C785 C 0.32127 0.27507 0.85164 0.0
C786 C 0.32159 0.27489 0.90753 0.0
C787 C 0.74939 0.07001 0.92597 0.0
C788 C 0.73814 0.04859 0.8948 0.0
C789 C 0.7513 0.06868 0.98034 0.0
C790 C 0.74171 0.04587 0.00578 0.0
H791 H 0.7568 0.08803 0.90837 0.0
H792 H 0.75944 0.08561 1.00278 0.0
S793 S 0.71251 0.98454 0.94307 0.0
N794 N 0.71879 0.00385 0.89393 0.0
N795 N 0.72187 0.0016 0.99642 0.0
C796 C 0.73091 0.02439 0.97541 0.0
C797 C 0.72925 0.02568 0.91989 0.0
C798 C 0.01484 0.38031 0.72297 0.0
C799 C 0.01723 0.40086 0.69563 0.0
C800 C 0.01571 0.38012 0.77777 0.0
C801 C 0.01837 0.4002 0.80744 0.0
H802 H 0.0122 0.36417 0.7019 0.0
H803 H 0.01401 0.36399 0.79702 0.0
S804 S 0.02599 0.45879 0.75482 0.0
N805 N 0.02306 0.44214 0.70244 0.0
N806 N 0.0242 0.44159 0.80526 0.0
C807 C 0.02098 0.42097 0.78059 0.0
C808 C 0.02057 0.42135 0.72477 0.0
C809 C 0.61891 0.6034 0.84881 0.0
C810 C 0.59964 0.58491 0.87835 0.0
C811 C 0.61936 0.60191 0.79415 0.0
C812 C 0.60026 0.58212 0.76668 0.0
H813 H 0.63372 0.61932 0.86803 0.0
H814 H 0.63467 0.61661 0.77326 0.0
S815 S 0.54539 0.52884 0.8254 0.0
N816 N 0.56096 0.54599 0.87591 0.0
N817 N 0.56159 0.54342 0.77321 0.0
C818 C 0.58083 0.56346 0.79566 0.0
C819 C 0.58059 0.56477 0.85145 0.0
C820 C 0.40073 0.94433 0.74832 0.0
C821 C 0.38058 0.93979 0.78004 0.0
C822 C 0.39903 0.94407 0.69357 0.0
C823 C 0.3772 0.93959 0.66844 0.0
H824 H 0.41808 0.94838 0.76587 0.0
H825 H 0.41531 0.94852 0.67093 0.0
S826 S 0.31876 0.92552 0.73339 0.0
N827 N 0.33773 0.92962 0.78203 0.0
N828 N 0.33469 0.92945 0.67937 0.0
C829 C 0.35671 0.93434 0.69964 0.0
C830 C 0.35836 0.93437 0.75532 0.0
C831 C 0.61554 0.05036 0.20539 0.0
C832 C 0.63046 0.04303 0.17874 0.0
C833 C 0.61645 0.05284 0.25998 0.0
C834 C 0.63235 0.04815 0.29037 0.0
H835 H 0.60262 0.05376 0.1841 0.0
H836 H 0.60397 0.05773 0.27853 0.0
S837 S 0.67665 0.03023 0.23947 0.0
N838 N 0.66264 0.03238 0.18686 0.0
N839 N 0.66454 0.03725 0.28915 0.0
C840 C 0.64815 0.04181 0.26403 0.0
C841 C 0.64713 0.03917 0.20839 0.0
C842 C 0.009 0.62518 0.26226 0.0
C843 C 0.01671 0.61054 0.28855 0.0
C844 C 0.00546 0.62346 0.20798 0.0
C845 C 0.01011 0.60752 0.17754 0.0
H846 H 0.00525 0.6378 0.28389 0.0
H847 H -0.00123 0.63456 0.18984 0.0
S848 S 0.03167 0.56594 0.22746 0.0
N849 N 0.02938 0.57988 0.28019 0.0
N850 N 0.02336 0.57707 0.178 0.0
C851 C 0.01833 0.59311 0.20329 0.0
C852 C 0.02145 0.5945 0.2588 0.0
C853 C 0.37899 0.42827 0.21818 0.0
C854 C 0.3551 0.41394 0.19732 0.0
C855 C 0.38418 0.42596 0.27058 0.0
C856 C 0.36566 0.40948 0.30461 0.0
H857 H 0.39406 0.44092 0.19352 0.0
H858 H 0.40288 0.43726 0.2845 0.0
S859 S 0.29987 0.36831 0.27037 0.0
N860 N 0.31262 0.38302 0.2155 0.0
N861 N 0.32227 0.37893 0.31398 0.0
C862 C 0.34157 0.39544 0.28469 0.0
C863 C 0.33633 0.39761 0.23114 0.0
C864 C 0.36085 0.17442 0.06361 0.0
C865 C 0.36057 0.19142 0.09918 0.0
C866 C 0.36281 0.15428 0.08106 0.0
C867 C 0.36454 0.15041 0.13472 0.0
H868 H 0.35847 0.17602 0.02211 0.0
H869 H 0.3618 0.14108 0.0524 0.0
S870 S 0.36882 0.1918 0.24312 0.0
N871 N 0.36525 0.20466 0.19008 0.0
N872 N 0.36889 0.16687 0.22275 0.0
C873 C 0.36595 0.16816 0.17037 0.0
C874 C 0.36398 0.18864 0.15265 0.0
C875 C 0.81369 0.16307 0.14532 0.0
C876 C 0.79828 0.14418 0.17993 0.0
C877 C 0.83131 0.18637 0.16376 0.0
C878 C 0.83412 0.19186 0.2176 0.0
H879 H 0.81248 0.15977 0.10354 0.0
H880 H 0.84297 0.20011 0.13544 0.0
S881 S 0.79732 0.1492 0.32455 0.0
N882 N 0.78631 0.13279 0.27062 0.0
N883 N 0.81927 0.17657 0.30533 0.0
C884 C 0.81839 0.17331 0.25264 0.0
C885 C 0.80055 0.14949 0.23383 0.0
C886 C 0.79723 0.64044 0.18277 0.0
C887 C 0.79764 0.66221 0.19785 0.0
C888 C 0.81748 0.6411 0.15833 0.0
C889 C 0.83902 0.66356 0.1478 0.0
H890 H 0.78116 0.62263 0.19007 0.0
H891 H 0.8162 0.62375 0.14792 0.0
S892 S 0.8494 0.72597 0.17818 0.0
N893 N 0.82135 0.70702 0.1996 0.0
N894 N 0.8594 0.70825 0.15363 0.0
C895 C 0.83965 0.68554 0.16217 0.0
C896 C 0.81899 0.68487 0.18721 0.0
C897 C 0.12958 0.28005 0.34761 0.0
C898 C 0.13482 0.30452 0.35361 0.0
C899 C 0.14747 0.27346 0.35693 0.0
C900 C 0.17141 0.29104 0.37257 0.0
H901 H 0.1115 0.26575 0.33523 0.0
H902 H 0.14243 0.25438 0.3515 0.0
S903 S 0.19444 0.35748 0.39658 0.0
N904 N 0.16559 0.34634 0.37803 0.0
N905 N 0.1993 0.33396 0.39532 0.0
C906 C 0.17693 0.31558 0.37925 0.0
C907 C 0.15863 0.3223 0.36989 0.0
C908 C 0.65019 0.81679 0.37077 0.0
C909 C 0.63489 0.82719 0.37021 0.0
C910 C 0.64101 0.79198 0.35841 0.0
C911 C 0.61608 0.77643 0.34524 0.0
H912 H 0.6695 0.82789 0.38072 0.0
H913 H 0.65365 0.78497 0.35944 0.0
S914 S 0.56818 0.79453 0.33792 0.0
N915 N 0.59345 0.81997 0.35518 0.0
N916 N 0.57622 0.7733 0.33212 0.0
C917 C 0.60052 0.78655 0.34447 0.0
C918 C 0.60991 0.81191 0.35686 0.0
C919 C 0.11577 0.83399 0.28886 0.0
C920 C 0.11065 0.82935 0.34255 0.0
C921 C 0.13766 0.85433 0.27155 0.0
C922 C 0.1554 0.87061 0.30726 0.0
H923 H 0.10301 0.82154 0.25986 0.0
H924 H 0.14101 0.85677 0.22984 0.0
S925 S 0.15013 0.86788 0.45201 0.0
N926 N 0.12451 0.84369 0.43137 0.0
N927 N 0.16573 0.88176 0.39873 0.0
C928 C 0.15015 0.86674 0.36103 0.0
C929 C 0.12774 0.84617 0.37869 0.0
C930 C 0.69106 0.85987 0.89703 0.0
C931 C 0.66903 0.8606 0.9008 0.0
C932 C 0.69201 0.83878 0.91088 0.0
C933 C 0.67095 0.81752 0.92871 0.0
H934 H 0.7077 0.87557 0.88238 0.0
H935 H 0.70927 0.83898 0.90623 0.0
S936 S 0.60926 0.81046 0.95059 0.0
N937 N 0.62602 0.8386 0.92729 0.0
N938 N 0.62781 0.79896 0.95306 0.0
C939 C 0.64899 0.8182 0.93439 0.0
C940 C 0.64804 0.83974 0.92056 0.0
C941 C 0.12778 0.8309 0.83291 0.0
C942 C 0.13059 0.81741 0.79214 0.0
C943 C 0.14741 0.85351 0.84948 0.0
C944 C 0.17079 0.86356 0.82627 0.0
H945 H 0.11025 0.82392 0.85257 0.0
H946 H 0.14426 0.86293 0.88146 0.0
S947 S 0.18779 0.83623 0.7164 0.0
N948 N 0.15853 0.81625 0.72767 0.0
N949 N 0.19547 0.8587 0.75904 0.0
C950 C 0.17384 0.85052 0.78485 0.0
C951 C 0.15375 0.82749 0.76774 0.0
C952 C 0.13609 0.31576 0.74434 0.0
C953 C 0.12533 0.30564 0.7929 0.0
C954 C 0.15999 0.32105 0.73244 0.0
C955 C 0.17408 0.31632 0.76853 0.0
H956 H 0.12642 0.32064 0.71597 0.0
H957 H 0.16766 0.32954 0.69507 0.0
S958 S 0.15313 0.28681 0.89852 0.0
N959 N 0.12964 0.28879 0.87539 0.0
N960 N 0.17459 0.29872 0.85299 0.0
C961 C 0.16302 0.30484 0.81603 0.0
C962 C 0.13865 0.29951 0.82822 0.0
C963 C 0.84951 0.66011 0.66604 0.0
C964 C 0.841 0.63883 0.69686 0.0
C965 C 0.83597 0.67227 0.66168 0.0
C966 C 0.81377 0.66395 0.68905 0.0
H967 H 0.86658 0.66723 0.64449 0.0
H968 H 0.84293 0.68828 0.63658 0.0
S969 S 0.78418 0.60969 0.77713 0.0
N970 N 0.80935 0.61029 0.75629 0.0
N971 N 0.78415 0.63335 0.74905 0.0
C972 C 0.80537 0.643 0.72102 0.0
C973 C 0.8189 0.63036 0.72461 0.0
C974 C 0.31462 0.16105 0.60452 0.0
C975 C 0.33421 0.17955 0.63362 0.0
C976 C 0.31439 0.13942 0.58998 0.0
C977 C 0.3337 0.13532 0.60412 0.0
H978 H 0.29924 0.16323 0.59271 0.0
H979 H 0.29884 0.12578 0.56766 0.0
S980 S 0.38947 0.17801 0.68027 0.0
N981 N 0.37355 0.19235 0.67598 0.0
N982 N 0.37313 0.15173 0.6488 0.0
C983 C 0.35348 0.15369 0.63316 0.0
C984 C 0.35374 0.17578 0.64784 0.0
C985 C 0.82314 0.17982 0.60811 0.0
C986 C 0.83679 0.19635 0.64844 0.0
C987 C 0.80584 0.15525 0.6188 0.0
C988 C 0.80139 0.1462 0.67029 0.0
H989 H 0.82601 0.18574 0.56768 0.0
H990 H 0.79599 0.14326 0.58625 0.0
S991 S 0.83167 0.18212 0.7904 0.0
N992 N 0.84425 0.20207 0.74224 0.0
N993 N 0.81172 0.1559 0.76239 0.0
C994 C 0.8146 0.16263 0.71121 0.0
C995 C 0.8323 0.18767 0.70028 0.0
C996 C 0.00871 0.48821 0.47718 0.0
C997 C 0.02825 0.49063 0.50852 0.0
C998 C 0.00726 0.50877 0.46143 0.0
C999 C 0.02532 0.53272 0.47612 0.0
H1000 H -0.0059 0.47022 0.46511 0.0
H1001 H 0.99165 0.50572 0.43781 0.0
S1002 S 0.0809 0.5494 0.5562 0.0
N1003 N 0.06655 0.51907 0.55245 0.0
N1004 N 0.06385 0.55781 0.52267 0.0
C1005 C 0.04528 0.53555 0.50656 0.0
C1006 C 0.04674 0.51451 0.52278 0.0
C1007 C 0.51342 0.48537 0.55326 0.0
C1008 C 0.51525 0.50865 0.55412 0.0
C1009 C 0.49236 0.46465 0.53385 0.0
C1010 C 0.47238 0.46643 0.51408 0.0
H1011 H 0.52828 0.48302 0.56812 0.0
H1012 H 0.49177 0.4471 0.53444 0.0
S1013 S 0.46822 0.52338 0.50626 0.0
N1014 N 0.49541 0.53238 0.53265 0.0
N1015 N 0.45593 0.49355 0.49603 0.0
C1016 C 0.47409 0.48969 0.51415 0.0
C1017 C 0.49547 0.51075 0.53425 0.0
C1018 C 0.52253 0.00967 0.5076 0.0
C1019 C 0.52725 0.014 0.45369 0.0
C1020 C 0.49862 -0.0007 0.52751 0.0
C1021 C 0.47835 0.99286 0.49448 0.0
H1022 H 0.53737 0.01397 0.53484 0.0
H1023 H 0.4961 -0.00368 0.56931 0.0
S1024 S 0.48071 0.00114 0.35031 0.0
N1025 N 0.50959 0.01154 0.36757 0.0
N1026 N 0.46467 0.99209 0.40501 0.0
C1027 C 0.48278 -0.00263 0.44049 0.0
C1028 C 0.5072 0.00794 0.42015 0.0
C1029 C 0.5014 0.00142 0.94805 0.0
C1030 C 0.48122 0.97893 0.96408 0.0
C1031 C 0.52525 0.00878 0.9649 0.0
C1032 C 0.53011 0.99401 0.99868 0.0
H1033 H 0.49883 0.01374 0.92259 0.0
H1034 H 0.53997 0.02644 0.9516 0.0
S1035 S 0.48391 0.93276 0.05039 0.0
N1036 N 0.46772 0.94141 0.01443 0.0
N1037 N 0.51275 0.9553 0.04623 0.0
C1038 C 0.5102 0.97121 0.01439 0.0
C1039 C 0.48575 0.96366 0.99707 0.0
C1040 C -0.00576 0.50615 0.97789 0.0
C1041 C 0.01428 0.52615 1.00278 0.0
C1042 C -0.00602 0.48401 0.96907 0.0
C1043 C 0.01372 0.48089 0.98483 0.0
H1044 H 0.9785 0.50749 0.9651 0.0
H1045 H 0.97807 0.46923 0.94973 0.0
S1046 S 0.07078 0.52763 0.05149 0.0
N1047 N 0.05453 0.54144 0.04299 0.0
N1048 N 0.05403 0.49981 0.02642 0.0
C1049 C 0.03395 0.50075 0.00969 0.0
C1050 C 0.03424 0.52337 0.01861 0.0
C1051 C 0.4563 0.49451 0.99732 0.0
C1052 C 0.44989 0.48144 0.04475 0.0
C1053 C 0.48 0.51443 0.98909 0.0
C1054 C 0.49828 0.5222 0.02802 0.0
H1055 H 0.44298 0.48921 0.96595 0.0
H1056 H 0.48398 0.52373 0.95169 0.0
S1057 S 0.49072 0.49473 0.16012 0.0
N1058 N 0.46364 0.47807 0.13186 0.0
N1059 N 0.50814 0.5155 0.11639 0.0
C1060 C 0.49207 0.50946 0.07592 0.0
C1061 C 0.46791 0.4891 0.08427 0.0
C1062 C 0.40326 0.0162 0.03716 0.0
C1063 C 0.38703 0.00512 0.99475 0.0
C1064 C 0.40153 0.03324 0.06994 0.0
C1065 C 0.38344 0.0399 0.06196 0.0
H1066 H 0.41723 0.01141 0.04584 0.0
H1067 H 0.41422 0.04086 0.10249 0.0
S1068 S 0.33755 0.0177 0.95413 0.0
N1069 N 0.35296 0.00307 0.94508 0.0
N1070 N 0.34986 0.03513 0.00636 0.0
C1071 C 0.36747 0.02945 0.01892 0.0
C1072 C 0.36924 0.0121 0.98543 0.0
C1073 C 0.97453 0.33826 0.1305 0.0
C1074 C 0.9493 0.32066 0.1284 0.0
C1075 C 0.9855 0.35698 0.09312 0.0
C1076 C 0.97177 0.359 0.05179 0.0
H1077 H 0.98605 0.3376 0.16127 0.0
H1078 H 0.00504 0.36987 0.09663 0.0
S1079 S 0.90484 0.31773 0.02881 0.0
N1080 N 0.91072 0.30657 0.08184 0.0
N1081 N 0.93131 0.34179 0.01153 0.0
C1082 C 0.94642 0.34166 0.04944 0.0
C1083 C 0.9352 0.32255 0.08775 0.0
C1084 C 0.65956 0.605 0.13028 0.0
C1085 C 0.63608 0.60263 0.13382 0.0
C1086 C 0.67787 0.6183 0.16769 0.0
C1087 C 0.67354 0.62985 0.2103 0.0
H1088 H 0.66419 0.59716 0.09746 0.0
H1089 H 0.69587 0.62028 0.1619 0.0
S1090 S 0.61448 0.6274 0.24069 0.0
N1091 N 0.609 0.61159 0.18584 0.0
N1092 N 0.64332 0.63646 0.256 0.0
C1093 C 0.64977 0.62662 0.21582 0.0
C1094 C 0.6311 0.61308 0.17767 0.0
C1095 C 0.06091 0.35725 0.43029 0.0
C1096 C 0.05251 0.35474 0.37834 0.0
C1097 C 0.05631 0.37105 0.46709 0.0
C1098 C 0.04311 0.38293 0.4535 0.0
H1099 H 0.07056 0.34792 0.4432 0.0
H1100 H 0.06258 0.37181 0.50688 0.0
S1101 S 0.01936 0.38442 0.32127 0.0
N1102 N 0.03184 0.36686 0.31433 0.0
N1103 N 0.0235 0.39299 0.38322 0.0
C1104 C 0.03551 0.38146 0.40115 0.0
C1105 C 0.04012 0.36733 0.3637 0.0
C1106 C 0.5935 0.61456 0.46464 0.0
C1107 C 0.60239 0.62579 0.51365 0.0
C1108 C 0.59455 0.62833 0.4207 0.0
C1109 C 0.60433 0.65396 0.42377 0.0
H1110 H 0.58592 0.59492 0.4598 0.0
H1111 H 0.58759 0.61868 0.38397 0.0
S1112 S 0.62915 0.69224 0.54361 0.0
N1113 N 0.62085 0.66406 0.56307 0.0
N1114 N 0.62261 0.69001 0.48057 0.0
C1115 C 0.61307 0.66547 0.47272 0.0
C1116 C 0.61217 0.65139 0.51755 0.0
C1117 C 0.3398 0.96195 0.40573 0.0
C1118 C 0.33648 0.94016 0.42906 0.0
C1119 C 0.32135 0.96211 0.37519 0.0
C1120 C 0.29868 0.94049 0.36631 0.0
H1121 H 0.35666 0.97926 0.41181 0.0
H1122 H 0.32488 0.97954 0.35905 0.0
S1123 S 0.28099 0.87817 0.41593 0.0
N1124 N 0.30897 0.89606 0.43928 0.0
N1125 N 0.27432 0.89638 0.38177 0.0
C1126 C 0.29528 0.9184 0.38816 0.0
C1127 C 0.31413 0.91823 0.41951 0.0
C1128 C 0.64886 0.98716 0.87697 0.0
C1129 C 0.6521 0.96779 0.89519 0.0
C1130 C 0.6393 -0.00161 0.90926 0.0
C1131 C 0.63234 0.99066 0.96116 0.0
H1132 H 0.65378 0.99386 0.83729 0.0
H1133 H 0.63703 0.01308 0.89301 0.0
S1134 S 0.63844 0.94179 0.02947 0.0
N1135 N 0.64847 0.94204 0.96967 0.0
N1136 N 0.63043 0.96316 0.03029 0.0
C1137 C 0.63578 0.97156 0.98033 0.0
C1138 C 0.64566 0.96014 0.94743 0.0
C1139 C 0.05198 0.66828 0.92732 0.0
C1140 C 0.03226 0.64401 0.92174 0.0
C1141 C 0.05678 0.68631 0.88944 0.0
C1142 C 0.04208 0.68084 0.84433 0.0
H1143 H 0.06339 0.67369 0.96207 0.0
H1144 H 0.07157 0.70491 0.89673 0.0
S1145 S 0.98985 0.61944 0.8078 0.0
N1146 N -0.00086 0.61502 0.86509 0.0
N1147 N 0.00823 0.64881 0.79406 0.0
C1148 C 0.0231 0.65634 0.83687 0.0
C1149 C 0.01816 0.63798 0.87549 0.0
C1150 C 0.2984 0.38916 0.85095 0.0
C1151 C 0.30746 0.39104 0.79969 0.0
C1152 C 0.31441 0.39848 0.89422 0.0
C1153 C 0.34011 0.41006 0.88797 0.0
H1154 H 0.27876 0.37977 0.858 0.0
H1155 H 0.30651 0.3959 0.93295 0.0
S1156 S 0.37335 0.4223 0.7614 0.0
N1157 N 0.34398 0.40727 0.74504 0.0
N1158 N 0.37386 0.4247 0.82571 0.0
C1159 C 0.3494 0.413 0.83667 0.0
C1160 C 0.33315 0.40352 0.79278 0.0
C1161 C 0.95822 0.63272 0.58493 0.0
C1162 C 0.9501 0.61507 0.62515 0.0
C1163 C 0.97419 0.63339 0.54568 0.0
C1164 C 0.98246 0.61625 0.54461 0.0
H1165 H 0.95254 0.64642 0.58414 0.0
H1166 H 0.9801 0.64754 0.51601 0.0
S1167 S 0.96608 0.56584 0.64031 0.0
N1168 N 0.95127 0.57978 0.66105 0.0
N1169 N 0.98097 0.58086 0.58728 0.0
C1170 C 0.9742 0.59829 0.58428 0.0
C1171 C 0.95815 0.59777 0.62452 0.0
C1172 C 0.3813 0.32648 0.58756 0.0
C1173 C 0.36097 0.30285 0.57869 0.0
C1174 C 0.38783 0.34573 0.55173 0.0
C1175 C 0.37419 0.34229 0.50557 0.0
H1176 H 0.392 0.33038 0.62314 0.0
H1177 H 0.40322 0.36369 0.56136 0.0
S1178 S 0.32008 0.28363 0.46192 0.0
N1179 N 0.32799 0.27685 0.51836 0.0
N1180 N 0.34001 0.313 0.45178 0.0
C1181 C 0.3543 0.31856 0.49528 0.0
C1182 C 0.34778 0.29889 0.53154 0.0
C1183 C 0.675 0.03836 0.56324 0.0
C1184 C 0.65987 0.04853 0.55307 0.0
C1185 C 0.69215 0.04705 0.60419 0.0
C1186 C 0.69517 0.06649 0.63667 0.0
H1187 H 0.67368 0.02351 0.53928 0.0
H1188 H 0.70332 0.03854 0.60993 0.0
S1189 S 0.66012 0.09962 0.62712 0.0
N1190 N 0.64899 0.07915 0.57937 0.0
N1191 N 0.68141 0.09567 0.65602 0.0
C1192 C 0.68026 0.07697 0.62695 0.0
C1193 C 0.66263 0.06799 0.58527 0.0
C1194 C 0.72563 0.73388 0.80317 0.0
C1195 C 0.72571 0.71152 0.79851 0.0
C1196 C 0.71036 0.73668 0.83939 0.0
C1197 C 0.69433 0.71714 0.87202 0.0
H1198 H 0.73704 0.74924 0.77782 0.0
H1199 H 0.71044 0.75398 0.8403 0.0
S1200 S 0.68921 0.65566 0.87971 0.0
N1201 N 0.70966 0.67012 0.83323 0.0
N1202 N 0.68089 0.67534 0.90046 0.0
C1203 C 0.69494 0.69505 0.86939 0.0
C1204 C 0.71063 0.69226 0.83294 0.0
C1205 C 0.30377 0.98384 0.65837 0.0
C1206 C 0.30676 0.00748 0.66409 0.0
C1207 C 0.29023 0.96511 0.69459 0.0
C1208 C 0.27935 0.96921 0.73877 0.0
H1209 H 0.31208 0.97969 0.62568 0.0
H1210 H 0.28859 0.94731 0.68796 0.0
S1211 S 0.28146 0.02789 0.77196 0.0
N1212 N 0.29731 0.03393 0.7171 0.0
N1213 N 0.27219 -0.00118 0.78564 0.0
C1214 C 0.28193 0.99272 0.74478 0.0
C1215 C 0.29553 0.01179 0.7074 0.0
C1216 C 0.96982 0.29719 0.76016 0.0
C1217 C 0.96382 0.27807 0.72394 0.0
C1218 C 0.99034 0.3057 0.79304 0.0
C1219 C 0.00587 0.29553 0.79127 0.0
H1220 H 0.9586 0.30578 0.76329 0.0
H1221 H -0.00608 0.32031 0.82038 0.0
S1222 S -0.00145 0.24512 0.70347 0.0
N1223 N 0.97524 0.24915 0.68838 0.0
N1224 N 0.01387 0.26526 0.75014 0.0
C1225 C 0.00012 0.27634 0.75544 0.0
C1226 C 0.97915 0.26764 0.72178 0.0
C1227 C 0.27293 0.26549 0.19941 0.0
C1228 C 0.28546 0.25212 0.19819 0.0
C1229 C 0.26312 0.26877 0.24609 0.0
C1230 C 0.26557 0.25899 0.29383 0.0
H1231 H 0.27109 0.27402 0.16419 0.0
H1232 H 0.25415 0.27968 0.24484 0.0
S1233 S 0.29545 0.22121 0.31182 0.0
N1234 N 0.29868 0.22796 0.24892 0.0
N1235 N 0.28045 0.23427 0.33639 0.0
C1236 C 0.2774 0.24494 0.29297 0.0
C1237 C 0.28725 0.24145 0.24532 0.0
C1238 C 0.71596 0.00749 0.29598 0.0
C1239 C 0.72391 0.00215 0.24887 0.0
C1240 C 0.70277 0.98918 0.33308 0.0
C1241 C 0.69684 0.96462 0.3248 0.0
H1242 H 0.71954 0.02595 0.30405 0.0
H1243 H 0.69665 0.99433 0.36799 0.0
S1244 S 0.7147 0.94111 0.20937 0.0
N1245 N 0.72598 0.97066 0.19707 0.0
N1246 N 0.70112 0.93617 0.26692 0.0
C1247 C 0.70546 0.95913 0.27875 0.0
C1248 C 0.71901 0.97788 0.24084 0.0
C1249 C 0.9703 0.72047 0.23828 0.0
C1250 C -0.00681 0.72179 0.2449 0.0
C1251 C 0.95295 0.70416 0.20207 0.0
C1252 C 0.9578 0.68849 0.17112 0.0
H1253 H 0.96543 0.73165 0.26216 0.0
H1254 H 0.93531 0.70331 0.19958 0.0
S1255 S 0.01629 0.6873 0.16779 0.0
N1256 N 0.02068 0.70771 0.21345 0.0
N1257 N 0.98808 0.67707 0.14581 0.0
C1258 C 0.98101 0.69039 0.17568 0.0
C1259 C -0.00131 0.70701 0.21242 0.0
loop_
_geom_bond_atom_site_label_1
_geom_bond_atom_site_label_2
_geom_bond_distance
_geom_bond_site_symmetry_2
_ccdc_geom_bond_type
C0 O1 1.160 . S
C0 O7 1.185 . S
O1 C0 1.160 . S
O2 Zn3 1.899 . S
O2 C10 1.284 . S
Zn3 O2 1.899 . S
Zn3 O4 2.032 . S
Zn3 O7 2.086 . S
Zn3 O12 1.977 . S
O4 Zn3 2.032 . S
O4 C8 1.278 . S
C5 O6 1.203 . S
C5 O12 1.267 . S
O6 C5 1.203 . S
O7 C0 1.185 . S
O7 Zn3 2.086 . S
C8 O4 1.278 . S
C8 O9 1.211 . S
O9 C8 1.211 . S
C10 O2 1.284 . S
C10 O11 1.273 . S
O11 C10 1.273 . S
O12 Zn3 1.977 . S
O12 C5 1.267 . S
C13 O14 1.160 . S
C13 O20 1.185 . S
O14 C13 1.160 . S
O15 Zn16 1.899 . S
O15 C23 1.284 . S
Zn16 O15 1.899 . S
Zn16 O17 2.032 . S
Zn16 O20 2.086 . S
Zn16 O25 1.977 . S
O17 Zn16 2.032 . S
O17 C21 1.278 . S
C18 O19 1.203 . S
C18 O25 1.267 . S
O19 C18 1.203 . S
O20 C13 1.185 . S
O20 Zn16 2.086 . S
C21 O17 1.278 . S
C21 O22 1.211 . S
O22 C21 1.211 . S
C23 O15 1.284 . S
C23 O24 1.273 . S
O24 C23 1.273 . S
O25 Zn16 1.977 . S
O25 C18 1.267 . S
C26 O27 1.160 . S
C26 O33 1.185 . S
O27 C26 1.160 . S
O28 Zn29 1.899 . S
O28 C36 1.284 . S
Zn29 O28 1.899 . S
Zn29 O30 2.032 . S
Zn29 O33 2.086 . S
Zn29 O38 1.977 . S
O30 Zn29 2.032 . S
O30 C34 1.278 . S
C31 O32 1.203 . S
C31 O38 1.267 . S
O32 C31 1.203 . S
O33 C26 1.185 . S
O33 Zn29 2.086 . S
C34 O30 1.278 . S
C34 O35 1.211 . S
O35 C34 1.211 . S
C36 O28 1.284 . S
C36 O37 1.273 . S
O37 C36 1.273 . S
O38 Zn29 1.977 . S
O38 C31 1.267 . S
C39 O40 1.160 . S
C39 O46 1.185 . S
O40 C39 1.160 . S
O41 Zn42 1.899 . S
O41 C49 1.284 . S
Zn42 O41 1.899 . S
Zn42 O43 2.032 . S
Zn42 O46 2.086 . S
Zn42 O51 1.977 . S
O43 Zn42 2.032 . S
O43 C47 1.278 . S
C44 O45 1.203 . S
C44 O51 1.267 . S
O45 C44 1.203 . S
O46 C39 1.185 . S
O46 Zn42 2.086 . S
C47 O43 1.278 . S
C47 O48 1.211 . S
O48 C47 1.211 . S
C49 O41 1.284 . S
C49 O50 1.273 . S
O50 C49 1.273 . S
O51 Zn42 1.977 . S
O51 C44 1.267 . S
C52 O53 1.160 . S
C52 O59 1.185 . S
O53 C52 1.160 . S
O54 Zn55 1.899 . S
O54 C62 1.284 . S
Zn55 O54 1.899 . S
Zn55 O56 2.032 . S
Zn55 O59 2.086 . S
Zn55 O64 1.977 . S
O56 Zn55 2.032 . S
O56 C60 1.278 . S
C57 O58 1.203 . S
C57 O64 1.267 . S
O58 C57 1.203 . S
O59 C52 1.185 . S
O59 Zn55 2.086 . S
C60 O56 1.278 . S
C60 O61 1.211 . S
O61 C60 1.211 . S
C62 O54 1.284 . S
C62 O63 1.273 . S
O63 C62 1.273 . S
O64 Zn55 1.977 . S
O64 C57 1.267 . S
C65 O66 1.160 . S
C65 O72 1.185 . S
O66 C65 1.160 . S
O67 Zn68 1.899 . S
O67 C75 1.284 . S
Zn68 O67 1.899 . S
Zn68 O69 2.032 . S
Zn68 O72 2.086 . S
Zn68 O77 1.977 . S
O69 Zn68 2.032 . S
O69 C73 1.278 . S
C70 O71 1.203 . S
C70 O77 1.267 . S
O71 C70 1.203 . S
O72 C65 1.185 . S
O72 Zn68 2.086 . S
C73 O69 1.278 . S
C73 O74 1.211 . S
O74 C73 1.211 . S
C75 O67 1.284 . S
C75 O76 1.273 . S
O76 C75 1.273 . S
O77 Zn68 1.977 . S
O77 C70 1.267 . S
C78 O79 1.160 . S
C78 O85 1.185 . S
O79 C78 1.160 . S
O80 Zn81 1.899 . S
O80 C88 1.284 . S
Zn81 O80 1.899 . S
Zn81 O82 2.032 . S
Zn81 O85 2.086 . S
Zn81 O90 1.977 . S
O82 Zn81 2.032 . S
O82 C86 1.278 . S
C83 O84 1.203 . S
C83 O90 1.267 . S
O84 C83 1.203 . S
O85 C78 1.185 . S
O85 Zn81 2.086 . S
C86 O82 1.278 . S
C86 O87 1.211 . S
O87 C86 1.211 . S
C88 O80 1.284 . S
C88 O89 1.273 . S
O89 C88 1.273 . S
O90 Zn81 1.977 . S
O90 C83 1.267 . S
C91 O92 1.160 . S
C91 O98 1.185 . S
O92 C91 1.160 . S
O93 Zn94 1.899 . S
O93 C101 1.284 . S
Zn94 O93 1.899 . S
Zn94 O95 2.032 . S
Zn94 O98 2.086 . S
Zn94 O103 1.977 . S
O95 Zn94 2.032 . S
O95 C99 1.278 . S
C96 O97 1.203 . S
C96 O103 1.267 . S
O97 C96 1.203 . S
O98 C91 1.185 . S
O98 Zn94 2.086 . S
C99 O95 1.278 . S
C99 O100 1.211 . S
O100 C99 1.211 . S
C101 O93 1.284 . S
C101 O102 1.273 . S
O102 C101 1.273 . S
O103 Zn94 1.977 . S
O103 C96 1.267 . S
C104 O105 1.160 . S
C104 O111 1.185 . S
O105 C104 1.160 . S
O106 Zn107 1.899 . S
O106 C114 1.284 . S
Zn107 O106 1.899 . S
Zn107 O108 2.032 . S
Zn107 O111 2.086 . S
Zn107 O116 1.977 . S
O108 Zn107 2.032 . S
O108 C112 1.278 . S
C109 O110 1.203 . S
C109 O116 1.267 . S
O110 C109 1.203 . S
O111 C104 1.185 . S
O111 Zn107 2.086 . S
C112 O108 1.278 . S
C112 O113 1.211 . S
O113 C112 1.211 . S
C114 O106 1.284 . S
C114 O115 1.273 . S
O115 C114 1.273 . S
O116 Zn107 1.977 . S
O116 C109 1.267 . S
C117 O118 1.160 . S
C117 O124 1.185 . S
O118 C117 1.160 . S
O119 Zn120 1.899 . S
O119 C127 1.284 . S
Zn120 O119 1.899 . S
Zn120 O121 2.032 . S
Zn120 O124 2.086 . S
Zn120 O129 1.977 . S
O121 Zn120 2.032 . S
O121 C125 1.278 . S
C122 O123 1.203 . S
C122 O129 1.267 . S
O123 C122 1.203 . S
O124 C117 1.185 . S
O124 Zn120 2.086 . S
C125 O121 1.278 . S
C125 O126 1.211 . S
O126 C125 1.211 . S
C127 O119 1.284 . S
C127 O128 1.273 . S
O128 C127 1.273 . S
O129 Zn120 1.977 . S
O129 C122 1.267 . S
C130 O131 1.160 . S
C130 O137 1.185 . S
O131 C130 1.160 . S
O132 Zn133 1.899 . S
O132 C140 1.284 . S
Zn133 O132 1.899 . S
Zn133 O134 2.032 . S
Zn133 O137 2.086 . S
Zn133 O142 1.977 . S
O134 Zn133 2.032 . S
O134 C138 1.278 . S
C135 O136 1.203 . S
C135 O142 1.267 . S
O136 C135 1.203 . S
O137 C130 1.185 . S
O137 Zn133 2.086 . S
C138 O134 1.278 . S
C138 O139 1.211 . S
O139 C138 1.211 . S
C140 O132 1.284 . S
C140 O141 1.273 . S
O141 C140 1.273 . S
O142 Zn133 1.977 . S
O142 C135 1.267 . S
C143 O144 1.160 . S
C143 O150 1.185 . S
O144 C143 1.160 . S
O145 Zn146 1.899 . S
O145 C153 1.284 . S
Zn146 O145 1.899 . S
Zn146 O147 2.032 . S
Zn146 O150 2.086 . S
Zn146 O155 1.977 . S
O147 Zn146 2.032 . S
O147 C151 1.278 . S
C148 O149 1.203 . S
C148 O155 1.267 . S
O149 C148 1.203 . S
O150 C143 1.185 . S
O150 Zn146 2.086 . S
C151 O147 1.278 . S
C151 O152 1.211 . S
O152 C151 1.211 . S
C153 O145 1.284 . S
C153 O154 1.273 . S
O154 C153 1.273 . S
O155 Zn146 1.977 . S
O155 C148 1.267 . S
C156 O157 1.160 . S
C156 O163 1.184 1_455 S
O157 C156 1.160 . S
O158 Zn159 1.899 . S
O158 C166 1.284 . S
Zn159 O158 1.899 . S
Zn159 O160 2.032 . S
Zn159 O163 2.077 1_455 S
Zn159 O168 1.977 1_455 S
O160 Zn159 2.032 . S
O160 C164 1.278 . S
C161 O162 1.203 1_655 S
C161 O168 1.267 . S
O162 C161 1.203 1_455 S
O163 C156 1.184 1_655 S
O163 Zn159 2.077 1_655 S
C164 O160 1.278 . S
C164 O165 1.211 . S
O165 C164 1.211 . S
C166 O158 1.284 . S
C166 O167 1.273 . S
O167 C166 1.273 . S
O168 Zn159 1.977 1_655 S
O168 C161 1.267 . S
C169 O170 1.160 . S
C169 O176 1.185 . S
O170 C169 1.160 . S
O171 Zn172 1.899 . S
O171 C179 1.284 . S
Zn172 O171 1.899 . S
Zn172 O173 2.032 . S
Zn172 O176 2.086 . S
Zn172 O181 1.977 . S
O173 Zn172 2.032 . S
O173 C177 1.278 . S
C174 O175 1.203 . S
C174 O181 1.267 . S
O175 C174 1.203 . S
O176 C169 1.185 . S
O176 Zn172 2.086 . S
C177 O173 1.278 . S
C177 O178 1.211 . S
O178 C177 1.211 . S
C179 O171 1.284 . S
C179 O180 1.273 . S
O180 C179 1.273 . S
O181 Zn172 1.977 . S
O181 C174 1.267 . S
C182 O183 1.160 . S
C182 O189 1.173 1_565 S
O183 C182 1.160 . S
O184 Zn185 1.899 . S
O184 C192 1.284 . S
Zn185 O184 1.899 . S
Zn185 O186 2.032 . S
Zn185 O189 2.086 1_565 S
Zn185 O194 1.977 1_565 S
O186 Zn185 2.032 . S
O186 C190 1.278 . S
C187 O188 1.203 1_545 S
C187 O194 1.267 . S
O188 C187 1.203 1_565 S
O189 C182 1.173 1_545 S
O189 Zn185 2.086 1_545 S
C190 O186 1.278 . S
C190 O191 1.211 . S
O191 C190 1.211 . S
C192 O184 1.284 . S
C192 O193 1.273 . S
O193 C192 1.273 . S
O194 Zn185 1.977 1_545 S
O194 C187 1.267 . S
C195 O196 1.160 . S
C195 O202 1.185 . S
O196 C195 1.160 . S
O197 Zn198 1.899 . S
O197 C205 1.284 . S
Zn198 O197 1.899 . S
Zn198 O199 2.032 . S
Zn198 O202 2.086 . S
Zn198 O207 1.977 . S
O199 Zn198 2.032 . S
O199 C203 1.278 . S
C200 O201 1.203 . S
C200 O207 1.267 . S
O201 C200 1.203 . S
O202 C195 1.185 . S
O202 Zn198 2.086 . S
C203 O199 1.278 . S
C203 O204 1.211 . S
O204 C203 1.211 . S
C205 O197 1.284 . S
C205 O206 1.273 . S
O206 C205 1.273 . S
O207 Zn198 1.977 . S
O207 C200 1.267 . S
C208 O209 1.160 . S
C208 O215 1.185 . S
O209 C208 1.160 . S
O210 Zn211 1.899 . S
O210 C218 1.284 . S
Zn211 O210 1.899 . S
Zn211 O212 2.032 . S
Zn211 O215 2.086 . S
Zn211 O220 1.977 . S
O212 Zn211 2.032 . S
O212 C216 1.278 . S
C213 O214 1.203 . S
C213 O220 1.267 . S
O214 C213 1.203 . S
O215 C208 1.185 . S
O215 Zn211 2.086 . S
C216 O212 1.278 . S
C216 O217 1.211 . S
O217 C216 1.211 . S
C218 O210 1.284 . S
C218 O219 1.273 . S
O219 C218 1.273 . S
O220 Zn211 1.977 . S
O220 C213 1.267 . S
C221 O222 1.160 . S
C221 O228 1.185 . S
O222 C221 1.160 . S
O223 Zn224 1.899 . S
O223 C231 1.284 . S
Zn224 O223 1.899 . S
Zn224 O225 2.032 . S
Zn224 O228 2.086 . S
Zn224 O233 1.977 . S
O225 Zn224 2.032 . S
O225 C229 1.278 . S
C226 O227 1.203 . S
C226 O233 1.267 . S
O227 C226 1.203 . S
O228 C221 1.185 . S
O228 Zn224 2.086 . S
C229 O225 1.278 . S
C229 O230 1.211 . S
O230 C229 1.211 . S
C231 O223 1.284 . S
C231 O232 1.273 . S
O232 C231 1.273 . S
O233 Zn224 1.977 . S
O233 C226 1.267 . S
C234 O235 1.160 . S
C234 O241 1.185 . S
O235 C234 1.160 . S
O236 Zn237 1.899 . S
O236 C244 1.284 . S
Zn237 O236 1.899 . S
Zn237 O238 2.032 . S
Zn237 O241 2.086 . S
Zn237 O246 1.977 . S
O238 Zn237 2.032 . S
O238 C242 1.278 . S
C239 O240 1.203 . S
C239 O246 1.267 . S
O240 C239 1.203 . S
O241 C234 1.185 . S
O241 Zn237 2.086 . S
C242 O238 1.278 . S
C242 O243 1.211 . S
O243 C242 1.211 . S
C244 O236 1.284 . S
C244 O245 1.273 . S
O245 C244 1.273 . S
O246 Zn237 1.977 . S
O246 C239 1.267 . S
C247 O248 1.160 . S
C247 O254 1.185 . S
O248 C247 1.160 . S
O249 Zn250 1.899 . S
O249 C257 1.284 . S
Zn250 O249 1.899 . S
Zn250 O251 2.032 . S
Zn250 O254 2.086 . S
Zn250 O259 1.977 . S
O251 Zn250 2.032 . S
O251 C255 1.278 . S
C252 O253 1.203 . S
C252 O259 1.267 . S
O253 C252 1.203 . S
O254 C247 1.185 . S
O254 Zn250 2.086 . S
C255 O251 1.278 . S
C255 O256 1.211 . S
O256 C255 1.211 . S
C257 O249 1.284 . S
C257 O258 1.273 . S
O258 C257 1.273 . S
O259 Zn250 1.977 . S
O259 C252 1.267 . S
C260 O261 1.160 . S
C260 O267 1.185 . S
O261 C260 1.160 . S
O262 Zn263 1.899 . S
O262 C270 1.284 . S
Zn263 O262 1.899 . S
Zn263 O264 2.032 . S
Zn263 O267 2.086 . S
Zn263 O272 1.977 . S
O264 Zn263 2.032 . S
O264 C268 1.278 . S
C265 O266 1.203 . S
C265 O272 1.267 . S
O266 C265 1.203 . S
O267 C260 1.185 . S
O267 Zn263 2.086 . S
C268 O264 1.278 . S
C268 O269 1.211 . S
O269 C268 1.211 . S
C270 O262 1.284 . S
C270 O271 1.273 . S
O271 C270 1.273 . S
O272 Zn263 1.977 . S
O272 C265 1.267 . S
C273 O274 1.160 . S
C273 O280 1.184 1_565 S
O274 C273 1.160 . S
O275 Zn276 1.899 . S
O275 C283 1.284 . S
Zn276 O275 1.899 . S
Zn276 O277 2.032 . S
Zn276 O280 2.077 1_565 S
Zn276 O285 1.977 1_565 S
O277 Zn276 2.032 . S
O277 C281 1.278 . S
C278 O279 1.203 1_545 S
C278 O285 1.267 . S
O279 C278 1.203 1_565 S
O280 C273 1.184 1_545 S
O280 Zn276 2.077 1_545 S
C281 O277 1.278 . S
C281 O282 1.211 . S
O282 C281 1.211 . S
C283 O275 1.284 . S
C283 O284 1.273 . S
O284 C283 1.273 . S
O285 Zn276 1.977 1_545 S
O285 C278 1.267 . S
C286 O287 1.160 . S
C286 O293 1.172 1_455 S
O287 C286 1.160 . S
O288 Zn289 1.899 . S
O288 C296 1.284 . S
Zn289 O288 1.899 . S
Zn289 O290 2.032 . S
Zn289 O293 2.086 1_455 S
Zn289 O298 1.977 1_455 S
O290 Zn289 2.032 . S
O290 C294 1.278 . S
C291 O292 1.203 1_655 S
C291 O298 1.267 . S
O292 C291 1.203 1_455 S
O293 C286 1.172 1_655 S
O293 Zn289 2.086 1_655 S
C294 O290 1.278 . S
C294 O295 1.211 . S
O295 C294 1.211 . S
C296 O288 1.284 . S
C296 O297 1.273 . S
O297 C296 1.273 . S
O298 Zn289 1.977 1_655 S
O298 C291 1.267 . S
C299 O300 1.160 . S
C299 O306 1.185 . S
O300 C299 1.160 . S
O301 Zn302 1.899 . S
O301 C309 1.284 . S
Zn302 O301 1.899 . S
Zn302 O303 2.032 . S
Zn302 O306 2.086 . S
Zn302 O311 1.977 . S
O303 Zn302 2.032 . S
O303 C307 1.278 . S
C304 O305 1.203 . S
C304 O311 1.267 . S
O305 C304 1.203 . S
O306 C299 1.185 . S
O306 Zn302 2.086 . S
C307 O303 1.278 . S
C307 O308 1.211 . S
O308 C307 1.211 . S
C309 O301 1.284 . S
C309 O310 1.273 . S
O310 C309 1.273 . S
O311 Zn302 1.977 . S
O311 C304 1.267 . S
C312 O313 1.160 . S
C312 O319 1.185 . S
O313 C312 1.160 . S
O314 Zn315 1.899 . S
O314 C322 1.284 . S
Zn315 O314 1.899 . S
Zn315 O316 2.032 . S
Zn315 O319 2.086 . S
Zn315 O324 1.977 . S
O316 Zn315 2.032 . S
O316 C320 1.278 . S
C317 O318 1.203 . S
C317 O324 1.267 . S
O318 C317 1.203 . S
O319 C312 1.185 . S
O319 Zn315 2.086 . S
C320 O316 1.278 . S
C320 O321 1.211 . S
O321 C320 1.211 . S
C322 O314 1.284 . S
C322 O323 1.273 . S
O323 C322 1.273 . S
O324 Zn315 1.977 . S
O324 C317 1.267 . S
C325 O326 1.160 . S
C325 O332 1.185 . S
O326 C325 1.160 . S
O327 Zn328 1.899 . S
O327 C335 1.284 . S
Zn328 O327 1.899 . S
Zn328 O329 2.032 . S
Zn328 O332 2.086 . S
Zn328 O337 1.977 . S
O329 Zn328 2.032 . S
O329 C333 1.278 . S
C330 O331 1.203 . S
C330 O337 1.267 . S
O331 C330 1.203 . S
O332 C325 1.185 . S
O332 Zn328 2.086 . S
C333 O329 1.278 . S
C333 O334 1.211 . S
O334 C333 1.211 . S
C335 O327 1.284 . S
C335 O336 1.273 . S
O336 C335 1.273 . S
O337 Zn328 1.977 . S
O337 C330 1.267 . S
C338 O339 1.160 . S
C338 O345 1.185 . S
O339 C338 1.160 . S
O340 Zn341 1.899 . S
O340 C348 1.284 . S
Zn341 O340 1.899 . S
Zn341 O342 2.032 . S
Zn341 O345 2.086 . S
Zn341 O350 1.977 . S
O342 Zn341 2.032 . S
O342 C346 1.278 . S
C343 O344 1.203 . S
C343 O350 1.267 . S
O344 C343 1.203 . S
O345 C338 1.185 . S
O345 Zn341 2.086 . S
C346 O342 1.278 . S
C346 O347 1.211 . S
O347 C346 1.211 . S
C348 O340 1.284 . S
C348 O349 1.273 . S
O349 C348 1.273 . S
O350 Zn341 1.977 . S
O350 C343 1.267 . S
C351 O352 1.160 . S
C351 O358 1.184 1_545 S
O352 C351 1.160 . S
O353 Zn354 1.899 . S
O353 C361 1.284 . S
Zn354 O353 1.899 . S
Zn354 O355 2.032 . S
Zn354 O358 2.077 1_545 S
Zn354 O363 1.977 1_545 S
O355 Zn354 2.032 . S
O355 C359 1.278 . S
C356 O357 1.203 1_565 S
C356 O363 1.267 . S
O357 C356 1.203 1_545 S
O358 C351 1.184 1_565 S
O358 Zn354 2.077 1_565 S
C359 O355 1.278 . S
C359 O360 1.211 . S
O360 C359 1.211 . S
C361 O353 1.284 . S
C361 O362 1.273 . S
O362 C361 1.273 . S
O363 Zn354 1.977 1_565 S
O363 C356 1.267 . S
C364 O365 1.160 . S
C364 O371 1.172 1_655 S
O365 C364 1.160 . S
O366 Zn367 1.899 . S
O366 C374 1.284 . S
Zn367 O366 1.899 . S
Zn367 O368 2.032 . S
Zn367 O371 2.086 1_655 S
Zn367 O376 1.977 1_655 S
O368 Zn367 2.032 . S
O368 C372 1.278 . S
C369 O370 1.203 1_455 S
C369 O376 1.267 . S
O370 C369 1.203 1_655 S
O371 C364 1.172 1_455 S
O371 Zn367 2.086 1_455 S
C372 O368 1.278 . S
C372 O373 1.211 . S
O373 C372 1.211 . S
C374 O366 1.284 . S
C374 O375 1.273 . S
O375 C374 1.273 . S
O376 Zn367 1.977 1_455 S
O376 C369 1.267 . S
C377 O378 1.160 . S
C377 O384 1.185 . S
O378 C377 1.160 . S
O379 Zn380 1.899 . S
O379 C387 1.284 . S
Zn380 O379 1.899 . S
Zn380 O381 2.032 . S
Zn380 O384 2.086 . S
Zn380 O389 1.977 . S
O381 Zn380 2.032 . S
O381 C385 1.278 . S
C382 O383 1.203 . S
C382 O389 1.267 . S
O383 C382 1.203 . S
O384 C377 1.185 . S
O384 Zn380 2.086 . S
C385 O381 1.278 . S
C385 O386 1.211 . S
O386 C385 1.211 . S
C387 O379 1.284 . S
C387 O388 1.273 . S
O388 C387 1.273 . S
O389 Zn380 1.977 . S
O389 C382 1.267 . S
C390 O391 1.160 . S
C390 O397 1.184 1_655 S
O391 C390 1.160 . S
O392 Zn393 1.899 . S
O392 C400 1.284 . S
Zn393 O392 1.899 . S
Zn393 O394 2.032 . S
Zn393 O397 2.077 1_655 S
Zn393 O402 1.977 1_655 S
O394 Zn393 2.032 . S
O394 C398 1.278 . S
C395 O396 1.203 1_455 S
C395 O402 1.267 . S
O396 C395 1.203 1_655 S
O397 C390 1.184 1_455 S
O397 Zn393 2.077 1_455 S
C398 O394 1.278 . S
C398 O399 1.211 . S
O399 C398 1.211 . S
C400 O392 1.284 . S
C400 O401 1.273 . S
O401 C400 1.273 . S
O402 Zn393 1.977 1_455 S
O402 C395 1.267 . S
C403 O404 1.160 . S
C403 O410 1.185 . S
O404 C403 1.160 . S
O405 Zn406 1.899 . S
O405 C413 1.284 . S
Zn406 O405 1.899 . S
Zn406 O407 2.032 . S
Zn406 O410 2.086 . S
Zn406 O415 1.977 . S
O407 Zn406 2.032 . S
O407 C411 1.278 . S
C408 O409 1.203 . S
C408 O415 1.267 . S
O409 C408 1.203 . S
O410 C403 1.185 . S
O410 Zn406 2.086 . S
C411 O407 1.278 . S
C411 O412 1.211 . S
O412 C411 1.211 . S
C413 O405 1.284 . S
C413 O414 1.273 . S
O414 C413 1.273 . S
O415 Zn406 1.977 . S
O415 C408 1.267 . S
C416 O417 1.160 . S
C416 O423 1.172 1_545 S
O417 C416 1.160 . S
O418 Zn419 1.899 . S
O418 C426 1.284 . S
Zn419 O418 1.899 . S
Zn419 O420 2.032 . S
Zn419 O423 2.086 1_545 S
Zn419 O428 1.977 1_545 S
O420 Zn419 2.032 . S
O420 C424 1.278 . S
C421 O422 1.203 1_565 S
C421 O428 1.267 . S
O422 C421 1.203 1_545 S
O423 C416 1.172 1_565 S
O423 Zn419 2.086 1_565 S
C424 O420 1.278 . S
C424 O425 1.211 . S
O425 C424 1.211 . S
C426 O418 1.284 . S
C426 O427 1.273 . S
O427 C426 1.273 . S
O428 Zn419 1.977 1_565 S
O428 C421 1.267 . S
C429 O430 1.160 . S
C429 O436 1.185 . S
O430 C429 1.160 . S
O431 Zn432 1.899 . S
O431 C439 1.284 . S
Zn432 O431 1.899 . S
Zn432 O433 2.032 . S
Zn432 O436 2.086 . S
Zn432 O441 1.977 . S
O433 Zn432 2.032 . S
O433 C437 1.278 . S
C434 O435 1.203 . S
C434 O441 1.267 . S
O435 C434 1.203 . S
O436 C429 1.185 . S
O436 Zn432 2.086 . S
C437 O433 1.278 . S
C437 O438 1.211 . S
O438 C437 1.211 . S
C439 O431 1.284 . S
C439 O440 1.273 . S
O440 C439 1.273 . S
O441 Zn432 1.977 . S
O441 C434 1.267 . S
C442 O443 1.160 . S
C442 O449 1.185 . S
O443 C442 1.160 . S
O444 Zn445 1.899 . S
O444 C452 1.284 . S
Zn445 O444 1.899 . S
Zn445 O446 2.032 . S
Zn445 O449 2.086 . S
Zn445 O454 1.977 . S
O446 Zn445 2.032 . S
O446 C450 1.278 . S
C447 O448 1.203 . S
C447 O454 1.267 . S
O448 C447 1.203 . S
O449 C442 1.185 . S
O449 Zn445 2.086 . S
C450 O446 1.278 . S
C450 O451 1.211 . S
O451 C450 1.211 . S
C452 O444 1.284 . S
C452 O453 1.273 . S
O453 C452 1.273 . S
O454 Zn445 1.977 . S
O454 C447 1.267 . S
C455 O456 1.160 . S
C455 O462 1.185 . S
O456 C455 1.160 . S
O457 Zn458 1.899 . S
O457 C465 1.284 . S
Zn458 O457 1.899 . S
Zn458 O459 2.032 . S
Zn458 O462 2.086 . S
Zn458 O467 1.977 . S
O459 Zn458 2.032 . S
O459 C463 1.278 . S
C460 O461 1.203 . S
C460 O467 1.267 . S
O461 C460 1.203 . S
O462 C455 1.185 . S
O462 Zn458 2.086 . S
C463 O459 1.278 . S
C463 O464 1.211 . S
O464 C463 1.211 . S
C465 O457 1.284 . S
C465 O466 1.273 . S
O466 C465 1.273 . S
O467 Zn458 1.977 . S
O467 C460 1.267 . S
C468 C469 1.369 . S
C468 C470 1.419 1_565 S
C468 H472 0.930 . S
C469 C468 1.369 . S
C469 C478 1.429 . S
C470 C468 1.419 1_545 S
C470 C471 1.363 . S
C470 H473 0.929 . S
C471 C470 1.363 . S
C471 C477 1.428 . S
H472 C468 0.930 . S
H473 C470 0.929 . S
S474 N475 1.613 . S
S474 N476 1.610 1_565 S
N475 S474 1.613 . S
N475 C478 1.350 . S
N476 S474 1.610 1_545 S
N476 C477 1.351 . S
C477 C471 1.428 . S
C477 N476 1.351 . S
C477 C478 1.434 1_545 S
C478 C469 1.429 . S
C478 N475 1.350 . S
C478 C477 1.434 1_565 S
C479 C480 1.369 . S
C479 C481 1.419 1_455 S
C479 H483 0.930 . S
C480 C479 1.369 . S
C480 C489 1.429 . S
C481 C479 1.419 1_655 S
C481 C482 1.363 . S
C481 H484 0.929 . S
C482 C481 1.363 . S
C482 C488 1.428 . S
H483 C479 0.930 . S
H484 C481 0.929 . S
S485 N486 1.613 1_655 S
S485 N487 1.610 . S
N486 S485 1.613 1_455 S
N486 C489 1.350 . S
N487 S485 1.610 . S
N487 C488 1.351 . S
C488 C482 1.428 . S
C488 N487 1.351 . S
C488 C489 1.434 1_655 S
C489 C480 1.429 . S
C489 N486 1.350 . S
C489 C488 1.434 1_455 S
C490 C491 1.369 . S
C490 C492 1.419 . S
C490 H494 0.930 . S
C491 C490 1.369 . S
C491 C500 1.429 . S
C492 C490 1.419 . S
C492 C493 1.363 . S
C492 H495 0.929 . S
C493 C492 1.363 . S
C493 C499 1.428 . S
H494 C490 0.930 . S
H495 C492 0.929 . S
S496 N497 1.613 . S
S496 N498 1.610 . S
N497 S496 1.613 . S
N497 C500 1.350 . S
N498 S496 1.610 . S
N498 C499 1.351 . S
C499 C493 1.428 . S
C499 N498 1.351 . S
C499 C500 1.434 . S
C500 C491 1.429 . S
C500 N497 1.350 . S
C500 C499 1.434 . S
C501 C502 1.369 . S
C501 C503 1.419 1_565 S
C501 H505 0.930 . S
C502 C501 1.369 . S
C502 C511 1.429 . S
C503 C501 1.419 1_545 S
C503 C504 1.363 . S
C503 H506 0.929 . S
C504 C503 1.363 . S
C504 C510 1.428 . S
H505 C501 0.930 . S
H506 C503 0.929 . S
S507 N508 1.613 . S
S507 N509 1.610 1_565 S
N508 S507 1.613 . S
N508 C511 1.350 . S
N509 S507 1.610 1_545 S
N509 C510 1.351 . S
C510 C504 1.428 . S
C510 N509 1.351 . S
C510 C511 1.434 1_545 S
C511 C502 1.429 . S
C511 N508 1.350 . S
C511 C510 1.434 1_565 S
C512 C513 1.369 . S
C512 C514 1.419 1_455 S
C512 H516 0.930 . S
C513 C512 1.369 . S
C513 C522 1.429 . S
C514 C512 1.419 1_655 S
C514 C515 1.363 . S
C514 H517 0.929 . S
C515 C514 1.363 . S
C515 C521 1.428 . S
H516 C512 0.930 . S
H517 C514 0.929 . S
S518 N519 1.613 1_655 S
S518 N520 1.610 . S
N519 S518 1.613 1_455 S
N519 C522 1.350 . S
N520 S518 1.610 . S
N520 C521 1.351 . S
C521 C515 1.428 . S
C521 N520 1.351 . S
C521 C522 1.434 1_655 S
C522 C513 1.429 . S
C522 N519 1.350 . S
C522 C521 1.434 1_455 S
C523 C524 1.369 . S
C523 C525 1.419 . S
C523 H527 0.930 . S
C524 C523 1.369 . S
C524 C533 1.429 . S
C525 C523 1.419 . S
C525 C526 1.363 . S
C525 H528 0.929 . S
C526 C525 1.363 . S
C526 C532 1.428 . S
H527 C523 0.930 . S
H528 C525 0.929 . S
S529 N530 1.613 . S
S529 N531 1.610 . S
N530 S529 1.613 . S
N530 C533 1.350 . S
N531 S529 1.610 . S
N531 C532 1.351 . S
C532 C526 1.428 . S
C532 N531 1.351 . S
C532 C533 1.434 . S
C533 C524 1.429 . S
C533 N530 1.350 . S
C533 C532 1.434 . S
C534 C535 1.369 . S
C534 C536 1.419 . S
C534 H538 0.930 1_655 S
C535 C534 1.369 . S
C535 C544 1.429 . S
C536 C534 1.419 . S
C536 C537 1.363 . S
C536 H539 0.929 . S
C537 C536 1.363 . S
C537 C543 1.428 . S
H538 C534 0.930 1_455 S
H539 C536 0.929 . S
S540 N541 1.613 . S
S540 N542 1.610 . S
N541 S540 1.613 . S
N541 C544 1.350 . S
N542 S540 1.610 . S
N542 C543 1.351 . S
C543 C537 1.428 . S
C543 N542 1.351 . S
C543 C544 1.434 . S
C544 C535 1.429 . S
C544 N541 1.350 . S
C544 C543 1.434 . S
C545 C546 1.369 . S
C545 C547 1.419 . S
C545 H549 0.930 . S
C546 C545 1.369 . S
C546 C555 1.429 . S
C547 C545 1.419 . S
C547 C548 1.363 . S
C547 H550 0.929 . S
C548 C547 1.363 . S
C548 C554 1.428 . S
H549 C545 0.930 . S
H550 C547 0.929 . S
S551 N552 1.613 . S
S551 N553 1.610 . S
N552 S551 1.613 . S
N552 C555 1.350 . S
N553 S551 1.610 . S
N553 C554 1.351 . S
C554 C548 1.428 . S
C554 N553 1.351 . S
C554 C555 1.434 . S
C555 C546 1.429 . S
C555 N552 1.350 . S
C555 C554 1.434 . S
C556 C557 1.369 . S
C556 C558 1.419 . S
C556 H560 0.930 . S
C557 C556 1.369 . S
C557 C566 1.429 . S
C558 C556 1.419 . S
C558 C559 1.363 . S
C558 H561 0.929 . S
C559 C558 1.363 . S
C559 C565 1.428 . S
H560 C556 0.930 . S
H561 C558 0.929 . S
S562 N563 1.613 1_565 S
S562 N564 1.610 . S
N563 S562 1.613 1_545 S
N563 C566 1.350 . S
N564 S562 1.610 . S
N564 C565 1.351 1_565 S
C565 C559 1.428 . S
C565 N564 1.351 1_545 S
C565 C566 1.434 . S
C566 C557 1.429 . S
C566 N563 1.350 . S
C566 C565 1.434 . S
C567 C568 1.369 . S
C567 C569 1.419 . S
C567 H571 0.930 . S
C568 C567 1.369 . S
C568 C577 1.429 . S
C569 C567 1.419 . S
C569 C570 1.363 . S
C569 H572 0.929 . S
C570 C569 1.363 . S
C570 C576 1.428 . S
H571 C567 0.930 . S
H572 C569 0.929 . S
S573 N574 1.613 . S
S573 N575 1.610 . S
N574 S573 1.613 . S
N574 C577 1.350 . S
N575 S573 1.610 . S
N575 C576 1.351 . S
C576 C570 1.428 . S
C576 N575 1.351 . S
C576 C577 1.434 . S
C577 C568 1.429 . S
C577 N574 1.350 . S
C577 C576 1.434 . S
C578 C579 1.369 . S
C578 C580 1.419 . S
C578 H582 0.930 . S
C579 C578 1.369 . S
C579 C588 1.429 . S
C580 C578 1.419 . S
C580 C581 1.363 . S
C580 H583 0.929 . S
C581 C580 1.363 . S
C581 C587 1.428 . S
H582 C578 0.930 . S
H583 C580 0.929 . S
S584 N585 1.613 . S
S584 N586 1.610 1_565 S
N585 S584 1.613 . S
N585 C588 1.350 1_565 S
N586 S584 1.610 1_545 S
N586 C587 1.351 . S
C587 C581 1.428 . S
C587 N586 1.351 . S
C587 C588 1.434 . S
C588 C579 1.429 . S
C588 N585 1.350 1_545 S
C588 C587 1.434 . S
C589 C590 1.369 . S
C589 C591 1.419 . S
C589 H593 0.930 . S
C590 C589 1.369 . S
C590 C599 1.429 . S
C591 C589 1.419 . S
C591 C592 1.363 . S
C591 H594 0.929 . S
C592 C591 1.363 . S
C592 C598 1.428 . S
H593 C589 0.930 . S
H594 C591 0.929 . S
S595 N596 1.613 . S
S595 N597 1.610 . S
N596 S595 1.613 . S
N596 C599 1.350 . S
N597 S595 1.610 . S
N597 C598 1.351 . S
C598 C592 1.428 . S
C598 N597 1.351 . S
C598 C599 1.434 . S
C599 C590 1.429 . S
C599 N596 1.350 . S
C599 C598 1.434 . S
C600 C601 1.369 . S
C600 C602 1.419 . S
C600 H604 0.930 . S
C601 C600 1.369 . S
C601 C610 1.429 . S
C602 C600 1.419 . S
C602 C603 1.363 . S
C602 H605 0.929 . S
C603 C602 1.363 . S
C603 C609 1.428 . S
H604 C600 0.930 . S
H605 C602 0.929 . S
S606 N607 1.613 . S
S606 N608 1.610 . S
N607 S606 1.613 . S
N607 C610 1.350 . S
N608 S606 1.610 . S
N608 C609 1.351 . S
C609 C603 1.428 . S
C609 N608 1.351 . S
C609 C610 1.434 . S
C610 C601 1.429 . S
C610 N607 1.350 . S
C610 C609 1.434 . S
C611 C612 1.369 . S
C611 C613 1.419 . S
C611 H615 0.930 . S
C612 C611 1.369 . S
C612 C621 1.429 . S
C613 C611 1.419 . S
C613 C614 1.363 . S
C613 H616 0.929 . S
C614 C613 1.363 . S
C614 C620 1.428 . S
H615 C611 0.930 . S
H616 C613 0.929 . S
S617 N618 1.613 . S
S617 N619 1.610 1_554 S
N618 S617 1.613 . S
N618 C621 1.350 1_554 S
N619 S617 1.610 1_556 S
N619 C620 1.351 . S
C620 C614 1.428 . S
C620 N619 1.351 . S
C620 C621 1.434 . S
C621 C612 1.429 . S
C621 N618 1.350 1_556 S
C621 C620 1.434 . S
C622 C623 1.369 . S
C622 C624 1.419 . S
C622 H626 0.930 . S
C623 C622 1.369 . S
C623 C632 1.429 . S
C624 C622 1.419 . S
C624 C625 1.363 . S
C624 H627 0.929 . S
C625 C624 1.363 . S
C625 C631 1.428 . S
H626 C622 0.930 . S
H627 C624 0.929 . S
S628 N629 1.613 1_554 S
S628 N630 1.610 . S
N629 S628 1.613 1_556 S
N629 C632 1.350 . S
N630 S628 1.610 . S
N630 C631 1.351 1_554 S
C631 C625 1.428 . S
C631 N630 1.351 1_556 S
C631 C632 1.434 . S
C632 C623 1.429 . S
C632 N629 1.350 . S
C632 C631 1.434 . S
C633 C634 1.369 . S
C633 C635 1.419 . S
C633 H637 0.930 . S
C634 C633 1.369 . S
C634 C643 1.429 . S
C635 C633 1.419 . S
C635 C636 1.363 . S
C635 H638 0.929 . S
C636 C635 1.363 . S
C636 C642 1.428 . S
H637 C633 0.930 . S
H638 C635 0.929 . S
S639 N640 1.613 . S
S639 N641 1.610 . S
N640 S639 1.613 . S
N640 C643 1.350 . S
N641 S639 1.610 . S
N641 C642 1.351 . S
C642 C636 1.428 . S
C642 N641 1.351 . S
C642 C643 1.434 . S
C643 C634 1.429 . S
C643 N640 1.350 . S
C643 C642 1.434 . S
C644 C645 1.369 . S
C644 C646 1.419 . S
C644 H648 0.930 . S
C645 C644 1.369 . S
C645 C654 1.429 . S
C646 C644 1.419 . S
C646 C647 1.363 . S
C646 H649 0.929 . S
C647 C646 1.363 . S
C647 C653 1.428 . S
H648 C644 0.930 . S
H649 C646 0.929 . S
S650 N651 1.613 . S
S650 N652 1.610 . S
N651 S650 1.613 . S
N651 C654 1.350 . S
N652 S650 1.610 . S
N652 C653 1.351 . S
C653 C647 1.428 . S
C653 N652 1.351 . S
C653 C654 1.434 . S
C654 C645 1.429 . S
C654 N651 1.350 . S
C654 C653 1.434 . S
C655 C656 1.369 . S
C655 C657 1.419 . S
C655 H659 0.930 . S
C656 C655 1.369 . S
C656 C665 1.429 . S
C657 C655 1.419 . S
C657 C658 1.363 . S
C657 H660 0.929 . S
C658 C657 1.363 . S
C658 C664 1.428 . S
H659 C655 0.930 . S
H660 C657 0.929 . S
S661 N662 1.613 . S
S661 N663 1.610 . S
N662 S661 1.613 . S
N662 C665 1.350 . S
N663 S661 1.610 . S
N663 C664 1.351 . S
C664 C658 1.428 . S
C664 N663 1.351 . S
C664 C665 1.434 . S
C665 C656 1.429 . S
C665 N662 1.350 . S
C665 C664 1.434 . S
C666 C667 1.369 . S
C666 C668 1.419 . S
C666 H670 0.930 . S
C667 C666 1.369 . S
C667 C676 1.429 . S
C668 C666 1.419 . S
C668 C669 1.363 . S
C668 H671 0.929 . S
C669 C668 1.363 . S
C669 C675 1.428 . S
H670 C666 0.930 . S
H671 C668 0.929 . S
S672 N673 1.613 . S
S672 N674 1.610 . S
N673 S672 1.613 . S
N673 C676 1.350 . S
N674 S672 1.610 . S
N674 C675 1.351 . S
C675 C669 1.428 . S
C675 N674 1.351 . S
C675 C676 1.434 . S
C676 C667 1.429 . S
C676 N673 1.350 . S
C676 C675 1.434 . S
C677 C678 1.369 . S
C677 C679 1.419 . S
C677 H681 0.930 . S
C678 C677 1.369 . S
C678 C687 1.429 . S
C679 C677 1.419 . S
C679 C680 1.363 . S
C679 H682 0.929 . S
C680 C679 1.363 . S
C680 C686 1.428 . S
H681 C677 0.930 . S
H682 C679 0.929 . S
S683 N684 1.613 . S
S683 N685 1.610 . S
N684 S683 1.613 . S
N684 C687 1.350 . S
N685 S683 1.610 . S
N685 C686 1.351 . S
C686 C680 1.428 . S
C686 N685 1.351 . S
C686 C687 1.434 . S
C687 C678 1.429 . S
C687 N684 1.350 . S
C687 C686 1.434 . S
C688 C689 1.369 . S
C688 C690 1.419 . S
C688 H692 0.930 . S
C689 C688 1.369 . S
C689 C698 1.429 . S
C690 C688 1.419 . S
C690 C691 1.363 . S
C690 H693 0.929 . S
C691 C690 1.363 . S
C691 C697 1.428 . S
H692 C688 0.930 . S
H693 C690 0.929 . S
S694 N695 1.613 . S
S694 N696 1.610 . S
N695 S694 1.613 . S
N695 C698 1.350 . S
N696 S694 1.610 . S
N696 C697 1.351 . S
C697 C691 1.428 . S
C697 N696 1.351 . S
C697 C698 1.434 . S
C698 C689 1.429 . S
C698 N695 1.350 . S
C698 C697 1.434 . S
C699 C700 1.369 . S
C699 C701 1.419 . S
C699 H703 0.930 . S
C700 C699 1.369 . S
C700 C709 1.429 . S
C701 C699 1.419 . S
C701 C702 1.363 . S
C701 H704 0.929 . S
C702 C701 1.363 . S
C702 C708 1.428 . S
H703 C699 0.930 . S
H704 C701 0.929 . S
S705 N706 1.613 . S
S705 N707 1.610 . S
N706 S705 1.613 . S
N706 C709 1.350 . S
N707 S705 1.610 . S
N707 C708 1.351 . S
C708 C702 1.428 . S
C708 N707 1.351 . S
C708 C709 1.434 . S
C709 C700 1.429 . S
C709 N706 1.350 . S
C709 C708 1.434 . S
C710 C711 1.369 . S
C710 C712 1.419 . S
C710 H714 0.930 . S
C711 C710 1.369 . S
C711 C720 1.429 . S
C712 C710 1.419 . S
C712 C713 1.363 . S
C712 H715 0.929 1_554 S
C713 C712 1.363 . S
C713 C719 1.428 . S
H714 C710 0.930 . S
H715 C712 0.929 1_556 S
S716 N717 1.613 . S
S716 N718 1.610 . S
N717 S716 1.613 . S
N717 C720 1.350 . S
N718 S716 1.610 . S
N718 C719 1.351 . S
C719 C713 1.428 . S
C719 N718 1.351 . S
C719 C720 1.434 . S
C720 C711 1.429 . S
C720 N717 1.350 . S
C720 C719 1.434 . S
C721 C722 1.369 . S
C721 C723 1.419 . S
C721 H725 0.930 . S
C722 C721 1.369 . S
C722 C731 1.429 . S
C723 C721 1.419 . S
C723 C724 1.363 . S
C723 H726 0.929 . S
C724 C723 1.363 . S
C724 C730 1.428 . S
H725 C721 0.930 . S
H726 C723 0.929 . S
S727 N728 1.632 . S
S727 N729 1.608 1_554 S
N728 S727 1.632 . S
N728 C731 1.350 . S
N729 S727 1.608 1_556 S
N729 C730 1.351 1_556 S
C730 C724 1.428 . S
C730 N729 1.351 1_554 S
C730 C731 1.434 . S
C731 C722 1.429 . S
C731 N728 1.350 . S
C731 C730 1.434 . S
C732 C733 1.369 . S
C732 C734 1.419 . S
C732 H736 0.930 . S
C733 C732 1.369 . S
C733 C742 1.429 . S
C734 C732 1.419 . S
C734 C735 1.363 . S
C734 H737 0.929 . S
C735 C734 1.363 . S
C735 C741 1.428 . S
H736 C732 0.930 . S
H737 C734 0.929 . S
S738 N739 1.613 . S
S738 N740 1.610 . S
N739 S738 1.613 . S
N739 C742 1.350 . S
N740 S738 1.610 . S
N740 C741 1.351 . S
C741 C735 1.428 . S
C741 N740 1.351 . S
C741 C742 1.434 . S
C742 C733 1.429 . S
C742 N739 1.350 . S
C742 C741 1.434 . S
C743 C744 1.369 . S
C743 C745 1.419 . S
C743 H747 0.930 . S
C744 C743 1.369 . S
C744 C753 1.429 . S
C745 C743 1.419 . S
C745 C746 1.363 . S
C745 H748 0.929 . S
C746 C745 1.363 . S
C746 C752 1.428 . S
H747 C743 0.930 . S
H748 C745 0.929 . S
S749 N750 1.613 . S
S749 N751 1.610 . S
N750 S749 1.613 . S
N750 C753 1.350 . S
N751 S749 1.610 . S
N751 C752 1.351 . S
C752 C746 1.428 . S
C752 N751 1.351 . S
C752 C753 1.434 . S
C753 C744 1.429 . S
C753 N750 1.350 . S
C753 C752 1.434 . S
C754 C755 1.369 . S
C754 C756 1.419 . S
C754 H758 0.930 . S
C755 C754 1.369 . S
C755 C764 1.429 . S
C756 C754 1.419 . S
C756 C757 1.363 . S
C756 H759 0.929 . S
C757 C756 1.363 . S
C757 C763 1.428 . S
H758 C754 0.930 . S
H759 C756 0.929 . S
S760 N761 1.613 . S
S760 N762 1.610 . S
N761 S760 1.613 . S
N761 C764 1.350 . S
N762 S760 1.610 . S
N762 C763 1.351 . S
C763 C757 1.428 . S
C763 N762 1.351 . S
C763 C764 1.434 . S
C764 C755 1.429 . S
C764 N761 1.350 . S
C764 C763 1.434 . S
C765 C766 1.369 . S
C765 C767 1.419 . S
C765 H769 0.930 . S
C766 C765 1.369 . S
C766 C775 1.429 . S
C767 C765 1.419 . S
C767 C768 1.363 . S
C767 H770 0.929 . S
C768 C767 1.363 . S
C768 C774 1.428 . S
H769 C765 0.930 . S
H770 C767 0.929 . S
S771 N772 1.613 . S
S771 N773 1.610 1_554 S
N772 S771 1.613 . S
N772 C775 1.350 1_554 S
N773 S771 1.610 1_556 S
N773 C774 1.351 . S
C774 C768 1.428 . S
C774 N773 1.351 . S
C774 C775 1.434 . S
C775 C766 1.429 . S
C775 N772 1.350 1_556 S
C775 C774 1.434 . S
C776 C777 1.369 . S
C776 C778 1.419 . S
C776 H780 0.930 . S
C777 C776 1.369 . S
C777 C786 1.429 . S
C778 C776 1.419 . S
C778 C779 1.363 . S
C778 H781 0.929 . S
C779 C778 1.363 . S
C779 C785 1.428 . S
H780 C776 0.930 . S
H781 C778 0.929 . S
S782 N783 1.613 . S
S782 N784 1.610 1_554 S
N783 S782 1.613 . S
N783 C786 1.350 1_554 S
N784 S782 1.610 1_556 S
N784 C785 1.351 . S
C785 C779 1.428 . S
C785 N784 1.351 . S
C785 C786 1.434 . S
C786 C777 1.429 . S
C786 N783 1.350 1_556 S
C786 C785 1.434 . S
C787 C788 1.369 . S
C787 C789 1.419 . S
C787 H791 0.930 . S
C788 C787 1.369 . S
C788 C797 1.429 . S
C789 C787 1.419 . S
C789 C790 1.363 . S
C789 H792 0.929 . S
C790 C789 1.363 . S
C790 C796 1.428 . S
H791 C787 0.930 . S
H792 C789 0.929 . S
S793 N794 1.613 . S
S793 N795 1.610 . S
N794 S793 1.613 . S
N794 C797 1.350 . S
N795 S793 1.610 . S
N795 C796 1.351 . S
C796 C790 1.428 . S
C796 N795 1.351 . S
C796 C797 1.434 . S
C797 C788 1.429 . S
C797 N794 1.350 . S
C797 C796 1.434 . S
C798 C799 1.369 1_655 S
C798 C800 1.419 . S
C798 H802 0.930 . S
C799 C798 1.369 1_455 S
C799 C808 1.429 . S
C800 C798 1.419 . S
C800 C801 1.363 . S
C800 H803 0.929 . S
C801 C800 1.363 . S
C801 C807 1.428 1_655 S
H802 C798 0.930 . S
H803 C800 0.929 . S
S804 N805 1.613 . S
S804 N806 1.610 . S
N805 S804 1.613 . S
N805 C808 1.350 . S
N806 S804 1.610 . S
N806 C807 1.351 . S
C807 C801 1.428 1_455 S
C807 N806 1.351 . S
C807 C808 1.434 . S
C808 C799 1.429 . S
C808 N805 1.350 . S
C808 C807 1.434 . S
C809 C810 1.369 . S
C809 C811 1.419 . S
C809 H813 0.930 . S
C810 C809 1.369 . S
C810 C819 1.429 . S
C811 C809 1.419 . S
C811 C812 1.363 . S
C811 H814 0.929 . S
C812 C811 1.363 . S
C812 C818 1.428 . S
H813 C809 0.930 . S
H814 C811 0.929 . S
S815 N816 1.613 . S
S815 N817 1.610 . S
N816 S815 1.613 . S
N816 C819 1.350 . S
N817 S815 1.610 . S
N817 C818 1.351 . S
C818 C812 1.428 . S
C818 N817 1.351 . S
C818 C819 1.434 . S
C819 C810 1.429 . S
C819 N816 1.350 . S
C819 C818 1.434 . S
C820 C821 1.369 . S
C820 C822 1.408 1_545 S
C820 H824 0.930 . S
C821 C820 1.369 . S
C821 C830 1.411 1_545 S
C822 C820 1.408 1_565 S
C822 C823 1.370 . S
C822 H825 0.938 1_565 S
C823 C822 1.370 . S
C823 C829 1.428 . S
H824 C820 0.930 . S
H825 C822 0.938 1_545 S
S826 N827 1.613 . S
S826 N828 1.610 . S
N827 S826 1.613 . S
N827 C830 1.344 . S
N828 S826 1.610 . S
N828 C829 1.351 . S
C829 C823 1.428 . S
C829 N828 1.351 . S
C829 C830 1.462 . S
C830 C821 1.411 1_565 S
C830 N827 1.344 . S
C830 C829 1.462 . S
C831 C832 1.369 . S
C831 C833 1.419 . S
C831 H835 0.930 . S
C832 C831 1.369 . S
C832 C841 1.429 1_565 S
C833 C831 1.419 . S
C833 C834 1.363 1_565 S
C833 H836 0.929 . S
C834 C833 1.363 1_545 S
C834 C840 1.428 . S
H835 C831 0.930 . S
H836 C833 0.929 . S
S837 N838 1.613 . S
S837 N839 1.610 . S
N838 S837 1.613 . S
N838 C841 1.350 . S
N839 S837 1.610 . S
N839 C840 1.351 . S
C840 C834 1.428 . S
C840 N839 1.351 . S
C840 C841 1.434 . S
C841 C832 1.429 1_545 S
C841 N838 1.350 . S
C841 C840 1.434 . S
C842 C843 1.369 . S
C842 C844 1.448 . S
C842 H846 0.930 . S
C843 C842 1.369 . S
C843 C852 1.429 1_655 S
C844 C842 1.448 . S
C844 C845 1.321 1_655 S
C844 H847 0.944 . S
C845 C844 1.321 1_455 S
C845 C851 1.428 . S
H846 C842 0.930 . S
H847 C844 0.944 . S
S848 N849 1.613 . S
S848 N850 1.610 . S
N849 S848 1.613 . S
N849 C852 1.350 . S
N850 S848 1.610 . S
N850 C851 1.351 . S
C851 C845 1.428 . S
C851 N850 1.351 . S
C851 C852 1.434 . S
C852 C843 1.429 1_455 S
C852 N849 1.350 . S
C852 C851 1.434 . S
C853 C854 1.369 . S
C853 C855 1.419 . S
C853 H857 0.930 . S
C854 C853 1.369 . S
C854 C863 1.429 . S
C855 C853 1.419 . S
C855 C856 1.363 . S
C855 H858 0.929 . S
C856 C855 1.363 . S
C856 C862 1.428 . S
H857 C853 0.930 . S
H858 C855 0.929 . S
S859 N860 1.613 . S
S859 N861 1.610 . S
N860 S859 1.613 . S
N860 C863 1.350 . S
N861 S859 1.610 . S
N861 C862 1.351 . S
C862 C856 1.428 . S
C862 N861 1.351 . S
C862 C863 1.434 . S
C863 C854 1.429 . S
C863 N860 1.350 . S
C863 C862 1.434 . S
C864 C865 1.369 . S
C864 C866 1.419 . S
C864 H868 0.930 . S
C865 C864 1.369 . S
C865 C874 1.429 . S
C866 C864 1.419 . S
C866 C867 1.363 . S
C866 H869 0.929 . S
C867 C866 1.363 . S
C867 C873 1.428 . S
H868 C864 0.930 . S
H869 C866 0.929 . S
S870 N871 1.613 . S
S870 N872 1.610 . S
N871 S870 1.613 . S
N871 C874 1.350 . S
N872 S870 1.610 . S
N872 C873 1.351 . S
C873 C867 1.428 . S
C873 N872 1.351 . S
C873 C874 1.434 . S
C874 C865 1.429 . S
C874 N871 1.350 . S
C874 C873 1.434 . S
C875 C876 1.369 . S
C875 C877 1.419 . S
C875 H879 0.930 . S
C876 C875 1.369 . S
C876 C885 1.429 . S
C877 C875 1.419 . S
C877 C878 1.363 . S
C877 H880 0.929 . S
C878 C877 1.363 . S
C878 C884 1.428 . S
H879 C875 0.930 . S
H880 C877 0.929 . S
S881 N882 1.613 . S
S881 N883 1.610 . S
N882 S881 1.613 . S
N882 C885 1.350 . S
N883 S881 1.610 . S
N883 C884 1.351 . S
C884 C878 1.428 . S
C884 N883 1.351 . S
C884 C885 1.434 . S
C885 C876 1.429 . S
C885 N882 1.350 . S
C885 C884 1.434 . S
C886 C887 1.369 . S
C886 C888 1.419 . S
C886 H890 0.930 . S
C887 C886 1.369 . S
C887 C896 1.429 . S
C888 C886 1.419 . S
C888 C889 1.363 . S
C888 H891 0.929 . S
C889 C888 1.363 . S
C889 C895 1.428 . S
H890 C886 0.930 . S
H891 C888 0.929 . S
S892 N893 1.613 . S
S892 N894 1.610 . S
N893 S892 1.613 . S
N893 C896 1.350 . S
N894 S892 1.610 . S
N894 C895 1.351 . S
C895 C889 1.428 . S
C895 N894 1.351 . S
C895 C896 1.434 . S
C896 C887 1.429 . S
C896 N893 1.350 . S
C896 C895 1.434 . S
C897 C898 1.369 . S
C897 C899 1.419 . S
C897 H901 0.930 . S
C898 C897 1.369 . S
C898 C907 1.429 . S
C899 C897 1.419 . S
C899 C900 1.363 . S
C899 H902 0.929 . S
C900 C899 1.363 . S
C900 C906 1.428 . S
H901 C897 0.930 . S
H902 C899 0.929 . S
S903 N904 1.613 . S
S903 N905 1.610 . S
N904 S903 1.613 . S
N904 C907 1.350 . S
N905 S903 1.610 . S
N905 C906 1.351 . S
C906 C900 1.428 . S
C906 N905 1.351 . S
C906 C907 1.434 . S
C907 C898 1.429 . S
C907 N904 1.350 . S
C907 C906 1.434 . S
C908 C909 1.369 . S
C908 C910 1.419 . S
C908 H912 0.930 . S
C909 C908 1.369 . S
C909 C918 1.429 . S
C910 C908 1.419 . S
C910 C911 1.363 . S
C910 H913 0.929 . S
C911 C910 1.363 . S
C911 C917 1.428 . S
H912 C908 0.930 . S
H913 C910 0.929 . S
S914 N915 1.613 . S
S914 N916 1.610 . S
N915 S914 1.613 . S
N915 C918 1.350 . S
N916 S914 1.610 . S
N916 C917 1.351 . S
C917 C911 1.428 . S
C917 N916 1.351 . S
C917 C918 1.434 . S
C918 C909 1.429 . S
C918 N915 1.350 . S
C918 C917 1.434 . S
C919 C920 1.369 . S
C919 C921 1.419 . S
C919 H923 0.930 . S
C920 C919 1.369 . S
C920 C929 1.429 . S
C921 C919 1.419 . S
C921 C922 1.363 . S
C921 H924 0.929 . S
C922 C921 1.363 . S
C922 C928 1.428 . S
H923 C919 0.930 . S
H924 C921 0.929 . S
S925 N926 1.613 . S
S925 N927 1.610 . S
N926 S925 1.613 . S
N926 C929 1.350 . S
N927 S925 1.610 . S
N927 C928 1.351 . S
C928 C922 1.428 . S
C928 N927 1.351 . S
C928 C929 1.434 . S
C929 C920 1.429 . S
C929 N926 1.350 . S
C929 C928 1.434 . S
C930 C931 1.369 . S
C930 C932 1.419 . S
C930 H934 0.930 . S
C931 C930 1.369 . S
C931 C940 1.429 . S
C932 C930 1.419 . S
C932 C933 1.363 . S
C932 H935 0.929 . S
C933 C932 1.363 . S
C933 C939 1.428 . S
H934 C930 0.930 . S
H935 C932 0.929 . S
S936 N937 1.613 . S
S936 N938 1.610 . S
N937 S936 1.613 . S
N937 C940 1.350 . S
N938 S936 1.610 . S
N938 C939 1.351 . S
C939 C933 1.428 . S
C939 N938 1.351 . S
C939 C940 1.434 . S
C940 C931 1.429 . S
C940 N937 1.350 . S
C940 C939 1.434 . S
C941 C942 1.369 . S
C941 C943 1.419 . S
C941 H945 0.930 . S
C942 C941 1.369 . S
C942 C951 1.429 . S
C943 C941 1.419 . S
C943 C944 1.363 . S
C943 H946 0.929 . S
C944 C943 1.363 . S
C944 C950 1.428 . S
H945 C941 0.930 . S
H946 C943 0.929 . S
S947 N948 1.613 . S
S947 N949 1.610 . S
N948 S947 1.613 . S
N948 C951 1.350 . S
N949 S947 1.610 . S
N949 C950 1.351 . S
C950 C944 1.428 . S
C950 N949 1.351 . S
C950 C951 1.434 . S
C951 C942 1.429 . S
C951 N948 1.350 . S
C951 C950 1.434 . S
C952 C953 1.369 . S
C952 C954 1.419 . S
C952 H956 0.930 . S
C953 C952 1.369 . S
C953 C962 1.429 . S
C954 C952 1.419 . S
C954 C955 1.363 . S
C954 H957 0.929 . S
C955 C954 1.363 . S
C955 C961 1.428 . S
H956 C952 0.930 . S
H957 C954 0.929 . S
S958 N959 1.613 . S
S958 N960 1.610 . S
N959 S958 1.613 . S
N959 C962 1.350 . S
N960 S958 1.610 . S
N960 C961 1.351 . S
C961 C955 1.428 . S
C961 N960 1.351 . S
C961 C962 1.434 . S
C962 C953 1.429 . S
C962 N959 1.350 . S
C962 C961 1.434 . S
C963 C964 1.369 . S
C963 C965 1.419 . S
C963 H967 0.930 . S
C964 C963 1.369 . S
C964 C973 1.429 . S
C965 C963 1.419 . S
C965 C966 1.363 . S
C965 H968 0.929 . S
C966 C965 1.363 . S
C966 C972 1.428 . S
H967 C963 0.930 . S
H968 C965 0.929 . S
S969 N970 1.613 . S
S969 N971 1.610 . S
N970 S969 1.613 . S
N970 C973 1.350 . S
N971 S969 1.610 . S
N971 C972 1.351 . S
C972 C966 1.428 . S
C972 N971 1.351 . S
C972 C973 1.434 . S
C973 C964 1.429 . S
C973 N970 1.350 . S
C973 C972 1.434 . S
C974 C975 1.369 . S
C974 C976 1.419 . S
C974 H978 0.930 . S
C975 C974 1.369 . S
C975 C984 1.429 . S
C976 C974 1.419 . S
C976 C977 1.363 . S
C976 H979 0.929 . S
C977 C976 1.363 . S
C977 C983 1.428 . S
H978 C974 0.930 . S
H979 C976 0.929 . S
S980 N981 1.613 . S
S980 N982 1.610 . S
N981 S980 1.613 . S
N981 C984 1.350 . S
N982 S980 1.610 . S
N982 C983 1.351 . S
C983 C977 1.428 . S
C983 N982 1.351 . S
C983 C984 1.434 . S
C984 C975 1.429 . S
C984 N981 1.350 . S
C984 C983 1.434 . S
C985 C986 1.369 . S
C985 C987 1.419 . S
C985 H989 0.930 . S
C986 C985 1.369 . S
C986 C995 1.429 . S
C987 C985 1.419 . S
C987 C988 1.363 . S
C987 H990 0.929 . S
C988 C987 1.363 . S
C988 C994 1.428 . S
H989 C985 0.930 . S
H990 C987 0.929 . S
S991 N992 1.613 . S
S991 N993 1.610 . S
N992 S991 1.613 . S
N992 C995 1.350 . S
N993 S991 1.610 . S
N993 C994 1.351 . S
C994 C988 1.428 . S
C994 N993 1.351 . S
C994 C995 1.434 . S
C995 C986 1.429 . S
C995 N992 1.350 . S
C995 C994 1.434 . S
C996 C997 1.369 1_655 S
C996 C998 1.419 . S
C996 H1000 0.930 . S
C997 C996 1.369 1_455 S
C997 C1006 1.429 . S
C998 C996 1.419 . S
C998 C999 1.363 . S
C998 H1001 0.929 . S
C999 C998 1.363 . S
C999 C1005 1.428 1_655 S
H1000 C996 0.930 . S
H1001 C998 0.929 . S
S1002 N1003 1.613 . S
S1002 N1004 1.610 . S
N1003 S1002 1.613 . S
N1003 C1006 1.350 . S
N1004 S1002 1.610 . S
N1004 C1005 1.351 . S
C1005 C999 1.428 1_455 S
C1005 N1004 1.351 . S
C1005 C1006 1.434 . S
C1006 C997 1.429 . S
C1006 N1003 1.350 . S
C1006 C1005 1.434 . S
C1007 C1008 1.369 . S
C1007 C1009 1.419 . S
C1007 H1011 0.930 . S
C1008 C1007 1.369 . S
C1008 C1017 1.429 . S
C1009 C1007 1.419 . S
C1009 C1010 1.363 . S
C1009 H1012 0.929 . S
C1010 C1009 1.363 . S
C1010 C1016 1.428 . S
H1011 C1007 0.930 . S
H1012 C1009 0.929 . S
S1013 N1014 1.613 . S
S1013 N1015 1.610 . S
N1014 S1013 1.613 . S
N1014 C1017 1.350 . S
N1015 S1013 1.610 . S
N1015 C1016 1.351 . S
C1016 C1010 1.428 . S
C1016 N1015 1.351 . S
C1016 C1017 1.434 . S
C1017 C1008 1.429 . S
C1017 N1014 1.350 . S
C1017 C1016 1.434 . S
C1018 C1019 1.369 1_565 S
C1018 C1020 1.419 . S
C1018 H1022 0.930 . S
C1019 C1018 1.369 1_545 S
C1019 C1028 1.429 . S
C1020 C1018 1.419 . S
C1020 C1021 1.363 . S
C1020 H1023 0.929 . S
C1021 C1020 1.363 . S
C1021 C1027 1.428 1_565 S
H1022 C1018 0.930 . S
H1023 C1020 0.929 . S
S1024 N1025 1.613 . S
S1024 N1026 1.610 . S
N1025 S1024 1.613 . S
N1025 C1028 1.350 . S
N1026 S1024 1.610 . S
N1026 C1027 1.351 . S
C1027 C1021 1.428 1_545 S
C1027 N1026 1.351 . S
C1027 C1028 1.434 . S
C1028 C1019 1.429 . S
C1028 N1025 1.350 . S
C1028 C1027 1.434 . S
C1029 C1030 1.369 1_554 S
C1029 C1031 1.419 . S
C1029 H1033 0.930 . S
C1030 C1029 1.369 1_556 S
C1030 C1039 1.429 1_545 S
C1031 C1029 1.419 . S
C1031 C1032 1.363 1_545 S
C1031 H1034 0.929 . S
C1032 C1031 1.363 1_565 S
C1032 C1038 1.428 1_554 S
H1033 C1029 0.930 . S
H1034 C1031 0.929 . S
S1035 N1036 1.613 . S
S1035 N1037 1.610 . S
N1036 S1035 1.613 . S
N1036 C1039 1.350 . S
N1037 S1035 1.610 . S
N1037 C1038 1.351 . S
C1038 C1032 1.428 1_556 S
C1038 N1037 1.351 . S
C1038 C1039 1.434 . S
C1039 C1030 1.429 1_565 S
C1039 N1036 1.350 . S
C1039 C1038 1.434 . S
C1040 C1041 1.369 1_655 S
C1040 C1042 1.419 . S
C1040 H1044 0.930 . S
C1041 C1040 1.369 1_455 S
C1041 C1050 1.429 1_554 S
C1042 C1040 1.419 . S
C1042 C1043 1.363 1_554 S
C1042 H1045 0.929 . S
C1043 C1042 1.363 1_556 S
C1043 C1049 1.428 1_655 S
H1044 C1040 0.930 . S
H1045 C1042 0.929 . S
S1046 N1047 1.613 . S
S1046 N1048 1.610 . S
N1047 S1046 1.613 . S
N1047 C1050 1.350 . S
N1048 S1046 1.610 . S
N1048 C1049 1.351 . S
C1049 C1043 1.428 1_455 S
C1049 N1048 1.351 . S
C1049 C1050 1.434 . S
C1050 C1041 1.429 1_556 S
C1050 N1047 1.350 . S
C1050 C1049 1.434 . S
C1051 C1052 1.369 . S
C1051 C1053 1.419 1_554 S
C1051 H1055 0.930 . S
C1052 C1051 1.369 . S
C1052 C1061 1.429 . S
C1053 C1051 1.419 1_556 S
C1053 C1054 1.363 . S
C1053 H1056 0.929 . S
C1054 C1053 1.363 . S
C1054 C1060 1.428 . S
H1055 C1051 0.930 . S
H1056 C1053 0.929 . S
S1057 N1058 1.613 1_556 S
S1057 N1059 1.610 . S
N1058 S1057 1.613 1_554 S
N1058 C1061 1.350 . S
N1059 S1057 1.610 . S
N1059 C1060 1.351 . S
C1060 C1054 1.428 . S
C1060 N1059 1.351 . S
C1060 C1061 1.434 1_556 S
C1061 C1052 1.429 . S
C1061 N1058 1.350 . S
C1061 C1060 1.434 1_554 S
C1062 C1063 1.369 . S
C1062 C1064 1.419 . S
C1062 H1066 0.930 . S
C1063 C1062 1.369 . S
C1063 C1072 1.429 . S
C1064 C1062 1.419 . S
C1064 C1065 1.363 . S
C1064 H1067 0.929 . S
C1065 C1064 1.363 . S
C1065 C1071 1.428 . S
H1066 C1062 0.930 . S
H1067 C1064 0.929 . S
S1068 N1069 1.613 1_554 S
S1068 N1070 1.610 . S
N1069 S1068 1.613 1_556 S
N1069 C1072 1.350 1_556 S
N1070 S1068 1.610 . S
N1070 C1071 1.351 . S
C1071 C1065 1.428 . S
C1071 N1070 1.351 . S
C1071 C1072 1.434 . S
C1072 C1063 1.429 . S
C1072 N1069 1.350 1_554 S
C1072 C1071 1.434 . S
C1073 C1074 1.369 . S
C1073 C1075 1.419 . S
C1073 H1077 0.930 . S
C1074 C1073 1.369 . S
C1074 C1083 1.429 . S
C1075 C1073 1.419 . S
C1075 C1076 1.363 . S
C1075 H1078 0.929 . S
C1076 C1075 1.363 . S
C1076 C1082 1.428 . S
H1077 C1073 0.930 . S
H1078 C1075 0.929 . S
S1079 N1080 1.613 . S
S1079 N1081 1.610 1_554 S
N1080 S1079 1.613 . S
N1080 C1083 1.350 . S
N1081 S1079 1.610 1_556 S
N1081 C1082 1.351 1_556 S
C1082 C1076 1.428 . S
C1082 N1081 1.351 1_554 S
C1082 C1083 1.434 . S
C1083 C1074 1.429 . S
C1083 N1080 1.350 . S
C1083 C1082 1.434 . S
C1084 C1085 1.369 . S
C1084 C1086 1.419 . S
C1084 H1088 0.930 . S
C1085 C1084 1.369 . S
C1085 C1094 1.429 . S
C1086 C1084 1.419 . S
C1086 C1087 1.363 . S
C1086 H1089 0.929 . S
C1087 C1086 1.363 . S
C1087 C1093 1.428 . S
H1088 C1084 0.930 . S
H1089 C1086 0.929 . S
S1090 N1091 1.613 . S
S1090 N1092 1.610 . S
N1091 S1090 1.613 . S
N1091 C1094 1.350 . S
N1092 S1090 1.610 . S
N1092 C1093 1.351 . S
C1093 C1087 1.428 . S
C1093 N1092 1.351 . S
C1093 C1094 1.434 . S
C1094 C1085 1.429 . S
C1094 N1091 1.350 . S
C1094 C1093 1.434 . S
C1095 C1096 1.369 . S
C1095 C1097 1.419 . S
C1095 H1099 0.930 . S
C1096 C1095 1.369 . S
C1096 C1105 1.429 . S
C1097 C1095 1.419 . S
C1097 C1098 1.363 . S
C1097 H1100 0.929 . S
C1098 C1097 1.363 . S
C1098 C1104 1.428 . S
H1099 C1095 0.930 . S
H1100 C1097 0.929 . S
S1101 N1102 1.613 . S
S1101 N1103 1.610 . S
N1102 S1101 1.613 . S
N1102 C1105 1.350 . S
N1103 S1101 1.610 . S
N1103 C1104 1.351 . S
C1104 C1098 1.428 . S
C1104 N1103 1.351 . S
C1104 C1105 1.434 . S
C1105 C1096 1.429 . S
C1105 N1102 1.350 . S
C1105 C1104 1.434 . S
C1106 C1107 1.369 . S
C1106 C1108 1.419 . S
C1106 H1110 0.930 . S
C1107 C1106 1.369 . S
C1107 C1116 1.429 . S
C1108 C1106 1.419 . S
C1108 C1109 1.363 . S
C1108 H1111 0.929 . S
C1109 C1108 1.363 . S
C1109 C1115 1.428 . S
H1110 C1106 0.930 . S
H1111 C1108 0.929 . S
S1112 N1113 1.613 . S
S1112 N1114 1.610 . S
N1113 S1112 1.613 . S
N1113 C1116 1.350 . S
N1114 S1112 1.610 . S
N1114 C1115 1.351 . S
C1115 C1109 1.428 . S
C1115 N1114 1.351 . S
C1115 C1116 1.434 . S
C1116 C1107 1.429 . S
C1116 N1113 1.350 . S
C1116 C1115 1.434 . S
C1117 C1118 1.369 . S
C1117 C1119 1.419 . S
C1117 H1121 0.930 . S
C1118 C1117 1.369 . S
C1118 C1127 1.429 . S
C1119 C1117 1.419 . S
C1119 C1120 1.363 . S
C1119 H1122 0.929 . S
C1120 C1119 1.363 . S
C1120 C1126 1.428 . S
H1121 C1117 0.930 . S
H1122 C1119 0.929 . S
S1123 N1124 1.613 . S
S1123 N1125 1.610 . S
N1124 S1123 1.613 . S
N1124 C1127 1.350 . S
N1125 S1123 1.610 . S
N1125 C1126 1.351 . S
C1126 C1120 1.428 . S
C1126 N1125 1.351 . S
C1126 C1127 1.434 . S
C1127 C1118 1.429 . S
C1127 N1124 1.350 . S
C1127 C1126 1.434 . S
C1128 C1129 1.369 . S
C1128 C1130 1.419 . S
C1128 H1132 0.930 . S
C1129 C1128 1.369 . S
C1129 C1138 1.429 . S
C1130 C1128 1.419 . S
C1130 C1131 1.363 . S
C1130 H1133 0.929 . S
C1131 C1130 1.363 . S
C1131 C1137 1.428 . S
H1132 C1128 0.930 . S
H1133 C1130 0.929 . S
S1134 N1135 1.613 . S
S1134 N1136 1.610 1_556 S
N1135 S1134 1.613 . S
N1135 C1138 1.350 . S
N1136 S1134 1.610 1_554 S
N1136 C1137 1.351 1_554 S
C1137 C1131 1.428 . S
C1137 N1136 1.351 1_556 S
C1137 C1138 1.434 . S
C1138 C1129 1.429 . S
C1138 N1135 1.350 . S
C1138 C1137 1.434 . S
C1139 C1140 1.369 . S
C1139 C1141 1.419 . S
C1139 H1143 0.930 . S
C1140 C1139 1.369 . S
C1140 C1149 1.429 . S
C1141 C1139 1.419 . S
C1141 C1142 1.363 . S
C1141 H1144 0.929 . S
C1142 C1141 1.363 . S
C1142 C1148 1.428 . S
H1143 C1139 0.930 . S
H1144 C1141 0.929 . S
S1145 N1146 1.613 . S
S1145 N1147 1.610 . S
N1146 S1145 1.613 . S
N1146 C1149 1.350 . S
N1147 S1145 1.610 . S
N1147 C1148 1.351 . S
C1148 C1142 1.428 . S
C1148 N1147 1.351 . S
C1148 C1149 1.434 . S
C1149 C1140 1.429 . S
C1149 N1146 1.350 . S
C1149 C1148 1.434 . S
C1150 C1151 1.369 . S
C1150 C1152 1.419 . S
C1150 H1154 0.930 . S
C1151 C1150 1.369 . S
C1151 C1160 1.429 . S
C1152 C1150 1.419 . S
C1152 C1153 1.363 . S
C1152 H1155 0.929 . S
C1153 C1152 1.363 . S
C1153 C1159 1.428 . S
H1154 C1150 0.930 . S
H1155 C1152 0.929 . S
S1156 N1157 1.613 . S
S1156 N1158 1.610 . S
N1157 S1156 1.613 . S
N1157 C1160 1.350 . S
N1158 S1156 1.610 . S
N1158 C1159 1.351 . S
C1159 C1153 1.428 . S
C1159 N1158 1.351 . S
C1159 C1160 1.434 . S
C1160 C1151 1.429 . S
C1160 N1157 1.350 . S
C1160 C1159 1.434 . S
C1161 C1162 1.369 . S
C1161 C1163 1.419 . S
C1161 H1165 0.930 . S
C1162 C1161 1.369 . S
C1162 C1171 1.429 . S
C1163 C1161 1.419 . S
C1163 C1164 1.363 . S
C1163 H1166 0.929 . S
C1164 C1163 1.363 . S
C1164 C1170 1.428 . S
H1165 C1161 0.930 . S
H1166 C1163 0.929 . S
S1167 N1168 1.613 . S
S1167 N1169 1.610 . S
N1168 S1167 1.613 . S
N1168 C1171 1.350 . S
N1169 S1167 1.610 . S
N1169 C1170 1.351 . S
C1170 C1164 1.428 . S
C1170 N1169 1.351 . S
C1170 C1171 1.434 . S
C1171 C1162 1.429 . S
C1171 N1168 1.350 . S
C1171 C1170 1.434 . S
C1172 C1173 1.369 . S
C1172 C1174 1.419 . S
C1172 H1176 0.930 . S
C1173 C1172 1.369 . S
C1173 C1182 1.429 . S
C1174 C1172 1.419 . S
C1174 C1175 1.363 . S
C1174 H1177 0.929 . S
C1175 C1174 1.363 . S
C1175 C1181 1.428 . S
H1176 C1172 0.930 . S
H1177 C1174 0.929 . S
S1178 N1179 1.613 . S
S1178 N1180 1.610 . S
N1179 S1178 1.613 . S
N1179 C1182 1.350 . S
N1180 S1178 1.610 . S
N1180 C1181 1.351 . S
C1181 C1175 1.428 . S
C1181 N1180 1.351 . S
C1181 C1182 1.434 . S
C1182 C1173 1.429 . S
C1182 N1179 1.350 . S
C1182 C1181 1.434 . S
C1183 C1184 1.369 . S
C1183 C1185 1.419 . S
C1183 H1187 0.930 . S
C1184 C1183 1.369 . S
C1184 C1193 1.429 . S
C1185 C1183 1.419 . S
C1185 C1186 1.363 . S
C1185 H1188 0.929 . S
C1186 C1185 1.363 . S
C1186 C1192 1.428 . S
H1187 C1183 0.930 . S
H1188 C1185 0.929 . S
S1189 N1190 1.613 . S
S1189 N1191 1.610 . S
N1190 S1189 1.613 . S
N1190 C1193 1.350 . S
N1191 S1189 1.610 . S
N1191 C1192 1.351 . S
C1192 C1186 1.428 . S
C1192 N1191 1.351 . S
C1192 C1193 1.434 . S
C1193 C1184 1.429 . S
C1193 N1190 1.350 . S
C1193 C1192 1.434 . S
C1194 C1195 1.369 . S
C1194 C1196 1.419 . S
C1194 H1198 0.930 . S
C1195 C1194 1.369 . S
C1195 C1204 1.429 . S
C1196 C1194 1.419 . S
C1196 C1197 1.363 . S
C1196 H1199 0.929 . S
C1197 C1196 1.363 . S
C1197 C1203 1.428 . S
H1198 C1194 0.930 . S
H1199 C1196 0.929 . S
S1200 N1201 1.613 . S
S1200 N1202 1.610 . S
N1201 S1200 1.613 . S
N1201 C1204 1.350 . S
N1202 S1200 1.610 . S
N1202 C1203 1.351 . S
C1203 C1197 1.428 . S
C1203 N1202 1.351 . S
C1203 C1204 1.434 . S
C1204 C1195 1.429 . S
C1204 N1201 1.350 . S
C1204 C1203 1.434 . S
C1205 C1206 1.369 . S
C1205 C1207 1.419 1_545 S
C1205 H1209 0.930 . S
C1206 C1205 1.369 . S
C1206 C1215 1.429 . S
C1207 C1205 1.419 1_565 S
C1207 C1208 1.363 . S
C1207 H1210 0.929 . S
C1208 C1207 1.363 . S
C1208 C1214 1.428 . S
H1209 C1205 0.930 . S
H1210 C1207 0.929 . S
S1211 N1212 1.613 . S
S1211 N1213 1.610 1_545 S
N1212 S1211 1.613 . S
N1212 C1215 1.350 . S
N1213 S1211 1.610 1_565 S
N1213 C1214 1.351 . S
C1214 C1208 1.428 . S
C1214 N1213 1.351 . S
C1214 C1215 1.434 1_565 S
C1215 C1206 1.429 . S
C1215 N1212 1.350 . S
C1215 C1214 1.434 1_545 S
C1216 C1217 1.369 . S
C1216 C1218 1.419 . S
C1216 H1220 0.930 . S
C1217 C1216 1.369 . S
C1217 C1226 1.429 1_655 S
C1218 C1216 1.419 . S
C1218 C1219 1.363 1_655 S
C1218 H1221 0.929 . S
C1219 C1218 1.363 1_455 S
C1219 C1225 1.428 . S
H1220 C1216 0.930 . S
H1221 C1218 0.929 . S
S1222 N1223 1.613 . S
S1222 N1224 1.610 . S
N1223 S1222 1.613 . S
N1223 C1226 1.350 . S
N1224 S1222 1.610 . S
N1224 C1225 1.351 . S
C1225 C1219 1.428 . S
C1225 N1224 1.351 . S
C1225 C1226 1.434 . S
C1226 C1217 1.429 1_455 S
C1226 N1223 1.350 . S
C1226 C1225 1.434 . S
C1227 C1228 1.369 . S
C1227 C1229 1.419 . S
C1227 H1231 0.930 . S
C1228 C1227 1.369 . S
C1228 C1237 1.429 . S
C1229 C1227 1.419 . S
C1229 C1230 1.363 . S
C1229 H1232 0.929 . S
C1230 C1229 1.363 . S
C1230 C1236 1.428 . S
H1231 C1227 0.930 . S
H1232 C1229 0.929 . S
S1233 N1234 1.613 . S
S1233 N1235 1.610 . S
N1234 S1233 1.613 . S
N1234 C1237 1.350 . S
N1235 S1233 1.610 . S
N1235 C1236 1.351 . S
C1236 C1230 1.428 . S
C1236 N1235 1.351 . S
C1236 C1237 1.434 . S
C1237 C1228 1.429 . S
C1237 N1234 1.350 . S
C1237 C1236 1.434 . S
C1238 C1239 1.369 . S
C1238 C1240 1.419 . S
C1238 H1242 0.930 . S
C1239 C1238 1.369 . S
C1239 C1248 1.429 1_545 S
C1240 C1238 1.419 . S
C1240 C1241 1.363 1_545 S
C1240 H1243 0.929 . S
C1241 C1240 1.363 1_565 S
C1241 C1247 1.428 . S
H1242 C1238 0.930 . S
H1243 C1240 0.929 . S
S1244 N1245 1.613 . S
S1244 N1246 1.610 . S
N1245 S1244 1.613 . S
N1245 C1248 1.350 . S
N1246 S1244 1.610 . S
N1246 C1247 1.351 . S
C1247 C1241 1.428 . S
C1247 N1246 1.351 . S
C1247 C1248 1.434 . S
C1248 C1239 1.429 1_565 S
C1248 N1245 1.350 . S
C1248 C1247 1.434 . S
C1249 C1250 1.369 1_655 S
C1249 C1251 1.419 . S
C1249 H1253 0.930 . S
C1250 C1249 1.369 1_455 S
C1250 C1259 1.429 . S
C1251 C1249 1.419 . S
C1251 C1252 1.363 . S
C1251 H1254 0.929 . S
C1252 C1251 1.363 . S
C1252 C1258 1.428 1_655 S
H1253 C1249 0.930 . S
H1254 C1251 0.929 . S
S1255 N1256 1.613 . S
S1255 N1257 1.610 . S
N1256 S1255 1.613 . S
N1256 C1259 1.350 . S
N1257 S1255 1.610 . S
N1257 C1258 1.351 . S
C1258 C1252 1.428 1_455 S
C1258 N1257 1.351 . S
C1258 C1259 1.434 . S
C1259 C1250 1.429 . S
C1259 N1256 1.350 . S
C1259 C1258 1.434 . S
C469 C70 0.845 . S
C471 C5 0.854 . S
C480 C44 0.858 . S
C482 C18 0.848 . S
C491 C31 0.847 . S
C493 C57 0.843 . S
C502 C83 0.853 . S
C504 C148 0.857 . S
C513 C96 0.850 . S
C515 C122 0.844 . S
C524 C135 0.842 . S
C526 C109 0.843 . S
C535 C161 0.855 . S
C537 C226 0.858 . S
C546 C174 0.849 . S
C548 C200 0.843 . S
C557 C213 0.848 . S
C559 C187 0.843 . S
C568 C304 0.860 . S
C570 C239 0.856 . S
C579 C278 0.841 . S
C581 C252 0.843 . S
C590 C265 0.857 . S
C592 C291 0.849 . S
C601 C382 0.848 . S
C603 C317 0.843 . S
C612 C356 0.855 . S
C614 C330 0.846 . S
C623 C343 0.842 . S
C625 C369 0.851 . S
C634 C460 0.856 . S
C636 C395 0.848 . S
C645 C434 0.848 . S
C647 C408 0.843 . S
C656 C447 0.851 . S
C658 C421 0.845 . S
C667 C216 1.507 . S
C669 C8 1.501 . S
C678 C229 1.498 . S
C680 C21 1.496 . S
C689 C203 1.496 . S
C691 C34 1.497 . S
C700 C47 1.493 . S
C702 C346 1.500 1_554 S
C711 C60 1.496 . S
C713 C320 1.507 1_554 S
C722 C73 1.501 . S
C724 C333 1.494 1_554 S
C733 C86 1.504 . S
C735 C450 1.494 . S
C744 C463 1.508 . S
C746 C99 1.498 . S
C755 C437 1.498 . S
C757 C112 1.506 . S
C766 C268 1.492 1_556 S
C768 C125 1.506 . S
C777 C242 1.492 1_556 S
C779 C138 1.503 . S
C788 C151 1.497 . S
C790 C255 1.497 1_556 S
C799 C164 1.508 . S
C801 C372 1.495 . S
C810 C385 1.504 . S
C812 C177 1.504 . S
C821 C359 1.491 . S
C823 C190 1.505 . S
C832 C281 1.491 . S
C834 C424 1.504 . S
C843 C398 1.493 . S
C845 C294 1.507 . S
C854 C307 1.492 . S
C856 C411 1.503 . S
C865 C234 1.322 . S
C867 C0 1.317 . S
C876 C247 1.320 . S
C878 C13 1.318 . S
C887 C26 1.322 . S
C889 C260 1.316 . S
C898 C39 1.316 . S
C900 C429 1.322 . S
C909 C442 1.321 . S
C911 C52 1.316 . S
C920 C455 1.316 . S
C922 C65 1.321 . S
C931 C78 1.316 . S
C933 C312 1.322 . S
C942 C91 1.315 . S
C944 C325 1.322 . S
C953 C338 1.321 . S
C955 C104 1.317 . S
C964 C117 1.316 . S
C966 C195 1.322 . S
C975 C130 1.315 . S
C977 C208 1.321 . S
C986 C221 1.316 . S
C988 C143 1.321 . S
C997 C156 1.316 . S
C999 C390 1.322 . S
C1008 C169 1.315 . S
C1010 C403 1.321 . S
C1019 C416 1.316 . S
C1021 C182 1.321 . S
C1030 C351 1.323 . S
C1032 C273 1.317 . S
C1041 C286 1.315 . S
C1043 C364 1.321 . S
C1052 C299 1.315 . S
C1054 C377 1.322 . S
C1063 C361 1.751 1_554 S
C1065 C10 1.749 . S
C1074 C23 1.747 . S
C1076 C374 1.749 1_554 S
C1085 C387 1.747 1_554 S
C1087 C36 1.748 . S
C1096 C49 1.751 . S
C1098 C166 1.750 . S
C1107 C179 1.750 . S
C1109 C62 1.748 . S
C1118 C192 1.751 . S
C1120 C75 1.750 . S
C1129 C88 1.750 . S
C1131 C283 1.751 1_556 S
C1140 C296 1.749 1_556 S
C1142 C101 1.750 . S
C1151 C114 1.751 . S
C1153 C309 1.750 1_556 S
C1162 C127 1.748 . S
C1164 C400 1.747 . S
C1173 C140 1.751 . S
C1175 C413 1.750 . S
C1184 C426 1.747 . S
C1186 C153 1.749 . S
C1195 C205 1.747 . S
C1197 C322 1.749 . S
C1206 C218 1.746 . S
C1208 C335 1.746 . S
C1217 C231 1.750 . S
C1219 C348 1.748 . S
C1228 C244 1.751 . S
C1230 C439 1.751 . S
C1239 C257 1.747 . S
C1241 C452 1.747 . S
C1250 C465 1.747 . S
C1252 C270 1.748 . S
