# Generated by pormake.
# Topology whz, (6)-cn, num edge types: 1
# Building blocks:
#     Node 0, Type 0, BuildingBlock: CUKXOW_clean_sbu_0, # of connection points: 6
#     Node 1, Type 0, BuildingBlock: CUKXOW_clean_sbu_0, # of connection points: 6
#     Node 2, Type 0, BuildingBlock: CUKXOW_clean_sbu_0, # of connection points: 6
#     Node 3, Type 0, BuildingBlock: CUKXOW_clean_sbu_0, # of connection points: 6
#     Node 4, Type 0, BuildingBlock: CUKXOW_clean_sbu_0, # of connection points: 6
#     Node 5, Type 0, BuildingBlock: CUKXOW_clean_sbu_0, # of connection points: 6
#     Node 6, Type 0, BuildingBlock: CUKXOW_clean_sbu_0, # of connection points: 6
#     Node 7, Type 0, BuildingBlock: CUKXOW_clean_sbu_0, # of connection points: 6
#     Node 8, Type 0, BuildingBlock: CUKXOW_clean_sbu_0, # of connection points: 6
#     Node 9, Type 0, BuildingBlock: CUKXOW_clean_sbu_0, # of connection points: 6
#     Node 10, Type 0, BuildingBlock: CUKXOW_clean_sbu_0, # of connection points: 6
#     Node 11, Type 0, BuildingBlock: CUKXOW_clean_sbu_0, # of connection points: 6
#     Node 12, Type 0, BuildingBlock: CUKXOW_clean_sbu_0, # of connection points: 6
#     Node 13, Type 0, BuildingBlock: CUKXOW_clean_sbu_0, # of connection points: 6
#     Node 14, Type 0, BuildingBlock: CUKXOW_clean_sbu_0, # of connection points: 6
#     Node 15, Type 0, BuildingBlock: CUKXOW_clean_sbu_0, # of connection points: 6
#     Edge 16, Type (0, 0), BuildingBlock: TEMPAE_clean_linker_10, # of connection points: 2
#     Edge 17, Type (0, 0), BuildingBlock: TEMPAE_clean_linker_10, # of connection points: 2
#     Edge 18, Type (0, 0), BuildingBlock: TEMPAE_clean_linker_10, # of connection points: 2
#     Edge 19, Type (0, 0), BuildingBlock: TEMPAE_clean_linker_10, # of connection points: 2
#     Edge 20, Type (0, 0), BuildingBlock: TEMPAE_clean_linker_10, # of connection points: 2
#     Edge 21, Type (0, 0), BuildingBlock: TEMPAE_clean_linker_10, # of connection points: 2
#     Edge 22, Type (0, 0), BuildingBlock: TEMPAE_clean_linker_10, # of connection points: 2
#     Edge 23, Type (0, 0), BuildingBlock: TEMPAE_clean_linker_10, # of connection points: 2
#     Edge 24, Type (0, 0), BuildingBlock: TEMPAE_clean_linker_10, # of connection points: 2
#     Edge 25, Type (0, 0), BuildingBlock: TEMPAE_clean_linker_10, # of connection points: 2
#     Edge 26, Type (0, 0), BuildingBlock: TEMPAE_clean_linker_10, # of connection points: 2
#     Edge 27, Type (0, 0), BuildingBlock: TEMPAE_clean_linker_10, # of connection points: 2
#     Edge 28, Type (0, 0), BuildingBlock: TEMPAE_clean_linker_10, # of connection points: 2
#     Edge 29, Type (0, 0), BuildingBlock: TEMPAE_clean_linker_10, # of connection points: 2
#     Edge 30, Type (0, 0), BuildingBlock: TEMPAE_clean_linker_10, # of connection points: 2
#     Edge 31, Type (0, 0), BuildingBlock: TEMPAE_clean_linker_10, # of connection points: 2
#     Edge 32, Type (0, 0), BuildingBlock: TEMPAE_clean_linker_10, # of connection points: 2
#     Edge 33, Type (0, 0), BuildingBlock: TEMPAE_clean_linker_10, # of connection points: 2
#     Edge 34, Type (0, 0), BuildingBlock: TEMPAE_clean_linker_10, # of connection points: 2
#     Edge 35, Type (0, 0), BuildingBlock: TEMPAE_clean_linker_10, # of connection points: 2
#     Edge 36, Type (0, 0), BuildingBlock: TEMPAE_clean_linker_10, # of connection points: 2
#     Edge 37, Type (0, 0), BuildingBlock: TEMPAE_clean_linker_10, # of connection points: 2
#     Edge 38, Type (0, 0), BuildingBlock: TEMPAE_clean_linker_10, # of connection points: 2
#     Edge 39, Type (0, 0), BuildingBlock: TEMPAE_clean_linker_10, # of connection points: 2
#     Edge 40, Type (0, 0), BuildingBlock: TEMPAE_clean_linker_10, # of connection points: 2
#     Edge 41, Type (0, 0), BuildingBlock: TEMPAE_clean_linker_10, # of connection points: 2
#     Edge 42, Type (0, 0), BuildingBlock: TEMPAE_clean_linker_10, # of connection points: 2
#     Edge 43, Type (0, 0), BuildingBlock: TEMPAE_clean_linker_10, # of connection points: 2
#     Edge 44, Type (0, 0), BuildingBlock: TEMPAE_clean_linker_10, # of connection points: 2
#     Edge 45, Type (0, 0), BuildingBlock: TEMPAE_clean_linker_10, # of connection points: 2
#     Edge 46, Type (0, 0), BuildingBlock: TEMPAE_clean_linker_10, # of connection points: 2
#     Edge 47, Type (0, 0), BuildingBlock: TEMPAE_clean_linker_10, # of connection points: 2
#     Edge 48, Type (0, 0), BuildingBlock: TEMPAE_clean_linker_10, # of connection points: 2
#     Edge 49, Type (0, 0), BuildingBlock: TEMPAE_clean_linker_10, # of connection points: 2
#     Edge 50, Type (0, 0), BuildingBlock: TEMPAE_clean_linker_10, # of connection points: 2
#     Edge 51, Type (0, 0), BuildingBlock: TEMPAE_clean_linker_10, # of connection points: 2
#     Edge 52, Type (0, 0), BuildingBlock: TEMPAE_clean_linker_10, # of connection points: 2
#     Edge 53, Type (0, 0), BuildingBlock: TEMPAE_clean_linker_10, # of connection points: 2
#     Edge 54, Type (0, 0), BuildingBlock: TEMPAE_clean_linker_10, # of connection points: 2
#     Edge 55, Type (0, 0), BuildingBlock: TEMPAE_clean_linker_10, # of connection points: 2
#     Edge 56, Type (0, 0), BuildingBlock: TEMPAE_clean_linker_10, # of connection points: 2
#     Edge 57, Type (0, 0), BuildingBlock: TEMPAE_clean_linker_10, # of connection points: 2
#     Edge 58, Type (0, 0), BuildingBlock: TEMPAE_clean_linker_10, # of connection points: 2
#     Edge 59, Type (0, 0), BuildingBlock: TEMPAE_clean_linker_10, # of connection points: 2
#     Edge 60, Type (0, 0), BuildingBlock: TEMPAE_clean_linker_10, # of connection points: 2
#     Edge 61, Type (0, 0), BuildingBlock: TEMPAE_clean_linker_10, # of connection points: 2
#     Edge 62, Type (0, 0), BuildingBlock: TEMPAE_clean_linker_10, # of connection points: 2
#     Edge 63, Type (0, 0), BuildingBlock: TEMPAE_clean_linker_10, # of connection points: 2
# Relax obj value: 0.230
# Max RMSD: 0.249
# Mean RMSD: 0.249
data_MOF--net-whz--node1-CUKXOW_clean_sbu_0--edge1-TEMPAE_clean_linker_10
_symmetry_space_group_name_H-M    P1
_symmetry_Int_Tables_number       1
_symmetry_cell_setting            triclinic
loop_
_symmetry_equiv_pos_as_xyz
'x, y, z'
_cell_length_a     37.710322
_cell_length_b     37.696914
_cell_length_c     51.055661
_cell_angle_alpha  89.922774
_cell_angle_beta   90.005328
_cell_angle_gamma 90.001918
loop_
_atom_site_label
_atom_site_type_symbol
_atom_site_fract_x
_atom_site_fract_y
_atom_site_fract_z
_atom_type_partial_charge
Tb0 Tb 0.33588 0.15011 0.1668 0.0
C1 C 0.27457 0.19649 0.14374 0.0
Tb2 Tb 0.26139 0.11939 0.16812 0.0
O3 O 0.33706 0.14614 0.12415 0.0
O4 O 0.30746 0.10981 0.14568 0.0
O5 O 0.30689 0.19649 0.15395 0.0
C6 C 0.19528 0.09548 0.16089 0.0
O7 O 0.25358 0.16805 0.1446 0.0
C8 C 0.27951 0.15371 0.2106 0.0
C9 C 0.32012 0.08099 0.20138 0.0
O10 O 0.20478 0.1204 0.17677 0.0
O11 O 0.22313 0.08386 0.14859 0.0
O12 O 0.25882 0.12626 0.21012 0.0
O13 O 0.28805 0.16144 0.18737 0.0
O14 O 0.28928 0.07681 0.189 0.0
O15 O 0.34168 0.10804 0.1962 0.0
C16 C 0.39934 0.18122 0.1749 0.0
O17 O 0.36966 0.18998 0.18602 0.0
O18 O 0.39341 0.1543 0.15963 0.0
C19 C 0.31435 0.12044 0.12268 0.0
Tb20 Tb 0.61158 0.58018 0.41746 0.0
C21 C 0.56878 0.51957 0.39042 0.0
Tb22 Tb 0.64296 0.50539 0.4171 0.0
O23 O 0.61813 0.58372 0.37486 0.0
O24 O 0.65285 0.55284 0.39641 0.0
O25 O 0.56706 0.54997 0.40325 0.0
C26 C 0.67973 0.44498 0.41421 0.0
O27 O 0.5983 0.50011 0.38947 0.0
C28 C 0.58808 0.51183 0.44742 0.0
C29 C 0.67706 0.56384 0.45486 0.0
O30 O 0.66989 0.46073 0.43552 0.0
O31 O 0.66973 0.46386 0.39417 0.0
O32 O 0.59752 0.48254 0.43624 0.0
O33 O 0.61125 0.53556 0.4434 0.0
O34 O 0.68033 0.53198 0.4438 0.0
O35 O 0.65222 0.58693 0.44761 0.0
C36 C 0.57827 0.64201 0.42624 0.0
O37 O 0.60959 0.63854 0.41575 0.0
O38 O 0.5663 0.61072 0.43226 0.0
C39 C 0.6438 0.56105 0.37335 0.0
Tb40 Tb 0.17918 0.86656 0.66792 0.0
C41 C 0.24309 0.81965 0.64878 0.0
Tb42 Tb 0.25384 0.89789 0.67143 0.0
O43 O 0.18002 0.86944 0.62538 0.0
O44 O 0.2089 0.90637 0.64708 0.0
O45 O 0.20967 0.8199 0.65697 0.0
C46 C 0.31993 0.92272 0.66531 0.0
O47 O 0.26384 0.84823 0.64996 0.0
C48 C 0.23224 0.86406 0.71351 0.0
C49 C 0.19341 0.93676 0.70183 0.0
O50 O 0.30962 0.9001 0.68276 0.0
O51 O 0.29292 0.93151 0.65089 0.0
O52 O 0.25401 0.89072 0.71379 0.0
O53 O 0.22555 0.85661 0.69 0.0
O54 O 0.2245 0.9411 0.68989 0.0
O55 O 0.17231 0.90928 0.69674 0.0
C56 C 0.11554 0.83555 0.67511 0.0
O57 O 0.1218 0.86264 0.66001 0.0
O58 O 0.14495 0.82655 0.68648 0.0
C59 C 0.20301 0.89493 0.6241 0.0
Tb60 Tb 0.90139 0.43359 0.91772 0.0
C61 C 0.94856 0.49578 0.89753 0.0
Tb62 Tb 0.87003 0.5078 0.91831 0.0
O63 O 0.90004 0.43371 0.87476 0.0
O64 O 0.86203 0.46201 0.89542 0.0
O65 O 0.94844 0.46414 0.90884 0.0
C66 C 0.84512 0.57272 0.90834 0.0
O67 O 0.91907 0.51496 0.89499 0.0
C68 C 0.90207 0.49064 0.96203 0.0
C69 C 0.83236 0.44882 0.95214 0.0
O70 O 0.87764 0.56493 0.91397 0.0
O71 O 0.8264 0.54382 0.90787 0.0
O72 O 0.87663 0.51364 0.96028 0.0
O73 O 0.91046 0.48121 0.93918 0.0
O74 O 0.8282 0.47979 0.93993 0.0
O75 O 0.85917 0.42713 0.94675 0.0
C76 C 0.9323 0.36995 0.92548 0.0
O77 O 0.90514 0.37602 0.91044 0.0
O78 O 0.94146 0.39957 0.93646 0.0
C79 C 0.87389 0.45585 0.87272 0.0
Tb80 Tb 0.75851 0.89887 0.87431 0.0
C81 C 0.69834 0.93799 0.84314 0.0
Tb82 Tb 0.68425 0.86727 0.87615 0.0
O83 O 0.76009 0.89468 0.83189 0.0
O84 O 0.73091 0.85866 0.85382 0.0
O85 O 0.72935 0.94216 0.8553 0.0
C86 C 0.62113 0.83529 0.86887 0.0
O87 O 0.67714 0.91056 0.84803 0.0
C88 C 0.70749 0.89322 0.92106 0.0
C89 C 0.74764 0.81994 0.89455 0.0
O90 O 0.62673 0.86294 0.8835 0.0
O91 O 0.65085 0.82641 0.85794 0.0
O92 O 0.68507 0.86737 0.91885 0.0
O93 O 0.71332 0.90603 0.89849 0.0
O94 O 0.71537 0.82029 0.8843 0.0
O95 O 0.76744 0.84908 0.89623 0.0
C96 C 0.82508 0.92205 0.88023 0.0
O97 O 0.81486 0.89651 0.86517 0.0
O98 O 0.79768 0.93471 0.89259 0.0
C99 C 0.73846 0.86802 0.83078 0.0
Tb100 Tb 0.36654 0.50655 0.62645 0.0
C101 C 0.32764 0.44748 0.59385 0.0
Tb102 Tb 0.39709 0.43178 0.62775 0.0
O103 O 0.37282 0.50929 0.58432 0.0
O104 O 0.40782 0.47938 0.60681 0.0
O105 O 0.32361 0.4784 0.60616 0.0
C106 C 0.42878 0.36885 0.61942 0.0
O107 O 0.35478 0.42597 0.59879 0.0
C108 C 0.36833 0.45366 0.67205 0.0
C109 C 0.44446 0.49332 0.64939 0.0
O110 O 0.40112 0.37406 0.63414 0.0
O111 O 0.43785 0.39889 0.60897 0.0
O112 O 0.39386 0.43076 0.67044 0.0
O113 O 0.35739 0.46047 0.64913 0.0
O114 O 0.44375 0.46079 0.63964 0.0
O115 O 0.41616 0.51457 0.64887 0.0
C116 C 0.34226 0.57244 0.63418 0.0
O117 O 0.3665 0.56318 0.61766 0.0
O118 O 0.33156 0.54448 0.64684 0.0
C119 C 0.39973 0.4879 0.58366 0.0
Tb120 Tb 0.76002 0.11894 0.37756 0.0
C121 C 0.81808 0.08213 0.34225 0.0
Tb122 Tb 0.83466 0.15004 0.37731 0.0
O123 O 0.75277 0.12709 0.33591 0.0
O124 O 0.7862 0.16015 0.35706 0.0
O125 O 0.7874 0.07779 0.3548 0.0
C126 C 0.89739 0.18216 0.36852 0.0
O127 O 0.84004 0.10868 0.34767 0.0
C128 C 0.81398 0.12138 0.42227 0.0
C129 C 0.77388 0.19637 0.40059 0.0
O130 O 0.86709 0.19138 0.35858 0.0
O131 O 0.89251 0.15416 0.383 0.0
O132 O 0.83694 0.14678 0.42012 0.0
O133 O 0.80661 0.11039 0.39951 0.0
O134 O 0.80538 0.19647 0.38915 0.0
O135 O 0.75366 0.16736 0.40157 0.0
C136 C 0.69549 0.09291 0.38777 0.0
O137 O 0.7029 0.12582 0.38308 0.0
O138 O 0.72459 0.0745 0.38732 0.0
C139 C 0.77585 0.15245 0.33428 0.0
Tb140 Tb 0.14503 0.50572 0.12765 0.0
C141 C 0.17895 0.56536 0.09034 0.0
Tb142 Tb 0.11407 0.58132 0.12843 0.0
O143 O 0.09856 0.48412 0.1095 0.0
O144 O 0.11321 0.53715 0.10208 0.0
O145 O 0.18145 0.5329 0.10055 0.0
C146 C 0.08046 0.6432 0.11988 0.0
O147 O 0.15494 0.58878 0.09845 0.0
C148 C 0.14528 0.56138 0.1727 0.0
C149 C 0.07166 0.51982 0.15561 0.0
O150 O 0.11208 0.63971 0.12986 0.0
O151 O 0.06826 0.61186 0.11426 0.0
O152 O 0.12155 0.58603 0.17092 0.0
O153 O 0.15412 0.5525 0.14962 0.0
O154 O 0.06995 0.55075 0.14331 0.0
O155 O 0.10083 0.49969 0.15563 0.0
C156 C 0.18243 0.44514 0.12679 0.0
O157 O 0.17843 0.46552 0.14701 0.0
O158 O 0.16622 0.45935 0.10707 0.0
C159 C 0.08961 0.51366 0.09836 0.0
Tb160 Tb 0.82816 0.65539 0.66689 0.0
C161 C 0.76564 0.69595 0.63999 0.0
Tb162 Tb 0.75416 0.62167 0.66734 0.0
O163 O 0.83143 0.64852 0.62438 0.0
O164 O 0.80164 0.61317 0.64631 0.0
O165 O 0.79636 0.69898 0.65236 0.0
C166 C 0.69446 0.58381 0.66434 0.0
O167 O 0.74721 0.66578 0.63951 0.0
C168 C 0.75979 0.67703 0.69726 0.0
C169 C 0.81418 0.58907 0.70444 0.0
O170 O 0.71324 0.59413 0.64437 0.0
O171 O 0.71 0.59383 0.68572 0.0
O172 O 0.73044 0.66661 0.68665 0.0
O173 O 0.78399 0.65448 0.69305 0.0
O174 O 0.7822 0.58497 0.69374 0.0
O175 O 0.83635 0.6147 0.69702 0.0
C176 C 0.88977 0.68925 0.67532 0.0
O177 O 0.88641 0.65792 0.66489 0.0
O178 O 0.85846 0.70105 0.68144 0.0
C179 C 0.8094 0.62225 0.62316 0.0
Tb180 Tb 0.11244 0.08274 0.91759 0.0
C181 C 0.07181 0.0204 0.89054 0.0
Tb182 Tb 0.14679 0.00898 0.9165 0.0
O183 O 0.11796 0.08746 0.87511 0.0
O184 O 0.15414 0.05703 0.89578 0.0
O185 O 0.06881 0.05074 0.90341 0.0
C186 C 0.18493 0.94939 0.91385 0.0
O187 O 0.10213 1.00228 0.88926 0.0
C188 C 0.09226 0.01345 0.9474 0.0
C189 C 0.17943 0.068 0.9542 0.0
O190 O 0.17479 0.96517 0.93508 0.0
O191 O 0.1746 0.96793 0.89371 0.0
O192 O 0.10251 0.98449 0.93615 0.0
O193 O 0.11449 0.03792 0.94312 0.0
O194 O 0.18402 0.03677 0.9425 0.0
O195 O 0.15323 0.09003 0.94772 0.0
C196 C 0.07869 0.14421 0.92677 0.0
O197 O 0.11009 0.14104 0.91642 0.0
O198 O 0.06677 0.11276 0.93247 0.0
C199 C 0.14411 0.06547 0.87295 0.0
Tb200 Tb 0.6865 0.36216 0.16746 0.0
C201 C 0.749 0.32116 0.14077 0.0
Tb202 Tb 0.7607 0.3955 0.16764 0.0
O203 O 0.68273 0.36869 0.125 0.0
O204 O 0.71327 0.404 0.14638 0.0
O205 O 0.71826 0.3184 0.15318 0.0
C206 C 0.821 0.43275 0.16676 0.0
O207 O 0.76754 0.35128 0.14001 0.0
C208 C 0.75461 0.3404 0.19787 0.0
C209 C 0.701 0.42838 0.20478 0.0
O210 O 0.80259 0.42413 0.14614 0.0
O211 O 0.80472 0.42146 0.18747 0.0
O212 O 0.78392 0.35024 0.18692 0.0
O213 O 0.73064 0.36318 0.19361 0.0
O214 O 0.73273 0.43255 0.19372 0.0
O215 O 0.67873 0.40272 0.19765 0.0
C216 C 0.62485 0.32829 0.17605 0.0
O217 O 0.62819 0.35979 0.16583 0.0
O218 O 0.65622 0.31634 0.1819 0.0
C219 C 0.70515 0.39457 0.12336 0.0
Tb220 Tb 0.40001 0.93078 0.41818 0.0
C221 C 0.44849 0.99269 0.39841 0.0
Tb222 Tb 0.37085 1.00648 0.42011 0.0
O223 O 0.39782 0.93105 0.37542 0.0
O224 O 0.36152 0.96136 0.39641 0.0
O225 O 0.44753 0.96063 0.4091 0.0
C226 C 0.34566 0.07196 0.41187 0.0
O227 O 0.41966 0.01298 0.39649 0.0
C228 C 0.4038 0.98643 0.46304 0.0
C229 C 0.33211 0.94753 0.45342 0.0
O230 O 0.37849 0.06388 0.41625 0.0
O231 O 0.32692 0.04307 0.4115 0.0
O232 O 0.37977 0.01101 0.4622 0.0
O233 O 0.41055 0.97757 0.43984 0.0
O234 O 0.32873 0.97891 0.44168 0.0
O235 O 0.35802 0.92501 0.44747 0.0
C236 C 0.43061 0.8669 0.42546 0.0
O237 O 0.4032 0.87315 0.4107 0.0
O238 O 0.44007 0.8964 0.43642 0.0
C239 C 0.37306 0.95475 0.37362 0.0
Tb240 Tb 0.25771 0.39441 0.37867 0.0
C241 C 0.19948 0.43353 0.3433 0.0
Tb242 Tb 0.18267 0.36467 0.37695 0.0
O243 O 0.27987 0.35045 0.35771 0.0
O244 O 0.22703 0.36555 0.35068 0.0
O245 O 0.23174 0.43442 0.35391 0.0
C246 C 0.1204 0.33257 0.36712 0.0
O247 O 0.17567 0.40885 0.34954 0.0
C248 C 0.20226 0.39301 0.42232 0.0
C249 C 0.2431 0.31827 0.40137 0.0
O250 O 0.12434 0.3627 0.37924 0.0
O251 O 0.15146 0.32121 0.36001 0.0
O252 O 0.1796 0.36747 0.4198 0.0
O253 O 0.21049 0.40384 0.39971 0.0
O254 O 0.21259 0.31843 0.38857 0.0
O255 O 0.26231 0.34765 0.4046 0.0
C256 C 0.31903 0.42975 0.38087 0.0
O257 O 0.30214 0.42087 0.35983 0.0
O258 O 0.30072 0.41972 0.40122 0.0
C259 C 0.25073 0.3426 0.34572 0.0
Tb260 Tb 0.86957 1.00676 0.12437 0.0
C261 C 0.83166 0.94584 0.09361 0.0
Tb262 Tb 0.90223 0.93286 0.12726 0.0
O263 O 0.87494 0.00733 0.08214 0.0
O264 O 0.91126 0.9797 0.10504 0.0
O265 O 0.82681 0.97682 0.10562 0.0
C266 C 0.93402 0.86945 0.12016 0.0
O267 O 0.85952 0.92524 0.09864 0.0
C268 C 0.87353 0.95572 0.1713 0.0
C269 C 0.94805 0.9969 0.14687 0.0
O270 O 0.94257 0.89897 0.10867 0.0
O271 O 0.90694 0.87551 0.13527 0.0
O272 O 0.89965 0.93348 0.1699 0.0
O273 O 0.86193 0.96142 0.14837 0.0
O274 O 0.94845 0.96377 0.13816 0.0
O275 O 0.91904 0.01705 0.1461 0.0
C276 C 0.84547 0.07328 0.12953 0.0
O277 O 0.86934 0.06258 0.11322 0.0
O278 O 0.83494 0.04637 0.1435 0.0
C279 C 0.90249 0.9868 0.08177 0.0
Tb280 Tb 0.25956 0.62408 0.87587 0.0
C281 C 0.31747 0.58679 0.84103 0.0
Tb282 Tb 0.33542 0.65249 0.87812 0.0
O283 O 0.25487 0.63688 0.83445 0.0
O284 O 0.28798 0.66579 0.85797 0.0
O285 O 0.2863 0.58304 0.8529 0.0
C286 C 0.39828 0.68464 0.87031 0.0
O287 O 0.34012 0.61245 0.84726 0.0
C288 C 0.31241 0.62179 0.92164 0.0
C289 C 0.27488 0.69903 0.90223 0.0
O290 O 0.36805 0.69448 0.8606 0.0
O291 O 0.3933 0.65597 0.88405 0.0
O292 O 0.33682 0.64599 0.92074 0.0
O293 O 0.30512 0.61269 0.8984 0.0
O294 O 0.30689 0.69879 0.89151 0.0
O295 O 0.25375 0.67065 0.90177 0.0
C296 C 0.19417 0.59858 0.88375 0.0
O297 O 0.20229 0.63164 0.88043 0.0
O298 O 0.22297 0.57975 0.88318 0.0
C299 C 0.27863 0.66174 0.83453 0.0
Tb300 Tb 0.64414 0.00977 0.62364 0.0
C301 C 0.68201 0.06998 0.59218 0.0
Tb302 Tb 0.61297 0.0842 0.62739 0.0
O303 O 0.63408 0.00987 0.58158 0.0
O304 O 0.60151 0.03748 0.6064 0.0
O305 O 0.68663 0.03891 0.6041 0.0
C306 C 0.5801 0.14672 0.61979 0.0
O307 O 0.65458 0.09099 0.59759 0.0
C308 C 0.64319 0.06143 0.67076 0.0
C309 C 0.56757 0.02036 0.64901 0.0
O310 O 0.60816 0.14176 0.63415 0.0
O311 O 0.57121 0.11665 0.60936 0.0
O312 O 0.61792 0.08469 0.66975 0.0
O313 O 0.65369 0.05494 0.64759 0.0
O314 O 0.56723 0.05359 0.64032 0.0
O315 O 0.59618 0.99975 0.64719 0.0
C316 C 0.66845 0.94318 0.62778 0.0
O317 O 0.64471 0.95432 0.61149 0.0
O318 O 0.67866 0.96963 0.64226 0.0
C319 C 0.60676 0.03067 0.58264 0.0
C320 C 0.25575 0.17175 0.25374 0.0
C321 C 0.27516 0.18044 0.23123 0.0
C322 C 0.24672 0.19764 0.27212 0.0
C323 C 0.25836 0.23292 0.26824 0.0
C324 C 0.27833 0.24182 0.24565 0.0
C325 C 0.28644 0.2154 0.22731 0.0
C326 C 0.22564 0.18646 0.29588 0.0
C327 C 0.29164 0.2791 0.24109 0.0
C328 C 0.22218 0.3096 0.30853 0.0
C329 C 0.24901 0.31288 0.32727 0.0
C330 C 0.2242 0.28287 0.28937 0.0
C331 C 0.25367 0.25946 0.28925 0.0
C332 C 0.27967 0.26175 0.30903 0.0
C333 C 0.27701 0.28843 0.32773 0.0
C334 C 0.19527 0.27986 0.26911 0.0
C335 C 0.31091 0.23664 0.31007 0.0
H336 H 0.24691 0.14468 0.25683 0.0
H337 H 0.30118 0.22218 0.20977 0.0
H338 H 0.24399 0.17467 0.31047 0.0
H339 H 0.21132 0.20884 0.30518 0.0
H340 H 0.20603 0.16566 0.29061 0.0
H341 H 0.30513 0.28204 0.22186 0.0
H342 H 0.26927 0.29818 0.24196 0.0
H343 H 0.31061 0.28643 0.2568 0.0
H344 H 0.20041 0.32837 0.3084 0.0
H345 H 0.29746 0.29049 0.3426 0.0
H346 H 0.18434 0.25251 0.26914 0.0
H347 H 0.20639 0.28484 0.24932 0.0
H348 H 0.17332 0.2989 0.27266 0.0
H349 H 0.3014 0.20887 0.31155 0.0
H350 H 0.32868 0.24203 0.32695 0.0
H351 H 0.32663 0.23886 0.29176 0.0
C352 C 0.41681 0.50791 0.5392 0.0
C353 C 0.42586 0.49033 0.56245 0.0
C354 C 0.44245 0.51507 0.52012 0.0
C355 C 0.47781 0.50403 0.52438 0.0
C356 C 0.487 0.48575 0.54767 0.0
C357 C 0.4608 0.47905 0.56648 0.0
C358 C 0.43179 0.53458 0.49548 0.0
C359 C 0.52444 0.47322 0.55267 0.0
C360 C 0.53432 0.48453 0.46546 0.0
C361 C 0.55782 0.51332 0.46537 0.0
C362 C 0.5079 0.48156 0.48439 0.0
C363 C 0.50441 0.5085 0.50339 0.0
C364 C 0.5268 0.53873 0.5026 0.0
C365 C 0.55358 0.54075 0.4835 0.0
C366 C 0.48478 0.44878 0.48474 0.0
C367 C 0.52325 0.56815 0.52243 0.0
H368 H 0.38977 0.51677 0.53615 0.0
H369 H 0.46785 0.46571 0.58457 0.0
H370 H 0.44708 0.55963 0.49384 0.0
H371 H 0.43823 0.51838 0.47802 0.0
H372 H 0.40304 0.54099 0.49508 0.0
H373 H 0.52736 0.46033 0.57214 0.0
H374 H 0.53243 0.45399 0.53733 0.0
H375 H 0.54308 0.49594 0.55158 0.0
H376 H 0.5373 0.46351 0.45114 0.0
H377 H 0.57176 0.56303 0.48328 0.0
H378 H 0.45635 0.4563 0.48467 0.0
H379 H 0.4897 0.43353 0.50299 0.0
H380 H 0.48991 0.4311 0.46777 0.0
H381 H 0.49534 0.57733 0.52349 0.0
H382 H 0.5405 0.59118 0.51768 0.0
H383 H 0.53056 0.55808 0.54213 0.0
C384 C 0.21801 0.80352 0.72963 0.0
C385 C 0.23272 0.83704 0.73425 0.0
C386 C 0.22422 0.7754 0.74697 0.0
C387 C 0.24589 0.78107 0.7692 0.0
C388 C 0.25921 0.81535 0.77468 0.0
C389 C 0.25222 0.84307 0.75716 0.0
C390 C 0.20886 0.73934 0.74088 0.0
C391 C 0.28235 0.82232 0.79827 0.0
C392 C 0.24284 0.71423 0.82425 0.0
C393 C 0.27204 0.69282 0.81827 0.0
C394 C 0.23411 0.74325 0.8085 0.0
C395 C 0.25534 0.75095 0.7864 0.0
C396 C 0.28539 0.7297 0.78061 0.0
C397 C 0.29335 0.70053 0.79668 0.0
C398 C 0.20161 0.7649 0.81508 0.0
C399 C 0.30885 0.7376 0.75735 0.0
H400 H 0.20295 0.79884 0.7119 0.0
H401 H 0.26355 0.86905 0.76077 0.0
H402 H 0.23055 0.72071 0.73577 0.0
H403 H 0.1951 0.72841 0.75833 0.0
H404 H 0.18982 0.74025 0.72429 0.0
H405 H 0.27 0.81136 0.81625 0.0
H406 H 0.30821 0.80873 0.79565 0.0
H407 H 0.28734 0.85108 0.80125 0.0
H408 H 0.22649 0.70782 0.84109 0.0
H409 H 0.31588 0.68367 0.79232 0.0
H410 H 0.18072 0.7598 0.80024 0.0
H411 H 0.20765 0.79368 0.81447 0.0
H412 H 0.19081 0.75827 0.83474 0.0
H413 H 0.29334 0.7352 0.73897 0.0
H414 H 0.33195 0.71937 0.75622 0.0
H415 H 0.31872 0.76529 0.75846 0.0
C416 C 0.96127 0.47768 0.98122 0.0
C417 C 0.92729 0.49209 0.98384 0.0
C418 C 0.98721 0.48391 1.00029 0.0
C419 C 0.9786 0.50473 0.02247 0.0
C420 C 0.94395 0.51833 0.0256 0.0
C421 C 0.91861 0.51172 1.00624 0.0
C422 C 0.02378 0.46835 0.99669 0.0
C423 C 0.9338 0.54013 0.04925 0.0
C424 C 0.03386 0.48819 0.0825 0.0
C425 C 0.05877 0.51571 0.08104 0.0
C426 C 0.00728 0.48473 0.06374 0.0
C427 C 1.00511 0.50997 0.04338 0.0
C428 C 0.02886 0.53913 0.04263 0.0
C429 C 0.05572 0.54167 0.06161 0.0
C430 C 0.98276 0.45302 0.06497 0.0
C431 C 0.02685 0.56661 1.02116 0.0
H432 H 0.96783 0.46229 0.96398 0.0
H433 H 0.89221 0.52274 1.00831 0.0
H434 H 0.04404 0.48965 0.99756 0.0
H435 H 0.02962 0.44951 1.01283 0.0
H436 H 0.02653 0.45409 0.97776 0.0
H437 H 0.90556 0.5485 0.04879 0.0
H438 H 0.93846 0.52468 0.06743 0.0
H439 H 0.95072 0.56416 0.05032 0.0
H440 H 0.036 0.46833 0.09782 0.0
H441 H 0.07507 0.5629 0.0606 0.0
H442 H 0.98727 0.4358 0.04769 0.0
H443 H 0.95468 0.46173 0.06429 0.0
H444 H 0.9869 0.43684 0.08291 0.0
H445 H 0.03331 0.55411 1.00207 0.0
H446 H 0.04548 0.58898 0.0245 0.0
H447 H 0.99951 0.57729 1.01965 0.0
C448 C 0.75852 0.85187 0.7861 0.0
C449 C 0.7393 0.84316 0.80871 0.0
C450 C 0.76458 0.82656 0.76659 0.0
C451 C 0.75098 0.79191 0.76987 0.0
C452 C 0.73044 0.78336 0.79223 0.0
C453 C 0.72466 0.80927 0.81136 0.0
C454 C 0.7862 0.83664 0.74281 0.0
C455 C 0.71472 0.74685 0.796 0.0
C456 C 0.73397 0.73348 0.7116 0.0
C457 C 0.76168 0.70886 0.71358 0.0
C458 C 0.73103 0.76151 0.72923 0.0
C459 C 0.75652 0.76496 0.7493 0.0
C460 C 0.78575 0.74133 0.75057 0.0
C461 C 0.78809 0.71337 0.73248 0.0
C462 C 0.69955 0.78621 0.72722 0.0
C463 C 0.81335 0.74447 0.77183 0.0
H464 H 0.76979 0.87819 0.78401 0.0
H465 H 0.70955 0.80267 0.82874 0.0
H466 H 0.81174 0.82202 0.74312 0.0
H467 H 0.77215 0.82897 0.7246 0.0
H468 H 0.79194 0.86553 0.74205 0.0
H469 H 0.70228 0.74362 0.81559 0.0
H470 H 0.69424 0.74199 0.78083 0.0
H471 H 0.73545 0.72623 0.79361 0.0
H472 H 0.71369 0.73012 0.69676 0.0
H473 H 0.80946 0.69423 0.73389 0.0
H474 H 0.70832 0.81428 0.72789 0.0
H475 H 0.68164 0.78187 0.74415 0.0
H476 H 0.68413 0.78195 0.70896 0.0
H477 H 0.82377 0.77197 0.77269 0.0
H478 H 0.83587 0.72593 0.7688 0.0
H479 H 0.80104 0.73861 0.79111 0.0
C480 C 0.78101 0.28534 0.21441 0.0
C481 C 0.75282 0.30951 0.21517 0.0
C482 C 0.78387 0.25832 0.23291 0.0
C483 C 0.75766 0.25529 0.25252 0.0
C484 C 0.72793 0.27834 0.25252 0.0
C485 C 0.72584 0.30545 0.23368 0.0
C486 C 0.81587 0.23416 0.23221 0.0
C487 C 0.69925 0.27526 0.273 0.0
C488 C 0.75652 0.16864 0.28959 0.0
C489 C 0.77454 0.17789 0.31259 0.0
C490 C 0.75023 0.19381 0.27001 0.0
C491 C 0.76255 0.22886 0.27356 0.0
C492 C 0.78161 0.23813 0.29646 0.0
C493 C 0.78743 0.2124 0.31579 0.0
C494 C 0.72989 0.18307 0.24578 0.0
C495 C 0.7956 0.27524 0.30061 0.0
H496 H 0.80169 0.28829 0.19981 0.0
H497 H 0.70403 0.32419 0.2341 0.0
H498 H 0.80749 0.20596 0.23248 0.0
H499 H 0.83259 0.23869 0.21461 0.0
H500 H 0.83237 0.23867 0.24989 0.0
H501 H 0.67644 0.29305 0.26885 0.0
H502 H 0.68951 0.24753 0.27418 0.0
H503 H 0.71027 0.28218 0.29249 0.0
H504 H 0.74653 0.14187 0.28717 0.0
H505 H 0.80118 0.21954 0.33367 0.0
H506 H 0.74509 0.18998 0.2279 0.0
H507 H 0.70451 0.19792 0.24491 0.0
H508 H 0.72394 0.15421 0.24541 0.0
H509 H 0.81416 0.28237 0.28458 0.0
H510 H 0.80966 0.2781 0.31962 0.0
H511 H 0.77341 0.29455 0.30004 0.0
C512 C 0.96314 0.97767 0.06401 0.0
C513 C 0.92822 0.98913 0.06031 0.0
C514 C 0.98911 0.98459 0.0451 0.0
C515 C 0.97971 1.00337 0.02207 0.0
C516 C 0.9443 0.01437 1.01803 0.0
C517 C 0.91889 0.00694 0.0372 0.0
C518 C 0.02659 0.97193 0.04978 0.0
C519 C 0.93342 0.03472 0.99382 0.0
C520 C 0.05614 0.04163 0.98283 0.0
C521 C 0.06121 0.01453 0.96455 0.0
C522 C 0.02869 0.03909 1.00135 0.0
C523 C 1.00637 0.00881 1.00129 0.0
C524 C 0.01043 0.98247 0.9819 0.0
C525 C 0.03775 0.98575 0.96372 0.0
C526 C 0.02441 0.06797 0.02154 0.0
C527 C 0.98691 0.94999 0.98105 0.0
H528 H 0.97037 0.96409 0.08197 0.0
H529 H 0.89186 0.01601 0.03441 0.0
H530 H 0.0346 0.95338 0.03399 0.0
H531 H 0.04516 0.99475 0.0492 0.0
H532 H 0.02958 0.95823 0.06893 0.0
H533 H 0.90415 0.03691 0.99196 0.0
H534 H 0.94472 0.06187 0.99472 0.0
H535 H 0.94402 0.02197 0.97591 0.0
H536 H 0.07429 0.06392 0.98327 0.0
H537 H 0.04143 0.96499 0.9493 0.0
H538 H 0.03082 0.05732 0.04125 0.0
H539 H 0.99648 0.0772 0.02207 0.0
H540 H 0.04192 0.09106 1.01755 0.0
H541 H 0.99101 0.93391 0.99902 0.0
H542 H 0.99243 0.93302 0.96375 0.0
H543 H 0.95859 0.9579 0.98058 0.0
C544 C 0.4619 0.96633 0.48063 0.0
C545 C 0.43024 0.98512 0.48412 0.0
C546 C 0.4903 0.97088 0.49796 0.0
C547 C 0.48671 0.99486 0.51908 0.0
C548 C 0.45389 0.01184 0.52379 0.0
C549 C 0.42588 1.00657 0.50626 0.0
C550 C 0.52436 0.95082 0.49324 0.0
C551 C 0.44898 0.03701 0.5465 0.0
C552 C 0.55412 0.99441 0.57375 0.0
C553 C 0.57645 0.02222 0.56611 0.0
C554 C 0.52481 0.98498 0.55855 0.0
C555 C 0.51786 1.00402 0.53527 0.0
C556 C 0.54052 0.0322 0.52747 0.0
C557 C 0.56985 0.04094 0.54306 0.0
C558 C 0.50179 0.95435 0.56722 0.0
C559 C 0.53361 0.05313 0.50275 0.0
H560 H 0.46511 0.94941 0.46369 0.0
H561 H 0.40118 0.02077 0.50915 0.0
H562 H 0.54748 0.96899 0.49385 0.0
H563 H 0.52809 0.93094 0.50904 0.0
H564 H 0.5243 0.93674 0.47413 0.0
H565 H 0.42107 0.04608 0.54846 0.0
H566 H 0.4571 0.0241 0.5651 0.0
H567 H 0.46619 0.06059 0.54373 0.0
H568 H 0.55982 0.97985 0.5916 0.0
H569 H 0.58744 0.06237 0.53739 0.0
H570 H 0.50632 0.93142 0.55405 0.0
H571 H 0.47328 0.96134 0.5659 0.0
H572 H 0.50777 0.94593 0.5876 0.0
H573 H 0.53169 0.03499 0.48572 0.0
H574 H 0.55469 0.07301 0.49879 0.0
H575 H 0.50782 0.06713 0.50442 0.0
C576 C 0.18961 0.10161 0.99615 0.0
C577 C 0.20151 0.07655 0.97776 0.0
C578 C 0.20779 0.10735 1.0199 0.0
C579 C 0.23921 0.0881 0.02545 0.0
C580 C 0.25179 0.06326 1.00677 0.0
C581 C 0.23268 0.05755 0.98335 0.0
C582 C 0.19303 0.13373 0.03928 0.0
C583 C 0.28547 0.04262 1.01154 0.0
C584 C 0.3027 0.12986 0.07494 0.0
C585 C 0.29595 0.11035 0.09787 0.0
C586 C 0.28506 0.12238 0.05128 0.0
C587 C 0.25943 0.09494 0.05036 0.0
C588 C 0.25277 0.07478 0.07339 0.0
C589 C 0.27151 0.08237 0.09671 0.0
C590 C 0.29361 0.14425 0.02729 0.0
C591 C 0.22536 0.04563 0.07352 0.0
H592 H 0.16532 0.11612 0.99238 0.0
H593 H 0.24213 0.03802 0.96945 0.0
H594 H 0.18809 0.12045 0.05834 0.0
H595 H 0.21261 0.15515 0.04282 0.0
H596 H 0.16788 0.14593 0.0324 0.0
H597 H 0.292 0.0246 0.99504 0.0
H598 H 0.30795 0.06118 1.01451 0.0
H599 H 0.28288 0.0266 0.02968 0.0
H600 H 0.32174 0.15139 0.07548 0.0
H601 H 0.26703 0.06642 0.11402 0.0
H602 H 0.26976 0.1592 1.02098 0.0
H603 H 0.30133 0.12664 1.01085 0.0
H604 H 0.31544 0.16344 0.03085 0.0
H605 H 0.19892 0.05686 0.06879 0.0
H606 H 0.22371 0.03197 0.09278 0.0
H607 H 0.23164 0.02573 0.05823 0.0
C608 C 0.6368 0.55147 0.32511 0.0
C609 C 0.6547 0.5433 0.34848 0.0
C610 C 0.64496 0.53422 0.30142 0.0
C611 C 0.67145 0.50756 0.30091 0.0
C612 C 0.69001 0.4995 0.32441 0.0
C613 C 0.68181 0.51787 0.34777 0.0
C614 C 0.62479 0.54422 0.27695 0.0
C615 C 0.71806 0.47097 0.325 0.0
C616 C 0.66535 0.43906 0.24578 0.0
C617 C 0.69188 0.45035 0.22829 0.0
C618 C 0.65885 0.45706 0.2695 0.0
C619 C 0.67887 0.48766 0.27595 0.0
C620 C 0.70521 0.49965 0.25817 0.0
C621 C 0.7116 0.48075 0.23476 0.0
C622 C 0.63083 0.44293 0.28789 0.0
C623 C 0.72677 0.53245 0.26392 0.0
H624 H 0.61597 0.57128 0.32535 0.0
H625 H 0.69647 0.51217 0.36551 0.0
H626 H 0.64357 0.55161 0.26112 0.0
H627 H 0.60926 0.52114 0.26991 0.0
H628 H 0.60632 0.56673 0.28026 0.0
H629 H 0.73008 0.46782 0.34474 0.0
H630 H 0.70631 0.44522 0.31905 0.0
H631 H 0.73936 0.47729 0.31076 0.0
H632 H 0.65021 0.41538 0.24134 0.0
H633 H 0.73225 0.48974 0.22157 0.0
H634 H 0.61002 0.46329 0.29104 0.0
H635 H 0.6428 0.43703 0.30727 0.0
H636 H 0.61804 0.41844 0.28035 0.0
H637 H 0.70889 0.55553 0.26666 0.0
H638 H 0.74585 0.53871 0.24799 0.0
H639 H 0.74173 0.52886 0.28243 0.0
C640 C 0.2117 0.88782 0.57593 0.0
C641 C 0.22019 0.90612 0.59906 0.0
C642 C 0.22802 0.89602 0.55192 0.0
C643 C 0.25419 0.92291 0.55079 0.0
C644 C 0.26253 0.94199 0.57399 0.0
C645 C 0.24499 0.93376 0.59773 0.0
C646 C 0.2177 0.87529 0.52779 0.0
C647 C 0.29064 0.97047 0.57388 0.0
C648 C 0.32159 0.91405 0.4953 0.0
C649 C 0.31005 0.93966 0.47712 0.0
C650 C 0.30418 0.90901 0.51941 0.0
C651 C 0.27385 0.92951 0.52561 0.0
C652 C 0.26157 0.95495 0.50719 0.0
C653 C 0.27999 0.95998 0.48336 0.0
C654 C 0.31862 0.88193 0.53846 0.0
C655 C 0.22896 0.97689 0.51268 0.0
H656 H 0.19231 0.8666 0.57659 0.0
H657 H 0.25082 0.94882 0.61521 0.0
H658 H 0.21027 0.89369 0.51171 0.0
H659 H 0.24063 0.85944 0.52088 0.0
H660 H 0.19515 0.857 0.53149 0.0
H661 H 0.29323 0.98371 0.59322 0.0
H662 H 0.31663 0.95867 0.56862 0.0
H663 H 0.2844 0.99081 0.55885 0.0
H664 H 0.3451 0.89853 0.4911 0.0
H665 H 0.27093 0.98003 0.46967 0.0
H666 H 0.2985 0.86103 0.54212 0.0
H667 H 0.32441 0.89475 0.55754 0.0
H668 H 0.34323 0.86907 0.5312 0.0
H669 H 0.20584 0.95922 0.51595 0.0
H670 H 0.22264 0.9954 0.49638 0.0
H671 H 0.2328 0.99252 0.53085 0.0
C672 C 0.80308 0.53767 0.73537 0.0
C673 C 0.824 0.56677 0.72771 0.0
C674 C 0.81027 0.51863 0.75862 0.0
C675 C 0.83881 0.52906 0.77501 0.0
C676 C 0.86021 0.55817 0.76727 0.0
C677 C 0.85273 0.57642 0.74377 0.0
C678 C 0.78706 0.48748 0.76579 0.0
C679 C 0.89068 0.57056 0.78413 0.0
C680 C 0.83845 0.5014 0.84742 0.0
C681 C 0.86334 0.47378 0.84779 0.0
C682 C 0.83023 0.51965 0.82401 0.0
C683 C 0.84657 0.50945 0.8001 0.0
C684 C 0.87101 0.48088 0.80031 0.0
C685 C 0.87928 0.46369 0.82408 0.0
C686 C 0.80447 0.55026 0.82494 0.0
C687 C 0.88875 0.46862 0.77541 0.0
H688 H 0.78076 0.5299 0.72329 0.0
H689 H 0.86897 0.599 0.73839 0.0
H690 H 0.80356 0.46336 0.76843 0.0
H691 H 0.77358 0.49266 0.78471 0.0
H692 H 0.7666 0.482 0.75068 0.0
H693 H 0.90476 0.59367 0.7755 0.0
H694 H 0.88075 0.57808 0.80382 0.0
H695 H 0.91001 0.5487 0.78692 0.0
H696 H 0.82567 0.50903 0.86549 0.0
H697 H 0.89845 0.44226 0.82408 0.0
H698 H 0.78153 0.5448 0.81197 0.0
H699 H 0.81747 0.57472 0.81756 0.0
H700 H 0.79452 0.55534 0.84508 0.0
H701 H 0.86844 0.46195 0.76048 0.0
H702 H 0.90588 0.44503 0.77861 0.0
H703 H 0.90528 0.49031 0.76724 0.0
C704 C 0.82093 0.91065 0.05255 0.0
C705 C 0.80951 0.93703 0.07011 0.0
C706 C 0.80402 0.90526 0.02829 0.0
C707 C 0.77433 0.92626 1.02129 0.0
C708 C 0.76195 0.95225 0.03917 0.0
C709 C 0.77981 0.95754 0.0632 0.0
C710 C 0.81846 0.87746 1.00987 0.0
C711 C 0.73001 0.97476 0.0328 0.0
C712 C 0.74928 0.93076 0.94842 0.0
C713 C 0.72367 0.90394 0.94654 0.0
C714 C 0.76581 0.93866 0.97259 0.0
C715 C 0.75575 0.91997 0.99563 0.0
C716 C 0.72892 0.8938 0.9939 0.0
C717 C 0.71353 0.88596 0.96948 0.0
C718 C 0.79464 0.96639 0.97336 0.0
C719 C 0.71687 0.87348 1.01781 0.0
H720 H 0.84405 0.89483 0.05729 0.0
H721 H 0.7708 0.97816 0.07638 0.0
H722 H 0.79782 0.85726 1.00574 0.0
H723 H 0.82574 0.88989 0.99091 0.0
H724 H 0.84218 0.8638 1.01793 0.0
H725 H 0.72312 0.99323 0.04896 0.0
H726 H 0.73513 0.99051 1.01483 0.0
H727 H 0.70679 0.95754 0.02876 0.0
H728 H 0.75666 0.94532 0.931 0.0
H729 H 0.69356 0.86534 0.96837 0.0
H730 H 0.81989 0.95411 0.97988 0.0
H731 H 0.78782 0.98729 0.98778 0.0
H732 H 0.79899 0.97902 0.95395 0.0
H733 H 0.73904 0.85711 0.02543 0.0
H734 H 0.69408 0.85572 1.01355 0.0
H735 H 0.70909 0.89214 0.03358 0.0
C736 C 0.30597 0.53368 0.81202 0.0
C737 C 0.32529 0.56467 0.81742 0.0
C738 C 0.31118 0.51463 0.78853 0.0
C739 C 0.33577 0.52718 0.76963 0.0
C740 C 0.35524 0.55849 0.77497 0.0
C741 C 0.35004 0.57657 0.79878 0.0
C742 C 0.29035 0.48103 0.78393 0.0
C743 C 0.38134 0.57323 0.75533 0.0
C744 C 0.37749 0.46438 0.71983 0.0
C745 C 0.35801 0.47147 0.69697 0.0
C746 C 0.36986 0.48152 0.74362 0.0
C747 C 0.3423 0.507 0.74472 0.0
C748 C 0.32208 0.51391 0.72179 0.0
C749 C 0.32981 0.49562 0.69832 0.0
C750 C 0.39178 0.47275 0.76753 0.0
C751 C 0.29282 0.5412 0.72187 0.0
H752 H 0.28664 0.5243 0.82613 0.0
H753 H 0.36474 0.60078 0.80239 0.0
H754 H 0.27417 0.48367 0.76589 0.0
H755 H 0.30878 0.45846 0.78089 0.0
H756 H 0.27248 0.47458 0.80057 0.0
H757 H 0.39358 0.59845 0.76202 0.0
H758 H 0.40275 0.55368 0.7517 0.0
H759 H 0.36783 0.57808 0.73634 0.0
H760 H 0.39916 0.44551 0.71912 0.0
H761 H 0.31385 0.50027 0.68106 0.0
H762 H 0.37424 0.46514 0.78405 0.0
H763 H 0.40697 0.49649 0.77376 0.0
H764 H 0.41078 0.45078 0.76388 0.0
H765 H 0.27315 0.53484 0.73733 0.0
H766 H 0.27892 0.54282 0.70272 0.0
H767 H 0.30401 0.56769 0.7265 0.0
C768 C 0.76765 0.08789 0.44834 0.0
C769 C 0.79625 0.11162 0.44741 0.0
C770 C 0.74978 0.08073 0.4721 0.0
C771 C 0.76117 0.09716 0.49568 0.0
C772 C 0.79062 0.12048 0.49486 0.0
C773 C 0.80756 0.12753 0.47083 0.0
C774 C 0.71831 0.056 0.47189 0.0
C775 C 0.804 0.13845 0.51936 0.0
C776 C 0.69574 0.10744 0.5525 0.0
C777 C 0.70485 0.079 0.56906 0.0
C778 C 0.71369 0.11351 0.52869 0.0
C779 C 0.74187 0.09087 0.52108 0.0
C780 C 0.75187 0.06269 0.53799 0.0
C781 C 0.73323 0.05702 0.56162 0.0
C782 C 0.70194 0.14381 0.51136 0.0
C783 C 0.78199 0.03815 0.53091 0.0
H784 H 0.75899 0.07524 0.43047 0.0
H785 H 0.8297 0.14585 0.47039 0.0
H786 H 0.72315 0.03338 0.48534 0.0
H787 H 0.69442 0.07012 0.47911 0.0
H788 H 0.71263 0.04547 0.45201 0.0
H789 H 0.82806 0.15471 0.51567 0.0
H790 H 0.78304 0.1559 0.5275 0.0
H791 H 0.81032 0.11832 0.53453 0.0
H792 H 0.67373 0.12451 0.55771 0.0
H793 H 0.74052 0.03484 0.57402 0.0
H794 H 0.69348 0.13344 0.49201 0.0
H795 H 0.72441 0.1622 0.50785 0.0
H796 H 0.67963 0.15906 0.52001 0.0
H797 H 0.77582 0.02419 0.51234 0.0
H798 H 0.78716 0.01804 0.54637 0.0
H799 H 0.80658 0.05368 0.52761 0.0
C800 C 0.1566 0.46273 0.31194 0.0
C801 C 0.19145 0.45823 0.32109 0.0
C802 C 0.14936 0.48223 0.28892 0.0
C803 C 0.17766 0.49707 0.27423 0.0
C804 C 0.21278 0.49348 0.28377 0.0
C805 C 0.21919 0.47449 0.30711 0.0
C806 C 0.11144 0.4859 0.27987 0.0
C807 C 0.24386 0.50824 0.26864 0.0
C808 C 0.16195 0.5088 0.20076 0.0
C809 C 0.15639 0.54528 0.19821 0.0
C810 C 0.16968 0.49297 0.22509 0.0
C811 C 0.17081 0.51408 0.24802 0.0
C812 C 0.16467 0.55109 0.24578 0.0
C813 C 0.15751 0.56617 0.22097 0.0
C814 C 0.17585 0.45341 0.22628 0.0
C815 C 0.16493 0.57464 0.26964 0.0
H816 H 0.13491 0.45041 0.32251 0.0
H817 H 0.24628 0.47099 0.31371 0.0
H818 H 0.10529 0.51409 0.27554 0.0
H819 H 0.10756 0.47076 0.26148 0.0
H820 H 0.09226 0.47597 0.29468 0.0
H821 H 0.26929 0.5052 0.2794 0.0
H822 H 0.24612 0.4943 0.24958 0.0
H823 H 0.23966 0.53678 0.26433 0.0
H824 H 0.1582 0.49227 0.18406 0.0
H825 H 0.15237 0.59439 0.21941 0.0
H826 H 0.15514 0.44068 0.23852 0.0
H827 H 0.20184 0.44777 0.23559 0.0
H828 H 0.17542 0.44097 0.20657 0.0
H829 H 0.14406 0.56588 0.28355 0.0
H830 H 0.1603 0.60295 0.26464 0.0
H831 H 0.19073 0.57235 0.27994 0.0
C832 C 0.76705 0.58293 0.59788 0.0
C833 C 0.79202 0.61047 0.59838 0.0
C834 C 0.7488 0.57414 0.57458 0.0
C835 C 0.75663 0.59248 0.55094 0.0
C836 C 0.78301 0.61924 0.5512 0.0
C837 C 0.80006 0.62804 0.57484 0.0
C838 C 0.72053 0.54584 0.57542 0.0
C839 C 0.79281 0.63914 0.52655 0.0
C840 C 0.72926 0.55236 0.4849 0.0
C841 C 0.69901 0.57235 0.47849 0.0
C842 C 0.74826 0.55857 0.50831 0.0
C843 C 0.73645 0.5849 0.52613 0.0
C844 C 0.70589 0.60504 0.51978 0.0
C845 C 0.68785 0.59878 0.49606 0.0
C846 C 0.78107 0.53694 0.51395 0.0
C847 C 0.69192 0.63301 0.53825 0.0
H848 H 0.76155 0.56846 0.61574 0.0
H849 H 0.81956 0.64916 0.5749 0.0
H850 H 0.69459 0.55744 0.56974 0.0
H851 H 0.7267 0.52463 0.56109 0.0
H852 H 0.71786 0.53374 0.59517 0.0
H853 H 0.81545 0.65753 0.52963 0.0
H854 H 0.79989 0.6202 0.51078 0.0
H855 H 0.76973 0.65476 0.51958 0.0
H856 H 0.7381 0.53177 0.47163 0.0
H857 H 0.66425 0.61409 0.49167 0.0
H858 H 0.77771 0.52214 0.53257 0.0
H859 H 0.80422 0.55479 0.51643 0.0
H860 H 0.78703 0.51771 0.49808 0.0
H861 H 0.68649 0.62106 0.55772 0.0
H862 H 0.66719 0.64559 0.53092 0.0
H863 H 0.71216 0.65399 0.54113 0.0
C864 C 0.13599 0.05821 0.8247 0.0
C865 C 0.15446 0.04878 0.84758 0.0
C866 C 0.14319 0.04194 0.80051 0.0
C867 C 0.16928 0.01501 0.79895 0.0
C868 C 0.18856 1.00577 0.8219 0.0
C869 C 0.18127 0.02316 0.84583 0.0
C870 C 0.12225 0.05312 0.77667 0.0
C871 C 0.21629 0.97694 0.82131 0.0
C872 C 0.15907 0.94817 0.74321 0.0
C873 C 0.18497 0.95932 0.72515 0.0
C874 C 0.15411 0.96571 0.76727 0.0
C875 C 0.17509 0.9957 0.77355 0.0
C876 C 0.20063 0.00774 0.75516 0.0
C877 C 0.20546 0.9893 0.73135 0.0
C878 C 0.12679 0.95164 0.78626 0.0
C879 C 0.22312 0.03996 0.76075 0.0
H880 H 0.11538 0.07821 0.82572 0.0
H881 H 0.19634 0.01649 0.86319 0.0
H882 H 0.1405 0.06051 0.76051 0.0
H883 H 0.10585 0.03062 0.76967 0.0
H884 H 0.10448 0.07596 0.78074 0.0
H885 H 0.22931 0.97319 0.84064 0.0
H886 H 0.20391 0.95147 0.81539 0.0
H887 H 0.23687 0.98333 0.80652 0.0
H888 H 0.14333 0.92481 0.739 0.0
H889 H 0.22571 0.99812 0.71776 0.0
H890 H 0.10662 0.97232 0.79035 0.0
H891 H 0.13966 0.9449 0.80517 0.0
H892 H 0.11306 0.92765 0.77873 0.0
H893 H 0.20588 0.06325 0.76455 0.0
H894 H 0.24129 0.04643 0.7443 0.0
H895 H 0.23916 0.03544 0.77866 0.0
C896 C 0.71134 0.38938 0.0748 0.0
C897 C 0.7216 0.40617 0.09816 0.0
C898 C 0.72732 0.39774 0.05067 0.0
C899 C 0.75482 0.42329 0.04964 0.0
C900 C 0.76487 0.44093 0.07309 0.0
C901 C 0.74778 0.43252 0.09698 0.0
C902 C 0.71527 0.3785 0.02631 0.0
C903 C 0.79432 0.46802 0.07308 0.0
C904 C 0.82073 0.41372 0.9932 0.0
C905 C 0.81013 0.44063 0.97575 0.0
C906 C 0.80339 0.40831 1.01731 0.0
C907 C 0.77412 0.42987 0.02429 0.0
C908 C 0.7627 0.45659 1.00657 0.0
C909 C 0.78096 0.46184 0.98269 0.0
C910 C 0.81683 0.37973 0.03555 0.0
C911 C 0.73126 0.47978 1.01292 0.0
H912 H 0.69092 0.36916 0.07538 0.0
H913 H 0.75516 0.4463 0.11474 0.0
H914 H 0.70834 0.39785 1.01073 0.0
H915 H 0.73717 0.36179 1.01871 0.0
H916 H 0.69192 0.36124 0.03002 0.0
H917 H 0.79847 0.48001 0.09271 0.0
H918 H 0.81946 0.45534 0.06675 0.0
H919 H 0.78836 0.48946 0.05884 0.0
H920 H 0.84345 0.39736 0.98845 0.0
H921 H 0.77259 0.48289 0.96959 0.0
H922 H 0.7957 0.35983 0.0391 0.0
H923 H 0.82386 0.39146 0.05478 0.0
H924 H 0.84049 0.36584 0.02763 0.0
H925 H 0.70746 0.46309 1.01629 0.0
H926 H 0.72534 0.49906 0.99703 0.0
H927 H 0.73633 0.49466 0.03127 0.0
C928 C 0.35821 0.06614 0.24048 0.0
C929 C 0.32836 0.05849 0.22491 0.0
C930 C 0.36402 0.04908 0.26468 0.0
C931 C 0.33967 0.02322 0.27378 0.0
C932 C 0.30997 0.01461 0.25792 0.0
C933 C 0.3046 0.03238 0.23383 0.0
C934 C 0.39603 0.05928 0.28078 0.0
C935 C 0.28355 0.98693 0.2666 0.0
C936 C 0.37533 0.95788 0.32471 0.0
C937 C 0.36216 0.9716 0.34836 0.0
C938 C 0.36739 0.97376 0.30043 0.0
C939 C 0.34602 1.00464 0.29952 0.0
C940 C 0.33225 0.01847 0.32334 0.0
C941 C 0.34025 1.00163 0.34742 0.0
C942 C 0.3825 0.95777 0.27573 0.0
C943 C 0.30973 0.05155 0.32345 0.0
H944 H 0.37676 0.08635 0.23413 0.0
H945 H 0.28129 0.0263 0.22226 0.0
H946 H 0.38743 0.06921 0.30022 0.0
H947 H 0.41295 0.03567 0.28426 0.0
H948 H 0.41233 0.08008 0.27115 0.0
H949 H 0.26228 0.98264 0.25189 0.0
H950 H 0.29726 0.96134 0.27019 0.0
H951 H 0.27116 0.99511 0.28535 0.0
H952 H 0.39222 0.93462 0.32516 0.0
H953 H 0.32993 0.01239 0.36551 0.0
H954 H 0.40106 0.9768 0.2664 0.0
H955 H 0.36095 0.95246 0.26147 0.0
H956 H 0.39696 0.93261 0.27955 0.0
H957 H 0.32513 0.07415 0.31539 0.0
H958 H 0.30051 0.05863 0.34344 0.0
H959 H 0.28626 0.04784 0.31065 0.0
C960 C 0.31501 0.41154 0.55349 0.0
C961 C 0.30495 0.43905 0.57057 0.0
C962 C 0.29749 0.40584 0.52952 0.0
C963 C 0.26853 0.42768 0.52233 0.0
C964 C 0.25747 0.45486 0.53973 0.0
C965 C 0.27595 0.46042 0.56348 0.0
C966 C 0.31058 0.37679 0.51159 0.0
C967 C 0.22632 0.47833 0.53313 0.0
C968 C 0.24422 0.43039 0.44937 0.0
C969 C 0.21787 0.40425 0.44785 0.0
C970 C 0.26061 0.43877 0.47348 0.0
C971 C 0.24964 0.42134 0.49681 0.0
C972 C 0.22193 0.39603 0.49543 0.0
C973 C 0.20668 0.38762 0.47105 0.0
C974 C 0.29038 0.46551 0.47385 0.0
C975 C 0.20893 0.37708 0.51967 0.0
H976 H 0.33753 0.39495 0.55837 0.0
H977 H 0.26797 0.48188 0.57629 0.0
H978 H 0.28907 0.35734 0.50795 0.0
H979 H 0.3182 0.38822 0.49236 0.0
H980 H 0.33379 0.36244 0.51981 0.0
H981 H 0.22021 0.49746 0.54903 0.0
H982 H 0.23191 0.49339 0.51491 0.0
H983 H 0.20246 0.46186 0.5294 0.0
H984 H 0.25237 0.44396 0.43168 0.0
H985 H 0.18611 0.36758 0.47015 0.0
H986 H 0.31518 0.45255 0.48061 0.0
H987 H 0.28427 0.48707 0.4879 0.0
H988 H 0.29523 0.47738 0.45424 0.0
H989 H 0.23031 0.35992 0.52758 0.0
H990 H 0.18533 0.36029 0.51569 0.0
H991 H 0.20205 0.39657 0.53512 0.0
C992 C 0.8789 0.96273 0.21975 0.0
C993 C 0.86151 0.97205 0.1964 0.0
C994 C 0.87 0.9785 0.24381 0.0
C995 C 0.84335 1.00491 0.24475 0.0
C996 C 0.82512 0.01401 0.22132 0.0
C997 C 0.83404 0.99706 0.19751 0.0
C998 C 0.88988 0.96745 0.26818 0.0
C999 C 0.7969 0.04238 0.22124 0.0
C1000 C 0.80527 0.0305 0.31187 0.0
C1001 C 0.82583 0.06028 0.31844 0.0
C1002 C 0.81049 0.01226 0.28801 0.0
C1003 C 0.83644 0.02437 0.26994 0.0
C1004 C 0.85719 0.0544 0.27648 0.0
C1005 C 0.85189 0.07166 0.30058 0.0
C1006 C 0.78823 0.98 0.2821 0.0
C1007 C 0.88487 0.06863 0.25783 0.0
H1008 H 0.89996 0.94318 0.21923 0.0
H1009 H 0.8198 1.00365 0.17978 0.0
H1010 H 0.90595 0.99001 0.27549 0.0
H1011 H 0.87096 0.96011 0.28392 0.0
H1012 H 0.90786 0.94462 0.26459 0.0
H1013 H 0.78436 0.0456 0.20169 0.0
H1014 H 0.77601 0.03593 0.23578 0.0
H1015 H 0.80872 0.06814 0.22709 0.0
H1016 H 0.78488 0.02155 0.3253 0.0
H1017 H 0.86769 0.09489 0.30503 0.0
H1018 H 0.80563 0.95665 0.27896 0.0
H1019 H 0.77307 0.98422 0.26374 0.0
H1020 H 0.76928 0.9738 0.29813 0.0
H1021 H 0.90558 0.04825 0.2544 0.0
H1022 H 0.89788 0.09302 0.26533 0.0
H1023 H 0.87257 0.07473 0.2386 0.0
C1024 C 0.19378 0.6048 0.05183 0.0
C1025 C 0.20103 0.57427 0.06677 0.0
C1026 C 0.2116 0.61167 0.02805 0.0
C1027 C 0.23772 0.58767 1.01884 0.0
C1028 C 0.24566 0.55716 0.03404 0.0
C1029 C 0.22721 0.55077 0.05765 0.0
C1030 C 0.20206 0.64445 1.01256 0.0
C1031 C 0.27355 0.53104 0.02525 0.0
C1032 C 0.26328 0.58986 0.94599 0.0
C1033 C 0.29378 0.61112 0.94624 0.0
C1034 C 0.24473 0.58198 0.96936 0.0
C1035 C 0.25736 0.59507 0.99373 0.0
C1036 C 0.28865 0.61587 0.99406 0.0
C1037 C 0.30623 0.62378 0.97042 0.0
C1038 C 0.21131 0.56006 0.9679 0.0
C1039 C 0.30344 0.63018 1.01942 0.0
H1040 H 0.17345 0.62308 0.05835 0.0
H1041 H 0.23308 0.52701 0.06881 0.0
H1042 H 0.22581 0.66149 1.01006 0.0
H1043 H 0.19291 0.63683 0.9927 0.0
H1044 H 0.18091 0.6603 0.02215 0.0
H1045 H 0.27695 0.5088 0.03932 0.0
H1046 H 0.26626 0.51993 1.00587 0.0
H1047 H 0.29939 0.54475 0.02287 0.0
H1048 H 0.25363 0.57979 0.92752 0.0
H1049 H 0.32983 0.64017 0.9709 0.0
H1050 H 0.18871 0.57526 0.97612 0.0
H1051 H 0.21431 0.53571 0.97992 0.0
H1052 H 0.20468 0.55226 0.94749 0.0
H1053 H 0.28391 0.64827 0.02865 0.0
H1054 H 0.32866 0.64489 1.01651 0.0
H1055 H 0.30825 0.6081 0.03337 0.0
C1056 C 0.63978 0.05685 0.7194 0.0
C1057 C 0.65557 0.04545 0.69594 0.0
C1058 C 0.64857 0.04157 0.74367 0.0
C1059 C 0.67351 0.01356 0.74478 0.0
C1060 C 0.69024 1.00236 0.72123 0.0
C1061 C 0.68144 0.0188 0.69715 0.0
C1062 C 0.63032 0.05486 0.7681 0.0
C1063 C 0.71666 0.9723 0.72138 0.0
C1064 C 0.71211 0.9885 0.8119 0.0
C1065 C 0.69014 0.96018 0.81951 0.0
C1066 C 0.7072 1.00606 0.78768 0.0
C1067 C 0.68003 0.99477 0.77034 0.0
C1068 C 0.65765 0.96644 0.77802 0.0
C1069 C 0.66273 0.94983 0.80243 0.0
C1070 C 0.73123 0.03657 0.78056 0.0
C1071 C 0.62849 0.95323 0.76023 0.0
H1072 H 0.61997 0.07766 0.71884 0.0
H1073 H 0.69445 0.01051 0.67932 0.0
H1074 H 0.61312 0.03369 0.77627 0.0
H1075 H 0.65023 0.0616 0.78331 0.0
H1076 H 0.6137 0.07864 0.76427 0.0
H1077 H 0.72828 0.96752 0.7017 0.0
H1078 H 0.7384 0.97804 0.73538 0.0
H1079 H 0.70349 0.94758 0.72809 0.0
H1080 H 0.73357 0.99663 0.82466 0.0
H1081 H 0.64572 0.92778 0.8077 0.0
H1082 H 0.71523 0.06076 0.77686 0.0
H1083 H 0.74571 0.03045 0.7622 0.0
H1084 H 0.75087 0.04243 0.79619 0.0
H1085 H 0.60907 0.97477 0.75653 0.0
H1086 H 0.61415 0.93012 0.76862 0.0
H1087 H 0.63976 0.94543 0.741 0.0
C1088 C 0.46083 0.19536 0.15919 0.0
C1089 C 0.43323 0.20122 0.17708 0.0
C1090 C 0.492 0.21601 0.15978 0.0
C1091 C 0.49606 0.24283 0.17902 0.0
C1092 C 0.46858 0.24818 0.19756 0.0
C1093 C 0.43742 0.22759 0.19621 0.0
C1094 C 0.52026 0.20965 0.13938 0.0
C1095 C 0.47193 0.27593 0.2187 0.0
C1096 C 0.59038 0.2757 0.19227 0.0
C1097 C 0.59131 0.30767 0.17819 0.0
C1098 C 0.55941 0.25479 0.19323 0.0
C1099 C 0.5287 0.2657 0.17935 0.0
C1100 C 0.52948 0.29818 0.16527 0.0
C1101 C 0.56062 0.31888 0.16506 0.0
C1102 C 0.55968 0.22081 0.2089 0.0
C1103 C 0.49764 0.31067 0.14989 0.0
H1104 H 0.45768 0.1752 0.14426 0.0
H1105 H 0.41619 0.23224 0.2101 0.0
H1106 H 0.52444 0.23415 0.12771 0.0
H1107 H 0.54583 0.20318 0.149 0.0
H1108 H 0.51324 0.1877 0.12584 0.0
H1109 H 0.44906 0.27564 0.23241 0.0
H1110 H 0.49663 0.27158 0.23007 0.0
H1111 H 0.47381 0.30266 0.2097 0.0
H1112 H 0.614 0.26691 0.2025 0.0
H1113 H 0.56122 0.34344 0.15401 0.0
H1114 H 0.55563 0.19785 0.19567 0.0
H1115 H 0.5375 0.2208 0.22318 0.0
H1116 H 0.58497 0.21695 0.2197 0.0
H1117 H 0.49079 0.29077 0.13471 0.0
H1118 H 0.50235 0.33661 0.14014 0.0
H1119 H 0.47434 0.31323 0.163 0.0
C1120 C 0.52605 0.67646 0.4428 0.0
C1121 C 0.55764 0.67549 0.42831 0.0
C1122 C 0.50494 0.70727 0.44365 0.0
C1123 C 0.51523 0.73775 0.42923 0.0
C1124 C 0.54731 0.73694 0.41472 0.0
C1125 C 0.56826 0.70597 0.41463 0.0
C1126 C 0.47142 0.70708 0.45981 0.0
C1127 C 0.55912 0.76856 0.39878 0.0
C1128 C 0.44406 0.80518 0.40981 0.0
C1129 C 0.45047 0.83293 0.42744 0.0
C1130 C 0.46479 0.77406 0.41023 0.0
C1131 C 0.49228 0.77028 0.42902 0.0
C1132 C 0.49818 0.79793 0.44731 0.0
C1133 C 0.47746 0.82898 0.44614 0.0
C1134 C 0.45783 0.74555 0.39015 0.0
C1135 C 0.52666 0.79489 0.46797 0.0
H1136 H 0.51772 0.65298 0.45344 0.0
H1137 H 0.59251 0.7053 0.40324 0.0
H1138 H 0.47176 0.72943 0.47393 0.0
H1139 H 0.44807 0.71093 0.4469 0.0
H1140 H 0.46794 0.6819 0.47085 0.0
H1141 H 0.58472 0.76378 0.38861 0.0
H1142 H 0.53867 0.77507 0.3839 0.0
H1143 H 0.56204 0.7921 0.4116 0.0
H1144 H 0.42341 0.80819 0.3952 0.0
H1145 H 0.48255 0.85035 0.45983 0.0
H1146 H 0.45183 0.72004 0.40006 0.0
H1147 H 0.48192 0.74135 0.37806 0.0
H1148 H 0.43538 0.75235 0.37697 0.0
H1149 H 0.52275 0.77033 0.47961 0.0
H1150 H 0.52683 0.81795 0.48149 0.0
H1151 H 0.55306 0.79293 0.4585 0.0
C1152 C 0.95383 0.69889 0.66408 0.0
C1153 C 0.92328 0.70983 0.67747 0.0
C1154 C 0.98498 0.71955 0.66436 0.0
C1155 C 0.98589 0.75169 0.67877 0.0
C1156 C 0.95532 0.76234 0.69289 0.0
C1157 C 0.92433 0.74149 0.69186 0.0
C1158 C 0.01668 0.70736 0.64872 0.0
C1159 C 0.95522 0.79596 0.70891 0.0
C1160 C 0.07729 0.78897 0.69591 0.0
C1161 C 0.08155 0.81573 0.67705 0.0
C1162 C 0.04606 0.76849 0.69707 0.0
C1163 C 0.01858 0.77442 0.67863 0.0
C1164 C 0.02269 0.80167 0.65967 0.0
C1165 C 0.05396 0.82215 0.65925 0.0
C1166 C 0.04266 0.74023 0.71789 0.0
C1167 C 0.99438 0.80866 0.63941 0.0
H1168 H 0.95312 0.67456 0.65279 0.0
H1169 H 0.9008 0.75006 0.70229 0.0
H1170 H 0.02352 0.72764 0.63377 0.0
H1171 H 0.04005 0.70437 0.66173 0.0
H1172 H 0.01183 0.68171 0.63866 0.0
H1173 H 0.92997 0.79969 0.71977 0.0
H1174 H 0.97742 0.79553 0.72318 0.0
H1175 H 0.95938 0.81921 0.69593 0.0
H1176 H 0.09852 0.78388 0.70973 0.0
H1177 H 0.05719 0.84264 0.64452 0.0
H1178 H 0.0406 0.71374 0.70859 0.0
H1179 H 0.01803 0.74442 0.72937 0.0
H1180 H 0.0656 0.74005 0.73155 0.0
H1181 H 0.99007 0.78448 0.62744 0.0
H1182 H 1.00143 0.83093 0.62612 0.0
H1183 H 0.96886 0.81496 0.64916 0.0
C1184 C 0.9786 0.33176 0.9467 0.0
C1185 C 0.95202 0.33591 0.92771 0.0
C1186 C 0.999 0.30049 0.94812 0.0
C1187 C 0.99322 0.27287 0.92979 0.0
C1188 C 0.96614 0.27687 0.91071 0.0
C1189 C 0.9457 0.30817 0.91006 0.0
C1190 C 0.02705 0.29721 0.96908 0.0
C1191 C 0.95933 0.24842 0.89055 0.0
C1192 C 0.06903 0.20831 0.91561 0.0
C1193 C 0.05807 0.1777 0.92897 0.0
C1194 C 0.04828 0.23941 0.91578 0.0
C1195 C 0.01604 0.24023 0.93008 0.0
C1196 C 1.00539 0.20962 0.94422 0.0
C1197 C 0.02631 0.17866 0.94327 0.0
C1198 C 0.06048 0.27114 0.90012 0.0
C1199 C 0.97168 0.20944 0.96015 0.0
H1200 H 0.9836 0.35311 0.96042 0.0
H1201 H 0.92535 0.31131 0.89524 0.0
H1202 H 0.02286 0.27255 0.98056 0.0
H1203 H 0.05364 0.29527 0.95989 0.0
H1204 H 0.02699 0.32016 0.98271 0.0
H1205 H 0.93711 0.25536 0.87719 0.0
H1206 H 0.98357 0.24413 0.87865 0.0
H1207 H 0.95304 0.22293 0.90037 0.0
H1208 H 0.09342 0.20767 0.90438 0.0
H1209 H 0.01772 0.15508 0.95367 0.0
H1210 H 0.06331 0.29454 0.91308 0.0
H1211 H 0.04029 0.27789 0.8851 0.0
H1212 H 0.08621 0.26635 0.89014 0.0
H1213 H 0.9719 0.23172 0.97433 0.0
H1214 H 0.96801 0.18421 0.9711 0.0
H1215 H 0.9485 0.2134 0.94709 0.0
C1216 C 0.58511 0.78559 0.85011 0.0
C1217 C 0.58769 0.81452 0.86727 0.0
C1218 C 0.55459 0.76408 0.8495 0.0
C1219 C 0.52597 0.77137 0.86667 0.0
C1220 C 0.52833 0.80083 0.88385 0.0
C1221 C 0.55906 0.82213 0.88385 0.0
C1222 C 0.55312 0.73329 0.83065 0.0
C1223 C 0.49862 0.8095 0.90259 0.0
C1224 C 0.43362 0.73495 0.85171 0.0
C1225 C 0.43178 0.70525 0.86825 0.0
C1226 C 0.46423 0.7563 0.85068 0.0
C1227 C 0.4937 0.74807 0.86681 0.0
C1228 C 0.4921 0.71781 0.88334 0.0
C1229 C 0.46125 0.69668 0.88376 0.0
C1230 C 0.46484 0.78796 0.83254 0.0
C1231 C 0.52273 0.70815 0.90099 0.0
H1232 H 0.60718 0.77953 0.83726 0.0
H1233 H 0.56098 0.84432 0.89726 0.0
H1234 H 0.55065 0.70804 0.84168 0.0
H1235 H 0.52938 0.73562 0.81793 0.0
H1236 H 0.57707 0.73181 0.81802 0.0
H1237 H 0.50437 0.83341 0.91455 0.0
H1238 H 0.47365 0.81402 0.89159 0.0
H1239 H 0.49401 0.78673 0.91596 0.0
H1240 H 0.41092 0.74173 0.83967 0.0
H1241 H 0.45991 0.67389 0.89668 0.0
H1242 H 0.48799 0.78624 0.81919 0.0
H1243 H 0.46784 0.81268 0.8441 0.0
H1244 H 0.44033 0.79003 0.82057 0.0
H1245 H 0.54713 0.70426 0.88919 0.0
H1246 H 0.51757 0.6836 0.91243 0.0
H1247 H 0.52803 0.73018 0.91484 0.0
C1248 C 0.47858 0.3333 0.60038 0.0
C1249 C 0.44945 0.33543 0.6174 0.0
C1250 C 0.50008 0.30279 0.59953 0.0
C1251 C 0.49256 0.27375 0.61629 0.0
C1252 C 0.46284 0.27563 0.63327 0.0
C1253 C 0.44157 0.30635 0.63353 0.0
C1254 C 0.53117 0.30184 0.58091 0.0
C1255 C 0.45394 0.24544 0.65158 0.0
C1256 C 0.52991 0.18193 0.6009 0.0
C1257 C 0.55921 0.18002 0.61778 0.0
C1258 C 0.50837 0.21241 0.5999 0.0
C1259 C 0.51604 0.24165 0.61638 0.0
C1260 C 0.54591 0.23998 0.63324 0.0
C1261 C 0.5672 0.20926 0.63365 0.0
C1262 C 0.47712 0.21314 0.58143 0.0
C1263 C 0.55497 0.27038 0.65124 0.0
H1264 H 0.48483 0.35572 0.58789 0.0
H1265 H 0.41921 0.30793 0.64682 0.0
H1266 H 0.55625 0.29942 0.59214 0.0
H1267 H 0.52926 0.27825 0.56802 0.0
H1268 H 0.53268 0.32599 0.56847 0.0
H1269 H 0.42969 0.25076 0.66329 0.0
H1270 H 0.4499 0.22066 0.64027 0.0
H1271 H 0.47639 0.24073 0.6652 0.0
H1272 H 0.52358 0.15939 0.58859 0.0
H1273 H 0.58971 0.20786 0.64682 0.0
H1274 H 0.47896 0.23653 0.56829 0.0
H1275 H 0.45214 0.21577 0.59274 0.0
H1276 H 0.47546 0.18881 0.56923 0.0
H1277 H 0.55897 0.29501 0.6397 0.0
H1278 H 0.57929 0.26518 0.66292 0.0
H1279 H 0.53262 0.2753 0.6649 0.0
C1280 C 0.08555 0.28138 0.34926 0.0
C1281 C 0.08687 0.31204 0.36477 0.0
C1282 C 0.05488 0.26006 0.34832 0.0
C1283 C 0.02489 0.2692 0.36365 0.0
C1284 C 0.02599 0.30044 0.37911 0.0
C1285 C 0.05682 0.3216 0.37931 0.0
C1286 C 0.05476 0.22745 0.3312 0.0
C1287 C 0.99491 0.31103 0.39601 0.0
C1288 C 0.93347 0.2307 0.34802 0.0
C1289 C 0.93086 0.20278 0.36611 0.0
C1290 C 0.96413 0.25201 0.34661 0.0
C1291 C 0.99273 0.24571 0.36403 0.0
C1292 C 0.99029 0.21728 0.38219 0.0
C1293 C 0.95955 0.19602 0.38286 0.0
C1294 C 0.96573 0.28152 0.32664 0.0
C1295 C 0.01985 0.20982 0.40136 0.0
H1296 H 0.1087 0.27384 0.33796 0.0
H1297 H 0.05775 0.34512 0.39148 0.0
H1298 H 0.05199 0.20336 0.34352 0.0
H1299 H 0.03169 0.22815 0.31772 0.0
H1300 H 0.07939 0.22503 0.3194 0.0
H1301 H 0.99971 0.33628 0.40663 0.0
H1302 H 0.97076 0.31407 0.3838 0.0
H1303 H 0.98941 0.28985 0.41057 0.0
H1304 H 0.91138 0.23607 0.33502 0.0
H1305 H 0.95761 0.17463 0.397 0.0
H1306 H 0.9898 0.27861 0.31432 0.0
H1307 H 0.96769 0.30749 0.33672 0.0
H1308 H 0.94206 0.28192 0.31368 0.0
H1309 H 0.04494 0.20471 0.39067 0.0
H1310 H 0.01404 0.18664 0.41411 0.0
H1311 H 0.02427 0.23338 0.41395 0.0
C1312 C 0.07136 0.70755 0.1308 0.0
C1313 C 0.06001 0.67688 0.11774 0.0
C1314 C 0.05082 0.73882 0.13056 0.0
C1315 C 0.01836 0.73978 0.1165 0.0
C1316 C 0.00731 0.70908 0.10269 0.0
C1317 C 0.02803 0.67797 0.1037 0.0
C1318 C 0.06347 0.77061 0.14589 0.0
C1319 C 0.97336 0.70897 0.08703 0.0
C1320 C 0.9482 0.80809 0.13633 0.0
C1321 C 0.95415 0.83556 0.1183 0.0
C1322 C 0.96879 0.77686 0.13593 0.0
C1323 C 0.99568 0.77259 0.11674 0.0
C1324 C 1.00118 0.79998 0.0981 0.0
C1325 C 0.98062 0.8312 0.09926 0.0
C1326 C 0.96226 0.74871 0.15643 0.0
C1327 C 0.029 0.79643 0.07701 0.0
H1328 H 0.09591 0.70684 0.14183 0.0
H1329 H 0.01911 0.65438 0.09352 0.0
H1330 H 0.06621 0.79389 0.13273 0.0
H1331 H 0.04358 0.77762 0.16104 0.0
H1332 H 0.08934 0.76576 0.15566 0.0
H1333 H 0.96935 0.68367 0.0763 0.0
H1334 H 0.95041 0.71322 0.10024 0.0
H1335 H 0.97352 0.73112 0.07268 0.0
H1336 H 0.92795 0.81136 0.1512 0.0
H1337 H 0.98537 0.85231 0.08526 0.0
H1338 H 0.98673 0.7444 0.16808 0.0
H1339 H 0.9556 0.72315 0.14689 0.0
H1340 H 0.94038 0.75595 0.16997 0.0
H1341 H 0.05566 0.79435 0.08605 0.0
H1342 H 0.02894 0.81931 0.06328 0.0
H1343 H 0.02452 0.77175 0.06566 0.0
C1344 C 0.2238 0.23817 0.13639 0.0
C1345 C 0.26024 0.2311 0.13505 0.0
C1346 C 0.21087 0.2729 0.13319 0.0
C1347 C 0.23496 0.30101 0.12828 0.0
C1348 C 0.27151 0.29358 0.12535 0.0
C1349 C 0.2837 0.25877 0.12885 0.0
C1350 C 0.17169 0.27979 0.13647 0.0
C1351 C 0.298 0.32267 0.11977 0.0
C1352 C 0.1992 0.38933 0.10379 0.0
C1353 C 0.19809 0.40925 0.12694 0.0
C1354 C 0.21128 0.3541 0.10388 0.0
C1355 C 0.22233 0.33843 0.12773 0.0
C1356 C 0.2217 0.35865 0.15112 0.0
C1357 C 0.20967 0.39391 0.15042 0.0
C1358 C 0.21185 0.33352 0.07853 0.0
C1359 C 0.23328 0.34288 0.17697 0.0
H1360 H 0.20557 0.21698 0.14137 0.0
H1361 H 0.3119 0.25343 0.12761 0.0
H1362 H 0.16723 0.29583 0.15438 0.0
H1363 H 0.16137 0.29532 0.11965 0.0
H1364 H 0.15618 0.25484 0.13817 0.0
H1365 H 0.32496 0.31208 0.11582 0.0
H1366 H 0.28938 0.33866 0.10266 0.0
H1367 H 0.29955 0.34083 0.13682 0.0
H1368 H 0.19015 0.40115 0.08561 0.0
H1369 H 0.20868 0.40924 0.16835 0.0
H1370 H 0.19435 0.30997 0.08014 0.0
H1371 H 0.23905 0.32368 0.07455 0.0
H1372 H 0.20298 0.34978 0.06158 0.0
H1373 H 0.21684 0.3193 0.18164 0.0
H1374 H 0.23108 0.3621 0.19336 0.0
H1375 H 0.26121 0.3338 0.17563 0.0
C1376 C 0.37398 0.44604 0.35697 0.0
C1377 C 0.35561 0.44368 0.3808 0.0
C1378 C 0.40955 0.45674 0.35609 0.0
C1379 C 0.42709 0.46582 0.37961 0.0
C1380 C 0.40856 0.46388 0.40376 0.0
C1381 C 0.37299 0.45259 0.4041 0.0
C1382 C 0.42838 0.45822 0.33 0.0
C1383 C 0.42626 0.47397 0.42918 0.0
C1384 C 0.52797 0.46814 0.38329 0.0
C1385 C 0.53448 0.50467 0.38179 0.0
C1386 C 0.49314 0.45487 0.38183 0.0
C1387 C 0.46438 0.47877 0.3788 0.0
C1388 C 0.47113 0.51544 0.37573 0.0
C1389 C 0.50606 0.52788 0.37715 0.0
C1390 C 0.48698 0.41555 0.38496 0.0
C1391 C 0.44131 0.54182 0.37236 0.0
H1392 H 0.36069 0.43891 0.33889 0.0
H1393 H 0.35884 0.45068 0.42253 0.0
H1394 H 0.43732 0.48572 0.32594 0.0
H1395 H 0.4524 0.44122 0.33054 0.0
H1396 H 0.41122 0.44935 0.31359 0.0
H1397 H 0.4089 0.46923 0.44641 0.0
H1398 H 0.45112 0.45864 0.4317 0.0
H1399 H 0.43363 0.50246 0.42868 0.0
H1400 H 0.54974 0.45014 0.38728 0.0
H1401 H 0.51098 0.55618 0.37596 0.0
H1402 H 0.46928 0.40561 0.36924 0.0
H1403 H 0.47357 0.4104 0.40393 0.0
H1404 H 0.51214 0.40023 0.3845 0.0
H1405 H 0.42406 0.53401 0.35574 0.0
H1406 H 0.45118 0.56917 0.36881 0.0
H1407 H 0.42457 0.54203 0.39023 0.0
C1408 C 0.29414 0.7778 0.65116 0.0
C1409 C 0.25925 0.78479 0.64321 0.0
C1410 C 0.308 0.74325 0.65024 0.0
C1411 C 0.28674 0.71523 0.64052 0.0
C1412 C 0.25192 0.72244 0.63156 0.0
C1413 C 0.23843 0.75706 0.63336 0.0
C1414 C 0.34496 0.73652 0.6605 0.0
C1415 C 0.22875 0.69348 0.62043 0.0
C1416 C 0.33404 0.63291 0.616 0.0
C1417 C 0.328 0.60875 0.6364 0.0
C1418 C 0.32047 0.66749 0.61702 0.0
C1419 C 0.30111 0.67848 0.63931 0.0
C1420 C 0.29539 0.65431 0.66023 0.0
C1421 C 0.30855 0.61946 0.65836 0.0
C1422 C 0.32657 0.69214 0.59411 0.0
C1423 C 0.27561 0.66536 0.6846 0.0
H1424 H 0.31007 0.79903 0.65933 0.0
H1425 H 0.21137 0.7624 0.62735 0.0
H1426 H 0.34381 0.71756 0.67712 0.0
H1427 H 0.36158 0.72423 0.64506 0.0
H1428 H 0.35814 0.76123 0.66726 0.0
H1429 H 0.20289 0.70377 0.61328 0.0
H1430 H 0.24254 0.68017 0.60395 0.0
H1431 H 0.22363 0.67305 0.63562 0.0
H1432 H 0.34895 0.62458 0.59893 0.0
H1433 H 0.30408 0.60079 0.67419 0.0
H1434 H 0.34151 0.7159 0.60059 0.0
H1435 H 0.30076 0.7015 0.58628 0.0
H1436 H 0.34156 0.67922 0.578 0.0
H1437 H 0.28869 0.68875 0.69358 0.0
H1438 H 0.27433 0.64376 0.6994 0.0
H1439 H 0.24818 0.67339 0.67946 0.0
C1440 C 0.99094 0.53382 0.87171 0.0
C1441 C 0.98346 0.51264 0.89355 0.0
C1442 C 0.02488 0.54893 0.86844 0.0
C1443 C 0.05117 0.54369 0.88799 0.0
C1444 C 0.0431 0.52323 0.91044 0.0
C1445 C 0.00964 0.50753 0.91269 0.0
C1446 C 0.03284 0.56986 0.84394 0.0
C1447 C 0.06978 0.51798 0.9322 0.0
C1448 C 0.15022 0.55055 0.87551 0.0
C1449 C 0.15771 0.58461 0.88487 0.0
C1450 C 0.11528 0.53766 0.87508 0.0
C1451 C 0.08744 0.55889 0.88515 0.0
C1452 C 0.09502 0.5933 0.89478 0.0
C1453 C 0.13004 0.60599 0.89407 0.0
C1454 C 0.10821 0.50116 0.86409 0.0
C1455 C 0.06639 0.61622 0.90662 0.0
H1456 H 0.97063 0.53779 0.85696 0.0
H1457 H 1.00371 0.49168 0.92986 0.0
H1458 H 0.04108 0.5972 0.8491 0.0
H1459 H 0.0553 0.55743 0.83332 0.0
H1460 H 0.00964 0.57134 0.83057 0.0
H1461 H 0.05866 0.50273 0.9489 0.0
H1462 H 0.09333 0.50361 0.92469 0.0
H1463 H 0.07905 0.54408 0.93955 0.0
H1464 H 0.17162 0.53424 0.86802 0.0
H1465 H 0.13593 0.6324 0.90126 0.0
H1466 H 0.08635 0.50231 0.84956 0.0
H1467 H 0.09967 0.48307 0.88004 0.0
H1468 H 0.13202 0.48962 0.85454 0.0
H1469 H 0.04424 0.61971 0.89257 0.0
H1470 H 0.07642 0.64282 0.91236 0.0
H1471 H 0.05538 0.60298 0.92426 0.0
C1472 C 0.76113 0.76048 0.87736 0.0
C1473 C 0.76431 0.785 0.89782 0.0
C1474 C 0.77583 0.72656 0.87931 0.0
C1475 C 0.79318 0.71645 0.90269 0.0
C1476 C 0.79667 0.74119 0.92348 0.0
C1477 C 0.78264 0.77561 0.9206 0.0
C1478 C 0.77254 0.70152 0.85634 0.0
C1479 C 0.81444 0.73103 0.94887 0.0
C1480 C 0.79642 0.61679 0.91312 0.0
C1481 C 0.83145 0.60911 0.90613 0.0
C1482 C 0.78406 0.65191 0.9132 0.0
C1483 C 0.807 0.67968 0.90523 0.0
C1484 C 0.84229 0.67185 0.89776 0.0
C1485 C 0.85427 0.63665 0.89873 0.0
C1486 C 0.74647 0.65932 0.9218 0.0
C1487 C 0.86709 0.70049 0.88813 0.0
H1488 H 0.74735 0.76804 0.85958 0.0
H1489 H 0.785 0.79472 0.93636 0.0
H1490 H 0.79885 0.69036 0.85118 0.0
H1491 H 0.75504 0.67898 0.86165 0.0
H1492 H 0.76138 0.71476 0.83874 0.0
H1493 H 0.81516 0.75336 0.96305 0.0
H1494 H 0.80009 0.70844 0.95795 0.0
H1495 H 0.84199 0.72208 0.94512 0.0
H1496 H 0.77899 0.59544 0.91922 0.0
H1497 H 0.88141 0.63055 0.89335 0.0
H1498 H 0.73084 0.66961 0.90503 0.0
H1499 H 0.74628 0.68006 0.93721 0.0
H1500 H 0.73308 0.63524 0.92953 0.0
H1501 H 0.85597 0.71301 0.87024 0.0
H1502 H 0.89391 0.69004 0.88348 0.0
H1503 H 0.86975 0.72162 0.90309 0.0
C1504 C 0.63938 0.56381 0.68665 0.0
C1505 C 0.6584 0.56867 0.66332 0.0
C1506 C 0.60396 0.55251 0.68631 0.0
C1507 C 0.58723 0.54563 0.66204 0.0
C1508 C 0.6065 0.54996 0.63839 0.0
C1509 C 0.64192 0.56157 0.63932 0.0
C1510 C 0.58435 0.54818 0.71191 0.0
C1511 C 0.58965 0.5425 0.61213 0.0
C1512 C 0.50811 0.4837 0.66019 0.0
C1513 C 0.47971 0.5074 0.65688 0.0
C1514 C 0.54307 0.49586 0.66238 0.0
C1515 C 0.54994 0.5327 0.66146 0.0
C1516 C 0.52129 0.55692 0.65948 0.0
C1517 C 0.48642 0.54397 0.65721 0.0
C1518 C 0.5728 0.46914 0.66462 0.0
C1519 C 0.52761 0.59644 0.65872 0.0
H1520 H 0.65201 0.56949 0.70525 0.0
H1521 H 0.65657 0.56549 0.62127 0.0
H1522 H 0.56044 0.56532 0.71204 0.0
H1523 H 0.57518 0.52038 0.71413 0.0
H1524 H 0.60107 0.55508 0.72909 0.0
H1525 H 0.60824 0.54714 0.59559 0.0
H1526 H 0.58043 0.51457 0.61136 0.0
H1527 H 0.56602 0.55964 0.6094 0.0
H1528 H 0.50319 0.45537 0.66016 0.0
H1529 H 0.4647 0.56244 0.6545 0.0
H1530 H 0.58938 0.47496 0.68203 0.0
H1531 H 0.59022 0.47103 0.64716 0.0
H1532 H 0.56285 0.44148 0.6662 0.0
H1533 H 0.5439 0.60471 0.67575 0.0
H1534 H 0.50245 0.61177 0.65885 0.0
H1535 H 0.54267 0.60344 0.64078 0.0
C1536 C 0.72268 0.23722 0.40923 0.0
C1537 C 0.75936 0.2313 0.40832 0.0
C1538 C 0.70906 0.27186 0.41128 0.0
C1539 C 0.73271 0.30106 0.4125 0.0
C1540 C 0.76969 0.29498 0.41295 0.0
C1541 C 0.78253 0.26024 0.41093 0.0
C1542 C 0.66941 0.27733 0.41101 0.0
C1543 C 0.79582 0.32531 0.41445 0.0
C1544 C 0.7018 0.39207 0.38952 0.0
C1545 C 0.69496 0.40895 0.4134 0.0
C1546 C 0.71387 0.35678 0.38891 0.0
C1547 C 0.71902 0.33809 0.41275 0.0
C1548 C 0.71234 0.35522 0.43687 0.0
C1549 C 0.70049 0.39047 0.43689 0.0
C1550 C 0.72103 0.33945 0.36278 0.0
C1551 C 0.71758 0.33628 0.46268 0.0
H1552 H 0.70463 0.21505 0.40702 0.0
H1553 H 0.81094 0.25588 0.41042 0.0
H1554 H 0.66121 0.29394 0.42788 0.0
H1555 H 0.66167 0.29172 0.39292 0.0
H1556 H 0.65464 0.25186 0.41177 0.0
H1557 H 0.82369 0.31596 0.41586 0.0
H1558 H 0.79325 0.34225 0.39676 0.0
H1559 H 0.78998 0.34223 0.43168 0.0
H1560 H 0.69736 0.4063 0.37134 0.0
H1561 H 0.69505 0.40343 0.45541 0.0
H1562 H 0.70442 0.31533 0.36066 0.0
H1563 H 0.74914 0.33089 0.3617 0.0
H1564 H 0.71549 0.35751 0.34606 0.0
H1565 H 0.70102 0.31196 0.46331 0.0
H1566 H 0.71062 0.35321 0.47971 0.0
H1567 H 0.74562 0.3278 0.46469 0.0
C1568 C 0.87663 0.44723 0.19056 0.0
C1569 C 0.85738 0.44728 0.16704 0.0
C1570 C 0.91224 0.45791 0.19129 0.0
C1571 C 0.92894 0.46939 0.16798 0.0
C1572 C 0.90939 0.47019 0.14423 0.0
C1573 C 0.87382 0.45891 0.14401 0.0
C1574 C 0.93211 0.45656 0.21696 0.0
C1575 C 0.92594 0.48325 0.1191 0.0
C1576 C 0.00999 0.52883 0.1712 0.0
C1577 C 0.0374 0.50526 0.16468 0.0
C1578 C 0.97476 0.51729 0.17317 0.0
C1579 C 0.96666 0.48121 0.16855 0.0
C1580 C 0.99448 0.45684 0.16348 0.0
C1581 C 0.02963 0.46916 0.16168 0.0
C1582 C 0.94601 0.54413 0.17875 0.0
C1583 C 0.98686 0.41817 0.15835 0.0
H1584 H 0.86405 0.43807 0.20842 0.0
H1585 H 0.85897 0.459 0.12582 0.0
H1586 H 0.95544 0.4388 0.21512 0.0
H1587 H 0.94222 0.48332 0.22201 0.0
H1588 H 0.91528 0.44689 0.23334 0.0
H1589 H 0.90908 0.47753 0.10176 0.0
H1590 H 0.93002 0.51235 0.1203 0.0
H1591 H 0.95233 0.47096 0.11617 0.0
H1592 H 0.01588 0.55682 0.1735 0.0
H1593 H 0.05058 0.45095 0.15617 0.0
H1594 H 0.92896 0.53492 0.1951 0.0
H1595 H 0.9288 0.54709 0.16126 0.0
H1596 H 0.95698 0.57059 0.18384 0.0
H1597 H 0.9698 0.40707 0.17405 0.0
H1598 H 0.01151 0.40212 0.15708 0.0
H1599 H 0.97218 0.41554 0.13961 0.0
C1600 C 0.76969 0.75709 0.62191 0.0
C1601 C 0.7487 0.72937 0.63164 0.0
C1602 C 0.75614 0.79164 0.61962 0.0
C1603 C 0.72114 0.79884 0.62811 0.0
C1604 C 0.69949 0.77068 0.63723 0.0
C1605 C 0.71334 0.73609 0.63839 0.0
C1606 C 0.77981 0.82066 0.60915 0.0
C1607 C 0.6624 0.77743 0.64718 0.0
C1608 C 0.70187 0.89379 0.64958 0.0
C1609 C 0.68219 0.9065 0.62832 0.0
C1610 C 0.71425 0.85856 0.65001 0.0
C1611 C 0.7076 0.83601 0.62829 0.0
C1612 C 0.68821 0.84908 0.60662 0.0
C1613 C 0.67535 0.88399 0.60707 0.0
C1614 C 0.7348 0.84583 0.67359 0.0
C1615 C 0.68154 0.8264 0.58276 0.0
H1616 H 0.79716 0.75193 0.6169 0.0
H1617 H 0.69732 0.71485 0.64647 0.0
H1618 H 0.76566 0.83641 0.59403 0.0
H1619 H 0.787 0.83901 0.62526 0.0
H1620 H 0.80463 0.80999 0.60048 0.0
H1621 H 0.66304 0.79774 0.6629 0.0
H1622 H 0.64563 0.78806 0.63116 0.0
H1623 H 0.64973 0.75302 0.65503 0.0
H1624 H 0.70721 0.91119 0.66601 0.0
H1625 H 0.66034 0.89388 0.59048 0.0
H1626 H 0.76358 0.847 0.66921 0.0
H1627 H 0.72817 0.81794 0.67847 0.0
H1628 H 0.72967 0.86264 0.69104 0.0
H1629 H 0.70717 0.8172 0.57451 0.0
H1630 H 0.66676 0.84087 0.56725 0.0
H1631 H 0.66619 0.80244 0.58828 0.0
C1632 C 0.88438 0.92852 0.85981 0.0
C1633 C 0.8617 0.93576 0.8809 0.0
C1634 C 0.91921 0.94148 0.85932 0.0
C1635 C 0.93206 0.96128 0.88082 0.0
C1636 C 0.90943 0.9681 0.90246 0.0
C1637 C 0.8742 0.95576 0.90203 0.0
C1638 C 0.94206 0.93448 0.83558 0.0
C1639 C 0.92234 0.9885 0.92602 0.0
C1640 C 0.03193 0.96797 0.89024 0.0
C1641 C 0.03836 1.00316 0.8828 0.0
C1642 C 0.99743 0.95392 0.88967 0.0
C1643 C 0.96904 0.97518 0.88047 0.0
C1644 C 0.97591 0.01001 0.87136 0.0
C1645 C 0.0104 0.0238 0.87309 0.0
C1646 C 0.99105 0.91705 0.90025 0.0
C1647 C 0.94661 0.03319 0.86069 0.0
H1648 H 0.87462 0.91324 0.84334 0.0
H1649 H 0.85667 0.96122 0.91837 0.0
H1650 H 0.9511 0.96 0.827 0.0
H1651 H 0.96609 0.91943 0.84133 0.0
H1652 H 0.92778 0.91924 0.82023 0.0
H1653 H 0.90368 0.98644 0.9428 0.0
H1654 H 0.94875 0.97875 0.93233 0.0
H1655 H 0.92529 0.01692 0.9208 0.0
H1656 H 0.05339 0.95227 0.89833 0.0
H1657 H 0.01535 0.05116 0.86761 0.0
H1658 H 0.97978 0.89991 0.8847 0.0
H1659 H 0.97137 0.91807 0.91639 0.0
H1660 H 0.01573 0.90453 0.90774 0.0
H1661 H 0.93136 0.01872 0.84549 0.0
H1662 H 0.95693 0.0582 0.85205 0.0
H1663 H 0.92788 0.04004 0.87665 0.0
C1664 C 0.81265 0.12266 0.15192 0.0
C1665 C 0.83187 0.11001 0.13042 0.0
C1666 C 0.80052 0.15799 0.15255 0.0
C1667 C 0.80693 0.18069 0.13084 0.0
C1668 C 0.82601 0.16773 0.10901 0.0
C1669 C 0.8386 0.13274 0.10922 0.0
C1670 C 0.78072 0.17093 0.17639 0.0
C1671 C 0.8327 0.19068 0.08524 0.0
C1672 C 0.745 0.25965 0.12353 0.0
C1673 C 0.76594 0.28749 0.13305 0.0
C1674 C 0.75842 0.225 0.12184 0.0
C1675 C 0.79328 0.21782 0.13069 0.0
C1676 C 0.81488 0.24607 0.13968 0.0
C1677 C 0.80112 0.28072 0.14032 0.0
C1678 C 0.73483 0.19586 0.11148 0.0
C1679 C 0.85183 0.23938 0.14993 0.0
H1680 H 0.80755 0.10513 0.16835 0.0
H1681 H 0.85331 0.12294 0.09248 0.0
H1682 H 0.79072 0.19729 0.18259 0.0
H1683 H 0.75222 0.17405 0.17153 0.0
H1684 H 0.78305 0.1522 0.19313 0.0
H1685 H 0.84754 0.1764 0.06969 0.0
H1686 H 0.8071 0.19994 0.07697 0.0
H1687 H 0.84801 0.21459 0.09088 0.0
H1688 H 0.71765 0.26483 0.11817 0.0
H1689 H 0.81708 0.30204 0.14831 0.0
H1690 H 0.72835 0.17704 0.12749 0.0
H1691 H 0.74881 0.18065 0.09601 0.0
H1692 H 0.70964 0.20634 0.10325 0.0
H1693 H 0.85073 0.22037 0.16653 0.0
H1694 H 0.86497 0.2641 0.15672 0.0
H1695 H 0.86842 0.22715 0.13445 0.0
C1696 C 0.49237 0.03013 0.3735 0.0
C1697 C 0.48389 0.00869 0.39499 0.0
C1698 C 0.52673 0.04449 0.37086 0.0
C1699 C 0.55241 0.0382 0.39067 0.0
C1700 C 0.54341 0.01731 0.41269 0.0
C1701 C 0.5095 1.00248 0.41438 0.0
C1702 C 0.53573 0.06586 0.34676 0.0
C1703 C 0.56947 0.01094 0.43469 0.0
C1704 C 0.65182 0.04466 0.37952 0.0
C1705 C 0.65924 0.07855 0.38925 0.0
C1706 C 0.61684 0.03191 0.37864 0.0
C1707 C 0.58891 0.05307 0.38867 0.0
C1708 C 0.59647 0.08717 0.39888 0.0
C1709 C 0.63152 0.09977 0.39856 0.0
C1710 C 0.60979 0.99572 0.36712 0.0
C1711 C 0.56774 0.10995 0.41073 0.0
H1712 H 0.4725 0.03494 0.35856 0.0
H1713 H 0.50275 0.98648 0.43132 0.0
H1714 H 0.54389 0.09305 0.35241 0.0
H1715 H 0.55854 0.05354 0.33646 0.0
H1716 H 0.51306 0.06774 0.33293 0.0
H1717 H 0.55843 0.99348 0.45017 0.0
H1718 H 0.59404 0.99855 0.42705 0.0
H1719 H 0.57707 0.03662 0.44369 0.0
H1720 H 0.67327 0.02852 0.37191 0.0
H1721 H 0.63737 0.12606 0.40599 0.0
H1722 H 0.58854 0.99746 0.35212 0.0
H1723 H 0.60035 0.97742 0.38265 0.0
H1724 H 0.63383 0.98406 0.35796 0.0
H1725 H 0.5461 0.11427 0.39637 0.0
H1726 H 0.57787 0.13618 0.41722 0.0
H1727 H 0.55599 0.09615 0.42788 0.0
C1728 C 0.25153 0.2559 0.38779 0.0
C1729 C 0.25926 0.28296 0.40578 0.0
C1730 C 0.26741 0.22252 0.38956 0.0
C1731 C 0.2905 0.21507 0.41065 0.0
C1732 C 0.298 0.24196 0.42933 0.0
C1733 C 0.28287 0.27601 0.42633 0.0
C1734 C 0.25972 0.19539 0.36854 0.0
C1735 C 0.32157 0.23459 0.45257 0.0
C1736 C 0.29874 0.11597 0.42284 0.0
C1737 C 0.33161 0.10844 0.41141 0.0
C1738 C 0.28609 0.15098 0.42422 0.0
C1739 C 0.30614 0.17886 0.41287 0.0
C1740 C 0.3393 0.17121 0.4011 0.0
C1741 C 0.352 0.13614 0.40105 0.0
C1742 C 0.25106 0.15808 0.43753 0.0
C1743 C 0.36072 0.19978 0.38769 0.0
H1744 H 0.23366 0.26111 0.37161 0.0
H1745 H 0.28889 0.29684 0.44025 0.0
H1746 H 0.28487 0.18608 0.35961 0.0
H1747 H 0.24638 0.17193 0.37719 0.0
H1748 H 0.2425 0.20623 0.35281 0.0
H1749 H 0.32383 0.25787 0.46578 0.0
H1750 H 0.3109 0.21182 0.4639 0.0
H1751 H 0.34849 0.22707 0.44584 0.0
H1752 H 0.2833 0.09456 0.43129 0.0
H1753 H 0.37752 0.13021 0.3923 0.0
H1754 H 0.23103 0.16613 0.42277 0.0
H1755 H 0.25379 0.18028 0.45165 0.0
H1756 H 0.24093 0.1344 0.44813 0.0
H1757 H 0.3453 0.21095 0.3711 0.0
H1758 H 0.38637 0.18965 0.38005 0.0
H1759 H 0.36614 0.22185 0.40145 0.0
C1760 C 0.9895 0.0483 0.1449 0.0
C1761 C 0.98259 0.01339 0.15287 0.0
C1762 C 0.02401 0.06225 0.14594 0.0
C1763 C 0.05202 0.04107 0.15584 0.0
C1764 C 0.0448 1.00633 0.165 0.0
C1765 C 0.01025 0.99273 0.16304 0.0
C1766 C 0.03075 0.09914 0.1355 0.0
C1767 C 0.0737 0.98328 0.17639 0.0
C1768 C 0.14775 0.0617 0.13736 0.0
C1769 C 0.15885 0.0815 0.15903 0.0
C1770 C 0.11276 0.04888 0.13578 0.0
C1771 C 0.08885 0.05525 0.15673 0.0
C1772 C 0.10025 0.07493 0.17875 0.0
C1773 C 0.13495 0.0882 0.17945 0.0
C1774 C 0.1013 0.02872 0.11169 0.0
C1775 C 0.07592 0.0816 0.20173 0.0
H1776 H 0.9683 0.06408 0.13651 0.0
H1777 H 1.00494 0.96567 0.1691 0.0
H1778 H 0.04319 0.11585 0.15082 0.0
H1779 H 0.04959 0.09782 0.11883 0.0
H1780 H 1.00604 0.11233 0.12874 0.0
H1781 H 0.0633 0.95769 0.18401 0.0
H1782 H 0.09391 0.97755 0.16118 0.0
H1783 H 0.0873 0.99743 0.19257 0.0
H1784 H 0.16622 0.05673 0.12151 0.0
H1785 H 0.1436 0.10337 0.19631 0.0
H1786 H 0.07776 0.04166 0.10278 0.0
H1787 H 0.09338 1.00136 0.11715 0.0
H1788 H 0.12264 0.02721 0.09673 0.0
H1789 H 0.05215 0.09653 0.19522 0.0
H1790 H 0.08913 0.09684 0.21758 0.0
H1791 H 0.06655 0.05597 0.20991 0.0
C1792 C 0.20366 0.89442 0.93687 0.0
C1793 C 0.20001 0.91326 0.91331 0.0
C1794 C 0.21482 0.85896 0.93706 0.0
C1795 C 0.22294 0.84199 0.91312 0.0
C1796 C 0.21989 0.86108 0.88925 0.0
C1797 C 0.20826 0.89654 0.88962 0.0
C1798 C 0.21755 0.83952 0.96288 0.0
C1799 C 0.22881 0.84398 0.86336 0.0
C1800 C 0.28438 0.76237 0.91387 0.0
C1801 C 0.26072 0.73412 0.90993 0.0
C1802 C 0.27235 0.79746 0.9154 0.0
C1803 C 0.23566 0.80459 0.91316 0.0
C1804 C 0.21139 0.77607 0.91059 0.0
C1805 C 0.22422 0.74109 0.90899 0.0
C1806 C 0.29911 0.82704 0.91824 0.0
C1807 C 0.17203 0.78263 0.90836 0.0
H1808 H 0.19708 0.90722 0.95524 0.0
H1809 H 0.20529 0.91104 0.87139 0.0
H1810 H 0.20026 0.81571 0.9626 0.0
H1811 H 0.24513 0.83018 0.96598 0.0
H1812 H 0.20979 0.85642 0.97974 0.0
H1813 H 0.22451 0.86216 0.84652 0.0
H1814 H 0.25694 0.83536 0.86337 0.0
H1815 H 0.21234 0.81992 0.86053 0.0
H1816 H 0.31264 0.7572 0.91469 0.0
H1817 H 0.20581 0.71949 0.90562 0.0
H1818 H 0.29237 0.84392 0.93531 0.0
H1819 H 0.29839 0.84425 0.9006 0.0
H1820 H 0.32656 0.81692 0.92078 0.0
H1821 H 0.16281 0.79978 0.92464 0.0
H1822 H 0.15651 0.75758 0.90863 0.0
H1823 H 0.16631 0.79683 0.88978 0.0
C1824 C 0.38 0.93137 0.68421 0.0
C1825 C 0.3564 0.93673 0.66336 0.0
C1826 C 0.41477 0.94453 0.68329 0.0
C1827 C 0.4265 0.96285 0.66069 0.0
C1828 C 0.40287 0.96797 0.63938 0.0
C1829 C 0.36787 0.95517 0.6411 0.0
C1830 C 0.43882 0.93911 0.70661 0.0
C1831 C 0.41459 0.98685 0.61476 0.0
C1832 C 0.5054 0.02537 0.66528 0.0
C1833 C 0.53302 1.00417 0.65569 0.0
C1834 C 0.47078 0.012 0.6676 0.0
C1835 C 0.46344 0.97684 0.65952 0.0
C1836 C 0.4914 0.95507 0.6503 0.0
C1837 C 0.52595 0.96888 0.64879 0.0
C1838 C 0.44192 0.03578 0.67815 0.0
C1839 C 0.48456 0.91764 0.6411 0.0
H1840 H 0.37111 0.91724 0.70152 0.0
H1841 H 0.34966 0.95918 0.62493 0.0
H1842 H 0.46262 0.92378 0.70073 0.0
H1843 H 0.44817 0.96515 0.714 0.0
H1844 H 0.42541 0.92481 0.72287 0.0
H1845 H 0.39401 0.98618 0.5992 0.0
H1846 H 0.4208 0.01494 0.61927 0.0
H1847 H 0.4392 0.97457 0.60707 0.0
H1848 H 0.51075 0.05272 0.67052 0.0
H1849 H 0.54706 0.95259 0.64085 0.0
H1850 H 0.42808 0.02255 0.69467 0.0
H1851 H 0.42189 0.04082 0.66268 0.0
H1852 H 0.45239 0.06168 0.68505 0.0
H1853 H 0.47291 0.90168 0.6572 0.0
H1854 H 0.5091 0.9043 0.6342 0.0
H1855 H 0.46503 0.91792 0.62484 0.0
loop_
_geom_bond_atom_site_label_1
_geom_bond_atom_site_label_2
_geom_bond_distance
_geom_bond_site_symmetry_2
_ccdc_geom_bond_type
Tb0 O3 2.453 . S
Tb0 O4 2.596 . S
Tb0 O5 2.374 . S
Tb0 O13 2.343 . S
Tb0 O15 2.353 . S
Tb0 O17 2.427 . S
Tb0 O18 2.513 . S
C1 O5 1.251 . S
C1 O7 1.263 . S
Tb2 O4 2.343 . S
Tb2 O7 2.353 . S
Tb2 O10 2.427 . S
Tb2 O11 2.513 . S
Tb2 O12 2.453 . S
Tb2 O13 2.596 . S
Tb2 O14 2.374 . S
O3 Tb0 2.453 . S
O3 C19 1.245 . S
O4 Tb0 2.596 . S
O4 Tb2 2.343 . S
O4 C19 1.259 . S
O5 Tb0 2.374 . S
O5 C1 1.251 . S
C6 O10 1.275 . S
C6 O11 1.246 . S
O7 C1 1.263 . S
O7 Tb2 2.353 . S
C8 O12 1.245 . S
C8 O13 1.259 . S
C9 O14 1.250 . S
C9 O15 1.263 . S
O10 Tb2 2.427 . S
O10 C6 1.275 . S
O11 Tb2 2.513 . S
O11 C6 1.246 . S
O12 Tb2 2.453 . S
O12 C8 1.245 . S
O13 Tb0 2.343 . S
O13 Tb2 2.596 . S
O13 C8 1.259 . S
O14 Tb2 2.374 . S
O14 C9 1.250 . S
O15 Tb0 2.353 . S
O15 C9 1.263 . S
C16 O17 1.275 . S
C16 O18 1.246 . S
O17 Tb0 2.427 . S
O17 C16 1.275 . S
O18 Tb0 2.513 . S
O18 C16 1.246 . S
C19 O3 1.245 . S
C19 O4 1.259 . S
Tb20 O23 2.453 . S
Tb20 O24 2.596 . S
Tb20 O25 2.374 . S
Tb20 O33 2.343 . S
Tb20 O35 2.353 . S
Tb20 O37 2.427 . S
Tb20 O38 2.513 . S
C21 O25 1.251 . S
C21 O27 1.263 . S
Tb22 O24 2.343 . S
Tb22 O27 2.353 . S
Tb22 O30 2.427 . S
Tb22 O31 2.513 . S
Tb22 O32 2.453 . S
Tb22 O33 2.596 . S
Tb22 O34 2.374 . S
O23 Tb20 2.453 . S
O23 C39 1.245 . S
O24 Tb20 2.596 . S
O24 Tb22 2.343 . S
O24 C39 1.259 . S
O25 Tb20 2.374 . S
O25 C21 1.251 . S
C26 O30 1.275 . S
C26 O31 1.246 . S
O27 C21 1.263 . S
O27 Tb22 2.353 . S
C28 O32 1.245 . S
C28 O33 1.259 . S
C29 O34 1.250 . S
C29 O35 1.263 . S
O30 Tb22 2.427 . S
O30 C26 1.275 . S
O31 Tb22 2.513 . S
O31 C26 1.246 . S
O32 Tb22 2.453 . S
O32 C28 1.245 . S
O33 Tb20 2.343 . S
O33 Tb22 2.596 . S
O33 C28 1.259 . S
O34 Tb22 2.374 . S
O34 C29 1.250 . S
O35 Tb20 2.353 . S
O35 C29 1.263 . S
C36 O37 1.275 . S
C36 O38 1.246 . S
O37 Tb20 2.427 . S
O37 C36 1.275 . S
O38 Tb20 2.513 . S
O38 C36 1.246 . S
C39 O23 1.245 . S
C39 O24 1.259 . S
Tb40 O43 2.453 . S
Tb40 O44 2.596 . S
Tb40 O45 2.374 . S
Tb40 O53 2.343 . S
Tb40 O55 2.353 . S
Tb40 O57 2.427 . S
Tb40 O58 2.513 . S
C41 O45 1.251 . S
C41 O47 1.263 . S
Tb42 O44 2.343 . S
Tb42 O47 2.353 . S
Tb42 O50 2.427 . S
Tb42 O51 2.513 . S
Tb42 O52 2.453 . S
Tb42 O53 2.596 . S
Tb42 O54 2.374 . S
O43 Tb40 2.453 . S
O43 C59 1.245 . S
O44 Tb40 2.596 . S
O44 Tb42 2.343 . S
O44 C59 1.259 . S
O45 Tb40 2.374 . S
O45 C41 1.251 . S
C46 O50 1.275 . S
C46 O51 1.246 . S
O47 C41 1.263 . S
O47 Tb42 2.353 . S
C48 O52 1.245 . S
C48 O53 1.259 . S
C49 O54 1.250 . S
C49 O55 1.263 . S
O50 Tb42 2.427 . S
O50 C46 1.275 . S
O51 Tb42 2.513 . S
O51 C46 1.246 . S
O52 Tb42 2.453 . S
O52 C48 1.245 . S
O53 Tb40 2.343 . S
O53 Tb42 2.596 . S
O53 C48 1.259 . S
O54 Tb42 2.374 . S
O54 C49 1.250 . S
O55 Tb40 2.353 . S
O55 C49 1.263 . S
C56 O57 1.275 . S
C56 O58 1.246 . S
O57 Tb40 2.427 . S
O57 C56 1.275 . S
O58 Tb40 2.513 . S
O58 C56 1.246 . S
C59 O43 1.245 . S
C59 O44 1.259 . S
Tb60 O63 2.453 . S
Tb60 O64 2.596 . S
Tb60 O65 2.374 . S
Tb60 O73 2.343 . S
Tb60 O75 2.353 . S
Tb60 O77 2.427 . S
Tb60 O78 2.513 . S
C61 O65 1.251 . S
C61 O67 1.263 . S
Tb62 O64 2.343 . S
Tb62 O67 2.353 . S
Tb62 O70 2.427 . S
Tb62 O71 2.513 . S
Tb62 O72 2.453 . S
Tb62 O73 2.596 . S
Tb62 O74 2.374 . S
O63 Tb60 2.453 . S
O63 C79 1.245 . S
O64 Tb60 2.596 . S
O64 Tb62 2.343 . S
O64 C79 1.259 . S
O65 Tb60 2.374 . S
O65 C61 1.251 . S
C66 O70 1.275 . S
C66 O71 1.246 . S
O67 C61 1.263 . S
O67 Tb62 2.353 . S
C68 O72 1.245 . S
C68 O73 1.259 . S
C69 O74 1.250 . S
C69 O75 1.263 . S
O70 Tb62 2.427 . S
O70 C66 1.275 . S
O71 Tb62 2.513 . S
O71 C66 1.246 . S
O72 Tb62 2.453 . S
O72 C68 1.245 . S
O73 Tb60 2.343 . S
O73 Tb62 2.596 . S
O73 C68 1.259 . S
O74 Tb62 2.374 . S
O74 C69 1.250 . S
O75 Tb60 2.353 . S
O75 C69 1.263 . S
C76 O77 1.275 . S
C76 O78 1.246 . S
O77 Tb60 2.427 . S
O77 C76 1.275 . S
O78 Tb60 2.513 . S
O78 C76 1.246 . S
C79 O63 1.245 . S
C79 O64 1.259 . S
Tb80 O83 2.453 . S
Tb80 O84 2.596 . S
Tb80 O85 2.374 . S
Tb80 O93 2.343 . S
Tb80 O95 2.353 . S
Tb80 O97 2.427 . S
Tb80 O98 2.513 . S
C81 O85 1.251 . S
C81 O87 1.263 . S
Tb82 O84 2.343 . S
Tb82 O87 2.353 . S
Tb82 O90 2.427 . S
Tb82 O91 2.513 . S
Tb82 O92 2.453 . S
Tb82 O93 2.596 . S
Tb82 O94 2.374 . S
O83 Tb80 2.453 . S
O83 C99 1.245 . S
O84 Tb80 2.596 . S
O84 Tb82 2.343 . S
O84 C99 1.259 . S
O85 Tb80 2.374 . S
O85 C81 1.251 . S
C86 O90 1.275 . S
C86 O91 1.246 . S
O87 C81 1.263 . S
O87 Tb82 2.353 . S
C88 O92 1.245 . S
C88 O93 1.259 . S
C89 O94 1.250 . S
C89 O95 1.263 . S
O90 Tb82 2.427 . S
O90 C86 1.275 . S
O91 Tb82 2.513 . S
O91 C86 1.246 . S
O92 Tb82 2.453 . S
O92 C88 1.245 . S
O93 Tb80 2.343 . S
O93 Tb82 2.596 . S
O93 C88 1.259 . S
O94 Tb82 2.374 . S
O94 C89 1.250 . S
O95 Tb80 2.353 . S
O95 C89 1.263 . S
C96 O97 1.275 . S
C96 O98 1.246 . S
O97 Tb80 2.427 . S
O97 C96 1.275 . S
O98 Tb80 2.513 . S
O98 C96 1.246 . S
C99 O83 1.245 . S
C99 O84 1.259 . S
Tb100 O103 2.453 . S
Tb100 O104 2.596 . S
Tb100 O105 2.374 . S
Tb100 O113 2.343 . S
Tb100 O115 2.353 . S
Tb100 O117 2.427 . S
Tb100 O118 2.513 . S
C101 O105 1.251 . S
C101 O107 1.263 . S
Tb102 O104 2.343 . S
Tb102 O107 2.353 . S
Tb102 O110 2.427 . S
Tb102 O111 2.513 . S
Tb102 O112 2.453 . S
Tb102 O113 2.596 . S
Tb102 O114 2.374 . S
O103 Tb100 2.453 . S
O103 C119 1.245 . S
O104 Tb100 2.596 . S
O104 Tb102 2.343 . S
O104 C119 1.259 . S
O105 Tb100 2.374 . S
O105 C101 1.251 . S
C106 O110 1.275 . S
C106 O111 1.246 . S
O107 C101 1.263 . S
O107 Tb102 2.353 . S
C108 O112 1.245 . S
C108 O113 1.259 . S
C109 O114 1.250 . S
C109 O115 1.263 . S
O110 Tb102 2.427 . S
O110 C106 1.275 . S
O111 Tb102 2.513 . S
O111 C106 1.246 . S
O112 Tb102 2.453 . S
O112 C108 1.245 . S
O113 Tb100 2.343 . S
O113 Tb102 2.596 . S
O113 C108 1.259 . S
O114 Tb102 2.374 . S
O114 C109 1.250 . S
O115 Tb100 2.353 . S
O115 C109 1.263 . S
C116 O117 1.275 . S
C116 O118 1.246 . S
O117 Tb100 2.427 . S
O117 C116 1.275 . S
O118 Tb100 2.513 . S
O118 C116 1.246 . S
C119 O103 1.245 . S
C119 O104 1.259 . S
Tb120 O123 2.453 . S
Tb120 O124 2.596 . S
Tb120 O125 2.374 . S
Tb120 O133 2.343 . S
Tb120 O135 2.353 . S
Tb120 O137 2.427 . S
Tb120 O138 2.513 . S
C121 O125 1.251 . S
C121 O127 1.263 . S
Tb122 O124 2.343 . S
Tb122 O127 2.353 . S
Tb122 O130 2.427 . S
Tb122 O131 2.513 . S
Tb122 O132 2.453 . S
Tb122 O133 2.596 . S
Tb122 O134 2.374 . S
O123 Tb120 2.453 . S
O123 C139 1.245 . S
O124 Tb120 2.596 . S
O124 Tb122 2.343 . S
O124 C139 1.259 . S
O125 Tb120 2.374 . S
O125 C121 1.251 . S
C126 O130 1.275 . S
C126 O131 1.246 . S
O127 C121 1.263 . S
O127 Tb122 2.353 . S
C128 O132 1.245 . S
C128 O133 1.259 . S
C129 O134 1.250 . S
C129 O135 1.263 . S
O130 Tb122 2.427 . S
O130 C126 1.275 . S
O131 Tb122 2.513 . S
O131 C126 1.246 . S
O132 Tb122 2.453 . S
O132 C128 1.245 . S
O133 Tb120 2.343 . S
O133 Tb122 2.596 . S
O133 C128 1.259 . S
O134 Tb122 2.374 . S
O134 C129 1.250 . S
O135 Tb120 2.353 . S
O135 C129 1.263 . S
C136 O137 1.275 . S
C136 O138 1.246 . S
O137 Tb120 2.427 . S
O137 C136 1.275 . S
O138 Tb120 2.513 . S
O138 C136 1.246 . S
C139 O123 1.245 . S
C139 O124 1.259 . S
Tb140 O143 2.453 . S
Tb140 O144 2.596 . S
Tb140 O145 2.374 . S
Tb140 O153 2.343 . S
Tb140 O155 2.353 . S
Tb140 O157 2.427 . S
Tb140 O158 2.513 . S
C141 O145 1.251 . S
C141 O147 1.263 . S
Tb142 O144 2.343 . S
Tb142 O147 2.353 . S
Tb142 O150 2.427 . S
Tb142 O151 2.513 . S
Tb142 O152 2.453 . S
Tb142 O153 2.596 . S
Tb142 O154 2.374 . S
O143 Tb140 2.453 . S
O143 C159 1.245 . S
O144 Tb140 2.596 . S
O144 Tb142 2.343 . S
O144 C159 1.259 . S
O145 Tb140 2.374 . S
O145 C141 1.251 . S
C146 O150 1.275 . S
C146 O151 1.246 . S
O147 C141 1.263 . S
O147 Tb142 2.353 . S
C148 O152 1.245 . S
C148 O153 1.259 . S
C149 O154 1.250 . S
C149 O155 1.263 . S
O150 Tb142 2.427 . S
O150 C146 1.275 . S
O151 Tb142 2.513 . S
O151 C146 1.246 . S
O152 Tb142 2.453 . S
O152 C148 1.245 . S
O153 Tb140 2.343 . S
O153 Tb142 2.596 . S
O153 C148 1.259 . S
O154 Tb142 2.374 . S
O154 C149 1.250 . S
O155 Tb140 2.353 . S
O155 C149 1.263 . S
C156 O157 1.275 . S
C156 O158 1.246 . S
O157 Tb140 2.427 . S
O157 C156 1.275 . S
O158 Tb140 2.513 . S
O158 C156 1.246 . S
C159 O143 1.245 . S
C159 O144 1.259 . S
Tb160 O163 2.453 . S
Tb160 O164 2.596 . S
Tb160 O165 2.374 . S
Tb160 O173 2.343 . S
Tb160 O175 2.353 . S
Tb160 O177 2.427 . S
Tb160 O178 2.513 . S
C161 O165 1.251 . S
C161 O167 1.263 . S
Tb162 O164 2.343 . S
Tb162 O167 2.353 . S
Tb162 O170 2.427 . S
Tb162 O171 2.513 . S
Tb162 O172 2.453 . S
Tb162 O173 2.596 . S
Tb162 O174 2.374 . S
O163 Tb160 2.453 . S
O163 C179 1.245 . S
O164 Tb160 2.596 . S
O164 Tb162 2.343 . S
O164 C179 1.259 . S
O165 Tb160 2.374 . S
O165 C161 1.251 . S
C166 O170 1.275 . S
C166 O171 1.246 . S
O167 C161 1.263 . S
O167 Tb162 2.353 . S
C168 O172 1.245 . S
C168 O173 1.259 . S
C169 O174 1.250 . S
C169 O175 1.263 . S
O170 Tb162 2.427 . S
O170 C166 1.275 . S
O171 Tb162 2.513 . S
O171 C166 1.246 . S
O172 Tb162 2.453 . S
O172 C168 1.245 . S
O173 Tb160 2.343 . S
O173 Tb162 2.596 . S
O173 C168 1.259 . S
O174 Tb162 2.374 . S
O174 C169 1.250 . S
O175 Tb160 2.353 . S
O175 C169 1.263 . S
C176 O177 1.275 . S
C176 O178 1.246 . S
O177 Tb160 2.427 . S
O177 C176 1.275 . S
O178 Tb160 2.513 . S
O178 C176 1.246 . S
C179 O163 1.245 . S
C179 O164 1.259 . S
Tb180 O183 2.453 . S
Tb180 O184 2.596 . S
Tb180 O185 2.374 . S
Tb180 O193 2.343 . S
Tb180 O195 2.353 . S
Tb180 O197 2.427 . S
Tb180 O198 2.513 . S
C181 O185 1.251 1_565 S
C181 O187 1.263 . S
Tb182 O184 2.343 1_565 S
Tb182 O187 2.353 . S
Tb182 O190 2.427 . S
Tb182 O191 2.513 . S
Tb182 O192 2.453 . S
Tb182 O193 2.596 1_565 S
Tb182 O194 2.374 1_565 S
O183 Tb180 2.453 . S
O183 C199 1.245 . S
O184 Tb180 2.596 . S
O184 Tb182 2.343 1_545 S
O184 C199 1.259 . S
O185 Tb180 2.374 . S
O185 C181 1.251 1_545 S
C186 O190 1.275 . S
C186 O191 1.246 . S
O187 C181 1.263 . S
O187 Tb182 2.353 . S
C188 O192 1.245 1_545 S
C188 O193 1.259 . S
C189 O194 1.250 . S
C189 O195 1.263 . S
O190 Tb182 2.427 . S
O190 C186 1.275 . S
O191 Tb182 2.513 . S
O191 C186 1.246 . S
O192 Tb182 2.453 . S
O192 C188 1.245 1_565 S
O193 Tb180 2.343 . S
O193 Tb182 2.596 1_545 S
O193 C188 1.259 . S
O194 Tb182 2.374 1_545 S
O194 C189 1.250 . S
O195 Tb180 2.353 . S
O195 C189 1.263 . S
C196 O197 1.275 . S
C196 O198 1.246 . S
O197 Tb180 2.427 . S
O197 C196 1.275 . S
O198 Tb180 2.513 . S
O198 C196 1.246 . S
C199 O183 1.245 . S
C199 O184 1.259 . S
Tb200 O203 2.453 . S
Tb200 O204 2.596 . S
Tb200 O205 2.374 . S
Tb200 O213 2.343 . S
Tb200 O215 2.353 . S
Tb200 O217 2.427 . S
Tb200 O218 2.513 . S
C201 O205 1.251 . S
C201 O207 1.263 . S
Tb202 O204 2.343 . S
Tb202 O207 2.353 . S
Tb202 O210 2.427 . S
Tb202 O211 2.513 . S
Tb202 O212 2.453 . S
Tb202 O213 2.596 . S
Tb202 O214 2.374 . S
O203 Tb200 2.453 . S
O203 C219 1.245 . S
O204 Tb200 2.596 . S
O204 Tb202 2.343 . S
O204 C219 1.259 . S
O205 Tb200 2.374 . S
O205 C201 1.251 . S
C206 O210 1.275 . S
C206 O211 1.246 . S
O207 C201 1.263 . S
O207 Tb202 2.353 . S
C208 O212 1.245 . S
C208 O213 1.259 . S
C209 O214 1.250 . S
C209 O215 1.263 . S
O210 Tb202 2.427 . S
O210 C206 1.275 . S
O211 Tb202 2.513 . S
O211 C206 1.246 . S
O212 Tb202 2.453 . S
O212 C208 1.245 . S
O213 Tb200 2.343 . S
O213 Tb202 2.596 . S
O213 C208 1.259 . S
O214 Tb202 2.374 . S
O214 C209 1.250 . S
O215 Tb200 2.353 . S
O215 C209 1.263 . S
C216 O217 1.275 . S
C216 O218 1.246 . S
O217 Tb200 2.427 . S
O217 C216 1.275 . S
O218 Tb200 2.513 . S
O218 C216 1.246 . S
C219 O203 1.245 . S
C219 O204 1.259 . S
Tb220 O223 2.453 . S
Tb220 O224 2.596 . S
Tb220 O225 2.374 . S
Tb220 O233 2.343 . S
Tb220 O235 2.353 . S
Tb220 O237 2.427 . S
Tb220 O238 2.513 . S
C221 O225 1.251 1_545 S
C221 O227 1.263 . S
Tb222 O224 2.343 1_545 S
Tb222 O227 2.353 . S
Tb222 O230 2.427 . S
Tb222 O231 2.513 . S
Tb222 O232 2.453 . S
Tb222 O233 2.596 1_545 S
Tb222 O234 2.374 1_545 S
O223 Tb220 2.453 . S
O223 C239 1.245 . S
O224 Tb220 2.596 . S
O224 Tb222 2.343 1_565 S
O224 C239 1.259 . S
O225 Tb220 2.374 . S
O225 C221 1.251 1_565 S
C226 O230 1.275 . S
C226 O231 1.246 . S
O227 C221 1.263 . S
O227 Tb222 2.353 . S
C228 O232 1.245 1_565 S
C228 O233 1.259 . S
C229 O234 1.250 . S
C229 O235 1.263 . S
O230 Tb222 2.427 . S
O230 C226 1.275 . S
O231 Tb222 2.513 . S
O231 C226 1.246 . S
O232 Tb222 2.453 . S
O232 C228 1.245 1_545 S
O233 Tb220 2.343 . S
O233 Tb222 2.596 1_565 S
O233 C228 1.259 . S
O234 Tb222 2.374 1_565 S
O234 C229 1.250 . S
O235 Tb220 2.353 . S
O235 C229 1.263 . S
C236 O237 1.275 . S
C236 O238 1.246 . S
O237 Tb220 2.427 . S
O237 C236 1.275 . S
O238 Tb220 2.513 . S
O238 C236 1.246 . S
C239 O223 1.245 . S
C239 O224 1.259 . S
Tb240 O243 2.453 . S
Tb240 O244 2.596 . S
Tb240 O245 2.374 . S
Tb240 O253 2.343 . S
Tb240 O255 2.353 . S
Tb240 O257 2.427 . S
Tb240 O258 2.513 . S
C241 O245 1.251 . S
C241 O247 1.263 . S
Tb242 O244 2.343 . S
Tb242 O247 2.353 . S
Tb242 O250 2.427 . S
Tb242 O251 2.513 . S
Tb242 O252 2.453 . S
Tb242 O253 2.596 . S
Tb242 O254 2.374 . S
O243 Tb240 2.453 . S
O243 C259 1.245 . S
O244 Tb240 2.596 . S
O244 Tb242 2.343 . S
O244 C259 1.259 . S
O245 Tb240 2.374 . S
O245 C241 1.251 . S
C246 O250 1.275 . S
C246 O251 1.246 . S
O247 C241 1.263 . S
O247 Tb242 2.353 . S
C248 O252 1.245 . S
C248 O253 1.259 . S
C249 O254 1.250 . S
C249 O255 1.263 . S
O250 Tb242 2.427 . S
O250 C246 1.275 . S
O251 Tb242 2.513 . S
O251 C246 1.246 . S
O252 Tb242 2.453 . S
O252 C248 1.245 . S
O253 Tb240 2.343 . S
O253 Tb242 2.596 . S
O253 C248 1.259 . S
O254 Tb242 2.374 . S
O254 C249 1.250 . S
O255 Tb240 2.353 . S
O255 C249 1.263 . S
C256 O257 1.275 . S
C256 O258 1.246 . S
O257 Tb240 2.427 . S
O257 C256 1.275 . S
O258 Tb240 2.513 . S
O258 C256 1.246 . S
C259 O243 1.245 . S
C259 O244 1.259 . S
Tb260 O263 2.453 . S
Tb260 O264 2.596 1_545 S
Tb260 O265 2.374 1_545 S
Tb260 O273 2.343 1_545 S
Tb260 O275 2.353 . S
Tb260 O277 2.427 . S
Tb260 O278 2.513 . S
C261 O265 1.251 . S
C261 O267 1.263 . S
Tb262 O264 2.343 . S
Tb262 O267 2.353 . S
Tb262 O270 2.427 . S
Tb262 O271 2.513 . S
Tb262 O272 2.453 . S
Tb262 O273 2.596 . S
Tb262 O274 2.374 . S
O263 Tb260 2.453 . S
O263 C279 1.245 1_545 S
O264 Tb260 2.596 1_565 S
O264 Tb262 2.343 . S
O264 C279 1.259 . S
O265 Tb260 2.374 1_565 S
O265 C261 1.251 . S
C266 O270 1.275 . S
C266 O271 1.246 . S
O267 C261 1.263 . S
O267 Tb262 2.353 . S
C268 O272 1.245 . S
C268 O273 1.259 . S
C269 O274 1.250 1_545 S
C269 O275 1.263 . S
O270 Tb262 2.427 . S
O270 C266 1.275 . S
O271 Tb262 2.513 . S
O271 C266 1.246 . S
O272 Tb262 2.453 . S
O272 C268 1.245 . S
O273 Tb260 2.343 1_565 S
O273 Tb262 2.596 . S
O273 C268 1.259 . S
O274 Tb262 2.374 . S
O274 C269 1.250 1_565 S
O275 Tb260 2.353 . S
O275 C269 1.263 . S
C276 O277 1.275 . S
C276 O278 1.246 . S
O277 Tb260 2.427 . S
O277 C276 1.275 . S
O278 Tb260 2.513 . S
O278 C276 1.246 . S
C279 O263 1.245 1_565 S
C279 O264 1.259 . S
Tb280 O283 2.453 . S
Tb280 O284 2.596 . S
Tb280 O285 2.374 . S
Tb280 O293 2.343 . S
Tb280 O295 2.353 . S
Tb280 O297 2.427 . S
Tb280 O298 2.513 . S
C281 O285 1.251 . S
C281 O287 1.263 . S
Tb282 O284 2.343 . S
Tb282 O287 2.353 . S
Tb282 O290 2.427 . S
Tb282 O291 2.513 . S
Tb282 O292 2.453 . S
Tb282 O293 2.596 . S
Tb282 O294 2.374 . S
O283 Tb280 2.453 . S
O283 C299 1.245 . S
O284 Tb280 2.596 . S
O284 Tb282 2.343 . S
O284 C299 1.259 . S
O285 Tb280 2.374 . S
O285 C281 1.251 . S
C286 O290 1.275 . S
C286 O291 1.246 . S
O287 C281 1.263 . S
O287 Tb282 2.353 . S
C288 O292 1.245 . S
C288 O293 1.259 . S
C289 O294 1.250 . S
C289 O295 1.263 . S
O290 Tb282 2.427 . S
O290 C286 1.275 . S
O291 Tb282 2.513 . S
O291 C286 1.246 . S
O292 Tb282 2.453 . S
O292 C288 1.245 . S
O293 Tb280 2.343 . S
O293 Tb282 2.596 . S
O293 C288 1.259 . S
O294 Tb282 2.374 . S
O294 C289 1.250 . S
O295 Tb280 2.353 . S
O295 C289 1.263 . S
C296 O297 1.275 . S
C296 O298 1.246 . S
O297 Tb280 2.427 . S
O297 C296 1.275 . S
O298 Tb280 2.513 . S
O298 C296 1.246 . S
C299 O283 1.245 . S
C299 O284 1.259 . S
Tb300 O303 2.453 . S
Tb300 O304 2.596 1_565 S
Tb300 O305 2.374 1_565 S
Tb300 O313 2.343 1_565 S
Tb300 O315 2.353 . S
Tb300 O317 2.427 . S
Tb300 O318 2.513 . S
C301 O305 1.251 . S
C301 O307 1.263 . S
Tb302 O304 2.343 . S
Tb302 O307 2.353 . S
Tb302 O310 2.427 . S
Tb302 O311 2.513 . S
Tb302 O312 2.453 . S
Tb302 O313 2.596 . S
Tb302 O314 2.374 . S
O303 Tb300 2.453 . S
O303 C319 1.245 1_565 S
O304 Tb300 2.596 1_545 S
O304 Tb302 2.343 . S
O304 C319 1.259 . S
O305 Tb300 2.374 1_545 S
O305 C301 1.251 . S
C306 O310 1.275 . S
C306 O311 1.246 . S
O307 C301 1.263 . S
O307 Tb302 2.353 . S
C308 O312 1.245 . S
C308 O313 1.259 . S
C309 O314 1.250 1_565 S
C309 O315 1.263 . S
O310 Tb302 2.427 . S
O310 C306 1.275 . S
O311 Tb302 2.513 . S
O311 C306 1.246 . S
O312 Tb302 2.453 . S
O312 C308 1.245 . S
O313 Tb300 2.343 1_545 S
O313 Tb302 2.596 . S
O313 C308 1.259 . S
O314 Tb302 2.374 . S
O314 C309 1.250 1_545 S
O315 Tb300 2.353 . S
O315 C309 1.263 . S
C316 O317 1.275 . S
C316 O318 1.246 . S
O317 Tb300 2.427 . S
O317 C316 1.275 . S
O318 Tb300 2.513 . S
O318 C316 1.246 . S
C319 O303 1.245 1_545 S
C319 O304 1.259 . S
C320 C321 1.391 . S
C320 C322 1.394 . S
C320 H336 0.931 . S
C321 C320 1.391 . S
C321 C325 1.376 . S
C322 C320 1.394 . S
C322 C323 1.369 . S
C322 C326 1.531 . S
C323 C322 1.369 . S
C323 C324 1.410 . S
C323 C331 1.503 . S
C324 C323 1.410 . S
C324 C325 1.392 . S
C324 C327 1.511 . S
C325 C321 1.376 . S
C325 C324 1.392 . S
C325 H337 0.929 . S
C326 C322 1.531 . S
C326 H338 0.960 . S
C326 H339 0.962 . S
C326 H340 0.960 . S
C327 C324 1.511 . S
C327 H341 0.961 . S
C327 H342 0.961 . S
C327 H343 0.961 . S
C328 C329 1.370 . S
C328 C330 1.363 . S
C328 H344 0.931 . S
C329 C328 1.370 . S
C329 C333 1.408 . S
C330 C328 1.363 . S
C330 C331 1.370 . S
C330 C334 1.524 . S
C331 C323 1.503 . S
C331 C330 1.370 . S
C331 C332 1.403 . S
C332 C331 1.403 . S
C332 C333 1.404 . S
C332 C335 1.539 . S
C333 C329 1.408 . S
C333 C332 1.404 . S
C333 H345 0.930 . S
C334 C330 1.524 . S
C334 H346 0.956 . S
C334 H347 0.961 . S
C334 H348 0.961 . S
C335 C332 1.539 . S
C335 H349 0.958 . S
C335 H350 0.961 . S
C335 H351 0.960 . S
H336 C320 0.931 . S
H337 C325 0.929 . S
H338 C326 0.960 . S
H339 C326 0.962 . S
H340 C326 0.960 . S
H341 C327 0.961 . S
H342 C327 0.961 . S
H343 C327 0.961 . S
H344 C328 0.931 . S
H345 C333 0.930 . S
H346 C334 0.956 . S
H347 C334 0.961 . S
H348 C334 0.961 . S
H349 C335 0.958 . S
H350 C335 0.961 . S
H351 C335 0.960 . S
C352 C353 1.391 . S
C352 C354 1.394 . S
C352 H368 0.931 . S
C353 C352 1.391 . S
C353 C357 1.376 . S
C354 C352 1.394 . S
C354 C355 1.369 . S
C354 C358 1.531 . S
C355 C354 1.369 . S
C355 C356 1.410 . S
C355 C363 1.503 . S
C356 C355 1.410 . S
C356 C357 1.392 . S
C356 C359 1.511 . S
C357 C353 1.376 . S
C357 C356 1.392 . S
C357 H369 0.929 . S
C358 C354 1.531 . S
C358 H370 0.960 . S
C358 H371 0.962 . S
C358 H372 0.960 . S
C359 C356 1.511 . S
C359 H373 0.961 . S
C359 H374 0.961 . S
C359 H375 0.961 . S
C360 C361 1.370 . S
C360 C362 1.363 . S
C360 H376 0.931 . S
C361 C360 1.370 . S
C361 C365 1.408 . S
C362 C360 1.363 . S
C362 C363 1.370 . S
C362 C366 1.524 . S
C363 C355 1.503 . S
C363 C362 1.370 . S
C363 C364 1.403 . S
C364 C363 1.403 . S
C364 C365 1.404 . S
C364 C367 1.539 . S
C365 C361 1.408 . S
C365 C364 1.404 . S
C365 H377 0.930 . S
C366 C362 1.524 . S
C366 H378 0.956 . S
C366 H379 0.961 . S
C366 H380 0.961 . S
C367 C364 1.539 . S
C367 H381 0.958 . S
C367 H382 0.961 . S
C367 H383 0.960 . S
H368 C352 0.931 . S
H369 C357 0.929 . S
H370 C358 0.960 . S
H371 C358 0.962 . S
H372 C358 0.960 . S
H373 C359 0.961 . S
H374 C359 0.961 . S
H375 C359 0.961 . S
H376 C360 0.931 . S
H377 C365 0.930 . S
H378 C366 0.956 . S
H379 C366 0.961 . S
H380 C366 0.961 . S
H381 C367 0.958 . S
H382 C367 0.961 . S
H383 C367 0.960 . S
C384 C385 1.391 . S
C384 C386 1.394 . S
C384 H400 0.931 . S
C385 C384 1.391 . S
C385 C389 1.376 . S
C386 C384 1.394 . S
C386 C387 1.369 . S
C386 C390 1.531 . S
C387 C386 1.369 . S
C387 C388 1.410 . S
C387 C395 1.503 . S
C388 C387 1.410 . S
C388 C389 1.392 . S
C388 C391 1.511 . S
C389 C385 1.376 . S
C389 C388 1.392 . S
C389 H401 0.929 . S
C390 C386 1.531 . S
C390 H402 0.960 . S
C390 H403 0.962 . S
C390 H404 0.960 . S
C391 C388 1.511 . S
C391 H405 0.961 . S
C391 H406 0.961 . S
C391 H407 0.961 . S
C392 C393 1.370 . S
C392 C394 1.363 . S
C392 H408 0.931 . S
C393 C392 1.370 . S
C393 C397 1.408 . S
C394 C392 1.363 . S
C394 C395 1.370 . S
C394 C398 1.524 . S
C395 C387 1.503 . S
C395 C394 1.370 . S
C395 C396 1.403 . S
C396 C395 1.403 . S
C396 C397 1.404 . S
C396 C399 1.539 . S
C397 C393 1.408 . S
C397 C396 1.404 . S
C397 H409 0.930 . S
C398 C394 1.524 . S
C398 H410 0.956 . S
C398 H411 0.961 . S
C398 H412 0.961 . S
C399 C396 1.539 . S
C399 H413 0.958 . S
C399 H414 0.961 . S
C399 H415 0.960 . S
H400 C384 0.931 . S
H401 C389 0.929 . S
H402 C390 0.960 . S
H403 C390 0.962 . S
H404 C390 0.960 . S
H405 C391 0.961 . S
H406 C391 0.961 . S
H407 C391 0.961 . S
H408 C392 0.931 . S
H409 C397 0.930 . S
H410 C398 0.956 . S
H411 C398 0.961 . S
H412 C398 0.961 . S
H413 C399 0.958 . S
H414 C399 0.961 . S
H415 C399 0.960 . S
C416 C417 1.391 . S
C416 C418 1.394 . S
C416 H432 0.931 . S
C417 C416 1.391 . S
C417 C421 1.376 . S
C418 C416 1.394 . S
C418 C419 1.369 . S
C418 C422 1.531 1_655 S
C419 C418 1.369 . S
C419 C420 1.410 1_556 S
C419 C427 1.503 1_656 S
C420 C419 1.410 1_554 S
C420 C421 1.392 1_554 S
C420 C423 1.511 . S
C421 C417 1.376 . S
C421 C420 1.392 1_556 S
C421 H433 0.929 . S
C422 C418 1.531 1_455 S
C422 H434 0.960 . S
C422 H435 0.962 . S
C422 H436 0.960 1_455 S
C423 C420 1.511 . S
C423 H437 0.961 . S
C423 H438 0.961 . S
C423 H439 0.961 . S
C424 C425 1.370 . S
C424 C426 1.363 . S
C424 H440 0.931 . S
C425 C424 1.370 . S
C425 C429 1.408 . S
C426 C424 1.363 . S
C426 C427 1.370 . S
C426 C430 1.524 1_554 S
C427 C419 1.503 1_454 S
C427 C426 1.370 . S
C427 C428 1.403 . S
C428 C427 1.403 . S
C428 C429 1.404 . S
C428 C431 1.539 1_455 S
C429 C425 1.408 . S
C429 C428 1.404 . S
C429 H441 0.930 . S
C430 C426 1.524 1_556 S
C430 H442 0.956 . S
C430 H443 0.961 . S
C430 H444 0.961 . S
C431 C428 1.539 1_655 S
C431 H445 0.958 . S
C431 H446 0.961 . S
C431 H447 0.960 . S
H432 C416 0.931 . S
H433 C421 0.929 . S
H434 C422 0.960 . S
H435 C422 0.962 . S
H436 C422 0.960 1_655 S
H437 C423 0.961 . S
H438 C423 0.961 . S
H439 C423 0.961 . S
H440 C424 0.931 . S
H441 C429 0.930 . S
H442 C430 0.956 . S
H443 C430 0.961 . S
H444 C430 0.961 . S
H445 C431 0.958 . S
H446 C431 0.961 . S
H447 C431 0.960 . S
C448 C449 1.391 . S
C448 C450 1.394 . S
C448 H464 0.931 . S
C449 C448 1.391 . S
C449 C453 1.376 . S
C450 C448 1.394 . S
C450 C451 1.369 . S
C450 C454 1.531 . S
C451 C450 1.369 . S
C451 C452 1.410 . S
C451 C459 1.503 . S
C452 C451 1.410 . S
C452 C453 1.392 . S
C452 C455 1.511 . S
C453 C449 1.376 . S
C453 C452 1.392 . S
C453 H465 0.929 . S
C454 C450 1.531 . S
C454 H466 0.960 . S
C454 H467 0.962 . S
C454 H468 0.960 . S
C455 C452 1.511 . S
C455 H469 0.961 . S
C455 H470 0.961 . S
C455 H471 0.961 . S
C456 C457 1.370 . S
C456 C458 1.363 . S
C456 H472 0.931 . S
C457 C456 1.370 . S
C457 C461 1.408 . S
C458 C456 1.363 . S
C458 C459 1.370 . S
C458 C462 1.524 . S
C459 C451 1.503 . S
C459 C458 1.370 . S
C459 C460 1.403 . S
C460 C459 1.403 . S
C460 C461 1.404 . S
C460 C463 1.539 . S
C461 C457 1.408 . S
C461 C460 1.404 . S
C461 H473 0.930 . S
C462 C458 1.524 . S
C462 H474 0.956 . S
C462 H475 0.961 . S
C462 H476 0.961 . S
C463 C460 1.539 . S
C463 H477 0.958 . S
C463 H478 0.961 . S
C463 H479 0.960 . S
H464 C448 0.931 . S
H465 C453 0.929 . S
H466 C454 0.960 . S
H467 C454 0.962 . S
H468 C454 0.960 . S
H469 C455 0.961 . S
H470 C455 0.961 . S
H471 C455 0.961 . S
H472 C456 0.931 . S
H473 C461 0.930 . S
H474 C462 0.956 . S
H475 C462 0.961 . S
H476 C462 0.961 . S
H477 C463 0.958 . S
H478 C463 0.961 . S
H479 C463 0.960 . S
C480 C481 1.391 . S
C480 C482 1.394 . S
C480 H496 0.931 . S
C481 C480 1.391 . S
C481 C485 1.376 . S
C482 C480 1.394 . S
C482 C483 1.369 . S
C482 C486 1.531 . S
C483 C482 1.369 . S
C483 C484 1.410 . S
C483 C491 1.503 . S
C484 C483 1.410 . S
C484 C485 1.392 . S
C484 C487 1.511 . S
C485 C481 1.376 . S
C485 C484 1.392 . S
C485 H497 0.929 . S
C486 C482 1.531 . S
C486 H498 0.960 . S
C486 H499 0.962 . S
C486 H500 0.960 . S
C487 C484 1.511 . S
C487 H501 0.961 . S
C487 H502 0.961 . S
C487 H503 0.961 . S
C488 C489 1.370 . S
C488 C490 1.363 . S
C488 H504 0.931 . S
C489 C488 1.370 . S
C489 C493 1.408 . S
C490 C488 1.363 . S
C490 C491 1.370 . S
C490 C494 1.524 . S
C491 C483 1.503 . S
C491 C490 1.370 . S
C491 C492 1.403 . S
C492 C491 1.403 . S
C492 C493 1.404 . S
C492 C495 1.539 . S
C493 C489 1.408 . S
C493 C492 1.404 . S
C493 H505 0.930 . S
C494 C490 1.524 . S
C494 H506 0.956 . S
C494 H507 0.961 . S
C494 H508 0.961 . S
C495 C492 1.539 . S
C495 H509 0.958 . S
C495 H510 0.961 . S
C495 H511 0.960 . S
H496 C480 0.931 . S
H497 C485 0.929 . S
H498 C486 0.960 . S
H499 C486 0.962 . S
H500 C486 0.960 . S
H501 C487 0.961 . S
H502 C487 0.961 . S
H503 C487 0.961 . S
H504 C488 0.931 . S
H505 C493 0.930 . S
H506 C494 0.956 . S
H507 C494 0.961 . S
H508 C494 0.961 . S
H509 C495 0.958 . S
H510 C495 0.961 . S
H511 C495 0.960 . S
C512 C513 1.391 . S
C512 C514 1.394 . S
C512 H528 0.931 . S
C513 C512 1.391 . S
C513 C517 1.376 . S
C514 C512 1.394 . S
C514 C515 1.369 . S
C514 C518 1.532 1_665 S
C515 C514 1.369 . S
C515 C516 1.410 1_554 S
C515 C523 1.503 1_664 S
C516 C515 1.410 1_556 S
C516 C517 1.392 1_556 S
C516 C519 1.511 . S
C517 C513 1.376 . S
C517 C516 1.392 1_554 S
C517 H529 0.929 . S
C518 C514 1.532 1_445 S
C518 H530 0.960 1_545 S
C518 H531 0.959 . S
C518 H532 0.962 1_545 S
C519 C516 1.511 . S
C519 H533 0.961 . S
C519 H534 0.961 . S
C519 H535 0.961 . S
C520 C521 1.370 . S
C520 C522 1.363 . S
C520 H536 0.931 . S
C521 C520 1.370 . S
C521 C525 1.438 . S
C522 C520 1.363 . S
C522 C523 1.370 . S
C522 C526 1.524 1_455 S
C523 C515 1.503 1_446 S
C523 C522 1.370 . S
C523 C524 1.403 1_545 S
C524 C523 1.403 1_565 S
C524 C525 1.390 1_565 S
C524 C527 1.539 . S
C525 C521 1.438 . S
C525 C524 1.390 1_545 S
C525 H537 0.915 1_545 S
C526 C522 1.524 1_655 S
C526 H538 0.956 1_556 S
C526 H539 0.961 . S
C526 H540 0.961 . S
C527 C524 1.539 . S
C527 H541 0.936 1_556 S
C527 H542 0.961 . S
C527 H543 0.960 . S
H528 C512 0.931 . S
H529 C517 0.929 . S
H530 C518 0.960 1_565 S
H531 C518 0.959 . S
H532 C518 0.962 1_565 S
H533 C519 0.961 . S
H534 C519 0.961 . S
H535 C519 0.961 . S
H536 C520 0.931 . S
H537 C525 0.915 1_565 S
H538 C526 0.956 1_554 S
H539 C526 0.961 . S
H540 C526 0.961 . S
H541 C527 0.936 1_554 S
H542 C527 0.961 . S
H543 C527 0.960 . S
C544 C545 1.391 . S
C544 C546 1.394 . S
C544 H560 0.931 . S
C545 C544 1.391 . S
C545 C549 1.376 . S
C546 C544 1.394 . S
C546 C547 1.369 . S
C546 C550 1.531 . S
C547 C546 1.369 . S
C547 C548 1.410 1_565 S
C547 C555 1.503 1_565 S
C548 C547 1.410 1_545 S
C548 C549 1.393 1_545 S
C548 C551 1.511 . S
C549 C545 1.376 . S
C549 C548 1.393 1_565 S
C549 H561 0.929 . S
C550 C546 1.531 . S
C550 H562 0.960 1_565 S
C550 H563 0.962 . S
C550 H564 0.960 . S
C551 C548 1.511 . S
C551 H565 0.961 . S
C551 H566 0.961 . S
C551 H567 0.961 . S
C552 C553 1.370 . S
C552 C554 1.363 1_545 S
C552 H568 0.931 1_545 S
C553 C552 1.370 . S
C553 C557 1.408 . S
C554 C552 1.363 1_565 S
C554 C555 1.370 1_565 S
C554 C558 1.524 . S
C555 C547 1.503 1_545 S
C555 C554 1.370 1_545 S
C555 C556 1.403 . S
C556 C555 1.403 . S
C556 C557 1.404 . S
C556 C559 1.539 . S
C557 C553 1.408 . S
C557 C556 1.404 . S
C557 H569 0.930 . S
C558 C554 1.524 . S
C558 H570 0.956 . S
C558 H571 0.961 . S
C558 H572 0.961 . S
C559 C556 1.539 . S
C559 H573 0.958 . S
C559 H574 0.961 . S
C559 H575 0.960 . S
H560 C544 0.931 . S
H561 C549 0.929 . S
H562 C550 0.960 1_545 S
H563 C550 0.962 . S
H564 C550 0.960 . S
H565 C551 0.961 . S
H566 C551 0.961 . S
H567 C551 0.961 . S
H568 C552 0.931 1_565 S
H569 C557 0.930 . S
H570 C558 0.956 . S
H571 C558 0.961 . S
H572 C558 0.961 . S
H573 C559 0.958 . S
H574 C559 0.961 . S
H575 C559 0.960 . S
C576 C577 1.391 . S
C576 C578 1.394 1_556 S
C576 H592 0.931 . S
C577 C576 1.391 . S
C577 C581 1.376 . S
C578 C576 1.394 1_554 S
C578 C579 1.369 . S
C578 C582 1.531 . S
C579 C578 1.369 . S
C579 C580 1.410 . S
C579 C587 1.503 . S
C580 C579 1.410 . S
C580 C581 1.392 1_554 S
C580 C583 1.511 . S
C581 C577 1.376 . S
C581 C580 1.392 1_556 S
C581 H593 0.929 . S
C582 C578 1.531 . S
C582 H594 0.960 . S
C582 H595 0.962 . S
C582 H596 0.960 . S
C583 C580 1.511 . S
C583 H597 0.961 1_554 S
C583 H598 0.961 . S
C583 H599 0.961 . S
C584 C585 1.370 . S
C584 C586 1.363 . S
C584 H600 0.931 . S
C585 C584 1.370 . S
C585 C589 1.408 . S
C586 C584 1.363 . S
C586 C587 1.370 . S
C586 C590 1.524 . S
C587 C579 1.503 . S
C587 C586 1.370 . S
C587 C588 1.403 . S
C588 C587 1.403 . S
C588 C589 1.404 . S
C588 C591 1.539 . S
C589 C585 1.408 . S
C589 C588 1.404 . S
C589 H601 0.930 . S
C590 C586 1.524 . S
C590 H602 0.956 . S
C590 H603 0.961 . S
C590 H604 0.961 . S
C591 C588 1.539 . S
C591 H605 0.958 . S
C591 H606 0.961 . S
C591 H607 0.960 . S
H592 C576 0.931 . S
H593 C581 0.929 . S
H594 C582 0.960 . S
H595 C582 0.962 . S
H596 C582 0.960 . S
H597 C583 0.961 1_556 S
H598 C583 0.961 . S
H599 C583 0.961 . S
H600 C584 0.931 . S
H601 C589 0.930 . S
H602 C590 0.956 . S
H603 C590 0.961 . S
H604 C590 0.961 . S
H605 C591 0.958 . S
H606 C591 0.961 . S
H607 C591 0.960 . S
C608 C609 1.391 . S
C608 C610 1.394 . S
C608 H624 0.931 . S
C609 C608 1.391 . S
C609 C613 1.376 . S
C610 C608 1.394 . S
C610 C611 1.369 . S
C610 C614 1.531 . S
C611 C610 1.369 . S
C611 C612 1.410 . S
C611 C619 1.503 . S
C612 C611 1.410 . S
C612 C613 1.392 . S
C612 C615 1.511 . S
C613 C609 1.376 . S
C613 C612 1.392 . S
C613 H625 0.929 . S
C614 C610 1.531 . S
C614 H626 0.960 . S
C614 H627 0.962 . S
C614 H628 0.960 . S
C615 C612 1.511 . S
C615 H629 0.961 . S
C615 H630 0.961 . S
C615 H631 0.961 . S
C616 C617 1.370 . S
C616 C618 1.363 . S
C616 H632 0.931 . S
C617 C616 1.370 . S
C617 C621 1.408 . S
C618 C616 1.363 . S
C618 C619 1.370 . S
C618 C622 1.524 . S
C619 C611 1.503 . S
C619 C618 1.370 . S
C619 C620 1.403 . S
C620 C619 1.403 . S
C620 C621 1.404 . S
C620 C623 1.539 . S
C621 C617 1.408 . S
C621 C620 1.404 . S
C621 H633 0.930 . S
C622 C618 1.524 . S
C622 H634 0.956 . S
C622 H635 0.961 . S
C622 H636 0.961 . S
C623 C620 1.539 . S
C623 H637 0.958 . S
C623 H638 0.961 . S
C623 H639 0.960 . S
H624 C608 0.931 . S
H625 C613 0.929 . S
H626 C614 0.960 . S
H627 C614 0.962 . S
H628 C614 0.960 . S
H629 C615 0.961 . S
H630 C615 0.961 . S
H631 C615 0.961 . S
H632 C616 0.931 . S
H633 C621 0.930 . S
H634 C622 0.956 . S
H635 C622 0.961 . S
H636 C622 0.961 . S
H637 C623 0.958 . S
H638 C623 0.961 . S
H639 C623 0.960 . S
C640 C641 1.391 . S
C640 C642 1.394 . S
C640 H656 0.931 . S
C641 C640 1.391 . S
C641 C645 1.376 . S
C642 C640 1.394 . S
C642 C643 1.369 . S
C642 C646 1.531 . S
C643 C642 1.369 . S
C643 C644 1.410 . S
C643 C651 1.503 . S
C644 C643 1.410 . S
C644 C645 1.392 . S
C644 C647 1.511 . S
C645 C641 1.376 . S
C645 C644 1.392 . S
C645 H657 0.929 . S
C646 C642 1.531 . S
C646 H658 0.960 . S
C646 H659 0.962 . S
C646 H660 0.960 . S
C647 C644 1.511 . S
C647 H661 0.961 . S
C647 H662 0.961 . S
C647 H663 0.961 . S
C648 C649 1.370 . S
C648 C650 1.363 . S
C648 H664 0.931 . S
C649 C648 1.370 . S
C649 C653 1.408 . S
C650 C648 1.363 . S
C650 C651 1.370 . S
C650 C654 1.524 . S
C651 C643 1.503 . S
C651 C650 1.370 . S
C651 C652 1.403 . S
C652 C651 1.403 . S
C652 C653 1.404 . S
C652 C655 1.539 . S
C653 C649 1.408 . S
C653 C652 1.404 . S
C653 H665 0.930 . S
C654 C650 1.524 . S
C654 H666 0.956 . S
C654 H667 0.961 . S
C654 H668 0.961 . S
C655 C652 1.539 . S
C655 H669 0.958 . S
C655 H670 0.961 . S
C655 H671 0.960 . S
H656 C640 0.931 . S
H657 C645 0.929 . S
H658 C646 0.960 . S
H659 C646 0.962 . S
H660 C646 0.960 . S
H661 C647 0.961 . S
H662 C647 0.961 . S
H663 C647 0.961 . S
H664 C648 0.931 . S
H665 C653 0.930 . S
H666 C654 0.956 . S
H667 C654 0.961 . S
H668 C654 0.961 . S
H669 C655 0.958 . S
H670 C655 0.961 . S
H671 C655 0.960 . S
C672 C673 1.391 . S
C672 C674 1.394 . S
C672 H688 0.931 . S
C673 C672 1.391 . S
C673 C677 1.376 . S
C674 C672 1.394 . S
C674 C675 1.369 . S
C674 C678 1.531 . S
C675 C674 1.369 . S
C675 C676 1.410 . S
C675 C683 1.503 . S
C676 C675 1.410 . S
C676 C677 1.392 . S
C676 C679 1.511 . S
C677 C673 1.376 . S
C677 C676 1.392 . S
C677 H689 0.929 . S
C678 C674 1.531 . S
C678 H690 0.960 . S
C678 H691 0.962 . S
C678 H692 0.960 . S
C679 C676 1.511 . S
C679 H693 0.961 . S
C679 H694 0.961 . S
C679 H695 0.961 . S
C680 C681 1.370 . S
C680 C682 1.363 . S
C680 H696 0.931 . S
C681 C680 1.370 . S
C681 C685 1.408 . S
C682 C680 1.363 . S
C682 C683 1.370 . S
C682 C686 1.524 . S
C683 C675 1.503 . S
C683 C682 1.370 . S
C683 C684 1.403 . S
C684 C683 1.403 . S
C684 C685 1.404 . S
C684 C687 1.539 . S
C685 C681 1.408 . S
C685 C684 1.404 . S
C685 H697 0.930 . S
C686 C682 1.524 . S
C686 H698 0.956 . S
C686 H699 0.961 . S
C686 H700 0.961 . S
C687 C684 1.539 . S
C687 H701 0.958 . S
C687 H702 0.961 . S
C687 H703 0.960 . S
H688 C672 0.931 . S
H689 C677 0.929 . S
H690 C678 0.960 . S
H691 C678 0.962 . S
H692 C678 0.960 . S
H693 C679 0.961 . S
H694 C679 0.961 . S
H695 C679 0.961 . S
H696 C680 0.931 . S
H697 C685 0.930 . S
H698 C686 0.956 . S
H699 C686 0.961 . S
H700 C686 0.961 . S
H701 C687 0.958 . S
H702 C687 0.961 . S
H703 C687 0.960 . S
C704 C705 1.391 . S
C704 C706 1.394 1_554 S
C704 H720 0.931 . S
C705 C704 1.391 . S
C705 C709 1.376 . S
C706 C704 1.394 1_556 S
C706 C707 1.369 . S
C706 C710 1.531 . S
C707 C706 1.369 . S
C707 C708 1.410 . S
C707 C715 1.503 . S
C708 C707 1.410 . S
C708 C709 1.392 1_556 S
C708 C711 1.511 . S
C709 C705 1.376 . S
C709 C708 1.392 1_554 S
C709 H721 0.929 . S
C710 C706 1.531 . S
C710 H722 0.960 . S
C710 H723 0.962 . S
C710 H724 0.960 . S
C711 C708 1.511 . S
C711 H725 0.961 . S
C711 H726 0.961 . S
C711 H727 0.961 . S
C712 C713 1.370 . S
C712 C714 1.363 . S
C712 H728 0.931 . S
C713 C712 1.370 . S
C713 C717 1.408 . S
C714 C712 1.363 . S
C714 C715 1.370 . S
C714 C718 1.524 . S
C715 C707 1.503 . S
C715 C714 1.370 . S
C715 C716 1.403 . S
C716 C715 1.403 . S
C716 C717 1.404 . S
C716 C719 1.539 . S
C717 C713 1.408 . S
C717 C716 1.404 . S
C717 H729 0.930 . S
C718 C714 1.524 . S
C718 H730 0.956 . S
C718 H731 0.961 . S
C718 H732 0.961 . S
C719 C716 1.539 . S
C719 H733 0.958 . S
C719 H734 0.961 . S
C719 H735 0.960 . S
H720 C704 0.931 . S
H721 C709 0.929 . S
H722 C710 0.960 . S
H723 C710 0.962 . S
H724 C710 0.960 . S
H725 C711 0.961 . S
H726 C711 0.961 . S
H727 C711 0.961 . S
H728 C712 0.931 . S
H729 C717 0.930 . S
H730 C718 0.956 . S
H731 C718 0.961 . S
H732 C718 0.961 . S
H733 C719 0.958 . S
H734 C719 0.961 . S
H735 C719 0.960 . S
C736 C737 1.391 . S
C736 C738 1.394 . S
C736 H752 0.931 . S
C737 C736 1.391 . S
C737 C741 1.376 . S
C738 C736 1.394 . S
C738 C739 1.369 . S
C738 C742 1.531 . S
C739 C738 1.369 . S
C739 C740 1.410 . S
C739 C747 1.503 . S
C740 C739 1.410 . S
C740 C741 1.392 . S
C740 C743 1.511 . S
C741 C737 1.376 . S
C741 C740 1.392 . S
C741 H753 0.929 . S
C742 C738 1.531 . S
C742 H754 0.960 . S
C742 H755 0.962 . S
C742 H756 0.960 . S
C743 C740 1.511 . S
C743 H757 0.961 . S
C743 H758 0.961 . S
C743 H759 0.961 . S
C744 C745 1.370 . S
C744 C746 1.363 . S
C744 H760 0.931 . S
C745 C744 1.370 . S
C745 C749 1.408 . S
C746 C744 1.363 . S
C746 C747 1.370 . S
C746 C750 1.524 . S
C747 C739 1.503 . S
C747 C746 1.370 . S
C747 C748 1.403 . S
C748 C747 1.403 . S
C748 C749 1.404 . S
C748 C751 1.539 . S
C749 C745 1.408 . S
C749 C748 1.404 . S
C749 H761 0.930 . S
C750 C746 1.524 . S
C750 H762 0.956 . S
C750 H763 0.961 . S
C750 H764 0.961 . S
C751 C748 1.539 . S
C751 H765 0.958 . S
C751 H766 0.961 . S
C751 H767 0.960 . S
H752 C736 0.931 . S
H753 C741 0.929 . S
H754 C742 0.960 . S
H755 C742 0.962 . S
H756 C742 0.960 . S
H757 C743 0.961 . S
H758 C743 0.961 . S
H759 C743 0.961 . S
H760 C744 0.931 . S
H761 C749 0.930 . S
H762 C750 0.956 . S
H763 C750 0.961 . S
H764 C750 0.961 . S
H765 C751 0.958 . S
H766 C751 0.961 . S
H767 C751 0.960 . S
C768 C769 1.391 . S
C768 C770 1.394 . S
C768 H784 0.931 . S
C769 C768 1.391 . S
C769 C773 1.376 . S
C770 C768 1.394 . S
C770 C771 1.369 . S
C770 C774 1.531 . S
C771 C770 1.369 . S
C771 C772 1.410 . S
C771 C779 1.503 . S
C772 C771 1.410 . S
C772 C773 1.392 . S
C772 C775 1.511 . S
C773 C769 1.376 . S
C773 C772 1.392 . S
C773 H785 0.929 . S
C774 C770 1.531 . S
C774 H786 0.960 . S
C774 H787 0.962 . S
C774 H788 0.960 . S
C775 C772 1.511 . S
C775 H789 0.961 . S
C775 H790 0.961 . S
C775 H791 0.961 . S
C776 C777 1.370 . S
C776 C778 1.363 . S
C776 H792 0.931 . S
C777 C776 1.370 . S
C777 C781 1.408 . S
C778 C776 1.363 . S
C778 C779 1.370 . S
C778 C782 1.524 . S
C779 C771 1.503 . S
C779 C778 1.370 . S
C779 C780 1.403 . S
C780 C779 1.403 . S
C780 C781 1.404 . S
C780 C783 1.539 . S
C781 C777 1.408 . S
C781 C780 1.404 . S
C781 H793 0.930 . S
C782 C778 1.524 . S
C782 H794 0.956 . S
C782 H795 0.961 . S
C782 H796 0.961 . S
C783 C780 1.539 . S
C783 H797 0.958 . S
C783 H798 0.961 . S
C783 H799 0.960 . S
H784 C768 0.931 . S
H785 C773 0.929 . S
H786 C774 0.960 . S
H787 C774 0.962 . S
H788 C774 0.960 . S
H789 C775 0.961 . S
H790 C775 0.961 . S
H791 C775 0.961 . S
H792 C776 0.931 . S
H793 C781 0.930 . S
H794 C782 0.956 . S
H795 C782 0.961 . S
H796 C782 0.961 . S
H797 C783 0.958 . S
H798 C783 0.961 . S
H799 C783 0.960 . S
C800 C801 1.391 . S
C800 C802 1.394 . S
C800 H816 0.931 . S
C801 C800 1.391 . S
C801 C805 1.376 . S
C802 C800 1.394 . S
C802 C803 1.369 . S
C802 C806 1.531 . S
C803 C802 1.369 . S
C803 C804 1.410 . S
C803 C811 1.503 . S
C804 C803 1.410 . S
C804 C805 1.392 . S
C804 C807 1.511 . S
C805 C801 1.376 . S
C805 C804 1.392 . S
C805 H817 0.929 . S
C806 C802 1.531 . S
C806 H818 0.960 . S
C806 H819 0.962 . S
C806 H820 0.960 . S
C807 C804 1.511 . S
C807 H821 0.961 . S
C807 H822 0.961 . S
C807 H823 0.961 . S
C808 C809 1.370 . S
C808 C810 1.363 . S
C808 H824 0.931 . S
C809 C808 1.370 . S
C809 C813 1.408 . S
C810 C808 1.363 . S
C810 C811 1.370 . S
C810 C814 1.524 . S
C811 C803 1.503 . S
C811 C810 1.370 . S
C811 C812 1.403 . S
C812 C811 1.403 . S
C812 C813 1.404 . S
C812 C815 1.539 . S
C813 C809 1.408 . S
C813 C812 1.404 . S
C813 H825 0.930 . S
C814 C810 1.524 . S
C814 H826 0.956 . S
C814 H827 0.961 . S
C814 H828 0.961 . S
C815 C812 1.539 . S
C815 H829 0.958 . S
C815 H830 0.961 . S
C815 H831 0.960 . S
H816 C800 0.931 . S
H817 C805 0.929 . S
H818 C806 0.960 . S
H819 C806 0.962 . S
H820 C806 0.960 . S
H821 C807 0.961 . S
H822 C807 0.961 . S
H823 C807 0.961 . S
H824 C808 0.931 . S
H825 C813 0.930 . S
H826 C814 0.956 . S
H827 C814 0.961 . S
H828 C814 0.961 . S
H829 C815 0.958 . S
H830 C815 0.961 . S
H831 C815 0.960 . S
C832 C833 1.391 . S
C832 C834 1.394 . S
C832 H848 0.931 . S
C833 C832 1.391 . S
C833 C837 1.376 . S
C834 C832 1.394 . S
C834 C835 1.369 . S
C834 C838 1.531 . S
C835 C834 1.369 . S
C835 C836 1.410 . S
C835 C843 1.503 . S
C836 C835 1.410 . S
C836 C837 1.392 . S
C836 C839 1.511 . S
C837 C833 1.376 . S
C837 C836 1.392 . S
C837 H849 0.929 . S
C838 C834 1.531 . S
C838 H850 0.960 . S
C838 H851 0.962 . S
C838 H852 0.960 . S
C839 C836 1.511 . S
C839 H853 0.961 . S
C839 H854 0.961 . S
C839 H855 0.961 . S
C840 C841 1.370 . S
C840 C842 1.363 . S
C840 H856 0.931 . S
C841 C840 1.370 . S
C841 C845 1.408 . S
C842 C840 1.363 . S
C842 C843 1.370 . S
C842 C846 1.524 . S
C843 C835 1.503 . S
C843 C842 1.370 . S
C843 C844 1.403 . S
C844 C843 1.403 . S
C844 C845 1.404 . S
C844 C847 1.539 . S
C845 C841 1.408 . S
C845 C844 1.404 . S
C845 H857 0.930 . S
C846 C842 1.524 . S
C846 H858 0.956 . S
C846 H859 0.961 . S
C846 H860 0.961 . S
C847 C844 1.539 . S
C847 H861 0.958 . S
C847 H862 0.961 . S
C847 H863 0.960 . S
H848 C832 0.931 . S
H849 C837 0.929 . S
H850 C838 0.960 . S
H851 C838 0.962 . S
H852 C838 0.960 . S
H853 C839 0.961 . S
H854 C839 0.961 . S
H855 C839 0.961 . S
H856 C840 0.931 . S
H857 C845 0.930 . S
H858 C846 0.956 . S
H859 C846 0.961 . S
H860 C846 0.961 . S
H861 C847 0.958 . S
H862 C847 0.961 . S
H863 C847 0.960 . S
C864 C865 1.391 . S
C864 C866 1.394 . S
C864 H880 0.931 1_565 S
C865 C864 1.391 . S
C865 C869 1.376 . S
C866 C864 1.394 . S
C866 C867 1.369 . S
C866 C870 1.531 . S
C867 C866 1.369 . S
C867 C868 1.410 . S
C867 C875 1.503 . S
C868 C867 1.410 . S
C868 C869 1.392 . S
C868 C871 1.511 . S
C869 C865 1.376 . S
C869 C868 1.392 . S
C869 H881 0.929 . S
C870 C866 1.531 . S
C870 H882 0.960 . S
C870 H883 0.962 . S
C870 H884 0.960 1_565 S
C871 C868 1.511 . S
C871 H885 0.961 . S
C871 H886 0.961 . S
C871 H887 0.961 . S
C872 C873 1.370 . S
C872 C874 1.363 . S
C872 H888 0.931 . S
C873 C872 1.370 . S
C873 C877 1.408 . S
C874 C872 1.363 . S
C874 C875 1.370 . S
C874 C878 1.524 . S
C875 C867 1.503 . S
C875 C874 1.370 . S
C875 C876 1.403 . S
C876 C875 1.403 . S
C876 C877 1.404 . S
C876 C879 1.539 1_565 S
C877 C873 1.408 . S
C877 C876 1.404 . S
C877 H889 0.930 . S
C878 C874 1.524 . S
C878 H890 0.956 . S
C878 H891 0.961 . S
C878 H892 0.961 . S
C879 C876 1.539 1_545 S
C879 H893 0.958 . S
C879 H894 0.961 . S
C879 H895 0.960 . S
H880 C864 0.931 1_545 S
H881 C869 0.929 . S
H882 C870 0.960 . S
H883 C870 0.962 . S
H884 C870 0.960 1_545 S
H885 C871 0.961 . S
H886 C871 0.961 . S
H887 C871 0.961 . S
H888 C872 0.931 . S
H889 C877 0.930 . S
H890 C878 0.956 . S
H891 C878 0.961 . S
H892 C878 0.961 . S
H893 C879 0.958 . S
H894 C879 0.961 . S
H895 C879 0.960 . S
C896 C897 1.391 . S
C896 C898 1.394 . S
C896 H912 0.931 . S
C897 C896 1.391 . S
C897 C901 1.376 . S
C898 C896 1.394 . S
C898 C899 1.369 . S
C898 C902 1.531 . S
C899 C898 1.369 . S
C899 C900 1.410 . S
C899 C907 1.503 . S
C900 C899 1.410 . S
C900 C901 1.392 . S
C900 C903 1.511 . S
C901 C897 1.376 . S
C901 C900 1.392 . S
C901 H913 0.929 . S
C902 C898 1.531 . S
C902 H914 0.960 . S
C902 H915 0.962 . S
C902 H916 0.960 . S
C903 C900 1.511 . S
C903 H917 0.961 . S
C903 H918 0.961 . S
C903 H919 0.961 . S
C904 C905 1.370 . S
C904 C906 1.363 1_556 S
C904 H920 0.931 . S
C905 C904 1.370 . S
C905 C909 1.408 . S
C906 C904 1.363 1_554 S
C906 C907 1.370 . S
C906 C910 1.524 . S
C907 C899 1.503 . S
C907 C906 1.370 . S
C907 C908 1.403 . S
C908 C907 1.403 . S
C908 C909 1.404 1_554 S
C908 C911 1.539 . S
C909 C905 1.408 . S
C909 C908 1.404 1_556 S
C909 H921 0.930 . S
C910 C906 1.524 . S
C910 H922 0.956 . S
C910 H923 0.961 . S
C910 H924 0.961 1_554 S
C911 C908 1.539 . S
C911 H925 0.958 . S
C911 H926 0.961 . S
C911 H927 0.960 . S
H912 C896 0.931 . S
H913 C901 0.929 . S
H914 C902 0.960 . S
H915 C902 0.962 . S
H916 C902 0.960 . S
H917 C903 0.961 . S
H918 C903 0.961 . S
H919 C903 0.961 . S
H920 C904 0.931 . S
H921 C909 0.930 . S
H922 C910 0.956 . S
H923 C910 0.961 . S
H924 C910 0.961 1_556 S
H925 C911 0.958 . S
H926 C911 0.961 . S
H927 C911 0.960 . S
C928 C929 1.391 . S
C928 C930 1.394 . S
C928 H944 0.931 . S
C929 C928 1.391 . S
C929 C933 1.376 . S
C930 C928 1.394 . S
C930 C931 1.369 . S
C930 C934 1.531 . S
C931 C930 1.369 . S
C931 C932 1.410 . S
C931 C939 1.503 . S
C932 C931 1.410 . S
C932 C933 1.392 . S
C932 C935 1.511 1_545 S
C933 C929 1.376 . S
C933 C932 1.392 . S
C933 H945 0.929 . S
C934 C930 1.531 . S
C934 H946 0.960 . S
C934 H947 0.962 . S
C934 H948 0.960 . S
C935 C932 1.511 1_565 S
C935 H949 0.961 . S
C935 H950 0.961 . S
C935 H951 0.961 . S
C936 C937 1.370 . S
C936 C938 1.363 . S
C936 H952 0.931 . S
C937 C936 1.370 . S
C937 C941 1.408 . S
C938 C936 1.363 . S
C938 C939 1.370 . S
C938 C942 1.524 . S
C939 C931 1.503 . S
C939 C938 1.370 . S
C939 C940 1.403 . S
C940 C939 1.403 . S
C940 C941 1.404 . S
C940 C943 1.539 . S
C941 C937 1.408 . S
C941 C940 1.404 . S
C941 H953 0.930 . S
C942 C938 1.524 . S
C942 H954 0.956 . S
C942 H955 0.961 . S
C942 H956 0.961 . S
C943 C940 1.539 . S
C943 H957 0.958 . S
C943 H958 0.961 . S
C943 H959 0.960 . S
H944 C928 0.931 . S
H945 C933 0.929 . S
H946 C934 0.960 . S
H947 C934 0.962 . S
H948 C934 0.960 . S
H949 C935 0.961 . S
H950 C935 0.961 . S
H951 C935 0.961 . S
H952 C936 0.931 . S
H953 C941 0.930 . S
H954 C942 0.956 . S
H955 C942 0.961 . S
H956 C942 0.961 . S
H957 C943 0.958 . S
H958 C943 0.961 . S
H959 C943 0.960 . S
C960 C961 1.391 . S
C960 C962 1.394 . S
C960 H976 0.931 . S
C961 C960 1.391 . S
C961 C965 1.376 . S
C962 C960 1.394 . S
C962 C963 1.369 . S
C962 C966 1.531 . S
C963 C962 1.369 . S
C963 C964 1.410 . S
C963 C971 1.503 . S
C964 C963 1.410 . S
C964 C965 1.392 . S
C964 C967 1.511 . S
C965 C961 1.376 . S
C965 C964 1.392 . S
C965 H977 0.929 . S
C966 C962 1.531 . S
C966 H978 0.960 . S
C966 H979 0.962 . S
C966 H980 0.960 . S
C967 C964 1.511 . S
C967 H981 0.961 . S
C967 H982 0.961 . S
C967 H983 0.961 . S
C968 C969 1.370 . S
C968 C970 1.363 . S
C968 H984 0.931 . S
C969 C968 1.370 . S
C969 C973 1.408 . S
C970 C968 1.363 . S
C970 C971 1.370 . S
C970 C974 1.524 . S
C971 C963 1.503 . S
C971 C970 1.370 . S
C971 C972 1.403 . S
C972 C971 1.403 . S
C972 C973 1.404 . S
C972 C975 1.539 . S
C973 C969 1.408 . S
C973 C972 1.404 . S
C973 H985 0.930 . S
C974 C970 1.524 . S
C974 H986 0.956 . S
C974 H987 0.961 . S
C974 H988 0.961 . S
C975 C972 1.539 . S
C975 H989 0.958 . S
C975 H990 0.961 . S
C975 H991 0.960 . S
H976 C960 0.931 . S
H977 C965 0.929 . S
H978 C966 0.960 . S
H979 C966 0.962 . S
H980 C966 0.960 . S
H981 C967 0.961 . S
H982 C967 0.961 . S
H983 C967 0.961 . S
H984 C968 0.931 . S
H985 C973 0.930 . S
H986 C974 0.956 . S
H987 C974 0.961 . S
H988 C974 0.961 . S
H989 C975 0.958 . S
H990 C975 0.961 . S
H991 C975 0.960 . S
C992 C993 1.391 1_565 S
C992 C994 1.394 1_565 S
C992 H1008 0.931 . S
C993 C992 1.391 1_545 S
C993 C997 1.376 . S
C994 C992 1.394 1_545 S
C994 C995 1.369 . S
C994 C998 1.531 1_545 S
C995 C994 1.369 . S
C995 C996 1.410 . S
C995 C1003 1.503 . S
C996 C995 1.410 . S
C996 C997 1.392 . S
C996 C999 1.511 . S
C997 C993 1.376 . S
C997 C996 1.392 . S
C997 H1009 0.929 . S
C998 C994 1.531 1_565 S
C998 H1010 0.960 . S
C998 H1011 0.962 . S
C998 H1012 0.960 . S
C999 C996 1.511 . S
C999 H1013 0.961 . S
C999 H1014 0.961 . S
C999 H1015 0.961 . S
C1000 C1001 1.370 . S
C1000 C1002 1.363 . S
C1000 H1016 0.931 . S
C1001 C1000 1.370 . S
C1001 C1005 1.408 . S
C1002 C1000 1.363 . S
C1002 C1003 1.370 . S
C1002 C1006 1.524 . S
C1003 C995 1.503 . S
C1003 C1002 1.370 . S
C1003 C1004 1.403 . S
C1004 C1003 1.403 . S
C1004 C1005 1.404 . S
C1004 C1007 1.539 . S
C1005 C1001 1.408 . S
C1005 C1004 1.404 . S
C1005 H1017 0.930 . S
C1006 C1002 1.524 . S
C1006 H1018 0.956 . S
C1006 H1019 0.961 . S
C1006 H1020 0.961 . S
C1007 C1004 1.539 . S
C1007 H1021 0.958 . S
C1007 H1022 0.961 . S
C1007 H1023 0.960 . S
H1008 C992 0.931 . S
H1009 C997 0.929 . S
H1010 C998 0.960 . S
H1011 C998 0.962 . S
H1012 C998 0.960 . S
H1013 C999 0.961 . S
H1014 C999 0.961 . S
H1015 C999 0.961 . S
H1016 C1000 0.931 . S
H1017 C1005 0.930 . S
H1018 C1006 0.956 . S
H1019 C1006 0.961 . S
H1020 C1006 0.961 . S
H1021 C1007 0.958 . S
H1022 C1007 0.961 . S
H1023 C1007 0.960 . S
C1024 C1025 1.391 . S
C1024 C1026 1.394 1_554 S
C1024 H1040 0.931 . S
C1025 C1024 1.391 . S
C1025 C1029 1.376 . S
C1026 C1024 1.394 1_556 S
C1026 C1027 1.369 . S
C1026 C1030 1.531 . S
C1027 C1026 1.369 . S
C1027 C1028 1.410 . S
C1027 C1035 1.503 . S
C1028 C1027 1.410 . S
C1028 C1029 1.392 1_556 S
C1028 C1031 1.511 . S
C1029 C1025 1.376 . S
C1029 C1028 1.392 1_554 S
C1029 H1041 0.929 . S
C1030 C1026 1.531 . S
C1030 H1042 0.960 . S
C1030 H1043 0.962 . S
C1030 H1044 0.960 . S
C1031 C1028 1.511 . S
C1031 H1045 0.961 . S
C1031 H1046 0.961 . S
C1031 H1047 0.961 . S
C1032 C1033 1.370 . S
C1032 C1034 1.363 . S
C1032 H1048 0.931 . S
C1033 C1032 1.370 . S
C1033 C1037 1.408 . S
C1034 C1032 1.363 . S
C1034 C1035 1.370 . S
C1034 C1038 1.524 . S
C1035 C1027 1.503 . S
C1035 C1034 1.370 . S
C1035 C1036 1.403 . S
C1036 C1035 1.403 . S
C1036 C1037 1.404 . S
C1036 C1039 1.539 . S
C1037 C1033 1.408 . S
C1037 C1036 1.404 . S
C1037 H1049 0.930 . S
C1038 C1034 1.524 . S
C1038 H1050 0.956 . S
C1038 H1051 0.961 . S
C1038 H1052 0.961 . S
C1039 C1036 1.539 . S
C1039 H1053 0.958 . S
C1039 H1054 0.961 . S
C1039 H1055 0.960 . S
H1040 C1024 0.931 . S
H1041 C1029 0.929 . S
H1042 C1030 0.960 . S
H1043 C1030 0.962 . S
H1044 C1030 0.960 . S
H1045 C1031 0.961 . S
H1046 C1031 0.961 . S
H1047 C1031 0.961 . S
H1048 C1032 0.931 . S
H1049 C1037 0.930 . S
H1050 C1038 0.956 . S
H1051 C1038 0.961 . S
H1052 C1038 0.961 . S
H1053 C1039 0.958 . S
H1054 C1039 0.961 . S
H1055 C1039 0.960 . S
C1056 C1057 1.391 1_545 S
C1056 C1058 1.394 1_545 S
C1056 H1072 0.931 . S
C1057 C1056 1.391 1_565 S
C1057 C1061 1.376 . S
C1058 C1056 1.394 1_565 S
C1058 C1059 1.369 . S
C1058 C1062 1.531 1_565 S
C1059 C1058 1.369 . S
C1059 C1060 1.410 . S
C1059 C1067 1.503 . S
C1060 C1059 1.410 . S
C1060 C1061 1.392 . S
C1060 C1063 1.511 . S
C1061 C1057 1.376 . S
C1061 C1060 1.392 . S
C1061 H1073 0.929 . S
C1062 C1058 1.531 1_545 S
C1062 H1074 0.960 . S
C1062 H1075 0.962 . S
C1062 H1076 0.960 . S
C1063 C1060 1.511 . S
C1063 H1077 0.961 . S
C1063 H1078 0.961 . S
C1063 H1079 0.961 . S
C1064 C1065 1.370 . S
C1064 C1066 1.363 . S
C1064 H1080 0.931 . S
C1065 C1064 1.370 . S
C1065 C1069 1.408 . S
C1066 C1064 1.363 . S
C1066 C1067 1.370 . S
C1066 C1070 1.524 . S
C1067 C1059 1.503 . S
C1067 C1066 1.370 . S
C1067 C1068 1.403 . S
C1068 C1067 1.403 . S
C1068 C1069 1.404 . S
C1068 C1071 1.539 . S
C1069 C1065 1.408 . S
C1069 C1068 1.404 . S
C1069 H1081 0.930 . S
C1070 C1066 1.524 . S
C1070 H1082 0.956 . S
C1070 H1083 0.961 . S
C1070 H1084 0.961 . S
C1071 C1068 1.539 . S
C1071 H1085 0.958 1_565 S
C1071 H1086 0.961 . S
C1071 H1087 0.960 . S
H1072 C1056 0.931 . S
H1073 C1061 0.929 . S
H1074 C1062 0.960 . S
H1075 C1062 0.962 . S
H1076 C1062 0.960 . S
H1077 C1063 0.961 . S
H1078 C1063 0.961 . S
H1079 C1063 0.961 . S
H1080 C1064 0.931 . S
H1081 C1069 0.930 . S
H1082 C1070 0.956 . S
H1083 C1070 0.961 . S
H1084 C1070 0.961 . S
H1085 C1071 0.958 1_545 S
H1086 C1071 0.961 . S
H1087 C1071 0.960 . S
C1088 C1089 1.391 . S
C1088 C1090 1.394 . S
C1088 H1104 0.931 . S
C1089 C1088 1.391 . S
C1089 C1093 1.376 . S
C1090 C1088 1.394 . S
C1090 C1091 1.369 . S
C1090 C1094 1.531 . S
C1091 C1090 1.369 . S
C1091 C1092 1.410 . S
C1091 C1099 1.503 . S
C1092 C1091 1.410 . S
C1092 C1093 1.392 . S
C1092 C1095 1.511 . S
C1093 C1089 1.376 . S
C1093 C1092 1.392 . S
C1093 H1105 0.929 . S
C1094 C1090 1.531 . S
C1094 H1106 0.960 . S
C1094 H1107 0.962 . S
C1094 H1108 0.960 . S
C1095 C1092 1.511 . S
C1095 H1109 0.961 . S
C1095 H1110 0.961 . S
C1095 H1111 0.961 . S
C1096 C1097 1.370 . S
C1096 C1098 1.363 . S
C1096 H1112 0.931 . S
C1097 C1096 1.370 . S
C1097 C1101 1.408 . S
C1098 C1096 1.363 . S
C1098 C1099 1.370 . S
C1098 C1102 1.524 . S
C1099 C1091 1.503 . S
C1099 C1098 1.370 . S
C1099 C1100 1.403 . S
C1100 C1099 1.403 . S
C1100 C1101 1.404 . S
C1100 C1103 1.539 . S
C1101 C1097 1.408 . S
C1101 C1100 1.404 . S
C1101 H1113 0.930 . S
C1102 C1098 1.524 . S
C1102 H1114 0.956 . S
C1102 H1115 0.961 . S
C1102 H1116 0.961 . S
C1103 C1100 1.539 . S
C1103 H1117 0.958 . S
C1103 H1118 0.961 . S
C1103 H1119 0.960 . S
H1104 C1088 0.931 . S
H1105 C1093 0.929 . S
H1106 C1094 0.960 . S
H1107 C1094 0.962 . S
H1108 C1094 0.960 . S
H1109 C1095 0.961 . S
H1110 C1095 0.961 . S
H1111 C1095 0.961 . S
H1112 C1096 0.931 . S
H1113 C1101 0.930 . S
H1114 C1102 0.956 . S
H1115 C1102 0.961 . S
H1116 C1102 0.961 . S
H1117 C1103 0.958 . S
H1118 C1103 0.961 . S
H1119 C1103 0.960 . S
C1120 C1121 1.391 . S
C1120 C1122 1.394 . S
C1120 H1136 0.931 . S
C1121 C1120 1.391 . S
C1121 C1125 1.376 . S
C1122 C1120 1.394 . S
C1122 C1123 1.369 . S
C1122 C1126 1.531 . S
C1123 C1122 1.369 . S
C1123 C1124 1.410 . S
C1123 C1131 1.503 . S
C1124 C1123 1.410 . S
C1124 C1125 1.392 . S
C1124 C1127 1.511 . S
C1125 C1121 1.376 . S
C1125 C1124 1.392 . S
C1125 H1137 0.929 . S
C1126 C1122 1.531 . S
C1126 H1138 0.960 . S
C1126 H1139 0.962 . S
C1126 H1140 0.960 . S
C1127 C1124 1.511 . S
C1127 H1141 0.961 . S
C1127 H1142 0.961 . S
C1127 H1143 0.961 . S
C1128 C1129 1.370 . S
C1128 C1130 1.363 . S
C1128 H1144 0.931 . S
C1129 C1128 1.370 . S
C1129 C1133 1.408 . S
C1130 C1128 1.363 . S
C1130 C1131 1.370 . S
C1130 C1134 1.524 . S
C1131 C1123 1.503 . S
C1131 C1130 1.370 . S
C1131 C1132 1.403 . S
C1132 C1131 1.403 . S
C1132 C1133 1.404 . S
C1132 C1135 1.539 . S
C1133 C1129 1.408 . S
C1133 C1132 1.404 . S
C1133 H1145 0.930 . S
C1134 C1130 1.524 . S
C1134 H1146 0.956 . S
C1134 H1147 0.961 . S
C1134 H1148 0.961 . S
C1135 C1132 1.539 . S
C1135 H1149 0.958 . S
C1135 H1150 0.961 . S
C1135 H1151 0.960 . S
H1136 C1120 0.931 . S
H1137 C1125 0.929 . S
H1138 C1126 0.960 . S
H1139 C1126 0.962 . S
H1140 C1126 0.960 . S
H1141 C1127 0.961 . S
H1142 C1127 0.961 . S
H1143 C1127 0.961 . S
H1144 C1128 0.931 . S
H1145 C1133 0.930 . S
H1146 C1134 0.956 . S
H1147 C1134 0.961 . S
H1148 C1134 0.961 . S
H1149 C1135 0.958 . S
H1150 C1135 0.961 . S
H1151 C1135 0.960 . S
C1152 C1153 1.391 . S
C1152 C1154 1.394 . S
C1152 H1168 0.931 . S
C1153 C1152 1.391 . S
C1153 C1157 1.376 . S
C1154 C1152 1.394 . S
C1154 C1155 1.369 . S
C1154 C1158 1.531 1_655 S
C1155 C1154 1.369 . S
C1155 C1156 1.410 . S
C1155 C1163 1.503 1_655 S
C1156 C1155 1.410 . S
C1156 C1157 1.392 . S
C1156 C1159 1.511 . S
C1157 C1153 1.376 . S
C1157 C1156 1.392 . S
C1157 H1169 0.929 . S
C1158 C1154 1.531 1_455 S
C1158 H1170 0.960 . S
C1158 H1171 0.962 . S
C1158 H1172 0.960 1_455 S
C1159 C1156 1.511 . S
C1159 H1173 0.961 . S
C1159 H1174 0.961 . S
C1159 H1175 0.961 . S
C1160 C1161 1.370 . S
C1160 C1162 1.363 . S
C1160 H1176 0.931 . S
C1161 C1160 1.370 . S
C1161 C1165 1.408 . S
C1162 C1160 1.363 . S
C1162 C1163 1.370 . S
C1162 C1166 1.524 . S
C1163 C1155 1.503 1_455 S
C1163 C1162 1.370 . S
C1163 C1164 1.403 . S
C1164 C1163 1.403 . S
C1164 C1165 1.404 . S
C1164 C1167 1.539 . S
C1165 C1161 1.408 . S
C1165 C1164 1.404 . S
C1165 H1177 0.930 . S
C1166 C1162 1.524 . S
C1166 H1178 0.956 . S
C1166 H1179 0.961 1_455 S
C1166 H1180 0.961 . S
C1167 C1164 1.539 . S
C1167 H1181 0.958 . S
C1167 H1182 0.961 . S
C1167 H1183 0.960 1_455 S
H1168 C1152 0.931 . S
H1169 C1157 0.929 . S
H1170 C1158 0.960 . S
H1171 C1158 0.962 . S
H1172 C1158 0.960 1_655 S
H1173 C1159 0.961 . S
H1174 C1159 0.961 . S
H1175 C1159 0.961 . S
H1176 C1160 0.931 . S
H1177 C1165 0.930 . S
H1178 C1166 0.956 . S
H1179 C1166 0.961 1_655 S
H1180 C1166 0.961 . S
H1181 C1167 0.958 . S
H1182 C1167 0.961 . S
H1183 C1167 0.960 1_655 S
C1184 C1185 1.391 1_455 S
C1184 C1186 1.394 . S
C1184 H1200 0.931 . S
C1185 C1184 1.391 1_655 S
C1185 C1189 1.376 . S
C1186 C1184 1.394 . S
C1186 C1187 1.369 1_455 S
C1186 C1190 1.531 . S
C1187 C1186 1.369 1_655 S
C1187 C1188 1.410 . S
C1187 C1195 1.503 1_655 S
C1188 C1187 1.410 . S
C1188 C1189 1.392 . S
C1188 C1191 1.511 . S
C1189 C1185 1.376 . S
C1189 C1188 1.392 . S
C1189 H1201 0.929 . S
C1190 C1186 1.531 . S
C1190 H1202 0.960 . S
C1190 H1203 0.962 . S
C1190 H1204 0.960 . S
C1191 C1188 1.511 . S
C1191 H1205 0.961 . S
C1191 H1206 0.961 . S
C1191 H1207 0.961 . S
C1192 C1193 1.370 . S
C1192 C1194 1.363 . S
C1192 H1208 0.931 . S
C1193 C1192 1.370 . S
C1193 C1197 1.408 . S
C1194 C1192 1.363 . S
C1194 C1195 1.370 . S
C1194 C1198 1.524 . S
C1195 C1187 1.503 1_455 S
C1195 C1194 1.370 . S
C1195 C1196 1.403 1_455 S
C1196 C1195 1.403 1_655 S
C1196 C1197 1.404 1_655 S
C1196 C1199 1.539 . S
C1197 C1193 1.408 . S
C1197 C1196 1.404 1_455 S
C1197 H1209 0.930 . S
C1198 C1194 1.524 . S
C1198 H1210 0.956 . S
C1198 H1211 0.961 . S
C1198 H1212 0.961 . S
C1199 C1196 1.539 . S
C1199 H1213 0.958 . S
C1199 H1214 0.961 . S
C1199 H1215 0.960 . S
H1200 C1184 0.931 . S
H1201 C1189 0.929 . S
H1202 C1190 0.960 . S
H1203 C1190 0.962 . S
H1204 C1190 0.960 . S
H1205 C1191 0.961 . S
H1206 C1191 0.961 . S
H1207 C1191 0.961 . S
H1208 C1192 0.931 . S
H1209 C1197 0.930 . S
H1210 C1198 0.956 . S
H1211 C1198 0.961 . S
H1212 C1198 0.961 . S
H1213 C1199 0.958 . S
H1214 C1199 0.961 . S
H1215 C1199 0.960 . S
C1216 C1217 1.391 . S
C1216 C1218 1.394 . S
C1216 H1232 0.931 . S
C1217 C1216 1.391 . S
C1217 C1221 1.376 . S
C1218 C1216 1.394 . S
C1218 C1219 1.369 . S
C1218 C1222 1.531 . S
C1219 C1218 1.369 . S
C1219 C1220 1.410 . S
C1219 C1227 1.503 . S
C1220 C1219 1.410 . S
C1220 C1221 1.392 . S
C1220 C1223 1.511 . S
C1221 C1217 1.376 . S
C1221 C1220 1.392 . S
C1221 H1233 0.929 . S
C1222 C1218 1.531 . S
C1222 H1234 0.960 . S
C1222 H1235 0.962 . S
C1222 H1236 0.960 . S
C1223 C1220 1.511 . S
C1223 H1237 0.961 . S
C1223 H1238 0.961 . S
C1223 H1239 0.961 . S
C1224 C1225 1.370 . S
C1224 C1226 1.363 . S
C1224 H1240 0.931 . S
C1225 C1224 1.370 . S
C1225 C1229 1.408 . S
C1226 C1224 1.363 . S
C1226 C1227 1.370 . S
C1226 C1230 1.524 . S
C1227 C1219 1.503 . S
C1227 C1226 1.370 . S
C1227 C1228 1.403 . S
C1228 C1227 1.403 . S
C1228 C1229 1.404 . S
C1228 C1231 1.539 . S
C1229 C1225 1.408 . S
C1229 C1228 1.404 . S
C1229 H1241 0.930 . S
C1230 C1226 1.524 . S
C1230 H1242 0.956 . S
C1230 H1243 0.961 . S
C1230 H1244 0.961 . S
C1231 C1228 1.539 . S
C1231 H1245 0.958 . S
C1231 H1246 0.961 . S
C1231 H1247 0.960 . S
H1232 C1216 0.931 . S
H1233 C1221 0.929 . S
H1234 C1222 0.960 . S
H1235 C1222 0.962 . S
H1236 C1222 0.960 . S
H1237 C1223 0.961 . S
H1238 C1223 0.961 . S
H1239 C1223 0.961 . S
H1240 C1224 0.931 . S
H1241 C1229 0.930 . S
H1242 C1230 0.956 . S
H1243 C1230 0.961 . S
H1244 C1230 0.961 . S
H1245 C1231 0.958 . S
H1246 C1231 0.961 . S
H1247 C1231 0.960 . S
C1248 C1249 1.391 . S
C1248 C1250 1.394 . S
C1248 H1264 0.931 . S
C1249 C1248 1.391 . S
C1249 C1253 1.376 . S
C1250 C1248 1.394 . S
C1250 C1251 1.369 . S
C1250 C1254 1.531 . S
C1251 C1250 1.369 . S
C1251 C1252 1.410 . S
C1251 C1259 1.503 . S
C1252 C1251 1.410 . S
C1252 C1253 1.392 . S
C1252 C1255 1.511 . S
C1253 C1249 1.376 . S
C1253 C1252 1.392 . S
C1253 H1265 0.929 . S
C1254 C1250 1.531 . S
C1254 H1266 0.960 . S
C1254 H1267 0.962 . S
C1254 H1268 0.960 . S
C1255 C1252 1.511 . S
C1255 H1269 0.961 . S
C1255 H1270 0.961 . S
C1255 H1271 0.961 . S
C1256 C1257 1.370 . S
C1256 C1258 1.363 . S
C1256 H1272 0.931 . S
C1257 C1256 1.370 . S
C1257 C1261 1.408 . S
C1258 C1256 1.363 . S
C1258 C1259 1.370 . S
C1258 C1262 1.524 . S
C1259 C1251 1.503 . S
C1259 C1258 1.370 . S
C1259 C1260 1.403 . S
C1260 C1259 1.403 . S
C1260 C1261 1.404 . S
C1260 C1263 1.539 . S
C1261 C1257 1.408 . S
C1261 C1260 1.404 . S
C1261 H1273 0.930 . S
C1262 C1258 1.524 . S
C1262 H1274 0.956 . S
C1262 H1275 0.961 . S
C1262 H1276 0.961 . S
C1263 C1260 1.539 . S
C1263 H1277 0.958 . S
C1263 H1278 0.961 . S
C1263 H1279 0.960 . S
H1264 C1248 0.931 . S
H1265 C1253 0.929 . S
H1266 C1254 0.960 . S
H1267 C1254 0.962 . S
H1268 C1254 0.960 . S
H1269 C1255 0.961 . S
H1270 C1255 0.961 . S
H1271 C1255 0.961 . S
H1272 C1256 0.931 . S
H1273 C1261 0.930 . S
H1274 C1262 0.956 . S
H1275 C1262 0.961 . S
H1276 C1262 0.961 . S
H1277 C1263 0.958 . S
H1278 C1263 0.961 . S
H1279 C1263 0.960 . S
C1280 C1281 1.391 . S
C1280 C1282 1.394 . S
C1280 H1296 0.931 . S
C1281 C1280 1.391 . S
C1281 C1285 1.376 . S
C1282 C1280 1.394 . S
C1282 C1283 1.369 . S
C1282 C1286 1.531 . S
C1283 C1282 1.369 . S
C1283 C1284 1.410 . S
C1283 C1291 1.503 1_455 S
C1284 C1283 1.410 . S
C1284 C1285 1.392 . S
C1284 C1287 1.522 . S
C1285 C1281 1.376 . S
C1285 C1284 1.392 . S
C1285 H1297 0.929 . S
C1286 C1282 1.531 . S
C1286 H1298 0.960 . S
C1286 H1299 0.962 . S
C1286 H1300 0.960 . S
C1287 C1284 1.522 . S
C1287 H1301 0.968 . S
C1287 H1302 0.950 1_455 S
C1287 H1303 0.955 1_455 S
C1288 C1289 1.370 . S
C1288 C1290 1.363 . S
C1288 H1304 0.931 . S
C1289 C1288 1.370 . S
C1289 C1293 1.408 . S
C1290 C1288 1.363 . S
C1290 C1291 1.370 . S
C1290 C1294 1.524 . S
C1291 C1283 1.503 1_655 S
C1291 C1290 1.370 . S
C1291 C1292 1.403 . S
C1292 C1291 1.403 . S
C1292 C1293 1.404 . S
C1292 C1295 1.539 . S
C1293 C1289 1.408 . S
C1293 C1292 1.404 . S
C1293 H1305 0.930 . S
C1294 C1290 1.524 . S
C1294 H1306 0.956 1_655 S
C1294 H1307 0.961 1_655 S
C1294 H1308 0.961 . S
C1295 C1292 1.539 . S
C1295 H1309 0.958 . S
C1295 H1310 0.961 . S
C1295 H1311 0.960 . S
H1296 C1280 0.931 . S
H1297 C1285 0.929 . S
H1298 C1286 0.960 . S
H1299 C1286 0.962 . S
H1300 C1286 0.960 . S
H1301 C1287 0.968 . S
H1302 C1287 0.950 1_655 S
H1303 C1287 0.955 1_655 S
H1304 C1288 0.931 . S
H1305 C1293 0.930 . S
H1306 C1294 0.956 1_455 S
H1307 C1294 0.961 1_455 S
H1308 C1294 0.961 . S
H1309 C1295 0.958 . S
H1310 C1295 0.961 . S
H1311 C1295 0.960 . S
C1312 C1313 1.391 . S
C1312 C1314 1.394 . S
C1312 H1328 0.931 . S
C1313 C1312 1.391 . S
C1313 C1317 1.376 . S
C1314 C1312 1.394 . S
C1314 C1315 1.371 1_455 S
C1314 C1318 1.531 . S
C1315 C1314 1.371 1_655 S
C1315 C1316 1.409 . S
C1315 C1323 1.503 . S
C1316 C1315 1.409 . S
C1316 C1317 1.392 1_655 S
C1316 C1319 1.511 . S
C1317 C1313 1.376 . S
C1317 C1316 1.392 1_455 S
C1317 H1329 0.929 1_455 S
C1318 C1314 1.531 . S
C1318 H1330 0.960 . S
C1318 H1331 0.962 . S
C1318 H1332 0.960 . S
C1319 C1316 1.511 . S
C1319 H1333 0.961 . S
C1319 H1334 0.961 . S
C1319 H1335 0.961 . S
C1320 C1321 1.370 1_455 S
C1320 C1322 1.363 . S
C1320 H1336 0.931 . S
C1321 C1320 1.370 1_655 S
C1321 C1325 1.408 . S
C1322 C1320 1.363 . S
C1322 C1323 1.370 1_455 S
C1322 C1326 1.524 . S
C1323 C1315 1.503 . S
C1323 C1322 1.370 1_655 S
C1323 C1324 1.403 . S
C1324 C1323 1.403 . S
C1324 C1325 1.404 . S
C1324 C1327 1.539 . S
C1325 C1321 1.408 . S
C1325 C1324 1.404 . S
C1325 H1337 0.930 . S
C1326 C1322 1.524 . S
C1326 H1338 0.956 . S
C1326 H1339 0.961 . S
C1326 H1340 0.961 . S
C1327 C1324 1.539 . S
C1327 H1341 0.958 . S
C1327 H1342 0.961 . S
C1327 H1343 0.960 . S
H1328 C1312 0.931 . S
H1329 C1317 0.929 1_655 S
H1330 C1318 0.960 . S
H1331 C1318 0.962 . S
H1332 C1318 0.960 . S
H1333 C1319 0.961 . S
H1334 C1319 0.961 . S
H1335 C1319 0.961 . S
H1336 C1320 0.931 . S
H1337 C1325 0.930 . S
H1338 C1326 0.956 . S
H1339 C1326 0.961 . S
H1340 C1326 0.961 . S
H1341 C1327 0.958 . S
H1342 C1327 0.961 . S
H1343 C1327 0.960 . S
C1344 C1345 1.391 . S
C1344 C1346 1.394 . S
C1344 H1360 0.931 . S
C1345 C1344 1.391 . S
C1345 C1349 1.376 . S
C1346 C1344 1.394 . S
C1346 C1347 1.369 . S
C1346 C1350 1.531 . S
C1347 C1346 1.369 . S
C1347 C1348 1.410 . S
C1347 C1355 1.503 . S
C1348 C1347 1.410 . S
C1348 C1349 1.392 . S
C1348 C1351 1.511 . S
C1349 C1345 1.376 . S
C1349 C1348 1.392 . S
C1349 H1361 0.929 . S
C1350 C1346 1.531 . S
C1350 H1362 0.960 . S
C1350 H1363 0.962 . S
C1350 H1364 0.960 . S
C1351 C1348 1.511 . S
C1351 H1365 0.961 . S
C1351 H1366 0.961 . S
C1351 H1367 0.961 . S
C1352 C1353 1.370 . S
C1352 C1354 1.363 . S
C1352 H1368 0.931 . S
C1353 C1352 1.370 . S
C1353 C1357 1.408 . S
C1354 C1352 1.363 . S
C1354 C1355 1.370 . S
C1354 C1358 1.524 . S
C1355 C1347 1.503 . S
C1355 C1354 1.370 . S
C1355 C1356 1.403 . S
C1356 C1355 1.403 . S
C1356 C1357 1.404 . S
C1356 C1359 1.539 . S
C1357 C1353 1.408 . S
C1357 C1356 1.404 . S
C1357 H1369 0.930 . S
C1358 C1354 1.524 . S
C1358 H1370 0.956 . S
C1358 H1371 0.961 . S
C1358 H1372 0.961 . S
C1359 C1356 1.539 . S
C1359 H1373 0.958 . S
C1359 H1374 0.961 . S
C1359 H1375 0.960 . S
H1360 C1344 0.931 . S
H1361 C1349 0.929 . S
H1362 C1350 0.960 . S
H1363 C1350 0.962 . S
H1364 C1350 0.960 . S
H1365 C1351 0.961 . S
H1366 C1351 0.961 . S
H1367 C1351 0.961 . S
H1368 C1352 0.931 . S
H1369 C1357 0.930 . S
H1370 C1358 0.956 . S
H1371 C1358 0.961 . S
H1372 C1358 0.961 . S
H1373 C1359 0.958 . S
H1374 C1359 0.961 . S
H1375 C1359 0.960 . S
C1376 C1377 1.391 . S
C1376 C1378 1.394 . S
C1376 H1392 0.931 . S
C1377 C1376 1.391 . S
C1377 C1381 1.376 . S
C1378 C1376 1.394 . S
C1378 C1379 1.369 . S
C1378 C1382 1.531 . S
C1379 C1378 1.369 . S
C1379 C1380 1.410 . S
C1379 C1387 1.503 . S
C1380 C1379 1.410 . S
C1380 C1381 1.392 . S
C1380 C1383 1.511 . S
C1381 C1377 1.376 . S
C1381 C1380 1.392 . S
C1381 H1393 0.929 . S
C1382 C1378 1.531 . S
C1382 H1394 0.960 . S
C1382 H1395 0.962 . S
C1382 H1396 0.960 . S
C1383 C1380 1.511 . S
C1383 H1397 0.961 . S
C1383 H1398 0.961 . S
C1383 H1399 0.961 . S
C1384 C1385 1.370 . S
C1384 C1386 1.363 . S
C1384 H1400 0.931 . S
C1385 C1384 1.370 . S
C1385 C1389 1.408 . S
C1386 C1384 1.363 . S
C1386 C1387 1.370 . S
C1386 C1390 1.524 . S
C1387 C1379 1.503 . S
C1387 C1386 1.370 . S
C1387 C1388 1.403 . S
C1388 C1387 1.403 . S
C1388 C1389 1.404 . S
C1388 C1391 1.539 . S
C1389 C1385 1.408 . S
C1389 C1388 1.404 . S
C1389 H1401 0.930 . S
C1390 C1386 1.524 . S
C1390 H1402 0.956 . S
C1390 H1403 0.961 . S
C1390 H1404 0.961 . S
C1391 C1388 1.539 . S
C1391 H1405 0.958 . S
C1391 H1406 0.961 . S
C1391 H1407 0.960 . S
H1392 C1376 0.931 . S
H1393 C1381 0.929 . S
H1394 C1382 0.960 . S
H1395 C1382 0.962 . S
H1396 C1382 0.960 . S
H1397 C1383 0.961 . S
H1398 C1383 0.961 . S
H1399 C1383 0.961 . S
H1400 C1384 0.931 . S
H1401 C1389 0.930 . S
H1402 C1390 0.956 . S
H1403 C1390 0.961 . S
H1404 C1390 0.961 . S
H1405 C1391 0.958 . S
H1406 C1391 0.961 . S
H1407 C1391 0.960 . S
C1408 C1409 1.391 . S
C1408 C1410 1.394 . S
C1408 H1424 0.931 . S
C1409 C1408 1.391 . S
C1409 C1413 1.376 . S
C1410 C1408 1.394 . S
C1410 C1411 1.369 . S
C1410 C1414 1.531 . S
C1411 C1410 1.369 . S
C1411 C1412 1.410 . S
C1411 C1419 1.503 . S
C1412 C1411 1.410 . S
C1412 C1413 1.392 . S
C1412 C1415 1.511 . S
C1413 C1409 1.376 . S
C1413 C1412 1.392 . S
C1413 H1425 0.929 . S
C1414 C1410 1.531 . S
C1414 H1426 0.960 . S
C1414 H1427 0.962 . S
C1414 H1428 0.960 . S
C1415 C1412 1.511 . S
C1415 H1429 0.961 . S
C1415 H1430 0.961 . S
C1415 H1431 0.961 . S
C1416 C1417 1.370 . S
C1416 C1418 1.363 . S
C1416 H1432 0.931 . S
C1417 C1416 1.370 . S
C1417 C1421 1.408 . S
C1418 C1416 1.363 . S
C1418 C1419 1.370 . S
C1418 C1422 1.524 . S
C1419 C1411 1.503 . S
C1419 C1418 1.370 . S
C1419 C1420 1.403 . S
C1420 C1419 1.403 . S
C1420 C1421 1.404 . S
C1420 C1423 1.539 . S
C1421 C1417 1.408 . S
C1421 C1420 1.404 . S
C1421 H1433 0.930 . S
C1422 C1418 1.524 . S
C1422 H1434 0.956 . S
C1422 H1435 0.961 . S
C1422 H1436 0.961 . S
C1423 C1420 1.539 . S
C1423 H1437 0.958 . S
C1423 H1438 0.961 . S
C1423 H1439 0.960 . S
H1424 C1408 0.931 . S
H1425 C1413 0.929 . S
H1426 C1414 0.960 . S
H1427 C1414 0.962 . S
H1428 C1414 0.960 . S
H1429 C1415 0.961 . S
H1430 C1415 0.961 . S
H1431 C1415 0.961 . S
H1432 C1416 0.931 . S
H1433 C1421 0.930 . S
H1434 C1422 0.956 . S
H1435 C1422 0.961 . S
H1436 C1422 0.961 . S
H1437 C1423 0.958 . S
H1438 C1423 0.961 . S
H1439 C1423 0.960 . S
C1440 C1441 1.391 . S
C1440 C1442 1.394 1_655 S
C1440 H1456 0.931 . S
C1441 C1440 1.391 . S
C1441 C1445 1.376 1_655 S
C1442 C1440 1.394 1_455 S
C1442 C1443 1.369 . S
C1442 C1446 1.531 . S
C1443 C1442 1.369 . S
C1443 C1444 1.410 . S
C1443 C1451 1.503 . S
C1444 C1443 1.410 . S
C1444 C1445 1.392 . S
C1444 C1447 1.511 . S
C1445 C1441 1.376 1_455 S
C1445 C1444 1.392 . S
C1445 H1457 0.928 . S
C1446 C1442 1.531 . S
C1446 H1458 0.960 . S
C1446 H1459 0.962 . S
C1446 H1460 0.960 1_455 S
C1447 C1444 1.511 . S
C1447 H1461 0.961 . S
C1447 H1462 0.961 . S
C1447 H1463 0.961 . S
C1448 C1449 1.370 . S
C1448 C1450 1.363 . S
C1448 H1464 0.931 . S
C1449 C1448 1.370 . S
C1449 C1453 1.408 . S
C1450 C1448 1.363 . S
C1450 C1451 1.370 . S
C1450 C1454 1.524 . S
C1451 C1443 1.503 . S
C1451 C1450 1.370 . S
C1451 C1452 1.403 . S
C1452 C1451 1.403 . S
C1452 C1453 1.404 . S
C1452 C1455 1.539 . S
C1453 C1449 1.408 . S
C1453 C1452 1.404 . S
C1453 H1465 0.930 . S
C1454 C1450 1.524 . S
C1454 H1466 0.956 . S
C1454 H1467 0.961 . S
C1454 H1468 0.961 . S
C1455 C1452 1.539 . S
C1455 H1469 0.958 . S
C1455 H1470 0.961 . S
C1455 H1471 0.960 . S
H1456 C1440 0.931 . S
H1457 C1445 0.928 . S
H1458 C1446 0.960 . S
H1459 C1446 0.962 . S
H1460 C1446 0.960 1_655 S
H1461 C1447 0.961 . S
H1462 C1447 0.961 . S
H1463 C1447 0.961 . S
H1464 C1448 0.931 . S
H1465 C1453 0.930 . S
H1466 C1454 0.956 . S
H1467 C1454 0.961 . S
H1468 C1454 0.961 . S
H1469 C1455 0.958 . S
H1470 C1455 0.961 . S
H1471 C1455 0.960 . S
C1472 C1473 1.391 . S
C1472 C1474 1.394 . S
C1472 H1488 0.931 . S
C1473 C1472 1.391 . S
C1473 C1477 1.376 . S
C1474 C1472 1.394 . S
C1474 C1475 1.369 . S
C1474 C1478 1.531 . S
C1475 C1474 1.369 . S
C1475 C1476 1.410 . S
C1475 C1483 1.503 . S
C1476 C1475 1.410 . S
C1476 C1477 1.392 . S
C1476 C1479 1.511 . S
C1477 C1473 1.376 . S
C1477 C1476 1.392 . S
C1477 H1489 0.929 . S
C1478 C1474 1.531 . S
C1478 H1490 0.960 . S
C1478 H1491 0.962 . S
C1478 H1492 0.960 . S
C1479 C1476 1.511 . S
C1479 H1493 0.961 . S
C1479 H1494 0.961 . S
C1479 H1495 0.961 . S
C1480 C1481 1.370 . S
C1480 C1482 1.363 . S
C1480 H1496 0.931 . S
C1481 C1480 1.370 . S
C1481 C1485 1.408 . S
C1482 C1480 1.363 . S
C1482 C1483 1.370 . S
C1482 C1486 1.524 . S
C1483 C1475 1.503 . S
C1483 C1482 1.370 . S
C1483 C1484 1.403 . S
C1484 C1483 1.403 . S
C1484 C1485 1.404 . S
C1484 C1487 1.539 . S
C1485 C1481 1.408 . S
C1485 C1484 1.404 . S
C1485 H1497 0.930 . S
C1486 C1482 1.524 . S
C1486 H1498 0.956 . S
C1486 H1499 0.961 . S
C1486 H1500 0.961 . S
C1487 C1484 1.539 . S
C1487 H1501 0.958 . S
C1487 H1502 0.961 . S
C1487 H1503 0.960 . S
H1488 C1472 0.931 . S
H1489 C1477 0.929 . S
H1490 C1478 0.960 . S
H1491 C1478 0.962 . S
H1492 C1478 0.960 . S
H1493 C1479 0.961 . S
H1494 C1479 0.961 . S
H1495 C1479 0.961 . S
H1496 C1480 0.931 . S
H1497 C1485 0.930 . S
H1498 C1486 0.956 . S
H1499 C1486 0.961 . S
H1500 C1486 0.961 . S
H1501 C1487 0.958 . S
H1502 C1487 0.961 . S
H1503 C1487 0.960 . S
C1504 C1505 1.391 . S
C1504 C1506 1.394 . S
C1504 H1520 0.931 . S
C1505 C1504 1.391 . S
C1505 C1509 1.376 . S
C1506 C1504 1.394 . S
C1506 C1507 1.369 . S
C1506 C1510 1.531 . S
C1507 C1506 1.369 . S
C1507 C1508 1.410 . S
C1507 C1515 1.503 . S
C1508 C1507 1.410 . S
C1508 C1509 1.392 . S
C1508 C1511 1.511 . S
C1509 C1505 1.376 . S
C1509 C1508 1.392 . S
C1509 H1521 0.929 . S
C1510 C1506 1.531 . S
C1510 H1522 0.960 . S
C1510 H1523 0.962 . S
C1510 H1524 0.960 . S
C1511 C1508 1.511 . S
C1511 H1525 0.961 . S
C1511 H1526 0.961 . S
C1511 H1527 0.961 . S
C1512 C1513 1.370 . S
C1512 C1514 1.363 . S
C1512 H1528 0.931 . S
C1513 C1512 1.370 . S
C1513 C1517 1.408 . S
C1514 C1512 1.363 . S
C1514 C1515 1.370 . S
C1514 C1518 1.524 . S
C1515 C1507 1.503 . S
C1515 C1514 1.370 . S
C1515 C1516 1.403 . S
C1516 C1515 1.403 . S
C1516 C1517 1.404 . S
C1516 C1519 1.539 . S
C1517 C1513 1.408 . S
C1517 C1516 1.404 . S
C1517 H1529 0.930 . S
C1518 C1514 1.524 . S
C1518 H1530 0.956 . S
C1518 H1531 0.961 . S
C1518 H1532 0.961 . S
C1519 C1516 1.539 . S
C1519 H1533 0.958 . S
C1519 H1534 0.961 . S
C1519 H1535 0.960 . S
H1520 C1504 0.931 . S
H1521 C1509 0.929 . S
H1522 C1510 0.960 . S
H1523 C1510 0.962 . S
H1524 C1510 0.960 . S
H1525 C1511 0.961 . S
H1526 C1511 0.961 . S
H1527 C1511 0.961 . S
H1528 C1512 0.931 . S
H1529 C1517 0.930 . S
H1530 C1518 0.956 . S
H1531 C1518 0.961 . S
H1532 C1518 0.961 . S
H1533 C1519 0.958 . S
H1534 C1519 0.961 . S
H1535 C1519 0.960 . S
C1536 C1537 1.391 . S
C1536 C1538 1.394 . S
C1536 H1552 0.931 . S
C1537 C1536 1.391 . S
C1537 C1541 1.376 . S
C1538 C1536 1.394 . S
C1538 C1539 1.369 . S
C1538 C1542 1.531 . S
C1539 C1538 1.369 . S
C1539 C1540 1.410 . S
C1539 C1547 1.503 . S
C1540 C1539 1.410 . S
C1540 C1541 1.392 . S
C1540 C1543 1.511 . S
C1541 C1537 1.376 . S
C1541 C1540 1.392 . S
C1541 H1553 0.929 . S
C1542 C1538 1.531 . S
C1542 H1554 0.960 . S
C1542 H1555 0.962 . S
C1542 H1556 0.960 . S
C1543 C1540 1.511 . S
C1543 H1557 0.961 . S
C1543 H1558 0.961 . S
C1543 H1559 0.961 . S
C1544 C1545 1.370 . S
C1544 C1546 1.363 . S
C1544 H1560 0.931 . S
C1545 C1544 1.370 . S
C1545 C1549 1.408 . S
C1546 C1544 1.363 . S
C1546 C1547 1.370 . S
C1546 C1550 1.524 . S
C1547 C1539 1.503 . S
C1547 C1546 1.370 . S
C1547 C1548 1.403 . S
C1548 C1547 1.403 . S
C1548 C1549 1.404 . S
C1548 C1551 1.539 . S
C1549 C1545 1.408 . S
C1549 C1548 1.404 . S
C1549 H1561 0.930 . S
C1550 C1546 1.524 . S
C1550 H1562 0.956 . S
C1550 H1563 0.961 . S
C1550 H1564 0.961 . S
C1551 C1548 1.539 . S
C1551 H1565 0.958 . S
C1551 H1566 0.961 . S
C1551 H1567 0.960 . S
H1552 C1536 0.931 . S
H1553 C1541 0.929 . S
H1554 C1542 0.960 . S
H1555 C1542 0.962 . S
H1556 C1542 0.960 . S
H1557 C1543 0.961 . S
H1558 C1543 0.961 . S
H1559 C1543 0.961 . S
H1560 C1544 0.931 . S
H1561 C1549 0.930 . S
H1562 C1550 0.956 . S
H1563 C1550 0.961 . S
H1564 C1550 0.961 . S
H1565 C1551 0.958 . S
H1566 C1551 0.961 . S
H1567 C1551 0.960 . S
C1568 C1569 1.391 . S
C1568 C1570 1.394 . S
C1568 H1584 0.931 . S
C1569 C1568 1.391 . S
C1569 C1573 1.376 . S
C1570 C1568 1.394 . S
C1570 C1571 1.369 . S
C1570 C1574 1.531 . S
C1571 C1570 1.369 . S
C1571 C1572 1.410 . S
C1571 C1579 1.503 . S
C1572 C1571 1.410 . S
C1572 C1573 1.392 . S
C1572 C1575 1.511 . S
C1573 C1569 1.376 . S
C1573 C1572 1.392 . S
C1573 H1585 0.929 . S
C1574 C1570 1.531 . S
C1574 H1586 0.960 . S
C1574 H1587 0.962 . S
C1574 H1588 0.960 . S
C1575 C1572 1.511 . S
C1575 H1589 0.961 . S
C1575 H1590 0.961 . S
C1575 H1591 0.961 . S
C1576 C1577 1.370 1_655 S
C1576 C1578 1.363 . S
C1576 H1592 0.931 1_655 S
C1577 C1576 1.370 1_455 S
C1577 C1581 1.408 . S
C1578 C1576 1.363 . S
C1578 C1579 1.370 . S
C1578 C1582 1.524 . S
C1579 C1571 1.503 . S
C1579 C1578 1.370 . S
C1579 C1580 1.403 . S
C1580 C1579 1.403 . S
C1580 C1581 1.404 1_655 S
C1580 C1583 1.539 . S
C1581 C1577 1.408 . S
C1581 C1580 1.404 1_455 S
C1581 H1593 0.930 . S
C1582 C1578 1.524 . S
C1582 H1594 0.956 . S
C1582 H1595 0.961 . S
C1582 H1596 0.961 . S
C1583 C1580 1.539 . S
C1583 H1597 0.958 . S
C1583 H1598 0.961 1_655 S
C1583 H1599 0.960 . S
H1584 C1568 0.931 . S
H1585 C1573 0.929 . S
H1586 C1574 0.960 . S
H1587 C1574 0.962 . S
H1588 C1574 0.960 . S
H1589 C1575 0.961 . S
H1590 C1575 0.961 . S
H1591 C1575 0.961 . S
H1592 C1576 0.931 1_455 S
H1593 C1581 0.930 . S
H1594 C1582 0.956 . S
H1595 C1582 0.961 . S
H1596 C1582 0.961 . S
H1597 C1583 0.958 . S
H1598 C1583 0.961 1_455 S
H1599 C1583 0.960 . S
C1600 C1601 1.391 . S
C1600 C1602 1.394 . S
C1600 H1616 0.931 . S
C1601 C1600 1.391 . S
C1601 C1605 1.376 . S
C1602 C1600 1.394 . S
C1602 C1603 1.369 . S
C1602 C1606 1.531 . S
C1603 C1602 1.369 . S
C1603 C1604 1.410 . S
C1603 C1611 1.503 . S
C1604 C1603 1.410 . S
C1604 C1605 1.392 . S
C1604 C1607 1.511 . S
C1605 C1601 1.376 . S
C1605 C1604 1.392 . S
C1605 H1617 0.929 . S
C1606 C1602 1.531 . S
C1606 H1618 0.960 . S
C1606 H1619 0.962 . S
C1606 H1620 0.960 . S
C1607 C1604 1.511 . S
C1607 H1621 0.961 . S
C1607 H1622 0.961 . S
C1607 H1623 0.961 . S
C1608 C1609 1.370 . S
C1608 C1610 1.363 . S
C1608 H1624 0.931 . S
C1609 C1608 1.370 . S
C1609 C1613 1.408 . S
C1610 C1608 1.363 . S
C1610 C1611 1.370 . S
C1610 C1614 1.524 . S
C1611 C1603 1.503 . S
C1611 C1610 1.370 . S
C1611 C1612 1.403 . S
C1612 C1611 1.403 . S
C1612 C1613 1.404 . S
C1612 C1615 1.539 . S
C1613 C1609 1.408 . S
C1613 C1612 1.404 . S
C1613 H1625 0.930 . S
C1614 C1610 1.524 . S
C1614 H1626 0.956 . S
C1614 H1627 0.961 . S
C1614 H1628 0.961 . S
C1615 C1612 1.539 . S
C1615 H1629 0.958 . S
C1615 H1630 0.961 . S
C1615 H1631 0.960 . S
H1616 C1600 0.931 . S
H1617 C1605 0.929 . S
H1618 C1606 0.960 . S
H1619 C1606 0.962 . S
H1620 C1606 0.960 . S
H1621 C1607 0.961 . S
H1622 C1607 0.961 . S
H1623 C1607 0.961 . S
H1624 C1608 0.931 . S
H1625 C1613 0.930 . S
H1626 C1614 0.956 . S
H1627 C1614 0.961 . S
H1628 C1614 0.961 . S
H1629 C1615 0.958 . S
H1630 C1615 0.961 . S
H1631 C1615 0.960 . S
C1632 C1633 1.391 . S
C1632 C1634 1.394 . S
C1632 H1648 0.931 . S
C1633 C1632 1.391 . S
C1633 C1637 1.376 . S
C1634 C1632 1.394 . S
C1634 C1635 1.369 . S
C1634 C1638 1.531 . S
C1635 C1634 1.369 . S
C1635 C1636 1.410 . S
C1635 C1643 1.503 . S
C1636 C1635 1.410 . S
C1636 C1637 1.392 . S
C1636 C1639 1.511 . S
C1637 C1633 1.376 . S
C1637 C1636 1.392 . S
C1637 H1649 0.929 . S
C1638 C1634 1.531 . S
C1638 H1650 0.960 . S
C1638 H1651 0.962 . S
C1638 H1652 0.960 . S
C1639 C1636 1.511 . S
C1639 H1653 0.961 . S
C1639 H1654 0.961 . S
C1639 H1655 0.961 1_565 S
C1640 C1641 1.370 . S
C1640 C1642 1.363 1_455 S
C1640 H1656 0.931 . S
C1641 C1640 1.370 . S
C1641 C1645 1.413 . S
C1642 C1640 1.363 1_655 S
C1642 C1643 1.370 . S
C1642 C1646 1.524 . S
C1643 C1635 1.503 . S
C1643 C1642 1.370 . S
C1643 C1644 1.403 . S
C1644 C1643 1.403 . S
C1644 C1645 1.407 1_655 S
C1644 C1647 1.539 1_565 S
C1645 C1641 1.413 . S
C1645 C1644 1.407 1_455 S
C1645 H1657 0.922 1_565 S
C1646 C1642 1.524 . S
C1646 H1658 0.956 . S
C1646 H1659 0.961 . S
C1646 H1660 0.961 . S
C1647 C1644 1.539 1_545 S
C1647 H1661 0.958 . S
C1647 H1662 0.961 . S
C1647 H1663 0.960 . S
H1648 C1632 0.931 . S
H1649 C1637 0.929 . S
H1650 C1638 0.960 . S
H1651 C1638 0.962 . S
H1652 C1638 0.960 . S
H1653 C1639 0.961 . S
H1654 C1639 0.961 . S
H1655 C1639 0.961 1_545 S
H1656 C1640 0.931 . S
H1657 C1645 0.922 1_545 S
H1658 C1646 0.956 . S
H1659 C1646 0.961 . S
H1660 C1646 0.961 . S
H1661 C1647 0.958 . S
H1662 C1647 0.961 . S
H1663 C1647 0.960 . S
C1664 C1665 1.391 . S
C1664 C1666 1.394 . S
C1664 H1680 0.931 . S
C1665 C1664 1.391 . S
C1665 C1669 1.376 . S
C1666 C1664 1.394 . S
C1666 C1667 1.369 . S
C1666 C1670 1.531 . S
C1667 C1666 1.369 . S
C1667 C1668 1.410 . S
C1667 C1675 1.503 . S
C1668 C1667 1.410 . S
C1668 C1669 1.392 . S
C1668 C1671 1.511 . S
C1669 C1665 1.376 . S
C1669 C1668 1.392 . S
C1669 H1681 0.929 . S
C1670 C1666 1.531 . S
C1670 H1682 0.960 . S
C1670 H1683 0.962 . S
C1670 H1684 0.960 . S
C1671 C1668 1.511 . S
C1671 H1685 0.961 . S
C1671 H1686 0.961 . S
C1671 H1687 0.961 . S
C1672 C1673 1.370 . S
C1672 C1674 1.363 . S
C1672 H1688 0.931 . S
C1673 C1672 1.370 . S
C1673 C1677 1.408 . S
C1674 C1672 1.363 . S
C1674 C1675 1.370 . S
C1674 C1678 1.524 . S
C1675 C1667 1.503 . S
C1675 C1674 1.370 . S
C1675 C1676 1.403 . S
C1676 C1675 1.403 . S
C1676 C1677 1.404 . S
C1676 C1679 1.539 . S
C1677 C1673 1.408 . S
C1677 C1676 1.404 . S
C1677 H1689 0.930 . S
C1678 C1674 1.524 . S
C1678 H1690 0.956 . S
C1678 H1691 0.961 . S
C1678 H1692 0.961 . S
C1679 C1676 1.539 . S
C1679 H1693 0.958 . S
C1679 H1694 0.961 . S
C1679 H1695 0.960 . S
H1680 C1664 0.931 . S
H1681 C1669 0.929 . S
H1682 C1670 0.960 . S
H1683 C1670 0.962 . S
H1684 C1670 0.960 . S
H1685 C1671 0.961 . S
H1686 C1671 0.961 . S
H1687 C1671 0.961 . S
H1688 C1672 0.931 . S
H1689 C1677 0.930 . S
H1690 C1678 0.956 . S
H1691 C1678 0.961 . S
H1692 C1678 0.961 . S
H1693 C1679 0.958 . S
H1694 C1679 0.961 . S
H1695 C1679 0.960 . S
C1696 C1697 1.391 . S
C1696 C1698 1.394 . S
C1696 H1712 0.931 . S
C1697 C1696 1.391 . S
C1697 C1701 1.376 . S
C1698 C1696 1.394 . S
C1698 C1699 1.369 . S
C1698 C1702 1.531 . S
C1699 C1698 1.369 . S
C1699 C1700 1.410 . S
C1699 C1707 1.503 . S
C1700 C1699 1.410 . S
C1700 C1701 1.392 . S
C1700 C1703 1.511 . S
C1701 C1697 1.376 . S
C1701 C1700 1.392 . S
C1701 H1713 0.929 . S
C1702 C1698 1.531 . S
C1702 H1714 0.960 . S
C1702 H1715 0.962 . S
C1702 H1716 0.960 . S
C1703 C1700 1.511 . S
C1703 H1717 0.961 . S
C1703 H1718 0.961 . S
C1703 H1719 0.961 . S
C1704 C1705 1.370 . S
C1704 C1706 1.363 . S
C1704 H1720 0.931 . S
C1705 C1704 1.370 . S
C1705 C1709 1.408 . S
C1706 C1704 1.363 . S
C1706 C1707 1.370 . S
C1706 C1710 1.524 . S
C1707 C1699 1.503 . S
C1707 C1706 1.370 . S
C1707 C1708 1.403 . S
C1708 C1707 1.403 . S
C1708 C1709 1.404 . S
C1708 C1711 1.539 . S
C1709 C1705 1.408 . S
C1709 C1708 1.404 . S
C1709 H1721 0.930 . S
C1710 C1706 1.524 . S
C1710 H1722 0.956 . S
C1710 H1723 0.961 1_545 S
C1710 H1724 0.961 1_545 S
C1711 C1708 1.539 . S
C1711 H1725 0.958 . S
C1711 H1726 0.961 . S
C1711 H1727 0.960 . S
H1712 C1696 0.931 . S
H1713 C1701 0.929 . S
H1714 C1702 0.960 . S
H1715 C1702 0.962 . S
H1716 C1702 0.960 . S
H1717 C1703 0.961 . S
H1718 C1703 0.961 . S
H1719 C1703 0.961 . S
H1720 C1704 0.931 . S
H1721 C1709 0.930 . S
H1722 C1710 0.956 . S
H1723 C1710 0.961 1_565 S
H1724 C1710 0.961 1_565 S
H1725 C1711 0.958 . S
H1726 C1711 0.961 . S
H1727 C1711 0.960 . S
C1728 C1729 1.391 . S
C1728 C1730 1.394 . S
C1728 H1744 0.931 . S
C1729 C1728 1.391 . S
C1729 C1733 1.376 . S
C1730 C1728 1.394 . S
C1730 C1731 1.369 . S
C1730 C1734 1.531 . S
C1731 C1730 1.369 . S
C1731 C1732 1.410 . S
C1731 C1739 1.503 . S
C1732 C1731 1.410 . S
C1732 C1733 1.392 . S
C1732 C1735 1.511 . S
C1733 C1729 1.376 . S
C1733 C1732 1.392 . S
C1733 H1745 0.929 . S
C1734 C1730 1.531 . S
C1734 H1746 0.960 . S
C1734 H1747 0.962 . S
C1734 H1748 0.960 . S
C1735 C1732 1.511 . S
C1735 H1749 0.961 . S
C1735 H1750 0.961 . S
C1735 H1751 0.961 . S
C1736 C1737 1.370 . S
C1736 C1738 1.363 . S
C1736 H1752 0.931 . S
C1737 C1736 1.370 . S
C1737 C1741 1.408 . S
C1738 C1736 1.363 . S
C1738 C1739 1.370 . S
C1738 C1742 1.524 . S
C1739 C1731 1.503 . S
C1739 C1738 1.370 . S
C1739 C1740 1.403 . S
C1740 C1739 1.403 . S
C1740 C1741 1.404 . S
C1740 C1743 1.539 . S
C1741 C1737 1.408 . S
C1741 C1740 1.404 . S
C1741 H1753 0.930 . S
C1742 C1738 1.524 . S
C1742 H1754 0.956 . S
C1742 H1755 0.961 . S
C1742 H1756 0.961 . S
C1743 C1740 1.539 . S
C1743 H1757 0.958 . S
C1743 H1758 0.961 . S
C1743 H1759 0.960 . S
H1744 C1728 0.931 . S
H1745 C1733 0.929 . S
H1746 C1734 0.960 . S
H1747 C1734 0.962 . S
H1748 C1734 0.960 . S
H1749 C1735 0.961 . S
H1750 C1735 0.961 . S
H1751 C1735 0.961 . S
H1752 C1736 0.931 . S
H1753 C1741 0.930 . S
H1754 C1742 0.956 . S
H1755 C1742 0.961 . S
H1756 C1742 0.961 . S
H1757 C1743 0.958 . S
H1758 C1743 0.961 . S
H1759 C1743 0.960 . S
C1760 C1761 1.391 . S
C1760 C1762 1.394 1_655 S
C1760 H1776 0.931 . S
C1761 C1760 1.391 . S
C1761 C1765 1.364 1_655 S
C1762 C1760 1.394 1_455 S
C1762 C1763 1.369 . S
C1762 C1766 1.531 . S
C1763 C1762 1.369 . S
C1763 C1764 1.410 . S
C1763 C1771 1.503 . S
C1764 C1763 1.410 . S
C1764 C1765 1.416 . S
C1764 C1767 1.511 1_545 S
C1765 C1761 1.364 1_455 S
C1765 C1764 1.416 . S
C1765 H1777 0.917 1_445 S
C1766 C1762 1.531 . S
C1766 H1778 0.960 . S
C1766 H1779 0.962 . S
C1766 H1780 0.960 1_455 S
C1767 C1764 1.511 1_565 S
C1767 H1781 0.961 . S
C1767 H1782 0.961 . S
C1767 H1783 0.961 . S
C1768 C1769 1.370 . S
C1768 C1770 1.363 . S
C1768 H1784 0.931 . S
C1769 C1768 1.370 . S
C1769 C1773 1.408 . S
C1770 C1768 1.363 . S
C1770 C1771 1.370 . S
C1770 C1774 1.524 . S
C1771 C1763 1.503 . S
C1771 C1770 1.370 . S
C1771 C1772 1.403 . S
C1772 C1771 1.403 . S
C1772 C1773 1.404 . S
C1772 C1775 1.539 . S
C1773 C1769 1.408 . S
C1773 C1772 1.404 . S
C1773 H1785 0.930 . S
C1774 C1770 1.524 . S
C1774 H1786 0.956 . S
C1774 H1787 0.961 . S
C1774 H1788 0.961 . S
C1775 C1772 1.539 . S
C1775 H1789 0.958 . S
C1775 H1790 0.961 . S
C1775 H1791 0.960 . S
H1776 C1760 0.931 . S
H1777 C1765 0.917 1_665 S
H1778 C1766 0.960 . S
H1779 C1766 0.962 . S
H1780 C1766 0.960 1_655 S
H1781 C1767 0.961 . S
H1782 C1767 0.961 . S
H1783 C1767 0.961 . S
H1784 C1768 0.931 . S
H1785 C1773 0.930 . S
H1786 C1774 0.956 . S
H1787 C1774 0.961 . S
H1788 C1774 0.961 . S
H1789 C1775 0.958 . S
H1790 C1775 0.961 . S
H1791 C1775 0.960 . S
C1792 C1793 1.391 . S
C1792 C1794 1.394 . S
C1792 H1808 0.931 . S
C1793 C1792 1.391 . S
C1793 C1797 1.376 . S
C1794 C1792 1.394 . S
C1794 C1795 1.369 . S
C1794 C1798 1.531 . S
C1795 C1794 1.369 . S
C1795 C1796 1.410 . S
C1795 C1803 1.503 . S
C1796 C1795 1.410 . S
C1796 C1797 1.392 . S
C1796 C1799 1.511 . S
C1797 C1793 1.376 . S
C1797 C1796 1.392 . S
C1797 H1809 0.929 . S
C1798 C1794 1.531 . S
C1798 H1810 0.960 . S
C1798 H1811 0.962 . S
C1798 H1812 0.960 . S
C1799 C1796 1.511 . S
C1799 H1813 0.961 . S
C1799 H1814 0.961 . S
C1799 H1815 0.961 . S
C1800 C1801 1.370 . S
C1800 C1802 1.363 . S
C1800 H1816 0.931 . S
C1801 C1800 1.370 . S
C1801 C1805 1.408 . S
C1802 C1800 1.363 . S
C1802 C1803 1.370 . S
C1802 C1806 1.524 . S
C1803 C1795 1.503 . S
C1803 C1802 1.370 . S
C1803 C1804 1.403 . S
C1804 C1803 1.403 . S
C1804 C1805 1.404 . S
C1804 C1807 1.539 . S
C1805 C1801 1.408 . S
C1805 C1804 1.404 . S
C1805 H1817 0.930 . S
C1806 C1802 1.524 . S
C1806 H1818 0.956 . S
C1806 H1819 0.961 . S
C1806 H1820 0.961 . S
C1807 C1804 1.539 . S
C1807 H1821 0.958 . S
C1807 H1822 0.961 . S
C1807 H1823 0.960 . S
H1808 C1792 0.931 . S
H1809 C1797 0.929 . S
H1810 C1798 0.960 . S
H1811 C1798 0.962 . S
H1812 C1798 0.960 . S
H1813 C1799 0.961 . S
H1814 C1799 0.961 . S
H1815 C1799 0.961 . S
H1816 C1800 0.931 . S
H1817 C1805 0.930 . S
H1818 C1806 0.956 . S
H1819 C1806 0.961 . S
H1820 C1806 0.961 . S
H1821 C1807 0.958 . S
H1822 C1807 0.961 . S
H1823 C1807 0.960 . S
C1824 C1825 1.391 . S
C1824 C1826 1.394 . S
C1824 H1840 0.931 . S
C1825 C1824 1.391 . S
C1825 C1829 1.376 . S
C1826 C1824 1.394 . S
C1826 C1827 1.369 . S
C1826 C1830 1.531 . S
C1827 C1826 1.369 . S
C1827 C1828 1.410 . S
C1827 C1835 1.503 . S
C1828 C1827 1.410 . S
C1828 C1829 1.392 . S
C1828 C1831 1.511 . S
C1829 C1825 1.376 . S
C1829 C1828 1.392 . S
C1829 H1841 0.929 . S
C1830 C1826 1.531 . S
C1830 H1842 0.960 . S
C1830 H1843 0.962 . S
C1830 H1844 0.960 . S
C1831 C1828 1.511 . S
C1831 H1845 0.961 . S
C1831 H1846 0.961 . S
C1831 H1847 0.961 . S
C1832 C1833 1.370 . S
C1832 C1834 1.363 . S
C1832 H1848 0.931 1_565 S
C1833 C1832 1.370 . S
C1833 C1837 1.408 . S
C1834 C1832 1.363 . S
C1834 C1835 1.370 . S
C1834 C1838 1.524 1_565 S
C1835 C1827 1.503 . S
C1835 C1834 1.370 . S
C1835 C1836 1.403 . S
C1836 C1835 1.403 . S
C1836 C1837 1.404 . S
C1836 C1839 1.539 . S
C1837 C1833 1.408 . S
C1837 C1836 1.404 . S
C1837 H1849 0.930 . S
C1838 C1834 1.524 1_545 S
C1838 H1850 0.956 1_545 S
C1838 H1851 0.961 . S
C1838 H1852 0.961 . S
C1839 C1836 1.539 . S
C1839 H1853 0.958 . S
C1839 H1854 0.961 . S
C1839 H1855 0.960 . S
H1840 C1824 0.931 . S
H1841 C1829 0.929 . S
H1842 C1830 0.960 . S
H1843 C1830 0.962 . S
H1844 C1830 0.960 . S
H1845 C1831 0.961 . S
H1846 C1831 0.961 . S
H1847 C1831 0.961 . S
H1848 C1832 0.931 1_545 S
H1849 C1837 0.930 . S
H1850 C1838 0.956 1_565 S
H1851 C1838 0.961 . S
H1852 C1838 0.961 . S
H1853 C1839 0.958 . S
H1854 C1839 0.961 . S
H1855 C1839 0.960 . S
C321 C8 0.788 . S
C329 C259 0.695 . S
C353 C119 0.626 . S
C361 C28 0.758 . S
C385 C48 0.603 . S
C393 C299 0.764 . S
C417 C68 0.655 . S
C425 C159 0.737 . S
C449 C99 0.647 . S
C457 C168 0.752 . S
C481 C208 0.787 . S
C489 C139 0.681 . S
C513 C279 0.819 . S
C521 C188 0.669 . S
C545 C228 0.596 . S
C553 C319 0.764 . S
C577 C189 1.910 . S
C585 C19 1.889 . S
C609 C39 1.874 . S
C617 C209 1.921 . S
C641 C59 1.874 . S
C649 C229 1.921 . S
C673 C169 1.928 . S
C681 C79 1.888 . S
C705 C261 1.930 . S
C713 C88 1.881 . S
C737 C281 1.913 . S
C745 C108 1.896 . S
C769 C128 1.867 . S
C777 C301 1.925 . S
C801 C241 1.921 . S
C809 C148 1.885 . S
C833 C179 1.873 . S
C841 C29 1.927 . S
C865 C199 1.868 1_565 S
C873 C49 1.923 . S
C897 C219 1.903 . S
C905 C69 1.916 . S
C929 C9 1.910 . S
C937 C239 1.890 1_545 S
C961 C101 1.923 . S
C969 C248 1.884 . S
C993 C268 1.876 1_545 S
C1001 C121 1.926 . S
C1025 C141 1.930 . S
C1033 C288 1.881 . S
C1057 C308 1.870 1_565 S
C1065 C81 1.927 . S
C1089 C16 2.146 . S
C1097 C216 2.135 . S
C1121 C36 2.142 . S
C1129 C236 2.137 . S
C1153 C176 2.107 . S
C1161 C56 2.119 . S
C1185 C76 2.135 . S
C1193 C196 2.138 . S
C1217 C86 2.101 . S
C1225 C286 2.123 . S
C1249 C106 2.118 . S
C1257 C306 2.118 . S
C1281 C246 2.101 . S
C1289 C126 2.127 . S
C1313 C146 2.144 . S
C1321 C266 2.127 . S
C1345 C1 1.051 . S
C1353 C156 1.156 . S
C1377 C256 1.154 . S
C1385 C21 1.090 . S
C1409 C41 1.036 . S
C1417 C116 1.160 . S
C1441 C61 1.053 . S
C1449 C296 1.156 . S
C1473 C89 1.077 . S
C1481 C66 1.145 . S
C1505 C166 1.111 . S
C1513 C109 1.116 . S
C1537 C129 1.126 . S
C1545 C26 1.135 . S
C1569 C206 1.112 . S
C1577 C149 1.117 . S
C1601 C161 1.109 . S
C1609 C316 1.142 . S
C1633 C96 1.143 . S
C1641 C181 1.098 . S
C1665 C276 1.157 . S
C1673 C201 1.085 . S
C1697 C221 1.084 . S
C1705 C136 1.148 . S
C1729 C249 1.066 . S
C1737 C226 1.148 . S
C1761 C269 1.148 . S
C1769 C6 1.135 . S
C1793 C186 1.116 . S
C1801 C289 1.118 . S
C1825 C46 1.136 . S
C1833 C309 1.092 . S
