# Generated by pormake.
# Topology wjh, (4)-cn, num edge types: 1
# Building blocks:
#     Node 0, Type 0, BuildingBlock: AZAVOO_clean_sbu_0, # of connection points: 4
#     Node 1, Type 0, BuildingBlock: AZAVOO_clean_sbu_0, # of connection points: 4
#     Node 2, Type 0, BuildingBlock: AZAVOO_clean_sbu_0, # of connection points: 4
#     Node 3, Type 0, BuildingBlock: AZAVOO_clean_sbu_0, # of connection points: 4
#     Node 4, Type 0, BuildingBlock: AZAVOO_clean_sbu_0, # of connection points: 4
#     Node 5, Type 0, BuildingBlock: AZAVOO_clean_sbu_0, # of connection points: 4
#     Node 6, Type 0, BuildingBlock: AZAVOO_clean_sbu_0, # of connection points: 4
#     Node 7, Type 0, BuildingBlock: AZAVOO_clean_sbu_0, # of connection points: 4
#     Node 8, Type 0, BuildingBlock: AZAVOO_clean_sbu_0, # of connection points: 4
#     Node 9, Type 0, BuildingBlock: AZAVOO_clean_sbu_0, # of connection points: 4
#     Node 10, Type 0, BuildingBlock: AZAVOO_clean_sbu_0, # of connection points: 4
#     Node 11, Type 0, BuildingBlock: AZAVOO_clean_sbu_0, # of connection points: 4
#     Edge 12, Type (0, 0), BuildingBlock: AJUNOK_clean_linker_0, # of connection points: 2
#     Edge 13, Type (0, 0), BuildingBlock: AJUNOK_clean_linker_0, # of connection points: 2
#     Edge 14, Type (0, 0), BuildingBlock: AJUNOK_clean_linker_0, # of connection points: 2
#     Edge 15, Type (0, 0), BuildingBlock: AJUNOK_clean_linker_0, # of connection points: 2
#     Edge 16, Type (0, 0), BuildingBlock: AJUNOK_clean_linker_0, # of connection points: 2
#     Edge 17, Type (0, 0), BuildingBlock: AJUNOK_clean_linker_0, # of connection points: 2
#     Edge 18, Type (0, 0), BuildingBlock: AJUNOK_clean_linker_0, # of connection points: 2
#     Edge 19, Type (0, 0), BuildingBlock: AJUNOK_clean_linker_0, # of connection points: 2
#     Edge 20, Type (0, 0), BuildingBlock: AJUNOK_clean_linker_0, # of connection points: 2
#     Edge 21, Type (0, 0), BuildingBlock: AJUNOK_clean_linker_0, # of connection points: 2
#     Edge 22, Type (0, 0), BuildingBlock: AJUNOK_clean_linker_0, # of connection points: 2
#     Edge 23, Type (0, 0), BuildingBlock: AJUNOK_clean_linker_0, # of connection points: 2
#     Edge 24, Type (0, 0), BuildingBlock: AJUNOK_clean_linker_0, # of connection points: 2
#     Edge 25, Type (0, 0), BuildingBlock: AJUNOK_clean_linker_0, # of connection points: 2
#     Edge 26, Type (0, 0), BuildingBlock: AJUNOK_clean_linker_0, # of connection points: 2
#     Edge 27, Type (0, 0), BuildingBlock: AJUNOK_clean_linker_0, # of connection points: 2
#     Edge 28, Type (0, 0), BuildingBlock: AJUNOK_clean_linker_0, # of connection points: 2
#     Edge 29, Type (0, 0), BuildingBlock: AJUNOK_clean_linker_0, # of connection points: 2
#     Edge 30, Type (0, 0), BuildingBlock: AJUNOK_clean_linker_0, # of connection points: 2
#     Edge 31, Type (0, 0), BuildingBlock: AJUNOK_clean_linker_0, # of connection points: 2
#     Edge 32, Type (0, 0), BuildingBlock: AJUNOK_clean_linker_0, # of connection points: 2
#     Edge 33, Type (0, 0), BuildingBlock: AJUNOK_clean_linker_0, # of connection points: 2
#     Edge 34, Type (0, 0), BuildingBlock: AJUNOK_clean_linker_0, # of connection points: 2
#     Edge 35, Type (0, 0), BuildingBlock: AJUNOK_clean_linker_0, # of connection points: 2
# Relax obj value: 0.173
# Max RMSD: 0.152
# Mean RMSD: 0.152
data_MOF--net-wjh--node1-AZAVOO_clean_sbu_0--edge1-AJUNOK_clean_linker_0
_symmetry_space_group_name_H-M    P1
_symmetry_Int_Tables_number       1
_symmetry_cell_setting            triclinic
loop_
_symmetry_equiv_pos_as_xyz
'x, y, z'
_cell_length_a     47.70303
_cell_length_b     47.760547
_cell_length_c     17.663348
_cell_angle_alpha  89.907515
_cell_angle_beta   90.0502
_cell_angle_gamma 120.10446
loop_
_atom_site_label
_atom_site_type_symbol
_atom_site_fract_x
_atom_site_fract_y
_atom_site_fract_z
_atom_type_partial_charge
Mg0 Mg 0.46356 0.11334 0.07204 0.0
O1 O 0.49659 0.11489 0.16818 0.0
O2 O 0.51674 0.08309 0.13771 0.0
Mg3 Mg 0.49664 0.06174 0.02143 0.0
C4 C 0.51411 0.10236 0.18317 0.0
C5 C 0.438 0.1558 0.13967 0.0
O6 O 0.41035 0.12893 0.12888 0.0
O7 O 0.5063 0.14615 -0.00232 0.0
O8 O 0.52441 0.11248 0.96866 0.0
O9 O 0.42296 0.07114 0.1284 0.0
O10 O 0.45411 0.06759 0.04001 0.0
C11 C 0.52626 0.14007 0.96423 0.0
C12 C 0.43114 0.05357 0.08882 0.0
O13 O 0.4642 0.15668 0.12228 0.0
Mg14 Mg 0.34408 0.47191 0.25988 0.0
O15 O 0.3791 0.50114 0.35575 0.0
O16 O 0.42871 0.51211 0.32195 0.0
Mg17 Mg 0.42613 0.49535 0.1999 0.0
C18 C 0.40914 0.51283 0.36994 0.0
C19 C 0.27778 0.46362 0.28785 0.0
O20 O 0.27411 0.44965 0.22167 0.0
O21 O 0.35799 0.51687 0.18961 0.0
O22 O 0.40784 0.52853 0.15542 0.0
O23 O 0.3412 0.42743 0.30753 0.0
O24 O 0.37553 0.45775 0.21766 0.0
C25 C 0.38448 0.5344 0.15432 0.0
C26 C 0.36505 0.43342 0.26269 0.0
O27 O 0.30519 0.4763 0.31994 0.0
Mg28 Mg 0.84836 0.35553 0.39247 0.0
O29 O 0.8506 0.38613 0.49542 0.0
O30 O 0.88361 0.4381 0.46549 0.0
Mg31 Mg 0.90365 0.44079 0.34741 0.0
C32 C 0.86455 0.41623 0.51151 0.0
C33 C 0.80668 0.29023 0.47649 0.0
O34 O 0.83541 0.29342 0.48704 0.0
O35 O 0.81628 0.36957 0.32686 0.0
O36 O 0.85275 0.42087 0.2989 0.0
O37 O 0.89084 0.35322 0.4364 0.0
O38 O 0.89427 0.39095 0.35824 0.0
C39 C 0.82406 0.39655 0.29549 0.0
C40 C 0.90868 0.37944 0.39824 0.0
O41 O 0.80446 0.31224 0.44146 0.0
Mg42 Mg 0.49644 0.86275 0.60316 0.0
O43 O 0.47007 0.86364 0.7114 0.0
O44 O 0.44602 0.89248 0.68606 0.0
Mg45 Mg 0.45966 0.91261 0.56654 0.0
C46 C 0.45231 0.87539 0.73089 0.0
C47 C 0.49643 0.79836 0.60814 0.0
O48 O 0.49034 0.7994 0.53597 0.0
O49 O 0.44889 0.828 0.54488 0.0
O50 O 0.43012 0.86142 0.51916 0.0
O51 O 0.54156 0.90674 0.63956 0.0
O52 O 0.50309 0.90744 0.57093 0.0
C53 C 0.42775 0.83361 0.51579 0.0
C54 C 0.53046 0.92322 0.60555 0.0
O55 O 0.50049 0.82137 0.65102 0.0
Mg56 Mg 0.62681 0.50026 0.75269 0.0
O57 O 0.59693 0.47149 0.85633 0.0
O58 O 0.54463 0.45153 0.82861 0.0
Mg59 Mg 0.54133 0.46872 0.71005 0.0
C60 C 0.56697 0.45503 0.87399 0.0
C61 C 0.68544 0.51835 0.8578 0.0
O62 O 0.67366 0.53467 0.89181 0.0
O63 O 0.61335 0.45437 0.68712 0.0
O64 O 0.56171 0.43839 0.6597 0.0
O65 O 0.62868 0.54452 0.79747 0.0
O66 O 0.59103 0.51002 0.71874 0.0
C67 C 0.58649 0.43484 0.65559 0.0
C68 C 0.6025 0.53588 0.75892 0.0
O69 O 0.6708 0.50118 0.80056 0.0
Mg70 Mg 0.12115 0.63245 0.88242 0.0
O71 O 0.11797 0.59973 0.9817 0.0
O72 O 0.08292 0.54852 0.94984 0.0
Mg73 Mg 0.06393 0.54851 0.83164 0.0
C74 C 0.10265 0.56947 -0.00344 0.0
C75 C 0.16506 0.70094 0.93639 0.0
O76 O 0.14031 0.70195 0.90684 0.0
O77 O 0.15231 0.61857 0.81237 0.0
O78 O 0.1148 0.56784 0.78284 0.0
O79 O 0.07998 0.63509 0.9323 0.0
O80 O 0.07475 0.59859 0.84727 0.0
C81 C 0.14375 0.59173 0.77949 0.0
C82 C 0.06153 0.60966 0.89247 0.0
O83 O 0.16506 0.67437 0.93518 0.0
Mg84 Mg 0.86239 0.51328 0.93705 0.0
O85 O 0.85915 0.48276 0.83336 0.0
O86 O 0.88794 0.45866 0.85857 0.0
Mg87 Mg 0.90992 0.47437 0.97612 0.0
C88 C 0.87005 0.46419 0.81455 0.0
C89 C 0.80727 0.52722 0.94157 0.0
O90 O 0.81958 0.53535 0.00995 0.0
O91 O 0.82753 0.4687 0.00329 0.0
O92 O 0.85894 0.44746 0.02807 0.0
O93 O 0.90639 0.55498 0.8889 0.0
O94 O 0.90684 0.51873 0.96648 0.0
C95 C 0.83201 0.44702 0.03334 0.0
C96 C 0.92263 0.544 0.92468 0.0
O97 O 0.82056 0.51758 0.89416 0.0
Mg98 Mg 0.3412 0.85526 0.14415 0.0
O99 O 0.37433 0.8568 0.04817 0.0
O100 O 0.42572 0.8908 0.0809 0.0
Mg101 Mg 0.42527 0.91067 0.19788 0.0
C102 C 0.40466 0.87114 0.03422 0.0
C103 C 0.2743 0.81303 0.07442 0.0
O104 O 0.27387 0.83967 0.09034 0.0
O105 O 0.35318 0.82356 0.21769 0.0
O106 O 0.40412 0.85992 0.24908 0.0
O107 O 0.34058 0.89693 0.09063 0.0
O108 O 0.37579 0.90163 0.17862 0.0
C109 C 0.37951 0.83141 0.25247 0.0
C110 C 0.3658 0.91524 0.13139 0.0
O111 O 0.29941 0.81147 0.09051 0.0
Mg112 Mg 0.47397 0.34402 0.29187 0.0
O113 O 0.50379 0.37535 0.19046 0.0
O114 O 0.5219 0.42705 0.22099 0.0
Mg115 Mg 0.50294 0.42856 0.33834 0.0
C116 C 0.51984 0.40555 0.175 0.0
C117 C 0.4471 0.27432 0.2513 0.0
O118 O 0.42301 0.27499 0.2856 0.0
O119 O 0.51916 0.3576 0.36115 0.0
O120 O 0.53371 0.40877 0.38913 0.0
O121 O 0.43017 0.34149 0.24267 0.0
O122 O 0.46259 0.37866 0.32534 0.0
C123 C 0.53802 0.38448 0.39332 0.0
C124 C 0.43769 0.36724 0.28163 0.0
O125 O 0.47376 0.30061 0.24341 0.0
Mg126 Mg 0.10796 0.47411 0.42315 0.0
O127 O 0.10827 0.50288 0.31859 0.0
O128 O 0.07892 0.52624 0.34493 0.0
Mg129 Mg 0.05852 0.51087 0.46403 0.0
C130 C 0.09648 0.52071 0.29996 0.0
C131 C 0.16986 0.47023 0.41886 0.0
O132 O 0.16622 0.47204 0.49208 0.0
O133 O 0.1428 0.52 0.48631 0.0
O134 O 0.10985 0.53924 0.51323 0.0
O135 O 0.06403 0.43096 0.37982 0.0
O136 O 0.06355 0.4676 0.45632 0.0
C137 C 0.13743 0.54096 0.51704 0.0
C138 C 0.04793 0.44183 0.41625 0.0
O139 O 0.14921 0.47039 0.37393 0.0
Mg140 Mg 0.62083 0.12308 0.61159 0.0
O141 O 0.59165 0.11989 0.50477 0.0
O142 O 0.53921 0.08697 0.53117 0.0
Mg143 Mg 0.53499 0.06731 0.65047 0.0
C144 C 0.56177 0.10563 0.48599 0.0
C145 C 0.69241 0.17423 0.58504 0.0
O146 O 0.69577 0.15531 0.63381 0.0
O147 O 0.60499 0.15478 0.67253 0.0
O148 O 0.55356 0.11793 0.69816 0.0
O149 O 0.62544 0.08126 0.57266 0.0
O150 O 0.58518 0.07711 0.64316 0.0
C151 C 0.5776 0.14673 0.70204 0.0
C152 C 0.5981 0.06316 0.60662 0.0
O153 O 0.66417 0.16706 0.56407 0.0
Mg154 Mg 0.49479 0.62599 0.78102 0.0
O155 O 0.46589 0.58969 0.68679 0.0
O156 O 0.45737 0.54117 0.7224 0.0
Mg157 Mg 0.47552 0.5455 0.84371 0.0
C158 C 0.45535 0.55979 0.67362 0.0
C159 C 0.50427 0.69195 0.74436 0.0
O160 O 0.52327 0.6977 0.80322 0.0
O161 O 0.44998 0.61061 0.8531 0.0
O162 O 0.44058 0.56161 0.88801 0.0
O163 O 0.5397 0.63083 0.73113 0.0
O164 O 0.51149 0.59646 0.82313 0.0
C165 C 0.43339 0.58403 0.88871 0.0
C166 C 0.53516 0.60746 0.77602 0.0
O167 O 0.48771 0.66319 0.72026 0.0
C168 C 0.51189 0.10845 0.32262 0.0
C169 C 0.52906 0.10757 0.25888 0.0
C170 C 0.52324 0.10887 0.39599 0.0
C171 C 0.55256 0.10924 0.40825 0.0
H172 H 0.48872 0.10724 0.31594 0.0
H173 H 0.5086 0.10824 0.44355 0.0
S174 S 0.60799 0.11 0.26012 0.0
N175 N 0.57761 0.10881 0.21239 0.0
N176 N 0.59948 0.11059 0.35054 0.0
C177 C 0.57082 0.11008 0.34497 0.0
C178 C 0.55889 0.10892 0.2702 0.0
C179 C 0.41362 0.54657 0.48271 0.0
C180 C 0.42104 0.52481 0.44695 0.0
C181 C 0.42485 0.55793 0.5562 0.0
C182 C 0.44282 0.54694 0.59719 0.0
H183 H 0.39952 0.55525 0.45323 0.0
H184 H 0.41916 0.57515 0.58139 0.0
S185 S 0.4673 0.48879 0.52934 0.0
N186 N 0.44701 0.49237 0.45779 0.0
N187 N 0.46703 0.51262 0.59662 0.0
C188 C 0.44975 0.52463 0.56234 0.0
C189 C 0.43914 0.51385 0.487 0.0
C190 C 0.86283 0.42058 0.72505 0.0
C191 C 0.86377 0.45016 0.73754 0.0
C192 C 0.861 0.40867 0.65162 0.0
C193 C 0.86083 0.42631 0.58806 0.0
H194 H 0.86429 0.40689 0.77233 0.0
H195 H 0.86144 0.38636 0.64451 0.0
S196 S 0.86035 0.50371 0.58987 0.0
N197 N 0.86203 0.4956 0.68013 0.0
N198 N 0.85945 0.47358 0.54208 0.0
C199 C 0.86043 0.45521 0.59974 0.0
C200 C 0.86163 0.46702 0.67452 0.0
C201 C 0.40857 0.8669 0.82106 0.0
C202 C 0.4392 0.87018 0.80864 0.0
C203 C 0.3968 0.86531 0.89449 0.0
C204 C 0.41559 0.86778 0.95822 0.0
H205 H 0.39379 0.86614 0.7736 0.0
H206 H 0.37347 0.86373 0.90126 0.0
S207 S 0.49659 0.87471 0.9564 0.0
N208 N 0.48728 0.87388 0.86602 0.0
N209 N 0.46555 0.87188 0.00433 0.0
C210 C 0.44582 0.87003 0.94666 0.0
C211 C 0.45751 0.87092 0.87177 0.0
C212 C 0.51667 0.39962 0.03443 0.0
C213 C 0.53441 0.41617 0.09908 0.0
C214 C 0.52783 0.41194 0.96161 0.0
C215 C 0.55752 0.44079 0.95076 0.0
H216 H 0.49325 0.37785 0.04025 0.0
H217 H 0.5128 0.39906 0.91346 0.0
S218 S 0.61439 0.49164 0.10173 0.0
N219 N 0.58381 0.46189 0.14783 0.0
N220 N 0.60533 0.48452 0.01092 0.0
C221 C 0.57628 0.45664 0.01489 0.0
C222 C 0.56455 0.44449 0.08907 0.0
C223 C 0.1043 0.56449 0.21015 0.0
C224 C 0.10178 0.5342 0.22252 0.0
C225 C 0.10641 0.57657 0.13671 0.0
C226 C 0.10525 0.55841 0.07301 0.0
H227 H 0.10416 0.57877 0.25759 0.0
H228 H 0.10745 0.59962 0.12974 0.0
S229 S 0.10002 0.47827 0.07468 0.0
N230 N 0.09968 0.48696 0.16502 0.0
N231 N 0.10272 0.50928 0.02687 0.0
C232 C 0.10351 0.52845 0.08458 0.0
C233 C 0.10206 0.51646 0.15938 0.0
C234 C 0.47097 0.24319 0.19543 0.0
C235 C 0.44362 0.24358 0.22348 0.0
C236 C 0.46879 0.21465 0.16902 0.0
C237 C 0.43911 0.18528 0.16913 0.0
H238 H 0.49444 0.2651 0.19397 0.0
H239 H 0.49066 0.2158 0.14793 0.0
S240 S 0.3601 0.17311 0.23678 0.0
N241 N 0.38576 0.21202 0.25001 0.0
N242 N 0.38167 0.15821 0.2 0.0
C243 C 0.41147 0.18521 0.19698 0.0
C244 C 0.41372 0.21438 0.22426 0.0
C245 C 0.22279 0.45727 0.28076 0.0
C246 C 0.25054 0.46496 0.32366 0.0
C247 C 0.19685 0.45896 0.31232 0.0
C248 C 0.19751 0.46812 0.38826 0.0
H249 H 0.22114 0.45022 0.22193 0.0
H250 H 0.17609 0.45297 0.27669 0.0
S251 S 0.26425 0.48995 0.52563 0.0
N252 N 0.27701 0.4816 0.44663 0.0
N253 N 0.22806 0.48463 0.50607 0.0
C254 C 0.22492 0.47548 0.43227 0.0
C255 C 0.25151 0.47398 0.39992 0.0
C256 C 0.75235 0.21137 0.57888 0.0
C257 C 0.72107 0.20382 0.55601 0.0
C258 C 0.77986 0.23935 0.55289 0.0
C259 C 0.77717 0.26095 0.50333 0.0
H260 H 0.75572 0.19559 0.61725 0.0
H261 H 0.80341 0.2441 0.57224 0.0
S262 S 0.70082 0.25205 0.4248 0.0
N263 N 0.68904 0.22009 0.47966 0.0
N264 N 0.74069 0.27263 0.4311 0.0
C265 C 0.74604 0.25368 0.47972 0.0
C266 C 0.71802 0.22513 0.50592 0.0
C267 C 0.51299 0.77416 0.71136 0.0
C268 C 0.49851 0.77089 0.64005 0.0
C269 C 0.51493 0.74856 0.74417 0.0
C270 C 0.50216 0.71856 0.70735 0.0
H271 H 0.52307 0.79675 0.74225 0.0
H272 H 0.52627 0.75231 0.79925 0.0
S273 S 0.4618 0.69743 0.51936 0.0
N274 N 0.47131 0.73536 0.53321 0.0
N275 N 0.47475 0.68703 0.59513 0.0
C276 C 0.48764 0.7149 0.63584 0.0
C277 C 0.48591 0.74114 0.60208 0.0
C278 C 0.73038 0.50708 0.83692 0.0
C279 C 0.71646 0.52123 0.88183 0.0
C280 C 0.75994 0.5097 0.85625 0.0
C281 C 0.77678 0.52636 0.92168 0.0
H282 H 0.71847 0.49389 0.7859 0.0
H283 H 0.76939 0.49814 0.81982 0.0
S284 S 0.75122 0.56828 0.05824 0.0
N285 N 0.72199 0.55295 -0.00555 0.0
N286 N 0.77775 0.55774 0.03115 0.0
C287 C 0.76332 0.54078 0.96722 0.0
C288 C 0.73313 0.53825 0.94722 0.0
C289 C 0.21956 0.72873 -0.00255 0.0
C290 C 0.19246 0.73006 0.97083 0.0
C291 C 0.24583 0.75568 0.03058 0.0
C292 C 0.24606 0.78509 0.03878 0.0
H293 H 0.22064 0.70667 0.99271 0.0
H294 H 0.26605 0.75328 0.05018 0.0
S295 S 0.1811 0.80149 0.97799 0.0
N296 N 0.16748 0.76337 0.95458 0.0
N297 N 0.2169 0.81408 0.01703 0.0
C298 C 0.21914 0.78686 0.01238 0.0
C299 C 0.19236 0.75936 0.97835 0.0
C300 C 0.59326 0.17053 0.82752 0.0
C301 C 0.57547 0.16706 0.76123 0.0
C302 C 0.57897 0.16723 0.89865 0.0
C303 C 0.54731 0.16191 0.9046 0.0
H304 H 0.61554 0.16972 0.82466 0.0
H305 H 0.59083 0.16428 0.94789 0.0
S306 S 0.49673 0.1642 0.7485 0.0
N307 N 0.52904 0.16731 0.70617 0.0
N308 N 0.50284 0.163 0.84024 0.0
C309 C 0.5327 0.16595 0.8397 0.0
C310 C 0.54682 0.1683 0.76732 0.0
C311 C 0.42598 0.59966 0.01538 0.0
C312 C 0.4114 0.58189 0.94927 0.0
C313 C 0.41351 0.58648 0.08679 0.0
C314 C 0.38562 0.55583 0.09329 0.0
H315 H 0.44981 0.62109 0.01263 0.0
H316 H 0.42813 0.59814 0.13638 0.0
S317 S 0.33324 0.50525 0.93654 0.0
N318 N 0.36414 0.53614 0.89406 0.0
N319 N 0.33953 0.51221 0.02833 0.0
C320 C 0.36753 0.54123 0.02763 0.0
C321 C 0.38079 0.55409 0.95509 0.0
C322 C 0.80439 0.39419 0.09836 0.0
C323 C 0.80936 0.42567 0.09152 0.0
C324 C 0.80077 0.38005 0.16983 0.0
C325 C 0.80349 0.39782 0.23553 0.0
H326 H 0.80803 0.3825 0.04986 0.0
H327 H 0.80206 0.35807 0.17368 0.0
S328 S 0.80422 0.47547 0.24525 0.0
N329 N 0.8064 0.46946 0.15389 0.0
N330 N 0.80155 0.44355 0.28867 0.0
C331 C 0.80151 0.42599 0.2282 0.0
C332 C 0.80417 0.43995 0.15543 0.0
C333 C 0.41998 0.80749 0.39279 0.0
C334 C 0.40554 0.81157 0.45802 0.0
C335 C 0.40755 0.80766 0.321 0.0
C336 C 0.37987 0.81071 0.31352 0.0
H337 H 0.44385 0.81007 0.39604 0.0
H338 H 0.42224 0.81032 0.27176 0.0
S339 S 0.32682 0.80887 0.46841 0.0
N340 N 0.35775 0.80937 0.51187 0.0
N341 N 0.33339 0.80794 0.37686 0.0
C342 C 0.36147 0.80717 0.37854 0.0
C343 C 0.37461 0.80797 0.45144 0.0
C344 C 0.55766 0.38217 0.59082 0.0
C345 C 0.58556 0.41288 0.59632 0.0
C346 C 0.54521 0.36851 0.51985 0.0
C347 C 0.55991 0.38588 0.45332 0.0
H348 H 0.54293 0.37095 0.64056 0.0
H349 H 0.52124 0.34726 0.5176 0.0
S350 S 0.63879 0.46165 0.43856 0.0
N351 N 0.6322 0.45556 0.53052 0.0
N352 N 0.60775 0.43062 0.39695 0.0
C353 C 0.59083 0.41332 0.45851 0.0
C354 C 0.60399 0.42673 0.53065 0.0
C355 C 0.16384 0.59382 0.58155 0.0
C356 C 0.15975 0.56266 0.57524 0.0
C357 C 0.1665 0.60775 0.65284 0.0
C358 C 0.16394 0.5902 0.71896 0.0
H359 H 0.16017 0.60529 0.53253 0.0
H360 H 0.16462 0.62942 0.65602 0.0
S361 S 0.16475 0.51333 0.7308 0.0
N362 N 0.16319 0.51938 0.63915 0.0
N363 N 0.16633 0.54485 0.77346 0.0
C364 C 0.16645 0.5623 0.71251 0.0
C365 C 0.16474 0.54858 0.63995 0.0
C366 C 0.40206 -0.00243 0.03904 0.0
C367 C 0.41548 0.01861 0.10089 0.0
C368 C 0.38578 0.96398 0.04941 0.0
C369 C 0.38345 0.95056 0.12158 0.0
H370 H 0.40353 0.00715 0.9826 0.0
H371 H 0.37523 0.94844 0.0006 0.0
S372 S 0.41635 -0.00425 0.30081 0.0
N373 N 0.42615 0.02415 0.23598 0.0
N374 N 0.39674 0.96089 0.25543 0.0
C375 C 0.39763 0.97146 0.18351 0.0
C376 C 0.41336 0.00561 0.17319 0.0
C377 C 0.40918 0.39285 0.34154 0.0
C378 C 0.41872 0.38348 0.27548 0.0
C379 C 0.39059 0.40801 0.33731 0.0
C380 C 0.38199 0.41505 0.26681 0.0
H381 H 0.41586 0.38812 0.39675 0.0
H382 H 0.38375 0.4151 0.38922 0.0
S383 S 0.40205 0.39636 0.07769 0.0
N384 N 0.41836 0.38217 0.1381 0.0
N385 N 0.38461 0.41205 0.1298 0.0
C386 C 0.39172 0.40612 0.20046 0.0
C387 C 0.40981 0.3899 0.20486 0.0
C388 C -0.00675 0.40363 0.46491 0.0
C389 C 0.01281 0.42608 0.40979 0.0
C390 C 0.95947 0.38865 0.46081 0.0
C391 C 0.94435 0.39603 0.40188 0.0
H392 H 0.00415 0.39762 0.51138 0.0
H393 H 0.94516 0.37137 0.50439 0.0
S394 S -0.01409 0.45347 0.24338 0.0
N395 N 0.01561 0.45514 0.29491 0.0
N396 N 0.95201 0.42719 0.28638 0.0
C397 C 0.96399 0.41866 0.3464 0.0
C398 C -0.00166 0.43367 0.35057 0.0
C399 C 0.53147 0.97581 0.59973 0.0
C400 C 0.54839 0.95888 0.60641 0.0
C401 C 0.54785 0.00959 0.59848 0.0
C402 C 0.58176 0.02769 0.60302 0.0
H403 H 0.50536 0.96304 0.59645 0.0
H404 H 0.53376 0.0215 0.59307 0.0
S405 S 0.63762 -0.0048 0.61885 0.0
N406 N 0.60111 0.96276 0.61623 0.0
N407 N 0.63197 0.02655 0.61315 0.0
C408 C 0.59913 0.01121 0.60841 0.0
C409 C 0.58241 0.97671 0.61069 0.0
C410 C 0.58417 0.56863 0.83014 0.0
C411 C 0.58596 0.55474 0.76167 0.0
C412 C 0.56788 0.58612 0.83401 0.0
C413 C 0.55404 0.59118 0.76899 0.0
H414 H 0.59471 0.56528 0.88131 0.0
H415 H 0.56608 0.59575 0.88815 0.0
S416 S 0.55302 0.56075 0.57591 0.0
N417 N 0.57274 0.54728 0.62743 0.0
N418 N 0.54323 0.58142 0.63446 0.0
C419 C 0.55627 0.57809 0.69994 0.0
C420 C 0.57198 0.55948 0.69636 0.0
C421 C 0.00694 0.59338 0.84325 0.0
C422 C 0.02642 0.59256 0.90169 0.0
C423 C 0.97322 0.57749 0.85107 0.0
C424 C 0.95805 0.55966 0.91682 0.0
H425 H 0.01789 0.60677 0.7917 0.0
H426 H 0.95895 0.57901 0.80518 0.0
S427 S -0.00094 0.54935 0.08451 0.0
N428 N 0.02889 0.57256 0.02628 0.0
N429 N 0.9653 0.54172 0.04083 0.0
C430 C 0.97746 0.55816 0.97498 0.0
C431 C 0.0118 0.57493 0.96747 0.0
loop_
_geom_bond_atom_site_label_1
_geom_bond_atom_site_label_2
_geom_bond_distance
_geom_bond_site_symmetry_2
_ccdc_geom_bond_type
Mg0 O1 2.028 . S
Mg0 O7 1.986 . S
Mg0 O9 2.114 . S
Mg0 O10 2.251 . S
Mg0 O13 2.010 . S
O1 Mg0 2.028 . S
O1 C4 1.250 . S
O2 Mg3 2.028 . S
O2 C4 1.248 . S
Mg3 O2 2.028 . S
Mg3 O8 2.032 . S
Mg3 O10 2.079 . S
C4 O1 1.250 . S
C4 O2 1.248 . S
C5 O6 1.264 . S
C5 O13 1.249 . S
O6 C5 1.264 . S
O7 Mg0 1.986 . S
O7 C11 1.246 1_554 S
O8 Mg3 2.032 . S
O8 C11 1.259 1_554 S
O9 Mg0 2.114 . S
O9 C12 1.252 . S
O10 Mg0 2.251 . S
O10 Mg3 2.079 . S
O10 C12 1.273 . S
C11 O7 1.246 1_556 S
C11 O8 1.259 1_556 S
C12 O9 1.252 . S
C12 O10 1.273 . S
O13 Mg0 2.010 . S
O13 C5 1.249 . S
Mg14 O15 2.028 . S
Mg14 O21 1.986 . S
Mg14 O23 2.114 . S
Mg14 O24 2.251 . S
Mg14 O27 2.010 . S
O15 Mg14 2.028 . S
O15 C18 1.250 . S
O16 Mg17 2.028 . S
O16 C18 1.248 . S
Mg17 O16 2.028 . S
Mg17 O22 2.032 . S
Mg17 O24 2.079 . S
C18 O15 1.250 . S
C18 O16 1.248 . S
C19 O20 1.264 . S
C19 O27 1.249 . S
O20 C19 1.264 . S
O21 Mg14 1.986 . S
O21 C25 1.246 . S
O22 Mg17 2.032 . S
O22 C25 1.259 . S
O23 Mg14 2.114 . S
O23 C26 1.252 . S
O24 Mg14 2.251 . S
O24 Mg17 2.079 . S
O24 C26 1.273 . S
C25 O21 1.246 . S
C25 O22 1.259 . S
C26 O23 1.252 . S
C26 O24 1.273 . S
O27 Mg14 2.010 . S
O27 C19 1.249 . S
Mg28 O29 2.028 . S
Mg28 O35 1.986 . S
Mg28 O37 2.114 . S
Mg28 O38 2.251 . S
Mg28 O41 2.010 . S
O29 Mg28 2.028 . S
O29 C32 1.250 . S
O30 Mg31 2.028 . S
O30 C32 1.248 . S
Mg31 O30 2.028 . S
Mg31 O36 2.032 . S
Mg31 O38 2.079 . S
C32 O29 1.250 . S
C32 O30 1.248 . S
C33 O34 1.264 . S
C33 O41 1.249 . S
O34 C33 1.264 . S
O35 Mg28 1.986 . S
O35 C39 1.246 . S
O36 Mg31 2.032 . S
O36 C39 1.259 . S
O37 Mg28 2.114 . S
O37 C40 1.252 . S
O38 Mg28 2.251 . S
O38 Mg31 2.079 . S
O38 C40 1.273 . S
C39 O35 1.246 . S
C39 O36 1.259 . S
C40 O37 1.252 . S
C40 O38 1.273 . S
O41 Mg28 2.010 . S
O41 C33 1.249 . S
Mg42 O43 2.028 . S
Mg42 O49 1.986 . S
Mg42 O51 2.114 . S
Mg42 O52 2.251 . S
Mg42 O55 2.010 . S
O43 Mg42 2.028 . S
O43 C46 1.250 . S
O44 Mg45 2.028 . S
O44 C46 1.248 . S
Mg45 O44 2.028 . S
Mg45 O50 2.032 . S
Mg45 O52 2.079 . S
C46 O43 1.250 . S
C46 O44 1.248 . S
C47 O48 1.264 . S
C47 O55 1.249 . S
O48 C47 1.264 . S
O49 Mg42 1.986 . S
O49 C53 1.246 . S
O50 Mg45 2.032 . S
O50 C53 1.259 . S
O51 Mg42 2.114 . S
O51 C54 1.252 . S
O52 Mg42 2.251 . S
O52 Mg45 2.079 . S
O52 C54 1.273 . S
C53 O49 1.246 . S
C53 O50 1.259 . S
C54 O51 1.252 . S
C54 O52 1.273 . S
O55 Mg42 2.010 . S
O55 C47 1.249 . S
Mg56 O57 2.028 . S
Mg56 O63 1.986 . S
Mg56 O65 2.114 . S
Mg56 O66 2.251 . S
Mg56 O69 2.010 . S
O57 Mg56 2.028 . S
O57 C60 1.250 . S
O58 Mg59 2.028 . S
O58 C60 1.248 . S
Mg59 O58 2.028 . S
Mg59 O64 2.032 . S
Mg59 O66 2.079 . S
C60 O57 1.250 . S
C60 O58 1.248 . S
C61 O62 1.264 . S
C61 O69 1.249 . S
O62 C61 1.264 . S
O63 Mg56 1.986 . S
O63 C67 1.246 . S
O64 Mg59 2.032 . S
O64 C67 1.259 . S
O65 Mg56 2.114 . S
O65 C68 1.252 . S
O66 Mg56 2.251 . S
O66 Mg59 2.079 . S
O66 C68 1.273 . S
C67 O63 1.246 . S
C67 O64 1.259 . S
C68 O65 1.252 . S
C68 O66 1.273 . S
O69 Mg56 2.010 . S
O69 C61 1.249 . S
Mg70 O71 2.028 1_556 S
Mg70 O77 1.986 . S
Mg70 O79 2.114 . S
Mg70 O80 2.251 . S
Mg70 O83 2.010 . S
O71 Mg70 2.028 1_554 S
O71 C74 1.250 . S
O72 Mg73 2.028 1_554 S
O72 C74 1.248 . S
Mg73 O72 2.028 1_556 S
Mg73 O78 2.032 . S
Mg73 O80 2.079 . S
C74 O71 1.250 . S
C74 O72 1.248 . S
C75 O76 1.264 . S
C75 O83 1.249 . S
O76 C75 1.264 . S
O77 Mg70 1.986 . S
O77 C81 1.246 . S
O78 Mg73 2.032 . S
O78 C81 1.259 . S
O79 Mg70 2.114 . S
O79 C82 1.252 . S
O80 Mg70 2.251 . S
O80 Mg73 2.079 . S
O80 C82 1.273 . S
C81 O77 1.246 . S
C81 O78 1.259 . S
C82 O79 1.252 . S
C82 O80 1.273 . S
O83 Mg70 2.010 . S
O83 C75 1.249 . S
Mg84 O85 2.028 . S
Mg84 O91 1.986 1_556 S
Mg84 O93 2.114 . S
Mg84 O94 2.251 . S
Mg84 O97 2.010 . S
O85 Mg84 2.028 . S
O85 C88 1.250 . S
O86 Mg87 2.028 . S
O86 C88 1.248 . S
Mg87 O86 2.028 . S
Mg87 O92 2.032 1_556 S
Mg87 O94 2.079 . S
C88 O85 1.250 . S
C88 O86 1.248 . S
C89 O90 1.264 . S
C89 O97 1.249 . S
O90 C89 1.264 . S
O91 Mg84 1.986 1_554 S
O91 C95 1.246 . S
O92 Mg87 2.032 1_554 S
O92 C95 1.259 . S
O93 Mg84 2.114 . S
O93 C96 1.252 . S
O94 Mg84 2.251 . S
O94 Mg87 2.079 . S
O94 C96 1.273 . S
C95 O91 1.246 . S
C95 O92 1.259 . S
C96 O93 1.252 . S
C96 O94 1.273 . S
O97 Mg84 2.010 . S
O97 C89 1.249 . S
Mg98 O99 2.028 . S
Mg98 O105 1.986 . S
Mg98 O107 2.114 . S
Mg98 O108 2.251 . S
Mg98 O111 2.010 . S
O99 Mg98 2.028 . S
O99 C102 1.250 1_554 S
O100 Mg101 2.028 . S
O100 C102 1.248 1_554 S
Mg101 O100 2.028 . S
Mg101 O106 2.032 . S
Mg101 O108 2.079 . S
C102 O99 1.250 1_556 S
C102 O100 1.248 1_556 S
C103 O104 1.264 . S
C103 O111 1.249 . S
O104 C103 1.264 . S
O105 Mg98 1.986 . S
O105 C109 1.246 . S
O106 Mg101 2.032 . S
O106 C109 1.259 . S
O107 Mg98 2.114 . S
O107 C110 1.252 . S
O108 Mg98 2.251 . S
O108 Mg101 2.079 . S
O108 C110 1.273 . S
C109 O105 1.246 . S
C109 O106 1.259 . S
C110 O107 1.252 . S
C110 O108 1.273 . S
O111 Mg98 2.010 . S
O111 C103 1.249 . S
Mg112 O113 2.028 . S
Mg112 O119 1.986 . S
Mg112 O121 2.114 . S
Mg112 O122 2.251 . S
Mg112 O125 2.010 . S
O113 Mg112 2.028 . S
O113 C116 1.250 . S
O114 Mg115 2.028 . S
O114 C116 1.248 . S
Mg115 O114 2.028 . S
Mg115 O120 2.032 . S
Mg115 O122 2.079 . S
C116 O113 1.250 . S
C116 O114 1.248 . S
C117 O118 1.264 . S
C117 O125 1.249 . S
O118 C117 1.264 . S
O119 Mg112 1.986 . S
O119 C123 1.246 . S
O120 Mg115 2.032 . S
O120 C123 1.259 . S
O121 Mg112 2.114 . S
O121 C124 1.252 . S
O122 Mg112 2.251 . S
O122 Mg115 2.079 . S
O122 C124 1.273 . S
C123 O119 1.246 . S
C123 O120 1.259 . S
C124 O121 1.252 . S
C124 O122 1.273 . S
O125 Mg112 2.010 . S
O125 C117 1.249 . S
Mg126 O127 2.028 . S
Mg126 O133 1.986 . S
Mg126 O135 2.114 . S
Mg126 O136 2.251 . S
Mg126 O139 2.010 . S
O127 Mg126 2.028 . S
O127 C130 1.250 . S
O128 Mg129 2.028 . S
O128 C130 1.248 . S
Mg129 O128 2.028 . S
Mg129 O134 2.032 . S
Mg129 O136 2.079 . S
C130 O127 1.250 . S
C130 O128 1.248 . S
C131 O132 1.264 . S
C131 O139 1.249 . S
O132 C131 1.264 . S
O133 Mg126 1.986 . S
O133 C137 1.246 . S
O134 Mg129 2.032 . S
O134 C137 1.259 . S
O135 Mg126 2.114 . S
O135 C138 1.252 . S
O136 Mg126 2.251 . S
O136 Mg129 2.079 . S
O136 C138 1.273 . S
C137 O133 1.246 . S
C137 O134 1.259 . S
C138 O135 1.252 . S
C138 O136 1.273 . S
O139 Mg126 2.010 . S
O139 C131 1.249 . S
Mg140 O141 2.028 . S
Mg140 O147 1.986 . S
Mg140 O149 2.114 . S
Mg140 O150 2.251 . S
Mg140 O153 2.010 . S
O141 Mg140 2.028 . S
O141 C144 1.250 . S
O142 Mg143 2.028 . S
O142 C144 1.248 . S
Mg143 O142 2.028 . S
Mg143 O148 2.032 . S
Mg143 O150 2.079 . S
C144 O141 1.250 . S
C144 O142 1.248 . S
C145 O146 1.264 . S
C145 O153 1.249 . S
O146 C145 1.264 . S
O147 Mg140 1.986 . S
O147 C151 1.246 . S
O148 Mg143 2.032 . S
O148 C151 1.259 . S
O149 Mg140 2.114 . S
O149 C152 1.252 . S
O150 Mg140 2.251 . S
O150 Mg143 2.079 . S
O150 C152 1.273 . S
C151 O147 1.246 . S
C151 O148 1.259 . S
C152 O149 1.252 . S
C152 O150 1.273 . S
O153 Mg140 2.010 . S
O153 C145 1.249 . S
Mg154 O155 2.028 . S
Mg154 O161 1.986 . S
Mg154 O163 2.114 . S
Mg154 O164 2.251 . S
Mg154 O167 2.010 . S
O155 Mg154 2.028 . S
O155 C158 1.250 . S
O156 Mg157 2.028 . S
O156 C158 1.248 . S
Mg157 O156 2.028 . S
Mg157 O162 2.032 . S
Mg157 O164 2.079 . S
C158 O155 1.250 . S
C158 O156 1.248 . S
C159 O160 1.264 . S
C159 O167 1.249 . S
O160 C159 1.264 . S
O161 Mg154 1.986 . S
O161 C165 1.246 . S
O162 Mg157 2.032 . S
O162 C165 1.259 . S
O163 Mg154 2.114 . S
O163 C166 1.252 . S
O164 Mg154 2.251 . S
O164 Mg157 2.079 . S
O164 C166 1.273 . S
C165 O161 1.246 . S
C165 O162 1.259 . S
C166 O163 1.252 . S
C166 O164 1.273 . S
O167 Mg154 2.010 . S
O167 C159 1.249 . S
C168 C169 1.369 . S
C168 C170 1.419 . S
C168 H172 0.930 . S
C169 C168 1.369 . S
C169 C178 1.429 . S
C170 C168 1.419 . S
C170 C171 1.363 . S
C170 H173 0.929 . S
C171 C170 1.363 . S
C171 C177 1.428 . S
H172 C168 0.930 . S
H173 C170 0.929 . S
S174 N175 1.613 . S
S174 N176 1.610 . S
N175 S174 1.613 . S
N175 C178 1.350 . S
N176 S174 1.610 . S
N176 C177 1.351 . S
C177 C171 1.428 . S
C177 N176 1.351 . S
C177 C178 1.434 . S
C178 C169 1.429 . S
C178 N175 1.350 . S
C178 C177 1.434 . S
C179 C180 1.369 . S
C179 C181 1.419 . S
C179 H183 0.930 . S
C180 C179 1.369 . S
C180 C189 1.429 . S
C181 C179 1.419 . S
C181 C182 1.363 . S
C181 H184 0.929 . S
C182 C181 1.363 . S
C182 C188 1.428 . S
H183 C179 0.930 . S
H184 C181 0.929 . S
S185 N186 1.613 . S
S185 N187 1.610 . S
N186 S185 1.613 . S
N186 C189 1.350 . S
N187 S185 1.610 . S
N187 C188 1.351 . S
C188 C182 1.428 . S
C188 N187 1.351 . S
C188 C189 1.434 . S
C189 C180 1.429 . S
C189 N186 1.350 . S
C189 C188 1.434 . S
C190 C191 1.369 . S
C190 C192 1.419 . S
C190 H194 0.930 . S
C191 C190 1.369 . S
C191 C200 1.429 . S
C192 C190 1.419 . S
C192 C193 1.363 . S
C192 H195 0.929 . S
C193 C192 1.363 . S
C193 C199 1.428 . S
H194 C190 0.930 . S
H195 C192 0.929 . S
S196 N197 1.613 . S
S196 N198 1.610 . S
N197 S196 1.613 . S
N197 C200 1.350 . S
N198 S196 1.610 . S
N198 C199 1.351 . S
C199 C193 1.428 . S
C199 N198 1.351 . S
C199 C200 1.434 . S
C200 C191 1.429 . S
C200 N197 1.350 . S
C200 C199 1.434 . S
C201 C202 1.369 . S
C201 C203 1.419 . S
C201 H205 0.930 . S
C202 C201 1.369 . S
C202 C211 1.429 . S
C203 C201 1.419 . S
C203 C204 1.363 . S
C203 H206 0.929 . S
C204 C203 1.363 . S
C204 C210 1.428 . S
H205 C201 0.930 . S
H206 C203 0.929 . S
S207 N208 1.613 . S
S207 N209 1.610 . S
N208 S207 1.613 . S
N208 C211 1.350 . S
N209 S207 1.610 . S
N209 C210 1.351 . S
C210 C204 1.428 . S
C210 N209 1.351 . S
C210 C211 1.434 . S
C211 C202 1.429 . S
C211 N208 1.350 . S
C211 C210 1.434 . S
C212 C213 1.369 . S
C212 C214 1.419 1_554 S
C212 H216 0.930 . S
C213 C212 1.369 . S
C213 C222 1.429 . S
C214 C212 1.419 1_556 S
C214 C215 1.363 . S
C214 H217 0.929 . S
C215 C214 1.363 . S
C215 C221 1.428 1_556 S
H216 C212 0.930 . S
H217 C214 0.929 . S
S218 N219 1.613 . S
S218 N220 1.610 . S
N219 S218 1.613 . S
N219 C222 1.350 . S
N220 S218 1.610 . S
N220 C221 1.351 . S
C221 C215 1.428 1_554 S
C221 N220 1.351 . S
C221 C222 1.434 . S
C222 C213 1.429 . S
C222 N219 1.350 . S
C222 C221 1.434 . S
C223 C224 1.369 . S
C223 C225 1.419 . S
C223 H227 0.930 . S
C224 C223 1.369 . S
C224 C233 1.429 . S
C225 C223 1.419 . S
C225 C226 1.363 . S
C225 H228 0.929 . S
C226 C225 1.363 . S
C226 C232 1.428 . S
H227 C223 0.930 . S
H228 C225 0.929 . S
S229 N230 1.613 . S
S229 N231 1.610 . S
N230 S229 1.613 . S
N230 C233 1.350 . S
N231 S229 1.610 . S
N231 C232 1.351 . S
C232 C226 1.428 . S
C232 N231 1.351 . S
C232 C233 1.434 . S
C233 C224 1.429 . S
C233 N230 1.350 . S
C233 C232 1.434 . S
C234 C235 1.369 . S
C234 C236 1.419 . S
C234 H238 0.930 . S
C235 C234 1.369 . S
C235 C244 1.429 . S
C236 C234 1.419 . S
C236 C237 1.363 . S
C236 H239 0.929 . S
C237 C236 1.363 . S
C237 C243 1.428 . S
H238 C234 0.930 . S
H239 C236 0.929 . S
S240 N241 1.613 . S
S240 N242 1.610 . S
N241 S240 1.613 . S
N241 C244 1.350 . S
N242 S240 1.610 . S
N242 C243 1.351 . S
C243 C237 1.428 . S
C243 N242 1.351 . S
C243 C244 1.434 . S
C244 C235 1.429 . S
C244 N241 1.350 . S
C244 C243 1.434 . S
C245 C246 1.369 . S
C245 C247 1.419 . S
C245 H249 0.930 . S
C246 C245 1.369 . S
C246 C255 1.429 . S
C247 C245 1.419 . S
C247 C248 1.363 . S
C247 H250 0.929 . S
C248 C247 1.363 . S
C248 C254 1.428 . S
H249 C245 0.930 . S
H250 C247 0.929 . S
S251 N252 1.613 . S
S251 N253 1.610 . S
N252 S251 1.613 . S
N252 C255 1.350 . S
N253 S251 1.610 . S
N253 C254 1.351 . S
C254 C248 1.428 . S
C254 N253 1.351 . S
C254 C255 1.434 . S
C255 C246 1.429 . S
C255 N252 1.350 . S
C255 C254 1.434 . S
C256 C257 1.369 . S
C256 C258 1.419 . S
C256 H260 0.930 . S
C257 C256 1.369 . S
C257 C266 1.429 . S
C258 C256 1.419 . S
C258 C259 1.363 . S
C258 H261 0.929 . S
C259 C258 1.363 . S
C259 C265 1.428 . S
H260 C256 0.930 . S
H261 C258 0.929 . S
S262 N263 1.613 . S
S262 N264 1.610 . S
N263 S262 1.613 . S
N263 C266 1.350 . S
N264 S262 1.610 . S
N264 C265 1.351 . S
C265 C259 1.428 . S
C265 N264 1.351 . S
C265 C266 1.434 . S
C266 C257 1.429 . S
C266 N263 1.350 . S
C266 C265 1.434 . S
C267 C268 1.369 . S
C267 C269 1.419 . S
C267 H271 0.930 . S
C268 C267 1.369 . S
C268 C277 1.429 . S
C269 C267 1.419 . S
C269 C270 1.363 . S
C269 H272 0.929 . S
C270 C269 1.363 . S
C270 C276 1.428 . S
H271 C267 0.930 . S
H272 C269 0.929 . S
S273 N274 1.613 . S
S273 N275 1.610 . S
N274 S273 1.613 . S
N274 C277 1.350 . S
N275 S273 1.610 . S
N275 C276 1.351 . S
C276 C270 1.428 . S
C276 N275 1.351 . S
C276 C277 1.434 . S
C277 C268 1.429 . S
C277 N274 1.350 . S
C277 C276 1.434 . S
C278 C279 1.369 . S
C278 C280 1.419 . S
C278 H282 0.930 . S
C279 C278 1.369 . S
C279 C288 1.429 . S
C280 C278 1.419 . S
C280 C281 1.363 . S
C280 H283 0.929 . S
C281 C280 1.363 . S
C281 C287 1.428 . S
H282 C278 0.930 . S
H283 C280 0.929 . S
S284 N285 1.621 . S
S284 N286 1.613 . S
N285 S284 1.621 . S
N285 C288 1.350 . S
N286 S284 1.613 . S
N286 C287 1.351 . S
C287 C281 1.428 . S
C287 N286 1.351 . S
C287 C288 1.434 . S
C288 C279 1.429 . S
C288 N285 1.350 . S
C288 C287 1.434 . S
C289 C290 1.369 1_554 S
C289 C291 1.419 . S
C289 H293 0.930 . S
C290 C289 1.369 1_556 S
C290 C299 1.429 . S
C291 C289 1.419 . S
C291 C292 1.363 . S
C291 H294 0.929 . S
C292 C291 1.363 . S
C292 C298 1.428 1_554 S
H293 C289 0.930 . S
H294 C291 0.929 . S
S295 N296 1.613 . S
S295 N297 1.610 . S
N296 S295 1.613 . S
N296 C299 1.350 . S
N297 S295 1.610 . S
N297 C298 1.351 . S
C298 C292 1.428 1_556 S
C298 N297 1.351 . S
C298 C299 1.434 . S
C299 C290 1.429 . S
C299 N296 1.350 . S
C299 C298 1.434 . S
C300 C301 1.369 . S
C300 C302 1.419 . S
C300 H304 0.930 . S
C301 C300 1.369 . S
C301 C310 1.429 . S
C302 C300 1.419 . S
C302 C303 1.363 . S
C302 H305 0.929 . S
C303 C302 1.363 . S
C303 C309 1.428 . S
H304 C300 0.930 . S
H305 C302 0.929 . S
S306 N307 1.613 . S
S306 N308 1.610 . S
N307 S306 1.613 . S
N307 C310 1.350 . S
N308 S306 1.610 . S
N308 C309 1.351 . S
C309 C303 1.428 . S
C309 N308 1.351 . S
C309 C310 1.434 . S
C310 C301 1.429 . S
C310 N307 1.350 . S
C310 C309 1.434 . S
C311 C312 1.369 1_554 S
C311 C313 1.419 . S
C311 H315 0.930 . S
C312 C311 1.369 1_556 S
C312 C321 1.429 . S
C313 C311 1.419 . S
C313 C314 1.363 . S
C313 H316 0.929 . S
C314 C313 1.363 . S
C314 C320 1.428 . S
H315 C311 0.930 . S
H316 C313 0.929 . S
S317 N318 1.613 . S
S317 N319 1.610 1_556 S
N318 S317 1.613 . S
N318 C321 1.350 . S
N319 S317 1.610 1_554 S
N319 C320 1.351 . S
C320 C314 1.428 . S
C320 N319 1.351 . S
C320 C321 1.434 1_554 S
C321 C312 1.429 . S
C321 N318 1.350 . S
C321 C320 1.434 1_556 S
C322 C323 1.369 . S
C322 C324 1.419 . S
C322 H326 0.930 . S
C323 C322 1.369 . S
C323 C332 1.429 . S
C324 C322 1.419 . S
C324 C325 1.363 . S
C324 H327 0.929 . S
C325 C324 1.363 . S
C325 C331 1.428 . S
H326 C322 0.930 . S
H327 C324 0.929 . S
S328 N329 1.613 . S
S328 N330 1.610 . S
N329 S328 1.613 . S
N329 C332 1.350 . S
N330 S328 1.610 . S
N330 C331 1.351 . S
C331 C325 1.428 . S
C331 N330 1.351 . S
C331 C332 1.434 . S
C332 C323 1.429 . S
C332 N329 1.350 . S
C332 C331 1.434 . S
C333 C334 1.369 . S
C333 C335 1.419 . S
C333 H337 0.930 . S
C334 C333 1.369 . S
C334 C343 1.429 . S
C335 C333 1.419 . S
C335 C336 1.363 . S
C335 H338 0.929 . S
C336 C335 1.363 . S
C336 C342 1.428 . S
H337 C333 0.930 . S
H338 C335 0.929 . S
S339 N340 1.613 . S
S339 N341 1.610 . S
N340 S339 1.613 . S
N340 C343 1.350 . S
N341 S339 1.610 . S
N341 C342 1.351 . S
C342 C336 1.428 . S
C342 N341 1.351 . S
C342 C343 1.434 . S
C343 C334 1.429 . S
C343 N340 1.350 . S
C343 C342 1.434 . S
C344 C345 1.369 . S
C344 C346 1.419 . S
C344 H348 0.930 . S
C345 C344 1.369 . S
C345 C354 1.429 . S
C346 C344 1.419 . S
C346 C347 1.363 . S
C346 H349 0.929 . S
C347 C346 1.363 . S
C347 C353 1.428 . S
H348 C344 0.930 . S
H349 C346 0.929 . S
S350 N351 1.613 . S
S350 N352 1.610 . S
N351 S350 1.613 . S
N351 C354 1.350 . S
N352 S350 1.610 . S
N352 C353 1.351 . S
C353 C347 1.428 . S
C353 N352 1.351 . S
C353 C354 1.434 . S
C354 C345 1.429 . S
C354 N351 1.350 . S
C354 C353 1.434 . S
C355 C356 1.369 . S
C355 C357 1.419 . S
C355 H359 0.930 . S
C356 C355 1.369 . S
C356 C365 1.429 . S
C357 C355 1.419 . S
C357 C358 1.363 . S
C357 H360 0.929 . S
C358 C357 1.363 . S
C358 C364 1.428 . S
H359 C355 0.930 . S
H360 C357 0.929 . S
S361 N362 1.613 . S
S361 N363 1.610 . S
N362 S361 1.613 . S
N362 C365 1.350 . S
N363 S361 1.610 . S
N363 C364 1.351 . S
C364 C358 1.428 . S
C364 N363 1.351 . S
C364 C365 1.434 . S
C365 C356 1.429 . S
C365 N362 1.350 . S
C365 C364 1.434 . S
C366 C367 1.369 . S
C366 C368 1.419 1_545 S
C366 H370 0.930 . S
C367 C366 1.369 . S
C367 C376 1.429 . S
C368 C366 1.419 1_565 S
C368 C369 1.363 . S
C368 H371 0.929 1_554 S
C369 C368 1.363 . S
C369 C375 1.428 . S
H370 C366 0.930 . S
H371 C368 0.929 1_556 S
S372 N373 1.613 1_565 S
S372 N374 1.610 . S
N373 S372 1.613 1_545 S
N373 C376 1.350 . S
N374 S372 1.610 . S
N374 C375 1.351 . S
C375 C369 1.428 . S
C375 N374 1.351 . S
C375 C376 1.434 1_565 S
C376 C367 1.429 . S
C376 N373 1.350 . S
C376 C375 1.434 1_545 S
C377 C378 1.369 . S
C377 C379 1.419 . S
C377 H381 0.930 . S
C378 C377 1.369 . S
C378 C387 1.429 . S
C379 C377 1.419 . S
C379 C380 1.363 . S
C379 H382 0.929 . S
C380 C379 1.363 . S
C380 C386 1.428 . S
H381 C377 0.930 . S
H382 C379 0.929 . S
S383 N384 1.613 . S
S383 N385 1.610 . S
N384 S383 1.613 . S
N384 C387 1.350 . S
N385 S383 1.610 . S
N385 C386 1.351 . S
C386 C380 1.428 . S
C386 N385 1.351 . S
C386 C387 1.434 . S
C387 C378 1.429 . S
C387 N384 1.350 . S
C387 C386 1.434 . S
C388 C389 1.369 . S
C388 C390 1.419 1_455 S
C388 H392 0.930 . S
C389 C388 1.369 . S
C389 C398 1.429 . S
C390 C388 1.419 1_655 S
C390 C391 1.363 . S
C390 H393 0.929 . S
C391 C390 1.363 . S
C391 C397 1.428 . S
H392 C388 0.930 . S
H393 C390 0.929 . S
S394 N395 1.613 1_655 S
S394 N396 1.610 . S
N395 S394 1.613 1_455 S
N395 C398 1.350 . S
N396 S394 1.610 . S
N396 C397 1.351 . S
C397 C391 1.428 . S
C397 N396 1.351 . S
C397 C398 1.434 1_655 S
C398 C389 1.429 . S
C398 N395 1.350 . S
C398 C397 1.434 1_455 S
C399 C400 1.369 . S
C399 C401 1.419 1_565 S
C399 H403 0.930 . S
C400 C399 1.369 . S
C400 C409 1.429 . S
C401 C399 1.419 1_545 S
C401 C402 1.363 . S
C401 H404 0.929 . S
C402 C401 1.363 . S
C402 C408 1.428 . S
H403 C399 0.930 . S
H404 C401 0.929 . S
S405 N406 1.613 1_545 S
S405 N407 1.610 . S
N406 S405 1.613 1_565 S
N406 C409 1.350 . S
N407 S405 1.610 . S
N407 C408 1.351 . S
C408 C402 1.428 . S
C408 N407 1.351 . S
C408 C409 1.434 1_545 S
C409 C400 1.429 . S
C409 N406 1.350 . S
C409 C408 1.434 1_565 S
C410 C411 1.369 . S
C410 C412 1.419 . S
C410 H414 0.930 . S
C411 C410 1.369 . S
C411 C420 1.429 . S
C412 C410 1.419 . S
C412 C413 1.363 . S
C412 H415 0.929 . S
C413 C412 1.363 . S
C413 C419 1.428 . S
H414 C410 0.930 . S
H415 C412 0.929 . S
S416 N417 1.613 . S
S416 N418 1.610 . S
N417 S416 1.613 . S
N417 C420 1.350 . S
N418 S416 1.610 . S
N418 C419 1.351 . S
C419 C413 1.428 . S
C419 N418 1.351 . S
C419 C420 1.434 . S
C420 C411 1.429 . S
C420 N417 1.350 . S
C420 C419 1.434 . S
C421 C422 1.369 . S
C421 C423 1.419 1_455 S
C421 H425 0.930 . S
C422 C421 1.369 . S
C422 C431 1.429 1_556 S
C423 C421 1.419 1_655 S
C423 C424 1.363 . S
C423 H426 0.929 . S
C424 C423 1.363 . S
C424 C430 1.428 . S
H425 C421 0.930 . S
H426 C423 0.929 . S
S427 N428 1.613 1_655 S
S427 N429 1.610 . S
N428 S427 1.613 1_455 S
N428 C431 1.350 . S
N429 S427 1.610 . S
N429 C430 1.351 1_554 S
C430 C424 1.428 . S
C430 N429 1.351 1_556 S
C430 C431 1.434 1_656 S
C431 C422 1.429 1_554 S
C431 N428 1.350 . S
C431 C430 1.434 1_454 S
C169 C4 1.610 . S
C171 C144 1.615 . S
C180 C18 1.613 . S
C182 C158 1.611 . S
C191 C88 1.615 . S
C193 C32 1.611 . S
C202 C46 1.618 . S
C204 C102 1.614 . S
C213 C116 1.610 . S
C215 C60 1.614 . S
C224 C130 1.614 . S
C226 C74 1.610 . S
C235 C117 1.170 . S
C237 C5 1.181 . S
C246 C19 1.182 . S
C248 C131 1.172 . S
C257 C145 1.187 . S
C259 C33 1.175 . S
C268 C47 1.174 . S
C270 C159 1.185 . S
C279 C61 1.177 . S
C281 C89 1.172 . S
C290 C75 1.170 . S
C292 C103 1.182 . S
C301 C151 1.361 . S
C303 C11 1.366 . S
C312 C165 1.365 . S
C314 C25 1.367 . S
C323 C95 1.360 . S
C325 C39 1.359 . S
C334 C53 1.366 . S
C336 C109 1.367 . S
C345 C67 1.362 . S
C347 C123 1.359 . S
C356 C137 1.363 . S
C358 C81 1.360 . S
C367 C12 1.253 . S
C369 C110 1.251 . S
C378 C124 1.251 . S
C380 C26 1.250 . S
C389 C138 1.249 . S
C391 C40 1.250 . S
C400 C54 1.256 . S
C402 C152 1.254 . S
C411 C68 1.250 . S
C413 C166 1.253 . S
C422 C82 1.254 . S
C424 C96 1.252 . S
