# Generated by pormake.
# Topology unm, (4)-cn, num edge types: 1
# Building blocks:
#     Node 0, Type 0, BuildingBlock: TATPOV_clean_sbu_0, # of connection points: 4
#     Node 1, Type 0, BuildingBlock: TATPOV_clean_sbu_0, # of connection points: 4
#     Node 2, Type 0, BuildingBlock: TATPOV_clean_sbu_0, # of connection points: 4
#     Node 3, Type 0, BuildingBlock: TATPOV_clean_sbu_0, # of connection points: 4
#     Node 4, Type 0, BuildingBlock: TATPOV_clean_sbu_0, # of connection points: 4
#     Node 5, Type 0, BuildingBlock: TATPOV_clean_sbu_0, # of connection points: 4
#     Node 6, Type 0, BuildingBlock: TATPOV_clean_sbu_0, # of connection points: 4
#     Node 7, Type 0, BuildingBlock: TATPOV_clean_sbu_0, # of connection points: 4
#     Edge 8, Type (0, 0), BuildingBlock: TEMPAE_clean_linker_10, # of connection points: 2
#     Edge 9, Type (0, 0), BuildingBlock: TEMPAE_clean_linker_10, # of connection points: 2
#     Edge 10, Type (0, 0), BuildingBlock: TEMPAE_clean_linker_10, # of connection points: 2
#     Edge 11, Type (0, 0), BuildingBlock: TEMPAE_clean_linker_10, # of connection points: 2
#     Edge 12, Type (0, 0), BuildingBlock: TEMPAE_clean_linker_10, # of connection points: 2
#     Edge 13, Type (0, 0), BuildingBlock: TEMPAE_clean_linker_10, # of connection points: 2
#     Edge 14, Type (0, 0), BuildingBlock: TEMPAE_clean_linker_10, # of connection points: 2
#     Edge 15, Type (0, 0), BuildingBlock: TEMPAE_clean_linker_10, # of connection points: 2
#     Edge 16, Type (0, 0), BuildingBlock: TEMPAE_clean_linker_10, # of connection points: 2
#     Edge 17, Type (0, 0), BuildingBlock: TEMPAE_clean_linker_10, # of connection points: 2
#     Edge 18, Type (0, 0), BuildingBlock: TEMPAE_clean_linker_10, # of connection points: 2
#     Edge 19, Type (0, 0), BuildingBlock: TEMPAE_clean_linker_10, # of connection points: 2
#     Edge 20, Type (0, 0), BuildingBlock: TEMPAE_clean_linker_10, # of connection points: 2
#     Edge 21, Type (0, 0), BuildingBlock: TEMPAE_clean_linker_10, # of connection points: 2
#     Edge 22, Type (0, 0), BuildingBlock: TEMPAE_clean_linker_10, # of connection points: 2
#     Edge 23, Type (0, 0), BuildingBlock: TEMPAE_clean_linker_10, # of connection points: 2
# Relax obj value: 0.130
# Max RMSD: 0.140
# Mean RMSD: 0.140
data_MOF--net-unm--node1-TATPOV_clean_sbu_0--edge1-TEMPAE_clean_linker_10
_symmetry_space_group_name_H-M    P1
_symmetry_Int_Tables_number       1
_symmetry_cell_setting            triclinic
loop_
_symmetry_equiv_pos_as_xyz
'x, y, z'
_cell_length_a     26.164728
_cell_length_b     26.217115
_cell_length_c     42.983136
_cell_angle_alpha  89.943423
_cell_angle_beta   90.064809
_cell_angle_gamma 89.854263
loop_
_atom_site_label
_atom_site_type_symbol
_atom_site_fract_x
_atom_site_fract_y
_atom_site_fract_z
_atom_type_partial_charge
Zn0 Zn 0.90988 0.20711 0.12657 0.0
Zn1 Zn 0.99005 0.20622 0.16545 0.0
O2 O 0.92669 0.1914 0.19458 0.0
O3 O 0.86294 0.18706 0.16115 0.0
O4 O 0.05382 0.2141 0.19273 0.0
O5 O 0.94425 0.15793 0.09818 0.0
O6 O 0.01229 0.15939 0.12836 0.0
C7 C 0.87892 0.1856 0.18894 0.0
C8 C 0.95772 0.30304 0.13058 0.0
O9 O 0.98577 0.27815 0.14939 0.0
O10 O 0.92045 0.2816 0.11719 0.0
C11 C 0.07833 0.18184 0.20916 0.0
O12 O 0.06162 0.13472 0.21097 0.0
C13 C 0.99032 0.14559 0.10313 0.0
Zn14 Zn 0.25944 0.39557 0.61459 0.0
Zn15 Zn 0.26564 0.47749 0.65505 0.0
O16 O 0.27591 0.41346 0.68367 0.0
O17 O 0.27608 0.34895 0.65071 0.0
O18 O 0.25596 0.53954 0.68319 0.0
O19 O 0.31234 0.43186 0.58887 0.0
O20 O 0.31715 0.49768 0.62071 0.0
C21 C 0.27906 0.36553 0.67833 0.0
C22 C 0.16949 0.45412 0.61594 0.0
O23 O 0.19689 0.47877 0.63505 0.0
O24 O 0.18583 0.41309 0.60401 0.0
C25 C 0.28817 0.57049 0.69474 0.0
O26 O 0.33722 0.56264 0.69026 0.0
C27 C 0.32924 0.47593 0.59515 0.0
Zn28 Zn 0.0882 0.7665 0.11472 0.0
Zn29 Zn 0.00843 0.77162 0.15557 0.0
O30 O 0.07217 0.78518 0.1843 0.0
O31 O 0.13494 0.78507 0.15008 0.0
O32 O 0.94449 0.76361 0.18235 0.0
O33 O 0.05249 0.81741 0.08758 0.0
O34 O 0.98702 0.82064 0.11973 0.0
C35 C 0.1199 0.78863 0.17801 0.0
C36 C 0.03652 0.67323 0.12018 0.0
O37 O 0.01074 0.70018 0.13903 0.0
O38 O 0.07433 0.69218 0.106 0.0
C39 C 0.92521 0.7899 0.20427 0.0
O40 O 0.94863 0.83145 0.21358 0.0
C41 C 0.00797 0.83319 0.094 0.0
Zn42 Zn 0.71331 0.61322 0.62087 0.0
Zn43 Zn 0.71741 0.53161 0.66144 0.0
O44 O 0.70019 0.59342 0.69015 0.0
O45 O 0.6926 0.65766 0.65723 0.0
O46 O 0.73106 0.46974 0.6891 0.0
O47 O 0.66463 0.57278 0.59449 0.0
O48 O 0.67016 0.50644 0.62588 0.0
C49 C 0.69228 0.64082 0.68488 0.0
C50 C 0.81124 0.56774 0.62482 0.0
O51 O 0.7875 0.53981 0.64408 0.0
O52 O 0.7885 0.60382 0.61089 0.0
C53 C 0.69995 0.43724 0.70017 0.0
O54 O 0.6507 0.4433 0.69541 0.0
C55 C 0.6545 0.5266 0.60051 0.0
Zn56 Zn 0.41184 0.2593 0.40851 0.0
Zn57 Zn 0.49178 0.26107 0.3678 0.0
O58 O 0.4267 0.26916 0.33908 0.0
O59 O 0.36365 0.27237 0.37303 0.0
O60 O 0.55417 0.25006 0.33982 0.0
O61 O 0.44668 0.31426 0.43259 0.0
O62 O 0.51263 0.31539 0.40072 0.0
C63 C 0.37884 0.27273 0.34507 0.0
C64 C 0.46785 0.16821 0.40952 0.0
O65 O 0.49283 0.19305 0.38925 0.0
O66 O 0.42803 0.18714 0.42158 0.0
C67 C 0.58262 0.28195 0.32578 0.0
O68 O 0.57137 0.33076 0.32705 0.0
C69 C 0.49089 0.33025 0.42576 0.0
Zn70 Zn 0.2217 0.8986 0.89479 0.0
Zn71 Zn 0.20989 0.97675 0.85416 0.0
O72 O 0.19468 0.91114 0.82744 0.0
O73 O 0.2004 0.849 0.86186 0.0
O74 O 0.20698 0.03882 0.82485 0.0
O75 O 0.17365 0.93134 0.92479 0.0
O76 O 0.16767 -0.00235 0.89345 0.0
C77 C 0.19335 0.8635 0.83408 0.0
C78 C 0.31353 0.95243 0.88385 0.0
O79 O 0.28427 0.97714 0.86569 0.0
O80 O 0.29644 0.91545 0.89963 0.0
C81 C 0.23262 0.07808 0.83286 0.0
O82 O 0.25589 0.07788 0.85995 0.0
C83 C 0.15805 0.97626 0.91955 0.0
Zn84 Zn 0.59025 0.70482 0.39408 0.0
Zn85 Zn 0.50956 0.71311 0.35565 0.0
O86 O 0.57212 0.69898 0.32599 0.0
O87 O 0.63603 0.68623 0.35856 0.0
O88 O 0.4466 0.72658 0.32845 0.0
O89 O 0.55344 0.65453 0.42035 0.0
O90 O 0.48516 0.66368 0.39085 0.0
C91 C 0.61952 0.68958 0.33095 0.0
C92 C 0.54675 0.80348 0.39438 0.0
O93 O 0.51736 0.78254 0.37464 0.0
O94 O 0.58295 0.77853 0.4067 0.0
C95 C 0.41662 0.69457 0.31575 0.0
O96 O 0.42647 0.64559 0.31841 0.0
C97 C 0.50663 0.64579 0.41529 0.0
Zn98 Zn 0.77381 0.10692 0.89797 0.0
Zn99 Zn 0.78266 0.02983 0.85517 0.0
O100 O 0.79929 0.09534 0.82912 0.0
O101 O 0.79554 0.15603 0.86455 0.0
O102 O 0.78113 0.96841 0.82558 0.0
O103 O 0.82205 0.06976 0.92635 0.0
O104 O 0.82622 0.00606 0.89303 0.0
C105 C 0.8017 0.14259 0.83649 0.0
C106 C 0.68042 0.05656 0.88634 0.0
O107 O 0.70901 0.03222 0.8677 0.0
O108 O 0.69849 0.09204 0.90296 0.0
C109 C 0.75544 0.92993 0.83484 0.0
O110 O 0.73561 0.93089 0.86291 0.0
C111 C 0.83703 0.02519 0.91956 0.0
C112 C 0.07299 0.11613 0.07867 0.0
C113 C 0.01971 0.12225 0.07713 0.0
C114 C 0.10092 0.09882 0.05269 0.0
C115 C 0.07485 0.0868 0.02471 0.0
C116 C 0.02156 0.09502 0.02265 0.0
C117 C 0.99474 0.11216 0.04883 0.0
C118 C 0.1584 0.09524 0.05481 0.0
C119 C 0.99268 0.08543 0.99274 0.0
C120 C 0.13288 0.05891 0.94522 0.0
C121 C 0.13527 0.0054 0.94577 0.0
C122 C 0.11647 0.08658 0.97149 0.0
C123 C 0.10115 0.06003 0.99865 0.0
C124 C 0.10527 0.00628 0.99966 0.0
C125 C 0.12207 0.97973 0.97329 0.0
C126 C 0.1173 0.14413 0.97053 0.0
C127 C 0.09155 0.97668 0.02865 0.0
H128 H 0.09301 0.12584 0.09993 0.0
H129 H 0.95394 0.11846 0.04687 0.0
H130 H 0.17247 0.05812 0.04588 0.0
H131 H 0.17547 0.12541 0.04 0.0
H132 H 0.17239 0.10034 0.07902 0.0
H133 H 0.95251 0.09887 0.99395 0.0
H134 H 0.01112 0.10523 0.97295 0.0
H135 H 0.99318 0.04407 0.98737 0.0
H136 H 0.14513 0.07927 0.92459 0.0
H137 H 0.12529 0.93856 0.97437 0.0
H138 H 0.14845 0.15798 0.98587 0.0
H139 H 0.0811 0.16054 0.97948 0.0
H140 H 0.12402 0.15893 0.94666 0.0
H141 H 0.11258 0.99158 0.04907 0.0
H142 H 0.10079 0.93553 0.02646 0.0
H143 H 0.05018 0.98128 0.03362 0.0
C144 C 0.37079 0.47896 0.54295 0.0
C145 C 0.35521 0.50471 0.56996 0.0
C146 C 0.38885 0.50552 0.51689 0.0
C147 C 0.392 0.55931 0.51777 0.0
C148 C 0.37486 0.58589 0.54451 0.0
C149 C 0.3571 0.55824 0.57042 0.0
C150 C 0.40458 0.47593 0.48829 0.0
C151 C 0.37325 0.64344 0.54528 0.0
C152 C 0.49992 0.61233 0.46945 0.0
C153 C 0.47616 0.62229 0.44073 0.0
C154 C 0.47213 0.59496 0.49515 0.0
C155 C 0.41911 0.58625 0.49214 0.0
C156 C 0.39417 0.59813 0.46372 0.0
C157 C 0.42306 0.61587 0.43826 0.0
C158 C 0.49969 0.58571 0.52559 0.0
C159 C 0.33689 0.59385 0.46058 0.0
H160 H 0.36805 0.43776 0.54193 0.0
H161 H 0.34307 0.57865 0.59061 0.0
H162 H 0.38442 0.49052 0.46742 0.0
H163 H 0.44612 0.48095 0.48413 0.0
H164 H 0.39585 0.4347 0.49045 0.0
H165 H 0.36539 0.65828 0.569 0.0
H166 H 0.40958 0.66011 0.53682 0.0
H167 H 0.34253 0.65697 0.52945 0.0
H168 H 0.54048 0.6191 0.47218 0.0
H169 H 0.40395 0.62545 0.41663 0.0
H170 H 0.49957 0.54436 0.53103 0.0
H171 H 0.48002 0.60536 0.54499 0.0
H172 H 0.53972 0.59953 0.52506 0.0
H173 H 0.32314 0.55635 0.46903 0.0
H174 H 0.32394 0.59926 0.43617 0.0
H175 H 0.31857 0.62348 0.47528 0.0
C176 C 0.92547 0.86682 0.07158 0.0
C177 C 0.9786 0.86019 0.06935 0.0
C178 C 0.8972 0.88782 0.04675 0.0
C179 C 0.92287 0.90332 0.0193 0.0
C180 C 0.97609 0.89509 0.01656 0.0
C181 C 0.00317 0.87378 0.04154 0.0
C182 C 0.83977 0.89124 0.04948 0.0
C183 C 0.00471 0.90925 0.98727 0.0
C184 C 0.86326 0.94015 0.94163 0.0
C185 C 0.8605 0.99345 0.94445 0.0
C186 C 0.88036 0.90962 0.96653 0.0
C187 C 0.89611 0.93306 0.99462 0.0
C188 C 0.89144 0.98649 0.99801 0.0
C189 C 0.87408 0.016 0.9729 0.0
C190 C 0.87982 0.8523 0.96324 0.0
C191 C 0.90464 0.01247 0.02834 0.0
H192 H 0.90573 0.85441 0.0924 0.0
H193 H 0.04385 0.86722 0.03908 0.0
H194 H 0.82471 0.92742 0.03968 0.0
H195 H 0.82252 0.85963 0.03593 0.0
H196 H 0.8269 0.88776 0.07401 0.0
H197 H 0.04486 0.89562 0.98769 0.0
H198 H 0.98608 0.89273 0.96646 0.0
H199 H 0.00428 0.95128 0.98432 0.0
H200 H 0.85078 0.92212 0.92025 0.0
H201 H 0.87061 0.05692 0.97574 0.0
H202 H 0.8519 0.83613 0.97996 0.0
H203 H 0.91766 0.83573 0.96909 0.0
H204 H 0.86906 0.84004 0.93939 0.0
H205 H 0.883 0.99522 0.04781 0.0
H206 H 0.89556 0.05381 0.0279 0.0
H207 H 0.94585 0.00703 0.03356 0.0
C208 C 0.5723 0.36689 0.44775 0.0
C209 C 0.5193 0.35944 0.44982 0.0
C210 C 0.59979 0.38893 0.47252 0.0
C211 C 0.57349 0.40433 0.4998 0.0
C212 C 0.52036 0.39565 0.50226 0.0
C213 C 0.49406 0.37359 0.47732 0.0
C214 C 0.65715 0.39333 0.46991 0.0
C215 C 0.49101 0.40995 0.53127 0.0
C216 C 0.63071 0.44122 0.57801 0.0
C217 C 0.63204 0.49462 0.57544 0.0
C218 C 0.61502 0.4107 0.55282 0.0
C219 C 0.59937 0.43418 0.52468 0.0
C220 C 0.6028 0.4877 0.5215 0.0
C221 C 0.61852 0.51723 0.54692 0.0
C222 C 0.61658 0.35337 0.55592 0.0
C223 C 0.59012 0.51372 0.49107 0.0
H224 H 0.59259 0.35419 0.42718 0.0
H225 H 0.4535 0.36651 0.47968 0.0
H226 H 0.67173 0.42871 0.48084 0.0
H227 H 0.67495 0.36064 0.4823 0.0
H228 H 0.6699 0.39221 0.44527 0.0
H229 H 0.45096 0.39622 0.53062 0.0
H230 H 0.50936 0.39365 0.55228 0.0
H231 H 0.49102 0.45199 0.53406 0.0
H232 H 0.64306 0.42315 0.59943 0.0
H233 H 0.62105 0.55824 0.54419 0.0
H234 H 0.64266 0.33739 0.53804 0.0
H235 H 0.57827 0.33683 0.55161 0.0
H236 H 0.62998 0.34092 0.57926 0.0
H237 H 0.61255 0.49673 0.47183 0.0
H238 H 0.59863 0.55513 0.49164 0.0
H239 H 0.54914 0.50796 0.48542 0.0
C240 C 0.14818 0.24531 0.22008 0.0
C241 C 0.12568 0.19763 0.22595 0.0
C242 C 0.19235 0.26114 0.23613 0.0
C243 C 0.21445 0.22887 0.25894 0.0
C244 C 0.19238 0.18038 0.26463 0.0
C245 C 0.14856 0.16529 0.24799 0.0
C246 C 0.21479 0.31286 0.22908 0.0
C247 C 0.21428 0.1449 0.28894 0.0
C248 C 0.34952 0.24784 0.29119 0.0
C249 C 0.33925 0.2704 0.32013 0.0
C250 C 0.30954 0.23599 0.27033 0.0
C251 C 0.25816 0.24701 0.27858 0.0
C252 C 0.2481 0.27262 0.3069 0.0
C253 C 0.28858 0.28398 0.3272 0.0
C254 C 0.32204 0.20925 0.24022 0.0
C255 C 0.19416 0.28554 0.31667 0.0
H256 H 0.13119 0.27052 0.20292 0.0
H257 H 0.13165 0.1284 0.25273 0.0
H258 H 0.21124 0.33785 0.24977 0.0
H259 H 0.25614 0.3092 0.2238 0.0
H260 H 0.19552 0.3318 0.20911 0.0
H261 H 0.19413 0.10767 0.28967 0.0
H262 H 0.25538 0.13782 0.2843 0.0
H263 H 0.21147 0.16293 0.31223 0.0
H264 H 0.38839 0.23689 0.28555 0.0
H265 H 0.28016 0.30175 0.34938 0.0
H266 H 0.30222 0.22805 0.22045 0.0
H267 H 0.30827 0.16929 0.24128 0.0
H268 H 0.36378 0.20872 0.23548 0.0
H269 H 0.17426 0.30695 0.29795 0.0
H270 H 0.19303 0.30867 0.3383 0.0
H271 H 0.17242 0.24985 0.32068 0.0
C272 C 0.30358 0.64377 0.73125 0.0
C273 C 0.26995 0.61592 0.71239 0.0
C274 C 0.28646 0.68603 0.74856 0.0
C275 C 0.23456 0.70153 0.74666 0.0
C276 C 0.20075 0.67444 0.72697 0.0
C277 C 0.2187 0.63178 0.71032 0.0
C278 C 0.32372 0.71333 0.76956 0.0
C279 C 0.14541 0.69004 0.72382 0.0
C280 C 0.18594 0.77228 0.81791 0.0
C281 C 0.19264 0.8236 0.80938 0.0
C282 C 0.1972 0.73238 0.79724 0.0
C283 C 0.21525 0.74375 0.76699 0.0
C284 C 0.21842 0.79544 0.75738 0.0
C285 C 0.20717 0.8348 0.7787 0.0
C286 C 0.19298 0.67799 0.80857 0.0
C287 C 0.23657 0.80926 0.72516 0.0
H288 H 0.34319 0.63191 0.733 0.0
H289 H 0.19247 0.61092 0.69555 0.0
H290 H 0.32474 0.75453 0.76371 0.0
H291 H 0.31099 0.71005 0.7941 0.0
H292 H 0.36309 0.69765 0.76772 0.0
H293 H 0.12511 0.66771 0.70568 0.0
H294 H 0.1255 0.68448 0.74633 0.0
H295 H 0.14259 0.73116 0.71791 0.0
H296 H 0.17436 0.76306 0.84146 0.0
H297 H 0.2127 0.8742 0.77185 0.0
H298 H 0.2317 0.66076 0.81008 0.0
H299 H 0.17053 0.65481 0.7919 0.0
H300 H 0.17468 0.67541 0.83182 0.0
H301 H 0.27802 0.80088 0.72316 0.0
H302 H 0.23034 0.85028 0.71983 0.0
H303 H 0.21657 0.78598 0.70739 0.0
C304 C 0.70691 0.67116 0.31053 0.0
C305 C 0.65802 0.69185 0.30553 0.0
C306 C 0.74826 0.68377 0.2912 0.0
C307 C 0.74083 0.71815 0.26616 0.0
C308 C 0.6908 0.73619 0.25956 0.0
C309 C 0.64992 0.72271 0.27927 0.0
C310 C 0.80063 0.66298 0.29895 0.0
C311 C 0.68104 0.77252 0.23295 0.0
C312 C 0.85691 0.7989 0.24513 0.0
C313 C 0.87676 0.77291 0.21929 0.0
C314 C 0.8121 0.78215 0.26005 0.0
C315 C 0.78615 0.73839 0.24888 0.0
C316 C 0.80535 0.71262 0.22241 0.0
C317 C 0.85036 0.73005 0.20802 0.0
C318 C 0.79315 0.81072 0.28828 0.0
C319 C 0.77888 0.66601 0.20962 0.0
H320 H 0.71353 0.6471 0.33067 0.0
H321 H 0.61245 0.73926 0.27534 0.0
H322 H 0.81903 0.64692 0.27788 0.0
H323 H 0.8253 0.69439 0.30748 0.0
H324 H 0.79918 0.63285 0.31712 0.0
H325 H 0.63956 0.77771 0.22834 0.0
H326 H 0.69776 0.81027 0.23856 0.0
H327 H 0.69979 0.75867 0.21141 0.0
H328 H 0.87679 0.83203 0.25404 0.0
H329 H 0.86508 0.70971 0.18798 0.0
H330 H 0.79425 0.78532 0.30894 0.0
H331 H 0.75281 0.8226 0.28482 0.0
H332 H 0.81638 0.84515 0.29332 0.0
H333 H 0.77999 0.63488 0.22711 0.0
H334 H 0.79687 0.65204 0.18783 0.0
H335 H 0.73806 0.67464 0.20491 0.0
C336 C 0.77143 0.37806 0.71555 0.0
C337 C 0.71964 0.39206 0.71751 0.0
C338 C 0.79066 0.33549 0.73181 0.0
C339 C 0.75761 0.30663 0.75101 0.0
C340 C 0.70522 0.32032 0.75286 0.0
C341 C 0.68682 0.36251 0.73591 0.0
C342 C 0.8465 0.32178 0.72872 0.0
C343 C 0.66873 0.2911 0.77338 0.0
C344 C 0.7882 0.17302 0.78141 0.0
C345 C 0.80208 0.18341 0.81232 0.0
C346 C 0.77632 0.21288 0.76052 0.0
C347 C 0.77807 0.26424 0.77083 0.0
C348 C 0.79557 0.27492 0.8013 0.0
C349 C 0.8076 0.23454 0.82151 0.0
C350 C 0.75891 0.19985 0.72802 0.0
C351 C 0.79821 0.32895 0.81336 0.0
H352 H 0.79704 0.40028 0.70112 0.0
H353 H 0.64681 0.37295 0.73758 0.0
H354 H 0.86597 0.32662 0.75146 0.0
H355 H 0.85063 0.28113 0.72201 0.0
H356 H 0.86633 0.34575 0.71118 0.0
H357 H 0.62894 0.30573 0.77168 0.0
H358 H 0.66889 0.25015 0.76693 0.0
H359 H 0.68133 0.29369 0.79799 0.0
H360 H 0.78366 0.13378 0.77401 0.0
H361 H 0.81869 0.24316 0.84524 0.0
H362 H 0.77829 0.22448 0.71068 0.0
H363 H 0.71723 0.20696 0.72593 0.0
H364 H 0.7665 0.15927 0.72215 0.0
H365 H 0.81997 0.35345 0.79706 0.0
H366 H 0.81643 0.33113 0.83668 0.0
H367 H 0.75901 0.34497 0.81504 0.0
C368 C 0.64835 0.2145 0.31374 0.0
C369 C 0.62892 0.26389 0.30878 0.0
C370 C 0.69193 0.19684 0.29777 0.0
C371 C 0.71635 0.22893 0.27584 0.0
C372 C 0.69721 0.27899 0.27099 0.0
C373 C 0.65411 0.29596 0.28766 0.0
C374 C 0.71142 0.14358 0.30407 0.0
C375 C 0.72148 0.3143 0.24752 0.0
C376 C 0.85078 0.20605 0.24373 0.0
C377 C 0.83988 0.18589 0.21421 0.0
C378 C 0.81116 0.21772 0.26487 0.0
C379 C 0.75948 0.20931 0.25623 0.0
C380 C 0.74871 0.18569 0.22737 0.0
C381 C 0.78887 0.17407 0.20691 0.0
C382 C 0.82446 0.24182 0.29567 0.0
C383 C 0.6944 0.17581 0.21708 0.0
H384 H 0.62957 0.18953 0.33025 0.0
H385 H 0.63952 0.33413 0.28365 0.0
H386 H 0.70696 0.11979 0.28292 0.0
H387 H 0.75279 0.14457 0.30974 0.0
H388 H 0.69075 0.12488 0.32354 0.0
H389 H 0.70308 0.35253 0.24712 0.0
H390 H 0.76269 0.31911 0.25282 0.0
H391 H 0.71865 0.29739 0.22393 0.0
H392 H 0.8899 0.21552 0.24964 0.0
H393 H 0.77989 0.1581 0.1843 0.0
H394 H 0.80295 0.22333 0.31483 0.0
H395 H 0.81333 0.28267 0.29531 0.0
H396 H 0.866 0.23921 0.30082 0.0
H397 H 0.67324 0.15471 0.23533 0.0
H398 H 0.69259 0.15363 0.1951 0.0
H399 H 0.67437 0.21271 0.21344 0.0
C400 C 0.30049 0.27892 0.69908 0.0
C401 C 0.27989 0.32771 0.70413 0.0
C402 C 0.2945 0.23963 0.72105 0.0
C403 C 0.26612 0.24879 0.74853 0.0
C404 C 0.24651 0.29841 0.75422 0.0
C405 C 0.25411 0.33743 0.73211 0.0
C406 C 0.31735 0.18784 0.71437 0.0
C407 C 0.21554 0.30971 0.78301 0.0
C408 C 0.20632 0.13137 0.78659 0.0
C409 C 0.23974 0.12227 0.81152 0.0
C410 C 0.21367 0.17317 0.76643 0.0
C411 C 0.25611 0.20602 0.77084 0.0
C412 C 0.29003 0.1968 0.7959 0.0
C413 C 0.28116 0.15548 0.81605 0.0
C414 C 0.17612 0.18206 0.74029 0.0
C415 C 0.33639 0.22994 0.80109 0.0
H416 H 0.3205 0.27113 0.67752 0.0
H417 H 0.23746 0.37479 0.73598 0.0
H418 H 0.341 0.17494 0.73434 0.0
H419 H 0.28639 0.15949 0.71121 0.0
H420 H 0.34149 0.18795 0.69312 0.0
H421 H 0.20471 0.35061 0.78468 0.0
H422 H 0.18015 0.28646 0.78281 0.0
H423 H 0.23735 0.29897 0.80417 0.0
H424 H 0.17415 0.10607 0.783 0.0
H425 H 0.30755 0.14856 0.83506 0.0
H426 H 0.19579 0.17811 0.71757 0.0
H427 H 0.16074 0.2215 0.74152 0.0
H428 H 0.14367 0.15484 0.74097 0.0
H429 H 0.36161 0.22833 0.78037 0.0
H430 H 0.35884 0.21798 0.82181 0.0
H431 H 0.32459 0.27028 0.80413 0.0
C432 C 0.35281 0.763 0.30183 0.0
C433 C 0.3704 0.71257 0.29859 0.0
C434 C 0.30935 0.78053 0.2856 0.0
C435 C 0.2832 0.74721 0.26516 0.0
C436 C 0.30044 0.69612 0.26208 0.0
C437 C 0.34346 0.67937 0.27898 0.0
C438 C 0.29189 0.83497 0.28999 0.0
C439 C 0.27426 0.65942 0.24024 0.0
C440 C 0.14885 0.77177 0.23318 0.0
C441 C 0.15972 0.78862 0.20289 0.0
C442 C 0.18857 0.76071 0.25444 0.0
C443 C 0.24029 0.76636 0.24514 0.0
C444 C 0.25117 0.78661 0.21535 0.0
C445 C 0.21093 0.79771 0.19478 0.0
C446 C 0.17521 0.74024 0.28621 0.0
C447 C 0.30554 0.79344 0.20433 0.0
H448 H 0.37297 0.78888 0.31716 0.0
H449 H 0.35662 0.64039 0.27629 0.0
H450 H 0.29667 0.85645 0.26795 0.0
H451 H 0.25065 0.83601 0.29595 0.0
H452 H 0.31367 0.85479 0.30858 0.0
H453 H 0.29125 0.62057 0.24122 0.0
H454 H 0.23305 0.6567 0.24601 0.0
H455 H 0.27708 0.67378 0.216 0.0
H456 H 0.10955 0.76446 0.23973 0.0
H457 H 0.21992 0.81115 0.17156 0.0
H458 H 0.19781 0.75985 0.30446 0.0
H459 H 0.18492 0.69906 0.28736 0.0
H460 H 0.1339 0.74481 0.29152 0.0
H461 H 0.32787 0.81564 0.22155 0.0
H462 H 0.30758 0.81319 0.18149 0.0
H463 H 0.32418 0.75556 0.20206 0.0
C464 C 0.66972 0.72688 0.70601 0.0
C465 C 0.69148 0.67848 0.71071 0.0
C466 C 0.67744 0.76669 0.72737 0.0
C467 C 0.70864 0.75839 0.75386 0.0
C468 C 0.72892 0.70901 0.75945 0.0
C469 C 0.71968 0.66952 0.73798 0.0
C470 C 0.65386 0.81825 0.7209 0.0
C471 C 0.76271 0.69856 0.78723 0.0
C472 C 0.77459 0.87573 0.78785 0.0
C473 C 0.74454 0.88586 0.81411 0.0
C474 C 0.76392 0.83382 0.7684 0.0
C475 C 0.72153 0.80189 0.77498 0.0
C476 C 0.69087 0.81229 0.80133 0.0
C477 C 0.703 0.85373 0.82067 0.0
C478 C 0.79802 0.82368 0.74078 0.0
C479 C 0.64471 0.78009 0.80886 0.0
H480 H 0.64788 0.73411 0.685 0.0
H481 H 0.73724 0.63248 0.74159 0.0
H482 H 0.63304 0.83221 0.74171 0.0
H483 H 0.68439 0.84627 0.71571 0.0
H484 H 0.62695 0.81727 0.7009 0.0
H485 H 0.77307 0.65757 0.78929 0.0
H486 H 0.79837 0.72115 0.7852 0.0
H487 H 0.74341 0.71068 0.80897 0.0
H488 H 0.80679 0.90024 0.78268 0.0
H489 H 0.67917 0.86152 0.84074 0.0
H490 H 0.77555 0.82679 0.71895 0.0
H491 H 0.81338 0.78423 0.74198 0.0
H492 H 0.83057 0.85073 0.73953 0.0
H493 H 0.61739 0.78105 0.7891 0.0
H494 H 0.62463 0.79333 0.83014 0.0
H495 H 0.65634 0.73975 0.81223 0.0
C496 C 0.05018 0.58785 0.09568 0.0
C497 C 0.02221 0.61955 0.11566 0.0
C498 C 0.03859 0.53586 0.09332 0.0
C499 C -0.00148 0.5156 0.11156 0.0
C500 C 0.96863 0.54789 0.13057 0.0
C501 C 0.98076 0.59955 0.13231 0.0
C502 C 0.07071 0.50226 0.07254 0.0
C503 C 0.92572 0.52744 0.1505 0.0
C504 C 0.94405 0.38362 0.10066 0.0
C505 C 0.96952 0.35684 0.12432 0.0
C506 C 0.95483 0.43511 0.09511 0.0
C507 C 0.9914 0.46003 0.11391 0.0
C508 C 0.01813 0.43286 0.13725 0.0
C509 C 0.00695 0.38149 0.1421 0.0
C510 C 0.92611 0.46319 0.06984 0.0
C511 C 0.05712 0.45849 0.15795 0.0
H512 H 0.08187 0.6033 0.0825 0.0
H513 H 0.95855 0.62394 0.14755 0.0
H514 H 0.09539 0.47731 0.08707 0.0
H515 H 0.04602 0.47709 0.05828 0.0
H516 H 0.09556 0.52486 0.05679 0.0
H517 H 0.90353 0.55837 0.16194 0.0
H518 H 0.89916 0.50418 0.1363 0.0
H519 H 0.94172 0.50222 0.16886 0.0
H520 H 0.91548 0.3645 0.08664 0.0
H521 H 0.02694 0.36092 0.16034 0.0
H522 H 0.95311 0.48429 0.0547 0.0
H523 H 0.90008 0.49172 0.08047 0.0
H524 H 0.90303 0.43704 0.05517 0.0
H525 H 0.08652 0.47787 0.14366 0.0
H526 H 0.07657 0.4311 0.17378 0.0
H527 H 0.03807 0.48811 0.1723 0.0
C528 C 0.8882 0.57132 0.5905 0.0
C529 C 0.86491 0.55569 0.61825 0.0
C530 C 0.9384 0.55625 0.5836 0.0
C531 C 0.96543 0.52565 0.60521 0.0
C532 C 0.94203 0.51014 0.63329 0.0
C533 C 0.89202 0.52528 0.6394 0.0
C534 C 0.96247 0.57291 0.55337 0.0
C535 C 0.96998 0.47808 0.65719 0.0
C536 C 0.08256 0.44539 0.59228 0.0
C537 C 0.119 0.47491 0.60785 0.0
C538 C 0.03263 0.46373 0.58822 0.0
C539 C 0.01948 0.51232 0.60018 0.0
C540 C 0.05735 0.54393 0.61334 0.0
C541 C 0.10672 0.52482 0.61698 0.0
C542 C 0.99307 0.42943 0.57363 0.0
C543 C 0.04477 0.59593 0.62649 0.0
H544 H 0.86694 0.59437 0.57399 0.0
H545 H 0.87414 0.51331 0.66095 0.0
H546 H 0.99643 0.59692 0.55813 0.0
H547 H 0.97594 0.53909 0.54019 0.0
H548 H 0.9355 0.59492 0.53853 0.0
H549 H 0.94561 0.46845 0.6775 0.0
H550 H 0.98349 0.44201 0.64649 0.0
H551 H 0.00413 0.49885 0.66572 0.0
H552 H 0.09224 0.40716 0.58467 0.0
H553 H 0.13517 0.54843 0.62829 0.0
H554 H 0.96718 0.4515 0.55819 0.0
H555 H 0.96935 0.41208 0.59221 0.0
H556 H 0.01098 0.39817 0.55999 0.0
H557 H 0.02004 0.61782 0.61029 0.0
H558 H 0.07969 0.61861 0.63135 0.0
H559 H 0.02343 0.59126 0.64861 0.0
C560 C 0.454 0.08377 0.43507 0.0
C561 C 0.4852 0.11662 0.41783 0.0
C562 C 0.46725 0.03229 0.43859 0.0
C563 C 0.51234 0.01388 0.42429 0.0
C564 C 0.54636 0.048 0.40961 0.0
C565 C 0.53238 0.09911 0.40662 0.0
C566 C 0.43073 -0.0031 0.45501 0.0
C567 C 0.59488 0.02976 0.39409 0.0
C568 C 0.55862 0.87747 0.43019 0.0
C569 C 0.53754 0.85685 0.40298 0.0
C570 C 0.549 0.92832 0.43841 0.0
C571 C 0.51853 0.95885 0.41857 0.0
C572 C 0.49669 0.93791 0.39132 0.0
C573 C 0.50627 0.88705 0.38397 0.0
C574 C 0.57207 0.94954 0.46787 0.0
C575 C 0.46438 0.96958 0.36935 0.0
H576 H 0.41796 0.09745 0.44432 0.0
H577 H 0.55736 0.12473 0.39398 0.0
H578 H 0.40774 0.97602 0.43747 0.0
H579 H 0.45176 0.96819 0.46907 0.0
H580 H 0.40407 0.01812 0.47042 0.0
H581 H 0.62069 0.06187 0.38805 0.0
H582 H 0.61591 0.00273 0.4093 0.0
H583 H 0.585 0.00923 0.37234 0.0
H584 H 0.58232 0.85387 0.44512 0.0
H585 H 0.48992 0.8712 0.36291 0.0
H586 H 0.54262 0.97003 0.48163 0.0
H587 H 0.60221 0.97756 0.46193 0.0
H588 H 0.58935 0.91923 0.48262 0.0
H589 H 0.43164 0.98667 0.38201 0.0
H590 H 0.4492 0.94686 0.3496 0.0
H591 H 0.48746 0.00137 0.35976 0.0
C592 C 0.39968 0.94433 0.90832 0.0
C593 C 0.36704 0.96846 0.887 0.0
C594 C 0.45064 0.95967 0.91127 0.0
C595 C 0.46897 -0.00024 0.89233 0.0
C596 C 0.43597 0.02496 0.87127 0.0
C597 C 0.38532 0.00898 0.86887 0.0
C598 C 0.48515 0.93224 0.93401 0.0
C599 C 0.45449 0.06775 0.85059 0.0
C600 C 0.59362 0.06633 0.90976 0.0
C601 C 0.62642 0.04186 0.88876 0.0
C602 C 0.5422 0.05207 0.91187 0.0
C603 C 0.52366 0.01271 0.89245 0.0
C604 C 0.55677 0.98735 0.87162 0.0
C605 C 0.60779 0.00225 0.87003 0.0
C606 C 0.50755 0.0796 0.9344 0.0
C607 C 0.53811 0.94524 0.85047 0.0
H608 H 0.38556 0.91329 0.92257 0.0
H609 H 0.3602 0.02802 0.85245 0.0
H610 H 0.51528 0.91123 0.92113 0.0
H611 H 0.50466 0.9601 0.94935 0.0
H612 H 0.46392 0.90466 0.94873 0.0
H613 H 0.42297 0.08555 0.83701 0.0
H614 H 0.47325 0.09773 0.86472 0.0
H615 H 0.48344 0.05286 0.83405 0.0
H616 H 0.60799 0.09673 0.92441 0.0
H617 H 0.63298 0.98295 0.85383 0.0
H618 H 0.48795 0.05175 0.94972 0.0
H619 H 0.47747 0.10055 0.92137 0.0
H620 H 0.52868 0.10721 0.94916 0.0
H621 H 0.5194 0.91485 0.86431 0.0
H622 H 0.56955 0.92778 0.83672 0.0
H623 H 0.5091 0.96063 0.83409 0.0
loop_
_geom_bond_atom_site_label_1
_geom_bond_atom_site_label_2
_geom_bond_distance
_geom_bond_site_symmetry_2
_ccdc_geom_bond_type
Zn0 O3 2.033 . S
Zn0 O5 2.049 . S
Zn0 O10 2.067 . S
Zn1 O2 1.962 . S
Zn1 O4 1.986 . S
Zn1 O6 1.996 . S
Zn1 O9 1.943 . S
O2 Zn1 1.962 . S
O2 C7 1.254 . S
O3 Zn0 2.033 . S
O3 C7 1.273 . S
O4 Zn1 1.986 . S
O4 C11 1.262 . S
O5 Zn0 2.049 . S
O5 C13 1.260 . S
O6 Zn1 1.996 . S
O6 C13 1.257 . S
C7 O2 1.254 . S
C7 O3 1.273 . S
C8 O9 1.249 . S
C8 O10 1.270 . S
O9 Zn1 1.943 . S
O9 C8 1.249 . S
O10 Zn0 2.067 . S
O10 C8 1.270 . S
C11 O4 1.262 . S
C11 O12 1.232 . S
O12 C11 1.232 . S
C13 O5 1.260 . S
C13 O6 1.257 . S
Zn14 O17 2.031 . S
Zn14 O19 2.049 . S
Zn14 O24 2.067 . S
Zn15 O16 1.962 . S
Zn15 O18 1.986 . S
Zn15 O20 1.996 . S
Zn15 O23 1.943 . S
O16 Zn15 1.962 . S
O16 C21 1.254 . S
O17 Zn14 2.031 . S
O17 C21 1.269 . S
O18 Zn15 1.986 . S
O18 C25 1.262 . S
O19 Zn14 2.049 . S
O19 C27 1.260 . S
O20 Zn15 1.996 . S
O20 C27 1.257 . S
C21 O16 1.254 . S
C21 O17 1.269 . S
C22 O23 1.249 . S
C22 O24 1.270 . S
O23 Zn15 1.943 . S
O23 C22 1.249 . S
O24 Zn14 2.067 . S
O24 C22 1.270 . S
C25 O18 1.262 . S
C25 O26 1.232 . S
O26 C25 1.232 . S
C27 O19 1.260 . S
C27 O20 1.257 . S
Zn28 O31 2.033 . S
Zn28 O33 2.049 . S
Zn28 O38 2.067 . S
Zn29 O30 1.962 . S
Zn29 O32 1.986 . S
Zn29 O34 1.996 . S
Zn29 O37 1.943 . S
O30 Zn29 1.962 . S
O30 C35 1.254 . S
O31 Zn28 2.033 . S
O31 C35 1.273 . S
O32 Zn29 1.986 . S
O32 C39 1.262 . S
O33 Zn28 2.049 . S
O33 C41 1.260 . S
O34 Zn29 1.996 . S
O34 C41 1.257 . S
C35 O30 1.254 . S
C35 O31 1.273 . S
C36 O37 1.249 . S
C36 O38 1.270 . S
O37 Zn29 1.943 . S
O37 C36 1.249 . S
O38 Zn28 2.067 . S
O38 C36 1.270 . S
C39 O32 1.262 . S
C39 O40 1.232 . S
O40 C39 1.232 . S
C41 O33 1.260 . S
C41 O34 1.257 . S
Zn42 O45 2.031 . S
Zn42 O47 2.049 . S
Zn42 O52 2.067 . S
Zn43 O44 1.962 . S
Zn43 O46 1.986 . S
Zn43 O48 1.996 . S
Zn43 O51 1.943 . S
O44 Zn43 1.962 . S
O44 C49 1.254 . S
O45 Zn42 2.031 . S
O45 C49 1.269 . S
O46 Zn43 1.986 . S
O46 C53 1.262 . S
O47 Zn42 2.049 . S
O47 C55 1.260 . S
O48 Zn43 1.996 . S
O48 C55 1.257 . S
C49 O44 1.254 . S
C49 O45 1.269 . S
C50 O51 1.249 . S
C50 O52 1.270 . S
O51 Zn43 1.943 . S
O51 C50 1.249 . S
O52 Zn42 2.067 . S
O52 C50 1.270 . S
C53 O46 1.262 . S
C53 O54 1.232 . S
O54 C53 1.232 . S
C55 O47 1.260 . S
C55 O48 1.257 . S
Zn56 O59 2.031 . S
Zn56 O61 2.049 . S
Zn56 O66 2.067 . S
Zn57 O58 1.962 . S
Zn57 O60 1.986 . S
Zn57 O62 1.996 . S
Zn57 O65 1.943 . S
O58 Zn57 1.962 . S
O58 C63 1.254 . S
O59 Zn56 2.031 . S
O59 C63 1.269 . S
O60 Zn57 1.986 . S
O60 C67 1.262 . S
O61 Zn56 2.049 . S
O61 C69 1.260 . S
O62 Zn57 1.996 . S
O62 C69 1.257 . S
C63 O58 1.254 . S
C63 O59 1.269 . S
C64 O65 1.249 . S
C64 O66 1.270 . S
O65 Zn57 1.943 . S
O65 C64 1.249 . S
O66 Zn56 2.067 . S
O66 C64 1.270 . S
C67 O60 1.262 . S
C67 O68 1.232 . S
O68 C67 1.232 . S
C69 O61 1.260 . S
C69 O62 1.257 . S
Zn70 O73 2.033 . S
Zn70 O75 2.049 . S
Zn70 O80 2.067 . S
Zn71 O72 1.962 . S
Zn71 O74 1.986 . S
Zn71 O76 1.996 . S
Zn71 O79 1.943 . S
O72 Zn71 1.962 . S
O72 C77 1.254 . S
O73 Zn70 2.033 . S
O73 C77 1.273 . S
O74 Zn71 1.986 . S
O74 C81 1.262 . S
O75 Zn70 2.049 . S
O75 C83 1.260 . S
O76 Zn71 1.996 . S
O76 C83 1.257 . S
C77 O72 1.254 . S
C77 O73 1.273 . S
C78 O79 1.249 . S
C78 O80 1.270 . S
O79 Zn71 1.943 . S
O79 C78 1.249 . S
O80 Zn70 2.067 . S
O80 C78 1.270 . S
C81 O74 1.262 . S
C81 O82 1.232 . S
O82 C81 1.232 . S
C83 O75 1.260 . S
C83 O76 1.257 . S
Zn84 O87 2.031 . S
Zn84 O89 2.049 . S
Zn84 O94 2.067 . S
Zn85 O86 1.962 . S
Zn85 O88 1.986 . S
Zn85 O90 1.996 . S
Zn85 O93 1.943 . S
O86 Zn85 1.962 . S
O86 C91 1.254 . S
O87 Zn84 2.031 . S
O87 C91 1.269 . S
O88 Zn85 1.986 . S
O88 C95 1.262 . S
O89 Zn84 2.049 . S
O89 C97 1.260 . S
O90 Zn85 1.996 . S
O90 C97 1.257 . S
C91 O86 1.254 . S
C91 O87 1.269 . S
C92 O93 1.249 . S
C92 O94 1.270 . S
O93 Zn85 1.943 . S
O93 C92 1.249 . S
O94 Zn84 2.067 . S
O94 C92 1.270 . S
C95 O88 1.262 . S
C95 O96 1.232 . S
O96 C95 1.232 . S
C97 O89 1.260 . S
C97 O90 1.257 . S
Zn98 O101 2.033 . S
Zn98 O103 2.049 . S
Zn98 O108 2.067 . S
Zn99 O100 1.962 . S
Zn99 O102 1.986 . S
Zn99 O104 1.996 . S
Zn99 O107 1.943 . S
O100 Zn99 1.962 . S
O100 C105 1.254 . S
O101 Zn98 2.033 . S
O101 C105 1.273 . S
O102 Zn99 1.986 . S
O102 C109 1.262 . S
O103 Zn98 2.049 . S
O103 C111 1.260 . S
O104 Zn99 1.996 . S
O104 C111 1.257 . S
C105 O100 1.254 . S
C105 O101 1.273 . S
C106 O107 1.249 . S
C106 O108 1.270 . S
O107 Zn99 1.943 . S
O107 C106 1.249 . S
O108 Zn98 2.067 . S
O108 C106 1.270 . S
C109 O102 1.262 . S
C109 O110 1.232 . S
O110 C109 1.232 . S
C111 O103 1.260 . S
C111 O104 1.257 . S
C112 C113 1.391 . S
C112 C114 1.394 . S
C112 H128 0.931 . S
C113 C112 1.391 . S
C113 C117 1.376 . S
C114 C112 1.394 . S
C114 C115 1.369 . S
C114 C118 1.531 . S
C115 C114 1.369 . S
C115 C116 1.410 . S
C115 C123 1.503 1_554 S
C116 C115 1.410 . S
C116 C117 1.392 . S
C116 C119 1.511 . S
C117 C113 1.376 . S
C117 C116 1.392 . S
C117 H129 0.929 . S
C118 C114 1.531 . S
C118 H130 0.960 . S
C118 H131 0.962 . S
C118 H132 0.960 . S
C119 C116 1.511 . S
C119 H133 0.961 . S
C119 H134 0.961 1_554 S
C119 H135 0.961 . S
C120 C121 1.370 . S
C120 C122 1.363 . S
C120 H136 0.931 . S
C121 C120 1.370 . S
C121 C125 1.408 . S
C122 C120 1.363 . S
C122 C123 1.370 . S
C122 C126 1.524 . S
C123 C115 1.503 1_556 S
C123 C122 1.370 . S
C123 C124 1.403 . S
C124 C123 1.403 . S
C124 C125 1.404 . S
C124 C127 1.539 1_556 S
C125 C121 1.408 . S
C125 C124 1.404 . S
C125 H137 0.930 . S
C126 C122 1.524 . S
C126 H138 0.956 . S
C126 H139 0.961 . S
C126 H140 0.961 . S
C127 C124 1.539 1_554 S
C127 H141 0.958 . S
C127 H142 0.961 1_554 S
C127 H143 0.960 . S
H128 C112 0.931 . S
H129 C117 0.929 . S
H130 C118 0.960 . S
H131 C118 0.962 . S
H132 C118 0.960 . S
H133 C119 0.961 . S
H134 C119 0.961 1_556 S
H135 C119 0.961 . S
H136 C120 0.931 . S
H137 C125 0.930 . S
H138 C126 0.956 . S
H139 C126 0.961 . S
H140 C126 0.961 . S
H141 C127 0.958 . S
H142 C127 0.961 1_556 S
H143 C127 0.960 . S
C144 C145 1.391 . S
C144 C146 1.394 . S
C144 H160 0.931 . S
C145 C144 1.391 . S
C145 C149 1.376 . S
C146 C144 1.394 . S
C146 C147 1.369 . S
C146 C150 1.531 . S
C147 C146 1.369 . S
C147 C148 1.410 . S
C147 C155 1.503 . S
C148 C147 1.410 . S
C148 C149 1.392 . S
C148 C151 1.511 . S
C149 C145 1.376 . S
C149 C148 1.392 . S
C149 H161 0.929 . S
C150 C146 1.531 . S
C150 H162 0.960 . S
C150 H163 0.962 . S
C150 H164 0.960 . S
C151 C148 1.511 . S
C151 H165 0.961 . S
C151 H166 0.961 . S
C151 H167 0.961 . S
C152 C153 1.370 . S
C152 C154 1.363 . S
C152 H168 0.931 . S
C153 C152 1.370 . S
C153 C157 1.408 . S
C154 C152 1.363 . S
C154 C155 1.370 . S
C154 C158 1.524 . S
C155 C147 1.503 . S
C155 C154 1.370 . S
C155 C156 1.403 . S
C156 C155 1.403 . S
C156 C157 1.404 . S
C156 C159 1.539 . S
C157 C153 1.408 . S
C157 C156 1.404 . S
C157 H169 0.930 . S
C158 C154 1.524 . S
C158 H170 0.956 . S
C158 H171 0.961 . S
C158 H172 0.961 . S
C159 C156 1.539 . S
C159 H173 0.958 . S
C159 H174 0.961 . S
C159 H175 0.960 . S
H160 C144 0.931 . S
H161 C149 0.929 . S
H162 C150 0.960 . S
H163 C150 0.962 . S
H164 C150 0.960 . S
H165 C151 0.961 . S
H166 C151 0.961 . S
H167 C151 0.961 . S
H168 C152 0.931 . S
H169 C157 0.930 . S
H170 C158 0.956 . S
H171 C158 0.961 . S
H172 C158 0.961 . S
H173 C159 0.958 . S
H174 C159 0.961 . S
H175 C159 0.960 . S
C176 C177 1.391 . S
C176 C178 1.394 . S
C176 H192 0.931 . S
C177 C176 1.391 . S
C177 C181 1.376 . S
C178 C176 1.394 . S
C178 C179 1.369 . S
C178 C182 1.531 . S
C179 C178 1.369 . S
C179 C180 1.410 . S
C179 C187 1.503 1_554 S
C180 C179 1.410 . S
C180 C181 1.392 . S
C180 C183 1.511 1_554 S
C181 C177 1.376 . S
C181 C180 1.392 . S
C181 H193 0.929 . S
C182 C178 1.531 . S
C182 H194 0.960 . S
C182 H195 0.962 . S
C182 H196 0.960 . S
C183 C180 1.511 1_556 S
C183 H197 0.961 . S
C183 H198 0.961 . S
C183 H199 0.961 . S
C184 C185 1.370 . S
C184 C186 1.363 . S
C184 H200 0.931 . S
C185 C184 1.370 . S
C185 C189 1.408 . S
C186 C184 1.363 . S
C186 C187 1.370 . S
C186 C190 1.524 . S
C187 C179 1.503 1_556 S
C187 C186 1.370 . S
C187 C188 1.403 . S
C188 C187 1.403 . S
C188 C189 1.404 . S
C188 C191 1.539 . S
C189 C185 1.408 . S
C189 C188 1.404 . S
C189 H201 0.930 . S
C190 C186 1.524 . S
C190 H202 0.956 . S
C190 H203 0.961 . S
C190 H204 0.961 . S
C191 C188 1.539 . S
C191 H205 0.958 1_556 S
C191 H206 0.961 . S
C191 H207 0.960 1_556 S
H192 C176 0.931 . S
H193 C181 0.929 . S
H194 C182 0.960 . S
H195 C182 0.962 . S
H196 C182 0.960 . S
H197 C183 0.961 . S
H198 C183 0.961 . S
H199 C183 0.961 . S
H200 C184 0.931 . S
H201 C189 0.930 . S
H202 C190 0.956 . S
H203 C190 0.961 . S
H204 C190 0.961 . S
H205 C191 0.958 1_554 S
H206 C191 0.961 . S
H207 C191 0.960 1_554 S
C208 C209 1.391 . S
C208 C210 1.394 . S
C208 H224 0.931 . S
C209 C208 1.391 . S
C209 C213 1.376 . S
C210 C208 1.394 . S
C210 C211 1.369 . S
C210 C214 1.531 . S
C211 C210 1.369 . S
C211 C212 1.410 . S
C211 C219 1.503 . S
C212 C211 1.410 . S
C212 C213 1.392 . S
C212 C215 1.511 . S
C213 C209 1.376 . S
C213 C212 1.392 . S
C213 H225 0.929 . S
C214 C210 1.531 . S
C214 H226 0.960 . S
C214 H227 0.962 . S
C214 H228 0.960 . S
C215 C212 1.511 . S
C215 H229 0.961 . S
C215 H230 0.961 . S
C215 H231 0.961 . S
C216 C217 1.370 . S
C216 C218 1.363 . S
C216 H232 0.931 . S
C217 C216 1.370 . S
C217 C221 1.408 . S
C218 C216 1.363 . S
C218 C219 1.370 . S
C218 C222 1.524 . S
C219 C211 1.503 . S
C219 C218 1.370 . S
C219 C220 1.403 . S
C220 C219 1.403 . S
C220 C221 1.404 . S
C220 C223 1.539 . S
C221 C217 1.408 . S
C221 C220 1.404 . S
C221 H233 0.930 . S
C222 C218 1.524 . S
C222 H234 0.956 . S
C222 H235 0.961 . S
C222 H236 0.961 . S
C223 C220 1.539 . S
C223 H237 0.958 . S
C223 H238 0.961 . S
C223 H239 0.960 . S
H224 C208 0.931 . S
H225 C213 0.929 . S
H226 C214 0.960 . S
H227 C214 0.962 . S
H228 C214 0.960 . S
H229 C215 0.961 . S
H230 C215 0.961 . S
H231 C215 0.961 . S
H232 C216 0.931 . S
H233 C221 0.930 . S
H234 C222 0.956 . S
H235 C222 0.961 . S
H236 C222 0.961 . S
H237 C223 0.958 . S
H238 C223 0.961 . S
H239 C223 0.960 . S
C240 C241 1.391 . S
C240 C242 1.394 . S
C240 H256 0.931 . S
C241 C240 1.391 . S
C241 C245 1.376 . S
C242 C240 1.394 . S
C242 C243 1.369 . S
C242 C246 1.531 . S
C243 C242 1.369 . S
C243 C244 1.410 . S
C243 C251 1.503 . S
C244 C243 1.410 . S
C244 C245 1.392 . S
C244 C247 1.511 . S
C245 C241 1.376 . S
C245 C244 1.392 . S
C245 H257 0.929 . S
C246 C242 1.531 . S
C246 H258 0.960 . S
C246 H259 0.962 . S
C246 H260 0.960 . S
C247 C244 1.511 . S
C247 H261 0.961 . S
C247 H262 0.961 . S
C247 H263 0.961 . S
C248 C249 1.370 . S
C248 C250 1.363 . S
C248 H264 0.931 . S
C249 C248 1.370 . S
C249 C253 1.408 . S
C250 C248 1.363 . S
C250 C251 1.370 . S
C250 C254 1.524 . S
C251 C243 1.503 . S
C251 C250 1.370 . S
C251 C252 1.403 . S
C252 C251 1.403 . S
C252 C253 1.404 . S
C252 C255 1.539 . S
C253 C249 1.408 . S
C253 C252 1.404 . S
C253 H265 0.930 . S
C254 C250 1.524 . S
C254 H266 0.956 . S
C254 H267 0.961 . S
C254 H268 0.961 . S
C255 C252 1.539 . S
C255 H269 0.958 . S
C255 H270 0.961 . S
C255 H271 0.960 . S
H256 C240 0.931 . S
H257 C245 0.929 . S
H258 C246 0.960 . S
H259 C246 0.962 . S
H260 C246 0.960 . S
H261 C247 0.961 . S
H262 C247 0.961 . S
H263 C247 0.961 . S
H264 C248 0.931 . S
H265 C253 0.930 . S
H266 C254 0.956 . S
H267 C254 0.961 . S
H268 C254 0.961 . S
H269 C255 0.958 . S
H270 C255 0.961 . S
H271 C255 0.960 . S
C272 C273 1.391 . S
C272 C274 1.394 . S
C272 H288 0.931 . S
C273 C272 1.391 . S
C273 C277 1.376 . S
C274 C272 1.394 . S
C274 C275 1.369 . S
C274 C278 1.531 . S
C275 C274 1.369 . S
C275 C276 1.410 . S
C275 C283 1.503 . S
C276 C275 1.410 . S
C276 C277 1.392 . S
C276 C279 1.511 . S
C277 C273 1.376 . S
C277 C276 1.392 . S
C277 H289 0.929 . S
C278 C274 1.531 . S
C278 H290 0.960 . S
C278 H291 0.962 . S
C278 H292 0.960 . S
C279 C276 1.511 . S
C279 H293 0.961 . S
C279 H294 0.961 . S
C279 H295 0.961 . S
C280 C281 1.370 . S
C280 C282 1.363 . S
C280 H296 0.931 . S
C281 C280 1.370 . S
C281 C285 1.408 . S
C282 C280 1.363 . S
C282 C283 1.370 . S
C282 C286 1.524 . S
C283 C275 1.503 . S
C283 C282 1.370 . S
C283 C284 1.403 . S
C284 C283 1.403 . S
C284 C285 1.404 . S
C284 C287 1.539 . S
C285 C281 1.408 . S
C285 C284 1.404 . S
C285 H297 0.930 . S
C286 C282 1.524 . S
C286 H298 0.956 . S
C286 H299 0.961 . S
C286 H300 0.961 . S
C287 C284 1.539 . S
C287 H301 0.958 . S
C287 H302 0.961 . S
C287 H303 0.960 . S
H288 C272 0.931 . S
H289 C277 0.929 . S
H290 C278 0.960 . S
H291 C278 0.962 . S
H292 C278 0.960 . S
H293 C279 0.961 . S
H294 C279 0.961 . S
H295 C279 0.961 . S
H296 C280 0.931 . S
H297 C285 0.930 . S
H298 C286 0.956 . S
H299 C286 0.961 . S
H300 C286 0.961 . S
H301 C287 0.958 . S
H302 C287 0.961 . S
H303 C287 0.960 . S
C304 C305 1.391 . S
C304 C306 1.394 . S
C304 H320 0.931 . S
C305 C304 1.391 . S
C305 C309 1.376 . S
C306 C304 1.394 . S
C306 C307 1.369 . S
C306 C310 1.531 . S
C307 C306 1.369 . S
C307 C308 1.410 . S
C307 C315 1.503 . S
C308 C307 1.410 . S
C308 C309 1.392 . S
C308 C311 1.511 . S
C309 C305 1.376 . S
C309 C308 1.392 . S
C309 H321 0.929 . S
C310 C306 1.531 . S
C310 H322 0.960 . S
C310 H323 0.962 . S
C310 H324 0.960 . S
C311 C308 1.511 . S
C311 H325 0.961 . S
C311 H326 0.961 . S
C311 H327 0.961 . S
C312 C313 1.370 . S
C312 C314 1.363 . S
C312 H328 0.931 . S
C313 C312 1.370 . S
C313 C317 1.408 . S
C314 C312 1.363 . S
C314 C315 1.370 . S
C314 C318 1.524 . S
C315 C307 1.503 . S
C315 C314 1.370 . S
C315 C316 1.403 . S
C316 C315 1.403 . S
C316 C317 1.404 . S
C316 C319 1.539 . S
C317 C313 1.408 . S
C317 C316 1.404 . S
C317 H329 0.930 . S
C318 C314 1.524 . S
C318 H330 0.956 . S
C318 H331 0.961 . S
C318 H332 0.961 . S
C319 C316 1.539 . S
C319 H333 0.958 . S
C319 H334 0.961 . S
C319 H335 0.960 . S
H320 C304 0.931 . S
H321 C309 0.929 . S
H322 C310 0.960 . S
H323 C310 0.962 . S
H324 C310 0.960 . S
H325 C311 0.961 . S
H326 C311 0.961 . S
H327 C311 0.961 . S
H328 C312 0.931 . S
H329 C317 0.930 . S
H330 C318 0.956 . S
H331 C318 0.961 . S
H332 C318 0.961 . S
H333 C319 0.958 . S
H334 C319 0.961 . S
H335 C319 0.960 . S
C336 C337 1.391 . S
C336 C338 1.394 . S
C336 H352 0.931 . S
C337 C336 1.391 . S
C337 C341 1.376 . S
C338 C336 1.394 . S
C338 C339 1.369 . S
C338 C342 1.531 . S
C339 C338 1.369 . S
C339 C340 1.410 . S
C339 C347 1.503 . S
C340 C339 1.410 . S
C340 C341 1.392 . S
C340 C343 1.511 . S
C341 C337 1.376 . S
C341 C340 1.392 . S
C341 H353 0.929 . S
C342 C338 1.531 . S
C342 H354 0.960 . S
C342 H355 0.962 . S
C342 H356 0.960 . S
C343 C340 1.511 . S
C343 H357 0.961 . S
C343 H358 0.961 . S
C343 H359 0.961 . S
C344 C345 1.370 . S
C344 C346 1.363 . S
C344 H360 0.931 . S
C345 C344 1.370 . S
C345 C349 1.408 . S
C346 C344 1.363 . S
C346 C347 1.370 . S
C346 C350 1.524 . S
C347 C339 1.503 . S
C347 C346 1.370 . S
C347 C348 1.403 . S
C348 C347 1.403 . S
C348 C349 1.404 . S
C348 C351 1.539 . S
C349 C345 1.408 . S
C349 C348 1.404 . S
C349 H361 0.930 . S
C350 C346 1.524 . S
C350 H362 0.956 . S
C350 H363 0.961 . S
C350 H364 0.961 . S
C351 C348 1.539 . S
C351 H365 0.958 . S
C351 H366 0.961 . S
C351 H367 0.960 . S
H352 C336 0.931 . S
H353 C341 0.929 . S
H354 C342 0.960 . S
H355 C342 0.962 . S
H356 C342 0.960 . S
H357 C343 0.961 . S
H358 C343 0.961 . S
H359 C343 0.961 . S
H360 C344 0.931 . S
H361 C349 0.930 . S
H362 C350 0.956 . S
H363 C350 0.961 . S
H364 C350 0.961 . S
H365 C351 0.958 . S
H366 C351 0.961 . S
H367 C351 0.960 . S
C368 C369 1.391 . S
C368 C370 1.394 . S
C368 H384 0.931 . S
C369 C368 1.391 . S
C369 C373 1.376 . S
C370 C368 1.394 . S
C370 C371 1.369 . S
C370 C374 1.531 . S
C371 C370 1.369 . S
C371 C372 1.410 . S
C371 C379 1.503 . S
C372 C371 1.410 . S
C372 C373 1.392 . S
C372 C375 1.511 . S
C373 C369 1.376 . S
C373 C372 1.392 . S
C373 H385 0.929 . S
C374 C370 1.531 . S
C374 H386 0.960 . S
C374 H387 0.962 . S
C374 H388 0.960 . S
C375 C372 1.511 . S
C375 H389 0.961 . S
C375 H390 0.961 . S
C375 H391 0.961 . S
C376 C377 1.370 . S
C376 C378 1.363 . S
C376 H392 0.931 . S
C377 C376 1.370 . S
C377 C381 1.408 . S
C378 C376 1.363 . S
C378 C379 1.370 . S
C378 C382 1.524 . S
C379 C371 1.503 . S
C379 C378 1.370 . S
C379 C380 1.403 . S
C380 C379 1.403 . S
C380 C381 1.404 . S
C380 C383 1.539 . S
C381 C377 1.408 . S
C381 C380 1.404 . S
C381 H393 0.930 . S
C382 C378 1.524 . S
C382 H394 0.956 . S
C382 H395 0.961 . S
C382 H396 0.961 . S
C383 C380 1.539 . S
C383 H397 0.958 . S
C383 H398 0.961 . S
C383 H399 0.960 . S
H384 C368 0.931 . S
H385 C373 0.929 . S
H386 C374 0.960 . S
H387 C374 0.962 . S
H388 C374 0.960 . S
H389 C375 0.961 . S
H390 C375 0.961 . S
H391 C375 0.961 . S
H392 C376 0.931 . S
H393 C381 0.930 . S
H394 C382 0.956 . S
H395 C382 0.961 . S
H396 C382 0.961 . S
H397 C383 0.958 . S
H398 C383 0.961 . S
H399 C383 0.960 . S
C400 C401 1.391 . S
C400 C402 1.394 . S
C400 H416 0.931 . S
C401 C400 1.391 . S
C401 C405 1.376 . S
C402 C400 1.394 . S
C402 C403 1.369 . S
C402 C406 1.531 . S
C403 C402 1.369 . S
C403 C404 1.410 . S
C403 C411 1.503 . S
C404 C403 1.410 . S
C404 C405 1.392 . S
C404 C407 1.511 . S
C405 C401 1.376 . S
C405 C404 1.392 . S
C405 H417 0.929 . S
C406 C402 1.531 . S
C406 H418 0.960 . S
C406 H419 0.962 . S
C406 H420 0.960 . S
C407 C404 1.511 . S
C407 H421 0.961 . S
C407 H422 0.961 . S
C407 H423 0.961 . S
C408 C409 1.370 . S
C408 C410 1.363 . S
C408 H424 0.931 . S
C409 C408 1.370 . S
C409 C413 1.408 . S
C410 C408 1.363 . S
C410 C411 1.370 . S
C410 C414 1.524 . S
C411 C403 1.503 . S
C411 C410 1.370 . S
C411 C412 1.403 . S
C412 C411 1.403 . S
C412 C413 1.404 . S
C412 C415 1.539 . S
C413 C409 1.408 . S
C413 C412 1.404 . S
C413 H425 0.930 . S
C414 C410 1.524 . S
C414 H426 0.956 . S
C414 H427 0.961 . S
C414 H428 0.961 . S
C415 C412 1.539 . S
C415 H429 0.958 . S
C415 H430 0.961 . S
C415 H431 0.960 . S
H416 C400 0.931 . S
H417 C405 0.929 . S
H418 C406 0.960 . S
H419 C406 0.962 . S
H420 C406 0.960 . S
H421 C407 0.961 . S
H422 C407 0.961 . S
H423 C407 0.961 . S
H424 C408 0.931 . S
H425 C413 0.930 . S
H426 C414 0.956 . S
H427 C414 0.961 . S
H428 C414 0.961 . S
H429 C415 0.958 . S
H430 C415 0.961 . S
H431 C415 0.960 . S
C432 C433 1.391 . S
C432 C434 1.394 . S
C432 H448 0.931 . S
C433 C432 1.391 . S
C433 C437 1.376 . S
C434 C432 1.394 . S
C434 C435 1.369 . S
C434 C438 1.531 . S
C435 C434 1.369 . S
C435 C436 1.410 . S
C435 C443 1.503 . S
C436 C435 1.410 . S
C436 C437 1.392 . S
C436 C439 1.511 . S
C437 C433 1.376 . S
C437 C436 1.392 . S
C437 H449 0.929 . S
C438 C434 1.531 . S
C438 H450 0.960 . S
C438 H451 0.962 . S
C438 H452 0.960 . S
C439 C436 1.511 . S
C439 H453 0.961 . S
C439 H454 0.961 . S
C439 H455 0.961 . S
C440 C441 1.370 . S
C440 C442 1.363 . S
C440 H456 0.931 . S
C441 C440 1.370 . S
C441 C445 1.408 . S
C442 C440 1.363 . S
C442 C443 1.370 . S
C442 C446 1.524 . S
C443 C435 1.503 . S
C443 C442 1.370 . S
C443 C444 1.403 . S
C444 C443 1.403 . S
C444 C445 1.404 . S
C444 C447 1.539 . S
C445 C441 1.408 . S
C445 C444 1.404 . S
C445 H457 0.930 . S
C446 C442 1.524 . S
C446 H458 0.956 . S
C446 H459 0.961 . S
C446 H460 0.961 . S
C447 C444 1.539 . S
C447 H461 0.958 . S
C447 H462 0.961 . S
C447 H463 0.960 . S
H448 C432 0.931 . S
H449 C437 0.929 . S
H450 C438 0.960 . S
H451 C438 0.962 . S
H452 C438 0.960 . S
H453 C439 0.961 . S
H454 C439 0.961 . S
H455 C439 0.961 . S
H456 C440 0.931 . S
H457 C445 0.930 . S
H458 C446 0.956 . S
H459 C446 0.961 . S
H460 C446 0.961 . S
H461 C447 0.958 . S
H462 C447 0.961 . S
H463 C447 0.960 . S
C464 C465 1.391 . S
C464 C466 1.394 . S
C464 H480 0.931 . S
C465 C464 1.391 . S
C465 C469 1.376 . S
C466 C464 1.394 . S
C466 C467 1.369 . S
C466 C470 1.531 . S
C467 C466 1.369 . S
C467 C468 1.410 . S
C467 C475 1.503 . S
C468 C467 1.410 . S
C468 C469 1.392 . S
C468 C471 1.511 . S
C469 C465 1.376 . S
C469 C468 1.392 . S
C469 H481 0.929 . S
C470 C466 1.531 . S
C470 H482 0.960 . S
C470 H483 0.962 . S
C470 H484 0.960 . S
C471 C468 1.511 . S
C471 H485 0.961 . S
C471 H486 0.961 . S
C471 H487 0.961 . S
C472 C473 1.370 . S
C472 C474 1.363 . S
C472 H488 0.931 . S
C473 C472 1.370 . S
C473 C477 1.408 . S
C474 C472 1.363 . S
C474 C475 1.370 . S
C474 C478 1.524 . S
C475 C467 1.503 . S
C475 C474 1.370 . S
C475 C476 1.403 . S
C476 C475 1.403 . S
C476 C477 1.404 . S
C476 C479 1.539 . S
C477 C473 1.408 . S
C477 C476 1.404 . S
C477 H489 0.930 . S
C478 C474 1.524 . S
C478 H490 0.956 . S
C478 H491 0.961 . S
C478 H492 0.961 . S
C479 C476 1.539 . S
C479 H493 0.958 . S
C479 H494 0.961 . S
C479 H495 0.960 . S
H480 C464 0.931 . S
H481 C469 0.929 . S
H482 C470 0.960 . S
H483 C470 0.962 . S
H484 C470 0.960 . S
H485 C471 0.961 . S
H486 C471 0.961 . S
H487 C471 0.961 . S
H488 C472 0.931 . S
H489 C477 0.930 . S
H490 C478 0.956 . S
H491 C478 0.961 . S
H492 C478 0.961 . S
H493 C479 0.958 . S
H494 C479 0.961 . S
H495 C479 0.960 . S
C496 C497 1.391 . S
C496 C498 1.394 1_655 S
C496 H512 0.931 1_655 S
C497 C496 1.391 . S
C497 C501 1.376 . S
C498 C496 1.394 1_455 S
C498 C499 1.369 1_455 S
C498 C502 1.531 . S
C499 C498 1.369 1_655 S
C499 C500 1.410 . S
C499 C507 1.503 1_655 S
C500 C499 1.410 . S
C500 C501 1.392 . S
C500 C503 1.511 . S
C501 C497 1.376 . S
C501 C500 1.392 . S
C501 H513 0.929 . S
C502 C498 1.531 . S
C502 H514 0.960 . S
C502 H515 0.962 . S
C502 H516 0.960 . S
C503 C500 1.511 . S
C503 H517 0.961 . S
C503 H518 0.961 . S
C503 H519 0.961 . S
C504 C505 1.370 . S
C504 C506 1.363 . S
C504 H520 0.931 . S
C505 C504 1.370 . S
C505 C509 1.408 . S
C506 C504 1.363 . S
C506 C507 1.370 . S
C506 C510 1.524 . S
C507 C499 1.503 1_455 S
C507 C506 1.370 . S
C507 C508 1.403 . S
C508 C507 1.403 . S
C508 C509 1.404 . S
C508 C511 1.539 . S
C509 C505 1.408 . S
C509 C508 1.404 . S
C509 H521 0.930 . S
C510 C506 1.524 . S
C510 H522 0.956 . S
C510 H523 0.961 1_455 S
C510 H524 0.961 . S
C511 C508 1.539 . S
C511 H525 0.958 . S
C511 H526 0.961 1_455 S
C511 H527 0.960 1_455 S
H512 C496 0.931 1_455 S
H513 C501 0.929 . S
H514 C502 0.960 . S
H515 C502 0.962 . S
H516 C502 0.960 . S
H517 C503 0.961 . S
H518 C503 0.961 . S
H519 C503 0.961 . S
H520 C504 0.931 . S
H521 C509 0.930 . S
H522 C510 0.956 . S
H523 C510 0.961 1_655 S
H524 C510 0.961 . S
H525 C511 0.958 . S
H526 C511 0.961 1_655 S
H527 C511 0.960 1_655 S
C528 C529 1.391 . S
C528 C530 1.394 . S
C528 H544 0.931 . S
C529 C528 1.391 . S
C529 C533 1.376 . S
C530 C528 1.394 . S
C530 C531 1.369 . S
C530 C534 1.531 . S
C531 C530 1.369 . S
C531 C532 1.410 . S
C531 C539 1.503 1_655 S
C532 C531 1.410 . S
C532 C533 1.392 . S
C532 C535 1.511 . S
C533 C529 1.376 . S
C533 C532 1.392 . S
C533 H545 0.929 . S
C534 C530 1.531 . S
C534 H546 0.960 1_655 S
C534 H547 0.962 1_655 S
C534 H548 0.960 . S
C535 C532 1.511 . S
C535 H549 0.961 . S
C535 H550 0.961 . S
C535 H551 0.961 . S
C536 C537 1.370 . S
C536 C538 1.363 . S
C536 H552 0.931 . S
C537 C536 1.370 . S
C537 C541 1.408 . S
C538 C536 1.363 . S
C538 C539 1.370 . S
C538 C542 1.524 . S
C539 C531 1.503 1_455 S
C539 C538 1.370 . S
C539 C540 1.403 . S
C540 C539 1.403 . S
C540 C541 1.404 . S
C540 C543 1.539 1_455 S
C541 C537 1.408 . S
C541 C540 1.404 . S
C541 H553 0.930 . S
C542 C538 1.524 . S
C542 H554 0.956 . S
C542 H555 0.961 . S
C542 H556 0.961 . S
C543 C540 1.539 1_655 S
C543 H557 0.958 . S
C543 H558 0.961 . S
C543 H559 0.960 . S
H544 C528 0.931 . S
H545 C533 0.929 . S
H546 C534 0.960 1_455 S
H547 C534 0.962 1_455 S
H548 C534 0.960 . S
H549 C535 0.961 . S
H550 C535 0.961 . S
H551 C535 0.961 . S
H552 C536 0.931 . S
H553 C541 0.930 . S
H554 C542 0.956 . S
H555 C542 0.961 . S
H556 C542 0.961 . S
H557 C543 0.958 . S
H558 C543 0.961 . S
H559 C543 0.960 . S
C560 C561 1.391 . S
C560 C562 1.394 . S
C560 H576 0.931 . S
C561 C560 1.391 . S
C561 C565 1.376 . S
C562 C560 1.394 . S
C562 C563 1.369 . S
C562 C566 1.531 . S
C563 C562 1.369 . S
C563 C564 1.410 . S
C563 C571 1.503 1_545 S
C564 C563 1.410 . S
C564 C565 1.392 . S
C564 C567 1.511 1_545 S
C565 C561 1.376 . S
C565 C564 1.392 . S
C565 H577 0.929 . S
C566 C562 1.531 . S
C566 H578 0.960 . S
C566 H579 0.962 . S
C566 H580 0.960 . S
C567 C564 1.511 1_565 S
C567 H581 0.961 . S
C567 H582 0.961 . S
C567 H583 0.961 . S
C568 C569 1.370 . S
C568 C570 1.363 . S
C568 H584 0.931 . S
C569 C568 1.370 . S
C569 C573 1.408 . S
C570 C568 1.363 . S
C570 C571 1.370 . S
C570 C574 1.524 . S
C571 C563 1.503 1_565 S
C571 C570 1.370 . S
C571 C572 1.403 . S
C572 C571 1.403 . S
C572 C573 1.404 . S
C572 C575 1.539 . S
C573 C569 1.408 . S
C573 C572 1.404 . S
C573 H585 0.930 . S
C574 C570 1.524 . S
C574 H586 0.956 1_565 S
C574 H587 0.961 1_565 S
C574 H588 0.961 . S
C575 C572 1.539 . S
C575 H589 0.958 . S
C575 H590 0.961 . S
C575 H591 0.960 . S
H576 C560 0.931 . S
H577 C565 0.929 . S
H578 C566 0.960 . S
H579 C566 0.962 . S
H580 C566 0.960 . S
H581 C567 0.961 . S
H582 C567 0.961 . S
H583 C567 0.961 . S
H584 C568 0.931 . S
H585 C573 0.930 . S
H586 C574 0.956 1_545 S
H587 C574 0.961 1_545 S
H588 C574 0.961 . S
H589 C575 0.958 . S
H590 C575 0.961 . S
H591 C575 0.960 . S
C592 C593 1.391 . S
C592 C594 1.394 1_545 S
C592 H608 0.931 1_545 S
C593 C592 1.391 . S
C593 C597 1.376 . S
C594 C592 1.394 1_565 S
C594 C595 1.369 1_565 S
C594 C598 1.531 . S
C595 C594 1.369 1_545 S
C595 C596 1.410 . S
C595 C603 1.503 1_545 S
C596 C595 1.410 . S
C596 C597 1.392 . S
C596 C599 1.511 . S
C597 C593 1.376 . S
C597 C596 1.392 . S
C597 H609 0.929 . S
C598 C594 1.531 . S
C598 H610 0.960 . S
C598 H611 0.962 . S
C598 H612 0.960 . S
C599 C596 1.511 . S
C599 H613 0.961 . S
C599 H614 0.961 . S
C599 H615 0.961 . S
C600 C601 1.370 . S
C600 C602 1.363 . S
C600 H616 0.931 . S
C601 C600 1.370 . S
C601 C605 1.408 . S
C602 C600 1.363 . S
C602 C603 1.370 . S
C602 C606 1.524 . S
C603 C595 1.503 1_565 S
C603 C602 1.370 . S
C603 C604 1.403 . S
C604 C603 1.403 . S
C604 C605 1.404 . S
C604 C607 1.539 . S
C605 C601 1.408 . S
C605 C604 1.404 . S
C605 H617 0.930 . S
C606 C602 1.524 . S
C606 H618 0.956 . S
C606 H619 0.961 1_565 S
C606 H620 0.961 . S
C607 C604 1.539 . S
C607 H621 0.958 . S
C607 H622 0.962 1_565 S
C607 H623 0.960 1_565 S
H608 C592 0.931 1_565 S
H609 C597 0.929 . S
H610 C598 0.960 . S
H611 C598 0.962 . S
H612 C598 0.960 . S
H613 C599 0.961 . S
H614 C599 0.961 . S
H615 C599 0.961 . S
H616 C600 0.931 . S
H617 C605 0.930 . S
H618 C606 0.956 . S
H619 C606 0.961 1_545 S
H620 C606 0.961 . S
H621 C607 0.958 . S
H622 C607 0.962 1_545 S
H623 C607 0.960 1_545 S
C113 C13 1.332 . S
C121 C83 1.298 . S
C145 C27 1.279 . S
C153 C97 1.329 . S
C177 C41 1.301 . S
C185 C111 1.303 . S
C209 C69 1.304 . S
C217 C55 1.302 . S
C241 C11 1.440 . S
C249 C63 1.429 . S
C273 C25 1.459 . S
C281 C77 1.416 1_565 S
C305 C91 1.450 . S
C313 C39 1.456 . S
C337 C53 1.442 . S
C345 C105 1.435 1_545 S
C369 C67 1.440 . S
C377 C7 1.432 1_655 S
C401 C21 1.445 . S
C409 C81 1.452 . S
C433 C95 1.440 . S
C441 C35 1.432 1_455 S
C465 C49 1.450 . S
C473 C109 1.456 . S
C497 C36 0.868 . S
C505 C8 0.844 . S
C529 C50 0.793 . S
C537 C22 0.847 . S
C561 C64 0.874 . S
C569 C92 0.840 . S
C593 C78 0.867 . S
C601 C106 0.844 . S
