# Generated by pormake.
# Topology qtz-e, (6)-cn, num edge types: 1
# Building blocks:
#     Node 0, Type 0, BuildingBlock: CUWYAW_clean_sbu_0, # of connection points: 6
#     Node 1, Type 0, BuildingBlock: CUWYAW_clean_sbu_0, # of connection points: 6
#     Node 2, Type 0, BuildingBlock: CUWYAW_clean_sbu_0, # of connection points: 6
#     Node 3, Type 0, BuildingBlock: CUWYAW_clean_sbu_0, # of connection points: 6
#     Node 4, Type 0, BuildingBlock: CUWYAW_clean_sbu_0, # of connection points: 6
#     Node 5, Type 0, BuildingBlock: CUWYAW_clean_sbu_0, # of connection points: 6
#     Edge 6, Type (0, 0), BuildingBlock: EYOCIG_clean_linker_4, # of connection points: 2
#     Edge 7, Type (0, 0), BuildingBlock: EYOCIG_clean_linker_4, # of connection points: 2
#     Edge 8, Type (0, 0), BuildingBlock: EYOCIG_clean_linker_4, # of connection points: 2
#     Edge 9, Type (0, 0), BuildingBlock: EYOCIG_clean_linker_4, # of connection points: 2
#     Edge 10, Type (0, 0), BuildingBlock: EYOCIG_clean_linker_4, # of connection points: 2
#     Edge 11, Type (0, 0), BuildingBlock: EYOCIG_clean_linker_4, # of connection points: 2
#     Edge 12, Type (0, 0), BuildingBlock: EYOCIG_clean_linker_4, # of connection points: 2
#     Edge 13, Type (0, 0), BuildingBlock: EYOCIG_clean_linker_4, # of connection points: 2
#     Edge 14, Type (0, 0), BuildingBlock: EYOCIG_clean_linker_4, # of connection points: 2
#     Edge 15, Type (0, 0), BuildingBlock: EYOCIG_clean_linker_4, # of connection points: 2
#     Edge 16, Type (0, 0), BuildingBlock: EYOCIG_clean_linker_4, # of connection points: 2
#     Edge 17, Type (0, 0), BuildingBlock: EYOCIG_clean_linker_4, # of connection points: 2
#     Edge 18, Type (0, 0), BuildingBlock: EYOCIG_clean_linker_4, # of connection points: 2
#     Edge 19, Type (0, 0), BuildingBlock: EYOCIG_clean_linker_4, # of connection points: 2
#     Edge 20, Type (0, 0), BuildingBlock: EYOCIG_clean_linker_4, # of connection points: 2
#     Edge 21, Type (0, 0), BuildingBlock: EYOCIG_clean_linker_4, # of connection points: 2
#     Edge 22, Type (0, 0), BuildingBlock: EYOCIG_clean_linker_4, # of connection points: 2
#     Edge 23, Type (0, 0), BuildingBlock: EYOCIG_clean_linker_4, # of connection points: 2
# Relax obj value: 0.127
# Max RMSD: 0.208
# Mean RMSD: 0.208
data_MOF--net-qtz-e--node1-CUWYAW_clean_sbu_0--edge1-EYOCIG_clean_linker_4
_symmetry_space_group_name_H-M    P1
_symmetry_Int_Tables_number       1
_symmetry_cell_setting            triclinic
loop_
_symmetry_equiv_pos_as_xyz
'x, y, z'
_cell_length_a     20.535896
_cell_length_b     20.534424
_cell_length_c     45.193201
_cell_angle_alpha  89.32112
_cell_angle_beta   89.972737
_cell_angle_gamma 119.96694
loop_
_atom_site_label
_atom_site_type_symbol
_atom_site_fract_x
_atom_site_fract_y
_atom_site_fract_z
_atom_type_partial_charge
C0 C 0.15316 0.24502 0.98473 0.0
Eu1 Eu 0.14831 0.31528 0.03109 0.0
C2 C 0.15868 0.2061 0.95826 0.0
C3 C 0.09712 0.17093 0.93904 0.0
C4 C 0.10598 0.14923 0.9108 0.0
C5 C 0.17634 0.16212 0.90133 0.0
C6 C 0.23789 0.19594 0.92041 0.0
C7 C 0.22919 0.21795 0.94868 0.0
C8 C 0.05538 0.37313 0.0429 0.0
C9 C 0.23753 0.49251 1.00906 0.0
C10 C 0.21783 0.54934 0.11835 0.0
Eu11 Eu 0.21343 0.45484 0.07924 0.0
C12 C 0.21084 0.56744 0.14961 0.0
C13 C 0.27446 0.60324 0.16778 0.0
C14 C 0.26872 0.62623 0.19615 0.0
C15 C 0.19969 0.61413 0.20693 0.0
C16 C 0.13619 0.5809 0.18881 0.0
C17 C 0.14179 0.55763 0.16032 0.0
C18 C 0.30801 0.40263 0.06469 0.0
C19 C 0.12628 0.27721 0.09989 0.0
O20 O 0.21056 0.28099 1.00243 0.0
O21 O 0.08957 0.2374 0.9947 0.0
O22 O 0.03844 0.32057 0.02362 0.0
O23 O 0.11371 0.38294 0.05527 0.0
O24 O 0.20709 0.42026 1.00386 0.0
O25 O 0.24378 0.52188 0.03576 0.0
O26 O 0.15646 0.4997 0.10505 0.0
O27 O 0.27828 0.54816 0.10946 0.0
O28 O 0.3057 0.42942 0.09043 0.0
O29 O 0.25846 0.40416 0.04872 0.0
O30 O 0.14686 0.34805 0.10517 0.0
O31 O 0.12894 0.25001 0.07367 0.0
H32 H 0.04289 0.16365 0.9452 0.0
H33 H 0.05829 0.12436 0.89602 0.0
H34 H 0.29299 0.20736 0.91316 0.0
H35 H 0.27839 0.24731 0.96246 0.0
H36 H 0.32882 0.61362 0.16012 0.0
H37 H 0.31818 0.65218 0.21002 0.0
H38 H 0.08231 0.57142 0.19681 0.0
H39 H 0.09209 0.53216 0.14664 0.0
C40 C 0.89531 0.15808 0.31877 0.0
Eu41 Eu 0.81981 0.15466 0.36509 0.0
C42 C 0.94036 0.16456 0.29217 0.0
C43 C 0.91416 0.10351 0.27282 0.0
C44 C 0.94457 0.11328 0.24435 0.0
C45 C 0.00169 0.18403 0.23484 0.0
C46 C 0.02932 0.24503 0.25403 0.0
C47 C -0.00132 0.23546 0.2825 0.0
C48 C 0.66932 0.06086 0.37695 0.0
C49 C 0.73322 0.24395 0.34285 0.0
C50 C 0.65031 0.226 0.4497 0.0
Eu51 Eu 0.7432 0.21794 0.41282 0.0
C52 C 0.62992 0.21597 0.48163 0.0
C53 C 0.66126 0.2782 0.50047 0.0
C54 C 0.63476 0.27135 0.52939 0.0
C55 C 0.57692 0.20246 0.5401 0.0
C56 C 0.54634 0.1393 0.52194 0.0
C57 C 0.57303 0.14598 0.49287 0.0
C58 C 0.88943 0.31387 0.39792 0.0
C59 C 0.8359 0.13435 0.43431 0.0
O60 O 0.91745 0.21516 0.33662 0.0
O61 O 0.83841 0.09476 0.3287 0.0
O62 O 0.70528 0.04577 0.35701 0.0
O63 O 0.71761 0.11689 0.39037 0.0
O64 O 0.77468 0.21318 0.33744 0.0
O65 O 0.71056 0.25067 0.36954 0.0
O66 O 0.63435 0.16543 0.43479 0.0
O67 O 0.71434 0.28484 0.44152 0.0
O68 O 0.86021 0.31054 0.42393 0.0
O69 O 0.83902 0.2646 0.38194 0.0
O70 O 0.78455 0.15378 0.43993 0.0
O71 O 0.8654 0.13677 0.40784 0.0
H72 H 0.86733 0.04904 0.27905 0.0
H73 H 0.92194 0.06602 0.22947 0.0
H74 H 0.07287 0.30038 0.24674 0.0
H75 H 0.0183 0.28428 0.29639 0.0
H76 H 0.70506 0.33279 0.49269 0.0
H77 H 0.65918 0.32033 0.54341 0.0
H78 H 0.50201 0.08532 0.5301 0.0
H79 H 0.54784 0.09683 0.479 0.0
C80 C 0.72427 0.90104 0.65212 0.0
Eu81 Eu 0.65367 0.82492 0.69877 0.0
C82 C 0.763 0.94621 0.62548 0.0
C83 C 0.79809 0.92023 0.60597 0.0
C84 C 0.81979 0.9516 0.57762 0.0
C85 C 0.80689 0.00935 0.56842 0.0
C86 C 0.77258 0.03626 0.58767 0.0
C87 C 0.7505 0.00469 0.61604 0.0
C88 C 0.59787 0.67446 0.71114 0.0
C89 C 0.47904 0.73936 0.67629 0.0
C90 C 0.41012 0.6553 0.78263 0.0
Eu91 Eu 0.51307 0.74906 0.74638 0.0
C92 C 0.40044 0.63545 0.81456 0.0
C93 C 0.37051 0.6677 0.83356 0.0
C94 C 0.35137 0.64183 0.86264 0.0
C95 C 0.36201 0.58373 0.87331 0.0
C96 C 0.39452 0.55287 0.85506 0.0
C97 C 0.41403 0.57895 0.8258 0.0
C98 C 0.56435 0.89543 0.73188 0.0
C99 C 0.68858 0.84051 0.76792 0.0
O100 O 0.68739 0.92162 0.66983 0.0
O101 O 0.73336 0.84596 0.66237 0.0
O102 O 0.65163 0.71128 0.69197 0.0
O103 O 0.58593 0.72182 0.72301 0.0
O104 O 0.55155 0.77699 0.67071 0.0
O105 O 0.4488 0.7198 0.70314 0.0
O106 O 0.45441 0.6389 0.76746 0.0
O107 O 0.41598 0.71977 0.77462 0.0
O108 O 0.53923 0.86604 0.75807 0.0
O109 O 0.56312 0.84532 0.71561 0.0
O110 O 0.61771 0.78861 0.77351 0.0
O111 O 0.71603 0.87068 0.74142 0.0
H112 H 0.80533 0.87306 0.61202 0.0
H113 H 0.84487 0.92939 0.56261 0.0
H114 H 0.76104 0.08007 0.58053 0.0
H115 H 0.72077 0.02385 0.63004 0.0
H116 H 0.3598 0.71154 0.82578 0.0
H117 H 0.32704 0.66658 0.87675 0.0
H118 H 0.40402 0.50847 0.86321 0.0
H119 H 0.43774 0.55346 0.8118 0.0
C120 C 0.81245 0.74892 0.99052 0.0
Eu121 Eu 0.81165 0.6573 0.03173 0.0
C122 C 0.8024 0.76179 0.95865 0.0
C123 C 0.86439 0.79613 0.93909 0.0
C124 C 0.85645 0.81827 0.91048 0.0
C125 C 0.7867 0.80675 0.90096 0.0
C126 C 0.72434 0.7716 0.91996 0.0
C127 C 0.73209 0.7493 0.94855 0.0
C128 C 0.90341 0.5984 0.04252 0.0
C129 C 0.71341 0.48471 1.00913 0.0
C130 C 0.7509 0.42433 0.11724 0.0
Eu131 Eu 0.75347 0.51954 0.07808 0.0
C132 C 0.75688 0.41121 0.14914 0.0
C133 C 0.69255 0.37883 0.16746 0.0
C134 C 0.69626 0.35619 0.19629 0.0
C135 C 0.76399 0.3658 0.20731 0.0
C136 C 0.82874 0.39884 0.18956 0.0
C137 C 0.82521 0.42174 0.16062 0.0
C138 C 0.6506 0.55746 0.06587 0.0
C139 C 0.8433 0.69492 0.10029 0.0
O140 O 0.75277 0.7016 1.00577 0.0
O141 O 0.87328 0.74836 0.99902 0.0
O142 O 0.92925 0.66858 0.03488 0.0
O143 O 0.83331 0.56401 0.04126 0.0
O144 O 0.74274 0.5572 1.00383 0.0
O145 O 0.71634 0.45532 0.03507 0.0
O146 O 0.81204 0.47362 0.10315 0.0
O147 O 0.69036 0.42443 0.10813 0.0
O148 O 0.63511 0.49387 0.07798 0.0
O149 O 0.72094 0.604 0.06587 0.0
O150 O 0.81855 0.62291 0.10579 0.0
O151 O 0.84174 0.72284 0.07395 0.0
H152 H 0.91951 0.80771 0.94612 0.0
H153 H 0.90505 0.84528 0.89591 0.0
H154 H 0.6699 0.76218 0.91286 0.0
H155 H 0.68333 0.72417 0.96303 0.0
H156 H 0.63888 0.36922 0.15936 0.0
H157 H 0.64598 0.33077 0.21001 0.0
H158 H 0.88164 0.40682 0.19796 0.0
H159 H 0.8755 0.44594 0.14698 0.0
C160 C 0.06869 0.81432 0.31839 0.0
Eu161 Eu 0.14304 0.81743 0.36543 0.0
C162 C 0.02452 0.80935 0.29161 0.0
C163 C 0.0503 0.87153 0.27218 0.0
C164 C 0.01977 0.86328 0.24387 0.0
C165 C 0.96275 0.79302 0.23459 0.0
C166 C 0.93509 0.73103 0.25398 0.0
C167 C 0.9658 0.73909 0.28229 0.0
C168 C 0.29279 0.90865 0.37641 0.0
C169 C 0.21898 0.71813 0.34392 0.0
C170 C 0.30833 0.75736 0.4525 0.0
Eu171 Eu 0.21854 0.75857 0.41205 0.0
C172 C 0.33238 0.76304 0.48373 0.0
C173 C 0.30367 0.6984 0.50197 0.0
C174 C 0.3334 0.70206 0.53002 0.0
C175 C 0.39186 0.77005 0.54037 0.0
C176 C 0.42217 0.83458 0.52232 0.0
C177 C 0.39239 0.83106 0.49414 0.0
C178 C 0.08013 0.65559 0.39796 0.0
C179 C 0.12927 0.84727 0.43317 0.0
O180 O 0.0515 0.75484 0.33477 0.0
O181 O 0.12104 0.87784 0.32949 0.0
O182 O 0.24878 0.93471 0.36892 0.0
O183 O 0.25732 0.8386 0.37514 0.0
O184 O 0.17477 0.74607 0.33897 0.0
O185 O 0.25167 0.72284 0.36974 0.0
O186 O 0.31967 0.81847 0.43845 0.0
O187 O 0.24735 0.69672 0.44403 0.0
O188 O 0.12847 0.63974 0.40936 0.0
O189 O 0.10182 0.72536 0.3993 0.0
O190 O 0.17667 0.82281 0.43874 0.0
O191 O 0.10092 0.84591 0.40666 0.0
H192 H 0.09685 0.92574 0.27822 0.0
H193 H 0.04238 0.91135 0.22887 0.0
H194 H 0.89157 0.67604 0.24693 0.0
H195 H 0.94582 0.68958 0.29634 0.0
H196 H 0.25892 0.64469 0.49447 0.0
H197 H 0.31002 0.65179 0.54386 0.0
H198 H 0.46777 0.88755 0.53009 0.0
H199 H 0.41703 0.8813 0.48033 0.0
C200 C 0.24203 0.07497 0.6516 0.0
Eu201 Eu 0.31273 0.14896 0.6986 0.0
C202 C 0.20314 0.03087 0.6248 0.0
C203 C 0.16656 0.05633 0.60548 0.0
C204 C 0.14351 0.02498 0.57738 0.0
C205 C 0.15615 0.9674 0.5681 0.0
C206 C 0.19089 0.94026 0.58737 0.0
C207 C 0.21431 0.97179 0.61546 0.0
C208 C 0.37193 0.29847 0.7103 0.0
C209 C 0.4882 0.22523 0.6766 0.0
C210 C 0.53748 0.3128 0.78563 0.0
Eu211 Eu 0.4474 0.22362 0.7452 0.0
C212 C 0.55656 0.33793 0.81667 0.0
C213 C 0.59263 0.30966 0.83488 0.0
C214 C 0.61807 0.33949 0.86285 0.0
C215 C 0.60789 0.39771 0.87309 0.0
C216 C 0.57417 0.42807 0.855 0.0
C217 C 0.54856 0.39819 0.82691 0.0
C218 C 0.41092 0.085 0.73121 0.0
C219 C 0.2688 0.13502 0.76638 0.0
O220 O 0.28455 0.05803 0.66774 0.0
O221 O 0.23049 0.12701 0.66293 0.0
O222 O 0.3021 0.25536 0.70264 0.0
O223 O 0.40596 0.26248 0.70867 0.0
O224 O 0.41608 0.18227 0.67179 0.0
O225 O 0.51644 0.25645 0.7025 0.0
O226 O 0.48798 0.32427 0.77172 0.0
O227 O 0.53698 0.25163 0.77726 0.0
O228 O 0.47467 0.13249 0.74281 0.0
O229 O 0.36334 0.10746 0.73238 0.0
O230 O 0.34058 0.18202 0.77182 0.0
O231 O 0.242 0.10669 0.74002 0.0
H232 H 0.15906 0.10307 0.61146 0.0
H233 H 0.11777 0.04732 0.56254 0.0
H234 H 0.20197 0.89635 0.5804 0.0
H235 H 0.24389 0.9519 0.62936 0.0
H236 H 0.60179 0.26488 0.8275 0.0
H237 H 0.64458 0.3161 0.87676 0.0
H238 H 0.56629 0.47346 0.86271 0.0
H239 H 0.52305 0.42267 0.8131 0.0
C240 C 0.22347 0.66565 0.29314 0.0
C241 C 0.23135 0.68527 0.3185 0.0
C242 C 0.20564 0.64707 0.26317 0.0
C243 C 0.19522 0.63015 0.23749 0.0
C244 C 0.54367 0.22858 0.62544 0.0
C245 C 0.53307 0.23717 0.65092 0.0
C246 C 0.54474 0.20961 0.59567 0.0
C247 C 0.55337 0.19842 0.57029 0.0
C248 C 0.29541 0.5481 0.95811 0.0
C249 C 0.27391 0.53737 0.98345 0.0
C250 C 0.3188 0.54997 0.92863 0.0
C251 C 0.34052 0.55911 0.90338 0.0
C252 C 0.73336 0.30176 0.2924 0.0
C253 C 0.72414 0.2803 0.31766 0.0
C254 C 0.7533 0.3239 0.26277 0.0
C255 C 0.76559 0.34476 0.23744 0.0
C256 C 0.42368 0.74161 0.62573 0.0
C257 C 0.43501 0.73223 0.65104 0.0
C258 C 0.42248 0.76106 0.59593 0.0
C259 C 0.41438 0.77274 0.57049 0.0
C260 C 0.66173 0.42743 0.95869 0.0
C261 C 0.68087 0.43961 0.98399 0.0
C262 C 0.64357 0.42665 0.92878 0.0
C263 C 0.62561 0.41927 0.90327 0.0
C264 C 0.44805 0.47163 0.0471 0.0
C265 C 0.38153 0.43347 0.05186 0.0
C266 C 0.52521 0.52662 0.04583 0.0
C267 C 0.5915 0.56153 0.05105 0.0
C268 C -0.01603 0.53111 0.37842 0.0
C269 C 0.01609 0.59717 0.38375 0.0
C270 C 0.96102 0.4539 0.37992 0.0
C271 C 0.93177 0.38749 0.38504 0.0
C272 C 0.4391 -0.01223 0.71299 0.0
C273 C 0.40486 0.02006 0.71768 0.0
C274 C 0.49381 0.96545 0.71474 0.0
C275 C 0.5316 0.93683 0.71956 0.0
C276 C 0.50608 0.52609 0.71438 0.0
C277 C 0.54844 0.5936 0.71265 0.0
C278 C 0.45363 0.4472 0.7143 0.0
C279 C 0.41166 0.37979 0.7123 0.0
C280 C -0.00059 0.46566 0.04579 0.0
C281 C 0.02452 0.42318 0.04432 0.0
C282 C 0.97221 0.51767 0.04575 0.0
C283 C 0.94581 0.55911 0.04408 0.0
C284 C 0.4419 0.97763 0.37918 0.0
C285 C 0.3742 0.95103 0.37772 0.0
C286 C 0.52102 0.00525 0.37934 0.0
C287 C 0.5886 0.03054 0.37822 0.0
C288 C 0.20013 0.11496 0.81662 0.0
C289 C 0.2205 0.11594 0.79158 0.0
C290 C 0.19046 0.12726 0.8465 0.0
C291 C 0.18536 0.1436 0.87156 0.0
C292 C 0.05116 0.19975 0.17985 0.0
C293 C 0.0295 0.19393 0.20499 0.0
C294 C 0.07467 0.20941 0.1501 0.0
C295 C 0.09585 0.2291 0.1251 0.0
C296 C 0.84393 0.06108 0.51378 0.0
C297 C 0.82655 0.03845 0.53879 0.0
C298 C 0.85725 0.08493 0.48407 0.0
C299 C 0.85604 0.10555 0.45924 0.0
C300 C 0.76068 0.86249 0.81736 0.0
C301 C 0.73734 0.86045 0.79279 0.0
C302 C 0.77352 0.84916 0.84684 0.0
C303 C 0.77924 0.82975 0.87151 0.0
C304 C 0.91437 0.77841 0.17955 0.0
C305 C 0.93593 0.78433 0.20467 0.0
C306 C 0.89186 0.76601 0.14977 0.0
C307 C 0.87206 0.74301 0.12518 0.0
C308 C 0.12025 0.9173 0.51328 0.0
C309 C 0.13694 0.93944 0.5383 0.0
C310 C 0.10831 0.89497 0.48336 0.0
C311 C 0.10981 0.87588 0.45836 0.0
loop_
_geom_bond_atom_site_label_1
_geom_bond_atom_site_label_2
_geom_bond_distance
_geom_bond_site_symmetry_2
_ccdc_geom_bond_type
C0 Eu1 2.835 1_556 S
C0 C2 1.500 . S
C0 O20 1.257 . S
C0 O21 1.260 . S
Eu1 C0 2.835 1_554 S
Eu1 O20 2.473 1_554 S
Eu1 O21 2.480 1_554 S
Eu1 O22 2.430 . S
Eu1 O23 2.670 . S
Eu1 O24 2.394 1_554 S
Eu1 O29 2.355 . S
Eu1 O31 2.374 . S
C2 C0 1.500 . S
C2 C3 1.377 . S
C2 C7 1.377 . S
C3 C2 1.377 . S
C3 C4 1.395 . S
C3 H32 0.931 . S
C4 C3 1.395 . S
C4 C5 1.383 . S
C4 H33 0.931 . S
C5 C4 1.383 . S
C5 C6 1.394 . S
C6 C5 1.394 . S
C6 C7 1.378 . S
C6 H34 0.931 . S
C7 C2 1.377 . S
C7 C6 1.378 . S
C7 H35 0.931 . S
C8 O22 1.259 . S
C8 O23 1.270 . S
C9 O24 1.251 . S
C9 O25 1.251 1_556 S
C10 Eu11 2.835 . S
C10 C12 1.500 . S
C10 O26 1.257 . S
C10 O27 1.260 . S
Eu11 C10 2.835 . S
Eu11 O23 2.355 . S
Eu11 O25 2.374 . S
Eu11 O26 2.473 . S
Eu11 O27 2.480 . S
Eu11 O28 2.430 . S
Eu11 O29 2.670 . S
Eu11 O30 2.394 . S
C12 C10 1.500 . S
C12 C13 1.377 . S
C12 C17 1.377 . S
C13 C12 1.377 . S
C13 C14 1.395 . S
C13 H36 0.931 . S
C14 C13 1.395 . S
C14 C15 1.383 . S
C14 H37 0.931 . S
C15 C14 1.383 . S
C15 C16 1.394 . S
C16 C15 1.394 . S
C16 C17 1.378 . S
C16 H38 0.931 . S
C17 C12 1.377 . S
C17 C16 1.378 . S
C17 H39 0.931 . S
C18 O28 1.259 . S
C18 O29 1.270 . S
C19 O30 1.251 . S
C19 O31 1.251 . S
O20 C0 1.257 . S
O20 Eu1 2.473 1_556 S
O21 C0 1.260 . S
O21 Eu1 2.480 1_556 S
O22 Eu1 2.430 . S
O22 C8 1.259 . S
O23 Eu1 2.670 . S
O23 C8 1.270 . S
O23 Eu11 2.355 . S
O24 Eu1 2.394 1_556 S
O24 C9 1.251 . S
O25 C9 1.251 1_554 S
O25 Eu11 2.374 . S
O26 C10 1.257 . S
O26 Eu11 2.473 . S
O27 C10 1.260 . S
O27 Eu11 2.480 . S
O28 Eu11 2.430 . S
O28 C18 1.259 . S
O29 Eu1 2.355 . S
O29 Eu11 2.670 . S
O29 C18 1.270 . S
O30 Eu11 2.394 . S
O30 C19 1.251 . S
O31 Eu1 2.374 . S
O31 C19 1.251 . S
H32 C3 0.931 . S
H33 C4 0.931 . S
H34 C6 0.931 . S
H35 C7 0.931 . S
H36 C13 0.931 . S
H37 C14 0.931 . S
H38 C16 0.931 . S
H39 C17 0.931 . S
C40 Eu41 2.835 . S
C40 C42 1.500 . S
C40 O60 1.257 . S
C40 O61 1.260 . S
Eu41 C40 2.835 . S
Eu41 O60 2.473 . S
Eu41 O61 2.480 . S
Eu41 O62 2.430 . S
Eu41 O63 2.670 . S
Eu41 O64 2.394 . S
Eu41 O69 2.355 . S
Eu41 O71 2.374 . S
C42 C40 1.500 . S
C42 C43 1.377 . S
C42 C47 1.377 1_655 S
C43 C42 1.377 . S
C43 C44 1.395 . S
C43 H72 0.931 . S
C44 C43 1.395 . S
C44 C45 1.383 1_655 S
C44 H73 0.931 . S
C45 C44 1.383 1_455 S
C45 C46 1.394 . S
C46 C45 1.394 . S
C46 C47 1.378 . S
C46 H74 0.931 . S
C47 C42 1.377 1_455 S
C47 C46 1.378 . S
C47 H75 0.931 . S
C48 O62 1.259 . S
C48 O63 1.270 . S
C49 O64 1.251 . S
C49 O65 1.251 . S
C50 Eu51 2.835 . S
C50 C52 1.500 . S
C50 O66 1.257 . S
C50 O67 1.260 . S
Eu51 C50 2.835 . S
Eu51 O63 2.355 . S
Eu51 O65 2.374 . S
Eu51 O66 2.473 . S
Eu51 O67 2.480 . S
Eu51 O68 2.430 . S
Eu51 O69 2.670 . S
Eu51 O70 2.394 . S
C52 C50 1.500 . S
C52 C53 1.377 . S
C52 C57 1.377 . S
C53 C52 1.377 . S
C53 C54 1.395 . S
C53 H76 0.931 . S
C54 C53 1.395 . S
C54 C55 1.383 . S
C54 H77 0.931 . S
C55 C54 1.383 . S
C55 C56 1.394 . S
C56 C55 1.394 . S
C56 C57 1.378 . S
C56 H78 0.931 . S
C57 C52 1.377 . S
C57 C56 1.378 . S
C57 H79 0.931 . S
C58 O68 1.259 . S
C58 O69 1.270 . S
C59 O70 1.251 . S
C59 O71 1.251 . S
O60 C40 1.257 . S
O60 Eu41 2.473 . S
O61 C40 1.260 . S
O61 Eu41 2.480 . S
O62 Eu41 2.430 . S
O62 C48 1.259 . S
O63 Eu41 2.670 . S
O63 C48 1.270 . S
O63 Eu51 2.355 . S
O64 Eu41 2.394 . S
O64 C49 1.251 . S
O65 C49 1.251 . S
O65 Eu51 2.374 . S
O66 C50 1.257 . S
O66 Eu51 2.473 . S
O67 C50 1.260 . S
O67 Eu51 2.480 . S
O68 Eu51 2.430 . S
O68 C58 1.259 . S
O69 Eu41 2.355 . S
O69 Eu51 2.670 . S
O69 C58 1.270 . S
O70 Eu51 2.394 . S
O70 C59 1.251 . S
O71 Eu41 2.374 . S
O71 C59 1.251 . S
H72 C43 0.931 . S
H73 C44 0.931 . S
H74 C46 0.931 . S
H75 C47 0.931 . S
H76 C53 0.931 . S
H77 C54 0.931 . S
H78 C56 0.931 . S
H79 C57 0.931 . S
C80 Eu81 2.835 . S
C80 C82 1.500 . S
C80 O100 1.257 . S
C80 O101 1.260 . S
Eu81 C80 2.835 . S
Eu81 O100 2.473 . S
Eu81 O101 2.480 . S
Eu81 O102 2.430 . S
Eu81 O103 2.670 . S
Eu81 O104 2.394 . S
Eu81 O109 2.355 . S
Eu81 O111 2.374 . S
C82 C80 1.500 . S
C82 C83 1.377 . S
C82 C87 1.377 1_565 S
C83 C82 1.377 . S
C83 C84 1.395 . S
C83 H112 0.931 . S
C84 C83 1.395 . S
C84 C85 1.383 1_565 S
C84 H113 0.931 . S
C85 C84 1.383 1_545 S
C85 C86 1.394 . S
C86 C85 1.394 . S
C86 C87 1.378 . S
C86 H114 0.931 . S
C87 C82 1.377 1_545 S
C87 C86 1.378 . S
C87 H115 0.931 . S
C88 O102 1.259 . S
C88 O103 1.270 . S
C89 O104 1.251 . S
C89 O105 1.251 . S
C90 Eu91 2.835 . S
C90 C92 1.500 . S
C90 O106 1.257 . S
C90 O107 1.260 . S
Eu91 C90 2.835 . S
Eu91 O103 2.355 . S
Eu91 O105 2.374 . S
Eu91 O106 2.473 . S
Eu91 O107 2.480 . S
Eu91 O108 2.430 . S
Eu91 O109 2.670 . S
Eu91 O110 2.394 . S
C92 C90 1.500 . S
C92 C93 1.377 . S
C92 C97 1.377 . S
C93 C92 1.377 . S
C93 C94 1.395 . S
C93 H116 0.931 . S
C94 C93 1.395 . S
C94 C95 1.383 . S
C94 H117 0.931 . S
C95 C94 1.383 . S
C95 C96 1.394 . S
C96 C95 1.394 . S
C96 C97 1.378 . S
C96 H118 0.931 . S
C97 C92 1.377 . S
C97 C96 1.378 . S
C97 H119 0.931 . S
C98 O108 1.259 . S
C98 O109 1.270 . S
C99 O110 1.251 . S
C99 O111 1.251 . S
O100 C80 1.257 . S
O100 Eu81 2.473 . S
O101 C80 1.260 . S
O101 Eu81 2.480 . S
O102 Eu81 2.430 . S
O102 C88 1.259 . S
O103 Eu81 2.670 . S
O103 C88 1.270 . S
O103 Eu91 2.355 . S
O104 Eu81 2.394 . S
O104 C89 1.251 . S
O105 C89 1.251 . S
O105 Eu91 2.374 . S
O106 C90 1.257 . S
O106 Eu91 2.473 . S
O107 C90 1.260 . S
O107 Eu91 2.480 . S
O108 Eu91 2.430 . S
O108 C98 1.259 . S
O109 Eu81 2.355 . S
O109 Eu91 2.670 . S
O109 C98 1.270 . S
O110 Eu91 2.394 . S
O110 C99 1.251 . S
O111 Eu81 2.374 . S
O111 C99 1.251 . S
H112 C83 0.931 . S
H113 C84 0.931 . S
H114 C86 0.931 . S
H115 C87 0.931 . S
H116 C93 0.931 . S
H117 C94 0.931 . S
H118 C96 0.931 . S
H119 C97 0.931 . S
C120 Eu121 2.835 1_556 S
C120 C122 1.500 . S
C120 O140 1.257 . S
C120 O141 1.260 . S
Eu121 C120 2.835 1_554 S
Eu121 O140 2.473 1_554 S
Eu121 O141 2.480 1_554 S
Eu121 O142 2.430 . S
Eu121 O143 2.670 . S
Eu121 O144 2.394 1_554 S
Eu121 O149 2.355 . S
Eu121 O151 2.374 . S
C122 C120 1.500 . S
C122 C123 1.377 . S
C122 C127 1.377 . S
C123 C122 1.377 . S
C123 C124 1.395 . S
C123 H152 0.931 . S
C124 C123 1.395 . S
C124 C125 1.383 . S
C124 H153 0.931 . S
C125 C124 1.383 . S
C125 C126 1.394 . S
C126 C125 1.394 . S
C126 C127 1.378 . S
C126 H154 0.931 . S
C127 C122 1.377 . S
C127 C126 1.378 . S
C127 H155 0.931 . S
C128 O142 1.259 . S
C128 O143 1.270 . S
C129 O144 1.251 . S
C129 O145 1.251 1_556 S
C130 Eu131 2.835 . S
C130 C132 1.500 . S
C130 O146 1.257 . S
C130 O147 1.260 . S
Eu131 C130 2.835 . S
Eu131 O143 2.355 . S
Eu131 O145 2.374 . S
Eu131 O146 2.473 . S
Eu131 O147 2.480 . S
Eu131 O148 2.430 . S
Eu131 O149 2.670 . S
Eu131 O150 2.394 . S
C132 C130 1.500 . S
C132 C133 1.377 . S
C132 C137 1.377 . S
C133 C132 1.377 . S
C133 C134 1.395 . S
C133 H156 0.931 . S
C134 C133 1.395 . S
C134 C135 1.383 . S
C134 H157 0.931 . S
C135 C134 1.383 . S
C135 C136 1.394 . S
C136 C135 1.394 . S
C136 C137 1.378 . S
C136 H158 0.931 . S
C137 C132 1.377 . S
C137 C136 1.378 . S
C137 H159 0.931 . S
C138 O148 1.259 . S
C138 O149 1.270 . S
C139 O150 1.251 . S
C139 O151 1.251 . S
O140 C120 1.257 . S
O140 Eu121 2.473 1_556 S
O141 C120 1.260 . S
O141 Eu121 2.480 1_556 S
O142 Eu121 2.430 . S
O142 C128 1.259 . S
O143 Eu121 2.670 . S
O143 C128 1.270 . S
O143 Eu131 2.355 . S
O144 Eu121 2.394 1_556 S
O144 C129 1.251 . S
O145 C129 1.251 1_554 S
O145 Eu131 2.374 . S
O146 C130 1.257 . S
O146 Eu131 2.473 . S
O147 C130 1.260 . S
O147 Eu131 2.480 . S
O148 Eu131 2.430 . S
O148 C138 1.259 . S
O149 Eu121 2.355 . S
O149 Eu131 2.670 . S
O149 C138 1.270 . S
O150 Eu131 2.394 . S
O150 C139 1.251 . S
O151 Eu121 2.374 . S
O151 C139 1.251 . S
H152 C123 0.931 . S
H153 C124 0.931 . S
H154 C126 0.931 . S
H155 C127 0.931 . S
H156 C133 0.931 . S
H157 C134 0.931 . S
H158 C136 0.931 . S
H159 C137 0.931 . S
C160 Eu161 2.835 . S
C160 C162 1.500 . S
C160 O180 1.257 . S
C160 O181 1.260 . S
Eu161 C160 2.835 . S
Eu161 O180 2.473 . S
Eu161 O181 2.480 . S
Eu161 O182 2.430 . S
Eu161 O183 2.670 . S
Eu161 O184 2.394 . S
Eu161 O189 2.355 . S
Eu161 O191 2.374 . S
C162 C160 1.500 . S
C162 C163 1.377 . S
C162 C167 1.377 1_455 S
C163 C162 1.377 . S
C163 C164 1.395 . S
C163 H192 0.931 . S
C164 C163 1.395 . S
C164 C165 1.383 1_455 S
C164 H193 0.931 . S
C165 C164 1.383 1_655 S
C165 C166 1.394 . S
C166 C165 1.394 . S
C166 C167 1.378 . S
C166 H194 0.931 . S
C167 C162 1.377 1_655 S
C167 C166 1.378 . S
C167 H195 0.931 . S
C168 O182 1.259 . S
C168 O183 1.270 . S
C169 O184 1.251 . S
C169 O185 1.251 . S
C170 Eu171 2.835 . S
C170 C172 1.500 . S
C170 O186 1.257 . S
C170 O187 1.260 . S
Eu171 C170 2.835 . S
Eu171 O183 2.355 . S
Eu171 O185 2.374 . S
Eu171 O186 2.473 . S
Eu171 O187 2.480 . S
Eu171 O188 2.430 . S
Eu171 O189 2.670 . S
Eu171 O190 2.394 . S
C172 C170 1.500 . S
C172 C173 1.377 . S
C172 C177 1.377 . S
C173 C172 1.377 . S
C173 C174 1.395 . S
C173 H196 0.931 . S
C174 C173 1.395 . S
C174 C175 1.383 . S
C174 H197 0.931 . S
C175 C174 1.383 . S
C175 C176 1.394 . S
C176 C175 1.394 . S
C176 C177 1.378 . S
C176 H198 0.931 . S
C177 C172 1.377 . S
C177 C176 1.378 . S
C177 H199 0.931 . S
C178 O188 1.259 . S
C178 O189 1.270 . S
C179 O190 1.251 . S
C179 O191 1.251 . S
O180 C160 1.257 . S
O180 Eu161 2.473 . S
O181 C160 1.260 . S
O181 Eu161 2.480 . S
O182 Eu161 2.430 . S
O182 C168 1.259 . S
O183 Eu161 2.670 . S
O183 C168 1.270 . S
O183 Eu171 2.355 . S
O184 Eu161 2.394 . S
O184 C169 1.251 . S
O185 C169 1.251 . S
O185 Eu171 2.374 . S
O186 C170 1.257 . S
O186 Eu171 2.473 . S
O187 C170 1.260 . S
O187 Eu171 2.480 . S
O188 Eu171 2.430 . S
O188 C178 1.259 . S
O189 Eu161 2.355 . S
O189 Eu171 2.670 . S
O189 C178 1.270 . S
O190 Eu171 2.394 . S
O190 C179 1.251 . S
O191 Eu161 2.374 . S
O191 C179 1.251 . S
H192 C163 0.931 . S
H193 C164 0.931 . S
H194 C166 0.931 . S
H195 C167 0.931 . S
H196 C173 0.931 . S
H197 C174 0.931 . S
H198 C176 0.931 . S
H199 C177 0.931 . S
C200 Eu201 2.835 . S
C200 C202 1.500 . S
C200 O220 1.257 . S
C200 O221 1.260 . S
Eu201 C200 2.835 . S
Eu201 O220 2.473 . S
Eu201 O221 2.480 . S
Eu201 O222 2.430 . S
Eu201 O223 2.670 . S
Eu201 O224 2.394 . S
Eu201 O229 2.355 . S
Eu201 O231 2.374 . S
C202 C200 1.500 . S
C202 C203 1.377 . S
C202 C207 1.377 1_545 S
C203 C202 1.377 . S
C203 C204 1.395 . S
C203 H232 0.931 . S
C204 C203 1.395 . S
C204 C205 1.383 1_545 S
C204 H233 0.931 . S
C205 C204 1.383 1_565 S
C205 C206 1.394 . S
C206 C205 1.394 . S
C206 C207 1.378 . S
C206 H234 0.931 . S
C207 C202 1.377 1_565 S
C207 C206 1.378 . S
C207 H235 0.931 . S
C208 O222 1.259 . S
C208 O223 1.270 . S
C209 O224 1.251 . S
C209 O225 1.251 . S
C210 Eu211 2.835 . S
C210 C212 1.500 . S
C210 O226 1.257 . S
C210 O227 1.260 . S
Eu211 C210 2.835 . S
Eu211 O223 2.355 . S
Eu211 O225 2.374 . S
Eu211 O226 2.473 . S
Eu211 O227 2.480 . S
Eu211 O228 2.430 . S
Eu211 O229 2.670 . S
Eu211 O230 2.394 . S
C212 C210 1.500 . S
C212 C213 1.377 . S
C212 C217 1.377 . S
C213 C212 1.377 . S
C213 C214 1.395 . S
C213 H236 0.931 . S
C214 C213 1.395 . S
C214 C215 1.383 . S
C214 H237 0.931 . S
C215 C214 1.383 . S
C215 C216 1.394 . S
C216 C215 1.394 . S
C216 C217 1.378 . S
C216 H238 0.931 . S
C217 C212 1.377 . S
C217 C216 1.378 . S
C217 H239 0.931 . S
C218 O228 1.259 . S
C218 O229 1.270 . S
C219 O230 1.251 . S
C219 O231 1.251 . S
O220 C200 1.257 . S
O220 Eu201 2.473 . S
O221 C200 1.260 . S
O221 Eu201 2.480 . S
O222 Eu201 2.430 . S
O222 C208 1.259 . S
O223 Eu201 2.670 . S
O223 C208 1.270 . S
O223 Eu211 2.355 . S
O224 Eu201 2.394 . S
O224 C209 1.251 . S
O225 C209 1.251 . S
O225 Eu211 2.374 . S
O226 C210 1.257 . S
O226 Eu211 2.473 . S
O227 C210 1.260 . S
O227 Eu211 2.480 . S
O228 Eu211 2.430 . S
O228 C218 1.259 . S
O229 Eu201 2.355 . S
O229 Eu211 2.670 . S
O229 C218 1.270 . S
O230 Eu211 2.394 . S
O230 C219 1.251 . S
O231 Eu201 2.374 . S
O231 C219 1.251 . S
H232 C203 0.931 . S
H233 C204 0.931 . S
H234 C206 0.931 . S
H235 C207 0.931 . S
H236 C213 0.931 . S
H237 C214 0.931 . S
H238 C216 0.931 . S
H239 C217 0.931 . S
C240 C241 1.170 . S
C240 C242 1.380 . S
C241 C240 1.170 . S
C242 C240 1.380 . S
C242 C243 1.170 . S
C243 C242 1.170 . S
C244 C245 1.170 . S
C244 C246 1.380 . S
C245 C244 1.170 . S
C246 C244 1.380 . S
C246 C247 1.170 . S
C247 C246 1.170 . S
C248 C249 1.170 . S
C248 C250 1.380 . S
C249 C248 1.170 . S
C250 C248 1.380 . S
C250 C251 1.170 . S
C251 C250 1.170 . S
C252 C253 1.170 . S
C252 C254 1.380 . S
C253 C252 1.170 . S
C254 C252 1.380 . S
C254 C255 1.170 . S
C255 C254 1.170 . S
C256 C257 1.170 . S
C256 C258 1.380 . S
C257 C256 1.170 . S
C258 C256 1.380 . S
C258 C259 1.170 . S
C259 C258 1.170 . S
C260 C261 1.170 . S
C260 C262 1.380 . S
C261 C260 1.170 . S
C262 C260 1.380 . S
C262 C263 1.170 . S
C263 C262 1.170 . S
C264 C265 1.170 . S
C264 C266 1.380 . S
C265 C264 1.170 . S
C266 C264 1.380 . S
C266 C267 1.170 . S
C267 C266 1.170 . S
C268 C269 1.170 . S
C268 C270 1.380 1_455 S
C269 C268 1.170 . S
C270 C268 1.380 1_655 S
C270 C271 1.170 . S
C271 C270 1.170 . S
C272 C273 1.170 . S
C272 C274 1.380 1_545 S
C273 C272 1.170 . S
C274 C272 1.380 1_565 S
C274 C275 1.170 . S
C275 C274 1.170 . S
C276 C277 1.170 . S
C276 C278 1.380 . S
C277 C276 1.170 . S
C278 C276 1.380 . S
C278 C279 1.170 . S
C279 C278 1.170 . S
C280 C281 1.170 . S
C280 C282 1.380 1_455 S
C281 C280 1.170 . S
C282 C280 1.380 1_655 S
C282 C283 1.170 . S
C283 C282 1.170 . S
C284 C285 1.170 . S
C284 C286 1.380 1_565 S
C285 C284 1.170 . S
C286 C284 1.380 1_545 S
C286 C287 1.170 . S
C287 C286 1.170 . S
C288 C289 1.170 . S
C288 C290 1.380 . S
C289 C288 1.170 . S
C290 C288 1.380 . S
C290 C291 1.170 . S
C291 C290 1.170 . S
C292 C293 1.170 . S
C292 C294 1.380 . S
C293 C292 1.170 . S
C294 C292 1.380 . S
C294 C295 1.170 . S
C295 C294 1.170 . S
C296 C297 1.170 . S
C296 C298 1.380 . S
C297 C296 1.170 . S
C298 C296 1.380 . S
C298 C299 1.170 . S
C299 C298 1.170 . S
C300 C301 1.170 . S
C300 C302 1.380 . S
C301 C300 1.170 . S
C302 C300 1.380 . S
C302 C303 1.170 . S
C303 C302 1.170 . S
C304 C305 1.170 . S
C304 C306 1.380 . S
C305 C304 1.170 . S
C306 C304 1.380 . S
C306 C307 1.170 . S
C307 C306 1.170 . S
C308 C309 1.170 . S
C308 C310 1.380 . S
C309 C308 1.170 . S
C310 C308 1.380 . S
C310 C311 1.170 . S
C311 C310 1.170 . S
C241 C169 1.208 . S
C243 C15 1.182 . S
C245 C209 1.193 . S
C247 C55 1.198 . S
C249 C9 1.185 . S
C251 C95 1.207 . S
C253 C49 1.202 . S
C255 C135 1.188 . S
C257 C89 1.184 . S
C259 C175 1.207 . S
C261 C129 1.192 . S
C263 C215 1.199 . S
C265 C18 1.127 . S
C267 C138 1.176 . S
C269 C178 1.177 . S
C271 C58 1.091 . S
C273 C218 1.185 . S
C275 C98 1.102 . S
C277 C88 1.428 . S
C279 C208 1.421 . S
C281 C8 1.424 . S
C283 C128 1.433 . S
C285 C168 1.431 . S
C287 C48 1.426 . S
C289 C219 1.296 . S
C291 C5 1.260 . S
C293 C45 1.235 . S
C295 C19 1.306 . S
C297 C85 1.262 . S
C299 C59 1.293 . S
C301 C99 1.292 . S
C303 C125 1.270 . S
C305 C165 1.243 . S
C307 C139 1.303 . S
C309 C205 1.272 . S
C311 C179 1.290 . S
