# Generated by pormake.
# Topology unh, (4)-cn, num edge types: 1
# Building blocks:
#     Node 0, Type 0, BuildingBlock: ICAMEG_clean_sbu_1, # of connection points: 4
#     Node 1, Type 0, BuildingBlock: ICAMEG_clean_sbu_1, # of connection points: 4
#     Node 2, Type 0, BuildingBlock: ICAMEG_clean_sbu_1, # of connection points: 4
#     Node 3, Type 0, BuildingBlock: ICAMEG_clean_sbu_1, # of connection points: 4
#     Node 4, Type 0, BuildingBlock: ICAMEG_clean_sbu_1, # of connection points: 4
#     Node 5, Type 0, BuildingBlock: ICAMEG_clean_sbu_1, # of connection points: 4
#     Edge 6, Type (0, 0), BuildingBlock: FUNLAD_clean_linker_1, # of connection points: 2
#     Edge 7, Type (0, 0), BuildingBlock: FUNLAD_clean_linker_1, # of connection points: 2
#     Edge 8, Type (0, 0), BuildingBlock: FUNLAD_clean_linker_1, # of connection points: 2
#     Edge 9, Type (0, 0), BuildingBlock: FUNLAD_clean_linker_1, # of connection points: 2
#     Edge 10, Type (0, 0), BuildingBlock: FUNLAD_clean_linker_1, # of connection points: 2
#     Edge 11, Type (0, 0), BuildingBlock: FUNLAD_clean_linker_1, # of connection points: 2
#     Edge 12, Type (0, 0), BuildingBlock: FUNLAD_clean_linker_1, # of connection points: 2
#     Edge 13, Type (0, 0), BuildingBlock: FUNLAD_clean_linker_1, # of connection points: 2
#     Edge 14, Type (0, 0), BuildingBlock: FUNLAD_clean_linker_1, # of connection points: 2
#     Edge 15, Type (0, 0), BuildingBlock: FUNLAD_clean_linker_1, # of connection points: 2
#     Edge 16, Type (0, 0), BuildingBlock: FUNLAD_clean_linker_1, # of connection points: 2
#     Edge 17, Type (0, 0), BuildingBlock: FUNLAD_clean_linker_1, # of connection points: 2
# Relax obj value: 0.020
# Max RMSD: 0.108
# Mean RMSD: 0.107
data_MOF--net-unh--node1-ICAMEG_clean_sbu_1--edge1-FUNLAD_clean_linker_1
_symmetry_space_group_name_H-M    P1
_symmetry_Int_Tables_number       1
_symmetry_cell_setting            triclinic
loop_
_symmetry_equiv_pos_as_xyz
'x, y, z'
_cell_length_a     45.502829
_cell_length_b     45.685626
_cell_length_c     25.178226
_cell_angle_alpha  89.774207
_cell_angle_beta   89.87398
_cell_angle_gamma 120.04881
loop_
_atom_site_label
_atom_site_type_symbol
_atom_site_fract_x
_atom_site_fract_y
_atom_site_fract_z
_atom_type_partial_charge
Co0 Co 0.15607 0.55609 0.03918 0.0
Co1 Co 0.15533 0.60223 0.14756 0.0
O2 O 0.13262 0.56679 0.09441 0.0
C3 C 0.10658 0.56879 0.98306 0.0
O4 O 0.11581 0.59468 0.01461 0.0
C5 C 0.11023 0.53942 0.2073 0.0
O6 O 0.12016 0.5236 0.17499 0.0
O7 O 0.18716 0.58572 0.16517 0.0
O8 O 0.19206 0.56139 0.09065 0.0
H9 H 0.25631 0.69479 0.24116 0.0
H10 H 0.08248 0.50918 0.05706 0.0
O11 O 0.12053 0.55064 0.98655 0.0
H12 H 0.1374 0.44128 0.09007 0.0
H13 H 0.16112 0.49235 0.88007 0.0
H14 H 0.22796 0.58376 1.00696 0.0
H15 H 0.17153 0.5013 0.0639 0.0
H16 H 0.13266 0.5057 0.95164 0.0
O17 O 0.12269 0.5713 0.20332 0.0
H18 H 0.22706 0.6511 0.17292 0.0
H19 H 0.13124 0.62731 0.23748 0.0
H20 H 0.25748 0.57114 0.93616 0.0
H21 H 0.04734 0.44912 0.08236 0.0
H22 H 0.22399 0.52513 0.87211 0.0
H23 H 0.07483 0.41477 0.09929 0.0
O24 O 0.18395 0.6045 0.01884 0.0
H25 H 0.04058 0.58932 0.11395 0.0
H26 H 0.16362 0.66991 0.12285 0.0
H27 H 0.12455 0.69072 0.10033 0.0
H28 H 0.06253 0.65032 0.09594 0.0
H29 H 0.08058 0.56951 0.13557 0.0
H30 H 0.15945 0.67072 0.30651 0.0
H31 H 0.22243 0.70486 0.30855 0.0
O32 O 0.18796 0.63398 0.09262 0.0
C33 C 0.20066 0.57192 0.13811 0.0
C34 C 0.22885 0.6802 0.24054 0.0
C35 C 0.17448 0.66664 0.27727 0.0
N36 N 0.1775 0.63693 0.20094 0.0
C37 C 0.21215 0.65549 0.20191 0.0
C38 C 0.15866 0.64208 0.23813 0.0
C39 C 0.20982 0.68579 0.27838 0.0
C40 C 0.09459 0.49431 0.06373 0.0
N41 N 0.129 0.50871 0.05879 0.0
C42 C 0.07458 0.46035 0.07833 0.0
C43 C 0.09002 0.44111 0.08791 0.0
C44 C 0.12513 0.45598 0.0828 0.0
C45 C 0.14434 0.49001 0.06815 0.0
C46 C 0.176 0.5124 0.90782 0.0
C47 C 0.21324 0.56355 0.97944 0.0
C48 C 0.16002 0.52011 0.94838 0.0
N49 N 0.17867 0.54529 0.9837 0.0
C50 C 0.23008 0.55659 0.93935 0.0
C51 C 0.21127 0.5308 0.90338 0.0
C52 C 0.19574 0.63212 0.04447 0.0
C53 C 0.06754 0.60719 0.11589 0.0
C54 C 0.13669 0.65213 0.12072 0.0
C55 C 0.11468 0.66409 0.10812 0.0
C56 C 0.07988 0.64141 0.10571 0.0
N57 N 0.12439 0.61853 0.13075 0.0
C58 C 0.09031 0.59614 0.12839 0.0
Co59 Co 0.6201 0.14496 0.21837 0.0
Co60 Co 0.56014 0.15344 0.29042 0.0
O61 O 0.57659 0.12609 0.25581 0.0
C62 C 0.57013 0.09825 0.14014 0.0
O63 O 0.551 0.11148 0.15095 0.0
C64 C 0.55608 0.1058 0.37417 0.0
O65 O 0.58707 0.11347 0.36098 0.0
O66 O 0.60397 0.18025 0.32882 0.0
O67 O 0.64292 0.18117 0.27265 0.0
H68 H 0.56855 0.26209 0.35027 0.0
H69 H 0.58212 0.07202 0.24626 0.0
O70 O 0.59855 0.10894 0.16308 0.0
H71 H 0.69196 0.11785 0.33807 0.0
H72 H 0.71122 0.13736 0.11601 0.0
H73 H 0.67509 0.21412 0.1904 0.0
H74 H 0.67975 0.15474 0.28174 0.0
H75 H 0.65696 0.1146 0.1647 0.0
O76 O 0.54177 0.12013 0.35091 0.0
H77 H 0.58836 0.22687 0.30653 0.0
H78 H 0.49693 0.13778 0.34969 0.0
H79 H 0.72966 0.23797 0.14228 0.0
H80 H 0.59335 0.0342 0.30196 0.0
H81 H 0.74803 0.19947 0.1047 0.0
H82 H 0.64858 0.05711 0.34846 0.0
O83 O 0.60976 0.17554 0.17558 0.0
H84 H 0.46009 0.04658 0.22337 0.0
H85 H 0.51526 0.17091 0.228 0.0
H86 H 0.46202 0.13824 0.17813 0.0
H87 H 0.43404 0.07558 0.17565 0.0
H88 H 0.51353 0.0803 0.27234 0.0
H89 H 0.47621 0.17205 0.39439 0.0
H90 H 0.51207 0.23467 0.39464 0.0
O91 O 0.57752 0.18682 0.2303 0.0
C92 C 0.63463 0.19103 0.3144 0.0
C93 C 0.55263 0.23483 0.3503 0.0
C94 C 0.50083 0.18428 0.37511 0.0
N95 N 0.5437 0.18033 0.32519 0.0
C96 C 0.56367 0.21475 0.32546 0.0
C97 C 0.51272 0.16501 0.34987 0.0
C98 C 0.52096 0.21943 0.37522 0.0
C99 C 0.60637 0.08209 0.26585 0.0
N100 N 0.63032 0.11551 0.26048 0.0
C101 C 0.61252 0.06059 0.29754 0.0
C102 C 0.64348 0.07348 0.32371 0.0
C103 C 0.66782 0.10756 0.31793 0.0
C104 C 0.66074 0.12834 0.28604 0.0
C105 C 0.70352 0.15439 0.13228 0.0
C106 C 0.68301 0.19722 0.1744 0.0
C107 C 0.67279 0.14165 0.1598 0.0
N108 N 0.66299 0.16303 0.18068 0.0
C109 C 0.71388 0.21086 0.14708 0.0
C110 C 0.72416 0.18924 0.12596 0.0
C111 C 0.59443 0.19162 0.18741 0.0
C112 C 0.472 0.07386 0.22423 0.0
C113 C 0.50334 0.1437 0.22688 0.0
C114 C 0.47313 0.12531 0.19873 0.0
C115 C 0.45743 0.09015 0.1974 0.0
N116 N 0.5175 0.12755 0.25308 0.0
C117 C 0.5022 0.09308 0.25206 0.0
Co118 Co 0.41933 0.5571 0.46907 0.0
Co119 Co 0.46924 0.6116 0.36911 0.0
O120 O 0.45637 0.57328 0.41704 0.0
C121 C 0.47955 0.56791 0.52978 0.0
O122 O 0.49717 0.59611 0.50287 0.0
C123 C 0.45877 0.55547 0.29843 0.0
O124 O 0.42994 0.53609 0.32324 0.0
O125 O 0.4213 0.59268 0.34608 0.0
O126 O 0.38997 0.5644 0.41753 0.0
H127 H 0.45652 0.70453 0.28525 0.0
H128 H 0.45026 0.51502 0.44388 0.0
O129 O 0.44778 0.54925 0.52192 0.0
H130 H 0.32943 0.44515 0.39668 0.0
H131 H 0.34442 0.47984 0.61482 0.0
H132 H 0.37123 0.57931 0.50352 0.0
H133 H 0.35124 0.50205 0.43441 0.0
H134 H 0.38994 0.50024 0.54733 0.0
O135 O 0.47704 0.58648 0.31074 0.0
H136 H 0.44198 0.6572 0.34719 0.0
H137 H 0.5232 0.64639 0.28657 0.0
H138 H 0.32538 0.55965 0.57036 0.0
H139 H 0.42948 0.45817 0.40665 0.0
H140 H 0.31172 0.50957 0.62656 0.0
H141 H 0.36868 0.42287 0.3826 0.0
O142 O 0.43698 0.60364 0.49714 0.0
H143 H 0.57463 0.60642 0.40992 0.0
H144 H 0.5235 0.67943 0.40564 0.0
H145 H 0.58264 0.70301 0.43549 0.0
H146 H 0.60862 0.66644 0.43764 0.0
H147 H 0.51542 0.58374 0.38098 0.0
H148 H 0.53864 0.69363 0.2239 0.0
H149 H 0.50522 0.72308 0.22307 0.0
O150 O 0.46247 0.63775 0.42678 0.0
C151 C 0.39305 0.57664 0.37086 0.0
C152 C 0.47138 0.69201 0.28539 0.0
C153 C 0.51743 0.68584 0.2509 0.0
N154 N 0.48191 0.64926 0.32079 0.0
C155 C 0.46332 0.66525 0.32046 0.0
C156 C 0.50856 0.6591 0.28643 0.0
C157 C 0.49867 0.70236 0.25046 0.0
C158 C 0.4237 0.49967 0.43409 0.0
N159 N 0.40197 0.51178 0.4416 0.0
C160 C 0.41211 0.46755 0.41278 0.0
C161 C 0.378 0.44778 0.39921 0.0
C162 C 0.35597 0.46028 0.40707 0.0
C163 C 0.36848 0.49255 0.42836 0.0
C164 C 0.35008 0.50164 0.59049 0.0
C165 C 0.36528 0.55736 0.52761 0.0
C166 C 0.37585 0.51334 0.55226 0.0
N167 N 0.38303 0.54077 0.52125 0.0
C168 C 0.33936 0.54641 0.56549 0.0
C169 C 0.33174 0.51833 0.59705 0.0
C170 C 0.45159 0.63262 0.47457 0.0
C171 C 0.56363 0.62264 0.409 0.0
C172 C 0.53455 0.66329 0.40671 0.0
C173 C 0.56809 0.67682 0.42349 0.0
C174 C 0.58266 0.6563 0.42463 0.0
N175 N 0.51604 0.63025 0.39139 0.0
C176 C 0.53017 0.60998 0.39238 0.0
Co177 Co 0.86223 0.45454 0.53631 0.0
Co178 Co 0.86245 0.41138 0.64901 0.0
O179 O 0.88573 0.44424 0.5919 0.0
C180 C 0.91052 0.43962 0.48072 0.0
O181 O 0.90082 0.41399 0.51342 0.0
C182 C 0.91356 0.47404 0.70173 0.0
O183 O 0.90487 0.49076 0.66901 0.0
O184 O 0.83562 0.43331 0.66734 0.0
O185 O 0.82714 0.45133 0.5886 0.0
H186 H 0.76118 0.32869 0.75634 0.0
H187 H 0.93632 0.50068 0.5498 0.0
O188 O 0.89692 0.45812 0.48302 0.0
H189 H 0.88409 0.57141 0.57849 0.0
H190 H 0.85656 0.51526 0.37277 0.0
H191 H 0.79018 0.42756 0.50696 0.0
H192 H 0.84861 0.51088 0.55737 0.0
H193 H 0.88537 0.50287 0.44495 0.0
O194 O 0.89873 0.44188 0.70004 0.0
H195 H 0.79072 0.36903 0.68307 0.0
H196 H 0.88578 0.38536 0.73874 0.0
H197 H 0.76032 0.43922 0.43559 0.0
H198 H 0.97279 0.56122 0.56988 0.0
H199 H 0.79358 0.48336 0.36786 0.0
H200 H 0.94668 0.597 0.58465 0.0
O201 O 0.83323 0.40576 0.51994 0.0
H202 H 0.96956 0.40948 0.6074 0.0
H203 H 0.84531 0.34027 0.62871 0.0
H204 H 0.8782 0.31269 0.60476 0.0
H205 H 0.9408 0.34735 0.59414 0.0
H206 H 0.93564 0.4361 0.63045 0.0
H207 H 0.85731 0.34532 0.81274 0.0
H208 H 0.79455 0.31661 0.8218 0.0
O209 O 0.82554 0.38008 0.59933 0.0
C210 C 0.82099 0.44504 0.63818 0.0
C211 C 0.78852 0.34096 0.75272 0.0
C212 C 0.84249 0.35032 0.78441 0.0
N213 N 0.83988 0.37934 0.70644 0.0
C214 C 0.80537 0.36375 0.71125 0.0
C215 C 0.85847 0.37301 0.74248 0.0
C216 C 0.80727 0.33422 0.78946 0.0
C217 C 0.92479 0.51615 0.5555 0.0
N218 N 0.89037 0.50225 0.55223 0.0
C219 C 0.94556 0.55039 0.56717 0.0
C220 C 0.93089 0.57043 0.57554 0.0
C221 C 0.89577 0.55608 0.57215 0.0
C222 C 0.87579 0.52175 0.56041 0.0
C223 C 0.84178 0.49602 0.40212 0.0
C224 C 0.8048 0.44695 0.47782 0.0
C225 C 0.85795 0.48887 0.44303 0.0
N226 N 0.83944 0.4647 0.48036 0.0
C227 C 0.78776 0.45337 0.43742 0.0
C228 C 0.80644 0.47812 0.39939 0.0
C229 C 0.81827 0.37995 0.55034 0.0
C230 C 0.94231 0.39409 0.61207 0.0
C231 C 0.87251 0.35557 0.62379 0.0
C232 C 0.89102 0.33978 0.61043 0.0
C233 C 0.92615 0.35924 0.60454 0.0
N234 N 0.88855 0.38977 0.6311 0.0
C235 C 0.92298 0.409 0.62541 0.0
Co236 Co 0.40398 0.86011 0.71302 0.0
Co237 Co 0.46556 0.85991 0.79294 0.0
O238 O 0.44635 0.88249 0.75222 0.0
C239 C 0.4571 0.89951 0.63336 0.0
O240 O 0.47358 0.88536 0.65333 0.0
C241 C 0.45354 0.90123 0.86976 0.0
O242 O 0.42303 0.88777 0.84952 0.0
O243 O 0.42061 0.8275 0.82473 0.0
O244 O 0.38028 0.82857 0.77424 0.0
H245 H 0.47269 0.76031 0.86206 0.0
H246 H 0.44117 0.93479 0.72431 0.0
O247 O 0.42777 0.89168 0.65131 0.0
H248 H 0.32885 0.89558 0.806 0.0
H249 H 0.31574 0.85776 0.5902 0.0
H250 H 0.34885 0.78908 0.69911 0.0
H251 H 0.34286 0.85482 0.76602 0.0
H252 H 0.36921 0.88486 0.64088 0.0
O253 O 0.47452 0.89252 0.85282 0.0
H254 H 0.44777 0.78863 0.81088 0.0
H255 H 0.52545 0.88453 0.86408 0.0
H256 H 0.29494 0.76099 0.64975 0.0
H257 H 0.42817 0.9764 0.76353 0.0
H258 H 0.27811 0.79541 0.59471 0.0
H259 H 0.37168 0.95686 0.80487 0.0
O260 O 0.41504 0.82639 0.68308 0.0
H261 H 0.56003 0.97435 0.73625 0.0
H262 H 0.52 0.85212 0.74056 0.0
H263 H 0.57515 0.89122 0.69864 0.0
H264 H 0.5955 0.95283 0.69638 0.0
H265 H 0.50496 0.93434 0.77743 0.0
H266 H 0.55092 0.85721 0.91657 0.0
H267 H 0.52461 0.79468 0.91549 0.0
O268 O 0.45632 0.82725 0.7337 0.0
C269 C 0.38969 0.81762 0.81375 0.0
C270 C 0.48443 0.78759 0.86279 0.0
C271 C 0.52832 0.84197 0.89342 0.0
N272 N 0.4853 0.8382 0.83421 0.0
C273 C 0.4705 0.80377 0.83373 0.0
C274 C 0.51372 0.85729 0.86378 0.0
C275 C 0.51355 0.80688 0.89277 0.0
C276 C 0.41642 0.92611 0.74175 0.0
N277 N 0.39271 0.89244 0.74254 0.0
C278 C 0.40925 0.94978 0.7641 0.0
C279 C 0.37757 0.93879 0.78735 0.0
C280 C 0.35353 0.90441 0.78802 0.0
C281 C 0.36161 0.88145 0.76539 0.0
C282 C 0.32278 0.8425 0.61406 0.0
C283 C 0.34159 0.80425 0.67554 0.0
C284 C 0.35308 0.85769 0.64269 0.0
N285 N 0.36201 0.83859 0.67316 0.0
C286 C 0.31109 0.78819 0.64753 0.0
C287 C 0.30167 0.80751 0.61664 0.0
C288 C 0.43555 0.81598 0.69485 0.0
C289 C 0.55149 0.94758 0.73715 0.0
C290 C 0.52868 0.87889 0.73967 0.0
C291 C 0.55994 0.90091 0.71595 0.0
C292 C 0.57136 0.93548 0.71472 0.0
N293 N 0.5094 0.89096 0.76172 0.0
C294 C 0.52039 0.92481 0.7606 0.0
Co295 Co 0.60463 0.45476 0.98175 0.0
Co296 Co 0.55611 0.40535 0.87705 0.0
O297 O 0.56734 0.43982 0.93122 0.0
C298 C 0.54333 0.43236 0.0484 0.0
O299 O 0.52917 0.40407 0.02147 0.0
C300 C 0.56653 0.4664 0.81956 0.0
O301 O 0.59233 0.48395 0.85105 0.0
O302 O 0.60444 0.42637 0.85456 0.0
O303 O 0.63578 0.45475 0.92533 0.0
H304 H 0.57155 0.31941 0.776 0.0
H305 H 0.56834 0.49343 0.97279 0.0
O306 O 0.57396 0.45512 0.0389 0.0
H307 H 0.68766 0.57472 0.92751 0.0
H308 H 0.67533 0.52326 0.13622 0.0
H309 H 0.6574 0.43645 1.0042 0.0
H310 H 0.6702 0.51583 0.95167 0.0
H311 H 0.62967 0.50475 0.06989 0.0
O312 O 0.5492 0.43428 0.82365 0.0
H313 H 0.58439 0.362 0.84552 0.0
H314 H 0.50411 0.37635 0.79146 0.0
H315 H 0.70343 0.4543 0.06968 0.0
H316 H 0.5848 0.55218 0.9497 0.0
H317 H 0.71263 0.49802 0.1363 0.0
H318 H 0.64482 0.59325 0.92656 0.0
O319 O 0.59108 0.40721 1.00018 0.0
H320 H 0.44954 0.4061 0.92712 0.0
H321 H 0.50185 0.33499 0.90348 0.0
H322 H 0.44217 0.3087 0.93296 0.0
H323 H 0.41562 0.34433 0.94486 0.0
H324 H 0.5092 0.43137 0.89807 0.0
H325 H 0.49044 0.33398 0.7212 0.0
H326 H 0.52423 0.30512 0.71325 0.0
O327 O 0.56259 0.37581 0.92939 0.0
C328 C 0.63282 0.44375 0.878 0.0
C329 C 0.55653 0.33168 0.7792 0.0
C330 C 0.51105 0.33991 0.74839 0.0
N331 N 0.54482 0.37139 0.82281 0.0
C332 C 0.56362 0.35574 0.81857 0.0
C333 C 0.51892 0.3639 0.7882 0.0
C334 C 0.53002 0.32372 0.74396 0.0
C335 C 0.59459 0.51123 0.96342 0.0
N336 N 0.61831 0.50122 0.9638 0.0
C337 C 0.60372 0.54443 0.95008 0.0
C338 C 0.63739 0.56745 0.93703 0.0
C339 C 0.66143 0.55705 0.9375 0.0
C340 C 0.65137 0.52364 0.95104 0.0
C341 C 0.67161 0.50424 0.10733 0.0
C342 C 0.66138 0.45563 0.03286 0.0
C343 C 0.64578 0.49363 0.06972 0.0
N344 N 0.64106 0.46973 0.03297 0.0
C345 C 0.68742 0.46557 0.06993 0.0
C346 C 0.69254 0.49007 0.10734 0.0
C347 C 0.57596 0.37925 0.97515 0.0
C348 C 0.46079 0.39029 0.9219 0.0
C349 C 0.49049 0.35067 0.90866 0.0
C350 C 0.45667 0.33563 0.92527 0.0
C351 C 0.44179 0.35564 0.93192 0.0
N352 N 0.50891 0.38465 0.89873 0.0
C353 C 0.49452 0.40444 0.90526 0.0
H354 H 0.05795 0.56458 0.96022 0.0
C355 C 0.07707 0.5583 0.94814 0.0
H356 H 0.09249 0.53497 0.8916 0.0
H357 H 0.95464 0.42929 0.79262 0.0
H358 H 0.97777 0.39507 0.8243 0.0
H359 H 0.02905 0.41968 0.88004 0.0
H360 H 0.058 0.47887 0.90316 0.0
C361 C 0.07301 0.54085 0.90323 0.0
C362 C 0.04101 0.52613 0.87141 0.0
C363 C 0.02341 0.49096 0.86024 0.0
C364 C 0.99281 0.47637 0.83031 0.0
C365 C 0.97714 0.44162 0.81695 0.0
C366 C 0.99026 0.42159 0.83465 0.0
C367 C 0.01918 0.43546 0.86586 0.0
C368 C 0.03565 0.46965 0.87862 0.0
H369 H 0.96415 0.51667 0.7208 0.0
C370 C 0.9436 0.49275 0.73564 0.0
H371 H 0.92531 0.45666 0.79706 0.0
H372 H 0.07167 0.59546 0.87334 0.0
H373 H 0.04557 0.62883 0.85058 0.0
H374 H 0.98697 0.60152 0.81651 0.0
H375 H 0.95497 0.541 0.80234 0.0
C376 C 0.94635 0.4805 0.78288 0.0
C377 C 0.97858 0.49647 0.81424 0.0
C378 C 0.99538 0.53134 0.8277 0.0
C379 C 0.02765 0.54655 0.85296 0.0
C380 C 0.04591 0.58216 0.85874 0.0
C381 C 0.03139 0.60169 0.84521 0.0
C382 C 0.99852 0.58636 0.82565 0.0
C383 C 0.98059 0.55161 0.81702 0.0
H384 H 0.44441 0.93434 0.92206 0.0
C385 C 0.46347 0.92799 0.90979 0.0
H386 H 0.51436 0.93951 0.91877 0.0
H387 H 0.52178 0.08196 0.9952 0.0
H388 H 0.51409 0.0893 0.90178 0.0
H389 H 0.50225 0.04419 0.83736 0.0
H390 H 0.49798 0.99147 0.86594 0.0
C391 C 0.49497 0.94569 0.92954 0.0
C392 C 0.50373 0.97365 0.96784 0.0
C393 C 0.50643 1.00449 0.95036 0.0
C394 C 0.51363 0.03067 0.98744 0.0
C395 C 0.51629 0.06121 0.96883 0.0
C396 C 0.512 0.06579 0.91527 0.0
C397 C 0.50529 0.04038 0.87901 0.0
C398 C 0.50268 0.01012 0.89605 0.0
H399 H 0.57685 0.06149 0.0932 0.0
C400 C 0.55911 0.07021 0.10218 0.0
H401 H 0.51036 0.06328 0.08719 0.0
H402 H 0.50071 0.91796 0.01408 0.0
H403 H 0.5073 0.91009 0.10779 0.0
H404 H 0.51799 0.9547 0.17256 0.0
H405 H 0.52246 0.00751 0.14405 0.0
C406 C 0.52825 0.05456 0.07975 0.0
C407 C 0.51865 0.02621 0.04177 0.0
C408 C 0.51545 0.99515 0.05934 0.0
C409 C 0.50849 0.96908 0.02218 0.0
C410 C 0.50581 0.93851 0.04067 0.0
C411 C 0.50948 0.93364 0.09435 0.0
C412 C 0.51557 0.95878 0.1308 0.0
C413 C 0.51838 0.98914 0.11379 0.0
H414 H 0.49615 0.55896 0.23949 0.0
C415 C 0.472 0.54155 0.25827 0.0
H416 H 0.43326 0.49052 0.26604 0.0
H417 H 0.52078 0.50253 0.04301 0.0
H418 H 0.49824 0.53682 1.00805 0.0
H419 H 0.46305 0.55155 0.06413 0.0
H420 H 0.4505 0.53239 0.15569 0.0
C421 C 0.45666 0.50854 0.24605 0.0
C422 C 0.47347 0.49561 0.20959 0.0
C423 C 0.47978 0.50625 0.15567 0.0
C424 C 0.49944 0.49711 0.12297 0.0
C425 C 0.50595 0.50867 0.06961 0.0
C426 C 0.49308 0.52829 0.04896 0.0
C427 C 0.47332 0.53663 0.08056 0.0
C428 C 0.46655 0.5257 0.13321 0.0
H429 H 0.49689 0.41852 0.09506 0.0
C430 C 0.5227 0.43866 0.08709 0.0
H431 H 0.55939 0.48982 0.10043 0.0
H432 H 0.46391 0.46877 0.30992 0.0
H433 H 0.48489 0.43295 0.34383 0.0
H434 H 0.5186 0.41681 0.28685 0.0
H435 H 0.53152 0.43639 0.19553 0.0
C436 C 0.53422 0.46899 0.11001 0.0
C437 C 0.51191 0.47654 0.14369 0.0
C438 C 0.50426 0.46456 0.1968 0.0
C439 C 0.48491 0.47401 0.22974 0.0
C440 C 0.47829 0.46227 0.283 0.0
C441 C 0.49024 0.44172 0.30304 0.0
C442 C 0.50921 0.43262 0.27096 0.0
C443 C 0.51633 0.44393 0.21852 0.0
H444 H 0.96026 0.44504 0.4619 0.0
C445 C 0.94087 0.45022 0.44726 0.0
H446 H 0.92573 0.47174 0.38718 0.0
H447 H 0.06289 0.58073 0.28933 0.0
H448 H 0.03585 0.61256 0.31449 0.0
H449 H 0.98344 0.58638 0.36842 0.0
H450 H 0.95726 0.52794 0.39607 0.0
C451 C 0.94559 0.46704 0.40117 0.0
C452 C 0.97862 0.48294 0.37131 0.0
C453 C 0.99471 0.51785 0.35782 0.0
C454 C 0.02602 0.53352 0.32922 0.0
C455 C 0.04001 0.56775 0.31304 0.0
C456 C 0.02462 0.5864 0.32694 0.0
C457 C 0.99507 0.57163 0.35711 0.0
C458 C 0.98018 0.53785 0.37248 0.0
H459 H 0.06134 0.49463 0.22819 0.0
C460 C 0.08041 0.51954 0.24177 0.0
H461 H 0.09511 0.55697 0.29997 0.0
H462 H 0.95177 0.41409 0.37796 0.0
H463 H 0.98177 0.38357 0.36233 0.0
H464 H 0.04135 0.41352 0.33161 0.0
H465 H 0.07051 0.47376 0.31355 0.0
C466 C 0.07555 0.53207 0.2871 0.0
C467 C 0.04261 0.51496 0.3172 0.0
C468 C 0.02736 0.48051 0.33322 0.0
C469 C 0.99438 0.46397 0.35678 0.0
C470 C 0.97787 0.42852 0.36476 0.0
C471 C 0.99465 0.41059 0.35527 0.0
C472 C 0.02809 0.42739 0.33759 0.0
C473 C 0.04439 0.46194 0.3267 0.0
H474 H 0.51172 0.07533 0.42588 0.0
C475 C 0.53648 0.0793 0.41419 0.0
H476 H 0.57104 0.06138 0.42102 0.0
H477 H 0.47706 0.99507 0.6382 0.0
H478 H 0.50426 0.05269 0.67044 0.0
H479 H 0.54155 0.1006 0.6119 0.0
H480 H 0.55182 0.09119 0.52069 0.0
C481 C 0.54718 0.05896 0.43429 0.0
C482 C 0.52501 0.03018 0.47031 0.0
C483 C 0.51921 0.03612 0.52356 0.0
C484 C 0.49791 0.00842 0.55749 0.0
C485 C 0.49288 0.01511 0.61062 0.0
C486 C 0.50839 0.04807 0.62971 0.0
C487 C 0.52936 0.07505 0.59673 0.0
C488 C 0.53489 0.0693 0.54433 0.0
H489 H 0.49838 0.93015 0.57695 0.0
C490 C 0.47414 0.92587 0.59215 0.0
H491 H 0.43896 0.94321 0.59199 0.0
H492 H 0.53066 0.00998 0.37048 0.0
H493 H 0.50303 0.95239 0.33794 0.0
H494 H 0.46524 0.90452 0.39617 0.0
H495 H 0.455 0.91392 0.48741 0.0
C496 C 0.46223 0.9459 0.57527 0.0
C497 C 0.48276 0.9748 0.53838 0.0
C498 C 0.48819 0.96892 0.48491 0.0
C499 C 0.5096 0.99659 0.45106 0.0
C500 C 0.51467 0.98993 0.39793 0.0
C501 C 0.49891 0.95699 0.37868 0.0
C502 C 0.47767 0.93004 0.41149 0.0
C503 C 0.47219 0.93578 0.46393 0.0
H504 H 0.55631 0.50727 0.79912 0.0
C505 C 0.55502 0.48437 0.78423 0.0
H506 H 0.54282 0.45068 0.72077 0.0
H507 H 0.43753 0.47307 0.5958 0.0
H508 H 0.40791 0.41275 0.61148 0.0
H509 H 0.43208 0.38689 0.67009 0.0
H510 H 0.48639 0.42108 0.71221 0.0
C511 C 0.5434 0.47339 0.73502 0.0
C512 C 0.52868 0.48971 0.70064 0.0
C513 C 0.49596 0.46944 0.67821 0.0
C514 C 0.48121 0.48458 0.64643 0.0
C515 C 0.44948 0.46332 0.62193 0.0
C516 C 0.43217 0.4285 0.63035 0.0
C517 C 0.44583 0.41394 0.66319 0.0
C518 C 0.47725 0.43398 0.68697 0.0
H519 H 0.52373 0.5643 0.55635 0.0
C520 C 0.49734 0.55613 0.56518 0.0
H521 H 0.45539 0.52784 0.61529 0.0
H522 H 0.59538 0.53536 0.72338 0.0
H523 H 0.62278 0.59636 0.71577 0.0
H524 H 0.59209 0.62348 0.67865 0.0
H525 H 0.53461 0.58964 0.64623 0.0
C526 C 0.48176 0.5356 0.60694 0.0
C527 C 0.49816 0.52026 0.6396 0.0
C528 C 0.53033 0.54063 0.66369 0.0
C529 C 0.54656 0.52518 0.69082 0.0
C530 C 0.58066 0.54587 0.70714 0.0
C531 C 0.59688 0.58093 0.70231 0.0
C532 C 0.57971 0.59618 0.68103 0.0
C533 C 0.54683 0.5764 0.66192 0.0
H534 H 0.24071 0.55798 0.13783 0.0
C535 C 0.22873 0.56884 0.16188 0.0
H536 H 0.22984 0.59229 0.23456 0.0
H537 H 0.32275 0.51899 0.2838 0.0
H538 H 0.27104 0.46561 0.26973 0.0
H539 H 0.21863 0.46412 0.24029 0.0
H540 H 0.21782 0.516 0.22375 0.0
C541 C 0.24075 0.58023 0.21086 0.0
C542 C 0.2716 0.58059 0.23186 0.0
C543 C 0.27127 0.54997 0.24337 0.0
C544 C 0.30107 0.55084 0.26291 0.0
C545 C 0.30051 0.51988 0.27117 0.0
C546 C 0.27104 0.48902 0.26288 0.0
C547 C 0.24157 0.48818 0.24611 0.0
C548 C 0.24152 0.51819 0.23643 0.0
H549 H 0.33852 0.56058 0.3684 0.0
C550 C 0.36194 0.57253 0.34536 0.0
H551 H 0.38515 0.59666 0.27301 0.0
H552 H 0.28121 0.64394 0.21323 0.0
H553 H 0.33225 0.69729 0.23055 0.0
H554 H 0.38301 0.6988 0.26814 0.0
H555 H 0.38311 0.64697 0.28834 0.0
C556 C 0.36173 0.58373 0.29592 0.0
C557 C 0.33072 0.58232 0.27328 0.0
C558 C 0.33094 0.6129 0.26207 0.0
C559 C 0.30145 0.61203 0.24123 0.0
C560 C 0.30266 0.64302 0.22981 0.0
C561 C 0.33184 0.67389 0.23945 0.0
C562 C 0.36043 0.67474 0.26053 0.0
C563 C 0.36014 0.64473 0.27183 0.0
H564 H 0.68845 0.22654 0.33083 0.0
C565 C 0.66283 0.21704 0.34604 0.0
H566 H 0.63311 0.22188 0.40615 0.0
H567 H 0.79648 0.29927 0.48602 0.0
H568 H 0.7901 0.24338 0.48692 0.0
H569 H 0.73646 0.19357 0.45902 0.0
H570 H 0.68916 0.19959 0.42884 0.0
C571 C 0.65849 0.23011 0.3911 0.0
C572 C 0.68819 0.25875 0.41783 0.0
C573 C 0.71488 0.25455 0.43848 0.0
C574 C 0.7451 0.28301 0.45752 0.0
C575 C 0.77232 0.2784 0.47372 0.0
C576 C 0.76911 0.24643 0.47402 0.0
C577 C 0.73897 0.21842 0.45809 0.0
C578 C 0.7121 0.22227 0.44048 0.0
H579 H 0.77577 0.32732 0.55626 0.0
C580 C 0.78966 0.34843 0.52902 0.0
H581 H 0.79228 0.36701 0.45126 0.0
H582 H 0.64142 0.27547 0.38302 0.0
H583 H 0.64637 0.33073 0.38681 0.0
H584 H 0.69722 0.37938 0.42487 0.0
H585 H 0.74355 0.3731 0.4588 0.0
C586 C 0.77932 0.34563 0.4783 0.0
C587 C 0.74778 0.31534 0.45895 0.0
C588 C 0.72042 0.31918 0.44051 0.0
C589 C 0.69074 0.29095 0.41963 0.0
C590 C 0.66434 0.29586 0.40001 0.0
C591 C 0.66684 0.32749 0.40189 0.0
C592 C 0.69548 0.35489 0.42323 0.0
C593 C 0.72198 0.35093 0.44241 0.0
H594 H 0.41192 0.77481 0.63669 0.0
C595 C 0.43402 0.7886 0.66191 0.0
H596 H 0.48028 0.79339 0.68765 0.0
H597 H 0.44846 0.64567 0.63974 0.0
H598 H 0.4586 0.65034 0.73452 0.0
H599 H 0.46594 0.70013 0.78373 0.0
H600 H 0.46375 0.74576 0.73839 0.0
C601 C 0.45828 0.77998 0.66215 0.0
C602 C 0.45434 0.75018 0.63165 0.0
C603 C 0.45491 0.72325 0.65904 0.0
C604 C 0.44965 0.69402 0.63089 0.0
C605 C 0.4515 0.6681 0.65913 0.0
C606 C 0.4574 0.67047 0.71362 0.0
C607 C 0.4616 0.69852 0.74131 0.0
C608 C 0.46037 0.72464 0.71463 0.0
H609 H 0.47632 0.68722 0.49052 0.0
C610 C 0.45688 0.66248 0.50477 0.0
H611 H 0.41793 0.63577 0.561 0.0
H612 H 0.45903 0.79976 0.56427 0.0
H613 H 0.44433 0.7934 0.47093 0.0
H614 H 0.42571 0.73919 0.42545 0.0
H615 H 0.42313 0.69164 0.47247 0.0
C616 C 0.43745 0.6604 0.54656 0.0
C617 C 0.44277 0.6912 0.5756 0.0
C618 C 0.44122 0.71775 0.54851 0.0
C619 C 0.44884 0.74794 0.57591 0.0
C620 C 0.45095 0.77542 0.54644 0.0
C621 C 0.44293 0.77224 0.49265 0.0
C622 C 0.43268 0.74182 0.46697 0.0
C623 C 0.43171 0.71481 0.49437 0.0
H624 H 0.68808 0.46362 0.87151 0.0
C625 C 0.66419 0.45022 0.85021 0.0
H626 H 0.63997 0.42361 0.78043 0.0
H627 H 0.80446 0.50631 0.71312 0.0
H628 H 0.80146 0.55759 0.72172 0.0
H629 H 0.74928 0.55548 0.75445 0.0
H630 H 0.69995 0.5021 0.77957 0.0
C631 C 0.66383 0.43818 0.80138 0.0
C632 C 0.69469 0.43974 0.77795 0.0
C633 C 0.72291 0.47103 0.76177 0.0
C634 C 0.75256 0.47209 0.74089 0.0
C635 C 0.78091 0.50386 0.72744 0.0
C636 C 0.7796 0.53354 0.73247 0.0
C637 C 0.75025 0.53237 0.75105 0.0
C638 C 0.72217 0.50156 0.76558 0.0
H639 H 0.78036 0.45818 0.63624 0.0
C640 C 0.79395 0.44985 0.66196 0.0
H641 H 0.79685 0.43259 0.73864 0.0
H642 H 0.64509 0.37551 0.80514 0.0
H643 H 0.64732 0.32404 0.79371 0.0
H644 H 0.69781 0.3256 0.75442 0.0
H645 H 0.74637 0.37867 0.72659 0.0
C646 C 0.78431 0.44218 0.71309 0.0
C647 C 0.75348 0.4417 0.73455 0.0
C648 C 0.72502 0.41036 0.74999 0.0
C649 C 0.69568 0.4094 0.7718 0.0
C650 C 0.66788 0.37776 0.78766 0.0
C651 C 0.66882 0.34796 0.78143 0.0
C652 C 0.69725 0.34885 0.7594 0.0
C653 C 0.72504 0.37956 0.74375 0.0
H654 H 0.37195 0.77753 0.87441 0.0
C655 C 0.36381 0.79132 0.84876 0.0
H656 H 0.32269 0.79711 0.82447 0.0
H657 H 0.2069 0.64977 0.88401 0.0
H658 H 0.19853 0.65309 0.78973 0.0
H659 H 0.23927 0.70249 0.73678 0.0
H660 H 0.28829 0.74908 0.7779 0.0
C661 C 0.33118 0.7837 0.85022 0.0
C662 C 0.30551 0.75486 0.88329 0.0
C663 C 0.27718 0.72751 0.8584 0.0
C664 C 0.25423 0.69851 0.88867 0.0
C665 C 0.22567 0.67202 0.86288 0.0
C666 C 0.22044 0.67363 0.80872 0.0
C667 C 0.24333 0.70147 0.77894 0.0
C668 C 0.27139 0.72813 0.8032 0.0
H669 H 0.223 0.68759 0.03304 0.0
C670 C 0.21941 0.66401 0.01683 0.0
H671 H 0.23337 0.64094 0.9573 0.0
H672 H 0.35188 0.80582 0.94627 0.0
H673 H 0.36266 0.80138 0.03941 0.0
H674 H 0.3285 0.74793 0.08871 0.0
H675 H 0.28264 0.6992 0.04587 0.0
C676 C 0.23708 0.66458 0.97347 0.0
C677 C 0.26013 0.69634 0.94355 0.0
C678 C 0.28851 0.72377 0.96847 0.0
C679 C 0.31013 0.75364 0.93889 0.0
C680 C 0.33617 0.78179 0.96595 0.0
C681 C 0.34242 0.7797 0.01954 0.0
C682 C 0.32306 0.74969 0.04736 0.0
C683 C 0.29647 0.72196 0.02233 0.0
H684 H 0.55165 0.32425 0.98982 0.0
C685 C 0.57283 0.34872 1.00096 0.0
H686 H 0.61708 0.37495 0.04684 0.0
H687 H 0.58686 0.27146 0.23033 0.0
H688 H 0.59284 0.32032 0.27689 0.0
H689 H 0.59735 0.36921 0.22768 0.0
H690 H 0.59647 0.36971 0.13166 0.0
C691 C 0.59578 0.35042 0.03634 0.0
C692 C 0.59186 0.32 0.06536 0.0
C693 C 0.59139 0.31967 0.12176 0.0
C694 C 0.58756 0.29095 0.15021 0.0
C695 C 0.58861 0.29204 0.20653 0.0
C696 C 0.59221 0.32005 0.2339 0.0
C697 C 0.59484 0.34759 0.2062 0.0
C698 C 0.59442 0.34756 0.1509 0.0
H699 H 0.6183 0.22838 0.12146 0.0
C700 C 0.59785 0.21849 0.15058 0.0
H701 H 0.55688 0.22177 0.18295 0.0
H702 H 0.59921 0.31455 0.95813 0.0
H703 H 0.58947 0.26429 0.91129 0.0
H704 H 0.57407 0.21154 0.96006 0.0
H705 H 0.56965 0.20922 0.05603 0.0
C706 C 0.57708 0.23152 0.15345 0.0
C707 C 0.58293 0.26196 0.12241 0.0
C708 C 0.5829 0.26206 0.06599 0.0
C709 C 0.58895 0.29164 0.03755 0.0
C710 C 0.5923 0.29212 0.98155 0.0
C711 C 0.58714 0.26352 0.95415 0.0
C712 C 0.57868 0.2339 0.98162 0.0
C713 C 0.57654 0.23302 0.03685 0.0
loop_
_geom_bond_atom_site_label_1
_geom_bond_atom_site_label_2
_geom_bond_distance
_geom_bond_site_symmetry_2
_ccdc_geom_bond_type
Co0 O2 2.143 . S
Co0 O8 2.074 . S
Co0 O11 2.093 1_554 S
Co0 O24 2.097 . S
Co0 N41 2.151 . S
Co0 N49 2.214 1_554 S
Co1 O2 2.160 . S
Co1 O7 2.058 . S
Co1 O17 2.057 . S
Co1 O32 2.037 . S
Co1 N36 2.145 . S
Co1 N57 2.257 . S
O2 Co0 2.143 . S
O2 Co1 2.160 . S
C3 O4 1.278 1_556 S
C3 O11 1.224 . S
O4 C3 1.278 1_554 S
C5 O6 1.245 . S
C5 O17 1.232 . S
O6 C5 1.245 . S
O7 Co1 2.058 . S
O7 C33 1.269 . S
O8 Co0 2.074 . S
O8 C33 1.257 . S
H9 C34 0.930 . S
H10 C40 0.930 . S
O11 Co0 2.093 1_556 S
O11 C3 1.224 . S
H12 C44 0.929 . S
H13 C46 0.930 . S
H14 C47 0.930 . S
H15 C45 0.929 . S
H16 C48 0.928 . S
O17 Co1 2.057 . S
O17 C5 1.232 . S
H18 C37 0.929 . S
H19 C38 0.929 . S
H20 C50 0.931 . S
H21 C42 0.929 . S
H22 C51 0.930 . S
H23 C43 0.931 . S
O24 Co0 2.097 . S
O24 C52 1.214 . S
H25 C53 0.929 . S
H26 C54 0.929 . S
H27 C55 0.930 . S
H28 C56 0.929 . S
H29 C58 0.930 . S
H30 C35 0.930 . S
H31 C39 0.930 . S
O32 Co1 2.037 . S
O32 C52 1.234 . S
C33 O7 1.269 . S
C33 O8 1.257 . S
C34 H9 0.930 . S
C34 C37 1.388 . S
C34 C39 1.418 . S
C35 H30 0.930 . S
C35 C38 1.404 . S
C35 C39 1.353 . S
N36 Co1 2.145 . S
N36 C37 1.397 . S
N36 C38 1.334 . S
C37 H18 0.929 . S
C37 C34 1.388 . S
C37 N36 1.397 . S
C38 H19 0.929 . S
C38 C35 1.404 . S
C38 N36 1.334 . S
C39 H31 0.930 . S
C39 C34 1.418 . S
C39 C35 1.353 . S
C40 H10 0.930 . S
C40 N41 1.330 . S
C40 C42 1.446 . S
N41 Co0 2.151 . S
N41 C40 1.330 . S
N41 C45 1.418 . S
C42 H21 0.929 . S
C42 C40 1.446 . S
C42 C43 1.332 . S
C43 H23 0.931 . S
C43 C42 1.332 . S
C43 C44 1.267 . S
C44 H12 0.929 . S
C44 C43 1.267 . S
C44 C45 1.251 . S
C45 H15 0.929 . S
C45 N41 1.418 . S
C45 C44 1.251 . S
C46 H13 0.930 . S
C46 C48 1.406 . S
C46 C51 1.261 . S
C47 H14 0.930 . S
C47 N49 1.325 . S
C47 C50 1.357 . S
C48 H16 0.928 . S
C48 C46 1.406 . S
C48 N49 1.261 . S
N49 Co0 2.214 1_556 S
N49 C47 1.325 . S
N49 C48 1.261 . S
C50 H20 0.931 . S
C50 C47 1.357 . S
C50 C51 1.312 . S
C51 H22 0.930 . S
C51 C46 1.261 . S
C51 C50 1.312 . S
C52 O24 1.214 . S
C52 O32 1.234 . S
C53 H25 0.929 . S
C53 C56 1.391 . S
C53 C58 1.391 . S
C54 H26 0.929 . S
C54 C55 1.390 . S
C54 N57 1.391 . S
C55 H27 0.930 . S
C55 C54 1.390 . S
C55 C56 1.392 . S
C56 H28 0.929 . S
C56 C53 1.391 . S
C56 C55 1.392 . S
N57 Co1 2.257 . S
N57 C54 1.391 . S
N57 C58 1.388 . S
C58 H29 0.930 . S
C58 C53 1.391 . S
C58 N57 1.388 . S
Co59 O61 2.143 . S
Co59 O67 2.074 . S
Co59 O70 2.093 . S
Co59 O83 2.097 . S
Co59 N100 2.151 . S
Co59 N108 2.214 . S
Co60 O61 2.160 . S
Co60 O66 2.058 . S
Co60 O76 2.057 . S
Co60 O91 2.037 . S
Co60 N95 2.145 . S
Co60 N116 2.257 . S
O61 Co59 2.143 . S
O61 Co60 2.160 . S
C62 O63 1.278 . S
C62 O70 1.224 . S
O63 C62 1.278 . S
C64 O65 1.245 . S
C64 O76 1.232 . S
O65 C64 1.245 . S
O66 Co60 2.058 . S
O66 C92 1.269 . S
O67 Co59 2.074 . S
O67 C92 1.257 . S
H68 C93 0.930 . S
H69 C99 0.930 . S
O70 Co59 2.093 . S
O70 C62 1.224 . S
H71 C103 0.929 . S
H72 C105 0.930 . S
H73 C106 0.930 . S
H74 C104 0.929 . S
H75 C107 0.928 . S
O76 Co60 2.057 . S
O76 C64 1.232 . S
H77 C96 0.929 . S
H78 C97 0.929 . S
H79 C109 0.931 . S
H80 C101 0.929 . S
H81 C110 0.930 . S
H82 C102 0.931 . S
O83 Co59 2.097 . S
O83 C111 1.214 . S
H84 C112 0.929 . S
H85 C113 0.929 . S
H86 C114 0.930 . S
H87 C115 0.929 . S
H88 C117 0.930 . S
H89 C94 0.930 . S
H90 C98 0.930 . S
O91 Co60 2.037 . S
O91 C111 1.234 . S
C92 O66 1.269 . S
C92 O67 1.257 . S
C93 H68 0.930 . S
C93 C96 1.388 . S
C93 C98 1.418 . S
C94 H89 0.930 . S
C94 C97 1.404 . S
C94 C98 1.353 . S
N95 Co60 2.145 . S
N95 C96 1.397 . S
N95 C97 1.334 . S
C96 H77 0.929 . S
C96 C93 1.388 . S
C96 N95 1.397 . S
C97 H78 0.929 . S
C97 C94 1.404 . S
C97 N95 1.334 . S
C98 H90 0.930 . S
C98 C93 1.418 . S
C98 C94 1.353 . S
C99 H69 0.930 . S
C99 N100 1.330 . S
C99 C101 1.446 . S
N100 Co59 2.151 . S
N100 C99 1.330 . S
N100 C104 1.418 . S
C101 H80 0.929 . S
C101 C99 1.446 . S
C101 C102 1.332 . S
C102 H82 0.931 . S
C102 C101 1.332 . S
C102 C103 1.267 . S
C103 H71 0.929 . S
C103 C102 1.267 . S
C103 C104 1.251 . S
C104 H74 0.929 . S
C104 N100 1.418 . S
C104 C103 1.251 . S
C105 H72 0.930 . S
C105 C107 1.406 . S
C105 C110 1.261 . S
C106 H73 0.930 . S
C106 N108 1.325 . S
C106 C109 1.357 . S
C107 H75 0.928 . S
C107 C105 1.406 . S
C107 N108 1.261 . S
N108 Co59 2.214 . S
N108 C106 1.325 . S
N108 C107 1.261 . S
C109 H79 0.931 . S
C109 C106 1.357 . S
C109 C110 1.312 . S
C110 H81 0.930 . S
C110 C105 1.261 . S
C110 C109 1.312 . S
C111 O83 1.214 . S
C111 O91 1.234 . S
C112 H84 0.929 . S
C112 C115 1.391 . S
C112 C117 1.391 . S
C113 H85 0.929 . S
C113 C114 1.390 . S
C113 N116 1.391 . S
C114 H86 0.930 . S
C114 C113 1.390 . S
C114 C115 1.392 . S
C115 H87 0.929 . S
C115 C112 1.391 . S
C115 C114 1.392 . S
N116 Co60 2.257 . S
N116 C113 1.391 . S
N116 C117 1.388 . S
C117 H88 0.930 . S
C117 C112 1.391 . S
C117 N116 1.388 . S
Co118 O120 2.143 . S
Co118 O126 2.074 . S
Co118 O129 2.093 . S
Co118 O142 2.097 . S
Co118 N159 2.151 . S
Co118 N167 2.214 . S
Co119 O120 2.160 . S
Co119 O125 2.058 . S
Co119 O135 2.057 . S
Co119 O150 2.037 . S
Co119 N154 2.145 . S
Co119 N175 2.257 . S
O120 Co118 2.143 . S
O120 Co119 2.160 . S
C121 O122 1.278 . S
C121 O129 1.224 . S
O122 C121 1.278 . S
C123 O124 1.245 . S
C123 O135 1.232 . S
O124 C123 1.245 . S
O125 Co119 2.058 . S
O125 C151 1.269 . S
O126 Co118 2.074 . S
O126 C151 1.257 . S
H127 C152 0.930 . S
H128 C158 0.930 . S
O129 Co118 2.093 . S
O129 C121 1.224 . S
H130 C162 0.929 . S
H131 C164 0.930 . S
H132 C165 0.930 . S
H133 C163 0.929 . S
H134 C166 0.928 . S
O135 Co119 2.057 . S
O135 C123 1.232 . S
H136 C155 0.929 . S
H137 C156 0.929 . S
H138 C168 0.931 . S
H139 C160 0.929 . S
H140 C169 0.930 . S
H141 C161 0.931 . S
O142 Co118 2.097 . S
O142 C170 1.214 . S
H143 C171 0.929 . S
H144 C172 0.929 . S
H145 C173 0.930 . S
H146 C174 0.929 . S
H147 C176 0.930 . S
H148 C153 0.930 . S
H149 C157 0.930 . S
O150 Co119 2.037 . S
O150 C170 1.234 . S
C151 O125 1.269 . S
C151 O126 1.257 . S
C152 H127 0.930 . S
C152 C155 1.388 . S
C152 C157 1.418 . S
C153 H148 0.930 . S
C153 C156 1.404 . S
C153 C157 1.353 . S
N154 Co119 2.145 . S
N154 C155 1.397 . S
N154 C156 1.334 . S
C155 H136 0.929 . S
C155 C152 1.388 . S
C155 N154 1.397 . S
C156 H137 0.929 . S
C156 C153 1.404 . S
C156 N154 1.334 . S
C157 H149 0.930 . S
C157 C152 1.418 . S
C157 C153 1.353 . S
C158 H128 0.930 . S
C158 N159 1.330 . S
C158 C160 1.446 . S
N159 Co118 2.151 . S
N159 C158 1.330 . S
N159 C163 1.418 . S
C160 H139 0.929 . S
C160 C158 1.446 . S
C160 C161 1.332 . S
C161 H141 0.931 . S
C161 C160 1.332 . S
C161 C162 1.267 . S
C162 H130 0.929 . S
C162 C161 1.267 . S
C162 C163 1.251 . S
C163 H133 0.929 . S
C163 N159 1.418 . S
C163 C162 1.251 . S
C164 H131 0.930 . S
C164 C166 1.406 . S
C164 C169 1.261 . S
C165 H132 0.930 . S
C165 N167 1.325 . S
C165 C168 1.357 . S
C166 H134 0.928 . S
C166 C164 1.406 . S
C166 N167 1.261 . S
N167 Co118 2.214 . S
N167 C165 1.325 . S
N167 C166 1.261 . S
C168 H138 0.931 . S
C168 C165 1.357 . S
C168 C169 1.312 . S
C169 H140 0.930 . S
C169 C164 1.261 . S
C169 C168 1.312 . S
C170 O142 1.214 . S
C170 O150 1.234 . S
C171 H143 0.929 . S
C171 C174 1.391 . S
C171 C176 1.391 . S
C172 H144 0.929 . S
C172 C173 1.390 . S
C172 N175 1.391 . S
C173 H145 0.930 . S
C173 C172 1.390 . S
C173 C174 1.392 . S
C174 H146 0.929 . S
C174 C171 1.391 . S
C174 C173 1.392 . S
N175 Co119 2.257 . S
N175 C172 1.391 . S
N175 C176 1.388 . S
C176 H147 0.930 . S
C176 C171 1.391 . S
C176 N175 1.388 . S
Co177 O179 2.143 . S
Co177 O185 2.074 . S
Co177 O188 2.093 . S
Co177 O201 2.097 . S
Co177 N218 2.151 . S
Co177 N226 2.214 . S
Co178 O179 2.160 . S
Co178 O184 2.058 . S
Co178 O194 2.057 . S
Co178 O209 2.037 . S
Co178 N213 2.145 . S
Co178 N234 2.257 . S
O179 Co177 2.143 . S
O179 Co178 2.160 . S
C180 O181 1.278 . S
C180 O188 1.224 . S
O181 C180 1.278 . S
C182 O183 1.245 . S
C182 O194 1.232 . S
O183 C182 1.245 . S
O184 Co178 2.058 . S
O184 C210 1.269 . S
O185 Co177 2.074 . S
O185 C210 1.257 . S
H186 C211 0.930 . S
H187 C217 0.930 . S
O188 Co177 2.093 . S
O188 C180 1.224 . S
H189 C221 0.929 . S
H190 C223 0.930 . S
H191 C224 0.930 . S
H192 C222 0.929 . S
H193 C225 0.928 . S
O194 Co178 2.057 . S
O194 C182 1.232 . S
H195 C214 0.929 . S
H196 C215 0.929 . S
H197 C227 0.931 . S
H198 C219 0.929 . S
H199 C228 0.930 . S
H200 C220 0.931 . S
O201 Co177 2.097 . S
O201 C229 1.214 . S
H202 C230 0.929 . S
H203 C231 0.929 . S
H204 C232 0.930 . S
H205 C233 0.929 . S
H206 C235 0.930 . S
H207 C212 0.930 . S
H208 C216 0.930 . S
O209 Co178 2.037 . S
O209 C229 1.234 . S
C210 O184 1.269 . S
C210 O185 1.257 . S
C211 H186 0.930 . S
C211 C214 1.388 . S
C211 C216 1.418 . S
C212 H207 0.930 . S
C212 C215 1.404 . S
C212 C216 1.353 . S
N213 Co178 2.145 . S
N213 C214 1.397 . S
N213 C215 1.334 . S
C214 H195 0.929 . S
C214 C211 1.388 . S
C214 N213 1.397 . S
C215 H196 0.929 . S
C215 C212 1.404 . S
C215 N213 1.334 . S
C216 H208 0.930 . S
C216 C211 1.418 . S
C216 C212 1.353 . S
C217 H187 0.930 . S
C217 N218 1.330 . S
C217 C219 1.446 . S
N218 Co177 2.151 . S
N218 C217 1.330 . S
N218 C222 1.418 . S
C219 H198 0.929 . S
C219 C217 1.446 . S
C219 C220 1.332 . S
C220 H200 0.931 . S
C220 C219 1.332 . S
C220 C221 1.267 . S
C221 H189 0.929 . S
C221 C220 1.267 . S
C221 C222 1.251 . S
C222 H192 0.929 . S
C222 N218 1.418 . S
C222 C221 1.251 . S
C223 H190 0.930 . S
C223 C225 1.406 . S
C223 C228 1.261 . S
C224 H191 0.930 . S
C224 N226 1.325 . S
C224 C227 1.357 . S
C225 H193 0.928 . S
C225 C223 1.406 . S
C225 N226 1.261 . S
N226 Co177 2.214 . S
N226 C224 1.325 . S
N226 C225 1.261 . S
C227 H197 0.931 . S
C227 C224 1.357 . S
C227 C228 1.312 . S
C228 H199 0.930 . S
C228 C223 1.261 . S
C228 C227 1.312 . S
C229 O201 1.214 . S
C229 O209 1.234 . S
C230 H202 0.929 . S
C230 C233 1.391 . S
C230 C235 1.391 . S
C231 H203 0.929 . S
C231 C232 1.390 . S
C231 N234 1.391 . S
C232 H204 0.930 . S
C232 C231 1.390 . S
C232 C233 1.392 . S
C233 H205 0.929 . S
C233 C230 1.391 . S
C233 C232 1.392 . S
N234 Co178 2.257 . S
N234 C231 1.391 . S
N234 C235 1.388 . S
C235 H206 0.930 . S
C235 C230 1.391 . S
C235 N234 1.388 . S
Co236 O238 2.143 . S
Co236 O244 2.074 . S
Co236 O247 2.093 . S
Co236 O260 2.097 . S
Co236 N277 2.151 . S
Co236 N285 2.214 . S
Co237 O238 2.160 . S
Co237 O243 2.058 . S
Co237 O253 2.057 . S
Co237 O268 2.037 . S
Co237 N272 2.145 . S
Co237 N293 2.257 . S
O238 Co236 2.143 . S
O238 Co237 2.160 . S
C239 O240 1.278 . S
C239 O247 1.224 . S
O240 C239 1.278 . S
C241 O242 1.245 . S
C241 O253 1.232 . S
O242 C241 1.245 . S
O243 Co237 2.058 . S
O243 C269 1.269 . S
O244 Co236 2.074 . S
O244 C269 1.257 . S
H245 C270 0.930 . S
H246 C276 0.930 . S
O247 Co236 2.093 . S
O247 C239 1.224 . S
H248 C280 0.929 . S
H249 C282 0.930 . S
H250 C283 0.930 . S
H251 C281 0.929 . S
H252 C284 0.928 . S
O253 Co237 2.057 . S
O253 C241 1.232 . S
H254 C273 0.929 . S
H255 C274 0.929 . S
H256 C286 0.931 . S
H257 C278 0.929 . S
H258 C287 0.930 . S
H259 C279 0.931 . S
O260 Co236 2.097 . S
O260 C288 1.214 . S
H261 C289 0.929 . S
H262 C290 0.929 . S
H263 C291 0.930 . S
H264 C292 0.929 . S
H265 C294 0.930 . S
H266 C271 0.930 . S
H267 C275 0.930 . S
O268 Co237 2.037 . S
O268 C288 1.234 . S
C269 O243 1.269 . S
C269 O244 1.257 . S
C270 H245 0.930 . S
C270 C273 1.388 . S
C270 C275 1.418 . S
C271 H266 0.930 . S
C271 C274 1.404 . S
C271 C275 1.353 . S
N272 Co237 2.145 . S
N272 C273 1.397 . S
N272 C274 1.334 . S
C273 H254 0.929 . S
C273 C270 1.388 . S
C273 N272 1.397 . S
C274 H255 0.929 . S
C274 C271 1.404 . S
C274 N272 1.334 . S
C275 H267 0.930 . S
C275 C270 1.418 . S
C275 C271 1.353 . S
C276 H246 0.930 . S
C276 N277 1.330 . S
C276 C278 1.446 . S
N277 Co236 2.151 . S
N277 C276 1.330 . S
N277 C281 1.418 . S
C278 H257 0.929 . S
C278 C276 1.446 . S
C278 C279 1.332 . S
C279 H259 0.931 . S
C279 C278 1.332 . S
C279 C280 1.267 . S
C280 H248 0.929 . S
C280 C279 1.267 . S
C280 C281 1.251 . S
C281 H251 0.929 . S
C281 N277 1.418 . S
C281 C280 1.251 . S
C282 H249 0.930 . S
C282 C284 1.406 . S
C282 C287 1.261 . S
C283 H250 0.930 . S
C283 N285 1.325 . S
C283 C286 1.357 . S
C284 H252 0.928 . S
C284 C282 1.406 . S
C284 N285 1.261 . S
N285 Co236 2.214 . S
N285 C283 1.325 . S
N285 C284 1.261 . S
C286 H256 0.931 . S
C286 C283 1.357 . S
C286 C287 1.312 . S
C287 H258 0.930 . S
C287 C282 1.261 . S
C287 C286 1.312 . S
C288 O260 1.214 . S
C288 O268 1.234 . S
C289 H261 0.929 . S
C289 C292 1.391 . S
C289 C294 1.391 . S
C290 H262 0.929 . S
C290 C291 1.390 . S
C290 N293 1.391 . S
C291 H263 0.930 . S
C291 C290 1.390 . S
C291 C292 1.392 . S
C292 H264 0.929 . S
C292 C289 1.391 . S
C292 C291 1.392 . S
N293 Co237 2.257 . S
N293 C290 1.391 . S
N293 C294 1.388 . S
C294 H265 0.930 . S
C294 C289 1.391 . S
C294 N293 1.388 . S
Co295 O297 2.143 . S
Co295 O303 2.074 . S
Co295 O306 2.093 1_556 S
Co295 O319 2.097 . S
Co295 N336 2.151 . S
Co295 N344 2.214 1_556 S
Co296 O297 2.160 . S
Co296 O302 2.058 . S
Co296 O312 2.057 . S
Co296 O327 2.037 . S
Co296 N331 2.145 . S
Co296 N352 2.257 . S
O297 Co295 2.143 . S
O297 Co296 2.160 . S
C298 O299 1.278 1_554 S
C298 O306 1.224 . S
O299 C298 1.278 1_556 S
C300 O301 1.245 . S
C300 O312 1.232 . S
O301 C300 1.245 . S
O302 Co296 2.058 . S
O302 C328 1.269 . S
O303 Co295 2.074 . S
O303 C328 1.257 . S
H304 C329 0.930 . S
H305 C335 0.930 . S
O306 Co295 2.093 1_554 S
O306 C298 1.224 . S
H307 C339 0.929 . S
H308 C341 0.930 . S
H309 C342 0.930 . S
H310 C340 0.929 . S
H311 C343 0.928 . S
O312 Co296 2.057 . S
O312 C300 1.232 . S
H313 C332 0.929 . S
H314 C333 0.929 . S
H315 C345 0.931 . S
H316 C337 0.929 . S
H317 C346 0.930 . S
H318 C338 0.931 . S
O319 Co295 2.097 . S
O319 C347 1.214 . S
H320 C348 0.929 . S
H321 C349 0.929 . S
H322 C350 0.930 . S
H323 C351 0.929 . S
H324 C353 0.930 . S
H325 C330 0.930 . S
H326 C334 0.930 . S
O327 Co296 2.037 . S
O327 C347 1.234 . S
C328 O302 1.269 . S
C328 O303 1.257 . S
C329 H304 0.930 . S
C329 C332 1.388 . S
C329 C334 1.418 . S
C330 H325 0.930 . S
C330 C333 1.404 . S
C330 C334 1.353 . S
N331 Co296 2.145 . S
N331 C332 1.397 . S
N331 C333 1.334 . S
C332 H313 0.929 . S
C332 C329 1.388 . S
C332 N331 1.397 . S
C333 H314 0.929 . S
C333 C330 1.404 . S
C333 N331 1.334 . S
C334 H326 0.930 . S
C334 C329 1.418 . S
C334 C330 1.353 . S
C335 H305 0.930 . S
C335 N336 1.330 . S
C335 C337 1.446 . S
N336 Co295 2.151 . S
N336 C335 1.330 . S
N336 C340 1.418 . S
C337 H316 0.929 . S
C337 C335 1.446 . S
C337 C338 1.332 . S
C338 H318 0.931 . S
C338 C337 1.332 . S
C338 C339 1.267 . S
C339 H307 0.929 . S
C339 C338 1.267 . S
C339 C340 1.251 . S
C340 H310 0.929 . S
C340 N336 1.418 . S
C340 C339 1.251 . S
C341 H308 0.930 . S
C341 C343 1.406 . S
C341 C346 1.261 . S
C342 H309 0.930 . S
C342 N344 1.325 . S
C342 C345 1.357 . S
C343 H311 0.928 . S
C343 C341 1.406 . S
C343 N344 1.261 . S
N344 Co295 2.214 1_554 S
N344 C342 1.325 . S
N344 C343 1.261 . S
C345 H315 0.931 . S
C345 C342 1.357 . S
C345 C346 1.312 . S
C346 H317 0.930 . S
C346 C341 1.261 . S
C346 C345 1.312 . S
C347 O319 1.214 . S
C347 O327 1.234 . S
C348 H320 0.929 . S
C348 C351 1.391 . S
C348 C353 1.391 . S
C349 H321 0.929 . S
C349 C350 1.390 . S
C349 N352 1.391 . S
C350 H322 0.930 . S
C350 C349 1.390 . S
C350 C351 1.392 . S
C351 H323 0.929 . S
C351 C348 1.391 . S
C351 C350 1.392 . S
N352 Co296 2.257 . S
N352 C349 1.391 . S
N352 C353 1.388 . S
C353 H324 0.930 . S
C353 C348 1.391 . S
C353 N352 1.388 . S
H354 C355 0.951 . S
C355 H354 0.951 . S
C355 C361 1.265 . S
H356 C361 0.950 . S
H357 C365 0.949 . S
H358 C366 0.950 . S
H359 C367 0.951 . S
H360 C368 0.951 . S
C361 C355 1.265 . S
C361 H356 0.950 . S
C361 C362 1.478 . S
C362 C361 1.478 . S
C362 C363 1.397 . S
C362 C379 1.394 . S
C363 C362 1.397 . S
C363 C364 1.438 1_455 S
C363 C368 1.429 . S
C364 C363 1.438 1_655 S
C364 C365 1.428 . S
C364 C377 1.394 . S
C365 H357 0.949 . S
C365 C364 1.428 . S
C365 C366 1.345 . S
C366 H358 0.950 . S
C366 C365 1.345 . S
C366 C367 1.424 . S
C367 H359 0.951 . S
C367 C366 1.424 . S
C367 C368 1.347 1_655 S
C368 H360 0.951 . S
C368 C363 1.429 . S
C368 C367 1.347 1_455 S
H369 C370 0.951 . S
C370 H369 0.951 . S
C370 C376 1.265 . S
H371 C376 0.950 . S
H372 C380 0.949 . S
H373 C381 0.950 . S
H374 C382 0.951 . S
H375 C383 0.951 . S
C376 C370 1.265 . S
C376 H371 0.950 . S
C376 C377 1.478 . S
C377 C364 1.394 . S
C377 C376 1.478 . S
C377 C378 1.397 . S
C378 C377 1.397 . S
C378 C379 1.438 1_655 S
C378 C383 1.429 . S
C379 C362 1.394 . S
C379 C378 1.438 1_455 S
C379 C380 1.428 . S
C380 H372 0.949 . S
C380 C379 1.428 . S
C380 C381 1.345 . S
C381 H373 0.950 . S
C381 C380 1.345 . S
C381 C382 1.424 . S
C382 H374 0.951 . S
C382 C381 1.424 . S
C382 C383 1.347 1_455 S
C383 H375 0.951 . S
C383 C378 1.429 . S
C383 C382 1.347 1_655 S
H384 C385 0.951 . S
C385 H384 0.951 . S
C385 C391 1.265 . S
H386 C391 0.950 . S
H387 C395 0.949 1_554 S
H388 C396 0.950 . S
H389 C397 0.951 . S
H390 C398 0.951 . S
C391 C385 1.265 . S
C391 H386 0.950 . S
C391 C392 1.478 . S
C392 C391 1.478 . S
C392 C393 1.397 1_565 S
C392 C409 1.394 1_556 S
C393 C392 1.397 1_545 S
C393 C394 1.438 . S
C393 C398 1.429 . S
C394 C393 1.438 . S
C394 C395 1.428 . S
C394 C407 1.394 1_556 S
C395 H387 0.949 1_556 S
C395 C394 1.428 . S
C395 C396 1.345 . S
C396 H388 0.950 . S
C396 C395 1.345 . S
C396 C397 1.424 . S
C397 H389 0.951 . S
C397 C396 1.424 . S
C397 C398 1.347 . S
C398 H390 0.951 . S
C398 C393 1.429 . S
C398 C397 1.347 . S
H399 C400 0.951 . S
C400 H399 0.951 . S
C400 C406 1.265 . S
H401 C406 0.950 . S
H402 C410 0.949 1_556 S
H403 C411 0.950 . S
H404 C412 0.951 . S
H405 C413 0.951 . S
C406 C400 1.265 . S
C406 H401 0.950 . S
C406 C407 1.478 . S
C407 C394 1.394 1_554 S
C407 C406 1.478 . S
C407 C408 1.397 1_545 S
C408 C407 1.397 1_565 S
C408 C409 1.438 . S
C408 C413 1.429 . S
C409 C392 1.394 1_554 S
C409 C408 1.438 . S
C409 C410 1.428 . S
C410 H402 0.949 1_554 S
C410 C409 1.428 . S
C410 C411 1.345 . S
C411 H403 0.950 . S
C411 C410 1.345 . S
C411 C412 1.424 . S
C412 H404 0.951 . S
C412 C411 1.424 . S
C412 C413 1.347 . S
C413 H405 0.951 . S
C413 C408 1.429 . S
C413 C412 1.347 . S
H414 C415 0.951 . S
C415 H414 0.951 . S
C415 C421 1.265 . S
H416 C421 0.950 . S
H417 C425 0.949 . S
H418 C426 0.950 . S
H419 C427 0.951 . S
H420 C428 0.951 . S
C421 C415 1.265 . S
C421 H416 0.950 . S
C421 C422 1.478 . S
C422 C421 1.478 . S
C422 C423 1.397 . S
C422 C439 1.394 . S
C423 C422 1.397 . S
C423 C424 1.438 . S
C423 C428 1.429 . S
C424 C423 1.438 . S
C424 C425 1.428 . S
C424 C437 1.394 . S
C425 H417 0.949 . S
C425 C424 1.428 . S
C425 C426 1.345 . S
C426 H418 0.950 . S
C426 C425 1.345 . S
C426 C427 1.424 . S
C427 H419 0.951 . S
C427 C426 1.424 . S
C427 C428 1.347 . S
C428 H420 0.951 . S
C428 C423 1.429 . S
C428 C427 1.347 . S
H429 C430 0.951 . S
C430 H429 0.951 . S
C430 C436 1.265 . S
H431 C436 0.950 . S
H432 C440 0.949 . S
H433 C441 0.950 . S
H434 C442 0.951 . S
H435 C443 0.951 . S
C436 C430 1.265 . S
C436 H431 0.950 . S
C436 C437 1.478 . S
C437 C424 1.394 . S
C437 C436 1.478 . S
C437 C438 1.397 . S
C438 C437 1.397 . S
C438 C439 1.438 . S
C438 C443 1.429 . S
C439 C422 1.394 . S
C439 C438 1.438 . S
C439 C440 1.428 . S
C440 H432 0.949 . S
C440 C439 1.428 . S
C440 C441 1.345 . S
C441 H433 0.950 . S
C441 C440 1.345 . S
C441 C442 1.424 . S
C442 H434 0.951 . S
C442 C441 1.424 . S
C442 C443 1.347 . S
C443 H435 0.951 . S
C443 C438 1.429 . S
C443 C442 1.347 . S
H444 C445 0.951 . S
C445 H444 0.951 . S
C445 C451 1.265 . S
H446 C451 0.950 . S
H447 C455 0.949 . S
H448 C456 0.950 . S
H449 C457 0.951 . S
H450 C458 0.951 . S
C451 C445 1.265 . S
C451 H446 0.950 . S
C451 C452 1.478 . S
C452 C451 1.478 . S
C452 C453 1.397 . S
C452 C469 1.394 . S
C453 C452 1.397 . S
C453 C454 1.438 1_655 S
C453 C458 1.429 . S
C454 C453 1.438 1_455 S
C454 C455 1.428 . S
C454 C467 1.394 . S
C455 H447 0.949 . S
C455 C454 1.428 . S
C455 C456 1.345 . S
C456 H448 0.950 . S
C456 C455 1.345 . S
C456 C457 1.424 1_455 S
C457 H449 0.951 . S
C457 C456 1.424 1_655 S
C457 C458 1.347 . S
C458 H450 0.951 . S
C458 C453 1.429 . S
C458 C457 1.347 . S
H459 C460 0.951 . S
C460 H459 0.951 . S
C460 C466 1.265 . S
H461 C466 0.950 . S
H462 C470 0.949 . S
H463 C471 0.950 . S
H464 C472 0.951 . S
H465 C473 0.951 . S
C466 C460 1.265 . S
C466 H461 0.950 . S
C466 C467 1.478 . S
C467 C454 1.394 . S
C467 C466 1.478 . S
C467 C468 1.397 . S
C468 C467 1.397 . S
C468 C469 1.438 1_455 S
C468 C473 1.429 . S
C469 C452 1.394 . S
C469 C468 1.438 1_655 S
C469 C470 1.428 . S
C470 H462 0.949 . S
C470 C469 1.428 . S
C470 C471 1.345 . S
C471 H463 0.950 . S
C471 C470 1.345 . S
C471 C472 1.424 1_655 S
C472 H464 0.951 . S
C472 C471 1.424 1_455 S
C472 C473 1.347 . S
C473 H465 0.951 . S
C473 C468 1.429 . S
C473 C472 1.347 . S
H474 C475 0.951 . S
C475 H474 0.951 . S
C475 C481 1.265 . S
H476 C481 0.950 . S
H477 C485 0.931 1_565 S
H478 C486 0.950 . S
H479 C487 0.951 . S
H480 C488 0.951 . S
C481 C475 1.265 . S
C481 H476 0.950 . S
C481 C482 1.478 . S
C482 C481 1.478 . S
C482 C483 1.397 . S
C482 C499 1.394 1_545 S
C483 C482 1.397 . S
C483 C484 1.438 . S
C483 C488 1.429 . S
C484 C483 1.438 . S
C484 C485 1.428 . S
C484 C497 1.394 1_545 S
C485 H477 0.931 1_545 S
C485 C484 1.428 . S
C485 C486 1.345 . S
C486 H478 0.950 . S
C486 C485 1.345 . S
C486 C487 1.424 . S
C487 H479 0.951 . S
C487 C486 1.424 . S
C487 C488 1.347 . S
C488 H480 0.951 . S
C488 C483 1.429 . S
C488 C487 1.347 . S
H489 C490 0.951 . S
C490 H489 0.951 . S
C490 C496 1.265 . S
H491 C496 0.950 . S
H492 C500 0.939 1_545 S
H493 C501 0.950 . S
H494 C502 0.951 . S
H495 C503 0.951 . S
C496 C490 1.265 . S
C496 H491 0.950 . S
C496 C497 1.478 . S
C497 C484 1.394 1_565 S
C497 C496 1.478 . S
C497 C498 1.397 . S
C498 C497 1.397 . S
C498 C499 1.438 . S
C498 C503 1.429 . S
C499 C482 1.394 1_565 S
C499 C498 1.438 . S
C499 C500 1.428 . S
C500 H492 0.939 1_565 S
C500 C499 1.428 . S
C500 C501 1.345 . S
C501 H493 0.950 . S
C501 C500 1.345 . S
C501 C502 1.424 . S
C502 H494 0.951 . S
C502 C501 1.424 . S
C502 C503 1.347 . S
C503 H495 0.951 . S
C503 C498 1.429 . S
C503 C502 1.347 . S
H504 C505 0.951 . S
C505 H504 0.951 . S
C505 C511 1.265 . S
H506 C511 0.950 . S
H507 C515 0.949 . S
H508 C516 0.950 . S
H509 C517 0.951 . S
H510 C518 0.951 . S
C511 C505 1.265 . S
C511 H506 0.950 . S
C511 C512 1.478 . S
C512 C511 1.478 . S
C512 C513 1.397 . S
C512 C529 1.394 . S
C513 C512 1.397 . S
C513 C514 1.438 . S
C513 C518 1.429 . S
C514 C513 1.438 . S
C514 C515 1.428 . S
C514 C527 1.394 . S
C515 H507 0.949 . S
C515 C514 1.428 . S
C515 C516 1.345 . S
C516 H508 0.950 . S
C516 C515 1.345 . S
C516 C517 1.424 . S
C517 H509 0.951 . S
C517 C516 1.424 . S
C517 C518 1.347 . S
C518 H510 0.951 . S
C518 C513 1.429 . S
C518 C517 1.347 . S
H519 C520 0.951 . S
C520 H519 0.951 . S
C520 C526 1.265 . S
H521 C526 0.950 . S
H522 C530 0.949 . S
H523 C531 0.950 . S
H524 C532 0.951 . S
H525 C533 0.951 . S
C526 C520 1.265 . S
C526 H521 0.950 . S
C526 C527 1.478 . S
C527 C514 1.394 . S
C527 C526 1.478 . S
C527 C528 1.397 . S
C528 C527 1.397 . S
C528 C529 1.438 . S
C528 C533 1.429 . S
C529 C512 1.394 . S
C529 C528 1.438 . S
C529 C530 1.428 . S
C530 H522 0.949 . S
C530 C529 1.428 . S
C530 C531 1.345 . S
C531 H523 0.950 . S
C531 C530 1.345 . S
C531 C532 1.424 . S
C532 H524 0.951 . S
C532 C531 1.424 . S
C532 C533 1.347 . S
C533 H525 0.951 . S
C533 C528 1.429 . S
C533 C532 1.347 . S
H534 C535 0.951 . S
C535 H534 0.951 . S
C535 C541 1.265 . S
H536 C541 0.950 . S
H537 C545 0.949 . S
H538 C546 0.950 . S
H539 C547 0.951 . S
H540 C548 0.951 . S
C541 C535 1.265 . S
C541 H536 0.950 . S
C541 C542 1.478 . S
C542 C541 1.478 . S
C542 C543 1.397 . S
C542 C559 1.394 . S
C543 C542 1.397 . S
C543 C544 1.438 . S
C543 C548 1.429 . S
C544 C543 1.438 . S
C544 C545 1.428 . S
C544 C557 1.394 . S
C545 H537 0.949 . S
C545 C544 1.428 . S
C545 C546 1.345 . S
C546 H538 0.950 . S
C546 C545 1.345 . S
C546 C547 1.424 . S
C547 H539 0.951 . S
C547 C546 1.424 . S
C547 C548 1.347 . S
C548 H540 0.951 . S
C548 C543 1.429 . S
C548 C547 1.347 . S
H549 C550 0.951 . S
C550 H549 0.951 . S
C550 C556 1.265 . S
H551 C556 0.950 . S
H552 C560 0.949 . S
H553 C561 0.950 . S
H554 C562 0.951 . S
H555 C563 0.951 . S
C556 C550 1.265 . S
C556 H551 0.950 . S
C556 C557 1.478 . S
C557 C544 1.394 . S
C557 C556 1.478 . S
C557 C558 1.397 . S
C558 C557 1.397 . S
C558 C559 1.438 . S
C558 C563 1.429 . S
C559 C542 1.394 . S
C559 C558 1.438 . S
C559 C560 1.428 . S
C560 H552 0.949 . S
C560 C559 1.428 . S
C560 C561 1.345 . S
C561 H553 0.950 . S
C561 C560 1.345 . S
C561 C562 1.424 . S
C562 H554 0.951 . S
C562 C561 1.424 . S
C562 C563 1.347 . S
C563 H555 0.951 . S
C563 C558 1.429 . S
C563 C562 1.347 . S
H564 C565 0.951 . S
C565 H564 0.951 . S
C565 C571 1.265 . S
H566 C571 0.950 . S
H567 C575 0.949 . S
H568 C576 0.950 . S
H569 C577 0.951 . S
H570 C578 0.951 . S
C571 C565 1.265 . S
C571 H566 0.950 . S
C571 C572 1.478 . S
C572 C571 1.478 . S
C572 C573 1.397 . S
C572 C589 1.394 . S
C573 C572 1.397 . S
C573 C574 1.438 . S
C573 C578 1.429 . S
C574 C573 1.438 . S
C574 C575 1.428 . S
C574 C587 1.394 . S
C575 H567 0.949 . S
C575 C574 1.428 . S
C575 C576 1.345 . S
C576 H568 0.950 . S
C576 C575 1.345 . S
C576 C577 1.424 . S
C577 H569 0.951 . S
C577 C576 1.424 . S
C577 C578 1.347 . S
C578 H570 0.951 . S
C578 C573 1.429 . S
C578 C577 1.347 . S
H579 C580 0.951 . S
C580 H579 0.951 . S
C580 C586 1.265 . S
H581 C586 0.950 . S
H582 C590 0.949 . S
H583 C591 0.950 . S
H584 C592 0.951 . S
H585 C593 0.951 . S
C586 C580 1.265 . S
C586 H581 0.950 . S
C586 C587 1.478 . S
C587 C574 1.394 . S
C587 C586 1.478 . S
C587 C588 1.397 . S
C588 C587 1.397 . S
C588 C589 1.438 . S
C588 C593 1.429 . S
C589 C572 1.394 . S
C589 C588 1.438 . S
C589 C590 1.428 . S
C590 H582 0.949 . S
C590 C589 1.428 . S
C590 C591 1.345 . S
C591 H583 0.950 . S
C591 C590 1.345 . S
C591 C592 1.424 . S
C592 H584 0.951 . S
C592 C591 1.424 . S
C592 C593 1.347 . S
C593 H585 0.951 . S
C593 C588 1.429 . S
C593 C592 1.347 . S
H594 C595 0.951 . S
C595 H594 0.951 . S
C595 C601 1.265 . S
H596 C601 0.950 . S
H597 C605 0.949 . S
H598 C606 0.950 . S
H599 C607 0.951 . S
H600 C608 0.951 . S
C601 C595 1.265 . S
C601 H596 0.950 . S
C601 C602 1.478 . S
C602 C601 1.478 . S
C602 C603 1.397 . S
C602 C619 1.394 . S
C603 C602 1.397 . S
C603 C604 1.438 . S
C603 C608 1.429 . S
C604 C603 1.438 . S
C604 C605 1.428 . S
C604 C617 1.394 . S
C605 H597 0.949 . S
C605 C604 1.428 . S
C605 C606 1.345 . S
C606 H598 0.950 . S
C606 C605 1.345 . S
C606 C607 1.424 . S
C607 H599 0.951 . S
C607 C606 1.424 . S
C607 C608 1.347 . S
C608 H600 0.951 . S
C608 C603 1.429 . S
C608 C607 1.347 . S
H609 C610 0.951 . S
C610 H609 0.951 . S
C610 C616 1.265 . S
H611 C616 0.950 . S
H612 C620 0.949 . S
H613 C621 0.950 . S
H614 C622 0.951 . S
H615 C623 0.951 . S
C616 C610 1.265 . S
C616 H611 0.950 . S
C616 C617 1.478 . S
C617 C604 1.394 . S
C617 C616 1.478 . S
C617 C618 1.397 . S
C618 C617 1.397 . S
C618 C619 1.438 . S
C618 C623 1.429 . S
C619 C602 1.394 . S
C619 C618 1.438 . S
C619 C620 1.428 . S
C620 H612 0.949 . S
C620 C619 1.428 . S
C620 C621 1.345 . S
C621 H613 0.950 . S
C621 C620 1.345 . S
C621 C622 1.424 . S
C622 H614 0.951 . S
C622 C621 1.424 . S
C622 C623 1.347 . S
C623 H615 0.951 . S
C623 C618 1.429 . S
C623 C622 1.347 . S
H624 C625 0.951 . S
C625 H624 0.951 . S
C625 C631 1.265 . S
H626 C631 0.950 . S
H627 C635 0.949 . S
H628 C636 0.950 . S
H629 C637 0.951 . S
H630 C638 0.951 . S
C631 C625 1.265 . S
C631 H626 0.950 . S
C631 C632 1.478 . S
C632 C631 1.478 . S
C632 C633 1.397 . S
C632 C649 1.394 . S
C633 C632 1.397 . S
C633 C634 1.438 . S
C633 C638 1.429 . S
C634 C633 1.438 . S
C634 C635 1.428 . S
C634 C647 1.394 . S
C635 H627 0.949 . S
C635 C634 1.428 . S
C635 C636 1.345 . S
C636 H628 0.950 . S
C636 C635 1.345 . S
C636 C637 1.424 . S
C637 H629 0.951 . S
C637 C636 1.424 . S
C637 C638 1.347 . S
C638 H630 0.951 . S
C638 C633 1.429 . S
C638 C637 1.347 . S
H639 C640 0.951 . S
C640 H639 0.951 . S
C640 C646 1.265 . S
H641 C646 0.950 . S
H642 C650 0.949 . S
H643 C651 0.950 . S
H644 C652 0.951 . S
H645 C653 0.951 . S
C646 C640 1.265 . S
C646 H641 0.950 . S
C646 C647 1.478 . S
C647 C634 1.394 . S
C647 C646 1.478 . S
C647 C648 1.397 . S
C648 C647 1.397 . S
C648 C649 1.438 . S
C648 C653 1.429 . S
C649 C632 1.394 . S
C649 C648 1.438 . S
C649 C650 1.428 . S
C650 H642 0.949 . S
C650 C649 1.428 . S
C650 C651 1.345 . S
C651 H643 0.950 . S
C651 C650 1.345 . S
C651 C652 1.424 . S
C652 H644 0.951 . S
C652 C651 1.424 . S
C652 C653 1.347 . S
C653 H645 0.951 . S
C653 C648 1.429 . S
C653 C652 1.347 . S
H654 C655 0.951 . S
C655 H654 0.951 . S
C655 C661 1.265 . S
H656 C661 0.950 . S
H657 C665 0.949 . S
H658 C666 0.950 . S
H659 C667 0.951 . S
H660 C668 0.951 . S
C661 C655 1.265 . S
C661 H656 0.950 . S
C661 C662 1.478 . S
C662 C661 1.478 . S
C662 C663 1.397 . S
C662 C679 1.394 . S
C663 C662 1.397 . S
C663 C664 1.438 . S
C663 C668 1.429 . S
C664 C663 1.438 . S
C664 C665 1.428 . S
C664 C677 1.394 . S
C665 H657 0.949 . S
C665 C664 1.428 . S
C665 C666 1.345 . S
C666 H658 0.950 . S
C666 C665 1.345 . S
C666 C667 1.424 . S
C667 H659 0.951 . S
C667 C666 1.424 . S
C667 C668 1.347 . S
C668 H660 0.951 . S
C668 C663 1.429 . S
C668 C667 1.347 . S
H669 C670 0.942 1_556 S
C670 H669 0.942 1_554 S
C670 C676 1.262 1_554 S
H671 C676 0.950 1_554 S
H672 C680 0.949 . S
H673 C681 0.950 . S
H674 C682 0.951 . S
H675 C683 0.951 . S
C676 C670 1.262 1_556 S
C676 H671 0.950 1_556 S
C676 C677 1.478 . S
C677 C664 1.394 . S
C677 C676 1.478 . S
C677 C678 1.397 . S
C678 C677 1.397 . S
C678 C679 1.438 . S
C678 C683 1.429 1_556 S
C679 C662 1.394 . S
C679 C678 1.438 . S
C679 C680 1.428 . S
C680 H672 0.949 . S
C680 C679 1.428 . S
C680 C681 1.345 1_556 S
C681 H673 0.950 . S
C681 C680 1.345 1_554 S
C681 C682 1.424 . S
C682 H674 0.951 . S
C682 C681 1.424 . S
C682 C683 1.347 . S
C683 H675 0.951 . S
C683 C678 1.429 1_554 S
C683 C682 1.347 . S
H684 C685 0.952 . S
C685 H684 0.952 . S
C685 C691 1.265 1_556 S
H686 C691 0.950 . S
H687 C695 0.949 . S
H688 C696 0.950 . S
H689 C697 0.951 . S
H690 C698 0.951 . S
C691 C685 1.265 1_554 S
C691 H686 0.950 . S
C691 C692 1.478 . S
C692 C691 1.478 . S
C692 C693 1.397 . S
C692 C709 1.394 . S
C693 C692 1.397 . S
C693 C694 1.438 . S
C693 C698 1.429 . S
C694 C693 1.438 . S
C694 C695 1.428 . S
C694 C707 1.394 . S
C695 H687 0.949 . S
C695 C694 1.428 . S
C695 C696 1.345 . S
C696 H688 0.950 . S
C696 C695 1.345 . S
C696 C697 1.424 . S
C697 H689 0.951 . S
C697 C696 1.424 . S
C697 C698 1.347 . S
C698 H690 0.951 . S
C698 C693 1.429 . S
C698 C697 1.347 . S
H699 C700 0.951 . S
C700 H699 0.951 . S
C700 C706 1.265 . S
H701 C706 0.950 . S
H702 C710 0.949 . S
H703 C711 0.950 . S
H704 C712 0.951 . S
H705 C713 0.951 . S
C706 C700 1.265 . S
C706 H701 0.950 . S
C706 C707 1.478 . S
C707 C694 1.394 . S
C707 C706 1.478 . S
C707 C708 1.397 . S
C708 C707 1.397 . S
C708 C709 1.438 . S
C708 C713 1.429 . S
C709 C692 1.394 . S
C709 C708 1.438 . S
C709 C710 1.428 1_554 S
C710 H702 0.949 . S
C710 C709 1.428 1_556 S
C710 C711 1.345 . S
C711 H703 0.950 . S
C711 C710 1.345 . S
C711 C712 1.424 . S
C712 H704 0.951 . S
C712 C711 1.424 . S
C712 C713 1.347 1_556 S
C713 H705 0.951 . S
C713 C708 1.429 . S
C713 C712 1.347 1_554 S
C355 C3 1.267 . S
C370 C182 1.284 . S
C385 C241 1.263 . S
C400 C62 1.272 . S
C415 C123 1.286 . S
C430 C298 1.262 . S
C445 C180 1.273 . S
C460 C5 1.280 . S
C475 C64 1.289 . S
C490 C239 1.256 . S
C505 C300 1.278 . S
C520 C121 1.279 . S
C535 C33 1.512 . S
C550 C151 1.512 . S
C565 C92 1.516 . S
C580 C229 1.517 . S
C595 C288 1.495 . S
C610 C170 1.501 . S
C625 C328 1.514 . S
C640 C210 1.511 . S
C655 C269 1.484 . S
C670 C52 1.505 . S
C685 C347 1.507 . S
C700 C111 1.500 . S
