# Generated by pormake.
# Topology ukf, (4)-cn, num edge types: 1
# Building blocks:
#     Node 0, Type 0, BuildingBlock: CEKHIL_clean_sbu_0, # of connection points: 4
#     Node 1, Type 0, BuildingBlock: CEKHIL_clean_sbu_0, # of connection points: 4
#     Node 2, Type 0, BuildingBlock: CEKHIL_clean_sbu_0, # of connection points: 4
#     Node 3, Type 0, BuildingBlock: CEKHIL_clean_sbu_0, # of connection points: 4
#     Node 4, Type 0, BuildingBlock: CEKHIL_clean_sbu_0, # of connection points: 4
#     Node 5, Type 0, BuildingBlock: CEKHIL_clean_sbu_0, # of connection points: 4
#     Node 6, Type 0, BuildingBlock: CEKHIL_clean_sbu_0, # of connection points: 4
#     Node 7, Type 0, BuildingBlock: CEKHIL_clean_sbu_0, # of connection points: 4
#     Node 8, Type 0, BuildingBlock: CEKHIL_clean_sbu_0, # of connection points: 4
#     Node 9, Type 0, BuildingBlock: CEKHIL_clean_sbu_0, # of connection points: 4
#     Node 10, Type 0, BuildingBlock: CEKHIL_clean_sbu_0, # of connection points: 4
#     Node 11, Type 0, BuildingBlock: CEKHIL_clean_sbu_0, # of connection points: 4
#     Edge 12, Type (0, 0), BuildingBlock: ZUJKAS_clean_linker_0, # of connection points: 2
#     Edge 13, Type (0, 0), BuildingBlock: ZUJKAS_clean_linker_0, # of connection points: 2
#     Edge 14, Type (0, 0), BuildingBlock: ZUJKAS_clean_linker_0, # of connection points: 2
#     Edge 15, Type (0, 0), BuildingBlock: ZUJKAS_clean_linker_0, # of connection points: 2
#     Edge 16, Type (0, 0), BuildingBlock: ZUJKAS_clean_linker_0, # of connection points: 2
#     Edge 17, Type (0, 0), BuildingBlock: ZUJKAS_clean_linker_0, # of connection points: 2
#     Edge 18, Type (0, 0), BuildingBlock: ZUJKAS_clean_linker_0, # of connection points: 2
#     Edge 19, Type (0, 0), BuildingBlock: ZUJKAS_clean_linker_0, # of connection points: 2
#     Edge 20, Type (0, 0), BuildingBlock: ZUJKAS_clean_linker_0, # of connection points: 2
#     Edge 21, Type (0, 0), BuildingBlock: ZUJKAS_clean_linker_0, # of connection points: 2
#     Edge 22, Type (0, 0), BuildingBlock: ZUJKAS_clean_linker_0, # of connection points: 2
#     Edge 23, Type (0, 0), BuildingBlock: ZUJKAS_clean_linker_0, # of connection points: 2
#     Edge 24, Type (0, 0), BuildingBlock: ZUJKAS_clean_linker_0, # of connection points: 2
#     Edge 25, Type (0, 0), BuildingBlock: ZUJKAS_clean_linker_0, # of connection points: 2
#     Edge 26, Type (0, 0), BuildingBlock: ZUJKAS_clean_linker_0, # of connection points: 2
#     Edge 27, Type (0, 0), BuildingBlock: ZUJKAS_clean_linker_0, # of connection points: 2
#     Edge 28, Type (0, 0), BuildingBlock: ZUJKAS_clean_linker_0, # of connection points: 2
#     Edge 29, Type (0, 0), BuildingBlock: ZUJKAS_clean_linker_0, # of connection points: 2
#     Edge 30, Type (0, 0), BuildingBlock: ZUJKAS_clean_linker_0, # of connection points: 2
#     Edge 31, Type (0, 0), BuildingBlock: ZUJKAS_clean_linker_0, # of connection points: 2
#     Edge 32, Type (0, 0), BuildingBlock: ZUJKAS_clean_linker_0, # of connection points: 2
#     Edge 33, Type (0, 0), BuildingBlock: ZUJKAS_clean_linker_0, # of connection points: 2
#     Edge 34, Type (0, 0), BuildingBlock: ZUJKAS_clean_linker_0, # of connection points: 2
#     Edge 35, Type (0, 0), BuildingBlock: ZUJKAS_clean_linker_0, # of connection points: 2
# Relax obj value: 0.106
# Max RMSD: 0.082
# Mean RMSD: 0.082
data_MOF--net-ukf--node1-CEKHIL_clean_sbu_0--edge1-ZUJKAS_clean_linker_0
_symmetry_space_group_name_H-M    P1
_symmetry_Int_Tables_number       1
_symmetry_cell_setting            triclinic
loop_
_symmetry_equiv_pos_as_xyz
'x, y, z'
_cell_length_a     41.98243
_cell_length_b     41.959451
_cell_length_c     82.318007
_cell_angle_alpha  89.958825
_cell_angle_beta   90.022833
_cell_angle_gamma 120.04826
loop_
_atom_site_label
_atom_site_type_symbol
_atom_site_fract_x
_atom_site_fract_y
_atom_site_fract_z
_atom_type_partial_charge
Co0 Co 0.42316 0.24809 0.04846 0.0
O1 O 0.45726 0.29579 0.05715 0.0
O2 O 0.40314 0.28119 0.04683 0.0
C3 C 0.46624 0.24422 0.03369 0.0
O4 O 0.38149 0.20119 0.0378 0.0
Co5 Co 0.43457 0.18105 0.05488 0.0
O6 O 0.40075 0.15983 0.03625 0.0
C7 C 0.40133 0.20572 0.08029 0.0
C8 C 0.43422 0.30633 0.05305 0.0
C9 C 0.37836 0.17073 0.03251 0.0
O10 O 0.40127 0.2302 0.07081 0.0
O11 O 0.41491 0.18543 0.07636 0.0
O12 O 0.45047 0.26171 0.02797 0.0
O13 O 0.45709 0.23171 0.04825 0.0
Co14 Co 0.17575 0.42567 0.38063 0.0
O15 O 0.16208 0.45927 0.38987 0.0
O16 O 0.12282 0.40594 0.37871 0.0
C17 C 0.22349 0.46944 0.36643 0.0
O18 O 0.18069 0.38451 0.36934 0.0
Co19 Co 0.25369 0.43574 0.38723 0.0
O20 O 0.2409 0.4015 0.36881 0.0
C21 C 0.19478 0.401 0.41208 0.0
C22 C 0.1286 0.43648 0.38545 0.0
C23 C 0.20768 0.38033 0.36451 0.0
O24 O 0.17077 0.40211 0.40267 0.0
O25 O 0.22871 0.41435 0.40836 0.0
O26 O 0.19039 0.45457 0.36056 0.0
O27 O 0.22626 0.45919 0.38085 0.0
Co28 Co 0.75624 0.17506 0.7151 0.0
O29 O 0.70841 0.16056 0.72386 0.0
O30 O 0.72293 0.12222 0.7122 0.0
C31 C 0.7611 0.22426 0.70176 0.0
O32 O 0.80329 0.18145 0.70411 0.0
Co33 Co 0.82291 0.2526 0.72384 0.0
O34 O 0.84813 0.24091 0.70669 0.0
C35 C 0.7965 0.19096 0.74739 0.0
C36 C 0.69784 0.12744 0.71896 0.0
C37 C 0.83594 0.2086 0.70107 0.0
O38 O 0.77311 0.16778 0.73715 0.0
O39 O 0.81663 0.22547 0.74459 0.0
O40 O 0.74356 0.1918 0.69519 0.0
O41 O 0.77288 0.22539 0.71631 0.0
Co42 Co 0.58486 0.75761 0.04783 0.0
O43 O 0.55126 0.7096 0.0563 0.0
O44 O 0.6033 0.72365 0.04398 0.0
C45 C 0.54047 0.76393 0.0355 0.0
O46 O 0.62537 0.80504 0.0369 0.0
Co47 Co 0.57674 0.82498 0.0578 0.0
O48 O 0.60523 0.84573 0.03766 0.0
C49 C 0.61255 0.79696 0.08014 0.0
C50 C 0.57301 0.6986 0.05083 0.0
C51 C 0.62693 0.83528 0.03227 0.0
O52 O 0.61013 0.77299 0.06968 0.0
O53 O 0.59976 0.81862 0.07789 0.0
O54 O 0.55462 0.74637 0.02829 0.0
O55 O 0.55193 0.77496 0.05006 0.0
Co56 Co 0.82953 0.58532 0.37883 0.0
O57 O 0.84667 0.55497 0.38863 0.0
O58 O 0.88283 0.60836 0.37669 0.0
C59 C 0.78341 0.53847 0.36519 0.0
O60 O 0.82056 0.62347 0.36697 0.0
Co61 Co 0.74975 0.56985 0.38524 0.0
O62 O 0.75918 0.59942 0.36531 0.0
C63 C 0.80823 0.60857 0.41 0.0
C64 C 0.87943 0.57918 0.38392 0.0
C65 C 0.79181 0.6233 0.36121 0.0
O66 O 0.83316 0.60954 0.40052 0.0
O67 O 0.77401 0.59271 0.40634 0.0
O68 O 0.81641 0.55522 0.35916 0.0
O69 O 0.77988 0.54901 0.37943 0.0
Co70 Co 0.24805 0.82584 0.71258 0.0
O71 O 0.29513 0.83825 0.72161 0.0
O72 O 0.28156 0.87908 0.71198 0.0
C73 C 0.2446 0.78003 0.69711 0.0
O74 O 0.20193 0.82197 0.70173 0.0
Co75 Co 0.18025 0.74696 0.71759 0.0
O76 O 0.16023 0.76156 0.69918 0.0
C77 C 0.20466 0.80234 0.7441 0.0
C78 C 0.30619 0.87229 0.71812 0.0
C79 C 0.17159 0.79525 0.69599 0.0
O80 O 0.22902 0.82787 0.73492 0.0
O81 O 0.18472 0.76877 0.73962 0.0
O82 O 0.26282 0.81377 0.69195 0.0
O83 O 0.23119 0.77552 0.71153 0.0
Co84 Co 0.75675 0.57401 0.61242 0.0
O85 O 0.70763 0.54133 0.60493 0.0
O86 O 0.72645 0.59738 0.61404 0.0
C87 C 0.75917 0.53086 0.6279 0.0
O88 O 0.80641 0.61452 0.62165 0.0
Co89 Co 0.8173 0.55337 0.60421 0.0
O90 O 0.84707 0.59438 0.61916 0.0
C91 C 0.79372 0.58841 0.5793 0.0
C92 C 0.69949 0.56635 0.60858 0.0
C93 C 0.83856 0.61806 0.62394 0.0
O94 O 0.77297 0.59295 0.5895 0.0
O95 O 0.81079 0.57109 0.58266 0.0
O96 O 0.74429 0.54918 0.63364 0.0
O97 O 0.76935 0.53739 0.61297 0.0
Co98 Co 0.18474 0.75594 0.9471 0.0
O99 O 0.16902 0.70682 0.93989 0.0
O100 O 0.1313 0.72437 0.94958 0.0
C101 C 0.23207 0.76032 0.9618 0.0
O102 O 0.19328 0.8055 0.95619 0.0
Co103 Co 0.26452 0.8178 0.93762 0.0
O104 O 0.25361 0.84722 0.95288 0.0
C105 C 0.20363 0.79229 0.91378 0.0
C106 C 0.13586 0.69783 0.94399 0.0
C107 C 0.22158 0.83805 0.95814 0.0
O108 O 0.17955 0.77069 0.92423 0.0
O109 O 0.23822 0.81099 0.91661 0.0
O110 O 0.19939 0.74519 0.96813 0.0
O111 O 0.23436 0.76978 0.9468 0.0
Co112 Co 0.42605 0.17993 0.28161 0.0
O113 O 0.45776 0.16414 0.27216 0.0
O114 O 0.40335 0.12649 0.28289 0.0
C115 C 0.47102 0.22507 0.29645 0.0
O116 O 0.38649 0.18743 0.29294 0.0
Co117 Co 0.44163 0.26011 0.27597 0.0
O118 O 0.40976 0.24866 0.29526 0.0
C119 C 0.4058 0.20358 0.25018 0.0
C120 C 0.43344 0.13088 0.27621 0.0
C121 C 0.38585 0.21565 0.29884 0.0
O122 O 0.4038 0.17796 0.25955 0.0
O123 O 0.42148 0.23757 0.25428 0.0
O124 O 0.4541 0.19151 0.30187 0.0
O125 O 0.46196 0.2297 0.28206 0.0
Co126 Co 0.25136 0.42909 0.61478 0.0
O127 O 0.30014 0.4659 0.60842 0.0
O128 O 0.28444 0.40879 0.61474 0.0
C129 C 0.24449 0.46635 0.63235 0.0
O130 O 0.20283 0.38452 0.62267 0.0
Co131 Co 0.18681 0.44486 0.60831 0.0
O132 O 0.15885 0.40066 0.62194 0.0
C133 C 0.21864 0.42342 0.58128 0.0
C134 C 0.3103 0.44182 0.61073 0.0
C135 C 0.16987 0.37825 0.62556 0.0
O136 O 0.23715 0.41507 0.59122 0.0
O137 O 0.20035 0.43881 0.58575 0.0
O138 O 0.26161 0.44928 0.63693 0.0
O139 O 0.2349 0.46242 0.61733 0.0
Co140 Co 0.82468 0.25021 0.9473 0.0
O141 O 0.84074 0.29789 0.93797 0.0
O142 O 0.87781 0.28217 0.95001 0.0
C143 C 0.77683 0.24856 0.96041 0.0
O144 O 0.81643 0.20302 0.9589 0.0
Co145 Co 0.74616 0.18465 0.93977 0.0
O146 O 0.75513 0.16463 0.95987 0.0
C147 C 0.80672 0.20651 0.91591 0.0
C148 C 0.87359 0.30766 0.94296 0.0
C149 C 0.78766 0.17395 0.96439 0.0
O150 O 0.83052 0.2312 0.92555 0.0
O151 O 0.77238 0.18687 0.91918 0.0
O152 O 0.80932 0.26508 0.96696 0.0
O153 O 0.77482 0.23551 0.94605 0.0
Co154 Co 0.57534 0.82576 0.28063 0.0
O155 O 0.5425 0.84259 0.2738 0.0
O156 O 0.59969 0.87944 0.28191 0.0
C157 C 0.53445 0.781 0.29705 0.0
O158 O 0.61629 0.81636 0.28888 0.0
Co159 Co 0.55287 0.74427 0.27184 0.0
O160 O 0.59727 0.75615 0.28464 0.0
C161 C 0.57991 0.80152 0.2465 0.0
C162 C 0.56857 0.87573 0.27686 0.0
C163 C 0.62072 0.78803 0.28989 0.0
O164 O 0.59141 0.82722 0.25729 0.0
O165 O 0.56024 0.76725 0.2499 0.0
O166 O 0.55286 0.81459 0.30236 0.0
O167 O 0.53889 0.77663 0.28193 0.0
H168 H 0.25217 0.90743 0.94718 0.0
H169 H 0.25924 0.96127 0.96139 0.0
H170 H 0.19081 0.89209 0.00037 0.0
H171 H 0.18439 0.83738 0.98612 0.0
H172 H 0.216 0.98631 0.97252 0.0
H173 H 0.28529 0.95964 0.0242 0.0
H174 H 0.27384 0.93339 0.00565 0.0
H175 H 0.23854 0.92473 0.02023 0.0
C176 C 0.23811 0.9035 0.95869 0.0
C177 C 0.21809 0.86824 0.96564 0.0
C178 C 0.24208 0.93439 0.96679 0.0
C179 C 0.22625 0.93103 0.98213 0.0
C180 C 0.20396 0.89551 0.98869 0.0
H181 H 0.31012 0.12689 0.04471 0.0
H182 H 0.26334 0.06797 0.03299 0.0
C183 C 0.1999 0.86422 0.98048 0.0
C184 C 0.23624 0.96538 0.99137 0.0
H185 H 0.28824 0.01667 0.02352 0.0
C186 C 0.23115 0.99266 0.98386 0.0
C187 C 0.25628 0.97393 0.00614 0.0
C188 C 0.26415 0.9466 0.01453 0.0
C189 C 0.24711 0.02855 0.99019 0.0
C190 C 0.26854 0.03745 0.00447 0.0
C191 C 0.27165 0.00968 0.01259 0.0
C192 C 0.29177 0.07607 0.01013 0.0
C193 C 0.24212 0.05712 0.98127 0.0
C194 C 0.32265 0.10067 0.00097 0.0
C195 C 0.3494 0.13413 0.00769 0.0
C196 C 0.34539 0.14386 0.02355 0.0
C197 C 0.3132 0.12053 0.03226 0.0
C198 C 0.2867 0.08672 0.02564 0.0
H199 H 0.21774 0.04426 0.97312 0.0
H200 H 0.23902 0.07566 0.98993 0.0
H201 H 0.26683 0.07415 0.97371 0.0
H202 H 0.32751 0.09276 0.98911 0.0
H203 H 0.37452 0.15112 0.00096 0.0
H204 H 0.21068 0.37301 0.33185 0.0
H205 H 0.22355 0.32851 0.31842 0.0
H206 H 0.20947 0.27269 0.36417 0.0
H207 H 0.19503 0.31607 0.37728 0.0
H208 H 0.28273 0.32823 0.32566 0.0
H209 H 0.17008 0.18574 0.33509 0.0
H210 H 0.16379 0.2249 0.338 0.0
H211 H 0.18289 0.21016 0.35399 0.0
C212 C 0.20811 0.34983 0.33874 0.0
C213 C 0.20097 0.34731 0.35548 0.0
C214 C 0.21591 0.32464 0.33114 0.0
C215 C 0.21737 0.29691 0.34021 0.0
C216 C 0.20756 0.29293 0.35672 0.0
H217 H 0.38743 0.24458 0.32831 0.0
H218 H 0.3409 0.25782 0.33896 0.0
C219 C 0.19924 0.31779 0.36425 0.0
C220 C 0.23571 0.27721 0.33337 0.0
H221 H 0.23112 0.19346 0.33125 0.0
C222 C 0.27096 0.29865 0.32663 0.0
C223 C 0.22065 0.23856 0.33455 0.0
C224 C 0.1821 0.21353 0.34065 0.0
C225 C 0.292 0.28294 0.32167 0.0
C226 C 0.278 0.24475 0.32387 0.0
C227 C 0.24214 0.22285 0.3299 0.0
C228 C 0.30105 0.22796 0.32011 0.0
C229 C 0.32935 0.30762 0.31421 0.0
C230 C 0.29288 0.20429 0.30675 0.0
C231 C 0.31926 0.19593 0.30086 0.0
C232 C 0.35405 0.21136 0.30825 0.0
C233 C 0.36066 0.23203 0.32252 0.0
C234 C 0.33423 0.23991 0.32851 0.0
H235 H 0.33182 0.33354 0.30944 0.0
H236 H 0.35088 0.31507 0.32362 0.0
H237 H 0.33489 0.29344 0.30415 0.0
H238 H 0.26742 0.19474 0.3001 0.0
H239 H 0.31381 0.18055 0.28965 0.0
H240 H 0.89544 0.2091 0.71334 0.0
H241 H 0.95105 0.22252 0.69836 0.0
H242 H 0.89469 0.21232 0.65315 0.0
H243 H 0.83904 0.19972 0.66829 0.0
H244 H 0.97535 0.19435 0.67452 0.0
H245 H 0.97486 0.31963 0.65295 0.0
H246 H 0.94305 0.28935 0.66806 0.0
H247 H 0.93521 0.27722 0.64689 0.0
C248 C 0.89451 0.20824 0.70018 0.0
C249 C 0.86294 0.20302 0.69194 0.0
C250 C 0.92638 0.21613 0.69162 0.0
C251 C 0.92743 0.21932 0.67463 0.0
C252 C 0.89477 0.2107 0.66628 0.0
H253 H 0.11378 0.32357 0.60922 0.0
H254 H 0.05482 0.27771 0.62095 0.0
C255 C 0.86279 0.20291 0.67489 0.0
C256 C 0.96362 0.23605 0.66612 0.0
H257 H 0.02404 0.31208 0.64441 0.0
C258 C 0.98587 0.21993 0.66783 0.0
C259 C 0.97779 0.26992 0.65765 0.0
C260 C 0.95673 0.29031 0.65638 0.0
C261 C 0.02165 0.23666 0.66123 0.0
C262 C 0.03544 0.27022 0.6527 0.0
C263 C 0.01317 0.28611 0.65085 0.0
C264 C 0.07324 0.2903 0.64585 0.0
C265 C 0.04465 0.21862 0.66337 0.0
C266 C 0.10364 0.31158 0.65596 0.0
C267 C 0.13752 0.33779 0.64924 0.0
C268 C 0.14137 0.34283 0.63234 0.0
C269 C 0.11176 0.31949 0.62226 0.0
C270 C 0.07799 0.2935 0.62895 0.0
H271 H 0.02862 0.1906 0.6687 0.0
H272 H 0.05612 0.21672 0.65149 0.0
H273 H 0.0682 0.2358 0.67151 0.0
H274 H 0.10036 0.30998 0.66904 0.0
H275 H 0.15956 0.35626 0.65725 0.0
H276 H 0.61925 0.86686 0.00521 0.0
H277 H 0.66576 0.92458 0.99309 0.0
H278 H 0.74835 0.92487 0.02438 0.0
H279 H 0.70128 0.86661 0.03664 0.0
H280 H 0.7449 0.98743 0.0274 0.0
H281 H 0.75131 0.96211 0.96214 0.0
H282 H 0.70443 0.9432 0.96847 0.0
H283 H 0.73191 0.92517 0.97685 0.0
C284 C 0.64766 0.87834 0.00897 0.0
C285 C 0.65679 0.862 0.02168 0.0
C286 C 0.67432 0.91143 0.00203 0.0
C287 C 0.71079 0.9291 0.00767 0.0
C288 C 0.7205 0.91162 0.0197 0.0
H289 H 0.83508 0.14721 0.96107 0.0
H290 H 0.82728 0.09023 0.97339 0.0
C291 C 0.69372 0.87813 0.02658 0.0
C292 C 0.73655 0.96791 0.00269 0.0
H293 H 0.76447 0.02401 0.96936 0.0
C294 C 0.75004 0.99537 0.01471 0.0
C295 C 0.74384 0.97857 0.98617 0.0
C296 C 0.73241 0.95061 0.9727 0.0
C297 C 0.76783 0.03297 0.01062 0.0
C298 C 0.77182 0.04346 0.99407 0.0
C299 C 0.76113 0.01614 0.98207 0.0
C300 C 0.78199 0.08148 0.98892 0.0
C301 C 0.78101 0.06102 0.02411 0.0
C302 C 0.75994 0.09613 0.99386 0.0
C303 C 0.76437 0.12843 0.98688 0.0
C304 C 0.791 0.14699 0.97479 0.0
C305 C 0.81483 0.13387 0.97059 0.0
C306 C 0.81012 0.10113 0.9775 0.0
H307 H 0.78883 0.05084 0.03501 0.0
H308 H 0.80497 0.0876 0.02026 0.0
H309 H 0.75836 0.06595 0.0277 0.0
H310 H 0.73753 0.08125 0.00234 0.0
H311 H 0.74535 0.13769 0.99021 0.0
H312 H 0.65809 0.82265 0.31802 0.0
H313 H 0.70704 0.81538 0.33108 0.0
H314 H 0.70691 0.75112 0.29016 0.0
H315 H 0.6592 0.75872 0.27722 0.0
H316 H 0.69849 0.75027 0.3405 0.0
H317 H 0.81501 0.81106 0.2979 0.0
H318 H 0.77814 0.82141 0.29688 0.0
H319 H 0.77377 0.781 0.28701 0.0
C320 C 0.66961 0.80818 0.31164 0.0
C321 C 0.65496 0.79132 0.29661 0.0
C322 C 0.69738 0.80384 0.31911 0.0
C323 C 0.71125 0.78319 0.3115 0.0
C324 C 0.6977 0.76806 0.29613 0.0
H325 H 0.75433 0.61823 0.33377 0.0
H326 H 0.74413 0.66616 0.32228 0.0
C327 C 0.67006 0.77215 0.28879 0.0
C328 C 0.73568 0.77251 0.3202 0.0
H329 H 0.8075 0.75741 0.31344 0.0
C330 C 0.72308 0.75298 0.33487 0.0
C331 C 0.76789 0.77595 0.31293 0.0
C332 C 0.78464 0.79888 0.2979 0.0
C333 C 0.73984 0.73425 0.34163 0.0
C334 C 0.76987 0.73495 0.33352 0.0
C335 C 0.78426 0.75666 0.31956 0.0
C336 C 0.78271 0.70912 0.33821 0.0
C337 C 0.72383 0.71161 0.35681 0.0
C338 C 0.80916 0.71792 0.35046 0.0
C339 C 0.81554 0.69056 0.35687 0.0
C340 C 0.79515 0.65411 0.35123 0.0
C341 C 0.77069 0.64619 0.3382 0.0
C342 C 0.7647 0.67349 0.33169 0.0
H343 H 0.70256 0.7164 0.36246 0.0
H344 H 0.71113 0.68192 0.35379 0.0
H345 H 0.74597 0.71823 0.36582 0.0
H346 H 0.82316 0.74526 0.3557 0.0
H347 H 0.83394 0.69718 0.36714 0.0
H348 H 0.90853 0.65387 0.61358 0.0
H349 H 0.96237 0.70185 0.62732 0.0
H350 H 0.89301 0.70764 0.6645 0.0
H351 H 0.8382 0.6582 0.6507 0.0
H352 H 0.9872 0.77237 0.63633 0.0
H353 H 0.96006 0.68327 0.69078 0.0
H354 H 0.9342 0.66579 0.67224 0.0
H355 H 0.92536 0.69456 0.68544 0.0
C356 C 0.90455 0.6656 0.62459 0.0
C357 C 0.86916 0.65193 0.63118 0.0
C358 C 0.93545 0.69324 0.63242 0.0
C359 C 0.932 0.70804 0.64712 0.0
C360 C 0.89646 0.69616 0.65331 0.0
H361 H 0.12961 0.82161 0.70845 0.0
H362 H 0.07075 0.81044 0.6971 0.0
C363 C 0.86513 0.66824 0.64536 0.0
C364 C 0.9663 0.73356 0.65613 0.0
H365 H 0.01784 0.73612 0.6888 0.0
C366 C 0.99361 0.76488 0.64799 0.0
C367 C 0.97487 0.72385 0.67134 0.0
C368 C 0.9473 0.68996 0.68048 0.0
C369 C 0.02964 0.78528 0.65413 0.0
C370 C 0.03868 0.77419 0.6688 0.0
C371 C 0.01081 0.74461 0.67755 0.0
C372 C 0.07745 0.78927 0.67419 0.0
C373 C 0.05814 0.81765 0.64454 0.0
C374 C 0.10133 0.78227 0.66488 0.0
C375 C 0.13477 0.78847 0.67138 0.0
C376 C 0.14522 0.80234 0.68718 0.0
C377 C 0.12272 0.81204 0.69603 0.0
C378 C 0.08891 0.80527 0.68963 0.0
H379 H 0.04521 0.82931 0.63652 0.0
H380 H 0.0781 0.83966 0.65271 0.0
H381 H 0.07355 0.80844 0.63673 0.0
H382 H 0.09281 0.76924 0.65309 0.0
H383 H 0.1511 0.77972 0.66454 0.0
H384 H 0.76956 0.26366 0.99211 0.0
H385 H 0.71466 0.25926 0.00489 0.0
H386 H 0.65641 0.22335 0.95935 0.0
H387 H 0.71036 0.22652 0.94672 0.0
H388 H 0.67898 0.29631 -0.00289 0.0
H389 H 0.58413 0.14636 0.99007 0.0
H390 H 0.63318 0.16737 0.98715 0.0
H391 H 0.60446 0.16851 0.97118 0.0
C392 C 0.74487 0.25447 0.98492 0.0
C393 C 0.74404 0.24515 0.96849 0.0
C394 C 0.71363 0.252 0.9922 0.0
C395 C 0.68132 0.24031 0.98312 0.0
C396 C 0.68069 0.23138 0.96668 0.0
H397 H 0.5005 0.27812 0.00534 0.0
H398 H 0.55236 0.27655 0.99239 0.0
C399 C 0.71164 0.23343 0.95947 0.0
C400 C 0.64863 0.23894 0.99053 0.0
H401 H 0.55655 0.18257 0.99675 0.0
C402 C 0.65225 0.27141 -0.00286 0.0
C403 C 0.61389 0.2063 0.99063 0.0
C404 C 0.6087 0.17008 0.98452 0.0
C405 C 0.62182 0.27228 0.00359 0.0
C406 C 0.5869 0.24001 0.00311 0.0
C407 C 0.58336 0.20739 0.99679 0.0
C408 C 0.55404 0.23907 0.00999 0.0
C409 C 0.62732 0.30748 0.01111 0.0
C410 C 0.53726 0.21751 0.02376 0.0
C411 C 0.50781 0.2183 0.03111 0.0
C412 C 0.4945 0.24048 0.02473 0.0
C413 C 0.51029 0.26084 0.01051 0.0
C414 C 0.53997 0.26017 0.00318 0.0
H415 H 0.65684 0.32737 0.01349 0.0
H416 H 0.61665 0.32066 0.00272 0.0
H417 H 0.61193 0.30171 0.02273 0.0
H418 H 0.54768 0.20091 0.0291 0.0
H419 H 0.49605 0.20216 0.04202 0.0
H420 H 0.22543 0.51426 0.34196 0.0
H421 H 0.28028 0.56714 0.33048 0.0
H422 H 0.34934 0.54114 0.35994 0.0
H423 H 0.29477 0.48945 0.37191 0.0
H424 H 0.36998 0.61137 0.36258 0.0
H425 H 0.35295 0.57366 0.29736 0.0
H426 H 0.314 0.57486 0.30556 0.0
H427 H 0.32543 0.54144 0.31299 0.0
C428 C 0.25236 0.51954 0.34575 0.0
C429 C 0.25597 0.4979 0.3578 0.0
C430 C 0.28366 0.54964 0.33916 0.0
C431 C 0.31892 0.55786 0.34425 0.0
C432 C 0.32242 0.53535 0.35587 0.0
H433 H 0.51807 0.71018 0.29445 0.0
H434 H 0.468 0.6566 0.3078 0.0
C435 C 0.29123 0.50576 0.36265 0.0
C436 C 0.35223 0.59107 0.33827 0.0
H437 H 0.39858 0.63508 0.3039 0.0
C438 C 0.37642 0.61646 0.34974 0.0
C439 C 0.36068 0.59748 0.32155 0.0
C440 C 0.33709 0.57023 0.30867 0.0
C441 C 0.40892 0.6481 0.34496 0.0
C442 C 0.41676 0.65509 0.32821 0.0
C443 C 0.39249 0.62974 0.31675 0.0
C444 C 0.45017 0.68809 0.32213 0.0
C445 C 0.43485 0.67309 0.35791 0.0
C446 C 0.45759 0.72372 0.32616 0.0
C447 C 0.4869 0.7545 0.31882 0.0
C448 C 0.50835 0.74986 0.30704 0.0
C449 C 0.50172 0.71439 0.30345 0.0
C450 C 0.47309 0.68379 0.31103 0.0
H451 H 0.43076 0.65824 0.36959 0.0
H452 H 0.46402 0.68496 0.35415 0.0
H453 H 0.42941 0.69602 0.3601 0.0
H454 H 0.4398 0.72769 0.33441 0.0
H455 H 0.49131 0.78166 0.3216 0.0
H456 H 0.80011 0.29446 0.71283 0.0
H457 H 0.80171 0.34901 0.70157 0.0
H458 H 0.73284 0.28429 0.66177 0.0
H459 H 0.73072 0.22915 0.67311 0.0
H460 H 0.82549 0.38289 0.67158 0.0
H461 H 0.67693 0.3326 0.68146 0.0
H462 H 0.70049 0.31115 0.69073 0.0
H463 H 0.68621 0.3019 0.66985 0.0
C464 C 0.78547 0.29181 0.70162 0.0
C465 C 0.76505 0.25753 0.69389 0.0
C466 C 0.78641 0.323 0.69523 0.0
C467 C 0.76682 0.32043 0.68105 0.0
C468 C 0.74751 0.28655 0.67294 0.0
H469 H 0.78713 0.4889 0.61724 0.0
H470 H 0.79053 0.44026 0.63178 0.0
C471 C 0.74658 0.25523 0.67933 0.0
C472 C 0.76669 0.35335 0.67487 0.0
H473 H 0.71023 0.38765 0.66605 0.0
C474 C 0.80034 0.38406 0.67044 0.0
C475 C 0.73393 0.35498 0.6738 0.0
C476 C 0.69735 0.32356 0.67935 0.0
C477 C 0.80197 0.41605 0.66441 0.0
C478 C 0.76896 0.41695 0.6625 0.0
C479 C 0.73545 0.38673 0.66746 0.0
C480 C 0.76828 0.4478 0.65421 0.0
C481 C 0.83901 0.44855 0.66013 0.0
C482 C 0.75388 0.46769 0.66194 0.0
C483 C 0.75155 0.49548 0.65357 0.0
C484 C 0.76342 0.50346 0.63736 0.0
C485 C 0.77805 0.48363 0.62977 0.0
C486 C 0.78023 0.45593 0.63808 0.0
H487 H 0.86149 0.44809 0.66707 0.0
H488 H 0.84443 0.44739 0.64702 0.0
H489 H 0.83987 0.47499 0.66257 0.0
H490 H 0.74423 0.4615 0.67437 0.0
H491 H 0.74001 0.51027 0.65966 0.0
H492 H 0.24276 0.76312 0.99473 0.0
H493 H 0.29796 0.77143 0.00892 0.0
H494 H 0.34811 0.77428 0.96276 0.0
H495 H 0.29433 0.76795 0.94868 0.0
H496 H 0.32739 0.72884 0.00945 0.0
H497 H 0.43047 0.86259 0.98335 0.0
H498 H 0.38167 0.84464 0.98103 0.0
H499 H 0.40585 0.83015 0.96755 0.0
C500 C 0.26585 0.76599 0.9877 0.0
C501 C 0.26462 0.76535 0.97066 0.0
C502 C 0.29728 0.77075 0.99576 0.0
C503 C 0.32757 0.77451 0.98687 0.0
C504 C 0.32578 0.77297 0.96986 0.0
H505 H 0.51092 0.74372 0.00508 0.0
H506 H 0.4597 0.74912 0.99378 0.0
C507 C 0.29486 0.76901 0.96184 0.0
C508 C 0.36025 0.77771 0.99521 0.0
H509 H 0.45423 0.82549 0.99473 0.0
C510 C 0.35508 0.75033 0.00644 0.0
C511 C 0.39641 0.80591 0.99131 0.0
C512 C 0.40387 0.83766 0.98028 0.0
C513 C 0.38517 0.7495 0.01332 0.0
C514 C 0.42109 0.77652 0.00874 0.0
C515 C 0.42644 0.80456 -0.00204 0.0
C516 C 0.45343 0.77574 0.01504 0.0
C517 C 0.3786 0.71934 0.02516 0.0
C518 C 0.46693 0.78964 0.03052 0.0
C519 C 0.49608 0.78674 0.03696 0.0
C520 C 0.51201 0.76977 0.02798 0.0
C521 C 0.49908 0.75684 0.01225 0.0
C522 C 0.46994 0.75989 0.0058 0.0
H523 H 0.34886 0.69917 0.02678 0.0
H524 H 0.39276 0.70453 0.0209 0.0
H525 H 0.39046 0.73165 0.03716 0.0
H526 H 0.45441 0.80204 0.03774 0.0
H527 H 0.50553 0.79702 0.04911 0.0
H528 H 0.49328 0.29752 0.2931 0.0
H529 H 0.54676 0.3495 0.30556 0.0
H530 H 0.56988 0.27444 0.33195 0.0
H531 H 0.51509 0.2221 0.32003 0.0
H532 H 0.58282 0.33126 0.35031 0.0
H533 H 0.64952 0.38334 0.29072 0.0
H534 H 0.60547 0.38038 0.29149 0.0
H535 H 0.60844 0.33909 0.29305 0.0
C536 C 0.50953 0.29211 0.30169 0.0
C537 C 0.50042 0.25592 0.3055 0.0
C538 C 0.54027 0.32181 0.30868 0.0
C539 C 0.56302 0.3158 0.31921 0.0
C540 C 0.55292 0.27963 0.32367 0.0
H541 H 0.78517 0.49388 0.34155 0.0
H542 H 0.73255 0.43811 0.33047 0.0
C543 C 0.52164 0.24982 0.31692 0.0
C544 C 0.5975 0.34737 0.32536 0.0
H545 H 0.67506 0.42524 0.3131 0.0
C546 C 0.60317 0.35164 0.34219 0.0
C547 C 0.62455 0.37339 0.31472 0.0
C548 C 0.6219 0.3686 0.2965 0.0
C549 C 0.63448 0.38204 0.3487 0.0
C550 C 0.66003 0.40955 0.33808 0.0
C551 C 0.65509 0.40452 0.32124 0.0
C552 C 0.69174 0.44397 0.34419 0.0
C553 C 0.63999 0.38403 0.36687 0.0
C554 C 0.68612 0.46637 0.35509 0.0
C555 C 0.71603 0.49774 0.36157 0.0
C556 C 0.75203 0.50781 0.35692 0.0
C557 C 0.75763 0.48665 0.3453 0.0
C558 C 0.72765 0.45479 0.33903 0.0
H559 H 0.62573 0.35616 0.37245 0.0
H560 H 0.66962 0.39767 0.37009 0.0
H561 H 0.62812 0.40001 0.37229 0.0
H562 H 0.65859 0.45934 0.35875 0.0
H563 H 0.71096 0.51387 0.37037 0.0
H564 H 0.19204 0.48542 0.62996 0.0
H565 H 0.19322 0.53888 0.64226 0.0
H566 H 0.29049 0.56197 0.66933 0.0
H567 H 0.28883 0.50757 0.65731 0.0
H568 H 0.24247 0.57646 0.68672 0.0
H569 H 0.27012 0.64053 0.62573 0.0
H570 H 0.22867 0.59656 0.62622 0.0
H571 H 0.2723 0.59946 0.62995 0.0
C572 C 0.21321 0.50143 0.6388 0.0
C573 C 0.24064 0.49283 0.64257 0.0
C574 C 0.21401 0.53206 0.64571 0.0
C575 C 0.24268 0.55496 0.65622 0.0
C576 C 0.26845 0.5448 0.66104 0.0
H577 H 0.29407 0.78093 0.67538 0.0
H578 H 0.2961 0.72704 0.6651 0.0
C579 C 0.26736 0.5137 0.65427 0.0
C580 C 0.24661 0.59043 0.66136 0.0
H581 H 0.25285 0.66918 0.64634 0.0
C582 C 0.24505 0.59691 0.67794 0.0
C583 C 0.25107 0.61747 0.64985 0.0
C584 C 0.25606 0.61339 0.63196 0.0
C585 C 0.24606 0.62909 0.68331 0.0
C586 C 0.24757 0.65478 0.6717 0.0
C587 C 0.25092 0.64909 0.65517 0.0
C588 C 0.24489 0.68727 0.6765 0.0
C589 C 0.24568 0.63527 0.70135 0.0
C590 C 0.21455 0.68261 0.68553 0.0
C591 C 0.21359 0.71313 0.69151 0.0
C592 C 0.24249 0.7488 0.68818 0.0
C593 C 0.27143 0.75362 0.67804 0.0
C594 C 0.27271 0.72294 0.67228 0.0
H595 H 0.25656 0.62005 0.7083 0.0
H596 H 0.26227 0.66496 0.70445 0.0
H597 H 0.21692 0.62497 0.70537 0.0
H598 H 0.19212 0.65532 0.68838 0.0
H599 H 0.19074 0.70877 0.69914 0.0
H600 H 0.40145 0.25779 0.10055 0.0
H601 H 0.38861 0.25079 0.12992 0.0
H602 H 0.35556 0.13577 0.12672 0.0
H603 H 0.36837 0.14245 0.09763 0.0
H604 H 0.31881 0.18721 0.15063 0.0
H605 H 0.45569 0.1966 0.15578 0.0
H606 H 0.44398 0.21617 0.13884 0.0
H607 H 0.4247 0.16727 0.14023 0.0
C608 C 0.3904 0.23084 0.10605 0.0
C609 C 0.3864 0.20079 0.0969 0.0
C610 C 0.38313 0.22688 0.12278 0.0
C611 C 0.37147 0.19282 0.13039 0.0
C612 C 0.36466 0.16225 0.12102 0.0
H613 H 0.39253 0.14391 0.23146 0.0
H614 H 0.37681 0.13529 0.20244 0.0
C615 C 0.37215 0.1662 0.10444 0.0
C616 C 0.37116 0.18996 0.14825 0.0
H617 H 0.42165 0.1858 0.17977 0.0
C618 C 0.34121 0.18691 0.15706 0.0
C619 C 0.40026 0.1891 0.15647 0.0
C620 C 0.43317 0.19262 0.14744 0.0
C621 C 0.33975 0.18317 0.17406 0.0
C622 C 0.3693 0.18309 0.18233 0.0
C623 C 0.39889 0.18552 0.17341 0.0
C624 C 0.3722 0.18426 0.20027 0.0
C625 C 0.30656 0.17911 0.18299 0.0
C626 C 0.37421 0.21423 0.20867 0.0
C627 C 0.38322 0.21923 0.22511 0.0
C628 C 0.39068 0.19447 0.23352 0.0
C629 C 0.38682 0.16336 0.22532 0.0
C630 C 0.37791 0.15846 0.20877 0.0
H631 H 0.28194 0.16746 0.17498 0.0
H632 H 0.30018 0.16116 0.19383 0.0
H633 H 0.31219 0.20664 0.18709 0.0
H634 H 0.37073 0.23491 0.20232 0.0
H635 H 0.3857 0.24336 0.23108 0.0
H636 H 0.1542 0.41357 0.43435 0.0
H637 H 0.15314 0.40274 0.46372 0.0
H638 H 0.21135 0.34354 0.45618 0.0
H639 H 0.21356 0.3554 0.427 0.0
H640 H 0.13153 0.3428 0.48518 0.0
H641 H 0.28389 0.43242 0.48283 0.0
H642 H 0.25472 0.42747 0.46581 0.0
H643 H 0.26531 0.3919 0.47039 0.0
C644 C 0.16566 0.39725 0.43895 0.0
C645 C 0.18431 0.38564 0.42854 0.0
C646 C 0.16522 0.39121 0.4557 0.0
C647 C 0.18312 0.37325 0.46212 0.0
C648 C 0.19827 0.3583 0.4515 0.0
H649 H 0.24288 0.38081 0.56593 0.0
H650 H 0.23392 0.36208 0.53717 0.0
C651 C 0.19925 0.36483 0.43485 0.0
C652 C 0.18947 0.37384 0.47983 0.0
H653 H 0.25737 0.41148 0.5085 0.0
C654 C 0.15904 0.35739 0.49028 0.0
C655 C 0.22548 0.39293 0.48645 0.0
C656 C 0.25926 0.41247 0.47584 0.0
C657 C 0.16362 0.36044 0.50719 0.0
C658 C 0.19949 0.38076 0.51375 0.0
C659 C 0.22998 0.39569 0.50337 0.0
C660 C 0.2055 0.39153 0.53104 0.0
C661 C 0.13002 0.34283 0.51794 0.0
C662 C 0.19363 0.41517 0.53682 0.0
C663 C 0.19893 0.4261 0.55299 0.0
C664 C 0.21632 0.41366 0.56385 0.0
C665 C 0.22931 0.39079 0.55792 0.0
C666 C 0.22406 0.37992 0.54156 0.0
H667 H 0.10616 0.31987 0.51164 0.0
H668 H 0.13555 0.33221 0.52932 0.0
H669 H 0.12235 0.36375 0.52126 0.0
H670 H 0.18017 0.42523 0.52877 0.0
H671 H 0.18895 0.44413 0.55698 0.0
H672 H 0.78157 0.14182 0.90012 0.0
H673 H 0.78819 0.13326 0.87124 0.0
H674 H 0.86229 0.25 0.86595 0.0
H675 H 0.85596 0.25874 0.89506 0.0
H676 H 0.79494 0.21751 0.84679 0.0
H677 H 0.87057 0.141 0.84018 0.0
H678 H 0.83562 0.12433 0.85566 0.0
H679 H 0.87564 0.16912 0.85771 0.0
C680 C 0.80022 0.16552 0.8929 0.0
C681 C 0.81816 0.20097 0.89974 0.0
C682 C 0.8041 0.16054 0.87643 0.0
C683 C 0.82582 0.19095 0.86652 0.0
C684 C 0.84564 0.22617 0.8735 0.0
H685 H 0.85951 0.21353 0.76412 0.0
H686 H 0.86536 0.20682 0.79326 0.0
C687 C 0.84216 0.23113 0.89009 0.0
C688 C 0.82291 0.18646 0.84868 0.0
H689 H 0.8388 0.14417 0.81682 0.0
C690 C 0.8047 0.20166 0.84021 0.0
C691 C 0.83538 0.16546 0.84024 0.0
C692 C 0.85566 0.1492 0.84885 0.0
C693 C 0.79841 0.19626 0.82346 0.0
C694 C 0.81039 0.17483 0.81502 0.0
C695 C 0.82902 0.15995 0.82344 0.0
C696 C 0.80701 0.17115 0.79718 0.0
C697 C 0.77955 0.21408 0.81485 0.0
C698 C 0.77237 0.15167 0.78965 0.0
C699 C 0.76896 0.15521 0.77291 0.0
C700 C 0.80015 0.17859 0.76366 0.0
C701 C 0.83502 0.19551 0.77104 0.0
C702 C 0.83844 0.19165 0.78766 0.0
H703 H 0.77696 0.23419 0.8227 0.0
H704 H 0.79494 0.22847 0.8037 0.0
H705 H 0.75151 0.19251 0.81113 0.0
H706 H 0.74783 0.1356 0.79687 0.0
H707 H 0.74179 0.1421 0.76749 0.0
H708 H 0.66856 0.85658 0.0945 0.0
H709 H 0.6821 0.86436 0.12361 0.0
H710 H 0.60126 0.74999 0.1314 0.0
H711 H 0.58943 0.74188 0.1022 0.0
H712 H 0.63343 0.8599 0.14363 0.0
H713 H 0.67361 0.76036 0.16472 0.0
H714 H 0.67433 0.77138 0.14347 0.0
H715 H 0.63231 0.73695 0.15296 0.0
C716 C 0.65512 0.83277 0.1024 0.0
C717 C 0.6283 0.79858 0.09622 0.0
C718 C 0.66265 0.83725 0.11902 0.0
C719 C 0.64286 0.80779 0.12977 0.0
C720 C 0.61773 0.77294 0.1234 0.0
H721 H 0.54396 0.76129 0.22004 0.0
H722 H 0.56656 0.76969 0.19225 0.0
C723 C 0.61085 0.76826 0.10669 0.0
C724 C 0.64355 0.81482 0.14748 0.0
H725 H 0.64152 0.77764 0.1846 0.0
C726 C 0.63633 0.84259 0.15261 0.0
C727 C 0.64735 0.79237 0.15926 0.0
C728 C 0.65773 0.7639 0.15478 0.0
C729 C 0.63019 0.8467 0.16902 0.0
C730 C 0.63118 0.82237 0.18055 0.0
C731 C 0.64061 0.79614 0.17564 0.0
C732 C 0.61736 0.82007 0.19724 0.0
C733 C 0.62025 0.87531 0.17385 0.0
C734 C 0.6381 0.84641 0.20911 0.0
C735 C 0.6251 0.8418 0.22513 0.0
C736 C 0.59142 0.81065 0.22938 0.0
C737 C 0.5702 0.78538 0.2172 0.0
C738 C 0.58307 0.79004 0.20132 0.0
H739 H 0.61983 0.89161 0.1633 0.0
H740 H 0.59274 0.86177 0.17972 0.0
H741 H 0.64047 0.89442 0.18285 0.0
H742 H 0.66468 0.86979 0.20611 0.0
H743 H 0.64211 0.86156 0.23429 0.0
H744 H 0.85299 0.6087 0.56004 0.0
H745 H 0.85987 0.62581 0.53149 0.0
H746 H 0.75459 0.62034 0.53214 0.0
H747 H 0.74728 0.60302 0.56111 0.0
H748 H 0.7894 0.57013 0.50898 0.0
H749 H 0.84589 0.72183 0.50595 0.0
H750 H 0.85743 0.7015 0.52266 0.0
H751 H 0.81166 0.69396 0.52093 0.0
C752 C 0.83141 0.61159 0.55424 0.0
C753 C 0.79926 0.60393 0.56275 0.0
C754 C 0.83559 0.62165 0.53795 0.0
C755 C 0.80782 0.62436 0.52982 0.0
C756 C 0.77643 0.61864 0.53837 0.0
H757 H 0.77523 0.63817 0.42787 0.0
H758 H 0.78019 0.64832 0.45718 0.0
C759 C 0.77227 0.60873 0.55484 0.0
C760 C 0.81002 0.62812 0.51201 0.0
H761 H 0.8402 0.69088 0.48114 0.0
C762 C 0.8003 0.59645 0.50285 0.0
C763 C 0.82449 0.66258 0.50423 0.0
C764 C 0.83558 0.69712 0.51384 0.0
C765 C 0.80479 0.59829 0.48597 0.0
C766 C 0.81999 0.63287 0.47813 0.0
C767 C 0.82915 0.66456 0.48727 0.0
C768 C 0.82373 0.63557 0.46028 0.0
C769 C 0.7928 0.56313 0.4766 0.0
C770 C 0.84802 0.62697 0.45226 0.0
C771 C 0.84536 0.62126 0.43544 0.0
C772 C 0.81814 0.62379 0.42657 0.0
C773 C 0.79617 0.63561 0.43447 0.0
C774 C 0.79905 0.64159 0.45119 0.0
H775 H 0.77561 0.53827 0.4841 0.0
H776 H 0.7769 0.56211 0.46564 0.0
H777 H 0.81748 0.56213 0.47254 0.0
H778 H 0.8674 0.62244 0.45914 0.0
H779 H 0.86256 0.61212 0.42966 0.0
H780 H 0.15169 0.73917 0.89388 0.0
H781 H 0.14406 0.74611 0.86463 0.0
H782 H 0.22259 0.86219 0.86789 0.0
H783 H 0.23057 0.85549 0.89682 0.0
H784 H 0.1388 0.81673 0.84479 0.0
H785 H 0.25937 0.79591 0.83785 0.0
H786 H 0.22621 0.77384 0.85395 0.0
H787 H 0.2578 0.8224 0.85475 0.0
C788 C 0.16633 0.76628 0.88841 0.0
C789 C 0.19199 0.79672 0.89747 0.0
C790 C 0.16202 0.77021 0.87177 0.0
C791 C 0.18295 0.80465 0.86423 0.0
C792 C 0.20624 0.83548 0.87356 0.0
H793 H 0.25423 0.85828 0.76372 0.0
H794 H 0.24796 0.86475 0.79303 0.0
C795 C 0.21084 0.83154 0.89004 0.0
C796 C 0.18496 0.80793 0.84639 0.0
H797 H 0.23694 0.80939 0.8143 0.0
C798 C 0.16007 0.815 0.83805 0.0
C799 C 0.21327 0.80637 0.83782 0.0
C800 C 0.24078 0.79915 0.84644 0.0
C801 C 0.16264 0.82025 0.82113 0.0
C802 C 0.19057 0.81794 0.81248 0.0
C803 C 0.21575 0.81145 0.82096 0.0
C804 C 0.19232 0.81863 0.79453 0.0
C805 C 0.13569 0.82851 0.81269 0.0
C806 C 0.16295 0.79106 0.7857 0.0
C807 C 0.16648 0.7873 0.7691 0.0
C808 C 0.19959 0.81089 0.76098 0.0
C809 C 0.22837 0.83981 0.76964 0.0
C810 C 0.22485 0.84346 0.78636 0.0
H811 H 0.12445 0.84104 0.82117 0.0
H812 H 0.14871 0.8474 0.80224 0.0
H813 H 0.11227 0.80244 0.80807 0.0
H814 H 0.13794 0.77113 0.79178 0.0
H815 H 0.14367 0.76488 0.76275 0.0
H816 H 0.60823 0.6629 0.03851 0.0
H817 H 0.58547 0.59621 0.03879 0.0
H818 H 0.48833 0.57804 0.06453 0.0
H819 H 0.51102 0.64385 0.06466 0.0
H820 H 0.51573 0.5388 0.0777 0.0
H821 H 0.50434 0.51748 0.01092 0.0
H822 H 0.54953 0.55068 0.01792 0.0
H823 H 0.51225 0.5598 0.02018 0.0
C824 C 0.58217 0.64464 0.04431 0.0
C825 C 0.56152 0.65882 0.05156 0.0
C826 C 0.56897 0.60648 0.04432 0.0
C827 C 0.53479 0.58188 0.05145 0.0
C828 C 0.51465 0.59625 0.0589 0.0
H829 H 0.40024 0.34211 0.03975 0.0
H830 H 0.42348 0.40888 0.03954 0.0
C831 C 0.52778 0.63408 0.05896 0.0
C832 C 0.51976 0.54122 0.0516 0.0
H833 H 0.49099 0.46562 0.02722 0.0
C834 C 0.51039 0.52287 0.06664 0.0
C835 C 0.51209 0.52019 0.03718 0.0
C836 C 0.51972 0.5379 0.02061 0.0
C837 C 0.4939 0.48438 0.06769 0.0
C838 C 0.48717 0.46343 0.05332 0.0
C839 C 0.49621 0.48164 0.03824 0.0
C840 C 0.47208 0.42283 0.05379 0.0
C841 C 0.48317 0.46643 0.0842 0.0
C842 C 0.49152 0.40844 0.06188 0.0
C843 C 0.47826 0.37054 0.0621 0.0
C844 C 0.44526 0.34593 0.05414 0.0
C845 C 0.42548 0.36024 0.04616 0.0
C846 C 0.43889 0.3984 0.04592 0.0
H847 H 0.47997 0.48439 0.09318 0.0
H848 H 0.45701 0.4397 0.08362 0.0
H849 H 0.50508 0.46122 0.08869 0.0
H850 H 0.51747 0.42664 0.06779 0.0
H851 H 0.49441 0.36062 0.06826 0.0
H852 H 0.88933 0.54042 0.4078 0.0
H853 H 0.93316 0.51825 0.40837 0.0
H854 H 0.97912 0.57347 0.36288 0.0
H855 H 0.93652 0.59746 0.36283 0.0
H856 H 0.93777 0.47272 0.38927 0.0
H857 H 0.07193 0.60206 0.38601 0.0
H858 H 0.02949 0.60186 0.38961 0.0
H859 H 0.04261 0.59738 0.36926 0.0
C860 C 0.90951 0.54868 0.39815 0.0
C861 C 0.90987 0.5711 0.38539 0.0
C862 C 0.9344 0.53574 0.39841 0.0
C863 C 0.95989 0.54429 0.38574 0.0
C864 C 0.96063 0.56723 0.37306 0.0
H865 H 0.06387 0.40946 0.36836 0.0
H866 H 0.02191 0.43425 0.36796 0.0
C867 C 0.93621 0.58095 0.37301 0.0
C868 C 0.98387 0.52729 0.38549 0.0
H869 H 0.07289 0.54646 0.38187 0.0
C870 C 0.96736 0.48898 0.38775 0.0
C871 C 0.02259 0.54827 0.3836 0.0
C872 C 0.04274 0.58969 0.38215 0.0
C873 C 0.98827 0.47123 0.38831 0.0
C874 C 0.02682 0.49206 0.38596 0.0
C875 C 0.04333 0.53031 0.38358 0.0
C876 C 0.05092 0.47526 0.38658 0.0
C877 C 0.96884 0.43053 0.39199 0.0
C878 C 0.0815 0.49009 0.39701 0.0
C879 C 0.10574 0.47636 0.39705 0.0
C880 C 0.09991 0.44718 0.38676 0.0
C881 C 0.06876 0.43153 0.37663 0.0
C882 C 0.04471 0.44569 0.37642 0.0
H883 H 0.94212 0.42123 0.39821 0.0
H884 H 0.96309 0.41499 0.38044 0.0
H885 H 0.98601 0.42344 0.39977 0.0
H886 H 0.08699 0.5128 0.405 0.0
H887 H 0.12953 0.48913 0.40497 0.0
H888 H 0.66136 0.05978 0.70371 0.0
H889 H 0.59466 0.01607 0.70382 0.0
H890 H 0.57862 0.08708 0.73649 0.0
H891 H 0.64464 0.13034 0.73655 0.0
H892 H 0.53887 0.01383 0.74549 0.0
H893 H 0.51668 0.03196 0.6804 0.0
H894 H 0.5509 0.01909 0.68427 0.0
H895 H 0.5585 0.06304 0.69106 0.0
C896 C 0.64361 0.0658 0.71105 0.0
C897 C 0.65836 0.09859 0.72009 0.0
C898 C 0.60546 0.04101 0.71097 0.0
C899 C 0.58149 0.04858 0.71996 0.0
C900 C 0.59642 0.08069 0.72939 0.0
H901 H 0.34158 0.94593 0.70959 0.0
H902 H 0.40816 0.98998 0.71052 0.0
C903 C 0.63429 0.10542 0.72941 0.0
C904 C 0.54083 0.02335 0.71973 0.0
H905 H 0.46504 0.98715 0.69508 0.0
C906 C 0.52275 0.00796 0.73446 0.0
C907 C 0.51964 0.01631 0.7054 0.0
C908 C 0.53724 0.03366 0.68939 0.0
C909 C 0.48428 0.98535 0.73523 0.0
C910 C 0.46314 0.97726 0.72082 0.0
C911 C 0.48115 0.99315 0.70612 0.0
C912 C 0.42258 0.95127 0.7207 0.0
C913 C 0.46665 0.97089 0.75159 0.0
C914 C 0.40846 0.91491 0.72605 0.0
C915 C 0.37066 0.89 0.72569 0.0
C916 C 0.34582 0.90055 0.71975 0.0
C917 C 0.35986 0.93701 0.71439 0.0
C918 C 0.39793 0.96212 0.71482 0.0
H919 H 0.48439 0.9885 0.76164 0.0
H920 H 0.43947 0.96923 0.75245 0.0
H921 H 0.46254 0.94286 0.75337 0.0
H922 H 0.4268 0.9055 0.73025 0.0
H923 H 0.36101 0.86208 0.72976 0.0
H924 H 0.6413 0.50324 0.59735 0.0
H925 H 0.57634 0.48462 0.59794 0.0
H926 H 0.60298 0.5896 0.61839 0.0
H927 H 0.66892 0.60867 0.61802 0.0
H928 H 0.53604 0.48474 0.62843 0.0
H929 H 0.5322 0.56967 0.57726 0.0
H930 H 0.56787 0.55771 0.57894 0.0
H931 H 0.56798 0.59149 0.59229 0.0
C932 C 0.63364 0.5227 0.60188 0.0
C933 C 0.66051 0.55757 0.60765 0.0
C934 C 0.59633 0.51185 0.60224 0.0
C935 C 0.58477 0.53562 0.60821 0.0
C936 C 0.61138 0.57087 0.61365 0.0
H937 H 0.3677 0.51166 0.61169 0.0
H938 H 0.43315 0.53278 0.61177 0.0
C939 C 0.64901 0.58177 0.6134 0.0
C940 C 0.5447 0.52261 0.60903 0.0
H941 H 0.47627 0.5303 0.59034 0.0
C942 C 0.52288 0.49479 0.62018 0.0
C943 C 0.52769 0.5357 0.59824 0.0
C944 C 0.5499 0.56518 0.58591 0.0
C945 C 0.48451 0.48001 0.62098 0.0
C946 C 0.4672 0.49247 0.60991 0.0
C947 C 0.48926 0.52045 0.59878 0.0
C948 C 0.42664 0.47837 0.61008 0.0
C949 C 0.46322 0.45196 0.63399 0.0
C950 C 0.40057 0.44048 0.60903 0.0
C951 C 0.3626 0.42809 0.60929 0.0
C952 C 0.35007 0.45346 0.61016 0.0
C953 C 0.37625 0.49126 0.61088 0.0
C954 C 0.41389 0.50349 0.61093 0.0
H955 H 0.4813 0.45373 0.64423 0.0
H956 H 0.44063 0.45562 0.63889 0.0
H957 H 0.45105 0.42391 0.62874 0.0
H958 H 0.4095 0.42046 0.60789 0.0
H959 H 0.34316 0.39884 0.60863 0.0
H960 H 0.06356 0.66491 0.95477 0.0
H961 H 0.01769 0.59865 0.95453 0.0
H962 H 0.09657 0.57606 0.93154 0.0
H963 H 0.14154 0.6413 0.93134 0.0
H964 H 0.03116 0.53803 0.91734 0.0
H965 H 0.01455 0.5196 0.98421 0.0
H966 H 0.00465 0.55342 0.97605 0.0
H967 H 0.05071 0.56103 0.975 0.0
C968 C 0.07089 0.64576 0.94956 0.0
C969 C 0.10628 0.65852 0.94311 0.0
C970 C 0.04482 0.60785 0.94959 0.0
C971 C 0.05383 0.58214 0.94327 0.0
C972 C 0.08886 0.59513 0.93654 0.0
H973 H 0.94193 0.34263 0.9577 0.0
H974 H 0.9868 0.40912 0.95761 0.0
C975 C 0.11465 0.63266 0.93645 0.0
C976 C 0.02722 0.54167 0.94329 0.0
H977 H 0.97692 0.46736 0.968 0.0
C978 C 0.01927 0.52266 0.92844 0.0
C979 C 0.0122 0.52133 0.95778 0.0
C980 C 0.02114 0.53973 0.9742 0.0
C981 C 0.99677 0.48418 0.92765 0.0
C982 C 0.9809 0.46395 0.94206 0.0
C983 C 0.98899 0.48282 0.95694 0.0
C984 C 0.9547 0.42346 0.94177 0.0
C985 C 0.99084 0.4655 0.91137 0.0
C986 C 0.92187 0.40937 0.9329 0.0
C987 C 0.89653 0.37166 0.93285 0.0
C988 C 0.90312 0.3469 0.94179 0.0
C989 C 0.93621 0.36087 0.95055 0.0
C990 C 0.96171 0.39887 0.95061 0.0
H991 H 0.01321 0.48271 0.90269 0.0
H992 H 0.98934 0.43841 0.91258 0.0
H993 H 0.96454 0.46087 0.90609 0.0
H994 H 0.91542 0.4277 0.92624 0.0
H995 H 0.87126 0.36201 0.92605 0.0
H996 H 0.52565 0.88326 0.25451 0.0
H997 H 0.50475 0.92805 0.25418 0.0
H998 H 0.5702 0.98022 0.2968 0.0
H999 H 0.5928 0.93637 0.29654 0.0
H1000 H 0.46421 0.93639 0.27495 0.0
H1001 H 0.59467 0.0696 0.27134 0.0
H1002 H 0.59292 0.02621 0.26832 0.0
H1003 H 0.59321 0.04271 0.28855 0.0
C1004 C 0.53636 0.90493 0.26355 0.0
C1005 C 0.56119 0.90663 0.27543 0.0
C1006 C 0.52417 0.9304 0.26344 0.0
C1007 C 0.53592 0.95788 0.2754 0.0
C1008 C 0.56136 0.96005 0.28716 0.0
H1009 H 0.4078 0.06835 0.29475 0.0
H1010 H 0.43144 0.02544 0.29521 0.0
C1011 C 0.57429 0.93494 0.28703 0.0
C1012 C 0.51959 0.98244 0.27593 0.0
H1013 H 0.54063 0.07235 0.27703 0.0
C1014 C 0.48103 0.96615 0.27532 0.0
C1015 C 0.5413 0.02134 0.27633 0.0
C1016 C 0.5828 0.04102 0.27601 0.0
C1017 C 0.46369 0.98743 0.27484 0.0
C1018 C 0.48534 0.02629 0.27566 0.0
C1019 C 0.52388 0.04259 0.27648 0.0
C1020 C 0.46897 0.05078 0.27501 0.0
C1021 C 0.42242 0.96793 0.27287 0.0
C1022 C 0.48221 0.07964 0.26366 0.0
C1023 C 0.46922 0.1045 0.2636 0.0
C1024 C 0.4423 0.10093 0.27477 0.0
C1025 C 0.428 0.07136 0.28578 0.0
C1026 C 0.44154 0.04678 0.28604 0.0
H1027 H 0.41158 0.94013 0.26747 0.0
H1028 H 0.40945 0.96438 0.28498 0.0
H1029 H 0.41391 0.98394 0.26504 0.0
H1030 H 0.50322 0.08341 0.25498 0.0
H1031 H 0.48093 0.12712 0.25502 0.0
loop_
_geom_bond_atom_site_label_1
_geom_bond_atom_site_label_2
_geom_bond_distance
_geom_bond_site_symmetry_2
_ccdc_geom_bond_type
Co0 O1 2.216 . S
Co0 O2 2.091 . S
Co0 O4 2.004 . S
Co0 O10 2.021 . S
Co0 O12 2.137 . S
Co0 O13 2.244 . S
O1 Co0 2.216 . S
O1 C8 1.247 . S
O2 Co0 2.091 . S
O2 C8 1.261 . S
C3 O12 1.247 . S
C3 O13 1.272 . S
O4 Co0 2.004 . S
O4 C9 1.259 . S
Co5 O6 2.061 . S
Co5 O11 2.052 . S
Co5 O13 2.135 . S
O6 Co5 2.061 . S
O6 C9 1.235 . S
C7 O10 1.238 . S
C7 O11 1.241 . S
C8 O1 1.247 . S
C8 O2 1.261 . S
C9 O4 1.259 . S
C9 O6 1.235 . S
O10 Co0 2.021 . S
O10 C7 1.238 . S
O11 Co5 2.052 . S
O11 C7 1.241 . S
O12 Co0 2.137 . S
O12 C3 1.247 . S
O13 Co0 2.244 . S
O13 C3 1.272 . S
O13 Co5 2.135 . S
Co14 O15 2.216 . S
Co14 O16 2.091 . S
Co14 O18 2.004 . S
Co14 O24 2.021 . S
Co14 O26 2.137 . S
Co14 O27 2.244 . S
O15 Co14 2.216 . S
O15 C22 1.247 . S
O16 Co14 2.091 . S
O16 C22 1.261 . S
C17 O26 1.247 . S
C17 O27 1.272 . S
O18 Co14 2.004 . S
O18 C23 1.259 . S
Co19 O20 2.061 . S
Co19 O25 2.052 . S
Co19 O27 2.135 . S
O20 Co19 2.061 . S
O20 C23 1.235 . S
C21 O24 1.238 . S
C21 O25 1.241 . S
C22 O15 1.247 . S
C22 O16 1.261 . S
C23 O18 1.259 . S
C23 O20 1.235 . S
O24 Co14 2.021 . S
O24 C21 1.238 . S
O25 Co19 2.052 . S
O25 C21 1.241 . S
O26 Co14 2.137 . S
O26 C17 1.247 . S
O27 Co14 2.244 . S
O27 C17 1.272 . S
O27 Co19 2.135 . S
Co28 O29 2.216 . S
Co28 O30 2.091 . S
Co28 O32 2.004 . S
Co28 O38 2.021 . S
Co28 O40 2.137 . S
Co28 O41 2.244 . S
O29 Co28 2.216 . S
O29 C36 1.247 . S
O30 Co28 2.091 . S
O30 C36 1.261 . S
C31 O40 1.247 . S
C31 O41 1.272 . S
O32 Co28 2.004 . S
O32 C37 1.259 . S
Co33 O34 2.061 . S
Co33 O39 2.052 . S
Co33 O41 2.135 . S
O34 Co33 2.061 . S
O34 C37 1.235 . S
C35 O38 1.238 . S
C35 O39 1.241 . S
C36 O29 1.247 . S
C36 O30 1.261 . S
C37 O32 1.259 . S
C37 O34 1.235 . S
O38 Co28 2.021 . S
O38 C35 1.238 . S
O39 Co33 2.052 . S
O39 C35 1.241 . S
O40 Co28 2.137 . S
O40 C31 1.247 . S
O41 Co28 2.244 . S
O41 C31 1.272 . S
O41 Co33 2.135 . S
Co42 O43 2.216 . S
Co42 O44 2.091 . S
Co42 O46 2.004 . S
Co42 O52 2.021 . S
Co42 O54 2.137 . S
Co42 O55 2.244 . S
O43 Co42 2.216 . S
O43 C50 1.247 . S
O44 Co42 2.091 . S
O44 C50 1.261 . S
C45 O54 1.247 . S
C45 O55 1.272 . S
O46 Co42 2.004 . S
O46 C51 1.259 . S
Co47 O48 2.061 . S
Co47 O53 2.052 . S
Co47 O55 2.135 . S
O48 Co47 2.061 . S
O48 C51 1.235 . S
C49 O52 1.238 . S
C49 O53 1.241 . S
C50 O43 1.247 . S
C50 O44 1.261 . S
C51 O46 1.259 . S
C51 O48 1.235 . S
O52 Co42 2.021 . S
O52 C49 1.238 . S
O53 Co47 2.052 . S
O53 C49 1.241 . S
O54 Co42 2.137 . S
O54 C45 1.247 . S
O55 Co42 2.244 . S
O55 C45 1.272 . S
O55 Co47 2.135 . S
Co56 O57 2.216 . S
Co56 O58 2.091 . S
Co56 O60 2.004 . S
Co56 O66 2.021 . S
Co56 O68 2.137 . S
Co56 O69 2.244 . S
O57 Co56 2.216 . S
O57 C64 1.247 . S
O58 Co56 2.091 . S
O58 C64 1.261 . S
C59 O68 1.247 . S
C59 O69 1.272 . S
O60 Co56 2.004 . S
O60 C65 1.259 . S
Co61 O62 2.061 . S
Co61 O67 2.052 . S
Co61 O69 2.135 . S
O62 Co61 2.061 . S
O62 C65 1.235 . S
C63 O66 1.238 . S
C63 O67 1.241 . S
C64 O57 1.247 . S
C64 O58 1.261 . S
C65 O60 1.259 . S
C65 O62 1.235 . S
O66 Co56 2.021 . S
O66 C63 1.238 . S
O67 Co61 2.052 . S
O67 C63 1.241 . S
O68 Co56 2.137 . S
O68 C59 1.247 . S
O69 Co56 2.244 . S
O69 C59 1.272 . S
O69 Co61 2.135 . S
Co70 O71 2.216 . S
Co70 O72 2.091 . S
Co70 O74 2.004 . S
Co70 O80 2.021 . S
Co70 O82 2.137 . S
Co70 O83 2.244 . S
O71 Co70 2.216 . S
O71 C78 1.247 . S
O72 Co70 2.091 . S
O72 C78 1.261 . S
C73 O82 1.247 . S
C73 O83 1.272 . S
O74 Co70 2.004 . S
O74 C79 1.259 . S
Co75 O76 2.061 . S
Co75 O81 2.052 . S
Co75 O83 2.135 . S
O76 Co75 2.061 . S
O76 C79 1.235 . S
C77 O80 1.238 . S
C77 O81 1.241 . S
C78 O71 1.247 . S
C78 O72 1.261 . S
C79 O74 1.259 . S
C79 O76 1.235 . S
O80 Co70 2.021 . S
O80 C77 1.238 . S
O81 Co75 2.052 . S
O81 C77 1.241 . S
O82 Co70 2.137 . S
O82 C73 1.247 . S
O83 Co70 2.244 . S
O83 C73 1.272 . S
O83 Co75 2.135 . S
Co84 O85 2.216 . S
Co84 O86 2.091 . S
Co84 O88 2.004 . S
Co84 O94 2.021 . S
Co84 O96 2.137 . S
Co84 O97 2.244 . S
O85 Co84 2.216 . S
O85 C92 1.247 . S
O86 Co84 2.091 . S
O86 C92 1.261 . S
C87 O96 1.247 . S
C87 O97 1.272 . S
O88 Co84 2.004 . S
O88 C93 1.259 . S
Co89 O90 2.061 . S
Co89 O95 2.052 . S
Co89 O97 2.135 . S
O90 Co89 2.061 . S
O90 C93 1.235 . S
C91 O94 1.238 . S
C91 O95 1.241 . S
C92 O85 1.247 . S
C92 O86 1.261 . S
C93 O88 1.259 . S
C93 O90 1.235 . S
O94 Co84 2.021 . S
O94 C91 1.238 . S
O95 Co89 2.052 . S
O95 C91 1.241 . S
O96 Co84 2.137 . S
O96 C87 1.247 . S
O97 Co84 2.244 . S
O97 C87 1.272 . S
O97 Co89 2.135 . S
Co98 O99 2.216 . S
Co98 O100 2.091 . S
Co98 O102 2.004 . S
Co98 O108 2.021 . S
Co98 O110 2.137 . S
Co98 O111 2.244 . S
O99 Co98 2.216 . S
O99 C106 1.247 . S
O100 Co98 2.091 . S
O100 C106 1.261 . S
C101 O110 1.247 . S
C101 O111 1.272 . S
O102 Co98 2.004 . S
O102 C107 1.259 . S
Co103 O104 2.061 . S
Co103 O109 2.052 . S
Co103 O111 2.135 . S
O104 Co103 2.061 . S
O104 C107 1.235 . S
C105 O108 1.238 . S
C105 O109 1.241 . S
C106 O99 1.247 . S
C106 O100 1.261 . S
C107 O102 1.259 . S
C107 O104 1.235 . S
O108 Co98 2.021 . S
O108 C105 1.238 . S
O109 Co103 2.052 . S
O109 C105 1.241 . S
O110 Co98 2.137 . S
O110 C101 1.247 . S
O111 Co98 2.244 . S
O111 C101 1.272 . S
O111 Co103 2.135 . S
Co112 O113 2.216 . S
Co112 O114 2.091 . S
Co112 O116 2.004 . S
Co112 O122 2.021 . S
Co112 O124 2.137 . S
Co112 O125 2.244 . S
O113 Co112 2.216 . S
O113 C120 1.247 . S
O114 Co112 2.091 . S
O114 C120 1.261 . S
C115 O124 1.247 . S
C115 O125 1.272 . S
O116 Co112 2.004 . S
O116 C121 1.259 . S
Co117 O118 2.061 . S
Co117 O123 2.052 . S
Co117 O125 2.135 . S
O118 Co117 2.061 . S
O118 C121 1.235 . S
C119 O122 1.238 . S
C119 O123 1.241 . S
C120 O113 1.247 . S
C120 O114 1.261 . S
C121 O116 1.259 . S
C121 O118 1.235 . S
O122 Co112 2.021 . S
O122 C119 1.238 . S
O123 Co117 2.052 . S
O123 C119 1.241 . S
O124 Co112 2.137 . S
O124 C115 1.247 . S
O125 Co112 2.244 . S
O125 C115 1.272 . S
O125 Co117 2.135 . S
Co126 O127 2.216 . S
Co126 O128 2.091 . S
Co126 O130 2.004 . S
Co126 O136 2.021 . S
Co126 O138 2.137 . S
Co126 O139 2.244 . S
O127 Co126 2.216 . S
O127 C134 1.247 . S
O128 Co126 2.091 . S
O128 C134 1.261 . S
C129 O138 1.247 . S
C129 O139 1.272 . S
O130 Co126 2.004 . S
O130 C135 1.259 . S
Co131 O132 2.061 . S
Co131 O137 2.052 . S
Co131 O139 2.135 . S
O132 Co131 2.061 . S
O132 C135 1.235 . S
C133 O136 1.238 . S
C133 O137 1.241 . S
C134 O127 1.247 . S
C134 O128 1.261 . S
C135 O130 1.259 . S
C135 O132 1.235 . S
O136 Co126 2.021 . S
O136 C133 1.238 . S
O137 Co131 2.052 . S
O137 C133 1.241 . S
O138 Co126 2.137 . S
O138 C129 1.247 . S
O139 Co126 2.244 . S
O139 C129 1.272 . S
O139 Co131 2.135 . S
Co140 O141 2.216 . S
Co140 O142 2.091 . S
Co140 O144 2.004 . S
Co140 O150 2.021 . S
Co140 O152 2.137 . S
Co140 O153 2.244 . S
O141 Co140 2.216 . S
O141 C148 1.247 . S
O142 Co140 2.091 . S
O142 C148 1.261 . S
C143 O152 1.247 . S
C143 O153 1.272 . S
O144 Co140 2.004 . S
O144 C149 1.259 . S
Co145 O146 2.061 . S
Co145 O151 2.052 . S
Co145 O153 2.135 . S
O146 Co145 2.061 . S
O146 C149 1.235 . S
C147 O150 1.238 . S
C147 O151 1.241 . S
C148 O141 1.247 . S
C148 O142 1.261 . S
C149 O144 1.259 . S
C149 O146 1.235 . S
O150 Co140 2.021 . S
O150 C147 1.238 . S
O151 Co145 2.052 . S
O151 C147 1.241 . S
O152 Co140 2.137 . S
O152 C143 1.247 . S
O153 Co140 2.244 . S
O153 C143 1.272 . S
O153 Co145 2.135 . S
Co154 O155 2.216 . S
Co154 O156 2.091 . S
Co154 O158 2.004 . S
Co154 O164 2.021 . S
Co154 O166 2.137 . S
Co154 O167 2.244 . S
O155 Co154 2.216 . S
O155 C162 1.247 . S
O156 Co154 2.091 . S
O156 C162 1.261 . S
C157 O166 1.247 . S
C157 O167 1.272 . S
O158 Co154 2.004 . S
O158 C163 1.259 . S
Co159 O160 2.061 . S
Co159 O165 2.052 . S
Co159 O167 2.135 . S
O160 Co159 2.061 . S
O160 C163 1.235 . S
C161 O164 1.238 . S
C161 O165 1.241 . S
C162 O155 1.247 . S
C162 O156 1.261 . S
C163 O158 1.259 . S
C163 O160 1.235 . S
O164 Co154 2.021 . S
O164 C161 1.238 . S
O165 Co159 2.052 . S
O165 C161 1.241 . S
O166 Co154 2.137 . S
O166 C157 1.247 . S
O167 Co154 2.244 . S
O167 C157 1.272 . S
O167 Co159 2.135 . S
H168 C176 0.929 . S
H169 C178 0.930 . S
H170 C180 0.930 1_554 S
H171 C183 0.929 . S
H172 C186 0.930 . S
H173 C188 0.960 . S
H174 C188 0.960 1_556 S
H175 C188 0.960 . S
C176 H168 0.929 . S
C176 C177 1.377 . S
C176 C178 1.384 . S
C177 C176 1.377 . S
C177 C183 1.390 . S
C178 H169 0.930 . S
C178 C176 1.384 . S
C178 C179 1.372 . S
C179 C178 1.372 . S
C179 C180 1.400 . S
C179 C184 1.490 . S
C180 H170 0.930 1_556 S
C180 C179 1.400 . S
C180 C183 1.386 . S
H181 C197 0.930 . S
H182 C198 0.931 . S
C183 H171 0.929 . S
C183 C177 1.390 . S
C183 C180 1.386 . S
C184 C179 1.490 . S
C184 C186 1.395 . S
C184 C187 1.403 1_556 S
H185 C191 0.930 . S
C186 H172 0.930 . S
C186 C184 1.395 . S
C186 C189 1.403 1_565 S
C187 C184 1.403 1_554 S
C187 C188 1.524 . S
C187 C191 1.400 1_565 S
C188 H173 0.960 . S
C188 H174 0.960 1_554 S
C188 H175 0.960 . S
C188 C187 1.524 . S
C189 C186 1.403 1_545 S
C189 C190 1.392 1_556 S
C189 C193 1.495 . S
C190 C189 1.392 1_554 S
C190 C191 1.385 . S
C190 C192 1.478 . S
C191 H185 0.930 . S
C191 C187 1.400 1_545 S
C191 C190 1.385 . S
C192 C190 1.478 . S
C192 C194 1.381 . S
C192 C198 1.383 . S
C193 C189 1.495 . S
C193 H199 0.959 . S
C193 H200 0.961 1_556 S
C193 H201 0.960 . S
C194 C192 1.381 . S
C194 C195 1.394 . S
C194 H202 0.930 1_554 S
C195 C194 1.394 . S
C195 C196 1.383 . S
C195 H203 0.929 . S
C196 C195 1.383 . S
C196 C197 1.377 . S
C197 H181 0.930 . S
C197 C196 1.377 . S
C197 C198 1.379 . S
C198 H182 0.931 . S
C198 C192 1.383 . S
C198 C197 1.379 . S
H199 C193 0.959 . S
H200 C193 0.961 1_554 S
H201 C193 0.960 . S
H202 C194 0.930 1_556 S
H203 C195 0.929 . S
H204 C212 0.929 . S
H205 C214 0.930 . S
H206 C216 0.930 . S
H207 C219 0.929 . S
H208 C222 0.930 . S
H209 C224 0.960 . S
H210 C224 0.960 . S
H211 C224 0.960 . S
C212 H204 0.929 . S
C212 C213 1.377 . S
C212 C214 1.384 . S
C213 C212 1.377 . S
C213 C219 1.390 . S
C214 H205 0.930 . S
C214 C212 1.384 . S
C214 C215 1.372 . S
C215 C214 1.372 . S
C215 C216 1.400 . S
C215 C220 1.490 . S
C216 H206 0.930 . S
C216 C215 1.400 . S
C216 C219 1.386 . S
H217 C233 0.930 . S
H218 C234 0.931 . S
C219 H207 0.929 . S
C219 C213 1.390 . S
C219 C216 1.386 . S
C220 C215 1.490 . S
C220 C222 1.395 . S
C220 C223 1.403 . S
H221 C227 0.930 . S
C222 H208 0.930 . S
C222 C220 1.395 . S
C222 C225 1.403 . S
C223 C220 1.403 . S
C223 C224 1.524 . S
C223 C227 1.400 . S
C224 H209 0.960 . S
C224 H210 0.960 . S
C224 H211 0.960 . S
C224 C223 1.524 . S
C225 C222 1.403 . S
C225 C226 1.392 . S
C225 C229 1.495 . S
C226 C225 1.392 . S
C226 C227 1.385 . S
C226 C228 1.478 . S
C227 H221 0.930 . S
C227 C223 1.400 . S
C227 C226 1.385 . S
C228 C226 1.478 . S
C228 C230 1.381 . S
C228 C234 1.383 . S
C229 C225 1.495 . S
C229 H235 0.959 . S
C229 H236 0.961 . S
C229 H237 0.960 . S
C230 C228 1.381 . S
C230 C231 1.394 . S
C230 H238 0.930 . S
C231 C230 1.394 . S
C231 C232 1.383 . S
C231 H239 0.929 . S
C232 C231 1.383 . S
C232 C233 1.377 . S
C233 H217 0.930 . S
C233 C232 1.377 . S
C233 C234 1.379 . S
C234 H218 0.931 . S
C234 C228 1.383 . S
C234 C233 1.379 . S
H235 C229 0.959 . S
H236 C229 0.961 . S
H237 C229 0.960 . S
H238 C230 0.930 . S
H239 C231 0.929 . S
H240 C248 0.929 . S
H241 C250 0.930 . S
H242 C252 0.930 . S
H243 C255 0.929 . S
H244 C258 0.930 . S
H245 C260 0.960 . S
H246 C260 0.960 . S
H247 C260 0.960 . S
C248 H240 0.929 . S
C248 C249 1.377 . S
C248 C250 1.384 . S
C249 C248 1.377 . S
C249 C255 1.390 . S
C250 H241 0.930 . S
C250 C248 1.384 . S
C250 C251 1.372 . S
C251 C250 1.372 . S
C251 C252 1.400 . S
C251 C256 1.490 . S
C252 H242 0.930 . S
C252 C251 1.400 . S
C252 C255 1.386 . S
H253 C269 0.930 . S
H254 C270 0.931 . S
C255 H243 0.929 . S
C255 C249 1.390 . S
C255 C252 1.386 . S
C256 C251 1.490 . S
C256 C258 1.395 . S
C256 C259 1.403 . S
H257 C263 0.930 . S
C258 H244 0.930 . S
C258 C256 1.395 . S
C258 C261 1.403 1_655 S
C259 C256 1.403 . S
C259 C260 1.524 . S
C259 C263 1.400 1_655 S
C260 H245 0.960 . S
C260 H246 0.960 . S
C260 H247 0.960 . S
C260 C259 1.524 . S
C261 C258 1.403 1_455 S
C261 C262 1.392 . S
C261 C265 1.495 . S
C262 C261 1.392 . S
C262 C263 1.385 . S
C262 C264 1.478 . S
C263 H257 0.930 . S
C263 C259 1.400 1_455 S
C263 C262 1.385 . S
C264 C262 1.478 . S
C264 C266 1.381 . S
C264 C270 1.383 . S
C265 C261 1.495 . S
C265 H271 0.959 . S
C265 H272 0.961 . S
C265 H273 0.960 . S
C266 C264 1.381 . S
C266 C267 1.394 . S
C266 H274 0.930 . S
C267 C266 1.394 . S
C267 C268 1.383 . S
C267 H275 0.929 . S
C268 C267 1.383 . S
C268 C269 1.377 . S
C269 H253 0.930 . S
C269 C268 1.377 . S
C269 C270 1.379 . S
C270 H254 0.931 . S
C270 C264 1.383 . S
C270 C269 1.379 . S
H271 C265 0.959 . S
H272 C265 0.961 . S
H273 C265 0.960 . S
H274 C266 0.930 . S
H275 C267 0.929 . S
H276 C284 0.929 . S
H277 C286 0.930 . S
H278 C288 0.930 . S
H279 C291 0.929 . S
H280 C294 0.930 . S
H281 C296 0.960 . S
H282 C296 0.960 . S
H283 C296 0.960 . S
C284 H276 0.929 . S
C284 C285 1.377 . S
C284 C286 1.384 . S
C285 C284 1.377 . S
C285 C291 1.390 . S
C286 H277 0.930 . S
C286 C284 1.384 . S
C286 C287 1.372 . S
C287 C286 1.372 . S
C287 C288 1.400 . S
C287 C292 1.490 . S
C288 H278 0.930 . S
C288 C287 1.400 . S
C288 C291 1.386 . S
H289 C305 0.930 . S
H290 C306 0.931 . S
C291 H279 0.929 . S
C291 C285 1.390 . S
C291 C288 1.386 . S
C292 C287 1.490 . S
C292 C294 1.395 . S
C292 C295 1.403 1_554 S
H293 C299 0.930 . S
C294 H280 0.930 . S
C294 C292 1.395 . S
C294 C297 1.403 1_565 S
C295 C292 1.403 1_556 S
C295 C296 1.524 . S
C295 C299 1.400 1_565 S
C296 H281 0.960 . S
C296 H282 0.960 . S
C296 H283 0.960 . S
C296 C295 1.524 . S
C297 C294 1.403 1_545 S
C297 C298 1.392 1_554 S
C297 C301 1.495 . S
C298 C297 1.392 1_556 S
C298 C299 1.385 . S
C298 C300 1.478 . S
C299 H293 0.930 . S
C299 C295 1.400 1_545 S
C299 C298 1.385 . S
C300 C298 1.478 . S
C300 C302 1.381 . S
C300 C306 1.383 . S
C301 C297 1.495 . S
C301 H307 0.959 . S
C301 H308 0.961 . S
C301 H309 0.960 . S
C302 C300 1.381 . S
C302 C303 1.394 . S
C302 H310 0.930 . S
C303 C302 1.394 . S
C303 C304 1.383 . S
C303 H311 0.929 . S
C304 C303 1.383 . S
C304 C305 1.377 . S
C305 H289 0.930 . S
C305 C304 1.377 . S
C305 C306 1.379 . S
C306 H290 0.931 . S
C306 C300 1.383 . S
C306 C305 1.379 . S
H307 C301 0.959 . S
H308 C301 0.961 . S
H309 C301 0.960 . S
H310 C302 0.930 . S
H311 C303 0.929 . S
H312 C320 0.929 . S
H313 C322 0.930 . S
H314 C324 0.930 . S
H315 C327 0.929 . S
H316 C330 0.930 . S
H317 C332 0.960 . S
H318 C332 0.960 . S
H319 C332 0.960 . S
C320 H312 0.929 . S
C320 C321 1.377 . S
C320 C322 1.384 . S
C321 C320 1.377 . S
C321 C327 1.390 . S
C322 H313 0.930 . S
C322 C320 1.384 . S
C322 C323 1.372 . S
C323 C322 1.372 . S
C323 C324 1.400 . S
C323 C328 1.490 . S
C324 H314 0.930 . S
C324 C323 1.400 . S
C324 C327 1.386 . S
H325 C341 0.930 . S
H326 C342 0.931 . S
C327 H315 0.929 . S
C327 C321 1.390 . S
C327 C324 1.386 . S
C328 C323 1.490 . S
C328 C330 1.395 . S
C328 C331 1.403 . S
H329 C335 0.930 . S
C330 H316 0.930 . S
C330 C328 1.395 . S
C330 C333 1.403 . S
C331 C328 1.403 . S
C331 C332 1.524 . S
C331 C335 1.400 . S
C332 H317 0.960 . S
C332 H318 0.960 . S
C332 H319 0.960 . S
C332 C331 1.524 . S
C333 C330 1.403 . S
C333 C334 1.392 . S
C333 C337 1.495 . S
C334 C333 1.392 . S
C334 C335 1.385 . S
C334 C336 1.478 . S
C335 H329 0.930 . S
C335 C331 1.400 . S
C335 C334 1.385 . S
C336 C334 1.478 . S
C336 C338 1.381 . S
C336 C342 1.383 . S
C337 C333 1.495 . S
C337 H343 0.959 . S
C337 H344 0.961 . S
C337 H345 0.960 . S
C338 C336 1.381 . S
C338 C339 1.394 . S
C338 H346 0.930 . S
C339 C338 1.394 . S
C339 C340 1.383 . S
C339 H347 0.929 . S
C340 C339 1.383 . S
C340 C341 1.377 . S
C341 H325 0.930 . S
C341 C340 1.377 . S
C341 C342 1.379 . S
C342 H326 0.931 . S
C342 C336 1.383 . S
C342 C341 1.379 . S
H343 C337 0.959 . S
H344 C337 0.961 . S
H345 C337 0.960 . S
H346 C338 0.930 . S
H347 C339 0.929 . S
H348 C356 0.929 . S
H349 C358 0.930 . S
H350 C360 0.930 . S
H351 C363 0.929 . S
H352 C366 0.930 . S
H353 C368 0.960 . S
H354 C368 0.960 . S
H355 C368 0.960 . S
C356 H348 0.929 . S
C356 C357 1.377 . S
C356 C358 1.384 . S
C357 C356 1.377 . S
C357 C363 1.390 . S
C358 H349 0.930 . S
C358 C356 1.384 . S
C358 C359 1.372 . S
C359 C358 1.372 . S
C359 C360 1.400 . S
C359 C364 1.490 . S
C360 H350 0.930 . S
C360 C359 1.400 . S
C360 C363 1.386 . S
H361 C377 0.930 . S
H362 C378 0.931 . S
C363 H351 0.929 . S
C363 C357 1.390 . S
C363 C360 1.386 . S
C364 C359 1.490 . S
C364 C366 1.395 . S
C364 C367 1.403 . S
H365 C371 0.930 . S
C366 H352 0.930 . S
C366 C364 1.395 . S
C366 C369 1.403 1_655 S
C367 C364 1.403 . S
C367 C368 1.524 . S
C367 C371 1.400 1_655 S
C368 H353 0.960 . S
C368 H354 0.960 . S
C368 H355 0.960 . S
C368 C367 1.524 . S
C369 C366 1.403 1_455 S
C369 C370 1.392 . S
C369 C373 1.495 . S
C370 C369 1.392 . S
C370 C371 1.385 . S
C370 C372 1.478 . S
C371 H365 0.930 . S
C371 C367 1.400 1_455 S
C371 C370 1.385 . S
C372 C370 1.478 . S
C372 C374 1.381 . S
C372 C378 1.383 . S
C373 C369 1.495 . S
C373 H379 0.959 . S
C373 H380 0.961 . S
C373 H381 0.960 . S
C374 C372 1.381 . S
C374 C375 1.394 . S
C374 H382 0.930 . S
C375 C374 1.394 . S
C375 C376 1.383 . S
C375 H383 0.929 . S
C376 C375 1.383 . S
C376 C377 1.377 . S
C377 H361 0.930 . S
C377 C376 1.377 . S
C377 C378 1.379 . S
C378 H362 0.931 . S
C378 C372 1.383 . S
C378 C377 1.379 . S
H379 C373 0.959 . S
H380 C373 0.961 . S
H381 C373 0.960 . S
H382 C374 0.930 . S
H383 C375 0.929 . S
H384 C392 0.929 . S
H385 C394 0.930 1_554 S
H386 C396 0.930 . S
H387 C399 0.929 . S
H388 C402 0.930 . S
H389 C404 0.960 . S
H390 C404 0.960 . S
H391 C404 0.960 . S
C392 H384 0.929 . S
C392 C393 1.377 . S
C392 C394 1.384 . S
C393 C392 1.377 . S
C393 C399 1.390 . S
C394 H385 0.930 1_556 S
C394 C392 1.384 . S
C394 C395 1.372 . S
C395 C394 1.372 . S
C395 C396 1.400 . S
C395 C400 1.490 . S
C396 H386 0.930 . S
C396 C395 1.400 . S
C396 C399 1.386 . S
H397 C413 0.930 . S
H398 C414 0.931 1_556 S
C399 H387 0.929 . S
C399 C393 1.390 . S
C399 C396 1.386 . S
C400 C395 1.490 . S
C400 C402 1.395 1_556 S
C400 C403 1.403 . S
H401 C407 0.930 . S
C402 H388 0.930 . S
C402 C400 1.395 1_554 S
C402 C405 1.403 . S
C403 C400 1.403 . S
C403 C404 1.524 . S
C403 C407 1.400 . S
C404 H389 0.960 . S
C404 H390 0.960 . S
C404 H391 0.960 . S
C404 C403 1.524 . S
C405 C402 1.403 . S
C405 C406 1.392 . S
C405 C409 1.495 . S
C406 C405 1.392 . S
C406 C407 1.385 1_554 S
C406 C408 1.478 . S
C407 H401 0.930 . S
C407 C403 1.400 . S
C407 C406 1.385 1_556 S
C408 C406 1.478 . S
C408 C410 1.381 . S
C408 C414 1.383 . S
C409 C405 1.495 . S
C409 H415 0.959 . S
C409 H416 0.961 . S
C409 H417 0.960 . S
C410 C408 1.381 . S
C410 C411 1.394 . S
C410 H418 0.930 . S
C411 C410 1.394 . S
C411 C412 1.383 . S
C411 H419 0.929 . S
C412 C411 1.383 . S
C412 C413 1.377 . S
C413 H397 0.930 . S
C413 C412 1.377 . S
C413 C414 1.379 . S
C414 H398 0.931 1_554 S
C414 C408 1.383 . S
C414 C413 1.379 . S
H415 C409 0.959 . S
H416 C409 0.961 . S
H417 C409 0.960 . S
H418 C410 0.930 . S
H419 C411 0.929 . S
H420 C428 0.929 . S
H421 C430 0.930 . S
H422 C432 0.930 . S
H423 C435 0.929 . S
H424 C438 0.930 . S
H425 C440 0.960 . S
H426 C440 0.960 . S
H427 C440 0.960 . S
C428 H420 0.929 . S
C428 C429 1.377 . S
C428 C430 1.384 . S
C429 C428 1.377 . S
C429 C435 1.390 . S
C430 H421 0.930 . S
C430 C428 1.384 . S
C430 C431 1.372 . S
C431 C430 1.372 . S
C431 C432 1.400 . S
C431 C436 1.490 . S
C432 H422 0.930 . S
C432 C431 1.400 . S
C432 C435 1.386 . S
H433 C449 0.930 . S
H434 C450 0.931 . S
C435 H423 0.929 . S
C435 C429 1.390 . S
C435 C432 1.386 . S
C436 C431 1.490 . S
C436 C438 1.395 . S
C436 C439 1.403 . S
H437 C443 0.930 . S
C438 H424 0.930 . S
C438 C436 1.395 . S
C438 C441 1.403 . S
C439 C436 1.403 . S
C439 C440 1.524 . S
C439 C443 1.400 . S
C440 H425 0.960 . S
C440 H426 0.960 . S
C440 H427 0.960 . S
C440 C439 1.524 . S
C441 C438 1.403 . S
C441 C442 1.392 . S
C441 C445 1.495 . S
C442 C441 1.392 . S
C442 C443 1.385 . S
C442 C444 1.478 . S
C443 H437 0.930 . S
C443 C439 1.400 . S
C443 C442 1.385 . S
C444 C442 1.478 . S
C444 C446 1.381 . S
C444 C450 1.383 . S
C445 C441 1.495 . S
C445 H451 0.959 . S
C445 H452 0.961 . S
C445 H453 0.960 . S
C446 C444 1.381 . S
C446 C447 1.394 . S
C446 H454 0.930 . S
C447 C446 1.394 . S
C447 C448 1.383 . S
C447 H455 0.929 . S
C448 C447 1.383 . S
C448 C449 1.377 . S
C449 H433 0.930 . S
C449 C448 1.377 . S
C449 C450 1.379 . S
C450 H434 0.931 . S
C450 C444 1.383 . S
C450 C449 1.379 . S
H451 C445 0.959 . S
H452 C445 0.961 . S
H453 C445 0.960 . S
H454 C446 0.930 . S
H455 C447 0.929 . S
H456 C464 0.929 . S
H457 C466 0.930 . S
H458 C468 0.930 . S
H459 C471 0.929 . S
H460 C474 0.930 . S
H461 C476 0.960 . S
H462 C476 0.960 . S
H463 C476 0.960 . S
C464 H456 0.929 . S
C464 C465 1.377 . S
C464 C466 1.384 . S
C465 C464 1.377 . S
C465 C471 1.390 . S
C466 H457 0.930 . S
C466 C464 1.384 . S
C466 C467 1.372 . S
C467 C466 1.372 . S
C467 C468 1.400 . S
C467 C472 1.490 . S
C468 H458 0.930 . S
C468 C467 1.400 . S
C468 C471 1.386 . S
H469 C485 0.930 . S
H470 C486 0.931 . S
C471 H459 0.929 . S
C471 C465 1.390 . S
C471 C468 1.386 . S
C472 C467 1.490 . S
C472 C474 1.395 . S
C472 C475 1.403 . S
H473 C479 0.930 . S
C474 H460 0.930 . S
C474 C472 1.395 . S
C474 C477 1.403 . S
C475 C472 1.403 . S
C475 C476 1.524 . S
C475 C479 1.400 . S
C476 H461 0.960 . S
C476 H462 0.960 . S
C476 H463 0.960 . S
C476 C475 1.524 . S
C477 C474 1.403 . S
C477 C478 1.392 . S
C477 C481 1.495 . S
C478 C477 1.392 . S
C478 C479 1.385 . S
C478 C480 1.478 . S
C479 H473 0.930 . S
C479 C475 1.400 . S
C479 C478 1.385 . S
C480 C478 1.478 . S
C480 C482 1.381 . S
C480 C486 1.383 . S
C481 C477 1.495 . S
C481 H487 0.959 . S
C481 H488 0.961 . S
C481 H489 0.960 . S
C482 C480 1.381 . S
C482 C483 1.394 . S
C482 H490 0.930 . S
C483 C482 1.394 . S
C483 C484 1.383 . S
C483 H491 0.929 . S
C484 C483 1.383 . S
C484 C485 1.377 . S
C485 H469 0.930 . S
C485 C484 1.377 . S
C485 C486 1.379 . S
C486 H470 0.931 . S
C486 C480 1.383 . S
C486 C485 1.379 . S
H487 C481 0.959 . S
H488 C481 0.961 . S
H489 C481 0.960 . S
H490 C482 0.930 . S
H491 C483 0.929 . S
H492 C500 0.929 . S
H493 C502 0.926 1_554 S
H494 C504 0.930 . S
H495 C507 0.929 . S
H496 C510 0.930 . S
H497 C512 0.960 . S
H498 C512 0.960 . S
H499 C512 0.960 . S
C500 H492 0.929 . S
C500 C501 1.377 . S
C500 C502 1.384 . S
C501 C500 1.377 . S
C501 C507 1.390 . S
C502 H493 0.926 1_556 S
C502 C500 1.384 . S
C502 C503 1.372 . S
C503 C502 1.372 . S
C503 C504 1.400 . S
C503 C508 1.490 . S
C504 H494 0.930 . S
C504 C503 1.400 . S
C504 C507 1.386 . S
H505 C521 0.930 . S
H506 C522 0.931 . S
C507 H495 0.929 . S
C507 C501 1.390 . S
C507 C504 1.386 . S
C508 C503 1.490 . S
C508 C510 1.395 1_556 S
C508 C511 1.403 . S
H509 C515 0.930 . S
C510 H496 0.930 . S
C510 C508 1.395 1_554 S
C510 C513 1.403 . S
C511 C508 1.403 . S
C511 C512 1.524 . S
C511 C515 1.400 . S
C512 H497 0.960 . S
C512 H498 0.960 . S
C512 H499 0.960 . S
C512 C511 1.524 . S
C513 C510 1.403 . S
C513 C514 1.392 . S
C513 C517 1.495 . S
C514 C513 1.392 . S
C514 C515 1.385 1_554 S
C514 C516 1.478 . S
C515 H509 0.930 . S
C515 C511 1.400 . S
C515 C514 1.385 1_556 S
C516 C514 1.478 . S
C516 C518 1.381 . S
C516 C522 1.383 . S
C517 C513 1.495 . S
C517 H523 0.959 . S
C517 H524 0.961 . S
C517 H525 0.960 . S
C518 C516 1.381 . S
C518 C519 1.394 . S
C518 H526 0.930 . S
C519 C518 1.394 . S
C519 C520 1.383 . S
C519 H527 0.929 . S
C520 C519 1.383 . S
C520 C521 1.377 . S
C521 H505 0.930 . S
C521 C520 1.377 . S
C521 C522 1.379 . S
C522 H506 0.931 . S
C522 C516 1.383 . S
C522 C521 1.379 . S
H523 C517 0.959 . S
H524 C517 0.961 . S
H525 C517 0.960 . S
H526 C518 0.930 . S
H527 C519 0.929 . S
H528 C536 0.929 . S
H529 C538 0.930 . S
H530 C540 0.930 . S
H531 C543 0.929 . S
H532 C546 0.930 . S
H533 C548 0.960 . S
H534 C548 0.960 . S
H535 C548 0.960 . S
C536 H528 0.929 . S
C536 C537 1.377 . S
C536 C538 1.384 . S
C537 C536 1.377 . S
C537 C543 1.390 . S
C538 H529 0.930 . S
C538 C536 1.384 . S
C538 C539 1.372 . S
C539 C538 1.372 . S
C539 C540 1.400 . S
C539 C544 1.490 . S
C540 H530 0.930 . S
C540 C539 1.400 . S
C540 C543 1.386 . S
H541 C557 0.930 . S
H542 C558 0.931 . S
C543 H531 0.929 . S
C543 C537 1.390 . S
C543 C540 1.386 . S
C544 C539 1.490 . S
C544 C546 1.395 . S
C544 C547 1.403 . S
H545 C551 0.930 . S
C546 H532 0.930 . S
C546 C544 1.395 . S
C546 C549 1.403 . S
C547 C544 1.403 . S
C547 C548 1.524 . S
C547 C551 1.400 . S
C548 H533 0.960 . S
C548 H534 0.960 . S
C548 H535 0.960 . S
C548 C547 1.524 . S
C549 C546 1.403 . S
C549 C550 1.392 . S
C549 C553 1.495 . S
C550 C549 1.392 . S
C550 C551 1.385 . S
C550 C552 1.478 . S
C551 H545 0.930 . S
C551 C547 1.400 . S
C551 C550 1.385 . S
C552 C550 1.478 . S
C552 C554 1.381 . S
C552 C558 1.383 . S
C553 C549 1.495 . S
C553 H559 0.959 . S
C553 H560 0.961 . S
C553 H561 0.960 . S
C554 C552 1.381 . S
C554 C555 1.394 . S
C554 H562 0.930 . S
C555 C554 1.394 . S
C555 C556 1.383 . S
C555 H563 0.929 . S
C556 C555 1.383 . S
C556 C557 1.377 . S
C557 H541 0.930 . S
C557 C556 1.377 . S
C557 C558 1.379 . S
C558 H542 0.931 . S
C558 C552 1.383 . S
C558 C557 1.379 . S
H559 C553 0.959 . S
H560 C553 0.961 . S
H561 C553 0.960 . S
H562 C554 0.930 . S
H563 C555 0.929 . S
H564 C572 0.929 . S
H565 C574 0.930 . S
H566 C576 0.930 . S
H567 C579 0.929 . S
H568 C582 0.930 . S
H569 C584 0.960 . S
H570 C584 0.960 . S
H571 C584 0.960 . S
C572 H564 0.929 . S
C572 C573 1.377 . S
C572 C574 1.384 . S
C573 C572 1.377 . S
C573 C579 1.390 . S
C574 H565 0.930 . S
C574 C572 1.384 . S
C574 C575 1.372 . S
C575 C574 1.372 . S
C575 C576 1.400 . S
C575 C580 1.490 . S
C576 H566 0.930 . S
C576 C575 1.400 . S
C576 C579 1.386 . S
H577 C593 0.930 . S
H578 C594 0.931 . S
C579 H567 0.929 . S
C579 C573 1.390 . S
C579 C576 1.386 . S
C580 C575 1.490 . S
C580 C582 1.395 . S
C580 C583 1.403 . S
H581 C587 0.930 . S
C582 H568 0.930 . S
C582 C580 1.395 . S
C582 C585 1.403 . S
C583 C580 1.403 . S
C583 C584 1.524 . S
C583 C587 1.400 . S
C584 H569 0.960 . S
C584 H570 0.960 . S
C584 H571 0.960 . S
C584 C583 1.524 . S
C585 C582 1.403 . S
C585 C586 1.392 . S
C585 C589 1.495 . S
C586 C585 1.392 . S
C586 C587 1.385 . S
C586 C588 1.478 . S
C587 H581 0.930 . S
C587 C583 1.400 . S
C587 C586 1.385 . S
C588 C586 1.478 . S
C588 C590 1.381 . S
C588 C594 1.383 . S
C589 C585 1.495 . S
C589 H595 0.959 . S
C589 H596 0.961 . S
C589 H597 0.960 . S
C590 C588 1.381 . S
C590 C591 1.394 . S
C590 H598 0.930 . S
C591 C590 1.394 . S
C591 C592 1.383 . S
C591 H599 0.929 . S
C592 C591 1.383 . S
C592 C593 1.377 . S
C593 H577 0.930 . S
C593 C592 1.377 . S
C593 C594 1.379 . S
C594 H578 0.931 . S
C594 C588 1.383 . S
C594 C593 1.379 . S
H595 C589 0.959 . S
H596 C589 0.961 . S
H597 C589 0.960 . S
H598 C590 0.930 . S
H599 C591 0.929 . S
H600 C608 0.929 . S
H601 C610 0.930 . S
H602 C612 0.930 . S
H603 C615 0.929 . S
H604 C618 0.930 . S
H605 C620 0.960 . S
H606 C620 0.960 . S
H607 C620 0.960 . S
C608 H600 0.929 . S
C608 C609 1.377 . S
C608 C610 1.384 . S
C609 C608 1.377 . S
C609 C615 1.390 . S
C610 H601 0.930 . S
C610 C608 1.384 . S
C610 C611 1.372 . S
C611 C610 1.372 . S
C611 C612 1.400 . S
C611 C616 1.490 . S
C612 H602 0.930 . S
C612 C611 1.400 . S
C612 C615 1.386 . S
H613 C629 0.930 . S
H614 C630 0.931 . S
C615 H603 0.929 . S
C615 C609 1.390 . S
C615 C612 1.386 . S
C616 C611 1.490 . S
C616 C618 1.395 . S
C616 C619 1.403 . S
H617 C623 0.930 . S
C618 H604 0.930 . S
C618 C616 1.395 . S
C618 C621 1.403 . S
C619 C616 1.403 . S
C619 C620 1.524 . S
C619 C623 1.400 . S
C620 H605 0.960 . S
C620 H606 0.960 . S
C620 H607 0.960 . S
C620 C619 1.524 . S
C621 C618 1.403 . S
C621 C622 1.392 . S
C621 C625 1.495 . S
C622 C621 1.392 . S
C622 C623 1.385 . S
C622 C624 1.478 . S
C623 H617 0.930 . S
C623 C619 1.400 . S
C623 C622 1.385 . S
C624 C622 1.478 . S
C624 C626 1.381 . S
C624 C630 1.383 . S
C625 C621 1.495 . S
C625 H631 0.959 . S
C625 H632 0.961 . S
C625 H633 0.960 . S
C626 C624 1.381 . S
C626 C627 1.394 . S
C626 H634 0.930 . S
C627 C626 1.394 . S
C627 C628 1.383 . S
C627 H635 0.929 . S
C628 C627 1.383 . S
C628 C629 1.377 . S
C629 H613 0.930 . S
C629 C628 1.377 . S
C629 C630 1.379 . S
C630 H614 0.931 . S
C630 C624 1.383 . S
C630 C629 1.379 . S
H631 C625 0.959 . S
H632 C625 0.961 . S
H633 C625 0.960 . S
H634 C626 0.930 . S
H635 C627 0.929 . S
H636 C644 0.929 . S
H637 C646 0.930 . S
H638 C648 0.930 . S
H639 C651 0.929 . S
H640 C654 0.930 . S
H641 C656 0.960 . S
H642 C656 0.960 . S
H643 C656 0.960 . S
C644 H636 0.929 . S
C644 C645 1.377 . S
C644 C646 1.384 . S
C645 C644 1.377 . S
C645 C651 1.390 . S
C646 H637 0.930 . S
C646 C644 1.384 . S
C646 C647 1.372 . S
C647 C646 1.372 . S
C647 C648 1.400 . S
C647 C652 1.490 . S
C648 H638 0.930 . S
C648 C647 1.400 . S
C648 C651 1.386 . S
H649 C665 0.930 . S
H650 C666 0.931 . S
C651 H639 0.929 . S
C651 C645 1.390 . S
C651 C648 1.386 . S
C652 C647 1.490 . S
C652 C654 1.395 . S
C652 C655 1.403 . S
H653 C659 0.930 . S
C654 H640 0.930 . S
C654 C652 1.395 . S
C654 C657 1.403 . S
C655 C652 1.403 . S
C655 C656 1.524 . S
C655 C659 1.400 . S
C656 H641 0.960 . S
C656 H642 0.960 . S
C656 H643 0.960 . S
C656 C655 1.524 . S
C657 C654 1.403 . S
C657 C658 1.392 . S
C657 C661 1.495 . S
C658 C657 1.392 . S
C658 C659 1.385 . S
C658 C660 1.478 . S
C659 H653 0.930 . S
C659 C655 1.400 . S
C659 C658 1.385 . S
C660 C658 1.478 . S
C660 C662 1.381 . S
C660 C666 1.383 . S
C661 C657 1.495 . S
C661 H667 0.959 . S
C661 H668 0.961 . S
C661 H669 0.960 . S
C662 C660 1.381 . S
C662 C663 1.394 . S
C662 H670 0.930 . S
C663 C662 1.394 . S
C663 C664 1.383 . S
C663 H671 0.929 . S
C664 C663 1.383 . S
C664 C665 1.377 . S
C665 H649 0.930 . S
C665 C664 1.377 . S
C665 C666 1.379 . S
C666 H650 0.931 . S
C666 C660 1.383 . S
C666 C665 1.379 . S
H667 C661 0.959 . S
H668 C661 0.961 . S
H669 C661 0.960 . S
H670 C662 0.930 . S
H671 C663 0.929 . S
H672 C680 0.929 . S
H673 C682 0.930 . S
H674 C684 0.930 . S
H675 C687 0.929 . S
H676 C690 0.930 . S
H677 C692 0.960 . S
H678 C692 0.960 . S
H679 C692 0.960 . S
C680 H672 0.929 . S
C680 C681 1.377 . S
C680 C682 1.384 . S
C681 C680 1.377 . S
C681 C687 1.390 . S
C682 H673 0.930 . S
C682 C680 1.384 . S
C682 C683 1.372 . S
C683 C682 1.372 . S
C683 C684 1.400 . S
C683 C688 1.490 . S
C684 H674 0.930 . S
C684 C683 1.400 . S
C684 C687 1.386 . S
H685 C701 0.930 . S
H686 C702 0.931 . S
C687 H675 0.929 . S
C687 C681 1.390 . S
C687 C684 1.386 . S
C688 C683 1.490 . S
C688 C690 1.395 . S
C688 C691 1.403 . S
H689 C695 0.930 . S
C690 H676 0.930 . S
C690 C688 1.395 . S
C690 C693 1.403 . S
C691 C688 1.403 . S
C691 C692 1.524 . S
C691 C695 1.400 . S
C692 H677 0.960 . S
C692 H678 0.960 . S
C692 H679 0.960 . S
C692 C691 1.524 . S
C693 C690 1.403 . S
C693 C694 1.392 . S
C693 C697 1.495 . S
C694 C693 1.392 . S
C694 C695 1.385 . S
C694 C696 1.478 . S
C695 H689 0.930 . S
C695 C691 1.400 . S
C695 C694 1.385 . S
C696 C694 1.478 . S
C696 C698 1.381 . S
C696 C702 1.383 . S
C697 C693 1.495 . S
C697 H703 0.959 . S
C697 H704 0.961 . S
C697 H705 0.960 . S
C698 C696 1.381 . S
C698 C699 1.394 . S
C698 H706 0.930 . S
C699 C698 1.394 . S
C699 C700 1.383 . S
C699 H707 0.929 . S
C700 C699 1.383 . S
C700 C701 1.377 . S
C701 H685 0.930 . S
C701 C700 1.377 . S
C701 C702 1.379 . S
C702 H686 0.931 . S
C702 C696 1.383 . S
C702 C701 1.379 . S
H703 C697 0.959 . S
H704 C697 0.961 . S
H705 C697 0.960 . S
H706 C698 0.930 . S
H707 C699 0.929 . S
H708 C716 0.929 . S
H709 C718 0.930 . S
H710 C720 0.930 . S
H711 C723 0.929 . S
H712 C726 0.930 . S
H713 C728 0.960 . S
H714 C728 0.960 . S
H715 C728 0.960 . S
C716 H708 0.929 . S
C716 C717 1.377 . S
C716 C718 1.384 . S
C717 C716 1.377 . S
C717 C723 1.390 . S
C718 H709 0.930 . S
C718 C716 1.384 . S
C718 C719 1.372 . S
C719 C718 1.372 . S
C719 C720 1.400 . S
C719 C724 1.490 . S
C720 H710 0.930 . S
C720 C719 1.400 . S
C720 C723 1.386 . S
H721 C737 0.930 . S
H722 C738 0.931 . S
C723 H711 0.929 . S
C723 C717 1.390 . S
C723 C720 1.386 . S
C724 C719 1.490 . S
C724 C726 1.395 . S
C724 C727 1.403 . S
H725 C731 0.930 . S
C726 H712 0.930 . S
C726 C724 1.395 . S
C726 C729 1.403 . S
C727 C724 1.403 . S
C727 C728 1.524 . S
C727 C731 1.400 . S
C728 H713 0.960 . S
C728 H714 0.960 . S
C728 H715 0.960 . S
C728 C727 1.524 . S
C729 C726 1.403 . S
C729 C730 1.392 . S
C729 C733 1.495 . S
C730 C729 1.392 . S
C730 C731 1.385 . S
C730 C732 1.478 . S
C731 H725 0.930 . S
C731 C727 1.400 . S
C731 C730 1.385 . S
C732 C730 1.478 . S
C732 C734 1.381 . S
C732 C738 1.383 . S
C733 C729 1.495 . S
C733 H739 0.959 . S
C733 H740 0.961 . S
C733 H741 0.960 . S
C734 C732 1.381 . S
C734 C735 1.394 . S
C734 H742 0.930 . S
C735 C734 1.394 . S
C735 C736 1.383 . S
C735 H743 0.929 . S
C736 C735 1.383 . S
C736 C737 1.377 . S
C737 H721 0.930 . S
C737 C736 1.377 . S
C737 C738 1.379 . S
C738 H722 0.931 . S
C738 C732 1.383 . S
C738 C737 1.379 . S
H739 C733 0.959 . S
H740 C733 0.961 . S
H741 C733 0.960 . S
H742 C734 0.930 . S
H743 C735 0.929 . S
H744 C752 0.929 . S
H745 C754 0.930 . S
H746 C756 0.930 . S
H747 C759 0.929 . S
H748 C762 0.930 . S
H749 C764 0.960 . S
H750 C764 0.960 . S
H751 C764 0.960 . S
C752 H744 0.929 . S
C752 C753 1.377 . S
C752 C754 1.384 . S
C753 C752 1.377 . S
C753 C759 1.390 . S
C754 H745 0.930 . S
C754 C752 1.384 . S
C754 C755 1.372 . S
C755 C754 1.372 . S
C755 C756 1.400 . S
C755 C760 1.490 . S
C756 H746 0.930 . S
C756 C755 1.400 . S
C756 C759 1.386 . S
H757 C773 0.930 . S
H758 C774 0.931 . S
C759 H747 0.929 . S
C759 C753 1.390 . S
C759 C756 1.386 . S
C760 C755 1.490 . S
C760 C762 1.395 . S
C760 C763 1.403 . S
H761 C767 0.930 . S
C762 H748 0.930 . S
C762 C760 1.395 . S
C762 C765 1.403 . S
C763 C760 1.403 . S
C763 C764 1.524 . S
C763 C767 1.400 . S
C764 H749 0.960 . S
C764 H750 0.960 . S
C764 H751 0.960 . S
C764 C763 1.524 . S
C765 C762 1.403 . S
C765 C766 1.392 . S
C765 C769 1.495 . S
C766 C765 1.392 . S
C766 C767 1.385 . S
C766 C768 1.478 . S
C767 H761 0.930 . S
C767 C763 1.400 . S
C767 C766 1.385 . S
C768 C766 1.478 . S
C768 C770 1.381 . S
C768 C774 1.383 . S
C769 C765 1.495 . S
C769 H775 0.959 . S
C769 H776 0.961 . S
C769 H777 0.960 . S
C770 C768 1.381 . S
C770 C771 1.394 . S
C770 H778 0.930 . S
C771 C770 1.394 . S
C771 C772 1.383 . S
C771 H779 0.929 . S
C772 C771 1.383 . S
C772 C773 1.377 . S
C773 H757 0.930 . S
C773 C772 1.377 . S
C773 C774 1.379 . S
C774 H758 0.931 . S
C774 C768 1.383 . S
C774 C773 1.379 . S
H775 C769 0.959 . S
H776 C769 0.961 . S
H777 C769 0.960 . S
H778 C770 0.930 . S
H779 C771 0.929 . S
H780 C788 0.929 . S
H781 C790 0.930 . S
H782 C792 0.930 . S
H783 C795 0.929 . S
H784 C798 0.930 . S
H785 C800 0.960 . S
H786 C800 0.960 . S
H787 C800 0.960 . S
C788 H780 0.929 . S
C788 C789 1.377 . S
C788 C790 1.384 . S
C789 C788 1.377 . S
C789 C795 1.390 . S
C790 H781 0.930 . S
C790 C788 1.384 . S
C790 C791 1.372 . S
C791 C790 1.372 . S
C791 C792 1.400 . S
C791 C796 1.490 . S
C792 H782 0.930 . S
C792 C791 1.400 . S
C792 C795 1.386 . S
H793 C809 0.930 . S
H794 C810 0.931 . S
C795 H783 0.929 . S
C795 C789 1.390 . S
C795 C792 1.386 . S
C796 C791 1.490 . S
C796 C798 1.395 . S
C796 C799 1.403 . S
H797 C803 0.930 . S
C798 H784 0.930 . S
C798 C796 1.395 . S
C798 C801 1.403 . S
C799 C796 1.403 . S
C799 C800 1.524 . S
C799 C803 1.400 . S
C800 H785 0.960 . S
C800 H786 0.960 . S
C800 H787 0.960 . S
C800 C799 1.524 . S
C801 C798 1.403 . S
C801 C802 1.392 . S
C801 C805 1.495 . S
C802 C801 1.392 . S
C802 C803 1.385 . S
C802 C804 1.478 . S
C803 H797 0.930 . S
C803 C799 1.400 . S
C803 C802 1.385 . S
C804 C802 1.478 . S
C804 C806 1.381 . S
C804 C810 1.383 . S
C805 C801 1.495 . S
C805 H811 0.959 . S
C805 H812 0.961 . S
C805 H813 0.960 . S
C806 C804 1.381 . S
C806 C807 1.394 . S
C806 H814 0.930 . S
C807 C806 1.394 . S
C807 C808 1.383 . S
C807 H815 0.929 . S
C808 C807 1.383 . S
C808 C809 1.377 . S
C809 H793 0.930 . S
C809 C808 1.377 . S
C809 C810 1.379 . S
C810 H794 0.931 . S
C810 C804 1.383 . S
C810 C809 1.379 . S
H811 C805 0.959 . S
H812 C805 0.961 . S
H813 C805 0.960 . S
H814 C806 0.930 . S
H815 C807 0.929 . S
H816 C824 0.929 . S
H817 C826 0.930 . S
H818 C828 0.930 . S
H819 C831 0.929 . S
H820 C834 0.930 . S
H821 C836 0.960 . S
H822 C836 0.960 . S
H823 C836 0.960 . S
C824 H816 0.929 . S
C824 C825 1.377 . S
C824 C826 1.384 . S
C825 C824 1.377 . S
C825 C831 1.390 . S
C826 H817 0.930 . S
C826 C824 1.384 . S
C826 C827 1.372 . S
C827 C826 1.372 . S
C827 C828 1.400 . S
C827 C832 1.490 . S
C828 H818 0.930 . S
C828 C827 1.400 . S
C828 C831 1.386 . S
H829 C845 0.930 . S
H830 C846 0.931 . S
C831 H819 0.929 . S
C831 C825 1.390 . S
C831 C828 1.386 . S
C832 C827 1.490 . S
C832 C834 1.395 . S
C832 C835 1.403 . S
H833 C839 0.930 . S
C834 H820 0.930 . S
C834 C832 1.395 . S
C834 C837 1.403 . S
C835 C832 1.403 . S
C835 C836 1.524 . S
C835 C839 1.400 . S
C836 H821 0.960 . S
C836 H822 0.960 . S
C836 H823 0.960 . S
C836 C835 1.524 . S
C837 C834 1.403 . S
C837 C838 1.392 . S
C837 C841 1.495 . S
C838 C837 1.392 . S
C838 C839 1.385 . S
C838 C840 1.478 . S
C839 H833 0.930 . S
C839 C835 1.400 . S
C839 C838 1.385 . S
C840 C838 1.478 . S
C840 C842 1.381 . S
C840 C846 1.383 . S
C841 C837 1.495 . S
C841 H847 0.959 . S
C841 H848 0.961 . S
C841 H849 0.960 . S
C842 C840 1.381 . S
C842 C843 1.394 . S
C842 H850 0.930 . S
C843 C842 1.394 . S
C843 C844 1.383 . S
C843 H851 0.929 . S
C844 C843 1.383 . S
C844 C845 1.377 . S
C845 H829 0.930 . S
C845 C844 1.377 . S
C845 C846 1.379 . S
C846 H830 0.931 . S
C846 C840 1.383 . S
C846 C845 1.379 . S
H847 C841 0.959 . S
H848 C841 0.961 . S
H849 C841 0.960 . S
H850 C842 0.930 . S
H851 C843 0.929 . S
H852 C860 0.929 . S
H853 C862 0.930 . S
H854 C864 0.930 . S
H855 C867 0.929 . S
H856 C870 0.930 . S
H857 C872 0.960 . S
H858 C872 0.960 . S
H859 C872 0.954 1_655 S
C860 H852 0.929 . S
C860 C861 1.377 . S
C860 C862 1.384 . S
C861 C860 1.377 . S
C861 C867 1.390 . S
C862 H853 0.930 . S
C862 C860 1.384 . S
C862 C863 1.372 . S
C863 C862 1.372 . S
C863 C864 1.400 . S
C863 C868 1.490 . S
C864 H854 0.930 . S
C864 C863 1.400 . S
C864 C867 1.386 . S
H865 C881 0.930 . S
H866 C882 0.931 . S
C867 H855 0.929 . S
C867 C861 1.390 . S
C867 C864 1.386 . S
C868 C863 1.490 . S
C868 C870 1.395 . S
C868 C871 1.403 1_655 S
H869 C875 0.930 . S
C870 H856 0.930 . S
C870 C868 1.395 . S
C870 C873 1.403 . S
C871 C868 1.403 1_455 S
C871 C872 1.524 . S
C871 C875 1.400 . S
C872 H857 0.960 . S
C872 H858 0.960 . S
C872 H859 0.954 1_455 S
C872 C871 1.524 . S
C873 C870 1.403 . S
C873 C874 1.392 1_655 S
C873 C877 1.495 . S
C874 C873 1.392 1_455 S
C874 C875 1.385 . S
C874 C876 1.478 . S
C875 H869 0.930 . S
C875 C871 1.400 . S
C875 C874 1.385 . S
C876 C874 1.478 . S
C876 C878 1.381 . S
C876 C882 1.383 . S
C877 C873 1.495 . S
C877 H883 0.959 . S
C877 H884 0.961 . S
C877 H885 0.955 1_655 S
C878 C876 1.381 . S
C878 C879 1.394 . S
C878 H886 0.930 . S
C879 C878 1.394 . S
C879 C880 1.383 . S
C879 H887 0.929 . S
C880 C879 1.383 . S
C880 C881 1.377 . S
C881 H865 0.930 . S
C881 C880 1.377 . S
C881 C882 1.379 . S
C882 H866 0.931 . S
C882 C876 1.383 . S
C882 C881 1.379 . S
H883 C877 0.959 . S
H884 C877 0.961 . S
H885 C877 0.955 1_455 S
H886 C878 0.930 . S
H887 C879 0.929 . S
H888 C896 0.929 . S
H889 C898 0.930 . S
H890 C900 0.930 . S
H891 C903 0.929 . S
H892 C906 0.930 . S
H893 C908 0.960 . S
H894 C908 0.960 . S
H895 C908 0.960 . S
C896 H888 0.929 . S
C896 C897 1.377 . S
C896 C898 1.384 . S
C897 C896 1.377 . S
C897 C903 1.390 . S
C898 H889 0.930 . S
C898 C896 1.384 . S
C898 C899 1.372 . S
C899 C898 1.372 . S
C899 C900 1.400 . S
C899 C904 1.490 . S
C900 H890 0.930 . S
C900 C899 1.400 . S
C900 C903 1.386 . S
H901 C917 0.930 . S
H902 C918 0.931 . S
C903 H891 0.929 . S
C903 C897 1.390 . S
C903 C900 1.386 . S
C904 C899 1.490 . S
C904 C906 1.395 1_545 S
C904 C907 1.403 . S
H905 C911 0.942 . S
C906 H892 0.930 . S
C906 C904 1.395 1_565 S
C906 C909 1.403 . S
C907 C904 1.403 . S
C907 C908 1.524 . S
C907 C911 1.400 1_545 S
C908 H893 0.960 . S
C908 H894 0.960 . S
C908 H895 0.960 . S
C908 C907 1.524 . S
C909 C906 1.403 . S
C909 C910 1.392 . S
C909 C913 1.495 . S
C910 C909 1.392 . S
C910 C911 1.385 . S
C910 C912 1.478 . S
C911 H905 0.942 . S
C911 C907 1.400 1_565 S
C911 C910 1.385 . S
C912 C910 1.478 . S
C912 C914 1.381 . S
C912 C918 1.383 . S
C913 C909 1.495 . S
C913 H919 0.959 . S
C913 H920 0.961 . S
C913 H921 0.960 . S
C914 C912 1.381 . S
C914 C915 1.394 . S
C914 H922 0.930 . S
C915 C914 1.394 . S
C915 C916 1.383 . S
C915 H923 0.929 . S
C916 C915 1.383 . S
C916 C917 1.377 . S
C917 H901 0.930 . S
C917 C916 1.377 . S
C917 C918 1.379 . S
C918 H902 0.931 . S
C918 C912 1.383 . S
C918 C917 1.379 . S
H919 C913 0.959 . S
H920 C913 0.961 . S
H921 C913 0.960 . S
H922 C914 0.930 . S
H923 C915 0.929 . S
H924 C932 0.929 . S
H925 C934 0.930 . S
H926 C936 0.930 . S
H927 C939 0.929 . S
H928 C942 0.930 . S
H929 C944 0.960 . S
H930 C944 0.960 . S
H931 C944 0.960 . S
C932 H924 0.929 . S
C932 C933 1.377 . S
C932 C934 1.384 . S
C933 C932 1.377 . S
C933 C939 1.390 . S
C934 H925 0.930 . S
C934 C932 1.384 . S
C934 C935 1.372 . S
C935 C934 1.372 . S
C935 C936 1.400 . S
C935 C940 1.490 . S
C936 H926 0.930 . S
C936 C935 1.400 . S
C936 C939 1.386 . S
H937 C953 0.930 . S
H938 C954 0.931 . S
C939 H927 0.929 . S
C939 C933 1.390 . S
C939 C936 1.386 . S
C940 C935 1.490 . S
C940 C942 1.395 . S
C940 C943 1.403 . S
H941 C947 0.930 . S
C942 H928 0.930 . S
C942 C940 1.395 . S
C942 C945 1.403 . S
C943 C940 1.403 . S
C943 C944 1.524 . S
C943 C947 1.400 . S
C944 H929 0.960 . S
C944 H930 0.960 . S
C944 H931 0.960 . S
C944 C943 1.524 . S
C945 C942 1.403 . S
C945 C946 1.392 . S
C945 C949 1.495 . S
C946 C945 1.392 . S
C946 C947 1.385 . S
C946 C948 1.478 . S
C947 H941 0.930 . S
C947 C943 1.400 . S
C947 C946 1.385 . S
C948 C946 1.478 . S
C948 C950 1.381 . S
C948 C954 1.383 . S
C949 C945 1.495 . S
C949 H955 0.959 . S
C949 H956 0.961 . S
C949 H957 0.960 . S
C950 C948 1.381 . S
C950 C951 1.394 . S
C950 H958 0.930 . S
C951 C950 1.394 . S
C951 C952 1.383 . S
C951 H959 0.929 . S
C952 C951 1.383 . S
C952 C953 1.377 . S
C953 H937 0.930 . S
C953 C952 1.377 . S
C953 C954 1.379 . S
C954 H938 0.931 . S
C954 C948 1.383 . S
C954 C953 1.379 . S
H955 C949 0.959 . S
H956 C949 0.961 . S
H957 C949 0.960 . S
H958 C950 0.930 . S
H959 C951 0.929 . S
H960 C968 0.929 . S
H961 C970 0.930 . S
H962 C972 0.930 . S
H963 C975 0.929 . S
H964 C978 0.930 . S
H965 C980 0.960 1_655 S
H966 C980 0.960 . S
H967 C980 0.960 . S
C968 H960 0.929 . S
C968 C969 1.377 . S
C968 C970 1.384 . S
C969 C968 1.377 . S
C969 C975 1.390 . S
C970 H961 0.930 . S
C970 C968 1.384 . S
C970 C971 1.372 . S
C971 C970 1.372 . S
C971 C972 1.400 . S
C971 C976 1.490 . S
C972 H962 0.930 . S
C972 C971 1.400 . S
C972 C975 1.386 . S
H973 C989 0.930 . S
H974 C990 0.931 . S
C975 H963 0.929 . S
C975 C969 1.390 . S
C975 C972 1.386 . S
C976 C971 1.490 . S
C976 C978 1.395 . S
C976 C979 1.403 . S
H977 C983 0.930 . S
C978 H964 0.930 . S
C978 C976 1.395 . S
C978 C981 1.403 1_455 S
C979 C976 1.403 . S
C979 C980 1.524 . S
C979 C983 1.400 1_455 S
C980 H965 0.960 1_455 S
C980 H966 0.960 . S
C980 H967 0.960 . S
C980 C979 1.524 . S
C981 C978 1.403 1_655 S
C981 C982 1.392 . S
C981 C985 1.495 . S
C982 C981 1.392 . S
C982 C983 1.385 . S
C982 C984 1.478 . S
C983 H977 0.930 . S
C983 C979 1.400 1_655 S
C983 C982 1.385 . S
C984 C982 1.478 . S
C984 C986 1.381 . S
C984 C990 1.383 . S
C985 C981 1.495 . S
C985 H991 0.959 . S
C985 H992 0.961 . S
C985 H993 0.960 . S
C986 C984 1.381 . S
C986 C987 1.394 . S
C986 H994 0.930 . S
C987 C986 1.394 . S
C987 C988 1.383 . S
C987 H995 0.929 . S
C988 C987 1.383 . S
C988 C989 1.377 . S
C989 H973 0.930 . S
C989 C988 1.377 . S
C989 C990 1.379 . S
C990 H974 0.931 . S
C990 C984 1.383 . S
C990 C989 1.379 . S
H991 C985 0.959 . S
H992 C985 0.961 . S
H993 C985 0.960 . S
H994 C986 0.930 . S
H995 C987 0.929 . S
H996 C1004 0.929 . S
H997 C1006 0.930 . S
H998 C1008 0.930 . S
H999 C1011 0.929 . S
H1000 C1014 0.930 . S
H1001 C1016 0.960 . S
H1002 C1016 0.960 . S
H1003 C1016 0.960 . S
C1004 H996 0.929 . S
C1004 C1005 1.377 . S
C1004 C1006 1.384 . S
C1005 C1004 1.377 . S
C1005 C1011 1.390 . S
C1006 H997 0.930 . S
C1006 C1004 1.384 . S
C1006 C1007 1.372 . S
C1007 C1006 1.372 . S
C1007 C1008 1.400 . S
C1007 C1012 1.490 . S
C1008 H998 0.930 . S
C1008 C1007 1.400 . S
C1008 C1011 1.386 . S
H1009 C1025 0.930 . S
H1010 C1026 0.931 . S
C1011 H999 0.929 . S
C1011 C1005 1.390 . S
C1011 C1008 1.386 . S
C1012 C1007 1.490 . S
C1012 C1014 1.395 . S
C1012 C1015 1.403 1_565 S
H1013 C1019 0.930 . S
C1014 H1000 0.930 . S
C1014 C1012 1.395 . S
C1014 C1017 1.403 . S
C1015 C1012 1.403 1_545 S
C1015 C1016 1.524 . S
C1015 C1019 1.400 . S
C1016 H1001 0.960 . S
C1016 H1002 0.960 . S
C1016 H1003 0.960 . S
C1016 C1015 1.524 . S
C1017 C1014 1.403 . S
C1017 C1018 1.392 1_565 S
C1017 C1021 1.495 . S
C1018 C1017 1.392 1_545 S
C1018 C1019 1.385 . S
C1018 C1020 1.478 . S
C1019 H1013 0.930 . S
C1019 C1015 1.400 . S
C1019 C1018 1.385 . S
C1020 C1018 1.478 . S
C1020 C1022 1.381 . S
C1020 C1026 1.383 . S
C1021 C1017 1.495 . S
C1021 H1027 0.959 . S
C1021 H1028 0.961 . S
C1021 H1029 0.960 . S
C1022 C1020 1.381 . S
C1022 C1023 1.394 . S
C1022 H1030 0.930 . S
C1023 C1022 1.394 . S
C1023 C1024 1.383 . S
C1023 H1031 0.929 . S
C1024 C1023 1.383 . S
C1024 C1025 1.377 . S
C1025 H1009 0.930 . S
C1025 C1024 1.377 . S
C1025 C1026 1.379 . S
C1026 H1010 0.931 . S
C1026 C1020 1.383 . S
C1026 C1025 1.379 . S
H1027 C1021 0.959 . S
H1028 C1021 0.961 . S
H1029 C1021 0.960 . S
H1030 C1022 0.930 . S
H1031 C1023 0.929 . S
C177 C107 1.277 . S
C196 C9 1.310 . S
C213 C23 1.288 . S
C232 C121 1.249 . S
C249 C37 1.279 . S
C268 C135 1.311 . S
C285 C51 1.279 . S
C304 C149 1.278 . S
C321 C163 1.289 . S
C340 C65 1.256 . S
C357 C93 1.277 . S
C376 C79 1.309 . S
C393 C143 1.337 . S
C412 C3 1.333 . S
C429 C17 1.339 . S
C448 C157 1.339 . S
C465 C31 1.337 . S
C484 C87 1.331 . S
C501 C101 1.337 . S
C520 C45 1.332 . S
C537 C115 1.337 . S
C556 C59 1.331 . S
C573 C129 1.337 . S
C592 C73 1.331 . S
C609 C7 1.668 . S
C628 C119 1.666 . S
C645 C21 1.665 . S
C664 C133 1.652 . S
C681 C147 1.665 . S
C700 C35 1.654 . S
C717 C49 1.672 . S
C736 C161 1.686 . S
C753 C91 1.664 . S
C772 C63 1.649 . S
C789 C105 1.668 . S
C808 C77 1.666 . S
C825 C50 1.336 . S
C844 C8 1.335 . S
C861 C64 1.336 . S
C880 C22 1.342 . S
C897 C36 1.335 . S
C916 C78 1.324 . S
C933 C92 1.333 . S
C952 C134 1.344 . S
C969 C106 1.336 . S
C988 C148 1.334 . S
C1005 C162 1.335 . S
C1024 C120 1.346 . S
