# Generated by pormake.
# Topology zfy, (5)-cn, num edge types: 1
# Building blocks:
#     Node 0, Type 0, BuildingBlock: XOMCOT_clean_sbu_0, # of connection points: 5
#     Node 1, Type 0, BuildingBlock: XOMCOT_clean_sbu_0, # of connection points: 5
#     Node 2, Type 0, BuildingBlock: XOMCOT_clean_sbu_0, # of connection points: 5
#     Node 3, Type 0, BuildingBlock: XOMCOT_clean_sbu_0, # of connection points: 5
#     Node 4, Type 0, BuildingBlock: XOMCOT_clean_sbu_0, # of connection points: 5
#     Node 5, Type 0, BuildingBlock: XOMCOT_clean_sbu_0, # of connection points: 5
#     Node 6, Type 0, BuildingBlock: XOMCOT_clean_sbu_0, # of connection points: 5
#     Node 7, Type 0, BuildingBlock: XOMCOT_clean_sbu_0, # of connection points: 5
#     Node 8, Type 0, BuildingBlock: XOMCOT_clean_sbu_0, # of connection points: 5
#     Node 9, Type 0, BuildingBlock: XOMCOT_clean_sbu_0, # of connection points: 5
#     Node 10, Type 0, BuildingBlock: XOMCOT_clean_sbu_0, # of connection points: 5
#     Node 11, Type 0, BuildingBlock: XOMCOT_clean_sbu_0, # of connection points: 5
#     Node 12, Type 0, BuildingBlock: XOMCOT_clean_sbu_0, # of connection points: 5
#     Node 13, Type 0, BuildingBlock: XOMCOT_clean_sbu_0, # of connection points: 5
#     Node 14, Type 0, BuildingBlock: XOMCOT_clean_sbu_0, # of connection points: 5
#     Node 15, Type 0, BuildingBlock: XOMCOT_clean_sbu_0, # of connection points: 5
#     Edge 16, Type (0, 0), BuildingBlock: CIFDUS_clean_linker_0, # of connection points: 2
#     Edge 17, Type (0, 0), BuildingBlock: CIFDUS_clean_linker_0, # of connection points: 2
#     Edge 18, Type (0, 0), BuildingBlock: CIFDUS_clean_linker_0, # of connection points: 2
#     Edge 19, Type (0, 0), BuildingBlock: CIFDUS_clean_linker_0, # of connection points: 2
#     Edge 20, Type (0, 0), BuildingBlock: CIFDUS_clean_linker_0, # of connection points: 2
#     Edge 21, Type (0, 0), BuildingBlock: CIFDUS_clean_linker_0, # of connection points: 2
#     Edge 22, Type (0, 0), BuildingBlock: CIFDUS_clean_linker_0, # of connection points: 2
#     Edge 23, Type (0, 0), BuildingBlock: CIFDUS_clean_linker_0, # of connection points: 2
#     Edge 24, Type (0, 0), BuildingBlock: CIFDUS_clean_linker_0, # of connection points: 2
#     Edge 25, Type (0, 0), BuildingBlock: CIFDUS_clean_linker_0, # of connection points: 2
#     Edge 26, Type (0, 0), BuildingBlock: CIFDUS_clean_linker_0, # of connection points: 2
#     Edge 27, Type (0, 0), BuildingBlock: CIFDUS_clean_linker_0, # of connection points: 2
#     Edge 28, Type (0, 0), BuildingBlock: CIFDUS_clean_linker_0, # of connection points: 2
#     Edge 29, Type (0, 0), BuildingBlock: CIFDUS_clean_linker_0, # of connection points: 2
#     Edge 30, Type (0, 0), BuildingBlock: CIFDUS_clean_linker_0, # of connection points: 2
#     Edge 31, Type (0, 0), BuildingBlock: CIFDUS_clean_linker_0, # of connection points: 2
#     Edge 32, Type (0, 0), BuildingBlock: CIFDUS_clean_linker_0, # of connection points: 2
#     Edge 33, Type (0, 0), BuildingBlock: CIFDUS_clean_linker_0, # of connection points: 2
#     Edge 34, Type (0, 0), BuildingBlock: CIFDUS_clean_linker_0, # of connection points: 2
#     Edge 35, Type (0, 0), BuildingBlock: CIFDUS_clean_linker_0, # of connection points: 2
#     Edge 36, Type (0, 0), BuildingBlock: CIFDUS_clean_linker_0, # of connection points: 2
#     Edge 37, Type (0, 0), BuildingBlock: CIFDUS_clean_linker_0, # of connection points: 2
#     Edge 38, Type (0, 0), BuildingBlock: CIFDUS_clean_linker_0, # of connection points: 2
#     Edge 39, Type (0, 0), BuildingBlock: CIFDUS_clean_linker_0, # of connection points: 2
#     Edge 40, Type (0, 0), BuildingBlock: CIFDUS_clean_linker_0, # of connection points: 2
#     Edge 41, Type (0, 0), BuildingBlock: CIFDUS_clean_linker_0, # of connection points: 2
#     Edge 42, Type (0, 0), BuildingBlock: CIFDUS_clean_linker_0, # of connection points: 2
#     Edge 43, Type (0, 0), BuildingBlock: CIFDUS_clean_linker_0, # of connection points: 2
#     Edge 44, Type (0, 0), BuildingBlock: CIFDUS_clean_linker_0, # of connection points: 2
#     Edge 45, Type (0, 0), BuildingBlock: CIFDUS_clean_linker_0, # of connection points: 2
#     Edge 46, Type (0, 0), BuildingBlock: CIFDUS_clean_linker_0, # of connection points: 2
#     Edge 47, Type (0, 0), BuildingBlock: CIFDUS_clean_linker_0, # of connection points: 2
#     Edge 48, Type (0, 0), BuildingBlock: CIFDUS_clean_linker_0, # of connection points: 2
#     Edge 49, Type (0, 0), BuildingBlock: CIFDUS_clean_linker_0, # of connection points: 2
#     Edge 50, Type (0, 0), BuildingBlock: CIFDUS_clean_linker_0, # of connection points: 2
#     Edge 51, Type (0, 0), BuildingBlock: CIFDUS_clean_linker_0, # of connection points: 2
#     Edge 52, Type (0, 0), BuildingBlock: CIFDUS_clean_linker_0, # of connection points: 2
#     Edge 53, Type (0, 0), BuildingBlock: CIFDUS_clean_linker_0, # of connection points: 2
#     Edge 54, Type (0, 0), BuildingBlock: CIFDUS_clean_linker_0, # of connection points: 2
#     Edge 55, Type (0, 0), BuildingBlock: CIFDUS_clean_linker_0, # of connection points: 2
# Relax obj value: 0.184
# Max RMSD: 0.236
# Mean RMSD: 0.231
data_MOF--net-zfy--node1-XOMCOT_clean_sbu_0--edge1-CIFDUS_clean_linker_0
_symmetry_space_group_name_H-M    P1
_symmetry_Int_Tables_number       1
_symmetry_cell_setting            triclinic
loop_
_symmetry_equiv_pos_as_xyz
'x, y, z'
_cell_length_a     46.972126
_cell_length_b     46.865786
_cell_length_c     26.96606
_cell_angle_alpha  90.175736
_cell_angle_beta   89.731168
_cell_angle_gamma 90.228363
loop_
_atom_site_label
_atom_site_type_symbol
_atom_site_fract_x
_atom_site_fract_y
_atom_site_fract_z
_atom_type_partial_charge
Co0 Co 0.33894 0.20172 0.01722 0.0
C1 C 0.30464 0.22697 0.10224 0.0
C2 C 0.34978 0.2303 0.11143 0.0
C3 C 0.33681 0.24142 0.1529 0.0
N4 N 0.32973 0.22119 0.07937 0.0
N5 N 0.30838 0.23928 0.14725 0.0
H6 H 0.28403 0.22177 0.08755 0.0
H7 H 0.37247 0.22807 0.10582 0.0
C8 C 0.34688 0.15805 0.09561 0.0
O9 O 0.32249 0.16648 0.1145 0.0
N10 N 0.34946 0.18269 0.95627 0.0
C11 C 0.33395 0.18013 0.9146 0.0
C12 C 0.34966 0.16521 0.87995 0.0
C13 C 0.37445 0.16975 0.94635 0.0
N14 N 0.37512 0.15879 0.89996 0.0
C15 C 0.27882 0.19865 1.00286 0.0
C16 C 0.27488 0.13986 0.99847 0.0
C17 C 0.25084 0.15619 0.98715 0.0
C18 C 0.25294 0.18595 0.99041 0.0
C19 C 0.30039 0.15345 1.01104 0.0
N20 N 0.30209 0.18256 0.014 0.0
H21 H 0.28034 0.22164 1.00213 0.0
H22 H 0.31918 0.14049 0.01486 0.0
H23 H 0.31279 0.18864 0.90966 0.0
H24 H 0.3917 0.16832 0.97268 0.0
O25 O 0.32934 0.23543 0.9804 0.0
O26 O 0.37222 0.22611 1.00993 0.0
O27 O 0.35657 0.16965 0.05608 0.0
C28 C 0.35574 0.24319 0.98517 0.0
H29 H 0.3476 0.24932 0.18556 0.0
H30 H 0.3431 0.16004 0.84254 0.0
H31 H 0.27453 0.11685 0.99472 0.0
H32 H 0.23495 0.19944 0.98192 0.0
Co33 Co 0.56679 0.5886 0.26838 0.0
C34 C 0.54624 0.54955 0.35212 0.0
C35 C 0.52808 0.59134 0.35373 0.0
C36 C 0.51674 0.57604 0.39222 0.0
N37 N 0.54626 0.5748 0.32742 0.0
N38 N 0.52807 0.54978 0.39124 0.0
H39 H 0.55962 0.53158 0.34319 0.0
H40 H 0.52353 0.6135 0.34658 0.0
C41 C 0.61043 0.59458 0.34792 0.0
O42 O 0.60446 0.56835 0.36138 0.0
N43 N 0.58651 0.6045 0.21174 0.0
C44 C 0.5898 0.59431 0.16532 0.0
C45 C 0.60348 0.61497 0.13715 0.0
C46 C 0.59781 0.63095 0.21111 0.0
N47 N 0.60853 0.63798 0.16624 0.0
C48 C 0.57189 0.52912 0.25051 0.0
C49 C 0.62988 0.52833 0.23303 0.0
C50 C 0.61373 0.50367 0.22359 0.0
C51 C 0.58455 0.50409 0.23367 0.0
C52 C 0.61641 0.55286 0.25158 0.0
N53 N 0.58766 0.55306 0.25995 0.0
H54 H 0.549 0.52953 0.25454 0.0
H55 H 0.62877 0.5722 0.25604 0.0
H56 H 0.58242 0.57365 0.15271 0.0
H57 H 0.59706 0.64521 0.24269 0.0
O58 O 0.53515 0.57814 0.22768 0.0
O59 O 0.54005 0.62036 0.26373 0.0
O60 O 0.59699 0.60603 0.31208 0.0
C61 C 0.52477 0.60321 0.23631 0.0
H62 H 0.50209 0.584 0.42007 0.0
H63 H 0.60913 0.61316 0.09832 0.0
H64 H 0.65245 0.52889 0.2247 0.0
H65 H 0.57129 0.48568 0.2257 0.0
Co66 Co 0.17921 0.81864 0.5156 0.0
C67 C 0.21656 0.7963 0.59885 0.0
C68 C 0.17223 0.80005 0.61687 0.0
C69 C 0.18606 0.78962 0.65749 0.0
N70 N 0.19118 0.80452 0.58003 0.0
N71 N 0.21396 0.7871 0.64637 0.0
H72 H 0.23642 0.79673 0.57871 0.0
H73 H 0.1497 0.80449 0.61445 0.0
C74 C 0.17067 0.86653 0.58616 0.0
O75 O 0.19618 0.86042 0.60276 0.0
N76 N 0.16541 0.83211 0.45251 0.0
C77 C 0.17667 0.82691 0.40735 0.0
C78 C 0.15761 0.83577 0.37183 0.0
C79 C 0.13985 0.84421 0.44402 0.0
N80 N 0.13459 0.84667 0.39506 0.0
C81 C 0.2384 0.82502 0.4925 0.0
C82 C 0.23828 0.88333 0.47927 0.0
C83 C 0.26291 0.8681 0.46559 0.0
C84 C 0.26256 0.83843 0.47302 0.0
C85 C 0.21411 0.86887 0.49661 0.0
N86 N 0.21445 0.84006 0.50429 0.0
H87 H 0.23855 0.80206 0.49516 0.0
H88 H 0.19475 0.8809 0.5013 0.0
H89 H 0.19672 0.81624 0.40073 0.0
H90 H 0.12469 0.84953 0.47293 0.0
O91 O 0.19103 0.78352 0.48544 0.0
O92 O 0.14804 0.7908 0.5168 0.0
O93 O 0.16022 0.85214 0.55004 0.0
C94 C 0.16587 0.77354 0.49486 0.0
H95 H 0.17626 0.78492 0.69293 0.0
H96 H 0.16013 0.83376 0.33205 0.0
H97 H 0.23702 0.90623 0.47526 0.0
H98 H 0.28016 0.82509 0.4617 0.0
Co99 Co 0.95382 0.42594 0.76778 0.0
C100 C 0.98058 0.46008 0.84901 0.0
C101 C 0.97072 0.417 0.87003 0.0
C102 C 0.98211 0.43087 0.91029 0.0
N103 N 0.96968 0.43526 0.83175 0.0
N104 N 0.98835 0.45801 0.89725 0.0
H105 H 0.98262 0.47919 0.82687 0.0
H106 H 0.96315 0.39518 0.86895 0.0
C107 C 0.89321 0.40974 0.79227 0.0
O108 O 0.88431 0.42362 0.75306 0.0
N109 N 0.93772 0.41511 0.704 0.0
C110 C 0.93652 0.43004 0.66137 0.0
C111 C 0.92312 0.41366 0.62592 0.0
C112 C 0.92589 0.38946 0.69316 0.0
N113 N 0.91638 0.38819 0.64597 0.0
C114 C 0.95102 0.48325 0.73288 0.0
C115 C 0.90112 0.49952 0.77886 0.0
C116 C 0.9129 0.51728 0.74205 0.0
C117 C 0.93923 0.50955 0.72175 0.0
C118 C 0.91438 0.47352 0.79027 0.0
N119 N 0.93745 0.46437 0.76352 0.0
H120 H 0.97064 0.47779 0.71448 0.0
H121 H 0.9056 0.46075 0.81981 0.0
H122 H 0.945 0.45113 0.6554 0.0
H123 H 0.92364 0.37234 0.71976 0.0
O124 O 0.98973 0.4342 0.73662 0.0
O125 O 0.97737 0.39168 0.76472 0.0
O126 O 0.91964 0.40921 0.80318 0.0
C127 C 0.99632 0.40768 0.7427 0.0
H128 H 0.98463 0.4218 0.94684 0.0
H129 H 0.91899 0.41991 0.58802 0.0
H130 H 0.88147 0.50508 0.79757 0.0
H131 H 0.95043 0.52333 0.69599 0.0
Co132 Co 0.67856 0.83254 0.98208 0.0
C133 C 0.71289 0.81273 0.89403 0.0
C134 C 0.67403 0.78941 0.90532 0.0
C135 C 0.68773 0.77822 0.86472 0.0
N136 N 0.68979 0.81087 0.92403 0.0
N137 N 0.7122 0.79285 0.85736 0.0
H138 H 0.72966 0.82833 0.89844 0.0
H139 H 0.65389 0.78223 0.92048 0.0
C140 C 0.6622 0.78738 0.05884 0.0
O141 O 0.66763 0.80505 0.09553 0.0
N142 N 0.66581 0.85376 0.03964 0.0
C143 C 0.68009 0.87248 0.06838 0.0
C144 C 0.66173 0.88262 0.10448 0.0
C145 C 0.63902 0.85321 0.05791 0.0
N146 N 0.63601 0.87024 0.09797 0.0
C147 C 0.73574 0.85252 0.98975 0.0
C148 C 0.75319 0.8204 0.06941 0.0
C149 C 0.76967 0.8439 0.0546 0.0
C150 C 0.76136 0.85902 1.01276 0.0
C151 C 0.72744 0.81436 0.04478 0.0
N152 N 0.71792 0.83168 1.00752 0.0
H153 H 0.72992 0.86564 0.95883 0.0
H154 H 0.71532 0.7963 0.05706 0.0
H155 H 0.70218 0.87845 0.06367 0.0
H156 H 0.6221 0.84035 0.04221 0.0
O157 O 0.68193 0.86761 0.94597 0.0
O158 O 0.64242 0.84216 0.94918 0.0
O159 O 0.66683 0.79489 0.01386 0.0
C160 C 0.65568 0.86479 0.93292 0.0
H161 H 0.6804 0.76017 0.84311 0.0
H162 H 0.66702 0.89764 0.13361 0.0
H163 H 0.75933 0.80779 0.10118 0.0
H164 H 0.77387 0.87696 0.99951 0.0
Co165 Co 0.43786 0.43358 0.75049 0.0
C166 C 0.45884 0.45371 0.65124 0.0
C167 C 0.49101 0.45531 0.70737 0.0
C168 C 0.50252 0.46546 0.66397 0.0
N169 N 0.4637 0.44761 0.69949 0.0
N170 N 0.48231 0.46453 0.6287 0.0
H171 H 0.43851 0.45102 0.63317 0.0
H172 H 0.5016 0.45485 0.74283 0.0
C173 C 0.4778 0.40482 0.82582 0.0
O174 O 0.45804 0.40239 0.86008 0.0
N175 N 0.41188 0.41951 0.80091 0.0
C176 C 0.3909 0.43433 0.82345 0.0
C177 C 0.37481 0.41585 0.85173 0.0
C178 C 0.40749 0.39207 0.81407 0.0
N179 N 0.3855 0.38939 0.84607 0.0
C180 C 0.43338 0.49386 0.75907 0.0
C181 C 0.44001 0.4973 0.86062 0.0
C182 C 0.4297 0.52112 0.83508 0.0
C183 C 0.42773 0.51963 0.78337 0.0
C184 C 0.44597 0.47207 0.83473 0.0
N185 N 0.44118 0.47013 0.78492 0.0
H186 H 0.42945 0.49241 0.71969 0.0
H187 H 0.4519 0.45362 0.85566 0.0
H188 H 0.38706 0.45689 0.81869 0.0
H189 H 0.42003 0.37439 0.80023 0.0
O190 O 0.40514 0.44254 0.71094 0.0
O191 O 0.42752 0.40096 0.70939 0.0
O192 O 0.47257 0.4169 0.78437 0.0
C193 C 0.40635 0.41654 0.69414 0.0
H194 H 0.52367 0.47437 0.65944 0.0
H195 H 0.35669 0.42141 0.87471 0.0
H196 H 0.44191 0.49767 0.90064 0.0
H197 H 0.41969 0.53749 0.7623 0.0
Co198 Co 0.8439 0.18596 0.49626 0.0
C199 C 0.81214 0.21068 0.40957 0.0
C200 C 0.85502 0.22589 0.4155 0.0
C201 C 0.84297 0.2379 0.37414 0.0
N202 N 0.83566 0.20898 0.43812 0.0
N203 N 0.81597 0.22832 0.37044 0.0
H204 H 0.79272 0.19911 0.41621 0.0
H205 H 0.87654 0.22932 0.4284 0.0
C206 C 0.84882 0.24643 0.53115 0.0
O207 O 0.82551 0.25197 0.50627 0.0
N208 N 0.85317 0.163 0.55303 0.0
C209 C 0.83768 0.1412 0.57145 0.0
C210 C 0.85338 0.12775 0.60728 0.0
C211 C 0.87807 0.16255 0.57761 0.0
N212 N 0.87879 0.14111 0.61092 0.0
C213 C 0.78376 0.17487 0.50232 0.0
C214 C 0.7762 0.1971 0.5964 0.0
C215 C 0.75414 0.18117 0.57507 0.0
C216 C 0.75777 0.17077 0.52685 0.0
C217 C 0.80164 0.20131 0.57017 0.0
N218 N 0.80542 0.19009 0.52366 0.0
H219 H 0.7872 0.16357 0.46792 0.0
H220 H 0.81913 0.21112 0.58965 0.0
H221 H 0.81694 0.13471 0.55824 0.0
H222 H 0.8959 0.1764 0.56897 0.0
O223 O 0.83839 0.15129 0.45821 0.0
O224 O 0.87935 0.1746 0.46488 0.0
O225 O 0.85855 0.22099 0.53222 0.0
C226 C 0.86537 0.15279 0.44742 0.0
H227 H 0.85318 0.25292 0.34931 0.0
H228 H 0.84698 0.10896 0.62781 0.0
H229 H 0.77449 0.20462 0.63433 0.0
H230 H 0.74162 0.15737 0.50998 0.0
Co231 Co 0.0814 0.59063 0.24241 0.0
C232 C 0.06101 0.55629 0.15371 0.0
C233 C 0.04212 0.59762 0.16018 0.0
C234 C 0.03116 0.58436 0.11889 0.0
N235 N 0.06067 0.58001 0.18254 0.0
N236 N 0.04302 0.55831 0.11473 0.0
H237 H 0.07415 0.538 0.16012 0.0
H238 H 0.03662 0.61868 0.17353 0.0
C239 C 0.01992 0.58992 0.2747 0.0
O240 O 0.01581 0.56649 0.24881 0.0
N241 N 0.10116 0.60277 0.30123 0.0
C242 C 0.12308 0.5902 0.32441 0.0
C243 C 0.13165 0.60768 0.36284 0.0
C244 C 0.09674 0.62755 0.32542 0.0
N245 N 0.11508 0.63122 0.36331 0.0
C246 C 0.09734 0.53182 0.24615 0.0
C247 C 0.07159 0.51845 0.33535 0.0
C248 C 0.0886 0.49765 0.31205 0.0
C249 C 0.10084 0.50464 0.26605 0.0
C250 C 0.06789 0.5453 0.3132 0.0
N251 N 0.08039 0.55165 0.2686 0.0
H252 H 0.1093 0.53718 0.21322 0.0
H253 H 0.05648 0.56145 0.33371 0.0
H254 H 0.13255 0.57013 0.3135 0.0
H255 H 0.08123 0.64316 0.31383 0.0
O256 O 0.1174 0.5888 0.20727 0.0
O257 O 0.09026 0.62723 0.21193 0.0
O258 O 0.04456 0.60151 0.27617 0.0
C259 C 0.11375 0.61551 0.19638 0.0
H260 H 0.01517 0.59311 0.09459 0.0
H261 H 0.14908 0.60354 0.38787 0.0
H262 H 0.06237 0.51469 0.37161 0.0
H263 H 0.11392 0.48957 0.24585 0.0
Co264 Co 0.8413 0.69312 0.51395 0.0
C265 C 0.8076 0.72269 0.59516 0.0
C266 C 0.85221 0.71967 0.60998 0.0
C267 C 0.83925 0.73276 0.64975 0.0
N268 N 0.83242 0.71309 0.57571 0.0
N269 N 0.81112 0.73465 0.64057 0.0
H270 H 0.78732 0.72091 0.57722 0.0
H271 H 0.87457 0.71453 0.60684 0.0
C272 C 0.84829 0.64977 0.59395 0.0
O273 O 0.82532 0.66004 0.61533 0.0
N274 N 0.85156 0.67363 0.4532 0.0
C275 C 0.8359 0.67102 0.4117 0.0
C276 C 0.85151 0.65611 0.37689 0.0
C277 C 0.87656 0.66074 0.44296 0.0
N278 N 0.87708 0.64975 0.39654 0.0
C279 C 0.78111 0.69207 0.49731 0.0
C280 C 0.77459 0.6335 0.49714 0.0
C281 C 0.7512 0.6505 0.48443 0.0
C282 C 0.7547 0.6802 0.48549 0.0
C283 C 0.80064 0.64628 0.50927 0.0
N284 N 0.80363 0.67533 0.51018 0.0
H285 H 0.78363 0.7149 0.49446 0.0
H286 H 0.81877 0.63259 0.51449 0.0
H287 H 0.81476 0.67959 0.40687 0.0
H288 H 0.89397 0.65943 0.46901 0.0
O289 O 0.83335 0.72714 0.47689 0.0
O290 O 0.87557 0.71632 0.50759 0.0
O291 O 0.85736 0.66028 0.55304 0.0
C292 C 0.85994 0.73402 0.48247 0.0
H293 H 0.84977 0.73941 0.68348 0.0
H294 H 0.84482 0.65099 0.33954 0.0
H295 H 0.77332 0.61045 0.49513 0.0
H296 H 0.73737 0.69431 0.47599 0.0
Co297 Co 0.06782 0.09331 0.76876 0.0
C298 C 0.04375 0.05466 0.85005 0.0
C299 C 0.04407 0.09927 0.86761 0.0
C300 C 0.03319 0.08475 0.90752 0.0
N301 N 0.05076 0.08063 0.83125 0.0
N302 N 0.03291 0.05667 0.89667 0.0
H303 H 0.04666 0.03467 0.831 0.0
H304 H 0.0476 0.12205 0.86573 0.0
C305 C 0.11377 0.09839 0.84355 0.0
O306 O 0.1062 0.073 0.85952 0.0
N307 N 0.08445 0.10782 0.70806 0.0
C308 C 0.08361 0.09623 0.6624 0.0
C309 C 0.09538 0.11543 0.62931 0.0
C310 C 0.09649 0.13379 0.70224 0.0
N311 N 0.10343 0.13918 0.65435 0.0
C312 C 0.07086 0.03386 0.74471 0.0
C313 C 0.12933 0.03099 0.73503 0.0
C314 C 0.11298 1.00676 0.72344 0.0
C315 C 0.08335 1.00845 0.72871 0.0
C316 C 0.11594 0.05603 0.75096 0.0
N317 N 0.08705 0.05707 0.75705 0.0
H318 H 0.04792 0.03501 0.74611 0.0
H319 H 0.12882 0.07494 0.75589 0.0
H320 H 0.07431 0.0757 0.65357 0.0
H321 H 0.09954 0.14855 0.73265 0.0
O322 O 0.03305 0.08482 0.73447 0.0
O323 O 0.04295 0.12635 0.77009 0.0
O324 O 0.10096 0.10956 0.80673 0.0
C325 C 0.02521 0.1107 0.74472 0.0
H326 H 0.02692 0.0942 0.94255 0.0
H327 H 0.09686 0.11239 0.58961 0.0
H328 H 0.1522 0.03104 0.72982 0.0
H329 H 0.06981 0.99038 0.71996 0.0
Co330 Co 0.68014 0.31916 0.03085 0.0
C331 C 0.71985 0.29613 0.10788 0.0
C332 C 0.68341 0.31806 0.1375 0.0
C333 C 0.6987 0.3074 0.17623 0.0
N334 N 0.69657 0.31117 0.0947 0.0
N335 N 0.72148 0.29342 0.15787 0.0
H336 H 0.73458 0.28661 0.0817 0.0
H337 H 0.66348 0.3294 0.14036 0.0
C338 C 0.66491 0.38113 0.03776 0.0
O339 O 0.67334 0.38386 0.99146 0.0
N340 N 0.66106 0.32749 0.96875 0.0
C341 C 0.66875 0.32548 0.92054 0.0
C342 C 0.64563 0.33273 0.89156 0.0
C343 C 0.63346 0.33521 0.96806 0.0
N344 N 0.62345 0.33871 0.92176 0.0
C345 C 0.73073 0.32238 0.97196 0.0
C346 C 0.75124 0.37368 1.00783 0.0
C347 C 0.76476 0.36095 0.96694 0.0
C348 C 0.75492 0.33443 0.9504 0.0
C349 C 0.72739 0.36037 0.02929 0.0
N350 N 0.716 0.33625 1.00849 0.0
H351 H 0.72337 0.30214 0.95778 0.0
H352 H 0.71789 0.36984 0.06188 0.0
H353 H 0.68918 0.31877 0.90657 0.0
H354 H 0.621 0.3385 1.00142 0.0
O355 O 0.68762 0.28078 1.00928 0.0
O356 O 0.64791 0.29428 0.04706 0.0
O357 O 0.66586 0.35671 0.0588 0.0
C358 C 0.6626 0.27403 0.02585 0.0
H359 H 0.69332 0.30964 0.21513 0.0
H360 H 0.64504 0.33289 0.85144 0.0
H361 H 0.75893 0.39372 0.02283 0.0
H362 H 0.7651 0.32361 0.91954 0.0
Co363 Co 0.45418 0.93474 0.27067 0.0
C364 C 0.47865 0.97026 0.3552 0.0
C365 C 0.47621 0.92543 0.36964 0.0
C366 C 0.48695 0.93877 0.41094 0.0
N367 N 0.47075 0.94505 0.33457 0.0
N368 N 0.48854 0.96704 0.40202 0.0
H369 H 0.4773 0.99057 0.33708 0.0
H370 H 0.472 0.90283 0.36577 0.0
C371 C 0.40831 0.92534 0.34436 0.0
O372 O 0.41397 0.95122 0.36039 0.0
N373 N 0.43797 0.92293 0.20805 0.0
C374 C 0.43694 0.93819 0.16586 0.0
C375 C 0.42231 0.92259 0.13077 0.0
C376 C 0.42443 0.89812 0.19797 0.0
N377 N 0.41448 0.89743 0.15099 0.0
C378 C 0.44788 0.99479 0.25621 0.0
C379 C 0.38948 0.99479 0.24483 0.0
C380 C 0.40473 0.02006 0.23601 0.0
C381 C 0.43425 0.0199 0.24262 0.0
C382 C 0.404 0.97004 0.25847 0.0
N383 N 0.43287 0.97032 0.26531 0.0
H384 H 0.47082 0.99481 0.25684 0.0
H385 H 0.39214 0.9503 0.26042 0.0
H386 H 0.44582 0.95934 0.16119 0.0
H387 H 0.42133 0.88124 0.22478 0.0
O388 O 0.48815 0.94728 0.23723 0.0
O389 O 0.48144 0.90346 0.26552 0.0
O390 O 0.42204 0.91489 0.30746 0.0
C391 C 0.49801 0.92175 0.24299 0.0
H392 H 0.49233 0.92834 0.44534 0.0
H393 H 0.41787 0.92921 0.09318 0.0
H394 H 0.36675 0.99369 0.23845 0.0
H395 H 0.44695 0.03884 0.23572 0.0
Co396 Co 0.18111 0.33187 0.4961 0.0
C397 C 0.21169 0.30965 0.40751 0.0
C398 C 0.1788 0.28106 0.43201 0.0
C399 C 0.19204 0.26927 0.39118 0.0
N400 N 0.19134 0.30624 0.44254 0.0
N401 N 0.21278 0.28724 0.37578 0.0
H402 H 0.22507 0.32834 0.40463 0.0
H403 H 0.16122 0.27183 0.45247 0.0
C404 C 0.16203 0.29426 0.58235 0.0
O405 O 0.1689 0.31446 0.614 0.0
N406 N 0.17022 0.35773 0.54883 0.0
C407 C 0.18634 0.37733 0.57245 0.0
C408 C 0.16942 0.39173 0.60603 0.0
C409 C 0.14369 0.36092 0.56746 0.0
N410 N 0.14273 0.38114 0.60307 0.0
C411 C 0.23965 0.34817 0.49959 0.0
C412 C 0.25589 0.31834 0.58261 0.0
C413 C 0.27458 0.33893 0.56295 0.0
C414 C 0.26659 0.35264 0.51927 0.0
C415 C 0.22907 0.3139 0.56075 0.0
N416 N 0.22041 0.33009 0.52142 0.0
H417 H 0.23425 0.3605 0.46748 0.0
H418 H 0.21558 0.29781 0.57654 0.0
H419 H 0.20872 0.38113 0.56578 0.0
H420 H 0.12552 0.34848 0.55537 0.0
O421 O 0.18623 0.36418 0.45319 0.0
O422 O 0.14543 0.34133 0.46177 0.0
O423 O 0.16724 0.29737 0.53592 0.0
C424 C 0.15972 0.36212 0.44122 0.0
H425 H 0.18701 0.24877 0.37479 0.0
H426 H 0.17627 0.40849 0.63103 0.0
H427 H 0.26138 0.30655 0.61565 0.0
H428 H 0.2807 0.36769 0.50105 0.0
Co429 Co 0.9411 0.92285 0.24089 0.0
C430 C 0.96211 0.95598 0.15197 0.0
C431 C 0.98897 0.92092 0.17062 0.0
C432 C 1.00017 0.93421 0.12945 0.0
N433 N 0.96548 0.93498 0.18584 0.0
N434 N 0.98331 0.95638 0.11771 0.0
H435 H 0.94404 0.96991 0.15046 0.0
H436 H 0.99736 0.902 0.18804 0.0
C437 C 0.99884 0.92475 0.28611 0.0
O438 O 1.00098 0.95095 0.26926 0.0
N439 N 0.91687 0.90975 0.2944 0.0
C440 C 0.89358 0.9233 0.31164 0.0
C441 C 0.87928 0.90545 0.3435 0.0
C442 C 0.91635 0.8837 0.31568 0.0
N443 N 0.89345 0.88051 0.34577 0.0
C444 C 0.92739 0.98257 0.24895 0.0
C445 C 0.94113 0.98822 0.34795 0.0
C446 C 0.92703 0.01059 0.32433 0.0
C447 C 0.92085 1.00791 0.27392 0.0
C448 C 0.948 0.9635 0.32127 0.0
N449 N 0.94121 0.96075 0.2721 0.0
H450 H 0.91854 0.97964 0.21267 0.0
H451 H 0.95647 0.94564 0.34153 0.0
H452 H 0.8867 0.94421 0.30001 0.0
H453 H 0.93124 0.86688 0.30669 0.0
O454 O 0.90766 0.92719 0.20058 0.0
O455 O 0.93304 0.88759 0.20519 0.0
O456 O 0.97609 0.9102 0.27884 0.0
C457 C 0.91066 0.90057 0.18803 0.0
H458 H 0.01943 0.92807 0.11008 0.0
H459 H 0.85936 0.91009 0.36214 0.0
H460 H 0.94542 0.98919 0.38736 0.0
H461 H 0.90878 0.02423 0.25505 0.0
Co462 Co 0.34215 0.69728 0.9961 0.0
C463 C 0.3088 0.7179 0.90754 0.0
C464 C 0.34798 0.74034 0.91906 0.0
C465 C 0.33527 0.7511 0.87735 0.0
N466 N 0.33121 0.71985 0.93875 0.0
N467 N 0.31058 0.73698 0.86993 0.0
H468 H 0.29197 0.70244 0.91085 0.0
H469 H 0.36828 0.74697 0.93405 0.0
C470 C 0.34396 0.75778 0.03401 0.0
O471 O 0.31976 0.76286 1.01151 0.0
N472 N 0.35456 0.67547 0.05227 0.0
C473 C 0.3421 0.6524 0.07272 0.0
C474 C 0.35969 0.6422 0.10932 0.0
C475 C 0.37938 0.67902 0.07626 0.0
N476 N 0.38315 0.65896 0.11135 0.0
C477 C 0.28302 0.6824 1.00402 0.0
C478 C 0.27519 0.70199 0.09974 0.0
C479 C 0.25382 0.68526 0.07793 0.0
C480 C 0.25759 0.67623 0.02893 0.0
C481 C 0.30004 0.70847 0.07292 0.0
N482 N 0.30396 0.6985 0.0256 0.0
H483 H 0.28677 0.67179 0.96916 0.0
H484 H 0.31711 0.71916 0.09221 0.0
H485 H 0.32207 0.6432 0.06096 0.0
H486 H 0.39503 0.69506 0.06633 0.0
O487 O 0.33816 0.66231 0.95865 0.0
O488 O 0.37768 0.68815 0.9624 0.0
O489 O 0.35509 0.73297 0.03183 0.0
C490 C 0.3648 0.66525 0.94649 0.0
H491 H 0.34361 0.76822 0.85466 0.0
H492 H 0.3558 0.62351 0.13186 0.0
H493 H 0.27338 0.70867 0.13811 0.0
H494 H 0.24209 0.66231 1.0115 0.0
Co495 Co 0.57982 0.0987 0.75075 0.0
C496 C 0.55948 0.06451 0.66147 0.0
C497 C 0.53943 0.10512 0.67017 0.0
C498 C 0.52823 0.09196 0.62902 0.0
N499 N 0.55878 0.08786 0.69122 0.0
N500 N 0.54082 0.06633 0.6234 0.0
H501 H 0.5734 0.04668 0.66643 0.0
H502 H 0.53353 0.1259 0.68435 0.0
C503 C 0.51869 0.09759 0.78389 0.0
O504 O 0.51494 0.07368 0.75916 0.0
N505 N 0.59977 0.11134 0.80929 0.0
C506 C 0.62311 0.10034 0.83046 0.0
C507 C 0.6313 0.1182 0.86871 0.0
C508 C 0.59412 0.13553 0.83453 0.0
N509 N 0.61305 0.14049 0.87131 0.0
C510 C 0.59504 0.03989 0.75385 0.0
C511 C 0.57022 0.02629 0.84366 0.0
C512 C 0.58621 1.00524 0.81878 0.0
C513 C 0.5979 0.0124 0.77247 0.0
C514 C 0.56689 0.05349 0.82246 0.0
N515 N 0.57883 0.05988 0.77742 0.0
H516 H 0.60689 0.04526 0.72085 0.0
H517 H 0.55605 0.06975 0.84368 0.0
H518 H 0.6339 0.08125 0.81802 0.0
H519 H 0.57683 0.14952 0.82474 0.0
O520 O 0.61553 0.0962 0.71548 0.0
O521 O 0.58894 0.13505 0.71925 0.0
O522 O 0.54308 0.1097 0.78452 0.0
C523 C 0.61221 0.1228 0.70378 0.0
H524 H 0.51165 0.10054 0.60578 0.0
H525 H 0.64997 0.11528 0.8914 0.0
H526 H 0.56144 0.02235 0.88019 0.0
H527 H 0.61011 0.99722 0.75092 0.0
H528 H 0.46194 0.08629 0.77455 0.0
H529 H 0.52165 0.13879 0.85532 0.0
H530 H 0.4825 0.16169 0.89965 0.0
H531 H 0.43117 0.16784 0.91407 0.0
H532 H 0.37131 0.11662 0.8317 0.0
H533 H 0.41052 0.09233 0.78934 0.0
C534 C 0.46639 0.10262 0.80206 0.0
C535 C 0.49472 0.11075 0.81155 0.0
C536 C 0.4437 0.11606 0.82702 0.0
C537 C 0.50007 0.13215 0.84706 0.0
C538 C 0.47768 0.14527 0.87253 0.0
C539 C 0.42675 0.15115 0.88724 0.0
C540 C 0.39837 0.14403 0.8761 0.0
C541 C 0.44941 0.13752 0.86264 0.0
C542 C 0.39296 0.12269 0.84058 0.0
C543 C 0.41538 0.10872 0.8165 0.0
H544 H 0.61144 0.66215 0.07483 0.0
H545 H 0.63511 0.67513 0.22777 0.0
H546 H 0.65353 0.72231 0.208 0.0
H547 H 0.66195 0.76061 0.14819 0.0
H548 H 0.6402 0.74771 0.99445 0.0
H549 H 0.62243 0.69984 1.01355 0.0
C550 C 0.62093 0.67512 0.10372 0.0
C551 C 0.62138 0.66505 0.15295 0.0
C552 C 0.63183 0.7024 0.09201 0.0
C553 C 0.63373 0.68241 0.18983 0.0
C554 C 0.64449 0.70943 0.17852 0.0
C555 C 0.65336 0.74736 0.11875 0.0
C556 C 0.65229 0.75791 0.06999 0.0
C557 C 0.64335 0.71979 0.12991 0.0
C558 C 0.64131 0.74022 0.03234 0.0
C559 C 0.63109 0.71281 0.04325 0.0
H560 H 0.10596 0.8946 0.41657 0.0
H561 H 0.10538 0.82036 0.32232 0.0
H562 H 0.0615 0.83669 0.28269 0.0
H563 H 0.02403 0.87318 0.27298 0.0
H564 H 0.02775 0.94991 0.36108 0.0
H565 H 0.06931 0.93171 0.40529 0.0
C566 C 0.09603 0.88206 0.38752 0.0
C567 C 0.10869 0.85635 0.37233 0.0
C568 C 0.07134 0.89208 0.36392 0.0
C569 C 0.09599 0.84031 0.33425 0.0
C570 C 0.0709 0.8496 0.31177 0.0
C571 C 0.03384 0.88567 0.30225 0.0
C572 C 0.02279 0.91265 0.31429 0.0
C573 C 0.05846 0.87556 0.32605 0.0
C574 C 0.03594 0.92902 0.35144 0.0
C575 C 0.05969 0.91865 0.37663 0.0
H576 H 0.92345 0.33157 0.66025 0.0
H577 H 0.8748 0.39304 0.578 0.0
H578 H 0.84916 0.35461 0.53606 0.0
H579 H 0.84087 0.30359 0.52175 0.0
H580 H 0.8904 0.24161 0.60154 0.0
H581 H 0.91521 0.28002 0.64548 0.0
C582 C 0.90709 0.33647 0.6334 0.0
C583 C 0.90111 0.36516 0.62219 0.0
C584 C 0.8926 0.31416 0.6089 0.0
C585 C 0.88008 0.37119 0.58684 0.0
C586 C 0.8653 0.34921 0.563 0.0
C587 C 0.85699 0.29843 0.54891 0.0
C588 C 0.86366 0.26971 0.55836 0.0
C589 C 0.87145 0.32062 0.57354 0.0
C590 C 0.88484 0.26351 0.5934 0.0
C591 C 0.89904 0.28548 0.61862 0.0
H592 H 0.62005 0.91791 0.14623 0.0
H593 H 0.5945 0.83124 0.11571 0.0
H594 H 0.55015 0.83848 0.16184 0.0
H595 H 0.51728 0.87052 0.20751 0.0
H596 H 0.54263 0.95775 0.23413 0.0
H597 H 0.58843 0.94912 0.19406 0.0
C598 C 0.60496 0.90052 0.15025 0.0
C599 C 0.61053 0.87417 0.1273 0.0
C600 C 0.57938 0.90493 0.17634 0.0
C601 C 0.59053 0.8519 0.13233 0.0
C602 C 0.56522 0.85597 0.15897 0.0
C603 C 0.53307 0.88741 0.20515 0.0
C604 C 0.52664 0.91469 0.22376 0.0
C605 C 0.55921 0.88253 0.18067 0.0
C606 C 0.54708 0.93658 0.21989 0.0
C607 C 0.57327 0.9317 0.1969 0.0
H608 H 0.32415 0.28614 0.94821 0.0
H609 H 0.41105 0.25957 0.96953 0.0
H610 H 0.42808 0.30243 0.92663 0.0
H611 H 0.41801 0.34736 0.88232 0.0
H612 H 0.33111 0.37435 0.86432 0.0
H613 H 0.31419 0.33133 0.90658 0.0
C614 C 0.34683 0.28973 0.94357 0.0
C615 C 0.36633 0.2697 0.96184 0.0
C616 C 0.35639 0.31442 0.91929 0.0
C617 C 0.39564 0.27475 0.95591 0.0
C618 C 0.40536 0.29917 0.93122 0.0
C619 C 0.39539 0.3436 0.88742 0.0
C620 C 0.37575 0.36378 0.87006 0.0
C621 C 0.38591 0.31907 0.91252 0.0
C622 C 0.34653 0.35909 0.8776 0.0
C623 C 0.3369 0.33453 0.90164 0.0
H624 H 0.98069 0.07954 0.71278 0.0
H625 H 1.00867 0.1664 0.73465 0.0
H626 H 0.96495 0.18384 0.69587 0.0
H627 H 0.91975 0.17394 0.65178 0.0
H628 H 0.89258 0.08667 0.6315 0.0
H629 H 0.93492 0.06981 0.67394 0.0
C630 C 0.97717 0.10231 0.70935 0.0
C631 C 0.9979 0.12167 0.72613 0.0
C632 C 0.95215 0.11207 0.6872 0.0
C633 C 0.99293 0.1511 0.72201 0.0
C634 C 0.96803 0.16105 0.69965 0.0
C635 C 0.92318 0.15127 0.65685 0.0
C636 C 0.90309 0.13159 0.63851 0.0
C637 C 0.94767 0.14169 0.68143 0.0
C638 C 0.90752 0.10227 0.64577 0.0
C639 C 0.93182 0.09259 0.66976 0.0
H640 H 0.16302 0.64959 0.40776 0.0
H641 H 0.07456 0.67035 0.38662 0.0
H642 H 0.08149 0.7157 0.43005 0.0
H643 H 0.11396 0.7513 0.46855 0.0
H644 H 0.20249 0.72979 0.48694 0.0
H645 H 0.19409 0.68275 0.45137 0.0
C646 C 0.14507 0.66367 0.41344 0.0
C647 C 0.11839 0.65656 0.39344 0.0
C648 C 0.14924 0.68975 0.43808 0.0
C649 C 0.09549 0.67545 0.40078 0.0
C650 C 0.0994 0.70137 0.42585 0.0
C651 C 0.13119 0.73605 0.46557 0.0
C652 C 0.1588 0.74402 0.48008 0.0
C653 C 0.12635 0.70905 0.44384 0.0
C654 C 0.18107 0.72421 0.47562 0.0
C655 C 0.17632 0.6973 0.45522 0.0
H656 H 0.93331 0.65907 0.40911 0.0
H657 H 0.87294 0.60758 0.32841 0.0
H658 H 0.91182 0.58382 0.28434 0.0
H659 H 0.96307 0.57834 0.26736 0.0
H660 H 0.02337 0.63103 0.34642 0.0
H661 H 0.98459 0.65341 0.39255 0.0
C662 C 0.92871 0.64243 0.38228 0.0
C663 C 0.90024 0.63511 0.37209 0.0
C664 C 0.95121 0.6291 0.35661 0.0
C665 C 0.89463 0.61381 0.33658 0.0
C666 C 0.91687 0.60014 0.31149 0.0
C667 C 0.96775 0.59461 0.29485 0.0
C668 C 0.99615 0.60293 0.3033 0.0
C669 C 0.94526 0.60773 0.32093 0.0
C670 C 1.00174 0.62423 0.3389 0.0
C671 C 0.97956 0.63706 0.36543 0.0
H672 H 0.10549 0.19152 0.69791 0.0
H673 H 0.1287 0.14638 0.56392 0.0
H674 H 0.14793 0.19032 0.52892 0.0
H675 H 0.15887 0.24186 0.53649 0.0
H676 H 0.13724 0.28584 0.67233 0.0
H677 H 0.11718 0.24205 0.70633 0.0
C678 C 0.11499 0.19096 0.6613 0.0
C679 C 0.11541 0.16527 0.63391 0.0
C680 C 0.12645 0.2163 0.64149 0.0
C681 C 0.12756 0.16564 0.586 0.0
C682 C 0.13878 0.19085 0.56588 0.0
C683 C 0.14969 0.24186 0.57345 0.0
C684 C 0.14966 0.26721 0.60174 0.0
C685 C 0.13834 0.21636 0.59325 0.0
C686 C 0.13779 0.26669 0.64974 0.0
C687 C 0.12622 0.24162 0.66928 0.0
H688 H 0.49499 0.37312 0.90443 0.0
H689 H 0.52588 0.41072 0.76842 0.0
H690 H 0.57358 0.39281 0.78514 0.0
H691 H 0.60705 0.36748 0.83987 0.0
H692 H 0.57525 0.32882 0.97427 0.0
H693 H 0.5276 0.34612 0.95665 0.0
C694 C 0.51211 0.37748 0.8784 0.0
C695 C 0.50678 0.3936 0.83552 0.0
C696 C 0.53948 0.3669 0.88798 0.0
C697 C 0.52929 0.39865 0.80199 0.0
C698 C 0.55665 0.38833 0.81145 0.0
C699 C 0.58963 0.36256 0.86494 0.0
C700 C 0.59493 0.34718 0.90868 0.0
C701 C 0.56205 0.37253 0.85448 0.0
C702 C 0.57204 0.34114 0.94091 0.0
C703 C 0.54467 0.35091 0.93076 0.0
H704 H 0.42016 0.84069 0.16411 0.0
H705 H 0.37228 0.90381 0.08441 0.0
H706 H 0.34537 0.8662 0.04236 0.0
H707 H 0.33606 0.81523 0.02679 0.0
H708 H 0.38542 0.75197 0.10383 0.0
H709 H 0.41089 0.78957 0.14842 0.0
C710 C 0.40366 0.84614 0.13786 0.0
C711 C 0.39825 0.87501 0.12739 0.0
C712 C 0.38853 0.82433 0.11322 0.0
C713 C 0.37707 0.88176 0.09272 0.0
C714 C 0.36159 0.86026 0.06881 0.0
C715 C 0.35226 0.80967 0.05357 0.0
C716 C 0.35873 0.78079 0.06196 0.0
C717 C 0.36724 0.83145 0.07851 0.0
C718 C 0.38003 0.774 0.09646 0.0
C719 C 0.39462 0.79551 0.12207 0.0
H720 H 0.10004 0.34739 0.63604 0.0
H721 H 0.13065 0.43424 0.63485 0.0
H722 H 0.08864 0.44962 0.68124 0.0
H723 H 0.04241 0.43888 0.71843 0.0
H724 H 0.01106 0.35229 0.72119 0.0
H725 H 0.05434 0.3361 0.67826 0.0
C726 C 0.09737 0.36966 0.64588 0.0
C727 C 0.11827 0.38974 0.63171 0.0
C728 C 0.07318 0.3783 0.67289 0.0
C729 C 0.11493 0.41844 0.64553 0.0
C730 C 0.09088 0.42723 0.67188 0.0
C731 C 0.0451 0.4164 0.70999 0.0
C732 C 0.02352 0.3968 0.72261 0.0
C733 C 0.0698 0.40741 0.6853 0.0
C734 C 0.02744 0.36774 0.71196 0.0
C735 C 0.05207 0.35855 0.68715 0.0
H736 H 0.92539 0.83955 0.38849 0.0
H737 H 0.83895 0.86347 0.35571 0.0
H738 H 0.82122 0.82051 0.39601 0.0
H739 H 0.82992 0.77615 0.43985 0.0
H740 H 0.9158 0.75124 0.47474 0.0
H741 H 0.93415 0.79451 0.43449 0.0
C742 C 0.90273 0.83519 0.39014 0.0
C743 C 0.88352 0.85477 0.36943 0.0
C744 C 0.89258 0.81034 0.41379 0.0
C745 C 0.85416 0.84903 0.37206 0.0
C746 C 0.84399 0.82437 0.39487 0.0
C747 C 0.85269 0.78013 0.43877 0.0
C748 C 0.87147 0.76048 0.46013 0.0
C749 C 0.86297 0.80494 0.41588 0.0
C750 C 0.90088 0.76609 0.45862 0.0
C751 C 0.91137 0.79078 0.4355 0.0
H752 H 0.50194 0.65606 0.2184 0.0
H753 H 0.48347 0.56581 0.2124 0.0
H754 H 0.43718 0.57526 0.17644 0.0
H755 H 0.40318 0.60849 0.14168 0.0
H756 H 0.42085 0.69877 0.14384 0.0
H757 H 0.46612 0.69007 0.18588 0.0
C758 C 0.4876 0.6386 0.20957 0.0
C759 C 0.4962 0.61031 0.21766 0.0
C760 C 0.46095 0.64414 0.18783 0.0
C761 C 0.47751 0.58779 0.20595 0.0
C762 C 0.45096 0.59313 0.18546 0.0
C763 C 0.41662 0.62633 0.15215 0.0
C764 C 0.40863 0.65419 0.13966 0.0
C765 C 0.44264 0.62114 0.17555 0.0
C766 C 0.42667 0.67705 0.15264 0.0
C767 C 0.45251 0.67209 0.17678 0.0
H768 H 0.6488 0.14928 0.94922 0.0
H769 H 0.58124 0.18934 0.86651 0.0
H770 H 0.58732 0.23272 0.91418 0.0
H771 H 0.61559 0.26177 0.97254 0.0
H772 H 0.68567 0.22322 0.04938 0.0
H773 H 0.67458 0.17697 1.01158 0.0
C774 C 0.63528 0.16731 0.9413 0.0
C775 C 0.61494 0.16559 0.90303 0.0
C776 C 0.63924 0.19275 0.96835 0.0
C777 C 0.59732 0.18946 0.89496 0.0
C778 C 0.60075 0.2146 0.9224 0.0
C779 C 0.62769 0.24294 0.98227 0.0
C780 C 0.651 0.24558 0.01439 0.0
C781 C 0.62207 0.21675 0.95837 0.0
C782 C 0.66729 0.22141 0.02541 0.0
C783 C 0.66115 0.19508 1.00335 0.0
H784 H 0.31294 0.27786 0.22146 0.0
H785 H 0.25499 0.217 0.15577 0.0
H786 H 0.21964 0.22764 0.21954 0.0
H787 H 0.20577 0.25286 0.29579 0.0
H788 H 0.26491 0.31166 0.36398 0.0
H789 H 0.29905 0.30315 0.29742 0.0
C790 C 0.29269 0.26674 0.22115 0.0
C791 C 0.28687 0.24655 0.18368 0.0
C792 C 0.27257 0.27258 0.25853 0.0
C793 C 0.26013 0.23287 0.18355 0.0
C794 C 0.2399 0.23879 0.22035 0.0
C795 C 0.22616 0.26371 0.29643 0.0
C796 C 0.23259 0.28286 0.33525 0.0
C797 C 0.246 0.25838 0.25832 0.0
C798 C 0.25905 0.29708 0.33455 0.0
C799 C 0.27876 0.29208 0.29656 0.0
H800 H 0.52908 0.46559 0.57065 0.0
H801 H 0.44102 0.49104 0.57684 0.0
H802 H 0.4469 0.51758 0.49963 0.0
H803 H 0.47835 0.53767 0.43547 0.0
H804 H 0.56663 0.51331 0.4297 0.0
H805 H 0.55946 0.48191 0.50129 0.0
C806 C 0.51116 0.47678 0.55481 0.0
C807 C 0.48473 0.47662 0.57977 0.0
C808 C 0.51482 0.49227 0.51068 0.0
C809 C 0.46151 0.4907 0.55834 0.0
C810 C 0.46494 0.50607 0.51437 0.0
C811 C 0.49592 0.52525 0.4497 0.0
C812 C 0.52306 0.52803 0.42788 0.0
C813 C 0.49166 0.50762 0.49103 0.0
C814 C 0.54557 0.51144 0.44584 0.0
C815 C 0.54149 0.4937 0.48697 0.0
H816 H 0.20715 0.75329 0.72647 0.0
H817 H 0.27067 0.79923 0.64216 0.0
H818 H 0.30684 0.78614 0.70279 0.0
H819 H 0.31975 0.76383 0.78199 0.0
H820 H 0.25482 0.72118 0.86871 0.0
H821 H 0.21995 0.73091 0.80476 0.0
C822 C 0.2288 0.76074 0.72135 0.0
C823 C 0.23594 0.7776 0.67986 0.0
C824 C 0.24931 0.75374 0.75694 0.0
C825 C 0.26445 0.78616 0.67341 0.0
C826 C 0.28514 0.77884 0.70835 0.0
C827 C 0.29799 0.75679 0.78732 0.0
C828 C 0.29017 0.74181 0.83073 0.0
C829 C 0.2777 0.76302 0.7507 0.0
C830 C 0.26181 0.73242 0.83586 0.0
C831 C 0.24168 0.73816 0.79931 0.0
H832 H 0.018 0.45087 0.98197 0.0
H833 H 0.98329 0.5155 0.88616 0.0
H834 H 0.99873 0.55254 0.94402 0.0
H835 H 0.02004 0.56641 0.02369 0.0
H836 H 0.05164 0.5011 0.12161 0.0
H837 H 0.03943 0.46464 0.06095 0.0
C838 C 0.01354 0.47299 0.9737 0.0
C839 C 0.99917 0.48016 0.9297 0.0
C840 C 0.02192 0.49417 1.00766 0.0
C841 C 0.99442 0.50917 0.91936 0.0
C842 C 1.00308 0.53042 0.9527 0.0
C843 C 0.02412 0.54423 0.03211 0.0
C844 C 0.03675 0.53677 0.07766 0.0
C845 C 0.01649 0.52313 0.99732 0.0
C846 C 0.04232 0.50779 0.08697 0.0
C847 C 0.03513 0.48677 0.05231 0.0
H848 H 0.81825 0.76961 0.72021 0.0
H849 H 0.75413 0.72387 0.63697 0.0
H850 H 0.71776 0.73997 0.69468 0.0
H851 H 0.70418 0.76502 0.77052 0.0
H852 H 0.76835 0.80768 0.85801 0.0
H853 H 0.80449 0.79493 0.79657 0.0
C854 C 0.79641 0.76291 0.71466 0.0
C855 C 0.78929 0.74533 0.67388 0.0
C856 C 0.77547 0.77172 0.74885 0.0
C857 C 0.76055 0.73757 0.66726 0.0
C858 C 0.73961 0.74663 0.70062 0.0
C859 C 0.72606 0.77138 0.77667 0.0
C860 C 0.73337 0.78708 0.81948 0.0
C861 C 0.74687 0.76339 0.74184 0.0
C862 C 0.76187 0.79576 0.82553 0.0
C863 C 0.78266 0.78828 0.79049 0.0
H864 H 0.71156 0.26578 0.243 0.0
H865 H 0.77798 0.28747 0.13891 0.0
H866 H 0.81371 0.26746 0.1951 0.0
H867 H 0.82598 0.24701 0.2768 0.0
H868 H 0.75867 0.22796 0.38137 0.0
H869 H 0.72335 0.24376 0.32199 0.0
C870 C 0.73387 0.26619 0.23259 0.0
C871 C 0.74219 0.27852 0.18725 0.0
C872 C 0.75411 0.25524 0.26533 0.0
C873 C 0.77108 0.27808 0.17359 0.0
C874 C 0.79147 0.26686 0.2059 0.0
C875 C 0.80361 0.24639 0.28667 0.0
C876 C 0.79513 0.23636 0.33383 0.0
C877 C 0.78326 0.25595 0.2524 0.0
C878 C 0.76593 0.2352 0.34542 0.0
C879 C 0.74566 0.24444 0.31152 0.0
H880 H 0.01496 0.94961 0.03378 0.0
H881 H 0.96177 1.00993 0.11209 0.0
H882 H 0.97084 0.04543 0.04832 0.0
H883 H 0.99548 0.06036 0.97263 0.0
H884 H 0.05094 1.00152 0.89621 0.0
H885 H 0.03914 0.96447 0.95665 0.0
C886 C 1.00541 0.97052 0.03719 0.0
C887 C 0.98768 0.97687 0.0782 0.0
C888 C 0.01112 0.9912 1.00059 0.0
C889 C 0.97517 1.00407 0.081 0.0
C890 C 0.98052 0.02457 0.04459 0.0
C891 C 1.00519 0.03952 0.9692 0.0
C892 C 0.02435 0.03398 0.92997 0.0
C893 C 0.99873 0.0185 1.0046 0.0
C894 C 0.03602 1.00648 0.92565 0.0
C895 C 0.02943 0.9853 0.96051 0.0
H896 H 0.52034 0.96022 0.48483 0.0
H897 H 0.47738 0.02406 0.3978 0.0
H898 H 0.49122 0.06062 0.45736 0.0
H899 H 0.5141 0.07435 0.53541 0.0
H900 H 0.55371 1.00968 0.62547 0.0
H901 H 0.54252 0.97377 0.5633 0.0
C902 C 0.51367 0.98201 0.47882 0.0
C903 C 0.49762 0.98904 0.43649 0.0
C904 C 0.52113 1.00295 0.51391 0.0
C905 C 0.48993 0.01775 0.42938 0.0
C906 C 0.49769 0.03877 0.46377 0.0
C907 C 0.52014 0.05243 0.54195 0.0
C908 C 0.53481 0.04507 0.58564 0.0
C909 C 0.51306 0.03157 0.50641 0.0
C910 C 0.54281 0.0164 0.59231 0.0
C911 C 0.53621 0.99566 0.55678 0.0
H912 H 0.14474 0.08158 0.92328 0.0
H913 H 0.13804 0.14874 0.81464 0.0
H914 H 0.17931 0.17273 0.85039 0.0
H915 H 0.21812 0.17391 0.91053 0.0
H916 H 0.22487 0.10724 0.01984 0.0
H917 H 0.18287 0.08359 0.98529 0.0
C918 C 0.15225 0.1015 0.90745 0.0
C919 C 0.13832 0.11328 0.86623 0.0
C920 C 0.17605 0.1152 0.92814 0.0
C921 C 0.14832 0.13916 0.84634 0.0
C922 C 0.17196 0.1529 0.86672 0.0
C923 C 0.21015 0.15446 0.92741 0.0
C924 C 0.22456 0.14244 0.96789 0.0
C925 C 0.18604 0.14105 0.90745 0.0
C926 C 0.21431 0.11683 0.98845 0.0
C927 C 0.19025 0.10336 0.96882 0.0
H928 H 0.63946 0.50184 0.13374 0.0
H929 H 0.61386 0.44885 0.25643 0.0
H930 H 0.62794 0.40604 0.21017 0.0
H931 H 0.64517 0.38365 0.13309 0.0
H932 H 0.66837 0.4368 1.00867 0.0
H933 H 0.6574 0.47945 0.05702 0.0
C934 C 0.63755 0.48092 0.15055 0.0
C935 C 0.62607 0.4784 0.19854 0.0
C936 C 0.6448 0.45641 0.1231 0.0
C937 C 0.62295 0.4512 0.21966 0.0
C938 C 0.63081 0.42677 0.19311 0.0
C939 C 0.64785 0.40455 0.11651 0.0
C940 C 0.65749 0.40691 0.06715 0.0
C941 C 0.64131 0.42908 0.14446 0.0
C942 C 0.66082 0.43424 0.0464 0.0
C943 C 0.65466 0.45871 0.07412 0.0
H944 H 0.31931 0.85102 0.46195 0.0
H945 H 0.26344 0.91807 0.41102 0.0
H946 H 0.30334 0.9416 0.37141 0.0
H947 H 0.35418 0.94333 0.34945 0.0
H948 H 0.40853 0.87328 0.38874 0.0
H949 H 0.36877 0.85008 0.43258 0.0
C950 C 0.31536 0.87042 0.44148 0.0
C951 C 0.28784 0.8826 0.44084 0.0
C952 C 0.33822 0.88323 0.41585 0.0
C953 C 0.28413 0.90829 0.41449 0.0
C954 C 0.307 0.92174 0.39081 0.0
C955 C 0.35713 0.92285 0.36733 0.0
C956 C 0.38402 0.90993 0.36623 0.0
C957 C 0.33409 0.90942 0.3912 0.0
C958 C 0.38782 0.88339 0.38904 0.0
C959 C 0.36518 0.87029 0.41427 0.0
H960 H 0.84484 0.62992 0.68884 0.0
H961 H 0.88303 0.61239 0.54604 0.0
H962 H 0.90511 0.56954 0.57913 0.0
H963 H 0.91295 0.53687 0.64736 0.0
H964 H 0.87844 0.55548 0.79259 0.0
H965 H 0.85472 0.59765 0.75925 0.0
C966 C 0.85802 0.6167 0.66504 0.0
C967 C 0.86226 0.62433 0.61501 0.0
C968 C 0.87106 0.5922 0.68454 0.0
C969 C 0.87955 0.60712 0.5847 0.0
C970 C 0.89209 0.58254 0.60354 0.0
C971 C 0.90079 0.55036 0.67231 0.0
C972 C 0.89792 0.54301 0.72277 0.0
C973 C 0.88801 0.57493 0.65332 0.0
C974 C 0.88099 0.56035 0.75361 0.0
C975 C 0.86757 0.58463 0.73461 0.0
H976 H 0.82216 0.82078 0.0751 0.0
H977 H 0.76931 0.89434 0.10139 0.0
H978 H 0.80841 0.91854 0.14348 0.0
H979 H 0.85771 0.91976 0.17025 0.0
H980 H 0.91171 0.84675 0.14665 0.0
H981 H 0.87235 0.82148 0.1057 0.0
C982 C 0.81926 0.8419 0.09081 0.0
C983 C 0.79294 0.85581 0.08536 0.0
C984 C 0.84212 0.85595 0.11465 0.0
C985 C 0.7894 0.88329 0.1053 0.0
C986 C 0.81177 0.89718 0.12911 0.0
C987 C 0.86104 0.89838 0.15587 0.0
C988 C 0.88775 0.88533 0.16091 0.0
C989 C 0.8383 0.88393 0.13334 0.0
C990 C 0.89143 0.8574 0.14282 0.0
C991 C 0.86887 0.8429 0.11961 0.0
H992 H 0.44033 0.5783 0.82309 0.0
H993 H 0.38977 0.51849 0.90739 0.0
H994 H 0.36467 0.55776 0.94776 0.0
H995 H 0.3561 0.60896 0.95777 0.0
H996 H 0.40866 0.66958 0.87951 0.0
H997 H 0.43392 0.63033 0.83789 0.0
C998 C 0.42398 0.574 0.85063 0.0
C999 C 0.41697 0.54555 0.86242 0.0
C1000 C 0.40984 0.5968 0.87435 0.0
C1001 C 0.3958 0.54019 0.89821 0.0
C1002 C 0.38128 0.56262 0.92102 0.0
C1003 C 0.37299 0.61355 0.93135 0.0
C1004 C 0.38023 0.64202 0.92091 0.0
C1005 C 0.38792 0.59097 0.90906 0.0
C1006 C 0.40262 0.64776 0.88772 0.0
C1007 C 0.41705 0.62534 0.86404 0.0
H1008 H 0.69709 0.19173 0.56494 0.0
H1009 H 0.75795 0.14633 0.65375 0.0
H1010 H 0.71937 0.12432 0.7014 0.0
H1011 H 0.66847 0.1164 0.71568 0.0
H1012 H 0.60681 0.16406 0.63253 0.0
H1013 H 0.64536 0.18698 0.5849 0.0
C1014 C 0.70173 0.17725 0.59512 0.0
C1015 C 0.73022 0.1706 0.60603 0.0
C1016 C 0.67934 0.16504 0.62307 0.0
C1017 C 0.73615 0.15187 0.64512 0.0
C1018 C 0.71413 0.1392 0.67215 0.0
C1019 C 0.66351 0.13189 0.68718 0.0
C1020 C 0.63496 0.13833 0.67701 0.0
C1021 C 0.68569 0.14536 0.66111 0.0
C1022 C 0.62871 0.15879 0.64079 0.0
C1023 C 0.65073 0.17179 0.61355 0.0
H1024 H 0.13838 0.46794 0.30634 0.0
H1025 H 0.05528 0.46476 0.37526 0.0
H1026 H 0.06865 0.42105 0.41873 0.0
H1027 H 0.10541 0.38467 0.44037 0.0
H1028 H 0.18728 0.38879 0.36743 0.0
H1029 H 0.17231 0.43031 0.3207 0.0
C1030 C 0.12266 0.45748 0.32959 0.0
C1031 C 0.0957 0.46994 0.33694 0.0
C1032 C 0.13025 0.43215 0.35369 0.0
C1033 C 0.07634 0.45612 0.36908 0.0
C1034 C 0.0839 0.43089 0.39375 0.0
C1035 C 0.11961 0.39431 0.41334 0.0
C1036 C 0.14745 0.38365 0.40743 0.0
C1037 C 0.11096 0.41879 0.38675 0.0
C1038 C 0.1658 0.39662 0.37283 0.0
C1039 C 0.15732 0.42048 0.34619 0.0
H1040 H 0.6421 0.5779 0.42714 0.0
H1041 H 0.63412 0.64538 0.31944 0.0
H1042 H 0.67638 0.66876 0.35286 0.0
H1043 H 0.71686 0.66893 0.40978 0.0
H1044 H 0.72449 0.60222 0.51893 0.0
H1045 H 0.68137 0.57947 0.48717 0.0
C1046 C 0.64948 0.59781 0.41113 0.0
C1047 C 0.63491 0.60977 0.37069 0.0
C1048 C 0.67391 0.61118 0.43047 0.0
C1049 C 0.6448 0.63566 0.3506 0.0
C1050 C 0.66906 0.64903 0.3696 0.0
C1051 C 0.70888 0.64971 0.42737 0.0
C1052 C 0.72405 0.63737 0.46682 0.0
C1053 C 0.68393 0.63686 0.40921 0.0
C1054 C 0.71356 0.61205 0.48815 0.0
C1055 C 0.68878 0.59908 0.47018 0.0
H1056 H 0.09473 0.9721 0.64819 0.0
H1057 H 0.16216 0.98201 0.75518 0.0
H1058 H 0.18553 0.93946 0.72249 0.0
H1059 H 0.18715 0.89986 0.66333 0.0
H1060 H 0.11983 0.88936 0.55629 0.0
H1061 H 0.09581 0.9315 0.58988 0.0
C1062 C 0.11435 0.96476 0.6648 0.0
C1063 C 0.12666 0.98032 0.70414 0.0
C1064 C 0.12767 0.94017 0.64587 0.0
C1065 C 0.15238 0.97071 0.72454 0.0
C1066 C 0.16569 0.94628 0.70602 0.0
C1067 C 0.16719 0.90668 0.64729 0.0
C1068 C 0.15536 0.89144 0.60723 0.0
C1069 C 0.1536 0.93094 0.66659 0.0
C1070 C 0.12942 0.90064 0.58714 0.0
C1071 C 0.1157 0.92478 0.60629 0.0
H1072 H 0.81693 0.34016 0.94287 0.0
H1073 H 0.76363 0.41421 0.92752 0.0
H1074 H 0.79839 0.43577 0.87077 0.0
H1075 H 0.84291 0.43233 0.82209 0.0
H1076 H 0.89769 0.35974 0.84191 0.0
H1077 H 0.86337 0.33862 0.89997 0.0
C1078 C 0.81318 0.36117 0.9275 0.0
C1079 C 0.78782 0.37561 0.93916 0.0
C1080 C 0.83331 0.37344 0.89519 0.0
C1081 C 0.78316 0.40287 0.91936 0.0
C1082 C 0.80288 0.41505 0.88659 0.0
C1083 C 0.84718 0.41184 0.83906 0.0
C1084 C 0.87243 0.39728 0.82724 0.0
C1085 C 0.82779 0.40031 0.87355 0.0
C1086 C 0.87821 0.37114 0.85029 0.0
C1087 C 0.85866 0.35912 0.88349 0.0
H1088 H 0.42302 0.05432 0.16125 0.0
H1089 H 0.35402 0.04329 0.26572 0.0
H1090 H 0.33026 0.08532 0.232 0.0
H1091 H 0.32909 0.12494 0.1726 0.0
H1092 H 0.39814 0.13556 0.06786 0.0
H1093 H 0.42212 0.09412 0.1026 0.0
C1094 C 0.40296 0.06132 0.17713 0.0
C1095 C 0.3904 0.04581 0.21622 0.0
C1096 C 0.38947 0.08542 0.15757 0.0
C1097 C 0.36406 0.05477 0.23549 0.0
C1098 C 0.35054 0.07885 0.21636 0.0
C1099 C 0.34944 0.1183 0.15745 0.0
C1100 C 0.36179 0.13341 0.11768 0.0
C1101 C 0.36303 0.0943 0.17735 0.0
C1102 C 0.38813 0.12437 0.09845 0.0
C1103 C 0.40187 0.10065 0.11826 0.0
H1104 H 0.29568 0.39256 0.57149 0.0
H1105 H 0.31345 0.30566 0.61333 0.0
H1106 H 0.35701 0.32158 0.6552 0.0
H1107 H 0.38962 0.36086 0.68133 0.0
H1108 H 0.37056 0.44716 0.63742 0.0
H1109 H 0.32849 0.43057 0.59334 0.0
C1110 C 0.30929 0.37686 0.5888 0.0
C1111 C 0.30132 0.34785 0.58862 0.0
C1112 C 0.33428 0.38608 0.61213 0.0
C1113 C 0.31888 0.32814 0.61299 0.0
C1114 C 0.34392 0.33722 0.63665 0.0
C1115 C 0.37649 0.37588 0.66133 0.0
C1116 C 0.38325 0.40521 0.6625 0.0
C1117 C 0.35184 0.3662 0.63654 0.0
C1118 C 0.36582 0.42451 0.63713 0.0
C1119 C 0.34168 0.41506 0.61204 0.0
H1120 H 0.85559 0.09629 0.4554 0.0
H1121 H 0.90806 0.15781 0.37909 0.0
H1122 H 0.93209 0.11925 0.33369 0.0
H1123 H 0.93764 0.06763 0.31518 0.0
H1124 H 0.88792 1.00643 0.39768 0.0
H1125 H 0.86349 0.04506 0.44155 0.0
C1126 C 0.8722 0.10118 0.42859 0.0
C1127 C 0.87981 0.12974 0.41983 0.0
C1128 C 0.88653 0.07891 0.40413 0.0
C1129 C 0.9018 0.13591 0.38606 0.0
C1130 C 0.91551 0.11389 0.3602 0.0
C1131 C 0.92163 0.06291 0.34312 0.0
C1132 C 0.91456 0.03434 0.35343 0.0
C1133 C 0.90805 0.08528 0.3689 0.0
C1134 C 0.89384 0.02831 0.38963 0.0
C1135 C 0.87976 0.05036 0.41444 0.0
H1136 H 0.17025 0.61341 0.21284 0.0
H1137 H 0.10731 0.65503 0.12309 0.0
H1138 H 0.14502 0.68103 0.07852 0.0
H1139 H 0.19647 0.69053 0.06342 0.0
H1140 H 0.25858 0.65185 0.15892 0.0
H1141 H 0.22081 0.62634 0.20334 0.0
C1142 C 0.16487 0.6282 0.18348 0.0
C1143 C 0.13619 0.63204 0.17056 0.0
C1144 C 0.18655 0.6437 0.15936 0.0
C1145 C 0.12932 0.65168 0.13335 0.0
C1146 C 0.15086 0.6665 0.10793 0.0
C1147 C 0.20156 0.6768 0.09441 0.0
C1148 C 0.23021 0.67309 0.10806 0.0
C1149 C 0.17961 0.66255 0.1204 0.0
C1150 C 0.23665 0.65525 0.14819 0.0
C1151 C 0.21509 0.64051 0.17333 0.0
H1152 H 0.63472 0.97402 0.80798 0.0
H1153 H 0.55341 0.97249 0.88332 0.0
H1154 H 0.56618 0.92726 0.92262 0.0
H1155 H 0.60209 0.88888 0.93838 0.0
H1156 H 0.68171 0.89147 0.85805 0.0
H1157 H 0.66712 0.93467 0.81579 0.0
C1158 C 0.61913 0.96362 0.83159 0.0
C1159 C 0.59291 0.97694 0.84194 0.0
C1160 C 0.62625 0.93739 0.85292 0.0
C1161 C 0.57391 0.96318 0.87478 0.0
C1162 C 0.5811 0.93708 0.89701 0.0
C1163 C 0.61577 0.89855 0.9106 0.0
C1164 C 0.64294 0.88698 0.90124 0.0
C1165 C 0.60738 0.92401 0.88665 0.0
C1166 C 0.66073 0.89999 0.86588 0.0
C1167 C 0.6525 0.92482 0.84189 0.0
loop_
_geom_bond_atom_site_label_1
_geom_bond_atom_site_label_2
_geom_bond_distance
_geom_bond_site_symmetry_2
_ccdc_geom_bond_type
Co0 N4 2.148 . S
Co0 N10 2.128 1_554 S
Co0 N20 2.194 1_554 S
Co0 O25 2.351 1_554 S
Co0 O26 2.155 . S
Co0 O27 2.096 . S
C1 N4 1.301 . S
C1 N5 1.328 . S
C1 H6 0.930 . S
C2 C3 1.333 . S
C2 N4 1.317 . S
C2 H7 0.930 . S
C3 C2 1.333 . S
C3 N5 1.350 . S
C3 H29 0.931 . S
N4 Co0 2.148 . S
N4 C1 1.301 . S
N4 C2 1.317 . S
N5 C1 1.328 . S
N5 C3 1.350 . S
H6 C1 0.930 . S
H7 C2 0.930 . S
C8 O9 1.224 . S
C8 O27 1.247 . S
O9 C8 1.224 . S
N10 Co0 2.128 1_556 S
N10 C11 1.355 . S
N10 C13 1.311 . S
C11 N10 1.355 . S
C11 C12 1.363 . S
C11 H23 0.929 . S
C12 C11 1.363 . S
C12 N14 1.375 . S
C12 H30 0.931 . S
C13 N10 1.311 . S
C13 N14 1.347 . S
C13 H24 0.929 . S
N14 C12 1.375 . S
N14 C13 1.347 . S
C15 C18 1.365 . S
C15 N20 1.328 . S
C15 H21 0.929 . S
C16 C17 1.362 . S
C16 C19 1.378 . S
C16 H31 0.929 . S
C17 C16 1.362 . S
C17 C18 1.366 . S
C18 C15 1.365 . S
C18 C17 1.366 . S
C18 H32 0.930 . S
C19 C16 1.378 . S
C19 N20 1.315 . S
C19 H22 0.930 1_556 S
N20 Co0 2.194 1_556 S
N20 C15 1.328 . S
N20 C19 1.315 . S
H21 C15 0.929 . S
H22 C19 0.930 1_554 S
H23 C11 0.929 . S
H24 C13 0.929 . S
O25 Co0 2.351 1_556 S
O25 C28 1.244 . S
O26 Co0 2.155 . S
O26 C28 1.240 1_554 S
O27 Co0 2.096 . S
O27 C8 1.247 . S
C28 O25 1.244 . S
C28 O26 1.240 1_556 S
H29 C3 0.931 . S
H30 C12 0.931 . S
H31 C16 0.929 . S
H32 C18 0.930 . S
Co33 N37 2.148 . S
Co33 N43 2.128 . S
Co33 N53 2.194 . S
Co33 O58 2.351 . S
Co33 O59 2.155 . S
Co33 O60 2.096 . S
C34 N37 1.301 . S
C34 N38 1.328 . S
C34 H39 0.930 . S
C35 C36 1.333 . S
C35 N37 1.317 . S
C35 H40 0.930 . S
C36 C35 1.333 . S
C36 N38 1.350 . S
C36 H62 0.931 . S
N37 Co33 2.148 . S
N37 C34 1.301 . S
N37 C35 1.317 . S
N38 C34 1.328 . S
N38 C36 1.350 . S
H39 C34 0.930 . S
H40 C35 0.930 . S
C41 O42 1.224 . S
C41 O60 1.247 . S
O42 C41 1.224 . S
N43 Co33 2.128 . S
N43 C44 1.355 . S
N43 C46 1.311 . S
C44 N43 1.355 . S
C44 C45 1.363 . S
C44 H56 0.929 . S
C45 C44 1.363 . S
C45 N47 1.375 . S
C45 H63 0.931 . S
C46 N43 1.311 . S
C46 N47 1.347 . S
C46 H57 0.929 . S
N47 C45 1.375 . S
N47 C46 1.347 . S
C48 C51 1.365 . S
C48 N53 1.328 . S
C48 H54 0.929 . S
C49 C50 1.362 . S
C49 C52 1.378 . S
C49 H64 0.929 . S
C50 C49 1.362 . S
C50 C51 1.366 . S
C51 C48 1.365 . S
C51 C50 1.366 . S
C51 H65 0.930 . S
C52 C49 1.378 . S
C52 N53 1.315 . S
C52 H55 0.930 . S
N53 Co33 2.194 . S
N53 C48 1.328 . S
N53 C52 1.315 . S
H54 C48 0.929 . S
H55 C52 0.930 . S
H56 C44 0.929 . S
H57 C46 0.929 . S
O58 Co33 2.351 . S
O58 C61 1.244 . S
O59 Co33 2.155 . S
O59 C61 1.240 . S
O60 Co33 2.096 . S
O60 C41 1.247 . S
C61 O58 1.244 . S
C61 O59 1.240 . S
H62 C36 0.931 . S
H63 C45 0.931 . S
H64 C49 0.929 . S
H65 C51 0.930 . S
Co66 N70 2.148 . S
Co66 N76 2.128 . S
Co66 N86 2.194 . S
Co66 O91 2.351 . S
Co66 O92 2.155 . S
Co66 O93 2.096 . S
C67 N70 1.301 . S
C67 N71 1.328 . S
C67 H72 0.930 . S
C68 C69 1.333 . S
C68 N70 1.317 . S
C68 H73 0.930 . S
C69 C68 1.333 . S
C69 N71 1.350 . S
C69 H95 0.931 . S
N70 Co66 2.148 . S
N70 C67 1.301 . S
N70 C68 1.317 . S
N71 C67 1.328 . S
N71 C69 1.350 . S
H72 C67 0.930 . S
H73 C68 0.930 . S
C74 O75 1.224 . S
C74 O93 1.247 . S
O75 C74 1.224 . S
N76 Co66 2.128 . S
N76 C77 1.355 . S
N76 C79 1.311 . S
C77 N76 1.355 . S
C77 C78 1.363 . S
C77 H89 0.929 . S
C78 C77 1.363 . S
C78 N80 1.375 . S
C78 H96 0.931 . S
C79 N76 1.311 . S
C79 N80 1.347 . S
C79 H90 0.929 . S
N80 C78 1.375 . S
N80 C79 1.347 . S
C81 C84 1.365 . S
C81 N86 1.328 . S
C81 H87 0.929 . S
C82 C83 1.362 . S
C82 C85 1.378 . S
C82 H97 0.929 . S
C83 C82 1.362 . S
C83 C84 1.366 . S
C84 C81 1.365 . S
C84 C83 1.366 . S
C84 H98 0.930 . S
C85 C82 1.378 . S
C85 N86 1.315 . S
C85 H88 0.930 . S
N86 Co66 2.194 . S
N86 C81 1.328 . S
N86 C85 1.315 . S
H87 C81 0.929 . S
H88 C85 0.930 . S
H89 C77 0.929 . S
H90 C79 0.929 . S
O91 Co66 2.351 . S
O91 C94 1.244 . S
O92 Co66 2.155 . S
O92 C94 1.240 . S
O93 Co66 2.096 . S
O93 C74 1.247 . S
C94 O91 1.244 . S
C94 O92 1.240 . S
H95 C69 0.931 . S
H96 C78 0.931 . S
H97 C82 0.929 . S
H98 C84 0.930 . S
Co99 N103 2.148 . S
Co99 N109 2.128 . S
Co99 N119 2.194 . S
Co99 O124 2.351 . S
Co99 O125 2.155 . S
Co99 O126 2.096 . S
C100 N103 1.301 . S
C100 N104 1.328 . S
C100 H105 0.930 . S
C101 C102 1.333 . S
C101 N103 1.317 . S
C101 H106 0.930 . S
C102 C101 1.333 . S
C102 N104 1.350 . S
C102 H128 0.931 . S
N103 Co99 2.148 . S
N103 C100 1.301 . S
N103 C101 1.317 . S
N104 C100 1.328 . S
N104 C102 1.350 . S
H105 C100 0.930 . S
H106 C101 0.930 . S
C107 O108 1.224 . S
C107 O126 1.247 . S
O108 C107 1.224 . S
N109 Co99 2.128 . S
N109 C110 1.355 . S
N109 C112 1.311 . S
C110 N109 1.355 . S
C110 C111 1.363 . S
C110 H122 0.929 . S
C111 C110 1.363 . S
C111 N113 1.375 . S
C111 H129 0.931 . S
C112 N109 1.311 . S
C112 N113 1.347 . S
C112 H123 0.929 . S
N113 C111 1.375 . S
N113 C112 1.347 . S
C114 C117 1.365 . S
C114 N119 1.328 . S
C114 H120 0.929 . S
C115 C116 1.362 . S
C115 C118 1.378 . S
C115 H130 0.929 . S
C116 C115 1.362 . S
C116 C117 1.366 . S
C117 C114 1.365 . S
C117 C116 1.366 . S
C117 H131 0.930 . S
C118 C115 1.378 . S
C118 N119 1.315 . S
C118 H121 0.930 . S
N119 Co99 2.194 . S
N119 C114 1.328 . S
N119 C118 1.315 . S
H120 C114 0.929 . S
H121 C118 0.930 . S
H122 C110 0.929 . S
H123 C112 0.929 . S
O124 Co99 2.351 . S
O124 C127 1.244 . S
O125 Co99 2.155 . S
O125 C127 1.240 . S
O126 Co99 2.096 . S
O126 C107 1.247 . S
C127 O124 1.244 . S
C127 O125 1.240 . S
H128 C102 0.931 . S
H129 C111 0.931 . S
H130 C115 0.929 . S
H131 C117 0.930 . S
Co132 N136 2.148 . S
Co132 N142 2.128 1_556 S
Co132 N152 2.194 1_556 S
Co132 O157 2.351 . S
Co132 O158 2.155 . S
Co132 O159 2.096 . S
C133 N136 1.301 . S
C133 N137 1.328 . S
C133 H138 0.930 . S
C134 C135 1.333 . S
C134 N136 1.317 . S
C134 H139 0.930 . S
C135 C134 1.333 . S
C135 N137 1.350 . S
C135 H161 0.931 . S
N136 Co132 2.148 . S
N136 C133 1.301 . S
N136 C134 1.317 . S
N137 C133 1.328 . S
N137 C135 1.350 . S
H138 C133 0.930 . S
H139 C134 0.930 . S
C140 O141 1.224 . S
C140 O159 1.247 1_554 S
O141 C140 1.224 . S
N142 Co132 2.128 1_554 S
N142 C143 1.355 . S
N142 C145 1.311 . S
C143 N142 1.355 . S
C143 C144 1.363 . S
C143 H155 0.929 . S
C144 C143 1.363 . S
C144 N146 1.375 . S
C144 H162 0.931 . S
C145 N142 1.311 . S
C145 N146 1.347 . S
C145 H156 0.929 . S
N146 C144 1.375 . S
N146 C145 1.347 . S
C147 C150 1.365 . S
C147 N152 1.328 . S
C147 H153 0.929 1_554 S
C148 C149 1.362 . S
C148 C151 1.378 . S
C148 H163 0.929 . S
C149 C148 1.362 . S
C149 C150 1.366 . S
C150 C147 1.365 . S
C150 C149 1.366 . S
C150 H164 0.930 . S
C151 C148 1.378 . S
C151 N152 1.315 . S
C151 H154 0.930 . S
N152 Co132 2.194 1_554 S
N152 C147 1.328 . S
N152 C151 1.315 . S
H153 C147 0.929 1_556 S
H154 C151 0.930 . S
H155 C143 0.929 . S
H156 C145 0.929 . S
O157 Co132 2.351 . S
O157 C160 1.244 . S
O158 Co132 2.155 . S
O158 C160 1.240 . S
O159 Co132 2.096 . S
O159 C140 1.247 1_556 S
C160 O157 1.244 . S
C160 O158 1.240 . S
H161 C135 0.931 . S
H162 C144 0.931 . S
H163 C148 0.929 . S
H164 C150 0.930 . S
Co165 N169 2.148 . S
Co165 N175 2.128 . S
Co165 N185 2.194 . S
Co165 O190 2.351 . S
Co165 O191 2.155 . S
Co165 O192 2.096 . S
C166 N169 1.301 . S
C166 N170 1.328 . S
C166 H171 0.930 . S
C167 C168 1.333 . S
C167 N169 1.317 . S
C167 H172 0.930 . S
C168 C167 1.333 . S
C168 N170 1.350 . S
C168 H194 0.931 . S
N169 Co165 2.148 . S
N169 C166 1.301 . S
N169 C167 1.317 . S
N170 C166 1.328 . S
N170 C168 1.350 . S
H171 C166 0.930 . S
H172 C167 0.930 . S
C173 O174 1.224 . S
C173 O192 1.247 . S
O174 C173 1.224 . S
N175 Co165 2.128 . S
N175 C176 1.355 . S
N175 C178 1.311 . S
C176 N175 1.355 . S
C176 C177 1.363 . S
C176 H188 0.929 . S
C177 C176 1.363 . S
C177 N179 1.375 . S
C177 H195 0.931 . S
C178 N175 1.311 . S
C178 N179 1.347 . S
C178 H189 0.929 . S
N179 C177 1.375 . S
N179 C178 1.347 . S
C180 C183 1.365 . S
C180 N185 1.328 . S
C180 H186 0.929 . S
C181 C182 1.362 . S
C181 C184 1.378 . S
C181 H196 0.929 . S
C182 C181 1.362 . S
C182 C183 1.366 . S
C183 C180 1.365 . S
C183 C182 1.366 . S
C183 H197 0.930 . S
C184 C181 1.378 . S
C184 N185 1.315 . S
C184 H187 0.930 . S
N185 Co165 2.194 . S
N185 C180 1.328 . S
N185 C184 1.315 . S
H186 C180 0.929 . S
H187 C184 0.930 . S
H188 C176 0.929 . S
H189 C178 0.929 . S
O190 Co165 2.351 . S
O190 C193 1.244 . S
O191 Co165 2.155 . S
O191 C193 1.240 . S
O192 Co165 2.096 . S
O192 C173 1.247 . S
C193 O190 1.244 . S
C193 O191 1.240 . S
H194 C168 0.931 . S
H195 C177 0.931 . S
H196 C181 0.929 . S
H197 C183 0.930 . S
Co198 N202 2.148 . S
Co198 N208 2.128 . S
Co198 N218 2.194 . S
Co198 O223 2.351 . S
Co198 O224 2.155 . S
Co198 O225 2.096 . S
C199 N202 1.301 . S
C199 N203 1.328 . S
C199 H204 0.930 . S
C200 C201 1.333 . S
C200 N202 1.317 . S
C200 H205 0.930 . S
C201 C200 1.333 . S
C201 N203 1.350 . S
C201 H227 0.931 . S
N202 Co198 2.148 . S
N202 C199 1.301 . S
N202 C200 1.317 . S
N203 C199 1.328 . S
N203 C201 1.350 . S
H204 C199 0.930 . S
H205 C200 0.930 . S
C206 O207 1.224 . S
C206 O225 1.247 . S
O207 C206 1.224 . S
N208 Co198 2.128 . S
N208 C209 1.355 . S
N208 C211 1.311 . S
C209 N208 1.355 . S
C209 C210 1.363 . S
C209 H221 0.929 . S
C210 C209 1.363 . S
C210 N212 1.375 . S
C210 H228 0.931 . S
C211 N208 1.311 . S
C211 N212 1.347 . S
C211 H222 0.929 . S
N212 C210 1.375 . S
N212 C211 1.347 . S
C213 C216 1.365 . S
C213 N218 1.328 . S
C213 H219 0.929 . S
C214 C215 1.362 . S
C214 C217 1.378 . S
C214 H229 0.929 . S
C215 C214 1.362 . S
C215 C216 1.366 . S
C216 C213 1.365 . S
C216 C215 1.366 . S
C216 H230 0.930 . S
C217 C214 1.378 . S
C217 N218 1.315 . S
C217 H220 0.930 . S
N218 Co198 2.194 . S
N218 C213 1.328 . S
N218 C217 1.315 . S
H219 C213 0.929 . S
H220 C217 0.930 . S
H221 C209 0.929 . S
H222 C211 0.929 . S
O223 Co198 2.351 . S
O223 C226 1.244 . S
O224 Co198 2.155 . S
O224 C226 1.240 . S
O225 Co198 2.096 . S
O225 C206 1.247 . S
C226 O223 1.244 . S
C226 O224 1.240 . S
H227 C201 0.931 . S
H228 C210 0.931 . S
H229 C214 0.929 . S
H230 C216 0.930 . S
Co231 N235 2.148 . S
Co231 N241 2.128 . S
Co231 N251 2.194 . S
Co231 O256 2.351 . S
Co231 O257 2.155 . S
Co231 O258 2.096 . S
C232 N235 1.301 . S
C232 N236 1.328 . S
C232 H237 0.930 . S
C233 C234 1.333 . S
C233 N235 1.317 . S
C233 H238 0.930 . S
C234 C233 1.333 . S
C234 N236 1.350 . S
C234 H260 0.952 . S
N235 Co231 2.148 . S
N235 C232 1.301 . S
N235 C233 1.317 . S
N236 C232 1.328 . S
N236 C234 1.350 . S
H237 C232 0.930 . S
H238 C233 0.930 . S
C239 O240 1.224 . S
C239 O258 1.247 . S
O240 C239 1.224 . S
N241 Co231 2.128 . S
N241 C242 1.355 . S
N241 C244 1.311 . S
C242 N241 1.355 . S
C242 C243 1.363 . S
C242 H254 0.929 . S
C243 C242 1.363 . S
C243 N245 1.375 . S
C243 H261 0.931 . S
C244 N241 1.311 . S
C244 N245 1.347 . S
C244 H255 0.929 . S
N245 C243 1.375 . S
N245 C244 1.347 . S
C246 C249 1.365 . S
C246 N251 1.328 . S
C246 H252 0.929 . S
C247 C248 1.362 . S
C247 C250 1.378 . S
C247 H262 0.929 . S
C248 C247 1.362 . S
C248 C249 1.366 . S
C249 C246 1.365 . S
C249 C248 1.366 . S
C249 H263 0.930 . S
C250 C247 1.378 . S
C250 N251 1.315 . S
C250 H253 0.930 . S
N251 Co231 2.194 . S
N251 C246 1.328 . S
N251 C250 1.315 . S
H252 C246 0.929 . S
H253 C250 0.930 . S
H254 C242 0.929 . S
H255 C244 0.929 . S
O256 Co231 2.351 . S
O256 C259 1.244 . S
O257 Co231 2.155 . S
O257 C259 1.240 . S
O258 Co231 2.096 . S
O258 C239 1.247 . S
C259 O256 1.244 . S
C259 O257 1.240 . S
H260 C234 0.952 . S
H261 C243 0.931 . S
H262 C247 0.929 . S
H263 C249 0.930 . S
Co264 N268 2.148 . S
Co264 N274 2.128 . S
Co264 N284 2.194 . S
Co264 O289 2.351 . S
Co264 O290 2.155 . S
Co264 O291 2.096 . S
C265 N268 1.301 . S
C265 N269 1.328 . S
C265 H270 0.930 . S
C266 C267 1.333 . S
C266 N268 1.317 . S
C266 H271 0.930 . S
C267 C266 1.333 . S
C267 N269 1.350 . S
C267 H293 0.931 . S
N268 Co264 2.148 . S
N268 C265 1.301 . S
N268 C266 1.317 . S
N269 C265 1.328 . S
N269 C267 1.350 . S
H270 C265 0.930 . S
H271 C266 0.930 . S
C272 O273 1.224 . S
C272 O291 1.247 . S
O273 C272 1.224 . S
N274 Co264 2.128 . S
N274 C275 1.355 . S
N274 C277 1.311 . S
C275 N274 1.355 . S
C275 C276 1.363 . S
C275 H287 0.929 . S
C276 C275 1.363 . S
C276 N278 1.375 . S
C276 H294 0.931 . S
C277 N274 1.311 . S
C277 N278 1.347 . S
C277 H288 0.929 . S
N278 C276 1.375 . S
N278 C277 1.347 . S
C279 C282 1.365 . S
C279 N284 1.328 . S
C279 H285 0.929 . S
C280 C281 1.362 . S
C280 C283 1.378 . S
C280 H295 0.929 . S
C281 C280 1.362 . S
C281 C282 1.366 . S
C282 C279 1.365 . S
C282 C281 1.366 . S
C282 H296 0.930 . S
C283 C280 1.378 . S
C283 N284 1.315 . S
C283 H286 0.930 . S
N284 Co264 2.194 . S
N284 C279 1.328 . S
N284 C283 1.315 . S
H285 C279 0.929 . S
H286 C283 0.930 . S
H287 C275 0.929 . S
H288 C277 0.929 . S
O289 Co264 2.351 . S
O289 C292 1.244 . S
O290 Co264 2.155 . S
O290 C292 1.240 . S
O291 Co264 2.096 . S
O291 C272 1.247 . S
C292 O289 1.244 . S
C292 O290 1.240 . S
H293 C267 0.931 . S
H294 C276 0.931 . S
H295 C280 0.929 . S
H296 C282 0.930 . S
Co297 N301 2.148 . S
Co297 N307 2.128 . S
Co297 N317 2.194 . S
Co297 O322 2.351 . S
Co297 O323 2.155 . S
Co297 O324 2.096 . S
C298 N301 1.301 . S
C298 N302 1.328 . S
C298 H303 0.930 . S
C299 C300 1.333 . S
C299 N301 1.317 . S
C299 H304 0.930 . S
C300 C299 1.333 . S
C300 N302 1.350 . S
C300 H326 0.931 . S
N301 Co297 2.148 . S
N301 C298 1.301 . S
N301 C299 1.317 . S
N302 C298 1.328 . S
N302 C300 1.350 . S
H303 C298 0.930 . S
H304 C299 0.930 . S
C305 O306 1.224 . S
C305 O324 1.247 . S
O306 C305 1.224 . S
N307 Co297 2.128 . S
N307 C308 1.355 . S
N307 C310 1.311 . S
C308 N307 1.355 . S
C308 C309 1.363 . S
C308 H320 0.929 . S
C309 C308 1.363 . S
C309 N311 1.375 . S
C309 H327 0.931 . S
C310 N307 1.311 . S
C310 N311 1.347 . S
C310 H321 0.929 . S
N311 C309 1.375 . S
N311 C310 1.347 . S
C312 C315 1.365 . S
C312 N317 1.328 . S
C312 H318 0.929 . S
C313 C314 1.362 . S
C313 C316 1.378 . S
C313 H328 0.929 . S
C314 C313 1.362 . S
C314 C315 1.366 . S
C315 C312 1.365 . S
C315 C314 1.366 . S
C315 H329 0.925 1_545 S
C316 C313 1.378 . S
C316 N317 1.315 . S
C316 H319 0.930 . S
N317 Co297 2.194 . S
N317 C312 1.328 . S
N317 C316 1.315 . S
H318 C312 0.929 . S
H319 C316 0.930 . S
H320 C308 0.929 . S
H321 C310 0.929 . S
O322 Co297 2.351 . S
O322 C325 1.244 . S
O323 Co297 2.155 . S
O323 C325 1.240 . S
O324 Co297 2.096 . S
O324 C305 1.247 . S
C325 O322 1.244 . S
C325 O323 1.240 . S
H326 C300 0.931 . S
H327 C309 0.931 . S
H328 C313 0.929 . S
H329 C315 0.925 1_565 S
Co330 N334 2.148 . S
Co330 N340 2.128 1_554 S
Co330 N350 2.194 1_554 S
Co330 O355 2.351 1_554 S
Co330 O356 2.155 . S
Co330 O357 2.096 . S
C331 N334 1.301 . S
C331 N335 1.328 . S
C331 H336 0.930 . S
C332 C333 1.333 . S
C332 N334 1.317 . S
C332 H337 0.930 . S
C333 C332 1.333 . S
C333 N335 1.350 . S
C333 H359 0.931 . S
N334 Co330 2.148 . S
N334 C331 1.301 . S
N334 C332 1.317 . S
N335 C331 1.328 . S
N335 C333 1.350 . S
H336 C331 0.930 . S
H337 C332 0.930 . S
C338 O339 1.224 . S
C338 O357 1.247 . S
O339 C338 1.224 . S
N340 Co330 2.128 1_556 S
N340 C341 1.355 . S
N340 C343 1.311 . S
C341 N340 1.355 . S
C341 C342 1.363 . S
C341 H353 0.929 . S
C342 C341 1.363 . S
C342 N344 1.375 . S
C342 H360 0.931 . S
C343 N340 1.311 . S
C343 N344 1.347 . S
C343 H354 0.929 . S
N344 C342 1.375 . S
N344 C343 1.347 . S
C345 C348 1.365 . S
C345 N350 1.328 . S
C345 H351 0.929 . S
C346 C347 1.362 . S
C346 C349 1.378 . S
C346 H361 0.929 . S
C347 C346 1.362 . S
C347 C348 1.366 . S
C348 C345 1.365 . S
C348 C347 1.366 . S
C348 H362 0.930 . S
C349 C346 1.378 . S
C349 N350 1.315 . S
C349 H352 0.930 1_556 S
N350 Co330 2.194 1_556 S
N350 C345 1.328 . S
N350 C349 1.315 . S
H351 C345 0.929 . S
H352 C349 0.930 1_554 S
H353 C341 0.929 . S
H354 C343 0.929 . S
O355 Co330 2.351 1_556 S
O355 C358 1.244 . S
O356 Co330 2.155 . S
O356 C358 1.240 1_554 S
O357 Co330 2.096 . S
O357 C338 1.247 . S
C358 O355 1.244 . S
C358 O356 1.240 1_556 S
H359 C333 0.931 . S
H360 C342 0.931 . S
H361 C346 0.929 . S
H362 C348 0.930 . S
Co363 N367 2.148 . S
Co363 N373 2.128 . S
Co363 N383 2.194 . S
Co363 O388 2.351 . S
Co363 O389 2.155 . S
Co363 O390 2.096 . S
C364 N367 1.301 . S
C364 N368 1.328 . S
C364 H369 0.930 . S
C365 C366 1.333 . S
C365 N367 1.317 . S
C365 H370 0.930 . S
C366 C365 1.333 . S
C366 N368 1.350 . S
C366 H392 0.931 . S
N367 Co363 2.148 . S
N367 C364 1.301 . S
N367 C365 1.317 . S
N368 C364 1.328 . S
N368 C366 1.350 . S
H369 C364 0.930 . S
H370 C365 0.930 . S
C371 O372 1.224 . S
C371 O390 1.247 . S
O372 C371 1.224 . S
N373 Co363 2.128 . S
N373 C374 1.355 . S
N373 C376 1.311 . S
C374 N373 1.355 . S
C374 C375 1.363 . S
C374 H386 0.929 . S
C375 C374 1.363 . S
C375 N377 1.375 . S
C375 H393 0.931 . S
C376 N373 1.311 . S
C376 N377 1.347 . S
C376 H387 0.929 . S
N377 C375 1.375 . S
N377 C376 1.347 . S
C378 C381 1.365 . S
C378 N383 1.328 . S
C378 H384 0.929 . S
C379 C380 1.381 . S
C379 C382 1.378 . S
C379 H394 0.929 . S
C380 C379 1.381 . S
C380 C381 1.376 . S
C381 C378 1.365 . S
C381 C380 1.376 . S
C381 H395 0.917 1_565 S
C382 C379 1.378 . S
C382 N383 1.315 . S
C382 H385 0.930 . S
N383 Co363 2.194 . S
N383 C378 1.328 . S
N383 C382 1.315 . S
H384 C378 0.929 . S
H385 C382 0.930 . S
H386 C374 0.929 . S
H387 C376 0.929 . S
O388 Co363 2.351 . S
O388 C391 1.244 . S
O389 Co363 2.155 . S
O389 C391 1.240 . S
O390 Co363 2.096 . S
O390 C371 1.247 . S
C391 O388 1.244 . S
C391 O389 1.240 . S
H392 C366 0.931 . S
H393 C375 0.931 . S
H394 C379 0.929 . S
H395 C381 0.917 1_545 S
Co396 N400 2.148 . S
Co396 N406 2.128 . S
Co396 N416 2.194 . S
Co396 O421 2.351 . S
Co396 O422 2.155 . S
Co396 O423 2.096 . S
C397 N400 1.301 . S
C397 N401 1.328 . S
C397 H402 0.930 . S
C398 C399 1.333 . S
C398 N400 1.317 . S
C398 H403 0.930 . S
C399 C398 1.333 . S
C399 N401 1.350 . S
C399 H425 0.931 . S
N400 Co396 2.148 . S
N400 C397 1.301 . S
N400 C398 1.317 . S
N401 C397 1.328 . S
N401 C399 1.350 . S
H402 C397 0.930 . S
H403 C398 0.930 . S
C404 O405 1.224 . S
C404 O423 1.247 . S
O405 C404 1.224 . S
N406 Co396 2.128 . S
N406 C407 1.355 . S
N406 C409 1.311 . S
C407 N406 1.355 . S
C407 C408 1.363 . S
C407 H419 0.929 . S
C408 C407 1.363 . S
C408 N410 1.375 . S
C408 H426 0.931 . S
C409 N406 1.311 . S
C409 N410 1.347 . S
C409 H420 0.929 . S
N410 C408 1.375 . S
N410 C409 1.347 . S
C411 C414 1.365 . S
C411 N416 1.328 . S
C411 H417 0.929 . S
C412 C413 1.362 . S
C412 C415 1.378 . S
C412 H427 0.929 . S
C413 C412 1.362 . S
C413 C414 1.366 . S
C414 C411 1.365 . S
C414 C413 1.366 . S
C414 H428 0.930 . S
C415 C412 1.378 . S
C415 N416 1.315 . S
C415 H418 0.930 . S
N416 Co396 2.194 . S
N416 C411 1.328 . S
N416 C415 1.315 . S
H417 C411 0.929 . S
H418 C415 0.930 . S
H419 C407 0.929 . S
H420 C409 0.929 . S
O421 Co396 2.351 . S
O421 C424 1.244 . S
O422 Co396 2.155 . S
O422 C424 1.240 . S
O423 Co396 2.096 . S
O423 C404 1.247 . S
C424 O421 1.244 . S
C424 O422 1.240 . S
H425 C399 0.931 . S
H426 C408 0.931 . S
H427 C412 0.929 . S
H428 C414 0.930 . S
Co429 N433 2.148 . S
Co429 N439 2.128 . S
Co429 N449 2.194 . S
Co429 O454 2.351 . S
Co429 O455 2.155 . S
Co429 O456 2.096 . S
C430 N433 1.301 . S
C430 N434 1.328 . S
C430 H435 0.930 . S
C431 C432 1.333 . S
C431 N433 1.317 . S
C431 H436 0.930 . S
C432 C431 1.333 . S
C432 N434 1.350 . S
C432 H458 0.952 . S
N433 Co429 2.148 . S
N433 C430 1.301 . S
N433 C431 1.317 . S
N434 C430 1.328 . S
N434 C432 1.350 . S
H435 C430 0.930 . S
H436 C431 0.930 . S
C437 O438 1.224 . S
C437 O456 1.247 . S
O438 C437 1.224 . S
N439 Co429 2.128 . S
N439 C440 1.355 . S
N439 C442 1.311 . S
C440 N439 1.355 . S
C440 C441 1.363 . S
C440 H452 0.929 . S
C441 C440 1.363 . S
C441 N443 1.375 . S
C441 H459 0.931 . S
C442 N439 1.311 . S
C442 N443 1.347 . S
C442 H453 0.929 . S
N443 C441 1.375 . S
N443 C442 1.347 . S
C444 C447 1.365 1_565 S
C444 N449 1.328 . S
C444 H450 0.929 . S
C445 C446 1.362 . S
C445 C448 1.378 1_545 S
C445 H460 0.929 . S
C446 C445 1.362 . S
C446 C447 1.366 . S
C447 C444 1.365 1_545 S
C447 C446 1.366 . S
C447 H461 0.930 . S
C448 C445 1.378 1_565 S
C448 N449 1.315 . S
C448 H451 0.930 . S
N449 Co429 2.194 . S
N449 C444 1.328 . S
N449 C448 1.315 . S
H450 C444 0.929 . S
H451 C448 0.930 . S
H452 C440 0.929 . S
H453 C442 0.929 . S
O454 Co429 2.351 . S
O454 C457 1.244 . S
O455 Co429 2.155 . S
O455 C457 1.240 . S
O456 Co429 2.096 . S
O456 C437 1.247 . S
C457 O454 1.244 . S
C457 O455 1.240 . S
H458 C432 0.952 . S
H459 C441 0.931 . S
H460 C445 0.929 . S
H461 C447 0.930 . S
Co462 N466 2.148 . S
Co462 N472 2.128 1_556 S
Co462 N482 2.194 1_556 S
Co462 O487 2.351 . S
Co462 O488 2.155 . S
Co462 O489 2.096 . S
C463 N466 1.301 . S
C463 N467 1.328 . S
C463 H468 0.930 . S
C464 C465 1.333 . S
C464 N466 1.317 . S
C464 H469 0.930 . S
C465 C464 1.333 . S
C465 N467 1.350 . S
C465 H491 0.931 . S
N466 Co462 2.148 . S
N466 C463 1.301 . S
N466 C464 1.317 . S
N467 C463 1.328 . S
N467 C465 1.350 . S
H468 C463 0.930 . S
H469 C464 0.930 . S
C470 O471 1.224 . S
C470 O489 1.247 1_554 S
O471 C470 1.224 . S
N472 Co462 2.128 1_554 S
N472 C473 1.355 . S
N472 C475 1.311 . S
C473 N472 1.355 . S
C473 C474 1.363 . S
C473 H485 0.929 . S
C474 C473 1.363 . S
C474 N476 1.375 . S
C474 H492 0.931 . S
C475 N472 1.311 . S
C475 N476 1.347 . S
C475 H486 0.929 . S
N476 C474 1.375 . S
N476 C475 1.347 . S
C477 C480 1.365 . S
C477 N482 1.328 . S
C477 H483 0.929 1_554 S
C478 C479 1.362 . S
C478 C481 1.378 . S
C478 H493 0.929 . S
C479 C478 1.362 . S
C479 C480 1.366 . S
C480 C477 1.365 . S
C480 C479 1.366 . S
C480 H494 0.930 . S
C481 C478 1.378 . S
C481 N482 1.315 . S
C481 H484 0.930 . S
N482 Co462 2.194 1_554 S
N482 C477 1.328 . S
N482 C481 1.315 . S
H483 C477 0.929 1_556 S
H484 C481 0.930 . S
H485 C473 0.929 . S
H486 C475 0.929 . S
O487 Co462 2.351 . S
O487 C490 1.244 . S
O488 Co462 2.155 . S
O488 C490 1.240 . S
O489 Co462 2.096 . S
O489 C470 1.247 1_556 S
C490 O487 1.244 . S
C490 O488 1.240 . S
H491 C465 0.931 . S
H492 C474 0.931 . S
H493 C478 0.929 . S
H494 C480 0.930 . S
Co495 N499 2.148 . S
Co495 N505 2.128 . S
Co495 N515 2.194 . S
Co495 O520 2.351 . S
Co495 O521 2.155 . S
Co495 O522 2.096 . S
C496 N499 1.301 . S
C496 N500 1.328 . S
C496 H501 0.930 . S
C497 C498 1.333 . S
C497 N499 1.317 . S
C497 H502 0.930 . S
C498 C497 1.333 . S
C498 N500 1.350 . S
C498 H524 0.931 . S
N499 Co495 2.148 . S
N499 C496 1.301 . S
N499 C497 1.317 . S
N500 C496 1.328 . S
N500 C498 1.350 . S
H501 C496 0.930 . S
H502 C497 0.930 . S
C503 O504 1.224 . S
C503 O522 1.247 . S
O504 C503 1.224 . S
N505 Co495 2.128 . S
N505 C506 1.355 . S
N505 C508 1.311 . S
C506 N505 1.355 . S
C506 C507 1.363 . S
C506 H518 0.929 . S
C507 C506 1.363 . S
C507 N509 1.375 . S
C507 H525 0.931 . S
C508 N505 1.311 . S
C508 N509 1.347 . S
C508 H519 0.929 . S
N509 C507 1.375 . S
N509 C508 1.347 . S
C510 C513 1.365 1_545 S
C510 N515 1.328 . S
C510 H516 0.929 . S
C511 C512 1.362 . S
C511 C514 1.378 1_565 S
C511 H526 0.929 . S
C512 C511 1.362 . S
C512 C513 1.366 . S
C513 C510 1.365 1_565 S
C513 C512 1.366 . S
C513 H527 0.930 . S
C514 C511 1.378 1_545 S
C514 N515 1.315 . S
C514 H517 0.930 . S
N515 Co495 2.194 . S
N515 C510 1.328 . S
N515 C514 1.315 . S
H516 C510 0.929 . S
H517 C514 0.930 . S
H518 C506 0.929 . S
H519 C508 0.929 . S
O520 Co495 2.351 . S
O520 C523 1.244 . S
O521 Co495 2.155 . S
O521 C523 1.240 . S
O522 Co495 2.096 . S
O522 C503 1.247 . S
C523 O520 1.244 . S
C523 O521 1.240 . S
H524 C498 0.931 . S
H525 C507 0.931 . S
H526 C511 0.929 . S
H527 C513 0.930 . S
H528 C534 0.930 . S
H529 C537 0.930 . S
H530 C538 0.930 . S
H531 C539 0.930 . S
H532 C542 0.930 . S
H533 C543 0.930 . S
C534 H528 0.930 . S
C534 C535 1.355 . S
C534 C536 1.415 . S
C535 C534 1.355 . S
C535 C537 1.419 . S
C536 C534 1.415 . S
C536 C541 1.425 . S
C536 C543 1.409 . S
C537 H529 0.930 . S
C537 C535 1.419 . S
C537 C538 1.362 . S
C538 H530 0.930 . S
C538 C537 1.362 . S
C538 C541 1.409 . S
C539 H531 0.930 . S
C539 C540 1.355 . S
C539 C541 1.415 . S
C540 C539 1.355 . S
C540 C542 1.419 . S
C541 C536 1.425 . S
C541 C538 1.409 . S
C541 C539 1.415 . S
C542 H532 0.930 . S
C542 C540 1.419 . S
C542 C543 1.362 . S
C543 H533 0.930 . S
C543 C536 1.409 . S
C543 C542 1.362 . S
H544 C550 0.930 . S
H545 C553 0.930 . S
H546 C554 0.930 . S
H547 C555 0.930 . S
H548 C558 0.930 1_556 S
H549 C559 0.915 1_556 S
C550 H544 0.930 . S
C550 C551 1.355 . S
C550 C552 1.415 . S
C551 C550 1.355 . S
C551 C553 1.419 . S
C552 C550 1.415 . S
C552 C557 1.425 . S
C552 C559 1.409 . S
C553 H545 0.930 . S
C553 C551 1.419 . S
C553 C554 1.362 . S
C554 H546 0.930 . S
C554 C553 1.362 . S
C554 C557 1.409 . S
C555 H547 0.930 . S
C555 C556 1.355 . S
C555 C557 1.415 . S
C556 C555 1.355 . S
C556 C558 1.419 . S
C557 C552 1.425 . S
C557 C554 1.409 . S
C557 C555 1.415 . S
C558 H548 0.930 1_554 S
C558 C556 1.419 . S
C558 C559 1.362 . S
C559 H549 0.915 1_554 S
C559 C552 1.409 . S
C559 C558 1.362 . S
H560 C566 0.930 . S
H561 C569 0.930 . S
H562 C570 0.930 . S
H563 C571 0.930 . S
H564 C574 0.933 . S
H565 C575 0.930 . S
C566 H560 0.930 . S
C566 C567 1.355 . S
C566 C568 1.415 . S
C567 C566 1.355 . S
C567 C569 1.419 . S
C568 C566 1.415 . S
C568 C573 1.425 . S
C568 C575 1.409 . S
C569 H561 0.930 . S
C569 C567 1.419 . S
C569 C570 1.362 . S
C570 H562 0.930 . S
C570 C569 1.362 . S
C570 C573 1.409 . S
C571 H563 0.930 . S
C571 C572 1.352 . S
C571 C573 1.415 . S
C572 C571 1.352 . S
C572 C574 1.419 1_455 S
C573 C568 1.425 . S
C573 C570 1.409 . S
C573 C571 1.415 . S
C574 H564 0.933 . S
C574 C572 1.419 1_655 S
C574 C575 1.359 1_655 S
C575 H565 0.930 . S
C575 C568 1.409 . S
C575 C574 1.359 1_455 S
H576 C582 0.930 . S
H577 C585 0.930 . S
H578 C586 0.930 . S
H579 C587 0.930 . S
H580 C590 0.930 . S
H581 C591 0.930 . S
C582 H576 0.930 . S
C582 C583 1.355 . S
C582 C584 1.415 . S
C583 C582 1.355 . S
C583 C585 1.419 . S
C584 C582 1.415 . S
C584 C589 1.425 . S
C584 C591 1.409 . S
C585 H577 0.930 . S
C585 C583 1.419 . S
C585 C586 1.362 . S
C586 H578 0.930 . S
C586 C585 1.362 . S
C586 C589 1.409 . S
C587 H579 0.930 . S
C587 C588 1.355 . S
C587 C589 1.415 . S
C588 C587 1.355 . S
C588 C590 1.419 . S
C589 C584 1.425 . S
C589 C586 1.409 . S
C589 C587 1.415 . S
C590 H580 0.930 . S
C590 C588 1.419 . S
C590 C591 1.362 . S
C591 H581 0.930 . S
C591 C584 1.409 . S
C591 C590 1.362 . S
H592 C598 0.930 . S
H593 C601 0.930 . S
H594 C602 0.930 . S
H595 C603 0.930 . S
H596 C606 0.930 . S
H597 C607 0.930 . S
C598 H592 0.930 . S
C598 C599 1.355 . S
C598 C600 1.415 . S
C599 C598 1.355 . S
C599 C601 1.419 . S
C600 C598 1.415 . S
C600 C605 1.425 . S
C600 C607 1.409 . S
C601 H593 0.930 . S
C601 C599 1.419 . S
C601 C602 1.362 . S
C602 H594 0.930 . S
C602 C601 1.362 . S
C602 C605 1.409 . S
C603 H595 0.930 . S
C603 C604 1.355 . S
C603 C605 1.415 . S
C604 C603 1.355 . S
C604 C606 1.419 . S
C605 C600 1.425 . S
C605 C602 1.409 . S
C605 C603 1.415 . S
C606 H596 0.930 . S
C606 C604 1.419 . S
C606 C607 1.362 . S
C607 H597 0.930 . S
C607 C600 1.409 . S
C607 C606 1.362 . S
H608 C614 0.930 . S
H609 C617 0.930 1_554 S
H610 C618 0.930 . S
H611 C619 0.930 . S
H612 C622 0.930 . S
H613 C623 0.930 . S
C614 H608 0.930 . S
C614 C615 1.355 . S
C614 C616 1.415 . S
C615 C614 1.355 . S
C615 C617 1.419 . S
C616 C614 1.415 . S
C616 C621 1.425 . S
C616 C623 1.409 . S
C617 H609 0.930 1_556 S
C617 C615 1.419 . S
C617 C618 1.362 . S
C618 H610 0.930 . S
C618 C617 1.362 . S
C618 C621 1.409 . S
C619 H611 0.930 . S
C619 C620 1.355 . S
C619 C621 1.415 . S
C620 C619 1.355 . S
C620 C622 1.419 . S
C621 C616 1.425 . S
C621 C618 1.409 . S
C621 C619 1.415 . S
C622 H612 0.930 . S
C622 C620 1.419 . S
C622 C623 1.362 . S
C623 H613 0.930 . S
C623 C616 1.409 . S
C623 C622 1.362 . S
H624 C630 0.930 . S
H625 C633 0.930 . S
H626 C634 0.930 . S
H627 C635 0.930 . S
H628 C638 0.930 . S
H629 C639 0.930 . S
C630 H624 0.930 . S
C630 C631 1.355 . S
C630 C632 1.415 . S
C631 C630 1.355 . S
C631 C633 1.419 . S
C632 C630 1.415 . S
C632 C637 1.425 . S
C632 C639 1.409 . S
C633 H625 0.930 . S
C633 C631 1.419 . S
C633 C634 1.362 . S
C634 H626 0.930 . S
C634 C633 1.362 . S
C634 C637 1.409 . S
C635 H627 0.930 . S
C635 C636 1.355 . S
C635 C637 1.415 . S
C636 C635 1.355 . S
C636 C638 1.419 . S
C637 C632 1.425 . S
C637 C634 1.409 . S
C637 C635 1.415 . S
C638 H628 0.930 . S
C638 C636 1.419 . S
C638 C639 1.362 . S
C639 H629 0.930 . S
C639 C632 1.409 . S
C639 C638 1.362 . S
H640 C646 0.930 . S
H641 C649 0.930 . S
H642 C650 0.930 . S
H643 C651 0.930 . S
H644 C654 0.930 . S
H645 C655 0.930 . S
C646 H640 0.930 . S
C646 C647 1.355 . S
C646 C648 1.415 . S
C647 C646 1.355 . S
C647 C649 1.419 . S
C648 C646 1.415 . S
C648 C653 1.425 . S
C648 C655 1.409 . S
C649 H641 0.930 . S
C649 C647 1.419 . S
C649 C650 1.362 . S
C650 H642 0.930 . S
C650 C649 1.362 . S
C650 C653 1.409 . S
C651 H643 0.930 . S
C651 C652 1.355 . S
C651 C653 1.415 . S
C652 C651 1.355 . S
C652 C654 1.419 . S
C653 C648 1.425 . S
C653 C650 1.409 . S
C653 C651 1.415 . S
C654 H644 0.930 . S
C654 C652 1.419 . S
C654 C655 1.362 . S
C655 H645 0.930 . S
C655 C648 1.409 . S
C655 C654 1.362 . S
H656 C662 0.930 . S
H657 C665 0.930 . S
H658 C666 0.930 . S
H659 C667 0.930 . S
H660 C670 0.930 . S
H661 C671 0.930 . S
C662 H656 0.930 . S
C662 C663 1.355 . S
C662 C664 1.415 . S
C663 C662 1.355 . S
C663 C665 1.419 . S
C664 C662 1.415 . S
C664 C669 1.425 . S
C664 C671 1.409 . S
C665 H657 0.930 . S
C665 C663 1.419 . S
C665 C666 1.362 . S
C666 H658 0.930 . S
C666 C665 1.362 . S
C666 C669 1.409 . S
C667 H659 0.930 . S
C667 C668 1.338 1_655 S
C667 C669 1.415 . S
C668 C667 1.338 1_455 S
C668 C670 1.422 . S
C669 C664 1.425 . S
C669 C666 1.409 . S
C669 C667 1.415 . S
C670 H660 0.930 . S
C670 C668 1.422 . S
C670 C671 1.362 1_455 S
C671 H661 0.930 . S
C671 C664 1.409 . S
C671 C670 1.362 1_655 S
H672 C678 0.930 . S
H673 C681 0.930 . S
H674 C682 0.930 . S
H675 C683 0.930 . S
H676 C686 0.930 . S
H677 C687 0.930 . S
C678 H672 0.930 . S
C678 C679 1.355 . S
C678 C680 1.415 . S
C679 C678 1.355 . S
C679 C681 1.419 . S
C680 C678 1.415 . S
C680 C685 1.425 . S
C680 C687 1.409 . S
C681 H673 0.930 . S
C681 C679 1.419 . S
C681 C682 1.362 . S
C682 H674 0.930 . S
C682 C681 1.362 . S
C682 C685 1.409 . S
C683 H675 0.930 . S
C683 C684 1.355 . S
C683 C685 1.415 . S
C684 C683 1.355 . S
C684 C686 1.419 . S
C685 C680 1.425 . S
C685 C682 1.409 . S
C685 C683 1.415 . S
C686 H676 0.930 . S
C686 C684 1.419 . S
C686 C687 1.362 . S
C687 H677 0.930 . S
C687 C680 1.409 . S
C687 C686 1.362 . S
H688 C694 0.930 . S
H689 C697 0.930 . S
H690 C698 0.930 . S
H691 C699 0.930 . S
H692 C702 0.930 . S
H693 C703 0.930 . S
C694 H688 0.930 . S
C694 C695 1.355 . S
C694 C696 1.415 . S
C695 C694 1.355 . S
C695 C697 1.419 . S
C696 C694 1.415 . S
C696 C701 1.425 . S
C696 C703 1.409 . S
C697 H689 0.930 . S
C697 C695 1.419 . S
C697 C698 1.362 . S
C698 H690 0.930 . S
C698 C697 1.362 . S
C698 C701 1.409 . S
C699 H691 0.930 . S
C699 C700 1.355 . S
C699 C701 1.415 . S
C700 C699 1.355 . S
C700 C702 1.419 . S
C701 C696 1.425 . S
C701 C698 1.409 . S
C701 C699 1.415 . S
C702 H692 0.930 . S
C702 C700 1.419 . S
C702 C703 1.362 . S
C703 H693 0.930 . S
C703 C696 1.409 . S
C703 C702 1.362 . S
H704 C710 0.930 . S
H705 C713 0.930 . S
H706 C714 0.930 . S
H707 C715 0.930 . S
H708 C718 0.930 . S
H709 C719 0.930 . S
C710 H704 0.930 . S
C710 C711 1.355 . S
C710 C712 1.415 . S
C711 C710 1.355 . S
C711 C713 1.419 . S
C712 C710 1.415 . S
C712 C717 1.425 . S
C712 C719 1.409 . S
C713 H705 0.930 . S
C713 C711 1.419 . S
C713 C714 1.362 . S
C714 H706 0.930 . S
C714 C713 1.362 . S
C714 C717 1.409 . S
C715 H707 0.930 . S
C715 C716 1.355 . S
C715 C717 1.415 . S
C716 C715 1.355 . S
C716 C718 1.419 . S
C717 C712 1.425 . S
C717 C714 1.409 . S
C717 C715 1.415 . S
C718 H708 0.930 . S
C718 C716 1.419 . S
C718 C719 1.362 . S
C719 H709 0.930 . S
C719 C712 1.409 . S
C719 C718 1.362 . S
H720 C726 0.930 . S
H721 C729 0.930 . S
H722 C730 0.930 . S
H723 C731 0.930 . S
H724 C734 0.930 . S
H725 C735 0.930 . S
C726 H720 0.930 . S
C726 C727 1.355 . S
C726 C728 1.415 . S
C727 C726 1.355 . S
C727 C729 1.419 . S
C728 C726 1.415 . S
C728 C733 1.425 . S
C728 C735 1.409 . S
C729 H721 0.930 . S
C729 C727 1.419 . S
C729 C730 1.362 . S
C730 H722 0.930 . S
C730 C729 1.362 . S
C730 C733 1.409 . S
C731 H723 0.930 . S
C731 C732 1.355 . S
C731 C733 1.415 . S
C732 C731 1.355 . S
C732 C734 1.419 . S
C733 C728 1.425 . S
C733 C730 1.409 . S
C733 C731 1.415 . S
C734 H724 0.930 . S
C734 C732 1.419 . S
C734 C735 1.362 . S
C735 H725 0.930 . S
C735 C728 1.409 . S
C735 C734 1.362 . S
H736 C742 0.930 . S
H737 C745 0.930 . S
H738 C746 0.930 . S
H739 C747 0.930 . S
H740 C750 0.930 . S
H741 C751 0.930 . S
C742 H736 0.930 . S
C742 C743 1.355 . S
C742 C744 1.415 . S
C743 C742 1.355 . S
C743 C745 1.419 . S
C744 C742 1.415 . S
C744 C749 1.425 . S
C744 C751 1.409 . S
C745 H737 0.930 . S
C745 C743 1.419 . S
C745 C746 1.362 . S
C746 H738 0.930 . S
C746 C745 1.362 . S
C746 C749 1.409 . S
C747 H739 0.930 . S
C747 C748 1.355 . S
C747 C749 1.415 . S
C748 C747 1.355 . S
C748 C750 1.419 . S
C749 C744 1.425 . S
C749 C746 1.409 . S
C749 C747 1.415 . S
C750 H740 0.930 . S
C750 C748 1.419 . S
C750 C751 1.362 . S
C751 H741 0.930 . S
C751 C744 1.409 . S
C751 C750 1.362 . S
H752 C758 0.930 . S
H753 C761 0.930 . S
H754 C762 0.930 . S
H755 C763 0.930 . S
H756 C766 0.930 . S
H757 C767 0.930 . S
C758 H752 0.930 . S
C758 C759 1.355 . S
C758 C760 1.415 . S
C759 C758 1.355 . S
C759 C761 1.419 . S
C760 C758 1.415 . S
C760 C765 1.425 . S
C760 C767 1.409 . S
C761 H753 0.930 . S
C761 C759 1.419 . S
C761 C762 1.362 . S
C762 H754 0.930 . S
C762 C761 1.362 . S
C762 C765 1.409 . S
C763 H755 0.930 . S
C763 C764 1.355 . S
C763 C765 1.415 . S
C764 C763 1.355 . S
C764 C766 1.419 . S
C765 C760 1.425 . S
C765 C762 1.409 . S
C765 C763 1.415 . S
C766 H756 0.930 . S
C766 C764 1.419 . S
C766 C767 1.362 . S
C767 H757 0.930 . S
C767 C760 1.409 . S
C767 C766 1.362 . S
H768 C774 0.930 . S
H769 C777 0.930 . S
H770 C778 0.930 . S
H771 C779 0.930 . S
H772 C782 0.930 . S
H773 C783 0.930 1_554 S
C774 H768 0.930 . S
C774 C775 1.355 . S
C774 C776 1.415 . S
C775 C774 1.355 . S
C775 C777 1.419 . S
C776 C774 1.415 . S
C776 C781 1.425 . S
C776 C783 1.409 . S
C777 H769 0.930 . S
C777 C775 1.419 . S
C777 C778 1.362 . S
C778 H770 0.930 . S
C778 C777 1.362 . S
C778 C781 1.409 . S
C779 H771 0.930 . S
C779 C780 1.355 . S
C779 C781 1.415 . S
C780 C779 1.355 . S
C780 C782 1.419 1_556 S
C781 C776 1.425 . S
C781 C778 1.409 . S
C781 C779 1.415 . S
C782 H772 0.930 . S
C782 C780 1.419 1_554 S
C782 C783 1.362 1_554 S
C783 H773 0.930 1_556 S
C783 C776 1.409 . S
C783 C782 1.362 1_556 S
H784 C790 0.930 . S
H785 C793 0.930 . S
H786 C794 0.930 . S
H787 C795 0.930 . S
H788 C798 0.930 . S
H789 C799 0.930 . S
C790 H784 0.930 . S
C790 C791 1.355 . S
C790 C792 1.415 . S
C791 C790 1.355 . S
C791 C793 1.419 . S
C792 C790 1.415 . S
C792 C797 1.425 . S
C792 C799 1.409 . S
C793 H785 0.930 . S
C793 C791 1.419 . S
C793 C794 1.362 . S
C794 H786 0.930 . S
C794 C793 1.362 . S
C794 C797 1.409 . S
C795 H787 0.930 . S
C795 C796 1.355 . S
C795 C797 1.415 . S
C796 C795 1.355 . S
C796 C798 1.419 . S
C797 C792 1.425 . S
C797 C794 1.409 . S
C797 C795 1.415 . S
C798 H788 0.930 . S
C798 C796 1.419 . S
C798 C799 1.362 . S
C799 H789 0.930 . S
C799 C792 1.409 . S
C799 C798 1.362 . S
H800 C806 0.930 . S
H801 C809 0.930 . S
H802 C810 0.930 . S
H803 C811 0.930 . S
H804 C814 0.930 . S
H805 C815 0.930 . S
C806 H800 0.930 . S
C806 C807 1.355 . S
C806 C808 1.415 . S
C807 C806 1.355 . S
C807 C809 1.419 . S
C808 C806 1.415 . S
C808 C813 1.425 . S
C808 C815 1.409 . S
C809 H801 0.930 . S
C809 C807 1.419 . S
C809 C810 1.362 . S
C810 H802 0.930 . S
C810 C809 1.362 . S
C810 C813 1.409 . S
C811 H803 0.930 . S
C811 C812 1.355 . S
C811 C813 1.415 . S
C812 C811 1.355 . S
C812 C814 1.419 . S
C813 C808 1.425 . S
C813 C810 1.409 . S
C813 C811 1.415 . S
C814 H804 0.930 . S
C814 C812 1.419 . S
C814 C815 1.362 . S
C815 H805 0.930 . S
C815 C808 1.409 . S
C815 C814 1.362 . S
H816 C822 0.930 . S
H817 C825 0.930 . S
H818 C826 0.930 . S
H819 C827 0.930 . S
H820 C830 0.930 . S
H821 C831 0.930 . S
C822 H816 0.930 . S
C822 C823 1.355 . S
C822 C824 1.415 . S
C823 C822 1.355 . S
C823 C825 1.419 . S
C824 C822 1.415 . S
C824 C829 1.425 . S
C824 C831 1.409 . S
C825 H817 0.930 . S
C825 C823 1.419 . S
C825 C826 1.362 . S
C826 H818 0.930 . S
C826 C825 1.362 . S
C826 C829 1.409 . S
C827 H819 0.930 . S
C827 C828 1.355 . S
C827 C829 1.415 . S
C828 C827 1.355 . S
C828 C830 1.419 . S
C829 C824 1.425 . S
C829 C826 1.409 . S
C829 C827 1.415 . S
C830 H820 0.930 . S
C830 C828 1.419 . S
C830 C831 1.362 . S
C831 H821 0.930 . S
C831 C824 1.409 . S
C831 C830 1.362 . S
H832 C838 0.930 . S
H833 C841 0.930 . S
H834 C842 0.930 1_554 S
H835 C843 0.930 1_655 S
H836 C846 0.930 . S
H837 C847 0.930 . S
C838 H832 0.930 . S
C838 C839 1.355 1_455 S
C838 C840 1.415 . S
C839 C838 1.355 1_655 S
C839 C841 1.419 . S
C840 C838 1.415 . S
C840 C845 1.425 1_556 S
C840 C847 1.409 . S
C841 H833 0.930 . S
C841 C839 1.419 . S
C841 C842 1.362 . S
C842 H834 0.930 1_556 S
C842 C841 1.362 . S
C842 C845 1.409 1_656 S
C843 H835 0.930 1_455 S
C843 C844 1.355 . S
C843 C845 1.415 . S
C844 C843 1.355 . S
C844 C846 1.419 . S
C845 C840 1.425 1_554 S
C845 C842 1.409 1_454 S
C845 C843 1.415 . S
C846 H836 0.930 . S
C846 C844 1.419 . S
C846 C847 1.362 1_554 S
C847 H837 0.930 . S
C847 C840 1.409 . S
C847 C846 1.362 1_556 S
H848 C854 0.930 . S
H849 C857 0.930 . S
H850 C858 0.930 . S
H851 C859 0.930 . S
H852 C862 0.930 . S
H853 C863 0.930 . S
C854 H848 0.930 . S
C854 C855 1.355 . S
C854 C856 1.415 . S
C855 C854 1.355 . S
C855 C857 1.419 . S
C856 C854 1.415 . S
C856 C861 1.425 . S
C856 C863 1.409 . S
C857 H849 0.930 . S
C857 C855 1.419 . S
C857 C858 1.362 . S
C858 H850 0.930 . S
C858 C857 1.362 . S
C858 C861 1.409 . S
C859 H851 0.930 . S
C859 C860 1.355 . S
C859 C861 1.415 . S
C860 C859 1.355 . S
C860 C862 1.419 . S
C861 C856 1.425 . S
C861 C858 1.409 . S
C861 C859 1.415 . S
C862 H852 0.930 . S
C862 C860 1.419 . S
C862 C863 1.362 . S
C863 H853 0.930 . S
C863 C856 1.409 . S
C863 C862 1.362 . S
H864 C870 0.930 . S
H865 C873 0.930 . S
H866 C874 0.930 . S
H867 C875 0.930 . S
H868 C878 0.930 . S
H869 C879 0.930 . S
C870 H864 0.930 . S
C870 C871 1.355 . S
C870 C872 1.415 . S
C871 C870 1.355 . S
C871 C873 1.419 . S
C872 C870 1.415 . S
C872 C877 1.425 . S
C872 C879 1.409 . S
C873 H865 0.930 . S
C873 C871 1.419 . S
C873 C874 1.362 . S
C874 H866 0.930 . S
C874 C873 1.362 . S
C874 C877 1.409 . S
C875 H867 0.930 . S
C875 C876 1.355 . S
C875 C877 1.415 . S
C876 C875 1.355 . S
C876 C878 1.419 . S
C877 C872 1.425 . S
C877 C874 1.409 . S
C877 C875 1.415 . S
C878 H868 0.930 . S
C878 C876 1.419 . S
C878 C879 1.362 . S
C879 H869 0.930 . S
C879 C872 1.409 . S
C879 C878 1.362 . S
H880 C886 0.930 . S
H881 C889 0.930 . S
H882 C890 0.930 . S
H883 C891 0.930 . S
H884 C894 0.930 . S
H885 C895 0.930 . S
C886 H880 0.930 . S
C886 C887 1.355 1_565 S
C886 C888 1.415 1_564 S
C887 C886 1.355 1_545 S
C887 C889 1.419 . S
C888 C886 1.415 1_546 S
C888 C893 1.425 . S
C888 C895 1.409 1_545 S
C889 H881 0.930 . S
C889 C887 1.419 . S
C889 C890 1.362 1_655 S
C890 H882 0.930 . S
C890 C889 1.362 1_455 S
C890 C893 1.409 1_454 S
C891 H883 0.930 . S
C891 C892 1.355 1_455 S
C891 C893 1.415 1_455 S
C892 C891 1.355 1_655 S
C892 C894 1.419 . S
C893 C888 1.425 . S
C893 C890 1.409 1_656 S
C893 C891 1.415 1_655 S
C894 H884 0.930 . S
C894 C892 1.419 . S
C894 C895 1.362 1_545 S
C895 H885 0.930 . S
C895 C888 1.409 1_565 S
C895 C894 1.362 1_565 S
H896 C902 0.930 . S
H897 C905 0.930 . S
H898 C906 0.930 . S
H899 C907 0.930 . S
H900 C910 0.930 . S
H901 C911 0.930 . S
C902 H896 0.930 . S
C902 C903 1.355 . S
C902 C904 1.415 . S
C903 C902 1.355 . S
C903 C905 1.419 . S
C904 C902 1.415 . S
C904 C909 1.425 . S
C904 C911 1.409 . S
C905 H897 0.930 . S
C905 C903 1.419 . S
C905 C906 1.362 . S
C906 H898 0.930 . S
C906 C905 1.362 . S
C906 C909 1.409 . S
C907 H899 0.930 . S
C907 C908 1.345 1_565 S
C907 C909 1.415 . S
C908 C907 1.345 1_545 S
C908 C910 1.421 . S
C909 C904 1.425 . S
C909 C906 1.409 . S
C909 C907 1.415 . S
C910 H900 0.930 . S
C910 C908 1.421 . S
C910 C911 1.362 1_545 S
C911 H901 0.930 . S
C911 C904 1.409 . S
C911 C910 1.362 1_565 S
H912 C918 0.930 . S
H913 C921 0.930 . S
H914 C922 0.930 . S
H915 C923 0.930 . S
H916 C926 0.930 . S
H917 C927 0.930 . S
C918 H912 0.930 . S
C918 C919 1.355 . S
C918 C920 1.415 . S
C919 C918 1.355 . S
C919 C921 1.419 . S
C920 C918 1.415 . S
C920 C925 1.425 . S
C920 C927 1.409 . S
C921 H913 0.930 . S
C921 C919 1.419 . S
C921 C922 1.362 . S
C922 H914 0.930 . S
C922 C921 1.362 . S
C922 C925 1.409 . S
C923 H915 0.930 . S
C923 C924 1.355 . S
C923 C925 1.415 . S
C924 C923 1.355 . S
C924 C926 1.419 . S
C925 C920 1.425 . S
C925 C922 1.409 . S
C925 C923 1.415 . S
C926 H916 0.930 . S
C926 C924 1.419 . S
C926 C927 1.362 . S
C927 H917 0.930 . S
C927 C920 1.409 . S
C927 C926 1.362 . S
H928 C934 0.930 . S
H929 C937 0.930 . S
H930 C938 0.930 . S
H931 C939 0.930 . S
H932 C942 0.930 . S
H933 C943 0.930 . S
C934 H928 0.930 . S
C934 C935 1.355 . S
C934 C936 1.415 . S
C935 C934 1.355 . S
C935 C937 1.419 . S
C936 C934 1.415 . S
C936 C941 1.425 . S
C936 C943 1.409 . S
C937 H929 0.930 . S
C937 C935 1.419 . S
C937 C938 1.362 . S
C938 H930 0.930 . S
C938 C937 1.362 . S
C938 C941 1.409 . S
C939 H931 0.930 . S
C939 C940 1.355 . S
C939 C941 1.415 . S
C940 C939 1.355 . S
C940 C942 1.419 . S
C941 C936 1.425 . S
C941 C938 1.409 . S
C941 C939 1.415 . S
C942 H932 0.930 . S
C942 C940 1.419 . S
C942 C943 1.362 . S
C943 H933 0.930 . S
C943 C936 1.409 . S
C943 C942 1.362 . S
H944 C950 0.930 . S
H945 C953 0.930 . S
H946 C954 0.930 . S
H947 C955 0.930 . S
H948 C958 0.930 . S
H949 C959 0.930 . S
C950 H944 0.930 . S
C950 C951 1.355 . S
C950 C952 1.415 . S
C951 C950 1.355 . S
C951 C953 1.419 . S
C952 C950 1.415 . S
C952 C957 1.425 . S
C952 C959 1.409 . S
C953 H945 0.930 . S
C953 C951 1.419 . S
C953 C954 1.362 . S
C954 H946 0.930 . S
C954 C953 1.362 . S
C954 C957 1.409 . S
C955 H947 0.930 . S
C955 C956 1.355 . S
C955 C957 1.415 . S
C956 C955 1.355 . S
C956 C958 1.419 . S
C957 C952 1.425 . S
C957 C954 1.409 . S
C957 C955 1.415 . S
C958 H948 0.930 . S
C958 C956 1.419 . S
C958 C959 1.362 . S
C959 H949 0.930 . S
C959 C952 1.409 . S
C959 C958 1.362 . S
H960 C966 0.930 . S
H961 C969 0.930 . S
H962 C970 0.930 . S
H963 C971 0.930 . S
H964 C974 0.930 . S
H965 C975 0.930 . S
C966 H960 0.930 . S
C966 C967 1.355 . S
C966 C968 1.415 . S
C967 C966 1.355 . S
C967 C969 1.419 . S
C968 C966 1.415 . S
C968 C973 1.425 . S
C968 C975 1.409 . S
C969 H961 0.930 . S
C969 C967 1.419 . S
C969 C970 1.362 . S
C970 H962 0.930 . S
C970 C969 1.362 . S
C970 C973 1.409 . S
C971 H963 0.930 . S
C971 C972 1.355 . S
C971 C973 1.415 . S
C972 C971 1.355 . S
C972 C974 1.419 . S
C973 C968 1.425 . S
C973 C970 1.409 . S
C973 C971 1.415 . S
C974 H964 0.930 . S
C974 C972 1.419 . S
C974 C975 1.362 . S
C975 H965 0.930 . S
C975 C968 1.409 . S
C975 C974 1.362 . S
H976 C982 0.930 . S
H977 C985 0.930 . S
H978 C986 0.930 . S
H979 C987 0.930 . S
H980 C990 0.930 . S
H981 C991 0.930 . S
C982 H976 0.930 . S
C982 C983 1.355 . S
C982 C984 1.415 . S
C983 C982 1.355 . S
C983 C985 1.419 . S
C984 C982 1.415 . S
C984 C989 1.425 . S
C984 C991 1.409 . S
C985 H977 0.930 . S
C985 C983 1.419 . S
C985 C986 1.362 . S
C986 H978 0.930 . S
C986 C985 1.362 . S
C986 C989 1.409 . S
C987 H979 0.930 . S
C987 C988 1.355 . S
C987 C989 1.415 . S
C988 C987 1.355 . S
C988 C990 1.419 . S
C989 C984 1.425 . S
C989 C986 1.409 . S
C989 C987 1.415 . S
C990 H980 0.930 . S
C990 C988 1.419 . S
C990 C991 1.362 . S
C991 H981 0.930 . S
C991 C984 1.409 . S
C991 C990 1.362 . S
H992 C998 0.930 . S
H993 C1001 0.930 . S
H994 C1002 0.930 . S
H995 C1003 0.930 . S
H996 C1006 0.930 . S
H997 C1007 0.930 . S
C998 H992 0.930 . S
C998 C999 1.355 . S
C998 C1000 1.415 . S
C999 C998 1.355 . S
C999 C1001 1.419 . S
C1000 C998 1.415 . S
C1000 C1005 1.425 . S
C1000 C1007 1.409 . S
C1001 H993 0.930 . S
C1001 C999 1.419 . S
C1001 C1002 1.362 . S
C1002 H994 0.930 . S
C1002 C1001 1.362 . S
C1002 C1005 1.409 . S
C1003 H995 0.930 . S
C1003 C1004 1.355 . S
C1003 C1005 1.415 . S
C1004 C1003 1.355 . S
C1004 C1006 1.419 . S
C1005 C1000 1.425 . S
C1005 C1002 1.409 . S
C1005 C1003 1.415 . S
C1006 H996 0.930 . S
C1006 C1004 1.419 . S
C1006 C1007 1.362 . S
C1007 H997 0.930 . S
C1007 C1000 1.409 . S
C1007 C1006 1.362 . S
H1008 C1014 0.930 . S
H1009 C1017 0.930 . S
H1010 C1018 0.930 . S
H1011 C1019 0.930 . S
H1012 C1022 0.930 . S
H1013 C1023 0.930 . S
C1014 H1008 0.930 . S
C1014 C1015 1.355 . S
C1014 C1016 1.415 . S
C1015 C1014 1.355 . S
C1015 C1017 1.419 . S
C1016 C1014 1.415 . S
C1016 C1021 1.425 . S
C1016 C1023 1.409 . S
C1017 H1009 0.930 . S
C1017 C1015 1.419 . S
C1017 C1018 1.362 . S
C1018 H1010 0.930 . S
C1018 C1017 1.362 . S
C1018 C1021 1.409 . S
C1019 H1011 0.930 . S
C1019 C1020 1.355 . S
C1019 C1021 1.415 . S
C1020 C1019 1.355 . S
C1020 C1022 1.419 . S
C1021 C1016 1.425 . S
C1021 C1018 1.409 . S
C1021 C1019 1.415 . S
C1022 H1012 0.930 . S
C1022 C1020 1.419 . S
C1022 C1023 1.362 . S
C1023 H1013 0.930 . S
C1023 C1016 1.409 . S
C1023 C1022 1.362 . S
H1024 C1030 0.930 . S
H1025 C1033 0.930 . S
H1026 C1034 0.930 . S
H1027 C1035 0.930 . S
H1028 C1038 0.930 . S
H1029 C1039 0.930 . S
C1030 H1024 0.930 . S
C1030 C1031 1.355 . S
C1030 C1032 1.415 . S
C1031 C1030 1.355 . S
C1031 C1033 1.419 . S
C1032 C1030 1.415 . S
C1032 C1037 1.425 . S
C1032 C1039 1.409 . S
C1033 H1025 0.930 . S
C1033 C1031 1.419 . S
C1033 C1034 1.362 . S
C1034 H1026 0.930 . S
C1034 C1033 1.362 . S
C1034 C1037 1.409 . S
C1035 H1027 0.930 . S
C1035 C1036 1.355 . S
C1035 C1037 1.415 . S
C1036 C1035 1.355 . S
C1036 C1038 1.419 . S
C1037 C1032 1.425 . S
C1037 C1034 1.409 . S
C1037 C1035 1.415 . S
C1038 H1028 0.930 . S
C1038 C1036 1.419 . S
C1038 C1039 1.362 . S
C1039 H1029 0.930 . S
C1039 C1032 1.409 . S
C1039 C1038 1.362 . S
H1040 C1046 0.930 . S
H1041 C1049 0.930 . S
H1042 C1050 0.930 . S
H1043 C1051 0.930 . S
H1044 C1054 0.930 . S
H1045 C1055 0.930 . S
C1046 H1040 0.930 . S
C1046 C1047 1.355 . S
C1046 C1048 1.415 . S
C1047 C1046 1.355 . S
C1047 C1049 1.419 . S
C1048 C1046 1.415 . S
C1048 C1053 1.425 . S
C1048 C1055 1.409 . S
C1049 H1041 0.930 . S
C1049 C1047 1.419 . S
C1049 C1050 1.362 . S
C1050 H1042 0.930 . S
C1050 C1049 1.362 . S
C1050 C1053 1.409 . S
C1051 H1043 0.930 . S
C1051 C1052 1.355 . S
C1051 C1053 1.415 . S
C1052 C1051 1.355 . S
C1052 C1054 1.419 . S
C1053 C1048 1.425 . S
C1053 C1050 1.409 . S
C1053 C1051 1.415 . S
C1054 H1044 0.930 . S
C1054 C1052 1.419 . S
C1054 C1055 1.362 . S
C1055 H1045 0.930 . S
C1055 C1048 1.409 . S
C1055 C1054 1.362 . S
H1056 C1062 0.930 . S
H1057 C1065 0.930 . S
H1058 C1066 0.930 . S
H1059 C1067 0.930 . S
H1060 C1070 0.930 . S
H1061 C1071 0.930 . S
C1062 H1056 0.930 . S
C1062 C1063 1.355 . S
C1062 C1064 1.415 . S
C1063 C1062 1.355 . S
C1063 C1065 1.419 . S
C1064 C1062 1.415 . S
C1064 C1069 1.425 . S
C1064 C1071 1.409 . S
C1065 H1057 0.930 . S
C1065 C1063 1.419 . S
C1065 C1066 1.362 . S
C1066 H1058 0.930 . S
C1066 C1065 1.362 . S
C1066 C1069 1.409 . S
C1067 H1059 0.930 . S
C1067 C1068 1.355 . S
C1067 C1069 1.415 . S
C1068 C1067 1.355 . S
C1068 C1070 1.419 . S
C1069 C1064 1.425 . S
C1069 C1066 1.409 . S
C1069 C1067 1.415 . S
C1070 H1060 0.930 . S
C1070 C1068 1.419 . S
C1070 C1071 1.362 . S
C1071 H1061 0.930 . S
C1071 C1064 1.409 . S
C1071 C1070 1.362 . S
H1072 C1078 0.930 . S
H1073 C1081 0.930 . S
H1074 C1082 0.930 . S
H1075 C1083 0.930 . S
H1076 C1086 0.930 . S
H1077 C1087 0.930 . S
C1078 H1072 0.930 . S
C1078 C1079 1.355 . S
C1078 C1080 1.415 . S
C1079 C1078 1.355 . S
C1079 C1081 1.419 . S
C1080 C1078 1.415 . S
C1080 C1085 1.425 . S
C1080 C1087 1.409 . S
C1081 H1073 0.930 . S
C1081 C1079 1.419 . S
C1081 C1082 1.362 . S
C1082 H1074 0.930 . S
C1082 C1081 1.362 . S
C1082 C1085 1.409 . S
C1083 H1075 0.930 . S
C1083 C1084 1.355 . S
C1083 C1085 1.415 . S
C1084 C1083 1.355 . S
C1084 C1086 1.419 . S
C1085 C1080 1.425 . S
C1085 C1082 1.409 . S
C1085 C1083 1.415 . S
C1086 H1076 0.930 . S
C1086 C1084 1.419 . S
C1086 C1087 1.362 . S
C1087 H1077 0.930 . S
C1087 C1080 1.409 . S
C1087 C1086 1.362 . S
H1088 C1094 0.930 . S
H1089 C1097 0.930 . S
H1090 C1098 0.930 . S
H1091 C1099 0.930 . S
H1092 C1102 0.930 . S
H1093 C1103 0.930 . S
C1094 H1088 0.930 . S
C1094 C1095 1.355 . S
C1094 C1096 1.415 . S
C1095 C1094 1.355 . S
C1095 C1097 1.419 . S
C1096 C1094 1.415 . S
C1096 C1101 1.425 . S
C1096 C1103 1.409 . S
C1097 H1089 0.930 . S
C1097 C1095 1.419 . S
C1097 C1098 1.362 . S
C1098 H1090 0.930 . S
C1098 C1097 1.362 . S
C1098 C1101 1.409 . S
C1099 H1091 0.930 . S
C1099 C1100 1.355 . S
C1099 C1101 1.415 . S
C1100 C1099 1.355 . S
C1100 C1102 1.419 . S
C1101 C1096 1.425 . S
C1101 C1098 1.409 . S
C1101 C1099 1.415 . S
C1102 H1092 0.930 . S
C1102 C1100 1.419 . S
C1102 C1103 1.362 . S
C1103 H1093 0.930 . S
C1103 C1096 1.409 . S
C1103 C1102 1.362 . S
H1104 C1110 0.930 . S
H1105 C1113 0.930 . S
H1106 C1114 0.930 . S
H1107 C1115 0.930 . S
H1108 C1118 0.930 . S
H1109 C1119 0.930 . S
C1110 H1104 0.930 . S
C1110 C1111 1.355 . S
C1110 C1112 1.415 . S
C1111 C1110 1.355 . S
C1111 C1113 1.419 . S
C1112 C1110 1.415 . S
C1112 C1117 1.425 . S
C1112 C1119 1.409 . S
C1113 H1105 0.930 . S
C1113 C1111 1.419 . S
C1113 C1114 1.362 . S
C1114 H1106 0.930 . S
C1114 C1113 1.362 . S
C1114 C1117 1.409 . S
C1115 H1107 0.930 . S
C1115 C1116 1.355 . S
C1115 C1117 1.415 . S
C1116 C1115 1.355 . S
C1116 C1118 1.419 . S
C1117 C1112 1.425 . S
C1117 C1114 1.409 . S
C1117 C1115 1.415 . S
C1118 H1108 0.930 . S
C1118 C1116 1.419 . S
C1118 C1119 1.362 . S
C1119 H1109 0.930 . S
C1119 C1112 1.409 . S
C1119 C1118 1.362 . S
H1120 C1126 0.930 . S
H1121 C1129 0.930 . S
H1122 C1130 0.930 . S
H1123 C1131 0.930 . S
H1124 C1134 0.930 . S
H1125 C1135 0.930 . S
C1126 H1120 0.930 . S
C1126 C1127 1.355 . S
C1126 C1128 1.415 . S
C1127 C1126 1.355 . S
C1127 C1129 1.419 . S
C1128 C1126 1.415 . S
C1128 C1133 1.425 . S
C1128 C1135 1.409 . S
C1129 H1121 0.930 . S
C1129 C1127 1.419 . S
C1129 C1130 1.362 . S
C1130 H1122 0.930 . S
C1130 C1129 1.362 . S
C1130 C1133 1.409 . S
C1131 H1123 0.930 . S
C1131 C1132 1.355 . S
C1131 C1133 1.415 . S
C1132 C1131 1.355 . S
C1132 C1134 1.419 . S
C1133 C1128 1.425 . S
C1133 C1130 1.409 . S
C1133 C1131 1.415 . S
C1134 H1124 0.930 . S
C1134 C1132 1.419 . S
C1134 C1135 1.362 . S
C1135 H1125 0.930 . S
C1135 C1128 1.409 . S
C1135 C1134 1.362 . S
H1136 C1142 0.930 . S
H1137 C1145 0.930 . S
H1138 C1146 0.930 . S
H1139 C1147 0.930 . S
H1140 C1150 0.930 . S
H1141 C1151 0.930 . S
C1142 H1136 0.930 . S
C1142 C1143 1.355 . S
C1142 C1144 1.415 . S
C1143 C1142 1.355 . S
C1143 C1145 1.419 . S
C1144 C1142 1.415 . S
C1144 C1149 1.425 . S
C1144 C1151 1.409 . S
C1145 H1137 0.930 . S
C1145 C1143 1.419 . S
C1145 C1146 1.362 . S
C1146 H1138 0.930 . S
C1146 C1145 1.362 . S
C1146 C1149 1.409 . S
C1147 H1139 0.930 . S
C1147 C1148 1.355 . S
C1147 C1149 1.415 . S
C1148 C1147 1.355 . S
C1148 C1150 1.419 . S
C1149 C1144 1.425 . S
C1149 C1146 1.409 . S
C1149 C1147 1.415 . S
C1150 H1140 0.930 . S
C1150 C1148 1.419 . S
C1150 C1151 1.362 . S
C1151 H1141 0.930 . S
C1151 C1144 1.409 . S
C1151 C1150 1.362 . S
H1152 C1158 0.930 . S
H1153 C1161 0.930 . S
H1154 C1162 0.930 . S
H1155 C1163 0.930 . S
H1156 C1166 0.930 . S
H1157 C1167 0.930 . S
C1158 H1152 0.930 . S
C1158 C1159 1.355 . S
C1158 C1160 1.415 . S
C1159 C1158 1.355 . S
C1159 C1161 1.419 . S
C1160 C1158 1.415 . S
C1160 C1165 1.425 . S
C1160 C1167 1.409 . S
C1161 H1153 0.930 . S
C1161 C1159 1.419 . S
C1161 C1162 1.362 . S
C1162 H1154 0.930 . S
C1162 C1161 1.362 . S
C1162 C1165 1.409 . S
C1163 H1155 0.930 . S
C1163 C1164 1.355 . S
C1163 C1165 1.415 . S
C1164 C1163 1.355 . S
C1164 C1166 1.419 . S
C1165 C1160 1.425 . S
C1165 C1162 1.409 . S
C1165 C1163 1.415 . S
C1166 H1156 0.930 . S
C1166 C1164 1.419 . S
C1166 C1167 1.362 . S
C1167 H1157 0.930 . S
C1167 C1160 1.409 . S
C1167 C1166 1.362 . S
C535 C503 1.598 . S
C540 N14 1.594 . S
C551 N47 1.594 . S
C556 C140 1.615 . S
C567 N80 1.545 . S
C572 C437 1.575 1_455 S
C583 N113 1.558 . S
C588 C206 1.573 . S
C599 N146 1.477 . S
C604 C391 1.495 . S
C615 C28 1.500 . S
C620 N179 1.444 . S
C631 C325 1.497 1_655 S
C636 N212 1.427 . S
C647 N245 1.468 . S
C652 C94 1.484 . S
C663 N278 1.553 . S
C668 C239 1.589 . S
C679 N311 1.580 . S
C684 C404 1.587 . S
C695 C173 1.598 . S
C700 N344 1.560 . S
C711 N377 1.586 . S
C716 C470 1.595 . S
C727 N410 1.482 . S
C732 C127 1.460 1_455 S
C743 N443 1.434 . S
C748 C292 1.480 . S
C759 C61 1.509 . S
C764 N476 1.442 . S
C775 N509 1.458 . S
C780 C358 1.511 . S
C791 N5 1.633 . S
C796 N401 1.699 . S
C807 N170 1.716 . S
C812 N38 1.610 . S
C823 N71 1.654 . S
C828 N467 1.658 . S
C839 N104 1.578 . S
C844 N236 1.685 . S
C855 N269 1.656 . S
C860 N137 1.681 . S
C871 N335 1.615 . S
C876 N203 1.700 . S
C887 N434 1.661 1_545 S
C892 N302 1.657 1_655 S
C903 N368 1.587 . S
C908 N500 1.709 . S
C919 C305 1.580 . S
C924 C17 1.614 . S
C935 C50 1.587 . S
C940 C338 1.539 . S
C951 C83 1.619 . S
C956 C371 1.598 . S
C967 C272 1.567 . S
C972 C116 1.606 . S
C983 C149 1.055 . S
C988 C457 1.055 . S
C999 C182 1.052 . S
C1004 C490 1.046 . S
C1015 C215 1.050 . S
C1020 C523 1.051 . S
C1031 C248 1.037 . S
C1036 C424 1.000 . S
C1047 C41 1.573 . S
C1052 C281 1.604 . S
C1063 C314 1.609 1_565 S
C1068 C74 1.574 . S
C1079 C347 1.622 . S
C1084 C107 1.602 . S
C1095 C380 1.581 1_545 S
C1100 C8 1.588 . S
C1111 C413 1.008 . S
C1116 C193 0.958 . S
C1127 C226 0.994 . S
C1132 C446 1.020 . S
C1143 C259 1.036 . S
C1148 C479 1.045 . S
C1159 C512 1.029 . S
C1164 C160 0.997 . S
