# Generated by pormake.
# Topology mer, (4)-cn, num edge types: 1
# Building blocks:
#     Node 0, Type 0, BuildingBlock: QUQFOY_clean_sbu_3, # of connection points: 4
#     Node 1, Type 0, BuildingBlock: QUQFOY_clean_sbu_3, # of connection points: 4
#     Node 2, Type 0, BuildingBlock: QUQFOY_clean_sbu_3, # of connection points: 4
#     Node 3, Type 0, BuildingBlock: QUQFOY_clean_sbu_3, # of connection points: 4
#     Node 4, Type 0, BuildingBlock: QUQFOY_clean_sbu_3, # of connection points: 4
#     Node 5, Type 0, BuildingBlock: QUQFOY_clean_sbu_3, # of connection points: 4
#     Node 6, Type 0, BuildingBlock: QUQFOY_clean_sbu_3, # of connection points: 4
#     Node 7, Type 0, BuildingBlock: QUQFOY_clean_sbu_3, # of connection points: 4
#     Node 8, Type 0, BuildingBlock: QUQFOY_clean_sbu_3, # of connection points: 4
#     Node 9, Type 0, BuildingBlock: QUQFOY_clean_sbu_3, # of connection points: 4
#     Node 10, Type 0, BuildingBlock: QUQFOY_clean_sbu_3, # of connection points: 4
#     Node 11, Type 0, BuildingBlock: QUQFOY_clean_sbu_3, # of connection points: 4
#     Node 12, Type 0, BuildingBlock: QUQFOY_clean_sbu_3, # of connection points: 4
#     Node 13, Type 0, BuildingBlock: QUQFOY_clean_sbu_3, # of connection points: 4
#     Node 14, Type 0, BuildingBlock: QUQFOY_clean_sbu_3, # of connection points: 4
#     Node 15, Type 0, BuildingBlock: QUQFOY_clean_sbu_3, # of connection points: 4
#     Node 16, Type 0, BuildingBlock: QUQFOY_clean_sbu_3, # of connection points: 4
#     Node 17, Type 0, BuildingBlock: QUQFOY_clean_sbu_3, # of connection points: 4
#     Node 18, Type 0, BuildingBlock: QUQFOY_clean_sbu_3, # of connection points: 4
#     Node 19, Type 0, BuildingBlock: QUQFOY_clean_sbu_3, # of connection points: 4
#     Node 20, Type 0, BuildingBlock: QUQFOY_clean_sbu_3, # of connection points: 4
#     Node 21, Type 0, BuildingBlock: QUQFOY_clean_sbu_3, # of connection points: 4
#     Node 22, Type 0, BuildingBlock: QUQFOY_clean_sbu_3, # of connection points: 4
#     Node 23, Type 0, BuildingBlock: QUQFOY_clean_sbu_3, # of connection points: 4
#     Node 24, Type 0, BuildingBlock: QUQFOY_clean_sbu_3, # of connection points: 4
#     Node 25, Type 0, BuildingBlock: QUQFOY_clean_sbu_3, # of connection points: 4
#     Node 26, Type 0, BuildingBlock: QUQFOY_clean_sbu_3, # of connection points: 4
#     Node 27, Type 0, BuildingBlock: QUQFOY_clean_sbu_3, # of connection points: 4
#     Node 28, Type 0, BuildingBlock: QUQFOY_clean_sbu_3, # of connection points: 4
#     Node 29, Type 0, BuildingBlock: QUQFOY_clean_sbu_3, # of connection points: 4
#     Node 30, Type 0, BuildingBlock: QUQFOY_clean_sbu_3, # of connection points: 4
#     Node 31, Type 0, BuildingBlock: QUQFOY_clean_sbu_3, # of connection points: 4
#     Edge 32, Type (0, 0), BuildingBlock: UVAHIK_clean_linker_0, # of connection points: 2
#     Edge 33, Type (0, 0), BuildingBlock: UVAHIK_clean_linker_0, # of connection points: 2
#     Edge 34, Type (0, 0), BuildingBlock: UVAHIK_clean_linker_0, # of connection points: 2
#     Edge 35, Type (0, 0), BuildingBlock: UVAHIK_clean_linker_0, # of connection points: 2
#     Edge 36, Type (0, 0), BuildingBlock: UVAHIK_clean_linker_0, # of connection points: 2
#     Edge 37, Type (0, 0), BuildingBlock: UVAHIK_clean_linker_0, # of connection points: 2
#     Edge 38, Type (0, 0), BuildingBlock: UVAHIK_clean_linker_0, # of connection points: 2
#     Edge 39, Type (0, 0), BuildingBlock: UVAHIK_clean_linker_0, # of connection points: 2
#     Edge 40, Type (0, 0), BuildingBlock: UVAHIK_clean_linker_0, # of connection points: 2
#     Edge 41, Type (0, 0), BuildingBlock: UVAHIK_clean_linker_0, # of connection points: 2
#     Edge 42, Type (0, 0), BuildingBlock: UVAHIK_clean_linker_0, # of connection points: 2
#     Edge 43, Type (0, 0), BuildingBlock: UVAHIK_clean_linker_0, # of connection points: 2
#     Edge 44, Type (0, 0), BuildingBlock: UVAHIK_clean_linker_0, # of connection points: 2
#     Edge 45, Type (0, 0), BuildingBlock: UVAHIK_clean_linker_0, # of connection points: 2
#     Edge 46, Type (0, 0), BuildingBlock: UVAHIK_clean_linker_0, # of connection points: 2
#     Edge 47, Type (0, 0), BuildingBlock: UVAHIK_clean_linker_0, # of connection points: 2
#     Edge 48, Type (0, 0), BuildingBlock: UVAHIK_clean_linker_0, # of connection points: 2
#     Edge 49, Type (0, 0), BuildingBlock: UVAHIK_clean_linker_0, # of connection points: 2
#     Edge 50, Type (0, 0), BuildingBlock: UVAHIK_clean_linker_0, # of connection points: 2
#     Edge 51, Type (0, 0), BuildingBlock: UVAHIK_clean_linker_0, # of connection points: 2
#     Edge 52, Type (0, 0), BuildingBlock: UVAHIK_clean_linker_0, # of connection points: 2
#     Edge 53, Type (0, 0), BuildingBlock: UVAHIK_clean_linker_0, # of connection points: 2
#     Edge 54, Type (0, 0), BuildingBlock: UVAHIK_clean_linker_0, # of connection points: 2
#     Edge 55, Type (0, 0), BuildingBlock: UVAHIK_clean_linker_0, # of connection points: 2
#     Edge 56, Type (0, 0), BuildingBlock: UVAHIK_clean_linker_0, # of connection points: 2
#     Edge 57, Type (0, 0), BuildingBlock: UVAHIK_clean_linker_0, # of connection points: 2
#     Edge 58, Type (0, 0), BuildingBlock: UVAHIK_clean_linker_0, # of connection points: 2
#     Edge 59, Type (0, 0), BuildingBlock: UVAHIK_clean_linker_0, # of connection points: 2
#     Edge 60, Type (0, 0), BuildingBlock: UVAHIK_clean_linker_0, # of connection points: 2
#     Edge 61, Type (0, 0), BuildingBlock: UVAHIK_clean_linker_0, # of connection points: 2
#     Edge 62, Type (0, 0), BuildingBlock: UVAHIK_clean_linker_0, # of connection points: 2
#     Edge 63, Type (0, 0), BuildingBlock: UVAHIK_clean_linker_0, # of connection points: 2
#     Edge 64, Type (0, 0), BuildingBlock: UVAHIK_clean_linker_0, # of connection points: 2
#     Edge 65, Type (0, 0), BuildingBlock: UVAHIK_clean_linker_0, # of connection points: 2
#     Edge 66, Type (0, 0), BuildingBlock: UVAHIK_clean_linker_0, # of connection points: 2
#     Edge 67, Type (0, 0), BuildingBlock: UVAHIK_clean_linker_0, # of connection points: 2
#     Edge 68, Type (0, 0), BuildingBlock: UVAHIK_clean_linker_0, # of connection points: 2
#     Edge 69, Type (0, 0), BuildingBlock: UVAHIK_clean_linker_0, # of connection points: 2
#     Edge 70, Type (0, 0), BuildingBlock: UVAHIK_clean_linker_0, # of connection points: 2
#     Edge 71, Type (0, 0), BuildingBlock: UVAHIK_clean_linker_0, # of connection points: 2
#     Edge 72, Type (0, 0), BuildingBlock: UVAHIK_clean_linker_0, # of connection points: 2
#     Edge 73, Type (0, 0), BuildingBlock: UVAHIK_clean_linker_0, # of connection points: 2
#     Edge 74, Type (0, 0), BuildingBlock: UVAHIK_clean_linker_0, # of connection points: 2
#     Edge 75, Type (0, 0), BuildingBlock: UVAHIK_clean_linker_0, # of connection points: 2
#     Edge 76, Type (0, 0), BuildingBlock: UVAHIK_clean_linker_0, # of connection points: 2
#     Edge 77, Type (0, 0), BuildingBlock: UVAHIK_clean_linker_0, # of connection points: 2
#     Edge 78, Type (0, 0), BuildingBlock: UVAHIK_clean_linker_0, # of connection points: 2
#     Edge 79, Type (0, 0), BuildingBlock: UVAHIK_clean_linker_0, # of connection points: 2
#     Edge 80, Type (0, 0), BuildingBlock: UVAHIK_clean_linker_0, # of connection points: 2
#     Edge 81, Type (0, 0), BuildingBlock: UVAHIK_clean_linker_0, # of connection points: 2
#     Edge 82, Type (0, 0), BuildingBlock: UVAHIK_clean_linker_0, # of connection points: 2
#     Edge 83, Type (0, 0), BuildingBlock: UVAHIK_clean_linker_0, # of connection points: 2
#     Edge 84, Type (0, 0), BuildingBlock: UVAHIK_clean_linker_0, # of connection points: 2
#     Edge 85, Type (0, 0), BuildingBlock: UVAHIK_clean_linker_0, # of connection points: 2
#     Edge 86, Type (0, 0), BuildingBlock: UVAHIK_clean_linker_0, # of connection points: 2
#     Edge 87, Type (0, 0), BuildingBlock: UVAHIK_clean_linker_0, # of connection points: 2
#     Edge 88, Type (0, 0), BuildingBlock: UVAHIK_clean_linker_0, # of connection points: 2
#     Edge 89, Type (0, 0), BuildingBlock: UVAHIK_clean_linker_0, # of connection points: 2
#     Edge 90, Type (0, 0), BuildingBlock: UVAHIK_clean_linker_0, # of connection points: 2
#     Edge 91, Type (0, 0), BuildingBlock: UVAHIK_clean_linker_0, # of connection points: 2
#     Edge 92, Type (0, 0), BuildingBlock: UVAHIK_clean_linker_0, # of connection points: 2
#     Edge 93, Type (0, 0), BuildingBlock: UVAHIK_clean_linker_0, # of connection points: 2
#     Edge 94, Type (0, 0), BuildingBlock: UVAHIK_clean_linker_0, # of connection points: 2
#     Edge 95, Type (0, 0), BuildingBlock: UVAHIK_clean_linker_0, # of connection points: 2
# Relax obj value: 0.063
# Max RMSD: 0.126
# Mean RMSD: 0.118
data_MOF--net-mer--node1-QUQFOY_clean_sbu_3--edge1-UVAHIK_clean_linker_0
_symmetry_space_group_name_H-M    P1
_symmetry_Int_Tables_number       1
_symmetry_cell_setting            triclinic
loop_
_symmetry_equiv_pos_as_xyz
'x, y, z'
_cell_length_a     82.818796
_cell_length_b     84.289226
_cell_length_c     72.363889
_cell_angle_alpha  90.051668
_cell_angle_beta   90.323073
_cell_angle_gamma 89.895899
loop_
_atom_site_label
_atom_site_type_symbol
_atom_site_fract_x
_atom_site_fract_y
_atom_site_fract_z
_atom_type_partial_charge
C0 C 0.1194 0.31041 0.32003 0.0
O1 O 0.12866 0.31443 0.33325 0.0
Cd2 Cd 0.13022 0.29896 0.36115 0.0
O3 O 0.1099 0.29868 0.3218 0.0
Cd4 Cd 0.10171 0.27937 0.3455 0.0
C5 C 0.13815 0.26185 0.34361 0.0
O6 O 0.10367 0.29564 0.37385 0.0
O7 O 0.10109 0.27029 0.3771 0.0
O8 O 0.07409 0.28513 0.33638 0.0
C9 C 0.10149 0.2839 0.38453 0.0
O10 O 0.14308 0.27383 0.35278 0.0
C11 C 0.06996 0.27078 0.334 0.0
O12 O 0.12356 0.26104 0.33809 0.0
O13 O 0.08077 0.26029 0.33662 0.0
C14 C 0.66191 0.12045 0.32221 0.0
O15 O 0.65669 0.12789 0.33621 0.0
Cd16 Cd 0.67403 0.12919 0.36311 0.0
O17 O 0.67474 0.1122 0.32338 0.0
Cd18 Cd 0.695 0.10257 0.34548 0.0
C19 C 0.71048 0.13909 0.3431 0.0
O20 O 0.67992 0.103 0.37471 0.0
O21 O 0.70597 0.1014 0.3763 0.0
O22 O 0.6878 0.07679 0.33366 0.0
C23 C 0.69254 0.10121 0.38459 0.0
O24 O 0.6984 0.14318 0.35288 0.0
C25 C 0.70213 0.07199 0.33099 0.0
O26 O 0.71208 0.12483 0.3376 0.0
O27 O 0.71349 0.08154 0.33502 0.0
C28 C 0.85384 0.66541 0.31791 0.0
O29 O 0.84388 0.66145 0.33033 0.0
Cd30 Cd 0.84163 0.677 0.35818 0.0
O31 O 0.8634 0.67698 0.32062 0.0
Cd32 Cd 0.87083 0.69613 0.34485 0.0
C33 C 0.83485 0.71418 0.34033 0.0
O34 O 0.86754 0.68006 0.37319 0.0
O35 O 0.87029 0.70543 0.37633 0.0
O36 O 0.89862 0.68975 0.33751 0.0
C37 C 0.86948 0.6919 0.38387 0.0
O38 O 0.82936 0.70223 0.34903 0.0
C39 C 0.90307 0.70397 0.3349 0.0
O40 O 0.84969 0.71484 0.33594 0.0
O41 O 0.89241 0.71469 0.33679 0.0
C42 C 0.31207 0.85637 0.32269 0.0
O43 O 0.31625 0.84751 0.33606 0.0
Cd44 Cd 0.29947 0.84606 0.36321 0.0
O45 O 0.29966 0.86519 0.32402 0.0
Cd46 Cd 0.27838 0.87332 0.34544 0.0
C47 C 0.26319 0.83641 0.34258 0.0
O48 O 0.29357 0.87228 0.37477 0.0
O49 O 0.26761 0.87467 0.37625 0.0
O50 O 0.28465 0.89935 0.33368 0.0
C51 C 0.28107 0.87417 0.38464 0.0
O52 O 0.27508 0.83228 0.35275 0.0
C53 C 0.27015 0.90364 0.33088 0.0
O54 O 0.26177 0.85066 0.33695 0.0
O55 O 0.25915 0.89377 0.33495 0.0
C56 C 0.12186 0.66315 0.64001 0.0
O57 O 0.13244 0.66079 0.62768 0.0
Cd58 Cd 0.1339 0.67665 0.60014 0.0
O59 O 0.11124 0.67394 0.63792 0.0
Cd60 Cd 0.10324 0.6942 0.61503 0.0
C61 C 0.13873 0.71337 0.62004 0.0
O62 O 0.10764 0.67942 0.58607 0.0
O63 O 0.10383 0.7047 0.58396 0.0
O64 O 0.07536 0.68724 0.62144 0.0
C65 C 0.10565 0.69151 0.57584 0.0
O66 O 0.14467 0.70208 0.61051 0.0
C67 C 0.07079 0.70127 0.62513 0.0
O68 O 0.12394 0.71319 0.62478 0.0
O69 O 0.0814 0.7121 0.62424 0.0
C70 C 0.31351 0.11653 0.63652 0.0
O71 O 0.31772 0.12422 0.62226 0.0
Cd72 Cd 0.30089 0.12481 0.59499 0.0
O73 O 0.30082 0.10804 0.63619 0.0
Cd74 Cd 0.27916 0.09938 0.61506 0.0
C75 C 0.26508 0.1369 0.61453 0.0
O76 O 0.29401 0.09824 0.58573 0.0
O77 O 0.26796 0.09698 0.58433 0.0
O78 O 0.28374 0.07302 0.62733 0.0
C79 C 0.28135 0.09638 0.57596 0.0
O80 O 0.27705 0.14 0.60416 0.0
C81 C 0.26906 0.07012 0.6309 0.0
O82 O 0.26324 0.12309 0.62132 0.0
O83 O 0.25888 0.081 0.6273 0.0
C84 C 0.85474 0.30647 0.64268 0.0
O85 O 0.84617 0.31207 0.62964 0.0
Cd86 Cd 0.84253 0.29687 0.60178 0.0
O87 O 0.8631 0.29397 0.64028 0.0
Cd88 Cd 0.87119 0.27573 0.61538 0.0
C89 C 0.8347 0.25925 0.61901 0.0
O90 O 0.8682 0.29238 0.58762 0.0
O91 O 0.86939 0.267 0.58363 0.0
O92 O 0.89855 0.2825 0.62382 0.0
C93 C 0.86882 0.28072 0.57651 0.0
O94 O 0.82979 0.27173 0.61076 0.0
C95 C 0.90361 0.26836 0.62545 0.0
O96 O 0.8495 0.25765 0.6235 0.0
O97 O 0.89345 0.25733 0.62248 0.0
C98 C 0.66246 0.8587 0.63828 0.0
O99 O 0.65822 0.85078 0.62413 0.0
Cd100 Cd 0.67456 0.85016 0.59667 0.0
O101 O 0.67497 0.86742 0.63781 0.0
Cd102 Cd 0.69625 0.87628 0.61665 0.0
C103 C 0.71081 0.83885 0.61622 0.0
O104 O 0.68087 0.87684 0.58754 0.0
O105 O 0.70681 0.87894 0.58575 0.0
O106 O 0.69163 0.90255 0.62914 0.0
C107 C 0.69325 0.87892 0.57755 0.0
O108 O 0.69882 0.83544 0.60585 0.0
C109 C 0.70634 0.9055 0.63274 0.0
O110 O 0.71241 0.85275 0.62292 0.0
O111 O 0.71655 0.89473 0.62893 0.0
C112 C 0.90042 0.72323 0.62724 0.0
O113 O 0.89419 0.73627 0.62205 0.0
Cd114 Cd 0.86683 0.73798 0.61154 0.0
O115 O 0.89181 0.71075 0.62839 0.0
Cd116 Cd 0.86338 0.70186 0.62509 0.0
C117 C 0.86696 0.70727 0.57934 0.0
O118 O 0.8507 0.72641 0.63511 0.0
O119 O 0.83491 0.70938 0.62206 0.0
O120 O 0.86806 0.68961 0.65476 0.0
C121 C 0.83649 0.72255 0.63036 0.0
O122 O 0.86659 0.722 0.58334 0.0
C123 C 0.86156 0.6764 0.65089 0.0
O124 O 0.86655 0.69678 0.59199 0.0
O125 O 0.85618 0.67468 0.63451 0.0
C126 C 0.30111 0.85796 0.64479 0.0
O127 O 0.30435 0.84878 0.63138 0.0
Cd128 Cd 0.28849 0.84788 0.60363 0.0
O129 O 0.28927 0.86759 0.6438 0.0
Cd130 Cd 0.26793 0.87607 0.6218 0.0
C131 C 0.25135 0.8395 0.62288 0.0
O132 O 0.28433 0.87468 0.59383 0.0
O133 O 0.25878 0.87847 0.58985 0.0
O134 O 0.27464 0.90216 0.63326 0.0
C135 C 0.2727 0.87727 0.58277 0.0
O136 O 0.26344 0.83528 0.61324 0.0
C137 C 0.26023 0.9068 0.63575 0.0
O138 O 0.25006 0.85369 0.62878 0.0
O139 O 0.24907 0.89699 0.63188 0.0
C140 C 0.07484 0.24929 0.6262 0.0
O141 O 0.08122 0.2365 0.62048 0.0
Cd142 Cd 0.1087 0.23601 0.6103 0.0
O143 O 0.08327 0.26185 0.62782 0.0
Cd144 Cd 0.11106 0.27223 0.62491 0.0
C145 C 0.10706 0.26741 0.57906 0.0
O146 O 0.12452 0.24784 0.63431 0.0
O147 O 0.1398 0.26597 0.62277 0.0
O148 O 0.10419 0.28414 0.65413 0.0
C149 C 0.13862 0.25238 0.63013 0.0
O150 O 0.10796 0.25263 0.58264 0.0
C151 C 0.11082 0.29743 0.65115 0.0
O152 O 0.10736 0.27768 0.59199 0.0
O153 O 0.11751 0.29931 0.63554 0.0
C154 C 0.66904 0.11517 0.64166 0.0
O155 O 0.66527 0.12269 0.62705 0.0
Cd156 Cd 0.68193 0.12298 0.60013 0.0
O157 O 0.68165 0.1065 0.64218 0.0
Cd158 Cd 0.70349 0.09697 0.62165 0.0
C159 C 0.7185 0.13412 0.61978 0.0
O160 O 0.68755 0.09587 0.5932 0.0
O161 O 0.71326 0.09287 0.59025 0.0
O162 O 0.69775 0.07146 0.63526 0.0
C163 C 0.69942 0.09315 0.58269 0.0
O164 O 0.70635 0.13725 0.60951 0.0
C165 C 0.71233 0.06758 0.63835 0.0
O166 O 0.72027 0.1204 0.62692 0.0
O167 O 0.72308 0.07759 0.63392 0.0
C168 C 0.89978 0.25045 0.33766 0.0
O169 O 0.89291 0.2378 0.34295 0.0
Cd170 Cd 0.86465 0.237 0.34986 0.0
O171 O 0.8916 0.26309 0.3351 0.0
Cd172 Cd 0.86358 0.27326 0.33564 0.0
C173 C 0.86217 0.26797 0.38154 0.0
O174 O 0.85116 0.24897 0.32426 0.0
O175 O 0.8348 0.26675 0.3346 0.0
O176 O 0.87219 0.28558 0.3073 0.0
C177 C 0.83672 0.25333 0.32702 0.0
O178 O 0.86139 0.25326 0.37754 0.0
C179 C 0.86508 0.29872 0.30985 0.0
O180 O 0.86408 0.27835 0.36894 0.0
O181 O 0.85746 0.30038 0.32493 0.0
C182 C 0.66837 0.8553 0.31851 0.0
O183 O 0.66557 0.84628 0.33216 0.0
Cd184 Cd 0.68221 0.84633 0.35936 0.0
O185 O 0.68004 0.8651 0.31903 0.0
Cd186 Cd 0.70166 0.8744 0.3401 0.0
C187 C 0.71906 0.83826 0.3391 0.0
O188 O 0.68589 0.87339 0.36862 0.0
O189 O 0.71145 0.87765 0.37161 0.0
O190 O 0.69361 0.89959 0.32727 0.0
C191 C 0.69775 0.87649 0.37918 0.0
O192 O 0.70729 0.83402 0.34921 0.0
C193 C 0.70772 0.90511 0.32527 0.0
O194 O 0.71992 0.85236 0.33285 0.0
O195 O 0.71942 0.89616 0.32995 0.0
C196 C 0.07359 0.7242 0.33384 0.0
O197 O 0.08028 0.73707 0.3388 0.0
Cd198 Cd 0.1083 0.73862 0.34687 0.0
O199 O 0.0819 0.71155 0.33204 0.0
Cd200 Cd 0.1102 0.70207 0.33391 0.0
C201 C 0.11039 0.70865 0.37977 0.0
O202 O 0.12264 0.7262 0.32236 0.0
O203 O 0.13888 0.709 0.33435 0.0
O204 O 0.10401 0.68901 0.30501 0.0
C205 C 0.13703 0.72212 0.32605 0.0
O206 O 0.11097 0.72327 0.37534 0.0
C207 C 0.11044 0.67578 0.30908 0.0
O208 O 0.10913 0.69793 0.36741 0.0
O209 O 0.11644 0.67446 0.32522 0.0
C210 C 0.3032 0.11747 0.31843 0.0
O211 O 0.30712 0.12494 0.33301 0.0
Cd212 Cd 0.29034 0.12506 0.35987 0.0
O213 O 0.2906 0.10882 0.31807 0.0
Cd214 Cd 0.26905 0.09903 0.33875 0.0
C215 C 0.2535 0.13584 0.34036 0.0
O216 O 0.28525 0.09791 0.36714 0.0
O217 O 0.25956 0.09478 0.37016 0.0
O218 O 0.27598 0.07441 0.32384 0.0
C219 C 0.27342 0.095 0.37765 0.0
O220 O 0.2657 0.13903 0.35049 0.0
C221 C 0.26167 0.06929 0.32203 0.0
O222 O 0.25177 0.1221 0.33326 0.0
O223 O 0.25036 0.07824 0.32772 0.0
C224 C 0.6191 0.80925 0.81832 0.0
O225 O 0.62867 0.81325 0.83127 0.0
Cd226 Cd 0.62964 0.79874 0.85997 0.0
O227 O 0.60908 0.79804 0.82069 0.0
Cd228 Cd 0.59978 0.77964 0.84467 0.0
C229 C 0.63532 0.76047 0.84398 0.0
O230 O 0.60313 0.79598 0.87274 0.0
O231 O 0.59936 0.77082 0.87629 0.0
O232 O 0.57274 0.78741 0.83565 0.0
C233 C 0.60107 0.78436 0.88364 0.0
O234 O 0.64059 0.77255 0.85272 0.0
C235 C 0.56745 0.77344 0.83323 0.0
O236 O 0.62083 0.76009 0.83797 0.0
O237 O 0.57733 0.76212 0.83598 0.0
C238 C 0.15927 0.61843 0.82327 0.0
O239 O 0.15583 0.6274 0.83679 0.0
Cd240 Cd 0.17156 0.62729 0.8649 0.0
O241 O 0.17117 0.60889 0.82429 0.0
Cd242 Cd 0.19254 0.60072 0.84612 0.0
C243 C 0.20813 0.63777 0.84674 0.0
O244 O 0.17655 0.60037 0.87472 0.0
O245 O 0.20241 0.59771 0.87745 0.0
O246 O 0.18803 0.57436 0.83372 0.0
C247 C 0.18868 0.59773 0.88509 0.0
O248 O 0.19618 0.64145 0.85688 0.0
C249 C 0.20278 0.57124 0.83073 0.0
O250 O 0.20941 0.62386 0.84 0.0
O251 O 0.21296 0.58196 0.83481 0.0
C252 C 0.35194 0.16648 0.81736 0.0
O253 O 0.34176 0.16208 0.82933 0.0
Cd254 Cd 0.33824 0.17667 0.85758 0.0
O255 O 0.36133 0.17807 0.82073 0.0
Cd256 Cd 0.36818 0.19648 0.84612 0.0
C257 C 0.33239 0.21459 0.84071 0.0
O258 O 0.36364 0.17957 0.87339 0.0
O259 O 0.3654 0.20484 0.87791 0.0
O260 O 0.39592 0.18946 0.83979 0.0
C261 C 0.36435 0.19104 0.88474 0.0
O262 O 0.32676 0.20235 0.84871 0.0
C263 C 0.40117 0.20356 0.83879 0.0
O264 O 0.34734 0.21548 0.83682 0.0
O265 O 0.39095 0.21466 0.84101 0.0
C266 C 0.81055 0.35425 0.82277 0.0
O267 O 0.81588 0.34702 0.83692 0.0
Cd268 Cd 0.79912 0.34611 0.86411 0.0
O269 O 0.79768 0.36245 0.8237 0.0
Cd270 Cd 0.77734 0.37217 0.84543 0.0
C271 C 0.76248 0.33523 0.84483 0.0
O272 O 0.79302 0.37263 0.87444 0.0
O273 O 0.76704 0.37454 0.87633 0.0
O274 O 0.78333 0.39769 0.83202 0.0
C275 C 0.78063 0.3747 0.88445 0.0
O276 O 0.77474 0.33154 0.85466 0.0
C277 C 0.76876 0.40186 0.82949 0.0
O278 O 0.76065 0.3493 0.83879 0.0
O279 O 0.75789 0.39213 0.8344 0.0
C280 C 0.61775 0.16627 0.14095 0.0
O281 O 0.62682 0.16084 0.12835 0.0
Cd282 Cd 0.62995 0.17455 0.09943 0.0
O283 O 0.60878 0.17829 0.13801 0.0
Cd284 Cd 0.60046 0.19604 0.11261 0.0
C285 C 0.63733 0.21292 0.11437 0.0
O286 O 0.60342 0.17748 0.0867 0.0
O287 O 0.59878 0.20204 0.07985 0.0
O288 O 0.57316 0.19058 0.12253 0.0
C289 C 0.60077 0.18788 0.07439 0.0
O290 O 0.64243 0.20017 0.10691 0.0
C291 C 0.56873 0.20498 0.1234 0.0
O292 O 0.62251 0.21447 0.11865 0.0
O293 O 0.57923 0.21542 0.11949 0.0
C294 C 0.81217 0.61789 0.13645 0.0
O295 O 0.81649 0.62574 0.12237 0.0
Cd296 Cd 0.79984 0.62592 0.09493 0.0
O297 O 0.79974 0.60906 0.13568 0.0
Cd298 Cd 0.77887 0.59946 0.11411 0.0
C299 C 0.76316 0.63624 0.11406 0.0
O300 O 0.79436 0.59916 0.08512 0.0
O301 O 0.76846 0.59652 0.08312 0.0
O302 O 0.78543 0.57399 0.12745 0.0
C303 C 0.782 0.59669 0.07505 0.0
O304 O 0.77524 0.63991 0.10411 0.0
C305 C 0.77097 0.5696 0.13001 0.0
O306 O 0.76167 0.62227 0.1205 0.0
O307 O 0.75988 0.57922 0.12523 0.0
C308 C 0.35272 0.80922 0.14157 0.0
O309 O 0.3434 0.81316 0.12837 0.0
Cd310 Cd 0.34135 0.79707 0.10097 0.0
O311 O 0.36217 0.7974 0.13988 0.0
Cd312 Cd 0.37077 0.77779 0.11667 0.0
C313 C 0.33468 0.76008 0.12011 0.0
O314 O 0.36759 0.79308 0.08786 0.0
O315 O 0.37042 0.76768 0.08547 0.0
O316 O 0.39796 0.7853 0.12517 0.0
C317 C 0.36924 0.78102 0.0775 0.0
O318 O 0.32949 0.77192 0.11087 0.0
C319 C 0.40314 0.7713 0.12774 0.0
O320 O 0.34941 0.75933 0.12523 0.0
O321 O 0.39312 0.76006 0.12538 0.0
C322 C 0.16133 0.35595 0.13843 0.0
O323 O 0.1566 0.34759 0.12484 0.0
Cd324 Cd 0.17298 0.34615 0.09739 0.0
O325 O 0.17405 0.36429 0.13712 0.0
Cd326 Cd 0.19523 0.37213 0.11544 0.0
C327 C 0.20926 0.33475 0.1169 0.0
O328 O 0.17958 0.37235 0.08637 0.0
O329 O 0.2056 0.37368 0.08451 0.0
O330 O 0.18974 0.39803 0.12813 0.0
C331 C 0.19202 0.37399 0.07635 0.0
O332 O 0.197 0.33131 0.10698 0.0
C333 C 0.20436 0.40205 0.13044 0.0
O334 O 0.21138 0.34881 0.12288 0.0
O335 O 0.2151 0.39205 0.12576 0.0
C336 C 0.39815 0.2229 0.12281 0.0
O337 O 0.3909 0.2353 0.11722 0.0
Cd338 Cd 0.36256 0.23563 0.11034 0.0
O339 O 0.39034 0.21015 0.12571 0.0
Cd340 Cd 0.36249 0.19954 0.12537 0.0
C341 C 0.36039 0.20413 0.07932 0.0
O342 O 0.34949 0.2238 0.13606 0.0
O343 O 0.3336 0.20546 0.12604 0.0
O344 O 0.37109 0.18779 0.15422 0.0
C345 C 0.33517 0.21907 0.13326 0.0
O346 O 0.3593 0.21888 0.08306 0.0
C347 C 0.3643 0.17448 0.15172 0.0
O348 O 0.36275 0.19397 0.0921 0.0
O349 O 0.35695 0.17246 0.13642 0.0
C350 C 0.80443 0.35526 0.14248 0.0
O351 O 0.80835 0.3476 0.12807 0.0
Cd352 Cd 0.7916 0.34731 0.10098 0.0
O353 O 0.79187 0.364 0.14253 0.0
Cd354 Cd 0.77041 0.37383 0.12148 0.0
C355 C 0.75457 0.33714 0.11998 0.0
O356 O 0.78666 0.37444 0.09334 0.0
O357 O 0.76102 0.37799 0.08991 0.0
O358 O 0.77769 0.3985 0.13611 0.0
C359 C 0.77488 0.37742 0.08262 0.0
O360 O 0.76682 0.33372 0.11015 0.0
C361 C 0.76345 0.40382 0.13783 0.0
O362 O 0.7529 0.35097 0.12686 0.0
O363 O 0.75201 0.39498 0.13219 0.0
C364 C 0.5744 0.75254 0.12479 0.0
O365 O 0.58049 0.73961 0.11908 0.0
Cd366 Cd 0.60839 0.73756 0.11062 0.0
O367 O 0.5832 0.7648 0.12689 0.0
Cd368 Cd 0.61146 0.77391 0.12456 0.0
C369 C 0.61051 0.76823 0.07861 0.0
O370 O 0.6235 0.74908 0.13536 0.0
O371 O 0.63991 0.76646 0.12443 0.0
O372 O 0.60375 0.78803 0.15236 0.0
C373 C 0.63793 0.75301 0.13185 0.0
O374 O 0.61092 0.7535 0.08259 0.0
C375 C 0.6121 0.8003 0.14916 0.0
O376 O 0.60965 0.77869 0.09129 0.0
O377 O 0.61999 0.80057 0.13417 0.0
C378 C 0.17071 0.61594 0.14473 0.0
O379 O 0.16619 0.62431 0.13106 0.0
Cd380 Cd 0.18159 0.62508 0.10307 0.0
O381 O 0.1831 0.60704 0.14346 0.0
Cd382 Cd 0.20344 0.59815 0.12079 0.0
C383 C 0.21935 0.63481 0.12046 0.0
O384 O 0.18573 0.59816 0.09346 0.0
O385 O 0.2112 0.59476 0.08865 0.0
O386 O 0.19713 0.57314 0.13504 0.0
C387 C 0.19699 0.59528 0.08211 0.0
O388 O 0.20672 0.63861 0.11133 0.0
C389 C 0.21148 0.56791 0.13583 0.0
O390 O 0.22122 0.62075 0.12655 0.0
O391 O 0.22253 0.57691 0.12973 0.0
C392 C 0.39654 0.75373 0.83268 0.0
O393 O 0.39064 0.74052 0.83765 0.0
Cd394 Cd 0.36298 0.73793 0.84684 0.0
O395 O 0.38766 0.76606 0.8317 0.0
Cd396 Cd 0.35943 0.77504 0.83545 0.0
C397 C 0.36166 0.76705 0.88091 0.0
O398 O 0.34721 0.7507 0.82352 0.0
O399 O 0.33102 0.76763 0.83591 0.0
O400 O 0.36664 0.79051 0.80852 0.0
C401 C 0.33287 0.75446 0.82774 0.0
O402 O 0.36127 0.75254 0.87595 0.0
C403 C 0.35821 0.80256 0.81267 0.0
O404 O 0.36203 0.77813 0.86894 0.0
O405 O 0.35049 0.80207 0.82778 0.0
C406 C 0.16872 0.36023 0.81743 0.0
O407 O 0.16476 0.35245 0.83171 0.0
Cd408 Cd 0.18128 0.35146 0.85893 0.0
O409 O 0.1813 0.36892 0.81754 0.0
Cd410 Cd 0.20258 0.37818 0.83924 0.0
C411 C 0.21817 0.34125 0.83969 0.0
O412 O 0.18642 0.37834 0.86742 0.0
O413 O 0.21212 0.38118 0.871 0.0
O414 O 0.19631 0.40402 0.8267 0.0
C415 C 0.19824 0.38076 0.87826 0.0
O416 O 0.20593 0.33768 0.84943 0.0
C417 C 0.2108 0.40829 0.8241 0.0
O418 O 0.21989 0.35522 0.83329 0.0
O419 O 0.22178 0.39835 0.8283 0.0
C420 C 0.57342 0.2203 0.84164 0.0
O421 O 0.58016 0.23246 0.84859 0.0
Cd422 Cd 0.60872 0.23322 0.85482 0.0
O423 O 0.5818 0.20823 0.83714 0.0
Cd424 Cd 0.61003 0.19889 0.83621 0.0
C425 C 0.61211 0.20002 0.88254 0.0
O426 O 0.622 0.22416 0.82757 0.0
O427 O 0.63867 0.20598 0.83642 0.0
O428 O 0.60219 0.18835 0.80641 0.0
C429 C 0.63651 0.21979 0.82993 0.0
O430 O 0.61332 0.215 0.88064 0.0
C431 C 0.60923 0.17506 0.8083 0.0
O432 O 0.60951 0.19105 0.86867 0.0
O433 O 0.61644 0.17256 0.82357 0.0
C434 C 0.79883 0.61616 0.81527 0.0
O435 O 0.80336 0.62398 0.82937 0.0
Cd436 Cd 0.78856 0.62334 0.85785 0.0
O437 O 0.78665 0.60701 0.81617 0.0
Cd438 Cd 0.76676 0.5968 0.83845 0.0
C439 C 0.75009 0.63301 0.84219 0.0
O440 O 0.78444 0.59615 0.86584 0.0
O441 O 0.75903 0.59215 0.87028 0.0
O442 O 0.7736 0.57234 0.82318 0.0
C443 C 0.77316 0.59292 0.87702 0.0
O444 O 0.7628 0.63639 0.85138 0.0
C445 C 0.75934 0.56699 0.82196 0.0
O446 O 0.74844 0.61943 0.83466 0.0
O447 O 0.74808 0.57569 0.82826 0.0
C448 C 0.24421 0.16398 0.3429 0.0
C449 C 0.24124 0.14835 0.33701 0.0
C450 C 0.23263 0.1758 0.34033 0.0
C451 C 0.18917 0.18194 0.33488 0.0
H452 H 0.20234 0.22447 0.32125 0.0
C453 C 0.14416 0.23467 0.33104 0.0
C454 C 0.14951 0.24869 0.33966 0.0
C455 C 0.15488 0.2221 0.32796 0.0
C456 C 0.19848 0.21267 0.32513 0.0
H457 H 0.22377 0.13295 0.32361 0.0
H458 H 0.20342 0.15373 0.31919 0.0
H459 H 0.222 0.20292 0.32063 0.0
H460 H 0.17038 0.26056 0.35152 0.0
H461 H 0.18894 0.2387 0.34626 0.0
H462 H 0.16574 0.19181 0.33986 0.0
C463 C 0.21476 0.15673 0.32584 0.0
C464 C 0.20973 0.20033 0.32476 0.0
C465 C 0.22643 0.14487 0.32831 0.0
C466 C 0.16583 0.24995 0.34484 0.0
C467 C 0.17652 0.23744 0.3417 0.0
C468 C 0.1779 0.19431 0.33527 0.0
C469 C 0.21775 0.17232 0.33187 0.0
C470 C 0.2053 0.18492 0.33006 0.0
C471 C 0.17117 0.22335 0.33331 0.0
C472 C 0.18254 0.20988 0.33083 0.0
H473 H 0.25547 0.16711 0.34965 0.0
H474 H 0.23521 0.18764 0.34539 0.0
H475 H 0.18544 0.17021 0.33917 0.0
H476 H 0.13166 0.23331 0.32686 0.0
H477 H 0.15043 0.21142 0.32134 0.0
C478 C 0.72093 0.16697 0.34361 0.0
C479 C 0.72283 0.15103 0.33828 0.0
C480 C 0.73281 0.17814 0.33956 0.0
C481 C 0.7761 0.18115 0.33025 0.0
H482 H 0.76536 0.22394 0.31476 0.0
C483 C 0.82563 0.22722 0.31661 0.0
C484 C 0.82307 0.24231 0.32432 0.0
C485 C 0.81304 0.21626 0.31559 0.0
C486 C 0.76854 0.21206 0.31918 0.0
H487 H 0.73859 0.13443 0.32414 0.0
H488 H 0.75931 0.15398 0.31707 0.0
H489 H 0.74393 0.20432 0.31821 0.0
H490 H 0.80517 0.25798 0.33635 0.0
H491 H 0.78327 0.23877 0.33487 0.0
H492 H 0.80061 0.1889 0.3317 0.0
C493 C 0.74867 0.15776 0.32453 0.0
C494 C 0.75627 0.20084 0.32114 0.0
C495 C 0.73677 0.14658 0.32853 0.0
C496 C 0.80753 0.24643 0.33035 0.0
C497 C 0.79494 0.23545 0.32939 0.0
C498 C 0.78834 0.19236 0.32834 0.0
C499 C 0.74688 0.17363 0.33013 0.0
C500 C 0.75992 0.18531 0.32688 0.0
C501 C 0.79763 0.22014 0.32231 0.0
C502 C 0.78469 0.208 0.32297 0.0
H503 H 0.71034 0.17081 0.35112 0.0
H504 H 0.73117 0.19025 0.34425 0.0
H505 H 0.77926 0.16934 0.33496 0.0
H506 H 0.83746 0.22375 0.3117 0.0
H507 H 0.81543 0.20466 0.30975 0.0
C508 C 0.82985 0.74178 0.3284 0.0
C509 C 0.82386 0.72747 0.33563 0.0
C510 C 0.81942 0.7545 0.32479 0.0
C511 C 0.77621 0.76432 0.31782 0.0
H512 H 0.78777 0.80564 0.33742 0.0
C513 C 0.72903 0.81032 0.33842 0.0
C514 C 0.73171 0.82645 0.33465 0.0
C515 C 0.74094 0.79906 0.33487 0.0
C516 C 0.78449 0.79426 0.33154 0.0
H517 H 0.80215 0.71523 0.34433 0.0
H518 H 0.78409 0.73733 0.33813 0.0
H519 H 0.80765 0.78417 0.33778 0.0
H520 H 0.74901 0.84339 0.32399 0.0
H521 H 0.77004 0.82355 0.31795 0.0
H522 H 0.7529 0.77421 0.31219 0.0
C523 C 0.7968 0.73871 0.33508 0.0
C524 C 0.79586 0.78197 0.33175 0.0
C525 C 0.8072 0.72606 0.33879 0.0
C526 C 0.74657 0.83104 0.32703 0.0
C527 C 0.75862 0.81973 0.32364 0.0
C528 C 0.76487 0.77657 0.31763 0.0
C529 C 0.80278 0.7531 0.32817 0.0
C530 C 0.79166 0.76674 0.32541 0.0
C531 C 0.7559 0.80362 0.32757 0.0
C532 C 0.76872 0.79152 0.32502 0.0
H533 H 0.84262 0.74324 0.3258 0.0
H534 H 0.82436 0.76543 0.31937 0.0
H535 H 0.77273 0.7528 0.31248 0.0
H536 H 0.71772 0.80634 0.34424 0.0
H537 H 0.73857 0.78678 0.33833 0.0
C538 C 0.16613 0.72929 0.33002 0.0
C539 C 0.15064 0.73316 0.32342 0.0
C540 C 0.17868 0.74029 0.32897 0.0
C541 C 0.18524 0.7833 0.32653 0.0
H542 H 0.2297 0.7711 0.31765 0.0
C543 C 0.23702 0.82895 0.32729 0.0
C544 C 0.25082 0.82452 0.33747 0.0
C545 C 0.2251 0.81779 0.3231 0.0
C546 C 0.21734 0.77466 0.32022 0.0
H547 H 0.13631 0.7513 0.30976 0.0
H548 H 0.15828 0.77043 0.3077 0.0
H549 H 0.20827 0.75142 0.31432 0.0
H550 H 0.26305 0.8048 0.35087 0.0
H551 H 0.2422 0.78542 0.34368 0.0
H552 H 0.19431 0.80645 0.33273 0.0
C553 C 0.16065 0.759 0.31401 0.0
C554 C 0.20508 0.7634 0.31833 0.0
C555 C 0.14809 0.74802 0.3151 0.0
C556 C 0.25257 0.80863 0.34303 0.0
C557 C 0.24068 0.79748 0.33879 0.0
C558 C 0.19749 0.79456 0.32838 0.0
C559 C 0.176 0.75537 0.32123 0.0
C560 C 0.18892 0.76755 0.32171 0.0
C561 C 0.22674 0.80196 0.32893 0.0
C562 C 0.21368 0.7903 0.32551 0.0
H563 H 0.16847 0.71793 0.33649 0.0
H564 H 0.19031 0.73718 0.33485 0.0
H565 H 0.17295 0.78684 0.32954 0.0
H566 H 0.23532 0.84107 0.32273 0.0
H567 H 0.21456 0.82155 0.31531 0.0
C568 C 0.16594 0.72596 0.62247 0.0
C569 C 0.14919 0.72691 0.62526 0.0
C570 C 0.17587 0.73886 0.6265 0.0
C571 C 0.17551 0.78206 0.62966 0.0
H572 H 0.21833 0.77538 0.65021 0.0
C573 C 0.22374 0.83205 0.6344 0.0
C574 C 0.23882 0.82757 0.62721 0.0
C575 C 0.21185 0.8206 0.63774 0.0
C576 C 0.2064 0.77744 0.64449 0.0
H577 H 0.12975 0.74211 0.63476 0.0
H578 H 0.14722 0.76479 0.6417 0.0
H579 H 0.19901 0.7536 0.64985 0.0
H580 H 0.25335 0.80753 0.61831 0.0
H581 H 0.23278 0.78775 0.62412 0.0
H582 H 0.18315 0.80579 0.62374 0.0
C583 C 0.15259 0.75401 0.63636 0.0
C584 C 0.19534 0.76498 0.64427 0.0
C585 C 0.14262 0.741 0.63246 0.0
C586 C 0.24187 0.81143 0.6238 0.0
C587 C 0.23011 0.80004 0.62729 0.0
C588 C 0.1866 0.79457 0.62989 0.0
C589 C 0.16931 0.75307 0.63334 0.0
C590 C 0.17997 0.76699 0.6363 0.0
C591 C 0.21494 0.80448 0.63419 0.0
C592 C 0.20233 0.79221 0.63675 0.0
H593 H 0.17142 0.71529 0.61697 0.0
H594 H 0.18867 0.73784 0.62373 0.0
H595 H 0.16378 0.78394 0.62334 0.0
H596 H 0.22102 0.84439 0.63716 0.0
H597 H 0.20027 0.82434 0.6431 0.0
C598 C 0.23869 0.14596 0.62779 0.0
C599 C 0.25306 0.14948 0.61842 0.0
C600 C 0.22709 0.15775 0.63074 0.0
C601 C 0.21367 0.19633 0.6122 0.0
H602 H 0.18888 0.19856 0.65744 0.0
C603 C 0.16784 0.24637 0.62501 0.0
C604 C 0.15265 0.24159 0.63151 0.0
C605 C 0.18081 0.23577 0.62501 0.0
C606 C 0.19566 0.19802 0.6447 0.0
H607 H 0.26674 0.16827 0.60531 0.0
H608 H 0.24666 0.18882 0.61071 0.0
H609 H 0.21032 0.17878 0.65446 0.0
H610 H 0.13929 0.22216 0.6437 0.0
H611 H 0.16195 0.20363 0.64361 0.0
H612 H 0.19898 0.21546 0.60238 0.0
C613 C 0.24419 0.17689 0.61545 0.0
C614 C 0.20791 0.18668 0.64297 0.0
C615 C 0.25574 0.16511 0.61243 0.0
C616 C 0.15084 0.22618 0.63857 0.0
C617 C 0.16384 0.2156 0.63862 0.0
C618 C 0.20148 0.20767 0.61395 0.0
C619 C 0.22965 0.17332 0.62444 0.0
C620 C 0.21699 0.18566 0.62665 0.0
C621 C 0.17889 0.22021 0.63156 0.0
C622 C 0.19229 0.20859 0.63017 0.0
H623 H 0.23624 0.13404 0.63256 0.0
H624 H 0.21594 0.15456 0.63753 0.0
H625 H 0.22021 0.19568 0.5993 0.0
H626 H 0.16964 0.2582 0.61958 0.0
H627 H 0.19234 0.23973 0.61972 0.0
C628 C 0.72772 0.16227 0.61738 0.0
C629 C 0.7307 0.14663 0.62321 0.0
C630 C 0.73927 0.17408 0.62005 0.0
C631 C 0.78272 0.18006 0.62572 0.0
H632 H 0.76968 0.2225 0.64014 0.0
C633 C 0.82823 0.232 0.63095 0.0
C634 C 0.82308 0.24633 0.62287 0.0
C635 C 0.81731 0.21958 0.63371 0.0
C636 C 0.7735 0.21073 0.63601 0.0
H637 H 0.74817 0.13118 0.63661 0.0
H638 H 0.76845 0.15191 0.6412 0.0
H639 H 0.7499 0.20112 0.64008 0.0
H640 H 0.80233 0.2589 0.61167 0.0
H641 H 0.78344 0.23729 0.61628 0.0
H642 H 0.80623 0.18978 0.62114 0.0
C643 C 0.75713 0.15495 0.63451 0.0
C644 C 0.76218 0.19849 0.63601 0.0
C645 C 0.74549 0.14311 0.63195 0.0
C646 C 0.80673 0.24806 0.61795 0.0
C647 C 0.79585 0.23568 0.62072 0.0
C648 C 0.79406 0.19234 0.62567 0.0
C649 C 0.75414 0.17055 0.62854 0.0
C650 C 0.76658 0.18309 0.63049 0.0
C651 C 0.80102 0.22126 0.62851 0.0
C652 C 0.78948 0.20789 0.63044 0.0
H653 H 0.71646 0.16543 0.61061 0.0
H654 H 0.73669 0.18594 0.61506 0.0
H655 H 0.78643 0.16835 0.62124 0.0
H656 H 0.84073 0.23028 0.63495 0.0
H657 H 0.82164 0.20867 0.6399 0.0
C658 C 0.8251 0.74844 0.64103 0.0
C659 C 0.82286 0.73374 0.63223 0.0
C660 C 0.81254 0.75949 0.64172 0.0
C661 C 0.76831 0.76412 0.6356 0.0
H662 H 0.77951 0.80765 0.62406 0.0
C663 C 0.72127 0.81105 0.61349 0.0
C664 C 0.7231 0.82656 0.62033 0.0
C665 C 0.73309 0.79956 0.61687 0.0
C666 C 0.7762 0.7956 0.62758 0.0
H667 H 0.80558 0.71889 0.61773 0.0
H668 H 0.78373 0.73827 0.61867 0.0
H669 H 0.80074 0.78777 0.62671 0.0
H670 H 0.73866 0.84207 0.63643 0.0
H671 H 0.75925 0.82198 0.64236 0.0
H672 H 0.74371 0.77196 0.63608 0.0
C673 C 0.79512 0.7412 0.62524 0.0
C674 C 0.78838 0.7842 0.62912 0.0
C675 C 0.80767 0.73012 0.6246 0.0
C676 C 0.7369 0.83026 0.63088 0.0
C677 C 0.74873 0.81877 0.63422 0.0
C678 C 0.75612 0.77553 0.63402 0.0
C679 C 0.79749 0.75609 0.63358 0.0
C680 C 0.78457 0.76831 0.633 0.0
C681 C 0.74701 0.80334 0.62714 0.0
C682 C 0.75994 0.79136 0.62983 0.0
H683 H 0.83664 0.75152 0.64716 0.0
H684 H 0.81467 0.77075 0.64851 0.0
H685 H 0.76501 0.75202 0.63887 0.0
H686 H 0.71079 0.80778 0.60532 0.0
H687 H 0.7315 0.78782 0.61105 0.0
C688 C 0.64075 0.73274 0.8325 0.0
C689 C 0.64603 0.74651 0.84174 0.0
C690 C 0.6507 0.7193 0.83159 0.0
C691 C 0.68443 0.70056 0.85648 0.0
H692 H 0.69263 0.67754 0.81105 0.0
C693 C 0.73897 0.65984 0.84945 0.0
C694 C 0.73705 0.64502 0.84079 0.0
C695 C 0.72663 0.67106 0.84899 0.0
C696 C 0.69026 0.68371 0.82389 0.0
H697 H 0.66611 0.75704 0.85677 0.0
H698 H 0.68329 0.73375 0.85514 0.0
H699 H 0.67309 0.69945 0.81113 0.0
H700 H 0.72067 0.63055 0.82447 0.0
H701 H 0.69895 0.65034 0.82368 0.0
H702 H 0.70163 0.68511 0.86925 0.0
C703 C 0.67142 0.73325 0.84881 0.0
C704 C 0.6791 0.69623 0.82392 0.0
C705 C 0.66158 0.74665 0.84964 0.0
C706 C 0.72253 0.64184 0.83131 0.0
C707 C 0.71012 0.65316 0.8308 0.0
C708 C 0.69549 0.6881 0.85645 0.0
C709 C 0.66602 0.71936 0.84003 0.0
C710 C 0.67642 0.70503 0.84014 0.0
C711 C 0.71199 0.66781 0.83986 0.0
C712 C 0.69886 0.6798 0.84007 0.0
H713 H 0.62885 0.73225 0.82625 0.0
H714 H 0.64624 0.70874 0.82473 0.0
H715 H 0.68231 0.70689 0.86928 0.0
H716 H 0.75001 0.66278 0.85678 0.0
H717 H 0.72858 0.68237 0.85577 0.0
C718 C 0.23496 0.64574 0.83369 0.0
C719 C 0.22063 0.64983 0.84288 0.0
C720 C 0.24688 0.65715 0.83056 0.0
C721 C 0.26092 0.69594 0.84805 0.0
H722 H 0.2851 0.69744 0.80234 0.0
C723 C 0.30398 0.74722 0.83254 0.0
C724 C 0.31942 0.74303 0.82624 0.0
C725 C 0.29163 0.73601 0.83298 0.0
C726 C 0.2785 0.69708 0.81521 0.0
H727 H 0.20741 0.66924 0.85554 0.0
H728 H 0.228 0.68909 0.84983 0.0
H729 H 0.26407 0.6774 0.8063 0.0
H730 H 0.33384 0.72399 0.81466 0.0
H731 H 0.31219 0.70434 0.81548 0.0
H732 H 0.27527 0.71558 0.85697 0.0
C733 C 0.23022 0.67701 0.84538 0.0
C734 C 0.2665 0.6856 0.81751 0.0
C735 C 0.21836 0.66562 0.84858 0.0
C736 C 0.32207 0.72756 0.81963 0.0
C737 C 0.30966 0.71633 0.82003 0.0
C738 C 0.27283 0.70742 0.84573 0.0
C739 C 0.24469 0.67289 0.83652 0.0
C740 C 0.25754 0.68494 0.83395 0.0
C741 C 0.29442 0.72036 0.82709 0.0
C742 C 0.28171 0.70816 0.82927 0.0
H743 H 0.23709 0.63367 0.82914 0.0
H744 H 0.25796 0.65355 0.82386 0.0
H745 H 0.25451 0.69555 0.86105 0.0
H746 H 0.30152 0.75908 0.83759 0.0
H747 H 0.27992 0.73953 0.83819 0.0
C748 C 0.30477 0.2266 0.83985 0.0
C749 C 0.32139 0.22799 0.8364 0.0
C750 C 0.29437 0.23936 0.8367 0.0
C751 C 0.29369 0.28279 0.83392 0.0
H752 H 0.25021 0.27551 0.81564 0.0
C753 C 0.24554 0.33284 0.82828 0.0
C754 C 0.23049 0.32891 0.83594 0.0
C755 C 0.25727 0.3211 0.82544 0.0
C756 C 0.26231 0.27773 0.82077 0.0
H757 H 0.34007 0.24388 0.8266 0.0
H758 H 0.32179 0.26622 0.82104 0.0
H759 H 0.26974 0.25384 0.81555 0.0
H760 H 0.21589 0.30951 0.84628 0.0
H761 H 0.23623 0.28919 0.8413 0.0
H762 H 0.28608 0.30663 0.8395 0.0
C763 C 0.31688 0.25523 0.82632 0.0
C764 C 0.27349 0.26532 0.82075 0.0
C765 C 0.32733 0.24241 0.82942 0.0
C766 C 0.22734 0.31299 0.84038 0.0
C767 C 0.23897 0.30129 0.83739 0.0
C768 C 0.28249 0.29524 0.8339 0.0
C769 C 0.3003 0.25386 0.83003 0.0
C770 C 0.28917 0.26758 0.82779 0.0
C771 C 0.25408 0.30521 0.83 0.0
C772 C 0.26656 0.29271 0.82778 0.0
H773 H 0.29975 0.2157 0.84524 0.0
H774 H 0.28171 0.23796 0.84 0.0
H775 H 0.30563 0.28489 0.83957 0.0
H776 H 0.24835 0.345 0.82472 0.0
H777 H 0.2688 0.32445 0.81964 0.0
C778 C 0.64729 0.24628 0.8207 0.0
C779 C 0.65004 0.23102 0.82783 0.0
C780 C 0.65981 0.25733 0.82002 0.0
C781 C 0.70437 0.26154 0.82327 0.0
H782 H 0.6938 0.30419 0.83938 0.0
C783 C 0.75231 0.30727 0.84627 0.0
C784 C 0.75011 0.32308 0.84061 0.0
C785 C 0.7404 0.29592 0.84277 0.0
C786 C 0.69691 0.2924 0.8346 0.0
H787 H 0.66816 0.21517 0.83929 0.0
H788 H 0.68993 0.23453 0.83844 0.0
H789 H 0.67248 0.28451 0.83647 0.0
H790 H 0.73379 0.3393 0.82652 0.0
H791 H 0.71304 0.31947 0.82045 0.0
H792 H 0.72891 0.26942 0.82187 0.0
C793 C 0.67818 0.23793 0.83313 0.0
C794 C 0.68468 0.28112 0.83289 0.0
C795 C 0.66567 0.22685 0.83372 0.0
C796 C 0.73585 0.32724 0.83114 0.0
C797 C 0.72393 0.31591 0.82772 0.0
C798 C 0.71662 0.27282 0.82506 0.0
C799 C 0.67533 0.25337 0.82653 0.0
C800 C 0.68828 0.26552 0.82733 0.0
C801 C 0.72603 0.30016 0.83362 0.0
C802 C 0.71302 0.28834 0.83087 0.0
H803 H 0.6354 0.2498 0.81591 0.0
H804 H 0.65729 0.26904 0.81454 0.0
H805 H 0.7075 0.24969 0.8187 0.0
H806 H 0.76315 0.30365 0.85357 0.0
H807 H 0.74228 0.28391 0.84765 0.0
C808 C 0.64348 0.24052 0.12558 0.0
C809 C 0.6488 0.22606 0.118 0.0
C810 C 0.65435 0.25294 0.12868 0.0
C811 C 0.69804 0.26137 0.13369 0.0
H812 H 0.68626 0.30386 0.11805 0.0
C813 C 0.74513 0.30906 0.11775 0.0
C814 C 0.74214 0.32483 0.1231 0.0
C815 C 0.73333 0.29744 0.11991 0.0
C816 C 0.68964 0.29212 0.12278 0.0
H817 H 0.66977 0.21332 0.10787 0.0
H818 H 0.6886 0.23495 0.1131 0.0
H819 H 0.66624 0.28265 0.11661 0.0
H820 H 0.72444 0.34068 0.1352 0.0
H821 H 0.70372 0.32026 0.1389 0.0
H822 H 0.72155 0.27073 0.1394 0.0
C823 C 0.67608 0.23664 0.11689 0.0
C824 C 0.67818 0.27997 0.12196 0.0
C825 C 0.66524 0.22427 0.11376 0.0
C826 C 0.72712 0.32865 0.13093 0.0
C827 C 0.71523 0.31699 0.13297 0.0
C828 C 0.70949 0.27349 0.13448 0.0
C829 C 0.67078 0.25113 0.12434 0.0
C830 C 0.68237 0.26438 0.12701 0.0
C831 C 0.71822 0.30127 0.12741 0.0
C832 C 0.70552 0.28892 0.12865 0.0
H833 H 0.6309 0.24229 0.12905 0.0
H834 H 0.64992 0.26392 0.13458 0.0
H835 H 0.70155 0.24957 0.13807 0.0
H836 H 0.75656 0.30567 0.1117 0.0
H837 H 0.73593 0.28549 0.11525 0.0
C838 C 0.73618 0.64432 0.12669 0.0
C839 C 0.75073 0.6484 0.11799 0.0
C840 C 0.72427 0.6558 0.12975 0.0
C841 C 0.71085 0.69495 0.1127 0.0
H842 H 0.68537 0.69579 0.15751 0.0
C843 C 0.66698 0.74593 0.12774 0.0
C844 C 0.65141 0.74158 0.13341 0.0
C845 C 0.67943 0.73477 0.12746 0.0
C846 C 0.69234 0.69562 0.14488 0.0
H847 H 0.76436 0.66787 0.1062 0.0
H848 H 0.74379 0.68785 0.11182 0.0
H849 H 0.70655 0.67579 0.15387 0.0
H850 H 0.63684 0.72229 0.14399 0.0
H851 H 0.65866 0.70274 0.14347 0.0
H852 H 0.6967 0.71474 0.10369 0.0
C853 C 0.7414 0.67572 0.11591 0.0
C854 C 0.70443 0.68416 0.14278 0.0
C855 C 0.75324 0.66426 0.11277 0.0
C856 C 0.64871 0.72599 0.13952 0.0
C857 C 0.66121 0.71481 0.13929 0.0
C858 C 0.69884 0.70641 0.11484 0.0
C859 C 0.7267 0.67161 0.12424 0.0
C860 C 0.71384 0.68372 0.12666 0.0
C861 C 0.67661 0.71902 0.13289 0.0
C862 C 0.68948 0.7069 0.13095 0.0
H863 H 0.73385 0.6322 0.13086 0.0
H864 H 0.71302 0.6522 0.13603 0.0
H865 H 0.71761 0.69474 0.09994 0.0
H866 H 0.66948 0.75788 0.12308 0.0
H867 H 0.69125 0.73842 0.12276 0.0
C868 C 0.22884 0.66292 0.1192 0.0
C869 C 0.23184 0.64702 0.12397 0.0
C870 C 0.24055 0.67451 0.12219 0.0
C871 C 0.28411 0.68018 0.12686 0.0
H872 H 0.27131 0.72196 0.14394 0.0
C873 C 0.32914 0.73265 0.13216 0.0
C874 C 0.32348 0.74692 0.12439 0.0
C875 C 0.31855 0.72 0.13517 0.0
C876 C 0.27507 0.71036 0.13912 0.0
H877 H 0.24954 0.63086 0.13575 0.0
H878 H 0.27011 0.65124 0.14089 0.0
H879 H 0.25166 0.70046 0.14362 0.0
H880 H 0.30218 0.75918 0.11409 0.0
H881 H 0.28386 0.7372 0.11923 0.0
H882 H 0.30742 0.69023 0.12186 0.0
C883 C 0.25864 0.65464 0.1348 0.0
C884 C 0.26383 0.69806 0.13894 0.0
C885 C 0.24685 0.643 0.13191 0.0
C886 C 0.30697 0.74837 0.12009 0.0
C887 C 0.29642 0.7358 0.12317 0.0
C888 C 0.29539 0.69252 0.12702 0.0
C889 C 0.25559 0.67052 0.12997 0.0
C890 C 0.2681 0.68294 0.13236 0.0
C891 C 0.30209 0.72142 0.1306 0.0
C892 C 0.29085 0.70784 0.1327 0.0
H893 H 0.21743 0.66645 0.11306 0.0
H894 H 0.23792 0.68659 0.11804 0.0
H895 H 0.28773 0.66868 0.12161 0.0
H896 H 0.34178 0.73115 0.13564 0.0
H897 H 0.32324 0.70909 0.14103 0.0
C898 C 0.21817 0.30638 0.11639 0.0
C899 C 0.22125 0.32224 0.12124 0.0
C900 C 0.22967 0.29461 0.11978 0.0
C901 C 0.2669 0.28567 0.14647 0.0
H902 H 0.27386 0.25497 0.10736 0.0
C903 C 0.32344 0.24548 0.14162 0.0
C904 C 0.32122 0.22985 0.13535 0.0
C905 C 0.31048 0.25611 0.14191 0.0
C906 C 0.2719 0.2633 0.11854 0.0
H907 H 0.23876 0.33813 0.13377 0.0
H908 H 0.25899 0.31761 0.13936 0.0
H909 H 0.25275 0.27485 0.10392 0.0
H910 H 0.30356 0.21287 0.12529 0.0
H911 H 0.28096 0.23144 0.12589 0.0
H912 H 0.28637 0.27423 0.16088 0.0
C913 C 0.24755 0.31424 0.13319 0.0
C914 C 0.2598 0.2747 0.11657 0.0
C915 C 0.236 0.32602 0.12988 0.0
C916 C 0.30568 0.22489 0.13007 0.0
C917 C 0.29274 0.23552 0.13032 0.0
C918 C 0.27907 0.27427 0.14841 0.0
C919 C 0.24458 0.29843 0.128 0.0
C920 C 0.25718 0.28605 0.13048 0.0
C921 C 0.29508 0.25133 0.13591 0.0
C922 C 0.28173 0.263 0.13442 0.0
H923 H 0.20687 0.30302 0.10987 0.0
H924 H 0.22688 0.2825 0.11592 0.0
H925 H 0.26504 0.29412 0.15754 0.0
H926 H 0.33526 0.24964 0.14581 0.0
H927 H 0.31267 0.26826 0.14617 0.0
C928 C 0.92511 0.26471 0.32909 0.0
C929 C 0.91738 0.25059 0.33432 0.0
C930 C 0.94174 0.26499 0.32618 0.0
C931 C 0.97905 0.24389 0.33875 0.0
H932 H -0.00252 0.2703 0.30042 0.0
C933 C 0.04788 0.25071 0.33045 0.0
C934 C 0.05309 0.26654 0.32952 0.0
C935 C 0.03155 0.247 0.32815 0.0
C936 C -0.0075 0.26287 0.31117 0.0
H937 H 0.92107 0.22561 0.34028 0.0
H938 H 0.95014 0.2261 0.33504 0.0
H939 H 0.96826 0.26697 0.30197 0.0
H940 H 0.04544 0.29081 0.32458 0.0
H941 H 0.01701 0.28435 0.32057 0.0
H942 H 0.00328 0.24007 0.34816 0.0
C943 C 0.94332 0.23699 0.33341 0.0
C944 C 0.97578 0.26099 0.3121 0.0
C945 C 0.92666 0.23671 0.33636 0.0
C946 C 0.04179 0.2785 0.32543 0.0
C947 C 0.02551 0.27478 0.32301 0.0
C948 C -0.00422 0.24573 0.33777 0.0
C949 C 0.95106 0.25116 0.32837 0.0
C950 C 0.96885 0.25178 0.32616 0.0
C951 C 0.02017 0.25905 0.3247 0.0
C952 C 0.00265 0.25551 0.32422 0.0
H953 H 0.91836 0.27564 0.32742 0.0
H954 H 0.94736 0.27617 0.32262 0.0
H955 H 0.9741 0.23686 0.34987 0.0
H956 H 0.05633 0.24124 0.33355 0.0
H957 H 0.02777 0.23475 0.32935 0.0
C958 C 0.7201 0.04817 0.32774 0.0
C959 C 0.70521 0.0557 0.32443 0.0
C960 C 0.72202 0.03201 0.32381 0.0
C961 C 0.69675 -0.00355 0.32016 0.0
H962 H 0.73576 0.97562 0.30325 0.0
C963 C 0.69726 0.92973 0.31057 0.0
C964 C 0.71007 0.92163 0.31916 0.0
C965 C 0.69819 0.94601 0.30752 0.0
C966 C 0.72482 0.98131 0.30802 0.0
H967 H 0.68116 0.05267 0.313 0.0
H968 H 0.68464 0.02473 0.30568 0.0
H969 H 0.73459 0.0047 0.30456 0.0
H970 H 0.73437 0.92394 0.33011 0.0
H971 H 0.73587 0.95263 0.32511 0.0
H972 H 0.68701 0.97332 0.32399 0.0
C973 C 0.69466 0.03108 0.31187 0.0
C974 C 0.72415 -0.00208 0.30879 0.0
C975 C 0.69268 0.04711 0.316 0.0
C976 C 0.7243 0.92992 0.32349 0.0
C977 C 0.72518 0.94632 0.32057 0.0
C978 C 0.6974 0.97998 0.31935 0.0
C979 C 0.70912 0.02319 0.31636 0.0
C980 C 0.71005 0.00565 0.31484 0.0
C981 C 0.71187 0.9546 0.31319 0.0
C982 C 0.71139 0.97219 0.31324 0.0
H983 H 0.72996 0.05455 0.33422 0.0
H984 H 0.7333 0.02627 0.32749 0.0
H985 H 0.68587 0.00196 0.32541 0.0
H986 H 0.68623 0.92359 0.30682 0.0
H987 H 0.6879 0.952 0.30137 0.0
C988 C 0.04665 0.73771 0.33161 0.0
C989 C 0.05597 0.72379 0.33039 0.0
C990 C 0.02993 0.73718 0.32907 0.0
C991 C -0.00317 0.71184 0.31088 0.0
H992 H 0.97073 0.73477 0.34637 0.0
C993 C 0.93114 0.69551 0.32727 0.0
C994 C 0.92002 0.70777 0.33058 0.0
C995 C 0.94741 0.69892 0.32442 0.0
C996 C 0.97782 0.72852 0.33614 0.0
H997 H 0.05503 0.69844 0.32521 0.0
H998 H 0.02589 0.69747 0.32114 0.0
H999 H -7e-05 0.73806 0.34668 0.0
H1000 H 0.91712 0.73327 0.33295 0.0
H1001 H 0.94566 0.73923 0.32803 0.0
H1002 H 0.9747 0.70191 0.30078 0.0
C1003 C 0.03152 0.70885 0.32375 0.0
C1004 C -0.00543 0.73041 0.33631 0.0
C1005 C 0.04823 0.70939 0.32623 0.0
C1006 C 0.92542 0.72357 0.33048 0.0
C1007 C 0.94175 0.72697 0.32775 0.0
C1008 C 0.98009 0.70992 0.31077 0.0
C1009 C 0.02215 0.72271 0.32531 0.0
C1010 C 0.00429 0.72187 0.32391 0.0
C1011 C 0.95293 0.71466 0.32491 0.0
C1012 C 0.97045 0.71801 0.32362 0.0
H1013 H 0.05224 0.74903 0.33467 0.0
H1014 H 0.02307 0.74809 0.33012 0.0
H1015 H 0.00396 0.70533 0.30092 0.0
H1016 H 0.92735 0.68321 0.32722 0.0
H1017 H 0.95577 0.68916 0.32249 0.0
C1018 C 0.2516 0.92702 0.32751 0.0
C1019 C 0.26648 0.91967 0.32386 0.0
C1020 C 0.24914 0.94297 0.32289 0.0
C1021 C 0.27349 0.97884 0.31582 0.0
H1022 H 0.2329 -0.00166 0.30134 0.0
C1023 C 0.27087 0.04522 0.30526 0.0
C1024 C 0.25876 0.05304 0.31526 0.0
C1025 C 0.26988 0.02896 0.302 0.0
C1026 C 0.2443 -0.00699 0.30538 0.0
H1027 H 0.28989 0.92269 0.31113 0.0
H1028 H 0.28544 0.95021 0.3025 0.0
H1029 H 0.23487 0.96935 0.3036 0.0
H1030 H 0.23546 0.05032 0.32836 0.0
H1031 H 0.23389 0.02167 0.32301 0.0
H1032 H 0.28291 0.00226 0.31797 0.0
C1033 C 0.27587 0.94395 0.30955 0.0
C1034 C 0.24542 0.97645 0.30671 0.0
C1035 C 0.27841 0.92816 0.31442 0.0
C1036 C 0.24498 0.04455 0.32064 0.0
C1037 C 0.24407 0.02817 0.31753 0.0
C1038 C 0.2724 -0.00475 0.3144 0.0
C1039 C 0.26146 0.95174 0.31435 0.0
C1040 C 0.26006 0.9692 0.31198 0.0
C1041 C 0.25687 0.02013 0.30889 0.0
C1042 C 0.25782 0.00256 0.30919 0.0
H1043 H 0.24218 0.92069 0.33476 0.0
H1044 H 0.23792 0.94862 0.32686 0.0
H1045 H 0.28482 0.97374 0.32046 0.0
H1046 H 0.28151 0.05153 0.3007 0.0
H1047 H 0.27974 0.02315 0.29489 0.0
C1048 C 0.04839 0.72057 0.63111 0.0
C1049 C 0.05379 0.70481 0.62963 0.0
C1050 C 0.03206 0.72385 0.6341 0.0
C1051 C -0.0063 0.70606 0.64961 0.0
H1052 H 0.97399 0.7366 0.61635 0.0
C1053 C 0.92539 0.70766 0.63471 0.0
C1054 C 0.91792 0.72237 0.63135 0.0
C1055 C 0.94208 0.70669 0.63728 0.0
C1056 C 0.97931 0.72826 0.62601 0.0
H1057 H 0.04645 0.68013 0.63076 0.0
H1058 H 0.018 0.68587 0.63595 0.0
H1059 H 0.00313 0.7329 0.61614 0.0
H1060 H 0.92207 0.74769 0.62883 0.0
H1061 H 0.95117 0.74601 0.63361 0.0
H1062 H 0.96984 0.70124 0.65929 0.0
C1063 C 0.02637 0.69568 0.6349 0.0
C1064 C -0.00398 0.72613 0.62587 0.0
C1065 C 0.04265 0.6924 0.63179 0.0
C1066 C 0.92745 0.73615 0.63123 0.0
C1067 C 0.94415 0.73518 0.63389 0.0
C1068 C 0.97697 0.70824 0.64983 0.0
C1069 C 0.02086 0.71144 0.63582 0.0
C1070 C 0.00336 0.71481 0.63742 0.0
C1071 C 0.95169 0.72041 0.63665 0.0
C1072 C 0.96956 0.71916 0.63778 0.0
H1073 H 0.0567 0.73038 0.62956 0.0
H1074 H 0.02817 0.73611 0.63492 0.0
H1075 H -0.00094 0.69739 0.65885 0.0
H1076 H 0.91841 0.6968 0.63488 0.0
H1077 H 0.9475 0.69509 0.63913 0.0
C1078 C 0.26955 0.93273 0.64836 0.0
C1079 C 0.25683 0.92316 0.64197 0.0
C1080 C 0.26693 0.94869 0.65243 0.0
C1081 C 0.24129 0.98154 0.63823 0.0
H1082 H 0.26577 0.00385 0.67596 0.0
C1083 C 0.24786 0.04968 0.63741 0.0
C1084 C 0.2641 0.05447 0.63803 0.0
C1085 C 0.24358 0.03418 0.64227 0.0
C1086 C 0.25876 -0.00221 0.66544 0.0
H1087 H 0.23122 0.92258 0.63562 0.0
H1088 H 0.22665 0.95067 0.64266 0.0
H1089 H 0.26403 0.97496 0.67692 0.0
H1090 H 0.28846 0.04711 0.64515 0.0
H1091 H 0.28103 0.02021 0.65363 0.0
H1092 H 0.23665 0.00432 0.62627 0.0
C1093 C 0.23866 0.94577 0.64444 0.0
C1094 C 0.25777 0.98126 0.66597 0.0
C1095 C 0.24126 0.92971 0.64048 0.0
C1096 C 0.27585 0.04375 0.64445 0.0
C1097 C 0.27156 0.02837 0.64947 0.0
C1098 C 0.24225 -0.00191 0.63772 0.0
C1099 C 0.25155 0.95549 0.65014 0.0
C1100 C 0.24959 0.97293 0.65194 0.0
C1101 C 0.25545 0.0233 0.64806 0.0
C1102 C 0.25155 0.00632 0.65089 0.0
H1103 H 0.28167 0.92802 0.64972 0.0
H1104 H 0.27719 0.95587 0.65652 0.0
H1105 H 0.23499 0.97548 0.62713 0.0
H1106 H 0.23854 0.05771 0.63253 0.0
H1107 H 0.23105 0.03061 0.64113 0.0
C1108 C 0.05038 0.264 0.63694 0.0
C1109 C 0.05736 0.24992 0.63025 0.0
C1110 C 0.03372 0.26516 0.63923 0.0
C1111 C -0.00414 0.24222 0.64248 0.0
H1112 H 0.97693 0.28053 0.62206 0.0
C1113 C 0.92738 0.24992 0.62714 0.0
C1114 C 0.92072 0.26509 0.6298 0.0
C1115 C 0.94397 0.24741 0.6295 0.0
C1116 C 0.982 0.26987 0.62812 0.0
H1117 H 0.05234 0.22578 0.62149 0.0
H1118 H 0.02314 0.22791 0.62535 0.0
H1119 H 0.00605 0.27733 0.62227 0.0
H1120 H 0.92599 0.28927 0.63814 0.0
H1121 H 0.95474 0.28483 0.64265 0.0
H1122 H 0.97166 0.23474 0.64816 0.0
C1123 C 0.03063 0.23799 0.62893 0.0
C1124 C -0.00129 0.26804 0.62822 0.0
C1125 C 0.04734 0.23681 0.62663 0.0
C1126 C 0.9308 0.27749 0.63573 0.0
C1127 C 0.9473 0.27496 0.63823 0.0
C1128 C 0.97906 0.24409 0.64244 0.0
C1129 C 0.02363 0.2523 0.63487 0.0
C1130 C 0.00584 0.25421 0.63539 0.0
C1131 C 0.95416 0.26002 0.63467 0.0
C1132 C 0.97196 0.25796 0.63526 0.0
H1133 H 0.05775 0.27427 0.64006 0.0
H1134 H 0.02869 0.27625 0.64416 0.0
H1135 H 0.00104 0.23147 0.64819 0.0
H1136 H 0.91988 0.24014 0.62257 0.0
H1137 H 0.94889 0.23578 0.62655 0.0
C1138 C 0.73217 0.04562 0.64433 0.0
C1139 C 0.71639 0.05167 0.64556 0.0
C1140 C 0.73535 0.02973 0.64873 0.0
C1141 C 0.71735 -0.00627 0.67021 0.0
H1142 H 0.73844 0.97142 0.63014 0.0
C1143 C 0.69953 0.93159 0.64697 0.0
C1144 C 0.71127 0.92105 0.64027 0.0
C1145 C 0.70381 0.94687 0.65251 0.0
C1146 C 0.73287 0.97743 0.6417 0.0
H1147 H 0.69182 0.04622 0.65354 0.0
H1148 H 0.69729 0.01869 0.66109 0.0
H1149 H 0.7397 0.00024 0.63151 0.0
H1150 H 0.73682 0.91799 0.63485 0.0
H1151 H 0.74428 0.94491 0.64434 0.0
H1152 H 0.70971 0.97091 0.67975 0.0
C1153 C 0.70727 0.02611 0.65685 0.0
C1154 C 0.73361 -0.00602 0.64251 0.0
C1155 C 0.70409 0.04188 0.65234 0.0
C1156 C 0.7275 0.92588 0.63991 0.0
C1157 C 0.73177 0.94128 0.6453 0.0
C1158 C 0.71658 0.97719 0.66938 0.0
C1159 C 0.72282 0.01972 0.65461 0.0
C1160 C 0.72526 0.00233 0.65632 0.0
C1161 C 0.71991 0.952 0.65137 0.0
C1162 C 0.72376 0.96894 0.65467 0.0
H1163 H 0.74191 0.05292 0.63918 0.0
H1164 H 0.74748 0.02517 0.647 0.0
H1165 H 0.71107 -0.00018 0.68123 0.0
H1166 H 0.68694 0.92819 0.64749 0.0
H1167 H 0.69434 0.95491 0.65687 0.0
C1168 C 0.54043 0.78344 0.82325 0.0
C1169 C 0.55036 0.77064 0.82837 0.0
C1170 C 0.52393 0.78124 0.82041 0.0
C1171 C 0.492 0.75085 0.81394 0.0
H1172 H 0.4651 0.78294 0.83686 0.0
C1173 C 0.42435 0.74195 0.83097 0.0
C1174 C 0.41397 0.75502 0.82857 0.0
C1175 C 0.44097 0.74357 0.82832 0.0
C1176 C 0.47241 0.77399 0.83012 0.0
H1177 H 0.55094 0.74535 0.83377 0.0
H1178 H 0.52197 0.74153 0.8292 0.0
H1179 H 0.49421 0.78624 0.83674 0.0
H1180 H 0.41286 0.77986 0.8207 0.0
H1181 H 0.44178 0.78261 0.81601 0.0
H1182 H 0.47004 0.73844 0.80775 0.0
C1183 C 0.52699 0.75324 0.82713 0.0
C1184 C 0.48911 0.77589 0.83003 0.0
C1185 C 0.54357 0.75544 0.82984 0.0
C1186 C 0.42051 0.76958 0.82285 0.0
C1187 C 0.4371 0.77119 0.82022 0.0
C1188 C 0.47522 0.74893 0.81408 0.0
C1189 C 0.51694 0.7662 0.82279 0.0
C1190 C 0.49912 0.76433 0.82201 0.0
C1191 C 0.44754 0.75828 0.82325 0.0
C1192 C 0.46527 0.76047 0.82224 0.0
H1193 H 0.54536 0.79527 0.82178 0.0
H1194 H 0.51658 0.79139 0.81668 0.0
H1195 H 0.49937 0.74181 0.80749 0.0
H1196 H 0.4197 0.73056 0.83533 0.0
H1197 H 0.44873 0.73344 0.83091 0.0
C1198 C 0.20199 0.43419 0.8109 0.0
C1199 C 0.2145 0.42448 0.81759 0.0
C1200 C 0.20481 0.45011 0.80689 0.0
C1201 C 0.23045 0.48252 0.82216 0.0
H1202 H 0.20654 0.50555 0.78453 0.0
C1203 C 0.22399 0.55067 0.82446 0.0
C1204 C 0.20777 0.55557 0.82359 0.0
C1205 C 0.2283 0.53522 0.81936 0.0
C1206 C 0.21339 0.49928 0.79503 0.0
H1207 H 0.24001 0.42358 0.82441 0.0
H1208 H 0.24496 0.45159 0.81747 0.0
H1209 H 0.20822 0.47666 0.78293 0.0
H1210 H 0.18351 0.54847 0.81582 0.0
H1211 H 0.19099 0.52164 0.80695 0.0
H1212 H 0.23497 0.50508 0.83474 0.0
C1213 C 0.23294 0.44683 0.81542 0.0
C1214 C 0.21435 0.48276 0.79413 0.0
C1215 C 0.23012 0.43081 0.81932 0.0
C1216 C 0.19609 0.54501 0.81673 0.0
C1217 C 0.20041 0.52967 0.81148 0.0
C1218 C 0.22952 0.49906 0.82304 0.0
C1219 C 0.22021 0.45673 0.80955 0.0
C1220 C 0.22231 0.47416 0.80811 0.0
C1221 C 0.2165 0.52449 0.81308 0.0
C1222 C 0.22041 0.50754 0.80991 0.0
H1223 H 0.18983 0.42964 0.80934 0.0
H1224 H 0.19468 0.45742 0.80265 0.0
H1225 H 0.23657 0.47625 0.83323 0.0
H1226 H 0.23326 0.55858 0.82966 0.0
H1227 H 0.2408 0.53155 0.82066 0.0
C1228 C 0.42883 0.19423 0.83082 0.0
C1229 C 0.41852 0.20668 0.83599 0.0
C1230 C 0.44544 0.19663 0.8297 0.0
C1231 C 0.47736 0.22737 0.82781 0.0
H1232 H 0.50368 0.1935 0.84829 0.0
C1233 C 0.54601 0.23299 0.84388 0.0
C1234 C 0.55568 0.21987 0.83914 0.0
C1235 C 0.52919 0.23216 0.84228 0.0
C1236 C 0.49651 0.20299 0.84234 0.0
H1237 H 0.41742 0.23158 0.8434 0.0
H1238 H 0.4466 0.23573 0.84183 0.0
H1239 H 0.4745 0.19072 0.84753 0.0
H1240 H 0.55524 0.19578 0.82849 0.0
H1241 H 0.526 0.19438 0.82573 0.0
H1242 H 0.49957 0.2397 0.82295 0.0
C1243 C 0.44179 0.22415 0.83841 0.0
C1244 C 0.47978 0.20139 0.84186 0.0
C1245 C 0.4251 0.22177 0.83938 0.0
C1246 C 0.54818 0.20607 0.83238 0.0
C1247 C 0.53142 0.20523 0.83087 0.0
C1248 C 0.49417 0.229 0.82839 0.0
C1249 C 0.45217 0.21151 0.83392 0.0
C1250 C 0.46999 0.21349 0.83446 0.0
C1251 C 0.52173 0.21818 0.83602 0.0
C1252 C 0.50391 0.21675 0.83554 0.0
H1253 H 0.4241 0.18251 0.8279 0.0
H1254 H 0.45305 0.18674 0.82576 0.0
H1255 H 0.47017 0.23685 0.82191 0.0
H1256 H 0.55141 0.24381 0.84908 0.0
H1257 H 0.52201 0.24229 0.84645 0.0
C1258 C 0.7765 0.42601 0.81196 0.0
C1259 C 0.76485 0.41768 0.82205 0.0
C1260 C 0.77382 0.44173 0.80687 0.0
C1261 C 0.74334 0.47434 0.80511 0.0
H1262 H 0.78114 0.5001 0.81503 0.0
C1263 C 0.74294 0.54206 0.82068 0.0
C1264 C 0.75646 0.55079 0.81501 0.0
C1265 C 0.74208 0.52574 0.81714 0.0
C1266 C 0.77053 0.49311 0.81182 0.0
H1267 H 0.74089 0.41889 0.83383 0.0
H1268 H 0.73641 0.44668 0.82554 0.0
H1269 H 0.78319 0.47157 0.817 0.0
H1270 H 0.77879 0.54981 0.79955 0.0
H1271 H 0.7771 0.52154 0.793 0.0
H1272 H 0.7306 0.49625 0.80068 0.0
C1273 C 0.74749 0.44097 0.82123 0.0
C1274 C 0.77171 0.47668 0.81293 0.0
C1275 C 0.75008 0.42509 0.82607 0.0
C1276 C 0.76836 0.54329 0.80435 0.0
C1277 C 0.76742 0.5271 0.80066 0.0
C1278 C 0.74214 0.4909 0.80408 0.0
C1279 C 0.75957 0.44961 0.81208 0.0
C1280 C 0.75815 0.46706 0.80966 0.0
C1281 C 0.75468 0.51801 0.80776 0.0
C1282 C 0.75575 0.50044 0.80747 0.0
H1283 H 0.78789 0.42049 0.8084 0.0
H1284 H 0.78319 0.4479 0.79936 0.0
H1285 H 0.73269 0.46725 0.80242 0.0
H1286 H 0.73359 0.54758 0.8289 0.0
H1287 H 0.73213 0.51904 0.82281 0.0
C1288 C 0.42474 0.23713 0.12298 0.0
C1289 C 0.41582 0.2232 0.12595 0.0
C1290 C 0.44148 0.23723 0.12554 0.0
C1291 C 0.47509 0.21467 0.14719 0.0
H1292 H 0.50093 0.23417 0.10892 0.0
C1293 C 0.54095 0.19741 0.13315 0.0
C1294 C 0.55189 0.20924 0.12782 0.0
C1295 C 0.52468 0.20103 0.13575 0.0
C1296 C 0.49391 0.22893 0.11992 0.0
H1297 H 0.4175 0.19848 0.13419 0.0
H1298 H 0.44664 0.1986 0.13835 0.0
H1299 H 0.47166 0.23694 0.10801 0.0
H1300 H 0.5545 0.23429 0.12171 0.0
H1301 H 0.52597 0.24063 0.12624 0.0
H1302 H 0.49735 0.20624 0.15874 0.0
C1303 C 0.44069 0.20953 0.13433 0.0
C1304 C 0.47713 0.23051 0.11939 0.0
C1305 C 0.42398 0.20943 0.13179 0.0
C1306 C 0.54634 0.22491 0.12576 0.0
C1307 C 0.53001 0.22853 0.12827 0.0
C1308 C 0.49186 0.21307 0.14769 0.0
C1309 C 0.44965 0.22339 0.13112 0.0
C1310 C 0.46751 0.22312 0.1328 0.0
C1311 C 0.51898 0.21657 0.13301 0.0
C1312 C 0.50142 0.2199 0.13384 0.0
H1313 H 0.41883 0.24797 0.11857 0.0
H1314 H 0.44803 0.24813 0.12313 0.0
H1315 H 0.46802 0.2091 0.15792 0.0
H1316 H 0.54486 0.18522 0.13488 0.0
H1317 H 0.51646 0.19152 0.13918 0.0
C1318 C 0.77952 0.54524 0.14682 0.0
C1319 C 0.76745 0.55364 0.13728 0.0
C1320 C 0.77719 0.52942 0.15165 0.0
C1321 C 0.74716 0.49664 0.15406 0.0
H1322 H 0.7848 0.47118 0.14242 0.0
C1323 C 0.74688 0.4287 0.13932 0.0
C1324 C 0.76075 0.42014 0.14452 0.0
C1325 C 0.74601 0.44507 0.14254 0.0
C1326 C 0.77424 0.47808 0.1461 0.0
H1327 H 0.74312 0.55242 0.1262 0.0
H1328 H 0.73921 0.52448 0.13408 0.0
H1329 H 0.78642 0.49975 0.14045 0.0
H1330 H 0.78379 0.42153 0.15879 0.0
H1331 H 0.7821 0.44989 0.16479 0.0
H1332 H 0.73489 0.47462 0.15904 0.0
C1333 C 0.75038 0.53021 0.13814 0.0
C1334 C 0.77518 0.49452 0.14498 0.0
C1335 C 0.75264 0.54618 0.13354 0.0
C1336 C 0.77306 0.4279 0.15437 0.0
C1337 C 0.77213 0.44414 0.15774 0.0
C1338 C 0.74621 0.48005 0.15511 0.0
C1339 C 0.76285 0.52152 0.14673 0.0
C1340 C 0.76168 0.50404 0.14893 0.0
C1341 C 0.75895 0.45304 0.15111 0.0
C1342 C 0.75977 0.47062 0.15114 0.0
H1343 H 0.79097 0.55078 0.15016 0.0
H1344 H 0.78687 0.5232 0.15872 0.0
H1345 H 0.73656 0.50364 0.15725 0.0
H1346 H 0.7372 0.42299 0.13172 0.0
H1347 H 0.73571 0.45161 0.13725 0.0
C1348 C 0.42707 0.75316 0.13016 0.0
C1349 C 0.4203 0.76835 0.1322 0.0
C1350 C 0.44372 0.75091 0.13227 0.0
C1351 C 0.48141 0.77369 0.12868 0.0
H1352 H 0.5013 0.7359 0.14927 0.0
C1353 C 0.55015 0.76791 0.13493 0.0
C1354 C 0.55691 0.75359 0.12866 0.0
C1355 C 0.53354 0.76926 0.1376 0.0
C1356 C 0.49588 0.74648 0.1434 0.0
H1357 H 0.4254 0.79285 0.13925 0.0
H1358 H 0.45429 0.78886 0.14337 0.0
H1359 H 0.47194 0.73908 0.15045 0.0
H1360 H 0.55154 0.72928 0.12088 0.0
H1361 H 0.52245 0.73172 0.12541 0.0
H1362 H 0.50521 0.78104 0.12146 0.0
C1363 C 0.44688 0.77877 0.13961 0.0
C1364 C 0.47909 0.74829 0.14407 0.0
C1365 C 0.43031 0.78105 0.13734 0.0
C1366 C 0.54672 0.74049 0.12567 0.0
C1367 C 0.53007 0.74185 0.12837 0.0
C1368 C 0.49812 0.7719 0.12808 0.0
C1369 C 0.45385 0.76378 0.13658 0.0
C1370 C 0.47168 0.76192 0.13666 0.0
C1371 C 0.5233 0.75634 0.13407 0.0
C1372 C 0.50555 0.75827 0.13538 0.0
H1373 H 0.41962 0.74316 0.12619 0.0
H1374 H 0.44871 0.73923 0.12973 0.0
H1375 H 0.47609 0.78415 0.12244 0.0
H1376 H 0.55765 0.7782 0.13753 0.0
H1377 H 0.52869 0.78051 0.14228 0.0
C1378 C 0.22302 0.42536 0.13258 0.0
C1379 C 0.20842 0.41801 0.13735 0.0
C1380 C 0.22557 0.44139 0.13677 0.0
C1381 C 0.20107 0.47711 0.14431 0.0
H1382 H 0.24191 0.49748 0.15559 0.0
C1383 C 0.20305 0.54378 0.1529 0.0
C1384 C 0.21468 0.5516 0.14224 0.0
C1385 C 0.20437 0.52757 0.1563 0.0
C1386 C 0.23044 0.49191 0.15243 0.0
H1387 H 0.18572 0.42107 0.15167 0.0
H1388 H 0.19036 0.44874 0.15955 0.0
H1389 H 0.24036 0.46841 0.15443 0.0
H1390 H 0.23745 0.54893 0.12794 0.0
H1391 H 0.23957 0.52033 0.13352 0.0
H1392 H 0.19115 0.50035 0.14191 0.0
C1393 C 0.1996 0.44241 0.15198 0.0
C1394 C 0.22956 0.47531 0.15174 0.0
C1395 C 0.19697 0.42654 0.14754 0.0
C1396 C 0.2283 0.54315 0.13618 0.0
C1397 C 0.22954 0.52681 0.13943 0.0
C1398 C 0.20194 0.49357 0.14507 0.0
C1399 C 0.21361 0.45022 0.14597 0.0
C1400 C 0.21482 0.46774 0.14766 0.0
C1401 C 0.21722 0.51877 0.14889 0.0
C1402 C 0.2166 0.50119 0.14913 0.0
H1403 H 0.23206 0.419 0.12472 0.0
H1404 H 0.23647 0.44706 0.1319 0.0
H1405 H 0.18963 0.47175 0.14056 0.0
H1406 H 0.19256 0.55007 0.15801 0.0
H1407 H 0.1949 0.52177 0.16404 0.0
C1408 C 0.09555 0.27256 0.41549 0.0
C1409 C 0.0999 0.28571 0.40474 0.0
C1410 C 0.09436 0.27387 0.43461 0.0
C1411 C 0.10957 0.29623 0.47411 0.0
H1412 H 0.07581 0.27325 0.49957 0.0
C1413 C 0.1069 0.28839 0.55428 0.0
C1414 C 0.10502 0.27245 0.5596 0.0
C1415 C 0.10483 0.29287 0.53576 0.0
C1416 C 0.08527 0.27979 0.49265 0.0
H1417 H 0.10631 0.31064 0.40559 0.0
H1418 H 0.10433 0.31291 0.43931 0.0
H1419 H 0.07444 0.27623 0.46609 0.0
H1420 H 0.09941 0.24876 0.54965 0.0
H1421 H 0.09573 0.25657 0.51765 0.0
H1422 H 0.12063 0.29931 0.50077 0.0
C1423 C 0.10184 0.30159 0.4328 0.0
C1424 C 0.0845 0.28148 0.47351 0.0
C1425 C 0.10292 0.3003 0.41354 0.0
C1426 C 0.10097 0.26114 0.54608 0.0
C1427 C 0.09872 0.26562 0.52773 0.0
C1428 C 0.11031 0.29457 0.49335 0.0
C1429 C 0.09753 0.28836 0.44351 0.0
C1430 C 0.09694 0.28919 0.46397 0.0
C1431 C 0.10059 0.28151 0.52237 0.0
C1432 C 0.09846 0.28583 0.50268 0.0
H1433 H 0.09315 0.26115 0.40915 0.0
H1434 H 0.0913 0.26339 0.44249 0.0
H1435 H 0.11936 0.3022 0.46711 0.0
H1436 H 0.11005 0.29738 0.56438 0.0
H1437 H 0.10635 0.30519 0.53195 0.0
C1438 C 0.71112 0.09058 0.5511 0.0
C1439 C 0.69752 0.09248 0.56239 0.0
C1440 C 0.70957 0.09108 0.53191 0.0
C1441 C 0.68061 0.08737 0.49332 0.0
H1442 H 0.71255 0.11225 0.46725 0.0
C1443 C 0.67721 0.10074 0.41447 0.0
C1444 C 0.69189 0.09965 0.40491 0.0
C1445 C 0.67696 0.09975 0.43379 0.0
C1446 C 0.70362 0.10513 0.4743 0.0
H1447 H 0.67155 0.09588 0.56244 0.0
H1448 H 0.66886 0.09679 0.5288 0.0
H1449 H 0.7139 0.11034 0.50075 0.0
H1450 H 0.71776 0.09626 0.40802 0.0
H1451 H 0.71729 0.09438 0.44148 0.0
H1452 H 0.67041 0.08211 0.46672 0.0
C1453 C 0.6807 0.09486 0.53484 0.0
C1454 C 0.7044 0.10403 0.49349 0.0
C1455 C 0.68225 0.0944 0.55409 0.0
C1456 C 0.70625 0.09729 0.41497 0.0
C1457 C 0.706 0.0963 0.43417 0.0
C1458 C 0.67984 0.08846 0.47404 0.0
C1459 C 0.69439 0.09346 0.52357 0.0
C1460 C 0.69304 0.09498 0.50321 0.0
C1461 C 0.69141 0.09769 0.44383 0.0
C1462 C 0.69148 0.09718 0.46432 0.0
H1463 H 0.72303 0.08897 0.55707 0.0
H1464 H 0.7203 0.08967 0.52357 0.0
H1465 H 0.67173 0.08026 0.50045 0.0
H1466 H 0.66595 0.10255 0.40707 0.0
H1467 H 0.66554 0.10094 0.44087 0.0
C1468 C 0.87475 0.70355 0.41494 0.0
C1469 C 0.87072 0.69025 0.40416 0.0
C1470 C 0.87591 0.70235 0.43409 0.0
C1471 C 0.86157 0.67984 0.47372 0.0
H1472 H 0.89567 0.70297 0.4989 0.0
C1473 C 0.86625 0.68672 0.554 0.0
C1474 C 0.86839 0.70256 0.55969 0.0
C1475 C 0.86772 0.68257 0.53532 0.0
C1476 C 0.8861 0.69641 0.49207 0.0
H1477 H 0.86469 0.66524 0.40503 0.0
H1478 H 0.86661 0.66318 0.43882 0.0
H1479 H 0.89631 0.70025 0.46539 0.0
H1480 H 0.87383 0.72639 0.5502 0.0
H1481 H 0.87645 0.71915 0.51792 0.0
H1482 H 0.85115 0.67645 0.50052 0.0
C1483 C 0.86889 0.67451 0.43229 0.0
C1484 C 0.88645 0.69487 0.4729 0.0
C1485 C 0.86785 0.67568 0.413 0.0
C1486 C 0.87208 0.71408 0.54635 0.0
C1487 C 0.87372 0.70992 0.52784 0.0
C1488 C 0.86124 0.68136 0.493 0.0
C1489 C 0.87301 0.68785 0.443 0.0
C1490 C 0.87391 0.68706 0.46346 0.0
C1491 C 0.87161 0.69414 0.5221 0.0
C1492 C 0.87322 0.69014 0.50225 0.0
H1493 H 0.87702 0.71496 0.40859 0.0
H1494 H 0.87881 0.71291 0.44197 0.0
H1495 H 0.85172 0.67379 0.4668 0.0
H1496 H 0.86336 0.67758 0.56394 0.0
H1497 H 0.86602 0.67032 0.53123 0.0
C1498 C 0.26157 0.87926 0.55072 0.0
C1499 C 0.27494 0.87738 0.56253 0.0
C1500 C 0.26346 0.87867 0.5316 0.0
C1501 C 0.2931 0.88288 0.49427 0.0
H1502 H 0.26117 0.85923 0.46621 0.0
C1503 C 0.29649 0.87298 0.41465 0.0
C1504 C 0.2818 0.8748 0.40504 0.0
C1505 C 0.29678 0.87299 0.43401 0.0
C1506 C 0.27012 0.86598 0.47383 0.0
H1507 H 0.30087 0.87371 0.56355 0.0
H1508 H 0.30416 0.87266 0.53 0.0
H1509 H 0.25959 0.85992 0.49976 0.0
H1510 H 0.25601 0.87845 0.40816 0.0
H1511 H 0.25656 0.8786 0.44169 0.0
H1512 H 0.30351 0.88906 0.46818 0.0
C1513 C 0.29223 0.87465 0.5356 0.0
C1514 C 0.26921 0.86638 0.49305 0.0
C1515 C 0.29033 0.87519 0.55479 0.0
C1516 C 0.26751 0.87689 0.41512 0.0
C1517 C 0.26781 0.87688 0.43437 0.0
C1518 C 0.29401 0.88249 0.47497 0.0
C1519 C 0.27877 0.8762 0.52382 0.0
C1520 C 0.2805 0.87505 0.50347 0.0
C1521 C 0.28239 0.87475 0.44405 0.0
C1522 C 0.28234 0.87426 0.46454 0.0
H1523 H 0.24957 0.88104 0.55624 0.0
H1524 H 0.2529 0.88019 0.52287 0.0
H1525 H 0.30194 0.88972 0.50195 0.0
H1526 H 0.30769 0.87135 0.40724 0.0
H1527 H 0.3082 0.87127 0.44112 0.0
C1528 C 0.11302 0.71629 0.41298 0.0
C1529 C 0.11119 0.70432 0.3996 0.0
C1530 C 0.11382 0.71253 0.4317 0.0
C1531 C 0.1027 0.68235 0.46574 0.0
H1532 H 0.13207 0.70651 0.49675 0.0
C1533 C 0.10766 0.67607 0.54615 0.0
C1534 C 0.10693 0.6907 0.55549 0.0
C1535 C 0.10921 0.67562 0.52688 0.0
C1536 C 0.12382 0.69965 0.48826 0.0
H1537 H 0.10872 0.67893 0.39549 0.0
H1538 H 0.11017 0.67234 0.42844 0.0
H1539 H 0.13328 0.70933 0.4633 0.0
H1540 H 0.10713 0.71627 0.55196 0.0
H1541 H 0.10998 0.71544 0.51858 0.0
H1542 H 0.09311 0.67289 0.49094 0.0
C1543 C 0.11091 0.68466 0.4243 0.0
C1544 C 0.12448 0.70128 0.46912 0.0
C1545 C 0.11014 0.68844 0.40545 0.0
C1546 C 0.1077 0.7048 0.54522 0.0
C1547 C 0.10943 0.70434 0.52609 0.0
C1548 C 0.1021 0.68065 0.48498 0.0
C1549 C 0.11285 0.69669 0.4376 0.0
C1550 C 0.11359 0.69306 0.45766 0.0
C1551 C 0.11031 0.68978 0.51673 0.0
C1552 C 0.11234 0.68967 0.49641 0.0
H1553 H 0.1138 0.72866 0.40905 0.0
H1554 H 0.11498 0.72211 0.44159 0.0
H1555 H 0.09412 0.67589 0.45727 0.0
H1556 H 0.10705 0.66501 0.55372 0.0
H1557 H 0.10986 0.66424 0.51995 0.0
C1558 C 0.2619 0.09104 0.40911 0.0
C1559 C 0.27542 0.09364 0.39789 0.0
C1560 C 0.2635 0.0907 0.4283 0.0
C1561 C 0.29273 0.08574 0.46649 0.0
H1562 H 0.26024 0.10861 0.49429 0.0
C1563 C 0.29644 0.09641 0.54593 0.0
C1564 C 0.28187 0.09486 0.55563 0.0
C1565 C 0.29652 0.09583 0.52658 0.0
C1566 C 0.26932 0.10203 0.48675 0.0
H1567 H 0.30131 0.09746 0.39795 0.0
H1568 H 0.3041 0.09694 0.43161 0.0
H1569 H 0.25877 0.10822 0.46073 0.0
H1570 H 0.25609 0.09092 0.55274 0.0
H1571 H 0.25628 0.08974 0.51921 0.0
H1572 H 0.30323 0.07954 0.49267 0.0
C1573 C 0.29228 0.09509 0.4255 0.0
C1574 C 0.26848 0.1018 0.46752 0.0
C1575 C 0.29067 0.09546 0.40625 0.0
C1576 C 0.2675 0.09231 0.54568 0.0
C1577 C 0.26759 0.09172 0.52644 0.0
C1578 C 0.29357 0.08596 0.48581 0.0
C1579 C 0.27866 0.09294 0.43673 0.0
C1580 C 0.28004 0.09351 0.45717 0.0
C1581 C 0.28204 0.09371 0.51665 0.0
C1582 C 0.28175 0.09395 0.49614 0.0
H1583 H 0.25 0.08948 0.40309 0.0
H1584 H 0.25283 0.08873 0.43657 0.0
H1585 H 0.30177 0.07918 0.45887 0.0
H1586 H 0.30771 0.09838 0.55324 0.0
H1587 H 0.30784 0.09747 0.51941 0.0
C1588 C 0.86393 0.28849 0.40683 0.0
C1589 C 0.86088 0.2728 0.40116 0.0
C1590 C 0.86305 0.29265 0.42556 0.0
C1591 C 0.84627 0.27874 0.47 0.0
H1592 H 0.88229 0.30083 0.49279 0.0
C1593 C 0.86393 0.26945 0.54518 0.0
C1594 C 0.86711 0.28274 0.55632 0.0
C1595 C 0.86171 0.27113 0.5262 0.0
C1596 C 0.87201 0.29492 0.48655 0.0
H1597 H 0.8543 0.24927 0.4107 0.0
H1598 H 0.85287 0.25647 0.44304 0.0
H1599 H 0.8807 0.2987 0.45904 0.0
H1600 H 0.87074 0.30822 0.55628 0.0
H1601 H 0.86717 0.3111 0.5227 0.0
H1602 H 0.83799 0.27427 0.49745 0.0
C1603 C 0.85576 0.26562 0.4331 0.0
C1604 C 0.87108 0.29371 0.46727 0.0
C1605 C 0.85673 0.26147 0.41453 0.0
C1606 C 0.86827 0.29777 0.54801 0.0
C1607 C 0.86626 0.29943 0.52886 0.0
C1608 C 0.84725 0.27986 0.48918 0.0
C1609 C 0.85893 0.28123 0.43887 0.0
C1610 C 0.85849 0.2851 0.45886 0.0
C1611 C 0.86277 0.28611 0.51786 0.0
C1612 C 0.86041 0.28748 0.49765 0.0
H1613 H 0.86717 0.2975 0.39687 0.0
H1614 H 0.86553 0.30478 0.42963 0.0
H1615 H 0.83623 0.27235 0.46389 0.0
H1616 H 0.86297 0.2577 0.55114 0.0
H1617 H 0.85929 0.26064 0.51799 0.0
C1618 C 0.67752 0.87755 0.5478 0.0
C1619 C 0.69226 0.87978 0.55719 0.0
C1620 C 0.67701 0.87742 0.52846 0.0
C1621 C 0.70344 0.87036 0.4885 0.0
H1622 H 0.67011 0.89188 0.46017 0.0
C1623 C 0.7096 0.88033 0.41064 0.0
C1624 C 0.696 0.87748 0.39945 0.0
C1625 C 0.70822 0.88065 0.42983 0.0
C1626 C 0.67938 0.88567 0.46792 0.0
H1627 H 0.71787 0.88416 0.55369 0.0
H1628 H 0.71693 0.8841 0.52014 0.0
H1629 H 0.66925 0.89245 0.49397 0.0
H1630 H 0.67021 0.87305 0.39958 0.0
H1631 H 0.66781 0.87356 0.43326 0.0
H1632 H 0.71365 0.86364 0.46259 0.0
C1633 C 0.70583 0.88215 0.52764 0.0
C1634 C 0.67889 0.88599 0.48724 0.0
C1635 C 0.70635 0.88227 0.54689 0.0
C1636 C 0.68091 0.87526 0.40785 0.0
C1637 C 0.67952 0.87562 0.42711 0.0
C1638 C 0.70394 0.87005 0.46925 0.0
C1639 C 0.69122 0.87948 0.5182 0.0
C1640 C 0.69106 0.87853 0.49772 0.0
C1641 C 0.69321 0.87814 0.4383 0.0
C1642 C 0.69206 0.87788 0.45874 0.0
H1643 H 0.66647 0.8756 0.55538 0.0
H1644 H 0.66558 0.87528 0.52155 0.0
H1645 H 0.71279 0.86418 0.49617 0.0
H1646 H 0.72138 0.88219 0.40459 0.0
H1647 H 0.71894 0.8829 0.43806 0.0
C1648 C 0.60943 0.78898 0.05356 0.0
C1649 C 0.61108 0.77301 0.05893 0.0
C1650 C 0.6099 0.79319 0.03484 0.0
C1651 C 0.62366 0.77803 -0.01039 0.0
H1652 H 0.59006 0.80462 0.96843 0.0
C1653 C 0.60377 0.77221 0.91481 0.0
C1654 C 0.60265 0.78594 0.90391 0.0
C1655 C 0.60612 0.77332 0.93382 0.0
C1656 C 0.59968 0.79743 0.97422 0.0
H1657 H 0.61453 0.74898 0.04879 0.0
H1658 H 0.61525 0.75628 0.01645 0.0
H1659 H 0.59207 0.80168 0.00209 0.0
H1660 H 0.60266 0.81167 0.90446 0.0
H1661 H 0.60647 0.8136 0.93813 0.0
H1662 H 0.63078 0.77316 0.96182 0.0
C1663 C 0.61381 0.7656 0.02663 0.0
C1664 C 0.60085 0.79575 -0.00655 0.0
C1665 C 0.61326 0.7614 0.04522 0.0
C1666 C 0.60353 0.80089 0.91253 0.0
C1667 C 0.60568 0.802 0.93173 0.0
C1668 C 0.62243 0.77963 0.9705 0.0
C1669 C 0.61219 0.78153 0.02121 0.0
C1670 C 0.61251 0.78557 0.00127 0.0
C1671 C 0.60725 0.78819 0.94245 0.0
C1672 C 0.61011 0.7889 0.96262 0.0
H1673 H 0.60771 0.79821 0.06379 0.0
H1674 H 0.60864 0.80556 0.03104 0.0
H1675 H 0.63301 0.77042 -0.00475 0.0
H1676 H 0.6031 0.76051 0.90864 0.0
H1677 H 0.60704 0.7625 0.94183 0.0
C1678 C 0.17227 0.59744 0.91419 0.0
C1679 C 0.18716 0.59539 0.90525 0.0
C1680 C 0.17119 0.59569 0.93339 0.0
C1681 C 0.19265 0.57835 0.9736 0.0
H1682 H 0.17095 0.6111 0.00183 0.0
C1683 C 0.20661 0.58956 0.05015 0.0
C1684 C 0.19388 0.59343 0.06209 0.0
C1685 C 0.20392 0.58823 0.03117 0.0
C1686 C 0.17682 0.60171 -0.00585 0.0
H1687 H 0.21249 0.58969 0.90934 0.0
H1688 H 0.2106 0.58673 0.94264 0.0
H1689 H 0.16942 0.61148 0.96812 0.0
H1690 H 0.16829 0.59877 0.06352 0.0
H1691 H 0.16358 0.59644 0.03021 0.0
H1692 H 0.20037 0.56878 -0.00044 0.0
C1693 C 0.19973 0.58952 0.93489 0.0
C1694 C 0.17594 0.60193 0.97484 0.0
C1695 C 0.20084 0.59134 0.9158 0.0
C1696 C 0.17834 0.59579 0.05465 0.0
C1697 C 0.17566 0.59452 0.03559 0.0
C1698 C 0.19352 0.57813 -0.00714 0.0
C1699 C 0.18493 0.59174 0.94393 0.0
C1700 C 0.18417 0.59046 0.96436 0.0
C1701 C 0.18845 0.59077 0.02365 0.0
C1702 C 0.18594 0.59001 0.00334 0.0
H1703 H 0.16152 0.60056 0.90641 0.0
H1704 H 0.1596 0.59739 0.93998 0.0
H1705 H 0.19885 0.56917 0.96591 0.0
H1706 H 0.21872 0.58768 0.05544 0.0
H1707 H 0.21408 0.58557 0.02232 0.0
C1708 C 0.35405 0.2101 0.04633 0.0
C1709 C 0.35886 0.19903 0.0598 0.0
C1710 C 0.35278 0.20571 0.02784 0.0
C1711 C 0.36818 0.17778 -0.00626 0.0
H1712 H 0.33376 0.19608 0.96401 0.0
C1713 C 0.36408 0.17372 0.91302 0.0
C1714 C 0.36251 0.18879 0.90485 0.0
C1715 C 0.36229 0.1719 0.93215 0.0
C1716 C 0.34338 0.19079 0.97215 0.0
H1717 H 0.36604 0.17457 0.06433 0.0
H1718 H 0.36389 0.16689 0.03169 0.0
H1719 H 0.33267 0.19808 -0.00242 0.0
H1720 H 0.35773 0.21368 0.91024 0.0
H1721 H 0.35437 0.21045 0.94336 0.0
H1722 H 0.37908 0.17093 0.96807 0.0
C1723 C 0.36111 0.17898 0.03563 0.0
C1724 C 0.34279 0.19196 -0.00866 0.0
C1725 C 0.36229 0.18337 0.05429 0.0
C1726 C 0.35902 0.20192 0.91609 0.0
C1727 C 0.35699 0.20007 0.93505 0.0
C1728 C 0.36872 0.17653 0.97445 0.0
C1729 C 0.3563 0.19014 0.02224 0.0
C1730 C 0.3555 0.18605 0.00231 0.0
C1731 C 0.35857 0.18507 0.94328 0.0
C1732 C 0.35662 0.18357 0.96351 0.0
H1733 H 0.3513 0.22226 0.05002 0.0
H1734 H 0.34935 0.21468 0.01784 0.0
H1735 H 0.37817 0.17315 0.00183 0.0
H1736 H 0.36681 0.1634 0.90467 0.0
H1737 H 0.3636 0.16022 0.93822 0.0
C1738 C 0.79211 0.37624 0.05425 0.0
C1739 C 0.77689 0.37845 0.06239 0.0
C1740 C 0.79371 0.37627 0.03501 0.0
C1741 C 0.76975 0.36924 -0.00707 0.0
H1742 H 0.80436 0.39103 0.96755 0.0
C1743 C 0.76754 0.37895 0.91495 0.0
C1744 C 0.78165 0.37615 0.90477 0.0
C1745 C 0.76804 0.37946 0.93418 0.0
C1746 C 0.79475 0.38473 0.97448 0.0
H1747 H 0.75153 0.38294 0.05679 0.0
H1748 H 0.75434 0.3831 0.02335 0.0
H1749 H 0.80324 0.39164 0.00136 0.0
H1750 H 0.80747 0.3721 0.90676 0.0
H1751 H 0.80832 0.37289 0.94061 0.0
H1752 H 0.76119 0.36234 0.96622 0.0
C1753 C 0.76499 0.38109 0.03178 0.0
C1754 C 0.7941 0.38509 -0.0062 0.0
C1755 C 0.7634 0.38108 0.05095 0.0
C1756 C 0.79639 0.37426 0.91425 0.0
C1757 C 0.79689 0.37477 0.9336 0.0
C1758 C 0.7704 0.36887 0.9737 0.0
C1759 C 0.78011 0.37845 0.02359 0.0
C1760 C 0.78144 0.37755 0.00319 0.0
C1761 C 0.78265 0.37713 0.94374 0.0
C1762 C 0.78274 0.37682 0.96424 0.0
H1763 H 0.80274 0.3742 0.06272 0.0
H1764 H 0.80549 0.37414 0.02908 0.0
H1765 H 0.76007 0.36298 -0.00022 0.0
H1766 H 0.75601 0.3806 0.90808 0.0
H1767 H 0.75692 0.38164 0.94158 0.0
C1768 C 0.60946 0.17076 0.04794 0.0
C1769 C 0.60091 0.184 0.05453 0.0
C1770 C 0.61064 0.16797 0.02893 0.0
C1771 C 0.59188 0.17658 -0.01584 0.0
H1772 H 0.63531 0.17788 0.96439 0.0
C1773 C 0.62156 0.20125 0.91526 0.0
C1774 C 0.61301 0.19323 0.9013 0.0
C1775 C 0.62118 0.19583 0.93345 0.0
C1776 C 0.62314 0.17724 0.96974 0.0
H1777 H 0.58631 0.20428 0.04661 0.0
H1778 H 0.58802 0.19917 0.01347 0.0
H1779 H 0.63136 0.17598 -0.00215 0.0
H1780 H 0.59778 0.17297 0.89525 0.0
H1781 H 0.59669 0.16375 0.92738 0.0
H1782 H 0.58365 0.17842 0.95612 0.0
C1783 C 0.59391 0.19104 0.02296 0.0
C1784 C 0.62088 0.17608 -0.01118 0.0
C1785 C 0.59303 0.19402 0.04188 0.0
C1786 C 0.60451 0.17935 0.90576 0.0
C1787 C 0.60385 0.1741 0.92408 0.0
C1788 C 0.59413 0.17745 0.96508 0.0
C1789 C 0.60294 0.17816 0.0163 0.0
C1790 C 0.60524 0.17629 -0.00381 0.0
C1791 C 0.61201 0.18243 0.9381 0.0
C1792 C 0.60978 0.17833 0.95777 0.0
H1793 H 0.61569 0.16289 0.05743 0.0
H1794 H 0.6177 0.15798 0.02407 0.0
H1795 H 0.57971 0.17673 -0.01043 0.0
H1796 H 0.62828 0.21194 0.91219 0.0
H1797 H 0.62744 0.20255 0.94405 0.0
C1798 C 0.76888 0.59198 0.04449 0.0
C1799 C 0.78295 0.59523 0.05473 0.0
C1800 C 0.76928 0.59145 0.02526 0.0
C1801 C 0.79583 0.58696 -0.015 0.0
H1802 H 0.76005 0.60744 0.95969 0.0
C1803 C 0.79123 0.59475 0.90496 0.0
C1804 C 0.7759 0.59191 0.89719 0.0
C1805 C 0.79334 0.59491 0.92418 0.0
C1806 C 0.77005 0.60156 0.96654 0.0
H1807 H 0.8086 0.60005 0.05284 0.0
H1808 H 0.80926 0.59922 0.01899 0.0
H1809 H 0.76159 0.60833 -0.00678 0.0
H1810 H 0.75094 0.58636 0.90342 0.0
H1811 H 0.75465 0.58654 0.93676 0.0
H1812 H 0.80422 0.58017 0.9581 0.0
C1813 C 0.79795 0.59701 0.02596 0.0
C1814 C 0.77094 0.60206 -0.01424 0.0
C1815 C 0.79756 0.59753 0.04531 0.0
C1816 C 0.76288 0.58874 0.90896 0.0
C1817 C 0.76498 0.58892 0.92807 0.0
C1818 C 0.79495 0.58647 0.96566 0.0
C1819 C 0.78373 0.59421 0.01575 0.0
C1820 C 0.78366 0.59452 -0.00476 0.0
C1821 C 0.78015 0.59228 0.93592 0.0
C1822 C 0.78187 0.59352 0.95628 0.0
H1823 H 0.75745 0.58999 0.05132 0.0
H1824 H 0.75819 0.58892 0.01782 0.0
H1825 H 0.80575 0.581 -0.00807 0.0
H1826 H 0.8015 0.59721 0.89622 0.0
H1827 H 0.80516 0.59757 0.92984 0.0
C1828 C 0.36084 0.75854 0.91392 0.0
C1829 C 0.36162 0.77087 0.9009 0.0
C1830 C 0.36058 0.76186 0.93276 0.0
C1831 C 0.37139 0.7917 0.96751 0.0
H1832 H 0.34338 0.76613 -0.00179 0.0
C1833 C 0.36721 0.79675 0.04805 0.0
C1834 C 0.36822 0.78204 0.05715 0.0
C1835 C 0.36563 0.79738 0.02877 0.0
C1836 C 0.35126 0.77337 -0.01019 0.0
H1837 H 0.3629 0.79642 0.89755 0.0
H1838 H 0.36241 0.80223 0.93073 0.0
H1839 H 0.34169 0.76378 0.96472 0.0
H1840 H 0.36866 0.75651 0.05317 0.0
H1841 H 0.36582 0.75764 0.01979 0.0
H1842 H 0.38111 0.80107 -0.00717 0.0
C1843 C 0.36206 0.78998 0.9262 0.0
C1844 C 0.35032 0.77201 0.97065 0.0
C1845 C 0.36227 0.78665 0.90723 0.0
C1846 C 0.36784 0.76804 0.04663 0.0
C1847 C 0.36611 0.76867 0.02749 0.0
C1848 C 0.37228 0.79311 -0.01323 0.0
C1849 C 0.36107 0.7776 0.93914 0.0
C1850 C 0.3607 0.78078 0.9593 0.0
C1851 C 0.36483 0.78331 0.01838 0.0
C1852 C 0.36255 0.78359 -0.00192 0.0
H1853 H 0.36041 0.74624 0.9096 0.0
H1854 H 0.36017 0.75203 0.94238 0.0
H1855 H 0.37957 0.79859 0.9591 0.0
H1856 H 0.36752 0.80774 0.05582 0.0
H1857 H 0.36467 0.80882 0.02204 0.0
C1858 C 0.20977 0.38275 0.91013 0.0
C1859 C 0.19622 0.38114 0.89853 0.0
C1860 C 0.2081 0.38214 0.92928 0.0
C1861 C 0.17905 0.38633 0.96729 0.0
H1862 H 0.2108 0.3613 -0.00596 0.0
C1863 C 0.17625 0.37423 0.04654 0.0
C1864 C 0.19107 0.37536 0.05602 0.0
C1865 C 0.17576 0.3749 0.0272 0.0
C1866 C 0.20191 0.36844 -0.01321 0.0
H1867 H 0.17022 0.37806 0.89792 0.0
H1868 H 0.16733 0.37696 0.93151 0.0
H1869 H 0.21204 0.36278 0.96051 0.0
H1870 H 0.2169 0.37852 0.0527 0.0
H1871 H 0.21601 0.37982 0.01923 0.0
H1872 H 0.16902 0.39207 -0.00626 0.0
C1873 C 0.17922 0.37875 0.92573 0.0
C1874 C 0.20263 0.3693 0.96759 0.0
C1875 C 0.18089 0.37932 0.90651 0.0
C1876 C 0.2053 0.37747 0.04584 0.0
C1877 C 0.2048 0.37813 0.02662 0.0
C1878 C 0.17833 0.38548 -0.01341 0.0
C1879 C 0.19285 0.37992 0.93729 0.0
C1880 C 0.19138 0.37845 0.95764 0.0
C1881 C 0.19008 0.37665 0.01705 0.0
C1882 C 0.18994 0.37674 -0.00345 0.0
H1883 H 0.22173 0.38427 0.90442 0.0
H1884 H 0.2188 0.38337 0.93785 0.0
H1885 H 0.17025 0.39352 0.95998 0.0
H1886 H 0.16509 0.37261 0.05403 0.0
H1887 H 0.16424 0.37367 0.02018 0.0
C1888 C 0.14114 0.34363 0.15983 0.0
C1889 C 0.15294 0.35521 0.1564 0.0
C1890 C 0.13496 0.34164 0.17764 0.0
C1891 C 0.14775 0.34739 0.22555 0.0
H1892 H 0.10359 0.33636 0.23738 0.0
C1893 C 0.13001 0.33224 0.29996 0.0
C1894 C 0.12028 0.31874 0.30206 0.0
C1895 C 0.13198 0.33915 0.28257 0.0
C1896 C 0.11598 0.33936 0.23427 0.0
H1897 H 0.1666 0.37456 0.16865 0.0
H1898 H 0.15575 0.37114 0.19954 0.0
H1899 H 0.11045 0.34397 0.20578 0.0
H1900 H 0.10443 0.3023 0.28767 0.0
H1901 H 0.10817 0.31409 0.25738 0.0
H1902 H 0.15351 0.34227 0.25369 0.0
C1903 C 0.15152 0.36339 0.18859 0.0
C1904 C 0.11989 0.34373 0.2162 0.0
C1905 C 0.15769 0.36537 0.17086 0.0
C1906 C 0.11204 0.31269 0.28655 0.0
C1907 C 0.11409 0.31953 0.26916 0.0
C1908 C 0.14388 0.34295 0.24353 0.0
C1909 C 0.14047 0.35121 0.1923 0.0
C1910 C 0.13586 0.34765 0.21163 0.0
C1911 C 0.12434 0.33265 0.26689 0.0
C1912 C 0.12799 0.33871 0.2481 0.0
H1913 H 0.1372 0.33564 0.14898 0.0
H1914 H 0.1265 0.3321 0.18011 0.0
H1915 H 0.16023 0.35006 0.2224 0.0
H1916 H 0.1364 0.33729 0.31166 0.0
H1917 H 0.13972 0.34944 0.28137 0.0
C1918 C 0.62048 0.14273 0.16173 0.0
C1919 C 0.61804 0.15907 0.15948 0.0
C1920 C 0.62135 0.13613 0.17943 0.0
C1921 C 0.61638 0.14638 0.22986 0.0
H1922 H 0.64678 0.1118 0.23587 0.0
C1923 C 0.63753 0.12634 0.30251 0.0
C1924 C 0.65386 0.12202 0.30406 0.0
C1925 C 0.63038 0.12829 0.28506 0.0
C1926 C 0.63838 0.12159 0.23452 0.0
H1927 H 0.61448 0.18138 0.17375 0.0
H1928 H 0.61718 0.17024 0.20447 0.0
H1929 H 0.6397 0.12063 0.2052 0.0
H1930 H 0.67555 0.11649 0.28868 0.0
H1931 H 0.66355 0.12072 0.25863 0.0
H1932 H 0.61636 0.14834 0.25926 0.0
C1933 C 0.61765 0.16221 0.19281 0.0
C1934 C 0.63401 0.12648 0.21678 0.0
C1935 C 0.61627 0.16869 0.17515 0.0
C1936 C 0.66287 0.11963 0.28794 0.0
C1937 C 0.65588 0.12192 0.27061 0.0
C1938 C 0.62115 0.1418 0.24763 0.0
C1939 C 0.62034 0.14584 0.19527 0.0
C1940 C 0.62327 0.13924 0.21414 0.0
C1941 C 0.63954 0.12629 0.26885 0.0
C1942 C 0.6326 0.12965 0.25019 0.0
H1943 H 0.62165 0.13504 0.1498 0.0
H1944 H 0.62298 0.12343 0.18061 0.0
H1945 H 0.60765 0.15588 0.22852 0.0
H1946 H 0.63029 0.12816 0.31475 0.0
H1947 H 0.61772 0.13142 0.28433 0.0
C1948 C 0.81514 0.61192 0.17013 0.0
C1949 C 0.82085 0.61968 0.15427 0.0
C1950 C 0.82212 0.61482 0.18739 0.0
C1951 C 0.8446 0.64588 0.21201 0.0
H1952 H 0.84639 0.61433 0.25097 0.0
C1953 C 0.86429 0.66238 0.28572 0.0
C1954 C 0.85374 0.65736 0.29971 0.0
C1955 C 0.86312 0.65606 0.26793 0.0
C1956 C 0.84594 0.62325 0.24021 0.0
H1957 H 0.83898 0.63592 0.14399 0.0
H1958 H 0.85138 0.64079 0.17415 0.0
H1959 H 0.83976 0.60622 0.21941 0.0
H1960 H 0.83423 0.64118 0.30618 0.0
H1961 H 0.83217 0.63019 0.27504 0.0
H1962 H 0.85049 0.66295 0.23283 0.0
C1963 C 0.84126 0.6327 0.17325 0.0
C1964 C 0.84214 0.61863 0.22215 0.0
C1965 C 0.83421 0.62985 0.15595 0.0
C1966 C 0.84251 0.64534 0.29572 0.0
C1967 C 0.84139 0.63898 0.2779 0.0
C1968 C 0.84849 0.65048 0.23002 0.0
C1969 C 0.83505 0.62548 0.18923 0.0
C1970 C 0.84108 0.62995 0.20791 0.0
C1971 C 0.85144 0.64455 0.26373 0.0
C1972 C 0.84891 0.63927 0.24438 0.0
H1973 H 0.80489 0.60398 0.16937 0.0
H1974 H 0.81688 0.6092 0.1994 0.0
H1975 H 0.84363 0.65497 0.20149 0.0
H1976 H 0.87318 0.67153 0.28833 0.0
H1977 H 0.87118 0.66042 0.25735 0.0
C1978 C 0.34259 0.83152 0.16138 0.0
C1979 C 0.35205 0.81777 0.15942 0.0
C1980 C 0.3409 0.83872 0.17866 0.0
C1981 C 0.35721 0.83903 0.22688 0.0
H1982 H 0.31333 0.85112 0.23895 0.0
C1983 C 0.33211 0.84371 0.30129 0.0
C1984 C 0.32066 0.85564 0.30483 0.0
C1985 C 0.33832 0.8417 0.28349 0.0
C1986 C 0.32571 0.84807 0.23574 0.0
H1987 H 0.36765 0.80117 0.17395 0.0
H1988 H 0.36433 0.81343 0.20406 0.0
H1989 H 0.31969 0.84297 0.20766 0.0
H1990 H 0.30772 0.8756 0.29282 0.0
H1991 H 0.31861 0.87212 0.26195 0.0
H1992 H 0.36297 0.84357 0.25534 0.0
C1993 C 0.35845 0.81886 0.19225 0.0
C1994 C 0.32938 0.84342 0.21775 0.0
C1995 C 0.36025 0.81175 0.17497 0.0
C1996 C 0.31635 0.86614 0.29053 0.0
C1997 C 0.32254 0.86413 0.2728 0.0
C1998 C 0.35349 0.84359 0.24496 0.0
C1999 C 0.34851 0.83226 0.19439 0.0
C2000 C 0.34512 0.83865 0.21313 0.0
C2001 C 0.33319 0.8516 0.26896 0.0
C2002 C 0.33766 0.84799 0.2496 0.0
H2003 H 0.33625 0.83656 0.14964 0.0
H2004 H 0.33338 0.84921 0.17976 0.0
H2005 H 0.36951 0.83565 0.22373 0.0
H2006 H 0.33571 0.83545 0.31202 0.0
H2007 H 0.34647 0.83189 0.28091 0.0
C2008 C 0.14999 0.60719 0.7931 0.0
C2009 C 0.15042 0.61992 0.8056 0.0
C2010 C 0.14347 0.60918 0.77541 0.0
C2011 C 0.12095 0.63813 0.74536 0.0
H2012 H 0.14465 0.61683 0.70652 0.0
C2013 C 0.10895 0.65328 0.66898 0.0
C2014 C 0.12258 0.65426 0.65757 0.0
C2015 C 0.11009 0.64635 0.68647 0.0
C2016 C 0.13797 0.62299 0.71715 0.0
H2017 H 0.14391 0.64457 0.8097 0.0
H2018 H 0.13329 0.64834 0.77866 0.0
H2019 H 0.15051 0.61056 0.73847 0.0
H2020 H 0.14799 0.64843 0.65533 0.0
H2021 H 0.15021 0.63704 0.68602 0.0
H2022 H 0.10939 0.65153 0.72407 0.0
C2023 C 0.13744 0.63662 0.78254 0.0
C2024 C 0.14112 0.61916 0.73559 0.0
C2025 C 0.14363 0.63451 0.80037 0.0
C2026 C 0.13724 0.64773 0.66375 0.0
C2027 C 0.13847 0.64109 0.68138 0.0
C2028 C 0.11804 0.6422 0.72693 0.0
C2029 C 0.13759 0.62407 0.76965 0.0
C2030 C 0.13288 0.62689 0.75 0.0
C2031 C 0.12497 0.64053 0.69312 0.0
C2032 C 0.12675 0.63492 0.71257 0.0
H2033 H 0.15499 0.59575 0.79687 0.0
H2034 H 0.14339 0.5991 0.76613 0.0
H2035 H 0.11407 0.64409 0.75598 0.0
H2036 H 0.09744 0.65808 0.66448 0.0
H2037 H 0.09933 0.6458 0.69488 0.0
C2038 C 0.33566 0.12885 0.65551 0.0
C2039 C 0.32252 0.11838 0.65412 0.0
C2040 C 0.34277 0.13204 0.67269 0.0
C2041 C 0.34547 0.14593 0.71121 0.0
H2042 H 0.34845 0.11503 0.75077 0.0
C2043 C 0.36285 0.1643 0.78523 0.0
C2044 C 0.35244 0.15866 0.79903 0.0
C2045 C 0.36237 0.15788 0.76745 0.0
C2046 C 0.34768 0.12378 0.73985 0.0
H2047 H 0.30715 0.10236 0.66956 0.0
H2048 H 0.31929 0.10811 0.69938 0.0
H2049 H 0.34251 0.10619 0.71931 0.0
H2050 H 0.33385 0.14137 0.80514 0.0
H2051 H 0.33295 0.13023 0.77406 0.0
H2052 H 0.35025 0.16355 0.73178 0.0
C2053 C 0.32428 0.11375 0.68725 0.0
C2054 C 0.34427 0.11873 0.72184 0.0
C2055 C 0.31721 0.11055 0.67011 0.0
C2056 C 0.342 0.14602 0.79483 0.0
C2057 C 0.34156 0.13956 0.77705 0.0
C2058 C 0.34894 0.15096 0.72917 0.0
C2059 C 0.33688 0.12482 0.68883 0.0
C2060 C 0.34275 0.1298 0.70739 0.0
C2061 C 0.35152 0.14563 0.76308 0.0
C2062 C 0.34972 0.13998 0.74376 0.0
H2063 H 0.34013 0.13499 0.64344 0.0
H2064 H 0.35264 0.14044 0.6734 0.0
H2065 H 0.34413 0.15481 0.7005 0.0
H2066 H 0.37112 0.17396 0.78801 0.0
H2067 H 0.37032 0.16267 0.75702 0.0
C2068 C 0.85612 0.30451 0.67694 0.0
C2069 C 0.85447 0.31394 0.66109 0.0
C2070 C 0.85473 0.31121 0.69448 0.0
C2071 C 0.8384 0.3472 0.71771 0.0
H2072 H 0.85609 0.32585 0.7607 0.0
C2073 C 0.80952 0.35469 0.78846 0.0
C2074 C 0.81856 0.3525 0.80472 0.0
C2075 C 0.8165 0.35225 0.77124 0.0
C2076 C 0.85128 0.33224 0.74893 0.0
H2077 H 0.851 0.33788 0.65101 0.0
H2078 H 0.84961 0.34986 0.68165 0.0
H2079 H 0.86483 0.318 0.73018 0.0
H2080 H 0.84218 0.34659 0.81574 0.0
H2081 H 0.85472 0.34307 0.7855 0.0
H2082 H 0.82556 0.36203 0.73645 0.0
C2083 C 0.8512 0.33714 0.68066 0.0
C2084 C 0.85607 0.32749 0.73128 0.0
C2085 C 0.8521 0.33033 0.66307 0.0
C2086 C 0.83491 0.34824 0.80339 0.0
C2087 C 0.84204 0.34615 0.78605 0.0
C2088 C 0.83399 0.35225 0.73534 0.0
C2089 C 0.85212 0.32762 0.69665 0.0
C2090 C 0.84917 0.33444 0.71539 0.0
C2091 C 0.83286 0.34793 0.76972 0.0
C2092 C 0.8398 0.34439 0.75119 0.0
H2093 H 0.85783 0.2918 0.67578 0.0
H2094 H 0.85512 0.30332 0.70626 0.0
H2095 H 0.8327 0.3529 0.70597 0.0
H2096 H 0.79683 0.35779 0.78902 0.0
H2097 H 0.80881 0.35329 0.75915 0.0
C2098 C 0.6403 0.84673 0.65724 0.0
C2099 C 0.65368 0.85689 0.65591 0.0
C2100 C 0.63331 0.84363 0.6744 0.0
C2101 C 0.63263 0.85677 0.72364 0.0
H2102 H 0.62448 0.81223 0.73299 0.0
C2103 C 0.6314 0.82903 0.79664 0.0
C2104 C 0.61997 0.8171 0.80006 0.0
C2105 C 0.63296 0.83548 0.77895 0.0
C2106 C 0.62644 0.82475 0.73055 0.0
H2107 H 0.66968 0.87239 0.67147 0.0
H2108 H 0.65776 0.86675 0.70128 0.0
H2109 H 0.63133 0.82082 0.70197 0.0
H2110 H 0.60076 0.80306 0.78771 0.0
H2111 H 0.60351 0.81432 0.75694 0.0
H2112 H 0.6283 0.86052 0.7525 0.0
C2113 C 0.65249 0.86132 0.68911 0.0
C2114 C 0.63032 0.8297 0.71273 0.0
C2115 C 0.65941 0.86446 0.67197 0.0
C2116 C 0.60978 0.81215 0.78555 0.0
C2117 C 0.61138 0.81855 0.76789 0.0
C2118 C 0.62883 0.8518 0.74152 0.0
C2119 C 0.6396 0.85059 0.6906 0.0
C2120 C 0.63371 0.84573 0.7091 0.0
C2121 C 0.62316 0.83009 0.76432 0.0
C2122 C 0.62592 0.8357 0.74519 0.0
H2123 H 0.63551 0.84081 0.64511 0.0
H2124 H 0.62321 0.83552 0.67504 0.0
H2125 H 0.63493 0.86925 0.72126 0.0
H2126 H 0.63942 0.83313 0.80751 0.0
H2127 H 0.64225 0.84426 0.77657 0.0
C2128 C 0.86601 0.66658 0.68298 0.0
C2129 C 0.85911 0.66434 0.6654 0.0
C2130 C 0.86172 0.65683 0.69769 0.0
C2131 C 0.82707 0.63389 0.71311 0.0
H2132 H 0.85521 0.62444 0.7547 0.0
C2133 C 0.80212 0.60971 0.78168 0.0
C2134 C 0.80755 0.61779 0.79756 0.0
C2135 C 0.80982 0.61184 0.76474 0.0
C2136 C 0.84721 0.62699 0.74318 0.0
H2137 H 0.84316 0.64942 0.64911 0.0
H2138 H 0.8357 0.63224 0.67491 0.0
H2139 H 0.86682 0.6337 0.7257 0.0
H2140 H 0.82564 0.63406 0.80817 0.0
H2141 H 0.83896 0.63788 0.77858 0.0
H2142 H 0.80744 0.6277 0.73074 0.0
C2143 C 0.84427 0.64171 0.67733 0.0
C2144 C 0.85385 0.63226 0.72658 0.0
C2145 C 0.84861 0.65148 0.66254 0.0
C2146 C 0.82112 0.62769 0.79622 0.0
C2147 C 0.82885 0.62977 0.77928 0.0
C2148 C 0.82045 0.62857 0.72968 0.0
C2149 C 0.85041 0.6446 0.69519 0.0
C2150 C 0.84381 0.63624 0.71154 0.0
C2151 C 0.82315 0.62204 0.76331 0.0
C2152 C 0.83041 0.62551 0.74506 0.0
H2153 H 0.87421 0.67634 0.68561 0.0
H2154 H 0.86657 0.65951 0.71127 0.0
H2155 H 0.81896 0.63704 0.70191 0.0
H2156 H 0.79176 0.60191 0.78224 0.0
H2157 H 0.80525 0.6056 0.75271 0.0
C2158 C 0.36862 0.81958 0.78732 0.0
C2159 C 0.35606 0.81556 0.79934 0.0
C2160 C 0.3657 0.82956 0.77227 0.0
C2161 C 0.35399 0.83741 0.73419 0.0
H2162 H 0.31647 0.86467 0.72988 0.0
C2163 C 0.31961 0.8432 0.66602 0.0
C2164 C 0.31067 0.85694 0.66204 0.0
C2165 C 0.32761 0.8416 0.68292 0.0
C2166 C 0.3272 0.85736 0.73077 0.0
H2167 H 0.3309 0.81943 0.80587 0.0
H2168 H 0.32543 0.83591 0.77908 0.0
H2169 H 0.32664 0.85762 0.76028 0.0
H2170 H 0.3037 0.88013 0.67228 0.0
H2171 H 0.31825 0.87765 0.70154 0.0
H2172 H 0.35493 0.83761 0.70475 0.0
C2173 C 0.33773 0.83201 0.78142 0.0
C2174 C 0.3329 0.85308 0.74829 0.0
C2175 C 0.3408 0.82245 0.79681 0.0
C2176 C 0.31039 0.86933 0.67505 0.0
C2177 C 0.31866 0.86786 0.69187 0.0
C2178 C 0.34855 0.84201 0.71672 0.0
C2179 C 0.34999 0.8352 0.76852 0.0
C2180 C 0.34594 0.84247 0.75025 0.0
C2181 C 0.32716 0.85385 0.69617 0.0
C2182 C 0.33464 0.85144 0.71473 0.0
H2183 H 0.38056 0.81455 0.78918 0.0
H2184 H 0.37563 0.8322 0.76312 0.0
H2185 H 0.36399 0.82915 0.73488 0.0
H2186 H 0.31994 0.83339 0.65634 0.0
H2187 H 0.33365 0.83047 0.68579 0.0
C2188 C 0.12417 0.32083 0.6661 0.0
C2189 C 0.11184 0.30941 0.66597 0.0
C2190 C 0.12701 0.33 0.68192 0.0
C2191 C 0.12204 0.32575 0.73177 0.0
H2192 H 0.13923 0.36846 0.73406 0.0
C2193 C 0.14394 0.35111 0.80061 0.0
C2194 C 0.15908 0.35858 0.80027 0.0
C2195 C 0.13554 0.34813 0.78421 0.0
C2196 C 0.13447 0.3565 0.73361 0.0
H2197 H 0.09177 0.29977 0.68142 0.0
H2198 H 0.09643 0.31602 0.70874 0.0
H2199 H 0.12882 0.35812 0.70469 0.0
H2200 H 0.17692 0.36949 0.7825 0.0
H2201 H 0.16247 0.36386 0.75383 0.0
H2202 H 0.12816 0.32377 0.76031 0.0
C2203 C 0.10425 0.31756 0.69693 0.0
C2204 C 0.1285 0.35061 0.71682 0.0
C2205 C 0.10154 0.30829 0.68126 0.0
C2206 C 0.16529 0.36367 0.78323 0.0
C2207 C 0.15695 0.36055 0.76679 0.0
C2208 C 0.12801 0.3316 0.74845 0.0
C2209 C 0.11746 0.32798 0.69776 0.0
C2210 C 0.12237 0.33509 0.7157 0.0
C2211 C 0.14216 0.35238 0.76706 0.0
C2212 C 0.13447 0.34696 0.74957 0.0
H2213 H 0.13228 0.32194 0.65448 0.0
H2214 H 0.13731 0.33789 0.68213 0.0
H2215 H 0.11778 0.31361 0.73133 0.0
H2216 H 0.13871 0.34726 0.81354 0.0
H2217 H 0.12401 0.34213 0.78494 0.0
C2218 C 0.64426 0.12514 0.65759 0.0
C2219 C 0.65909 0.11705 0.65843 0.0
C2220 C 0.63554 0.12814 0.67367 0.0
C2221 C 0.6326 0.11838 0.72374 0.0
H2222 H 0.6176 0.16186 0.72717 0.0
C2223 C 0.62211 0.15194 0.79237 0.0
C2224 C 0.61022 0.16384 0.79268 0.0
C2225 C 0.62496 0.14334 0.77617 0.0
C2226 C 0.62137 0.14957 0.72638 0.0
H2227 H 0.67603 0.10511 0.67673 0.0
H2228 H 0.66103 0.11071 0.70483 0.0
H2229 H 0.62838 0.15219 0.69825 0.0
H2230 H 0.59097 0.17504 0.77695 0.0
H2231 H 0.59571 0.15982 0.74888 0.0
H2232 H 0.62605 0.11606 0.75224 0.0
C2233 C 0.65599 0.11453 0.69172 0.0
C2234 C 0.62757 0.14401 0.70974 0.0
C2235 C 0.66466 0.11142 0.67561 0.0
C2236 C 0.60039 0.1661 0.77702 0.0
C2237 C 0.60315 0.15743 0.76092 0.0
C2238 C 0.62638 0.12398 0.74047 0.0
C2239 C 0.64152 0.12324 0.69098 0.0
C2240 C 0.63348 0.12843 0.70826 0.0
C2241 C 0.6159 0.14643 0.76007 0.0
C2242 C 0.6209 0.13971 0.74202 0.0
H2243 H 0.63951 0.12945 0.64455 0.0
H2244 H 0.62427 0.13462 0.67259 0.0
H2245 H 0.63688 0.10625 0.72298 0.0
H2246 H 0.62985 0.14993 0.80426 0.0
H2247 H 0.63492 0.135 0.77596 0.0
C2248 C 0.82945 0.34628 0.15903 0.0
C2249 C 0.81429 0.35375 0.15949 0.0
C2250 C 0.83827 0.34394 0.1753 0.0
C2251 C 0.84045 0.35473 0.22529 0.0
H2252 H 0.85842 0.31241 0.22971 0.0
C2253 C 0.8517 0.32178 0.29424 0.0
C2254 C 0.86427 0.31058 0.2949 0.0
C2255 C 0.84882 0.33048 0.2781 0.0
C2256 C 0.85381 0.32441 0.22865 0.0
H2257 H 0.79676 0.36517 0.17731 0.0
H2258 H 0.8119 0.36063 0.20574 0.0
H2259 H 0.8472 0.32096 0.20043 0.0
H2260 H 0.88476 0.30096 0.28007 0.0
H2261 H 0.87996 0.31637 0.25212 0.0
H2262 H 0.84651 0.35777 0.25395 0.0
C2263 C 0.81715 0.35686 0.19279 0.0
C2264 C 0.84736 0.32933 0.21179 0.0
C2265 C 0.8084 0.35934 0.17649 0.0
C2266 C 0.87481 0.30933 0.27984 0.0
C2267 C 0.87203 0.31811 0.26381 0.0
C2268 C 0.84688 0.34975 0.24226 0.0
C2269 C 0.83205 0.34885 0.19243 0.0
C2270 C 0.84037 0.34445 0.20995 0.0
C2271 C 0.85855 0.32818 0.26244 0.0
C2272 C 0.85342 0.33444 0.24416 0.0
H2273 H 0.83444 0.34204 0.14613 0.0
H2274 H 0.84986 0.33801 0.17449 0.0
H2275 H 0.83535 0.36653 0.22427 0.0
H2276 H 0.8434 0.32299 0.30567 0.0
H2277 H 0.83831 0.33813 0.27746 0.0
C2278 C 0.62885 0.82014 0.16598 0.0
C2279 C 0.61389 0.81273 0.16331 0.0
C2280 C 0.63167 0.82928 0.18178 0.0
C2281 C 0.63571 0.84981 0.21551 0.0
H2282 H 0.61516 0.83236 0.25894 0.0
C2283 C 0.65793 0.86639 0.28866 0.0
C2284 C 0.65854 0.85391 0.3015 0.0
C2285 C 0.64954 0.86462 0.27197 0.0
C2286 C 0.62114 0.83731 0.24699 0.0
H2287 H 0.58961 0.81028 0.17382 0.0
H2288 H 0.59407 0.82714 0.20071 0.0
H2289 H 0.60634 0.82391 0.22868 0.0
H2290 H 0.65071 0.82989 0.3071 0.0
H2291 H 0.63683 0.82646 0.27779 0.0
H2292 H 0.65157 0.86202 0.23399 0.0
C2293 C 0.60399 0.82526 0.19127 0.0
C2294 C 0.61581 0.83271 0.22948 0.0
C2295 C 0.60133 0.81573 0.17575 0.0
C2296 C 0.65034 0.83977 0.29753 0.0
C2297 C 0.64225 0.83787 0.28072 0.0
C2298 C 0.64131 0.85412 0.23307 0.0
C2299 C 0.61943 0.8315 0.19501 0.0
C2300 C 0.62333 0.83852 0.21345 0.0
C2301 C 0.64186 0.85021 0.2676 0.0
C2302 C 0.63441 0.84754 0.24905 0.0
H2303 H 0.63875 0.81792 0.1566 0.0
H2304 H 0.64379 0.83366 0.18411 0.0
H2305 H 0.64153 0.85493 0.20357 0.0
H2306 H 0.66402 0.87751 0.29146 0.0
H2307 H 0.64926 0.87451 0.26243 0.0
C2308 C 0.10491 0.66522 0.2775 0.0
C2309 C 0.11224 0.66328 0.29491 0.0
C2310 C 0.10876 0.65509 0.26293 0.0
C2311 C 0.14305 0.63167 0.24721 0.0
H2312 H 0.11436 0.62233 0.2061 0.0
C2313 C 0.16742 0.60836 0.17798 0.0
C2314 C 0.16187 0.61681 0.16243 0.0
C2315 C 0.15975 0.61 0.19502 0.0
C2316 C 0.12251 0.62482 0.2175 0.0
H2317 H 0.12838 0.64847 0.31112 0.0
H2318 H 0.13504 0.63062 0.2856 0.0
H2319 H 0.10315 0.63167 0.23532 0.0
H2320 H 0.1435 0.63313 0.15246 0.0
H2321 H 0.13024 0.6361 0.18221 0.0
H2322 H 0.16244 0.6254 0.22924 0.0
C2323 C 0.1265 0.64015 0.28318 0.0
C2324 C 0.1161 0.63015 0.23422 0.0
C2325 C 0.12262 0.65031 0.29782 0.0
C2326 C 0.14813 0.62649 0.16416 0.0
C2327 C 0.14043 0.62809 0.18119 0.0
C2328 C 0.14945 0.6263 0.23053 0.0
C2329 C 0.12002 0.64277 0.26542 0.0
C2330 C 0.12635 0.63415 0.24907 0.0
C2331 C 0.14633 0.62008 0.19687 0.0
C2332 C 0.13929 0.62331 0.21531 0.0
H2333 H 0.09679 0.67505 0.27485 0.0
H2334 H 0.10365 0.65757 0.24943 0.0
H2335 H 0.15133 0.63483 0.25825 0.0
H2336 H 0.17791 0.60071 0.17712 0.0
H2337 H 0.16447 0.60356 0.20683 0.0
C2338 C 0.32805 0.12691 0.30226 0.0
C2339 C 0.31305 0.11916 0.30156 0.0
C2340 C 0.33683 0.12948 0.28613 0.0
C2341 C 0.3395 0.11879 0.23622 0.0
H2342 H 0.35638 0.16148 0.2321 0.0
C2343 C 0.35116 0.15139 0.16726 0.0
C2344 C 0.36344 0.16286 0.16691 0.0
C2345 C 0.34814 0.14285 0.18344 0.0
C2346 C 0.35208 0.14939 0.23309 0.0
H2347 H 0.29581 0.10748 0.28343 0.0
H2348 H 0.3109 0.11238 0.25524 0.0
H2349 H 0.34511 0.15275 0.26113 0.0
H2350 H 0.38328 0.17317 0.18244 0.0
H2351 H 0.37828 0.15802 0.21045 0.0
H2352 H 0.34598 0.11578 0.20776 0.0
C2353 C 0.31603 0.11622 0.26829 0.0
C2354 C 0.34559 0.14436 0.24979 0.0
C2355 C 0.30731 0.11353 0.28445 0.0
C2356 C 0.37357 0.16458 0.1824 0.0
C2357 C 0.37066 0.15596 0.19848 0.0
C2358 C 0.34598 0.12386 0.2194 0.0
C2359 C 0.33075 0.12451 0.26889 0.0
C2360 C 0.33901 0.12909 0.25153 0.0
C2361 C 0.35744 0.14556 0.19946 0.0
C2362 C 0.35216 0.1393 0.21761 0.0
H2363 H 0.33292 0.13121 0.31525 0.0
H2364 H 0.34827 0.13563 0.28713 0.0
H2365 H 0.33471 0.10688 0.23716 0.0
H2366 H 0.34317 0.14982 0.1555 0.0
H2367 H 0.33784 0.13496 0.18376 0.0
loop_
_geom_bond_atom_site_label_1
_geom_bond_atom_site_label_2
_geom_bond_distance
_geom_bond_site_symmetry_2
_ccdc_geom_bond_type
C0 O1 1.306 . S
C0 O3 1.160 . S
O1 C0 1.306 . S
O1 Cd2 2.228 . S
Cd2 O1 2.228 . S
Cd2 O6 2.273 . S
Cd2 O10 2.277 . S
O3 C0 1.160 . S
O3 Cd4 2.203 . S
Cd4 O3 2.203 . S
Cd4 O6 2.411 . S
Cd4 O7 2.333 . S
Cd4 O8 2.352 . S
Cd4 O12 2.277 . S
Cd4 O13 2.356 . S
C5 O10 1.209 . S
C5 O12 1.226 . S
O6 Cd2 2.273 . S
O6 Cd4 2.411 . S
O6 C9 1.320 . S
O7 Cd4 2.333 . S
O7 C9 1.214 . S
O8 Cd4 2.352 . S
O8 C11 1.258 . S
C9 O6 1.320 . S
C9 O7 1.214 . S
O10 Cd2 2.277 . S
O10 C5 1.209 . S
C11 O8 1.258 . S
C11 O13 1.282 . S
O12 Cd4 2.277 . S
O12 C5 1.226 . S
O13 Cd4 2.356 . S
O13 C11 1.282 . S
C14 O15 1.306 . S
C14 O17 1.160 . S
O15 C14 1.306 . S
O15 Cd16 2.228 . S
Cd16 O15 2.228 . S
Cd16 O20 2.273 . S
Cd16 O24 2.277 . S
O17 C14 1.160 . S
O17 Cd18 2.203 . S
Cd18 O17 2.203 . S
Cd18 O20 2.411 . S
Cd18 O21 2.333 . S
Cd18 O22 2.352 . S
Cd18 O26 2.277 . S
Cd18 O27 2.356 . S
C19 O24 1.209 . S
C19 O26 1.226 . S
O20 Cd16 2.273 . S
O20 Cd18 2.411 . S
O20 C23 1.320 . S
O21 Cd18 2.333 . S
O21 C23 1.214 . S
O22 Cd18 2.352 . S
O22 C25 1.258 . S
C23 O20 1.320 . S
C23 O21 1.214 . S
O24 Cd16 2.277 . S
O24 C19 1.209 . S
C25 O22 1.258 . S
C25 O27 1.282 . S
O26 Cd18 2.277 . S
O26 C19 1.226 . S
O27 Cd18 2.356 . S
O27 C25 1.282 . S
C28 O29 1.306 . S
C28 O31 1.160 . S
O29 C28 1.306 . S
O29 Cd30 2.228 . S
Cd30 O29 2.228 . S
Cd30 O34 2.273 . S
Cd30 O38 2.277 . S
O31 C28 1.160 . S
O31 Cd32 2.203 . S
Cd32 O31 2.203 . S
Cd32 O34 2.411 . S
Cd32 O35 2.333 . S
Cd32 O36 2.352 . S
Cd32 O40 2.277 . S
Cd32 O41 2.356 . S
C33 O38 1.209 . S
C33 O40 1.226 . S
O34 Cd30 2.273 . S
O34 Cd32 2.411 . S
O34 C37 1.320 . S
O35 Cd32 2.333 . S
O35 C37 1.214 . S
O36 Cd32 2.352 . S
O36 C39 1.258 . S
C37 O34 1.320 . S
C37 O35 1.214 . S
O38 Cd30 2.277 . S
O38 C33 1.209 . S
C39 O36 1.258 . S
C39 O41 1.282 . S
O40 Cd32 2.277 . S
O40 C33 1.226 . S
O41 Cd32 2.356 . S
O41 C39 1.282 . S
C42 O43 1.306 . S
C42 O45 1.160 . S
O43 C42 1.306 . S
O43 Cd44 2.228 . S
Cd44 O43 2.228 . S
Cd44 O48 2.273 . S
Cd44 O52 2.277 . S
O45 C42 1.160 . S
O45 Cd46 2.203 . S
Cd46 O45 2.203 . S
Cd46 O48 2.411 . S
Cd46 O49 2.333 . S
Cd46 O50 2.352 . S
Cd46 O54 2.277 . S
Cd46 O55 2.356 . S
C47 O52 1.209 . S
C47 O54 1.226 . S
O48 Cd44 2.273 . S
O48 Cd46 2.411 . S
O48 C51 1.320 . S
O49 Cd46 2.333 . S
O49 C51 1.214 . S
O50 Cd46 2.352 . S
O50 C53 1.258 . S
C51 O48 1.320 . S
C51 O49 1.214 . S
O52 Cd44 2.277 . S
O52 C47 1.209 . S
C53 O50 1.258 . S
C53 O55 1.282 . S
O54 Cd46 2.277 . S
O54 C47 1.226 . S
O55 Cd46 2.356 . S
O55 C53 1.282 . S
C56 O57 1.306 . S
C56 O59 1.160 . S
O57 C56 1.306 . S
O57 Cd58 2.228 . S
Cd58 O57 2.228 . S
Cd58 O62 2.273 . S
Cd58 O66 2.277 . S
O59 C56 1.160 . S
O59 Cd60 2.203 . S
Cd60 O59 2.203 . S
Cd60 O62 2.411 . S
Cd60 O63 2.333 . S
Cd60 O64 2.352 . S
Cd60 O68 2.277 . S
Cd60 O69 2.356 . S
C61 O66 1.209 . S
C61 O68 1.226 . S
O62 Cd58 2.273 . S
O62 Cd60 2.411 . S
O62 C65 1.320 . S
O63 Cd60 2.333 . S
O63 C65 1.214 . S
O64 Cd60 2.352 . S
O64 C67 1.258 . S
C65 O62 1.320 . S
C65 O63 1.214 . S
O66 Cd58 2.277 . S
O66 C61 1.209 . S
C67 O64 1.258 . S
C67 O69 1.282 . S
O68 Cd60 2.277 . S
O68 C61 1.226 . S
O69 Cd60 2.356 . S
O69 C67 1.282 . S
C70 O71 1.306 . S
C70 O73 1.160 . S
O71 C70 1.306 . S
O71 Cd72 2.228 . S
Cd72 O71 2.228 . S
Cd72 O76 2.273 . S
Cd72 O80 2.277 . S
O73 C70 1.160 . S
O73 Cd74 2.203 . S
Cd74 O73 2.203 . S
Cd74 O76 2.411 . S
Cd74 O77 2.333 . S
Cd74 O78 2.352 . S
Cd74 O82 2.277 . S
Cd74 O83 2.356 . S
C75 O80 1.209 . S
C75 O82 1.226 . S
O76 Cd72 2.273 . S
O76 Cd74 2.411 . S
O76 C79 1.320 . S
O77 Cd74 2.333 . S
O77 C79 1.214 . S
O78 Cd74 2.352 . S
O78 C81 1.258 . S
C79 O76 1.320 . S
C79 O77 1.214 . S
O80 Cd72 2.277 . S
O80 C75 1.209 . S
C81 O78 1.258 . S
C81 O83 1.282 . S
O82 Cd74 2.277 . S
O82 C75 1.226 . S
O83 Cd74 2.356 . S
O83 C81 1.282 . S
C84 O85 1.306 . S
C84 O87 1.160 . S
O85 C84 1.306 . S
O85 Cd86 2.228 . S
Cd86 O85 2.228 . S
Cd86 O90 2.273 . S
Cd86 O94 2.277 . S
O87 C84 1.160 . S
O87 Cd88 2.203 . S
Cd88 O87 2.203 . S
Cd88 O90 2.411 . S
Cd88 O91 2.333 . S
Cd88 O92 2.352 . S
Cd88 O96 2.277 . S
Cd88 O97 2.356 . S
C89 O94 1.209 . S
C89 O96 1.226 . S
O90 Cd86 2.273 . S
O90 Cd88 2.411 . S
O90 C93 1.320 . S
O91 Cd88 2.333 . S
O91 C93 1.214 . S
O92 Cd88 2.352 . S
O92 C95 1.258 . S
C93 O90 1.320 . S
C93 O91 1.214 . S
O94 Cd86 2.277 . S
O94 C89 1.209 . S
C95 O92 1.258 . S
C95 O97 1.282 . S
O96 Cd88 2.277 . S
O96 C89 1.226 . S
O97 Cd88 2.356 . S
O97 C95 1.282 . S
C98 O99 1.306 . S
C98 O101 1.160 . S
O99 C98 1.306 . S
O99 Cd100 2.228 . S
Cd100 O99 2.228 . S
Cd100 O104 2.273 . S
Cd100 O108 2.277 . S
O101 C98 1.160 . S
O101 Cd102 2.203 . S
Cd102 O101 2.203 . S
Cd102 O104 2.411 . S
Cd102 O105 2.333 . S
Cd102 O106 2.352 . S
Cd102 O110 2.277 . S
Cd102 O111 2.356 . S
C103 O108 1.209 . S
C103 O110 1.226 . S
O104 Cd100 2.273 . S
O104 Cd102 2.411 . S
O104 C107 1.320 . S
O105 Cd102 2.333 . S
O105 C107 1.214 . S
O106 Cd102 2.352 . S
O106 C109 1.258 . S
C107 O104 1.320 . S
C107 O105 1.214 . S
O108 Cd100 2.277 . S
O108 C103 1.209 . S
C109 O106 1.258 . S
C109 O111 1.282 . S
O110 Cd102 2.277 . S
O110 C103 1.226 . S
O111 Cd102 2.356 . S
O111 C109 1.282 . S
C112 O113 1.306 . S
C112 O115 1.160 . S
O113 C112 1.306 . S
O113 Cd114 2.228 . S
Cd114 O113 2.228 . S
Cd114 O118 2.273 . S
Cd114 O122 2.277 . S
O115 C112 1.160 . S
O115 Cd116 2.203 . S
Cd116 O115 2.203 . S
Cd116 O118 2.411 . S
Cd116 O119 2.333 . S
Cd116 O120 2.352 . S
Cd116 O124 2.277 . S
Cd116 O125 2.356 . S
C117 O122 1.209 . S
C117 O124 1.226 . S
O118 Cd114 2.273 . S
O118 Cd116 2.411 . S
O118 C121 1.320 . S
O119 Cd116 2.333 . S
O119 C121 1.214 . S
O120 Cd116 2.352 . S
O120 C123 1.258 . S
C121 O118 1.320 . S
C121 O119 1.214 . S
O122 Cd114 2.277 . S
O122 C117 1.209 . S
C123 O120 1.258 . S
C123 O125 1.282 . S
O124 Cd116 2.277 . S
O124 C117 1.226 . S
O125 Cd116 2.356 . S
O125 C123 1.282 . S
C126 O127 1.306 . S
C126 O129 1.160 . S
O127 C126 1.306 . S
O127 Cd128 2.228 . S
Cd128 O127 2.228 . S
Cd128 O132 2.273 . S
Cd128 O136 2.277 . S
O129 C126 1.160 . S
O129 Cd130 2.203 . S
Cd130 O129 2.203 . S
Cd130 O132 2.411 . S
Cd130 O133 2.333 . S
Cd130 O134 2.352 . S
Cd130 O138 2.277 . S
Cd130 O139 2.356 . S
C131 O136 1.209 . S
C131 O138 1.226 . S
O132 Cd128 2.273 . S
O132 Cd130 2.411 . S
O132 C135 1.320 . S
O133 Cd130 2.333 . S
O133 C135 1.214 . S
O134 Cd130 2.352 . S
O134 C137 1.258 . S
C135 O132 1.320 . S
C135 O133 1.214 . S
O136 Cd128 2.277 . S
O136 C131 1.209 . S
C137 O134 1.258 . S
C137 O139 1.282 . S
O138 Cd130 2.277 . S
O138 C131 1.226 . S
O139 Cd130 2.356 . S
O139 C137 1.282 . S
C140 O141 1.306 . S
C140 O143 1.160 . S
O141 C140 1.306 . S
O141 Cd142 2.228 . S
Cd142 O141 2.228 . S
Cd142 O146 2.273 . S
Cd142 O150 2.277 . S
O143 C140 1.160 . S
O143 Cd144 2.203 . S
Cd144 O143 2.203 . S
Cd144 O146 2.411 . S
Cd144 O147 2.333 . S
Cd144 O148 2.352 . S
Cd144 O152 2.277 . S
Cd144 O153 2.356 . S
C145 O150 1.209 . S
C145 O152 1.226 . S
O146 Cd142 2.273 . S
O146 Cd144 2.411 . S
O146 C149 1.320 . S
O147 Cd144 2.333 . S
O147 C149 1.214 . S
O148 Cd144 2.352 . S
O148 C151 1.258 . S
C149 O146 1.320 . S
C149 O147 1.214 . S
O150 Cd142 2.277 . S
O150 C145 1.209 . S
C151 O148 1.258 . S
C151 O153 1.282 . S
O152 Cd144 2.277 . S
O152 C145 1.226 . S
O153 Cd144 2.356 . S
O153 C151 1.282 . S
C154 O155 1.306 . S
C154 O157 1.160 . S
O155 C154 1.306 . S
O155 Cd156 2.228 . S
Cd156 O155 2.228 . S
Cd156 O160 2.273 . S
Cd156 O164 2.277 . S
O157 C154 1.160 . S
O157 Cd158 2.203 . S
Cd158 O157 2.203 . S
Cd158 O160 2.411 . S
Cd158 O161 2.333 . S
Cd158 O162 2.352 . S
Cd158 O166 2.277 . S
Cd158 O167 2.356 . S
C159 O164 1.209 . S
C159 O166 1.226 . S
O160 Cd156 2.273 . S
O160 Cd158 2.411 . S
O160 C163 1.320 . S
O161 Cd158 2.333 . S
O161 C163 1.214 . S
O162 Cd158 2.352 . S
O162 C165 1.258 . S
C163 O160 1.320 . S
C163 O161 1.214 . S
O164 Cd156 2.277 . S
O164 C159 1.209 . S
C165 O162 1.258 . S
C165 O167 1.282 . S
O166 Cd158 2.277 . S
O166 C159 1.226 . S
O167 Cd158 2.356 . S
O167 C165 1.282 . S
C168 O169 1.306 . S
C168 O171 1.160 . S
O169 C168 1.306 . S
O169 Cd170 2.228 . S
Cd170 O169 2.228 . S
Cd170 O174 2.273 . S
Cd170 O178 2.277 . S
O171 C168 1.160 . S
O171 Cd172 2.203 . S
Cd172 O171 2.203 . S
Cd172 O174 2.411 . S
Cd172 O175 2.333 . S
Cd172 O176 2.352 . S
Cd172 O180 2.277 . S
Cd172 O181 2.356 . S
C173 O178 1.209 . S
C173 O180 1.226 . S
O174 Cd170 2.273 . S
O174 Cd172 2.411 . S
O174 C177 1.320 . S
O175 Cd172 2.333 . S
O175 C177 1.214 . S
O176 Cd172 2.352 . S
O176 C179 1.258 . S
C177 O174 1.320 . S
C177 O175 1.214 . S
O178 Cd170 2.277 . S
O178 C173 1.209 . S
C179 O176 1.258 . S
C179 O181 1.282 . S
O180 Cd172 2.277 . S
O180 C173 1.226 . S
O181 Cd172 2.356 . S
O181 C179 1.282 . S
C182 O183 1.306 . S
C182 O185 1.160 . S
O183 C182 1.306 . S
O183 Cd184 2.228 . S
Cd184 O183 2.228 . S
Cd184 O188 2.273 . S
Cd184 O192 2.277 . S
O185 C182 1.160 . S
O185 Cd186 2.203 . S
Cd186 O185 2.203 . S
Cd186 O188 2.411 . S
Cd186 O189 2.333 . S
Cd186 O190 2.352 . S
Cd186 O194 2.277 . S
Cd186 O195 2.356 . S
C187 O192 1.209 . S
C187 O194 1.226 . S
O188 Cd184 2.273 . S
O188 Cd186 2.411 . S
O188 C191 1.320 . S
O189 Cd186 2.333 . S
O189 C191 1.214 . S
O190 Cd186 2.352 . S
O190 C193 1.258 . S
C191 O188 1.320 . S
C191 O189 1.214 . S
O192 Cd184 2.277 . S
O192 C187 1.209 . S
C193 O190 1.258 . S
C193 O195 1.282 . S
O194 Cd186 2.277 . S
O194 C187 1.226 . S
O195 Cd186 2.356 . S
O195 C193 1.282 . S
C196 O197 1.306 . S
C196 O199 1.160 . S
O197 C196 1.306 . S
O197 Cd198 2.228 . S
Cd198 O197 2.228 . S
Cd198 O202 2.273 . S
Cd198 O206 2.277 . S
O199 C196 1.160 . S
O199 Cd200 2.203 . S
Cd200 O199 2.203 . S
Cd200 O202 2.411 . S
Cd200 O203 2.333 . S
Cd200 O204 2.352 . S
Cd200 O208 2.277 . S
Cd200 O209 2.356 . S
C201 O206 1.209 . S
C201 O208 1.226 . S
O202 Cd198 2.273 . S
O202 Cd200 2.411 . S
O202 C205 1.320 . S
O203 Cd200 2.333 . S
O203 C205 1.214 . S
O204 Cd200 2.352 . S
O204 C207 1.258 . S
C205 O202 1.320 . S
C205 O203 1.214 . S
O206 Cd198 2.277 . S
O206 C201 1.209 . S
C207 O204 1.258 . S
C207 O209 1.282 . S
O208 Cd200 2.277 . S
O208 C201 1.226 . S
O209 Cd200 2.356 . S
O209 C207 1.282 . S
C210 O211 1.306 . S
C210 O213 1.160 . S
O211 C210 1.306 . S
O211 Cd212 2.228 . S
Cd212 O211 2.228 . S
Cd212 O216 2.273 . S
Cd212 O220 2.277 . S
O213 C210 1.160 . S
O213 Cd214 2.203 . S
Cd214 O213 2.203 . S
Cd214 O216 2.411 . S
Cd214 O217 2.333 . S
Cd214 O218 2.352 . S
Cd214 O222 2.277 . S
Cd214 O223 2.356 . S
C215 O220 1.209 . S
C215 O222 1.226 . S
O216 Cd212 2.273 . S
O216 Cd214 2.411 . S
O216 C219 1.320 . S
O217 Cd214 2.333 . S
O217 C219 1.214 . S
O218 Cd214 2.352 . S
O218 C221 1.258 . S
C219 O216 1.320 . S
C219 O217 1.214 . S
O220 Cd212 2.277 . S
O220 C215 1.209 . S
C221 O218 1.258 . S
C221 O223 1.282 . S
O222 Cd214 2.277 . S
O222 C215 1.226 . S
O223 Cd214 2.356 . S
O223 C221 1.282 . S
C224 O225 1.306 . S
C224 O227 1.160 . S
O225 C224 1.306 . S
O225 Cd226 2.228 . S
Cd226 O225 2.228 . S
Cd226 O230 2.273 . S
Cd226 O234 2.277 . S
O227 C224 1.160 . S
O227 Cd228 2.203 . S
Cd228 O227 2.203 . S
Cd228 O230 2.411 . S
Cd228 O231 2.333 . S
Cd228 O232 2.352 . S
Cd228 O236 2.277 . S
Cd228 O237 2.356 . S
C229 O234 1.209 . S
C229 O236 1.226 . S
O230 Cd226 2.273 . S
O230 Cd228 2.411 . S
O230 C233 1.320 . S
O231 Cd228 2.333 . S
O231 C233 1.214 . S
O232 Cd228 2.352 . S
O232 C235 1.258 . S
C233 O230 1.320 . S
C233 O231 1.214 . S
O234 Cd226 2.277 . S
O234 C229 1.209 . S
C235 O232 1.258 . S
C235 O237 1.282 . S
O236 Cd228 2.277 . S
O236 C229 1.226 . S
O237 Cd228 2.356 . S
O237 C235 1.282 . S
C238 O239 1.306 . S
C238 O241 1.160 . S
O239 C238 1.306 . S
O239 Cd240 2.228 . S
Cd240 O239 2.228 . S
Cd240 O244 2.273 . S
Cd240 O248 2.277 . S
O241 C238 1.160 . S
O241 Cd242 2.203 . S
Cd242 O241 2.203 . S
Cd242 O244 2.411 . S
Cd242 O245 2.333 . S
Cd242 O246 2.352 . S
Cd242 O250 2.277 . S
Cd242 O251 2.356 . S
C243 O248 1.209 . S
C243 O250 1.226 . S
O244 Cd240 2.273 . S
O244 Cd242 2.411 . S
O244 C247 1.320 . S
O245 Cd242 2.333 . S
O245 C247 1.214 . S
O246 Cd242 2.352 . S
O246 C249 1.258 . S
C247 O244 1.320 . S
C247 O245 1.214 . S
O248 Cd240 2.277 . S
O248 C243 1.209 . S
C249 O246 1.258 . S
C249 O251 1.282 . S
O250 Cd242 2.277 . S
O250 C243 1.226 . S
O251 Cd242 2.356 . S
O251 C249 1.282 . S
C252 O253 1.306 . S
C252 O255 1.160 . S
O253 C252 1.306 . S
O253 Cd254 2.228 . S
Cd254 O253 2.228 . S
Cd254 O258 2.273 . S
Cd254 O262 2.277 . S
O255 C252 1.160 . S
O255 Cd256 2.203 . S
Cd256 O255 2.203 . S
Cd256 O258 2.411 . S
Cd256 O259 2.333 . S
Cd256 O260 2.352 . S
Cd256 O264 2.277 . S
Cd256 O265 2.356 . S
C257 O262 1.209 . S
C257 O264 1.226 . S
O258 Cd254 2.273 . S
O258 Cd256 2.411 . S
O258 C261 1.320 . S
O259 Cd256 2.333 . S
O259 C261 1.214 . S
O260 Cd256 2.352 . S
O260 C263 1.258 . S
C261 O258 1.320 . S
C261 O259 1.214 . S
O262 Cd254 2.277 . S
O262 C257 1.209 . S
C263 O260 1.258 . S
C263 O265 1.282 . S
O264 Cd256 2.277 . S
O264 C257 1.226 . S
O265 Cd256 2.356 . S
O265 C263 1.282 . S
C266 O267 1.306 . S
C266 O269 1.160 . S
O267 C266 1.306 . S
O267 Cd268 2.228 . S
Cd268 O267 2.228 . S
Cd268 O272 2.273 . S
Cd268 O276 2.277 . S
O269 C266 1.160 . S
O269 Cd270 2.203 . S
Cd270 O269 2.203 . S
Cd270 O272 2.411 . S
Cd270 O273 2.333 . S
Cd270 O274 2.352 . S
Cd270 O278 2.277 . S
Cd270 O279 2.356 . S
C271 O276 1.209 . S
C271 O278 1.226 . S
O272 Cd268 2.273 . S
O272 Cd270 2.411 . S
O272 C275 1.320 . S
O273 Cd270 2.333 . S
O273 C275 1.214 . S
O274 Cd270 2.352 . S
O274 C277 1.258 . S
C275 O272 1.320 . S
C275 O273 1.214 . S
O276 Cd268 2.277 . S
O276 C271 1.209 . S
C277 O274 1.258 . S
C277 O279 1.282 . S
O278 Cd270 2.277 . S
O278 C271 1.226 . S
O279 Cd270 2.356 . S
O279 C277 1.282 . S
C280 O281 1.306 . S
C280 O283 1.160 . S
O281 C280 1.306 . S
O281 Cd282 2.228 . S
Cd282 O281 2.228 . S
Cd282 O286 2.273 . S
Cd282 O290 2.277 . S
O283 C280 1.160 . S
O283 Cd284 2.203 . S
Cd284 O283 2.203 . S
Cd284 O286 2.411 . S
Cd284 O287 2.333 . S
Cd284 O288 2.352 . S
Cd284 O292 2.277 . S
Cd284 O293 2.356 . S
C285 O290 1.209 . S
C285 O292 1.226 . S
O286 Cd282 2.273 . S
O286 Cd284 2.411 . S
O286 C289 1.320 . S
O287 Cd284 2.333 . S
O287 C289 1.214 . S
O288 Cd284 2.352 . S
O288 C291 1.258 . S
C289 O286 1.320 . S
C289 O287 1.214 . S
O290 Cd282 2.277 . S
O290 C285 1.209 . S
C291 O288 1.258 . S
C291 O293 1.282 . S
O292 Cd284 2.277 . S
O292 C285 1.226 . S
O293 Cd284 2.356 . S
O293 C291 1.282 . S
C294 O295 1.306 . S
C294 O297 1.160 . S
O295 C294 1.306 . S
O295 Cd296 2.228 . S
Cd296 O295 2.228 . S
Cd296 O300 2.273 . S
Cd296 O304 2.277 . S
O297 C294 1.160 . S
O297 Cd298 2.203 . S
Cd298 O297 2.203 . S
Cd298 O300 2.411 . S
Cd298 O301 2.333 . S
Cd298 O302 2.352 . S
Cd298 O306 2.277 . S
Cd298 O307 2.356 . S
C299 O304 1.209 . S
C299 O306 1.226 . S
O300 Cd296 2.273 . S
O300 Cd298 2.411 . S
O300 C303 1.320 . S
O301 Cd298 2.333 . S
O301 C303 1.214 . S
O302 Cd298 2.352 . S
O302 C305 1.258 . S
C303 O300 1.320 . S
C303 O301 1.214 . S
O304 Cd296 2.277 . S
O304 C299 1.209 . S
C305 O302 1.258 . S
C305 O307 1.282 . S
O306 Cd298 2.277 . S
O306 C299 1.226 . S
O307 Cd298 2.356 . S
O307 C305 1.282 . S
C308 O309 1.306 . S
C308 O311 1.160 . S
O309 C308 1.306 . S
O309 Cd310 2.228 . S
Cd310 O309 2.228 . S
Cd310 O314 2.273 . S
Cd310 O318 2.277 . S
O311 C308 1.160 . S
O311 Cd312 2.203 . S
Cd312 O311 2.203 . S
Cd312 O314 2.411 . S
Cd312 O315 2.333 . S
Cd312 O316 2.352 . S
Cd312 O320 2.277 . S
Cd312 O321 2.356 . S
C313 O318 1.209 . S
C313 O320 1.226 . S
O314 Cd310 2.273 . S
O314 Cd312 2.411 . S
O314 C317 1.320 . S
O315 Cd312 2.333 . S
O315 C317 1.214 . S
O316 Cd312 2.352 . S
O316 C319 1.258 . S
C317 O314 1.320 . S
C317 O315 1.214 . S
O318 Cd310 2.277 . S
O318 C313 1.209 . S
C319 O316 1.258 . S
C319 O321 1.282 . S
O320 Cd312 2.277 . S
O320 C313 1.226 . S
O321 Cd312 2.356 . S
O321 C319 1.282 . S
C322 O323 1.306 . S
C322 O325 1.160 . S
O323 C322 1.306 . S
O323 Cd324 2.228 . S
Cd324 O323 2.228 . S
Cd324 O328 2.273 . S
Cd324 O332 2.277 . S
O325 C322 1.160 . S
O325 Cd326 2.203 . S
Cd326 O325 2.203 . S
Cd326 O328 2.411 . S
Cd326 O329 2.333 . S
Cd326 O330 2.352 . S
Cd326 O334 2.277 . S
Cd326 O335 2.356 . S
C327 O332 1.209 . S
C327 O334 1.226 . S
O328 Cd324 2.273 . S
O328 Cd326 2.411 . S
O328 C331 1.320 . S
O329 Cd326 2.333 . S
O329 C331 1.214 . S
O330 Cd326 2.352 . S
O330 C333 1.258 . S
C331 O328 1.320 . S
C331 O329 1.214 . S
O332 Cd324 2.277 . S
O332 C327 1.209 . S
C333 O330 1.258 . S
C333 O335 1.282 . S
O334 Cd326 2.277 . S
O334 C327 1.226 . S
O335 Cd326 2.356 . S
O335 C333 1.282 . S
C336 O337 1.306 . S
C336 O339 1.160 . S
O337 C336 1.306 . S
O337 Cd338 2.228 . S
Cd338 O337 2.228 . S
Cd338 O342 2.273 . S
Cd338 O346 2.277 . S
O339 C336 1.160 . S
O339 Cd340 2.203 . S
Cd340 O339 2.203 . S
Cd340 O342 2.411 . S
Cd340 O343 2.333 . S
Cd340 O344 2.352 . S
Cd340 O348 2.277 . S
Cd340 O349 2.356 . S
C341 O346 1.209 . S
C341 O348 1.226 . S
O342 Cd338 2.273 . S
O342 Cd340 2.411 . S
O342 C345 1.320 . S
O343 Cd340 2.333 . S
O343 C345 1.214 . S
O344 Cd340 2.352 . S
O344 C347 1.258 . S
C345 O342 1.320 . S
C345 O343 1.214 . S
O346 Cd338 2.277 . S
O346 C341 1.209 . S
C347 O344 1.258 . S
C347 O349 1.282 . S
O348 Cd340 2.277 . S
O348 C341 1.226 . S
O349 Cd340 2.356 . S
O349 C347 1.282 . S
C350 O351 1.306 . S
C350 O353 1.160 . S
O351 C350 1.306 . S
O351 Cd352 2.228 . S
Cd352 O351 2.228 . S
Cd352 O356 2.273 . S
Cd352 O360 2.277 . S
O353 C350 1.160 . S
O353 Cd354 2.203 . S
Cd354 O353 2.203 . S
Cd354 O356 2.411 . S
Cd354 O357 2.333 . S
Cd354 O358 2.352 . S
Cd354 O362 2.277 . S
Cd354 O363 2.356 . S
C355 O360 1.209 . S
C355 O362 1.226 . S
O356 Cd352 2.273 . S
O356 Cd354 2.411 . S
O356 C359 1.320 . S
O357 Cd354 2.333 . S
O357 C359 1.214 . S
O358 Cd354 2.352 . S
O358 C361 1.258 . S
C359 O356 1.320 . S
C359 O357 1.214 . S
O360 Cd352 2.277 . S
O360 C355 1.209 . S
C361 O358 1.258 . S
C361 O363 1.282 . S
O362 Cd354 2.277 . S
O362 C355 1.226 . S
O363 Cd354 2.356 . S
O363 C361 1.282 . S
C364 O365 1.306 . S
C364 O367 1.160 . S
O365 C364 1.306 . S
O365 Cd366 2.228 . S
Cd366 O365 2.228 . S
Cd366 O370 2.273 . S
Cd366 O374 2.277 . S
O367 C364 1.160 . S
O367 Cd368 2.203 . S
Cd368 O367 2.203 . S
Cd368 O370 2.411 . S
Cd368 O371 2.333 . S
Cd368 O372 2.352 . S
Cd368 O376 2.277 . S
Cd368 O377 2.356 . S
C369 O374 1.209 . S
C369 O376 1.226 . S
O370 Cd366 2.273 . S
O370 Cd368 2.411 . S
O370 C373 1.320 . S
O371 Cd368 2.333 . S
O371 C373 1.214 . S
O372 Cd368 2.352 . S
O372 C375 1.258 . S
C373 O370 1.320 . S
C373 O371 1.214 . S
O374 Cd366 2.277 . S
O374 C369 1.209 . S
C375 O372 1.258 . S
C375 O377 1.282 . S
O376 Cd368 2.277 . S
O376 C369 1.226 . S
O377 Cd368 2.356 . S
O377 C375 1.282 . S
C378 O379 1.306 . S
C378 O381 1.160 . S
O379 C378 1.306 . S
O379 Cd380 2.228 . S
Cd380 O379 2.228 . S
Cd380 O384 2.273 . S
Cd380 O388 2.277 . S
O381 C378 1.160 . S
O381 Cd382 2.203 . S
Cd382 O381 2.203 . S
Cd382 O384 2.411 . S
Cd382 O385 2.333 . S
Cd382 O386 2.352 . S
Cd382 O390 2.277 . S
Cd382 O391 2.356 . S
C383 O388 1.209 . S
C383 O390 1.226 . S
O384 Cd380 2.273 . S
O384 Cd382 2.411 . S
O384 C387 1.320 . S
O385 Cd382 2.333 . S
O385 C387 1.214 . S
O386 Cd382 2.352 . S
O386 C389 1.258 . S
C387 O384 1.320 . S
C387 O385 1.214 . S
O388 Cd380 2.277 . S
O388 C383 1.209 . S
C389 O386 1.258 . S
C389 O391 1.282 . S
O390 Cd382 2.277 . S
O390 C383 1.226 . S
O391 Cd382 2.356 . S
O391 C389 1.282 . S
C392 O393 1.306 . S
C392 O395 1.160 . S
O393 C392 1.306 . S
O393 Cd394 2.228 . S
Cd394 O393 2.228 . S
Cd394 O398 2.273 . S
Cd394 O402 2.277 . S
O395 C392 1.160 . S
O395 Cd396 2.203 . S
Cd396 O395 2.203 . S
Cd396 O398 2.411 . S
Cd396 O399 2.333 . S
Cd396 O400 2.352 . S
Cd396 O404 2.277 . S
Cd396 O405 2.356 . S
C397 O402 1.209 . S
C397 O404 1.226 . S
O398 Cd394 2.273 . S
O398 Cd396 2.411 . S
O398 C401 1.320 . S
O399 Cd396 2.333 . S
O399 C401 1.214 . S
O400 Cd396 2.352 . S
O400 C403 1.258 . S
C401 O398 1.320 . S
C401 O399 1.214 . S
O402 Cd394 2.277 . S
O402 C397 1.209 . S
C403 O400 1.258 . S
C403 O405 1.282 . S
O404 Cd396 2.277 . S
O404 C397 1.226 . S
O405 Cd396 2.356 . S
O405 C403 1.282 . S
C406 O407 1.306 . S
C406 O409 1.160 . S
O407 C406 1.306 . S
O407 Cd408 2.228 . S
Cd408 O407 2.228 . S
Cd408 O412 2.273 . S
Cd408 O416 2.277 . S
O409 C406 1.160 . S
O409 Cd410 2.203 . S
Cd410 O409 2.203 . S
Cd410 O412 2.411 . S
Cd410 O413 2.333 . S
Cd410 O414 2.352 . S
Cd410 O418 2.277 . S
Cd410 O419 2.356 . S
C411 O416 1.209 . S
C411 O418 1.226 . S
O412 Cd408 2.273 . S
O412 Cd410 2.411 . S
O412 C415 1.320 . S
O413 Cd410 2.333 . S
O413 C415 1.214 . S
O414 Cd410 2.352 . S
O414 C417 1.258 . S
C415 O412 1.320 . S
C415 O413 1.214 . S
O416 Cd408 2.277 . S
O416 C411 1.209 . S
C417 O414 1.258 . S
C417 O419 1.282 . S
O418 Cd410 2.277 . S
O418 C411 1.226 . S
O419 Cd410 2.356 . S
O419 C417 1.282 . S
C420 O421 1.306 . S
C420 O423 1.160 . S
O421 C420 1.306 . S
O421 Cd422 2.228 . S
Cd422 O421 2.228 . S
Cd422 O426 2.273 . S
Cd422 O430 2.277 . S
O423 C420 1.160 . S
O423 Cd424 2.203 . S
Cd424 O423 2.203 . S
Cd424 O426 2.411 . S
Cd424 O427 2.333 . S
Cd424 O428 2.352 . S
Cd424 O432 2.277 . S
Cd424 O433 2.356 . S
C425 O430 1.209 . S
C425 O432 1.226 . S
O426 Cd422 2.273 . S
O426 Cd424 2.411 . S
O426 C429 1.320 . S
O427 Cd424 2.333 . S
O427 C429 1.214 . S
O428 Cd424 2.352 . S
O428 C431 1.258 . S
C429 O426 1.320 . S
C429 O427 1.214 . S
O430 Cd422 2.277 . S
O430 C425 1.209 . S
C431 O428 1.258 . S
C431 O433 1.282 . S
O432 Cd424 2.277 . S
O432 C425 1.226 . S
O433 Cd424 2.356 . S
O433 C431 1.282 . S
C434 O435 1.306 . S
C434 O437 1.160 . S
O435 C434 1.306 . S
O435 Cd436 2.228 . S
Cd436 O435 2.228 . S
Cd436 O440 2.273 . S
Cd436 O444 2.277 . S
O437 C434 1.160 . S
O437 Cd438 2.203 . S
Cd438 O437 2.203 . S
Cd438 O440 2.411 . S
Cd438 O441 2.333 . S
Cd438 O442 2.352 . S
Cd438 O446 2.277 . S
Cd438 O447 2.356 . S
C439 O444 1.209 . S
C439 O446 1.226 . S
O440 Cd436 2.273 . S
O440 Cd438 2.411 . S
O440 C443 1.320 . S
O441 Cd438 2.333 . S
O441 C443 1.214 . S
O442 Cd438 2.352 . S
O442 C445 1.258 . S
C443 O440 1.320 . S
C443 O441 1.214 . S
O444 Cd436 2.277 . S
O444 C439 1.209 . S
C445 O442 1.258 . S
C445 O447 1.282 . S
O446 Cd438 2.277 . S
O446 C439 1.226 . S
O447 Cd438 2.356 . S
O447 C445 1.282 . S
C448 C449 1.349 . S
C448 C450 1.327 . S
C448 H473 0.950 . S
C449 C448 1.349 . S
C449 C465 1.349 . S
C450 C448 1.327 . S
C450 C469 1.429 . S
C450 H474 0.950 . S
C451 C468 1.574 . S
C451 C470 1.368 . S
C451 H475 0.949 . S
H452 C456 0.949 . S
C453 C454 1.349 . S
C453 C455 1.327 . S
C453 H476 0.950 . S
C454 C453 1.349 . S
C454 C466 1.349 . S
C455 C453 1.327 . S
C455 C471 1.429 . S
C455 H477 0.950 . S
C456 H452 0.949 . S
C456 C464 1.574 . S
C456 C472 1.368 . S
H457 C465 0.950 . S
H458 C463 0.950 . S
H459 C464 0.949 . S
H460 C466 0.950 . S
H461 C467 0.950 . S
H462 C468 0.949 . S
C463 H458 0.950 . S
C463 C465 1.327 . S
C463 C469 1.429 . S
C464 C456 1.574 . S
C464 H459 0.949 . S
C464 C470 1.368 . S
C465 C449 1.349 . S
C465 H457 0.950 . S
C465 C463 1.327 . S
C466 C454 1.349 . S
C466 H460 0.950 . S
C466 C467 1.327 . S
C467 H461 0.950 . S
C467 C466 1.327 . S
C467 C471 1.429 . S
C468 C451 1.574 . S
C468 H462 0.949 . S
C468 C472 1.368 . S
C469 C450 1.429 . S
C469 C463 1.429 . S
C469 C470 1.523 . S
C470 C451 1.368 . S
C470 C464 1.368 . S
C470 C469 1.523 . S
C471 C455 1.429 . S
C471 C467 1.429 . S
C471 C472 1.523 . S
C472 C456 1.368 . S
C472 C468 1.368 . S
C472 C471 1.523 . S
H473 C448 0.950 . S
H474 C450 0.950 . S
H475 C451 0.949 . S
H476 C453 0.950 . S
H477 C455 0.950 . S
C478 C479 1.349 . S
C478 C480 1.327 . S
C478 H503 0.950 . S
C479 C478 1.349 . S
C479 C495 1.349 . S
C480 C478 1.327 . S
C480 C499 1.429 . S
C480 H504 0.950 . S
C481 C498 1.574 . S
C481 C500 1.368 . S
C481 H505 0.949 . S
H482 C486 0.949 . S
C483 C484 1.349 . S
C483 C485 1.327 . S
C483 H506 0.950 . S
C484 C483 1.349 . S
C484 C496 1.349 . S
C485 C483 1.327 . S
C485 C501 1.429 . S
C485 H507 0.950 . S
C486 H482 0.949 . S
C486 C494 1.574 . S
C486 C502 1.368 . S
H487 C495 0.950 . S
H488 C493 0.950 . S
H489 C494 0.949 . S
H490 C496 0.950 . S
H491 C497 0.950 . S
H492 C498 0.949 . S
C493 H488 0.950 . S
C493 C495 1.327 . S
C493 C499 1.429 . S
C494 C486 1.574 . S
C494 H489 0.949 . S
C494 C500 1.368 . S
C495 C479 1.349 . S
C495 H487 0.950 . S
C495 C493 1.327 . S
C496 C484 1.349 . S
C496 H490 0.950 . S
C496 C497 1.327 . S
C497 H491 0.950 . S
C497 C496 1.327 . S
C497 C501 1.429 . S
C498 C481 1.574 . S
C498 H492 0.949 . S
C498 C502 1.368 . S
C499 C480 1.429 . S
C499 C493 1.429 . S
C499 C500 1.523 . S
C500 C481 1.368 . S
C500 C494 1.368 . S
C500 C499 1.523 . S
C501 C485 1.429 . S
C501 C497 1.429 . S
C501 C502 1.523 . S
C502 C486 1.368 . S
C502 C498 1.368 . S
C502 C501 1.523 . S
H503 C478 0.950 . S
H504 C480 0.950 . S
H505 C481 0.949 . S
H506 C483 0.950 . S
H507 C485 0.950 . S
C508 C509 1.349 . S
C508 C510 1.327 . S
C508 H533 0.950 . S
C509 C508 1.349 . S
C509 C525 1.349 . S
C510 C508 1.327 . S
C510 C529 1.429 . S
C510 H534 0.950 . S
C511 C528 1.574 . S
C511 C530 1.368 . S
C511 H535 0.949 . S
H512 C516 0.949 . S
C513 C514 1.349 . S
C513 C515 1.327 . S
C513 H536 0.950 . S
C514 C513 1.349 . S
C514 C526 1.349 . S
C515 C513 1.327 . S
C515 C531 1.429 . S
C515 H537 0.950 . S
C516 H512 0.949 . S
C516 C524 1.574 . S
C516 C532 1.368 . S
H517 C525 0.950 . S
H518 C523 0.950 . S
H519 C524 0.949 . S
H520 C526 0.950 . S
H521 C527 0.950 . S
H522 C528 0.949 . S
C523 H518 0.950 . S
C523 C525 1.327 . S
C523 C529 1.429 . S
C524 C516 1.574 . S
C524 H519 0.949 . S
C524 C530 1.368 . S
C525 C509 1.349 . S
C525 H517 0.950 . S
C525 C523 1.327 . S
C526 C514 1.349 . S
C526 H520 0.950 . S
C526 C527 1.327 . S
C527 H521 0.950 . S
C527 C526 1.327 . S
C527 C531 1.429 . S
C528 C511 1.574 . S
C528 H522 0.949 . S
C528 C532 1.368 . S
C529 C510 1.429 . S
C529 C523 1.429 . S
C529 C530 1.523 . S
C530 C511 1.368 . S
C530 C524 1.368 . S
C530 C529 1.523 . S
C531 C515 1.429 . S
C531 C527 1.429 . S
C531 C532 1.523 . S
C532 C516 1.368 . S
C532 C528 1.368 . S
C532 C531 1.523 . S
H533 C508 0.950 . S
H534 C510 0.950 . S
H535 C511 0.949 . S
H536 C513 0.950 . S
H537 C515 0.950 . S
C538 C539 1.349 . S
C538 C540 1.327 . S
C538 H563 0.950 . S
C539 C538 1.349 . S
C539 C555 1.349 . S
C540 C538 1.327 . S
C540 C559 1.429 . S
C540 H564 0.950 . S
C541 C558 1.574 . S
C541 C560 1.368 . S
C541 H565 0.949 . S
H542 C546 0.949 . S
C543 C544 1.349 . S
C543 C545 1.327 . S
C543 H566 0.950 . S
C544 C543 1.349 . S
C544 C556 1.349 . S
C545 C543 1.327 . S
C545 C561 1.429 . S
C545 H567 0.950 . S
C546 H542 0.949 . S
C546 C554 1.574 . S
C546 C562 1.368 . S
H547 C555 0.950 . S
H548 C553 0.950 . S
H549 C554 0.949 . S
H550 C556 0.950 . S
H551 C557 0.950 . S
H552 C558 0.949 . S
C553 H548 0.950 . S
C553 C555 1.327 . S
C553 C559 1.429 . S
C554 C546 1.574 . S
C554 H549 0.949 . S
C554 C560 1.368 . S
C555 C539 1.349 . S
C555 H547 0.950 . S
C555 C553 1.327 . S
C556 C544 1.349 . S
C556 H550 0.950 . S
C556 C557 1.327 . S
C557 H551 0.950 . S
C557 C556 1.327 . S
C557 C561 1.429 . S
C558 C541 1.574 . S
C558 H552 0.949 . S
C558 C562 1.368 . S
C559 C540 1.429 . S
C559 C553 1.429 . S
C559 C560 1.523 . S
C560 C541 1.368 . S
C560 C554 1.368 . S
C560 C559 1.523 . S
C561 C545 1.429 . S
C561 C557 1.429 . S
C561 C562 1.523 . S
C562 C546 1.368 . S
C562 C558 1.368 . S
C562 C561 1.523 . S
H563 C538 0.950 . S
H564 C540 0.950 . S
H565 C541 0.949 . S
H566 C543 0.950 . S
H567 C545 0.950 . S
C568 C569 1.349 . S
C568 C570 1.327 . S
C568 H593 0.950 . S
C569 C568 1.349 . S
C569 C585 1.349 . S
C570 C568 1.327 . S
C570 C589 1.429 . S
C570 H594 0.950 . S
C571 C588 1.574 . S
C571 C590 1.368 . S
C571 H595 0.949 . S
H572 C576 0.949 . S
C573 C574 1.349 . S
C573 C575 1.327 . S
C573 H596 0.950 . S
C574 C573 1.349 . S
C574 C586 1.349 . S
C575 C573 1.327 . S
C575 C591 1.429 . S
C575 H597 0.950 . S
C576 H572 0.949 . S
C576 C584 1.574 . S
C576 C592 1.368 . S
H577 C585 0.950 . S
H578 C583 0.950 . S
H579 C584 0.949 . S
H580 C586 0.950 . S
H581 C587 0.950 . S
H582 C588 0.949 . S
C583 H578 0.950 . S
C583 C585 1.327 . S
C583 C589 1.429 . S
C584 C576 1.574 . S
C584 H579 0.949 . S
C584 C590 1.368 . S
C585 C569 1.349 . S
C585 H577 0.950 . S
C585 C583 1.327 . S
C586 C574 1.349 . S
C586 H580 0.950 . S
C586 C587 1.327 . S
C587 H581 0.950 . S
C587 C586 1.327 . S
C587 C591 1.429 . S
C588 C571 1.574 . S
C588 H582 0.949 . S
C588 C592 1.368 . S
C589 C570 1.429 . S
C589 C583 1.429 . S
C589 C590 1.523 . S
C590 C571 1.368 . S
C590 C584 1.368 . S
C590 C589 1.523 . S
C591 C575 1.429 . S
C591 C587 1.429 . S
C591 C592 1.523 . S
C592 C576 1.368 . S
C592 C588 1.368 . S
C592 C591 1.523 . S
H593 C568 0.950 . S
H594 C570 0.950 . S
H595 C571 0.949 . S
H596 C573 0.950 . S
H597 C575 0.950 . S
C598 C599 1.349 . S
C598 C600 1.327 . S
C598 H623 0.950 . S
C599 C598 1.349 . S
C599 C615 1.349 . S
C600 C598 1.327 . S
C600 C619 1.429 . S
C600 H624 0.950 . S
C601 C618 1.574 . S
C601 C620 1.368 . S
C601 H625 0.949 . S
H602 C606 0.949 . S
C603 C604 1.349 . S
C603 C605 1.327 . S
C603 H626 0.950 . S
C604 C603 1.349 . S
C604 C616 1.349 . S
C605 C603 1.327 . S
C605 C621 1.429 . S
C605 H627 0.950 . S
C606 H602 0.949 . S
C606 C614 1.574 . S
C606 C622 1.368 . S
H607 C615 0.950 . S
H608 C613 0.950 . S
H609 C614 0.949 . S
H610 C616 0.950 . S
H611 C617 0.950 . S
H612 C618 0.949 . S
C613 H608 0.950 . S
C613 C615 1.327 . S
C613 C619 1.429 . S
C614 C606 1.574 . S
C614 H609 0.949 . S
C614 C620 1.368 . S
C615 C599 1.349 . S
C615 H607 0.950 . S
C615 C613 1.327 . S
C616 C604 1.349 . S
C616 H610 0.950 . S
C616 C617 1.327 . S
C617 H611 0.950 . S
C617 C616 1.327 . S
C617 C621 1.429 . S
C618 C601 1.574 . S
C618 H612 0.949 . S
C618 C622 1.368 . S
C619 C600 1.429 . S
C619 C613 1.429 . S
C619 C620 1.523 . S
C620 C601 1.368 . S
C620 C614 1.368 . S
C620 C619 1.523 . S
C621 C605 1.429 . S
C621 C617 1.429 . S
C621 C622 1.523 . S
C622 C606 1.368 . S
C622 C618 1.368 . S
C622 C621 1.523 . S
H623 C598 0.950 . S
H624 C600 0.950 . S
H625 C601 0.949 . S
H626 C603 0.950 . S
H627 C605 0.950 . S
C628 C629 1.349 . S
C628 C630 1.327 . S
C628 H653 0.950 . S
C629 C628 1.349 . S
C629 C645 1.349 . S
C630 C628 1.327 . S
C630 C649 1.429 . S
C630 H654 0.950 . S
C631 C648 1.574 . S
C631 C650 1.368 . S
C631 H655 0.949 . S
H632 C636 0.949 . S
C633 C634 1.349 . S
C633 C635 1.327 . S
C633 H656 0.950 . S
C634 C633 1.349 . S
C634 C646 1.349 . S
C635 C633 1.327 . S
C635 C651 1.429 . S
C635 H657 0.950 . S
C636 H632 0.949 . S
C636 C644 1.574 . S
C636 C652 1.368 . S
H637 C645 0.950 . S
H638 C643 0.950 . S
H639 C644 0.949 . S
H640 C646 0.950 . S
H641 C647 0.950 . S
H642 C648 0.949 . S
C643 H638 0.950 . S
C643 C645 1.327 . S
C643 C649 1.429 . S
C644 C636 1.574 . S
C644 H639 0.949 . S
C644 C650 1.368 . S
C645 C629 1.349 . S
C645 H637 0.950 . S
C645 C643 1.327 . S
C646 C634 1.349 . S
C646 H640 0.950 . S
C646 C647 1.327 . S
C647 H641 0.950 . S
C647 C646 1.327 . S
C647 C651 1.429 . S
C648 C631 1.574 . S
C648 H642 0.949 . S
C648 C652 1.368 . S
C649 C630 1.429 . S
C649 C643 1.429 . S
C649 C650 1.523 . S
C650 C631 1.368 . S
C650 C644 1.368 . S
C650 C649 1.523 . S
C651 C635 1.429 . S
C651 C647 1.429 . S
C651 C652 1.523 . S
C652 C636 1.368 . S
C652 C648 1.368 . S
C652 C651 1.523 . S
H653 C628 0.950 . S
H654 C630 0.950 . S
H655 C631 0.949 . S
H656 C633 0.950 . S
H657 C635 0.950 . S
C658 C659 1.349 . S
C658 C660 1.327 . S
C658 H683 0.950 . S
C659 C658 1.349 . S
C659 C675 1.349 . S
C660 C658 1.327 . S
C660 C679 1.429 . S
C660 H684 0.950 . S
C661 C678 1.574 . S
C661 C680 1.368 . S
C661 H685 0.949 . S
H662 C666 0.949 . S
C663 C664 1.349 . S
C663 C665 1.327 . S
C663 H686 0.950 . S
C664 C663 1.349 . S
C664 C676 1.349 . S
C665 C663 1.327 . S
C665 C681 1.429 . S
C665 H687 0.950 . S
C666 H662 0.949 . S
C666 C674 1.574 . S
C666 C682 1.368 . S
H667 C675 0.950 . S
H668 C673 0.950 . S
H669 C674 0.949 . S
H670 C676 0.950 . S
H671 C677 0.950 . S
H672 C678 0.949 . S
C673 H668 0.950 . S
C673 C675 1.327 . S
C673 C679 1.429 . S
C674 C666 1.574 . S
C674 H669 0.949 . S
C674 C680 1.368 . S
C675 C659 1.349 . S
C675 H667 0.950 . S
C675 C673 1.327 . S
C676 C664 1.349 . S
C676 H670 0.950 . S
C676 C677 1.327 . S
C677 H671 0.950 . S
C677 C676 1.327 . S
C677 C681 1.429 . S
C678 C661 1.574 . S
C678 H672 0.949 . S
C678 C682 1.368 . S
C679 C660 1.429 . S
C679 C673 1.429 . S
C679 C680 1.523 . S
C680 C661 1.368 . S
C680 C674 1.368 . S
C680 C679 1.523 . S
C681 C665 1.429 . S
C681 C677 1.429 . S
C681 C682 1.523 . S
C682 C666 1.368 . S
C682 C678 1.368 . S
C682 C681 1.523 . S
H683 C658 0.950 . S
H684 C660 0.950 . S
H685 C661 0.949 . S
H686 C663 0.950 . S
H687 C665 0.950 . S
C688 C689 1.349 . S
C688 C690 1.327 . S
C688 H713 0.950 . S
C689 C688 1.349 . S
C689 C705 1.349 . S
C690 C688 1.327 . S
C690 C709 1.429 . S
C690 H714 0.950 . S
C691 C708 1.574 . S
C691 C710 1.368 . S
C691 H715 0.949 . S
H692 C696 0.949 . S
C693 C694 1.349 . S
C693 C695 1.327 . S
C693 H716 0.950 . S
C694 C693 1.349 . S
C694 C706 1.349 . S
C695 C693 1.327 . S
C695 C711 1.429 . S
C695 H717 0.950 . S
C696 H692 0.949 . S
C696 C704 1.574 . S
C696 C712 1.368 . S
H697 C705 0.950 . S
H698 C703 0.950 . S
H699 C704 0.949 . S
H700 C706 0.950 . S
H701 C707 0.950 . S
H702 C708 0.949 . S
C703 H698 0.950 . S
C703 C705 1.327 . S
C703 C709 1.429 . S
C704 C696 1.574 . S
C704 H699 0.949 . S
C704 C710 1.368 . S
C705 C689 1.349 . S
C705 H697 0.950 . S
C705 C703 1.327 . S
C706 C694 1.349 . S
C706 H700 0.950 . S
C706 C707 1.327 . S
C707 H701 0.950 . S
C707 C706 1.327 . S
C707 C711 1.429 . S
C708 C691 1.574 . S
C708 H702 0.949 . S
C708 C712 1.368 . S
C709 C690 1.429 . S
C709 C703 1.429 . S
C709 C710 1.523 . S
C710 C691 1.368 . S
C710 C704 1.368 . S
C710 C709 1.523 . S
C711 C695 1.429 . S
C711 C707 1.429 . S
C711 C712 1.523 . S
C712 C696 1.368 . S
C712 C708 1.368 . S
C712 C711 1.523 . S
H713 C688 0.950 . S
H714 C690 0.950 . S
H715 C691 0.949 . S
H716 C693 0.950 . S
H717 C695 0.950 . S
C718 C719 1.349 . S
C718 C720 1.327 . S
C718 H743 0.950 . S
C719 C718 1.349 . S
C719 C735 1.349 . S
C720 C718 1.327 . S
C720 C739 1.429 . S
C720 H744 0.950 . S
C721 C738 1.574 . S
C721 C740 1.368 . S
C721 H745 0.949 . S
H722 C726 0.949 . S
C723 C724 1.349 . S
C723 C725 1.327 . S
C723 H746 0.950 . S
C724 C723 1.349 . S
C724 C736 1.349 . S
C725 C723 1.327 . S
C725 C741 1.429 . S
C725 H747 0.950 . S
C726 H722 0.949 . S
C726 C734 1.574 . S
C726 C742 1.368 . S
H727 C735 0.950 . S
H728 C733 0.950 . S
H729 C734 0.949 . S
H730 C736 0.950 . S
H731 C737 0.950 . S
H732 C738 0.949 . S
C733 H728 0.950 . S
C733 C735 1.327 . S
C733 C739 1.429 . S
C734 C726 1.574 . S
C734 H729 0.949 . S
C734 C740 1.368 . S
C735 C719 1.349 . S
C735 H727 0.950 . S
C735 C733 1.327 . S
C736 C724 1.349 . S
C736 H730 0.950 . S
C736 C737 1.327 . S
C737 H731 0.950 . S
C737 C736 1.327 . S
C737 C741 1.429 . S
C738 C721 1.574 . S
C738 H732 0.949 . S
C738 C742 1.368 . S
C739 C720 1.429 . S
C739 C733 1.429 . S
C739 C740 1.523 . S
C740 C721 1.368 . S
C740 C734 1.368 . S
C740 C739 1.523 . S
C741 C725 1.429 . S
C741 C737 1.429 . S
C741 C742 1.523 . S
C742 C726 1.368 . S
C742 C738 1.368 . S
C742 C741 1.523 . S
H743 C718 0.950 . S
H744 C720 0.950 . S
H745 C721 0.949 . S
H746 C723 0.950 . S
H747 C725 0.950 . S
C748 C749 1.349 . S
C748 C750 1.327 . S
C748 H773 0.950 . S
C749 C748 1.349 . S
C749 C765 1.349 . S
C750 C748 1.327 . S
C750 C769 1.429 . S
C750 H774 0.950 . S
C751 C768 1.574 . S
C751 C770 1.368 . S
C751 H775 0.949 . S
H752 C756 0.949 . S
C753 C754 1.349 . S
C753 C755 1.327 . S
C753 H776 0.950 . S
C754 C753 1.349 . S
C754 C766 1.349 . S
C755 C753 1.327 . S
C755 C771 1.429 . S
C755 H777 0.950 . S
C756 H752 0.949 . S
C756 C764 1.574 . S
C756 C772 1.368 . S
H757 C765 0.950 . S
H758 C763 0.950 . S
H759 C764 0.949 . S
H760 C766 0.950 . S
H761 C767 0.950 . S
H762 C768 0.949 . S
C763 H758 0.950 . S
C763 C765 1.327 . S
C763 C769 1.429 . S
C764 C756 1.574 . S
C764 H759 0.949 . S
C764 C770 1.368 . S
C765 C749 1.349 . S
C765 H757 0.950 . S
C765 C763 1.327 . S
C766 C754 1.349 . S
C766 H760 0.950 . S
C766 C767 1.327 . S
C767 H761 0.950 . S
C767 C766 1.327 . S
C767 C771 1.429 . S
C768 C751 1.574 . S
C768 H762 0.949 . S
C768 C772 1.368 . S
C769 C750 1.429 . S
C769 C763 1.429 . S
C769 C770 1.523 . S
C770 C751 1.368 . S
C770 C764 1.368 . S
C770 C769 1.523 . S
C771 C755 1.429 . S
C771 C767 1.429 . S
C771 C772 1.523 . S
C772 C756 1.368 . S
C772 C768 1.368 . S
C772 C771 1.523 . S
H773 C748 0.950 . S
H774 C750 0.950 . S
H775 C751 0.949 . S
H776 C753 0.950 . S
H777 C755 0.950 . S
C778 C779 1.349 . S
C778 C780 1.327 . S
C778 H803 0.950 . S
C779 C778 1.349 . S
C779 C795 1.349 . S
C780 C778 1.327 . S
C780 C799 1.429 . S
C780 H804 0.950 . S
C781 C798 1.574 . S
C781 C800 1.368 . S
C781 H805 0.949 . S
H782 C786 0.949 . S
C783 C784 1.349 . S
C783 C785 1.327 . S
C783 H806 0.950 . S
C784 C783 1.349 . S
C784 C796 1.349 . S
C785 C783 1.327 . S
C785 C801 1.429 . S
C785 H807 0.950 . S
C786 H782 0.949 . S
C786 C794 1.574 . S
C786 C802 1.368 . S
H787 C795 0.950 . S
H788 C793 0.950 . S
H789 C794 0.949 . S
H790 C796 0.950 . S
H791 C797 0.950 . S
H792 C798 0.949 . S
C793 H788 0.950 . S
C793 C795 1.327 . S
C793 C799 1.429 . S
C794 C786 1.574 . S
C794 H789 0.949 . S
C794 C800 1.368 . S
C795 C779 1.349 . S
C795 H787 0.950 . S
C795 C793 1.327 . S
C796 C784 1.349 . S
C796 H790 0.950 . S
C796 C797 1.327 . S
C797 H791 0.950 . S
C797 C796 1.327 . S
C797 C801 1.429 . S
C798 C781 1.574 . S
C798 H792 0.949 . S
C798 C802 1.368 . S
C799 C780 1.429 . S
C799 C793 1.429 . S
C799 C800 1.523 . S
C800 C781 1.368 . S
C800 C794 1.368 . S
C800 C799 1.523 . S
C801 C785 1.429 . S
C801 C797 1.429 . S
C801 C802 1.523 . S
C802 C786 1.368 . S
C802 C798 1.368 . S
C802 C801 1.523 . S
H803 C778 0.950 . S
H804 C780 0.950 . S
H805 C781 0.949 . S
H806 C783 0.950 . S
H807 C785 0.950 . S
C808 C809 1.349 . S
C808 C810 1.327 . S
C808 H833 0.950 . S
C809 C808 1.349 . S
C809 C825 1.349 . S
C810 C808 1.327 . S
C810 C829 1.429 . S
C810 H834 0.950 . S
C811 C828 1.574 . S
C811 C830 1.368 . S
C811 H835 0.949 . S
H812 C816 0.949 . S
C813 C814 1.349 . S
C813 C815 1.327 . S
C813 H836 0.950 . S
C814 C813 1.349 . S
C814 C826 1.349 . S
C815 C813 1.327 . S
C815 C831 1.429 . S
C815 H837 0.950 . S
C816 H812 0.949 . S
C816 C824 1.574 . S
C816 C832 1.368 . S
H817 C825 0.950 . S
H818 C823 0.950 . S
H819 C824 0.949 . S
H820 C826 0.950 . S
H821 C827 0.950 . S
H822 C828 0.949 . S
C823 H818 0.950 . S
C823 C825 1.327 . S
C823 C829 1.429 . S
C824 C816 1.574 . S
C824 H819 0.949 . S
C824 C830 1.368 . S
C825 C809 1.349 . S
C825 H817 0.950 . S
C825 C823 1.327 . S
C826 C814 1.349 . S
C826 H820 0.950 . S
C826 C827 1.327 . S
C827 H821 0.950 . S
C827 C826 1.327 . S
C827 C831 1.429 . S
C828 C811 1.574 . S
C828 H822 0.949 . S
C828 C832 1.368 . S
C829 C810 1.429 . S
C829 C823 1.429 . S
C829 C830 1.523 . S
C830 C811 1.368 . S
C830 C824 1.368 . S
C830 C829 1.523 . S
C831 C815 1.429 . S
C831 C827 1.429 . S
C831 C832 1.523 . S
C832 C816 1.368 . S
C832 C828 1.368 . S
C832 C831 1.523 . S
H833 C808 0.950 . S
H834 C810 0.950 . S
H835 C811 0.949 . S
H836 C813 0.950 . S
H837 C815 0.950 . S
C838 C839 1.349 . S
C838 C840 1.327 . S
C838 H863 0.950 . S
C839 C838 1.349 . S
C839 C855 1.349 . S
C840 C838 1.327 . S
C840 C859 1.429 . S
C840 H864 0.950 . S
C841 C858 1.574 . S
C841 C860 1.368 . S
C841 H865 0.949 . S
H842 C846 0.949 . S
C843 C844 1.349 . S
C843 C845 1.327 . S
C843 H866 0.950 . S
C844 C843 1.349 . S
C844 C856 1.349 . S
C845 C843 1.327 . S
C845 C861 1.429 . S
C845 H867 0.950 . S
C846 H842 0.949 . S
C846 C854 1.574 . S
C846 C862 1.368 . S
H847 C855 0.950 . S
H848 C853 0.950 . S
H849 C854 0.949 . S
H850 C856 0.950 . S
H851 C857 0.950 . S
H852 C858 0.949 . S
C853 H848 0.950 . S
C853 C855 1.327 . S
C853 C859 1.429 . S
C854 C846 1.574 . S
C854 H849 0.949 . S
C854 C860 1.368 . S
C855 C839 1.349 . S
C855 H847 0.950 . S
C855 C853 1.327 . S
C856 C844 1.349 . S
C856 H850 0.950 . S
C856 C857 1.327 . S
C857 H851 0.950 . S
C857 C856 1.327 . S
C857 C861 1.429 . S
C858 C841 1.574 . S
C858 H852 0.949 . S
C858 C862 1.368 . S
C859 C840 1.429 . S
C859 C853 1.429 . S
C859 C860 1.523 . S
C860 C841 1.368 . S
C860 C854 1.368 . S
C860 C859 1.523 . S
C861 C845 1.429 . S
C861 C857 1.429 . S
C861 C862 1.523 . S
C862 C846 1.368 . S
C862 C858 1.368 . S
C862 C861 1.523 . S
H863 C838 0.950 . S
H864 C840 0.950 . S
H865 C841 0.949 . S
H866 C843 0.950 . S
H867 C845 0.950 . S
C868 C869 1.349 . S
C868 C870 1.327 . S
C868 H893 0.950 . S
C869 C868 1.349 . S
C869 C885 1.349 . S
C870 C868 1.327 . S
C870 C889 1.429 . S
C870 H894 0.950 . S
C871 C888 1.574 . S
C871 C890 1.368 . S
C871 H895 0.949 . S
H872 C876 0.949 . S
C873 C874 1.349 . S
C873 C875 1.327 . S
C873 H896 0.950 . S
C874 C873 1.349 . S
C874 C886 1.349 . S
C875 C873 1.327 . S
C875 C891 1.429 . S
C875 H897 0.950 . S
C876 H872 0.949 . S
C876 C884 1.574 . S
C876 C892 1.368 . S
H877 C885 0.950 . S
H878 C883 0.950 . S
H879 C884 0.949 . S
H880 C886 0.950 . S
H881 C887 0.950 . S
H882 C888 0.949 . S
C883 H878 0.950 . S
C883 C885 1.327 . S
C883 C889 1.429 . S
C884 C876 1.574 . S
C884 H879 0.949 . S
C884 C890 1.368 . S
C885 C869 1.349 . S
C885 H877 0.950 . S
C885 C883 1.327 . S
C886 C874 1.349 . S
C886 H880 0.950 . S
C886 C887 1.327 . S
C887 H881 0.950 . S
C887 C886 1.327 . S
C887 C891 1.429 . S
C888 C871 1.574 . S
C888 H882 0.949 . S
C888 C892 1.368 . S
C889 C870 1.429 . S
C889 C883 1.429 . S
C889 C890 1.523 . S
C890 C871 1.368 . S
C890 C884 1.368 . S
C890 C889 1.523 . S
C891 C875 1.429 . S
C891 C887 1.429 . S
C891 C892 1.523 . S
C892 C876 1.368 . S
C892 C888 1.368 . S
C892 C891 1.523 . S
H893 C868 0.950 . S
H894 C870 0.950 . S
H895 C871 0.949 . S
H896 C873 0.950 . S
H897 C875 0.950 . S
C898 C899 1.349 . S
C898 C900 1.327 . S
C898 H923 0.950 . S
C899 C898 1.349 . S
C899 C915 1.349 . S
C900 C898 1.327 . S
C900 C919 1.429 . S
C900 H924 0.950 . S
C901 C918 1.574 . S
C901 C920 1.368 . S
C901 H925 0.949 . S
H902 C906 0.949 . S
C903 C904 1.349 . S
C903 C905 1.327 . S
C903 H926 0.950 . S
C904 C903 1.349 . S
C904 C916 1.349 . S
C905 C903 1.327 . S
C905 C921 1.429 . S
C905 H927 0.950 . S
C906 H902 0.949 . S
C906 C914 1.574 . S
C906 C922 1.368 . S
H907 C915 0.950 . S
H908 C913 0.950 . S
H909 C914 0.949 . S
H910 C916 0.950 . S
H911 C917 0.950 . S
H912 C918 0.949 . S
C913 H908 0.950 . S
C913 C915 1.327 . S
C913 C919 1.429 . S
C914 C906 1.574 . S
C914 H909 0.949 . S
C914 C920 1.368 . S
C915 C899 1.349 . S
C915 H907 0.950 . S
C915 C913 1.327 . S
C916 C904 1.349 . S
C916 H910 0.950 . S
C916 C917 1.327 . S
C917 H911 0.950 . S
C917 C916 1.327 . S
C917 C921 1.429 . S
C918 C901 1.574 . S
C918 H912 0.949 . S
C918 C922 1.368 . S
C919 C900 1.429 . S
C919 C913 1.429 . S
C919 C920 1.523 . S
C920 C901 1.368 . S
C920 C914 1.368 . S
C920 C919 1.523 . S
C921 C905 1.429 . S
C921 C917 1.429 . S
C921 C922 1.523 . S
C922 C906 1.368 . S
C922 C918 1.368 . S
C922 C921 1.523 . S
H923 C898 0.950 . S
H924 C900 0.950 . S
H925 C901 0.949 . S
H926 C903 0.950 . S
H927 C905 0.950 . S
C928 C929 1.349 . S
C928 C930 1.327 . S
C928 H953 0.950 . S
C929 C928 1.349 . S
C929 C945 1.349 . S
C930 C928 1.327 . S
C930 C949 1.429 . S
C930 H954 0.950 . S
C931 C948 1.574 1_655 S
C931 C950 1.368 . S
C931 H955 0.949 . S
H932 C936 0.949 . S
C933 C934 1.349 . S
C933 C935 1.327 . S
C933 H956 0.950 . S
C934 C933 1.349 . S
C934 C946 1.349 . S
C935 C933 1.327 . S
C935 C951 1.429 . S
C935 H957 0.950 . S
C936 H932 0.949 . S
C936 C944 1.574 1_455 S
C936 C952 1.368 . S
H937 C945 0.950 . S
H938 C943 0.950 . S
H939 C944 0.949 . S
H940 C946 0.950 . S
H941 C947 0.950 . S
H942 C948 0.949 . S
C943 H938 0.950 . S
C943 C945 1.327 . S
C943 C949 1.429 . S
C944 C936 1.574 1_655 S
C944 H939 0.949 . S
C944 C950 1.368 . S
C945 C929 1.349 . S
C945 H937 0.950 . S
C945 C943 1.327 . S
C946 C934 1.349 . S
C946 H940 0.950 . S
C946 C947 1.327 . S
C947 H941 0.950 . S
C947 C946 1.327 . S
C947 C951 1.429 . S
C948 C931 1.574 1_455 S
C948 H942 0.949 . S
C948 C952 1.368 . S
C949 C930 1.429 . S
C949 C943 1.429 . S
C949 C950 1.523 . S
C950 C931 1.368 . S
C950 C944 1.368 . S
C950 C949 1.523 . S
C951 C935 1.429 . S
C951 C947 1.429 . S
C951 C952 1.523 . S
C952 C936 1.368 . S
C952 C948 1.368 . S
C952 C951 1.523 . S
H953 C928 0.950 . S
H954 C930 0.950 . S
H955 C931 0.949 . S
H956 C933 0.950 . S
H957 C935 0.950 . S
C958 C959 1.349 . S
C958 C960 1.327 . S
C958 H983 0.950 . S
C959 C958 1.349 . S
C959 C975 1.349 . S
C960 C958 1.327 . S
C960 C979 1.429 . S
C960 H984 0.950 . S
C961 C978 1.574 1_545 S
C961 C980 1.368 . S
C961 H985 0.949 . S
H962 C966 0.949 . S
C963 C964 1.349 . S
C963 C965 1.327 . S
C963 H986 0.950 . S
C964 C963 1.349 . S
C964 C976 1.349 . S
C965 C963 1.327 . S
C965 C981 1.429 . S
C965 H987 0.950 . S
C966 H962 0.949 . S
C966 C974 1.574 1_565 S
C966 C982 1.368 . S
H967 C975 0.950 . S
H968 C973 0.950 . S
H969 C974 0.949 . S
H970 C976 0.950 . S
H971 C977 0.950 . S
H972 C978 0.949 . S
C973 H968 0.950 . S
C973 C975 1.327 . S
C973 C979 1.429 . S
C974 C966 1.574 1_545 S
C974 H969 0.949 . S
C974 C980 1.368 . S
C975 C959 1.349 . S
C975 H967 0.950 . S
C975 C973 1.327 . S
C976 C964 1.349 . S
C976 H970 0.950 . S
C976 C977 1.327 . S
C977 H971 0.950 . S
C977 C976 1.327 . S
C977 C981 1.429 . S
C978 C961 1.574 1_565 S
C978 H972 0.949 . S
C978 C982 1.368 . S
C979 C960 1.429 . S
C979 C973 1.429 . S
C979 C980 1.523 . S
C980 C961 1.368 . S
C980 C974 1.368 . S
C980 C979 1.523 . S
C981 C965 1.429 . S
C981 C977 1.429 . S
C981 C982 1.523 . S
C982 C966 1.368 . S
C982 C978 1.368 . S
C982 C981 1.523 . S
H983 C958 0.950 . S
H984 C960 0.950 . S
H985 C961 0.949 . S
H986 C963 0.950 . S
H987 C965 0.950 . S
C988 C989 1.349 . S
C988 C990 1.327 . S
C988 H1013 0.950 . S
C989 C988 1.349 . S
C989 C1005 1.349 . S
C990 C988 1.327 . S
C990 C1009 1.429 . S
C990 H1014 0.950 . S
C991 C1008 1.574 1_455 S
C991 C1010 1.368 . S
C991 H1015 0.949 . S
H992 C996 0.949 . S
C993 C994 1.349 . S
C993 C995 1.327 . S
C993 H1016 0.950 . S
C994 C993 1.349 . S
C994 C1006 1.349 . S
C995 C993 1.327 . S
C995 C1011 1.429 . S
C995 H1017 0.950 . S
C996 H992 0.949 . S
C996 C1004 1.574 1_655 S
C996 C1012 1.368 . S
H997 C1005 0.950 . S
H998 C1003 0.950 . S
H999 C1004 0.949 . S
H1000 C1006 0.950 . S
H1001 C1007 0.950 . S
H1002 C1008 0.949 . S
C1003 H998 0.950 . S
C1003 C1005 1.327 . S
C1003 C1009 1.429 . S
C1004 C996 1.574 1_455 S
C1004 H999 0.949 . S
C1004 C1010 1.368 . S
C1005 C989 1.349 . S
C1005 H997 0.950 . S
C1005 C1003 1.327 . S
C1006 C994 1.349 . S
C1006 H1000 0.950 . S
C1006 C1007 1.327 . S
C1007 H1001 0.950 . S
C1007 C1006 1.327 . S
C1007 C1011 1.429 . S
C1008 C991 1.574 1_655 S
C1008 H1002 0.949 . S
C1008 C1012 1.368 . S
C1009 C990 1.429 . S
C1009 C1003 1.429 . S
C1009 C1010 1.523 . S
C1010 C991 1.368 . S
C1010 C1004 1.368 . S
C1010 C1009 1.523 . S
C1011 C995 1.429 . S
C1011 C1007 1.429 . S
C1011 C1012 1.523 . S
C1012 C996 1.368 . S
C1012 C1008 1.368 . S
C1012 C1011 1.523 . S
H1013 C988 0.950 . S
H1014 C990 0.950 . S
H1015 C991 0.949 . S
H1016 C993 0.950 . S
H1017 C995 0.950 . S
C1018 C1019 1.349 . S
C1018 C1020 1.327 . S
C1018 H1043 0.950 . S
C1019 C1018 1.349 . S
C1019 C1035 1.349 . S
C1020 C1018 1.327 . S
C1020 C1039 1.429 . S
C1020 H1044 0.950 . S
C1021 C1038 1.574 1_565 S
C1021 C1040 1.368 . S
C1021 H1045 0.949 . S
H1022 C1026 0.949 . S
C1023 C1024 1.349 . S
C1023 C1025 1.327 . S
C1023 H1046 0.950 . S
C1024 C1023 1.349 . S
C1024 C1036 1.349 . S
C1025 C1023 1.327 . S
C1025 C1041 1.429 . S
C1025 H1047 0.950 . S
C1026 H1022 0.949 . S
C1026 C1034 1.574 1_545 S
C1026 C1042 1.368 . S
H1027 C1035 0.950 . S
H1028 C1033 0.950 . S
H1029 C1034 0.949 . S
H1030 C1036 0.950 . S
H1031 C1037 0.950 . S
H1032 C1038 0.949 . S
C1033 H1028 0.950 . S
C1033 C1035 1.327 . S
C1033 C1039 1.429 . S
C1034 C1026 1.574 1_565 S
C1034 H1029 0.949 . S
C1034 C1040 1.368 . S
C1035 C1019 1.349 . S
C1035 H1027 0.950 . S
C1035 C1033 1.327 . S
C1036 C1024 1.349 . S
C1036 H1030 0.950 . S
C1036 C1037 1.327 . S
C1037 H1031 0.950 . S
C1037 C1036 1.327 . S
C1037 C1041 1.429 . S
C1038 C1021 1.574 1_545 S
C1038 H1032 0.949 . S
C1038 C1042 1.368 . S
C1039 C1020 1.429 . S
C1039 C1033 1.429 . S
C1039 C1040 1.523 . S
C1040 C1021 1.368 . S
C1040 C1034 1.368 . S
C1040 C1039 1.523 . S
C1041 C1025 1.429 . S
C1041 C1037 1.429 . S
C1041 C1042 1.523 . S
C1042 C1026 1.368 . S
C1042 C1038 1.368 . S
C1042 C1041 1.523 . S
H1043 C1018 0.950 . S
H1044 C1020 0.950 . S
H1045 C1021 0.949 . S
H1046 C1023 0.950 . S
H1047 C1025 0.950 . S
C1048 C1049 1.349 . S
C1048 C1050 1.327 . S
C1048 H1073 0.950 . S
C1049 C1048 1.349 . S
C1049 C1065 1.349 . S
C1050 C1048 1.327 . S
C1050 C1069 1.429 . S
C1050 H1074 0.950 . S
C1051 C1068 1.574 1_455 S
C1051 C1070 1.368 . S
C1051 H1075 0.949 . S
H1052 C1056 0.949 . S
C1053 C1054 1.349 . S
C1053 C1055 1.327 . S
C1053 H1076 0.950 . S
C1054 C1053 1.349 . S
C1054 C1066 1.349 . S
C1055 C1053 1.327 . S
C1055 C1071 1.429 . S
C1055 H1077 0.950 . S
C1056 H1052 0.949 . S
C1056 C1064 1.574 1_655 S
C1056 C1072 1.368 . S
H1057 C1065 0.950 . S
H1058 C1063 0.950 . S
H1059 C1064 0.949 . S
H1060 C1066 0.950 . S
H1061 C1067 0.950 . S
H1062 C1068 0.949 . S
C1063 H1058 0.950 . S
C1063 C1065 1.327 . S
C1063 C1069 1.429 . S
C1064 C1056 1.574 1_455 S
C1064 H1059 0.949 . S
C1064 C1070 1.368 . S
C1065 C1049 1.349 . S
C1065 H1057 0.950 . S
C1065 C1063 1.327 . S
C1066 C1054 1.349 . S
C1066 H1060 0.950 . S
C1066 C1067 1.327 . S
C1067 H1061 0.950 . S
C1067 C1066 1.327 . S
C1067 C1071 1.429 . S
C1068 C1051 1.574 1_655 S
C1068 H1062 0.949 . S
C1068 C1072 1.368 . S
C1069 C1050 1.429 . S
C1069 C1063 1.429 . S
C1069 C1070 1.523 . S
C1070 C1051 1.368 . S
C1070 C1064 1.368 . S
C1070 C1069 1.523 . S
C1071 C1055 1.429 . S
C1071 C1067 1.429 . S
C1071 C1072 1.523 . S
C1072 C1056 1.368 . S
C1072 C1068 1.368 . S
C1072 C1071 1.523 . S
H1073 C1048 0.950 . S
H1074 C1050 0.950 . S
H1075 C1051 0.949 . S
H1076 C1053 0.950 . S
H1077 C1055 0.950 . S
C1078 C1079 1.349 . S
C1078 C1080 1.327 . S
C1078 H1103 0.950 . S
C1079 C1078 1.349 . S
C1079 C1095 1.349 . S
C1080 C1078 1.327 . S
C1080 C1099 1.429 . S
C1080 H1104 0.950 . S
C1081 C1098 1.574 1_565 S
C1081 C1100 1.368 . S
C1081 H1105 0.949 . S
H1082 C1086 0.949 . S
C1083 C1084 1.349 . S
C1083 C1085 1.327 . S
C1083 H1106 0.950 . S
C1084 C1083 1.349 . S
C1084 C1096 1.349 . S
C1085 C1083 1.327 . S
C1085 C1101 1.429 . S
C1085 H1107 0.950 . S
C1086 H1082 0.949 . S
C1086 C1094 1.574 1_545 S
C1086 C1102 1.368 . S
H1087 C1095 0.950 . S
H1088 C1093 0.950 . S
H1089 C1094 0.949 . S
H1090 C1096 0.950 . S
H1091 C1097 0.950 . S
H1092 C1098 0.949 . S
C1093 H1088 0.950 . S
C1093 C1095 1.327 . S
C1093 C1099 1.429 . S
C1094 C1086 1.574 1_565 S
C1094 H1089 0.949 . S
C1094 C1100 1.368 . S
C1095 C1079 1.349 . S
C1095 H1087 0.950 . S
C1095 C1093 1.327 . S
C1096 C1084 1.349 . S
C1096 H1090 0.950 . S
C1096 C1097 1.327 . S
C1097 H1091 0.950 . S
C1097 C1096 1.327 . S
C1097 C1101 1.429 . S
C1098 C1081 1.574 1_545 S
C1098 H1092 0.949 . S
C1098 C1102 1.368 . S
C1099 C1080 1.429 . S
C1099 C1093 1.429 . S
C1099 C1100 1.523 . S
C1100 C1081 1.368 . S
C1100 C1094 1.368 . S
C1100 C1099 1.523 . S
C1101 C1085 1.429 . S
C1101 C1097 1.429 . S
C1101 C1102 1.523 . S
C1102 C1086 1.368 . S
C1102 C1098 1.368 . S
C1102 C1101 1.523 . S
H1103 C1078 0.950 . S
H1104 C1080 0.950 . S
H1105 C1081 0.949 . S
H1106 C1083 0.950 . S
H1107 C1085 0.950 . S
C1108 C1109 1.349 . S
C1108 C1110 1.327 . S
C1108 H1133 0.950 . S
C1109 C1108 1.349 . S
C1109 C1125 1.349 . S
C1110 C1108 1.327 . S
C1110 C1129 1.429 . S
C1110 H1134 0.950 . S
C1111 C1128 1.574 1_455 S
C1111 C1130 1.368 . S
C1111 H1135 0.949 . S
H1112 C1116 0.949 . S
C1113 C1114 1.349 . S
C1113 C1115 1.327 . S
C1113 H1136 0.950 . S
C1114 C1113 1.349 . S
C1114 C1126 1.349 . S
C1115 C1113 1.327 . S
C1115 C1131 1.429 . S
C1115 H1137 0.950 . S
C1116 H1112 0.949 . S
C1116 C1124 1.574 1_655 S
C1116 C1132 1.368 . S
H1117 C1125 0.950 . S
H1118 C1123 0.950 . S
H1119 C1124 0.949 . S
H1120 C1126 0.950 . S
H1121 C1127 0.950 . S
H1122 C1128 0.949 . S
C1123 H1118 0.950 . S
C1123 C1125 1.327 . S
C1123 C1129 1.429 . S
C1124 C1116 1.574 1_455 S
C1124 H1119 0.949 . S
C1124 C1130 1.368 . S
C1125 C1109 1.349 . S
C1125 H1117 0.950 . S
C1125 C1123 1.327 . S
C1126 C1114 1.349 . S
C1126 H1120 0.950 . S
C1126 C1127 1.327 . S
C1127 H1121 0.950 . S
C1127 C1126 1.327 . S
C1127 C1131 1.429 . S
C1128 C1111 1.574 1_655 S
C1128 H1122 0.949 . S
C1128 C1132 1.368 . S
C1129 C1110 1.429 . S
C1129 C1123 1.429 . S
C1129 C1130 1.523 . S
C1130 C1111 1.368 . S
C1130 C1124 1.368 . S
C1130 C1129 1.523 . S
C1131 C1115 1.429 . S
C1131 C1127 1.429 . S
C1131 C1132 1.523 . S
C1132 C1116 1.368 . S
C1132 C1128 1.368 . S
C1132 C1131 1.523 . S
H1133 C1108 0.950 . S
H1134 C1110 0.950 . S
H1135 C1111 0.949 . S
H1136 C1113 0.950 . S
H1137 C1115 0.950 . S
C1138 C1139 1.349 . S
C1138 C1140 1.327 . S
C1138 H1163 0.950 . S
C1139 C1138 1.349 . S
C1139 C1155 1.349 . S
C1140 C1138 1.327 . S
C1140 C1159 1.429 . S
C1140 H1164 0.950 . S
C1141 C1158 1.574 1_545 S
C1141 C1160 1.368 . S
C1141 H1165 0.949 . S
H1142 C1146 0.949 . S
C1143 C1144 1.349 . S
C1143 C1145 1.327 . S
C1143 H1166 0.950 . S
C1144 C1143 1.349 . S
C1144 C1156 1.349 . S
C1145 C1143 1.327 . S
C1145 C1161 1.429 . S
C1145 H1167 0.950 . S
C1146 H1142 0.949 . S
C1146 C1154 1.574 1_565 S
C1146 C1162 1.368 . S
H1147 C1155 0.950 . S
H1148 C1153 0.950 . S
H1149 C1154 0.949 . S
H1150 C1156 0.950 . S
H1151 C1157 0.950 . S
H1152 C1158 0.949 . S
C1153 H1148 0.950 . S
C1153 C1155 1.327 . S
C1153 C1159 1.429 . S
C1154 C1146 1.574 1_545 S
C1154 H1149 0.949 . S
C1154 C1160 1.368 . S
C1155 C1139 1.349 . S
C1155 H1147 0.950 . S
C1155 C1153 1.327 . S
C1156 C1144 1.349 . S
C1156 H1150 0.950 . S
C1156 C1157 1.327 . S
C1157 H1151 0.950 . S
C1157 C1156 1.327 . S
C1157 C1161 1.429 . S
C1158 C1141 1.574 1_565 S
C1158 H1152 0.949 . S
C1158 C1162 1.368 . S
C1159 C1140 1.429 . S
C1159 C1153 1.429 . S
C1159 C1160 1.523 . S
C1160 C1141 1.368 . S
C1160 C1154 1.368 . S
C1160 C1159 1.523 . S
C1161 C1145 1.429 . S
C1161 C1157 1.429 . S
C1161 C1162 1.523 . S
C1162 C1146 1.368 . S
C1162 C1158 1.368 . S
C1162 C1161 1.523 . S
H1163 C1138 0.950 . S
H1164 C1140 0.950 . S
H1165 C1141 0.949 . S
H1166 C1143 0.950 . S
H1167 C1145 0.950 . S
C1168 C1169 1.349 . S
C1168 C1170 1.327 . S
C1168 H1193 0.950 . S
C1169 C1168 1.349 . S
C1169 C1185 1.349 . S
C1170 C1168 1.327 . S
C1170 C1189 1.429 . S
C1170 H1194 0.950 . S
C1171 C1188 1.574 . S
C1171 C1190 1.368 . S
C1171 H1195 0.949 . S
H1172 C1176 0.949 . S
C1173 C1174 1.349 . S
C1173 C1175 1.327 . S
C1173 H1196 0.950 . S
C1174 C1173 1.349 . S
C1174 C1186 1.349 . S
C1175 C1173 1.327 . S
C1175 C1191 1.429 . S
C1175 H1197 0.950 . S
C1176 H1172 0.949 . S
C1176 C1184 1.574 . S
C1176 C1192 1.368 . S
H1177 C1185 0.950 . S
H1178 C1183 0.950 . S
H1179 C1184 0.949 . S
H1180 C1186 0.950 . S
H1181 C1187 0.950 . S
H1182 C1188 0.949 . S
C1183 H1178 0.950 . S
C1183 C1185 1.327 . S
C1183 C1189 1.429 . S
C1184 C1176 1.574 . S
C1184 H1179 0.949 . S
C1184 C1190 1.368 . S
C1185 C1169 1.349 . S
C1185 H1177 0.950 . S
C1185 C1183 1.327 . S
C1186 C1174 1.349 . S
C1186 H1180 0.950 . S
C1186 C1187 1.327 . S
C1187 H1181 0.950 . S
C1187 C1186 1.327 . S
C1187 C1191 1.429 . S
C1188 C1171 1.574 . S
C1188 H1182 0.949 . S
C1188 C1192 1.368 . S
C1189 C1170 1.429 . S
C1189 C1183 1.429 . S
C1189 C1190 1.523 . S
C1190 C1171 1.368 . S
C1190 C1184 1.368 . S
C1190 C1189 1.523 . S
C1191 C1175 1.429 . S
C1191 C1187 1.429 . S
C1191 C1192 1.523 . S
C1192 C1176 1.368 . S
C1192 C1188 1.368 . S
C1192 C1191 1.523 . S
H1193 C1168 0.950 . S
H1194 C1170 0.950 . S
H1195 C1171 0.949 . S
H1196 C1173 0.950 . S
H1197 C1175 0.950 . S
C1198 C1199 1.349 . S
C1198 C1200 1.327 . S
C1198 H1223 0.950 . S
C1199 C1198 1.349 . S
C1199 C1215 1.349 . S
C1200 C1198 1.327 . S
C1200 C1219 1.429 . S
C1200 H1224 0.950 . S
C1201 C1218 1.574 . S
C1201 C1220 1.368 . S
C1201 H1225 0.949 . S
H1202 C1206 0.949 . S
C1203 C1204 1.349 . S
C1203 C1205 1.327 . S
C1203 H1226 0.950 . S
C1204 C1203 1.349 . S
C1204 C1216 1.349 . S
C1205 C1203 1.327 . S
C1205 C1221 1.429 . S
C1205 H1227 0.950 . S
C1206 H1202 0.949 . S
C1206 C1214 1.574 . S
C1206 C1222 1.368 . S
H1207 C1215 0.950 . S
H1208 C1213 0.950 . S
H1209 C1214 0.949 . S
H1210 C1216 0.950 . S
H1211 C1217 0.950 . S
H1212 C1218 0.949 . S
C1213 H1208 0.950 . S
C1213 C1215 1.327 . S
C1213 C1219 1.429 . S
C1214 C1206 1.574 . S
C1214 H1209 0.949 . S
C1214 C1220 1.368 . S
C1215 C1199 1.349 . S
C1215 H1207 0.950 . S
C1215 C1213 1.327 . S
C1216 C1204 1.349 . S
C1216 H1210 0.950 . S
C1216 C1217 1.327 . S
C1217 H1211 0.950 . S
C1217 C1216 1.327 . S
C1217 C1221 1.429 . S
C1218 C1201 1.574 . S
C1218 H1212 0.949 . S
C1218 C1222 1.368 . S
C1219 C1200 1.429 . S
C1219 C1213 1.429 . S
C1219 C1220 1.523 . S
C1220 C1201 1.368 . S
C1220 C1214 1.368 . S
C1220 C1219 1.523 . S
C1221 C1205 1.429 . S
C1221 C1217 1.429 . S
C1221 C1222 1.523 . S
C1222 C1206 1.368 . S
C1222 C1218 1.368 . S
C1222 C1221 1.523 . S
H1223 C1198 0.950 . S
H1224 C1200 0.950 . S
H1225 C1201 0.949 . S
H1226 C1203 0.950 . S
H1227 C1205 0.950 . S
C1228 C1229 1.349 . S
C1228 C1230 1.327 . S
C1228 H1253 0.950 . S
C1229 C1228 1.349 . S
C1229 C1245 1.349 . S
C1230 C1228 1.327 . S
C1230 C1249 1.429 . S
C1230 H1254 0.950 . S
C1231 C1248 1.574 . S
C1231 C1250 1.368 . S
C1231 H1255 0.949 . S
H1232 C1236 0.949 . S
C1233 C1234 1.349 . S
C1233 C1235 1.327 . S
C1233 H1256 0.950 . S
C1234 C1233 1.349 . S
C1234 C1246 1.349 . S
C1235 C1233 1.327 . S
C1235 C1251 1.429 . S
C1235 H1257 0.950 . S
C1236 H1232 0.949 . S
C1236 C1244 1.574 . S
C1236 C1252 1.368 . S
H1237 C1245 0.950 . S
H1238 C1243 0.950 . S
H1239 C1244 0.949 . S
H1240 C1246 0.950 . S
H1241 C1247 0.950 . S
H1242 C1248 0.949 . S
C1243 H1238 0.950 . S
C1243 C1245 1.327 . S
C1243 C1249 1.429 . S
C1244 C1236 1.574 . S
C1244 H1239 0.949 . S
C1244 C1250 1.368 . S
C1245 C1229 1.349 . S
C1245 H1237 0.950 . S
C1245 C1243 1.327 . S
C1246 C1234 1.349 . S
C1246 H1240 0.950 . S
C1246 C1247 1.327 . S
C1247 H1241 0.950 . S
C1247 C1246 1.327 . S
C1247 C1251 1.429 . S
C1248 C1231 1.574 . S
C1248 H1242 0.949 . S
C1248 C1252 1.368 . S
C1249 C1230 1.429 . S
C1249 C1243 1.429 . S
C1249 C1250 1.523 . S
C1250 C1231 1.368 . S
C1250 C1244 1.368 . S
C1250 C1249 1.523 . S
C1251 C1235 1.429 . S
C1251 C1247 1.429 . S
C1251 C1252 1.523 . S
C1252 C1236 1.368 . S
C1252 C1248 1.368 . S
C1252 C1251 1.523 . S
H1253 C1228 0.950 . S
H1254 C1230 0.950 . S
H1255 C1231 0.949 . S
H1256 C1233 0.950 . S
H1257 C1235 0.950 . S
C1258 C1259 1.349 . S
C1258 C1260 1.327 . S
C1258 H1283 0.950 . S
C1259 C1258 1.349 . S
C1259 C1275 1.349 . S
C1260 C1258 1.327 . S
C1260 C1279 1.429 . S
C1260 H1284 0.950 . S
C1261 C1278 1.574 . S
C1261 C1280 1.368 . S
C1261 H1285 0.949 . S
H1262 C1266 0.949 . S
C1263 C1264 1.349 . S
C1263 C1265 1.327 . S
C1263 H1286 0.950 . S
C1264 C1263 1.349 . S
C1264 C1276 1.349 . S
C1265 C1263 1.327 . S
C1265 C1281 1.429 . S
C1265 H1287 0.950 . S
C1266 H1262 0.949 . S
C1266 C1274 1.574 . S
C1266 C1282 1.368 . S
H1267 C1275 0.950 . S
H1268 C1273 0.950 . S
H1269 C1274 0.949 . S
H1270 C1276 0.950 . S
H1271 C1277 0.950 . S
H1272 C1278 0.949 . S
C1273 H1268 0.950 . S
C1273 C1275 1.327 . S
C1273 C1279 1.429 . S
C1274 C1266 1.574 . S
C1274 H1269 0.949 . S
C1274 C1280 1.368 . S
C1275 C1259 1.349 . S
C1275 H1267 0.950 . S
C1275 C1273 1.327 . S
C1276 C1264 1.349 . S
C1276 H1270 0.950 . S
C1276 C1277 1.327 . S
C1277 H1271 0.950 . S
C1277 C1276 1.327 . S
C1277 C1281 1.429 . S
C1278 C1261 1.574 . S
C1278 H1272 0.949 . S
C1278 C1282 1.368 . S
C1279 C1260 1.429 . S
C1279 C1273 1.429 . S
C1279 C1280 1.523 . S
C1280 C1261 1.368 . S
C1280 C1274 1.368 . S
C1280 C1279 1.523 . S
C1281 C1265 1.429 . S
C1281 C1277 1.429 . S
C1281 C1282 1.523 . S
C1282 C1266 1.368 . S
C1282 C1278 1.368 . S
C1282 C1281 1.523 . S
H1283 C1258 0.950 . S
H1284 C1260 0.950 . S
H1285 C1261 0.949 . S
H1286 C1263 0.950 . S
H1287 C1265 0.950 . S
C1288 C1289 1.349 . S
C1288 C1290 1.327 . S
C1288 H1313 0.950 . S
C1289 C1288 1.349 . S
C1289 C1305 1.349 . S
C1290 C1288 1.327 . S
C1290 C1309 1.429 . S
C1290 H1314 0.950 . S
C1291 C1308 1.574 . S
C1291 C1310 1.368 . S
C1291 H1315 0.949 . S
H1292 C1296 0.949 . S
C1293 C1294 1.349 . S
C1293 C1295 1.327 . S
C1293 H1316 0.950 . S
C1294 C1293 1.349 . S
C1294 C1306 1.349 . S
C1295 C1293 1.327 . S
C1295 C1311 1.429 . S
C1295 H1317 0.950 . S
C1296 H1292 0.949 . S
C1296 C1304 1.574 . S
C1296 C1312 1.368 . S
H1297 C1305 0.950 . S
H1298 C1303 0.950 . S
H1299 C1304 0.949 . S
H1300 C1306 0.950 . S
H1301 C1307 0.950 . S
H1302 C1308 0.949 . S
C1303 H1298 0.950 . S
C1303 C1305 1.327 . S
C1303 C1309 1.429 . S
C1304 C1296 1.574 . S
C1304 H1299 0.949 . S
C1304 C1310 1.368 . S
C1305 C1289 1.349 . S
C1305 H1297 0.950 . S
C1305 C1303 1.327 . S
C1306 C1294 1.349 . S
C1306 H1300 0.950 . S
C1306 C1307 1.327 . S
C1307 H1301 0.950 . S
C1307 C1306 1.327 . S
C1307 C1311 1.429 . S
C1308 C1291 1.574 . S
C1308 H1302 0.949 . S
C1308 C1312 1.368 . S
C1309 C1290 1.429 . S
C1309 C1303 1.429 . S
C1309 C1310 1.523 . S
C1310 C1291 1.368 . S
C1310 C1304 1.368 . S
C1310 C1309 1.523 . S
C1311 C1295 1.429 . S
C1311 C1307 1.429 . S
C1311 C1312 1.523 . S
C1312 C1296 1.368 . S
C1312 C1308 1.368 . S
C1312 C1311 1.523 . S
H1313 C1288 0.950 . S
H1314 C1290 0.950 . S
H1315 C1291 0.949 . S
H1316 C1293 0.950 . S
H1317 C1295 0.950 . S
C1318 C1319 1.349 . S
C1318 C1320 1.327 . S
C1318 H1343 0.950 . S
C1319 C1318 1.349 . S
C1319 C1335 1.349 . S
C1320 C1318 1.327 . S
C1320 C1339 1.429 . S
C1320 H1344 0.950 . S
C1321 C1338 1.574 . S
C1321 C1340 1.368 . S
C1321 H1345 0.949 . S
H1322 C1326 0.949 . S
C1323 C1324 1.349 . S
C1323 C1325 1.327 . S
C1323 H1346 0.950 . S
C1324 C1323 1.349 . S
C1324 C1336 1.349 . S
C1325 C1323 1.327 . S
C1325 C1341 1.429 . S
C1325 H1347 0.950 . S
C1326 H1322 0.949 . S
C1326 C1334 1.574 . S
C1326 C1342 1.368 . S
H1327 C1335 0.950 . S
H1328 C1333 0.950 . S
H1329 C1334 0.949 . S
H1330 C1336 0.950 . S
H1331 C1337 0.950 . S
H1332 C1338 0.949 . S
C1333 H1328 0.950 . S
C1333 C1335 1.327 . S
C1333 C1339 1.429 . S
C1334 C1326 1.574 . S
C1334 H1329 0.949 . S
C1334 C1340 1.368 . S
C1335 C1319 1.349 . S
C1335 H1327 0.950 . S
C1335 C1333 1.327 . S
C1336 C1324 1.349 . S
C1336 H1330 0.950 . S
C1336 C1337 1.327 . S
C1337 H1331 0.950 . S
C1337 C1336 1.327 . S
C1337 C1341 1.429 . S
C1338 C1321 1.574 . S
C1338 H1332 0.949 . S
C1338 C1342 1.368 . S
C1339 C1320 1.429 . S
C1339 C1333 1.429 . S
C1339 C1340 1.523 . S
C1340 C1321 1.368 . S
C1340 C1334 1.368 . S
C1340 C1339 1.523 . S
C1341 C1325 1.429 . S
C1341 C1337 1.429 . S
C1341 C1342 1.523 . S
C1342 C1326 1.368 . S
C1342 C1338 1.368 . S
C1342 C1341 1.523 . S
H1343 C1318 0.950 . S
H1344 C1320 0.950 . S
H1345 C1321 0.949 . S
H1346 C1323 0.950 . S
H1347 C1325 0.950 . S
C1348 C1349 1.349 . S
C1348 C1350 1.327 . S
C1348 H1373 0.950 . S
C1349 C1348 1.349 . S
C1349 C1365 1.349 . S
C1350 C1348 1.327 . S
C1350 C1369 1.429 . S
C1350 H1374 0.950 . S
C1351 C1368 1.574 . S
C1351 C1370 1.368 . S
C1351 H1375 0.949 . S
H1352 C1356 0.949 . S
C1353 C1354 1.349 . S
C1353 C1355 1.327 . S
C1353 H1376 0.950 . S
C1354 C1353 1.349 . S
C1354 C1366 1.349 . S
C1355 C1353 1.327 . S
C1355 C1371 1.429 . S
C1355 H1377 0.950 . S
C1356 H1352 0.949 . S
C1356 C1364 1.574 . S
C1356 C1372 1.368 . S
H1357 C1365 0.950 . S
H1358 C1363 0.950 . S
H1359 C1364 0.949 . S
H1360 C1366 0.950 . S
H1361 C1367 0.950 . S
H1362 C1368 0.949 . S
C1363 H1358 0.950 . S
C1363 C1365 1.327 . S
C1363 C1369 1.429 . S
C1364 C1356 1.574 . S
C1364 H1359 0.949 . S
C1364 C1370 1.368 . S
C1365 C1349 1.349 . S
C1365 H1357 0.950 . S
C1365 C1363 1.327 . S
C1366 C1354 1.349 . S
C1366 H1360 0.950 . S
C1366 C1367 1.327 . S
C1367 H1361 0.950 . S
C1367 C1366 1.327 . S
C1367 C1371 1.429 . S
C1368 C1351 1.574 . S
C1368 H1362 0.949 . S
C1368 C1372 1.368 . S
C1369 C1350 1.429 . S
C1369 C1363 1.429 . S
C1369 C1370 1.523 . S
C1370 C1351 1.368 . S
C1370 C1364 1.368 . S
C1370 C1369 1.523 . S
C1371 C1355 1.429 . S
C1371 C1367 1.429 . S
C1371 C1372 1.523 . S
C1372 C1356 1.368 . S
C1372 C1368 1.368 . S
C1372 C1371 1.523 . S
H1373 C1348 0.950 . S
H1374 C1350 0.950 . S
H1375 C1351 0.949 . S
H1376 C1353 0.950 . S
H1377 C1355 0.950 . S
C1378 C1379 1.349 . S
C1378 C1380 1.327 . S
C1378 H1403 0.950 . S
C1379 C1378 1.349 . S
C1379 C1395 1.349 . S
C1380 C1378 1.327 . S
C1380 C1399 1.429 . S
C1380 H1404 0.950 . S
C1381 C1398 1.574 . S
C1381 C1400 1.368 . S
C1381 H1405 0.949 . S
H1382 C1386 0.949 . S
C1383 C1384 1.349 . S
C1383 C1385 1.327 . S
C1383 H1406 0.950 . S
C1384 C1383 1.349 . S
C1384 C1396 1.349 . S
C1385 C1383 1.327 . S
C1385 C1401 1.429 . S
C1385 H1407 0.950 . S
C1386 H1382 0.949 . S
C1386 C1394 1.574 . S
C1386 C1402 1.368 . S
H1387 C1395 0.950 . S
H1388 C1393 0.950 . S
H1389 C1394 0.949 . S
H1390 C1396 0.950 . S
H1391 C1397 0.950 . S
H1392 C1398 0.949 . S
C1393 H1388 0.950 . S
C1393 C1395 1.327 . S
C1393 C1399 1.429 . S
C1394 C1386 1.574 . S
C1394 H1389 0.949 . S
C1394 C1400 1.368 . S
C1395 C1379 1.349 . S
C1395 H1387 0.950 . S
C1395 C1393 1.327 . S
C1396 C1384 1.349 . S
C1396 H1390 0.950 . S
C1396 C1397 1.327 . S
C1397 H1391 0.950 . S
C1397 C1396 1.327 . S
C1397 C1401 1.429 . S
C1398 C1381 1.574 . S
C1398 H1392 0.949 . S
C1398 C1402 1.368 . S
C1399 C1380 1.429 . S
C1399 C1393 1.429 . S
C1399 C1400 1.523 . S
C1400 C1381 1.368 . S
C1400 C1394 1.368 . S
C1400 C1399 1.523 . S
C1401 C1385 1.429 . S
C1401 C1397 1.429 . S
C1401 C1402 1.523 . S
C1402 C1386 1.368 . S
C1402 C1398 1.368 . S
C1402 C1401 1.523 . S
H1403 C1378 0.950 . S
H1404 C1380 0.950 . S
H1405 C1381 0.949 . S
H1406 C1383 0.950 . S
H1407 C1385 0.950 . S
C1408 C1409 1.349 . S
C1408 C1410 1.327 . S
C1408 H1433 0.950 . S
C1409 C1408 1.349 . S
C1409 C1425 1.349 . S
C1410 C1408 1.327 . S
C1410 C1429 1.429 . S
C1410 H1434 0.950 . S
C1411 C1428 1.574 . S
C1411 C1430 1.368 . S
C1411 H1435 0.949 . S
H1412 C1416 0.949 . S
C1413 C1414 1.349 . S
C1413 C1415 1.327 . S
C1413 H1436 0.950 . S
C1414 C1413 1.349 . S
C1414 C1426 1.349 . S
C1415 C1413 1.327 . S
C1415 C1431 1.429 . S
C1415 H1437 0.950 . S
C1416 H1412 0.949 . S
C1416 C1424 1.574 . S
C1416 C1432 1.368 . S
H1417 C1425 0.950 . S
H1418 C1423 0.950 . S
H1419 C1424 0.949 . S
H1420 C1426 0.950 . S
H1421 C1427 0.950 . S
H1422 C1428 0.949 . S
C1423 H1418 0.950 . S
C1423 C1425 1.327 . S
C1423 C1429 1.429 . S
C1424 C1416 1.574 . S
C1424 H1419 0.949 . S
C1424 C1430 1.368 . S
C1425 C1409 1.349 . S
C1425 H1417 0.950 . S
C1425 C1423 1.327 . S
C1426 C1414 1.349 . S
C1426 H1420 0.950 . S
C1426 C1427 1.327 . S
C1427 H1421 0.950 . S
C1427 C1426 1.327 . S
C1427 C1431 1.429 . S
C1428 C1411 1.574 . S
C1428 H1422 0.949 . S
C1428 C1432 1.368 . S
C1429 C1410 1.429 . S
C1429 C1423 1.429 . S
C1429 C1430 1.523 . S
C1430 C1411 1.368 . S
C1430 C1424 1.368 . S
C1430 C1429 1.523 . S
C1431 C1415 1.429 . S
C1431 C1427 1.429 . S
C1431 C1432 1.523 . S
C1432 C1416 1.368 . S
C1432 C1428 1.368 . S
C1432 C1431 1.523 . S
H1433 C1408 0.950 . S
H1434 C1410 0.950 . S
H1435 C1411 0.949 . S
H1436 C1413 0.950 . S
H1437 C1415 0.950 . S
C1438 C1439 1.349 . S
C1438 C1440 1.327 . S
C1438 H1463 0.950 . S
C1439 C1438 1.349 . S
C1439 C1455 1.349 . S
C1440 C1438 1.327 . S
C1440 C1459 1.429 . S
C1440 H1464 0.950 . S
C1441 C1458 1.574 . S
C1441 C1460 1.368 . S
C1441 H1465 0.949 . S
H1442 C1446 0.949 . S
C1443 C1444 1.349 . S
C1443 C1445 1.327 . S
C1443 H1466 0.950 . S
C1444 C1443 1.349 . S
C1444 C1456 1.349 . S
C1445 C1443 1.327 . S
C1445 C1461 1.429 . S
C1445 H1467 0.950 . S
C1446 H1442 0.949 . S
C1446 C1454 1.574 . S
C1446 C1462 1.368 . S
H1447 C1455 0.950 . S
H1448 C1453 0.950 . S
H1449 C1454 0.949 . S
H1450 C1456 0.950 . S
H1451 C1457 0.950 . S
H1452 C1458 0.949 . S
C1453 H1448 0.950 . S
C1453 C1455 1.327 . S
C1453 C1459 1.429 . S
C1454 C1446 1.574 . S
C1454 H1449 0.949 . S
C1454 C1460 1.368 . S
C1455 C1439 1.349 . S
C1455 H1447 0.950 . S
C1455 C1453 1.327 . S
C1456 C1444 1.349 . S
C1456 H1450 0.950 . S
C1456 C1457 1.327 . S
C1457 H1451 0.950 . S
C1457 C1456 1.327 . S
C1457 C1461 1.429 . S
C1458 C1441 1.574 . S
C1458 H1452 0.949 . S
C1458 C1462 1.368 . S
C1459 C1440 1.429 . S
C1459 C1453 1.429 . S
C1459 C1460 1.523 . S
C1460 C1441 1.368 . S
C1460 C1454 1.368 . S
C1460 C1459 1.523 . S
C1461 C1445 1.429 . S
C1461 C1457 1.429 . S
C1461 C1462 1.523 . S
C1462 C1446 1.368 . S
C1462 C1458 1.368 . S
C1462 C1461 1.523 . S
H1463 C1438 0.950 . S
H1464 C1440 0.950 . S
H1465 C1441 0.949 . S
H1466 C1443 0.950 . S
H1467 C1445 0.950 . S
C1468 C1469 1.349 . S
C1468 C1470 1.327 . S
C1468 H1493 0.950 . S
C1469 C1468 1.349 . S
C1469 C1485 1.349 . S
C1470 C1468 1.327 . S
C1470 C1489 1.429 . S
C1470 H1494 0.950 . S
C1471 C1488 1.574 . S
C1471 C1490 1.368 . S
C1471 H1495 0.949 . S
H1472 C1476 0.949 . S
C1473 C1474 1.349 . S
C1473 C1475 1.327 . S
C1473 H1496 0.950 . S
C1474 C1473 1.349 . S
C1474 C1486 1.349 . S
C1475 C1473 1.327 . S
C1475 C1491 1.429 . S
C1475 H1497 0.950 . S
C1476 H1472 0.949 . S
C1476 C1484 1.574 . S
C1476 C1492 1.368 . S
H1477 C1485 0.950 . S
H1478 C1483 0.950 . S
H1479 C1484 0.949 . S
H1480 C1486 0.950 . S
H1481 C1487 0.950 . S
H1482 C1488 0.949 . S
C1483 H1478 0.950 . S
C1483 C1485 1.327 . S
C1483 C1489 1.429 . S
C1484 C1476 1.574 . S
C1484 H1479 0.949 . S
C1484 C1490 1.368 . S
C1485 C1469 1.349 . S
C1485 H1477 0.950 . S
C1485 C1483 1.327 . S
C1486 C1474 1.349 . S
C1486 H1480 0.950 . S
C1486 C1487 1.327 . S
C1487 H1481 0.950 . S
C1487 C1486 1.327 . S
C1487 C1491 1.429 . S
C1488 C1471 1.574 . S
C1488 H1482 0.949 . S
C1488 C1492 1.368 . S
C1489 C1470 1.429 . S
C1489 C1483 1.429 . S
C1489 C1490 1.523 . S
C1490 C1471 1.368 . S
C1490 C1484 1.368 . S
C1490 C1489 1.523 . S
C1491 C1475 1.429 . S
C1491 C1487 1.429 . S
C1491 C1492 1.523 . S
C1492 C1476 1.368 . S
C1492 C1488 1.368 . S
C1492 C1491 1.523 . S
H1493 C1468 0.950 . S
H1494 C1470 0.950 . S
H1495 C1471 0.949 . S
H1496 C1473 0.950 . S
H1497 C1475 0.950 . S
C1498 C1499 1.349 . S
C1498 C1500 1.327 . S
C1498 H1523 0.950 . S
C1499 C1498 1.349 . S
C1499 C1515 1.349 . S
C1500 C1498 1.327 . S
C1500 C1519 1.429 . S
C1500 H1524 0.950 . S
C1501 C1518 1.574 . S
C1501 C1520 1.368 . S
C1501 H1525 0.949 . S
H1502 C1506 0.949 . S
C1503 C1504 1.349 . S
C1503 C1505 1.327 . S
C1503 H1526 0.950 . S
C1504 C1503 1.349 . S
C1504 C1516 1.349 . S
C1505 C1503 1.327 . S
C1505 C1521 1.429 . S
C1505 H1527 0.950 . S
C1506 H1502 0.949 . S
C1506 C1514 1.574 . S
C1506 C1522 1.368 . S
H1507 C1515 0.950 . S
H1508 C1513 0.950 . S
H1509 C1514 0.949 . S
H1510 C1516 0.950 . S
H1511 C1517 0.950 . S
H1512 C1518 0.949 . S
C1513 H1508 0.950 . S
C1513 C1515 1.327 . S
C1513 C1519 1.429 . S
C1514 C1506 1.574 . S
C1514 H1509 0.949 . S
C1514 C1520 1.368 . S
C1515 C1499 1.349 . S
C1515 H1507 0.950 . S
C1515 C1513 1.327 . S
C1516 C1504 1.349 . S
C1516 H1510 0.950 . S
C1516 C1517 1.327 . S
C1517 H1511 0.950 . S
C1517 C1516 1.327 . S
C1517 C1521 1.429 . S
C1518 C1501 1.574 . S
C1518 H1512 0.949 . S
C1518 C1522 1.368 . S
C1519 C1500 1.429 . S
C1519 C1513 1.429 . S
C1519 C1520 1.523 . S
C1520 C1501 1.368 . S
C1520 C1514 1.368 . S
C1520 C1519 1.523 . S
C1521 C1505 1.429 . S
C1521 C1517 1.429 . S
C1521 C1522 1.523 . S
C1522 C1506 1.368 . S
C1522 C1518 1.368 . S
C1522 C1521 1.523 . S
H1523 C1498 0.950 . S
H1524 C1500 0.950 . S
H1525 C1501 0.949 . S
H1526 C1503 0.950 . S
H1527 C1505 0.950 . S
C1528 C1529 1.349 . S
C1528 C1530 1.327 . S
C1528 H1553 0.950 . S
C1529 C1528 1.349 . S
C1529 C1545 1.349 . S
C1530 C1528 1.327 . S
C1530 C1549 1.429 . S
C1530 H1554 0.950 . S
C1531 C1548 1.574 . S
C1531 C1550 1.368 . S
C1531 H1555 0.949 . S
H1532 C1536 0.949 . S
C1533 C1534 1.349 . S
C1533 C1535 1.327 . S
C1533 H1556 0.950 . S
C1534 C1533 1.349 . S
C1534 C1546 1.349 . S
C1535 C1533 1.327 . S
C1535 C1551 1.429 . S
C1535 H1557 0.950 . S
C1536 H1532 0.949 . S
C1536 C1544 1.574 . S
C1536 C1552 1.368 . S
H1537 C1545 0.950 . S
H1538 C1543 0.950 . S
H1539 C1544 0.949 . S
H1540 C1546 0.950 . S
H1541 C1547 0.950 . S
H1542 C1548 0.949 . S
C1543 H1538 0.950 . S
C1543 C1545 1.327 . S
C1543 C1549 1.429 . S
C1544 C1536 1.574 . S
C1544 H1539 0.949 . S
C1544 C1550 1.368 . S
C1545 C1529 1.349 . S
C1545 H1537 0.950 . S
C1545 C1543 1.327 . S
C1546 C1534 1.349 . S
C1546 H1540 0.950 . S
C1546 C1547 1.327 . S
C1547 H1541 0.950 . S
C1547 C1546 1.327 . S
C1547 C1551 1.429 . S
C1548 C1531 1.574 . S
C1548 H1542 0.949 . S
C1548 C1552 1.368 . S
C1549 C1530 1.429 . S
C1549 C1543 1.429 . S
C1549 C1550 1.523 . S
C1550 C1531 1.368 . S
C1550 C1544 1.368 . S
C1550 C1549 1.523 . S
C1551 C1535 1.429 . S
C1551 C1547 1.429 . S
C1551 C1552 1.523 . S
C1552 C1536 1.368 . S
C1552 C1548 1.368 . S
C1552 C1551 1.523 . S
H1553 C1528 0.950 . S
H1554 C1530 0.950 . S
H1555 C1531 0.949 . S
H1556 C1533 0.950 . S
H1557 C1535 0.950 . S
C1558 C1559 1.349 . S
C1558 C1560 1.327 . S
C1558 H1583 0.950 . S
C1559 C1558 1.349 . S
C1559 C1575 1.349 . S
C1560 C1558 1.327 . S
C1560 C1579 1.429 . S
C1560 H1584 0.950 . S
C1561 C1578 1.574 . S
C1561 C1580 1.368 . S
C1561 H1585 0.949 . S
H1562 C1566 0.949 . S
C1563 C1564 1.349 . S
C1563 C1565 1.327 . S
C1563 H1586 0.950 . S
C1564 C1563 1.349 . S
C1564 C1576 1.349 . S
C1565 C1563 1.327 . S
C1565 C1581 1.429 . S
C1565 H1587 0.950 . S
C1566 H1562 0.949 . S
C1566 C1574 1.574 . S
C1566 C1582 1.368 . S
H1567 C1575 0.950 . S
H1568 C1573 0.950 . S
H1569 C1574 0.949 . S
H1570 C1576 0.950 . S
H1571 C1577 0.950 . S
H1572 C1578 0.949 . S
C1573 H1568 0.950 . S
C1573 C1575 1.327 . S
C1573 C1579 1.429 . S
C1574 C1566 1.574 . S
C1574 H1569 0.949 . S
C1574 C1580 1.368 . S
C1575 C1559 1.349 . S
C1575 H1567 0.950 . S
C1575 C1573 1.327 . S
C1576 C1564 1.349 . S
C1576 H1570 0.950 . S
C1576 C1577 1.327 . S
C1577 H1571 0.950 . S
C1577 C1576 1.327 . S
C1577 C1581 1.429 . S
C1578 C1561 1.574 . S
C1578 H1572 0.949 . S
C1578 C1582 1.368 . S
C1579 C1560 1.429 . S
C1579 C1573 1.429 . S
C1579 C1580 1.523 . S
C1580 C1561 1.368 . S
C1580 C1574 1.368 . S
C1580 C1579 1.523 . S
C1581 C1565 1.429 . S
C1581 C1577 1.429 . S
C1581 C1582 1.523 . S
C1582 C1566 1.368 . S
C1582 C1578 1.368 . S
C1582 C1581 1.523 . S
H1583 C1558 0.950 . S
H1584 C1560 0.950 . S
H1585 C1561 0.949 . S
H1586 C1563 0.950 . S
H1587 C1565 0.950 . S
C1588 C1589 1.349 . S
C1588 C1590 1.327 . S
C1588 H1613 0.950 . S
C1589 C1588 1.349 . S
C1589 C1605 1.349 . S
C1590 C1588 1.327 . S
C1590 C1609 1.429 . S
C1590 H1614 0.950 . S
C1591 C1608 1.574 . S
C1591 C1610 1.368 . S
C1591 H1615 0.949 . S
H1592 C1596 0.949 . S
C1593 C1594 1.349 . S
C1593 C1595 1.327 . S
C1593 H1616 0.950 . S
C1594 C1593 1.349 . S
C1594 C1606 1.349 . S
C1595 C1593 1.327 . S
C1595 C1611 1.429 . S
C1595 H1617 0.950 . S
C1596 H1592 0.949 . S
C1596 C1604 1.574 . S
C1596 C1612 1.368 . S
H1597 C1605 0.950 . S
H1598 C1603 0.950 . S
H1599 C1604 0.949 . S
H1600 C1606 0.950 . S
H1601 C1607 0.950 . S
H1602 C1608 0.949 . S
C1603 H1598 0.950 . S
C1603 C1605 1.327 . S
C1603 C1609 1.429 . S
C1604 C1596 1.574 . S
C1604 H1599 0.949 . S
C1604 C1610 1.368 . S
C1605 C1589 1.349 . S
C1605 H1597 0.950 . S
C1605 C1603 1.327 . S
C1606 C1594 1.349 . S
C1606 H1600 0.950 . S
C1606 C1607 1.327 . S
C1607 H1601 0.950 . S
C1607 C1606 1.327 . S
C1607 C1611 1.429 . S
C1608 C1591 1.574 . S
C1608 H1602 0.949 . S
C1608 C1612 1.368 . S
C1609 C1590 1.429 . S
C1609 C1603 1.429 . S
C1609 C1610 1.523 . S
C1610 C1591 1.368 . S
C1610 C1604 1.368 . S
C1610 C1609 1.523 . S
C1611 C1595 1.429 . S
C1611 C1607 1.429 . S
C1611 C1612 1.523 . S
C1612 C1596 1.368 . S
C1612 C1608 1.368 . S
C1612 C1611 1.523 . S
H1613 C1588 0.950 . S
H1614 C1590 0.950 . S
H1615 C1591 0.949 . S
H1616 C1593 0.950 . S
H1617 C1595 0.950 . S
C1618 C1619 1.349 . S
C1618 C1620 1.327 . S
C1618 H1643 0.950 . S
C1619 C1618 1.349 . S
C1619 C1635 1.349 . S
C1620 C1618 1.327 . S
C1620 C1639 1.429 . S
C1620 H1644 0.950 . S
C1621 C1638 1.574 . S
C1621 C1640 1.368 . S
C1621 H1645 0.949 . S
H1622 C1626 0.949 . S
C1623 C1624 1.349 . S
C1623 C1625 1.327 . S
C1623 H1646 0.950 . S
C1624 C1623 1.349 . S
C1624 C1636 1.349 . S
C1625 C1623 1.327 . S
C1625 C1641 1.429 . S
C1625 H1647 0.950 . S
C1626 H1622 0.949 . S
C1626 C1634 1.574 . S
C1626 C1642 1.368 . S
H1627 C1635 0.950 . S
H1628 C1633 0.950 . S
H1629 C1634 0.949 . S
H1630 C1636 0.950 . S
H1631 C1637 0.950 . S
H1632 C1638 0.949 . S
C1633 H1628 0.950 . S
C1633 C1635 1.327 . S
C1633 C1639 1.429 . S
C1634 C1626 1.574 . S
C1634 H1629 0.949 . S
C1634 C1640 1.368 . S
C1635 C1619 1.349 . S
C1635 H1627 0.950 . S
C1635 C1633 1.327 . S
C1636 C1624 1.349 . S
C1636 H1630 0.950 . S
C1636 C1637 1.327 . S
C1637 H1631 0.950 . S
C1637 C1636 1.327 . S
C1637 C1641 1.429 . S
C1638 C1621 1.574 . S
C1638 H1632 0.949 . S
C1638 C1642 1.368 . S
C1639 C1620 1.429 . S
C1639 C1633 1.429 . S
C1639 C1640 1.523 . S
C1640 C1621 1.368 . S
C1640 C1634 1.368 . S
C1640 C1639 1.523 . S
C1641 C1625 1.429 . S
C1641 C1637 1.429 . S
C1641 C1642 1.523 . S
C1642 C1626 1.368 . S
C1642 C1638 1.368 . S
C1642 C1641 1.523 . S
H1643 C1618 0.950 . S
H1644 C1620 0.950 . S
H1645 C1621 0.949 . S
H1646 C1623 0.950 . S
H1647 C1625 0.950 . S
C1648 C1649 1.349 . S
C1648 C1650 1.327 . S
C1648 H1673 0.950 . S
C1649 C1648 1.349 . S
C1649 C1665 1.349 . S
C1650 C1648 1.327 . S
C1650 C1669 1.429 . S
C1650 H1674 0.950 . S
C1651 C1668 1.574 1_554 S
C1651 C1670 1.368 . S
C1651 H1675 0.949 . S
H1652 C1656 0.949 . S
C1653 C1654 1.349 . S
C1653 C1655 1.327 . S
C1653 H1676 0.950 . S
C1654 C1653 1.349 . S
C1654 C1666 1.349 . S
C1655 C1653 1.327 . S
C1655 C1671 1.429 . S
C1655 H1677 0.950 . S
C1656 H1652 0.949 . S
C1656 C1664 1.574 1_556 S
C1656 C1672 1.368 . S
H1657 C1665 0.950 . S
H1658 C1663 0.950 . S
H1659 C1664 0.949 . S
H1660 C1666 0.950 . S
H1661 C1667 0.950 . S
H1662 C1668 0.949 . S
C1663 H1658 0.950 . S
C1663 C1665 1.327 . S
C1663 C1669 1.429 . S
C1664 C1656 1.574 1_554 S
C1664 H1659 0.949 . S
C1664 C1670 1.368 . S
C1665 C1649 1.349 . S
C1665 H1657 0.950 . S
C1665 C1663 1.327 . S
C1666 C1654 1.349 . S
C1666 H1660 0.950 . S
C1666 C1667 1.327 . S
C1667 H1661 0.950 . S
C1667 C1666 1.327 . S
C1667 C1671 1.429 . S
C1668 C1651 1.574 1_556 S
C1668 H1662 0.949 . S
C1668 C1672 1.368 . S
C1669 C1650 1.429 . S
C1669 C1663 1.429 . S
C1669 C1670 1.523 . S
C1670 C1651 1.368 . S
C1670 C1664 1.368 . S
C1670 C1669 1.523 . S
C1671 C1655 1.429 . S
C1671 C1667 1.429 . S
C1671 C1672 1.523 . S
C1672 C1656 1.368 . S
C1672 C1668 1.368 . S
C1672 C1671 1.523 . S
H1673 C1648 0.950 . S
H1674 C1650 0.950 . S
H1675 C1651 0.949 . S
H1676 C1653 0.950 . S
H1677 C1655 0.950 . S
C1678 C1679 1.349 . S
C1678 C1680 1.327 . S
C1678 H1703 0.950 . S
C1679 C1678 1.349 . S
C1679 C1695 1.349 . S
C1680 C1678 1.327 . S
C1680 C1699 1.429 . S
C1680 H1704 0.950 . S
C1681 C1698 1.574 1_556 S
C1681 C1700 1.368 . S
C1681 H1705 0.949 . S
H1682 C1686 0.949 . S
C1683 C1684 1.349 . S
C1683 C1685 1.327 . S
C1683 H1706 0.950 . S
C1684 C1683 1.349 . S
C1684 C1696 1.349 . S
C1685 C1683 1.327 . S
C1685 C1701 1.429 . S
C1685 H1707 0.950 . S
C1686 H1682 0.949 . S
C1686 C1694 1.574 1_554 S
C1686 C1702 1.368 . S
H1687 C1695 0.950 . S
H1688 C1693 0.950 . S
H1689 C1694 0.949 . S
H1690 C1696 0.950 . S
H1691 C1697 0.950 . S
H1692 C1698 0.949 . S
C1693 H1688 0.950 . S
C1693 C1695 1.327 . S
C1693 C1699 1.429 . S
C1694 C1686 1.574 1_556 S
C1694 H1689 0.949 . S
C1694 C1700 1.368 . S
C1695 C1679 1.349 . S
C1695 H1687 0.950 . S
C1695 C1693 1.327 . S
C1696 C1684 1.349 . S
C1696 H1690 0.950 . S
C1696 C1697 1.327 . S
C1697 H1691 0.950 . S
C1697 C1696 1.327 . S
C1697 C1701 1.429 . S
C1698 C1681 1.574 1_554 S
C1698 H1692 0.949 . S
C1698 C1702 1.368 . S
C1699 C1680 1.429 . S
C1699 C1693 1.429 . S
C1699 C1700 1.523 . S
C1700 C1681 1.368 . S
C1700 C1694 1.368 . S
C1700 C1699 1.523 . S
C1701 C1685 1.429 . S
C1701 C1697 1.429 . S
C1701 C1702 1.523 . S
C1702 C1686 1.368 . S
C1702 C1698 1.368 . S
C1702 C1701 1.523 . S
H1703 C1678 0.950 . S
H1704 C1680 0.950 . S
H1705 C1681 0.949 . S
H1706 C1683 0.950 . S
H1707 C1685 0.950 . S
C1708 C1709 1.349 . S
C1708 C1710 1.327 . S
C1708 H1733 0.950 . S
C1709 C1708 1.349 . S
C1709 C1725 1.349 . S
C1710 C1708 1.327 . S
C1710 C1729 1.429 . S
C1710 H1734 0.950 . S
C1711 C1728 1.574 1_554 S
C1711 C1730 1.368 . S
C1711 H1735 0.949 . S
H1712 C1716 0.949 . S
C1713 C1714 1.349 . S
C1713 C1715 1.327 . S
C1713 H1736 0.950 . S
C1714 C1713 1.349 . S
C1714 C1726 1.349 . S
C1715 C1713 1.327 . S
C1715 C1731 1.429 . S
C1715 H1737 0.950 . S
C1716 H1712 0.949 . S
C1716 C1724 1.574 1_556 S
C1716 C1732 1.368 . S
H1717 C1725 0.950 . S
H1718 C1723 0.950 . S
H1719 C1724 0.949 . S
H1720 C1726 0.950 . S
H1721 C1727 0.950 . S
H1722 C1728 0.949 . S
C1723 H1718 0.950 . S
C1723 C1725 1.327 . S
C1723 C1729 1.429 . S
C1724 C1716 1.574 1_554 S
C1724 H1719 0.949 . S
C1724 C1730 1.368 . S
C1725 C1709 1.349 . S
C1725 H1717 0.950 . S
C1725 C1723 1.327 . S
C1726 C1714 1.349 . S
C1726 H1720 0.950 . S
C1726 C1727 1.327 . S
C1727 H1721 0.950 . S
C1727 C1726 1.327 . S
C1727 C1731 1.429 . S
C1728 C1711 1.574 1_556 S
C1728 H1722 0.949 . S
C1728 C1732 1.368 . S
C1729 C1710 1.429 . S
C1729 C1723 1.429 . S
C1729 C1730 1.523 . S
C1730 C1711 1.368 . S
C1730 C1724 1.368 . S
C1730 C1729 1.523 . S
C1731 C1715 1.429 . S
C1731 C1727 1.429 . S
C1731 C1732 1.523 . S
C1732 C1716 1.368 . S
C1732 C1728 1.368 . S
C1732 C1731 1.523 . S
H1733 C1708 0.950 . S
H1734 C1710 0.950 . S
H1735 C1711 0.949 . S
H1736 C1713 0.950 . S
H1737 C1715 0.950 . S
C1738 C1739 1.349 . S
C1738 C1740 1.327 . S
C1738 H1763 0.950 . S
C1739 C1738 1.349 . S
C1739 C1755 1.349 . S
C1740 C1738 1.327 . S
C1740 C1759 1.429 . S
C1740 H1764 0.950 . S
C1741 C1758 1.574 1_554 S
C1741 C1760 1.368 . S
C1741 H1765 0.949 . S
H1742 C1746 0.949 . S
C1743 C1744 1.349 . S
C1743 C1745 1.327 . S
C1743 H1766 0.950 . S
C1744 C1743 1.349 . S
C1744 C1756 1.349 . S
C1745 C1743 1.327 . S
C1745 C1761 1.429 . S
C1745 H1767 0.950 . S
C1746 H1742 0.949 . S
C1746 C1754 1.574 1_556 S
C1746 C1762 1.368 . S
H1747 C1755 0.950 . S
H1748 C1753 0.950 . S
H1749 C1754 0.949 . S
H1750 C1756 0.950 . S
H1751 C1757 0.950 . S
H1752 C1758 0.949 . S
C1753 H1748 0.950 . S
C1753 C1755 1.327 . S
C1753 C1759 1.429 . S
C1754 C1746 1.574 1_554 S
C1754 H1749 0.949 . S
C1754 C1760 1.368 . S
C1755 C1739 1.349 . S
C1755 H1747 0.950 . S
C1755 C1753 1.327 . S
C1756 C1744 1.349 . S
C1756 H1750 0.950 . S
C1756 C1757 1.327 . S
C1757 H1751 0.950 . S
C1757 C1756 1.327 . S
C1757 C1761 1.429 . S
C1758 C1741 1.574 1_556 S
C1758 H1752 0.949 . S
C1758 C1762 1.368 . S
C1759 C1740 1.429 . S
C1759 C1753 1.429 . S
C1759 C1760 1.523 . S
C1760 C1741 1.368 . S
C1760 C1754 1.368 . S
C1760 C1759 1.523 . S
C1761 C1745 1.429 . S
C1761 C1757 1.429 . S
C1761 C1762 1.523 . S
C1762 C1746 1.368 . S
C1762 C1758 1.368 . S
C1762 C1761 1.523 . S
H1763 C1738 0.950 . S
H1764 C1740 0.950 . S
H1765 C1741 0.949 . S
H1766 C1743 0.950 . S
H1767 C1745 0.950 . S
C1768 C1769 1.349 . S
C1768 C1770 1.327 . S
C1768 H1793 0.950 . S
C1769 C1768 1.349 . S
C1769 C1785 1.349 . S
C1770 C1768 1.327 . S
C1770 C1789 1.429 . S
C1770 H1794 0.950 . S
C1771 C1788 1.574 1_554 S
C1771 C1790 1.368 . S
C1771 H1795 0.949 . S
H1772 C1776 0.949 . S
C1773 C1774 1.349 . S
C1773 C1775 1.327 . S
C1773 H1796 0.950 . S
C1774 C1773 1.349 . S
C1774 C1786 1.349 . S
C1775 C1773 1.327 . S
C1775 C1791 1.429 . S
C1775 H1797 0.950 . S
C1776 H1772 0.949 . S
C1776 C1784 1.574 1_556 S
C1776 C1792 1.368 . S
H1777 C1785 0.950 . S
H1778 C1783 0.950 . S
H1779 C1784 0.949 . S
H1780 C1786 0.950 . S
H1781 C1787 0.950 . S
H1782 C1788 0.949 . S
C1783 H1778 0.950 . S
C1783 C1785 1.327 . S
C1783 C1789 1.429 . S
C1784 C1776 1.574 1_554 S
C1784 H1779 0.949 . S
C1784 C1790 1.368 . S
C1785 C1769 1.349 . S
C1785 H1777 0.950 . S
C1785 C1783 1.327 . S
C1786 C1774 1.349 . S
C1786 H1780 0.950 . S
C1786 C1787 1.327 . S
C1787 H1781 0.950 . S
C1787 C1786 1.327 . S
C1787 C1791 1.429 . S
C1788 C1771 1.574 1_556 S
C1788 H1782 0.949 . S
C1788 C1792 1.368 . S
C1789 C1770 1.429 . S
C1789 C1783 1.429 . S
C1789 C1790 1.523 . S
C1790 C1771 1.368 . S
C1790 C1784 1.368 . S
C1790 C1789 1.523 . S
C1791 C1775 1.429 . S
C1791 C1787 1.429 . S
C1791 C1792 1.523 . S
C1792 C1776 1.368 . S
C1792 C1788 1.368 . S
C1792 C1791 1.523 . S
H1793 C1768 0.950 . S
H1794 C1770 0.950 . S
H1795 C1771 0.949 . S
H1796 C1773 0.950 . S
H1797 C1775 0.950 . S
C1798 C1799 1.349 . S
C1798 C1800 1.327 . S
C1798 H1823 0.950 . S
C1799 C1798 1.349 . S
C1799 C1815 1.349 . S
C1800 C1798 1.327 . S
C1800 C1819 1.429 . S
C1800 H1824 0.950 . S
C1801 C1818 1.574 1_554 S
C1801 C1820 1.368 . S
C1801 H1825 0.949 . S
H1802 C1806 0.949 . S
C1803 C1804 1.349 . S
C1803 C1805 1.327 . S
C1803 H1826 0.950 . S
C1804 C1803 1.349 . S
C1804 C1816 1.349 . S
C1805 C1803 1.327 . S
C1805 C1821 1.429 . S
C1805 H1827 0.950 . S
C1806 H1802 0.949 . S
C1806 C1814 1.574 1_556 S
C1806 C1822 1.368 . S
H1807 C1815 0.950 . S
H1808 C1813 0.950 . S
H1809 C1814 0.949 . S
H1810 C1816 0.950 . S
H1811 C1817 0.950 . S
H1812 C1818 0.949 . S
C1813 H1808 0.950 . S
C1813 C1815 1.327 . S
C1813 C1819 1.429 . S
C1814 C1806 1.574 1_554 S
C1814 H1809 0.949 . S
C1814 C1820 1.368 . S
C1815 C1799 1.349 . S
C1815 H1807 0.950 . S
C1815 C1813 1.327 . S
C1816 C1804 1.349 . S
C1816 H1810 0.950 . S
C1816 C1817 1.327 . S
C1817 H1811 0.950 . S
C1817 C1816 1.327 . S
C1817 C1821 1.429 . S
C1818 C1801 1.574 1_556 S
C1818 H1812 0.949 . S
C1818 C1822 1.368 . S
C1819 C1800 1.429 . S
C1819 C1813 1.429 . S
C1819 C1820 1.523 . S
C1820 C1801 1.368 . S
C1820 C1814 1.368 . S
C1820 C1819 1.523 . S
C1821 C1805 1.429 . S
C1821 C1817 1.429 . S
C1821 C1822 1.523 . S
C1822 C1806 1.368 . S
C1822 C1818 1.368 . S
C1822 C1821 1.523 . S
H1823 C1798 0.950 . S
H1824 C1800 0.950 . S
H1825 C1801 0.949 . S
H1826 C1803 0.950 . S
H1827 C1805 0.950 . S
C1828 C1829 1.349 . S
C1828 C1830 1.327 . S
C1828 H1853 0.950 . S
C1829 C1828 1.349 . S
C1829 C1845 1.349 . S
C1830 C1828 1.327 . S
C1830 C1849 1.429 . S
C1830 H1854 0.950 . S
C1831 C1848 1.574 1_556 S
C1831 C1850 1.368 . S
C1831 H1855 0.949 . S
H1832 C1836 0.949 . S
C1833 C1834 1.349 . S
C1833 C1835 1.327 . S
C1833 H1856 0.950 . S
C1834 C1833 1.349 . S
C1834 C1846 1.349 . S
C1835 C1833 1.327 . S
C1835 C1851 1.429 . S
C1835 H1857 0.950 . S
C1836 H1832 0.949 . S
C1836 C1844 1.574 1_554 S
C1836 C1852 1.368 . S
H1837 C1845 0.950 . S
H1838 C1843 0.950 . S
H1839 C1844 0.949 . S
H1840 C1846 0.950 . S
H1841 C1847 0.950 . S
H1842 C1848 0.949 . S
C1843 H1838 0.950 . S
C1843 C1845 1.327 . S
C1843 C1849 1.429 . S
C1844 C1836 1.574 1_556 S
C1844 H1839 0.949 . S
C1844 C1850 1.368 . S
C1845 C1829 1.349 . S
C1845 H1837 0.950 . S
C1845 C1843 1.327 . S
C1846 C1834 1.349 . S
C1846 H1840 0.950 . S
C1846 C1847 1.327 . S
C1847 H1841 0.950 . S
C1847 C1846 1.327 . S
C1847 C1851 1.429 . S
C1848 C1831 1.574 1_554 S
C1848 H1842 0.949 . S
C1848 C1852 1.368 . S
C1849 C1830 1.429 . S
C1849 C1843 1.429 . S
C1849 C1850 1.523 . S
C1850 C1831 1.368 . S
C1850 C1844 1.368 . S
C1850 C1849 1.523 . S
C1851 C1835 1.429 . S
C1851 C1847 1.429 . S
C1851 C1852 1.523 . S
C1852 C1836 1.368 . S
C1852 C1848 1.368 . S
C1852 C1851 1.523 . S
H1853 C1828 0.950 . S
H1854 C1830 0.950 . S
H1855 C1831 0.949 . S
H1856 C1833 0.950 . S
H1857 C1835 0.950 . S
C1858 C1859 1.349 . S
C1858 C1860 1.327 . S
C1858 H1883 0.950 . S
C1859 C1858 1.349 . S
C1859 C1875 1.349 . S
C1860 C1858 1.327 . S
C1860 C1879 1.429 . S
C1860 H1884 0.950 . S
C1861 C1878 1.574 1_556 S
C1861 C1880 1.368 . S
C1861 H1885 0.949 . S
H1862 C1866 0.949 . S
C1863 C1864 1.349 . S
C1863 C1865 1.327 . S
C1863 H1886 0.950 . S
C1864 C1863 1.349 . S
C1864 C1876 1.349 . S
C1865 C1863 1.327 . S
C1865 C1881 1.429 . S
C1865 H1887 0.950 . S
C1866 H1862 0.949 . S
C1866 C1874 1.574 1_554 S
C1866 C1882 1.368 . S
H1867 C1875 0.950 . S
H1868 C1873 0.950 . S
H1869 C1874 0.949 . S
H1870 C1876 0.950 . S
H1871 C1877 0.950 . S
H1872 C1878 0.949 . S
C1873 H1868 0.950 . S
C1873 C1875 1.327 . S
C1873 C1879 1.429 . S
C1874 C1866 1.574 1_556 S
C1874 H1869 0.949 . S
C1874 C1880 1.368 . S
C1875 C1859 1.349 . S
C1875 H1867 0.950 . S
C1875 C1873 1.327 . S
C1876 C1864 1.349 . S
C1876 H1870 0.950 . S
C1876 C1877 1.327 . S
C1877 H1871 0.950 . S
C1877 C1876 1.327 . S
C1877 C1881 1.429 . S
C1878 C1861 1.574 1_554 S
C1878 H1872 0.949 . S
C1878 C1882 1.368 . S
C1879 C1860 1.429 . S
C1879 C1873 1.429 . S
C1879 C1880 1.523 . S
C1880 C1861 1.368 . S
C1880 C1874 1.368 . S
C1880 C1879 1.523 . S
C1881 C1865 1.429 . S
C1881 C1877 1.429 . S
C1881 C1882 1.523 . S
C1882 C1866 1.368 . S
C1882 C1878 1.368 . S
C1882 C1881 1.523 . S
H1883 C1858 0.950 . S
H1884 C1860 0.950 . S
H1885 C1861 0.949 . S
H1886 C1863 0.950 . S
H1887 C1865 0.950 . S
C1888 C1889 1.349 . S
C1888 C1890 1.327 . S
C1888 H1913 0.950 . S
C1889 C1888 1.349 . S
C1889 C1905 1.349 . S
C1890 C1888 1.327 . S
C1890 C1909 1.429 . S
C1890 H1914 0.950 . S
C1891 C1908 1.574 . S
C1891 C1910 1.368 . S
C1891 H1915 0.949 . S
H1892 C1896 0.949 . S
C1893 C1894 1.349 . S
C1893 C1895 1.327 . S
C1893 H1916 0.950 . S
C1894 C1893 1.349 . S
C1894 C1906 1.349 . S
C1895 C1893 1.327 . S
C1895 C1911 1.429 . S
C1895 H1917 0.950 . S
C1896 H1892 0.949 . S
C1896 C1904 1.574 . S
C1896 C1912 1.368 . S
H1897 C1905 0.950 . S
H1898 C1903 0.950 . S
H1899 C1904 0.949 . S
H1900 C1906 0.950 . S
H1901 C1907 0.950 . S
H1902 C1908 0.949 . S
C1903 H1898 0.950 . S
C1903 C1905 1.327 . S
C1903 C1909 1.429 . S
C1904 C1896 1.574 . S
C1904 H1899 0.949 . S
C1904 C1910 1.368 . S
C1905 C1889 1.349 . S
C1905 H1897 0.950 . S
C1905 C1903 1.327 . S
C1906 C1894 1.349 . S
C1906 H1900 0.950 . S
C1906 C1907 1.327 . S
C1907 H1901 0.950 . S
C1907 C1906 1.327 . S
C1907 C1911 1.429 . S
C1908 C1891 1.574 . S
C1908 H1902 0.949 . S
C1908 C1912 1.368 . S
C1909 C1890 1.429 . S
C1909 C1903 1.429 . S
C1909 C1910 1.523 . S
C1910 C1891 1.368 . S
C1910 C1904 1.368 . S
C1910 C1909 1.523 . S
C1911 C1895 1.429 . S
C1911 C1907 1.429 . S
C1911 C1912 1.523 . S
C1912 C1896 1.368 . S
C1912 C1908 1.368 . S
C1912 C1911 1.523 . S
H1913 C1888 0.950 . S
H1914 C1890 0.950 . S
H1915 C1891 0.949 . S
H1916 C1893 0.950 . S
H1917 C1895 0.950 . S
C1918 C1919 1.349 . S
C1918 C1920 1.327 . S
C1918 H1943 0.950 . S
C1919 C1918 1.349 . S
C1919 C1935 1.349 . S
C1920 C1918 1.327 . S
C1920 C1939 1.429 . S
C1920 H1944 0.950 . S
C1921 C1938 1.574 . S
C1921 C1940 1.368 . S
C1921 H1945 0.949 . S
H1922 C1926 0.949 . S
C1923 C1924 1.349 . S
C1923 C1925 1.327 . S
C1923 H1946 0.950 . S
C1924 C1923 1.349 . S
C1924 C1936 1.349 . S
C1925 C1923 1.327 . S
C1925 C1941 1.429 . S
C1925 H1947 0.950 . S
C1926 H1922 0.949 . S
C1926 C1934 1.574 . S
C1926 C1942 1.368 . S
H1927 C1935 0.950 . S
H1928 C1933 0.950 . S
H1929 C1934 0.949 . S
H1930 C1936 0.950 . S
H1931 C1937 0.950 . S
H1932 C1938 0.949 . S
C1933 H1928 0.950 . S
C1933 C1935 1.327 . S
C1933 C1939 1.429 . S
C1934 C1926 1.574 . S
C1934 H1929 0.949 . S
C1934 C1940 1.368 . S
C1935 C1919 1.349 . S
C1935 H1927 0.950 . S
C1935 C1933 1.327 . S
C1936 C1924 1.349 . S
C1936 H1930 0.950 . S
C1936 C1937 1.327 . S
C1937 H1931 0.950 . S
C1937 C1936 1.327 . S
C1937 C1941 1.429 . S
C1938 C1921 1.574 . S
C1938 H1932 0.949 . S
C1938 C1942 1.368 . S
C1939 C1920 1.429 . S
C1939 C1933 1.429 . S
C1939 C1940 1.523 . S
C1940 C1921 1.368 . S
C1940 C1934 1.368 . S
C1940 C1939 1.523 . S
C1941 C1925 1.429 . S
C1941 C1937 1.429 . S
C1941 C1942 1.523 . S
C1942 C1926 1.368 . S
C1942 C1938 1.368 . S
C1942 C1941 1.523 . S
H1943 C1918 0.950 . S
H1944 C1920 0.950 . S
H1945 C1921 0.949 . S
H1946 C1923 0.950 . S
H1947 C1925 0.950 . S
C1948 C1949 1.349 . S
C1948 C1950 1.327 . S
C1948 H1973 0.950 . S
C1949 C1948 1.349 . S
C1949 C1965 1.349 . S
C1950 C1948 1.327 . S
C1950 C1969 1.429 . S
C1950 H1974 0.950 . S
C1951 C1968 1.574 . S
C1951 C1970 1.368 . S
C1951 H1975 0.949 . S
H1952 C1956 0.949 . S
C1953 C1954 1.349 . S
C1953 C1955 1.327 . S
C1953 H1976 0.950 . S
C1954 C1953 1.349 . S
C1954 C1966 1.349 . S
C1955 C1953 1.327 . S
C1955 C1971 1.429 . S
C1955 H1977 0.950 . S
C1956 H1952 0.949 . S
C1956 C1964 1.574 . S
C1956 C1972 1.368 . S
H1957 C1965 0.950 . S
H1958 C1963 0.950 . S
H1959 C1964 0.949 . S
H1960 C1966 0.950 . S
H1961 C1967 0.950 . S
H1962 C1968 0.949 . S
C1963 H1958 0.950 . S
C1963 C1965 1.327 . S
C1963 C1969 1.429 . S
C1964 C1956 1.574 . S
C1964 H1959 0.949 . S
C1964 C1970 1.368 . S
C1965 C1949 1.349 . S
C1965 H1957 0.950 . S
C1965 C1963 1.327 . S
C1966 C1954 1.349 . S
C1966 H1960 0.950 . S
C1966 C1967 1.327 . S
C1967 H1961 0.950 . S
C1967 C1966 1.327 . S
C1967 C1971 1.429 . S
C1968 C1951 1.574 . S
C1968 H1962 0.949 . S
C1968 C1972 1.368 . S
C1969 C1950 1.429 . S
C1969 C1963 1.429 . S
C1969 C1970 1.523 . S
C1970 C1951 1.368 . S
C1970 C1964 1.368 . S
C1970 C1969 1.523 . S
C1971 C1955 1.429 . S
C1971 C1967 1.429 . S
C1971 C1972 1.523 . S
C1972 C1956 1.368 . S
C1972 C1968 1.368 . S
C1972 C1971 1.523 . S
H1973 C1948 0.950 . S
H1974 C1950 0.950 . S
H1975 C1951 0.949 . S
H1976 C1953 0.950 . S
H1977 C1955 0.950 . S
C1978 C1979 1.349 . S
C1978 C1980 1.327 . S
C1978 H2003 0.950 . S
C1979 C1978 1.349 . S
C1979 C1995 1.349 . S
C1980 C1978 1.327 . S
C1980 C1999 1.429 . S
C1980 H2004 0.950 . S
C1981 C1998 1.574 . S
C1981 C2000 1.368 . S
C1981 H2005 0.949 . S
H1982 C1986 0.949 . S
C1983 C1984 1.349 . S
C1983 C1985 1.327 . S
C1983 H2006 0.950 . S
C1984 C1983 1.349 . S
C1984 C1996 1.349 . S
C1985 C1983 1.327 . S
C1985 C2001 1.429 . S
C1985 H2007 0.950 . S
C1986 H1982 0.949 . S
C1986 C1994 1.574 . S
C1986 C2002 1.368 . S
H1987 C1995 0.950 . S
H1988 C1993 0.950 . S
H1989 C1994 0.949 . S
H1990 C1996 0.950 . S
H1991 C1997 0.950 . S
H1992 C1998 0.949 . S
C1993 H1988 0.950 . S
C1993 C1995 1.327 . S
C1993 C1999 1.429 . S
C1994 C1986 1.574 . S
C1994 H1989 0.949 . S
C1994 C2000 1.368 . S
C1995 C1979 1.349 . S
C1995 H1987 0.950 . S
C1995 C1993 1.327 . S
C1996 C1984 1.349 . S
C1996 H1990 0.950 . S
C1996 C1997 1.327 . S
C1997 H1991 0.950 . S
C1997 C1996 1.327 . S
C1997 C2001 1.429 . S
C1998 C1981 1.574 . S
C1998 H1992 0.949 . S
C1998 C2002 1.368 . S
C1999 C1980 1.429 . S
C1999 C1993 1.429 . S
C1999 C2000 1.523 . S
C2000 C1981 1.368 . S
C2000 C1994 1.368 . S
C2000 C1999 1.523 . S
C2001 C1985 1.429 . S
C2001 C1997 1.429 . S
C2001 C2002 1.523 . S
C2002 C1986 1.368 . S
C2002 C1998 1.368 . S
C2002 C2001 1.523 . S
H2003 C1978 0.950 . S
H2004 C1980 0.950 . S
H2005 C1981 0.949 . S
H2006 C1983 0.950 . S
H2007 C1985 0.950 . S
C2008 C2009 1.349 . S
C2008 C2010 1.327 . S
C2008 H2033 0.950 . S
C2009 C2008 1.349 . S
C2009 C2025 1.349 . S
C2010 C2008 1.327 . S
C2010 C2029 1.429 . S
C2010 H2034 0.950 . S
C2011 C2028 1.574 . S
C2011 C2030 1.368 . S
C2011 H2035 0.949 . S
H2012 C2016 0.949 . S
C2013 C2014 1.349 . S
C2013 C2015 1.327 . S
C2013 H2036 0.950 . S
C2014 C2013 1.349 . S
C2014 C2026 1.349 . S
C2015 C2013 1.327 . S
C2015 C2031 1.429 . S
C2015 H2037 0.950 . S
C2016 H2012 0.949 . S
C2016 C2024 1.574 . S
C2016 C2032 1.368 . S
H2017 C2025 0.950 . S
H2018 C2023 0.950 . S
H2019 C2024 0.949 . S
H2020 C2026 0.950 . S
H2021 C2027 0.950 . S
H2022 C2028 0.949 . S
C2023 H2018 0.950 . S
C2023 C2025 1.327 . S
C2023 C2029 1.429 . S
C2024 C2016 1.574 . S
C2024 H2019 0.949 . S
C2024 C2030 1.368 . S
C2025 C2009 1.349 . S
C2025 H2017 0.950 . S
C2025 C2023 1.327 . S
C2026 C2014 1.349 . S
C2026 H2020 0.950 . S
C2026 C2027 1.327 . S
C2027 H2021 0.950 . S
C2027 C2026 1.327 . S
C2027 C2031 1.429 . S
C2028 C2011 1.574 . S
C2028 H2022 0.949 . S
C2028 C2032 1.368 . S
C2029 C2010 1.429 . S
C2029 C2023 1.429 . S
C2029 C2030 1.523 . S
C2030 C2011 1.368 . S
C2030 C2024 1.368 . S
C2030 C2029 1.523 . S
C2031 C2015 1.429 . S
C2031 C2027 1.429 . S
C2031 C2032 1.523 . S
C2032 C2016 1.368 . S
C2032 C2028 1.368 . S
C2032 C2031 1.523 . S
H2033 C2008 0.950 . S
H2034 C2010 0.950 . S
H2035 C2011 0.949 . S
H2036 C2013 0.950 . S
H2037 C2015 0.950 . S
C2038 C2039 1.349 . S
C2038 C2040 1.327 . S
C2038 H2063 0.950 . S
C2039 C2038 1.349 . S
C2039 C2055 1.349 . S
C2040 C2038 1.327 . S
C2040 C2059 1.429 . S
C2040 H2064 0.950 . S
C2041 C2058 1.574 . S
C2041 C2060 1.368 . S
C2041 H2065 0.949 . S
H2042 C2046 0.949 . S
C2043 C2044 1.349 . S
C2043 C2045 1.327 . S
C2043 H2066 0.950 . S
C2044 C2043 1.349 . S
C2044 C2056 1.349 . S
C2045 C2043 1.327 . S
C2045 C2061 1.429 . S
C2045 H2067 0.950 . S
C2046 H2042 0.949 . S
C2046 C2054 1.574 . S
C2046 C2062 1.368 . S
H2047 C2055 0.950 . S
H2048 C2053 0.950 . S
H2049 C2054 0.949 . S
H2050 C2056 0.950 . S
H2051 C2057 0.950 . S
H2052 C2058 0.949 . S
C2053 H2048 0.950 . S
C2053 C2055 1.327 . S
C2053 C2059 1.429 . S
C2054 C2046 1.574 . S
C2054 H2049 0.949 . S
C2054 C2060 1.368 . S
C2055 C2039 1.349 . S
C2055 H2047 0.950 . S
C2055 C2053 1.327 . S
C2056 C2044 1.349 . S
C2056 H2050 0.950 . S
C2056 C2057 1.327 . S
C2057 H2051 0.950 . S
C2057 C2056 1.327 . S
C2057 C2061 1.429 . S
C2058 C2041 1.574 . S
C2058 H2052 0.949 . S
C2058 C2062 1.368 . S
C2059 C2040 1.429 . S
C2059 C2053 1.429 . S
C2059 C2060 1.523 . S
C2060 C2041 1.368 . S
C2060 C2054 1.368 . S
C2060 C2059 1.523 . S
C2061 C2045 1.429 . S
C2061 C2057 1.429 . S
C2061 C2062 1.523 . S
C2062 C2046 1.368 . S
C2062 C2058 1.368 . S
C2062 C2061 1.523 . S
H2063 C2038 0.950 . S
H2064 C2040 0.950 . S
H2065 C2041 0.949 . S
H2066 C2043 0.950 . S
H2067 C2045 0.950 . S
C2068 C2069 1.349 . S
C2068 C2070 1.327 . S
C2068 H2093 0.950 . S
C2069 C2068 1.349 . S
C2069 C2085 1.349 . S
C2070 C2068 1.327 . S
C2070 C2089 1.429 . S
C2070 H2094 0.950 . S
C2071 C2088 1.574 . S
C2071 C2090 1.368 . S
C2071 H2095 0.949 . S
H2072 C2076 0.949 . S
C2073 C2074 1.349 . S
C2073 C2075 1.327 . S
C2073 H2096 0.950 . S
C2074 C2073 1.349 . S
C2074 C2086 1.349 . S
C2075 C2073 1.327 . S
C2075 C2091 1.429 . S
C2075 H2097 0.950 . S
C2076 H2072 0.949 . S
C2076 C2084 1.574 . S
C2076 C2092 1.368 . S
H2077 C2085 0.950 . S
H2078 C2083 0.950 . S
H2079 C2084 0.949 . S
H2080 C2086 0.950 . S
H2081 C2087 0.950 . S
H2082 C2088 0.949 . S
C2083 H2078 0.950 . S
C2083 C2085 1.327 . S
C2083 C2089 1.429 . S
C2084 C2076 1.574 . S
C2084 H2079 0.949 . S
C2084 C2090 1.368 . S
C2085 C2069 1.349 . S
C2085 H2077 0.950 . S
C2085 C2083 1.327 . S
C2086 C2074 1.349 . S
C2086 H2080 0.950 . S
C2086 C2087 1.327 . S
C2087 H2081 0.950 . S
C2087 C2086 1.327 . S
C2087 C2091 1.429 . S
C2088 C2071 1.574 . S
C2088 H2082 0.949 . S
C2088 C2092 1.368 . S
C2089 C2070 1.429 . S
C2089 C2083 1.429 . S
C2089 C2090 1.523 . S
C2090 C2071 1.368 . S
C2090 C2084 1.368 . S
C2090 C2089 1.523 . S
C2091 C2075 1.429 . S
C2091 C2087 1.429 . S
C2091 C2092 1.523 . S
C2092 C2076 1.368 . S
C2092 C2088 1.368 . S
C2092 C2091 1.523 . S
H2093 C2068 0.950 . S
H2094 C2070 0.950 . S
H2095 C2071 0.949 . S
H2096 C2073 0.950 . S
H2097 C2075 0.950 . S
C2098 C2099 1.349 . S
C2098 C2100 1.327 . S
C2098 H2123 0.950 . S
C2099 C2098 1.349 . S
C2099 C2115 1.349 . S
C2100 C2098 1.327 . S
C2100 C2119 1.429 . S
C2100 H2124 0.950 . S
C2101 C2118 1.574 . S
C2101 C2120 1.368 . S
C2101 H2125 0.949 . S
H2102 C2106 0.949 . S
C2103 C2104 1.349 . S
C2103 C2105 1.327 . S
C2103 H2126 0.950 . S
C2104 C2103 1.349 . S
C2104 C2116 1.349 . S
C2105 C2103 1.327 . S
C2105 C2121 1.429 . S
C2105 H2127 0.950 . S
C2106 H2102 0.949 . S
C2106 C2114 1.574 . S
C2106 C2122 1.368 . S
H2107 C2115 0.950 . S
H2108 C2113 0.950 . S
H2109 C2114 0.949 . S
H2110 C2116 0.950 . S
H2111 C2117 0.950 . S
H2112 C2118 0.949 . S
C2113 H2108 0.950 . S
C2113 C2115 1.327 . S
C2113 C2119 1.429 . S
C2114 C2106 1.574 . S
C2114 H2109 0.949 . S
C2114 C2120 1.368 . S
C2115 C2099 1.349 . S
C2115 H2107 0.950 . S
C2115 C2113 1.327 . S
C2116 C2104 1.349 . S
C2116 H2110 0.950 . S
C2116 C2117 1.327 . S
C2117 H2111 0.950 . S
C2117 C2116 1.327 . S
C2117 C2121 1.429 . S
C2118 C2101 1.574 . S
C2118 H2112 0.949 . S
C2118 C2122 1.368 . S
C2119 C2100 1.429 . S
C2119 C2113 1.429 . S
C2119 C2120 1.523 . S
C2120 C2101 1.368 . S
C2120 C2114 1.368 . S
C2120 C2119 1.523 . S
C2121 C2105 1.429 . S
C2121 C2117 1.429 . S
C2121 C2122 1.523 . S
C2122 C2106 1.368 . S
C2122 C2118 1.368 . S
C2122 C2121 1.523 . S
H2123 C2098 0.950 . S
H2124 C2100 0.950 . S
H2125 C2101 0.949 . S
H2126 C2103 0.950 . S
H2127 C2105 0.950 . S
C2128 C2129 1.349 . S
C2128 C2130 1.327 . S
C2128 H2153 0.950 . S
C2129 C2128 1.349 . S
C2129 C2145 1.349 . S
C2130 C2128 1.327 . S
C2130 C2149 1.429 . S
C2130 H2154 0.950 . S
C2131 C2148 1.574 . S
C2131 C2150 1.368 . S
C2131 H2155 0.949 . S
H2132 C2136 0.949 . S
C2133 C2134 1.349 . S
C2133 C2135 1.327 . S
C2133 H2156 0.950 . S
C2134 C2133 1.349 . S
C2134 C2146 1.349 . S
C2135 C2133 1.327 . S
C2135 C2151 1.429 . S
C2135 H2157 0.950 . S
C2136 H2132 0.949 . S
C2136 C2144 1.574 . S
C2136 C2152 1.368 . S
H2137 C2145 0.950 . S
H2138 C2143 0.950 . S
H2139 C2144 0.949 . S
H2140 C2146 0.950 . S
H2141 C2147 0.950 . S
H2142 C2148 0.949 . S
C2143 H2138 0.950 . S
C2143 C2145 1.327 . S
C2143 C2149 1.429 . S
C2144 C2136 1.574 . S
C2144 H2139 0.949 . S
C2144 C2150 1.368 . S
C2145 C2129 1.349 . S
C2145 H2137 0.950 . S
C2145 C2143 1.327 . S
C2146 C2134 1.349 . S
C2146 H2140 0.950 . S
C2146 C2147 1.327 . S
C2147 H2141 0.950 . S
C2147 C2146 1.327 . S
C2147 C2151 1.429 . S
C2148 C2131 1.574 . S
C2148 H2142 0.949 . S
C2148 C2152 1.368 . S
C2149 C2130 1.429 . S
C2149 C2143 1.429 . S
C2149 C2150 1.523 . S
C2150 C2131 1.368 . S
C2150 C2144 1.368 . S
C2150 C2149 1.523 . S
C2151 C2135 1.429 . S
C2151 C2147 1.429 . S
C2151 C2152 1.523 . S
C2152 C2136 1.368 . S
C2152 C2148 1.368 . S
C2152 C2151 1.523 . S
H2153 C2128 0.950 . S
H2154 C2130 0.950 . S
H2155 C2131 0.949 . S
H2156 C2133 0.950 . S
H2157 C2135 0.950 . S
C2158 C2159 1.349 . S
C2158 C2160 1.327 . S
C2158 H2183 0.950 . S
C2159 C2158 1.349 . S
C2159 C2175 1.349 . S
C2160 C2158 1.327 . S
C2160 C2179 1.429 . S
C2160 H2184 0.950 . S
C2161 C2178 1.574 . S
C2161 C2180 1.368 . S
C2161 H2185 0.949 . S
H2162 C2166 0.949 . S
C2163 C2164 1.349 . S
C2163 C2165 1.327 . S
C2163 H2186 0.950 . S
C2164 C2163 1.349 . S
C2164 C2176 1.349 . S
C2165 C2163 1.327 . S
C2165 C2181 1.429 . S
C2165 H2187 0.950 . S
C2166 H2162 0.949 . S
C2166 C2174 1.574 . S
C2166 C2182 1.368 . S
H2167 C2175 0.950 . S
H2168 C2173 0.950 . S
H2169 C2174 0.949 . S
H2170 C2176 0.950 . S
H2171 C2177 0.950 . S
H2172 C2178 0.949 . S
C2173 H2168 0.950 . S
C2173 C2175 1.327 . S
C2173 C2179 1.429 . S
C2174 C2166 1.574 . S
C2174 H2169 0.949 . S
C2174 C2180 1.368 . S
C2175 C2159 1.349 . S
C2175 H2167 0.950 . S
C2175 C2173 1.327 . S
C2176 C2164 1.349 . S
C2176 H2170 0.950 . S
C2176 C2177 1.327 . S
C2177 H2171 0.950 . S
C2177 C2176 1.327 . S
C2177 C2181 1.429 . S
C2178 C2161 1.574 . S
C2178 H2172 0.949 . S
C2178 C2182 1.368 . S
C2179 C2160 1.429 . S
C2179 C2173 1.429 . S
C2179 C2180 1.523 . S
C2180 C2161 1.368 . S
C2180 C2174 1.368 . S
C2180 C2179 1.523 . S
C2181 C2165 1.429 . S
C2181 C2177 1.429 . S
C2181 C2182 1.523 . S
C2182 C2166 1.368 . S
C2182 C2178 1.368 . S
C2182 C2181 1.523 . S
H2183 C2158 0.950 . S
H2184 C2160 0.950 . S
H2185 C2161 0.949 . S
H2186 C2163 0.950 . S
H2187 C2165 0.950 . S
C2188 C2189 1.349 . S
C2188 C2190 1.327 . S
C2188 H2213 0.950 . S
C2189 C2188 1.349 . S
C2189 C2205 1.349 . S
C2190 C2188 1.327 . S
C2190 C2209 1.429 . S
C2190 H2214 0.950 . S
C2191 C2208 1.574 . S
C2191 C2210 1.368 . S
C2191 H2215 0.949 . S
H2192 C2196 0.949 . S
C2193 C2194 1.349 . S
C2193 C2195 1.327 . S
C2193 H2216 0.950 . S
C2194 C2193 1.349 . S
C2194 C2206 1.349 . S
C2195 C2193 1.327 . S
C2195 C2211 1.429 . S
C2195 H2217 0.950 . S
C2196 H2192 0.949 . S
C2196 C2204 1.574 . S
C2196 C2212 1.368 . S
H2197 C2205 0.950 . S
H2198 C2203 0.950 . S
H2199 C2204 0.949 . S
H2200 C2206 0.950 . S
H2201 C2207 0.950 . S
H2202 C2208 0.949 . S
C2203 H2198 0.950 . S
C2203 C2205 1.327 . S
C2203 C2209 1.429 . S
C2204 C2196 1.574 . S
C2204 H2199 0.949 . S
C2204 C2210 1.368 . S
C2205 C2189 1.349 . S
C2205 H2197 0.950 . S
C2205 C2203 1.327 . S
C2206 C2194 1.349 . S
C2206 H2200 0.950 . S
C2206 C2207 1.327 . S
C2207 H2201 0.950 . S
C2207 C2206 1.327 . S
C2207 C2211 1.429 . S
C2208 C2191 1.574 . S
C2208 H2202 0.949 . S
C2208 C2212 1.368 . S
C2209 C2190 1.429 . S
C2209 C2203 1.429 . S
C2209 C2210 1.523 . S
C2210 C2191 1.368 . S
C2210 C2204 1.368 . S
C2210 C2209 1.523 . S
C2211 C2195 1.429 . S
C2211 C2207 1.429 . S
C2211 C2212 1.523 . S
C2212 C2196 1.368 . S
C2212 C2208 1.368 . S
C2212 C2211 1.523 . S
H2213 C2188 0.950 . S
H2214 C2190 0.950 . S
H2215 C2191 0.949 . S
H2216 C2193 0.950 . S
H2217 C2195 0.950 . S
C2218 C2219 1.349 . S
C2218 C2220 1.327 . S
C2218 H2243 0.950 . S
C2219 C2218 1.349 . S
C2219 C2235 1.349 . S
C2220 C2218 1.327 . S
C2220 C2239 1.429 . S
C2220 H2244 0.950 . S
C2221 C2238 1.574 . S
C2221 C2240 1.368 . S
C2221 H2245 0.949 . S
H2222 C2226 0.949 . S
C2223 C2224 1.349 . S
C2223 C2225 1.327 . S
C2223 H2246 0.950 . S
C2224 C2223 1.349 . S
C2224 C2236 1.349 . S
C2225 C2223 1.327 . S
C2225 C2241 1.429 . S
C2225 H2247 0.950 . S
C2226 H2222 0.949 . S
C2226 C2234 1.574 . S
C2226 C2242 1.368 . S
H2227 C2235 0.950 . S
H2228 C2233 0.950 . S
H2229 C2234 0.949 . S
H2230 C2236 0.950 . S
H2231 C2237 0.950 . S
H2232 C2238 0.949 . S
C2233 H2228 0.950 . S
C2233 C2235 1.327 . S
C2233 C2239 1.429 . S
C2234 C2226 1.574 . S
C2234 H2229 0.949 . S
C2234 C2240 1.368 . S
C2235 C2219 1.349 . S
C2235 H2227 0.950 . S
C2235 C2233 1.327 . S
C2236 C2224 1.349 . S
C2236 H2230 0.950 . S
C2236 C2237 1.327 . S
C2237 H2231 0.950 . S
C2237 C2236 1.327 . S
C2237 C2241 1.429 . S
C2238 C2221 1.574 . S
C2238 H2232 0.949 . S
C2238 C2242 1.368 . S
C2239 C2220 1.429 . S
C2239 C2233 1.429 . S
C2239 C2240 1.523 . S
C2240 C2221 1.368 . S
C2240 C2234 1.368 . S
C2240 C2239 1.523 . S
C2241 C2225 1.429 . S
C2241 C2237 1.429 . S
C2241 C2242 1.523 . S
C2242 C2226 1.368 . S
C2242 C2238 1.368 . S
C2242 C2241 1.523 . S
H2243 C2218 0.950 . S
H2244 C2220 0.950 . S
H2245 C2221 0.949 . S
H2246 C2223 0.950 . S
H2247 C2225 0.950 . S
C2248 C2249 1.349 . S
C2248 C2250 1.327 . S
C2248 H2273 0.950 . S
C2249 C2248 1.349 . S
C2249 C2265 1.349 . S
C2250 C2248 1.327 . S
C2250 C2269 1.429 . S
C2250 H2274 0.950 . S
C2251 C2268 1.574 . S
C2251 C2270 1.368 . S
C2251 H2275 0.949 . S
H2252 C2256 0.949 . S
C2253 C2254 1.349 . S
C2253 C2255 1.327 . S
C2253 H2276 0.950 . S
C2254 C2253 1.349 . S
C2254 C2266 1.349 . S
C2255 C2253 1.327 . S
C2255 C2271 1.429 . S
C2255 H2277 0.950 . S
C2256 H2252 0.949 . S
C2256 C2264 1.574 . S
C2256 C2272 1.368 . S
H2257 C2265 0.950 . S
H2258 C2263 0.950 . S
H2259 C2264 0.949 . S
H2260 C2266 0.950 . S
H2261 C2267 0.950 . S
H2262 C2268 0.949 . S
C2263 H2258 0.950 . S
C2263 C2265 1.327 . S
C2263 C2269 1.429 . S
C2264 C2256 1.574 . S
C2264 H2259 0.949 . S
C2264 C2270 1.368 . S
C2265 C2249 1.349 . S
C2265 H2257 0.950 . S
C2265 C2263 1.327 . S
C2266 C2254 1.349 . S
C2266 H2260 0.950 . S
C2266 C2267 1.327 . S
C2267 H2261 0.950 . S
C2267 C2266 1.327 . S
C2267 C2271 1.429 . S
C2268 C2251 1.574 . S
C2268 H2262 0.949 . S
C2268 C2272 1.368 . S
C2269 C2250 1.429 . S
C2269 C2263 1.429 . S
C2269 C2270 1.523 . S
C2270 C2251 1.368 . S
C2270 C2264 1.368 . S
C2270 C2269 1.523 . S
C2271 C2255 1.429 . S
C2271 C2267 1.429 . S
C2271 C2272 1.523 . S
C2272 C2256 1.368 . S
C2272 C2268 1.368 . S
C2272 C2271 1.523 . S
H2273 C2248 0.950 . S
H2274 C2250 0.950 . S
H2275 C2251 0.949 . S
H2276 C2253 0.950 . S
H2277 C2255 0.950 . S
C2278 C2279 1.349 . S
C2278 C2280 1.327 . S
C2278 H2303 0.950 . S
C2279 C2278 1.349 . S
C2279 C2295 1.349 . S
C2280 C2278 1.327 . S
C2280 C2299 1.429 . S
C2280 H2304 0.950 . S
C2281 C2298 1.574 . S
C2281 C2300 1.368 . S
C2281 H2305 0.949 . S
H2282 C2286 0.949 . S
C2283 C2284 1.349 . S
C2283 C2285 1.327 . S
C2283 H2306 0.950 . S
C2284 C2283 1.349 . S
C2284 C2296 1.349 . S
C2285 C2283 1.327 . S
C2285 C2301 1.429 . S
C2285 H2307 0.950 . S
C2286 H2282 0.949 . S
C2286 C2294 1.574 . S
C2286 C2302 1.368 . S
H2287 C2295 0.950 . S
H2288 C2293 0.950 . S
H2289 C2294 0.949 . S
H2290 C2296 0.950 . S
H2291 C2297 0.950 . S
H2292 C2298 0.949 . S
C2293 H2288 0.950 . S
C2293 C2295 1.327 . S
C2293 C2299 1.429 . S
C2294 C2286 1.574 . S
C2294 H2289 0.949 . S
C2294 C2300 1.368 . S
C2295 C2279 1.349 . S
C2295 H2287 0.950 . S
C2295 C2293 1.327 . S
C2296 C2284 1.349 . S
C2296 H2290 0.950 . S
C2296 C2297 1.327 . S
C2297 H2291 0.950 . S
C2297 C2296 1.327 . S
C2297 C2301 1.429 . S
C2298 C2281 1.574 . S
C2298 H2292 0.949 . S
C2298 C2302 1.368 . S
C2299 C2280 1.429 . S
C2299 C2293 1.429 . S
C2299 C2300 1.523 . S
C2300 C2281 1.368 . S
C2300 C2294 1.368 . S
C2300 C2299 1.523 . S
C2301 C2285 1.429 . S
C2301 C2297 1.429 . S
C2301 C2302 1.523 . S
C2302 C2286 1.368 . S
C2302 C2298 1.368 . S
C2302 C2301 1.523 . S
H2303 C2278 0.950 . S
H2304 C2280 0.950 . S
H2305 C2281 0.949 . S
H2306 C2283 0.950 . S
H2307 C2285 0.950 . S
C2308 C2309 1.349 . S
C2308 C2310 1.327 . S
C2308 H2333 0.950 . S
C2309 C2308 1.349 . S
C2309 C2325 1.349 . S
C2310 C2308 1.327 . S
C2310 C2329 1.429 . S
C2310 H2334 0.950 . S
C2311 C2328 1.574 . S
C2311 C2330 1.368 . S
C2311 H2335 0.949 . S
H2312 C2316 0.949 . S
C2313 C2314 1.349 . S
C2313 C2315 1.327 . S
C2313 H2336 0.950 . S
C2314 C2313 1.349 . S
C2314 C2326 1.349 . S
C2315 C2313 1.327 . S
C2315 C2331 1.429 . S
C2315 H2337 0.950 . S
C2316 H2312 0.949 . S
C2316 C2324 1.574 . S
C2316 C2332 1.368 . S
H2317 C2325 0.950 . S
H2318 C2323 0.950 . S
H2319 C2324 0.949 . S
H2320 C2326 0.950 . S
H2321 C2327 0.950 . S
H2322 C2328 0.949 . S
C2323 H2318 0.950 . S
C2323 C2325 1.327 . S
C2323 C2329 1.429 . S
C2324 C2316 1.574 . S
C2324 H2319 0.949 . S
C2324 C2330 1.368 . S
C2325 C2309 1.349 . S
C2325 H2317 0.950 . S
C2325 C2323 1.327 . S
C2326 C2314 1.349 . S
C2326 H2320 0.950 . S
C2326 C2327 1.327 . S
C2327 H2321 0.950 . S
C2327 C2326 1.327 . S
C2327 C2331 1.429 . S
C2328 C2311 1.574 . S
C2328 H2322 0.949 . S
C2328 C2332 1.368 . S
C2329 C2310 1.429 . S
C2329 C2323 1.429 . S
C2329 C2330 1.523 . S
C2330 C2311 1.368 . S
C2330 C2324 1.368 . S
C2330 C2329 1.523 . S
C2331 C2315 1.429 . S
C2331 C2327 1.429 . S
C2331 C2332 1.523 . S
C2332 C2316 1.368 . S
C2332 C2328 1.368 . S
C2332 C2331 1.523 . S
H2333 C2308 0.950 . S
H2334 C2310 0.950 . S
H2335 C2311 0.949 . S
H2336 C2313 0.950 . S
H2337 C2315 0.950 . S
C2338 C2339 1.349 . S
C2338 C2340 1.327 . S
C2338 H2363 0.950 . S
C2339 C2338 1.349 . S
C2339 C2355 1.349 . S
C2340 C2338 1.327 . S
C2340 C2359 1.429 . S
C2340 H2364 0.950 . S
C2341 C2358 1.574 . S
C2341 C2360 1.368 . S
C2341 H2365 0.949 . S
H2342 C2346 0.949 . S
C2343 C2344 1.349 . S
C2343 C2345 1.327 . S
C2343 H2366 0.950 . S
C2344 C2343 1.349 . S
C2344 C2356 1.349 . S
C2345 C2343 1.327 . S
C2345 C2361 1.429 . S
C2345 H2367 0.950 . S
C2346 H2342 0.949 . S
C2346 C2354 1.574 . S
C2346 C2362 1.368 . S
H2347 C2355 0.950 . S
H2348 C2353 0.950 . S
H2349 C2354 0.949 . S
H2350 C2356 0.950 . S
H2351 C2357 0.950 . S
H2352 C2358 0.949 . S
C2353 H2348 0.950 . S
C2353 C2355 1.327 . S
C2353 C2359 1.429 . S
C2354 C2346 1.574 . S
C2354 H2349 0.949 . S
C2354 C2360 1.368 . S
C2355 C2339 1.349 . S
C2355 H2347 0.950 . S
C2355 C2353 1.327 . S
C2356 C2344 1.349 . S
C2356 H2350 0.950 . S
C2356 C2357 1.327 . S
C2357 H2351 0.950 . S
C2357 C2356 1.327 . S
C2357 C2361 1.429 . S
C2358 C2341 1.574 . S
C2358 H2352 0.949 . S
C2358 C2362 1.368 . S
C2359 C2340 1.429 . S
C2359 C2353 1.429 . S
C2359 C2360 1.523 . S
C2360 C2341 1.368 . S
C2360 C2354 1.368 . S
C2360 C2359 1.523 . S
C2361 C2345 1.429 . S
C2361 C2357 1.429 . S
C2361 C2362 1.523 . S
C2362 C2346 1.368 . S
C2362 C2358 1.368 . S
C2362 C2361 1.523 . S
H2363 C2338 0.950 . S
H2364 C2340 0.950 . S
H2365 C2341 0.949 . S
H2366 C2343 0.950 . S
H2367 C2345 0.950 . S
C449 C215 1.450 . S
C454 C5 1.449 . S
C479 C19 1.447 . S
C484 C177 1.442 . S
C509 C33 1.449 . S
C514 C187 1.450 . S
C539 C205 1.442 . S
C544 C47 1.447 . S
C569 C61 1.449 . S
C574 C131 1.450 . S
C599 C75 1.446 . S
C604 C149 1.441 . S
C629 C159 1.450 . S
C634 C89 1.449 . S
C659 C121 1.442 . S
C664 C103 1.447 . S
C689 C229 1.449 . S
C694 C439 1.450 . S
C719 C243 1.447 . S
C724 C401 1.442 . S
C749 C257 1.449 . S
C754 C411 1.450 . S
C779 C429 1.442 . S
C784 C271 1.447 . S
C809 C285 1.449 . S
C814 C355 1.450 . S
C839 C299 1.446 . S
C844 C373 1.441 . S
C869 C383 1.450 . S
C874 C313 1.449 . S
C899 C327 1.447 . S
C904 C345 1.442 . S
C929 C168 1.342 . S
C934 C11 1.346 . S
C959 C25 1.351 . S
C964 C193 1.353 . S
C989 C196 1.342 . S
C994 C39 1.346 . S
C1019 C53 1.351 . S
C1024 C221 1.352 . S
C1049 C67 1.346 . S
C1054 C112 1.342 . S
C1079 C137 1.353 . S
C1084 C81 1.351 . S
C1109 C140 1.342 . S
C1114 C95 1.346 . S
C1139 C165 1.352 . S
C1144 C109 1.351 . S
C1169 C235 1.346 . S
C1174 C392 1.342 . S
C1199 C417 1.353 . S
C1204 C249 1.351 . S
C1229 C263 1.346 . S
C1234 C420 1.342 . S
C1259 C277 1.351 . S
C1264 C445 1.352 . S
C1289 C336 1.342 . S
C1294 C291 1.346 . S
C1319 C305 1.351 . S
C1324 C361 1.353 . S
C1349 C319 1.346 . S
C1354 C364 1.342 . S
C1379 C333 1.351 . S
C1384 C389 1.352 . S
C1409 C9 1.249 . S
C1414 C145 1.256 . S
C1439 C163 1.234 . S
C1444 C23 1.233 . S
C1469 C37 1.249 . S
C1474 C117 1.256 . S
C1499 C135 1.234 . S
C1504 C51 1.233 . S
C1529 C201 1.256 . S
C1534 C65 1.249 . S
C1559 C219 1.234 . S
C1564 C79 1.233 . S
C1589 C173 1.256 . S
C1594 C93 1.249 . S
C1619 C107 1.233 . S
C1624 C191 1.234 . S
C1649 C369 1.256 . S
C1654 C233 1.249 . S
C1679 C247 1.233 . S
C1684 C387 1.234 . S
C1709 C341 1.256 . S
C1714 C261 1.249 . S
C1739 C359 1.234 . S
C1744 C275 1.233 . S
C1769 C289 1.249 . S
C1774 C425 1.256 . S
C1799 C303 1.233 . S
C1804 C443 1.234 . S
C1829 C397 1.256 . S
C1834 C317 1.249 . S
C1859 C415 1.234 . S
C1864 C331 1.233 . S
C1889 C322 1.197 . S
C1894 C0 1.198 . S
C1919 C280 1.197 . S
C1924 C14 1.197 . S
C1949 C294 1.197 . S
C1954 C28 1.197 . S
C1979 C308 1.197 . S
C1984 C42 1.197 . S
C2009 C238 1.197 . S
C2014 C56 1.197 . S
C2039 C70 1.197 . S
C2044 C252 1.197 . S
C2069 C84 1.197 . S
C2074 C266 1.197 . S
C2099 C98 1.197 . S
C2104 C224 1.198 . S
C2129 C123 1.060 . S
C2134 C434 1.056 . S
C2159 C403 1.060 . S
C2164 C126 1.056 . S
C2189 C151 1.060 . S
C2194 C406 1.056 . S
C2219 C154 1.056 . S
C2224 C431 1.060 . S
C2249 C350 1.056 . S
C2254 C179 1.060 . S
C2279 C375 1.060 . S
C2284 C182 1.056 . S
C2309 C207 1.060 . S
C2314 C378 1.056 . S
C2339 C210 1.056 . S
C2344 C347 1.060 . S
