# Generated by pormake.
# Topology hcp, (12)-cn, num edge types: 1
# Building blocks:
#     Node 0, Type 0, BuildingBlock: ENOWUB_clean_sbu_0, # of connection points: 12
#     Node 1, Type 0, BuildingBlock: ENOWUB_clean_sbu_0, # of connection points: 12
#     Edge 2, Type (0, 0), BuildingBlock: MIFKUJ_clean_linker_0, # of connection points: 2
#     Edge 3, Type (0, 0), BuildingBlock: MIFKUJ_clean_linker_0, # of connection points: 2
#     Edge 4, Type (0, 0), BuildingBlock: MIFKUJ_clean_linker_0, # of connection points: 2
#     Edge 5, Type (0, 0), BuildingBlock: MIFKUJ_clean_linker_0, # of connection points: 2
#     Edge 6, Type (0, 0), BuildingBlock: MIFKUJ_clean_linker_0, # of connection points: 2
#     Edge 7, Type (0, 0), BuildingBlock: MIFKUJ_clean_linker_0, # of connection points: 2
#     Edge 8, Type (0, 0), BuildingBlock: MIFKUJ_clean_linker_0, # of connection points: 2
#     Edge 9, Type (0, 0), BuildingBlock: MIFKUJ_clean_linker_0, # of connection points: 2
#     Edge 10, Type (0, 0), BuildingBlock: MIFKUJ_clean_linker_0, # of connection points: 2
#     Edge 11, Type (0, 0), BuildingBlock: MIFKUJ_clean_linker_0, # of connection points: 2
#     Edge 12, Type (0, 0), BuildingBlock: MIFKUJ_clean_linker_0, # of connection points: 2
#     Edge 13, Type (0, 0), BuildingBlock: MIFKUJ_clean_linker_0, # of connection points: 2
# Relax obj value: 0.186
# Max RMSD: 0.270
# Mean RMSD: 0.270
data_MOF--net-hcp--node1-ENOWUB_clean_sbu_0--edge1-MIFKUJ_clean_linker_0
_symmetry_space_group_name_H-M    P1
_symmetry_Int_Tables_number       1
_symmetry_cell_setting            triclinic
loop_
_symmetry_equiv_pos_as_xyz
'x, y, z'
_cell_length_a     22.485771
_cell_length_b     22.475364
_cell_length_c     38.147459
_cell_angle_alpha  90.517688
_cell_angle_beta   89.616094
_cell_angle_gamma 120.23171
loop_
_atom_site_label
_atom_site_type_symbol
_atom_site_fract_x
_atom_site_fract_y
_atom_site_fract_z
_atom_type_partial_charge
O0 O 0.73724 0.27877 0.15932 0.0
O1 O 0.67433 0.24219 0.2312 0.0
O2 O 0.73561 0.43458 0.23348 0.0
O3 O 0.6529 0.32844 0.18994 0.0
O4 O 0.75681 0.34842 0.27307 0.0
Zr5 Zr 0.75845 0.35063 0.21175 0.0
Zr6 Zr 0.6716 0.2407 0.29263 0.0
Zr7 Zr 0.56853 0.22106 0.20996 0.0
O8 O 0.64739 0.32316 0.31561 0.0
O9 O 0.54309 0.30341 0.23104 0.0
O10 O 0.5648 0.21684 0.27117 0.0
Zr11 Zr 0.73191 0.4306 0.29489 0.0
Zr12 Zr 0.6292 0.41136 0.2117 0.0
Zr13 Zr 0.54192 0.30086 0.29244 0.0
O14 O 0.62634 0.40894 0.27303 0.0
O15 O 0.56208 0.38292 0.33969 0.0
O16 O 0.42973 0.20592 0.2746 0.0
O17 O 0.87028 0.44551 0.22939 0.0
O18 O 0.74863 0.54354 0.2808 0.0
O19 O 0.55427 0.10873 0.22323 0.0
O20 O 0.51875 0.24395 0.15883 0.0
O21 O 0.79139 0.40714 0.34124 0.0
O22 O 0.59212 0.18589 0.34154 0.0
O23 O 0.708 0.46643 0.16224 0.0
O24 O 0.53003 0.42411 0.22652 0.0
O25 O 0.76482 0.22077 0.27536 0.0
O26 O 0.6787 0.45681 0.34368 0.0
O27 O 0.62142 0.20123 0.15964 0.0
O28 O 0.44852 0.16177 0.22413 0.0
O29 O 0.85153 0.49234 0.27893 0.0
O30 O 0.81338 0.28628 0.22639 0.0
O31 O 0.48242 0.35971 0.27596 0.0
O32 O 0.51176 0.22014 0.34025 0.0
O33 O 0.78854 0.4325 0.1647 0.0
C34 C 0.68199 0.22796 0.14607 0.0
O35 O 0.75557 0.29205 0.33947 0.0
O36 O 0.61166 0.12156 0.27481 0.0
C37 C 0.61599 0.4343 0.35353 0.0
C38 C 0.40935 0.1638 0.24823 0.0
C39 C 0.89053 0.48936 0.25497 0.0
C40 C 0.72885 0.56662 0.2552 0.0
C41 C 0.57385 0.08562 0.2489 0.0
C42 C 0.52559 0.29988 0.1458 0.0
C43 C 0.79308 0.35356 0.35189 0.0
C44 C 0.53747 0.18507 0.35307 0.0
C45 C 0.76275 0.46687 0.15117 0.0
C46 C 0.48554 0.40078 0.25181 0.0
C47 C 0.80838 0.24296 0.24972 0.0
O48 O 0.56018 0.3604 0.15971 0.0
O49 O 0.6898 0.53048 0.22966 0.0
O50 O 0.39153 0.79029 0.84855 0.0
O51 O 0.32609 0.65042 0.81775 0.0
O52 O 0.31182 0.75104 0.73942 0.0
O53 O 0.41574 0.76287 0.7787 0.0
O54 O 0.22227 0.63933 0.77559 0.0
Zr55 Zr 0.30943 0.74053 0.80057 0.0
Zr56 Zr 0.23935 0.54945 0.79149 0.0
Zr57 Zr 0.43197 0.67229 0.79467 0.0
O58 O 0.24049 0.55723 0.73027 0.0
O59 O 0.43533 0.68092 0.73345 0.0
O60 O 0.34533 0.57005 0.77 0.0
Zr61 Zr 0.22524 0.64906 0.7146 0.0
Zr62 Zr 0.41745 0.77061 0.71759 0.0
Zr63 Zr 0.34722 0.57896 0.70897 0.0
O64 O 0.33072 0.66928 0.69246 0.0
O65 O 0.27163 0.53587 0.65777 0.0
O66 O 0.44359 0.56096 0.72064 0.0
O67 O 0.21135 0.75607 0.79022 0.0
O68 O 0.25391 0.73519 0.66888 0.0
O69 O 0.40147 0.58414 0.83896 0.0
O70 O 0.54636 0.77033 0.78324 0.0
O71 O 0.11127 0.54945 0.72487 0.0
O72 O 0.22284 0.43886 0.77196 0.0
O73 O 0.43185 0.88067 0.73687 0.0
O74 O 0.46797 0.75184 0.66445 0.0
O75 O 0.179 0.56833 0.83989 0.0
O76 O 0.20248 0.58366 0.66097 0.0
O77 O 0.46515 0.74788 0.84557 0.0
O78 O 0.49006 0.61338 0.77344 0.0
O79 O 0.16575 0.70597 0.73691 0.0
O80 O 0.22864 0.68503 0.84837 0.0
O81 O 0.42748 0.63562 0.66145 0.0
O82 O 0.28579 0.45733 0.72156 0.0
O83 O 0.36764 0.86151 0.78689 0.0
C84 C 0.44379 0.78639 0.8594 0.0
O85 O 0.12109 0.4938 0.77278 0.0
O86 O 0.28484 0.51011 0.83748 0.0
C87 C 0.22426 0.54674 0.64584 0.0
C88 C 0.48664 0.57751 0.74619 0.0
C89 C 0.16799 0.73967 0.76486 0.0
C90 C 0.31088 0.78793 0.6586 0.0
C91 C 0.34566 0.53033 0.84944 0.0
C92 C 0.57103 0.81775 0.75966 0.0
C93 C 0.08659 0.50172 0.7483 0.0
C94 C 0.24488 0.41841 0.74583 0.0
C95 C 0.40848 0.90061 0.76267 0.0
C96 C 0.46433 0.69771 0.65015 0.0
C97 C 0.18491 0.62188 0.85597 0.0
O98 O 0.53639 0.82552 0.73518 0.0
O99 O 0.37065 0.80749 0.67164 0.0
H100 H 0.57191 0.81669 0.88209 0.0
H101 H 0.64436 0.90343 0.9256 0.0
H102 H 0.48298 0.95019 0.94491 0.0
H103 H 0.41061 0.86452 0.9015 0.0
H104 H 0.60677 0.06582 0.93448 0.0
H105 H 0.51601 0.85201 0.00147 0.0
H106 H 0.5006 0.7374 0.01358 0.0
H107 H 0.71984 0.82487 0.01796 0.0
H108 H 0.73649 0.93992 0.0055 0.0
H109 H 0.58337 0.17765 0.09683 0.0
H110 H 0.5785 0.11695 0.04325 0.0
H111 H 0.78171 0.15002 0.06319 0.0
H112 H 0.7866 0.21119 0.11826 0.0
H113 H 0.68254 0.012 0.04565 0.0
H114 H 0.76417 0.23256 0.99829 0.0
H115 H 0.77029 0.34442 0.9934 0.0
H116 H 0.56444 0.24506 0.95295 0.0
H117 H 0.55546 0.13186 0.95933 0.0
C118 C 0.55142 0.84479 0.89591 0.0
C119 C 0.48525 0.83351 0.88823 0.0
C120 C 0.5931 0.89451 0.92069 0.0
C121 C 0.56916 0.93343 0.93833 0.0
C122 C 0.50271 0.92116 0.93131 0.0
C123 C 0.4612 0.8718 0.90658 0.0
C124 C 0.61253 0.98773 0.96403 0.0
C125 C 0.62373 0.05432 0.95874 0.0
C126 C 0.63765 0.97346 0.99485 0.0
C127 C 0.6275 0.90428 0.00207 0.0
C128 C 0.56091 0.84664 0.00469 0.0
C129 C 0.55195 0.78166 0.0117 0.0
C130 C 0.6092 0.77381 0.0164 0.0
C131 C 0.67554 0.83098 0.01421 0.0
C132 C 0.68476 0.89607 0.00719 0.0
C133 C 0.62745 0.1726 0.08987 0.0
C134 C 0.68523 0.1987 0.11184 0.0
C135 C 0.62475 0.13826 0.05903 0.0
C136 C 0.67999 0.1296 0.04905 0.0
C137 C 0.73874 0.15665 0.07045 0.0
C138 C 0.74167 0.19179 0.10163 0.0
C139 C 0.67237 0.08861 0.01707 0.0
C140 C 0.6682 0.02459 0.02088 0.0
C141 C 0.65321 0.10508 0.9849 0.0
C142 C 0.65924 0.17339 0.97928 0.0
C143 C 0.72001 0.23434 0.98847 0.0
C144 C 0.7239 0.2981 0.98554 0.0
C145 C 0.66806 0.30205 0.9726 0.0
C146 C 0.60786 0.24202 0.9628 0.0
C147 C 0.60325 0.17791 0.96618 0.0
H148 H 0.67138 0.3516 0.97027 0.0
H149 H 0.60216 0.72347 0.02185 0.0
H150 H 0.4736 0.77002 0.59085 0.0
H151 H 0.51641 0.75733 0.53322 0.0
H152 H 0.584 0.62712 0.5796 0.0
H153 H 0.54059 0.63864 0.63642 0.0
H154 H 0.67415 0.71657 0.52586 0.0
H155 H 0.4225 0.55795 0.54851 0.0
H156 H 0.30749 0.54311 0.55941 0.0
H157 H 0.32403 0.65369 0.4652 0.0
H158 H 0.43956 0.66992 0.45403 0.0
H159 H 0.66906 0.46239 0.41931 0.0
H160 H 0.65532 0.53314 0.46407 0.0
H161 H 0.53127 0.57288 0.3925 0.0
H162 H 0.54037 0.49699 0.34897 0.0
H163 H 0.47798 0.56078 0.44961 0.0
H164 H 0.70876 0.69894 0.41626 0.0
H165 H 0.82801 0.7312 0.40118 0.0
H166 H 0.86057 0.68649 0.50617 0.0
H167 H 0.7412 0.65303 0.5218 0.0
C168 C 0.49972 0.7407 0.58878 0.0
C169 C 0.50377 0.70507 0.6179 0.0
C170 C 0.52384 0.73325 0.55594 0.0
C171 C 0.55289 0.69084 0.55217 0.0
C172 C 0.56199 0.66021 0.58193 0.0
C173 C 0.53706 0.66669 0.61438 0.0
C174 C 0.56522 0.66946 0.5173 0.0
C175 C 0.63161 0.68281 0.50892 0.0
C176 C 0.51015 0.62811 0.49444 0.0
C177 C 0.43975 0.61572 0.50064 0.0
C178 C 0.40159 0.57917 0.53019 0.0
C179 C 0.33637 0.57057 0.53642 0.0
C180 C 0.30867 0.59775 0.51309 0.0
C181 C 0.34571 0.63289 0.48329 0.0
C182 C 0.411 0.64178 0.477 0.0
C183 C 0.63835 0.48582 0.41347 0.0
C184 C 0.60524 0.47409 0.38106 0.0
C185 C 0.63136 0.52723 0.43878 0.0
C186 C 0.59388 0.56046 0.43151 0.0
C187 C 0.56058 0.54826 0.39894 0.0
C188 C 0.56562 0.50483 0.37409 0.0
C189 C 0.5871 0.60517 0.45855 0.0
C190 C 0.52155 0.59604 0.46557 0.0
C191 C 0.64368 0.65282 0.47925 0.0
C192 C 0.71578 0.67313 0.47015 0.0
C193 C 0.7412 0.6956 0.4361 0.0
C194 C 0.80885 0.71415 0.42745 0.0
C195 C 0.85181 0.71081 0.45269 0.0
C196 C 0.82723 0.68906 0.48665 0.0
C197 C 0.7596 0.67043 0.49544 0.0
H198 H 0.90417 0.72516 0.44594 0.0
H199 H 0.25861 0.59178 0.51807 0.0
H200 H 0.90019 0.54188 0.13975 0.0
H201 H 0.95871 0.58729 0.08386 0.0
H202 H 0.76328 0.52086 0.0341 0.0
H203 H 0.7045 0.47801 0.09067 0.0
H204 H 0.84586 0.46321 0.00704 0.0
H205 H 0.86155 0.67686 0.02918 0.0
H206 H 0.88433 0.78204 0.06107 0.0
H207 H 0.0984 0.84448 0.06863 0.0
H208 H 0.07677 0.73898 0.03735 0.0
H209 H 0.04611 0.54963 0.85037 0.0
H210 H 0.96149 0.5387 0.89436 0.0
H211 H 0.12601 0.65666 0.96773 0.0
H212 H 0.21057 0.67221 0.92258 0.0
H213 H 0.03808 0.69425 0.97524 0.0
H214 H 0.01172 0.46328 0.96732 0.0
H215 H 0.98776 0.35705 0.93579 0.0
H216 H 0.7928 0.32749 0.90206 0.0
H217 H 0.81603 0.43391 0.93309 0.0
C218 C 0.86989 0.53888 0.11712 0.0
C219 C 0.79782 0.5063 0.11942 0.0
C220 C 0.90337 0.56506 0.08526 0.0
C221 C 0.86529 0.5574 0.0549 0.0
C222 C 0.79352 0.52768 0.05736 0.0
C223 C 0.76006 0.50335 0.08961 0.0
C224 C 0.90015 0.57088 0.02042 0.0
C225 C 0.88682 0.51391 -0.0005 0.0
C226 C 0.95423 0.63696 0.01115 0.0
C227 C 0.96738 0.6996 0.03103 0.0
C228 C 0.91336 0.71253 0.03799 0.0
C229 C 0.92613 0.77241 0.05585 0.0
C230 C -0.00719 0.82005 0.06676 0.0
C231 C 0.04682 0.80769 0.06001 0.0
C232 C 0.03431 0.74781 0.04223 0.0
C233 C 0.0638 0.57259 0.87607 0.0
C234 C 0.13443 0.61061 0.88354 0.0
C235 C 0.01551 0.56624 0.90124 0.0
C236 C 0.03693 0.59538 0.93485 0.0
C237 C 0.10788 0.63358 0.94211 0.0
C238 C 0.15621 0.64193 0.91652 0.0
C239 C 0.98616 0.58583 0.96274 0.0
C240 C -0.00357 0.64357 0.98236 0.0
C241 C 0.92941 0.52026 0.97105 0.0
C242 C 0.91576 0.4566 0.95232 0.0
C243 C 0.96392 0.43422 0.95303 0.0
C244 C 0.95047 0.37402 0.93525 0.0
C245 C 0.88883 0.33561 0.91688 0.0
C246 C 0.84061 0.3574 0.91618 0.0
C247 C 0.85388 0.41762 0.93385 0.0
H248 H 0.8783 0.28889 0.90325 0.0
H249 H 0.00259 0.86638 0.08057 0.0
H250 H 0.40579 0.92019 0.64373 0.0
H251 H 0.41765 0.98221 0.59023 0.0
H252 H 0.22681 0.81221 0.55175 0.0
H253 H 0.21553 0.74799 0.60557 0.0
H254 H 0.324 0.84859 0.50455 0.0
H255 H 0.24214 0.97067 0.57066 0.0
H256 H 0.23097 0.03243 0.62168 0.0
H257 H 0.44144 0.19281 0.60941 0.0
H258 H 0.45436 0.1315 0.55872 0.0
H259 H 0.40078 0.12595 0.36911 0.0
H260 H 0.33927 0.04943 0.41822 0.0
H261 H 0.52892 0.06761 0.45432 0.0
H262 H 0.59049 0.14169 0.40454 0.0
H263 H 0.40298 0.09786 0.49758 0.0
H264 H 0.48098 0.94905 0.43688 0.0
H265 H 0.48136 0.88085 0.38614 0.0
H266 H 0.26065 0.7617 0.38902 0.0
H267 H 0.25891 0.83138 0.43894 0.0
C268 C 0.36555 0.89611 0.62422 0.0
C269 C 0.30997 0.82882 0.62875 0.0
C270 C 0.3721 0.93212 0.59369 0.0
C271 C 0.32278 0.90227 0.56707 0.0
C272 C 0.26531 0.83629 0.57209 0.0
C273 C 0.2587 0.79985 0.60286 0.0
C274 C 0.3365 0.93762 0.53287 0.0
C275 C 0.33986 0.90277 0.50289 0.0
C276 C 0.35692 0.00823 0.53065 0.0
C277 C 0.34925 0.04623 0.56085 0.0
C278 C 0.2862 0.01893 0.57893 0.0
C279 C 0.27955 0.05387 0.60783 0.0
C280 C 0.33547 0.11643 0.61884 0.0
C281 C 0.39814 0.14431 0.6009 0.0
C282 C 0.40511 0.10954 0.57201 0.0
C283 C 0.42936 0.1133 0.3874 0.0
C284 C 0.5005 0.13956 0.3829 0.0
C285 C 0.39399 0.06917 0.41519 0.0
C286 C 0.42927 0.05121 0.43906 0.0
C287 C 0.50046 0.07885 0.43527 0.0
C288 C 0.53561 0.12157 0.40703 0.0
C289 C 0.39348 0.00947 0.47008 0.0
C290 C 0.38572 0.04336 0.49927 0.0
C291 C 0.36815 0.93776 0.47144 0.0
C292 C 0.36978 0.89745 0.44082 0.0
C293 C 0.43246 0.91002 0.42602 0.0
C294 C 0.43293 0.87057 0.39757 0.0
C295 C 0.37104 0.81732 0.38416 0.0
C296 C 0.30855 0.80315 0.39932 0.0
C297 C 0.30782 0.84283 0.42759 0.0
H298 H 0.37152 0.78679 0.36218 0.0
H299 H 0.33013 0.14331 0.64124 0.0
H300 H 0.58478 0.39151 0.09406 0.0
H301 H 0.53259 0.39907 0.03992 0.0
H302 H 0.34606 0.21032 0.06503 0.0
H303 H 0.39934 0.20182 0.11977 0.0
H304 H 0.39689 0.24267 0.9857 0.0
H305 H 0.32964 0.32531 0.08588 0.0
H306 H 0.34981 0.38584 0.14225 0.0
H307 H 0.4953 0.57637 0.09365 0.0
H308 H 0.47803 0.51608 0.03699 0.0
H309 H 0.25029 0.39878 0.86936 0.0
H310 H 0.26157 0.33101 0.91617 0.0
H311 H 0.46655 0.49802 0.93792 0.0
H312 H 0.45626 0.5659 0.89154 0.0
H313 H 0.37268 0.44987 0.99582 0.0
H314 H 0.44765 0.36523 0.89699 0.0
H315 H 0.43161 0.30432 0.84068 0.0
H316 H 0.27083 0.11787 0.88619 0.0
H317 H 0.28425 0.17821 0.94238 0.0
C318 C 0.53313 0.35089 0.08779 0.0
C319 C 0.49557 0.29679 0.11123 0.0
C320 C 0.5036 0.35496 0.05675 0.0
C321 C 0.43548 0.30558 0.04875 0.0
C322 C 0.39894 0.24863 0.07082 0.0
C323 C 0.42912 0.24406 0.10202 0.0
C324 C 0.40138 0.32107 0.02029 0.0
C325 C 0.38956 0.28671 0.98796 0.0
C326 C 0.39271 0.37898 0.02341 0.0
C327 C 0.40281 0.41595 0.05726 0.0
C328 C 0.36647 0.37995 0.08727 0.0
C329 C 0.37735 0.41433 0.11931 0.0
C330 C 0.42362 0.48509 0.12164 0.0
C331 C 0.45942 0.52156 0.09184 0.0
C332 C 0.4492 0.48724 0.05974 0.0
C333 C 0.29785 0.42104 0.88408 0.0
C334 C 0.35218 0.48817 0.87699 0.0
C335 C 0.30427 0.38196 0.91054 0.0
C336 C 0.36486 0.40969 0.93026 0.0
C337 C 0.41942 0.4759 0.92281 0.0
C338 C 0.41336 0.51465 0.89633 0.0
C339 C 0.37064 0.37327 0.96079 0.0
C340 C 0.37744 0.40425 0.99363 0.0
C341 C 0.37439 0.3124 0.95787 0.0
C342 C 0.36609 0.27664 0.92379 0.0
C343 C 0.40799 0.31159 0.89484 0.0
C344 C 0.39945 0.2771 0.86291 0.0
C345 C 0.34987 0.2074 0.85973 0.0
C346 C 0.30881 0.17201 0.88851 0.0
C347 C 0.31678 0.20636 0.9204 0.0
H348 H 0.34361 0.18075 0.83507 0.0
H349 H 0.4317 0.51167 0.1465 0.0
H350 H 0.88799 0.47472 0.38321 0.0
H351 H 0.97317 0.49175 0.42712 0.0
H352 H 0.90272 0.27434 0.42549 0.0
H353 H 0.81562 0.25611 0.3821 0.0
H354 H 0.91355 0.3214 0.49071 0.0
H355 H 0.11295 0.39458 0.40428 0.0
H356 H 0.18168 0.45641 0.35222 0.0
H357 H 0.16558 0.63308 0.38061 0.0
H358 H 0.0997 0.57335 0.43369 0.0
H359 H 0.19128 0.42061 0.61765 0.0
H360 H 0.12725 0.36977 0.5628 0.0
H361 H 0.12264 0.55616 0.54327 0.0
H362 H 0.1855 0.6065 0.5973 0.0
H363 H 0.16012 0.50144 0.48392 0.0
H364 H -0.00891 0.43247 0.57965 0.0
H365 H 0.93415 0.37119 0.63405 0.0
H366 H 0.89272 0.17964 0.58722 0.0
H367 H 0.95039 0.24005 0.53268 0.0
C368 C 0.89046 0.43034 0.39202 0.0
C369 C 0.84442 0.36394 0.37911 0.0
C370 C 0.94032 0.44046 0.41671 0.0
C371 C 0.946 0.3847 0.42876 0.0
C372 C 0.89999 0.31828 0.41616 0.0
C373 C 0.84989 0.30799 0.39148 0.0
C374 C -0.00532 0.39516 0.45737 0.0
C375 C 0.96786 0.3596 0.48894 0.0
C376 C 0.06554 0.44478 0.45528 0.0
C377 C 0.09965 0.47882 0.42218 0.0
C378 C 0.12358 0.44638 0.39916 0.0
C379 C 0.16289 0.4814 0.3698 0.0
C380 C 0.17747 0.54841 0.36295 0.0
C381 C 0.1538 0.58099 0.38578 0.0
C382 C 0.11589 0.54677 0.41562 0.0
C383 C 0.17727 0.45072 0.60126 0.0
C384 C 0.19277 0.51715 0.61168 0.0
C385 C 0.1406 0.42167 0.5702 0.0
C386 C 0.12029 0.45938 0.54923 0.0
C387 C 0.13793 0.52638 0.55915 0.0
C388 C 0.1736 0.55491 0.59006 0.0
C389 C 0.07829 0.42978 0.51744 0.0
C390 C 0.10631 0.46169 0.48534 0.0
C391 C 0.00875 0.37659 0.51912 0.0
C392 C 0.97603 0.34091 0.5523 0.0
C393 C 0.97078 0.37746 0.58113 0.0
C394 C 0.93814 0.34284 0.61195 0.0
C395 C 0.91002 0.27158 0.61412 0.0
C396 C 0.91469 0.23485 0.58553 0.0
C397 C 0.94737 0.26925 0.55468 0.0
H398 H 0.88424 0.2447 0.63785 0.0
H399 H 0.20723 0.57512 0.34 0.0
H400 H 0.57416 0.01389 0.19114 0.0
H401 H 0.59537 0.91732 0.19212 0.0
H402 H 0.566 0.90261 0.30431 0.0
H403 H 0.54619 -0.00036 0.30357 0.0
H404 H 0.69563 0.93632 0.28488 0.0
H405 H 0.46454 0.76916 0.2531 0.0
H406 H 0.35795 0.71698 0.21821 0.0
H407 H 0.46869 0.70757 0.12819 0.0
H408 H 0.57626 0.76088 0.16236 0.0
H409 H 0.73156 0.64065 0.31262 0.0
H410 H 0.71279 0.73874 0.31115 0.0
H411 H 0.74023 0.75024 0.19882 0.0
H412 H 0.75695 0.65141 0.20002 0.0
H413 H 0.61227 0.71871 0.21803 0.0
H414 H 0.84306 0.88661 0.24871 0.0
H415 H 0.95027 0.93792 0.28309 0.0
H416 H 0.84116 0.94555 0.37424 0.0
H417 H 0.73303 0.89343 0.34052 0.0
C418 C 0.56896 0.98784 0.21571 0.0
C419 C 0.55978 0.01455 0.24734 0.0
C420 C 0.5813 0.9329 0.21628 0.0
C421 C 0.58342 0.90403 0.2484 0.0
C422 C 0.56534 0.925 0.27937 0.0
C423 C 0.55377 0.98012 0.27887 0.0
C424 C 0.61652 0.86202 0.2506 0.0
C425 C 0.67681 0.88802 0.27075 0.0
C426 C 0.59322 0.80078 0.23103 0.0
C427 C 0.52872 0.7698 0.21023 0.0
C428 C 0.4664 0.75679 0.22575 0.0
C429 C 0.40573 0.72681 0.20612 0.0
C430 C 0.40658 0.70917 0.17098 0.0
C431 C 0.46812 0.72141 0.1554 0.0
C432 C 0.52896 0.75149 0.17489 0.0
C433 C 0.73692 0.66631 0.2879 0.0
C434 C 0.74464 0.63824 0.25638 0.0
C435 C 0.72603 0.72217 0.28705 0.0
C436 C 0.724 0.75061 0.25476 0.0
C437 C 0.74091 0.72828 0.22389 0.0
C438 C 0.75078 0.67213 0.22466 0.0
C439 C 0.69134 0.793 0.25229 0.0
C440 C 0.63115 0.76707 0.23211 0.0
C441 C 0.71485 0.85439 0.27171 0.0
C442 C 0.77975 0.88547 0.29215 0.0
C443 C 0.84176 0.89861 0.27617 0.0
C444 C 0.90275 0.92801 0.29553 0.0
C445 C 0.90249 0.94483 0.33085 0.0
C446 C 0.84126 0.93243 0.34688 0.0
C447 C 0.78012 0.90304 0.32765 0.0
H448 H 0.94977 0.96762 0.34578 0.0
H449 H 0.35953 0.68584 0.15585 0.0
H450 H 0.11691 0.79376 0.71905 0.0
H451 H -0.00224 0.76868 0.71823 0.0
H452 H 0.96316 0.6714 0.81933 0.0
H453 H 0.08307 0.69971 0.82086 0.0
H454 H 0.90054 0.64118 0.7138 0.0
H455 H 0.8178 0.6482 0.85656 0.0
H456 H 0.86419 0.71834 0.91028 0.0
H457 H -0.00529 0.8958 0.84815 0.0
H458 H 0.94871 0.827 0.79406 0.0
H459 H 0.52997 0.5188 0.79365 0.0
H460 H 0.64656 0.53678 0.79659 0.0
H461 H 0.69196 0.63508 0.69537 0.0
H462 H 0.57463 0.61352 0.69178 0.0
H463 H 0.74851 0.65988 0.80235 0.0
H464 H 0.83659 0.65269 0.65984 0.0
H465 H 0.7905 0.58422 0.60567 0.0
H466 H 0.64884 0.40908 0.66617 0.0
H467 H 0.69496 0.47578 0.72081 0.0
C468 C 0.08463 0.77038 0.74184 0.0
C469 C 0.10864 0.74885 0.77006 0.0
C470 C 0.01652 0.75535 0.74122 0.0
C471 C 0.97133 0.71743 0.76849 0.0
C472 C -0.00284 0.70151 0.79819 0.0
C473 C 0.06582 0.71798 0.79916 0.0
C474 C 0.89622 0.68579 0.76338 0.0
C475 C 0.86733 0.64621 0.73289 0.0
C476 C 0.85274 0.6899 0.78897 0.0
C477 C 0.88017 0.73222 0.82128 0.0
C478 C 0.85619 0.70228 0.85437 0.0
C479 C 0.88249 0.74179 0.88488 0.0
C480 C 0.9325 0.81147 0.88263 0.0
C481 C 0.95617 0.84181 0.84985 0.0
C482 C 0.93011 0.80253 0.81926 0.0
C483 C 0.56396 0.54076 0.77129 0.0
C484 C 0.54378 0.56442 0.74236 0.0
C485 C 0.63065 0.55174 0.77311 0.0
C486 C 0.67829 0.58781 0.74636 0.0
C487 C 0.65603 0.60603 0.71607 0.0
C488 C 0.5888 0.59349 0.7139 0.0
C489 C 0.75271 0.61583 0.75249 0.0
C490 C 0.78155 0.65457 0.78326 0.0
C491 C 0.79618 0.61109 0.72707 0.0
C492 C 0.76898 0.56955 0.69446 0.0
C493 C 0.79596 0.59937 0.66164 0.0
C494 C 0.7698 0.56083 0.63084 0.0
C495 C 0.71673 0.49229 0.6325 0.0
C496 C 0.68993 0.46208 0.66497 0.0
C497 C 0.71603 0.50027 0.69587 0.0
H498 H 0.69639 0.46257 0.60863 0.0
H499 H 0.95282 0.84198 0.90627 0.0
H500 H 0.31583 0.11047 0.3021 0.0
H501 H 0.21562 -0.006 0.30262 0.0
H502 H 0.24343 0.97203 0.1922 0.0
H503 H 0.34145 0.08798 0.19108 0.0
H504 H 0.10812 0.88941 0.21316 0.0
H505 H 0.33976 0.94328 0.24623 0.0
H506 H 0.44433 0.01228 0.28131 0.0
H507 H 0.3271 0.93771 0.37602 0.0
H508 H 0.22115 0.86853 0.34161 0.0
H509 H 0.98049 0.54121 0.19971 0.0
H510 H 0.08038 0.65771 0.19744 0.0
H511 H 0.0596 0.68319 0.30828 0.0
H512 H 0.96108 0.56772 0.31092 0.0
H513 H 0.19161 0.76436 0.28628 0.0
H514 H 0.95984 0.70315 0.25234 0.0
H515 H 0.85602 0.63547 0.21663 0.0
H516 H 0.9713 0.72769 0.12304 0.0
H517 H 0.0773 0.7937 0.158 0.0
C518 C 0.29854 0.08207 0.27764 0.0
C519 C 0.33767 0.1072 0.24685 0.0
C520 C 0.24142 0.01561 0.27797 0.0
C521 C 0.22395 0.97428 0.24765 0.0
C522 C 0.25681 0.00301 0.2159 0.0
C523 C 0.31341 0.06908 0.21549 0.0
C524 C 0.18439 0.89888 0.25015 0.0
C525 C 0.12619 0.86192 0.22907 0.0
C526 C 0.20886 0.86348 0.2706 0.0
C527 C 0.27281 0.90056 0.2914 0.0
C528 C 0.33645 0.94093 0.27458 0.0
C529 C 0.396 0.97981 0.29434 0.0
C530 C 0.39287 0.97764 0.33089 0.0
C531 C 0.32975 0.93772 0.34776 0.0
C532 C 0.26987 0.89871 0.32817 0.0
C533 C -0.00083 0.57052 0.22384 0.0
C534 C 0.96189 0.54652 0.25524 0.0
C535 C 0.05616 0.63694 0.2225 0.0
C536 C 0.07541 0.67926 0.25249 0.0
C537 C 0.04474 0.65147 0.2848 0.0
C538 C 0.98795 0.58564 0.28615 0.0
C539 C 0.11494 0.75458 0.24941 0.0
C540 C 0.17337 0.79165 0.27033 0.0
C541 C 0.09048 0.78996 0.22879 0.0
C542 C 0.02652 0.75311 0.20779 0.0
C543 C 0.96318 0.70908 0.22413 0.0
C544 C 0.90391 0.67115 0.20402 0.0
C545 C 0.90665 0.67869 0.16767 0.0
C546 C 0.96916 0.723 0.15124 0.0
C547 C 0.02899 0.76029 0.17116 0.0
H548 H 0.86041 0.64988 0.15223 0.0
H549 H 0.43926 0.00725 0.34609 0.0
H550 H 0.23831 0.34003 0.68972 0.0
H551 H 0.25906 0.24341 0.69136 0.0
H552 H 0.24782 0.24263 0.80433 0.0
H553 H 0.22736 0.33935 0.80296 0.0
H554 H 0.37939 0.27023 0.72361 0.0
H555 H 0.20744 0.07726 0.8314 0.0
H556 H 0.08862 0.02503 0.85374 0.0
H557 H 0.02075 0.05401 0.75372 0.0
H558 H 0.13917 0.10614 0.73076 0.0
H559 H 0.41059 0.97841 0.8181 0.0
H560 H 0.38523 0.07188 0.81526 0.0
H561 H 0.40003 0.07164 0.70242 0.0
H562 H 0.42527 0.97819 0.70502 0.0
H563 H 0.26513 0.04295 0.78204 0.0
H564 H 0.43582 0.23099 0.67355 0.0
H565 H 0.55415 0.28004 0.6508 0.0
H566 H 0.62359 0.26014 0.75227 0.0
H567 H 0.50565 0.21094 0.77559 0.0
C568 C 0.23763 0.31751 0.71483 0.0
C569 C 0.23221 0.34762 0.74623 0.0
C570 C 0.24967 0.26259 0.7157 0.0
C571 C 0.25586 0.23689 0.74794 0.0
C572 C 0.24281 0.26174 0.77919 0.0
C573 C 0.23072 0.31677 0.77835 0.0
C574 C 0.28694 0.19292 0.7492 0.0
C575 C 0.354 0.21995 0.73586 0.0
C576 C 0.25435 0.1286 0.76617 0.0
C577 C 0.18261 0.09671 0.77957 0.0
C578 C 0.16725 0.07264 0.8142 0.0
C579 C 0.0999 0.04296 0.82696 0.0
C580 C 0.04717 0.03638 0.80519 0.0
C581 C 0.06171 0.05944 0.77061 0.0
C582 C 0.12904 0.08932 0.75776 0.0
C583 C 0.411 8e-05 0.79278 0.0
C584 C 0.41886 0.97053 0.76174 0.0
C585 C 0.39617 0.05309 0.79122 0.0
C586 C 0.38969 0.07749 0.75865 0.0
C587 C 0.40504 0.05338 0.72781 0.0
C588 C 0.41995 0.00031 0.72935 0.0
C589 C 0.3576 0.12049 0.75665 0.0
C590 C 0.29038 0.09323 0.76979 0.0
C591 C 0.39 0.18462 0.73956 0.0
C592 C 0.46161 0.21627 0.72613 0.0
C593 C 0.47631 0.23705 0.69098 0.0
C594 C 0.54331 0.26479 0.67798 0.0
C595 C 0.5963 0.27286 0.70003 0.0
C596 C 0.58243 0.25348 0.73516 0.0
C597 C 0.51544 0.22541 0.74825 0.0
H598 H 0.64816 0.29444 0.68993 0.0
H599 H -0.00499 0.01322 0.81509 0.0
H600 H 0.40932 0.39745 0.30785 0.0
H601 H 0.29021 0.36984 0.30524 0.0
H602 H 0.31053 0.40998 0.19442 0.0
H603 H 0.42919 0.43116 0.19595 0.0
H604 H 0.21461 0.43149 0.2771 0.0
H605 H 0.23147 0.30776 0.16685 0.0
H606 H 0.2725 0.23902 0.13501 0.0
H607 H 0.21037 0.09919 0.22156 0.0
H608 H 0.17676 0.17115 0.25507 0.0
H609 H 0.88533 0.25026 0.19318 0.0
H610 H 0.00217 0.27165 0.19612 0.0
H611 H 0.97223 0.21168 0.3047 0.0
H612 H 0.85651 0.19717 0.30321 0.0
H613 H 0.07238 0.19899 0.22434 0.0
H614 H 0.03798 0.31774 0.32991 0.0
H615 H 0.98515 0.38081 0.35552 0.0
H616 H 0.07602 0.53258 0.27469 0.0
H617 H 0.12208 0.46577 0.24624 0.0
C618 C 0.38896 0.40134 0.28284 0.0
C619 C 0.42726 0.41318 0.25174 0.0
C620 C 0.32089 0.38556 0.28147 0.0
C621 C 0.29094 0.38347 0.24917 0.0
C622 C 0.33222 0.40678 0.21902 0.0
C623 C 0.40022 0.42068 0.22013 0.0
C624 C 0.21559 0.35024 0.2473 0.0
C625 C 0.18346 0.38083 0.2654 0.0
C626 C 0.17512 0.2838 0.23245 0.0
C627 C 0.2049 0.24674 0.21407 0.0
C628 C 0.23041 0.26455 0.17974 0.0
C629 C 0.25241 0.22494 0.16137 0.0
C630 C 0.2462 0.16574 0.17657 0.0
C631 C 0.21835 0.14644 0.21022 0.0
C632 C 0.19876 0.1872 0.22913 0.0
C633 C 0.903 0.24063 0.2177 0.0
C634 C 0.86341 0.22587 0.24852 0.0
C635 C 0.96973 0.25269 0.21922 0.0
C636 C -0.00341 0.24765 0.25122 0.0
C637 C 0.95305 0.22002 0.28039 0.0
C638 C 0.88662 0.21031 0.27929 0.0
C639 C 0.07156 0.27998 0.25426 0.0
C640 C 0.10362 0.24944 0.23627 0.0
C641 C 0.11176 0.34687 0.26872 0.0
C642 C 0.08067 0.38484 0.28505 0.0
C643 C 0.04326 0.36231 0.31648 0.0
C644 C 0.01415 0.39869 0.33147 0.0
C645 C 0.0253 0.45978 0.31635 0.0
C646 C 0.0651 0.48416 0.28591 0.0
C647 C 0.09191 0.44648 0.27002 0.0
H648 H 0.00453 0.48887 0.32876 0.0
H649 H 0.26161 0.13414 0.16201 0.0
H650 H 0.98823 0.45111 0.79853 0.0
H651 H 0.8933 0.33189 0.80046 0.0
H652 H 0.93727 0.30165 0.69364 0.0
H653 H 0.02989 0.4217 0.69112 0.0
H654 H 0.80321 0.22094 0.70823 0.0
H655 H 0.01976 0.27854 0.76252 0.0
H656 H 0.11555 0.34036 0.80404 0.0
H657 H 0.97509 0.25912 0.89067 0.0
H658 H 0.87788 0.19806 0.84969 0.0
H659 H 0.66905 0.8703 0.70925 0.0
H660 H 0.7638 0.98958 0.70803 0.0
H661 H 0.72102 0.01637 0.81567 0.0
H662 H 0.62827 0.89617 0.81734 0.0
H663 H 0.85384 0.09916 0.801 0.0
H664 H 0.63729 0.0431 0.74738 0.0
H665 H 0.54059 0.98216 0.70624 0.0
H666 H 0.68013 0.06023 0.61905 0.0
H667 H 0.77801 0.12108 0.65966 0.0
C668 C 0.97487 0.4199 0.7749 0.0
C669 C 0.01592 0.44489 0.7447 0.0
C670 C 0.92144 0.35172 0.77615 0.0
C671 C 0.91005 0.30761 0.74755 0.0
C672 C 0.94559 0.33491 0.71599 0.0
C673 C -0.00187 0.40358 0.71448 0.0
C674 C 0.86839 0.2322 0.75182 0.0
C675 C 0.81454 0.19423 0.72832 0.0
C676 C 0.88298 0.19759 0.77835 0.0
C677 C 0.94144 0.23434 0.803 0.0
C678 C 0.00916 0.27434 0.7904 0.0
C679 C 0.06373 0.30928 0.81384 0.0
C680 C 0.05146 0.30398 0.84994 0.0
C681 C 0.98449 0.26352 0.8627 0.0
C682 C 0.9296 0.22877 0.83938 0.0
C683 C 0.6825 0.90077 0.73314 0.0
C684 C 0.64168 0.87477 0.76333 0.0
C685 C 0.73583 0.96901 0.7323 0.0
C686 C 0.74735 0.0123 0.76131 0.0
C687 C 0.71228 0.98392 0.79287 0.0
C688 C 0.65976 0.91513 0.79393 0.0
C689 C 0.78858 0.08788 0.75742 0.0
C690 C 0.84239 0.12588 0.78096 0.0
C691 C 0.77385 0.12258 0.731 0.0
C692 C 0.71502 0.08604 0.70657 0.0
C693 C 0.64742 0.04689 0.71944 0.0
C694 C 0.59237 0.01241 0.69622 0.0
C695 C 0.60411 0.01711 0.66008 0.0
C696 C 0.67106 0.05651 0.64706 0.0
C697 C 0.72636 0.09104 0.67015 0.0
H698 H 0.56133 0.99034 0.64219 0.0
H699 H 0.09389 0.33103 0.868 0.0
loop_
_geom_bond_atom_site_label_1
_geom_bond_atom_site_label_2
_geom_bond_distance
_geom_bond_site_symmetry_2
_ccdc_geom_bond_type
O0 Zr5 2.207 . S
O0 C34 1.295 . S
O1 Zr5 2.133 . S
O1 Zr6 2.133 . S
O1 Zr7 2.133 . S
O2 Zr5 2.133 . S
O2 Zr11 2.133 . S
O2 Zr12 2.133 . S
O3 Zr5 2.133 . S
O3 Zr7 2.133 . S
O3 Zr12 2.133 . S
O4 Zr5 2.133 . S
O4 Zr6 2.133 . S
O4 Zr11 2.133 . S
Zr5 O0 2.207 . S
Zr5 O1 2.133 . S
Zr5 O2 2.133 . S
Zr5 O3 2.133 . S
Zr5 O4 2.133 . S
Zr5 O17 2.207 . S
Zr5 O30 2.207 . S
Zr5 O33 2.207 . S
Zr6 O1 2.133 . S
Zr6 O4 2.133 . S
Zr6 O8 2.133 . S
Zr6 O10 2.133 . S
Zr6 O22 2.207 . S
Zr6 O25 2.207 . S
Zr6 O35 2.207 . S
Zr6 O36 2.207 . S
Zr7 O1 2.133 . S
Zr7 O3 2.133 . S
Zr7 O9 2.133 . S
Zr7 O10 2.133 . S
Zr7 O19 2.207 . S
Zr7 O20 2.207 . S
Zr7 O27 2.207 . S
Zr7 O28 2.207 . S
O8 Zr6 2.133 . S
O8 Zr11 2.133 . S
O8 Zr13 2.133 . S
O9 Zr7 2.133 . S
O9 Zr12 2.133 . S
O9 Zr13 2.133 . S
O10 Zr6 2.133 . S
O10 Zr7 2.133 . S
O10 Zr13 2.133 . S
Zr11 O2 2.133 . S
Zr11 O4 2.133 . S
Zr11 O8 2.133 . S
Zr11 O14 2.133 . S
Zr11 O18 2.207 . S
Zr11 O21 2.207 . S
Zr11 O26 2.207 . S
Zr11 O29 2.207 . S
Zr12 O2 2.133 . S
Zr12 O3 2.133 . S
Zr12 O9 2.133 . S
Zr12 O14 2.133 . S
Zr12 O23 2.207 . S
Zr12 O24 2.207 . S
Zr12 O48 2.207 . S
Zr12 O49 2.207 . S
Zr13 O8 2.133 . S
Zr13 O9 2.133 . S
Zr13 O10 2.133 . S
Zr13 O14 2.133 . S
Zr13 O15 2.207 . S
Zr13 O16 2.207 . S
Zr13 O31 2.207 . S
Zr13 O32 2.207 . S
O14 Zr11 2.133 . S
O14 Zr12 2.133 . S
O14 Zr13 2.133 . S
O15 Zr13 2.207 . S
O15 C37 1.295 . S
O16 Zr13 2.207 . S
O16 C38 1.295 . S
O17 Zr5 2.207 . S
O17 C39 1.295 . S
O18 Zr11 2.207 . S
O18 C40 1.295 . S
O19 Zr7 2.207 . S
O19 C41 1.295 . S
O20 Zr7 2.207 . S
O20 C42 1.295 . S
O21 Zr11 2.207 . S
O21 C43 1.295 . S
O22 Zr6 2.207 . S
O22 C44 1.295 . S
O23 Zr12 2.207 . S
O23 C45 1.295 . S
O24 Zr12 2.207 . S
O24 C46 1.295 . S
O25 Zr6 2.207 . S
O25 C47 1.295 . S
O26 Zr11 2.207 . S
O26 C37 1.295 . S
O27 Zr7 2.207 . S
O27 C34 1.295 . S
O28 Zr7 2.207 . S
O28 C38 1.295 . S
O29 Zr11 2.207 . S
O29 C39 1.295 . S
O30 Zr5 2.207 . S
O30 C47 1.295 . S
O31 Zr13 2.207 . S
O31 C46 1.295 . S
O32 Zr13 2.207 . S
O32 C44 1.295 . S
O33 Zr5 2.207 . S
O33 C45 1.295 . S
C34 O0 1.295 . S
C34 O27 1.295 . S
O35 Zr6 2.207 . S
O35 C43 1.295 . S
O36 Zr6 2.207 . S
O36 C41 1.295 . S
C37 O15 1.295 . S
C37 O26 1.295 . S
C38 O16 1.295 . S
C38 O28 1.295 . S
C39 O17 1.295 . S
C39 O29 1.295 . S
C40 O18 1.295 . S
C40 O49 1.295 . S
C41 O19 1.295 . S
C41 O36 1.295 . S
C42 O20 1.295 . S
C42 O48 1.295 . S
C43 O21 1.295 . S
C43 O35 1.295 . S
C44 O22 1.295 . S
C44 O32 1.295 . S
C45 O23 1.295 . S
C45 O33 1.295 . S
C46 O24 1.295 . S
C46 O31 1.295 . S
C47 O25 1.295 . S
C47 O30 1.295 . S
O48 Zr12 2.207 . S
O48 C42 1.295 . S
O49 Zr12 2.207 . S
O49 C40 1.295 . S
O50 Zr55 2.207 . S
O50 C84 1.295 . S
O51 Zr55 2.133 . S
O51 Zr56 2.133 . S
O51 Zr57 2.133 . S
O52 Zr55 2.133 . S
O52 Zr61 2.133 . S
O52 Zr62 2.133 . S
O53 Zr55 2.133 . S
O53 Zr57 2.133 . S
O53 Zr62 2.133 . S
O54 Zr55 2.133 . S
O54 Zr56 2.133 . S
O54 Zr61 2.133 . S
Zr55 O50 2.207 . S
Zr55 O51 2.133 . S
Zr55 O52 2.133 . S
Zr55 O53 2.133 . S
Zr55 O54 2.133 . S
Zr55 O67 2.207 . S
Zr55 O80 2.207 . S
Zr55 O83 2.207 . S
Zr56 O51 2.133 . S
Zr56 O54 2.133 . S
Zr56 O58 2.133 . S
Zr56 O60 2.133 . S
Zr56 O72 2.207 . S
Zr56 O75 2.207 . S
Zr56 O85 2.207 . S
Zr56 O86 2.207 . S
Zr57 O51 2.133 . S
Zr57 O53 2.133 . S
Zr57 O59 2.133 . S
Zr57 O60 2.133 . S
Zr57 O69 2.207 . S
Zr57 O70 2.207 . S
Zr57 O77 2.207 . S
Zr57 O78 2.207 . S
O58 Zr56 2.133 . S
O58 Zr61 2.133 . S
O58 Zr63 2.133 . S
O59 Zr57 2.133 . S
O59 Zr62 2.133 . S
O59 Zr63 2.133 . S
O60 Zr56 2.133 . S
O60 Zr57 2.133 . S
O60 Zr63 2.133 . S
Zr61 O52 2.133 . S
Zr61 O54 2.133 . S
Zr61 O58 2.133 . S
Zr61 O64 2.133 . S
Zr61 O68 2.207 . S
Zr61 O71 2.207 . S
Zr61 O76 2.207 . S
Zr61 O79 2.207 . S
Zr62 O52 2.133 . S
Zr62 O53 2.133 . S
Zr62 O59 2.133 . S
Zr62 O64 2.133 . S
Zr62 O73 2.207 . S
Zr62 O74 2.207 . S
Zr62 O98 2.207 . S
Zr62 O99 2.207 . S
Zr63 O58 2.133 . S
Zr63 O59 2.133 . S
Zr63 O60 2.133 . S
Zr63 O64 2.133 . S
Zr63 O65 2.207 . S
Zr63 O66 2.207 . S
Zr63 O81 2.207 . S
Zr63 O82 2.207 . S
O64 Zr61 2.133 . S
O64 Zr62 2.133 . S
O64 Zr63 2.133 . S
O65 Zr63 2.207 . S
O65 C87 1.295 . S
O66 Zr63 2.207 . S
O66 C88 1.295 . S
O67 Zr55 2.207 . S
O67 C89 1.295 . S
O68 Zr61 2.207 . S
O68 C90 1.295 . S
O69 Zr57 2.207 . S
O69 C91 1.295 . S
O70 Zr57 2.207 . S
O70 C92 1.295 . S
O71 Zr61 2.207 . S
O71 C93 1.295 . S
O72 Zr56 2.207 . S
O72 C94 1.295 . S
O73 Zr62 2.207 . S
O73 C95 1.295 . S
O74 Zr62 2.207 . S
O74 C96 1.295 . S
O75 Zr56 2.207 . S
O75 C97 1.295 . S
O76 Zr61 2.207 . S
O76 C87 1.295 . S
O77 Zr57 2.207 . S
O77 C84 1.295 . S
O78 Zr57 2.207 . S
O78 C88 1.295 . S
O79 Zr61 2.207 . S
O79 C89 1.295 . S
O80 Zr55 2.207 . S
O80 C97 1.295 . S
O81 Zr63 2.207 . S
O81 C96 1.295 . S
O82 Zr63 2.207 . S
O82 C94 1.295 . S
O83 Zr55 2.207 . S
O83 C95 1.295 . S
C84 O50 1.295 . S
C84 O77 1.295 . S
O85 Zr56 2.207 . S
O85 C93 1.295 . S
O86 Zr56 2.207 . S
O86 C91 1.295 . S
C87 O65 1.295 . S
C87 O76 1.295 . S
C88 O66 1.295 . S
C88 O78 1.295 . S
C89 O67 1.295 . S
C89 O79 1.295 . S
C90 O68 1.295 . S
C90 O99 1.295 . S
C91 O69 1.295 . S
C91 O86 1.295 . S
C92 O70 1.295 . S
C92 O98 1.295 . S
C93 O71 1.295 . S
C93 O85 1.295 . S
C94 O72 1.295 . S
C94 O82 1.295 . S
C95 O73 1.295 . S
C95 O83 1.295 . S
C96 O74 1.295 . S
C96 O81 1.295 . S
C97 O75 1.295 . S
C97 O80 1.295 . S
O98 Zr62 2.207 . S
O98 C92 1.295 . S
O99 Zr62 2.207 . S
O99 C90 1.295 . S
H100 C118 0.951 . S
H101 C120 0.951 . S
H102 C122 0.950 . S
H103 C123 0.950 . S
H104 C125 0.950 . S
H105 C128 0.946 1_556 S
H106 C129 0.950 . S
H107 C131 0.950 . S
H108 C132 0.950 . S
H109 C133 0.951 . S
H110 C135 0.951 . S
H111 C137 0.950 . S
H112 C138 0.950 . S
H113 C140 0.950 . S
H114 C143 0.946 1_554 S
H115 C144 0.950 . S
H116 C146 0.950 . S
H117 C147 0.950 . S
C118 H100 0.951 . S
C118 C119 1.366 . S
C118 C120 1.388 . S
C119 C118 1.366 . S
C119 C123 1.385 . S
C120 H101 0.951 . S
C120 C118 1.388 . S
C120 C121 1.366 . S
C121 C120 1.366 . S
C121 C122 1.414 . S
C121 C124 1.499 . S
C122 H102 0.950 . S
C122 C121 1.414 . S
C122 C123 1.374 . S
C123 H103 0.950 . S
C123 C119 1.385 . S
C123 C122 1.374 . S
C124 C121 1.499 . S
C124 C125 1.373 1_565 S
C124 C126 1.399 . S
C125 H104 0.950 . S
C125 C124 1.373 1_545 S
C125 C141 1.366 1_556 S
C126 C124 1.399 . S
C126 C127 1.523 1_556 S
C126 C140 1.366 1_566 S
C127 C126 1.523 1_554 S
C127 C128 1.397 . S
C127 C132 1.363 . S
C128 H105 0.946 1_554 S
C128 C127 1.397 . S
C128 C129 1.334 . S
C129 H106 0.950 . S
C129 C128 1.334 . S
C129 C130 1.287 . S
C130 C129 1.287 . S
C130 C131 1.524 . S
C130 H149 0.913 . S
C131 H107 0.950 . S
C131 C130 1.524 . S
C131 C132 1.415 . S
C132 H108 0.950 . S
C132 C127 1.363 . S
C132 C131 1.415 . S
C133 H109 0.951 . S
C133 C134 1.366 . S
C133 C135 1.388 . S
C134 C133 1.366 . S
C134 C138 1.385 . S
C135 H110 0.951 . S
C135 C133 1.388 . S
C135 C136 1.366 . S
C136 C135 1.366 . S
C136 C137 1.414 . S
C136 C139 1.499 . S
C137 H111 0.950 . S
C137 C136 1.414 . S
C137 C138 1.374 . S
C138 H112 0.950 . S
C138 C134 1.385 . S
C138 C137 1.374 . S
C139 C136 1.499 . S
C139 C140 1.373 . S
C139 C141 1.399 . S
C140 H113 0.950 . S
C140 C126 1.366 1_544 S
C140 C139 1.373 . S
C141 C125 1.366 1_554 S
C141 C139 1.399 . S
C141 C142 1.523 1_554 S
C142 C141 1.523 1_556 S
C142 C143 1.397 . S
C142 C147 1.363 . S
C143 H114 0.946 1_556 S
C143 C142 1.397 . S
C143 C144 1.334 . S
C144 H115 0.950 . S
C144 C143 1.334 . S
C144 C145 1.287 . S
C145 C144 1.287 . S
C145 C146 1.524 . S
C145 H148 0.999 . S
C146 H116 0.950 . S
C146 C145 1.524 . S
C146 C147 1.415 . S
C147 H117 0.950 . S
C147 C142 1.363 . S
C147 C146 1.415 . S
H148 C145 0.999 . S
H149 C130 0.913 . S
H150 C168 0.951 . S
H151 C170 0.951 . S
H152 C172 0.950 . S
H153 C173 0.950 . S
H154 C175 0.950 . S
H155 C178 0.950 . S
H156 C179 0.950 . S
H157 C181 0.950 . S
H158 C182 0.950 . S
H159 C183 0.951 . S
H160 C185 0.951 . S
H161 C187 0.950 . S
H162 C188 0.950 . S
H163 C190 0.950 . S
H164 C193 0.950 . S
H165 C194 0.950 . S
H166 C196 0.950 . S
H167 C197 0.950 . S
C168 H150 0.951 . S
C168 C169 1.366 . S
C168 C170 1.388 . S
C169 C168 1.366 . S
C169 C173 1.385 . S
C170 H151 0.951 . S
C170 C168 1.388 . S
C170 C171 1.366 . S
C171 C170 1.366 . S
C171 C172 1.414 . S
C171 C174 1.499 . S
C172 H152 0.950 . S
C172 C171 1.414 . S
C172 C173 1.374 . S
C173 H153 0.950 . S
C173 C169 1.385 . S
C173 C172 1.374 . S
C174 C171 1.499 . S
C174 C175 1.373 . S
C174 C176 1.389 . S
C175 H154 0.950 . S
C175 C174 1.373 . S
C175 C191 1.377 . S
C176 C174 1.389 . S
C176 C177 1.524 . S
C176 C190 1.377 . S
C177 C176 1.524 . S
C177 C178 1.397 . S
C177 C182 1.363 . S
C178 H155 0.950 . S
C178 C177 1.397 . S
C178 C179 1.334 . S
C179 H156 0.950 . S
C179 C178 1.334 . S
C179 C180 1.287 . S
C180 C179 1.287 . S
C180 C181 1.524 . S
C180 H199 0.913 . S
C181 H157 0.950 . S
C181 C180 1.524 . S
C181 C182 1.415 . S
C182 H158 0.950 . S
C182 C177 1.363 . S
C182 C181 1.415 . S
C183 H159 0.951 . S
C183 C184 1.366 . S
C183 C185 1.388 . S
C184 C183 1.366 . S
C184 C188 1.385 . S
C185 H160 0.951 . S
C185 C183 1.388 . S
C185 C186 1.366 . S
C186 C185 1.366 . S
C186 C187 1.414 . S
C186 C189 1.499 . S
C187 H161 0.950 . S
C187 C186 1.414 . S
C187 C188 1.374 . S
C188 H162 0.950 . S
C188 C184 1.385 . S
C188 C187 1.374 . S
C189 C186 1.499 . S
C189 C190 1.373 . S
C189 C191 1.389 . S
C190 H163 0.950 . S
C190 C176 1.377 . S
C190 C189 1.373 . S
C191 C175 1.377 . S
C191 C189 1.389 . S
C191 C192 1.524 . S
C192 C191 1.524 . S
C192 C193 1.397 . S
C192 C197 1.363 . S
C193 H164 0.950 . S
C193 C192 1.397 . S
C193 C194 1.334 . S
C194 H165 0.950 . S
C194 C193 1.334 . S
C194 C195 1.287 . S
C195 C194 1.287 . S
C195 C196 1.524 . S
C195 H198 0.999 . S
C196 H166 0.950 . S
C196 C195 1.524 . S
C196 C197 1.415 . S
C197 H167 0.950 . S
C197 C192 1.363 . S
C197 C196 1.415 . S
H198 C195 0.999 . S
H199 C180 0.913 . S
H200 C218 0.951 . S
H201 C220 0.951 . S
H202 C222 0.950 . S
H203 C223 0.950 . S
H204 C225 0.950 . S
H205 C228 0.950 . S
H206 C229 0.950 . S
H207 C231 0.950 . S
H208 C232 0.950 . S
H209 C233 0.951 . S
H210 C235 0.951 1_655 S
H211 C237 0.950 . S
H212 C238 0.950 . S
H213 C240 0.950 . S
H214 C243 0.950 1_455 S
H215 C244 0.950 . S
H216 C246 0.950 . S
H217 C247 0.950 . S
C218 H200 0.951 . S
C218 C219 1.366 . S
C218 C220 1.388 . S
C219 C218 1.366 . S
C219 C223 1.385 . S
C220 H201 0.951 . S
C220 C218 1.388 . S
C220 C221 1.366 . S
C221 C220 1.366 . S
C221 C222 1.414 . S
C221 C224 1.499 . S
C222 H202 0.950 . S
C222 C221 1.414 . S
C222 C223 1.374 . S
C223 H203 0.950 . S
C223 C219 1.385 . S
C223 C222 1.374 . S
C224 C221 1.499 . S
C224 C225 1.373 . S
C224 C226 1.389 . S
C225 H204 0.950 . S
C225 C224 1.373 . S
C225 C241 1.377 1_554 S
C226 C224 1.389 . S
C226 C227 1.524 1_655 S
C226 C240 1.377 1_654 S
C227 C226 1.524 1_455 S
C227 C228 1.397 1_455 S
C227 C232 1.363 . S
C228 H205 0.950 . S
C228 C227 1.397 1_655 S
C228 C229 1.334 . S
C229 H206 0.950 . S
C229 C228 1.334 . S
C229 C230 1.287 1_655 S
C230 C229 1.287 1_455 S
C230 C231 1.524 . S
C230 H249 0.913 . S
C231 H207 0.950 . S
C231 C230 1.524 . S
C231 C232 1.415 . S
C232 H208 0.950 . S
C232 C227 1.363 . S
C232 C231 1.415 . S
C233 H209 0.951 . S
C233 C234 1.366 . S
C233 C235 1.388 . S
C234 C233 1.366 . S
C234 C238 1.385 . S
C235 H210 0.951 1_455 S
C235 C233 1.388 . S
C235 C236 1.366 . S
C236 C235 1.366 . S
C236 C237 1.414 . S
C236 C239 1.499 . S
C237 H211 0.950 . S
C237 C236 1.414 . S
C237 C238 1.374 . S
C238 H212 0.950 . S
C238 C234 1.385 . S
C238 C237 1.374 . S
C239 C236 1.499 . S
C239 C240 1.373 . S
C239 C241 1.389 1_455 S
C240 H213 0.950 . S
C240 C226 1.377 1_456 S
C240 C239 1.373 . S
C241 C225 1.377 1_556 S
C241 C239 1.389 1_655 S
C241 C242 1.524 . S
C242 C241 1.524 . S
C242 C243 1.397 . S
C242 C247 1.363 . S
C243 H214 0.950 1_655 S
C243 C242 1.397 . S
C243 C244 1.334 . S
C244 H215 0.950 . S
C244 C243 1.334 . S
C244 C245 1.287 . S
C245 C244 1.287 . S
C245 C246 1.524 . S
C245 H248 0.999 . S
C246 H216 0.950 . S
C246 C245 1.524 . S
C246 C247 1.415 . S
C247 H217 0.950 . S
C247 C242 1.363 . S
C247 C246 1.415 . S
H248 C245 0.999 . S
H249 C230 0.913 . S
H250 C268 0.951 . S
H251 C270 0.951 . S
H252 C272 0.950 . S
H253 C273 0.950 . S
H254 C275 0.950 . S
H255 C278 0.950 . S
H256 C279 0.950 . S
H257 C281 0.950 . S
H258 C282 0.950 . S
H259 C283 0.951 . S
H260 C285 0.951 1_565 S
H261 C287 0.950 . S
H262 C288 0.950 . S
H263 C290 0.950 . S
H264 C293 0.950 1_545 S
H265 C294 0.950 . S
H266 C296 0.950 . S
H267 C297 0.950 . S
C268 H250 0.951 . S
C268 C269 1.366 . S
C268 C270 1.388 . S
C269 C268 1.366 . S
C269 C273 1.385 . S
C270 H251 0.951 . S
C270 C268 1.388 . S
C270 C271 1.366 . S
C271 C270 1.366 . S
C271 C272 1.414 . S
C271 C274 1.499 . S
C272 H252 0.950 . S
C272 C271 1.414 . S
C272 C273 1.374 . S
C273 H253 0.950 . S
C273 C269 1.385 . S
C273 C272 1.374 . S
C274 C271 1.499 . S
C274 C275 1.373 . S
C274 C276 1.389 . S
C275 H254 0.950 . S
C275 C274 1.373 . S
C275 C291 1.377 . S
C276 C274 1.389 . S
C276 C277 1.524 1_565 S
C276 C290 1.377 1_565 S
C277 C276 1.524 1_545 S
C277 C278 1.397 1_545 S
C277 C282 1.363 . S
C278 H255 0.950 . S
C278 C277 1.397 1_565 S
C278 C279 1.334 . S
C279 H256 0.950 . S
C279 C278 1.334 . S
C279 C280 1.287 1_565 S
C280 C279 1.287 1_545 S
C280 C281 1.524 . S
C280 H299 0.913 . S
C281 H257 0.950 . S
C281 C280 1.524 . S
C281 C282 1.415 . S
C282 H258 0.950 . S
C282 C277 1.363 . S
C282 C281 1.415 . S
C283 H259 0.951 . S
C283 C284 1.366 . S
C283 C285 1.388 . S
C284 C283 1.366 . S
C284 C288 1.385 . S
C285 H260 0.951 1_545 S
C285 C283 1.388 . S
C285 C286 1.366 . S
C286 C285 1.366 . S
C286 C287 1.414 . S
C286 C289 1.499 . S
C287 H261 0.950 . S
C287 C286 1.414 . S
C287 C288 1.374 . S
C288 H262 0.950 . S
C288 C284 1.385 . S
C288 C287 1.374 . S
C289 C286 1.499 . S
C289 C290 1.373 . S
C289 C291 1.389 1_545 S
C290 H263 0.950 . S
C290 C276 1.377 1_545 S
C290 C289 1.373 . S
C291 C275 1.377 . S
C291 C289 1.389 1_565 S
C291 C292 1.524 . S
C292 C291 1.524 . S
C292 C293 1.397 . S
C292 C297 1.363 . S
C293 H264 0.950 1_565 S
C293 C292 1.397 . S
C293 C294 1.334 . S
C294 H265 0.950 . S
C294 C293 1.334 . S
C294 C295 1.287 . S
C295 C294 1.287 . S
C295 C296 1.524 . S
C295 H298 0.999 . S
C296 H266 0.950 . S
C296 C295 1.524 . S
C296 C297 1.415 . S
C297 H267 0.950 . S
C297 C292 1.363 . S
C297 C296 1.415 . S
H298 C295 0.999 . S
H299 C280 0.913 . S
H300 C318 0.951 . S
H301 C320 0.951 . S
H302 C322 0.950 . S
H303 C323 0.950 . S
H304 C325 0.950 . S
H305 C328 0.950 . S
H306 C329 0.950 . S
H307 C331 0.950 . S
H308 C332 0.950 . S
H309 C333 0.951 . S
H310 C335 0.951 . S
H311 C337 0.950 . S
H312 C338 0.950 . S
H313 C340 0.950 . S
H314 C343 0.950 . S
H315 C344 0.950 . S
H316 C346 0.950 . S
H317 C347 0.950 . S
C318 H300 0.951 . S
C318 C319 1.366 . S
C318 C320 1.388 . S
C319 C318 1.366 . S
C319 C323 1.385 . S
C320 H301 0.951 . S
C320 C318 1.388 . S
C320 C321 1.366 . S
C321 C320 1.366 . S
C321 C322 1.414 . S
C321 C324 1.499 . S
C322 H302 0.950 . S
C322 C321 1.414 . S
C322 C323 1.374 . S
C323 H303 0.950 . S
C323 C319 1.385 . S
C323 C322 1.374 . S
C324 C321 1.499 . S
C324 C325 1.373 1_554 S
C324 C326 1.389 . S
C325 H304 0.950 . S
C325 C324 1.373 1_556 S
C325 C341 1.377 . S
C326 C324 1.389 . S
C326 C327 1.524 . S
C326 C340 1.377 . S
C327 C326 1.524 . S
C327 C328 1.397 . S
C327 C332 1.363 . S
C328 H305 0.950 . S
C328 C327 1.397 . S
C328 C329 1.334 . S
C329 H306 0.950 . S
C329 C328 1.334 . S
C329 C330 1.287 . S
C330 C329 1.287 . S
C330 C331 1.524 . S
C330 H349 0.913 . S
C331 H307 0.950 . S
C331 C330 1.524 . S
C331 C332 1.415 . S
C332 H308 0.950 . S
C332 C327 1.363 . S
C332 C331 1.415 . S
C333 H309 0.951 . S
C333 C334 1.366 . S
C333 C335 1.388 . S
C334 C333 1.366 . S
C334 C338 1.385 . S
C335 H310 0.951 . S
C335 C333 1.388 . S
C335 C336 1.366 . S
C336 C335 1.366 . S
C336 C337 1.414 . S
C336 C339 1.499 . S
C337 H311 0.950 . S
C337 C336 1.414 . S
C337 C338 1.374 . S
C338 H312 0.950 . S
C338 C334 1.385 . S
C338 C337 1.374 . S
C339 C336 1.499 . S
C339 C340 1.373 1_556 S
C339 C341 1.389 . S
C340 H313 0.950 . S
C340 C326 1.377 . S
C340 C339 1.373 1_554 S
C341 C325 1.377 . S
C341 C339 1.389 . S
C341 C342 1.524 . S
C342 C341 1.524 . S
C342 C343 1.397 . S
C342 C347 1.363 . S
C343 H314 0.950 . S
C343 C342 1.397 . S
C343 C344 1.334 . S
C344 H315 0.950 . S
C344 C343 1.334 . S
C344 C345 1.287 . S
C345 C344 1.287 . S
C345 C346 1.524 . S
C345 H348 0.999 . S
C346 H316 0.950 . S
C346 C345 1.524 . S
C346 C347 1.415 . S
C347 H317 0.950 . S
C347 C342 1.363 . S
C347 C346 1.415 . S
H348 C345 0.999 . S
H349 C330 0.913 . S
H350 C368 0.951 . S
H351 C370 0.951 . S
H352 C372 0.950 . S
H353 C373 0.950 . S
H354 C375 0.950 . S
H355 C378 0.950 . S
H356 C379 0.950 . S
H357 C381 0.950 . S
H358 C382 0.950 . S
H359 C383 0.951 . S
H360 C385 0.951 . S
H361 C387 0.950 . S
H362 C388 0.950 . S
H363 C390 0.950 . S
H364 C393 0.950 1_455 S
H365 C394 0.950 . S
H366 C396 0.950 . S
H367 C397 0.950 . S
C368 H350 0.951 . S
C368 C369 1.366 . S
C368 C370 1.388 . S
C369 C368 1.366 . S
C369 C373 1.385 . S
C370 H351 0.951 . S
C370 C368 1.388 . S
C370 C371 1.366 . S
C371 C370 1.366 . S
C371 C372 1.414 . S
C371 C374 1.499 . S
C372 H352 0.950 . S
C372 C371 1.414 . S
C372 C373 1.374 . S
C373 H353 0.950 . S
C373 C369 1.385 . S
C373 C372 1.374 . S
C374 C371 1.499 . S
C374 C375 1.373 . S
C374 C376 1.389 1_655 S
C375 H354 0.950 . S
C375 C374 1.373 . S
C375 C391 1.377 1_655 S
C376 C374 1.389 1_455 S
C376 C377 1.524 . S
C376 C390 1.377 . S
C377 C376 1.524 . S
C377 C378 1.397 . S
C377 C382 1.363 . S
C378 H355 0.950 . S
C378 C377 1.397 . S
C378 C379 1.334 . S
C379 H356 0.950 . S
C379 C378 1.334 . S
C379 C380 1.287 . S
C380 C379 1.287 . S
C380 C381 1.524 . S
C380 H399 0.913 . S
C381 H357 0.950 . S
C381 C380 1.524 . S
C381 C382 1.415 . S
C382 H358 0.950 . S
C382 C377 1.363 . S
C382 C381 1.415 . S
C383 H359 0.951 . S
C383 C384 1.366 . S
C383 C385 1.388 . S
C384 C383 1.366 . S
C384 C388 1.385 . S
C385 H360 0.951 . S
C385 C383 1.388 . S
C385 C386 1.366 . S
C386 C385 1.366 . S
C386 C387 1.414 . S
C386 C389 1.499 . S
C387 H361 0.950 . S
C387 C386 1.414 . S
C387 C388 1.374 . S
C388 H362 0.950 . S
C388 C384 1.385 . S
C388 C387 1.374 . S
C389 C386 1.499 . S
C389 C390 1.373 . S
C389 C391 1.389 . S
C390 H363 0.950 . S
C390 C376 1.377 . S
C390 C389 1.373 . S
C391 C375 1.377 1_455 S
C391 C389 1.389 . S
C391 C392 1.524 1_455 S
C392 C391 1.524 1_655 S
C392 C393 1.397 . S
C392 C397 1.363 . S
C393 H364 0.950 1_655 S
C393 C392 1.397 . S
C393 C394 1.334 . S
C394 H365 0.950 . S
C394 C393 1.334 . S
C394 C395 1.287 . S
C395 C394 1.287 . S
C395 C396 1.524 . S
C395 H398 0.999 . S
C396 H366 0.950 . S
C396 C395 1.524 . S
C396 C397 1.415 . S
C397 H367 0.950 . S
C397 C392 1.363 . S
C397 C396 1.415 . S
H398 C395 0.999 . S
H399 C380 0.913 . S
H400 C418 0.951 . S
H401 C420 0.951 . S
H402 C422 0.950 . S
H403 C423 0.950 . S
H404 C425 0.950 . S
H405 C428 0.950 . S
H406 C429 0.950 . S
H407 C431 0.950 . S
H408 C432 0.950 . S
H409 C433 0.951 . S
H410 C435 0.951 . S
H411 C437 0.950 . S
H412 C438 0.950 . S
H413 C440 0.950 . S
H414 C443 0.950 . S
H415 C444 0.950 . S
H416 C446 0.950 . S
H417 C447 0.950 . S
C418 H400 0.951 . S
C418 C419 1.366 . S
C418 C420 1.388 1_545 S
C419 C418 1.366 . S
C419 C423 1.385 . S
C420 H401 0.951 . S
C420 C418 1.388 1_565 S
C420 C421 1.366 . S
C421 C420 1.366 . S
C421 C422 1.414 . S
C421 C424 1.499 . S
C422 H402 0.950 . S
C422 C421 1.414 . S
C422 C423 1.374 1_565 S
C423 H403 0.950 . S
C423 C419 1.385 . S
C423 C422 1.374 1_545 S
C424 C421 1.499 . S
C424 C425 1.373 . S
C424 C426 1.389 . S
C425 H404 0.950 . S
C425 C424 1.373 . S
C425 C441 1.377 . S
C426 C424 1.389 . S
C426 C427 1.524 . S
C426 C440 1.377 . S
C427 C426 1.524 . S
C427 C428 1.397 . S
C427 C432 1.363 . S
C428 H405 0.950 . S
C428 C427 1.397 . S
C428 C429 1.334 . S
C429 H406 0.950 . S
C429 C428 1.334 . S
C429 C430 1.287 . S
C430 C429 1.287 . S
C430 C431 1.524 . S
C430 H449 0.913 . S
C431 H407 0.950 . S
C431 C430 1.524 . S
C431 C432 1.415 . S
C432 H408 0.950 . S
C432 C427 1.363 . S
C432 C431 1.415 . S
C433 H409 0.951 . S
C433 C434 1.366 . S
C433 C435 1.388 . S
C434 C433 1.366 . S
C434 C438 1.385 . S
C435 H410 0.951 . S
C435 C433 1.388 . S
C435 C436 1.366 . S
C436 C435 1.366 . S
C436 C437 1.414 . S
C436 C439 1.499 . S
C437 H411 0.950 . S
C437 C436 1.414 . S
C437 C438 1.374 . S
C438 H412 0.950 . S
C438 C434 1.385 . S
C438 C437 1.374 . S
C439 C436 1.499 . S
C439 C440 1.373 . S
C439 C441 1.389 . S
C440 H413 0.950 . S
C440 C426 1.377 . S
C440 C439 1.373 . S
C441 C425 1.377 . S
C441 C439 1.389 . S
C441 C442 1.524 . S
C442 C441 1.524 . S
C442 C443 1.397 . S
C442 C447 1.363 . S
C443 H414 0.950 . S
C443 C442 1.397 . S
C443 C444 1.334 . S
C444 H415 0.950 . S
C444 C443 1.334 . S
C444 C445 1.287 . S
C445 C444 1.287 . S
C445 C446 1.524 . S
C445 H448 0.999 . S
C446 H416 0.950 . S
C446 C445 1.524 . S
C446 C447 1.415 . S
C447 H417 0.950 . S
C447 C442 1.363 . S
C447 C446 1.415 . S
H448 C445 0.999 . S
H449 C430 0.913 . S
H450 C468 0.951 . S
H451 C470 0.951 . S
H452 C472 0.950 . S
H453 C473 0.950 . S
H454 C475 0.950 . S
H455 C478 0.950 . S
H456 C479 0.950 . S
H457 C481 0.950 . S
H458 C482 0.950 . S
H459 C483 0.951 . S
H460 C485 0.951 . S
H461 C487 0.950 . S
H462 C488 0.950 . S
H463 C490 0.950 . S
H464 C493 0.950 . S
H465 C494 0.950 . S
H466 C496 0.950 . S
H467 C497 0.950 . S
C468 H450 0.951 . S
C468 C469 1.366 . S
C468 C470 1.388 . S
C469 C468 1.366 . S
C469 C473 1.385 . S
C470 H451 0.951 . S
C470 C468 1.388 . S
C470 C471 1.366 1_455 S
C471 C470 1.366 1_655 S
C471 C472 1.414 . S
C471 C474 1.499 . S
C472 H452 0.950 . S
C472 C471 1.414 . S
C472 C473 1.374 1_655 S
C473 H453 0.950 . S
C473 C469 1.385 . S
C473 C472 1.374 1_455 S
C474 C471 1.499 . S
C474 C475 1.373 . S
C474 C476 1.389 . S
C475 H454 0.950 . S
C475 C474 1.373 . S
C475 C491 1.377 . S
C476 C474 1.389 . S
C476 C477 1.524 . S
C476 C490 1.377 . S
C477 C476 1.524 . S
C477 C478 1.397 . S
C477 C482 1.363 . S
C478 H455 0.950 . S
C478 C477 1.397 . S
C478 C479 1.334 . S
C479 H456 0.950 . S
C479 C478 1.334 . S
C479 C480 1.287 . S
C480 C479 1.287 . S
C480 C481 1.524 . S
C480 H499 0.913 1_655 S
C481 H457 0.950 . S
C481 C480 1.524 . S
C481 C482 1.415 . S
C482 H458 0.950 . S
C482 C477 1.363 . S
C482 C481 1.415 . S
C483 H459 0.951 . S
C483 C484 1.366 . S
C483 C485 1.388 . S
C484 C483 1.366 . S
C484 C488 1.385 . S
C485 H460 0.951 . S
C485 C483 1.388 . S
C485 C486 1.366 . S
C486 C485 1.366 . S
C486 C487 1.414 . S
C486 C489 1.499 . S
C487 H461 0.950 . S
C487 C486 1.414 . S
C487 C488 1.374 . S
C488 H462 0.950 . S
C488 C484 1.385 . S
C488 C487 1.374 . S
C489 C486 1.499 . S
C489 C490 1.373 . S
C489 C491 1.389 . S
C490 H463 0.950 . S
C490 C476 1.377 . S
C490 C489 1.373 . S
C491 C475 1.377 . S
C491 C489 1.389 . S
C491 C492 1.524 . S
C492 C491 1.524 . S
C492 C493 1.397 . S
C492 C497 1.363 . S
C493 H464 0.950 . S
C493 C492 1.397 . S
C493 C494 1.334 . S
C494 H465 0.950 . S
C494 C493 1.334 . S
C494 C495 1.287 . S
C495 C494 1.287 . S
C495 C496 1.524 . S
C495 H498 0.999 . S
C496 H466 0.950 . S
C496 C495 1.524 . S
C496 C497 1.415 . S
C497 H467 0.950 . S
C497 C492 1.363 . S
C497 C496 1.415 . S
H498 C495 0.999 . S
H499 C480 0.913 1_455 S
H500 C518 0.951 . S
H501 C520 0.951 1_565 S
H502 C522 0.950 . S
H503 C523 0.950 . S
H504 C525 0.950 . S
H505 C528 0.950 . S
H506 C529 0.950 . S
H507 C531 0.950 . S
H508 C532 0.950 . S
H509 C533 0.951 . S
H510 C535 0.951 . S
H511 C537 0.950 . S
H512 C538 0.950 . S
H513 C540 0.950 . S
H514 C543 0.950 . S
H515 C544 0.950 . S
H516 C546 0.950 . S
H517 C547 0.950 . S
C518 H500 0.951 . S
C518 C519 1.366 . S
C518 C520 1.388 . S
C519 C518 1.366 . S
C519 C523 1.385 . S
C520 H501 0.951 1_545 S
C520 C518 1.388 . S
C520 C521 1.366 1_545 S
C521 C520 1.366 1_565 S
C521 C522 1.414 . S
C521 C524 1.499 . S
C522 H502 0.950 . S
C522 C521 1.414 . S
C522 C523 1.374 1_565 S
C523 H503 0.950 . S
C523 C519 1.385 . S
C523 C522 1.374 1_545 S
C524 C521 1.499 . S
C524 C525 1.373 . S
C524 C526 1.389 . S
C525 H504 0.950 . S
C525 C524 1.373 . S
C525 C541 1.377 . S
C526 C524 1.389 . S
C526 C527 1.524 . S
C526 C540 1.377 . S
C527 C526 1.524 . S
C527 C528 1.397 . S
C527 C532 1.363 . S
C528 H505 0.950 . S
C528 C527 1.397 . S
C528 C529 1.334 . S
C529 H506 0.950 . S
C529 C528 1.334 . S
C529 C530 1.287 . S
C530 C529 1.287 . S
C530 C531 1.524 . S
C530 H549 0.913 . S
C531 H507 0.950 . S
C531 C530 1.524 . S
C531 C532 1.415 . S
C532 H508 0.950 . S
C532 C527 1.363 . S
C532 C531 1.415 . S
C533 H509 0.951 . S
C533 C534 1.366 . S
C533 C535 1.388 1_655 S
C534 C533 1.366 . S
C534 C538 1.385 . S
C535 H510 0.951 . S
C535 C533 1.388 1_455 S
C535 C536 1.366 . S
C536 C535 1.366 . S
C536 C537 1.414 . S
C536 C539 1.499 . S
C537 H511 0.950 . S
C537 C536 1.414 . S
C537 C538 1.374 1_455 S
C538 H512 0.950 . S
C538 C534 1.385 . S
C538 C537 1.374 1_655 S
C539 C536 1.499 . S
C539 C540 1.373 . S
C539 C541 1.389 . S
C540 H513 0.950 . S
C540 C526 1.377 . S
C540 C539 1.373 . S
C541 C525 1.377 . S
C541 C539 1.389 . S
C541 C542 1.524 . S
C542 C541 1.524 . S
C542 C543 1.397 1_455 S
C542 C547 1.363 . S
C543 H514 0.950 . S
C543 C542 1.397 1_655 S
C543 C544 1.334 . S
C544 H515 0.950 . S
C544 C543 1.334 . S
C544 C545 1.287 . S
C545 C544 1.287 . S
C545 C546 1.524 1_655 S
C545 H548 0.999 . S
C546 H516 0.950 . S
C546 C545 1.524 1_455 S
C546 C547 1.415 . S
C547 H517 0.950 . S
C547 C542 1.363 . S
C547 C546 1.415 . S
H548 C545 0.999 . S
H549 C530 0.913 . S
H550 C568 0.951 . S
H551 C570 0.951 . S
H552 C572 0.950 . S
H553 C573 0.950 . S
H554 C575 0.950 . S
H555 C578 0.950 . S
H556 C579 0.950 . S
H557 C581 0.950 . S
H558 C582 0.950 . S
H559 C583 0.951 . S
H560 C585 0.951 . S
H561 C587 0.950 . S
H562 C588 0.950 . S
H563 C590 0.950 . S
H564 C593 0.950 . S
H565 C594 0.950 . S
H566 C596 0.950 . S
H567 C597 0.950 . S
C568 H550 0.951 . S
C568 C569 1.366 . S
C568 C570 1.388 . S
C569 C568 1.366 . S
C569 C573 1.385 . S
C570 H551 0.951 . S
C570 C568 1.388 . S
C570 C571 1.366 . S
C571 C570 1.366 . S
C571 C572 1.414 . S
C571 C574 1.499 . S
C572 H552 0.950 . S
C572 C571 1.414 . S
C572 C573 1.374 . S
C573 H553 0.950 . S
C573 C569 1.385 . S
C573 C572 1.374 . S
C574 C571 1.499 . S
C574 C575 1.373 . S
C574 C576 1.389 . S
C575 H554 0.950 . S
C575 C574 1.373 . S
C575 C591 1.377 . S
C576 C574 1.389 . S
C576 C577 1.524 . S
C576 C590 1.377 . S
C577 C576 1.524 . S
C577 C578 1.397 . S
C577 C582 1.363 . S
C578 H555 0.950 . S
C578 C577 1.397 . S
C578 C579 1.334 . S
C579 H556 0.950 . S
C579 C578 1.334 . S
C579 C580 1.287 . S
C580 C579 1.287 . S
C580 C581 1.524 . S
C580 H599 0.913 . S
C581 H557 0.950 . S
C581 C580 1.524 . S
C581 C582 1.415 . S
C582 H558 0.950 . S
C582 C577 1.363 . S
C582 C581 1.415 . S
C583 H559 0.951 . S
C583 C584 1.366 . S
C583 C585 1.388 1_565 S
C584 C583 1.366 . S
C584 C588 1.385 . S
C585 H560 0.951 . S
C585 C583 1.388 1_545 S
C585 C586 1.366 . S
C586 C585 1.366 . S
C586 C587 1.414 1_545 S
C586 C589 1.499 . S
C587 H561 0.950 . S
C587 C586 1.414 1_565 S
C587 C588 1.374 . S
C588 H562 0.950 . S
C588 C584 1.385 . S
C588 C587 1.374 . S
C589 C586 1.499 . S
C589 C590 1.373 . S
C589 C591 1.389 . S
C590 H563 0.950 . S
C590 C576 1.377 . S
C590 C589 1.373 . S
C591 C575 1.377 . S
C591 C589 1.389 . S
C591 C592 1.524 . S
C592 C591 1.524 . S
C592 C593 1.397 . S
C592 C597 1.363 . S
C593 H564 0.950 . S
C593 C592 1.397 . S
C593 C594 1.334 . S
C594 H565 0.950 . S
C594 C593 1.334 . S
C594 C595 1.287 . S
C595 C594 1.287 . S
C595 C596 1.524 . S
C595 H598 0.999 . S
C596 H566 0.950 . S
C596 C595 1.524 . S
C596 C597 1.415 . S
C597 H567 0.950 . S
C597 C592 1.363 . S
C597 C596 1.415 . S
H598 C595 0.999 . S
H599 C580 0.913 . S
H600 C618 0.951 . S
H601 C620 0.951 . S
H602 C622 0.950 . S
H603 C623 0.950 . S
H604 C625 0.950 . S
H605 C628 0.950 . S
H606 C629 0.950 . S
H607 C631 0.950 . S
H608 C632 0.950 . S
H609 C633 0.951 . S
H610 C635 0.951 . S
H611 C637 0.950 . S
H612 C638 0.950 . S
H613 C640 0.950 . S
H614 C643 0.950 . S
H615 C644 0.950 . S
H616 C646 0.950 . S
H617 C647 0.950 . S
C618 H600 0.951 . S
C618 C619 1.366 . S
C618 C620 1.388 . S
C619 C618 1.366 . S
C619 C623 1.385 . S
C620 H601 0.951 . S
C620 C618 1.388 . S
C620 C621 1.366 . S
C621 C620 1.366 . S
C621 C622 1.414 . S
C621 C624 1.499 . S
C622 H602 0.950 . S
C622 C621 1.414 . S
C622 C623 1.374 . S
C623 H603 0.950 . S
C623 C619 1.385 . S
C623 C622 1.374 . S
C624 C621 1.499 . S
C624 C625 1.373 . S
C624 C626 1.389 . S
C625 H604 0.950 . S
C625 C624 1.373 . S
C625 C641 1.377 . S
C626 C624 1.389 . S
C626 C627 1.524 . S
C626 C640 1.377 . S
C627 C626 1.524 . S
C627 C628 1.397 . S
C627 C632 1.363 . S
C628 H605 0.950 . S
C628 C627 1.397 . S
C628 C629 1.334 . S
C629 H606 0.950 . S
C629 C628 1.334 . S
C629 C630 1.287 . S
C630 C629 1.287 . S
C630 C631 1.524 . S
C630 H649 0.913 . S
C631 H607 0.950 . S
C631 C630 1.524 . S
C631 C632 1.415 . S
C632 H608 0.950 . S
C632 C627 1.363 . S
C632 C631 1.415 . S
C633 H609 0.951 . S
C633 C634 1.366 . S
C633 C635 1.388 1_655 S
C634 C633 1.366 . S
C634 C638 1.385 . S
C635 H610 0.951 . S
C635 C633 1.388 1_455 S
C635 C636 1.366 . S
C636 C635 1.366 . S
C636 C637 1.414 1_455 S
C636 C639 1.499 . S
C637 H611 0.950 . S
C637 C636 1.414 1_655 S
C637 C638 1.374 . S
C638 H612 0.950 . S
C638 C634 1.385 . S
C638 C637 1.374 . S
C639 C636 1.499 . S
C639 C640 1.373 . S
C639 C641 1.389 . S
C640 H613 0.950 . S
C640 C626 1.377 . S
C640 C639 1.373 . S
C641 C625 1.377 . S
C641 C639 1.389 . S
C641 C642 1.524 . S
C642 C641 1.524 . S
C642 C643 1.397 . S
C642 C647 1.363 . S
C643 H614 0.950 . S
C643 C642 1.397 . S
C643 C644 1.334 . S
C644 H615 0.950 . S
C644 C643 1.334 . S
C644 C645 1.287 . S
C645 C644 1.287 . S
C645 C646 1.524 . S
C645 H648 0.999 . S
C646 H616 0.950 . S
C646 C645 1.524 . S
C646 C647 1.415 . S
C647 H617 0.950 . S
C647 C642 1.363 . S
C647 C646 1.415 . S
H648 C645 0.999 . S
H649 C630 0.913 . S
H650 C668 0.951 . S
H651 C670 0.951 . S
H652 C672 0.950 . S
H653 C673 0.950 . S
H654 C675 0.950 . S
H655 C678 0.950 . S
H656 C679 0.950 . S
H657 C681 0.950 . S
H658 C682 0.950 . S
H659 C683 0.951 . S
H660 C685 0.951 . S
H661 C687 0.950 . S
H662 C688 0.950 . S
H663 C690 0.950 . S
H664 C693 0.950 . S
H665 C694 0.950 . S
H666 C696 0.950 . S
H667 C697 0.950 . S
C668 H650 0.951 . S
C668 C669 1.366 . S
C668 C670 1.388 1_455 S
C669 C668 1.366 . S
C669 C673 1.385 . S
C670 H651 0.951 . S
C670 C668 1.388 1_655 S
C670 C671 1.366 . S
C671 C670 1.366 . S
C671 C672 1.414 1_655 S
C671 C674 1.499 . S
C672 H652 0.950 . S
C672 C671 1.414 1_455 S
C672 C673 1.374 . S
C673 H653 0.950 . S
C673 C669 1.385 . S
C673 C672 1.374 . S
C674 C671 1.499 . S
C674 C675 1.373 . S
C674 C676 1.389 . S
C675 H654 0.950 . S
C675 C674 1.373 . S
C675 C691 1.377 . S
C676 C674 1.389 . S
C676 C677 1.524 . S
C676 C690 1.377 . S
C677 C676 1.524 . S
C677 C678 1.397 . S
C677 C682 1.363 . S
C678 H655 0.950 . S
C678 C677 1.397 . S
C678 C679 1.334 . S
C679 H656 0.950 . S
C679 C678 1.334 . S
C679 C680 1.287 . S
C680 C679 1.287 . S
C680 C681 1.524 . S
C680 H699 0.913 . S
C681 H657 0.950 . S
C681 C680 1.524 . S
C681 C682 1.415 . S
C682 H658 0.950 . S
C682 C677 1.363 . S
C682 C681 1.415 . S
C683 H659 0.951 . S
C683 C684 1.366 . S
C683 C685 1.388 . S
C684 C683 1.366 . S
C684 C688 1.385 . S
C685 H660 0.951 . S
C685 C683 1.388 . S
C685 C686 1.366 1_565 S
C686 C685 1.366 1_545 S
C686 C687 1.414 . S
C686 C689 1.499 . S
C687 H661 0.950 . S
C687 C686 1.414 . S
C687 C688 1.374 1_545 S
C688 H662 0.950 . S
C688 C684 1.385 . S
C688 C687 1.374 1_565 S
C689 C686 1.499 . S
C689 C690 1.373 . S
C689 C691 1.389 . S
C690 H663 0.950 . S
C690 C676 1.377 . S
C690 C689 1.373 . S
C691 C675 1.377 . S
C691 C689 1.389 . S
C691 C692 1.524 . S
C692 C691 1.524 . S
C692 C693 1.397 . S
C692 C697 1.363 . S
C693 H664 0.950 . S
C693 C692 1.397 . S
C693 C694 1.334 . S
C694 H665 0.950 . S
C694 C693 1.334 . S
C694 C695 1.287 . S
C695 C694 1.287 . S
C695 C696 1.524 . S
C695 H698 0.999 . S
C696 H666 0.950 . S
C696 C695 1.524 . S
C696 C697 1.415 . S
C697 H667 0.950 . S
C697 C692 1.363 . S
C697 C696 1.415 . S
H698 C695 0.999 . S
H699 C680 0.913 . S
C119 C84 1.784 . S
C134 C34 1.686 . S
C169 C96 1.686 . S
C184 C37 1.784 . S
C219 C45 1.685 . S
C234 C97 1.784 . S
C269 C90 1.685 . S
C284 C44 1.784 . S
C319 C42 1.686 . S
C334 C91 1.784 . S
C369 C43 1.784 . S
C384 C87 1.686 . S
C419 C41 1.017 . S
C434 C40 1.017 . S
C469 C89 1.017 . S
C484 C88 1.017 . S
C519 C38 1.017 . S
C534 C39 1.017 . S
C569 C94 1.017 . S
C584 C95 1.017 . S
C619 C46 1.017 . S
C634 C47 1.017 . S
C669 C93 1.017 . S
C684 C92 1.017 . S
