# Generated by pormake.
# Topology qtz-e, (6)-cn, num edge types: 1
# Building blocks:
#     Node 0, Type 0, BuildingBlock: BETDIP_clean_sbu_0, # of connection points: 6
#     Node 1, Type 0, BuildingBlock: BETDIP_clean_sbu_0, # of connection points: 6
#     Node 2, Type 0, BuildingBlock: BETDIP_clean_sbu_0, # of connection points: 6
#     Node 3, Type 0, BuildingBlock: BETDIP_clean_sbu_0, # of connection points: 6
#     Node 4, Type 0, BuildingBlock: BETDIP_clean_sbu_0, # of connection points: 6
#     Node 5, Type 0, BuildingBlock: BETDIP_clean_sbu_0, # of connection points: 6
#     Edge 6, Type (0, 0), BuildingBlock: EZIPEK_clean_linker_0, # of connection points: 2
#     Edge 7, Type (0, 0), BuildingBlock: EZIPEK_clean_linker_0, # of connection points: 2
#     Edge 8, Type (0, 0), BuildingBlock: EZIPEK_clean_linker_0, # of connection points: 2
#     Edge 9, Type (0, 0), BuildingBlock: EZIPEK_clean_linker_0, # of connection points: 2
#     Edge 10, Type (0, 0), BuildingBlock: EZIPEK_clean_linker_0, # of connection points: 2
#     Edge 11, Type (0, 0), BuildingBlock: EZIPEK_clean_linker_0, # of connection points: 2
#     Edge 12, Type (0, 0), BuildingBlock: EZIPEK_clean_linker_0, # of connection points: 2
#     Edge 13, Type (0, 0), BuildingBlock: EZIPEK_clean_linker_0, # of connection points: 2
#     Edge 14, Type (0, 0), BuildingBlock: EZIPEK_clean_linker_0, # of connection points: 2
#     Edge 15, Type (0, 0), BuildingBlock: EZIPEK_clean_linker_0, # of connection points: 2
#     Edge 16, Type (0, 0), BuildingBlock: EZIPEK_clean_linker_0, # of connection points: 2
#     Edge 17, Type (0, 0), BuildingBlock: EZIPEK_clean_linker_0, # of connection points: 2
#     Edge 18, Type (0, 0), BuildingBlock: EZIPEK_clean_linker_0, # of connection points: 2
#     Edge 19, Type (0, 0), BuildingBlock: EZIPEK_clean_linker_0, # of connection points: 2
#     Edge 20, Type (0, 0), BuildingBlock: EZIPEK_clean_linker_0, # of connection points: 2
#     Edge 21, Type (0, 0), BuildingBlock: EZIPEK_clean_linker_0, # of connection points: 2
#     Edge 22, Type (0, 0), BuildingBlock: EZIPEK_clean_linker_0, # of connection points: 2
#     Edge 23, Type (0, 0), BuildingBlock: EZIPEK_clean_linker_0, # of connection points: 2
# Relax obj value: 0.106
# Max RMSD: 0.196
# Mean RMSD: 0.196
data_MOF--net-qtz-e--node1-BETDIP_clean_sbu_0--edge1-EZIPEK_clean_linker_0
_symmetry_space_group_name_H-M    P1
_symmetry_Int_Tables_number       1
_symmetry_cell_setting            triclinic
loop_
_symmetry_equiv_pos_as_xyz
'x, y, z'
_cell_length_a     18.827076
_cell_length_b     18.738989
_cell_length_c     41.537895
_cell_angle_alpha  89.77288
_cell_angle_beta   89.593097
_cell_angle_gamma 119.50256
loop_
_atom_site_label
_atom_site_type_symbol
_atom_site_fract_x
_atom_site_fract_y
_atom_site_fract_z
_atom_type_partial_charge
Tb0 Tb 0.26832 0.53413 0.10016 0.0
Tb1 Tb 0.16858 0.36725 0.07043 0.0
C2 C 0.30865 0.66546 0.12922 0.0
C3 C 0.30597 0.68818 0.16293 0.0
C4 C 0.23127 0.66717 0.17812 0.0
C5 C 0.22839 0.68307 0.2106 0.0
C6 C 0.30057 0.72271 0.22819 0.0
C7 C 0.3759 0.74738 0.21297 0.0
C8 C 0.37853 0.7297 0.1805 0.0
C9 C 0.34895 0.45585 0.09251 0.0
C10 C 0.14693 0.37702 0.14561 0.0
C11 C 0.12974 0.24704 1.03305 0.0
C12 C 0.16388 0.23659 1.00169 0.0
C13 C 0.16133 0.162 0.99442 0.0
C14 C 0.19009 0.15044 0.96449 0.0
C15 C 0.22235 0.21332 0.94102 0.0
C16 C 0.22563 0.28809 0.9484 0.0
C17 C 0.1964 0.29944 0.97813 0.0
C18 C 0.09977 0.45986 0.07304 0.0
C19 C 0.2986 0.52184 1.02853 0.0
O20 O 0.23833 0.62259 0.11488 0.0
O21 O 0.35939 0.63837 0.1229 0.0
O22 O 0.27424 0.42233 0.10096 0.0
O23 O 0.38055 0.53479 0.09115 0.0
O24 O 0.20129 0.45645 0.14243 0.0
O25 O 0.12536 0.32736 0.12022 0.0
O26 O 0.17305 0.25917 0.05908 0.0
O27 O 0.097 0.2944 1.03238 0.0
O28 O 0.17269 0.48188 0.067 0.0
O29 O 0.05894 0.3806 0.07604 0.0
O30 O 0.26054 0.44196 0.03392 0.0
O31 O 0.30065 0.57344 0.05043 0.0
H32 H 0.17482 0.63742 0.16512 0.0
H33 H 0.16991 0.66496 0.22202 0.0
H34 H 0.43215 0.77916 0.22632 0.0
H35 H 0.43708 0.74774 0.1692 0.0
H36 H 0.13647 0.11225 1.01186 0.0
H37 H 0.18747 0.09244 0.95968 0.0
H38 H 0.25055 0.33778 0.93097 0.0
H39 H 0.19862 0.35738 0.98245 0.0
Tb40 Tb 0.67938 0.23317 0.42419 0.0
Tb41 Tb 0.78181 0.15728 0.40151 0.0
C42 C 0.57449 0.25457 0.45292 0.0
C43 C 0.56055 0.25385 0.48777 0.0
C44 C 0.4826 0.20293 0.50098 0.0
C45 C 0.4716 0.19445 0.53439 0.0
C46 C 0.53866 0.23675 0.55472 0.0
C47 C 0.61603 0.28861 0.54156 0.0
C48 C 0.62706 0.29693 0.50837 0.0
C49 C 0.83419 0.33661 0.41677 0.0
C50 C 0.74337 0.14388 0.47518 0.0
C51 C 0.88848 0.14494 0.36813 0.0
C52 C 0.92451 0.17321 0.33495 0.0
C53 C 0.00802 0.20137 0.3292 0.0
C54 C 0.04342 0.23015 0.29849 0.0
C55 C -0.00361 0.23205 0.27263 0.0
C56 C 0.9128 0.20344 0.27824 0.0
C57 C 0.87725 0.17391 0.30888 0.0
C58 C 0.62284 0.06007 0.40657 0.0
C59 C 0.71834 0.24762 0.3524 0.0
O60 O 0.55894 0.18393 0.44099 0.0
O61 O 0.64341 0.31507 0.44194 0.0
O62 O 0.80495 0.26451 0.42783 0.0
O63 O 0.77667 0.35448 0.41278 0.0
O64 O 0.69485 0.17476 0.46814 0.0
O65 O 0.79164 0.13784 0.45301 0.0
O66 O 0.90603 0.20207 0.38966 0.0
O67 O 0.81174 0.08753 0.37023 0.0
O68 O 0.6604 0.13234 0.39657 0.0
O69 O 0.67483 0.03483 0.41231 0.0
O70 O 0.7713 0.22345 0.35988 0.0
O71 O 0.66338 0.24394 0.3732 0.0
H72 H 0.43084 0.16844 0.48548 0.0
H73 H 0.41133 0.1545 0.54437 0.0
H74 H 0.66801 0.32226 0.55705 0.0
H75 H 0.68814 0.33572 0.49892 0.0
H76 H 0.04628 0.20178 0.34863 0.0
H77 H 0.10808 0.25248 0.29504 0.0
H78 H 0.8752 0.20472 0.25891 0.0
H79 H 0.81281 0.1521 0.31223 0.0
Tb80 Tb 0.4346 0.64746 0.76755 0.0
Tb81 Tb 0.57314 0.80685 0.74024 0.0
C82 C 0.36621 0.51082 0.7951 0.0
C83 C 0.36673 0.49543 0.82989 0.0
C84 C 0.44065 0.53368 0.84689 0.0
C85 C 0.44033 0.54451 0.88005 0.0
C86 C 0.36615 0.51373 0.89691 0.0
C87 C 0.29246 0.4676 0.88052 0.0
C88 C 0.29272 0.45893 0.84716 0.0
C89 C 0.40701 0.76873 0.7734 0.0
C90 C 0.58907 0.76664 0.81226 0.0
C91 C 0.65536 0.93934 0.70872 0.0
C92 C 0.66942 0.96636 0.67417 0.0
C93 C 0.60809 0.92949 0.65084 0.0
C94 C 0.62254 0.95756 0.61867 0.0
C95 C 0.69899 0.02277 0.60895 0.0
C96 C 0.76062 0.05874 0.63216 0.0
C97 C 0.74591 0.03103 0.66433 0.0
C98 C 0.57895 0.67056 0.729 0.0
C99 C 0.40972 0.69748 0.69889 0.0
O100 O 0.43642 0.54006 0.77994 0.0
O101 O 0.3276 0.55053 0.78743 0.0
O102 O 0.47731 0.77488 0.77562 0.0
O103 O 0.35048 0.69259 0.77363 0.0
O104 O 0.52533 0.69354 0.80658 0.0
O105 O 0.61591 0.82663 0.79038 0.0
O106 O 0.58292 0.91574 0.72119 0.0
O107 O 0.68441 0.89212 0.71812 0.0
O108 O 0.51897 0.68119 0.72938 0.0
O109 O 0.64332 0.74002 0.73493 0.0
O110 O 0.47719 0.76825 0.70387 0.0
O111 O 0.38762 0.63474 0.71894 0.0
H112 H 0.4989 0.56055 0.83442 0.0
H113 H 0.49778 0.57939 0.89239 0.0
H114 H 0.23463 0.44261 0.8933 0.0
H115 H 0.23509 0.42909 0.83462 0.0
H116 H 0.54897 0.87909 0.65744 0.0
H117 H 0.57385 0.9286 0.60137 0.0
H118 H 0.82007 0.10896 0.6254 0.0
H119 H 0.79447 0.06056 0.68164 0.0
Tb120 Tb 0.78908 0.47152 0.09296 0.0
Tb121 Tb 0.78879 0.62671 0.07176 0.0
C122 C 0.83442 0.38269 0.11985 0.0
C123 C 0.81355 0.35557 0.15334 0.0
C124 C 0.87267 0.35885 0.17454 0.0
C125 C 0.85468 0.34503 0.20745 0.0
C126 C 0.77773 0.32826 0.21909 0.0
C127 C 0.71886 0.32474 0.19796 0.0
C128 C 0.73676 0.33886 0.16538 0.0
C129 C 0.64435 0.45436 0.09279 0.0
C130 C 0.82036 0.61179 0.14552 0.0
C131 C 0.73952 0.71302 0.04284 0.0
C132 C 0.72269 0.72485 1.00845 0.0
C133 C 0.64187 0.69479 0.99799 0.0
C134 C 0.62516 0.70653 0.966 0.0
C135 C 0.68895 0.74948 0.94363 0.0
C136 C 0.76972 0.78003 0.954 0.0
C137 C 0.78641 0.76784 0.98591 0.0
C138 C 0.93035 0.6317 0.06885 0.0
C139 C 0.75841 0.48393 1.02066 0.0
O140 O 0.88191 0.46186 0.11635 0.0
O141 O 0.77234 0.35346 0.10021 0.0
O142 O 0.70879 0.52006 0.10007 0.0
O143 O 0.65926 0.3941 0.09085 0.0
O144 O 0.80847 0.53762 0.13861 0.0
O145 O 0.81085 0.65794 0.12327 0.0
O146 O 0.69048 0.6419 0.0564 0.0
O147 O 0.81566 0.74005 0.051 0.0
O148 O 0.86168 0.57263 0.06285 0.0
O149 O 0.92374 0.69626 0.07485 0.0
O150 O 0.76188 0.55476 1.02731 0.0
O151 O 0.77425 0.44256 0.04248 0.0
H152 H 0.93274 0.37365 0.16577 0.0
H153 H 0.9002 0.34707 0.22378 0.0
H154 H 0.65921 0.31138 0.20678 0.0
H155 H 0.69087 0.33862 0.14973 0.0
H156 H 0.59139 0.6624 1.01468 0.0
H157 H 0.56233 0.68214 0.9587 0.0
H158 H 0.82004 0.81318 0.93728 0.0
H159 H 0.84945 0.79239 0.99289 0.0
Tb160 Tb 0.25886 0.77027 0.43405 0.0
Tb161 Tb 0.1374 0.81742 0.40684 0.0
C162 C 0.36796 0.76125 0.46503 0.0
C163 C 0.36791 0.73649 0.49852 0.0
C164 C 0.43896 0.77686 0.51683 0.0
C165 C 0.43615 0.7603 0.54978 0.0
C166 C 0.36225 0.70327 0.56455 0.0
C167 C 0.29175 0.6615 0.5461 0.0
C168 C 0.29453 0.67811 0.51328 0.0
C169 C 0.11551 0.64655 0.42138 0.0
C170 C 0.16443 0.83607 0.48102 0.0
C171 C 0.02321 0.81195 0.37323 0.0
C172 C -0.00898 0.78462 0.34002 0.0
C173 C 0.90769 0.72838 0.33554 0.0
C174 C 0.87616 0.70245 0.3045 0.0
C175 C 0.92718 0.73247 0.27714 0.0
C176 C 0.01042 0.78888 0.28155 0.0
C177 C 0.04192 0.81472 0.31254 0.0
C178 C 0.28769 0.93631 0.41642 0.0
C179 C 0.24429 0.76916 0.3605 0.0
O180 O 0.36525 0.82916 0.46144 0.0
O181 O 0.3172 0.70335 0.44601 0.0
O182 O 0.12778 0.71378 0.43327 0.0
O183 O 0.18304 0.64493 0.4201 0.0
O184 O 0.22301 0.81674 0.47653 0.0
O185 O 0.11498 0.83147 0.45747 0.0
O186 O 0.01296 0.75489 0.39407 0.0
O187 O 0.09541 0.87699 0.37571 0.0
O188 O 0.2645 0.86584 0.40662 0.0
O189 O 0.22536 0.94833 0.41752 0.0
O190 O 0.17498 0.76959 0.36556 0.0
O191 O 0.29719 0.78501 0.38389 0.0
H192 H 0.49569 0.82301 0.5059 0.0
H193 H 0.49078 0.79379 0.56396 0.0
H194 H 0.23413 0.61839 0.55734 0.0
H195 H 0.23875 0.64729 0.49966 0.0
H196 H 0.86688 0.70401 0.35615 0.0
H197 H 0.81215 0.65789 0.30186 0.0
H198 H 0.05139 0.81202 0.26095 0.0
H199 H 0.1063 0.85798 0.31494 0.0
Tb200 Tb 0.50559 0.23006 0.7645 0.0
Tb201 Tb 0.33815 0.17027 0.73786 0.0
C202 C 0.64026 0.30597 0.79208 0.0
C203 C 0.66248 0.32659 0.82557 0.0
C204 C 0.60838 0.27876 0.85023 0.0
C205 C 0.62628 0.3028 0.88209 0.0
C206 C 0.69835 0.37466 0.88942 0.0
C207 C 0.75326 0.42176 0.86492 0.0
C208 C 0.7352 0.39776 0.83297 0.0
C209 C 0.42299 0.07182 0.75561 0.0
C210 C 0.35438 0.19879 0.81274 0.0
C211 C 0.21419 0.08603 0.70317 0.0
C212 C 0.20124 0.0443 0.67125 0.0
C213 C 0.26236 0.0328 0.65638 0.0
C214 C 0.2505 -0.00424 0.62617 0.0
C215 C 0.1771 0.96923 0.60971 0.0
C216 C 0.11539 0.98011 0.62432 0.0
C217 C 0.12738 0.01719 0.65476 0.0
C218 C 0.42751 0.33084 0.74369 0.0
C219 C 0.49048 0.20863 0.69155 0.0
O220 O 0.60293 0.34194 0.77914 0.0
O221 O 0.60537 0.22792 0.7853 0.0
O222 O 0.39406 0.11553 0.76621 0.0
O223 O 0.50037 0.11746 0.75013 0.0
O224 O 0.43329 0.22304 0.80819 0.0
O225 O 0.30279 0.17241 0.78813 0.0
O226 O 0.23564 0.05589 0.72734 0.0
O227 O 0.2558 0.16614 0.70277 0.0
O228 O 0.45089 0.2815 0.73542 0.0
O229 O 0.34821 0.29093 0.74594 0.0
O230 O 0.41138 0.16655 0.6973 0.0
O231 O 0.54242 0.24916 0.71444 0.0
H232 H 0.55158 0.22397 0.84484 0.0
H233 H 0.58337 0.26652 0.90095 0.0
H234 H 0.80885 0.47774 0.87053 0.0
H235 H 0.77687 0.43551 0.81404 0.0
H236 H 0.31991 0.05234 0.66766 0.0
H237 H 0.29924 -0.01141 0.61544 0.0
H238 H 0.05823 0.96046 0.61204 0.0
H239 H 0.07905 0.02526 0.66532 0.0
C240 C 0.27845 0.69464 0.31872 0.0
C241 C 0.26641 0.76124 0.32715 0.0
C242 C 0.28202 0.80549 0.27075 0.0
C243 C 0.29615 0.74023 0.26247 0.0
N244 N 0.31927 0.62922 0.27796 0.0
N245 N 0.26882 0.88737 0.31269 0.0
C246 C 0.29846 0.68711 0.28635 0.0
C247 C 0.27159 0.81876 0.30357 0.0
N248 N 0.26582 0.63594 0.34123 0.0
N249 N 0.27644 0.85341 0.24705 0.0
H250 H 0.25843 0.89818 0.33634 0.0
H251 H 0.2822 0.93657 0.29737 0.0
H252 H 0.28955 0.84954 0.22289 0.0
H253 H 0.2547 0.89413 0.2509 0.0
H254 H 0.26388 0.58082 0.33587 0.0
H255 H 0.25121 0.63929 0.3652 0.0
H256 H 0.33114 0.5948 0.29458 0.0
H257 H 0.33028 0.61909 0.25423 0.0
C258 C 0.53842 0.29452 0.64188 0.0
C259 C 0.51712 0.21919 0.65763 0.0
C260 C 0.51705 0.15675 0.60589 0.0
C261 C 0.52873 0.22907 0.59007 0.0
N262 N 0.53712 0.36162 0.59219 0.0
N263 N 0.48222 0.07716 0.65545 0.0
C264 C 0.53623 0.29678 0.60784 0.0
C265 C 0.50548 0.14983 0.63984 0.0
N266 N 0.56043 0.36394 0.65932 0.0
N267 N 0.51931 0.09595 0.58857 0.0
H268 H 0.47858 0.07142 0.6805 0.0
H269 H 0.46284 0.0219 0.64362 0.0
H270 H 0.52758 0.09898 0.56364 0.0
H271 H 0.51962 0.04549 0.59897 0.0
H272 H 0.58492 0.42214 0.64899 0.0
H273 H 0.56124 0.36524 0.68435 0.0
H274 H 0.53278 0.40831 0.60395 0.0
H275 H 0.53431 0.36507 0.5672 0.0
C276 C 0.39413 0.52385 0.98757 0.0
C277 C 0.3387 0.55022 0.99683 0.0
C278 C 0.32655 0.58014 0.94052 0.0
C279 C 0.36488 0.53415 0.93128 0.0
N280 N 0.43015 0.45612 0.94683 0.0
N281 N 0.25294 0.60714 0.98248 0.0
C282 C 0.39881 0.50557 0.95496 0.0
C283 C 0.30622 0.58108 0.97348 0.0
N284 N 0.44214 0.51636 1.0102 0.0
N285 N 0.31061 0.62337 0.9179 0.0
H286 H 0.23969 0.61196 1.00651 0.0
H287 H 0.21934 0.62045 0.96611 0.0
H288 H 0.32684 0.62551 0.8937 0.0
H289 H 0.28899 0.66337 0.92363 0.0
H290 H 0.48798 0.50254 1.0046 0.0
H291 H 0.44175 0.53346 0.03403 0.0
H292 H 0.44393 0.42435 0.96404 0.0
H293 H 0.43436 0.44015 0.9232 0.0
C294 C 0.74953 0.35043 0.30828 0.0
C295 C 0.71628 0.26767 0.31831 0.0
C296 C 0.72128 0.22513 0.26319 0.0
C297 C 0.75542 0.30788 0.25317 0.0
N298 N 0.78633 0.44666 0.26367 0.0
N299 N 0.65366 0.12455 0.30544 0.0
C300 C 0.76451 0.36987 0.27497 0.0
C301 C 0.69648 0.20451 0.29564 0.0
N302 N 0.77012 0.41048 0.33069 0.0
N303 N 0.71514 0.16681 0.2419 0.0
H304 H 0.63755 0.1086 0.32942 0.0
H305 H 0.62913 0.07483 0.2899 0.0
H306 H 0.73034 0.17893 0.21753 0.0
H307 H 0.70032 0.10748 0.24863 0.0
H308 H 0.80437 0.47289 0.32545 0.0
H309 H 0.75595 0.39754 0.35506 0.0
H310 H 0.78636 0.49246 0.27777 0.0
H311 H 0.79909 0.46303 0.23942 0.0
C312 C 0.34366 0.61582 0.64889 0.0
C313 C 0.36863 0.68798 0.66726 0.0
C314 C 0.35783 0.75732 0.61872 0.0
C315 C 0.35674 0.69407 0.59993 0.0
N316 N 0.35041 0.56255 0.59668 0.0
N317 N 0.38954 0.82628 0.66975 0.0
C318 C 0.34942 0.62268 0.61484 0.0
C319 C 0.37142 0.75801 0.65225 0.0
N320 N 0.31144 0.5407 0.66346 0.0
N321 N 0.34515 0.8161 0.60452 0.0
H322 H 0.39569 0.82849 0.69456 0.0
H323 H 0.40294 0.88233 0.65951 0.0
H324 H 0.33501 0.81718 0.57991 0.0
H325 H 0.33671 0.85895 0.61741 0.0
H326 H 0.29571 0.53121 0.68776 0.0
H327 H 0.28853 0.48626 0.65061 0.0
H328 H 0.35433 0.51355 0.60672 0.0
H329 H 0.35391 0.56514 0.57159 0.0
C330 C 0.78925 0.42197 0.97251 0.0
C331 C 0.74261 0.45448 0.98712 0.0
C332 C 0.67378 0.44269 0.93599 0.0
C333 C 0.71423 0.40271 0.92284 0.0
N334 N 0.7981 0.33974 0.92959 0.0
N335 N 0.62923 0.48126 0.9842 0.0
C336 C 0.76809 0.38776 0.94143 0.0
C337 C 0.6817 0.46096 0.96925 0.0
N338 N 0.85674 0.42795 0.98717 0.0
N339 N 0.62833 0.46354 0.91656 0.0
H340 H 0.62824 0.49007 1.00887 0.0
H341 H 0.58093 0.48199 0.97268 0.0
H342 H 0.62225 0.4519 0.89191 0.0
H343 H 0.60217 0.49842 0.924 0.0
H344 H 0.89735 0.41339 0.97575 0.0
H345 H 0.87811 0.45574 1.00926 0.0
H346 H 0.82979 0.3187 0.94362 0.0
H347 H 0.78529 0.31491 0.90652 0.0
C348 C 0.42538 0.38934 0.07188 0.0
C349 C 0.40366 0.4221 0.09828 0.0
C350 C 0.53321 0.45987 0.12464 0.0
C351 C 0.55989 0.43903 0.09588 0.0
N352 N 0.52496 0.36159 0.0463 0.0
N353 N 0.42377 0.46922 0.15271 0.0
C354 C 0.50357 0.39576 0.07096 0.0
C355 C 0.4534 0.4502 0.12587 0.0
N356 N 0.37305 0.35755 0.0467 0.0
N357 N 0.5833 0.48654 0.15078 0.0
H358 H 0.36393 0.45866 0.15402 0.0
H359 H 0.45587 0.49251 0.17386 0.0
H360 H 0.63856 0.4865 0.15172 0.0
H361 H 0.56988 0.50599 0.17221 0.0
H362 H 0.38726 0.34146 1.02463 0.0
H363 H 0.31482 0.35025 0.04774 0.0
H364 H 0.48415 0.32169 1.02952 0.0
H365 H 0.5833 0.36965 0.043 0.0
C366 C 0.00043 0.53616 0.39247 0.0
C367 C 0.03826 0.5687 0.42223 0.0
C368 C 0.95625 0.43389 0.44793 0.0
C369 C 0.91963 0.40248 0.41784 0.0
N370 N 0.92944 0.41439 0.36037 0.0
N371 N 0.06183 0.54755 0.47756 0.0
C372 C 0.94914 0.45092 0.38974 0.0
C373 C 0.01881 0.51719 0.44987 0.0
N374 N 0.01188 0.5869 0.36698 0.0
N375 N 0.93051 0.38424 0.4745 0.0
H376 H 0.10485 0.60925 0.48013 0.0
H377 H 0.0575 0.51166 0.49746 0.0
H378 H 0.89416 0.32094 0.4727 0.0
H379 H 0.94554 0.4052 0.49799 0.0
H380 H -0.01985 0.56702 0.34546 0.0
H381 H 0.04559 0.65013 0.36896 0.0
H382 H 0.95378 0.44552 0.33872 0.0
H383 H 0.89729 0.35091 0.35832 0.0
C384 C 0.42747 0.97332 0.79465 0.0
C385 C 0.39346 -0.01304 0.76645 0.0
C386 C 0.33764 0.84372 0.75153 0.0
C387 C 0.38909 0.83698 0.77471 0.0
N388 N 0.44662 0.87625 0.82722 0.0
N389 N 0.31487 0.93626 0.71828 0.0
C390 C 0.42356 0.89633 0.79908 0.0
C391 C 0.34604 0.92179 0.74547 0.0
N392 N 0.46723 0.03552 0.81607 0.0
N393 N 0.2809 0.77658 0.73535 0.0
H394 H 0.32014 -0.0069 0.71363 0.0
H395 H 0.28908 0.89432 0.69967 0.0
H396 H 0.27342 0.71812 0.73789 0.0
H397 H 0.23646 0.77776 0.72091 0.0
H398 H 0.50268 0.03374 0.83483 0.0
H399 H 0.46608 0.09049 0.81451 0.0
H400 H 0.46473 0.9134 0.84746 0.0
H401 H 0.43968 0.81814 0.83135 0.0
C402 C 0.59318 0.55353 0.74846 0.0
C403 C 0.57037 0.58868 0.72368 0.0
C404 C 0.46832 0.45108 0.70611 0.0
C405 C 0.47678 0.4196 0.73617 0.0
N406 N 0.54118 0.44545 0.78799 0.0
N407 N 0.50041 0.57279 0.67403 0.0
C408 C 0.53886 0.47161 0.75764 0.0
C409 C 0.51274 0.53749 0.70066 0.0
N410 N 0.66644 0.59807 0.76302 0.0
N411 N 0.41854 0.39875 0.68309 0.0
H412 H 0.53607 0.63554 0.66923 0.0
H413 H 0.45608 0.54109 0.65689 0.0
H414 H 0.38568 0.33535 0.68645 0.0
H415 H 0.41376 0.41694 0.6599 0.0
H416 H 0.68841 0.57256 0.77992 0.0
H417 H 0.70812 0.65727 0.75512 0.0
H418 H 0.58057 0.48381 0.8056 0.0
H419 H 0.49797 0.38731 0.79592 0.0
C420 C 0.0566 0.55301 0.09797 0.0
C421 C 0.06535 0.5154 0.06998 0.0
C422 C 0.01769 0.59265 0.03743 0.0
C423 C 0.00501 0.62527 0.06615 0.0
N424 N 0.05055 0.66992 0.11948 0.0
N425 N 0.06713 0.50801 1.01203 0.0
C426 C 0.03838 0.61732 0.09496 0.0
C427 C 0.05127 0.53903 0.03915 0.0
N428 N 0.05761 0.52193 0.12748 0.0
N429 N -0.0045 0.61231 1.00895 0.0
H430 H 0.08855 0.46619 1.01286 0.0
H431 H 0.06147 0.52489 0.98873 0.0
H432 H 0.97335 0.65361 1.00799 0.0
H433 H -0.00106 0.58897 0.98669 0.0
H434 H 0.04351 0.54239 0.14854 0.0
H435 H 0.06159 0.4687 0.13007 0.0
H436 H 0.08125 0.67082 0.14039 0.0
H437 H 0.0361 0.71684 0.11721 0.0
C438 C 0.41403 0.01199 0.38664 0.0
C439 C 0.37519 -0.00343 0.41687 0.0
C440 C 0.49822 0.00918 0.44223 0.0
C441 C 0.53305 0.01624 0.41113 0.0
N442 N 0.51064 -0.00651 0.35455 0.0
N443 N 0.38163 -0.00635 0.4742 0.0
C444 C 0.48714 0.00922 0.38352 0.0
C445 C 0.41843 0.00022 0.44506 0.0
N446 N 0.37964 0.02792 0.36086 0.0
N447 N 0.54083 0.00913 0.46859 0.0
H448 H 0.325 -0.009 0.47582 0.0
H449 H 0.40705 -0.0064 0.49633 0.0
H450 H 0.59463 0.0067 0.46623 0.0
H451 H 0.522 0.00752 0.4923 0.0
H452 H 0.40836 0.04528 0.33837 0.0
H453 H 0.32598 0.0311 0.36332 0.0
H454 H 0.47579 0.98127 0.3338 0.0
H455 H 0.56023 0.98317 0.35264 0.0
C456 C 0.37226 0.25446 0.8713 0.0
C457 C 0.32228 0.19832 0.84688 0.0
C458 C 0.20461 0.15174 0.88469 0.0
C459 C 0.2562 0.20312 0.90927 0.0
N460 N 0.39349 0.27973 0.92854 0.0
N461 N 0.19594 0.07185 0.8378 0.0
C462 C 0.34125 0.24698 0.90334 0.0
C463 C 0.23967 0.14077 0.85565 0.0
N464 N 0.44793 0.31837 0.86438 0.0
N465 N 0.12192 0.11357 0.88873 0.0
H466 H 0.22169 0.055 0.8191 0.0
H467 H 0.13793 0.02546 0.84458 0.0
H468 H 0.09416 0.11931 0.90964 0.0
H469 H 0.08146 0.0821 0.87025 0.0
H470 H 0.47997 0.36565 0.88058 0.0
H471 H 0.47594 0.32984 0.84208 0.0
H472 H 0.45654 0.30501 0.92602 0.0
H473 H 0.3732 0.27404 0.95235 0.0
C474 C 0.05067 0.22302 0.21706 0.0
C475 C 0.03588 0.2694 0.24043 0.0
C476 C 0.09271 0.38705 0.2025 0.0
C477 C 0.11215 0.3422 0.17928 0.0
N478 N 0.1321 0.22553 0.17116 0.0
N479 N 0.05834 0.40101 0.25781 0.0
C480 C 0.09691 0.26215 0.1884 0.0
C481 C 0.06145 0.35284 0.23377 0.0
N482 N 0.02005 0.14092 0.22208 0.0
N483 N 0.10102 0.46166 0.19495 0.0
H484 H 0.03366 0.37833 0.28059 0.0
H485 H 0.08635 0.46468 0.25613 0.0
H486 H 0.13163 0.49566 0.17486 0.0
H487 H 0.07362 0.48882 0.20823 0.0
H488 H 0.02062 0.10182 0.20444 0.0
H489 H -0.0121 0.11079 0.24295 0.0
H490 H 0.12931 0.17081 0.17824 0.0
H491 H 0.17328 0.2548 0.15229 0.0
C492 C 0.72346 0.13295 0.56759 0.0
C493 C 0.71425 0.05464 0.57469 0.0
C494 C 0.72649 0.03406 0.51655 0.0
C495 C 0.74067 0.11476 0.50953 0.0
N496 N 0.77083 0.24701 0.53015 0.0
N497 N 0.72342 0.93754 0.55661 0.0
C498 C 0.7443 0.16577 0.53562 0.0
C499 C 0.72064 0.00731 0.54933 0.0
N500 N 0.70931 0.17518 0.59121 0.0
N501 N 0.71419 0.9808 0.49208 0.0
H502 H 0.71899 0.91586 0.58013 0.0
H503 H 0.73748 0.90524 0.53977 0.0
H504 H 0.71825 -0.00335 0.46786 0.0
H505 H 0.69292 0.91848 0.49574 0.0
H506 H 0.70611 0.22826 0.58688 0.0
H507 H 0.69305 0.15323 0.61475 0.0
H508 H 0.78508 0.28945 0.54853 0.0
H509 H 0.78618 0.27392 0.50739 0.0
C510 C 0.66367 0.72566 0.8518 0.0
C511 C 0.63066 0.77728 0.84433 0.0
C512 C 0.64948 0.82194 0.90114 0.0
C513 C 0.6713 0.76129 0.9092 0.0
N514 N 0.69618 0.65268 0.89223 0.0
N515 N 0.59953 0.88139 0.86097 0.0
C516 C 0.67815 0.71287 0.88445 0.0
C517 C 0.62642 0.82802 0.86875 0.0
N518 N 0.68513 0.69207 0.82716 0.0
N519 N 0.65293 0.875 0.92438 0.0
H520 H 0.59102 0.89305 0.83719 0.0
H521 H 0.58499 0.91345 0.87769 0.0
H522 H 0.66915 0.87188 0.9481 0.0
H523 H 0.64477 0.92518 0.92009 0.0
H524 H 0.71661 0.65989 0.83016 0.0
H525 H 0.67988 0.70566 0.80326 0.0
H526 H 0.69278 0.60901 0.87598 0.0
H527 H 0.7092 0.64261 0.91563 0.0
C528 C 0.84505 0.72241 0.22694 0.0
C529 C 0.89573 0.69932 0.24415 0.0
C530 C 0.90124 0.62434 0.19669 0.0
C531 C 0.84534 0.64197 0.17979 0.0
N532 N 0.74773 0.68998 0.18382 0.0
N533 N 0.95473 0.61126 0.248 0.0
C534 C 0.81283 0.68634 0.19628 0.0
C535 C 0.91822 0.64495 0.22979 0.0
N536 N 0.8288 0.78009 0.23955 0.0
N537 N 0.94246 0.59187 0.18098 0.0
H538 H 0.96824 0.62453 0.27229 0.0
H539 H 0.96351 0.56344 0.24006 0.0
H540 H 0.93632 0.57852 0.15669 0.0
H541 H -0.00972 0.58707 0.19123 0.0
H542 H 0.79988 0.80617 0.22667 0.0
H543 H 0.85021 0.80672 0.26195 0.0
H544 H 0.71661 0.71457 0.19624 0.0
H545 H 0.71863 0.66 0.16281 0.0
C546 C 0.17901 0.98185 0.54899 0.0
C547 C 0.16675 0.93258 0.57675 0.0
C548 C 0.14898 0.8185 0.54193 0.0
C549 C 0.15732 0.86646 0.51391 0.0
N550 N 0.16761 -0.00934 0.49132 0.0
N551 N 0.12972 0.80101 0.60006 0.0
C552 C 0.16786 0.94686 0.51764 0.0
C553 C 0.14891 0.85003 0.57328 0.0
N554 N 0.2058 0.06377 0.55251 0.0
N555 N 0.14131 0.74251 0.53859 0.0
H556 H 0.12991 0.82223 0.62326 0.0
H557 H 0.10791 0.73811 0.59936 0.0
H558 H 0.13192 0.71353 0.51646 0.0
H559 H 0.14722 0.70924 0.55749 0.0
H560 H 0.22697 0.10571 0.53348 0.0
H561 H 0.21353 0.09158 0.57489 0.0
H562 H 0.16412 0.0443 0.49281 0.0
H563 H 0.16468 0.97104 0.46781 0.0
loop_
_geom_bond_atom_site_label_1
_geom_bond_atom_site_label_2
_geom_bond_distance
_geom_bond_site_symmetry_2
_ccdc_geom_bond_type
Tb0 C2 2.809 . S
Tb0 O20 2.484 . S
Tb0 O21 2.440 . S
Tb0 O22 2.658 . S
Tb0 O23 2.409 . S
Tb0 O24 2.378 . S
Tb0 O28 2.325 . S
Tb0 O31 2.341 . S
Tb1 C11 2.809 1_554 S
Tb1 O22 2.325 . S
Tb1 O25 2.341 . S
Tb1 O26 2.484 1_554 S
Tb1 O27 2.440 1_554 S
Tb1 O28 2.658 . S
Tb1 O29 2.409 . S
Tb1 O30 2.378 1_554 S
C2 Tb0 2.809 . S
C2 C3 1.514 . S
C2 O20 1.248 . S
C2 O21 1.266 . S
C3 C2 1.514 . S
C3 C4 1.359 . S
C3 C8 1.348 . S
C4 C3 1.359 . S
C4 C5 1.380 . S
C4 H32 0.929 . S
C5 C4 1.380 . S
C5 C6 1.347 . S
C5 H33 0.931 . S
C6 C5 1.347 . S
C6 C7 1.369 . S
C7 C6 1.369 . S
C7 C8 1.408 . S
C7 H34 0.930 . S
C8 C3 1.348 . S
C8 C7 1.408 . S
C8 H35 0.930 . S
C9 O22 1.281 . S
C9 O23 1.254 . S
C10 O24 1.236 . S
C10 O25 1.266 . S
C11 Tb1 2.809 1_556 S
C11 C12 1.514 . S
C11 O26 1.248 . S
C11 O27 1.266 . S
C12 C11 1.514 . S
C12 C13 1.359 . S
C12 C17 1.348 . S
C13 C12 1.359 . S
C13 C14 1.380 . S
C13 H36 0.929 . S
C14 C13 1.380 . S
C14 C15 1.347 . S
C14 H37 0.931 . S
C15 C14 1.347 . S
C15 C16 1.369 . S
C16 C15 1.369 . S
C16 C17 1.408 . S
C16 H38 0.930 . S
C17 C12 1.348 . S
C17 C16 1.408 . S
C17 H39 0.930 . S
C18 O28 1.281 . S
C18 O29 1.254 . S
C19 O30 1.236 . S
C19 O31 1.266 1_556 S
O20 Tb0 2.484 . S
O20 C2 1.248 . S
O21 Tb0 2.440 . S
O21 C2 1.266 . S
O22 Tb0 2.658 . S
O22 Tb1 2.325 . S
O22 C9 1.281 . S
O23 Tb0 2.409 . S
O23 C9 1.254 . S
O24 Tb0 2.378 . S
O24 C10 1.236 . S
O25 Tb1 2.341 . S
O25 C10 1.266 . S
O26 Tb1 2.484 1_556 S
O26 C11 1.248 . S
O27 Tb1 2.440 1_556 S
O27 C11 1.266 . S
O28 Tb0 2.325 . S
O28 Tb1 2.658 . S
O28 C18 1.281 . S
O29 Tb1 2.409 . S
O29 C18 1.254 . S
O30 Tb1 2.378 1_556 S
O30 C19 1.236 . S
O31 Tb0 2.341 . S
O31 C19 1.266 1_554 S
H32 C4 0.929 . S
H33 C5 0.931 . S
H34 C7 0.930 . S
H35 C8 0.930 . S
H36 C13 0.929 . S
H37 C14 0.931 . S
H38 C16 0.930 . S
H39 C17 0.930 . S
Tb40 C42 2.809 . S
Tb40 O60 2.484 . S
Tb40 O61 2.440 . S
Tb40 O62 2.658 . S
Tb40 O63 2.409 . S
Tb40 O64 2.378 . S
Tb40 O68 2.325 . S
Tb40 O71 2.341 . S
Tb41 C51 2.809 . S
Tb41 O62 2.325 . S
Tb41 O65 2.341 . S
Tb41 O66 2.484 . S
Tb41 O67 2.440 . S
Tb41 O68 2.658 . S
Tb41 O69 2.409 . S
Tb41 O70 2.378 . S
C42 Tb40 2.809 . S
C42 C43 1.514 . S
C42 O60 1.248 . S
C42 O61 1.266 . S
C43 C42 1.514 . S
C43 C44 1.359 . S
C43 C48 1.348 . S
C44 C43 1.359 . S
C44 C45 1.380 . S
C44 H72 0.929 . S
C45 C44 1.380 . S
C45 C46 1.347 . S
C45 H73 0.931 . S
C46 C45 1.347 . S
C46 C47 1.369 . S
C47 C46 1.369 . S
C47 C48 1.408 . S
C47 H74 0.930 . S
C48 C43 1.348 . S
C48 C47 1.408 . S
C48 H75 0.930 . S
C49 O62 1.281 . S
C49 O63 1.254 . S
C50 O64 1.236 . S
C50 O65 1.266 . S
C51 Tb41 2.809 . S
C51 C52 1.514 . S
C51 O66 1.248 . S
C51 O67 1.266 . S
C52 C51 1.514 . S
C52 C53 1.359 1_655 S
C52 C57 1.348 . S
C53 C52 1.359 1_455 S
C53 C54 1.380 . S
C53 H76 0.929 . S
C54 C53 1.380 . S
C54 C55 1.347 . S
C54 H77 0.931 . S
C55 C54 1.347 . S
C55 C56 1.369 1_455 S
C56 C55 1.369 1_655 S
C56 C57 1.408 . S
C56 H78 0.930 . S
C57 C52 1.348 . S
C57 C56 1.408 . S
C57 H79 0.930 . S
C58 O68 1.281 . S
C58 O69 1.254 . S
C59 O70 1.236 . S
C59 O71 1.266 . S
O60 Tb40 2.484 . S
O60 C42 1.248 . S
O61 Tb40 2.440 . S
O61 C42 1.266 . S
O62 Tb40 2.658 . S
O62 Tb41 2.325 . S
O62 C49 1.281 . S
O63 Tb40 2.409 . S
O63 C49 1.254 . S
O64 Tb40 2.378 . S
O64 C50 1.236 . S
O65 Tb41 2.341 . S
O65 C50 1.266 . S
O66 Tb41 2.484 . S
O66 C51 1.248 . S
O67 Tb41 2.440 . S
O67 C51 1.266 . S
O68 Tb40 2.325 . S
O68 Tb41 2.658 . S
O68 C58 1.281 . S
O69 Tb41 2.409 . S
O69 C58 1.254 . S
O70 Tb41 2.378 . S
O70 C59 1.236 . S
O71 Tb40 2.341 . S
O71 C59 1.266 . S
H72 C44 0.929 . S
H73 C45 0.931 . S
H74 C47 0.930 . S
H75 C48 0.930 . S
H76 C53 0.929 . S
H77 C54 0.931 . S
H78 C56 0.930 . S
H79 C57 0.930 . S
Tb80 C82 2.809 . S
Tb80 O100 2.484 . S
Tb80 O101 2.440 . S
Tb80 O102 2.658 . S
Tb80 O103 2.409 . S
Tb80 O104 2.378 . S
Tb80 O108 2.325 . S
Tb80 O111 2.341 . S
Tb81 C91 2.809 . S
Tb81 O102 2.325 . S
Tb81 O105 2.341 . S
Tb81 O106 2.484 . S
Tb81 O107 2.440 . S
Tb81 O108 2.658 . S
Tb81 O109 2.409 . S
Tb81 O110 2.378 . S
C82 Tb80 2.809 . S
C82 C83 1.514 . S
C82 O100 1.248 . S
C82 O101 1.266 . S
C83 C82 1.514 . S
C83 C84 1.359 . S
C83 C88 1.348 . S
C84 C83 1.359 . S
C84 C85 1.380 . S
C84 H112 0.929 . S
C85 C84 1.380 . S
C85 C86 1.347 . S
C85 H113 0.931 . S
C86 C85 1.347 . S
C86 C87 1.369 . S
C87 C86 1.369 . S
C87 C88 1.408 . S
C87 H114 0.930 . S
C88 C83 1.348 . S
C88 C87 1.408 . S
C88 H115 0.930 . S
C89 O102 1.281 . S
C89 O103 1.254 . S
C90 O104 1.236 . S
C90 O105 1.266 . S
C91 Tb81 2.809 . S
C91 C92 1.514 . S
C91 O106 1.248 . S
C91 O107 1.266 . S
C92 C91 1.514 . S
C92 C93 1.359 1_565 S
C92 C97 1.348 . S
C93 C92 1.359 1_545 S
C93 C94 1.380 . S
C93 H116 0.929 . S
C94 C93 1.380 . S
C94 C95 1.347 . S
C94 H117 0.931 . S
C95 C94 1.347 . S
C95 C96 1.369 1_545 S
C96 C95 1.369 1_565 S
C96 C97 1.408 . S
C96 H118 0.930 . S
C97 C92 1.348 . S
C97 C96 1.408 . S
C97 H119 0.930 . S
C98 O108 1.281 . S
C98 O109 1.254 . S
C99 O110 1.236 . S
C99 O111 1.266 . S
O100 Tb80 2.484 . S
O100 C82 1.248 . S
O101 Tb80 2.440 . S
O101 C82 1.266 . S
O102 Tb80 2.658 . S
O102 Tb81 2.325 . S
O102 C89 1.281 . S
O103 Tb80 2.409 . S
O103 C89 1.254 . S
O104 Tb80 2.378 . S
O104 C90 1.236 . S
O105 Tb81 2.341 . S
O105 C90 1.266 . S
O106 Tb81 2.484 . S
O106 C91 1.248 . S
O107 Tb81 2.440 . S
O107 C91 1.266 . S
O108 Tb80 2.325 . S
O108 Tb81 2.658 . S
O108 C98 1.281 . S
O109 Tb81 2.409 . S
O109 C98 1.254 . S
O110 Tb81 2.378 . S
O110 C99 1.236 . S
O111 Tb80 2.341 . S
O111 C99 1.266 . S
H112 C84 0.929 . S
H113 C85 0.931 . S
H114 C87 0.930 . S
H115 C88 0.930 . S
H116 C93 0.929 . S
H117 C94 0.931 . S
H118 C96 0.930 . S
H119 C97 0.930 . S
Tb120 C122 2.809 . S
Tb120 O140 2.484 . S
Tb120 O141 2.440 . S
Tb120 O142 2.658 . S
Tb120 O143 2.409 . S
Tb120 O144 2.378 . S
Tb120 O148 2.325 . S
Tb120 O151 2.341 . S
Tb121 C131 2.809 1_554 S
Tb121 O142 2.325 . S
Tb121 O145 2.341 . S
Tb121 O146 2.484 1_554 S
Tb121 O147 2.440 1_554 S
Tb121 O148 2.658 . S
Tb121 O149 2.409 . S
Tb121 O150 2.378 1_554 S
C122 Tb120 2.809 . S
C122 C123 1.514 . S
C122 O140 1.248 . S
C122 O141 1.266 . S
C123 C122 1.514 . S
C123 C124 1.359 . S
C123 C128 1.348 . S
C124 C123 1.359 . S
C124 C125 1.380 . S
C124 H152 0.929 . S
C125 C124 1.380 . S
C125 C126 1.347 . S
C125 H153 0.931 . S
C126 C125 1.347 . S
C126 C127 1.369 . S
C127 C126 1.369 . S
C127 C128 1.408 . S
C127 H154 0.930 . S
C128 C123 1.348 . S
C128 C127 1.408 . S
C128 H155 0.930 . S
C129 O142 1.281 . S
C129 O143 1.254 . S
C130 O144 1.236 . S
C130 O145 1.266 . S
C131 Tb121 2.809 1_556 S
C131 C132 1.514 . S
C131 O146 1.248 . S
C131 O147 1.266 . S
C132 C131 1.514 . S
C132 C133 1.359 . S
C132 C137 1.348 . S
C133 C132 1.359 . S
C133 C134 1.380 . S
C133 H156 0.929 . S
C134 C133 1.380 . S
C134 C135 1.347 . S
C134 H157 0.931 . S
C135 C134 1.347 . S
C135 C136 1.369 . S
C136 C135 1.369 . S
C136 C137 1.408 . S
C136 H158 0.930 . S
C137 C132 1.348 . S
C137 C136 1.408 . S
C137 H159 0.930 . S
C138 O148 1.281 . S
C138 O149 1.254 . S
C139 O150 1.236 . S
C139 O151 1.266 1_556 S
O140 Tb120 2.484 . S
O140 C122 1.248 . S
O141 Tb120 2.440 . S
O141 C122 1.266 . S
O142 Tb120 2.658 . S
O142 Tb121 2.325 . S
O142 C129 1.281 . S
O143 Tb120 2.409 . S
O143 C129 1.254 . S
O144 Tb120 2.378 . S
O144 C130 1.236 . S
O145 Tb121 2.341 . S
O145 C130 1.266 . S
O146 Tb121 2.484 1_556 S
O146 C131 1.248 . S
O147 Tb121 2.440 1_556 S
O147 C131 1.266 . S
O148 Tb120 2.325 . S
O148 Tb121 2.658 . S
O148 C138 1.281 . S
O149 Tb121 2.409 . S
O149 C138 1.254 . S
O150 Tb121 2.378 1_556 S
O150 C139 1.236 . S
O151 Tb120 2.341 . S
O151 C139 1.266 1_554 S
H152 C124 0.929 . S
H153 C125 0.931 . S
H154 C127 0.930 . S
H155 C128 0.930 . S
H156 C133 0.929 . S
H157 C134 0.931 . S
H158 C136 0.930 . S
H159 C137 0.930 . S
Tb160 C162 2.809 . S
Tb160 O180 2.484 . S
Tb160 O181 2.440 . S
Tb160 O182 2.658 . S
Tb160 O183 2.409 . S
Tb160 O184 2.378 . S
Tb160 O188 2.325 . S
Tb160 O191 2.341 . S
Tb161 C171 2.809 . S
Tb161 O182 2.325 . S
Tb161 O185 2.341 . S
Tb161 O186 2.484 . S
Tb161 O187 2.440 . S
Tb161 O188 2.658 . S
Tb161 O189 2.409 . S
Tb161 O190 2.378 . S
C162 Tb160 2.809 . S
C162 C163 1.514 . S
C162 O180 1.248 . S
C162 O181 1.266 . S
C163 C162 1.514 . S
C163 C164 1.359 . S
C163 C168 1.348 . S
C164 C163 1.359 . S
C164 C165 1.380 . S
C164 H192 0.929 . S
C165 C164 1.380 . S
C165 C166 1.347 . S
C165 H193 0.931 . S
C166 C165 1.347 . S
C166 C167 1.369 . S
C167 C166 1.369 . S
C167 C168 1.408 . S
C167 H194 0.930 . S
C168 C163 1.348 . S
C168 C167 1.408 . S
C168 H195 0.930 . S
C169 O182 1.281 . S
C169 O183 1.254 . S
C170 O184 1.236 . S
C170 O185 1.266 . S
C171 Tb161 2.809 . S
C171 C172 1.514 . S
C171 O186 1.248 . S
C171 O187 1.266 . S
C172 C171 1.514 . S
C172 C173 1.359 1_455 S
C172 C177 1.348 . S
C173 C172 1.359 1_655 S
C173 C174 1.380 . S
C173 H196 0.929 . S
C174 C173 1.380 . S
C174 C175 1.347 . S
C174 H197 0.931 . S
C175 C174 1.347 . S
C175 C176 1.369 1_655 S
C176 C175 1.369 1_455 S
C176 C177 1.408 . S
C176 H198 0.930 . S
C177 C172 1.348 . S
C177 C176 1.408 . S
C177 H199 0.930 . S
C178 O188 1.281 . S
C178 O189 1.254 . S
C179 O190 1.236 . S
C179 O191 1.266 . S
O180 Tb160 2.484 . S
O180 C162 1.248 . S
O181 Tb160 2.440 . S
O181 C162 1.266 . S
O182 Tb160 2.658 . S
O182 Tb161 2.325 . S
O182 C169 1.281 . S
O183 Tb160 2.409 . S
O183 C169 1.254 . S
O184 Tb160 2.378 . S
O184 C170 1.236 . S
O185 Tb161 2.341 . S
O185 C170 1.266 . S
O186 Tb161 2.484 . S
O186 C171 1.248 . S
O187 Tb161 2.440 . S
O187 C171 1.266 . S
O188 Tb160 2.325 . S
O188 Tb161 2.658 . S
O188 C178 1.281 . S
O189 Tb161 2.409 . S
O189 C178 1.254 . S
O190 Tb161 2.378 . S
O190 C179 1.236 . S
O191 Tb160 2.341 . S
O191 C179 1.266 . S
H192 C164 0.929 . S
H193 C165 0.931 . S
H194 C167 0.930 . S
H195 C168 0.930 . S
H196 C173 0.929 . S
H197 C174 0.931 . S
H198 C176 0.930 . S
H199 C177 0.930 . S
Tb200 C202 2.809 . S
Tb200 O220 2.484 . S
Tb200 O221 2.440 . S
Tb200 O222 2.658 . S
Tb200 O223 2.409 . S
Tb200 O224 2.378 . S
Tb200 O228 2.325 . S
Tb200 O231 2.341 . S
Tb201 C211 2.809 . S
Tb201 O222 2.325 . S
Tb201 O225 2.341 . S
Tb201 O226 2.484 . S
Tb201 O227 2.440 . S
Tb201 O228 2.658 . S
Tb201 O229 2.409 . S
Tb201 O230 2.378 . S
C202 Tb200 2.809 . S
C202 C203 1.514 . S
C202 O220 1.248 . S
C202 O221 1.266 . S
C203 C202 1.514 . S
C203 C204 1.359 . S
C203 C208 1.348 . S
C204 C203 1.359 . S
C204 C205 1.380 . S
C204 H232 0.929 . S
C205 C204 1.380 . S
C205 C206 1.347 . S
C205 H233 0.931 . S
C206 C205 1.347 . S
C206 C207 1.369 . S
C207 C206 1.369 . S
C207 C208 1.408 . S
C207 H234 0.930 . S
C208 C203 1.348 . S
C208 C207 1.408 . S
C208 H235 0.930 . S
C209 O222 1.281 . S
C209 O223 1.254 . S
C210 O224 1.236 . S
C210 O225 1.266 . S
C211 Tb201 2.809 . S
C211 C212 1.514 . S
C211 O226 1.248 . S
C211 O227 1.266 . S
C212 C211 1.514 . S
C212 C213 1.359 1_545 S
C212 C217 1.348 . S
C213 C212 1.359 1_565 S
C213 C214 1.380 . S
C213 H236 0.929 . S
C214 C213 1.380 . S
C214 C215 1.347 . S
C214 H237 0.931 . S
C215 C214 1.347 . S
C215 C216 1.369 1_565 S
C216 C215 1.369 1_545 S
C216 C217 1.408 . S
C216 H238 0.930 . S
C217 C212 1.348 . S
C217 C216 1.408 . S
C217 H239 0.930 . S
C218 O228 1.281 . S
C218 O229 1.254 . S
C219 O230 1.236 . S
C219 O231 1.266 . S
O220 Tb200 2.484 . S
O220 C202 1.248 . S
O221 Tb200 2.440 . S
O221 C202 1.266 . S
O222 Tb200 2.658 . S
O222 Tb201 2.325 . S
O222 C209 1.281 . S
O223 Tb200 2.409 . S
O223 C209 1.254 . S
O224 Tb200 2.378 . S
O224 C210 1.236 . S
O225 Tb201 2.341 . S
O225 C210 1.266 . S
O226 Tb201 2.484 . S
O226 C211 1.248 . S
O227 Tb201 2.440 . S
O227 C211 1.266 . S
O228 Tb200 2.325 . S
O228 Tb201 2.658 . S
O228 C218 1.281 . S
O229 Tb201 2.409 . S
O229 C218 1.254 . S
O230 Tb201 2.378 . S
O230 C219 1.236 . S
O231 Tb200 2.341 . S
O231 C219 1.266 . S
H232 C204 0.929 . S
H233 C205 0.931 . S
H234 C207 0.930 . S
H235 C208 0.930 . S
H236 C213 0.929 . S
H237 C214 0.931 . S
H238 C216 0.930 . S
H239 C217 0.930 . S
C240 C241 1.363 . S
C240 C246 1.379 . S
C240 N248 1.356 . S
C241 C240 1.363 . S
C241 C247 1.363 . S
C242 C243 1.363 . S
C242 C247 1.379 . S
C242 N249 1.356 . S
C243 C242 1.363 . S
C243 C246 1.363 . S
N244 C246 1.356 . S
N244 H256 0.984 . S
N244 H257 0.985 . S
N245 C247 1.356 . S
N245 H250 0.984 . S
N245 H251 0.985 . S
C246 C240 1.379 . S
C246 C243 1.363 . S
C246 N244 1.356 . S
C247 C241 1.363 . S
C247 C242 1.379 . S
C247 N245 1.356 . S
N248 C240 1.356 . S
N248 H254 0.984 . S
N248 H255 0.984 . S
N249 C242 1.356 . S
N249 H252 0.984 . S
N249 H253 0.985 . S
H250 N245 0.984 . S
H251 N245 0.985 . S
H252 N249 0.984 . S
H253 N249 0.985 . S
H254 N248 0.984 . S
H255 N248 0.984 . S
H256 N244 0.984 . S
H257 N244 0.985 . S
C258 C259 1.363 . S
C258 C264 1.379 . S
C258 N266 1.356 . S
C259 C258 1.363 . S
C259 C265 1.363 . S
C260 C261 1.363 . S
C260 C265 1.379 . S
C260 N267 1.356 . S
C261 C260 1.363 . S
C261 C264 1.363 . S
N262 C264 1.356 . S
N262 H274 0.984 . S
N262 H275 0.985 . S
N263 C265 1.356 . S
N263 H268 0.984 . S
N263 H269 0.985 . S
C264 C258 1.379 . S
C264 C261 1.363 . S
C264 N262 1.356 . S
C265 C259 1.363 . S
C265 C260 1.379 . S
C265 N263 1.356 . S
N266 C258 1.356 . S
N266 H272 0.984 . S
N266 H273 0.984 . S
N267 C260 1.356 . S
N267 H270 0.984 . S
N267 H271 0.985 . S
H268 N263 0.984 . S
H269 N263 0.985 . S
H270 N267 0.984 . S
H271 N267 0.985 . S
H272 N266 0.984 . S
H273 N266 0.984 . S
H274 N262 0.984 . S
H275 N262 0.985 . S
C276 C277 1.363 . S
C276 C282 1.379 . S
C276 N284 1.356 . S
C277 C276 1.363 . S
C277 C283 1.363 . S
C278 C279 1.363 . S
C278 C283 1.379 . S
C278 N285 1.356 . S
C279 C278 1.363 . S
C279 C282 1.363 . S
N280 C282 1.356 . S
N280 H292 0.984 . S
N280 H293 0.985 . S
N281 C283 1.356 . S
N281 H286 0.984 1_556 S
N281 H287 0.985 . S
C282 C276 1.379 . S
C282 C279 1.363 . S
C282 N280 1.356 . S
C283 C277 1.363 . S
C283 C278 1.379 . S
C283 N281 1.356 . S
N284 C276 1.356 . S
N284 H290 0.984 . S
N284 H291 0.984 . S
N285 C278 1.356 . S
N285 H288 0.984 . S
N285 H289 0.985 . S
H286 N281 0.984 1_554 S
H287 N281 0.985 . S
H288 N285 0.984 . S
H289 N285 0.985 . S
H290 N284 0.984 . S
H291 N284 0.984 . S
H292 N280 0.984 . S
H293 N280 0.985 . S
C294 C295 1.363 . S
C294 C300 1.379 . S
C294 N302 1.356 . S
C295 C294 1.363 . S
C295 C301 1.363 . S
C296 C297 1.363 . S
C296 C301 1.379 . S
C296 N303 1.356 . S
C297 C296 1.363 . S
C297 C300 1.363 . S
N298 C300 1.356 . S
N298 H310 0.984 . S
N298 H311 0.985 . S
N299 C301 1.356 . S
N299 H304 0.984 . S
N299 H305 0.985 . S
C300 C294 1.379 . S
C300 C297 1.363 . S
C300 N298 1.356 . S
C301 C295 1.363 . S
C301 C296 1.379 . S
C301 N299 1.356 . S
N302 C294 1.356 . S
N302 H308 0.984 . S
N302 H309 0.984 . S
N303 C296 1.356 . S
N303 H306 0.984 . S
N303 H307 0.985 . S
H304 N299 0.984 . S
H305 N299 0.985 . S
H306 N303 0.984 . S
H307 N303 0.985 . S
H308 N302 0.984 . S
H309 N302 0.984 . S
H310 N298 0.984 . S
H311 N298 0.985 . S
C312 C313 1.363 . S
C312 C318 1.379 . S
C312 N320 1.356 . S
C313 C312 1.363 . S
C313 C319 1.363 . S
C314 C315 1.363 . S
C314 C319 1.379 . S
C314 N321 1.356 . S
C315 C314 1.363 . S
C315 C318 1.363 . S
N316 C318 1.356 . S
N316 H328 0.984 . S
N316 H329 0.985 . S
N317 C319 1.356 . S
N317 H322 0.984 . S
N317 H323 0.985 . S
C318 C312 1.379 . S
C318 C315 1.363 . S
C318 N316 1.356 . S
C319 C313 1.363 . S
C319 C314 1.379 . S
C319 N317 1.356 . S
N320 C312 1.356 . S
N320 H326 0.984 . S
N320 H327 0.984 . S
N321 C314 1.356 . S
N321 H324 0.984 . S
N321 H325 0.985 . S
H322 N317 0.984 . S
H323 N317 0.985 . S
H324 N321 0.984 . S
H325 N321 0.985 . S
H326 N320 0.984 . S
H327 N320 0.984 . S
H328 N316 0.984 . S
H329 N316 0.985 . S
C330 C331 1.363 . S
C330 C336 1.379 . S
C330 N338 1.356 . S
C331 C330 1.363 . S
C331 C337 1.363 . S
C332 C333 1.363 . S
C332 C337 1.379 . S
C332 N339 1.356 . S
C333 C332 1.363 . S
C333 C336 1.363 . S
N334 C336 1.356 . S
N334 H346 0.984 . S
N334 H347 0.985 . S
N335 C337 1.356 . S
N335 H340 0.984 . S
N335 H341 0.985 . S
C336 C330 1.379 . S
C336 C333 1.363 . S
C336 N334 1.356 . S
C337 C331 1.363 . S
C337 C332 1.379 . S
C337 N335 1.356 . S
N338 C330 1.356 . S
N338 H344 0.984 . S
N338 H345 0.984 1_556 S
N339 C332 1.356 . S
N339 H342 0.984 . S
N339 H343 0.985 . S
H340 N335 0.984 . S
H341 N335 0.985 . S
H342 N339 0.984 . S
H343 N339 0.985 . S
H344 N338 0.984 . S
H345 N338 0.984 1_554 S
H346 N334 0.984 . S
H347 N334 0.985 . S
C348 C349 1.363 . S
C348 C354 1.379 . S
C348 N356 1.356 . S
C349 C348 1.363 . S
C349 C355 1.363 . S
C350 C351 1.363 . S
C350 C355 1.379 . S
C350 N357 1.356 . S
C351 C350 1.363 . S
C351 C354 1.363 . S
N352 C354 1.356 . S
N352 H364 0.984 . S
N352 H365 0.985 . S
N353 C355 1.356 . S
N353 H358 0.984 . S
N353 H359 0.985 . S
C354 C348 1.379 . S
C354 C351 1.363 . S
C354 N352 1.356 . S
C355 C349 1.363 . S
C355 C350 1.379 . S
C355 N353 1.356 . S
N356 C348 1.356 . S
N356 H362 0.984 . S
N356 H363 0.984 . S
N357 C350 1.356 . S
N357 H360 0.984 . S
N357 H361 0.985 . S
H358 N353 0.984 . S
H359 N353 0.985 . S
H360 N357 0.984 . S
H361 N357 0.985 . S
H362 N356 0.984 . S
H363 N356 0.984 . S
H364 N352 0.984 . S
H365 N352 0.985 . S
C366 C367 1.363 1_655 S
C366 C372 1.379 . S
C366 N374 1.356 . S
C367 C366 1.363 1_455 S
C367 C373 1.363 . S
C368 C369 1.363 1_455 S
C368 C373 1.379 . S
C368 N375 1.356 . S
C369 C368 1.363 1_655 S
C369 C372 1.363 . S
N370 C372 1.356 . S
N370 H382 0.984 . S
N370 H383 0.985 . S
N371 C373 1.356 . S
N371 H376 0.984 . S
N371 H377 0.985 . S
C372 C366 1.379 . S
C372 C369 1.363 . S
C372 N370 1.356 . S
C373 C367 1.363 . S
C373 C368 1.379 . S
C373 N371 1.356 . S
N374 C366 1.356 . S
N374 H380 0.984 . S
N374 H381 0.984 . S
N375 C368 1.356 . S
N375 H378 0.984 . S
N375 H379 0.985 . S
H376 N371 0.984 . S
H377 N371 0.985 . S
H378 N375 0.984 . S
H379 N375 0.985 . S
H380 N374 0.984 . S
H381 N374 0.984 . S
H382 N370 0.984 . S
H383 N370 0.985 . S
C384 C385 1.363 . S
C384 C390 1.379 . S
C384 N392 1.356 . S
C385 C384 1.363 . S
C385 C391 1.363 1_545 S
C386 C387 1.363 . S
C386 C391 1.379 . S
C386 N393 1.356 . S
C387 C386 1.363 . S
C387 C390 1.363 1_565 S
N388 C390 1.356 . S
N388 H400 0.984 . S
N388 H401 0.985 . S
N389 C391 1.356 . S
N389 H394 0.984 . S
N389 H395 0.985 . S
C390 C384 1.379 . S
C390 C387 1.363 1_545 S
C390 N388 1.356 . S
C391 C385 1.363 1_565 S
C391 C386 1.379 . S
C391 N389 1.356 . S
N392 C384 1.356 . S
N392 H398 0.984 . S
N392 H399 0.984 . S
N393 C386 1.356 . S
N393 H396 0.984 . S
N393 H397 0.985 . S
H394 N389 0.984 . S
H395 N389 0.985 . S
H396 N393 0.984 . S
H397 N393 0.985 . S
H398 N392 0.984 . S
H399 N392 0.984 . S
H400 N388 0.984 . S
H401 N388 0.985 . S
C402 C403 1.363 . S
C402 C408 1.379 . S
C402 N410 1.356 . S
C403 C402 1.363 . S
C403 C409 1.363 . S
C404 C405 1.363 . S
C404 C409 1.379 . S
C404 N411 1.356 . S
C405 C404 1.363 . S
C405 C408 1.363 . S
N406 C408 1.356 . S
N406 H418 0.984 . S
N406 H419 0.985 . S
N407 C409 1.356 . S
N407 H412 0.984 . S
N407 H413 0.985 . S
C408 C402 1.379 . S
C408 C405 1.363 . S
C408 N406 1.356 . S
C409 C403 1.363 . S
C409 C404 1.379 . S
C409 N407 1.356 . S
N410 C402 1.356 . S
N410 H416 0.984 . S
N410 H417 0.984 . S
N411 C404 1.356 . S
N411 H414 0.984 . S
N411 H415 0.985 . S
H412 N407 0.984 . S
H413 N407 0.985 . S
H414 N411 0.984 . S
H415 N411 0.985 . S
H416 N410 0.984 . S
H417 N410 0.984 . S
H418 N406 0.984 . S
H419 N406 0.985 . S
C420 C421 1.363 1_655 S
C420 C426 1.379 . S
C420 N428 1.356 . S
C421 C420 1.363 1_455 S
C421 C427 1.363 . S
C422 C423 1.363 1_455 S
C422 C427 1.379 . S
C422 N429 1.356 . S
C423 C422 1.363 1_655 S
C423 C426 1.363 . S
N424 C426 1.356 . S
N424 H436 0.984 . S
N424 H437 0.985 . S
N425 C427 1.356 . S
N425 H430 0.984 . S
N425 H431 0.985 1_554 S
C426 C420 1.379 . S
C426 C423 1.363 . S
C426 N424 1.356 . S
C427 C421 1.363 . S
C427 C422 1.379 . S
C427 N425 1.356 . S
N428 C420 1.356 . S
N428 H434 0.984 . S
N428 H435 0.984 . S
N429 C422 1.356 . S
N429 H432 0.984 . S
N429 H433 0.985 1_554 S
H430 N425 0.984 . S
H431 N425 0.985 1_556 S
H432 N429 0.984 . S
H433 N429 0.985 1_556 S
H434 N428 0.984 . S
H435 N428 0.984 . S
H436 N424 0.984 . S
H437 N424 0.985 . S
C438 C439 1.363 . S
C438 C444 1.379 . S
C438 N446 1.356 . S
C439 C438 1.363 . S
C439 C445 1.363 1_565 S
C440 C441 1.363 . S
C440 C445 1.379 . S
C440 N447 1.356 . S
C441 C440 1.363 . S
C441 C444 1.363 1_545 S
N442 C444 1.356 . S
N442 H454 0.984 . S
N442 H455 0.985 . S
N443 C445 1.356 . S
N443 H448 0.984 . S
N443 H449 0.985 . S
C444 C438 1.379 . S
C444 C441 1.363 1_565 S
C444 N442 1.356 . S
C445 C439 1.363 1_545 S
C445 C440 1.379 . S
C445 N443 1.356 . S
N446 C438 1.356 . S
N446 H452 0.984 . S
N446 H453 0.984 . S
N447 C440 1.356 . S
N447 H450 0.984 . S
N447 H451 0.985 . S
H448 N443 0.984 . S
H449 N443 0.985 . S
H450 N447 0.984 . S
H451 N447 0.985 . S
H452 N446 0.984 . S
H453 N446 0.984 . S
H454 N442 0.984 . S
H455 N442 0.985 . S
C456 C457 1.363 . S
C456 C462 1.379 . S
C456 N464 1.356 . S
C457 C456 1.363 . S
C457 C463 1.363 . S
C458 C459 1.363 . S
C458 C463 1.379 . S
C458 N465 1.356 . S
C459 C458 1.363 . S
C459 C462 1.363 . S
N460 C462 1.356 . S
N460 H472 0.984 . S
N460 H473 0.985 . S
N461 C463 1.356 . S
N461 H466 0.984 . S
N461 H467 0.985 . S
C462 C456 1.379 . S
C462 C459 1.363 . S
C462 N460 1.356 . S
C463 C457 1.363 . S
C463 C458 1.379 . S
C463 N461 1.356 . S
N464 C456 1.356 . S
N464 H470 0.984 . S
N464 H471 0.984 . S
N465 C458 1.356 . S
N465 H468 0.984 . S
N465 H469 0.985 1_545 S
H466 N461 0.984 . S
H467 N461 0.985 . S
H468 N465 0.984 . S
H469 N465 0.985 1_565 S
H470 N464 0.984 . S
H471 N464 0.984 . S
H472 N460 0.984 . S
H473 N460 0.985 . S
C474 C475 1.363 . S
C474 C480 1.379 . S
C474 N482 1.356 . S
C475 C474 1.363 . S
C475 C481 1.363 . S
C476 C477 1.363 . S
C476 C481 1.379 . S
C476 N483 1.356 . S
C477 C476 1.363 . S
C477 C480 1.363 . S
N478 C480 1.356 . S
N478 H490 0.984 . S
N478 H491 0.985 . S
N479 C481 1.356 . S
N479 H484 0.984 . S
N479 H485 0.985 . S
C480 C474 1.379 . S
C480 C477 1.363 . S
C480 N478 1.356 . S
C481 C475 1.363 . S
C481 C476 1.379 . S
C481 N479 1.356 . S
N482 C474 1.356 . S
N482 H488 0.984 . S
N482 H489 0.984 . S
N483 C476 1.356 . S
N483 H486 0.984 . S
N483 H487 0.985 . S
H484 N479 0.984 . S
H485 N479 0.985 . S
H486 N483 0.984 . S
H487 N483 0.985 . S
H488 N482 0.984 . S
H489 N482 0.984 . S
H490 N478 0.984 . S
H491 N478 0.985 . S
C492 C493 1.363 . S
C492 C498 1.379 . S
C492 N500 1.356 . S
C493 C492 1.363 . S
C493 C499 1.363 . S
C494 C495 1.363 . S
C494 C499 1.379 . S
C494 N501 1.356 . S
C495 C494 1.363 . S
C495 C498 1.363 . S
N496 C498 1.356 . S
N496 H508 0.984 . S
N496 H509 0.985 . S
N497 C499 1.356 1_565 S
N497 H502 0.984 . S
N497 H503 0.985 . S
C498 C492 1.379 . S
C498 C495 1.363 . S
C498 N496 1.356 . S
C499 C493 1.363 . S
C499 C494 1.379 . S
C499 N497 1.356 1_545 S
N500 C492 1.356 . S
N500 H506 0.984 . S
N500 H507 0.984 . S
N501 C494 1.356 . S
N501 H504 0.984 . S
N501 H505 0.985 1_545 S
H502 N497 0.984 . S
H503 N497 0.985 . S
H504 N501 0.984 . S
H505 N501 0.985 1_565 S
H506 N500 0.984 . S
H507 N500 0.984 . S
H508 N496 0.984 . S
H509 N496 0.985 . S
C510 C511 1.363 . S
C510 C516 1.379 . S
C510 N518 1.356 . S
C511 C510 1.363 . S
C511 C517 1.363 . S
C512 C513 1.363 . S
C512 C517 1.379 . S
C512 N519 1.356 . S
C513 C512 1.363 . S
C513 C516 1.363 . S
N514 C516 1.356 . S
N514 H526 0.984 . S
N514 H527 0.985 . S
N515 C517 1.356 . S
N515 H520 0.984 . S
N515 H521 0.985 1_565 S
C516 C510 1.379 . S
C516 C513 1.363 . S
C516 N514 1.356 . S
C517 C511 1.363 . S
C517 C512 1.379 . S
C517 N515 1.356 . S
N518 C510 1.356 . S
N518 H524 0.984 . S
N518 H525 0.984 . S
N519 C512 1.356 . S
N519 H522 0.984 . S
N519 H523 0.985 1_565 S
H520 N515 0.984 . S
H521 N515 0.985 1_545 S
H522 N519 0.984 . S
H523 N519 0.985 1_545 S
H524 N518 0.984 . S
H525 N518 0.984 . S
H526 N514 0.984 . S
H527 N514 0.985 . S
C528 C529 1.363 . S
C528 C534 1.379 . S
C528 N536 1.356 . S
C529 C528 1.363 . S
C529 C535 1.363 . S
C530 C531 1.363 . S
C530 C535 1.379 . S
C530 N537 1.356 . S
C531 C530 1.363 . S
C531 C534 1.363 . S
N532 C534 1.356 . S
N532 H544 0.984 . S
N532 H545 0.985 . S
N533 C535 1.356 . S
N533 H538 0.984 . S
N533 H539 0.985 . S
C534 C528 1.379 . S
C534 C531 1.363 . S
C534 N532 1.356 . S
C535 C529 1.363 . S
C535 C530 1.379 . S
C535 N533 1.356 . S
N536 C528 1.356 . S
N536 H542 0.984 . S
N536 H543 0.984 . S
N537 C530 1.356 . S
N537 H540 0.984 . S
N537 H541 0.985 . S
H538 N533 0.984 . S
H539 N533 0.985 . S
H540 N537 0.984 . S
H541 N537 0.985 . S
H542 N536 0.984 . S
H543 N536 0.984 . S
H544 N532 0.984 . S
H545 N532 0.985 . S
C546 C547 1.363 . S
C546 C552 1.379 . S
C546 N554 1.356 1_565 S
C547 C546 1.363 . S
C547 C553 1.363 . S
C548 C549 1.363 . S
C548 C553 1.379 . S
C548 N555 1.356 . S
C549 C548 1.363 . S
C549 C552 1.363 . S
N550 C552 1.356 . S
N550 H562 0.984 1_565 S
N550 H563 0.985 . S
N551 C553 1.356 . S
N551 H556 0.984 . S
N551 H557 0.985 . S
C552 C546 1.379 . S
C552 C549 1.363 . S
C552 N550 1.356 . S
C553 C547 1.363 . S
C553 C548 1.379 . S
C553 N551 1.356 . S
N554 C546 1.356 1_545 S
N554 H560 0.984 . S
N554 H561 0.984 . S
N555 C548 1.356 . S
N555 H558 0.984 . S
N555 H559 0.985 . S
H556 N551 0.984 . S
H557 N551 0.985 . S
H558 N555 0.984 . S
H559 N555 0.985 . S
H560 N554 0.984 . S
H561 N554 0.984 . S
H562 N550 0.984 1_545 S
H563 N550 0.985 . S
C241 C179 1.241 . S
C243 C6 1.248 . S
C259 C219 1.241 . S
C261 C46 1.248 . S
C277 C19 1.241 . S
C279 C86 1.248 . S
C295 C59 1.241 . S
C297 C126 1.248 . S
C313 C99 1.241 . S
C315 C166 1.247 . S
C331 C139 1.241 . S
C333 C206 1.248 . S
C349 C9 1.149 . S
C351 C129 1.149 . S
C367 C169 1.150 . S
C369 C49 1.150 . S
C385 C209 1.148 . S
C387 C89 1.148 . S
C403 C98 1.447 . S
C405 C218 1.447 . S
C421 C18 1.446 . S
C423 C138 1.446 . S
C439 C178 1.448 . S
C441 C58 1.448 . S
C457 C210 1.382 . S
C459 C15 1.342 . S
C475 C55 1.342 . S
C477 C10 1.382 . S
C493 C95 1.342 . S
C495 C50 1.382 . S
C511 C90 1.382 . S
C513 C135 1.342 . S
C529 C175 1.342 . S
C531 C130 1.383 . S
C547 C215 1.341 . S
C549 C170 1.382 . S
