# Generated by pormake.
# Topology ilc, (8)-cn, num edge types: 1
# Building blocks:
#     Node 0, Type 0, BuildingBlock: NUHRAL_clean_sbu_3, # of connection points: 8
#     Node 1, Type 0, BuildingBlock: NUHRAL_clean_sbu_3, # of connection points: 8
#     Node 2, Type 0, BuildingBlock: NUHRAL_clean_sbu_3, # of connection points: 8
#     Edge 3, Type (0, 0), BuildingBlock: TEMPAE_clean_linker_10, # of connection points: 2
#     Edge 4, Type (0, 0), BuildingBlock: TEMPAE_clean_linker_10, # of connection points: 2
#     Edge 5, Type (0, 0), BuildingBlock: TEMPAE_clean_linker_10, # of connection points: 2
#     Edge 6, Type (0, 0), BuildingBlock: TEMPAE_clean_linker_10, # of connection points: 2
#     Edge 7, Type (0, 0), BuildingBlock: TEMPAE_clean_linker_10, # of connection points: 2
#     Edge 8, Type (0, 0), BuildingBlock: TEMPAE_clean_linker_10, # of connection points: 2
#     Edge 9, Type (0, 0), BuildingBlock: TEMPAE_clean_linker_10, # of connection points: 2
#     Edge 10, Type (0, 0), BuildingBlock: TEMPAE_clean_linker_10, # of connection points: 2
#     Edge 11, Type (0, 0), BuildingBlock: TEMPAE_clean_linker_10, # of connection points: 2
#     Edge 12, Type (0, 0), BuildingBlock: TEMPAE_clean_linker_10, # of connection points: 2
#     Edge 13, Type (0, 0), BuildingBlock: TEMPAE_clean_linker_10, # of connection points: 2
#     Edge 14, Type (0, 0), BuildingBlock: TEMPAE_clean_linker_10, # of connection points: 2
# Relax obj value: 0.163
# Max RMSD: 0.202
# Mean RMSD: 0.202
data_MOF--net-ilc--node1-NUHRAL_clean_sbu_3--edge1-TEMPAE_clean_linker_10
_symmetry_space_group_name_H-M    P1
_symmetry_Int_Tables_number       1
_symmetry_cell_setting            triclinic
loop_
_symmetry_equiv_pos_as_xyz
'x, y, z'
_cell_length_a     22.543205
_cell_length_b     30.890473
_cell_length_c     19.638722
_cell_angle_alpha  101.48905
_cell_angle_beta   73.928807
_cell_angle_gamma 141.65866
loop_
_atom_site_label
_atom_site_type_symbol
_atom_site_fract_x
_atom_site_fract_y
_atom_site_fract_z
_atom_type_partial_charge
C0 C 0.16702 0.04549 0.23762 0.0
C1 C 0.11019 0.04739 0.28649 0.0
C2 C 0.096 0.0402 0.3592 0.0
C3 C 0.14031 0.03277 0.38349 0.0
C4 C 0.18734 0.02224 0.33634 0.0
C5 C 0.20376 0.03124 0.2627 0.0
O6 O 0.03592 1.01781 0.03458 0.0
Tb7 Tb 0.1613 0.09636 0.08508 0.0
O8 O 0.16664 0.16705 0.14366 0.0
O9 O 0.89768 0.92631 0.99799 0.0
Eu10 Eu 1.0141 0.9808 0.89916 0.0
O11 O 0.25238 0.11332 0.13069 0.0
C12 C 0.04856 0.07537 0.85963 0.0
O13 O 0.09738 1.0122 0.13948 0.0
O14 O 0.14416 0.0294 0.93268 0.0
O15 O 0.25495 0.13776 0.97724 0.0
C16 C 0.17801 0.05034 0.16052 0.0
C17 C 0.95624 0.85377 0.83656 0.0
O18 O 0.99787 0.8705 0.88805 0.0
C19 C 0.94065 0.96146 0.05211 0.0
C20 C 0.2257 0.09677 0.92169 0.0
O21 O 0.94991 0.8909 0.82691 0.0
C22 C 0.98679 0.07412 0.84596 0.0
C23 C 0.96663 0.13269 0.81209 0.0
C24 C 1.02601 0.13594 0.83009 0.0
C25 C 0.88972 1.00952 0.84212 0.0
C26 C 0.83619 1.0053 0.8111 0.0
C27 C 0.87049 0.06735 0.80624 0.0
C28 C 0.09608 0.14548 0.19597 0.0
O29 O 1.01657 0.07838 0.21151 0.0
O30 O 0.033 0.06236 0.9258 0.0
O31 O 0.05658 0.04171 0.8147 0.0
H32 H 0.07359 0.05134 0.26804 0.0
H33 H 0.12876 0.02786 0.44023 0.0
H34 H 0.23993 0.02347 0.22495 0.0
H35 H 0.10231 0.18582 0.83016 0.0
H36 H 0.86199 0.96262 0.85364 0.0
H37 H 0.82957 0.06671 0.78645 0.0
C38 C 0.86893 0.36609 0.51729 0.0
C39 C 0.82652 0.36849 0.58262 0.0
C40 C 0.84113 0.36642 0.64593 0.0
C41 C 0.90631 0.3696 0.64446 0.0
C42 C 0.95028 0.36757 0.58014 0.0
C43 C 0.9301 0.36439 0.51602 0.0
O44 O 0.64905 0.3186 0.38346 0.0
Tb45 Tb 0.78843 0.39806 0.41771 0.0
O46 O 0.81288 0.47114 0.49276 0.0
O47 O 0.50455 0.23162 0.3542 0.0
Eu48 Eu 0.59568 0.28263 0.2436 0.0
O49 O 0.90204 0.41833 0.41693 0.0
C50 C 0.59687 0.36357 0.21849 0.0
O51 O 0.74954 0.31928 0.45865 0.0
O52 O 0.73847 0.34054 0.26451 0.0
O53 O 0.86373 0.44462 0.30972 0.0
C54 C 0.84168 0.35963 0.45227 0.0
C55 C 0.54901 0.16188 0.16436 0.0
O56 O 0.56092 0.15949 0.22467 0.0
C57 C 0.55393 0.2645 0.40579 0.0
C58 C 0.8198 0.40824 0.2553 0.0
O59 O 0.55276 0.20558 0.15701 0.0
C60 C 0.5495 0.35979 0.17457 0.0
C61 C 0.53064 0.41106 0.11779 0.0
C62 C 0.5787 0.41824 0.16086 0.0
C63 C 0.48214 0.29834 0.13834 0.0
C64 C 0.44663 0.29554 0.08689 0.0
C65 C 0.45451 0.34571 0.09006 0.0
C66 C 0.74984 0.46889 0.5162 0.0
O67 O 0.66522 0.41899 0.49649 0.0
O68 O 0.53714 0.31708 0.27082 0.0
O69 O 0.66122 0.36882 0.18377 0.0
H70 H 0.77695 0.36733 0.58432 0.0
H71 H 0.9142 0.36562 0.69423 0.0
H72 H 0.95936 0.35886 0.4663 0.0
H73 H 0.63933 0.46866 0.18148 0.0
H74 H 0.46956 0.25733 0.14372 0.0
H75 H 0.41792 0.34074 0.05729 0.0
C76 C 0.50681 0.68476 0.78252 0.0
C77 C 0.4411 0.66839 0.84358 0.0
C78 C 0.42269 0.63945 0.90421 0.0
C79 C 0.46945 0.62602 0.9031 0.0
C80 C 0.53472 0.6413 0.8432 0.0
C81 C 0.55428 0.67124 0.78214 0.0
O82 O 0.32176 0.69056 0.76419 0.0
Tb83 Tb 0.46794 0.75693 0.70018 0.0
O84 O 0.51709 0.84266 0.76789 0.0
O85 O 0.23799 0.58416 0.71772 0.0
Eu86 Eu 0.28733 0.62309 0.60715 0.0
O87 O 0.57417 0.78199 0.73057 0.0
C88 C 0.24505 0.67801 0.59232 0.0
O89 O 0.45086 0.67891 0.69152 0.0
O90 O 0.43757 0.68788 0.54581 0.0
O91 O 0.51799 0.79361 0.59058 0.0
C92 C 0.52624 0.71785 0.7212 0.0
C93 C 0.26926 0.51816 0.51951 0.0
O94 O 0.33751 0.55032 0.55407 0.0
C95 C 0.25049 0.62209 0.77145 0.0
C96 C 0.50512 0.75533 0.53654 0.0
O97 O 0.23054 0.53638 0.53078 0.0
C98 C 0.26466 0.70997 0.53007 0.0
C99 C 0.26671 0.77479 0.47291 0.0
C100 C 0.25243 0.74914 0.53529 0.0
C101 C 0.29075 0.69691 0.46326 0.0
C102 C 0.3031 0.72136 0.40227 0.0
C103 C 0.29544 0.76243 0.40724 0.0
C104 C 0.47448 0.85754 0.77509 0.0
O105 O 0.40778 0.82292 0.73752 0.0
O106 O 0.18388 0.61053 0.58836 0.0
O107 O 0.32279 0.71276 0.61551 0.0
H108 H 0.40594 0.67968 0.84429 0.0
H109 H 0.45852 0.60608 0.95072 0.0
H110 H 0.60586 0.68427 0.73558 0.0
H111 H 0.22855 0.75707 0.58661 0.0
H112 H 0.29566 0.66414 0.45859 0.0
H113 H 0.30544 0.78083 0.35868 0.0
C114 C 0.79989 0.91758 0.72801 0.0
C115 C 0.77703 0.94934 0.75861 0.0
C116 C 0.83182 0.92293 0.65465 0.0
C117 C 0.82413 0.94961 0.61127 0.0
C118 C 0.77129 0.96006 0.64224 0.0
C119 C 0.74243 0.955 0.71611 0.0
C120 C 0.88333 0.90739 0.62684 0.0
C121 C 0.75475 0.98508 0.60076 0.0
C122 C 0.04 0.07057 0.4606 0.0
C123 C 1.01731 0.0225 0.41026 0.0
C124 C 0.97382 0.04786 0.52471 0.0
C125 C 0.88266 0.97526 0.53789 0.0
C126 C 0.85731 0.92732 0.48451 0.0
C127 C 0.92517 0.95179 0.42142 0.0
C128 C 1.0061 0.10092 0.58091 0.0
C129 C 0.76492 0.84937 0.49665 0.0
H130 H 0.81104 0.90073 0.76054 0.0
H131 H 0.70979 0.96896 0.73963 0.0
H132 H 0.82807 0.85058 0.61804 0.0
H133 H 0.93735 0.93635 0.5768 0.0
H134 H 0.92228 0.92036 0.66636 0.0
H135 H 0.78284 0.03317 0.62431 0.0
H136 H 0.79035 0.99665 0.54428 0.0
H137 H 0.67514 0.94512 0.60542 0.0
H138 H 0.11262 0.12496 0.45244 0.0
H139 H 0.91035 0.91458 0.38411 0.0
H140 H 0.99841 0.08464 0.63141 0.0
H141 H 0.95944 0.10473 0.59136 0.0
H142 H 0.08309 0.15379 0.56487 0.0
H143 H 0.78214 0.82706 0.5093 0.0
H144 H 0.7351 0.82431 0.44758 0.0
H145 H 0.70796 0.83506 0.54029 0.0
C146 C 0.67525 0.27331 0.71596 0.0
C147 C 0.77062 0.34211 0.7116 0.0
C148 C 0.60411 0.24761 0.77658 0.0
C149 C 0.63032 0.29185 0.83452 0.0
C150 C 0.72971 0.35879 0.83327 0.0
C151 C 0.79902 0.38368 0.77097 0.0
C152 C 0.50182 0.17391 0.77615 0.0
C153 C 0.76205 0.40508 0.8966 0.0
C154 C 0.47885 0.30122 0.9543 0.0
C155 C 0.44882 0.26701 0.01612 0.0
C156 C 0.53466 0.30727 0.89337 0.0
C157 C 0.55446 0.27346 0.89187 0.0
C158 C 0.50787 0.2274 0.94838 0.0
C159 C 0.45317 0.22326 1.00919 0.0
C160 C 0.58056 0.35717 0.83538 0.0
C161 C 0.52219 0.18712 0.94791 0.0
H162 H 0.65558 0.24007 0.67079 0.0
H163 H 0.87462 0.43564 0.76823 0.0
H164 H 0.49735 0.13731 0.78653 0.0
H165 H 0.44627 0.16364 0.81638 0.0
H166 H 0.48439 0.1622 0.72297 0.0
H167 H 0.74244 0.42917 0.90044 0.0
H168 H 0.72483 0.37407 0.94634 0.0
H169 H 0.84222 0.44784 0.89239 0.0
H170 H 0.47102 0.33159 0.95474 0.0
H171 H 0.42262 0.19093 0.05355 0.0
H172 H 0.62943 0.36389 0.7901 0.0
H173 H 0.62355 0.40933 0.8578 0.0
H174 H 0.52235 0.3391 0.81578 0.0
H175 H 0.50015 0.16736 1.00183 0.0
H176 H 0.59934 0.2198 0.92634 0.0
H177 H 0.4761 0.14119 0.91413 0.0
C178 C 0.31018 0.57651 0.01978 0.0
C179 C 0.36623 0.63177 0.97252 0.0
C180 C 0.28501 0.58064 0.09212 0.0
C181 C 0.31282 0.6399 0.11666 0.0
C182 C 0.35771 0.6912 0.06796 0.0
C183 C 0.38469 0.68681 0.99614 0.0
C184 C 0.23651 0.52484 0.14277 0.0
C185 C 0.38474 0.75376 0.09256 0.0
C186 C 0.21901 0.6459 0.30497 0.0
C187 C 0.30262 0.69251 0.33363 0.0
C188 C 0.21921 0.62534 0.23517 0.0
C189 C 0.30569 0.65272 0.19326 0.0
C190 C 0.38887 0.69682 0.22357 0.0
C191 C 0.38626 0.71622 0.29416 0.0
C192 C 0.12776 0.57737 0.20696 0.0
C193 C 0.48115 0.72484 0.18083 0.0
H194 H 0.29308 0.53272 1.00102 0.0
H195 H 0.42739 0.7295 0.95991 0.0
H196 H 0.17159 0.50569 0.17896 0.0
H197 H 0.21346 0.47971 0.11465 0.0
H198 H 0.28809 0.54733 0.176 0.0
H199 H 0.40668 0.78349 0.04765 0.0
H200 H 0.32245 0.73701 0.13071 0.0
H201 H 0.44663 0.78944 0.12041 0.0
H202 H 0.15424 0.62756 0.33658 0.0
H203 H 0.45025 0.75193 0.31747 0.0
H204 H 0.12768 0.55376 0.15664 0.0
H205 H 0.11996 0.6071 0.19851 0.0
H206 H 0.06293 0.5348 0.24656 0.0
H207 H 0.50675 0.75189 0.13145 0.0
H208 H 0.46641 0.68086 0.16524 0.0
H209 H 0.54094 0.76233 0.21086 0.0
C210 C 0.28829 0.86925 0.50849 0.0
C211 C 0.24357 0.80838 0.47166 0.0
C212 C 0.2815 0.90823 0.49441 0.0
C213 C 0.23017 0.88613 0.44174 0.0
C214 C 0.18102 0.82283 0.40732 0.0
C215 C 0.18701 0.78439 0.42355 0.0
C216 C 0.33237 0.97443 0.53359 0.0
C217 C 0.12432 0.79651 0.35156 0.0
C218 C 0.13656 0.94375 0.42328 0.0
C219 C 0.20469 0.99214 0.36551 0.0
C220 C 0.14829 0.91335 0.45222 0.0
C221 C 0.22797 0.92878 0.42098 0.0
C222 C 0.29813 0.9782 0.3635 0.0
C223 C 0.28583 1.00941 0.33644 0.0
C224 C 0.07191 0.86178 0.51396 0.0
C225 C 0.3837 0.99556 0.3282 0.0
H226 H 0.33219 0.88807 0.54554 0.0
H227 H 0.1505 0.73647 0.39604 0.0
H228 H 0.39483 1.02009 0.49639 0.0
H229 H 0.28183 0.97485 0.55479 0.0
H230 H 0.35992 0.98061 0.5781 0.0
H231 H 0.09025 0.74616 0.32981 0.0
H232 H 0.06595 0.78918 0.37431 0.0
H233 H 0.17347 0.83563 0.30719 0.0
H234 H 0.07136 0.92744 0.44517 0.0
H235 H 0.33917 0.04667 0.29219 0.0
H236 H 0.10535 0.86694 0.55207 0.0
H237 H 1.01981 0.80797 0.49395 0.0
H238 H 0.02985 0.86865 0.54278 0.0
H239 H 0.41332 0.99798 0.36747 0.0
H240 H 0.44331 0.04618 0.29838 0.0
H241 H 0.35935 0.95413 0.29052 0.0
C242 C 0.16746 0.42833 0.42976 0.0
C243 C 0.23463 0.46045 0.47182 0.0
C244 C 0.13579 0.37417 0.38429 0.0
C245 C 0.1726 0.35182 0.38045 0.0
C246 C 0.23958 0.38366 0.42345 0.0
C247 C 0.2694 0.4372 0.46852 0.0
C248 C 0.06325 0.34106 0.34024 0.0
C249 C 0.28147 0.36212 0.42086 0.0
C250 C 0.04943 0.17681 0.30734 0.0
C251 C 0.10948 0.19689 0.24033 0.0
C252 C 0.06655 0.22609 0.35242 0.0
C253 C 0.1448 0.29716 0.32986 0.0
C254 C 0.2023 0.31695 0.26078 0.0
C255 C 0.18495 0.26692 0.21731 0.0
C256 C 1.00309 0.20255 0.4252 0.0
C257 C 0.28468 0.39154 0.23349 0.0
H258 H 0.14008 0.44583 0.43202 0.0
H259 H 0.32076 0.46115 0.50108 0.0
H260 H 0.08926 0.33977 0.28386 0.0
H261 H 0.99296 0.28627 0.35914 0.0
H262 H 0.04979 0.3692 0.34335 0.0
H263 H 0.32919 0.38965 0.46002 0.0
H264 H 0.2219 0.30507 0.43135 0.0
H265 H 0.32482 0.37358 0.36705 0.0
H266 H 0.99093 0.12288 0.32572 0.0
H267 H 0.23138 0.28297 0.16544 0.0
H268 H 0.9715 0.21847 0.43317 0.0
H269 H 0.0482 0.22847 0.4658 0.0
H270 H 0.94281 0.1451 0.43403 0.0
H271 H 0.30758 0.39535 0.17493 0.0
H272 H 0.34795 0.42273 0.2579 0.0
H273 H 0.26348 0.41515 0.24806 0.0
C274 C 0.64573 0.85884 0.4516 0.0
C275 C 0.5667 0.78659 0.46462 0.0
C276 C 0.70949 0.88824 0.38516 0.0
C277 C 0.68991 0.84386 0.32869 0.0
C278 C 0.60669 0.7704 0.34073 0.0
C279 C 0.54732 0.74304 0.40847 0.0
C280 C 0.79822 0.96693 0.37668 0.0
C281 C 0.57985 0.71905 0.28408 0.0
C282 C 0.82224 0.93932 0.14956 0.0
C283 C 0.88401 0.937 0.1247 0.0
C284 C 0.75719 0.90797 0.21504 0.0
C285 C 0.75542 0.87448 0.25739 0.0
C286 C 0.81729 0.87117 0.23103 0.0
C287 C 0.87922 0.90133 0.16439 0.0
C288 C 0.69034 0.91063 0.23669 0.0
C289 C 0.81696 0.83345 0.26984 0.0
H290 H 0.65969 0.89258 0.49389 0.0
H291 H 0.48556 0.68686 0.41721 0.0
H292 H 0.85794 0.98516 0.33298 0.0
H293 H 0.77689 0.98703 0.36638 0.0
H294 H 0.82783 0.99083 0.42589 0.0
H295 H 0.50008 0.67538 0.28566 0.0
H296 H 0.61892 0.74257 0.22974 0.0
H297 H 0.59633 0.69582 0.29553 0.0
H298 H 0.82332 0.96454 0.11697 0.0
H299 H 0.92151 0.89482 0.14236 0.0
H300 H 0.73337 0.96444 0.25245 0.0
H301 H 0.62866 0.87373 0.28096 0.0
H302 H 0.6599 0.89887 0.19083 0.0
H303 H 0.89301 0.86532 0.26728 0.0
H304 H 0.78034 0.78419 0.24262 0.0
H305 H 0.77916 0.82047 0.32591 0.0
C306 C 0.07242 0.40019 0.62695 0.0
C307 C 1.00019 0.35525 0.58575 0.0
C308 C 0.09522 0.37835 0.6576 0.0
C309 C 0.03962 0.30831 0.65083 0.0
C310 C 0.97118 0.26402 0.6054 0.0
C311 C 0.95425 0.28884 0.57167 0.0
C312 C 0.1705 0.42779 0.70398 0.0
C313 C 0.90677 0.18786 0.59987 0.0
C314 C 0.07937 0.22823 0.72118 0.0
C315 C 1.00741 0.19428 0.78332 0.0
C316 C 0.09616 0.27008 0.67938 0.0
C317 C 0.03936 0.27763 0.7005 0.0
C318 C 0.97324 0.24876 0.76672 0.0
C319 C 0.95804 0.20729 0.80728 0.0
C320 C 0.16847 0.30107 0.60992 0.0
C321 C 0.91174 0.25608 0.79186 0.0
H322 H 0.10515 0.45051 0.64033 0.0
H323 H 0.89637 0.25339 0.54167 0.0
H324 H 0.13346 0.41743 0.76023 0.0
H325 H 0.21231 0.42035 0.69907 0.0
H326 H 0.22236 0.48309 0.69029 0.0
H327 H 0.86328 0.16187 0.55792 0.0
H328 H 0.9511 0.18199 0.589 0.0
H329 H 0.85535 0.16015 0.65117 0.0
H330 H 0.11661 0.21735 0.70213 0.0
H331 H 0.90197 0.18051 0.85514 0.0
H332 H 0.20985 0.35429 0.60006 0.0
H333 H 0.12856 0.26807 0.56611 0.0
H334 H 0.22078 0.30361 0.60843 0.0
H335 H 0.95737 0.31123 0.78728 0.0
H336 H 0.87278 0.2376 0.84782 0.0
H337 H 0.85677 0.22501 0.75809 0.0
C338 C 0.87366 0.59289 0.55236 0.0
C339 C 0.77672 0.52457 0.56206 0.0
C340 C 0.90115 0.64696 0.59454 0.0
C341 C 0.83036 0.63206 0.64937 0.0
C342 C 0.73238 0.56259 0.66018 0.0
C343 C 0.70633 0.51 0.61529 0.0
C344 C 1.00642 0.71949 0.57862 0.0
C345 C 0.65496 0.54316 0.71965 0.0
C346 C 0.9326 0.75935 0.79988 0.0
C347 C 0.92074 0.79575 0.78954 0.0
C348 C 0.90326 0.70605 0.75478 0.0
C349 C 0.85994 0.68794 0.69807 0.0
C350 C 0.84843 0.72484 0.68684 0.0
C351 C 0.87812 0.77788 0.73313 0.0
C352 C 0.92257 0.6712 0.76612 0.0
C353 C 0.80742 0.70978 0.62486 0.0
H354 H 0.92829 0.60463 0.51071 0.0
H355 H 0.63134 0.45701 0.62318 0.0
H356 H 1.02457 0.75959 0.615 0.0
H357 H 0.05453 0.71878 0.58016 0.0
H358 H 1.02348 0.7354 0.52397 0.0
H359 H 0.59166 0.48624 0.73273 0.0
H360 H 0.68469 0.57183 0.76822 0.0
H361 H 0.6281 0.55721 0.70352 0.0
H362 H 0.96629 0.7731 0.84283 0.0
H363 H 0.86925 0.80601 0.72443 0.0
H364 H 0.98478 0.69061 0.72473 0.0
H365 H 0.85832 0.61379 0.76122 0.0
H366 H 0.94126 0.6825 0.81874 0.0
H367 H 0.84263 0.70685 0.57539 0.0
H368 H 0.81777 0.75017 0.61699 0.0
H369 H 0.72819 0.65854 0.634 0.0
C370 C 0.55383 0.27573 0.53683 0.0
C371 C 0.50244 0.24152 0.48164 0.0
C372 C 0.50505 0.25526 0.60829 0.0
C373 C 0.40132 0.19862 0.62618 0.0
C374 C 0.34892 0.16548 0.57033 0.0
C375 C 0.39985 0.1867 0.49925 0.0
C376 C 0.56698 0.29623 0.66367 0.0
C377 C 0.23904 0.10776 0.58395 0.0
C378 C 0.26801 0.08557 0.79343 0.0
C379 C 0.27064 0.12446 0.8469 0.0
C380 C 0.30892 0.10849 0.72189 0.0
C381 C 0.34915 0.17034 0.70173 0.0
C382 C 0.34431 0.20671 0.75493 0.0
C383 C 0.30844 0.18485 0.82711 0.0
C384 C 0.30916 0.066 0.66848 0.0
C385 C 0.37368 0.26709 0.73523 0.0
H386 H 0.63273 0.31907 0.52449 0.0
H387 H 0.35847 0.16029 0.45736 0.0
H388 H 0.5957 0.34642 0.6702 0.0
H389 H 0.52706 0.26812 0.71552 0.0
H390 H 0.6307 0.30938 0.6459 0.0
H391 H 0.21708 0.11788 0.55182 0.0
H392 H 0.20831 0.05769 0.56617 0.0
H393 H 0.20582 0.10178 0.64044 0.0
H394 H 0.23663 0.03783 0.80797 0.0
H395 H 0.30666 0.21348 0.86763 0.0
H396 H 0.37697 0.09974 0.62719 0.0
H397 H 0.24631 0.03112 0.64199 0.0
H398 H 0.30167 0.03261 0.6942 0.0
H399 H 0.45317 0.31186 0.71404 0.0
H400 H 0.35535 0.28475 0.78122 0.0
H401 H 0.33633 0.25162 0.69271 0.0
C402 C 0.64002 0.49845 0.01882 0.0
C403 C 0.57304 0.47156 0.08337 0.0
C404 C 0.65661 0.53679 0.97093 0.0
C405 C 0.60481 0.54852 0.98768 0.0
C406 C 0.54265 0.52595 0.05532 0.0
C407 C 0.52714 0.48737 0.10205 0.0
C408 C 0.72344 0.5595 0.90016 0.0
C409 C 0.48647 0.53771 0.07627 0.0
C410 C 0.65786 0.67284 0.88721 0.0
C411 C 0.58039 0.62571 0.85076 0.0
C412 C 0.67165 0.64943 0.92819 0.0
C413 C 0.60658 0.57719 0.93259 0.0
C414 C 0.5353 0.5308 0.88943 0.0
C415 C 0.52307 0.55562 0.84918 0.0
C416 C 0.75025 0.701 0.97168 0.0
C417 C 0.4661 0.4537 0.89046 0.0
H418 H 0.67355 0.48455 1.00318 0.0
H419 H 0.47459 0.46581 0.15134 0.0
H420 H 0.67938 0.52083 0.86008 0.0
H421 H 0.76437 0.61073 0.88251 0.0
H422 H 0.77602 0.56308 0.90195 0.0
H423 H 0.4535 0.52686 0.13374 0.0
H424 H 0.53451 0.59224 0.06338 0.0
H425 H 0.4271 0.50274 0.04587 0.0
H426 H 0.70116 0.72682 0.88973 0.0
H427 H 0.46195 0.51877 0.82228 0.0
H428 H 0.79803 0.698 0.95956 0.0
H429 H 0.7167 0.68776 0.02896 0.0
H430 H 0.79587 0.75547 0.96165 0.0
H431 H 0.4222 0.42603 0.84846 0.0
H432 H 0.41556 0.43 0.94276 0.0
H433 H 0.50696 0.44517 0.88313 0.0
C434 C 0.56879 0.94946 0.86664 0.0
C435 C 0.49459 0.90828 0.828 0.0
C436 C 0.58447 0.9952 0.91837 0.0
C437 C 0.52303 0.99877 0.93331 0.0
C438 C 0.44914 0.95812 0.89367 0.0
C439 C 0.43634 0.91401 0.84149 0.0
C440 C 0.66638 0.03937 0.95746 0.0
C441 C 0.38177 0.95993 0.90753 0.0
C442 C 0.48441 0.05174 0.11721 0.0
C443 C 0.54001 0.11993 0.10449 0.0
C444 C 0.47906 1.01224 0.06228 0.0
C445 C 0.53206 0.0419 0.99267 0.0
C446 C 0.58988 0.11142 0.97979 0.0
C447 C 0.59277 0.14938 0.03576 0.0
C448 C 0.41574 0.93833 0.07874 0.0
C449 C 0.6481 0.14573 0.90686 0.0
H450 H 0.61429 0.94567 0.85693 0.0
H451 H 0.37872 0.88266 0.81221 0.0
H452 H 0.71445 0.09518 0.95279 0.0
H453 H 0.63605 0.02427 0.01468 0.0
H454 H 0.71131 0.03385 0.93691 0.0
H455 H 0.32892 0.92613 0.87141 0.0
H456 H 0.34039 0.94238 0.96305 0.0
H457 H 0.42481 1.01415 0.90102 0.0
H458 H 0.44402 0.02888 0.17027 0.0
H459 H 0.63814 0.2028 0.02608 0.0
H460 H 0.3584 0.90151 0.04629 0.0
H461 H 0.37988 0.92313 0.13561 0.0
H462 H 0.46022 0.93239 0.06464 0.0
H463 H 0.70499 0.20339 0.90869 0.0
H464 H 0.59836 0.12564 0.87332 0.0
H465 H 0.68369 0.13331 0.8808 0.0
C466 C 0.08872 0.51602 0.84449 0.0
C467 C 0.17953 0.58774 0.83963 0.0
C468 C 1.0213 0.48382 0.90928 0.0
C469 C 0.0466 0.52402 0.9712 0.0
C470 C 0.13761 0.59673 0.96583 0.0
C471 C 0.20255 0.62753 0.90034 0.0
C472 C 0.92389 0.40682 0.91035 0.0
C473 C 0.16824 0.64216 0.02957 0.0
C474 C 0.87841 0.47452 0.14856 0.0
C475 C 0.87564 0.43718 0.1826 0.0
C476 C 0.92722 0.49836 0.07772 0.0
C477 C 0.98217 0.49023 0.04242 0.0
C478 C 0.9807 0.45345 0.07772 0.0
C479 C 0.92479 0.42545 0.14645 0.0
C480 C 0.91801 0.53146 0.042 0.0
C481 C 0.03986 0.44484 0.04428 0.0
H482 H 0.06966 0.4849 0.79756 0.0
H483 H 0.27258 0.68296 0.89703 0.0
H484 H 0.93222 0.37639 0.91353 0.0
H485 H 0.86694 0.39079 0.95567 0.0
H486 H 0.89828 0.39256 0.86036 0.0
H487 H 0.11565 0.64031 0.0534 0.0
H488 H 0.16892 0.62234 0.07001 0.0
H489 H 0.2416 0.69757 0.01619 0.0
H490 H 0.84115 0.48423 0.17678 0.0
H491 H 0.92239 0.39641 0.1731 0.0
H492 H 0.95116 0.54332 0.98468 0.0
H493 H 0.95246 0.58035 0.0689 0.0
H494 H 0.83963 0.496 0.04821 0.0
H495 H 0.99954 0.40033 1.00817 0.0
H496 H 0.05266 0.43353 0.08479 0.0
H497 H 0.11158 0.49226 0.01298 0.0
loop_
_geom_bond_atom_site_label_1
_geom_bond_atom_site_label_2
_geom_bond_distance
_geom_bond_site_symmetry_2
_ccdc_geom_bond_type
C0 C1 1.387 . S
C0 C5 1.380 1_545 S
C0 C16 1.494 . S
C1 C0 1.387 . S
C1 C2 1.386 1_545 S
C1 H32 0.930 . S
C2 C1 1.386 1_565 S
C2 C3 1.397 . S
C3 C2 1.397 . S
C3 C4 1.393 . S
C3 H33 0.930 . S
C4 C3 1.393 . S
C4 C5 1.395 . S
C5 C0 1.380 1_565 S
C5 C4 1.395 . S
C5 H34 0.930 . S
O6 Tb7 2.295 1_655 S
O6 C19 1.242 1_545 S
Tb7 O6 2.295 1_455 S
Tb7 O8 2.312 . S
Tb7 O11 2.438 . S
Tb7 O13 2.472 . S
Tb7 O15 2.308 1_554 S
Tb7 C16 2.821 . S
O8 Tb7 2.312 . S
O8 C28 1.264 . S
O9 Eu10 2.308 1_554 S
O9 C19 1.243 . S
Eu10 O9 2.308 1_556 S
Eu10 C12 2.821 . S
Eu10 O14 2.295 1_655 S
Eu10 O21 2.312 . S
Eu10 O30 2.438 . S
Eu10 O31 2.472 . S
O11 Tb7 2.438 . S
O11 C16 1.263 . S
C12 Eu10 2.821 . S
C12 C22 1.494 . S
C12 O30 1.263 . S
C12 O31 1.264 . S
O13 Tb7 2.472 . S
O13 C16 1.264 . S
O14 Eu10 2.295 1_455 S
O14 C20 1.242 1_565 S
O15 Tb7 2.308 1_556 S
O15 C20 1.243 . S
C16 C0 1.494 . S
C16 Tb7 2.821 . S
C16 O11 1.263 . S
C16 O13 1.264 . S
C17 O18 1.260 . S
C17 O21 1.264 . S
O18 C17 1.260 . S
C19 O6 1.242 1_565 S
C19 O9 1.243 . S
C20 O14 1.242 1_545 S
C20 O15 1.243 . S
O21 Eu10 2.312 . S
O21 C17 1.264 . S
C22 C12 1.494 . S
C22 C24 1.380 1_565 S
C22 C25 1.387 . S
C23 C24 1.395 . S
C23 C27 1.393 . S
C24 C22 1.380 1_545 S
C24 C23 1.395 . S
C24 H35 0.930 . S
C25 C22 1.387 . S
C25 C26 1.386 1_565 S
C25 H36 0.930 . S
C26 C25 1.386 1_545 S
C26 C27 1.397 . S
C27 C23 1.393 . S
C27 C26 1.397 . S
C27 H37 0.930 . S
C28 O8 1.264 . S
C28 O29 1.260 . S
O29 C28 1.260 . S
O30 Eu10 2.438 . S
O30 C12 1.263 . S
O31 Eu10 2.472 . S
O31 C12 1.264 . S
H32 C1 0.930 . S
H33 C3 0.930 . S
H34 C5 0.930 . S
H35 C24 0.930 . S
H36 C25 0.930 . S
H37 C27 0.930 . S
C38 C39 1.387 . S
C38 C43 1.380 . S
C38 C54 1.494 . S
C39 C38 1.387 . S
C39 C40 1.386 . S
C39 H70 0.930 . S
C40 C39 1.386 . S
C40 C41 1.397 . S
C41 C40 1.397 . S
C41 C42 1.393 . S
C41 H71 0.930 . S
C42 C41 1.393 . S
C42 C43 1.395 . S
C43 C38 1.380 . S
C43 C42 1.395 . S
C43 H72 0.930 . S
O44 Tb45 2.295 . S
O44 C57 1.242 . S
Tb45 O44 2.295 . S
Tb45 O46 2.312 . S
Tb45 O49 2.438 . S
Tb45 O51 2.472 . S
Tb45 O53 2.308 . S
Tb45 C54 2.821 . S
O46 Tb45 2.312 . S
O46 C66 1.264 . S
O47 Eu48 2.308 . S
O47 C57 1.243 . S
Eu48 O47 2.308 . S
Eu48 C50 2.821 . S
Eu48 O52 2.295 . S
Eu48 O59 2.312 . S
Eu48 O68 2.438 . S
Eu48 O69 2.472 . S
O49 Tb45 2.438 . S
O49 C54 1.263 . S
C50 Eu48 2.821 . S
C50 C60 1.494 . S
C50 O68 1.263 . S
C50 O69 1.264 . S
O51 Tb45 2.472 . S
O51 C54 1.264 . S
O52 Eu48 2.295 . S
O52 C58 1.242 . S
O53 Tb45 2.308 . S
O53 C58 1.243 . S
C54 C38 1.494 . S
C54 Tb45 2.821 . S
C54 O49 1.263 . S
C54 O51 1.264 . S
C55 O56 1.260 . S
C55 O59 1.264 . S
O56 C55 1.260 . S
C57 O44 1.242 . S
C57 O47 1.243 . S
C58 O52 1.242 . S
C58 O53 1.243 . S
O59 Eu48 2.312 . S
O59 C55 1.264 . S
C60 C50 1.494 . S
C60 C62 1.380 . S
C60 C63 1.387 . S
C61 C62 1.395 . S
C61 C65 1.393 . S
C62 C60 1.380 . S
C62 C61 1.395 . S
C62 H73 0.930 . S
C63 C60 1.387 . S
C63 C64 1.386 . S
C63 H74 0.930 . S
C64 C63 1.386 . S
C64 C65 1.397 . S
C65 C61 1.393 . S
C65 C64 1.397 . S
C65 H75 0.930 . S
C66 O46 1.264 . S
C66 O67 1.260 . S
O67 C66 1.260 . S
O68 Eu48 2.438 . S
O68 C50 1.263 . S
O69 Eu48 2.472 . S
O69 C50 1.264 . S
H70 C39 0.930 . S
H71 C41 0.930 . S
H72 C43 0.930 . S
H73 C62 0.930 . S
H74 C63 0.930 . S
H75 C65 0.930 . S
C76 C77 1.387 . S
C76 C81 1.380 . S
C76 C92 1.494 . S
C77 C76 1.387 . S
C77 C78 1.386 . S
C77 H108 0.930 . S
C78 C77 1.386 . S
C78 C79 1.397 . S
C79 C78 1.397 . S
C79 C80 1.393 . S
C79 H109 0.930 . S
C80 C79 1.393 . S
C80 C81 1.395 . S
C81 C76 1.380 . S
C81 C80 1.395 . S
C81 H110 0.930 . S
O82 Tb83 2.295 . S
O82 C95 1.242 . S
Tb83 O82 2.295 . S
Tb83 O84 2.312 . S
Tb83 O87 2.438 . S
Tb83 O89 2.472 . S
Tb83 O91 2.308 . S
Tb83 C92 2.821 . S
O84 Tb83 2.312 . S
O84 C104 1.264 . S
O85 Eu86 2.308 . S
O85 C95 1.243 . S
Eu86 O85 2.308 . S
Eu86 C88 2.821 . S
Eu86 O90 2.295 . S
Eu86 O97 2.312 . S
Eu86 O106 2.438 . S
Eu86 O107 2.472 . S
O87 Tb83 2.438 . S
O87 C92 1.263 . S
C88 Eu86 2.821 . S
C88 C98 1.494 . S
C88 O106 1.263 . S
C88 O107 1.264 . S
O89 Tb83 2.472 . S
O89 C92 1.264 . S
O90 Eu86 2.295 . S
O90 C96 1.242 . S
O91 Tb83 2.308 . S
O91 C96 1.243 . S
C92 C76 1.494 . S
C92 Tb83 2.821 . S
C92 O87 1.263 . S
C92 O89 1.264 . S
C93 O94 1.260 . S
C93 O97 1.264 . S
O94 C93 1.260 . S
C95 O82 1.242 . S
C95 O85 1.243 . S
C96 O90 1.242 . S
C96 O91 1.243 . S
O97 Eu86 2.312 . S
O97 C93 1.264 . S
C98 C88 1.494 . S
C98 C100 1.380 . S
C98 C101 1.387 . S
C99 C100 1.395 . S
C99 C103 1.393 . S
C100 C98 1.380 . S
C100 C99 1.395 . S
C100 H111 0.930 . S
C101 C98 1.387 . S
C101 C102 1.386 . S
C101 H112 0.930 . S
C102 C101 1.386 . S
C102 C103 1.397 . S
C103 C99 1.393 . S
C103 C102 1.397 . S
C103 H113 0.930 . S
C104 O84 1.264 . S
C104 O105 1.260 . S
O105 C104 1.260 . S
O106 Eu86 2.438 . S
O106 C88 1.263 . S
O107 Eu86 2.472 . S
O107 C88 1.264 . S
H108 C77 0.930 . S
H109 C79 0.930 . S
H110 C81 0.930 . S
H111 C100 0.930 . S
H112 C101 0.930 . S
H113 C103 0.930 . S
C114 C115 1.391 1_565 S
C114 C116 1.394 . S
C114 H130 0.931 . S
C115 C114 1.391 1_545 S
C115 C119 1.376 . S
C116 C114 1.394 . S
C116 C117 1.369 . S
C116 C120 1.531 . S
C117 C116 1.369 . S
C117 C118 1.410 1_565 S
C117 C125 1.503 1_655 S
C118 C117 1.410 1_545 S
C118 C119 1.392 . S
C118 C121 1.511 . S
C119 C115 1.376 . S
C119 C118 1.392 . S
C119 H131 0.929 . S
C120 C116 1.531 . S
C120 H132 0.960 . S
C120 H133 0.962 1_655 S
C120 H134 0.960 . S
C121 C118 1.511 . S
C121 H135 0.961 . S
C121 H136 0.961 1_655 S
C121 H137 0.961 . S
C122 C123 1.370 1_545 S
C122 C124 1.363 . S
C122 H138 0.931 . S
C123 C122 1.370 1_565 S
C123 C127 1.408 1_455 S
C124 C122 1.363 . S
C124 C125 1.370 1_545 S
C124 C128 1.524 . S
C125 C117 1.503 1_455 S
C125 C124 1.370 1_565 S
C125 C126 1.403 1_455 S
C126 C125 1.403 1_655 S
C126 C127 1.404 . S
C126 C129 1.539 . S
C127 C123 1.408 1_655 S
C127 C126 1.404 . S
C127 H139 0.930 . S
C128 C124 1.524 . S
C128 H140 0.956 . S
C128 H141 0.961 . S
C128 H142 0.961 . S
C129 C126 1.539 . S
C129 H143 0.958 . S
C129 H144 0.961 . S
C129 H145 0.960 . S
H130 C114 0.931 . S
H131 C119 0.929 . S
H132 C120 0.960 . S
H133 C120 0.962 1_455 S
H134 C120 0.960 . S
H135 C121 0.961 . S
H136 C121 0.961 1_455 S
H137 C121 0.961 . S
H138 C122 0.931 . S
H139 C127 0.930 . S
H140 C128 0.956 . S
H141 C128 0.961 . S
H142 C128 0.961 . S
H143 C129 0.958 . S
H144 C129 0.961 . S
H145 C129 0.960 . S
C146 C147 1.391 . S
C146 C148 1.394 . S
C146 H162 0.931 . S
C147 C146 1.391 . S
C147 C151 1.376 . S
C148 C146 1.394 . S
C148 C149 1.369 . S
C148 C152 1.531 . S
C149 C148 1.369 . S
C149 C150 1.410 . S
C149 C157 1.503 . S
C150 C149 1.410 . S
C150 C151 1.392 . S
C150 C153 1.511 . S
C151 C147 1.376 . S
C151 C150 1.392 . S
C151 H163 0.929 . S
C152 C148 1.531 . S
C152 H164 0.960 . S
C152 H165 0.962 . S
C152 H166 0.960 . S
C153 C150 1.511 . S
C153 H167 0.961 . S
C153 H168 0.961 . S
C153 H169 0.961 . S
C154 C155 1.371 1_556 S
C154 C156 1.363 . S
C154 H170 0.931 . S
C155 C154 1.371 1_554 S
C155 C159 1.408 1_554 S
C156 C154 1.363 . S
C156 C157 1.370 . S
C156 C160 1.524 . S
C157 C149 1.503 . S
C157 C156 1.370 . S
C157 C158 1.403 . S
C158 C157 1.403 . S
C158 C159 1.404 . S
C158 C161 1.539 . S
C159 C155 1.408 1_556 S
C159 C158 1.404 . S
C159 H171 0.930 1_556 S
C160 C156 1.524 . S
C160 H172 0.956 . S
C160 H173 0.961 . S
C160 H174 0.961 . S
C161 C158 1.539 . S
C161 H175 0.958 . S
C161 H176 0.961 . S
C161 H177 0.960 . S
H162 C146 0.931 . S
H163 C151 0.929 . S
H164 C152 0.960 . S
H165 C152 0.962 . S
H166 C152 0.960 . S
H167 C153 0.961 . S
H168 C153 0.961 . S
H169 C153 0.961 . S
H170 C154 0.931 . S
H171 C159 0.930 1_554 S
H172 C160 0.956 . S
H173 C160 0.961 . S
H174 C160 0.961 . S
H175 C161 0.958 . S
H176 C161 0.961 . S
H177 C161 0.960 . S
C178 C179 1.391 . S
C178 C180 1.394 . S
C178 H194 0.931 . S
C179 C178 1.391 . S
C179 C183 1.376 . S
C180 C178 1.394 . S
C180 C181 1.369 . S
C180 C184 1.531 . S
C181 C180 1.369 . S
C181 C182 1.410 . S
C181 C189 1.503 . S
C182 C181 1.410 . S
C182 C183 1.392 . S
C182 C185 1.511 . S
C183 C179 1.376 . S
C183 C182 1.392 . S
C183 H195 0.929 . S
C184 C180 1.531 . S
C184 H196 0.960 . S
C184 H197 0.962 . S
C184 H198 0.960 . S
C185 C182 1.511 . S
C185 H199 0.961 . S
C185 H200 0.961 . S
C185 H201 0.961 . S
C186 C187 1.370 . S
C186 C188 1.363 . S
C186 H202 0.931 . S
C187 C186 1.370 . S
C187 C191 1.408 . S
C188 C186 1.363 . S
C188 C189 1.370 . S
C188 C192 1.524 . S
C189 C181 1.503 . S
C189 C188 1.370 . S
C189 C190 1.403 . S
C190 C189 1.403 . S
C190 C191 1.404 . S
C190 C193 1.539 . S
C191 C187 1.408 . S
C191 C190 1.404 . S
C191 H203 0.930 . S
C192 C188 1.524 . S
C192 H204 0.956 . S
C192 H205 0.961 . S
C192 H206 0.961 . S
C193 C190 1.539 . S
C193 H207 0.958 . S
C193 H208 0.961 . S
C193 H209 0.960 . S
H194 C178 0.931 . S
H195 C183 0.929 . S
H196 C184 0.960 . S
H197 C184 0.962 . S
H198 C184 0.960 . S
H199 C185 0.961 . S
H200 C185 0.961 . S
H201 C185 0.961 . S
H202 C186 0.931 . S
H203 C191 0.930 . S
H204 C192 0.956 . S
H205 C192 0.961 . S
H206 C192 0.961 . S
H207 C193 0.958 . S
H208 C193 0.961 . S
H209 C193 0.960 . S
C210 C211 1.391 . S
C210 C212 1.394 . S
C210 H226 0.931 . S
C211 C210 1.391 . S
C211 C215 1.376 . S
C212 C210 1.394 . S
C212 C213 1.369 . S
C212 C216 1.531 . S
C213 C212 1.369 . S
C213 C214 1.410 . S
C213 C221 1.503 . S
C214 C213 1.410 . S
C214 C215 1.392 . S
C214 C217 1.511 . S
C215 C211 1.376 . S
C215 C214 1.392 . S
C215 H227 0.929 . S
C216 C212 1.531 . S
C216 H228 0.960 . S
C216 H229 0.962 . S
C216 H230 0.960 . S
C217 C214 1.511 . S
C217 H231 0.961 . S
C217 H232 0.961 . S
C217 H233 0.961 . S
C218 C219 1.370 . S
C218 C220 1.363 . S
C218 H234 0.931 1_455 S
C219 C218 1.370 . S
C219 C223 1.408 . S
C220 C218 1.363 . S
C220 C221 1.370 . S
C220 C224 1.524 1_455 S
C221 C213 1.503 . S
C221 C220 1.370 . S
C221 C222 1.403 . S
C222 C221 1.403 . S
C222 C223 1.404 . S
C222 C225 1.539 . S
C223 C219 1.408 . S
C223 C222 1.404 . S
C223 H235 0.930 . S
C224 C220 1.524 1_655 S
C224 H236 0.956 1_655 S
C224 H237 0.961 1_655 S
C224 H238 0.961 . S
C225 C222 1.539 . S
C225 H239 0.958 . S
C225 H240 0.961 . S
C225 H241 0.960 . S
H226 C210 0.931 . S
H227 C215 0.929 . S
H228 C216 0.960 . S
H229 C216 0.962 . S
H230 C216 0.960 . S
H231 C217 0.961 . S
H232 C217 0.961 . S
H233 C217 0.961 . S
H234 C218 0.931 1_655 S
H235 C223 0.930 . S
H236 C224 0.956 1_455 S
H237 C224 0.961 1_455 S
H238 C224 0.961 . S
H239 C225 0.958 . S
H240 C225 0.961 . S
H241 C225 0.960 . S
C242 C243 1.391 . S
C242 C244 1.394 . S
C242 H258 0.931 . S
C243 C242 1.391 . S
C243 C247 1.376 . S
C244 C242 1.394 . S
C244 C245 1.369 . S
C244 C248 1.531 . S
C245 C244 1.369 . S
C245 C246 1.410 . S
C245 C253 1.503 . S
C246 C245 1.410 . S
C246 C247 1.392 . S
C246 C249 1.511 . S
C247 C243 1.376 . S
C247 C246 1.392 . S
C247 H259 0.929 . S
C248 C244 1.531 . S
C248 H260 0.960 . S
C248 H261 0.962 . S
C248 H262 0.960 . S
C249 C246 1.511 . S
C249 H263 0.961 . S
C249 H264 0.961 . S
C249 H265 0.961 . S
C250 C251 1.370 . S
C250 C252 1.363 . S
C250 H266 0.931 1_455 S
C251 C250 1.370 . S
C251 C255 1.408 . S
C252 C250 1.363 . S
C252 C253 1.370 . S
C252 C256 1.524 . S
C253 C245 1.503 . S
C253 C252 1.370 . S
C253 C254 1.403 . S
C254 C253 1.403 . S
C254 C255 1.404 . S
C254 C257 1.539 . S
C255 C251 1.408 . S
C255 C254 1.404 . S
C255 H267 0.930 . S
C256 C252 1.524 . S
C256 H268 0.956 . S
C256 H269 0.961 . S
C256 H270 0.961 1_455 S
C257 C254 1.539 . S
C257 H271 0.958 . S
C257 H272 0.961 . S
C257 H273 0.960 . S
H258 C242 0.931 . S
H259 C247 0.929 . S
H260 C248 0.960 . S
H261 C248 0.962 . S
H262 C248 0.960 . S
H263 C249 0.961 . S
H264 C249 0.961 . S
H265 C249 0.961 . S
H266 C250 0.931 1_655 S
H267 C255 0.930 . S
H268 C256 0.956 . S
H269 C256 0.961 . S
H270 C256 0.961 1_655 S
H271 C257 0.958 . S
H272 C257 0.961 . S
H273 C257 0.960 . S
C274 C275 1.391 . S
C274 C276 1.394 . S
C274 H290 0.931 . S
C275 C274 1.391 . S
C275 C279 1.376 . S
C276 C274 1.394 . S
C276 C277 1.369 . S
C276 C280 1.531 . S
C277 C276 1.369 . S
C277 C278 1.410 . S
C277 C285 1.503 . S
C278 C277 1.410 . S
C278 C279 1.392 . S
C278 C281 1.511 . S
C279 C275 1.376 . S
C279 C278 1.392 . S
C279 H291 0.929 . S
C280 C276 1.531 . S
C280 H292 0.960 . S
C280 H293 0.962 . S
C280 H294 0.960 . S
C281 C278 1.511 . S
C281 H295 0.961 . S
C281 H296 0.961 . S
C281 H297 0.961 . S
C282 C283 1.370 . S
C282 C284 1.363 . S
C282 H298 0.931 . S
C283 C282 1.370 . S
C283 C287 1.408 . S
C284 C282 1.363 . S
C284 C285 1.370 . S
C284 C288 1.524 . S
C285 C277 1.503 . S
C285 C284 1.370 . S
C285 C286 1.403 . S
C286 C285 1.403 . S
C286 C287 1.404 . S
C286 C289 1.539 . S
C287 C283 1.408 . S
C287 C286 1.404 . S
C287 H299 0.930 . S
C288 C284 1.524 . S
C288 H300 0.956 . S
C288 H301 0.961 . S
C288 H302 0.961 . S
C289 C286 1.539 . S
C289 H303 0.958 . S
C289 H304 0.961 . S
C289 H305 0.960 . S
H290 C274 0.931 . S
H291 C279 0.929 . S
H292 C280 0.960 . S
H293 C280 0.962 . S
H294 C280 0.960 . S
H295 C281 0.961 . S
H296 C281 0.961 . S
H297 C281 0.961 . S
H298 C282 0.931 . S
H299 C287 0.930 . S
H300 C288 0.956 . S
H301 C288 0.961 . S
H302 C288 0.961 . S
H303 C289 0.958 . S
H304 C289 0.961 . S
H305 C289 0.960 . S
C306 C307 1.391 . S
C306 C308 1.394 . S
C306 H322 0.931 . S
C307 C306 1.391 . S
C307 C311 1.376 . S
C308 C306 1.394 . S
C308 C309 1.369 . S
C308 C312 1.531 . S
C309 C308 1.369 . S
C309 C310 1.410 . S
C309 C317 1.503 . S
C310 C309 1.410 . S
C310 C311 1.392 . S
C310 C313 1.511 . S
C311 C307 1.376 . S
C311 C310 1.392 . S
C311 H323 0.929 . S
C312 C308 1.531 . S
C312 H324 0.960 . S
C312 H325 0.962 1_655 S
C312 H326 0.967 1_655 S
C313 C310 1.511 . S
C313 H327 0.961 . S
C313 H328 0.961 . S
C313 H329 0.961 . S
C314 C315 1.370 . S
C314 C316 1.363 . S
C314 H330 0.931 . S
C315 C314 1.370 . S
C315 C319 1.408 . S
C316 C314 1.363 . S
C316 C317 1.370 . S
C316 C320 1.524 . S
C317 C309 1.503 . S
C317 C316 1.370 . S
C317 C318 1.403 . S
C318 C317 1.403 . S
C318 C319 1.404 . S
C318 C321 1.539 . S
C319 C315 1.408 . S
C319 C318 1.404 . S
C319 H331 0.930 . S
C320 C316 1.524 . S
C320 H332 0.956 . S
C320 H333 0.961 . S
C320 H334 0.961 . S
C321 C318 1.539 . S
C321 H335 0.958 . S
C321 H336 0.961 . S
C321 H337 0.960 . S
H322 C306 0.931 . S
H323 C311 0.929 . S
H324 C312 0.960 . S
H325 C312 0.962 1_455 S
H326 C312 0.967 1_455 S
H327 C313 0.961 . S
H328 C313 0.961 . S
H329 C313 0.961 . S
H330 C314 0.931 . S
H331 C319 0.930 . S
H332 C320 0.956 . S
H333 C320 0.961 . S
H334 C320 0.961 . S
H335 C321 0.958 . S
H336 C321 0.961 . S
H337 C321 0.960 . S
C338 C339 1.391 . S
C338 C340 1.394 . S
C338 H354 0.931 . S
C339 C338 1.391 . S
C339 C343 1.376 . S
C340 C338 1.394 . S
C340 C341 1.369 . S
C340 C344 1.531 . S
C341 C340 1.369 . S
C341 C342 1.410 . S
C341 C349 1.503 . S
C342 C341 1.410 . S
C342 C343 1.392 . S
C342 C345 1.511 . S
C343 C339 1.376 . S
C343 C342 1.392 . S
C343 H355 0.929 . S
C344 C340 1.531 . S
C344 H356 0.960 1_655 S
C344 H357 0.962 . S
C344 H358 0.960 1_655 S
C345 C342 1.511 . S
C345 H359 0.961 . S
C345 H360 0.961 . S
C345 H361 0.961 . S
C346 C347 1.370 . S
C346 C348 1.363 . S
C346 H362 0.931 . S
C347 C346 1.370 . S
C347 C351 1.408 . S
C348 C346 1.363 . S
C348 C349 1.370 . S
C348 C352 1.524 . S
C349 C341 1.503 . S
C349 C348 1.370 . S
C349 C350 1.403 . S
C350 C349 1.403 . S
C350 C351 1.404 . S
C350 C353 1.539 . S
C351 C347 1.408 . S
C351 C350 1.404 . S
C351 H363 0.930 . S
C352 C348 1.524 . S
C352 H364 0.956 . S
C352 H365 0.961 . S
C352 H366 0.961 . S
C353 C350 1.539 . S
C353 H367 0.958 . S
C353 H368 0.961 . S
C353 H369 0.960 . S
H354 C338 0.931 . S
H355 C343 0.929 . S
H356 C344 0.960 1_455 S
H357 C344 0.962 . S
H358 C344 0.960 1_455 S
H359 C345 0.961 . S
H360 C345 0.961 . S
H361 C345 0.961 . S
H362 C346 0.931 . S
H363 C351 0.930 . S
H364 C352 0.956 . S
H365 C352 0.961 . S
H366 C352 0.961 . S
H367 C353 0.958 . S
H368 C353 0.961 . S
H369 C353 0.960 . S
C370 C371 1.391 . S
C370 C372 1.394 . S
C370 H386 0.931 . S
C371 C370 1.391 . S
C371 C375 1.376 . S
C372 C370 1.394 . S
C372 C373 1.369 . S
C372 C376 1.531 . S
C373 C372 1.369 . S
C373 C374 1.410 . S
C373 C381 1.503 . S
C374 C373 1.410 . S
C374 C375 1.392 . S
C374 C377 1.511 . S
C375 C371 1.376 . S
C375 C374 1.392 . S
C375 H387 0.929 . S
C376 C372 1.531 . S
C376 H388 0.960 . S
C376 H389 0.962 . S
C376 H390 0.960 . S
C377 C374 1.511 . S
C377 H391 0.961 . S
C377 H392 0.961 . S
C377 H393 0.961 . S
C378 C379 1.370 . S
C378 C380 1.363 . S
C378 H394 0.931 . S
C379 C378 1.370 . S
C379 C383 1.408 . S
C380 C378 1.363 . S
C380 C381 1.370 . S
C380 C384 1.524 . S
C381 C373 1.503 . S
C381 C380 1.370 . S
C381 C382 1.403 . S
C382 C381 1.403 . S
C382 C383 1.404 . S
C382 C385 1.539 . S
C383 C379 1.408 . S
C383 C382 1.404 . S
C383 H395 0.930 . S
C384 C380 1.524 . S
C384 H396 0.956 . S
C384 H397 0.961 . S
C384 H398 0.961 . S
C385 C382 1.539 . S
C385 H399 0.958 . S
C385 H400 0.961 . S
C385 H401 0.960 . S
H386 C370 0.931 . S
H387 C375 0.929 . S
H388 C376 0.960 . S
H389 C376 0.962 . S
H390 C376 0.960 . S
H391 C377 0.961 . S
H392 C377 0.961 . S
H393 C377 0.961 . S
H394 C378 0.931 . S
H395 C383 0.930 . S
H396 C384 0.956 . S
H397 C384 0.961 . S
H398 C384 0.961 . S
H399 C385 0.958 . S
H400 C385 0.961 . S
H401 C385 0.960 . S
C402 C403 1.391 . S
C402 C404 1.394 1_554 S
C402 H418 0.931 . S
C403 C402 1.391 . S
C403 C407 1.376 . S
C404 C402 1.394 1_556 S
C404 C405 1.369 1_556 S
C404 C408 1.531 . S
C405 C404 1.369 1_554 S
C405 C406 1.410 . S
C405 C413 1.503 1_554 S
C406 C405 1.410 . S
C406 C407 1.392 . S
C406 C409 1.511 . S
C407 C403 1.376 . S
C407 C406 1.392 . S
C407 H419 0.929 . S
C408 C404 1.531 . S
C408 H420 0.960 . S
C408 H421 0.962 . S
C408 H422 0.960 . S
C409 C406 1.511 . S
C409 H423 0.961 . S
C409 H424 0.961 . S
C409 H425 0.961 . S
C410 C411 1.370 . S
C410 C412 1.363 . S
C410 H426 0.931 . S
C411 C410 1.370 . S
C411 C415 1.408 . S
C412 C410 1.363 . S
C412 C413 1.370 . S
C412 C416 1.524 1_556 S
C413 C405 1.503 1_556 S
C413 C412 1.370 . S
C413 C414 1.403 . S
C414 C413 1.403 . S
C414 C415 1.404 . S
C414 C417 1.539 . S
C415 C411 1.408 . S
C415 C414 1.404 . S
C415 H427 0.930 . S
C416 C412 1.524 1_554 S
C416 H428 0.956 . S
C416 H429 0.961 . S
C416 H430 0.961 . S
C417 C414 1.539 . S
C417 H431 0.958 . S
C417 H432 0.961 . S
C417 H433 0.960 . S
H418 C402 0.931 . S
H419 C407 0.929 . S
H420 C408 0.960 . S
H421 C408 0.962 . S
H422 C408 0.960 . S
H423 C409 0.961 . S
H424 C409 0.961 . S
H425 C409 0.961 . S
H426 C410 0.931 . S
H427 C415 0.930 . S
H428 C416 0.956 . S
H429 C416 0.961 . S
H430 C416 0.961 . S
H431 C417 0.958 . S
H432 C417 0.961 . S
H433 C417 0.960 . S
C434 C435 1.391 . S
C434 C436 1.394 . S
C434 H450 0.931 . S
C435 C434 1.391 . S
C435 C439 1.376 . S
C436 C434 1.394 . S
C436 C437 1.369 . S
C436 C440 1.531 1_565 S
C437 C436 1.369 . S
C437 C438 1.410 . S
C437 C445 1.503 1_566 S
C438 C437 1.410 . S
C438 C439 1.392 . S
C438 C441 1.511 1_556 S
C439 C435 1.376 . S
C439 C438 1.392 . S
C439 H451 0.929 . S
C440 C436 1.531 1_545 S
C440 H452 0.960 . S
C440 H453 0.962 . S
C440 H454 0.960 . S
C441 C438 1.511 1_554 S
C441 H455 0.961 . S
C441 H456 0.961 . S
C441 H457 0.961 1_554 S
C442 C443 1.370 . S
C442 C444 1.363 . S
C442 H458 0.931 . S
C443 C442 1.370 . S
C443 C447 1.408 . S
C444 C442 1.363 . S
C444 C445 1.370 . S
C444 C448 1.524 1_545 S
C445 C437 1.503 1_544 S
C445 C444 1.370 . S
C445 C446 1.403 . S
C446 C445 1.403 . S
C446 C447 1.404 . S
C446 C449 1.539 1_554 S
C447 C443 1.408 . S
C447 C446 1.404 . S
C447 H459 0.930 . S
C448 C444 1.524 1_565 S
C448 H460 0.956 . S
C448 H461 0.961 . S
C448 H462 0.961 . S
C449 C446 1.539 1_556 S
C449 H463 0.958 . S
C449 H464 0.961 . S
C449 H465 0.960 . S
H450 C434 0.931 . S
H451 C439 0.929 . S
H452 C440 0.960 . S
H453 C440 0.962 . S
H454 C440 0.960 . S
H455 C441 0.961 . S
H456 C441 0.961 . S
H457 C441 0.961 1_556 S
H458 C442 0.931 . S
H459 C447 0.930 . S
H460 C448 0.956 . S
H461 C448 0.961 . S
H462 C448 0.961 . S
H463 C449 0.958 . S
H464 C449 0.961 . S
H465 C449 0.960 . S
C466 C467 1.391 . S
C466 C468 1.394 1_455 S
C466 H482 0.931 . S
C467 C466 1.391 . S
C467 C471 1.376 . S
C468 C466 1.394 1_655 S
C468 C469 1.369 1_655 S
C468 C472 1.531 . S
C469 C468 1.369 1_455 S
C469 C470 1.410 . S
C469 C477 1.503 1_456 S
C470 C469 1.410 . S
C470 C471 1.392 . S
C470 C473 1.511 1_556 S
C471 C467 1.376 . S
C471 C470 1.392 . S
C471 H483 0.929 . S
C472 C468 1.531 . S
C472 H484 0.960 . S
C472 H485 0.962 . S
C472 H486 0.960 . S
C473 C470 1.511 1_554 S
C473 H487 0.961 . S
C473 H488 0.961 . S
C473 H489 0.961 . S
C474 C475 1.370 . S
C474 C476 1.363 . S
C474 H490 0.931 . S
C475 C474 1.370 . S
C475 C479 1.408 . S
C476 C474 1.363 . S
C476 C477 1.370 . S
C476 C480 1.524 . S
C477 C469 1.503 1_654 S
C477 C476 1.370 . S
C477 C478 1.403 . S
C478 C477 1.403 . S
C478 C479 1.404 . S
C478 C481 1.539 1_655 S
C479 C475 1.408 . S
C479 C478 1.404 . S
C479 H491 0.930 . S
C480 C476 1.524 . S
C480 H492 0.956 . S
C480 H493 0.961 1_655 S
C480 H494 0.961 . S
C481 C478 1.539 1_455 S
C481 H495 0.958 1_454 S
C481 H496 0.961 . S
C481 H497 0.960 1_554 S
H482 C466 0.931 . S
H483 C471 0.929 . S
H484 C472 0.960 . S
H485 C472 0.962 . S
H486 C472 0.960 . S
H487 C473 0.961 . S
H488 C473 0.961 . S
H489 C473 0.961 . S
H490 C474 0.931 . S
H491 C479 0.930 . S
H492 C480 0.956 . S
H493 C480 0.961 1_455 S
H494 C480 0.961 . S
H495 C481 0.958 1_656 S
H496 C481 0.961 . S
H497 C481 0.960 1_556 S
C115 C26 0.777 . S
C123 C2 0.717 . S
C147 C40 0.769 . S
C155 C64 0.719 . S
C179 C78 0.780 1_554 S
C187 C102 0.716 . S
C211 C99 2.421 . S
C219 C4 2.425 . S
C243 C93 1.340 . S
C251 C28 1.291 . S
C275 C96 1.590 . S
C283 C19 1.572 . S
C307 C42 2.392 . S
C315 C23 2.434 . S
C339 C66 1.289 . S
C347 C17 1.312 . S
C371 C57 1.590 . S
C379 C20 1.574 . S
C403 C61 2.391 . S
C411 C80 2.434 . S
C435 C104 1.288 . S
C443 C55 1.310 . S
C467 C95 1.560 . S
C475 C58 1.586 . S
