# Generated by pormake.
# Topology smw, (6)-cn, num edge types: 1
# Building blocks:
#     Node 0, Type 0, BuildingBlock: IZENUY_clean_sbu_0, # of connection points: 6
#     Node 1, Type 0, BuildingBlock: IZENUY_clean_sbu_0, # of connection points: 6
#     Node 2, Type 0, BuildingBlock: IZENUY_clean_sbu_0, # of connection points: 6
#     Node 3, Type 0, BuildingBlock: IZENUY_clean_sbu_0, # of connection points: 6
#     Node 4, Type 0, BuildingBlock: IZENUY_clean_sbu_0, # of connection points: 6
#     Node 5, Type 0, BuildingBlock: IZENUY_clean_sbu_0, # of connection points: 6
#     Node 6, Type 0, BuildingBlock: IZENUY_clean_sbu_0, # of connection points: 6
#     Node 7, Type 0, BuildingBlock: IZENUY_clean_sbu_0, # of connection points: 6
#     Node 8, Type 0, BuildingBlock: IZENUY_clean_sbu_0, # of connection points: 6
#     Node 9, Type 0, BuildingBlock: IZENUY_clean_sbu_0, # of connection points: 6
#     Node 10, Type 0, BuildingBlock: IZENUY_clean_sbu_0, # of connection points: 6
#     Node 11, Type 0, BuildingBlock: IZENUY_clean_sbu_0, # of connection points: 6
#     Edge 12, Type (0, 0), None
#     Edge 13, Type (0, 0), None
#     Edge 14, Type (0, 0), None
#     Edge 15, Type (0, 0), None
#     Edge 16, Type (0, 0), None
#     Edge 17, Type (0, 0), None
#     Edge 18, Type (0, 0), None
#     Edge 19, Type (0, 0), None
#     Edge 20, Type (0, 0), None
#     Edge 21, Type (0, 0), None
#     Edge 22, Type (0, 0), None
#     Edge 23, Type (0, 0), None
#     Edge 24, Type (0, 0), None
#     Edge 25, Type (0, 0), None
#     Edge 26, Type (0, 0), None
#     Edge 27, Type (0, 0), None
#     Edge 28, Type (0, 0), None
#     Edge 29, Type (0, 0), None
#     Edge 30, Type (0, 0), None
#     Edge 31, Type (0, 0), None
#     Edge 32, Type (0, 0), None
#     Edge 33, Type (0, 0), None
#     Edge 34, Type (0, 0), None
#     Edge 35, Type (0, 0), None
#     Edge 36, Type (0, 0), None
#     Edge 37, Type (0, 0), None
#     Edge 38, Type (0, 0), None
#     Edge 39, Type (0, 0), None
#     Edge 40, Type (0, 0), None
#     Edge 41, Type (0, 0), None
#     Edge 42, Type (0, 0), None
#     Edge 43, Type (0, 0), None
#     Edge 44, Type (0, 0), None
#     Edge 45, Type (0, 0), None
#     Edge 46, Type (0, 0), None
#     Edge 47, Type (0, 0), None
# Relax obj value: 0.143
# Max RMSD: 0.113
# Mean RMSD: 0.113
data_MOF--net-smw--node1-IZENUY_clean_sbu_0--edge1-none
_symmetry_space_group_name_H-M    P1
_symmetry_Int_Tables_number       1
_symmetry_cell_setting            triclinic
loop_
_symmetry_equiv_pos_as_xyz
'x, y, z'
_cell_length_a     26.438932
_cell_length_b     26.438963
_cell_length_c     9.2617198
_cell_angle_alpha  90.000771
_cell_angle_beta   89.998466
_cell_angle_gamma 119.99957
loop_
_atom_site_label
_atom_site_type_symbol
_atom_site_fract_x
_atom_site_fract_y
_atom_site_fract_z
_atom_type_partial_charge
Fe0 Fe 0.55633 0.21976 0.0326 0.0
Fe1 Fe 0.5081 0.08936 1.02707 0.0
O2 O 0.49531 0.1483 0.03199 0.0
Fe3 Fe 0.42161 0.13429 0.03299 0.0
O4 O 0.43313 0.17708 0.8683 0.0
O5 O 0.52071 0.25072 0.92284 0.0
O6 O 0.58539 0.20939 0.86379 0.0
C7 C 0.59702 0.16932 0.84407 0.0
C8 C 0.48305 0.2295 0.22516 0.0
O9 O 0.57797 0.12685 0.93033 0.0
C10 C 0.41132 0.0472 0.21428 0.0
O11 O 0.60223 0.20057 0.14596 0.0
O12 O 0.54337 0.10769 0.19877 0.0
O13 O 0.43824 0.1976 0.14915 0.0
O14 O 0.53222 0.23537 0.19735 0.0
C15 C 0.42195 0.05374 0.83176 0.0
O16 O 0.44057 0.03741 0.1221 0.0
O17 O 0.40514 0.09131 0.20022 0.0
C18 C 0.58774 0.15625 0.22594 0.0
O19 O 0.47491 0.07188 0.85574 0.0
O20 O 0.39263 0.0677 0.91524 0.0
C21 C 0.4754 0.22796 0.84423 0.0
Fe22 Fe 0.36584 0.54171 0.0326 0.0
Fe23 Fe 0.44802 0.49348 1.02706 0.0
O24 O 0.37628 0.48069 0.03199 0.0
Fe25 Fe 0.31659 0.40699 0.03299 0.0
O26 O 0.28532 0.41851 0.8683 0.0
O27 O 0.29927 0.5061 0.92285 0.0
O28 O 0.40527 0.57077 0.8638 0.0
C29 C 0.45698 0.5824 0.84407 0.0
C30 C 0.28283 0.46843 0.22516 0.0
O31 O 0.48039 0.56335 0.93033 0.0
C32 C 0.39339 0.3967 0.21427 0.0
O33 O 0.43093 0.5876 0.14596 0.0
O34 O 0.46495 0.52874 0.19877 0.0
O35 O 0.26991 0.42363 0.14915 0.0
O36 O 0.32612 0.5176 0.19736 0.0
C37 C 0.39748 0.40733 0.83175 0.0
O38 O 0.43243 0.42594 0.12209 0.0
O39 O 0.3431 0.39052 0.20022 0.0
C40 C 0.46076 0.57311 0.22595 0.0
O41 O 0.43229 0.46028 0.85573 0.0
O42 O 0.3542 0.37801 0.91524 0.0
C43 C 0.27671 0.46078 0.84423 0.0
Fe44 Fe 0.93888 0.30197 0.03298 0.0
Fe45 Fe 0.8534 0.35121 0.0326 0.0
O46 O 0.92486 0.36165 0.03199 0.0
Fe47 Fe 0.98381 0.43339 1.02707 0.0
O48 O 1.00129 0.41767 0.85573 0.0
O49 O 1.00546 0.33957 0.91523 0.0
O50 O 0.89608 0.27069 0.8683 0.0
C51 C 0.8452 0.26208 0.84422 0.0
C52 C 1.02596 0.37877 0.21427 0.0
O53 O 0.82245 0.28465 0.92284 0.0
C54 C 0.91691 0.44613 0.22595 0.0
O55 O 0.87556 0.25529 0.14915 0.0
O56 O 0.8378 0.3115 0.19735 0.0
O57 O 1.03576 0.41781 0.12209 0.0
O58 O 0.98185 0.32848 0.20022 0.0
C59 C 0.90385 0.44235 0.84408 0.0
O60 O 0.87259 0.4163 0.14596 0.0
O61 O 0.96548 0.45032 0.19878 0.0
C62 C 0.84367 0.2682 0.22515 0.0
O63 O 0.86378 0.39065 0.8638 0.0
O64 O 0.94631 0.46577 0.93034 0.0
C65 C 1.01942 0.38286 0.83175 0.0
Fe66 Fe 0.57968 0.96918 1.02707 0.0
Fe67 Fe 0.66617 0.92425 0.03298 0.0
O68 O 0.59248 0.91024 0.03198 0.0
Fe69 Fe 0.53146 0.83878 0.03259 0.0
O70 O 0.5024 0.84915 0.86379 0.0
O71 O 0.50981 0.93169 0.93033 0.0
O72 O 0.61288 0.98666 0.85574 0.0
C73 C 0.66583 1.0048 0.83175 0.0
C74 C 0.50004 0.90228 0.22594 0.0
O75 O 0.69515 0.99084 0.91523 0.0
C76 C 0.60474 0.82905 0.22515 0.0
O77 O 0.64722 1.02113 0.1221 0.0
O78 O 0.68264 0.96723 0.20021 0.0
O79 O 0.48556 0.85797 0.14596 0.0
O80 O 0.54442 0.95085 0.19878 0.0
C81 C 0.61239 0.83058 0.84422 0.0
O82 O 0.64954 0.86093 0.14914 0.0
O83 O 0.55556 0.82317 0.19735 0.0
C84 C 0.67646 1.01134 0.21427 0.0
O85 O 0.65466 0.88146 0.86829 0.0
O86 O 0.56707 0.80782 0.92284 0.0
C87 C 0.49077 0.88922 0.84407 0.0
Fe88 Fe 0.63977 0.56506 1.02706 0.0
Fe89 Fe 0.77119 0.65155 0.03299 0.0
O90 O 0.71151 0.57786 0.03199 0.0
Fe91 Fe 0.72194 0.51683 0.03259 0.0
O92 O 0.68251 0.48778 0.86379 0.0
O93 O 0.60739 0.49519 0.93033 0.0
O94 O 0.65549 0.59826 0.85573 0.0
C95 C 0.69031 0.65121 0.83175 0.0
C96 C 0.62703 0.48542 0.22594 0.0
O97 O 0.73359 0.68053 0.91524 0.0
C98 C 0.80496 0.59011 0.22516 0.0
O99 O 0.65536 0.6326 0.12209 0.0
O100 O 0.74468 0.66802 0.20022 0.0
O101 O 0.65686 0.47094 0.14595 0.0
O102 O 0.62283 0.5298 0.19877 0.0
C103 C 0.81108 0.59776 0.84422 0.0
O104 O 0.81787 0.63491 0.14915 0.0
O105 O 0.76166 0.54094 0.19735 0.0
C106 C 0.6944 0.66184 0.21427 0.0
O107 O 0.80247 0.64003 0.8683 0.0
O108 O 0.78851 0.55244 0.92284 0.0
C109 C 0.63081 0.47615 0.84406 0.0
Fe110 Fe 0.10397 0.62515 1.02706 0.0
Fe111 Fe 0.14891 0.75657 0.03299 0.0
O112 O 0.16292 0.69689 0.03199 0.0
Fe113 Fe 0.23438 0.70733 0.03259 0.0
O114 O 0.22401 0.6679 0.86379 0.0
O115 O 0.14147 0.59278 0.93033 0.0
O116 O 0.0865 0.64087 0.85573 0.0
C117 C 0.06836 0.67569 0.83175 0.0
C118 C 0.17088 0.61241 0.22594 0.0
O119 O 0.08232 0.71897 0.91524 0.0
C120 C 0.24411 0.79034 0.22516 0.0
O121 O 0.05203 0.64073 0.12209 0.0
O122 O 0.10593 0.73006 0.20022 0.0
O123 O 0.21519 0.64224 0.14596 0.0
O124 O 0.12231 0.60822 0.19877 0.0
C125 C 0.24258 0.79646 0.84423 0.0
O126 O 0.21222 0.80325 0.14915 0.0
O127 O 0.24999 0.74704 0.19735 0.0
C128 C 0.06182 0.67977 0.21427 0.0
O129 O 0.1917 0.78785 0.86831 0.0
O130 O 0.26534 0.7739 0.92285 0.0
C131 C 0.18394 0.6162 0.84406 0.0
Fe132 Fe 0.93887 0.65155 0.52917 0.0
Fe133 Fe 0.8534 0.51683 0.52956 0.0
O134 O 0.92486 0.57785 0.53017 0.0
Fe135 Fe 0.98381 0.56506 0.53509 0.0
O136 O 1.00129 0.59825 0.70642 0.0
O137 O 1.00545 0.68053 0.64694 0.0
O138 O 0.89607 0.64003 0.69384 0.0
C139 C 0.84519 0.59776 0.71791 0.0
C140 C 1.02596 0.66184 0.34791 0.0
O141 O 0.82244 0.55244 0.63931 0.0
C142 C 0.91691 0.48543 0.33619 0.0
O143 O 0.87556 0.63491 0.41299 0.0
O144 O 0.83779 0.54093 0.3648 0.0
O145 O 1.03576 0.6326 0.44007 0.0
O146 O 0.98185 0.66802 0.36195 0.0
C147 C 0.90385 0.47614 0.71808 0.0
O148 O 0.8726 0.47094 0.4162 0.0
O149 O 0.96548 0.5298 0.36338 0.0
C150 C 0.84368 0.59011 0.33696 0.0
O151 O 0.86378 0.48777 0.69837 0.0
O152 O 0.94631 0.49519 0.63181 0.0
C153 C 1.0194 0.6512 0.73041 0.0
Fe154 Fe 0.31659 0.92425 0.52917 0.0
Fe155 Fe 0.36584 0.83878 0.52956 0.0
O156 O 0.37627 0.91024 0.53017 0.0
Fe157 Fe 0.44802 0.96919 0.53509 0.0
O158 O 0.43231 0.98667 0.70642 0.0
O159 O 0.35419 0.99083 0.64694 0.0
O160 O 0.28531 0.88145 0.69385 0.0
C161 C 0.27669 0.83057 0.71791 0.0
C162 C 0.39339 1.01135 0.34791 0.0
O163 O 0.29927 0.80782 0.63931 0.0
C164 C 0.46074 0.90228 0.33618 0.0
O165 O 0.26992 0.86094 0.41299 0.0
O166 O 0.32612 0.82317 0.3648 0.0
O167 O 0.43244 1.02114 0.44008 0.0
O168 O 0.3431 0.96724 0.36195 0.0
C169 C 0.45697 0.88922 0.71807 0.0
O170 O 0.43092 0.85797 0.41619 0.0
O171 O 0.46494 0.95085 0.36337 0.0
C172 C 0.28283 0.82907 0.33697 0.0
O173 O 0.40527 0.84916 0.69836 0.0
O174 O 0.48039 0.93168 0.6318 0.0
C175 C 0.39748 1.00478 0.73042 0.0
Fe176 Fe 0.55633 0.35122 0.52955 0.0
Fe177 Fe 0.5081 0.4334 0.53509 0.0
O178 O 0.4953 0.36165 0.53017 0.0
Fe179 Fe 0.42161 0.30197 0.52917 0.0
O180 O 0.43313 0.27069 0.69385 0.0
O181 O 0.52072 0.28465 0.6393 0.0
O182 O 0.58538 0.39065 0.69836 0.0
C183 C 0.59702 0.44235 0.71807 0.0
C184 C 0.48304 0.26821 0.33697 0.0
O185 O 0.57797 0.46577 0.6318 0.0
C186 C 0.41132 0.37877 0.34791 0.0
O187 O 0.60222 0.4163 0.41619 0.0
O188 O 0.54336 0.45032 0.36337 0.0
O189 O 0.43825 0.2553 0.41299 0.0
O190 O 0.53223 0.3115 0.3648 0.0
C191 C 0.42196 0.38285 0.73042 0.0
O192 O 0.44056 0.41781 0.44008 0.0
O193 O 0.40514 0.32848 0.36195 0.0
C194 C 0.58772 0.44612 0.33618 0.0
O195 O 0.47491 0.41768 0.70642 0.0
O196 O 0.39263 0.33957 0.64694 0.0
C197 C 0.4754 0.26208 0.71791 0.0
Fe198 Fe 0.14892 0.40699 0.52917 0.0
Fe199 Fe 0.23438 0.54171 0.52955 0.0
O200 O 0.16292 0.48069 0.53017 0.0
Fe201 Fe 0.10397 0.49348 0.53509 0.0
O202 O 0.0865 0.46029 0.70642 0.0
O203 O 0.08234 0.37801 0.64693 0.0
O204 O 0.19171 0.41851 0.69384 0.0
C205 C 0.24259 0.46078 0.71791 0.0
C206 C 0.06182 0.3967 0.3479 0.0
O207 O 0.26534 0.5061 0.6393 0.0
C208 C 0.17087 0.5731 0.33618 0.0
O209 O 0.21223 0.42363 0.41299 0.0
O210 O 0.24999 0.51761 0.3648 0.0
O211 O 0.05202 0.42595 0.44007 0.0
O212 O 0.10593 0.39052 0.36195 0.0
C213 C 0.18394 0.5824 0.71807 0.0
O214 O 0.21519 0.58761 0.41619 0.0
O215 O 0.12231 0.52874 0.36337 0.0
C216 C 0.2441 0.46843 0.33696 0.0
O217 O 0.22401 0.57077 0.69835 0.0
O218 O 0.14147 0.56336 0.6318 0.0
C219 C 0.06838 0.40734 0.73041 0.0
Fe220 Fe 0.72195 0.21976 0.52955 0.0
Fe221 Fe 0.63976 0.08935 0.53509 0.0
O222 O 0.71151 0.1483 0.53017 0.0
Fe223 Fe 0.77119 0.13429 0.52916 0.0
O224 O 0.80248 0.17709 0.69384 0.0
O225 O 0.78852 0.25072 0.6393 0.0
O226 O 0.68251 0.20938 0.69836 0.0
C227 C 0.63081 0.16932 0.71807 0.0
C228 C 0.80495 0.22948 0.33696 0.0
O229 O 0.60739 0.12686 0.6318 0.0
C230 C 0.69439 0.04719 0.34791 0.0
O231 O 0.65686 0.20057 0.41619 0.0
O232 O 0.62284 0.10768 0.36337 0.0
O233 O 0.81787 0.19759 0.41298 0.0
O234 O 0.76166 0.23537 0.3648 0.0
C235 C 0.69031 0.05376 0.73041 0.0
O236 O 0.65535 0.0374 0.44008 0.0
O237 O 0.74468 0.0913 0.36194 0.0
C238 C 0.62705 0.15626 0.33618 0.0
O239 O 0.65548 0.07187 0.70642 0.0
O240 O 0.73359 0.06771 0.64694 0.0
C241 C 0.81109 0.22797 0.7179 0.0
Fe242 Fe 0.66617 0.75657 0.52916 0.0
Fe243 Fe 0.53146 0.70732 0.52956 0.0
O244 O 0.59248 0.69689 0.53017 0.0
Fe245 Fe 0.57968 0.62514 0.53509 0.0
O246 O 0.61288 0.64086 0.70643 0.0
O247 O 0.69515 0.71897 0.64693 0.0
O248 O 0.65466 0.78785 0.69384 0.0
C249 C 0.61239 0.79647 0.7179 0.0
C250 C 0.67647 0.67977 0.34791 0.0
O251 O 0.56707 0.77389 0.6393 0.0
C252 C 0.50006 0.61242 0.33619 0.0
O253 O 0.64954 0.80324 0.41298 0.0
O254 O 0.55556 0.74704 0.3648 0.0
O255 O 0.64722 0.64073 0.44008 0.0
O256 O 0.68265 0.73006 0.36194 0.0
C257 C 0.49077 0.61619 0.71808 0.0
O258 O 0.48556 0.64223 0.41619 0.0
O259 O 0.54443 0.60821 0.36337 0.0
C260 C 0.60474 0.79032 0.33696 0.0
O261 O 0.5024 0.66789 0.69836 0.0
O262 O 0.50981 0.59277 0.63181 0.0
C263 C 0.66582 0.67569 0.73041 0.0
loop_
_geom_bond_atom_site_label_1
_geom_bond_atom_site_label_2
_geom_bond_distance
_geom_bond_site_symmetry_2
_ccdc_geom_bond_type
Fe0 O2 1.918 . S
Fe0 O5 1.997 1_554 S
Fe0 O6 2.002 1_554 S
Fe0 O11 1.976 . S
Fe0 O14 1.996 . S
Fe1 O2 1.918 . S
Fe1 O9 1.997 1_554 S
Fe1 O12 1.996 . S
Fe1 O16 1.976 . S
Fe1 O19 2.002 1_554 S
O2 Fe0 1.918 . S
O2 Fe1 1.918 . S
O2 Fe3 1.918 . S
Fe3 O2 1.918 . S
Fe3 O4 2.002 1_554 S
Fe3 O13 1.976 . S
Fe3 O17 1.996 . S
Fe3 O20 1.997 1_554 S
O4 Fe3 2.002 1_556 S
O4 C21 1.295 . S
O5 Fe0 1.997 1_556 S
O5 C21 1.235 . S
O6 Fe0 2.002 1_556 S
O6 C7 1.295 . S
C7 O6 1.295 . S
C7 O9 1.235 . S
C8 O13 1.287 . S
C8 O14 1.255 . S
O9 Fe1 1.997 1_556 S
O9 C7 1.235 . S
C10 O16 1.287 . S
C10 O17 1.255 . S
O11 Fe0 1.976 . S
O11 C18 1.287 . S
O12 Fe1 1.996 . S
O12 C18 1.255 . S
O13 Fe3 1.976 . S
O13 C8 1.287 . S
O14 Fe0 1.996 . S
O14 C8 1.255 . S
C15 O19 1.295 . S
C15 O20 1.235 . S
O16 Fe1 1.976 . S
O16 C10 1.287 . S
O17 Fe3 1.996 . S
O17 C10 1.255 . S
C18 O11 1.287 . S
C18 O12 1.255 . S
O19 Fe1 2.002 1_556 S
O19 C15 1.295 . S
O20 Fe3 1.997 1_556 S
O20 C15 1.235 . S
C21 O4 1.295 . S
C21 O5 1.235 . S
Fe22 O24 1.918 . S
Fe22 O27 1.997 1_554 S
Fe22 O28 2.002 1_554 S
Fe22 O33 1.976 . S
Fe22 O36 1.996 . S
Fe23 O24 1.918 . S
Fe23 O31 1.997 1_554 S
Fe23 O34 1.996 . S
Fe23 O38 1.976 . S
Fe23 O41 2.002 1_554 S
O24 Fe22 1.918 . S
O24 Fe23 1.918 . S
O24 Fe25 1.918 . S
Fe25 O24 1.918 . S
Fe25 O26 2.002 1_554 S
Fe25 O35 1.976 . S
Fe25 O39 1.996 . S
Fe25 O42 1.997 1_554 S
O26 Fe25 2.002 1_556 S
O26 C43 1.295 . S
O27 Fe22 1.997 1_556 S
O27 C43 1.235 . S
O28 Fe22 2.002 1_556 S
O28 C29 1.295 . S
C29 O28 1.295 . S
C29 O31 1.235 . S
C30 O35 1.287 . S
C30 O36 1.255 . S
O31 Fe23 1.997 1_556 S
O31 C29 1.235 . S
C32 O38 1.287 . S
C32 O39 1.255 . S
O33 Fe22 1.976 . S
O33 C40 1.287 . S
O34 Fe23 1.996 . S
O34 C40 1.255 . S
O35 Fe25 1.976 . S
O35 C30 1.287 . S
O36 Fe22 1.996 . S
O36 C30 1.255 . S
C37 O41 1.295 . S
C37 O42 1.235 . S
O38 Fe23 1.976 . S
O38 C32 1.287 . S
O39 Fe25 1.996 . S
O39 C32 1.255 . S
C40 O33 1.287 . S
C40 O34 1.255 . S
O41 Fe23 2.002 1_556 S
O41 C37 1.295 . S
O42 Fe25 1.997 1_556 S
O42 C37 1.235 . S
C43 O26 1.295 . S
C43 O27 1.235 . S
Fe44 O46 1.918 . S
Fe44 O49 1.997 1_554 S
Fe44 O50 2.002 1_554 S
Fe44 O55 1.976 . S
Fe44 O58 1.996 . S
Fe45 O46 1.918 . S
Fe45 O53 1.997 1_554 S
Fe45 O56 1.996 . S
Fe45 O60 1.976 . S
Fe45 O63 2.002 1_554 S
O46 Fe44 1.918 . S
O46 Fe45 1.918 . S
O46 Fe47 1.918 . S
Fe47 O46 1.918 . S
Fe47 O48 2.002 1_554 S
Fe47 O57 1.976 . S
Fe47 O61 1.996 . S
Fe47 O64 1.997 1_554 S
O48 Fe47 2.002 1_556 S
O48 C65 1.295 . S
O49 Fe44 1.997 1_556 S
O49 C65 1.235 . S
O50 Fe44 2.002 1_556 S
O50 C51 1.295 . S
C51 O50 1.295 . S
C51 O53 1.235 . S
C52 O57 1.287 . S
C52 O58 1.255 . S
O53 Fe45 1.997 1_556 S
O53 C51 1.235 . S
C54 O60 1.287 . S
C54 O61 1.255 . S
O55 Fe44 1.976 . S
O55 C62 1.287 . S
O56 Fe45 1.996 . S
O56 C62 1.255 . S
O57 Fe47 1.976 . S
O57 C52 1.287 . S
O58 Fe44 1.996 . S
O58 C52 1.255 . S
C59 O63 1.295 . S
C59 O64 1.235 . S
O60 Fe45 1.976 . S
O60 C54 1.287 . S
O61 Fe47 1.996 . S
O61 C54 1.255 . S
C62 O55 1.287 . S
C62 O56 1.255 . S
O63 Fe45 2.002 1_556 S
O63 C59 1.295 . S
O64 Fe47 1.997 1_556 S
O64 C59 1.235 . S
C65 O48 1.295 . S
C65 O49 1.235 . S
Fe66 O68 1.918 . S
Fe66 O71 1.997 1_554 S
Fe66 O72 2.002 1_554 S
Fe66 O77 1.976 . S
Fe66 O80 1.996 . S
Fe67 O68 1.918 . S
Fe67 O75 1.997 1_554 S
Fe67 O78 1.996 . S
Fe67 O82 1.976 . S
Fe67 O85 2.002 1_554 S
O68 Fe66 1.918 . S
O68 Fe67 1.918 . S
O68 Fe69 1.918 . S
Fe69 O68 1.918 . S
Fe69 O70 2.002 1_554 S
Fe69 O79 1.976 . S
Fe69 O83 1.996 . S
Fe69 O86 1.997 1_554 S
O70 Fe69 2.002 1_556 S
O70 C87 1.295 . S
O71 Fe66 1.997 1_556 S
O71 C87 1.235 . S
O72 Fe66 2.002 1_556 S
O72 C73 1.295 . S
C73 O72 1.295 . S
C73 O75 1.235 . S
C74 O79 1.287 . S
C74 O80 1.255 . S
O75 Fe67 1.997 1_556 S
O75 C73 1.235 . S
C76 O82 1.287 . S
C76 O83 1.255 . S
O77 Fe66 1.976 . S
O77 C84 1.287 . S
O78 Fe67 1.996 . S
O78 C84 1.255 . S
O79 Fe69 1.976 . S
O79 C74 1.287 . S
O80 Fe66 1.996 . S
O80 C74 1.255 . S
C81 O85 1.295 . S
C81 O86 1.235 . S
O82 Fe67 1.976 . S
O82 C76 1.287 . S
O83 Fe69 1.996 . S
O83 C76 1.255 . S
C84 O77 1.287 . S
C84 O78 1.255 . S
O85 Fe67 2.002 1_556 S
O85 C81 1.295 . S
O86 Fe69 1.997 1_556 S
O86 C81 1.235 . S
C87 O70 1.295 . S
C87 O71 1.235 . S
Fe88 O90 1.918 . S
Fe88 O93 1.997 1_554 S
Fe88 O94 2.002 1_554 S
Fe88 O99 1.976 . S
Fe88 O102 1.996 . S
Fe89 O90 1.918 . S
Fe89 O97 1.997 1_554 S
Fe89 O100 1.996 . S
Fe89 O104 1.976 . S
Fe89 O107 2.002 1_554 S
O90 Fe88 1.918 . S
O90 Fe89 1.918 . S
O90 Fe91 1.918 . S
Fe91 O90 1.918 . S
Fe91 O92 2.002 1_554 S
Fe91 O101 1.976 . S
Fe91 O105 1.996 . S
Fe91 O108 1.997 1_554 S
O92 Fe91 2.002 1_556 S
O92 C109 1.295 . S
O93 Fe88 1.997 1_556 S
O93 C109 1.235 . S
O94 Fe88 2.002 1_556 S
O94 C95 1.295 . S
C95 O94 1.295 . S
C95 O97 1.235 . S
C96 O101 1.287 . S
C96 O102 1.255 . S
O97 Fe89 1.997 1_556 S
O97 C95 1.235 . S
C98 O104 1.287 . S
C98 O105 1.255 . S
O99 Fe88 1.976 . S
O99 C106 1.287 . S
O100 Fe89 1.996 . S
O100 C106 1.255 . S
O101 Fe91 1.976 . S
O101 C96 1.287 . S
O102 Fe88 1.996 . S
O102 C96 1.255 . S
C103 O107 1.295 . S
C103 O108 1.235 . S
O104 Fe89 1.976 . S
O104 C98 1.287 . S
O105 Fe91 1.996 . S
O105 C98 1.255 . S
C106 O99 1.287 . S
C106 O100 1.255 . S
O107 Fe89 2.002 1_556 S
O107 C103 1.295 . S
O108 Fe91 1.997 1_556 S
O108 C103 1.235 . S
C109 O92 1.295 . S
C109 O93 1.235 . S
Fe110 O112 1.918 . S
Fe110 O115 1.997 1_554 S
Fe110 O116 2.002 1_554 S
Fe110 O121 1.976 . S
Fe110 O124 1.996 . S
Fe111 O112 1.918 . S
Fe111 O119 1.997 1_554 S
Fe111 O122 1.996 . S
Fe111 O126 1.976 . S
Fe111 O129 2.002 1_554 S
O112 Fe110 1.918 . S
O112 Fe111 1.918 . S
O112 Fe113 1.918 . S
Fe113 O112 1.918 . S
Fe113 O114 2.002 1_554 S
Fe113 O123 1.976 . S
Fe113 O127 1.996 . S
Fe113 O130 1.997 1_554 S
O114 Fe113 2.002 1_556 S
O114 C131 1.295 . S
O115 Fe110 1.997 1_556 S
O115 C131 1.235 . S
O116 Fe110 2.002 1_556 S
O116 C117 1.295 . S
C117 O116 1.295 . S
C117 O119 1.235 . S
C118 O123 1.287 . S
C118 O124 1.255 . S
O119 Fe111 1.997 1_556 S
O119 C117 1.235 . S
C120 O126 1.287 . S
C120 O127 1.255 . S
O121 Fe110 1.976 . S
O121 C128 1.287 . S
O122 Fe111 1.996 . S
O122 C128 1.255 . S
O123 Fe113 1.976 . S
O123 C118 1.287 . S
O124 Fe110 1.996 . S
O124 C118 1.255 . S
C125 O129 1.295 . S
C125 O130 1.235 . S
O126 Fe111 1.976 . S
O126 C120 1.287 . S
O127 Fe113 1.996 . S
O127 C120 1.255 . S
C128 O121 1.287 . S
C128 O122 1.255 . S
O129 Fe111 2.002 1_556 S
O129 C125 1.295 . S
O130 Fe113 1.997 1_556 S
O130 C125 1.235 . S
C131 O114 1.295 . S
C131 O115 1.235 . S
Fe132 O134 1.918 . S
Fe132 O137 1.997 . S
Fe132 O138 2.002 . S
Fe132 O143 1.976 . S
Fe132 O146 1.996 . S
Fe133 O134 1.918 . S
Fe133 O141 1.997 . S
Fe133 O144 1.996 . S
Fe133 O148 1.976 . S
Fe133 O151 2.002 . S
O134 Fe132 1.918 . S
O134 Fe133 1.918 . S
O134 Fe135 1.918 . S
Fe135 O134 1.918 . S
Fe135 O136 2.002 . S
Fe135 O145 1.976 . S
Fe135 O149 1.996 . S
Fe135 O152 1.997 . S
O136 Fe135 2.002 . S
O136 C153 1.295 . S
O137 Fe132 1.997 . S
O137 C153 1.235 . S
O138 Fe132 2.002 . S
O138 C139 1.295 . S
C139 O138 1.295 . S
C139 O141 1.235 . S
C140 O145 1.287 . S
C140 O146 1.255 . S
O141 Fe133 1.997 . S
O141 C139 1.235 . S
C142 O148 1.287 . S
C142 O149 1.255 . S
O143 Fe132 1.976 . S
O143 C150 1.287 . S
O144 Fe133 1.996 . S
O144 C150 1.255 . S
O145 Fe135 1.976 . S
O145 C140 1.287 . S
O146 Fe132 1.996 . S
O146 C140 1.255 . S
C147 O151 1.295 . S
C147 O152 1.235 . S
O148 Fe133 1.976 . S
O148 C142 1.287 . S
O149 Fe135 1.996 . S
O149 C142 1.255 . S
C150 O143 1.287 . S
C150 O144 1.255 . S
O151 Fe133 2.002 . S
O151 C147 1.295 . S
O152 Fe135 1.997 . S
O152 C147 1.235 . S
C153 O136 1.295 . S
C153 O137 1.235 . S
Fe154 O156 1.918 . S
Fe154 O159 1.997 . S
Fe154 O160 2.002 . S
Fe154 O165 1.976 . S
Fe154 O168 1.996 . S
Fe155 O156 1.918 . S
Fe155 O163 1.997 . S
Fe155 O166 1.996 . S
Fe155 O170 1.976 . S
Fe155 O173 2.002 . S
O156 Fe154 1.918 . S
O156 Fe155 1.918 . S
O156 Fe157 1.918 . S
Fe157 O156 1.918 . S
Fe157 O158 2.002 . S
Fe157 O167 1.976 . S
Fe157 O171 1.996 . S
Fe157 O174 1.997 . S
O158 Fe157 2.002 . S
O158 C175 1.295 . S
O159 Fe154 1.997 . S
O159 C175 1.235 . S
O160 Fe154 2.002 . S
O160 C161 1.295 . S
C161 O160 1.295 . S
C161 O163 1.235 . S
C162 O167 1.287 . S
C162 O168 1.255 . S
O163 Fe155 1.997 . S
O163 C161 1.235 . S
C164 O170 1.287 . S
C164 O171 1.255 . S
O165 Fe154 1.976 . S
O165 C172 1.287 . S
O166 Fe155 1.996 . S
O166 C172 1.255 . S
O167 Fe157 1.976 . S
O167 C162 1.287 . S
O168 Fe154 1.996 . S
O168 C162 1.255 . S
C169 O173 1.295 . S
C169 O174 1.235 . S
O170 Fe155 1.976 . S
O170 C164 1.287 . S
O171 Fe157 1.996 . S
O171 C164 1.255 . S
C172 O165 1.287 . S
C172 O166 1.255 . S
O173 Fe155 2.002 . S
O173 C169 1.295 . S
O174 Fe157 1.997 . S
O174 C169 1.235 . S
C175 O158 1.295 . S
C175 O159 1.235 . S
Fe176 O178 1.918 . S
Fe176 O181 1.997 . S
Fe176 O182 2.002 . S
Fe176 O187 1.976 . S
Fe176 O190 1.996 . S
Fe177 O178 1.918 . S
Fe177 O185 1.997 . S
Fe177 O188 1.996 . S
Fe177 O192 1.976 . S
Fe177 O195 2.002 . S
O178 Fe176 1.918 . S
O178 Fe177 1.918 . S
O178 Fe179 1.918 . S
Fe179 O178 1.918 . S
Fe179 O180 2.002 . S
Fe179 O189 1.976 . S
Fe179 O193 1.996 . S
Fe179 O196 1.997 . S
O180 Fe179 2.002 . S
O180 C197 1.295 . S
O181 Fe176 1.997 . S
O181 C197 1.235 . S
O182 Fe176 2.002 . S
O182 C183 1.295 . S
C183 O182 1.295 . S
C183 O185 1.235 . S
C184 O189 1.287 . S
C184 O190 1.255 . S
O185 Fe177 1.997 . S
O185 C183 1.235 . S
C186 O192 1.287 . S
C186 O193 1.255 . S
O187 Fe176 1.976 . S
O187 C194 1.287 . S
O188 Fe177 1.996 . S
O188 C194 1.255 . S
O189 Fe179 1.976 . S
O189 C184 1.287 . S
O190 Fe176 1.996 . S
O190 C184 1.255 . S
C191 O195 1.295 . S
C191 O196 1.235 . S
O192 Fe177 1.976 . S
O192 C186 1.287 . S
O193 Fe179 1.996 . S
O193 C186 1.255 . S
C194 O187 1.287 . S
C194 O188 1.255 . S
O195 Fe177 2.002 . S
O195 C191 1.295 . S
O196 Fe179 1.997 . S
O196 C191 1.235 . S
C197 O180 1.295 . S
C197 O181 1.235 . S
Fe198 O200 1.918 . S
Fe198 O203 1.997 . S
Fe198 O204 2.002 . S
Fe198 O209 1.976 . S
Fe198 O212 1.996 . S
Fe199 O200 1.918 . S
Fe199 O207 1.997 . S
Fe199 O210 1.996 . S
Fe199 O214 1.976 . S
Fe199 O217 2.002 . S
O200 Fe198 1.918 . S
O200 Fe199 1.918 . S
O200 Fe201 1.918 . S
Fe201 O200 1.918 . S
Fe201 O202 2.002 . S
Fe201 O211 1.976 . S
Fe201 O215 1.996 . S
Fe201 O218 1.997 . S
O202 Fe201 2.002 . S
O202 C219 1.295 . S
O203 Fe198 1.997 . S
O203 C219 1.235 . S
O204 Fe198 2.002 . S
O204 C205 1.295 . S
C205 O204 1.295 . S
C205 O207 1.235 . S
C206 O211 1.287 . S
C206 O212 1.255 . S
O207 Fe199 1.997 . S
O207 C205 1.235 . S
C208 O214 1.287 . S
C208 O215 1.255 . S
O209 Fe198 1.976 . S
O209 C216 1.287 . S
O210 Fe199 1.996 . S
O210 C216 1.255 . S
O211 Fe201 1.976 . S
O211 C206 1.287 . S
O212 Fe198 1.996 . S
O212 C206 1.255 . S
C213 O217 1.295 . S
C213 O218 1.235 . S
O214 Fe199 1.976 . S
O214 C208 1.287 . S
O215 Fe201 1.996 . S
O215 C208 1.255 . S
C216 O209 1.287 . S
C216 O210 1.255 . S
O217 Fe199 2.002 . S
O217 C213 1.295 . S
O218 Fe201 1.997 . S
O218 C213 1.235 . S
C219 O202 1.295 . S
C219 O203 1.235 . S
Fe220 O222 1.918 . S
Fe220 O225 1.997 . S
Fe220 O226 2.002 . S
Fe220 O231 1.976 . S
Fe220 O234 1.996 . S
Fe221 O222 1.918 . S
Fe221 O229 1.997 . S
Fe221 O232 1.996 . S
Fe221 O236 1.976 . S
Fe221 O239 2.002 . S
O222 Fe220 1.918 . S
O222 Fe221 1.918 . S
O222 Fe223 1.918 . S
Fe223 O222 1.918 . S
Fe223 O224 2.002 . S
Fe223 O233 1.976 . S
Fe223 O237 1.996 . S
Fe223 O240 1.997 . S
O224 Fe223 2.002 . S
O224 C241 1.295 . S
O225 Fe220 1.997 . S
O225 C241 1.235 . S
O226 Fe220 2.002 . S
O226 C227 1.295 . S
C227 O226 1.295 . S
C227 O229 1.235 . S
C228 O233 1.287 . S
C228 O234 1.255 . S
O229 Fe221 1.997 . S
O229 C227 1.235 . S
C230 O236 1.287 . S
C230 O237 1.255 . S
O231 Fe220 1.976 . S
O231 C238 1.287 . S
O232 Fe221 1.996 . S
O232 C238 1.255 . S
O233 Fe223 1.976 . S
O233 C228 1.287 . S
O234 Fe220 1.996 . S
O234 C228 1.255 . S
C235 O239 1.295 . S
C235 O240 1.235 . S
O236 Fe221 1.976 . S
O236 C230 1.287 . S
O237 Fe223 1.996 . S
O237 C230 1.255 . S
C238 O231 1.287 . S
C238 O232 1.255 . S
O239 Fe221 2.002 . S
O239 C235 1.295 . S
O240 Fe223 1.997 . S
O240 C235 1.235 . S
C241 O224 1.295 . S
C241 O225 1.235 . S
Fe242 O244 1.918 . S
Fe242 O247 1.997 . S
Fe242 O248 2.002 . S
Fe242 O253 1.976 . S
Fe242 O256 1.996 . S
Fe243 O244 1.918 . S
Fe243 O251 1.997 . S
Fe243 O254 1.996 . S
Fe243 O258 1.976 . S
Fe243 O261 2.002 . S
O244 Fe242 1.918 . S
O244 Fe243 1.918 . S
O244 Fe245 1.918 . S
Fe245 O244 1.918 . S
Fe245 O246 2.002 . S
Fe245 O255 1.976 . S
Fe245 O259 1.996 . S
Fe245 O262 1.997 . S
O246 Fe245 2.002 . S
O246 C263 1.295 . S
O247 Fe242 1.997 . S
O247 C263 1.235 . S
O248 Fe242 2.002 . S
O248 C249 1.295 . S
C249 O248 1.295 . S
C249 O251 1.235 . S
C250 O255 1.287 . S
C250 O256 1.255 . S
O251 Fe243 1.997 . S
O251 C249 1.235 . S
C252 O258 1.287 . S
C252 O259 1.255 . S
O253 Fe242 1.976 . S
O253 C260 1.287 . S
O254 Fe243 1.996 . S
O254 C260 1.255 . S
O255 Fe245 1.976 . S
O255 C250 1.287 . S
O256 Fe242 1.996 . S
O256 C250 1.255 . S
C257 O261 1.295 . S
C257 O262 1.235 . S
O258 Fe243 1.976 . S
O258 C252 1.287 . S
O259 Fe245 1.996 . S
O259 C252 1.255 . S
C260 O253 1.287 . S
C260 O254 1.255 . S
O261 Fe243 2.002 . S
O261 C257 1.295 . S
O262 Fe245 1.997 . S
O262 C257 1.235 . S
C263 O246 1.295 . S
C263 O247 1.235 . S
C8 C184 1.266 . S
C216 C30 1.266 . S
C62 C228 1.267 . S
C260 C76 1.266 . S
C98 C150 1.266 . S
C172 C120 1.267 . S
C249 C81 1.389 . S
C103 C139 1.389 . S
C161 C125 1.389 . S
C197 C21 1.389 . S
C205 C43 1.389 . S
C51 C241 1.389 . S
C162 C10 1.398 1_565 S
C186 C32 1.398 . S
C206 C52 1.398 1_455 S
C84 C230 1.398 1_565 S
C106 C250 1.398 . S
C140 C128 1.398 1_655 S
C235 C73 1.487 1_545 S
C95 C263 1.487 . S
C153 C117 1.487 1_655 S
C175 C15 1.487 1_565 S
C37 C191 1.487 . S
C65 C219 1.487 1_655 S
C18 C238 1.523 . S
C40 C252 1.523 . S
C142 C54 1.523 . S
C164 C74 1.523 . S
C96 C194 1.523 . S
C208 C118 1.523 . S
C87 C169 1.669 . S
C109 C183 1.669 . S
C213 C131 1.669 . S
C227 C7 1.669 . S
C257 C29 1.669 . S
C147 C59 1.669 . S
