# Generated by pormake.
# Topology som, (6)-cn, num edge types: 1
# Building blocks:
#     Node 0, Type 0, BuildingBlock: MIDCAF_clean_sbu_0, # of connection points: 6
#     Node 1, Type 0, BuildingBlock: MIDCAF_clean_sbu_0, # of connection points: 6
#     Node 2, Type 0, BuildingBlock: MIDCAF_clean_sbu_0, # of connection points: 6
#     Node 3, Type 0, BuildingBlock: MIDCAF_clean_sbu_0, # of connection points: 6
#     Node 4, Type 0, BuildingBlock: MIDCAF_clean_sbu_0, # of connection points: 6
#     Node 5, Type 0, BuildingBlock: MIDCAF_clean_sbu_0, # of connection points: 6
#     Node 6, Type 0, BuildingBlock: MIDCAF_clean_sbu_0, # of connection points: 6
#     Node 7, Type 0, BuildingBlock: MIDCAF_clean_sbu_0, # of connection points: 6
#     Node 8, Type 0, BuildingBlock: MIDCAF_clean_sbu_0, # of connection points: 6
#     Node 9, Type 0, BuildingBlock: MIDCAF_clean_sbu_0, # of connection points: 6
#     Node 10, Type 0, BuildingBlock: MIDCAF_clean_sbu_0, # of connection points: 6
#     Node 11, Type 0, BuildingBlock: MIDCAF_clean_sbu_0, # of connection points: 6
#     Node 12, Type 0, BuildingBlock: MIDCAF_clean_sbu_0, # of connection points: 6
#     Node 13, Type 0, BuildingBlock: MIDCAF_clean_sbu_0, # of connection points: 6
#     Node 14, Type 0, BuildingBlock: MIDCAF_clean_sbu_0, # of connection points: 6
#     Node 15, Type 0, BuildingBlock: MIDCAF_clean_sbu_0, # of connection points: 6
#     Node 16, Type 0, BuildingBlock: MIDCAF_clean_sbu_0, # of connection points: 6
#     Node 17, Type 0, BuildingBlock: MIDCAF_clean_sbu_0, # of connection points: 6
#     Node 18, Type 0, BuildingBlock: MIDCAF_clean_sbu_0, # of connection points: 6
#     Node 19, Type 0, BuildingBlock: MIDCAF_clean_sbu_0, # of connection points: 6
#     Node 20, Type 0, BuildingBlock: MIDCAF_clean_sbu_0, # of connection points: 6
#     Node 21, Type 0, BuildingBlock: MIDCAF_clean_sbu_0, # of connection points: 6
#     Node 22, Type 0, BuildingBlock: MIDCAF_clean_sbu_0, # of connection points: 6
#     Node 23, Type 0, BuildingBlock: MIDCAF_clean_sbu_0, # of connection points: 6
#     Node 24, Type 0, BuildingBlock: MIDCAF_clean_sbu_0, # of connection points: 6
#     Node 25, Type 0, BuildingBlock: MIDCAF_clean_sbu_0, # of connection points: 6
#     Node 26, Type 0, BuildingBlock: MIDCAF_clean_sbu_0, # of connection points: 6
#     Node 27, Type 0, BuildingBlock: MIDCAF_clean_sbu_0, # of connection points: 6
#     Node 28, Type 0, BuildingBlock: MIDCAF_clean_sbu_0, # of connection points: 6
#     Node 29, Type 0, BuildingBlock: MIDCAF_clean_sbu_0, # of connection points: 6
#     Node 30, Type 0, BuildingBlock: MIDCAF_clean_sbu_0, # of connection points: 6
#     Node 31, Type 0, BuildingBlock: MIDCAF_clean_sbu_0, # of connection points: 6
#     Edge 32, Type (0, 0), None
#     Edge 33, Type (0, 0), None
#     Edge 34, Type (0, 0), None
#     Edge 35, Type (0, 0), None
#     Edge 36, Type (0, 0), None
#     Edge 37, Type (0, 0), None
#     Edge 38, Type (0, 0), None
#     Edge 39, Type (0, 0), None
#     Edge 40, Type (0, 0), None
#     Edge 41, Type (0, 0), None
#     Edge 42, Type (0, 0), None
#     Edge 43, Type (0, 0), None
#     Edge 44, Type (0, 0), None
#     Edge 45, Type (0, 0), None
#     Edge 46, Type (0, 0), None
#     Edge 47, Type (0, 0), None
#     Edge 48, Type (0, 0), None
#     Edge 49, Type (0, 0), None
#     Edge 50, Type (0, 0), None
#     Edge 51, Type (0, 0), None
#     Edge 52, Type (0, 0), None
#     Edge 53, Type (0, 0), None
#     Edge 54, Type (0, 0), None
#     Edge 55, Type (0, 0), None
#     Edge 56, Type (0, 0), None
#     Edge 57, Type (0, 0), None
#     Edge 58, Type (0, 0), None
#     Edge 59, Type (0, 0), None
#     Edge 60, Type (0, 0), None
#     Edge 61, Type (0, 0), None
#     Edge 62, Type (0, 0), None
#     Edge 63, Type (0, 0), None
#     Edge 64, Type (0, 0), None
#     Edge 65, Type (0, 0), None
#     Edge 66, Type (0, 0), None
#     Edge 67, Type (0, 0), None
#     Edge 68, Type (0, 0), None
#     Edge 69, Type (0, 0), None
#     Edge 70, Type (0, 0), None
#     Edge 71, Type (0, 0), None
#     Edge 72, Type (0, 0), None
#     Edge 73, Type (0, 0), None
#     Edge 74, Type (0, 0), None
#     Edge 75, Type (0, 0), None
#     Edge 76, Type (0, 0), None
#     Edge 77, Type (0, 0), None
#     Edge 78, Type (0, 0), None
#     Edge 79, Type (0, 0), None
#     Edge 80, Type (0, 0), None
#     Edge 81, Type (0, 0), None
#     Edge 82, Type (0, 0), None
#     Edge 83, Type (0, 0), None
#     Edge 84, Type (0, 0), None
#     Edge 85, Type (0, 0), None
#     Edge 86, Type (0, 0), None
#     Edge 87, Type (0, 0), None
#     Edge 88, Type (0, 0), None
#     Edge 89, Type (0, 0), None
#     Edge 90, Type (0, 0), None
#     Edge 91, Type (0, 0), None
#     Edge 92, Type (0, 0), None
#     Edge 93, Type (0, 0), None
#     Edge 94, Type (0, 0), None
#     Edge 95, Type (0, 0), None
#     Edge 96, Type (0, 0), None
#     Edge 97, Type (0, 0), None
#     Edge 98, Type (0, 0), None
#     Edge 99, Type (0, 0), None
#     Edge 100, Type (0, 0), None
#     Edge 101, Type (0, 0), None
#     Edge 102, Type (0, 0), None
#     Edge 103, Type (0, 0), None
#     Edge 104, Type (0, 0), None
#     Edge 105, Type (0, 0), None
#     Edge 106, Type (0, 0), None
#     Edge 107, Type (0, 0), None
#     Edge 108, Type (0, 0), None
#     Edge 109, Type (0, 0), None
#     Edge 110, Type (0, 0), None
#     Edge 111, Type (0, 0), None
#     Edge 112, Type (0, 0), None
#     Edge 113, Type (0, 0), None
#     Edge 114, Type (0, 0), None
#     Edge 115, Type (0, 0), None
#     Edge 116, Type (0, 0), None
#     Edge 117, Type (0, 0), None
#     Edge 118, Type (0, 0), None
#     Edge 119, Type (0, 0), None
#     Edge 120, Type (0, 0), None
#     Edge 121, Type (0, 0), None
#     Edge 122, Type (0, 0), None
#     Edge 123, Type (0, 0), None
#     Edge 124, Type (0, 0), None
#     Edge 125, Type (0, 0), None
#     Edge 126, Type (0, 0), None
#     Edge 127, Type (0, 0), None
# Relax obj value: 0.166
# Max RMSD: 0.192
# Mean RMSD: 0.192
data_MOF--net-som--node1-MIDCAF_clean_sbu_0--edge1-none
_symmetry_space_group_name_H-M    P1
_symmetry_Int_Tables_number       1
_symmetry_cell_setting            triclinic
loop_
_symmetry_equiv_pos_as_xyz
'x, y, z'
_cell_length_a     7.4552249
_cell_length_b     27.373747
_cell_length_c     55.483907
_cell_angle_alpha  91.042294
_cell_angle_beta   89.860308
_cell_angle_gamma 90.320097
loop_
_atom_site_label
_atom_site_type_symbol
_atom_site_fract_x
_atom_site_fract_y
_atom_site_fract_z
_atom_type_partial_charge
Zn0 Zn 0.75279 0.54405 0.10382 0.0
Zn1 Zn 0.18227 0.40394 0.03402 0.0
Zn2 Zn 0.93793 0.49213 0.07386 0.0
C3 C 0.34189 0.49856 0.06048 0.0
C4 C -0.03132 0.46983 0.01784 0.0
O5 O 0.6596 0.49951 0.06277 0.0
O6 O 0.50473 0.53313 0.09252 0.0
C7 C -0.0094 0.47406 0.1277 0.0
O8 O 0.19615 0.52265 0.06511 0.0
O9 O 0.3429 0.45552 0.05122 0.0
O10 O 0.0502 0.43791 1.00523 0.0
O11 O -0.01899 0.466 0.04042 0.0
O12 O 0.87635 0.50777 0.13089 0.0
O13 O 0.01488 0.45608 0.10646 0.0
O14 O 0.07937 0.56114 0.07734 0.0
O15 O 0.86506 0.60693 0.09336 0.0
C16 C 0.01795 0.60316 0.08371 0.0
O17 O -0.0075 0.42066 0.08657 0.0
O18 O 0.01053 0.36621 0.05673 0.0
C19 C 0.51021 0.51447 0.07158 0.0
C20 C 0.93432 0.38149 0.07604 0.0
Zn21 Zn 0.39175 0.70387 0.10508 0.0
Zn22 Zn -0.02858 0.8439 0.0386 0.0
Zn23 Zn 0.21649 0.75653 0.07463 0.0
C24 C 0.80641 0.75121 0.06347 0.0
C25 C 0.15382 0.77629 0.01841 0.0
O26 O 0.49005 0.74448 0.06295 0.0
O27 O 0.63673 0.72111 0.09521 0.0
C28 C 0.15322 0.77562 0.12857 0.0
O29 O 0.95218 0.72775 0.06805 0.0
O30 O 0.80482 0.79428 0.05509 0.0
O31 O 0.06992 0.80947 1.0076 0.0
O32 O 0.15797 0.77907 0.04118 0.0
O33 O 0.24771 0.73784 0.1315 0.0
O34 O 0.14842 0.7955 0.10782 0.0
O35 O 0.06937 0.68869 0.07978 0.0
O36 O 0.29255 0.64158 0.09107 0.0
C37 C 0.13381 0.64614 0.08366 0.0
O38 O 0.22248 0.82775 0.09101 0.0
O39 O 0.17687 0.87404 0.05907 0.0
C40 C 0.63732 0.7343 0.07354 0.0
C41 C 0.25885 0.86586 0.07872 0.0
Zn42 Zn 0.75991 0.71247 0.16912 0.0
Zn43 Zn 0.18384 0.84822 0.23891 0.0
Zn44 Zn 0.94665 0.76171 0.19895 0.0
C45 C 0.35212 0.75695 0.21256 0.0
C46 C 0.00336 0.77618 0.25572 0.0
O47 O 0.6698 0.75349 0.21095 0.0
O48 O 0.51367 0.72453 0.18011 0.0
C49 C -0.00038 0.77988 0.14487 0.0
O50 O 0.20575 0.73286 0.20801 0.0
O51 O 0.35421 0.80032 0.22139 0.0
O52 O 0.079 0.80956 0.26819 0.0
O53 O -0.00035 0.78216 0.23319 0.0
O54 O 0.8829 0.74663 0.1416 0.0
O55 O 0.02362 0.79809 0.16612 0.0
O56 O 0.08937 0.69461 0.19331 0.0
O57 O 0.8666 0.64917 0.17903 0.0
C58 C 0.02421 0.65288 0.18713 0.0
O59 O -0.02398 0.83287 0.18451 0.0
O60 O -0.0088 0.88023 0.21731 0.0
C61 C 0.51947 0.74071 0.20152 0.0
C62 C 0.92349 0.87053 0.19663 0.0
Zn63 Zn -0.02056 0.42163 0.23671 0.0
Zn64 Zn 0.39165 0.55028 0.16607 0.0
Zn65 Zn 0.21492 0.50175 0.19746 0.0
C66 C 0.1367 0.60977 0.18663 0.0
C67 C 0.14504 0.47831 0.14395 0.0
O68 O 0.23302 0.42985 0.1821 0.0
O69 O 0.17935 0.38961 0.2159 0.0
C70 C 0.16917 0.49067 0.25556 0.0
O71 O 0.06912 0.56766 0.19087 0.0
O72 O 0.29627 0.61374 0.17926 0.0
O73 O 0.24452 0.51513 0.14026 0.0
O74 O 0.13922 0.45987 0.1651 0.0
O75 O 0.08274 0.45835 0.26685 0.0
O76 O 0.16937 0.48722 0.23277 0.0
O77 O 0.94978 0.53005 0.20317 0.0
O78 O 0.80265 0.46628 0.21939 0.0
C79 C 0.80394 0.50758 0.20914 0.0
O80 O 0.48702 0.51454 0.2096 0.0
O81 O 0.63469 0.53263 0.17642 0.0
C82 C 0.2605 0.39332 0.19574 0.0
C83 C 0.63489 0.52254 0.19853 0.0
Zn84 Zn 0.67023 0.5794 0.992 0.0
Zn85 Zn 0.07722 0.46542 0.91395 0.0
Zn86 Zn 0.89428 0.50361 0.94847 0.0
C87 C 0.78576 0.40264 0.92743 0.0
C88 C 0.87191 0.53851 0.89379 0.0
O89 O 0.89707 0.57671 0.93588 0.0
O90 O 0.8572 0.61523 0.97106 0.0
C91 C 0.87505 0.51095 1.00702 0.0
O92 O 0.74514 0.43797 0.94172 0.0
O93 O 0.9242 0.4048 0.91426 0.0
O94 O 0.01104 0.51402 0.88887 0.0
O95 O 0.82694 0.5452 0.91606 0.0
O96 O 0.79172 0.54206 0.01986 0.0
O97 O 0.86581 0.51574 0.98441 0.0
O98 O 0.62997 0.47362 0.95572 0.0
O99 O 0.48484 0.53562 0.97437 0.0
C100 C 0.48426 0.49478 0.96293 0.0
O101 O 0.16516 0.49375 0.96153 0.0
O102 O 0.31629 0.46539 0.93018 0.0
C103 C 0.92864 0.61295 0.95018 0.0
C104 C 0.31324 0.48005 0.95189 0.0
Zn105 Zn -0.02063 0.16094 0.99263 0.0
Zn106 Zn 0.53103 0.26743 0.90924 0.0
Zn107 Zn 0.75479 0.25469 0.94824 0.0
C108 C 0.69287 0.35603 0.92877 0.0
C109 C 0.86094 0.22601 0.89659 0.0
O110 O 0.60778 0.18882 0.94359 0.0
O111 O 0.76526 0.14185 0.96844 0.0
C112 C 0.84464 0.24688 1.00456 0.0
O113 O 0.72001 0.33044 0.94728 0.0
O114 O 0.63269 0.3366 0.90952 0.0
O115 O 0.69674 0.21657 0.89232 0.0
O116 O 0.90374 0.24615 0.91662 0.0
O117 O 0.90618 0.21379 0.01782 0.0
O118 O 0.85833 0.23936 0.98185 0.0
O119 O 0.00688 0.22641 0.95932 0.0
O120 O 0.2116 0.18438 0.97735 0.0
C121 C 0.17279 0.21593 0.96188 0.0
O122 O 0.47915 0.23187 0.95516 0.0
O123 O 0.29136 0.25441 0.92694 0.0
C124 C 0.64491 0.14677 0.95219 0.0
C125 C 0.31794 0.23736 0.94764 0.0
Zn126 Zn 0.18663 0.30795 0.8489 0.0
Zn127 Zn 0.75109 0.15747 0.78332 0.0
Zn128 Zn 0.00172 0.24861 0.82173 0.0
C129 C 0.59442 0.25375 0.80736 0.0
C130 C -0.03592 0.22303 0.76668 0.0
O131 O 0.27709 0.25501 0.80956 0.0
O132 O 0.43198 0.29641 0.8369 0.0
C133 C -0.02058 0.2351 0.87603 0.0
O134 O 0.74237 0.27701 0.81213 0.0
O135 O 0.58896 0.20995 0.79907 0.0
O136 O 0.88298 0.19073 0.75414 0.0
O137 O 0.95326 0.21905 0.78927 0.0
O138 O 0.07844 0.27287 0.87744 0.0
O139 O 0.94759 0.21463 0.8555 0.0
O140 O 0.85208 0.31674 0.82493 0.0
O141 O 0.06304 0.36794 0.83773 0.0
C142 C 0.90646 0.36039 0.82987 0.0
O143 O 0.95854 0.17775 0.8366 0.0
O144 O 0.92643 0.12341 0.80665 0.0
C145 C 0.42639 0.27238 0.81732 0.0
C146 C 0.00533 0.13759 0.82597 0.0
Zn147 Zn 0.9373 0.60032 0.7851 0.0
Zn148 Zn 0.50798 0.45535 0.85165 0.0
Zn149 Zn 0.68779 0.51164 0.8217 0.0
C150 C 0.78161 0.40128 0.83015 0.0
C151 C 0.72832 0.53117 0.87622 0.0
O152 O 0.6961 0.5831 0.83777 0.0
O153 O 0.73275 0.63038 0.80594 0.0
C154 C 0.75408 0.5311 0.76614 0.0
O155 O 0.83765 0.44461 0.82569 0.0
O156 O 0.62558 0.39448 0.83839 0.0
O157 O 0.63544 0.49266 0.87885 0.0
O158 O 0.74437 0.54985 0.85528 0.0
O159 O 0.83584 0.564 0.7546 0.0
O160 O 0.74883 0.53603 0.78881 0.0
O161 O 0.95173 0.4836 0.81374 0.0
O162 O 0.10369 0.55041 0.80135 0.0
C163 C 0.09927 0.50693 0.8093 0.0
O164 O 0.41606 0.50159 0.80927 0.0
O165 O 0.26524 0.47107 0.8398 0.0
C166 C 0.65366 0.62097 0.82575 0.0
C167 C 0.26753 0.4888 0.81896 0.0
Zn168 Zn 0.1669 0.90724 0.53352 0.0
Zn169 Zn 0.73661 0.05742 0.59901 0.0
Zn170 Zn 0.92101 0.99855 0.57181 0.0
C171 C 0.01619 0.11027 0.57945 0.0
C172 C 0.94422 0.98573 0.62632 0.0
O173 O -0.0366 0.92812 0.58692 0.0
O174 O -0.01107 0.87365 0.55697 0.0
C175 C 0.95851 0.97285 0.51642 0.0
O176 O 0.07105 0.06676 0.57472 0.0
O177 O 0.85976 0.11746 0.58743 0.0
O178 O 0.84492 0.02317 0.62771 0.0
O179 O -0.02424 0.96517 0.6058 0.0
O180 O 0.03892 0.9402 0.50414 0.0
O181 O -0.03176 0.96954 0.53907 0.0
O182 O 0.18146 0.02687 0.56199 0.0
O183 O 0.33172 0.95949 0.54919 0.0
C184 C 0.32837 0.00338 0.55736 0.0
O185 O 0.64591 0.00465 0.55957 0.0
O186 O 0.49134 0.04552 0.58708 0.0
C187 C 0.91313 0.88797 0.5765 0.0
C188 C 0.49685 0.02183 0.5674 0.0
Zn189 Zn 0.4135 0.20628 0.60094 0.0
Zn190 Zn -0.01073 0.35043 0.53421 0.0
Zn191 Zn 0.23473 0.26184 0.57081 0.0
C192 C 0.82451 0.25676 0.55841 0.0
C193 C 0.17235 0.28154 0.51509 0.0
O194 O 0.50754 0.25187 0.55866 0.0
O195 O 0.65714 0.22142 0.58912 0.0
C196 C 0.19288 0.28152 0.62541 0.0
O197 O -0.02906 0.23334 0.56276 0.0
O198 O 0.82206 0.30025 0.55048 0.0
O199 O 0.09139 0.31442 0.50367 0.0
O200 O 0.17619 0.28606 0.53779 0.0
O201 O 0.28664 0.2435 0.62813 0.0
O202 O 0.17639 0.29977 0.6044 0.0
O203 O 0.0848 0.19453 0.57491 0.0
O204 O 0.29614 0.1452 0.58789 0.0
C205 C 0.14072 0.15147 0.57954 0.0
O206 O 0.22198 0.33319 0.58684 0.0
O207 O 0.19234 0.38104 0.5552 0.0
C208 C 0.65547 0.2389 0.56824 0.0
C209 C 0.26848 0.3712 0.57509 0.0
Zn210 Zn 0.8425 0.21512 0.66354 0.0
Zn211 Zn 0.25632 0.33387 0.74043 0.0
Zn212 Zn 0.02529 0.25522 0.69787 0.0
C213 C 0.43541 0.2471 0.71215 0.0
C214 C 0.05506 0.2648 0.75582 0.0
O215 O 0.75392 0.2454 0.71078 0.0
O216 O 0.60257 0.21571 0.67975 0.0
C217 C 0.04917 0.28849 0.64301 0.0
O218 O 0.28846 0.22561 0.70542 0.0
O219 O 0.43736 0.28868 0.72293 0.0
O220 O 0.13685 0.29648 0.76861 0.0
O221 O 0.06231 0.27 0.73324 0.0
O222 O 0.91064 0.26329 0.63824 0.0
O223 O 0.09404 0.29582 0.66521 0.0
O224 O 0.17362 0.18942 0.69161 0.0
O225 O -0.00446 0.1548 0.66442 0.0
C226 C 0.13357 0.15347 0.6776 0.0
O227 O 0.0223 0.32814 0.68486 0.0
O228 O 0.06543 0.36798 0.71964 0.0
C229 C 0.6056 0.23138 0.70129 0.0
C230 C -0.00899 0.36462 0.69901 0.0
Zn231 Zn 0.39163 0.01872 0.66009 0.0
Zn232 Zn 0.93967 0.91143 0.74312 0.0
Zn233 Zn 0.16621 0.00573 0.6989 0.0
C234 C 0.74718 0.96764 0.71298 0.0
C235 C 0.08091 0.99636 0.75544 0.0
O236 O 0.44106 0.9833 0.70621 0.0
O237 O 0.63043 0.0058 0.67795 0.0
C238 C 0.06221 0.97699 0.64693 0.0
O239 O 0.91362 0.97787 0.71028 0.0
O240 O 0.7074 0.93617 0.72851 0.0
O241 O 0.01747 0.96318 0.76864 0.0
O242 O 0.06374 0.98967 0.7327 0.0
O243 O 0.22653 0.96794 0.64266 0.0
O244 O 0.01867 0.99678 0.66703 0.0
O245 O 0.19912 0.08171 0.69776 0.0
O246 O 0.2905 0.08783 0.66012 0.0
C247 C 0.22742 0.10722 0.67921 0.0
O248 O 0.31189 0.94001 0.69397 0.0
O249 O 0.15381 0.89217 0.71871 0.0
C250 C 0.60279 0.98892 0.69871 0.0
C251 C 0.27435 0.89767 0.7024 0.0
Zn252 Zn 0.07698 0.96743 0.41164 0.0
Zn253 Zn 0.67 0.08325 0.48959 0.0
Zn254 Zn 0.89535 0.00643 0.44661 0.0
C255 C 0.48475 0.99814 0.4607 0.0
C256 C 0.8691 0.01419 0.5052 0.0
O257 O 0.1658 0.99644 0.4596 0.0
O258 O 0.316 0.96858 0.42804 0.0
C259 C 0.87058 0.04154 0.39191 0.0
O260 O 0.63047 0.97666 0.45374 0.0
O261 O 0.48538 0.03929 0.47186 0.0
O262 O 0.78631 0.04591 0.51774 0.0
O263 O 0.86342 0.01864 0.48254 0.0
O264 O 0.00792 0.01648 0.38674 0.0
O265 O 0.82963 0.04869 0.4143 0.0
O266 O 0.74642 0.94057 0.44022 0.0
O267 O 0.92406 0.90651 0.41285 0.0
C268 C 0.78673 0.90468 0.42625 0.0
O269 O 0.89997 0.07942 0.434 0.0
O270 O 0.86243 0.11806 0.46918 0.0
C271 C 0.31365 0.98309 0.44979 0.0
C272 C 0.93516 0.11526 0.4484 0.0
Zn273 Zn -0.02156 0.66382 0.49484 0.0
Zn274 Zn 0.5279 0.76856 0.41078 0.0
Zn275 Zn 0.7552 0.75708 0.45002 0.0
C276 C 0.6957 0.85787 0.42846 0.0
C277 C 0.85637 0.72577 0.39828 0.0
O278 O 0.60794 0.69151 0.44525 0.0
O279 O 0.76571 0.64494 0.4703 0.0
C280 C 0.83864 0.74902 0.50665 0.0
O281 O 0.7281 0.83304 0.4471 0.0
O282 O 0.62859 0.8378 0.40979 0.0
O283 O 0.69162 0.71699 0.39406 0.0
O284 O 0.90072 0.7459 0.41826 0.0
O285 O 0.90099 0.71613 0.51996 0.0
O286 O 0.85612 0.74199 0.48394 0.0
O287 O 0.00638 0.72927 0.46182 0.0
O288 O 0.21184 0.68808 0.48012 0.0
C289 C 0.17269 0.71927 0.4645 0.0
O290 O 0.47908 0.73511 0.4575 0.0
O291 O 0.29023 0.75622 0.4291 0.0
C292 C 0.64592 0.64959 0.45394 0.0
C293 C 0.31758 0.74023 0.45001 0.0
Zn294 Zn 0.17873 0.80595 0.35037 0.0
Zn295 Zn 0.74617 0.66105 0.28345 0.0
Zn296 Zn -0.00754 0.74979 0.32276 0.0
C297 C 0.58178 0.75386 0.30788 0.0
C298 C 0.93233 0.73171 0.26663 0.0
O299 O 0.26461 0.75724 0.30948 0.0
O300 O 0.42153 0.79409 0.33819 0.0
C301 C -0.02559 0.7348 0.37766 0.0
O302 O 0.73017 0.77659 0.31291 0.0
O303 O 0.57528 0.71007 0.29965 0.0
O304 O 0.85548 0.69855 0.25415 0.0
O305 O 0.93563 0.72573 0.28918 0.0
O306 O 0.07574 0.77202 0.37927 0.0
O307 O 0.94092 0.71507 0.35694 0.0
O308 O 0.84097 0.81569 0.32767 0.0
O309 O 0.05631 0.86618 0.33976 0.0
C310 C 0.89745 0.85891 0.33273 0.0
O311 O -0.02868 0.67965 0.33845 0.0
O312 O 0.93747 0.63157 0.30596 0.0
C313 C 0.4148 0.7727 0.31791 0.0
C314 C 0.01238 0.64103 0.32621 0.0
Zn315 Zn 0.50022 0.95459 0.35333 0.0
Zn316 Zn 0.93634 0.08679 0.28088 0.0
Zn317 Zn 0.68109 0.00678 0.32131 0.0
C318 C 0.0982 1.00004 0.30867 0.0
C319 C 0.75141 0.01526 0.26465 0.0
O320 O 0.41349 0.99253 0.30869 0.0
O321 O 0.26115 0.97069 0.34094 0.0
C322 C 0.72281 0.03295 0.3751 0.0
O323 O 0.94903 0.97931 0.31476 0.0
O324 O 0.10661 0.04142 0.29854 0.0
O325 O 0.8336 0.04644 0.25209 0.0
O326 O 0.74555 0.02324 0.28716 0.0
O327 O 0.63248 0.99448 0.37893 0.0
O328 O 0.73317 0.04982 0.35369 0.0
O329 O 0.83323 0.94272 0.32832 0.0
O330 O 0.61671 0.89343 0.34052 0.0
C331 C 0.77492 0.89985 0.333 0.0
O332 O 0.66475 0.07991 0.33529 0.0
O333 O 0.73731 0.11893 0.30154 0.0
C334 C 0.26454 0.983 0.31914 0.0
C335 C 0.6498 0.11645 0.32125 0.0
Zn336 Zn 0.30245 0.54834 0.60807 0.0
Zn337 Zn 0.74395 0.40899 0.53749 0.0
Zn338 Zn 0.48175 0.49729 0.5749 0.0
C339 C 0.8898 0.50501 0.56466 0.0
C340 C 0.53711 0.47188 0.51909 0.0
O341 O 0.20565 0.50988 0.56497 0.0
O342 O 0.05636 0.53382 0.59742 0.0
C343 C 0.54322 0.47514 0.62882 0.0
O344 O 0.74315 0.52843 0.56948 0.0
O345 O 0.89326 0.46221 0.55517 0.0
O346 O 0.62914 0.44066 0.50741 0.0
O347 O 0.5435 0.47061 0.54183 0.0
O348 O 0.44315 0.51149 0.63338 0.0
O349 O 0.55139 0.45791 0.60719 0.0
O350 O 0.62118 0.56762 0.5799 0.0
O351 O 0.40167 0.61155 0.59597 0.0
C352 C 0.55347 0.60927 0.58592 0.0
O353 O 0.49618 0.4252 0.58882 0.0
O354 O 0.54312 0.37606 0.55711 0.0
C355 C 0.05791 0.52119 0.57544 0.0
C356 C 0.4559 0.38683 0.57624 0.0
Zn357 Zn 0.91907 0.71894 0.60566 0.0
Zn358 Zn 0.48814 0.84849 0.53374 0.0
Zn359 Zn 0.73171 0.76467 0.57405 0.0
C360 C 0.33103 0.75513 0.56082 0.0
C361 C 0.7263 0.7875 0.51745 0.0
O362 O 0.01271 0.75601 0.56353 0.0
O363 O 0.16708 0.72636 0.59367 0.0
C364 C 0.6795 0.78957 0.62896 0.0
O365 O 0.47614 0.73176 0.56611 0.0
O366 O 0.33173 0.7967 0.55076 0.0
O367 O 0.63929 0.81744 0.50495 0.0
O368 O 0.70078 0.78979 0.54003 0.0
O369 O 0.80406 0.75933 0.63285 0.0
O370 O 0.6496 0.8026 0.6072 0.0
O371 O 0.59708 0.69401 0.57762 0.0
O372 O 0.8084 0.65401 0.59691 0.0
C373 C 0.66155 0.65395 0.58564 0.0
O374 O 0.67163 0.83658 0.58709 0.0
O375 O 0.64352 0.88959 0.55764 0.0
C376 C 0.16181 0.74172 0.5724 0.0
C377 C 0.72186 0.87613 0.57682 0.0
Zn378 Zn 0.28758 0.70461 0.66346 0.0
Zn379 Zn 0.69785 0.82453 0.74048 0.0
Zn380 Zn 0.46087 0.75294 0.69724 0.0
C381 C 0.87522 0.74403 0.70883 0.0
C382 C 0.48651 0.75959 0.75675 0.0
O383 O 0.19197 0.73702 0.70928 0.0
O384 O 0.04634 0.72081 0.67548 0.0
C385 C 0.52425 0.78324 0.64507 0.0
O386 O 0.72861 0.72493 0.70057 0.0
O387 O 0.87845 0.78252 0.72201 0.0
O388 O 0.58406 0.78942 0.76853 0.0
O389 O 0.48925 0.76144 0.73392 0.0
O390 O 0.43085 0.74561 0.63995 0.0
O391 O 0.52793 0.79967 0.66695 0.0
O392 O 0.61304 0.68887 0.68762 0.0
O393 O 0.39376 0.64107 0.67427 0.0
C394 C 0.55227 0.64636 0.68188 0.0
O395 O 0.42673 0.82715 0.68619 0.0
O396 O 0.50293 0.85949 0.72194 0.0
C397 C 0.04496 0.72959 0.69788 0.0
C398 C 0.41618 0.86122 0.70239 0.0
Zn399 Zn 0.50999 0.41535 0.7359 0.0
Zn400 Zn 0.94108 0.54576 0.66594 0.0
Zn401 Zn 0.76193 0.49804 0.69731 0.0
C402 C 0.67031 0.60426 0.68246 0.0
C403 C 0.70397 0.47324 0.64387 0.0
O404 O 0.79692 0.42538 0.68305 0.0
O405 O 0.72362 0.38642 0.71669 0.0
C406 C 0.67991 0.48785 0.75411 0.0
O407 O 0.60998 0.56226 0.68843 0.0
O408 O 0.83157 0.60944 0.67596 0.0
O409 O 0.81207 0.50796 0.63979 0.0
O410 O 0.69372 0.45586 0.66519 0.0
O411 O 0.59745 0.45524 0.76576 0.0
O412 O 0.69229 0.48168 0.73151 0.0
O413 O 0.49565 0.52557 0.70389 0.0
O414 O 0.34028 0.46127 0.71833 0.0
C415 C 0.3472 0.50374 0.70929 0.0
O416 O 0.0321 0.51221 0.70959 0.0
O417 O 0.18376 0.53198 0.67697 0.0
C418 C 0.81823 0.38991 0.69763 0.0
C419 C 0.18107 0.52095 0.69893 0.0
Zn420 Zn 0.64797 0.4557 0.41284 0.0
Zn421 Zn 0.22319 0.57396 0.49166 0.0
Zn422 Zn 0.47218 0.50217 0.44826 0.0
C423 C 0.05669 0.49174 0.4593 0.0
C424 C 0.43358 0.50909 0.50721 0.0
O425 O 0.74055 0.48465 0.45936 0.0
O426 O 0.88859 0.47015 0.42551 0.0
C427 C 0.41628 0.53584 0.39623 0.0
O428 O 0.20417 0.47306 0.4512 0.0
O429 O 0.05169 0.53016 0.47252 0.0
O430 O 0.33725 0.53832 0.51942 0.0
O431 O 0.43124 0.51248 0.48446 0.0
O432 O 0.50894 0.49888 0.39017 0.0
O433 O 0.4122 0.55001 0.41845 0.0
O434 O 0.32014 0.43806 0.43766 0.0
O435 O 0.53671 0.3919 0.42242 0.0
C436 C 0.3794 0.39628 0.43061 0.0
O437 O 0.50385 0.57726 0.43813 0.0
O438 O 0.41623 0.61063 0.47326 0.0
C439 C 0.88807 0.47738 0.44803 0.0
C440 C 0.50631 0.61229 0.4539 0.0
Zn441 Zn 0.41731 0.16636 0.48475 0.0
Zn442 Zn -0.00986 0.29451 0.41321 0.0
Zn443 Zn 0.16787 0.24791 0.44572 0.0
C444 C 0.26164 0.35382 0.43057 0.0
C445 C 0.22515 0.2207 0.392 0.0
O446 O 0.13305 0.1751 0.43189 0.0
O447 O 0.20314 0.13723 0.46584 0.0
C448 C 0.24754 0.23874 0.50289 0.0
O449 O 0.32077 0.31216 0.43694 0.0
O450 O 0.10278 0.35829 0.42315 0.0
O451 O 0.11723 0.25484 0.38741 0.0
O452 O 0.23405 0.20479 0.41363 0.0
O453 O 0.33015 0.20637 0.51445 0.0
O454 O 0.23558 0.23271 0.48026 0.0
O455 O 0.43522 0.27571 0.45208 0.0
O456 O 0.58816 0.2119 0.4669 0.0
C457 C 0.58282 0.2541 0.4576 0.0
O458 O 0.89807 0.26253 0.45781 0.0
O459 O 0.74816 0.28111 0.42502 0.0
C460 C 0.10915 0.14025 0.44679 0.0
C461 C 0.74987 0.27099 0.44709 0.0
Zn462 Zn 0.63425 0.29829 0.35975 0.0
Zn463 Zn 0.20495 0.17816 0.28287 0.0
Zn464 Zn 0.4558 0.25527 0.32426 0.0
C465 C 0.04493 0.26476 0.31378 0.0
C466 C 0.4156 0.243 0.26579 0.0
O467 O 0.72897 0.27163 0.31379 0.0
O468 O 0.87619 0.28392 0.34783 0.0
C469 C 0.38915 0.2234 0.37744 0.0
O470 O 0.19198 0.28558 0.32093 0.0
O471 O 0.04104 0.22482 0.30167 0.0
O472 O 0.32056 0.21252 0.254 0.0
O473 O 0.41185 0.24065 0.28857 0.0
O474 O 0.49301 0.25812 0.38375 0.0
O475 O 0.38273 0.21011 0.35509 0.0
O476 O 0.31527 0.32203 0.33314 0.0
O477 O 0.53847 0.36346 0.35014 0.0
C478 C 0.38529 0.36251 0.34053 0.0
O479 O 0.47234 0.18176 0.33645 0.0
O480 O 0.39858 0.14321 0.30205 0.0
C481 C 0.87643 0.2784 0.32521 0.0
C482 C 0.48619 0.14528 0.3217 0.0
Zn483 Zn 0.02117 0.47229 0.35895 0.0
Zn484 Zn 0.46861 0.59714 0.28645 0.0
Zn485 Zn 0.21054 0.51454 0.32559 0.0
C486 C 0.61698 0.50509 0.31331 0.0
C487 C 0.26076 0.53093 0.26819 0.0
O488 O 0.93345 0.50223 0.31491 0.0
O489 O 0.77684 0.47934 0.34658 0.0
C490 C 0.25924 0.54297 0.38081 0.0
O491 O 0.46902 0.48265 0.31859 0.0
O492 O 0.62233 0.54704 0.30374 0.0
O493 O 0.35012 0.56258 0.25681 0.0
O494 O 0.26292 0.5342 0.291 0.0
O495 O 0.13153 0.514 0.38563 0.0
O496 O 0.28726 0.55456 0.35871 0.0
O497 O 0.34657 0.44653 0.33178 0.0
O498 O 0.13224 0.40743 0.35143 0.0
C499 C 0.28139 0.40725 0.34063 0.0
O500 O 0.2351 0.58694 0.33959 0.0
O501 O 0.28119 0.63249 0.30737 0.0
C502 C 0.78347 0.4905 0.32465 0.0
C503 C 0.19793 0.6244 0.32699 0.0
Zn504 Zn 0.7355 0.90245 0.03947 0.0
Zn505 Zn 0.30142 0.0522 0.10379 0.0
Zn506 Zn 0.47714 0.99464 0.07413 0.0
C507 C 0.55555 0.10718 0.08078 0.0
C508 C 0.53782 0.98219 0.128 0.0
O509 O 0.47407 0.92483 0.09094 0.0
O510 O 0.52963 0.87408 0.06001 0.0
C511 C 0.54435 0.96593 0.01907 0.0
O512 O 0.62191 0.06418 0.07789 0.0
O513 O 0.39695 0.11238 0.08829 0.0
O514 O 0.44812 0.02123 0.13023 0.0
O515 O 0.54121 0.95932 0.10763 0.0
O516 O 0.63259 0.93262 1.00831 0.0
O517 O 0.5439 0.96593 0.04182 0.0
O518 O 0.74109 0.0234 0.06765 0.0
O519 O 0.89249 0.95576 0.0555 0.0
C520 C 0.88807 0.99974 0.06347 0.0
O521 O 0.2034 0.00615 0.063 0.0
O522 O 0.05551 0.03402 0.09484 0.0
C523 C 0.44203 0.88493 0.07911 0.0
C524 C 0.05593 0.01812 0.07336 0.0
Zn525 Zn 0.93064 0.21201 0.10071 0.0
Zn526 Zn 0.5073 0.34906 0.03228 0.0
Zn527 Zn 0.74467 0.26212 0.07159 0.0
C528 C 0.34421 0.2548 0.0578 0.0
C529 C 0.73783 0.28643 0.01549 0.0
O530 O 0.02557 0.2553 0.06054 0.0
O531 O 0.17984 0.22183 0.08967 0.0
C532 C 0.69053 0.2806 0.12618 0.0
O533 O 0.48888 0.23068 0.06246 0.0
O534 O 0.34552 0.29724 0.0486 0.0
O535 O 0.65447 0.31738 1.00314 0.0
O536 O 0.71372 0.2889 0.03807 0.0
O537 O 0.809 0.24801 0.12872 0.0
O538 O 0.66201 0.29762 0.10513 0.0
O539 O 0.60669 0.19205 0.07411 0.0
O540 O 0.82214 0.14809 0.09017 0.0
C541 C 0.66995 0.15058 0.08038 0.0
O542 O 0.68255 0.33317 0.08541 0.0
O543 O 0.66725 0.38805 0.0567 0.0
C544 C 0.17485 0.24017 0.06899 0.0
C545 C 0.74092 0.37264 0.07585 0.0
Zn546 Zn 0.29373 0.20469 0.16577 0.0
Zn547 Zn 0.72345 0.34479 0.235 0.0
Zn548 Zn 0.46841 0.25957 0.19679 0.0
C549 C 0.88045 0.25313 0.2075 0.0
C550 C 0.51867 0.28058 0.25358 0.0
O551 O 0.1956 0.24636 0.20789 0.0
O552 O 0.04903 0.22364 0.17504 0.0
C553 C 0.53916 0.27604 0.14307 0.0
O554 O 0.73284 0.23078 0.20184 0.0
O555 O 0.88596 0.29524 0.21766 0.0
O556 O 0.61063 0.31216 0.26514 0.0
O557 O 0.52411 0.28215 0.23082 0.0
O558 O 0.44639 0.23742 0.14015 0.0
O559 O 0.54158 0.29769 0.16383 0.0
O560 O 0.61094 0.19131 0.1919 0.0
O561 O 0.38468 0.14355 0.18096 0.0
C562 C 0.5425 0.1485 0.1888 0.0
O563 O 0.45394 0.33043 0.18131 0.0
O564 O 0.52365 0.37452 0.21426 0.0
C565 C 0.04839 0.23639 0.19701 0.0
C566 C 0.43407 0.36865 0.19487 0.0
Zn567 Zn 0.92047 0.04591 0.17078 0.0
Zn568 Zn 0.46599 0.90502 0.23628 0.0
Zn569 Zn 0.73137 0.99459 0.19923 0.0
C570 C 0.32497 1.00182 0.21241 0.0
C571 C 0.67206 0.97154 0.25364 0.0
O572 O 0.00911 0.00418 0.2103 0.0
O573 O 0.16785 0.03668 0.18101 0.0
C574 C 0.68755 0.97799 0.14477 0.0
O575 O 0.47369 0.02503 0.20829 0.0
O576 O 0.3173 0.95837 0.22031 0.0
O577 O 0.58909 0.93999 0.26591 0.0
O578 O 0.67153 0.96537 0.23104 0.0
O579 O 0.80399 0.01147 0.14251 0.0
O580 O 0.65952 0.95944 0.1655 0.0
O581 O 0.59088 0.06359 0.19543 0.0
O582 O 0.81245 0.1089 0.18127 0.0
C583 C 0.65561 0.10538 0.18962 0.0
O584 O 0.69153 0.92306 0.18421 0.0
O585 O 0.64692 0.87019 0.21362 0.0
C586 C 0.1596 0.01892 0.20178 0.0
C587 C 0.73415 0.88364 0.19504 0.0
Zn588 Zn 0.2335 0.06884 0.99026 0.0
Zn589 Zn 0.62557 0.95525 0.91288 0.0
Zn590 Zn 0.45205 1.00211 0.94585 0.0
C591 C 0.36114 0.89617 0.93099 0.0
C592 C 0.39273 0.03403 0.89446 0.0
O593 O 0.4873 0.07701 0.93576 0.0
O594 O 0.4225 0.10673 0.97239 0.0
C595 C 0.44913 0.00313 1.00604 0.0
O596 O 0.29767 0.93858 0.93599 0.0
O597 O 0.52114 0.89144 0.9239 0.0
O598 O 0.4831 0.99604 0.88943 0.0
O599 O 0.39062 0.05072 0.91632 0.0
O600 O 0.34972 0.03312 0.01726 0.0
O601 O 0.4498 0.00289 0.98316 0.0
O602 O 0.1825 0.97466 0.94939 0.0
O603 O 0.03975 0.0308 0.97227 0.0
C604 C 0.0382 0.99334 0.95842 0.0
O605 O 0.71939 0.98713 0.95909 0.0
O606 O 0.8651 0.97188 0.9251 0.0
C607 C 0.50336 0.10996 0.95243 0.0
C608 C 0.86656 0.98014 0.94755 0.0
Zn609 Zn 0.40946 0.66516 0.98616 0.0
Zn610 Zn -0.02267 0.79298 0.91598 0.0
Zn611 Zn 0.15521 0.74771 0.94824 0.0
C612 C 0.24516 0.85347 0.93188 0.0
C613 C 0.21438 0.72152 0.89443 0.0
O614 O 0.11802 0.67515 0.93397 0.0
O615 O 0.19677 0.63586 0.96717 0.0
C616 C 0.23416 0.73528 1.00541 0.0
O617 O 0.30585 0.81229 0.93875 0.0
O618 O 0.08519 0.85738 0.92487 0.0
O619 O 0.10244 0.75465 0.88986 0.0
O620 O 0.22625 0.70571 0.91604 0.0
O621 O 0.32007 0.70268 0.01638 0.0
O622 O 0.22303 0.73109 0.98269 0.0
O623 O 0.42136 0.77625 0.95412 0.0
O624 O 0.57544 0.71252 0.96881 0.0
C625 C 0.56924 0.75483 0.95966 0.0
O626 O 0.88409 0.76317 0.95983 0.0
O627 O 0.73379 0.7809 0.92694 0.0
C628 C 0.09988 0.63927 0.94842 0.0
C629 C 0.73581 0.77167 0.9491 0.0
Zn630 Zn 0.17776 0.65954 0.78822 0.0
Zn631 Zn 0.61669 0.79864 0.85891 0.0
Zn632 Zn 0.43833 0.74772 0.82532 0.0
C633 C 0.36671 0.85938 0.8368 0.0
C634 C 0.37548 0.72455 0.87938 0.0
O635 O 0.42992 0.6757 0.83952 0.0
O636 O 0.38093 0.62759 0.80747 0.0
C637 C 0.38281 0.72271 0.76915 0.0
O638 O 0.29926 0.81763 0.8306 0.0
O639 O 0.51792 0.8619 0.84694 0.0
O640 O 0.47492 0.76119 0.88416 0.0
O641 O 0.36802 0.7078 0.85764 0.0
O642 O 0.28985 0.69096 0.75784 0.0
O643 O 0.37783 0.7221 0.79192 0.0
O644 O 0.17727 0.77843 0.82018 0.0
O645 O 0.02607 0.71221 0.80575 0.0
C646 C 0.03012 0.75503 0.81522 0.0
O647 O 0.71432 0.76071 0.8151 0.0
O648 O 0.86169 0.7835 0.84789 0.0
C649 C 0.46778 0.63757 0.82669 0.0
C650 C 0.8617 0.77134 0.82584 0.0
Zn651 Zn 0.43186 0.09644 0.78272 0.0
Zn652 Zn 0.00016 0.9692 0.85537 0.0
Zn653 Zn 0.18937 0.01386 0.82348 0.0
C654 C 0.25921 0.9039 0.83627 0.0
C655 C 0.2381 0.04055 0.87842 0.0
O656 O 0.24416 0.08619 0.83658 0.0
O657 O 0.27224 0.13708 0.80613 0.0
C658 C 0.19384 0.03487 0.76636 0.0
O659 O 0.32384 0.94373 0.82777 0.0
O660 O 0.11162 0.90406 0.84748 0.0
O661 O 0.1116 0.01061 0.8825 0.0
O662 O 0.26984 0.05289 0.85655 0.0
O663 O 0.28266 0.06487 0.75391 0.0
O664 O 0.21824 0.03704 0.78896 0.0
O665 O 0.44456 0.98117 0.81573 0.0
O666 O 0.59059 0.04573 0.79983 0.0
C667 C 0.59035 0.00439 0.81011 0.0
O668 O 0.90919 0.00501 0.81252 0.0
O669 O 0.75349 0.9763 0.84298 0.0
C670 C 0.19579 0.12513 0.8258 0.0
C671 C 0.75935 0.99115 0.8216 0.0
loop_
_geom_bond_atom_site_label_1
_geom_bond_atom_site_label_2
_geom_bond_distance
_geom_bond_site_symmetry_2
_ccdc_geom_bond_type
Zn0 O6 1.920 . S
Zn0 O12 1.898 . S
Zn0 O15 1.905 . S
Zn1 O9 1.905 . S
Zn1 O10 1.898 . S
Zn1 O18 1.920 . S
Zn2 O5 2.080 1_455 S
Zn2 O8 2.114 . S
Zn2 O11 2.120 1_455 S
Zn2 O13 2.120 . S
Zn2 O14 2.114 . S
Zn2 O17 2.080 . S
C3 O8 1.166 . S
C3 O9 1.182 . S
C4 O10 1.167 . S
C4 O11 1.299 1_455 S
O5 Zn2 2.080 1_655 S
O5 C19 1.305 . S
O6 Zn0 1.920 . S
O6 C19 1.234 . S
C7 O12 1.167 1_455 S
C7 O13 1.299 . S
O8 Zn2 2.114 . S
O8 C3 1.166 . S
O9 Zn1 1.905 . S
O9 C3 1.182 . S
O10 Zn1 1.898 . S
O10 C4 1.167 . S
O11 Zn2 2.120 1_655 S
O11 C4 1.299 1_655 S
O12 Zn0 1.898 . S
O12 C7 1.167 1_655 S
O13 Zn2 2.120 . S
O13 C7 1.299 . S
O14 Zn2 2.114 . S
O14 C16 1.166 1_455 S
O15 Zn0 1.905 . S
O15 C16 1.182 . S
C16 O14 1.166 1_655 S
C16 O15 1.182 . S
O17 Zn2 2.080 . S
O17 C20 1.305 1_455 S
O18 Zn1 1.920 . S
O18 C20 1.234 1_455 S
C19 O5 1.305 . S
C19 O6 1.234 . S
C20 O17 1.305 1_655 S
C20 O18 1.234 1_655 S
Zn21 O27 1.920 . S
Zn21 O33 1.898 . S
Zn21 O36 1.905 . S
Zn22 O30 1.905 . S
Zn22 O31 1.898 1_655 S
Zn22 O39 1.920 1_655 S
Zn23 O26 2.080 . S
Zn23 O29 2.114 1_455 S
Zn23 O32 2.120 . S
Zn23 O34 2.120 . S
Zn23 O35 2.114 . S
Zn23 O38 2.080 . S
C24 O29 1.166 . S
C24 O30 1.182 . S
C25 O31 1.167 . S
C25 O32 1.299 . S
O26 Zn23 2.080 . S
O26 C40 1.305 . S
O27 Zn21 1.920 . S
O27 C40 1.234 . S
C28 O33 1.167 . S
C28 O34 1.299 . S
O29 Zn23 2.114 1_655 S
O29 C24 1.166 . S
O30 Zn22 1.905 . S
O30 C24 1.182 . S
O31 Zn22 1.898 1_455 S
O31 C25 1.167 . S
O32 Zn23 2.120 . S
O32 C25 1.299 . S
O33 Zn21 1.898 . S
O33 C28 1.167 . S
O34 Zn23 2.120 . S
O34 C28 1.299 . S
O35 Zn23 2.114 . S
O35 C37 1.166 . S
O36 Zn21 1.905 . S
O36 C37 1.182 . S
C37 O35 1.166 . S
C37 O36 1.182 . S
O38 Zn23 2.080 . S
O38 C41 1.305 . S
O39 Zn22 1.920 1_455 S
O39 C41 1.234 . S
C40 O26 1.305 . S
C40 O27 1.234 . S
C41 O38 1.305 . S
C41 O39 1.234 . S
Zn42 O48 1.920 . S
Zn42 O54 1.898 . S
Zn42 O57 1.905 . S
Zn43 O51 1.905 . S
Zn43 O52 1.898 . S
Zn43 O60 1.920 . S
Zn44 O47 2.080 1_455 S
Zn44 O50 2.114 . S
Zn44 O53 2.120 1_455 S
Zn44 O55 2.120 . S
Zn44 O56 2.114 . S
Zn44 O59 2.080 . S
C45 O50 1.166 . S
C45 O51 1.182 . S
C46 O52 1.167 . S
C46 O53 1.299 1_455 S
O47 Zn44 2.080 1_655 S
O47 C61 1.305 . S
O48 Zn42 1.920 . S
O48 C61 1.234 . S
C49 O54 1.167 1_455 S
C49 O55 1.299 . S
O50 Zn44 2.114 . S
O50 C45 1.166 . S
O51 Zn43 1.905 . S
O51 C45 1.182 . S
O52 Zn43 1.898 . S
O52 C46 1.167 . S
O53 Zn44 2.120 1_655 S
O53 C46 1.299 1_655 S
O54 Zn42 1.898 . S
O54 C49 1.167 1_655 S
O55 Zn44 2.120 . S
O55 C49 1.299 . S
O56 Zn44 2.114 . S
O56 C58 1.166 1_455 S
O57 Zn42 1.905 . S
O57 C58 1.182 . S
C58 O56 1.166 1_655 S
C58 O57 1.182 . S
O59 Zn44 2.080 . S
O59 C62 1.305 1_455 S
O60 Zn43 1.920 . S
O60 C62 1.234 1_455 S
C61 O47 1.305 . S
C61 O48 1.234 . S
C62 O59 1.305 1_655 S
C62 O60 1.234 1_655 S
Zn63 O69 1.920 1_655 S
Zn63 O75 1.898 1_655 S
Zn63 O78 1.905 . S
Zn64 O72 1.905 . S
Zn64 O73 1.898 . S
Zn64 O81 1.920 . S
Zn65 O68 2.080 . S
Zn65 O71 2.114 . S
Zn65 O74 2.120 . S
Zn65 O76 2.120 . S
Zn65 O77 2.114 1_455 S
Zn65 O80 2.080 . S
C66 O71 1.166 . S
C66 O72 1.182 . S
C67 O73 1.167 . S
C67 O74 1.299 . S
O68 Zn65 2.080 . S
O68 C82 1.305 . S
O69 Zn63 1.920 1_455 S
O69 C82 1.234 . S
C70 O75 1.167 . S
C70 O76 1.299 . S
O71 Zn65 2.114 . S
O71 C66 1.166 . S
O72 Zn64 1.905 . S
O72 C66 1.182 . S
O73 Zn64 1.898 . S
O73 C67 1.167 . S
O74 Zn65 2.120 . S
O74 C67 1.299 . S
O75 Zn63 1.898 1_455 S
O75 C70 1.167 . S
O76 Zn65 2.120 . S
O76 C70 1.299 . S
O77 Zn65 2.114 1_655 S
O77 C79 1.166 . S
O78 Zn63 1.905 . S
O78 C79 1.182 . S
C79 O77 1.166 . S
C79 O78 1.182 . S
O80 Zn65 2.080 . S
O80 C83 1.305 . S
O81 Zn64 1.920 . S
O81 C83 1.234 . S
C82 O68 1.305 . S
C82 O69 1.234 . S
C83 O80 1.305 . S
C83 O81 1.234 . S
Zn84 O90 1.920 . S
Zn84 O96 1.898 . S
Zn84 O99 1.905 . S
Zn85 O93 1.905 . S
Zn85 O94 1.898 . S
Zn85 O102 1.920 . S
Zn86 O89 2.080 . S
Zn86 O92 2.114 . S
Zn86 O95 2.120 . S
Zn86 O97 2.120 1_655 S
Zn86 O98 2.114 . S
Zn86 O101 2.080 1_655 S
C87 O92 1.166 1_455 S
C87 O93 1.182 . S
C88 O94 1.167 1_655 S
C88 O95 1.299 . S
O89 Zn86 2.080 . S
O89 C103 1.305 1_655 S
O90 Zn84 1.920 . S
O90 C103 1.234 1_655 S
C91 O96 1.167 . S
C91 O97 1.299 1_655 S
O92 Zn86 2.114 . S
O92 C87 1.166 1_655 S
O93 Zn85 1.905 . S
O93 C87 1.182 . S
O94 Zn85 1.898 . S
O94 C88 1.167 1_455 S
O95 Zn86 2.120 . S
O95 C88 1.299 . S
O96 Zn84 1.898 . S
O96 C91 1.167 . S
O97 Zn86 2.120 1_455 S
O97 C91 1.299 1_455 S
O98 Zn86 2.114 . S
O98 C100 1.166 . S
O99 Zn84 1.905 . S
O99 C100 1.182 . S
C100 O98 1.166 . S
C100 O99 1.182 . S
O101 Zn86 2.080 1_455 S
O101 C104 1.305 . S
O102 Zn85 1.920 . S
O102 C104 1.234 . S
C103 O89 1.305 1_455 S
C103 O90 1.234 1_455 S
C104 O101 1.305 . S
C104 O102 1.234 . S
Zn105 O111 1.920 1_455 S
Zn105 O117 1.898 1_455 S
Zn105 O120 1.905 . S
Zn106 O114 1.905 . S
Zn106 O115 1.898 . S
Zn106 O123 1.920 . S
Zn107 O110 2.080 . S
Zn107 O113 2.114 . S
Zn107 O116 2.120 . S
Zn107 O118 2.120 . S
Zn107 O119 2.114 1_655 S
Zn107 O122 2.080 . S
C108 O113 1.166 . S
C108 O114 1.182 . S
C109 O115 1.167 . S
C109 O116 1.299 . S
O110 Zn107 2.080 . S
O110 C124 1.305 . S
O111 Zn105 1.920 1_655 S
O111 C124 1.234 . S
C112 O117 1.167 . S
C112 O118 1.299 . S
O113 Zn107 2.114 . S
O113 C108 1.166 . S
O114 Zn106 1.905 . S
O114 C108 1.182 . S
O115 Zn106 1.898 . S
O115 C109 1.167 . S
O116 Zn107 2.120 . S
O116 C109 1.299 . S
O117 Zn105 1.898 1_655 S
O117 C112 1.167 . S
O118 Zn107 2.120 . S
O118 C112 1.299 . S
O119 Zn107 2.114 1_455 S
O119 C121 1.166 . S
O120 Zn105 1.905 . S
O120 C121 1.182 . S
C121 O119 1.166 . S
C121 O120 1.182 . S
O122 Zn107 2.080 . S
O122 C125 1.305 . S
O123 Zn106 1.920 . S
O123 C125 1.234 . S
C124 O110 1.305 . S
C124 O111 1.234 . S
C125 O122 1.305 . S
C125 O123 1.234 . S
Zn126 O132 1.920 . S
Zn126 O138 1.898 . S
Zn126 O141 1.905 . S
Zn127 O135 1.905 . S
Zn127 O136 1.898 . S
Zn127 O144 1.920 . S
Zn128 O131 2.080 1_655 S
Zn128 O134 2.114 . S
Zn128 O137 2.120 1_655 S
Zn128 O139 2.120 . S
Zn128 O140 2.114 . S
Zn128 O143 2.080 . S
C129 O134 1.166 . S
C129 O135 1.182 . S
C130 O136 1.167 . S
C130 O137 1.299 1_655 S
O131 Zn128 2.080 1_455 S
O131 C145 1.305 . S
O132 Zn126 1.920 . S
O132 C145 1.234 . S
C133 O138 1.167 1_655 S
C133 O139 1.299 . S
O134 Zn128 2.114 . S
O134 C129 1.166 . S
O135 Zn127 1.905 . S
O135 C129 1.182 . S
O136 Zn127 1.898 . S
O136 C130 1.167 . S
O137 Zn128 2.120 1_455 S
O137 C130 1.299 1_455 S
O138 Zn126 1.898 . S
O138 C133 1.167 1_455 S
O139 Zn128 2.120 . S
O139 C133 1.299 . S
O140 Zn128 2.114 . S
O140 C142 1.166 1_655 S
O141 Zn126 1.905 . S
O141 C142 1.182 . S
C142 O140 1.166 1_455 S
C142 O141 1.182 . S
O143 Zn128 2.080 . S
O143 C146 1.305 1_655 S
O144 Zn127 1.920 . S
O144 C146 1.234 1_655 S
C145 O131 1.305 . S
C145 O132 1.234 . S
C146 O143 1.305 1_455 S
C146 O144 1.234 1_455 S
Zn147 O153 1.920 1_455 S
Zn147 O159 1.898 1_455 S
Zn147 O162 1.905 . S
Zn148 O156 1.905 . S
Zn148 O157 1.898 . S
Zn148 O165 1.920 . S
Zn149 O152 2.080 . S
Zn149 O155 2.114 . S
Zn149 O158 2.120 . S
Zn149 O160 2.120 . S
Zn149 O161 2.114 1_655 S
Zn149 O164 2.080 . S
C150 O155 1.166 . S
C150 O156 1.182 . S
C151 O157 1.167 . S
C151 O158 1.299 . S
O152 Zn149 2.080 . S
O152 C166 1.305 . S
O153 Zn147 1.920 1_655 S
O153 C166 1.234 . S
C154 O159 1.167 . S
C154 O160 1.299 . S
O155 Zn149 2.114 . S
O155 C150 1.166 . S
O156 Zn148 1.905 . S
O156 C150 1.182 . S
O157 Zn148 1.898 . S
O157 C151 1.167 . S
O158 Zn149 2.120 . S
O158 C151 1.299 . S
O159 Zn147 1.898 1_655 S
O159 C154 1.167 . S
O160 Zn149 2.120 . S
O160 C154 1.299 . S
O161 Zn149 2.114 1_455 S
O161 C163 1.166 . S
O162 Zn147 1.905 . S
O162 C163 1.182 . S
C163 O161 1.166 . S
C163 O162 1.182 . S
O164 Zn149 2.080 . S
O164 C167 1.305 . S
O165 Zn148 1.920 . S
O165 C167 1.234 . S
C166 O152 1.305 . S
C166 O153 1.234 . S
C167 O164 1.305 . S
C167 O165 1.234 . S
Zn168 O174 1.920 . S
Zn168 O180 1.898 . S
Zn168 O183 1.905 . S
Zn169 O177 1.905 . S
Zn169 O178 1.898 . S
Zn169 O186 1.920 . S
Zn170 O173 2.080 . S
Zn170 O176 2.114 1_565 S
Zn170 O179 2.120 . S
Zn170 O181 2.120 1_455 S
Zn170 O182 2.114 . S
Zn170 O185 2.080 1_465 S
C171 O176 1.166 1_655 S
C171 O177 1.182 . S
C172 O178 1.167 1_455 S
C172 O179 1.299 1_545 S
O173 Zn170 2.080 . S
O173 C187 1.305 1_455 S
O174 Zn168 1.920 . S
O174 C187 1.234 1_455 S
C175 O180 1.167 . S
C175 O181 1.299 1_455 S
O176 Zn170 2.114 1_545 S
O176 C171 1.166 1_455 S
O177 Zn169 1.905 . S
O177 C171 1.182 . S
O178 Zn169 1.898 . S
O178 C172 1.167 1_655 S
O179 Zn170 2.120 . S
O179 C172 1.299 1_565 S
O180 Zn168 1.898 . S
O180 C175 1.167 . S
O181 Zn170 2.120 1_655 S
O181 C175 1.299 1_655 S
O182 Zn170 2.114 . S
O182 C184 1.166 . S
O183 Zn168 1.905 . S
O183 C184 1.182 . S
C184 O182 1.166 . S
C184 O183 1.182 . S
O185 Zn170 2.080 1_645 S
O185 C188 1.305 . S
O186 Zn169 1.920 . S
O186 C188 1.234 . S
C187 O173 1.305 1_655 S
C187 O174 1.234 1_655 S
C188 O185 1.305 . S
C188 O186 1.234 . S
Zn189 O195 1.920 . S
Zn189 O201 1.898 . S
Zn189 O204 1.905 . S
Zn190 O198 1.905 . S
Zn190 O199 1.898 1_655 S
Zn190 O207 1.920 1_655 S
Zn191 O194 2.080 . S
Zn191 O197 2.114 1_455 S
Zn191 O200 2.120 . S
Zn191 O202 2.120 . S
Zn191 O203 2.114 . S
Zn191 O206 2.080 . S
C192 O197 1.166 . S
C192 O198 1.182 . S
C193 O199 1.167 . S
C193 O200 1.299 . S
O194 Zn191 2.080 . S
O194 C208 1.305 . S
O195 Zn189 1.920 . S
O195 C208 1.234 . S
C196 O201 1.167 . S
C196 O202 1.299 . S
O197 Zn191 2.114 1_655 S
O197 C192 1.166 . S
O198 Zn190 1.905 . S
O198 C192 1.182 . S
O199 Zn190 1.898 1_455 S
O199 C193 1.167 . S
O200 Zn191 2.120 . S
O200 C193 1.299 . S
O201 Zn189 1.898 . S
O201 C196 1.167 . S
O202 Zn191 2.120 . S
O202 C196 1.299 . S
O203 Zn191 2.114 . S
O203 C205 1.166 . S
O204 Zn189 1.905 . S
O204 C205 1.182 . S
C205 O203 1.166 . S
C205 O204 1.182 . S
O206 Zn191 2.080 . S
O206 C209 1.305 . S
O207 Zn190 1.920 1_455 S
O207 C209 1.234 . S
C208 O194 1.305 . S
C208 O195 1.234 . S
C209 O206 1.305 . S
C209 O207 1.234 . S
Zn210 O216 1.920 . S
Zn210 O222 1.898 . S
Zn210 O225 1.905 . S
Zn211 O219 1.905 . S
Zn211 O220 1.898 . S
Zn211 O228 1.920 . S
Zn212 O215 2.080 1_455 S
Zn212 O218 2.114 . S
Zn212 O221 2.120 1_455 S
Zn212 O223 2.120 . S
Zn212 O224 2.114 . S
Zn212 O227 2.080 . S
C213 O218 1.166 . S
C213 O219 1.182 . S
C214 O220 1.167 . S
C214 O221 1.299 1_455 S
O215 Zn212 2.080 1_655 S
O215 C229 1.305 . S
O216 Zn210 1.920 . S
O216 C229 1.234 . S
C217 O222 1.167 1_455 S
C217 O223 1.299 . S
O218 Zn212 2.114 . S
O218 C213 1.166 . S
O219 Zn211 1.905 . S
O219 C213 1.182 . S
O220 Zn211 1.898 . S
O220 C214 1.167 . S
O221 Zn212 2.120 1_655 S
O221 C214 1.299 1_655 S
O222 Zn210 1.898 . S
O222 C217 1.167 1_655 S
O223 Zn212 2.120 . S
O223 C217 1.299 . S
O224 Zn212 2.114 . S
O224 C226 1.166 1_455 S
O225 Zn210 1.905 . S
O225 C226 1.182 . S
C226 O224 1.166 1_655 S
C226 O225 1.182 . S
O227 Zn212 2.080 . S
O227 C230 1.305 1_455 S
O228 Zn211 1.920 . S
O228 C230 1.234 1_455 S
C229 O215 1.305 . S
C229 O216 1.234 . S
C230 O227 1.305 1_655 S
C230 O228 1.234 1_655 S
Zn231 O237 1.920 . S
Zn231 O243 1.898 . S
Zn231 O246 1.905 . S
Zn232 O240 1.905 . S
Zn232 O241 1.898 1_655 S
Zn232 O249 1.920 1_655 S
Zn233 O236 2.080 1_565 S
Zn233 O239 2.114 1_455 S
Zn233 O242 2.120 . S
Zn233 O244 2.120 . S
Zn233 O245 2.114 1_565 S
Zn233 O248 2.080 . S
C234 O239 1.166 . S
C234 O240 1.182 . S
C235 O241 1.167 . S
C235 O242 1.299 . S
O236 Zn233 2.080 1_545 S
O236 C250 1.305 . S
O237 Zn231 1.920 . S
O237 C250 1.234 . S
C238 O243 1.167 . S
C238 O244 1.299 1_545 S
O239 Zn233 2.114 1_655 S
O239 C234 1.166 . S
O240 Zn232 1.905 . S
O240 C234 1.182 . S
O241 Zn232 1.898 1_455 S
O241 C235 1.167 . S
O242 Zn233 2.120 . S
O242 C235 1.299 . S
O243 Zn231 1.898 . S
O243 C238 1.167 . S
O244 Zn233 2.120 . S
O244 C238 1.299 1_565 S
O245 Zn233 2.114 1_545 S
O245 C247 1.166 . S
O246 Zn231 1.905 . S
O246 C247 1.182 . S
C247 O245 1.166 . S
C247 O246 1.182 . S
O248 Zn233 2.080 . S
O248 C251 1.305 . S
O249 Zn232 1.920 1_455 S
O249 C251 1.234 . S
C250 O236 1.305 . S
C250 O237 1.234 . S
C251 O248 1.305 . S
C251 O249 1.234 . S
Zn252 O258 1.920 . S
Zn252 O264 1.898 . S
Zn252 O267 1.905 . S
Zn253 O261 1.905 . S
Zn253 O262 1.898 . S
Zn253 O270 1.920 . S
Zn254 O257 2.080 1_645 S
Zn254 O260 2.114 . S
Zn254 O263 2.120 1_655 S
Zn254 O265 2.120 . S
Zn254 O266 2.114 1_545 S
Zn254 O269 2.080 . S
C255 O260 1.166 . S
C255 O261 1.182 . S
C256 O262 1.167 . S
C256 O263 1.299 1_655 S
O257 Zn254 2.080 1_465 S
O257 C271 1.305 . S
O258 Zn252 1.920 . S
O258 C271 1.234 . S
C259 O264 1.167 1_655 S
C259 O265 1.299 1_565 S
O260 Zn254 2.114 . S
O260 C255 1.166 . S
O261 Zn253 1.905 . S
O261 C255 1.182 . S
O262 Zn253 1.898 . S
O262 C256 1.167 . S
O263 Zn254 2.120 1_455 S
O263 C256 1.299 1_455 S
O264 Zn252 1.898 . S
O264 C259 1.167 1_455 S
O265 Zn254 2.120 . S
O265 C259 1.299 1_545 S
O266 Zn254 2.114 1_565 S
O266 C268 1.166 1_655 S
O267 Zn252 1.905 . S
O267 C268 1.182 . S
C268 O266 1.166 1_455 S
C268 O267 1.182 . S
O269 Zn254 2.080 . S
O269 C272 1.305 1_655 S
O270 Zn253 1.920 . S
O270 C272 1.234 1_655 S
C271 O257 1.305 . S
C271 O258 1.234 . S
C272 O269 1.305 1_455 S
C272 O270 1.234 1_455 S
Zn273 O279 1.920 1_455 S
Zn273 O285 1.898 1_455 S
Zn273 O288 1.905 . S
Zn274 O282 1.905 . S
Zn274 O283 1.898 . S
Zn274 O291 1.920 . S
Zn275 O278 2.080 . S
Zn275 O281 2.114 . S
Zn275 O284 2.120 . S
Zn275 O286 2.120 . S
Zn275 O287 2.114 1_655 S
Zn275 O290 2.080 . S
C276 O281 1.166 . S
C276 O282 1.182 . S
C277 O283 1.167 . S
C277 O284 1.299 . S
O278 Zn275 2.080 . S
O278 C292 1.305 . S
O279 Zn273 1.920 1_655 S
O279 C292 1.234 . S
C280 O285 1.167 . S
C280 O286 1.299 . S
O281 Zn275 2.114 . S
O281 C276 1.166 . S
O282 Zn274 1.905 . S
O282 C276 1.182 . S
O283 Zn274 1.898 . S
O283 C277 1.167 . S
O284 Zn275 2.120 . S
O284 C277 1.299 . S
O285 Zn273 1.898 1_655 S
O285 C280 1.167 . S
O286 Zn275 2.120 . S
O286 C280 1.299 . S
O287 Zn275 2.114 1_455 S
O287 C289 1.166 . S
O288 Zn273 1.905 . S
O288 C289 1.182 . S
C289 O287 1.166 . S
C289 O288 1.182 . S
O290 Zn275 2.080 . S
O290 C293 1.305 . S
O291 Zn274 1.920 . S
O291 C293 1.234 . S
C292 O278 1.305 . S
C292 O279 1.234 . S
C293 O290 1.305 . S
C293 O291 1.234 . S
Zn294 O300 1.920 . S
Zn294 O306 1.898 . S
Zn294 O309 1.905 . S
Zn295 O303 1.905 . S
Zn295 O304 1.898 . S
Zn295 O312 1.920 . S
Zn296 O299 2.080 1_655 S
Zn296 O302 2.114 . S
Zn296 O305 2.120 1_655 S
Zn296 O307 2.120 . S
Zn296 O308 2.114 . S
Zn296 O311 2.080 . S
C297 O302 1.166 . S
C297 O303 1.182 . S
C298 O304 1.167 . S
C298 O305 1.299 1_655 S
O299 Zn296 2.080 1_455 S
O299 C313 1.305 . S
O300 Zn294 1.920 . S
O300 C313 1.234 . S
C301 O306 1.167 1_655 S
C301 O307 1.299 . S
O302 Zn296 2.114 . S
O302 C297 1.166 . S
O303 Zn295 1.905 . S
O303 C297 1.182 . S
O304 Zn295 1.898 . S
O304 C298 1.167 . S
O305 Zn296 2.120 1_455 S
O305 C298 1.299 1_455 S
O306 Zn294 1.898 . S
O306 C301 1.167 1_455 S
O307 Zn296 2.120 . S
O307 C301 1.299 . S
O308 Zn296 2.114 . S
O308 C310 1.166 1_655 S
O309 Zn294 1.905 . S
O309 C310 1.182 . S
C310 O308 1.166 1_455 S
C310 O309 1.182 . S
O311 Zn296 2.080 . S
O311 C314 1.305 1_655 S
O312 Zn295 1.920 . S
O312 C314 1.234 1_655 S
C313 O299 1.305 . S
C313 O300 1.234 . S
C314 O311 1.305 1_455 S
C314 O312 1.234 1_455 S
Zn315 O321 1.920 . S
Zn315 O327 1.898 . S
Zn315 O330 1.905 . S
Zn316 O324 1.905 . S
Zn316 O325 1.898 1_455 S
Zn316 O333 1.920 1_455 S
Zn317 O320 2.080 1_545 S
Zn317 O323 2.114 1_655 S
Zn317 O326 2.120 . S
Zn317 O328 2.120 . S
Zn317 O329 2.114 1_545 S
Zn317 O332 2.080 . S
C318 O323 1.166 . S
C318 O324 1.182 . S
C319 O325 1.167 . S
C319 O326 1.299 . S
O320 Zn317 2.080 1_565 S
O320 C334 1.305 . S
O321 Zn315 1.920 . S
O321 C334 1.234 . S
C322 O327 1.167 . S
C322 O328 1.299 1_565 S
O323 Zn317 2.114 1_455 S
O323 C318 1.166 . S
O324 Zn316 1.905 . S
O324 C318 1.182 . S
O325 Zn316 1.898 1_655 S
O325 C319 1.167 . S
O326 Zn317 2.120 . S
O326 C319 1.299 . S
O327 Zn315 1.898 . S
O327 C322 1.167 . S
O328 Zn317 2.120 . S
O328 C322 1.299 1_545 S
O329 Zn317 2.114 1_565 S
O329 C331 1.166 . S
O330 Zn315 1.905 . S
O330 C331 1.182 . S
C331 O329 1.166 . S
C331 O330 1.182 . S
O332 Zn317 2.080 . S
O332 C335 1.305 . S
O333 Zn316 1.920 1_655 S
O333 C335 1.234 . S
C334 O320 1.305 . S
C334 O321 1.234 . S
C335 O332 1.305 . S
C335 O333 1.234 . S
Zn336 O342 1.920 . S
Zn336 O348 1.898 . S
Zn336 O351 1.905 . S
Zn337 O345 1.905 . S
Zn337 O346 1.898 . S
Zn337 O354 1.920 . S
Zn338 O341 2.080 . S
Zn338 O344 2.114 . S
Zn338 O347 2.120 . S
Zn338 O349 2.120 . S
Zn338 O350 2.114 . S
Zn338 O353 2.080 . S
C339 O344 1.166 . S
C339 O345 1.182 . S
C340 O346 1.167 . S
C340 O347 1.299 . S
O341 Zn338 2.080 . S
O341 C355 1.305 . S
O342 Zn336 1.920 . S
O342 C355 1.234 . S
C343 O348 1.167 . S
C343 O349 1.299 . S
O344 Zn338 2.114 . S
O344 C339 1.166 . S
O345 Zn337 1.905 . S
O345 C339 1.182 . S
O346 Zn337 1.898 . S
O346 C340 1.167 . S
O347 Zn338 2.120 . S
O347 C340 1.299 . S
O348 Zn336 1.898 . S
O348 C343 1.167 . S
O349 Zn338 2.120 . S
O349 C343 1.299 . S
O350 Zn338 2.114 . S
O350 C352 1.166 . S
O351 Zn336 1.905 . S
O351 C352 1.182 . S
C352 O350 1.166 . S
C352 O351 1.182 . S
O353 Zn338 2.080 . S
O353 C356 1.305 . S
O354 Zn337 1.920 . S
O354 C356 1.234 . S
C355 O341 1.305 . S
C355 O342 1.234 . S
C356 O353 1.305 . S
C356 O354 1.234 . S
Zn357 O363 1.920 1_655 S
Zn357 O369 1.898 . S
Zn357 O372 1.905 . S
Zn358 O366 1.905 . S
Zn358 O367 1.898 . S
Zn358 O375 1.920 . S
Zn359 O362 2.080 1_655 S
Zn359 O365 2.114 . S
Zn359 O368 2.120 . S
Zn359 O370 2.120 . S
Zn359 O371 2.114 . S
Zn359 O374 2.080 . S
C360 O365 1.166 . S
C360 O366 1.182 . S
C361 O367 1.167 . S
C361 O368 1.299 . S
O362 Zn359 2.080 1_455 S
O362 C376 1.305 . S
O363 Zn357 1.920 1_455 S
O363 C376 1.234 . S
C364 O369 1.167 . S
C364 O370 1.299 . S
O365 Zn359 2.114 . S
O365 C360 1.166 . S
O366 Zn358 1.905 . S
O366 C360 1.182 . S
O367 Zn358 1.898 . S
O367 C361 1.167 . S
O368 Zn359 2.120 . S
O368 C361 1.299 . S
O369 Zn357 1.898 . S
O369 C364 1.167 . S
O370 Zn359 2.120 . S
O370 C364 1.299 . S
O371 Zn359 2.114 . S
O371 C373 1.166 . S
O372 Zn357 1.905 . S
O372 C373 1.182 . S
C373 O371 1.166 . S
C373 O372 1.182 . S
O374 Zn359 2.080 . S
O374 C377 1.305 . S
O375 Zn358 1.920 . S
O375 C377 1.234 . S
C376 O362 1.305 . S
C376 O363 1.234 . S
C377 O374 1.305 . S
C377 O375 1.234 . S
Zn378 O384 1.920 . S
Zn378 O390 1.898 . S
Zn378 O393 1.905 . S
Zn379 O387 1.905 . S
Zn379 O388 1.898 . S
Zn379 O396 1.920 . S
Zn380 O383 2.080 . S
Zn380 O386 2.114 . S
Zn380 O389 2.120 . S
Zn380 O391 2.120 . S
Zn380 O392 2.114 . S
Zn380 O395 2.080 . S
C381 O386 1.166 . S
C381 O387 1.182 . S
C382 O388 1.167 . S
C382 O389 1.299 . S
O383 Zn380 2.080 . S
O383 C397 1.305 . S
O384 Zn378 1.920 . S
O384 C397 1.234 . S
C385 O390 1.167 . S
C385 O391 1.299 . S
O386 Zn380 2.114 . S
O386 C381 1.166 . S
O387 Zn379 1.905 . S
O387 C381 1.182 . S
O388 Zn379 1.898 . S
O388 C382 1.167 . S
O389 Zn380 2.120 . S
O389 C382 1.299 . S
O390 Zn378 1.898 . S
O390 C385 1.167 . S
O391 Zn380 2.120 . S
O391 C385 1.299 . S
O392 Zn380 2.114 . S
O392 C394 1.166 . S
O393 Zn378 1.905 . S
O393 C394 1.182 . S
C394 O392 1.166 . S
C394 O393 1.182 . S
O395 Zn380 2.080 . S
O395 C398 1.305 . S
O396 Zn379 1.920 . S
O396 C398 1.234 . S
C397 O383 1.305 . S
C397 O384 1.234 . S
C398 O395 1.305 . S
C398 O396 1.234 . S
Zn399 O405 1.920 . S
Zn399 O411 1.898 . S
Zn399 O414 1.905 . S
Zn400 O408 1.905 . S
Zn400 O409 1.898 . S
Zn400 O417 1.920 1_655 S
Zn401 O404 2.080 . S
Zn401 O407 2.114 . S
Zn401 O410 2.120 . S
Zn401 O412 2.120 . S
Zn401 O413 2.114 . S
Zn401 O416 2.080 1_655 S
C402 O407 1.166 . S
C402 O408 1.182 . S
C403 O409 1.167 . S
C403 O410 1.299 . S
O404 Zn401 2.080 . S
O404 C418 1.305 . S
O405 Zn399 1.920 . S
O405 C418 1.234 . S
C406 O411 1.167 . S
C406 O412 1.299 . S
O407 Zn401 2.114 . S
O407 C402 1.166 . S
O408 Zn400 1.905 . S
O408 C402 1.182 . S
O409 Zn400 1.898 . S
O409 C403 1.167 . S
O410 Zn401 2.120 . S
O410 C403 1.299 . S
O411 Zn399 1.898 . S
O411 C406 1.167 . S
O412 Zn401 2.120 . S
O412 C406 1.299 . S
O413 Zn401 2.114 . S
O413 C415 1.166 . S
O414 Zn399 1.905 . S
O414 C415 1.182 . S
C415 O413 1.166 . S
C415 O414 1.182 . S
O416 Zn401 2.080 1_455 S
O416 C419 1.305 . S
O417 Zn400 1.920 1_455 S
O417 C419 1.234 . S
C418 O404 1.305 . S
C418 O405 1.234 . S
C419 O416 1.305 . S
C419 O417 1.234 . S
Zn420 O426 1.920 . S
Zn420 O432 1.898 . S
Zn420 O435 1.905 . S
Zn421 O429 1.905 . S
Zn421 O430 1.898 . S
Zn421 O438 1.920 . S
Zn422 O425 2.080 . S
Zn422 O428 2.114 . S
Zn422 O431 2.120 . S
Zn422 O433 2.120 . S
Zn422 O434 2.114 . S
Zn422 O437 2.080 . S
C423 O428 1.166 . S
C423 O429 1.182 . S
C424 O430 1.167 . S
C424 O431 1.299 . S
O425 Zn422 2.080 . S
O425 C439 1.305 . S
O426 Zn420 1.920 . S
O426 C439 1.234 . S
C427 O432 1.167 . S
C427 O433 1.299 . S
O428 Zn422 2.114 . S
O428 C423 1.166 . S
O429 Zn421 1.905 . S
O429 C423 1.182 . S
O430 Zn421 1.898 . S
O430 C424 1.167 . S
O431 Zn422 2.120 . S
O431 C424 1.299 . S
O432 Zn420 1.898 . S
O432 C427 1.167 . S
O433 Zn422 2.120 . S
O433 C427 1.299 . S
O434 Zn422 2.114 . S
O434 C436 1.166 . S
O435 Zn420 1.905 . S
O435 C436 1.182 . S
C436 O434 1.166 . S
C436 O435 1.182 . S
O437 Zn422 2.080 . S
O437 C440 1.305 . S
O438 Zn421 1.920 . S
O438 C440 1.234 . S
C439 O425 1.305 . S
C439 O426 1.234 . S
C440 O437 1.305 . S
C440 O438 1.234 . S
Zn441 O447 1.920 . S
Zn441 O453 1.898 . S
Zn441 O456 1.905 . S
Zn442 O450 1.905 . S
Zn442 O451 1.898 . S
Zn442 O459 1.920 1_455 S
Zn443 O446 2.080 . S
Zn443 O449 2.114 . S
Zn443 O452 2.120 . S
Zn443 O454 2.120 . S
Zn443 O455 2.114 . S
Zn443 O458 2.080 1_455 S
C444 O449 1.166 . S
C444 O450 1.182 . S
C445 O451 1.167 . S
C445 O452 1.299 . S
O446 Zn443 2.080 . S
O446 C460 1.305 . S
O447 Zn441 1.920 . S
O447 C460 1.234 . S
C448 O453 1.167 . S
C448 O454 1.299 . S
O449 Zn443 2.114 . S
O449 C444 1.166 . S
O450 Zn442 1.905 . S
O450 C444 1.182 . S
O451 Zn442 1.898 . S
O451 C445 1.167 . S
O452 Zn443 2.120 . S
O452 C445 1.299 . S
O453 Zn441 1.898 . S
O453 C448 1.167 . S
O454 Zn443 2.120 . S
O454 C448 1.299 . S
O455 Zn443 2.114 . S
O455 C457 1.166 . S
O456 Zn441 1.905 . S
O456 C457 1.182 . S
C457 O455 1.166 . S
C457 O456 1.182 . S
O458 Zn443 2.080 1_655 S
O458 C461 1.305 . S
O459 Zn442 1.920 1_655 S
O459 C461 1.234 . S
C460 O446 1.305 . S
C460 O447 1.234 . S
C461 O458 1.305 . S
C461 O459 1.234 . S
Zn462 O468 1.920 . S
Zn462 O474 1.898 . S
Zn462 O477 1.905 . S
Zn463 O471 1.905 . S
Zn463 O472 1.898 . S
Zn463 O480 1.920 . S
Zn464 O467 2.080 . S
Zn464 O470 2.114 . S
Zn464 O473 2.120 . S
Zn464 O475 2.120 . S
Zn464 O476 2.114 . S
Zn464 O479 2.080 . S
C465 O470 1.166 . S
C465 O471 1.182 . S
C466 O472 1.167 . S
C466 O473 1.299 . S
O467 Zn464 2.080 . S
O467 C481 1.305 . S
O468 Zn462 1.920 . S
O468 C481 1.234 . S
C469 O474 1.167 . S
C469 O475 1.299 . S
O470 Zn464 2.114 . S
O470 C465 1.166 . S
O471 Zn463 1.905 . S
O471 C465 1.182 . S
O472 Zn463 1.898 . S
O472 C466 1.167 . S
O473 Zn464 2.120 . S
O473 C466 1.299 . S
O474 Zn462 1.898 . S
O474 C469 1.167 . S
O475 Zn464 2.120 . S
O475 C469 1.299 . S
O476 Zn464 2.114 . S
O476 C478 1.166 . S
O477 Zn462 1.905 . S
O477 C478 1.182 . S
C478 O476 1.166 . S
C478 O477 1.182 . S
O479 Zn464 2.080 . S
O479 C482 1.305 . S
O480 Zn463 1.920 . S
O480 C482 1.234 . S
C481 O467 1.305 . S
C481 O468 1.234 . S
C482 O479 1.305 . S
C482 O480 1.234 . S
Zn483 O489 1.920 1_455 S
Zn483 O495 1.898 . S
Zn483 O498 1.905 . S
Zn484 O492 1.905 . S
Zn484 O493 1.898 . S
Zn484 O501 1.920 . S
Zn485 O488 2.080 1_455 S
Zn485 O491 2.114 . S
Zn485 O494 2.120 . S
Zn485 O496 2.120 . S
Zn485 O497 2.114 . S
Zn485 O500 2.080 . S
C486 O491 1.166 . S
C486 O492 1.182 . S
C487 O493 1.167 . S
C487 O494 1.299 . S
O488 Zn485 2.080 1_655 S
O488 C502 1.305 . S
O489 Zn483 1.920 1_655 S
O489 C502 1.234 . S
C490 O495 1.167 . S
C490 O496 1.299 . S
O491 Zn485 2.114 . S
O491 C486 1.166 . S
O492 Zn484 1.905 . S
O492 C486 1.182 . S
O493 Zn484 1.898 . S
O493 C487 1.167 . S
O494 Zn485 2.120 . S
O494 C487 1.299 . S
O495 Zn483 1.898 . S
O495 C490 1.167 . S
O496 Zn485 2.120 . S
O496 C490 1.299 . S
O497 Zn485 2.114 . S
O497 C499 1.166 . S
O498 Zn483 1.905 . S
O498 C499 1.182 . S
C499 O497 1.166 . S
C499 O498 1.182 . S
O500 Zn485 2.080 . S
O500 C503 1.305 . S
O501 Zn484 1.920 . S
O501 C503 1.234 . S
C502 O488 1.305 . S
C502 O489 1.234 . S
C503 O500 1.305 . S
C503 O501 1.234 . S
Zn504 O510 1.920 . S
Zn504 O516 1.898 . S
Zn504 O519 1.905 . S
Zn505 O513 1.905 . S
Zn505 O514 1.898 . S
Zn505 O522 1.920 . S
Zn506 O509 2.080 . S
Zn506 O512 2.114 1_565 S
Zn506 O515 2.120 . S
Zn506 O517 2.120 . S
Zn506 O518 2.114 . S
Zn506 O521 2.080 1_565 S
C507 O512 1.166 . S
C507 O513 1.182 . S
C508 O514 1.167 . S
C508 O515 1.299 1_545 S
O509 Zn506 2.080 . S
O509 C523 1.305 . S
O510 Zn504 1.920 . S
O510 C523 1.234 . S
C511 O516 1.167 . S
C511 O517 1.299 . S
O512 Zn506 2.114 1_545 S
O512 C507 1.166 . S
O513 Zn505 1.905 . S
O513 C507 1.182 . S
O514 Zn505 1.898 . S
O514 C508 1.167 . S
O515 Zn506 2.120 . S
O515 C508 1.299 1_565 S
O516 Zn504 1.898 . S
O516 C511 1.167 . S
O517 Zn506 2.120 . S
O517 C511 1.299 . S
O518 Zn506 2.114 . S
O518 C520 1.166 . S
O519 Zn504 1.905 . S
O519 C520 1.182 . S
C520 O518 1.166 . S
C520 O519 1.182 . S
O521 Zn506 2.080 1_545 S
O521 C524 1.305 . S
O522 Zn505 1.920 . S
O522 C524 1.234 . S
C523 O509 1.305 . S
C523 O510 1.234 . S
C524 O521 1.305 . S
C524 O522 1.234 . S
Zn525 O531 1.920 1_655 S
Zn525 O537 1.898 . S
Zn525 O540 1.905 . S
Zn526 O534 1.905 . S
Zn526 O535 1.898 . S
Zn526 O543 1.920 . S
Zn527 O530 2.080 1_655 S
Zn527 O533 2.114 . S
Zn527 O536 2.120 . S
Zn527 O538 2.120 . S
Zn527 O539 2.114 . S
Zn527 O542 2.080 . S
C528 O533 1.166 . S
C528 O534 1.182 . S
C529 O535 1.167 . S
C529 O536 1.299 . S
O530 Zn527 2.080 1_455 S
O530 C544 1.305 . S
O531 Zn525 1.920 1_455 S
O531 C544 1.234 . S
C532 O537 1.167 . S
C532 O538 1.299 . S
O533 Zn527 2.114 . S
O533 C528 1.166 . S
O534 Zn526 1.905 . S
O534 C528 1.182 . S
O535 Zn526 1.898 . S
O535 C529 1.167 . S
O536 Zn527 2.120 . S
O536 C529 1.299 . S
O537 Zn525 1.898 . S
O537 C532 1.167 . S
O538 Zn527 2.120 . S
O538 C532 1.299 . S
O539 Zn527 2.114 . S
O539 C541 1.166 . S
O540 Zn525 1.905 . S
O540 C541 1.182 . S
C541 O539 1.166 . S
C541 O540 1.182 . S
O542 Zn527 2.080 . S
O542 C545 1.305 . S
O543 Zn526 1.920 . S
O543 C545 1.234 . S
C544 O530 1.305 . S
C544 O531 1.234 . S
C545 O542 1.305 . S
C545 O543 1.234 . S
Zn546 O552 1.920 . S
Zn546 O558 1.898 . S
Zn546 O561 1.905 . S
Zn547 O555 1.905 . S
Zn547 O556 1.898 . S
Zn547 O564 1.920 . S
Zn548 O551 2.080 . S
Zn548 O554 2.114 . S
Zn548 O557 2.120 . S
Zn548 O559 2.120 . S
Zn548 O560 2.114 . S
Zn548 O563 2.080 . S
C549 O554 1.166 . S
C549 O555 1.182 . S
C550 O556 1.167 . S
C550 O557 1.299 . S
O551 Zn548 2.080 . S
O551 C565 1.305 . S
O552 Zn546 1.920 . S
O552 C565 1.234 . S
C553 O558 1.167 . S
C553 O559 1.299 . S
O554 Zn548 2.114 . S
O554 C549 1.166 . S
O555 Zn547 1.905 . S
O555 C549 1.182 . S
O556 Zn547 1.898 . S
O556 C550 1.167 . S
O557 Zn548 2.120 . S
O557 C550 1.299 . S
O558 Zn546 1.898 . S
O558 C553 1.167 . S
O559 Zn548 2.120 . S
O559 C553 1.299 . S
O560 Zn548 2.114 . S
O560 C562 1.166 . S
O561 Zn546 1.905 . S
O561 C562 1.182 . S
C562 O560 1.166 . S
C562 O561 1.182 . S
O563 Zn548 2.080 . S
O563 C566 1.305 . S
O564 Zn547 1.920 . S
O564 C566 1.234 . S
C565 O551 1.305 . S
C565 O552 1.234 . S
C566 O563 1.305 . S
C566 O564 1.234 . S
Zn567 O573 1.920 1_655 S
Zn567 O579 1.898 . S
Zn567 O582 1.905 . S
Zn568 O576 1.905 . S
Zn568 O577 1.898 . S
Zn568 O585 1.920 . S
Zn569 O572 2.080 1_665 S
Zn569 O575 2.114 . S
Zn569 O578 2.120 . S
Zn569 O580 2.120 . S
Zn569 O581 2.114 1_565 S
Zn569 O584 2.080 . S
C570 O575 1.166 . S
C570 O576 1.182 . S
C571 O577 1.167 . S
C571 O578 1.299 . S
O572 Zn569 2.080 1_445 S
O572 C586 1.305 . S
O573 Zn567 1.920 1_455 S
O573 C586 1.234 . S
C574 O579 1.167 . S
C574 O580 1.299 1_545 S
O575 Zn569 2.114 . S
O575 C570 1.166 . S
O576 Zn568 1.905 . S
O576 C570 1.182 . S
O577 Zn568 1.898 . S
O577 C571 1.167 . S
O578 Zn569 2.120 . S
O578 C571 1.299 . S
O579 Zn567 1.898 . S
O579 C574 1.167 . S
O580 Zn569 2.120 . S
O580 C574 1.299 1_565 S
O581 Zn569 2.114 1_545 S
O581 C583 1.166 . S
O582 Zn567 1.905 . S
O582 C583 1.182 . S
C583 O581 1.166 . S
C583 O582 1.182 . S
O584 Zn569 2.080 . S
O584 C587 1.305 . S
O585 Zn568 1.920 . S
O585 C587 1.234 . S
C586 O572 1.305 . S
C586 O573 1.234 . S
C587 O584 1.305 . S
C587 O585 1.234 . S
Zn588 O594 1.920 . S
Zn588 O600 1.898 . S
Zn588 O603 1.905 . S
Zn589 O597 1.905 . S
Zn589 O598 1.898 . S
Zn589 O606 1.920 . S
Zn590 O593 2.080 . S
Zn590 O596 2.114 1_545 S
Zn590 O599 2.120 . S
Zn590 O601 2.120 . S
Zn590 O602 2.114 . S
Zn590 O605 2.080 1_545 S
C591 O596 1.166 . S
C591 O597 1.182 . S
C592 O598 1.167 . S
C592 O599 1.299 1_565 S
O593 Zn590 2.080 . S
O593 C607 1.305 . S
O594 Zn588 1.920 . S
O594 C607 1.234 . S
C595 O600 1.167 . S
C595 O601 1.299 . S
O596 Zn590 2.114 1_565 S
O596 C591 1.166 . S
O597 Zn589 1.905 . S
O597 C591 1.182 . S
O598 Zn589 1.898 . S
O598 C592 1.167 . S
O599 Zn590 2.120 . S
O599 C592 1.299 1_545 S
O600 Zn588 1.898 . S
O600 C595 1.167 . S
O601 Zn590 2.120 . S
O601 C595 1.299 . S
O602 Zn590 2.114 . S
O602 C604 1.166 . S
O603 Zn588 1.905 . S
O603 C604 1.182 . S
C604 O602 1.166 . S
C604 O603 1.182 . S
O605 Zn590 2.080 1_565 S
O605 C608 1.305 . S
O606 Zn589 1.920 . S
O606 C608 1.234 . S
C607 O593 1.305 . S
C607 O594 1.234 . S
C608 O605 1.305 . S
C608 O606 1.234 . S
Zn609 O615 1.920 . S
Zn609 O621 1.898 . S
Zn609 O624 1.905 . S
Zn610 O618 1.905 . S
Zn610 O619 1.898 . S
Zn610 O627 1.920 1_455 S
Zn611 O614 2.080 . S
Zn611 O617 2.114 . S
Zn611 O620 2.120 . S
Zn611 O622 2.120 . S
Zn611 O623 2.114 . S
Zn611 O626 2.080 1_455 S
C612 O617 1.166 . S
C612 O618 1.182 . S
C613 O619 1.167 . S
C613 O620 1.299 . S
O614 Zn611 2.080 . S
O614 C628 1.305 . S
O615 Zn609 1.920 . S
O615 C628 1.234 . S
C616 O621 1.167 . S
C616 O622 1.299 . S
O617 Zn611 2.114 . S
O617 C612 1.166 . S
O618 Zn610 1.905 . S
O618 C612 1.182 . S
O619 Zn610 1.898 . S
O619 C613 1.167 . S
O620 Zn611 2.120 . S
O620 C613 1.299 . S
O621 Zn609 1.898 . S
O621 C616 1.167 . S
O622 Zn611 2.120 . S
O622 C616 1.299 . S
O623 Zn611 2.114 . S
O623 C625 1.166 . S
O624 Zn609 1.905 . S
O624 C625 1.182 . S
C625 O623 1.166 . S
C625 O624 1.182 . S
O626 Zn611 2.080 1_655 S
O626 C629 1.305 . S
O627 Zn610 1.920 1_655 S
O627 C629 1.234 . S
C628 O614 1.305 . S
C628 O615 1.234 . S
C629 O626 1.305 . S
C629 O627 1.234 . S
Zn630 O636 1.920 . S
Zn630 O642 1.898 . S
Zn630 O645 1.905 . S
Zn631 O639 1.905 . S
Zn631 O640 1.898 . S
Zn631 O648 1.920 . S
Zn632 O635 2.080 . S
Zn632 O638 2.114 . S
Zn632 O641 2.120 . S
Zn632 O643 2.120 . S
Zn632 O644 2.114 . S
Zn632 O647 2.080 . S
C633 O638 1.166 . S
C633 O639 1.182 . S
C634 O640 1.167 . S
C634 O641 1.299 . S
O635 Zn632 2.080 . S
O635 C649 1.305 . S
O636 Zn630 1.920 . S
O636 C649 1.234 . S
C637 O642 1.167 . S
C637 O643 1.299 . S
O638 Zn632 2.114 . S
O638 C633 1.166 . S
O639 Zn631 1.905 . S
O639 C633 1.182 . S
O640 Zn631 1.898 . S
O640 C634 1.167 . S
O641 Zn632 2.120 . S
O641 C634 1.299 . S
O642 Zn630 1.898 . S
O642 C637 1.167 . S
O643 Zn632 2.120 . S
O643 C637 1.299 . S
O644 Zn632 2.114 . S
O644 C646 1.166 . S
O645 Zn630 1.905 . S
O645 C646 1.182 . S
C646 O644 1.166 . S
C646 O645 1.182 . S
O647 Zn632 2.080 . S
O647 C650 1.305 . S
O648 Zn631 1.920 . S
O648 C650 1.234 . S
C649 O635 1.305 . S
C649 O636 1.234 . S
C650 O647 1.305 . S
C650 O648 1.234 . S
Zn651 O657 1.920 . S
Zn651 O663 1.898 . S
Zn651 O666 1.905 . S
Zn652 O660 1.905 . S
Zn652 O661 1.898 . S
Zn652 O669 1.920 1_455 S
Zn653 O656 2.080 . S
Zn653 O659 2.114 1_545 S
Zn653 O662 2.120 . S
Zn653 O664 2.120 . S
Zn653 O665 2.114 . S
Zn653 O668 2.080 1_445 S
C654 O659 1.166 . S
C654 O660 1.182 . S
C655 O661 1.167 . S
C655 O662 1.299 1_565 S
O656 Zn653 2.080 . S
O656 C670 1.305 . S
O657 Zn651 1.920 . S
O657 C670 1.234 . S
C658 O663 1.167 . S
C658 O664 1.299 . S
O659 Zn653 2.114 1_565 S
O659 C654 1.166 . S
O660 Zn652 1.905 . S
O660 C654 1.182 . S
O661 Zn652 1.898 . S
O661 C655 1.167 . S
O662 Zn653 2.120 . S
O662 C655 1.299 1_545 S
O663 Zn651 1.898 . S
O663 C658 1.167 . S
O664 Zn653 2.120 . S
O664 C658 1.299 . S
O665 Zn653 2.114 . S
O665 C667 1.166 . S
O666 Zn651 1.905 . S
O666 C667 1.182 . S
C667 O665 1.166 . S
C667 O666 1.182 . S
O668 Zn653 2.080 1_665 S
O668 C671 1.305 . S
O669 Zn652 1.920 1_655 S
O669 C671 1.234 . S
C670 O656 1.305 . S
C670 O657 1.234 . S
C671 O668 1.305 . S
C671 O669 1.234 . S
C20 C545 1.272 . S
C523 C41 1.272 . S
C587 C62 1.272 . S
C82 C566 1.272 . S
C103 C628 1.272 . S
C124 C607 1.272 . S
C146 C670 1.272 . S
C649 C166 1.272 . S
C187 C377 1.271 . S
C209 C356 1.272 . S
C230 C418 1.272 . S
C398 C251 1.272 . S
C272 C460 1.271 . S
C292 C440 1.272 . S
C503 C314 1.272 . S
C335 C482 1.272 . S
C7 C67 1.074 . S
C28 C49 1.074 . S
C151 C88 1.074 . S
C133 C109 1.074 . S
C172 C238 1.074 . S
C196 C217 1.074 . S
C259 C322 1.074 . S
C301 C277 1.074 . S
C343 C403 1.074 . S
C364 C385 1.074 . S
C490 C427 1.074 . S
C445 C469 1.074 . S
C574 C508 1.074 . S
C532 C553 1.074 . S
C655 C592 1.074 . S
C634 C613 1.074 . S
C37 C16 2.147 1_455 S
C58 C66 2.147 1_655 S
C108 C87 2.147 1_655 S
C150 C142 2.147 1_655 S
C171 C205 2.147 1_655 S
C226 C247 2.147 1_655 S
C276 C268 2.147 1_655 S
C310 C331 2.147 1_455 S
C352 C373 2.147 . S
C402 C394 2.147 . S
C436 C444 2.147 . S
C478 C499 2.147 . S
C507 C541 2.147 . S
C562 C583 2.147 . S
C612 C591 2.147 . S
C633 C654 2.147 . S
C19 C3 2.019 . S
C40 C24 2.019 . S
C61 C45 2.019 . S
C79 C83 2.019 . S
C100 C104 2.019 . S
C125 C121 2.019 . S
C129 C145 2.019 . S
C163 C167 2.019 . S
C184 C188 2.019 1_565 S
C208 C192 2.019 . S
C229 C213 2.019 . S
C234 C250 2.019 1_565 S
C255 C271 2.019 1_545 S
C293 C289 2.019 . S
C313 C297 2.019 . S
C318 C334 2.019 1_545 S
C355 C339 2.019 1_455 S
C360 C376 2.019 . S
C381 C397 2.019 1_655 S
C419 C415 2.019 . S
C439 C423 2.019 1_655 S
C461 C457 2.019 . S
C465 C481 2.019 1_455 S
C502 C486 2.019 . S
C520 C524 2.019 1_665 S
C544 C528 2.019 . S
C549 C565 2.019 1_655 S
C570 C586 2.019 1_565 S
C608 C604 2.019 1_665 S
C629 C625 2.019 . S
C646 C650 2.019 1_455 S
C667 C671 2.019 1_545 S
C4 C91 1.753 1_454 S
C616 C25 1.753 1_556 S
C298 C46 1.753 1_655 S
C70 C487 1.753 . S
C112 C529 1.753 1_556 S
C130 C214 1.753 1_655 S
C154 C406 1.753 . S
C175 C256 1.753 1_465 S
C448 C193 1.753 . S
C658 C235 1.753 1_545 S
C280 C361 1.753 . S
C571 C319 1.753 1_565 S
C340 C424 1.753 . S
C637 C382 1.753 . S
C466 C550 1.753 . S
C511 C595 1.753 1_564 S
