# Generated by pormake.
# Topology unp, (4)-cn, num edge types: 1
# Building blocks:
#     Node 0, Type 0, BuildingBlock: TATPOV_clean_sbu_0, # of connection points: 4
#     Node 1, Type 0, BuildingBlock: TATPOV_clean_sbu_0, # of connection points: 4
#     Node 2, Type 0, BuildingBlock: TATPOV_clean_sbu_0, # of connection points: 4
#     Node 3, Type 0, BuildingBlock: TATPOV_clean_sbu_0, # of connection points: 4
#     Node 4, Type 0, BuildingBlock: TATPOV_clean_sbu_0, # of connection points: 4
#     Node 5, Type 0, BuildingBlock: TATPOV_clean_sbu_0, # of connection points: 4
#     Node 6, Type 0, BuildingBlock: TATPOV_clean_sbu_0, # of connection points: 4
#     Node 7, Type 0, BuildingBlock: TATPOV_clean_sbu_0, # of connection points: 4
#     Node 8, Type 0, BuildingBlock: TATPOV_clean_sbu_0, # of connection points: 4
#     Node 9, Type 0, BuildingBlock: TATPOV_clean_sbu_0, # of connection points: 4
#     Node 10, Type 0, BuildingBlock: TATPOV_clean_sbu_0, # of connection points: 4
#     Node 11, Type 0, BuildingBlock: TATPOV_clean_sbu_0, # of connection points: 4
#     Node 12, Type 0, BuildingBlock: TATPOV_clean_sbu_0, # of connection points: 4
#     Node 13, Type 0, BuildingBlock: TATPOV_clean_sbu_0, # of connection points: 4
#     Node 14, Type 0, BuildingBlock: TATPOV_clean_sbu_0, # of connection points: 4
#     Node 15, Type 0, BuildingBlock: TATPOV_clean_sbu_0, # of connection points: 4
#     Node 16, Type 0, BuildingBlock: TATPOV_clean_sbu_0, # of connection points: 4
#     Node 17, Type 0, BuildingBlock: TATPOV_clean_sbu_0, # of connection points: 4
#     Edge 18, Type (0, 0), BuildingBlock: ZUJKAS_clean_linker_0, # of connection points: 2
#     Edge 19, Type (0, 0), BuildingBlock: ZUJKAS_clean_linker_0, # of connection points: 2
#     Edge 20, Type (0, 0), BuildingBlock: ZUJKAS_clean_linker_0, # of connection points: 2
#     Edge 21, Type (0, 0), BuildingBlock: ZUJKAS_clean_linker_0, # of connection points: 2
#     Edge 22, Type (0, 0), BuildingBlock: ZUJKAS_clean_linker_0, # of connection points: 2
#     Edge 23, Type (0, 0), BuildingBlock: ZUJKAS_clean_linker_0, # of connection points: 2
#     Edge 24, Type (0, 0), BuildingBlock: ZUJKAS_clean_linker_0, # of connection points: 2
#     Edge 25, Type (0, 0), BuildingBlock: ZUJKAS_clean_linker_0, # of connection points: 2
#     Edge 26, Type (0, 0), BuildingBlock: ZUJKAS_clean_linker_0, # of connection points: 2
#     Edge 27, Type (0, 0), BuildingBlock: ZUJKAS_clean_linker_0, # of connection points: 2
#     Edge 28, Type (0, 0), BuildingBlock: ZUJKAS_clean_linker_0, # of connection points: 2
#     Edge 29, Type (0, 0), BuildingBlock: ZUJKAS_clean_linker_0, # of connection points: 2
#     Edge 30, Type (0, 0), BuildingBlock: ZUJKAS_clean_linker_0, # of connection points: 2
#     Edge 31, Type (0, 0), BuildingBlock: ZUJKAS_clean_linker_0, # of connection points: 2
#     Edge 32, Type (0, 0), BuildingBlock: ZUJKAS_clean_linker_0, # of connection points: 2
#     Edge 33, Type (0, 0), BuildingBlock: ZUJKAS_clean_linker_0, # of connection points: 2
#     Edge 34, Type (0, 0), BuildingBlock: ZUJKAS_clean_linker_0, # of connection points: 2
#     Edge 35, Type (0, 0), BuildingBlock: ZUJKAS_clean_linker_0, # of connection points: 2
#     Edge 36, Type (0, 0), BuildingBlock: ZUJKAS_clean_linker_0, # of connection points: 2
#     Edge 37, Type (0, 0), BuildingBlock: ZUJKAS_clean_linker_0, # of connection points: 2
#     Edge 38, Type (0, 0), BuildingBlock: ZUJKAS_clean_linker_0, # of connection points: 2
#     Edge 39, Type (0, 0), BuildingBlock: ZUJKAS_clean_linker_0, # of connection points: 2
#     Edge 40, Type (0, 0), BuildingBlock: ZUJKAS_clean_linker_0, # of connection points: 2
#     Edge 41, Type (0, 0), BuildingBlock: ZUJKAS_clean_linker_0, # of connection points: 2
#     Edge 42, Type (0, 0), BuildingBlock: ZUJKAS_clean_linker_0, # of connection points: 2
#     Edge 43, Type (0, 0), BuildingBlock: ZUJKAS_clean_linker_0, # of connection points: 2
#     Edge 44, Type (0, 0), BuildingBlock: ZUJKAS_clean_linker_0, # of connection points: 2
#     Edge 45, Type (0, 0), BuildingBlock: ZUJKAS_clean_linker_0, # of connection points: 2
#     Edge 46, Type (0, 0), BuildingBlock: ZUJKAS_clean_linker_0, # of connection points: 2
#     Edge 47, Type (0, 0), BuildingBlock: ZUJKAS_clean_linker_0, # of connection points: 2
#     Edge 48, Type (0, 0), BuildingBlock: ZUJKAS_clean_linker_0, # of connection points: 2
#     Edge 49, Type (0, 0), BuildingBlock: ZUJKAS_clean_linker_0, # of connection points: 2
#     Edge 50, Type (0, 0), BuildingBlock: ZUJKAS_clean_linker_0, # of connection points: 2
#     Edge 51, Type (0, 0), BuildingBlock: ZUJKAS_clean_linker_0, # of connection points: 2
#     Edge 52, Type (0, 0), BuildingBlock: ZUJKAS_clean_linker_0, # of connection points: 2
#     Edge 53, Type (0, 0), BuildingBlock: ZUJKAS_clean_linker_0, # of connection points: 2
# Relax obj value: 0.369
# Max RMSD: 0.173
# Mean RMSD: 0.173
data_MOF--net-unp--node1-TATPOV_clean_sbu_0--edge1-ZUJKAS_clean_linker_0
_symmetry_space_group_name_H-M    P1
_symmetry_Int_Tables_number       1
_symmetry_cell_setting            triclinic
loop_
_symmetry_equiv_pos_as_xyz
'x, y, z'
_cell_length_a     58.621559
_cell_length_b     58.609932
_cell_length_c     85.759041
_cell_angle_alpha  90.044064
_cell_angle_beta   89.945657
_cell_angle_gamma 119.948
loop_
_atom_site_label
_atom_site_type_symbol
_atom_site_fract_x
_atom_site_fract_y
_atom_site_fract_z
_atom_type_partial_charge
Zn0 Zn 0.13028 0.13573 0.09093 0.0
Zn1 Zn 0.16603 0.17222 0.10807 0.0
O2 O 0.16262 0.13835 0.11797 0.0
O3 O 0.12874 0.10779 0.10504 0.0
O4 O 0.19616 0.20099 0.11989 0.0
O5 O 0.15289 0.14643 0.07189 0.0
O6 O 0.1809 0.18087 0.08549 0.0
C7 C 0.14574 0.11416 0.11572 0.0
C8 C 0.11199 0.16743 0.1056 0.0
O9 O 0.13403 0.17721 0.11267 0.0
O10 O 0.10647 0.15049 0.09495 0.0
C11 C 0.1987 0.20079 0.13458 0.0
O12 O 0.18003 0.18165 0.1428 0.0
C13 C 0.17406 0.16828 0.07263 0.0
Zn14 Zn 0.84945 0.99536 0.08034 0.0
Zn15 Zn 0.81393 0.99267 0.09968 0.0
O16 O 0.84682 0.02841 0.10531 0.0
O17 O 0.87545 0.03185 0.08754 0.0
O18 O 0.78602 0.99286 0.11322 0.0
O19 O 0.82751 0.99027 0.06171 0.0
O20 O 0.79798 0.99025 0.07755 0.0
C21 C 0.86947 0.04141 0.09902 0.0
C22 C 0.83158 0.95174 0.10144 0.0
O23 O 0.81685 0.96023 0.10677 0.0
O24 O 0.84732 0.96362 0.09034 0.0
C25 C 0.78949 0.99868 0.12762 0.0
O26 O 0.81145 0.00298 0.1343 0.0
C27 C 0.80555 0.98898 0.06378 0.0
Zn28 Zn 0.0198 0.8568 0.09196 0.0
Zn29 Zn 0.01395 0.82255 0.11384 0.0
O30 O 0.98075 0.82588 0.11675 0.0
O31 O 0.98419 0.85214 0.09744 0.0
O32 O 0.00882 0.79404 0.12886 0.0
O33 O 0.0231 0.83528 0.07508 0.0
O34 O 0.01567 0.80541 0.09292 0.0
C35 C 0.97157 0.83805 0.10901 0.0
C36 C 0.0607 0.87866 0.11521 0.0
O37 O 0.04806 0.85573 0.12122 0.0
O38 O 0.05249 0.88382 0.1028 0.0
C39 C 0.99381 0.78747 0.1407 0.0
O40 O 0.98212 0.80095 0.14423 0.0
C41 C 0.01986 0.81297 0.07875 0.0
Zn42 Zn 0.12145 0.1483 0.90275 0.0
Zn43 Zn 0.16334 0.17754 0.88596 0.0
O44 O 0.13448 0.18431 0.87658 0.0
O45 O 0.10097 0.16289 0.8925 0.0
O46 O 0.19525 0.20363 0.87408 0.0
O47 O 0.13995 0.16426 0.92273 0.0
O48 O 0.1752 0.18954 0.9088 0.0
C49 C 0.11114 0.17772 0.88082 0.0
C50 C 0.13921 0.11831 0.88449 0.0
O51 O 0.15802 0.14088 0.8805 0.0
O52 O 0.12134 0.11656 0.89357 0.0
C53 C 0.19502 0.20538 0.85933 0.0
O54 O 0.17414 0.18817 0.85157 0.0
C55 C 0.16373 0.18241 0.922 0.0
Zn56 Zn 0.87706 0.03874 0.90191 0.0
Zn57 Zn 0.83614 0.02279 0.88332 0.0
O58 O 0.8444 0.99254 0.88108 0.0
O59 O 0.88006 0.00717 0.89545 0.0
O60 O 0.80336 0.01135 0.87067 0.0
O61 O 0.85621 0.03696 0.92077 0.0
O62 O 0.82244 0.02534 0.9052 0.0
C63 C 0.86308 0.98974 0.88653 0.0
C64 C 0.88647 0.07554 0.87746 0.0
O65 O 0.86387 0.05767 0.87282 0.0
O66 O 0.89602 0.07255 0.89001 0.0
C67 C 0.79458 0.99348 0.8603 0.0
O68 O 0.80806 0.98182 0.85667 0.0
C69 C 0.83243 0.03079 0.91883 0.0
Zn70 Zn 0.99821 0.84353 0.92461 0.0
Zn71 Zn 0.99704 0.8121 0.90248 0.0
O72 O 0.03066 0.84735 0.89702 0.0
O73 O 0.03086 0.87356 0.91546 0.0
O74 O 0.99799 0.78663 0.88715 0.0
O75 O 0.00216 0.82256 0.94149 0.0
O76 O 0.9979 0.7942 0.92329 0.0
C77 C 0.04118 0.87001 0.90341 0.0
C78 C 0.95212 0.82404 0.90518 0.0
O79 O 0.96317 0.81345 0.89758 0.0
O80 O 0.96257 0.83673 0.91758 0.0
C81 C 0.00589 0.79226 0.87314 0.0
O82 O 0.01217 0.81557 0.86759 0.0
C83 C 0.00079 0.80114 0.93757 0.0
Zn84 Zn 0.80566 0.48019 0.42586 0.0
Zn85 Zn 0.83532 0.51642 0.44501 0.0
O86 O 0.83973 0.48426 0.45077 0.0
O87 O 0.82069 0.45716 0.43117 0.0
O88 O 0.86225 0.54511 0.45873 0.0
O89 O 0.81881 0.50364 0.40731 0.0
O90 O 0.84872 0.53284 0.42302 0.0
C91 C 0.83387 0.46292 0.44365 0.0
C92 C 0.77634 0.49255 0.44778 0.0
O93 O 0.79898 0.51145 0.45159 0.0
O94 O 0.77432 0.47592 0.43765 0.0
C95 C 0.86824 0.54016 0.47204 0.0
O96 O 0.85473 0.51617 0.47767 0.0
C97 C 0.83929 0.52575 0.40933 0.0
Zn98 Zn 0.50065 0.31049 0.41326 0.0
Zn99 Zn 0.47 0.31261 0.4349 0.0
O100 O 0.50493 0.34758 0.43803 0.0
O101 O 0.53032 0.34609 0.41966 0.0
O102 O 0.44567 0.3158 0.45017 0.0
O103 O 0.47616 0.30694 0.39618 0.0
O104 O 0.4506 0.30959 0.41401 0.0
C105 C 0.52704 0.35799 0.43101 0.0
C106 C 0.48359 0.26851 0.4355 0.0
O107 O 0.47208 0.2797 0.44194 0.0
O108 O 0.49667 0.27785 0.42309 0.0
C109 C 0.45367 0.3283 0.46295 0.0
O110 O 0.47835 0.33778 0.46709 0.0
C111 C 0.4554 0.30724 0.39978 0.0
Zn112 Zn 0.68042 0.19233 0.42049 0.0
Zn113 Zn 0.68011 0.15934 0.44158 0.0
O114 O 0.64524 0.15898 0.44599 0.0
O115 O 0.64413 0.1841 0.42729 0.0
O116 O 0.67843 0.13152 0.45604 0.0
O117 O 0.68465 0.17262 0.40287 0.0
O118 O 0.68233 0.14381 0.42013 0.0
C119 C 0.63355 0.16943 0.43901 0.0
C120 C 0.72322 0.21714 0.44248 0.0
O121 O 0.71306 0.19416 0.44842 0.0
O122 O 0.71283 0.22119 0.43065 0.0
C123 C 0.66612 0.1256 0.46894 0.0
O124 O 0.65544 0.1394 0.47382 0.0
C125 C 0.68446 0.15146 0.40602 0.0
Zn126 Zn 0.81093 0.46141 0.24933 0.0
Zn127 Zn 0.84555 0.49495 0.22929 0.0
O128 O 0.81135 0.49495 0.22343 0.0
O129 O 0.78291 0.46823 0.24078 0.0
O130 O 0.87244 0.52302 0.21534 0.0
O131 O 0.83229 0.48176 0.26759 0.0
O132 O 0.86094 0.51059 0.25113 0.0
C133 C 0.78827 0.48356 0.22925 0.0
C134 C 0.83239 0.43758 0.22907 0.0
O135 O 0.84515 0.46052 0.22308 0.0
O136 O 0.8168 0.43323 0.24035 0.0
C137 C 0.8667 0.5276 0.20186 0.0
O138 O 0.84302 0.51212 0.19623 0.0
C139 C 0.85355 0.50297 0.26509 0.0
Zn140 Zn 0.5233 0.35273 0.2478 0.0
Zn141 Zn 0.48956 0.34959 0.22642 0.0
O142 O 0.4912 0.31564 0.2225 0.0
O143 O 0.51746 0.31709 0.24127 0.0
O144 O 0.46091 0.34559 0.21198 0.0
O145 O 0.50256 0.35572 0.26525 0.0
O146 O 0.47346 0.3516 0.24768 0.0
C147 C 0.50292 0.30541 0.22967 0.0
C148 C 0.54613 0.39497 0.22531 0.0
O149 O 0.52329 0.38323 0.21915 0.0
O150 O 0.55078 0.38583 0.23751 0.0
C151 C 0.45712 0.33543 0.19847 0.0
O152 O 0.47383 0.32873 0.19289 0.0
C153 C 0.48093 0.35434 0.26186 0.0
Zn154 Zn 0.6506 0.17067 0.25083 0.0
Zn155 Zn 0.64704 0.13679 0.22971 0.0
O156 O 0.68247 0.17014 0.2245 0.0
O157 O 0.68703 0.19719 0.24358 0.0
O158 O 0.6473 0.11029 0.21492 0.0
O159 O 0.64558 0.14672 0.26846 0.0
O160 O 0.64522 0.11889 0.2511 0.0
C161 C 0.6959 0.19219 0.23138 0.0
C162 C 0.60655 0.15497 0.23012 0.0
O163 O 0.61464 0.14057 0.2238 0.0
O164 O 0.61877 0.16953 0.24161 0.0
C165 C 0.65498 0.11589 0.20087 0.0
O166 O 0.66053 0.13896 0.19528 0.0
C167 C 0.64422 0.12503 0.26526 0.0
Zn168 Zn 0.46155 0.83855 0.75355 0.0
Zn169 Zn 0.49728 0.86316 0.7755 0.0
O170 O 0.4926 0.82616 0.77675 0.0
O171 O 0.46136 0.80483 0.75943 0.0
O172 O 0.5264 0.88409 0.79072 0.0
O173 O 0.48519 0.86199 0.73671 0.0
O174 O 0.51494 0.8825 0.75492 0.0
C175 C 0.47694 0.80489 0.76971 0.0
C176 C 0.44262 0.8581 0.77777 0.0
O177 O 0.46464 0.86426 0.78408 0.0
O178 O 0.43708 0.84792 0.76432 0.0
C179 C 0.53138 0.87408 0.80244 0.0
O180 O 0.51564 0.8491 0.80575 0.0
C181 C 0.50796 0.87986 0.74065 0.0
Zn182 Zn 0.16587 0.63179 0.75065 0.0
Zn183 Zn 0.13537 0.63826 0.77041 0.0
O184 O 0.17098 0.67227 0.77375 0.0
O185 O 0.1966 0.66653 0.7574 0.0
O186 O 0.11111 0.64426 0.78417 0.0
O187 O 0.14385 0.62935 0.73235 0.0
O188 O 0.11847 0.63551 0.74867 0.0
C189 C 0.19358 0.68029 0.7677 0.0
C190 C 0.14551 0.59194 0.774 0.0
O191 O 0.13514 0.60499 0.77936 0.0
O192 O 0.15903 0.59911 0.76164 0.0
C193 C 0.11685 0.65224 0.79816 0.0
O194 O 0.13861 0.65498 0.8043 0.0
C195 C 0.12397 0.63189 0.73482 0.0
Zn196 Zn 0.36606 0.5319 0.74608 0.0
Zn197 Zn 0.35776 0.49459 0.76589 0.0
O198 O 0.32346 0.49599 0.76819 0.0
O199 O 0.33115 0.52842 0.75224 0.0
O200 O 0.35126 0.46415 0.77955 0.0
O201 O 0.3689 0.5124 0.72787 0.0
O202 O 0.36254 0.48108 0.74436 0.0
C203 C 0.3163 0.5112 0.76204 0.0
C204 C 0.40407 0.55057 0.77043 0.0
O205 O 0.38977 0.52736 0.77579 0.0
O206 O 0.39865 0.55707 0.75751 0.0
C207 C 0.34101 0.4605 0.79302 0.0
O208 O 0.33581 0.47815 0.79884 0.0
C209 C 0.36668 0.49017 0.7305 0.0
Zn210 Zn 0.50411 0.81094 0.5889 0.0
Zn211 Zn 0.53199 0.84172 0.56552 0.0
O212 O 0.49584 0.83887 0.56201 0.0
O213 O 0.47248 0.81272 0.5812 0.0
O214 O 0.55527 0.86764 0.54922 0.0
O215 O 0.5274 0.83648 0.605 0.0
O216 O 0.55118 0.86198 0.58564 0.0
C217 C 0.47408 0.82627 0.56932 0.0
C218 C 0.5222 0.78525 0.56788 0.0
O219 O 0.53117 0.80675 0.56027 0.0
O220 O 0.51092 0.78271 0.58088 0.0
C221 C 0.54675 0.87199 0.5366 0.0
O222 O 0.52166 0.85753 0.53314 0.0
C223 C 0.54698 0.85752 0.60019 0.0
Zn224 Zn 0.18427 0.65882 0.57537 0.0
Zn225 Zn 0.15784 0.66976 0.55565 0.0
O226 O 0.15091 0.63264 0.54916 0.0
O227 O 0.16726 0.62106 0.56864 0.0
O228 O 0.13334 0.67483 0.54149 0.0
O229 O 0.17054 0.66902 0.59377 0.0
O230 O 0.14368 0.67261 0.5774 0.0
C231 C 0.15482 0.61551 0.55588 0.0
C232 C 0.21736 0.70154 0.55473 0.0
O233 O 0.19565 0.69949 0.55025 0.0
O234 O 0.21734 0.6857 0.56476 0.0
C235 C 0.12795 0.66501 0.52787 0.0
O236 O 0.14079 0.65376 0.52228 0.0
C237 C 0.15154 0.67298 0.59131 0.0
Zn238 Zn 0.30118 0.50487 0.57677 0.0
Zn239 Zn 0.30925 0.47662 0.55596 0.0
O240 O 0.34159 0.51368 0.55267 0.0
O241 O 0.33404 0.53743 0.56954 0.0
O242 O 0.31559 0.45326 0.54151 0.0
O243 O 0.30238 0.48359 0.59453 0.0
O244 O 0.30867 0.45951 0.57728 0.0
C245 C 0.34826 0.53587 0.55894 0.0
C246 C 0.25952 0.48147 0.55445 0.0
O247 O 0.27409 0.47347 0.54828 0.0
O248 O 0.26653 0.49464 0.56697 0.0
C249 C 0.33048 0.46143 0.5296 0.0
O250 O 0.34148 0.48635 0.52564 0.0
C251 C 0.30583 0.46444 0.59141 0.0
H252 H 0.41766 0.34448 0.20763 0.0
H253 H 0.37369 0.32586 0.19635 0.0
H254 H 0.39561 0.29019 0.15965 0.0
H255 H 0.43963 0.30844 0.17096 0.0
H256 H 0.35424 0.32853 0.16648 0.0
H257 H 0.3329 0.22759 0.18163 0.0
H258 H 0.36098 0.25678 0.18929 0.0
H259 H 0.3617 0.24597 0.16977 0.0
C260 C 0.41329 0.33295 0.19704 0.0
C261 C 0.43204 0.32761 0.19031 0.0
C262 C 0.38815 0.32238 0.19061 0.0
C263 C 0.38131 0.30627 0.17737 0.0
C264 C 0.40042 0.3022 0.17006 0.0
H265 H 0.24175 0.24114 0.12049 0.0
H266 H 0.28524 0.26889 0.13179 0.0
C267 C 0.42559 0.31275 0.17649 0.0
C268 C 0.35374 0.29239 0.17183 0.0
H269 H 0.30067 0.23099 0.16686 0.0
C270 C 0.34246 0.30721 0.16657 0.0
C271 C 0.33832 0.26461 0.1723 0.0
C272 C 0.34894 0.24775 0.17868 0.0
C273 C 0.31626 0.29488 0.16137 0.0
C274 C 0.30117 0.26706 0.1613 0.0
C275 C 0.31232 0.25232 0.16689 0.0
C276 C 0.27406 0.2526 0.15501 0.0
C277 C 0.30488 0.31172 0.15618 0.0
C278 C 0.25329 0.23419 0.16432 0.0
C279 C 0.22839 0.21808 0.15786 0.0
C280 C 0.2239 0.22 0.14194 0.0
C281 C 0.24451 0.23916 0.1328 0.0
C282 C 0.26938 0.25521 0.13926 0.0
H283 H 0.31595 0.33188 0.16118 0.0
H284 H 0.30611 0.31352 0.14329 0.0
H285 H 0.28387 0.30276 0.15962 0.0
H286 H 0.25656 0.23181 0.17649 0.0
H287 H 0.21295 0.20355 0.16522 0.0
H288 H 0.79191 0.01388 0.15804 0.0
H289 H 0.7638 0.02801 0.17094 0.0
H290 H 0.7171 0.01082 0.12917 0.0
H291 H 0.74472 0.99623 0.11628 0.0
H292 H 0.75891 0.06952 0.16114 0.0
H293 H 0.66067 0.97935 0.16274 0.0
H294 H 0.69059 0.97848 0.15915 0.0
H295 H 0.67532 0.98678 0.14369 0.0
C296 C 0.77535 0.01261 0.15169 0.0
C297 C 0.77064 0.00402 0.13611 0.0
C298 C 0.75932 0.02071 0.15908 0.0
C299 C 0.73822 0.02026 0.15107 0.0
C300 C 0.73292 0.01084 0.1357 0.0
H301 H 0.67576 0.1236 0.17146 0.0
H302 H 0.69374 0.09869 0.15863 0.0
C303 C 0.74888 0.00266 0.12831 0.0
C304 C 0.7235 0.0321 0.15821 0.0
H305 H 0.6619 0.02006 0.16789 0.0
C306 C 0.73772 0.05864 0.1627 0.0
C307 C 0.69586 0.01784 0.1603 0.0
C308 C 0.67972 0.98897 0.15636 0.0
C309 C 0.72507 0.07146 0.16903 0.0
C310 C 0.69735 0.0575 0.17061 0.0
C311 C 0.68311 0.03081 0.1664 0.0
C312 C 0.68311 0.07021 0.17723 0.0
C313 C 0.74157 0.09976 0.17419 0.0
C314 C 0.66996 0.06159 0.19153 0.0
C315 C 0.6595 0.07566 0.19885 0.0
C316 C 0.662 0.0986 0.19196 0.0
C317 C 0.6737 0.10617 0.17715 0.0
C318 C 0.6841 0.09204 0.16983 0.0
H319 H 0.76261 0.10551 0.17566 0.0
H320 H 0.74046 0.11283 0.16525 0.0
H321 H 0.73421 0.10317 0.18539 0.0
H322 H 0.66885 0.04468 0.19738 0.0
H323 H 0.65046 0.06916 0.21021 0.0
H324 H 0.91858 0.56137 0.20846 0.0
H325 H 0.94652 0.60558 0.19787 0.0
H326 H 0.88352 0.59495 0.16732 0.0
H327 H 0.8558 0.5505 0.17746 0.0
H328 H 0.9309 0.62107 0.15301 0.0
H329 H 0.93538 0.66559 0.21096 0.0
H330 H 0.94807 0.64336 0.21068 0.0
H331 H 0.91368 0.63111 0.207 0.0
C332 C 0.91082 0.56832 0.19932 0.0
C333 C 0.88487 0.55258 0.19392 0.0
C334 C 0.92674 0.59365 0.19337 0.0
C335 C 0.91683 0.6038 0.18213 0.0
C336 C 0.89149 0.58756 0.17608 0.0
H337 H 0.95342 0.76078 0.16124 0.0
H338 H 0.93776 0.71672 0.17176 0.0
C339 C 0.87567 0.56214 0.18189 0.0
C340 C 0.93215 0.63168 0.17715 0.0
H341 H 0.9587 0.6948 0.19048 0.0
C342 C 0.93716 0.63722 0.1612 0.0
C343 C 0.93994 0.65268 0.18787 0.0
C344 C 0.93382 0.64798 0.20506 0.0
C345 C 0.94931 0.66317 0.1556 0.0
C346 C 0.95732 0.68417 0.16634 0.0
C347 C 0.95276 0.67866 0.18232 0.0
C348 C 0.96855 0.71182 0.16112 0.0
C349 C 0.95233 0.66769 0.13821 0.0
C350 C 0.9916 0.72405 0.15211 0.0
C351 C 0.00045 0.74916 0.14594 0.0
C352 C 0.98662 0.7626 0.14889 0.0
C353 C 0.96448 0.75094 0.15872 0.0
C354 C 0.95549 0.72574 0.16473 0.0
H355 H 0.9395 0.64939 0.13157 0.0
H356 H 0.94753 0.68302 0.13467 0.0
H357 H 0.97304 0.67448 0.13486 0.0
H358 H 0.00239 0.71395 0.14954 0.0
H359 H 0.01776 0.75776 0.13856 0.0
H360 H 0.34682 0.4192 0.78339 0.0
H361 H 0.32657 0.3751 0.79472 0.0
H362 H 0.29441 0.39984 0.832 0.0
H363 H 0.31433 0.44399 0.82068 0.0
H364 H 0.32911 0.35534 0.8248 0.0
H365 H 0.22952 0.33867 0.81044 0.0
H366 H 0.25922 0.36572 0.80245 0.0
H367 H 0.24926 0.36747 0.82204 0.0
C368 C 0.3357 0.4154 0.79411 0.0
C369 C 0.33188 0.43502 0.80102 0.0
C370 C 0.3242 0.39019 0.80057 0.0
C371 C 0.30865 0.38416 0.81402 0.0
C372 C 0.30601 0.40406 0.82145 0.0
H373 H 0.23844 0.24675 0.87252 0.0
H374 H 0.26849 0.28894 0.86041 0.0
C375 C 0.31748 0.42929 0.815 0.0
C376 C 0.29384 0.35668 0.81968 0.0
H377 H 0.23144 0.30579 0.82541 0.0
C378 C 0.30776 0.34442 0.82492 0.0
C379 C 0.26602 0.34238 0.81948 0.0
C380 C 0.25006 0.35408 0.81317 0.0
C381 C 0.29447 0.31834 0.83039 0.0
C382 C 0.26663 0.30441 0.83075 0.0
C383 C 0.2528 0.31653 0.82516 0.0
C384 C 0.2512 0.27763 0.83743 0.0
C385 C 0.31032 0.30588 0.8356 0.0
C386 C 0.2316 0.25714 0.8285 0.0
C387 C 0.21419 0.23302 0.83542 0.0
C388 C 0.21598 0.22904 0.85143 0.0
C389 C 0.2365 0.24915 0.86015 0.0
C390 C 0.25386 0.27326 0.85323 0.0
H391 H 0.33032 0.31588 0.83034 0.0
H392 H 0.31261 0.30758 0.84846 0.0
H393 H 0.3003 0.28467 0.83248 0.0
H394 H 0.22919 0.26016 0.81628 0.0
H395 H 0.19865 0.21794 0.82836 0.0
H396 H 0.76713 0.95222 0.8403 0.0
H397 H 0.7222 0.93528 0.8308 0.0
H398 H 0.71755 0.99707 0.85536 0.0
H399 H 0.76227 0.01395 0.8651 0.0
H400 H 0.67481 0.94785 0.86085 0.0
H401 H 0.69461 0.965 0.79745 0.0
H402 H 0.70848 0.94678 0.80611 0.0
H403 H 0.72022 0.98031 0.81193 0.0
C404 C 0.75668 0.96241 0.84353 0.0
C405 C 0.76829 0.98443 0.85345 0.0
C406 C 0.73104 0.95276 0.83804 0.0
C407 C 0.71668 0.96511 0.84225 0.0
C408 C 0.72835 0.98732 0.85195 0.0
H409 H 0.56752 0.92627 0.799 0.0
H410 H 0.61178 0.9501 0.81005 0.0
C411 C 0.75393 0.99694 0.85747 0.0
C412 C 0.68903 0.95409 0.83718 0.0
H413 H 0.64986 0.93714 0.80496 0.0
C414 C 0.66933 0.94569 0.84863 0.0
C415 C 0.68202 0.95163 0.82125 0.0
C416 C 0.70245 0.96164 0.80847 0.0
C417 C 0.64266 0.93419 0.84456 0.0
C418 C 0.63557 0.93065 0.82862 0.0
C419 C 0.65534 0.93971 0.81718 0.0
C420 C 0.60778 0.91705 0.82346 0.0
C421 C 0.62238 0.92612 0.85734 0.0
C422 C 0.5907 0.89067 0.82755 0.0
C423 C 0.56531 0.87701 0.82133 0.0
C424 C 0.55669 0.88942 0.81075 0.0
C425 C 0.57356 0.91611 0.80709 0.0
C426 C 0.59888 0.92976 0.81337 0.0
H427 H 0.63123 0.93702 0.86833 0.0
H428 H 0.6061 0.92956 0.85386 0.0
H429 H 0.61392 0.90481 0.85976 0.0
H430 H 0.59734 0.88033 0.83508 0.0
H431 H 0.55287 0.85644 0.82431 0.0
H432 H 0.12392 0.6714 0.82794 0.0
H433 H 0.10044 0.69088 0.84082 0.0
H434 H 0.05109 0.67435 0.8003 0.0
H435 H 0.07404 0.65439 0.78746 0.0
H436 H 0.09913 0.73401 0.83042 0.0
H437 H 0.99743 0.64964 0.83535 0.0
H438 H 0.02534 0.6455 0.83116 0.0
H439 H 0.01047 0.65472 0.81592 0.0
C440 C 0.10776 0.67148 0.82187 0.0
C441 C 0.10089 0.66138 0.80666 0.0
C442 C 0.09439 0.68265 0.82924 0.0
C443 C 0.07385 0.68384 0.82158 0.0
C444 C 0.06649 0.67315 0.80656 0.0
H445 H 0.02611 0.79909 0.84358 0.0
H446 H 0.04068 0.7717 0.83017 0.0
C447 C 0.07977 0.66188 0.7992 0.0
C448 C 0.0617 0.69824 0.82875 0.0
H449 H 0.00308 0.6923 0.84006 0.0
C450 C 0.07814 0.72486 0.83259 0.0
C451 C 0.03434 0.68621 0.83165 0.0
C452 C 0.01588 0.65738 0.82845 0.0
C453 C 0.06798 0.73986 0.83914 0.0
C454 C 0.04052 0.72808 0.84159 0.0
C455 C 0.02407 0.70137 0.83793 0.0
C456 C 0.02882 0.74293 0.84871 0.0
C457 C 0.08684 0.76805 0.84369 0.0
C458 C 0.01614 0.73509 0.86319 0.0
C459 C 0.00758 0.75054 0.87081 0.0
C460 C 0.01155 0.77414 0.86407 0.0
C461 C 0.02296 0.78117 0.84915 0.0
C462 C 0.03144 0.76563 0.84152 0.0
H463 H 0.10742 0.77201 0.84458 0.0
H464 H 0.08637 0.7814 0.8347 0.0
H465 H 0.08117 0.77292 0.85504 0.0
H466 H 0.01377 0.71754 0.86889 0.0
H467 H 0.99871 0.74443 0.88224 0.0
H468 H 0.89784 0.59296 0.46589 0.0
H469 H 0.94202 0.62357 0.47571 0.0
H470 H 0.93934 0.56181 0.50438 0.0
H471 H 0.89494 0.53155 0.49515 0.0
H472 H 0.9633 0.60757 0.51929 0.0
H473 H 0.0048 0.62084 0.45949 0.0
H474 H 0.98083 0.6311 0.46186 0.0
H475 H 0.97111 0.59688 0.46389 0.0
C476 C 0.90654 0.58606 0.47448 0.0
C477 C 0.89304 0.55975 0.47961 0.0
C478 C 0.93186 0.60351 0.47998 0.0
C479 C 0.9443 0.59478 0.49043 0.0
C480 C 0.93022 0.56896 0.49623 0.0
H481 H 0.10108 0.63109 0.5042 0.0
H482 H 0.05737 0.61908 0.49464 0.0
C483 C 0.9048 0.55165 0.49094 0.0
C484 C 0.97237 0.61173 0.49479 0.0
H485 H 0.03472 0.64229 0.47984 0.0
C486 C 0.97895 0.61541 0.51067 0.0
C487 C 0.99275 0.62174 0.4835 0.0
C488 C 0.98713 0.6173 0.46624 0.0
C489 C 0.00525 0.62774 0.51563 0.0
C490 C 0.02564 0.63756 0.50434 0.0
C491 C 0.01909 0.63492 0.48845 0.0
C492 C 0.05357 0.64771 0.50871 0.0
C493 C 0.01078 0.62862 0.53288 0.0
C494 C 0.06651 0.6686 0.5193 0.0
C495 C 0.09142 0.67523 0.52501 0.0
C496 C 0.10402 0.66147 0.51993 0.0
C497 C 0.09191 0.64204 0.50838 0.0
C498 C 0.06687 0.63514 0.5029 0.0
H499 H 0.99291 0.6149 0.53961 0.0
H500 H 0.02631 0.62347 0.5352 0.0
H501 H 0.01773 0.64881 0.53733 0.0
H502 H 0.05699 0.67915 0.52358 0.0
H503 H 0.10043 0.69053 0.53376 0.0
H504 H 0.3681 0.47425 0.50717 0.0
H505 H 0.38309 0.44579 0.49584 0.0
H506 H 0.3242 0.37994 0.52217 0.0
H507 H 0.30945 0.40842 0.53385 0.0
H508 H 0.37201 0.38462 0.52522 0.0
H509 H 0.3518 0.38953 0.46271 0.0
H510 H 0.37124 0.42168 0.47105 0.0
H511 H 0.33814 0.40049 0.47789 0.0
C512 C 0.35805 0.45363 0.51038 0.0
C513 C 0.3376 0.44362 0.52142 0.0
C514 C 0.36656 0.43733 0.50382 0.0
C515 C 0.35454 0.41065 0.508 0.0
C516 C 0.33369 0.40045 0.51874 0.0
H517 H 0.40109 0.3098 0.45862 0.0
H518 H 0.37413 0.3259 0.47088 0.0
C519 C 0.32526 0.41676 0.52538 0.0
C520 C 0.36503 0.39395 0.50204 0.0
H521 H 0.38252 0.37493 0.46864 0.0
C522 C 0.37399 0.38219 0.51285 0.0
C523 C 0.36721 0.39041 0.48591 0.0
C524 C 0.35632 0.40097 0.47373 0.0
C525 C 0.3861 0.36795 0.50795 0.0
C526 C 0.38988 0.36594 0.49182 0.0
C527 C 0.37989 0.37672 0.48101 0.0
C528 C 0.40523 0.35393 0.48586 0.0
C529 C 0.39474 0.35525 0.5201 0.0
C530 C 0.43156 0.36404 0.49038 0.0
C531 C 0.44695 0.35472 0.4835 0.0
C532 C 0.43642 0.33541 0.47178 0.0
C533 C 0.40981 0.32473 0.4676 0.0
C534 C 0.39438 0.33393 0.47458 0.0
H535 H 0.38286 0.35093 0.53093 0.0
H536 H 0.39309 0.33664 0.51573 0.0
H537 H 0.41561 0.36897 0.5232 0.0
H538 H 0.44056 0.37992 0.49878 0.0
H539 H 0.46742 0.36351 0.4869 0.0
H540 H 0.63267 0.10178 0.49341 0.0
H541 H 0.61962 0.05876 0.50465 0.0
H542 H 0.67429 0.05113 0.4744 0.0
H543 H 0.68701 0.09395 0.46279 0.0
H544 H 0.62658 0.00826 0.47316 0.0
H545 H 0.65451 0.03348 0.53493 0.0
H546 H 0.63419 0.04638 0.52832 0.0
H547 H 0.66621 0.05809 0.51975 0.0
C548 C 0.64229 0.0912 0.48933 0.0
C549 C 0.66084 0.10128 0.47718 0.0
C550 C 0.63491 0.06664 0.49584 0.0
C551 C 0.64623 0.05186 0.49051 0.0
C552 C 0.66537 0.06225 0.47873 0.0
H553 H 0.60003 0.90403 0.53929 0.0
H554 H 0.62745 0.94644 0.5265 0.0
C555 C 0.67264 0.08674 0.47213 0.0
C556 C 0.63638 0.0247 0.49632 0.0
H557 H 0.62177 0.98834 0.52965 0.0
C558 C 0.62591 0.00392 0.4855 0.0
C559 C 0.63592 0.01902 0.51238 0.0
C560 C 0.64858 0.04047 0.52448 0.0
C561 C 0.61379 0.97757 0.49038 0.0
C562 C 0.61151 0.97187 0.50651 0.0
C563 C 0.6232 0.99268 0.51727 0.0
C564 C 0.5958 0.94465 0.5126 0.0
C565 C 0.60343 0.95616 0.47818 0.0
C566 C 0.56899 0.92931 0.50883 0.0
C567 C 0.55333 0.90495 0.516 0.0
C568 C 0.56408 0.89568 0.5273 0.0
C569 C 0.59113 0.91065 0.53067 0.0
C570 C 0.60683 0.93491 0.52339 0.0
H571 H 0.61453 0.96336 0.46707 0.0
H572 H 0.6046 0.93875 0.48217 0.0
H573 H 0.58252 0.94986 0.47571 0.0
H574 H 0.55987 0.93668 0.50085 0.0
H575 H 0.53254 0.89402 0.51323 0.0
H576 H 0.10271 0.18022 0.13488 0.0
H577 H 0.0612 0.1768 0.14379 0.0
H578 H 0.03263 0.16255 0.09641 0.0
H579 H 0.07376 0.16639 0.08755 0.0
H580 H 0.01323 0.18973 0.11391 0.0
H581 H 0.00099 0.10072 0.14523 0.0
H582 H 0.02773 0.13263 0.15048 0.0
H583 H 0.02805 0.11847 0.13195 0.0
C584 C 0.0879 0.17735 0.12635 0.0
C585 C 0.09117 0.17305 0.11057 0.0
C586 C 0.06414 0.1752 0.13146 0.0
C587 C 0.04357 0.16877 0.12081 0.0
C588 C 0.04812 0.1674 0.10487 0.0
H589 H 0.90885 0.08153 0.08308 0.0
H590 H 0.94745 0.11958 0.09379 0.0
C591 C 0.07163 0.16945 0.09981 0.0
C592 C 0.016 0.15888 0.12588 0.0
H593 H 0.9632 0.10035 0.13683 0.0
C594 C 0.00228 0.17061 0.11948 0.0
C595 C 0.00165 0.13412 0.13337 0.0
C596 C 0.01519 0.12058 0.14066 0.0
C597 C 0.97469 0.15676 0.11856 0.0
C598 C 0.96063 0.13054 0.12403 0.0
C599 C 0.97406 0.12037 0.13246 0.0
C600 C 0.93427 0.11144 0.1178 0.0
C601 C 0.96101 0.16952 0.11059 0.0
C602 C 0.91367 0.09422 0.12768 0.0
C603 C 0.89134 0.07226 0.1215 0.0
C604 C 0.88973 0.06698 0.10541 0.0
C605 C 0.90963 0.08507 0.09552 0.0
C606 C 0.93161 0.10706 0.10164 0.0
H607 H 0.97135 0.191 0.11304 0.0
H608 H 0.96148 0.16702 0.09778 0.0
H609 H 0.94017 0.16063 0.11437 0.0
H610 H 0.91551 0.097 0.1402 0.0
H611 H 0.8763 0.05852 0.12937 0.0
H612 H 0.82237 0.93365 0.13181 0.0
H613 H 0.83134 0.9 0.14276 0.0
H614 H 0.85008 0.88458 0.09667 0.0
H615 H 0.84095 0.91741 0.08584 0.0
H616 H 0.82367 0.83895 0.11495 0.0
H617 H 0.9091 0.92032 0.14626 0.0
H618 H 0.87635 0.91398 0.15041 0.0
H619 H 0.89114 0.92744 0.13186 0.0
C620 C 0.8277 0.92249 0.12404 0.0
C621 C 0.83139 0.92837 0.10803 0.0
C622 C 0.83299 0.90344 0.1303 0.0
C623 C 0.84181 0.8901 0.12055 0.0
C624 C 0.84335 0.8946 0.10443 0.0
H625 H 0.93768 0.84411 0.09037 0.0
H626 H 0.9 0.8483 0.09824 0.0
C627 C 0.83828 0.91353 0.09826 0.0
C628 C 0.85283 0.87396 0.12668 0.0
H629 H 0.91181 0.88314 0.13975 0.0
C630 C 0.84249 0.84821 0.12092 0.0
C631 C 0.87728 0.88592 0.13461 0.0
C632 C 0.8893 0.91344 0.14116 0.0
C633 C 0.85738 0.83549 0.12118 0.0
C634 C 0.88317 0.84888 0.12731 0.0
C635 C 0.89207 0.87305 0.13493 0.0
C636 C 0.90302 0.84152 0.12277 0.0
C637 C 0.8463 0.80873 0.11373 0.0
C638 C 0.91718 0.83615 0.13396 0.0
C639 C 0.93873 0.83347 0.12942 0.0
C640 C 0.94677 0.8369 0.11372 0.0
C641 C 0.93201 0.84146 0.10255 0.0
C642 C 0.91031 0.84362 0.10702 0.0
H643 H 0.82447 0.79753 0.11456 0.0
H644 H 0.85166 0.8112 0.10118 0.0
H645 H 0.85435 0.79711 0.11926 0.0
H646 H 0.91207 0.83485 0.14619 0.0
H647 H 0.94988 0.8301 0.13828 0.0
H648 H 0.10579 0.06403 0.11857 0.0
H649 H 0.10596 0.02759 0.13163 0.0
H650 H 0.18526 0.07919 0.1477 0.0
H651 H 0.18531 0.11638 0.13426 0.0
H652 H 0.181 0.03594 0.13405 0.0
H653 H 0.0996 0.00167 0.17543 0.0
H654 H 0.08828 0.00837 0.15758 0.0
H655 H 0.11576 0.03483 0.16775 0.0
C656 C 0.1232 0.06788 0.12506 0.0
C657 C 0.14561 0.09308 0.12527 0.0
C658 C 0.12313 0.047 0.13276 0.0
C659 C 0.14539 0.05068 0.14101 0.0
C660 C 0.16771 0.07599 0.14162 0.0
H661 H 0.07338 0.88459 0.14644 0.0
H662 H 0.10533 0.92578 0.15932 0.0
C663 C 0.16773 0.09715 0.13393 0.0
C664 C 0.14573 0.027 0.14677 0.0
H665 H 0.09994 0.96591 0.15911 0.0
C666 C 0.16387 0.02082 0.14012 0.0
C667 C 0.12432 0.00746 0.15541 0.0
C668 C 0.10614 0.01364 0.1646 0.0
C669 C 0.15837 0.99462 0.13943 0.0
C670 C 0.1338 0.97432 0.14498 0.0
C671 C 0.11833 0.98119 0.15422 0.0
C672 C 0.12063 0.94762 0.13782 0.0
C673 C 0.1779 0.9888 0.13155 0.0
C674 C 0.11923 0.94576 0.12148 0.0
C675 C 0.10119 0.92245 0.1142 0.0
C676 C 0.08379 0.9004 0.12303 0.0
C677 C 0.08658 0.90132 0.13934 0.0
C678 C 0.10482 0.92486 0.1467 0.0
H679 H 0.19819 0.00315 0.13543 0.0
H680 H 0.1739 0.96856 0.13411 0.0
H681 H 0.1772 0.99119 0.11875 0.0
H682 H 0.13041 0.96297 0.11425 0.0
H683 H 0.09965 0.92229 0.1016 0.0
H684 H 0.06003 0.87594 0.87337 0.0
H685 H 0.09275 0.91733 0.86102 0.0
H686 H 0.10569 0.95725 0.90521 0.0
H687 H 0.07399 0.91643 0.91749 0.0
H688 H 0.08585 0.9574 0.85786 0.0
H689 H 0.17875 0.99536 0.88935 0.0
H690 H 0.15375 0.96097 0.89028 0.0
H691 H 0.15354 0.98447 0.90387 0.0
C692 C 0.07059 0.89341 0.88051 0.0
C693 C 0.06424 0.89301 0.89637 0.0
C694 C 0.08927 0.91704 0.87344 0.0
C695 C 0.10208 0.94045 0.88219 0.0
C696 C 0.09684 0.93948 0.89823 0.0
H697 H 0.09651 0.06939 0.88513 0.0
H698 H 0.09384 0.02805 0.87832 0.0
C699 C 0.07829 0.91607 0.90523 0.0
C700 C 0.11683 0.96664 0.87455 0.0
H701 H 0.1646 0.02894 0.88397 0.0
C702 C 0.10371 0.97292 0.86311 0.0
C703 C 0.14068 0.98704 0.88082 0.0
C704 C 0.15756 0.98143 0.89162 0.0
C705 C 0.11149 0.99921 0.85972 0.0
C706 C 0.13239 0.01955 0.86826 0.0
C707 C 0.148 0.01335 0.87778 0.0
C708 C 0.1342 0.04553 0.87035 0.0
C709 C 0.09587 0.00487 0.84795 0.0
C710 C 0.158 0.06933 0.86843 0.0
C711 C 0.15966 0.09335 0.87247 0.0
C712 C 0.13768 0.09373 0.87878 0.0
C713 C 0.11387 0.06987 0.88036 0.0
C714 C 0.1122 0.04614 0.87625 0.0
H715 H 0.08939 0.99046 0.83821 0.0
H716 H 0.07789 0.00279 0.85361 0.0
H717 H 0.10747 0.02508 0.84311 0.0
H718 H 0.17534 0.06926 0.86411 0.0
H719 H 0.1783 0.11143 0.87117 0.0
H720 H 0.07208 0.18517 0.89162 0.0
H721 H 0.03695 0.18482 0.87643 0.0
H722 H 0.07663 0.18573 0.83383 0.0
H723 H 0.11215 0.18586 0.84919 0.0
H724 H 0.02864 0.21231 0.8512 0.0
H725 H 0.0102 0.11258 0.83398 0.0
H726 H 0.0342 0.13087 0.84883 0.0
H727 H 0.04067 0.14154 0.82888 0.0
C728 C 0.07376 0.18608 0.87902 0.0
C729 C 0.09451 0.18498 0.87157 0.0
C730 C 0.05374 0.18608 0.87032 0.0
C731 C 0.0539 0.18475 0.85399 0.0
C732 C 0.07598 0.18642 0.84643 0.0
H733 H 0.89093 0.07862 0.84559 0.0
H734 H 0.92876 0.11264 0.83105 0.0
C735 C 0.09628 0.18661 0.8552 0.0
C736 C 0.02869 0.17643 0.84579 0.0
H737 H 0.97386 0.11785 0.83773 0.0
C738 C 0.01677 0.19194 0.84757 0.0
C739 C 0.01327 0.1501 0.84059 0.0
C740 C 0.02507 0.13267 0.83791 0.0
C741 C 0.9893 0.18063 0.84671 0.0
C742 C 0.97357 0.15315 0.8444 0.0
C743 C 0.98582 0.13882 0.83988 0.0
C744 C 0.94661 0.13791 0.85108 0.0
C745 C 0.97733 0.19776 0.84972 0.0
C746 C 0.94328 0.14138 0.86697 0.0
C747 C 0.92191 0.12202 0.87522 0.0
C748 C 0.90338 0.09875 0.86779 0.0
C749 C 0.90493 0.09646 0.85157 0.0
C750 C 0.92656 0.11589 0.84326 0.0
H751 H 0.98888 0.21697 0.84367 0.0
H752 H 0.95655 0.18826 0.84575 0.0
H753 H 0.97814 0.20197 0.8624 0.0
H754 H 0.95858 0.15767 0.87347 0.0
H755 H 0.92109 0.1243 0.88771 0.0
H756 H 0.91823 0.83451 0.92093 0.0
H757 H 0.88958 0.849 0.90987 0.0
H758 H 0.90566 0.83143 0.86364 0.0
H759 H 0.93524 0.81742 0.87476 0.0
H760 H 0.91787 0.88038 0.86519 0.0
H761 H 0.81952 0.82459 0.89099 0.0
H762 H 0.84281 0.83399 0.90655 0.0
H763 H 0.84237 0.81238 0.89137 0.0
C764 C 0.91504 0.83287 0.90844 0.0
C765 C 0.9293 0.82517 0.89871 0.0
C766 C 0.8983 0.8409 0.9021 0.0
C767 C 0.89517 0.84116 0.88588 0.0
C768 C 0.90763 0.83128 0.87619 0.0
H769 H 0.82729 0.94454 0.87116 0.0
H770 H 0.83101 0.90519 0.86607 0.0
C771 C 0.92448 0.8232 0.88256 0.0
C772 C 0.88359 0.85664 0.87938 0.0
H773 H 0.83667 0.87297 0.888 0.0
C774 C 0.8996 0.87816 0.86974 0.0
C775 C 0.85947 0.85367 0.88489 0.0
C776 C 0.83999 0.82967 0.89387 0.0
C777 C 0.89379 0.89833 0.86714 0.0
C778 C 0.87175 0.8972 0.87462 0.0
C779 C 0.85398 0.87419 0.8826 0.0
C780 C 0.86953 0.92115 0.87658 0.0
C781 C 0.91226 0.92149 0.85719 0.0
C782 C 0.88975 0.94294 0.88433 0.0
C783 C 0.88766 0.96518 0.88732 0.0
C784 C 0.86519 0.9662 0.88268 0.0
C785 C 0.84491 0.94441 0.87481 0.0
C786 C 0.84698 0.92194 0.87189 0.0
H787 H 0.92141 0.91536 0.84796 0.0
H788 H 0.90192 0.93089 0.85161 0.0
H789 H 0.92835 0.93634 0.8646 0.0
H790 H 0.90703 0.94252 0.88842 0.0
H791 H 0.90365 0.98151 0.89342 0.0
H792 H 0.73173 0.44679 0.45282 0.0
H793 H 0.68849 0.44028 0.45882 0.0
H794 H 0.72145 0.52414 0.46438 0.0
H795 H 0.76546 0.53086 0.45799 0.0
H796 H 0.66466 0.45268 0.48272 0.0
H797 H 0.67029 0.50685 0.42806 0.0
H798 H 0.69524 0.49839 0.43239 0.0
H799 H 0.69352 0.52345 0.44352 0.0
C800 C 0.72995 0.46389 0.45557 0.0
C801 C 0.75183 0.48936 0.45466 0.0
C802 C 0.70519 0.46013 0.45913 0.0
C803 C 0.7016 0.48173 0.46182 0.0
C804 C 0.72373 0.50722 0.46211 0.0
H805 H 0.52922 0.38841 0.45617 0.0
H806 H 0.56849 0.42719 0.46659 0.0
C807 C 0.74883 0.51102 0.45858 0.0
C808 C 0.67414 0.47666 0.46215 0.0
H809 H 0.62894 0.47338 0.4359 0.0
C810 C 0.65667 0.4579 0.47283 0.0
C811 C 0.66384 0.48383 0.44934 0.0
C812 C 0.68155 0.50421 0.43761 0.0
C813 C 0.62955 0.44316 0.46974 0.0
C814 C 0.61973 0.44796 0.4558 0.0
C815 C 0.63665 0.46952 0.44645 0.0
C816 C 0.59473 0.42736 0.44875 0.0
C817 C 0.6123 0.42056 0.48041 0.0
C818 C 0.59619 0.41535 0.43492 0.0
C819 C 0.57394 0.39356 0.42889 0.0
C820 C 0.5496 0.38307 0.43659 0.0
C821 C 0.54776 0.39587 0.45004 0.0
C822 C 0.57018 0.41795 0.45605 0.0
H823 H 0.62356 0.41842 0.49016 0.0
H824 H 0.59674 0.42382 0.48548 0.0
H825 H 0.60253 0.4018 0.47376 0.0
H826 H 0.61489 0.42217 0.42907 0.0
H827 H 0.57612 0.3844 0.41845 0.0
H828 H 0.47985 0.25504 0.4666 0.0
H829 H 0.49113 0.22332 0.47794 0.0
H830 H 0.50019 0.20005 0.43163 0.0
H831 H 0.48842 0.23075 0.42044 0.0
H832 H 0.48094 0.1585 0.452 0.0
H833 H 0.56882 0.24649 0.477 0.0
H834 H 0.5366 0.23893 0.4834 0.0
H835 H 0.547 0.25022 0.46381 0.0
C836 C 0.48343 0.24249 0.45892 0.0
C837 C 0.48379 0.24569 0.44265 0.0
C838 C 0.49009 0.22456 0.46539 0.0
C839 C 0.49716 0.20978 0.45563 0.0
C840 C 0.49496 0.21128 0.43943 0.0
H841 H 0.59461 0.16917 0.42194 0.0
H842 H 0.55604 0.17031 0.43152 0.0
C843 C 0.48837 0.22901 0.43302 0.0
C844 C 0.51053 0.19564 0.46152 0.0
H845 H 0.5725 0.20962 0.47163 0.0
C846 C 0.50062 0.16937 0.45684 0.0
C847 C 0.53615 0.20968 0.46802 0.0
C848 C 0.54795 0.2379 0.47334 0.0
C849 C 0.51677 0.15799 0.45663 0.0
C850 C 0.54333 0.17324 0.46127 0.0
C851 C 0.55212 0.1981 0.46795 0.0
C852 C 0.56353 0.1669 0.45588 0.0
C853 C 0.50595 0.13056 0.45023 0.0
C854 C 0.58043 0.16429 0.4664 0.0
C855 C 0.60248 0.16333 0.46089 0.0
C856 C 0.60823 0.16577 0.44484 0.0
C857 C 0.59069 0.16734 0.43436 0.0
C858 C 0.5685 0.16774 0.43982 0.0
H859 H 0.4844 0.11852 0.45228 0.0
H860 H 0.50933 0.1317 0.43744 0.0
H861 H 0.51586 0.12053 0.45557 0.0
H862 H 0.57713 0.16402 0.47884 0.0
H863 H 0.61581 0.16227 0.46921 0.0
H864 H 0.83748 0.4534 0.47459 0.0
H865 H 0.83502 0.41344 0.48545 0.0
H866 H 0.83914 0.3876 0.43893 0.0
H867 H 0.84157 0.42708 0.42818 0.0
H868 H 0.79285 0.36663 0.47846 0.0
H869 H 0.88037 0.3608 0.46242 0.0
H870 H 0.88075 0.39183 0.46332 0.0
H871 H 0.87019 0.37204 0.44584 0.0
C872 C 0.83893 0.43965 0.46678 0.0
C873 C 0.83948 0.44316 0.45054 0.0
C874 C 0.8375 0.41683 0.47299 0.0
C875 C 0.8372 0.3976 0.46304 0.0
C876 C 0.84001 0.40235 0.44691 0.0
H877 H 0.76018 0.25996 0.42724 0.0
H878 H 0.79337 0.30146 0.43847 0.0
C879 C 0.8411 0.42484 0.44073 0.0
C880 C 0.82842 0.3705 0.46864 0.0
H881 H 0.83743 0.31892 0.45954 0.0
C882 C 0.80302 0.35623 0.47501 0.0
C883 C 0.8418 0.35696 0.46437 0.0
C884 C 0.86992 0.37136 0.45878 0.0
C885 C 0.78921 0.32859 0.47497 0.0
C886 C 0.80135 0.31503 0.46857 0.0
C887 C 0.82801 0.32932 0.46426 0.0
C888 C 0.78513 0.28796 0.46239 0.0
C889 C 0.76073 0.31423 0.48002 0.0
C890 C 0.77014 0.26614 0.47208 0.0
C891 C 0.75098 0.24211 0.46561 0.0
C892 C 0.74655 0.23988 0.44942 0.0
C893 C 0.76294 0.2612 0.43977 0.0
C894 C 0.78207 0.28491 0.44618 0.0
H895 H 0.75408 0.32785 0.4843 0.0
H896 H 0.74797 0.30269 0.47013 0.0
H897 H 0.75796 0.30025 0.48954 0.0
H898 H 0.77238 0.26805 0.48463 0.0
H899 H 0.73859 0.22593 0.47329 0.0
H900 H 0.71147 0.20029 0.20073 0.0
H901 H 0.74953 0.23974 0.1898 0.0
H902 H 0.7744 0.27017 0.2363 0.0
H903 H 0.73666 0.23133 0.24715 0.0
H904 H 0.75414 0.28847 0.19471 0.0
H905 H 0.84465 0.29207 0.21521 0.0
H906 H 0.81366 0.26154 0.21363 0.0
H907 H 0.82122 0.28182 0.23081 0.0
C908 C 0.72556 0.21508 0.20859 0.0
C909 C 0.72105 0.21292 0.22478 0.0
C910 C 0.74728 0.23754 0.20234 0.0
C911 C 0.76505 0.25772 0.21224 0.0
C912 C 0.76138 0.25461 0.22844 0.0
H913 H 0.82729 0.39589 0.24522 0.0
H914 H 0.81961 0.35412 0.23479 0.0
C915 C 0.73959 0.23252 0.23464 0.0
C916 C 0.78438 0.28405 0.2061 0.0
H917 H 0.8452 0.33473 0.21544 0.0
C918 C 0.77447 0.29852 0.19858 0.0
C919 C 0.81097 0.29702 0.21092 0.0
C920 C 0.82328 0.28216 0.21793 0.0
C921 C 0.7891 0.32613 0.19799 0.0
C922 C 0.8144 0.33938 0.20491 0.0
C923 C 0.82569 0.32461 0.21031 0.0
C924 C 0.82548 0.36674 0.21068 0.0
C925 C 0.7761 0.34091 0.19174 0.0
C926 C 0.83264 0.38825 0.20065 0.0
C927 C 0.83707 0.41242 0.20667 0.0
C928 C 0.8342 0.41512 0.22274 0.0
C929 C 0.82929 0.39425 0.23277 0.0
C930 C 0.82507 0.37038 0.22681 0.0
H931 H 0.75593 0.3275 0.18728 0.0
H932 H 0.77484 0.35344 0.20104 0.0
H933 H 0.78805 0.35396 0.18206 0.0
H934 H 0.83341 0.38594 0.18816 0.0
H935 H 0.8409 0.42828 0.1987 0.0
H936 H 0.74359 0.47556 0.24349 0.0
H937 H 0.7062 0.47644 0.23179 0.0
H938 H 0.74712 0.50016 0.18779 0.0
H939 H 0.78521 0.49967 0.19957 0.0
H940 H 0.70417 0.5208 0.21129 0.0
H941 H 0.67487 0.42411 0.18335 0.0
H942 H 0.69599 0.43382 0.20024 0.0
H943 H 0.70817 0.45139 0.18225 0.0
C944 C 0.74489 0.48135 0.23139 0.0
C945 C 0.76722 0.48729 0.22241 0.0
C946 C 0.72357 0.48202 0.22475 0.0
C947 C 0.72397 0.48836 0.20896 0.0
C948 C 0.74658 0.49534 0.20003 0.0
H949 H 0.55721 0.40556 0.19416 0.0
H950 H 0.60031 0.43755 0.1832 0.0
C951 C 0.76823 0.49502 0.20676 0.0
C952 C 0.69927 0.48449 0.20197 0.0
H953 H 0.64095 0.43271 0.19015 0.0
C954 C 0.69049 0.50199 0.20605 0.0
C955 C 0.68166 0.46027 0.19481 0.0
C956 C 0.69049 0.44122 0.18981 0.0
C957 C 0.66374 0.49442 0.20495 0.0
C958 C 0.64542 0.46845 0.20021 0.0
C959 C 0.65484 0.45251 0.19401 0.0
C960 C 0.61755 0.45515 0.20547 0.0
C961 C 0.65514 0.51359 0.21005 0.0
C962 C 0.61256 0.45506 0.2215 0.0
C963 C 0.58824 0.43687 0.2277 0.0
C964 C 0.5683 0.41829 0.21804 0.0
C965 C 0.57225 0.41983 0.20183 0.0
C966 C 0.59686 0.43806 0.19558 0.0
H967 H 0.66951 0.53378 0.20602 0.0
H968 H 0.63534 0.5081 0.20548 0.0
H969 H 0.65471 0.51414 0.22298 0.0
H970 H 0.6282 0.46737 0.2295 0.0
H971 H 0.58566 0.4361 0.24024 0.0
H972 H 0.49398 0.28527 0.19996 0.0
H973 H 0.49693 0.24693 0.19091 0.0
H974 H 0.50995 0.23133 0.23823 0.0
H975 H 0.50756 0.26953 0.24722 0.0
H976 H 0.5444 0.24417 0.19673 0.0
H977 H 0.45639 0.15738 0.22052 0.0
H978 H 0.45751 0.18826 0.21659 0.0
H979 H 0.47109 0.18381 0.23438 0.0
C980 C 0.49687 0.27325 0.20843 0.0
C981 C 0.50069 0.28042 0.22428 0.0
C982 C 0.49854 0.25141 0.20325 0.0
C983 C 0.50326 0.2361 0.21393 0.0
C984 C 0.50577 0.24256 0.22983 0.0
H985 H 0.57296 0.16378 0.24699 0.0
H986 H 0.54159 0.17598 0.2374 0.0
C987 C 0.50463 0.26454 0.23494 0.0
C988 C 0.50946 0.21571 0.20871 0.0
H989 H 0.4964 0.15425 0.21912 0.0
C990 C 0.53349 0.22411 0.20104 0.0
C991 C 0.49502 0.18955 0.2142 0.0
C992 C 0.46841 0.17912 0.22175 0.0
C993 C 0.54516 0.20821 0.20061 0.0
C994 C 0.53209 0.18312 0.20782 0.0
C995 C 0.50651 0.17353 0.21369 0.0
C996 C 0.54697 0.17013 0.21303 0.0
C997 C 0.57261 0.21958 0.19404 0.0
C998 C 0.55962 0.16154 0.20257 0.0
C999 C 0.57784 0.15451 0.20811 0.0
C1000 C 0.58354 0.15614 0.22413 0.0
C1001 C 0.5692 0.16266 0.23456 0.0
C1002 C 0.55111 0.1695 0.22908 0.0
H1003 H 0.58061 0.2401 0.18981 0.0
H1004 H 0.58614 0.21948 0.20306 0.0
H1005 H 0.57239 0.20733 0.18412 0.0
H1006 H 0.55639 0.16148 0.19014 0.0
H1007 H 0.58862 0.1495 0.19983 0.0
H1008 H 0.24493 0.69691 0.76157 0.0
H1009 H 0.28339 0.73797 0.76923 0.0
H1010 H 0.23378 0.76207 0.79277 0.0
H1011 H 0.19471 0.72018 0.7854 0.0
H1012 H 0.2931 0.78732 0.76073 0.0
H1013 H 0.29151 0.77714 0.82535 0.0
H1014 H 0.27237 0.74926 0.81278 0.0
H1015 H 0.26249 0.77337 0.81578 0.0
C1016 C 0.24205 0.7108 0.76842 0.0
C1017 C 0.2167 0.70531 0.77279 0.0
C1018 C 0.26412 0.7343 0.77282 0.0
C1019 C 0.2615 0.75307 0.78161 0.0
C1020 C 0.23628 0.7477 0.78617 0.0
H1021 H 0.41871 0.88746 0.77423 0.0
H1022 H 0.37204 0.87079 0.77996 0.0
C1023 C 0.214 0.72387 0.78187 0.0
C1024 C 0.28557 0.77845 0.78511 0.0
H1025 H 0.32967 0.8117 0.81415 0.0
C1026 C 0.30098 0.79309 0.77242 0.0
C1027 C 0.29556 0.78587 0.8004 0.0
C1028 C 0.27979 0.77063 0.81442 0.0
C1029 C 0.32712 0.81317 0.77438 0.0
C1030 C 0.33781 0.81983 0.78966 0.0
C1031 C 0.32149 0.80674 0.80248 0.0
C1032 C 0.36674 0.83612 0.79214 0.0
C1033 C 0.34354 0.82501 0.75987 0.0
C1034 C 0.38001 0.82433 0.7991 0.0
C1035 C 0.40694 0.83469 0.7966 0.0
C1036 C 0.42075 0.85662 0.78687 0.0
C1037 C 0.40841 0.87056 0.78182 0.0
C1038 C 0.38164 0.86074 0.78486 0.0
H1039 H 0.33329 0.81412 0.74913 0.0
H1040 H 0.34787 0.8456 0.7585 0.0
H1041 H 0.36245 0.82503 0.76068 0.0
H1042 H 0.36911 0.8055 0.80496 0.0
H1043 H 0.41602 0.82348 0.80046 0.0
H1044 H 0.29974 0.54552 0.75433 0.0
H1045 H 0.25924 0.5443 0.76187 0.0
H1046 H 0.23472 0.47225 0.78733 0.0
H1047 H 0.27604 0.4737 0.7801 0.0
H1048 H 0.20904 0.50642 0.75507 0.0
H1049 H 0.22377 0.51776 0.81936 0.0
H1050 H 0.25027 0.52396 0.80618 0.0
H1051 H 0.22492 0.49078 0.81012 0.0
C1052 C 0.28585 0.52936 0.76154 0.0
C1053 C 0.29117 0.50968 0.76659 0.0
C1054 C 0.26263 0.52869 0.76586 0.0
C1055 C 0.24398 0.50829 0.77525 0.0
C1056 C 0.24901 0.48842 0.78028 0.0
H1057 H 0.11355 0.53881 0.77128 0.0
H1058 H 0.12866 0.50725 0.77621 0.0
C1059 C 0.27254 0.48919 0.77606 0.0
C1060 C 0.21933 0.5083 0.77924 0.0
H1061 H 0.18921 0.52209 0.80891 0.0
C1062 C 0.20426 0.50931 0.76687 0.0
C1063 C 0.21315 0.51187 0.79467 0.0
C1064 C 0.22886 0.5112 0.8084 0.0
C1065 C 0.18503 0.51651 0.76923 0.0
C1066 C 0.17975 0.52161 0.78462 0.0
C1067 C 0.19314 0.5181 0.79717 0.0
C1068 C 0.16492 0.53576 0.78743 0.0
C1069 C 0.17264 0.52109 0.755 0.0
C1070 C 0.17836 0.56104 0.79406 0.0
C1071 C 0.16904 0.57857 0.79196 0.0
C1072 C 0.14638 0.57118 0.78304 0.0
C1073 C 0.13098 0.54484 0.77833 0.0
C1074 C 0.1399 0.52699 0.78087 0.0
H1075 H 0.18237 0.52051 0.744 0.0
H1076 H 0.15165 0.50551 0.75427 0.0
H1077 H 0.17371 0.54052 0.75568 0.0
H1078 H 0.19755 0.56829 0.79934 0.0
H1079 H 0.18141 0.5989 0.79551 0.0
H1080 H 0.43977 0.75518 0.76146 0.0
H1081 H 0.439 0.71416 0.7672 0.0
H1082 H 0.51256 0.75696 0.79199 0.0
H1083 H 0.51309 0.79838 0.78665 0.0
H1084 H 0.47493 0.70117 0.75772 0.0
H1085 H 0.46811 0.69767 0.82247 0.0
H1086 H 0.46211 0.71996 0.81101 0.0
H1087 H 0.49518 0.72663 0.81404 0.0
C1088 C 0.45576 0.75596 0.76821 0.0
C1089 C 0.47654 0.78007 0.77355 0.0
C1090 C 0.45527 0.73245 0.77151 0.0
C1091 C 0.47562 0.73244 0.78012 0.0
C1092 C 0.4964 0.75644 0.78558 0.0
H1093 H 0.45726 0.57747 0.76679 0.0
H1094 H 0.48474 0.6241 0.77354 0.0
C1095 C 0.49676 0.78009 0.78242 0.0
C1096 C 0.4752 0.70715 0.78245 0.0
H1097 H 0.46625 0.66111 0.80986 0.0
C1098 C 0.47341 0.69251 0.76912 0.0
C1099 C 0.47332 0.69603 0.79736 0.0
C1100 C 0.47459 0.71071 0.81208 0.0
C1101 C 0.46777 0.66636 0.77016 0.0
C1102 C 0.46511 0.6548 0.78508 0.0
C1103 C 0.46861 0.67005 0.79847 0.0
C1104 C 0.45421 0.62594 0.78675 0.0
C1105 C 0.46254 0.65089 0.75518 0.0
C1106 C 0.42943 0.61082 0.79379 0.0
C1107 C 0.41427 0.58392 0.79059 0.0
C1108 C 0.42359 0.57203 0.78013 0.0
C1109 C 0.44978 0.58624 0.77497 0.0
C1110 C 0.46529 0.61298 0.77861 0.0
H1111 H 0.46039 0.66142 0.74502 0.0
H1112 H 0.47924 0.64759 0.75271 0.0
H1113 H 0.44428 0.63146 0.75613 0.0
H1114 H 0.42053 0.62026 0.80026 0.0
H1115 H 0.394 0.5734 0.79453 0.0
H1116 H 0.5167 0.74222 0.58304 0.0
H1117 H 0.50006 0.69868 0.57207 0.0
H1118 H 0.50711 0.73022 0.52572 0.0
H1119 H 0.52323 0.7742 0.53684 0.0
H1120 H 0.459 0.69483 0.53079 0.0
H1121 H 0.51696 0.65014 0.54963 0.0
H1122 H 0.51219 0.66533 0.56646 0.0
H1123 H 0.53044 0.68541 0.54999 0.0
C1124 C 0.51566 0.74013 0.57047 0.0
C1125 C 0.52084 0.76156 0.56083 0.0
C1126 C 0.50641 0.71513 0.56414 0.0
C1127 C 0.50238 0.71099 0.54801 0.0
C1128 C 0.51013 0.73289 0.5382 0.0
H1129 H 0.38732 0.54065 0.53892 0.0
H1130 H 0.42715 0.58158 0.53107 0.0
C1131 C 0.51943 0.75806 0.54456 0.0
C1132 C 0.4848 0.68373 0.54225 0.0
H1133 H 0.46779 0.6204 0.55112 0.0
C1134 C 0.46144 0.67859 0.53469 0.0
C1135 C 0.4879 0.66226 0.54694 0.0
C1136 C 0.51344 0.6662 0.55354 0.0
C1137 C 0.44 0.65292 0.53364 0.0
C1138 C 0.4418 0.632 0.54053 0.0
C1139 C 0.46618 0.63659 0.5462 0.0
C1140 C 0.41778 0.60698 0.5446 0.0
C1141 C 0.41488 0.64869 0.52618 0.0
C1142 C 0.3997 0.60776 0.55499 0.0
C1143 C 0.37727 0.58467 0.55955 0.0
C1144 C 0.37232 0.56012 0.55386 0.0
C1145 C 0.39052 0.55927 0.54346 0.0
C1146 C 0.41324 0.58257 0.53897 0.0
H1147 H 0.41907 0.66355 0.51694 0.0
H1148 H 0.40353 0.62869 0.52102 0.0
H1149 H 0.40248 0.6509 0.53517 0.0
H1150 H 0.40312 0.62635 0.55974 0.0
H1151 H 0.36378 0.58615 0.56758 0.0
H1152 H 0.26262 0.70013 0.55412 0.0
H1153 H 0.30646 0.73551 0.54789 0.0
H1154 H 0.27493 0.78555 0.53521 0.0
H1155 H 0.23026 0.74969 0.54172 0.0
H1156 H 0.33003 0.76636 0.52102 0.0
H1157 H 0.32694 0.82566 0.57106 0.0
H1158 H 0.30203 0.79152 0.56894 0.0
H1159 H 0.30279 0.81564 0.55576 0.0
C1160 C 0.26483 0.71853 0.54986 0.0
C1161 C 0.24303 0.72227 0.54866 0.0
C1162 C 0.28995 0.73872 0.54618 0.0
C1163 C 0.29403 0.76326 0.54123 0.0
C1164 C 0.27221 0.76681 0.53916 0.0
H1165 H 0.46755 0.8481 0.54239 0.0
H1166 H 0.4261 0.84291 0.5321 0.0
C1167 C 0.24675 0.74633 0.54281 0.0
C1168 C 0.32161 0.78509 0.53995 0.0
H1169 H 0.36814 0.83258 0.56333 0.0
C1170 C 0.33851 0.78161 0.52986 0.0
C1171 C 0.3325 0.80505 0.55143 0.0
C1172 C 0.31528 0.80986 0.56247 0.0
C1173 C 0.36584 0.79502 0.5323 0.0
C1174 C 0.37645 0.81275 0.54498 0.0
C1175 C 0.35987 0.8188 0.55371 0.0
C1176 C 0.4025 0.81983 0.55165 0.0
C1177 C 0.38269 0.78788 0.52243 0.0
C1178 C 0.40315 0.80953 0.56629 0.0
C1179 C 0.42661 0.81257 0.5722 0.0
C1180 C 0.45008 0.82597 0.5636 0.0
C1181 C 0.44975 0.83748 0.54925 0.0
C1182 C 0.42609 0.83446 0.54332 0.0
H1183 H 0.37093 0.77221 0.5138 0.0
H1184 H 0.39746 0.80553 0.51599 0.0
H1185 H 0.39347 0.78099 0.52994 0.0
H1186 H 0.3852 0.79813 0.57292 0.0
H1187 H 0.42611 0.80364 0.58335 0.0
H1188 H 0.24842 0.47771 0.52302 0.0
H1189 H 0.21442 0.48474 0.51085 0.0
H1190 H 0.18372 0.48589 0.55642 0.0
H1191 H 0.21674 0.47822 0.56842 0.0
H1192 H 0.14462 0.46638 0.53415 0.0
H1193 H 0.23151 0.56048 0.51424 0.0
H1194 H 0.22712 0.52982 0.50691 0.0
H1195 H 0.23575 0.5385 0.52701 0.0
C1196 C 0.23375 0.47848 0.53034 0.0
C1197 C 0.23553 0.47804 0.54668 0.0
C1198 C 0.21449 0.48272 0.52339 0.0
C1199 C 0.197 0.48662 0.53275 0.0
C1200 C 0.19705 0.48313 0.54893 0.0
H1201 H 0.1443 0.56978 0.56981 0.0
H1202 H 0.14473 0.53256 0.5576 0.0
C1203 C 0.2161 0.47891 0.55581 0.0
C1204 C 0.18185 0.49882 0.52669 0.0
H1205 H 0.19275 0.56059 0.51915 0.0
C1206 C 0.15489 0.48671 0.53029 0.0
C1207 C 0.19507 0.52526 0.52138 0.0
C1208 C 0.22395 0.53944 0.51717 0.0
C1209 C 0.14184 0.50131 0.53076 0.0
C1210 C 0.15616 0.5286 0.52762 0.0
C1211 C 0.18188 0.5397 0.52176 0.0
C1212 C 0.14795 0.54696 0.53398 0.0
C1213 C 0.11345 0.48784 0.53584 0.0
C1214 C 0.14891 0.56726 0.52478 0.0
C1215 C 0.14863 0.58871 0.53181 0.0
C1216 C 0.14797 0.59036 0.54816 0.0
C1217 C 0.14493 0.56907 0.5572 0.0
C1218 C 0.14486 0.54758 0.55018 0.0
H1219 H 0.10268 0.46724 0.53149 0.0
H1220 H 0.1125 0.48707 0.54877 0.0
H1221 H 0.1034 0.49847 0.5316 0.0
H1222 H 0.15163 0.56735 0.51228 0.0
H1223 H 0.15111 0.60493 0.52457 0.0
H1224 H 0.17059 0.14223 0.0458 0.0
H1225 H 0.19031 0.16091 0.02079 0.0
H1226 H 0.23252 0.2383 0.04142 0.0
H1227 H 0.21228 0.21954 0.06678 0.0
H1228 H 0.20515 0.23823 0.01686 0.0
H1229 H 0.25911 0.18873 0.99869 0.0
H1230 H 0.22783 0.16405 0.00602 0.0
H1231 H 0.25071 0.1897 0.01888 0.0
C1232 C 0.18451 0.16316 0.04516 0.0
C1233 C 0.18966 0.17944 0.05824 0.0
C1234 C 0.19612 0.17381 0.03084 0.0
C1235 C 0.21334 0.20098 0.02923 0.0
C1236 C 0.21956 0.21723 0.04244 0.0
H1237 H 0.21723 0.2105 0.92729 0.0
H1238 H 0.23935 0.22626 0.95264 0.0
C1239 C 0.20796 0.2065 0.0569 0.0
C1240 C 0.22072 0.21215 0.01329 0.0
H1241 H 0.23266 0.19443 0.97767 0.0
C1242 C 0.21218 0.22948 0.00834 0.0
C1243 C 0.2307 0.20158 0.00212 0.0
C1244 C 0.24289 0.18524 0.00679 0.0
C1245 C 0.20968 0.23327 0.99243 0.0
C1246 C 0.21532 0.21894 0.98131 0.0
C1247 C 0.2276 0.20486 0.9862 0.0
C1248 C 0.20324 0.21335 0.96559 0.0
C1249 C 0.199 0.25092 0.98773 0.0
C1250 C 0.17573 0.20087 0.96451 0.0
C1251 C 0.16319 0.1917 0.95024 0.0
C1252 C 0.17782 0.1947 0.93665 0.0
C1253 C 0.20548 0.20801 0.93757 0.0
C1254 C 0.21811 0.21703 0.952 0.0
H1255 H 0.20598 0.26789 0.99585 0.0
H1256 H 0.20494 0.25846 0.97566 0.0
H1257 H 0.17718 0.23969 0.98837 0.0
H1258 H 0.16377 0.1971 0.97486 0.0
H1259 H 0.14187 0.18163 0.94994 0.0
H1260 H 0.84934 0.04399 0.94866 0.0
H1261 H 0.82305 0.0361 0.97196 0.0
H1262 H 0.75261 0.00559 0.94404 0.0
H1263 H 0.77906 0.01288 0.92035 0.0
H1264 H 0.78881 0.05263 0.98238 0.0
H1265 H 0.7362 0.94395 0.97287 0.0
H1266 H 0.76437 0.96544 0.96113 0.0
H1267 H 0.73379 0.96503 0.95852 0.0
C1268 C 0.82829 0.03579 0.94736 0.0
C1269 C 0.81628 0.0287 0.93263 0.0
C1270 C 0.81326 0.03145 0.96073 0.0
C1271 C 0.78581 0.02001 0.95979 0.0
C1272 C 0.77372 0.01409 0.94506 0.0
H1273 H 0.76682 0.00247 0.06082 0.0
H1274 H 0.74731 0.00635 0.03622 0.0
C1275 C 0.78887 0.01837 0.93155 0.0
C1276 C 0.77064 0.01246 0.97458 0.0
H1277 H 0.74129 0.95897 0.99849 0.0
C1278 C 0.7775 0.03215 0.9859 0.0
C1279 C 0.7554 0.98573 0.97901 0.0
C1280 C 0.74693 0.9637 0.96732 0.0
C1281 C 0.77342 0.02588 0.00182 0.0
C1282 C 0.76155 0.99915 0.0064 0.0
C1283 C 0.75071 0.97944 0.99492 0.0
C1284 C 0.76775 0.99194 0.02176 0.0
C1285 C 0.7849 0.04799 0.01358 0.0
C1286 C 0.78441 0.98118 0.02188 0.0
C1287 C 0.79529 0.97883 0.03574 0.0
C1288 C 0.78984 0.98721 0.04989 0.0
C1289 C 0.77151 0.99606 0.05004 0.0
C1290 C 0.7605 0.99843 0.03601 0.0
H1291 H 0.79421 0.0677 0.00797 0.0
H1292 H 0.76913 0.0463 0.02148 0.0
H1293 H 0.79997 0.04673 0.02078 0.0
H1294 H 0.79034 0.97602 0.01107 0.0
H1295 H 0.80899 0.97151 0.03524 0.0
H1296 H 0.0371 0.81921 0.96024 0.0
H1297 H 0.03839 0.79588 0.98331 0.0
H1298 H 0.97198 0.7242 0.96621 0.0
H1299 H 0.97102 0.74782 0.94262 0.0
H1300 H 0.96388 0.74023 0.99514 0.0
H1301 H 0.05803 0.74153 0.99702 0.0
H1302 H 0.06361 0.77254 0.98971 0.0
H1303 H 0.04296 0.74282 0.97887 0.0
C1304 C 0.02329 0.79828 0.96116 0.0
C1305 C 0.00391 0.78527 0.94976 0.0
C1306 C 0.02422 0.78485 0.97427 0.0
C1307 C 0.00559 0.75813 0.97639 0.0
C1308 C 0.98684 0.74468 0.96465 0.0
H1309 H 0.99344 0.75878 0.07769 0.0
H1310 H 0.98763 0.73143 0.05454 0.0
C1311 C 0.98626 0.75814 0.95125 0.0
C1312 C 0.00317 0.74682 0.99215 0.0
H1313 H 0.045 0.75476 0.02185 0.0
C1314 C 0.98106 0.74198 0.00101 0.0
C1315 C 0.02532 0.74851 -0.00023 0.0
C1316 C 0.04868 0.75134 0.99076 0.0
C1317 C 0.98241 0.74363 0.01735 0.0
C1318 C 0.00638 0.75003 0.02483 0.0
C1319 C 0.02677 0.7503 0.01608 0.0
C1320 C 0.01331 0.7644 0.03984 0.0
C1321 C 0.95953 0.74219 0.02627 0.0
C1322 C 0.03042 0.7917 0.03937 0.0
C1323 C 0.03357 0.80718 0.05238 0.0
C1324 C 0.01984 0.79569 0.06622 0.0
C1325 C 0.00422 0.76811 0.06713 0.0
C1326 C 0.00083 0.75251 0.05394 0.0
H1327 H 0.94211 0.73647 0.01872 0.0
H1328 H 0.95373 0.72757 0.03583 0.0
H1329 H 0.96542 0.76163 0.03161 0.0
H1330 H 0.04017 0.80131 0.0286 0.0
H1331 H 0.04596 0.82835 0.05138 0.0
H1332 H 0.85042 0.48605 0.29473 0.0
H1333 H 0.8697 0.51232 0.31793 0.0
H1334 H 0.91076 0.58239 0.28978 0.0
H1335 H 0.8909 0.55584 0.26615 0.0
H1336 H 0.92165 0.5471 0.3281 0.0
H1337 H 0.86422 0.59835 0.3187 0.0
H1338 H 0.85721 0.56982 0.30719 0.0
H1339 H 0.88737 0.60023 0.30423 0.0
C1340 C 0.86378 0.50699 0.29337 0.0
C1341 C 0.86879 0.51893 0.27863 0.0
C1342 C 0.87498 0.522 0.30667 0.0
C1343 C 0.89147 0.54936 0.30562 0.0
C1344 C 0.89785 0.56133 0.29085 0.0
H1345 H 0.89071 0.5661 0.40657 0.0
H1346 H 0.91402 0.58656 0.38214 0.0
C1347 C 0.88661 0.54615 0.27739 0.0
C1348 C 0.89899 0.56459 0.32037 0.0
H1349 H 0.87254 0.5916 0.34444 0.0
C1350 C 0.91193 0.55788 0.33168 0.0
C1351 C 0.88668 0.57906 0.3249 0.0
C1352 C 0.87305 0.5874 0.31319 0.0
C1353 C 0.90908 0.56125 0.34763 0.0
C1354 C 0.89335 0.57217 0.35224 0.0
C1355 C 0.88427 0.58292 0.34084 0.0
C1356 C 0.87962 0.56518 0.36751 0.0
C1357 C 0.91996 0.54994 0.35933 0.0
C1358 C 0.85239 0.54759 0.36749 0.0
C1359 C 0.83916 0.53613 0.38128 0.0
C1360 C 0.85281 0.54193 0.39549 0.0
C1361 C 0.87972 0.56112 0.39576 0.0
C1362 C 0.89308 0.5727 0.38182 0.0
H1363 H 0.93108 0.5414 0.35369 0.0
H1364 H 0.93341 0.56563 0.36747 0.0
H1365 H 0.90368 0.53429 0.36628 0.0
H1366 H 0.84153 0.54145 0.35662 0.0
H1367 H 0.81836 0.52173 0.38068 0.0
H1368 H 0.42743 0.33552 0.26187 0.0
H1369 H 0.39979 0.32984 0.28479 0.0
H1370 H 0.46951 0.36744 0.31349 0.0
H1371 H 0.49675 0.3735 0.29096 0.0
H1372 H 0.39455 0.29958 0.30837 0.0
H1373 H 0.42886 0.39649 0.33386 0.0
H1374 H 0.43491 0.39275 0.31359 0.0
H1375 H 0.458 0.39579 0.32855 0.0
C1376 C 0.43678 0.34328 0.27302 0.0
C1377 C 0.46422 0.35472 0.27467 0.0
C1378 C 0.421 0.34005 0.28609 0.0
C1379 C 0.43252 0.34864 0.30087 0.0
C1380 C 0.46004 0.36139 0.30222 0.0
H1381 H 0.45062 0.28596 0.37121 0.0
H1382 H 0.42976 0.29185 0.34849 0.0
C1383 C 0.47567 0.36447 0.2893 0.0
C1384 C 0.4166 0.34036 0.3154 0.0
H1385 H 0.42551 0.36162 0.35299 0.0
C1386 C 0.40033 0.31326 0.31805 0.0
C1387 C 0.4227 0.35797 0.32806 0.0
C1388 C 0.43682 0.38739 0.32575 0.0
C1389 C 0.39444 0.30327 0.33329 0.0
C1390 C 0.40587 0.32077 0.346 0.0
C1391 C 0.41762 0.34797 0.3433 0.0
C1392 C 0.4126 0.31209 0.3607 0.0
C1393 C 0.37818 0.2739 0.33558 0.0
C1394 C 0.40999 0.32139 0.37536 0.0
C1395 C 0.42237 0.31823 0.38852 0.0
C1396 C 0.43785 0.30617 0.3871 0.0
C1397 C 0.43897 0.29549 0.37266 0.0
C1398 C 0.42661 0.29849 0.35965 0.0
H1399 H 0.36134 0.26538 0.32732 0.0
H1400 H 0.39038 0.26475 0.33294 0.0
H1401 H 0.37052 0.26873 0.34768 0.0
H1402 H 0.39958 0.33224 0.37644 0.0
H1403 H 0.42125 0.32671 0.39953 0.0
H1404 H 0.66733 0.09828 0.40536 0.0
H1405 H 0.66307 0.07176 0.38212 0.0
H1406 H 0.69905 0.14248 0.35422 0.0
H1407 H 0.70362 0.16866 0.37708 0.0
H1408 H 0.63298 0.06666 0.35801 0.0
H1409 H 0.73187 0.10457 0.33431 0.0
H1410 H 0.7266 0.10947 0.35453 0.0
H1411 H 0.72939 0.13272 0.33976 0.0
C1412 C 0.67502 0.10812 0.39432 0.0
C1413 C 0.6856 0.13551 0.39299 0.0
C1414 C 0.6726 0.09298 0.38107 0.0
C1415 C 0.6812 0.10511 0.36643 0.0
C1416 C 0.69301 0.13261 0.36539 0.0
H1417 H 0.62128 0.1208 0.29316 0.0
H1418 H 0.62652 0.10113 0.31668 0.0
C1419 C 0.69526 0.1476 0.37849 0.0
C1420 C 0.67404 0.08967 0.35173 0.0
H1421 H 0.69739 0.09924 0.31456 0.0
C1422 C 0.6472 0.07283 0.34859 0.0
C1423 C 0.69242 0.09647 0.33944 0.0
C1424 C 0.72169 0.11155 0.3423 0.0
C1425 C 0.63809 0.0667 0.33318 0.0
C1426 C 0.65619 0.07837 0.32077 0.0
C1427 C 0.68327 0.09104 0.32402 0.0
C1428 C 0.64792 0.08417 0.30561 0.0
C1429 C 0.60893 0.0498 0.33037 0.0
C1430 C 0.658 0.08117 0.29133 0.0
C1431 C 0.65511 0.09275 0.2777 0.0
C1432 C 0.64258 0.10786 0.27831 0.0
C1433 C 0.63114 0.10936 0.29236 0.0
C1434 C 0.63381 0.09772 0.30583 0.0
H1435 H 0.60022 0.03322 0.33881 0.0
H1436 H 0.59922 0.06168 0.3323 0.0
H1437 H 0.60461 0.04172 0.31833 0.0
H1438 H 0.66926 0.07111 0.29091 0.0
H1439 H 0.66422 0.09143 0.267 0.0
H1440 H 0.5331 0.89012 0.61338 0.0
H1441 H 0.54994 0.91402 0.63769 0.0
H1442 H 0.61143 0.89383 0.63795 0.0
H1443 H 0.59368 0.86891 0.61363 0.0
H1444 H 0.5845 0.877 0.66277 0.0
H1445 H 0.60499 0.97845 0.65783 0.0
H1446 H 0.57404 0.95829 0.64844 0.0
H1447 H 0.60341 0.95954 0.6408 0.0
C1448 C 0.55093 0.89183 0.61828 0.0
C1449 C 0.5623 0.87801 0.61169 0.0
C1450 C 0.56077 0.90573 0.63214 0.0
C1451 C 0.58231 0.9062 0.63964 0.0
C1452 C 0.595 0.89403 0.63233 0.0
H1453 H 0.5618 0.90305 0.74133 0.0
H1454 H 0.5914 0.91924 0.71865 0.0
C1455 C 0.58496 0.87989 0.61844 0.0
C1456 C 0.58698 0.91375 0.65639 0.0
H1457 H 0.57959 0.95424 0.68196 0.0
C1458 C 0.58468 0.89451 0.66704 0.0
C1459 C 0.58759 0.93671 0.66211 0.0
C1460 C 0.59296 0.95948 0.65162 0.0
C1461 C 0.5792 0.89581 0.68282 0.0
C1462 C 0.57604 0.91696 0.68805 0.0
C1463 C 0.58163 0.93783 0.67786 0.0
C1464 C 0.56098 0.91422 0.70245 0.0
C1465 C 0.57384 0.87307 0.69339 0.0
C1466 C 0.53449 0.90733 0.70092 0.0
C1467 C 0.51762 0.89792 0.71371 0.0
C1468 C 0.52699 0.89548 0.72832 0.0
C1469 C 0.55406 0.90473 0.73019 0.0
C1470 C 0.57097 0.91393 0.71727 0.0
H1471 H 0.57659 0.85783 0.68736 0.0
H1472 H 0.58734 0.88039 0.70355 0.0
H1473 H 0.55335 0.86369 0.69788 0.0
H1474 H 0.5264 0.90736 0.68957 0.0
H1475 H 0.49691 0.89118 0.71196 0.0
H1476 H 0.10027 0.66225 0.59339 0.0
H1477 H 0.07655 0.66057 0.61744 0.0
H1478 H 0.14856 0.68888 0.64361 0.0
H1479 H 0.17203 0.69078 0.61993 0.0
H1480 H 0.07025 0.6283 0.64098 0.0
H1481 H 0.11802 0.72778 0.66542 0.0
H1482 H 0.12063 0.72198 0.64495 0.0
H1483 H 0.1436 0.72182 0.65892 0.0
C1484 C 0.1111 0.66889 0.60424 0.0
C1485 C 0.13794 0.67644 0.60484 0.0
C1486 C 0.09754 0.66793 0.61795 0.0
C1487 C 0.11082 0.67502 0.63233 0.0
C1488 C 0.13795 0.68403 0.63266 0.0
H1489 H 0.11964 0.60926 0.70668 0.0
H1490 H 0.10307 0.61754 0.68275 0.0
C1491 C 0.15134 0.68477 0.6191 0.0
C1492 C 0.0964 0.66884 0.64736 0.0
H1493 H 0.10896 0.69176 0.68465 0.0
C1494 C 0.07786 0.64241 0.65047 0.0
C1495 C 0.10531 0.68721 0.65976 0.0
C1496 C 0.12276 0.71633 0.65699 0.0
C1497 C 0.07153 0.63326 0.66586 0.0
C1498 C 0.08459 0.65088 0.6783 0.0
C1499 C 0.09954 0.67797 0.67515 0.0
C1500 C 0.08865 0.6414 0.69352 0.0
C1501 C 0.05266 0.60441 0.66861 0.0
C1502 C 0.086 0.65187 0.70772 0.0
C1503 C 0.09574 0.64721 0.72158 0.0
C1504 C 0.10869 0.63247 0.7213 0.0
C1505 C 0.10986 0.62079 0.70725 0.0
C1506 C 0.10002 0.62524 0.69355 0.0
H1507 H 0.03627 0.59686 0.66005 0.0
H1508 H 0.0631 0.59317 0.66684 0.0
H1509 H 0.04434 0.60064 0.68058 0.0
H1510 H 0.07761 0.66467 0.70795 0.0
H1511 H 0.0947 0.65655 0.73224 0.0
H1512 H 0.32728 0.43195 0.59126 0.0
H1513 H 0.33645 0.41257 0.61415 0.0
H1514 H 0.29904 0.44403 0.64365 0.0
H1515 H 0.28948 0.46265 0.62115 0.0
H1516 H 0.36817 0.43976 0.63681 0.0
H1517 H 0.27383 0.37548 0.66483 0.0
H1518 H 0.27577 0.38448 0.64451 0.0
H1519 H 0.27314 0.40465 0.65958 0.0
C1520 C 0.32035 0.43398 0.6026 0.0
C1521 C 0.30786 0.44901 0.60443 0.0
C1522 C 0.32558 0.42289 0.61566 0.0
C1523 C 0.318 0.42634 0.63064 0.0
C1524 C 0.30436 0.44023 0.63224 0.0
H1525 H 0.38606 0.50805 0.70163 0.0
H1526 H 0.37867 0.48235 0.67821 0.0
C1527 C 0.29925 0.45129 0.61932 0.0
C1528 C 0.32794 0.41998 0.64495 0.0
H1529 H 0.30965 0.40753 0.68305 0.0
C1530 C 0.3553 0.43168 0.64685 0.0
C1531 C 0.31142 0.40832 0.65803 0.0
C1532 C 0.28189 0.39225 0.65652 0.0
C1533 C 0.36648 0.43616 0.66178 0.0
C1534 C 0.34989 0.42958 0.675 0.0
C1535 C 0.32258 0.41363 0.67298 0.0
C1536 C 0.35944 0.44444 0.68986 0.0
C1537 C 0.39603 0.4499 0.66323 0.0
C1538 C 0.35121 0.43191 0.70442 0.0
C1539 C 0.35511 0.4468 0.718 0.0
C1540 C 0.36699 0.47438 0.71712 0.0
C1541 C 0.37669 0.48683 0.70271 0.0
C1542 C 0.37284 0.47207 0.68926 0.0
H1543 H 0.40428 0.44203 0.65446 0.0
H1544 H 0.40447 0.4712 0.66075 0.0
H1545 H 0.40231 0.44751 0.67504 0.0
H1546 H 0.34058 0.41061 0.70518 0.0
H1547 H 0.34741 0.43666 0.72896 0.0
loop_
_geom_bond_atom_site_label_1
_geom_bond_atom_site_label_2
_geom_bond_distance
_geom_bond_site_symmetry_2
_ccdc_geom_bond_type
Zn0 O3 2.031 . S
Zn0 O5 2.049 . S
Zn0 O10 2.067 . S
Zn1 O2 1.962 . S
Zn1 O4 1.986 . S
Zn1 O6 1.996 . S
Zn1 O9 1.943 . S
O2 Zn1 1.962 . S
O2 C7 1.254 . S
O3 Zn0 2.031 . S
O3 C7 1.269 . S
O4 Zn1 1.986 . S
O4 C11 1.262 . S
O5 Zn0 2.049 . S
O5 C13 1.260 . S
O6 Zn1 1.996 . S
O6 C13 1.257 . S
C7 O2 1.254 . S
C7 O3 1.269 . S
C8 O9 1.249 . S
C8 O10 1.270 . S
O9 Zn1 1.943 . S
O9 C8 1.249 . S
O10 Zn0 2.067 . S
O10 C8 1.270 . S
C11 O4 1.262 . S
C11 O12 1.232 . S
O12 C11 1.232 . S
C13 O5 1.260 . S
C13 O6 1.257 . S
Zn14 O17 2.031 1_565 S
Zn14 O19 2.049 . S
Zn14 O24 2.067 . S
Zn15 O16 1.962 . S
Zn15 O18 1.986 . S
Zn15 O20 1.996 . S
Zn15 O23 1.943 1_545 S
O16 Zn15 1.962 . S
O16 C21 1.254 . S
O17 Zn14 2.031 1_545 S
O17 C21 1.269 . S
O18 Zn15 1.986 . S
O18 C25 1.262 . S
O19 Zn14 2.049 . S
O19 C27 1.260 . S
O20 Zn15 1.996 . S
O20 C27 1.257 1_545 S
C21 O16 1.254 . S
C21 O17 1.269 . S
C22 O23 1.249 . S
C22 O24 1.270 . S
O23 Zn15 1.943 1_565 S
O23 C22 1.249 . S
O24 Zn14 2.067 . S
O24 C22 1.270 . S
C25 O18 1.262 . S
C25 O26 1.232 . S
O26 C25 1.232 . S
C27 O19 1.260 . S
C27 O20 1.257 1_565 S
Zn28 O31 2.048 . S
Zn28 O33 2.031 1_655 S
Zn28 O38 2.040 1_655 S
Zn29 O30 1.962 . S
Zn29 O32 1.986 . S
Zn29 O34 1.996 . S
Zn29 O37 1.943 1_655 S
O30 Zn29 1.962 . S
O30 C35 1.254 . S
O31 Zn28 2.048 . S
O31 C35 1.269 . S
O32 Zn29 1.986 . S
O32 C39 1.262 . S
O33 Zn28 2.031 1_455 S
O33 C41 1.258 . S
O34 Zn29 1.996 . S
O34 C41 1.248 1_655 S
C35 O30 1.254 . S
C35 O31 1.269 . S
C36 O37 1.249 . S
C36 O38 1.270 . S
O37 Zn29 1.943 1_455 S
O37 C36 1.249 . S
O38 Zn28 2.040 1_455 S
O38 C36 1.270 . S
C39 O32 1.262 . S
C39 O40 1.232 . S
O40 C39 1.232 . S
C41 O33 1.258 . S
C41 O34 1.248 1_455 S
Zn42 O45 2.031 . S
Zn42 O47 2.049 . S
Zn42 O52 2.067 . S
Zn43 O44 1.962 . S
Zn43 O46 1.986 . S
Zn43 O48 1.996 . S
Zn43 O51 1.943 . S
O44 Zn43 1.962 . S
O44 C49 1.254 . S
O45 Zn42 2.031 . S
O45 C49 1.269 . S
O46 Zn43 1.986 . S
O46 C53 1.262 . S
O47 Zn42 2.049 . S
O47 C55 1.260 . S
O48 Zn43 1.996 . S
O48 C55 1.257 . S
C49 O44 1.254 . S
C49 O45 1.269 . S
C50 O51 1.249 . S
C50 O52 1.270 . S
O51 Zn43 1.943 . S
O51 C50 1.249 . S
O52 Zn42 2.067 . S
O52 C50 1.270 . S
C53 O46 1.262 . S
C53 O54 1.232 . S
O54 C53 1.232 . S
C55 O47 1.260 . S
C55 O48 1.257 . S
Zn56 O59 2.043 . S
Zn56 O61 2.037 1_565 S
Zn56 O66 2.048 1_565 S
Zn57 O58 1.962 . S
Zn57 O60 1.986 . S
Zn57 O62 1.996 . S
Zn57 O65 1.943 1_565 S
O58 Zn57 1.962 . S
O58 C63 1.254 . S
O59 Zn56 2.043 . S
O59 C63 1.269 . S
O60 Zn57 1.986 . S
O60 C67 1.262 . S
O61 Zn56 2.037 1_545 S
O61 C69 1.257 . S
O62 Zn57 1.996 . S
O62 C69 1.244 1_565 S
C63 O58 1.254 . S
C63 O59 1.269 . S
C64 O65 1.249 . S
C64 O66 1.270 . S
O65 Zn57 1.943 1_545 S
O65 C64 1.249 . S
O66 Zn56 2.048 1_545 S
O66 C64 1.270 . S
C67 O60 1.262 . S
C67 O68 1.232 . S
O68 C67 1.232 . S
C69 O61 1.257 . S
C69 O62 1.244 1_545 S
Zn70 O73 2.031 1_655 S
Zn70 O75 2.049 . S
Zn70 O80 2.067 . S
Zn71 O72 1.962 . S
Zn71 O74 1.986 . S
Zn71 O76 1.996 . S
Zn71 O79 1.943 1_455 S
O72 Zn71 1.962 . S
O72 C77 1.254 . S
O73 Zn70 2.031 1_455 S
O73 C77 1.269 . S
O74 Zn71 1.986 . S
O74 C81 1.262 . S
O75 Zn70 2.049 . S
O75 C83 1.260 . S
O76 Zn71 1.996 . S
O76 C83 1.257 1_455 S
C77 O72 1.254 . S
C77 O73 1.269 . S
C78 O79 1.249 . S
C78 O80 1.270 . S
O79 Zn71 1.943 1_655 S
O79 C78 1.249 . S
O80 Zn70 2.067 . S
O80 C78 1.270 . S
C81 O74 1.262 . S
C81 O82 1.232 . S
O82 C81 1.232 . S
C83 O75 1.260 . S
C83 O76 1.257 1_655 S
Zn84 O87 2.031 . S
Zn84 O89 2.049 . S
Zn84 O94 2.067 . S
Zn85 O86 1.962 . S
Zn85 O88 1.986 . S
Zn85 O90 1.996 . S
Zn85 O93 1.943 . S
O86 Zn85 1.962 . S
O86 C91 1.254 . S
O87 Zn84 2.031 . S
O87 C91 1.269 . S
O88 Zn85 1.986 . S
O88 C95 1.262 . S
O89 Zn84 2.049 . S
O89 C97 1.260 . S
O90 Zn85 1.996 . S
O90 C97 1.257 . S
C91 O86 1.254 . S
C91 O87 1.269 . S
C92 O93 1.249 . S
C92 O94 1.270 . S
O93 Zn85 1.943 . S
O93 C92 1.249 . S
O94 Zn84 2.067 . S
O94 C92 1.270 . S
C95 O88 1.262 . S
C95 O96 1.232 . S
O96 C95 1.232 . S
C97 O89 1.260 . S
C97 O90 1.257 . S
Zn98 O101 2.031 . S
Zn98 O103 2.049 . S
Zn98 O108 2.067 . S
Zn99 O100 1.962 . S
Zn99 O102 1.986 . S
Zn99 O104 1.996 . S
Zn99 O107 1.943 . S
O100 Zn99 1.962 . S
O100 C105 1.254 . S
O101 Zn98 2.031 . S
O101 C105 1.269 . S
O102 Zn99 1.986 . S
O102 C109 1.262 . S
O103 Zn98 2.049 . S
O103 C111 1.260 . S
O104 Zn99 1.996 . S
O104 C111 1.257 . S
C105 O100 1.254 . S
C105 O101 1.269 . S
C106 O107 1.249 . S
C106 O108 1.270 . S
O107 Zn99 1.943 . S
O107 C106 1.249 . S
O108 Zn98 2.067 . S
O108 C106 1.270 . S
C109 O102 1.262 . S
C109 O110 1.232 . S
O110 C109 1.232 . S
C111 O103 1.260 . S
C111 O104 1.257 . S
Zn112 O115 2.031 . S
Zn112 O117 2.049 . S
Zn112 O122 2.067 . S
Zn113 O114 1.962 . S
Zn113 O116 1.986 . S
Zn113 O118 1.996 . S
Zn113 O121 1.943 . S
O114 Zn113 1.962 . S
O114 C119 1.254 . S
O115 Zn112 2.031 . S
O115 C119 1.269 . S
O116 Zn113 1.986 . S
O116 C123 1.262 . S
O117 Zn112 2.049 . S
O117 C125 1.260 . S
O118 Zn113 1.996 . S
O118 C125 1.257 . S
C119 O114 1.254 . S
C119 O115 1.269 . S
C120 O121 1.249 . S
C120 O122 1.270 . S
O121 Zn113 1.943 . S
O121 C120 1.249 . S
O122 Zn112 2.067 . S
O122 C120 1.270 . S
C123 O116 1.262 . S
C123 O124 1.232 . S
O124 C123 1.232 . S
C125 O117 1.260 . S
C125 O118 1.257 . S
Zn126 O129 2.031 . S
Zn126 O131 2.049 . S
Zn126 O136 2.067 . S
Zn127 O128 1.962 . S
Zn127 O130 1.986 . S
Zn127 O132 1.996 . S
Zn127 O135 1.943 . S
O128 Zn127 1.962 . S
O128 C133 1.254 . S
O129 Zn126 2.031 . S
O129 C133 1.269 . S
O130 Zn127 1.986 . S
O130 C137 1.262 . S
O131 Zn126 2.049 . S
O131 C139 1.260 . S
O132 Zn127 1.996 . S
O132 C139 1.257 . S
C133 O128 1.254 . S
C133 O129 1.269 . S
C134 O135 1.249 . S
C134 O136 1.270 . S
O135 Zn127 1.943 . S
O135 C134 1.249 . S
O136 Zn126 2.067 . S
O136 C134 1.270 . S
C137 O130 1.262 . S
C137 O138 1.232 . S
O138 C137 1.232 . S
C139 O131 1.260 . S
C139 O132 1.257 . S
Zn140 O143 2.031 . S
Zn140 O145 2.049 . S
Zn140 O150 2.067 . S
Zn141 O142 1.962 . S
Zn141 O144 1.986 . S
Zn141 O146 1.996 . S
Zn141 O149 1.943 . S
O142 Zn141 1.962 . S
O142 C147 1.254 . S
O143 Zn140 2.031 . S
O143 C147 1.269 . S
O144 Zn141 1.986 . S
O144 C151 1.262 . S
O145 Zn140 2.049 . S
O145 C153 1.260 . S
O146 Zn141 1.996 . S
O146 C153 1.257 . S
C147 O142 1.254 . S
C147 O143 1.269 . S
C148 O149 1.249 . S
C148 O150 1.270 . S
O149 Zn141 1.943 . S
O149 C148 1.249 . S
O150 Zn140 2.067 . S
O150 C148 1.270 . S
C151 O144 1.262 . S
C151 O152 1.232 . S
O152 C151 1.232 . S
C153 O145 1.260 . S
C153 O146 1.257 . S
Zn154 O157 2.031 . S
Zn154 O159 2.049 . S
Zn154 O164 2.067 . S
Zn155 O156 1.962 . S
Zn155 O158 1.986 . S
Zn155 O160 1.996 . S
Zn155 O163 1.943 . S
O156 Zn155 1.962 . S
O156 C161 1.254 . S
O157 Zn154 2.031 . S
O157 C161 1.269 . S
O158 Zn155 1.986 . S
O158 C165 1.262 . S
O159 Zn154 2.049 . S
O159 C167 1.260 . S
O160 Zn155 1.996 . S
O160 C167 1.257 . S
C161 O156 1.254 . S
C161 O157 1.269 . S
C162 O163 1.249 . S
C162 O164 1.270 . S
O163 Zn155 1.943 . S
O163 C162 1.249 . S
O164 Zn154 2.067 . S
O164 C162 1.270 . S
C165 O158 1.262 . S
C165 O166 1.232 . S
O166 C165 1.232 . S
C167 O159 1.260 . S
C167 O160 1.257 . S
Zn168 O171 2.031 . S
Zn168 O173 2.049 . S
Zn168 O178 2.067 . S
Zn169 O170 1.962 . S
Zn169 O172 1.986 . S
Zn169 O174 1.996 . S
Zn169 O177 1.943 . S
O170 Zn169 1.962 . S
O170 C175 1.254 . S
O171 Zn168 2.031 . S
O171 C175 1.269 . S
O172 Zn169 1.986 . S
O172 C179 1.262 . S
O173 Zn168 2.049 . S
O173 C181 1.260 . S
O174 Zn169 1.996 . S
O174 C181 1.257 . S
C175 O170 1.254 . S
C175 O171 1.269 . S
C176 O177 1.249 . S
C176 O178 1.270 . S
O177 Zn169 1.943 . S
O177 C176 1.249 . S
O178 Zn168 2.067 . S
O178 C176 1.270 . S
C179 O172 1.262 . S
C179 O180 1.232 . S
O180 C179 1.232 . S
C181 O173 1.260 . S
C181 O174 1.257 . S
Zn182 O185 2.031 . S
Zn182 O187 2.049 . S
Zn182 O192 2.067 . S
Zn183 O184 1.962 . S
Zn183 O186 1.986 . S
Zn183 O188 1.996 . S
Zn183 O191 1.943 . S
O184 Zn183 1.962 . S
O184 C189 1.254 . S
O185 Zn182 2.031 . S
O185 C189 1.269 . S
O186 Zn183 1.986 . S
O186 C193 1.262 . S
O187 Zn182 2.049 . S
O187 C195 1.260 . S
O188 Zn183 1.996 . S
O188 C195 1.257 . S
C189 O184 1.254 . S
C189 O185 1.269 . S
C190 O191 1.249 . S
C190 O192 1.270 . S
O191 Zn183 1.943 . S
O191 C190 1.249 . S
O192 Zn182 2.067 . S
O192 C190 1.270 . S
C193 O186 1.262 . S
C193 O194 1.232 . S
O194 C193 1.232 . S
C195 O187 1.260 . S
C195 O188 1.257 . S
Zn196 O199 2.031 . S
Zn196 O201 2.049 . S
Zn196 O206 2.067 . S
Zn197 O198 1.962 . S
Zn197 O200 1.986 . S
Zn197 O202 1.996 . S
Zn197 O205 1.943 . S
O198 Zn197 1.962 . S
O198 C203 1.254 . S
O199 Zn196 2.031 . S
O199 C203 1.269 . S
O200 Zn197 1.986 . S
O200 C207 1.262 . S
O201 Zn196 2.049 . S
O201 C209 1.260 . S
O202 Zn197 1.996 . S
O202 C209 1.257 . S
C203 O198 1.254 . S
C203 O199 1.269 . S
C204 O205 1.249 . S
C204 O206 1.270 . S
O205 Zn197 1.943 . S
O205 C204 1.249 . S
O206 Zn196 2.067 . S
O206 C204 1.270 . S
C207 O200 1.262 . S
C207 O208 1.232 . S
O208 C207 1.232 . S
C209 O201 1.260 . S
C209 O202 1.257 . S
Zn210 O213 2.031 . S
Zn210 O215 2.049 . S
Zn210 O220 2.067 . S
Zn211 O212 1.962 . S
Zn211 O214 1.986 . S
Zn211 O216 1.996 . S
Zn211 O219 1.943 . S
O212 Zn211 1.962 . S
O212 C217 1.254 . S
O213 Zn210 2.031 . S
O213 C217 1.269 . S
O214 Zn211 1.986 . S
O214 C221 1.262 . S
O215 Zn210 2.049 . S
O215 C223 1.260 . S
O216 Zn211 1.996 . S
O216 C223 1.257 . S
C217 O212 1.254 . S
C217 O213 1.269 . S
C218 O219 1.249 . S
C218 O220 1.270 . S
O219 Zn211 1.943 . S
O219 C218 1.249 . S
O220 Zn210 2.067 . S
O220 C218 1.270 . S
C221 O214 1.262 . S
C221 O222 1.232 . S
O222 C221 1.232 . S
C223 O215 1.260 . S
C223 O216 1.257 . S
Zn224 O227 2.031 . S
Zn224 O229 2.049 . S
Zn224 O234 2.067 . S
Zn225 O226 1.962 . S
Zn225 O228 1.986 . S
Zn225 O230 1.996 . S
Zn225 O233 1.943 . S
O226 Zn225 1.962 . S
O226 C231 1.254 . S
O227 Zn224 2.031 . S
O227 C231 1.269 . S
O228 Zn225 1.986 . S
O228 C235 1.262 . S
O229 Zn224 2.049 . S
O229 C237 1.260 . S
O230 Zn225 1.996 . S
O230 C237 1.257 . S
C231 O226 1.254 . S
C231 O227 1.269 . S
C232 O233 1.249 . S
C232 O234 1.270 . S
O233 Zn225 1.943 . S
O233 C232 1.249 . S
O234 Zn224 2.067 . S
O234 C232 1.270 . S
C235 O228 1.262 . S
C235 O236 1.232 . S
O236 C235 1.232 . S
C237 O229 1.260 . S
C237 O230 1.257 . S
Zn238 O241 2.031 . S
Zn238 O243 2.049 . S
Zn238 O248 2.067 . S
Zn239 O240 1.962 . S
Zn239 O242 1.986 . S
Zn239 O244 1.996 . S
Zn239 O247 1.943 . S
O240 Zn239 1.962 . S
O240 C245 1.254 . S
O241 Zn238 2.031 . S
O241 C245 1.269 . S
O242 Zn239 1.986 . S
O242 C249 1.262 . S
O243 Zn238 2.049 . S
O243 C251 1.260 . S
O244 Zn239 1.996 . S
O244 C251 1.257 . S
C245 O240 1.254 . S
C245 O241 1.269 . S
C246 O247 1.249 . S
C246 O248 1.270 . S
O247 Zn239 1.943 . S
O247 C246 1.249 . S
O248 Zn238 2.067 . S
O248 C246 1.270 . S
C249 O242 1.262 . S
C249 O250 1.232 . S
O250 C249 1.232 . S
C251 O243 1.260 . S
C251 O244 1.257 . S
H252 C260 0.929 . S
H253 C262 0.930 . S
H254 C264 0.930 . S
H255 C267 0.929 . S
H256 C270 0.930 . S
H257 C272 0.960 . S
H258 C272 0.960 . S
H259 C272 0.960 . S
C260 H252 0.929 . S
C260 C261 1.377 . S
C260 C262 1.384 . S
C261 C260 1.377 . S
C261 C267 1.390 . S
C262 H253 0.930 . S
C262 C260 1.384 . S
C262 C263 1.372 . S
C263 C262 1.372 . S
C263 C264 1.400 . S
C263 C268 1.490 . S
C264 H254 0.930 . S
C264 C263 1.400 . S
C264 C267 1.386 . S
H265 C281 0.930 . S
H266 C282 0.931 . S
C267 H255 0.929 . S
C267 C261 1.390 . S
C267 C264 1.386 . S
C268 C263 1.490 . S
C268 C270 1.395 . S
C268 C271 1.403 . S
H269 C275 0.930 . S
C270 H256 0.930 . S
C270 C268 1.395 . S
C270 C273 1.403 . S
C271 C268 1.403 . S
C271 C272 1.524 . S
C271 C275 1.400 . S
C272 H257 0.960 . S
C272 H258 0.960 . S
C272 H259 0.960 . S
C272 C271 1.524 . S
C273 C270 1.403 . S
C273 C274 1.392 . S
C273 C277 1.495 . S
C274 C273 1.392 . S
C274 C275 1.385 . S
C274 C276 1.478 . S
C275 H269 0.930 . S
C275 C271 1.400 . S
C275 C274 1.385 . S
C276 C274 1.478 . S
C276 C278 1.381 . S
C276 C282 1.383 . S
C277 C273 1.495 . S
C277 H283 0.959 . S
C277 H284 0.961 . S
C277 H285 0.960 . S
C278 C276 1.381 . S
C278 C279 1.394 . S
C278 H286 0.930 . S
C279 C278 1.394 . S
C279 C280 1.383 . S
C279 H287 0.929 . S
C280 C279 1.383 . S
C280 C281 1.377 . S
C281 H265 0.930 . S
C281 C280 1.377 . S
C281 C282 1.379 . S
C282 H266 0.931 . S
C282 C276 1.383 . S
C282 C281 1.379 . S
H283 C277 0.959 . S
H284 C277 0.961 . S
H285 C277 0.960 . S
H286 C278 0.930 . S
H287 C279 0.929 . S
H288 C296 0.929 . S
H289 C298 0.930 . S
H290 C300 0.930 . S
H291 C303 0.929 . S
H292 C306 0.930 . S
H293 C308 0.960 . S
H294 C308 0.960 . S
H295 C308 0.960 . S
C296 H288 0.929 . S
C296 C297 1.377 . S
C296 C298 1.384 . S
C297 C296 1.377 . S
C297 C303 1.390 . S
C298 H289 0.930 . S
C298 C296 1.384 . S
C298 C299 1.372 . S
C299 C298 1.372 . S
C299 C300 1.400 . S
C299 C304 1.490 . S
C300 H290 0.930 . S
C300 C299 1.400 . S
C300 C303 1.386 . S
H301 C317 0.930 . S
H302 C318 0.931 . S
C303 H291 0.929 . S
C303 C297 1.390 . S
C303 C300 1.386 . S
C304 C299 1.490 . S
C304 C306 1.395 . S
C304 C307 1.403 . S
H305 C311 0.930 . S
C306 H292 0.930 . S
C306 C304 1.395 . S
C306 C309 1.403 . S
C307 C304 1.403 . S
C307 C308 1.524 . S
C307 C311 1.400 . S
C308 H293 0.960 . S
C308 H294 0.960 . S
C308 H295 0.960 . S
C308 C307 1.524 . S
C309 C306 1.403 . S
C309 C310 1.392 . S
C309 C313 1.495 . S
C310 C309 1.392 . S
C310 C311 1.385 . S
C310 C312 1.478 . S
C311 H305 0.930 . S
C311 C307 1.400 . S
C311 C310 1.385 . S
C312 C310 1.478 . S
C312 C314 1.381 . S
C312 C318 1.383 . S
C313 C309 1.495 . S
C313 H319 0.959 . S
C313 H320 0.961 . S
C313 H321 0.960 . S
C314 C312 1.381 . S
C314 C315 1.394 . S
C314 H322 0.930 . S
C315 C314 1.394 . S
C315 C316 1.383 . S
C315 H323 0.929 . S
C316 C315 1.383 . S
C316 C317 1.377 . S
C317 H301 0.930 . S
C317 C316 1.377 . S
C317 C318 1.379 . S
C318 H302 0.931 . S
C318 C312 1.383 . S
C318 C317 1.379 . S
H319 C313 0.959 . S
H320 C313 0.961 . S
H321 C313 0.960 . S
H322 C314 0.930 . S
H323 C315 0.929 . S
H324 C332 0.929 . S
H325 C334 0.930 . S
H326 C336 0.930 . S
H327 C339 0.929 . S
H328 C342 0.930 . S
H329 C344 0.960 . S
H330 C344 0.960 . S
H331 C344 0.960 . S
C332 H324 0.929 . S
C332 C333 1.377 . S
C332 C334 1.384 . S
C333 C332 1.377 . S
C333 C339 1.390 . S
C334 H325 0.930 . S
C334 C332 1.384 . S
C334 C335 1.372 . S
C335 C334 1.372 . S
C335 C336 1.400 . S
C335 C340 1.490 . S
C336 H326 0.930 . S
C336 C335 1.400 . S
C336 C339 1.386 . S
H337 C353 0.930 . S
H338 C354 0.931 . S
C339 H327 0.929 . S
C339 C333 1.390 . S
C339 C336 1.386 . S
C340 C335 1.490 . S
C340 C342 1.395 . S
C340 C343 1.403 . S
H341 C347 0.930 . S
C342 H328 0.930 . S
C342 C340 1.395 . S
C342 C345 1.403 . S
C343 C340 1.403 . S
C343 C344 1.524 . S
C343 C347 1.400 . S
C344 H329 0.960 . S
C344 H330 0.960 . S
C344 H331 0.960 . S
C344 C343 1.524 . S
C345 C342 1.403 . S
C345 C346 1.392 . S
C345 C349 1.495 . S
C346 C345 1.392 . S
C346 C347 1.385 . S
C346 C348 1.478 . S
C347 H341 0.930 . S
C347 C343 1.400 . S
C347 C346 1.385 . S
C348 C346 1.478 . S
C348 C350 1.381 . S
C348 C354 1.383 . S
C349 C345 1.495 . S
C349 H355 0.959 . S
C349 H356 0.961 . S
C349 H357 0.960 . S
C350 C348 1.381 . S
C350 C351 1.394 . S
C350 H358 0.930 . S
C351 C350 1.394 . S
C351 C352 1.383 . S
C351 H359 0.929 1_655 S
C352 C351 1.383 . S
C352 C353 1.377 . S
C353 H337 0.930 . S
C353 C352 1.377 . S
C353 C354 1.379 . S
C354 H338 0.931 . S
C354 C348 1.383 . S
C354 C353 1.379 . S
H355 C349 0.959 . S
H356 C349 0.961 . S
H357 C349 0.960 . S
H358 C350 0.930 . S
H359 C351 0.929 1_455 S
H360 C368 0.929 . S
H361 C370 0.930 . S
H362 C372 0.930 . S
H363 C375 0.929 . S
H364 C378 0.930 . S
H365 C380 0.960 . S
H366 C380 0.960 . S
H367 C380 0.960 . S
C368 H360 0.929 . S
C368 C369 1.377 . S
C368 C370 1.384 . S
C369 C368 1.377 . S
C369 C375 1.390 . S
C370 H361 0.930 . S
C370 C368 1.384 . S
C370 C371 1.372 . S
C371 C370 1.372 . S
C371 C372 1.400 . S
C371 C376 1.490 . S
C372 H362 0.930 . S
C372 C371 1.400 . S
C372 C375 1.386 . S
H373 C389 0.930 . S
H374 C390 0.931 . S
C375 H363 0.929 . S
C375 C369 1.390 . S
C375 C372 1.386 . S
C376 C371 1.490 . S
C376 C378 1.395 . S
C376 C379 1.403 . S
H377 C383 0.930 . S
C378 H364 0.930 . S
C378 C376 1.395 . S
C378 C381 1.403 . S
C379 C376 1.403 . S
C379 C380 1.524 . S
C379 C383 1.400 . S
C380 H365 0.960 . S
C380 H366 0.960 . S
C380 H367 0.960 . S
C380 C379 1.524 . S
C381 C378 1.403 . S
C381 C382 1.392 . S
C381 C385 1.495 . S
C382 C381 1.392 . S
C382 C383 1.385 . S
C382 C384 1.478 . S
C383 H377 0.930 . S
C383 C379 1.400 . S
C383 C382 1.385 . S
C384 C382 1.478 . S
C384 C386 1.381 . S
C384 C390 1.383 . S
C385 C381 1.495 . S
C385 H391 0.959 . S
C385 H392 0.961 . S
C385 H393 0.960 . S
C386 C384 1.381 . S
C386 C387 1.394 . S
C386 H394 0.930 . S
C387 C386 1.394 . S
C387 C388 1.383 . S
C387 H395 0.929 . S
C388 C387 1.383 . S
C388 C389 1.377 . S
C389 H373 0.930 . S
C389 C388 1.377 . S
C389 C390 1.379 . S
C390 H374 0.931 . S
C390 C384 1.383 . S
C390 C389 1.379 . S
H391 C385 0.959 . S
H392 C385 0.961 . S
H393 C385 0.960 . S
H394 C386 0.930 . S
H395 C387 0.929 . S
H396 C404 0.929 . S
H397 C406 0.930 . S
H398 C408 0.930 . S
H399 C411 0.929 1_545 S
H400 C414 0.930 . S
H401 C416 0.960 . S
H402 C416 0.960 . S
H403 C416 0.960 . S
C404 H396 0.929 . S
C404 C405 1.377 . S
C404 C406 1.384 . S
C405 C404 1.377 . S
C405 C411 1.390 . S
C406 H397 0.930 . S
C406 C404 1.384 . S
C406 C407 1.372 . S
C407 C406 1.372 . S
C407 C408 1.400 . S
C407 C412 1.490 . S
C408 H398 0.930 . S
C408 C407 1.400 . S
C408 C411 1.386 . S
H409 C425 0.930 . S
H410 C426 0.931 . S
C411 H399 0.929 1_565 S
C411 C405 1.390 . S
C411 C408 1.386 . S
C412 C407 1.490 . S
C412 C414 1.395 . S
C412 C415 1.403 . S
H413 C419 0.930 . S
C414 H400 0.930 . S
C414 C412 1.395 . S
C414 C417 1.403 . S
C415 C412 1.403 . S
C415 C416 1.524 . S
C415 C419 1.400 . S
C416 H401 0.960 . S
C416 H402 0.960 . S
C416 H403 0.960 . S
C416 C415 1.524 . S
C417 C414 1.403 . S
C417 C418 1.392 . S
C417 C421 1.495 . S
C418 C417 1.392 . S
C418 C419 1.385 . S
C418 C420 1.478 . S
C419 H413 0.930 . S
C419 C415 1.400 . S
C419 C418 1.385 . S
C420 C418 1.478 . S
C420 C422 1.381 . S
C420 C426 1.383 . S
C421 C417 1.495 . S
C421 H427 0.959 . S
C421 H428 0.961 . S
C421 H429 0.960 . S
C422 C420 1.381 . S
C422 C423 1.394 . S
C422 H430 0.930 . S
C423 C422 1.394 . S
C423 C424 1.383 . S
C423 H431 0.929 . S
C424 C423 1.383 . S
C424 C425 1.377 . S
C425 H409 0.930 . S
C425 C424 1.377 . S
C425 C426 1.379 . S
C426 H410 0.931 . S
C426 C420 1.383 . S
C426 C425 1.379 . S
H427 C421 0.959 . S
H428 C421 0.961 . S
H429 C421 0.960 . S
H430 C422 0.930 . S
H431 C423 0.929 . S
H432 C440 0.929 . S
H433 C442 0.930 . S
H434 C444 0.930 . S
H435 C447 0.929 . S
H436 C450 0.930 . S
H437 C452 0.960 . S
H438 C452 0.960 . S
H439 C452 0.960 . S
C440 H432 0.929 . S
C440 C441 1.377 . S
C440 C442 1.384 . S
C441 C440 1.377 . S
C441 C447 1.390 . S
C442 H433 0.930 . S
C442 C440 1.384 . S
C442 C443 1.372 . S
C443 C442 1.372 . S
C443 C444 1.400 . S
C443 C448 1.490 . S
C444 H434 0.930 . S
C444 C443 1.400 . S
C444 C447 1.386 . S
H445 C461 0.930 1_655 S
H446 C462 0.931 . S
C447 H435 0.929 . S
C447 C441 1.390 . S
C447 C444 1.386 . S
C448 C443 1.490 . S
C448 C450 1.395 . S
C448 C451 1.403 . S
H449 C455 0.930 . S
C450 H436 0.930 . S
C450 C448 1.395 . S
C450 C453 1.403 . S
C451 C448 1.403 . S
C451 C452 1.524 . S
C451 C455 1.400 . S
C452 H437 0.960 . S
C452 H438 0.960 . S
C452 H439 0.960 . S
C452 C451 1.524 . S
C453 C450 1.403 . S
C453 C454 1.392 . S
C453 C457 1.495 . S
C454 C453 1.392 . S
C454 C455 1.385 . S
C454 C456 1.478 . S
C455 H449 0.930 . S
C455 C451 1.400 . S
C455 C454 1.385 . S
C456 C454 1.478 . S
C456 C458 1.381 . S
C456 C462 1.383 . S
C457 C453 1.495 . S
C457 H463 0.959 . S
C457 H464 0.961 . S
C457 H465 0.960 . S
C458 C456 1.381 . S
C458 C459 1.394 . S
C458 H466 0.930 . S
C459 C458 1.394 . S
C459 C460 1.383 . S
C459 H467 0.929 . S
C460 C459 1.383 . S
C460 C461 1.377 . S
C461 H445 0.930 1_455 S
C461 C460 1.377 . S
C461 C462 1.379 . S
C462 H446 0.931 . S
C462 C456 1.383 . S
C462 C461 1.379 . S
H463 C457 0.959 . S
H464 C457 0.961 . S
H465 C457 0.960 . S
H466 C458 0.930 . S
H467 C459 0.929 . S
H468 C476 0.929 . S
H469 C478 0.930 . S
H470 C480 0.930 . S
H471 C483 0.929 . S
H472 C486 0.930 . S
H473 C488 0.960 1_455 S
H474 C488 0.960 . S
H475 C488 0.960 . S
C476 H468 0.929 . S
C476 C477 1.377 . S
C476 C478 1.384 . S
C477 C476 1.377 . S
C477 C483 1.390 . S
C478 H469 0.930 . S
C478 C476 1.384 . S
C478 C479 1.372 . S
C479 C478 1.372 . S
C479 C480 1.400 . S
C479 C484 1.490 . S
C480 H470 0.930 . S
C480 C479 1.400 . S
C480 C483 1.386 . S
H481 C497 0.930 . S
H482 C498 0.931 . S
C483 H471 0.929 . S
C483 C477 1.390 . S
C483 C480 1.386 . S
C484 C479 1.490 . S
C484 C486 1.395 . S
C484 C487 1.403 . S
H485 C491 0.930 . S
C486 H472 0.930 . S
C486 C484 1.395 . S
C486 C489 1.403 . S
C487 C484 1.403 . S
C487 C488 1.524 . S
C487 C491 1.400 1_655 S
C488 H473 0.960 1_655 S
C488 H474 0.960 . S
C488 H475 0.960 . S
C488 C487 1.524 . S
C489 C486 1.403 . S
C489 C490 1.392 1_655 S
C489 C493 1.492 . S
C490 C489 1.392 1_455 S
C490 C491 1.385 . S
C490 C492 1.478 . S
C491 H485 0.930 . S
C491 C487 1.400 1_455 S
C491 C490 1.385 . S
C492 C490 1.478 . S
C492 C494 1.381 . S
C492 C498 1.383 . S
C493 C489 1.492 . S
C493 H499 0.975 . S
C493 H500 0.951 1_655 S
C493 H501 0.957 1_655 S
C494 C492 1.381 . S
C494 C495 1.394 . S
C494 H502 0.930 . S
C495 C494 1.394 . S
C495 C496 1.383 . S
C495 H503 0.929 . S
C496 C495 1.383 . S
C496 C497 1.377 . S
C497 H481 0.930 . S
C497 C496 1.377 . S
C497 C498 1.379 . S
C498 H482 0.931 . S
C498 C492 1.383 . S
C498 C497 1.379 . S
H499 C493 0.975 . S
H500 C493 0.951 1_455 S
H501 C493 0.957 1_455 S
H502 C494 0.930 . S
H503 C495 0.929 . S
H504 C512 0.929 . S
H505 C514 0.930 . S
H506 C516 0.930 . S
H507 C519 0.929 . S
H508 C522 0.930 . S
H509 C524 0.960 . S
H510 C524 0.960 . S
H511 C524 0.960 . S
C512 H504 0.929 . S
C512 C513 1.377 . S
C512 C514 1.384 . S
C513 C512 1.377 . S
C513 C519 1.390 . S
C514 H505 0.930 . S
C514 C512 1.384 . S
C514 C515 1.372 . S
C515 C514 1.372 . S
C515 C516 1.400 . S
C515 C520 1.490 . S
C516 H506 0.930 . S
C516 C515 1.400 . S
C516 C519 1.386 . S
H517 C533 0.930 . S
H518 C534 0.931 . S
C519 H507 0.929 . S
C519 C513 1.390 . S
C519 C516 1.386 . S
C520 C515 1.490 . S
C520 C522 1.395 . S
C520 C523 1.403 . S
H521 C527 0.930 . S
C522 H508 0.930 . S
C522 C520 1.395 . S
C522 C525 1.403 . S
C523 C520 1.403 . S
C523 C524 1.524 . S
C523 C527 1.400 . S
C524 H509 0.960 . S
C524 H510 0.960 . S
C524 H511 0.960 . S
C524 C523 1.524 . S
C525 C522 1.403 . S
C525 C526 1.392 . S
C525 C529 1.495 . S
C526 C525 1.392 . S
C526 C527 1.385 . S
C526 C528 1.478 . S
C527 H521 0.930 . S
C527 C523 1.400 . S
C527 C526 1.385 . S
C528 C526 1.478 . S
C528 C530 1.381 . S
C528 C534 1.383 . S
C529 C525 1.495 . S
C529 H535 0.959 . S
C529 H536 0.961 . S
C529 H537 0.960 . S
C530 C528 1.381 . S
C530 C531 1.394 . S
C530 H538 0.930 . S
C531 C530 1.394 . S
C531 C532 1.383 . S
C531 H539 0.929 . S
C532 C531 1.383 . S
C532 C533 1.377 . S
C533 H517 0.930 . S
C533 C532 1.377 . S
C533 C534 1.379 . S
C534 H518 0.931 . S
C534 C528 1.383 . S
C534 C533 1.379 . S
H535 C529 0.959 . S
H536 C529 0.961 . S
H537 C529 0.960 . S
H538 C530 0.930 . S
H539 C531 0.929 . S
H540 C548 0.929 . S
H541 C550 0.930 . S
H542 C552 0.930 . S
H543 C555 0.929 . S
H544 C558 0.930 . S
H545 C560 0.960 . S
H546 C560 0.960 . S
H547 C560 0.960 . S
C548 H540 0.929 . S
C548 C549 1.377 . S
C548 C550 1.384 . S
C549 C548 1.377 . S
C549 C555 1.390 . S
C550 H541 0.930 . S
C550 C548 1.384 . S
C550 C551 1.372 . S
C551 C550 1.372 . S
C551 C552 1.400 . S
C551 C556 1.490 . S
C552 H542 0.930 . S
C552 C551 1.400 . S
C552 C555 1.386 . S
H553 C569 0.930 . S
H554 C570 0.931 . S
C555 H543 0.929 . S
C555 C549 1.390 . S
C555 C552 1.386 . S
C556 C551 1.490 . S
C556 C558 1.395 . S
C556 C559 1.403 . S
H557 C563 0.930 . S
C558 H544 0.930 . S
C558 C556 1.395 . S
C558 C561 1.403 1_545 S
C559 C556 1.403 . S
C559 C560 1.524 . S
C559 C563 1.400 1_545 S
C560 H545 0.960 . S
C560 H546 0.960 . S
C560 H547 0.960 . S
C560 C559 1.524 . S
C561 C558 1.403 1_565 S
C561 C562 1.392 . S
C561 C565 1.495 . S
C562 C561 1.392 . S
C562 C563 1.385 . S
C562 C564 1.478 . S
C563 H557 0.930 . S
C563 C559 1.400 1_565 S
C563 C562 1.385 . S
C564 C562 1.478 . S
C564 C566 1.381 . S
C564 C570 1.383 . S
C565 C561 1.495 . S
C565 H571 0.959 . S
C565 H572 0.961 . S
C565 H573 0.960 . S
C566 C564 1.381 . S
C566 C567 1.394 . S
C566 H574 0.930 . S
C567 C566 1.394 . S
C567 C568 1.383 . S
C567 H575 0.929 . S
C568 C567 1.383 . S
C568 C569 1.377 . S
C569 H553 0.930 . S
C569 C568 1.377 . S
C569 C570 1.379 . S
C570 H554 0.931 . S
C570 C564 1.383 . S
C570 C569 1.379 . S
H571 C565 0.959 . S
H572 C565 0.961 . S
H573 C565 0.960 . S
H574 C566 0.930 . S
H575 C567 0.929 . S
H576 C584 0.929 . S
H577 C586 0.930 . S
H578 C588 0.930 . S
H579 C591 0.929 . S
H580 C594 0.930 . S
H581 C596 0.960 . S
H582 C596 0.960 . S
H583 C596 0.960 . S
C584 H576 0.929 . S
C584 C585 1.377 . S
C584 C586 1.384 . S
C585 C584 1.377 . S
C585 C591 1.390 . S
C586 H577 0.930 . S
C586 C584 1.384 . S
C586 C587 1.372 . S
C587 C586 1.372 . S
C587 C588 1.400 . S
C587 C592 1.490 . S
C588 H578 0.930 . S
C588 C587 1.400 . S
C588 C591 1.386 . S
H589 C605 0.930 . S
H590 C606 0.931 . S
C591 H579 0.929 . S
C591 C585 1.390 . S
C591 C588 1.386 . S
C592 C587 1.490 . S
C592 C594 1.395 . S
C592 C595 1.403 . S
H593 C599 0.930 . S
C594 H580 0.930 . S
C594 C592 1.395 . S
C594 C597 1.403 1_455 S
C595 C592 1.403 . S
C595 C596 1.524 . S
C595 C599 1.400 1_455 S
C596 H581 0.960 . S
C596 H582 0.960 . S
C596 H583 0.960 . S
C596 C595 1.524 . S
C597 C594 1.403 1_655 S
C597 C598 1.392 . S
C597 C601 1.495 . S
C598 C597 1.392 . S
C598 C599 1.385 . S
C598 C600 1.478 . S
C599 H593 0.930 . S
C599 C595 1.400 1_655 S
C599 C598 1.385 . S
C600 C598 1.478 . S
C600 C602 1.381 . S
C600 C606 1.383 . S
C601 C597 1.495 . S
C601 H607 0.959 . S
C601 H608 0.961 . S
C601 H609 0.960 . S
C602 C600 1.381 . S
C602 C603 1.394 . S
C602 H610 0.930 . S
C603 C602 1.394 . S
C603 C604 1.383 . S
C603 H611 0.929 . S
C604 C603 1.383 . S
C604 C605 1.377 . S
C605 H589 0.930 . S
C605 C604 1.377 . S
C605 C606 1.379 . S
C606 H590 0.931 . S
C606 C600 1.383 . S
C606 C605 1.379 . S
H607 C601 0.959 . S
H608 C601 0.961 . S
H609 C601 0.960 . S
H610 C602 0.930 . S
H611 C603 0.929 . S
H612 C620 0.929 . S
H613 C622 0.930 . S
H614 C624 0.930 . S
H615 C627 0.929 . S
H616 C630 0.930 . S
H617 C632 0.960 . S
H618 C632 0.960 . S
H619 C632 0.960 . S
C620 H612 0.929 . S
C620 C621 1.377 . S
C620 C622 1.384 . S
C621 C620 1.377 . S
C621 C627 1.390 . S
C622 H613 0.930 . S
C622 C620 1.384 . S
C622 C623 1.372 . S
C623 C622 1.372 . S
C623 C624 1.400 . S
C623 C628 1.490 . S
C624 H614 0.930 . S
C624 C623 1.400 . S
C624 C627 1.386 . S
H625 C641 0.930 . S
H626 C642 0.931 . S
C627 H615 0.929 . S
C627 C621 1.390 . S
C627 C624 1.386 . S
C628 C623 1.490 . S
C628 C630 1.395 . S
C628 C631 1.403 . S
H629 C635 0.930 . S
C630 H616 0.930 . S
C630 C628 1.395 . S
C630 C633 1.403 . S
C631 C628 1.403 . S
C631 C632 1.524 . S
C631 C635 1.400 . S
C632 H617 0.960 . S
C632 H618 0.960 . S
C632 H619 0.960 . S
C632 C631 1.524 . S
C633 C630 1.403 . S
C633 C634 1.392 . S
C633 C637 1.495 . S
C634 C633 1.392 . S
C634 C635 1.385 . S
C634 C636 1.478 . S
C635 H629 0.930 . S
C635 C631 1.400 . S
C635 C634 1.385 . S
C636 C634 1.478 . S
C636 C638 1.381 . S
C636 C642 1.383 . S
C637 C633 1.495 . S
C637 H643 0.959 . S
C637 H644 0.961 . S
C637 H645 0.960 . S
C638 C636 1.381 . S
C638 C639 1.394 . S
C638 H646 0.930 . S
C639 C638 1.394 . S
C639 C640 1.383 . S
C639 H647 0.929 . S
C640 C639 1.383 . S
C640 C641 1.377 . S
C641 H625 0.930 . S
C641 C640 1.377 . S
C641 C642 1.379 . S
C642 H626 0.931 . S
C642 C636 1.383 . S
C642 C641 1.379 . S
H643 C637 0.959 . S
H644 C637 0.961 . S
H645 C637 0.960 . S
H646 C638 0.930 . S
H647 C639 0.929 . S
H648 C656 0.929 . S
H649 C658 0.930 . S
H650 C660 0.930 . S
H651 C663 0.929 . S
H652 C666 0.930 . S
H653 C668 0.960 1_565 S
H654 C668 0.960 . S
H655 C668 0.960 . S
C656 H648 0.929 . S
C656 C657 1.377 . S
C656 C658 1.384 . S
C657 C656 1.377 . S
C657 C663 1.390 . S
C658 H649 0.930 . S
C658 C656 1.384 . S
C658 C659 1.372 . S
C659 C658 1.372 . S
C659 C660 1.400 . S
C659 C664 1.490 . S
C660 H650 0.930 . S
C660 C659 1.400 . S
C660 C663 1.386 . S
H661 C677 0.930 . S
H662 C678 0.931 . S
C663 H651 0.929 . S
C663 C657 1.390 . S
C663 C660 1.386 . S
C664 C659 1.490 . S
C664 C666 1.395 . S
C664 C667 1.406 . S
H665 C671 0.930 . S
C666 H652 0.930 . S
C666 C664 1.395 . S
C666 C669 1.403 1_545 S
C667 C664 1.406 . S
C667 C668 1.545 . S
C667 C671 1.374 1_545 S
C668 H653 0.960 1_545 S
C668 H654 0.960 . S
C668 H655 0.960 . S
C668 C667 1.545 . S
C669 C666 1.403 1_565 S
C669 C670 1.392 . S
C669 C673 1.495 . S
C670 C669 1.392 . S
C670 C671 1.385 . S
C670 C672 1.478 . S
C671 H665 0.930 . S
C671 C667 1.374 1_565 S
C671 C670 1.385 . S
C672 C670 1.478 . S
C672 C674 1.381 . S
C672 C678 1.383 . S
C673 C669 1.495 . S
C673 H679 0.959 . S
C673 H680 0.961 . S
C673 H681 0.960 . S
C674 C672 1.381 . S
C674 C675 1.394 . S
C674 H682 0.930 . S
C675 C674 1.394 . S
C675 C676 1.383 . S
C675 H683 0.929 . S
C676 C675 1.383 . S
C676 C677 1.377 . S
C677 H661 0.930 . S
C677 C676 1.377 . S
C677 C678 1.379 . S
C678 H662 0.931 . S
C678 C672 1.383 . S
C678 C677 1.379 . S
H679 C673 0.959 . S
H680 C673 0.961 . S
H681 C673 0.960 . S
H682 C674 0.930 . S
H683 C675 0.929 . S
H684 C692 0.929 . S
H685 C694 0.930 . S
H686 C696 0.930 . S
H687 C699 0.929 . S
H688 C702 0.930 . S
H689 C704 0.960 . S
H690 C704 0.960 . S
H691 C704 0.960 . S
C692 H684 0.929 . S
C692 C693 1.377 . S
C692 C694 1.384 . S
C693 C692 1.377 . S
C693 C699 1.390 . S
C694 H685 0.930 . S
C694 C692 1.384 . S
C694 C695 1.372 . S
C695 C694 1.372 . S
C695 C696 1.400 . S
C695 C700 1.490 . S
C696 H686 0.930 . S
C696 C695 1.400 . S
C696 C699 1.386 . S
H697 C713 0.930 . S
H698 C714 0.931 . S
C699 H687 0.929 . S
C699 C693 1.390 . S
C699 C696 1.386 . S
C700 C695 1.490 . S
C700 C702 1.395 . S
C700 C703 1.403 . S
H701 C707 0.930 . S
C702 H688 0.930 . S
C702 C700 1.395 . S
C702 C705 1.403 1_565 S
C703 C700 1.403 . S
C703 C704 1.524 . S
C703 C707 1.400 1_565 S
C704 H689 0.960 . S
C704 H690 0.960 . S
C704 H691 0.960 . S
C704 C703 1.524 . S
C705 C702 1.403 1_545 S
C705 C706 1.392 . S
C705 C709 1.495 . S
C706 C705 1.392 . S
C706 C707 1.385 . S
C706 C708 1.478 . S
C707 H701 0.930 . S
C707 C703 1.400 1_545 S
C707 C706 1.385 . S
C708 C706 1.478 . S
C708 C710 1.381 . S
C708 C714 1.383 . S
C709 C705 1.495 . S
C709 H715 0.959 . S
C709 H716 0.961 . S
C709 H717 0.960 . S
C710 C708 1.381 . S
C710 C711 1.394 . S
C710 H718 0.930 . S
C711 C710 1.394 . S
C711 C712 1.383 . S
C711 H719 0.929 . S
C712 C711 1.383 . S
C712 C713 1.377 . S
C713 H697 0.930 . S
C713 C712 1.377 . S
C713 C714 1.379 . S
C714 H698 0.931 . S
C714 C708 1.383 . S
C714 C713 1.379 . S
H715 C709 0.959 . S
H716 C709 0.961 . S
H717 C709 0.960 . S
H718 C710 0.930 . S
H719 C711 0.929 . S
H720 C728 0.929 . S
H721 C730 0.930 . S
H722 C732 0.930 . S
H723 C735 0.929 . S
H724 C738 0.930 . S
H725 C740 0.960 1_655 S
H726 C740 0.960 . S
H727 C740 0.960 . S
C728 H720 0.929 . S
C728 C729 1.377 . S
C728 C730 1.384 . S
C729 C728 1.377 . S
C729 C735 1.390 . S
C730 H721 0.930 . S
C730 C728 1.384 . S
C730 C731 1.372 . S
C731 C730 1.372 . S
C731 C732 1.400 . S
C731 C736 1.490 . S
C732 H722 0.930 . S
C732 C731 1.400 . S
C732 C735 1.386 . S
H733 C749 0.930 . S
H734 C750 0.931 . S
C735 H723 0.929 . S
C735 C729 1.390 . S
C735 C732 1.386 . S
C736 C731 1.490 . S
C736 C738 1.395 . S
C736 C739 1.405 . S
H737 C743 0.930 . S
C738 H724 0.930 . S
C738 C736 1.395 . S
C738 C741 1.403 1_455 S
C739 C736 1.405 . S
C739 C740 1.537 . S
C739 C743 1.384 1_455 S
C740 H725 0.960 1_455 S
C740 H726 0.960 . S
C740 H727 0.960 . S
C740 C739 1.537 . S
C741 C738 1.403 1_655 S
C741 C742 1.392 . S
C741 C745 1.495 . S
C742 C741 1.392 . S
C742 C743 1.385 . S
C742 C744 1.478 . S
C743 H737 0.930 . S
C743 C739 1.384 1_655 S
C743 C742 1.385 . S
C744 C742 1.478 . S
C744 C746 1.381 . S
C744 C750 1.383 . S
C745 C741 1.495 . S
C745 H751 0.959 . S
C745 H752 0.961 . S
C745 H753 0.960 . S
C746 C744 1.381 . S
C746 C747 1.394 . S
C746 H754 0.930 . S
C747 C746 1.394 . S
C747 C748 1.383 . S
C747 H755 0.929 . S
C748 C747 1.383 . S
C748 C749 1.377 . S
C749 H733 0.930 . S
C749 C748 1.377 . S
C749 C750 1.379 . S
C750 H734 0.931 . S
C750 C744 1.383 . S
C750 C749 1.379 . S
H751 C745 0.959 . S
H752 C745 0.961 . S
H753 C745 0.960 . S
H754 C746 0.930 . S
H755 C747 0.929 . S
H756 C764 0.929 . S
H757 C766 0.930 . S
H758 C768 0.930 . S
H759 C771 0.929 . S
H760 C774 0.930 . S
H761 C776 0.960 . S
H762 C776 0.960 . S
H763 C776 0.960 . S
C764 H756 0.929 . S
C764 C765 1.377 . S
C764 C766 1.384 . S
C765 C764 1.377 . S
C765 C771 1.390 . S
C766 H757 0.930 . S
C766 C764 1.384 . S
C766 C767 1.372 . S
C767 C766 1.372 . S
C767 C768 1.400 . S
C767 C772 1.490 . S
C768 H758 0.930 . S
C768 C767 1.400 . S
C768 C771 1.386 . S
H769 C785 0.930 . S
H770 C786 0.931 . S
C771 H759 0.929 . S
C771 C765 1.390 . S
C771 C768 1.386 . S
C772 C767 1.490 . S
C772 C774 1.395 . S
C772 C775 1.403 . S
H773 C779 0.930 . S
C774 H760 0.930 . S
C774 C772 1.395 . S
C774 C777 1.403 . S
C775 C772 1.403 . S
C775 C776 1.524 . S
C775 C779 1.400 . S
C776 H761 0.960 . S
C776 H762 0.960 . S
C776 H763 0.960 . S
C776 C775 1.524 . S
C777 C774 1.403 . S
C777 C778 1.392 . S
C777 C781 1.495 . S
C778 C777 1.392 . S
C778 C779 1.385 . S
C778 C780 1.478 . S
C779 H773 0.930 . S
C779 C775 1.400 . S
C779 C778 1.385 . S
C780 C778 1.478 . S
C780 C782 1.381 . S
C780 C786 1.383 . S
C781 C777 1.495 . S
C781 H787 0.959 . S
C781 H788 0.961 . S
C781 H789 0.960 . S
C782 C780 1.381 . S
C782 C783 1.394 . S
C782 H790 0.930 . S
C783 C782 1.394 . S
C783 C784 1.383 . S
C783 H791 0.929 . S
C784 C783 1.383 . S
C784 C785 1.377 . S
C785 H769 0.930 . S
C785 C784 1.377 . S
C785 C786 1.379 . S
C786 H770 0.931 . S
C786 C780 1.383 . S
C786 C785 1.379 . S
H787 C781 0.959 . S
H788 C781 0.961 . S
H789 C781 0.960 . S
H790 C782 0.930 . S
H791 C783 0.929 . S
H792 C800 0.929 . S
H793 C802 0.930 . S
H794 C804 0.930 . S
H795 C807 0.929 . S
H796 C810 0.930 . S
H797 C812 0.960 . S
H798 C812 0.960 . S
H799 C812 0.960 . S
C800 H792 0.929 . S
C800 C801 1.377 . S
C800 C802 1.384 . S
C801 C800 1.377 . S
C801 C807 1.390 . S
C802 H793 0.930 . S
C802 C800 1.384 . S
C802 C803 1.372 . S
C803 C802 1.372 . S
C803 C804 1.400 . S
C803 C808 1.490 . S
C804 H794 0.930 . S
C804 C803 1.400 . S
C804 C807 1.386 . S
H805 C821 0.930 . S
H806 C822 0.931 . S
C807 H795 0.929 . S
C807 C801 1.390 . S
C807 C804 1.386 . S
C808 C803 1.490 . S
C808 C810 1.395 . S
C808 C811 1.403 . S
H809 C815 0.930 . S
C810 H796 0.930 . S
C810 C808 1.395 . S
C810 C813 1.403 . S
C811 C808 1.403 . S
C811 C812 1.524 . S
C811 C815 1.400 . S
C812 H797 0.960 . S
C812 H798 0.960 . S
C812 H799 0.960 . S
C812 C811 1.524 . S
C813 C810 1.403 . S
C813 C814 1.392 . S
C813 C817 1.495 . S
C814 C813 1.392 . S
C814 C815 1.385 . S
C814 C816 1.478 . S
C815 H809 0.930 . S
C815 C811 1.400 . S
C815 C814 1.385 . S
C816 C814 1.478 . S
C816 C818 1.381 . S
C816 C822 1.383 . S
C817 C813 1.495 . S
C817 H823 0.959 . S
C817 H824 0.961 . S
C817 H825 0.960 . S
C818 C816 1.381 . S
C818 C819 1.394 . S
C818 H826 0.930 . S
C819 C818 1.394 . S
C819 C820 1.383 . S
C819 H827 0.929 . S
C820 C819 1.383 . S
C820 C821 1.377 . S
C821 H805 0.930 . S
C821 C820 1.377 . S
C821 C822 1.379 . S
C822 H806 0.931 . S
C822 C816 1.383 . S
C822 C821 1.379 . S
H823 C817 0.959 . S
H824 C817 0.961 . S
H825 C817 0.960 . S
H826 C818 0.930 . S
H827 C819 0.929 . S
H828 C836 0.929 . S
H829 C838 0.930 . S
H830 C840 0.930 . S
H831 C843 0.929 . S
H832 C846 0.930 . S
H833 C848 0.960 . S
H834 C848 0.960 . S
H835 C848 0.960 . S
C836 H828 0.929 . S
C836 C837 1.377 . S
C836 C838 1.384 . S
C837 C836 1.377 . S
C837 C843 1.390 . S
C838 H829 0.930 . S
C838 C836 1.384 . S
C838 C839 1.372 . S
C839 C838 1.372 . S
C839 C840 1.400 . S
C839 C844 1.490 . S
C840 H830 0.930 . S
C840 C839 1.400 . S
C840 C843 1.386 . S
H841 C857 0.930 . S
H842 C858 0.931 . S
C843 H831 0.929 . S
C843 C837 1.390 . S
C843 C840 1.386 . S
C844 C839 1.490 . S
C844 C846 1.395 . S
C844 C847 1.403 . S
H845 C851 0.930 . S
C846 H832 0.930 . S
C846 C844 1.395 . S
C846 C849 1.403 . S
C847 C844 1.403 . S
C847 C848 1.524 . S
C847 C851 1.400 . S
C848 H833 0.960 . S
C848 H834 0.960 . S
C848 H835 0.960 . S
C848 C847 1.524 . S
C849 C846 1.403 . S
C849 C850 1.392 . S
C849 C853 1.495 . S
C850 C849 1.392 . S
C850 C851 1.385 . S
C850 C852 1.478 . S
C851 H845 0.930 . S
C851 C847 1.400 . S
C851 C850 1.385 . S
C852 C850 1.478 . S
C852 C854 1.381 . S
C852 C858 1.383 . S
C853 C849 1.495 . S
C853 H859 0.959 . S
C853 H860 0.961 . S
C853 H861 0.960 . S
C854 C852 1.381 . S
C854 C855 1.394 . S
C854 H862 0.930 . S
C855 C854 1.394 . S
C855 C856 1.383 . S
C855 H863 0.929 . S
C856 C855 1.383 . S
C856 C857 1.377 . S
C857 H841 0.930 . S
C857 C856 1.377 . S
C857 C858 1.379 . S
C858 H842 0.931 . S
C858 C852 1.383 . S
C858 C857 1.379 . S
H859 C853 0.959 . S
H860 C853 0.961 . S
H861 C853 0.960 . S
H862 C854 0.930 . S
H863 C855 0.929 . S
H864 C872 0.929 . S
H865 C874 0.930 . S
H866 C876 0.930 . S
H867 C879 0.929 . S
H868 C882 0.930 . S
H869 C884 0.960 . S
H870 C884 0.960 . S
H871 C884 0.960 . S
C872 H864 0.929 . S
C872 C873 1.377 . S
C872 C874 1.384 . S
C873 C872 1.377 . S
C873 C879 1.390 . S
C874 H865 0.930 . S
C874 C872 1.384 . S
C874 C875 1.372 . S
C875 C874 1.372 . S
C875 C876 1.400 . S
C875 C880 1.490 . S
C876 H866 0.930 . S
C876 C875 1.400 . S
C876 C879 1.386 . S
H877 C893 0.930 . S
H878 C894 0.931 . S
C879 H867 0.929 . S
C879 C873 1.390 . S
C879 C876 1.386 . S
C880 C875 1.490 . S
C880 C882 1.395 . S
C880 C883 1.403 . S
H881 C887 0.930 . S
C882 H868 0.930 . S
C882 C880 1.395 . S
C882 C885 1.403 . S
C883 C880 1.403 . S
C883 C884 1.524 . S
C883 C887 1.400 . S
C884 H869 0.960 . S
C884 H870 0.960 . S
C884 H871 0.960 . S
C884 C883 1.524 . S
C885 C882 1.403 . S
C885 C886 1.392 . S
C885 C889 1.495 . S
C886 C885 1.392 . S
C886 C887 1.385 . S
C886 C888 1.478 . S
C887 H881 0.930 . S
C887 C883 1.400 . S
C887 C886 1.385 . S
C888 C886 1.478 . S
C888 C890 1.381 . S
C888 C894 1.383 . S
C889 C885 1.495 . S
C889 H895 0.959 . S
C889 H896 0.961 . S
C889 H897 0.960 . S
C890 C888 1.381 . S
C890 C891 1.394 . S
C890 H898 0.930 . S
C891 C890 1.394 . S
C891 C892 1.383 . S
C891 H899 0.929 . S
C892 C891 1.383 . S
C892 C893 1.377 . S
C893 H877 0.930 . S
C893 C892 1.377 . S
C893 C894 1.379 . S
C894 H878 0.931 . S
C894 C888 1.383 . S
C894 C893 1.379 . S
H895 C889 0.959 . S
H896 C889 0.961 . S
H897 C889 0.960 . S
H898 C890 0.930 . S
H899 C891 0.929 . S
H900 C908 0.929 . S
H901 C910 0.930 . S
H902 C912 0.930 . S
H903 C915 0.929 . S
H904 C918 0.930 . S
H905 C920 0.960 . S
H906 C920 0.960 . S
H907 C920 0.960 . S
C908 H900 0.929 . S
C908 C909 1.377 . S
C908 C910 1.384 . S
C909 C908 1.377 . S
C909 C915 1.390 . S
C910 H901 0.930 . S
C910 C908 1.384 . S
C910 C911 1.372 . S
C911 C910 1.372 . S
C911 C912 1.400 . S
C911 C916 1.490 . S
C912 H902 0.930 . S
C912 C911 1.400 . S
C912 C915 1.386 . S
H913 C929 0.930 . S
H914 C930 0.931 . S
C915 H903 0.929 . S
C915 C909 1.390 . S
C915 C912 1.386 . S
C916 C911 1.490 . S
C916 C918 1.395 . S
C916 C919 1.403 . S
H917 C923 0.930 . S
C918 H904 0.930 . S
C918 C916 1.395 . S
C918 C921 1.403 . S
C919 C916 1.403 . S
C919 C920 1.524 . S
C919 C923 1.400 . S
C920 H905 0.960 . S
C920 H906 0.960 . S
C920 H907 0.960 . S
C920 C919 1.524 . S
C921 C918 1.403 . S
C921 C922 1.392 . S
C921 C925 1.495 . S
C922 C921 1.392 . S
C922 C923 1.385 . S
C922 C924 1.478 . S
C923 H917 0.930 . S
C923 C919 1.400 . S
C923 C922 1.385 . S
C924 C922 1.478 . S
C924 C926 1.381 . S
C924 C930 1.383 . S
C925 C921 1.495 . S
C925 H931 0.959 . S
C925 H932 0.961 . S
C925 H933 0.960 . S
C926 C924 1.381 . S
C926 C927 1.394 . S
C926 H934 0.930 . S
C927 C926 1.394 . S
C927 C928 1.383 . S
C927 H935 0.929 . S
C928 C927 1.383 . S
C928 C929 1.377 . S
C929 H913 0.930 . S
C929 C928 1.377 . S
C929 C930 1.379 . S
C930 H914 0.931 . S
C930 C924 1.383 . S
C930 C929 1.379 . S
H931 C925 0.959 . S
H932 C925 0.961 . S
H933 C925 0.960 . S
H934 C926 0.930 . S
H935 C927 0.929 . S
H936 C944 0.929 . S
H937 C946 0.930 . S
H938 C948 0.930 . S
H939 C951 0.929 . S
H940 C954 0.930 . S
H941 C956 0.960 . S
H942 C956 0.960 . S
H943 C956 0.960 . S
C944 H936 0.929 . S
C944 C945 1.377 . S
C944 C946 1.384 . S
C945 C944 1.377 . S
C945 C951 1.390 . S
C946 H937 0.930 . S
C946 C944 1.384 . S
C946 C947 1.372 . S
C947 C946 1.372 . S
C947 C948 1.400 . S
C947 C952 1.490 . S
C948 H938 0.930 . S
C948 C947 1.400 . S
C948 C951 1.386 . S
H949 C965 0.930 . S
H950 C966 0.931 . S
C951 H939 0.929 . S
C951 C945 1.390 . S
C951 C948 1.386 . S
C952 C947 1.490 . S
C952 C954 1.395 . S
C952 C955 1.403 . S
H953 C959 0.930 . S
C954 H940 0.930 . S
C954 C952 1.395 . S
C954 C957 1.403 . S
C955 C952 1.403 . S
C955 C956 1.524 . S
C955 C959 1.400 . S
C956 H941 0.960 . S
C956 H942 0.960 . S
C956 H943 0.960 . S
C956 C955 1.524 . S
C957 C954 1.403 . S
C957 C958 1.392 . S
C957 C961 1.495 . S
C958 C957 1.392 . S
C958 C959 1.385 . S
C958 C960 1.478 . S
C959 H953 0.930 . S
C959 C955 1.400 . S
C959 C958 1.385 . S
C960 C958 1.478 . S
C960 C962 1.381 . S
C960 C966 1.383 . S
C961 C957 1.495 . S
C961 H967 0.959 . S
C961 H968 0.961 . S
C961 H969 0.960 . S
C962 C960 1.381 . S
C962 C963 1.394 . S
C962 H970 0.930 . S
C963 C962 1.394 . S
C963 C964 1.383 . S
C963 H971 0.929 . S
C964 C963 1.383 . S
C964 C965 1.377 . S
C965 H949 0.930 . S
C965 C964 1.377 . S
C965 C966 1.379 . S
C966 H950 0.931 . S
C966 C960 1.383 . S
C966 C965 1.379 . S
H967 C961 0.959 . S
H968 C961 0.961 . S
H969 C961 0.960 . S
H970 C962 0.930 . S
H971 C963 0.929 . S
H972 C980 0.929 . S
H973 C982 0.930 . S
H974 C984 0.930 . S
H975 C987 0.929 . S
H976 C990 0.930 . S
H977 C992 0.960 . S
H978 C992 0.960 . S
H979 C992 0.960 . S
C980 H972 0.929 . S
C980 C981 1.377 . S
C980 C982 1.384 . S
C981 C980 1.377 . S
C981 C987 1.390 . S
C982 H973 0.930 . S
C982 C980 1.384 . S
C982 C983 1.372 . S
C983 C982 1.372 . S
C983 C984 1.400 . S
C983 C988 1.490 . S
C984 H974 0.930 . S
C984 C983 1.400 . S
C984 C987 1.386 . S
H985 C1001 0.930 . S
H986 C1002 0.931 . S
C987 H975 0.929 . S
C987 C981 1.390 . S
C987 C984 1.386 . S
C988 C983 1.490 . S
C988 C990 1.395 . S
C988 C991 1.403 . S
H989 C995 0.930 . S
C990 H976 0.930 . S
C990 C988 1.395 . S
C990 C993 1.403 . S
C991 C988 1.403 . S
C991 C992 1.524 . S
C991 C995 1.400 . S
C992 H977 0.960 . S
C992 H978 0.960 . S
C992 H979 0.960 . S
C992 C991 1.524 . S
C993 C990 1.403 . S
C993 C994 1.392 . S
C993 C997 1.495 . S
C994 C993 1.392 . S
C994 C995 1.385 . S
C994 C996 1.478 . S
C995 H989 0.930 . S
C995 C991 1.400 . S
C995 C994 1.385 . S
C996 C994 1.478 . S
C996 C998 1.381 . S
C996 C1002 1.383 . S
C997 C993 1.495 . S
C997 H1003 0.959 . S
C997 H1004 0.961 . S
C997 H1005 0.960 . S
C998 C996 1.381 . S
C998 C999 1.394 . S
C998 H1006 0.930 . S
C999 C998 1.394 . S
C999 C1000 1.383 . S
C999 H1007 0.929 . S
C1000 C999 1.383 . S
C1000 C1001 1.377 . S
C1001 H985 0.930 . S
C1001 C1000 1.377 . S
C1001 C1002 1.379 . S
C1002 H986 0.931 . S
C1002 C996 1.383 . S
C1002 C1001 1.379 . S
H1003 C997 0.959 . S
H1004 C997 0.961 . S
H1005 C997 0.960 . S
H1006 C998 0.930 . S
H1007 C999 0.929 . S
H1008 C1016 0.929 . S
H1009 C1018 0.930 . S
H1010 C1020 0.930 . S
H1011 C1023 0.929 . S
H1012 C1026 0.930 . S
H1013 C1028 0.960 . S
H1014 C1028 0.960 . S
H1015 C1028 0.960 . S
C1016 H1008 0.929 . S
C1016 C1017 1.377 . S
C1016 C1018 1.384 . S
C1017 C1016 1.377 . S
C1017 C1023 1.390 . S
C1018 H1009 0.930 . S
C1018 C1016 1.384 . S
C1018 C1019 1.372 . S
C1019 C1018 1.372 . S
C1019 C1020 1.400 . S
C1019 C1024 1.490 . S
C1020 H1010 0.930 . S
C1020 C1019 1.400 . S
C1020 C1023 1.386 . S
H1021 C1037 0.930 . S
H1022 C1038 0.931 . S
C1023 H1011 0.929 . S
C1023 C1017 1.390 . S
C1023 C1020 1.386 . S
C1024 C1019 1.490 . S
C1024 C1026 1.395 . S
C1024 C1027 1.403 . S
H1025 C1031 0.930 . S
C1026 H1012 0.930 . S
C1026 C1024 1.395 . S
C1026 C1029 1.403 . S
C1027 C1024 1.403 . S
C1027 C1028 1.524 . S
C1027 C1031 1.400 . S
C1028 H1013 0.960 . S
C1028 H1014 0.960 . S
C1028 H1015 0.960 . S
C1028 C1027 1.524 . S
C1029 C1026 1.403 . S
C1029 C1030 1.392 . S
C1029 C1033 1.495 . S
C1030 C1029 1.392 . S
C1030 C1031 1.385 . S
C1030 C1032 1.478 . S
C1031 H1025 0.930 . S
C1031 C1027 1.400 . S
C1031 C1030 1.385 . S
C1032 C1030 1.478 . S
C1032 C1034 1.381 . S
C1032 C1038 1.383 . S
C1033 C1029 1.495 . S
C1033 H1039 0.959 . S
C1033 H1040 0.961 . S
C1033 H1041 0.960 . S
C1034 C1032 1.381 . S
C1034 C1035 1.394 . S
C1034 H1042 0.930 . S
C1035 C1034 1.394 . S
C1035 C1036 1.383 . S
C1035 H1043 0.929 . S
C1036 C1035 1.383 . S
C1036 C1037 1.377 . S
C1037 H1021 0.930 . S
C1037 C1036 1.377 . S
C1037 C1038 1.379 . S
C1038 H1022 0.931 . S
C1038 C1032 1.383 . S
C1038 C1037 1.379 . S
H1039 C1033 0.959 . S
H1040 C1033 0.961 . S
H1041 C1033 0.960 . S
H1042 C1034 0.930 . S
H1043 C1035 0.929 . S
H1044 C1052 0.929 . S
H1045 C1054 0.930 . S
H1046 C1056 0.930 . S
H1047 C1059 0.929 . S
H1048 C1062 0.930 . S
H1049 C1064 0.960 . S
H1050 C1064 0.960 . S
H1051 C1064 0.960 . S
C1052 H1044 0.929 . S
C1052 C1053 1.377 . S
C1052 C1054 1.384 . S
C1053 C1052 1.377 . S
C1053 C1059 1.390 . S
C1054 H1045 0.930 . S
C1054 C1052 1.384 . S
C1054 C1055 1.372 . S
C1055 C1054 1.372 . S
C1055 C1056 1.400 . S
C1055 C1060 1.490 . S
C1056 H1046 0.930 . S
C1056 C1055 1.400 . S
C1056 C1059 1.386 . S
H1057 C1073 0.930 . S
H1058 C1074 0.931 . S
C1059 H1047 0.929 . S
C1059 C1053 1.390 . S
C1059 C1056 1.386 . S
C1060 C1055 1.490 . S
C1060 C1062 1.395 . S
C1060 C1063 1.403 . S
H1061 C1067 0.930 . S
C1062 H1048 0.930 . S
C1062 C1060 1.395 . S
C1062 C1065 1.403 . S
C1063 C1060 1.403 . S
C1063 C1064 1.524 . S
C1063 C1067 1.400 . S
C1064 H1049 0.960 . S
C1064 H1050 0.960 . S
C1064 H1051 0.960 . S
C1064 C1063 1.524 . S
C1065 C1062 1.403 . S
C1065 C1066 1.392 . S
C1065 C1069 1.495 . S
C1066 C1065 1.392 . S
C1066 C1067 1.385 . S
C1066 C1068 1.478 . S
C1067 H1061 0.930 . S
C1067 C1063 1.400 . S
C1067 C1066 1.385 . S
C1068 C1066 1.478 . S
C1068 C1070 1.381 . S
C1068 C1074 1.383 . S
C1069 C1065 1.495 . S
C1069 H1075 0.959 . S
C1069 H1076 0.961 . S
C1069 H1077 0.960 . S
C1070 C1068 1.381 . S
C1070 C1071 1.394 . S
C1070 H1078 0.930 . S
C1071 C1070 1.394 . S
C1071 C1072 1.383 . S
C1071 H1079 0.929 . S
C1072 C1071 1.383 . S
C1072 C1073 1.377 . S
C1073 H1057 0.930 . S
C1073 C1072 1.377 . S
C1073 C1074 1.379 . S
C1074 H1058 0.931 . S
C1074 C1068 1.383 . S
C1074 C1073 1.379 . S
H1075 C1069 0.959 . S
H1076 C1069 0.961 . S
H1077 C1069 0.960 . S
H1078 C1070 0.930 . S
H1079 C1071 0.929 . S
H1080 C1088 0.929 . S
H1081 C1090 0.930 . S
H1082 C1092 0.930 . S
H1083 C1095 0.929 . S
H1084 C1098 0.930 . S
H1085 C1100 0.960 . S
H1086 C1100 0.960 . S
H1087 C1100 0.960 . S
C1088 H1080 0.929 . S
C1088 C1089 1.377 . S
C1088 C1090 1.384 . S
C1089 C1088 1.377 . S
C1089 C1095 1.390 . S
C1090 H1081 0.930 . S
C1090 C1088 1.384 . S
C1090 C1091 1.372 . S
C1091 C1090 1.372 . S
C1091 C1092 1.400 . S
C1091 C1096 1.490 . S
C1092 H1082 0.930 . S
C1092 C1091 1.400 . S
C1092 C1095 1.386 . S
H1093 C1109 0.930 . S
H1094 C1110 0.931 . S
C1095 H1083 0.929 . S
C1095 C1089 1.390 . S
C1095 C1092 1.386 . S
C1096 C1091 1.490 . S
C1096 C1098 1.395 . S
C1096 C1099 1.403 . S
H1097 C1103 0.930 . S
C1098 H1084 0.930 . S
C1098 C1096 1.395 . S
C1098 C1101 1.403 . S
C1099 C1096 1.403 . S
C1099 C1100 1.524 . S
C1099 C1103 1.400 . S
C1100 H1085 0.960 . S
C1100 H1086 0.960 . S
C1100 H1087 0.960 . S
C1100 C1099 1.524 . S
C1101 C1098 1.403 . S
C1101 C1102 1.392 . S
C1101 C1105 1.495 . S
C1102 C1101 1.392 . S
C1102 C1103 1.385 . S
C1102 C1104 1.478 . S
C1103 H1097 0.930 . S
C1103 C1099 1.400 . S
C1103 C1102 1.385 . S
C1104 C1102 1.478 . S
C1104 C1106 1.381 . S
C1104 C1110 1.383 . S
C1105 C1101 1.495 . S
C1105 H1111 0.959 . S
C1105 H1112 0.961 . S
C1105 H1113 0.960 . S
C1106 C1104 1.381 . S
C1106 C1107 1.394 . S
C1106 H1114 0.930 . S
C1107 C1106 1.394 . S
C1107 C1108 1.383 . S
C1107 H1115 0.929 . S
C1108 C1107 1.383 . S
C1108 C1109 1.377 . S
C1109 H1093 0.930 . S
C1109 C1108 1.377 . S
C1109 C1110 1.379 . S
C1110 H1094 0.931 . S
C1110 C1104 1.383 . S
C1110 C1109 1.379 . S
H1111 C1105 0.959 . S
H1112 C1105 0.961 . S
H1113 C1105 0.960 . S
H1114 C1106 0.930 . S
H1115 C1107 0.929 . S
H1116 C1124 0.929 . S
H1117 C1126 0.930 . S
H1118 C1128 0.930 . S
H1119 C1131 0.929 . S
H1120 C1134 0.930 . S
H1121 C1136 0.960 . S
H1122 C1136 0.960 . S
H1123 C1136 0.960 . S
C1124 H1116 0.929 . S
C1124 C1125 1.377 . S
C1124 C1126 1.384 . S
C1125 C1124 1.377 . S
C1125 C1131 1.390 . S
C1126 H1117 0.930 . S
C1126 C1124 1.384 . S
C1126 C1127 1.372 . S
C1127 C1126 1.372 . S
C1127 C1128 1.400 . S
C1127 C1132 1.490 . S
C1128 H1118 0.930 . S
C1128 C1127 1.400 . S
C1128 C1131 1.386 . S
H1129 C1145 0.930 . S
H1130 C1146 0.931 . S
C1131 H1119 0.929 . S
C1131 C1125 1.390 . S
C1131 C1128 1.386 . S
C1132 C1127 1.490 . S
C1132 C1134 1.395 . S
C1132 C1135 1.403 . S
H1133 C1139 0.930 . S
C1134 H1120 0.930 . S
C1134 C1132 1.395 . S
C1134 C1137 1.403 . S
C1135 C1132 1.403 . S
C1135 C1136 1.524 . S
C1135 C1139 1.400 . S
C1136 H1121 0.960 . S
C1136 H1122 0.960 . S
C1136 H1123 0.960 . S
C1136 C1135 1.524 . S
C1137 C1134 1.403 . S
C1137 C1138 1.392 . S
C1137 C1141 1.495 . S
C1138 C1137 1.392 . S
C1138 C1139 1.385 . S
C1138 C1140 1.478 . S
C1139 H1133 0.930 . S
C1139 C1135 1.400 . S
C1139 C1138 1.385 . S
C1140 C1138 1.478 . S
C1140 C1142 1.381 . S
C1140 C1146 1.383 . S
C1141 C1137 1.495 . S
C1141 H1147 0.959 . S
C1141 H1148 0.961 . S
C1141 H1149 0.960 . S
C1142 C1140 1.381 . S
C1142 C1143 1.394 . S
C1142 H1150 0.930 . S
C1143 C1142 1.394 . S
C1143 C1144 1.383 . S
C1143 H1151 0.929 . S
C1144 C1143 1.383 . S
C1144 C1145 1.377 . S
C1145 H1129 0.930 . S
C1145 C1144 1.377 . S
C1145 C1146 1.379 . S
C1146 H1130 0.931 . S
C1146 C1140 1.383 . S
C1146 C1145 1.379 . S
H1147 C1141 0.959 . S
H1148 C1141 0.961 . S
H1149 C1141 0.960 . S
H1150 C1142 0.930 . S
H1151 C1143 0.929 . S
H1152 C1160 0.929 . S
H1153 C1162 0.930 . S
H1154 C1164 0.930 . S
H1155 C1167 0.929 . S
H1156 C1170 0.930 . S
H1157 C1172 0.960 . S
H1158 C1172 0.960 . S
H1159 C1172 0.960 . S
C1160 H1152 0.929 . S
C1160 C1161 1.377 . S
C1160 C1162 1.384 . S
C1161 C1160 1.377 . S
C1161 C1167 1.390 . S
C1162 H1153 0.930 . S
C1162 C1160 1.384 . S
C1162 C1163 1.372 . S
C1163 C1162 1.372 . S
C1163 C1164 1.400 . S
C1163 C1168 1.490 . S
C1164 H1154 0.930 . S
C1164 C1163 1.400 . S
C1164 C1167 1.386 . S
H1165 C1181 0.930 . S
H1166 C1182 0.931 . S
C1167 H1155 0.929 . S
C1167 C1161 1.390 . S
C1167 C1164 1.386 . S
C1168 C1163 1.490 . S
C1168 C1170 1.395 . S
C1168 C1171 1.403 . S
H1169 C1175 0.930 . S
C1170 H1156 0.930 . S
C1170 C1168 1.395 . S
C1170 C1173 1.403 . S
C1171 C1168 1.403 . S
C1171 C1172 1.524 . S
C1171 C1175 1.400 . S
C1172 H1157 0.960 . S
C1172 H1158 0.960 . S
C1172 H1159 0.960 . S
C1172 C1171 1.524 . S
C1173 C1170 1.403 . S
C1173 C1174 1.392 . S
C1173 C1177 1.495 . S
C1174 C1173 1.392 . S
C1174 C1175 1.385 . S
C1174 C1176 1.478 . S
C1175 H1169 0.930 . S
C1175 C1171 1.400 . S
C1175 C1174 1.385 . S
C1176 C1174 1.478 . S
C1176 C1178 1.381 . S
C1176 C1182 1.383 . S
C1177 C1173 1.495 . S
C1177 H1183 0.959 . S
C1177 H1184 0.961 . S
C1177 H1185 0.960 . S
C1178 C1176 1.381 . S
C1178 C1179 1.394 . S
C1178 H1186 0.930 . S
C1179 C1178 1.394 . S
C1179 C1180 1.383 . S
C1179 H1187 0.929 . S
C1180 C1179 1.383 . S
C1180 C1181 1.377 . S
C1181 H1165 0.930 . S
C1181 C1180 1.377 . S
C1181 C1182 1.379 . S
C1182 H1166 0.931 . S
C1182 C1176 1.383 . S
C1182 C1181 1.379 . S
H1183 C1177 0.959 . S
H1184 C1177 0.961 . S
H1185 C1177 0.960 . S
H1186 C1178 0.930 . S
H1187 C1179 0.929 . S
H1188 C1196 0.929 . S
H1189 C1198 0.930 . S
H1190 C1200 0.930 . S
H1191 C1203 0.929 . S
H1192 C1206 0.930 . S
H1193 C1208 0.960 . S
H1194 C1208 0.960 . S
H1195 C1208 0.960 . S
C1196 H1188 0.929 . S
C1196 C1197 1.377 . S
C1196 C1198 1.384 . S
C1197 C1196 1.377 . S
C1197 C1203 1.390 . S
C1198 H1189 0.930 . S
C1198 C1196 1.384 . S
C1198 C1199 1.372 . S
C1199 C1198 1.372 . S
C1199 C1200 1.400 . S
C1199 C1204 1.490 . S
C1200 H1190 0.930 . S
C1200 C1199 1.400 . S
C1200 C1203 1.386 . S
H1201 C1217 0.930 . S
H1202 C1218 0.931 . S
C1203 H1191 0.929 . S
C1203 C1197 1.390 . S
C1203 C1200 1.386 . S
C1204 C1199 1.490 . S
C1204 C1206 1.395 . S
C1204 C1207 1.403 . S
H1205 C1211 0.930 . S
C1206 H1192 0.930 . S
C1206 C1204 1.395 . S
C1206 C1209 1.403 . S
C1207 C1204 1.403 . S
C1207 C1208 1.524 . S
C1207 C1211 1.400 . S
C1208 H1193 0.960 . S
C1208 H1194 0.960 . S
C1208 H1195 0.960 . S
C1208 C1207 1.524 . S
C1209 C1206 1.403 . S
C1209 C1210 1.392 . S
C1209 C1213 1.495 . S
C1210 C1209 1.392 . S
C1210 C1211 1.385 . S
C1210 C1212 1.478 . S
C1211 H1205 0.930 . S
C1211 C1207 1.400 . S
C1211 C1210 1.385 . S
C1212 C1210 1.478 . S
C1212 C1214 1.381 . S
C1212 C1218 1.383 . S
C1213 C1209 1.495 . S
C1213 H1219 0.959 . S
C1213 H1220 0.961 . S
C1213 H1221 0.960 . S
C1214 C1212 1.381 . S
C1214 C1215 1.394 . S
C1214 H1222 0.930 . S
C1215 C1214 1.394 . S
C1215 C1216 1.383 . S
C1215 H1223 0.929 . S
C1216 C1215 1.383 . S
C1216 C1217 1.377 . S
C1217 H1201 0.930 . S
C1217 C1216 1.377 . S
C1217 C1218 1.379 . S
C1218 H1202 0.931 . S
C1218 C1212 1.383 . S
C1218 C1217 1.379 . S
H1219 C1213 0.959 . S
H1220 C1213 0.961 . S
H1221 C1213 0.960 . S
H1222 C1214 0.930 . S
H1223 C1215 0.929 . S
H1224 C1232 0.929 . S
H1225 C1234 0.930 . S
H1226 C1236 0.930 . S
H1227 C1239 0.929 . S
H1228 C1242 0.930 . S
H1229 C1244 0.960 . S
H1230 C1244 0.960 . S
H1231 C1244 0.960 . S
C1232 H1224 0.929 . S
C1232 C1233 1.377 . S
C1232 C1234 1.384 . S
C1233 C1232 1.377 . S
C1233 C1239 1.390 . S
C1234 H1225 0.930 . S
C1234 C1232 1.384 . S
C1234 C1235 1.372 . S
C1235 C1234 1.372 . S
C1235 C1236 1.400 . S
C1235 C1240 1.490 . S
C1236 H1226 0.930 . S
C1236 C1235 1.400 . S
C1236 C1239 1.386 . S
H1237 C1253 0.930 . S
H1238 C1254 0.931 . S
C1239 H1227 0.929 . S
C1239 C1233 1.390 . S
C1239 C1236 1.386 . S
C1240 C1235 1.490 . S
C1240 C1242 1.395 . S
C1240 C1243 1.403 . S
H1241 C1247 0.930 . S
C1242 H1228 0.930 . S
C1242 C1240 1.395 . S
C1242 C1245 1.403 1_554 S
C1243 C1240 1.403 . S
C1243 C1244 1.524 . S
C1243 C1247 1.400 1_554 S
C1244 H1229 0.960 . S
C1244 H1230 0.960 . S
C1244 H1231 0.960 . S
C1244 C1243 1.524 . S
C1245 C1242 1.403 1_556 S
C1245 C1246 1.392 . S
C1245 C1249 1.495 . S
C1246 C1245 1.392 . S
C1246 C1247 1.385 . S
C1246 C1248 1.478 . S
C1247 H1241 0.930 . S
C1247 C1243 1.400 1_556 S
C1247 C1246 1.385 . S
C1248 C1246 1.478 . S
C1248 C1250 1.381 . S
C1248 C1254 1.383 . S
C1249 C1245 1.495 . S
C1249 H1255 0.959 . S
C1249 H1256 0.961 . S
C1249 H1257 0.960 . S
C1250 C1248 1.381 . S
C1250 C1251 1.394 . S
C1250 H1258 0.930 . S
C1251 C1250 1.394 . S
C1251 C1252 1.383 . S
C1251 H1259 0.929 . S
C1252 C1251 1.383 . S
C1252 C1253 1.377 . S
C1253 H1237 0.930 . S
C1253 C1252 1.377 . S
C1253 C1254 1.379 . S
C1254 H1238 0.931 . S
C1254 C1248 1.383 . S
C1254 C1253 1.379 . S
H1255 C1249 0.959 . S
H1256 C1249 0.961 . S
H1257 C1249 0.960 . S
H1258 C1250 0.930 . S
H1259 C1251 0.929 . S
H1260 C1268 0.929 . S
H1261 C1270 0.930 . S
H1262 C1272 0.930 . S
H1263 C1275 0.929 . S
H1264 C1278 0.930 . S
H1265 C1280 0.960 . S
H1266 C1280 0.960 . S
H1267 C1280 0.960 . S
C1268 H1260 0.929 . S
C1268 C1269 1.377 1_565 S
C1268 C1270 1.384 . S
C1269 C1268 1.377 1_545 S
C1269 C1275 1.390 . S
C1270 H1261 0.930 . S
C1270 C1268 1.384 . S
C1270 C1271 1.398 . S
C1271 C1270 1.398 . S
C1271 C1272 1.373 1_565 S
C1271 C1276 1.491 . S
C1272 H1262 0.930 . S
C1272 C1271 1.373 1_545 S
C1272 C1275 1.386 . S
H1273 C1289 0.930 . S
H1274 C1290 0.931 . S
C1275 H1263 0.929 . S
C1275 C1269 1.390 . S
C1275 C1272 1.386 . S
C1276 C1271 1.491 . S
C1276 C1278 1.395 1_565 S
C1276 C1279 1.403 . S
H1277 C1283 0.930 . S
C1278 H1264 0.930 . S
C1278 C1276 1.395 1_545 S
C1278 C1281 1.403 1_556 S
C1279 C1276 1.403 . S
C1279 C1280 1.524 . S
C1279 C1283 1.400 1_556 S
C1280 H1265 0.960 . S
C1280 H1266 0.960 . S
C1280 H1267 0.960 . S
C1280 C1279 1.524 . S
C1281 C1278 1.403 1_554 S
C1281 C1282 1.395 . S
C1281 C1285 1.495 . S
C1282 C1281 1.395 . S
C1282 C1283 1.383 1_545 S
C1282 C1284 1.478 1_545 S
C1283 H1277 0.930 . S
C1283 C1279 1.400 1_554 S
C1283 C1282 1.383 1_565 S
C1284 C1282 1.478 1_565 S
C1284 C1286 1.383 . S
C1284 C1290 1.381 1_565 S
C1285 C1281 1.495 . S
C1285 H1291 0.959 . S
C1285 H1292 0.961 . S
C1285 H1293 0.960 . S
C1286 C1284 1.383 . S
C1286 C1287 1.394 . S
C1286 H1294 0.930 . S
C1287 C1286 1.394 . S
C1287 C1288 1.383 . S
C1287 H1295 0.929 . S
C1288 C1287 1.383 . S
C1288 C1289 1.377 1_565 S
C1289 H1273 0.930 . S
C1289 C1288 1.377 1_545 S
C1289 C1290 1.379 . S
C1290 H1274 0.931 . S
C1290 C1284 1.381 1_545 S
C1290 C1289 1.379 . S
H1291 C1285 0.959 . S
H1292 C1285 0.961 . S
H1293 C1285 0.960 . S
H1294 C1286 0.930 . S
H1295 C1287 0.929 . S
H1296 C1304 0.929 . S
H1297 C1306 0.930 . S
H1298 C1308 0.930 . S
H1299 C1311 0.929 . S
H1300 C1314 0.930 . S
H1301 C1316 0.960 . S
H1302 C1316 0.960 . S
H1303 C1316 0.960 . S
C1304 H1296 0.929 . S
C1304 C1305 1.377 1_455 S
C1304 C1306 1.384 . S
C1305 C1304 1.377 1_655 S
C1305 C1311 1.390 . S
C1306 H1297 0.930 . S
C1306 C1304 1.384 . S
C1306 C1307 1.372 1_455 S
C1307 C1306 1.372 1_655 S
C1307 C1308 1.400 . S
C1307 C1312 1.490 . S
C1308 H1298 0.930 . S
C1308 C1307 1.400 . S
C1308 C1311 1.386 . S
H1309 C1325 0.930 . S
H1310 C1326 0.931 . S
C1311 H1299 0.929 . S
C1311 C1305 1.390 . S
C1311 C1308 1.386 . S
C1312 C1307 1.490 . S
C1312 C1314 1.395 . S
C1312 C1315 1.403 1_655 S
H1313 C1319 0.930 . S
C1314 H1300 0.930 . S
C1314 C1312 1.395 . S
C1314 C1317 1.403 1_556 S
C1315 C1312 1.403 1_455 S
C1315 C1316 1.524 . S
C1315 C1319 1.400 1_556 S
C1316 H1301 0.960 . S
C1316 H1302 0.960 . S
C1316 H1303 0.960 . S
C1316 C1315 1.524 . S
C1317 C1314 1.403 1_554 S
C1317 C1318 1.392 . S
C1317 C1321 1.495 . S
C1318 C1317 1.392 . S
C1318 C1319 1.385 1_655 S
C1318 C1320 1.478 . S
C1319 H1313 0.930 . S
C1319 C1315 1.400 1_554 S
C1319 C1318 1.385 1_455 S
C1320 C1318 1.478 . S
C1320 C1322 1.381 1_655 S
C1320 C1326 1.383 . S
C1321 C1317 1.495 . S
C1321 H1327 0.959 . S
C1321 H1328 0.961 . S
C1321 H1329 0.960 . S
C1322 C1320 1.381 1_455 S
C1322 C1323 1.394 . S
C1322 H1330 0.930 . S
C1323 C1322 1.394 . S
C1323 C1324 1.383 1_455 S
C1323 H1331 0.929 . S
C1324 C1323 1.383 1_655 S
C1324 C1325 1.377 . S
C1325 H1309 0.930 . S
C1325 C1324 1.377 . S
C1325 C1326 1.379 . S
C1326 H1310 0.931 . S
C1326 C1320 1.383 . S
C1326 C1325 1.379 . S
H1327 C1321 0.959 . S
H1328 C1321 0.961 . S
H1329 C1321 0.960 . S
H1330 C1322 0.930 . S
H1331 C1323 0.929 . S
H1332 C1340 0.929 . S
H1333 C1342 0.930 . S
H1334 C1344 0.930 . S
H1335 C1347 0.929 . S
H1336 C1350 0.930 . S
H1337 C1352 0.960 . S
H1338 C1352 0.960 . S
H1339 C1352 0.960 . S
C1340 H1332 0.929 . S
C1340 C1341 1.377 . S
C1340 C1342 1.384 . S
C1341 C1340 1.377 . S
C1341 C1347 1.390 . S
C1342 H1333 0.930 . S
C1342 C1340 1.384 . S
C1342 C1343 1.372 . S
C1343 C1342 1.372 . S
C1343 C1344 1.400 . S
C1343 C1348 1.490 . S
C1344 H1334 0.930 . S
C1344 C1343 1.400 . S
C1344 C1347 1.386 . S
H1345 C1361 0.930 . S
H1346 C1362 0.931 . S
C1347 H1335 0.929 . S
C1347 C1341 1.390 . S
C1347 C1344 1.386 . S
C1348 C1343 1.490 . S
C1348 C1350 1.395 . S
C1348 C1351 1.403 . S
H1349 C1355 0.930 . S
C1350 H1336 0.930 . S
C1350 C1348 1.395 . S
C1350 C1353 1.403 . S
C1351 C1348 1.403 . S
C1351 C1352 1.524 . S
C1351 C1355 1.400 . S
C1352 H1337 0.960 . S
C1352 H1338 0.960 . S
C1352 H1339 0.960 . S
C1352 C1351 1.524 . S
C1353 C1350 1.403 . S
C1353 C1354 1.392 . S
C1353 C1357 1.495 . S
C1354 C1353 1.392 . S
C1354 C1355 1.385 . S
C1354 C1356 1.478 . S
C1355 H1349 0.930 . S
C1355 C1351 1.400 . S
C1355 C1354 1.385 . S
C1356 C1354 1.478 . S
C1356 C1358 1.381 . S
C1356 C1362 1.383 . S
C1357 C1353 1.495 . S
C1357 H1363 0.959 . S
C1357 H1364 0.961 . S
C1357 H1365 0.960 . S
C1358 C1356 1.381 . S
C1358 C1359 1.394 . S
C1358 H1366 0.930 . S
C1359 C1358 1.394 . S
C1359 C1360 1.383 . S
C1359 H1367 0.929 . S
C1360 C1359 1.383 . S
C1360 C1361 1.377 . S
C1361 H1345 0.930 . S
C1361 C1360 1.377 . S
C1361 C1362 1.379 . S
C1362 H1346 0.931 . S
C1362 C1356 1.383 . S
C1362 C1361 1.379 . S
H1363 C1357 0.959 . S
H1364 C1357 0.961 . S
H1365 C1357 0.960 . S
H1366 C1358 0.930 . S
H1367 C1359 0.929 . S
H1368 C1376 0.929 . S
H1369 C1378 0.930 . S
H1370 C1380 0.930 . S
H1371 C1383 0.929 . S
H1372 C1386 0.930 . S
H1373 C1388 0.960 . S
H1374 C1388 0.960 . S
H1375 C1388 0.960 . S
C1376 H1368 0.929 . S
C1376 C1377 1.377 . S
C1376 C1378 1.384 . S
C1377 C1376 1.377 . S
C1377 C1383 1.390 . S
C1378 H1369 0.930 . S
C1378 C1376 1.384 . S
C1378 C1379 1.372 . S
C1379 C1378 1.372 . S
C1379 C1380 1.400 . S
C1379 C1384 1.490 . S
C1380 H1370 0.930 . S
C1380 C1379 1.400 . S
C1380 C1383 1.386 . S
H1381 C1397 0.930 . S
H1382 C1398 0.931 . S
C1383 H1371 0.929 . S
C1383 C1377 1.390 . S
C1383 C1380 1.386 . S
C1384 C1379 1.490 . S
C1384 C1386 1.395 . S
C1384 C1387 1.403 . S
H1385 C1391 0.930 . S
C1386 H1372 0.930 . S
C1386 C1384 1.395 . S
C1386 C1389 1.403 . S
C1387 C1384 1.403 . S
C1387 C1388 1.524 . S
C1387 C1391 1.400 . S
C1388 H1373 0.960 . S
C1388 H1374 0.960 . S
C1388 H1375 0.960 . S
C1388 C1387 1.524 . S
C1389 C1386 1.403 . S
C1389 C1390 1.392 . S
C1389 C1393 1.495 . S
C1390 C1389 1.392 . S
C1390 C1391 1.385 . S
C1390 C1392 1.478 . S
C1391 H1385 0.930 . S
C1391 C1387 1.400 . S
C1391 C1390 1.385 . S
C1392 C1390 1.478 . S
C1392 C1394 1.381 . S
C1392 C1398 1.383 . S
C1393 C1389 1.495 . S
C1393 H1399 0.959 . S
C1393 H1400 0.961 . S
C1393 H1401 0.960 . S
C1394 C1392 1.381 . S
C1394 C1395 1.394 . S
C1394 H1402 0.930 . S
C1395 C1394 1.394 . S
C1395 C1396 1.383 . S
C1395 H1403 0.929 . S
C1396 C1395 1.383 . S
C1396 C1397 1.377 . S
C1397 H1381 0.930 . S
C1397 C1396 1.377 . S
C1397 C1398 1.379 . S
C1398 H1382 0.931 . S
C1398 C1392 1.383 . S
C1398 C1397 1.379 . S
H1399 C1393 0.959 . S
H1400 C1393 0.961 . S
H1401 C1393 0.960 . S
H1402 C1394 0.930 . S
H1403 C1395 0.929 . S
H1404 C1412 0.929 . S
H1405 C1414 0.930 . S
H1406 C1416 0.930 . S
H1407 C1419 0.929 . S
H1408 C1422 0.930 . S
H1409 C1424 0.960 . S
H1410 C1424 0.960 . S
H1411 C1424 0.960 . S
C1412 H1404 0.929 . S
C1412 C1413 1.377 . S
C1412 C1414 1.384 . S
C1413 C1412 1.377 . S
C1413 C1419 1.390 . S
C1414 H1405 0.930 . S
C1414 C1412 1.384 . S
C1414 C1415 1.372 . S
C1415 C1414 1.372 . S
C1415 C1416 1.400 . S
C1415 C1420 1.490 . S
C1416 H1406 0.930 . S
C1416 C1415 1.400 . S
C1416 C1419 1.386 . S
H1417 C1433 0.930 . S
H1418 C1434 0.931 . S
C1419 H1407 0.929 . S
C1419 C1413 1.390 . S
C1419 C1416 1.386 . S
C1420 C1415 1.490 . S
C1420 C1422 1.395 . S
C1420 C1423 1.403 . S
H1421 C1427 0.930 . S
C1422 H1408 0.930 . S
C1422 C1420 1.395 . S
C1422 C1425 1.403 . S
C1423 C1420 1.403 . S
C1423 C1424 1.524 . S
C1423 C1427 1.400 . S
C1424 H1409 0.960 . S
C1424 H1410 0.960 . S
C1424 H1411 0.960 . S
C1424 C1423 1.524 . S
C1425 C1422 1.403 . S
C1425 C1426 1.392 . S
C1425 C1429 1.495 . S
C1426 C1425 1.392 . S
C1426 C1427 1.385 . S
C1426 C1428 1.478 . S
C1427 H1421 0.930 . S
C1427 C1423 1.400 . S
C1427 C1426 1.385 . S
C1428 C1426 1.478 . S
C1428 C1430 1.381 . S
C1428 C1434 1.383 . S
C1429 C1425 1.495 . S
C1429 H1435 0.959 . S
C1429 H1436 0.961 . S
C1429 H1437 0.960 . S
C1430 C1428 1.381 . S
C1430 C1431 1.394 . S
C1430 H1438 0.930 . S
C1431 C1430 1.394 . S
C1431 C1432 1.383 . S
C1431 H1439 0.929 . S
C1432 C1431 1.383 . S
C1432 C1433 1.377 . S
C1433 H1417 0.930 . S
C1433 C1432 1.377 . S
C1433 C1434 1.379 . S
C1434 H1418 0.931 . S
C1434 C1428 1.383 . S
C1434 C1433 1.379 . S
H1435 C1429 0.959 . S
H1436 C1429 0.961 . S
H1437 C1429 0.960 . S
H1438 C1430 0.930 . S
H1439 C1431 0.929 . S
H1440 C1448 0.929 . S
H1441 C1450 0.930 . S
H1442 C1452 0.930 . S
H1443 C1455 0.929 . S
H1444 C1458 0.930 . S
H1445 C1460 0.960 . S
H1446 C1460 0.960 . S
H1447 C1460 0.960 . S
C1448 H1440 0.929 . S
C1448 C1449 1.377 . S
C1448 C1450 1.384 . S
C1449 C1448 1.377 . S
C1449 C1455 1.390 . S
C1450 H1441 0.930 . S
C1450 C1448 1.384 . S
C1450 C1451 1.372 . S
C1451 C1450 1.372 . S
C1451 C1452 1.400 . S
C1451 C1456 1.490 . S
C1452 H1442 0.930 . S
C1452 C1451 1.400 . S
C1452 C1455 1.386 . S
H1453 C1469 0.930 . S
H1454 C1470 0.931 . S
C1455 H1443 0.929 . S
C1455 C1449 1.390 . S
C1455 C1452 1.386 . S
C1456 C1451 1.490 . S
C1456 C1458 1.395 . S
C1456 C1459 1.403 . S
H1457 C1463 0.930 . S
C1458 H1444 0.930 . S
C1458 C1456 1.395 . S
C1458 C1461 1.403 . S
C1459 C1456 1.403 . S
C1459 C1460 1.524 . S
C1459 C1463 1.400 . S
C1460 H1445 0.960 . S
C1460 H1446 0.960 . S
C1460 H1447 0.960 . S
C1460 C1459 1.524 . S
C1461 C1458 1.403 . S
C1461 C1462 1.392 . S
C1461 C1465 1.495 . S
C1462 C1461 1.392 . S
C1462 C1463 1.385 . S
C1462 C1464 1.478 . S
C1463 H1457 0.930 . S
C1463 C1459 1.400 . S
C1463 C1462 1.385 . S
C1464 C1462 1.478 . S
C1464 C1466 1.381 . S
C1464 C1470 1.383 . S
C1465 C1461 1.495 . S
C1465 H1471 0.959 . S
C1465 H1472 0.961 . S
C1465 H1473 0.960 . S
C1466 C1464 1.381 . S
C1466 C1467 1.394 . S
C1466 H1474 0.930 . S
C1467 C1466 1.394 . S
C1467 C1468 1.383 . S
C1467 H1475 0.929 . S
C1468 C1467 1.383 . S
C1468 C1469 1.377 . S
C1469 H1453 0.930 . S
C1469 C1468 1.377 . S
C1469 C1470 1.379 . S
C1470 H1454 0.931 . S
C1470 C1464 1.383 . S
C1470 C1469 1.379 . S
H1471 C1465 0.959 . S
H1472 C1465 0.961 . S
H1473 C1465 0.960 . S
H1474 C1466 0.930 . S
H1475 C1467 0.929 . S
H1476 C1484 0.929 . S
H1477 C1486 0.930 . S
H1478 C1488 0.930 . S
H1479 C1491 0.929 . S
H1480 C1494 0.930 . S
H1481 C1496 0.960 . S
H1482 C1496 0.960 . S
H1483 C1496 0.960 . S
C1484 H1476 0.929 . S
C1484 C1485 1.377 . S
C1484 C1486 1.384 . S
C1485 C1484 1.377 . S
C1485 C1491 1.390 . S
C1486 H1477 0.930 . S
C1486 C1484 1.384 . S
C1486 C1487 1.372 . S
C1487 C1486 1.372 . S
C1487 C1488 1.400 . S
C1487 C1492 1.490 . S
C1488 H1478 0.930 . S
C1488 C1487 1.400 . S
C1488 C1491 1.386 . S
H1489 C1505 0.930 . S
H1490 C1506 0.931 . S
C1491 H1479 0.929 . S
C1491 C1485 1.390 . S
C1491 C1488 1.386 . S
C1492 C1487 1.490 . S
C1492 C1494 1.395 . S
C1492 C1495 1.403 . S
H1493 C1499 0.930 . S
C1494 H1480 0.930 . S
C1494 C1492 1.395 . S
C1494 C1497 1.403 . S
C1495 C1492 1.403 . S
C1495 C1496 1.524 . S
C1495 C1499 1.400 . S
C1496 H1481 0.960 . S
C1496 H1482 0.960 . S
C1496 H1483 0.960 . S
C1496 C1495 1.524 . S
C1497 C1494 1.403 . S
C1497 C1498 1.392 . S
C1497 C1501 1.495 . S
C1498 C1497 1.392 . S
C1498 C1499 1.385 . S
C1498 C1500 1.478 . S
C1499 H1493 0.930 . S
C1499 C1495 1.400 . S
C1499 C1498 1.385 . S
C1500 C1498 1.478 . S
C1500 C1502 1.381 . S
C1500 C1506 1.383 . S
C1501 C1497 1.495 . S
C1501 H1507 0.959 . S
C1501 H1508 0.961 . S
C1501 H1509 0.960 . S
C1502 C1500 1.381 . S
C1502 C1503 1.394 . S
C1502 H1510 0.930 . S
C1503 C1502 1.394 . S
C1503 C1504 1.383 . S
C1503 H1511 0.929 . S
C1504 C1503 1.383 . S
C1504 C1505 1.377 . S
C1505 H1489 0.930 . S
C1505 C1504 1.377 . S
C1505 C1506 1.379 . S
C1506 H1490 0.931 . S
C1506 C1500 1.383 . S
C1506 C1505 1.379 . S
H1507 C1501 0.959 . S
H1508 C1501 0.961 . S
H1509 C1501 0.960 . S
H1510 C1502 0.930 . S
H1511 C1503 0.929 . S
H1512 C1520 0.929 . S
H1513 C1522 0.930 . S
H1514 C1524 0.930 . S
H1515 C1527 0.929 . S
H1516 C1530 0.930 . S
H1517 C1532 0.960 . S
H1518 C1532 0.960 . S
H1519 C1532 0.960 . S
C1520 H1512 0.929 . S
C1520 C1521 1.377 . S
C1520 C1522 1.384 . S
C1521 C1520 1.377 . S
C1521 C1527 1.390 . S
C1522 H1513 0.930 . S
C1522 C1520 1.384 . S
C1522 C1523 1.372 . S
C1523 C1522 1.372 . S
C1523 C1524 1.400 . S
C1523 C1528 1.490 . S
C1524 H1514 0.930 . S
C1524 C1523 1.400 . S
C1524 C1527 1.386 . S
H1525 C1541 0.930 . S
H1526 C1542 0.931 . S
C1527 H1515 0.929 . S
C1527 C1521 1.390 . S
C1527 C1524 1.386 . S
C1528 C1523 1.490 . S
C1528 C1530 1.395 . S
C1528 C1531 1.403 . S
H1529 C1535 0.930 . S
C1530 H1516 0.930 . S
C1530 C1528 1.395 . S
C1530 C1533 1.403 . S
C1531 C1528 1.403 . S
C1531 C1532 1.524 . S
C1531 C1535 1.400 . S
C1532 H1517 0.960 . S
C1532 H1518 0.960 . S
C1532 H1519 0.960 . S
C1532 C1531 1.524 . S
C1533 C1530 1.403 . S
C1533 C1534 1.392 . S
C1533 C1537 1.495 . S
C1534 C1533 1.392 . S
C1534 C1535 1.385 . S
C1534 C1536 1.478 . S
C1535 H1529 0.930 . S
C1535 C1531 1.400 . S
C1535 C1534 1.385 . S
C1536 C1534 1.478 . S
C1536 C1538 1.381 . S
C1536 C1542 1.383 . S
C1537 C1533 1.495 . S
C1537 H1543 0.959 . S
C1537 H1544 0.961 . S
C1537 H1545 0.960 . S
C1538 C1536 1.381 . S
C1538 C1539 1.394 . S
C1538 H1546 0.930 . S
C1539 C1538 1.394 . S
C1539 C1540 1.383 . S
C1539 H1547 0.929 . S
C1540 C1539 1.383 . S
C1540 C1541 1.377 . S
C1541 H1525 0.930 . S
C1541 C1540 1.377 . S
C1541 C1542 1.379 . S
C1542 H1526 0.931 . S
C1542 C1536 1.383 . S
C1542 C1541 1.379 . S
H1543 C1537 0.959 . S
H1544 C1537 0.961 . S
H1545 C1537 0.960 . S
H1546 C1538 0.930 . S
H1547 C1539 0.929 . S
C261 C151 0.877 . S
C280 C11 0.909 . S
C297 C25 0.886 . S
C316 C165 0.845 . S
C333 C137 0.886 . S
C352 C39 0.876 . S
C369 C207 0.874 . S
C388 C53 0.911 . S
C405 C67 0.879 . S
C424 C179 0.867 . S
C441 C193 0.883 . S
C460 C81 0.850 . S
C477 C95 0.884 . S
C496 C235 0.887 . S
C513 C249 0.879 . S
C532 C109 0.864 . S
C549 C123 0.878 . S
C568 C221 0.871 . S
C585 C8 0.759 . S
C604 C21 0.777 . S
C621 C22 0.750 . S
C640 C35 0.791 . S
C657 C7 0.744 . S
C676 C36 0.807 . S
C693 C77 0.758 . S
C712 C50 0.781 . S
C729 C49 0.744 . S
C748 C64 0.808 . S
C765 C78 0.743 . S
C784 C63 0.733 . S
C801 C92 0.736 . S
C820 C105 0.764 . S
C837 C106 0.766 . S
C856 C119 0.756 . S
C873 C91 0.759 . S
C892 C120 0.677 . S
C909 C161 0.760 . S
C928 C134 0.754 . S
C945 C133 0.745 . S
C964 C148 0.819 . S
C981 C147 0.761 . S
C1000 C162 0.710 . S
C1017 C189 0.754 . S
C1036 C176 0.676 . S
C1053 C203 0.749 . S
C1072 C190 0.703 . S
C1089 C175 0.752 . S
C1108 C204 0.686 . S
C1125 C218 0.738 . S
C1144 C245 0.750 . S
C1161 C232 0.737 . S
C1180 C217 0.787 . S
C1197 C246 0.761 . S
C1216 C231 0.773 . S
C1233 C13 1.303 . S
C1252 C55 1.325 . S
C1269 C69 1.317 . S
C1288 C27 1.276 . S
C1305 C83 1.309 . S
C1324 C41 1.278 1_655 S
C1341 C139 1.304 . S
C1360 C97 1.316 . S
C1377 C153 1.324 . S
C1396 C111 1.317 . S
C1413 C125 1.323 . S
C1432 C167 1.322 . S
C1449 C223 1.316 . S
C1468 C181 1.262 . S
C1485 C237 1.324 . S
C1504 C195 1.305 . S
C1521 C251 1.323 . S
C1540 C209 1.323 . S
