# Generated by pormake.
# Topology cab, (5)-cn, num edge types: 1
# Building blocks:
#     Node 0, Type 0, BuildingBlock: XOMCOT_clean_sbu_0, # of connection points: 5
#     Node 1, Type 0, BuildingBlock: XOMCOT_clean_sbu_0, # of connection points: 5
#     Node 2, Type 0, BuildingBlock: XOMCOT_clean_sbu_0, # of connection points: 5
#     Node 3, Type 0, BuildingBlock: XOMCOT_clean_sbu_0, # of connection points: 5
#     Node 4, Type 0, BuildingBlock: XOMCOT_clean_sbu_0, # of connection points: 5
#     Node 5, Type 0, BuildingBlock: XOMCOT_clean_sbu_0, # of connection points: 5
#     Edge 6, Type (0, 0), BuildingBlock: MIFKUJ_clean_linker_0, # of connection points: 2
#     Edge 7, Type (0, 0), BuildingBlock: MIFKUJ_clean_linker_0, # of connection points: 2
#     Edge 8, Type (0, 0), BuildingBlock: MIFKUJ_clean_linker_0, # of connection points: 2
#     Edge 9, Type (0, 0), BuildingBlock: MIFKUJ_clean_linker_0, # of connection points: 2
#     Edge 10, Type (0, 0), BuildingBlock: MIFKUJ_clean_linker_0, # of connection points: 2
#     Edge 11, Type (0, 0), BuildingBlock: MIFKUJ_clean_linker_0, # of connection points: 2
#     Edge 12, Type (0, 0), BuildingBlock: MIFKUJ_clean_linker_0, # of connection points: 2
#     Edge 13, Type (0, 0), BuildingBlock: MIFKUJ_clean_linker_0, # of connection points: 2
#     Edge 14, Type (0, 0), BuildingBlock: MIFKUJ_clean_linker_0, # of connection points: 2
#     Edge 15, Type (0, 0), BuildingBlock: MIFKUJ_clean_linker_0, # of connection points: 2
#     Edge 16, Type (0, 0), BuildingBlock: MIFKUJ_clean_linker_0, # of connection points: 2
#     Edge 17, Type (0, 0), BuildingBlock: MIFKUJ_clean_linker_0, # of connection points: 2
#     Edge 18, Type (0, 0), BuildingBlock: MIFKUJ_clean_linker_0, # of connection points: 2
#     Edge 19, Type (0, 0), BuildingBlock: MIFKUJ_clean_linker_0, # of connection points: 2
#     Edge 20, Type (0, 0), BuildingBlock: MIFKUJ_clean_linker_0, # of connection points: 2
# Relax obj value: 0.827
# Max RMSD: 0.221
# Mean RMSD: 0.218
data_MOF--net-cab--node1-XOMCOT_clean_sbu_0--edge1-MIFKUJ_clean_linker_0
_symmetry_space_group_name_H-M    P1
_symmetry_Int_Tables_number       1
_symmetry_cell_setting            triclinic
loop_
_symmetry_equiv_pos_as_xyz
'x, y, z'
_cell_length_a     45.413343
_cell_length_b     45.476018
_cell_length_c     45.385009
_cell_angle_alpha  79.386431
_cell_angle_beta   78.319905
_cell_angle_gamma 79.849342
loop_
_atom_site_label
_atom_site_type_symbol
_atom_site_fract_x
_atom_site_fract_y
_atom_site_fract_z
_atom_type_partial_charge
Co0 Co 0.03605 0.96843 0.35477 0.0
C1 C 0.03753 0.90526 0.38528 0.0
C2 C 0.99571 0.92183 0.36876 0.0
C3 C 0.99484 0.89245 0.3829 0.0
N4 N 0.02254 0.92974 0.37018 0.0
N5 N 0.02122 0.88196 0.3932 0.0
H6 H 0.06053 0.90408 0.38903 0.0
H7 H 0.97819 0.93606 0.35765 0.0
C8 C 0.97966 0.01293 0.36167 0.0
O9 O 0.99442 0.02939 0.37294 0.0
N10 N 0.04917 0.00763 0.33821 0.0
C11 C 0.07215 0.02019 0.34326 0.0
C12 C 0.07416 0.04714 0.32375 0.0
C13 C 0.03844 0.02665 0.31493 0.0
N14 N 0.05288 0.05118 0.30596 0.0
C15 C 0.0585 0.97556 0.40732 0.0
C16 C 0.00269 0.98189 0.44535 0.0
C17 C 0.02827 0.98755 0.45501 0.0
C18 C 0.0567 0.98272 0.43623 0.0
C19 C 0.00566 0.97451 0.4163 0.0
N20 N 0.03283 0.9744 0.39666 0.0
H21 H 0.08057 0.97114 0.39347 0.0
H22 H 0.98582 0.96978 0.40937 0.0
H23 H 0.08748 0.01036 0.35883 0.0
H24 H 0.0203 0.02243 0.30477 0.0
O25 O 0.07778 0.94939 0.34752 0.0
O26 O 0.04684 0.95855 0.31386 0.0
O27 O 0.99276 0.98764 0.35368 0.0
C28 C 0.07402 0.94883 0.31999 0.0
H29 H 0.97662 0.87949 0.38441 0.0
H30 H 0.09076 0.06202 0.32214 0.0
H31 H 0.9804 0.98433 0.45949 0.0
H32 H 0.07733 0.98498 0.44359 0.0
Co33 Co 0.13438 0.13338 0.76408 0.0
C34 C 0.07864 0.14949 0.80973 0.0
C35 C 0.08174 0.10551 0.79755 0.0
C36 C 0.05488 0.11109 0.81717 0.0
N37 N 0.09677 0.12949 0.79282 0.0
N38 N 0.05289 0.13875 0.82474 0.0
H39 H 0.08338 0.17183 0.81027 0.0
H40 H 0.08921 0.08574 0.78646 0.0
C41 C 0.1625 0.07701 0.79692 0.0
O42 O 0.17441 0.09437 0.81001 0.0
N43 N 0.17158 0.13689 0.73509 0.0
C44 C 0.17509 0.1564 0.70879 0.0
C45 C 0.20566 0.15469 0.69666 0.0
C46 C 0.19976 0.12337 0.7384 0.0
N47 N 0.22094 0.13366 0.71527 0.0
C48 C 0.08816 0.14233 0.72803 0.0
C49 C 0.11365 0.09596 0.69481 0.0
C50 C 0.08507 0.11193 0.69087 0.0
C51 C 0.07228 0.13546 0.70751 0.0
C52 C 0.12842 0.10307 0.71607 0.0
N53 N 0.11536 0.12565 0.73261 0.0
H54 H 0.07827 0.16043 0.74103 0.0
H55 H 0.15021 0.09027 0.71952 0.0
H56 H 0.15684 0.17183 0.69986 0.0
H57 H 0.20513 0.10798 0.75832 0.0
O58 O 0.12555 0.1772 0.75865 0.0
O59 O 0.15069 0.14855 0.79326 0.0
O60 O 0.14697 0.0887 0.77606 0.0
C61 C 0.14016 0.17537 0.78096 0.0
H62 H 0.03798 0.096 0.82507 0.0
H63 H 0.21596 0.16868 0.6766 0.0
H64 H 0.12408 0.07768 0.68212 0.0
H65 H 0.05031 0.14833 0.70467 0.0
Co66 Co 0.37829 0.04237 0.01742 0.0
C67 C 0.38131 0.05819 0.95105 0.0
C68 C 0.42542 0.03829 0.96026 0.0
C69 C 0.4271 0.04532 0.92916 0.0
N70 N 0.39662 0.04674 0.97419 0.0
N71 N 0.39926 0.05773 0.92353 0.0
H72 H 0.35733 0.06671 0.95408 0.0
H73 H 0.44399 0.0266 0.97133 0.0
C74 C 0.38358 0.98008 0.00231 0.0
O75 O 0.41299 0.97926 0.99319 0.0
N76 N 0.35953 0.03828 0.05996 0.0
C77 C 0.36419 0.05384 0.0808 0.0
C78 C 0.3448 0.04657 0.10773 0.0
C79 C 0.33769 0.02147 0.07452 0.0
N80 N 0.32843 0.02611 0.1037 0.0
C81 C 0.43912 0.04267 0.0235 0.0
C82 C 0.4454 0.98857 0.06287 0.0
C83 C 0.46901 0.00613 0.05538 0.0
C84 C 0.46579 0.0333 0.03523 0.0
C85 C 0.41927 0.99843 0.04986 0.0
N86 N 0.41668 0.02493 0.03 0.0
H87 H 0.43632 0.06439 0.00915 0.0
H88 H 0.40059 0.98544 0.05676 0.0
H89 H 0.38016 0.06982 0.07656 0.0
H90 H 0.32802 0.00696 0.06381 0.0
O91 O 0.38023 0.08442 0.01787 0.0
O92 O 0.34141 0.0669 0.00761 0.0
O93 O 0.36746 0.00235 0.01408 0.0
C94 C 0.35311 0.08992 0.01106 0.0
H95 H 0.44697 0.04066 0.91206 0.0
H96 H 0.34274 0.05565 0.12861 0.0
H97 H 0.44683 0.96791 0.07911 0.0
H98 H 0.48317 0.04795 0.02972 0.0
Co99 Co 0.02217 0.34554 0.04184 0.0
C100 C 0.95808 0.36868 0.03128 0.0
C101 C 0.9834 0.33828 0.00121 0.0
C102 C 0.95512 0.34725 0.99375 0.0
N103 N 0.98559 0.35204 0.02438 0.0
N104 N 0.93903 0.36629 0.01269 0.0
H105 H 0.95154 0.38131 0.05002 0.0
H106 H 0.00141 0.32282 0.9903 0.0
C107 C 0.04098 0.37102 0.97631 0.0
O108 O 0.01608 0.3908 0.97774 0.0
N109 N 0.05915 0.33769 0.05809 0.0
C110 C 0.06451 0.34362 0.08436 0.0
C111 C 0.09385 0.33066 0.08753 0.0
C112 C 0.08473 0.32137 0.04581 0.0
N113 N 0.10634 0.31651 0.06328 0.0
C114 C 0.99725 0.39849 0.06914 0.0
C115 C 0.04201 0.43263 0.03872 0.0
C116 C 0.02017 0.44393 0.06194 0.0
C117 C 0.99739 0.42667 0.0771 0.0
C118 C 0.04127 0.40424 0.03179 0.0
N119 N 0.01868 0.38772 0.04639 0.0
H120 H 0.9809 0.38459 0.08261 0.0
H121 H 0.06028 0.39484 0.01623 0.0
H122 H 0.04806 0.35565 0.1004 0.0
H123 H 0.0871 0.31279 0.02464 0.0
O124 O 0.00039 0.33025 0.08131 0.0
O125 O 0.02282 0.30244 0.04554 0.0
O126 O 0.04684 0.35217 -0.00033 0.0
C127 C 0.00798 0.3036 0.07311 0.0
H128 H 0.94711 0.33999 0.97583 0.0
H129 H 0.10462 0.33067 0.10672 0.0
H130 H 0.06077 0.4447 0.02742 0.0
H131 H 0.98054 0.43438 0.09569 0.0
Co132 Co 0.78755 0.17192 0.10219 0.0
C133 C 0.74732 0.23091 0.09555 0.0
C134 C 0.76209 0.22126 0.13855 0.0
C135 C 0.74694 0.25022 0.13528 0.0
N136 N 0.76194 0.20866 0.11389 0.0
N137 N 0.738 0.25657 0.10798 0.0
H138 H 0.74595 0.22937 0.0724 0.0
H139 H 0.7753 0.21192 0.15621 0.0
C140 C 0.77773 0.15412 0.17012 0.0
O141 O 0.74812 0.15947 0.17154 0.0
N142 N 0.81391 0.13617 0.09025 0.0
C143 C 0.81177 0.12152 0.06772 0.0
C144 C 0.83568 0.09834 0.06524 0.0
C145 C 0.83907 0.12186 0.10116 0.0
N146 N 0.8528 0.09857 0.08627 0.0
C147 C 0.72727 0.16191 0.09957 0.0
C148 C 0.73219 0.10379 0.1317 0.0
C149 C 0.70517 0.11631 0.12108 0.0
C150 C 0.7028 0.14574 0.10483 0.0
C151 C 0.75595 0.12079 0.12619 0.0
N152 N 0.75314 0.14972 0.11084 0.0
H153 H 0.7256 0.1839 0.08582 0.0
H154 H 0.77672 0.11061 0.1344 0.0
H155 H 0.79407 0.12738 0.05401 0.0
H156 H 0.84747 0.1287 0.11917 0.0
O157 O 0.78738 0.18727 0.05969 0.0
O158 O 0.82079 0.19476 0.08612 0.0
O159 O 0.79577 0.15869 0.14473 0.0
C160 C 0.81197 0.1982 0.05996 0.0
H161 H 0.74627 0.26656 0.15008 0.0
H162 H 0.83992 0.08232 0.04942 0.0
H163 H 0.73496 0.08104 0.14417 0.0
H164 H 0.68258 0.15583 0.09544 0.0
Co165 Co 0.11846 0.80803 0.11707 0.0
C166 C 0.12322 0.78609 0.18179 0.0
C167 C 0.15891 0.81149 0.15808 0.0
C168 C 0.16421 0.80062 0.18712 0.0
N169 N 0.13338 0.80222 0.15476 0.0
N170 N 0.14186 0.78456 0.20195 0.0
H171 H 0.10309 0.77516 0.18635 0.0
H172 H 0.17289 0.82497 0.14044 0.0
C173 C 0.17328 0.78588 0.07285 0.0
O174 O 0.1565 0.77368 0.05937 0.0
N175 N 0.10458 0.81501 0.0783 0.0
C176 C 0.08005 0.80784 0.07012 0.0
C177 C 0.07935 0.82032 0.04009 0.0
C178 C 0.11771 0.83238 0.05351 0.0
N179 N 0.10328 0.83549 0.0297 0.0
C180 C 0.08426 0.75876 0.13105 0.0
C181 C 0.13294 0.71277 0.13014 0.0
C182 C 0.10352 0.70551 0.13385 0.0
C183 C 0.07895 0.72896 0.13513 0.0
C184 C 0.13719 0.74303 0.12602 0.0
N185 N 0.11312 0.76568 0.12444 0.0
H186 H 0.06498 0.77636 0.13287 0.0
H187 H 0.15986 0.74807 0.12437 0.0
H188 H 0.06313 0.79536 0.08465 0.0
H189 H 0.13719 0.84318 0.05327 0.0
O190 O 0.07878 0.82512 0.13624 0.0
O191 O 0.11627 0.8513 0.11407 0.0
O192 O 0.16156 0.79927 0.09576 0.0
C193 C 0.08821 0.85129 0.12792 0.0
H194 H 0.18274 0.80477 0.19678 0.0
H195 H 0.06241 0.81854 0.02707 0.0
H196 H 0.15248 0.69526 0.13032 0.0
H197 H 0.05576 0.72455 0.1383 0.0
H198 H 0.97794 0.29909 0.13202 0.0
H199 H 0.98115 0.25462 0.17154 0.0
H200 H 0.03404 0.20116 0.10469 0.0
H201 H 0.03094 0.24543 0.06507 0.0
H202 H 0.96765 0.19488 0.18156 0.0
H203 H 0.09517 0.16152 0.13664 0.0
H204 H 0.13874 0.18493 0.10559 0.0
H205 H 0.09775 0.27101 0.1316 0.0
H206 H 0.05419 0.24806 0.16315 0.0
H207 H 0.02631 0.05126 0.2574 0.0
H208 H 0.01448 0.09415 0.21849 0.0
H209 H 0.05497 0.15074 0.26055 0.0
H210 H 0.06605 0.10821 0.30025 0.0
H211 H 0.07349 0.15672 0.19761 0.0
H212 H 0.98089 0.15958 0.27055 0.0
H213 H 0.93722 0.13858 0.30427 0.0
H214 H 0.90909 0.11654 0.22722 0.0
H215 H 0.95169 0.13853 0.19297 0.0
C216 C 0.98963 0.2777 0.1256 0.0
C217 C 0.00444 0.27583 0.09549 0.0
C218 C 0.99138 0.2523 0.1482 0.0
C219 C 0.00821 0.22476 0.14109 0.0
C220 C 0.0212 0.22232 0.11067 0.0
C221 C 0.01931 0.24763 0.08804 0.0
C222 C 0.01485 0.19963 0.16579 0.0
C223 C 0.99077 0.18641 0.18499 0.0
C224 C 0.04501 0.18905 0.17064 0.0
C225 C 0.07127 0.20309 0.15201 0.0
C226 C 0.09551 0.18542 0.1358 0.0
C227 C 0.12019 0.19861 0.11811 0.0
C228 C 0.12096 0.22944 0.11656 0.0
C229 C 0.09706 0.24716 0.13272 0.0
C230 C 0.07236 0.23407 0.1505 0.0
C231 C 0.03225 0.07287 0.25878 0.0
C232 C 0.04684 0.07624 0.28227 0.0
C233 C 0.02561 0.09733 0.23637 0.0
C234 C 0.03356 0.12564 0.23682 0.0
C235 C 0.04864 0.12904 0.25981 0.0
C236 C 0.05508 0.10464 0.28241 0.0
C237 C 0.02636 0.1516 0.21309 0.0
C238 C 0.05037 0.16502 0.19407 0.0
C239 C 0.99614 0.16262 0.20874 0.0
C240 C 0.96981 0.15027 0.2292 0.0
C241 C 0.96536 0.15027 0.26079 0.0
C242 C 0.94059 0.13847 0.27998 0.0
C243 C 0.92016 0.12659 0.26784 0.0
C244 C 0.92454 0.1263 0.23654 0.0
C245 C 0.94896 0.1385 0.21721 0.0
H246 H 0.90095 0.11761 0.28268 0.0
H247 H 0.14016 0.23954 0.10298 0.0
H248 H 0.75085 0.12468 0.22462 0.0
H249 H 0.77624 0.09946 0.26751 0.0
H250 H 0.85922 0.13255 0.22034 0.0
H251 H 0.83457 0.1571 0.17771 0.0
H252 H 0.86581 0.07057 0.2367 0.0
H253 H 0.82196 0.1613 0.28035 0.0
H254 H 0.77964 0.1991 0.29908 0.0
H255 H 0.74067 0.12975 0.36535 0.0
H256 H 0.7826 0.09147 0.34671 0.0
H257 H 0.95155 0.07126 0.35911 0.0
H258 H 0.90576 0.09264 0.3379 0.0
H259 H 0.89242 0.00335 0.32877 0.0
H260 H 0.93853 0.98179 0.34949 0.0
H261 H 0.84502 0.08818 0.34417 0.0
H262 H 0.88021 0.00842 0.25488 0.0
H263 H 0.9246 0.97337 0.23482 0.0
H264 H 0.98449 0.02614 0.25668 0.0
H265 H 0.94061 0.0618 0.27629 0.0
C266 C 0.77439 0.1269 0.22374 0.0
C267 C 0.79092 0.14241 0.19773 0.0
C268 C 0.78879 0.11254 0.24818 0.0
C269 C 0.81968 0.1139 0.24679 0.0
C270 C 0.83554 0.13087 0.22159 0.0
C271 C 0.82137 0.14491 0.19726 0.0
C272 C 0.83665 0.09574 0.27001 0.0
C273 C 0.86102 0.07414 0.26031 0.0
C274 C 0.83031 0.10051 0.30068 0.0
C275 C 0.80518 0.12349 0.31189 0.0
C276 C 0.80421 0.15408 0.29871 0.0
C277 C 0.78034 0.1756 0.30936 0.0
C278 C 0.75742 0.16682 0.33332 0.0
C279 C 0.7584 0.13651 0.34675 0.0
C280 C 0.78221 0.1149 0.33617 0.0
C281 C 0.93844 0.05608 0.35334 0.0
C282 C 0.94899 0.02496 0.35517 0.0
C283 C 0.91217 0.06832 0.3414 0.0
C284 C 0.89615 0.04959 0.33122 0.0
C285 C 0.90479 0.01817 0.33614 0.0
C286 C 0.93123 0.00594 0.34778 0.0
C287 C 0.87439 0.06333 0.31069 0.0
C288 C 0.84921 0.08403 0.3208 0.0
C289 C 0.88025 0.05818 0.28007 0.0
C290 C 0.90705 0.0375 0.2675 0.0
C291 C 0.90287 0.01259 0.2553 0.0
C292 C 0.92795 0.99263 0.24401 0.0
C293 C 0.95734 0.9974 0.24475 0.0
C294 C 0.96172 0.02239 0.25634 0.0
C295 C 0.93674 0.04253 0.26748 0.0
H296 H 0.97673 0.98185 0.23611 0.0
H297 H 0.73896 0.18351 0.34153 0.0
H298 H 0.00419 0.83234 0.38015 0.0
H299 H 0.03575 0.78431 0.37838 0.0
H300 H 0.09689 0.81125 0.42664 0.0
H301 H 0.06514 0.86051 0.42766 0.0
H302 H 0.1238 0.80881 0.37418 0.0
H303 H 0.08097 0.73291 0.44027 0.0
H304 H 0.04293 0.70371 0.47381 0.0
H305 H 0.00939 0.69033 0.3961 0.0
H306 H 0.04675 0.71986 0.36204 0.0
H307 H 0.18603 0.76092 0.2353 0.0
H308 H 0.17889 0.74693 0.29073 0.0
H309 H 0.08171 0.76343 0.29519 0.0
H310 H 0.08872 0.7771 0.24 0.0
H311 H 0.09942 0.71844 0.34286 0.0
H312 H 0.11423 0.82902 0.3014 0.0
H313 H 0.14492 0.86632 0.26889 0.0
H314 H 0.22512 0.81682 0.30076 0.0
H315 H 0.19454 0.77951 0.33395 0.0
C316 C 0.02349 0.82776 0.39172 0.0
C317 C 0.033 0.85083 0.40264 0.0
C318 C 0.0416 0.79972 0.3911 0.0
C319 C 0.06949 0.79418 0.40154 0.0
C320 C 0.07587 0.81515 0.41778 0.0
C321 C 0.05792 0.84349 0.41799 0.0
C322 C 0.09478 0.77398 0.38571 0.0
C323 C 0.11927 0.78807 0.36851 0.0
C324 C 0.08977 0.74655 0.37831 0.0
C325 C 0.06705 0.72849 0.39848 0.0
C326 C 0.06546 0.72383 0.43026 0.0
C327 C 0.04396 0.70721 0.4494 0.0
C328 C 0.02383 0.69509 0.43709 0.0
C329 C 0.02513 0.69959 0.40559 0.0
C330 C 0.04658 0.71619 0.38633 0.0
C331 C 0.16317 0.76096 0.2481 0.0
C332 C 0.13789 0.77083 0.23343 0.0
C333 C 0.15915 0.75268 0.27971 0.0
C334 C 0.1298 0.75452 0.2971 0.0
C335 C 0.1046 0.76162 0.2822 0.0
C336 C 0.10861 0.76965 0.25062 0.0
C337 C 0.1247 0.75594 0.33009 0.0
C338 C 0.10488 0.73787 0.35024 0.0
C339 C 0.13355 0.78004 0.34031 0.0
C340 C 0.1523 0.80146 0.31974 0.0
C341 C 0.13846 0.82609 0.30127 0.0
C342 C 0.15581 0.84723 0.2828 0.0
C343 C 0.18705 0.84386 0.28257 0.0
C344 C 0.20095 0.81935 0.3009 0.0
C345 C 0.18362 0.79825 0.3196 0.0
H346 H 0.20048 0.8603 0.26834 0.0
H347 H 0.00718 0.68226 0.45195 0.0
H348 H 0.28211 0.05608 0.13863 0.0
H349 H 0.24055 0.03457 0.1747 0.0
H350 H 0.28046 0.9454 0.15483 0.0
H351 H 0.32201 0.96725 0.11859 0.0
H352 H 0.21972 0.95366 0.15706 0.0
H353 H 0.28736 0.96723 0.22035 0.0
H354 H 0.31919 0.99548 0.2396 0.0
H355 H 0.24063 0.0584 0.26764 0.0
H356 H 0.20839 0.03076 0.24818 0.0
H357 H 0.13109 0.92119 0.32694 0.0
H358 H 0.17733 0.92345 0.28863 0.0
H359 H 0.1236 0.96788 0.22048 0.0
H360 H 0.07729 0.965 0.25853 0.0
H361 H 0.19567 0.97479 0.2634 0.0
H362 H 0.16243 0.96154 0.14983 0.0
H363 H 0.13224 0.93046 0.13205 0.0
H364 H 0.1458 0.86024 0.20754 0.0
H365 H 0.17689 0.89061 0.22509 0.0
C366 C 0.28188 0.03194 0.14206 0.0
C367 C 0.30473 0.01328 0.12557 0.0
C368 C 0.25824 0.01963 0.16264 0.0
C369 C 0.25742 0.98832 0.16755 0.0
C370 C 0.28049 0.96962 0.15125 0.0
C371 C 0.30409 0.98202 0.13059 0.0
C372 C 0.23267 0.97521 0.19002 0.0
C373 C 0.21449 0.95815 0.18036 0.0
C374 C 0.22622 0.98053 0.22058 0.0
C375 C 0.2455 0.99702 0.23262 0.0
C376 C 0.2769 0.98719 0.23046 0.0
C377 C 0.29501 0.00308 0.24143 0.0
C378 C 0.28195 0.02875 0.25478 0.0
C379 C 0.25073 0.03852 0.25728 0.0
C380 C 0.23252 0.02273 0.24632 0.0
C381 C 0.12908 0.93059 0.30358 0.0
C382 C 0.1006 0.94316 0.29579 0.0
C383 C 0.15554 0.93198 0.28172 0.0
C384 C 0.15406 0.94608 0.25169 0.0
C385 C 0.12541 0.95658 0.24337 0.0
C386 C 0.09889 0.95494 0.2652 0.0
C387 C 0.18221 0.9536 0.23043 0.0
C388 C 0.20101 0.96988 0.24024 0.0
C389 C 0.18941 0.94714 0.20023 0.0
C390 C 0.17153 0.9285 0.1891 0.0
C391 C 0.15912 0.93939 0.16251 0.0
C392 C 0.14189 0.92187 0.15242 0.0
C393 C 0.137 0.89341 0.1687 0.0
C394 C 0.14954 0.88229 0.19495 0.0
C395 C 0.16692 0.89965 0.205 0.0
H396 H 0.12353 0.87994 0.16101 0.0
H397 H 0.29601 0.04103 0.26324 0.0
H398 H 0.15959 0.84684 0.00207 0.0
H399 H 0.17278 0.88147 0.95522 0.0
H400 H 0.07943 0.89739 0.94246 0.0
H401 H 0.06579 0.86317 0.98995 0.0
H402 H 0.12683 0.89297 0.88639 0.0
H403 H 0.09718 0.94353 0.97539 0.0
H404 H 0.1001 0.9502 0.02738 0.0
H405 H 0.19393 0.96193 0.99857 0.0
H406 H 0.19185 0.9543 0.94673 0.0
H407 H 0.12194 0.03945 0.7957 0.0
H408 H 0.11593 0.99132 0.82869 0.0
H409 H 0.19906 0.99294 0.86028 0.0
H410 H 0.20409 0.04199 0.82869 0.0
H411 H 0.15737 0.98607 0.90609 0.0
H412 H 0.18886 0.93775 0.81768 0.0
H413 H 0.189 0.92906 0.76561 0.0
H414 H 0.09646 0.91219 0.79144 0.0
H415 H 0.09562 0.92116 0.8436 0.0
C416 C 0.14183 0.85759 0.98931 0.0
C417 C 0.1115 0.85275 9e-05 0.0
C418 C 0.14949 0.8771 0.96237 0.0
C419 C 0.12702 0.89208 0.94561 0.0
C420 C 0.09708 0.88587 0.95511 0.0
C421 C 0.08932 0.86638 0.98225 0.0
C422 C 0.13425 0.91678 0.92043 0.0
C423 C 0.13326 0.91352 0.89052 0.0
C424 C 0.14335 0.94311 0.92601 0.0
C425 C 0.14445 0.94796 0.95723 0.0
C426 C 0.11854 0.94714 0.98024 0.0
C427 C 0.12005 0.95108 0.00971 0.0
C428 C 0.14725 0.95629 0.01636 0.0
C429 C 0.17295 0.95766 0.99351 0.0
C430 C 0.17162 0.95349 0.96408 0.0
C431 C 0.13926 0.02925 0.80918 0.0
C432 C 0.16313 0.04477 0.81014 0.0
C433 C 0.13593 0.00154 0.82793 0.0
C434 C 0.15695 0.98846 0.8472 0.0
C435 C 0.18233 0.00271 0.84593 0.0
C436 C 0.18525 0.0307 0.82779 0.0
C437 C 0.15051 0.96243 0.87146 0.0
C438 C 0.15132 0.96551 0.90151 0.0
C439 C 0.14167 0.93589 0.86583 0.0
C440 C 0.1421 0.9304 0.8345 0.0
C441 C 0.16846 0.93242 0.81221 0.0
C442 C 0.16868 0.92739 0.78268 0.0
C443 C 0.14273 0.92015 0.7752 0.0
C444 C 0.11653 0.91783 0.79726 0.0
C445 C 0.11619 0.92284 0.82682 0.0
H446 H 0.14295 0.91628 0.75233 0.0
H447 H 0.14838 0.9594 0.03916 0.0
H448 H 0.34399 0.05728 0.91046 0.0
H449 H 0.32684 0.07652 0.86225 0.0
H450 H 0.4159 0.09957 0.82169 0.0
H451 H 0.43329 0.08044 0.87052 0.0
H452 H 0.32362 0.13338 0.83127 0.0
H453 H 0.42378 0.09113 0.74353 0.0
H454 H 0.46851 0.0514 0.73996 0.0
H455 H 0.42152 0.99323 0.81303 0.0
H456 H 0.37645 0.03247 0.81676 0.0
H457 H 0.2591 0.17535 0.70342 0.0
H458 H 0.30713 0.16826 0.72227 0.0
H459 H 0.30214 0.07289 0.74826 0.0
H460 H 0.25437 0.07999 0.7293 0.0
H461 H 0.3627 0.08633 0.73789 0.0
H462 H 0.26011 0.11532 0.79674 0.0
H463 H 0.21105 0.14912 0.80196 0.0
H464 H 0.25788 0.22573 0.79071 0.0
H465 H 0.30725 0.19229 0.78533 0.0
C466 C 0.35992 0.06669 0.89146 0.0
C467 C 0.3899 0.06769 0.89442 0.0
C468 C 0.3501 0.07762 0.86386 0.0
C469 C 0.37002 0.08971 0.8385 0.0
C470 C 0.4002 0.09029 0.84103 0.0
C471 C 0.41011 0.07926 0.86883 0.0
C472 C 0.35846 0.10148 0.80973 0.0
C473 C 0.33266 0.12362 0.81061 0.0
C474 C 0.37018 0.08873 0.78279 0.0
C475 C 0.39698 0.06489 0.78069 0.0
C476 C 0.42304 0.06985 0.75881 0.0
C477 C 0.44842 0.04741 0.75674 0.0
C478 C 0.44791 0.01986 0.77635 0.0
C479 C 0.42195 0.01463 0.79796 0.0
C480 C 0.3965 0.03697 0.80009 0.0
C481 C 0.26918 0.15268 0.7116 0.0
C482 C 0.25294 0.12824 0.71559 0.0
C483 C 0.29659 0.14864 0.72236 0.0
C484 C 0.30779 0.12016 0.73716 0.0
C485 C 0.29387 0.09505 0.73694 0.0
C486 C 0.26648 0.09912 0.72635 0.0
C487 C 0.32765 0.11765 0.75984 0.0
C488 C 0.35474 0.09722 0.75798 0.0
C489 C 0.31682 0.13141 0.78628 0.0
C490 C 0.28726 0.15142 0.79048 0.0
C491 C 0.25989 0.13938 0.79541 0.0
C492 C 0.23206 0.15846 0.79835 0.0
C493 C 0.23136 0.18957 0.7966 0.0
C494 C 0.25849 0.20164 0.79198 0.0
C495 C 0.28639 0.18264 0.78908 0.0
H496 H 0.20981 0.20431 0.79894 0.0
H497 H 0.46758 0.00253 0.77472 0.0
H498 H 0.15197 0.23133 0.75166 0.0
H499 H 0.15276 0.27548 0.77551 0.0
H500 H 0.12857 0.22295 0.86417 0.0
H501 H 0.13084 0.17876 0.84054 0.0
H502 H 0.11377 0.30834 0.80321 0.0
H503 H 0.14239 0.24337 0.92088 0.0
H504 H 0.17947 0.20141 0.93989 0.0
H505 H 0.24007 0.21371 0.85424 0.0
H506 H 0.20333 0.25576 0.83453 0.0
H507 H 0.02233 0.36408 0.92564 0.0
H508 H 0.05387 0.34351 0.88205 0.0
H509 H 0.13456 0.34857 0.91668 0.0
H510 H 0.10241 0.36644 0.96194 0.0
H511 H 0.14188 0.29884 0.90485 0.0
H512 H 0.11702 0.38843 0.84173 0.0
H513 H 0.08699 0.43487 0.81975 0.0
H514 H 0.03223 0.3817 0.7905 0.0
H515 H 0.06156 0.33493 0.8127 0.0
C516 C 0.14751 0.22936 0.77626 0.0
C517 C 0.14158 0.20186 0.79442 0.0
C518 C 0.14794 0.25448 0.7899 0.0
C519 C 0.14152 0.25259 0.82182 0.0
C520 C 0.13518 0.22494 0.83968 0.0
C521 C 0.13599 0.19969 0.82616 0.0
C522 C 0.13797 0.27985 0.83675 0.0
C523 C 0.12034 0.30647 0.82521 0.0
C524 C 0.14795 0.27839 0.86466 0.0
C525 C 0.17005 0.2528 0.87622 0.0
C526 C 0.16364 0.23722 0.90607 0.0
C527 C 0.18454 0.2133 0.91691 0.0
C528 C 0.21204 0.20483 0.8982 0.0
C529 C 0.21865 0.22019 0.86857 0.0
C530 C 0.19775 0.24401 0.85751 0.0
C531 C 0.04683 0.3617 0.92334 0.0
C532 C 0.06009 0.36681 0.94686 0.0
C533 C 0.06501 0.35016 0.89821 0.0
C534 C 0.09689 0.34467 0.89556 0.0
C535 C 0.11013 0.35234 0.91808 0.0
C536 C 0.09183 0.36275 0.94382 0.0
C537 C 0.11542 0.32627 0.8725 0.0
C538 C 0.1361 0.30135 0.8824 0.0
C539 C 0.10945 0.33004 0.84248 0.0
C540 C 0.09159 0.35809 0.82892 0.0
C541 C 0.09849 0.38661 0.83075 0.0
C542 C 0.08158 0.41301 0.81823 0.0
C543 C 0.05773 0.41124 0.80373 0.0
C544 C 0.05076 0.38304 0.80169 0.0
C545 C 0.06759 0.35656 0.81417 0.0
H546 H 0.04466 0.43171 0.79407 0.0
H547 H 0.22827 0.18642 0.9067 0.0
H548 H 0.86459 0.22233 0.05291 0.0
H549 H 0.90425 0.22486 0.00734 0.0
H550 H 0.84544 0.19714 0.95733 0.0
H551 H 0.80556 0.19515 0.00233 0.0
H552 H 0.90351 0.15632 0.97015 0.0
H553 H 0.86127 0.25703 0.93292 0.0
H554 H 0.84442 0.3115 0.93301 0.0
H555 H 0.93566 0.32479 0.93292 0.0
H556 H 0.95284 0.2701 0.93476 0.0
H557 H 0.99375 0.13281 0.83147 0.0
H558 H 0.95179 0.15353 0.86809 0.0
H559 H 0.01275 0.19941 0.89868 0.0
H560 H 0.05513 0.17862 0.86173 0.0
H561 H 0.95527 0.23405 0.89638 0.0
H562 H 0.99682 0.13473 0.93841 0.0
H563 H 0.01507 0.08022 0.93963 0.0
H564 H 0.92657 0.0652 0.93131 0.0
H565 H 0.90791 0.11973 0.92954 0.0
C566 C 0.85969 0.21792 0.03187 0.0
C567 C 0.83211 0.20816 0.03129 0.0
C568 C 0.88234 0.21945 0.00588 0.0
C569 C 0.8777 0.21109 0.97912 0.0
C570 C 0.84931 0.20382 0.97779 0.0
C571 C 0.82655 0.2027 0.00356 0.0
C572 C 0.90382 0.204 0.95498 0.0
C573 C 0.91459 0.17334 0.95378 0.0
C574 C 0.91884 0.22635 0.93451 0.0
C575 C 0.90826 0.25918 0.93464 0.0
C576 C 0.87765 0.27135 0.93382 0.0
C577 C 0.86802 0.30233 0.9335 0.0
C578 C 0.88889 0.32155 0.93339 0.0
C579 C 0.91943 0.30981 0.93357 0.0
C580 C 0.9291 0.27879 0.93437 0.0
C581 C 0.99826 0.14735 0.84592 0.0
C582 C 0.02782 0.15362 0.84416 0.0
C583 C 0.97423 0.15932 0.86671 0.0
C584 C 0.97928 0.17757 0.88644 0.0
C585 C 0.00842 0.1853 0.88368 0.0
C586 C 0.03257 0.17341 0.86263 0.0
C587 C 0.95449 0.18639 0.91131 0.0
C588 C 0.94415 0.21716 0.91285 0.0
C589 C 0.9399 0.16422 0.93252 0.0
C590 C 0.95106 0.13138 0.93354 0.0
C591 C 0.98132 0.11985 0.93657 0.0
C592 C 0.99173 0.08894 0.9374 0.0
C593 C 0.97201 0.06927 0.93547 0.0
C594 C 0.94183 0.08047 0.93276 0.0
C595 C 0.93132 0.11138 0.93185 0.0
H596 H 0.9801 0.04534 0.93615 0.0
H597 H 0.88144 0.34557 0.93293 0.0
H598 H 0.36332 0.13781 0.03401 0.0
H599 H 0.32908 0.18542 0.03894 0.0
H600 H 0.26881 0.15816 0.99011 0.0
H601 H 0.30269 0.11044 0.9854 0.0
H602 H 0.27426 0.22164 0.97645 0.0
H603 H 0.25449 0.14164 0.06165 0.0
H604 H 0.27042 0.1022 0.10267 0.0
H605 H 0.29656 0.16909 0.14398 0.0
H606 H 0.28127 0.20892 0.10271 0.0
H607 H 0.12236 0.27178 0.02852 0.0
H608 H 0.17213 0.24263 0.01675 0.0
H609 H 0.20711 0.28873 0.07422 0.0
H610 H 0.15702 0.31919 0.08551 0.0
H611 H 0.22246 0.22466 0.08352 0.0
H612 H 0.22671 0.30675 0.00268 0.0
H613 H 0.20876 0.34393 0.96098 0.0
H614 H 0.21099 0.27272 0.91004 0.0
H615 H 0.22766 0.23482 0.95196 0.0
C616 C 0.34312 0.14229 0.02373 0.0
C617 C 0.33539 0.12037 0.00966 0.0
C618 C 0.32365 0.16946 0.02653 0.0
C619 C 0.29642 0.17511 0.01503 0.0
C620 C 0.2898 0.15419 -0.00097 0.0
C621 C 0.30903 0.12688 0.99657 0.0
C622 C 0.27286 0.20057 0.02311 0.0
C623 C 0.26292 0.22251 -0.0002 0.0
C624 C 0.25866 0.20183 0.0537 0.0
C625 C 0.26713 0.17815 0.07894 0.0
C626 C 0.26384 0.14789 0.07937 0.0
C627 C 0.27274 0.12547 0.10267 0.0
C628 C 0.2846 0.13309 0.12591 0.0
C629 C 0.28744 0.1632 0.12593 0.0
C630 C 0.27868 0.18572 0.10258 0.0
C631 C 0.14059 0.27637 0.03827 0.0
C632 C 0.13571 0.29839 0.05753 0.0
C633 C 0.16907 0.25947 0.0316 0.0
C634 C 0.19335 0.26399 0.04413 0.0
C635 C 0.1886 0.2852 0.06411 0.0
C636 C 0.15999 0.30244 0.07064 0.0
C637 C 0.22327 0.24551 0.03677 0.0
C638 C 0.23433 0.22462 0.06023 0.0
C639 C 0.23826 0.24515 0.00622 0.0
C640 C 0.22821 0.26783 0.98074 0.0
C641 C 0.22296 0.29889 0.98281 0.0
C642 C 0.21294 0.3201 0.95912 0.0
C643 C 0.20847 0.31063 0.93299 0.0
C644 C 0.21412 0.27993 0.93045 0.0
C645 C 0.22384 0.25856 0.9542 0.0
H646 H 0.20077 0.32707 0.91464 0.0
H647 H 0.29151 0.11567 0.14392 0.0
H648 H 0.33057 0.98426 0.98245 0.0
H649 H 0.30209 0.94313 0.98316 0.0
H650 H 0.37353 0.87856 0.01789 0.0
H651 H 0.40296 0.91967 0.01527 0.0
H652 H 0.34683 0.85338 0.98299 0.0
H653 H 0.31319 0.91721 0.06204 0.0
H654 H 0.29318 0.96551 0.08064 0.0
H655 H 0.21115 0.97044 0.04596 0.0
H656 H 0.23156 0.92316 0.0249 0.0
H657 H 0.21919 0.78459 0.1028 0.0
H658 H 0.26558 0.80682 0.08188 0.0
H659 H 0.2446 0.81855 0.99156 0.0
H660 H 0.19805 0.79585 0.01245 0.0
H661 H 0.24702 0.86823 0.05122 0.0
H662 H 0.32451 0.82573 0.94619 0.0
H663 H 0.34336 0.77789 0.92578 0.0
H664 H 0.33399 0.7285 0.01662 0.0
H665 H 0.31554 0.77604 0.03757 0.0
C666 C 0.34039 0.96118 0.98963 0.0
C667 C 0.36857 0.95497 -0.00063 0.0
C668 C 0.3242 0.93773 0.98995 0.0
C669 C 0.3353 0.90788 0.00138 0.0
C670 C 0.36446 0.90145 0.00914 0.0
C671 C 0.38114 0.92488 0.00786 0.0
C672 C 0.3151 0.88424 0.00908 0.0
C673 C 0.32493 0.85667 0.9978 0.0
C674 C 0.28646 0.88851 0.02845 0.0
C675 C 0.27417 0.91683 0.04142 0.0
C676 C 0.29105 0.92873 0.05799 0.0
C677 C 0.27962 0.95596 0.069 0.0
C678 C 0.25085 0.97096 0.06477 0.0
C679 C 0.2335 0.95886 0.04914 0.0
C680 C 0.24511 0.932 0.03738 0.0
C681 C 0.22519 0.79062 0.07833 0.0
C682 C 0.205 0.78897 0.05922 0.0
C683 C 0.25171 0.80319 0.06641 0.0
C684 C 0.2583 0.81442 0.03527 0.0
C685 C 0.23997 0.80968 0.01562 0.0
C686 C 0.21342 0.79677 0.02757 0.0
C687 C 0.27883 0.83748 0.02539 0.0
C688 C 0.26884 0.86507 0.0362 0.0
C689 C 0.307 0.83317 0.00566 0.0
C690 C 0.31827 0.80444 0.9934 0.0
C691 C 0.32654 0.80466 0.9618 0.0
C692 C 0.33716 0.7776 0.95014 0.0
C693 C 0.33975 0.75016 0.96988 0.0
C694 C 0.33182 0.74975 0.00134 0.0
C695 C 0.3212 0.77675 0.01311 0.0
H696 H 0.34798 0.72923 0.96081 0.0
H697 H 0.24204 0.99194 0.07357 0.0
H698 H 0.70689 0.30581 0.13187 0.0
H699 H 0.71395 0.35796 0.1101 0.0
H700 H 0.76248 0.32762 0.02647 0.0
H701 H 0.75532 0.27639 0.04777 0.0
H702 H 0.76868 0.36558 0.10364 0.0
H703 H 0.77839 0.37598 0.96994 0.0
H704 H 0.74406 0.37717 0.93406 0.0
H705 H 0.66698 0.40168 0.00158 0.0
H706 H 0.70082 0.4012 0.03783 0.0
H707 H 0.89678 0.34563 0.99038 0.0
H708 H 0.84257 0.36045 0.00013 0.0
H709 H 0.85315 0.42915 0.04971 0.0
H710 H 0.90839 0.41451 0.03961 0.0
H711 H 0.79694 0.40888 0.99512 0.0
H712 H 0.80098 0.42426 0.11125 0.0
H713 H 0.83609 0.41811 0.14778 0.0
H714 H 0.88299 0.33634 0.11555 0.0
H715 H 0.84798 0.34199 0.07905 0.0
C716 C 0.71786 0.31061 0.10836 0.0
C717 C 0.73152 0.28681 0.09199 0.0
C718 C 0.72169 0.34047 0.09585 0.0
C719 C 0.73927 0.34688 0.06681 0.0
C720 C 0.74859 0.32368 0.04881 0.0
C721 C 0.74466 0.29395 0.06124 0.0
C722 C 0.75605 0.37334 0.05912 0.0
C723 C 0.77379 0.37633 0.08014 0.0
C724 C 0.76265 0.38808 0.02874 0.0
C725 C 0.74228 0.38878 0.00666 0.0
C726 C 0.75418 0.38206 0.9771 0.0
C727 C 0.73476 0.38247 0.9567 0.0
C728 C 0.70336 0.38955 0.96551 0.0
C729 C 0.69131 0.3962 0.99477 0.0
C730 C 0.71061 0.39582 0.01528 0.0
C731 C 0.88803 0.36456 0.0025 0.0
C732 C 0.90719 0.37837 0.01474 0.0
C733 C 0.85674 0.37321 0.00792 0.0
C734 C 0.84368 0.39575 0.02589 0.0
C735 C 0.86275 0.41152 0.03597 0.0
C736 C 0.8943 0.40282 0.03052 0.0
C737 C 0.81087 0.39723 0.03884 0.0
C738 C 0.79019 0.39999 0.01894 0.0
C739 C 0.80144 0.38754 0.07025 0.0
C740 C 0.82212 0.38368 0.09242 0.0
C741 C 0.81875 0.40496 0.11209 0.0
C742 C 0.83862 0.40157 0.13274 0.0
C743 C 0.8618 0.37688 0.13394 0.0
C744 C 0.86506 0.35545 0.11459 0.0
C745 C 0.84521 0.35871 0.09397 0.0
H746 H 0.87719 0.37434 0.14988 0.0
H747 H 0.68838 0.38983 0.94967 0.0
H748 H 0.02876 0.85765 0.15556 0.0
H749 H 0.99153 0.90349 0.15218 0.0
H750 H 0.06201 0.95494 0.10232 0.0
H751 H 0.09942 0.90906 0.10538 0.0
H752 H 0.01759 0.98738 0.14328 0.0
H753 H 0.02491 0.93097 0.06235 0.0
H754 H 0.02665 0.88451 0.04095 0.0
H755 H 0.93608 0.87538 0.08869 0.0
H756 H 0.93405 0.92151 0.11089 0.0
H757 H 0.89437 0.07103 0.0446 0.0
H758 H 0.93798 0.03303 0.05404 0.0
H759 H 0.91589 0.04049 0.1497 0.0
H760 H 0.87238 0.07897 0.14016 0.0
H761 H 0.9389 0.97973 0.08456 0.0
H762 H 0.97775 0.02018 0.18234 0.0
H763 H 0.98369 0.06727 0.19871 0.0
H764 H 0.99064 0.11255 0.10628 0.0
H765 H 0.98428 0.06576 0.08953 0.0
C766 C 0.03648 0.87882 0.14443 0.0
C767 C 0.06699 0.87972 0.13058 0.0
C768 C 0.01518 0.90499 0.14255 0.0
C769 C 0.02399 0.93251 0.12676 0.0
C770 C 0.05479 0.93393 0.11469 0.0
C771 C 0.07612 0.90769 0.11644 0.0
C772 C 0.0006 0.95871 0.11983 0.0
C773 C 0.00025 0.98578 0.13058 0.0
C774 C 0.97865 0.95682 0.10241 0.0
C775 C 0.97943 0.92953 0.08851 0.0
C776 C 0.00543 0.91895 0.06844 0.0
C777 C 0.00648 0.89268 0.05617 0.0
C778 C 0.98151 0.87697 0.06351 0.0
C779 C 0.95542 0.88757 0.08306 0.0
C780 C 0.9543 0.91377 0.09549 0.0
C781 C 0.89887 0.06466 0.06763 0.0
C782 C 0.87979 0.07783 0.09167 0.0
C783 C 0.92387 0.04298 0.073 0.0
C784 C 0.93037 0.03383 0.10258 0.0
C785 C 0.91174 0.04746 0.12659 0.0
C786 C 0.88681 0.06942 0.12115 0.0
C787 C 0.95536 0.00868 0.10837 0.0
C788 C 0.95604 0.98156 0.0974 0.0
C789 C 0.97812 0.01093 0.12476 0.0
C790 C 0.98037 0.03954 0.13479 0.0
C791 C 0.98038 0.04025 0.1656 0.0
C792 C 0.98386 0.06688 0.17492 0.0
C793 C 0.98783 0.09284 0.15349 0.0
C794 C 0.98761 0.09241 0.12284 0.0
C795 C 0.98388 0.06589 0.11345 0.0
H796 H 0.9913 0.11324 0.16056 0.0
H797 H 0.98236 0.85662 0.05401 0.0
H798 H 0.03057 0.09122 0.70444 0.0
H799 H 0.00584 0.07212 0.66971 0.0
H800 H 0.07804 0.09497 0.59548 0.0
H801 H 0.10308 0.11325 0.63019 0.0
H802 H 0.01491 0.11086 0.5828 0.0
H803 H 0.08594 0.02811 0.6285 0.0
H804 H 0.10317 0.99444 0.67284 0.0
H805 H 0.0158 0.96435 0.69968 0.0
H806 H 0.99794 0.99822 0.65568 0.0
H807 H 0.05711 0.03198 0.46328 0.0
H808 H 0.05172 0.05465 0.50885 0.0
H809 H 0.98593 0.99651 0.55617 0.0
H810 H 0.99212 0.97264 0.51052 0.0
H811 H 0.02674 -0.00081 0.59087 0.0
H812 H 0.96139 0.07054 0.53642 0.0
H813 H 0.94359 0.10377 0.49219 0.0
H814 H 0.01604 0.15589 0.48274 0.0
H815 H 0.03461 0.12272 0.5266 0.0
C816 C 0.04077 0.09249 0.68058 0.0
C817 C 0.06859 0.10353 0.66972 0.0
C818 C 0.02672 0.08165 0.6609 0.0
C819 C 0.04018 0.0823 0.63018 0.0
C820 C 0.0673 0.09454 0.61913 0.0
C821 C 0.08161 0.10479 0.63887 0.0
C822 C 0.0278 0.06811 0.60964 0.0
C823 C 0.01718 0.08648 0.58454 0.0
C824 C 0.02966 0.03637 0.61284 0.0
C825 C 0.04048 0.01597 0.63911 0.0
C826 C 0.07032 0.01453 0.64404 0.0
C827 C 0.08022 0.99537 0.66906 0.0
C828 C 0.06055 0.97735 0.68913 0.0
C829 C 0.03098 0.97838 0.68416 0.0
C830 C 0.02096 0.99755 0.6592 0.0
C831 C 0.04177 0.02366 0.48344 0.0
C832 C 0.02519 0.00038 0.48336 0.0
C833 C 0.03831 0.03702 0.50934 0.0
C834 C 0.01789 0.02773 0.53563 0.0
C835 C 0.00151 0.00422 0.53592 0.0
C836 C 0.00501 0.99071 0.50987 0.0
C837 C 0.01535 0.04193 0.56299 0.0
C838 C 0.02317 0.0236 0.58949 0.0
C839 C 0.01054 0.07378 0.56122 0.0
C840 C -0.00058 0.09405 0.53485 0.0
C841 C 0.97364 0.08899 0.52483 0.0
C842 C 0.96341 0.10783 0.49981 0.0
C843 C 0.97868 0.13192 0.48467 0.0
C844 C 0.00421 0.13724 0.49453 0.0
C845 C 0.01456 0.11846 0.51952 0.0
H846 H 0.97072 0.14648 0.4653 0.0
H847 H 0.06826 0.96252 0.70848 0.0
H848 H 0.64475 0.13376 0.14026 0.0
H849 H 0.60302 0.10536 0.14285 0.0
H850 H 0.66762 0.03017 0.11343 0.0
H851 H 0.7093 0.05823 0.11145 0.0
H852 H 0.58875 0.09016 0.0965 0.0
H853 H 0.63837 0.96447 0.1346 0.0
H854 H 0.67051 0.93555 0.17095 0.0
H855 H 0.646 0.0066 0.22574 0.0
H856 H 0.61336 0.03576 0.19 0.0
H857 H 0.52844 0.00151 0.02901 0.0
H858 H 0.56991 0.00811 0.05295 0.0
H859 H 0.51055 0.00298 0.14028 0.0
H860 H 0.46887 0.99622 0.11637 0.0
H861 H 0.58064 0.9824 0.13822 0.0
H862 H 0.50315 0.06633 0.11148 0.0
H863 H 0.46892 0.09519 0.07708 0.0
H864 H 0.54568 0.11004 0.00622 0.0
H865 H 0.58032 0.08079 0.04011 0.0
C866 C 0.64997 0.11101 0.13477 0.0
C867 C 0.68016 0.09822 0.12549 0.0
C868 C 0.62619 0.09476 0.1364 0.0
C869 C 0.63219 0.06555 0.12856 0.0
C870 C 0.66243 0.05237 0.12027 0.0
C871 C 0.68623 0.06849 0.11896 0.0
C872 C 0.60695 0.05054 0.12507 0.0
C873 C 0.58683 0.06675 0.10611 0.0
C874 C 0.60424 0.01998 0.13763 0.0
C875 C 0.62357 0.00241 0.15945 0.0
C876 C 0.6397 0.97386 0.15449 0.0
C877 C 0.65804 0.95743 0.17497 0.0
C878 C 0.66036 0.96926 0.2006 0.0
C879 C 0.64427 0.99751 0.20583 0.0
C880 C 0.62589 0.01402 0.18543 0.0
C881 C 0.52469 0.00032 0.05352 0.0
C882 C 0.49553 0.99882 0.07086 0.0
C883 C 0.54837 0.00397 0.06718 0.0
C884 C 0.54302 0.00641 0.09823 0.0
C885 C 0.51502 0.00097 0.11631 0.0
C886 C 0.49127 0.99717 0.10263 0.0
C887 C 0.56343 0.02201 0.10933 0.0
C888 C 0.58251 0.00596 0.12936 0.0
C889 C 0.56493 0.05298 0.0984 0.0
C890 C 0.54426 0.07121 0.07822 0.0
C891 C 0.51269 0.07561 0.0885 0.0
C892 C 0.49323 0.09207 0.06913 0.0
C893 C 0.50512 0.10444 0.03948 0.0
C894 C 0.53651 0.10045 0.02919 0.0
C895 C 0.55606 0.08396 0.04848 0.0
H896 H 0.49001 0.11711 0.02448 0.0
H897 H 0.67459 0.95651 0.21642 0.0
H898 H 0.13742 0.66397 0.09944 0.0
H899 H 0.12348 0.61633 0.09311 0.0
H900 H 0.04334 0.62897 0.16165 0.0
H901 H 0.05755 0.67621 0.16891 0.0
H902 H 0.10774 0.56154 0.1316 0.0
H903 H 0.98485 0.61862 0.12749 0.0
H904 H 0.9564 0.66994 0.11793 0.0
H905 H 0.03565 0.70074 0.05984 0.0
H906 H 0.06435 0.64953 0.06862 0.0
H907 H 0.01883 0.45192 0.12019 0.0
H908 H 0.03194 0.49543 0.1369 0.0
H909 H 0.0436 0.54155 0.04423 0.0
H910 H 0.03044 0.49809 0.02737 0.0
H911 H 0.0136 0.57923 0.08712 0.0
H912 H 0.10363 0.50649 0.06925 0.0
H913 H 0.13406 0.45592 0.07568 0.0
H914 H 0.12454 0.45749 0.17148 0.0
H915 H 0.09362 0.50791 0.16568 0.0
C916 C 0.11739 0.65615 0.11395 0.0
C917 C 0.09831 0.67414 0.13432 0.0
C918 C 0.10944 0.62895 0.11023 0.0
C919 C 0.0822 0.61952 0.1266 0.0
C920 C 0.0643 0.63617 0.14859 0.0
C921 C 0.07234 0.66323 0.15251 0.0
C922 C 0.07074 0.59446 0.11806 0.0
C923 C 0.08704 0.56528 0.12213 0.0
C924 C 0.04408 0.59965 0.10512 0.0
C925 C 0.02681 0.63034 0.09903 0.0
C926 C 0.99613 0.63633 0.11257 0.0
C927 C 0.97998 0.66539 0.10729 0.0
C928 C 0.99424 0.68861 0.08838 0.0
C929 C 0.02465 0.68277 0.07457 0.0
C930 C 0.04088 0.65374 0.07971 0.0
C931 C 0.02348 0.47164 0.10351 0.0
C932 C 0.02365 0.47175 0.0725 0.0
C933 C 0.03117 0.49631 0.11305 0.0
C934 C 0.03899 0.52145 0.09172 0.0
C935 C 0.03765 0.52227 0.06097 0.0
C936 C 0.03025 0.49749 0.05138 0.0
C937 C 0.0503 0.54614 0.10112 0.0
C938 C 0.03404 0.57534 0.09704 0.0
C939 C 0.07725 0.54102 0.1136 0.0
C940 C 0.09603 0.51082 0.11709 0.0
C941 C 0.1078 0.49594 0.09173 0.0
C942 C 0.12518 0.46733 0.09525 0.0
C943 C 0.13116 0.45346 0.12398 0.0
C944 C 0.11985 0.46823 0.14924 0.0
C945 C 0.1024 0.49683 0.14585 0.0
H946 H 0.14462 0.43131 0.12666 0.0
H947 H 0.98172 0.71111 0.08438 0.0
loop_
_geom_bond_atom_site_label_1
_geom_bond_atom_site_label_2
_geom_bond_distance
_geom_bond_site_symmetry_2
_ccdc_geom_bond_type
Co0 N4 2.148 1_545 S
Co0 N10 2.128 . S
Co0 N20 2.194 . S
Co0 O25 2.351 . S
Co0 O26 2.155 . S
Co0 O27 2.096 1_455 S
C1 N4 1.301 . S
C1 N5 1.328 . S
C1 H6 0.930 . S
C2 C3 1.333 . S
C2 N4 1.317 . S
C2 H7 0.930 1_455 S
C3 C2 1.333 . S
C3 N5 1.350 . S
C3 H29 0.931 . S
N4 Co0 2.148 1_565 S
N4 C1 1.301 . S
N4 C2 1.317 . S
N5 C1 1.328 . S
N5 C3 1.350 . S
H6 C1 0.930 . S
H7 C2 0.930 1_655 S
C8 O9 1.224 . S
C8 O27 1.247 . S
O9 C8 1.224 . S
N10 Co0 2.128 . S
N10 C11 1.355 . S
N10 C13 1.311 . S
C11 N10 1.355 . S
C11 C12 1.363 . S
C11 H23 0.929 . S
C12 C11 1.363 . S
C12 N14 1.375 . S
C12 H30 0.931 . S
C13 N10 1.311 . S
C13 N14 1.347 . S
C13 H24 0.929 1_455 S
N14 C12 1.375 . S
N14 C13 1.347 . S
C15 C18 1.365 . S
C15 N20 1.328 . S
C15 H21 0.938 . S
C16 C17 1.362 . S
C16 C19 1.378 . S
C16 H31 0.929 1_455 S
C17 C16 1.362 . S
C17 C18 1.366 . S
C18 C15 1.365 . S
C18 C17 1.366 . S
C18 H32 0.930 . S
C19 C16 1.378 . S
C19 N20 1.315 . S
C19 H22 0.930 1_455 S
N20 Co0 2.194 . S
N20 C15 1.328 . S
N20 C19 1.315 . S
H21 C15 0.938 . S
H22 C19 0.930 1_655 S
H23 C11 0.929 . S
H24 C13 0.929 1_655 S
O25 Co0 2.351 . S
O25 C28 1.244 . S
O26 Co0 2.155 . S
O26 C28 1.240 . S
O27 Co0 2.096 1_655 S
O27 C8 1.247 . S
C28 O25 1.244 . S
C28 O26 1.240 . S
H29 C3 0.931 . S
H30 C12 0.931 . S
H31 C16 0.929 1_655 S
H32 C18 0.930 . S
Co33 N37 2.148 . S
Co33 N43 2.128 . S
Co33 N53 2.194 . S
Co33 O58 2.351 . S
Co33 O59 2.155 . S
Co33 O60 2.096 . S
C34 N37 1.301 . S
C34 N38 1.328 . S
C34 H39 0.930 . S
C35 C36 1.333 . S
C35 N37 1.317 . S
C35 H40 0.930 . S
C36 C35 1.333 . S
C36 N38 1.350 . S
C36 H62 0.931 . S
N37 Co33 2.148 . S
N37 C34 1.301 . S
N37 C35 1.317 . S
N38 C34 1.328 . S
N38 C36 1.350 . S
H39 C34 0.930 . S
H40 C35 0.930 . S
C41 O42 1.224 . S
C41 O60 1.247 . S
O42 C41 1.224 . S
N43 Co33 2.128 . S
N43 C44 1.355 . S
N43 C46 1.311 . S
C44 N43 1.355 . S
C44 C45 1.363 . S
C44 H56 0.929 . S
C45 C44 1.363 . S
C45 N47 1.375 . S
C45 H63 0.931 . S
C46 N43 1.311 . S
C46 N47 1.347 . S
C46 H57 0.929 . S
N47 C45 1.375 . S
N47 C46 1.347 . S
C48 C51 1.365 . S
C48 N53 1.328 . S
C48 H54 0.929 . S
C49 C50 1.362 . S
C49 C52 1.378 . S
C49 H64 0.929 . S
C50 C49 1.362 . S
C50 C51 1.366 . S
C51 C48 1.365 . S
C51 C50 1.366 . S
C51 H65 0.930 . S
C52 C49 1.378 . S
C52 N53 1.315 . S
C52 H55 0.930 . S
N53 Co33 2.194 . S
N53 C48 1.328 . S
N53 C52 1.315 . S
H54 C48 0.929 . S
H55 C52 0.930 . S
H56 C44 0.929 . S
H57 C46 0.929 . S
O58 Co33 2.351 . S
O58 C61 1.244 . S
O59 Co33 2.155 . S
O59 C61 1.240 . S
O60 Co33 2.096 . S
O60 C41 1.247 . S
C61 O58 1.244 . S
C61 O59 1.240 . S
H62 C36 0.931 . S
H63 C45 0.931 . S
H64 C49 0.929 . S
H65 C51 0.930 . S
Co66 N70 2.148 1_554 S
Co66 N76 2.128 . S
Co66 N86 2.194 . S
Co66 O91 2.351 . S
Co66 O92 2.155 . S
Co66 O93 2.101 . S
C67 N70 1.301 . S
C67 N71 1.328 . S
C67 H72 0.930 . S
C68 C69 1.333 . S
C68 N70 1.317 . S
C68 H73 0.930 1_545 S
C69 C68 1.333 . S
C69 N71 1.350 . S
C69 H95 0.931 . S
N70 Co66 2.148 1_556 S
N70 C67 1.301 . S
N70 C68 1.317 . S
N71 C67 1.328 . S
N71 C69 1.350 . S
H72 C67 0.930 . S
H73 C68 0.930 1_565 S
C74 O75 1.224 . S
C74 O93 1.242 1_565 S
O75 C74 1.224 . S
N76 Co66 2.128 . S
N76 C77 1.355 . S
N76 C79 1.311 . S
C77 N76 1.355 . S
C77 C78 1.363 . S
C77 H89 0.929 . S
C78 C77 1.363 . S
C78 N80 1.375 . S
C78 H96 0.931 . S
C79 N76 1.311 . S
C79 N80 1.347 . S
C79 H90 0.929 . S
N80 C78 1.375 . S
N80 C79 1.347 . S
C81 C84 1.365 . S
C81 N86 1.328 . S
C81 H87 0.921 1_554 S
C82 C83 1.362 . S
C82 C85 1.378 . S
C82 H97 0.929 1_545 S
C83 C82 1.362 . S
C83 C84 1.366 . S
C84 C81 1.365 . S
C84 C83 1.366 . S
C84 H98 0.930 . S
C85 C82 1.378 . S
C85 N86 1.315 . S
C85 H88 0.930 1_545 S
N86 Co66 2.194 . S
N86 C81 1.328 . S
N86 C85 1.315 . S
H87 C81 0.921 1_556 S
H88 C85 0.930 1_565 S
H89 C77 0.929 . S
H90 C79 0.929 . S
O91 Co66 2.351 . S
O91 C94 1.244 . S
O92 Co66 2.155 . S
O92 C94 1.240 . S
O93 Co66 2.101 . S
O93 C74 1.242 1_545 S
C94 O91 1.244 . S
C94 O92 1.240 . S
H95 C69 0.931 . S
H96 C78 0.931 . S
H97 C82 0.929 1_565 S
H98 C84 0.930 . S
Co99 N103 2.148 1_455 S
Co99 N109 2.128 . S
Co99 N119 2.194 . S
Co99 O124 2.351 . S
Co99 O125 2.155 . S
Co99 O126 2.096 1_554 S
C100 N103 1.301 . S
C100 N104 1.328 . S
C100 H105 0.930 . S
C101 C102 1.333 . S
C101 N103 1.317 . S
C101 H106 0.930 1_554 S
C102 C101 1.333 . S
C102 N104 1.350 . S
C102 H128 0.931 . S
N103 Co99 2.148 1_655 S
N103 C100 1.301 . S
N103 C101 1.317 . S
N104 C100 1.328 . S
N104 C102 1.350 . S
H105 C100 0.930 . S
H106 C101 0.930 1_556 S
C107 O108 1.224 . S
C107 O126 1.247 . S
O108 C107 1.224 . S
N109 Co99 2.128 . S
N109 C110 1.355 . S
N109 C112 1.311 . S
C110 N109 1.355 . S
C110 C111 1.363 . S
C110 H122 0.929 . S
C111 C110 1.363 . S
C111 N113 1.375 . S
C111 H129 0.931 . S
C112 N109 1.311 . S
C112 N113 1.347 . S
C112 H123 0.929 1_554 S
N113 C111 1.375 . S
N113 C112 1.347 . S
C114 C117 1.365 . S
C114 N119 1.328 . S
C114 H120 0.929 . S
C115 C116 1.362 . S
C115 C118 1.378 . S
C115 H130 0.929 1_554 S
C116 C115 1.362 . S
C116 C117 1.366 . S
C117 C114 1.365 . S
C117 C116 1.366 . S
C117 H131 0.930 . S
C118 C115 1.378 . S
C118 N119 1.315 . S
C118 H121 0.930 1_554 S
N119 Co99 2.194 . S
N119 C114 1.328 . S
N119 C118 1.315 . S
H120 C114 0.929 . S
H121 C118 0.930 1_556 S
H122 C110 0.929 . S
H123 C112 0.929 1_556 S
O124 Co99 2.351 . S
O124 C127 1.244 . S
O125 Co99 2.155 . S
O125 C127 1.240 . S
O126 Co99 2.096 1_556 S
O126 C107 1.247 . S
C127 O124 1.244 . S
C127 O125 1.240 . S
H128 C102 0.931 . S
H129 C111 0.931 . S
H130 C115 0.929 1_556 S
H131 C117 0.930 . S
Co132 N136 2.148 . S
Co132 N142 2.128 . S
Co132 N152 2.194 . S
Co132 O157 2.351 . S
Co132 O158 2.155 . S
Co132 O159 2.096 . S
C133 N136 1.301 . S
C133 N137 1.328 . S
C133 H138 0.930 . S
C134 C135 1.333 . S
C134 N136 1.317 . S
C134 H139 0.930 . S
C135 C134 1.333 . S
C135 N137 1.350 . S
C135 H161 0.931 . S
N136 Co132 2.148 . S
N136 C133 1.301 . S
N136 C134 1.317 . S
N137 C133 1.328 . S
N137 C135 1.350 . S
H138 C133 0.930 . S
H139 C134 0.930 . S
C140 O141 1.224 . S
C140 O159 1.247 . S
O141 C140 1.224 . S
N142 Co132 2.128 . S
N142 C143 1.355 . S
N142 C145 1.311 . S
C143 N142 1.355 . S
C143 C144 1.363 . S
C143 H155 0.929 . S
C144 C143 1.363 . S
C144 N146 1.375 . S
C144 H162 0.931 . S
C145 N142 1.311 . S
C145 N146 1.347 . S
C145 H156 0.929 . S
N146 C144 1.375 . S
N146 C145 1.347 . S
C147 C150 1.365 . S
C147 N152 1.328 . S
C147 H153 0.929 . S
C148 C149 1.362 . S
C148 C151 1.378 . S
C148 H163 0.929 . S
C149 C148 1.362 . S
C149 C150 1.366 . S
C150 C147 1.365 . S
C150 C149 1.366 . S
C150 H164 0.930 . S
C151 C148 1.378 . S
C151 N152 1.315 . S
C151 H154 0.930 . S
N152 Co132 2.194 . S
N152 C147 1.328 . S
N152 C151 1.315 . S
H153 C147 0.929 . S
H154 C151 0.930 . S
H155 C143 0.929 . S
H156 C145 0.929 . S
O157 Co132 2.351 . S
O157 C160 1.244 . S
O158 Co132 2.155 . S
O158 C160 1.240 . S
O159 Co132 2.096 . S
O159 C140 1.247 . S
C160 O157 1.244 . S
C160 O158 1.240 . S
H161 C135 0.931 . S
H162 C144 0.931 . S
H163 C148 0.929 . S
H164 C150 0.930 . S
Co165 N169 2.148 . S
Co165 N175 2.128 . S
Co165 N185 2.194 . S
Co165 O190 2.351 . S
Co165 O191 2.155 . S
Co165 O192 2.096 . S
C166 N169 1.301 . S
C166 N170 1.328 . S
C166 H171 0.930 . S
C167 C168 1.333 . S
C167 N169 1.317 . S
C167 H172 0.930 . S
C168 C167 1.333 . S
C168 N170 1.350 . S
C168 H194 0.931 . S
N169 Co165 2.148 . S
N169 C166 1.301 . S
N169 C167 1.317 . S
N170 C166 1.328 . S
N170 C168 1.350 . S
H171 C166 0.930 . S
H172 C167 0.930 . S
C173 O174 1.224 . S
C173 O192 1.247 . S
O174 C173 1.224 . S
N175 Co165 2.128 . S
N175 C176 1.355 . S
N175 C178 1.311 . S
C176 N175 1.355 . S
C176 C177 1.363 . S
C176 H188 0.929 . S
C177 C176 1.363 . S
C177 N179 1.375 . S
C177 H195 0.931 . S
C178 N175 1.311 . S
C178 N179 1.347 . S
C178 H189 0.929 . S
N179 C177 1.375 . S
N179 C178 1.347 . S
C180 C183 1.365 . S
C180 N185 1.328 . S
C180 H186 0.929 . S
C181 C182 1.362 . S
C181 C184 1.378 . S
C181 H196 0.929 . S
C182 C181 1.362 . S
C182 C183 1.366 . S
C183 C180 1.365 . S
C183 C182 1.366 . S
C183 H197 0.930 . S
C184 C181 1.378 . S
C184 N185 1.315 . S
C184 H187 0.930 . S
N185 Co165 2.194 . S
N185 C180 1.328 . S
N185 C184 1.315 . S
H186 C180 0.929 . S
H187 C184 0.930 . S
H188 C176 0.929 . S
H189 C178 0.929 . S
O190 Co165 2.351 . S
O190 C193 1.244 . S
O191 Co165 2.155 . S
O191 C193 1.240 . S
O192 Co165 2.096 . S
O192 C173 1.247 . S
C193 O190 1.244 . S
C193 O191 1.240 . S
H194 C168 0.931 . S
H195 C177 0.931 . S
H196 C181 0.929 . S
H197 C183 0.930 . S
H198 C216 0.951 . S
H199 C218 0.951 . S
H200 C220 0.950 . S
H201 C221 0.950 . S
H202 C223 0.950 . S
H203 C226 0.950 . S
H204 C227 0.950 . S
H205 C229 0.950 . S
H206 C230 0.950 . S
H207 C231 0.951 . S
H208 C233 0.951 . S
H209 C235 0.950 . S
H210 C236 0.950 . S
H211 C238 0.950 . S
H212 C241 0.950 . S
H213 C242 0.950 . S
H214 C244 0.950 . S
H215 C245 0.950 . S
C216 H198 0.951 . S
C216 C217 1.366 . S
C216 C218 1.388 . S
C217 C216 1.366 . S
C217 C221 1.385 1_455 S
C218 H199 0.951 . S
C218 C216 1.388 . S
C218 C219 1.366 . S
C219 C218 1.366 . S
C219 C220 1.414 1_455 S
C219 C222 1.499 . S
C220 H200 0.950 . S
C220 C219 1.414 1_655 S
C220 C221 1.374 . S
C221 H201 0.950 . S
C221 C217 1.385 1_655 S
C221 C220 1.374 . S
C222 C219 1.499 . S
C222 C223 1.373 1_455 S
C222 C224 1.389 . S
C223 H202 0.950 . S
C223 C222 1.373 1_655 S
C223 C239 1.377 . S
C224 C222 1.389 . S
C224 C225 1.524 . S
C224 C238 1.377 . S
C225 C224 1.524 . S
C225 C226 1.397 . S
C225 C230 1.363 . S
C226 H203 0.950 . S
C226 C225 1.397 . S
C226 C227 1.334 . S
C227 H204 0.950 . S
C227 C226 1.334 . S
C227 C228 1.287 . S
C228 C227 1.287 . S
C228 C229 1.524 . S
C228 H247 0.913 . S
C229 H205 0.950 . S
C229 C228 1.524 . S
C229 C230 1.415 . S
C230 H206 0.950 . S
C230 C225 1.363 . S
C230 C229 1.415 . S
C231 H207 0.951 . S
C231 C232 1.366 1_655 S
C231 C233 1.388 . S
C232 C231 1.366 1_455 S
C232 C236 1.385 . S
C233 H208 0.951 . S
C233 C231 1.388 . S
C233 C234 1.366 1_655 S
C234 C233 1.366 1_455 S
C234 C235 1.414 . S
C234 C237 1.499 . S
C235 H209 0.950 . S
C235 C234 1.414 . S
C235 C236 1.374 . S
C236 H210 0.950 . S
C236 C232 1.385 . S
C236 C235 1.374 . S
C237 C234 1.499 . S
C237 C238 1.373 . S
C237 C239 1.389 1_455 S
C238 H211 0.950 . S
C238 C224 1.377 . S
C238 C237 1.373 . S
C239 C223 1.377 . S
C239 C237 1.389 1_655 S
C239 C240 1.524 . S
C240 C239 1.524 . S
C240 C241 1.397 . S
C240 C245 1.363 . S
C241 H212 0.950 . S
C241 C240 1.397 . S
C241 C242 1.334 . S
C242 H213 0.950 . S
C242 C241 1.334 . S
C242 C243 1.287 . S
C243 C242 1.287 . S
C243 C244 1.524 . S
C243 H246 0.999 . S
C244 H214 0.950 . S
C244 C243 1.524 . S
C244 C245 1.415 . S
C245 H215 0.950 . S
C245 C240 1.363 . S
C245 C244 1.415 . S
H246 C243 0.999 . S
H247 C228 0.913 . S
H248 C266 0.951 . S
H249 C268 0.951 . S
H250 C270 0.950 . S
H251 C271 0.950 . S
H252 C273 0.950 . S
H253 C276 0.950 . S
H254 C277 0.950 . S
H255 C279 0.950 . S
H256 C280 0.950 . S
H257 C281 0.951 . S
H258 C283 0.951 . S
H259 C285 0.950 . S
H260 C286 0.950 . S
H261 C288 0.950 . S
H262 C291 0.950 . S
H263 C292 0.950 . S
H264 C294 0.950 1_455 S
H265 C295 0.950 . S
C266 H248 0.951 . S
C266 C267 1.366 . S
C266 C268 1.388 . S
C267 C266 1.366 . S
C267 C271 1.385 . S
C268 H249 0.951 . S
C268 C266 1.388 . S
C268 C269 1.366 . S
C269 C268 1.366 . S
C269 C270 1.414 . S
C269 C272 1.499 . S
C270 H250 0.950 . S
C270 C269 1.414 . S
C270 C271 1.374 . S
C271 H251 0.950 . S
C271 C267 1.385 . S
C271 C270 1.374 . S
C272 C269 1.499 . S
C272 C273 1.373 . S
C272 C274 1.389 . S
C273 H252 0.950 . S
C273 C272 1.373 . S
C273 C289 1.377 . S
C274 C272 1.389 . S
C274 C275 1.524 . S
C274 C288 1.377 . S
C275 C274 1.524 . S
C275 C276 1.397 . S
C275 C280 1.363 . S
C276 H253 0.950 . S
C276 C275 1.397 . S
C276 C277 1.334 . S
C277 H254 0.950 . S
C277 C276 1.334 . S
C277 C278 1.287 . S
C278 C277 1.287 . S
C278 C279 1.524 . S
C278 H297 0.913 . S
C279 H255 0.950 . S
C279 C278 1.524 . S
C279 C280 1.415 . S
C280 H256 0.950 . S
C280 C275 1.363 . S
C280 C279 1.415 . S
C281 H257 0.951 . S
C281 C282 1.366 . S
C281 C283 1.388 . S
C282 C281 1.366 . S
C282 C286 1.385 . S
C283 H258 0.951 . S
C283 C281 1.388 . S
C283 C284 1.366 . S
C284 C283 1.366 . S
C284 C285 1.414 . S
C284 C287 1.499 . S
C285 H259 0.950 . S
C285 C284 1.414 . S
C285 C286 1.374 . S
C286 H260 0.950 . S
C286 C282 1.385 . S
C286 C285 1.374 . S
C287 C284 1.499 . S
C287 C288 1.373 . S
C287 C289 1.389 . S
C288 H261 0.950 . S
C288 C274 1.377 . S
C288 C287 1.373 . S
C289 C273 1.377 . S
C289 C287 1.389 . S
C289 C290 1.524 . S
C290 C289 1.524 . S
C290 C291 1.397 . S
C290 C295 1.363 . S
C291 H262 0.950 . S
C291 C290 1.397 . S
C291 C292 1.334 1_545 S
C292 H263 0.950 . S
C292 C291 1.334 1_565 S
C292 C293 1.287 1_565 S
C293 C292 1.287 1_545 S
C293 C294 1.524 . S
C293 H296 0.999 1_645 S
C294 H264 0.950 1_655 S
C294 C293 1.524 . S
C294 C295 1.415 . S
C295 H265 0.950 . S
C295 C290 1.363 . S
C295 C294 1.415 . S
H296 C293 0.999 1_465 S
H297 C278 0.913 . S
H298 C316 0.951 . S
H299 C318 0.951 . S
H300 C320 0.950 . S
H301 C321 0.950 . S
H302 C323 0.950 . S
H303 C326 0.950 . S
H304 C327 0.950 . S
H305 C329 0.950 . S
H306 C330 0.950 . S
H307 C331 0.951 . S
H308 C333 0.951 . S
H309 C335 0.950 . S
H310 C336 0.950 . S
H311 C338 0.950 . S
H312 C341 0.950 . S
H313 C342 0.950 . S
H314 C344 0.950 . S
H315 C345 0.950 . S
C316 H298 0.951 . S
C316 C317 1.366 . S
C316 C318 1.388 . S
C317 C316 1.366 . S
C317 C321 1.385 . S
C318 H299 0.951 . S
C318 C316 1.388 . S
C318 C319 1.366 . S
C319 C318 1.366 . S
C319 C320 1.414 . S
C319 C322 1.499 . S
C320 H300 0.950 . S
C320 C319 1.414 . S
C320 C321 1.374 . S
C321 H301 0.950 . S
C321 C317 1.385 . S
C321 C320 1.374 . S
C322 C319 1.499 . S
C322 C323 1.373 . S
C322 C324 1.389 . S
C323 H302 0.950 . S
C323 C322 1.373 . S
C323 C339 1.377 . S
C324 C322 1.389 . S
C324 C325 1.524 . S
C324 C338 1.377 . S
C325 C324 1.524 . S
C325 C326 1.397 . S
C325 C330 1.363 1_455 S
C326 H303 0.950 . S
C326 C325 1.397 . S
C326 C327 1.334 1_455 S
C327 H304 0.950 . S
C327 C326 1.334 1_655 S
C327 C328 1.287 . S
C328 C327 1.287 . S
C328 C329 1.524 . S
C328 H347 0.913 . S
C329 H305 0.950 . S
C329 C328 1.524 . S
C329 C330 1.415 . S
C330 H306 0.950 . S
C330 C325 1.363 1_655 S
C330 C329 1.415 . S
C331 H307 0.951 . S
C331 C332 1.366 . S
C331 C333 1.388 . S
C332 C331 1.366 . S
C332 C336 1.385 . S
C333 H308 0.951 . S
C333 C331 1.388 . S
C333 C334 1.366 . S
C334 C333 1.366 . S
C334 C335 1.414 . S
C334 C337 1.499 . S
C335 H309 0.950 . S
C335 C334 1.414 . S
C335 C336 1.374 . S
C336 H310 0.950 . S
C336 C332 1.385 . S
C336 C335 1.374 . S
C337 C334 1.499 . S
C337 C338 1.373 . S
C337 C339 1.389 . S
C338 H311 0.950 . S
C338 C324 1.377 . S
C338 C337 1.373 . S
C339 C323 1.377 . S
C339 C337 1.389 . S
C339 C340 1.524 . S
C340 C339 1.524 . S
C340 C341 1.397 . S
C340 C345 1.363 . S
C341 H312 0.950 . S
C341 C340 1.397 . S
C341 C342 1.334 . S
C342 H313 0.950 . S
C342 C341 1.334 . S
C342 C343 1.287 . S
C343 C342 1.287 . S
C343 C344 1.524 . S
C343 H346 0.999 . S
C344 H314 0.950 . S
C344 C343 1.524 . S
C344 C345 1.415 . S
C345 H315 0.950 . S
C345 C340 1.363 . S
C345 C344 1.415 . S
H346 C343 0.999 . S
H347 C328 0.913 . S
H348 C366 0.951 . S
H349 C368 0.951 . S
H350 C370 0.950 . S
H351 C371 0.950 . S
H352 C373 0.950 . S
H353 C376 0.950 1_565 S
H354 C377 0.950 . S
H355 C379 0.950 . S
H356 C380 0.950 . S
H357 C381 0.951 . S
H358 C383 0.951 . S
H359 C385 0.950 . S
H360 C386 0.950 . S
H361 C388 0.950 . S
H362 C391 0.973 . S
H363 C392 0.950 1_545 S
H364 C394 0.950 . S
H365 C395 0.950 . S
C366 H348 0.951 . S
C366 C367 1.366 . S
C366 C368 1.388 . S
C367 C366 1.366 . S
C367 C371 1.385 1_545 S
C368 H349 0.951 . S
C368 C366 1.388 . S
C368 C369 1.366 . S
C369 C368 1.366 . S
C369 C370 1.414 1_545 S
C369 C372 1.499 . S
C370 H350 0.950 . S
C370 C369 1.414 1_565 S
C370 C371 1.374 . S
C371 H351 0.950 . S
C371 C367 1.385 1_565 S
C371 C370 1.374 . S
C372 C369 1.499 . S
C372 C373 1.373 1_545 S
C372 C374 1.389 . S
C373 H352 0.950 . S
C373 C372 1.373 1_565 S
C373 C389 1.377 . S
C374 C372 1.389 . S
C374 C375 1.524 . S
C374 C388 1.377 . S
C375 C374 1.524 . S
C375 C376 1.397 . S
C375 C380 1.363 . S
C376 H353 0.950 1_545 S
C376 C375 1.397 . S
C376 C377 1.334 . S
C377 H354 0.950 . S
C377 C376 1.334 . S
C377 C378 1.287 . S
C378 C377 1.287 . S
C378 C379 1.524 . S
C378 H397 0.913 . S
C379 H355 0.950 . S
C379 C378 1.524 . S
C379 C380 1.415 . S
C380 H356 0.950 . S
C380 C375 1.363 . S
C380 C379 1.415 . S
C381 H357 0.951 . S
C381 C382 1.366 1_565 S
C381 C383 1.388 . S
C382 C381 1.366 1_545 S
C382 C386 1.385 . S
C383 H358 0.951 . S
C383 C381 1.388 . S
C383 C384 1.366 1_565 S
C384 C383 1.366 1_545 S
C384 C385 1.414 . S
C384 C387 1.499 . S
C385 H359 0.950 . S
C385 C384 1.414 . S
C385 C386 1.374 . S
C386 H360 0.950 . S
C386 C382 1.385 . S
C386 C385 1.374 . S
C387 C384 1.499 . S
C387 C388 1.373 . S
C387 C389 1.389 1_545 S
C388 H361 0.950 . S
C388 C374 1.377 . S
C388 C387 1.373 . S
C389 C373 1.377 . S
C389 C387 1.389 1_565 S
C389 C390 1.524 . S
C390 C389 1.524 . S
C390 C391 1.386 1_565 S
C390 C395 1.363 . S
C391 H362 0.973 . S
C391 C390 1.386 1_545 S
C391 C392 1.322 1_545 S
C392 H363 0.950 1_565 S
C392 C391 1.322 1_565 S
C392 C393 1.287 . S
C393 C392 1.287 . S
C393 C394 1.524 . S
C393 H396 0.999 . S
C394 H364 0.950 . S
C394 C393 1.524 . S
C394 C395 1.415 . S
C395 H365 0.950 . S
C395 C390 1.363 . S
C395 C394 1.415 . S
H396 C393 0.999 . S
H397 C378 0.913 . S
H398 C416 0.951 . S
H399 C418 0.951 . S
H400 C420 0.950 . S
H401 C421 0.950 . S
H402 C423 0.950 . S
H403 C426 0.950 . S
H404 C427 0.950 . S
H405 C429 0.950 . S
H406 C430 0.950 . S
H407 C431 0.951 . S
H408 C433 0.951 . S
H409 C435 0.950 . S
H410 C436 0.950 . S
H411 C438 0.950 . S
H412 C441 0.950 . S
H413 C442 0.950 . S
H414 C444 0.950 . S
H415 C445 0.950 . S
C416 H398 0.951 . S
C416 C417 1.366 . S
C416 C418 1.388 1_554 S
C417 C416 1.366 . S
C417 C421 1.385 1_554 S
C418 H399 0.951 . S
C418 C416 1.388 1_556 S
C418 C419 1.366 . S
C419 C418 1.366 . S
C419 C420 1.414 . S
C419 C422 1.499 . S
C420 H400 0.950 . S
C420 C419 1.414 . S
C420 C421 1.374 . S
C421 H401 0.950 . S
C421 C417 1.385 1_556 S
C421 C420 1.374 . S
C422 C419 1.499 . S
C422 C423 1.373 . S
C422 C424 1.389 . S
C423 H402 0.950 . S
C423 C422 1.373 . S
C423 C439 1.377 . S
C424 C422 1.389 . S
C424 C425 1.524 . S
C424 C438 1.377 . S
C425 C424 1.524 . S
C425 C426 1.397 . S
C425 C430 1.363 . S
C426 H403 0.950 . S
C426 C425 1.397 . S
C426 C427 1.334 1_556 S
C427 H404 0.950 . S
C427 C426 1.334 1_554 S
C427 C428 1.287 . S
C428 C427 1.287 . S
C428 C429 1.524 . S
C428 H447 0.913 . S
C429 H405 0.950 . S
C429 C428 1.524 . S
C429 C430 1.415 1_554 S
C430 H406 0.950 . S
C430 C425 1.363 . S
C430 C429 1.415 1_556 S
C431 H407 0.951 . S
C431 C432 1.366 . S
C431 C433 1.388 1_545 S
C432 C431 1.366 . S
C432 C436 1.385 . S
C433 H408 0.951 . S
C433 C431 1.388 1_565 S
C433 C434 1.366 . S
C434 C433 1.366 . S
C434 C435 1.414 1_565 S
C434 C437 1.499 . S
C435 H409 0.950 . S
C435 C434 1.414 1_545 S
C435 C436 1.374 . S
C436 H410 0.950 . S
C436 C432 1.385 . S
C436 C435 1.374 . S
C437 C434 1.499 . S
C437 C438 1.373 . S
C437 C439 1.389 . S
C438 H411 0.950 . S
C438 C424 1.377 . S
C438 C437 1.373 . S
C439 C423 1.377 . S
C439 C437 1.389 . S
C439 C440 1.524 . S
C440 C439 1.524 . S
C440 C441 1.397 . S
C440 C445 1.363 . S
C441 H412 0.950 . S
C441 C440 1.397 . S
C441 C442 1.334 . S
C442 H413 0.950 . S
C442 C441 1.334 . S
C442 C443 1.287 . S
C443 C442 1.287 . S
C443 C444 1.524 . S
C443 H446 0.999 . S
C444 H414 0.950 . S
C444 C443 1.524 . S
C444 C445 1.415 . S
C445 H415 0.950 . S
C445 C440 1.363 . S
C445 C444 1.415 . S
H446 C443 0.999 . S
H447 C428 0.913 . S
H448 C466 0.951 . S
H449 C468 0.951 . S
H450 C470 0.950 . S
H451 C471 0.950 . S
H452 C473 0.950 . S
H453 C476 0.959 . S
H454 C477 0.950 . S
H455 C479 0.950 . S
H456 C480 0.950 . S
H457 C481 0.951 . S
H458 C483 0.951 . S
H459 C485 0.950 . S
H460 C486 0.950 . S
H461 C488 0.950 . S
H462 C491 0.950 . S
H463 C492 0.950 . S
H464 C494 0.950 . S
H465 C495 0.950 . S
C466 H448 0.951 . S
C466 C467 1.366 . S
C466 C468 1.388 . S
C467 C466 1.366 . S
C467 C471 1.385 . S
C468 H449 0.951 . S
C468 C466 1.388 . S
C468 C469 1.366 . S
C469 C468 1.366 . S
C469 C470 1.414 . S
C469 C472 1.499 . S
C470 H450 0.950 . S
C470 C469 1.414 . S
C470 C471 1.374 . S
C471 H451 0.950 . S
C471 C467 1.385 . S
C471 C470 1.374 . S
C472 C469 1.499 . S
C472 C473 1.373 . S
C472 C474 1.389 . S
C473 H452 0.950 . S
C473 C472 1.373 . S
C473 C489 1.377 . S
C474 C472 1.389 . S
C474 C475 1.524 . S
C474 C488 1.377 . S
C475 C474 1.524 . S
C475 C476 1.411 . S
C475 C480 1.363 . S
C476 H453 0.959 . S
C476 C475 1.411 . S
C476 C477 1.312 1_545 S
C477 H454 0.950 . S
C477 C476 1.312 1_565 S
C477 C478 1.287 . S
C478 C477 1.287 . S
C478 C479 1.524 . S
C478 H497 0.913 . S
C479 H455 0.950 . S
C479 C478 1.524 . S
C479 C480 1.415 1_565 S
C480 H456 0.950 . S
C480 C475 1.363 . S
C480 C479 1.415 1_545 S
C481 H457 0.951 . S
C481 C482 1.366 . S
C481 C483 1.388 . S
C482 C481 1.366 . S
C482 C486 1.385 . S
C483 H458 0.951 . S
C483 C481 1.388 . S
C483 C484 1.366 . S
C484 C483 1.366 . S
C484 C485 1.414 . S
C484 C487 1.499 . S
C485 H459 0.950 . S
C485 C484 1.414 . S
C485 C486 1.374 . S
C486 H460 0.950 . S
C486 C482 1.385 . S
C486 C485 1.374 . S
C487 C484 1.499 . S
C487 C488 1.373 . S
C487 C489 1.389 . S
C488 H461 0.950 . S
C488 C474 1.377 . S
C488 C487 1.373 . S
C489 C473 1.377 . S
C489 C487 1.389 . S
C489 C490 1.524 . S
C490 C489 1.524 . S
C490 C491 1.397 . S
C490 C495 1.363 . S
C491 H462 0.950 . S
C491 C490 1.397 . S
C491 C492 1.334 . S
C492 H463 0.950 . S
C492 C491 1.334 . S
C492 C493 1.287 . S
C493 C492 1.287 . S
C493 C494 1.524 . S
C493 H496 0.999 . S
C494 H464 0.950 . S
C494 C493 1.524 . S
C494 C495 1.415 . S
C495 H465 0.950 . S
C495 C490 1.363 . S
C495 C494 1.415 . S
H496 C493 0.999 . S
H497 C478 0.913 . S
H498 C516 0.951 . S
H499 C518 0.951 . S
H500 C520 0.950 . S
H501 C521 0.950 . S
H502 C523 0.950 . S
H503 C526 0.950 . S
H504 C527 0.950 . S
H505 C529 0.950 . S
H506 C530 0.950 . S
H507 C531 0.951 1_655 S
H508 C533 0.951 . S
H509 C535 0.950 . S
H510 C536 0.950 . S
H511 C538 0.950 . S
H512 C541 0.950 . S
H513 C542 0.950 . S
H514 C544 0.966 . S
H515 C545 0.950 . S
C516 H498 0.951 . S
C516 C517 1.366 . S
C516 C518 1.388 . S
C517 C516 1.366 . S
C517 C521 1.385 . S
C518 H499 0.951 . S
C518 C516 1.388 . S
C518 C519 1.366 . S
C519 C518 1.366 . S
C519 C520 1.414 . S
C519 C522 1.499 . S
C520 H500 0.950 . S
C520 C519 1.414 . S
C520 C521 1.374 . S
C521 H501 0.950 . S
C521 C517 1.385 . S
C521 C520 1.374 . S
C522 C519 1.499 . S
C522 C523 1.373 . S
C522 C524 1.389 . S
C523 H502 0.950 . S
C523 C522 1.373 . S
C523 C539 1.377 . S
C524 C522 1.389 . S
C524 C525 1.524 . S
C524 C538 1.377 . S
C525 C524 1.524 . S
C525 C526 1.397 . S
C525 C530 1.363 . S
C526 H503 0.950 . S
C526 C525 1.397 . S
C526 C527 1.334 . S
C527 H504 0.950 . S
C527 C526 1.334 . S
C527 C528 1.287 . S
C528 C527 1.287 . S
C528 C529 1.524 . S
C528 H547 0.913 . S
C529 H505 0.950 . S
C529 C528 1.524 . S
C529 C530 1.415 . S
C530 H506 0.950 . S
C530 C525 1.363 . S
C530 C529 1.415 . S
C531 H507 0.951 1_455 S
C531 C532 1.366 . S
C531 C533 1.388 . S
C532 C531 1.366 . S
C532 C536 1.385 . S
C533 H508 0.951 . S
C533 C531 1.388 . S
C533 C534 1.366 . S
C534 C533 1.366 . S
C534 C535 1.414 . S
C534 C537 1.499 . S
C535 H509 0.950 . S
C535 C534 1.414 . S
C535 C536 1.374 . S
C536 H510 0.950 . S
C536 C532 1.385 . S
C536 C535 1.374 . S
C537 C534 1.499 . S
C537 C538 1.373 . S
C537 C539 1.389 . S
C538 H511 0.950 . S
C538 C524 1.377 . S
C538 C537 1.373 . S
C539 C523 1.377 . S
C539 C537 1.389 . S
C539 C540 1.524 . S
C540 C539 1.524 . S
C540 C541 1.397 . S
C540 C545 1.363 . S
C541 H512 0.950 . S
C541 C540 1.397 . S
C541 C542 1.334 . S
C542 H513 0.950 . S
C542 C541 1.334 . S
C542 C543 1.287 . S
C543 C542 1.287 . S
C543 C544 1.515 1_455 S
C543 H546 0.999 1_455 S
C544 H514 0.966 . S
C544 C543 1.515 1_655 S
C544 C545 1.405 1_655 S
C545 H515 0.950 . S
C545 C540 1.363 . S
C545 C544 1.405 1_455 S
H546 C543 0.999 1_655 S
H547 C528 0.913 . S
H548 C566 0.951 . S
H549 C568 0.951 . S
H550 C570 0.950 . S
H551 C571 0.950 . S
H552 C573 0.950 . S
H553 C576 0.950 . S
H554 C577 0.950 . S
H555 C579 0.950 . S
H556 C580 0.950 . S
H557 C581 0.951 . S
H558 C583 0.951 . S
H559 C585 0.950 . S
H560 C586 0.950 . S
H561 C588 0.950 . S
H562 C591 0.950 . S
H563 C592 0.950 1_455 S
H564 C594 0.950 . S
H565 C595 0.950 . S
C566 H548 0.951 . S
C566 C567 1.366 . S
C566 C568 1.388 1_554 S
C567 C566 1.366 . S
C567 C571 1.385 . S
C568 H549 0.951 . S
C568 C566 1.388 1_556 S
C568 C569 1.366 . S
C569 C568 1.366 . S
C569 C570 1.414 . S
C569 C572 1.499 . S
C570 H550 0.950 . S
C570 C569 1.414 . S
C570 C571 1.374 1_556 S
C571 H551 0.950 . S
C571 C567 1.385 . S
C571 C570 1.374 1_554 S
C572 C569 1.499 . S
C572 C573 1.373 . S
C572 C574 1.389 . S
C573 H552 0.950 . S
C573 C572 1.373 . S
C573 C589 1.377 . S
C574 C572 1.389 . S
C574 C575 1.524 . S
C574 C588 1.377 . S
C575 C574 1.524 . S
C575 C576 1.397 . S
C575 C580 1.363 . S
C576 H553 0.950 . S
C576 C575 1.397 . S
C576 C577 1.334 . S
C577 H554 0.950 . S
C577 C576 1.334 . S
C577 C578 1.287 . S
C578 C577 1.287 . S
C578 C579 1.524 . S
C578 H597 0.913 . S
C579 H555 0.950 . S
C579 C578 1.524 . S
C579 C580 1.415 . S
C580 H556 0.950 . S
C580 C575 1.363 . S
C580 C579 1.415 . S
C581 H557 0.951 . S
C581 C582 1.366 1_655 S
C581 C583 1.388 . S
C582 C581 1.366 1_455 S
C582 C586 1.385 . S
C583 H558 0.951 . S
C583 C581 1.388 . S
C583 C584 1.366 . S
C584 C583 1.366 . S
C584 C585 1.414 1_655 S
C584 C587 1.499 . S
C585 H559 0.950 . S
C585 C584 1.414 1_455 S
C585 C586 1.374 . S
C586 H560 0.950 . S
C586 C582 1.385 . S
C586 C585 1.374 . S
C587 C584 1.499 . S
C587 C588 1.373 . S
C587 C589 1.389 . S
C588 H561 0.950 . S
C588 C574 1.377 . S
C588 C587 1.373 . S
C589 C573 1.377 . S
C589 C587 1.389 . S
C589 C590 1.524 . S
C590 C589 1.524 . S
C590 C591 1.397 . S
C590 C595 1.363 . S
C591 H562 0.950 . S
C591 C590 1.397 . S
C591 C592 1.334 . S
C592 H563 0.950 1_655 S
C592 C591 1.334 . S
C592 C593 1.287 . S
C593 C592 1.287 . S
C593 C594 1.524 . S
C593 H596 0.999 . S
C594 H564 0.950 . S
C594 C593 1.524 . S
C594 C595 1.415 . S
C595 H565 0.950 . S
C595 C590 1.363 . S
C595 C594 1.415 . S
H596 C593 0.999 . S
H597 C578 0.913 . S
H598 C616 0.951 . S
H599 C618 0.951 . S
H600 C620 0.946 1_556 S
H601 C621 0.962 . S
H602 C623 0.950 . S
H603 C626 0.950 . S
H604 C627 0.950 . S
H605 C629 0.950 . S
H606 C630 0.950 . S
H607 C631 0.951 . S
H608 C633 0.956 . S
H609 C635 0.950 . S
H610 C636 0.950 . S
H611 C638 0.950 . S
H612 C641 0.950 . S
H613 C642 0.950 . S
H614 C644 0.950 . S
H615 C645 0.950 . S
C616 H598 0.951 . S
C616 C617 1.366 . S
C616 C618 1.388 . S
C617 C616 1.366 . S
C617 C621 1.375 1_554 S
C618 H599 0.951 . S
C618 C616 1.388 . S
C618 C619 1.366 . S
C619 C618 1.366 . S
C619 C620 1.420 . S
C619 C622 1.499 . S
C620 H600 0.946 1_554 S
C620 C619 1.420 . S
C620 C621 1.372 1_554 S
C621 H601 0.962 . S
C621 C617 1.375 1_556 S
C621 C620 1.372 1_556 S
C622 C619 1.499 . S
C622 C623 1.373 1_554 S
C622 C624 1.389 . S
C623 H602 0.950 . S
C623 C622 1.373 1_556 S
C623 C639 1.377 . S
C624 C622 1.389 . S
C624 C625 1.524 . S
C624 C638 1.377 . S
C625 C624 1.524 . S
C625 C626 1.397 . S
C625 C630 1.363 . S
C626 H603 0.950 . S
C626 C625 1.397 . S
C626 C627 1.334 . S
C627 H604 0.950 . S
C627 C626 1.334 . S
C627 C628 1.287 . S
C628 C627 1.287 . S
C628 C629 1.524 . S
C628 H647 0.913 . S
C629 H605 0.950 . S
C629 C628 1.524 . S
C629 C630 1.415 . S
C630 H606 0.950 . S
C630 C625 1.363 . S
C630 C629 1.415 . S
C631 H607 0.951 . S
C631 C632 1.366 . S
C631 C633 1.388 . S
C632 C631 1.366 . S
C632 C636 1.385 . S
C633 H608 0.956 . S
C633 C631 1.388 . S
C633 C634 1.366 . S
C634 C633 1.366 . S
C634 C635 1.414 . S
C634 C637 1.499 . S
C635 H609 0.950 . S
C635 C634 1.414 . S
C635 C636 1.374 . S
C636 H610 0.950 . S
C636 C632 1.385 . S
C636 C635 1.374 . S
C637 C634 1.499 . S
C637 C638 1.373 . S
C637 C639 1.389 1_554 S
C638 H611 0.950 . S
C638 C624 1.377 . S
C638 C637 1.373 . S
C639 C623 1.377 . S
C639 C637 1.389 1_556 S
C639 C640 1.524 . S
C640 C639 1.524 . S
C640 C641 1.397 . S
C640 C645 1.363 . S
C641 H612 0.950 . S
C641 C640 1.397 . S
C641 C642 1.334 . S
C642 H613 0.950 . S
C642 C641 1.334 . S
C642 C643 1.287 . S
C643 C642 1.287 . S
C643 C644 1.524 . S
C643 H646 0.999 . S
C644 H614 0.950 . S
C644 C643 1.524 . S
C644 C645 1.415 . S
C645 H615 0.950 . S
C645 C640 1.363 . S
C645 C644 1.415 . S
H646 C643 0.999 . S
H647 C628 0.913 . S
H648 C666 0.951 . S
H649 C668 0.951 . S
H650 C670 0.950 . S
H651 C671 0.950 . S
H652 C673 0.950 . S
H653 C676 0.950 . S
H654 C677 0.950 . S
H655 C679 0.936 1_545 S
H656 C680 0.950 . S
H657 C681 0.951 . S
H658 C683 0.951 . S
H659 C685 0.950 . S
H660 C686 0.950 . S
H661 C688 0.950 . S
H662 C691 0.950 . S
H663 C692 0.950 . S
H664 C694 0.950 . S
H665 C695 0.950 . S
C666 H648 0.951 . S
C666 C667 1.366 . S
C666 C668 1.388 . S
C667 C666 1.366 . S
C667 C671 1.385 . S
C668 H649 0.951 . S
C668 C666 1.388 . S
C668 C669 1.366 . S
C669 C668 1.366 . S
C669 C670 1.414 . S
C669 C672 1.499 . S
C670 H650 0.950 . S
C670 C669 1.414 . S
C670 C671 1.374 . S
C671 H651 0.950 . S
C671 C667 1.385 . S
C671 C670 1.374 . S
C672 C669 1.499 . S
C672 C673 1.373 . S
C672 C674 1.389 . S
C673 H652 0.950 . S
C673 C672 1.373 . S
C673 C689 1.377 . S
C674 C672 1.389 . S
C674 C675 1.524 . S
C674 C688 1.377 . S
C675 C674 1.524 . S
C675 C676 1.397 . S
C675 C680 1.363 . S
C676 H653 0.950 . S
C676 C675 1.397 . S
C676 C677 1.334 . S
C677 H654 0.950 . S
C677 C676 1.334 . S
C677 C678 1.287 . S
C678 C677 1.287 . S
C678 C679 1.524 . S
C678 H697 0.913 1_565 S
C679 H655 0.936 1_565 S
C679 C678 1.524 . S
C679 C680 1.415 . S
C680 H656 0.950 . S
C680 C675 1.363 . S
C680 C679 1.415 . S
C681 H657 0.951 . S
C681 C682 1.366 . S
C681 C683 1.388 . S
C682 C681 1.366 . S
C682 C686 1.385 . S
C683 H658 0.951 . S
C683 C681 1.388 . S
C683 C684 1.366 . S
C684 C683 1.366 . S
C684 C685 1.414 . S
C684 C687 1.499 . S
C685 H659 0.950 . S
C685 C684 1.414 . S
C685 C686 1.374 . S
C686 H660 0.950 . S
C686 C682 1.385 . S
C686 C685 1.374 . S
C687 C684 1.499 . S
C687 C688 1.373 . S
C687 C689 1.389 . S
C688 H661 0.950 . S
C688 C674 1.377 . S
C688 C687 1.373 . S
C689 C673 1.377 . S
C689 C687 1.389 . S
C689 C690 1.524 . S
C690 C689 1.524 . S
C690 C691 1.397 . S
C690 C695 1.363 . S
C691 H662 0.950 . S
C691 C690 1.397 . S
C691 C692 1.334 . S
C692 H663 0.950 . S
C692 C691 1.334 . S
C692 C693 1.287 . S
C693 C692 1.287 . S
C693 C694 1.524 . S
C693 H696 0.999 . S
C694 H664 0.950 . S
C694 C693 1.524 . S
C694 C695 1.415 . S
C695 H665 0.950 . S
C695 C690 1.363 . S
C695 C694 1.415 . S
H696 C693 0.999 . S
H697 C678 0.913 1_545 S
H698 C716 0.951 . S
H699 C718 0.951 . S
H700 C720 0.950 . S
H701 C721 0.950 . S
H702 C723 0.950 . S
H703 C726 0.950 . S
H704 C727 0.950 1_556 S
H705 C729 0.950 . S
H706 C730 0.950 . S
H707 C731 0.951 . S
H708 C733 0.951 . S
H709 C735 0.950 . S
H710 C736 0.950 . S
H711 C738 0.950 . S
H712 C741 0.950 . S
H713 C742 0.950 . S
H714 C744 0.950 . S
H715 C745 0.950 . S
C716 H698 0.951 . S
C716 C717 1.366 . S
C716 C718 1.388 . S
C717 C716 1.366 . S
C717 C721 1.385 . S
C718 H699 0.951 . S
C718 C716 1.388 . S
C718 C719 1.366 . S
C719 C718 1.366 . S
C719 C720 1.414 . S
C719 C722 1.499 . S
C720 H700 0.950 . S
C720 C719 1.414 . S
C720 C721 1.374 . S
C721 H701 0.950 . S
C721 C717 1.385 . S
C721 C720 1.374 . S
C722 C719 1.499 . S
C722 C723 1.373 . S
C722 C724 1.389 . S
C723 H702 0.950 . S
C723 C722 1.373 . S
C723 C739 1.377 . S
C724 C722 1.389 . S
C724 C725 1.524 . S
C724 C738 1.377 . S
C725 C724 1.524 . S
C725 C726 1.397 . S
C725 C730 1.363 . S
C726 H703 0.950 . S
C726 C725 1.397 . S
C726 C727 1.334 . S
C727 H704 0.950 1_554 S
C727 C726 1.334 . S
C727 C728 1.287 . S
C728 C727 1.287 . S
C728 C729 1.524 . S
C728 H747 0.913 1_554 S
C729 H705 0.950 . S
C729 C728 1.524 . S
C729 C730 1.415 . S
C730 H706 0.950 . S
C730 C725 1.363 . S
C730 C729 1.415 . S
C731 H707 0.951 . S
C731 C732 1.366 . S
C731 C733 1.388 . S
C732 C731 1.366 . S
C732 C736 1.385 . S
C733 H708 0.951 . S
C733 C731 1.388 . S
C733 C734 1.366 . S
C734 C733 1.366 . S
C734 C735 1.414 . S
C734 C737 1.499 . S
C735 H709 0.950 . S
C735 C734 1.414 . S
C735 C736 1.374 . S
C736 H710 0.950 . S
C736 C732 1.385 . S
C736 C735 1.374 . S
C737 C734 1.499 . S
C737 C738 1.373 . S
C737 C739 1.389 . S
C738 H711 0.950 . S
C738 C724 1.377 . S
C738 C737 1.373 . S
C739 C723 1.377 . S
C739 C737 1.389 . S
C739 C740 1.524 . S
C740 C739 1.524 . S
C740 C741 1.397 . S
C740 C745 1.363 . S
C741 H712 0.950 . S
C741 C740 1.397 . S
C741 C742 1.334 . S
C742 H713 0.950 . S
C742 C741 1.334 . S
C742 C743 1.287 . S
C743 C742 1.287 . S
C743 C744 1.524 . S
C743 H746 0.999 . S
C744 H714 0.950 . S
C744 C743 1.524 . S
C744 C745 1.415 . S
C745 H715 0.950 . S
C745 C740 1.363 . S
C745 C744 1.415 . S
H746 C743 0.999 . S
H747 C728 0.913 1_556 S
H748 C766 0.951 . S
H749 C768 0.951 . S
H750 C770 0.950 . S
H751 C771 0.950 . S
H752 C773 0.950 . S
H753 C776 0.950 . S
H754 C777 0.950 . S
H755 C779 0.950 . S
H756 C780 0.950 . S
H757 C781 0.951 . S
H758 C783 0.951 . S
H759 C785 0.950 . S
H760 C786 0.950 . S
H761 C788 0.950 . S
H762 C791 0.938 1_565 S
H763 C792 0.950 . S
H764 C794 0.950 . S
H765 C795 0.950 1_565 S
C766 H748 0.951 . S
C766 C767 1.366 . S
C766 C768 1.388 1_455 S
C767 C766 1.366 . S
C767 C771 1.385 . S
C768 H749 0.951 . S
C768 C766 1.388 1_655 S
C768 C769 1.366 . S
C769 C768 1.366 . S
C769 C770 1.414 1_655 S
C769 C772 1.499 . S
C770 H750 0.950 . S
C770 C769 1.414 1_455 S
C770 C771 1.374 . S
C771 H751 0.950 . S
C771 C767 1.385 . S
C771 C770 1.374 . S
C772 C769 1.499 . S
C772 C773 1.373 . S
C772 C774 1.389 . S
C773 H752 0.950 . S
C773 C772 1.373 . S
C773 C789 1.377 . S
C774 C772 1.389 . S
C774 C775 1.524 . S
C774 C788 1.377 . S
C775 C774 1.524 . S
C775 C776 1.397 . S
C775 C780 1.363 . S
C776 H753 0.950 . S
C776 C775 1.397 . S
C776 C777 1.334 . S
C777 H754 0.950 . S
C777 C776 1.334 . S
C777 C778 1.287 . S
C778 C777 1.287 . S
C778 C779 1.524 . S
C778 H797 0.913 . S
C779 H755 0.950 . S
C779 C778 1.524 . S
C779 C780 1.415 . S
C780 H756 0.950 . S
C780 C775 1.363 . S
C780 C779 1.415 . S
C781 H757 0.951 . S
C781 C782 1.366 . S
C781 C783 1.388 1_545 S
C782 C781 1.366 . S
C782 C786 1.385 1_545 S
C783 H758 0.951 . S
C783 C781 1.388 1_565 S
C783 C784 1.366 . S
C784 C783 1.366 . S
C784 C785 1.414 . S
C784 C787 1.499 . S
C785 H759 0.950 . S
C785 C784 1.414 . S
C785 C786 1.374 . S
C786 H760 0.950 . S
C786 C782 1.385 1_565 S
C786 C785 1.374 . S
C787 C784 1.499 . S
C787 C788 1.373 . S
C787 C789 1.389 . S
C788 H761 0.950 . S
C788 C774 1.377 . S
C788 C787 1.373 . S
C789 C773 1.377 . S
C789 C787 1.389 . S
C789 C790 1.524 . S
C790 C789 1.524 . S
C790 C791 1.397 1_565 S
C790 C795 1.363 1_565 S
C791 H762 0.938 1_545 S
C791 C790 1.397 1_545 S
C791 C792 1.334 . S
C792 H763 0.950 . S
C792 C791 1.334 . S
C792 C793 1.287 . S
C793 C792 1.287 . S
C793 C794 1.524 . S
C793 H796 0.999 . S
C794 H764 0.950 . S
C794 C793 1.524 . S
C794 C795 1.415 . S
C795 H765 0.950 1_545 S
C795 C790 1.363 1_545 S
C795 C794 1.415 . S
H796 C793 0.999 . S
H797 C778 0.913 . S
H798 C816 0.951 . S
H799 C818 0.951 . S
H800 C820 0.950 . S
H801 C821 0.950 . S
H802 C823 0.950 . S
H803 C826 0.950 . S
H804 C827 0.948 1_565 S
H805 C829 0.950 1_565 S
H806 C830 0.950 . S
H807 C831 0.951 . S
H808 C833 0.951 . S
H809 C835 0.950 . S
H810 C836 0.950 1_655 S
H811 C838 0.950 . S
H812 C841 0.950 . S
H813 C842 0.950 . S
H814 C844 0.950 . S
H815 C845 0.950 . S
C816 H798 0.951 . S
C816 C817 1.366 . S
C816 C818 1.388 . S
C817 C816 1.366 . S
C817 C821 1.385 . S
C818 H799 0.951 . S
C818 C816 1.388 . S
C818 C819 1.366 . S
C819 C818 1.366 . S
C819 C820 1.414 . S
C819 C822 1.499 . S
C820 H800 0.950 . S
C820 C819 1.414 . S
C820 C821 1.374 . S
C821 H801 0.950 . S
C821 C817 1.385 . S
C821 C820 1.374 . S
C822 C819 1.499 . S
C822 C823 1.373 . S
C822 C824 1.389 . S
C823 H802 0.950 . S
C823 C822 1.373 . S
C823 C839 1.377 . S
C824 C822 1.389 . S
C824 C825 1.524 . S
C824 C838 1.377 . S
C825 C824 1.524 . S
C825 C826 1.397 . S
C825 C830 1.363 . S
C826 H803 0.950 . S
C826 C825 1.397 . S
C826 C827 1.350 . S
C827 H804 0.948 1_545 S
C827 C826 1.350 . S
C827 C828 1.274 1_545 S
C828 C827 1.274 1_565 S
C828 C829 1.524 1_565 S
C828 H847 0.913 . S
C829 H805 0.950 1_545 S
C829 C828 1.524 1_545 S
C829 C830 1.415 . S
C830 H806 0.950 . S
C830 C825 1.363 . S
C830 C829 1.415 . S
C831 H807 0.951 . S
C831 C832 1.366 . S
C831 C833 1.388 . S
C832 C831 1.366 . S
C832 C836 1.385 . S
C833 H808 0.951 . S
C833 C831 1.388 . S
C833 C834 1.366 . S
C834 C833 1.366 . S
C834 C835 1.414 . S
C834 C837 1.499 . S
C835 H809 0.950 . S
C835 C834 1.414 . S
C835 C836 1.374 . S
C836 H810 0.950 1_455 S
C836 C832 1.385 . S
C836 C835 1.374 . S
C837 C834 1.499 . S
C837 C838 1.373 . S
C837 C839 1.389 . S
C838 H811 0.950 . S
C838 C824 1.377 . S
C838 C837 1.373 . S
C839 C823 1.377 . S
C839 C837 1.389 . S
C839 C840 1.524 . S
C840 C839 1.524 . S
C840 C841 1.397 . S
C840 C845 1.363 . S
C841 H812 0.950 . S
C841 C840 1.397 . S
C841 C842 1.334 . S
C842 H813 0.950 . S
C842 C841 1.334 . S
C842 C843 1.287 . S
C843 C842 1.287 . S
C843 C844 1.524 . S
C843 H846 0.999 . S
C844 H814 0.950 . S
C844 C843 1.524 . S
C844 C845 1.415 . S
C845 H815 0.950 . S
C845 C840 1.363 . S
C845 C844 1.415 . S
H846 C843 0.999 . S
H847 C828 0.913 . S
H848 C866 0.951 . S
H849 C868 0.951 . S
H850 C870 0.950 . S
H851 C871 0.950 . S
H852 C873 0.950 . S
H853 C876 0.950 . S
H854 C877 0.950 . S
H855 C879 0.950 . S
H856 C880 0.950 . S
H857 C881 0.951 1_556 S
H858 C883 0.951 . S
H859 C885 0.950 . S
H860 C886 0.950 . S
H861 C888 0.950 . S
H862 C891 0.950 1_554 S
H863 C892 0.950 . S
H864 C894 0.950 . S
H865 C895 0.950 . S
C866 H848 0.951 . S
C866 C867 1.366 . S
C866 C868 1.388 . S
C867 C866 1.366 . S
C867 C871 1.385 . S
C868 H849 0.951 . S
C868 C866 1.388 . S
C868 C869 1.366 . S
C869 C868 1.366 . S
C869 C870 1.414 . S
C869 C872 1.499 . S
C870 H850 0.950 . S
C870 C869 1.414 . S
C870 C871 1.374 . S
C871 H851 0.950 . S
C871 C867 1.385 . S
C871 C870 1.374 . S
C872 C869 1.499 . S
C872 C873 1.373 . S
C872 C874 1.389 . S
C873 H852 0.950 . S
C873 C872 1.373 . S
C873 C889 1.377 . S
C874 C872 1.389 . S
C874 C875 1.524 . S
C874 C888 1.377 . S
C875 C874 1.524 . S
C875 C876 1.397 . S
C875 C880 1.363 . S
C876 H853 0.950 . S
C876 C875 1.397 . S
C876 C877 1.334 . S
C877 H854 0.950 . S
C877 C876 1.334 . S
C877 C878 1.287 . S
C878 C877 1.287 . S
C878 C879 1.524 . S
C878 H897 0.913 . S
C879 H855 0.950 . S
C879 C878 1.524 . S
C879 C880 1.415 . S
C880 H856 0.950 . S
C880 C875 1.363 . S
C880 C879 1.415 . S
C881 H857 0.951 1_554 S
C881 C882 1.366 . S
C881 C883 1.388 . S
C882 C881 1.366 . S
C882 C886 1.385 . S
C883 H858 0.951 . S
C883 C881 1.388 . S
C883 C884 1.366 . S
C884 C883 1.366 . S
C884 C885 1.414 . S
C884 C887 1.499 . S
C885 H859 0.950 . S
C885 C884 1.414 . S
C885 C886 1.374 . S
C886 H860 0.950 . S
C886 C882 1.385 . S
C886 C885 1.374 . S
C887 C884 1.499 . S
C887 C888 1.373 . S
C887 C889 1.389 . S
C888 H861 0.950 . S
C888 C874 1.377 . S
C888 C887 1.373 . S
C889 C873 1.377 . S
C889 C887 1.389 . S
C889 C890 1.524 1_554 S
C890 C889 1.524 1_556 S
C890 C891 1.397 . S
C890 C895 1.363 . S
C891 H862 0.950 1_556 S
C891 C890 1.397 . S
C891 C892 1.334 . S
C892 H863 0.950 . S
C892 C891 1.334 . S
C892 C893 1.287 . S
C893 C892 1.287 . S
C893 C894 1.524 . S
C893 H896 0.999 . S
C894 H864 0.950 . S
C894 C893 1.524 . S
C894 C895 1.415 . S
C895 H865 0.950 . S
C895 C890 1.363 . S
C895 C894 1.415 . S
H896 C893 0.999 . S
H897 C878 0.913 . S
H898 C916 0.951 . S
H899 C918 0.951 . S
H900 C920 0.950 . S
H901 C921 0.950 . S
H902 C923 0.950 . S
H903 C926 0.950 . S
H904 C927 0.950 . S
H905 C929 0.950 . S
H906 C930 0.950 . S
H907 C931 0.951 . S
H908 C933 0.951 . S
H909 C935 0.950 . S
H910 C936 0.950 1_556 S
H911 C938 0.950 . S
H912 C941 0.950 . S
H913 C942 0.950 . S
H914 C944 0.950 . S
H915 C945 0.950 . S
C916 H898 0.951 . S
C916 C917 1.366 . S
C916 C918 1.388 . S
C917 C916 1.366 . S
C917 C921 1.385 . S
C918 H899 0.951 . S
C918 C916 1.388 . S
C918 C919 1.366 . S
C919 C918 1.366 . S
C919 C920 1.414 . S
C919 C922 1.499 . S
C920 H900 0.950 . S
C920 C919 1.414 . S
C920 C921 1.374 . S
C921 H901 0.950 . S
C921 C917 1.385 . S
C921 C920 1.374 . S
C922 C919 1.499 . S
C922 C923 1.373 . S
C922 C924 1.389 . S
C923 H902 0.950 . S
C923 C922 1.373 . S
C923 C939 1.377 . S
C924 C922 1.389 . S
C924 C925 1.524 . S
C924 C938 1.377 . S
C925 C924 1.524 . S
C925 C926 1.397 . S
C925 C930 1.363 . S
C926 H903 0.950 . S
C926 C925 1.397 . S
C926 C927 1.334 . S
C927 H904 0.950 . S
C927 C926 1.334 . S
C927 C928 1.287 . S
C928 C927 1.287 . S
C928 C929 1.524 . S
C928 H947 0.913 1_455 S
C929 H905 0.950 . S
C929 C928 1.524 . S
C929 C930 1.415 . S
C930 H906 0.950 . S
C930 C925 1.363 . S
C930 C929 1.415 . S
C931 H907 0.951 . S
C931 C932 1.366 . S
C931 C933 1.388 . S
C932 C931 1.366 . S
C932 C936 1.385 . S
C933 H908 0.951 . S
C933 C931 1.388 . S
C933 C934 1.366 . S
C934 C933 1.366 . S
C934 C935 1.414 . S
C934 C937 1.499 . S
C935 H909 0.950 . S
C935 C934 1.414 . S
C935 C936 1.374 . S
C936 H910 0.950 1_554 S
C936 C932 1.385 . S
C936 C935 1.374 . S
C937 C934 1.499 . S
C937 C938 1.373 . S
C937 C939 1.389 . S
C938 H911 0.950 . S
C938 C924 1.377 . S
C938 C937 1.373 . S
C939 C923 1.377 . S
C939 C937 1.389 . S
C939 C940 1.524 . S
C940 C939 1.524 . S
C940 C941 1.397 . S
C940 C945 1.363 . S
C941 H912 0.950 . S
C941 C940 1.397 . S
C941 C942 1.334 . S
C942 H913 0.950 . S
C942 C941 1.334 . S
C942 C943 1.287 . S
C943 C942 1.287 . S
C943 C944 1.524 . S
C943 H946 0.999 . S
C944 H914 0.950 . S
C944 C943 1.524 . S
C944 C945 1.415 . S
C945 H915 0.950 . S
C945 C940 1.363 . S
C945 C944 1.415 . S
H946 C943 0.999 . S
H947 C928 0.913 1_655 S
C217 C127 1.351 . S
C232 N14 1.269 . S
C267 C140 0.493 . S
C282 C8 0.506 . S
C317 N5 0.869 . S
C332 N170 0.847 . S
C367 N80 1.277 . S
C382 C28 1.360 . S
C417 N179 1.318 . S
C432 C41 1.404 . S
C467 N71 0.857 . S
C482 N47 0.589 . S
C517 C61 0.507 . S
C532 C107 0.488 . S
C567 C160 1.326 . S
C582 N38 1.151 . S
C617 C94 1.326 . S
C632 N113 1.248 . S
C667 C74 0.390 . S
C682 C173 0.393 . S
C717 N137 0.920 . S
C732 N104 0.921 . S
C767 C193 1.382 . S
C782 N146 1.301 . S
C817 C50 0.906 . S
C832 C17 0.913 . S
C867 C149 0.751 . S
C882 C83 0.752 . S
C917 C182 0.767 . S
C932 C116 0.767 . S
