# Generated by pormake.
# Topology nfc, (4)-cn, num edge types: 1
# Building blocks:
#     Node 0, Type 0, BuildingBlock: KOZSID_clean_sbu_0, # of connection points: 4
#     Node 1, Type 0, BuildingBlock: KOZSID_clean_sbu_0, # of connection points: 4
#     Node 2, Type 0, BuildingBlock: KOZSID_clean_sbu_0, # of connection points: 4
#     Node 3, Type 0, BuildingBlock: KOZSID_clean_sbu_0, # of connection points: 4
#     Node 4, Type 0, BuildingBlock: KOZSID_clean_sbu_0, # of connection points: 4
#     Node 5, Type 0, BuildingBlock: KOZSID_clean_sbu_0, # of connection points: 4
#     Node 6, Type 0, BuildingBlock: KOZSID_clean_sbu_0, # of connection points: 4
#     Node 7, Type 0, BuildingBlock: KOZSID_clean_sbu_0, # of connection points: 4
#     Node 8, Type 0, BuildingBlock: KOZSID_clean_sbu_0, # of connection points: 4
#     Node 9, Type 0, BuildingBlock: KOZSID_clean_sbu_0, # of connection points: 4
#     Node 10, Type 0, BuildingBlock: KOZSID_clean_sbu_0, # of connection points: 4
#     Node 11, Type 0, BuildingBlock: KOZSID_clean_sbu_0, # of connection points: 4
#     Node 12, Type 0, BuildingBlock: KOZSID_clean_sbu_0, # of connection points: 4
#     Node 13, Type 0, BuildingBlock: KOZSID_clean_sbu_0, # of connection points: 4
#     Node 14, Type 0, BuildingBlock: KOZSID_clean_sbu_0, # of connection points: 4
#     Node 15, Type 0, BuildingBlock: KOZSID_clean_sbu_0, # of connection points: 4
#     Edge 16, Type (0, 0), BuildingBlock: ZUJKAS_clean_linker_0, # of connection points: 2
#     Edge 17, Type (0, 0), BuildingBlock: ZUJKAS_clean_linker_0, # of connection points: 2
#     Edge 18, Type (0, 0), BuildingBlock: ZUJKAS_clean_linker_0, # of connection points: 2
#     Edge 19, Type (0, 0), BuildingBlock: ZUJKAS_clean_linker_0, # of connection points: 2
#     Edge 20, Type (0, 0), BuildingBlock: ZUJKAS_clean_linker_0, # of connection points: 2
#     Edge 21, Type (0, 0), BuildingBlock: ZUJKAS_clean_linker_0, # of connection points: 2
#     Edge 22, Type (0, 0), BuildingBlock: ZUJKAS_clean_linker_0, # of connection points: 2
#     Edge 23, Type (0, 0), BuildingBlock: ZUJKAS_clean_linker_0, # of connection points: 2
#     Edge 24, Type (0, 0), BuildingBlock: ZUJKAS_clean_linker_0, # of connection points: 2
#     Edge 25, Type (0, 0), BuildingBlock: ZUJKAS_clean_linker_0, # of connection points: 2
#     Edge 26, Type (0, 0), BuildingBlock: ZUJKAS_clean_linker_0, # of connection points: 2
#     Edge 27, Type (0, 0), BuildingBlock: ZUJKAS_clean_linker_0, # of connection points: 2
#     Edge 28, Type (0, 0), BuildingBlock: ZUJKAS_clean_linker_0, # of connection points: 2
#     Edge 29, Type (0, 0), BuildingBlock: ZUJKAS_clean_linker_0, # of connection points: 2
#     Edge 30, Type (0, 0), BuildingBlock: ZUJKAS_clean_linker_0, # of connection points: 2
#     Edge 31, Type (0, 0), BuildingBlock: ZUJKAS_clean_linker_0, # of connection points: 2
#     Edge 32, Type (0, 0), BuildingBlock: ZUJKAS_clean_linker_0, # of connection points: 2
#     Edge 33, Type (0, 0), BuildingBlock: ZUJKAS_clean_linker_0, # of connection points: 2
#     Edge 34, Type (0, 0), BuildingBlock: ZUJKAS_clean_linker_0, # of connection points: 2
#     Edge 35, Type (0, 0), BuildingBlock: ZUJKAS_clean_linker_0, # of connection points: 2
#     Edge 36, Type (0, 0), BuildingBlock: ZUJKAS_clean_linker_0, # of connection points: 2
#     Edge 37, Type (0, 0), BuildingBlock: ZUJKAS_clean_linker_0, # of connection points: 2
#     Edge 38, Type (0, 0), BuildingBlock: ZUJKAS_clean_linker_0, # of connection points: 2
#     Edge 39, Type (0, 0), BuildingBlock: ZUJKAS_clean_linker_0, # of connection points: 2
#     Edge 40, Type (0, 0), BuildingBlock: ZUJKAS_clean_linker_0, # of connection points: 2
#     Edge 41, Type (0, 0), BuildingBlock: ZUJKAS_clean_linker_0, # of connection points: 2
#     Edge 42, Type (0, 0), BuildingBlock: ZUJKAS_clean_linker_0, # of connection points: 2
#     Edge 43, Type (0, 0), BuildingBlock: ZUJKAS_clean_linker_0, # of connection points: 2
#     Edge 44, Type (0, 0), BuildingBlock: ZUJKAS_clean_linker_0, # of connection points: 2
#     Edge 45, Type (0, 0), BuildingBlock: ZUJKAS_clean_linker_0, # of connection points: 2
#     Edge 46, Type (0, 0), BuildingBlock: ZUJKAS_clean_linker_0, # of connection points: 2
#     Edge 47, Type (0, 0), BuildingBlock: ZUJKAS_clean_linker_0, # of connection points: 2
# Relax obj value: 0.063
# Max RMSD: 0.137
# Mean RMSD: 0.111
data_MOF--net-nfc--node1-KOZSID_clean_sbu_0--edge1-ZUJKAS_clean_linker_0
_symmetry_space_group_name_H-M    P1
_symmetry_Int_Tables_number       1
_symmetry_cell_setting            triclinic
loop_
_symmetry_equiv_pos_as_xyz
'x, y, z'
_cell_length_a     54.317918
_cell_length_b     54.38038
_cell_length_c     44.10882
_cell_angle_alpha  85.281696
_cell_angle_beta   86.999751
_cell_angle_gamma 85.971123
loop_
_atom_site_label
_atom_site_type_symbol
_atom_site_fract_x
_atom_site_fract_y
_atom_site_fract_z
_atom_type_partial_charge
C0 C 0.98443 0.01574 0.06464 0.0
C1 C 0.9674 0.03253 0.0776 0.0
C2 C 0.95501 0.04503 0.05432 0.0
C3 C 0.96516 0.03549 0.02837 0.0
N4 N 0.98333 0.01754 0.03353 0.0
Co5 Co 0.00375 1.0003 1.00093 0.0
N6 N 0.98633 0.01986 0.96646 0.0
C7 C 0.96786 0.03759 0.96977 0.0
C8 C 0.9585 0.04732 0.9428 0.0
C9 C 0.97167 0.03508 0.92079 0.0
C10 C 0.98861 0.01855 0.9355 0.0
N11 N 0.02401 0.98288 0.96836 0.0
C12 C 0.02305 0.98486 0.93724 0.0
C13 C 0.04084 0.96891 0.92413 0.0
C14 C 0.053 0.95611 0.94742 0.0
C15 C 0.04222 0.96497 0.97348 0.0
N16 N 0.02134 0.9809 0.03538 0.0
C17 C 0.03979 0.96314 0.03207 0.0
C18 C 0.04856 0.95281 0.05911 0.0
C19 C 0.03515 0.96481 0.08114 0.0
C20 C 0.01895 0.9821 0.06635 0.0
N21 N 0.97924 0.97488 1.00162 0.0
C22 C 0.94562 0.93956 0.99219 0.0
C23 C 0.97038 0.93247 0.99706 0.0
C24 C 0.9867 0.95027 0.00193 0.0
C25 C 0.93756 0.9643 0.9946 0.0
C26 C 0.95454 0.9815 0.99948 0.0
N27 N 0.02829 0.02569 1.00026 0.0
C28 C 0.07028 0.03596 0.00571 0.0
C29 C 0.06242 0.06048 0.01001 0.0
C30 C 0.03745 0.06773 0.00672 0.0
C31 C 0.02089 0.05021 1.00155 0.0
C32 C 0.05306 0.01903 1.00083 0.0
H33 H 0.00209 0.05681 0.99976 0.0
H34 H 0.06018 1.00054 0.99854 0.0
H35 H 0.00538 0.94374 0.00495 0.0
H36 H 0.94737 1.00014 1.00038 0.0
C37 C 0.95897 0.04387 0.99868 0.0
C38 C 0.00167 0.99908 0.08297 0.0
C39 C 0.00587 0.00153 0.91893 0.0
C40 C 0.04857 0.95672 0.00316 0.0
H41 H 0.96449 0.03587 0.10139 0.0
H42 H 0.94067 0.05978 0.05607 0.0
H43 H 0.94348 0.06131 0.93954 0.0
H44 H 0.96872 0.03776 0.89665 0.0
H45 H 0.04468 0.96669 0.90016 0.0
H46 H 0.0679 0.94194 0.94556 0.0
H47 H 0.06306 0.93828 0.06243 0.0
H48 H 0.03714 0.96116 0.10539 0.0
H49 H 0.97732 0.91335 0.99629 0.0
H50 H 0.91848 0.97066 0.99118 0.0
H51 H 0.08958 0.02961 0.00699 0.0
H52 H 0.03039 0.08656 0.00963 0.0
C53 C 0.24591 0.78124 0.29231 0.0
C54 C 0.2561 0.80149 0.30279 0.0
C55 C 0.28026 0.80064 0.29263 0.0
C56 C 0.2834 0.78009 0.27649 0.0
N57 N 0.26265 0.76783 0.27545 0.0
Co58 Co 0.25899 0.73692 0.25461 0.0
N59 N 0.29501 0.73473 0.24148 0.0
C60 C 0.31215 0.75047 0.24713 0.0
C61 C 0.33525 0.7444 0.23486 0.0
C62 C 0.33276 0.72359 0.22036 0.0
C63 C 0.30816 0.71812 0.22472 0.0
N64 N 0.25531 0.70607 0.23363 0.0
C65 C 0.2722 0.69233 0.21736 0.0
C66 C 0.26189 0.67236 0.20637 0.0
C67 C 0.23755 0.67365 0.21574 0.0
C68 C 0.23441 0.69419 0.23191 0.0
N69 N 0.22302 0.73901 0.26796 0.0
C70 C 0.20587 0.72329 0.26231 0.0
C71 C 0.18295 0.72892 0.27538 0.0
C72 C 0.1856 0.74935 0.29055 0.0
C73 C 0.21009 0.75509 0.28571 0.0
N74 N 0.25141 0.75716 0.21627 0.0
C75 C 0.24279 0.78318 0.15951 0.0
C76 C 0.22732 0.76499 0.17153 0.0
C77 C 0.2319 0.75237 0.1997 0.0
C78 C 0.26207 0.78881 0.17693 0.0
C79 C 0.26594 0.77576 0.20507 0.0
N80 N 0.26653 0.71674 0.29291 0.0
C81 C 0.25559 0.6852 0.3322 0.0
C82 C 0.27373 0.69193 0.35062 0.0
C83 C 0.2891 0.71033 0.33894 0.0
C84 C 0.28526 0.72232 0.31024 0.0
C85 C 0.25242 0.69766 0.30357 0.0
H86 H 0.29722 0.73654 0.30297 0.0
H87 H 0.23806 0.69191 0.29082 0.0
H88 H 0.21969 0.73845 0.20722 0.0
H89 H 0.28105 0.78082 0.21704 0.0
C90 C 0.30584 0.77122 0.26325 0.0
C91 C 0.22037 0.77537 0.29942 0.0
C92 C 0.29808 0.69744 0.21164 0.0
C93 C 0.21205 0.70286 0.24555 0.0
H94 H 0.24706 0.81532 0.31664 0.0
H95 H 0.29399 0.81325 0.29693 0.0
H96 H 0.35184 0.75415 0.23594 0.0
H97 H 0.34734 0.71375 0.20764 0.0
H98 H 0.27102 0.65834 0.19289 0.0
H99 H 0.22376 0.66117 0.21121 0.0
H100 H 0.16642 0.71904 0.27449 0.0
H101 H 0.17121 0.75867 0.30411 0.0
H102 H 0.21226 0.75977 0.15877 0.0
H103 H 0.27433 0.80303 0.16875 0.0
H104 H 0.24352 0.67072 0.34006 0.0
H105 H 0.30334 0.71634 0.3524 0.0
C106 C 0.45436 0.98859 0.54098 0.0
C107 C 0.43366 0.99969 0.5554 0.0
C108 C 0.4352 0.02463 0.55009 0.0
C109 C 0.45661 0.02747 0.53267 0.0
N110 N 0.46886 0.00583 0.52634 0.0
Co111 Co 0.50096 0.00206 0.50161 0.0
N112 N 0.50351 0.03895 0.49444 0.0
C113 C 0.48699 0.05655 0.50463 0.0
C114 C 0.49297 0.08021 0.49576 0.0
C115 C 0.51458 0.07769 0.47875 0.0
C116 C 0.52072 0.0525 0.47829 0.0
N117 N 0.53307 0.99829 0.47691 0.0
C118 C 0.54755 0.01553 0.46223 0.0
C119 C 0.5683 0.00443 0.44789 0.0
C120 C 0.5668 0.97949 0.4533 0.0
C121 C 0.54539 0.97666 0.4707 0.0
N122 N 0.49839 0.96518 0.50873 0.0
C123 C 0.5149 0.94758 0.4985 0.0
C124 C 0.50889 0.92391 0.50729 0.0
C125 C 0.48726 0.92643 0.52427 0.0
C126 C 0.48114 0.95162 0.5248 0.0
N127 N 0.4826 0.00242 0.46385 0.0
C128 C 0.46051 0.00583 0.40714 0.0
C129 C 0.47761 0.9863 0.4153 0.0
C130 C 0.4884 0.98504 0.4434 0.0
C131 C 0.45355 0.02277 0.42868 0.0
C132 C 0.46455 0.02057 0.45678 0.0
N133 N 0.51932 0.00171 0.53938 0.0
C134 C 0.54816 0.98122 0.57472 0.0
C135 C 0.54141 0.99835 0.5961 0.0
C136 C 0.52451 0.01801 0.58778 0.0
C137 C 0.51371 0.01923 0.55968 0.0
C138 C 0.53718 0.9834 0.54661 0.0
H139 H 0.50051 0.03429 0.55521 0.0
H140 H 0.54305 0.9697 0.53146 0.0
H141 H 0.50176 0.9701 0.44776 0.0
H142 H 0.45854 0.03413 0.47206 0.0
C143 C 0.46579 0.05017 0.52211 0.0
C144 C 0.45912 0.96159 0.54167 0.0
C145 C 0.54273 0.04252 0.4614 0.0
C146 C 0.53616 0.95395 0.48116 0.0
H147 H 0.4189 0.9907 0.56839 0.0
H148 H 0.42225 0.03902 0.55804 0.0
H149 H 0.48267 0.09728 0.50078 0.0
H150 H 0.52452 0.09274 0.46762 0.0
H151 H 0.58303 0.01343 0.43487 0.0
H152 H 0.57977 0.96511 0.44538 0.0
H153 H 0.51918 0.90684 0.50227 0.0
H154 H 0.4773 0.91138 0.53535 0.0
H155 H 0.48307 0.97219 0.39986 0.0
H156 H 0.44037 0.03824 0.42359 0.0
H157 H 0.56118 0.96562 0.57992 0.0
H158 H 0.51922 0.03226 0.60308 0.0
C159 C 0.27307 0.19876 0.7747 0.0
C160 C 0.26465 0.17593 0.78515 0.0
C161 C 0.23984 0.1774 0.78119 0.0
C162 C 0.23457 0.20093 0.76855 0.0
N163 N 0.25457 0.21446 0.7636 0.0
Co164 Co 0.25501 0.25003 0.74736 0.0
N165 N 0.2182 0.2528 0.74356 0.0
C166 C 0.20255 0.23456 0.74989 0.0
C167 C 0.17858 0.24143 0.74321 0.0
C168 C 0.17893 0.26539 0.73146 0.0
C169 C 0.20319 0.27185 0.73184 0.0
N170 N 0.25538 0.28581 0.73207 0.0
C171 C 0.23673 0.30195 0.72235 0.0
C172 C 0.24496 0.32524 0.71388 0.0
C173 C 0.26979 0.32363 0.71773 0.0
C174 C 0.27526 0.29961 0.72849 0.0
N175 N 0.29189 0.24706 0.7503 0.0
C176 C 0.30775 0.26478 0.74196 0.0
C177 C 0.3319 0.25758 0.7474 0.0
C178 C 0.33146 0.23393 0.76029 0.0
C179 C 0.30695 0.22802 0.76193 0.0
N180 N 0.25892 0.24027 0.70487 0.0
C181 C 0.26065 0.22972 0.64323 0.0
C182 C 0.27439 0.24819 0.65282 0.0
C183 C 0.27342 0.25297 0.68349 0.0
C184 C 0.2469 0.21592 0.6653 0.0
C185 C 0.24628 0.22147 0.69568 0.0
N186 N 0.25109 0.25975 0.78979 0.0
C187 C 0.26652 0.27956 0.83137 0.0
C188 C 0.24878 0.26925 0.85167 0.0
C189 C 0.2315 0.25503 0.84022 0.0
C190 C 0.23296 0.25058 0.80944 0.0
C191 C 0.26725 0.27473 0.80074 0.0
H192 H 0.21959 0.23917 0.80226 0.0
H193 H 0.28136 0.28294 0.78653 0.0
H194 H 0.28415 0.26741 0.68917 0.0
H195 H 0.23511 0.21051 0.71116 0.0
C196 C 0.211 0.21102 0.7616 0.0
C197 C 0.29865 0.20481 0.77662 0.0
C198 C 0.21126 0.29587 0.71951 0.0
C199 C 0.29909 0.28888 0.73267 0.0
H200 H 0.2753 0.15997 0.79506 0.0
H201 H 0.2271 0.16318 0.7873 0.0
H202 H 0.16282 0.23019 0.74597 0.0
H203 H 0.16314 0.27663 0.72299 0.0
H204 H 0.23421 0.34156 0.70514 0.0
H205 H 0.28247 0.33803 0.71238 0.0
H206 H 0.34778 0.2686 0.74375 0.0
H207 H 0.34732 0.22269 0.76852 0.0
H208 H 0.28527 0.25955 0.63668 0.0
H209 H 0.23641 0.20099 0.6592 0.0
H210 H 0.27999 0.29113 0.83911 0.0
H211 H 0.21744 0.24658 0.85511 0.0
C212 C 0.99132 0.98192 0.56797 0.0
C213 C 0.9767 0.96532 0.58477 0.0
C214 C 0.96424 0.95391 0.56438 0.0
C215 C 0.97196 0.96399 0.53627 0.0
N216 N 0.9888 0.98102 0.53733 0.0
Co217 Co 0.004 1.00039 0.50089 0.0
N218 N 0.98403 0.98506 0.47089 0.0
C219 C 0.96716 0.96814 0.47826 0.0
C220 C 0.9572 0.95964 0.45353 0.0
C221 C 0.96843 0.97168 0.42875 0.0
C222 C 0.98461 0.98716 0.43964 0.0
N223 N 0.01941 0.01955 0.46443 0.0
C224 C 0.01683 0.01872 0.43377 0.0
C225 C 0.03152 0.03534 0.41705 0.0
C226 C 0.04424 0.04644 0.43744 0.0
C227 C 0.03657 0.03627 0.46551 0.0
N228 N 0.02377 0.01593 0.53092 0.0
C229 C 0.04028 0.0332 0.52368 0.0
C230 C 0.05027 0.04159 0.54848 0.0
C231 C 0.03932 0.02917 0.5732 0.0
C232 C 0.02323 0.01371 0.56215 0.0
N233 N 0.03046 0.97364 0.49648 0.0
C234 C 0.06698 0.93728 0.47957 0.0
C235 C 0.07309 0.96131 0.48351 0.0
C236 C 0.05472 0.979 0.49209 0.0
C237 C 0.04262 0.93132 0.48653 0.0
C238 C 0.02486 0.94959 0.49513 0.0
N239 N 0.97757 0.02717 0.50533 0.0
C240 C 0.96567 0.07001 0.51278 0.0
C241 C 0.94187 0.06405 0.523 0.0
C242 C 0.93571 0.03964 0.52176 0.0
C243 C 0.95362 0.02172 0.51258 0.0
C244 C 0.98304 0.05146 0.50399 0.0
H245 H 0.94785 0.00343 0.51262 0.0
H246 H 1.00094 0.05716 0.49709 0.0
H247 H 0.0605 0.99705 0.49416 0.0
H248 H 0.00659 0.94394 0.49957 0.0
C249 C 0.9626 0.95909 0.50855 0.0
C250 C 0.00717 0.99809 0.58243 0.0
C251 C 1.00081 0.00266 0.41924 0.0
C252 C 0.04537 0.04174 0.49332 0.0
H253 H 0.97499 0.96198 0.60929 0.0
H254 H 0.95074 0.94026 0.56948 0.0
H255 H 0.94397 0.94566 0.45349 0.0
H256 H 0.96545 0.96874 0.40531 0.0
H257 H 0.033 0.03905 0.39257 0.0
H258 H 0.05765 0.06019 0.43238 0.0
H259 H 0.06356 0.0555 0.54861 0.0
H260 H 0.04247 0.03164 0.59674 0.0
H261 H 0.09189 0.96665 0.47937 0.0
H262 H 0.03691 0.91294 0.48404 0.0
H263 H 0.97113 0.08882 0.51222 0.0
H264 H 0.9175 0.034 0.52919 0.0
C265 C 0.26605 0.79781 0.71195 0.0
C266 C 0.2551 0.81833 0.6958 0.0
C267 C 0.23017 0.81659 0.69943 0.0
C268 C 0.22718 0.79528 0.7177 0.0
N269 N 0.24871 0.78323 0.72607 0.0
Co270 Co 0.2522 0.75166 0.7533 0.0
N271 N 0.21539 0.74859 0.75761 0.0
C272 C 0.19799 0.76435 0.74438 0.0
C273 C 0.17429 0.75797 0.75141 0.0
C274 C 0.17658 0.73684 0.77028 0.0
C275 C 0.20168 0.73138 0.77368 0.0
N276 N 0.25567 0.72034 0.781 0.0
C277 C 0.2383 0.70595 0.79543 0.0
C278 C 0.24921 0.68597 0.81262 0.0
C279 C 0.27414 0.68788 0.80931 0.0
C280 C 0.27717 0.70877 0.79028 0.0
N281 N 0.28903 0.75447 0.74851 0.0
C282 C 0.30647 0.73823 0.76085 0.0
C283 C 0.33018 0.74418 0.753 0.0
C284 C 0.32787 0.76546 0.73439 0.0
C285 C 0.30274 0.77147 0.73204 0.0
N286 N 0.25056 0.77119 0.7895 0.0
C287 C 0.24585 0.79537 0.84381 0.0
C288 C 0.26555 0.77808 0.8385 0.0
C289 C 0.2676 0.76645 0.8114 0.0
C290 C 0.22919 0.80118 0.82082 0.0
C291 C 0.23191 0.78902 0.79403 0.0
N292 N 0.25385 0.73207 0.71714 0.0
C293 C 0.2731 0.69921 0.68854 0.0
C294 C 0.25857 0.70661 0.66379 0.0
C295 C 0.24098 0.7264 0.66672 0.0
C296 C 0.23884 0.73863 0.6934 0.0
C297 C 0.27046 0.71208 0.71475 0.0
H298 H 0.22522 0.75363 0.69402 0.0
H299 H 0.28231 0.70566 0.73254 0.0
H300 H 0.28281 0.75324 0.80906 0.0
H301 H 0.21843 0.79406 0.77761 0.0
C302 C 0.20448 0.7856 0.72653 0.0
C303 C 0.29299 0.79324 0.71327 0.0
C304 C 0.21139 0.71004 0.79321 0.0
C305 C 0.29994 0.7177 0.78005 0.0
H306 H 0.26419 0.83308 0.6827 0.0
H307 H 0.21589 0.82927 0.68973 0.0
H308 H 0.15732 0.76776 0.74408 0.0
H309 H 0.16142 0.7268 0.78072 0.0
H310 H 0.24011 0.67139 0.82603 0.0
H311 H 0.2884 0.67539 0.81942 0.0
H312 H 0.34717 0.73416 0.75988 0.0
H313 H 0.34301 0.77532 0.72358 0.0
H314 H 0.27887 0.77269 0.85565 0.0
H315 H 0.21387 0.8148 0.82361 0.0
H316 H 0.28667 0.68367 0.68767 0.0
H317 H 0.22939 0.73308 0.64813 0.0
C318 C 0.45633 0.01441 0.96593 0.0
C319 C 0.43521 0.00448 0.9571 0.0
C320 C 0.43585 0.98057 0.96921 0.0
C321 C 0.45723 0.97724 0.98464 0.0
N322 N 0.47034 0.9976 0.98317 0.0
Co323 Co 0.50266 0.00079 0.00217 0.0
N324 N 0.5035 0.96556 0.02011 0.0
C325 C 0.4863 0.94905 0.01768 0.0
C326 C 0.49159 0.92648 0.0329 0.0
C327 C 0.5135 0.9286 0.04586 0.0
C328 C 0.52042 0.95243 0.03761 0.0
N329 N 0.535 0.00398 0.02111 0.0
C330 C 0.54906 0.98717 0.03832 0.0
C331 C 0.57048 0.99696 0.04645 0.0
C332 C 0.56985 0.02085 0.03425 0.0
C333 C 0.54826 0.02426 0.01929 0.0
N334 N 0.5018 0.03605 0.98428 0.0
C335 C 0.51884 0.05266 0.98696 0.0
C336 C 0.51326 0.07539 0.97224 0.0
C337 C 0.49133 0.07324 0.95933 0.0
C338 C 0.48481 0.04919 0.96692 0.0
N339 N 0.4847 0.01165 0.03959 0.0
C340 C 0.46169 0.02483 0.09524 0.0
C341 C 0.48019 0.0387 0.08061 0.0
C342 C 0.49142 0.03178 0.05316 0.0
C343 C 0.45412 0.00495 0.08071 0.0
C344 C 0.46562 0.99889 0.05303 0.0
N345 N 0.52061 0.98995 0.96473 0.0
C346 C 0.55054 0.99717 0.92299 0.0
C347 C 0.5432 0.97704 0.90873 0.0
C348 C 0.52524 0.96275 0.92384 0.0
C349 C 0.51422 0.96953 0.95148 0.0
C350 C 0.53926 0.00308 0.95085 0.0
H351 H 0.50028 0.9582 0.96138 0.0
H352 H 0.54559 0.01872 0.96031 0.0
H353 H 0.50576 0.04277 0.04365 0.0
H354 H 0.45907 0.98348 0.04331 0.0
C355 C 0.46534 0.95533 1.00092 0.0
C356 C 0.46226 0.03982 0.95715 0.0
C357 C 0.54309 0.96174 0.04728 0.0
C358 C 0.53998 0.04628 0.00333 0.0
H359 H 0.42085 0.0136 0.94328 0.0
H360 H 0.42232 0.96719 0.96705 0.0
H361 H 0.48075 0.91042 0.03448 0.0
H362 H 0.5232 0.91423 0.05993 0.0
H363 H 0.58513 0.98779 0.05974 0.0
H364 H 0.58355 0.03413 0.036 0.0
H365 H 0.52389 0.09158 0.97103 0.0
H366 H 0.48126 0.08774 0.94583 0.0
H367 H 0.48635 0.05465 0.0905 0.0
H368 H 0.44 0.99344 0.09108 0.0
H369 H 0.56424 0.009 0.91226 0.0
H370 H 0.5193 0.9466 0.91417 0.0
C371 C 0.21833 0.24267 0.30846 0.0
C372 C 0.19828 0.25351 0.32441 0.0
C373 C 0.18869 0.27258 0.30562 0.0
C374 C 0.2034 0.27238 0.27943 0.0
N375 N 0.22144 0.25388 0.28006 0.0
Co376 Co 0.24844 0.2479 0.24824 0.0
N377 N 0.23688 0.2783 0.22269 0.0
C378 C 0.2178 0.29469 0.22916 0.0
C379 C 0.21351 0.31279 0.20615 0.0
C380 C 0.23045 0.30726 0.18333 0.0
C381 C 0.24409 0.28606 0.19388 0.0
N382 N 0.27552 0.24195 0.21653 0.0
C383 C 0.27893 0.25346 0.1884 0.0
C384 C 0.29918 0.24295 0.17255 0.0
C385 C 0.30862 0.22365 0.19116 0.0
C386 C 0.29362 0.22351 0.21717 0.0
N387 N 0.25995 0.21746 0.2737 0.0
C388 C 0.27879 0.20085 0.26703 0.0
C389 C 0.2829 0.1826 0.28991 0.0
C390 C 0.26612 0.18827 0.31285 0.0
C391 C 0.25279 0.20974 0.30254 0.0
N392 N 0.22668 0.2283 0.22632 0.0
C393 C 0.19833 0.20386 0.18807 0.0
C394 C 0.22183 0.19416 0.19587 0.0
C395 C 0.23552 0.20653 0.21493 0.0
C396 C 0.18879 0.22538 0.20081 0.0
C397 C 0.2031 0.23709 0.21995 0.0
N398 N 0.27027 0.26758 0.26989 0.0
C399 C 0.30949 0.2722 0.29152 0.0
C400 C 0.30107 0.29519 0.30129 0.0
C401 C 0.27697 0.30411 0.29523 0.0
C402 C 0.26198 0.29008 0.27973 0.0
C403 C 0.29394 0.25885 0.27591 0.0
H404 H 0.24372 0.29775 0.27617 0.0
H405 H 0.30149 0.24152 0.26901 0.0
H406 H 0.25347 0.19845 0.21939 0.0
H407 H 0.19486 0.25351 0.22874 0.0
C408 C 0.20267 0.29098 0.25555 0.0
C409 C 0.2355 0.22361 0.32205 0.0
C410 C 0.26195 0.27255 0.17476 0.0
C411 C 0.29414 0.20468 0.2408 0.0
H412 H 0.19187 0.2489 0.34766 0.0
H413 H 0.17367 0.28589 0.31107 0.0
H414 H 0.19897 0.32747 0.20544 0.0
H415 H 0.23195 0.31701 0.16097 0.0
H416 H 0.30571 0.24804 0.14944 0.0
H417 H 0.32375 0.21047 0.18572 0.0
H418 H 0.29729 0.16777 0.29051 0.0
H419 H 0.26462 0.17851 0.3352 0.0
H420 H 0.23002 0.17752 0.18651 0.0
H421 H 0.17041 0.23325 0.19593 0.0
H422 H 0.32814 0.26466 0.29548 0.0
H423 H 0.26956 0.32172 0.30276 0.0
C424 C 0.72572 0.30324 0.78287 0.0
C425 C 0.73393 0.32582 0.78913 0.0
C426 C 0.75691 0.32732 0.77543 0.0
C427 C 0.76138 0.30572 0.76156 0.0
N428 N 0.74258 0.29052 0.76537 0.0
Co429 Co 0.74148 0.25714 0.74931 0.0
N430 N 0.77522 0.25956 0.72881 0.0
C431 C 0.78986 0.27874 0.72838 0.0
C432 C 0.81153 0.27556 0.71141 0.0
C433 C 0.81068 0.25307 0.70011 0.0
C434 C 0.78847 0.24373 0.71103 0.0
N435 N 0.74057 0.22355 0.73372 0.0
C436 C 0.75731 0.21095 0.71595 0.0
C437 C 0.74956 0.18793 0.71072 0.0
C438 C 0.72696 0.18604 0.72535 0.0
C439 C 0.72227 0.20783 0.73876 0.0
N440 N 0.70751 0.25493 0.76924 0.0
C441 C 0.6926 0.23602 0.76898 0.0
C442 C 0.67042 0.23971 0.78474 0.0
C443 C 0.67113 0.26234 0.79575 0.0
C444 C 0.6938 0.27121 0.78594 0.0
N445 N 0.72668 0.27253 0.7116 0.0
C446 C 0.70962 0.29101 0.65453 0.0
C447 C 0.69974 0.27034 0.67018 0.0
C448 C 0.70832 0.2616 0.69858 0.0
C449 C 0.72709 0.30317 0.66869 0.0
C450 C 0.73529 0.29369 0.69704 0.0
N451 N 0.75635 0.24171 0.78703 0.0
C452 C 0.75481 0.21253 0.83137 0.0
C453 C 0.77515 0.22226 0.843 0.0
C454 C 0.78657 0.24119 0.82548 0.0
C455 C 0.77697 0.25053 0.79778 0.0
C456 C 0.74587 0.22237 0.80356 0.0
H457 H 0.78633 0.26516 0.78577 0.0
H458 H 0.73012 0.21435 0.79632 0.0
H459 H 0.70025 0.24562 0.70918 0.0
H460 H 0.74911 0.30341 0.70627 0.0
C461 C 0.78272 0.29953 0.74406 0.0
C462 C 0.70167 0.29488 0.79381 0.0
C463 C 0.7806 0.22004 0.70328 0.0
C464 C 0.70036 0.21458 0.75486 0.0
H465 H 0.72427 0.33985 0.80216 0.0
H466 H 0.76886 0.34243 0.77539 0.0
H467 H 0.82611 0.2882 0.7075 0.0
H468 H 0.82472 0.24463 0.68523 0.0
H469 H 0.75916 0.17402 0.69746 0.0
H470 H 0.71518 0.17075 0.72578 0.0
H471 H 0.65565 0.22726 0.7882 0.0
H472 H 0.6567 0.27115 0.80975 0.0
H473 H 0.6858 0.2606 0.66025 0.0
H474 H 0.7353 0.31926 0.65735 0.0
H475 H 0.74512 0.19801 0.84418 0.0
H476 H 0.80266 0.24907 0.83327 0.0
C477 C 0.76932 0.70076 0.28129 0.0
C478 C 0.76105 0.67746 0.28958 0.0
C479 C 0.73625 0.6791 0.28545 0.0
C480 C 0.73081 0.70318 0.27489 0.0
N481 N 0.75069 0.71699 0.27172 0.0
Co482 Co 0.75105 0.753 0.25746 0.0
N483 N 0.71423 0.75596 0.25426 0.0
C484 C 0.69833 0.7382 0.26217 0.0
C485 C 0.67417 0.74561 0.25695 0.0
C486 C 0.67467 0.76944 0.24463 0.0
C487 C 0.69923 0.77514 0.24295 0.0
N488 N 0.75149 0.78882 0.24221 0.0
C489 C 0.733 0.80467 0.23139 0.0
C490 C 0.74148 0.82751 0.22107 0.0
C491 C 0.76628 0.82596 0.22514 0.0
C492 C 0.77152 0.80235 0.23754 0.0
N493 N 0.7878 0.75024 0.26157 0.0
C494 C 0.8035 0.76846 0.25563 0.0
C495 C 0.82749 0.76136 0.2621 0.0
C496 C 0.82706 0.73726 0.27335 0.0
C497 C 0.80272 0.73106 0.27308 0.0
N498 N 0.75517 0.74406 0.2147 0.0
C499 C 0.75786 0.73556 0.15242 0.0
C500 C 0.77516 0.74938 0.16455 0.0
C501 C 0.7735 0.75334 0.19548 0.0
C502 C 0.73985 0.72516 0.17231 0.0
C503 C 0.73896 0.72948 0.20311 0.0
N504 N 0.74695 0.76198 0.30026 0.0
C505 C 0.75881 0.78566 0.34058 0.0
C506 C 0.74487 0.77164 0.36222 0.0
C507 C 0.73119 0.75336 0.35206 0.0
C508 C 0.73236 0.749 0.32125 0.0
C509 C 0.75959 0.78056 0.31003 0.0
H510 H 0.72169 0.73466 0.31513 0.0
H511 H 0.77087 0.79168 0.29487 0.0
H512 H 0.78701 0.76434 0.20315 0.0
H513 H 0.72462 0.72128 0.21695 0.0
C514 C 0.70697 0.71398 0.27089 0.0
C515 C 0.79464 0.70695 0.28478 0.0
C516 C 0.70751 0.79854 0.22899 0.0
C517 C 0.79509 0.79214 0.24434 0.0
H518 H 0.77169 0.66117 0.29858 0.0
H519 H 0.72354 0.66471 0.29068 0.0
H520 H 0.65822 0.73466 0.26047 0.0
H521 H 0.65888 0.78108 0.23692 0.0
H522 H 0.73093 0.84346 0.21102 0.0
H523 H 0.77907 0.84016 0.21911 0.0
H524 H 0.84333 0.7725 0.25939 0.0
H525 H 0.8428 0.72564 0.28128 0.0
H526 H 0.78985 0.75733 0.15024 0.0
H527 H 0.72594 0.71439 0.16407 0.0
H528 H 0.76928 0.80044 0.34713 0.0
H529 H 0.72018 0.74186 0.36788 0.0
C530 C 0.7624 0.30031 0.20988 0.0
C531 C 0.75149 0.31965 0.19167 0.0
C532 C 0.72664 0.31697 0.19382 0.0
C533 C 0.72369 0.29624 0.21318 0.0
N534 N 0.7451 0.28565 0.22392 0.0
Co535 Co 0.74868 0.25421 0.2513 0.0
N536 N 0.71197 0.25038 0.25469 0.0
C537 C 0.69448 0.26664 0.24254 0.0
C538 C 0.6708 0.26042 0.25006 0.0
C539 C 0.6732 0.23902 0.26845 0.0
C540 C 0.69835 0.23319 0.27094 0.0
N541 N 0.75239 0.22205 0.27728 0.0
C542 C 0.73521 0.20686 0.29047 0.0
C543 C 0.74635 0.18598 0.30568 0.0
C544 C 0.77125 0.18821 0.3025 0.0
C545 C 0.77401 0.21011 0.28534 0.0
N546 N 0.78524 0.25874 0.24937 0.0
C547 C 0.80251 0.24367 0.26384 0.0
C548 C 0.82607 0.25106 0.25857 0.0
C549 C 0.82378 0.27214 0.23958 0.0
C550 C 0.79883 0.27651 0.23426 0.0
N551 N 0.745 0.27295 0.28813 0.0
C552 C 0.73566 0.2963 0.34267 0.0
C553 C 0.75255 0.27575 0.34115 0.0
C554 C 0.75712 0.26466 0.31383 0.0
C555 C 0.72449 0.30567 0.31592 0.0
C556 C 0.72935 0.29381 0.28915 0.0
N557 N 0.7523 0.23559 0.21432 0.0
C558 C 0.77817 0.21215 0.17916 0.0
C559 C 0.76037 0.21606 0.15721 0.0
C560 C 0.73774 0.22817 0.16532 0.0
C561 C 0.73415 0.23775 0.19367 0.0
C562 C 0.77366 0.22176 0.2075 0.0
H563 H 0.71676 0.24744 0.19793 0.0
H564 H 0.78808 0.21841 0.22308 0.0
H565 H 0.77011 0.24904 0.3143 0.0
H566 H 0.71987 0.30164 0.26976 0.0
C567 C 0.70101 0.28699 0.22308 0.0
C568 C 0.78924 0.29705 0.21342 0.0
C569 C 0.70824 0.21139 0.28955 0.0
C570 C 0.79634 0.22127 0.27923 0.0
H571 H 0.76054 0.33432 0.17833 0.0
H572 H 0.71239 0.32886 0.1828 0.0
H573 H 0.65378 0.27029 0.24303 0.0
H574 H 0.6581 0.22896 0.27901 0.0
H575 H 0.7374 0.17084 0.31816 0.0
H576 H 0.78562 0.17566 0.31226 0.0
H577 H 0.84302 0.24172 0.26666 0.0
H578 H 0.83891 0.28266 0.23004 0.0
H579 H 0.76165 0.26755 0.36116 0.0
H580 H 0.71176 0.32193 0.31562 0.0
H581 H 0.79595 0.20269 0.17416 0.0
H582 H 0.72297 0.23087 0.14956 0.0
C583 C 0.71966 0.75055 0.81608 0.0
C584 C 0.69875 0.76025 0.83145 0.0
C585 C 0.68904 0.77936 0.81275 0.0
C586 C 0.70453 0.78015 0.78716 0.0
N587 N 0.72318 0.76228 0.78811 0.0
Co588 Co 0.75097 0.75737 0.75708 0.0
N589 N 0.73901 0.78762 0.73161 0.0
C590 C 0.71956 0.80362 0.73796 0.0
C591 C 0.71525 0.82185 0.71509 0.0
C592 C 0.73257 0.81679 0.69249 0.0
C593 C 0.7464 0.79569 0.70297 0.0
N594 N 0.77871 0.75243 0.72589 0.0
C595 C 0.782 0.76392 0.69768 0.0
C596 C 0.80267 0.75384 0.68215 0.0
C597 C 0.81251 0.73494 0.70101 0.0
C598 C 0.7973 0.7345 0.72682 0.0
N599 N 0.76298 0.72713 0.78266 0.0
C600 C 0.78268 0.71138 0.77645 0.0
C601 C 0.78718 0.69328 0.79937 0.0
C602 C 0.76974 0.69814 0.82188 0.0
C603 C 0.75552 0.71896 0.81126 0.0
N604 N 0.73036 0.73711 0.73451 0.0
C605 C 0.70138 0.70864 0.70176 0.0
C606 C 0.72559 0.70053 0.70836 0.0
C607 C 0.73966 0.71497 0.72454 0.0
C608 C 0.69193 0.73128 0.71166 0.0
C609 C 0.7066 0.74507 0.72793 0.0
N610 N 0.77152 0.77754 0.77992 0.0
C611 C 0.80874 0.78143 0.80636 0.0
C612 C 0.79828 0.80247 0.81946 0.0
C613 C 0.77464 0.81148 0.8113 0.0
C614 C 0.76174 0.79889 0.79159 0.0
C615 C 0.79521 0.76946 0.78666 0.0
H616 H 0.7437 0.80651 0.78668 0.0
H617 H 0.8041 0.75335 0.77784 0.0
H618 H 0.75804 0.70788 0.72851 0.0
H619 H 0.6983 0.76213 0.73487 0.0
C620 C 0.70386 0.79914 0.76372 0.0
C621 C 0.73698 0.73198 0.83014 0.0
C622 C 0.76448 0.78246 0.68378 0.0
C623 C 0.79816 0.71575 0.75051 0.0
H624 H 0.69198 0.75477 0.85436 0.0
H625 H 0.67338 0.79201 0.81791 0.0
H626 H 0.70041 0.83621 0.71423 0.0
H627 H 0.73413 0.82668 0.67022 0.0
H628 H 0.80935 0.75882 0.6591 0.0
H629 H 0.82804 0.72215 0.69582 0.0
H630 H 0.80218 0.67908 0.80029 0.0
H631 H 0.76839 0.68814 0.84407 0.0
H632 H 0.73381 0.68323 0.70075 0.0
H633 H 0.67315 0.7382 0.70728 0.0
H634 H 0.82702 0.7737 0.81194 0.0
H635 H 0.766 0.82813 0.8202 0.0
C636 C 0.46639 0.50383 0.55485 0.0
C637 C 0.4448 0.51664 0.56457 0.0
C638 C 0.43851 0.53364 0.5413 0.0
C639 C 0.45648 0.53017 0.51879 0.0
N640 N 0.47366 0.51166 0.52607 0.0
Co641 Co 0.50329 0.50047 0.5005 0.0
N642 N 0.49534 0.52693 0.46743 0.0
C643 C 0.47665 0.54474 0.46761 0.0
C644 C 0.47557 0.55968 0.44104 0.0
C645 C 0.4944 0.55056 0.42257 0.0
C646 C 0.50583 0.53052 0.43906 0.0
N647 N 0.5328 0.48916 0.4747 0.0
C648 C 0.53943 0.49637 0.44548 0.0
C649 C 0.56049 0.483 0.43523 0.0
C650 C 0.5672 0.46638 0.45872 0.0
C651 C 0.54988 0.47052 0.48179 0.0
N652 N 0.51135 0.47412 0.53372 0.0
C653 C 0.53056 0.45684 0.53381 0.0
C654 C 0.53193 0.44207 0.56045 0.0
C655 C 0.51271 0.45066 0.57868 0.0
C656 C 0.50061 0.47021 0.56197 0.0
N657 N 0.48311 0.47767 0.48122 0.0
C658 C 0.45525 0.44588 0.45166 0.0
C659 C 0.47813 0.43765 0.4631 0.0
C660 C 0.49161 0.4537 0.4777 0.0
C661 C 0.44645 0.47022 0.45554 0.0
C662 C 0.46056 0.48565 0.47023 0.0
N663 N 0.52351 0.52332 0.51976 0.0
C664 C 0.56102 0.53134 0.5433 0.0
C665 C 0.55175 0.55528 0.54856 0.0
C666 C 0.52816 0.56302 0.539 0.0
C667 C 0.51449 0.54689 0.52476 0.0
C668 C 0.54672 0.51581 0.52903 0.0
H669 H 0.49661 0.55387 0.51829 0.0
H670 H 0.55484 0.4978 0.52591 0.0
H671 H 0.50898 0.44636 0.48565 0.0
H672 H 0.45288 0.50401 0.47225 0.0
C673 C 0.45887 0.54524 0.49168 0.0
C674 C 0.48022 0.48568 0.57456 0.0
C675 C 0.52516 0.51423 0.42596 0.0
C676 C 0.54795 0.456 0.50934 0.0
H677 H 0.43509 0.5144 0.58658 0.0
H678 H 0.42317 0.54748 0.54123 0.0
H679 H 0.46202 0.57466 0.43527 0.0
H680 H 0.49869 0.55725 0.39923 0.0
H681 H 0.56955 0.48456 0.41278 0.0
H682 H 0.58229 0.45228 0.45856 0.0
H683 H 0.54576 0.42738 0.5663 0.0
H684 H 0.50861 0.44375 0.60196 0.0
H685 H 0.48586 0.41901 0.46035 0.0
H686 H 0.42864 0.47736 0.4475 0.0
H687 H 0.57936 0.5246 0.5499 0.0
H688 H 0.52004 0.58132 0.54292 0.0
C689 C 0.95318 0.49003 0.0409 0.0
C690 C 0.93195 0.50133 0.0539 0.0
C691 C 0.9333 0.5262 0.04757 0.0
C692 C 0.95512 0.52879 0.03094 0.0
N693 N 0.96787 0.50707 0.02619 0.0
Co694 Co 1.00028 0.50295 0.00217 0.0
N695 N 0.00273 0.53977 0.99394 0.0
C696 C 0.98619 0.55753 0.00369 0.0
C697 C 0.99232 0.5811 0.9946 0.0
C698 C 0.01414 0.57835 0.97804 0.0
C699 C 0.02021 0.55312 0.97802 0.0
N700 N 0.03245 0.49882 0.97766 0.0
C701 C 0.047 0.51587 0.96269 0.0
C702 C 0.06765 0.50453 0.94845 0.0
C703 C 0.06604 0.47963 0.95424 0.0
C704 C 0.04463 0.47707 0.97172 0.0
N705 N 0.9981 0.46615 0.01098 0.0
C706 C 0.01504 0.44843 0.00206 0.0
C707 C 0.00935 0.42489 0.01208 0.0
C708 C 0.98748 0.42765 0.02853 0.0
C709 C 0.98088 0.45282 0.02745 0.0
N710 N 0.98215 0.50208 0.9644 0.0
C711 C 0.95948 0.50268 0.90827 0.0
C712 C 0.97576 0.48295 0.91817 0.0
C713 C 0.98689 0.48311 0.9459 0.0
C714 C 0.95384 0.52152 0.92772 0.0
C715 C 0.9651 0.52072 0.95555 0.0
N716 N 0.01839 0.50379 0.0399 0.0
C717 C 0.04906 0.48579 0.07446 0.0
C718 C 0.04087 0.50219 0.09617 0.0
C719 C 0.02217 0.52025 0.0885 0.0
C720 C 0.01126 0.52067 0.06056 0.0
C721 C 0.03777 0.48703 0.0466 0.0
H722 H 0.99677 0.53454 0.05646 0.0
H723 H 0.0447 0.47389 0.03118 0.0
H724 H 0.99956 0.46784 0.9516 0.0
H725 H 0.96003 0.53567 0.96917 0.0
C726 C 0.96452 0.55137 0.02031 0.0
C727 C 0.95826 0.46303 0.04294 0.0
C728 C 0.04243 0.5429 0.96172 0.0
C729 C 0.03588 0.45453 0.98373 0.0
H730 H 0.91695 0.49252 0.06663 0.0
H731 H 0.92 0.5407 0.05442 0.0
H732 H 0.98196 0.59826 0.99908 0.0
H733 H 0.02423 0.59327 0.96688 0.0
H734 H 0.0825 0.51333 0.93541 0.0
H735 H 0.07907 0.46511 0.9468 0.0
H736 H 0.01989 0.40775 0.00796 0.0
H737 H 0.97761 0.41276 0.04015 0.0
H738 H 0.98025 0.46751 0.9044 0.0
H739 H 0.94145 0.53731 0.92119 0.0
H740 H 0.06349 0.47143 0.07926 0.0
H741 H 0.01563 0.53384 0.1042 0.0
C742 C 0.4774 0.55016 0.00877 0.0
C743 C 0.48296 0.57477 0.0046 0.0
C744 C 0.50641 0.575 0.99193 0.0
C745 C 0.5138 0.55064 0.98914 0.0
N746 N 0.49633 0.53485 0.99882 0.0
Co747 Co 0.49952 0.49778 1.00019 0.0
N748 N 0.53501 0.49796 0.98501 0.0
C749 C 0.54848 0.51792 0.97865 0.0
C750 C 0.57213 0.51221 0.96785 0.0
C751 C 0.57379 0.48714 0.9668 0.0
C752 C 0.55094 0.47901 0.97709 0.0
N753 N 0.50259 0.46074 1.00116 0.0
C754 C 0.52153 0.44546 0.99118 0.0
C755 C 0.51584 0.42088 0.99473 0.0
C756 C 0.49222 0.42063 0.00686 0.0
C757 C 0.48492 0.44496 0.01003 0.0
N758 N 0.46417 0.49758 0.01583 0.0
C759 C 0.45078 0.47762 0.02269 0.0
C760 C 0.42733 0.48332 0.03419 0.0
C761 C 0.42578 0.50838 0.03533 0.0
C762 C 0.44849 0.51648 0.02445 0.0
N763 N 0.48909 0.49921 0.95761 0.0
C764 C 0.47712 0.49834 0.89633 0.0
C765 C 0.46501 0.48398 0.91941 0.0
C766 C 0.47124 0.48468 0.94961 0.0
C767 C 0.49476 0.51373 0.90461 0.0
C768 C 0.50028 0.51399 0.9351 0.0
N769 N 0.50993 0.49637 0.04276 0.0
C770 C 0.50542 0.48043 0.09539 0.0
C771 C 0.52107 0.49759 0.1042 0.0
C772 C 0.53182 0.51345 0.08158 0.0
C773 C 0.5261 0.51249 0.05127 0.0
C774 C 0.50022 0.48009 0.06479 0.0
H775 H 0.53465 0.52528 0.03523 0.0
H776 H 0.48784 0.46687 0.05965 0.0
H777 H 0.46159 0.47301 0.96597 0.0
H778 H 0.51404 0.52594 0.93975 0.0
C779 C 0.53773 0.5419 0.98047 0.0
C780 C 0.45469 0.5421 0.02429 0.0
C781 C 0.5447 0.45342 0.97686 0.0
C782 C 0.46123 0.45367 0.01971 0.0
H783 H 0.47158 0.59083 0.01099 0.0
H784 H 0.51717 0.59094 0.98661 0.0
H785 H 0.58618 0.52485 0.9605 0.0
H786 H 0.58975 0.47618 0.9585 0.0
H787 H 0.52739 0.40487 0.9885 0.0
H788 H 0.48143 0.40469 0.01196 0.0
H789 H 0.41331 0.47069 0.04171 0.0
H790 H 0.40997 0.51941 0.04393 0.0
H791 H 0.45085 0.4721 0.91427 0.0
H792 H 0.50487 0.52507 0.8876 0.0
H793 H 0.49651 0.46783 0.1121 0.0
H794 H 0.54446 0.52674 0.08723 0.0
C795 C 0.95584 0.51396 0.46658 0.0
C796 C 0.93491 0.50362 0.45785 0.0
C797 C 0.93637 0.47949 0.46911 0.0
C798 C 0.95794 0.47646 0.48415 0.0
N799 N 0.9704 0.49723 0.48324 0.0
Co800 Co 0.00233 0.50113 0.5028 0.0
N801 N 0.00448 0.46547 0.51919 0.0
C802 C 0.98829 0.44827 0.51538 0.0
C803 C 0.99471 0.42537 0.52911 0.0
C804 C 0.01631 0.42801 0.54252 0.0
C805 C 0.0218 0.45252 0.53622 0.0
N806 N 0.03415 0.50507 0.52257 0.0
C807 C 0.04859 0.48838 0.53942 0.0
C808 C 0.06902 0.49892 0.54924 0.0
C809 C 0.0675 0.52311 0.53815 0.0
C810 C 0.0463 0.52598 0.52234 0.0
N811 N 1.00029 0.53672 0.48619 0.0
C812 C 0.0168 0.55374 0.48941 0.0
C813 C 0.01083 0.57645 0.47489 0.0
C814 C 0.98918 0.57386 0.46155 0.0
C815 C 0.98309 0.54964 0.46892 0.0
N816 N 0.98361 0.51033 0.54049 0.0
C817 C 0.95961 0.52136 0.59642 0.0
C818 C 0.97685 0.53683 0.58192 0.0
C819 C 0.9886 0.53096 0.55432 0.0
C820 C 0.95377 0.50091 0.58165 0.0
C821 C 0.96572 0.49592 0.55384 0.0
N822 N 0.02102 0.49196 0.46511 0.0
C823 C 0.05158 0.50095 0.42462 0.0
C824 C 0.04428 0.48184 0.4085 0.0
C825 C 0.02615 0.46699 0.42211 0.0
C826 C 0.01482 0.47238 0.4501 0.0
C827 C 0.03994 0.5055 0.45276 0.0
H828 H 1.00074 0.46073 0.45879 0.0
H829 H 0.04618 0.52047 0.46369 0.0
H830 H 0.00193 0.5432 0.54489 0.0
H831 H 0.9605 0.48 0.54396 0.0
C832 C 0.96702 0.45433 0.49915 0.0
C833 C 0.96086 0.5398 0.45874 0.0
C834 C 0.04373 0.4625 0.54688 0.0
C835 C 0.03762 0.54791 0.50655 0.0
H836 H 0.92004 0.51261 0.44476 0.0
H837 H 0.92326 0.46577 0.46665 0.0
H838 H 0.98481 0.40875 0.52939 0.0
H839 H 0.02684 0.41354 0.55551 0.0
H840 H 0.08352 0.49002 0.563 0.0
H841 H 0.08035 0.53694 0.54118 0.0
H842 H 0.02101 0.59292 0.47409 0.0
H843 H 0.97908 0.5882 0.44788 0.0
H844 H 0.98163 0.55325 0.59201 0.0
H845 H 0.94071 0.48817 0.59193 0.0
H846 H 0.06549 0.51307 0.4151 0.0
H847 H 0.02027 0.45153 0.41094 0.0
H848 H 0.03958 0.008 0.11972 0.0
H849 H 0.0395 0.00761 0.17547 0.0
H850 H 0.96267 0.99187 0.18137 0.0
H851 H 0.96327 0.99074 0.12591 0.0
H852 H 0.01955 0.03315 0.21703 0.0
H853 H 0.98294 0.94153 0.24495 0.0
H854 H 0.99184 0.95218 0.20646 0.0
H855 H 0.96177 0.96133 0.22284 0.0
C856 C 0.02273 0.0041 0.13291 0.0
C857 C 0.00149 0.99922 0.11784 0.0
C858 C 0.02262 0.00402 0.16509 0.0
C859 C 1.00124 0.99912 0.18372 0.0
C860 C 0.97984 0.99482 0.16848 0.0
H861 H 0.96216 0.01344 0.38027 0.0
H862 H 0.96243 0.01234 0.32454 0.0
C863 C 0.98006 0.99454 0.13636 0.0
C864 C 1.00125 0.99915 0.21858 0.0
H865 H 0.98326 0.96733 0.28618 0.0
C866 C 0.01173 0.01853 0.23189 0.0
C867 C 0.99129 0.98022 0.23901 0.0
C868 C 0.98159 0.95753 0.2276 0.0
C869 C 0.01206 0.01973 0.26401 0.0
C870 C 0.00154 0.0012 0.2842 0.0
C871 C 0.99115 0.98179 0.27111 0.0
C872 C 0.00138 0.00163 0.31879 0.0
C873 C 0.02341 0.04113 0.27634 0.0
C874 C 0.02305 0.99584 0.33496 0.0
C875 C 0.02281 0.99603 0.36711 0.0
C876 C 1.00095 0.00227 0.38441 0.0
C877 C 0.97933 0.00827 0.36811 0.0
C878 C 0.97949 0.00772 0.33601 0.0
H879 H 0.02834 0.05552 0.25811 0.0
H880 H 0.01043 0.0497 0.29336 0.0
H881 H 0.04041 0.03427 0.28813 0.0
H882 H 0.04025 0.99094 0.3227 0.0
H883 H 0.03985 0.99121 0.37854 0.0
H884 H 0.31525 0.67818 0.38234 0.0
H885 H 0.31729 0.66874 0.43743 0.0
H886 H 0.23768 0.67382 0.44655 0.0
H887 H 0.23548 0.68336 0.39179 0.0
H888 H 0.29856 0.70299 0.47583 0.0
H889 H 0.2551 0.61474 0.50608 0.0
H890 H 0.26637 0.6238 0.4678 0.0
H891 H 0.23658 0.6358 0.48181 0.0
C892 C 0.29819 0.6768 0.39605 0.0
C893 C 0.2752 0.68168 0.38275 0.0
C894 C 0.29939 0.67124 0.42745 0.0
C895 C 0.27764 0.67031 0.44603 0.0
C896 C 0.25469 0.6738 0.43258 0.0
H897 H 0.22392 0.69626 0.6244 0.0
H898 H 0.23142 0.68332 0.57279 0.0
C899 C 0.25347 0.67933 0.40122 0.0
C900 C 0.27875 0.66987 0.47951 0.0
H901 H 0.25587 0.64222 0.54637 0.0
C902 C 0.28973 0.68938 0.49134 0.0
C903 C 0.26701 0.65222 0.49958 0.0
C904 C 0.2558 0.63032 0.48818 0.0
C905 C 0.28809 0.69259 0.52256 0.0
C906 C 0.27561 0.67542 0.5426 0.0
C907 C 0.26545 0.65531 0.53094 0.0
C908 C 0.2712 0.67941 0.57525 0.0
C909 C 0.29845 0.71516 0.53355 0.0
C910 C 0.29104 0.68062 0.59405 0.0
C911 C 0.28686 0.68849 0.62334 0.0
C912 C 0.26271 0.69498 0.63446 0.0
C913 C 0.24278 0.692 0.61628 0.0
C914 C 0.247 0.68433 0.58691 0.0
H915 H 0.3027 0.72913 0.51451 0.0
H916 H 0.28529 0.72403 0.55013 0.0
H917 H 0.31586 0.70957 0.54512 0.0
H918 H 0.30983 0.6765 0.5856 0.0
H919 H 0.30268 0.69065 0.63661 0.0
H920 H 0.51748 0.96186 0.86286 0.0
H921 H 0.53104 0.95924 0.80983 0.0
H922 H 0.60324 0.9804 0.82923 0.0
H923 H 0.59008 0.9823 0.88302 0.0
H924 H 0.57936 0.01082 0.78327 0.0
H925 H 0.57774 0.91233 0.76139 0.0
H926 H 0.55056 0.92297 0.78268 0.0
H927 H 0.58026 0.92236 0.79913 0.0
C928 C 0.53653 0.96509 0.85628 0.0
C929 C 0.55265 0.97234 0.87734 0.0
C930 C 0.54426 0.96358 0.82583 0.0
C931 C 0.56823 0.9693 0.81571 0.0
C932 C 0.58472 0.97572 0.83671 0.0
H933 H 0.58757 0.98037 0.61433 0.0
H934 H 0.60108 0.97257 0.66671 0.0
C935 C 0.57707 0.97702 0.86735 0.0
C936 C 0.57444 0.97188 0.78264 0.0
H937 H 0.56955 0.94225 0.71822 0.0
C938 C 0.57805 0.99568 0.76902 0.0
C939 C 0.5729 0.95208 0.76412 0.0
C940 C 0.57041 0.92594 0.77761 0.0
C941 C 0.57772 1.00061 0.73735 0.0
C942 C 0.57372 0.98127 0.7191 0.0
C943 C 0.57246 0.95706 0.73243 0.0
C944 C 0.56652 0.98658 0.68738 0.0
C945 C 0.57994 0.02674 0.7237 0.0
C946 C 0.54263 0.99681 0.68199 0.0
C947 C 0.53471 0.00086 0.65238 0.0
C948 C 0.55062 0.99496 0.62744 0.0
C949 C 0.57475 0.98491 0.63298 0.0
C950 C 0.58259 0.98059 0.6628 0.0
H951 H 0.58849 0.03826 0.73942 0.0
H952 H 0.5911 0.02694 0.70186 0.0
H953 H 0.56123 0.03525 0.71886 0.0
H954 H 0.52991 0.0012 0.70083 0.0
H955 H 0.51583 0.008 0.6492 0.0
H956 H 0.28889 0.26605 0.88683 0.0
H957 H 0.28938 0.26855 0.94188 0.0
H958 H 0.21004 0.28086 0.94663 0.0
H959 H 0.20938 0.27882 0.89133 0.0
H960 H 0.23755 0.31303 0.98123 0.0
H961 H 0.26338 0.21272 0.004 0.0
H962 H 0.28252 0.22876 0.9755 0.0
H963 H 0.25064 0.22559 0.96867 0.0
C964 C 0.27156 0.26966 0.89949 0.0
C965 C 0.24907 0.2722 0.88477 0.0
C966 C 0.27187 0.27085 0.93095 0.0
C967 C 0.24973 0.27459 0.94823 0.0
C968 C 0.22729 0.27783 0.93359 0.0
H969 H 0.23084 0.24778 0.14462 0.0
H970 H 0.22632 0.24938 0.08934 0.0
C971 C 0.22694 0.27653 0.9021 0.0
C972 C 0.25003 0.27455 0.98169 0.0
H973 H 0.26394 0.23758 0.04559 0.0
C974 C 0.24322 0.29656 0.99538 0.0
C975 C 0.25715 0.25291 0.99997 0.0
C976 C 0.26365 0.22856 0.98642 0.0
C977 C 0.24391 0.29762 0.02702 0.0
C978 C 0.25181 0.27616 0.04519 0.0
C979 C 0.25807 0.25404 0.03152 0.0
C980 C 0.25376 0.27617 0.07848 0.0
C981 C 0.23597 0.32157 0.0408 0.0
C982 C 0.27077 0.29061 0.09053 0.0
C983 C 0.27335 0.28965 0.12197 0.0
C984 C 0.25903 0.27419 0.14157 0.0
C985 C 0.24198 0.25983 0.12963 0.0
C986 C 0.23942 0.26075 0.09824 0.0
H987 H 0.22485 0.33432 0.02504 0.0
H988 H 0.22496 0.31811 0.06247 0.0
H989 H 0.25262 0.33094 0.04586 0.0
H990 H 0.28232 0.30225 0.07558 0.0
H991 H 0.28664 0.30074 0.13098 0.0
H992 H 0.04412 0.98199 0.62189 0.0
H993 H 0.04362 0.98214 0.67768 0.0
H994 H 0.96956 0.01621 0.67767 0.0
H995 H 0.9699 0.01529 0.62206 0.0
H996 H 0.04126 0.01492 0.7171 0.0
H997 H 0.95733 0.96412 0.74315 0.0
H998 H 0.97159 0.96711 0.70533 0.0
H999 H 0.95103 0.99172 0.71897 0.0
C1000 C 0.02767 0.9894 0.63381 0.0
C1001 C 0.00701 0.99849 0.61715 0.0
C1002 C 0.02736 0.98954 0.66597 0.0
C1003 C 0.00635 0.9987 0.68291 0.0
C1004 C 0.98585 0.00821 0.66605 0.0
H1005 H 0.01504 0.03932 0.87435 0.0
H1006 H 0.01488 0.03906 0.81875 0.0
C1007 C 0.9861 0.00791 0.63392 0.0
C1008 C 0.00618 0.99875 0.71774 0.0
H1009 H 0.97245 0.98359 0.78422 0.0
C1010 C 0.02614 0.00796 0.7316 0.0
C1011 C 0.9869 0.98935 0.73763 0.0
C1012 C 0.96565 0.97728 0.72557 0.0
C1013 C 0.02718 0.00844 0.76375 0.0
C1014 C 0.00737 1.00006 0.78354 0.0
C1015 C 0.98762 0.99043 0.76973 0.0
C1016 C 0.00697 1.00058 0.81833 0.0
C1017 C 0.0501 0.01726 0.77608 0.0
C1018 C 0.00158 0.97951 0.83788 0.0
C1019 C 1.00119 0.97983 0.87003 0.0
C1020 C 0.00609 0.00126 0.88411 0.0
C1021 C 0.01121 0.02241 0.86465 0.0
C1022 C 0.01143 0.02215 0.83252 0.0
H1023 H 0.06628 0.01513 0.7598 0.0
H1024 H 0.04703 0.0372 0.77975 0.0
H1025 H 0.05469 0.00695 0.79806 0.0
H1026 H 0.99788 0.96253 0.82827 0.0
H1027 H 0.997 0.96319 0.88398 0.0
H1028 H 0.69004 0.31505 0.3629 0.0
H1029 H 0.67779 0.32749 0.41366 0.0
H1030 H 0.75267 0.3114 0.44115 0.0
H1031 H 0.76545 0.30092 0.38997 0.0
H1032 H 0.67691 0.29889 0.46201 0.0
H1033 H 0.73699 0.37193 0.48359 0.0
H1034 H 0.73399 0.36254 0.44572 0.0
H1035 H 0.75623 0.34647 0.47063 0.0
C1036 C 0.70413 0.31507 0.37936 0.0
C1037 C 0.72875 0.30679 0.37229 0.0
C1038 C 0.69702 0.32202 0.40851 0.0
C1039 C 0.71431 0.3207 0.43125 0.0
C1040 C 0.73905 0.31329 0.42391 0.0
H1041 H 0.70789 0.26086 0.60883 0.0
H1042 H 0.70292 0.27264 0.55502 0.0
C1043 C 0.74625 0.30675 0.39468 0.0
C1044 C 0.70617 0.32362 0.46348 0.0
H1045 H 0.72534 0.34437 0.52859 0.0
C1046 C 0.68708 0.30941 0.4764 0.0
C1047 C 0.71876 0.33788 0.48235 0.0
C1048 C 0.7374 0.35577 0.46966 0.0
C1049 C 0.68194 0.30723 0.50793 0.0
C1050 C 0.69688 0.31879 0.5271 0.0
C1051 C 0.71427 0.33494 0.51401 0.0
C1052 C 0.69707 0.31193 0.56033 0.0
C1053 C 0.66103 0.29191 0.52033 0.0
C1054 C 0.696 0.3301 0.58131 0.0
C1055 C 0.69929 0.32336 0.61222 0.0
C1056 C 0.70358 0.29835 0.62258 0.0
C1057 C 0.70404 0.28022 0.60163 0.0
C1058 C 0.70106 0.28695 0.57083 0.0
H1059 H 0.64584 0.2934 0.50422 0.0
H1060 H 0.66781 0.27216 0.52306 0.0
H1061 H 0.65345 0.29768 0.54271 0.0
H1062 H 0.69318 0.34949 0.57369 0.0
H1063 H 0.69884 0.33769 0.62794 0.0
H1064 H 0.41428 0.02066 0.11975 0.0
H1065 H 0.40021 0.02327 0.17317 0.0
H1066 H 0.47255 0.04281 0.19442 0.0
H1067 H 0.48699 0.03946 0.14181 0.0
H1068 H 0.42252 0.99282 0.2204 0.0
H1069 H 0.42608 0.09142 0.24064 0.0
H1070 H 0.42392 0.08102 0.20302 0.0
H1071 H 0.45337 0.07997 0.2202 0.0
C1072 C 0.42714 0.02572 0.13575 0.0
C1073 C 0.45183 0.02977 0.1264 0.0
C1074 C 0.41897 0.02743 0.16617 0.0
C1075 C 0.43522 0.03364 0.18756 0.0
C1076 C 0.45951 0.03866 0.17808 0.0
H1077 H 0.4864 0.99701 0.35402 0.0
H1078 H 0.47236 0.00381 0.30237 0.0
C1079 C 0.46775 0.03673 0.14787 0.0
C1080 C 0.42835 0.03161 0.22048 0.0
H1081 H 0.43339 0.06178 0.28444 0.0
C1082 C 0.42402 0.00808 0.23443 0.0
C1083 C 0.43014 0.05156 0.2387 0.0
C1084 C 0.43338 0.07748 0.22482 0.0
C1085 C 0.42397 0.00348 0.26616 0.0
C1086 C 0.4283 0.0229 0.28413 0.0
C1087 C 0.43021 0.04692 0.27045 0.0
C1088 C 0.43549 0.0177 0.31585 0.0
C1089 C 0.42114 0.97756 0.28022 0.0
C1090 C 0.41926 0.02326 0.34044 0.0
C1091 C 0.42709 0.01894 0.37028 0.0
C1092 C 0.45136 0.00929 0.37579 0.0
C1093 C 0.46743 0.00383 0.35083 0.0
C1094 C 0.45952 0.00789 0.32123 0.0
H1095 H 0.41269 0.96596 0.2645 0.0
H1096 H 0.43963 0.96884 0.28574 0.0
H1097 H 0.4096 0.97783 0.30175 0.0
H1098 H 0.40064 0.03093 0.33654 0.0
H1099 H 0.41416 0.02315 0.38895 0.0
H1100 H 0.74813 0.69472 0.12344 0.0
H1101 H 0.74585 0.69157 0.0686 0.0
H1102 H 0.76547 0.76705 0.05134 0.0
H1103 H 0.76721 0.77064 0.10597 0.0
H1104 H 0.71422 0.7236 0.02863 0.0
H1105 H 0.81393 0.72684 0.99451 0.0
H1106 H 0.80305 0.71883 0.03323 0.0
H1107 H 0.80171 0.75059 0.01822 0.0
C1108 C 0.75193 0.71067 0.108 0.0
C1109 C 0.75792 0.73292 0.11914 0.0
C1110 C 0.75075 0.70878 0.0767 0.0
C1111 C 0.75579 0.72898 0.05603 0.0
C1112 C 0.76199 0.75111 0.06697 0.0
H1113 H 0.75423 0.76645 0.86278 0.0
H1114 H 0.7582 0.76469 0.9181 0.0
C1115 C 0.76305 0.75308 0.09821 0.0
C1116 C 0.75339 0.72745 0.02304 0.0
H1117 H 0.78582 0.73123 0.95466 0.0
C1118 C 0.72987 0.72501 0.0124 0.0
C1119 C 0.77387 0.72945 0.00209 0.0
C1120 C 0.79963 0.73138 0.0125 0.0
C1121 C 0.72611 0.72532 0.98114 0.0
C1122 C 0.74657 0.72753 0.96011 0.0
C1123 C 0.77017 0.72956 0.97084 0.0
C1124 C 0.74384 0.72849 0.92681 0.0
C1125 C 0.70016 0.72419 0.97089 0.0
C1126 C 0.73458 0.70867 0.91343 0.0
C1127 C 0.73213 0.70979 0.88195 0.0
C1128 C 0.73925 0.73056 0.86351 0.0
C1129 C 0.74862 0.7503 0.87679 0.0
C1130 C 0.75095 0.74925 0.90823 0.0
H1131 H 0.68609 0.72901 0.98901 0.0
H1132 H 0.69688 0.73693 0.95029 0.0
H1133 H 0.69746 0.70511 0.96514 0.0
H1134 H 0.72944 0.6923 0.92729 0.0
H1135 H 0.72482 0.69444 0.87197 0.0
H1136 H 0.49107 0.52173 0.60938 0.0
H1137 H 0.48549 0.5223 0.66496 0.0
H1138 H 0.45473 0.45099 0.66998 0.0
H1139 H 0.46001 0.45056 0.61421 0.0
H1140 H 0.43674 0.51331 0.70394 0.0
H1141 H 0.51798 0.447 0.72652 0.0
H1142 H 0.51528 0.46554 0.69079 0.0
H1143 H 0.49635 0.43995 0.69936 0.0
C1144 C 0.48299 0.5063 0.62246 0.0
C1145 C 0.47617 0.48598 0.60795 0.0
C1146 C 0.47979 0.50665 0.65401 0.0
C1147 C 0.46985 0.48663 0.67136 0.0
C1148 C 0.46256 0.46651 0.65683 0.0
H1149 H 0.46876 0.45686 0.86821 0.0
H1150 H 0.46323 0.45353 0.81417 0.0
C1151 C 0.4656 0.46624 0.6252 0.0
C1152 C 0.46791 0.4866 0.7048 0.0
H1153 H 0.4966 0.46324 0.76881 0.0
C1154 C 0.44966 0.50226 0.71826 0.0
C1155 C 0.48476 0.47204 0.72315 0.0
C1156 C 0.50484 0.4552 0.70941 0.0
C1157 C 0.44794 0.50391 0.74989 0.0
C1158 C 0.46537 0.48998 0.76824 0.0
C1159 C 0.48327 0.4739 0.7547 0.0
C1160 C 0.46618 0.49252 0.80133 0.0
C1161 C 0.42739 0.52039 0.76329 0.0
C1162 C 0.46953 0.51558 0.81207 0.0
C1163 C 0.47232 0.51762 0.84303 0.0
C1164 C 0.4722 0.49657 0.8638 0.0
C1165 C 0.46853 0.47353 0.85297 0.0
C1166 C 0.46556 0.47154 0.82204 0.0
H1167 H 0.41145 0.52308 0.74831 0.0
H1168 H 0.42083 0.51265 0.78614 0.0
H1169 H 0.43428 0.53883 0.76565 0.0
H1170 H 0.47066 0.53192 0.79642 0.0
H1171 H 0.47486 0.53568 0.85061 0.0
H1172 H 0.78911 0.25109 0.88602 0.0
H1173 H 0.7957 0.23899 0.93946 0.0
H1174 H 0.78442 0.16322 0.92488 0.0
H1175 H 0.77805 0.17516 0.87095 0.0
H1176 H 0.7535 0.18141 0.96959 0.0
H1177 H 0.8491 0.20208 0.98973 0.0
H1178 H 0.83321 0.22756 0.96889 0.0
H1179 H 0.83884 0.19846 0.95211 0.0
C1180 C 0.78887 0.2317 0.89384 0.0
C1181 C 0.78294 0.21411 0.87421 0.0
C1182 C 0.79272 0.22478 0.92446 0.0
C1183 C 0.79088 0.20014 0.93607 0.0
C1184 C 0.78608 0.1823 0.9163 0.0
H1185 H 0.78707 0.17476 0.13765 0.0
H1186 H 0.79703 0.16509 0.08476 0.0
C1187 C 0.78227 0.1892 0.88558 0.0
C1188 C 0.79024 0.1941 0.96942 0.0
H1189 H 0.81953 0.20461 0.03326 0.0
C1190 C 0.76825 0.18574 0.98351 0.0
C1191 C 0.80953 0.1996 0.98759 0.0
C1192 C 0.83409 0.20717 0.97375 0.0
C1193 C 0.76424 0.18485 0.0152 0.0
C1194 C 0.78264 0.19252 0.03307 0.0
C1195 C 0.80541 0.19889 0.01932 0.0
C1196 C 0.77699 0.19776 0.06502 0.0
C1197 C 0.73977 0.17722 0.02931 0.0
C1198 C 0.76266 0.21935 0.07109 0.0
C1199 C 0.7572 0.22508 0.10098 0.0
C1200 C 0.76582 0.20919 0.12552 0.0
C1201 C 0.78026 0.18746 0.1193 0.0
C1202 C 0.78589 0.18184 0.08919 0.0
H1203 H 0.72968 0.16699 0.01363 0.0
H1204 H 0.7425 0.16545 0.05082 0.0
H1205 H 0.72812 0.19399 0.03488 0.0
H1206 H 0.75589 0.23195 0.05258 0.0
H1207 H 0.74663 0.24227 0.10478 0.0
H1208 H 0.08868 0.4903 0.11307 0.0
H1209 H 0.10327 0.48376 0.16514 0.0
H1210 H 0.02947 0.50159 0.20115 0.0
H1211 H 0.01459 0.5074 0.1498 0.0
H1212 H 0.07722 0.52647 0.22329 0.0
H1213 H 0.07522 0.42379 0.2305 0.0
H1214 H 0.08712 0.44091 0.19667 0.0
H1215 H 0.05456 0.44251 0.20589 0.0
C1216 C 0.07557 0.49276 0.13211 0.0
C1217 C 0.05047 0.4995 0.12725 0.0
C1218 C 0.08398 0.48916 0.16172 0.0
C1219 C 0.06739 0.49229 0.18673 0.0
C1220 C 0.04252 0.49929 0.18198 0.0
H1221 H 0.01842 0.47039 0.36084 0.0
H1222 H 0.03238 0.46987 0.30764 0.0
C1223 C 0.0341 0.50277 0.15258 0.0
C1224 C 0.0752 0.48769 0.21827 0.0
H1225 H 0.07443 0.44278 0.27687 0.0
C1226 C 0.07755 0.50813 0.23503 0.0
C1227 C 0.07544 0.46371 0.2332 0.0
C1228 C 0.07302 0.44133 0.21581 0.0
C1229 C 0.07809 0.5054 0.26688 0.0
C1230 C 0.07628 0.48161 0.28206 0.0
C1231 C 0.07594 0.46095 0.26505 0.0
C1232 C 0.06973 0.47861 0.31498 0.0
C1233 C 0.07834 0.52816 0.28424 0.0
C1234 C 0.08637 0.4831 0.33682 0.0
C1235 C 0.07848 0.48319 0.36754 0.0
C1236 C 0.05383 0.47885 0.37675 0.0
C1237 C 0.03761 0.47338 0.35477 0.0
C1238 C 0.04552 0.47319 0.32426 0.0
H1239 H 0.07832 0.54544 0.26893 0.0
H1240 H 0.06196 0.52933 0.30034 0.0
H1241 H 0.09508 0.52693 0.2978 0.0
H1242 H 0.1052 0.48715 0.33001 0.0
H1243 H 0.09153 0.4871 0.38395 0.0
H1244 H 0.79477 0.80219 0.63809 0.0
H1245 H 0.78981 0.80259 0.58302 0.0
H1246 H 0.72131 0.767 0.60029 0.0
H1247 H 0.72683 0.76579 0.65525 0.0
H1248 H 0.7506 0.74495 0.55816 0.0
H1249 H 0.74438 0.84624 0.52908 0.0
H1250 H 0.77185 0.83559 0.5484 0.0
H1251 H 0.74209 0.83284 0.56786 0.0
C1252 C 0.77871 0.79451 0.62994 0.0
C1253 C 0.76125 0.7838 0.65055 0.0
C1254 C 0.77572 0.79497 0.5986 0.0
C1255 C 0.75498 0.78518 0.58755 0.0
C1256 C 0.73739 0.77475 0.60831 0.0
H1257 H 0.70649 0.7696 0.40528 0.0
H1258 H 0.7082 0.77327 0.46009 0.0
C1259 C 0.74049 0.77411 0.63958 0.0
C1260 C 0.75223 0.78457 0.55437 0.0
H1261 H 0.75005 0.82072 0.4873 0.0
C1262 C 0.75025 0.76155 0.54273 0.0
C1263 C 0.75173 0.80627 0.53426 0.0
C1264 C 0.75238 0.83165 0.54554 0.0
C1265 C 0.74833 0.75958 0.51145 0.0
C1266 C 0.74834 0.78118 0.49139 0.0
C1267 C 0.75013 0.80422 0.5029 0.0
C1268 C 0.74702 0.78 0.45821 0.0
C1269 C 0.74679 0.73441 0.49988 0.0
C1270 C 0.76825 0.78288 0.43918 0.0
C1271 C 0.76745 0.78049 0.40798 0.0
C1272 C 0.74532 0.77541 0.3952 0.0
C1273 C 0.72392 0.77312 0.41439 0.0
C1274 C 0.7248 0.77535 0.44565 0.0
H1275 H 0.75004 0.71922 0.51794 0.0
H1276 H 0.72816 0.73305 0.49118 0.0
H1277 H 0.76053 0.73179 0.48068 0.0
H1278 H 0.78557 0.78639 0.44861 0.0
H1279 H 0.78437 0.78198 0.39402 0.0
H1280 H 0.5226 0.53982 0.13331 0.0
H1281 H 0.52715 0.54344 0.18754 0.0
H1282 H 0.53204 0.46396 0.20341 0.0
H1283 H 0.52835 0.46014 0.14898 0.0
H1284 H 0.4952 0.52624 0.23378 0.0
H1285 H 0.59013 0.48398 0.2493 0.0
H1286 H 0.57868 0.494 0.21228 0.0
H1287 H 0.57048 0.46496 0.23121 0.0
C1288 C 0.52522 0.52309 0.14821 0.0
C1289 C 0.52522 0.49968 0.13683 0.0
C1290 C 0.52764 0.5252 0.1792 0.0
C1291 C 0.53023 0.50397 0.19938 0.0
C1292 C 0.53052 0.48056 0.18811 0.0
H1293 H 0.49514 0.49089 0.39266 0.0
H1294 H 0.49702 0.48886 0.33717 0.0
C1295 C 0.52812 0.47842 0.15708 0.0
C1296 C 0.53092 0.50638 0.23245 0.0
H1297 H 0.56532 0.49061 0.29454 0.0
C1298 C 0.5106 0.51861 0.24705 0.0
C1299 C 0.55116 0.49661 0.24958 0.0
C1300 C 0.57397 0.48435 0.23479 0.0
C1301 C 0.50969 0.52085 0.27851 0.0
C1302 C 0.52947 0.5102 0.29582 0.0
C1303 C 0.55009 0.49852 0.28116 0.0
C1304 C 0.52887 0.51077 0.32927 0.0
C1305 C 0.48764 0.53471 0.29291 0.0
C1306 C 0.54656 0.52318 0.34312 0.0
C1307 C 0.54555 0.5242 0.37472 0.0
C1308 C 0.52696 0.51267 0.39268 0.0
C1309 C 0.50954 0.49994 0.37895 0.0
C1310 C 0.51055 0.49889 0.34742 0.0
H1311 H 0.47755 0.54716 0.27582 0.0
H1312 H 0.47466 0.52125 0.30345 0.0
H1313 H 0.49332 0.54589 0.311 0.0
H1314 H 0.56087 0.53236 0.32944 0.0
H1315 H 0.55908 0.53411 0.38514 0.0
H1316 H 0.19988 0.79955 0.13207 0.0
H1317 H 0.19507 0.81252 0.07805 0.0
H1318 H 0.27415 0.80554 0.06208 0.0
H1319 H 0.27915 0.79245 0.11583 0.0
H1320 H 0.2487 0.84778 0.02862 0.0
H1321 H 0.20839 0.7576 0.01788 0.0
H1322 H 0.1937 0.77675 0.04582 0.0
H1323 H 0.22461 0.76361 0.05088 0.0
C1324 C 0.21625 0.80104 0.11709 0.0
C1325 C 0.23988 0.79469 0.12812 0.0
C1326 C 0.21347 0.80854 0.08632 0.0
C1327 C 0.23425 0.80965 0.06613 0.0
C1328 C 0.2579 0.80483 0.07739 0.0
H1329 H 0.2806 0.80979 0.88044 0.0
H1330 H 0.27462 0.81864 0.93372 0.0
C1331 C 0.26072 0.79739 0.10812 0.0
C1332 C 0.23144 0.81312 0.03289 0.0
H1333 H 0.21461 0.78302 0.97323 0.0
C1334 C 0.24096 0.83382 0.01644 0.0
C1335 C 0.22133 0.79485 0.01718 0.0
C1336 C 0.21156 0.77183 0.03369 0.0
C1337 C 0.24106 0.83649 0.98448 0.0
C1338 C 0.23188 0.81769 0.96873 0.0
C1339 C 0.22153 0.79748 0.98533 0.0
C1340 C 0.23485 0.81704 0.93522 0.0
C1341 C 0.25118 0.85927 0.96795 0.0
C1342 C 0.21449 0.81329 0.91822 0.0
C1343 C 0.21792 0.80763 0.88791 0.0
C1344 C 0.24182 0.80558 0.87404 0.0
C1345 C 0.262 0.81087 0.89058 0.0
C1346 C 0.25856 0.81635 0.92094 0.0
H1347 H 0.24903 0.8752 0.98233 0.0
H1348 H 0.27122 0.85557 0.96256 0.0
H1349 H 0.24185 0.86448 0.94632 0.0
H1350 H 0.19605 0.81355 0.92887 0.0
H1351 H 0.20199 0.80342 0.876 0.0
H1352 H 0.9137 0.52144 0.88963 0.0
H1353 H 0.89977 0.52707 0.83735 0.0
H1354 H 0.96909 0.49304 0.80465 0.0
H1355 H 0.98361 0.48832 0.85611 0.0
H1356 H 0.92772 0.55429 0.78658 0.0
H1357 H 0.91352 0.45743 0.76524 0.0
H1358 H 0.91231 0.46815 0.80308 0.0
H1359 H 0.9416 0.46082 0.78386 0.0
C1360 C 0.926 0.51516 0.87132 0.0
C1361 C 0.94979 0.50433 0.8772 0.0
C1362 C 0.9179 0.51822 0.84155 0.0
C1363 C 0.93329 0.51011 0.81738 0.0
C1364 C 0.95677 0.49892 0.82319 0.0
H1365 H 0.98336 0.53778 0.64318 0.0
H1366 H 0.96868 0.53945 0.69596 0.0
C1367 C 0.96498 0.49614 0.85272 0.0
C1368 C 0.92616 0.51489 0.78552 0.0
H1369 H 0.92332 0.48493 0.72109 0.0
C1370 C 0.92598 0.53925 0.77229 0.0
C1371 C 0.92358 0.49527 0.76711 0.0
C1372 C 0.92251 0.46895 0.78056 0.0
C1373 C 0.92571 0.5442 0.74059 0.0
C1374 C 0.9258 0.52425 0.72196 0.0
C1375 C 0.92347 0.50019 0.73543 0.0
C1376 C 0.93248 0.52722 0.68904 0.0
C1377 C 0.92672 0.57055 0.72722 0.0
C1378 C 0.91692 0.51988 0.66755 0.0
C1379 C 0.9252 0.51914 0.63705 0.0
C1380 C 0.94935 0.5253 0.6277 0.0
C1381 C 0.96451 0.53341 0.64927 0.0
C1382 C 0.95614 0.53437 0.67957 0.0
H1383 H 0.91829 0.58373 0.74335 0.0
H1384 H 0.94631 0.57478 0.72254 0.0
H1385 H 0.91707 0.5735 0.7055 0.0
H1386 H 0.89866 0.51409 0.67454 0.0
H1387 H 0.91291 0.51316 0.62098 0.0
H1388 H 0.20498 0.20544 0.36852 0.0
H1389 H 0.21095 0.20489 0.42343 0.0
H1390 H 0.2814 0.23637 0.40426 0.0
H1391 H 0.2749 0.23788 0.34953 0.0
H1392 H 0.2464 0.18209 0.45891 0.0
H1393 H 0.24795 0.28382 0.46134 0.0
H1394 H 0.23845 0.26957 0.42874 0.0
H1395 H 0.27075 0.27103 0.43512 0.0
C1396 C 0.22157 0.21243 0.37623 0.0
C1397 C 0.23927 0.22216 0.35516 0.0
C1398 C 0.22505 0.21199 0.40744 0.0
C1399 C 0.24637 0.22111 0.41793 0.0
C1400 C 0.26451 0.22991 0.39672 0.0
H1401 H 0.29843 0.23196 0.59931 0.0
H1402 H 0.29587 0.22845 0.5446 0.0
C1403 C 0.2609 0.23059 0.36556 0.0
C1404 C 0.2496 0.2214 0.45104 0.0
H1405 H 0.25857 0.2596 0.50661 0.0
C1406 C 0.24899 0.19904 0.46935 0.0
C1407 C 0.25291 0.24357 0.46462 0.0
C1408 C 0.25232 0.26839 0.44651 0.0
C1409 C 0.25183 0.19825 0.50087 0.0
C1410 C 0.25531 0.22036 0.51429 0.0
C1411 C 0.25609 0.24267 0.49605 0.0
C1412 C 0.25722 0.22096 0.54747 0.0
C1413 C 0.25125 0.17383 0.51967 0.0
C1414 C 0.23628 0.21796 0.567 0.0
C1415 C 0.23754 0.22033 0.59814 0.0
C1416 C 0.25982 0.22567 0.61036 0.0
C1417 C 0.2809 0.22819 0.59066 0.0
C1418 C 0.27955 0.22602 0.55945 0.0
H1419 H 0.25279 0.15792 0.50526 0.0
H1420 H 0.26651 0.17171 0.53568 0.0
H1421 H 0.23356 0.17328 0.53341 0.0
H1422 H 0.2188 0.21443 0.558 0.0
H1423 H 0.22083 0.21874 0.61246 0.0
H1424 H 0.06496 0.11028 0.99393 0.0
H1425 H 0.09017 0.13901 0.01656 0.0
H1426 H 0.12341 0.07839 0.07292 0.0
H1427 H 0.09816 0.04978 0.05108 0.0
H1428 H 0.08845 0.1462 0.07914 0.0
H1429 H 0.18308 0.11576 0.03894 0.0
H1430 H 0.15583 0.10804 0.0209 0.0
H1431 H 0.16574 0.09055 0.05504 0.0
C1432 C 0.0778 0.10306 0.01095 0.0
C1433 C 0.07959 0.0777 0.0206 0.0
C1434 C 0.09225 0.11946 0.02371 0.0
C1435 C 0.10889 0.11073 0.04603 0.0
C1436 C 0.11114 0.0854 0.05514 0.0
H1437 H 0.19292 0.15453 0.18575 0.0
H1438 H 0.17102 0.13462 0.14841 0.0
C1439 C 0.09669 0.06905 0.04255 0.0
C1440 C 0.12228 0.12808 0.0621 0.0
H1441 H 0.17976 0.13858 0.08364 0.0
C1442 C 0.10844 0.14496 0.07969 0.0
C1443 C 0.14833 0.1263 0.06273 0.0
C1444 C 0.16413 0.10935 0.04314 0.0
C1445 C 0.11993 0.1591 0.09937 0.0
C1446 C 0.1459 0.15645 0.10105 0.0
C1447 C 0.15981 0.1404 0.08241 0.0
C1448 C 0.1589 0.16887 0.12345 0.0
C1449 C 0.10414 0.17575 0.11938 0.0
C1450 C 0.15932 0.1947 0.12164 0.0
C1451 C 0.17183 0.20613 0.14293 0.0
C1452 C 0.18422 0.19185 0.16623 0.0
C1453 C 0.18373 0.16598 0.16791 0.0
C1454 C 0.17121 0.1546 0.14666 0.0
H1455 H 0.08423 0.17231 0.11924 0.0
H1456 H 0.11004 0.17315 0.14322 0.0
H1457 H 0.10636 0.19533 0.11107 0.0
H1458 H 0.15024 0.20598 0.10356 0.0
H1459 H 0.17227 0.22608 0.14077 0.0
H1460 H 0.07369 0.8873 0.49501 0.0
H1461 H 0.10152 0.85721 0.46953 0.0
H1462 H 0.12931 0.91598 0.40843 0.0
H1463 H 0.10144 0.94605 0.43333 0.0
H1464 H 0.10149 0.84826 0.40801 0.0
H1465 H 0.19258 0.87735 0.43701 0.0
H1466 H 0.16414 0.88663 0.45732 0.0
H1467 H 0.17266 0.90238 0.42124 0.0
C1468 C 0.08582 0.89384 0.47625 0.0
C1469 C 0.08538 0.91912 0.4663 0.0
C1470 C 0.10178 0.87664 0.46183 0.0
C1471 C 0.1177 0.88443 0.43739 0.0
C1472 C 0.1176 0.90965 0.42772 0.0
H1473 H 0.1826 0.80937 0.28604 0.0
H1474 H 0.15733 0.83427 0.32156 0.0
C1475 C 0.10166 0.92683 0.44205 0.0
C1476 C 0.13321 0.86614 0.42049 0.0
H1477 H 0.19259 0.85122 0.39586 0.0
C1478 C 0.12144 0.8487 0.40563 0.0
C1479 C 0.15923 0.86659 0.41769 0.0
C1480 C 0.17295 0.88408 0.43441 0.0
C1481 C 0.13494 0.83231 0.38705 0.0
C1482 C 0.16082 0.83368 0.38294 0.0
C1483 C 0.1727 0.85043 0.39878 0.0
C1484 C 0.17579 0.81837 0.36164 0.0
C1485 C 0.12139 0.81374 0.37187 0.0
C1486 C 0.19482 0.80161 0.37236 0.0
C1487 C 0.20922 0.78749 0.35212 0.0
C1488 C 0.20485 0.79009 0.32092 0.0
C1489 C 0.18601 0.807 0.31012 0.0
C1490 C 0.17158 0.82107 0.33036 0.0
H1491 H 0.10321 0.81047 0.3837 0.0
H1492 H 0.11801 0.82091 0.34806 0.0
H1493 H 0.13246 0.79581 0.37129 0.0
H1494 H 0.19845 0.79941 0.39638 0.0
H1495 H 0.2238 0.77458 0.36073 0.0
H1496 H 0.32456 0.82413 0.73562 0.0
H1497 H 0.35248 0.85239 0.70719 0.0
H1498 H 0.32829 0.83015 0.62264 0.0
H1499 H 0.30064 0.8016 0.65118 0.0
H1500 H 0.37854 0.83266 0.6206 0.0
H1501 H 0.33549 0.9192 0.66352 0.0
H1502 H 0.34507 0.89656 0.69323 0.0
H1503 H 0.32089 0.89026 0.66917 0.0
C1504 C 0.32519 0.82531 0.71096 0.0
C1505 C 0.31026 0.81063 0.69572 0.0
C1506 C 0.34106 0.84167 0.69462 0.0
C1507 C 0.3424 0.844 0.6625 0.0
C1508 C 0.32769 0.82902 0.6473 0.0
H1509 H 0.42842 0.9298 0.51953 0.0
H1510 H 0.40046 0.90166 0.54804 0.0
C1511 C 0.31179 0.81269 0.66364 0.0
C1512 C 0.35937 0.86157 0.6448 0.0
H1513 H 0.37342 0.92242 0.6347 0.0
C1514 C 0.37727 0.8523 0.62364 0.0
C1515 C 0.35807 0.88735 0.64852 0.0
C1516 C 0.33871 0.89903 0.66961 0.0
C1517 C 0.39398 0.86771 0.60684 0.0
C1518 C 0.39263 0.89351 0.61048 0.0
C1519 C 0.37472 0.90278 0.63166 0.0
C1520 C 0.40954 0.91112 0.5927 0.0
C1521 C 0.41345 0.85592 0.58598 0.0
C1522 C 0.42363 0.92678 0.60778 0.0
C1523 C 0.43951 0.9431 0.59135 0.0
C1524 C 0.44172 0.9444 0.55931 0.0
C1525 C 0.42736 0.9291 0.54418 0.0
C1526 C 0.41146 0.91282 0.56058 0.0
H1527 H 0.41695 0.83587 0.5926 0.0
H1528 H 0.407 0.85783 0.5624 0.0
H1529 H 0.43115 0.86495 0.58607 0.0
H1530 H 0.42258 0.92618 0.63241 0.0
H1531 H 0.45025 0.95463 0.60374 0.0
H1532 H 0.3378 0.17543 0.7561 0.0
H1533 H 0.36563 0.14686 0.78667 0.0
H1534 H 0.32544 0.16745 0.86872 0.0
H1535 H 0.29769 0.19599 0.83814 0.0
H1536 H 0.39581 0.15816 0.83478 0.0
H1537 H 0.32638 0.09098 0.87483 0.0
H1538 H 0.32172 0.11341 0.84278 0.0
H1539 H 0.31739 0.12269 0.88095 0.0
C1540 C 0.33506 0.17381 0.78067 0.0
C1541 C 0.3158 0.18782 0.79494 0.0
C1542 C 0.35086 0.15754 0.79807 0.0
C1543 C 0.34741 0.15484 0.82992 0.0
C1544 C 0.32819 0.16897 0.84415 0.0
H1545 H 0.42075 0.06623 0.97606 0.0
H1546 H 0.39317 0.09449 0.94481 0.0
C1547 C 0.31246 0.1853 0.82677 0.0
C1548 C 0.36413 0.13753 0.84831 0.0
H1549 H 0.36538 0.0853 0.897 0.0
C1550 C 0.38922 0.14215 0.84828 0.0
C1551 C 0.35543 0.11673 0.86597 0.0
C1552 C 0.32881 0.11044 0.86605 0.0
C1553 C 0.40579 0.12679 0.86594 0.0
C1554 C 0.39712 0.10592 0.88355 0.0
C1555 C 0.37201 0.10129 0.8835 0.0
C1556 C 0.41375 0.08873 0.90231 0.0
C1557 C 0.43229 0.13345 0.86619 0.0
C1558 C 0.43424 0.07585 0.88876 0.0
C1559 C 0.44995 0.05986 0.90659 0.0
C1560 C 0.44526 0.05634 0.93815 0.0
C1561 C 0.42461 0.06881 0.9517 0.0
C1562 C 0.40892 0.08486 0.9339 0.0
H1563 H 0.4343 0.15322 0.8585 0.0
H1564 H 0.43955 0.12977 0.88931 0.0
H1565 H 0.44383 0.12207 0.85042 0.0
H1566 H 0.43801 0.07809 0.86437 0.0
H1567 H 0.46578 0.05024 0.89581 0.0
H1568 H 0.95636 0.90599 0.9502 0.0
H1569 H 0.92806 0.88003 0.92862 0.0
H1570 H 0.86878 0.90721 0.98848 0.0
H1571 H 0.89711 0.93349 0.01022 0.0
H1572 H 0.89855 0.84312 0.95357 0.0
H1573 H 0.84228 0.92467 0.90388 0.0
H1574 H 0.87189 0.9274 0.91954 0.0
H1575 H 0.84502 0.92303 0.94441 0.0
C1576 C 0.93742 0.90611 0.95924 0.0
C1577 C 0.92892 0.92185 0.98184 0.0
C1578 C 0.92125 0.89134 0.94678 0.0
C1579 C 0.89627 0.89202 0.95662 0.0
C1580 C 0.8879 0.90684 0.98015 0.0
H1581 H 0.77954 0.82204 0.87177 0.0
H1582 H 0.80184 0.84255 0.9083 0.0
C1583 C 0.90408 0.92178 0.99256 0.0
C1584 C 0.87903 0.87803 0.94098 0.0
H1585 H 0.83097 0.88542 0.89346 0.0
C1586 C 0.88361 0.85232 0.94066 0.0
C1587 C 0.85959 0.89014 0.92414 0.0
C1588 C 0.85443 0.91784 0.9227 0.0
C1589 C 0.86961 0.83845 0.92336 0.0
C1590 C 0.85075 0.85068 0.90581 0.0
C1591 C 0.8455 0.87619 0.90703 0.0
C1592 C 0.83739 0.83765 0.88437 0.0
C1593 C 0.87529 0.81088 0.92361 0.0
C1594 C 0.85004 0.82848 0.85871 0.0
C1595 C 0.83736 0.8171 0.8376 0.0
C1596 C 0.81177 0.81471 0.84179 0.0
C1597 C 0.79918 0.82393 0.86763 0.0
C1598 C 0.81188 0.83545 0.88865 0.0
H1599 H 0.88582 0.80355 0.94371 0.0
H1600 H 0.85803 0.80107 0.92365 0.0
H1601 H 0.88665 0.8067 0.90278 0.0
H1602 H 0.86968 0.83049 0.85477 0.0
H1603 H 0.84753 0.81055 0.81773 0.0
H1604 H 0.82378 0.19383 0.71582 0.0
H1605 H 0.85013 0.1687 0.68154 0.0
H1606 H 0.79887 0.1869 0.6103 0.0
H1607 H 0.77271 0.21229 0.64455 0.0
H1608 H 0.837 0.12767 0.65213 0.0
H1609 H 0.86616 0.20394 0.56913 0.0
H1610 H 0.85244 0.20938 0.60638 0.0
H1611 H 0.83339 0.20272 0.5764 0.0
C1612 C 0.81834 0.19248 0.69277 0.0
C1613 C 0.79648 0.20494 0.68254 0.0
C1614 C 0.83328 0.17817 0.67328 0.0
C1615 C 0.82658 0.17623 0.64329 0.0
C1616 C 0.80457 0.18855 0.63317 0.0
H1617 H 0.89142 0.0702 0.51835 0.0
H1618 H 0.86242 0.09792 0.54599 0.0
C1619 C 0.78963 0.20287 0.65268 0.0
C1620 C 0.84241 0.16078 0.62297 0.0
H1621 H 0.87909 0.16311 0.55757 0.0
C1622 C 0.84612 0.13539 0.6314 0.0
C1623 C 0.85437 0.17098 0.59603 0.0
C1624 C 0.85163 0.19828 0.58646 0.0
C1625 C 0.86151 0.11991 0.61358 0.0
C1626 C 0.87339 0.13009 0.58668 0.0
C1627 C 0.8697 0.15543 0.57813 0.0
C1628 C 0.8908 0.11476 0.56815 0.0
C1629 C 0.86549 0.09282 0.62384 0.0
C1630 C 0.91626 0.11544 0.57123 0.0
C1631 C 0.93284 0.09947 0.55584 0.0
C1632 C 0.92425 0.08263 0.53688 0.0
C1633 C 0.89866 0.08266 0.53308 0.0
C1634 C 0.88207 0.09856 0.54867 0.0
H1635 H 0.85629 0.08814 0.64647 0.0
H1636 H 0.85806 0.08158 0.60695 0.0
H1637 H 0.88557 0.08757 0.62503 0.0
H1638 H 0.92324 0.12778 0.58633 0.0
H1639 H 0.95233 0.09971 0.55977 0.0
H1640 H 0.67628 0.18055 0.26775 0.0
H1641 H 0.64845 0.15242 0.2967 0.0
H1642 H 0.6742 0.17421 0.38067 0.0
H1643 H 0.70171 0.20255 0.35168 0.0
H1644 H 0.65737 0.11209 0.33718 0.0
H1645 H 0.6003 0.18317 0.39703 0.0
H1646 H 0.62135 0.19104 0.36526 0.0
H1647 H 0.63274 0.18357 0.40271 0.0
C1648 C 0.67586 0.17943 0.2924 0.0
C1649 C 0.69111 0.194 0.30736 0.0
C1650 C 0.65995 0.16325 0.30902 0.0
C1651 C 0.65864 0.16126 0.34114 0.0
C1652 C 0.67418 0.17562 0.35605 0.0
H1653 H 0.5735 0.07457 0.48301 0.0
H1654 H 0.60151 0.10246 0.454 0.0
C1655 C 0.69011 0.19176 0.33943 0.0
C1656 C 0.64148 0.14389 0.35886 0.0
H1657 H 0.59408 0.14133 0.41349 0.0
C1658 C 0.64346 0.11859 0.35374 0.0
C1659 C 0.62321 0.15201 0.38072 0.0
C1660 C 0.61904 0.17895 0.38663 0.0
C1661 C 0.6283 0.10135 0.37005 0.0
C1662 C 0.60995 0.10947 0.39186 0.0
C1663 C 0.60799 0.1348 0.39696 0.0
C1664 C 0.59275 0.09213 0.40963 0.0
C1665 C 0.63272 0.07439 0.36432 0.0
C1666 C 0.57795 0.07696 0.39479 0.0
C1667 C 0.56196 0.06091 0.41147 0.0
C1668 C 0.56004 0.05967 0.44351 0.0
C1669 C 0.57455 0.07501 0.45838 0.0
C1670 C 0.59058 0.09103 0.44172 0.0
H1671 H 0.6517 0.07022 0.35461 0.0
H1672 H 0.62997 0.06231 0.3856 0.0
H1673 H 0.61952 0.06972 0.34765 0.0
H1674 H 0.57849 0.07771 0.37018 0.0
H1675 H 0.5509 0.04954 0.39928 0.0
H1676 H 0.69499 0.79432 0.17101 0.0
H1677 H 0.66696 0.82233 0.14011 0.0
H1678 H 0.65358 0.86846 0.2151 0.0
H1679 H 0.68158 0.8403 0.24601 0.0
H1680 H 0.61006 0.85695 0.18616 0.0
H1681 H 0.68191 0.89239 0.10276 0.0
H1682 H 0.68176 0.85929 0.10817 0.0
H1683 H 0.68932 0.87653 0.13906 0.0
C1684 C 0.68603 0.8105 0.18072 0.0
C1685 C 0.69038 0.81542 0.21062 0.0
C1686 C 0.67018 0.8265 0.16311 0.0
C1687 C 0.65848 0.84766 0.17518 0.0
C1688 C 0.66254 0.85232 0.20532 0.0
H1689 H 0.55229 0.96458 0.10697 0.0
H1690 H 0.58026 0.93709 0.13849 0.0
C1691 C 0.67847 0.83634 0.2229 0.0
C1692 C 0.64175 0.86473 0.1565 0.0
H1693 H 0.64024 0.90411 0.09207 0.0
C1694 C 0.61664 0.86737 0.16566 0.0
C1695 C 0.65041 0.87821 0.12972 0.0
C1696 C 0.67735 0.8767 0.11938 0.0
C1697 C 0.59981 0.88276 0.14841 0.0
C1698 C 0.60847 0.89633 0.12165 0.0
C1699 C 0.63362 0.89371 0.11256 0.0
C1700 C 0.59174 0.91323 0.10265 0.0
C1701 C 0.57282 0.88383 0.15858 0.0
C1702 C 0.58948 0.90943 0.07182 0.0
C1703 C 0.57378 0.92528 0.0538 0.0
C1704 C 0.56014 0.9452 0.06631 0.0
C1705 C 0.5626 0.94922 0.09699 0.0
C1706 C 0.57839 0.93344 0.11498 0.0
H1707 H 0.5683 0.86751 0.1742 0.0
H1708 H 0.56833 0.90063 0.171 0.0
H1709 H 0.56088 0.88479 0.13878 0.0
H1710 H 0.5997 0.89406 0.06177 0.0
H1711 H 0.57216 0.92196 0.03012 0.0
H1712 H 0.58044 0.54356 0.59746 0.0
H1713 H 0.60552 0.57096 0.62225 0.0
H1714 H 0.58147 0.63205 0.5598 0.0
H1715 H 0.55662 0.60472 0.53449 0.0
H1716 H 0.64413 0.59984 0.59309 0.0
H1717 H 0.56743 0.65743 0.64601 0.0
H1718 H 0.56306 0.62755 0.63278 0.0
H1719 H 0.56572 0.65402 0.60598 0.0
C1720 C 0.5806 0.56279 0.58886 0.0
C1721 C 0.56655 0.57198 0.564 0.0
C1722 C 0.59481 0.57841 0.60315 0.0
C1723 C 0.59507 0.6035 0.593 0.0
C1724 C 0.58112 0.6128 0.56825 0.0
H1725 H 0.67095 0.7242 0.65555 0.0
H1726 H 0.64553 0.6989 0.62792 0.0
C1727 C 0.56692 0.59718 0.55387 0.0
C1728 C 0.61057 0.61976 0.60785 0.0
H1729 H 0.60799 0.66919 0.65101 0.0
C1730 C 0.63628 0.61501 0.60579 0.0
C1731 C 0.60016 0.63954 0.62418 0.0
C1732 C 0.57257 0.64494 0.62767 0.0
C1733 C 0.65198 0.62967 0.61958 0.0
C1734 C 0.64158 0.64923 0.63636 0.0
C1735 C 0.61586 0.65416 0.63812 0.0
C1736 C 0.65705 0.66444 0.65288 0.0
C1737 C 0.67956 0.62432 0.6157 0.0
C1738 C 0.67162 0.65343 0.67626 0.0
C1739 C 0.6861 0.66779 0.69204 0.0
C1740 C 0.68606 0.69345 0.68489 0.0
C1741 C 0.67119 0.70449 0.66169 0.0
C1742 C 0.65677 0.69008 0.64584 0.0
H1743 H 0.68457 0.61365 0.5956 0.0
H1744 H 0.68933 0.64169 0.6131 0.0
H1745 H 0.68626 0.61314 0.63618 0.0
H1746 H 0.67161 0.63375 0.68252 0.0
H1747 H 0.69703 0.65886 0.71017 0.0
H1748 H 0.53794 0.44104 0.91986 0.0
H1749 H 0.56454 0.4129 0.88953 0.0
H1750 H 0.6138 0.39931 0.96362 0.0
H1751 H 0.58702 0.42735 0.99399 0.0
H1752 H 0.61539 0.41743 0.87264 0.0
H1753 H 0.59961 0.32933 0.9418 0.0
H1754 H 0.57943 0.35693 0.945 0.0
H1755 H 0.60865 0.35398 0.96269 0.0
C1756 C 0.5544 0.43186 0.92956 0.0
C1757 C 0.56062 0.43612 0.95904 0.0
C1758 C 0.56953 0.41589 0.91234 0.0
C1759 C 0.59095 0.40383 0.9245 0.0
C1760 C 0.59713 0.40811 0.95405 0.0
H1761 H 0.70717 0.30349 0.85283 0.0
H1762 H 0.68036 0.33036 0.88462 0.0
C1763 C 0.582 0.42413 0.97127 0.0
C1764 C 0.60723 0.38746 0.90579 0.0
H1765 H 0.63041 0.32776 0.90181 0.0
C1766 C 0.61863 0.3978 0.87891 0.0
C1767 C 0.61145 0.36192 0.91419 0.0
C1768 C 0.59901 0.34975 0.94235 0.0
C1769 C 0.63446 0.38332 0.86034 0.0
C1770 C 0.63854 0.35772 0.86859 0.0
C1771 C 0.62721 0.34739 0.89555 0.0
C1772 C 0.6545 0.34133 0.8495 0.0
C1773 C 0.64707 0.39566 0.8324 0.0
C1774 C 0.64861 0.33836 0.81944 0.0
C1775 C 0.66391 0.32317 0.80136 0.0
C1776 C 0.68515 0.31059 0.8132 0.0
C1777 C 0.69084 0.31316 0.84337 0.0
C1778 C 0.67558 0.32841 0.86144 0.0
H1779 H 0.64729 0.41595 0.83378 0.0
H1780 H 0.66639 0.38786 0.82915 0.0
H1781 H 0.63692 0.39249 0.81204 0.0
H1782 H 0.63215 0.34776 0.81001 0.0
H1783 H 0.65924 0.32127 0.77812 0.0
H1784 H 0.79987 0.30265 0.15162 0.0
H1785 H 0.82833 0.33046 0.12325 0.0
H1786 H 0.84582 0.35897 0.20732 0.0
H1787 H 0.81762 0.33094 0.2356 0.0
H1788 H 0.8294 0.38026 0.116 0.0
H1789 H 0.91444 0.34346 0.17244 0.0
H1790 H 0.8861 0.32785 0.17701 0.0
H1791 H 0.89034 0.35369 0.19877 0.0
C1792 C 0.80988 0.31481 0.16402 0.0
C1793 C 0.80659 0.31438 0.19594 0.0
C1794 C 0.82619 0.33078 0.14777 0.0
C1795 C 0.83987 0.34672 0.16294 0.0
C1796 C 0.83622 0.34655 0.19486 0.0
H1797 H 0.9469 0.45823 0.10466 0.0
H1798 H 0.91815 0.43073 0.13305 0.0
C1799 C 0.81991 0.33058 0.21109 0.0
C1800 C 0.85745 0.36375 0.14537 0.0
H1801 H 0.91743 0.38058 0.14044 0.0
C1802 C 0.84867 0.38016 0.12132 0.0
C1803 C 0.88276 0.36397 0.152 0.0
C1804 C 0.89408 0.34615 0.17625 0.0
C1805 C 0.86408 0.39685 0.10443 0.0
C1806 C 0.88938 0.39707 0.11108 0.0
C1807 C 0.89815 0.38067 0.13512 0.0
C1808 C 0.90697 0.41407 0.09347 0.0
C1809 C 0.8528 0.41462 0.08011 0.0
C1810 C 0.91083 0.41397 0.06161 0.0
C1811 C 0.92727 0.42979 0.04535 0.0
C1812 C 0.94052 0.44609 0.06043 0.0
C1813 C 0.93691 0.44603 0.0923 0.0
C1814 C 0.92047 0.4302 0.10857 0.0
H1815 H 0.83242 0.41724 0.08378 0.0
H1816 H 0.86072 0.43295 0.0794 0.0
H1817 H 0.85668 0.40709 0.0576 0.0
H1818 H 0.90131 0.40144 0.04921 0.0
H1819 H 0.92969 0.42924 0.02088 0.0
H1820 H 0.93048 0.57798 0.47784 0.0
H1821 H 0.90195 0.60582 0.44744 0.0
H1822 H 0.9235 0.56649 0.3682 0.0
H1823 H 0.95202 0.53867 0.39865 0.0
H1824 H 0.91422 0.63651 0.39367 0.0
H1825 H 0.84708 0.56807 0.37224 0.0
H1826 H 0.86894 0.56267 0.40193 0.0
H1827 H 0.87891 0.55918 0.36296 0.0
C1828 C 0.92895 0.57532 0.45396 0.0
C1829 C 0.94322 0.55626 0.44046 0.0
C1830 C 0.91274 0.59116 0.43665 0.0
C1831 C 0.9104 0.58803 0.40567 0.0
C1832 C 0.92471 0.56896 0.39218 0.0
H1833 H 0.82128 0.66655 0.26491 0.0
H1834 H 0.85009 0.63783 0.29389 0.0
C1835 C 0.94101 0.55318 0.40947 0.0
C1836 C 0.89349 0.60517 0.38732 0.0
H1837 H 0.84149 0.60787 0.34652 0.0
C1838 C 0.89827 0.63029 0.38342 0.0
C1839 C 0.8728 0.59695 0.37385 0.0
C1840 C 0.86641 0.57029 0.37807 0.0
C1841 C 0.88306 0.6474 0.36611 0.0
C1842 C 0.86217 0.63926 0.35291 0.0
C1843 C 0.85749 0.61409 0.35666 0.0
C1844 C 0.84481 0.6566 0.33541 0.0
C1845 C 0.88981 0.67395 0.36158 0.0
C1846 C 0.83206 0.67645 0.34923 0.0
C1847 C 0.81577 0.69279 0.3327 0.0
C1848 C 0.81178 0.68937 0.30223 0.0
C1849 C 0.82421 0.66941 0.28844 0.0
C1850 C 0.84057 0.65308 0.30495 0.0
H1851 H 0.90963 0.67568 0.36552 0.0
H1852 H 0.88592 0.68203 0.33824 0.0
H1853 H 0.87868 0.68499 0.3781 0.0
H1854 H 0.8346 0.67921 0.37287 0.0
H1855 H 0.8062 0.70806 0.34369 0.0
H1856 H 0.33161 0.27885 0.34707 0.0
H1857 H 0.35913 0.30317 0.37307 0.0
H1858 H 0.33474 0.36879 0.31821 0.0
H1859 H 0.3075 0.34457 0.29174 0.0
H1860 H 0.38813 0.35922 0.32246 0.0
H1861 H 0.33653 0.35547 0.43498 0.0
H1862 H 0.34358 0.32642 0.41863 0.0
H1863 H 0.32261 0.34924 0.40035 0.0
C1864 C 0.33221 0.29844 0.34048 0.0
C1865 C 0.3174 0.30986 0.31744 0.0
C1866 C 0.34775 0.3123 0.35549 0.0
C1867 C 0.3487 0.33774 0.34769 0.0
C1868 C 0.33409 0.34917 0.3246 0.0
H1869 H 0.42897 0.45736 0.40063 0.0
H1870 H 0.40394 0.43032 0.37533 0.0
C1871 C 0.31847 0.33536 0.30967 0.0
C1872 C 0.36526 0.35246 0.36323 0.0
H1873 H 0.37421 0.37487 0.43149 0.0
C1874 C 0.38515 0.36267 0.3463 0.0
C1875 C 0.36127 0.35672 0.39431 0.0
C1876 C 0.33976 0.34657 0.4132 0.0
C1877 C 0.40135 0.37705 0.35975 0.0
C1878 C 0.39712 0.38172 0.39073 0.0
C1879 C 0.37737 0.37123 0.40773 0.0
C1880 C 0.41257 0.39794 0.40579 0.0
C1881 C 0.42303 0.38679 0.34079 0.0
C1882 C 0.42518 0.38884 0.43175 0.0
C1883 C 0.43917 0.40435 0.44657 0.0
C1884 C 0.44069 0.42928 0.43574 0.0
C1885 C 0.42798 0.43832 0.40972 0.0
C1886 C 0.41395 0.42281 0.39499 0.0
H1887 H 0.42774 0.37582 0.32088 0.0
H1888 H 0.41824 0.40617 0.33206 0.0
H1889 H 0.43961 0.38659 0.35453 0.0
H1890 H 0.42415 0.36973 0.44057 0.0
H1891 H 0.44845 0.39692 0.46681 0.0
H1892 H 0.42125 0.57875 0.0043 0.0
H1893 H 0.39488 0.60658 0.03545 0.0
H1894 H 0.42657 0.57087 0.11675 0.0
H1895 H 0.45303 0.54331 0.08557 0.0
H1896 H 0.35988 0.59301 0.08255 0.0
H1897 H 0.43379 0.64477 0.12516 0.0
H1898 H 0.43875 0.62637 0.09286 0.0
H1899 H 0.43863 0.61174 0.13091 0.0
C1900 C 0.42259 0.57712 0.02881 0.0
C1901 C 0.43913 0.55925 0.04275 0.0
C1902 C 0.4076 0.59288 0.04653 0.0
C1903 C 0.40908 0.591 0.07833 0.0
C1904 C 0.42552 0.57295 0.09221 0.0
H1905 H 0.33341 0.66188 0.2288 0.0
H1906 H 0.36003 0.63592 0.19569 0.0
C1907 C 0.44048 0.5572 0.07451 0.0
C1908 C 0.39286 0.60736 0.09715 0.0
H1909 H 0.39364 0.65091 0.14852 0.0
C1910 C 0.3672 0.60581 0.09683 0.0
C1911 C 0.40255 0.62395 0.11577 0.0
C1912 C 0.42992 0.62704 0.11609 0.0
C1913 C 0.35094 0.62003 0.11523 0.0
C1914 C 0.36063 0.63653 0.134 0.0
C1915 C 0.38629 0.63819 0.13415 0.0
C1916 C 0.34447 0.65211 0.15384 0.0
C1917 C 0.32358 0.61679 0.11506 0.0
C1918 C 0.32715 0.66993 0.14121 0.0
C1919 C 0.31201 0.68463 0.16005 0.0
C1920 C 0.31414 0.68181 0.19171 0.0
C1921 C 0.33156 0.6642 0.20438 0.0
C1922 C 0.3467 0.64948 0.18554 0.0
H1923 H 0.31975 0.59921 0.10558 0.0
H1924 H 0.3149 0.61702 0.1384 0.0
H1925 H 0.31469 0.63226 0.10067 0.0
H1926 H 0.32549 0.67259 0.11678 0.0
H1927 H 0.29871 0.69828 0.14999 0.0
H1928 H 0.20234 0.70297 0.85518 0.0
H1929 H 0.1742 0.67497 0.88361 0.0
H1930 H 0.15309 0.64967 0.7992 0.0
H1931 H 0.18103 0.67799 0.77081 0.0
H1932 H 0.11282 0.65707 0.83662 0.0
H1933 H 0.18353 0.60167 0.90345 0.0
H1934 H 0.18308 0.63409 0.90851 0.0
H1935 H 0.19159 0.62315 0.87172 0.0
C1936 C 0.19177 0.69133 0.84273 0.0
C1937 C 0.19406 0.69268 0.81069 0.0
C1938 C 0.17574 0.67513 0.85903 0.0
C1939 C 0.16162 0.65957 0.84385 0.0
C1940 C 0.16371 0.66119 0.81175 0.0
H1941 H 0.05232 0.54894 0.89978 0.0
H1942 H 0.08074 0.57662 0.87125 0.0
C1943 C 0.17974 0.67742 0.79544 0.0
C1944 C 0.14436 0.64209 0.86123 0.0
H1945 H 0.14162 0.59504 0.91805 0.0
C1946 C 0.11924 0.64343 0.85428 0.0
C1947 C 0.15237 0.62412 0.8845 0.0
C1948 C 0.17914 0.62044 0.89233 0.0
C1949 C 0.1021 0.62795 0.87012 0.0
C1950 C 0.1101 0.61002 0.89342 0.0
C1951 C 0.13521 0.60867 0.90036 0.0
C1952 C 0.09281 0.59263 0.91087 0.0
C1953 C 0.07533 0.63153 0.86222 0.0
C1954 C 0.09035 0.59146 0.94293 0.0
C1955 C 0.07418 0.57542 0.9593 0.0
C1956 C 0.06008 0.55988 0.94415 0.0
C1957 C 0.06279 0.56072 0.91216 0.0
C1958 C 0.07895 0.57677 0.89579 0.0
H1959 H 0.07095 0.65017 0.85075 0.0
H1960 H 0.07139 0.61763 0.84638 0.0
H1961 H 0.06288 0.62907 0.88288 0.0
H1962 H 0.10078 0.60322 0.95539 0.0
H1963 H 0.07264 0.57517 0.9839 0.0
H1964 H 0.08688 0.43921 0.52744 0.0
H1965 H 0.11527 0.4111 0.55774 0.0
H1966 H 0.06818 0.42159 0.63815 0.0
H1967 H 0.03963 0.4493 0.60763 0.0
H1968 H 0.14141 0.41938 0.6074 0.0
H1969 H 0.07577 0.3467 0.63856 0.0
H1970 H 0.06993 0.37123 0.6092 0.0
H1971 H 0.06451 0.3769 0.64867 0.0
C1972 C 0.08272 0.43539 0.55158 0.0
C1973 C 0.0612 0.44614 0.56537 0.0
C1974 C 0.09886 0.41941 0.56885 0.0
C1975 C 0.09364 0.41391 0.60011 0.0
C1976 C 0.07229 0.42511 0.61396 0.0
H1977 H 0.17103 0.32279 0.74186 0.0
H1978 H 0.14265 0.35213 0.71311 0.0
C1979 C 0.05612 0.44101 0.59666 0.0
C1980 C 0.11071 0.39671 0.61825 0.0
H1981 H 0.1139 0.34232 0.66303 0.0
C1982 C 0.13542 0.40249 0.61947 0.0
C1983 C 0.10287 0.37466 0.634 0.0
C1984 C 0.07689 0.36682 0.63238 0.0
C1985 C 0.1524 0.38699 0.63634 0.0
C1986 C 0.14454 0.365 0.65209 0.0
C1987 C 0.11984 0.35925 0.651 0.0
C1988 C 0.16178 0.34748 0.66946 0.0
C1989 C 0.17854 0.39446 0.63757 0.0
C1990 C 0.18173 0.33501 0.65437 0.0
C1991 C 0.19777 0.31824 0.6707 0.0
C1992 C 0.19404 0.31363 0.70232 0.0
C1993 C 0.17411 0.32606 0.71744 0.0
C1994 C 0.15799 0.34276 0.70108 0.0
H1995 H 0.18007 0.41441 0.63053 0.0
H1996 H 0.18538 0.39054 0.66088 0.0
H1997 H 0.19076 0.38363 0.62186 0.0
H1998 H 0.18475 0.33809 0.62993 0.0
H1999 H 0.21304 0.30877 0.65868 0.0
loop_
_geom_bond_atom_site_label_1
_geom_bond_atom_site_label_2
_geom_bond_distance
_geom_bond_site_symmetry_2
_ccdc_geom_bond_type
C0 C1 1.443 . S
C0 N4 1.376 . S
C0 C38 1.389 1_545 S
C1 C0 1.443 . S
C1 C2 1.340 . S
C1 H41 0.951 . S
C2 C1 1.340 . S
C2 C3 1.439 . S
C2 H42 0.950 . S
C3 C2 1.439 . S
C3 N4 1.374 . S
C3 C37 1.395 1_554 S
N4 C0 1.376 . S
N4 C3 1.374 . S
N4 Co5 2.008 1_655 S
Co5 N4 2.008 1_455 S
Co5 N6 1.995 1_454 S
Co5 N11 2.008 1_544 S
Co5 N16 1.995 1_545 S
Co5 N21 2.282 1_444 S
Co5 N27 2.282 . S
N6 Co5 1.995 1_656 S
N6 C7 1.376 . S
N6 C10 1.383 . S
C7 N6 1.376 . S
C7 C8 1.446 . S
C7 C37 1.391 . S
C8 C7 1.446 . S
C8 C9 1.339 . S
C8 H43 0.949 . S
C9 C8 1.339 . S
C9 C10 1.439 . S
C9 H44 0.950 . S
C10 N6 1.383 . S
C10 C9 1.439 . S
C10 C39 1.392 1_655 S
N11 Co5 2.008 1_566 S
N11 C12 1.376 . S
N11 C15 1.374 . S
C12 N11 1.376 . S
C12 C13 1.443 . S
C12 C39 1.389 1_565 S
C13 C12 1.443 . S
C13 C14 1.340 . S
C13 H45 0.951 . S
C14 C13 1.340 . S
C14 C15 1.439 . S
C14 H46 0.950 . S
C15 N11 1.374 . S
C15 C14 1.439 . S
C15 C40 1.395 1_556 S
N16 Co5 1.995 1_565 S
N16 C17 1.376 . S
N16 C20 1.383 . S
C17 N16 1.376 . S
C17 C18 1.446 . S
C17 C40 1.391 . S
C18 C17 1.446 . S
C18 C19 1.339 . S
C18 H47 0.949 . S
C19 C18 1.339 . S
C19 C20 1.439 . S
C19 H48 0.950 . S
C20 N16 1.383 . S
C20 C19 1.439 . S
C20 C38 1.392 1_455 S
N21 Co5 2.282 1_666 S
N21 C24 1.332 . S
N21 C26 1.332 . S
C22 C23 1.386 . S
C22 C25 1.388 . S
C23 C22 1.386 . S
C23 C24 1.382 . S
C23 H49 0.950 . S
C24 N21 1.332 . S
C24 C23 1.382 . S
C24 H35 0.952 . S
C25 C22 1.388 . S
C25 C26 1.382 . S
C25 H50 0.950 . S
C26 N21 1.332 . S
C26 C25 1.382 . S
C26 H36 0.953 1_565 S
N27 Co5 2.282 . S
N27 C31 1.332 . S
N27 C32 1.332 . S
C28 C29 1.388 . S
C28 C32 1.382 . S
C28 H51 0.950 . S
C29 C28 1.388 . S
C29 C30 1.386 . S
C30 C29 1.386 . S
C30 C31 1.382 . S
C30 H52 0.950 . S
C31 N27 1.332 . S
C31 C30 1.382 . S
C31 H33 0.952 . S
C32 N27 1.332 . S
C32 C28 1.382 . S
C32 H34 0.953 . S
H33 C31 0.952 . S
H34 C32 0.953 . S
H35 C24 0.952 . S
H36 C26 0.953 1_545 S
C37 C3 1.395 1_556 S
C37 C7 1.391 . S
C38 C0 1.389 1_565 S
C38 C20 1.392 1_655 S
C39 C10 1.392 1_455 S
C39 C12 1.389 1_545 S
C40 C15 1.395 1_554 S
C40 C17 1.391 . S
H41 C1 0.951 . S
H42 C2 0.950 . S
H43 C8 0.949 . S
H44 C9 0.950 . S
H45 C13 0.951 . S
H46 C14 0.950 . S
H47 C18 0.949 . S
H48 C19 0.950 . S
H49 C23 0.950 . S
H50 C25 0.950 . S
H51 C28 0.950 . S
H52 C30 0.950 . S
C53 C54 1.443 . S
C53 N57 1.376 . S
C53 C91 1.389 . S
C54 C53 1.443 . S
C54 C55 1.340 . S
C54 H94 0.951 . S
C55 C54 1.340 . S
C55 C56 1.439 . S
C55 H95 0.950 . S
C56 C55 1.439 . S
C56 N57 1.374 . S
C56 C90 1.395 . S
N57 C53 1.376 . S
N57 C56 1.374 . S
N57 Co58 2.008 . S
Co58 N57 2.008 . S
Co58 N59 1.995 . S
Co58 N64 2.008 . S
Co58 N69 1.995 . S
Co58 N74 2.282 . S
Co58 N80 2.282 . S
N59 Co58 1.995 . S
N59 C60 1.376 . S
N59 C63 1.383 . S
C60 N59 1.376 . S
C60 C61 1.446 . S
C60 C90 1.391 . S
C61 C60 1.446 . S
C61 C62 1.339 . S
C61 H96 0.949 . S
C62 C61 1.339 . S
C62 C63 1.439 . S
C62 H97 0.950 . S
C63 N59 1.383 . S
C63 C62 1.439 . S
C63 C92 1.392 . S
N64 Co58 2.008 . S
N64 C65 1.376 . S
N64 C68 1.374 . S
C65 N64 1.376 . S
C65 C66 1.443 . S
C65 C92 1.389 . S
C66 C65 1.443 . S
C66 C67 1.340 . S
C66 H98 0.951 . S
C67 C66 1.340 . S
C67 C68 1.439 . S
C67 H99 0.950 . S
C68 N64 1.374 . S
C68 C67 1.439 . S
C68 C93 1.395 . S
N69 Co58 1.995 . S
N69 C70 1.376 . S
N69 C73 1.383 . S
C70 N69 1.376 . S
C70 C71 1.446 . S
C70 C93 1.391 . S
C71 C70 1.446 . S
C71 C72 1.339 . S
C71 H100 0.949 . S
C72 C71 1.339 . S
C72 C73 1.439 . S
C72 H101 0.950 . S
C73 N69 1.383 . S
C73 C72 1.439 . S
C73 C91 1.392 . S
N74 Co58 2.282 . S
N74 C77 1.332 . S
N74 C79 1.332 . S
C75 C76 1.386 . S
C75 C78 1.388 . S
C76 C75 1.386 . S
C76 C77 1.382 . S
C76 H102 0.950 . S
C77 N74 1.332 . S
C77 C76 1.382 . S
C77 H88 0.952 . S
C78 C75 1.388 . S
C78 C79 1.382 . S
C78 H103 0.950 . S
C79 N74 1.332 . S
C79 C78 1.382 . S
C79 H89 0.948 . S
N80 Co58 2.282 . S
N80 C84 1.332 . S
N80 C85 1.332 . S
C81 C82 1.388 . S
C81 C85 1.382 . S
C81 H104 0.950 . S
C82 C81 1.388 . S
C82 C83 1.386 . S
C83 C82 1.386 . S
C83 C84 1.382 . S
C83 H105 0.950 . S
C84 N80 1.332 . S
C84 C83 1.382 . S
C84 H86 0.952 . S
C85 N80 1.332 . S
C85 C81 1.382 . S
C85 H87 0.948 . S
H86 C84 0.952 . S
H87 C85 0.948 . S
H88 C77 0.952 . S
H89 C79 0.948 . S
C90 C56 1.395 . S
C90 C60 1.391 . S
C91 C53 1.389 . S
C91 C73 1.392 . S
C92 C63 1.392 . S
C92 C65 1.389 . S
C93 C68 1.395 . S
C93 C70 1.391 . S
H94 C54 0.951 . S
H95 C55 0.950 . S
H96 C61 0.949 . S
H97 C62 0.950 . S
H98 C66 0.951 . S
H99 C67 0.950 . S
H100 C71 0.949 . S
H101 C72 0.950 . S
H102 C76 0.950 . S
H103 C78 0.950 . S
H104 C81 0.950 . S
H105 C83 0.950 . S
C106 C107 1.443 . S
C106 N110 1.376 1_565 S
C106 C144 1.389 . S
C107 C106 1.443 . S
C107 C108 1.340 1_565 S
C107 H147 0.951 . S
C108 C107 1.340 1_545 S
C108 C109 1.439 . S
C108 H148 0.950 . S
C109 C108 1.439 . S
C109 N110 1.374 . S
C109 C143 1.395 . S
N110 C106 1.376 1_545 S
N110 C109 1.374 . S
N110 Co111 2.008 . S
Co111 N110 2.008 . S
Co111 N112 1.995 . S
Co111 N117 2.008 1_545 S
Co111 N122 1.995 1_545 S
Co111 N127 2.282 1_545 S
Co111 N133 2.282 . S
N112 Co111 1.995 . S
N112 C113 1.376 . S
N112 C116 1.383 . S
C113 N112 1.376 . S
C113 C114 1.446 . S
C113 C143 1.391 . S
C114 C113 1.446 . S
C114 C115 1.339 . S
C114 H149 0.949 . S
C115 C114 1.339 . S
C115 C116 1.439 . S
C115 H150 0.950 . S
C116 N112 1.383 . S
C116 C115 1.439 . S
C116 C145 1.392 . S
N117 Co111 2.008 1_565 S
N117 C118 1.376 1_565 S
N117 C121 1.374 . S
C118 N117 1.376 1_545 S
C118 C119 1.443 . S
C118 C145 1.389 . S
C119 C118 1.443 . S
C119 C120 1.340 1_545 S
C119 H151 0.951 . S
C120 C119 1.340 1_565 S
C120 C121 1.439 . S
C120 H152 0.950 . S
C121 N117 1.374 . S
C121 C120 1.439 . S
C121 C146 1.395 . S
N122 Co111 1.995 1_565 S
N122 C123 1.376 . S
N122 C126 1.383 . S
C123 N122 1.376 . S
C123 C124 1.446 . S
C123 C146 1.391 . S
C124 C123 1.446 . S
C124 C125 1.339 . S
C124 H153 0.949 . S
C125 C124 1.339 . S
C125 C126 1.439 . S
C125 H154 0.950 . S
C126 N122 1.383 . S
C126 C125 1.439 . S
C126 C144 1.392 . S
N127 Co111 2.282 1_565 S
N127 C130 1.332 . S
N127 C132 1.332 1_565 S
C128 C129 1.386 . S
C128 C131 1.388 1_565 S
C129 C128 1.386 . S
C129 C130 1.382 . S
C129 H155 0.950 . S
C130 N127 1.332 . S
C130 C129 1.382 . S
C130 H141 0.952 . S
C131 C128 1.388 1_545 S
C131 C132 1.382 . S
C131 H156 0.950 . S
C132 N127 1.332 1_545 S
C132 C131 1.382 . S
C132 H142 0.948 . S
N133 Co111 2.282 . S
N133 C137 1.332 . S
N133 C138 1.332 1_545 S
C134 C135 1.388 1_565 S
C134 C138 1.382 . S
C134 H157 0.950 . S
C135 C134 1.388 1_545 S
C135 C136 1.386 . S
C136 C135 1.386 . S
C136 C137 1.382 . S
C136 H158 0.950 . S
C137 N133 1.332 . S
C137 C136 1.382 . S
C137 H139 0.952 . S
C138 N133 1.332 1_565 S
C138 C134 1.382 . S
C138 H140 0.948 . S
H139 C137 0.952 . S
H140 C138 0.948 . S
H141 C130 0.952 . S
H142 C132 0.948 . S
C143 C109 1.395 . S
C143 C113 1.391 . S
C144 C106 1.389 . S
C144 C126 1.392 . S
C145 C116 1.392 . S
C145 C118 1.389 . S
C146 C121 1.395 . S
C146 C123 1.391 . S
H147 C107 0.951 . S
H148 C108 0.950 . S
H149 C114 0.949 . S
H150 C115 0.950 . S
H151 C119 0.951 . S
H152 C120 0.950 . S
H153 C124 0.949 . S
H154 C125 0.950 . S
H155 C129 0.950 . S
H156 C131 0.950 . S
H157 C134 0.950 . S
H158 C136 0.950 . S
C159 C160 1.443 . S
C159 N163 1.376 . S
C159 C197 1.389 . S
C160 C159 1.443 . S
C160 C161 1.340 . S
C160 H200 0.951 . S
C161 C160 1.340 . S
C161 C162 1.439 . S
C161 H201 0.950 . S
C162 C161 1.439 . S
C162 N163 1.374 . S
C162 C196 1.395 . S
N163 C159 1.376 . S
N163 C162 1.374 . S
N163 Co164 2.008 . S
Co164 N163 2.008 . S
Co164 N165 1.995 . S
Co164 N170 2.008 . S
Co164 N175 1.995 . S
Co164 N180 2.282 . S
Co164 N186 2.282 . S
N165 Co164 1.995 . S
N165 C166 1.376 . S
N165 C169 1.383 . S
C166 N165 1.376 . S
C166 C167 1.446 . S
C166 C196 1.391 . S
C167 C166 1.446 . S
C167 C168 1.339 . S
C167 H202 0.949 . S
C168 C167 1.339 . S
C168 C169 1.439 . S
C168 H203 0.950 . S
C169 N165 1.383 . S
C169 C168 1.439 . S
C169 C198 1.392 . S
N170 Co164 2.008 . S
N170 C171 1.376 . S
N170 C174 1.374 . S
C171 N170 1.376 . S
C171 C172 1.443 . S
C171 C198 1.389 . S
C172 C171 1.443 . S
C172 C173 1.340 . S
C172 H204 0.951 . S
C173 C172 1.340 . S
C173 C174 1.439 . S
C173 H205 0.950 . S
C174 N170 1.374 . S
C174 C173 1.439 . S
C174 C199 1.395 . S
N175 Co164 1.995 . S
N175 C176 1.376 . S
N175 C179 1.383 . S
C176 N175 1.376 . S
C176 C177 1.446 . S
C176 C199 1.391 . S
C177 C176 1.446 . S
C177 C178 1.339 . S
C177 H206 0.949 . S
C178 C177 1.339 . S
C178 C179 1.439 . S
C178 H207 0.950 . S
C179 N175 1.383 . S
C179 C178 1.439 . S
C179 C197 1.392 . S
N180 Co164 2.282 . S
N180 C183 1.332 . S
N180 C185 1.332 . S
C181 C182 1.386 . S
C181 C184 1.388 . S
C182 C181 1.386 . S
C182 C183 1.382 . S
C182 H208 0.950 . S
C183 N180 1.332 . S
C183 C182 1.382 . S
C183 H194 0.952 . S
C184 C181 1.388 . S
C184 C185 1.382 . S
C184 H209 0.950 . S
C185 N180 1.332 . S
C185 C184 1.382 . S
C185 H195 0.948 . S
N186 Co164 2.282 . S
N186 C190 1.332 . S
N186 C191 1.332 . S
C187 C188 1.388 . S
C187 C191 1.382 . S
C187 H210 0.950 . S
C188 C187 1.388 . S
C188 C189 1.386 . S
C189 C188 1.386 . S
C189 C190 1.382 . S
C189 H211 0.950 . S
C190 N186 1.332 . S
C190 C189 1.382 . S
C190 H192 0.952 . S
C191 N186 1.332 . S
C191 C187 1.382 . S
C191 H193 0.948 . S
H192 C190 0.952 . S
H193 C191 0.948 . S
H194 C183 0.952 . S
H195 C185 0.948 . S
C196 C162 1.395 . S
C196 C166 1.391 . S
C197 C159 1.389 . S
C197 C179 1.392 . S
C198 C169 1.392 . S
C198 C171 1.389 . S
C199 C174 1.395 . S
C199 C176 1.391 . S
H200 C160 0.951 . S
H201 C161 0.950 . S
H202 C167 0.949 . S
H203 C168 0.950 . S
H204 C172 0.951 . S
H205 C173 0.950 . S
H206 C177 0.949 . S
H207 C178 0.950 . S
H208 C182 0.950 . S
H209 C184 0.950 . S
H210 C187 0.950 . S
H211 C189 0.950 . S
C212 C213 1.443 . S
C212 N216 1.376 . S
C212 C250 1.389 1_655 S
C213 C212 1.443 . S
C213 C214 1.340 . S
C213 H253 0.951 . S
C214 C213 1.340 . S
C214 C215 1.439 . S
C214 H254 0.950 . S
C215 C214 1.439 . S
C215 N216 1.374 . S
C215 C249 1.395 . S
N216 C212 1.376 . S
N216 C215 1.374 . S
N216 Co217 2.008 1_665 S
Co217 N216 2.008 1_445 S
Co217 N218 1.995 1_445 S
Co217 N223 2.008 . S
Co217 N228 1.995 . S
Co217 N233 2.282 1_545 S
Co217 N239 2.282 1_455 S
N218 Co217 1.995 1_665 S
N218 C219 1.376 . S
N218 C222 1.383 . S
C219 N218 1.376 . S
C219 C220 1.446 . S
C219 C249 1.391 . S
C220 C219 1.446 . S
C220 C221 1.339 . S
C220 H255 0.949 . S
C221 C220 1.339 . S
C221 C222 1.439 . S
C221 H256 0.950 . S
C222 N218 1.383 . S
C222 C221 1.439 . S
C222 C251 1.392 1_565 S
N223 Co217 2.008 . S
N223 C224 1.376 . S
N223 C227 1.374 . S
C224 N223 1.376 . S
C224 C225 1.443 . S
C224 C251 1.389 1_455 S
C225 C224 1.443 . S
C225 C226 1.340 . S
C225 H257 0.951 . S
C226 C225 1.340 . S
C226 C227 1.439 . S
C226 H258 0.950 . S
C227 N223 1.374 . S
C227 C226 1.439 . S
C227 C252 1.395 . S
N228 Co217 1.995 . S
N228 C229 1.376 . S
N228 C232 1.383 . S
C229 N228 1.376 . S
C229 C230 1.446 . S
C229 C252 1.391 . S
C230 C229 1.446 . S
C230 C231 1.339 . S
C230 H259 0.949 . S
C231 C230 1.339 . S
C231 C232 1.439 . S
C231 H260 0.950 . S
C232 N228 1.383 . S
C232 C231 1.439 . S
C232 C250 1.392 1_545 S
N233 Co217 2.282 1_565 S
N233 C236 1.332 . S
N233 C238 1.332 . S
C234 C235 1.386 . S
C234 C237 1.388 . S
C235 C234 1.386 . S
C235 C236 1.382 . S
C235 H261 0.950 . S
C236 N233 1.332 . S
C236 C235 1.382 . S
C236 H247 0.952 . S
C237 C234 1.388 . S
C237 C238 1.382 . S
C237 H262 0.950 . S
C238 N233 1.332 . S
C238 C237 1.382 . S
C238 H248 0.948 . S
N239 Co217 2.282 1_655 S
N239 C243 1.332 . S
N239 C244 1.332 . S
C240 C241 1.388 . S
C240 C244 1.382 . S
C240 H263 0.950 . S
C241 C240 1.388 . S
C241 C242 1.386 . S
C242 C241 1.386 . S
C242 C243 1.382 . S
C242 H264 0.950 . S
C243 N239 1.332 . S
C243 C242 1.382 . S
C243 H245 0.952 . S
C244 N239 1.332 . S
C244 C240 1.382 . S
C244 H246 0.948 . S
H245 C243 0.952 . S
H246 C244 0.948 . S
H247 C236 0.952 . S
H248 C238 0.948 . S
C249 C215 1.395 . S
C249 C219 1.391 . S
C250 C212 1.389 1_455 S
C250 C232 1.392 1_565 S
C251 C222 1.392 1_545 S
C251 C224 1.389 1_655 S
C252 C227 1.395 . S
C252 C229 1.391 . S
H253 C213 0.951 . S
H254 C214 0.950 . S
H255 C220 0.949 . S
H256 C221 0.950 . S
H257 C225 0.951 . S
H258 C226 0.950 . S
H259 C230 0.949 . S
H260 C231 0.950 . S
H261 C235 0.950 . S
H262 C237 0.950 . S
H263 C240 0.950 . S
H264 C242 0.950 . S
C265 C266 1.443 . S
C265 N269 1.376 . S
C265 C303 1.389 . S
C266 C265 1.443 . S
C266 C267 1.340 . S
C266 H306 0.951 . S
C267 C266 1.340 . S
C267 C268 1.439 . S
C267 H307 0.950 . S
C268 C267 1.439 . S
C268 N269 1.374 . S
C268 C302 1.395 . S
N269 C265 1.376 . S
N269 C268 1.374 . S
N269 Co270 2.008 . S
Co270 N269 2.008 . S
Co270 N271 1.995 . S
Co270 N276 2.008 . S
Co270 N281 1.995 . S
Co270 N286 2.282 . S
Co270 N292 2.282 . S
N271 Co270 1.995 . S
N271 C272 1.376 . S
N271 C275 1.383 . S
C272 N271 1.376 . S
C272 C273 1.446 . S
C272 C302 1.391 . S
C273 C272 1.446 . S
C273 C274 1.339 . S
C273 H308 0.949 . S
C274 C273 1.339 . S
C274 C275 1.439 . S
C274 H309 0.950 . S
C275 N271 1.383 . S
C275 C274 1.439 . S
C275 C304 1.392 . S
N276 Co270 2.008 . S
N276 C277 1.376 . S
N276 C280 1.374 . S
C277 N276 1.376 . S
C277 C278 1.443 . S
C277 C304 1.389 . S
C278 C277 1.443 . S
C278 C279 1.340 . S
C278 H310 0.951 . S
C279 C278 1.340 . S
C279 C280 1.439 . S
C279 H311 0.950 . S
C280 N276 1.374 . S
C280 C279 1.439 . S
C280 C305 1.395 . S
N281 Co270 1.995 . S
N281 C282 1.376 . S
N281 C285 1.383 . S
C282 N281 1.376 . S
C282 C283 1.446 . S
C282 C305 1.391 . S
C283 C282 1.446 . S
C283 C284 1.339 . S
C283 H312 0.949 . S
C284 C283 1.339 . S
C284 C285 1.439 . S
C284 H313 0.950 . S
C285 N281 1.383 . S
C285 C284 1.439 . S
C285 C303 1.392 . S
N286 Co270 2.282 . S
N286 C289 1.332 . S
N286 C291 1.332 . S
C287 C288 1.386 . S
C287 C290 1.388 . S
C288 C287 1.386 . S
C288 C289 1.382 . S
C288 H314 0.950 . S
C289 N286 1.332 . S
C289 C288 1.382 . S
C289 H300 0.952 . S
C290 C287 1.388 . S
C290 C291 1.382 . S
C290 H315 0.950 . S
C291 N286 1.332 . S
C291 C290 1.382 . S
C291 H301 0.948 . S
N292 Co270 2.282 . S
N292 C296 1.332 . S
N292 C297 1.332 . S
C293 C294 1.388 . S
C293 C297 1.382 . S
C293 H316 0.950 . S
C294 C293 1.388 . S
C294 C295 1.386 . S
C295 C294 1.386 . S
C295 C296 1.382 . S
C295 H317 0.950 . S
C296 N292 1.332 . S
C296 C295 1.382 . S
C296 H298 0.952 . S
C297 N292 1.332 . S
C297 C293 1.382 . S
C297 H299 0.948 . S
H298 C296 0.952 . S
H299 C297 0.948 . S
H300 C289 0.952 . S
H301 C291 0.948 . S
C302 C268 1.395 . S
C302 C272 1.391 . S
C303 C265 1.389 . S
C303 C285 1.392 . S
C304 C275 1.392 . S
C304 C277 1.389 . S
C305 C280 1.395 . S
C305 C282 1.391 . S
H306 C266 0.951 . S
H307 C267 0.950 . S
H308 C273 0.949 . S
H309 C274 0.950 . S
H310 C278 0.951 . S
H311 C279 0.950 . S
H312 C283 0.949 . S
H313 C284 0.950 . S
H314 C288 0.950 . S
H315 C290 0.950 . S
H316 C293 0.950 . S
H317 C295 0.950 . S
C318 C319 1.443 . S
C318 N322 1.352 1_545 S
C318 C356 1.389 . S
C319 C318 1.443 . S
C319 C320 1.340 1_545 S
C319 H359 0.951 . S
C320 C319 1.340 1_565 S
C320 C321 1.439 . S
C320 H360 0.950 . S
C321 C320 1.439 . S
C321 N322 1.404 . S
C321 C355 1.396 . S
N322 C318 1.352 1_565 S
N322 C321 1.404 . S
N322 Co323 2.004 1_566 S
Co323 N322 2.004 1_544 S
Co323 N324 1.995 1_545 S
Co323 N329 2.003 . S
Co323 N334 1.995 1_554 S
Co323 N339 2.282 . S
Co323 N345 2.282 1_544 S
N324 Co323 1.995 1_565 S
N324 C325 1.376 . S
N324 C328 1.383 . S
C325 N324 1.376 . S
C325 C326 1.446 . S
C325 C355 1.390 1_554 S
C326 C325 1.446 . S
C326 C327 1.339 . S
C326 H361 0.949 . S
C327 C326 1.339 . S
C327 C328 1.439 . S
C327 H362 0.950 . S
C328 N324 1.383 . S
C328 C327 1.439 . S
C328 C357 1.392 . S
N329 Co323 2.003 . S
N329 C330 1.345 1_545 S
N329 C333 1.413 . S
C330 N329 1.345 1_565 S
C330 C331 1.443 . S
C330 C357 1.389 . S
C331 C330 1.443 . S
C331 C332 1.340 1_565 S
C331 H363 0.951 . S
C332 C331 1.340 1_545 S
C332 C333 1.439 . S
C332 H364 0.950 . S
C333 N329 1.413 . S
C333 C332 1.439 . S
C333 C358 1.399 . S
N334 Co323 1.995 1_556 S
N334 C335 1.376 . S
N334 C338 1.383 . S
C335 N334 1.376 . S
C335 C336 1.446 . S
C335 C358 1.387 1_556 S
C336 C335 1.446 . S
C336 C337 1.339 . S
C336 H365 0.949 . S
C337 C336 1.339 . S
C337 C338 1.439 . S
C337 H366 0.950 . S
C338 N334 1.383 . S
C338 C337 1.439 . S
C338 C356 1.392 . S
N339 Co323 2.282 . S
N339 C342 1.332 . S
N339 C344 1.332 1_545 S
C340 C341 1.386 . S
C340 C343 1.388 1_545 S
C341 C340 1.386 . S
C341 C342 1.382 . S
C341 H367 0.950 . S
C342 N339 1.332 . S
C342 C341 1.382 . S
C342 H353 0.952 . S
C343 C340 1.388 1_565 S
C343 C344 1.382 . S
C343 H368 0.950 . S
C344 N339 1.332 1_565 S
C344 C343 1.382 . S
C344 H354 0.948 . S
N345 Co323 2.282 1_566 S
N345 C349 1.332 . S
N345 C350 1.332 1_565 S
C346 C347 1.388 1_545 S
C346 C350 1.382 . S
C346 H369 0.950 . S
C347 C346 1.388 1_565 S
C347 C348 1.386 . S
C348 C347 1.386 . S
C348 C349 1.382 . S
C348 H370 0.950 . S
C349 N345 1.332 . S
C349 C348 1.382 . S
C349 H351 0.952 . S
C350 N345 1.332 1_545 S
C350 C346 1.382 . S
C350 H352 0.948 . S
H351 C349 0.952 . S
H352 C350 0.948 . S
H353 C342 0.952 . S
H354 C344 0.948 . S
C355 C321 1.396 . S
C355 C325 1.390 1_556 S
C356 C318 1.389 . S
C356 C338 1.392 . S
C357 C328 1.392 . S
C357 C330 1.389 . S
C358 C333 1.399 . S
C358 C335 1.387 1_554 S
H359 C319 0.951 . S
H360 C320 0.950 . S
H361 C326 0.949 . S
H362 C327 0.950 . S
H363 C331 0.951 . S
H364 C332 0.950 . S
H365 C336 0.949 . S
H366 C337 0.950 . S
H367 C341 0.950 . S
H368 C343 0.950 . S
H369 C346 0.950 . S
H370 C348 0.950 . S
C371 C372 1.443 . S
C371 N375 1.376 . S
C371 C409 1.389 . S
C372 C371 1.443 . S
C372 C373 1.340 . S
C372 H412 0.951 . S
C373 C372 1.340 . S
C373 C374 1.439 . S
C373 H413 0.950 . S
C374 C373 1.439 . S
C374 N375 1.374 . S
C374 C408 1.395 . S
N375 C371 1.376 . S
N375 C374 1.374 . S
N375 Co376 2.008 . S
Co376 N375 2.008 . S
Co376 N377 1.995 . S
Co376 N382 2.008 . S
Co376 N387 1.995 . S
Co376 N392 2.282 . S
Co376 N398 2.282 . S
N377 Co376 1.995 . S
N377 C378 1.376 . S
N377 C381 1.383 . S
C378 N377 1.376 . S
C378 C379 1.446 . S
C378 C408 1.391 . S
C379 C378 1.446 . S
C379 C380 1.339 . S
C379 H414 0.949 . S
C380 C379 1.339 . S
C380 C381 1.439 . S
C380 H415 0.950 . S
C381 N377 1.383 . S
C381 C380 1.439 . S
C381 C410 1.392 . S
N382 Co376 2.008 . S
N382 C383 1.376 . S
N382 C386 1.374 . S
C383 N382 1.376 . S
C383 C384 1.443 . S
C383 C410 1.389 . S
C384 C383 1.443 . S
C384 C385 1.340 . S
C384 H416 0.951 . S
C385 C384 1.340 . S
C385 C386 1.439 . S
C385 H417 0.950 . S
C386 N382 1.374 . S
C386 C385 1.439 . S
C386 C411 1.395 . S
N387 Co376 1.995 . S
N387 C388 1.376 . S
N387 C391 1.383 . S
C388 N387 1.376 . S
C388 C389 1.446 . S
C388 C411 1.391 . S
C389 C388 1.446 . S
C389 C390 1.339 . S
C389 H418 0.949 . S
C390 C389 1.339 . S
C390 C391 1.439 . S
C390 H419 0.950 . S
C391 N387 1.383 . S
C391 C390 1.439 . S
C391 C409 1.392 . S
N392 Co376 2.282 . S
N392 C395 1.332 . S
N392 C397 1.332 . S
C393 C394 1.386 . S
C393 C396 1.388 . S
C394 C393 1.386 . S
C394 C395 1.382 . S
C394 H420 0.950 . S
C395 N392 1.332 . S
C395 C394 1.382 . S
C395 H406 0.952 . S
C396 C393 1.388 . S
C396 C397 1.382 . S
C396 H421 0.950 . S
C397 N392 1.332 . S
C397 C396 1.382 . S
C397 H407 0.948 . S
N398 Co376 2.282 . S
N398 C402 1.332 . S
N398 C403 1.332 . S
C399 C400 1.388 . S
C399 C403 1.382 . S
C399 H422 0.950 . S
C400 C399 1.388 . S
C400 C401 1.386 . S
C401 C400 1.386 . S
C401 C402 1.382 . S
C401 H423 0.950 . S
C402 N398 1.332 . S
C402 C401 1.382 . S
C402 H404 0.952 . S
C403 N398 1.332 . S
C403 C399 1.382 . S
C403 H405 0.948 . S
H404 C402 0.952 . S
H405 C403 0.948 . S
H406 C395 0.952 . S
H407 C397 0.948 . S
C408 C374 1.395 . S
C408 C378 1.391 . S
C409 C371 1.389 . S
C409 C391 1.392 . S
C410 C381 1.392 . S
C410 C383 1.389 . S
C411 C386 1.395 . S
C411 C388 1.391 . S
H412 C372 0.951 . S
H413 C373 0.950 . S
H414 C379 0.949 . S
H415 C380 0.950 . S
H416 C384 0.951 . S
H417 C385 0.950 . S
H418 C389 0.949 . S
H419 C390 0.950 . S
H420 C394 0.950 . S
H421 C396 0.950 . S
H422 C399 0.950 . S
H423 C401 0.950 . S
C424 C425 1.443 . S
C424 N428 1.376 . S
C424 C462 1.389 . S
C425 C424 1.443 . S
C425 C426 1.340 . S
C425 H465 0.951 . S
C426 C425 1.340 . S
C426 C427 1.439 . S
C426 H466 0.950 . S
C427 C426 1.439 . S
C427 N428 1.374 . S
C427 C461 1.395 . S
N428 C424 1.376 . S
N428 C427 1.374 . S
N428 Co429 2.008 . S
Co429 N428 2.008 . S
Co429 N430 1.995 . S
Co429 N435 2.008 . S
Co429 N440 1.995 . S
Co429 N445 2.282 . S
Co429 N451 2.282 . S
N430 Co429 1.995 . S
N430 C431 1.376 . S
N430 C434 1.383 . S
C431 N430 1.376 . S
C431 C432 1.446 . S
C431 C461 1.391 . S
C432 C431 1.446 . S
C432 C433 1.339 . S
C432 H467 0.949 . S
C433 C432 1.339 . S
C433 C434 1.439 . S
C433 H468 0.950 . S
C434 N430 1.383 . S
C434 C433 1.439 . S
C434 C463 1.392 . S
N435 Co429 2.008 . S
N435 C436 1.376 . S
N435 C439 1.374 . S
C436 N435 1.376 . S
C436 C437 1.443 . S
C436 C463 1.389 . S
C437 C436 1.443 . S
C437 C438 1.340 . S
C437 H469 0.951 . S
C438 C437 1.340 . S
C438 C439 1.439 . S
C438 H470 0.950 . S
C439 N435 1.374 . S
C439 C438 1.439 . S
C439 C464 1.395 . S
N440 Co429 1.995 . S
N440 C441 1.376 . S
N440 C444 1.383 . S
C441 N440 1.376 . S
C441 C442 1.446 . S
C441 C464 1.391 . S
C442 C441 1.446 . S
C442 C443 1.339 . S
C442 H471 0.949 . S
C443 C442 1.339 . S
C443 C444 1.439 . S
C443 H472 0.950 . S
C444 N440 1.383 . S
C444 C443 1.439 . S
C444 C462 1.392 . S
N445 Co429 2.282 . S
N445 C448 1.332 . S
N445 C450 1.332 . S
C446 C447 1.386 . S
C446 C449 1.388 . S
C447 C446 1.386 . S
C447 C448 1.382 . S
C447 H473 0.950 . S
C448 N445 1.332 . S
C448 C447 1.382 . S
C448 H459 0.952 . S
C449 C446 1.388 . S
C449 C450 1.382 . S
C449 H474 0.950 . S
C450 N445 1.332 . S
C450 C449 1.382 . S
C450 H460 0.948 . S
N451 Co429 2.282 . S
N451 C455 1.332 . S
N451 C456 1.332 . S
C452 C453 1.388 . S
C452 C456 1.382 . S
C452 H475 0.950 . S
C453 C452 1.388 . S
C453 C454 1.386 . S
C454 C453 1.386 . S
C454 C455 1.382 . S
C454 H476 0.950 . S
C455 N451 1.332 . S
C455 C454 1.382 . S
C455 H457 0.952 . S
C456 N451 1.332 . S
C456 C452 1.382 . S
C456 H458 0.948 . S
H457 C455 0.952 . S
H458 C456 0.948 . S
H459 C448 0.952 . S
H460 C450 0.948 . S
C461 C427 1.395 . S
C461 C431 1.391 . S
C462 C424 1.389 . S
C462 C444 1.392 . S
C463 C434 1.392 . S
C463 C436 1.389 . S
C464 C439 1.395 . S
C464 C441 1.391 . S
H465 C425 0.951 . S
H466 C426 0.950 . S
H467 C432 0.949 . S
H468 C433 0.950 . S
H469 C437 0.951 . S
H470 C438 0.950 . S
H471 C442 0.949 . S
H472 C443 0.950 . S
H473 C447 0.950 . S
H474 C449 0.950 . S
H475 C452 0.950 . S
H476 C454 0.950 . S
C477 C478 1.443 . S
C477 N481 1.376 . S
C477 C515 1.389 . S
C478 C477 1.443 . S
C478 C479 1.340 . S
C478 H518 0.951 . S
C479 C478 1.340 . S
C479 C480 1.439 . S
C479 H519 0.950 . S
C480 C479 1.439 . S
C480 N481 1.374 . S
C480 C514 1.395 . S
N481 C477 1.376 . S
N481 C480 1.374 . S
N481 Co482 2.008 . S
Co482 N481 2.008 . S
Co482 N483 1.995 . S
Co482 N488 2.008 . S
Co482 N493 1.995 . S
Co482 N498 2.282 . S
Co482 N504 2.282 . S
N483 Co482 1.995 . S
N483 C484 1.376 . S
N483 C487 1.383 . S
C484 N483 1.376 . S
C484 C485 1.446 . S
C484 C514 1.391 . S
C485 C484 1.446 . S
C485 C486 1.339 . S
C485 H520 0.949 . S
C486 C485 1.339 . S
C486 C487 1.439 . S
C486 H521 0.950 . S
C487 N483 1.383 . S
C487 C486 1.439 . S
C487 C516 1.392 . S
N488 Co482 2.008 . S
N488 C489 1.376 . S
N488 C492 1.374 . S
C489 N488 1.376 . S
C489 C490 1.443 . S
C489 C516 1.389 . S
C490 C489 1.443 . S
C490 C491 1.340 . S
C490 H522 0.951 . S
C491 C490 1.340 . S
C491 C492 1.439 . S
C491 H523 0.950 . S
C492 N488 1.374 . S
C492 C491 1.439 . S
C492 C517 1.395 . S
N493 Co482 1.995 . S
N493 C494 1.376 . S
N493 C497 1.383 . S
C494 N493 1.376 . S
C494 C495 1.446 . S
C494 C517 1.391 . S
C495 C494 1.446 . S
C495 C496 1.339 . S
C495 H524 0.949 . S
C496 C495 1.339 . S
C496 C497 1.439 . S
C496 H525 0.950 . S
C497 N493 1.383 . S
C497 C496 1.439 . S
C497 C515 1.392 . S
N498 Co482 2.282 . S
N498 C501 1.332 . S
N498 C503 1.332 . S
C499 C500 1.386 . S
C499 C502 1.388 . S
C500 C499 1.386 . S
C500 C501 1.382 . S
C500 H526 0.950 . S
C501 N498 1.332 . S
C501 C500 1.382 . S
C501 H512 0.952 . S
C502 C499 1.388 . S
C502 C503 1.382 . S
C502 H527 0.950 . S
C503 N498 1.332 . S
C503 C502 1.382 . S
C503 H513 0.948 . S
N504 Co482 2.282 . S
N504 C508 1.332 . S
N504 C509 1.332 . S
C505 C506 1.388 . S
C505 C509 1.382 . S
C505 H528 0.950 . S
C506 C505 1.388 . S
C506 C507 1.386 . S
C507 C506 1.386 . S
C507 C508 1.382 . S
C507 H529 0.950 . S
C508 N504 1.332 . S
C508 C507 1.382 . S
C508 H510 0.952 . S
C509 N504 1.332 . S
C509 C505 1.382 . S
C509 H511 0.948 . S
H510 C508 0.952 . S
H511 C509 0.948 . S
H512 C501 0.952 . S
H513 C503 0.948 . S
C514 C480 1.395 . S
C514 C484 1.391 . S
C515 C477 1.389 . S
C515 C497 1.392 . S
C516 C487 1.392 . S
C516 C489 1.389 . S
C517 C492 1.395 . S
C517 C494 1.391 . S
H518 C478 0.951 . S
H519 C479 0.950 . S
H520 C485 0.949 . S
H521 C486 0.950 . S
H522 C490 0.951 . S
H523 C491 0.950 . S
H524 C495 0.949 . S
H525 C496 0.950 . S
H526 C500 0.950 . S
H527 C502 0.950 . S
H528 C505 0.950 . S
H529 C507 0.950 . S
C530 C531 1.443 . S
C530 N534 1.376 . S
C530 C568 1.389 . S
C531 C530 1.443 . S
C531 C532 1.340 . S
C531 H571 0.951 . S
C532 C531 1.340 . S
C532 C533 1.439 . S
C532 H572 0.950 . S
C533 C532 1.439 . S
C533 N534 1.374 . S
C533 C567 1.395 . S
N534 C530 1.376 . S
N534 C533 1.374 . S
N534 Co535 2.008 . S
Co535 N534 2.008 . S
Co535 N536 1.995 . S
Co535 N541 2.008 . S
Co535 N546 1.995 . S
Co535 N551 2.282 . S
Co535 N557 2.282 . S
N536 Co535 1.995 . S
N536 C537 1.376 . S
N536 C540 1.383 . S
C537 N536 1.376 . S
C537 C538 1.446 . S
C537 C567 1.391 . S
C538 C537 1.446 . S
C538 C539 1.339 . S
C538 H573 0.949 . S
C539 C538 1.339 . S
C539 C540 1.439 . S
C539 H574 0.950 . S
C540 N536 1.383 . S
C540 C539 1.439 . S
C540 C569 1.392 . S
N541 Co535 2.008 . S
N541 C542 1.376 . S
N541 C545 1.374 . S
C542 N541 1.376 . S
C542 C543 1.443 . S
C542 C569 1.389 . S
C543 C542 1.443 . S
C543 C544 1.340 . S
C543 H575 0.951 . S
C544 C543 1.340 . S
C544 C545 1.439 . S
C544 H576 0.950 . S
C545 N541 1.374 . S
C545 C544 1.439 . S
C545 C570 1.395 . S
N546 Co535 1.995 . S
N546 C547 1.376 . S
N546 C550 1.383 . S
C547 N546 1.376 . S
C547 C548 1.446 . S
C547 C570 1.391 . S
C548 C547 1.446 . S
C548 C549 1.339 . S
C548 H577 0.949 . S
C549 C548 1.339 . S
C549 C550 1.439 . S
C549 H578 0.950 . S
C550 N546 1.383 . S
C550 C549 1.439 . S
C550 C568 1.392 . S
N551 Co535 2.282 . S
N551 C554 1.332 . S
N551 C556 1.332 . S
C552 C553 1.386 . S
C552 C555 1.388 . S
C553 C552 1.386 . S
C553 C554 1.382 . S
C553 H579 0.950 . S
C554 N551 1.332 . S
C554 C553 1.382 . S
C554 H565 0.952 . S
C555 C552 1.388 . S
C555 C556 1.382 . S
C555 H580 0.950 . S
C556 N551 1.332 . S
C556 C555 1.382 . S
C556 H566 0.948 . S
N557 Co535 2.282 . S
N557 C561 1.332 . S
N557 C562 1.332 . S
C558 C559 1.388 . S
C558 C562 1.382 . S
C558 H581 0.950 . S
C559 C558 1.388 . S
C559 C560 1.386 . S
C560 C559 1.386 . S
C560 C561 1.382 . S
C560 H582 0.950 . S
C561 N557 1.332 . S
C561 C560 1.382 . S
C561 H563 0.952 . S
C562 N557 1.332 . S
C562 C558 1.382 . S
C562 H564 0.948 . S
H563 C561 0.952 . S
H564 C562 0.948 . S
H565 C554 0.952 . S
H566 C556 0.948 . S
C567 C533 1.395 . S
C567 C537 1.391 . S
C568 C530 1.389 . S
C568 C550 1.392 . S
C569 C540 1.392 . S
C569 C542 1.389 . S
C570 C545 1.395 . S
C570 C547 1.391 . S
H571 C531 0.951 . S
H572 C532 0.950 . S
H573 C538 0.949 . S
H574 C539 0.950 . S
H575 C543 0.951 . S
H576 C544 0.950 . S
H577 C548 0.949 . S
H578 C549 0.950 . S
H579 C553 0.950 . S
H580 C555 0.950 . S
H581 C558 0.950 . S
H582 C560 0.950 . S
C583 C584 1.443 . S
C583 N587 1.376 . S
C583 C621 1.389 . S
C584 C583 1.443 . S
C584 C585 1.340 . S
C584 H624 0.951 . S
C585 C584 1.340 . S
C585 C586 1.439 . S
C585 H625 0.950 . S
C586 C585 1.439 . S
C586 N587 1.374 . S
C586 C620 1.395 . S
N587 C583 1.376 . S
N587 C586 1.374 . S
N587 Co588 2.008 . S
Co588 N587 2.008 . S
Co588 N589 1.995 . S
Co588 N594 2.008 . S
Co588 N599 1.995 . S
Co588 N604 2.282 . S
Co588 N610 2.282 . S
N589 Co588 1.995 . S
N589 C590 1.376 . S
N589 C593 1.383 . S
C590 N589 1.376 . S
C590 C591 1.446 . S
C590 C620 1.391 . S
C591 C590 1.446 . S
C591 C592 1.339 . S
C591 H626 0.949 . S
C592 C591 1.339 . S
C592 C593 1.439 . S
C592 H627 0.950 . S
C593 N589 1.383 . S
C593 C592 1.439 . S
C593 C622 1.392 . S
N594 Co588 2.008 . S
N594 C595 1.376 . S
N594 C598 1.374 . S
C595 N594 1.376 . S
C595 C596 1.443 . S
C595 C622 1.389 . S
C596 C595 1.443 . S
C596 C597 1.340 . S
C596 H628 0.951 . S
C597 C596 1.340 . S
C597 C598 1.439 . S
C597 H629 0.950 . S
C598 N594 1.374 . S
C598 C597 1.439 . S
C598 C623 1.395 . S
N599 Co588 1.995 . S
N599 C600 1.376 . S
N599 C603 1.383 . S
C600 N599 1.376 . S
C600 C601 1.446 . S
C600 C623 1.391 . S
C601 C600 1.446 . S
C601 C602 1.339 . S
C601 H630 0.949 . S
C602 C601 1.339 . S
C602 C603 1.439 . S
C602 H631 0.950 . S
C603 N599 1.383 . S
C603 C602 1.439 . S
C603 C621 1.392 . S
N604 Co588 2.282 . S
N604 C607 1.332 . S
N604 C609 1.332 . S
C605 C606 1.386 . S
C605 C608 1.388 . S
C606 C605 1.386 . S
C606 C607 1.382 . S
C606 H632 0.950 . S
C607 N604 1.332 . S
C607 C606 1.382 . S
C607 H618 0.952 . S
C608 C605 1.388 . S
C608 C609 1.382 . S
C608 H633 0.950 . S
C609 N604 1.332 . S
C609 C608 1.382 . S
C609 H619 0.948 . S
N610 Co588 2.282 . S
N610 C614 1.332 . S
N610 C615 1.332 . S
C611 C612 1.388 . S
C611 C615 1.382 . S
C611 H634 0.950 . S
C612 C611 1.388 . S
C612 C613 1.386 . S
C613 C612 1.386 . S
C613 C614 1.382 . S
C613 H635 0.950 . S
C614 N610 1.332 . S
C614 C613 1.382 . S
C614 H616 0.952 . S
C615 N610 1.332 . S
C615 C611 1.382 . S
C615 H617 0.948 . S
H616 C614 0.952 . S
H617 C615 0.948 . S
H618 C607 0.952 . S
H619 C609 0.948 . S
C620 C586 1.395 . S
C620 C590 1.391 . S
C621 C583 1.389 . S
C621 C603 1.392 . S
C622 C593 1.392 . S
C622 C595 1.389 . S
C623 C598 1.395 . S
C623 C600 1.391 . S
H624 C584 0.951 . S
H625 C585 0.950 . S
H626 C591 0.949 . S
H627 C592 0.950 . S
H628 C596 0.951 . S
H629 C597 0.950 . S
H630 C601 0.949 . S
H631 C602 0.950 . S
H632 C606 0.950 . S
H633 C608 0.950 . S
H634 C611 0.950 . S
H635 C613 0.950 . S
C636 C637 1.443 . S
C636 N640 1.376 . S
C636 C674 1.389 . S
C637 C636 1.443 . S
C637 C638 1.340 . S
C637 H677 0.951 . S
C638 C637 1.340 . S
C638 C639 1.439 . S
C638 H678 0.950 . S
C639 C638 1.439 . S
C639 N640 1.374 . S
C639 C673 1.395 . S
N640 C636 1.376 . S
N640 C639 1.374 . S
N640 Co641 2.008 . S
Co641 N640 2.008 . S
Co641 N642 1.995 . S
Co641 N647 2.008 . S
Co641 N652 1.995 . S
Co641 N657 2.282 . S
Co641 N663 2.282 . S
N642 Co641 1.995 . S
N642 C643 1.376 . S
N642 C646 1.383 . S
C643 N642 1.376 . S
C643 C644 1.446 . S
C643 C673 1.391 . S
C644 C643 1.446 . S
C644 C645 1.339 . S
C644 H679 0.949 . S
C645 C644 1.339 . S
C645 C646 1.439 . S
C645 H680 0.950 . S
C646 N642 1.383 . S
C646 C645 1.439 . S
C646 C675 1.392 . S
N647 Co641 2.008 . S
N647 C648 1.376 . S
N647 C651 1.374 . S
C648 N647 1.376 . S
C648 C649 1.443 . S
C648 C675 1.389 . S
C649 C648 1.443 . S
C649 C650 1.340 . S
C649 H681 0.951 . S
C650 C649 1.340 . S
C650 C651 1.439 . S
C650 H682 0.950 . S
C651 N647 1.374 . S
C651 C650 1.439 . S
C651 C676 1.395 . S
N652 Co641 1.995 . S
N652 C653 1.376 . S
N652 C656 1.383 . S
C653 N652 1.376 . S
C653 C654 1.446 . S
C653 C676 1.391 . S
C654 C653 1.446 . S
C654 C655 1.339 . S
C654 H683 0.949 . S
C655 C654 1.339 . S
C655 C656 1.439 . S
C655 H684 0.950 . S
C656 N652 1.383 . S
C656 C655 1.439 . S
C656 C674 1.392 . S
N657 Co641 2.282 . S
N657 C660 1.332 . S
N657 C662 1.332 . S
C658 C659 1.386 . S
C658 C661 1.388 . S
C659 C658 1.386 . S
C659 C660 1.382 . S
C659 H685 0.950 . S
C660 N657 1.332 . S
C660 C659 1.382 . S
C660 H671 0.952 . S
C661 C658 1.388 . S
C661 C662 1.382 . S
C661 H686 0.950 . S
C662 N657 1.332 . S
C662 C661 1.382 . S
C662 H672 0.948 . S
N663 Co641 2.282 . S
N663 C667 1.332 . S
N663 C668 1.332 . S
C664 C665 1.388 . S
C664 C668 1.382 . S
C664 H687 0.950 . S
C665 C664 1.388 . S
C665 C666 1.386 . S
C666 C665 1.386 . S
C666 C667 1.382 . S
C666 H688 0.950 . S
C667 N663 1.332 . S
C667 C666 1.382 . S
C667 H669 0.952 . S
C668 N663 1.332 . S
C668 C664 1.382 . S
C668 H670 0.948 . S
H669 C667 0.952 . S
H670 C668 0.948 . S
H671 C660 0.952 . S
H672 C662 0.948 . S
C673 C639 1.395 . S
C673 C643 1.391 . S
C674 C636 1.389 . S
C674 C656 1.392 . S
C675 C646 1.392 . S
C675 C648 1.389 . S
C676 C651 1.395 . S
C676 C653 1.391 . S
H677 C637 0.951 . S
H678 C638 0.950 . S
H679 C644 0.949 . S
H680 C645 0.950 . S
H681 C649 0.951 . S
H682 C650 0.950 . S
H683 C654 0.949 . S
H684 C655 0.950 . S
H685 C659 0.950 . S
H686 C661 0.950 . S
H687 C664 0.950 . S
H688 C666 0.950 . S
C689 C690 1.443 . S
C689 N693 1.376 . S
C689 C727 1.389 . S
C690 C689 1.443 . S
C690 C691 1.340 . S
C690 H730 0.951 . S
C691 C690 1.340 . S
C691 C692 1.439 . S
C691 H731 0.950 . S
C692 C691 1.439 . S
C692 N693 1.374 . S
C692 C726 1.395 . S
N693 C689 1.376 . S
N693 C692 1.374 . S
N693 Co694 2.008 1_655 S
Co694 N693 2.008 1_455 S
Co694 N695 1.996 1_454 S
Co694 N700 2.008 1_554 S
Co694 N705 1.996 . S
Co694 N710 2.282 1_454 S
Co694 N716 2.282 . S
N695 Co694 1.996 1_656 S
N695 C696 1.389 . S
N695 C699 1.370 1_655 S
C696 N695 1.389 . S
C696 C697 1.446 . S
C696 C726 1.391 1_556 S
C697 C696 1.446 . S
C697 C698 1.339 1_655 S
C697 H732 0.949 . S
C698 C697 1.339 1_455 S
C698 C699 1.439 . S
C698 H733 0.950 . S
C699 N695 1.370 1_455 S
C699 C698 1.439 . S
C699 C728 1.392 . S
N700 Co694 2.008 1_556 S
N700 C701 1.376 . S
N700 C704 1.374 . S
C701 N700 1.376 . S
C701 C702 1.443 . S
C701 C728 1.389 . S
C702 C701 1.443 . S
C702 C703 1.340 . S
C702 H734 0.951 . S
C703 C702 1.340 . S
C703 C704 1.439 . S
C703 H735 0.950 . S
C704 N700 1.374 . S
C704 C703 1.439 . S
C704 C729 1.395 . S
N705 Co694 1.996 . S
N705 C706 1.396 . S
N705 C709 1.361 1_455 S
C706 N705 1.396 . S
C706 C707 1.446 . S
C706 C729 1.391 1_554 S
C707 C706 1.446 . S
C707 C708 1.339 1_455 S
C707 H736 0.949 . S
C708 C707 1.339 1_655 S
C708 C709 1.439 . S
C708 H737 0.950 . S
C709 N705 1.361 1_655 S
C709 C708 1.439 . S
C709 C727 1.392 . S
N710 Co694 2.282 1_656 S
N710 C713 1.332 1_655 S
N710 C715 1.332 . S
C711 C712 1.386 1_655 S
C711 C714 1.388 . S
C712 C711 1.386 1_455 S
C712 C713 1.382 . S
C712 H738 0.950 . S
C713 N710 1.332 1_455 S
C713 C712 1.382 . S
C713 H724 0.952 . S
C714 C711 1.388 . S
C714 C715 1.382 . S
C714 H739 0.950 . S
C715 N710 1.332 . S
C715 C714 1.382 . S
C715 H725 0.948 . S
N716 Co694 2.282 . S
N716 C720 1.332 1_455 S
N716 C721 1.332 . S
C717 C718 1.388 . S
C717 C721 1.382 . S
C717 H740 0.950 . S
C718 C717 1.388 . S
C718 C719 1.386 1_455 S
C719 C718 1.386 1_655 S
C719 C720 1.382 . S
C719 H741 0.950 . S
C720 N716 1.332 1_655 S
C720 C719 1.382 . S
C720 H722 0.952 . S
C721 N716 1.332 . S
C721 C717 1.382 . S
C721 H723 0.948 . S
H722 C720 0.952 . S
H723 C721 0.948 . S
H724 C713 0.952 . S
H725 C715 0.948 . S
C726 C692 1.395 . S
C726 C696 1.391 1_554 S
C727 C689 1.389 . S
C727 C709 1.392 . S
C728 C699 1.392 . S
C728 C701 1.389 . S
C729 C704 1.395 . S
C729 C706 1.391 1_556 S
H730 C690 0.951 . S
H731 C691 0.950 . S
H732 C697 0.949 . S
H733 C698 0.950 . S
H734 C702 0.951 . S
H735 C703 0.950 . S
H736 C707 0.949 . S
H737 C708 0.950 . S
H738 C712 0.950 . S
H739 C714 0.950 . S
H740 C717 0.950 . S
H741 C719 0.950 . S
C742 C743 1.443 . S
C742 N746 1.376 . S
C742 C780 1.389 . S
C743 C742 1.443 . S
C743 C744 1.340 . S
C743 H783 0.951 . S
C744 C743 1.340 . S
C744 C745 1.439 . S
C744 H784 0.950 . S
C745 C744 1.439 . S
C745 N746 1.374 . S
C745 C779 1.400 . S
N746 C742 1.376 . S
N746 C745 1.374 . S
N746 Co747 2.008 . S
Co747 N746 2.008 . S
Co747 N748 1.995 1_554 S
Co747 N753 2.008 1_554 S
Co747 N758 1.995 . S
Co747 N763 2.282 1_554 S
Co747 N769 2.282 . S
N748 Co747 1.995 1_556 S
N748 C749 1.376 . S
N748 C752 1.383 . S
C749 N748 1.376 . S
C749 C750 1.446 . S
C749 C779 1.386 1_556 S
C750 C749 1.446 . S
C750 C751 1.339 . S
C750 H785 0.949 . S
C751 C750 1.339 . S
C751 C752 1.439 . S
C751 H786 0.950 . S
C752 N748 1.383 . S
C752 C751 1.439 . S
C752 C781 1.392 . S
N753 Co747 2.008 1_556 S
N753 C754 1.376 . S
N753 C757 1.374 . S
C754 N753 1.376 . S
C754 C755 1.443 . S
C754 C781 1.389 . S
C755 C754 1.443 . S
C755 C756 1.340 . S
C755 H787 0.951 . S
C756 C755 1.340 . S
C756 C757 1.439 . S
C756 H788 0.950 . S
C757 N753 1.374 . S
C757 C756 1.439 . S
C757 C782 1.397 . S
N758 Co747 1.995 . S
N758 C759 1.376 . S
N758 C762 1.383 . S
C759 N758 1.376 . S
C759 C760 1.446 . S
C759 C782 1.389 1_554 S
C760 C759 1.446 . S
C760 C761 1.339 . S
C760 H789 0.949 . S
C761 C760 1.339 . S
C761 C762 1.439 . S
C761 H790 0.950 . S
C762 N758 1.383 . S
C762 C761 1.439 . S
C762 C780 1.392 . S
N763 Co747 2.282 1_556 S
N763 C766 1.332 . S
N763 C768 1.332 . S
C764 C765 1.386 . S
C764 C767 1.388 . S
C765 C764 1.386 . S
C765 C766 1.382 . S
C765 H791 0.950 . S
C766 N763 1.332 . S
C766 C765 1.382 . S
C766 H777 0.952 . S
C767 C764 1.388 . S
C767 C768 1.382 . S
C767 H792 0.950 . S
C768 N763 1.332 . S
C768 C767 1.382 . S
C768 H778 0.948 . S
N769 Co747 2.282 . S
N769 C773 1.332 . S
N769 C774 1.332 . S
C770 C771 1.388 . S
C770 C774 1.382 . S
C770 H793 0.950 . S
C771 C770 1.388 . S
C771 C772 1.386 . S
C772 C771 1.386 . S
C772 C773 1.382 . S
C772 H794 0.950 . S
C773 N769 1.332 . S
C773 C772 1.382 . S
C773 H775 0.952 . S
C774 N769 1.332 . S
C774 C770 1.382 . S
C774 H776 0.948 . S
H775 C773 0.952 . S
H776 C774 0.948 . S
H777 C766 0.952 . S
H778 C768 0.948 . S
C779 C745 1.400 . S
C779 C749 1.386 1_554 S
C780 C742 1.389 . S
C780 C762 1.392 . S
C781 C752 1.392 . S
C781 C754 1.389 . S
C782 C757 1.397 . S
C782 C759 1.389 1_556 S
H783 C743 0.951 . S
H784 C744 0.950 . S
H785 C750 0.949 . S
H786 C751 0.950 . S
H787 C755 0.951 . S
H788 C756 0.950 . S
H789 C760 0.949 . S
H790 C761 0.950 . S
H791 C765 0.950 . S
H792 C767 0.950 . S
H793 C770 0.950 . S
H794 C772 0.950 . S
C795 C796 1.443 . S
C795 N799 1.376 . S
C795 C833 1.389 . S
C796 C795 1.443 . S
C796 C797 1.340 . S
C796 H836 0.951 . S
C797 C796 1.340 . S
C797 C798 1.439 . S
C797 H837 0.950 . S
C798 C797 1.439 . S
C798 N799 1.374 . S
C798 C832 1.395 . S
N799 C795 1.376 . S
N799 C798 1.374 . S
N799 Co800 2.008 1_655 S
Co800 N799 2.008 1_455 S
Co800 N801 1.997 . S
Co800 N806 2.008 . S
Co800 N811 1.997 1_455 S
Co800 N816 2.282 1_455 S
Co800 N822 2.282 . S
N801 Co800 1.997 . S
N801 C802 1.339 1_455 S
N801 C805 1.418 . S
C802 N801 1.339 1_655 S
C802 C803 1.446 . S
C802 C832 1.391 . S
C803 C802 1.446 . S
C803 C804 1.339 1_655 S
C803 H838 0.949 . S
C804 C803 1.339 1_455 S
C804 C805 1.439 . S
C804 H839 0.950 . S
C805 N801 1.418 . S
C805 C804 1.439 . S
C805 C834 1.392 . S
N806 Co800 2.008 . S
N806 C807 1.376 . S
N806 C810 1.374 . S
C807 N806 1.376 . S
C807 C808 1.443 . S
C807 C834 1.389 . S
C808 C807 1.443 . S
C808 C809 1.340 . S
C808 H840 0.951 . S
C809 C808 1.340 . S
C809 C810 1.439 . S
C809 H841 0.950 . S
C810 N806 1.374 . S
C810 C809 1.439 . S
C810 C835 1.395 . S
N811 Co800 1.997 1_655 S
N811 C812 1.348 1_655 S
N811 C815 1.410 . S
C812 N811 1.348 1_455 S
C812 C813 1.446 . S
C812 C835 1.391 . S
C813 C812 1.446 . S
C813 C814 1.339 1_455 S
C813 H842 0.949 . S
C814 C813 1.339 1_655 S
C814 C815 1.439 . S
C814 H843 0.950 . S
C815 N811 1.410 . S
C815 C814 1.439 . S
C815 C833 1.392 . S
N816 Co800 2.282 1_655 S
N816 C819 1.332 1_655 S
N816 C821 1.332 . S
C817 C818 1.386 1_655 S
C817 C820 1.388 . S
C818 C817 1.386 1_455 S
C818 C819 1.382 . S
C818 H844 0.950 . S
C819 N816 1.332 1_455 S
C819 C818 1.382 . S
C819 H830 0.952 . S
C820 C817 1.388 . S
C820 C821 1.382 . S
C820 H845 0.950 . S
C821 N816 1.332 . S
C821 C820 1.382 . S
C821 H831 0.948 . S
N822 Co800 2.282 . S
N822 C826 1.332 1_455 S
N822 C827 1.332 . S
C823 C824 1.388 . S
C823 C827 1.382 . S
C823 H846 0.950 . S
C824 C823 1.388 . S
C824 C825 1.386 1_455 S
C825 C824 1.386 1_655 S
C825 C826 1.382 . S
C825 H847 0.950 . S
C826 N822 1.332 1_655 S
C826 C825 1.382 . S
C826 H828 0.952 . S
C827 N822 1.332 . S
C827 C823 1.382 . S
C827 H829 0.948 . S
H828 C826 0.952 . S
H829 C827 0.948 . S
H830 C819 0.952 . S
H831 C821 0.948 . S
C832 C798 1.395 . S
C832 C802 1.391 . S
C833 C795 1.389 . S
C833 C815 1.392 . S
C834 C805 1.392 . S
C834 C807 1.389 . S
C835 C810 1.395 . S
C835 C812 1.391 . S
H836 C796 0.951 . S
H837 C797 0.950 . S
H838 C803 0.949 . S
H839 C804 0.950 . S
H840 C808 0.951 . S
H841 C809 0.950 . S
H842 C813 0.949 . S
H843 C814 0.950 . S
H844 C818 0.950 . S
H845 C820 0.950 . S
H846 C823 0.950 . S
H847 C825 0.950 . S
H848 C856 0.929 . S
H849 C858 0.930 . S
H850 C860 0.927 1_545 S
H851 C863 0.929 1_545 S
H852 C866 0.930 . S
H853 C868 0.960 . S
H854 C868 0.960 . S
H855 C868 0.960 . S
C856 H848 0.929 . S
C856 C857 1.377 1_455 S
C856 C858 1.384 . S
C857 C856 1.377 1_655 S
C857 C863 1.390 . S
C858 H849 0.930 . S
C858 C856 1.384 . S
C858 C859 1.372 1_455 S
C859 C858 1.372 1_655 S
C859 C860 1.400 . S
C859 C864 1.490 . S
C860 H850 0.927 1_565 S
C860 C859 1.400 . S
C860 C863 1.389 . S
H861 C877 0.930 . S
H862 C878 0.931 . S
C863 H851 0.929 1_565 S
C863 C857 1.390 . S
C863 C860 1.389 . S
C864 C859 1.490 . S
C864 C866 1.395 1_665 S
C864 C867 1.403 . S
H865 C871 0.930 . S
C866 H852 0.930 . S
C866 C864 1.395 1_445 S
C866 C869 1.403 . S
C867 C864 1.403 . S
C867 C868 1.524 . S
C867 C871 1.400 . S
C868 H853 0.960 . S
C868 H854 0.960 . S
C868 H855 0.960 . S
C868 C867 1.524 . S
C869 C866 1.403 . S
C869 C870 1.392 1_455 S
C869 C873 1.495 . S
C870 C869 1.392 1_655 S
C870 C871 1.385 1_545 S
C870 C872 1.478 . S
C871 H865 0.930 . S
C871 C867 1.400 . S
C871 C870 1.385 1_565 S
C872 C870 1.478 . S
C872 C874 1.381 1_655 S
C872 C878 1.383 . S
C873 C869 1.495 . S
C873 H879 0.959 . S
C873 H880 0.961 . S
C873 H881 0.960 . S
C874 C872 1.381 1_455 S
C874 C875 1.392 . S
C874 H882 0.930 1_545 S
C875 C874 1.392 . S
C875 C876 1.394 1_455 S
C875 H883 0.924 1_545 S
C876 C875 1.394 1_655 S
C876 C877 1.377 . S
C877 H861 0.930 . S
C877 C876 1.377 . S
C877 C878 1.379 . S
C878 H862 0.931 . S
C878 C872 1.383 . S
C878 C877 1.379 . S
H879 C873 0.959 . S
H880 C873 0.961 . S
H881 C873 0.960 . S
H882 C874 0.930 1_565 S
H883 C875 0.924 1_565 S
H884 C892 0.929 . S
H885 C894 0.930 . S
H886 C896 0.930 . S
H887 C899 0.929 . S
H888 C902 0.930 . S
H889 C904 0.960 . S
H890 C904 0.960 . S
H891 C904 0.960 . S
C892 H884 0.929 . S
C892 C893 1.377 . S
C892 C894 1.384 . S
C893 C892 1.377 . S
C893 C899 1.390 . S
C894 H885 0.930 . S
C894 C892 1.384 . S
C894 C895 1.372 . S
C895 C894 1.372 . S
C895 C896 1.400 . S
C895 C900 1.490 . S
C896 H886 0.930 . S
C896 C895 1.400 . S
C896 C899 1.386 . S
H897 C913 0.930 . S
H898 C914 0.931 . S
C899 H887 0.929 . S
C899 C893 1.390 . S
C899 C896 1.386 . S
C900 C895 1.490 . S
C900 C902 1.395 . S
C900 C903 1.403 . S
H901 C907 0.930 . S
C902 H888 0.930 . S
C902 C900 1.395 . S
C902 C905 1.403 . S
C903 C900 1.403 . S
C903 C904 1.524 . S
C903 C907 1.400 . S
C904 H889 0.960 . S
C904 H890 0.960 . S
C904 H891 0.960 . S
C904 C903 1.524 . S
C905 C902 1.403 . S
C905 C906 1.392 . S
C905 C909 1.495 . S
C906 C905 1.392 . S
C906 C907 1.385 . S
C906 C908 1.478 . S
C907 H901 0.930 . S
C907 C903 1.400 . S
C907 C906 1.385 . S
C908 C906 1.478 . S
C908 C910 1.381 . S
C908 C914 1.383 . S
C909 C905 1.495 . S
C909 H915 0.959 . S
C909 H916 0.961 . S
C909 H917 0.960 . S
C910 C908 1.381 . S
C910 C911 1.394 . S
C910 H918 0.930 . S
C911 C910 1.394 . S
C911 C912 1.383 . S
C911 H919 0.929 . S
C912 C911 1.383 . S
C912 C913 1.377 . S
C913 H897 0.930 . S
C913 C912 1.377 . S
C913 C914 1.379 . S
C914 H898 0.931 . S
C914 C908 1.383 . S
C914 C913 1.379 . S
H915 C909 0.959 . S
H916 C909 0.961 . S
H917 C909 0.960 . S
H918 C910 0.930 . S
H919 C911 0.929 . S
H920 C928 0.929 . S
H921 C930 0.930 . S
H922 C932 0.930 . S
H923 C935 0.929 . S
H924 C938 0.930 . S
H925 C940 0.960 . S
H926 C940 0.960 . S
H927 C940 0.960 . S
C928 H920 0.929 . S
C928 C929 1.377 1_545 S
C928 C930 1.384 . S
C929 C928 1.377 1_565 S
C929 C935 1.390 . S
C930 H921 0.930 . S
C930 C928 1.384 . S
C930 C931 1.372 1_545 S
C931 C930 1.372 1_565 S
C931 C932 1.400 . S
C931 C936 1.490 . S
C932 H922 0.930 . S
C932 C931 1.400 . S
C932 C935 1.386 . S
H933 C949 0.930 . S
H934 C950 0.931 . S
C935 H923 0.929 . S
C935 C929 1.390 . S
C935 C932 1.386 . S
C936 C931 1.490 . S
C936 C938 1.395 1_565 S
C936 C939 1.403 . S
H937 C943 0.930 . S
C938 H924 0.930 . S
C938 C936 1.395 1_545 S
C938 C941 1.403 . S
C939 C936 1.403 . S
C939 C940 1.524 . S
C939 C943 1.400 . S
C940 H925 0.960 . S
C940 H926 0.960 . S
C940 H927 0.960 . S
C940 C939 1.524 . S
C941 C938 1.403 . S
C941 C942 1.392 . S
C941 C945 1.495 . S
C942 C941 1.392 . S
C942 C943 1.385 1_545 S
C942 C944 1.478 . S
C943 H937 0.930 . S
C943 C939 1.400 . S
C943 C942 1.385 1_565 S
C944 C942 1.478 . S
C944 C946 1.381 . S
C944 C950 1.383 1_545 S
C945 C941 1.495 . S
C945 H951 0.959 . S
C945 H952 0.961 . S
C945 H953 0.960 . S
C946 C944 1.381 . S
C946 C947 1.394 . S
C946 H954 0.930 . S
C947 C946 1.394 . S
C947 C948 1.383 . S
C947 H955 0.929 . S
C948 C947 1.383 . S
C948 C949 1.377 1_545 S
C949 H933 0.930 . S
C949 C948 1.377 1_565 S
C949 C950 1.379 . S
C950 H934 0.931 . S
C950 C944 1.383 1_565 S
C950 C949 1.379 . S
H951 C945 0.959 . S
H952 C945 0.961 . S
H953 C945 0.960 . S
H954 C946 0.930 . S
H955 C947 0.929 . S
H956 C964 0.929 . S
H957 C966 0.930 . S
H958 C968 0.930 . S
H959 C971 0.929 . S
H960 C974 0.930 . S
H961 C976 0.960 1_554 S
H962 C976 0.960 . S
H963 C976 0.960 . S
C964 H956 0.929 . S
C964 C965 1.377 . S
C964 C966 1.384 . S
C965 C964 1.377 . S
C965 C971 1.390 . S
C966 H957 0.930 . S
C966 C964 1.384 . S
C966 C967 1.372 . S
C967 C966 1.372 . S
C967 C968 1.400 . S
C967 C972 1.490 . S
C968 H958 0.930 . S
C968 C967 1.400 . S
C968 C971 1.386 . S
H969 C985 0.930 . S
H970 C986 0.931 . S
C971 H959 0.929 . S
C971 C965 1.390 . S
C971 C968 1.386 . S
C972 C967 1.490 . S
C972 C974 1.395 . S
C972 C975 1.403 1_556 S
H973 C979 0.930 . S
C974 H960 0.930 . S
C974 C972 1.395 . S
C974 C977 1.403 1_556 S
C975 C972 1.403 1_554 S
C975 C976 1.524 1_554 S
C975 C979 1.400 . S
C976 H961 0.960 1_556 S
C976 H962 0.960 . S
C976 H963 0.960 . S
C976 C975 1.524 1_556 S
C977 C974 1.403 1_554 S
C977 C978 1.392 . S
C977 C981 1.495 . S
C978 C977 1.392 . S
C978 C979 1.385 . S
C978 C980 1.478 . S
C979 H973 0.930 . S
C979 C975 1.400 . S
C979 C978 1.385 . S
C980 C978 1.478 . S
C980 C982 1.381 . S
C980 C986 1.383 . S
C981 C977 1.495 . S
C981 H987 0.959 . S
C981 H988 0.961 . S
C981 H989 0.960 . S
C982 C980 1.381 . S
C982 C983 1.394 . S
C982 H990 0.930 . S
C983 C982 1.394 . S
C983 C984 1.383 . S
C983 H991 0.929 . S
C984 C983 1.383 . S
C984 C985 1.377 . S
C985 H969 0.930 . S
C985 C984 1.377 . S
C985 C986 1.379 . S
C986 H970 0.931 . S
C986 C980 1.383 . S
C986 C985 1.379 . S
H987 C981 0.959 . S
H988 C981 0.961 . S
H989 C981 0.960 . S
H990 C982 0.930 . S
H991 C983 0.929 . S
H992 C1000 0.929 . S
H993 C1002 0.930 . S
H994 C1004 0.930 . S
H995 C1007 0.929 . S
H996 C1010 0.930 . S
H997 C1012 0.960 . S
H998 C1012 0.960 . S
H999 C1012 0.958 1_545 S
C1000 H992 0.929 . S
C1000 C1001 1.377 . S
C1000 C1002 1.384 . S
C1001 C1000 1.377 . S
C1001 C1007 1.390 1_465 S
C1002 H993 0.930 . S
C1002 C1000 1.384 . S
C1002 C1003 1.372 . S
C1003 C1002 1.372 . S
C1003 C1004 1.400 1_465 S
C1003 C1008 1.490 . S
C1004 H994 0.930 . S
C1004 C1003 1.400 1_645 S
C1004 C1007 1.386 . S
H1005 C1021 0.930 . S
H1006 C1022 0.931 . S
C1007 H995 0.929 . S
C1007 C1001 1.390 1_645 S
C1007 C1004 1.386 . S
C1008 C1003 1.490 . S
C1008 C1010 1.395 1_565 S
C1008 C1011 1.403 1_455 S
H1009 C1015 0.930 . S
C1010 H996 0.930 . S
C1010 C1008 1.395 1_545 S
C1010 C1013 1.403 . S
C1011 C1008 1.403 1_655 S
C1011 C1012 1.524 . S
C1011 C1015 1.400 . S
C1012 H997 0.960 . S
C1012 H998 0.960 . S
C1012 H999 0.958 1_565 S
C1012 C1011 1.524 . S
C1013 C1010 1.403 . S
C1013 C1014 1.392 . S
C1013 C1017 1.495 . S
C1014 C1013 1.392 . S
C1014 C1015 1.385 1_445 S
C1014 C1016 1.478 . S
C1015 H1009 0.930 . S
C1015 C1011 1.400 . S
C1015 C1014 1.385 1_665 S
C1016 C1014 1.478 . S
C1016 C1018 1.381 1_545 S
C1016 C1022 1.383 1_455 S
C1017 C1013 1.495 . S
C1017 H1023 0.959 . S
C1017 H1024 0.961 . S
C1017 H1025 0.960 1_545 S
C1018 C1016 1.381 1_565 S
C1018 C1019 1.394 . S
C1018 H1026 0.930 . S
C1019 C1018 1.394 . S
C1019 C1020 1.383 1_565 S
C1019 H1027 0.929 . S
C1020 C1019 1.383 1_545 S
C1020 C1021 1.377 1_455 S
C1021 H1005 0.930 . S
C1021 C1020 1.377 1_655 S
C1021 C1022 1.379 . S
C1022 H1006 0.931 . S
C1022 C1016 1.383 1_655 S
C1022 C1021 1.379 . S
H1023 C1017 0.959 . S
H1024 C1017 0.961 . S
H1025 C1017 0.960 1_565 S
H1026 C1018 0.930 . S
H1027 C1019 0.929 . S
H1028 C1036 0.929 . S
H1029 C1038 0.930 . S
H1030 C1040 0.930 . S
H1031 C1043 0.929 . S
H1032 C1046 0.930 . S
H1033 C1048 0.960 . S
H1034 C1048 0.960 . S
H1035 C1048 0.960 . S
C1036 H1028 0.929 . S
C1036 C1037 1.377 . S
C1036 C1038 1.384 . S
C1037 C1036 1.377 . S
C1037 C1043 1.390 . S
C1038 H1029 0.930 . S
C1038 C1036 1.384 . S
C1038 C1039 1.372 . S
C1039 C1038 1.372 . S
C1039 C1040 1.400 . S
C1039 C1044 1.490 . S
C1040 H1030 0.930 . S
C1040 C1039 1.400 . S
C1040 C1043 1.386 . S
H1041 C1057 0.930 . S
H1042 C1058 0.931 . S
C1043 H1031 0.929 . S
C1043 C1037 1.390 . S
C1043 C1040 1.386 . S
C1044 C1039 1.490 . S
C1044 C1046 1.395 . S
C1044 C1047 1.403 . S
H1045 C1051 0.930 . S
C1046 H1032 0.930 . S
C1046 C1044 1.395 . S
C1046 C1049 1.403 . S
C1047 C1044 1.403 . S
C1047 C1048 1.524 . S
C1047 C1051 1.400 . S
C1048 H1033 0.960 . S
C1048 H1034 0.960 . S
C1048 H1035 0.960 . S
C1048 C1047 1.524 . S
C1049 C1046 1.403 . S
C1049 C1050 1.392 . S
C1049 C1053 1.495 . S
C1050 C1049 1.392 . S
C1050 C1051 1.385 . S
C1050 C1052 1.478 . S
C1051 H1045 0.930 . S
C1051 C1047 1.400 . S
C1051 C1050 1.385 . S
C1052 C1050 1.478 . S
C1052 C1054 1.381 . S
C1052 C1058 1.383 . S
C1053 C1049 1.495 . S
C1053 H1059 0.959 . S
C1053 H1060 0.961 . S
C1053 H1061 0.960 . S
C1054 C1052 1.381 . S
C1054 C1055 1.394 . S
C1054 H1062 0.930 . S
C1055 C1054 1.394 . S
C1055 C1056 1.383 . S
C1055 H1063 0.929 . S
C1056 C1055 1.383 . S
C1056 C1057 1.377 . S
C1057 H1041 0.930 . S
C1057 C1056 1.377 . S
C1057 C1058 1.379 . S
C1058 H1042 0.931 . S
C1058 C1052 1.383 . S
C1058 C1057 1.379 . S
H1059 C1053 0.959 . S
H1060 C1053 0.961 . S
H1061 C1053 0.960 . S
H1062 C1054 0.930 . S
H1063 C1055 0.929 . S
H1064 C1072 0.929 . S
H1065 C1074 0.930 . S
H1066 C1076 0.930 . S
H1067 C1079 0.929 . S
H1068 C1082 0.930 . S
H1069 C1084 0.960 . S
H1070 C1084 0.960 . S
H1071 C1084 0.960 . S
C1072 H1064 0.929 . S
C1072 C1073 1.377 . S
C1072 C1074 1.384 . S
C1073 C1072 1.377 . S
C1073 C1079 1.390 1_545 S
C1074 H1065 0.930 . S
C1074 C1072 1.384 . S
C1074 C1075 1.372 . S
C1075 C1074 1.372 . S
C1075 C1076 1.400 1_545 S
C1075 C1080 1.490 . S
C1076 H1066 0.930 . S
C1076 C1075 1.400 1_565 S
C1076 C1079 1.386 . S
H1077 C1093 0.930 . S
H1078 C1094 0.931 . S
C1079 H1067 0.929 . S
C1079 C1073 1.390 1_565 S
C1079 C1076 1.386 . S
C1080 C1075 1.490 . S
C1080 C1082 1.395 1_545 S
C1080 C1083 1.403 . S
H1081 C1087 0.930 . S
C1082 H1068 0.930 . S
C1082 C1080 1.395 1_565 S
C1082 C1085 1.403 . S
C1083 C1080 1.403 . S
C1083 C1084 1.524 . S
C1083 C1087 1.400 . S
C1084 H1069 0.960 . S
C1084 H1070 0.960 . S
C1084 H1071 0.960 . S
C1084 C1083 1.524 . S
C1085 C1082 1.403 . S
C1085 C1086 1.392 . S
C1085 C1089 1.495 . S
C1086 C1085 1.392 . S
C1086 C1087 1.385 1_565 S
C1086 C1088 1.478 . S
C1087 H1081 0.930 . S
C1087 C1083 1.400 . S
C1087 C1086 1.385 1_545 S
C1088 C1086 1.478 . S
C1088 C1090 1.381 1_565 S
C1088 C1094 1.383 . S
C1089 C1085 1.495 . S
C1089 H1095 0.959 . S
C1089 H1096 0.961 . S
C1089 H1097 0.960 . S
C1090 C1088 1.381 1_545 S
C1090 C1091 1.394 . S
C1090 H1098 0.930 . S
C1091 C1090 1.394 . S
C1091 C1092 1.383 1_545 S
C1091 H1099 0.929 . S
C1092 C1091 1.383 1_565 S
C1092 C1093 1.377 . S
C1093 H1077 0.930 . S
C1093 C1092 1.377 . S
C1093 C1094 1.379 . S
C1094 H1078 0.931 . S
C1094 C1088 1.383 . S
C1094 C1093 1.379 . S
H1095 C1089 0.959 . S
H1096 C1089 0.961 . S
H1097 C1089 0.960 . S
H1098 C1090 0.930 . S
H1099 C1091 0.929 . S
H1100 C1108 0.929 . S
H1101 C1110 0.930 . S
H1102 C1112 0.930 . S
H1103 C1115 0.929 . S
H1104 C1118 0.930 . S
H1105 C1120 0.960 1_556 S
H1106 C1120 0.960 . S
H1107 C1120 0.960 . S
C1108 H1100 0.929 . S
C1108 C1109 1.377 . S
C1108 C1110 1.384 . S
C1109 C1108 1.377 . S
C1109 C1115 1.390 . S
C1110 H1101 0.930 . S
C1110 C1108 1.384 . S
C1110 C1111 1.372 . S
C1111 C1110 1.372 . S
C1111 C1112 1.400 . S
C1111 C1116 1.490 . S
C1112 H1102 0.930 . S
C1112 C1111 1.400 . S
C1112 C1115 1.386 . S
H1113 C1129 0.930 . S
H1114 C1130 0.931 . S
C1115 H1103 0.929 . S
C1115 C1109 1.390 . S
C1115 C1112 1.386 . S
C1116 C1111 1.490 . S
C1116 C1118 1.395 . S
C1116 C1119 1.403 1_554 S
H1117 C1123 0.930 . S
C1118 H1104 0.930 . S
C1118 C1116 1.395 . S
C1118 C1121 1.403 1_554 S
C1119 C1116 1.403 1_556 S
C1119 C1120 1.524 1_556 S
C1119 C1123 1.400 . S
C1120 H1105 0.960 1_554 S
C1120 H1106 0.960 . S
C1120 H1107 0.960 . S
C1120 C1119 1.524 1_554 S
C1121 C1118 1.403 1_556 S
C1121 C1122 1.392 . S
C1121 C1125 1.495 . S
C1122 C1121 1.392 . S
C1122 C1123 1.385 . S
C1122 C1124 1.478 . S
C1123 H1117 0.930 . S
C1123 C1119 1.400 . S
C1123 C1122 1.385 . S
C1124 C1122 1.478 . S
C1124 C1126 1.381 . S
C1124 C1130 1.383 . S
C1125 C1121 1.495 . S
C1125 H1131 0.959 . S
C1125 H1132 0.961 . S
C1125 H1133 0.960 . S
C1126 C1124 1.381 . S
C1126 C1127 1.394 . S
C1126 H1134 0.930 . S
C1127 C1126 1.394 . S
C1127 C1128 1.383 . S
C1127 H1135 0.929 . S
C1128 C1127 1.383 . S
C1128 C1129 1.377 . S
C1129 H1113 0.930 . S
C1129 C1128 1.377 . S
C1129 C1130 1.379 . S
C1130 H1114 0.931 . S
C1130 C1124 1.383 . S
C1130 C1129 1.379 . S
H1131 C1125 0.959 . S
H1132 C1125 0.961 . S
H1133 C1125 0.960 . S
H1134 C1126 0.930 . S
H1135 C1127 0.929 . S
H1136 C1144 0.929 . S
H1137 C1146 0.930 . S
H1138 C1148 0.930 . S
H1139 C1151 0.929 . S
H1140 C1154 0.930 . S
H1141 C1156 0.960 . S
H1142 C1156 0.960 . S
H1143 C1156 0.960 . S
C1144 H1136 0.929 . S
C1144 C1145 1.377 . S
C1144 C1146 1.384 . S
C1145 C1144 1.377 . S
C1145 C1151 1.390 . S
C1146 H1137 0.930 . S
C1146 C1144 1.384 . S
C1146 C1147 1.372 . S
C1147 C1146 1.372 . S
C1147 C1148 1.400 . S
C1147 C1152 1.490 . S
C1148 H1138 0.930 . S
C1148 C1147 1.400 . S
C1148 C1151 1.386 . S
H1149 C1165 0.930 . S
H1150 C1166 0.931 . S
C1151 H1139 0.929 . S
C1151 C1145 1.390 . S
C1151 C1148 1.386 . S
C1152 C1147 1.490 . S
C1152 C1154 1.395 . S
C1152 C1155 1.403 . S
H1153 C1159 0.930 . S
C1154 H1140 0.930 . S
C1154 C1152 1.395 . S
C1154 C1157 1.403 . S
C1155 C1152 1.403 . S
C1155 C1156 1.524 . S
C1155 C1159 1.400 . S
C1156 H1141 0.960 . S
C1156 H1142 0.960 . S
C1156 H1143 0.960 . S
C1156 C1155 1.524 . S
C1157 C1154 1.403 . S
C1157 C1158 1.392 . S
C1157 C1161 1.495 . S
C1158 C1157 1.392 . S
C1158 C1159 1.385 . S
C1158 C1160 1.478 . S
C1159 H1153 0.930 . S
C1159 C1155 1.400 . S
C1159 C1158 1.385 . S
C1160 C1158 1.478 . S
C1160 C1162 1.381 . S
C1160 C1166 1.383 . S
C1161 C1157 1.495 . S
C1161 H1167 0.959 . S
C1161 H1168 0.961 . S
C1161 H1169 0.960 . S
C1162 C1160 1.381 . S
C1162 C1163 1.394 . S
C1162 H1170 0.930 . S
C1163 C1162 1.394 . S
C1163 C1164 1.383 . S
C1163 H1171 0.929 . S
C1164 C1163 1.383 . S
C1164 C1165 1.377 . S
C1165 H1149 0.930 . S
C1165 C1164 1.377 . S
C1165 C1166 1.379 . S
C1166 H1150 0.931 . S
C1166 C1160 1.383 . S
C1166 C1165 1.379 . S
H1167 C1161 0.959 . S
H1168 C1161 0.961 . S
H1169 C1161 0.960 . S
H1170 C1162 0.930 . S
H1171 C1163 0.929 . S
H1172 C1180 0.929 . S
H1173 C1182 0.930 . S
H1174 C1184 0.930 . S
H1175 C1187 0.929 . S
H1176 C1190 0.930 . S
H1177 C1192 0.960 . S
H1178 C1192 0.960 . S
H1179 C1192 0.960 . S
C1180 H1172 0.929 . S
C1180 C1181 1.377 . S
C1180 C1182 1.384 . S
C1181 C1180 1.377 . S
C1181 C1187 1.390 . S
C1182 H1173 0.930 . S
C1182 C1180 1.384 . S
C1182 C1183 1.372 . S
C1183 C1182 1.372 . S
C1183 C1184 1.400 . S
C1183 C1188 1.490 . S
C1184 H1174 0.930 . S
C1184 C1183 1.400 . S
C1184 C1187 1.386 . S
H1185 C1201 0.930 . S
H1186 C1202 0.931 . S
C1187 H1175 0.929 . S
C1187 C1181 1.390 . S
C1187 C1184 1.386 . S
C1188 C1183 1.490 . S
C1188 C1190 1.395 . S
C1188 C1191 1.403 . S
H1189 C1195 0.930 . S
C1190 H1176 0.930 . S
C1190 C1188 1.395 . S
C1190 C1193 1.403 1_556 S
C1191 C1188 1.403 . S
C1191 C1192 1.524 . S
C1191 C1195 1.400 1_556 S
C1192 H1177 0.960 . S
C1192 H1178 0.960 . S
C1192 H1179 0.960 . S
C1192 C1191 1.524 . S
C1193 C1190 1.403 1_554 S
C1193 C1194 1.392 . S
C1193 C1197 1.495 . S
C1194 C1193 1.392 . S
C1194 C1195 1.385 . S
C1194 C1196 1.478 . S
C1195 H1189 0.930 . S
C1195 C1191 1.400 1_554 S
C1195 C1194 1.385 . S
C1196 C1194 1.478 . S
C1196 C1198 1.381 . S
C1196 C1202 1.383 . S
C1197 C1193 1.495 . S
C1197 H1203 0.959 . S
C1197 H1204 0.961 . S
C1197 H1205 0.960 . S
C1198 C1196 1.381 . S
C1198 C1199 1.394 . S
C1198 H1206 0.930 . S
C1199 C1198 1.394 . S
C1199 C1200 1.383 . S
C1199 H1207 0.929 . S
C1200 C1199 1.383 . S
C1200 C1201 1.377 . S
C1201 H1185 0.930 . S
C1201 C1200 1.377 . S
C1201 C1202 1.379 . S
C1202 H1186 0.931 . S
C1202 C1196 1.383 . S
C1202 C1201 1.379 . S
H1203 C1197 0.959 . S
H1204 C1197 0.961 . S
H1205 C1197 0.960 . S
H1206 C1198 0.930 . S
H1207 C1199 0.929 . S
H1208 C1216 0.929 . S
H1209 C1218 0.930 . S
H1210 C1220 0.930 . S
H1211 C1223 0.929 . S
H1212 C1226 0.930 . S
H1213 C1228 0.960 . S
H1214 C1228 0.960 . S
H1215 C1228 0.960 1_655 S
C1216 H1208 0.929 . S
C1216 C1217 1.377 . S
C1216 C1218 1.384 . S
C1217 C1216 1.377 . S
C1217 C1223 1.390 1_455 S
C1218 H1209 0.930 . S
C1218 C1216 1.384 . S
C1218 C1219 1.372 . S
C1219 C1218 1.372 . S
C1219 C1220 1.400 1_455 S
C1219 C1224 1.490 . S
C1220 H1210 0.930 . S
C1220 C1219 1.400 1_655 S
C1220 C1223 1.386 . S
H1221 C1237 0.930 . S
H1222 C1238 0.931 . S
C1223 H1211 0.929 . S
C1223 C1217 1.390 1_655 S
C1223 C1220 1.386 . S
C1224 C1219 1.490 . S
C1224 C1226 1.395 . S
C1224 C1227 1.403 . S
H1225 C1231 0.930 . S
C1226 H1212 0.930 . S
C1226 C1224 1.395 . S
C1226 C1229 1.403 . S
C1227 C1224 1.403 . S
C1227 C1228 1.524 . S
C1227 C1231 1.400 . S
C1228 H1213 0.960 . S
C1228 H1214 0.960 . S
C1228 H1215 0.960 1_455 S
C1228 C1227 1.524 . S
C1229 C1226 1.403 . S
C1229 C1230 1.392 . S
C1229 C1233 1.495 . S
C1230 C1229 1.392 . S
C1230 C1231 1.385 . S
C1230 C1232 1.478 . S
C1231 H1225 0.930 . S
C1231 C1227 1.400 . S
C1231 C1230 1.385 . S
C1232 C1230 1.478 . S
C1232 C1234 1.381 . S
C1232 C1238 1.383 1_455 S
C1233 C1229 1.495 . S
C1233 H1239 0.959 . S
C1233 H1240 0.961 1_455 S
C1233 H1241 0.960 . S
C1234 C1232 1.381 . S
C1234 C1235 1.394 . S
C1234 H1242 0.930 . S
C1235 C1234 1.394 . S
C1235 C1236 1.383 . S
C1235 H1243 0.929 . S
C1236 C1235 1.383 . S
C1236 C1237 1.377 1_455 S
C1237 H1221 0.930 . S
C1237 C1236 1.377 1_655 S
C1237 C1238 1.379 . S
C1238 H1222 0.931 . S
C1238 C1232 1.383 1_655 S
C1238 C1237 1.379 . S
H1239 C1233 0.959 . S
H1240 C1233 0.961 1_655 S
H1241 C1233 0.960 . S
H1242 C1234 0.930 . S
H1243 C1235 0.929 . S
H1244 C1252 0.929 . S
H1245 C1254 0.930 . S
H1246 C1256 0.930 . S
H1247 C1259 0.929 . S
H1248 C1262 0.930 . S
H1249 C1264 0.960 . S
H1250 C1264 0.960 . S
H1251 C1264 0.960 . S
C1252 H1244 0.929 . S
C1252 C1253 1.377 . S
C1252 C1254 1.384 . S
C1253 C1252 1.377 . S
C1253 C1259 1.390 . S
C1254 H1245 0.930 . S
C1254 C1252 1.384 . S
C1254 C1255 1.372 . S
C1255 C1254 1.372 . S
C1255 C1256 1.400 . S
C1255 C1260 1.490 . S
C1256 H1246 0.930 . S
C1256 C1255 1.400 . S
C1256 C1259 1.386 . S
H1257 C1273 0.930 . S
H1258 C1274 0.931 . S
C1259 H1247 0.929 . S
C1259 C1253 1.390 . S
C1259 C1256 1.386 . S
C1260 C1255 1.490 . S
C1260 C1262 1.395 . S
C1260 C1263 1.403 . S
H1261 C1267 0.930 . S
C1262 H1248 0.930 . S
C1262 C1260 1.395 . S
C1262 C1265 1.403 . S
C1263 C1260 1.403 . S
C1263 C1264 1.524 . S
C1263 C1267 1.400 . S
C1264 H1249 0.960 . S
C1264 H1250 0.960 . S
C1264 H1251 0.960 . S
C1264 C1263 1.524 . S
C1265 C1262 1.403 . S
C1265 C1266 1.392 . S
C1265 C1269 1.495 . S
C1266 C1265 1.392 . S
C1266 C1267 1.385 . S
C1266 C1268 1.478 . S
C1267 H1261 0.930 . S
C1267 C1263 1.400 . S
C1267 C1266 1.385 . S
C1268 C1266 1.478 . S
C1268 C1270 1.381 . S
C1268 C1274 1.383 . S
C1269 C1265 1.495 . S
C1269 H1275 0.959 . S
C1269 H1276 0.961 . S
C1269 H1277 0.960 . S
C1270 C1268 1.381 . S
C1270 C1271 1.394 . S
C1270 H1278 0.930 . S
C1271 C1270 1.394 . S
C1271 C1272 1.383 . S
C1271 H1279 0.929 . S
C1272 C1271 1.383 . S
C1272 C1273 1.377 . S
C1273 H1257 0.930 . S
C1273 C1272 1.377 . S
C1273 C1274 1.379 . S
C1274 H1258 0.931 . S
C1274 C1268 1.383 . S
C1274 C1273 1.379 . S
H1275 C1269 0.959 . S
H1276 C1269 0.961 . S
H1277 C1269 0.960 . S
H1278 C1270 0.930 . S
H1279 C1271 0.929 . S
H1280 C1288 0.929 . S
H1281 C1290 0.930 . S
H1282 C1292 0.930 . S
H1283 C1295 0.929 . S
H1284 C1298 0.930 . S
H1285 C1300 0.960 . S
H1286 C1300 0.960 . S
H1287 C1300 0.960 . S
C1288 H1280 0.929 . S
C1288 C1289 1.377 . S
C1288 C1290 1.384 . S
C1289 C1288 1.377 . S
C1289 C1295 1.390 . S
C1290 H1281 0.930 . S
C1290 C1288 1.384 . S
C1290 C1291 1.372 . S
C1291 C1290 1.372 . S
C1291 C1292 1.400 . S
C1291 C1296 1.490 . S
C1292 H1282 0.930 . S
C1292 C1291 1.400 . S
C1292 C1295 1.386 . S
H1293 C1309 0.930 . S
H1294 C1310 0.931 . S
C1295 H1283 0.929 . S
C1295 C1289 1.390 . S
C1295 C1292 1.386 . S
C1296 C1291 1.490 . S
C1296 C1298 1.395 . S
C1296 C1299 1.403 . S
H1297 C1303 0.930 . S
C1298 H1284 0.930 . S
C1298 C1296 1.395 . S
C1298 C1301 1.403 . S
C1299 C1296 1.403 . S
C1299 C1300 1.524 . S
C1299 C1303 1.400 . S
C1300 H1285 0.960 . S
C1300 H1286 0.960 . S
C1300 H1287 0.960 . S
C1300 C1299 1.524 . S
C1301 C1298 1.403 . S
C1301 C1302 1.392 . S
C1301 C1305 1.495 . S
C1302 C1301 1.392 . S
C1302 C1303 1.385 . S
C1302 C1304 1.478 . S
C1303 H1297 0.930 . S
C1303 C1299 1.400 . S
C1303 C1302 1.385 . S
C1304 C1302 1.478 . S
C1304 C1306 1.381 . S
C1304 C1310 1.383 . S
C1305 C1301 1.495 . S
C1305 H1311 0.959 . S
C1305 H1312 0.961 . S
C1305 H1313 0.960 . S
C1306 C1304 1.381 . S
C1306 C1307 1.394 . S
C1306 H1314 0.930 . S
C1307 C1306 1.394 . S
C1307 C1308 1.383 . S
C1307 H1315 0.929 . S
C1308 C1307 1.383 . S
C1308 C1309 1.377 . S
C1309 H1293 0.930 . S
C1309 C1308 1.377 . S
C1309 C1310 1.379 . S
C1310 H1294 0.931 . S
C1310 C1304 1.383 . S
C1310 C1309 1.379 . S
H1311 C1305 0.959 . S
H1312 C1305 0.961 . S
H1313 C1305 0.960 . S
H1314 C1306 0.930 . S
H1315 C1307 0.929 . S
H1316 C1324 0.929 . S
H1317 C1326 0.930 . S
H1318 C1328 0.930 . S
H1319 C1331 0.929 . S
H1320 C1334 0.930 . S
H1321 C1336 0.960 . S
H1322 C1336 0.960 . S
H1323 C1336 0.960 . S
C1324 H1316 0.929 . S
C1324 C1325 1.377 . S
C1324 C1326 1.384 . S
C1325 C1324 1.377 . S
C1325 C1331 1.390 . S
C1326 H1317 0.930 . S
C1326 C1324 1.384 . S
C1326 C1327 1.372 . S
C1327 C1326 1.372 . S
C1327 C1328 1.400 . S
C1327 C1332 1.490 . S
C1328 H1318 0.930 . S
C1328 C1327 1.400 . S
C1328 C1331 1.386 . S
H1329 C1345 0.930 . S
H1330 C1346 0.931 . S
C1331 H1319 0.929 . S
C1331 C1325 1.390 . S
C1331 C1328 1.386 . S
C1332 C1327 1.490 . S
C1332 C1334 1.395 . S
C1332 C1335 1.403 . S
H1333 C1339 0.930 . S
C1334 H1320 0.930 . S
C1334 C1332 1.395 . S
C1334 C1337 1.403 1_554 S
C1335 C1332 1.403 . S
C1335 C1336 1.524 . S
C1335 C1339 1.400 1_554 S
C1336 H1321 0.960 . S
C1336 H1322 0.960 . S
C1336 H1323 0.960 . S
C1336 C1335 1.524 . S
C1337 C1334 1.403 1_556 S
C1337 C1338 1.392 . S
C1337 C1341 1.495 . S
C1338 C1337 1.392 . S
C1338 C1339 1.385 . S
C1338 C1340 1.478 . S
C1339 H1333 0.930 . S
C1339 C1335 1.400 1_556 S
C1339 C1338 1.385 . S
C1340 C1338 1.478 . S
C1340 C1342 1.381 . S
C1340 C1346 1.383 . S
C1341 C1337 1.495 . S
C1341 H1347 0.959 . S
C1341 H1348 0.961 . S
C1341 H1349 0.960 . S
C1342 C1340 1.381 . S
C1342 C1343 1.394 . S
C1342 H1350 0.930 . S
C1343 C1342 1.394 . S
C1343 C1344 1.383 . S
C1343 H1351 0.929 . S
C1344 C1343 1.383 . S
C1344 C1345 1.377 . S
C1345 H1329 0.930 . S
C1345 C1344 1.377 . S
C1345 C1346 1.379 . S
C1346 H1330 0.931 . S
C1346 C1340 1.383 . S
C1346 C1345 1.379 . S
H1347 C1341 0.959 . S
H1348 C1341 0.961 . S
H1349 C1341 0.960 . S
H1350 C1342 0.930 . S
H1351 C1343 0.929 . S
H1352 C1360 0.929 . S
H1353 C1362 0.930 . S
H1354 C1364 0.930 . S
H1355 C1367 0.929 . S
H1356 C1370 0.930 . S
H1357 C1372 0.960 . S
H1358 C1372 0.960 . S
H1359 C1372 0.960 1_455 S
C1360 H1352 0.929 . S
C1360 C1361 1.377 . S
C1360 C1362 1.384 . S
C1361 C1360 1.377 . S
C1361 C1367 1.390 1_655 S
C1362 H1353 0.930 . S
C1362 C1360 1.384 . S
C1362 C1363 1.372 . S
C1363 C1362 1.372 . S
C1363 C1364 1.400 1_655 S
C1363 C1368 1.490 . S
C1364 H1354 0.930 . S
C1364 C1363 1.400 1_455 S
C1364 C1367 1.386 . S
H1365 C1381 0.930 . S
H1366 C1382 0.931 . S
C1367 H1355 0.929 . S
C1367 C1361 1.390 1_455 S
C1367 C1364 1.386 . S
C1368 C1363 1.490 . S
C1368 C1370 1.395 . S
C1368 C1371 1.403 . S
H1369 C1375 0.930 . S
C1370 H1356 0.930 . S
C1370 C1368 1.395 . S
C1370 C1373 1.403 . S
C1371 C1368 1.403 . S
C1371 C1372 1.524 . S
C1371 C1375 1.400 . S
C1372 H1357 0.960 . S
C1372 H1358 0.960 . S
C1372 H1359 0.960 1_655 S
C1372 C1371 1.524 . S
C1373 C1370 1.403 . S
C1373 C1374 1.392 . S
C1373 C1377 1.495 . S
C1374 C1373 1.392 . S
C1374 C1375 1.385 . S
C1374 C1376 1.478 . S
C1375 H1369 0.930 . S
C1375 C1371 1.400 . S
C1375 C1374 1.385 . S
C1376 C1374 1.478 . S
C1376 C1378 1.381 . S
C1376 C1382 1.383 1_655 S
C1377 C1373 1.495 . S
C1377 H1383 0.959 . S
C1377 H1384 0.961 1_655 S
C1377 H1385 0.960 . S
C1378 C1376 1.381 . S
C1378 C1379 1.394 . S
C1378 H1386 0.930 . S
C1379 C1378 1.394 . S
C1379 C1380 1.383 . S
C1379 H1387 0.929 . S
C1380 C1379 1.383 . S
C1380 C1381 1.377 1_655 S
C1381 H1365 0.930 . S
C1381 C1380 1.377 1_455 S
C1381 C1382 1.379 . S
C1382 H1366 0.931 . S
C1382 C1376 1.383 1_455 S
C1382 C1381 1.379 . S
H1383 C1377 0.959 . S
H1384 C1377 0.961 1_455 S
H1385 C1377 0.960 . S
H1386 C1378 0.930 . S
H1387 C1379 0.929 . S
H1388 C1396 0.929 . S
H1389 C1398 0.930 . S
H1390 C1400 0.930 . S
H1391 C1403 0.929 . S
H1392 C1406 0.930 . S
H1393 C1408 0.960 . S
H1394 C1408 0.960 . S
H1395 C1408 0.960 . S
C1396 H1388 0.929 . S
C1396 C1397 1.377 . S
C1396 C1398 1.384 . S
C1397 C1396 1.377 . S
C1397 C1403 1.390 . S
C1398 H1389 0.930 . S
C1398 C1396 1.384 . S
C1398 C1399 1.372 . S
C1399 C1398 1.372 . S
C1399 C1400 1.400 . S
C1399 C1404 1.490 . S
C1400 H1390 0.930 . S
C1400 C1399 1.400 . S
C1400 C1403 1.386 . S
H1401 C1417 0.930 . S
H1402 C1418 0.931 . S
C1403 H1391 0.929 . S
C1403 C1397 1.390 . S
C1403 C1400 1.386 . S
C1404 C1399 1.490 . S
C1404 C1406 1.395 . S
C1404 C1407 1.403 . S
H1405 C1411 0.930 . S
C1406 H1392 0.930 . S
C1406 C1404 1.395 . S
C1406 C1409 1.403 . S
C1407 C1404 1.403 . S
C1407 C1408 1.524 . S
C1407 C1411 1.400 . S
C1408 H1393 0.960 . S
C1408 H1394 0.960 . S
C1408 H1395 0.960 . S
C1408 C1407 1.524 . S
C1409 C1406 1.403 . S
C1409 C1410 1.392 . S
C1409 C1413 1.495 . S
C1410 C1409 1.392 . S
C1410 C1411 1.385 . S
C1410 C1412 1.478 . S
C1411 H1405 0.930 . S
C1411 C1407 1.400 . S
C1411 C1410 1.385 . S
C1412 C1410 1.478 . S
C1412 C1414 1.381 . S
C1412 C1418 1.383 . S
C1413 C1409 1.495 . S
C1413 H1419 0.959 . S
C1413 H1420 0.961 . S
C1413 H1421 0.960 . S
C1414 C1412 1.381 . S
C1414 C1415 1.394 . S
C1414 H1422 0.930 . S
C1415 C1414 1.394 . S
C1415 C1416 1.383 . S
C1415 H1423 0.929 . S
C1416 C1415 1.383 . S
C1416 C1417 1.377 . S
C1417 H1401 0.930 . S
C1417 C1416 1.377 . S
C1417 C1418 1.379 . S
C1418 H1402 0.931 . S
C1418 C1412 1.383 . S
C1418 C1417 1.379 . S
H1419 C1413 0.959 . S
H1420 C1413 0.961 . S
H1421 C1413 0.960 . S
H1422 C1414 0.930 . S
H1423 C1415 0.929 . S
H1424 C1432 0.929 . S
H1425 C1434 0.930 . S
H1426 C1436 0.930 . S
H1427 C1439 0.929 . S
H1428 C1442 0.930 . S
H1429 C1444 0.960 . S
H1430 C1444 0.960 . S
H1431 C1444 0.960 . S
C1432 H1424 0.929 . S
C1432 C1433 1.377 . S
C1432 C1434 1.384 . S
C1433 C1432 1.377 . S
C1433 C1439 1.390 . S
C1434 H1425 0.930 . S
C1434 C1432 1.384 . S
C1434 C1435 1.372 . S
C1435 C1434 1.372 . S
C1435 C1436 1.400 . S
C1435 C1440 1.490 . S
C1436 H1426 0.930 . S
C1436 C1435 1.400 . S
C1436 C1439 1.386 . S
H1437 C1453 0.930 . S
H1438 C1454 0.931 . S
C1439 H1427 0.929 . S
C1439 C1433 1.390 . S
C1439 C1436 1.386 . S
C1440 C1435 1.490 . S
C1440 C1442 1.395 . S
C1440 C1443 1.403 . S
H1441 C1447 0.930 . S
C1442 H1428 0.930 . S
C1442 C1440 1.395 . S
C1442 C1445 1.403 . S
C1443 C1440 1.403 . S
C1443 C1444 1.524 . S
C1443 C1447 1.400 . S
C1444 H1429 0.960 . S
C1444 H1430 0.960 . S
C1444 H1431 0.960 . S
C1444 C1443 1.524 . S
C1445 C1442 1.403 . S
C1445 C1446 1.392 . S
C1445 C1449 1.495 . S
C1446 C1445 1.392 . S
C1446 C1447 1.385 . S
C1446 C1448 1.478 . S
C1447 H1441 0.930 . S
C1447 C1443 1.400 . S
C1447 C1446 1.385 . S
C1448 C1446 1.478 . S
C1448 C1450 1.381 . S
C1448 C1454 1.383 . S
C1449 C1445 1.495 . S
C1449 H1455 0.959 . S
C1449 H1456 0.961 . S
C1449 H1457 0.960 . S
C1450 C1448 1.381 . S
C1450 C1451 1.394 . S
C1450 H1458 0.930 . S
C1451 C1450 1.394 . S
C1451 C1452 1.383 . S
C1451 H1459 0.929 . S
C1452 C1451 1.383 . S
C1452 C1453 1.377 . S
C1453 H1437 0.930 . S
C1453 C1452 1.377 . S
C1453 C1454 1.379 . S
C1454 H1438 0.931 . S
C1454 C1448 1.383 . S
C1454 C1453 1.379 . S
H1455 C1449 0.959 . S
H1456 C1449 0.961 . S
H1457 C1449 0.960 . S
H1458 C1450 0.930 . S
H1459 C1451 0.929 . S
H1460 C1468 0.929 . S
H1461 C1470 0.930 . S
H1462 C1472 0.930 . S
H1463 C1475 0.929 . S
H1464 C1478 0.930 . S
H1465 C1480 0.960 . S
H1466 C1480 0.960 . S
H1467 C1480 0.960 . S
C1468 H1460 0.929 . S
C1468 C1469 1.377 . S
C1468 C1470 1.384 . S
C1469 C1468 1.377 . S
C1469 C1475 1.390 . S
C1470 H1461 0.930 . S
C1470 C1468 1.384 . S
C1470 C1471 1.372 . S
C1471 C1470 1.372 . S
C1471 C1472 1.400 . S
C1471 C1476 1.490 . S
C1472 H1462 0.930 . S
C1472 C1471 1.400 . S
C1472 C1475 1.386 . S
H1473 C1489 0.930 . S
H1474 C1490 0.931 . S
C1475 H1463 0.929 . S
C1475 C1469 1.390 . S
C1475 C1472 1.386 . S
C1476 C1471 1.490 . S
C1476 C1478 1.395 . S
C1476 C1479 1.403 . S
H1477 C1483 0.930 . S
C1478 H1464 0.930 . S
C1478 C1476 1.395 . S
C1478 C1481 1.403 . S
C1479 C1476 1.403 . S
C1479 C1480 1.524 . S
C1479 C1483 1.400 . S
C1480 H1465 0.960 . S
C1480 H1466 0.960 . S
C1480 H1467 0.960 . S
C1480 C1479 1.524 . S
C1481 C1478 1.403 . S
C1481 C1482 1.392 . S
C1481 C1485 1.495 . S
C1482 C1481 1.392 . S
C1482 C1483 1.385 . S
C1482 C1484 1.478 . S
C1483 H1477 0.930 . S
C1483 C1479 1.400 . S
C1483 C1482 1.385 . S
C1484 C1482 1.478 . S
C1484 C1486 1.381 . S
C1484 C1490 1.383 . S
C1485 C1481 1.495 . S
C1485 H1491 0.959 . S
C1485 H1492 0.961 . S
C1485 H1493 0.960 . S
C1486 C1484 1.381 . S
C1486 C1487 1.394 . S
C1486 H1494 0.930 . S
C1487 C1486 1.394 . S
C1487 C1488 1.383 . S
C1487 H1495 0.929 . S
C1488 C1487 1.383 . S
C1488 C1489 1.377 . S
C1489 H1473 0.930 . S
C1489 C1488 1.377 . S
C1489 C1490 1.379 . S
C1490 H1474 0.931 . S
C1490 C1484 1.383 . S
C1490 C1489 1.379 . S
H1491 C1485 0.959 . S
H1492 C1485 0.961 . S
H1493 C1485 0.960 . S
H1494 C1486 0.930 . S
H1495 C1487 0.929 . S
H1496 C1504 0.929 . S
H1497 C1506 0.930 . S
H1498 C1508 0.930 . S
H1499 C1511 0.929 . S
H1500 C1514 0.930 . S
H1501 C1516 0.960 . S
H1502 C1516 0.960 . S
H1503 C1516 0.960 . S
C1504 H1496 0.929 . S
C1504 C1505 1.377 . S
C1504 C1506 1.384 . S
C1505 C1504 1.377 . S
C1505 C1511 1.390 . S
C1506 H1497 0.930 . S
C1506 C1504 1.384 . S
C1506 C1507 1.372 . S
C1507 C1506 1.372 . S
C1507 C1508 1.400 . S
C1507 C1512 1.490 . S
C1508 H1498 0.930 . S
C1508 C1507 1.400 . S
C1508 C1511 1.386 . S
H1509 C1525 0.930 . S
H1510 C1526 0.931 . S
C1511 H1499 0.929 . S
C1511 C1505 1.390 . S
C1511 C1508 1.386 . S
C1512 C1507 1.490 . S
C1512 C1514 1.395 . S
C1512 C1515 1.403 . S
H1513 C1519 0.930 . S
C1514 H1500 0.930 . S
C1514 C1512 1.395 . S
C1514 C1517 1.403 . S
C1515 C1512 1.403 . S
C1515 C1516 1.524 . S
C1515 C1519 1.400 . S
C1516 H1501 0.960 . S
C1516 H1502 0.960 . S
C1516 H1503 0.960 . S
C1516 C1515 1.524 . S
C1517 C1514 1.403 . S
C1517 C1518 1.392 . S
C1517 C1521 1.495 . S
C1518 C1517 1.392 . S
C1518 C1519 1.385 . S
C1518 C1520 1.478 . S
C1519 H1513 0.930 . S
C1519 C1515 1.400 . S
C1519 C1518 1.385 . S
C1520 C1518 1.478 . S
C1520 C1522 1.381 . S
C1520 C1526 1.383 . S
C1521 C1517 1.495 . S
C1521 H1527 0.959 . S
C1521 H1528 0.961 . S
C1521 H1529 0.960 . S
C1522 C1520 1.381 . S
C1522 C1523 1.394 . S
C1522 H1530 0.930 . S
C1523 C1522 1.394 . S
C1523 C1524 1.383 . S
C1523 H1531 0.929 . S
C1524 C1523 1.383 . S
C1524 C1525 1.377 . S
C1525 H1509 0.930 . S
C1525 C1524 1.377 . S
C1525 C1526 1.379 . S
C1526 H1510 0.931 . S
C1526 C1520 1.383 . S
C1526 C1525 1.379 . S
H1527 C1521 0.959 . S
H1528 C1521 0.961 . S
H1529 C1521 0.960 . S
H1530 C1522 0.930 . S
H1531 C1523 0.929 . S
H1532 C1540 0.929 . S
H1533 C1542 0.930 . S
H1534 C1544 0.930 . S
H1535 C1547 0.929 . S
H1536 C1550 0.930 . S
H1537 C1552 0.960 . S
H1538 C1552 0.960 . S
H1539 C1552 0.960 . S
C1540 H1532 0.929 . S
C1540 C1541 1.377 . S
C1540 C1542 1.384 . S
C1541 C1540 1.377 . S
C1541 C1547 1.390 . S
C1542 H1533 0.930 . S
C1542 C1540 1.384 . S
C1542 C1543 1.372 . S
C1543 C1542 1.372 . S
C1543 C1544 1.400 . S
C1543 C1548 1.490 . S
C1544 H1534 0.930 . S
C1544 C1543 1.400 . S
C1544 C1547 1.386 . S
H1545 C1561 0.930 . S
H1546 C1562 0.931 . S
C1547 H1535 0.929 . S
C1547 C1541 1.390 . S
C1547 C1544 1.386 . S
C1548 C1543 1.490 . S
C1548 C1550 1.395 . S
C1548 C1551 1.403 . S
H1549 C1555 0.930 . S
C1550 H1536 0.930 . S
C1550 C1548 1.395 . S
C1550 C1553 1.403 . S
C1551 C1548 1.403 . S
C1551 C1552 1.524 . S
C1551 C1555 1.400 . S
C1552 H1537 0.960 . S
C1552 H1538 0.960 . S
C1552 H1539 0.960 . S
C1552 C1551 1.524 . S
C1553 C1550 1.403 . S
C1553 C1554 1.392 . S
C1553 C1557 1.495 . S
C1554 C1553 1.392 . S
C1554 C1555 1.385 . S
C1554 C1556 1.478 . S
C1555 H1549 0.930 . S
C1555 C1551 1.400 . S
C1555 C1554 1.385 . S
C1556 C1554 1.478 . S
C1556 C1558 1.381 . S
C1556 C1562 1.383 . S
C1557 C1553 1.495 . S
C1557 H1563 0.959 . S
C1557 H1564 0.961 . S
C1557 H1565 0.960 . S
C1558 C1556 1.381 . S
C1558 C1559 1.394 . S
C1558 H1566 0.930 . S
C1559 C1558 1.394 . S
C1559 C1560 1.383 . S
C1559 H1567 0.929 . S
C1560 C1559 1.383 . S
C1560 C1561 1.377 . S
C1561 H1545 0.930 . S
C1561 C1560 1.377 . S
C1561 C1562 1.379 . S
C1562 H1546 0.931 . S
C1562 C1556 1.383 . S
C1562 C1561 1.379 . S
H1563 C1557 0.959 . S
H1564 C1557 0.961 . S
H1565 C1557 0.960 . S
H1566 C1558 0.930 . S
H1567 C1559 0.929 . S
H1568 C1576 0.929 . S
H1569 C1578 0.930 . S
H1570 C1580 0.930 . S
H1571 C1583 0.929 . S
H1572 C1586 0.930 . S
H1573 C1588 0.960 . S
H1574 C1588 0.960 . S
H1575 C1588 0.960 . S
C1576 H1568 0.929 . S
C1576 C1577 1.377 . S
C1576 C1578 1.384 . S
C1577 C1576 1.377 . S
C1577 C1583 1.390 . S
C1578 H1569 0.930 . S
C1578 C1576 1.384 . S
C1578 C1579 1.372 . S
C1579 C1578 1.372 . S
C1579 C1580 1.400 . S
C1579 C1584 1.490 . S
C1580 H1570 0.930 . S
C1580 C1579 1.400 . S
C1580 C1583 1.386 . S
H1581 C1597 0.930 . S
H1582 C1598 0.931 . S
C1583 H1571 0.929 . S
C1583 C1577 1.390 . S
C1583 C1580 1.386 . S
C1584 C1579 1.490 . S
C1584 C1586 1.395 . S
C1584 C1587 1.403 . S
H1585 C1591 0.930 . S
C1586 H1572 0.930 . S
C1586 C1584 1.395 . S
C1586 C1589 1.403 . S
C1587 C1584 1.403 . S
C1587 C1588 1.524 . S
C1587 C1591 1.400 . S
C1588 H1573 0.960 . S
C1588 H1574 0.960 . S
C1588 H1575 0.960 . S
C1588 C1587 1.524 . S
C1589 C1586 1.403 . S
C1589 C1590 1.392 . S
C1589 C1593 1.495 . S
C1590 C1589 1.392 . S
C1590 C1591 1.385 . S
C1590 C1592 1.478 . S
C1591 H1585 0.930 . S
C1591 C1587 1.400 . S
C1591 C1590 1.385 . S
C1592 C1590 1.478 . S
C1592 C1594 1.381 . S
C1592 C1598 1.383 . S
C1593 C1589 1.495 . S
C1593 H1599 0.959 . S
C1593 H1600 0.961 . S
C1593 H1601 0.960 . S
C1594 C1592 1.381 . S
C1594 C1595 1.394 . S
C1594 H1602 0.930 . S
C1595 C1594 1.394 . S
C1595 C1596 1.383 . S
C1595 H1603 0.929 . S
C1596 C1595 1.383 . S
C1596 C1597 1.377 . S
C1597 H1581 0.930 . S
C1597 C1596 1.377 . S
C1597 C1598 1.379 . S
C1598 H1582 0.931 . S
C1598 C1592 1.383 . S
C1598 C1597 1.379 . S
H1599 C1593 0.959 . S
H1600 C1593 0.961 . S
H1601 C1593 0.960 . S
H1602 C1594 0.930 . S
H1603 C1595 0.929 . S
H1604 C1612 0.929 . S
H1605 C1614 0.930 . S
H1606 C1616 0.930 . S
H1607 C1619 0.929 . S
H1608 C1622 0.930 . S
H1609 C1624 0.960 . S
H1610 C1624 0.960 . S
H1611 C1624 0.960 . S
C1612 H1604 0.929 . S
C1612 C1613 1.377 . S
C1612 C1614 1.384 . S
C1613 C1612 1.377 . S
C1613 C1619 1.390 . S
C1614 H1605 0.930 . S
C1614 C1612 1.384 . S
C1614 C1615 1.372 . S
C1615 C1614 1.372 . S
C1615 C1616 1.400 . S
C1615 C1620 1.490 . S
C1616 H1606 0.930 . S
C1616 C1615 1.400 . S
C1616 C1619 1.386 . S
H1617 C1633 0.930 . S
H1618 C1634 0.931 . S
C1619 H1607 0.929 . S
C1619 C1613 1.390 . S
C1619 C1616 1.386 . S
C1620 C1615 1.490 . S
C1620 C1622 1.395 . S
C1620 C1623 1.403 . S
H1621 C1627 0.930 . S
C1622 H1608 0.930 . S
C1622 C1620 1.395 . S
C1622 C1625 1.403 . S
C1623 C1620 1.403 . S
C1623 C1624 1.524 . S
C1623 C1627 1.400 . S
C1624 H1609 0.960 . S
C1624 H1610 0.960 . S
C1624 H1611 0.960 . S
C1624 C1623 1.524 . S
C1625 C1622 1.403 . S
C1625 C1626 1.392 . S
C1625 C1629 1.495 . S
C1626 C1625 1.392 . S
C1626 C1627 1.385 . S
C1626 C1628 1.478 . S
C1627 H1621 0.930 . S
C1627 C1623 1.400 . S
C1627 C1626 1.385 . S
C1628 C1626 1.478 . S
C1628 C1630 1.381 . S
C1628 C1634 1.383 . S
C1629 C1625 1.495 . S
C1629 H1635 0.959 . S
C1629 H1636 0.961 . S
C1629 H1637 0.960 . S
C1630 C1628 1.381 . S
C1630 C1631 1.394 . S
C1630 H1638 0.930 . S
C1631 C1630 1.394 . S
C1631 C1632 1.383 . S
C1631 H1639 0.929 . S
C1632 C1631 1.383 . S
C1632 C1633 1.377 . S
C1633 H1617 0.930 . S
C1633 C1632 1.377 . S
C1633 C1634 1.379 . S
C1634 H1618 0.931 . S
C1634 C1628 1.383 . S
C1634 C1633 1.379 . S
H1635 C1629 0.959 . S
H1636 C1629 0.961 . S
H1637 C1629 0.960 . S
H1638 C1630 0.930 . S
H1639 C1631 0.929 . S
H1640 C1648 0.929 . S
H1641 C1650 0.930 . S
H1642 C1652 0.930 . S
H1643 C1655 0.929 . S
H1644 C1658 0.930 . S
H1645 C1660 0.960 . S
H1646 C1660 0.960 . S
H1647 C1660 0.960 . S
C1648 H1640 0.929 . S
C1648 C1649 1.377 . S
C1648 C1650 1.384 . S
C1649 C1648 1.377 . S
C1649 C1655 1.390 . S
C1650 H1641 0.930 . S
C1650 C1648 1.384 . S
C1650 C1651 1.372 . S
C1651 C1650 1.372 . S
C1651 C1652 1.400 . S
C1651 C1656 1.490 . S
C1652 H1642 0.930 . S
C1652 C1651 1.400 . S
C1652 C1655 1.386 . S
H1653 C1669 0.930 . S
H1654 C1670 0.931 . S
C1655 H1643 0.929 . S
C1655 C1649 1.390 . S
C1655 C1652 1.386 . S
C1656 C1651 1.490 . S
C1656 C1658 1.395 . S
C1656 C1659 1.403 . S
H1657 C1663 0.930 . S
C1658 H1644 0.930 . S
C1658 C1656 1.395 . S
C1658 C1661 1.403 . S
C1659 C1656 1.403 . S
C1659 C1660 1.524 . S
C1659 C1663 1.400 . S
C1660 H1645 0.960 . S
C1660 H1646 0.960 . S
C1660 H1647 0.960 . S
C1660 C1659 1.524 . S
C1661 C1658 1.403 . S
C1661 C1662 1.392 . S
C1661 C1665 1.495 . S
C1662 C1661 1.392 . S
C1662 C1663 1.385 . S
C1662 C1664 1.478 . S
C1663 H1657 0.930 . S
C1663 C1659 1.400 . S
C1663 C1662 1.385 . S
C1664 C1662 1.478 . S
C1664 C1666 1.381 . S
C1664 C1670 1.383 . S
C1665 C1661 1.495 . S
C1665 H1671 0.959 . S
C1665 H1672 0.961 . S
C1665 H1673 0.960 . S
C1666 C1664 1.381 . S
C1666 C1667 1.394 . S
C1666 H1674 0.930 . S
C1667 C1666 1.394 . S
C1667 C1668 1.383 . S
C1667 H1675 0.929 . S
C1668 C1667 1.383 . S
C1668 C1669 1.377 . S
C1669 H1653 0.930 . S
C1669 C1668 1.377 . S
C1669 C1670 1.379 . S
C1670 H1654 0.931 . S
C1670 C1664 1.383 . S
C1670 C1669 1.379 . S
H1671 C1665 0.959 . S
H1672 C1665 0.961 . S
H1673 C1665 0.960 . S
H1674 C1666 0.930 . S
H1675 C1667 0.929 . S
H1676 C1684 0.929 . S
H1677 C1686 0.930 . S
H1678 C1688 0.930 . S
H1679 C1691 0.929 . S
H1680 C1694 0.930 . S
H1681 C1696 0.960 . S
H1682 C1696 0.960 . S
H1683 C1696 0.960 . S
C1684 H1676 0.929 . S
C1684 C1685 1.377 . S
C1684 C1686 1.384 . S
C1685 C1684 1.377 . S
C1685 C1691 1.390 . S
C1686 H1677 0.930 . S
C1686 C1684 1.384 . S
C1686 C1687 1.372 . S
C1687 C1686 1.372 . S
C1687 C1688 1.400 . S
C1687 C1692 1.490 . S
C1688 H1678 0.930 . S
C1688 C1687 1.400 . S
C1688 C1691 1.386 . S
H1689 C1705 0.930 . S
H1690 C1706 0.931 . S
C1691 H1679 0.929 . S
C1691 C1685 1.390 . S
C1691 C1688 1.386 . S
C1692 C1687 1.490 . S
C1692 C1694 1.395 . S
C1692 C1695 1.403 . S
H1693 C1699 0.930 . S
C1694 H1680 0.930 . S
C1694 C1692 1.395 . S
C1694 C1697 1.403 . S
C1695 C1692 1.403 . S
C1695 C1696 1.524 . S
C1695 C1699 1.400 . S
C1696 H1681 0.960 . S
C1696 H1682 0.960 . S
C1696 H1683 0.960 . S
C1696 C1695 1.524 . S
C1697 C1694 1.403 . S
C1697 C1698 1.392 . S
C1697 C1701 1.495 . S
C1698 C1697 1.392 . S
C1698 C1699 1.385 . S
C1698 C1700 1.478 . S
C1699 H1693 0.930 . S
C1699 C1695 1.400 . S
C1699 C1698 1.385 . S
C1700 C1698 1.478 . S
C1700 C1702 1.381 . S
C1700 C1706 1.383 . S
C1701 C1697 1.495 . S
C1701 H1707 0.959 . S
C1701 H1708 0.961 . S
C1701 H1709 0.960 . S
C1702 C1700 1.381 . S
C1702 C1703 1.394 . S
C1702 H1710 0.930 . S
C1703 C1702 1.394 . S
C1703 C1704 1.383 . S
C1703 H1711 0.929 . S
C1704 C1703 1.383 . S
C1704 C1705 1.377 . S
C1705 H1689 0.930 . S
C1705 C1704 1.377 . S
C1705 C1706 1.379 . S
C1706 H1690 0.931 . S
C1706 C1700 1.383 . S
C1706 C1705 1.379 . S
H1707 C1701 0.959 . S
H1708 C1701 0.961 . S
H1709 C1701 0.960 . S
H1710 C1702 0.930 . S
H1711 C1703 0.929 . S
H1712 C1720 0.929 . S
H1713 C1722 0.930 . S
H1714 C1724 0.930 . S
H1715 C1727 0.929 . S
H1716 C1730 0.930 . S
H1717 C1732 0.960 . S
H1718 C1732 0.960 . S
H1719 C1732 0.960 . S
C1720 H1712 0.929 . S
C1720 C1721 1.377 . S
C1720 C1722 1.384 . S
C1721 C1720 1.377 . S
C1721 C1727 1.390 . S
C1722 H1713 0.930 . S
C1722 C1720 1.384 . S
C1722 C1723 1.372 . S
C1723 C1722 1.372 . S
C1723 C1724 1.400 . S
C1723 C1728 1.490 . S
C1724 H1714 0.930 . S
C1724 C1723 1.400 . S
C1724 C1727 1.386 . S
H1725 C1741 0.930 . S
H1726 C1742 0.931 . S
C1727 H1715 0.929 . S
C1727 C1721 1.390 . S
C1727 C1724 1.386 . S
C1728 C1723 1.490 . S
C1728 C1730 1.395 . S
C1728 C1731 1.403 . S
H1729 C1735 0.930 . S
C1730 H1716 0.930 . S
C1730 C1728 1.395 . S
C1730 C1733 1.403 . S
C1731 C1728 1.403 . S
C1731 C1732 1.524 . S
C1731 C1735 1.400 . S
C1732 H1717 0.960 . S
C1732 H1718 0.960 . S
C1732 H1719 0.960 . S
C1732 C1731 1.524 . S
C1733 C1730 1.403 . S
C1733 C1734 1.392 . S
C1733 C1737 1.495 . S
C1734 C1733 1.392 . S
C1734 C1735 1.385 . S
C1734 C1736 1.478 . S
C1735 H1729 0.930 . S
C1735 C1731 1.400 . S
C1735 C1734 1.385 . S
C1736 C1734 1.478 . S
C1736 C1738 1.381 . S
C1736 C1742 1.383 . S
C1737 C1733 1.495 . S
C1737 H1743 0.959 . S
C1737 H1744 0.961 . S
C1737 H1745 0.960 . S
C1738 C1736 1.381 . S
C1738 C1739 1.394 . S
C1738 H1746 0.930 . S
C1739 C1738 1.394 . S
C1739 C1740 1.383 . S
C1739 H1747 0.929 . S
C1740 C1739 1.383 . S
C1740 C1741 1.377 . S
C1741 H1725 0.930 . S
C1741 C1740 1.377 . S
C1741 C1742 1.379 . S
C1742 H1726 0.931 . S
C1742 C1736 1.383 . S
C1742 C1741 1.379 . S
H1743 C1737 0.959 . S
H1744 C1737 0.961 . S
H1745 C1737 0.960 . S
H1746 C1738 0.930 . S
H1747 C1739 0.929 . S
H1748 C1756 0.929 . S
H1749 C1758 0.930 . S
H1750 C1760 0.930 . S
H1751 C1763 0.929 . S
H1752 C1766 0.930 . S
H1753 C1768 0.960 . S
H1754 C1768 0.960 . S
H1755 C1768 0.960 . S
C1756 H1748 0.929 . S
C1756 C1757 1.377 . S
C1756 C1758 1.384 . S
C1757 C1756 1.377 . S
C1757 C1763 1.390 . S
C1758 H1749 0.930 . S
C1758 C1756 1.384 . S
C1758 C1759 1.372 . S
C1759 C1758 1.372 . S
C1759 C1760 1.400 . S
C1759 C1764 1.490 . S
C1760 H1750 0.930 . S
C1760 C1759 1.400 . S
C1760 C1763 1.386 . S
H1761 C1777 0.930 . S
H1762 C1778 0.931 . S
C1763 H1751 0.929 . S
C1763 C1757 1.390 . S
C1763 C1760 1.386 . S
C1764 C1759 1.490 . S
C1764 C1766 1.395 . S
C1764 C1767 1.403 . S
H1765 C1771 0.930 . S
C1766 H1752 0.930 . S
C1766 C1764 1.395 . S
C1766 C1769 1.403 . S
C1767 C1764 1.403 . S
C1767 C1768 1.524 . S
C1767 C1771 1.400 . S
C1768 H1753 0.960 . S
C1768 H1754 0.960 . S
C1768 H1755 0.960 . S
C1768 C1767 1.524 . S
C1769 C1766 1.403 . S
C1769 C1770 1.392 . S
C1769 C1773 1.495 . S
C1770 C1769 1.392 . S
C1770 C1771 1.385 . S
C1770 C1772 1.478 . S
C1771 H1765 0.930 . S
C1771 C1767 1.400 . S
C1771 C1770 1.385 . S
C1772 C1770 1.478 . S
C1772 C1774 1.381 . S
C1772 C1778 1.383 . S
C1773 C1769 1.495 . S
C1773 H1779 0.959 . S
C1773 H1780 0.961 . S
C1773 H1781 0.960 . S
C1774 C1772 1.381 . S
C1774 C1775 1.394 . S
C1774 H1782 0.930 . S
C1775 C1774 1.394 . S
C1775 C1776 1.383 . S
C1775 H1783 0.929 . S
C1776 C1775 1.383 . S
C1776 C1777 1.377 . S
C1777 H1761 0.930 . S
C1777 C1776 1.377 . S
C1777 C1778 1.379 . S
C1778 H1762 0.931 . S
C1778 C1772 1.383 . S
C1778 C1777 1.379 . S
H1779 C1773 0.959 . S
H1780 C1773 0.961 . S
H1781 C1773 0.960 . S
H1782 C1774 0.930 . S
H1783 C1775 0.929 . S
H1784 C1792 0.929 . S
H1785 C1794 0.930 . S
H1786 C1796 0.930 . S
H1787 C1799 0.929 . S
H1788 C1802 0.930 . S
H1789 C1804 0.960 . S
H1790 C1804 0.960 . S
H1791 C1804 0.960 . S
C1792 H1784 0.929 . S
C1792 C1793 1.377 . S
C1792 C1794 1.384 . S
C1793 C1792 1.377 . S
C1793 C1799 1.390 . S
C1794 H1785 0.930 . S
C1794 C1792 1.384 . S
C1794 C1795 1.372 . S
C1795 C1794 1.372 . S
C1795 C1796 1.400 . S
C1795 C1800 1.490 . S
C1796 H1786 0.930 . S
C1796 C1795 1.400 . S
C1796 C1799 1.386 . S
H1797 C1813 0.930 . S
H1798 C1814 0.931 . S
C1799 H1787 0.929 . S
C1799 C1793 1.390 . S
C1799 C1796 1.386 . S
C1800 C1795 1.490 . S
C1800 C1802 1.395 . S
C1800 C1803 1.403 . S
H1801 C1807 0.930 . S
C1802 H1788 0.930 . S
C1802 C1800 1.395 . S
C1802 C1805 1.403 . S
C1803 C1800 1.403 . S
C1803 C1804 1.524 . S
C1803 C1807 1.400 . S
C1804 H1789 0.960 . S
C1804 H1790 0.960 . S
C1804 H1791 0.960 . S
C1804 C1803 1.524 . S
C1805 C1802 1.403 . S
C1805 C1806 1.392 . S
C1805 C1809 1.495 . S
C1806 C1805 1.392 . S
C1806 C1807 1.385 . S
C1806 C1808 1.478 . S
C1807 H1801 0.930 . S
C1807 C1803 1.400 . S
C1807 C1806 1.385 . S
C1808 C1806 1.478 . S
C1808 C1810 1.381 . S
C1808 C1814 1.383 . S
C1809 C1805 1.495 . S
C1809 H1815 0.959 . S
C1809 H1816 0.961 . S
C1809 H1817 0.960 . S
C1810 C1808 1.381 . S
C1810 C1811 1.394 . S
C1810 H1818 0.930 . S
C1811 C1810 1.394 . S
C1811 C1812 1.383 . S
C1811 H1819 0.929 . S
C1812 C1811 1.383 . S
C1812 C1813 1.377 . S
C1813 H1797 0.930 . S
C1813 C1812 1.377 . S
C1813 C1814 1.379 . S
C1814 H1798 0.931 . S
C1814 C1808 1.383 . S
C1814 C1813 1.379 . S
H1815 C1809 0.959 . S
H1816 C1809 0.961 . S
H1817 C1809 0.960 . S
H1818 C1810 0.930 . S
H1819 C1811 0.929 . S
H1820 C1828 0.929 . S
H1821 C1830 0.930 . S
H1822 C1832 0.930 . S
H1823 C1835 0.929 . S
H1824 C1838 0.930 . S
H1825 C1840 0.960 . S
H1826 C1840 0.960 . S
H1827 C1840 0.960 . S
C1828 H1820 0.929 . S
C1828 C1829 1.377 . S
C1828 C1830 1.384 . S
C1829 C1828 1.377 . S
C1829 C1835 1.390 . S
C1830 H1821 0.930 . S
C1830 C1828 1.384 . S
C1830 C1831 1.372 . S
C1831 C1830 1.372 . S
C1831 C1832 1.400 . S
C1831 C1836 1.490 . S
C1832 H1822 0.930 . S
C1832 C1831 1.400 . S
C1832 C1835 1.386 . S
H1833 C1849 0.930 . S
H1834 C1850 0.931 . S
C1835 H1823 0.929 . S
C1835 C1829 1.390 . S
C1835 C1832 1.386 . S
C1836 C1831 1.490 . S
C1836 C1838 1.395 . S
C1836 C1839 1.403 . S
H1837 C1843 0.930 . S
C1838 H1824 0.930 . S
C1838 C1836 1.395 . S
C1838 C1841 1.403 . S
C1839 C1836 1.403 . S
C1839 C1840 1.524 . S
C1839 C1843 1.400 . S
C1840 H1825 0.960 . S
C1840 H1826 0.960 . S
C1840 H1827 0.960 . S
C1840 C1839 1.524 . S
C1841 C1838 1.403 . S
C1841 C1842 1.392 . S
C1841 C1845 1.495 . S
C1842 C1841 1.392 . S
C1842 C1843 1.385 . S
C1842 C1844 1.478 . S
C1843 H1837 0.930 . S
C1843 C1839 1.400 . S
C1843 C1842 1.385 . S
C1844 C1842 1.478 . S
C1844 C1846 1.381 . S
C1844 C1850 1.383 . S
C1845 C1841 1.495 . S
C1845 H1851 0.959 . S
C1845 H1852 0.961 . S
C1845 H1853 0.960 . S
C1846 C1844 1.381 . S
C1846 C1847 1.394 . S
C1846 H1854 0.930 . S
C1847 C1846 1.394 . S
C1847 C1848 1.383 . S
C1847 H1855 0.929 . S
C1848 C1847 1.383 . S
C1848 C1849 1.377 . S
C1849 H1833 0.930 . S
C1849 C1848 1.377 . S
C1849 C1850 1.379 . S
C1850 H1834 0.931 . S
C1850 C1844 1.383 . S
C1850 C1849 1.379 . S
H1851 C1845 0.959 . S
H1852 C1845 0.961 . S
H1853 C1845 0.960 . S
H1854 C1846 0.930 . S
H1855 C1847 0.929 . S
H1856 C1864 0.929 . S
H1857 C1866 0.930 . S
H1858 C1868 0.930 . S
H1859 C1871 0.929 . S
H1860 C1874 0.930 . S
H1861 C1876 0.960 . S
H1862 C1876 0.960 . S
H1863 C1876 0.960 . S
C1864 H1856 0.929 . S
C1864 C1865 1.377 . S
C1864 C1866 1.384 . S
C1865 C1864 1.377 . S
C1865 C1871 1.390 . S
C1866 H1857 0.930 . S
C1866 C1864 1.384 . S
C1866 C1867 1.372 . S
C1867 C1866 1.372 . S
C1867 C1868 1.400 . S
C1867 C1872 1.490 . S
C1868 H1858 0.930 . S
C1868 C1867 1.400 . S
C1868 C1871 1.386 . S
H1869 C1885 0.930 . S
H1870 C1886 0.931 . S
C1871 H1859 0.929 . S
C1871 C1865 1.390 . S
C1871 C1868 1.386 . S
C1872 C1867 1.490 . S
C1872 C1874 1.395 . S
C1872 C1875 1.403 . S
H1873 C1879 0.930 . S
C1874 H1860 0.930 . S
C1874 C1872 1.395 . S
C1874 C1877 1.403 . S
C1875 C1872 1.403 . S
C1875 C1876 1.524 . S
C1875 C1879 1.400 . S
C1876 H1861 0.960 . S
C1876 H1862 0.960 . S
C1876 H1863 0.960 . S
C1876 C1875 1.524 . S
C1877 C1874 1.403 . S
C1877 C1878 1.392 . S
C1877 C1881 1.495 . S
C1878 C1877 1.392 . S
C1878 C1879 1.385 . S
C1878 C1880 1.478 . S
C1879 H1873 0.930 . S
C1879 C1875 1.400 . S
C1879 C1878 1.385 . S
C1880 C1878 1.478 . S
C1880 C1882 1.381 . S
C1880 C1886 1.383 . S
C1881 C1877 1.495 . S
C1881 H1887 0.959 . S
C1881 H1888 0.961 . S
C1881 H1889 0.960 . S
C1882 C1880 1.381 . S
C1882 C1883 1.394 . S
C1882 H1890 0.930 . S
C1883 C1882 1.394 . S
C1883 C1884 1.383 . S
C1883 H1891 0.929 . S
C1884 C1883 1.383 . S
C1884 C1885 1.377 . S
C1885 H1869 0.930 . S
C1885 C1884 1.377 . S
C1885 C1886 1.379 . S
C1886 H1870 0.931 . S
C1886 C1880 1.383 . S
C1886 C1885 1.379 . S
H1887 C1881 0.959 . S
H1888 C1881 0.961 . S
H1889 C1881 0.960 . S
H1890 C1882 0.930 . S
H1891 C1883 0.929 . S
H1892 C1900 0.929 . S
H1893 C1902 0.930 . S
H1894 C1904 0.930 . S
H1895 C1907 0.929 . S
H1896 C1910 0.930 . S
H1897 C1912 0.960 . S
H1898 C1912 0.960 . S
H1899 C1912 0.960 . S
C1900 H1892 0.929 . S
C1900 C1901 1.377 . S
C1900 C1902 1.384 . S
C1901 C1900 1.377 . S
C1901 C1907 1.390 . S
C1902 H1893 0.930 . S
C1902 C1900 1.384 . S
C1902 C1903 1.372 . S
C1903 C1902 1.372 . S
C1903 C1904 1.400 . S
C1903 C1908 1.490 . S
C1904 H1894 0.930 . S
C1904 C1903 1.400 . S
C1904 C1907 1.386 . S
H1905 C1921 0.930 . S
H1906 C1922 0.931 . S
C1907 H1895 0.929 . S
C1907 C1901 1.390 . S
C1907 C1904 1.386 . S
C1908 C1903 1.490 . S
C1908 C1910 1.395 . S
C1908 C1911 1.403 . S
H1909 C1915 0.930 . S
C1910 H1896 0.930 . S
C1910 C1908 1.395 . S
C1910 C1913 1.403 . S
C1911 C1908 1.403 . S
C1911 C1912 1.524 . S
C1911 C1915 1.400 . S
C1912 H1897 0.960 . S
C1912 H1898 0.960 . S
C1912 H1899 0.960 . S
C1912 C1911 1.524 . S
C1913 C1910 1.403 . S
C1913 C1914 1.392 . S
C1913 C1917 1.495 . S
C1914 C1913 1.392 . S
C1914 C1915 1.385 . S
C1914 C1916 1.478 . S
C1915 H1909 0.930 . S
C1915 C1911 1.400 . S
C1915 C1914 1.385 . S
C1916 C1914 1.478 . S
C1916 C1918 1.381 . S
C1916 C1922 1.383 . S
C1917 C1913 1.495 . S
C1917 H1923 0.959 . S
C1917 H1924 0.961 . S
C1917 H1925 0.960 . S
C1918 C1916 1.381 . S
C1918 C1919 1.394 . S
C1918 H1926 0.930 . S
C1919 C1918 1.394 . S
C1919 C1920 1.383 . S
C1919 H1927 0.929 . S
C1920 C1919 1.383 . S
C1920 C1921 1.377 . S
C1921 H1905 0.930 . S
C1921 C1920 1.377 . S
C1921 C1922 1.379 . S
C1922 H1906 0.931 . S
C1922 C1916 1.383 . S
C1922 C1921 1.379 . S
H1923 C1917 0.959 . S
H1924 C1917 0.961 . S
H1925 C1917 0.960 . S
H1926 C1918 0.930 . S
H1927 C1919 0.929 . S
H1928 C1936 0.929 . S
H1929 C1938 0.930 . S
H1930 C1940 0.930 . S
H1931 C1943 0.929 . S
H1932 C1946 0.930 . S
H1933 C1948 0.960 . S
H1934 C1948 0.960 . S
H1935 C1948 0.960 . S
C1936 H1928 0.929 . S
C1936 C1937 1.377 . S
C1936 C1938 1.384 . S
C1937 C1936 1.377 . S
C1937 C1943 1.390 . S
C1938 H1929 0.930 . S
C1938 C1936 1.384 . S
C1938 C1939 1.372 . S
C1939 C1938 1.372 . S
C1939 C1940 1.400 . S
C1939 C1944 1.490 . S
C1940 H1930 0.930 . S
C1940 C1939 1.400 . S
C1940 C1943 1.386 . S
H1941 C1957 0.930 . S
H1942 C1958 0.931 . S
C1943 H1931 0.929 . S
C1943 C1937 1.390 . S
C1943 C1940 1.386 . S
C1944 C1939 1.490 . S
C1944 C1946 1.395 . S
C1944 C1947 1.403 . S
H1945 C1951 0.930 . S
C1946 H1932 0.930 . S
C1946 C1944 1.395 . S
C1946 C1949 1.403 . S
C1947 C1944 1.403 . S
C1947 C1948 1.524 . S
C1947 C1951 1.400 . S
C1948 H1933 0.960 . S
C1948 H1934 0.960 . S
C1948 H1935 0.960 . S
C1948 C1947 1.524 . S
C1949 C1946 1.403 . S
C1949 C1950 1.392 . S
C1949 C1953 1.495 . S
C1950 C1949 1.392 . S
C1950 C1951 1.385 . S
C1950 C1952 1.478 . S
C1951 H1945 0.930 . S
C1951 C1947 1.400 . S
C1951 C1950 1.385 . S
C1952 C1950 1.478 . S
C1952 C1954 1.381 . S
C1952 C1958 1.383 . S
C1953 C1949 1.495 . S
C1953 H1959 0.959 . S
C1953 H1960 0.961 . S
C1953 H1961 0.960 . S
C1954 C1952 1.381 . S
C1954 C1955 1.394 . S
C1954 H1962 0.930 . S
C1955 C1954 1.394 . S
C1955 C1956 1.383 . S
C1955 H1963 0.929 . S
C1956 C1955 1.383 . S
C1956 C1957 1.377 . S
C1957 H1941 0.930 . S
C1957 C1956 1.377 . S
C1957 C1958 1.379 . S
C1958 H1942 0.931 . S
C1958 C1952 1.383 . S
C1958 C1957 1.379 . S
H1959 C1953 0.959 . S
H1960 C1953 0.961 . S
H1961 C1953 0.960 . S
H1962 C1954 0.930 . S
H1963 C1955 0.929 . S
H1964 C1972 0.929 . S
H1965 C1974 0.930 . S
H1966 C1976 0.930 . S
H1967 C1979 0.929 . S
H1968 C1982 0.930 . S
H1969 C1984 0.960 . S
H1970 C1984 0.960 . S
H1971 C1984 0.960 . S
C1972 H1964 0.929 . S
C1972 C1973 1.377 . S
C1972 C1974 1.384 . S
C1973 C1972 1.377 . S
C1973 C1979 1.390 . S
C1974 H1965 0.930 . S
C1974 C1972 1.384 . S
C1974 C1975 1.372 . S
C1975 C1974 1.372 . S
C1975 C1976 1.400 . S
C1975 C1980 1.490 . S
C1976 H1966 0.930 . S
C1976 C1975 1.400 . S
C1976 C1979 1.386 . S
H1977 C1993 0.930 . S
H1978 C1994 0.931 . S
C1979 H1967 0.929 . S
C1979 C1973 1.390 . S
C1979 C1976 1.386 . S
C1980 C1975 1.490 . S
C1980 C1982 1.395 . S
C1980 C1983 1.403 . S
H1981 C1987 0.930 . S
C1982 H1968 0.930 . S
C1982 C1980 1.395 . S
C1982 C1985 1.403 . S
C1983 C1980 1.403 . S
C1983 C1984 1.524 . S
C1983 C1987 1.400 . S
C1984 H1969 0.960 . S
C1984 H1970 0.960 . S
C1984 H1971 0.960 . S
C1984 C1983 1.524 . S
C1985 C1982 1.403 . S
C1985 C1986 1.392 . S
C1985 C1989 1.495 . S
C1986 C1985 1.392 . S
C1986 C1987 1.385 . S
C1986 C1988 1.478 . S
C1987 H1981 0.930 . S
C1987 C1983 1.400 . S
C1987 C1986 1.385 . S
C1988 C1986 1.478 . S
C1988 C1990 1.381 . S
C1988 C1994 1.383 . S
C1989 C1985 1.495 . S
C1989 H1995 0.959 . S
C1989 H1996 0.961 . S
C1989 H1997 0.960 . S
C1990 C1988 1.381 . S
C1990 C1991 1.394 . S
C1990 H1998 0.930 . S
C1991 C1990 1.394 . S
C1991 C1992 1.383 . S
C1991 H1999 0.929 . S
C1992 C1991 1.383 . S
C1992 C1993 1.377 . S
C1993 H1977 0.930 . S
C1993 C1992 1.377 . S
C1993 C1994 1.379 . S
C1994 H1978 0.931 . S
C1994 C1988 1.383 . S
C1994 C1993 1.379 . S
H1995 C1989 0.959 . S
H1996 C1989 0.961 . S
H1997 C1989 0.960 . S
H1998 C1990 0.930 . S
H1999 C1991 0.929 . S
C857 C38 2.028 . S
C876 C251 2.024 . S
C893 C82 0.408 . S
C912 C294 0.390 . S
C929 C347 0.372 . S
C948 C135 0.396 . S
C965 C188 1.191 . S
C984 C410 1.195 . S
C1001 C250 2.030 . S
C1020 C39 2.029 . S
C1037 C552 0.393 . S
C1056 C446 0.405 . S
C1073 C340 0.381 . S
C1092 C128 0.385 . S
C1109 C499 1.194 . S
C1128 C621 1.197 . S
C1145 C674 1.220 . S
C1164 C764 1.230 . S
C1181 C453 0.372 . S
C1200 C559 0.390 . S
C1217 C718 0.368 . S
C1236 C824 0.350 . S
C1253 C622 1.223 . S
C1272 C506 1.219 . S
C1289 C771 1.218 . S
C1308 C675 1.210 . S
C1325 C75 0.375 . S
C1344 C287 0.376 . S
C1361 C711 0.372 . S
C1380 C817 0.406 . S
C1397 C409 1.222 . S
C1416 C181 1.222 . S
C1433 C29 1.167 . S
C1452 C393 1.166 . S
C1469 C234 1.443 . S
C1488 C91 1.443 . S
C1505 C303 1.990 . S
C1524 C144 1.991 . S
C1541 C197 1.650 . S
C1560 C356 1.643 . S
C1577 C22 1.162 . S
C1596 C612 1.156 . S
C1613 C463 1.442 . S
C1632 C241 1.429 . S
C1649 C569 1.990 . S
C1668 C145 1.981 . S
C1685 C516 1.648 . S
C1704 C357 1.642 . S
C1721 C665 1.169 . S
C1740 C605 1.165 . S
C1757 C781 1.463 . S
C1776 C462 1.469 . S
C1793 C568 1.993 . S
C1812 C727 1.993 . S
C1829 C833 1.649 . S
C1848 C515 1.648 . S
C1865 C400 1.170 . S
C1884 C658 1.159 . S
C1901 C780 1.463 . S
C1920 C92 1.453 . S
C1937 C304 1.993 . S
C1956 C728 1.986 . S
C1973 C834 1.650 . S
C1992 C198 1.642 . S
