# Generated by pormake.
# Topology sxb, (6)-cn, num edge types: 1
# Building blocks:
#     Node 0, Type 0, BuildingBlock: MIFKUJ_clean_sbu_0, # of connection points: 6
#     Node 1, Type 0, BuildingBlock: MIFKUJ_clean_sbu_0, # of connection points: 6
#     Node 2, Type 0, BuildingBlock: MIFKUJ_clean_sbu_0, # of connection points: 6
#     Node 3, Type 0, BuildingBlock: MIFKUJ_clean_sbu_0, # of connection points: 6
#     Edge 4, Type (0, 0), BuildingBlock: CIFDUS_clean_linker_0, # of connection points: 2
#     Edge 5, Type (0, 0), BuildingBlock: CIFDUS_clean_linker_0, # of connection points: 2
#     Edge 6, Type (0, 0), BuildingBlock: CIFDUS_clean_linker_0, # of connection points: 2
#     Edge 7, Type (0, 0), BuildingBlock: CIFDUS_clean_linker_0, # of connection points: 2
#     Edge 8, Type (0, 0), BuildingBlock: CIFDUS_clean_linker_0, # of connection points: 2
#     Edge 9, Type (0, 0), BuildingBlock: CIFDUS_clean_linker_0, # of connection points: 2
#     Edge 10, Type (0, 0), BuildingBlock: CIFDUS_clean_linker_0, # of connection points: 2
#     Edge 11, Type (0, 0), BuildingBlock: CIFDUS_clean_linker_0, # of connection points: 2
#     Edge 12, Type (0, 0), BuildingBlock: CIFDUS_clean_linker_0, # of connection points: 2
#     Edge 13, Type (0, 0), BuildingBlock: CIFDUS_clean_linker_0, # of connection points: 2
#     Edge 14, Type (0, 0), BuildingBlock: CIFDUS_clean_linker_0, # of connection points: 2
#     Edge 15, Type (0, 0), BuildingBlock: CIFDUS_clean_linker_0, # of connection points: 2
# Relax obj value: 0.020
# Max RMSD: 0.064
# Mean RMSD: 0.050
data_MOF--net-sxb--node1-MIFKUJ_clean_sbu_0--edge1-CIFDUS_clean_linker_0
_symmetry_space_group_name_H-M    P1
_symmetry_Int_Tables_number       1
_symmetry_cell_setting            triclinic
loop_
_symmetry_equiv_pos_as_xyz
'x, y, z'
_cell_length_a     15.784854
_cell_length_b     28.269058
_cell_length_c     24.485745
_cell_angle_alpha  96.550198
_cell_angle_beta   97.219588
_cell_angle_gamma 85.214811
loop_
_atom_site_label
_atom_site_type_symbol
_atom_site_fract_x
_atom_site_fract_y
_atom_site_fract_z
_atom_type_partial_charge
Zn0 Zn 0.04785 0.02537 -0.00581 0.0
Zn1 Zn 0.86903 0.01628 0.9877 0.0
C2 C 0.12022 0.93473 0.0251 0.0
O3 O 0.16505 0.96302 0.06204 0.0
C4 C 0.81601 0.1072 0.95044 0.0
O5 O 0.77741 0.07888 0.91036 0.0
O6 O 0.16733 0.04191 -0.00452 0.0
O7 O 0.99008 0.04227 0.92048 0.0
O8 O 0.90793 0.98343 0.91746 0.0
C9 C 0.2066 0.01929 0.95729 0.0
O10 O 0.16483 0.99038 0.91945 0.0
O11 O 0.0605 0.95316 -0.00748 0.0
C12 C 0.71005 0.02664 0.02538 0.0
O13 O 0.75461 0.05201 0.06558 0.0
O14 O 0.74766 0.00457 0.98615 0.0
O15 O 0.9266 0.99446 0.05899 0.0
O16 O 0.0084 0.05398 0.06652 0.0
O17 O 0.86504 0.0886 0.98886 0.0
C18 C 0.95131 0.00818 0.89275 0.0
C19 C 0.9729 0.02399 0.08926 0.0
Zn20 Zn 0.17876 1.00042 0.5012 0.0
Zn21 Zn 0.99907 0.9107 0.481 0.0
C22 C 0.35792 0.98793 0.52663 0.0
O23 O 0.33672 0.01458 0.5711 0.0
C24 C 0.8257 0.93042 0.43298 0.0
O25 O 0.84762 0.89638 0.39514 0.0
O26 O 0.18901 0.07051 0.51621 0.0
O27 O 0.10062 0.99317 0.43042 0.0
O28 O 0.06635 0.91819 0.4182 0.0
C29 C 0.22022 0.09143 0.48098 0.0
O30 O 0.24254 0.06646 0.43575 0.0
O31 O 0.29869 0.97352 0.48988 0.0
C32 C 0.91319 0.8352 0.50586 0.0
O33 O 0.8882 0.87007 0.54183 0.0
O34 O 0.96912 0.84266 0.47531 0.0
O35 O 0.04426 0.92947 0.55995 0.0
O36 O 0.14224 0.98252 0.57039 0.0
O37 O 0.88286 0.94605 0.47047 0.0
C38 C 0.06897 0.95819 0.39981 0.0
C39 C 0.09474 0.95669 0.59058 0.0
Zn40 Zn 0.62275 0.47718 -0.00512 0.0
Zn41 Zn 0.44837 0.58333 0.00735 0.0
C42 C 0.69873 0.38671 0.02116 0.0
O43 O 0.71915 0.41356 0.06765 0.0
C44 C 0.34725 0.67105 -0.00441 0.0
O45 O 0.304 0.6429 0.95759 0.0
O46 O 0.73558 0.50783 0.01804 0.0
O47 O 0.56676 0.50304 0.92275 0.0
O48 O 0.4763 0.56838 0.92986 0.0
C49 C 0.80018 0.49127 -0.00624 0.0
O50 O 0.79035 0.45668 0.95333 0.0
O51 O 0.65395 0.40583 0.9814 0.0
C52 C 0.28582 0.56212 0.04255 0.0
O53 O 0.29582 0.601 0.07693 0.0
O54 O 0.34433 0.54712 0.01219 0.0
O55 O 0.54808 0.5634 0.05903 0.0
O56 O 0.55307 0.48616 0.05949 0.0
O57 O 0.41488 0.65382 0.02247 0.0
C58 C 0.51815 0.53623 0.90122 0.0
C59 C 0.53331 0.52758 0.08195 0.0
Zn60 Zn 0.5043 0.55002 0.48644 0.0
Zn61 Zn 0.35839 0.45553 0.47274 0.0
C62 C 0.6819 0.52055 0.51818 0.0
O63 O 0.6731 0.55624 0.55687 0.0
C64 C 0.17377 0.46534 0.46741 0.0
O65 O 0.18168 0.43132 0.42672 0.0
O66 O 0.5443 0.61632 0.49825 0.0
O67 O 0.44286 0.54333 0.40975 0.0
O68 O 0.37917 0.47532 0.39962 0.0
C69 C 0.59727 0.62521 0.46636 0.0
O70 O 0.61572 0.59279 0.42589 0.0
O71 O 0.61593 0.50798 0.48589 0.0
C72 C 0.32486 0.3636 0.49557 0.0
O73 O 0.30836 0.3879 0.54253 0.0
O74 O 0.34909 0.38532 0.45833 0.0
O75 O 0.4476 0.46331 0.53944 0.0
O76 O 0.4424 0.54172 0.55121 0.0
O77 O 0.24112 0.48326 0.4929 0.0
C78 C 0.40503 0.51017 0.37937 0.0
C79 C 0.45339 0.50192 0.5712 0.0
H80 H 0.20074 0.71616 0.94993 0.0
H81 H 0.42108 0.73906 0.07095 0.0
H82 H 0.36763 0.82177 0.09276 0.0
H83 H 0.26032 0.88802 0.07606 0.0
H84 H 0.04101 0.86562 0.95409 0.0
H85 H 0.09178 0.78207 0.93458 0.0
C86 C 0.23722 0.73919 0.98107 0.0
C87 C 0.31512 0.72138 0.00853 0.0
C88 C 0.20608 0.78675 -0.00653 0.0
C89 C 0.36115 0.75179 0.04898 0.0
C90 C 0.33054 0.79911 0.06158 0.0
C91 C 0.22309 0.86482 0.04554 0.0
C92 C 0.14685 0.88315 0.01664 0.0
C93 C 0.25325 0.817 0.03397 0.0
C94 C 0.09982 0.85251 0.97703 0.0
C95 C 0.12898 0.80474 0.96569 0.0
H96 H 0.67328 0.32102 0.93062 0.0
H97 H 0.79479 0.33717 0.09912 0.0
H98 H 0.84602 0.25323 0.09126 0.0
H99 H 0.85315 0.17429 0.03768 0.0
H100 H 0.7297 0.15761 0.86975 0.0
H101 H 0.68345 0.2424 0.8762 0.0
C102 C 0.711 0.30621 0.96561 0.0
C103 C 0.72965 0.3355 0.01544 0.0
C104 C 0.74035 0.25765 0.96092 0.0
C105 C 0.77901 0.31559 0.06026 0.0
C106 C 0.80859 0.26748 0.05584 0.0
C107 C 0.81691 0.18929 0.00229 0.0
C108 C 0.79499 0.15951 0.95333 0.0
C109 C 0.78934 0.23808 0.00649 0.0
C110 C 0.74741 0.17959 0.90803 0.0
C111 C 0.72069 0.22814 0.91168 0.0
H112 H 0.28535 0.14617 0.4146 0.0
H113 H 0.18596 0.1519 0.57187 0.0
H114 H 0.21081 0.23652 0.59054 0.0
H115 H 0.26068 0.30876 0.5623 0.0
H116 H 0.35928 0.30311 0.40478 0.0
H117 H 0.33496 0.21842 0.38629 0.0
C118 C 0.26902 0.16591 0.45293 0.0
C119 C 0.23386 0.14278 0.49172 0.0
C120 C 0.2835 0.21451 0.46347 0.0
C121 C 0.21304 0.16888 0.54123 0.0
C122 C 0.22731 0.21726 0.55202 0.0
C123 C 0.2771 0.28899 0.524 0.0
C124 C 0.31183 0.31217 0.48507 0.0
C125 C 0.2626 0.24039 0.51346 0.0
C126 C 0.33246 0.2861 0.43551 0.0
C127 C 0.31854 0.23767 0.42483 0.0
H128 H 0.77308 0.81629 0.55098 0.0
H129 H 0.94866 0.75552 0.43581 0.0
H130 H 0.86465 0.68571 0.41246 0.0
H131 H 0.74011 0.6429 0.42342 0.0
H132 H 0.56473 0.70366 0.53867 0.0
H133 H 0.64976 0.77301 0.56289 0.0
C134 C 0.79354 0.78762 0.52112 0.0
C135 C 0.86716 0.79107 0.49526 0.0
C136 C 0.74448 0.74793 0.50743 0.0
C137 C 0.89235 0.7537 0.45641 0.0
C138 C 0.84416 0.71388 0.44286 0.0
C139 C 0.72005 0.67146 0.45355 0.0
C140 C 0.64588 0.66831 0.47893 0.0
C141 C 0.76969 0.71088 0.46772 0.0
C142 C 0.62142 0.70533 0.5184 0.0
C143 C 0.67013 0.74489 0.53239 0.0
H144 H 0.31512 0.05671 0.04264 0.0
H145 H 0.30693 0.98226 0.87809 0.0
H146 H 0.46296 0.97687 0.88557 0.0
H147 H 0.60063 0.99183 0.93932 0.0
H148 H 0.60956 0.06608 0.10397 0.0
H149 H 0.45331 0.07255 0.09612 0.0
C150 C 0.34744 0.03973 0.0082 0.0
C151 C 0.29987 0.01994 0.9599 0.0
C152 C 0.43686 0.03621 0.01303 0.0
C153 C 0.34241 0.99772 0.91575 0.0
C154 C 0.43147 0.99448 0.92003 0.0
C155 C 0.56851 0.00919 0.97367 0.0
C156 C 0.61635 0.02826 0.02223 0.0
C157 C 0.47917 0.01317 0.96868 0.0
C158 C 0.57392 0.05099 0.06619 0.0
C159 C 0.48474 0.05486 0.06168 0.0
H160 H 0.42402 0.9483 0.43253 0.0
H161 H 0.49725 0.00962 0.59984 0.0
H162 H 0.6474 1.00054 0.58416 0.0
H163 H 0.75826 0.9745 0.52378 0.0
H164 H 0.6871 0.91147 0.35706 0.0
H165 H 0.53586 0.92266 0.37146 0.0
C166 C 0.47286 0.9594 0.46566 0.0
C167 C 0.4492 0.97944 0.51736 0.0
C168 C 0.55946 0.95434 0.4563 0.0
C169 C 0.51342 0.99398 0.55967 0.0
C170 C 0.59944 0.98898 0.55071 0.0
C171 C 0.70972 0.96381 0.49024 0.0
C172 C 0.73404 0.94247 0.43926 0.0
C173 C 0.62317 0.96937 0.49919 0.0
C174 C 0.67016 0.92819 0.39663 0.0
C175 C 0.58366 0.93433 0.40494 0.0
H176 H 0.9516 0.45451 0.95991 0.0
H177 H 0.84201 0.56854 0.06772 0.0
H178 H 0.9836 0.59877 0.09512 0.0
H179 H 0.13776 0.59449 0.08565 0.0
H180 H 0.24591 0.48029 0.97723 0.0
H181 H 0.10573 0.44823 0.95349 0.0
C182 C 0.95847 0.486 0.98943 0.0
C183 C 0.886 0.50943 0.01134 0.0
C184 C 0.03999 0.50308 0.00509 0.0
C185 C 0.89654 0.5499 0.04999 0.0
C186 C 0.97756 0.56719 0.06573 0.0
C187 C 0.13094 0.56229 0.05729 0.0
C188 C 0.20247 0.54 0.03313 0.0
C189 C 0.04969 0.54425 0.04324 0.0
C190 C 0.19213 0.49833 -0.00363 0.0
C191 C 0.11183 0.48 0.98259 0.0
H192 H 0.02196 0.42804 0.427 0.0
H193 H 0.13169 0.53694 0.54683 0.0
H194 H 0.99013 0.56158 0.57516 0.0
H195 H 0.83485 0.55348 0.56447 0.0
H196 H 0.72506 0.44521 0.44378 0.0
H197 H 0.86726 0.41874 0.41779 0.0
C198 C 0.01513 0.45722 0.45931 0.0
C199 C 0.08768 0.48073 0.48451 0.0
C200 C 0.93351 0.47114 0.47552 0.0
C201 C 0.07721 0.51827 0.52654 0.0
C202 C 0.99619 0.53234 0.54286 0.0
C203 C 0.84193 0.52371 0.53289 0.0
C204 C 0.76901 0.5013 0.50627 0.0
C205 C 0.92386 0.50911 0.51755 0.0
C206 C 0.77979 0.46307 0.46511 0.0
C207 C 0.86117 0.44802 0.45004 0.0
H208 H 0.09471 0.03259 0.34454 0.0
H209 H 0.98554 0.89557 0.32188 0.0
H210 H 0.94303 0.90496 0.22401 0.0
H211 H 0.93908 0.95151 0.14497 0.0
H212 H 0.05208 0.08737 0.16764 0.0
H213 H 0.0906 0.07899 0.26599 0.0
C214 C 0.0615 0.0047 0.31834 0.0
C215 C 0.04347 0.96336 0.34052 0.0
C216 C 0.03784 0.01018 0.26227 0.0
C217 C 1.00057 0.92763 0.30581 0.0
C218 C 0.97608 0.93302 0.24991 0.0
C219 C 0.97159 0.97947 0.17149 0.0
C220 C 0.9925 0.02008 0.14913 0.0
C221 C 0.9946 0.9741 0.22773 0.0
C222 C 0.03531 0.05577 0.18389 0.0
C223 C 0.05741 0.05098 0.24007 0.0
H224 H 0.0738 0.0372 0.83848 0.0
H225 H 0.86454 0.94523 0.8176 0.0
H226 H 0.89538 0.91772 0.72335 0.0
H227 H 0.97965 0.92141 0.64658 0.0
H228 H 0.19196 0.01166 0.66936 0.0
H229 H 0.16387 0.03672 0.7643 0.0
C230 C 0.03492 0.01108 0.81342 0.0
C231 C 0.96677 0.99343 0.8349 0.0
C232 C 0.05439 0.99451 0.76004 0.0
C233 C 0.91721 0.9595 0.80189 0.0
C234 C 0.93507 0.94357 0.74816 0.0
C235 C 0.02069 0.946 0.67248 0.0
C236 C 0.08736 0.96489 0.65058 0.0
C237 C 0.00355 0.96085 0.72685 0.0
C238 C 0.1399 0.99667 0.68495 0.0
C239 C 0.12357 0.01134 0.73916 0.0
H240 H 0.42829 0.58292 0.32056 0.0
H241 H 0.37836 0.43372 0.30179 0.0
H242 H 0.40582 0.42691 0.20526 0.0
H243 H 0.46311 0.46069 0.13044 0.0
H244 H 0.51225 0.60999 0.14949 0.0
H245 H 0.46532 0.61936 0.24147 0.0
C246 C 0.42195 0.5491 0.29511 0.0
C247 C 0.40297 0.50872 0.31867 0.0
C248 C 0.4388 0.54524 0.23987 0.0
C249 C 0.39346 0.46535 0.28485 0.0
C250 C 0.40974 0.4613 0.22969 0.0
C251 C 0.46259 0.49538 0.1545 0.0
C252 C 0.493 0.53429 0.13376 0.0
C253 C 0.43562 0.50056 0.20745 0.0
C254 C 0.49021 0.57928 0.16483 0.0
C255 C 0.46349 0.5847 0.21748 0.0
H256 H 0.4431 0.57604 0.65133 0.0
H257 H 0.50736 0.42427 0.62686 0.0
H258 H 0.53792 0.42182 0.72685 0.0
H259 H 0.54252 0.46255 0.82152 0.0
H260 H 0.47116 0.61363 0.84505 0.0
H261 H 0.44781 0.61653 0.74517 0.0
C262 C 0.46412 0.54243 0.66779 0.0
C263 C 0.47293 0.50045 0.63166 0.0
C264 C 0.48037 0.54112 0.72523 0.0
C265 C 0.49977 0.45714 0.65377 0.0
C266 C 0.51741 0.45569 0.71094 0.0
C267 C 0.52259 0.49614 0.80471 0.0
C268 C 0.50867 0.53777 0.84064 0.0
C269 C 0.50749 0.49743 0.7471 0.0
C270 C 0.48193 0.58098 0.81829 0.0
C271 C 0.46858 0.58273 0.76118 0.0
loop_
_geom_bond_atom_site_label_1
_geom_bond_atom_site_label_2
_geom_bond_distance
_geom_bond_site_symmetry_2
_ccdc_geom_bond_type
Zn0 O6 1.969 1_565 S
Zn0 O7 1.965 1_564 S
Zn0 O11 2.024 1_554 S
Zn0 O16 1.969 . S
Zn1 O8 1.969 . S
Zn1 O14 1.969 1_545 S
Zn1 O15 1.965 1_546 S
Zn1 O17 2.024 1_556 S
C2 O3 1.229 . S
C2 O11 1.058 1_554 S
O3 C2 1.229 . S
C4 O5 1.229 . S
C4 O17 1.058 1_556 S
O5 C4 1.229 . S
O6 Zn0 1.969 1_545 S
O6 C9 1.267 1_544 S
O7 Zn0 1.965 1_546 S
O7 C18 1.260 1_455 S
O8 Zn1 1.969 . S
O8 C18 1.258 . S
C9 O6 1.267 1_566 S
C9 O10 1.228 . S
O10 C9 1.228 . S
O11 Zn0 2.024 1_556 S
O11 C2 1.058 1_556 S
C12 O13 1.228 . S
C12 O14 1.267 1_544 S
O13 C12 1.228 . S
O14 Zn1 1.969 1_565 S
O14 C12 1.267 1_566 S
O15 Zn1 1.965 1_564 S
O15 C19 1.260 1_655 S
O16 Zn0 1.969 . S
O16 C19 1.258 . S
O17 Zn1 2.024 1_554 S
O17 C4 1.058 1_554 S
C18 O7 1.260 1_655 S
C18 O8 1.258 . S
C19 O15 1.260 1_455 S
C19 O16 1.258 . S
Zn20 O26 1.969 . S
Zn20 O27 1.965 . S
Zn20 O31 2.024 1_545 S
Zn20 O36 1.969 . S
Zn21 O28 1.969 . S
Zn21 O34 1.969 . S
Zn21 O35 1.965 . S
Zn21 O37 2.024 1_565 S
C22 O23 1.229 . S
C22 O31 1.058 1_545 S
O23 C22 1.229 . S
C24 O25 1.229 . S
C24 O37 1.058 1_565 S
O25 C24 1.229 . S
O26 Zn20 1.969 . S
O26 C29 1.267 . S
O27 Zn20 1.965 . S
O27 C38 1.260 1_455 S
O28 Zn21 1.969 . S
O28 C38 1.258 1_565 S
C29 O26 1.267 . S
C29 O30 1.228 . S
O30 C29 1.228 . S
O31 Zn20 2.024 1_565 S
O31 C22 1.058 1_565 S
C32 O33 1.228 . S
C32 O34 1.267 . S
O33 C32 1.228 . S
O34 Zn21 1.969 . S
O34 C32 1.267 . S
O35 Zn21 1.965 . S
O35 C39 1.260 1_655 S
O36 Zn20 1.969 . S
O36 C39 1.258 1_545 S
O37 Zn21 2.024 1_545 S
O37 C24 1.058 1_545 S
C38 O27 1.260 1_655 S
C38 O28 1.258 1_545 S
C39 O35 1.260 1_455 S
C39 O36 1.258 1_565 S
Zn40 O46 1.969 . S
Zn40 O47 1.965 1_554 S
Zn40 O51 2.024 1_554 S
Zn40 O56 1.969 . S
Zn41 O48 1.969 . S
Zn41 O54 1.969 . S
Zn41 O55 1.965 1_556 S
Zn41 O57 2.024 1_556 S
C42 O43 1.229 . S
C42 O51 1.058 1_554 S
O43 C42 1.229 . S
C44 O45 1.229 . S
C44 O57 1.058 1_556 S
O45 C44 1.229 . S
O46 Zn40 1.969 . S
O46 C49 1.267 1_554 S
O47 Zn40 1.965 1_556 S
O47 C58 1.260 . S
O48 Zn41 1.969 . S
O48 C58 1.258 . S
C49 O46 1.267 1_556 S
C49 O50 1.228 . S
O50 C49 1.228 . S
O51 Zn40 2.024 1_556 S
O51 C42 1.058 1_556 S
C52 O53 1.228 . S
C52 O54 1.267 1_554 S
O53 C52 1.228 . S
O54 Zn41 1.969 . S
O54 C52 1.267 1_556 S
O55 Zn41 1.965 1_554 S
O55 C59 1.260 . S
O56 Zn40 1.969 . S
O56 C59 1.258 . S
O57 Zn41 2.024 1_554 S
O57 C44 1.058 1_554 S
C58 O47 1.260 . S
C58 O48 1.258 . S
C59 O55 1.260 . S
C59 O56 1.258 . S
Zn60 O66 1.969 . S
Zn60 O67 1.965 . S
Zn60 O71 2.024 . S
Zn60 O76 1.969 . S
Zn61 O68 1.969 . S
Zn61 O74 1.969 . S
Zn61 O75 1.965 . S
Zn61 O77 2.024 . S
C62 O63 1.229 . S
C62 O71 1.058 . S
O63 C62 1.229 . S
C64 O65 1.229 . S
C64 O77 1.058 . S
O65 C64 1.229 . S
O66 Zn60 1.969 . S
O66 C69 1.267 . S
O67 Zn60 1.965 . S
O67 C78 1.260 . S
O68 Zn61 1.969 . S
O68 C78 1.258 . S
C69 O66 1.267 . S
C69 O70 1.228 . S
O70 C69 1.228 . S
O71 Zn60 2.024 . S
O71 C62 1.058 . S
C72 O73 1.228 . S
C72 O74 1.267 . S
O73 C72 1.228 . S
O74 Zn61 1.969 . S
O74 C72 1.267 . S
O75 Zn61 1.965 . S
O75 C79 1.260 . S
O76 Zn60 1.969 . S
O76 C79 1.258 . S
O77 Zn61 2.024 . S
O77 C64 1.058 . S
C78 O67 1.260 . S
C78 O68 1.258 . S
C79 O75 1.260 . S
C79 O76 1.258 . S
H80 C86 0.930 . S
H81 C89 0.930 . S
H82 C90 0.930 . S
H83 C91 0.930 . S
H84 C94 0.930 . S
H85 C95 0.930 . S
C86 H80 0.930 . S
C86 C87 1.355 1_554 S
C86 C88 1.415 . S
C87 C86 1.355 1_556 S
C87 C89 1.419 . S
C88 C86 1.415 . S
C88 C93 1.425 1_554 S
C88 C95 1.409 . S
C89 H81 0.930 . S
C89 C87 1.419 . S
C89 C90 1.362 . S
C90 H82 0.930 . S
C90 C89 1.362 . S
C90 C93 1.409 . S
C91 H83 0.930 . S
C91 C92 1.355 1_556 S
C91 C93 1.415 . S
C92 C91 1.355 1_554 S
C92 C94 1.419 . S
C93 C88 1.425 1_556 S
C93 C90 1.409 . S
C93 C91 1.415 . S
C94 H84 0.930 . S
C94 C92 1.419 . S
C94 C95 1.362 . S
C95 H85 0.930 . S
C95 C88 1.409 . S
C95 C94 1.362 . S
H96 C102 0.929 . S
H97 C105 0.930 . S
H98 C106 0.930 . S
H99 C107 0.929 . S
H100 C110 0.930 . S
H101 C111 0.930 . S
C102 H96 0.929 . S
C102 C103 1.355 1_556 S
C102 C104 1.415 . S
C103 C102 1.355 1_554 S
C103 C105 1.419 . S
C104 C102 1.415 . S
C104 C109 1.429 1_556 S
C104 C111 1.408 . S
C105 H97 0.930 . S
C105 C103 1.419 . S
C105 C106 1.362 . S
C106 H98 0.930 . S
C106 C105 1.362 . S
C106 C109 1.407 . S
C107 H99 0.929 . S
C107 C108 1.355 1_554 S
C107 C109 1.415 . S
C108 C107 1.355 1_556 S
C108 C110 1.419 . S
C109 C104 1.429 1_554 S
C109 C106 1.407 . S
C109 C107 1.415 . S
C110 H100 0.930 . S
C110 C108 1.419 . S
C110 C111 1.362 . S
C111 H101 0.930 . S
C111 C104 1.408 . S
C111 C110 1.362 . S
H112 C118 0.930 . S
H113 C121 0.930 . S
H114 C122 0.930 . S
H115 C123 0.930 . S
H116 C126 0.930 . S
H117 C127 0.930 . S
C118 H112 0.930 . S
C118 C119 1.355 . S
C118 C120 1.415 . S
C119 C118 1.355 . S
C119 C121 1.419 . S
C120 C118 1.415 . S
C120 C125 1.425 . S
C120 C127 1.409 . S
C121 H113 0.930 . S
C121 C119 1.419 . S
C121 C122 1.362 . S
C122 H114 0.930 . S
C122 C121 1.362 . S
C122 C125 1.409 . S
C123 H115 0.930 . S
C123 C124 1.355 . S
C123 C125 1.415 . S
C124 C123 1.355 . S
C124 C126 1.419 . S
C125 C120 1.425 . S
C125 C122 1.409 . S
C125 C123 1.415 . S
C126 H116 0.930 . S
C126 C124 1.419 . S
C126 C127 1.362 . S
C127 H117 0.930 . S
C127 C120 1.409 . S
C127 C126 1.362 . S
H128 C134 0.930 . S
H129 C137 0.930 . S
H130 C138 0.930 . S
H131 C139 0.930 . S
H132 C142 0.930 . S
H133 C143 0.930 . S
C134 H128 0.930 . S
C134 C135 1.355 . S
C134 C136 1.415 . S
C135 C134 1.355 . S
C135 C137 1.419 . S
C136 C134 1.415 . S
C136 C141 1.425 . S
C136 C143 1.409 . S
C137 H129 0.930 . S
C137 C135 1.419 . S
C137 C138 1.362 . S
C138 H130 0.930 . S
C138 C137 1.362 . S
C138 C141 1.409 . S
C139 H131 0.930 . S
C139 C140 1.355 . S
C139 C141 1.415 . S
C140 C139 1.355 . S
C140 C142 1.419 . S
C141 C136 1.425 . S
C141 C138 1.409 . S
C141 C139 1.415 . S
C142 H132 0.930 . S
C142 C140 1.419 . S
C142 C143 1.362 . S
C143 H133 0.930 . S
C143 C136 1.409 . S
C143 C142 1.362 . S
H144 C150 0.930 . S
H145 C153 0.930 . S
H146 C154 0.930 . S
H147 C155 0.930 . S
H148 C158 0.930 . S
H149 C159 0.930 . S
C150 H144 0.930 . S
C150 C151 1.355 1_554 S
C150 C152 1.415 . S
C151 C150 1.355 1_556 S
C151 C153 1.419 1_545 S
C152 C150 1.415 . S
C152 C157 1.425 1_544 S
C152 C159 1.409 . S
C153 H145 0.930 . S
C153 C151 1.419 1_565 S
C153 C154 1.362 . S
C154 H146 0.930 . S
C154 C153 1.362 . S
C154 C157 1.409 . S
C155 H147 0.930 . S
C155 C156 1.355 1_556 S
C155 C157 1.415 . S
C156 C155 1.355 1_554 S
C156 C158 1.419 1_565 S
C157 C152 1.425 1_566 S
C157 C154 1.409 . S
C157 C155 1.415 . S
C158 H148 0.930 . S
C158 C156 1.419 1_545 S
C158 C159 1.362 . S
C159 H149 0.930 . S
C159 C152 1.409 . S
C159 C158 1.362 . S
H160 C166 0.930 . S
H161 C169 0.930 . S
H162 C170 0.932 1_545 S
H163 C171 0.930 . S
H164 C174 0.930 . S
H165 C175 0.932 1_565 S
C166 H160 0.930 . S
C166 C167 1.355 . S
C166 C168 1.415 . S
C167 C166 1.355 . S
C167 C169 1.419 . S
C168 C166 1.415 . S
C168 C173 1.425 1_565 S
C168 C175 1.408 1_565 S
C169 H161 0.930 . S
C169 C167 1.419 . S
C169 C170 1.363 . S
C170 H162 0.932 1_565 S
C170 C169 1.363 . S
C170 C173 1.409 1_565 S
C171 H163 0.930 . S
C171 C172 1.355 . S
C171 C173 1.415 . S
C172 C171 1.355 . S
C172 C174 1.419 . S
C173 C168 1.425 1_545 S
C173 C170 1.409 1_545 S
C173 C171 1.415 . S
C174 H164 0.930 . S
C174 C172 1.419 . S
C174 C175 1.363 . S
C175 H165 0.932 1_545 S
C175 C168 1.408 1_545 S
C175 C174 1.363 . S
H176 C182 0.930 . S
H177 C185 0.930 . S
H178 C186 0.930 . S
H179 C187 0.930 . S
H180 C190 0.930 . S
H181 C191 0.930 . S
C182 H176 0.930 . S
C182 C183 1.355 . S
C182 C184 1.415 . S
C183 C182 1.355 . S
C183 C185 1.419 1_556 S
C184 C182 1.415 . S
C184 C189 1.425 1_656 S
C184 C191 1.409 1_655 S
C185 H177 0.930 . S
C185 C183 1.419 1_554 S
C185 C186 1.362 . S
C186 H178 0.930 . S
C186 C185 1.362 . S
C186 C189 1.409 1_655 S
C187 H179 0.930 . S
C187 C188 1.355 . S
C187 C189 1.415 . S
C188 C187 1.355 . S
C188 C190 1.419 1_554 S
C189 C184 1.425 1_454 S
C189 C186 1.409 1_455 S
C189 C187 1.415 . S
C190 H180 0.930 . S
C190 C188 1.419 1_556 S
C190 C191 1.362 . S
C191 H181 0.930 . S
C191 C184 1.409 1_455 S
C191 C190 1.362 . S
H192 C198 0.930 . S
H193 C201 0.930 . S
H194 C202 0.930 . S
H195 C203 0.930 . S
H196 C206 0.930 . S
H197 C207 0.930 . S
C198 H192 0.930 . S
C198 C199 1.355 . S
C198 C200 1.415 . S
C199 C198 1.355 . S
C199 C201 1.419 . S
C200 C198 1.415 . S
C200 C205 1.425 1_455 S
C200 C207 1.409 1_455 S
C201 H193 0.930 . S
C201 C199 1.419 . S
C201 C202 1.362 . S
C202 H194 0.930 . S
C202 C201 1.362 . S
C202 C205 1.409 1_455 S
C203 H195 0.930 . S
C203 C204 1.355 . S
C203 C205 1.415 . S
C204 C203 1.355 . S
C204 C206 1.419 . S
C205 C200 1.425 1_655 S
C205 C202 1.409 1_655 S
C205 C203 1.415 . S
C206 H196 0.930 . S
C206 C204 1.419 . S
C206 C207 1.362 . S
C207 H197 0.930 . S
C207 C200 1.409 1_655 S
C207 C206 1.362 . S
H208 C214 0.930 . S
H209 C217 0.930 . S
H210 C218 0.930 . S
H211 C219 0.930 . S
H212 C222 0.930 . S
H213 C223 0.930 . S
C214 H208 0.930 . S
C214 C215 1.355 1_455 S
C214 C216 1.415 . S
C215 C214 1.355 1_655 S
C215 C217 1.419 1_545 S
C216 C214 1.415 . S
C216 C221 1.425 1_445 S
C216 C223 1.409 . S
C217 H209 0.930 . S
C217 C215 1.419 1_565 S
C217 C218 1.362 . S
C218 H210 0.930 . S
C218 C217 1.362 . S
C218 C221 1.409 . S
C219 H211 0.930 . S
C219 C220 1.355 1_665 S
C219 C221 1.415 . S
C220 C219 1.355 1_445 S
C220 C222 1.419 . S
C221 C216 1.425 1_665 S
C221 C218 1.409 . S
C221 C219 1.415 . S
C222 H212 0.930 . S
C222 C220 1.419 . S
C222 C223 1.362 . S
C223 H213 0.930 . S
C223 C216 1.409 . S
C223 C222 1.362 . S
H224 C230 0.930 . S
H225 C233 0.930 . S
H226 C234 0.930 . S
H227 C235 0.930 . S
H228 C238 0.930 . S
H229 C239 0.930 . S
C230 H224 0.930 . S
C230 C231 1.355 1_445 S
C230 C232 1.415 . S
C231 C230 1.355 1_665 S
C231 C233 1.419 . S
C232 C230 1.415 . S
C232 C237 1.425 1_445 S
C232 C239 1.409 . S
C233 H225 0.930 . S
C233 C231 1.419 . S
C233 C234 1.362 . S
C234 H226 0.930 . S
C234 C233 1.362 . S
C234 C237 1.409 . S
C235 H227 0.930 . S
C235 C236 1.360 1_655 S
C235 C237 1.415 . S
C236 C235 1.360 1_455 S
C236 C238 1.414 1_565 S
C237 C232 1.425 1_665 S
C237 C234 1.409 . S
C237 C235 1.415 . S
C238 H228 0.930 . S
C238 C236 1.414 1_545 S
C238 C239 1.362 . S
C239 H229 0.930 . S
C239 C232 1.409 . S
C239 C238 1.362 . S
H240 C246 0.930 . S
H241 C249 0.930 . S
H242 C250 0.930 . S
H243 C251 0.930 . S
H244 C254 0.930 . S
H245 C255 0.930 . S
C246 H240 0.930 . S
C246 C247 1.355 . S
C246 C248 1.415 . S
C247 C246 1.355 . S
C247 C249 1.419 . S
C248 C246 1.415 . S
C248 C253 1.425 . S
C248 C255 1.409 . S
C249 H241 0.930 . S
C249 C247 1.419 . S
C249 C250 1.362 . S
C250 H242 0.930 . S
C250 C249 1.362 . S
C250 C253 1.409 . S
C251 H243 0.930 . S
C251 C252 1.355 . S
C251 C253 1.415 . S
C252 C251 1.355 . S
C252 C254 1.419 . S
C253 C248 1.425 . S
C253 C250 1.409 . S
C253 C251 1.415 . S
C254 H244 0.930 . S
C254 C252 1.419 . S
C254 C255 1.362 . S
C255 H245 0.930 . S
C255 C248 1.409 . S
C255 C254 1.362 . S
H256 C262 0.930 . S
H257 C265 0.930 . S
H258 C266 0.930 . S
H259 C267 0.930 . S
H260 C270 0.930 . S
H261 C271 0.930 . S
C262 H256 0.930 . S
C262 C263 1.355 . S
C262 C264 1.415 . S
C263 C262 1.355 . S
C263 C265 1.419 . S
C264 C262 1.415 . S
C264 C269 1.425 . S
C264 C271 1.409 . S
C265 H257 0.930 . S
C265 C263 1.419 . S
C265 C266 1.362 . S
C266 H258 0.930 . S
C266 C265 1.362 . S
C266 C269 1.409 . S
C267 H259 0.930 . S
C267 C268 1.355 . S
C267 C269 1.415 . S
C268 C267 1.355 . S
C268 C270 1.419 . S
C269 C264 1.425 . S
C269 C266 1.409 . S
C269 C267 1.415 . S
C270 H260 0.930 . S
C270 C268 1.419 . S
C270 C271 1.362 . S
C271 H261 0.930 . S
C271 C264 1.409 . S
C271 C270 1.362 . S
C87 C44 1.561 . S
C92 C2 1.561 . S
C103 C42 1.498 . S
C108 C4 1.498 . S
C119 C29 1.292 . S
C124 C72 1.292 . S
C135 C32 1.351 . S
C140 C69 1.351 . S
C151 C9 1.032 1_545 S
C156 C12 1.032 1_565 S
C167 C22 1.532 1_565 S
C172 C24 1.532 1_545 S
C183 C49 1.018 . S
C188 C52 1.018 . S
C199 C64 1.530 . S
C204 C62 1.530 . S
C215 C38 1.463 . S
C220 C19 1.464 1_545 S
C231 C18 1.473 1_565 S
C236 C39 1.466 . S
C247 C78 1.475 . S
C252 C59 1.488 . S
C263 C79 1.463 . S
C268 C58 1.466 . S
