# Generated by pormake.
# Topology cag, (4)-cn, num edge types: 1
# Building blocks:
#     Node 0, Type 0, BuildingBlock: AZAVOO_clean_sbu_0, # of connection points: 4
#     Node 1, Type 0, BuildingBlock: AZAVOO_clean_sbu_0, # of connection points: 4
#     Node 2, Type 0, BuildingBlock: AZAVOO_clean_sbu_0, # of connection points: 4
#     Node 3, Type 0, BuildingBlock: AZAVOO_clean_sbu_0, # of connection points: 4
#     Node 4, Type 0, BuildingBlock: AZAVOO_clean_sbu_0, # of connection points: 4
#     Node 5, Type 0, BuildingBlock: AZAVOO_clean_sbu_0, # of connection points: 4
#     Node 6, Type 0, BuildingBlock: AZAVOO_clean_sbu_0, # of connection points: 4
#     Node 7, Type 0, BuildingBlock: AZAVOO_clean_sbu_0, # of connection points: 4
#     Node 8, Type 0, BuildingBlock: AZAVOO_clean_sbu_0, # of connection points: 4
#     Node 9, Type 0, BuildingBlock: AZAVOO_clean_sbu_0, # of connection points: 4
#     Node 10, Type 0, BuildingBlock: AZAVOO_clean_sbu_0, # of connection points: 4
#     Node 11, Type 0, BuildingBlock: AZAVOO_clean_sbu_0, # of connection points: 4
#     Node 12, Type 0, BuildingBlock: AZAVOO_clean_sbu_0, # of connection points: 4
#     Node 13, Type 0, BuildingBlock: AZAVOO_clean_sbu_0, # of connection points: 4
#     Node 14, Type 0, BuildingBlock: AZAVOO_clean_sbu_0, # of connection points: 4
#     Node 15, Type 0, BuildingBlock: AZAVOO_clean_sbu_0, # of connection points: 4
#     Edge 16, Type (0, 0), BuildingBlock: XUDNAN_clean_linker_2, # of connection points: 2
#     Edge 17, Type (0, 0), BuildingBlock: XUDNAN_clean_linker_2, # of connection points: 2
#     Edge 18, Type (0, 0), BuildingBlock: XUDNAN_clean_linker_2, # of connection points: 2
#     Edge 19, Type (0, 0), BuildingBlock: XUDNAN_clean_linker_2, # of connection points: 2
#     Edge 20, Type (0, 0), BuildingBlock: XUDNAN_clean_linker_2, # of connection points: 2
#     Edge 21, Type (0, 0), BuildingBlock: XUDNAN_clean_linker_2, # of connection points: 2
#     Edge 22, Type (0, 0), BuildingBlock: XUDNAN_clean_linker_2, # of connection points: 2
#     Edge 23, Type (0, 0), BuildingBlock: XUDNAN_clean_linker_2, # of connection points: 2
#     Edge 24, Type (0, 0), BuildingBlock: XUDNAN_clean_linker_2, # of connection points: 2
#     Edge 25, Type (0, 0), BuildingBlock: XUDNAN_clean_linker_2, # of connection points: 2
#     Edge 26, Type (0, 0), BuildingBlock: XUDNAN_clean_linker_2, # of connection points: 2
#     Edge 27, Type (0, 0), BuildingBlock: XUDNAN_clean_linker_2, # of connection points: 2
#     Edge 28, Type (0, 0), BuildingBlock: XUDNAN_clean_linker_2, # of connection points: 2
#     Edge 29, Type (0, 0), BuildingBlock: XUDNAN_clean_linker_2, # of connection points: 2
#     Edge 30, Type (0, 0), BuildingBlock: XUDNAN_clean_linker_2, # of connection points: 2
#     Edge 31, Type (0, 0), BuildingBlock: XUDNAN_clean_linker_2, # of connection points: 2
#     Edge 32, Type (0, 0), BuildingBlock: XUDNAN_clean_linker_2, # of connection points: 2
#     Edge 33, Type (0, 0), BuildingBlock: XUDNAN_clean_linker_2, # of connection points: 2
#     Edge 34, Type (0, 0), BuildingBlock: XUDNAN_clean_linker_2, # of connection points: 2
#     Edge 35, Type (0, 0), BuildingBlock: XUDNAN_clean_linker_2, # of connection points: 2
#     Edge 36, Type (0, 0), BuildingBlock: XUDNAN_clean_linker_2, # of connection points: 2
#     Edge 37, Type (0, 0), BuildingBlock: XUDNAN_clean_linker_2, # of connection points: 2
#     Edge 38, Type (0, 0), BuildingBlock: XUDNAN_clean_linker_2, # of connection points: 2
#     Edge 39, Type (0, 0), BuildingBlock: XUDNAN_clean_linker_2, # of connection points: 2
#     Edge 40, Type (0, 0), BuildingBlock: XUDNAN_clean_linker_2, # of connection points: 2
#     Edge 41, Type (0, 0), BuildingBlock: XUDNAN_clean_linker_2, # of connection points: 2
#     Edge 42, Type (0, 0), BuildingBlock: XUDNAN_clean_linker_2, # of connection points: 2
#     Edge 43, Type (0, 0), BuildingBlock: XUDNAN_clean_linker_2, # of connection points: 2
#     Edge 44, Type (0, 0), BuildingBlock: XUDNAN_clean_linker_2, # of connection points: 2
#     Edge 45, Type (0, 0), BuildingBlock: XUDNAN_clean_linker_2, # of connection points: 2
#     Edge 46, Type (0, 0), BuildingBlock: XUDNAN_clean_linker_2, # of connection points: 2
#     Edge 47, Type (0, 0), BuildingBlock: XUDNAN_clean_linker_2, # of connection points: 2
# Relax obj value: 0.058
# Max RMSD: 0.099
# Mean RMSD: 0.096
data_MOF--net-cag--node1-AZAVOO_clean_sbu_0--edge1-XUDNAN_clean_linker_2
_symmetry_space_group_name_H-M    P1
_symmetry_Int_Tables_number       1
_symmetry_cell_setting            triclinic
loop_
_symmetry_equiv_pos_as_xyz
'x, y, z'
_cell_length_a     45.142585
_cell_length_b     46.510729
_cell_length_c     43.703558
_cell_angle_alpha  90.040916
_cell_angle_beta   90.077529
_cell_angle_gamma 89.80926
loop_
_atom_site_label
_atom_site_type_symbol
_atom_site_fract_x
_atom_site_fract_y
_atom_site_fract_z
_atom_type_partial_charge
Mg0 Mg 0.33255 0.12707 0.09876 0.0
O1 O 0.32659 0.0848 0.07235 0.0
O2 O 0.27972 0.07009 0.07617 0.0
Mg3 Mg 0.25514 0.10257 0.10616 0.0
C4 C 0.30602 0.06696 0.06602 0.0
C5 C 0.40181 0.13029 0.09454 0.0
O6 O 0.39786 0.12808 0.12422 0.0
O7 O 0.30823 0.15209 0.05985 0.0
O8 O 0.26247 0.13597 0.06909 0.0
O9 O 0.34041 0.10323 0.14335 0.0
O10 O 0.29654 0.11704 0.12717 0.0
C11 C 0.28036 0.15178 0.05406 0.0
C12 C 0.31208 0.10428 0.14767 0.0
O13 O 0.3791 0.13153 0.07719 0.0
Mg14 Mg 0.15461 0.87662 0.60686 0.0
O15 O 0.17441 0.91172 0.575 0.0
O16 O 0.22344 0.90818 0.58174 0.0
Mg17 Mg 0.23567 0.87413 0.61708 0.0
C18 C 0.2009 0.91967 0.56886 0.0
C19 C 0.08838 0.86498 0.59805 0.0
O20 O 0.09675 0.84705 0.61965 0.0
O21 O 0.17016 0.84113 0.57323 0.0
O22 O 0.21859 0.83969 0.58429 0.0
O23 O 0.15366 0.90715 0.64746 0.0
O24 O 0.19139 0.8793 0.63524 0.0
C25 C 0.19602 0.83004 0.56997 0.0
C26 C 0.18058 0.89886 0.6526 0.0
O27 O 0.10799 0.88075 0.5856 0.0
Mg28 Mg 0.33889 0.86265 0.86702 0.0
O29 O 0.32964 0.89947 0.90019 0.0
O30 O 0.28097 0.90687 0.90412 0.0
Mg31 Mg 0.25855 0.8753 0.87095 0.0
C32 C 0.30759 0.91284 0.91166 0.0
C33 C 0.40795 0.85048 0.86924 0.0
O34 O 0.40139 0.83576 0.84449 0.0
O35 O 0.3227 0.82968 0.90269 0.0
O36 O 0.27374 0.83722 0.90042 0.0
O37 O 0.33928 0.89307 0.82705 0.0
O38 O 0.29926 0.87105 0.84357 0.0
C39 C 0.29616 0.82322 0.91042 0.0
C40 C 0.31105 0.88875 0.82461 0.0
O41 O 0.38712 0.86248 0.88419 0.0
Mg42 Mg 0.16237 0.11718 0.37257 0.0
O43 O 0.18028 0.08136 0.40482 0.0
O44 O 0.22963 0.08443 0.40142 0.0
Mg45 Mg 0.244 0.11878 0.36736 0.0
C46 C 0.2063 0.07303 0.41259 0.0
C47 C 0.09485 0.12759 0.37743 0.0
O48 O 0.10324 0.1456 0.356 0.0
O49 O 0.17622 0.15199 0.40795 0.0
O50 O 0.22507 0.15294 0.39924 0.0
O51 O 0.16366 0.08759 0.33108 0.0
O52 O 0.20079 0.1145 0.34644 0.0
C53 C 0.20198 0.16278 0.41251 0.0
C54 C 0.19089 0.09554 0.32786 0.0
O55 O 0.11462 0.11263 0.39095 0.0
Mg56 Mg 0.69127 0.86132 0.90393 0.0
O57 O 0.70681 0.90221 0.93011 0.0
O58 O 0.7562 0.90006 0.92707 0.0
Mg59 Mg 0.77261 0.85943 0.90329 0.0
C60 C 0.73245 0.9128 0.93549 0.0
C61 C 0.62524 0.85967 0.88823 0.0
O62 O 0.6363 0.83644 0.8754 0.0
O63 O 0.70396 0.88228 0.85807 0.0
O64 O 0.75316 0.87616 0.85827 0.0
O65 O 0.69291 0.83408 0.94645 0.0
O66 O 0.73049 0.83955 0.91506 0.0
C67 C 0.72926 0.88407 0.84499 0.0
C68 C 0.72024 0.82843 0.93977 0.0
O69 O 0.64288 0.87686 0.90172 0.0
Mg70 Mg 0.81108 0.13894 0.4052 0.0
O71 O 0.7926 0.09772 0.42823 0.0
O72 O 0.74395 0.10556 0.43363 0.0
Mg73 Mg 0.73093 0.14987 0.41593 0.0
C74 C 0.76679 0.08951 0.4365 0.0
C75 C 0.87679 0.13469 0.38739 0.0
O76 O 0.86903 0.16096 0.37967 0.0
O77 O 0.79096 0.12429 0.35886 0.0
O78 O 0.74299 0.13302 0.36843 0.0
O79 O 0.81646 0.16007 0.45111 0.0
O80 O 0.77632 0.16405 0.42271 0.0
C81 C 0.76366 0.12443 0.35066 0.0
C82 C 0.78975 0.16978 0.44787 0.0
O83 O 0.85686 0.11782 0.39746 0.0
Mg84 Mg 0.67939 0.14927 0.07375 0.0
O85 O 0.69775 0.10904 0.04784 0.0
O86 O 0.74689 0.11419 0.0514 0.0
Mg87 Mg 0.76073 0.15521 0.07583 0.0
C88 C 0.72416 0.10013 0.04256 0.0
C89 C 0.61627 0.1311 0.05114 0.0
O90 O 0.62945 0.13721 0.02517 0.0
O91 O 0.69281 0.12923 0.1202 0.0
O92 O 0.74158 0.13752 0.12023 0.0
O93 O 0.68024 0.17673 0.03101 0.0
O94 O 0.71768 0.17256 0.06285 0.0
C95 C 0.71816 0.12861 0.13346 0.0
C96 C 0.7073 0.18314 0.0379 0.0
O97 O 0.6315 0.13175 0.0757 0.0
Mg98 Mg 0.80307 0.85287 0.57474 0.0
O99 O 0.78683 0.89007 0.54334 0.0
O100 O 0.73748 0.88658 0.54216 0.0
Mg101 Mg 0.72157 0.84945 0.57155 0.0
C102 C 0.76146 0.89891 0.53415 0.0
C103 C 0.87062 0.85466 0.58616 0.0
O104 O 0.86263 0.82983 0.59782 0.0
O105 O 0.78817 0.87819 0.6176 0.0
O106 O 0.73897 0.87317 0.61363 0.0
O107 O 0.80274 0.82099 0.53561 0.0
O108 O 0.76473 0.82885 0.56585 0.0
C109 C 0.76186 0.88242 0.62767 0.0
C110 C 0.77556 0.81537 0.54279 0.0
O111 O 0.85061 0.87103 0.57512 0.0
Mg112 Mg 0.83809 0.63077 0.11163 0.0
O113 O 0.82997 0.5937 0.07801 0.0
O114 O 0.78116 0.58817 0.07196 0.0
Mg115 Mg 0.75742 0.62025 0.10343 0.0
C116 C 0.80785 0.58113 0.06568 0.0
C117 C 0.90222 0.60828 0.10345 0.0
O118 O 0.88797 0.58595 0.11439 0.0
O119 O 0.82438 0.66368 0.07459 0.0
O120 O 0.77519 0.65763 0.07502 0.0
O121 O 0.83568 0.60117 0.1527 0.0
O122 O 0.79708 0.62271 0.13196 0.0
C123 C 0.79827 0.67091 0.06588 0.0
C124 C 0.80734 0.60529 0.15211 0.0
O125 O 0.88771 0.63136 0.0985 0.0
Mg126 Mg 0.65967 0.36884 0.60287 0.0
O127 O 0.6754 0.40045 0.56536 0.0
O128 O 0.72485 0.39999 0.56886 0.0
Mg129 Mg 0.7409 0.37292 0.6092 0.0
C130 C 0.70093 0.40848 0.55605 0.0
C131 C 0.59353 0.37375 0.60561 0.0
O132 O 0.60404 0.37715 0.63341 0.0
O133 O 0.67616 0.32941 0.57459 0.0
O134 O 0.72461 0.3323 0.58559 0.0
O135 O 0.65797 0.40443 0.63827 0.0
O136 O 0.69725 0.37776 0.62964 0.0
C137 C 0.70258 0.3192 0.5738 0.0
C138 C 0.68521 0.39837 0.64473 0.0
O139 O 0.61171 0.36816 0.58411 0.0
Mg140 Mg 0.83203 0.37568 0.86619 0.0
O141 O 0.82508 0.41377 0.89852 0.0
O142 O 0.77665 0.42233 0.90357 0.0
Mg143 Mg 0.75218 0.3909 0.87189 0.0
C144 C 0.80359 0.42786 0.91022 0.0
C145 C 0.90056 0.36533 0.8629 0.0
O146 O 0.89251 0.35587 0.83581 0.0
O147 O 0.81563 0.34445 0.90338 0.0
O148 O 0.76681 0.35301 0.90198 0.0
O149 O 0.83282 0.40444 0.8248 0.0
O150 O 0.79226 0.38539 0.84413 0.0
C151 C 0.78912 0.33878 0.91188 0.0
C152 C 0.8043 0.4018 0.8241 0.0
O153 O 0.88066 0.37363 0.88155 0.0
Mg154 Mg 0.65308 0.61665 0.37532 0.0
O155 O 0.67125 0.57756 0.40269 0.0
O156 O 0.72038 0.57896 0.39633 0.0
Mg157 Mg 0.73416 0.61659 0.36631 0.0
C158 C 0.6972 0.56731 0.40747 0.0
C159 C 0.58656 0.62856 0.38557 0.0
O160 O 0.59457 0.64843 0.36591 0.0
O161 O 0.66936 0.64821 0.4128 0.0
O162 O 0.7178 0.64843 0.40218 0.0
O163 O 0.65104 0.59049 0.33171 0.0
O164 O 0.68994 0.61538 0.3461 0.0
C165 C 0.69559 0.65788 0.41723 0.0
C166 C 0.67811 0.59819 0.32663 0.0
O167 O 0.60637 0.61165 0.39607 0.0
Mg168 Mg 0.18079 0.35266 0.90118 0.0
O169 O 0.19769 0.38763 0.93482 0.0
O170 O 0.24556 0.37729 0.94225 0.0
Mg171 Mg 0.25937 0.33719 0.91583 0.0
C172 C 0.22282 0.39306 0.94709 0.0
C173 C 0.11798 0.36291 0.87729 0.0
O174 O 0.1268 0.33968 0.86275 0.0
O175 O 0.2046 0.37474 0.86134 0.0
O176 O 0.25159 0.36186 0.87084 0.0
O177 O 0.16971 0.32226 0.9388 0.0
O178 O 0.21322 0.32339 0.91603 0.0
C179 C 0.23209 0.3743 0.85418 0.0
C180 C 0.19636 0.3122 0.93646 0.0
O181 O 0.13655 0.37613 0.89409 0.0
Mg182 Mg 0.30122 0.63659 0.40899 0.0
O183 O 0.28409 0.59688 0.43627 0.0
O184 O 0.23477 0.60107 0.43537 0.0
Mg185 Mg 0.2197 0.64118 0.41023 0.0
C186 C 0.25826 0.58754 0.44306 0.0
C187 C 0.36867 0.63602 0.39874 0.0
O188 O 0.36028 0.66182 0.38999 0.0
O189 O 0.28701 0.61524 0.3634 0.0
O190 O 0.23778 0.62092 0.36659 0.0
O191 O 0.30048 0.66516 0.45095 0.0
O192 O 0.26288 0.6602 0.41947 0.0
C193 C 0.26086 0.6124 0.35234 0.0
C194 C 0.27344 0.67168 0.44384 0.0
O195 O 0.34888 0.6184 0.40753 0.0
Mg196 Mg 0.18641 0.6362 0.07401 0.0
O197 O 0.20303 0.59422 0.05095 0.0
O198 O 0.25244 0.5962 0.05457 0.0
Mg199 Mg 0.2678 0.6392 0.07415 0.0
C200 C 0.2287 0.58303 0.04709 0.0
C201 C 0.11702 0.6348 0.07326 0.0
O202 O 0.12207 0.66137 0.06456 0.0
O203 O 0.20047 0.6182 0.12097 0.0
O204 O 0.24952 0.62515 0.12054 0.0
O205 O 0.18708 0.6611 0.02957 0.0
O206 O 0.22501 0.65755 0.06097 0.0
C207 C 0.22581 0.61755 0.13419 0.0
C208 C 0.21442 0.6672 0.03568 0.0
O209 O 0.13905 0.61833 0.07864 0.0
Mg210 Mg 0.30956 0.3507 0.57779 0.0
O211 O 0.28979 0.39015 0.55227 0.0
O212 O 0.24074 0.38516 0.55646 0.0
Mg213 Mg 0.22856 0.34426 0.58207 0.0
C214 C 0.26338 0.39906 0.54722 0.0
C215 C 0.37988 0.35957 0.56745 0.0
O216 O 0.35713 0.37267 0.57973 0.0
O217 O 0.2972 0.37098 0.62405 0.0
O218 O 0.24835 0.36345 0.62584 0.0
O219 O 0.30759 0.32329 0.53512 0.0
O220 O 0.27157 0.32646 0.56879 0.0
C221 C 0.27234 0.37245 0.63801 0.0
C222 C 0.28108 0.3161 0.54338 0.0
O223 O 0.35714 0.37178 0.57921 0.0
H224 H 0.30204 0.20283 0.02901 0.0
H225 H 0.22728 0.14418 0.02659 0.0
H226 H 0.199 0.17876 -0.00391 0.0
H227 H 0.26154 0.26666 0.03623 0.0
H228 H 0.28366 0.28824 0.01082 0.0
H229 H 0.30013 0.25815 0.03048 0.0
H230 H 0.31696 0.23624 0.97886 0.0
H231 H 0.301 0.26655 0.95904 0.0
H232 H 0.29006 0.23052 0.94896 0.0
H233 H 0.17575 0.22118 0.97351 0.0
H234 H 0.16148 0.26716 0.94977 0.0
H235 H 0.25135 0.2984 0.96084 0.0
C236 C 0.28006 0.19701 0.02129 0.0
C237 C 0.26683 0.17086 0.03063 0.0
C238 C 0.23786 0.16417 0.02022 0.0
C239 C 0.2215 0.18369 0.00282 0.0
C240 C 0.23448 0.20973 -0.0047 0.0
C241 C 0.26332 0.21628 0.0033 0.0
C242 C 0.27133 0.24625 -0.00788 0.0
C243 C 0.27965 0.26598 0.01902 0.0
C244 C 0.29632 0.2448 0.96832 0.0
C245 C 0.2422 0.25554 0.97754 0.0
C246 C 0.22127 0.2341 0.9801 0.0
C247 C 0.19206 0.23797 0.97069 0.0
C248 C 0.18409 0.26425 0.95755 0.0
C249 C 0.20533 0.28615 0.95335 0.0
C250 C 0.2348 0.28179 0.96349 0.0
H251 H 0.29167 0.70538 0.492 0.0
H252 H 0.21474 0.68563 0.43628 0.0
H253 H 0.18575 0.72209 0.46392 0.0
H254 H 0.25217 0.72097 0.56322 0.0
H255 H 0.2763 0.75037 0.57307 0.0
H256 H 0.29022 0.72071 0.55073 0.0
H257 H 0.30696 0.75626 0.50855 0.0
H258 H 0.29291 0.78598 0.53066 0.0
H259 H 0.28025 0.78059 0.49195 0.0
H260 H 0.16541 0.76277 0.49629 0.0
H261 H 0.15619 0.80445 0.53038 0.0
H262 H 0.24689 0.79854 0.5632 0.0
C263 C 0.26858 0.70831 0.486 0.0
C264 C 0.25544 0.69209 0.46228 0.0
C265 C 0.2253 0.6972 0.45469 0.0
C266 C 0.20858 0.71806 0.47022 0.0
C267 C 0.22229 0.73391 0.49319 0.0
C268 C 0.25163 0.72931 0.50104 0.0
C269 C 0.2616 0.75041 0.5253 0.0
C270 C 0.27059 0.73467 0.55483 0.0
C271 C 0.28692 0.76943 0.51339 0.0
C272 C 0.23338 0.76763 0.52969 0.0
C273 C 0.21086 0.75774 0.51114 0.0
C274 C 0.18288 0.77066 0.51103 0.0
C275 C 0.17783 0.79433 0.53043 0.0
C276 C 0.20074 0.80493 0.54947 0.0
C277 C 0.22879 0.79117 0.54895 0.0
H278 H 0.2423 0.80031 0.92544 0.0
H279 H 0.33676 0.78838 0.93998 0.0
H280 H 0.32625 0.74535 0.97146 0.0
H281 H 0.21886 0.77978 0.00015 0.0
H282 H 0.18589 0.762 0.98673 0.0
H283 H 0.20114 0.79147 0.9653 0.0
H284 H 0.20388 0.75909 0.91709 0.0
H285 H 0.18887 0.72942 0.93846 0.0
H286 H 0.22376 0.72545 0.91886 0.0
H287 H 0.30497 0.70433 0.00253 0.0
H288 H 0.27503 0.66944 0.03132 0.0
H289 H 0.19463 0.70772 -0.00498 0.0
C290 C 0.26092 0.7888 0.93524 0.0
C291 C 0.29044 0.79789 0.93025 0.0
C292 C 0.31398 0.78194 0.94348 0.0
C293 C 0.30822 0.75742 0.96131 0.0
C294 C 0.27883 0.74904 0.96551 0.0
C295 C 0.2556 0.76429 0.95283 0.0
C296 C 0.22599 0.75109 0.96095 0.0
C297 C 0.20685 0.77235 0.97938 0.0
C298 C 0.20967 0.74064 0.93212 0.0
C299 C 0.2361 0.72607 0.9805 0.0
C300 C 0.26665 0.72524 0.98283 0.0
C301 C 0.28106 0.70474 0.00071 0.0
C302 C 0.2638 0.685 0.01709 0.0
C303 C 0.23245 0.68574 0.01543 0.0
C304 C 0.21855 0.70627 -0.00361 0.0
H305 H 0.29677 0.2865 0.49143 0.0
H306 H 0.22365 0.29973 0.55428 0.0
H307 H 0.1939 0.26442 0.52583 0.0
H308 H 0.25238 0.27487 0.42227 0.0
H309 H 0.27684 0.2472 0.40814 0.0
H310 H 0.29124 0.27569 0.43175 0.0
H311 H 0.31268 0.23794 0.46945 0.0
H312 H 0.29825 0.20938 0.44604 0.0
H313 H 0.28837 0.21147 0.48593 0.0
H314 H 0.1727 0.22522 0.49159 0.0
H315 H 0.16316 0.18503 0.45554 0.0
H316 H 0.25081 0.19689 0.41683 0.0
C317 C 0.27432 0.2824 0.49889 0.0
C318 C 0.26247 0.29639 0.52484 0.0
C319 C 0.23317 0.28982 0.53419 0.0
C320 C 0.21603 0.26965 0.51819 0.0
C321 C 0.2285 0.256 0.49293 0.0
C322 C 0.257 0.2621 0.48337 0.0
C323 C 0.26595 0.2432 0.45676 0.0
C324 C 0.27194 0.26133 0.42803 0.0
C325 C 0.2929 0.22438 0.46506 0.0
C326 C 0.23821 0.2253 0.45311 0.0
C327 C 0.21667 0.2331 0.47392 0.0
C328 C 0.18938 0.21902 0.47508 0.0
C329 C 0.18412 0.19624 0.45454 0.0
C330 C 0.2062 0.18763 0.43342 0.0
C331 C 0.23341 0.2027 0.43273 0.0
H332 H 0.74629 0.69922 0.05534 0.0
H333 H 0.8396 0.70037 0.03138 0.0
H334 H 0.83046 0.74275 -0.0018 0.0
H335 H 0.71777 0.71793 0.98249 0.0
H336 H 0.68822 0.73981 -0.00232 0.0
H337 H 0.70259 0.71022 0.01971 0.0
H338 H 0.71341 0.74483 0.06486 0.0
H339 H 0.69921 0.77459 0.04289 0.0
H340 H 0.73613 0.77607 0.05856 0.0
H341 H 0.80989 0.7836 0.96548 0.0
H342 H 0.78047 0.81941 0.93699 0.0
H343 H 0.70125 0.79216 0.98482 0.0
C344 C 0.76494 0.70824 0.04313 0.0
C345 C 0.79369 0.69628 0.04582 0.0
C346 C 0.81739 0.7091 0.02965 0.0
C347 C 0.81239 0.73318 0.0108 0.0
C348 C 0.78367 0.74432 0.00873 0.0
C349 C 0.76042 0.73228 0.02464 0.0
C350 C 0.73158 0.74795 0.01852 0.0
C351 C 0.7087 0.72778 0.00371 0.0
C352 C 0.71938 0.76168 0.04796 0.0
C353 C 0.74203 0.77057 -0.00376 0.0
C354 C 0.77213 0.76816 -0.00916 0.0
C355 C 0.78641 0.78585 0.96986 0.0
C356 C 0.76945 0.80622 0.95378 0.0
C357 C 0.73855 0.80894 0.95889 0.0
C358 C 0.72489 0.79104 0.98075 0.0
H359 H 0.74585 0.21001 0.44143 0.0
H360 H 0.80056 0.16726 0.50931 0.0
H361 H 0.77713 0.19642 0.54999 0.0
H362 H 0.75319 0.27866 0.47286 0.0
H363 H 0.71617 0.29058 0.46384 0.0
H364 H 0.73363 0.26335 0.44079 0.0
H365 H 0.68945 0.22921 0.45074 0.0
H366 H 0.67191 0.25636 0.47403 0.0
H367 H 0.67887 0.22107 0.48953 0.0
H368 H 0.7516 0.2324 0.5823 0.0
H369 H 0.72955 0.27639 0.60401 0.0
H370 H 0.69226 0.29809 0.51554 0.0
C371 C 0.75236 0.20637 0.46497 0.0
C372 C 0.77472 0.18613 0.47238 0.0
C373 C 0.78337 0.18254 0.50324 0.0
C374 C 0.77003 0.19886 0.52647 0.0
C375 C 0.74826 0.21884 0.51842 0.0
C376 C 0.73965 0.22291 0.48839 0.0
C377 C 0.71835 0.24815 0.48556 0.0
C378 C 0.73111 0.27156 0.46453 0.0
C379 C 0.68783 0.23809 0.4743 0.0
C380 C 0.71696 0.25816 0.51859 0.0
C381 C 0.73391 0.24044 0.53716 0.0
C382 C 0.73794 0.24616 0.56811 0.0
C383 C 0.72527 0.27115 0.58024 0.0
C384 C 0.70882 0.29026 0.56154 0.0
C385 C 0.70393 0.28333 0.53048 0.0
H386 H 0.73518 0.31667 0.92793 0.0
H387 H 0.82965 0.30434 0.94198 0.0
H388 H 0.81909 0.26194 0.97435 0.0
H389 H 0.71194 0.29692 0.00336 0.0
H390 H 0.67886 0.27914 -0.00978 0.0
H391 H 0.69409 0.30845 0.96851 0.0
H392 H 0.69652 0.27579 0.9205 0.0
H393 H 0.68153 0.24629 0.94213 0.0
H394 H 0.71633 0.24211 0.92241 0.0
H395 H 0.79783 0.22123 0.0058 0.0
H396 H 0.76797 0.18605 0.03419 0.0
H397 H 0.6875 0.22444 -0.00182 0.0
C398 C 0.75377 0.30524 0.93787 0.0
C399 C 0.78332 0.314 0.93244 0.0
C400 C 0.80685 0.29815 0.94582 0.0
C401 C 0.80106 0.274 0.96418 0.0
C402 C 0.77165 0.26589 0.96876 0.0
C403 C 0.74842 0.28107 0.95598 0.0
C404 C 0.71881 0.26799 0.96431 0.0
C405 C 0.69981 0.2894 0.9827 0.0
C406 C 0.70234 0.25742 0.93562 0.0
C407 C 0.72893 0.24307 0.98399 0.0
C408 C 0.75948 0.24225 0.98631 0.0
C409 C 0.77392 0.22168 0.00406 0.0
C410 C 0.7567 0.20178 0.02024 0.0
C411 C 0.72535 0.20242 0.01849 0.0
C412 C 0.71142 0.22313 -0.00031 0.0
H413 H 0.79282 0.78115 0.49459 0.0
H414 H 0.71776 0.80027 0.55322 0.0
H415 H 0.68848 0.76311 0.52701 0.0
H416 H 0.75085 0.7656 0.42545 0.0
H417 H 0.77504 0.73657 0.41418 0.0
H418 H 0.78938 0.76608 0.43635 0.0
H419 H 0.80844 0.73018 0.47729 0.0
H420 H 0.79398 0.7006 0.45535 0.0
H421 H 0.78285 0.70539 0.49463 0.0
H422 H 0.6674 0.72247 0.49477 0.0
H423 H 0.65716 0.68183 0.45957 0.0
H424 H 0.74669 0.68853 0.42404 0.0
C425 C 0.7701 0.77782 0.50166 0.0
C426 C 0.75752 0.7941 0.52566 0.0
C427 C 0.72784 0.7886 0.53453 0.0
C428 C 0.71099 0.76735 0.51986 0.0
C429 C 0.72413 0.75153 0.49647 0.0
C430 C 0.75304 0.75649 0.48745 0.0
C431 C 0.76234 0.73578 0.46252 0.0
C432 C 0.76983 0.75198 0.43287 0.0
C433 C 0.78844 0.71687 0.47309 0.0
C434 C 0.73425 0.71837 0.45906 0.0
C435 C 0.71234 0.72779 0.47866 0.0
C436 C 0.68443 0.71489 0.47931 0.0
C437 C 0.6788 0.69181 0.45928 0.0
C438 C 0.70108 0.68176 0.43911 0.0
C439 C 0.72911 0.69537 0.43925 0.0
H440 H 0.26622 0.03133 0.03734 0.0
H441 H 0.3604 0.04848 0.04597 0.0
H442 H 0.37095 0.0104 0.00814 0.0
H443 H 0.27215 0.95384 0.0279 0.0
H444 H 0.24253 0.95228 0.00026 0.0
H445 H 0.24252 0.9799 0.02917 0.0
H446 H 0.239 0.01888 0.98698 0.0
H447 H 0.23919 0.99141 0.95793 0.0
H448 H 0.26641 0.01966 0.95703 0.0
H449 H 0.37122 0.97145 0.96842 0.0
H450 H 0.36136 0.93418 0.92968 0.0
H451 H 0.26684 0.94299 0.94613 0.0
C452 C 0.28911 0.02687 0.03161 0.0
C453 C 0.3125 0.04286 0.0448 0.0
C454 C 0.3421 0.03654 0.03626 0.0
C455 C 0.34833 0.01493 0.01479 0.0
C456 C 0.32473 -0.00012 0.00197 0.0
C457 C 0.29572 0.00552 0.01007 0.0
C458 C 0.27439 0.98685 -0.00784 0.0
C459 C 0.25687 0.96704 0.01366 0.0
C460 C 0.25352 0.00531 0.97235 0.0
C461 C 0.29594 0.9699 0.97261 0.0
C462 C 0.32486 0.97768 0.97873 0.0
C463 C 0.34867 0.96512 0.96348 0.0
C464 C 0.34279 0.94396 0.94146 0.0
C465 C 0.31329 0.93559 0.93474 0.0
C466 C 0.28963 0.94888 0.9506 0.0
H467 H 0.16004 0.95148 0.5349 0.0
H468 H 0.25453 0.94007 0.55058 0.0
H469 H 0.26514 0.97724 0.51255 0.0
H470 H 0.16517 0.96354 0.45323 0.0
H471 H 0.13662 0.99071 0.45226 0.0
H472 H 0.13568 0.96296 0.481 0.0
H473 H 0.13415 0.00171 0.52355 0.0
H474 H 0.13503 0.02957 0.49494 0.0
H475 H 0.16256 0.02884 0.52485 0.0
H476 H 0.26652 0.01471 0.47326 0.0
H477 H 0.25857 0.05211 0.43468 0.0
H478 H 0.16325 0.04125 0.44306 0.0
C479 C 0.18294 0.95683 0.53034 0.0
C480 C 0.2064 0.94265 0.5459 0.0
C481 C 0.23606 0.95042 0.53916 0.0
C482 C 0.24241 0.97157 0.5175 0.0
C483 C 0.21894 0.98499 0.5026 0.0
C484 C 0.18979 0.97813 0.50864 0.0
C485 C 0.16897 0.99627 0.48914 0.0
C486 C 0.15052 0.97723 0.46763 0.0
C487 C 0.149 0.01523 0.50933 0.0
C488 C 0.19111 0.01429 0.47135 0.0
C489 C 0.21975 0.00721 0.47959 0.0
C490 C 0.24419 0.02053 0.46658 0.0
C491 C 0.23936 0.04181 0.44458 0.0
C492 C 0.21024 0.04982 0.43566 0.0
C493 C 0.18577 0.03572 0.4493 0.0
H494 H 0.68847 0.94851 0.95987 0.0
H495 H 0.78377 0.94128 0.94705 0.0
H496 H 0.79065 0.98777 0.97212 0.0
H497 H 0.68376 0.02542 0.94676 0.0
H498 H 0.65629 0.03181 0.9759 0.0
H499 H 0.65792 -0.0025 0.95677 0.0
H500 H 0.66299 0.97181 0.00905 0.0
H501 H 0.66131 0.00603 0.02834 0.0
H502 H 0.69225 0.9822 0.03487 0.0
H503 H 0.78851 0.03415 -0.00233 0.0
H504 H 0.77752 0.07912 0.02426 0.0
H505 H 0.68348 0.05893 0.02244 0.0
C506 C 0.71075 0.95673 0.96238 0.0
C507 C 0.73554 0.94098 0.95135 0.0
C508 C 0.76433 0.95262 0.95519 0.0
C509 C 0.76856 0.97916 0.96942 0.0
C510 C 0.74387 0.99407 0.9799 0.0
C511 C 0.7155 0.98345 0.97676 0.0
C512 C 0.69308 0.00429 -0.00943 0.0
C513 C 0.67149 0.01541 0.96603 0.0
C514 C 0.67643 0.99024 0.0173 0.0
C515 C 0.71346 0.02812 0.0018 0.0
C516 C 0.74261 0.02151 -0.00479 0.0
C517 C 0.76579 0.03963 0.00305 0.0
C518 C 0.7592 0.06524 0.01825 0.0
C519 C 0.72957 0.07279 0.02567 0.0
C520 C 0.70633 0.0539 0.01714 0.0
H521 H 0.80712 0.05274 0.4647 0.0
H522 H 0.71582 0.05902 0.43375 0.0
H523 H 0.70645 0.01003 0.45206 0.0
H524 H 0.81763 0.97616 0.44717 0.0
H525 H 0.83916 0.96907 0.48112 0.0
H526 H 0.83991 0.00423 0.46381 0.0
H527 H 0.82391 0.02718 0.51523 0.0
H528 H 0.82322 0.99213 0.53269 0.0
H529 H 0.79072 0.01472 0.53382 0.0
H530 H 0.70575 0.96175 0.47429 0.0
H531 H 0.71276 0.91681 0.50271 0.0
H532 H 0.8041 0.94031 0.52166 0.0
C533 C 0.78528 0.04364 0.46158 0.0
C534 C 0.76221 0.05979 0.44775 0.0
C535 C 0.73381 0.04724 0.44443 0.0
C536 C 0.72827 0.0193 0.45457 0.0
C537 C 0.75128 0.00405 0.46822 0.0
C538 C 0.77917 0.01567 0.47203 0.0
C539 C 0.79927 0.99484 0.48916 0.0
C540 C 0.82555 0.98553 0.46911 0.0
C541 C 0.8099 0.00801 0.51953 0.0
C542 C 0.77809 0.96999 0.49459 0.0
C543 C 0.75069 0.97583 0.4819 0.0
C544 C 0.72711 0.95683 0.4843 0.0
C545 C 0.73136 0.93132 0.5006 0.0
C546 C 0.75897 0.92492 0.51458 0.0
C547 C 0.78281 0.94442 0.51107 0.0
H548 H 0.76409 0.46151 0.9424 0.0
H549 H 0.85825 0.44621 0.92936 0.0
H550 H 0.86949 0.48349 0.96772 0.0
H551 H 0.76886 0.53834 0.95202 0.0
H552 H 0.74038 0.53973 0.98085 0.0
H553 H 0.7397 0.51195 0.95213 0.0
H554 H 0.73875 0.47312 -0.00538 0.0
H555 H 0.73951 0.50077 0.02347 0.0
H556 H 0.76733 0.47289 0.02347 0.0
H557 H 0.87062 0.52216 0.00786 0.0
H558 H 0.8615 0.55993 0.04638 0.0
H559 H 0.76664 0.54994 0.0333 0.0
C560 C 0.7871 0.46602 0.94748 0.0
C561 C 0.81026 0.45085 0.93275 0.0
C562 C 0.84006 0.45747 0.94024 0.0
C563 C 0.84671 0.47863 0.96204 0.0
C564 C 0.82336 0.49302 0.9762 0.0
C565 C 0.79416 0.48705 0.96921 0.0
C566 C 0.77321 0.50557 0.98784 0.0
C567 C 0.75444 0.52505 0.96696 0.0
C568 C 0.75355 0.48697 0.00858 0.0
C569 C 0.79521 0.52287 0.0064 0.0
C570 C 0.82401 0.51529 -0.00064 0.0
C571 C 0.84815 0.52831 0.01355 0.0
C572 C 0.84272 0.54975 0.03544 0.0
C573 C 0.81334 0.558 0.04295 0.0
C574 C 0.78936 0.5442 0.02818 0.0
H575 H 0.6594 0.44732 0.5339 0.0
H576 H 0.74875 0.41528 0.51917 0.0
H577 H 0.75572 0.4505 0.47795 0.0
H578 H 0.64266 0.46348 0.45284 0.0
H579 H 0.62254 0.49594 0.46183 0.0
H580 H 0.62322 0.46656 0.48871 0.0
H581 H 0.6433 0.50077 0.53061 0.0
H582 H 0.6428 0.53019 0.50385 0.0
H583 H 0.67664 0.52091 0.52349 0.0
H584 H 0.75492 0.4904 0.4412 0.0
H585 H 0.7463 0.53332 0.40981 0.0
H586 H 0.65743 0.54119 0.44712 0.0
C587 C 0.6802 0.44743 0.52159 0.0
C588 C 0.70352 0.42846 0.52977 0.0
C589 C 0.7306 0.42961 0.51346 0.0
C590 C 0.73477 0.44949 0.4899 0.0
C591 C 0.71168 0.4682 0.4828 0.0
C592 C 0.68487 0.46742 0.49799 0.0
C593 C 0.66443 0.49119 0.48662 0.0
C594 C 0.63656 0.47853 0.4716 0.0
C595 C 0.65632 0.51199 0.5127 0.0
C596 C 0.68419 0.50559 0.46308 0.0
C597 C 0.71125 0.49173 0.46127 0.0
C598 C 0.73375 0.50135 0.4422 0.0
C599 C 0.72862 0.5259 0.42453 0.0
C600 C 0.70117 0.54076 0.42592 0.0
C601 C 0.67855 0.53022 0.44533 0.0
H602 H 0.18799 0.55103 0.01369 0.0
H603 H 0.27604 0.5474 0.05386 0.0
H604 H 0.28211 0.49796 0.03518 0.0
H605 H 0.16802 0.47622 0.02843 0.0
H606 H 0.14914 0.47161 -0.00761 0.0
H607 H 0.15053 0.50658 0.01011 0.0
H608 H 0.17366 0.52784 0.96092 0.0
H609 H 0.17223 0.49298 0.94303 0.0
H610 H 0.20692 0.51193 0.9455 0.0
H611 H 0.2798 0.44989 0.01212 0.0
H612 H 0.27044 0.40584 0.98285 0.0
H613 H 0.1843 0.43919 0.9555 0.0
C614 C 0.20844 0.53972 0.01868 0.0
C615 C 0.23154 0.55321 0.03529 0.0
C616 C 0.25808 0.53774 0.04106 0.0
C617 C 0.26171 0.50951 0.03071 0.0
C618 C 0.2387 0.49691 0.01439 0.0
C619 C 0.21264 0.51142 0.00814 0.0
C620 C 0.19214 0.49294 -0.01124 0.0
C621 C 0.16324 0.48646 0.00596 0.0
C622 C 0.18588 0.50728 0.95771 0.0
C623 C 0.21095 0.46598 0.98504 0.0
C624 C 0.23757 0.46883 0.00034 0.0
C625 C 0.25903 0.44733 4e-05 0.0
C626 C 0.25346 0.42234 0.98325 0.0
C627 C 0.22664 0.41892 0.96671 0.0
C628 C 0.20493 0.44099 0.96801 0.0
H629 H 0.30146 0.55095 0.4674 0.0
H630 H 0.20632 0.56015 0.45449 0.0
H631 H 0.1985 0.51339 0.4786 0.0
H632 H 0.30502 0.4745 0.45293 0.0
H633 H 0.33221 0.46718 0.48218 0.0
H634 H 0.33122 0.50185 0.46382 0.0
H635 H 0.32618 0.52668 0.5166 0.0
H636 H 0.32727 0.49209 0.53513 0.0
H637 H 0.29663 0.51619 0.54192 0.0
H638 H 0.19982 0.46621 0.50286 0.0
H639 H 0.21019 0.42058 0.52867 0.0
H640 H 0.30442 0.43985 0.52789 0.0
C641 C 0.27901 0.54314 0.46974 0.0
C642 C 0.25455 0.55948 0.45892 0.0
C643 C 0.22552 0.54836 0.46254 0.0
C644 C 0.22076 0.52166 0.47619 0.0
C645 C 0.24515 0.50612 0.48638 0.0
C646 C 0.27372 0.51633 0.48362 0.0
C647 C 0.29574 0.49495 0.49712 0.0
C648 C 0.31732 0.48397 0.47254 0.0
C649 C 0.31244 0.50828 0.52431 0.0
C650 C 0.27493 0.47125 0.50763 0.0
C651 C 0.24591 0.47835 0.50102 0.0
C652 C 0.22245 0.46035 0.50828 0.0
C653 C 0.22865 0.43439 0.52302 0.0
C654 C 0.25815 0.42645 0.53051 0.0
C655 C 0.28164 0.44518 0.52247 0.0
H656 H 0.57929 0.12847 0.10149 0.0
H657 H 0.57889 0.12599 0.00218 0.0
H658 H 0.52429 0.12484 0.00237 0.0
H659 H 0.51529 0.08113 0.11252 0.0
H660 H 0.50167 0.10134 0.14481 0.0
H661 H 0.54081 0.10023 0.13687 0.0
H662 H 0.5419 0.1559 0.13541 0.0
H663 H 0.50274 0.15718 0.14304 0.0
H664 H 0.51745 0.17486 0.1097 0.0
H665 H 0.46934 0.12677 0.01315 0.0
H666 H 0.41849 0.12913 0.03402 0.0
H667 H 0.45449 0.13022 0.12618 0.0
C668 C 0.56776 0.1272 0.07979 0.0
C669 C 0.58354 0.12725 0.05181 0.0
C670 C 0.56744 0.12593 0.02394 0.0
C671 C 0.53635 0.12531 0.02379 0.0
C672 C 0.52148 0.12594 0.05169 0.0
C673 C 0.53663 0.12661 0.0792 0.0
C674 C 0.51527 0.12788 0.10594 0.0
C675 C 0.51845 0.10105 0.12623 0.0
C676 C 0.51961 0.15561 0.12461 0.0
C677 C 0.48581 0.12812 0.08916 0.0
C678 C 0.48986 0.12698 0.05787 0.0
C679 C 0.46591 0.12749 0.03764 0.0
C680 C 0.43708 0.12894 0.04971 0.0
C681 C 0.43236 0.12984 0.08174 0.0
C682 C 0.45721 0.12949 0.10158 0.0
H683 H 0.91714 0.82602 0.61249 0.0
H684 H 0.89665 0.90012 0.55593 0.0
H685 H 0.95028 0.91058 0.55144 0.0
H686 H 0.97771 0.85808 0.6537 0.0
H687 H -0.00122 0.82512 0.65515 0.0
H688 H 0.95894 0.82392 0.65367 0.0
H689 H 0.96175 0.79143 0.60554 0.0
H690 H 0.00159 0.79272 0.60673 0.0
H691 H 0.98214 0.80352 0.57255 0.0
H692 H 0.00724 0.91194 0.55251 0.0
H693 H 0.06112 0.90574 0.56161 0.0
H694 H 0.04297 0.83105 0.61789 0.0
C695 C 0.92381 0.84454 0.59919 0.0
C696 C 0.90259 0.86222 0.58451 0.0
C697 C 0.91244 0.88628 0.56746 0.0
C698 C 0.94288 0.89232 0.56469 0.0
C699 C 0.96322 0.87419 0.57922 0.0
C700 C 0.95397 0.85092 0.59633 0.0
C701 C 0.98 0.83485 0.61005 0.0
C702 C 0.97878 0.83555 0.64522 0.0
C703 C 0.98145 0.80379 0.59798 0.0
C704 C 0.00546 0.85262 0.598 0.0
C705 C 0.99548 0.87516 0.58013 0.0
C706 C 0.01521 0.89437 0.56654 0.0
C707 C 0.0458 0.89062 0.57173 0.0
C708 C 0.05637 0.86793 0.59048 0.0
C709 C 0.03574 0.84866 0.60347 0.0
H710 H 0.45717 0.8225 0.84727 0.0
H711 H 0.43003 0.88975 0.91027 0.0
H712 H 0.48261 0.90021 0.92152 0.0
H713 H 0.51963 0.79724 0.89247 0.0
H714 H 0.54207 0.78965 0.85933 0.0
H715 H 0.50232 0.7874 0.85679 0.0
H716 H 0.50277 0.82339 0.81155 0.0
H717 H 0.54249 0.82596 0.81414 0.0
H718 H 0.52002 0.858 0.81645 0.0
H719 H 0.53881 0.90462 0.92412 0.0
H720 H 0.59339 0.89991 0.92089 0.0
H721 H 0.58313 0.82902 0.85716 0.0
C722 C 0.46223 0.83932 0.86358 0.0
C723 C 0.43941 0.85533 0.87783 0.0
C724 C 0.44708 0.87709 0.89913 0.0
C725 C 0.47691 0.88329 0.90558 0.0
C726 C 0.49886 0.86737 0.89077 0.0
C727 C 0.49184 0.8456 0.87049 0.0
C728 C 0.5195 0.83141 0.85788 0.0
C729 C 0.52096 0.79954 0.86719 0.0
C730 C 0.52129 0.83492 0.82294 0.0
C731 C 0.54322 0.8488 0.87392 0.0
C732 C 0.53094 0.86953 0.89272 0.0
C733 C 0.54863 0.88835 0.90958 0.0
C734 C 0.57962 0.88561 0.9075 0.0
C735 C 0.59262 0.86409 0.88882 0.0
C736 C 0.57399 0.84567 0.87172 0.0
H737 H 0.04878 0.16084 0.35699 0.0
H738 H 0.068 0.08518 0.41162 0.0
H739 H 0.01417 0.07732 0.41877 0.0
H740 H 0.98678 0.18563 0.40165 0.0
H741 H 0.9666 0.19846 0.36874 0.0
H742 H 0.00646 0.19767 0.36818 0.0
H743 H 0.0051 0.16679 0.31881 0.0
H744 H 0.96521 0.16725 0.31939 0.0
H745 H 0.98485 0.13345 0.31865 0.0
H746 H 0.9572 0.0774 0.41854 0.0
H747 H 0.90341 0.08766 0.41454 0.0
H748 H 0.92265 0.16376 0.36085 0.0
C749 C 0.04177 0.14263 0.37057 0.0
C750 C 0.06272 0.12358 0.3837 0.0
C751 C 0.05244 0.10012 0.40141 0.0
C752 C 0.02187 0.09542 0.40546 0.0
C753 C 0.00183 0.11444 0.39181 0.0
C754 C 0.01148 0.13775 0.37498 0.0
C755 C 0.98567 0.15541 0.36309 0.0
C756 C 0.98643 0.1861 0.37621 0.0
C757 C 0.98519 0.15573 0.3279 0.0
C758 C 0.95989 0.13847 0.37581 0.0
C759 C 0.96953 0.11476 0.39212 0.0
C760 C 0.9495 0.09596 0.40587 0.0
C761 C 0.91895 0.10187 0.40335 0.0
C762 C 0.90871 0.12652 0.38741 0.0
C763 C 0.92963 0.14475 0.37324 0.0
H764 H 0.06534 0.66512 0.06384 0.0
H765 H 0.09852 0.58181 0.0931 0.0
H766 H 0.04718 0.56572 0.10217 0.0
H767 H 0.00735 0.671 0.11844 0.0
H768 H 0.98146 0.68787 0.09259 0.0
H769 H 0.02066 0.69247 0.08703 0.0
H770 H 0.01589 0.67312 0.03165 0.0
H771 H 0.97662 0.66849 0.03703 0.0
H772 H -0.00079 0.63848 0.02516 0.0
H773 H 0.99245 0.55912 0.10946 0.0
H774 H 0.93829 0.56234 0.115 0.0
H775 H 0.94016 0.65015 0.08134 0.0
C776 C 0.06186 0.64341 0.07197 0.0
C777 C 0.08609 0.62471 0.07772 0.0
C778 C 0.08043 0.59652 0.08845 0.0
C779 C 0.05131 0.58718 0.09366 0.0
C780 C 0.02801 0.60622 0.08794 0.0
C781 C 0.03292 0.63372 0.07727 0.0
C782 C 0.00397 0.6501 0.07357 0.0
C783 C 0.00333 0.67694 0.09414 0.0
C784 C -0.00138 0.65801 0.03985 0.0
C785 C 0.98202 0.62768 0.08436 0.0
C786 C 0.99639 0.60246 0.0923 0.0
C787 C 0.98098 0.57872 0.10321 0.0
C788 C 0.95012 0.5808 0.10627 0.0
C789 C 0.93481 0.6065 0.09862 0.0
C790 C 0.95111 0.63018 0.08734 0.0
H791 H 0.55689 0.34867 0.56199 0.0
H792 H 0.55745 0.40855 0.63819 0.0
H793 H 0.50349 0.41452 0.63368 0.0
H794 H 0.49597 0.38376 0.51832 0.0
H795 H 0.48007 0.35003 0.50652 0.0
H796 H 0.51939 0.35268 0.51313 0.0
H797 H 0.51656 0.31067 0.55187 0.0
H798 H 0.47728 0.30792 0.5454 0.0
H799 H 0.49126 0.31309 0.58367 0.0
H800 H 0.4496 0.41239 0.62345 0.0
H801 H 0.39825 0.40026 0.60959 0.0
H802 H 0.43069 0.34011 0.54131 0.0
C803 C 0.54564 0.36346 0.57723 0.0
C804 C 0.56142 0.37833 0.6003 0.0
C805 C 0.54586 0.39696 0.62033 0.0
C806 C 0.51518 0.40062 0.61789 0.0
C807 C 0.50014 0.38537 0.59537 0.0
C808 C 0.51469 0.36707 0.5754 0.0
C809 C 0.49264 0.35166 0.55488 0.0
C810 C 0.4973 0.36004 0.52121 0.0
C811 C 0.49456 0.31889 0.55923 0.0
C812 C 0.46357 0.36367 0.56702 0.0
C813 C 0.46856 0.38348 0.58999 0.0
C814 C 0.44536 0.39708 0.60532 0.0
C815 C 0.41621 0.39005 0.59724 0.0
C816 C 0.41045 0.36931 0.5742 0.0
C817 C 0.4345 0.3562 0.5588 0.0
H818 H 0.07446 0.34264 0.83939 0.0
H819 H 0.08894 0.39936 0.91683 0.0
H820 H 0.03479 0.40644 0.92161 0.0
H821 H 0.01148 0.38238 0.8071 0.0
H822 H 0.99293 0.35001 0.7951 0.0
H823 H 0.03278 0.35094 0.79696 0.0
H824 H 0.03231 0.30655 0.83276 0.0
H825 H 0.99247 0.30572 0.83136 0.0
H826 H 0.0112 0.30788 0.86773 0.0
H827 H 0.97854 0.40393 0.92042 0.0
H828 H 0.92528 0.39613 0.91005 0.0
H829 H 0.9481 0.34218 0.83246 0.0
C830 C 0.06632 0.35692 0.85709 0.0
C831 C 0.08599 0.37045 0.87774 0.0
C832 C 0.07435 0.38891 0.90061 0.0
C833 C 0.0436 0.39293 0.9036 0.0
C834 C 0.02481 0.37862 0.88336 0.0
C835 C 0.03578 0.36136 0.86023 0.0
C836 C 0.01096 0.34815 0.84161 0.0
C837 C 0.01211 0.3585 0.80822 0.0
C838 C 0.0118 0.31512 0.8435 0.0
C839 C 0.98425 0.3603 0.85813 0.0
C840 C 0.99264 0.37772 0.88224 0.0
C841 C 0.97175 0.39057 0.9014 0.0
C842 C 0.94154 0.38587 0.89544 0.0
C843 C 0.93247 0.36862 0.87039 0.0
C844 C 0.95425 0.35562 0.85168 0.0
H845 H 0.54064 0.66439 0.37046 0.0
H846 H 0.56001 0.58408 0.41692 0.0
H847 H 0.50629 0.57665 0.42539 0.0
H848 H 0.4798 0.68626 0.41931 0.0
H849 H 0.45915 0.70198 0.38816 0.0
H850 H 0.49901 0.70092 0.38674 0.0
H851 H 0.49648 0.67435 0.33466 0.0
H852 H 0.45663 0.6751 0.33604 0.0
H853 H 0.47586 0.64132 0.33172 0.0
H854 H 0.44933 0.57743 0.42662 0.0
H855 H 0.39551 0.5878 0.42326 0.0
H856 H 0.41472 0.66787 0.37655 0.0
C857 C 0.53371 0.6453 0.38263 0.0
C858 C 0.55464 0.6248 0.393 0.0
C859 C 0.54446 0.60015 0.40885 0.0
C860 C 0.51395 0.59571 0.41367 0.0
C861 C 0.4939 0.61619 0.40267 0.0
C862 C 0.50349 0.64063 0.38774 0.0
C863 C 0.47769 0.65943 0.37805 0.0
C864 C 0.479 0.68889 0.39403 0.0
C865 C 0.47661 0.66273 0.34304 0.0
C866 C 0.45197 0.64172 0.38962 0.0
C867 C 0.46163 0.6168 0.4037 0.0
C868 C 0.44161 0.59698 0.41576 0.0
C869 C 0.41105 0.60299 0.41365 0.0
C870 C 0.40078 0.62867 0.39969 0.0
C871 C 0.42171 0.64808 0.38746 0.0
H872 H 0.253 0.10436 0.16137 0.0
H873 H 0.33868 0.07917 0.19773 0.0
H874 H 0.31477 0.06617 0.24674 0.0
H875 H 0.22732 0.138 0.22467 0.0
H876 H 0.18931 0.12674 0.22098 0.0
H877 H 0.21228 0.12926 0.18758 0.0
H878 H 0.20118 0.07607 0.17433 0.0
H879 H 0.17799 0.07338 0.20775 0.0
H880 H 0.20822 0.04847 0.20238 0.0
H881 H 0.28288 0.06418 0.29397 0.0
H882 H 0.24582 0.07231 0.33474 0.0
H883 H 0.18059 0.09624 0.26664 0.0
C884 C 0.26672 0.0951 0.1791 0.0
C885 C 0.29774 0.09245 0.17547 0.0
C886 C 0.31486 0.08111 0.19982 0.0
C887 C 0.30143 0.07361 0.22772 0.0
C888 C 0.27082 0.07714 0.23069 0.0
C889 C 0.25366 0.08728 0.20683 0.0
C890 C 0.22175 0.09174 0.21652 0.0
C891 C 0.21213 0.1233 0.21219 0.0
C892 C 0.20107 0.07118 0.19922 0.0
C893 C 0.22381 0.08384 0.25004 0.0
C894 C 0.25225 0.07516 0.25773 0.0
C895 C 0.2604 0.07014 0.28804 0.0
C896 C 0.23927 0.07485 0.31105 0.0
C897 C 0.21031 0.08423 0.30361 0.0
C898 C 0.20227 0.08795 0.27271 0.0
H899 H 0.25146 0.88313 0.81462 0.0
H900 H 0.33043 0.9229 0.77759 0.0
H901 H 0.30202 0.93792 0.73193 0.0
H902 H 0.22724 0.8531 0.74895 0.0
H903 H 0.18821 0.85873 0.75533 0.0
H904 H 0.21302 0.85614 0.78735 0.0
H905 H 0.19503 0.90577 0.80703 0.0
H906 H 0.16998 0.9085 0.77498 0.0
H907 H 0.19656 0.93657 0.78207 0.0
H908 H 0.26809 0.93977 0.68654 0.0
H909 H 0.2309 0.92991 0.64623 0.0
H910 H 0.17312 0.89151 0.71354 0.0
C911 C 0.26259 0.8959 0.79749 0.0
C912 C 0.29317 0.90201 0.79985 0.0
C913 C 0.30699 0.91817 0.77645 0.0
C914 C 0.29098 0.92685 0.75044 0.0
C915 C 0.26106 0.91964 0.7484 0.0
C916 C 0.24689 0.90489 0.77156 0.0
C917 C 0.21548 0.89713 0.76256 0.0
C918 C 0.21074 0.86435 0.7636 0.0
C919 C 0.19293 0.91295 0.78287 0.0
C920 C 0.21465 0.90842 0.73008 0.0
C921 C 0.24104 0.92168 0.72245 0.0
C922 C 0.24698 0.93038 0.69254 0.0
C923 C 0.22578 0.92477 0.66981 0.0
C924 C 0.1989 0.91094 0.6772 0.0
C925 C 0.19297 0.90333 0.70776 0.0
H926 H 0.77658 0.87827 0.80653 0.0
H927 H 0.68636 0.91069 0.81004 0.0
H928 H 0.68904 0.92238 0.75492 0.0
H929 H 0.80534 0.92898 0.74722 0.0
H930 H 0.82742 0.90113 0.72971 0.0
H931 H 0.82043 0.90034 0.77032 0.0
H932 H 0.799 0.84892 0.76531 0.0
H933 H 0.80604 0.84951 0.72488 0.0
H934 H 0.76918 0.84243 0.73873 0.0
H935 H 0.69905 0.9244 0.69881 0.0
H936 H 0.71383 0.91337 0.64582 0.0
H937 H 0.79743 0.87894 0.6785 0.0
C938 C 0.75761 0.8886 0.796 0.0
C939 C 0.73131 0.89383 0.81275 0.0
C940 C 0.70678 0.90664 0.79777 0.0
C941 C 0.70819 0.91352 0.76651 0.0
C942 C 0.7343 0.90753 0.75059 0.0
C943 C 0.75857 0.89533 0.76486 0.0
C944 C 0.7826 0.88765 0.74202 0.0
C945 C 0.8106 0.9056 0.74766 0.0
C946 C 0.78959 0.85521 0.74278 0.0
C947 C 0.76758 0.89628 0.71242 0.0
C948 C 0.74001 0.90833 0.71796 0.0
C949 C 0.72078 0.9155 0.69423 0.0
C950 C 0.72938 0.90913 0.66419 0.0
C951 C 0.7569 0.89554 0.65808 0.0
C952 C 0.77666 0.89005 0.68244 0.0
H953 H 0.7954 0.12813 0.29689 0.0
H954 H 0.71088 0.1013 0.33412 0.0
H955 H 0.69172 0.09354 0.28202 0.0
H956 H 0.76686 0.16848 0.23818 0.0
H957 H 0.79448 0.15935 0.21002 0.0
H958 H 0.80357 0.15788 0.25004 0.0
H959 H 0.81977 0.10465 0.24431 0.0
H960 H 0.81091 0.10602 0.2041 0.0
H961 H 0.79439 0.07896 0.22808 0.0
H962 H 0.67909 0.09562 0.22631 0.0
H963 H 0.67489 0.10614 0.17098 0.0
H964 H 0.76754 0.13103 0.16977 0.0
C965 C 0.77326 0.11965 0.29403 0.0
C966 C 0.7547 0.11521 0.31955 0.0
C967 C 0.72551 0.10488 0.31488 0.0
C968 C 0.71442 0.10028 0.28535 0.0
C969 C 0.7328 0.10592 0.26058 0.0
C970 C 0.76172 0.11508 0.26456 0.0
C971 C 0.77582 0.12223 0.23407 0.0
C972 C 0.78574 0.15386 0.23304 0.0
C973 C 0.80176 0.10173 0.22724 0.0
C974 C 0.74997 0.1168 0.21266 0.0
C975 C 0.72547 0.10704 0.2283 0.0
C976 C 0.69831 0.10272 0.21366 0.0
C977 C 0.69609 0.10883 0.18224 0.0
C978 C 0.72085 0.11926 0.16585 0.0
C979 C 0.7482 0.12273 0.18138 0.0
H980 H 0.73778 0.60247 0.31575 0.0
H981 H 0.65578 0.57341 0.2745 0.0
H982 H 0.68242 0.56447 0.22593 0.0
H983 H 0.76332 0.64086 0.25571 0.0
H984 H 0.8019 0.63175 0.26044 0.0
H985 H 0.77754 0.63117 0.29289 0.0
H986 H 0.79198 0.57816 0.30363 0.0
H987 H 0.81659 0.57858 0.27117 0.0
H988 H 0.78807 0.55167 0.27378 0.0
H989 H 0.71603 0.56741 0.17993 0.0
H990 H 0.75404 0.57968 0.14139 0.0
H991 H 0.81463 0.60399 0.21369 0.0
C992 C 0.72544 0.59345 0.29696 0.0
C993 C 0.69464 0.58859 0.29911 0.0
C994 C 0.67944 0.57709 0.27354 0.0
C995 C 0.69441 0.57192 0.24586 0.0
C996 C 0.7247 0.57777 0.24436 0.0
C997 C 0.74011 0.58782 0.26947 0.0
C998 C 0.77195 0.59469 0.26149 0.0
C999 C 0.77906 0.62649 0.26801 0.0
C1000 C 0.79342 0.57457 0.27853 0.0
C1001 C 0.77174 0.58838 0.22753 0.0
C1002 C 0.74436 0.57837 0.21809 0.0
C1003 C 0.73776 0.57445 0.18718 0.0
C1004 C 0.7594 0.58158 0.16545 0.0
C1005 C 0.78731 0.59227 0.17474 0.0
C1006 C 0.79381 0.59487 0.20615 0.0
H1007 H 0.74475 0.39732 0.65697 0.0
H1008 H 0.66101 0.42919 0.69186 0.0
H1009 H 0.68558 0.44248 0.74036 0.0
H1010 H 0.76724 0.36354 0.72004 0.0
H1011 H 0.80609 0.372 0.71739 0.0
H1012 H 0.78377 0.37116 0.6834 0.0
H1013 H 0.79905 0.42342 0.67058 0.0
H1014 H 0.82176 0.42438 0.70455 0.0
H1015 H 0.79366 0.45143 0.69858 0.0
H1016 H 0.71609 0.4412 0.78822 0.0
H1017 H 0.751 0.42909 0.82997 0.0
H1018 H 0.81581 0.40104 0.76334 0.0
C1019 C 0.73175 0.40805 0.67429 0.0
C1020 C 0.70095 0.41222 0.67055 0.0
C1021 C 0.6847 0.42604 0.69406 0.0
C1022 C 0.69849 0.43366 0.72172 0.0
C1023 C 0.72868 0.42797 0.72519 0.0
C1024 C 0.74527 0.41608 0.70179 0.0
C1025 C 0.77653 0.40927 0.71223 0.0
C1026 C 0.78379 0.3771 0.70803 0.0
C1027 C 0.79908 0.42827 0.69549 0.0
C1028 C 0.77441 0.41734 0.74571 0.0
C1029 C 0.74674 0.42845 0.75269 0.0
C1030 C 0.73813 0.4335 0.78288 0.0
C1031 C 0.758 0.42644 0.80645 0.0
C1032 C 0.78619 0.41475 0.79967 0.0
C1033 C 0.79479 0.41103 0.76894 0.0
H1034 H 0.22342 0.37695 0.67468 0.0
H1035 H 0.31858 0.39022 0.67459 0.0
H1036 H 0.31684 0.40071 0.72998 0.0
H1037 H 0.20487 0.43136 0.7354 0.0
H1038 H 0.17656 0.40847 0.75109 0.0
H1039 H 0.18446 0.40751 0.71067 0.0
H1040 H 0.19354 0.35255 0.71395 0.0
H1041 H 0.18575 0.35334 0.75422 0.0
H1042 H 0.22046 0.33884 0.74079 0.0
H1043 H 0.30605 0.40167 0.78615 0.0
H1044 H 0.28736 0.39266 0.83828 0.0
H1045 H 0.19909 0.37926 0.80179 0.0
C1046 C 0.24385 0.38284 0.68603 0.0
C1047 C 0.27116 0.3828 0.67015 0.0
C1048 C 0.29737 0.39024 0.68613 0.0
C1049 C 0.29657 0.39633 0.71761 0.0
C1050 C 0.26937 0.39524 0.73271 0.0
C1051 C 0.24343 0.38893 0.71735 0.0
C1052 C 0.21762 0.38595 0.73924 0.0
C1053 C 0.19451 0.40975 0.73377 0.0
C1054 C 0.20355 0.35589 0.73691 0.0
C1055 C 0.23333 0.39012 0.76953 0.0
C1056 C 0.26307 0.396 0.76524 0.0
C1057 C 0.2827 0.39773 0.78978 0.0
C1058 C 0.27189 0.3925 0.81931 0.0
C1059 C 0.2417 0.38553 0.82411 0.0
C1060 C 0.22207 0.38528 0.79894 0.0
H1061 H 0.29501 0.62148 0.30135 0.0
H1062 H 0.21474 0.58009 0.33275 0.0
H1063 H 0.19955 0.57159 0.27934 0.0
H1064 H 0.26288 0.65967 0.24426 0.0
H1065 H 0.29241 0.65672 0.2167 0.0
H1066 H 0.30052 0.6541 0.25687 0.0
H1067 H 0.32534 0.60443 0.24856 0.0
H1068 H 0.31778 0.60709 0.20814 0.0
H1069 H 0.30512 0.5763 0.2294 0.0
H1070 H 0.18852 0.57571 0.22358 0.0
H1071 H 0.1847 0.58859 0.16881 0.0
H1072 H 0.2722 0.62686 0.17325 0.0
C1073 C 0.27498 0.60943 0.2969 0.0
C1074 C 0.25621 0.60114 0.3211 0.0
C1075 C 0.22953 0.58641 0.31446 0.0
C1076 C 0.2207 0.58149 0.2842 0.0
C1077 C 0.23887 0.59127 0.26075 0.0
C1078 C 0.26572 0.6045 0.26667 0.0
C1079 C 0.27947 0.61572 0.23742 0.0
C1080 C 0.28407 0.64849 0.23892 0.0
C1081 C 0.30866 0.59993 0.23047 0.0
C1082 C 0.2556 0.60783 0.2145 0.0
C1083 C 0.2325 0.59349 0.22833 0.0
C1084 C 0.20679 0.58631 0.2123 0.0
C1085 C 0.20471 0.59389 0.18126 0.0
C1086 C 0.22821 0.60849 0.16662 0.0
C1087 C 0.25404 0.61522 0.18356 0.0
loop_
_geom_bond_atom_site_label_1
_geom_bond_atom_site_label_2
_geom_bond_distance
_geom_bond_site_symmetry_2
_ccdc_geom_bond_type
Mg0 O1 2.028 . S
Mg0 O7 1.986 . S
Mg0 O9 2.114 . S
Mg0 O10 2.251 . S
Mg0 O13 2.010 . S
O1 Mg0 2.028 . S
O1 C4 1.250 . S
O2 Mg3 2.028 . S
O2 C4 1.248 . S
Mg3 O2 2.028 . S
Mg3 O8 2.032 . S
Mg3 O10 2.079 . S
C4 O1 1.250 . S
C4 O2 1.248 . S
C5 O6 1.264 . S
C5 O13 1.249 . S
O6 C5 1.264 . S
O7 Mg0 1.986 . S
O7 C11 1.246 . S
O8 Mg3 2.032 . S
O8 C11 1.259 . S
O9 Mg0 2.114 . S
O9 C12 1.252 . S
O10 Mg0 2.251 . S
O10 Mg3 2.079 . S
O10 C12 1.273 . S
C11 O7 1.246 . S
C11 O8 1.259 . S
C12 O9 1.252 . S
C12 O10 1.273 . S
O13 Mg0 2.010 . S
O13 C5 1.249 . S
Mg14 O15 2.028 . S
Mg14 O21 1.986 . S
Mg14 O23 2.114 . S
Mg14 O24 2.251 . S
Mg14 O27 2.010 . S
O15 Mg14 2.028 . S
O15 C18 1.250 . S
O16 Mg17 2.028 . S
O16 C18 1.248 . S
Mg17 O16 2.028 . S
Mg17 O22 2.032 . S
Mg17 O24 2.079 . S
C18 O15 1.250 . S
C18 O16 1.248 . S
C19 O20 1.264 . S
C19 O27 1.249 . S
O20 C19 1.264 . S
O21 Mg14 1.986 . S
O21 C25 1.246 . S
O22 Mg17 2.032 . S
O22 C25 1.259 . S
O23 Mg14 2.114 . S
O23 C26 1.252 . S
O24 Mg14 2.251 . S
O24 Mg17 2.079 . S
O24 C26 1.273 . S
C25 O21 1.246 . S
C25 O22 1.259 . S
C26 O23 1.252 . S
C26 O24 1.273 . S
O27 Mg14 2.010 . S
O27 C19 1.249 . S
Mg28 O29 2.028 . S
Mg28 O35 1.986 . S
Mg28 O37 2.114 . S
Mg28 O38 2.251 . S
Mg28 O41 2.010 . S
O29 Mg28 2.028 . S
O29 C32 1.250 . S
O30 Mg31 2.028 . S
O30 C32 1.248 . S
Mg31 O30 2.028 . S
Mg31 O36 2.032 . S
Mg31 O38 2.079 . S
C32 O29 1.250 . S
C32 O30 1.248 . S
C33 O34 1.264 . S
C33 O41 1.249 . S
O34 C33 1.264 . S
O35 Mg28 1.986 . S
O35 C39 1.246 . S
O36 Mg31 2.032 . S
O36 C39 1.259 . S
O37 Mg28 2.114 . S
O37 C40 1.252 . S
O38 Mg28 2.251 . S
O38 Mg31 2.079 . S
O38 C40 1.273 . S
C39 O35 1.246 . S
C39 O36 1.259 . S
C40 O37 1.252 . S
C40 O38 1.273 . S
O41 Mg28 2.010 . S
O41 C33 1.249 . S
Mg42 O43 2.028 . S
Mg42 O49 1.986 . S
Mg42 O51 2.114 . S
Mg42 O52 2.251 . S
Mg42 O55 2.010 . S
O43 Mg42 2.028 . S
O43 C46 1.250 . S
O44 Mg45 2.028 . S
O44 C46 1.248 . S
Mg45 O44 2.028 . S
Mg45 O50 2.032 . S
Mg45 O52 2.079 . S
C46 O43 1.250 . S
C46 O44 1.248 . S
C47 O48 1.264 . S
C47 O55 1.249 . S
O48 C47 1.264 . S
O49 Mg42 1.986 . S
O49 C53 1.246 . S
O50 Mg45 2.032 . S
O50 C53 1.259 . S
O51 Mg42 2.114 . S
O51 C54 1.252 . S
O52 Mg42 2.251 . S
O52 Mg45 2.079 . S
O52 C54 1.273 . S
C53 O49 1.246 . S
C53 O50 1.259 . S
C54 O51 1.252 . S
C54 O52 1.273 . S
O55 Mg42 2.010 . S
O55 C47 1.249 . S
Mg56 O57 2.028 . S
Mg56 O63 1.986 . S
Mg56 O65 2.114 . S
Mg56 O66 2.251 . S
Mg56 O69 2.010 . S
O57 Mg56 2.028 . S
O57 C60 1.250 . S
O58 Mg59 2.028 . S
O58 C60 1.248 . S
Mg59 O58 2.028 . S
Mg59 O64 2.032 . S
Mg59 O66 2.079 . S
C60 O57 1.250 . S
C60 O58 1.248 . S
C61 O62 1.264 . S
C61 O69 1.249 . S
O62 C61 1.264 . S
O63 Mg56 1.986 . S
O63 C67 1.246 . S
O64 Mg59 2.032 . S
O64 C67 1.259 . S
O65 Mg56 2.114 . S
O65 C68 1.252 . S
O66 Mg56 2.251 . S
O66 Mg59 2.079 . S
O66 C68 1.273 . S
C67 O63 1.246 . S
C67 O64 1.259 . S
C68 O65 1.252 . S
C68 O66 1.273 . S
O69 Mg56 2.010 . S
O69 C61 1.249 . S
Mg70 O71 2.028 . S
Mg70 O77 1.986 . S
Mg70 O79 2.114 . S
Mg70 O80 2.251 . S
Mg70 O83 2.010 . S
O71 Mg70 2.028 . S
O71 C74 1.250 . S
O72 Mg73 2.028 . S
O72 C74 1.248 . S
Mg73 O72 2.028 . S
Mg73 O78 2.032 . S
Mg73 O80 2.079 . S
C74 O71 1.250 . S
C74 O72 1.248 . S
C75 O76 1.264 . S
C75 O83 1.249 . S
O76 C75 1.264 . S
O77 Mg70 1.986 . S
O77 C81 1.246 . S
O78 Mg73 2.032 . S
O78 C81 1.259 . S
O79 Mg70 2.114 . S
O79 C82 1.252 . S
O80 Mg70 2.251 . S
O80 Mg73 2.079 . S
O80 C82 1.273 . S
C81 O77 1.246 . S
C81 O78 1.259 . S
C82 O79 1.252 . S
C82 O80 1.273 . S
O83 Mg70 2.010 . S
O83 C75 1.249 . S
Mg84 O85 2.028 . S
Mg84 O91 1.986 . S
Mg84 O93 2.114 . S
Mg84 O94 2.251 . S
Mg84 O97 2.010 . S
O85 Mg84 2.028 . S
O85 C88 1.250 . S
O86 Mg87 2.028 . S
O86 C88 1.248 . S
Mg87 O86 2.028 . S
Mg87 O92 2.032 . S
Mg87 O94 2.079 . S
C88 O85 1.250 . S
C88 O86 1.248 . S
C89 O90 1.264 . S
C89 O97 1.249 . S
O90 C89 1.264 . S
O91 Mg84 1.986 . S
O91 C95 1.246 . S
O92 Mg87 2.032 . S
O92 C95 1.259 . S
O93 Mg84 2.114 . S
O93 C96 1.252 . S
O94 Mg84 2.251 . S
O94 Mg87 2.079 . S
O94 C96 1.273 . S
C95 O91 1.246 . S
C95 O92 1.259 . S
C96 O93 1.252 . S
C96 O94 1.273 . S
O97 Mg84 2.010 . S
O97 C89 1.249 . S
Mg98 O99 2.028 . S
Mg98 O105 1.986 . S
Mg98 O107 2.114 . S
Mg98 O108 2.251 . S
Mg98 O111 2.010 . S
O99 Mg98 2.028 . S
O99 C102 1.250 . S
O100 Mg101 2.028 . S
O100 C102 1.248 . S
Mg101 O100 2.028 . S
Mg101 O106 2.032 . S
Mg101 O108 2.079 . S
C102 O99 1.250 . S
C102 O100 1.248 . S
C103 O104 1.264 . S
C103 O111 1.249 . S
O104 C103 1.264 . S
O105 Mg98 1.986 . S
O105 C109 1.246 . S
O106 Mg101 2.032 . S
O106 C109 1.259 . S
O107 Mg98 2.114 . S
O107 C110 1.252 . S
O108 Mg98 2.251 . S
O108 Mg101 2.079 . S
O108 C110 1.273 . S
C109 O105 1.246 . S
C109 O106 1.259 . S
C110 O107 1.252 . S
C110 O108 1.273 . S
O111 Mg98 2.010 . S
O111 C103 1.249 . S
Mg112 O113 2.028 . S
Mg112 O119 1.986 . S
Mg112 O121 2.114 . S
Mg112 O122 2.251 . S
Mg112 O125 2.010 . S
O113 Mg112 2.028 . S
O113 C116 1.250 . S
O114 Mg115 2.028 . S
O114 C116 1.248 . S
Mg115 O114 2.028 . S
Mg115 O120 2.032 . S
Mg115 O122 2.079 . S
C116 O113 1.250 . S
C116 O114 1.248 . S
C117 O118 1.264 . S
C117 O125 1.249 . S
O118 C117 1.264 . S
O119 Mg112 1.986 . S
O119 C123 1.246 . S
O120 Mg115 2.032 . S
O120 C123 1.259 . S
O121 Mg112 2.114 . S
O121 C124 1.252 . S
O122 Mg112 2.251 . S
O122 Mg115 2.079 . S
O122 C124 1.273 . S
C123 O119 1.246 . S
C123 O120 1.259 . S
C124 O121 1.252 . S
C124 O122 1.273 . S
O125 Mg112 2.010 . S
O125 C117 1.249 . S
Mg126 O127 2.028 . S
Mg126 O133 1.986 . S
Mg126 O135 2.114 . S
Mg126 O136 2.251 . S
Mg126 O139 2.010 . S
O127 Mg126 2.028 . S
O127 C130 1.250 . S
O128 Mg129 2.028 . S
O128 C130 1.248 . S
Mg129 O128 2.028 . S
Mg129 O134 2.032 . S
Mg129 O136 2.079 . S
C130 O127 1.250 . S
C130 O128 1.248 . S
C131 O132 1.264 . S
C131 O139 1.249 . S
O132 C131 1.264 . S
O133 Mg126 1.986 . S
O133 C137 1.246 . S
O134 Mg129 2.032 . S
O134 C137 1.259 . S
O135 Mg126 2.114 . S
O135 C138 1.252 . S
O136 Mg126 2.251 . S
O136 Mg129 2.079 . S
O136 C138 1.273 . S
C137 O133 1.246 . S
C137 O134 1.259 . S
C138 O135 1.252 . S
C138 O136 1.273 . S
O139 Mg126 2.010 . S
O139 C131 1.249 . S
Mg140 O141 2.028 . S
Mg140 O147 1.986 . S
Mg140 O149 2.114 . S
Mg140 O150 2.251 . S
Mg140 O153 2.010 . S
O141 Mg140 2.028 . S
O141 C144 1.250 . S
O142 Mg143 2.028 . S
O142 C144 1.248 . S
Mg143 O142 2.028 . S
Mg143 O148 2.032 . S
Mg143 O150 2.079 . S
C144 O141 1.250 . S
C144 O142 1.248 . S
C145 O146 1.264 . S
C145 O153 1.249 . S
O146 C145 1.264 . S
O147 Mg140 1.986 . S
O147 C151 1.246 . S
O148 Mg143 2.032 . S
O148 C151 1.259 . S
O149 Mg140 2.114 . S
O149 C152 1.252 . S
O150 Mg140 2.251 . S
O150 Mg143 2.079 . S
O150 C152 1.273 . S
C151 O147 1.246 . S
C151 O148 1.259 . S
C152 O149 1.252 . S
C152 O150 1.273 . S
O153 Mg140 2.010 . S
O153 C145 1.249 . S
Mg154 O155 2.028 . S
Mg154 O161 1.986 . S
Mg154 O163 2.114 . S
Mg154 O164 2.251 . S
Mg154 O167 2.010 . S
O155 Mg154 2.028 . S
O155 C158 1.250 . S
O156 Mg157 2.028 . S
O156 C158 1.248 . S
Mg157 O156 2.028 . S
Mg157 O162 2.032 . S
Mg157 O164 2.079 . S
C158 O155 1.250 . S
C158 O156 1.248 . S
C159 O160 1.264 . S
C159 O167 1.249 . S
O160 C159 1.264 . S
O161 Mg154 1.986 . S
O161 C165 1.246 . S
O162 Mg157 2.032 . S
O162 C165 1.259 . S
O163 Mg154 2.114 . S
O163 C166 1.252 . S
O164 Mg154 2.251 . S
O164 Mg157 2.079 . S
O164 C166 1.273 . S
C165 O161 1.246 . S
C165 O162 1.259 . S
C166 O163 1.252 . S
C166 O164 1.273 . S
O167 Mg154 2.010 . S
O167 C159 1.249 . S
Mg168 O169 2.028 . S
Mg168 O175 1.986 . S
Mg168 O177 2.114 . S
Mg168 O178 2.251 . S
Mg168 O181 2.010 . S
O169 Mg168 2.028 . S
O169 C172 1.250 . S
O170 Mg171 2.028 . S
O170 C172 1.248 . S
Mg171 O170 2.028 . S
Mg171 O176 2.032 . S
Mg171 O178 2.079 . S
C172 O169 1.250 . S
C172 O170 1.248 . S
C173 O174 1.264 . S
C173 O181 1.249 . S
O174 C173 1.264 . S
O175 Mg168 1.986 . S
O175 C179 1.246 . S
O176 Mg171 2.032 . S
O176 C179 1.259 . S
O177 Mg168 2.114 . S
O177 C180 1.252 . S
O178 Mg168 2.251 . S
O178 Mg171 2.079 . S
O178 C180 1.273 . S
C179 O175 1.246 . S
C179 O176 1.259 . S
C180 O177 1.252 . S
C180 O178 1.273 . S
O181 Mg168 2.010 . S
O181 C173 1.249 . S
Mg182 O183 2.028 . S
Mg182 O189 1.986 . S
Mg182 O191 2.114 . S
Mg182 O192 2.251 . S
Mg182 O195 2.010 . S
O183 Mg182 2.028 . S
O183 C186 1.250 . S
O184 Mg185 2.028 . S
O184 C186 1.248 . S
Mg185 O184 2.028 . S
Mg185 O190 2.032 . S
Mg185 O192 2.079 . S
C186 O183 1.250 . S
C186 O184 1.248 . S
C187 O188 1.264 . S
C187 O195 1.249 . S
O188 C187 1.264 . S
O189 Mg182 1.986 . S
O189 C193 1.246 . S
O190 Mg185 2.032 . S
O190 C193 1.259 . S
O191 Mg182 2.114 . S
O191 C194 1.252 . S
O192 Mg182 2.251 . S
O192 Mg185 2.079 . S
O192 C194 1.273 . S
C193 O189 1.246 . S
C193 O190 1.259 . S
C194 O191 1.252 . S
C194 O192 1.273 . S
O195 Mg182 2.010 . S
O195 C187 1.249 . S
Mg196 O197 2.028 . S
Mg196 O203 1.986 . S
Mg196 O205 2.114 . S
Mg196 O206 2.251 . S
Mg196 O209 2.010 . S
O197 Mg196 2.028 . S
O197 C200 1.250 . S
O198 Mg199 2.028 . S
O198 C200 1.248 . S
Mg199 O198 2.028 . S
Mg199 O204 2.032 . S
Mg199 O206 2.079 . S
C200 O197 1.250 . S
C200 O198 1.248 . S
C201 O202 1.264 . S
C201 O209 1.249 . S
O202 C201 1.264 . S
O203 Mg196 1.986 . S
O203 C207 1.246 . S
O204 Mg199 2.032 . S
O204 C207 1.259 . S
O205 Mg196 2.114 . S
O205 C208 1.252 . S
O206 Mg196 2.251 . S
O206 Mg199 2.079 . S
O206 C208 1.273 . S
C207 O203 1.246 . S
C207 O204 1.259 . S
C208 O205 1.252 . S
C208 O206 1.273 . S
O209 Mg196 2.010 . S
O209 C201 1.249 . S
Mg210 O211 2.028 . S
Mg210 O217 1.986 . S
Mg210 O219 2.114 . S
Mg210 O220 2.251 . S
Mg210 O223 2.010 . S
O211 Mg210 2.028 . S
O211 C214 1.250 . S
O212 Mg213 2.028 . S
O212 C214 1.248 . S
Mg213 O212 2.028 . S
Mg213 O218 2.032 . S
Mg213 O220 2.079 . S
C214 O211 1.250 . S
C214 O212 1.248 . S
C215 O216 1.264 . S
C215 O223 1.249 . S
O216 C215 1.264 . S
O217 Mg210 1.986 . S
O217 C221 1.246 . S
O218 Mg213 2.032 . S
O218 C221 1.259 . S
O219 Mg210 2.114 . S
O219 C222 1.252 . S
O220 Mg210 2.251 . S
O220 Mg213 2.079 . S
O220 C222 1.273 . S
C221 O217 1.246 . S
C221 O218 1.259 . S
C222 O219 1.252 . S
C222 O220 1.273 . S
O223 Mg210 2.010 . S
O223 C215 1.249 . S
H224 C236 0.930 . S
H225 C238 0.930 . S
H226 C239 0.930 . S
H227 C243 0.959 . S
H228 C243 0.959 . S
H229 C243 0.961 . S
H230 C244 0.960 . S
H231 C244 0.961 . S
H232 C244 0.959 1_556 S
H233 C247 0.929 . S
H234 C248 0.931 . S
H235 C250 0.930 . S
C236 H224 0.930 . S
C236 C237 1.399 . S
C236 C241 1.399 . S
C237 C236 1.399 . S
C237 C238 1.376 . S
C238 H225 0.930 . S
C238 C237 1.376 . S
C238 C239 1.388 1_554 S
C239 H226 0.930 . S
C239 C238 1.388 1_556 S
C239 C240 1.390 . S
C240 C239 1.390 . S
C240 C241 1.394 1_556 S
C240 C246 1.465 . S
C241 C236 1.399 . S
C241 C240 1.394 1_554 S
C241 C242 1.516 . S
C242 C241 1.516 . S
C242 C243 1.502 . S
C242 C244 1.561 . S
C242 C245 1.526 1_554 S
C243 H227 0.959 . S
C243 H228 0.959 . S
C243 H229 0.961 . S
C243 C242 1.502 . S
C244 H230 0.960 . S
C244 H231 0.961 . S
C244 H232 0.959 1_554 S
C244 C242 1.561 . S
C245 C242 1.526 1_556 S
C245 C246 1.396 . S
C245 C250 1.390 . S
C246 C240 1.465 . S
C246 C245 1.396 . S
C246 C247 1.399 . S
C247 H233 0.929 . S
C247 C246 1.399 . S
C247 C248 1.385 . S
C248 H234 0.931 . S
C248 C247 1.385 . S
C248 C249 1.389 . S
C249 C248 1.389 . S
C249 C250 1.387 . S
C250 H235 0.930 . S
C250 C245 1.390 . S
C250 C249 1.387 . S
H251 C263 0.930 . S
H252 C265 0.930 . S
H253 C266 0.930 . S
H254 C270 0.959 . S
H255 C270 0.959 . S
H256 C270 0.961 . S
H257 C271 0.960 . S
H258 C271 0.961 . S
H259 C271 0.959 . S
H260 C274 0.929 . S
H261 C275 0.931 . S
H262 C277 0.930 . S
C263 H251 0.930 . S
C263 C264 1.399 . S
C263 C268 1.399 . S
C264 C263 1.399 . S
C264 C265 1.376 . S
C265 H252 0.930 . S
C265 C264 1.376 . S
C265 C266 1.388 . S
C266 H253 0.930 . S
C266 C265 1.388 . S
C266 C267 1.390 . S
C267 C266 1.390 . S
C267 C268 1.394 . S
C267 C273 1.465 . S
C268 C263 1.399 . S
C268 C267 1.394 . S
C268 C269 1.516 . S
C269 C268 1.516 . S
C269 C270 1.502 . S
C269 C271 1.561 . S
C269 C272 1.526 . S
C270 H254 0.959 . S
C270 H255 0.959 . S
C270 H256 0.961 . S
C270 C269 1.502 . S
C271 H257 0.960 . S
C271 H258 0.961 . S
C271 H259 0.959 . S
C271 C269 1.561 . S
C272 C269 1.526 . S
C272 C273 1.396 . S
C272 C277 1.390 . S
C273 C267 1.465 . S
C273 C272 1.396 . S
C273 C274 1.399 . S
C274 H260 0.929 . S
C274 C273 1.399 . S
C274 C275 1.385 . S
C275 H261 0.931 . S
C275 C274 1.385 . S
C275 C276 1.389 . S
C276 C275 1.389 . S
C276 C277 1.387 . S
C277 H262 0.930 . S
C277 C272 1.390 . S
C277 C276 1.387 . S
H278 C290 0.930 . S
H279 C292 0.930 1_554 S
H280 C293 0.930 . S
H281 C297 0.959 . S
H282 C297 0.959 . S
H283 C297 0.961 . S
H284 C298 0.960 . S
H285 C298 0.961 . S
H286 C298 0.959 . S
H287 C301 0.929 . S
H288 C302 0.931 . S
H289 C304 0.930 1_556 S
C290 H278 0.930 . S
C290 C291 1.399 . S
C290 C295 1.399 . S
C291 C290 1.399 . S
C291 C292 1.376 . S
C292 H279 0.930 1_556 S
C292 C291 1.376 . S
C292 C293 1.388 1_556 S
C293 H280 0.930 . S
C293 C292 1.388 1_554 S
C293 C294 1.390 . S
C294 C293 1.390 . S
C294 C295 1.394 1_554 S
C294 C300 1.465 . S
C295 C290 1.399 . S
C295 C294 1.394 1_556 S
C295 C296 1.516 . S
C296 C295 1.516 . S
C296 C297 1.502 . S
C296 C298 1.561 . S
C296 C299 1.502 1_556 S
C297 H281 0.959 . S
C297 H282 0.959 . S
C297 H283 0.961 . S
C297 C296 1.502 . S
C298 H284 0.960 . S
C298 H285 0.961 . S
C298 H286 0.959 . S
C298 C296 1.561 . S
C299 C296 1.502 1_554 S
C299 C300 1.413 . S
C299 C304 1.398 . S
C300 C294 1.465 . S
C300 C299 1.413 . S
C300 C301 1.399 . S
C301 H287 0.929 . S
C301 C300 1.399 . S
C301 C302 1.385 . S
C302 H288 0.931 . S
C302 C301 1.385 . S
C302 C303 1.389 . S
C303 C302 1.389 . S
C303 C304 1.387 . S
C304 H289 0.930 1_554 S
C304 C299 1.398 . S
C304 C303 1.387 . S
H305 C317 0.930 . S
H306 C319 0.930 . S
H307 C320 0.930 . S
H308 C324 0.959 . S
H309 C324 0.959 . S
H310 C324 0.961 . S
H311 C325 0.960 . S
H312 C325 0.961 . S
H313 C325 0.959 . S
H314 C328 0.929 . S
H315 C329 0.931 . S
H316 C331 0.930 . S
C317 H305 0.930 . S
C317 C318 1.399 . S
C317 C322 1.399 . S
C318 C317 1.399 . S
C318 C319 1.376 . S
C319 H306 0.930 . S
C319 C318 1.376 . S
C319 C320 1.388 . S
C320 H307 0.930 . S
C320 C319 1.388 . S
C320 C321 1.390 . S
C321 C320 1.390 . S
C321 C322 1.394 . S
C321 C327 1.465 . S
C322 C317 1.399 . S
C322 C321 1.394 . S
C322 C323 1.516 . S
C323 C322 1.516 . S
C323 C324 1.502 . S
C323 C325 1.561 . S
C323 C326 1.526 . S
C324 H308 0.959 . S
C324 H309 0.959 . S
C324 H310 0.961 . S
C324 C323 1.502 . S
C325 H311 0.960 . S
C325 H312 0.961 . S
C325 H313 0.959 . S
C325 C323 1.561 . S
C326 C323 1.526 . S
C326 C327 1.396 . S
C326 C331 1.390 . S
C327 C321 1.465 . S
C327 C326 1.396 . S
C327 C328 1.399 . S
C328 H314 0.929 . S
C328 C327 1.399 . S
C328 C329 1.385 . S
C329 H315 0.931 . S
C329 C328 1.385 . S
C329 C330 1.389 . S
C330 C329 1.389 . S
C330 C331 1.387 . S
C331 H316 0.930 . S
C331 C326 1.390 . S
C331 C330 1.387 . S
H332 C344 0.930 . S
H333 C346 0.930 . S
H334 C347 0.930 . S
H335 C351 0.959 . S
H336 C351 0.959 . S
H337 C351 0.961 . S
H338 C352 0.960 . S
H339 C352 0.961 . S
H340 C352 0.959 . S
H341 C355 0.929 . S
H342 C356 0.931 . S
H343 C358 0.930 1_554 S
C344 H332 0.930 . S
C344 C345 1.399 . S
C344 C349 1.399 . S
C345 C344 1.399 . S
C345 C346 1.376 . S
C346 H333 0.930 . S
C346 C345 1.376 . S
C346 C347 1.388 1_554 S
C347 H334 0.930 . S
C347 C346 1.388 1_556 S
C347 C348 1.390 . S
C348 C347 1.390 . S
C348 C349 1.394 1_556 S
C348 C354 1.465 . S
C349 C344 1.399 . S
C349 C348 1.394 1_554 S
C349 C350 1.516 . S
C350 C349 1.516 . S
C350 C351 1.502 . S
C350 C352 1.561 . S
C350 C353 1.497 1_554 S
C351 H335 0.959 . S
C351 H336 0.959 . S
C351 H337 0.961 . S
C351 C350 1.502 . S
C352 H338 0.960 . S
C352 H339 0.961 . S
C352 H340 0.959 . S
C352 C350 1.561 . S
C353 C350 1.497 1_556 S
C353 C354 1.416 . S
C353 C358 1.400 . S
C354 C348 1.465 . S
C354 C353 1.416 . S
C354 C355 1.399 . S
C355 H341 0.929 . S
C355 C354 1.399 . S
C355 C356 1.385 . S
C356 H342 0.931 . S
C356 C355 1.385 . S
C356 C357 1.389 . S
C357 C356 1.389 . S
C357 C358 1.387 . S
C358 H343 0.930 1_556 S
C358 C353 1.400 . S
C358 C357 1.387 . S
H359 C371 0.930 . S
H360 C373 0.930 . S
H361 C374 0.930 . S
H362 C378 0.959 . S
H363 C378 0.959 . S
H364 C378 0.961 . S
H365 C379 0.960 . S
H366 C379 0.961 . S
H367 C379 0.959 . S
H368 C382 0.929 . S
H369 C383 0.931 . S
H370 C385 0.930 . S
C371 H359 0.930 . S
C371 C372 1.399 . S
C371 C376 1.399 . S
C372 C371 1.399 . S
C372 C373 1.376 . S
C373 H360 0.930 . S
C373 C372 1.376 . S
C373 C374 1.388 . S
C374 H361 0.930 . S
C374 C373 1.388 . S
C374 C375 1.390 . S
C375 C374 1.390 . S
C375 C376 1.394 . S
C375 C381 1.465 . S
C376 C371 1.399 . S
C376 C375 1.394 . S
C376 C377 1.516 . S
C377 C376 1.516 . S
C377 C378 1.502 . S
C377 C379 1.561 . S
C377 C380 1.526 . S
C378 H362 0.959 . S
C378 H363 0.959 . S
C378 H364 0.961 . S
C378 C377 1.502 . S
C379 H365 0.960 . S
C379 H366 0.961 . S
C379 H367 0.959 . S
C379 C377 1.561 . S
C380 C377 1.526 . S
C380 C381 1.396 . S
C380 C385 1.390 . S
C381 C375 1.465 . S
C381 C380 1.396 . S
C381 C382 1.399 . S
C382 H368 0.929 . S
C382 C381 1.399 . S
C382 C383 1.385 . S
C383 H369 0.931 . S
C383 C382 1.385 . S
C383 C384 1.389 . S
C384 C383 1.389 . S
C384 C385 1.387 . S
C385 H370 0.930 . S
C385 C380 1.390 . S
C385 C384 1.387 . S
H386 C398 0.930 1_554 S
H387 C400 0.930 . S
H388 C401 0.930 . S
H389 C405 0.959 . S
H390 C405 0.959 . S
H391 C405 0.961 . S
H392 C406 0.960 . S
H393 C406 0.961 . S
H394 C406 0.959 . S
H395 C409 0.929 . S
H396 C410 0.931 1_556 S
H397 C412 0.930 . S
C398 H386 0.930 1_556 S
C398 C399 1.399 . S
C398 C403 1.403 . S
C399 C398 1.399 . S
C399 C400 1.376 . S
C400 H387 0.930 . S
C400 C399 1.376 . S
C400 C401 1.388 . S
C401 H388 0.930 . S
C401 C400 1.388 . S
C401 C402 1.390 . S
C402 C401 1.390 . S
C402 C403 1.402 . S
C402 C408 1.465 . S
C403 C398 1.403 . S
C403 C402 1.402 . S
C403 C404 1.505 1_556 S
C404 C403 1.505 1_554 S
C404 C405 1.502 . S
C404 C406 1.561 . S
C404 C407 1.526 . S
C405 H389 0.959 . S
C405 H390 0.959 . S
C405 H391 0.961 . S
C405 C404 1.502 . S
C406 H392 0.960 . S
C406 H393 0.961 . S
C406 H394 0.959 . S
C406 C404 1.561 . S
C407 C404 1.526 . S
C407 C408 1.396 1_554 S
C407 C412 1.390 . S
C408 C402 1.465 . S
C408 C407 1.396 1_556 S
C408 C409 1.399 . S
C409 H395 0.929 . S
C409 C408 1.399 . S
C409 C410 1.385 1_556 S
C410 H396 0.931 1_554 S
C410 C409 1.385 1_554 S
C410 C411 1.389 . S
C411 C410 1.389 . S
C411 C412 1.387 . S
C412 H397 0.930 . S
C412 C407 1.390 . S
C412 C411 1.387 . S
H413 C425 0.930 . S
H414 C427 0.930 . S
H415 C428 0.930 . S
H416 C432 0.959 . S
H417 C432 0.959 . S
H418 C432 0.961 . S
H419 C433 0.960 . S
H420 C433 0.961 . S
H421 C433 0.959 . S
H422 C436 0.929 . S
H423 C437 0.931 . S
H424 C439 0.930 . S
C425 H413 0.930 . S
C425 C426 1.399 . S
C425 C430 1.399 . S
C426 C425 1.399 . S
C426 C427 1.376 . S
C427 H414 0.930 . S
C427 C426 1.376 . S
C427 C428 1.388 . S
C428 H415 0.930 . S
C428 C427 1.388 . S
C428 C429 1.390 . S
C429 C428 1.390 . S
C429 C430 1.394 . S
C429 C435 1.465 . S
C430 C425 1.399 . S
C430 C429 1.394 . S
C430 C431 1.516 . S
C431 C430 1.516 . S
C431 C432 1.502 . S
C431 C433 1.561 . S
C431 C434 1.526 . S
C432 H416 0.959 . S
C432 H417 0.959 . S
C432 H418 0.961 . S
C432 C431 1.502 . S
C433 H419 0.960 . S
C433 H420 0.961 . S
C433 H421 0.959 . S
C433 C431 1.561 . S
C434 C431 1.526 . S
C434 C435 1.396 . S
C434 C439 1.390 . S
C435 C429 1.465 . S
C435 C434 1.396 . S
C435 C436 1.399 . S
C436 H422 0.929 . S
C436 C435 1.399 . S
C436 C437 1.385 . S
C437 H423 0.931 . S
C437 C436 1.385 . S
C437 C438 1.389 . S
C438 C437 1.389 . S
C438 C439 1.387 . S
C439 H424 0.930 . S
C439 C434 1.390 . S
C439 C438 1.387 . S
H440 C452 0.930 . S
H441 C454 0.930 . S
H442 C455 0.930 . S
H443 C459 0.959 1_564 S
H444 C459 0.959 1_565 S
H445 C459 0.961 . S
H446 C460 0.960 . S
H447 C460 0.961 . S
H448 C460 0.959 . S
H449 C463 0.929 1_554 S
H450 C464 0.931 . S
H451 C466 0.930 . S
C452 H440 0.930 . S
C452 C453 1.399 . S
C452 C457 1.399 . S
C453 C452 1.399 . S
C453 C454 1.376 . S
C454 H441 0.930 . S
C454 C453 1.376 . S
C454 C455 1.388 . S
C455 H442 0.930 . S
C455 C454 1.388 . S
C455 C456 1.390 . S
C456 C455 1.390 . S
C456 C457 1.394 . S
C456 C462 1.465 1_544 S
C457 C452 1.399 . S
C457 C456 1.394 . S
C457 C458 1.516 1_554 S
C458 C457 1.516 1_556 S
C458 C459 1.502 . S
C458 C460 1.561 . S
C458 C461 1.526 1_545 S
C459 H443 0.959 1_546 S
C459 H444 0.959 1_545 S
C459 H445 0.961 . S
C459 C458 1.502 . S
C460 H446 0.960 . S
C460 H447 0.961 . S
C460 H448 0.959 . S
C460 C458 1.561 . S
C461 C458 1.526 1_565 S
C461 C462 1.396 . S
C461 C466 1.390 . S
C462 C456 1.465 1_566 S
C462 C461 1.396 . S
C462 C463 1.399 . S
C463 H449 0.929 1_556 S
C463 C462 1.399 . S
C463 C464 1.385 . S
C464 H450 0.931 . S
C464 C463 1.385 . S
C464 C465 1.389 . S
C465 C464 1.389 . S
C465 C466 1.387 . S
C466 H451 0.930 . S
C466 C461 1.390 . S
C466 C465 1.387 . S
H467 C479 0.930 . S
H468 C481 0.930 . S
H469 C482 0.930 1_545 S
H470 C486 0.959 . S
H471 C486 0.959 . S
H472 C486 0.961 . S
H473 C487 0.960 . S
H474 C487 0.961 . S
H475 C487 0.959 . S
H476 C490 0.929 . S
H477 C491 0.931 . S
H478 C493 0.930 . S
C479 H467 0.930 . S
C479 C480 1.399 . S
C479 C484 1.399 . S
C480 C479 1.399 . S
C480 C481 1.376 . S
C481 H468 0.930 . S
C481 C480 1.376 . S
C481 C482 1.388 . S
C482 H469 0.930 1_565 S
C482 C481 1.388 . S
C482 C483 1.390 . S
C483 C482 1.390 . S
C483 C484 1.394 . S
C483 C489 1.465 1_565 S
C484 C479 1.399 . S
C484 C483 1.394 . S
C484 C485 1.516 . S
C485 C484 1.516 . S
C485 C486 1.502 . S
C485 C487 1.561 . S
C485 C488 1.526 1_565 S
C486 H470 0.959 . S
C486 H471 0.959 . S
C486 H472 0.961 . S
C486 C485 1.502 . S
C487 H473 0.960 . S
C487 H474 0.961 . S
C487 H475 0.959 . S
C487 C485 1.561 . S
C488 C485 1.526 1_545 S
C488 C489 1.396 . S
C488 C493 1.390 . S
C489 C483 1.465 1_545 S
C489 C488 1.396 . S
C489 C490 1.399 . S
C490 H476 0.929 . S
C490 C489 1.399 . S
C490 C491 1.385 . S
C491 H477 0.931 . S
C491 C490 1.385 . S
C491 C492 1.389 . S
C492 C491 1.389 . S
C492 C493 1.387 . S
C493 H478 0.930 . S
C493 C488 1.390 . S
C493 C492 1.387 . S
H494 C506 0.930 . S
H495 C508 0.930 . S
H496 C509 0.930 . S
H497 C513 0.959 . S
H498 C513 0.959 . S
H499 C513 0.961 . S
H500 C514 0.960 . S
H501 C514 0.961 . S
H502 C514 0.959 . S
H503 C517 0.916 1_556 S
H504 C518 0.931 . S
H505 C520 0.930 . S
C506 H494 0.930 . S
C506 C507 1.399 . S
C506 C511 1.399 . S
C507 C506 1.399 . S
C507 C508 1.376 . S
C508 H495 0.930 . S
C508 C507 1.376 . S
C508 C509 1.388 . S
C509 H496 0.930 . S
C509 C508 1.388 . S
C509 C510 1.390 . S
C510 C509 1.390 . S
C510 C511 1.394 . S
C510 C516 1.465 1_566 S
C511 C506 1.399 . S
C511 C510 1.394 . S
C511 C512 1.516 1_556 S
C512 C511 1.516 1_554 S
C512 C513 1.502 . S
C512 C514 1.561 . S
C512 C515 1.526 1_565 S
C513 H497 0.959 . S
C513 H498 0.959 . S
C513 H499 0.961 . S
C513 C512 1.502 . S
C514 H500 0.960 . S
C514 H501 0.961 . S
C514 H502 0.959 . S
C514 C512 1.561 . S
C515 C512 1.526 1_545 S
C515 C516 1.396 . S
C515 C520 1.390 . S
C516 C510 1.465 1_544 S
C516 C515 1.396 . S
C516 C517 1.400 . S
C517 H503 0.916 1_554 S
C517 C516 1.400 . S
C517 C518 1.398 . S
C518 H504 0.931 . S
C518 C517 1.398 . S
C518 C519 1.389 . S
C519 C518 1.389 . S
C519 C520 1.387 . S
C520 H505 0.930 . S
C520 C515 1.390 . S
C520 C519 1.387 . S
H521 C533 0.930 . S
H522 C535 0.930 . S
H523 C536 0.930 . S
H524 C540 0.959 . S
H525 C540 0.959 . S
H526 C540 0.961 . S
H527 C541 0.960 . S
H528 C541 0.961 1_565 S
H529 C541 0.959 . S
H530 C544 0.929 . S
H531 C545 0.931 . S
H532 C547 0.930 . S
C533 H521 0.930 . S
C533 C534 1.399 . S
C533 C538 1.399 . S
C534 C533 1.399 . S
C534 C535 1.376 . S
C535 H522 0.930 . S
C535 C534 1.376 . S
C535 C536 1.388 . S
C536 H523 0.930 . S
C536 C535 1.388 . S
C536 C537 1.390 . S
C537 C536 1.390 . S
C537 C538 1.394 . S
C537 C543 1.465 1_545 S
C538 C533 1.399 . S
C538 C537 1.394 . S
C538 C539 1.516 1_545 S
C539 C538 1.516 1_565 S
C539 C540 1.502 . S
C539 C541 1.561 1_565 S
C539 C542 1.526 . S
C540 H524 0.959 . S
C540 H525 0.959 . S
C540 H526 0.961 . S
C540 C539 1.502 . S
C541 H527 0.960 . S
C541 H528 0.961 1_545 S
C541 H529 0.959 . S
C541 C539 1.561 1_545 S
C542 C539 1.526 . S
C542 C543 1.396 . S
C542 C547 1.390 . S
C543 C537 1.465 1_565 S
C543 C542 1.396 . S
C543 C544 1.399 . S
C544 H530 0.929 . S
C544 C543 1.399 . S
C544 C545 1.385 . S
C545 H531 0.931 . S
C545 C544 1.385 . S
C545 C546 1.389 . S
C546 C545 1.389 . S
C546 C547 1.387 . S
C547 H532 0.930 . S
C547 C542 1.390 . S
C547 C546 1.387 . S
H548 C560 0.930 . S
H549 C562 0.930 . S
H550 C563 0.930 . S
H551 C567 0.959 . S
H552 C567 0.959 1_554 S
H553 C567 0.961 . S
H554 C568 0.960 . S
H555 C568 0.961 . S
H556 C568 0.959 . S
H557 C571 0.929 . S
H558 C572 0.931 . S
H559 C574 0.930 . S
C560 H548 0.930 . S
C560 C561 1.399 . S
C560 C565 1.399 . S
C561 C560 1.399 . S
C561 C562 1.376 . S
C562 H549 0.930 . S
C562 C561 1.376 . S
C562 C563 1.388 . S
C563 H550 0.930 . S
C563 C562 1.388 . S
C563 C564 1.390 . S
C564 C563 1.390 . S
C564 C565 1.394 . S
C564 C570 1.465 1_556 S
C565 C560 1.399 . S
C565 C564 1.394 . S
C565 C566 1.516 1_556 S
C566 C565 1.516 1_554 S
C566 C567 1.502 1_554 S
C566 C568 1.561 . S
C566 C569 1.526 . S
C567 H551 0.959 . S
C567 H552 0.959 1_556 S
C567 H553 0.961 . S
C567 C566 1.502 1_556 S
C568 H554 0.960 . S
C568 H555 0.961 . S
C568 H556 0.959 . S
C568 C566 1.561 . S
C569 C566 1.526 . S
C569 C570 1.396 . S
C569 C574 1.390 . S
C570 C564 1.465 1_554 S
C570 C569 1.396 . S
C570 C571 1.399 . S
C571 H557 0.929 . S
C571 C570 1.399 . S
C571 C572 1.385 . S
C572 H558 0.931 . S
C572 C571 1.385 . S
C572 C573 1.389 . S
C573 C572 1.389 . S
C573 C574 1.387 . S
C574 H559 0.930 . S
C574 C569 1.390 . S
C574 C573 1.387 . S
H575 C587 0.930 . S
H576 C589 0.930 . S
H577 C590 0.930 . S
H578 C594 0.959 . S
H579 C594 0.959 . S
H580 C594 0.961 . S
H581 C595 0.960 . S
H582 C595 0.961 . S
H583 C595 0.959 . S
H584 C598 0.929 . S
H585 C599 0.931 . S
H586 C601 0.930 . S
C587 H575 0.930 . S
C587 C588 1.399 . S
C587 C592 1.399 . S
C588 C587 1.399 . S
C588 C589 1.376 . S
C589 H576 0.930 . S
C589 C588 1.376 . S
C589 C590 1.388 . S
C590 H577 0.930 . S
C590 C589 1.388 . S
C590 C591 1.390 . S
C591 C590 1.390 . S
C591 C592 1.394 . S
C591 C597 1.465 . S
C592 C587 1.399 . S
C592 C591 1.394 . S
C592 C593 1.516 . S
C593 C592 1.516 . S
C593 C594 1.502 . S
C593 C595 1.561 . S
C593 C596 1.526 . S
C594 H578 0.959 . S
C594 H579 0.959 . S
C594 H580 0.961 . S
C594 C593 1.502 . S
C595 H581 0.960 . S
C595 H582 0.961 . S
C595 H583 0.959 . S
C595 C593 1.561 . S
C596 C593 1.526 . S
C596 C597 1.396 . S
C596 C601 1.390 . S
C597 C591 1.465 . S
C597 C596 1.396 . S
C597 C598 1.399 . S
C598 H584 0.929 . S
C598 C597 1.399 . S
C598 C599 1.385 . S
C599 H585 0.931 . S
C599 C598 1.385 . S
C599 C600 1.389 . S
C600 C599 1.389 . S
C600 C601 1.387 . S
C601 H586 0.930 . S
C601 C596 1.390 . S
C601 C600 1.387 . S
H602 C614 0.930 . S
H603 C616 0.930 . S
H604 C617 0.930 . S
H605 C621 0.959 . S
H606 C621 0.959 . S
H607 C621 0.961 . S
H608 C622 0.960 . S
H609 C622 0.961 . S
H610 C622 0.959 . S
H611 C625 0.926 1_554 S
H612 C626 0.931 . S
H613 C628 0.930 . S
C614 H602 0.930 . S
C614 C615 1.399 . S
C614 C619 1.399 . S
C615 C614 1.399 . S
C615 C616 1.376 . S
C616 H603 0.930 . S
C616 C615 1.376 . S
C616 C617 1.388 . S
C617 H604 0.930 . S
C617 C616 1.388 . S
C617 C618 1.390 . S
C618 C617 1.390 . S
C618 C619 1.394 . S
C618 C624 1.465 1_554 S
C619 C614 1.399 . S
C619 C618 1.394 . S
C619 C620 1.516 1_554 S
C620 C619 1.516 1_556 S
C620 C621 1.502 . S
C620 C622 1.561 . S
C620 C623 1.526 . S
C621 H605 0.959 . S
C621 H606 0.959 . S
C621 H607 0.961 . S
C621 C620 1.502 . S
C622 H608 0.960 . S
C622 H609 0.961 . S
C622 H610 0.959 . S
C622 C620 1.561 . S
C623 C620 1.526 . S
C623 C624 1.396 . S
C623 C628 1.390 . S
C624 C618 1.465 1_556 S
C624 C623 1.396 . S
C624 C625 1.399 . S
C625 H611 0.926 1_556 S
C625 C624 1.399 . S
C625 C626 1.388 . S
C626 H612 0.931 . S
C626 C625 1.388 . S
C626 C627 1.389 . S
C627 C626 1.389 . S
C627 C628 1.387 . S
C628 H613 0.930 . S
C628 C623 1.390 . S
C628 C627 1.387 . S
H629 C641 0.930 . S
H630 C643 0.930 . S
H631 C644 0.930 . S
H632 C648 0.959 . S
H633 C648 0.959 . S
H634 C648 0.961 . S
H635 C649 0.960 . S
H636 C649 0.961 . S
H637 C649 0.959 . S
H638 C652 0.929 . S
H639 C653 0.931 . S
H640 C655 0.930 . S
C641 H629 0.930 . S
C641 C642 1.399 . S
C641 C646 1.399 . S
C642 C641 1.399 . S
C642 C643 1.376 . S
C643 H630 0.930 . S
C643 C642 1.376 . S
C643 C644 1.388 . S
C644 H631 0.930 . S
C644 C643 1.388 . S
C644 C645 1.390 . S
C645 C644 1.390 . S
C645 C646 1.394 . S
C645 C651 1.465 . S
C646 C641 1.399 . S
C646 C645 1.394 . S
C646 C647 1.516 . S
C647 C646 1.516 . S
C647 C648 1.502 . S
C647 C649 1.561 . S
C647 C650 1.526 . S
C648 H632 0.959 . S
C648 H633 0.959 . S
C648 H634 0.961 . S
C648 C647 1.502 . S
C649 H635 0.960 . S
C649 H636 0.961 . S
C649 H637 0.959 . S
C649 C647 1.561 . S
C650 C647 1.526 . S
C650 C651 1.396 . S
C650 C655 1.390 . S
C651 C645 1.465 . S
C651 C650 1.396 . S
C651 C652 1.399 . S
C652 H638 0.929 . S
C652 C651 1.399 . S
C652 C653 1.385 . S
C653 H639 0.931 . S
C653 C652 1.385 . S
C653 C654 1.389 . S
C654 C653 1.389 . S
C654 C655 1.387 . S
C655 H640 0.930 . S
C655 C650 1.390 . S
C655 C654 1.387 . S
H656 C668 0.930 . S
H657 C670 0.930 . S
H658 C671 0.930 . S
H659 C675 0.959 . S
H660 C675 0.959 . S
H661 C675 0.961 . S
H662 C676 0.960 . S
H663 C676 0.961 . S
H664 C676 0.959 . S
H665 C679 0.929 . S
H666 C680 0.931 . S
H667 C682 0.930 . S
C668 H656 0.930 . S
C668 C669 1.399 . S
C668 C673 1.399 . S
C669 C668 1.399 . S
C669 C670 1.376 . S
C670 H657 0.930 . S
C670 C669 1.376 . S
C670 C671 1.388 . S
C671 H658 0.930 . S
C671 C670 1.388 . S
C671 C672 1.390 . S
C672 C671 1.390 . S
C672 C673 1.394 . S
C672 C678 1.465 . S
C673 C668 1.399 . S
C673 C672 1.394 . S
C673 C674 1.516 . S
C674 C673 1.516 . S
C674 C675 1.502 . S
C674 C676 1.561 . S
C674 C677 1.526 . S
C675 H659 0.959 . S
C675 H660 0.959 . S
C675 H661 0.961 . S
C675 C674 1.502 . S
C676 H662 0.960 . S
C676 H663 0.961 . S
C676 H664 0.959 . S
C676 C674 1.561 . S
C677 C674 1.526 . S
C677 C678 1.396 . S
C677 C682 1.390 . S
C678 C672 1.465 . S
C678 C677 1.396 . S
C678 C679 1.399 . S
C679 H665 0.929 . S
C679 C678 1.399 . S
C679 C680 1.385 . S
C680 H666 0.931 . S
C680 C679 1.385 . S
C680 C681 1.389 . S
C681 C680 1.389 . S
C681 C682 1.387 . S
C682 H667 0.930 . S
C682 C677 1.390 . S
C682 C681 1.387 . S
H683 C695 0.930 . S
H684 C697 0.930 . S
H685 C698 0.930 . S
H686 C702 0.959 . S
H687 C702 0.959 . S
H688 C702 0.961 1_655 S
H689 C703 0.960 1_655 S
H690 C703 0.961 . S
H691 C703 0.959 . S
H692 C706 0.929 . S
H693 C707 0.931 . S
H694 C709 0.930 . S
C695 H683 0.930 . S
C695 C696 1.399 . S
C695 C700 1.399 . S
C696 C695 1.399 . S
C696 C697 1.376 . S
C697 H684 0.930 . S
C697 C696 1.376 . S
C697 C698 1.388 . S
C698 H685 0.930 . S
C698 C697 1.388 . S
C698 C699 1.390 . S
C699 C698 1.390 . S
C699 C700 1.394 . S
C699 C705 1.465 1_655 S
C700 C695 1.399 . S
C700 C699 1.394 . S
C700 C701 1.516 1_655 S
C701 C700 1.516 1_455 S
C701 C702 1.502 . S
C701 C703 1.561 . S
C701 C704 1.526 . S
C702 H686 0.959 . S
C702 H687 0.959 . S
C702 H688 0.961 1_455 S
C702 C701 1.502 . S
C703 H689 0.960 1_455 S
C703 H690 0.961 . S
C703 H691 0.959 . S
C703 C701 1.561 . S
C704 C701 1.526 . S
C704 C705 1.396 . S
C704 C709 1.390 . S
C705 C699 1.465 1_455 S
C705 C704 1.396 . S
C705 C706 1.399 . S
C706 H692 0.929 . S
C706 C705 1.399 . S
C706 C707 1.385 . S
C707 H693 0.931 . S
C707 C706 1.385 . S
C707 C708 1.389 . S
C708 C707 1.389 . S
C708 C709 1.387 . S
C709 H694 0.930 . S
C709 C704 1.390 . S
C709 C708 1.387 . S
H710 C722 0.930 . S
H711 C724 0.930 . S
H712 C725 0.930 . S
H713 C729 0.959 . S
H714 C729 0.959 . S
H715 C729 0.961 . S
H716 C730 0.960 . S
H717 C730 0.961 . S
H718 C730 0.959 . S
H719 C733 0.929 . S
H720 C734 0.931 . S
H721 C736 0.930 . S
C722 H710 0.930 . S
C722 C723 1.399 . S
C722 C727 1.399 . S
C723 C722 1.399 . S
C723 C724 1.376 . S
C724 H711 0.930 . S
C724 C723 1.376 . S
C724 C725 1.388 . S
C725 H712 0.930 . S
C725 C724 1.388 . S
C725 C726 1.390 . S
C726 C725 1.390 . S
C726 C727 1.394 . S
C726 C732 1.465 . S
C727 C722 1.399 . S
C727 C726 1.394 . S
C727 C728 1.516 . S
C728 C727 1.516 . S
C728 C729 1.502 . S
C728 C730 1.561 . S
C728 C731 1.526 . S
C729 H713 0.959 . S
C729 H714 0.959 . S
C729 H715 0.961 . S
C729 C728 1.502 . S
C730 H716 0.960 . S
C730 H717 0.961 . S
C730 H718 0.959 . S
C730 C728 1.561 . S
C731 C728 1.526 . S
C731 C732 1.396 . S
C731 C736 1.390 . S
C732 C726 1.465 . S
C732 C731 1.396 . S
C732 C733 1.399 . S
C733 H719 0.929 . S
C733 C732 1.399 . S
C733 C734 1.385 . S
C734 H720 0.931 . S
C734 C733 1.385 . S
C734 C735 1.389 . S
C735 C734 1.389 . S
C735 C736 1.387 . S
C736 H721 0.930 . S
C736 C731 1.390 . S
C736 C735 1.387 . S
H737 C749 0.930 . S
H738 C751 0.930 . S
H739 C752 0.930 . S
H740 C756 0.957 1_655 S
H741 C756 0.959 1_655 S
H742 C756 0.961 . S
H743 C757 0.960 . S
H744 C757 0.961 1_655 S
H745 C757 0.959 . S
H746 C760 0.929 . S
H747 C761 0.931 . S
H748 C763 0.930 . S
C749 H737 0.930 . S
C749 C750 1.399 . S
C749 C754 1.399 . S
C750 C749 1.399 . S
C750 C751 1.376 . S
C751 H738 0.930 . S
C751 C750 1.376 . S
C751 C752 1.388 . S
C752 H739 0.930 . S
C752 C751 1.388 . S
C752 C753 1.390 . S
C753 C752 1.390 . S
C753 C754 1.394 . S
C753 C759 1.465 1_455 S
C754 C749 1.399 . S
C754 C753 1.394 . S
C754 C755 1.516 . S
C755 C754 1.516 . S
C755 C756 1.502 . S
C755 C757 1.561 . S
C755 C758 1.526 1_455 S
C756 H740 0.957 1_455 S
C756 H741 0.959 1_455 S
C756 H742 0.961 . S
C756 C755 1.502 . S
C757 H743 0.960 . S
C757 H744 0.961 1_455 S
C757 H745 0.959 . S
C757 C755 1.561 . S
C758 C755 1.526 1_655 S
C758 C759 1.396 . S
C758 C763 1.390 . S
C759 C753 1.465 1_655 S
C759 C758 1.396 . S
C759 C760 1.399 . S
C760 H746 0.929 . S
C760 C759 1.399 . S
C760 C761 1.385 . S
C761 H747 0.931 . S
C761 C760 1.385 . S
C761 C762 1.389 . S
C762 C761 1.389 . S
C762 C763 1.387 . S
C763 H748 0.930 . S
C763 C758 1.390 . S
C763 C762 1.387 . S
H764 C776 0.930 . S
H765 C778 0.930 . S
H766 C779 0.930 . S
H767 C783 0.959 . S
H768 C783 0.959 . S
H769 C783 0.961 1_455 S
H770 C784 0.960 1_455 S
H771 C784 0.961 . S
H772 C784 0.959 . S
H773 C787 0.929 . S
H774 C788 0.931 . S
H775 C790 0.930 . S
C776 H764 0.930 . S
C776 C777 1.399 . S
C776 C781 1.399 . S
C777 C776 1.399 . S
C777 C778 1.376 . S
C778 H765 0.930 . S
C778 C777 1.376 . S
C778 C779 1.388 . S
C779 H766 0.930 . S
C779 C778 1.388 . S
C779 C780 1.390 . S
C780 C779 1.390 . S
C780 C781 1.394 . S
C780 C786 1.465 1_455 S
C781 C776 1.399 . S
C781 C780 1.394 . S
C781 C782 1.516 1_455 S
C782 C781 1.516 1_655 S
C782 C783 1.502 . S
C782 C784 1.561 . S
C782 C785 1.526 . S
C783 H767 0.959 . S
C783 H768 0.959 . S
C783 H769 0.961 1_655 S
C783 C782 1.502 . S
C784 H770 0.960 1_655 S
C784 H771 0.961 . S
C784 H772 0.959 . S
C784 C782 1.561 . S
C785 C782 1.526 . S
C785 C786 1.396 . S
C785 C790 1.390 . S
C786 C780 1.465 1_655 S
C786 C785 1.396 . S
C786 C787 1.399 . S
C787 H773 0.929 . S
C787 C786 1.399 . S
C787 C788 1.385 . S
C788 H774 0.931 . S
C788 C787 1.385 . S
C788 C789 1.389 . S
C789 C788 1.389 . S
C789 C790 1.387 . S
C790 H775 0.930 . S
C790 C785 1.390 . S
C790 C789 1.387 . S
H791 C803 0.930 . S
H792 C805 0.930 . S
H793 C806 0.930 . S
H794 C810 0.959 . S
H795 C810 0.959 . S
H796 C810 0.961 . S
H797 C811 0.960 . S
H798 C811 0.961 . S
H799 C811 0.959 . S
H800 C814 0.929 . S
H801 C815 0.931 . S
H802 C817 0.930 . S
C803 H791 0.930 . S
C803 C804 1.399 . S
C803 C808 1.399 . S
C804 C803 1.399 . S
C804 C805 1.376 . S
C805 H792 0.930 . S
C805 C804 1.376 . S
C805 C806 1.388 . S
C806 H793 0.930 . S
C806 C805 1.388 . S
C806 C807 1.390 . S
C807 C806 1.390 . S
C807 C808 1.394 . S
C807 C813 1.465 . S
C808 C803 1.399 . S
C808 C807 1.394 . S
C808 C809 1.516 . S
C809 C808 1.516 . S
C809 C810 1.502 . S
C809 C811 1.561 . S
C809 C812 1.526 . S
C810 H794 0.959 . S
C810 H795 0.959 . S
C810 H796 0.961 . S
C810 C809 1.502 . S
C811 H797 0.960 . S
C811 H798 0.961 . S
C811 H799 0.959 . S
C811 C809 1.561 . S
C812 C809 1.526 . S
C812 C813 1.396 . S
C812 C817 1.390 . S
C813 C807 1.465 . S
C813 C812 1.396 . S
C813 C814 1.399 . S
C814 H800 0.929 . S
C814 C813 1.399 . S
C814 C815 1.385 . S
C815 H801 0.931 . S
C815 C814 1.385 . S
C815 C816 1.389 . S
C816 C815 1.389 . S
C816 C817 1.387 . S
C817 H802 0.930 . S
C817 C812 1.390 . S
C817 C816 1.387 . S
H818 C830 0.930 . S
H819 C832 0.930 . S
H820 C833 0.930 . S
H821 C837 0.959 . S
H822 C837 0.959 . S
H823 C837 0.961 1_455 S
H824 C838 0.960 1_455 S
H825 C838 0.961 . S
H826 C838 0.959 . S
H827 C841 0.929 . S
H828 C842 0.931 . S
H829 C844 0.930 . S
C830 H818 0.930 . S
C830 C831 1.399 . S
C830 C835 1.399 . S
C831 C830 1.399 . S
C831 C832 1.376 . S
C832 H819 0.930 . S
C832 C831 1.376 . S
C832 C833 1.388 . S
C833 H820 0.930 . S
C833 C832 1.388 . S
C833 C834 1.390 . S
C834 C833 1.390 . S
C834 C835 1.394 . S
C834 C840 1.465 1_455 S
C835 C830 1.399 . S
C835 C834 1.394 . S
C835 C836 1.516 1_455 S
C836 C835 1.516 1_655 S
C836 C837 1.502 . S
C836 C838 1.561 . S
C836 C839 1.526 . S
C837 H821 0.959 . S
C837 H822 0.959 . S
C837 H823 0.961 1_655 S
C837 C836 1.502 . S
C838 H824 0.960 1_655 S
C838 H825 0.961 . S
C838 H826 0.959 . S
C838 C836 1.561 . S
C839 C836 1.526 . S
C839 C840 1.396 . S
C839 C844 1.390 . S
C840 C834 1.465 1_655 S
C840 C839 1.396 . S
C840 C841 1.399 . S
C841 H827 0.929 . S
C841 C840 1.399 . S
C841 C842 1.385 . S
C842 H828 0.931 . S
C842 C841 1.385 . S
C842 C843 1.389 . S
C843 C842 1.389 . S
C843 C844 1.387 . S
C844 H829 0.930 . S
C844 C839 1.390 . S
C844 C843 1.387 . S
H845 C857 0.930 . S
H846 C859 0.930 . S
H847 C860 0.930 . S
H848 C864 0.959 . S
H849 C864 0.959 . S
H850 C864 0.961 . S
H851 C865 0.960 . S
H852 C865 0.961 . S
H853 C865 0.959 . S
H854 C868 0.929 . S
H855 C869 0.931 . S
H856 C871 0.930 . S
C857 H845 0.930 . S
C857 C858 1.399 . S
C857 C862 1.399 . S
C858 C857 1.399 . S
C858 C859 1.376 . S
C859 H846 0.930 . S
C859 C858 1.376 . S
C859 C860 1.388 . S
C860 H847 0.930 . S
C860 C859 1.388 . S
C860 C861 1.390 . S
C861 C860 1.390 . S
C861 C862 1.394 . S
C861 C867 1.465 . S
C862 C857 1.399 . S
C862 C861 1.394 . S
C862 C863 1.516 . S
C863 C862 1.516 . S
C863 C864 1.502 . S
C863 C865 1.561 . S
C863 C866 1.526 . S
C864 H848 0.959 . S
C864 H849 0.959 . S
C864 H850 0.961 . S
C864 C863 1.502 . S
C865 H851 0.960 . S
C865 H852 0.961 . S
C865 H853 0.959 . S
C865 C863 1.561 . S
C866 C863 1.526 . S
C866 C867 1.396 . S
C866 C871 1.390 . S
C867 C861 1.465 . S
C867 C866 1.396 . S
C867 C868 1.399 . S
C868 H854 0.929 . S
C868 C867 1.399 . S
C868 C869 1.385 . S
C869 H855 0.931 . S
C869 C868 1.385 . S
C869 C870 1.389 . S
C870 C869 1.389 . S
C870 C871 1.387 . S
C871 H856 0.930 . S
C871 C866 1.390 . S
C871 C870 1.387 . S
H872 C884 0.930 . S
H873 C886 0.930 . S
H874 C887 0.930 . S
H875 C891 0.959 . S
H876 C891 0.959 . S
H877 C891 0.961 . S
H878 C892 0.960 . S
H879 C892 0.961 . S
H880 C892 0.959 . S
H881 C895 0.929 . S
H882 C896 0.931 . S
H883 C898 0.930 . S
C884 H872 0.930 . S
C884 C885 1.399 . S
C884 C889 1.399 . S
C885 C884 1.399 . S
C885 C886 1.376 . S
C886 H873 0.930 . S
C886 C885 1.376 . S
C886 C887 1.388 . S
C887 H874 0.930 . S
C887 C886 1.388 . S
C887 C888 1.390 . S
C888 C887 1.390 . S
C888 C889 1.394 . S
C888 C894 1.465 . S
C889 C884 1.399 . S
C889 C888 1.394 . S
C889 C890 1.516 . S
C890 C889 1.516 . S
C890 C891 1.502 . S
C890 C892 1.561 . S
C890 C893 1.526 . S
C891 H875 0.959 . S
C891 H876 0.959 . S
C891 H877 0.961 . S
C891 C890 1.502 . S
C892 H878 0.960 . S
C892 H879 0.961 . S
C892 H880 0.959 . S
C892 C890 1.561 . S
C893 C890 1.526 . S
C893 C894 1.396 . S
C893 C898 1.390 . S
C894 C888 1.465 . S
C894 C893 1.396 . S
C894 C895 1.399 . S
C895 H881 0.929 . S
C895 C894 1.399 . S
C895 C896 1.385 . S
C896 H882 0.931 . S
C896 C895 1.385 . S
C896 C897 1.389 . S
C897 C896 1.389 . S
C897 C898 1.387 . S
C898 H883 0.930 . S
C898 C893 1.390 . S
C898 C897 1.387 . S
H899 C911 0.930 . S
H900 C913 0.930 . S
H901 C914 0.930 . S
H902 C918 0.959 . S
H903 C918 0.959 . S
H904 C918 0.961 . S
H905 C919 0.960 . S
H906 C919 0.961 . S
H907 C919 0.959 . S
H908 C922 0.929 . S
H909 C923 0.931 . S
H910 C925 0.930 . S
C911 H899 0.930 . S
C911 C912 1.399 . S
C911 C916 1.399 . S
C912 C911 1.399 . S
C912 C913 1.376 . S
C913 H900 0.930 . S
C913 C912 1.376 . S
C913 C914 1.388 . S
C914 H901 0.930 . S
C914 C913 1.388 . S
C914 C915 1.390 . S
C915 C914 1.390 . S
C915 C916 1.394 . S
C915 C921 1.465 . S
C916 C911 1.399 . S
C916 C915 1.394 . S
C916 C917 1.516 . S
C917 C916 1.516 . S
C917 C918 1.502 . S
C917 C919 1.561 . S
C917 C920 1.526 . S
C918 H902 0.959 . S
C918 H903 0.959 . S
C918 H904 0.961 . S
C918 C917 1.502 . S
C919 H905 0.960 . S
C919 H906 0.961 . S
C919 H907 0.959 . S
C919 C917 1.561 . S
C920 C917 1.526 . S
C920 C921 1.396 . S
C920 C925 1.390 . S
C921 C915 1.465 . S
C921 C920 1.396 . S
C921 C922 1.399 . S
C922 H908 0.929 . S
C922 C921 1.399 . S
C922 C923 1.385 . S
C923 H909 0.931 . S
C923 C922 1.385 . S
C923 C924 1.389 . S
C924 C923 1.389 . S
C924 C925 1.387 . S
C925 H910 0.930 . S
C925 C920 1.390 . S
C925 C924 1.387 . S
H926 C938 0.930 . S
H927 C940 0.930 . S
H928 C941 0.930 . S
H929 C945 0.959 . S
H930 C945 0.959 . S
H931 C945 0.961 . S
H932 C946 0.960 . S
H933 C946 0.961 . S
H934 C946 0.959 . S
H935 C949 0.929 . S
H936 C950 0.931 . S
H937 C952 0.930 . S
C938 H926 0.930 . S
C938 C939 1.399 . S
C938 C943 1.399 . S
C939 C938 1.399 . S
C939 C940 1.376 . S
C940 H927 0.930 . S
C940 C939 1.376 . S
C940 C941 1.388 . S
C941 H928 0.930 . S
C941 C940 1.388 . S
C941 C942 1.390 . S
C942 C941 1.390 . S
C942 C943 1.394 . S
C942 C948 1.465 . S
C943 C938 1.399 . S
C943 C942 1.394 . S
C943 C944 1.516 . S
C944 C943 1.516 . S
C944 C945 1.502 . S
C944 C946 1.561 . S
C944 C947 1.526 . S
C945 H929 0.959 . S
C945 H930 0.959 . S
C945 H931 0.961 . S
C945 C944 1.502 . S
C946 H932 0.960 . S
C946 H933 0.961 . S
C946 H934 0.959 . S
C946 C944 1.561 . S
C947 C944 1.526 . S
C947 C948 1.396 . S
C947 C952 1.390 . S
C948 C942 1.465 . S
C948 C947 1.396 . S
C948 C949 1.399 . S
C949 H935 0.929 . S
C949 C948 1.399 . S
C949 C950 1.385 . S
C950 H936 0.931 . S
C950 C949 1.385 . S
C950 C951 1.389 . S
C951 C950 1.389 . S
C951 C952 1.387 . S
C952 H937 0.930 . S
C952 C947 1.390 . S
C952 C951 1.387 . S
H953 C965 0.930 . S
H954 C967 0.930 . S
H955 C968 0.930 . S
H956 C972 0.959 . S
H957 C972 0.959 . S
H958 C972 0.961 . S
H959 C973 0.960 . S
H960 C973 0.961 . S
H961 C973 0.959 . S
H962 C976 0.929 . S
H963 C977 0.931 . S
H964 C979 0.930 . S
C965 H953 0.930 . S
C965 C966 1.399 . S
C965 C970 1.399 . S
C966 C965 1.399 . S
C966 C967 1.376 . S
C967 H954 0.930 . S
C967 C966 1.376 . S
C967 C968 1.388 . S
C968 H955 0.930 . S
C968 C967 1.388 . S
C968 C969 1.390 . S
C969 C968 1.390 . S
C969 C970 1.394 . S
C969 C975 1.465 . S
C970 C965 1.399 . S
C970 C969 1.394 . S
C970 C971 1.516 . S
C971 C970 1.516 . S
C971 C972 1.502 . S
C971 C973 1.561 . S
C971 C974 1.526 . S
C972 H956 0.959 . S
C972 H957 0.959 . S
C972 H958 0.961 . S
C972 C971 1.502 . S
C973 H959 0.960 . S
C973 H960 0.961 . S
C973 H961 0.959 . S
C973 C971 1.561 . S
C974 C971 1.526 . S
C974 C975 1.396 . S
C974 C979 1.390 . S
C975 C969 1.465 . S
C975 C974 1.396 . S
C975 C976 1.399 . S
C976 H962 0.929 . S
C976 C975 1.399 . S
C976 C977 1.385 . S
C977 H963 0.931 . S
C977 C976 1.385 . S
C977 C978 1.389 . S
C978 C977 1.389 . S
C978 C979 1.387 . S
C979 H964 0.930 . S
C979 C974 1.390 . S
C979 C978 1.387 . S
H980 C992 0.930 . S
H981 C994 0.930 . S
H982 C995 0.930 . S
H983 C999 0.959 . S
H984 C999 0.959 . S
H985 C999 0.961 . S
H986 C1000 0.960 . S
H987 C1000 0.961 . S
H988 C1000 0.959 . S
H989 C1003 0.929 . S
H990 C1004 0.931 . S
H991 C1006 0.930 . S
C992 H980 0.930 . S
C992 C993 1.399 . S
C992 C997 1.399 . S
C993 C992 1.399 . S
C993 C994 1.376 . S
C994 H981 0.930 . S
C994 C993 1.376 . S
C994 C995 1.388 . S
C995 H982 0.930 . S
C995 C994 1.388 . S
C995 C996 1.390 . S
C996 C995 1.390 . S
C996 C997 1.394 . S
C996 C1002 1.465 . S
C997 C992 1.399 . S
C997 C996 1.394 . S
C997 C998 1.516 . S
C998 C997 1.516 . S
C998 C999 1.502 . S
C998 C1000 1.561 . S
C998 C1001 1.526 . S
C999 H983 0.959 . S
C999 H984 0.959 . S
C999 H985 0.961 . S
C999 C998 1.502 . S
C1000 H986 0.960 . S
C1000 H987 0.961 . S
C1000 H988 0.959 . S
C1000 C998 1.561 . S
C1001 C998 1.526 . S
C1001 C1002 1.396 . S
C1001 C1006 1.390 . S
C1002 C996 1.465 . S
C1002 C1001 1.396 . S
C1002 C1003 1.399 . S
C1003 H989 0.929 . S
C1003 C1002 1.399 . S
C1003 C1004 1.385 . S
C1004 H990 0.931 . S
C1004 C1003 1.385 . S
C1004 C1005 1.389 . S
C1005 C1004 1.389 . S
C1005 C1006 1.387 . S
C1006 H991 0.930 . S
C1006 C1001 1.390 . S
C1006 C1005 1.387 . S
H1007 C1019 0.930 . S
H1008 C1021 0.930 . S
H1009 C1022 0.930 . S
H1010 C1026 0.959 . S
H1011 C1026 0.959 . S
H1012 C1026 0.961 . S
H1013 C1027 0.960 . S
H1014 C1027 0.961 . S
H1015 C1027 0.959 . S
H1016 C1030 0.929 . S
H1017 C1031 0.931 . S
H1018 C1033 0.930 . S
C1019 H1007 0.930 . S
C1019 C1020 1.399 . S
C1019 C1024 1.399 . S
C1020 C1019 1.399 . S
C1020 C1021 1.376 . S
C1021 H1008 0.930 . S
C1021 C1020 1.376 . S
C1021 C1022 1.388 . S
C1022 H1009 0.930 . S
C1022 C1021 1.388 . S
C1022 C1023 1.390 . S
C1023 C1022 1.390 . S
C1023 C1024 1.394 . S
C1023 C1029 1.465 . S
C1024 C1019 1.399 . S
C1024 C1023 1.394 . S
C1024 C1025 1.516 . S
C1025 C1024 1.516 . S
C1025 C1026 1.502 . S
C1025 C1027 1.561 . S
C1025 C1028 1.526 . S
C1026 H1010 0.959 . S
C1026 H1011 0.959 . S
C1026 H1012 0.961 . S
C1026 C1025 1.502 . S
C1027 H1013 0.960 . S
C1027 H1014 0.961 . S
C1027 H1015 0.959 . S
C1027 C1025 1.561 . S
C1028 C1025 1.526 . S
C1028 C1029 1.396 . S
C1028 C1033 1.390 . S
C1029 C1023 1.465 . S
C1029 C1028 1.396 . S
C1029 C1030 1.399 . S
C1030 H1016 0.929 . S
C1030 C1029 1.399 . S
C1030 C1031 1.385 . S
C1031 H1017 0.931 . S
C1031 C1030 1.385 . S
C1031 C1032 1.389 . S
C1032 C1031 1.389 . S
C1032 C1033 1.387 . S
C1033 H1018 0.930 . S
C1033 C1028 1.390 . S
C1033 C1032 1.387 . S
H1034 C1046 0.930 . S
H1035 C1048 0.930 . S
H1036 C1049 0.930 . S
H1037 C1053 0.959 . S
H1038 C1053 0.959 . S
H1039 C1053 0.961 . S
H1040 C1054 0.960 . S
H1041 C1054 0.961 . S
H1042 C1054 0.959 . S
H1043 C1057 0.929 . S
H1044 C1058 0.931 . S
H1045 C1060 0.930 . S
C1046 H1034 0.930 . S
C1046 C1047 1.399 . S
C1046 C1051 1.399 . S
C1047 C1046 1.399 . S
C1047 C1048 1.376 . S
C1048 H1035 0.930 . S
C1048 C1047 1.376 . S
C1048 C1049 1.388 . S
C1049 H1036 0.930 . S
C1049 C1048 1.388 . S
C1049 C1050 1.390 . S
C1050 C1049 1.390 . S
C1050 C1051 1.394 . S
C1050 C1056 1.465 . S
C1051 C1046 1.399 . S
C1051 C1050 1.394 . S
C1051 C1052 1.516 . S
C1052 C1051 1.516 . S
C1052 C1053 1.502 . S
C1052 C1054 1.561 . S
C1052 C1055 1.526 . S
C1053 H1037 0.959 . S
C1053 H1038 0.959 . S
C1053 H1039 0.961 . S
C1053 C1052 1.502 . S
C1054 H1040 0.960 . S
C1054 H1041 0.961 . S
C1054 H1042 0.959 . S
C1054 C1052 1.561 . S
C1055 C1052 1.526 . S
C1055 C1056 1.396 . S
C1055 C1060 1.390 . S
C1056 C1050 1.465 . S
C1056 C1055 1.396 . S
C1056 C1057 1.399 . S
C1057 H1043 0.929 . S
C1057 C1056 1.399 . S
C1057 C1058 1.385 . S
C1058 H1044 0.931 . S
C1058 C1057 1.385 . S
C1058 C1059 1.389 . S
C1059 C1058 1.389 . S
C1059 C1060 1.387 . S
C1060 H1045 0.930 . S
C1060 C1055 1.390 . S
C1060 C1059 1.387 . S
H1061 C1073 0.930 . S
H1062 C1075 0.930 . S
H1063 C1076 0.930 . S
H1064 C1080 0.959 . S
H1065 C1080 0.959 . S
H1066 C1080 0.961 . S
H1067 C1081 0.960 . S
H1068 C1081 0.961 . S
H1069 C1081 0.959 . S
H1070 C1084 0.929 . S
H1071 C1085 0.931 . S
H1072 C1087 0.930 . S
C1073 H1061 0.930 . S
C1073 C1074 1.399 . S
C1073 C1078 1.399 . S
C1074 C1073 1.399 . S
C1074 C1075 1.376 . S
C1075 H1062 0.930 . S
C1075 C1074 1.376 . S
C1075 C1076 1.388 . S
C1076 H1063 0.930 . S
C1076 C1075 1.388 . S
C1076 C1077 1.390 . S
C1077 C1076 1.390 . S
C1077 C1078 1.394 . S
C1077 C1083 1.465 . S
C1078 C1073 1.399 . S
C1078 C1077 1.394 . S
C1078 C1079 1.516 . S
C1079 C1078 1.516 . S
C1079 C1080 1.502 . S
C1079 C1081 1.561 . S
C1079 C1082 1.526 . S
C1080 H1064 0.959 . S
C1080 H1065 0.959 . S
C1080 H1066 0.961 . S
C1080 C1079 1.502 . S
C1081 H1067 0.960 . S
C1081 H1068 0.961 . S
C1081 H1069 0.959 . S
C1081 C1079 1.561 . S
C1082 C1079 1.526 . S
C1082 C1083 1.396 . S
C1082 C1087 1.390 . S
C1083 C1077 1.465 . S
C1083 C1082 1.396 . S
C1083 C1084 1.399 . S
C1084 H1070 0.929 . S
C1084 C1083 1.399 . S
C1084 C1085 1.385 . S
C1085 H1071 0.931 . S
C1085 C1084 1.385 . S
C1085 C1086 1.389 . S
C1086 C1085 1.389 . S
C1086 C1087 1.387 . S
C1087 H1072 0.930 . S
C1087 C1082 1.390 . S
C1087 C1086 1.387 . S
C237 C11 1.366 . S
C249 C180 1.376 . S
C264 C194 1.391 . S
C276 C25 1.373 . S
C291 C39 1.385 . S
C303 C208 1.380 . S
C318 C222 1.375 . S
C330 C53 1.366 . S
C345 C123 1.388 . S
C357 C68 1.381 . S
C372 C82 1.390 . S
C384 C137 1.365 . S
C399 C151 1.354 . S
C411 C96 1.388 . S
C426 C110 1.375 . S
C438 C165 1.361 . S
C453 C4 1.474 . S
C465 C32 1.469 . S
C480 C18 1.463 . S
C492 C46 1.441 . S
C507 C60 1.363 . S
C519 C88 1.361 . S
C534 C74 1.363 . S
C546 C102 1.367 . S
C561 C144 1.471 . S
C573 C116 1.473 . S
C588 C130 1.433 . S
C600 C158 1.453 . S
C615 C200 1.363 . S
C627 C172 1.361 . S
C642 C186 1.365 . S
C654 C214 1.362 . S
C669 C89 1.293 . S
C681 C5 1.322 . S
C696 C103 1.351 . S
C708 C19 1.368 . S
C723 C33 1.326 . S
C735 C61 1.349 . S
C750 C47 1.376 . S
C762 C75 1.369 . S
C777 C201 1.281 . S
C789 C117 1.258 . S
C804 C131 1.241 . S
C816 C215 1.232 . S
C831 C173 1.301 . S
C843 C145 1.329 . S
C858 C159 1.357 . S
C870 C187 1.370 . S
C885 C12 1.408 . S
C897 C54 1.420 . S
C912 C40 1.405 . S
C924 C26 1.412 . S
C939 C67 1.330 . S
C951 C109 1.299 . S
C966 C81 1.295 . S
C978 C95 1.312 . S
C993 C166 1.405 . S
C1005 C124 1.413 . S
C1020 C138 1.405 . S
C1032 C152 1.411 . S
C1047 C221 1.331 . S
C1059 C179 1.297 . S
C1074 C193 1.284 . S
C1086 C207 1.329 . S
