# Generated by pormake.
# Topology lcy-a, (4)-cn, num edge types: 1
# Building blocks:
#     Node 0, Type 0, BuildingBlock: TATPOV_clean_sbu_0, # of connection points: 4
#     Node 1, Type 0, BuildingBlock: TATPOV_clean_sbu_0, # of connection points: 4
#     Node 2, Type 0, BuildingBlock: TATPOV_clean_sbu_0, # of connection points: 4
#     Node 3, Type 0, BuildingBlock: TATPOV_clean_sbu_0, # of connection points: 4
#     Node 4, Type 0, BuildingBlock: TATPOV_clean_sbu_0, # of connection points: 4
#     Node 5, Type 0, BuildingBlock: TATPOV_clean_sbu_0, # of connection points: 4
#     Node 6, Type 0, BuildingBlock: TATPOV_clean_sbu_0, # of connection points: 4
#     Node 7, Type 0, BuildingBlock: TATPOV_clean_sbu_0, # of connection points: 4
#     Node 8, Type 0, BuildingBlock: TATPOV_clean_sbu_0, # of connection points: 4
#     Node 9, Type 0, BuildingBlock: TATPOV_clean_sbu_0, # of connection points: 4
#     Node 10, Type 0, BuildingBlock: TATPOV_clean_sbu_0, # of connection points: 4
#     Node 11, Type 0, BuildingBlock: TATPOV_clean_sbu_0, # of connection points: 4
#     Node 12, Type 0, BuildingBlock: TATPOV_clean_sbu_0, # of connection points: 4
#     Node 13, Type 0, BuildingBlock: TATPOV_clean_sbu_0, # of connection points: 4
#     Node 14, Type 0, BuildingBlock: TATPOV_clean_sbu_0, # of connection points: 4
#     Node 15, Type 0, BuildingBlock: TATPOV_clean_sbu_0, # of connection points: 4
#     Node 16, Type 0, BuildingBlock: TATPOV_clean_sbu_0, # of connection points: 4
#     Node 17, Type 0, BuildingBlock: TATPOV_clean_sbu_0, # of connection points: 4
#     Node 18, Type 0, BuildingBlock: TATPOV_clean_sbu_0, # of connection points: 4
#     Node 19, Type 0, BuildingBlock: TATPOV_clean_sbu_0, # of connection points: 4
#     Node 20, Type 0, BuildingBlock: TATPOV_clean_sbu_0, # of connection points: 4
#     Node 21, Type 0, BuildingBlock: TATPOV_clean_sbu_0, # of connection points: 4
#     Node 22, Type 0, BuildingBlock: TATPOV_clean_sbu_0, # of connection points: 4
#     Node 23, Type 0, BuildingBlock: TATPOV_clean_sbu_0, # of connection points: 4
#     Edge 24, Type (0, 0), BuildingBlock: MIFKUJ_clean_linker_0, # of connection points: 2
#     Edge 25, Type (0, 0), BuildingBlock: MIFKUJ_clean_linker_0, # of connection points: 2
#     Edge 26, Type (0, 0), BuildingBlock: MIFKUJ_clean_linker_0, # of connection points: 2
#     Edge 27, Type (0, 0), BuildingBlock: MIFKUJ_clean_linker_0, # of connection points: 2
#     Edge 28, Type (0, 0), BuildingBlock: MIFKUJ_clean_linker_0, # of connection points: 2
#     Edge 29, Type (0, 0), BuildingBlock: MIFKUJ_clean_linker_0, # of connection points: 2
#     Edge 30, Type (0, 0), BuildingBlock: MIFKUJ_clean_linker_0, # of connection points: 2
#     Edge 31, Type (0, 0), BuildingBlock: MIFKUJ_clean_linker_0, # of connection points: 2
#     Edge 32, Type (0, 0), BuildingBlock: MIFKUJ_clean_linker_0, # of connection points: 2
#     Edge 33, Type (0, 0), BuildingBlock: MIFKUJ_clean_linker_0, # of connection points: 2
#     Edge 34, Type (0, 0), BuildingBlock: MIFKUJ_clean_linker_0, # of connection points: 2
#     Edge 35, Type (0, 0), BuildingBlock: MIFKUJ_clean_linker_0, # of connection points: 2
#     Edge 36, Type (0, 0), BuildingBlock: MIFKUJ_clean_linker_0, # of connection points: 2
#     Edge 37, Type (0, 0), BuildingBlock: MIFKUJ_clean_linker_0, # of connection points: 2
#     Edge 38, Type (0, 0), BuildingBlock: MIFKUJ_clean_linker_0, # of connection points: 2
#     Edge 39, Type (0, 0), BuildingBlock: MIFKUJ_clean_linker_0, # of connection points: 2
#     Edge 40, Type (0, 0), BuildingBlock: MIFKUJ_clean_linker_0, # of connection points: 2
#     Edge 41, Type (0, 0), BuildingBlock: MIFKUJ_clean_linker_0, # of connection points: 2
#     Edge 42, Type (0, 0), BuildingBlock: MIFKUJ_clean_linker_0, # of connection points: 2
#     Edge 43, Type (0, 0), BuildingBlock: MIFKUJ_clean_linker_0, # of connection points: 2
#     Edge 44, Type (0, 0), BuildingBlock: MIFKUJ_clean_linker_0, # of connection points: 2
#     Edge 45, Type (0, 0), BuildingBlock: MIFKUJ_clean_linker_0, # of connection points: 2
#     Edge 46, Type (0, 0), BuildingBlock: MIFKUJ_clean_linker_0, # of connection points: 2
#     Edge 47, Type (0, 0), BuildingBlock: MIFKUJ_clean_linker_0, # of connection points: 2
#     Edge 48, Type (0, 0), BuildingBlock: MIFKUJ_clean_linker_0, # of connection points: 2
#     Edge 49, Type (0, 0), BuildingBlock: MIFKUJ_clean_linker_0, # of connection points: 2
#     Edge 50, Type (0, 0), BuildingBlock: MIFKUJ_clean_linker_0, # of connection points: 2
#     Edge 51, Type (0, 0), BuildingBlock: MIFKUJ_clean_linker_0, # of connection points: 2
#     Edge 52, Type (0, 0), BuildingBlock: MIFKUJ_clean_linker_0, # of connection points: 2
#     Edge 53, Type (0, 0), BuildingBlock: MIFKUJ_clean_linker_0, # of connection points: 2
#     Edge 54, Type (0, 0), BuildingBlock: MIFKUJ_clean_linker_0, # of connection points: 2
#     Edge 55, Type (0, 0), BuildingBlock: MIFKUJ_clean_linker_0, # of connection points: 2
#     Edge 56, Type (0, 0), BuildingBlock: MIFKUJ_clean_linker_0, # of connection points: 2
#     Edge 57, Type (0, 0), BuildingBlock: MIFKUJ_clean_linker_0, # of connection points: 2
#     Edge 58, Type (0, 0), BuildingBlock: MIFKUJ_clean_linker_0, # of connection points: 2
#     Edge 59, Type (0, 0), BuildingBlock: MIFKUJ_clean_linker_0, # of connection points: 2
#     Edge 60, Type (0, 0), BuildingBlock: MIFKUJ_clean_linker_0, # of connection points: 2
#     Edge 61, Type (0, 0), BuildingBlock: MIFKUJ_clean_linker_0, # of connection points: 2
#     Edge 62, Type (0, 0), BuildingBlock: MIFKUJ_clean_linker_0, # of connection points: 2
#     Edge 63, Type (0, 0), BuildingBlock: MIFKUJ_clean_linker_0, # of connection points: 2
#     Edge 64, Type (0, 0), BuildingBlock: MIFKUJ_clean_linker_0, # of connection points: 2
#     Edge 65, Type (0, 0), BuildingBlock: MIFKUJ_clean_linker_0, # of connection points: 2
#     Edge 66, Type (0, 0), BuildingBlock: MIFKUJ_clean_linker_0, # of connection points: 2
#     Edge 67, Type (0, 0), BuildingBlock: MIFKUJ_clean_linker_0, # of connection points: 2
#     Edge 68, Type (0, 0), BuildingBlock: MIFKUJ_clean_linker_0, # of connection points: 2
#     Edge 69, Type (0, 0), BuildingBlock: MIFKUJ_clean_linker_0, # of connection points: 2
#     Edge 70, Type (0, 0), BuildingBlock: MIFKUJ_clean_linker_0, # of connection points: 2
#     Edge 71, Type (0, 0), BuildingBlock: MIFKUJ_clean_linker_0, # of connection points: 2
# Relax obj value: 0.374
# Max RMSD: 0.188
# Mean RMSD: 0.188
data_MOF--net-lcy-a--node1-TATPOV_clean_sbu_0--edge1-MIFKUJ_clean_linker_0
_symmetry_space_group_name_H-M    P1
_symmetry_Int_Tables_number       1
_symmetry_cell_setting            triclinic
loop_
_symmetry_equiv_pos_as_xyz
'x, y, z'
_cell_length_a     72.60449
_cell_length_b     72.639753
_cell_length_c     72.669268
_cell_angle_alpha  90.007937
_cell_angle_beta   90.02196
_cell_angle_gamma 89.99831
loop_
_atom_site_label
_atom_site_type_symbol
_atom_site_fract_x
_atom_site_fract_y
_atom_site_fract_z
_atom_type_partial_charge
Zn0 Zn 0.21733 0.31694 0.37872 0.0
Zn1 Zn 0.18762 0.30276 0.39263 0.0
O2 O 0.20478 0.28048 0.38777 0.0
O3 O 0.22965 0.29262 0.37554 0.0
O4 O 0.16607 0.28948 0.40376 0.0
O5 O 0.2227 0.33076 0.40123 0.0
O6 O 0.19701 0.32029 0.41354 0.0
C7 C 0.22085 0.27866 0.38105 0.0
C8 C 0.18553 0.32492 0.35715 0.0
O9 O 0.17734 0.31463 0.36874 0.0
O10 O 0.20252 0.32833 0.35881 0.0
C11 C 0.16128 0.27483 0.39549 0.0
O12 O 0.16889 0.27082 0.37959 0.0
C13 C 0.21167 0.32995 0.41462 0.0
Zn14 Zn 0.92257 0.96851 0.6382 0.0
Zn15 Zn 0.94299 0.93991 0.645 0.0
O16 O 0.96207 0.95873 0.63576 0.0
O17 O 0.94449 0.98229 0.62862 0.0
O18 O 0.95893 0.91836 0.65214 0.0
O19 O 0.91502 0.97194 0.66408 0.0
O20 O 0.93057 0.94659 0.67015 0.0
C21 C 0.96026 0.9749 0.62927 0.0
C22 C 0.91259 0.93815 0.61573 0.0
O23 O 0.92666 0.93088 0.62337 0.0
O24 O 0.90708 0.95386 0.62083 0.0
C25 C 0.97429 0.91512 0.64437 0.0
O26 O 0.97918 0.92492 0.62999 0.0
C27 C 0.92037 0.9599 0.67539 0.0
Zn28 Zn 0.28587 0.67261 0.87131 0.0
Zn29 Zn 0.30648 0.69091 0.89144 0.0
O30 O 0.28641 0.70919 0.88562 0.0
O31 O 0.27658 0.6968 0.8599 0.0
O32 O 0.32266 0.70719 0.90669 0.0
O33 O 0.27271 0.6623 0.89288 0.0
O34 O 0.2966 0.67085 0.90932 0.0
C35 C 0.27705 0.71033 0.87091 0.0
C36 C 0.31961 0.67031 0.85742 0.0
O37 O 0.32026 0.68494 0.86704 0.0
O38 O 0.30768 0.6584 0.86153 0.0
C39 C 0.33699 0.71557 0.90118 0.0
O40 O 0.34374 0.71206 0.88479 0.0
C41 C 0.28139 0.66214 0.90796 0.0
Zn42 Zn 0.57582 0.03121 0.13393 0.0
Zn43 Zn 0.5544 0.05922 0.14339 0.0
O44 O 0.53547 0.0398 0.13587 0.0
O45 O 0.5529 0.01639 0.12777 0.0
O46 O 0.53838 0.07979 0.15266 0.0
O47 O 0.58706 0.02913 0.15871 0.0
O48 O 0.56914 0.05217 0.16706 0.0
C49 C 0.53706 0.02342 0.12988 0.0
C50 C 0.58126 0.06307 0.11123 0.0
O51 O 0.56787 0.06964 0.12048 0.0
O52 O 0.58772 0.04737 0.11507 0.0
C53 C 0.52275 0.08331 0.14558 0.0
O54 O 0.51761 0.07443 0.13069 0.0
C55 C 0.58136 0.04015 0.17088 0.0
Zn56 Zn 0.71764 0.17769 0.61339 0.0
Zn57 Zn 0.69097 0.19449 0.59884 0.0
O58 O 0.70907 0.215 0.6053 0.0
O59 O 0.72677 0.20112 0.6255 0.0
O60 O 0.6718 0.21007 0.58707 0.0
O61 O 0.72709 0.17056 0.58837 0.0
O62 O 0.69961 0.17765 0.5777 0.0
C63 C 0.72152 0.21568 0.61754 0.0
C64 C 0.68434 0.16818 0.63048 0.0
O65 O 0.67907 0.18246 0.62175 0.0
O66 O 0.69997 0.16128 0.62708 0.0
C67 C 0.66167 0.22101 0.59618 0.0
O68 O 0.66182 0.22051 0.61424 0.0
C69 C 0.71552 0.17067 0.57537 0.0
Zn70 Zn 0.07375 0.46749 0.87157 0.0
Zn71 Zn 0.05502 0.44228 0.85629 0.0
O72 O 0.03477 0.46023 0.86369 0.0
O73 O 0.05023 0.47832 0.88237 0.0
O74 O 0.04067 0.42282 0.84299 0.0
O75 O 0.08464 0.47703 0.84836 0.0
O76 O 0.07243 0.45234 0.83581 0.0
C77 C 0.03505 0.47314 0.8755 0.0
C78 C 0.0798 0.43379 0.88893 0.0
O79 O 0.06553 0.42959 0.87964 0.0
O80 O 0.08804 0.44873 0.88568 0.0
C81 C 0.02549 0.417 0.84946 0.0
O82 O 0.02009 0.42274 0.86574 0.0
C83 C 0.08255 0.46665 0.83456 0.0
Zn84 Zn 0.77641 0.81513 0.11589 0.0
Zn85 Zn 0.80589 0.80121 0.10097 0.0
O86 O 0.79008 0.77853 0.10711 0.0
O87 O 0.76319 0.79075 0.11382 0.0
O88 O 0.82625 0.78941 0.08706 0.0
O89 O 0.77348 0.8342 0.0963 0.0
O90 O 0.79499 0.81883 0.08145 0.0
C91 C 0.77307 0.7767 0.11089 0.0
C92 C 0.80973 0.8193 0.13761 0.0
O93 O 0.81815 0.81297 0.12364 0.0
O94 O 0.79237 0.82058 0.1377 0.0
C95 C 0.8372 0.77809 0.09462 0.0
O96 O 0.83626 0.77547 0.11249 0.0
C97 C 0.78298 0.8316 0.08197 0.0
Zn98 Zn 0.425 0.53444 0.36954 0.0
Zn99 Zn 0.44269 0.55945 0.35496 0.0
O100 O 0.46285 0.54076 0.36141 0.0
O101 O 0.448 0.52568 0.38296 0.0
O102 O 0.45718 0.57941 0.3429 0.0
O103 O 0.41855 0.52342 0.34514 0.0
O104 O 0.42521 0.55078 0.33409 0.0
C105 C 0.46291 0.52938 0.37472 0.0
C106 C 0.41686 0.56712 0.38644 0.0
O107 O 0.43206 0.57092 0.37862 0.0
O108 O 0.40805 0.55304 0.38128 0.0
C109 C 0.47225 0.58481 0.34993 0.0
O110 O 0.47729 0.57832 0.36605 0.0
C111 C 0.41838 0.53477 0.33198 0.0
Zn112 Zn 0.38209 0.21924 0.31572 0.0
Zn113 Zn 0.39413 0.19145 0.30168 0.0
O114 O 0.38688 0.20657 0.27888 0.0
O115 O 0.36908 0.22677 0.2926 0.0
O116 O 0.40595 0.16937 0.28995 0.0
O117 O 0.40578 0.2302 0.32317 0.0
O118 O 0.41577 0.20226 0.31737 0.0
C119 C 0.375 0.21941 0.278 0.0
C120 C 0.36242 0.19021 0.32902 0.0
O121 O 0.37035 0.18269 0.31526 0.0
O122 O 0.36788 0.20575 0.33456 0.0
C123 C 0.39846 0.16077 0.27668 0.0
O124 O 0.38149 0.16492 0.27196 0.0
C125 C 0.41843 0.21831 0.32402 0.0
Zn126 Zn 0.02459 0.1299 0.58751 0.0
Zn127 Zn 0.06403 0.14678 0.55443 0.0
O128 O 0.03819 0.13601 0.54706 0.0
O129 O 0.01327 0.12534 0.56193 0.0
O130 O 0.07564 0.15378 0.53078 0.0
O131 O 0.04321 0.15016 0.58105 0.0
O132 O 0.0606 0.17085 0.56952 0.0
C133 C 0.02188 0.12915 0.54699 0.0
C134 C 0.06516 0.12018 0.57883 0.0
O135 O 0.07739 0.12553 0.56758 0.0
O136 O 0.05259 0.13181 0.58244 0.0
C137 C 0.08879 0.1463 0.52208 0.0
O138 O 0.09737 0.13202 0.52911 0.0
C139 C 0.04731 0.16712 0.5801 0.0
Zn140 Zn 0.11788 0.78356 0.81852 0.0
Zn141 Zn 0.10447 0.80832 0.80196 0.0
O142 O 0.11411 0.79187 0.78092 0.0
O143 O 0.13393 0.77607 0.79725 0.0
O144 O 0.0914 0.82819 0.78814 0.0
O145 O 0.09489 0.76968 0.82298 0.0
O146 O 0.083 0.79685 0.81742 0.0
C147 C 0.1275 0.78055 0.78171 0.0
C148 C 0.13291 0.81529 0.83131 0.0
O149 O 0.12651 0.82025 0.81575 0.0
O150 O 0.12738 0.80035 0.83824 0.0
C151 C 0.09871 0.8374 0.77521 0.0
O152 O 0.11636 0.83538 0.77177 0.0
C153 C 0.08118 0.78035 0.82317 0.0
Zn154 Zn 0.46345 0.8648 0.0648 0.0
Zn155 Zn 0.43605 0.85128 0.05193 0.0
O156 O 0.45216 0.85663 0.02933 0.0
O157 O 0.46877 0.87879 0.04133 0.0
O158 O 0.41396 0.84071 0.03943 0.0
O159 O 0.47472 0.84 0.06856 0.0
O160 O 0.44637 0.82964 0.0675 0.0
C161 C 0.46323 0.87002 0.02737 0.0
C162 C 0.43437 0.88277 0.07935 0.0
O163 O 0.42751 0.87531 0.06501 0.0
O164 O 0.44971 0.87711 0.08528 0.0
C165 C 0.40722 0.84951 0.02592 0.0
O166 O 0.41329 0.86615 0.02237 0.0
C167 C 0.4634 0.82698 0.07085 0.0
Zn168 Zn 0.87987 0.27335 0.68843 0.0
Zn169 Zn 0.89707 0.30331 0.69716 0.0
O170 O 0.89208 0.28958 0.72178 0.0
O171 O 0.88118 0.26255 0.71351 0.0
O172 O 0.9108 0.32512 0.70701 0.0
O173 O 0.8991 0.26654 0.67036 0.0
O174 O 0.91541 0.29051 0.67917 0.0
C175 C 0.88661 0.27344 0.72591 0.0
C176 C 0.85955 0.306 0.67948 0.0
O177 O 0.8741 0.31436 0.68454 0.0
O178 O 0.8584 0.28866 0.68063 0.0
C179 C 0.90287 0.33416 0.71972 0.0
O180 O 0.88578 0.33002 0.72401 0.0
C181 C 0.91369 0.27598 0.66941 0.0
Zn182 Zn 0.95662 0.62652 0.92281 0.0
Zn183 Zn 0.93445 0.64414 0.93971 0.0
O184 O 0.9534 0.6389 0.95967 0.0
O185 O 0.96357 0.61357 0.94686 0.0
O186 O 0.91488 0.65657 0.9544 0.0
O187 O 0.97021 0.64885 0.91493 0.0
O188 O 0.94475 0.66373 0.92148 0.0
C189 C 0.96228 0.62391 0.96084 0.0
C190 C 0.92457 0.6112 0.91583 0.0
O191 O 0.92234 0.61963 0.93102 0.0
O192 O 0.93763 0.61617 0.90555 0.0
C193 C 0.9104 0.64823 0.96911 0.0
O194 O 0.91736 0.63186 0.97242 0.0
C195 C 0.96079 0.66347 0.91429 0.0
Zn196 Zn 0.6173 0.72289 0.18703 0.0
Zn197 Zn 0.60225 0.69171 0.1975 0.0
O198 O 0.60762 0.70561 0.22176 0.0
O199 O 0.61684 0.73302 0.21271 0.0
O200 O 0.58947 0.66953 0.20743 0.0
O201 O 0.59659 0.72821 0.16998 0.0
O202 O 0.58264 0.70331 0.18014 0.0
C203 C 0.6126 0.72198 0.22547 0.0
C204 C 0.63872 0.69063 0.17779 0.0
O205 O 0.62538 0.6816 0.18465 0.0
O206 O 0.63863 0.70805 0.17774 0.0
C207 C 0.59744 0.66027 0.21994 0.0
O208 O 0.61449 0.66441 0.22438 0.0
C209 C 0.5828 0.71759 0.16992 0.0
Zn210 Zn 0.53064 0.36783 0.42542 0.0
Zn211 Zn 0.55608 0.35384 0.44356 0.0
O212 O 0.53729 0.36062 0.46331 0.0
O213 O 0.52143 0.38132 0.44807 0.0
O214 O 0.57445 0.34184 0.45987 0.0
O215 O 0.52058 0.34282 0.41922 0.0
O216 O 0.54814 0.3326 0.42637 0.0
C217 C 0.52557 0.37359 0.46311 0.0
C218 C 0.56371 0.3851 0.41737 0.0
O219 O 0.56793 0.37715 0.43242 0.0
O220 O 0.54921 0.3803 0.40898 0.0
C221 C 0.58897 0.34818 0.46726 0.0
O222 O 0.59513 0.36455 0.4627 0.0
C223 C 0.53225 0.32991 0.41945 0.0
Zn224 Zn 0.32751 0.37723 0.21236 0.0
Zn225 Zn 0.30599 0.39285 0.18905 0.0
O226 O 0.28804 0.38819 0.20993 0.0
O227 O 0.30439 0.36828 0.22585 0.0
O228 O 0.28916 0.40296 0.16985 0.0
O229 O 0.33952 0.40128 0.21804 0.0
O230 O 0.32404 0.41408 0.19532 0.0
C231 C 0.28927 0.37644 0.22278 0.0
C232 C 0.32853 0.35807 0.17984 0.0
O233 O 0.31455 0.36833 0.1773 0.0
O234 O 0.33904 0.36104 0.19337 0.0
C235 C 0.27389 0.39468 0.16766 0.0
O236 O 0.27039 0.37973 0.17721 0.0
C237 C 0.33611 0.41511 0.20803 0.0
Zn238 Zn 0.81389 0.11917 0.77356 0.0
Zn239 Zn 0.79914 0.10449 0.80361 0.0
O240 O 0.77625 0.11124 0.78832 0.0
O241 O 0.7883 0.12591 0.76469 0.0
O242 O 0.78752 0.09285 0.82568 0.0
O243 O 0.82643 0.0954 0.76727 0.0
O244 O 0.81529 0.08354 0.7929 0.0
C245 C 0.77434 0.12037 0.77352 0.0
C246 C 0.8244 0.13786 0.80658 0.0
O247 O 0.81298 0.127 0.81426 0.0
O248 O 0.82764 0.13673 0.78953 0.0
C249 C 0.77414 0.10101 0.83344 0.0
O250 O 0.76922 0.11741 0.82759 0.0
C251 C 0.82513 0.08211 0.77844 0.0
Zn252 Zn 0.13154 0.57017 0.00818 0.0
Zn253 Zn 0.14876 0.55133 0.06507 0.0
O254 O 0.14258 0.52888 0.04904 0.0
O255 O 0.13735 0.54989 0.02854 0.0
O256 O 0.15784 0.541 0.08854 0.0
O257 O 0.15039 0.56755 0.03079 0.0
O258 O 0.16996 0.56591 0.05329 0.0
C259 C 0.1373 0.5328 0.03287 0.0
C260 C 0.12027 0.57283 0.05153 0.0
O261 O 0.12535 0.56717 0.06731 0.0
O262 O 0.13049 0.5685 0.03781 0.0
C263 C 0.14966 0.52731 0.09565 0.0
O264 O 0.13287 0.52324 0.09029 0.0
C265 C 0.16642 0.57146 0.03711 0.0
Zn266 Zn 0.68161 0.88339 0.27645 0.0
Zn267 Zn 0.69716 0.89593 0.30709 0.0
O268 O 0.71921 0.89087 0.29011 0.0
O269 O 0.70634 0.88359 0.26367 0.0
O270 O 0.71026 0.90629 0.3291 0.0
O271 O 0.66513 0.90516 0.27473 0.0
O272 O 0.67997 0.91727 0.29829 0.0
C273 C 0.72059 0.88672 0.27319 0.0
C274 C 0.67572 0.86005 0.30794 0.0
O275 O 0.68477 0.87223 0.3167 0.0
O276 O 0.67298 0.86156 0.29082 0.0
C277 C 0.7248 0.89811 0.33443 0.0
O278 O 0.72948 0.88249 0.3266 0.0
C279 C 0.66779 0.91843 0.28564 0.0
Zn280 Zn 0.36954 0.42496 0.53634 0.0
Zn281 Zn 0.35246 0.44256 0.55896 0.0
O282 O 0.3588 0.46312 0.54096 0.0
O283 O 0.38195 0.44875 0.52809 0.0
O284 O 0.3382 0.45654 0.57781 0.0
O285 O 0.34762 0.4154 0.52326 0.0
O286 O 0.33309 0.4244 0.54816 0.0
C287 C 0.37291 0.4634 0.53064 0.0
C288 C 0.38548 0.41845 0.56878 0.0
O289 O 0.37655 0.4333 0.57161 0.0
O290 O 0.38118 0.40863 0.55513 0.0
C291 C 0.34556 0.46937 0.58713 0.0
O292 O 0.3634 0.47211 0.5859 0.0
C293 C 0.33312 0.41577 0.53286 0.0
Zn294 Zn 0.16724 0.6121 0.71333 0.0
Zn295 Zn 0.19074 0.60219 0.68754 0.0
O296 O 0.20788 0.60865 0.7087 0.0
O297 O 0.18898 0.62085 0.72896 0.0
O298 O 0.20828 0.59447 0.6677 0.0
O299 O 0.15817 0.5863 0.71588 0.0
O300 O 0.17598 0.57827 0.69267 0.0
C301 C 0.20521 0.6168 0.72396 0.0
C302 C 0.16393 0.63435 0.68167 0.0
O303 O 0.1785 0.62567 0.67724 0.0
O304 O 0.15491 0.62953 0.69575 0.0
C305 C 0.22417 0.60168 0.66621 0.0
O306 O 0.22886 0.61524 0.67722 0.0
C307 C 0.16398 0.57422 0.7048 0.0
Zn308 Zn 0.62152 0.92364 0.97289 0.0
Zn309 Zn 0.63998 0.94303 0.93593 0.0
O310 O 0.62843 0.96245 0.95351 0.0
O311 O 0.61731 0.94989 0.97929 0.0
O312 O 0.65633 0.95775 0.91902 0.0
O313 O 0.64645 0.91332 0.9754 0.0
O314 O 0.65801 0.92524 0.94952 0.0
C315 C 0.62049 0.96381 0.96919 0.0
C316 C 0.6109 0.92067 0.93079 0.0
O317 O 0.62016 0.93013 0.91955 0.0
O318 O 0.6151 0.92185 0.94739 0.0
C319 C 0.65012 0.96863 0.90681 0.0
O320 O 0.63223 0.96993 0.90441 0.0
C321 C 0.65944 0.91508 0.96387 0.0
Zn322 Zn 0.87061 0.06141 0.46905 0.0
Zn323 Zn 0.85933 0.05084 0.43826 0.0
O324 O 0.86508 0.02648 0.45185 0.0
O325 O 0.88188 0.03684 0.47477 0.0
O326 O 0.84725 0.04102 0.41561 0.0
O327 O 0.84555 0.06794 0.47843 0.0
O328 O 0.83806 0.06644 0.44914 0.0
C329 C 0.87564 0.02352 0.46549 0.0
C330 C 0.89038 0.07801 0.4398 0.0
O331 O 0.88266 0.06534 0.43042 0.0
O332 O 0.88576 0.08057 0.45639 0.0
C333 C 0.85369 0.02732 0.40687 0.0
O334 O 0.87039 0.0215 0.41066 0.0
C335 C 0.8341 0.07072 0.46566 0.0
H336 H 0.06891 0.1689 0.50005 0.0
H337 H 0.08016 0.18751 0.47462 0.0
H338 H 0.13364 0.16201 0.47938 0.0
H339 H 0.12245 0.14334 0.50523 0.0
H340 H 0.13535 0.19916 0.48141 0.0
H341 H 0.10728 0.15522 0.44084 0.0
H342 H 0.08212 0.13535 0.42964 0.0
H343 H 0.04816 0.18288 0.42053 0.0
H344 H 0.07307 0.20304 0.43183 0.0
H345 H 0.16562 0.23791 0.39296 0.0
H346 H 0.15138 0.21428 0.41223 0.0
H347 H 0.11876 0.25581 0.43932 0.0
H348 H 0.1337 0.27978 0.42065 0.0
H349 H 0.10721 0.20965 0.42005 0.0
H350 H 0.13218 0.2514 0.46937 0.0
H351 H 0.15676 0.27099 0.48226 0.0
H352 H 0.19558 0.22682 0.47607 0.0
H353 H 0.17127 0.20716 0.46266 0.0
C354 C 0.083 0.167 0.49551 0.0
C355 C 0.09493 0.1549 0.50478 0.0
C356 C 0.08934 0.17754 0.48084 0.0
C357 C 0.1077 0.17611 0.4751 0.0
C358 C 0.11939 0.16326 0.48364 0.0
C359 C 0.113 0.1526 0.49833 0.0
C360 C 0.1151 0.18967 0.46187 0.0
C361 C 0.12934 0.20124 0.4679 0.0
C362 C 0.10691 0.19271 0.44445 0.0
C363 C 0.09203 0.18064 0.43728 0.0
C364 C 0.09442 0.16144 0.43652 0.0
C365 C 0.08021 0.15012 0.43014 0.0
C366 C 0.06354 0.15785 0.4244 0.0
C367 C 0.06109 0.17692 0.42496 0.0
C368 C 0.07527 0.1883 0.43131 0.0
C369 C 0.15523 0.242 0.40286 0.0
C370 C 0.15074 0.26065 0.40539 0.0
C371 C 0.14719 0.22851 0.41386 0.0
C372 C 0.1343 0.23341 0.42732 0.0
C373 C 0.129 0.25189 0.42923 0.0
C374 C 0.13742 0.2655 0.41853 0.0
C375 C 0.12714 0.21916 0.43982 0.0
C376 C 0.11313 0.20743 0.43357 0.0
C377 C 0.13532 0.21605 0.45717 0.0
C378 C 0.15007 0.22803 0.46453 0.0
C379 C 0.14606 0.24603 0.47036 0.0
C380 C 0.15991 0.25711 0.47785 0.0
C381 C 0.17776 0.25021 0.47985 0.0
C382 C 0.18179 0.2322 0.47438 0.0
C383 C 0.16799 0.22111 0.46677 0.0
H384 H 0.18845 0.25877 0.48575 0.0
H385 H 0.05254 0.14906 0.4195 0.0
H386 H 0.96774 0.88769 0.66918 0.0
H387 H 0.99028 0.87303 0.68943 0.0
H388 H 0.03411 0.90241 0.66216 0.0
H389 H 0.01173 0.9165 0.64136 0.0
H390 H 0.04595 0.86939 0.67318 0.0
H391 H 0.0128 0.91997 0.70092 0.0
H392 H 0.98469 0.93663 0.71022 0.0
H393 H 0.96862 0.89111 0.74431 0.0
H394 H 0.99649 0.87405 0.735 0.0
H395 H 0.109 0.86113 0.74768 0.0
H396 H 0.08902 0.875 0.72429 0.0
H397 H 0.04165 0.84963 0.74967 0.0
H398 H 0.06127 0.83653 0.77339 0.0
H399 H 0.03278 0.88212 0.73898 0.0
H400 H 0.0652 0.83102 0.71072 0.0
H401 H 0.0931 0.81403 0.70138 0.0
H402 H 0.11048 0.86001 0.66856 0.0
H403 H 0.08279 0.87737 0.6779 0.0
C404 C 0.98222 0.89067 0.66722 0.0
C405 C 0.98795 0.90346 0.6539 0.0
C406 C 0.99508 0.88236 0.67884 0.0
C407 C 0.01381 0.8871 0.67769 0.0
C408 C 0.01972 0.89869 0.66341 0.0
C409 C 0.00689 0.90674 0.65154 0.0
C410 C 0.02686 0.88149 0.69238 0.0
C411 C 0.04317 0.8723 0.68756 0.0
C412 C 0.02319 0.88522 0.71116 0.0
C413 C 0.00667 0.89569 0.71716 0.0
C414 C 0.00324 0.91349 0.71035 0.0
C415 C 0.98734 0.923 0.71562 0.0
C416 C 0.97486 0.91492 0.72783 0.0
C417 C 0.97829 0.89734 0.73485 0.0
C418 C 0.99414 0.88776 0.72959 0.0
C419 C 0.09429 0.85875 0.74839 0.0
C420 C 0.08674 0.84763 0.76231 0.0
C421 C 0.08291 0.86655 0.73494 0.0
C422 C 0.06387 0.86299 0.73495 0.0
C423 C 0.05628 0.85253 0.74929 0.0
C424 C 0.06756 0.84503 0.76287 0.0
C425 C 0.05173 0.86962 0.71988 0.0
C426 C 0.0356 0.87916 0.72462 0.0
C427 C 0.05557 0.86614 0.70107 0.0
C428 C 0.07201 0.85555 0.69514 0.0
C429 C 0.07501 0.83753 0.70157 0.0
C430 C 0.09079 0.82784 0.69628 0.0
C431 C 0.10358 0.83595 0.68442 0.0
C432 C 0.10057 0.85375 0.67777 0.0
C433 C 0.08484 0.86352 0.68304 0.0
H434 H 0.11579 0.82844 0.68036 0.0
H435 H 0.96255 0.92229 0.73186 0.0
H436 H 0.37228 0.72875 0.90213 0.0
H437 H 0.38405 0.75416 0.92117 0.0
H438 H 0.32964 0.76292 0.94327 0.0
H439 H 0.31794 0.73732 0.92481 0.0
H440 H 0.35071 0.79661 0.93238 0.0
H441 H 0.35361 0.7412 0.96895 0.0
H442 H 0.36202 0.70887 0.97496 0.0
H443 H 0.41925 0.72219 0.96822 0.0
H444 H 0.41112 0.75458 0.96183 0.0
H445 H 0.37082 0.84315 0.01845 0.0
H446 H 0.35854 0.82276 0.9942 0.0
H447 H 0.41393 0.8112 0.97602 0.0
H448 H 0.42608 0.83157 -1e-05 0.0
H449 H 0.39249 0.77973 0.98377 0.0
H450 H 0.38969 0.83594 0.94959 0.0
H451 H 0.38114 0.86826 0.94381 0.0
H452 H 0.32383 0.8539 0.94635 0.0
H453 H 0.33205 0.82149 0.95245 0.0
C454 C 0.36288 0.73614 0.91104 0.0
C455 C 0.3443 0.73092 0.91225 0.0
C456 C 0.36957 0.75065 0.9218 0.0
C457 C 0.35765 0.76036 0.93352 0.0
C458 C 0.33898 0.75561 0.93422 0.0
C459 C 0.3324 0.74086 0.92384 0.0
C460 C 0.36488 0.77451 0.94619 0.0
C461 C 0.35974 0.79297 0.94371 0.0
C462 C 0.37679 0.76967 0.96078 0.0
C463 C 0.38174 0.75024 0.96465 0.0
C464 C 0.36797 0.73719 0.96854 0.0
C465 C 0.37269 0.71887 0.97206 0.0
C466 C 0.39115 0.71346 0.9719 0.0
C467 C 0.40494 0.72639 0.96828 0.0
C468 C 0.40029 0.74473 0.96471 0.0
C469 C 0.38023 0.8364 0.00905 0.0
C470 C 0.39929 0.83874 0.01089 0.0
C471 C 0.37327 0.82486 0.99526 0.0
C472 C 0.38538 0.81555 0.98337 0.0
C473 C 0.40441 0.81827 0.98508 0.0
C474 C 0.41131 0.82986 -0.00131 0.0
C475 C 0.37842 0.80192 0.96998 0.0
C476 C 0.38356 0.78347 0.97238 0.0
C477 C 0.36652 0.80683 0.95538 0.0
C478 C 0.3615 0.82631 0.95171 0.0
C479 C 0.37526 0.83969 0.94911 0.0
C480 C 0.37048 0.85803 0.94573 0.0
C481 C 0.35195 0.86314 0.94477 0.0
C482 C 0.33818 0.84992 0.94714 0.0
C483 C 0.34289 0.83156 0.95054 0.0
H484 H 0.34828 0.87734 0.94215 0.0
H485 H 0.39478 0.69927 0.97465 0.0
H486 H 0.52966 0.10674 0.17414 0.0
H487 H 0.50712 0.12023 0.19512 0.0
H488 H 0.46292 0.09782 0.16236 0.0
H489 H 0.48539 0.0847 0.14099 0.0
H490 H 0.45374 0.13122 0.17665 0.0
H491 H 0.4793 0.07422 0.19913 0.0
H492 H 0.50494 0.05352 0.20736 0.0
H493 H 0.52346 0.09212 0.24811 0.0
H494 H 0.4981 0.1132 0.23991 0.0
H495 H 0.38739 0.13976 0.24732 0.0
H496 H 0.40715 0.12494 0.2244 0.0
H497 H 0.45527 0.14164 0.25502 0.0
H498 H 0.43569 0.15579 0.27823 0.0
H499 H 0.46107 0.10933 0.24095 0.0
H500 H 0.43725 0.16706 0.21769 0.0
H501 H 0.41258 0.18878 0.20909 0.0
H502 H 0.39156 0.14986 0.16987 0.0
H503 H 0.41596 0.1278 0.17843 0.0
C504 C 0.51514 0.105 0.17118 0.0
C505 C 0.5093 0.09439 0.15609 0.0
C506 C 0.50228 0.11266 0.18322 0.0
C507 C 0.48337 0.10956 0.18058 0.0
C508 C 0.47746 0.10022 0.16474 0.0
C509 C 0.49033 0.09273 0.15255 0.0
C510 C 0.46996 0.11465 0.19511 0.0
C511 C 0.45519 0.12627 0.19066 0.0
C512 C 0.47197 0.1083 0.21344 0.0
C513 C 0.48686 0.09534 0.21882 0.0
C514 C 0.48887 0.07832 0.20981 0.0
C515 C 0.50337 0.06652 0.21445 0.0
C516 C 0.51584 0.07152 0.22822 0.0
C517 C 0.5138 0.08828 0.23744 0.0
C518 C 0.49935 0.10015 0.23281 0.0
C519 C 0.40217 0.13996 0.24934 0.0
C520 C 0.40997 0.14917 0.26448 0.0
C521 C 0.41345 0.1316 0.23616 0.0
C522 C 0.43273 0.13262 0.23771 0.0
C523 C 0.44046 0.14078 0.25343 0.0
C524 C 0.42921 0.1489 0.26671 0.0
C525 C 0.44496 0.1262 0.22262 0.0
C526 C 0.45952 0.11423 0.22694 0.0
C527 C 0.4428 0.13233 0.20421 0.0
C528 C 0.42831 0.14571 0.19884 0.0
C529 C 0.4273 0.1631 0.2073 0.0
C530 C 0.41337 0.17547 0.20243 0.0
C531 C 0.40048 0.17068 0.18898 0.0
C532 C 0.40153 0.15353 0.18031 0.0
C533 C 0.41541 0.14109 0.18516 0.0
H534 H 0.3897 0.18027 0.18524 0.0
H535 H 0.52707 0.06238 0.23177 0.0
H536 H 0.67966 0.24444 0.57396 0.0
H537 H 0.66673 0.27 0.55619 0.0
H538 H 0.61295 0.25849 0.57862 0.0
H539 H 0.62607 0.23316 0.59706 0.0
H540 H 0.61767 0.25821 0.5379 0.0
H541 H 0.62895 0.29568 0.59109 0.0
H542 H 0.64743 0.30868 0.61641 0.0
H543 H 0.68484 0.33251 0.57736 0.0
H544 H 0.66674 0.3194 0.55179 0.0
H545 H 0.5706 0.32628 0.49091 0.0
H546 H 0.58304 0.30804 0.51603 0.0
H547 H 0.6376 0.32839 0.50413 0.0
H548 H 0.62493 0.34753 0.47916 0.0
H549 H 0.63235 0.3249 0.54081 0.0
H550 H 0.62399 0.28653 0.48812 0.0
H551 H 0.60735 0.27308 0.46177 0.0
H552 H 0.56727 0.24985 0.49847 0.0
H553 H 0.58352 0.26339 0.52504 0.0
C554 C 0.66511 0.24755 0.57524 0.0
C555 C 0.65372 0.23686 0.5866 0.0
C556 C 0.65782 0.26219 0.56525 0.0
C557 C 0.63896 0.26611 0.56623 0.0
C558 C 0.62758 0.25568 0.57788 0.0
C559 C 0.63501 0.24127 0.58829 0.0
C560 C 0.63101 0.27965 0.5534 0.0
C561 C 0.62052 0.27286 0.53873 0.0
C562 C 0.63558 0.29856 0.55414 0.0
C563 C 0.64657 0.30638 0.56951 0.0
C564 C 0.64123 0.30351 0.58789 0.0
C565 C 0.65161 0.31095 0.6023 0.0
C566 C 0.66733 0.32137 0.5985 0.0
C567 C 0.67268 0.32441 0.58029 0.0
C568 C 0.66234 0.317 0.56583 0.0
C569 C 0.58526 0.32693 0.49363 0.0
C570 C 0.59691 0.33798 0.48286 0.0
C571 C 0.59234 0.31651 0.50801 0.0
C572 C 0.61129 0.31648 0.51162 0.0
C573 C 0.62293 0.32814 0.50144 0.0
C574 C 0.61574 0.33895 0.48717 0.0
C575 C 0.6188 0.30348 0.52539 0.0
C576 C 0.62935 0.31029 0.54008 0.0
C577 C 0.61464 0.28444 0.52452 0.0
C578 C 0.60489 0.27612 0.50857 0.0
C579 C 0.61156 0.27866 0.49057 0.0
C580 C 0.6022 0.27101 0.47559 0.0
C581 C 0.58624 0.26065 0.47844 0.0
C582 C 0.57962 0.25789 0.49628 0.0
C583 C 0.58891 0.26554 0.51131 0.0
H584 H 0.57901 0.25474 0.46682 0.0
H585 H 0.67534 0.32713 0.60967 0.0
H586 H 0.93814 0.34635 0.71459 0.0
H587 H 0.95777 0.36158 0.73726 0.0
H588 H 0.9122 0.36407 0.77526 0.0
H589 H 0.89234 0.34925 0.75252 0.0
H590 H 0.93352 0.3943 0.77828 0.0
H591 H 0.94239 0.32912 0.77803 0.0
H592 H 0.94833 0.29881 0.76393 0.0
H593 H 0.00155 0.31729 0.74595 0.0
H594 H 0.9958 0.34782 0.75972 0.0
H595 H 0.99026 0.40598 0.85716 0.0
H596 H 0.96831 0.39161 0.83602 0.0
H597 H 0.0101 0.38963 0.79389 0.0
H598 H 0.03218 0.40374 0.81493 0.0
H599 H 0.98931 0.3583 0.79466 0.0
H600 H 0.97894 0.4244 0.79493 0.0
H601 H 0.97224 0.45402 0.81014 0.0
H602 H 0.92078 0.43258 0.82984 0.0
H603 H 0.9273 0.40274 0.81494 0.0
C604 C 0.93219 0.35046 0.72763 0.0
C605 C 0.91377 0.34632 0.73187 0.0
C606 C 0.94344 0.3591 0.7406 0.0
C607 C 0.93655 0.3635 0.75811 0.0
C608 C 0.91783 0.36065 0.76189 0.0
C609 C 0.90651 0.35215 0.74886 0.0
C610 C 0.94919 0.36969 0.77289 0.0
C611 C 0.9456 0.38634 0.78201 0.0
C612 C 0.96494 0.35926 0.77778 0.0
C613 C 0.9686 0.34081 0.76977 0.0
C614 C 0.95532 0.32675 0.77098 0.0
C615 C 0.95865 0.30953 0.76306 0.0
C616 C 0.97529 0.30614 0.75402 0.0
C617 C 0.98866 0.31995 0.75294 0.0
C618 C 0.98538 0.33721 0.76082 0.0
C619 C 0.99487 0.40224 0.84348 0.0
C620 C 0.01292 0.40617 0.83766 0.0
C621 C 0.98228 0.39412 0.8314 0.0
C622 C 0.98751 0.38987 0.8133 0.0
C623 C 0.00577 0.39289 0.80778 0.0
C624 C 0.01836 0.40099 0.81983 0.0
C625 C 0.97386 0.38308 0.79976 0.0
C626 C 0.97721 0.36624 0.79094 0.0
C627 C 0.95779 0.39323 0.79534 0.0
C628 C 0.95369 0.41129 0.80396 0.0
C629 C 0.96624 0.42598 0.80258 0.0
C630 C 0.96247 0.4428 0.81114 0.0
C631 C 0.94611 0.44516 0.82099 0.0
C632 C 0.93345 0.43072 0.82223 0.0
C633 C 0.93718 0.41386 0.81372 0.0
H634 H 0.94323 0.45819 0.82762 0.0
H635 H 0.97784 0.29281 0.74787 0.0
H636 H 0.86236 0.7521 0.10545 0.0
H637 H 0.87623 0.72813 0.08611 0.0
H638 H 0.84983 0.75138 0.0383 0.0
H639 H 0.83623 0.77543 0.05727 0.0
H640 H 0.84229 0.713 0.04514 0.0
H641 H 0.89248 0.75619 0.03994 0.0
H642 H 0.91698 0.77666 0.05147 0.0
H643 H 0.94312 0.73086 0.0782 0.0
H644 H 0.9186 0.71014 0.06701 0.0
H645 H 0.88677 0.6771 0.96525 0.0
H646 H 0.87402 0.69626 0.98992 0.0
H647 H 0.9001 0.66165 0.03049 0.0
H648 H 0.91244 0.6421 0.00596 0.0
H649 H 0.9083 0.70237 0.03105 0.0
H650 H 0.8595 0.65856 0.033 0.0
H651 H 0.83524 0.6384 0.02048 0.0
H652 H 0.8065 0.68555 -0.00064 0.0
H653 H 0.83076 0.70599 0.01151 0.0
C654 C 0.85981 0.7523 0.09077 0.0
C655 C 0.84806 0.76554 0.08292 0.0
C656 C 0.86772 0.73862 0.07978 0.0
C657 C 0.86382 0.73797 0.06089 0.0
C658 C 0.85283 0.75164 0.05291 0.0
C659 C 0.84515 0.76541 0.06378 0.0
C660 C 0.8701 0.72242 0.0495 0.0
C661 C 0.85671 0.71069 0.04197 0.0
C662 C 0.88894 0.71921 0.04591 0.0
C663 C 0.90355 0.73166 0.05287 0.0
C664 C 0.90332 0.75052 0.04847 0.0
C665 C 0.91725 0.76216 0.05489 0.0
C666 C 0.93156 0.75508 0.06563 0.0
C667 C 0.93199 0.73633 0.06992 0.0
C668 C 0.91809 0.72463 0.06354 0.0
C669 C 0.88945 0.67338 0.97944 0.0
C670 C 0.90057 0.65818 0.98373 0.0
C671 C 0.88219 0.68429 0.99347 0.0
C672 C 0.88623 0.6803 0.01191 0.0
C673 C 0.89687 0.66484 0.01629 0.0
C674 C 0.90379 0.65368 0.00228 0.0
C675 C 0.88045 0.69322 0.0264 0.0
C676 C 0.89391 0.70447 0.0345 0.0
C677 C 0.86167 0.69603 0.03048 0.0
C678 C 0.84708 0.6838 0.023 0.0
C679 C 0.84812 0.66462 0.0255 0.0
C680 C 0.83434 0.65314 0.01852 0.0
C681 C 0.81936 0.66068 0.00908 0.0
C682 C 0.81812 0.67973 0.00665 0.0
C683 C 0.83189 0.69127 0.0136 0.0
H684 H 0.80869 0.65177 0.0037 0.0
H685 H 0.94234 0.76411 0.07056 0.0
H686 H 0.60779 0.6444 0.25246 0.0
H687 H 0.5875 0.63021 0.27519 0.0
H688 H 0.54186 0.63458 0.23741 0.0
H689 H 0.56196 0.64902 0.2147 0.0
H690 H 0.5345 0.65088 0.26973 0.0
H691 H 0.55913 0.59267 0.24992 0.0
H692 H 0.58342 0.57002 0.24285 0.0
H693 H 0.60246 0.57249 0.29875 0.0
H694 H 0.5784 0.59532 0.3061 0.0
H695 H 0.46604 0.60002 0.31619 0.0
H696 H 0.48877 0.61332 0.29546 0.0
H697 H 0.53073 0.60718 0.33708 0.0
H698 H 0.50804 0.59356 0.35793 0.0
H699 H 0.54141 0.59263 0.30464 0.0
H700 H 0.51594 0.64976 0.32482 0.0
H701 H 0.49158 0.6723 0.33198 0.0
H702 H 0.47426 0.67207 0.27548 0.0
H703 H 0.49836 0.64933 0.26801 0.0
C704 C 0.59354 0.64193 0.2488 0.0
C705 C 0.5864 0.64809 0.23189 0.0
C706 C 0.58197 0.63378 0.26181 0.0
C707 C 0.56316 0.63149 0.25802 0.0
C708 C 0.55631 0.63639 0.24064 0.0
C709 C 0.56784 0.64459 0.22766 0.0
C710 C 0.55024 0.6259 0.27274 0.0
C711 C 0.53584 0.63801 0.27719 0.0
C712 C 0.5525 0.60949 0.28294 0.0
C713 C 0.56708 0.59587 0.27851 0.0
C714 C 0.5686 0.58852 0.26066 0.0
C715 C 0.58231 0.57561 0.25662 0.0
C716 C 0.59451 0.56986 0.27033 0.0
C717 C 0.59302 0.57698 0.28813 0.0
C718 C 0.57934 0.58989 0.29225 0.0
C719 C 0.48002 0.60178 0.32109 0.0
C720 C 0.48527 0.59561 0.33866 0.0
C721 C 0.493 0.60945 0.30923 0.0
C722 C 0.51142 0.61126 0.31476 0.0
C723 C 0.51656 0.60586 0.33257 0.0
C724 C 0.50356 0.59817 0.34448 0.0
C725 C 0.52546 0.61746 0.30137 0.0
C726 C 0.54012 0.60554 0.29723 0.0
C727 C 0.52347 0.63407 0.29144 0.0
C728 C 0.50888 0.64771 0.29589 0.0
C729 C 0.50684 0.65439 0.31395 0.0
C730 C 0.4931 0.66723 0.31805 0.0
C731 C 0.48136 0.67358 0.3042 0.0
C732 C 0.48336 0.66713 0.2862 0.0
C733 C 0.49708 0.65428 0.28202 0.0
H734 H 0.47073 0.68353 0.30741 0.0
H735 H 0.6051 0.55986 0.26717 0.0
H736 H 0.23779 0.39628 0.17678 0.0
H737 H 0.21447 0.41626 0.16318 0.0
H738 H 0.25321 0.43274 0.12116 0.0
H739 H 0.27697 0.41377 0.13568 0.0
H740 H 0.24018 0.46113 0.13571 0.0
H741 H 0.21136 0.40579 0.11321 0.0
H742 H 0.19807 0.37462 0.11555 0.0
H743 H 0.15747 0.39446 0.15365 0.0
H744 H 0.17063 0.4257 0.15169 0.0
H745 H 0.18243 0.516 0.08295 0.0
H746 H 0.2012 0.49067 0.09407 0.0
H747 H 0.16184 0.48031 0.13739 0.0
H748 H 0.14215 0.5052 0.1253 0.0
H749 H 0.17413 0.44887 0.12336 0.0
H750 H 0.20373 0.50457 0.14499 0.0
H751 H 0.21701 0.5356 0.14117 0.0
H752 H 0.25673 0.51426 0.10295 0.0
H753 H 0.24357 0.48315 0.10639 0.0
C754 C 0.24115 0.40387 0.16439 0.0
C755 C 0.25911 0.40368 0.15727 0.0
C756 C 0.22777 0.41519 0.15653 0.0
C757 C 0.232 0.42596 0.14105 0.0
C758 C 0.24965 0.42466 0.13318 0.0
C759 C 0.26319 0.41382 0.1414 0.0
C760 C 0.21902 0.4403 0.13453 0.0
C761 C 0.22582 0.4583 0.13268 0.0
C762 C 0.20008 0.43684 0.13131 0.0
C763 C 0.19209 0.41806 0.13241 0.0
C764 C 0.19967 0.40348 0.12218 0.0
C765 C 0.19214 0.3858 0.12342 0.0
C766 C 0.17696 0.38255 0.13478 0.0
C767 C 0.16923 0.39699 0.14487 0.0
C768 C 0.1767 0.41469 0.14367 0.0
C769 C 0.17787 0.50848 0.095 0.0
C770 C 0.16115 0.5128 0.10366 0.0
C771 C 0.1886 0.49399 0.10132 0.0
C772 C 0.18323 0.48398 0.11691 0.0
C773 C 0.16632 0.48803 0.12545 0.0
C774 C 0.1552 0.50227 0.1187 0.0
C775 C 0.19549 0.46943 0.12416 0.0
C776 C 0.18853 0.45153 0.12633 0.0
C777 C 0.21438 0.47288 0.12755 0.0
C778 C 0.2226 0.49154 0.1259 0.0
C779 C 0.21527 0.50651 0.13574 0.0
C780 C 0.22277 0.52411 0.13364 0.0
C781 C 0.23769 0.5269 0.12181 0.0
C782 C 0.24519 0.51208 0.11212 0.0
C783 C 0.23773 0.49445 0.11417 0.0
H784 H 0.24345 0.54055 0.12017 0.0
H785 H 0.17116 0.36886 0.13573 0.0
H786 H 0.68775 0.96832 0.90736 0.0
H787 H 0.70854 0.99173 0.89518 0.0
H788 H 0.66225 0.0213 0.87256 0.0
H789 H 0.64131 0.99772 0.88444 0.0
H790 H 0.6921 0.02305 0.84981 0.0
H791 H 0.67899 0.03348 0.91335 0.0
H792 H 0.67611 0.02478 0.94601 0.0
H793 H 0.73418 0.0139 0.94857 0.0
H794 H 0.73736 0.02219 0.91579 0.0
H795 H 0.73808 0.10778 0.84137 0.0
H796 H 0.71654 0.08667 0.85633 0.0
H797 H 0.76125 0.04963 0.86878 0.0
H798 H 0.78289 0.0705 0.85352 0.0
H799 H 0.73106 0.05335 0.89721 0.0
H800 H 0.74281 0.04073 0.83237 0.0
H801 H 0.74537 0.05113 0.80018 0.0
H802 H 0.68871 0.06806 0.80082 0.0
H803 H 0.68593 0.05808 0.8332 0.0
C804 C 0.68198 0.97965 0.89958 0.0
C805 C 0.66283 0.98133 0.89717 0.0
C806 C 0.69389 0.99304 0.89265 0.0
C807 C 0.68689 0.00847 0.88337 0.0
C808 C 0.66792 0.00957 0.87983 0.0
C809 C 0.65597 0.9961 0.88668 0.0
C810 C 0.69922 0.02403 0.87861 0.0
C811 C 0.70044 0.02979 0.86021 0.0
C812 C 0.71014 0.03284 0.8922 0.0
C813 C 0.70839 0.02829 0.91205 0.0
C814 C 0.69114 0.02912 0.92084 0.0
C815 C 0.68944 0.02426 0.93938 0.0
C816 C 0.70495 0.01875 0.94935 0.0
C817 C 0.72218 0.01815 0.94082 0.0
C818 C 0.72394 0.02293 0.92226 0.0
C819 C 0.74343 0.0954 0.84775 0.0
C820 C 0.7621 0.09061 0.84604 0.0
C821 C 0.7311 0.08338 0.85628 0.0
C822 C 0.73735 0.06657 0.86343 0.0
C823 C 0.75623 0.06256 0.8633 0.0
C824 C 0.76853 0.07444 0.85451 0.0
C825 C 0.72403 0.05208 0.86849 0.0
C826 C 0.72263 0.04659 0.8869 0.0
C827 C 0.71283 0.04364 0.85497 0.0
C828 C 0.7142 0.04881 0.83525 0.0
C829 C 0.73092 0.04675 0.82568 0.0
C830 C 0.73242 0.05258 0.8074 0.0
C831 C 0.71723 0.0603 0.79847 0.0
C832 C 0.70047 0.0621 0.80777 0.0
C833 C 0.69892 0.05635 0.82608 0.0
H834 H 0.71842 0.06485 0.78434 0.0
H835 H 0.70361 0.01498 0.96369 0.0
H836 H 0.71777 0.92421 0.36053 0.0
H837 H 0.74029 0.94456 0.37522 0.0
H838 H 0.78439 0.91565 0.34781 0.0
H839 H 0.76207 0.89464 0.33404 0.0
H840 H 0.79599 0.92739 0.37991 0.0
H841 H 0.76248 0.95513 0.32879 0.0
H842 H 0.73386 0.96447 0.31301 0.0
H843 H 0.71941 -0.00116 0.35887 0.0
H844 H 0.74785 0.98953 0.37501 0.0
H845 H 0.86206 -0.00125 0.38367 0.0
H846 H 0.84057 0.976 0.37108 0.0
H847 H 0.79508 0.00548 0.39548 0.0
H848 H 0.81621 0.02863 0.40711 0.0
H849 H 0.78447 0.99301 0.36479 0.0
H850 H 0.8171 0.96596 0.41627 0.0
H851 H 0.84469 0.956 0.43346 0.0
H852 H 0.86009 0.92049 0.38879 0.0
H853 H 0.83267 0.93035 0.37128 0.0
C854 C 0.73231 0.92194 0.35805 0.0
C855 C 0.73819 0.90805 0.34598 0.0
C856 C 0.74515 0.93362 0.36634 0.0
C857 C 0.76398 0.93203 0.36208 0.0
C858 C 0.76994 0.91725 0.35116 0.0
C859 C 0.75715 0.90526 0.34328 0.0
C860 C 0.77721 0.94666 0.36743 0.0
C861 C 0.79356 0.94173 0.3765 0.0
C862 C 0.77394 0.96542 0.36317 0.0
C863 C 0.75723 0.97156 0.35313 0.0
C864 C 0.75319 0.96468 0.33549 0.0
C865 C 0.73699 0.96995 0.3265 0.0
C866 C 0.72481 0.98222 0.33494 0.0
C867 C 0.72886 0.98933 0.35235 0.0
C868 C 0.74502 0.98409 0.36141 0.0
C869 C 0.84743 0.00055 0.38599 0.0
C870 C 0.84087 0.01539 0.39651 0.0
C871 C 0.83518 0.98744 0.37897 0.0
C872 C 0.81624 0.9887 0.38282 0.0
C873 C 0.80962 0.00409 0.39242 0.0
C874 C 0.82177 0.01737 0.39906 0.0
C875 C 0.80325 0.97382 0.37748 0.0
C876 C 0.78695 0.9787 0.36829 0.0
C877 C 0.80651 0.95507 0.3818 0.0
C878 C 0.82292 0.94901 0.3924 0.0
C879 C 0.82642 0.95609 0.41008 0.0
C880 C 0.84202 0.95046 0.41989 0.0
C881 C 0.85416 0.93766 0.4122 0.0
C882 C 0.85068 0.93042 0.39472 0.0
C883 C 0.83511 0.936 0.38486 0.0
H884 H 0.86623 0.93333 0.4198 0.0
H885 H 0.71226 0.98624 0.32799 0.0
H886 H 0.21837 0.58073 0.63569 0.0
H887 H 0.24077 0.56085 0.62036 0.0
H888 H 0.28363 0.58139 0.65602 0.0
H889 H 0.26143 0.60189 0.67089 0.0
H890 H 0.29726 0.57319 0.62243 0.0
H891 H 0.25908 0.54297 0.66775 0.0
H892 H 0.22928 0.53436 0.68159 0.0
H893 H 0.21376 0.5066 0.63177 0.0
H894 H 0.24338 0.51527 0.61754 0.0
H895 H 0.35563 0.49498 0.6129 0.0
H896 H 0.33622 0.5191 0.6263 0.0
H897 H 0.28975 0.49902 0.59511 0.0
H898 H 0.30875 0.47452 0.58244 0.0
H899 H 0.27887 0.50758 0.62757 0.0
H900 H 0.31695 0.53796 0.58196 0.0
H901 H 0.34653 0.54701 0.56791 0.0
H902 H 0.36227 0.57439 0.61788 0.0
H903 H 0.33287 0.56532 0.63229 0.0
C904 C 0.23266 0.58132 0.63994 0.0
C905 C 0.23813 0.59259 0.65466 0.0
C906 C 0.24543 0.56994 0.63122 0.0
C907 C 0.26373 0.56925 0.63745 0.0
C908 C 0.26954 0.58161 0.65111 0.0
C909 C 0.25684 0.59329 0.6596 0.0
C910 C 0.27615 0.55432 0.63122 0.0
C911 C 0.29334 0.55883 0.62367 0.0
C912 C 0.27096 0.53559 0.63279 0.0
C913 C 0.25339 0.52987 0.64154 0.0
C914 C 0.24929 0.53507 0.65973 0.0
C915 C 0.23243 0.53019 0.66764 0.0
C916 C 0.21963 0.51997 0.65756 0.0
C917 C 0.22369 0.51453 0.63956 0.0
C918 C 0.24052 0.5194 0.63158 0.0
C919 C 0.34122 0.49562 0.6091 0.0
C920 C 0.33372 0.48289 0.59662 0.0
C921 C 0.33018 0.5095 0.61663 0.0
C922 C 0.31161 0.51113 0.61141 0.0
C923 C 0.30404 0.49808 0.59933 0.0
C924 C 0.31493 0.48405 0.59211 0.0
C925 C 0.29991 0.52637 0.61834 0.0
C926 C 0.28284 0.52192 0.62622 0.0
C927 C 0.30524 0.54511 0.61702 0.0
C928 C 0.32278 0.55082 0.60825 0.0
C929 C 0.32676 0.54584 0.58997 0.0
C930 C 0.34349 0.55098 0.58194 0.0
C931 C 0.35629 0.56123 0.59201 0.0
C932 C 0.35235 0.56643 0.6101 0.0
C933 C 0.33565 0.56131 0.6182 0.0
H934 H 0.36924 0.56517 0.58578 0.0
H935 H 0.20657 0.51624 0.66369 0.0
H936 H 0.29725 0.42005 0.54448 0.0
H937 H 0.26945 0.40816 0.52913 0.0
H938 H 0.30353 0.37992 0.48956 0.0
H939 H 0.33104 0.39158 0.50457 0.0
H940 H 0.27774 0.4025 0.47351 0.0
H941 H 0.28216 0.35595 0.52108 0.0
H942 H 0.28269 0.34453 0.55304 0.0
H943 H 0.22898 0.36746 0.56239 0.0
H944 H 0.22825 0.37921 0.53052 0.0
H945 H 0.24541 0.32801 0.42886 0.0
H946 H 0.25826 0.34617 0.45381 0.0
H947 H 0.20493 0.37021 0.46417 0.0
H948 H 0.19172 0.35162 0.43881 0.0
H949 H 0.23179 0.35794 0.49735 0.0
H950 H 0.22742 0.39741 0.44364 0.0
H951 H 0.22991 0.40388 0.4104 0.0
H952 H 0.28729 0.38967 0.41159 0.0
H953 H 0.28511 0.38286 0.44475 0.0
C954 C 0.29875 0.41107 0.53268 0.0
C955 C 0.31631 0.40695 0.52557 0.0
C956 C 0.28289 0.40433 0.52394 0.0
C957 C 0.2845 0.39339 0.5081 0.0
C958 C 0.30202 0.38856 0.50163 0.0
C959 C 0.31774 0.39523 0.51026 0.0
C960 C 0.26823 0.38762 0.49731 0.0
C961 C 0.26751 0.39297 0.47878 0.0
C962 C 0.25471 0.3755 0.50433 0.0
C963 C 0.25528 0.36873 0.52354 0.0
C964 C 0.27057 0.35876 0.53003 0.0
C965 C 0.27088 0.35217 0.5481 0.0
C966 C 0.25591 0.35534 0.55977 0.0
C967 C 0.24059 0.36507 0.55336 0.0
C968 C 0.24022 0.3717 0.5353 0.0
C969 C 0.2363 0.3369 0.43665 0.0
C970 C 0.21765 0.3386 0.43188 0.0
C971 C 0.24365 0.34723 0.45088 0.0
C972 C 0.23258 0.35965 0.46057 0.0
C973 C 0.21363 0.36066 0.45673 0.0
C974 C 0.20613 0.35007 0.44236 0.0
C975 C 0.2418 0.37232 0.47347 0.0
C976 C 0.24137 0.36824 0.49233 0.0
C977 C 0.25466 0.38528 0.46668 0.0
C978 C 0.25607 0.38962 0.44672 0.0
C979 C 0.24055 0.39558 0.4368 0.0
C980 C 0.24191 0.39932 0.41797 0.0
C981 C 0.25874 0.39719 0.4089 0.0
C982 C 0.27427 0.39134 0.41864 0.0
C983 C 0.27298 0.38758 0.43747 0.0
H984 H 0.25976 0.40009 0.39432 0.0
H985 H 0.25616 0.35021 0.57375 0.0
H986 H 0.9364 0.98213 0.70028 0.0
H987 H 0.92068 0.99594 0.72658 0.0
H988 H 0.87523 0.95839 0.71909 0.0
H989 H 0.89098 0.94474 0.69254 0.0
H990 H 0.86533 0.99357 0.71441 0.0
H991 H 0.89914 0.96047 0.7604 0.0
H992 H 0.92693 0.94825 0.7756 0.0
H993 H 0.94678 0.00324 0.78432 0.0
H994 H 0.91926 0.01581 0.76892 0.0
H995 H 0.81275 0.04661 0.77832 0.0
H996 H 0.82982 0.01931 0.76768 0.0
H997 H 0.87835 0.05265 0.7599 0.0
H998 H 0.86117 0.07997 0.76971 0.0
H999 H 0.8845 0.01552 0.77615 0.0
H1000 H 0.85815 0.04791 0.72511 0.0
H1001 H 0.83369 0.06295 0.70702 0.0
H1002 H 0.80362 0.01209 0.70485 0.0
H1003 H 0.82778 0.99684 0.7233 0.0
C1004 C 0.92354 0.97617 0.70494 0.0
C1005 C 0.91493 0.96228 0.69465 0.0
C1006 C 0.91452 0.98408 0.71996 0.0
C1007 C 0.89673 0.97823 0.72482 0.0
C1008 C 0.88897 0.96307 0.71562 0.0
C1009 C 0.89801 0.95516 0.70058 0.0
C1010 C 0.885 0.99028 0.73643 0.0
C1011 C 0.86921 0.99785 0.72819 0.0
C1012 C 0.89058 0.99661 0.75401 0.0
C1013 C 0.90713 0.98909 0.76341 0.0
C1014 C 0.90948 0.96997 0.76544 0.0
C1015 C 0.92519 0.96298 0.77412 0.0
C1016 C 0.93862 0.97496 0.78091 0.0
C1017 C 0.93636 0.99397 0.77907 0.0
C1018 C 0.92069 0.00104 0.77039 0.0
C1019 C 0.82714 0.04796 0.77464 0.0
C1020 C 0.8357 0.06527 0.7747 0.0
C1021 C 0.83685 0.03243 0.7686 0.0
C1022 C 0.85533 0.03402 0.76308 0.0
C1023 C 0.86416 0.05114 0.76423 0.0
C1024 C 0.85433 0.06671 0.76972 0.0
C1025 C 0.86491 0.01846 0.75412 0.0
C1026 C 0.88033 0.01058 0.7627 0.0
C1027 C 0.85938 0.01213 0.73659 0.0
C1028 C 0.84457 0.02134 0.72594 0.0
C1029 C 0.84616 0.04001 0.72107 0.0
C1030 C 0.8324 0.04856 0.71068 0.0
C1031 C 0.81705 0.03851 0.70489 0.0
C1032 C 0.81547 0.01988 0.70944 0.0
C1033 C 0.82918 0.01129 0.71989 0.0
H1034 H 0.80643 0.04513 0.69679 0.0
H1035 H 0.95077 0.96952 0.78762 0.0
H1036 H 0.294 0.66006 0.94381 0.0
H1037 H 0.27751 0.64686 0.97034 0.0
H1038 H 0.23292 0.63074 0.93458 0.0
H1039 H 0.24907 0.64348 0.90834 0.0
H1040 H 0.2216 0.65053 0.96596 0.0
H1041 H 0.26182 0.59947 0.94833 0.0
H1042 H 0.2923 0.58539 0.94317 0.0
H1043 H 0.3072 0.59626 -0.00068 0.0
H1044 H 0.27687 0.61064 0.00474 0.0
H1045 H 0.1634 0.58324 0.00158 0.0
H1046 H 0.18583 0.60096 0.98392 0.0
H1047 H 0.22236 0.60193 0.03077 0.0
H1048 H 0.20009 0.58384 0.04844 0.0
H1049 H 0.24106 0.59457 -7e-05 0.0
H1050 H 0.1983 0.64032 0.01898 0.0
H1051 H 0.16777 0.65427 0.02408 0.0
H1052 H 0.15772 0.65441 0.96585 0.0
H1053 H 0.18807 0.64018 0.9604 0.0
C1054 C 0.28078 0.65352 0.94164 0.0
C1055 C 0.27284 0.6529 0.92397 0.0
C1056 C 0.27138 0.64606 0.95677 0.0
C1057 C 0.25394 0.63803 0.95437 0.0
C1058 C 0.24627 0.63707 0.93673 0.0
C1059 C 0.25562 0.6443 0.92171 0.0
C1060 C 0.24319 0.63062 0.96996 0.0
C1061 C 0.22582 0.63832 0.97346 0.0
C1062 C 0.24905 0.6151 0.9801 0.0
C1063 C 0.26719 0.60634 0.97687 0.0
C1064 C 0.27166 0.599 0.95953 0.0
C1065 C 0.28889 0.59094 0.95656 0.0
C1066 C 0.3017 0.58999 0.97089 0.0
C1067 C 0.29728 0.59705 0.98823 0.0
C1068 C 0.28007 0.60515 0.99125 0.0
C1069 C 0.17617 0.58726 0.00815 0.0
C1070 C 0.17993 0.58224 0.02642 0.0
C1071 C 0.18895 0.59746 -0.00192 0.0
C1072 C 0.20564 0.60304 0.00614 0.0
C1073 C 0.20954 0.59785 0.02432 0.0
C1074 C 0.19678 0.58756 0.03439 0.0
C1075 C 0.21904 0.614 0.99535 0.0
C1076 C 0.23693 0.60704 0.99283 0.0
C1077 C 0.21369 0.6303 0.98611 0.0
C1078 C 0.19546 0.63908 0.9893 0.0
C1079 C 0.18955 0.64322 0.00726 0.0
C1080 C 0.17227 0.65119 0.01021 0.0
C1081 C 0.16081 0.6552 0.9953 0.0
C1082 C 0.16662 0.65129 0.97739 0.0
C1083 C 0.18387 0.6433 0.97436 0.0
H1084 H 0.14743 0.66136 0.99761 0.0
H1085 H 0.31504 0.58374 0.96857 0.0
H1086 H 0.61457 0.04918 0.18516 0.0
H1087 H 0.62872 0.03484 0.21219 0.0
H1088 H 0.57728 0.00778 0.22463 0.0
H1089 H 0.56297 0.02288 0.1981 0.0
H1090 H 0.59596 0.01222 0.25558 0.0
H1091 H 0.60754 0.98738 0.1966 0.0
H1092 H 0.61643 0.98748 0.16386 0.0
H1093 H 0.67141 0.00357 0.17854 0.0
H1094 H 0.66275 0.00387 0.2114 0.0
H1095 H 0.63179 0.92169 0.27672 0.0
H1096 H 0.61647 0.94886 0.264 0.0
H1097 H 0.6659 0.98069 0.27231 0.0
H1098 H 0.68119 0.95354 0.28564 0.0
H1099 H 0.64948 0.97598 0.23331 0.0
H1100 H 0.63393 0.99469 0.29577 0.0
H1101 H 0.62109 0.9881 0.32649 0.0
H1102 H 0.56867 0.9754 0.30224 0.0
H1103 H 0.58126 0.9817 0.27134 0.0
C1104 C 0.60611 0.04094 0.19426 0.0
C1105 C 0.58772 0.0372 0.18978 0.0
C1106 C 0.61421 0.03259 0.20958 0.0
C1107 C 0.60419 0.01984 0.22015 0.0
C1108 C 0.5853 0.01752 0.21669 0.0
C1109 C 0.5771 0.02619 0.20157 0.0
C1110 C 0.61398 0.00688 0.23261 0.0
C1111 C 0.60772 0.00439 0.25074 0.0
C1112 C 0.62904 0.99623 0.22618 0.0
C1113 C 0.63443 0.9959 0.20645 0.0
C1114 C 0.62149 0.99108 0.19285 0.0
C1115 C 0.62649 0.99105 0.17427 0.0
C1116 C 0.64446 0.99559 0.16912 0.0
C1117 C 0.65748 0.0001 0.18255 0.0
C1118 C 0.65254 0.00021 0.20116 0.0
C1119 C 0.63917 0.93465 0.27641 0.0
C1120 C 0.65761 0.93562 0.28222 0.0
C1121 C 0.63043 0.95012 0.26913 0.0
C1122 C 0.64008 0.96671 0.26724 0.0
C1123 C 0.65823 0.96798 0.2738 0.0
C1124 C 0.66688 0.95256 0.28151 0.0
C1125 C 0.63185 0.98183 0.25638 0.0
C1126 C 0.63815 0.98435 0.23833 0.0
C1127 C 0.61632 0.99175 0.26262 0.0
C1128 C 0.60856 0.98862 0.28124 0.0
C1129 C 0.61968 0.99044 0.29698 0.0
C1130 C 0.61245 0.98676 0.31443 0.0
C1131 C 0.59408 0.98132 0.31631 0.0
C1132 C 0.58289 0.97963 0.30076 0.0
C1133 C 0.59005 0.9833 0.28328 0.0
H1134 H 0.58853 0.97843 0.32983 0.0
H1135 H 0.64831 0.99555 0.15473 0.0
H1136 H 0.70221 0.13944 0.5598 0.0
H1137 H 0.71671 0.12212 0.53458 0.0
H1138 H 0.7556 0.16627 0.52657 0.0
H1139 H 0.74157 0.18325 0.55216 0.0
H1140 H 0.74108 0.14456 0.49202 0.0
H1141 H 0.77217 0.1403 0.55189 0.0
H1142 H 0.77196 0.13532 0.58547 0.0
H1143 H 0.74795 0.08185 0.57763 0.0
H1144 H 0.74776 0.08669 0.54398 0.0
H1145 H 0.82497 0.10619 0.45922 0.0
H1146 H 0.79884 0.1229 0.47241 0.0
H1147 H 0.77809 0.07213 0.49542 0.0
H1148 H 0.80488 0.05572 0.48308 0.0
H1149 H 0.77957 0.09591 0.52068 0.0
H1150 H 0.75525 0.09791 0.45948 0.0
H1151 H 0.75593 0.10347 0.42601 0.0
H1152 H 0.76698 0.16077 0.43543 0.0
H1153 H 0.76661 0.15553 0.46896 0.0
C1154 C 0.71343 0.14565 0.55218 0.0
C1155 C 0.72085 0.16258 0.55772 0.0
C1156 C 0.72166 0.13581 0.53783 0.0
C1157 C 0.73714 0.14301 0.52876 0.0
C1158 C 0.74353 0.16064 0.5333 0.0
C1159 C 0.73559 0.17026 0.5479 0.0
C1160 C 0.74869 0.13097 0.51719 0.0
C1161 C 0.74953 0.13387 0.49814 0.0
C1162 C 0.75945 0.11697 0.5253 0.0
C1163 C 0.75971 0.11396 0.54548 0.0
C1164 C 0.76668 0.12757 0.55735 0.0
C1165 C 0.76666 0.12476 0.57639 0.0
C1166 C 0.75988 0.1083 0.58369 0.0
C1167 C 0.75315 0.09461 0.57196 0.0
C1168 C 0.7531 0.09738 0.55291 0.0
C1169 C 0.81451 0.09861 0.46668 0.0
C1170 C 0.81666 0.07976 0.47009 0.0
C1171 C 0.79953 0.10811 0.47414 0.0
C1172 C 0.78631 0.09877 0.48477 0.0
C1173 C 0.78807 0.07965 0.48727 0.0
C1174 C 0.80326 0.07026 0.48016 0.0
C1175 C 0.77208 0.10918 0.49515 0.0
C1176 C 0.77086 0.10617 0.51421 0.0
C1177 C 0.76101 0.12303 0.48693 0.0
C1178 C 0.761 0.12629 0.46676 0.0
C1179 C 0.75792 0.11168 0.45442 0.0
C1180 C 0.75824 0.11478 0.43543 0.0
C1181 C 0.76152 0.13246 0.4286 0.0
C1182 C 0.76443 0.14709 0.44074 0.0
C1183 C 0.76414 0.14406 0.45974 0.0
H1184 H 0.76178 0.13482 0.41389 0.0
H1185 H 0.75989 0.10614 0.59842 0.0
H1186 H 0.13528 0.55432 0.69087 0.0
H1187 H 0.12185 0.52694 0.70549 0.0
H1188 H 0.16729 0.52549 0.74386 0.0
H1189 H 0.18105 0.55196 0.72857 0.0
H1190 H 0.15511 0.4931 0.74191 0.0
H1191 H 0.12791 0.55214 0.75126 0.0
H1192 H 0.11344 0.58144 0.74206 0.0
H1193 H 0.06747 0.55194 0.71937 0.0
H1194 H 0.08186 0.52241 0.72819 0.0
H1195 H 0.1127 0.48828 0.83021 0.0
H1196 H 0.12651 0.49883 0.80146 0.0
H1197 H 0.08654 0.46767 0.77055 0.0
H1198 H 0.07274 0.45664 0.79946 0.0
H1199 H 0.0929 0.51078 0.76402 0.0
H1200 H 0.12345 0.45073 0.76607 0.0
H1201 H 0.14079 0.42709 0.78322 0.0
H1202 H 0.18409 0.46598 0.7937 0.0
H1203 H 0.1669 0.48991 0.77682 0.0
C1204 C 0.14278 0.54747 0.70179 0.0
C1205 C 0.15915 0.55504 0.70865 0.0
C1206 C 0.13505 0.53199 0.71029 0.0
C1207 C 0.14325 0.52448 0.72618 0.0
C1208 C 0.16061 0.53099 0.73171 0.0
C1209 C 0.1685 0.54614 0.72298 0.0
C1210 C 0.13268 0.51235 0.73886 0.0
C1211 C 0.1414 0.49684 0.74651 0.0
C1212 C 0.11491 0.51739 0.74529 0.0
C1213 C 0.10608 0.53507 0.74013 0.0
C1214 C 0.11477 0.5519 0.7442 0.0
C1215 C 0.10659 0.56855 0.73906 0.0
C1216 C 0.08957 0.56855 0.73007 0.0
C1217 C 0.08068 0.5519 0.72628 0.0
C1218 C 0.08885 0.53521 0.73133 0.0
C1219 C 0.10694 0.48349 0.81731 0.0
C1220 C 0.09162 0.47166 0.81706 0.0
C1221 C 0.11487 0.4895 0.80093 0.0
C1222 C 0.10753 0.48398 0.78398 0.0
C1223 C 0.09238 0.47199 0.78357 0.0
C1224 C 0.08459 0.46567 0.80004 0.0
C1225 C 0.11535 0.49168 0.76688 0.0
C1226 C 0.10621 0.50655 0.75868 0.0
C1227 C 0.13315 0.48675 0.76078 0.0
C1228 C 0.14387 0.4721 0.77016 0.0
C1229 C 0.13666 0.45424 0.77204 0.0
C1230 C 0.14646 0.44079 0.78173 0.0
C1231 C 0.16353 0.44503 0.78955 0.0
C1232 C 0.17088 0.4627 0.78761 0.0
C1233 C 0.16114 0.47619 0.77794 0.0
H1234 H 0.17106 0.43462 0.7971 0.0
H1235 H 0.08325 0.58145 0.7261 0.0
H1236 H 0.69416 0.92932 0.96324 0.0
H1237 H 0.72097 0.91625 0.97926 0.0
H1238 H 0.68986 0.86695 0.99086 0.0
H1239 H 0.66311 0.88014 0.97542 0.0
H1240 H 0.70224 0.8824 0.02154 0.0
H1241 H 0.72697 0.86626 0.96215 0.0
H1242 H 0.73708 0.8726 0.93038 0.0
H1243 H 0.77767 0.91058 0.95055 0.0
H1244 H 0.76762 0.90464 0.98245 0.0
H1245 H 0.77121 0.81749 0.04971 0.0
H1246 H 0.75544 0.83447 0.02513 0.0
H1247 H 0.768 0.88571 0.05235 0.0
H1248 H 0.78282 0.86867 0.07754 0.0
H1249 H 0.76715 0.87248 0.00258 0.0
H1250 H 0.7365 0.89113 0.06258 0.0
H1251 H 0.72517 0.88285 0.0935 0.0
H1252 H 0.69407 0.83817 0.07043 0.0
H1253 H 0.70572 0.84588 0.03944 0.0
C1254 C 0.69338 0.91543 0.96864 0.0
C1255 C 0.67672 0.90569 0.96824 0.0
C1256 C 0.70862 0.90802 0.97783 0.0
C1257 C 0.70729 0.89072 0.98639 0.0
C1258 C 0.69109 0.88039 0.9845 0.0
C1259 C 0.67588 0.88786 0.9756 0.0
C1260 C 0.72171 0.88418 -0.00083 0.0
C1261 C 0.71643 0.88029 0.01734 0.0
C1262 C 0.74026 0.8817 0.9938 0.0
C1263 C 0.74643 0.88514 0.97466 0.0
C1264 C 0.73796 0.87607 0.9598 0.0
C1265 C 0.74369 0.87957 0.94177 0.0
C1266 C 0.75798 0.89202 0.93845 0.0
C1267 C 0.76659 0.90095 0.95315 0.0
C1268 C 0.7609 0.89751 0.9712 0.0
C1269 C 0.77108 0.8324 0.0501 0.0
C1270 C 0.77816 0.84188 0.06535 0.0
C1271 C 0.7621 0.84205 0.03612 0.0
C1272 C 0.76047 0.86126 0.03712 0.0
C1273 C 0.76901 0.87086 0.05152 0.0
C1274 C 0.77751 0.86117 0.06578 0.0
C1275 C 0.74753 0.87075 0.02474 0.0
C1276 C 0.75303 0.87503 0.00673 0.0
C1277 C 0.72908 0.87359 0.03016 0.0
C1278 C 0.72235 0.86879 0.04881 0.0
C1279 C 0.72755 0.87932 0.06417 0.0
C1280 C 0.72102 0.87477 0.08169 0.0
C1281 C 0.70901 0.85991 0.08395 0.0
C1282 C 0.70348 0.84959 0.06869 0.0
C1283 C 0.7101 0.854 0.05116 0.0
H1284 H 0.7039 0.85646 0.09752 0.0
H1285 H 0.7624 0.89471 0.92448 0.0
H1286 H 0.32112 0.44969 0.20937 0.0
H1287 H 0.33439 0.47624 0.22572 0.0
H1288 H 0.38489 0.44594 0.23368 0.0
H1289 H 0.37161 0.41948 0.21787 0.0
H1290 H 0.3678 0.45592 0.26594 0.0
H1291 H 0.38329 0.48433 0.20694 0.0
H1292 H 0.37531 0.4972 0.17656 0.0
H1293 H 0.33988 0.53691 0.2023 0.0
H1294 H 0.34747 0.52411 0.23283 0.0
H1295 H 0.43119 0.50665 0.31186 0.0
H1296 H 0.41629 0.49209 0.28549 0.0
H1297 H 0.37374 0.53358 0.28641 0.0
H1298 H 0.38929 0.54874 0.31252 0.0
H1299 H 0.38114 0.52114 0.25061 0.0
H1300 H 0.36597 0.49535 0.3088 0.0
H1301 H 0.37191 0.48304 0.33986 0.0
H1302 H 0.40306 0.4385 0.31662 0.0
H1303 H 0.39758 0.45072 0.28543 0.0
C1304 C 0.33528 0.44904 0.21402 0.0
C1305 C 0.34534 0.43257 0.21256 0.0
C1306 C 0.34282 0.46416 0.22339 0.0
C1307 C 0.36055 0.46295 0.23107 0.0
C1308 C 0.37114 0.4471 0.22797 0.0
C1309 C 0.36358 0.43202 0.21891 0.0
C1310 C 0.36722 0.47659 0.24468 0.0
C1311 C 0.37087 0.47014 0.2625 0.0
C1312 C 0.37019 0.49538 0.2405 0.0
C1313 C 0.3658 0.50313 0.22215 0.0
C1314 C 0.37368 0.4957 0.20611 0.0
C1315 C 0.36925 0.50301 0.18887 0.0
C1316 C 0.35705 0.51782 0.1875 0.0
C1317 C 0.34931 0.52541 0.20338 0.0
C1318 C 0.35368 0.51815 0.22065 0.0
C1319 C 0.41896 0.51295 0.30606 0.0
C1320 C 0.41126 0.52867 0.31412 0.0
C1321 C 0.41043 0.50463 0.29106 0.0
C1322 C 0.39368 0.51151 0.2843 0.0
C1323 C 0.38662 0.52803 0.29148 0.0
C1324 C 0.39545 0.53664 0.30635 0.0
C1325 C 0.38276 0.50006 0.27142 0.0
C1326 C 0.37798 0.50694 0.25399 0.0
C1327 C 0.37835 0.48163 0.27599 0.0
C1328 C 0.38145 0.47404 0.29475 0.0
C1329 C 0.37418 0.48299 0.31031 0.0
C1330 C 0.37746 0.47603 0.32795 0.0
C1331 C 0.38788 0.46001 0.33022 0.0
C1332 C 0.39499 0.45091 0.31485 0.0
C1333 C 0.39179 0.45784 0.29718 0.0
H1334 H 0.39041 0.45465 0.34388 0.0
H1335 H 0.35363 0.52345 0.17413 0.0
H1336 H 0.55293 0.30667 0.39816 0.0
H1337 H 0.54192 0.27884 0.38219 0.0
H1338 H 0.48894 0.28486 0.4084 0.0
H1339 H 0.49964 0.31276 0.42378 0.0
H1340 H 0.50031 0.24783 0.40538 0.0
H1341 H 0.4924 0.3033 0.36989 0.0
H1342 H 0.50276 0.33178 0.35463 0.0
H1343 H 0.53915 0.30039 0.3202 0.0
H1344 H 0.52921 0.2717 0.33554 0.0
H1345 H 0.42184 0.24314 0.35132 0.0
H1346 H 0.44966 0.25259 0.36737 0.0
H1347 H 0.48169 0.2143 0.33526 0.0
H1348 H 0.45341 0.20424 0.31919 0.0
H1349 H 0.49055 0.25881 0.33869 0.0
H1350 H 0.48525 0.20152 0.37178 0.0
H1351 H 0.46746 0.17729 0.38757 0.0
H1352 H 0.44846 0.21671 0.42729 0.0
H1353 H 0.4659 0.24123 0.4116 0.0
C1354 C 0.53908 0.30176 0.40073 0.0
C1355 C 0.52701 0.31186 0.41196 0.0
C1356 C 0.53284 0.28591 0.39167 0.0
C1357 C 0.51464 0.27984 0.39416 0.0
C1358 C 0.50307 0.28925 0.40641 0.0
C1359 C 0.50912 0.30526 0.41504 0.0
C1360 C 0.50655 0.26538 0.38234 0.0
C1361 C 0.49853 0.24993 0.39071 0.0
C1362 C 0.50417 0.26826 0.36323 0.0
C1363 C 0.51036 0.28542 0.3541 0.0
C1364 C 0.5028 0.3025 0.35923 0.0
C1365 C 0.50855 0.31867 0.35054 0.0
C1366 C 0.52168 0.31791 0.33652 0.0
C1367 C 0.52905 0.30096 0.33113 0.0
C1368 C 0.52338 0.28474 0.33984 0.0
C1369 C 0.43475 0.2366 0.34768 0.0
C1370 C 0.43551 0.22305 0.33392 0.0
C1371 C 0.4506 0.24196 0.35694 0.0
C1372 C 0.46761 0.23407 0.35251 0.0
C1373 C 0.46858 0.22042 0.33887 0.0
C1374 C 0.4525 0.21471 0.32976 0.0
C1375 C 0.48412 0.24139 0.36176 0.0
C1376 C 0.49344 0.25587 0.35305 0.0
C1377 C 0.48707 0.23802 0.38069 0.0
C1378 C 0.47692 0.22322 0.39049 0.0
C1379 C 0.47723 0.20504 0.38384 0.0
C1380 C 0.4672 0.19125 0.39278 0.0
C1381 C 0.45684 0.19546 0.40843 0.0
C1382 C 0.45652 0.21346 0.41519 0.0
C1383 C 0.46652 0.2273 0.40631 0.0
H1384 H 0.44906 0.18477 0.4153 0.0
H1385 H 0.52609 0.33044 0.32977 0.0
H1386 H 0.05443 0.20397 0.58322 0.0
H1387 H 0.03357 0.2279 0.5949 0.0
H1388 H 0.99206 0.18671 0.60523 0.0
H1389 H 0.01279 0.1628 0.5939 0.0
H1390 H 0.97889 0.21893 0.58673 0.0
H1391 H 0.01503 0.20057 0.63993 0.0
H1392 H 0.0443 0.19536 0.65634 0.0
H1393 H 0.05859 0.25233 0.64955 0.0
H1394 H 0.02945 0.25781 0.63286 0.0
H1395 H 0.9155 0.24284 0.65247 0.0
H1396 H 0.94014 0.23042 0.63393 0.0
H1397 H 0.97089 0.28086 0.64024 0.0
H1398 H 0.9461 0.29344 0.65966 0.0
H1399 H 0.99235 0.25107 0.64552 0.0
H1400 H 0.95089 0.26981 0.59825 0.0
H1401 H 0.9206 0.27331 0.5833 0.0
H1402 H 0.91534 0.21457 0.57942 0.0
H1403 H 0.94548 0.21069 0.59456 0.0
C1404 C 0.04088 0.20005 0.58807 0.0
C1405 C 0.03526 0.18153 0.58779 0.0
C1406 C 0.029 0.21371 0.59465 0.0
C1407 C 0.0113 0.20902 0.60082 0.0
C1408 C 0.00564 0.19057 0.60041 0.0
C1409 C 0.01757 0.17692 0.5941 0.0
C1410 C -0.00129 0.22312 0.60835 0.0
C1411 C 0.98179 0.22606 0.59953 0.0
C1412 C 0.00283 0.23274 0.62475 0.0
C1413 C 0.0202 0.22955 0.63496 0.0
C1414 C 0.02448 0.21195 0.64181 0.0
C1415 C 0.04103 0.20895 0.65118 0.0
C1416 C 0.05333 0.22349 0.65393 0.0
C1417 C 0.04906 0.24107 0.64737 0.0
C1418 C 0.03253 0.24414 0.63797 0.0
C1419 C 0.92737 0.25148 0.64986 0.0
C1420 C 0.92876 0.26922 0.65749 0.0
C1421 C 0.94145 0.24435 0.63909 0.0
C1422 C 0.95716 0.25487 0.63527 0.0
C1423 C 0.95875 0.27261 0.64286 0.0
C1424 C 0.94461 0.27976 0.65392 0.0
C1425 C 0.97215 0.2465 0.62423 0.0
C1426 C 0.98958 0.24455 0.63237 0.0
C1427 C 0.96844 0.2377 0.60721 0.0
C1428 C 0.9505 0.23997 0.59757 0.0
C1429 C 0.94327 0.25764 0.59424 0.0
C1430 C 0.92611 0.25969 0.58574 0.0
C1431 C 0.91605 0.24418 0.58042 0.0
C1432 C 0.92316 0.22658 0.58352 0.0
C1433 C 0.94032 0.22445 0.59201 0.0
H1434 H 0.90275 0.24579 0.57388 0.0
H1435 H 0.06614 0.22115 0.66118 0.0
H1436 H 0.94789 0.6993 0.91402 0.0
H1437 H 0.96369 0.72645 0.90118 0.0
H1438 H 0.00807 0.69164 0.88252 0.0
H1439 H 0.99271 0.6649 0.89511 0.0
H1440 H 0.02083 0.72153 0.90072 0.0
H1441 H 0.97572 0.70673 0.85301 0.0
H1442 H 0.944 0.70257 0.84156 0.0
H1443 H 0.9311 0.7584 0.85614 0.0
H1444 H 0.96273 0.7628 0.86788 0.0
H1445 H 0.07021 0.74492 0.82551 0.0
H1446 H 0.04442 0.73265 0.84295 0.0
H1447 H 0.0269 0.78771 0.85654 0.0
H1448 H 0.05295 0.80032 0.83877 0.0
H1449 H 0.99723 0.75722 0.84745 0.0
H1450 H 0.04807 0.7719 0.88795 0.0
H1451 H 0.08119 0.77303 0.89546 0.0
H1452 H 0.08436 0.71413 0.89181 0.0
H1453 H 0.05134 0.71265 0.88396 0.0
C1454 C 0.96095 0.6975 0.90706 0.0
C1455 C 0.96907 0.67996 0.90567 0.0
C1456 C 0.96996 0.71299 0.89979 0.0
C1457 C 0.98713 0.71104 0.89107 0.0
C1458 C 0.99496 0.6935 0.88942 0.0
C1459 C 0.98607 0.67818 0.89658 0.0
C1460 C 0.99736 0.72691 0.88338 0.0
C1461 C 0.01557 0.72956 0.88927 0.0
C1462 C 0.99038 0.73762 0.86869 0.0
C1463 C 0.97146 0.73502 0.86153 0.0
C1464 C 0.96606 0.71807 0.8539 0.0
C1465 C 0.94812 0.71567 0.84733 0.0
C1466 C 0.93552 0.73019 0.84818 0.0
C1467 C 0.94086 0.74715 0.85554 0.0
C1468 C 0.95879 0.74961 0.86214 0.0
C1469 C 0.06073 0.75449 0.83191 0.0
C1470 C 0.06373 0.77357 0.83104 0.0
C1471 C 0.04596 0.74745 0.84181 0.0
C1472 C 0.03399 0.75929 0.85119 0.0
C1473 C 0.03608 0.77841 0.84936 0.0
C1474 C 0.05092 0.78555 0.83926 0.0
C1475 C 0.02083 0.75116 0.86436 0.0
C1476 C 0.00218 0.7499 0.85949 0.0
C1477 C 0.02747 0.74141 0.87985 0.0
C1478 C 0.0472 0.74219 0.88535 0.0
C1479 C 0.05583 0.75919 0.88871 0.0
C1480 C 0.0746 0.75989 0.89301 0.0
C1481 C 0.08487 0.74367 0.8941 0.0
C1482 C 0.07638 0.72669 0.89098 0.0
C1483 C 0.05763 0.72591 0.88665 0.0
H1484 H 0.09941 0.74424 0.89737 0.0
H1485 H 0.92163 0.72831 0.8431 0.0
H1486 H 0.58244 0.74166 0.14147 0.0
H1487 H 0.55584 0.75362 0.12508 0.0
H1488 H 0.52017 0.7173 0.15559 0.0
H1489 H 0.54704 0.70501 0.17227 0.0
H1490 H 0.51214 0.72314 0.11445 0.0
H1491 H 0.52033 0.75639 0.17154 0.0
H1492 H 0.53861 0.77251 0.1952 0.0
H1493 H 0.55628 0.81211 0.15506 0.0
H1494 H 0.53836 0.79607 0.1311 0.0
H1495 H 0.44474 0.80046 0.09056 0.0
H1496 H 0.45875 0.7743 0.10708 0.0
H1497 H 0.51161 0.78793 0.08381 0.0
H1498 H 0.49795 0.81376 0.06745 0.0
H1499 H 0.50334 0.7898 0.12662 0.0
H1500 H 0.503 0.75373 0.06949 0.0
H1501 H 0.48754 0.73792 0.04373 0.0
H1502 H 0.45705 0.70474 0.08199 0.0
H1503 H 0.4722 0.72057 0.108 0.0
C1504 C 0.569 0.73598 0.1446 0.0
C1505 C 0.56679 0.7226 0.15839 0.0
C1506 C 0.55383 0.74281 0.13516 0.0
C1507 C 0.53609 0.73651 0.13934 0.0
C1508 C 0.53381 0.72232 0.15225 0.0
C1509 C 0.54913 0.71537 0.16176 0.0
C1510 C 0.52018 0.74624 0.13126 0.0
C1511 C 0.50979 0.73758 0.11744 0.0
C1512 C 0.51738 0.76514 0.13504 0.0
C1513 C 0.52802 0.77497 0.14951 0.0
C1514 C 0.5282 0.76847 0.16773 0.0
C1515 C 0.53849 0.7776 0.1812 0.0
C1516 C 0.54861 0.79332 0.17663 0.0
C1517 C 0.54843 0.79995 0.15859 0.0
C1518 C 0.53818 0.79086 0.14507 0.0
C1519 C 0.45923 0.7975 0.0886 0.0
C1520 C 0.47035 0.8093 0.07802 0.0
C1521 C 0.46716 0.78257 0.09797 0.0
C1522 C 0.48616 0.77928 0.09657 0.0
C1523 C 0.49691 0.79025 0.08494 0.0
C1524 C 0.48909 0.80508 0.07573 0.0
C1525 C 0.49575 0.76689 0.10945 0.0
C1526 C 0.50507 0.77516 0.12416 0.0
C1527 C 0.49775 0.74783 0.10624 0.0
C1528 C 0.48846 0.73856 0.09066 0.0
C1529 C 0.4928 0.74326 0.07241 0.0
C1530 C 0.48416 0.73424 0.05776 0.0
C1531 C 0.47125 0.7204 0.06122 0.0
C1532 C 0.467 0.71551 0.07933 0.0
C1533 C 0.47561 0.7245 0.09402 0.0
H1534 H 0.46459 0.71341 0.04987 0.0
H1535 H 0.55657 0.80037 0.18708 0.0
H1536 H 0.18053 0.35975 0.34557 0.0
H1537 H 0.18655 0.36812 0.31383 0.0
H1538 H 0.17924 0.31147 0.2975 0.0
H1539 H 0.17344 0.3031 0.32954 0.0
H1540 H 0.21441 0.32206 0.29632 0.0
H1541 H 0.15809 0.34784 0.27304 0.0
H1542 H 0.13032 0.36727 0.27527 0.0
H1543 H 0.16412 0.41541 0.28123 0.0
H1544 H 0.19209 0.39627 0.27921 0.0
H1545 H 0.27438 0.34249 0.22417 0.0
H1546 H 0.24617 0.33308 0.23998 0.0
H1547 H 0.23887 0.38865 0.25991 0.0
H1548 H 0.26633 0.3983 0.24271 0.0
H1549 H 0.20689 0.3753 0.25431 0.0
H1550 H 0.26026 0.35302 0.28597 0.0
H1551 H 0.28983 0.33667 0.28944 0.0
H1552 H 0.26374 0.28574 0.27457 0.0
H1553 H 0.23404 0.30186 0.27075 0.0
C1554 C 0.17881 0.34935 0.33501 0.0
C1555 C 0.17687 0.33078 0.33993 0.0
C1556 C 0.18234 0.35412 0.31677 0.0
C1557 C 0.18378 0.34035 0.30329 0.0
C1558 C 0.17834 0.3223 0.30772 0.0
C1559 C 0.1748 0.31754 0.32603 0.0
C1560 C 0.19608 0.34362 0.28731 0.0
C1561 C 0.21242 0.33329 0.28666 0.0
C1562 C 0.19401 0.35894 0.27547 0.0
C1563 C 0.1772 0.37059 0.27595 0.0
C1564 C 0.15961 0.36257 0.27483 0.0
C1565 C 0.14383 0.37353 0.27607 0.0
C1566 C 0.14546 0.39256 0.27839 0.0
C1567 C 0.16288 0.40067 0.27938 0.0
C1568 C 0.1787 0.38978 0.27812 0.0
C1569 C 0.26667 0.35264 0.23192 0.0
C1570 C 0.2726 0.37097 0.23271 0.0
C1571 C 0.25057 0.34729 0.24093 0.0
C1572 C 0.24061 0.36002 0.25159 0.0
C1573 C 0.2463 0.37854 0.25185 0.0
C1574 C 0.26206 0.38402 0.24225 0.0
C1575 C 0.22518 0.35378 0.26351 0.0
C1576 C 0.2085 0.36365 0.2635 0.0
C1577 C 0.22717 0.33847 0.27542 0.0
C1578 C 0.24498 0.32868 0.27784 0.0
C1579 C 0.26086 0.33835 0.28332 0.0
C1580 C 0.27764 0.32913 0.28536 0.0
C1581 C 0.27868 0.31019 0.28216 0.0
C1582 C 0.26292 0.30042 0.27699 0.0
C1583 C 0.24611 0.30959 0.27489 0.0
H1584 H 0.29168 0.30307 0.28375 0.0
H1585 H 0.13322 0.40102 0.27941 0.0
H1586 H 0.9093 0.00874 0.46993 0.0
H1587 H 0.91688 0.98178 0.48867 0.0
H1588 H 0.85892 0.96996 0.49464 0.0
H1589 H 0.8515 0.99671 0.47546 0.0
H1590 H 0.90551 0.98451 0.52353 0.0
H1591 H 0.85133 0.93165 0.50652 0.0
H1592 H 0.83741 0.91704 0.47911 0.0
H1593 H 0.88943 0.91957 0.45109 0.0
H1594 H 0.90352 0.93444 0.47824 0.0
H1595 H 0.87824 0.94309 0.60184 0.0
H1596 H 0.87153 0.9452 0.56907 0.0
H1597 H 0.924 0.92048 0.5566 0.0
H1598 H 0.93092 0.91841 0.58948 0.0
H1599 H 0.88391 0.91982 0.52829 0.0
H1600 H 0.93705 0.95539 0.55704 0.0
H1601 H 0.9503 0.97271 0.58315 0.0
H1602 H 0.90176 0.00638 0.58573 0.0
H1603 H 0.88813 0.98904 0.55986 0.0
C1604 C 0.89831 -9e-05 0.4747 0.0
C1605 C 0.87991 0.00475 0.47155 0.0
C1606 C 0.90259 0.9845 0.4853 0.0
C1607 C 0.88848 0.97388 0.49313 0.0
C1608 C 0.87006 0.97773 0.4885 0.0
C1609 C 0.86581 0.99305 0.47762 0.0
C1610 C 0.89267 0.96193 0.50912 0.0
C1611 C 0.90121 0.97022 0.52432 0.0
C1612 C 0.88671 0.94345 0.51039 0.0
C1613 C 0.87844 0.93404 0.49437 0.0
C1614 C 0.85978 0.92895 0.49454 0.0
C1615 C 0.85185 0.92074 0.47903 0.0
C1616 C 0.86254 0.91736 0.46338 0.0
C1617 C 0.88116 0.92222 0.4632 0.0
C1618 C 0.8891 0.93061 0.4786 0.0
C1619 C 0.88791 0.93711 0.59218 0.0
C1620 C 0.90529 0.93102 0.59817 0.0
C1621 C 0.88401 0.93827 0.57343 0.0
C1622 C 0.8974 0.93325 0.56049 0.0
C1623 C 0.91348 0.92435 0.56645 0.0
C1624 C 0.91741 0.92317 0.58528 0.0
C1625 C 0.89706 0.94242 0.54237 0.0
C1626 C 0.88885 0.93385 0.5271 0.0
C1627 C 0.90348 0.96073 0.54085 0.0
C1628 C 0.91151 0.97079 0.5567 0.0
C1629 C 0.92913 0.96633 0.56334 0.0
C1630 C 0.93672 0.97618 0.57806 0.0
C1631 C 0.92687 0.99062 0.58609 0.0
C1632 C 0.90936 0.99517 0.57952 0.0
C1633 C 0.9017 0.98533 0.56485 0.0
H1634 H 0.93282 -0.00162 0.59732 0.0
H1635 H 0.85638 0.911 0.4514 0.0
H1636 H 0.20569 0.64048 0.75323 0.0
H1637 H 0.23257 0.65082 0.77078 0.0
H1638 H 0.26766 0.61582 0.73814 0.0
H1639 H 0.24094 0.60555 0.72032 0.0
H1640 H 0.27099 0.61515 0.78029 0.0
H1641 H 0.26962 0.65719 0.72702 0.0
H1642 H 0.25216 0.67883 0.70749 0.0
H1643 H 0.24088 0.71273 0.75458 0.0
H1644 H 0.25809 0.69118 0.7744 0.0
H1645 H 0.33879 0.64578 0.83595 0.0
H1646 H 0.32845 0.63856 0.80472 0.0
H1647 H 0.29518 0.6879 0.8049 0.0
H1648 H 0.30789 0.69641 0.83431 0.0
H1649 H 0.29407 0.67913 0.77403 0.0
H1650 H 0.28316 0.6409 0.82748 0.0
H1651 H 0.29139 0.62037 0.85327 0.0
H1652 H 0.3151 0.58171 0.81535 0.0
H1653 H 0.30711 0.6021 0.78934 0.0
C1654 C 0.2191 0.6349 0.74984 0.0
C1655 C 0.22119 0.62223 0.73536 0.0
C1656 C 0.23442 0.64087 0.75982 0.0
C1657 C 0.25204 0.63418 0.75558 0.0
C1658 C 0.25415 0.62117 0.74151 0.0
C1659 C 0.23887 0.61535 0.73136 0.0
C1660 C 0.26826 0.64081 0.7659 0.0
C1661 C 0.27637 0.62901 0.77875 0.0
C1662 C 0.27456 0.65913 0.76435 0.0
C1663 C 0.26516 0.67257 0.75218 0.0
C1664 C 0.26343 0.66927 0.73319 0.0
C1665 C 0.25356 0.68151 0.72208 0.0
C1666 C 0.24542 0.69715 0.72979 0.0
C1667 C 0.24722 0.70063 0.74861 0.0
C1668 C 0.25708 0.68844 0.75978 0.0
C1669 C 0.33048 0.65575 0.8286 0.0
C1670 C 0.32375 0.67141 0.83768 0.0
C1671 C 0.32404 0.65136 0.81096 0.0
C1672 C 0.30975 0.66182 0.80302 0.0
C1673 C 0.30574 0.67913 0.81072 0.0
C1674 C 0.31319 0.68413 0.82768 0.0
C1675 C 0.29679 0.65366 0.7892 0.0
C1676 C 0.28916 0.66512 0.77553 0.0
C1677 C 0.28992 0.63536 0.79095 0.0
C1678 C 0.29479 0.62312 0.80653 0.0
C1679 C 0.2902 0.62805 0.82467 0.0
C1680 C 0.29482 0.61645 0.83932 0.0
C1681 C 0.30384 0.59978 0.83596 0.0
C1682 C 0.30818 0.59465 0.81793 0.0
C1683 C 0.30361 0.60622 0.80324 0.0
H1684 H 0.30741 0.59082 0.84731 0.0
H1685 H 0.23772 0.70656 0.72118 0.0
H1686 H 0.55863 0.07165 0.08302 0.0
H1687 H 0.56735 0.06619 0.05105 0.0
H1688 H 0.62455 0.06502 0.06676 0.0
H1689 H 0.61583 0.06977 0.09883 0.0
H1690 H 0.59893 0.07338 0.02025 0.0
H1691 H 0.62921 0.02771 0.07038 0.0
H1692 H 0.6254 0.0137 0.10116 0.0
H1693 H 0.56752 0.0067 0.09106 0.0
H1694 H 0.57103 0.02087 0.06036 0.0
H1695 H 0.63902 0.99661 0.96714 0.0
H1696 H 0.63247 0.0242 0.98573 0.0
H1697 H 0.58267 -0.00129 0.00577 0.0
H1698 H 0.58932 0.97126 0.98771 0.0
H1699 H 0.60668 0.00664 0.03289 0.0
H1700 H 0.57942 0.03573 0.98085 0.0
H1701 H 0.57803 0.04732 0.94901 0.0
H1702 H 0.62216 0.08496 0.96048 0.0
H1703 H 0.62403 0.07336 0.99235 0.0
C1704 C 0.57312 0.07158 0.07947 0.0
C1705 C 0.58657 0.07086 0.09335 0.0
C1706 C 0.5781 0.06842 0.06115 0.0
C1707 C 0.59656 0.06489 0.05664 0.0
C1708 C 0.61023 0.06771 0.06999 0.0
C1709 C 0.60524 0.07048 0.08835 0.0
C1710 C 0.60053 0.05237 0.04113 0.0
C1711 C 0.60094 0.05883 0.02291 0.0
C1712 C 0.6025 0.03334 0.04461 0.0
C1713 C 0.60035 0.02543 0.06325 0.0
C1714 C 0.61569 0.02324 0.07482 0.0
C1715 C 0.61358 0.01527 0.09222 0.0
C1716 C 0.59624 0.00926 0.09804 0.0
C1717 C 0.58094 0.01135 0.08654 0.0
C1718 C 0.58297 0.01941 0.06919 0.0
C1719 C 0.62642 0.99724 0.9751 0.0
C1720 C 0.61481 0.98183 0.97633 0.0
C1721 C 0.62268 0.01295 0.98567 0.0
C1722 C 0.60719 0.01335 0.99725 0.0
C1723 C 0.59477 -0.00142 0.99704 0.0
C1724 C 0.59859 0.98292 0.98675 0.0
C1725 C 0.60525 0.02747 0.01178 0.0
C1726 C 0.60514 0.02123 0.03001 0.0
C1727 C 0.6031 0.04647 0.00807 0.0
C1728 C 0.60202 0.05352 0.98894 0.0
C1729 C 0.58897 0.04634 0.97654 0.0
C1730 C 0.58806 0.05294 0.95849 0.0
C1731 C 0.60004 0.06683 0.95271 0.0
C1732 C 0.61292 0.07418 0.96498 0.0
C1733 C 0.6139 0.0676 0.98304 0.0
H1734 H 0.5993 0.07194 0.93873 0.0
H1735 H 0.59464 0.00308 0.1115 0.0
H1736 H 0.67884 0.13354 0.64347 0.0
H1737 H 0.68054 0.12587 0.67614 0.0
H1738 H 0.67463 0.18325 0.68992 0.0
H1739 H 0.67212 0.1909 0.65731 0.0
H1740 H 0.71313 0.16054 0.68919 0.0
H1741 H 0.65288 0.16692 0.71491 0.0
H1742 H 0.61958 0.16073 0.71706 0.0
H1743 H 0.63061 0.10363 0.72765 0.0
H1744 H 0.66402 0.10945 0.72532 0.0
H1745 H 0.76114 0.15465 0.76884 0.0
H1746 H 0.73338 0.16356 0.75198 0.0
H1747 H 0.71902 0.10631 0.7452 0.0
H1748 H 0.74645 0.09741 0.76304 0.0
H1749 H 0.68729 0.13069 0.74496 0.0
H1750 H 0.74618 0.12301 0.71471 0.0
H1751 H 0.77967 0.12798 0.71189 0.0
H1752 H 0.77094 0.18631 0.70778 0.0
H1753 H 0.73739 0.18168 0.71089 0.0
C1754 C 0.67652 0.14432 0.65351 0.0
C1755 C 0.6756 0.16281 0.64793 0.0
C1756 C 0.6775 0.13993 0.6722 0.0
C1757 C 0.67789 0.15402 0.68539 0.0
C1758 C 0.67415 0.17217 0.67994 0.0
C1759 C 0.67269 0.17652 0.66125 0.0
C1760 C 0.68846 0.15079 0.70245 0.0
C1761 C 0.70739 0.15441 0.70156 0.0
C1762 C 0.681 0.1422 0.7182 0.0
C1763 C 0.66096 0.13859 0.71974 0.0
C1764 C 0.64821 0.15301 0.7175 0.0
C1765 C 0.62931 0.14957 0.71881 0.0
C1766 C 0.62298 0.13178 0.72243 0.0
C1767 C 0.63554 0.1174 0.72483 0.0
C1768 C 0.65447 0.12077 0.72355 0.0
C1769 C 0.75168 0.14404 0.76429 0.0
C1770 C 0.75593 0.1254 0.76686 0.0
C1771 C 0.7358 0.14911 0.75479 0.0
C1772 C 0.72434 0.13558 0.74704 0.0
C1773 C 0.72766 0.11695 0.75109 0.0
C1774 C 0.74338 0.11188 0.76109 0.0
C1775 C 0.7119 0.14072 0.7317 0.0
C1776 C 0.69288 0.13717 0.73273 0.0
C1777 C 0.71921 0.14922 0.71577 0.0
C1778 C 0.73931 0.15201 0.7132 0.0
C1779 C 0.75142 0.1369 0.71327 0.0
C1780 C 0.77041 0.13965 0.71164 0.0
C1781 C 0.77744 0.15745 0.70971 0.0
C1782 C 0.76548 0.17253 0.70931 0.0
C1783 C 0.74647 0.16985 0.71099 0.0
H1784 H 0.79214 0.15956 0.70849 0.0
H1785 H 0.60834 0.12915 0.72343 0.0
H1786 H 0.1191 0.53719 0.00017 0.0
H1787 H 0.10823 0.51288 0.97939 0.0
H1788 H 0.12995 0.4716 0.01604 0.0
H1789 H 0.14066 0.49568 0.03697 0.0
H1790 H 0.13084 0.48596 0.96258 0.0
H1791 H 0.10526 0.44814 0.02121 0.0
H1792 H 0.08675 0.452 0.0495 0.0
H1793 H 0.04786 0.48528 0.01987 0.0
H1794 H 0.06636 0.48185 0.99155 0.0
H1795 H 0.11147 0.41909 0.9027 0.0
H1796 H 0.1214 0.42695 0.93383 0.0
H1797 H 0.06577 0.44296 0.94727 0.0
H1798 H 0.05567 0.43348 0.91685 0.0
H1799 H 0.08246 0.44005 0.97757 0.0
H1800 H 0.0955 0.47475 0.92268 0.0
H1801 H 0.10739 0.48082 0.89142 0.0
H1802 H 0.16155 0.46435 0.90851 0.0
H1803 H 0.15003 0.45859 0.93999 0.0
C1804 C 0.12151 0.52294 0.00382 0.0
C1805 C 0.13076 0.51833 0.02017 0.0
C1806 C 0.11518 0.5091 0.99203 0.0
C1807 C 0.11793 0.49048 0.99643 0.0
C1808 C 0.12722 0.48586 0.01268 0.0
C1809 C 0.13348 0.49966 0.02451 0.0
C1810 C 0.11228 0.47595 0.98333 0.0
C1811 C 0.12055 0.47566 0.96597 0.0
C1812 C 0.09828 0.46311 0.98747 0.0
C1813 C 0.08718 0.46483 0.0044 0.0
C1814 C 0.09279 0.45631 0.0208 0.0
C1815 C 0.08233 0.45845 0.03683 0.0
C1816 C 0.06615 0.46889 0.03649 0.0
C1817 C 0.0604 0.47723 0.02013 0.0
C1818 C 0.07089 0.47524 0.00412 0.0
C1819 C 0.10115 0.42283 0.9128 0.0
C1820 C 0.08291 0.42611 0.90732 0.0
C1821 C 0.10688 0.42775 0.93049 0.0
C1822 C 0.09455 0.43668 0.94246 0.0
C1823 C 0.07569 0.43653 0.93818 0.0
C1824 C 0.06984 0.43087 0.92074 0.0
C1825 C 0.10154 0.44952 0.95683 0.0
C1826 C 0.09331 0.44978 0.97436 0.0
C1827 C 0.11496 0.46309 0.9525 0.0
C1828 C 0.12188 0.46602 0.93355 0.0
C1829 C 0.10992 0.47235 0.91971 0.0
C1830 C 0.11661 0.47581 0.902 0.0
C1831 C 0.13518 0.47281 0.89795 0.0
C1832 C 0.14716 0.46657 0.91166 0.0
C1833 C 0.14059 0.46331 0.92945 0.0
H1834 H 0.1403 0.47541 0.8842 0.0
H1835 H 0.05806 0.47051 0.04889 0.0
H1836 H 0.7497 0.86614 0.28491 0.0
H1837 H 0.77679 0.85765 0.2665 0.0
H1838 H 0.75948 0.89547 0.22405 0.0
H1839 H 0.732 0.90302 0.24188 0.0
H1840 H 0.7604 0.86187 0.21189 0.0
H1841 H 0.80169 0.89933 0.24866 0.0
H1842 H 0.81672 0.90945 0.27737 0.0
H1843 H 0.83819 0.85501 0.28572 0.0
H1844 H 0.82309 0.8445 0.25718 0.0
H1845 H 0.82145 0.85382 0.14392 0.0
H1846 H 0.81873 0.86787 0.17427 0.0
H1847 H 0.81449 0.81408 0.19886 0.0
H1848 H 0.81705 0.8 0.16844 0.0
H1849 H 0.8276 0.85451 0.22205 0.0
H1850 H 0.77656 0.8163 0.19348 0.0
H1851 H 0.75874 0.80471 0.16692 0.0
H1852 H 0.75508 0.85956 0.14515 0.0
H1853 H 0.77289 0.8714 0.17163 0.0
C1854 C 0.75206 0.87296 0.27186 0.0
C1855 C 0.73877 0.88496 0.26455 0.0
C1856 C 0.76759 0.86823 0.26143 0.0
C1857 C 0.77013 0.87586 0.24384 0.0
C1858 C 0.75774 0.88933 0.23753 0.0
C1859 C 0.74203 0.8936 0.24765 0.0
C1860 C 0.78297 0.8673 0.23047 0.0
C1861 C 0.77513 0.86061 0.21416 0.0
C1862 C 0.80207 0.86474 0.23367 0.0
C1863 C 0.81111 0.87109 0.25085 0.0
C1864 C 0.80947 0.88948 0.25669 0.0
C1865 C 0.81805 0.89529 0.27292 0.0
C1866 C 0.82837 0.88287 0.28338 0.0
C1867 C 0.83018 0.86462 0.27762 0.0
C1868 C 0.82164 0.85873 0.2614 0.0
C1869 C 0.82144 0.84498 0.15593 0.0
C1870 C 0.81941 0.82589 0.15396 0.0
C1871 C 0.81983 0.85302 0.1733 0.0
C1872 C 0.8162 0.84199 0.18872 0.0
C1873 C 0.81744 0.82279 0.18712 0.0
C1874 C 0.81897 0.81474 0.16972 0.0
C1875 C 0.80487 0.84986 0.2036 0.0
C1876 C 0.81288 0.8561 0.22003 0.0
C1877 C 0.78574 0.85185 0.20085 0.0
C1878 C 0.77622 0.84466 0.18432 0.0
C1879 C 0.7721 0.82582 0.18291 0.0
C1880 C 0.7619 0.81923 0.16797 0.0
C1881 C 0.75571 0.8314 0.1544 0.0
C1882 C 0.75985 0.85016 0.15569 0.0
C1883 C 0.77 0.85681 0.17064 0.0
H1884 H 0.74783 0.82628 0.14283 0.0
H1885 H 0.83499 0.88741 0.29594 0.0
H1886 H 0.40698 0.47297 0.5182 0.0
H1887 H 0.41492 0.49926 0.49861 0.0
H1888 H 0.35869 0.51821 0.50125 0.0
H1889 H 0.35067 0.49196 0.52084 0.0
H1890 H 0.37473 0.51109 0.46463 0.0
H1891 H 0.38984 0.54228 0.52276 0.0
H1892 H 0.40715 0.5435 0.55196 0.0
H1893 H 0.4582 0.54156 0.5222 0.0
H1894 H 0.4412 0.54009 0.49285 0.0
H1895 H 0.38389 0.57657 0.40158 0.0
H1896 H 0.37623 0.5686 0.43329 0.0
H1897 H 0.43391 0.56064 0.44517 0.0
H1898 H 0.44162 0.56994 0.41397 0.0
H1899 H 0.41707 0.56348 0.4763 0.0
H1900 H 0.41041 0.5258 0.424 0.0
H1901 H 0.40098 0.51617 0.39284 0.0
H1902 H 0.34408 0.52125 0.40814 0.0
H1903 H 0.35321 0.53081 0.43948 0.0
C1904 C 0.39637 0.48283 0.51469 0.0
C1905 C 0.37817 0.48033 0.52077 0.0
C1906 C 0.40096 0.49791 0.5037 0.0
C1907 C 0.38738 0.51066 0.4986 0.0
C1908 C 0.36935 0.50854 0.50518 0.0
C1909 C 0.3648 0.49358 0.51635 0.0
C1910 C 0.39144 0.52496 0.48476 0.0
C1911 C 0.38355 0.52285 0.46731 0.0
C1912 C 0.40408 0.53943 0.48796 0.0
C1913 C 0.41423 0.54103 0.50561 0.0
C1914 C 0.40475 0.54207 0.52245 0.0
C1915 C 0.41451 0.5428 0.53903 0.0
C1916 C 0.43376 0.5426 0.53894 0.0
C1917 C 0.44329 0.54174 0.52226 0.0
C1918 C 0.4336 0.541 0.50565 0.0
C1919 C 0.39497 0.57448 0.41136 0.0
C1920 C 0.41328 0.57342 0.40529 0.0
C1921 C 0.3906 0.56964 0.42942 0.0
C1922 C 0.40444 0.56303 0.44125 0.0
C1923 C 0.42295 0.56533 0.4362 0.0
C1924 C 0.42737 0.57079 0.4183 0.0
C1925 C 0.39963 0.5501 0.45632 0.0
C1926 C 0.40769 0.55213 0.47379 0.0
C1927 C 0.38814 0.53468 0.45287 0.0
C1928 C 0.38248 0.52927 0.43398 0.0
C1929 C 0.39589 0.52499 0.42068 0.0
C1930 C 0.3906 0.51948 0.40301 0.0
C1931 C 0.37194 0.51823 0.39848 0.0
C1932 C 0.35853 0.52232 0.41166 0.0
C1933 C 0.36375 0.52772 0.42939 0.0
H1934 H 0.36788 0.51401 0.38477 0.0
H1935 H 0.44129 0.54312 0.55179 0.0
H1936 H 0.20407 0.24581 0.37279 0.0
H1937 H 0.21977 0.2172 0.36332 0.0
H1938 H 0.27225 0.24212 0.37564 0.0
H1939 H 0.25687 0.27053 0.38465 0.0
H1940 H 0.2595 0.22984 0.33501 0.0
H1941 H 0.27229 0.21397 0.40031 0.0
H1942 H 0.26332 0.20455 0.43168 0.0
H1943 H 0.23273 0.15903 0.40954 0.0
H1944 H 0.24147 0.16833 0.37801 0.0
H1945 H 0.34692 0.19755 0.36196 0.0
H1946 H 0.31406 0.20005 0.36751 0.0
H1947 H 0.30291 0.17241 0.31617 0.0
H1948 H 0.33614 0.17077 0.30996 0.0
H1949 H 0.28328 0.17503 0.36788 0.0
H1950 H 0.28368 0.19313 0.30011 0.0
H1951 H 0.29718 0.20819 0.27281 0.0
H1952 H 0.30744 0.25704 0.30444 0.0
H1953 H 0.29474 0.24199 0.33208 0.0
C1954 C 0.21892 0.2449 0.37394 0.0
C1955 C 0.22936 0.26038 0.37911 0.0
C1956 C 0.22782 0.22859 0.3686 0.0
C1957 C 0.24711 0.22764 0.36886 0.0
C1958 C 0.25733 0.24261 0.37548 0.0
C1959 C 0.24855 0.25886 0.38049 0.0
C1960 C 0.25722 0.21297 0.35917 0.0
C1961 C 0.26435 0.21746 0.34184 0.0
C1962 C 0.26339 0.19694 0.36816 0.0
C1963 C 0.25715 0.19206 0.38687 0.0
C1964 C 0.26337 0.20216 0.40214 0.0
C1965 C 0.25843 0.19678 0.41994 0.0
C1966 C 0.24737 0.18126 0.4226 0.0
C1967 C 0.24121 0.17111 0.40745 0.0
C1968 C 0.24613 0.17643 0.38962 0.0
C1969 C 0.33754 0.19143 0.3521 0.0
C1970 C 0.34409 0.18426 0.33539 0.0
C1971 C 0.31872 0.19298 0.35523 0.0
C1972 C 0.30607 0.18706 0.34191 0.0
C1973 C 0.31249 0.17771 0.32627 0.0
C1974 C 0.33148 0.17637 0.32297 0.0
C1975 C 0.28661 0.1926 0.34423 0.0
C1976 C 0.27759 0.18653 0.36024 0.0
C1977 C 0.2794 0.2079 0.33448 0.0
C1978 C 0.28873 0.21619 0.31829 0.0
C1979 C 0.28936 0.20684 0.30139 0.0
C1980 C 0.29677 0.21544 0.28582 0.0
C1981 C 0.30321 0.23353 0.28691 0.0
C1982 C 0.30256 0.24298 0.30363 0.0
C1983 C 0.29539 0.23437 0.31927 0.0
H1984 H 0.30854 0.2403 0.27476 0.0
H1985 H 0.24363 0.17706 0.43639 0.0
H1986 H 0.99523 0.96194 0.62212 0.0
H1987 H 0.02086 0.9791 0.60815 0.0
H1988 H 0.9868 0.02777 0.60605 0.0
H1989 H 0.96137 0.01086 0.61943 0.0
H1990 H 0.00385 0.02325 0.57448 0.0
H1991 H 0.02004 0.01938 0.64013 0.0
H1992 H 0.0293 0.00318 0.66851 0.0
H1993 H 0.07645 0.98079 0.64075 0.0
H1994 H 0.06732 0.99669 0.61213 0.0
H1995 H 0.04144 0.10548 0.60348 0.0
H1996 H 0.03206 0.0734 0.60604 0.0
H1997 H 0.07267 0.05788 0.56565 0.0
H1998 H 0.08189 0.09034 0.56251 0.0
H1999 H 0.06136 0.03659 0.6088 0.0
H2000 H 0.04577 0.04989 0.54446 0.0
H2001 H 0.0345 0.06994 0.51946 0.0
H2002 H 0.98362 0.07805 0.54839 0.0
H2003 H 0.99472 0.05837 0.57375 0.0
C2004 C 0.9933 0.97632 0.61869 0.0
C2005 C 0.97626 0.98504 0.62184 0.0
C2006 C 0.00792 0.98607 0.6107 0.0
C2007 C 0.0057 0.00468 0.60593 0.0
C2008 C 0.98877 0.01335 0.60935 0.0
C2009 C 0.97424 0.00367 0.61713 0.0
C2010 C 0.02073 0.01576 0.59771 0.0
C2011 C 0.01663 0.0259 0.58177 0.0
C2012 C 0.03766 0.01884 0.60689 0.0
C2013 C 0.04282 0.00892 0.62393 0.0
C2014 C 0.03225 0.01081 0.64003 0.0
C2015 C 0.0375 0.00173 0.65616 0.0
C2016 C 0.0534 0.99089 0.65641 0.0
C2017 C 0.0641 0.98912 0.64052 0.0
C2018 C 0.05888 0.99814 0.62434 0.0
C2019 C 0.0485 0.09528 0.5952 0.0
C2020 C 0.06215 0.10046 0.58255 0.0
C2021 C 0.04318 0.07697 0.59675 0.0
C2022 C 0.05153 0.06345 0.58584 0.0
C2023 C 0.06601 0.06825 0.57404 0.0
C2024 C 0.07128 0.08673 0.57235 0.0
C2025 C 0.0438 0.04472 0.58638 0.0
C2026 C 0.04916 0.03316 0.60087 0.0
C2027 C 0.02775 0.04061 0.57618 0.0
C2028 C 0.02117 0.05274 0.56107 0.0
C2029 C 0.03229 0.05613 0.54561 0.0
C2030 C 0.0259 0.06739 0.53135 0.0
C2031 C 0.00835 0.07522 0.53233 0.0
C2032 C 0.9972 0.07194 0.54764 0.0
C2033 C 0.00354 0.06074 0.56196 0.0
H2034 H 0.00336 0.08374 0.52119 0.0
H2035 H 0.05747 0.98391 0.66893 0.0
H2036 H 0.26528 0.72359 0.83766 0.0
H2037 H 0.24582 0.75078 0.83231 0.0
H2038 H 0.24455 0.76147 0.89064 0.0
H2039 H 0.26435 0.73481 0.89608 0.0
H2040 H 0.20842 0.75315 0.86419 0.0
H2041 H 0.26167 0.79121 0.87868 0.0
H2042 H 0.29393 0.80087 0.87439 0.0
H2043 H 0.2827 0.81413 0.8179 0.0
H2044 H 0.25041 0.8042 0.82179 0.0
H2045 H 0.14443 0.8192 0.86666 0.0
H2046 H 0.1755 0.81035 0.87578 0.0
H2047 H 0.19339 0.81479 0.81941 0.0
H2048 H 0.16247 0.82416 0.81031 0.0
H2049 H 0.22317 0.81723 0.84541 0.0
H2050 H 0.17339 0.77506 0.82846 0.0
H2051 H 0.14222 0.76151 0.82975 0.0
H2052 H 0.14731 0.75445 0.88814 0.0
H2053 H 0.17872 0.7675 0.88715 0.0
C2054 C 0.26105 0.73192 0.84929 0.0
C2055 C 0.26623 0.7271 0.86728 0.0
C2056 C 0.25013 0.74749 0.8462 0.0
C2057 C 0.24411 0.75821 0.86108 0.0
C2058 C 0.24944 0.75354 0.879 0.0
C2059 C 0.26064 0.73827 0.88206 0.0
C2060 C 0.23002 0.77251 0.85828 0.0
C2061 C 0.21164 0.76725 0.86042 0.0
C2062 C 0.23436 0.79066 0.85282 0.0
C2063 C 0.25371 0.79671 0.85045 0.0
C2064 C 0.26614 0.79595 0.86528 0.0
C2065 C 0.28441 0.80153 0.86294 0.0
C2066 C 0.29038 0.80805 0.84586 0.0
C2067 C 0.27807 0.80904 0.83111 0.0
C2068 C 0.25978 0.80344 0.83337 0.0
C2069 C 0.15529 0.81963 0.85644 0.0
C2070 C 0.15097 0.82186 0.83773 0.0
C2071 C 0.17302 0.81435 0.86163 0.0
C2072 C 0.18647 0.81121 0.84813 0.0
C2073 C 0.18311 0.81692 0.82999 0.0
C2074 C 0.16539 0.82245 0.82483 0.0
C2075 C 0.20151 0.79797 0.85185 0.0
C2076 C 0.21998 0.80325 0.84956 0.0
C2077 C 0.19735 0.77962 0.857 0.0
C2078 C 0.17823 0.7725 0.85778 0.0
C2079 C 0.16778 0.77077 0.84159 0.0
C2080 C 0.15012 0.7631 0.84225 0.0
C2081 C 0.1427 0.75734 0.85902 0.0
C2082 C 0.15302 0.75902 0.87517 0.0
C2083 C 0.17079 0.76645 0.87456 0.0
H2084 H 0.129 0.75148 0.85949 0.0
H2085 H 0.30453 0.81238 0.84408 0.0
H2086 H 0.5344 0.98626 0.12625 0.0
H2087 H 0.50767 0.96843 0.11658 0.0
H2088 H 0.47559 0.01824 0.11223 0.0
H2089 H 0.50228 0.03624 0.12259 0.0
H2090 H 0.45531 0.98951 0.12679 0.0
H2091 H 0.49221 -0.00041 0.07277 0.0
H2092 H 0.52192 0.00092 0.05634 0.0
H2093 H 0.53054 0.94338 0.06659 0.0
H2094 H 0.50081 0.94164 0.08296 0.0
H2095 H 0.42294 0.9109 0.0576 0.0
H2096 H 0.42958 0.94317 0.06441 0.0
H2097 H 0.4411 0.92887 0.12085 0.0
H2098 H 0.43482 0.89665 0.11402 0.0
H2099 H 0.46586 0.94764 0.07385 0.0
H2100 H 0.43921 0.96477 0.14733 0.0
H2101 H 0.4099 0.96312 0.16442 0.0
H2102 H 0.37969 0.96762 0.11381 0.0
H2103 H 0.40881 0.96935 0.09643 0.0
C2104 C 0.52165 0.99344 0.12333 0.0
C2105 C 0.5205 0.01266 0.12498 0.0
C2106 C 0.50639 0.98324 0.11777 0.0
C2107 C 0.48977 0.99206 0.11329 0.0
C2108 C 0.48832 0.01119 0.11553 0.0
C2109 C 0.50358 0.02143 0.1214 0.0
C2110 C 0.47433 0.98112 0.10561 0.0
C2111 C 0.45746 0.98054 0.11505 0.0
C2112 C 0.47695 0.96983 0.08995 0.0
C2113 C 0.49425 0.9705 0.07905 0.0
C2114 C 0.50039 0.98719 0.0714 0.0
C2115 C 0.51722 0.98801 0.06209 0.0
C2116 C 0.52806 0.97221 0.06034 0.0
C2117 C 0.52203 0.95554 0.06779 0.0
C2118 C 0.50515 0.95461 0.07701 0.0
C2119 C 0.42574 0.9148 0.07172 0.0
C2120 C 0.42864 0.90129 0.08526 0.0
C2121 C 0.42971 0.93326 0.07555 0.0
C2122 C 0.4361 0.93838 0.09305 0.0
C2123 C 0.43611 0.92528 0.10726 0.0
C2124 C 0.43245 0.90683 0.10337 0.0
C2125 C 0.44706 0.95542 0.09548 0.0
C2126 C 0.4633 0.95709 0.08513 0.0
C2127 C 0.44373 0.96779 0.11011 0.0
C2128 C 0.4262 0.96719 0.12059 0.0
C2129 C 0.42632 0.96555 0.13987 0.0
C2130 C 0.40974 0.96453 0.1496 0.0
C2131 C 0.39295 0.96526 0.14021 0.0
C2132 C 0.3927 0.96701 0.12106 0.0
C2133 C 0.40924 0.96796 0.11127 0.0
H2134 H 0.38013 0.96447 0.14777 0.0
H2135 H 0.54115 0.9729 0.05325 0.0
H2136 H 0.7382 0.2392 0.5939 0.0
H2137 H 0.75723 0.26596 0.60211 0.0
H2138 H 0.74271 0.25875 0.6592 0.0
H2139 H 0.72461 0.23136 0.65117 0.0
H2140 H 0.75095 0.3014 0.62935 0.0
H2141 H 0.77312 0.2484 0.67231 0.0
H2142 H 0.77783 0.21488 0.67569 0.0
H2143 H 0.80512 0.21321 0.62328 0.0
H2144 H 0.80014 0.24667 0.61947 0.0
H2145 H 0.82821 0.31765 0.69571 0.0
H2146 H 0.79846 0.31528 0.68019 0.0
H2147 H 0.82616 0.31033 0.628 0.0
H2148 H 0.85585 0.3132 0.64345 0.0
H2149 H 0.81002 0.27643 0.65307 0.0
H2150 H 0.79872 0.33252 0.61931 0.0
H2151 H 0.79396 0.36598 0.61627 0.0
H2152 H 0.74631 0.36268 0.65109 0.0
H2153 H 0.75094 0.32919 0.65454 0.0
C2154 C 0.73884 0.24361 0.60813 0.0
C2155 C 0.73031 0.23324 0.622 0.0
C2156 C 0.74952 0.25893 0.61277 0.0
C2157 C 0.75133 0.26421 0.63124 0.0
C2158 C 0.74149 0.25476 0.64489 0.0
C2159 C 0.7313 0.23913 0.64034 0.0
C2160 C 0.76615 0.27697 0.63661 0.0
C2161 C 0.76386 0.29607 0.63464 0.0
C2162 C 0.78297 0.26989 0.64325 0.0
C2163 C 0.78608 0.24988 0.64552 0.0
C2164 C 0.78001 0.24082 0.66148 0.0
C2165 C 0.7827 0.22186 0.66346 0.0
C2166 C 0.79172 0.21191 0.64968 0.0
C2167 C 0.79806 0.22092 0.6339 0.0
C2168 C 0.79525 0.23985 0.63179 0.0
C2169 C 0.82786 0.31761 0.6808 0.0
C2170 C 0.84419 0.31557 0.67071 0.0
C2171 C 0.81084 0.3162 0.67192 0.0
C2172 C 0.81016 0.31251 0.65299 0.0
C2173 C 0.8264 0.31344 0.64259 0.0
C2174 C 0.84339 0.31511 0.65143 0.0
C2175 C 0.79492 0.30105 0.64607 0.0
C2176 C 0.79717 0.28196 0.64777 0.0
C2177 C 0.77815 0.3083 0.63941 0.0
C2178 C 0.77532 0.32839 0.63737 0.0
C2179 C 0.78736 0.33895 0.6265 0.0
C2180 C 0.78464 0.35792 0.62465 0.0
C2181 C 0.76988 0.36646 0.63354 0.0
C2182 C 0.75775 0.35604 0.64424 0.0
C2183 C 0.7604 0.33707 0.64612 0.0
H2184 H 0.7678 0.38115 0.63209 0.0
H2185 H 0.79384 0.19725 0.65125 0.0
H2186 H 0.02832 0.4922 0.90715 0.0
H2187 H 0.00016 0.50886 0.91542 0.0
H2188 H 0.97474 0.49142 0.86473 0.0
H2189 H 0.00264 0.47428 0.85654 0.0
H2190 H 0.98261 0.53416 0.87657 0.0
H2191 H 0.95429 0.47516 0.89332 0.0
H2192 H 0.9541 0.44625 0.91112 0.0
H2193 H 0.9552 0.47698 0.96159 0.0
H2194 H 0.95569 0.50607 0.94409 0.0
H2195 H 0.91361 0.5937 0.88459 0.0
H2196 H 0.92275 0.562 0.87826 0.0
H2197 H 0.93438 0.55385 0.93589 0.0
H2198 H 0.92424 0.58511 0.94237 0.0
H2199 H 0.93142 0.52119 0.91995 0.0
H2200 H 0.96718 0.575 0.91071 0.0
H2201 H 0.97562 0.60603 0.89982 0.0
H2202 H 0.96855 0.58859 0.84381 0.0
H2203 H 0.96027 0.55734 0.8544 0.0
C2204 C 0.01664 0.4917 0.89789 0.0
C2205 C 0.01772 0.48214 0.8811 0.0
C2206 C 0.00053 0.50104 0.90273 0.0
C2207 C 0.98539 0.50111 0.89077 0.0
C2208 C 0.98624 0.49121 0.87423 0.0
C2209 C 0.0022 0.48157 0.86954 0.0
C2210 C 0.97003 0.51393 0.8941 0.0
C2211 C 0.97108 0.53115 0.88561 0.0
C2212 C 0.95582 0.51029 0.90689 0.0
C2213 C 0.95517 0.49279 0.91737 0.0
C2214 C 0.95465 0.47575 0.90821 0.0
C2215 C 0.95445 0.45933 0.91825 0.0
C2216 C 0.95467 0.45978 0.93747 0.0
C2217 C 0.95503 0.47665 0.9467 0.0
C2218 C 0.95524 0.49311 0.93672 0.0
C2219 C 0.91677 0.5847 0.89606 0.0
C2220 C 0.91868 0.59194 0.91387 0.0
C2221 C 0.92225 0.56664 0.89242 0.0
C2222 C 0.93012 0.55593 0.90649 0.0
C2223 C 0.92866 0.56198 0.92477 0.0
C2224 C 0.9227 0.5799 0.92848 0.0
C2225 C 0.94355 0.54127 0.90177 0.0
C2226 C 0.94249 0.52394 0.91033 0.0
C2227 C 0.95852 0.54508 0.88983 0.0
C2228 C 0.96282 0.56395 0.88334 0.0
C2229 C 0.96726 0.57784 0.89608 0.0
C2230 C 0.97211 0.59543 0.88997 0.0
C2231 C 0.97247 0.59932 0.87114 0.0
C2232 C 0.96816 0.58557 0.85839 0.0
C2233 C 0.96346 0.5679 0.86443 0.0
H2234 H 0.97618 0.61297 0.86644 0.0
H2235 H 0.95453 0.44705 0.94522 0.0
H2236 H 0.66806 0.67487 0.19476 0.0
H2237 H 0.69901 0.6745 0.18132 0.0
H2238 H 0.67585 0.68805 0.1283 0.0
H2239 H 0.64513 0.68781 0.14161 0.0
H2240 H 0.70835 0.67425 0.12286 0.0
H2241 H 0.68172 0.72144 0.16077 0.0
H2242 H 0.66772 0.73474 0.18869 0.0
H2243 H 0.71603 0.72082 0.21983 0.0
H2244 H 0.73021 0.70719 0.19208 0.0
H2245 H 0.73885 0.76573 0.10078 0.0
H2246 H 0.7234 0.73701 0.10928 0.0
H2247 H 0.77304 0.718 0.13574 0.0
H2248 H 0.78887 0.74648 0.12653 0.0
H2249 H 0.73569 0.7266 0.15716 0.0
H2250 H 0.76327 0.69088 0.10851 0.0
H2251 H 0.77199 0.68488 0.07626 0.0
H2252 H 0.71504 0.68595 0.06034 0.0
H2253 H 0.70599 0.69224 0.09241 0.0
C2254 C 0.66957 0.67649 0.18001 0.0
C2255 C 0.65441 0.68149 0.16915 0.0
C2256 C 0.68725 0.67645 0.17235 0.0
C2257 C 0.68979 0.68193 0.15395 0.0
C2258 C 0.6743 0.68396 0.14255 0.0
C2259 C 0.6567 0.68381 0.15015 0.0
C2260 C 0.70745 0.6902 0.14784 0.0
C2261 C 0.71456 0.68549 0.13048 0.0
C2262 C 0.71541 0.7051 0.15766 0.0
C2263 C 0.70687 0.71297 0.17447 0.0
C2264 C 0.68927 0.72105 0.17362 0.0
C2265 C 0.68131 0.72866 0.18939 0.0
C2266 C 0.69093 0.72852 0.20605 0.0
C2267 C 0.70855 0.72081 0.20694 0.0
C2268 C 0.71655 0.71311 0.1912 0.0
C2269 C 0.74661 0.75517 0.1079 0.0
C2270 C 0.76496 0.75828 0.11313 0.0
C2271 C 0.73785 0.73875 0.11261 0.0
C2272 C 0.74717 0.7254 0.12297 0.0
C2273 C 0.76577 0.72806 0.12747 0.0
C2274 C 0.77473 0.74431 0.12227 0.0
C2275 C 0.73628 0.71089 0.13208 0.0
C2276 C 0.73024 0.71467 0.14998 0.0
C2277 C 0.72856 0.69601 0.12222 0.0
C2278 C 0.73397 0.69209 0.10291 0.0
C2279 C 0.75261 0.68997 0.09812 0.0
C2280 C 0.75761 0.68649 0.07986 0.0
C2281 C 0.74408 0.68504 0.06626 0.0
C2282 C 0.72552 0.68705 0.07089 0.0
C2283 C 0.72044 0.69054 0.08912 0.0
H2284 H 0.74798 0.68236 0.05214 0.0
H2285 H 0.68477 0.73446 0.21824 0.0
H2286 H 0.4922 0.5213 0.35278 0.0
H2287 H 0.51875 0.50195 0.36051 0.0
H2288 H 0.49909 0.49697 0.41626 0.0
H2289 H 0.47212 0.51579 0.40847 0.0
H2290 H 0.54205 0.50142 0.40874 0.0
H2291 H 0.48726 0.46498 0.39844 0.0
H2292 H 0.45906 0.45599 0.38181 0.0
H2293 H 0.49095 0.44476 0.33333 0.0
H2294 H 0.51933 0.45407 0.34962 0.0
H2295 H 0.56831 0.41302 0.44138 0.0
H2296 H 0.56136 0.44467 0.43326 0.0
H2297 H 0.56725 0.43121 0.3757 0.0
H2298 H 0.57288 0.39911 0.38388 0.0
H2299 H 0.53359 0.43885 0.38277 0.0
H2300 H 0.59035 0.46928 0.39852 0.0
H2301 H 0.61695 0.47686 0.41823 0.0
H2302 H 0.58055 0.49754 0.45994 0.0
H2303 H 0.55371 0.48988 0.4406 0.0
C2304 C 0.49371 0.51636 0.36676 0.0
C2305 C 0.48003 0.51981 0.37998 0.0
C2306 C 0.50891 0.50542 0.37117 0.0
C2307 C 0.51085 0.49817 0.38895 0.0
C2308 C 0.49786 0.50261 0.40251 0.0
C2309 C 0.48241 0.51317 0.39799 0.0
C2310 C 0.52472 0.48374 0.39249 0.0
C2311 C 0.54035 0.48769 0.40313 0.0
C2312 C 0.52237 0.46596 0.38506 0.0
C2313 C 0.50535 0.46058 0.37512 0.0
C2314 C 0.48822 0.46088 0.38414 0.0
C2315 C 0.47221 0.45566 0.37481 0.0
C2316 C 0.47319 0.4499 0.35649 0.0
C2317 C 0.4902 0.44931 0.3475 0.0
C2318 C 0.50625 0.45458 0.35677 0.0
C2319 C 0.56929 0.41703 0.42705 0.0
C2320 C 0.57075 0.4036 0.41321 0.0
C2321 C 0.56525 0.43526 0.42238 0.0
C2322 C 0.56334 0.44032 0.40381 0.0
C2323 C 0.56835 0.42757 0.39012 0.0
C2324 C 0.57178 0.40923 0.39478 0.0
C2325 C 0.55158 0.45633 0.39881 0.0
C2326 C 0.53591 0.45264 0.38803 0.0
C2327 C 0.55384 0.47414 0.40651 0.0
C2328 C 0.56999 0.47892 0.4181 0.0
C2329 C 0.588 0.47534 0.41193 0.0
C2330 C 0.60313 0.47967 0.42304 0.0
C2331 C 0.60044 0.48765 0.44033 0.0
C2332 C 0.58261 0.49137 0.44653 0.0
C2333 C 0.56744 0.48707 0.43548 0.0
H2334 H 0.61217 0.49098 0.44891 0.0
H2335 H 0.46079 0.44582 0.34929 0.0
H2336 H 0.39389 0.22196 0.24562 0.0
H2337 H 0.38391 0.23856 0.21793 0.0
H2338 H 0.33078 0.24821 0.2427 0.0
H2339 H 0.3409 0.23212 0.2705 0.0
H2340 H 0.33007 0.24257 0.20271 0.0
H2341 H 0.35678 0.27896 0.2506 0.0
H2342 H 0.37991 0.28721 0.27403 0.0
H2343 H 0.42119 0.29205 0.232 0.0
H2344 H 0.39832 0.28343 0.20834 0.0
H2345 H 0.30156 0.33299 0.1815 0.0
H2346 H 0.30798 0.30077 0.18701 0.0
H2347 H 0.36333 0.30823 0.16655 0.0
H2348 H 0.35731 0.34109 0.16284 0.0
H2349 H 0.36457 0.30142 0.20055 0.0
H2350 H 0.32998 0.27175 0.1516 0.0
H2351 H 0.30246 0.26664 0.13234 0.0
H2352 H 0.27087 0.25311 0.18041 0.0
H2353 H 0.29811 0.25832 0.19997 0.0
C2354 C 0.37996 0.22723 0.24492 0.0
C2355 C 0.36822 0.22616 0.26021 0.0
C2356 C 0.37425 0.2366 0.22912 0.0
C2357 C 0.35665 0.24461 0.22838 0.0
C2358 C 0.34436 0.24203 0.243 0.0
C2359 C 0.3502 0.23305 0.25891 0.0
C2360 C 0.35231 0.25842 0.21416 0.0
C2361 C 0.33765 0.25541 0.20196 0.0
C2362 C 0.36206 0.2752 0.21358 0.0
C2363 C 0.37594 0.28018 0.22775 0.0
C2364 C 0.37085 0.2815 0.24639 0.0
C2365 C 0.3839 0.2863 0.2597 0.0
C2366 C 0.40204 0.29006 0.25452 0.0
C2367 C 0.40715 0.28905 0.236 0.0
C2368 C 0.39416 0.28418 0.22263 0.0
C2369 C 0.31474 0.32752 0.17707 0.0
C2370 C 0.32907 0.33948 0.17205 0.0
C2371 C 0.31844 0.30894 0.18023 0.0
C2372 C 0.33631 0.30199 0.17754 0.0
C2373 C 0.34952 0.31332 0.16901 0.0
C2374 C 0.34605 0.33208 0.16666 0.0
C2375 C 0.34251 0.28564 0.18821 0.0
C2376 C 0.3574 0.28832 0.20034 0.0
C2377 C 0.33243 0.26893 0.18908 0.0
C2378 C 0.31613 0.26544 0.17725 0.0
C2379 C 0.31716 0.26774 0.15806 0.0
C2380 C 0.3016 0.26481 0.14709 0.0
C2381 C 0.28493 0.25955 0.15514 0.0
C2382 C 0.28379 0.25715 0.17418 0.0
C2383 C 0.29931 0.26003 0.18521 0.0
H2384 H 0.2729 0.25734 0.14663 0.0
H2385 H 0.41211 0.29383 0.26484 0.0
H2386 H 0.80663 0.16554 0.82433 0.0
H2387 H 0.8188 0.19695 0.8261 0.0
H2388 H 0.87263 0.17681 0.81094 0.0
H2389 H 0.86051 0.14564 0.80931 0.0
H2390 H 0.87639 0.20893 0.82744 0.0
H2391 H 0.84128 0.18254 0.7784 0.0
H2392 H 0.81467 0.16759 0.76352 0.0
H2393 H 0.78046 0.21366 0.77774 0.0
H2394 H 0.80685 0.22873 0.79308 0.0
H2395 H 0.90267 0.24336 0.74046 0.0
H2396 H 0.89421 0.22829 0.76932 0.0
H2397 H 0.85817 0.27362 0.78251 0.0
H2398 H 0.86721 0.2891 0.75378 0.0
H2399 H 0.84192 0.237 0.7756 0.0
H2400 H 0.88885 0.26523 0.81295 0.0
H2401 H 0.92076 0.27502 0.81923 0.0
H2402 H 0.93885 0.21879 0.81689 0.0
H2403 H 0.90713 0.20867 0.81032 0.0
C2404 C 0.82129 0.16773 0.8226 0.0
C2405 C 0.83266 0.15337 0.81646 0.0
C2406 C 0.82822 0.18569 0.82347 0.0
C2407 C 0.84648 0.18927 0.81806 0.0
C2408 C 0.85847 0.17443 0.81502 0.0
C2409 C 0.85155 0.15657 0.81409 0.0
C2410 C 0.85184 0.2076 0.81084 0.0
C2411 C 0.86871 0.21532 0.81634 0.0
C2412 C 0.84197 0.21572 0.79607 0.0
C2413 C 0.82592 0.20657 0.78726 0.0
C2414 C 0.82802 0.18937 0.77859 0.0
C2415 C 0.813 0.18089 0.77003 0.0
C2416 C 0.79586 0.18962 0.76978 0.0
C2417 C 0.79372 0.20686 0.77806 0.0
C2418 C 0.80869 0.21536 0.78673 0.0
C2419 C 0.8936 0.25046 0.74995 0.0
C2420 C 0.88557 0.26732 0.74508 0.0
C2421 C 0.88883 0.2419 0.76643 0.0
C2422 C 0.87564 0.2499 0.77805 0.0
C2423 C 0.86856 0.26739 0.77381 0.0
C2424 C 0.87372 0.2762 0.75747 0.0
C2425 C 0.8666 0.23813 0.79195 0.0
C2426 C 0.84907 0.23141 0.78747 0.0
C2427 C 0.87651 0.23018 0.80669 0.0
C2428 C 0.89555 0.2362 0.81118 0.0
C2429 C 0.89963 0.25495 0.81373 0.0
C2430 C 0.9177 0.26056 0.81733 0.0
C2431 C 0.93182 0.24754 0.81847 0.0
C2432 C 0.92789 0.22887 0.81605 0.0
C2433 C 0.90985 0.22318 0.81244 0.0
H2434 H 0.9458 0.25192 0.82122 0.0
H2435 H 0.78426 0.18307 0.76307 0.0
H2436 H 0.9661 0.59008 0.97617 0.0
H2437 H 0.98689 0.5815 0.00122 0.0
H2438 H 0.00257 0.63853 0.00759 0.0
H2439 H 0.98079 0.64717 0.9835 0.0
H2440 H 0.02055 0.58404 0.99574 0.0
H2441 H 0.02637 0.64736 0.04344 0.0
H2442 H 0.00637 0.66897 0.06039 0.0
H2443 H 0.96388 0.62795 0.06317 0.0
H2444 H 0.98361 0.60612 0.04615 0.0
H2445 H 0.11041 0.59381 0.02236 0.0
H2446 H 0.07938 0.6037 0.01414 0.0
H2447 H 0.0586 0.58175 0.06524 0.0
H2448 H 0.08986 0.572 0.07372 0.0
H2449 H 0.04042 0.61467 0.05343 0.0
H2450 H 0.05692 0.55471 0.02987 0.0
H2451 H 0.07643 0.53221 0.01351 0.0
H2452 H 0.07224 0.56419 0.96399 0.0
H2453 H 0.05297 0.58701 0.98012 0.0
C2454 C 0.97358 0.60079 0.98338 0.0
C2455 C 0.97219 0.6192 0.97781 0.0
C2456 C 0.98538 0.59593 0.99772 0.0
C2457 C 0.99644 0.60932 0.00628 0.0
C2458 C 0.99399 0.62793 0.00156 0.0
C2459 C 0.98171 0.63286 0.9876 0.0
C2460 C 0.01295 0.60354 0.01685 0.0
C2461 C 0.02462 0.59055 0.00854 0.0
C2462 C 0.01848 0.61203 0.03352 0.0
C2463 C 0.00643 0.62515 0.04347 0.0
C2464 C 0.01276 0.64295 0.0477 0.0
C2465 C 0.00146 0.65525 0.05727 0.0
C2466 C 0.98386 0.64984 0.06284 0.0
C2467 C 0.97749 0.63214 0.05878 0.0
C2468 C 0.98869 0.61983 0.04909 0.0
C2469 C 0.0993 0.5914 0.03201 0.0
C2470 C 0.10241 0.58186 0.0485 0.0
C2471 C 0.08162 0.59709 0.02732 0.0
C2472 C 0.06673 0.59309 0.03893 0.0
C2473 C 0.06997 0.58488 0.0561 0.0
C2474 C 0.08778 0.57931 0.0609 0.0
C2475 C 0.04778 0.59554 0.03203 0.0
C2476 C 0.03591 0.60791 0.04091 0.0
C2477 C 0.04186 0.58635 0.01594 0.0
C2478 C 0.05357 0.57263 0.00625 0.0
C2479 C 0.06028 0.55702 0.01554 0.0
C2480 C 0.07128 0.54419 0.0063 0.0
C2481 C 0.07557 0.54678 0.98773 0.0
C2482 C 0.0689 0.5622 0.97837 0.0
C2483 C 0.05793 0.57507 0.98755 0.0
H2484 H 0.08401 0.53683 0.98057 0.0
H2485 H 0.97516 0.65936 0.07031 0.0
H2486 H 0.69642 0.83124 0.31915 0.0
H2487 H 0.68537 0.7994 0.31897 0.0
H2488 H 0.62941 0.81886 0.31455 0.0
H2489 H 0.64048 0.85059 0.3146 0.0
H2490 H 0.63104 0.78312 0.32917 0.0
H2491 H 0.65128 0.81822 0.27697 0.0
H2492 H 0.67244 0.8377 0.25894 0.0
H2493 H 0.71373 0.79544 0.26121 0.0
H2494 H 0.69282 0.77577 0.27947 0.0
H2495 H 0.59531 0.7504 0.24211 0.0
H2496 H 0.6051 0.76575 0.27049 0.0
H2497 H 0.64624 0.72382 0.27905 0.0
H2498 H 0.63585 0.70793 0.25104 0.0
H2499 H 0.65579 0.76462 0.26826 0.0
H2500 H 0.625 0.72661 0.31237 0.0
H2501 H 0.59845 0.7105 0.32605 0.0
H2502 H 0.5708 0.76213 0.33406 0.0
H2503 H 0.59704 0.77855 0.32015 0.0
C2504 C 0.68171 0.82869 0.31938 0.0
C2505 C 0.66924 0.8432 0.31684 0.0
C2506 C 0.6754 0.81051 0.31919 0.0
C2507 C 0.65661 0.80682 0.31635 0.0
C2508 C 0.64396 0.8214 0.31674 0.0
C2509 C 0.65027 0.83954 0.31678 0.0
C2510 C 0.65083 0.78917 0.30795 0.0
C2511 C 0.63657 0.77886 0.31598 0.0
C2512 C 0.65788 0.78385 0.29057 0.0
C2513 C 0.67066 0.79569 0.2799 0.0
C2514 C 0.66496 0.81318 0.27383 0.0
C2515 C 0.67688 0.82423 0.26353 0.0
C2516 C 0.69447 0.81787 0.25905 0.0
C2517 C 0.70014 0.80039 0.26479 0.0
C2518 C 0.68827 0.78929 0.27513 0.0
C2519 C 0.60582 0.74402 0.25057 0.0
C2520 C 0.61485 0.72806 0.24457 0.0
C2521 C 0.61133 0.75271 0.26679 0.0
C2522 C 0.62628 0.74581 0.27689 0.0
C2523 C 0.63446 0.72912 0.2716 0.0
C2524 C 0.62857 0.72012 0.25562 0.0
C2525 C 0.63605 0.75843 0.28946 0.0
C2526 C 0.65087 0.76818 0.28192 0.0
C2527 C 0.62887 0.76363 0.30677 0.0
C2528 C 0.61298 0.75381 0.31509 0.0
C2529 C 0.61319 0.73453 0.31687 0.0
C2530 C 0.5982 0.72533 0.32471 0.0
C2531 C 0.58293 0.73528 0.33089 0.0
C2532 C 0.58263 0.75444 0.32927 0.0
C2533 C 0.59758 0.7637 0.32143 0.0
H2534 H 0.57135 0.72814 0.33697 0.0
H2535 H 0.70367 0.82644 0.25106 0.0
H2536 H 0.4109 0.44548 0.5712 0.0
H2537 H 0.44255 0.44018 0.56141 0.0
H2538 H 0.4353 0.38179 0.56912 0.0
H2539 H 0.40341 0.38699 0.5784 0.0
H2540 H 0.47301 0.39352 0.57179 0.0
H2541 H 0.42056 0.39622 0.53195 0.0
H2542 H 0.39373 0.40656 0.51394 0.0
H2543 H 0.42455 0.4529 0.49407 0.0
H2544 H 0.45142 0.44313 0.51239 0.0
H2545 H 0.51485 0.35252 0.49223 0.0
H2546 H 0.49754 0.36267 0.5193 0.0
H2547 H 0.50104 0.41892 0.50032 0.0
H2548 H 0.5172 0.40858 0.47272 0.0
H2549 H 0.46778 0.41032 0.50587 0.0
H2550 H 0.52292 0.40098 0.54182 0.0
H2551 H 0.54936 0.38286 0.55307 0.0
H2552 H 0.51249 0.34278 0.57606 0.0
H2553 H 0.48584 0.36051 0.56473 0.0
C2554 C 0.41639 0.43163 0.57207 0.0
C2555 C 0.40461 0.41657 0.57513 0.0
C2556 C 0.43446 0.4286 0.56622 0.0
C2557 C 0.44099 0.41056 0.56399 0.0
C2558 C 0.43042 0.39581 0.57058 0.0
C2559 C 0.41222 0.39881 0.57608 0.0
C2560 C 0.45637 0.40683 0.55118 0.0
C2561 C 0.47203 0.39732 0.55739 0.0
C2562 C 0.45492 0.41158 0.53234 0.0
C2563 C 0.4379 0.41915 0.5239 0.0
C2564 C 0.42145 0.40894 0.52423 0.0
C2565 C 0.40629 0.41458 0.51378 0.0
C2566 C 0.40748 0.43031 0.50278 0.0
C2567 C 0.42366 0.4407 0.50257 0.0
C2568 C 0.43881 0.43519 0.51309 0.0
C2569 C 0.51208 0.36706 0.49403 0.0
C2570 C 0.517 0.37977 0.48034 0.0
C2571 C 0.50241 0.37289 0.50962 0.0
C2572 C 0.49813 0.39162 0.51201 0.0
C2573 C 0.50415 0.40441 0.4988 0.0
C2574 C 0.51326 0.39851 0.48299 0.0
C2575 C 0.4849 0.39758 0.52641 0.0
C2576 C 0.46933 0.40723 0.52041 0.0
C2577 C 0.48633 0.39251 0.54519 0.0
C2578 C 0.50237 0.38206 0.55235 0.0
C2579 C 0.52045 0.38827 0.54921 0.0
C2580 C 0.53548 0.37806 0.5556 0.0
C2581 C 0.53261 0.36167 0.56525 0.0
C2582 C 0.5147 0.35549 0.56859 0.0
C2583 C 0.49963 0.36563 0.56222 0.0
H2584 H 0.54426 0.35378 0.57016 0.0
H2585 H 0.39582 0.43452 0.49451 0.0
H2586 H 0.1894 0.66095 0.6765 0.0
H2587 H 0.18311 0.69316 0.68333 0.0
H2588 H 0.12481 0.68281 0.6788 0.0
H2589 H 0.13105 0.65027 0.67314 0.0
H2590 H 0.16413 0.72573 0.67791 0.0
H2591 H 0.10643 0.68915 0.71617 0.0
H2592 H 0.09777 0.65801 0.72682 0.0
H2593 H 0.1549 0.644 0.73312 0.0
H2594 H 0.16384 0.67492 0.72219 0.0
H2595 H 0.11614 0.78513 0.74588 0.0
H2596 H 0.12437 0.76568 0.71947 0.0
H2597 H 0.16232 0.73535 0.75356 0.0
H2598 H 0.15449 0.75465 0.77979 0.0
H2599 H 0.13207 0.71494 0.73729 0.0
H2600 H 0.18185 0.75514 0.72376 0.0
H2601 H 0.19684 0.78486 0.7172 0.0
H2602 H 0.16488 0.79036 0.66777 0.0
H2603 H 0.14949 0.76073 0.67419 0.0
C2604 C 0.17528 0.66574 0.67582 0.0
C2605 C 0.16066 0.6531 0.67477 0.0
C2606 C 0.1717 0.68423 0.67979 0.0
C2607 C 0.15348 0.69018 0.68228 0.0
C2608 C 0.13898 0.67834 0.67736 0.0
C2609 C 0.14253 0.65975 0.67398 0.0
C2610 C 0.14984 0.70591 0.69477 0.0
C2611 C 0.15679 0.72352 0.69072 0.0
C2612 C 0.14109 0.70284 0.71192 0.0
C2613 C 0.13576 0.68421 0.71827 0.0
C2614 C 0.1171 0.67937 0.7198 0.0
C2615 C 0.11216 0.66176 0.72582 0.0
C2616 C 0.12578 0.64901 0.73058 0.0
C2617 C 0.14437 0.65385 0.72935 0.0
C2618 C 0.14938 0.67136 0.72314 0.0
C2619 C 0.12654 0.77459 0.74762 0.0
C2620 C 0.13441 0.77121 0.765 0.0
C2621 C 0.13128 0.76358 0.73252 0.0
C2622 C 0.14387 0.7491 0.73467 0.0
C2623 C 0.15257 0.74649 0.75168 0.0
C2624 C 0.148 0.75752 0.76667 0.0
C2625 C 0.14593 0.73488 0.72031 0.0
C2626 C 0.13881 0.71742 0.72419 0.0
C2627 C 0.1552 0.73803 0.70351 0.0
C2628 C 0.16431 0.75586 0.6996 0.0
C2629 C 0.17784 0.76279 0.71161 0.0
C2630 C 0.18646 0.77959 0.70789 0.0
C2631 C 0.18176 0.78953 0.69212 0.0
C2632 C 0.16847 0.78266 0.68001 0.0
C2633 C 0.1598 0.76586 0.68367 0.0
H2634 H 0.18846 0.80253 0.68925 0.0
H2635 H 0.12193 0.6354 0.73526 0.0
H2636 H 0.48277 0.84699 0.00567 0.0
H2637 H 0.50246 0.85598 0.97975 0.0
H2638 H 0.48098 0.91127 0.9826 0.0
H2639 H 0.46214 0.90257 0.00926 0.0
H2640 H 0.49907 0.87635 0.94369 0.0
H2641 H 0.50824 0.93174 0.9914 0.0
H2642 H 0.50623 0.93892 0.02461 0.0
H2643 H 0.53586 0.88937 0.03735 0.0
H2644 H 0.53769 0.88177 0.00425 0.0
H2645 H 0.58065 0.93349 0.91242 0.0
H2646 H 0.5492 0.92437 0.92127 0.0
H2647 H 0.57127 0.87889 0.95234 0.0
H2648 H 0.60225 0.88727 0.94284 0.0
H2649 H 0.55019 0.91233 0.97147 0.0
H2650 H 0.55018 0.86225 0.92701 0.0
H2651 H 0.55372 0.85066 0.89533 0.0
H2652 H 0.50871 0.88469 0.8776 0.0
H2653 H 0.5052 0.89679 0.90919 0.0
C2654 C 0.4819 0.8609 0.00036 0.0
C2655 C 0.47122 0.8742 0.00939 0.0
C2656 C 0.49304 0.86599 0.98555 0.0
C2657 C 0.49328 0.88433 0.97948 0.0
C2658 C 0.48112 0.89713 0.9873 0.0
C2659 C 0.4704 0.89218 0.00245 0.0
C2660 C 0.50866 0.89069 0.96785 0.0
C2661 C 0.51004 0.88461 0.94956 0.0
C2662 C 0.52317 0.90102 0.97572 0.0
C2663 C 0.52304 0.90619 0.99545 0.0
C2664 C 0.51439 0.92245 0.00132 0.0
C2665 C 0.51319 0.92654 0.0201 0.0
C2666 C 0.52086 0.91457 0.03307 0.0
C2667 C 0.52987 0.89858 0.02729 0.0
C2668 C 0.53094 0.89436 0.00854 0.0
C2669 C 0.57861 0.92078 0.91995 0.0
C2670 C 0.59377 0.91092 0.92677 0.0
C2671 C 0.56073 0.91583 0.92535 0.0
C2672 C 0.55811 0.90113 0.93761 0.0
C2673 C 0.57309 0.89022 0.9428 0.0
C2674 C 0.59073 0.89483 0.93707 0.0
C2675 C 0.54041 0.89842 0.94712 0.0
C2676 C 0.53883 0.90487 0.96524 0.0
C2677 C 0.52593 0.88824 0.93915 0.0
C2678 C 0.52757 0.88058 0.92036 0.0
C2679 C 0.54116 0.86738 0.91632 0.0
C2680 C 0.54315 0.86071 0.89839 0.0
C2681 C 0.53148 0.86698 0.88444 0.0
C2682 C 0.51776 0.87988 0.88842 0.0
C2683 C 0.51576 0.88665 0.90633 0.0
H2684 H 0.53305 0.86181 0.87056 0.0
H2685 H 0.51978 0.91764 0.0476 0.0
H2686 H 0.92005 0.06292 0.42234 0.0
H2687 H 0.95158 0.07369 0.42764 0.0
H2688 H 0.93021 0.12416 0.45065 0.0
H2689 H 0.89905 0.11374 0.44472 0.0
H2690 H 0.96331 0.13049 0.44177 0.0
H2691 H 0.93208 0.08119 0.47553 0.0
H2692 H 0.91878 0.0504 0.48107 0.0
H2693 H 0.96943 0.02514 0.46395 0.0
H2694 H 0.98293 0.05578 0.4581 0.0
H2695 H 0.98513 0.127 0.53966 0.0
H2696 H 0.97049 0.12025 0.51007 0.0
H2697 H 0.02385 0.11509 0.48458 0.0
H2698 H 0.03867 0.12249 0.51402 0.0
H2699 H 0.98458 0.08408 0.48712 0.0
H2700 H 0.01597 0.13901 0.46134 0.0
H2701 H 0.02565 0.17143 0.46444 0.0
H2702 H 0.96952 0.18755 0.47386 0.0
H2703 H 0.95958 0.15517 0.47107 0.0
C2704 C 0.92218 0.07681 0.42736 0.0
C2705 C 0.90721 0.08737 0.43357 0.0
C2706 C 0.94021 0.08286 0.43065 0.0
C2707 C 0.94325 0.09934 0.44039 0.0
C2708 C 0.92832 0.11124 0.44343 0.0
C2709 C 0.91041 0.1053 0.44 0.0
C2710 C 0.96044 0.10243 0.45112 0.0
C2711 C 0.96826 0.12016 0.45136 0.0
C2712 C 0.96695 0.08908 0.46385 0.0
C2713 C 0.95838 0.07071 0.46605 0.0
C2714 C 0.94026 0.06904 0.47268 0.0
C2715 C 0.93271 0.05163 0.47593 0.0
C2716 C 0.94326 0.03584 0.47283 0.0
C2717 C 0.96128 0.03739 0.46627 0.0
C2718 C 0.96886 0.05476 0.46295 0.0
C2719 C 0.99375 0.12462 0.52773 0.0
C2720 C 0.01301 0.12533 0.52912 0.0
C2721 C 0.98539 0.12086 0.51085 0.0
C2722 C 0.99613 0.11752 0.49516 0.0
C2723 C 0.01537 0.11807 0.49647 0.0
C2724 C 0.02376 0.1222 0.5133 0.0
C2725 C 0.98688 0.11207 0.47794 0.0
C2726 C 0.98043 0.09399 0.47672 0.0
C2727 C 0.98117 0.12522 0.46484 0.0
C2728 C 0.98708 0.14468 0.46616 0.0
C2729 C 0.00573 0.14946 0.46423 0.0
C2730 C 0.01126 0.16783 0.4659 0.0
C2731 C 0.99822 0.18154 0.4694 0.0
C2732 C 0.97961 0.17692 0.47117 0.0
C2733 C 0.97403 0.15857 0.46952 0.0
H2734 H 0.00252 0.19575 0.4707 0.0
H2735 H 0.9376 0.02238 0.47567 0.0
loop_
_geom_bond_atom_site_label_1
_geom_bond_atom_site_label_2
_geom_bond_distance
_geom_bond_site_symmetry_2
_ccdc_geom_bond_type
Zn0 O3 2.031 . S
Zn0 O5 2.049 . S
Zn0 O10 2.067 . S
Zn1 O2 1.962 . S
Zn1 O4 1.986 . S
Zn1 O6 1.996 . S
Zn1 O9 1.943 . S
O2 Zn1 1.962 . S
O2 C7 1.254 . S
O3 Zn0 2.031 . S
O3 C7 1.269 . S
O4 Zn1 1.986 . S
O4 C11 1.262 . S
O5 Zn0 2.049 . S
O5 C13 1.260 . S
O6 Zn1 1.996 . S
O6 C13 1.257 . S
C7 O2 1.254 . S
C7 O3 1.269 . S
C8 O9 1.249 . S
C8 O10 1.270 . S
O9 Zn1 1.943 . S
O9 C8 1.249 . S
O10 Zn0 2.067 . S
O10 C8 1.270 . S
C11 O4 1.262 . S
C11 O12 1.232 . S
O12 C11 1.232 . S
C13 O5 1.260 . S
C13 O6 1.257 . S
Zn14 O17 2.031 . S
Zn14 O19 2.049 . S
Zn14 O24 2.067 . S
Zn15 O16 1.962 . S
Zn15 O18 1.986 . S
Zn15 O20 1.996 . S
Zn15 O23 1.943 . S
O16 Zn15 1.962 . S
O16 C21 1.254 . S
O17 Zn14 2.031 . S
O17 C21 1.269 . S
O18 Zn15 1.986 . S
O18 C25 1.262 . S
O19 Zn14 2.049 . S
O19 C27 1.260 . S
O20 Zn15 1.996 . S
O20 C27 1.257 . S
C21 O16 1.254 . S
C21 O17 1.269 . S
C22 O23 1.249 . S
C22 O24 1.270 . S
O23 Zn15 1.943 . S
O23 C22 1.249 . S
O24 Zn14 2.067 . S
O24 C22 1.270 . S
C25 O18 1.262 . S
C25 O26 1.232 . S
O26 C25 1.232 . S
C27 O19 1.260 . S
C27 O20 1.257 . S
Zn28 O31 2.031 . S
Zn28 O33 2.049 . S
Zn28 O38 2.067 . S
Zn29 O30 1.962 . S
Zn29 O32 1.986 . S
Zn29 O34 1.996 . S
Zn29 O37 1.943 . S
O30 Zn29 1.962 . S
O30 C35 1.254 . S
O31 Zn28 2.031 . S
O31 C35 1.269 . S
O32 Zn29 1.986 . S
O32 C39 1.262 . S
O33 Zn28 2.049 . S
O33 C41 1.260 . S
O34 Zn29 1.996 . S
O34 C41 1.257 . S
C35 O30 1.254 . S
C35 O31 1.269 . S
C36 O37 1.249 . S
C36 O38 1.270 . S
O37 Zn29 1.943 . S
O37 C36 1.249 . S
O38 Zn28 2.067 . S
O38 C36 1.270 . S
C39 O32 1.262 . S
C39 O40 1.232 . S
O40 C39 1.232 . S
C41 O33 1.260 . S
C41 O34 1.257 . S
Zn42 O45 2.031 . S
Zn42 O47 2.049 . S
Zn42 O52 2.067 . S
Zn43 O44 1.962 . S
Zn43 O46 1.986 . S
Zn43 O48 1.996 . S
Zn43 O51 1.943 . S
O44 Zn43 1.962 . S
O44 C49 1.254 . S
O45 Zn42 2.031 . S
O45 C49 1.269 . S
O46 Zn43 1.986 . S
O46 C53 1.262 . S
O47 Zn42 2.049 . S
O47 C55 1.260 . S
O48 Zn43 1.996 . S
O48 C55 1.257 . S
C49 O44 1.254 . S
C49 O45 1.269 . S
C50 O51 1.249 . S
C50 O52 1.270 . S
O51 Zn43 1.943 . S
O51 C50 1.249 . S
O52 Zn42 2.067 . S
O52 C50 1.270 . S
C53 O46 1.262 . S
C53 O54 1.232 . S
O54 C53 1.232 . S
C55 O47 1.260 . S
C55 O48 1.257 . S
Zn56 O59 2.031 . S
Zn56 O61 2.049 . S
Zn56 O66 2.067 . S
Zn57 O58 1.962 . S
Zn57 O60 1.986 . S
Zn57 O62 1.996 . S
Zn57 O65 1.943 . S
O58 Zn57 1.962 . S
O58 C63 1.254 . S
O59 Zn56 2.031 . S
O59 C63 1.269 . S
O60 Zn57 1.986 . S
O60 C67 1.262 . S
O61 Zn56 2.049 . S
O61 C69 1.260 . S
O62 Zn57 1.996 . S
O62 C69 1.257 . S
C63 O58 1.254 . S
C63 O59 1.269 . S
C64 O65 1.249 . S
C64 O66 1.270 . S
O65 Zn57 1.943 . S
O65 C64 1.249 . S
O66 Zn56 2.067 . S
O66 C64 1.270 . S
C67 O60 1.262 . S
C67 O68 1.232 . S
O68 C67 1.232 . S
C69 O61 1.260 . S
C69 O62 1.257 . S
Zn70 O73 2.031 . S
Zn70 O75 2.049 . S
Zn70 O80 2.067 . S
Zn71 O72 1.962 . S
Zn71 O74 1.986 . S
Zn71 O76 1.996 . S
Zn71 O79 1.943 . S
O72 Zn71 1.962 . S
O72 C77 1.254 . S
O73 Zn70 2.031 . S
O73 C77 1.269 . S
O74 Zn71 1.986 . S
O74 C81 1.262 . S
O75 Zn70 2.049 . S
O75 C83 1.260 . S
O76 Zn71 1.996 . S
O76 C83 1.257 . S
C77 O72 1.254 . S
C77 O73 1.269 . S
C78 O79 1.249 . S
C78 O80 1.270 . S
O79 Zn71 1.943 . S
O79 C78 1.249 . S
O80 Zn70 2.067 . S
O80 C78 1.270 . S
C81 O74 1.262 . S
C81 O82 1.232 . S
O82 C81 1.232 . S
C83 O75 1.260 . S
C83 O76 1.257 . S
Zn84 O87 2.031 . S
Zn84 O89 2.049 . S
Zn84 O94 2.067 . S
Zn85 O86 1.962 . S
Zn85 O88 1.986 . S
Zn85 O90 1.996 . S
Zn85 O93 1.943 . S
O86 Zn85 1.962 . S
O86 C91 1.254 . S
O87 Zn84 2.031 . S
O87 C91 1.269 . S
O88 Zn85 1.986 . S
O88 C95 1.262 . S
O89 Zn84 2.049 . S
O89 C97 1.260 . S
O90 Zn85 1.996 . S
O90 C97 1.257 . S
C91 O86 1.254 . S
C91 O87 1.269 . S
C92 O93 1.249 . S
C92 O94 1.270 . S
O93 Zn85 1.943 . S
O93 C92 1.249 . S
O94 Zn84 2.067 . S
O94 C92 1.270 . S
C95 O88 1.262 . S
C95 O96 1.232 . S
O96 C95 1.232 . S
C97 O89 1.260 . S
C97 O90 1.257 . S
Zn98 O101 2.031 . S
Zn98 O103 2.049 . S
Zn98 O108 2.067 . S
Zn99 O100 1.962 . S
Zn99 O102 1.986 . S
Zn99 O104 1.996 . S
Zn99 O107 1.943 . S
O100 Zn99 1.962 . S
O100 C105 1.254 . S
O101 Zn98 2.031 . S
O101 C105 1.269 . S
O102 Zn99 1.986 . S
O102 C109 1.262 . S
O103 Zn98 2.049 . S
O103 C111 1.260 . S
O104 Zn99 1.996 . S
O104 C111 1.257 . S
C105 O100 1.254 . S
C105 O101 1.269 . S
C106 O107 1.249 . S
C106 O108 1.270 . S
O107 Zn99 1.943 . S
O107 C106 1.249 . S
O108 Zn98 2.067 . S
O108 C106 1.270 . S
C109 O102 1.262 . S
C109 O110 1.232 . S
O110 C109 1.232 . S
C111 O103 1.260 . S
C111 O104 1.257 . S
Zn112 O115 2.031 . S
Zn112 O117 2.049 . S
Zn112 O122 2.067 . S
Zn113 O114 1.962 . S
Zn113 O116 1.986 . S
Zn113 O118 1.996 . S
Zn113 O121 1.943 . S
O114 Zn113 1.962 . S
O114 C119 1.254 . S
O115 Zn112 2.031 . S
O115 C119 1.269 . S
O116 Zn113 1.986 . S
O116 C123 1.262 . S
O117 Zn112 2.049 . S
O117 C125 1.260 . S
O118 Zn113 1.996 . S
O118 C125 1.257 . S
C119 O114 1.254 . S
C119 O115 1.269 . S
C120 O121 1.249 . S
C120 O122 1.270 . S
O121 Zn113 1.943 . S
O121 C120 1.249 . S
O122 Zn112 2.067 . S
O122 C120 1.270 . S
C123 O116 1.262 . S
C123 O124 1.232 . S
O124 C123 1.232 . S
C125 O117 1.260 . S
C125 O118 1.257 . S
Zn126 O129 2.031 . S
Zn126 O131 2.049 . S
Zn126 O136 2.067 . S
Zn127 O128 1.962 . S
Zn127 O130 1.986 . S
Zn127 O132 1.996 . S
Zn127 O135 1.943 . S
O128 Zn127 1.962 . S
O128 C133 1.254 . S
O129 Zn126 2.031 . S
O129 C133 1.269 . S
O130 Zn127 1.986 . S
O130 C137 1.262 . S
O131 Zn126 2.049 . S
O131 C139 1.260 . S
O132 Zn127 1.996 . S
O132 C139 1.257 . S
C133 O128 1.254 . S
C133 O129 1.269 . S
C134 O135 1.249 . S
C134 O136 1.270 . S
O135 Zn127 1.943 . S
O135 C134 1.249 . S
O136 Zn126 2.067 . S
O136 C134 1.270 . S
C137 O130 1.262 . S
C137 O138 1.232 . S
O138 C137 1.232 . S
C139 O131 1.260 . S
C139 O132 1.257 . S
Zn140 O143 2.031 . S
Zn140 O145 2.049 . S
Zn140 O150 2.067 . S
Zn141 O142 1.962 . S
Zn141 O144 1.986 . S
Zn141 O146 1.996 . S
Zn141 O149 1.943 . S
O142 Zn141 1.962 . S
O142 C147 1.254 . S
O143 Zn140 2.031 . S
O143 C147 1.269 . S
O144 Zn141 1.986 . S
O144 C151 1.262 . S
O145 Zn140 2.049 . S
O145 C153 1.260 . S
O146 Zn141 1.996 . S
O146 C153 1.257 . S
C147 O142 1.254 . S
C147 O143 1.269 . S
C148 O149 1.249 . S
C148 O150 1.270 . S
O149 Zn141 1.943 . S
O149 C148 1.249 . S
O150 Zn140 2.067 . S
O150 C148 1.270 . S
C151 O144 1.262 . S
C151 O152 1.232 . S
O152 C151 1.232 . S
C153 O145 1.260 . S
C153 O146 1.257 . S
Zn154 O157 2.031 . S
Zn154 O159 2.049 . S
Zn154 O164 2.067 . S
Zn155 O156 1.962 . S
Zn155 O158 1.986 . S
Zn155 O160 1.996 . S
Zn155 O163 1.943 . S
O156 Zn155 1.962 . S
O156 C161 1.254 . S
O157 Zn154 2.031 . S
O157 C161 1.269 . S
O158 Zn155 1.986 . S
O158 C165 1.262 . S
O159 Zn154 2.049 . S
O159 C167 1.260 . S
O160 Zn155 1.996 . S
O160 C167 1.257 . S
C161 O156 1.254 . S
C161 O157 1.269 . S
C162 O163 1.249 . S
C162 O164 1.270 . S
O163 Zn155 1.943 . S
O163 C162 1.249 . S
O164 Zn154 2.067 . S
O164 C162 1.270 . S
C165 O158 1.262 . S
C165 O166 1.232 . S
O166 C165 1.232 . S
C167 O159 1.260 . S
C167 O160 1.257 . S
Zn168 O171 2.031 . S
Zn168 O173 2.049 . S
Zn168 O178 2.067 . S
Zn169 O170 1.962 . S
Zn169 O172 1.986 . S
Zn169 O174 1.996 . S
Zn169 O177 1.943 . S
O170 Zn169 1.962 . S
O170 C175 1.254 . S
O171 Zn168 2.031 . S
O171 C175 1.269 . S
O172 Zn169 1.986 . S
O172 C179 1.262 . S
O173 Zn168 2.049 . S
O173 C181 1.260 . S
O174 Zn169 1.996 . S
O174 C181 1.257 . S
C175 O170 1.254 . S
C175 O171 1.269 . S
C176 O177 1.249 . S
C176 O178 1.270 . S
O177 Zn169 1.943 . S
O177 C176 1.249 . S
O178 Zn168 2.067 . S
O178 C176 1.270 . S
C179 O172 1.262 . S
C179 O180 1.232 . S
O180 C179 1.232 . S
C181 O173 1.260 . S
C181 O174 1.257 . S
Zn182 O185 2.031 . S
Zn182 O187 2.049 . S
Zn182 O192 2.067 . S
Zn183 O184 1.962 . S
Zn183 O186 1.986 . S
Zn183 O188 1.996 . S
Zn183 O191 1.943 . S
O184 Zn183 1.962 . S
O184 C189 1.254 . S
O185 Zn182 2.031 . S
O185 C189 1.269 . S
O186 Zn183 1.986 . S
O186 C193 1.262 . S
O187 Zn182 2.049 . S
O187 C195 1.260 . S
O188 Zn183 1.996 . S
O188 C195 1.257 . S
C189 O184 1.254 . S
C189 O185 1.269 . S
C190 O191 1.249 . S
C190 O192 1.270 . S
O191 Zn183 1.943 . S
O191 C190 1.249 . S
O192 Zn182 2.067 . S
O192 C190 1.270 . S
C193 O186 1.262 . S
C193 O194 1.232 . S
O194 C193 1.232 . S
C195 O187 1.260 . S
C195 O188 1.257 . S
Zn196 O199 2.031 . S
Zn196 O201 2.049 . S
Zn196 O206 2.067 . S
Zn197 O198 1.962 . S
Zn197 O200 1.986 . S
Zn197 O202 1.996 . S
Zn197 O205 1.943 . S
O198 Zn197 1.962 . S
O198 C203 1.254 . S
O199 Zn196 2.031 . S
O199 C203 1.269 . S
O200 Zn197 1.986 . S
O200 C207 1.262 . S
O201 Zn196 2.049 . S
O201 C209 1.260 . S
O202 Zn197 1.996 . S
O202 C209 1.257 . S
C203 O198 1.254 . S
C203 O199 1.269 . S
C204 O205 1.249 . S
C204 O206 1.270 . S
O205 Zn197 1.943 . S
O205 C204 1.249 . S
O206 Zn196 2.067 . S
O206 C204 1.270 . S
C207 O200 1.262 . S
C207 O208 1.232 . S
O208 C207 1.232 . S
C209 O201 1.260 . S
C209 O202 1.257 . S
Zn210 O213 2.031 . S
Zn210 O215 2.049 . S
Zn210 O220 2.067 . S
Zn211 O212 1.962 . S
Zn211 O214 1.986 . S
Zn211 O216 1.996 . S
Zn211 O219 1.943 . S
O212 Zn211 1.962 . S
O212 C217 1.254 . S
O213 Zn210 2.031 . S
O213 C217 1.269 . S
O214 Zn211 1.986 . S
O214 C221 1.262 . S
O215 Zn210 2.049 . S
O215 C223 1.260 . S
O216 Zn211 1.996 . S
O216 C223 1.257 . S
C217 O212 1.254 . S
C217 O213 1.269 . S
C218 O219 1.249 . S
C218 O220 1.270 . S
O219 Zn211 1.943 . S
O219 C218 1.249 . S
O220 Zn210 2.067 . S
O220 C218 1.270 . S
C221 O214 1.262 . S
C221 O222 1.232 . S
O222 C221 1.232 . S
C223 O215 1.260 . S
C223 O216 1.257 . S
Zn224 O227 2.031 . S
Zn224 O229 2.049 . S
Zn224 O234 2.067 . S
Zn225 O226 1.962 . S
Zn225 O228 1.986 . S
Zn225 O230 1.996 . S
Zn225 O233 1.943 . S
O226 Zn225 1.962 . S
O226 C231 1.254 . S
O227 Zn224 2.031 . S
O227 C231 1.269 . S
O228 Zn225 1.986 . S
O228 C235 1.262 . S
O229 Zn224 2.049 . S
O229 C237 1.260 . S
O230 Zn225 1.996 . S
O230 C237 1.257 . S
C231 O226 1.254 . S
C231 O227 1.269 . S
C232 O233 1.249 . S
C232 O234 1.270 . S
O233 Zn225 1.943 . S
O233 C232 1.249 . S
O234 Zn224 2.067 . S
O234 C232 1.270 . S
C235 O228 1.262 . S
C235 O236 1.232 . S
O236 C235 1.232 . S
C237 O229 1.260 . S
C237 O230 1.257 . S
Zn238 O241 2.031 . S
Zn238 O243 2.049 . S
Zn238 O248 2.067 . S
Zn239 O240 1.962 . S
Zn239 O242 1.986 . S
Zn239 O244 1.996 . S
Zn239 O247 1.943 . S
O240 Zn239 1.962 . S
O240 C245 1.254 . S
O241 Zn238 2.031 . S
O241 C245 1.269 . S
O242 Zn239 1.986 . S
O242 C249 1.262 . S
O243 Zn238 2.049 . S
O243 C251 1.260 . S
O244 Zn239 1.996 . S
O244 C251 1.257 . S
C245 O240 1.254 . S
C245 O241 1.269 . S
C246 O247 1.249 . S
C246 O248 1.270 . S
O247 Zn239 1.943 . S
O247 C246 1.249 . S
O248 Zn238 2.067 . S
O248 C246 1.270 . S
C249 O242 1.262 . S
C249 O250 1.232 . S
O250 C249 1.232 . S
C251 O243 1.260 . S
C251 O244 1.257 . S
Zn252 O255 2.031 . S
Zn252 O257 2.049 . S
Zn252 O262 2.067 . S
Zn253 O254 1.962 . S
Zn253 O256 1.986 . S
Zn253 O258 1.996 . S
Zn253 O261 1.943 . S
O254 Zn253 1.962 . S
O254 C259 1.254 . S
O255 Zn252 2.031 . S
O255 C259 1.269 . S
O256 Zn253 1.986 . S
O256 C263 1.262 . S
O257 Zn252 2.049 . S
O257 C265 1.260 . S
O258 Zn253 1.996 . S
O258 C265 1.257 . S
C259 O254 1.254 . S
C259 O255 1.269 . S
C260 O261 1.249 . S
C260 O262 1.270 . S
O261 Zn253 1.943 . S
O261 C260 1.249 . S
O262 Zn252 2.067 . S
O262 C260 1.270 . S
C263 O256 1.262 . S
C263 O264 1.232 . S
O264 C263 1.232 . S
C265 O257 1.260 . S
C265 O258 1.257 . S
Zn266 O269 2.031 . S
Zn266 O271 2.049 . S
Zn266 O276 2.067 . S
Zn267 O268 1.962 . S
Zn267 O270 1.986 . S
Zn267 O272 1.996 . S
Zn267 O275 1.943 . S
O268 Zn267 1.962 . S
O268 C273 1.254 . S
O269 Zn266 2.031 . S
O269 C273 1.269 . S
O270 Zn267 1.986 . S
O270 C277 1.262 . S
O271 Zn266 2.049 . S
O271 C279 1.260 . S
O272 Zn267 1.996 . S
O272 C279 1.257 . S
C273 O268 1.254 . S
C273 O269 1.269 . S
C274 O275 1.249 . S
C274 O276 1.270 . S
O275 Zn267 1.943 . S
O275 C274 1.249 . S
O276 Zn266 2.067 . S
O276 C274 1.270 . S
C277 O270 1.262 . S
C277 O278 1.232 . S
O278 C277 1.232 . S
C279 O271 1.260 . S
C279 O272 1.257 . S
Zn280 O283 2.031 . S
Zn280 O285 2.049 . S
Zn280 O290 2.067 . S
Zn281 O282 1.962 . S
Zn281 O284 1.986 . S
Zn281 O286 1.996 . S
Zn281 O289 1.943 . S
O282 Zn281 1.962 . S
O282 C287 1.254 . S
O283 Zn280 2.031 . S
O283 C287 1.269 . S
O284 Zn281 1.986 . S
O284 C291 1.262 . S
O285 Zn280 2.049 . S
O285 C293 1.260 . S
O286 Zn281 1.996 . S
O286 C293 1.257 . S
C287 O282 1.254 . S
C287 O283 1.269 . S
C288 O289 1.249 . S
C288 O290 1.270 . S
O289 Zn281 1.943 . S
O289 C288 1.249 . S
O290 Zn280 2.067 . S
O290 C288 1.270 . S
C291 O284 1.262 . S
C291 O292 1.232 . S
O292 C291 1.232 . S
C293 O285 1.260 . S
C293 O286 1.257 . S
Zn294 O297 2.031 . S
Zn294 O299 2.049 . S
Zn294 O304 2.067 . S
Zn295 O296 1.962 . S
Zn295 O298 1.986 . S
Zn295 O300 1.996 . S
Zn295 O303 1.943 . S
O296 Zn295 1.962 . S
O296 C301 1.254 . S
O297 Zn294 2.031 . S
O297 C301 1.269 . S
O298 Zn295 1.986 . S
O298 C305 1.262 . S
O299 Zn294 2.049 . S
O299 C307 1.260 . S
O300 Zn295 1.996 . S
O300 C307 1.257 . S
C301 O296 1.254 . S
C301 O297 1.269 . S
C302 O303 1.249 . S
C302 O304 1.270 . S
O303 Zn295 1.943 . S
O303 C302 1.249 . S
O304 Zn294 2.067 . S
O304 C302 1.270 . S
C305 O298 1.262 . S
C305 O306 1.232 . S
O306 C305 1.232 . S
C307 O299 1.260 . S
C307 O300 1.257 . S
Zn308 O311 2.031 . S
Zn308 O313 2.049 . S
Zn308 O318 2.067 . S
Zn309 O310 1.962 . S
Zn309 O312 1.986 . S
Zn309 O314 1.996 . S
Zn309 O317 1.943 . S
O310 Zn309 1.962 . S
O310 C315 1.254 . S
O311 Zn308 2.031 . S
O311 C315 1.269 . S
O312 Zn309 1.986 . S
O312 C319 1.262 . S
O313 Zn308 2.049 . S
O313 C321 1.260 . S
O314 Zn309 1.996 . S
O314 C321 1.257 . S
C315 O310 1.254 . S
C315 O311 1.269 . S
C316 O317 1.249 . S
C316 O318 1.270 . S
O317 Zn309 1.943 . S
O317 C316 1.249 . S
O318 Zn308 2.067 . S
O318 C316 1.270 . S
C319 O312 1.262 . S
C319 O320 1.232 . S
O320 C319 1.232 . S
C321 O313 1.260 . S
C321 O314 1.257 . S
Zn322 O325 2.031 . S
Zn322 O327 2.049 . S
Zn322 O332 2.067 . S
Zn323 O324 1.962 . S
Zn323 O326 1.986 . S
Zn323 O328 1.996 . S
Zn323 O331 1.943 . S
O324 Zn323 1.962 . S
O324 C329 1.254 . S
O325 Zn322 2.031 . S
O325 C329 1.269 . S
O326 Zn323 1.986 . S
O326 C333 1.262 . S
O327 Zn322 2.049 . S
O327 C335 1.260 . S
O328 Zn323 1.996 . S
O328 C335 1.257 . S
C329 O324 1.254 . S
C329 O325 1.269 . S
C330 O331 1.249 . S
C330 O332 1.270 . S
O331 Zn323 1.943 . S
O331 C330 1.249 . S
O332 Zn322 2.067 . S
O332 C330 1.270 . S
C333 O326 1.262 . S
C333 O334 1.232 . S
O334 C333 1.232 . S
C335 O327 1.260 . S
C335 O328 1.257 . S
H336 C354 0.951 . S
H337 C356 0.951 . S
H338 C358 0.950 . S
H339 C359 0.950 . S
H340 C361 0.950 . S
H341 C364 0.950 . S
H342 C365 0.950 . S
H343 C367 0.950 . S
H344 C368 0.950 . S
H345 C369 0.951 . S
H346 C371 0.951 . S
H347 C373 0.950 . S
H348 C374 0.950 . S
H349 C376 0.950 . S
H350 C379 0.950 . S
H351 C380 0.950 . S
H352 C382 0.950 . S
H353 C383 0.950 . S
C354 H336 0.951 . S
C354 C355 1.366 . S
C354 C356 1.388 . S
C355 C354 1.366 . S
C355 C359 1.385 . S
C356 H337 0.951 . S
C356 C354 1.388 . S
C356 C357 1.366 . S
C357 C356 1.366 . S
C357 C358 1.414 . S
C357 C360 1.499 . S
C358 H338 0.950 . S
C358 C357 1.414 . S
C358 C359 1.374 . S
C359 H339 0.950 . S
C359 C355 1.385 . S
C359 C358 1.374 . S
C360 C357 1.499 . S
C360 C361 1.373 . S
C360 C362 1.389 . S
C361 H340 0.950 . S
C361 C360 1.373 . S
C361 C377 1.377 . S
C362 C360 1.389 . S
C362 C363 1.524 . S
C362 C376 1.377 . S
C363 C362 1.524 . S
C363 C364 1.397 . S
C363 C368 1.363 . S
C364 H341 0.950 . S
C364 C363 1.397 . S
C364 C365 1.334 . S
C365 H342 0.950 . S
C365 C364 1.334 . S
C365 C366 1.287 . S
C366 C365 1.287 . S
C366 C367 1.524 . S
C366 H385 0.913 . S
C367 H343 0.950 . S
C367 C366 1.524 . S
C367 C368 1.415 . S
C368 H344 0.950 . S
C368 C363 1.363 . S
C368 C367 1.415 . S
C369 H345 0.951 . S
C369 C370 1.366 . S
C369 C371 1.388 . S
C370 C369 1.366 . S
C370 C374 1.385 . S
C371 H346 0.951 . S
C371 C369 1.388 . S
C371 C372 1.366 . S
C372 C371 1.366 . S
C372 C373 1.414 . S
C372 C375 1.499 . S
C373 H347 0.950 . S
C373 C372 1.414 . S
C373 C374 1.374 . S
C374 H348 0.950 . S
C374 C370 1.385 . S
C374 C373 1.374 . S
C375 C372 1.499 . S
C375 C376 1.373 . S
C375 C377 1.389 . S
C376 H349 0.950 . S
C376 C362 1.377 . S
C376 C375 1.373 . S
C377 C361 1.377 . S
C377 C375 1.389 . S
C377 C378 1.524 . S
C378 C377 1.524 . S
C378 C379 1.397 . S
C378 C383 1.363 . S
C379 H350 0.950 . S
C379 C378 1.397 . S
C379 C380 1.334 . S
C380 H351 0.950 . S
C380 C379 1.334 . S
C380 C381 1.287 . S
C381 C380 1.287 . S
C381 C382 1.524 . S
C381 H384 0.999 . S
C382 H352 0.950 . S
C382 C381 1.524 . S
C382 C383 1.415 . S
C383 H353 0.950 . S
C383 C378 1.363 . S
C383 C382 1.415 . S
H384 C381 0.999 . S
H385 C366 0.913 . S
H386 C404 0.951 . S
H387 C406 0.951 . S
H388 C408 0.950 . S
H389 C409 0.950 . S
H390 C411 0.950 . S
H391 C414 0.950 1_455 S
H392 C415 0.950 . S
H393 C417 0.950 . S
H394 C418 0.950 . S
H395 C419 0.951 . S
H396 C421 0.951 . S
H397 C423 0.950 . S
H398 C424 0.950 . S
H399 C426 0.950 . S
H400 C429 0.950 . S
H401 C430 0.950 . S
H402 C432 0.950 . S
H403 C433 0.950 . S
C404 H386 0.951 . S
C404 C405 1.366 . S
C404 C406 1.388 . S
C405 C404 1.366 . S
C405 C409 1.385 1_655 S
C406 H387 0.951 . S
C406 C404 1.388 . S
C406 C407 1.366 1_655 S
C407 C406 1.366 1_455 S
C407 C408 1.414 . S
C407 C410 1.499 . S
C408 H388 0.950 . S
C408 C407 1.414 . S
C408 C409 1.374 . S
C409 H389 0.950 . S
C409 C405 1.385 1_455 S
C409 C408 1.374 . S
C410 C407 1.499 . S
C410 C411 1.373 . S
C410 C412 1.389 . S
C411 H390 0.950 . S
C411 C410 1.373 . S
C411 C427 1.377 . S
C412 C410 1.389 . S
C412 C413 1.562 . S
C412 C426 1.377 . S
C413 C412 1.562 . S
C413 C414 1.392 1_455 S
C413 C418 1.336 1_455 S
C414 H391 0.950 1_655 S
C414 C413 1.392 1_655 S
C414 C415 1.334 . S
C415 H392 0.950 . S
C415 C414 1.334 . S
C415 C416 1.287 . S
C416 C415 1.287 . S
C416 C417 1.524 . S
C416 H435 0.913 . S
C417 H393 0.950 . S
C417 C416 1.524 . S
C417 C418 1.415 . S
C418 H394 0.950 . S
C418 C413 1.336 1_655 S
C418 C417 1.415 . S
C419 H395 0.951 . S
C419 C420 1.366 . S
C419 C421 1.388 . S
C420 C419 1.366 . S
C420 C424 1.385 . S
C421 H396 0.951 . S
C421 C419 1.388 . S
C421 C422 1.366 . S
C422 C421 1.366 . S
C422 C423 1.414 . S
C422 C425 1.499 . S
C423 H397 0.950 . S
C423 C422 1.414 . S
C423 C424 1.374 . S
C424 H398 0.950 . S
C424 C420 1.385 . S
C424 C423 1.374 . S
C425 C422 1.499 . S
C425 C426 1.373 . S
C425 C427 1.389 . S
C426 H399 0.950 . S
C426 C412 1.377 . S
C426 C425 1.373 . S
C427 C411 1.377 . S
C427 C425 1.389 . S
C427 C428 1.524 . S
C428 C427 1.524 . S
C428 C429 1.397 . S
C428 C433 1.363 . S
C429 H400 0.950 . S
C429 C428 1.397 . S
C429 C430 1.334 . S
C430 H401 0.950 . S
C430 C429 1.334 . S
C430 C431 1.287 . S
C431 C430 1.287 . S
C431 C432 1.524 . S
C431 H434 0.999 . S
C432 H402 0.950 . S
C432 C431 1.524 . S
C432 C433 1.415 . S
C433 H403 0.950 . S
C433 C428 1.363 . S
C433 C432 1.415 . S
H434 C431 0.999 . S
H435 C416 0.913 . S
H436 C454 0.951 . S
H437 C456 0.951 . S
H438 C458 0.950 . S
H439 C459 0.950 . S
H440 C461 0.950 . S
H441 C464 0.950 . S
H442 C465 0.950 . S
H443 C467 0.950 . S
H444 C468 0.950 . S
H445 C469 0.951 . S
H446 C471 0.948 1_556 S
H447 C473 0.950 . S
H448 C474 0.950 . S
H449 C476 0.950 . S
H450 C479 0.950 . S
H451 C480 0.950 . S
H452 C482 0.950 . S
H453 C483 0.950 . S
C454 H436 0.951 . S
C454 C455 1.366 . S
C454 C456 1.388 . S
C455 C454 1.366 . S
C455 C459 1.385 . S
C456 H437 0.951 . S
C456 C454 1.388 . S
C456 C457 1.366 . S
C457 C456 1.366 . S
C457 C458 1.414 . S
C457 C460 1.499 . S
C458 H438 0.950 . S
C458 C457 1.414 . S
C458 C459 1.374 . S
C459 H439 0.950 . S
C459 C455 1.385 . S
C459 C458 1.374 . S
C460 C457 1.499 . S
C460 C461 1.373 . S
C460 C462 1.389 . S
C461 H440 0.950 . S
C461 C460 1.373 . S
C461 C477 1.377 . S
C462 C460 1.389 . S
C462 C463 1.524 . S
C462 C476 1.377 . S
C463 C462 1.524 . S
C463 C464 1.397 . S
C463 C468 1.363 . S
C464 H441 0.950 . S
C464 C463 1.397 . S
C464 C465 1.334 . S
C465 H442 0.950 . S
C465 C464 1.334 . S
C465 C466 1.287 . S
C466 C465 1.287 . S
C466 C467 1.524 . S
C466 H485 0.913 . S
C467 H443 0.950 . S
C467 C466 1.524 . S
C467 C468 1.415 . S
C468 H444 0.950 . S
C468 C463 1.363 . S
C468 C467 1.415 . S
C469 H445 0.951 . S
C469 C470 1.366 . S
C469 C471 1.423 . S
C470 C469 1.366 . S
C470 C474 1.385 . S
C471 H446 0.948 1_554 S
C471 C469 1.423 . S
C471 C472 1.336 1_554 S
C472 C471 1.336 1_556 S
C472 C473 1.414 . S
C472 C475 1.499 . S
C473 H447 0.950 . S
C473 C472 1.414 . S
C473 C474 1.374 1_556 S
C474 H448 0.950 . S
C474 C470 1.385 . S
C474 C473 1.374 1_554 S
C475 C472 1.499 . S
C475 C476 1.373 . S
C475 C477 1.389 . S
C476 H449 0.950 . S
C476 C462 1.377 . S
C476 C475 1.373 . S
C477 C461 1.377 . S
C477 C475 1.389 . S
C477 C478 1.524 . S
C478 C477 1.524 . S
C478 C479 1.397 . S
C478 C483 1.363 . S
C479 H450 0.950 . S
C479 C478 1.397 . S
C479 C480 1.334 . S
C480 H451 0.950 . S
C480 C479 1.334 . S
C480 C481 1.287 . S
C481 C480 1.287 . S
C481 C482 1.524 . S
C481 H484 0.999 . S
C482 H452 0.950 . S
C482 C481 1.524 . S
C482 C483 1.415 . S
C483 H453 0.950 . S
C483 C478 1.363 . S
C483 C482 1.415 . S
H484 C481 0.999 . S
H485 C466 0.913 . S
H486 C504 0.951 . S
H487 C506 0.951 . S
H488 C508 0.950 . S
H489 C509 0.950 . S
H490 C511 0.950 . S
H491 C514 0.950 . S
H492 C515 0.950 . S
H493 C517 0.950 . S
H494 C518 0.950 . S
H495 C519 0.951 . S
H496 C521 0.951 . S
H497 C523 0.950 . S
H498 C524 0.950 . S
H499 C526 0.950 . S
H500 C529 0.950 . S
H501 C530 0.950 . S
H502 C532 0.950 . S
H503 C533 0.950 . S
C504 H486 0.951 . S
C504 C505 1.366 . S
C504 C506 1.388 . S
C505 C504 1.366 . S
C505 C509 1.385 . S
C506 H487 0.951 . S
C506 C504 1.388 . S
C506 C507 1.366 . S
C507 C506 1.366 . S
C507 C508 1.414 . S
C507 C510 1.499 . S
C508 H488 0.950 . S
C508 C507 1.414 . S
C508 C509 1.374 . S
C509 H489 0.950 . S
C509 C505 1.385 . S
C509 C508 1.374 . S
C510 C507 1.499 . S
C510 C511 1.373 . S
C510 C512 1.389 . S
C511 H490 0.950 . S
C511 C510 1.373 . S
C511 C527 1.377 . S
C512 C510 1.389 . S
C512 C513 1.524 . S
C512 C526 1.377 . S
C513 C512 1.524 . S
C513 C514 1.397 . S
C513 C518 1.363 . S
C514 H491 0.950 . S
C514 C513 1.397 . S
C514 C515 1.334 . S
C515 H492 0.950 . S
C515 C514 1.334 . S
C515 C516 1.287 . S
C516 C515 1.287 . S
C516 C517 1.524 . S
C516 H535 0.913 . S
C517 H493 0.950 . S
C517 C516 1.524 . S
C517 C518 1.415 . S
C518 H494 0.950 . S
C518 C513 1.363 . S
C518 C517 1.415 . S
C519 H495 0.951 . S
C519 C520 1.366 . S
C519 C521 1.388 . S
C520 C519 1.366 . S
C520 C524 1.385 . S
C521 H496 0.951 . S
C521 C519 1.388 . S
C521 C522 1.366 . S
C522 C521 1.366 . S
C522 C523 1.414 . S
C522 C525 1.499 . S
C523 H497 0.950 . S
C523 C522 1.414 . S
C523 C524 1.374 . S
C524 H498 0.950 . S
C524 C520 1.385 . S
C524 C523 1.374 . S
C525 C522 1.499 . S
C525 C526 1.373 . S
C525 C527 1.389 . S
C526 H499 0.950 . S
C526 C512 1.377 . S
C526 C525 1.373 . S
C527 C511 1.377 . S
C527 C525 1.389 . S
C527 C528 1.524 . S
C528 C527 1.524 . S
C528 C529 1.397 . S
C528 C533 1.363 . S
C529 H500 0.950 . S
C529 C528 1.397 . S
C529 C530 1.334 . S
C530 H501 0.950 . S
C530 C529 1.334 . S
C530 C531 1.287 . S
C531 C530 1.287 . S
C531 C532 1.524 . S
C531 H534 0.999 . S
C532 H502 0.950 . S
C532 C531 1.524 . S
C532 C533 1.415 . S
C533 H503 0.950 . S
C533 C528 1.363 . S
C533 C532 1.415 . S
H534 C531 0.999 . S
H535 C516 0.913 . S
H536 C554 0.951 . S
H537 C556 0.951 . S
H538 C558 0.950 . S
H539 C559 0.950 . S
H540 C561 0.950 . S
H541 C564 0.950 . S
H542 C565 0.950 . S
H543 C567 0.950 . S
H544 C568 0.950 . S
H545 C569 0.951 . S
H546 C571 0.951 . S
H547 C573 0.950 . S
H548 C574 0.950 . S
H549 C576 0.950 . S
H550 C579 0.950 . S
H551 C580 0.950 . S
H552 C582 0.950 . S
H553 C583 0.950 . S
C554 H536 0.951 . S
C554 C555 1.366 . S
C554 C556 1.388 . S
C555 C554 1.366 . S
C555 C559 1.385 . S
C556 H537 0.951 . S
C556 C554 1.388 . S
C556 C557 1.366 . S
C557 C556 1.366 . S
C557 C558 1.414 . S
C557 C560 1.499 . S
C558 H538 0.950 . S
C558 C557 1.414 . S
C558 C559 1.374 . S
C559 H539 0.950 . S
C559 C555 1.385 . S
C559 C558 1.374 . S
C560 C557 1.499 . S
C560 C561 1.373 . S
C560 C562 1.389 . S
C561 H540 0.950 . S
C561 C560 1.373 . S
C561 C577 1.377 . S
C562 C560 1.389 . S
C562 C563 1.524 . S
C562 C576 1.377 . S
C563 C562 1.524 . S
C563 C564 1.397 . S
C563 C568 1.363 . S
C564 H541 0.950 . S
C564 C563 1.397 . S
C564 C565 1.334 . S
C565 H542 0.950 . S
C565 C564 1.334 . S
C565 C566 1.287 . S
C566 C565 1.287 . S
C566 C567 1.524 . S
C566 H585 0.913 . S
C567 H543 0.950 . S
C567 C566 1.524 . S
C567 C568 1.415 . S
C568 H544 0.950 . S
C568 C563 1.363 . S
C568 C567 1.415 . S
C569 H545 0.951 . S
C569 C570 1.366 . S
C569 C571 1.388 . S
C570 C569 1.366 . S
C570 C574 1.385 . S
C571 H546 0.951 . S
C571 C569 1.388 . S
C571 C572 1.366 . S
C572 C571 1.366 . S
C572 C573 1.414 . S
C572 C575 1.499 . S
C573 H547 0.950 . S
C573 C572 1.414 . S
C573 C574 1.374 . S
C574 H548 0.950 . S
C574 C570 1.385 . S
C574 C573 1.374 . S
C575 C572 1.499 . S
C575 C576 1.373 . S
C575 C577 1.389 . S
C576 H549 0.950 . S
C576 C562 1.377 . S
C576 C575 1.373 . S
C577 C561 1.377 . S
C577 C575 1.389 . S
C577 C578 1.524 . S
C578 C577 1.524 . S
C578 C579 1.397 . S
C578 C583 1.363 . S
C579 H550 0.950 . S
C579 C578 1.397 . S
C579 C580 1.334 . S
C580 H551 0.950 . S
C580 C579 1.334 . S
C580 C581 1.287 . S
C581 C580 1.287 . S
C581 C582 1.524 . S
C581 H584 0.999 . S
C582 H552 0.950 . S
C582 C581 1.524 . S
C582 C583 1.415 . S
C583 H553 0.950 . S
C583 C578 1.363 . S
C583 C582 1.415 . S
H584 C581 0.999 . S
H585 C566 0.913 . S
H586 C604 0.951 . S
H587 C606 0.951 . S
H588 C608 0.950 . S
H589 C609 0.950 . S
H590 C611 0.950 . S
H591 C614 0.950 . S
H592 C615 0.950 . S
H593 C617 0.950 . S
H594 C618 0.950 1_455 S
H595 C619 0.951 . S
H596 C621 0.951 . S
H597 C623 0.950 . S
H598 C624 0.950 . S
H599 C626 0.950 . S
H600 C629 0.950 . S
H601 C630 0.950 . S
H602 C632 0.950 . S
H603 C633 0.950 . S
C604 H586 0.951 . S
C604 C605 1.366 . S
C604 C606 1.388 . S
C605 C604 1.366 . S
C605 C609 1.385 . S
C606 H587 0.951 . S
C606 C604 1.388 . S
C606 C607 1.366 . S
C607 C606 1.366 . S
C607 C608 1.414 . S
C607 C610 1.499 . S
C608 H588 0.950 . S
C608 C607 1.414 . S
C608 C609 1.374 . S
C609 H589 0.950 . S
C609 C605 1.385 . S
C609 C608 1.374 . S
C610 C607 1.499 . S
C610 C611 1.373 . S
C610 C612 1.389 . S
C611 H590 0.950 . S
C611 C610 1.373 . S
C611 C627 1.377 . S
C612 C610 1.389 . S
C612 C613 1.524 . S
C612 C626 1.377 . S
C613 C612 1.524 . S
C613 C614 1.397 . S
C613 C618 1.363 . S
C614 H591 0.950 . S
C614 C613 1.397 . S
C614 C615 1.334 . S
C615 H592 0.950 . S
C615 C614 1.334 . S
C615 C616 1.287 . S
C616 C615 1.287 . S
C616 C617 1.524 1_655 S
C616 H635 0.913 . S
C617 H593 0.950 . S
C617 C616 1.524 1_455 S
C617 C618 1.415 1_455 S
C618 H594 0.950 1_655 S
C618 C613 1.363 . S
C618 C617 1.415 1_655 S
C619 H595 0.951 . S
C619 C620 1.366 1_655 S
C619 C621 1.388 . S
C620 C619 1.366 1_455 S
C620 C624 1.385 . S
C621 H596 0.951 . S
C621 C619 1.388 . S
C621 C622 1.366 . S
C622 C621 1.366 . S
C622 C623 1.414 1_655 S
C622 C625 1.499 . S
C623 H597 0.950 . S
C623 C622 1.414 1_455 S
C623 C624 1.374 . S
C624 H598 0.950 . S
C624 C620 1.385 . S
C624 C623 1.374 . S
C625 C622 1.499 . S
C625 C626 1.373 . S
C625 C627 1.389 . S
C626 H599 0.950 . S
C626 C612 1.377 . S
C626 C625 1.373 . S
C627 C611 1.377 . S
C627 C625 1.389 . S
C627 C628 1.524 . S
C628 C627 1.524 . S
C628 C629 1.397 . S
C628 C633 1.363 . S
C629 H600 0.950 . S
C629 C628 1.397 . S
C629 C630 1.334 . S
C630 H601 0.950 . S
C630 C629 1.334 . S
C630 C631 1.287 . S
C631 C630 1.287 . S
C631 C632 1.524 . S
C631 H634 0.999 . S
C632 H602 0.950 . S
C632 C631 1.524 . S
C632 C633 1.415 . S
C633 H603 0.950 . S
C633 C628 1.363 . S
C633 C632 1.415 . S
H634 C631 0.999 . S
H635 C616 0.913 . S
H636 C654 0.951 . S
H637 C656 0.951 . S
H638 C658 0.950 . S
H639 C659 0.950 . S
H640 C661 0.950 . S
H641 C664 0.950 . S
H642 C665 0.950 . S
H643 C667 0.950 . S
H644 C668 0.950 . S
H645 C669 0.951 . S
H646 C671 0.951 . S
H647 C673 0.950 . S
H648 C674 0.950 . S
H649 C676 0.950 . S
H650 C679 0.950 . S
H651 C680 0.950 . S
H652 C682 0.955 . S
H653 C683 0.950 . S
C654 H636 0.951 . S
C654 C655 1.366 . S
C654 C656 1.388 . S
C655 C654 1.366 . S
C655 C659 1.385 . S
C656 H637 0.951 . S
C656 C654 1.388 . S
C656 C657 1.366 . S
C657 C656 1.366 . S
C657 C658 1.414 . S
C657 C660 1.499 . S
C658 H638 0.950 . S
C658 C657 1.414 . S
C658 C659 1.374 . S
C659 H639 0.950 . S
C659 C655 1.385 . S
C659 C658 1.374 . S
C660 C657 1.499 . S
C660 C661 1.373 . S
C660 C662 1.389 . S
C661 H640 0.950 . S
C661 C660 1.373 . S
C661 C677 1.377 . S
C662 C660 1.389 . S
C662 C663 1.524 . S
C662 C676 1.377 . S
C663 C662 1.524 . S
C663 C664 1.397 . S
C663 C668 1.363 . S
C664 H641 0.950 . S
C664 C663 1.397 . S
C664 C665 1.334 . S
C665 H642 0.950 . S
C665 C664 1.334 . S
C665 C666 1.287 . S
C666 C665 1.287 . S
C666 C667 1.524 . S
C666 H685 0.913 . S
C667 H643 0.950 . S
C667 C666 1.524 . S
C667 C668 1.415 . S
C668 H644 0.950 . S
C668 C663 1.363 . S
C668 C667 1.415 . S
C669 H645 0.951 . S
C669 C670 1.366 . S
C669 C671 1.388 . S
C670 C669 1.366 . S
C670 C674 1.385 1_556 S
C671 H646 0.951 . S
C671 C669 1.388 . S
C671 C672 1.366 1_556 S
C672 C671 1.366 1_554 S
C672 C673 1.414 . S
C672 C675 1.499 . S
C673 H647 0.950 . S
C673 C672 1.414 . S
C673 C674 1.374 . S
C674 H648 0.950 . S
C674 C670 1.385 1_554 S
C674 C673 1.374 . S
C675 C672 1.499 . S
C675 C676 1.373 . S
C675 C677 1.389 . S
C676 H649 0.950 . S
C676 C662 1.377 . S
C676 C675 1.373 . S
C677 C661 1.377 . S
C677 C675 1.389 . S
C677 C678 1.524 . S
C678 C677 1.524 . S
C678 C679 1.397 . S
C678 C683 1.363 . S
C679 H650 0.950 . S
C679 C678 1.397 . S
C679 C680 1.334 . S
C680 H651 0.950 . S
C680 C679 1.334 . S
C680 C681 1.287 . S
C681 C680 1.287 . S
C681 C682 1.521 1_554 S
C681 H684 0.992 1_554 S
C682 H652 0.955 . S
C682 C681 1.521 1_556 S
C682 C683 1.411 1_556 S
C683 H653 0.950 . S
C683 C678 1.363 . S
C683 C682 1.411 1_554 S
H684 C681 0.992 1_556 S
H685 C666 0.913 . S
H686 C704 0.951 . S
H687 C706 0.951 . S
H688 C708 0.950 . S
H689 C709 0.950 . S
H690 C711 0.950 . S
H691 C714 0.950 . S
H692 C715 0.950 . S
H693 C717 0.950 . S
H694 C718 0.950 . S
H695 C719 0.951 . S
H696 C721 0.951 . S
H697 C723 0.950 . S
H698 C724 0.950 . S
H699 C726 0.950 . S
H700 C729 0.950 . S
H701 C730 0.950 . S
H702 C732 0.950 . S
H703 C733 0.950 . S
C704 H686 0.951 . S
C704 C705 1.366 . S
C704 C706 1.388 . S
C705 C704 1.366 . S
C705 C709 1.385 . S
C706 H687 0.951 . S
C706 C704 1.388 . S
C706 C707 1.366 . S
C707 C706 1.366 . S
C707 C708 1.414 . S
C707 C710 1.499 . S
C708 H688 0.950 . S
C708 C707 1.414 . S
C708 C709 1.374 . S
C709 H689 0.950 . S
C709 C705 1.385 . S
C709 C708 1.374 . S
C710 C707 1.499 . S
C710 C711 1.373 . S
C710 C712 1.389 . S
C711 H690 0.950 . S
C711 C710 1.373 . S
C711 C727 1.377 . S
C712 C710 1.389 . S
C712 C713 1.524 . S
C712 C726 1.377 . S
C713 C712 1.524 . S
C713 C714 1.397 . S
C713 C718 1.363 . S
C714 H691 0.950 . S
C714 C713 1.397 . S
C714 C715 1.334 . S
C715 H692 0.950 . S
C715 C714 1.334 . S
C715 C716 1.287 . S
C716 C715 1.287 . S
C716 C717 1.524 . S
C716 H735 0.913 . S
C717 H693 0.950 . S
C717 C716 1.524 . S
C717 C718 1.415 . S
C718 H694 0.950 . S
C718 C713 1.363 . S
C718 C717 1.415 . S
C719 H695 0.951 . S
C719 C720 1.366 . S
C719 C721 1.388 . S
C720 C719 1.366 . S
C720 C724 1.385 . S
C721 H696 0.951 . S
C721 C719 1.388 . S
C721 C722 1.366 . S
C722 C721 1.366 . S
C722 C723 1.414 . S
C722 C725 1.499 . S
C723 H697 0.950 . S
C723 C722 1.414 . S
C723 C724 1.374 . S
C724 H698 0.950 . S
C724 C720 1.385 . S
C724 C723 1.374 . S
C725 C722 1.499 . S
C725 C726 1.373 . S
C725 C727 1.389 . S
C726 H699 0.950 . S
C726 C712 1.377 . S
C726 C725 1.373 . S
C727 C711 1.377 . S
C727 C725 1.389 . S
C727 C728 1.524 . S
C728 C727 1.524 . S
C728 C729 1.397 . S
C728 C733 1.363 . S
C729 H700 0.950 . S
C729 C728 1.397 . S
C729 C730 1.334 . S
C730 H701 0.950 . S
C730 C729 1.334 . S
C730 C731 1.287 . S
C731 C730 1.287 . S
C731 C732 1.524 . S
C731 H734 0.999 . S
C732 H702 0.950 . S
C732 C731 1.524 . S
C732 C733 1.415 . S
C733 H703 0.950 . S
C733 C728 1.363 . S
C733 C732 1.415 . S
H734 C731 0.999 . S
H735 C716 0.913 . S
H736 C754 0.951 . S
H737 C756 0.951 . S
H738 C758 0.950 . S
H739 C759 0.950 . S
H740 C761 0.950 . S
H741 C764 0.950 . S
H742 C765 0.950 . S
H743 C767 0.950 . S
H744 C768 0.950 . S
H745 C769 0.951 . S
H746 C771 0.951 . S
H747 C773 0.950 . S
H748 C774 0.950 . S
H749 C776 0.950 . S
H750 C779 0.950 . S
H751 C780 0.950 . S
H752 C782 0.950 . S
H753 C783 0.950 . S
C754 H736 0.951 . S
C754 C755 1.366 . S
C754 C756 1.388 . S
C755 C754 1.366 . S
C755 C759 1.385 . S
C756 H737 0.951 . S
C756 C754 1.388 . S
C756 C757 1.366 . S
C757 C756 1.366 . S
C757 C758 1.414 . S
C757 C760 1.499 . S
C758 H738 0.950 . S
C758 C757 1.414 . S
C758 C759 1.374 . S
C759 H739 0.950 . S
C759 C755 1.385 . S
C759 C758 1.374 . S
C760 C757 1.499 . S
C760 C761 1.373 . S
C760 C762 1.389 . S
C761 H740 0.950 . S
C761 C760 1.373 . S
C761 C777 1.377 . S
C762 C760 1.389 . S
C762 C763 1.524 . S
C762 C776 1.377 . S
C763 C762 1.524 . S
C763 C764 1.397 . S
C763 C768 1.363 . S
C764 H741 0.950 . S
C764 C763 1.397 . S
C764 C765 1.334 . S
C765 H742 0.950 . S
C765 C764 1.334 . S
C765 C766 1.287 . S
C766 C765 1.287 . S
C766 C767 1.524 . S
C766 H785 0.913 . S
C767 H743 0.950 . S
C767 C766 1.524 . S
C767 C768 1.415 . S
C768 H744 0.950 . S
C768 C763 1.363 . S
C768 C767 1.415 . S
C769 H745 0.951 . S
C769 C770 1.366 . S
C769 C771 1.388 . S
C770 C769 1.366 . S
C770 C774 1.385 . S
C771 H746 0.951 . S
C771 C769 1.388 . S
C771 C772 1.366 . S
C772 C771 1.366 . S
C772 C773 1.414 . S
C772 C775 1.499 . S
C773 H747 0.950 . S
C773 C772 1.414 . S
C773 C774 1.374 . S
C774 H748 0.950 . S
C774 C770 1.385 . S
C774 C773 1.374 . S
C775 C772 1.499 . S
C775 C776 1.373 . S
C775 C777 1.389 . S
C776 H749 0.950 . S
C776 C762 1.377 . S
C776 C775 1.373 . S
C777 C761 1.377 . S
C777 C775 1.389 . S
C777 C778 1.524 . S
C778 C777 1.524 . S
C778 C779 1.397 . S
C778 C783 1.363 . S
C779 H750 0.950 . S
C779 C778 1.397 . S
C779 C780 1.334 . S
C780 H751 0.950 . S
C780 C779 1.334 . S
C780 C781 1.287 . S
C781 C780 1.287 . S
C781 C782 1.524 . S
C781 H784 0.999 . S
C782 H752 0.950 . S
C782 C781 1.524 . S
C782 C783 1.415 . S
C783 H753 0.950 . S
C783 C778 1.363 . S
C783 C782 1.415 . S
H784 C781 0.999 . S
H785 C766 0.913 . S
H786 C804 0.951 . S
H787 C806 0.951 . S
H788 C808 0.950 . S
H789 C809 0.950 . S
H790 C811 0.950 . S
H791 C814 0.950 . S
H792 C815 0.950 . S
H793 C817 0.950 . S
H794 C818 0.950 . S
H795 C819 0.951 . S
H796 C821 0.951 . S
H797 C823 0.950 . S
H798 C824 0.950 . S
H799 C826 0.950 . S
H800 C829 0.950 . S
H801 C830 0.950 . S
H802 C832 0.950 . S
H803 C833 0.950 . S
C804 H786 0.951 . S
C804 C805 1.366 . S
C804 C806 1.388 . S
C805 C804 1.366 . S
C805 C809 1.385 . S
C806 H787 0.951 . S
C806 C804 1.388 . S
C806 C807 1.366 1_565 S
C807 C806 1.366 1_545 S
C807 C808 1.414 . S
C807 C810 1.499 . S
C808 H788 0.950 . S
C808 C807 1.414 . S
C808 C809 1.374 1_545 S
C809 H789 0.950 . S
C809 C805 1.385 . S
C809 C808 1.374 1_565 S
C810 C807 1.499 . S
C810 C811 1.373 . S
C810 C812 1.389 . S
C811 H790 0.950 . S
C811 C810 1.373 . S
C811 C827 1.377 . S
C812 C810 1.389 . S
C812 C813 1.524 . S
C812 C826 1.377 . S
C813 C812 1.524 . S
C813 C814 1.397 . S
C813 C818 1.363 . S
C814 H791 0.950 . S
C814 C813 1.397 . S
C814 C815 1.334 . S
C815 H792 0.950 . S
C815 C814 1.334 . S
C815 C816 1.287 . S
C816 C815 1.287 . S
C816 C817 1.524 . S
C816 H835 0.913 . S
C817 H793 0.950 . S
C817 C816 1.524 . S
C817 C818 1.415 . S
C818 H794 0.950 . S
C818 C813 1.363 . S
C818 C817 1.415 . S
C819 H795 0.951 . S
C819 C820 1.366 . S
C819 C821 1.388 . S
C820 C819 1.366 . S
C820 C824 1.385 . S
C821 H796 0.951 . S
C821 C819 1.388 . S
C821 C822 1.366 . S
C822 C821 1.366 . S
C822 C823 1.414 . S
C822 C825 1.499 . S
C823 H797 0.950 . S
C823 C822 1.414 . S
C823 C824 1.374 . S
C824 H798 0.950 . S
C824 C820 1.385 . S
C824 C823 1.374 . S
C825 C822 1.499 . S
C825 C826 1.373 . S
C825 C827 1.389 . S
C826 H799 0.950 . S
C826 C812 1.377 . S
C826 C825 1.373 . S
C827 C811 1.377 . S
C827 C825 1.389 . S
C827 C828 1.524 . S
C828 C827 1.524 . S
C828 C829 1.397 . S
C828 C833 1.363 . S
C829 H800 0.950 . S
C829 C828 1.397 . S
C829 C830 1.334 . S
C830 H801 0.950 . S
C830 C829 1.334 . S
C830 C831 1.287 . S
C831 C830 1.287 . S
C831 C832 1.524 . S
C831 H834 0.999 . S
C832 H802 0.950 . S
C832 C831 1.524 . S
C832 C833 1.415 . S
C833 H803 0.950 . S
C833 C828 1.363 . S
C833 C832 1.415 . S
H834 C831 0.999 . S
H835 C816 0.913 . S
H836 C854 0.951 . S
H837 C856 0.951 . S
H838 C858 0.950 . S
H839 C859 0.950 . S
H840 C861 0.950 . S
H841 C864 0.950 . S
H842 C865 0.950 . S
H843 C867 0.949 . S
H844 C868 0.950 . S
H845 C869 0.951 . S
H846 C871 0.951 . S
H847 C873 0.950 . S
H848 C874 0.950 . S
H849 C876 0.950 . S
H850 C879 0.950 . S
H851 C880 0.950 . S
H852 C882 0.950 . S
H853 C883 0.950 . S
C854 H836 0.951 . S
C854 C855 1.366 . S
C854 C856 1.388 . S
C855 C854 1.366 . S
C855 C859 1.385 . S
C856 H837 0.951 . S
C856 C854 1.388 . S
C856 C857 1.366 . S
C857 C856 1.366 . S
C857 C858 1.414 . S
C857 C860 1.499 . S
C858 H838 0.950 . S
C858 C857 1.414 . S
C858 C859 1.374 . S
C859 H839 0.950 . S
C859 C855 1.385 . S
C859 C858 1.374 . S
C860 C857 1.499 . S
C860 C861 1.373 . S
C860 C862 1.389 . S
C861 H840 0.950 . S
C861 C860 1.373 . S
C861 C877 1.377 . S
C862 C860 1.389 . S
C862 C863 1.524 . S
C862 C876 1.377 . S
C863 C862 1.524 . S
C863 C864 1.397 . S
C863 C868 1.363 . S
C864 H841 0.950 . S
C864 C863 1.397 . S
C864 C865 1.334 . S
C865 H842 0.950 . S
C865 C864 1.334 . S
C865 C866 1.287 . S
C866 C865 1.287 . S
C866 C867 1.524 1_565 S
C866 H885 0.913 1_565 S
C867 H843 0.949 . S
C867 C866 1.524 1_545 S
C867 C868 1.416 1_545 S
C868 H844 0.950 . S
C868 C863 1.363 . S
C868 C867 1.416 1_565 S
C869 H845 0.951 . S
C869 C870 1.366 . S
C869 C871 1.388 1_545 S
C870 C869 1.366 . S
C870 C874 1.385 . S
C871 H846 0.951 . S
C871 C869 1.388 1_565 S
C871 C872 1.366 . S
C872 C871 1.366 . S
C872 C873 1.414 1_565 S
C872 C875 1.499 . S
C873 H847 0.950 . S
C873 C872 1.414 1_545 S
C873 C874 1.374 . S
C874 H848 0.950 . S
C874 C870 1.385 . S
C874 C873 1.374 . S
C875 C872 1.499 . S
C875 C876 1.373 . S
C875 C877 1.389 . S
C876 H849 0.950 . S
C876 C862 1.377 . S
C876 C875 1.373 . S
C877 C861 1.377 . S
C877 C875 1.389 . S
C877 C878 1.524 . S
C878 C877 1.524 . S
C878 C879 1.397 . S
C878 C883 1.363 . S
C879 H850 0.950 . S
C879 C878 1.397 . S
C879 C880 1.334 . S
C880 H851 0.950 . S
C880 C879 1.334 . S
C880 C881 1.287 . S
C881 C880 1.287 . S
C881 C882 1.524 . S
C881 H884 0.999 . S
C882 H852 0.950 . S
C882 C881 1.524 . S
C882 C883 1.415 . S
C883 H853 0.950 . S
C883 C878 1.363 . S
C883 C882 1.415 . S
H884 C881 0.999 . S
H885 C866 0.913 1_545 S
H886 C904 0.951 . S
H887 C906 0.951 . S
H888 C908 0.950 . S
H889 C909 0.950 . S
H890 C911 0.950 . S
H891 C914 0.950 . S
H892 C915 0.950 . S
H893 C917 0.950 . S
H894 C918 0.950 . S
H895 C919 0.951 . S
H896 C921 0.951 . S
H897 C923 0.950 . S
H898 C924 0.950 . S
H899 C926 0.950 . S
H900 C929 0.950 . S
H901 C930 0.950 . S
H902 C932 0.950 . S
H903 C933 0.950 . S
C904 H886 0.951 . S
C904 C905 1.366 . S
C904 C906 1.388 . S
C905 C904 1.366 . S
C905 C909 1.385 . S
C906 H887 0.951 . S
C906 C904 1.388 . S
C906 C907 1.366 . S
C907 C906 1.366 . S
C907 C908 1.414 . S
C907 C910 1.499 . S
C908 H888 0.950 . S
C908 C907 1.414 . S
C908 C909 1.374 . S
C909 H889 0.950 . S
C909 C905 1.385 . S
C909 C908 1.374 . S
C910 C907 1.499 . S
C910 C911 1.373 . S
C910 C912 1.389 . S
C911 H890 0.950 . S
C911 C910 1.373 . S
C911 C927 1.377 . S
C912 C910 1.389 . S
C912 C913 1.524 . S
C912 C926 1.377 . S
C913 C912 1.524 . S
C913 C914 1.397 . S
C913 C918 1.363 . S
C914 H891 0.950 . S
C914 C913 1.397 . S
C914 C915 1.334 . S
C915 H892 0.950 . S
C915 C914 1.334 . S
C915 C916 1.287 . S
C916 C915 1.287 . S
C916 C917 1.524 . S
C916 H935 0.913 . S
C917 H893 0.950 . S
C917 C916 1.524 . S
C917 C918 1.415 . S
C918 H894 0.950 . S
C918 C913 1.363 . S
C918 C917 1.415 . S
C919 H895 0.951 . S
C919 C920 1.366 . S
C919 C921 1.388 . S
C920 C919 1.366 . S
C920 C924 1.385 . S
C921 H896 0.951 . S
C921 C919 1.388 . S
C921 C922 1.366 . S
C922 C921 1.366 . S
C922 C923 1.414 . S
C922 C925 1.499 . S
C923 H897 0.950 . S
C923 C922 1.414 . S
C923 C924 1.374 . S
C924 H898 0.950 . S
C924 C920 1.385 . S
C924 C923 1.374 . S
C925 C922 1.499 . S
C925 C926 1.373 . S
C925 C927 1.389 . S
C926 H899 0.950 . S
C926 C912 1.377 . S
C926 C925 1.373 . S
C927 C911 1.377 . S
C927 C925 1.389 . S
C927 C928 1.524 . S
C928 C927 1.524 . S
C928 C929 1.397 . S
C928 C933 1.363 . S
C929 H900 0.950 . S
C929 C928 1.397 . S
C929 C930 1.334 . S
C930 H901 0.950 . S
C930 C929 1.334 . S
C930 C931 1.287 . S
C931 C930 1.287 . S
C931 C932 1.524 . S
C931 H934 0.999 . S
C932 H902 0.950 . S
C932 C931 1.524 . S
C932 C933 1.415 . S
C933 H903 0.950 . S
C933 C928 1.363 . S
C933 C932 1.415 . S
H934 C931 0.999 . S
H935 C916 0.913 . S
H936 C954 0.951 . S
H937 C956 0.951 . S
H938 C958 0.950 . S
H939 C959 0.950 . S
H940 C961 0.950 . S
H941 C964 0.950 . S
H942 C965 0.950 . S
H943 C967 0.950 . S
H944 C968 0.950 . S
H945 C969 0.951 . S
H946 C971 0.951 . S
H947 C973 0.950 . S
H948 C974 0.950 . S
H949 C976 0.950 . S
H950 C979 0.950 . S
H951 C980 0.950 . S
H952 C982 0.950 . S
H953 C983 0.950 . S
C954 H936 0.951 . S
C954 C955 1.366 . S
C954 C956 1.388 . S
C955 C954 1.366 . S
C955 C959 1.385 . S
C956 H937 0.951 . S
C956 C954 1.388 . S
C956 C957 1.366 . S
C957 C956 1.366 . S
C957 C958 1.414 . S
C957 C960 1.499 . S
C958 H938 0.950 . S
C958 C957 1.414 . S
C958 C959 1.374 . S
C959 H939 0.950 . S
C959 C955 1.385 . S
C959 C958 1.374 . S
C960 C957 1.499 . S
C960 C961 1.373 . S
C960 C962 1.389 . S
C961 H940 0.950 . S
C961 C960 1.373 . S
C961 C977 1.377 . S
C962 C960 1.389 . S
C962 C963 1.524 . S
C962 C976 1.377 . S
C963 C962 1.524 . S
C963 C964 1.397 . S
C963 C968 1.363 . S
C964 H941 0.950 . S
C964 C963 1.397 . S
C964 C965 1.334 . S
C965 H942 0.950 . S
C965 C964 1.334 . S
C965 C966 1.287 . S
C966 C965 1.287 . S
C966 C967 1.524 . S
C966 H985 0.913 . S
C967 H943 0.950 . S
C967 C966 1.524 . S
C967 C968 1.415 . S
C968 H944 0.950 . S
C968 C963 1.363 . S
C968 C967 1.415 . S
C969 H945 0.951 . S
C969 C970 1.366 . S
C969 C971 1.388 . S
C970 C969 1.366 . S
C970 C974 1.385 . S
C971 H946 0.951 . S
C971 C969 1.388 . S
C971 C972 1.366 . S
C972 C971 1.366 . S
C972 C973 1.414 . S
C972 C975 1.499 . S
C973 H947 0.950 . S
C973 C972 1.414 . S
C973 C974 1.374 . S
C974 H948 0.950 . S
C974 C970 1.385 . S
C974 C973 1.374 . S
C975 C972 1.499 . S
C975 C976 1.373 . S
C975 C977 1.389 . S
C976 H949 0.950 . S
C976 C962 1.377 . S
C976 C975 1.373 . S
C977 C961 1.377 . S
C977 C975 1.389 . S
C977 C978 1.524 . S
C978 C977 1.524 . S
C978 C979 1.397 . S
C978 C983 1.363 . S
C979 H950 0.950 . S
C979 C978 1.397 . S
C979 C980 1.334 . S
C980 H951 0.950 . S
C980 C979 1.334 . S
C980 C981 1.287 . S
C981 C980 1.287 . S
C981 C982 1.524 . S
C981 H984 0.999 . S
C982 H952 0.950 . S
C982 C981 1.524 . S
C982 C983 1.415 . S
C983 H953 0.950 . S
C983 C978 1.363 . S
C983 C982 1.415 . S
H984 C981 0.999 . S
H985 C966 0.913 . S
H986 C1004 0.951 . S
H987 C1006 0.951 . S
H988 C1008 0.950 . S
H989 C1009 0.950 . S
H990 C1011 0.950 . S
H991 C1014 0.950 . S
H992 C1015 0.950 . S
H993 C1017 0.950 . S
H994 C1018 0.950 . S
H995 C1019 0.951 . S
H996 C1021 0.951 . S
H997 C1023 0.950 . S
H998 C1024 0.950 . S
H999 C1026 0.950 . S
H1000 C1029 0.950 . S
H1001 C1030 0.950 . S
H1002 C1032 0.950 . S
H1003 C1033 0.950 . S
C1004 H986 0.951 . S
C1004 C1005 1.366 . S
C1004 C1006 1.388 1_565 S
C1005 C1004 1.366 . S
C1005 C1009 1.385 . S
C1006 H987 0.951 . S
C1006 C1004 1.388 1_545 S
C1006 C1007 1.366 1_545 S
C1007 C1006 1.366 1_565 S
C1007 C1008 1.414 . S
C1007 C1010 1.499 1_565 S
C1008 H988 0.950 . S
C1008 C1007 1.414 . S
C1008 C1009 1.374 . S
C1009 H989 0.950 . S
C1009 C1005 1.385 . S
C1009 C1008 1.374 . S
C1010 C1007 1.499 1_545 S
C1010 C1011 1.373 . S
C1010 C1012 1.389 . S
C1011 H990 0.950 . S
C1011 C1010 1.373 . S
C1011 C1027 1.377 . S
C1012 C1010 1.389 . S
C1012 C1013 1.524 . S
C1012 C1026 1.377 . S
C1013 C1012 1.524 . S
C1013 C1014 1.397 1_545 S
C1013 C1018 1.363 . S
C1014 H991 0.950 . S
C1014 C1013 1.397 1_565 S
C1014 C1015 1.334 . S
C1015 H992 0.950 . S
C1015 C1014 1.334 . S
C1015 C1016 1.287 . S
C1016 C1015 1.287 . S
C1016 C1017 1.524 1_565 S
C1016 H1035 0.913 . S
C1017 H993 0.950 . S
C1017 C1016 1.524 1_545 S
C1017 C1018 1.415 . S
C1018 H994 0.950 . S
C1018 C1013 1.363 . S
C1018 C1017 1.415 . S
C1019 H995 0.951 . S
C1019 C1020 1.366 . S
C1019 C1021 1.388 . S
C1020 C1019 1.366 . S
C1020 C1024 1.385 . S
C1021 H996 0.951 . S
C1021 C1019 1.388 . S
C1021 C1022 1.366 . S
C1022 C1021 1.366 . S
C1022 C1023 1.414 . S
C1022 C1025 1.499 . S
C1023 H997 0.950 . S
C1023 C1022 1.414 . S
C1023 C1024 1.374 . S
C1024 H998 0.950 . S
C1024 C1020 1.385 . S
C1024 C1023 1.374 . S
C1025 C1022 1.499 . S
C1025 C1026 1.373 . S
C1025 C1027 1.389 . S
C1026 H999 0.950 . S
C1026 C1012 1.377 . S
C1026 C1025 1.373 . S
C1027 C1011 1.377 . S
C1027 C1025 1.389 . S
C1027 C1028 1.524 . S
C1028 C1027 1.524 . S
C1028 C1029 1.397 . S
C1028 C1033 1.363 . S
C1029 H1000 0.950 . S
C1029 C1028 1.397 . S
C1029 C1030 1.334 . S
C1030 H1001 0.950 . S
C1030 C1029 1.334 . S
C1030 C1031 1.287 . S
C1031 C1030 1.287 . S
C1031 C1032 1.524 . S
C1031 H1034 0.999 . S
C1032 H1002 0.950 . S
C1032 C1031 1.524 . S
C1032 C1033 1.415 . S
C1033 H1003 0.950 . S
C1033 C1028 1.363 . S
C1033 C1032 1.415 . S
H1034 C1031 0.999 . S
H1035 C1016 0.913 . S
H1036 C1054 0.951 . S
H1037 C1056 0.951 . S
H1038 C1058 0.950 . S
H1039 C1059 0.950 . S
H1040 C1061 0.950 . S
H1041 C1064 0.950 . S
H1042 C1065 0.950 . S
H1043 C1067 0.950 . S
H1044 C1068 0.950 . S
H1045 C1069 0.951 . S
H1046 C1071 0.951 . S
H1047 C1073 0.950 . S
H1048 C1074 0.950 . S
H1049 C1076 0.950 . S
H1050 C1079 0.950 . S
H1051 C1080 0.950 . S
H1052 C1082 0.950 . S
H1053 C1083 0.950 . S
C1054 H1036 0.951 . S
C1054 C1055 1.366 . S
C1054 C1056 1.388 . S
C1055 C1054 1.366 . S
C1055 C1059 1.385 . S
C1056 H1037 0.951 . S
C1056 C1054 1.388 . S
C1056 C1057 1.366 . S
C1057 C1056 1.366 . S
C1057 C1058 1.414 . S
C1057 C1060 1.499 . S
C1058 H1038 0.950 . S
C1058 C1057 1.414 . S
C1058 C1059 1.374 . S
C1059 H1039 0.950 . S
C1059 C1055 1.385 . S
C1059 C1058 1.374 . S
C1060 C1057 1.499 . S
C1060 C1061 1.373 . S
C1060 C1062 1.389 . S
C1061 H1040 0.950 . S
C1061 C1060 1.373 . S
C1061 C1077 1.377 . S
C1062 C1060 1.389 . S
C1062 C1063 1.524 . S
C1062 C1076 1.377 . S
C1063 C1062 1.524 . S
C1063 C1064 1.397 . S
C1063 C1068 1.363 . S
C1064 H1041 0.950 . S
C1064 C1063 1.397 . S
C1064 C1065 1.334 . S
C1065 H1042 0.950 . S
C1065 C1064 1.334 . S
C1065 C1066 1.287 . S
C1066 C1065 1.287 . S
C1066 C1067 1.524 . S
C1066 H1085 0.913 . S
C1067 H1043 0.950 . S
C1067 C1066 1.524 . S
C1067 C1068 1.415 . S
C1068 H1044 0.950 . S
C1068 C1063 1.363 . S
C1068 C1067 1.415 . S
C1069 H1045 0.951 . S
C1069 C1070 1.366 . S
C1069 C1071 1.388 1_554 S
C1070 C1069 1.366 . S
C1070 C1074 1.385 . S
C1071 H1046 0.951 . S
C1071 C1069 1.388 1_556 S
C1071 C1072 1.366 1_556 S
C1072 C1071 1.366 1_554 S
C1072 C1073 1.414 . S
C1072 C1075 1.499 1_554 S
C1073 H1047 0.950 . S
C1073 C1072 1.414 . S
C1073 C1074 1.374 . S
C1074 H1048 0.950 . S
C1074 C1070 1.385 . S
C1074 C1073 1.374 . S
C1075 C1072 1.499 1_556 S
C1075 C1076 1.373 . S
C1075 C1077 1.389 . S
C1076 H1049 0.950 . S
C1076 C1062 1.377 . S
C1076 C1075 1.373 . S
C1077 C1061 1.377 . S
C1077 C1075 1.389 . S
C1077 C1078 1.524 . S
C1078 C1077 1.524 . S
C1078 C1079 1.397 1_556 S
C1078 C1083 1.363 . S
C1079 H1050 0.950 . S
C1079 C1078 1.397 1_554 S
C1079 C1080 1.334 . S
C1080 H1051 0.950 . S
C1080 C1079 1.334 . S
C1080 C1081 1.287 1_554 S
C1081 C1080 1.287 1_556 S
C1081 C1082 1.524 . S
C1081 H1084 0.999 . S
C1082 H1052 0.950 . S
C1082 C1081 1.524 . S
C1082 C1083 1.415 . S
C1083 H1053 0.950 . S
C1083 C1078 1.363 . S
C1083 C1082 1.415 . S
H1084 C1081 0.999 . S
H1085 C1066 0.913 . S
H1086 C1104 0.951 . S
H1087 C1106 0.951 . S
H1088 C1108 0.950 . S
H1089 C1109 0.950 . S
H1090 C1111 0.950 . S
H1091 C1114 0.950 . S
H1092 C1115 0.950 . S
H1093 C1117 0.950 . S
H1094 C1118 0.950 . S
H1095 C1119 0.951 . S
H1096 C1121 0.951 . S
H1097 C1123 0.950 . S
H1098 C1124 0.950 . S
H1099 C1126 0.950 . S
H1100 C1129 0.950 . S
H1101 C1130 0.950 . S
H1102 C1132 0.950 . S
H1103 C1133 0.950 . S
C1104 H1086 0.951 . S
C1104 C1105 1.366 . S
C1104 C1106 1.388 . S
C1105 C1104 1.366 . S
C1105 C1109 1.385 . S
C1106 H1087 0.951 . S
C1106 C1104 1.388 . S
C1106 C1107 1.411 . S
C1107 C1106 1.411 . S
C1107 C1108 1.406 1_545 S
C1107 C1110 1.465 1_545 S
C1108 H1088 0.950 . S
C1108 C1107 1.406 1_565 S
C1108 C1109 1.374 1_565 S
C1109 H1089 0.950 . S
C1109 C1105 1.385 . S
C1109 C1108 1.374 1_545 S
C1110 C1107 1.465 1_565 S
C1110 C1111 1.373 . S
C1110 C1112 1.389 . S
C1111 H1090 0.950 . S
C1111 C1110 1.373 . S
C1111 C1127 1.377 . S
C1112 C1110 1.389 . S
C1112 C1113 1.524 . S
C1112 C1126 1.377 . S
C1113 C1112 1.524 . S
C1113 C1114 1.397 . S
C1113 C1118 1.363 . S
C1114 H1091 0.950 . S
C1114 C1113 1.397 . S
C1114 C1115 1.334 . S
C1115 H1092 0.950 . S
C1115 C1114 1.334 . S
C1115 C1116 1.287 . S
C1116 C1115 1.287 . S
C1116 C1117 1.524 . S
C1116 H1135 0.913 . S
C1117 H1093 0.950 . S
C1117 C1116 1.524 . S
C1117 C1118 1.415 . S
C1118 H1094 0.950 . S
C1118 C1113 1.363 . S
C1118 C1117 1.415 . S
C1119 H1095 0.951 . S
C1119 C1120 1.366 . S
C1119 C1121 1.388 . S
C1120 C1119 1.366 . S
C1120 C1124 1.385 . S
C1121 H1096 0.951 . S
C1121 C1119 1.388 . S
C1121 C1122 1.366 . S
C1122 C1121 1.366 . S
C1122 C1123 1.414 . S
C1122 C1125 1.499 . S
C1123 H1097 0.950 . S
C1123 C1122 1.414 . S
C1123 C1124 1.374 . S
C1124 H1098 0.950 . S
C1124 C1120 1.385 . S
C1124 C1123 1.374 . S
C1125 C1122 1.499 . S
C1125 C1126 1.373 . S
C1125 C1127 1.389 . S
C1126 H1099 0.950 . S
C1126 C1112 1.377 . S
C1126 C1125 1.373 . S
C1127 C1111 1.377 . S
C1127 C1125 1.389 . S
C1127 C1128 1.524 . S
C1128 C1127 1.524 . S
C1128 C1129 1.397 . S
C1128 C1133 1.363 . S
C1129 H1100 0.950 . S
C1129 C1128 1.397 . S
C1129 C1130 1.334 . S
C1130 H1101 0.950 . S
C1130 C1129 1.334 . S
C1130 C1131 1.287 . S
C1131 C1130 1.287 . S
C1131 C1132 1.524 . S
C1131 H1134 0.999 . S
C1132 H1102 0.950 . S
C1132 C1131 1.524 . S
C1132 C1133 1.415 . S
C1133 H1103 0.950 . S
C1133 C1128 1.363 . S
C1133 C1132 1.415 . S
H1134 C1131 0.999 . S
H1135 C1116 0.913 . S
H1136 C1154 0.951 . S
H1137 C1156 0.951 . S
H1138 C1158 0.950 . S
H1139 C1159 0.950 . S
H1140 C1161 0.950 . S
H1141 C1164 0.950 . S
H1142 C1165 0.950 . S
H1143 C1167 0.950 . S
H1144 C1168 0.950 . S
H1145 C1169 0.951 . S
H1146 C1171 0.951 . S
H1147 C1173 0.950 . S
H1148 C1174 0.950 . S
H1149 C1176 0.950 . S
H1150 C1179 0.950 . S
H1151 C1180 0.950 . S
H1152 C1182 0.950 . S
H1153 C1183 0.950 . S
C1154 H1136 0.951 . S
C1154 C1155 1.366 . S
C1154 C1156 1.388 . S
C1155 C1154 1.366 . S
C1155 C1159 1.385 . S
C1156 H1137 0.951 . S
C1156 C1154 1.388 . S
C1156 C1157 1.366 . S
C1157 C1156 1.366 . S
C1157 C1158 1.414 . S
C1157 C1160 1.499 . S
C1158 H1138 0.950 . S
C1158 C1157 1.414 . S
C1158 C1159 1.374 . S
C1159 H1139 0.950 . S
C1159 C1155 1.385 . S
C1159 C1158 1.374 . S
C1160 C1157 1.499 . S
C1160 C1161 1.373 . S
C1160 C1162 1.389 . S
C1161 H1140 0.950 . S
C1161 C1160 1.373 . S
C1161 C1177 1.377 . S
C1162 C1160 1.389 . S
C1162 C1163 1.524 . S
C1162 C1176 1.377 . S
C1163 C1162 1.524 . S
C1163 C1164 1.397 . S
C1163 C1168 1.363 . S
C1164 H1141 0.950 . S
C1164 C1163 1.397 . S
C1164 C1165 1.334 . S
C1165 H1142 0.950 . S
C1165 C1164 1.334 . S
C1165 C1166 1.287 . S
C1166 C1165 1.287 . S
C1166 C1167 1.524 . S
C1166 H1185 0.913 . S
C1167 H1143 0.950 . S
C1167 C1166 1.524 . S
C1167 C1168 1.415 . S
C1168 H1144 0.950 . S
C1168 C1163 1.363 . S
C1168 C1167 1.415 . S
C1169 H1145 0.951 . S
C1169 C1170 1.366 . S
C1169 C1171 1.388 . S
C1170 C1169 1.366 . S
C1170 C1174 1.385 . S
C1171 H1146 0.951 . S
C1171 C1169 1.388 . S
C1171 C1172 1.366 . S
C1172 C1171 1.366 . S
C1172 C1173 1.414 . S
C1172 C1175 1.499 . S
C1173 H1147 0.950 . S
C1173 C1172 1.414 . S
C1173 C1174 1.374 . S
C1174 H1148 0.950 . S
C1174 C1170 1.385 . S
C1174 C1173 1.374 . S
C1175 C1172 1.499 . S
C1175 C1176 1.373 . S
C1175 C1177 1.389 . S
C1176 H1149 0.950 . S
C1176 C1162 1.377 . S
C1176 C1175 1.373 . S
C1177 C1161 1.377 . S
C1177 C1175 1.389 . S
C1177 C1178 1.524 . S
C1178 C1177 1.524 . S
C1178 C1179 1.397 . S
C1178 C1183 1.363 . S
C1179 H1150 0.950 . S
C1179 C1178 1.397 . S
C1179 C1180 1.334 . S
C1180 H1151 0.950 . S
C1180 C1179 1.334 . S
C1180 C1181 1.287 . S
C1181 C1180 1.287 . S
C1181 C1182 1.524 . S
C1181 H1184 0.999 . S
C1182 H1152 0.950 . S
C1182 C1181 1.524 . S
C1182 C1183 1.415 . S
C1183 H1153 0.950 . S
C1183 C1178 1.363 . S
C1183 C1182 1.415 . S
H1184 C1181 0.999 . S
H1185 C1166 0.913 . S
H1186 C1204 0.951 . S
H1187 C1206 0.951 . S
H1188 C1208 0.950 . S
H1189 C1209 0.950 . S
H1190 C1211 0.950 . S
H1191 C1214 0.950 . S
H1192 C1215 0.950 . S
H1193 C1217 0.950 . S
H1194 C1218 0.950 . S
H1195 C1219 0.951 . S
H1196 C1221 0.951 . S
H1197 C1223 0.950 . S
H1198 C1224 0.950 . S
H1199 C1226 0.950 . S
H1200 C1229 0.950 . S
H1201 C1230 0.950 . S
H1202 C1232 0.950 . S
H1203 C1233 0.950 . S
C1204 H1186 0.951 . S
C1204 C1205 1.366 . S
C1204 C1206 1.388 . S
C1205 C1204 1.366 . S
C1205 C1209 1.385 . S
C1206 H1187 0.951 . S
C1206 C1204 1.388 . S
C1206 C1207 1.366 . S
C1207 C1206 1.366 . S
C1207 C1208 1.414 . S
C1207 C1210 1.499 . S
C1208 H1188 0.950 . S
C1208 C1207 1.414 . S
C1208 C1209 1.374 . S
C1209 H1189 0.950 . S
C1209 C1205 1.385 . S
C1209 C1208 1.374 . S
C1210 C1207 1.499 . S
C1210 C1211 1.373 . S
C1210 C1212 1.389 . S
C1211 H1190 0.950 . S
C1211 C1210 1.373 . S
C1211 C1227 1.377 . S
C1212 C1210 1.389 . S
C1212 C1213 1.524 . S
C1212 C1226 1.377 . S
C1213 C1212 1.524 . S
C1213 C1214 1.397 . S
C1213 C1218 1.363 . S
C1214 H1191 0.950 . S
C1214 C1213 1.397 . S
C1214 C1215 1.334 . S
C1215 H1192 0.950 . S
C1215 C1214 1.334 . S
C1215 C1216 1.287 . S
C1216 C1215 1.287 . S
C1216 C1217 1.524 . S
C1216 H1235 0.913 . S
C1217 H1193 0.950 . S
C1217 C1216 1.524 . S
C1217 C1218 1.415 . S
C1218 H1194 0.950 . S
C1218 C1213 1.363 . S
C1218 C1217 1.415 . S
C1219 H1195 0.951 . S
C1219 C1220 1.366 . S
C1219 C1221 1.388 . S
C1220 C1219 1.366 . S
C1220 C1224 1.385 . S
C1221 H1196 0.951 . S
C1221 C1219 1.388 . S
C1221 C1222 1.366 . S
C1222 C1221 1.366 . S
C1222 C1223 1.414 . S
C1222 C1225 1.499 . S
C1223 H1197 0.950 . S
C1223 C1222 1.414 . S
C1223 C1224 1.374 . S
C1224 H1198 0.950 . S
C1224 C1220 1.385 . S
C1224 C1223 1.374 . S
C1225 C1222 1.499 . S
C1225 C1226 1.373 . S
C1225 C1227 1.389 . S
C1226 H1199 0.950 . S
C1226 C1212 1.377 . S
C1226 C1225 1.373 . S
C1227 C1211 1.377 . S
C1227 C1225 1.389 . S
C1227 C1228 1.524 . S
C1228 C1227 1.524 . S
C1228 C1229 1.397 . S
C1228 C1233 1.363 . S
C1229 H1200 0.950 . S
C1229 C1228 1.397 . S
C1229 C1230 1.334 . S
C1230 H1201 0.950 . S
C1230 C1229 1.334 . S
C1230 C1231 1.287 . S
C1231 C1230 1.287 . S
C1231 C1232 1.524 . S
C1231 H1234 0.999 . S
C1232 H1202 0.950 . S
C1232 C1231 1.524 . S
C1232 C1233 1.415 . S
C1233 H1203 0.950 . S
C1233 C1228 1.363 . S
C1233 C1232 1.415 . S
H1234 C1231 0.999 . S
H1235 C1216 0.913 . S
H1236 C1254 0.951 . S
H1237 C1256 0.951 . S
H1238 C1258 0.975 . S
H1239 C1259 0.950 . S
H1240 C1261 0.950 . S
H1241 C1264 0.950 . S
H1242 C1265 0.950 . S
H1243 C1267 0.950 . S
H1244 C1268 0.950 . S
H1245 C1269 0.951 . S
H1246 C1271 0.951 . S
H1247 C1273 0.950 . S
H1248 C1274 0.950 . S
H1249 C1276 0.950 . S
H1250 C1279 0.950 . S
H1251 C1280 0.950 . S
H1252 C1282 0.950 . S
H1253 C1283 0.950 . S
C1254 H1236 0.951 . S
C1254 C1255 1.366 . S
C1254 C1256 1.388 . S
C1255 C1254 1.366 . S
C1255 C1259 1.385 . S
C1256 H1237 0.951 . S
C1256 C1254 1.388 . S
C1256 C1257 1.366 . S
C1257 C1256 1.366 . S
C1257 C1258 1.414 . S
C1257 C1260 1.499 1_556 S
C1258 H1238 0.975 . S
C1258 C1257 1.414 . S
C1258 C1259 1.374 . S
C1259 H1239 0.950 . S
C1259 C1255 1.385 . S
C1259 C1258 1.374 . S
C1260 C1257 1.499 1_554 S
C1260 C1261 1.373 . S
C1260 C1262 1.389 . S
C1261 H1240 0.950 . S
C1261 C1260 1.373 . S
C1261 C1277 1.377 . S
C1262 C1260 1.389 . S
C1262 C1263 1.524 1_554 S
C1262 C1276 1.377 . S
C1263 C1262 1.524 1_556 S
C1263 C1264 1.397 . S
C1263 C1268 1.363 . S
C1264 H1241 0.950 . S
C1264 C1263 1.397 . S
C1264 C1265 1.334 . S
C1265 H1242 0.950 . S
C1265 C1264 1.334 . S
C1265 C1266 1.287 . S
C1266 C1265 1.287 . S
C1266 C1267 1.524 . S
C1266 H1285 0.913 . S
C1267 H1243 0.950 . S
C1267 C1266 1.524 . S
C1267 C1268 1.415 . S
C1268 H1244 0.950 . S
C1268 C1263 1.363 . S
C1268 C1267 1.415 . S
C1269 H1245 0.951 . S
C1269 C1270 1.366 . S
C1269 C1271 1.388 . S
C1270 C1269 1.366 . S
C1270 C1274 1.385 . S
C1271 H1246 0.951 . S
C1271 C1269 1.388 . S
C1271 C1272 1.366 . S
C1272 C1271 1.366 . S
C1272 C1273 1.414 . S
C1272 C1275 1.499 . S
C1273 H1247 0.950 . S
C1273 C1272 1.414 . S
C1273 C1274 1.374 . S
C1274 H1248 0.950 . S
C1274 C1270 1.385 . S
C1274 C1273 1.374 . S
C1275 C1272 1.499 . S
C1275 C1276 1.373 . S
C1275 C1277 1.389 . S
C1276 H1249 0.950 . S
C1276 C1262 1.377 . S
C1276 C1275 1.373 . S
C1277 C1261 1.377 . S
C1277 C1275 1.389 . S
C1277 C1278 1.524 . S
C1278 C1277 1.524 . S
C1278 C1279 1.397 . S
C1278 C1283 1.363 . S
C1279 H1250 0.950 . S
C1279 C1278 1.397 . S
C1279 C1280 1.334 . S
C1280 H1251 0.950 . S
C1280 C1279 1.334 . S
C1280 C1281 1.287 . S
C1281 C1280 1.287 . S
C1281 C1282 1.524 . S
C1281 H1284 0.999 . S
C1282 H1252 0.950 . S
C1282 C1281 1.524 . S
C1282 C1283 1.415 . S
C1283 H1253 0.950 . S
C1283 C1278 1.363 . S
C1283 C1282 1.415 . S
H1284 C1281 0.999 . S
H1285 C1266 0.913 . S
H1286 C1304 0.951 . S
H1287 C1306 0.951 . S
H1288 C1308 0.950 . S
H1289 C1309 0.950 . S
H1290 C1311 0.950 . S
H1291 C1314 0.950 . S
H1292 C1315 0.950 . S
H1293 C1317 0.950 . S
H1294 C1318 0.950 . S
H1295 C1319 0.951 . S
H1296 C1321 0.951 . S
H1297 C1323 0.950 . S
H1298 C1324 0.950 . S
H1299 C1326 0.950 . S
H1300 C1329 0.950 . S
H1301 C1330 0.950 . S
H1302 C1332 0.950 . S
H1303 C1333 0.950 . S
C1304 H1286 0.951 . S
C1304 C1305 1.366 . S
C1304 C1306 1.388 . S
C1305 C1304 1.366 . S
C1305 C1309 1.385 . S
C1306 H1287 0.951 . S
C1306 C1304 1.388 . S
C1306 C1307 1.366 . S
C1307 C1306 1.366 . S
C1307 C1308 1.414 . S
C1307 C1310 1.499 . S
C1308 H1288 0.950 . S
C1308 C1307 1.414 . S
C1308 C1309 1.374 . S
C1309 H1289 0.950 . S
C1309 C1305 1.385 . S
C1309 C1308 1.374 . S
C1310 C1307 1.499 . S
C1310 C1311 1.373 . S
C1310 C1312 1.389 . S
C1311 H1290 0.950 . S
C1311 C1310 1.373 . S
C1311 C1327 1.377 . S
C1312 C1310 1.389 . S
C1312 C1313 1.524 . S
C1312 C1326 1.377 . S
C1313 C1312 1.524 . S
C1313 C1314 1.397 . S
C1313 C1318 1.363 . S
C1314 H1291 0.950 . S
C1314 C1313 1.397 . S
C1314 C1315 1.334 . S
C1315 H1292 0.950 . S
C1315 C1314 1.334 . S
C1315 C1316 1.287 . S
C1316 C1315 1.287 . S
C1316 C1317 1.524 . S
C1316 H1335 0.913 . S
C1317 H1293 0.950 . S
C1317 C1316 1.524 . S
C1317 C1318 1.415 . S
C1318 H1294 0.950 . S
C1318 C1313 1.363 . S
C1318 C1317 1.415 . S
C1319 H1295 0.951 . S
C1319 C1320 1.366 . S
C1319 C1321 1.388 . S
C1320 C1319 1.366 . S
C1320 C1324 1.385 . S
C1321 H1296 0.951 . S
C1321 C1319 1.388 . S
C1321 C1322 1.366 . S
C1322 C1321 1.366 . S
C1322 C1323 1.414 . S
C1322 C1325 1.499 . S
C1323 H1297 0.950 . S
C1323 C1322 1.414 . S
C1323 C1324 1.374 . S
C1324 H1298 0.950 . S
C1324 C1320 1.385 . S
C1324 C1323 1.374 . S
C1325 C1322 1.499 . S
C1325 C1326 1.373 . S
C1325 C1327 1.389 . S
C1326 H1299 0.950 . S
C1326 C1312 1.377 . S
C1326 C1325 1.373 . S
C1327 C1311 1.377 . S
C1327 C1325 1.389 . S
C1327 C1328 1.524 . S
C1328 C1327 1.524 . S
C1328 C1329 1.397 . S
C1328 C1333 1.363 . S
C1329 H1300 0.950 . S
C1329 C1328 1.397 . S
C1329 C1330 1.334 . S
C1330 H1301 0.950 . S
C1330 C1329 1.334 . S
C1330 C1331 1.287 . S
C1331 C1330 1.287 . S
C1331 C1332 1.524 . S
C1331 H1334 0.999 . S
C1332 H1302 0.950 . S
C1332 C1331 1.524 . S
C1332 C1333 1.415 . S
C1333 H1303 0.950 . S
C1333 C1328 1.363 . S
C1333 C1332 1.415 . S
H1334 C1331 0.999 . S
H1335 C1316 0.913 . S
H1336 C1354 0.951 . S
H1337 C1356 0.951 . S
H1338 C1358 0.950 . S
H1339 C1359 0.950 . S
H1340 C1361 0.950 . S
H1341 C1364 0.950 . S
H1342 C1365 0.950 . S
H1343 C1367 0.950 . S
H1344 C1368 0.950 . S
H1345 C1369 0.951 . S
H1346 C1371 0.951 . S
H1347 C1373 0.950 . S
H1348 C1374 0.950 . S
H1349 C1376 0.950 . S
H1350 C1379 0.950 . S
H1351 C1380 0.950 . S
H1352 C1382 0.950 . S
H1353 C1383 0.950 . S
C1354 H1336 0.951 . S
C1354 C1355 1.366 . S
C1354 C1356 1.388 . S
C1355 C1354 1.366 . S
C1355 C1359 1.385 . S
C1356 H1337 0.951 . S
C1356 C1354 1.388 . S
C1356 C1357 1.366 . S
C1357 C1356 1.366 . S
C1357 C1358 1.414 . S
C1357 C1360 1.499 . S
C1358 H1338 0.950 . S
C1358 C1357 1.414 . S
C1358 C1359 1.374 . S
C1359 H1339 0.950 . S
C1359 C1355 1.385 . S
C1359 C1358 1.374 . S
C1360 C1357 1.499 . S
C1360 C1361 1.373 . S
C1360 C1362 1.389 . S
C1361 H1340 0.950 . S
C1361 C1360 1.373 . S
C1361 C1377 1.377 . S
C1362 C1360 1.389 . S
C1362 C1363 1.524 . S
C1362 C1376 1.377 . S
C1363 C1362 1.524 . S
C1363 C1364 1.397 . S
C1363 C1368 1.363 . S
C1364 H1341 0.950 . S
C1364 C1363 1.397 . S
C1364 C1365 1.334 . S
C1365 H1342 0.950 . S
C1365 C1364 1.334 . S
C1365 C1366 1.287 . S
C1366 C1365 1.287 . S
C1366 C1367 1.524 . S
C1366 H1385 0.913 . S
C1367 H1343 0.950 . S
C1367 C1366 1.524 . S
C1367 C1368 1.415 . S
C1368 H1344 0.950 . S
C1368 C1363 1.363 . S
C1368 C1367 1.415 . S
C1369 H1345 0.951 . S
C1369 C1370 1.366 . S
C1369 C1371 1.388 . S
C1370 C1369 1.366 . S
C1370 C1374 1.385 . S
C1371 H1346 0.951 . S
C1371 C1369 1.388 . S
C1371 C1372 1.366 . S
C1372 C1371 1.366 . S
C1372 C1373 1.414 . S
C1372 C1375 1.499 . S
C1373 H1347 0.950 . S
C1373 C1372 1.414 . S
C1373 C1374 1.374 . S
C1374 H1348 0.950 . S
C1374 C1370 1.385 . S
C1374 C1373 1.374 . S
C1375 C1372 1.499 . S
C1375 C1376 1.373 . S
C1375 C1377 1.389 . S
C1376 H1349 0.950 . S
C1376 C1362 1.377 . S
C1376 C1375 1.373 . S
C1377 C1361 1.377 . S
C1377 C1375 1.389 . S
C1377 C1378 1.524 . S
C1378 C1377 1.524 . S
C1378 C1379 1.397 . S
C1378 C1383 1.363 . S
C1379 H1350 0.950 . S
C1379 C1378 1.397 . S
C1379 C1380 1.334 . S
C1380 H1351 0.950 . S
C1380 C1379 1.334 . S
C1380 C1381 1.287 . S
C1381 C1380 1.287 . S
C1381 C1382 1.524 . S
C1381 H1384 0.999 . S
C1382 H1352 0.950 . S
C1382 C1381 1.524 . S
C1382 C1383 1.415 . S
C1383 H1353 0.950 . S
C1383 C1378 1.363 . S
C1383 C1382 1.415 . S
H1384 C1381 0.999 . S
H1385 C1366 0.913 . S
H1386 C1404 0.951 . S
H1387 C1406 0.951 . S
H1388 C1408 0.950 . S
H1389 C1409 0.950 . S
H1390 C1411 0.950 . S
H1391 C1414 0.950 . S
H1392 C1415 0.950 . S
H1393 C1417 0.950 . S
H1394 C1418 0.950 . S
H1395 C1419 0.951 . S
H1396 C1421 0.951 . S
H1397 C1423 0.950 . S
H1398 C1424 0.950 . S
H1399 C1426 0.950 . S
H1400 C1429 0.950 . S
H1401 C1430 0.950 . S
H1402 C1432 0.950 . S
H1403 C1433 0.950 . S
C1404 H1386 0.951 . S
C1404 C1405 1.366 . S
C1404 C1406 1.388 . S
C1405 C1404 1.366 . S
C1405 C1409 1.385 . S
C1406 H1387 0.951 . S
C1406 C1404 1.388 . S
C1406 C1407 1.366 . S
C1407 C1406 1.366 . S
C1407 C1408 1.414 1_455 S
C1407 C1410 1.499 1_455 S
C1408 H1388 0.950 . S
C1408 C1407 1.414 1_655 S
C1408 C1409 1.374 1_655 S
C1409 H1389 0.950 . S
C1409 C1405 1.385 . S
C1409 C1408 1.374 1_455 S
C1410 C1407 1.499 1_655 S
C1410 C1411 1.373 . S
C1410 C1412 1.389 . S
C1411 H1390 0.950 . S
C1411 C1410 1.373 . S
C1411 C1427 1.377 . S
C1412 C1410 1.389 . S
C1412 C1413 1.524 1_655 S
C1412 C1426 1.377 . S
C1413 C1412 1.524 1_455 S
C1413 C1414 1.397 . S
C1413 C1418 1.363 . S
C1414 H1391 0.950 . S
C1414 C1413 1.397 . S
C1414 C1415 1.334 . S
C1415 H1392 0.950 . S
C1415 C1414 1.334 . S
C1415 C1416 1.287 . S
C1416 C1415 1.287 . S
C1416 C1417 1.524 . S
C1416 H1435 0.913 . S
C1417 H1393 0.950 . S
C1417 C1416 1.524 . S
C1417 C1418 1.415 . S
C1418 H1394 0.950 . S
C1418 C1413 1.363 . S
C1418 C1417 1.415 . S
C1419 H1395 0.951 . S
C1419 C1420 1.366 . S
C1419 C1421 1.388 . S
C1420 C1419 1.366 . S
C1420 C1424 1.385 . S
C1421 H1396 0.951 . S
C1421 C1419 1.388 . S
C1421 C1422 1.366 . S
C1422 C1421 1.366 . S
C1422 C1423 1.414 . S
C1422 C1425 1.499 . S
C1423 H1397 0.950 . S
C1423 C1422 1.414 . S
C1423 C1424 1.374 . S
C1424 H1398 0.950 . S
C1424 C1420 1.385 . S
C1424 C1423 1.374 . S
C1425 C1422 1.499 . S
C1425 C1426 1.373 . S
C1425 C1427 1.389 . S
C1426 H1399 0.950 . S
C1426 C1412 1.377 . S
C1426 C1425 1.373 . S
C1427 C1411 1.377 . S
C1427 C1425 1.389 . S
C1427 C1428 1.524 . S
C1428 C1427 1.524 . S
C1428 C1429 1.397 . S
C1428 C1433 1.363 . S
C1429 H1400 0.950 . S
C1429 C1428 1.397 . S
C1429 C1430 1.334 . S
C1430 H1401 0.950 . S
C1430 C1429 1.334 . S
C1430 C1431 1.287 . S
C1431 C1430 1.287 . S
C1431 C1432 1.524 . S
C1431 H1434 0.999 . S
C1432 H1402 0.950 . S
C1432 C1431 1.524 . S
C1432 C1433 1.415 . S
C1433 H1403 0.950 . S
C1433 C1428 1.363 . S
C1433 C1432 1.415 . S
H1434 C1431 0.999 . S
H1435 C1416 0.913 . S
H1436 C1454 0.951 . S
H1437 C1456 0.951 . S
H1438 C1458 0.950 . S
H1439 C1459 0.950 . S
H1440 C1461 0.950 . S
H1441 C1464 0.950 . S
H1442 C1465 0.950 . S
H1443 C1467 0.950 . S
H1444 C1468 0.950 . S
H1445 C1469 0.951 . S
H1446 C1471 0.951 . S
H1447 C1473 0.950 . S
H1448 C1474 0.950 . S
H1449 C1476 0.950 . S
H1450 C1479 0.950 . S
H1451 C1480 0.950 . S
H1452 C1482 0.950 . S
H1453 C1483 0.950 . S
C1454 H1436 0.951 . S
C1454 C1455 1.366 . S
C1454 C1456 1.388 . S
C1455 C1454 1.366 . S
C1455 C1459 1.385 . S
C1456 H1437 0.951 . S
C1456 C1454 1.388 . S
C1456 C1457 1.366 . S
C1457 C1456 1.366 . S
C1457 C1458 1.414 1_655 S
C1457 C1460 1.499 1_655 S
C1458 H1438 0.950 . S
C1458 C1457 1.414 1_455 S
C1458 C1459 1.374 1_455 S
C1459 H1439 0.950 . S
C1459 C1455 1.385 . S
C1459 C1458 1.374 1_655 S
C1460 C1457 1.499 1_455 S
C1460 C1461 1.373 . S
C1460 C1462 1.389 . S
C1461 H1440 0.950 . S
C1461 C1460 1.373 . S
C1461 C1477 1.377 . S
C1462 C1460 1.389 . S
C1462 C1463 1.524 1_455 S
C1462 C1476 1.377 . S
C1463 C1462 1.524 1_655 S
C1463 C1464 1.397 . S
C1463 C1468 1.363 . S
C1464 H1441 0.950 . S
C1464 C1463 1.397 . S
C1464 C1465 1.334 . S
C1465 H1442 0.950 . S
C1465 C1464 1.334 . S
C1465 C1466 1.287 . S
C1466 C1465 1.287 . S
C1466 C1467 1.524 . S
C1466 H1485 0.913 . S
C1467 H1443 0.950 . S
C1467 C1466 1.524 . S
C1467 C1468 1.415 . S
C1468 H1444 0.950 . S
C1468 C1463 1.363 . S
C1468 C1467 1.415 . S
C1469 H1445 0.951 . S
C1469 C1470 1.366 . S
C1469 C1471 1.388 . S
C1470 C1469 1.366 . S
C1470 C1474 1.385 . S
C1471 H1446 0.951 . S
C1471 C1469 1.388 . S
C1471 C1472 1.366 . S
C1472 C1471 1.366 . S
C1472 C1473 1.414 . S
C1472 C1475 1.499 . S
C1473 H1447 0.950 . S
C1473 C1472 1.414 . S
C1473 C1474 1.374 . S
C1474 H1448 0.950 . S
C1474 C1470 1.385 . S
C1474 C1473 1.374 . S
C1475 C1472 1.499 . S
C1475 C1476 1.373 . S
C1475 C1477 1.389 . S
C1476 H1449 0.950 . S
C1476 C1462 1.377 . S
C1476 C1475 1.373 . S
C1477 C1461 1.377 . S
C1477 C1475 1.389 . S
C1477 C1478 1.524 . S
C1478 C1477 1.524 . S
C1478 C1479 1.397 . S
C1478 C1483 1.363 . S
C1479 H1450 0.950 . S
C1479 C1478 1.397 . S
C1479 C1480 1.334 . S
C1480 H1451 0.950 . S
C1480 C1479 1.334 . S
C1480 C1481 1.287 . S
C1481 C1480 1.287 . S
C1481 C1482 1.524 . S
C1481 H1484 0.999 . S
C1482 H1452 0.950 . S
C1482 C1481 1.524 . S
C1482 C1483 1.415 . S
C1483 H1453 0.950 . S
C1483 C1478 1.363 . S
C1483 C1482 1.415 . S
H1484 C1481 0.999 . S
H1485 C1466 0.913 . S
H1486 C1504 0.951 . S
H1487 C1506 0.951 . S
H1488 C1508 0.950 . S
H1489 C1509 0.950 . S
H1490 C1511 0.950 . S
H1491 C1514 0.950 . S
H1492 C1515 0.950 . S
H1493 C1517 0.950 . S
H1494 C1518 0.950 . S
H1495 C1519 0.951 . S
H1496 C1521 0.951 . S
H1497 C1523 0.950 . S
H1498 C1524 0.950 . S
H1499 C1526 0.950 . S
H1500 C1529 0.950 . S
H1501 C1530 0.950 . S
H1502 C1532 0.950 . S
H1503 C1533 0.950 . S
C1504 H1486 0.951 . S
C1504 C1505 1.366 . S
C1504 C1506 1.388 . S
C1505 C1504 1.366 . S
C1505 C1509 1.385 . S
C1506 H1487 0.951 . S
C1506 C1504 1.388 . S
C1506 C1507 1.366 . S
C1507 C1506 1.366 . S
C1507 C1508 1.414 . S
C1507 C1510 1.499 . S
C1508 H1488 0.950 . S
C1508 C1507 1.414 . S
C1508 C1509 1.374 . S
C1509 H1489 0.950 . S
C1509 C1505 1.385 . S
C1509 C1508 1.374 . S
C1510 C1507 1.499 . S
C1510 C1511 1.373 . S
C1510 C1512 1.389 . S
C1511 H1490 0.950 . S
C1511 C1510 1.373 . S
C1511 C1527 1.377 . S
C1512 C1510 1.389 . S
C1512 C1513 1.524 . S
C1512 C1526 1.377 . S
C1513 C1512 1.524 . S
C1513 C1514 1.397 . S
C1513 C1518 1.363 . S
C1514 H1491 0.950 . S
C1514 C1513 1.397 . S
C1514 C1515 1.334 . S
C1515 H1492 0.950 . S
C1515 C1514 1.334 . S
C1515 C1516 1.287 . S
C1516 C1515 1.287 . S
C1516 C1517 1.524 . S
C1516 H1535 0.913 . S
C1517 H1493 0.950 . S
C1517 C1516 1.524 . S
C1517 C1518 1.415 . S
C1518 H1494 0.950 . S
C1518 C1513 1.363 . S
C1518 C1517 1.415 . S
C1519 H1495 0.951 . S
C1519 C1520 1.366 . S
C1519 C1521 1.388 . S
C1520 C1519 1.366 . S
C1520 C1524 1.385 . S
C1521 H1496 0.951 . S
C1521 C1519 1.388 . S
C1521 C1522 1.366 . S
C1522 C1521 1.366 . S
C1522 C1523 1.414 . S
C1522 C1525 1.499 . S
C1523 H1497 0.950 . S
C1523 C1522 1.414 . S
C1523 C1524 1.374 . S
C1524 H1498 0.950 . S
C1524 C1520 1.385 . S
C1524 C1523 1.374 . S
C1525 C1522 1.499 . S
C1525 C1526 1.373 . S
C1525 C1527 1.389 . S
C1526 H1499 0.950 . S
C1526 C1512 1.377 . S
C1526 C1525 1.373 . S
C1527 C1511 1.377 . S
C1527 C1525 1.389 . S
C1527 C1528 1.524 . S
C1528 C1527 1.524 . S
C1528 C1529 1.397 . S
C1528 C1533 1.363 . S
C1529 H1500 0.950 . S
C1529 C1528 1.397 . S
C1529 C1530 1.334 . S
C1530 H1501 0.950 . S
C1530 C1529 1.334 . S
C1530 C1531 1.287 . S
C1531 C1530 1.287 . S
C1531 C1532 1.524 . S
C1531 H1534 0.999 . S
C1532 H1502 0.950 . S
C1532 C1531 1.524 . S
C1532 C1533 1.415 . S
C1533 H1503 0.950 . S
C1533 C1528 1.363 . S
C1533 C1532 1.415 . S
H1534 C1531 0.999 . S
H1535 C1516 0.913 . S
H1536 C1554 0.951 . S
H1537 C1556 0.951 . S
H1538 C1558 0.950 . S
H1539 C1559 0.950 . S
H1540 C1561 0.950 . S
H1541 C1564 0.950 . S
H1542 C1565 0.950 . S
H1543 C1567 0.950 . S
H1544 C1568 0.950 . S
H1545 C1569 0.951 . S
H1546 C1571 0.951 . S
H1547 C1573 0.950 . S
H1548 C1574 0.950 . S
H1549 C1576 0.950 . S
H1550 C1579 0.950 . S
H1551 C1580 0.950 . S
H1552 C1582 0.950 . S
H1553 C1583 0.950 . S
C1554 H1536 0.951 . S
C1554 C1555 1.366 . S
C1554 C1556 1.388 . S
C1555 C1554 1.366 . S
C1555 C1559 1.385 . S
C1556 H1537 0.951 . S
C1556 C1554 1.388 . S
C1556 C1557 1.366 . S
C1557 C1556 1.366 . S
C1557 C1558 1.414 . S
C1557 C1560 1.499 . S
C1558 H1538 0.950 . S
C1558 C1557 1.414 . S
C1558 C1559 1.374 . S
C1559 H1539 0.950 . S
C1559 C1555 1.385 . S
C1559 C1558 1.374 . S
C1560 C1557 1.499 . S
C1560 C1561 1.373 . S
C1560 C1562 1.389 . S
C1561 H1540 0.950 . S
C1561 C1560 1.373 . S
C1561 C1577 1.377 . S
C1562 C1560 1.389 . S
C1562 C1563 1.524 . S
C1562 C1576 1.377 . S
C1563 C1562 1.524 . S
C1563 C1564 1.397 . S
C1563 C1568 1.363 . S
C1564 H1541 0.950 . S
C1564 C1563 1.397 . S
C1564 C1565 1.334 . S
C1565 H1542 0.950 . S
C1565 C1564 1.334 . S
C1565 C1566 1.287 . S
C1566 C1565 1.287 . S
C1566 C1567 1.524 . S
C1566 H1585 0.913 . S
C1567 H1543 0.950 . S
C1567 C1566 1.524 . S
C1567 C1568 1.415 . S
C1568 H1544 0.950 . S
C1568 C1563 1.363 . S
C1568 C1567 1.415 . S
C1569 H1545 0.951 . S
C1569 C1570 1.366 . S
C1569 C1571 1.388 . S
C1570 C1569 1.366 . S
C1570 C1574 1.385 . S
C1571 H1546 0.951 . S
C1571 C1569 1.388 . S
C1571 C1572 1.366 . S
C1572 C1571 1.366 . S
C1572 C1573 1.414 . S
C1572 C1575 1.499 . S
C1573 H1547 0.950 . S
C1573 C1572 1.414 . S
C1573 C1574 1.374 . S
C1574 H1548 0.950 . S
C1574 C1570 1.385 . S
C1574 C1573 1.374 . S
C1575 C1572 1.499 . S
C1575 C1576 1.373 . S
C1575 C1577 1.389 . S
C1576 H1549 0.950 . S
C1576 C1562 1.377 . S
C1576 C1575 1.373 . S
C1577 C1561 1.377 . S
C1577 C1575 1.389 . S
C1577 C1578 1.524 . S
C1578 C1577 1.524 . S
C1578 C1579 1.397 . S
C1578 C1583 1.363 . S
C1579 H1550 0.950 . S
C1579 C1578 1.397 . S
C1579 C1580 1.334 . S
C1580 H1551 0.950 . S
C1580 C1579 1.334 . S
C1580 C1581 1.287 . S
C1581 C1580 1.287 . S
C1581 C1582 1.524 . S
C1581 H1584 0.999 . S
C1582 H1552 0.950 . S
C1582 C1581 1.524 . S
C1582 C1583 1.415 . S
C1583 H1553 0.950 . S
C1583 C1578 1.363 . S
C1583 C1582 1.415 . S
H1584 C1581 0.999 . S
H1585 C1566 0.913 . S
H1586 C1604 0.951 . S
H1587 C1606 0.951 . S
H1588 C1608 0.950 . S
H1589 C1609 0.950 . S
H1590 C1611 0.950 1_545 S
H1591 C1614 0.950 . S
H1592 C1615 0.950 . S
H1593 C1617 0.950 . S
H1594 C1618 0.950 . S
H1595 C1619 0.951 . S
H1596 C1621 0.951 . S
H1597 C1623 0.950 . S
H1598 C1624 0.950 . S
H1599 C1626 0.950 . S
H1600 C1629 0.950 1_565 S
H1601 C1630 0.950 . S
H1602 C1632 0.950 . S
H1603 C1633 0.950 . S
C1604 H1586 0.951 . S
C1604 C1605 1.366 1_565 S
C1604 C1606 1.388 . S
C1605 C1604 1.366 1_545 S
C1605 C1609 1.385 . S
C1606 H1587 0.951 . S
C1606 C1604 1.388 . S
C1606 C1607 1.366 . S
C1607 C1606 1.366 . S
C1607 C1608 1.414 1_565 S
C1607 C1610 1.499 . S
C1608 H1588 0.950 . S
C1608 C1607 1.414 1_545 S
C1608 C1609 1.374 . S
C1609 H1589 0.950 . S
C1609 C1605 1.385 . S
C1609 C1608 1.374 . S
C1610 C1607 1.499 . S
C1610 C1611 1.373 . S
C1610 C1612 1.389 . S
C1611 H1590 0.950 1_565 S
C1611 C1610 1.373 . S
C1611 C1627 1.377 . S
C1612 C1610 1.389 . S
C1612 C1613 1.524 . S
C1612 C1626 1.377 . S
C1613 C1612 1.524 . S
C1613 C1614 1.397 . S
C1613 C1618 1.363 . S
C1614 H1591 0.950 . S
C1614 C1613 1.397 . S
C1614 C1615 1.334 . S
C1615 H1592 0.950 . S
C1615 C1614 1.334 . S
C1615 C1616 1.287 . S
C1616 C1615 1.287 . S
C1616 C1617 1.524 . S
C1616 H1635 0.913 . S
C1617 H1593 0.950 . S
C1617 C1616 1.524 . S
C1617 C1618 1.415 . S
C1618 H1594 0.950 . S
C1618 C1613 1.363 . S
C1618 C1617 1.415 . S
C1619 H1595 0.951 . S
C1619 C1620 1.366 . S
C1619 C1621 1.388 . S
C1620 C1619 1.366 . S
C1620 C1624 1.385 . S
C1621 H1596 0.951 . S
C1621 C1619 1.388 . S
C1621 C1622 1.366 . S
C1622 C1621 1.366 . S
C1622 C1623 1.414 . S
C1622 C1625 1.499 . S
C1623 H1597 0.950 . S
C1623 C1622 1.414 . S
C1623 C1624 1.374 . S
C1624 H1598 0.950 . S
C1624 C1620 1.385 . S
C1624 C1623 1.374 . S
C1625 C1622 1.499 . S
C1625 C1626 1.373 . S
C1625 C1627 1.389 . S
C1626 H1599 0.950 . S
C1626 C1612 1.377 . S
C1626 C1625 1.373 . S
C1627 C1611 1.377 . S
C1627 C1625 1.389 . S
C1627 C1628 1.524 1_565 S
C1628 C1627 1.524 1_545 S
C1628 C1629 1.397 . S
C1628 C1633 1.363 . S
C1629 H1600 0.950 1_545 S
C1629 C1628 1.397 . S
C1629 C1630 1.334 . S
C1630 H1601 0.950 . S
C1630 C1629 1.334 . S
C1630 C1631 1.287 . S
C1631 C1630 1.287 . S
C1631 C1632 1.524 . S
C1631 H1634 0.999 . S
C1632 H1602 0.950 . S
C1632 C1631 1.524 . S
C1632 C1633 1.415 . S
C1633 H1603 0.950 . S
C1633 C1628 1.363 . S
C1633 C1632 1.415 . S
H1634 C1631 0.999 . S
H1635 C1616 0.913 . S
H1636 C1654 0.951 . S
H1637 C1656 0.951 . S
H1638 C1658 0.950 . S
H1639 C1659 0.950 . S
H1640 C1661 0.950 . S
H1641 C1664 0.950 . S
H1642 C1665 0.950 . S
H1643 C1667 0.950 . S
H1644 C1668 0.950 . S
H1645 C1669 0.951 . S
H1646 C1671 0.951 . S
H1647 C1673 0.950 . S
H1648 C1674 0.950 . S
H1649 C1676 0.950 . S
H1650 C1679 0.950 . S
H1651 C1680 0.950 . S
H1652 C1682 0.950 . S
H1653 C1683 0.950 . S
C1654 H1636 0.951 . S
C1654 C1655 1.366 . S
C1654 C1656 1.388 . S
C1655 C1654 1.366 . S
C1655 C1659 1.385 . S
C1656 H1637 0.951 . S
C1656 C1654 1.388 . S
C1656 C1657 1.366 . S
C1657 C1656 1.366 . S
C1657 C1658 1.414 . S
C1657 C1660 1.499 . S
C1658 H1638 0.950 . S
C1658 C1657 1.414 . S
C1658 C1659 1.374 . S
C1659 H1639 0.950 . S
C1659 C1655 1.385 . S
C1659 C1658 1.374 . S
C1660 C1657 1.499 . S
C1660 C1661 1.373 . S
C1660 C1662 1.389 . S
C1661 H1640 0.950 . S
C1661 C1660 1.373 . S
C1661 C1677 1.377 . S
C1662 C1660 1.389 . S
C1662 C1663 1.524 . S
C1662 C1676 1.377 . S
C1663 C1662 1.524 . S
C1663 C1664 1.397 . S
C1663 C1668 1.363 . S
C1664 H1641 0.950 . S
C1664 C1663 1.397 . S
C1664 C1665 1.334 . S
C1665 H1642 0.950 . S
C1665 C1664 1.334 . S
C1665 C1666 1.287 . S
C1666 C1665 1.287 . S
C1666 C1667 1.524 . S
C1666 H1685 0.913 . S
C1667 H1643 0.950 . S
C1667 C1666 1.524 . S
C1667 C1668 1.415 . S
C1668 H1644 0.950 . S
C1668 C1663 1.363 . S
C1668 C1667 1.415 . S
C1669 H1645 0.951 . S
C1669 C1670 1.366 . S
C1669 C1671 1.388 . S
C1670 C1669 1.366 . S
C1670 C1674 1.385 . S
C1671 H1646 0.951 . S
C1671 C1669 1.388 . S
C1671 C1672 1.366 . S
C1672 C1671 1.366 . S
C1672 C1673 1.414 . S
C1672 C1675 1.499 . S
C1673 H1647 0.950 . S
C1673 C1672 1.414 . S
C1673 C1674 1.374 . S
C1674 H1648 0.950 . S
C1674 C1670 1.385 . S
C1674 C1673 1.374 . S
C1675 C1672 1.499 . S
C1675 C1676 1.373 . S
C1675 C1677 1.389 . S
C1676 H1649 0.950 . S
C1676 C1662 1.377 . S
C1676 C1675 1.373 . S
C1677 C1661 1.377 . S
C1677 C1675 1.389 . S
C1677 C1678 1.524 . S
C1678 C1677 1.524 . S
C1678 C1679 1.397 . S
C1678 C1683 1.363 . S
C1679 H1650 0.950 . S
C1679 C1678 1.397 . S
C1679 C1680 1.334 . S
C1680 H1651 0.950 . S
C1680 C1679 1.334 . S
C1680 C1681 1.287 . S
C1681 C1680 1.287 . S
C1681 C1682 1.524 . S
C1681 H1684 0.999 . S
C1682 H1652 0.950 . S
C1682 C1681 1.524 . S
C1682 C1683 1.415 . S
C1683 H1653 0.950 . S
C1683 C1678 1.363 . S
C1683 C1682 1.415 . S
H1684 C1681 0.999 . S
H1685 C1666 0.913 . S
H1686 C1704 0.951 . S
H1687 C1706 0.951 . S
H1688 C1708 0.950 . S
H1689 C1709 0.950 . S
H1690 C1711 0.950 . S
H1691 C1714 0.950 . S
H1692 C1715 0.950 1_545 S
H1693 C1717 0.950 . S
H1694 C1718 0.950 . S
H1695 C1719 0.951 . S
H1696 C1721 0.951 . S
H1697 C1723 0.950 . S
H1698 C1724 0.950 . S
H1699 C1726 0.950 1_565 S
H1700 C1729 0.950 1_554 S
H1701 C1730 0.950 . S
H1702 C1732 0.950 . S
H1703 C1733 0.950 . S
C1704 H1686 0.951 . S
C1704 C1705 1.366 . S
C1704 C1706 1.388 . S
C1705 C1704 1.366 . S
C1705 C1709 1.385 . S
C1706 H1687 0.951 . S
C1706 C1704 1.388 . S
C1706 C1707 1.366 . S
C1707 C1706 1.366 . S
C1707 C1708 1.414 . S
C1707 C1710 1.499 . S
C1708 H1688 0.950 . S
C1708 C1707 1.414 . S
C1708 C1709 1.374 . S
C1709 H1689 0.950 . S
C1709 C1705 1.385 . S
C1709 C1708 1.374 . S
C1710 C1707 1.499 . S
C1710 C1711 1.373 . S
C1710 C1712 1.389 . S
C1711 H1690 0.950 . S
C1711 C1710 1.373 . S
C1711 C1727 1.377 . S
C1712 C1710 1.389 . S
C1712 C1713 1.515 1_545 S
C1712 C1726 1.377 . S
C1713 C1712 1.515 1_565 S
C1713 C1714 1.390 1_565 S
C1713 C1718 1.379 . S
C1714 H1691 0.950 . S
C1714 C1713 1.390 1_545 S
C1714 C1715 1.334 1_545 S
C1715 H1692 0.950 1_565 S
C1715 C1714 1.334 1_565 S
C1715 C1716 1.287 . S
C1716 C1715 1.287 . S
C1716 C1717 1.524 . S
C1716 H1735 0.913 . S
C1717 H1693 0.950 . S
C1717 C1716 1.524 . S
C1717 C1718 1.415 . S
C1718 H1694 0.950 . S
C1718 C1713 1.379 . S
C1718 C1717 1.415 . S
C1719 H1695 0.951 . S
C1719 C1720 1.366 1_545 S
C1719 C1721 1.388 1_556 S
C1720 C1719 1.366 1_565 S
C1720 C1724 1.385 . S
C1721 H1696 0.951 . S
C1721 C1719 1.388 1_554 S
C1721 C1722 1.366 . S
C1722 C1721 1.366 . S
C1722 C1723 1.414 1_545 S
C1722 C1725 1.499 . S
C1723 H1697 0.950 . S
C1723 C1722 1.414 1_565 S
C1723 C1724 1.374 1_554 S
C1724 H1698 0.950 . S
C1724 C1720 1.385 . S
C1724 C1723 1.374 1_556 S
C1725 C1722 1.499 . S
C1725 C1726 1.373 . S
C1725 C1727 1.389 . S
C1726 H1699 0.950 1_545 S
C1726 C1712 1.377 . S
C1726 C1725 1.373 . S
C1727 C1711 1.377 . S
C1727 C1725 1.389 . S
C1727 C1728 1.524 . S
C1728 C1727 1.524 . S
C1728 C1729 1.397 1_554 S
C1728 C1733 1.363 . S
C1729 H1700 0.950 1_556 S
C1729 C1728 1.397 1_556 S
C1729 C1730 1.334 . S
C1730 H1701 0.950 . S
C1730 C1729 1.334 . S
C1730 C1731 1.287 . S
C1731 C1730 1.287 . S
C1731 C1732 1.524 . S
C1731 H1734 0.999 . S
C1732 H1702 0.950 . S
C1732 C1731 1.524 . S
C1732 C1733 1.415 1_556 S
C1733 H1703 0.950 . S
C1733 C1728 1.363 . S
C1733 C1732 1.415 1_554 S
H1734 C1731 0.999 . S
H1735 C1716 0.913 . S
H1736 C1754 0.951 . S
H1737 C1756 0.951 . S
H1738 C1758 0.950 . S
H1739 C1759 0.950 . S
H1740 C1761 0.950 . S
H1741 C1764 0.950 . S
H1742 C1765 0.950 . S
H1743 C1767 0.950 . S
H1744 C1768 0.950 . S
H1745 C1769 0.951 . S
H1746 C1771 0.951 . S
H1747 C1773 0.950 . S
H1748 C1774 0.950 . S
H1749 C1776 0.950 . S
H1750 C1779 0.950 . S
H1751 C1780 0.950 . S
H1752 C1782 0.950 . S
H1753 C1783 0.950 . S
C1754 H1736 0.951 . S
C1754 C1755 1.366 . S
C1754 C1756 1.388 . S
C1755 C1754 1.366 . S
C1755 C1759 1.385 . S
C1756 H1737 0.951 . S
C1756 C1754 1.388 . S
C1756 C1757 1.366 . S
C1757 C1756 1.366 . S
C1757 C1758 1.414 . S
C1757 C1760 1.499 . S
C1758 H1738 0.950 . S
C1758 C1757 1.414 . S
C1758 C1759 1.374 . S
C1759 H1739 0.950 . S
C1759 C1755 1.385 . S
C1759 C1758 1.374 . S
C1760 C1757 1.499 . S
C1760 C1761 1.373 . S
C1760 C1762 1.389 . S
C1761 H1740 0.950 . S
C1761 C1760 1.373 . S
C1761 C1777 1.377 . S
C1762 C1760 1.389 . S
C1762 C1763 1.524 . S
C1762 C1776 1.377 . S
C1763 C1762 1.524 . S
C1763 C1764 1.397 . S
C1763 C1768 1.363 . S
C1764 H1741 0.950 . S
C1764 C1763 1.397 . S
C1764 C1765 1.334 . S
C1765 H1742 0.950 . S
C1765 C1764 1.334 . S
C1765 C1766 1.287 . S
C1766 C1765 1.287 . S
C1766 C1767 1.524 . S
C1766 H1785 0.913 . S
C1767 H1743 0.950 . S
C1767 C1766 1.524 . S
C1767 C1768 1.415 . S
C1768 H1744 0.950 . S
C1768 C1763 1.363 . S
C1768 C1767 1.415 . S
C1769 H1745 0.951 . S
C1769 C1770 1.366 . S
C1769 C1771 1.388 . S
C1770 C1769 1.366 . S
C1770 C1774 1.385 . S
C1771 H1746 0.951 . S
C1771 C1769 1.388 . S
C1771 C1772 1.366 . S
C1772 C1771 1.366 . S
C1772 C1773 1.414 . S
C1772 C1775 1.499 . S
C1773 H1747 0.950 . S
C1773 C1772 1.414 . S
C1773 C1774 1.374 . S
C1774 H1748 0.950 . S
C1774 C1770 1.385 . S
C1774 C1773 1.374 . S
C1775 C1772 1.499 . S
C1775 C1776 1.373 . S
C1775 C1777 1.389 . S
C1776 H1749 0.950 . S
C1776 C1762 1.377 . S
C1776 C1775 1.373 . S
C1777 C1761 1.377 . S
C1777 C1775 1.389 . S
C1777 C1778 1.524 . S
C1778 C1777 1.524 . S
C1778 C1779 1.397 . S
C1778 C1783 1.363 . S
C1779 H1750 0.950 . S
C1779 C1778 1.397 . S
C1779 C1780 1.334 . S
C1780 H1751 0.950 . S
C1780 C1779 1.334 . S
C1780 C1781 1.287 . S
C1781 C1780 1.287 . S
C1781 C1782 1.524 . S
C1781 H1784 0.999 . S
C1782 H1752 0.950 . S
C1782 C1781 1.524 . S
C1782 C1783 1.415 . S
C1783 H1753 0.950 . S
C1783 C1778 1.363 . S
C1783 C1782 1.415 . S
H1784 C1781 0.999 . S
H1785 C1766 0.913 . S
H1786 C1804 0.951 . S
H1787 C1806 0.951 . S
H1788 C1808 0.950 . S
H1789 C1809 0.950 . S
H1790 C1811 0.950 . S
H1791 C1814 0.949 1_556 S
H1792 C1815 0.950 . S
H1793 C1817 0.950 . S
H1794 C1818 0.950 . S
H1795 C1819 0.951 . S
H1796 C1821 0.951 . S
H1797 C1823 0.950 . S
H1798 C1824 0.950 . S
H1799 C1826 0.950 . S
H1800 C1829 0.950 . S
H1801 C1830 0.950 . S
H1802 C1832 0.950 . S
H1803 C1833 0.950 . S
C1804 H1786 0.951 . S
C1804 C1805 1.366 . S
C1804 C1806 1.388 1_554 S
C1805 C1804 1.366 . S
C1805 C1809 1.385 . S
C1806 H1787 0.951 . S
C1806 C1804 1.388 1_556 S
C1806 C1807 1.366 . S
C1807 C1806 1.366 . S
C1807 C1808 1.414 . S
C1807 C1810 1.499 . S
C1808 H1788 0.950 . S
C1808 C1807 1.414 . S
C1808 C1809 1.374 1_556 S
C1809 H1789 0.950 . S
C1809 C1805 1.385 . S
C1809 C1808 1.374 1_554 S
C1810 C1807 1.499 . S
C1810 C1811 1.373 . S
C1810 C1812 1.389 . S
C1811 H1790 0.950 . S
C1811 C1810 1.373 . S
C1811 C1827 1.377 . S
C1812 C1810 1.389 . S
C1812 C1813 1.524 . S
C1812 C1826 1.377 . S
C1813 C1812 1.524 . S
C1813 C1814 1.397 1_556 S
C1813 C1818 1.363 . S
C1814 H1791 0.949 1_554 S
C1814 C1813 1.397 1_554 S
C1814 C1815 1.334 . S
C1815 H1792 0.950 . S
C1815 C1814 1.334 . S
C1815 C1816 1.287 . S
C1816 C1815 1.287 . S
C1816 C1817 1.524 . S
C1816 H1835 0.913 . S
C1817 H1793 0.950 . S
C1817 C1816 1.524 . S
C1817 C1818 1.415 1_554 S
C1818 H1794 0.950 . S
C1818 C1813 1.363 . S
C1818 C1817 1.415 1_556 S
C1819 H1795 0.951 . S
C1819 C1820 1.366 . S
C1819 C1821 1.388 . S
C1820 C1819 1.366 . S
C1820 C1824 1.385 . S
C1821 H1796 0.951 . S
C1821 C1819 1.388 . S
C1821 C1822 1.366 . S
C1822 C1821 1.366 . S
C1822 C1823 1.414 . S
C1822 C1825 1.499 . S
C1823 H1797 0.950 . S
C1823 C1822 1.414 . S
C1823 C1824 1.374 . S
C1824 H1798 0.950 . S
C1824 C1820 1.385 . S
C1824 C1823 1.374 . S
C1825 C1822 1.499 . S
C1825 C1826 1.373 . S
C1825 C1827 1.389 . S
C1826 H1799 0.950 . S
C1826 C1812 1.377 . S
C1826 C1825 1.373 . S
C1827 C1811 1.377 . S
C1827 C1825 1.389 . S
C1827 C1828 1.524 . S
C1828 C1827 1.524 . S
C1828 C1829 1.397 . S
C1828 C1833 1.363 . S
C1829 H1800 0.950 . S
C1829 C1828 1.397 . S
C1829 C1830 1.334 . S
C1830 H1801 0.950 . S
C1830 C1829 1.334 . S
C1830 C1831 1.287 . S
C1831 C1830 1.287 . S
C1831 C1832 1.524 . S
C1831 H1834 0.999 . S
C1832 H1802 0.950 . S
C1832 C1831 1.524 . S
C1832 C1833 1.415 . S
C1833 H1803 0.950 . S
C1833 C1828 1.363 . S
C1833 C1832 1.415 . S
H1834 C1831 0.999 . S
H1835 C1816 0.913 . S
H1836 C1854 0.951 . S
H1837 C1856 0.951 . S
H1838 C1858 0.950 . S
H1839 C1859 0.950 . S
H1840 C1861 0.950 . S
H1841 C1864 0.950 . S
H1842 C1865 0.950 . S
H1843 C1867 0.950 . S
H1844 C1868 0.950 . S
H1845 C1869 0.951 . S
H1846 C1871 0.951 . S
H1847 C1873 0.950 . S
H1848 C1874 0.950 . S
H1849 C1876 0.950 . S
H1850 C1879 0.950 . S
H1851 C1880 0.950 . S
H1852 C1882 0.950 . S
H1853 C1883 0.950 . S
C1854 H1836 0.951 . S
C1854 C1855 1.366 . S
C1854 C1856 1.388 . S
C1855 C1854 1.366 . S
C1855 C1859 1.385 . S
C1856 H1837 0.951 . S
C1856 C1854 1.388 . S
C1856 C1857 1.366 . S
C1857 C1856 1.366 . S
C1857 C1858 1.414 . S
C1857 C1860 1.499 . S
C1858 H1838 0.950 . S
C1858 C1857 1.414 . S
C1858 C1859 1.374 . S
C1859 H1839 0.950 . S
C1859 C1855 1.385 . S
C1859 C1858 1.374 . S
C1860 C1857 1.499 . S
C1860 C1861 1.373 . S
C1860 C1862 1.389 . S
C1861 H1840 0.950 . S
C1861 C1860 1.373 . S
C1861 C1877 1.377 . S
C1862 C1860 1.389 . S
C1862 C1863 1.524 . S
C1862 C1876 1.377 . S
C1863 C1862 1.524 . S
C1863 C1864 1.397 . S
C1863 C1868 1.363 . S
C1864 H1841 0.950 . S
C1864 C1863 1.397 . S
C1864 C1865 1.334 . S
C1865 H1842 0.950 . S
C1865 C1864 1.334 . S
C1865 C1866 1.287 . S
C1866 C1865 1.287 . S
C1866 C1867 1.524 . S
C1866 H1885 0.913 . S
C1867 H1843 0.950 . S
C1867 C1866 1.524 . S
C1867 C1868 1.415 . S
C1868 H1844 0.950 . S
C1868 C1863 1.363 . S
C1868 C1867 1.415 . S
C1869 H1845 0.951 . S
C1869 C1870 1.366 . S
C1869 C1871 1.388 . S
C1870 C1869 1.366 . S
C1870 C1874 1.385 . S
C1871 H1846 0.951 . S
C1871 C1869 1.388 . S
C1871 C1872 1.366 . S
C1872 C1871 1.366 . S
C1872 C1873 1.414 . S
C1872 C1875 1.499 . S
C1873 H1847 0.950 . S
C1873 C1872 1.414 . S
C1873 C1874 1.374 . S
C1874 H1848 0.950 . S
C1874 C1870 1.385 . S
C1874 C1873 1.374 . S
C1875 C1872 1.499 . S
C1875 C1876 1.373 . S
C1875 C1877 1.389 . S
C1876 H1849 0.950 . S
C1876 C1862 1.377 . S
C1876 C1875 1.373 . S
C1877 C1861 1.377 . S
C1877 C1875 1.389 . S
C1877 C1878 1.524 . S
C1878 C1877 1.524 . S
C1878 C1879 1.397 . S
C1878 C1883 1.363 . S
C1879 H1850 0.950 . S
C1879 C1878 1.397 . S
C1879 C1880 1.334 . S
C1880 H1851 0.950 . S
C1880 C1879 1.334 . S
C1880 C1881 1.287 . S
C1881 C1880 1.287 . S
C1881 C1882 1.524 . S
C1881 H1884 0.999 . S
C1882 H1852 0.950 . S
C1882 C1881 1.524 . S
C1882 C1883 1.415 . S
C1883 H1853 0.950 . S
C1883 C1878 1.363 . S
C1883 C1882 1.415 . S
H1884 C1881 0.999 . S
H1885 C1866 0.913 . S
H1886 C1904 0.951 . S
H1887 C1906 0.951 . S
H1888 C1908 0.950 . S
H1889 C1909 0.950 . S
H1890 C1911 0.950 . S
H1891 C1914 0.950 . S
H1892 C1915 0.950 . S
H1893 C1917 0.950 . S
H1894 C1918 0.950 . S
H1895 C1919 0.951 . S
H1896 C1921 0.951 . S
H1897 C1923 0.950 . S
H1898 C1924 0.950 . S
H1899 C1926 0.950 . S
H1900 C1929 0.950 . S
H1901 C1930 0.950 . S
H1902 C1932 0.950 . S
H1903 C1933 0.950 . S
C1904 H1886 0.951 . S
C1904 C1905 1.366 . S
C1904 C1906 1.388 . S
C1905 C1904 1.366 . S
C1905 C1909 1.385 . S
C1906 H1887 0.951 . S
C1906 C1904 1.388 . S
C1906 C1907 1.366 . S
C1907 C1906 1.366 . S
C1907 C1908 1.414 . S
C1907 C1910 1.499 . S
C1908 H1888 0.950 . S
C1908 C1907 1.414 . S
C1908 C1909 1.374 . S
C1909 H1889 0.950 . S
C1909 C1905 1.385 . S
C1909 C1908 1.374 . S
C1910 C1907 1.499 . S
C1910 C1911 1.373 . S
C1910 C1912 1.389 . S
C1911 H1890 0.950 . S
C1911 C1910 1.373 . S
C1911 C1927 1.377 . S
C1912 C1910 1.389 . S
C1912 C1913 1.524 . S
C1912 C1926 1.377 . S
C1913 C1912 1.524 . S
C1913 C1914 1.397 . S
C1913 C1918 1.363 . S
C1914 H1891 0.950 . S
C1914 C1913 1.397 . S
C1914 C1915 1.334 . S
C1915 H1892 0.950 . S
C1915 C1914 1.334 . S
C1915 C1916 1.287 . S
C1916 C1915 1.287 . S
C1916 C1917 1.524 . S
C1916 H1935 0.913 . S
C1917 H1893 0.950 . S
C1917 C1916 1.524 . S
C1917 C1918 1.415 . S
C1918 H1894 0.950 . S
C1918 C1913 1.363 . S
C1918 C1917 1.415 . S
C1919 H1895 0.951 . S
C1919 C1920 1.366 . S
C1919 C1921 1.388 . S
C1920 C1919 1.366 . S
C1920 C1924 1.385 . S
C1921 H1896 0.951 . S
C1921 C1919 1.388 . S
C1921 C1922 1.366 . S
C1922 C1921 1.366 . S
C1922 C1923 1.414 . S
C1922 C1925 1.499 . S
C1923 H1897 0.950 . S
C1923 C1922 1.414 . S
C1923 C1924 1.374 . S
C1924 H1898 0.950 . S
C1924 C1920 1.385 . S
C1924 C1923 1.374 . S
C1925 C1922 1.499 . S
C1925 C1926 1.373 . S
C1925 C1927 1.389 . S
C1926 H1899 0.950 . S
C1926 C1912 1.377 . S
C1926 C1925 1.373 . S
C1927 C1911 1.377 . S
C1927 C1925 1.389 . S
C1927 C1928 1.524 . S
C1928 C1927 1.524 . S
C1928 C1929 1.397 . S
C1928 C1933 1.363 . S
C1929 H1900 0.950 . S
C1929 C1928 1.397 . S
C1929 C1930 1.334 . S
C1930 H1901 0.950 . S
C1930 C1929 1.334 . S
C1930 C1931 1.287 . S
C1931 C1930 1.287 . S
C1931 C1932 1.524 . S
C1931 H1934 0.999 . S
C1932 H1902 0.950 . S
C1932 C1931 1.524 . S
C1932 C1933 1.415 . S
C1933 H1903 0.950 . S
C1933 C1928 1.363 . S
C1933 C1932 1.415 . S
H1934 C1931 0.999 . S
H1935 C1916 0.913 . S
H1936 C1954 0.951 . S
H1937 C1956 0.951 . S
H1938 C1958 0.950 . S
H1939 C1959 0.950 . S
H1940 C1961 0.950 . S
H1941 C1964 0.950 . S
H1942 C1965 0.950 . S
H1943 C1967 0.950 . S
H1944 C1968 0.950 . S
H1945 C1969 0.951 . S
H1946 C1971 0.951 . S
H1947 C1973 0.950 . S
H1948 C1974 0.950 . S
H1949 C1976 0.950 . S
H1950 C1979 0.950 . S
H1951 C1980 0.950 . S
H1952 C1982 0.950 . S
H1953 C1983 0.950 . S
C1954 H1936 0.951 . S
C1954 C1955 1.366 . S
C1954 C1956 1.388 . S
C1955 C1954 1.366 . S
C1955 C1959 1.385 . S
C1956 H1937 0.951 . S
C1956 C1954 1.388 . S
C1956 C1957 1.366 . S
C1957 C1956 1.366 . S
C1957 C1958 1.414 . S
C1957 C1960 1.499 . S
C1958 H1938 0.950 . S
C1958 C1957 1.414 . S
C1958 C1959 1.374 . S
C1959 H1939 0.950 . S
C1959 C1955 1.385 . S
C1959 C1958 1.374 . S
C1960 C1957 1.499 . S
C1960 C1961 1.373 . S
C1960 C1962 1.389 . S
C1961 H1940 0.950 . S
C1961 C1960 1.373 . S
C1961 C1977 1.377 . S
C1962 C1960 1.389 . S
C1962 C1963 1.524 . S
C1962 C1976 1.377 . S
C1963 C1962 1.524 . S
C1963 C1964 1.397 . S
C1963 C1968 1.363 . S
C1964 H1941 0.950 . S
C1964 C1963 1.397 . S
C1964 C1965 1.334 . S
C1965 H1942 0.950 . S
C1965 C1964 1.334 . S
C1965 C1966 1.287 . S
C1966 C1965 1.287 . S
C1966 C1967 1.524 . S
C1966 H1985 0.913 . S
C1967 H1943 0.950 . S
C1967 C1966 1.524 . S
C1967 C1968 1.415 . S
C1968 H1944 0.950 . S
C1968 C1963 1.363 . S
C1968 C1967 1.415 . S
C1969 H1945 0.951 . S
C1969 C1970 1.366 . S
C1969 C1971 1.388 . S
C1970 C1969 1.366 . S
C1970 C1974 1.385 . S
C1971 H1946 0.951 . S
C1971 C1969 1.388 . S
C1971 C1972 1.366 . S
C1972 C1971 1.366 . S
C1972 C1973 1.414 . S
C1972 C1975 1.499 . S
C1973 H1947 0.950 . S
C1973 C1972 1.414 . S
C1973 C1974 1.374 . S
C1974 H1948 0.950 . S
C1974 C1970 1.385 . S
C1974 C1973 1.374 . S
C1975 C1972 1.499 . S
C1975 C1976 1.373 . S
C1975 C1977 1.389 . S
C1976 H1949 0.950 . S
C1976 C1962 1.377 . S
C1976 C1975 1.373 . S
C1977 C1961 1.377 . S
C1977 C1975 1.389 . S
C1977 C1978 1.524 . S
C1978 C1977 1.524 . S
C1978 C1979 1.397 . S
C1978 C1983 1.363 . S
C1979 H1950 0.950 . S
C1979 C1978 1.397 . S
C1979 C1980 1.334 . S
C1980 H1951 0.950 . S
C1980 C1979 1.334 . S
C1980 C1981 1.287 . S
C1981 C1980 1.287 . S
C1981 C1982 1.524 . S
C1981 H1984 0.999 . S
C1982 H1952 0.950 . S
C1982 C1981 1.524 . S
C1982 C1983 1.415 . S
C1983 H1953 0.950 . S
C1983 C1978 1.363 . S
C1983 C1982 1.415 . S
H1984 C1981 0.999 . S
H1985 C1966 0.913 . S
H1986 C2004 0.951 . S
H1987 C2006 0.953 . S
H1988 C2008 0.950 . S
H1989 C2009 0.950 1_545 S
H1990 C2011 0.950 1_655 S
H1991 C2014 0.950 . S
H1992 C2015 0.950 . S
H1993 C2017 0.950 . S
H1994 C2018 0.950 . S
H1995 C2019 0.951 . S
H1996 C2021 0.951 . S
H1997 C2023 0.950 . S
H1998 C2024 0.950 . S
H1999 C2026 0.950 . S
H2000 C2029 0.950 . S
H2001 C2030 0.950 . S
H2002 C2032 0.950 . S
H2003 C2033 0.950 . S
C2004 H1986 0.951 . S
C2004 C2005 1.366 1_455 S
C2004 C2006 1.418 . S
C2005 C2004 1.366 1_655 S
C2005 C2009 1.382 . S
C2006 H1987 0.953 . S
C2006 C2004 1.418 . S
C2006 C2007 1.334 1_565 S
C2007 C2006 1.334 1_545 S
C2007 C2008 1.414 1_455 S
C2007 C2010 1.499 . S
C2008 H1988 0.950 . S
C2008 C2007 1.414 1_655 S
C2008 C2009 1.376 1_545 S
C2009 H1989 0.950 1_565 S
C2009 C2005 1.382 . S
C2009 C2008 1.376 1_565 S
C2010 C2007 1.499 . S
C2010 C2011 1.373 . S
C2010 C2012 1.389 . S
C2011 H1990 0.950 1_455 S
C2011 C2010 1.373 . S
C2011 C2027 1.377 . S
C2012 C2010 1.389 . S
C2012 C2013 1.524 . S
C2012 C2026 1.377 . S
C2013 C2012 1.524 . S
C2013 C2014 1.397 . S
C2013 C2018 1.363 . S
C2014 H1991 0.950 . S
C2014 C2013 1.397 . S
C2014 C2015 1.334 . S
C2015 H1992 0.950 . S
C2015 C2014 1.334 . S
C2015 C2016 1.287 . S
C2016 C2015 1.287 . S
C2016 C2017 1.524 . S
C2016 H2035 0.913 . S
C2017 H1993 0.950 . S
C2017 C2016 1.524 . S
C2017 C2018 1.415 . S
C2018 H1994 0.950 . S
C2018 C2013 1.363 . S
C2018 C2017 1.415 . S
C2019 H1995 0.951 . S
C2019 C2020 1.366 . S
C2019 C2021 1.388 . S
C2020 C2019 1.366 . S
C2020 C2024 1.385 . S
C2021 H1996 0.951 . S
C2021 C2019 1.388 . S
C2021 C2022 1.366 . S
C2022 C2021 1.366 . S
C2022 C2023 1.414 . S
C2022 C2025 1.499 . S
C2023 H1997 0.950 . S
C2023 C2022 1.414 . S
C2023 C2024 1.374 . S
C2024 H1998 0.950 . S
C2024 C2020 1.385 . S
C2024 C2023 1.374 . S
C2025 C2022 1.499 . S
C2025 C2026 1.373 . S
C2025 C2027 1.389 . S
C2026 H1999 0.950 . S
C2026 C2012 1.377 . S
C2026 C2025 1.373 . S
C2027 C2011 1.377 . S
C2027 C2025 1.389 . S
C2027 C2028 1.524 . S
C2028 C2027 1.524 . S
C2028 C2029 1.397 . S
C2028 C2033 1.363 1_455 S
C2029 H2000 0.950 . S
C2029 C2028 1.397 . S
C2029 C2030 1.334 . S
C2030 H2001 0.950 . S
C2030 C2029 1.334 . S
C2030 C2031 1.287 1_455 S
C2031 C2030 1.287 1_655 S
C2031 C2032 1.524 . S
C2031 H2034 0.999 . S
C2032 H2002 0.950 . S
C2032 C2031 1.524 . S
C2032 C2033 1.415 . S
C2033 H2003 0.950 . S
C2033 C2028 1.363 1_655 S
C2033 C2032 1.415 . S
H2034 C2031 0.999 . S
H2035 C2016 0.913 . S
H2036 C2054 0.951 . S
H2037 C2056 0.951 . S
H2038 C2058 0.950 . S
H2039 C2059 0.950 . S
H2040 C2061 0.950 . S
H2041 C2064 0.950 . S
H2042 C2065 0.950 . S
H2043 C2067 0.950 . S
H2044 C2068 0.950 . S
H2045 C2069 0.951 . S
H2046 C2071 0.951 . S
H2047 C2073 0.950 . S
H2048 C2074 0.950 . S
H2049 C2076 0.950 . S
H2050 C2079 0.950 . S
H2051 C2080 0.950 . S
H2052 C2082 0.950 . S
H2053 C2083 0.950 . S
C2054 H2036 0.951 . S
C2054 C2055 1.366 . S
C2054 C2056 1.388 . S
C2055 C2054 1.366 . S
C2055 C2059 1.385 . S
C2056 H2037 0.951 . S
C2056 C2054 1.388 . S
C2056 C2057 1.366 . S
C2057 C2056 1.366 . S
C2057 C2058 1.414 . S
C2057 C2060 1.499 . S
C2058 H2038 0.950 . S
C2058 C2057 1.414 . S
C2058 C2059 1.374 . S
C2059 H2039 0.950 . S
C2059 C2055 1.385 . S
C2059 C2058 1.374 . S
C2060 C2057 1.499 . S
C2060 C2061 1.373 . S
C2060 C2062 1.389 . S
C2061 H2040 0.950 . S
C2061 C2060 1.373 . S
C2061 C2077 1.377 . S
C2062 C2060 1.389 . S
C2062 C2063 1.524 . S
C2062 C2076 1.377 . S
C2063 C2062 1.524 . S
C2063 C2064 1.397 . S
C2063 C2068 1.363 . S
C2064 H2041 0.950 . S
C2064 C2063 1.397 . S
C2064 C2065 1.334 . S
C2065 H2042 0.950 . S
C2065 C2064 1.334 . S
C2065 C2066 1.287 . S
C2066 C2065 1.287 . S
C2066 C2067 1.524 . S
C2066 H2085 0.913 . S
C2067 H2043 0.950 . S
C2067 C2066 1.524 . S
C2067 C2068 1.415 . S
C2068 H2044 0.950 . S
C2068 C2063 1.363 . S
C2068 C2067 1.415 . S
C2069 H2045 0.951 . S
C2069 C2070 1.366 . S
C2069 C2071 1.388 . S
C2070 C2069 1.366 . S
C2070 C2074 1.385 . S
C2071 H2046 0.951 . S
C2071 C2069 1.388 . S
C2071 C2072 1.366 . S
C2072 C2071 1.366 . S
C2072 C2073 1.414 . S
C2072 C2075 1.499 . S
C2073 H2047 0.950 . S
C2073 C2072 1.414 . S
C2073 C2074 1.374 . S
C2074 H2048 0.950 . S
C2074 C2070 1.385 . S
C2074 C2073 1.374 . S
C2075 C2072 1.499 . S
C2075 C2076 1.373 . S
C2075 C2077 1.389 . S
C2076 H2049 0.950 . S
C2076 C2062 1.377 . S
C2076 C2075 1.373 . S
C2077 C2061 1.377 . S
C2077 C2075 1.389 . S
C2077 C2078 1.524 . S
C2078 C2077 1.524 . S
C2078 C2079 1.397 . S
C2078 C2083 1.363 . S
C2079 H2050 0.950 . S
C2079 C2078 1.397 . S
C2079 C2080 1.334 . S
C2080 H2051 0.950 . S
C2080 C2079 1.334 . S
C2080 C2081 1.287 . S
C2081 C2080 1.287 . S
C2081 C2082 1.524 . S
C2081 H2084 0.999 . S
C2082 H2052 0.950 . S
C2082 C2081 1.524 . S
C2082 C2083 1.415 . S
C2083 H2053 0.950 . S
C2083 C2078 1.363 . S
C2083 C2082 1.415 . S
H2084 C2081 0.999 . S
H2085 C2066 0.913 . S
H2086 C2104 0.957 . S
H2087 C2106 0.951 . S
H2088 C2108 0.950 . S
H2089 C2109 0.950 . S
H2090 C2111 0.950 . S
H2091 C2114 0.950 . S
H2092 C2115 0.950 . S
H2093 C2117 0.950 . S
H2094 C2118 0.950 . S
H2095 C2119 0.951 . S
H2096 C2121 0.951 . S
H2097 C2123 0.950 . S
H2098 C2124 0.950 . S
H2099 C2126 0.950 . S
H2100 C2129 0.950 . S
H2101 C2130 0.950 . S
H2102 C2132 0.950 . S
H2103 C2133 0.950 . S
C2104 H2086 0.957 . S
C2104 C2105 1.321 1_565 S
C2104 C2106 1.429 . S
C2105 C2104 1.321 1_545 S
C2105 C2109 1.385 . S
C2106 H2087 0.951 . S
C2106 C2104 1.429 . S
C2106 C2107 1.366 . S
C2107 C2106 1.366 . S
C2107 C2108 1.414 1_565 S
C2107 C2110 1.499 . S
C2108 H2088 0.950 . S
C2108 C2107 1.414 1_545 S
C2108 C2109 1.374 . S
C2109 H2089 0.950 . S
C2109 C2105 1.385 . S
C2109 C2108 1.374 . S
C2110 C2107 1.499 . S
C2110 C2111 1.373 . S
C2110 C2112 1.389 . S
C2111 H2090 0.950 . S
C2111 C2110 1.373 . S
C2111 C2127 1.377 . S
C2112 C2110 1.389 . S
C2112 C2113 1.524 . S
C2112 C2126 1.377 . S
C2113 C2112 1.524 . S
C2113 C2114 1.397 . S
C2113 C2118 1.363 . S
C2114 H2091 0.950 . S
C2114 C2113 1.397 . S
C2114 C2115 1.334 . S
C2115 H2092 0.950 . S
C2115 C2114 1.334 . S
C2115 C2116 1.287 . S
C2116 C2115 1.287 . S
C2116 C2117 1.524 . S
C2116 H2135 0.913 . S
C2117 H2093 0.950 . S
C2117 C2116 1.524 . S
C2117 C2118 1.415 . S
C2118 H2094 0.950 . S
C2118 C2113 1.363 . S
C2118 C2117 1.415 . S
C2119 H2095 0.951 . S
C2119 C2120 1.366 . S
C2119 C2121 1.388 . S
C2120 C2119 1.366 . S
C2120 C2124 1.385 . S
C2121 H2096 0.951 . S
C2121 C2119 1.388 . S
C2121 C2122 1.366 . S
C2122 C2121 1.366 . S
C2122 C2123 1.414 . S
C2122 C2125 1.499 . S
C2123 H2097 0.950 . S
C2123 C2122 1.414 . S
C2123 C2124 1.374 . S
C2124 H2098 0.950 . S
C2124 C2120 1.385 . S
C2124 C2123 1.374 . S
C2125 C2122 1.499 . S
C2125 C2126 1.373 . S
C2125 C2127 1.389 . S
C2126 H2099 0.950 . S
C2126 C2112 1.377 . S
C2126 C2125 1.373 . S
C2127 C2111 1.377 . S
C2127 C2125 1.389 . S
C2127 C2128 1.524 . S
C2128 C2127 1.524 . S
C2128 C2129 1.397 . S
C2128 C2133 1.363 . S
C2129 H2100 0.950 . S
C2129 C2128 1.397 . S
C2129 C2130 1.334 . S
C2130 H2101 0.950 . S
C2130 C2129 1.334 . S
C2130 C2131 1.287 . S
C2131 C2130 1.287 . S
C2131 C2132 1.524 . S
C2131 H2134 0.999 . S
C2132 H2102 0.950 . S
C2132 C2131 1.524 . S
C2132 C2133 1.415 . S
C2133 H2103 0.950 . S
C2133 C2128 1.363 . S
C2133 C2132 1.415 . S
H2134 C2131 0.999 . S
H2135 C2116 0.913 . S
H2136 C2154 0.951 . S
H2137 C2156 0.951 . S
H2138 C2158 0.950 . S
H2139 C2159 0.950 . S
H2140 C2161 0.950 . S
H2141 C2164 0.950 . S
H2142 C2165 0.950 . S
H2143 C2167 0.950 . S
H2144 C2168 0.950 . S
H2145 C2169 0.951 . S
H2146 C2171 0.951 . S
H2147 C2173 0.950 . S
H2148 C2174 0.950 . S
H2149 C2176 0.950 . S
H2150 C2179 0.950 . S
H2151 C2180 0.950 . S
H2152 C2182 0.950 . S
H2153 C2183 0.950 . S
C2154 H2136 0.951 . S
C2154 C2155 1.366 . S
C2154 C2156 1.388 . S
C2155 C2154 1.366 . S
C2155 C2159 1.385 . S
C2156 H2137 0.951 . S
C2156 C2154 1.388 . S
C2156 C2157 1.366 . S
C2157 C2156 1.366 . S
C2157 C2158 1.414 . S
C2157 C2160 1.499 . S
C2158 H2138 0.950 . S
C2158 C2157 1.414 . S
C2158 C2159 1.374 . S
C2159 H2139 0.950 . S
C2159 C2155 1.385 . S
C2159 C2158 1.374 . S
C2160 C2157 1.499 . S
C2160 C2161 1.373 . S
C2160 C2162 1.389 . S
C2161 H2140 0.950 . S
C2161 C2160 1.373 . S
C2161 C2177 1.377 . S
C2162 C2160 1.389 . S
C2162 C2163 1.524 . S
C2162 C2176 1.377 . S
C2163 C2162 1.524 . S
C2163 C2164 1.397 . S
C2163 C2168 1.363 . S
C2164 H2141 0.950 . S
C2164 C2163 1.397 . S
C2164 C2165 1.334 . S
C2165 H2142 0.950 . S
C2165 C2164 1.334 . S
C2165 C2166 1.287 . S
C2166 C2165 1.287 . S
C2166 C2167 1.524 . S
C2166 H2185 0.913 . S
C2167 H2143 0.950 . S
C2167 C2166 1.524 . S
C2167 C2168 1.415 . S
C2168 H2144 0.950 . S
C2168 C2163 1.363 . S
C2168 C2167 1.415 . S
C2169 H2145 0.951 . S
C2169 C2170 1.366 . S
C2169 C2171 1.388 . S
C2170 C2169 1.366 . S
C2170 C2174 1.385 . S
C2171 H2146 0.951 . S
C2171 C2169 1.388 . S
C2171 C2172 1.366 . S
C2172 C2171 1.366 . S
C2172 C2173 1.414 . S
C2172 C2175 1.499 . S
C2173 H2147 0.950 . S
C2173 C2172 1.414 . S
C2173 C2174 1.374 . S
C2174 H2148 0.950 . S
C2174 C2170 1.385 . S
C2174 C2173 1.374 . S
C2175 C2172 1.499 . S
C2175 C2176 1.373 . S
C2175 C2177 1.389 . S
C2176 H2149 0.950 . S
C2176 C2162 1.377 . S
C2176 C2175 1.373 . S
C2177 C2161 1.377 . S
C2177 C2175 1.389 . S
C2177 C2178 1.524 . S
C2178 C2177 1.524 . S
C2178 C2179 1.397 . S
C2178 C2183 1.363 . S
C2179 H2150 0.950 . S
C2179 C2178 1.397 . S
C2179 C2180 1.334 . S
C2180 H2151 0.950 . S
C2180 C2179 1.334 . S
C2180 C2181 1.287 . S
C2181 C2180 1.287 . S
C2181 C2182 1.524 . S
C2181 H2184 0.999 . S
C2182 H2152 0.950 . S
C2182 C2181 1.524 . S
C2182 C2183 1.415 . S
C2183 H2153 0.950 . S
C2183 C2178 1.363 . S
C2183 C2182 1.415 . S
H2184 C2181 0.999 . S
H2185 C2166 0.913 . S
H2186 C2204 0.951 . S
H2187 C2206 0.951 . S
H2188 C2208 0.950 . S
H2189 C2209 0.952 . S
H2190 C2211 0.950 . S
H2191 C2214 0.950 . S
H2192 C2215 0.950 . S
H2193 C2217 0.950 . S
H2194 C2218 0.950 . S
H2195 C2219 0.951 . S
H2196 C2221 0.951 . S
H2197 C2223 0.950 . S
H2198 C2224 0.950 . S
H2199 C2226 0.950 . S
H2200 C2229 0.950 . S
H2201 C2230 0.950 1_455 S
H2202 C2232 0.950 . S
H2203 C2233 0.950 . S
C2204 H2186 0.951 . S
C2204 C2205 1.366 . S
C2204 C2206 1.388 . S
C2205 C2204 1.366 . S
C2205 C2209 1.377 1_455 S
C2206 H2187 0.951 . S
C2206 C2204 1.388 . S
C2206 C2207 1.366 1_455 S
C2207 C2206 1.366 1_655 S
C2207 C2208 1.414 . S
C2207 C2210 1.499 . S
C2208 H2188 0.950 . S
C2208 C2207 1.414 . S
C2208 C2209 1.379 . S
C2209 H2189 0.952 . S
C2209 C2205 1.377 1_655 S
C2209 C2208 1.379 . S
C2210 C2207 1.499 . S
C2210 C2211 1.373 . S
C2210 C2212 1.389 . S
C2211 H2190 0.950 . S
C2211 C2210 1.373 . S
C2211 C2227 1.377 . S
C2212 C2210 1.389 . S
C2212 C2213 1.524 . S
C2212 C2226 1.377 . S
C2213 C2212 1.524 . S
C2213 C2214 1.397 . S
C2213 C2218 1.363 . S
C2214 H2191 0.950 . S
C2214 C2213 1.397 . S
C2214 C2215 1.334 . S
C2215 H2192 0.950 . S
C2215 C2214 1.334 . S
C2215 C2216 1.287 . S
C2216 C2215 1.287 . S
C2216 C2217 1.524 . S
C2216 H2235 0.913 . S
C2217 H2193 0.950 . S
C2217 C2216 1.524 . S
C2217 C2218 1.415 . S
C2218 H2194 0.950 . S
C2218 C2213 1.363 . S
C2218 C2217 1.415 . S
C2219 H2195 0.951 . S
C2219 C2220 1.366 . S
C2219 C2221 1.388 . S
C2220 C2219 1.366 . S
C2220 C2224 1.385 . S
C2221 H2196 0.951 . S
C2221 C2219 1.388 . S
C2221 C2222 1.366 . S
C2222 C2221 1.366 . S
C2222 C2223 1.414 . S
C2222 C2225 1.499 . S
C2223 H2197 0.950 . S
C2223 C2222 1.414 . S
C2223 C2224 1.374 . S
C2224 H2198 0.950 . S
C2224 C2220 1.385 . S
C2224 C2223 1.374 . S
C2225 C2222 1.499 . S
C2225 C2226 1.373 . S
C2225 C2227 1.389 . S
C2226 H2199 0.950 . S
C2226 C2212 1.377 . S
C2226 C2225 1.373 . S
C2227 C2211 1.377 . S
C2227 C2225 1.389 . S
C2227 C2228 1.524 . S
C2228 C2227 1.524 . S
C2228 C2229 1.397 . S
C2228 C2233 1.363 . S
C2229 H2200 0.950 . S
C2229 C2228 1.397 . S
C2229 C2230 1.334 . S
C2230 H2201 0.950 1_655 S
C2230 C2229 1.334 . S
C2230 C2231 1.287 . S
C2231 C2230 1.287 . S
C2231 C2232 1.524 . S
C2231 H2234 0.999 . S
C2232 H2202 0.950 . S
C2232 C2231 1.524 . S
C2232 C2233 1.415 . S
C2233 H2203 0.950 . S
C2233 C2228 1.363 . S
C2233 C2232 1.415 . S
H2234 C2231 0.999 . S
H2235 C2216 0.913 . S
H2236 C2254 0.951 . S
H2237 C2256 0.951 . S
H2238 C2258 0.950 . S
H2239 C2259 0.950 . S
H2240 C2261 0.950 . S
H2241 C2264 0.950 . S
H2242 C2265 0.950 . S
H2243 C2267 0.950 . S
H2244 C2268 0.950 . S
H2245 C2269 0.951 . S
H2246 C2271 0.951 . S
H2247 C2273 0.950 . S
H2248 C2274 0.950 . S
H2249 C2276 0.950 . S
H2250 C2279 0.950 . S
H2251 C2280 0.950 . S
H2252 C2282 0.950 . S
H2253 C2283 0.950 . S
C2254 H2236 0.951 . S
C2254 C2255 1.366 . S
C2254 C2256 1.388 . S
C2255 C2254 1.366 . S
C2255 C2259 1.385 . S
C2256 H2237 0.951 . S
C2256 C2254 1.388 . S
C2256 C2257 1.366 . S
C2257 C2256 1.366 . S
C2257 C2258 1.414 . S
C2257 C2260 1.499 . S
C2258 H2238 0.950 . S
C2258 C2257 1.414 . S
C2258 C2259 1.374 . S
C2259 H2239 0.950 . S
C2259 C2255 1.385 . S
C2259 C2258 1.374 . S
C2260 C2257 1.499 . S
C2260 C2261 1.373 . S
C2260 C2262 1.389 . S
C2261 H2240 0.950 . S
C2261 C2260 1.373 . S
C2261 C2277 1.377 . S
C2262 C2260 1.389 . S
C2262 C2263 1.524 . S
C2262 C2276 1.377 . S
C2263 C2262 1.524 . S
C2263 C2264 1.397 . S
C2263 C2268 1.363 . S
C2264 H2241 0.950 . S
C2264 C2263 1.397 . S
C2264 C2265 1.334 . S
C2265 H2242 0.950 . S
C2265 C2264 1.334 . S
C2265 C2266 1.287 . S
C2266 C2265 1.287 . S
C2266 C2267 1.524 . S
C2266 H2285 0.913 . S
C2267 H2243 0.950 . S
C2267 C2266 1.524 . S
C2267 C2268 1.415 . S
C2268 H2244 0.950 . S
C2268 C2263 1.363 . S
C2268 C2267 1.415 . S
C2269 H2245 0.951 . S
C2269 C2270 1.366 . S
C2269 C2271 1.388 . S
C2270 C2269 1.366 . S
C2270 C2274 1.385 . S
C2271 H2246 0.951 . S
C2271 C2269 1.388 . S
C2271 C2272 1.366 . S
C2272 C2271 1.366 . S
C2272 C2273 1.414 . S
C2272 C2275 1.499 . S
C2273 H2247 0.950 . S
C2273 C2272 1.414 . S
C2273 C2274 1.374 . S
C2274 H2248 0.950 . S
C2274 C2270 1.385 . S
C2274 C2273 1.374 . S
C2275 C2272 1.499 . S
C2275 C2276 1.373 . S
C2275 C2277 1.389 . S
C2276 H2249 0.950 . S
C2276 C2262 1.377 . S
C2276 C2275 1.373 . S
C2277 C2261 1.377 . S
C2277 C2275 1.389 . S
C2277 C2278 1.524 . S
C2278 C2277 1.524 . S
C2278 C2279 1.397 . S
C2278 C2283 1.363 . S
C2279 H2250 0.950 . S
C2279 C2278 1.397 . S
C2279 C2280 1.334 . S
C2280 H2251 0.950 . S
C2280 C2279 1.334 . S
C2280 C2281 1.287 . S
C2281 C2280 1.287 . S
C2281 C2282 1.524 . S
C2281 H2284 0.999 . S
C2282 H2252 0.950 . S
C2282 C2281 1.524 . S
C2282 C2283 1.415 . S
C2283 H2253 0.950 . S
C2283 C2278 1.363 . S
C2283 C2282 1.415 . S
H2284 C2281 0.999 . S
H2285 C2266 0.913 . S
H2286 C2304 0.951 . S
H2287 C2306 0.951 . S
H2288 C2308 0.950 . S
H2289 C2309 0.950 . S
H2290 C2311 0.950 . S
H2291 C2314 0.950 . S
H2292 C2315 0.950 . S
H2293 C2317 0.950 . S
H2294 C2318 0.950 . S
H2295 C2319 0.951 . S
H2296 C2321 0.951 . S
H2297 C2323 0.950 . S
H2298 C2324 0.950 . S
H2299 C2326 0.950 . S
H2300 C2329 0.950 . S
H2301 C2330 0.950 . S
H2302 C2332 0.950 . S
H2303 C2333 0.950 . S
C2304 H2286 0.951 . S
C2304 C2305 1.366 . S
C2304 C2306 1.388 . S
C2305 C2304 1.366 . S
C2305 C2309 1.385 . S
C2306 H2287 0.951 . S
C2306 C2304 1.388 . S
C2306 C2307 1.366 . S
C2307 C2306 1.366 . S
C2307 C2308 1.414 . S
C2307 C2310 1.499 . S
C2308 H2288 0.950 . S
C2308 C2307 1.414 . S
C2308 C2309 1.374 . S
C2309 H2289 0.950 . S
C2309 C2305 1.385 . S
C2309 C2308 1.374 . S
C2310 C2307 1.499 . S
C2310 C2311 1.373 . S
C2310 C2312 1.389 . S
C2311 H2290 0.950 . S
C2311 C2310 1.373 . S
C2311 C2327 1.377 . S
C2312 C2310 1.389 . S
C2312 C2313 1.524 . S
C2312 C2326 1.377 . S
C2313 C2312 1.524 . S
C2313 C2314 1.397 . S
C2313 C2318 1.363 . S
C2314 H2291 0.950 . S
C2314 C2313 1.397 . S
C2314 C2315 1.334 . S
C2315 H2292 0.950 . S
C2315 C2314 1.334 . S
C2315 C2316 1.287 . S
C2316 C2315 1.287 . S
C2316 C2317 1.524 . S
C2316 H2335 0.913 . S
C2317 H2293 0.950 . S
C2317 C2316 1.524 . S
C2317 C2318 1.415 . S
C2318 H2294 0.950 . S
C2318 C2313 1.363 . S
C2318 C2317 1.415 . S
C2319 H2295 0.951 . S
C2319 C2320 1.366 . S
C2319 C2321 1.388 . S
C2320 C2319 1.366 . S
C2320 C2324 1.385 . S
C2321 H2296 0.951 . S
C2321 C2319 1.388 . S
C2321 C2322 1.366 . S
C2322 C2321 1.366 . S
C2322 C2323 1.414 . S
C2322 C2325 1.499 . S
C2323 H2297 0.950 . S
C2323 C2322 1.414 . S
C2323 C2324 1.374 . S
C2324 H2298 0.950 . S
C2324 C2320 1.385 . S
C2324 C2323 1.374 . S
C2325 C2322 1.499 . S
C2325 C2326 1.373 . S
C2325 C2327 1.389 . S
C2326 H2299 0.950 . S
C2326 C2312 1.377 . S
C2326 C2325 1.373 . S
C2327 C2311 1.377 . S
C2327 C2325 1.389 . S
C2327 C2328 1.524 . S
C2328 C2327 1.524 . S
C2328 C2329 1.397 . S
C2328 C2333 1.363 . S
C2329 H2300 0.950 . S
C2329 C2328 1.397 . S
C2329 C2330 1.334 . S
C2330 H2301 0.950 . S
C2330 C2329 1.334 . S
C2330 C2331 1.287 . S
C2331 C2330 1.287 . S
C2331 C2332 1.524 . S
C2331 H2334 0.999 . S
C2332 H2302 0.950 . S
C2332 C2331 1.524 . S
C2332 C2333 1.415 . S
C2333 H2303 0.950 . S
C2333 C2328 1.363 . S
C2333 C2332 1.415 . S
H2334 C2331 0.999 . S
H2335 C2316 0.913 . S
H2336 C2354 0.951 . S
H2337 C2356 0.951 . S
H2338 C2358 0.950 . S
H2339 C2359 0.950 . S
H2340 C2361 0.950 . S
H2341 C2364 0.950 . S
H2342 C2365 0.950 . S
H2343 C2367 0.950 . S
H2344 C2368 0.950 . S
H2345 C2369 0.951 . S
H2346 C2371 0.951 . S
H2347 C2373 0.950 . S
H2348 C2374 0.950 . S
H2349 C2376 0.950 . S
H2350 C2379 0.950 . S
H2351 C2380 0.950 . S
H2352 C2382 0.950 . S
H2353 C2383 0.950 . S
C2354 H2336 0.951 . S
C2354 C2355 1.366 . S
C2354 C2356 1.388 . S
C2355 C2354 1.366 . S
C2355 C2359 1.385 . S
C2356 H2337 0.951 . S
C2356 C2354 1.388 . S
C2356 C2357 1.366 . S
C2357 C2356 1.366 . S
C2357 C2358 1.414 . S
C2357 C2360 1.499 . S
C2358 H2338 0.950 . S
C2358 C2357 1.414 . S
C2358 C2359 1.374 . S
C2359 H2339 0.950 . S
C2359 C2355 1.385 . S
C2359 C2358 1.374 . S
C2360 C2357 1.499 . S
C2360 C2361 1.373 . S
C2360 C2362 1.389 . S
C2361 H2340 0.950 . S
C2361 C2360 1.373 . S
C2361 C2377 1.377 . S
C2362 C2360 1.389 . S
C2362 C2363 1.524 . S
C2362 C2376 1.377 . S
C2363 C2362 1.524 . S
C2363 C2364 1.397 . S
C2363 C2368 1.363 . S
C2364 H2341 0.950 . S
C2364 C2363 1.397 . S
C2364 C2365 1.334 . S
C2365 H2342 0.950 . S
C2365 C2364 1.334 . S
C2365 C2366 1.287 . S
C2366 C2365 1.287 . S
C2366 C2367 1.524 . S
C2366 H2385 0.913 . S
C2367 H2343 0.950 . S
C2367 C2366 1.524 . S
C2367 C2368 1.415 . S
C2368 H2344 0.950 . S
C2368 C2363 1.363 . S
C2368 C2367 1.415 . S
C2369 H2345 0.951 . S
C2369 C2370 1.366 . S
C2369 C2371 1.388 . S
C2370 C2369 1.366 . S
C2370 C2374 1.385 . S
C2371 H2346 0.951 . S
C2371 C2369 1.388 . S
C2371 C2372 1.366 . S
C2372 C2371 1.366 . S
C2372 C2373 1.414 . S
C2372 C2375 1.499 . S
C2373 H2347 0.950 . S
C2373 C2372 1.414 . S
C2373 C2374 1.374 . S
C2374 H2348 0.950 . S
C2374 C2370 1.385 . S
C2374 C2373 1.374 . S
C2375 C2372 1.499 . S
C2375 C2376 1.373 . S
C2375 C2377 1.389 . S
C2376 H2349 0.950 . S
C2376 C2362 1.377 . S
C2376 C2375 1.373 . S
C2377 C2361 1.377 . S
C2377 C2375 1.389 . S
C2377 C2378 1.524 . S
C2378 C2377 1.524 . S
C2378 C2379 1.397 . S
C2378 C2383 1.363 . S
C2379 H2350 0.950 . S
C2379 C2378 1.397 . S
C2379 C2380 1.334 . S
C2380 H2351 0.950 . S
C2380 C2379 1.334 . S
C2380 C2381 1.287 . S
C2381 C2380 1.287 . S
C2381 C2382 1.524 . S
C2381 H2384 0.999 . S
C2382 H2352 0.950 . S
C2382 C2381 1.524 . S
C2382 C2383 1.415 . S
C2383 H2353 0.950 . S
C2383 C2378 1.363 . S
C2383 C2382 1.415 . S
H2384 C2381 0.999 . S
H2385 C2366 0.913 . S
H2386 C2404 0.951 . S
H2387 C2406 0.951 . S
H2388 C2408 0.950 . S
H2389 C2409 0.950 . S
H2390 C2411 0.950 . S
H2391 C2414 0.950 . S
H2392 C2415 0.950 . S
H2393 C2417 0.950 . S
H2394 C2418 0.950 . S
H2395 C2419 0.951 . S
H2396 C2421 0.951 . S
H2397 C2423 0.950 . S
H2398 C2424 0.950 . S
H2399 C2426 0.950 . S
H2400 C2429 0.950 . S
H2401 C2430 0.950 . S
H2402 C2432 0.950 . S
H2403 C2433 0.950 . S
C2404 H2386 0.951 . S
C2404 C2405 1.366 . S
C2404 C2406 1.388 . S
C2405 C2404 1.366 . S
C2405 C2409 1.385 . S
C2406 H2387 0.951 . S
C2406 C2404 1.388 . S
C2406 C2407 1.366 . S
C2407 C2406 1.366 . S
C2407 C2408 1.414 . S
C2407 C2410 1.499 . S
C2408 H2388 0.950 . S
C2408 C2407 1.414 . S
C2408 C2409 1.374 . S
C2409 H2389 0.950 . S
C2409 C2405 1.385 . S
C2409 C2408 1.374 . S
C2410 C2407 1.499 . S
C2410 C2411 1.373 . S
C2410 C2412 1.389 . S
C2411 H2390 0.950 . S
C2411 C2410 1.373 . S
C2411 C2427 1.377 . S
C2412 C2410 1.389 . S
C2412 C2413 1.524 . S
C2412 C2426 1.377 . S
C2413 C2412 1.524 . S
C2413 C2414 1.397 . S
C2413 C2418 1.363 . S
C2414 H2391 0.950 . S
C2414 C2413 1.397 . S
C2414 C2415 1.334 . S
C2415 H2392 0.950 . S
C2415 C2414 1.334 . S
C2415 C2416 1.287 . S
C2416 C2415 1.287 . S
C2416 C2417 1.524 . S
C2416 H2435 0.913 . S
C2417 H2393 0.950 . S
C2417 C2416 1.524 . S
C2417 C2418 1.415 . S
C2418 H2394 0.950 . S
C2418 C2413 1.363 . S
C2418 C2417 1.415 . S
C2419 H2395 0.951 . S
C2419 C2420 1.366 . S
C2419 C2421 1.388 . S
C2420 C2419 1.366 . S
C2420 C2424 1.385 . S
C2421 H2396 0.951 . S
C2421 C2419 1.388 . S
C2421 C2422 1.366 . S
C2422 C2421 1.366 . S
C2422 C2423 1.414 . S
C2422 C2425 1.499 . S
C2423 H2397 0.950 . S
C2423 C2422 1.414 . S
C2423 C2424 1.374 . S
C2424 H2398 0.950 . S
C2424 C2420 1.385 . S
C2424 C2423 1.374 . S
C2425 C2422 1.499 . S
C2425 C2426 1.373 . S
C2425 C2427 1.389 . S
C2426 H2399 0.950 . S
C2426 C2412 1.377 . S
C2426 C2425 1.373 . S
C2427 C2411 1.377 . S
C2427 C2425 1.389 . S
C2427 C2428 1.524 . S
C2428 C2427 1.524 . S
C2428 C2429 1.397 . S
C2428 C2433 1.363 . S
C2429 H2400 0.950 . S
C2429 C2428 1.397 . S
C2429 C2430 1.334 . S
C2430 H2401 0.950 . S
C2430 C2429 1.334 . S
C2430 C2431 1.287 . S
C2431 C2430 1.287 . S
C2431 C2432 1.524 . S
C2431 H2434 0.999 . S
C2432 H2402 0.950 . S
C2432 C2431 1.524 . S
C2432 C2433 1.415 . S
C2433 H2403 0.950 . S
C2433 C2428 1.363 . S
C2433 C2432 1.415 . S
H2434 C2431 0.999 . S
H2435 C2416 0.913 . S
H2436 C2454 0.951 . S
H2437 C2456 0.951 . S
H2438 C2458 0.950 . S
H2439 C2459 0.950 . S
H2440 C2461 0.950 1_556 S
H2441 C2464 0.950 . S
H2442 C2465 0.950 . S
H2443 C2467 0.950 . S
H2444 C2468 0.950 . S
H2445 C2469 0.951 . S
H2446 C2471 0.951 . S
H2447 C2473 0.950 . S
H2448 C2474 0.950 . S
H2449 C2476 0.950 . S
H2450 C2479 0.950 . S
H2451 C2480 0.950 . S
H2452 C2482 0.950 . S
H2453 C2483 0.950 . S
C2454 H2436 0.951 . S
C2454 C2455 1.366 1_554 S
C2454 C2456 1.388 . S
C2455 C2454 1.366 1_556 S
C2455 C2459 1.385 1_655 S
C2456 H2437 0.951 . S
C2456 C2454 1.388 . S
C2456 C2457 1.366 1_655 S
C2457 C2456 1.366 1_455 S
C2457 C2458 1.414 1_554 S
C2457 C2460 1.499 . S
C2458 H2438 0.950 . S
C2458 C2457 1.414 1_556 S
C2458 C2459 1.374 . S
C2459 H2439 0.950 . S
C2459 C2455 1.385 1_455 S
C2459 C2458 1.374 . S
C2460 C2457 1.499 . S
C2460 C2461 1.373 . S
C2460 C2462 1.389 . S
C2461 H2440 0.950 1_554 S
C2461 C2460 1.373 . S
C2461 C2477 1.377 . S
C2462 C2460 1.389 . S
C2462 C2463 1.524 . S
C2462 C2476 1.377 . S
C2463 C2462 1.524 . S
C2463 C2464 1.397 . S
C2463 C2468 1.363 . S
C2464 H2441 0.950 . S
C2464 C2463 1.397 . S
C2464 C2465 1.334 . S
C2465 H2442 0.950 . S
C2465 C2464 1.334 . S
C2465 C2466 1.287 . S
C2466 C2465 1.287 . S
C2466 C2467 1.524 . S
C2466 H2485 0.913 . S
C2467 H2443 0.950 . S
C2467 C2466 1.524 . S
C2467 C2468 1.415 . S
C2468 H2444 0.950 . S
C2468 C2463 1.363 . S
C2468 C2467 1.415 . S
C2469 H2445 0.951 . S
C2469 C2470 1.366 . S
C2469 C2471 1.388 . S
C2470 C2469 1.366 . S
C2470 C2474 1.385 . S
C2471 H2446 0.951 . S
C2471 C2469 1.388 . S
C2471 C2472 1.366 . S
C2472 C2471 1.366 . S
C2472 C2473 1.414 . S
C2472 C2475 1.499 . S
C2473 H2447 0.950 . S
C2473 C2472 1.414 . S
C2473 C2474 1.374 . S
C2474 H2448 0.950 . S
C2474 C2470 1.385 . S
C2474 C2473 1.374 . S
C2475 C2472 1.499 . S
C2475 C2476 1.373 . S
C2475 C2477 1.389 . S
C2476 H2449 0.950 . S
C2476 C2462 1.377 . S
C2476 C2475 1.373 . S
C2477 C2461 1.377 . S
C2477 C2475 1.389 . S
C2477 C2478 1.524 1_554 S
C2478 C2477 1.524 1_556 S
C2478 C2479 1.397 1_556 S
C2478 C2483 1.363 . S
C2479 H2450 0.950 . S
C2479 C2478 1.397 1_554 S
C2479 C2480 1.334 1_554 S
C2480 H2451 0.950 . S
C2480 C2479 1.334 1_556 S
C2480 C2481 1.287 . S
C2481 C2480 1.287 . S
C2481 C2482 1.524 . S
C2481 H2484 0.999 . S
C2482 H2452 0.950 . S
C2482 C2481 1.524 . S
C2482 C2483 1.415 . S
C2483 H2453 0.950 . S
C2483 C2478 1.363 . S
C2483 C2482 1.415 . S
H2484 C2481 0.999 . S
H2485 C2466 0.913 . S
H2486 C2504 0.951 . S
H2487 C2506 0.951 . S
H2488 C2508 0.950 . S
H2489 C2509 0.950 . S
H2490 C2511 0.950 . S
H2491 C2514 0.950 . S
H2492 C2515 0.950 . S
H2493 C2517 0.950 . S
H2494 C2518 0.950 . S
H2495 C2519 0.951 . S
H2496 C2521 0.951 . S
H2497 C2523 0.950 . S
H2498 C2524 0.950 . S
H2499 C2526 0.950 . S
H2500 C2529 0.950 . S
H2501 C2530 0.950 . S
H2502 C2532 0.950 . S
H2503 C2533 0.950 . S
C2504 H2486 0.951 . S
C2504 C2505 1.366 . S
C2504 C2506 1.388 . S
C2505 C2504 1.366 . S
C2505 C2509 1.385 . S
C2506 H2487 0.951 . S
C2506 C2504 1.388 . S
C2506 C2507 1.366 . S
C2507 C2506 1.366 . S
C2507 C2508 1.414 . S
C2507 C2510 1.499 . S
C2508 H2488 0.950 . S
C2508 C2507 1.414 . S
C2508 C2509 1.374 . S
C2509 H2489 0.950 . S
C2509 C2505 1.385 . S
C2509 C2508 1.374 . S
C2510 C2507 1.499 . S
C2510 C2511 1.373 . S
C2510 C2512 1.389 . S
C2511 H2490 0.950 . S
C2511 C2510 1.373 . S
C2511 C2527 1.377 . S
C2512 C2510 1.389 . S
C2512 C2513 1.524 . S
C2512 C2526 1.377 . S
C2513 C2512 1.524 . S
C2513 C2514 1.397 . S
C2513 C2518 1.363 . S
C2514 H2491 0.950 . S
C2514 C2513 1.397 . S
C2514 C2515 1.334 . S
C2515 H2492 0.950 . S
C2515 C2514 1.334 . S
C2515 C2516 1.287 . S
C2516 C2515 1.287 . S
C2516 C2517 1.524 . S
C2516 H2535 0.913 . S
C2517 H2493 0.950 . S
C2517 C2516 1.524 . S
C2517 C2518 1.415 . S
C2518 H2494 0.950 . S
C2518 C2513 1.363 . S
C2518 C2517 1.415 . S
C2519 H2495 0.951 . S
C2519 C2520 1.366 . S
C2519 C2521 1.388 . S
C2520 C2519 1.366 . S
C2520 C2524 1.385 . S
C2521 H2496 0.951 . S
C2521 C2519 1.388 . S
C2521 C2522 1.366 . S
C2522 C2521 1.366 . S
C2522 C2523 1.414 . S
C2522 C2525 1.499 . S
C2523 H2497 0.950 . S
C2523 C2522 1.414 . S
C2523 C2524 1.374 . S
C2524 H2498 0.950 . S
C2524 C2520 1.385 . S
C2524 C2523 1.374 . S
C2525 C2522 1.499 . S
C2525 C2526 1.373 . S
C2525 C2527 1.389 . S
C2526 H2499 0.950 . S
C2526 C2512 1.377 . S
C2526 C2525 1.373 . S
C2527 C2511 1.377 . S
C2527 C2525 1.389 . S
C2527 C2528 1.524 . S
C2528 C2527 1.524 . S
C2528 C2529 1.397 . S
C2528 C2533 1.363 . S
C2529 H2500 0.950 . S
C2529 C2528 1.397 . S
C2529 C2530 1.334 . S
C2530 H2501 0.950 . S
C2530 C2529 1.334 . S
C2530 C2531 1.287 . S
C2531 C2530 1.287 . S
C2531 C2532 1.524 . S
C2531 H2534 0.999 . S
C2532 H2502 0.950 . S
C2532 C2531 1.524 . S
C2532 C2533 1.415 . S
C2533 H2503 0.950 . S
C2533 C2528 1.363 . S
C2533 C2532 1.415 . S
H2534 C2531 0.999 . S
H2535 C2516 0.913 . S
H2536 C2554 0.951 . S
H2537 C2556 0.951 . S
H2538 C2558 0.950 . S
H2539 C2559 0.950 . S
H2540 C2561 0.950 . S
H2541 C2564 0.950 . S
H2542 C2565 0.950 . S
H2543 C2567 0.950 . S
H2544 C2568 0.950 . S
H2545 C2569 0.951 . S
H2546 C2571 0.951 . S
H2547 C2573 0.950 . S
H2548 C2574 0.950 . S
H2549 C2576 0.950 . S
H2550 C2579 0.950 . S
H2551 C2580 0.950 . S
H2552 C2582 0.950 . S
H2553 C2583 0.950 . S
C2554 H2536 0.951 . S
C2554 C2555 1.366 . S
C2554 C2556 1.388 . S
C2555 C2554 1.366 . S
C2555 C2559 1.385 . S
C2556 H2537 0.951 . S
C2556 C2554 1.388 . S
C2556 C2557 1.366 . S
C2557 C2556 1.366 . S
C2557 C2558 1.414 . S
C2557 C2560 1.499 . S
C2558 H2538 0.950 . S
C2558 C2557 1.414 . S
C2558 C2559 1.374 . S
C2559 H2539 0.950 . S
C2559 C2555 1.385 . S
C2559 C2558 1.374 . S
C2560 C2557 1.499 . S
C2560 C2561 1.373 . S
C2560 C2562 1.389 . S
C2561 H2540 0.950 . S
C2561 C2560 1.373 . S
C2561 C2577 1.377 . S
C2562 C2560 1.389 . S
C2562 C2563 1.524 . S
C2562 C2576 1.377 . S
C2563 C2562 1.524 . S
C2563 C2564 1.397 . S
C2563 C2568 1.363 . S
C2564 H2541 0.950 . S
C2564 C2563 1.397 . S
C2564 C2565 1.334 . S
C2565 H2542 0.950 . S
C2565 C2564 1.334 . S
C2565 C2566 1.287 . S
C2566 C2565 1.287 . S
C2566 C2567 1.524 . S
C2566 H2585 0.913 . S
C2567 H2543 0.950 . S
C2567 C2566 1.524 . S
C2567 C2568 1.415 . S
C2568 H2544 0.950 . S
C2568 C2563 1.363 . S
C2568 C2567 1.415 . S
C2569 H2545 0.951 . S
C2569 C2570 1.366 . S
C2569 C2571 1.388 . S
C2570 C2569 1.366 . S
C2570 C2574 1.385 . S
C2571 H2546 0.951 . S
C2571 C2569 1.388 . S
C2571 C2572 1.366 . S
C2572 C2571 1.366 . S
C2572 C2573 1.414 . S
C2572 C2575 1.499 . S
C2573 H2547 0.950 . S
C2573 C2572 1.414 . S
C2573 C2574 1.374 . S
C2574 H2548 0.950 . S
C2574 C2570 1.385 . S
C2574 C2573 1.374 . S
C2575 C2572 1.499 . S
C2575 C2576 1.373 . S
C2575 C2577 1.389 . S
C2576 H2549 0.950 . S
C2576 C2562 1.377 . S
C2576 C2575 1.373 . S
C2577 C2561 1.377 . S
C2577 C2575 1.389 . S
C2577 C2578 1.524 . S
C2578 C2577 1.524 . S
C2578 C2579 1.397 . S
C2578 C2583 1.363 . S
C2579 H2550 0.950 . S
C2579 C2578 1.397 . S
C2579 C2580 1.334 . S
C2580 H2551 0.950 . S
C2580 C2579 1.334 . S
C2580 C2581 1.287 . S
C2581 C2580 1.287 . S
C2581 C2582 1.524 . S
C2581 H2584 0.999 . S
C2582 H2552 0.950 . S
C2582 C2581 1.524 . S
C2582 C2583 1.415 . S
C2583 H2553 0.950 . S
C2583 C2578 1.363 . S
C2583 C2582 1.415 . S
H2584 C2581 0.999 . S
H2585 C2566 0.913 . S
H2586 C2604 0.951 . S
H2587 C2606 0.951 . S
H2588 C2608 0.950 . S
H2589 C2609 0.950 . S
H2590 C2611 0.950 . S
H2591 C2614 0.950 . S
H2592 C2615 0.950 . S
H2593 C2617 0.950 . S
H2594 C2618 0.950 . S
H2595 C2619 0.951 . S
H2596 C2621 0.951 . S
H2597 C2623 0.950 . S
H2598 C2624 0.950 . S
H2599 C2626 0.950 . S
H2600 C2629 0.950 . S
H2601 C2630 0.950 . S
H2602 C2632 0.950 . S
H2603 C2633 0.950 . S
C2604 H2586 0.951 . S
C2604 C2605 1.366 . S
C2604 C2606 1.388 . S
C2605 C2604 1.366 . S
C2605 C2609 1.385 . S
C2606 H2587 0.951 . S
C2606 C2604 1.388 . S
C2606 C2607 1.366 . S
C2607 C2606 1.366 . S
C2607 C2608 1.414 . S
C2607 C2610 1.499 . S
C2608 H2588 0.950 . S
C2608 C2607 1.414 . S
C2608 C2609 1.374 . S
C2609 H2589 0.950 . S
C2609 C2605 1.385 . S
C2609 C2608 1.374 . S
C2610 C2607 1.499 . S
C2610 C2611 1.373 . S
C2610 C2612 1.389 . S
C2611 H2590 0.950 . S
C2611 C2610 1.373 . S
C2611 C2627 1.377 . S
C2612 C2610 1.389 . S
C2612 C2613 1.524 . S
C2612 C2626 1.377 . S
C2613 C2612 1.524 . S
C2613 C2614 1.397 . S
C2613 C2618 1.363 . S
C2614 H2591 0.950 . S
C2614 C2613 1.397 . S
C2614 C2615 1.334 . S
C2615 H2592 0.950 . S
C2615 C2614 1.334 . S
C2615 C2616 1.287 . S
C2616 C2615 1.287 . S
C2616 C2617 1.524 . S
C2616 H2635 0.913 . S
C2617 H2593 0.950 . S
C2617 C2616 1.524 . S
C2617 C2618 1.415 . S
C2618 H2594 0.950 . S
C2618 C2613 1.363 . S
C2618 C2617 1.415 . S
C2619 H2595 0.951 . S
C2619 C2620 1.366 . S
C2619 C2621 1.388 . S
C2620 C2619 1.366 . S
C2620 C2624 1.385 . S
C2621 H2596 0.951 . S
C2621 C2619 1.388 . S
C2621 C2622 1.366 . S
C2622 C2621 1.366 . S
C2622 C2623 1.414 . S
C2622 C2625 1.499 . S
C2623 H2597 0.950 . S
C2623 C2622 1.414 . S
C2623 C2624 1.374 . S
C2624 H2598 0.950 . S
C2624 C2620 1.385 . S
C2624 C2623 1.374 . S
C2625 C2622 1.499 . S
C2625 C2626 1.373 . S
C2625 C2627 1.389 . S
C2626 H2599 0.950 . S
C2626 C2612 1.377 . S
C2626 C2625 1.373 . S
C2627 C2611 1.377 . S
C2627 C2625 1.389 . S
C2627 C2628 1.524 . S
C2628 C2627 1.524 . S
C2628 C2629 1.397 . S
C2628 C2633 1.363 . S
C2629 H2600 0.950 . S
C2629 C2628 1.397 . S
C2629 C2630 1.334 . S
C2630 H2601 0.950 . S
C2630 C2629 1.334 . S
C2630 C2631 1.287 . S
C2631 C2630 1.287 . S
C2631 C2632 1.524 . S
C2631 H2634 0.999 . S
C2632 H2602 0.950 . S
C2632 C2631 1.524 . S
C2632 C2633 1.415 . S
C2633 H2603 0.950 . S
C2633 C2628 1.363 . S
C2633 C2632 1.415 . S
H2634 C2631 0.999 . S
H2635 C2616 0.913 . S
H2636 C2654 0.951 . S
H2637 C2656 0.951 . S
H2638 C2658 0.950 . S
H2639 C2659 0.950 . S
H2640 C2661 0.950 . S
H2641 C2664 0.950 . S
H2642 C2665 0.950 . S
H2643 C2667 0.950 . S
H2644 C2668 0.950 . S
H2645 C2669 0.951 . S
H2646 C2671 0.951 . S
H2647 C2673 0.950 . S
H2648 C2674 0.950 . S
H2649 C2676 0.950 . S
H2650 C2679 0.950 . S
H2651 C2680 0.950 . S
H2652 C2682 0.950 . S
H2653 C2683 0.950 . S
C2654 H2636 0.951 . S
C2654 C2655 1.366 . S
C2654 C2656 1.388 . S
C2655 C2654 1.366 . S
C2655 C2659 1.385 1_554 S
C2656 H2637 0.951 . S
C2656 C2654 1.388 . S
C2656 C2657 1.366 1_554 S
C2657 C2656 1.366 1_556 S
C2657 C2658 1.414 . S
C2657 C2660 1.499 . S
C2658 H2638 0.950 . S
C2658 C2657 1.414 . S
C2658 C2659 1.374 . S
C2659 H2639 0.950 . S
C2659 C2655 1.385 1_556 S
C2659 C2658 1.374 . S
C2660 C2657 1.499 . S
C2660 C2661 1.373 . S
C2660 C2662 1.389 . S
C2661 H2640 0.950 . S
C2661 C2660 1.373 . S
C2661 C2677 1.377 . S
C2662 C2660 1.389 . S
C2662 C2663 1.524 1_556 S
C2662 C2676 1.377 . S
C2663 C2662 1.524 1_554 S
C2663 C2664 1.397 . S
C2663 C2668 1.363 . S
C2664 H2641 0.950 . S
C2664 C2663 1.397 . S
C2664 C2665 1.334 . S
C2665 H2642 0.950 . S
C2665 C2664 1.334 . S
C2665 C2666 1.287 . S
C2666 C2665 1.287 . S
C2666 C2667 1.524 . S
C2666 H2685 0.913 . S
C2667 H2643 0.950 . S
C2667 C2666 1.524 . S
C2667 C2668 1.415 . S
C2668 H2644 0.950 . S
C2668 C2663 1.363 . S
C2668 C2667 1.415 . S
C2669 H2645 0.951 . S
C2669 C2670 1.366 . S
C2669 C2671 1.388 . S
C2670 C2669 1.366 . S
C2670 C2674 1.385 . S
C2671 H2646 0.951 . S
C2671 C2669 1.388 . S
C2671 C2672 1.366 . S
C2672 C2671 1.366 . S
C2672 C2673 1.414 . S
C2672 C2675 1.499 . S
C2673 H2647 0.950 . S
C2673 C2672 1.414 . S
C2673 C2674 1.374 . S
C2674 H2648 0.950 . S
C2674 C2670 1.385 . S
C2674 C2673 1.374 . S
C2675 C2672 1.499 . S
C2675 C2676 1.373 . S
C2675 C2677 1.389 . S
C2676 H2649 0.950 . S
C2676 C2662 1.377 . S
C2676 C2675 1.373 . S
C2677 C2661 1.377 . S
C2677 C2675 1.389 . S
C2677 C2678 1.524 . S
C2678 C2677 1.524 . S
C2678 C2679 1.397 . S
C2678 C2683 1.363 . S
C2679 H2650 0.950 . S
C2679 C2678 1.397 . S
C2679 C2680 1.334 . S
C2680 H2651 0.950 . S
C2680 C2679 1.334 . S
C2680 C2681 1.287 . S
C2681 C2680 1.287 . S
C2681 C2682 1.524 . S
C2681 H2684 0.999 . S
C2682 H2652 0.950 . S
C2682 C2681 1.524 . S
C2682 C2683 1.415 . S
C2683 H2653 0.950 . S
C2683 C2678 1.363 . S
C2683 C2682 1.415 . S
H2684 C2681 0.999 . S
H2685 C2666 0.913 . S
H2686 C2704 0.951 . S
H2687 C2706 0.951 . S
H2688 C2708 0.950 . S
H2689 C2709 0.950 . S
H2690 C2711 0.950 . S
H2691 C2714 0.950 . S
H2692 C2715 0.950 . S
H2693 C2717 0.950 . S
H2694 C2718 0.950 . S
H2695 C2719 0.951 . S
H2696 C2721 0.951 . S
H2697 C2723 0.950 . S
H2698 C2724 0.950 . S
H2699 C2726 0.950 . S
H2700 C2729 0.950 . S
H2701 C2730 0.950 . S
H2702 C2732 0.950 . S
H2703 C2733 0.950 . S
C2704 H2686 0.951 . S
C2704 C2705 1.366 . S
C2704 C2706 1.388 . S
C2705 C2704 1.366 . S
C2705 C2709 1.385 . S
C2706 H2687 0.951 . S
C2706 C2704 1.388 . S
C2706 C2707 1.366 . S
C2707 C2706 1.366 . S
C2707 C2708 1.414 . S
C2707 C2710 1.499 . S
C2708 H2688 0.950 . S
C2708 C2707 1.414 . S
C2708 C2709 1.374 . S
C2709 H2689 0.950 . S
C2709 C2705 1.385 . S
C2709 C2708 1.374 . S
C2710 C2707 1.499 . S
C2710 C2711 1.373 . S
C2710 C2712 1.389 . S
C2711 H2690 0.950 . S
C2711 C2710 1.373 . S
C2711 C2727 1.377 . S
C2712 C2710 1.389 . S
C2712 C2713 1.524 . S
C2712 C2726 1.377 . S
C2713 C2712 1.524 . S
C2713 C2714 1.397 . S
C2713 C2718 1.363 . S
C2714 H2691 0.950 . S
C2714 C2713 1.397 . S
C2714 C2715 1.334 . S
C2715 H2692 0.950 . S
C2715 C2714 1.334 . S
C2715 C2716 1.287 . S
C2716 C2715 1.287 . S
C2716 C2717 1.524 . S
C2716 H2735 0.913 . S
C2717 H2693 0.950 . S
C2717 C2716 1.524 . S
C2717 C2718 1.415 . S
C2718 H2694 0.950 . S
C2718 C2713 1.363 . S
C2718 C2717 1.415 . S
C2719 H2695 0.951 . S
C2719 C2720 1.366 1_655 S
C2719 C2721 1.388 . S
C2720 C2719 1.366 1_455 S
C2720 C2724 1.385 . S
C2721 H2696 0.951 . S
C2721 C2719 1.388 . S
C2721 C2722 1.366 . S
C2722 C2721 1.366 . S
C2722 C2723 1.414 1_655 S
C2722 C2725 1.499 . S
C2723 H2697 0.950 . S
C2723 C2722 1.414 1_455 S
C2723 C2724 1.374 . S
C2724 H2698 0.950 . S
C2724 C2720 1.385 . S
C2724 C2723 1.374 . S
C2725 C2722 1.499 . S
C2725 C2726 1.373 . S
C2725 C2727 1.389 . S
C2726 H2699 0.950 . S
C2726 C2712 1.377 . S
C2726 C2725 1.373 . S
C2727 C2711 1.377 . S
C2727 C2725 1.389 . S
C2727 C2728 1.524 . S
C2728 C2727 1.524 . S
C2728 C2729 1.397 . S
C2728 C2733 1.363 . S
C2729 H2700 0.950 . S
C2729 C2728 1.397 . S
C2729 C2730 1.334 . S
C2730 H2701 0.950 . S
C2730 C2729 1.334 . S
C2730 C2731 1.287 . S
C2731 C2730 1.287 . S
C2731 C2732 1.524 . S
C2731 H2734 0.999 . S
C2732 H2702 0.950 . S
C2732 C2731 1.524 . S
C2732 C2733 1.415 . S
C2733 H2703 0.950 . S
C2733 C2728 1.363 . S
C2733 C2732 1.415 . S
H2734 C2731 0.999 . S
H2735 C2716 0.913 . S
C355 C137 0.935 . S
C370 C11 0.934 . S
C405 C25 0.935 . S
C420 C151 0.935 . S
C455 C39 0.934 . S
C470 C165 0.935 . S
C505 C53 0.935 . S
C520 C123 0.935 . S
C555 C67 0.934 . S
C570 C221 0.934 . S
C605 C179 0.936 . S
C620 C81 0.936 . S
C655 C95 0.933 . S
C670 C193 0.934 . S
C705 C207 0.933 . S
C720 C109 0.933 . S
C755 C235 0.934 . S
C770 C263 0.934 . S
C805 C319 0.935 . S
C820 C249 0.935 . S
C855 C277 0.935 . S
C870 C333 0.935 . S
C905 C305 0.934 . S
C920 C291 0.935 . S
C955 C293 1.382 . S
C970 C13 1.383 . S
C1005 C27 1.382 . S
C1020 C251 1.383 . S
C1055 C41 1.382 . S
C1070 C265 1.383 . S
C1105 C55 1.383 . S
C1120 C279 1.382 . S
C1155 C69 1.384 . S
C1170 C335 1.382 . S
C1205 C307 1.383 . S
C1220 C83 1.382 . S
C1255 C321 1.382 . S
C1270 C97 1.383 . S
C1305 C237 1.382 . S
C1320 C111 1.384 . S
C1355 C223 1.383 . S
C1370 C125 1.382 . S
C1405 C139 1.382 . S
C1420 C181 1.383 . S
C1455 C195 1.382 . S
C1470 C153 1.383 . S
C1505 C209 1.383 . S
C1520 C167 1.382 . S
C1555 C8 0.698 . S
C1570 C231 0.674 . S
C1605 C329 0.672 . S
C1620 C22 0.701 . S
C1655 C301 0.673 . S
C1670 C36 0.700 . S
C1705 C50 0.701 . S
C1720 C315 0.672 . S
C1755 C64 0.698 . S
C1770 C245 0.674 . S
C1805 C259 0.672 . S
C1820 C78 0.701 . S
C1855 C273 0.672 . S
C1870 C92 0.701 . S
C1905 C287 0.672 . S
C1920 C106 0.701 . S
C1955 C7 0.672 . S
C1970 C120 0.700 . S
C2005 C21 0.672 . S
C2020 C134 0.700 . S
C2055 C35 0.672 . S
C2070 C148 0.702 . S
C2105 C49 0.673 . S
C2120 C162 0.699 . S
C2155 C63 0.674 . S
C2170 C176 0.698 . S
C2205 C77 0.672 . S
C2220 C190 0.701 . S
C2255 C204 0.701 . S
C2270 C91 0.672 . S
C2305 C105 0.674 . S
C2320 C218 0.698 . S
C2355 C119 0.674 . S
C2370 C232 0.698 . S
C2405 C246 0.701 . S
C2420 C175 0.672 . S
C2455 C189 0.672 . S
C2470 C260 0.701 . S
C2505 C274 0.702 . S
C2520 C203 0.672 . S
C2555 C288 0.702 . S
C2570 C217 0.671 . S
C2605 C302 0.701 . S
C2620 C147 0.672 . S
C2655 C161 0.673 . S
C2670 C316 0.699 . S
C2705 C330 0.700 . S
C2720 C133 0.672 . S
