# Generated by pormake.
# Topology wfy, (7)-cn, num edge types: 1
# Building blocks:
#     Node 0, Type 0, BuildingBlock: HICVOG_clean_sbu_0, # of connection points: 7
#     Node 1, Type 0, BuildingBlock: HICVOG_clean_sbu_0, # of connection points: 7
#     Node 2, Type 0, BuildingBlock: HICVOG_clean_sbu_0, # of connection points: 7
#     Node 3, Type 0, BuildingBlock: HICVOG_clean_sbu_0, # of connection points: 7
#     Node 4, Type 0, BuildingBlock: HICVOG_clean_sbu_0, # of connection points: 7
#     Node 5, Type 0, BuildingBlock: HICVOG_clean_sbu_0, # of connection points: 7
#     Node 6, Type 0, BuildingBlock: HICVOG_clean_sbu_0, # of connection points: 7
#     Node 7, Type 0, BuildingBlock: HICVOG_clean_sbu_0, # of connection points: 7
#     Edge 8, Type (0, 0), BuildingBlock: EZIPEK_clean_linker_0, # of connection points: 2
#     Edge 9, Type (0, 0), BuildingBlock: EZIPEK_clean_linker_0, # of connection points: 2
#     Edge 10, Type (0, 0), BuildingBlock: EZIPEK_clean_linker_0, # of connection points: 2
#     Edge 11, Type (0, 0), BuildingBlock: EZIPEK_clean_linker_0, # of connection points: 2
#     Edge 12, Type (0, 0), BuildingBlock: EZIPEK_clean_linker_0, # of connection points: 2
#     Edge 13, Type (0, 0), BuildingBlock: EZIPEK_clean_linker_0, # of connection points: 2
#     Edge 14, Type (0, 0), BuildingBlock: EZIPEK_clean_linker_0, # of connection points: 2
#     Edge 15, Type (0, 0), BuildingBlock: EZIPEK_clean_linker_0, # of connection points: 2
#     Edge 16, Type (0, 0), BuildingBlock: EZIPEK_clean_linker_0, # of connection points: 2
#     Edge 17, Type (0, 0), BuildingBlock: EZIPEK_clean_linker_0, # of connection points: 2
#     Edge 18, Type (0, 0), BuildingBlock: EZIPEK_clean_linker_0, # of connection points: 2
#     Edge 19, Type (0, 0), BuildingBlock: EZIPEK_clean_linker_0, # of connection points: 2
#     Edge 20, Type (0, 0), BuildingBlock: EZIPEK_clean_linker_0, # of connection points: 2
#     Edge 21, Type (0, 0), BuildingBlock: EZIPEK_clean_linker_0, # of connection points: 2
#     Edge 22, Type (0, 0), BuildingBlock: EZIPEK_clean_linker_0, # of connection points: 2
#     Edge 23, Type (0, 0), BuildingBlock: EZIPEK_clean_linker_0, # of connection points: 2
#     Edge 24, Type (0, 0), BuildingBlock: EZIPEK_clean_linker_0, # of connection points: 2
#     Edge 25, Type (0, 0), BuildingBlock: EZIPEK_clean_linker_0, # of connection points: 2
#     Edge 26, Type (0, 0), BuildingBlock: EZIPEK_clean_linker_0, # of connection points: 2
#     Edge 27, Type (0, 0), BuildingBlock: EZIPEK_clean_linker_0, # of connection points: 2
#     Edge 28, Type (0, 0), BuildingBlock: EZIPEK_clean_linker_0, # of connection points: 2
#     Edge 29, Type (0, 0), BuildingBlock: EZIPEK_clean_linker_0, # of connection points: 2
#     Edge 30, Type (0, 0), BuildingBlock: EZIPEK_clean_linker_0, # of connection points: 2
#     Edge 31, Type (0, 0), BuildingBlock: EZIPEK_clean_linker_0, # of connection points: 2
#     Edge 32, Type (0, 0), BuildingBlock: EZIPEK_clean_linker_0, # of connection points: 2
#     Edge 33, Type (0, 0), BuildingBlock: EZIPEK_clean_linker_0, # of connection points: 2
#     Edge 34, Type (0, 0), BuildingBlock: EZIPEK_clean_linker_0, # of connection points: 2
#     Edge 35, Type (0, 0), BuildingBlock: EZIPEK_clean_linker_0, # of connection points: 2
# Relax obj value: 0.132
# Max RMSD: 0.238
# Mean RMSD: 0.238
data_MOF--net-wfy--node1-HICVOG_clean_sbu_0--edge1-EZIPEK_clean_linker_0
_symmetry_space_group_name_H-M    P1
_symmetry_Int_Tables_number       1
_symmetry_cell_setting            triclinic
loop_
_symmetry_equiv_pos_as_xyz
'x, y, z'
_cell_length_a     29.607748
_cell_length_b     29.681742
_cell_length_c     18.868478
_cell_angle_alpha  89.430733
_cell_angle_beta   89.679648
_cell_angle_gamma 90.095659
loop_
_atom_site_label
_atom_site_type_symbol
_atom_site_fract_x
_atom_site_fract_y
_atom_site_fract_z
_atom_type_partial_charge
Zn0 Zn 0.33016 0.08543 0.10174 0.0
C1 C 0.28949 0.21352 0.09617 0.0
N2 N 0.33173 0.22099 0.1187 0.0
C3 C 0.35208 0.18122 0.10956 0.0
N4 N 0.32368 0.15002 0.08373 0.0
N5 N 0.28463 0.17072 0.0726 0.0
C6 C 0.14578 0.16639 0.03603 0.0
O7 O 0.14936 0.12679 0.06708 0.0
O8 O 0.3918 0.05813 0.08414 0.0
Zn9 Zn 0.24024 0.14828 1.00448 0.0
N10 N 0.31919 0.07556 0.20135 0.0
C11 C 0.26789 0.07934 0.2985 0.0
C12 C 0.28164 0.09356 0.2312 0.0
C13 C 0.34389 0.04398 0.23624 0.0
N14 N 0.29035 0.04509 0.33077 0.0
C15 C 0.32758 0.02621 0.30062 0.0
O16 O 0.22376 0.08181 0.01925 0.0
C17 C 0.24391 0.04512 0.03475 0.0
O18 O 0.28404 0.04437 0.0583 0.0
H19 H 0.26189 0.11744 0.20172 0.0
H20 H 0.3729 0.02909 0.21048 0.0
C21 C 0.2606 0.18337 0.85886 0.0
C22 C 0.2843 0.18172 0.79356 0.0
C23 C 0.32406 0.11751 0.83491 0.0
C24 C 0.30077 0.11926 0.89924 0.0
N25 N 0.26927 0.15178 0.91025 0.0
N26 N 0.31542 0.14871 0.78374 0.0
H27 H 0.23592 0.20949 0.8686 0.0
C28 C 0.41911 0.05897 0.03208 0.0
O29 O 0.40894 0.08237 0.97493 0.0
O30 O 0.18039 0.18386 1.00574 0.0
H31 H 0.30788 0.09482 0.94049 0.0
H32 H 0.23809 0.09351 0.32303 0.0
H33 H 0.3491 0.09167 0.82589 0.0
Zn34 Zn 0.13847 0.77452 0.03846 0.0
C35 C 0.18478 0.6716 0.92494 0.0
N36 N 0.2232 0.69522 0.92838 0.0
C37 C 0.21007 0.7358 0.95066 0.0
N38 N 0.16529 0.73548 0.96658 0.0
N39 N 0.14884 0.69551 0.94847 0.0
C40 C 0.05345 0.59754 1.00838 0.0
O41 O 0.06514 0.61682 0.06788 0.0
O42 O 0.17125 0.83562 0.03999 0.0
Zn43 Zn 0.08377 0.68329 0.93051 0.0
N44 N 0.14465 0.74326 0.13054 0.0
C45 C 0.11675 0.68303 0.20322 0.0
C46 C 0.11548 0.70837 0.14058 0.0
C47 C 0.17541 0.75382 0.1815 0.0
N48 N 0.14759 0.69313 0.25364 0.0
C49 C 0.17703 0.728 0.24504 0.0
O50 O 0.03923 0.72722 0.97394 0.0
C51 C 0.03624 0.76482 1.00546 0.0
O52 O 0.07089 0.78618 0.02691 0.0
H53 H 0.09148 0.70024 0.09972 0.0
H54 H 0.19879 0.78139 0.17241 0.0
C55 C 0.03729 0.6741 0.79992 0.0
C56 C 0.03249 0.67609 0.72589 0.0
C57 C 0.1037 0.71229 0.71671 0.0
C58 C 0.10655 0.71288 0.79037 0.0
N59 N 0.07503 0.69109 0.83008 0.0
N60 N 0.06689 0.69361 0.68606 0.0
H61 H 0.01104 0.65995 0.83357 0.0
C62 C 0.15421 0.87116 1.01254 0.0
O63 O 0.11462 0.86892 0.98172 0.0
O64 O 0.06015 0.6186 0.95009 0.0
H65 H 0.13347 0.73027 0.81612 0.0
H66 H 0.09364 0.65517 0.21139 0.0
H67 H 0.1298 0.72773 0.68424 0.0
Zn68 Zn 0.68161 0.93933 0.08284 0.0
C69 C 0.72471 0.81233 0.10652 0.0
N70 N 0.68166 0.80203 0.1217 0.0
C71 C 0.65927 0.84029 0.10791 0.0
N72 N 0.68735 0.87343 0.08486 0.0
N73 N 0.7282 0.85532 0.08216 0.0
C74 C 0.8584 0.84436 0.04496 0.0
O75 O 0.85285 0.87232 0.0978 0.0
O76 O 0.6184 0.96503 0.07384 0.0
Zn77 Zn 0.76806 0.8757 1.00574 0.0
N78 N 0.70614 0.95878 0.17103 0.0
C79 C 0.76561 0.95668 0.25523 0.0
C80 C 0.74658 0.94197 0.19221 0.0
C81 C 0.68441 0.99068 0.20903 0.0
N82 N 0.74454 0.98945 0.29238 0.0
C83 C 0.70461 1.00711 0.27033 0.0
O84 O 0.7863 0.94269 1.01264 0.0
C85 C 0.76222 0.97831 1.00916 0.0
O86 O 0.71946 0.97627 1.01446 0.0
H87 H 0.76426 0.91784 0.15994 0.0
H88 H 0.65329 1.00508 0.18941 0.0
C89 C 0.74483 0.83632 0.86797 0.0
C90 C 0.71684 0.83039 0.80847 0.0
C91 C 0.66732 0.88628 0.8519 0.0
C92 C 0.69464 0.89163 0.91117 0.0
N93 N 0.73327 0.8672 0.91803 0.0
N94 N 0.67889 0.85575 0.80204 0.0
H95 H 0.77488 0.81607 0.87491 0.0
C96 C 0.58322 0.95042 0.04339 0.0
O97 O 0.58434 0.91111 1.01208 0.0
O98 O 0.82644 0.83887 1.00089 0.0
H99 H 0.68434 0.91447 0.95208 0.0
H100 H 0.79759 0.94333 0.27314 0.0
H101 H 0.63665 0.90572 0.84622 0.0
Zn102 Zn 0.95269 0.32391 0.97294 0.0
C103 C 0.82857 0.29168 0.89994 0.0
N104 N 0.83865 0.32274 0.85055 0.0
C105 C 0.87845 0.33934 0.87157 0.0
N106 N 0.89197 0.31986 0.9331 0.0
N107 N 0.86089 0.28897 0.95054 0.0
C108 C 0.83293 0.16137 0.99044 0.0
O109 O 0.86765 0.16628 0.94759 0.0
O110 O 0.97755 0.38685 0.99947 0.0
Zn111 Zn 0.86506 0.24868 0.03489 0.0
N112 N 0.99018 0.29938 0.90049 0.0
C113 C 1.00043 0.24768 0.80628 0.0
C114 C 0.97556 0.26289 0.86425 0.0
C115 C 0.02855 0.32119 0.88163 0.0
N116 N 0.03741 0.27129 0.78467 0.0
C117 C 0.05185 0.30788 0.8211 0.0
O118 O 0.92797 0.22037 0.03957 0.0
C119 C 0.96449 0.24191 0.04904 0.0
O120 O 0.96252 0.28421 0.05689 0.0
H121 H 0.94431 0.24659 0.87931 0.0
H122 H 0.03888 0.35075 0.91015 0.0
C123 C 0.82975 0.2735 0.17742 0.0
C124 C 0.8245 0.30387 0.23416 0.0
C125 C 0.86985 0.35723 0.17257 0.0
C126 C 0.87468 0.32746 0.11643 0.0
N127 N 0.85492 0.28605 0.11953 0.0
N128 N 0.84478 0.34491 0.22986 0.0
H129 H 0.8136 0.24076 0.17902 0.0
C130 C 0.96118 0.42317 0.02421 0.0
O131 O 0.91723 0.42544 0.03341 0.0
O132 O 0.8225 0.19353 0.03192 0.0
H133 H 0.89404 0.33753 0.0704 0.0
H134 H 0.98922 0.21873 0.77671 0.0
H135 H 0.88561 0.39011 0.17037 0.0
Zn136 Zn 0.83175 0.57292 0.57634 0.0
C137 C 0.78885 0.69393 0.64126 0.0
N138 N 0.82905 0.69427 0.6738 0.0
C139 C 0.84892 0.6571 0.64882 0.0
N140 N 0.82227 0.63507 0.60335 0.0
N141 N 0.78474 0.65886 0.59631 0.0
C142 C 0.65532 0.67364 0.55831 0.0
O143 O 0.66113 0.63845 0.59987 0.0
O144 O 0.89821 0.55787 0.55883 0.0
Zn145 Zn 0.74583 0.64899 0.51493 0.0
N146 N 0.81503 0.53765 0.65756 0.0
C147 C 0.7641 0.52051 0.75196 0.0
C148 C 0.77657 0.54725 0.69386 0.0
C149 C 0.84182 0.50274 0.67699 0.0
N150 N 0.79099 0.48559 0.77168 0.0
C151 C 0.82953 0.47602 0.73526 0.0
O152 O 0.72568 0.58361 0.51392 0.0
C153 C 0.74758 0.54708 0.50602 0.0
O154 O 0.79056 0.54739 0.50192 0.0
H155 H 0.75604 0.57544 0.67773 0.0
H156 H 0.87252 0.49596 0.64766 0.0
C157 C 0.77023 0.69005 0.37531 0.0
C158 C 0.80016 0.69791 0.31767 0.0
C159 C 0.8533 0.64874 0.37066 0.0
C160 C 0.82379 0.64106 0.42729 0.0
N161 N 0.78277 0.66167 0.42914 0.0
N162 N 0.84098 0.67704 0.31741 0.0
H163 H 0.73777 0.70671 0.37755 0.0
C164 C 0.91518 0.54165 0.50247 0.0
O165 O 0.89019 0.53891 0.44536 0.0
O166 O 0.68757 0.68652 0.51775 0.0
H167 H 0.83402 0.61908 0.46989 0.0
H168 H 0.73355 0.52765 0.78144 0.0
H169 H 0.886 0.63255 0.36934 0.0
Zn170 Zn 0.64368 0.27427 0.53542 0.0
C171 C 0.68239 0.16837 0.42171 0.0
N172 N 0.72172 0.1904 0.41632 0.0
C173 C 0.71222 0.23121 0.44223 0.0
N174 N 0.66874 0.23326 0.46518 0.0
N175 N 0.64977 0.19404 0.45012 0.0
C176 C 0.52783 0.1039 0.46426 0.0
O177 O 0.49657 0.1342 0.47665 0.0
O178 O 0.67821 0.33465 0.53684 0.0
Zn179 Zn 0.58595 0.18284 0.43318 0.0
N180 N 0.64954 0.24387 0.62799 0.0
C181 C 0.61916 0.1877 0.70609 0.0
C182 C 0.6181 0.2115 0.64199 0.0
C183 C 0.68278 0.25286 0.67581 0.0
N184 N 0.65203 0.19671 0.7538 0.0
C185 C 0.68402 0.22866 0.74066 0.0
O186 O 0.54188 0.22514 0.48088 0.0
C187 C 0.54038 0.26467 0.50648 0.0
O188 O 0.57592 0.28682 0.52228 0.0
H189 H 0.59239 0.2041 0.60335 0.0
H190 H 0.70803 0.27822 0.66351 0.0
C191 C 0.54179 0.17568 0.29989 0.0
C192 C 0.5252 0.19499 0.23713 0.0
C193 C 0.58364 0.24954 0.23998 0.0
C194 C 0.59688 0.23301 0.30595 0.0
N195 N 0.57579 0.19652 0.3346 0.0
N196 N 0.54726 0.231 0.20799 0.0
H197 H 0.52448 0.14776 0.32491 0.0
C198 C 0.66162 0.37043 0.50958 0.0
O199 O 0.62157 0.36885 0.4801 0.0
O200 O 0.5678 0.11667 0.44842 0.0
H201 H 0.62266 0.24979 0.33537 0.0
H202 H 0.59418 0.16199 0.71763 0.0
H203 H 0.60038 0.27848 0.21642 0.0
Zn204 Zn 0.19116 0.44786 0.57078 0.0
C205 C 0.22263 0.31875 0.61862 0.0
N206 N 0.18878 0.32277 0.6652 0.0
C207 C 0.17264 0.36427 0.65334 0.0
N208 N 0.19403 0.38426 0.59761 0.0
N209 N 0.22682 0.35638 0.57741 0.0
C210 C 0.36206 0.3455 0.53458 0.0
O211 O 0.35971 0.38213 0.57286 0.0
O212 O 0.12855 0.47536 0.54861 0.0
Zn213 Zn 0.26962 0.37188 0.50003 0.0
N214 N 0.22007 0.47416 0.65183 0.0
C215 C 0.2827 0.46942 0.73037 0.0
C216 C 0.2612 0.45678 0.66824 0.0
C217 C 0.19981 0.50451 0.69462 0.0
N218 N 0.26255 0.49987 0.77311 0.0
C219 C 0.2216 0.51763 0.75668 0.0
O220 O 0.29247 0.43858 0.50574 0.0
C221 C 0.26828 0.47286 0.49094 0.0
O222 O 0.22656 0.46648 0.48273 0.0
H223 H 0.27674 0.43257 0.63397 0.0
H224 H 0.16812 0.51963 0.67935 0.0
C225 C 0.24905 0.33814 0.35527 0.0
C226 C 0.21954 0.33168 0.29748 0.0
C227 C 0.16404 0.3756 0.35516 0.0
C228 C 0.19266 0.38104 0.41275 0.0
N229 N 0.23494 0.36304 0.41183 0.0
N230 N 0.17792 0.35084 0.29923 0.0
H231 H 0.28204 0.32251 0.35603 0.0
C232 C 0.09159 0.45579 0.53367 0.0
O233 O 0.09064 0.4115 0.53481 0.0
O234 O 0.32714 0.33255 0.5008 0.0
H235 H 0.18063 0.39886 0.4586 0.0
H236 H 0.3152 0.4554 0.74425 0.0
H237 H 0.13056 0.39009 0.3556 0.0
Zn238 Zn 0.36987 0.74502 0.53587 0.0
C239 C 0.35127 0.85536 0.42246 0.0
N240 N 0.30958 0.83963 0.4105 0.0
C241 C 0.31173 0.79634 0.43178 0.0
N242 N 0.35363 0.78638 0.45725 0.0
N243 N 0.37867 0.82318 0.44849 0.0
C244 C 0.46998 0.91689 0.47939 0.0
O245 O 0.45055 0.90743 0.5405 0.0
O246 O 0.33582 0.68457 0.5326 0.0
Zn247 Zn 0.44465 0.82305 0.44326 0.0
N248 N 0.35786 0.77907 0.62479 0.0
C249 C 0.37727 0.84804 0.68133 0.0
C250 C 0.38219 0.81797 0.62571 0.0
C251 C 0.32868 0.76884 0.67949 0.0
N252 N 0.34834 0.83817 0.73517 0.0
C253 C 0.32389 0.79936 0.73674 0.0
O254 O 0.47665 0.79183 0.52212 0.0
C255 C 0.47525 0.74982 0.53543 0.0
O256 O 0.43795 0.72795 0.53542 0.0
H257 H 0.4051 0.82594 0.58275 0.0
H258 H 0.3093 0.7379 0.67846 0.0
C259 C 0.49375 0.80733 0.3153 0.0
C260 C 0.49611 0.79364 0.24388 0.0
C261 C 0.43738 0.74086 0.26798 0.0
C262 C 0.43537 0.75496 0.33808 0.0
N263 N 0.46096 0.7904 0.35845 0.0
N264 N 0.4664 0.76159 0.22225 0.0
H265 H 0.51619 0.8326 0.33619 0.0
C266 C 0.34709 0.65512 0.48683 0.0
O267 O 0.37771 0.66569 0.43884 0.0
O268 O 0.47134 0.88661 0.43219 0.0
H269 H 0.41105 0.74024 0.37434 0.0
H270 H 0.39632 0.87916 0.68165 0.0
H271 H 0.41519 0.71452 0.24952 0.0
C272 C 0.35012 0.9446 0.28936 0.0
C273 C 0.34599 0.98394 0.33145 0.0
C274 C 0.35926 0.93831 0.43806 0.0
C275 C 0.36507 0.89997 0.39506 0.0
N276 N 0.38481 0.87144 0.28059 0.0
N277 N 0.36057 0.01984 0.44334 0.0
C278 C 0.36735 0.90503 0.32087 0.0
C279 C 0.35532 0.98139 0.40516 0.0
N280 N 0.3336 0.94304 0.22191 0.0
N281 N 0.35498 0.93329 0.50974 0.0
H282 H 0.35911 0.05184 0.42002 0.0
H283 H 0.37106 0.01968 0.49597 0.0
H284 H 0.35868 0.90209 0.53506 0.0
H285 H 0.34575 0.95955 0.54305 0.0
H286 H 0.33295 0.91345 0.19259 0.0
H287 H 0.31531 0.96903 0.19842 0.0
H288 H 0.38987 0.87464 0.22603 0.0
H289 H 0.39966 0.84334 0.304 0.0
C290 C 0.96531 0.62472 0.71414 0.0
C291 C 0.98871 0.66442 0.69251 0.0
C292 C 0.92486 0.68398 0.61695 0.0
C293 C 0.89816 0.65157 0.65303 0.0
N294 N 0.89187 0.59435 0.74395 0.0
N295 N 0.9851 0.73714 0.63178 0.0
C296 C 0.91807 0.6222 0.70318 0.0
C297 C 0.96752 0.69523 0.64488 0.0
N298 N 0.98797 0.58977 0.74514 0.0
N299 N 0.90856 0.70553 0.55814 0.0
H300 H 0.01335 0.74999 0.65715 0.0
H301 H 0.96808 0.7616 0.60228 0.0
H302 H 0.877 0.69807 0.53682 0.0
H303 H 0.92836 0.72701 0.52681 0.0
H304 H 0.9726 0.55896 0.75709 0.0
H305 H 0.02296 0.59011 0.75153 0.0
H306 H 0.90482 0.57551 0.78603 0.0
H307 H 0.85681 0.59369 0.7398 0.0
C308 C 0.66632 0.0859 0.41336 0.0
C309 C 0.67455 0.12787 0.37939 0.0
C310 C 0.69625 0.09032 0.26995 0.0
C311 C 0.68782 0.04827 0.30378 0.0
N312 N 0.65423 1.00559 0.39961 0.0
N313 N 0.68606 0.17088 0.27132 0.0
C314 C 0.66909 0.04594 0.3729 0.0
C315 C 0.68516 0.13024 0.30602 0.0
N316 N 0.65903 0.08398 0.48487 0.0
N317 N 0.7183 0.09239 0.20596 0.0
H318 H 0.68109 0.20139 0.29686 0.0
H319 H 0.68813 0.17409 0.21637 0.0
H320 H 0.72809 0.06412 0.17746 0.0
H321 H 0.73045 0.12226 0.18349 0.0
H322 H 0.65864 0.05397 0.51392 0.0
H323 H 0.6557 0.11277 0.51576 0.0
H324 H 0.63648 1.00246 0.44724 0.0
H325 H 0.65608 0.97584 0.37068 0.0
C326 C 0.12929 0.34277 0.81755 0.0
C327 C 0.08509 0.33865 0.78913 0.0
C328 C 0.10329 0.39716 0.70334 0.0
C329 C 0.14897 0.38737 0.7126 0.0
N330 N 0.20416 0.37659 0.80262 0.0
N331 N 0.02726 0.36951 0.71174 0.0
C332 C 0.16103 0.37038 0.78012 0.0
C333 C 0.0711 0.36786 0.73354 0.0
N334 N 0.14123 0.3186 0.8765 0.0
N335 N 0.09137 0.43959 0.68479 0.0
H336 H 1.00157 0.35029 0.73511 0.0
H337 H 0.01744 0.38926 0.66839 0.0
H338 H 0.11622 0.46383 0.67648 0.0
H339 H 0.05802 0.45095 0.68611 0.0
H340 H 0.17362 0.31829 0.89754 0.0
H341 H 0.11857 0.29765 0.9037 0.0
H342 H 0.21623 0.3659 0.85164 0.0
H343 H 0.22705 0.39507 0.77172 0.0
C344 C 0.88561 0.44701 0.82242 0.0
C345 C 0.85972 0.44003 0.76046 0.0
C346 C 0.8923 0.36455 0.75135 0.0
C347 C 0.90547 0.36858 0.82269 0.0
N348 N 0.95672 0.42269 0.86682 0.0
N349 N 0.84401 0.39415 0.65786 0.0
C350 C 0.91455 0.41235 0.84497 0.0
C351 C 0.86582 0.39977 0.72077 0.0
N352 N 0.88475 0.48684 0.85772 0.0
N353 N 0.90061 0.32497 0.71788 0.0
H354 H 0.8231 0.41873 0.6358 0.0
H355 H 0.84513 0.36459 0.62874 0.0
H356 H 0.91789 0.29902 0.74392 0.0
H357 H 0.89305 0.31899 0.66501 0.0
H358 H 0.90284 0.49128 0.90453 0.0
H359 H 0.86477 0.51401 0.84203 0.0
H360 H 0.96742 0.45592 0.87334 0.0
H361 H 0.98155 0.39799 0.86951 0.0
C362 C 0.44098 0.18522 0.24887 0.0
C363 C 0.48108 0.18146 0.20732 0.0
C364 C 0.43561 0.1708 0.10068 0.0
C365 C 0.39598 0.17209 0.1429 0.0
N366 N 0.36071 0.17188 0.25836 0.0
N367 N 0.51668 0.15997 0.09756 0.0
C368 C 0.39881 0.17558 0.21753 0.0
C369 C 0.47841 0.17086 0.1343 0.0
N370 N 0.44226 0.20247 0.31584 0.0
N371 N 0.43247 0.17221 0.0285 0.0
H372 H 0.54842 0.15866 0.12129 0.0
H373 H 0.51623 0.14769 0.04602 0.0
H374 H 0.40159 0.1716 1.00212 0.0
H375 H 0.4603 0.17665 0.99511 0.0
H376 H 0.41344 0.21093 0.34467 0.0
H377 H 0.47159 0.21309 0.34063 0.0
H378 H 0.36145 0.16808 0.31331 0.0
H379 H 0.32852 0.1693 0.2369 0.0
C380 C 0.21385 0.59974 0.76848 0.0
C381 C 0.2051 0.55635 0.79669 0.0
C382 C 0.1762 0.58857 0.9072 0.0
C383 C 0.1834 0.63219 0.87787 0.0
N384 N 0.20518 0.67966 0.77754 0.0
N385 N 0.17708 0.50728 0.88911 0.0
C386 C 0.20041 0.63775 0.8073 0.0
C387 C 0.18558 0.55008 0.86489 0.0
N388 N 0.23873 0.60473 0.70728 0.0
N389 N 0.16267 0.58425 0.97636 0.0
H390 H 0.18325 0.47879 0.85857 0.0
H391 H 0.16233 0.4995 0.93782 0.0
H392 H 0.15511 0.61193 1.0079 0.0
H393 H 0.15975 0.55376 1.00357 0.0
H394 H 0.25201 0.63527 0.68926 0.0
H395 H 0.25004 0.57791 0.67673 0.0
H396 H 0.20978 0.68544 0.72346 0.0
H397 H 0.20163 0.70926 0.80544 0.0
C398 C 0.55044 0.78675 0.13777 0.0
C399 C 0.53075 0.81283 0.19327 0.0
C400 C 0.59232 0.86696 0.18036 0.0
C401 C 0.61022 0.84234 0.12288 0.0
N402 N 0.59507 0.78987 0.0298 0.0
N403 N 0.52259 0.88887 0.23712 0.0
C404 C 0.58435 0.80687 0.09464 0.0
C405 C 0.54796 0.85701 0.20402 0.0
N406 N 0.54172 0.74182 0.13048 0.0
N407 N 0.6185 0.8961 0.21713 0.0
H408 H 0.48821 0.8841 0.24735 0.0
H409 H 0.53474 0.92093 0.24818 0.0
H410 H 0.65266 0.89976 0.20612 0.0
H411 H 0.60719 0.91208 0.26292 0.0
H412 H 0.55835 0.72211 0.0931 0.0
H413 H 0.52378 0.72245 0.1671 0.0
H414 H 0.62066 0.80401 0.99828 0.0
H415 H 0.5755 0.76534 1.00528 0.0
C416 C 0.47434 1.00467 0.97685 0.0
C417 C 0.46136 0.03154 0.03543 0.0
C418 C 0.52599 1.00157 0.10249 0.0
C419 C 0.54166 0.97895 0.04085 0.0
N420 N 0.53648 0.97066 0.91375 0.0
N421 N 0.47984 0.06084 0.15125 0.0
C422 C 0.51749 0.98381 0.9764 0.0
C423 C 0.4886 0.03151 0.09748 0.0
N424 N 0.44472 0.9968 0.92305 0.0
N425 N 0.54546 0.99336 0.16681 0.0
H426 H 0.45259 0.0828 0.15169 0.0
H427 H 0.50204 0.06647 0.19291 0.0
H428 H 0.57243 0.9715 0.1741 0.0
H429 H 0.53198 1.00464 0.21456 0.0
H430 H 0.45129 0.97391 0.88274 0.0
H431 H 0.41161 1.00864 0.92307 0.0
H432 H 0.52178 0.97745 0.86473 0.0
H433 H 0.56923 0.95808 0.9098 0.0
C434 C 0.02976 0.47142 0.9887 0.0
C435 C 0.98978 0.4655 0.02999 0.0
C436 C 0.99202 0.54663 0.05807 0.0
C437 C 0.02926 0.55288 1.01081 0.0
N438 N 0.07381 0.52175 0.91511 0.0
N439 N 0.94529 0.4945 0.1263 0.0
C440 C 0.04505 0.51559 0.9711 0.0
C441 C 0.97418 0.50243 0.07081 0.0
N442 N 0.05628 0.43536 0.97245 0.0
N443 N 0.9714 0.58345 0.08679 0.0
H444 H 0.9358 0.46203 0.14198 0.0
H445 H 0.9357 0.51891 0.16259 0.0
H446 H 0.9816 0.61641 0.07553 0.0
H447 H 0.94121 0.58188 0.11522 0.0
H448 H 0.08703 0.43839 0.94561 0.0
H449 H 0.05241 0.40417 0.99739 0.0
H450 H 0.08118 0.4961 0.87948 0.0
H451 H 0.08652 0.55292 0.89938 0.0
C452 C 0.97046 0.47863 0.47701 0.0
C453 C 0.96178 0.52229 0.50387 0.0
C454 C 0.03884 0.52432 0.55166 0.0
C455 C 0.04882 0.48196 0.51922 0.0
N456 N 0.02723 0.4301 0.42701 0.0
N457 N 0.99295 0.59183 0.54671 0.0
C458 C 0.01559 0.46258 0.4745 0.0
C459 C 0.99761 0.54673 0.53496 0.0
N460 N 0.93581 0.45116 0.45709 0.0
N461 N 0.06679 0.54276 0.60093 0.0
H462 H 0.96396 0.60967 0.53274 0.0
H463 H 0.01967 0.61228 0.56241 0.0
H464 H 0.09691 0.52867 0.61759 0.0
H465 H 0.05776 0.57074 0.63075 0.0
H466 H 0.94081 0.4176 0.44327 0.0
H467 H 0.90189 0.4599 0.4622 0.0
H468 H 1.0046 0.41756 0.38988 0.0
H469 H 0.0606 0.42044 0.41807 0.0
C470 C 0.53475 0.0258 0.51737 0.0
C471 C 0.51593 0.05501 0.46526 0.0
C472 C 0.47854 0.99025 0.40994 0.0
C473 C 0.4914 0.96228 0.46802 0.0
N474 N 0.53573 0.95172 0.57362 0.0
N475 N 0.46493 0.06596 0.36689 0.0
C476 C 0.52088 0.97965 0.52059 0.0
C477 C 0.4865 0.03748 0.41294 0.0
N478 N 0.56561 0.04236 0.56415 0.0
N479 N 0.45989 0.972 0.35069 0.0
H480 H 0.46995 0.10063 0.36582 0.0
H481 H 0.43887 0.0557 0.33381 0.0
H482 H 0.45409 0.93779 0.34462 0.0
H483 H 0.45471 0.99021 0.30396 0.0
H484 H 0.58469 0.02241 0.59824 0.0
H485 H 0.57392 0.07644 0.56699 0.0
H486 H 0.55207 0.96271 0.61894 0.0
H487 H 0.53111 0.91687 0.57277 0.0
C488 C 0.2472 0.23984 0.62088 0.0
C489 C 0.25779 0.28502 0.63646 0.0
C490 C 0.29721 0.2597 0.74428 0.0
C491 C 0.27792 0.21631 0.73653 0.0
N492 N 0.2371 0.16318 0.66511 0.0
N493 N 0.2959 0.33843 0.70958 0.0
C494 C 0.25443 0.2055 0.67326 0.0
C495 C 0.28494 0.29474 0.69619 0.0
N496 N 0.22848 0.23071 0.55668 0.0
N497 N 0.32759 0.26725 0.79718 0.0
H498 H 0.29043 0.36365 0.67207 0.0
H499 H 0.30946 0.34953 0.75712 0.0
H500 H 0.33711 0.24237 0.83356 0.0
H501 H 0.34622 0.29687 0.80151 0.0
H502 H 0.22195 0.19836 0.53856 0.0
H503 H 0.22309 0.25626 0.51915 0.0
H504 H 0.21622 0.15402 0.62348 0.0
H505 H 0.24172 0.13744 0.70239 0.0
C506 C 0.2583 0.73233 0.27995 0.0
C507 C 0.21245 0.73592 0.2998 0.0
C508 C 0.23656 0.75841 0.41948 0.0
C509 C 0.28133 0.76426 0.39412 0.0
N510 N 0.33124 0.76569 0.29208 0.0
N511 N 0.15693 0.75304 0.38976 0.0
C512 C 0.29153 0.75267 0.32261 0.0
C513 C 0.20119 0.7483 0.37053 0.0
N514 N 0.27027 0.71005 0.21968 0.0
N515 N 0.22796 0.76357 0.49008 0.0
H516 H 0.13032 0.74674 0.35528 0.0
H517 H 0.14661 0.76629 0.43808 0.0
H518 H 0.25361 0.77096 0.52597 0.0
H519 H 0.19687 0.75632 0.51364 0.0
H520 H 0.30382 0.70341 0.20632 0.0
H521 H 0.24676 0.69405 0.18746 0.0
H522 H 0.33789 0.763 0.23796 0.0
H523 H 0.35515 0.78391 0.3193 0.0
C524 C 0.72644 0.71587 0.72135 0.0
C525 C 0.75397 0.72683 0.66197 0.0
C526 C 0.75054 0.80693 0.69168 0.0
C527 C 0.72644 0.79547 0.75465 0.0
N528 N 0.68033 0.74207 0.81952 0.0
N529 N 0.78161 0.78162 0.57883 0.0
C530 C 0.71056 0.75084 0.76607 0.0
C531 C 0.76201 0.77229 0.64301 0.0
N532 N 0.71797 0.67166 0.7371 0.0
N533 N 0.76401 0.85048 0.6802 0.0
H534 H 0.7897 0.75603 0.54329 0.0
H535 H 0.78639 0.81398 0.55846 0.0
H536 H 0.75536 0.87663 0.71421 0.0
H537 H 0.78525 0.8606 0.63893 0.0
H538 H 0.7033 0.66038 0.78428 0.0
H539 H 0.72703 0.64595 0.70265 0.0
H540 H 0.6641 0.71121 0.82661 0.0
H541 H 0.66875 0.76682 0.85401 0.0
C542 C 0.81558 0.27942 0.36201 0.0
C543 C 0.79566 0.2935 0.29707 0.0
C544 C 0.72139 0.29358 0.35497 0.0
C545 C 0.73953 0.26922 0.41302 0.0
N546 N 0.80409 0.24561 0.47912 0.0
N547 N 0.72941 0.31614 0.2319 0.0
C548 C 0.78702 0.2654 0.41939 0.0
C549 C 0.74854 0.30172 0.29386 0.0
N550 N 0.86154 0.27888 0.36823 0.0
N551 N 0.67869 0.31028 0.35948 0.0
H552 H 0.74825 0.3241 0.18659 0.0
H553 H 0.69462 0.31737 0.22411 0.0
H554 H 0.65882 0.30561 0.40457 0.0
H555 H 0.66484 0.33218 0.32204 0.0
H556 H 0.8783 0.27266 0.41563 0.0
H557 H 0.88322 0.28722 0.32633 0.0
H558 H 0.83779 0.23668 0.48553 0.0
H559 H 0.78331 0.2373 0.52228 0.0
C560 C 0.78444 0.71428 0.18798 0.0
C561 C 0.7891 0.72982 0.25882 0.0
C562 C 0.76402 0.80464 0.22149 0.0
C563 C 0.75913 0.78952 0.15107 0.0
N564 N 0.77407 0.73391 0.06322 0.0
N565 N 0.79808 0.79309 0.33674 0.0
C566 C 0.77295 0.74559 0.13298 0.0
C567 C 0.78377 0.77618 0.27359 0.0
N568 N 0.78829 0.66935 0.17402 0.0
N569 N 0.74498 0.84474 0.23882 0.0
H570 H 0.81309 0.77315 0.37586 0.0
H571 H 0.79947 0.82748 0.34708 0.0
H572 H 0.74216 0.85679 0.2904 0.0
H573 H 0.74216 0.85679 0.2904 0.0
H574 H 0.78097 0.65534 0.12505 0.0
H575 H 0.7957 0.64534 0.21292 0.0
H576 H 0.78718 0.70361 0.04499 0.0
H577 H 0.76555 0.75682 0.02309 0.0
C578 C 0.80059 0.23029 0.82464 0.0
C579 C 0.79277 0.25857 0.8837 0.0
C580 C 0.71194 0.26078 0.85624 0.0
C581 C 0.72051 0.23582 0.79358 0.0
N582 N 0.76933 0.18534 0.72986 0.0
N583 N 0.74136 0.28988 0.96758 0.0
C584 C 0.76372 0.2167 0.78174 0.0
C585 C 0.74822 0.26965 0.90378 0.0
N586 N 0.84395 0.21928 0.80697 0.0
N587 N 0.66977 0.27783 0.86826 0.0
H588 H 0.76816 0.29617 1.00195 0.0
H589 H 0.70966 0.29679 0.98884 0.0
H590 H 0.64256 0.2717 0.8348 0.0
H591 H 0.66202 0.29974 0.90923 0.0
H592 H 0.85317 0.20407 0.75958 0.0
H593 H 0.87113 0.22724 0.83947 0.0
H594 H 0.79886 0.16687 0.72295 0.0
H595 H 0.74305 0.17495 0.6972 0.0
C596 C 0.24618 0.31993 0.17168 0.0
C597 C 0.23069 0.30156 0.23732 0.0
C598 C 0.22831 0.22661 0.18402 0.0
C599 C 0.25335 0.24305 0.12513 0.0
N600 N 0.28053 0.30568 0.05633 0.0
N601 N 0.20558 0.2372 0.3062 0.0
C602 C 0.25951 0.29015 0.11639 0.0
C603 C 0.22089 0.25487 0.2433 0.0
N604 N 0.24847 0.36562 0.16269 0.0
N605 N 0.21039 0.18438 0.18215 0.0
H606 H 0.19827 0.25688 0.3503 0.0
H607 H 0.20307 0.20271 0.31621 0.0
H608 H 0.21387 0.16407 0.1379 0.0
H609 H 0.18815 0.17161 0.22034 0.0
H610 H 0.25565 0.3814 0.11445 0.0
H611 H 0.2406 0.38812 0.20305 0.0
H612 H 0.2912 0.33878 0.0486 0.0
H613 H 0.28815 0.28423 1.01434 0.0
C614 C 0.2175 0.79283 0.8539 0.0
C615 C 0.23535 0.7743 0.9173 0.0
C616 C 0.31212 0.78266 0.8676 0.0
C617 C 0.29329 0.79119 0.79931 0.0
N618 N 0.22793 0.80751 0.72785 0.0
N619 N 0.29895 0.76087 0.99139 0.0
C620 C 0.24591 0.79772 0.79277 0.0
C621 C 0.28274 0.77366 0.92661 0.0
N622 N 0.17313 0.80497 0.85222 0.0
N623 N 0.35801 0.78196 0.87542 0.0
H624 H 0.27724 0.75582 0.03464 0.0
H625 H 0.33277 0.75493 1.00258 0.0
H626 H 0.38046 0.785 0.83286 0.0
H627 H 0.37426 0.77966 0.92401 0.0
H628 H 0.15781 0.82074 0.80915 0.0
H629 H 0.15273 0.8036 0.89734 0.0
H630 H 0.19345 0.8073 0.71746 0.0
H631 H 0.24767 0.81342 0.68276 0.0
C632 C 0.20751 0.98473 0.96138 0.0
C633 C 0.21941 1.00143 0.02897 0.0
C634 C 0.18606 0.93401 0.08603 0.0
C635 C 0.17745 0.91565 0.0182 0.0
N636 N 0.18441 0.92092 0.89097 0.0
N637 N 0.22305 0.99122 0.15592 0.0
C638 C 0.18907 0.94049 0.95577 0.0
C639 C 0.20977 0.97567 0.09131 0.0
N640 N 0.21383 0.01119 0.90235 0.0
N641 N 0.16916 0.91299 0.1454 0.0
H642 H 0.23621 0.02338 0.16321 0.0
H643 H 0.22313 0.97157 0.20193 0.0
H644 H 0.15088 0.88297 0.14398 0.0
H645 H 0.1697 0.92702 0.19571 0.0
H646 H 0.20074 1.00361 0.85279 0.0
H647 H 0.22988 0.04245 0.9034 0.0
H648 H 0.19739 0.93449 0.84403 0.0
H649 H 0.17033 0.88916 0.88447 0.0
C650 C 0.97145 0.81155 0.96056 0.0
C651 C 0.99061 0.7849 1.0155 0.0
C652 C 0.92092 0.79285 0.08604 0.0
C653 C 0.90327 0.82262 0.03366 0.0
N654 N 0.91481 0.8665 0.92665 0.0
N655 N 0.98622 0.75357 0.13359 0.0
C656 C 0.92925 0.83345 0.97216 0.0
C657 C 0.96606 0.77653 0.07917 0.0
N658 N 0.99337 0.81549 0.8968 0.0
N659 N 0.89392 0.77893 0.1411 0.0
H660 H 0.0186 0.74004 0.12963 0.0
H661 H 0.97231 0.75053 0.18419 0.0
H662 H 0.86097 0.79042 0.14808 0.0
H663 H 0.90265 0.75344 0.17672 0.0
H664 H 0.97884 0.82989 0.85187 0.0
H665 H 0.02503 0.80135 0.88712 0.0
H666 H 0.93454 0.87957 0.88547 0.0
H667 H 0.88456 0.88389 0.93352 0.0
C668 C 0.81565 0.03935 0.05201 0.0
C669 C 0.78338 0.02409 1.0018 0.0
C670 C 0.77769 0.10146 0.95392 0.0
C671 C 0.81282 0.11553 0.99931 0.0
N672 N 0.87002 0.09662 0.08492 0.0
N673 N 0.74076 0.03908 0.8956 0.0
C674 C 0.83318 0.08407 0.04639 0.0
C675 C 0.76637 0.05482 0.95012 0.0
N676 N 0.82809 0.01213 0.10737 0.0
N677 N 0.75436 0.1329 0.91567 0.0
H678 H 0.73336 1.00496 0.88941 0.0
H679 H 0.7309 0.05897 0.85264 0.0
H680 H 0.76102 0.16726 0.91964 0.0
H681 H 0.72569 0.12554 0.88619 0.0
H682 H 0.84645 0.02354 0.15057 0.0
H683 H 0.81742 0.97893 0.1133 0.0
H684 H 0.88993 0.07385 0.11311 0.0
H685 H 0.88262 0.12947 0.08499 0.0
C686 C 0.0449 0.23641 0.09104 0.0
C687 C 1.00993 0.21926 0.04731 0.0
C688 C 0.06514 0.16648 0.99555 0.0
C689 C 0.10045 0.18794 0.03297 0.0
N690 N 0.12497 0.25026 0.10384 0.0
N691 N 0.98967 0.17088 0.94878 0.0
C692 C 0.09066 0.22525 0.07645 0.0
C693 C 0.02065 0.18484 0.99733 0.0
N694 N 0.03434 0.26124 0.14945 0.0
N695 N 0.07405 0.12833 0.95791 0.0
H696 H 0.9565 0.18181 0.94676 0.0
H697 H 0.99796 0.15092 0.90554 0.0
H698 H 0.10666 0.11614 0.94954 0.0
H699 H 0.04889 0.10735 0.93831 0.0
H700 H 0.05828 0.27125 0.1864 0.0
H701 H 1.00115 0.26674 0.16604 0.0
H702 H 0.11973 0.28018 0.13113 0.0
H703 H 0.1587 0.24384 0.09207 0.0
C704 C 0.72434 0.42315 0.47147 0.0
C705 C 0.68546 0.41461 0.51371 0.0
C706 C 0.68826 0.49266 0.5556 0.0
C707 C 0.72332 0.50274 0.50546 0.0
N708 N 0.76576 0.47873 0.40282 0.0
N709 N 0.62695 0.44291 0.59069 0.0
C710 C 0.73881 0.46826 0.45969 0.0
C711 C 0.66617 0.45002 0.5536 0.0
N712 N 0.74817 0.38826 0.44361 0.0
N713 N 0.67774 0.52213 0.60836 0.0
H714 H 0.61182 0.4113 0.59617 0.0
H715 H 0.60811 0.46896 0.61266 0.0
H716 H 0.69321 0.5532 0.61462 0.0
H717 H 0.65658 0.51385 0.65084 0.0
H718 H 0.77885 0.39239 0.41696 0.0
H719 H 0.74012 0.35498 0.45536 0.0
H720 H 0.77473 0.45532 0.36443 0.0
H721 H 0.77453 0.51177 0.3892 0.0
C722 C 0.42896 0.30465 0.58699 0.0
C723 C 0.40672 0.32254 0.52627 0.0
C724 C 0.4722 0.30185 0.45232 0.0
C725 C 0.49523 0.28633 0.51382 0.0
N726 N 0.49859 0.27822 0.64073 0.0
N727 N 0.40995 0.34496 0.40307 0.0
C728 C 0.47449 0.28939 0.58149 0.0
C729 C 0.42896 0.32266 0.45925 0.0
N730 N 0.40582 0.30067 0.64955 0.0
N731 N 0.49189 0.2969 0.38712 0.0
H732 H 0.37869 0.36097 0.40583 0.0
H733 H 0.42646 0.35083 0.35504 0.0
H734 H 0.52466 0.28483 0.38021 0.0
H735 H 0.47501 0.30213 0.33951 0.0
H736 H 0.41781 0.28338 0.69383 0.0
H737 H 0.3727 0.31159 0.65536 0.0
H738 H 0.48755 0.28451 0.69215 0.0
H739 H 0.53138 0.26553 0.63862 0.0
C740 C 0.2609 0.55928 0.5039 0.0
C741 C 0.28769 0.52026 0.48764 0.0
C742 C 0.35432 0.57009 0.48034 0.0
C743 C 0.32662 0.60887 0.48758 0.0
N744 N 0.25131 0.63944 0.48504 0.0
N745 N 0.35812 0.49413 0.43634 0.0
C746 C 0.27929 0.60319 0.493 0.0
C747 C 0.33394 0.52723 0.46898 0.0
N748 N 0.21867 0.55566 0.5329 0.0
N749 N 0.40014 0.57353 0.48647 0.0
H750 H 0.34374 0.4641 0.41933 0.0
H751 H 0.39084 0.49921 0.41711 0.0
H752 H 0.41649 0.60364 0.49835 0.0
H753 H 0.42123 0.54545 0.48786 0.0
H754 H 0.20109 0.58331 0.55257 0.0
H755 H 0.20265 0.52567 0.54538 0.0
H756 H 0.21634 0.63635 0.48079 0.0
H757 H 0.26314 0.67187 0.47434 0.0
C758 C 0.59694 0.7314 0.59172 0.0
C759 C 0.60925 0.6932 0.55158 0.0
C760 C 0.53276 0.69048 0.50153 0.0
C761 C 0.51931 0.72638 0.54649 0.0
N762 N 0.53627 0.77419 0.64544 0.0
N763 N 0.58713 0.63153 0.47696 0.0
C764 C 0.55081 0.7448 0.5949 0.0
C765 C 0.57651 0.67113 0.50947 0.0
N766 N 0.62952 0.75559 0.62543 0.0
N767 N 0.50516 0.67664 0.4481 0.0
H768 H 0.61937 0.61743 0.47825 0.0
H769 H 0.56317 0.61107 0.45294 0.0
H770 H 0.47318 0.68991 0.4391 0.0
H771 H 0.51548 0.65461 0.40859 0.0
H772 H 0.62344 0.78618 0.65027 0.0
H773 H 0.66359 0.74719 0.62231 0.0
H774 H 0.55665 0.78559 0.68637 0.0
H775 H 0.50245 0.78349 0.65086 0.0
loop_
_geom_bond_atom_site_label_1
_geom_bond_atom_site_label_2
_geom_bond_distance
_geom_bond_site_symmetry_2
_ccdc_geom_bond_type
Zn0 N4 2.020 . S
Zn0 O8 2.025 . S
Zn0 N10 2.119 . S
Zn0 O18 1.988 . S
C1 N2 1.334 . S
C1 N5 1.336 . S
N2 C1 1.334 . S
N2 C3 1.334 . S
C3 N2 1.334 . S
C3 N4 1.336 . S
N4 Zn0 2.020 . S
N4 C3 1.336 . S
N4 N5 1.354 . S
N5 C1 1.336 . S
N5 N4 1.354 . S
N5 Zn9 2.020 . S
C6 O7 1.244 . S
C6 O30 1.257 . S
O7 C6 1.244 . S
O8 Zn0 2.025 . S
O8 C28 1.262 . S
Zn9 N5 2.020 . S
Zn9 O16 1.975 . S
Zn9 N25 2.119 1_554 S
Zn9 O30 2.019 . S
N10 Zn0 2.119 . S
N10 C12 1.334 . S
N10 C13 1.328 1_545 S
C11 C12 1.391 1_565 S
C11 N14 1.329 . S
C11 H32 0.930 . S
C12 N10 1.334 . S
C12 C11 1.391 1_545 S
C12 H19 0.930 . S
C13 N10 1.328 1_565 S
C13 C15 1.392 . S
C13 H20 0.930 . S
N14 C11 1.329 . S
N14 C15 1.331 . S
C15 C13 1.392 . S
C15 N14 1.331 . S
O16 Zn9 1.975 . S
O16 C17 1.252 1_554 S
C17 O16 1.252 1_556 S
C17 O18 1.248 1_556 S
O18 Zn0 1.988 . S
O18 C17 1.248 1_554 S
H19 C12 0.930 . S
H20 C13 0.930 . S
C21 C22 1.392 . S
C21 N25 1.328 . S
C21 H27 0.930 . S
C22 C21 1.392 . S
C22 N26 1.331 . S
C23 C24 1.391 . S
C23 N26 1.329 . S
C23 H33 0.930 . S
C24 C23 1.391 . S
C24 N25 1.334 . S
C24 H31 0.930 . S
N25 Zn9 2.119 1_556 S
N25 C21 1.328 . S
N25 C24 1.334 . S
N26 C22 1.331 . S
N26 C23 1.329 . S
H27 C21 0.930 . S
C28 O8 1.262 . S
C28 O29 1.244 . S
O29 C28 1.244 . S
O30 C6 1.257 . S
O30 Zn9 2.019 . S
H31 C24 0.930 . S
H32 C11 0.930 . S
H33 C23 0.930 . S
Zn34 N38 2.020 . S
Zn34 O42 2.019 . S
Zn34 N44 2.119 1_556 S
Zn34 O52 1.975 . S
C35 N36 1.334 . S
C35 N39 1.336 . S
N36 C35 1.334 . S
N36 C37 1.334 . S
C37 N36 1.334 . S
C37 N38 1.336 . S
N38 Zn34 2.020 . S
N38 C37 1.336 . S
N38 N39 1.354 . S
N39 C35 1.336 . S
N39 N38 1.354 . S
N39 Zn43 2.020 . S
C40 O41 1.244 . S
C40 O64 1.262 . S
O41 C40 1.244 . S
O42 Zn34 2.019 . S
O42 C62 1.257 . S
Zn43 N39 2.020 . S
Zn43 O50 1.988 . S
Zn43 N59 2.119 . S
Zn43 O64 2.026 . S
N44 Zn34 2.119 1_554 S
N44 C46 1.334 . S
N44 C47 1.328 . S
C45 C46 1.391 . S
C45 N48 1.329 . S
C45 H66 0.930 . S
C46 N44 1.334 . S
C46 C45 1.391 . S
C46 H53 0.930 . S
C47 N44 1.328 . S
C47 C49 1.392 . S
C47 H54 0.930 . S
N48 C45 1.329 . S
N48 C49 1.331 . S
C49 C47 1.392 . S
C49 N48 1.331 . S
O50 Zn43 1.988 . S
O50 C51 1.248 1_556 S
C51 O50 1.248 1_554 S
C51 O52 1.252 1_554 S
O52 Zn34 1.975 . S
O52 C51 1.252 1_556 S
H53 C46 0.930 . S
H54 C47 0.930 . S
C55 C56 1.392 . S
C55 N59 1.328 1_655 S
C55 H61 0.930 . S
C56 C55 1.392 . S
C56 N60 1.331 . S
C57 C58 1.391 1_655 S
C57 N60 1.329 . S
C57 H67 0.930 . S
C58 C57 1.391 1_455 S
C58 N59 1.334 . S
C58 H65 0.930 . S
N59 Zn43 2.119 . S
N59 C55 1.328 1_455 S
N59 C58 1.334 . S
N60 C56 1.331 . S
N60 C57 1.329 . S
H61 C55 0.930 . S
C62 O42 1.257 . S
C62 O63 1.244 . S
O63 C62 1.244 . S
O64 C40 1.262 . S
O64 Zn43 2.026 . S
H65 C58 0.930 . S
H66 C45 0.930 . S
H67 C57 0.930 . S
Zn68 N72 2.020 . S
Zn68 O76 2.025 . S
Zn68 N78 2.119 . S
Zn68 O86 1.988 . S
C69 N70 1.334 . S
C69 N73 1.336 . S
N70 C69 1.334 . S
N70 C71 1.334 . S
C71 N70 1.334 . S
C71 N72 1.336 . S
N72 Zn68 2.020 . S
N72 C71 1.336 . S
N72 N73 1.354 . S
N73 C69 1.336 . S
N73 N72 1.354 . S
N73 Zn77 2.020 . S
C74 O75 1.244 . S
C74 O98 1.257 . S
O75 C74 1.244 . S
O76 Zn68 2.025 . S
O76 C96 1.262 . S
Zn77 N73 2.020 . S
Zn77 O84 1.975 . S
Zn77 N93 2.119 1_554 S
Zn77 O98 2.019 . S
N78 Zn68 2.119 . S
N78 C80 1.334 . S
N78 C81 1.328 1_565 S
C79 C80 1.391 1_545 S
C79 N82 1.329 . S
C79 H100 0.930 . S
C80 N78 1.334 . S
C80 C79 1.391 1_565 S
C80 H87 0.930 . S
C81 N78 1.328 1_545 S
C81 C83 1.392 . S
C81 H88 0.930 . S
N82 C79 1.329 . S
N82 C83 1.331 . S
C83 C81 1.392 . S
C83 N82 1.331 . S
O84 Zn77 1.975 . S
O84 C85 1.252 1_554 S
C85 O84 1.252 1_556 S
C85 O86 1.248 1_556 S
O86 Zn68 1.988 . S
O86 C85 1.248 1_554 S
H87 C80 0.930 . S
H88 C81 0.930 . S
C89 C90 1.392 . S
C89 N93 1.328 . S
C89 H95 0.930 . S
C90 C89 1.392 . S
C90 N94 1.331 . S
C91 C92 1.391 . S
C91 N94 1.329 . S
C91 H101 0.930 . S
C92 C91 1.391 . S
C92 N93 1.334 . S
C92 H99 0.930 . S
N93 Zn77 2.119 1_556 S
N93 C89 1.328 . S
N93 C92 1.334 . S
N94 C90 1.331 . S
N94 C91 1.329 . S
H95 C89 0.930 . S
C96 O76 1.262 . S
C96 O97 1.244 . S
O97 C96 1.244 . S
O98 C74 1.257 . S
O98 Zn77 2.019 . S
H99 C92 0.930 . S
H100 C79 0.930 . S
H101 C91 0.930 . S
Zn102 N106 2.020 . S
Zn102 O110 2.026 . S
Zn102 N112 2.119 . S
Zn102 O120 1.988 . S
C103 N104 1.334 . S
C103 N107 1.336 . S
N104 C103 1.334 . S
N104 C105 1.334 . S
C105 N104 1.334 . S
C105 N106 1.336 . S
N106 Zn102 2.020 . S
N106 C105 1.336 . S
N106 N107 1.354 . S
N107 C103 1.336 . S
N107 N106 1.354 . S
N107 Zn111 2.020 . S
C108 O109 1.244 . S
C108 O132 1.257 . S
O109 C108 1.244 . S
O110 Zn102 2.026 . S
O110 C130 1.262 . S
Zn111 N107 2.020 . S
Zn111 O118 1.975 . S
Zn111 N127 2.119 1_556 S
Zn111 O132 2.019 . S
N112 Zn102 2.119 . S
N112 C114 1.334 . S
N112 C115 1.328 1_655 S
C113 C114 1.391 1_455 S
C113 N116 1.329 . S
C113 H134 0.930 . S
C114 N112 1.334 . S
C114 C113 1.391 1_655 S
C114 H121 0.930 . S
C115 N112 1.328 1_455 S
C115 C117 1.392 . S
C115 H122 0.930 . S
N116 C113 1.329 . S
N116 C117 1.331 . S
C117 C115 1.392 . S
C117 N116 1.331 . S
O118 Zn111 1.975 . S
O118 C119 1.252 1_556 S
C119 O118 1.252 1_554 S
C119 O120 1.248 1_554 S
O120 Zn102 1.988 . S
O120 C119 1.248 1_556 S
H121 C114 0.930 . S
H122 C115 0.930 . S
C123 C124 1.392 . S
C123 N127 1.328 . S
C123 H129 0.930 . S
C124 C123 1.392 . S
C124 N128 1.331 . S
C125 C126 1.391 . S
C125 N128 1.329 . S
C125 H135 0.930 . S
C126 C125 1.391 . S
C126 N127 1.334 . S
C126 H133 0.930 . S
N127 Zn111 2.119 1_554 S
N127 C123 1.328 . S
N127 C126 1.334 . S
N128 C124 1.331 . S
N128 C125 1.329 . S
H129 C123 0.930 . S
C130 O110 1.262 . S
C130 O131 1.244 . S
O131 C130 1.244 . S
O132 C108 1.257 . S
O132 Zn111 2.019 . S
H133 C126 0.930 . S
H134 C113 0.930 . S
H135 C125 0.930 . S
Zn136 N140 2.020 . S
Zn136 O144 2.019 . S
Zn136 N146 2.119 . S
Zn136 O154 1.975 . S
C137 N138 1.334 . S
C137 N141 1.336 . S
N138 C137 1.334 . S
N138 C139 1.334 . S
C139 N138 1.334 . S
C139 N140 1.336 . S
N140 Zn136 2.020 . S
N140 C139 1.336 . S
N140 N141 1.354 . S
N141 C137 1.336 . S
N141 N140 1.354 . S
N141 Zn145 2.020 . S
C142 O143 1.244 . S
C142 O166 1.257 . S
O143 C142 1.244 . S
O144 Zn136 2.019 . S
O144 C164 1.257 . S
Zn145 N141 2.020 . S
Zn145 O152 1.975 . S
Zn145 N161 2.119 . S
Zn145 O166 2.019 . S
N146 Zn136 2.119 . S
N146 C148 1.334 . S
N146 C149 1.328 . S
C147 C148 1.391 . S
C147 N150 1.329 . S
C147 H168 0.930 . S
C148 N146 1.334 . S
C148 C147 1.391 . S
C148 H155 0.930 . S
C149 N146 1.328 . S
C149 C151 1.392 . S
C149 H156 0.930 . S
N150 C147 1.329 . S
N150 C151 1.331 . S
C151 C149 1.392 . S
C151 N150 1.331 . S
O152 Zn145 1.975 . S
O152 C153 1.252 . S
C153 O152 1.252 . S
C153 O154 1.252 . S
O154 Zn136 1.975 . S
O154 C153 1.252 . S
H155 C148 0.930 . S
H156 C149 0.930 . S
C157 C158 1.392 . S
C157 N161 1.328 . S
C157 H163 0.930 . S
C158 C157 1.392 . S
C158 N162 1.331 . S
C159 C160 1.391 . S
C159 N162 1.329 . S
C159 H169 0.930 . S
C160 C159 1.391 . S
C160 N161 1.334 . S
C160 H167 0.930 . S
N161 Zn145 2.119 . S
N161 C157 1.328 . S
N161 C160 1.334 . S
N162 C158 1.331 . S
N162 C159 1.329 . S
H163 C157 0.930 . S
C164 O144 1.257 . S
C164 O165 1.244 . S
O165 C164 1.244 . S
O166 C142 1.257 . S
O166 Zn145 2.019 . S
H167 C160 0.930 . S
H168 C147 0.930 . S
H169 C159 0.930 . S
Zn170 N174 2.020 . S
Zn170 O178 2.019 . S
Zn170 N180 2.119 . S
Zn170 O188 1.975 . S
C171 N172 1.334 . S
C171 N175 1.336 . S
N172 C171 1.334 . S
N172 C173 1.334 . S
C173 N172 1.334 . S
C173 N174 1.336 . S
N174 Zn170 2.020 . S
N174 C173 1.336 . S
N174 N175 1.354 . S
N175 C171 1.336 . S
N175 N174 1.354 . S
N175 Zn179 2.020 . S
C176 O177 1.244 . S
C176 O200 1.257 . S
O177 C176 1.244 . S
O178 Zn170 2.019 . S
O178 C198 1.257 . S
Zn179 N175 2.020 . S
Zn179 O186 1.975 . S
Zn179 N195 2.119 . S
Zn179 O200 2.019 . S
N180 Zn170 2.119 . S
N180 C182 1.334 . S
N180 C183 1.328 . S
C181 C182 1.391 . S
C181 N184 1.329 . S
C181 H202 0.930 . S
C182 N180 1.334 . S
C182 C181 1.391 . S
C182 H189 0.930 . S
C183 N180 1.328 . S
C183 C185 1.392 . S
C183 H190 0.930 . S
N184 C181 1.329 . S
N184 C185 1.331 . S
C185 C183 1.392 . S
C185 N184 1.331 . S
O186 Zn179 1.975 . S
O186 C187 1.252 . S
C187 O186 1.252 . S
C187 O188 1.252 . S
O188 Zn170 1.975 . S
O188 C187 1.252 . S
H189 C182 0.930 . S
H190 C183 0.930 . S
C191 C192 1.392 . S
C191 N195 1.328 . S
C191 H197 0.930 . S
C192 C191 1.392 . S
C192 N196 1.331 . S
C193 C194 1.391 . S
C193 N196 1.329 . S
C193 H203 0.930 . S
C194 C193 1.391 . S
C194 N195 1.334 . S
C194 H201 0.930 . S
N195 Zn179 2.119 . S
N195 C191 1.328 . S
N195 C194 1.334 . S
N196 C192 1.331 . S
N196 C193 1.329 . S
H197 C191 0.930 . S
C198 O178 1.257 . S
C198 O199 1.244 . S
O199 C198 1.244 . S
O200 C176 1.257 . S
O200 Zn179 2.019 . S
H201 C194 0.930 . S
H202 C181 0.930 . S
H203 C193 0.930 . S
Zn204 N208 2.020 . S
Zn204 O212 2.019 . S
Zn204 N214 2.119 . S
Zn204 O222 1.975 . S
C205 N206 1.334 . S
C205 N209 1.336 . S
N206 C205 1.334 . S
N206 C207 1.334 . S
C207 N206 1.334 . S
C207 N208 1.336 . S
N208 Zn204 2.020 . S
N208 C207 1.336 . S
N208 N209 1.354 . S
N209 C205 1.336 . S
N209 N208 1.354 . S
N209 Zn213 2.020 . S
C210 O211 1.244 . S
C210 O234 1.257 . S
O211 C210 1.244 . S
O212 Zn204 2.019 . S
O212 C232 1.257 . S
Zn213 N209 2.020 . S
Zn213 O220 1.975 . S
Zn213 N229 2.119 . S
Zn213 O234 2.019 . S
N214 Zn204 2.119 . S
N214 C216 1.334 . S
N214 C217 1.328 . S
C215 C216 1.391 . S
C215 N218 1.329 . S
C215 H236 0.930 . S
C216 N214 1.334 . S
C216 C215 1.391 . S
C216 H223 0.930 . S
C217 N214 1.328 . S
C217 C219 1.392 . S
C217 H224 0.930 . S
N218 C215 1.329 . S
N218 C219 1.331 . S
C219 C217 1.392 . S
C219 N218 1.331 . S
O220 Zn213 1.975 . S
O220 C221 1.252 . S
C221 O220 1.252 . S
C221 O222 1.252 . S
O222 Zn204 1.975 . S
O222 C221 1.252 . S
H223 C216 0.930 . S
H224 C217 0.930 . S
C225 C226 1.392 . S
C225 N229 1.328 . S
C225 H231 0.930 . S
C226 C225 1.392 . S
C226 N230 1.331 . S
C227 C228 1.391 . S
C227 N230 1.329 . S
C227 H237 0.930 . S
C228 C227 1.391 . S
C228 N229 1.334 . S
C228 H235 0.930 . S
N229 Zn213 2.119 . S
N229 C225 1.328 . S
N229 C228 1.334 . S
N230 C226 1.331 . S
N230 C227 1.329 . S
H231 C225 0.930 . S
C232 O212 1.257 . S
C232 O233 1.244 . S
O233 C232 1.244 . S
O234 C210 1.257 . S
O234 Zn213 2.019 . S
H235 C228 0.930 . S
H236 C215 0.930 . S
H237 C227 0.930 . S
Zn238 N242 2.020 . S
Zn238 O246 2.019 . S
Zn238 N248 2.119 . S
Zn238 O256 1.975 . S
C239 N240 1.334 . S
C239 N243 1.336 . S
N240 C239 1.334 . S
N240 C241 1.334 . S
C241 N240 1.334 . S
C241 N242 1.336 . S
N242 Zn238 2.020 . S
N242 C241 1.336 . S
N242 N243 1.354 . S
N243 C239 1.336 . S
N243 N242 1.354 . S
N243 Zn247 2.020 . S
C244 O245 1.244 . S
C244 O268 1.257 . S
O245 C244 1.244 . S
O246 Zn238 2.019 . S
O246 C266 1.257 . S
Zn247 N243 2.020 . S
Zn247 O254 1.975 . S
Zn247 N263 2.119 . S
Zn247 O268 2.019 . S
N248 Zn238 2.119 . S
N248 C250 1.334 . S
N248 C251 1.328 . S
C249 C250 1.391 . S
C249 N252 1.329 . S
C249 H270 0.930 . S
C250 N248 1.334 . S
C250 C249 1.391 . S
C250 H257 0.930 . S
C251 N248 1.328 . S
C251 C253 1.392 . S
C251 H258 0.930 . S
N252 C249 1.329 . S
N252 C253 1.331 . S
C253 C251 1.392 . S
C253 N252 1.331 . S
O254 Zn247 1.975 . S
O254 C255 1.252 . S
C255 O254 1.252 . S
C255 O256 1.252 . S
O256 Zn238 1.975 . S
O256 C255 1.252 . S
H257 C250 0.930 . S
H258 C251 0.930 . S
C259 C260 1.392 . S
C259 N263 1.328 . S
C259 H265 0.930 . S
C260 C259 1.392 . S
C260 N264 1.331 . S
C261 C262 1.391 . S
C261 N264 1.329 . S
C261 H271 0.930 . S
C262 C261 1.391 . S
C262 N263 1.334 . S
C262 H269 0.930 . S
N263 Zn247 2.119 . S
N263 C259 1.328 . S
N263 C262 1.334 . S
N264 C260 1.331 . S
N264 C261 1.329 . S
H265 C259 0.930 . S
C266 O246 1.257 . S
C266 O267 1.244 . S
O267 C266 1.244 . S
O268 C244 1.257 . S
O268 Zn247 2.019 . S
H269 C262 0.930 . S
H270 C249 0.930 . S
H271 C261 0.930 . S
C272 C273 1.363 . S
C272 C278 1.379 . S
C272 N280 1.356 . S
C273 C272 1.363 . S
C273 C279 1.363 . S
C274 C275 1.363 . S
C274 C279 1.379 . S
C274 N281 1.356 . S
C275 C274 1.363 . S
C275 C278 1.363 . S
N276 C278 1.356 . S
N276 H288 0.984 . S
N276 H289 0.985 . S
N277 C279 1.356 . S
N277 H282 0.984 . S
N277 H283 0.985 . S
C278 C272 1.379 . S
C278 C275 1.363 . S
C278 N276 1.356 . S
C279 C273 1.363 . S
C279 C274 1.379 . S
C279 N277 1.356 . S
N280 C272 1.356 . S
N280 H286 0.984 . S
N280 H287 0.984 . S
N281 C274 1.356 . S
N281 H284 0.984 . S
N281 H285 0.985 . S
H282 N277 0.984 . S
H283 N277 0.985 . S
H284 N281 0.984 . S
H285 N281 0.985 . S
H286 N280 0.984 . S
H287 N280 0.984 . S
H288 N276 0.984 . S
H289 N276 0.985 . S
C290 C291 1.363 . S
C290 C296 1.379 . S
C290 N298 1.356 . S
C291 C290 1.363 . S
C291 C297 1.363 . S
C292 C293 1.363 . S
C292 C297 1.379 . S
C292 N299 1.356 . S
C293 C292 1.363 . S
C293 C296 1.363 . S
N294 C296 1.356 . S
N294 H306 0.984 . S
N294 H307 0.985 . S
N295 C297 1.356 . S
N295 H300 0.984 . S
N295 H301 0.985 . S
C296 C290 1.379 . S
C296 C293 1.363 . S
C296 N294 1.356 . S
C297 C291 1.363 . S
C297 C292 1.379 . S
C297 N295 1.356 . S
N298 C290 1.356 . S
N298 H304 0.984 . S
N298 H305 0.984 . S
N299 C292 1.356 . S
N299 H302 0.984 . S
N299 H303 0.985 . S
H300 N295 0.984 . S
H301 N295 0.985 . S
H302 N299 0.984 . S
H303 N299 0.985 . S
H304 N298 0.984 . S
H305 N298 0.984 . S
H306 N294 0.984 . S
H307 N294 0.985 . S
C308 C309 1.363 . S
C308 C314 1.379 . S
C308 N316 1.356 . S
C309 C308 1.363 . S
C309 C315 1.363 . S
C310 C311 1.363 . S
C310 C315 1.379 . S
C310 N317 1.356 . S
C311 C310 1.363 . S
C311 C314 1.363 . S
N312 C314 1.356 . S
N312 H324 0.984 . S
N312 H325 0.985 . S
N313 C315 1.356 . S
N313 H318 0.984 . S
N313 H319 0.985 . S
C314 C308 1.379 . S
C314 C311 1.363 . S
C314 N312 1.356 . S
C315 C309 1.363 . S
C315 C310 1.379 . S
C315 N313 1.356 . S
N316 C308 1.356 . S
N316 H322 0.984 . S
N316 H323 0.984 . S
N317 C310 1.356 . S
N317 H320 0.984 . S
N317 H321 0.985 . S
H318 N313 0.984 . S
H319 N313 0.985 . S
H320 N317 0.984 . S
H321 N317 0.985 . S
H322 N316 0.984 . S
H323 N316 0.984 . S
H324 N312 0.984 . S
H325 N312 0.985 . S
C326 C327 1.363 . S
C326 C332 1.379 . S
C326 N334 1.356 . S
C327 C326 1.363 . S
C327 C333 1.363 . S
C328 C329 1.363 . S
C328 C333 1.379 . S
C328 N335 1.356 . S
C329 C328 1.363 . S
C329 C332 1.363 . S
N330 C332 1.356 . S
N330 H342 0.984 . S
N330 H343 0.985 . S
N331 C333 1.356 . S
N331 H336 0.984 . S
N331 H337 0.993 . S
C332 C326 1.379 . S
C332 C329 1.363 . S
C332 N330 1.356 . S
C333 C327 1.363 . S
C333 C328 1.379 . S
C333 N331 1.356 . S
N334 C326 1.356 . S
N334 H340 0.984 . S
N334 H341 0.984 . S
N335 C328 1.356 . S
N335 H338 0.984 . S
N335 H339 0.985 . S
H336 N331 0.984 . S
H337 N331 0.993 . S
H338 N335 0.984 . S
H339 N335 0.985 . S
H340 N334 0.984 . S
H341 N334 0.984 . S
H342 N330 0.984 . S
H343 N330 0.985 . S
C344 C345 1.363 . S
C344 C350 1.379 . S
C344 N352 1.356 . S
C345 C344 1.363 . S
C345 C351 1.363 . S
C346 C347 1.363 . S
C346 C351 1.379 . S
C346 N353 1.356 . S
C347 C346 1.363 . S
C347 C350 1.363 . S
N348 C350 1.356 . S
N348 H360 0.984 . S
N348 H361 0.985 . S
N349 C351 1.356 . S
N349 H354 0.984 . S
N349 H355 0.985 . S
C350 C344 1.379 . S
C350 C347 1.363 . S
C350 N348 1.356 . S
C351 C345 1.363 . S
C351 C346 1.379 . S
C351 N349 1.356 . S
N352 C344 1.356 . S
N352 H358 0.984 . S
N352 H359 0.984 . S
N353 C346 1.356 . S
N353 H356 0.984 . S
N353 H357 0.985 . S
H354 N349 0.984 . S
H355 N349 0.985 . S
H356 N353 0.984 . S
H357 N353 0.985 . S
H358 N352 0.984 . S
H359 N352 0.984 . S
H360 N348 0.984 . S
H361 N348 0.985 . S
C362 C363 1.363 . S
C362 C368 1.379 . S
C362 N370 1.356 . S
C363 C362 1.363 . S
C363 C369 1.363 . S
C364 C365 1.363 . S
C364 C369 1.379 . S
C364 N371 1.356 . S
C365 C364 1.363 . S
C365 C368 1.363 . S
N366 C368 1.356 . S
N366 H378 0.984 . S
N366 H379 0.985 . S
N367 C369 1.356 . S
N367 H372 0.984 . S
N367 H373 0.985 . S
C368 C362 1.379 . S
C368 C365 1.363 . S
C368 N366 1.356 . S
C369 C363 1.363 . S
C369 C364 1.379 . S
C369 N367 1.356 . S
N370 C362 1.356 . S
N370 H376 0.984 . S
N370 H377 0.984 . S
N371 C364 1.356 . S
N371 H374 0.984 . S
N371 H375 0.985 . S
H372 N367 0.984 . S
H373 N367 0.985 . S
H374 N371 0.984 . S
H375 N371 0.985 . S
H376 N370 0.984 . S
H377 N370 0.984 . S
H378 N366 0.984 . S
H379 N366 0.985 . S
C380 C381 1.363 . S
C380 C386 1.379 . S
C380 N388 1.356 . S
C381 C380 1.363 . S
C381 C387 1.363 . S
C382 C383 1.363 . S
C382 C387 1.379 . S
C382 N389 1.356 . S
C383 C382 1.363 . S
C383 C386 1.363 . S
N384 C386 1.356 . S
N384 H396 0.984 . S
N384 H397 0.985 . S
N385 C387 1.356 . S
N385 H390 0.984 . S
N385 H391 0.985 . S
C386 C380 1.379 . S
C386 C383 1.363 . S
C386 N384 1.356 . S
C387 C381 1.363 . S
C387 C382 1.379 . S
C387 N385 1.356 . S
N388 C380 1.356 . S
N388 H394 0.984 . S
N388 H395 0.984 . S
N389 C382 1.356 . S
N389 H392 0.984 . S
N389 H393 0.985 . S
H390 N385 0.984 . S
H391 N385 0.985 . S
H392 N389 0.984 . S
H393 N389 0.985 . S
H394 N388 0.984 . S
H395 N388 0.984 . S
H396 N384 0.984 . S
H397 N384 0.985 . S
C398 C399 1.363 . S
C398 C404 1.379 . S
C398 N406 1.356 . S
C399 C398 1.363 . S
C399 C405 1.363 . S
C400 C401 1.363 . S
C400 C405 1.379 . S
C400 N407 1.356 . S
C401 C400 1.363 . S
C401 C404 1.363 . S
N402 C404 1.356 . S
N402 H414 0.984 . S
N402 H415 0.985 . S
N403 C405 1.356 . S
N403 H408 0.984 . S
N403 H409 0.985 . S
C404 C398 1.379 . S
C404 C401 1.363 . S
C404 N402 1.356 . S
C405 C399 1.363 . S
C405 C400 1.379 . S
C405 N403 1.356 . S
N406 C398 1.356 . S
N406 H412 0.984 . S
N406 H413 0.984 . S
N407 C400 1.356 . S
N407 H410 0.984 . S
N407 H411 0.985 . S
H408 N403 0.984 . S
H409 N403 0.985 . S
H410 N407 0.984 . S
H411 N407 0.985 . S
H412 N406 0.984 . S
H413 N406 0.984 . S
H414 N402 0.984 . S
H415 N402 0.985 . S
C416 C417 1.363 1_566 S
C416 C422 1.379 . S
C416 N424 1.356 . S
C417 C416 1.363 1_544 S
C417 C423 1.363 . S
C418 C419 1.363 1_545 S
C418 C423 1.379 . S
C418 N425 1.356 . S
C419 C418 1.363 1_565 S
C419 C422 1.363 1_554 S
N420 C422 1.356 . S
N420 H432 0.984 . S
N420 H433 0.985 . S
N421 C423 1.356 . S
N421 H426 0.984 . S
N421 H427 0.985 . S
C422 C416 1.379 . S
C422 C419 1.363 1_556 S
C422 N420 1.356 . S
C423 C417 1.363 . S
C423 C418 1.379 . S
C423 N421 1.356 . S
N424 C416 1.356 . S
N424 H430 0.984 . S
N424 H431 0.984 . S
N425 C418 1.356 . S
N425 H428 0.984 . S
N425 H429 0.985 . S
H426 N421 0.984 . S
H427 N421 0.985 . S
H428 N425 0.984 . S
H429 N425 0.985 . S
H430 N424 0.984 . S
H431 N424 0.984 . S
H432 N420 0.984 . S
H433 N420 0.985 . S
C434 C435 1.363 1_455 S
C434 C440 1.379 . S
C434 N442 1.356 . S
C435 C434 1.363 1_655 S
C435 C441 1.363 1_556 S
C436 C437 1.363 1_654 S
C436 C441 1.379 . S
C436 N443 1.356 . S
C437 C436 1.363 1_456 S
C437 C440 1.363 . S
N438 C440 1.356 . S
N438 H450 0.984 . S
N438 H451 0.985 . S
N439 C441 1.356 . S
N439 H444 0.984 . S
N439 H445 0.985 . S
C440 C434 1.379 . S
C440 C437 1.363 . S
C440 N438 1.356 . S
C441 C435 1.363 1_554 S
C441 C436 1.379 . S
C441 N439 1.356 . S
N442 C434 1.356 . S
N442 H448 0.984 . S
N442 H449 0.984 . S
N443 C436 1.356 . S
N443 H446 0.984 . S
N443 H447 0.985 . S
H444 N439 0.984 . S
H445 N439 0.985 . S
H446 N443 0.984 . S
H447 N443 0.985 . S
H448 N442 0.984 . S
H449 N442 0.984 . S
H450 N438 0.984 . S
H451 N438 0.985 . S
C452 C453 1.363 . S
C452 C458 1.379 1_655 S
C452 N460 1.356 . S
C453 C452 1.363 . S
C453 C459 1.363 . S
C454 C455 1.363 . S
C454 C459 1.379 1_455 S
C454 N461 1.356 . S
C455 C454 1.363 . S
C455 C458 1.363 . S
N456 C458 1.356 . S
N456 H468 0.984 . S
N456 H469 0.985 . S
N457 C459 1.356 . S
N457 H462 0.984 . S
N457 H463 0.985 . S
C458 C452 1.379 1_455 S
C458 C455 1.363 . S
C458 N456 1.356 . S
C459 C453 1.363 . S
C459 C454 1.379 1_655 S
C459 N457 1.356 . S
N460 C452 1.356 . S
N460 H466 0.984 . S
N460 H467 0.984 . S
N461 C454 1.356 . S
N461 H464 0.984 . S
N461 H465 0.985 . S
H462 N457 0.984 . S
H463 N457 0.985 . S
H464 N461 0.984 . S
H465 N461 0.985 . S
H466 N460 0.984 . S
H467 N460 0.984 . S
H468 N456 0.984 . S
H469 N456 0.985 . S
C470 C471 1.363 . S
C470 C476 1.379 1_545 S
C470 N478 1.356 . S
C471 C470 1.363 . S
C471 C477 1.363 . S
C472 C473 1.363 . S
C472 C477 1.379 1_565 S
C472 N479 1.356 . S
C473 C472 1.363 . S
C473 C476 1.363 . S
N474 C476 1.356 . S
N474 H486 0.984 . S
N474 H487 0.985 . S
N475 C477 1.356 . S
N475 H480 0.984 . S
N475 H481 0.985 . S
C476 C470 1.379 1_565 S
C476 C473 1.363 . S
C476 N474 1.356 . S
C477 C471 1.363 . S
C477 C472 1.379 1_545 S
C477 N475 1.356 . S
N478 C470 1.356 . S
N478 H484 0.984 . S
N478 H485 0.984 . S
N479 C472 1.356 . S
N479 H482 0.984 . S
N479 H483 0.985 . S
H480 N475 0.984 . S
H481 N475 0.985 . S
H482 N479 0.984 . S
H483 N479 0.985 . S
H484 N478 0.984 . S
H485 N478 0.984 . S
H486 N474 0.984 . S
H487 N474 0.985 . S
C488 C489 1.363 . S
C488 C494 1.379 . S
C488 N496 1.356 . S
C489 C488 1.363 . S
C489 C495 1.363 . S
C490 C491 1.363 . S
C490 C495 1.379 . S
C490 N497 1.356 . S
C491 C490 1.363 . S
C491 C494 1.363 . S
N492 C494 1.356 . S
N492 H504 0.984 . S
N492 H505 0.985 . S
N493 C495 1.356 . S
N493 H498 0.984 . S
N493 H499 0.985 . S
C494 C488 1.379 . S
C494 C491 1.363 . S
C494 N492 1.356 . S
C495 C489 1.363 . S
C495 C490 1.379 . S
C495 N493 1.356 . S
N496 C488 1.356 . S
N496 H502 0.984 . S
N496 H503 0.984 . S
N497 C490 1.356 . S
N497 H500 0.984 . S
N497 H501 0.985 . S
H498 N493 0.984 . S
H499 N493 0.985 . S
H500 N497 0.984 . S
H501 N497 0.985 . S
H502 N496 0.984 . S
H503 N496 0.984 . S
H504 N492 0.984 . S
H505 N492 0.985 . S
C506 C507 1.363 . S
C506 C512 1.379 . S
C506 N514 1.356 . S
C507 C506 1.363 . S
C507 C513 1.363 . S
C508 C509 1.363 . S
C508 C513 1.379 . S
C508 N515 1.356 . S
C509 C508 1.363 . S
C509 C512 1.363 . S
N510 C512 1.356 . S
N510 H522 0.984 . S
N510 H523 0.985 . S
N511 C513 1.356 . S
N511 H516 0.984 . S
N511 H517 0.985 . S
C512 C506 1.379 . S
C512 C509 1.363 . S
C512 N510 1.356 . S
C513 C507 1.363 . S
C513 C508 1.379 . S
C513 N511 1.356 . S
N514 C506 1.356 . S
N514 H520 0.984 . S
N514 H521 0.984 . S
N515 C508 1.356 . S
N515 H518 0.984 . S
N515 H519 0.985 . S
H516 N511 0.984 . S
H517 N511 0.985 . S
H518 N515 0.984 . S
H519 N515 0.985 . S
H520 N514 0.984 . S
H521 N514 0.984 . S
H522 N510 0.984 . S
H523 N510 0.985 . S
C524 C525 1.363 . S
C524 C530 1.379 . S
C524 N532 1.356 . S
C525 C524 1.363 . S
C525 C531 1.363 . S
C526 C527 1.363 . S
C526 C531 1.379 . S
C526 N533 1.356 . S
C527 C526 1.363 . S
C527 C530 1.363 . S
N528 C530 1.356 . S
N528 H540 0.984 . S
N528 H541 0.985 . S
N529 C531 1.356 . S
N529 H534 0.984 . S
N529 H535 0.985 . S
C530 C524 1.379 . S
C530 C527 1.363 . S
C530 N528 1.356 . S
C531 C525 1.363 . S
C531 C526 1.379 . S
C531 N529 1.356 . S
N532 C524 1.356 . S
N532 H538 0.984 . S
N532 H539 0.984 . S
N533 C526 1.356 . S
N533 H536 0.984 . S
N533 H537 0.985 . S
H534 N529 0.984 . S
H535 N529 0.985 . S
H536 N533 0.984 . S
H537 N533 0.985 . S
H538 N532 0.984 . S
H539 N532 0.984 . S
H540 N528 0.984 . S
H541 N528 0.985 . S
C542 C543 1.363 . S
C542 C548 1.379 . S
C542 N550 1.356 . S
C543 C542 1.363 . S
C543 C549 1.363 . S
C544 C545 1.363 . S
C544 C549 1.379 . S
C544 N551 1.356 . S
C545 C544 1.363 . S
C545 C548 1.363 . S
N546 C548 1.356 . S
N546 H558 0.984 . S
N546 H559 0.985 . S
N547 C549 1.356 . S
N547 H552 0.984 . S
N547 H553 0.985 . S
C548 C542 1.379 . S
C548 C545 1.363 . S
C548 N546 1.356 . S
C549 C543 1.363 . S
C549 C544 1.379 . S
C549 N547 1.356 . S
N550 C542 1.356 . S
N550 H556 0.984 . S
N550 H557 0.984 . S
N551 C544 1.356 . S
N551 H554 0.984 . S
N551 H555 0.985 . S
H552 N547 0.984 . S
H553 N547 0.985 . S
H554 N551 0.984 . S
H555 N551 0.985 . S
H556 N550 0.984 . S
H557 N550 0.984 . S
H558 N546 0.984 . S
H559 N546 0.985 . S
C560 C561 1.363 . S
C560 C566 1.379 . S
C560 N568 1.356 . S
C561 C560 1.363 . S
C561 C567 1.363 . S
C562 C563 1.363 . S
C562 C567 1.379 . S
C562 N569 1.356 . S
C563 C562 1.363 . S
C563 C566 1.363 . S
N564 C566 1.356 . S
N564 H576 0.984 . S
N564 H577 0.985 . S
N565 C567 1.356 . S
N565 H570 0.984 . S
N565 H571 0.985 . S
C566 C560 1.379 . S
C566 C563 1.363 . S
C566 N564 1.356 . S
C567 C561 1.363 . S
C567 C562 1.379 . S
C567 N565 1.356 . S
N568 C560 1.356 . S
N568 H574 0.984 . S
N568 H575 0.984 . S
N569 C562 1.356 . S
N569 H572 0.984 . S
N569 H573 0.985 . S
H570 N565 0.984 . S
H571 N565 0.985 . S
H572 N569 0.984 . S
H573 N569 0.985 . S
H574 N568 0.984 . S
H575 N568 0.984 . S
H576 N564 0.984 . S
H577 N564 0.985 . S
C578 C579 1.363 . S
C578 C584 1.379 . S
C578 N586 1.356 . S
C579 C578 1.363 . S
C579 C585 1.363 . S
C580 C581 1.363 . S
C580 C585 1.379 . S
C580 N587 1.356 . S
C581 C580 1.363 . S
C581 C584 1.363 . S
N582 C584 1.356 . S
N582 H594 0.984 . S
N582 H595 0.985 . S
N583 C585 1.356 . S
N583 H588 0.984 . S
N583 H589 0.985 . S
C584 C578 1.379 . S
C584 C581 1.363 . S
C584 N582 1.356 . S
C585 C579 1.363 . S
C585 C580 1.379 . S
C585 N583 1.356 . S
N586 C578 1.356 . S
N586 H592 0.984 . S
N586 H593 0.984 . S
N587 C580 1.356 . S
N587 H590 0.984 . S
N587 H591 0.985 . S
H588 N583 0.984 . S
H589 N583 0.985 . S
H590 N587 0.984 . S
H591 N587 0.985 . S
H592 N586 0.984 . S
H593 N586 0.984 . S
H594 N582 0.984 . S
H595 N582 0.985 . S
C596 C597 1.363 . S
C596 C602 1.379 . S
C596 N604 1.356 . S
C597 C596 1.363 . S
C597 C603 1.363 . S
C598 C599 1.363 . S
C598 C603 1.379 . S
C598 N605 1.356 . S
C599 C598 1.363 . S
C599 C602 1.363 . S
N600 C602 1.356 . S
N600 H612 0.984 . S
N600 H613 0.985 . S
N601 C603 1.356 . S
N601 H606 0.984 . S
N601 H607 0.985 . S
C602 C596 1.379 . S
C602 C599 1.363 . S
C602 N600 1.356 . S
C603 C597 1.363 . S
C603 C598 1.379 . S
C603 N601 1.356 . S
N604 C596 1.356 . S
N604 H610 0.984 . S
N604 H611 0.984 . S
N605 C598 1.356 . S
N605 H608 0.984 . S
N605 H609 0.985 . S
H606 N601 0.984 . S
H607 N601 0.985 . S
H608 N605 0.984 . S
H609 N605 0.985 . S
H610 N604 0.984 . S
H611 N604 0.984 . S
H612 N600 0.984 . S
H613 N600 0.985 . S
C614 C615 1.363 . S
C614 C620 1.379 . S
C614 N622 1.356 . S
C615 C614 1.363 . S
C615 C621 1.363 . S
C616 C617 1.363 . S
C616 C621 1.379 . S
C616 N623 1.356 . S
C617 C616 1.363 . S
C617 C620 1.363 . S
N618 C620 1.356 . S
N618 H630 0.984 . S
N618 H631 0.985 . S
N619 C621 1.356 . S
N619 H624 0.984 . S
N619 H625 0.985 . S
C620 C614 1.379 . S
C620 C617 1.363 . S
C620 N618 1.356 . S
C621 C615 1.363 . S
C621 C616 1.379 . S
C621 N619 1.356 . S
N622 C614 1.356 . S
N622 H628 0.984 . S
N622 H629 0.984 . S
N623 C616 1.356 . S
N623 H626 0.984 . S
N623 H627 0.985 . S
H624 N619 0.984 . S
H625 N619 0.985 . S
H626 N623 0.984 . S
H627 N623 0.985 . S
H628 N622 0.984 . S
H629 N622 0.984 . S
H630 N618 0.984 . S
H631 N618 0.985 . S
C632 C633 1.363 . S
C632 C638 1.379 . S
C632 N640 1.356 1_565 S
C633 C632 1.363 . S
C633 C639 1.364 1_556 S
C634 C635 1.363 . S
C634 C639 1.379 1_556 S
C634 N641 1.356 1_556 S
C635 C634 1.363 . S
C635 C638 1.363 . S
N636 C638 1.356 . S
N636 H648 0.984 . S
N636 H649 0.985 . S
N637 C639 1.355 . S
N637 H642 0.984 . S
N637 H643 0.985 . S
C638 C632 1.379 . S
C638 C635 1.363 . S
C638 N636 1.356 . S
C639 C633 1.364 1_554 S
C639 C634 1.379 1_554 S
C639 N637 1.355 . S
N640 C632 1.356 1_545 S
N640 H646 0.984 . S
N640 H647 0.984 . S
N641 C634 1.356 1_554 S
N641 H644 0.984 . S
N641 H645 0.985 . S
H642 N637 0.984 . S
H643 N637 0.985 . S
H644 N641 0.984 . S
H645 N641 0.985 . S
H646 N640 0.984 . S
H647 N640 0.984 . S
H648 N636 0.984 . S
H649 N636 0.985 . S
C650 C651 1.363 1_556 S
C650 C656 1.379 . S
C650 N658 1.356 . S
C651 C650 1.363 1_554 S
C651 C657 1.363 . S
C652 C653 1.363 . S
C652 C657 1.379 . S
C652 N659 1.356 . S
C653 C652 1.363 . S
C653 C656 1.363 1_554 S
N654 C656 1.356 . S
N654 H666 0.984 . S
N654 H667 0.985 . S
N655 C657 1.356 . S
N655 H660 0.984 1_655 S
N655 H661 0.985 . S
C656 C650 1.379 . S
C656 C653 1.363 1_556 S
C656 N654 1.356 . S
C657 C651 1.363 . S
C657 C652 1.379 . S
C657 N655 1.356 . S
N658 C650 1.356 . S
N658 H664 0.984 . S
N658 H665 0.984 1_655 S
N659 C652 1.356 . S
N659 H662 0.984 . S
N659 H663 0.985 . S
H660 N655 0.984 1_455 S
H661 N655 0.985 . S
H662 N659 0.984 . S
H663 N659 0.985 . S
H664 N658 0.984 . S
H665 N658 0.984 1_455 S
H666 N654 0.984 . S
H667 N654 0.985 . S
C668 C669 1.356 1_554 S
C668 C674 1.378 1_554 S
C668 N676 1.363 . S
C669 C668 1.356 1_556 S
C669 C675 1.363 . S
C670 C671 1.363 . S
C670 C675 1.379 . S
C670 N677 1.356 . S
C671 C670 1.363 . S
C671 C674 1.363 . S
N672 C674 1.356 1_554 S
N672 H684 0.984 . S
N672 H685 0.985 . S
N673 C675 1.356 1_565 S
N673 H678 0.984 . S
N673 H679 0.985 . S
C674 C668 1.378 1_556 S
C674 C671 1.363 . S
C674 N672 1.356 1_556 S
C675 C669 1.363 . S
C675 C670 1.379 . S
C675 N673 1.356 1_545 S
N676 C668 1.363 . S
N676 H682 0.984 . S
N676 H683 0.984 . S
N677 C670 1.356 . S
N677 H680 0.984 . S
N677 H681 0.985 . S
H678 N673 0.984 . S
H679 N673 0.985 . S
H680 N677 0.984 . S
H681 N677 0.985 . S
H682 N676 0.984 . S
H683 N676 0.984 . S
H684 N672 0.984 . S
H685 N672 0.985 . S
C686 C687 1.363 . S
C686 C692 1.379 . S
C686 N694 1.356 . S
C687 C686 1.363 . S
C687 C693 1.368 . S
C688 C689 1.363 . S
C688 C693 1.379 . S
C688 N695 1.356 1_554 S
C689 C688 1.363 . S
C689 C692 1.363 . S
N690 C692 1.356 . S
N690 H702 0.984 . S
N690 H703 0.985 . S
N691 C693 1.352 1_656 S
N691 H696 0.984 . S
N691 H697 0.985 . S
C692 C686 1.379 . S
C692 C689 1.363 . S
C692 N690 1.356 . S
C693 C687 1.368 . S
C693 C688 1.379 . S
C693 N691 1.352 1_454 S
N694 C686 1.356 . S
N694 H700 0.984 . S
N694 H701 0.984 . S
N695 C688 1.356 1_556 S
N695 H698 0.984 . S
N695 H699 0.985 . S
H696 N691 0.984 . S
H697 N691 0.985 . S
H698 N695 0.984 . S
H699 N695 0.985 . S
H700 N694 0.984 . S
H701 N694 0.984 . S
H702 N690 0.984 . S
H703 N690 0.985 . S
C704 C705 1.363 . S
C704 C710 1.379 . S
C704 N712 1.356 . S
C705 C704 1.363 . S
C705 C711 1.363 . S
C706 C707 1.363 . S
C706 C711 1.379 . S
C706 N713 1.356 . S
C707 C706 1.363 . S
C707 C710 1.363 . S
N708 C710 1.356 . S
N708 H720 0.984 . S
N708 H721 0.985 . S
N709 C711 1.356 . S
N709 H714 0.984 . S
N709 H715 0.985 . S
C710 C704 1.379 . S
C710 C707 1.363 . S
C710 N708 1.356 . S
C711 C705 1.363 . S
C711 C706 1.379 . S
C711 N709 1.356 . S
N712 C704 1.356 . S
N712 H718 0.984 . S
N712 H719 0.984 . S
N713 C706 1.356 . S
N713 H716 0.984 . S
N713 H717 0.985 . S
H714 N709 0.984 . S
H715 N709 0.985 . S
H716 N713 0.984 . S
H717 N713 0.985 . S
H718 N712 0.984 . S
H719 N712 0.984 . S
H720 N708 0.984 . S
H721 N708 0.985 . S
C722 C723 1.363 . S
C722 C728 1.379 . S
C722 N730 1.356 . S
C723 C722 1.363 . S
C723 C729 1.363 . S
C724 C725 1.363 . S
C724 C729 1.379 . S
C724 N731 1.356 . S
C725 C724 1.363 . S
C725 C728 1.363 . S
N726 C728 1.356 . S
N726 H738 0.984 . S
N726 H739 0.985 . S
N727 C729 1.356 . S
N727 H732 0.984 . S
N727 H733 0.985 . S
C728 C722 1.379 . S
C728 C725 1.363 . S
C728 N726 1.356 . S
C729 C723 1.363 . S
C729 C724 1.379 . S
C729 N727 1.356 . S
N730 C722 1.356 . S
N730 H736 0.984 . S
N730 H737 0.984 . S
N731 C724 1.356 . S
N731 H734 0.984 . S
N731 H735 0.985 . S
H732 N727 0.984 . S
H733 N727 0.985 . S
H734 N731 0.984 . S
H735 N731 0.985 . S
H736 N730 0.984 . S
H737 N730 0.984 . S
H738 N726 0.984 . S
H739 N726 0.985 . S
C740 C741 1.363 . S
C740 C746 1.379 . S
C740 N748 1.356 . S
C741 C740 1.363 . S
C741 C747 1.363 . S
C742 C743 1.363 . S
C742 C747 1.379 . S
C742 N749 1.356 . S
C743 C742 1.363 . S
C743 C746 1.363 . S
N744 C746 1.356 . S
N744 H756 0.984 . S
N744 H757 0.985 . S
N745 C747 1.356 . S
N745 H750 0.984 . S
N745 H751 0.985 . S
C746 C740 1.379 . S
C746 C743 1.363 . S
C746 N744 1.356 . S
C747 C741 1.363 . S
C747 C742 1.379 . S
C747 N745 1.356 . S
N748 C740 1.356 . S
N748 H754 0.984 . S
N748 H755 0.984 . S
N749 C742 1.356 . S
N749 H752 0.984 . S
N749 H753 0.985 . S
H750 N745 0.984 . S
H751 N745 0.985 . S
H752 N749 0.984 . S
H753 N749 0.985 . S
H754 N748 0.984 . S
H755 N748 0.984 . S
H756 N744 0.984 . S
H757 N744 0.985 . S
C758 C759 1.363 . S
C758 C764 1.379 . S
C758 N766 1.356 . S
C759 C758 1.363 . S
C759 C765 1.363 . S
C760 C761 1.363 . S
C760 C765 1.379 . S
C760 N767 1.356 . S
C761 C760 1.363 . S
C761 C764 1.363 . S
N762 C764 1.356 . S
N762 H774 0.984 . S
N762 H775 0.985 . S
N763 C765 1.356 . S
N763 H768 0.984 . S
N763 H769 0.985 . S
C764 C758 1.379 . S
C764 C761 1.363 . S
C764 N762 1.356 . S
C765 C759 1.363 . S
C765 C760 1.379 . S
C765 N763 1.356 . S
N766 C758 1.356 . S
N766 H772 0.984 . S
N766 H773 0.984 . S
N767 C760 1.356 . S
N767 H770 0.984 . S
N767 H771 0.985 . S
H768 N763 0.984 . S
H769 N763 0.985 . S
H770 N767 0.984 . S
H771 N767 0.985 . S
H772 N766 0.984 . S
H773 N766 0.984 . S
H774 N762 0.984 . S
H775 N762 0.985 . S
C273 C15 0.913 . S
C275 C239 0.852 . S
C291 C56 0.913 . S
C293 C139 0.852 . S
C309 C171 0.852 . S
C311 C83 0.913 . S
C327 C117 0.913 . S
C329 C207 0.852 . S
C345 C151 0.913 . S
C347 C105 0.852 . S
C363 C192 0.913 . S
C365 C3 0.852 . S
C381 C219 0.913 . S
C383 C35 0.852 . S
C399 C260 0.913 . S
C401 C71 0.852 . S
C417 C28 1.535 . S
C419 C96 1.535 . S
C435 C130 1.536 . S
C437 C40 1.536 . S
C453 C164 1.535 . S
C455 C232 1.535 . S
C471 C176 1.536 . S
C473 C244 1.536 . S
C489 C205 1.470 . S
C491 C22 1.639 . S
C507 C49 1.639 . S
C509 C241 1.470 . S
C525 C137 1.470 . S
C527 C90 1.639 . S
C543 C124 1.639 . S
C545 C173 1.470 . S
C561 C158 1.639 . S
C563 C69 1.470 . S
C579 C103 1.470 . S
C581 C185 1.639 . S
C597 C226 1.639 . S
C599 C1 1.470 . S
C615 C37 1.470 . S
C617 C253 1.639 . S
C633 C17 1.938 1_565 S
C635 C62 1.974 . S
C651 C51 1.938 1_655 S
C653 C74 1.974 . S
C669 C85 1.938 1_545 S
C671 C108 1.974 . S
C687 C119 1.938 1_455 S
C689 C6 1.974 . S
C705 C198 1.974 . S
C707 C153 1.938 . S
C723 C210 1.974 . S
C725 C187 1.938 . S
C741 C221 1.938 . S
C743 C266 1.974 . S
C759 C142 1.974 . S
C761 C255 1.938 . S
