# Generated by pormake.
# Topology wko, (6)-cn, num edge types: 1
# Building blocks:
#     Node 0, Type 0, BuildingBlock: IZENUY_clean_sbu_0, # of connection points: 6
#     Node 1, Type 0, BuildingBlock: IZENUY_clean_sbu_0, # of connection points: 6
#     Node 2, Type 0, BuildingBlock: IZENUY_clean_sbu_0, # of connection points: 6
#     Node 3, Type 0, BuildingBlock: IZENUY_clean_sbu_0, # of connection points: 6
#     Node 4, Type 0, BuildingBlock: IZENUY_clean_sbu_0, # of connection points: 6
#     Node 5, Type 0, BuildingBlock: IZENUY_clean_sbu_0, # of connection points: 6
#     Node 6, Type 0, BuildingBlock: IZENUY_clean_sbu_0, # of connection points: 6
#     Node 7, Type 0, BuildingBlock: IZENUY_clean_sbu_0, # of connection points: 6
#     Node 8, Type 0, BuildingBlock: IZENUY_clean_sbu_0, # of connection points: 6
#     Node 9, Type 0, BuildingBlock: IZENUY_clean_sbu_0, # of connection points: 6
#     Node 10, Type 0, BuildingBlock: IZENUY_clean_sbu_0, # of connection points: 6
#     Node 11, Type 0, BuildingBlock: IZENUY_clean_sbu_0, # of connection points: 6
#     Edge 12, Type (0, 0), BuildingBlock: CIFDUS_clean_linker_0, # of connection points: 2
#     Edge 13, Type (0, 0), BuildingBlock: CIFDUS_clean_linker_0, # of connection points: 2
#     Edge 14, Type (0, 0), BuildingBlock: CIFDUS_clean_linker_0, # of connection points: 2
#     Edge 15, Type (0, 0), BuildingBlock: CIFDUS_clean_linker_0, # of connection points: 2
#     Edge 16, Type (0, 0), BuildingBlock: CIFDUS_clean_linker_0, # of connection points: 2
#     Edge 17, Type (0, 0), BuildingBlock: CIFDUS_clean_linker_0, # of connection points: 2
#     Edge 18, Type (0, 0), BuildingBlock: CIFDUS_clean_linker_0, # of connection points: 2
#     Edge 19, Type (0, 0), BuildingBlock: CIFDUS_clean_linker_0, # of connection points: 2
#     Edge 20, Type (0, 0), BuildingBlock: CIFDUS_clean_linker_0, # of connection points: 2
#     Edge 21, Type (0, 0), BuildingBlock: CIFDUS_clean_linker_0, # of connection points: 2
#     Edge 22, Type (0, 0), BuildingBlock: CIFDUS_clean_linker_0, # of connection points: 2
#     Edge 23, Type (0, 0), BuildingBlock: CIFDUS_clean_linker_0, # of connection points: 2
#     Edge 24, Type (0, 0), BuildingBlock: CIFDUS_clean_linker_0, # of connection points: 2
#     Edge 25, Type (0, 0), BuildingBlock: CIFDUS_clean_linker_0, # of connection points: 2
#     Edge 26, Type (0, 0), BuildingBlock: CIFDUS_clean_linker_0, # of connection points: 2
#     Edge 27, Type (0, 0), BuildingBlock: CIFDUS_clean_linker_0, # of connection points: 2
#     Edge 28, Type (0, 0), BuildingBlock: CIFDUS_clean_linker_0, # of connection points: 2
#     Edge 29, Type (0, 0), BuildingBlock: CIFDUS_clean_linker_0, # of connection points: 2
#     Edge 30, Type (0, 0), BuildingBlock: CIFDUS_clean_linker_0, # of connection points: 2
#     Edge 31, Type (0, 0), BuildingBlock: CIFDUS_clean_linker_0, # of connection points: 2
#     Edge 32, Type (0, 0), BuildingBlock: CIFDUS_clean_linker_0, # of connection points: 2
#     Edge 33, Type (0, 0), BuildingBlock: CIFDUS_clean_linker_0, # of connection points: 2
#     Edge 34, Type (0, 0), BuildingBlock: CIFDUS_clean_linker_0, # of connection points: 2
#     Edge 35, Type (0, 0), BuildingBlock: CIFDUS_clean_linker_0, # of connection points: 2
#     Edge 36, Type (0, 0), BuildingBlock: CIFDUS_clean_linker_0, # of connection points: 2
#     Edge 37, Type (0, 0), BuildingBlock: CIFDUS_clean_linker_0, # of connection points: 2
#     Edge 38, Type (0, 0), BuildingBlock: CIFDUS_clean_linker_0, # of connection points: 2
#     Edge 39, Type (0, 0), BuildingBlock: CIFDUS_clean_linker_0, # of connection points: 2
#     Edge 40, Type (0, 0), BuildingBlock: CIFDUS_clean_linker_0, # of connection points: 2
#     Edge 41, Type (0, 0), BuildingBlock: CIFDUS_clean_linker_0, # of connection points: 2
#     Edge 42, Type (0, 0), BuildingBlock: CIFDUS_clean_linker_0, # of connection points: 2
#     Edge 43, Type (0, 0), BuildingBlock: CIFDUS_clean_linker_0, # of connection points: 2
#     Edge 44, Type (0, 0), BuildingBlock: CIFDUS_clean_linker_0, # of connection points: 2
#     Edge 45, Type (0, 0), BuildingBlock: CIFDUS_clean_linker_0, # of connection points: 2
#     Edge 46, Type (0, 0), BuildingBlock: CIFDUS_clean_linker_0, # of connection points: 2
#     Edge 47, Type (0, 0), BuildingBlock: CIFDUS_clean_linker_0, # of connection points: 2
# Relax obj value: 0.320
# Max RMSD: 0.278
# Mean RMSD: 0.278
data_MOF--net-wko--node1-IZENUY_clean_sbu_0--edge1-CIFDUS_clean_linker_0
_symmetry_space_group_name_H-M    P1
_symmetry_Int_Tables_number       1
_symmetry_cell_setting            triclinic
loop_
_symmetry_equiv_pos_as_xyz
'x, y, z'
_cell_length_a     39.674998
_cell_length_b     39.721364
_cell_length_c     26.024699
_cell_angle_alpha  90.213995
_cell_angle_beta   89.76992
_cell_angle_gamma 120.33719
loop_
_atom_site_label
_atom_site_type_symbol
_atom_site_fract_x
_atom_site_fract_y
_atom_site_fract_z
_atom_type_partial_charge
Fe0 Fe 0.39007 0.36129 0.40725 0.0
Fe1 Fe 0.35506 0.27869 0.45327 0.0
O2 O 0.39038 0.31695 0.41397 0.0
Fe3 Fe 0.42624 0.30997 0.38239 0.0
O4 O 0.46547 0.3613 0.38311 0.0
O5 O 0.44074 0.39147 0.42566 0.0
O6 O 0.37832 0.36305 0.47608 0.0
C7 C 0.37869 0.34339 0.51448 0.0
C8 C 0.40424 0.34243 0.30585 0.0
O9 O 0.37291 0.30927 0.50961 0.0
C10 C 0.3566 0.23605 0.37211 0.0
O11 O 0.33914 0.3367 0.38807 0.0
O12 O 0.31621 0.29057 0.44566 0.0
O13 O 0.40983 0.31539 0.32041 0.0
O14 O 0.40215 0.36576 0.33778 0.0
C15 C 0.42375 0.2792 0.47605 0.0
O16 O 0.33559 0.24536 0.39852 0.0
O17 O 0.39364 0.25689 0.37388 0.0
C18 C 0.31112 0.3121 0.41492 0.0
O19 O 0.38716 0.26008 0.47065 0.0
O20 O 0.44508 0.30453 0.44359 0.0
C21 C 0.46968 0.39084 0.40711 0.0
Fe22 Fe 0.13112 0.40195 0.54077 0.0
Fe23 Fe 0.04538 0.36909 0.57331 0.0
O24 O 0.08893 0.36671 0.57464 0.0
Fe25 Fe 0.08963 0.32976 0.61176 0.0
O26 O 0.12959 0.36551 0.6503 0.0
O27 O 0.16619 0.40617 0.58942 0.0
O28 O 0.13077 0.44328 0.57223 0.0
C29 C 0.10245 0.44924 0.56985 0.0
C30 C 0.13755 0.33641 0.52547 0.0
O31 O 0.06868 0.42124 0.56078 0.0
C32 C 1.01506 0.28699 0.57824 0.0
O33 O 0.10241 0.40245 0.48642 0.0
O34 O 0.04063 0.35894 0.50429 0.0
O35 O 0.12309 0.32363 0.56943 0.0
O36 O 0.13652 0.36496 0.50598 0.0
C37 C 0.05411 0.3588 0.67569 0.0
O38 O 1.01202 0.31692 0.58484 0.0
O39 O 0.04856 0.29045 0.57706 0.0
C40 C 0.06795 0.37802 0.47204 0.0
O41 O 0.04996 0.38012 0.64295 0.0
O42 O 0.05705 0.33014 0.66075 0.0
C43 C 0.16134 0.39406 0.63515 0.0
Fe44 Fe 0.68764 0.03003 0.73525 0.0
Fe45 Fe 0.77145 0.08397 0.77293 0.0
O46 O 0.72996 0.07718 0.7383 0.0
Fe47 Fe 0.7298 0.11678 0.70654 0.0
O48 O 0.68644 0.10973 0.74183 0.0
O49 O 0.65279 0.04697 0.72712 0.0
O50 O 0.68044 0.03002 0.80465 0.0
C51 C 0.70674 0.03596 0.83696 0.0
C52 C 0.69665 0.05475 0.63556 0.0
O53 O 0.74208 0.04974 0.82361 0.0
C54 C 0.80475 0.13241 0.68399 0.0
O55 O 0.71288 1.00248 0.74347 0.0
O56 O 0.77488 0.04598 0.73767 0.0
O57 O 0.70032 0.0864 0.65266 0.0
O58 O 0.69383 0.0286 0.66602 0.0
C59 C 0.77151 0.15148 0.79862 0.0
O60 O 0.80776 0.1201 0.72775 0.0
O61 O 0.77239 0.12736 0.66846 0.0
C62 C 0.74785 1.01074 0.73814 0.0
O63 O 0.77178 0.12143 0.81282 0.0
O64 O 0.7604 0.15407 0.7541 0.0
C65 C 0.65405 0.07811 0.74085 0.0
Fe66 Fe 0.72089 0.77352 0.93077 0.0
Fe67 Fe 0.64811 0.73403 0.85979 0.0
O68 O 0.68433 0.73188 0.89735 0.0
Fe69 Fe 0.68346 0.68682 0.90303 0.0
O70 O 0.67246 0.68459 0.97107 0.0
O71 O 0.72034 0.74484 0.9859 0.0
O72 O 0.68464 0.77879 0.96532 0.0
C73 C 0.65349 0.77635 0.9501 0.0
C74 C 0.76497 0.74111 0.90553 0.0
O75 O 0.64077 0.76572 0.90487 0.0
C76 C 0.67547 0.69219 0.8 0.0
O77 O 0.72629 0.80987 0.8821 0.0
O78 O 0.6838 0.7749 0.82239 0.0
O79 O 0.73563 0.70841 0.91616 0.0
O80 O 0.76126 0.77077 0.90041 0.0
C81 C 0.6025 0.65958 0.89567 0.0
O82 O 0.65043 0.70269 0.80877 0.0
O83 O 0.6945 0.68812 0.83589 0.0
C84 C 0.71164 0.80698 0.83792 0.0
O85 O 0.60767 0.69341 0.89337 0.0
O86 O 0.63119 0.65452 0.89035 0.0
C87 C 0.69327 0.71207 0.00181 0.0
Fe88 Fe 1.02134 0.68088 0.0808 0.0
Fe89 Fe 0.97308 0.71422 0.12611 0.0
O90 O 0.97659 0.68095 0.08394 0.0
Fe91 Fe 0.93587 0.64699 0.04674 0.0
O92 O 0.93751 0.60522 0.07238 0.0
O93 O 1.00015 0.62921 0.06286 0.0
O94 O 1.01672 0.66607 0.14763 0.0
C95 C 1.01209 0.6847 0.18371 0.0
C96 C 1.00255 0.67619 0.97984 0.0
O97 O 1.00531 0.71201 0.17435 0.0
C98 C 0.92639 0.71135 0.04044 0.0
O99 O 0.0525 0.73275 0.09787 0.0
O100 O 1.01345 0.75667 0.09556 0.0
O101 O 0.96695 0.65173 0.99074 0.0
O102 O 1.02729 0.69513 0.01445 0.0
C103 C 0.90428 0.64516 0.14484 0.0
O104 O 0.93896 0.7212 0.08593 0.0
O105 O 0.92934 0.68491 0.01748 0.0
C106 C 0.0476 0.76188 0.09606 0.0
O107 O 0.93427 0.67509 0.16088 0.0
O108 O 0.89894 0.63688 0.09734 0.0
C109 C 0.96635 0.60027 0.06969 0.0
Fe110 Fe 0.32738 0.92333 0.22632 0.0
Fe111 Fe 0.38007 1.0105 0.24741 0.0
O112 O 0.33406 0.96724 0.25416 0.0
Fe113 Fe 0.29651 0.96905 0.28953 0.0
O114 O 0.29041 0.93083 0.33199 0.0
O115 O 0.29838 0.89147 0.27993 0.0
O116 O 0.37024 0.92699 0.25786 0.0
C117 C 0.40423 0.95505 0.25053 0.0
C118 C 0.25532 0.91688 0.20601 0.0
O119 O 0.40887 0.98722 0.23599 0.0
C120 C 0.33003 0.04218 0.25009 0.0
O121 O 0.35468 0.94866 0.16755 0.0
O122 O 0.37172 1.01069 0.17897 0.0
O123 O 0.2559 0.93459 0.24715 0.0
O124 O 0.28453 0.91468 0.19205 0.0
C125 C 0.36513 1.00913 0.34994 0.0
O126 O 0.36266 0.04476 0.2568 0.0
O127 O 0.29931 1.00921 0.25184 0.0
C128 C 0.36361 0.982 0.14948 0.0
O129 O 0.3888 1.0102 0.31614 0.0
O130 O 0.33125 1.00263 0.33774 0.0
C131 C 0.28968 0.89936 0.32346 0.0
Fe132 Fe 0.70228 0.68274 0.3943 0.0
Fe133 Fe 0.78371 0.70037 0.35924 0.0
O134 O 0.74205 0.67436 0.39924 0.0
Fe135 Fe 0.74074 0.63942 0.44271 0.0
O136 O 0.68781 0.60549 0.43909 0.0
O137 O 0.6672 0.63174 0.38232 0.0
O138 O 0.70659 0.68882 0.32416 0.0
C139 C 0.72391 0.6791 0.29133 0.0
C140 C 0.70992 0.6748 0.50183 0.0
O141 O 0.75433 0.67807 0.30255 0.0
C142 C 0.81924 0.70364 0.44975 0.0
O143 O 0.73321 0.735 0.40529 0.0
O144 O 0.77894 0.74381 0.35094 0.0
O145 O 0.73508 0.66445 0.49693 0.0
O146 O 0.69175 0.67748 0.4635 0.0
C147 C 0.774 0.62575 0.35995 0.0
O148 O 0.81513 0.72334 0.41463 0.0
O149 O 0.79396 0.66762 0.45551 0.0
C150 C 0.76026 0.75698 0.37495 0.0
O151 O 0.79661 0.66215 0.35786 0.0
O152 O 0.74537 0.61142 0.39022 0.0
C153 C 0.66196 0.60285 0.40842 0.0
Fe154 Fe 0.07842 0.75436 0.55436 0.0
Fe155 Fe 0.1137 0.71353 0.61814 0.0
O156 O 0.07375 0.71216 0.58511 0.0
Fe157 Fe 1.02833 0.66776 0.58148 0.0
O158 O 1.0327 0.6661 0.51219 0.0
O159 O 0.04552 0.72652 0.50156 0.0
O160 O 0.11717 0.75832 0.5142 0.0
C161 C 0.14682 0.75641 0.52621 0.0
C162 C 1.00384 0.72382 0.58812 0.0
O163 O 0.15079 0.74549 0.57046 0.0
C164 C 0.04697 0.67118 0.68283 0.0
O165 O 0.11352 0.79034 0.60102 0.0
O166 O 0.12154 0.7543 0.65777 0.0
O167 O 0.99847 0.69066 0.57593 0.0
O168 O 0.03815 0.75288 0.59087 0.0
C169 C 0.08092 0.63927 0.5786 0.0
O170 O 0.08227 0.68222 0.67093 0.0
O171 O 1.02225 0.66773 0.64975 0.0
C172 C 0.12659 0.78683 0.64385 0.0
O173 O 0.11091 0.67247 0.58243 0.0
O174 O 0.04769 0.63492 0.58698 0.0
C175 C 0.03573 0.69311 0.48361 0.0
Fe176 Fe 0.37229 0.02364 0.75424 0.0
Fe177 Fe 0.33116 0.0665 0.7171 0.0
O178 O 0.36938 0.0669 0.75276 0.0
Fe179 Fe 0.4052 0.11002 0.78421 0.0
O180 O 0.44607 0.10936 0.75227 0.0
O181 O 0.42535 0.04751 0.76316 0.0
O182 O 0.3808 0.02683 0.6838 0.0
C183 C 0.35764 0.02936 0.65259 0.0
C184 C 0.38455 0.048 0.85513 0.0
O185 O 0.32923 0.03172 0.66994 0.0
C186 C 0.33995 0.11698 0.80095 0.0
O187 O 0.31919 0.98994 0.74658 0.0
O188 O 0.29336 0.02708 0.75549 0.0
O189 O 0.40697 0.08277 0.83973 0.0
O190 O 0.3649 1.02019 0.8238 0.0
C191 C 0.39612 0.13587 0.68736 0.0
O192 O 0.32661 0.10195 0.75746 0.0
O193 O 0.36881 0.11614 0.81973 0.0
C194 C 0.28939 0.99337 0.75416 0.0
O195 O 0.36598 0.1043 0.67543 0.0
O196 O 0.40853 0.14343 0.73311 0.0
C197 C 0.45285 0.08163 0.75399 0.0
Fe198 Fe 0.37751 0.369 0.91309 0.0
Fe199 Fe 0.29053 0.33235 0.88907 0.0
O200 O 0.3336 0.37041 0.91808 0.0
Fe201 Fe 0.33378 0.41015 0.95045 0.0
O202 O 0.37409 0.44736 0.91162 0.0
O203 O 0.41092 0.42134 0.91746 0.0
O204 O 0.37773 0.37425 0.84287 0.0
C205 C 0.34879 0.35198 0.81474 0.0
C206 C 0.37656 0.38744 0.01469 0.0
O207 O 0.3169 0.32663 0.83504 0.0
C208 C 0.26048 0.3504 0.97932 0.0
O209 O 0.35406 0.31605 0.90809 0.0
O210 O 0.29231 0.2938 0.92548 0.0
O211 O 0.36704 0.41216 0.00075 0.0
O212 O 0.37841 0.3642 0.98264 0.0
C213 C 0.28745 0.39806 0.86235 0.0
O214 O 0.25618 0.33258 0.93713 0.0
O215 O 0.29366 0.37799 0.99258 0.0
C216 C 0.32121 0.28855 0.92231 0.0
O217 O 0.28582 0.36674 0.84936 0.0
O218 O 0.30018 0.41379 0.90568 0.0
C219 C 0.40705 0.45011 0.90715 0.0
Fe220 Fe 1.02943 0.37518 0.07845 0.0
Fe221 Fe 0.97919 0.29199 0.03651 0.0
O222 O 0.98358 0.33143 0.07398 0.0
Fe223 Fe 0.94285 0.32849 0.10705 0.0
O224 O 0.94744 0.37131 0.07358 0.0
O225 O 1.00963 0.4072 0.09057 0.0
O226 O 1.02813 0.38427 0.01018 0.0
C227 C 1.02267 0.35969 0.97535 0.0
C228 C 1.00448 0.3624 0.17805 0.0
O229 O 1.01207 0.32444 0.98594 0.0
C230 C 0.93192 0.25493 0.12599 0.0
O231 O 0.05988 0.35329 0.06626 0.0
O232 O 1.01914 0.29058 0.06931 0.0
O233 O 0.97242 0.3579 0.16144 0.0
O234 O 1.03126 0.36695 0.14703 0.0
C235 C 0.90902 0.28761 0.01429 0.0
O236 O 0.9447 0.25345 0.0815 0.0
O237 O 0.935 0.28622 0.14288 0.0
C238 C 0.05377 0.31897 0.0694 0.0
O239 O 0.93995 0.2896 -0.0014 0.0
O240 O 0.90604 0.2974 0.05953 0.0
C241 C 0.97813 0.40444 0.07561 0.0
Fe242 Fe 0.69575 0.02317 0.24262 0.0
Fe243 Fe 0.72849 0.97466 0.19523 0.0
O244 O 0.6927 0.97727 0.23374 0.0
Fe245 Fe 0.65325 0.93488 0.26232 0.0
O246 O 0.61608 0.94276 0.23316 0.0
O247 O 0.64387 1.00412 0.25442 0.0
O248 O 0.68659 0.02514 0.1744 0.0
C249 C 0.70596 1.02066 0.13889 0.0
C250 C 0.68161 0.99362 0.33993 0.0
O251 O 0.73101 1.01066 0.14895 0.0
C252 C 0.71421 0.92045 0.27698 0.0
O253 O 0.74848 0.05313 0.23224 0.0
O254 O 0.76957 1.012 0.23204 0.0
O255 O 0.65515 0.96119 0.32158 0.0
O256 O 0.7043 1.02179 0.31093 0.0
C257 C 0.65966 0.90933 0.16303 0.0
O258 O 0.73055 0.93694 0.23491 0.0
O259 O 0.6856 0.92239 0.29439 0.0
C260 C 0.77648 0.04669 0.2342 0.0
O261 O 0.692 0.93904 0.15341 0.0
O262 O 0.64552 0.90184 0.20797 0.0
C263 C 0.61426 0.97317 0.23953 0.0
H264 H 0.43664 0.2195 0.47696 0.0
H265 H 0.44275 0.31207 0.57012 0.0
H266 H 0.44163 0.27749 0.6484 0.0
H267 H 0.42366 0.2142 0.68871 0.0
H268 H 0.41366 0.12054 0.59369 0.0
H269 H 0.43192 0.16196 0.51786 0.0
C270 C 0.43976 0.23283 0.51446 0.0
C271 C 0.4402 0.26815 0.51831 0.0
C272 C 0.43718 0.21192 0.55892 0.0
C273 C 0.44315 0.28508 0.56672 0.0
C274 C 0.44184 0.265 0.61138 0.0
C275 C 0.42669 0.20347 0.65159 0.0
C276 C 0.41618 0.16422 0.64605 0.0
C277 C 0.43653 0.22736 0.60788 0.0
C278 C 0.42034 0.15038 0.59811 0.0
C279 C 0.43102 0.17409 0.55488 0.0
H280 H 0.30149 0.41216 0.76185 0.0
H281 H 0.23085 0.41476 0.88624 0.0
H282 H 0.18701 0.41979 0.82464 0.0
H283 H 0.16313 0.41129 0.73563 0.0
H284 H 0.23403 0.40865 0.61152 0.0
H285 H 0.28425 0.41669 0.67267 0.0
C286 C 0.27722 0.41521 0.77525 0.0
C287 C 0.26891 0.41286 0.82796 0.0
C288 C 0.25217 0.41762 0.73976 0.0
C289 C 0.23765 0.41681 0.84559 0.0
C290 C 0.21247 0.41926 0.81044 0.0
C291 C 0.19006 0.41346 0.72214 0.0
C292 C 0.19491 0.40877 0.66968 0.0
C293 C 0.21851 0.41784 0.75748 0.0
C294 C 0.22994 0.41222 0.65195 0.0
C295 C 0.25844 0.41652 0.68686 0.0
H296 H 0.90293 0.29633 0.91223 0.0
H297 H 0.83741 0.22994 0.04418 0.0
H298 H 0.785 0.18336 0.98819 0.0
H299 H 0.76349 0.1562 0.90116 0.0
H300 H 0.82743 0.224 0.76925 0.0
H301 H 0.87446 0.27588 0.82557 0.0
C302 C 0.8766 0.27226 0.92861 0.0
C303 C 0.87399 0.26622 0.982 0.0
C304 C 0.84655 0.24578 0.89619 0.0
C305 C 0.83983 0.23517 0.00313 0.0
C306 C 0.81006 0.20837 0.97112 0.0
C307 C 0.78704 0.18295 0.88492 0.0
C308 C 0.79229 0.18636 0.83137 0.0
C309 C 0.81385 0.21259 0.91753 0.0
C310 C 0.82275 0.22099 0.81044 0.0
C311 C 0.84985 0.25043 0.84263 0.0
H312 H 0.6285 0.83036 0.15962 0.0
H313 H 0.64812 0.92902 0.0688 0.0
H314 H 0.63919 0.89232 0.98976 0.0
H315 H 0.64155 0.83778 0.94784 0.0
H316 H 0.62144 0.73882 0.03826 0.0
H317 H 0.61353 0.76906 0.11575 0.0
C318 C 0.62912 0.8431 0.12258 0.0
C319 C 0.64024 0.8826 0.11961 0.0
C320 C 0.62432 0.8218 0.07712 0.0
C321 C 0.64088 0.89893 0.07153 0.0
C322 C 0.6357 0.87794 0.02636 0.0
C323 C 0.63344 0.82214 0.98405 0.0
C324 C 0.63261 0.7866 0.98792 0.0
C325 C 0.62977 0.84015 0.02865 0.0
C326 C 0.62254 0.76655 0.03495 0.0
C327 C 0.61832 0.78394 0.07929 0.0
H328 H 0.83241 0.61006 0.35827 0.0
H329 H 0.73046 0.5902 0.2761 0.0
H330 H 0.7607 0.58852 0.19414 0.0
H331 H 0.82388 0.61113 0.14734 0.0
H332 H 0.92268 0.62419 0.23285 0.0
H333 H 0.88558 0.60841 0.31236 0.0
C334 C 0.81593 0.60297 0.32274 0.0
C335 C 0.78021 0.60199 0.32211 0.0
C336 C 0.83338 0.60159 0.27646 0.0
C337 C 0.75878 0.59246 0.27635 0.0
C338 C 0.77617 0.59171 0.22971 0.0
C339 C 0.83652 0.60866 0.18299 0.0
C340 C 0.87637 0.62044 0.18485 0.0
C341 C 0.81475 0.59921 0.2291 0.0
C342 C 0.89235 0.61655 0.23108 0.0
C343 C 0.8712 0.60753 0.27662 0.0
H344 H 0.22079 0.81754 0.53287 0.0
H345 H 0.14023 0.72727 0.43094 0.0
H346 H 0.18252 0.76064 0.35747 0.0
H347 H 0.23561 0.82177 0.32064 0.0
H348 H 0.31243 0.91482 0.42232 0.0
H349 H 0.27936 0.87434 0.49703 0.0
C350 C 0.21351 0.80454 0.49485 0.0
C351 C 0.17784 0.76999 0.48713 0.0
C352 C 0.23707 0.82492 0.45242 0.0
C353 C 0.16791 0.75375 0.43758 0.0
C354 C 0.19187 0.77302 0.39552 0.0
C355 C 0.24583 0.8325 0.35916 0.0
C356 C 0.27616 0.87111 0.36614 0.0
C357 C 0.22558 0.80956 0.4021 0.0
C358 C 0.28891 0.88511 0.41621 0.0
C359 C 0.26992 0.86207 0.45895 0.0
H360 H 0.48613 0.46568 0.40022 0.0
H361 H 0.54074 0.39625 0.41812 0.0
H362 H 0.60519 0.45566 0.42172 0.0
H363 H 0.64611 0.52781 0.41942 0.0
H364 H 0.59111 0.59615 0.39328 0.0
H365 H 0.52692 0.53695 0.39307 0.0
C366 C 0.51216 0.4636 0.4052 0.0
C367 C 0.50869 0.42668 0.40954 0.0
C368 C 0.54909 0.49777 0.40552 0.0
C369 C 0.5427 0.42436 0.41485 0.0
C370 C 0.57951 0.45833 0.41693 0.0
C371 C 0.62001 0.52963 0.41369 0.0
C372 C 0.62338 0.56637 0.40662 0.0
C373 C 0.5831 0.49524 0.41225 0.0
C374 C 0.58937 0.56827 0.39857 0.0
C375 C 0.55261 0.53442 0.39865 0.0
H376 H 0.05139 0.47054 0.53795 0.0
H377 H 0.16583 0.51839 0.60503 0.0
H378 H 0.17116 0.58282 0.61045 0.0
H379 H 0.14085 0.62467 0.60008 0.0
H380 H 1.02577 0.57335 0.53335 0.0
H381 H 1.02344 0.51142 0.52354 0.0
C382 C 0.07767 0.49492 0.55386 0.0
C383 C 0.10798 0.48932 0.57164 0.0
C384 C 0.08041 0.53147 0.55682 0.0
C385 C 0.14195 0.5217 0.59124 0.0
C386 C 0.14494 0.55855 0.59437 0.0
C387 C 0.11559 0.60004 0.58273 0.0
C388 C 0.08337 0.60373 0.56778 0.0
C389 C 0.11409 0.56374 0.57776 0.0
C390 C 0.05078 0.57139 0.54565 0.0
C391 C 0.04936 0.53584 0.54003 0.0
H392 H 0.63342 0.13497 0.7272 0.0
H393 H 0.58825 1.01605 0.77639 0.0
H394 H 0.52316 1.00693 0.78448 0.0
H395 H 0.47794 0.03085 0.77457 0.0
H396 H 0.52041 0.14926 0.72578 0.0
H397 H 0.58703 0.16023 0.72043 0.0
C398 C 0.60941 0.10731 0.74037 0.0
C399 C 0.61599 0.0762 0.75096 0.0
C400 C 0.57124 0.10189 0.74444 0.0
C401 C 0.58426 0.04045 0.76757 0.0
C402 C 0.54683 0.0351 0.77217 0.0
C403 C 0.50163 0.05915 0.76264 0.0
C404 C 0.49377 0.08903 0.75025 0.0
C405 C 0.5398 0.06531 0.75997 0.0
C406 C 0.5253 0.12556 0.73541 0.0
C407 C 0.56353 0.13188 0.73242 0.0
H408 H 0.42499 0.52611 0.927 0.0
H409 H 0.47128 0.45804 0.8605 0.0
H410 H 0.53504 0.51627 0.85112 0.0
H411 H 0.57914 0.58556 0.86618 0.0
H412 H 0.53507 0.65594 0.93079 0.0
H413 H 0.46944 0.59817 0.93661 0.0
C414 C 0.44887 0.52426 0.90962 0.0
C415 C 0.44325 0.48754 0.89482 0.0
C416 C 0.48617 0.55824 0.90469 0.0
C417 C 0.47472 0.48573 0.87267 0.0
C418 C 0.51136 0.51906 0.86738 0.0
C419 C 0.55526 0.58839 0.88164 0.0
C420 C 0.56226 0.62503 0.89862 0.0
C421 C 0.51768 0.55528 0.88425 0.0
C422 C 0.53063 0.62808 0.91765 0.0
C423 C 0.49304 0.59501 0.92094 0.0
H424 H 0.91922 0.42181 0.09029 0.0
H425 H 0.03852 0.47089 0.03912 0.0
H426 H 0.04518 0.53497 0.03213 0.0
H427 H 1.01908 0.57829 0.04476 0.0
H428 H 0.90017 0.5314 0.09603 0.0
H429 H 0.89154 0.46583 0.09882 0.0
C430 C 0.94638 0.44644 0.07685 0.0
C431 C 0.97838 0.44144 0.06553 0.0
C432 C 0.95036 0.4839 0.07354 0.0
C433 C 1.0135 0.47385 0.04854 0.0
C434 C 1.01743 0.51065 0.04458 0.0
C435 C 0.99119 0.55381 0.05654 0.0
C436 C 0.96047 0.56006 0.07051 0.0
C437 C 0.98639 0.51622 0.05789 0.0
C438 C 0.92445 0.52765 0.08515 0.0
C439 C 0.91947 0.49004 0.08674 0.0
H440 H 0.47829 1.00977 0.22792 0.0
H441 H 0.40862 0.88921 0.27346 0.0
H442 H 0.46713 0.88286 0.27088 0.0
H443 H 0.53912 0.91281 0.25702 0.0
H444 H 0.60615 0.03384 0.21223 0.0
H445 H 0.54736 0.03843 0.21232 0.0
C446 C 0.47557 0.98192 0.23739 0.0
C447 C 0.43896 0.95004 0.25105 0.0
C448 C 0.50896 0.97852 0.23549 0.0
C449 C 0.43641 0.91432 0.26302 0.0
C450 C 0.46986 0.91066 0.26135 0.0
C451 C 0.54059 0.93993 0.24664 0.0
C452 C 0.57701 0.97299 0.23469 0.0
C453 C 0.50641 0.94265 0.24762 0.0
C454 C 0.57859 1.00808 0.22185 0.0
C455 C 0.54499 1.01078 0.22198 0.0
H456 H 0.31979 0.33385 0.57548 0.0
H457 H 0.44419 0.38192 0.57236 0.0
H458 H 0.44734 0.39179 0.66586 0.0
H459 H 0.41309 0.38037 0.75004 0.0
H460 H 0.28774 0.32903 0.75072 0.0
H461 H 0.28661 0.32726 0.65756 0.0
C462 C 0.34766 0.34761 0.59527 0.0
C463 C 0.38179 0.358 0.56736 0.0
C464 C 0.34896 0.35197 0.64899 0.0
C465 C 0.41768 0.37462 0.59325 0.0
C466 C 0.41938 0.37982 0.64672 0.0
C467 C 0.38568 0.36911 0.72968 0.0
C468 C 0.35052 0.35413 0.75763 0.0
C469 C 0.38501 0.36761 0.67533 0.0
C470 C 0.31522 0.33991 0.73048 0.0
C471 C 0.31445 0.33904 0.67698 0.0
H472 H 0.07025 0.34935 0.91324 0.0
H473 H 0.99368 0.39652 0.9171 0.0
H474 H 0.99891 0.40469 0.8231 0.0
H475 H 1.01991 0.3907 0.7383 0.0
H476 H 0.09653 0.34287 0.73999 0.0
H477 H 0.0975 0.34379 0.83244 0.0
C478 C 0.0554 0.36219 0.89348 0.0
C479 C 1.03159 0.37216 0.92144 0.0
C480 C 0.05841 0.36653 0.84007 0.0
C481 C 1.01245 0.38888 0.89591 0.0
C482 C 1.0152 0.39324 0.84223 0.0
C483 C 0.03725 0.38119 0.75907 0.0
C484 C 0.05754 0.36614 0.73188 0.0
C485 C 0.03728 0.38106 0.81353 0.0
C486 C 0.08007 0.35406 0.75953 0.0
C487 C 0.08072 0.35447 0.81273 0.0
H488 H 0.67943 0.06267 0.91366 0.0
H489 H 0.71518 0.97916 0.87825 0.0
H490 H 0.7174 0.96676 0.96957 0.0
H491 H 0.71695 0.98528 0.05831 0.0
H492 H 0.67915 0.06666 0.09727 0.0
H493 H 0.67068 0.0751 0.00552 0.0
C494 C 0.68633 0.04084 0.92623 0.0
C495 C 0.69673 1.02145 0.88974 0.0
C496 C 0.68847 0.03456 0.97909 0.0
C497 C 0.70663 0.99392 0.90598 0.0
C498 C 0.70838 0.98723 0.95806 0.0
C499 C 0.70669 1.00481 0.04689 0.0
C500 C 0.69937 0.02587 0.08435 0.0
C501 C 0.70079 1.00843 -0.00521 0.0
C502 C 0.68534 0.05042 0.06899 0.0
C503 C 0.68037 0.0551 0.01663 0.0
H504 H 0.70213 0.72391 0.24112 0.0
H505 H 0.72159 0.62749 0.22045 0.0
H506 H 0.70721 0.62483 0.12902 0.0
H507 H 0.69517 0.6543 0.05342 0.0
H508 H 0.68679 0.75755 0.07298 0.0
H509 H 0.68981 0.75303 0.16619 0.0
C510 C 0.70253 0.70194 0.21661 0.0
C511 C 0.71252 0.67564 0.23722 0.0
C512 C 0.69608 0.70193 0.16382 0.0
C513 C 0.7139 0.64788 0.20523 0.0
C514 C 0.70567 0.6464 0.15298 0.0
C515 C 0.69311 0.6751 0.07845 0.0
C516 C 0.6898 0.70558 0.05716 0.0
C517 C 0.6975 0.6738 0.13166 0.0
C518 C 0.68843 0.73336 0.08918 0.0
C519 C 0.69054 0.731 0.14228 0.0
H520 H 0.05701 0.66085 0.40719 0.0
H521 H 0.98238 0.70759 0.44323 0.0
H522 H 0.96559 0.70523 0.35279 0.0
H523 H 0.97808 0.69745 0.26385 0.0
H524 H 0.05422 0.65324 0.22422 0.0
H525 H 0.06457 0.64681 0.31591 0.0
C526 C 0.03644 0.6696 0.39497 0.0
C527 C 1.02097 0.68452 0.43108 0.0
C528 C 1.02787 0.6693 0.34259 0.0
C529 C 0.99466 0.69624 0.41555 0.0
C530 C 0.9852 0.69503 0.36403 0.0
C531 C 0.9969 0.68629 0.27521 0.0
C532 C 1.01613 0.67669 0.23772 0.0
C533 C 1.00271 0.68296 0.32724 0.0
C534 C 0.03948 0.66118 0.25271 0.0
C535 C 0.04539 0.65758 0.30498 0.0
H536 H 0.34501 0.04757 0.41568 0.0
H537 H 0.40975 0.98753 0.40653 0.0
H538 H 0.41649 0.99039 0.50078 0.0
H539 H 0.39733 1.0046 0.58716 0.0
H540 H 0.32967 0.0625 0.58962 0.0
H541 H 0.33114 0.06599 0.49759 0.0
C542 C 0.36113 0.03559 0.43423 0.0
C543 C 0.37662 1.01722 0.40451 0.0
C544 C 0.36401 0.03657 0.48774 0.0
C545 C 0.39777 1.00214 0.42885 0.0
C546 C 0.40125 1.00342 0.48274 0.0
C547 C 0.38326 1.01816 0.56739 0.0
C548 C 0.36286 0.03255 0.59585 0.0
C549 C 0.38346 1.01966 0.51291 0.0
C550 C 0.34494 0.05029 0.56933 0.0
C551 C 0.34583 0.05262 0.5163 0.0
H552 H 0.38399 0.21735 0.28784 0.0
H553 H 0.2905 0.16739 0.39886 0.0
H554 H 0.26924 0.10195 0.36494 0.0
H555 H 0.28327 0.05832 0.3112 0.0
H556 H 0.37768 0.10972 0.20152 0.0
H557 H 0.39183 0.17487 0.22633 0.0
C558 C 0.35853 0.19219 0.30406 0.0
C559 C 0.33918 0.19728 0.34624 0.0
C560 C 0.34657 0.15473 0.28441 0.0
C561 C 0.30596 0.16439 0.36639 0.0
C562 C 0.29391 0.12688 0.34712 0.0
C563 C 0.30587 0.08375 0.29137 0.0
C564 C 0.32923 0.07911 0.25419 0.0
C565 C 0.31467 0.12153 0.30703 0.0
C566 C 0.3591 0.11247 0.22985 0.0
C567 C 0.3675 0.1498 0.24444 0.0
H568 H 0.2473 0.26865 0.47563 0.0
H569 H 0.29379 0.36237 0.36514 0.0
H570 H 0.24143 0.3756 0.38545 0.0
H571 H 0.18719 0.36592 0.4424 0.0
H572 H 0.14204 0.27273 0.55377 0.0
H573 H 0.18872 0.25402 0.52493 0.0
C574 C 0.24565 0.29151 0.45515 0.0
C575 C 0.27494 0.31469 0.41925 0.0
C576 C 0.2158 0.29948 0.46766 0.0
C577 C 0.27193 0.34406 0.39311 0.0
C578 C 0.24202 0.35184 0.40493 0.0
C579 C 0.18701 0.34104 0.4597 0.0
C580 C 0.16126 0.32119 0.50079 0.0
C581 C 0.21449 0.33057 0.44335 0.0
C582 C 0.16161 0.28893 0.5225 0.0
C583 C 0.18844 0.27816 0.50609 0.0
H584 H 0.87895 0.14299 0.69281 0.0
H585 H 0.81102 0.17904 0.60373 0.0
H586 H 0.86942 0.22627 0.55816 0.0
H587 H 0.94078 0.26279 0.54989 0.0
H588 H 1.00969 0.22681 0.63595 0.0
H589 H 0.95024 0.17386 0.6751 0.0
C590 C 0.87686 0.16084 0.663 0.0
C591 C 0.8404 0.1576 0.65256 0.0
C592 C 0.91087 0.18807 0.63608 0.0
C593 C 0.83842 0.18078 0.61316 0.0
C594 C 0.87195 0.208 0.58691 0.0
C595 C 0.94268 0.24261 0.57606 0.0
C596 C 0.97966 0.24876 0.5898 0.0
C597 C 0.90843 0.21257 0.59884 0.0
C598 C 0.98164 0.22248 0.62403 0.0
C599 C 0.9476 0.19249 0.64704 0.0
H600 H 0.71149 0.93711 0.70019 0.0
H601 H 0.80067 1.01275 0.80686 0.0
H602 H 0.80014 0.95639 0.84576 0.0
H603 H 0.76741 0.88433 0.85684 0.0
H604 H 0.67998 0.80994 0.74648 0.0
H605 H 0.68722 0.86668 0.70175 0.0
C606 C 0.73179 0.94135 0.73076 0.0
C607 C 0.75627 0.97914 0.75024 0.0
C608 C 0.73116 0.90876 0.75311 0.0
C609 C 0.78207 0.98411 0.79038 0.0
C610 C 0.78134 0.95173 0.81318 0.0
C611 C 0.75053 0.8805 0.82243 0.0
C612 C 0.72262 0.84247 0.80604 0.0
C613 C 0.75499 0.91369 0.79603 0.0
C614 C 0.70136 0.83849 0.76085 0.0
C615 C 0.70539 0.87108 0.735 0.0
H616 H 0.81666 0.77878 0.98267 0.0
H617 H 0.79661 0.70647 0.84957 0.0
H618 H 0.84787 0.69349 0.87716 0.0
H619 H 0.89193 0.69537 0.94509 0.0
H620 H 0.90945 0.76501 0.08091 0.0
H621 H 0.86615 0.7863 0.0465 0.0
C622 C 0.82477 0.76159 0.95868 0.0
C623 C 0.8036 0.7445 0.91332 0.0
C624 C 0.85322 0.75284 0.97611 0.0
C625 C 0.8132 0.72081 0.88382 0.0
C626 C 0.84215 0.71292 0.90005 0.0
C627 C 0.88682 0.71566 0.96694 0.0
C628 C 0.90388 0.7281 0.016 0.0
C629 C 0.86137 0.72759 0.9471 0.0
C630 C 0.89674 0.75458 0.04332 0.0
C631 C 0.87185 0.76685 0.02362 0.0
H632 H 0.17889 0.89845 0.22677 0.0
H633 H 0.25035 0.88525 0.11177 0.0
H634 H 0.19268 0.83977 0.06445 0.0
H635 H 0.12175 0.79685 0.06059 0.0
H636 H 0.04864 0.81065 0.17119 0.0
H637 H 0.10655 0.86275 0.21422 0.0
C638 C 0.18186 0.88622 0.1909 0.0
C639 C 0.21926 0.89481 0.17404 0.0
C640 C 0.14807 0.85982 0.16281 0.0
C641 C 0.22222 0.87879 0.12687 0.0
C642 C 0.18911 0.85263 0.09936 0.0
C643 C 0.1185 0.81216 0.09314 0.0
C644 C 0.081 0.80002 0.11244 0.0
C645 C 0.15188 0.84195 0.11772 0.0
C646 C 0.0772 0.81987 0.15498 0.0
C647 C 0.11039 0.84936 0.18005 0.0
H648 H 0.99384 0.77019 0.52051 0.0
H649 H 0.93534 0.68421 0.63882 0.0
H650 H 0.87209 0.67288 0.60906 0.0
H651 H 0.83307 0.67965 0.54107 0.0
H652 H 0.89098 0.76427 0.42079 0.0
H653 H 0.95443 0.78392 0.45942 0.0
C654 C 0.96736 0.75038 0.5412 0.0
C655 C 0.96934 0.72859 0.58251 0.0
C656 C 0.93078 0.74286 0.52244 0.0
C657 C 0.93462 0.70188 0.60769 0.0
C658 C 0.89838 0.69496 0.59013 0.0
C659 C 0.85953 0.70286 0.52375 0.0
C660 C 0.85714 0.72004 0.47765 0.0
C661 C 0.89601 0.71399 0.54617 0.0
C662 C 0.89179 0.75041 0.45616 0.0
C663 C 0.9282 0.76161 0.4782 0.0
H664 H 0.14105 0.8629 0.63774 0.0
H665 H 0.17294 0.78989 0.72261 0.0
H666 H 0.2229 0.84641 0.76812 0.0
H667 H 0.26277 0.9175 0.77804 0.0
H668 H 0.23018 0.99142 0.69782 0.0
H669 H 0.1754 0.93413 0.65765 0.0
C670 C 0.15853 0.85928 0.66669 0.0
C671 C 0.15319 0.82182 0.6758 0.0
C672 C 0.18739 0.89229 0.69389 0.0
C673 C 0.17612 0.81802 0.7141 0.0
C674 C 0.20499 0.85051 0.74036 0.0
C675 C 0.24301 0.921 0.7529 0.0
C676 C 0.25067 0.9588 0.74123 0.0
C677 C 0.21155 0.88788 0.72981 0.0
C678 C 0.2248 0.96273 0.70824 0.0
C679 C 0.19366 0.9299 0.68464 0.0
H680 H 0.36434 0.15934 0.89093 0.0
H681 H 0.28062 0.12782 0.76831 0.0
H682 H 0.26147 0.17315 0.80154 0.0
H683 H 0.27506 0.22878 0.858 0.0
H684 H 0.36073 0.26243 0.9778 0.0
H685 H 0.3716 0.20897 0.95428 0.0
C686 C 0.34141 0.16182 0.87193 0.0
C687 C 0.32448 0.14033 0.82657 0.0
C688 C 0.33066 0.18848 0.89101 0.0
C689 C 0.29462 0.14405 0.80291 0.0
C690 C 0.28355 0.1701 0.82192 0.0
C691 C 0.29474 0.22321 0.88039 0.0
C692 C 0.31644 0.24906 0.92035 0.0
C693 C 0.30213 0.19334 0.86506 0.0
C694 C 0.34305 0.24243 0.94768 0.0
C695 C 0.34971 0.21218 0.93367 0.0
H696 H 0.18341 0.29148 0.96906 0.0
H697 H 0.25772 0.39527 0.05717 0.0
H698 H 0.20065 0.3926 0.09627 0.0
H699 H 0.12944 0.3653 0.09886 0.0
H700 H 0.05428 0.26012 0.01452 0.0
H701 H 0.11142 0.25857 0.98153 0.0
C702 C 0.1872 0.31312 -0.0025 0.0
C703 C 0.22526 0.3438 0.00942 0.0
C704 C 0.15388 0.31134 0.02054 0.0
C705 C 0.22917 0.37133 0.04678 0.0
C706 C 0.19637 0.36998 0.06919 0.0
C707 C 0.12551 0.3415 0.07423 0.0
C708 C 0.08746 0.31289 0.05928 0.0
C709 C 0.15858 0.34076 0.05542 0.0
C710 C 0.08305 0.2823 0.02724 0.0
C711 C 0.11585 0.28164 0.00787 0.0
H712 H 0.81051 0.12049 0.27042 0.0
H713 H 0.8281 0.04835 0.16252 0.0
H714 H 0.88015 0.10666 0.12013 0.0
H715 H 0.91451 0.17879 0.10679 0.0
H716 H 0.89653 0.24943 0.21791 0.0
H717 H 0.85146 0.19157 0.26543 0.0
C718 C 0.82669 0.11752 0.23874 0.0
C719 C 0.81553 0.08005 0.22001 0.0
C720 C 0.85614 0.15118 0.21411 0.0
C721 C 0.83651 0.07675 0.17846 0.0
C722 C 0.86592 0.11021 0.15362 0.0
C723 C 0.9012 0.18158 0.14178 0.0
C724 C 0.9087 0.21883 0.15771 0.0
C725 C 0.87505 0.1477 0.16993 0.0
C726 C 0.89128 0.22151 0.20375 0.0
C727 C 0.86531 0.18826 0.23133 0.0
H728 H 0.7246 0.79517 0.41485 0.0
H729 H 0.80094 0.80152 0.29197 0.0
H730 H 0.79594 0.85429 0.25214 0.0
H731 H 0.76469 0.8948 0.24744 0.0
H732 H 0.68927 0.88845 0.37181 0.0
H733 H 0.69943 0.84034 0.41514 0.0
C734 C 0.74075 0.80851 0.37986 0.0
C735 C 0.76289 0.79391 0.35658 0.0
C736 C 0.7376 0.83889 0.35671 0.0
C737 C 0.78364 0.81192 0.31115 0.0
C738 C 0.78061 0.8421 0.28796 0.0
C739 C 0.75096 0.88336 0.28435 0.0
C740 C 0.72574 0.89514 0.30555 0.0
C741 C 0.75688 0.85525 0.30966 0.0
C742 C 0.70842 0.87984 0.35376 0.0
C743 C 0.71419 0.85214 0.37888 0.0
H744 H 0.40031 0.40076 0.25539 0.0
H745 H 0.40131 0.29376 0.22962 0.0
H746 H 0.39522 0.29932 0.13762 0.0
H747 H 0.38725 0.33306 0.0641 0.0
H748 H 0.38565 0.43974 0.0895 0.0
H749 H 0.39459 0.43579 0.18131 0.0
C750 C 0.39929 0.37872 0.22967 0.0
C751 C 0.40123 0.34694 0.24973 0.0
C752 C 0.39573 0.38196 0.17639 0.0
C753 C 0.39996 0.31868 0.21556 0.0
C754 C 0.39644 0.32175 0.16273 0.0
C755 C 0.38931 0.35569 0.0896 0.0
C756 C 0.38571 0.38655 0.0697 0.0
C757 C 0.39408 0.35312 0.14267 0.0
C758 C 0.38821 0.4155 0.10356 0.0
C759 C 0.39325 0.41328 0.15625 0.0
H760 H 0.99994 0.3577 0.42112 0.0
H761 H 0.12025 0.38981 0.3975 0.0
H762 H 0.11165 0.38786 0.30483 0.0
H763 H 0.07065 0.37864 0.23001 0.0
H764 H 0.95063 0.34805 0.25296 0.0
H765 H 0.95855 0.34802 0.34563 0.0
C766 C 1.02408 0.36395 0.39558 0.0
C767 C 0.06064 0.37408 0.41614 0.0
C768 C 1.01919 0.36343 0.34198 0.0
C769 C 0.09183 0.38234 0.38261 0.0
C770 C 0.087 0.38121 0.32954 0.0
C771 C 0.04627 0.3721 0.25525 0.0
C772 C 1.0103 0.36372 0.23437 0.0
C773 C 0.05095 0.37221 0.30874 0.0
C774 C 0.97891 0.35505 0.26782 0.0
C775 C 0.98328 0.35483 0.32099 0.0
H776 H 0.67275 0.98683 0.58238 0.0
H777 H 0.71869 0.11031 0.56189 0.0
H778 H 0.7197 0.1028 0.46917 0.0
H779 H 0.70742 0.06133 0.39328 0.0
H780 H 0.65886 0.9375 0.41291 0.0
H781 H 0.65922 0.94503 0.50612 0.0
C782 C 0.68285 1.01203 0.55759 0.0
C783 C 0.69538 0.04897 0.57918 0.0
C784 C 0.68306 1.00753 0.50397 0.0
C785 C 0.70841 0.08138 0.54642 0.0
C786 C 0.70923 0.07721 0.49327 0.0
C787 C 0.69713 0.03607 0.41802 0.0
C788 C 0.6832 0.99898 0.39628 0.0
C789 C 0.69666 0.04046 0.47158 0.0
C790 C 0.66955 0.9664 0.42877 0.0
C791 C 0.66977 0.97065 0.48208 0.0
H792 H 0.7311 0.65656 0.59131 0.0
H793 H 0.66431 0.70562 0.52988 0.0
H794 H 0.64614 0.71384 0.61701 0.0
H795 H 0.65035 0.708 0.71075 0.0
H796 H 0.71732 0.65837 0.77023 0.0
H797 H 0.73395 0.64922 0.68341 0.0
C798 C 0.71265 0.66919 0.59678 0.0
C799 C 0.69926 0.68063 0.55416 0.0
C800 C 0.70213 0.67352 0.64662 0.0
C801 C 0.67507 0.6966 0.5621 0.0
C802 C 0.66463 0.70126 0.61187 0.0
C803 C 0.66823 0.69481 0.70466 0.0
C804 C 0.68253 0.68392 0.74698 0.0
C805 C 0.67803 0.68982 0.65443 0.0
C806 C 0.70593 0.66712 0.73843 0.0
C807 C 0.71557 0.66192 0.68877 0.0
H808 H 0.09004 0.7068 0.76714 0.0
H809 H 0.97455 0.61934 0.71847 0.0
H810 H 0.9504 0.61293 0.80645 0.0
H811 H 0.96139 0.63459 0.89618 0.0
H812 H 0.07647 0.72431 0.94397 0.0
H813 H 0.10128 0.72767 0.85734 0.0
C814 C 0.05981 0.68581 0.77612 0.0
C815 C 0.03416 0.66338 0.73673 0.0
C816 C 0.04585 0.68316 0.8264 0.0
C817 C 0.99483 0.63685 0.74842 0.0
C818 C 0.98096 0.63332 0.79858 0.0
C819 C 0.99186 0.65494 0.88768 0.0
C820 C 1.01689 0.67915 0.92659 0.0
C821 C 1.00605 0.65685 0.83769 0.0
C822 C 0.05641 0.7053 0.91481 0.0
C823 C 0.07075 0.7072 0.86527 0.0
H824 H 0.35708 0.97826 0.906 0.0
H825 H 0.40841 0.10222 0.93088 0.0
H826 H 0.40704 0.09287 0.02309 0.0
H827 H 0.39125 0.05012 0.09722 0.0
H828 H 0.34062 0.92616 0.07439 0.0
H829 H 0.34198 0.93503 0.9814 0.0
C830 C 0.36792 1.00315 0.93164 0.0
C831 C 0.38297 0.04085 0.91125 0.0
C832 C 0.36736 0.99771 0.98522 0.0
C833 C 0.39698 0.07283 0.9452 0.0
C834 C 0.39616 0.0676 -0.00185 0.0
C835 C 0.38063 0.025 0.07201 0.0
C836 C 0.36602 0.9876 0.09294 0.0
C837 C 0.38149 0.03024 0.01862 0.0
C838 C 0.35234 0.95541 0.05944 0.0
C839 C 0.35295 0.9604 0.00616 0.0
loop_
_geom_bond_atom_site_label_1
_geom_bond_atom_site_label_2
_geom_bond_distance
_geom_bond_site_symmetry_2
_ccdc_geom_bond_type
Fe0 O2 1.918 . S
Fe0 O5 1.997 . S
Fe0 O6 2.002 . S
Fe0 O11 1.976 . S
Fe0 O14 1.996 . S
Fe1 O2 1.918 . S
Fe1 O9 1.997 . S
Fe1 O12 1.996 . S
Fe1 O16 1.976 . S
Fe1 O19 2.002 . S
O2 Fe0 1.918 . S
O2 Fe1 1.918 . S
O2 Fe3 1.918 . S
Fe3 O2 1.918 . S
Fe3 O4 2.002 . S
Fe3 O13 1.976 . S
Fe3 O17 1.996 . S
Fe3 O20 1.997 . S
O4 Fe3 2.002 . S
O4 C21 1.295 . S
O5 Fe0 1.997 . S
O5 C21 1.235 . S
O6 Fe0 2.002 . S
O6 C7 1.295 . S
C7 O6 1.295 . S
C7 O9 1.235 . S
C8 O13 1.287 . S
C8 O14 1.255 . S
O9 Fe1 1.997 . S
O9 C7 1.235 . S
C10 O16 1.287 . S
C10 O17 1.255 . S
O11 Fe0 1.976 . S
O11 C18 1.287 . S
O12 Fe1 1.996 . S
O12 C18 1.255 . S
O13 Fe3 1.976 . S
O13 C8 1.287 . S
O14 Fe0 1.996 . S
O14 C8 1.255 . S
C15 O19 1.295 . S
C15 O20 1.235 . S
O16 Fe1 1.976 . S
O16 C10 1.287 . S
O17 Fe3 1.996 . S
O17 C10 1.255 . S
C18 O11 1.287 . S
C18 O12 1.255 . S
O19 Fe1 2.002 . S
O19 C15 1.295 . S
O20 Fe3 1.997 . S
O20 C15 1.235 . S
C21 O4 1.295 . S
C21 O5 1.235 . S
Fe22 O24 1.918 . S
Fe22 O27 1.997 . S
Fe22 O28 2.002 . S
Fe22 O33 1.976 . S
Fe22 O36 1.996 . S
Fe23 O24 1.918 . S
Fe23 O31 1.997 . S
Fe23 O34 1.996 . S
Fe23 O38 1.976 1_455 S
Fe23 O41 2.002 . S
O24 Fe22 1.918 . S
O24 Fe23 1.918 . S
O24 Fe25 1.918 . S
Fe25 O24 1.918 . S
Fe25 O26 2.002 . S
Fe25 O35 1.976 . S
Fe25 O39 1.996 . S
Fe25 O42 1.997 . S
O26 Fe25 2.002 . S
O26 C43 1.295 . S
O27 Fe22 1.997 . S
O27 C43 1.235 . S
O28 Fe22 2.002 . S
O28 C29 1.295 . S
C29 O28 1.295 . S
C29 O31 1.235 . S
C30 O35 1.287 . S
C30 O36 1.255 . S
O31 Fe23 1.997 . S
O31 C29 1.235 . S
C32 O38 1.287 . S
C32 O39 1.255 1_655 S
O33 Fe22 1.976 . S
O33 C40 1.287 . S
O34 Fe23 1.996 . S
O34 C40 1.255 . S
O35 Fe25 1.976 . S
O35 C30 1.287 . S
O36 Fe22 1.996 . S
O36 C30 1.255 . S
C37 O41 1.295 . S
C37 O42 1.235 . S
O38 Fe23 1.976 1_655 S
O38 C32 1.287 . S
O39 Fe25 1.996 . S
O39 C32 1.255 1_455 S
C40 O33 1.287 . S
C40 O34 1.255 . S
O41 Fe23 2.002 . S
O41 C37 1.295 . S
O42 Fe25 1.997 . S
O42 C37 1.235 . S
C43 O26 1.295 . S
C43 O27 1.235 . S
Fe44 O46 1.918 . S
Fe44 O49 1.997 . S
Fe44 O50 2.002 . S
Fe44 O55 1.976 1_545 S
Fe44 O58 1.996 . S
Fe45 O46 1.918 . S
Fe45 O53 1.997 . S
Fe45 O56 1.996 . S
Fe45 O60 1.976 . S
Fe45 O63 2.002 . S
O46 Fe44 1.918 . S
O46 Fe45 1.918 . S
O46 Fe47 1.918 . S
Fe47 O46 1.918 . S
Fe47 O48 2.002 . S
Fe47 O57 1.976 . S
Fe47 O61 1.996 . S
Fe47 O64 1.997 . S
O48 Fe47 2.002 . S
O48 C65 1.295 . S
O49 Fe44 1.997 . S
O49 C65 1.235 . S
O50 Fe44 2.002 . S
O50 C51 1.295 . S
C51 O50 1.295 . S
C51 O53 1.235 . S
C52 O57 1.287 . S
C52 O58 1.255 . S
O53 Fe45 1.997 . S
O53 C51 1.235 . S
C54 O60 1.287 . S
C54 O61 1.255 . S
O55 Fe44 1.976 1_565 S
O55 C62 1.287 . S
O56 Fe45 1.996 . S
O56 C62 1.255 1_545 S
O57 Fe47 1.976 . S
O57 C52 1.287 . S
O58 Fe44 1.996 . S
O58 C52 1.255 . S
C59 O63 1.295 . S
C59 O64 1.235 . S
O60 Fe45 1.976 . S
O60 C54 1.287 . S
O61 Fe47 1.996 . S
O61 C54 1.255 . S
C62 O55 1.287 . S
C62 O56 1.255 1_565 S
O63 Fe45 2.002 . S
O63 C59 1.295 . S
O64 Fe47 1.997 . S
O64 C59 1.235 . S
C65 O48 1.295 . S
C65 O49 1.235 . S
Fe66 O68 1.918 . S
Fe66 O71 1.997 1_556 S
Fe66 O72 2.002 1_556 S
Fe66 O77 1.976 . S
Fe66 O80 1.996 . S
Fe67 O68 1.918 . S
Fe67 O75 1.997 . S
Fe67 O78 1.996 . S
Fe67 O82 1.976 . S
Fe67 O85 2.002 . S
O68 Fe66 1.918 . S
O68 Fe67 1.918 . S
O68 Fe69 1.918 . S
Fe69 O68 1.918 . S
Fe69 O70 2.002 . S
Fe69 O79 1.976 . S
Fe69 O83 1.996 . S
Fe69 O86 1.997 . S
O70 Fe69 2.002 . S
O70 C87 1.295 1_556 S
O71 Fe66 1.997 1_554 S
O71 C87 1.235 . S
O72 Fe66 2.002 1_554 S
O72 C73 1.295 1_554 S
C73 O72 1.295 1_556 S
C73 O75 1.235 . S
C74 O79 1.287 . S
C74 O80 1.255 . S
O75 Fe67 1.997 . S
O75 C73 1.235 . S
C76 O82 1.287 . S
C76 O83 1.255 . S
O77 Fe66 1.976 . S
O77 C84 1.287 . S
O78 Fe67 1.996 . S
O78 C84 1.255 . S
O79 Fe69 1.976 . S
O79 C74 1.287 . S
O80 Fe66 1.996 . S
O80 C74 1.255 . S
C81 O85 1.295 . S
C81 O86 1.235 . S
O82 Fe67 1.976 . S
O82 C76 1.287 . S
O83 Fe69 1.996 . S
O83 C76 1.255 . S
C84 O77 1.287 . S
C84 O78 1.255 . S
O85 Fe67 2.002 . S
O85 C81 1.295 . S
O86 Fe69 1.997 . S
O86 C81 1.235 . S
C87 O70 1.295 1_554 S
C87 O71 1.235 . S
Fe88 O90 1.918 . S
Fe88 O93 1.997 . S
Fe88 O94 2.002 . S
Fe88 O99 1.976 1_655 S
Fe88 O102 1.996 . S
Fe89 O90 1.918 . S
Fe89 O97 1.997 . S
Fe89 O100 1.996 . S
Fe89 O104 1.976 . S
Fe89 O107 2.002 . S
O90 Fe88 1.918 . S
O90 Fe89 1.918 . S
O90 Fe91 1.918 . S
Fe91 O90 1.918 . S
Fe91 O92 2.002 . S
Fe91 O101 1.976 1_554 S
Fe91 O105 1.996 . S
Fe91 O108 1.997 . S
O92 Fe91 2.002 . S
O92 C109 1.295 . S
O93 Fe88 1.997 . S
O93 C109 1.235 . S
O94 Fe88 2.002 . S
O94 C95 1.295 . S
C95 O94 1.295 . S
C95 O97 1.235 . S
C96 O101 1.287 . S
C96 O102 1.255 1_556 S
O97 Fe89 1.997 . S
O97 C95 1.235 . S
C98 O104 1.287 . S
C98 O105 1.255 . S
O99 Fe88 1.976 1_455 S
O99 C106 1.287 . S
O100 Fe89 1.996 . S
O100 C106 1.255 1_655 S
O101 Fe91 1.976 1_556 S
O101 C96 1.287 . S
O102 Fe88 1.996 . S
O102 C96 1.255 1_554 S
C103 O107 1.295 . S
C103 O108 1.235 . S
O104 Fe89 1.976 . S
O104 C98 1.287 . S
O105 Fe91 1.996 . S
O105 C98 1.255 . S
C106 O99 1.287 . S
C106 O100 1.255 1_455 S
O107 Fe89 2.002 . S
O107 C103 1.295 . S
O108 Fe91 1.997 . S
O108 C103 1.235 . S
C109 O92 1.295 . S
C109 O93 1.235 . S
Fe110 O112 1.918 . S
Fe110 O115 1.997 . S
Fe110 O116 2.002 . S
Fe110 O121 1.976 . S
Fe110 O124 1.996 . S
Fe111 O112 1.918 . S
Fe111 O119 1.997 . S
Fe111 O122 1.996 . S
Fe111 O126 1.976 1_565 S
Fe111 O129 2.002 . S
O112 Fe110 1.918 . S
O112 Fe111 1.918 . S
O112 Fe113 1.918 . S
Fe113 O112 1.918 . S
Fe113 O114 2.002 . S
Fe113 O123 1.976 . S
Fe113 O127 1.996 . S
Fe113 O130 1.997 . S
O114 Fe113 2.002 . S
O114 C131 1.295 . S
O115 Fe110 1.997 . S
O115 C131 1.235 . S
O116 Fe110 2.002 . S
O116 C117 1.295 . S
C117 O116 1.295 . S
C117 O119 1.235 . S
C118 O123 1.287 . S
C118 O124 1.255 . S
O119 Fe111 1.997 . S
O119 C117 1.235 . S
C120 O126 1.287 . S
C120 O127 1.255 1_545 S
O121 Fe110 1.976 . S
O121 C128 1.287 . S
O122 Fe111 1.996 . S
O122 C128 1.255 . S
O123 Fe113 1.976 . S
O123 C118 1.287 . S
O124 Fe110 1.996 . S
O124 C118 1.255 . S
C125 O129 1.295 . S
C125 O130 1.235 . S
O126 Fe111 1.976 1_545 S
O126 C120 1.287 . S
O127 Fe113 1.996 . S
O127 C120 1.255 1_565 S
C128 O121 1.287 . S
C128 O122 1.255 . S
O129 Fe111 2.002 . S
O129 C125 1.295 . S
O130 Fe113 1.997 . S
O130 C125 1.235 . S
C131 O114 1.295 . S
C131 O115 1.235 . S
Fe132 O134 1.918 . S
Fe132 O137 1.997 . S
Fe132 O138 2.002 . S
Fe132 O143 1.976 . S
Fe132 O146 1.996 . S
Fe133 O134 1.918 . S
Fe133 O141 1.997 . S
Fe133 O144 1.996 . S
Fe133 O148 1.976 . S
Fe133 O151 2.002 . S
O134 Fe132 1.918 . S
O134 Fe133 1.918 . S
O134 Fe135 1.918 . S
Fe135 O134 1.918 . S
Fe135 O136 2.002 . S
Fe135 O145 1.976 . S
Fe135 O149 1.996 . S
Fe135 O152 1.997 . S
O136 Fe135 2.002 . S
O136 C153 1.295 . S
O137 Fe132 1.997 . S
O137 C153 1.235 . S
O138 Fe132 2.002 . S
O138 C139 1.295 . S
C139 O138 1.295 . S
C139 O141 1.235 . S
C140 O145 1.287 . S
C140 O146 1.255 . S
O141 Fe133 1.997 . S
O141 C139 1.235 . S
C142 O148 1.287 . S
C142 O149 1.255 . S
O143 Fe132 1.976 . S
O143 C150 1.287 . S
O144 Fe133 1.996 . S
O144 C150 1.255 . S
O145 Fe135 1.976 . S
O145 C140 1.287 . S
O146 Fe132 1.996 . S
O146 C140 1.255 . S
C147 O151 1.295 . S
C147 O152 1.235 . S
O148 Fe133 1.976 . S
O148 C142 1.287 . S
O149 Fe135 1.996 . S
O149 C142 1.255 . S
C150 O143 1.287 . S
C150 O144 1.255 . S
O151 Fe133 2.002 . S
O151 C147 1.295 . S
O152 Fe135 1.997 . S
O152 C147 1.235 . S
C153 O136 1.295 . S
C153 O137 1.235 . S
Fe154 O156 1.918 . S
Fe154 O159 1.997 . S
Fe154 O160 2.002 . S
Fe154 O165 1.976 . S
Fe154 O168 1.996 . S
Fe155 O156 1.918 . S
Fe155 O163 1.997 . S
Fe155 O166 1.996 . S
Fe155 O170 1.976 . S
Fe155 O173 2.002 . S
O156 Fe154 1.918 . S
O156 Fe155 1.918 . S
O156 Fe157 1.918 . S
Fe157 O156 1.918 . S
Fe157 O158 2.002 . S
Fe157 O167 1.976 1_455 S
Fe157 O171 1.996 . S
Fe157 O174 1.997 . S
O158 Fe157 2.002 . S
O158 C175 1.295 . S
O159 Fe154 1.997 . S
O159 C175 1.235 . S
O160 Fe154 2.002 . S
O160 C161 1.295 . S
C161 O160 1.295 . S
C161 O163 1.235 . S
C162 O167 1.287 . S
C162 O168 1.255 1_655 S
O163 Fe155 1.997 . S
O163 C161 1.235 . S
C164 O170 1.287 . S
C164 O171 1.255 . S
O165 Fe154 1.976 . S
O165 C172 1.287 . S
O166 Fe155 1.996 . S
O166 C172 1.255 . S
O167 Fe157 1.976 1_655 S
O167 C162 1.287 . S
O168 Fe154 1.996 . S
O168 C162 1.255 1_455 S
C169 O173 1.295 . S
C169 O174 1.235 . S
O170 Fe155 1.976 . S
O170 C164 1.287 . S
O171 Fe157 1.996 . S
O171 C164 1.255 . S
C172 O165 1.287 . S
C172 O166 1.255 . S
O173 Fe155 2.002 . S
O173 C169 1.295 . S
O174 Fe157 1.997 . S
O174 C169 1.235 . S
C175 O158 1.295 . S
C175 O159 1.235 . S
Fe176 O178 1.918 . S
Fe176 O181 1.997 . S
Fe176 O182 2.002 . S
Fe176 O187 1.976 1_545 S
Fe176 O190 1.996 . S
Fe177 O178 1.918 . S
Fe177 O185 1.997 . S
Fe177 O188 1.996 . S
Fe177 O192 1.976 . S
Fe177 O195 2.002 . S
O178 Fe176 1.918 . S
O178 Fe177 1.918 . S
O178 Fe179 1.918 . S
Fe179 O178 1.918 . S
Fe179 O180 2.002 . S
Fe179 O189 1.976 . S
Fe179 O193 1.996 . S
Fe179 O196 1.997 . S
O180 Fe179 2.002 . S
O180 C197 1.295 . S
O181 Fe176 1.997 . S
O181 C197 1.235 . S
O182 Fe176 2.002 . S
O182 C183 1.295 . S
C183 O182 1.295 . S
C183 O185 1.235 . S
C184 O189 1.287 . S
C184 O190 1.255 . S
O185 Fe177 1.997 . S
O185 C183 1.235 . S
C186 O192 1.287 . S
C186 O193 1.255 . S
O187 Fe176 1.976 1_565 S
O187 C194 1.287 . S
O188 Fe177 1.996 . S
O188 C194 1.255 1_545 S
O189 Fe179 1.976 . S
O189 C184 1.287 . S
O190 Fe176 1.996 . S
O190 C184 1.255 . S
C191 O195 1.295 . S
C191 O196 1.235 . S
O192 Fe177 1.976 . S
O192 C186 1.287 . S
O193 Fe179 1.996 . S
O193 C186 1.255 . S
C194 O187 1.287 . S
C194 O188 1.255 1_565 S
O195 Fe177 2.002 . S
O195 C191 1.295 . S
O196 Fe179 1.997 . S
O196 C191 1.235 . S
C197 O180 1.295 . S
C197 O181 1.235 . S
Fe198 O200 1.918 . S
Fe198 O203 1.997 . S
Fe198 O204 2.002 . S
Fe198 O209 1.976 . S
Fe198 O212 1.996 . S
Fe199 O200 1.918 . S
Fe199 O207 1.997 . S
Fe199 O210 1.996 . S
Fe199 O214 1.976 . S
Fe199 O217 2.002 . S
O200 Fe198 1.918 . S
O200 Fe199 1.918 . S
O200 Fe201 1.918 . S
Fe201 O200 1.918 . S
Fe201 O202 2.002 . S
Fe201 O211 1.976 1_556 S
Fe201 O215 1.996 . S
Fe201 O218 1.997 . S
O202 Fe201 2.002 . S
O202 C219 1.295 . S
O203 Fe198 1.997 . S
O203 C219 1.235 . S
O204 Fe198 2.002 . S
O204 C205 1.295 . S
C205 O204 1.295 . S
C205 O207 1.235 . S
C206 O211 1.287 . S
C206 O212 1.255 1_554 S
O207 Fe199 1.997 . S
O207 C205 1.235 . S
C208 O214 1.287 . S
C208 O215 1.255 . S
O209 Fe198 1.976 . S
O209 C216 1.287 . S
O210 Fe199 1.996 . S
O210 C216 1.255 . S
O211 Fe201 1.976 1_554 S
O211 C206 1.287 . S
O212 Fe198 1.996 . S
O212 C206 1.255 1_556 S
C213 O217 1.295 . S
C213 O218 1.235 . S
O214 Fe199 1.976 . S
O214 C208 1.287 . S
O215 Fe201 1.996 . S
O215 C208 1.255 . S
C216 O209 1.287 . S
C216 O210 1.255 . S
O217 Fe199 2.002 . S
O217 C213 1.295 . S
O218 Fe201 1.997 . S
O218 C213 1.235 . S
C219 O202 1.295 . S
C219 O203 1.235 . S
Fe220 O222 1.918 . S
Fe220 O225 1.997 . S
Fe220 O226 2.002 . S
Fe220 O231 1.976 1_655 S
Fe220 O234 1.996 . S
Fe221 O222 1.918 . S
Fe221 O229 1.997 1_554 S
Fe221 O232 1.996 . S
Fe221 O236 1.976 . S
Fe221 O239 2.002 1_554 S
O222 Fe220 1.918 . S
O222 Fe221 1.918 . S
O222 Fe223 1.918 . S
Fe223 O222 1.918 . S
Fe223 O224 2.002 . S
Fe223 O233 1.976 . S
Fe223 O237 1.996 . S
Fe223 O240 1.997 . S
O224 Fe223 2.002 . S
O224 C241 1.295 . S
O225 Fe220 1.997 . S
O225 C241 1.235 . S
O226 Fe220 2.002 . S
O226 C227 1.295 1_554 S
C227 O226 1.295 1_556 S
C227 O229 1.235 . S
C228 O233 1.287 . S
C228 O234 1.255 . S
O229 Fe221 1.997 1_556 S
O229 C227 1.235 . S
C230 O236 1.287 . S
C230 O237 1.255 . S
O231 Fe220 1.976 1_455 S
O231 C238 1.287 . S
O232 Fe221 1.996 . S
O232 C238 1.255 1_655 S
O233 Fe223 1.976 . S
O233 C228 1.287 . S
O234 Fe220 1.996 . S
O234 C228 1.255 . S
C235 O239 1.295 1_554 S
C235 O240 1.235 . S
O236 Fe221 1.976 . S
O236 C230 1.287 . S
O237 Fe223 1.996 . S
O237 C230 1.255 . S
C238 O231 1.287 . S
C238 O232 1.255 1_455 S
O239 Fe221 2.002 1_556 S
O239 C235 1.295 1_556 S
O240 Fe223 1.997 . S
O240 C235 1.235 . S
C241 O224 1.295 . S
C241 O225 1.235 . S
Fe242 O244 1.918 . S
Fe242 O247 1.997 . S
Fe242 O248 2.002 . S
Fe242 O253 1.976 1_565 S
Fe242 O256 1.996 . S
Fe243 O244 1.918 . S
Fe243 O251 1.997 . S
Fe243 O254 1.996 . S
Fe243 O258 1.976 . S
Fe243 O261 2.002 . S
O244 Fe242 1.918 . S
O244 Fe243 1.918 . S
O244 Fe245 1.918 . S
Fe245 O244 1.918 . S
Fe245 O246 2.002 . S
Fe245 O255 1.976 . S
Fe245 O259 1.996 . S
Fe245 O262 1.997 . S
O246 Fe245 2.002 . S
O246 C263 1.295 . S
O247 Fe242 1.997 . S
O247 C263 1.235 . S
O248 Fe242 2.002 . S
O248 C249 1.295 . S
C249 O248 1.295 . S
C249 O251 1.235 . S
C250 O255 1.287 . S
C250 O256 1.255 . S
O251 Fe243 1.997 . S
O251 C249 1.235 . S
C252 O258 1.287 . S
C252 O259 1.255 . S
O253 Fe242 1.976 1_545 S
O253 C260 1.287 . S
O254 Fe243 1.996 . S
O254 C260 1.255 1_565 S
O255 Fe245 1.976 . S
O255 C250 1.287 . S
O256 Fe242 1.996 . S
O256 C250 1.255 . S
C257 O261 1.295 . S
C257 O262 1.235 . S
O258 Fe243 1.976 . S
O258 C252 1.287 . S
O259 Fe245 1.996 . S
O259 C252 1.255 . S
C260 O253 1.287 . S
C260 O254 1.255 1_545 S
O261 Fe243 2.002 . S
O261 C257 1.295 . S
O262 Fe245 1.997 . S
O262 C257 1.235 . S
C263 O246 1.295 . S
C263 O247 1.235 . S
H264 C270 0.930 . S
H265 C273 0.930 . S
H266 C274 0.930 . S
H267 C275 0.930 . S
H268 C278 0.930 . S
H269 C279 0.930 . S
C270 H264 0.930 . S
C270 C271 1.355 . S
C270 C272 1.415 . S
C271 C270 1.355 . S
C271 C273 1.419 . S
C272 C270 1.415 . S
C272 C277 1.425 . S
C272 C279 1.409 . S
C273 H265 0.930 . S
C273 C271 1.419 . S
C273 C274 1.362 . S
C274 H266 0.930 . S
C274 C273 1.362 . S
C274 C277 1.409 . S
C275 H267 0.930 . S
C275 C276 1.355 . S
C275 C277 1.415 . S
C276 C275 1.355 . S
C276 C278 1.419 . S
C277 C272 1.425 . S
C277 C274 1.409 . S
C277 C275 1.415 . S
C278 H268 0.930 . S
C278 C276 1.419 . S
C278 C279 1.362 . S
C279 H269 0.930 . S
C279 C272 1.409 . S
C279 C278 1.362 . S
H280 C286 0.930 . S
H281 C289 0.930 . S
H282 C290 0.930 . S
H283 C291 0.930 . S
H284 C294 0.930 . S
H285 C295 0.930 . S
C286 H280 0.930 . S
C286 C287 1.355 . S
C286 C288 1.415 . S
C287 C286 1.355 . S
C287 C289 1.419 . S
C288 C286 1.415 . S
C288 C293 1.425 . S
C288 C295 1.409 . S
C289 H281 0.930 . S
C289 C287 1.419 . S
C289 C290 1.362 . S
C290 H282 0.930 . S
C290 C289 1.362 . S
C290 C293 1.409 . S
C291 H283 0.930 . S
C291 C292 1.355 . S
C291 C293 1.415 . S
C292 C291 1.355 . S
C292 C294 1.419 . S
C293 C288 1.425 . S
C293 C290 1.409 . S
C293 C291 1.415 . S
C294 H284 0.930 . S
C294 C292 1.419 . S
C294 C295 1.362 . S
C295 H285 0.930 . S
C295 C288 1.409 . S
C295 C294 1.362 . S
H296 C302 0.930 . S
H297 C305 0.930 . S
H298 C306 0.930 . S
H299 C307 0.930 . S
H300 C310 0.930 . S
H301 C311 0.930 . S
C302 H296 0.930 . S
C302 C303 1.355 . S
C302 C304 1.415 . S
C303 C302 1.355 . S
C303 C305 1.419 1_556 S
C304 C302 1.415 . S
C304 C309 1.425 . S
C304 C311 1.409 . S
C305 H297 0.930 . S
C305 C303 1.419 1_554 S
C305 C306 1.362 1_554 S
C306 H298 0.930 . S
C306 C305 1.362 1_556 S
C306 C309 1.409 . S
C307 H299 0.930 . S
C307 C308 1.355 . S
C307 C309 1.415 . S
C308 C307 1.355 . S
C308 C310 1.419 . S
C309 C304 1.425 . S
C309 C306 1.409 . S
C309 C307 1.415 . S
C310 H300 0.930 . S
C310 C308 1.419 . S
C310 C311 1.362 . S
C311 H301 0.930 . S
C311 C304 1.409 . S
C311 C310 1.362 . S
H312 C318 0.930 . S
H313 C321 0.930 . S
H314 C322 0.930 . S
H315 C323 0.930 1_556 S
H316 C326 0.930 . S
H317 C327 0.930 . S
C318 H312 0.930 . S
C318 C319 1.355 . S
C318 C320 1.415 . S
C319 C318 1.355 . S
C319 C321 1.419 . S
C320 C318 1.415 . S
C320 C325 1.425 . S
C320 C327 1.409 . S
C321 H313 0.930 . S
C321 C319 1.419 . S
C321 C322 1.362 . S
C322 H314 0.930 . S
C322 C321 1.362 . S
C322 C325 1.409 . S
C323 H315 0.930 1_554 S
C323 C324 1.355 . S
C323 C325 1.415 . S
C324 C323 1.355 . S
C324 C326 1.419 . S
C325 C320 1.425 . S
C325 C322 1.409 . S
C325 C323 1.415 . S
C326 H316 0.930 . S
C326 C324 1.419 . S
C326 C327 1.362 . S
C327 H317 0.930 . S
C327 C320 1.409 . S
C327 C326 1.362 . S
H328 C334 0.930 . S
H329 C337 0.930 . S
H330 C338 0.930 . S
H331 C339 0.930 . S
H332 C342 0.930 . S
H333 C343 0.930 . S
C334 H328 0.930 . S
C334 C335 1.355 . S
C334 C336 1.415 . S
C335 C334 1.355 . S
C335 C337 1.419 . S
C336 C334 1.415 . S
C336 C341 1.425 . S
C336 C343 1.409 . S
C337 H329 0.930 . S
C337 C335 1.419 . S
C337 C338 1.362 . S
C338 H330 0.930 . S
C338 C337 1.362 . S
C338 C341 1.409 . S
C339 H331 0.930 . S
C339 C340 1.355 . S
C339 C341 1.415 . S
C340 C339 1.355 . S
C340 C342 1.419 . S
C341 C336 1.425 . S
C341 C338 1.409 . S
C341 C339 1.415 . S
C342 H332 0.930 . S
C342 C340 1.419 . S
C342 C343 1.362 . S
C343 H333 0.930 . S
C343 C336 1.409 . S
C343 C342 1.362 . S
H344 C350 0.930 . S
H345 C353 0.930 . S
H346 C354 0.930 . S
H347 C355 0.930 . S
H348 C358 0.930 . S
H349 C359 0.930 . S
C350 H344 0.930 . S
C350 C351 1.355 . S
C350 C352 1.415 . S
C351 C350 1.355 . S
C351 C353 1.419 . S
C352 C350 1.415 . S
C352 C357 1.425 . S
C352 C359 1.409 . S
C353 H345 0.930 . S
C353 C351 1.419 . S
C353 C354 1.362 . S
C354 H346 0.930 . S
C354 C353 1.362 . S
C354 C357 1.409 . S
C355 H347 0.930 . S
C355 C356 1.355 . S
C355 C357 1.415 . S
C356 C355 1.355 . S
C356 C358 1.419 . S
C357 C352 1.425 . S
C357 C354 1.409 . S
C357 C355 1.415 . S
C358 H348 0.930 . S
C358 C356 1.419 . S
C358 C359 1.362 . S
C359 H349 0.930 . S
C359 C352 1.409 . S
C359 C358 1.362 . S
H360 C366 0.930 . S
H361 C369 0.930 . S
H362 C370 0.930 . S
H363 C371 0.930 . S
H364 C374 0.930 . S
H365 C375 0.930 . S
C366 H360 0.930 . S
C366 C367 1.355 . S
C366 C368 1.415 . S
C367 C366 1.355 . S
C367 C369 1.419 . S
C368 C366 1.415 . S
C368 C373 1.425 . S
C368 C375 1.409 . S
C369 H361 0.930 . S
C369 C367 1.419 . S
C369 C370 1.362 . S
C370 H362 0.930 . S
C370 C369 1.362 . S
C370 C373 1.409 . S
C371 H363 0.930 . S
C371 C372 1.355 . S
C371 C373 1.415 . S
C372 C371 1.355 . S
C372 C374 1.419 . S
C373 C368 1.425 . S
C373 C370 1.409 . S
C373 C371 1.415 . S
C374 H364 0.930 . S
C374 C372 1.419 . S
C374 C375 1.362 . S
C375 H365 0.930 . S
C375 C368 1.409 . S
C375 C374 1.362 . S
H376 C382 0.930 . S
H377 C385 0.930 . S
H378 C386 0.930 . S
H379 C387 0.930 . S
H380 C390 0.930 . S
H381 C391 0.930 . S
C382 H376 0.930 . S
C382 C383 1.355 . S
C382 C384 1.415 . S
C383 C382 1.355 . S
C383 C385 1.419 . S
C384 C382 1.415 . S
C384 C389 1.425 . S
C384 C391 1.409 . S
C385 H377 0.930 . S
C385 C383 1.419 . S
C385 C386 1.362 . S
C386 H378 0.930 . S
C386 C385 1.362 . S
C386 C389 1.409 . S
C387 H379 0.930 . S
C387 C388 1.355 . S
C387 C389 1.415 . S
C388 C387 1.355 . S
C388 C390 1.419 . S
C389 C384 1.425 . S
C389 C386 1.409 . S
C389 C387 1.415 . S
C390 H380 0.930 . S
C390 C388 1.419 . S
C390 C391 1.362 . S
C391 H381 0.930 . S
C391 C384 1.409 . S
C391 C390 1.362 . S
H392 C398 0.930 . S
H393 C401 0.930 . S
H394 C402 0.930 . S
H395 C403 0.930 . S
H396 C406 0.930 . S
H397 C407 0.930 . S
C398 H392 0.930 . S
C398 C399 1.355 . S
C398 C400 1.415 . S
C399 C398 1.355 . S
C399 C401 1.419 . S
C400 C398 1.415 . S
C400 C405 1.425 . S
C400 C407 1.409 . S
C401 H393 0.930 . S
C401 C399 1.419 . S
C401 C402 1.362 . S
C402 H394 0.930 . S
C402 C401 1.362 . S
C402 C405 1.409 . S
C403 H395 0.930 . S
C403 C404 1.355 . S
C403 C405 1.415 . S
C404 C403 1.355 . S
C404 C406 1.419 . S
C405 C400 1.425 . S
C405 C402 1.409 . S
C405 C403 1.415 . S
C406 H396 0.930 . S
C406 C404 1.419 . S
C406 C407 1.362 . S
C407 H397 0.930 . S
C407 C400 1.409 . S
C407 C406 1.362 . S
H408 C414 0.930 . S
H409 C417 0.930 . S
H410 C418 0.930 . S
H411 C419 0.930 . S
H412 C422 0.930 . S
H413 C423 0.930 . S
C414 H408 0.930 . S
C414 C415 1.355 . S
C414 C416 1.415 . S
C415 C414 1.355 . S
C415 C417 1.419 . S
C416 C414 1.415 . S
C416 C421 1.425 . S
C416 C423 1.409 . S
C417 H409 0.930 . S
C417 C415 1.419 . S
C417 C418 1.362 . S
C418 H410 0.930 . S
C418 C417 1.362 . S
C418 C421 1.409 . S
C419 H411 0.930 . S
C419 C420 1.355 . S
C419 C421 1.415 . S
C420 C419 1.355 . S
C420 C422 1.419 . S
C421 C416 1.425 . S
C421 C418 1.409 . S
C421 C419 1.415 . S
C422 H412 0.930 . S
C422 C420 1.419 . S
C422 C423 1.362 . S
C423 H413 0.930 . S
C423 C416 1.409 . S
C423 C422 1.362 . S
H424 C430 0.930 . S
H425 C433 0.930 . S
H426 C434 0.930 . S
H427 C435 0.930 . S
H428 C438 0.930 . S
H429 C439 0.930 . S
C430 H424 0.930 . S
C430 C431 1.355 . S
C430 C432 1.415 . S
C431 C430 1.355 . S
C431 C433 1.419 . S
C432 C430 1.415 . S
C432 C437 1.425 . S
C432 C439 1.409 . S
C433 H425 0.930 . S
C433 C431 1.419 . S
C433 C434 1.362 . S
C434 H426 0.930 . S
C434 C433 1.362 . S
C434 C437 1.409 . S
C435 H427 0.930 . S
C435 C436 1.355 . S
C435 C437 1.415 . S
C436 C435 1.355 . S
C436 C438 1.419 . S
C437 C432 1.425 . S
C437 C434 1.409 . S
C437 C435 1.415 . S
C438 H428 0.930 . S
C438 C436 1.419 . S
C438 C439 1.362 . S
C439 H429 0.930 . S
C439 C432 1.409 . S
C439 C438 1.362 . S
H440 C446 0.930 . S
H441 C449 0.930 . S
H442 C450 0.930 . S
H443 C451 0.930 . S
H444 C454 0.930 . S
H445 C455 0.930 . S
C446 H440 0.930 . S
C446 C447 1.355 . S
C446 C448 1.415 . S
C447 C446 1.355 . S
C447 C449 1.419 . S
C448 C446 1.415 . S
C448 C453 1.425 . S
C448 C455 1.409 . S
C449 H441 0.930 . S
C449 C447 1.419 . S
C449 C450 1.362 . S
C450 H442 0.930 . S
C450 C449 1.362 . S
C450 C453 1.409 . S
C451 H443 0.930 . S
C451 C452 1.355 . S
C451 C453 1.415 . S
C452 C451 1.355 . S
C452 C454 1.419 . S
C453 C448 1.425 . S
C453 C450 1.409 . S
C453 C451 1.415 . S
C454 H444 0.930 . S
C454 C452 1.419 . S
C454 C455 1.362 . S
C455 H445 0.930 . S
C455 C448 1.409 . S
C455 C454 1.362 . S
H456 C462 0.930 . S
H457 C465 0.930 . S
H458 C466 0.930 . S
H459 C467 0.930 . S
H460 C470 0.930 . S
H461 C471 0.930 . S
C462 H456 0.930 . S
C462 C463 1.355 . S
C462 C464 1.415 . S
C463 C462 1.355 . S
C463 C465 1.419 . S
C464 C462 1.415 . S
C464 C469 1.425 . S
C464 C471 1.409 . S
C465 H457 0.930 . S
C465 C463 1.419 . S
C465 C466 1.362 . S
C466 H458 0.930 . S
C466 C465 1.362 . S
C466 C469 1.409 . S
C467 H459 0.930 . S
C467 C468 1.355 . S
C467 C469 1.415 . S
C468 C467 1.355 . S
C468 C470 1.419 . S
C469 C464 1.425 . S
C469 C466 1.409 . S
C469 C467 1.415 . S
C470 H460 0.930 . S
C470 C468 1.419 . S
C470 C471 1.362 . S
C471 H461 0.930 . S
C471 C464 1.409 . S
C471 C470 1.362 . S
H472 C478 0.930 . S
H473 C481 0.930 . S
H474 C482 0.930 . S
H475 C483 0.930 . S
H476 C486 0.930 . S
H477 C487 0.930 . S
C478 H472 0.930 . S
C478 C479 1.355 1_455 S
C478 C480 1.415 . S
C479 C478 1.355 1_655 S
C479 C481 1.419 . S
C480 C478 1.415 . S
C480 C485 1.425 1_455 S
C480 C487 1.409 . S
C481 H473 0.930 . S
C481 C479 1.419 . S
C481 C482 1.362 . S
C482 H474 0.930 . S
C482 C481 1.362 . S
C482 C485 1.409 . S
C483 H475 0.930 . S
C483 C484 1.355 1_655 S
C483 C485 1.415 . S
C484 C483 1.355 1_455 S
C484 C486 1.419 . S
C485 C480 1.425 1_655 S
C485 C482 1.409 . S
C485 C483 1.415 . S
C486 H476 0.930 . S
C486 C484 1.419 . S
C486 C487 1.362 . S
C487 H477 0.930 . S
C487 C480 1.409 . S
C487 C486 1.362 . S
H488 C494 0.930 . S
H489 C497 0.930 . S
H490 C498 0.930 . S
H491 C499 0.930 . S
H492 C502 0.930 . S
H493 C503 0.930 . S
C494 H488 0.930 . S
C494 C495 1.355 . S
C494 C496 1.415 . S
C495 C494 1.355 . S
C495 C497 1.419 . S
C496 C494 1.415 . S
C496 C501 1.425 1_546 S
C496 C503 1.409 1_556 S
C497 H489 0.930 . S
C497 C495 1.419 . S
C497 C498 1.362 1_545 S
C498 H490 0.930 . S
C498 C497 1.362 1_565 S
C498 C501 1.409 1_556 S
C499 H491 0.930 . S
C499 C500 1.355 . S
C499 C501 1.415 . S
C500 C499 1.355 . S
C500 C502 1.419 . S
C501 C496 1.425 1_564 S
C501 C498 1.409 1_554 S
C501 C499 1.415 . S
C502 H492 0.930 . S
C502 C500 1.419 . S
C502 C503 1.362 1_565 S
C503 H493 0.930 . S
C503 C496 1.409 1_554 S
C503 C502 1.362 1_545 S
H504 C510 0.930 . S
H505 C513 0.930 . S
H506 C514 0.930 . S
H507 C515 0.930 . S
H508 C518 0.930 . S
H509 C519 0.930 . S
C510 H504 0.930 . S
C510 C511 1.355 . S
C510 C512 1.415 . S
C511 C510 1.355 . S
C511 C513 1.419 . S
C512 C510 1.415 . S
C512 C517 1.425 . S
C512 C519 1.409 . S
C513 H505 0.930 . S
C513 C511 1.419 . S
C513 C514 1.362 . S
C514 H506 0.930 . S
C514 C513 1.362 . S
C514 C517 1.409 . S
C515 H507 0.930 . S
C515 C516 1.355 . S
C515 C517 1.415 . S
C516 C515 1.355 . S
C516 C518 1.419 . S
C517 C512 1.425 . S
C517 C514 1.409 . S
C517 C515 1.415 . S
C518 H508 0.930 . S
C518 C516 1.419 . S
C518 C519 1.362 . S
C519 H509 0.930 . S
C519 C512 1.409 . S
C519 C518 1.362 . S
H520 C526 0.930 . S
H521 C529 0.930 . S
H522 C530 0.930 . S
H523 C531 0.930 . S
H524 C534 0.930 . S
H525 C535 0.930 . S
C526 H520 0.930 . S
C526 C527 1.355 . S
C526 C528 1.415 . S
C527 C526 1.355 . S
C527 C529 1.419 1_455 S
C528 C526 1.415 . S
C528 C533 1.425 1_455 S
C528 C535 1.409 . S
C529 H521 0.930 . S
C529 C527 1.419 1_655 S
C529 C530 1.362 . S
C530 H522 0.930 . S
C530 C529 1.362 . S
C530 C533 1.409 . S
C531 H523 0.930 . S
C531 C532 1.355 . S
C531 C533 1.415 . S
C532 C531 1.355 . S
C532 C534 1.419 1_655 S
C533 C528 1.425 1_655 S
C533 C530 1.409 . S
C533 C531 1.415 . S
C534 H524 0.930 . S
C534 C532 1.419 1_455 S
C534 C535 1.362 . S
C535 H525 0.930 . S
C535 C528 1.409 . S
C535 C534 1.362 . S
H536 C542 0.930 . S
H537 C545 0.930 . S
H538 C546 0.930 . S
H539 C547 0.930 . S
H540 C550 0.930 . S
H541 C551 0.930 . S
C542 H536 0.930 . S
C542 C543 1.355 1_545 S
C542 C544 1.415 . S
C543 C542 1.355 1_565 S
C543 C545 1.419 . S
C544 C542 1.415 . S
C544 C549 1.425 1_545 S
C544 C551 1.409 . S
C545 H537 0.930 . S
C545 C543 1.419 . S
C545 C546 1.362 . S
C546 H538 0.930 . S
C546 C545 1.362 . S
C546 C549 1.409 . S
C547 H539 0.930 . S
C547 C548 1.355 1_565 S
C547 C549 1.415 . S
C548 C547 1.355 1_545 S
C548 C550 1.419 . S
C549 C544 1.425 1_565 S
C549 C546 1.409 . S
C549 C547 1.415 . S
C550 H540 0.930 . S
C550 C548 1.419 . S
C550 C551 1.362 . S
C551 H541 0.930 . S
C551 C544 1.409 . S
C551 C550 1.362 . S
H552 C558 0.930 . S
H553 C561 0.930 . S
H554 C562 0.930 . S
H555 C563 0.930 . S
H556 C566 0.930 . S
H557 C567 0.930 . S
C558 H552 0.930 . S
C558 C559 1.355 . S
C558 C560 1.415 . S
C559 C558 1.355 . S
C559 C561 1.419 . S
C560 C558 1.415 . S
C560 C565 1.425 . S
C560 C567 1.409 . S
C561 H553 0.930 . S
C561 C559 1.419 . S
C561 C562 1.362 . S
C562 H554 0.930 . S
C562 C561 1.362 . S
C562 C565 1.409 . S
C563 H555 0.930 . S
C563 C564 1.355 . S
C563 C565 1.415 . S
C564 C563 1.355 . S
C564 C566 1.419 . S
C565 C560 1.425 . S
C565 C562 1.409 . S
C565 C563 1.415 . S
C566 H556 0.930 . S
C566 C564 1.419 . S
C566 C567 1.362 . S
C567 H557 0.930 . S
C567 C560 1.409 . S
C567 C566 1.362 . S
H568 C574 0.930 . S
H569 C577 0.930 . S
H570 C578 0.930 . S
H571 C579 0.930 . S
H572 C582 0.930 . S
H573 C583 0.930 . S
C574 H568 0.930 . S
C574 C575 1.355 . S
C574 C576 1.415 . S
C575 C574 1.355 . S
C575 C577 1.419 . S
C576 C574 1.415 . S
C576 C581 1.425 . S
C576 C583 1.409 . S
C577 H569 0.930 . S
C577 C575 1.419 . S
C577 C578 1.362 . S
C578 H570 0.930 . S
C578 C577 1.362 . S
C578 C581 1.409 . S
C579 H571 0.930 . S
C579 C580 1.355 . S
C579 C581 1.415 . S
C580 C579 1.355 . S
C580 C582 1.419 . S
C581 C576 1.425 . S
C581 C578 1.409 . S
C581 C579 1.415 . S
C582 H572 0.930 . S
C582 C580 1.419 . S
C582 C583 1.362 . S
C583 H573 0.930 . S
C583 C576 1.409 . S
C583 C582 1.362 . S
H584 C590 0.930 . S
H585 C593 0.930 . S
H586 C594 0.930 . S
H587 C595 0.930 . S
H588 C598 0.930 . S
H589 C599 0.930 . S
C590 H584 0.930 . S
C590 C591 1.355 . S
C590 C592 1.415 . S
C591 C590 1.355 . S
C591 C593 1.419 . S
C592 C590 1.415 . S
C592 C597 1.425 . S
C592 C599 1.409 . S
C593 H585 0.930 . S
C593 C591 1.419 . S
C593 C594 1.362 . S
C594 H586 0.930 . S
C594 C593 1.362 . S
C594 C597 1.409 . S
C595 H587 0.930 . S
C595 C596 1.355 . S
C595 C597 1.415 . S
C596 C595 1.355 . S
C596 C598 1.419 . S
C597 C592 1.425 . S
C597 C594 1.409 . S
C597 C595 1.415 . S
C598 H588 0.930 . S
C598 C596 1.419 . S
C598 C599 1.362 . S
C599 H589 0.930 . S
C599 C592 1.409 . S
C599 C598 1.362 . S
H600 C606 0.930 . S
H601 C609 0.930 . S
H602 C610 0.930 . S
H603 C611 0.930 . S
H604 C614 0.930 . S
H605 C615 0.930 . S
C606 H600 0.930 . S
C606 C607 1.355 . S
C606 C608 1.415 . S
C607 C606 1.355 . S
C607 C609 1.419 . S
C608 C606 1.415 . S
C608 C613 1.425 . S
C608 C615 1.409 . S
C609 H601 0.930 . S
C609 C607 1.419 . S
C609 C610 1.362 . S
C610 H602 0.930 . S
C610 C609 1.362 . S
C610 C613 1.409 . S
C611 H603 0.930 . S
C611 C612 1.355 . S
C611 C613 1.415 . S
C612 C611 1.355 . S
C612 C614 1.419 . S
C613 C608 1.425 . S
C613 C610 1.409 . S
C613 C611 1.415 . S
C614 H604 0.930 . S
C614 C612 1.419 . S
C614 C615 1.362 . S
C615 H605 0.930 . S
C615 C608 1.409 . S
C615 C614 1.362 . S
H616 C622 0.930 1_554 S
H617 C625 0.930 . S
H618 C626 0.930 . S
H619 C627 0.930 . S
H620 C630 0.930 . S
H621 C631 0.930 . S
C622 H616 0.930 1_556 S
C622 C623 1.355 . S
C622 C624 1.415 1_556 S
C623 C622 1.355 . S
C623 C625 1.419 . S
C624 C622 1.415 1_554 S
C624 C629 1.425 1_554 S
C624 C631 1.409 . S
C625 H617 0.930 . S
C625 C623 1.419 . S
C625 C626 1.362 . S
C626 H618 0.930 . S
C626 C625 1.362 . S
C626 C629 1.409 . S
C627 H619 0.930 . S
C627 C628 1.355 1_556 S
C627 C629 1.415 . S
C628 C627 1.355 1_554 S
C628 C630 1.419 . S
C629 C624 1.425 1_556 S
C629 C626 1.409 . S
C629 C627 1.415 . S
C630 H620 0.930 . S
C630 C628 1.419 . S
C630 C631 1.362 . S
C631 H621 0.930 . S
C631 C624 1.409 . S
C631 C630 1.362 . S
H632 C638 0.930 . S
H633 C641 0.930 . S
H634 C642 0.930 . S
H635 C643 0.930 . S
H636 C646 0.930 . S
H637 C647 0.930 . S
C638 H632 0.930 . S
C638 C639 1.355 . S
C638 C640 1.415 . S
C639 C638 1.355 . S
C639 C641 1.419 . S
C640 C638 1.415 . S
C640 C645 1.425 . S
C640 C647 1.409 . S
C641 H633 0.930 . S
C641 C639 1.419 . S
C641 C642 1.362 . S
C642 H634 0.930 . S
C642 C641 1.362 . S
C642 C645 1.409 . S
C643 H635 0.930 . S
C643 C644 1.355 . S
C643 C645 1.415 . S
C644 C643 1.355 . S
C644 C646 1.419 . S
C645 C640 1.425 . S
C645 C642 1.409 . S
C645 C643 1.415 . S
C646 H636 0.930 . S
C646 C644 1.419 . S
C646 C647 1.362 . S
C647 H637 0.930 . S
C647 C640 1.409 . S
C647 C646 1.362 . S
H648 C654 0.930 . S
H649 C657 0.930 . S
H650 C658 0.930 . S
H651 C659 0.930 . S
H652 C662 0.930 . S
H653 C663 0.930 . S
C654 H648 0.930 . S
C654 C655 1.355 . S
C654 C656 1.415 . S
C655 C654 1.355 . S
C655 C657 1.419 . S
C656 C654 1.415 . S
C656 C661 1.425 . S
C656 C663 1.409 . S
C657 H649 0.930 . S
C657 C655 1.419 . S
C657 C658 1.362 . S
C658 H650 0.930 . S
C658 C657 1.362 . S
C658 C661 1.409 . S
C659 H651 0.930 . S
C659 C660 1.355 . S
C659 C661 1.415 . S
C660 C659 1.355 . S
C660 C662 1.419 . S
C661 C656 1.425 . S
C661 C658 1.409 . S
C661 C659 1.415 . S
C662 H652 0.930 . S
C662 C660 1.419 . S
C662 C663 1.362 . S
C663 H653 0.930 . S
C663 C656 1.409 . S
C663 C662 1.362 . S
H664 C670 0.930 . S
H665 C673 0.930 . S
H666 C674 0.930 . S
H667 C675 0.930 . S
H668 C678 0.930 . S
H669 C679 0.930 . S
C670 H664 0.930 . S
C670 C671 1.355 . S
C670 C672 1.415 . S
C671 C670 1.355 . S
C671 C673 1.419 . S
C672 C670 1.415 . S
C672 C677 1.425 . S
C672 C679 1.409 . S
C673 H665 0.930 . S
C673 C671 1.419 . S
C673 C674 1.362 . S
C674 H666 0.930 . S
C674 C673 1.362 . S
C674 C677 1.409 . S
C675 H667 0.930 . S
C675 C676 1.355 . S
C675 C677 1.415 . S
C676 C675 1.355 . S
C676 C678 1.419 . S
C677 C672 1.425 . S
C677 C674 1.409 . S
C677 C675 1.415 . S
C678 H668 0.930 . S
C678 C676 1.419 . S
C678 C679 1.362 . S
C679 H669 0.930 . S
C679 C672 1.409 . S
C679 C678 1.362 . S
H680 C686 0.930 . S
H681 C689 0.930 . S
H682 C690 0.930 . S
H683 C691 0.930 . S
H684 C694 0.930 . S
H685 C695 0.930 . S
C686 H680 0.930 . S
C686 C687 1.355 . S
C686 C688 1.415 . S
C687 C686 1.355 . S
C687 C689 1.419 . S
C688 C686 1.415 . S
C688 C693 1.425 . S
C688 C695 1.409 . S
C689 H681 0.930 . S
C689 C687 1.419 . S
C689 C690 1.362 . S
C690 H682 0.930 . S
C690 C689 1.362 . S
C690 C693 1.409 . S
C691 H683 0.930 . S
C691 C692 1.355 . S
C691 C693 1.415 . S
C692 C691 1.355 . S
C692 C694 1.419 . S
C693 C688 1.425 . S
C693 C690 1.409 . S
C693 C691 1.415 . S
C694 H684 0.930 . S
C694 C692 1.419 . S
C694 C695 1.362 . S
C695 H685 0.930 . S
C695 C688 1.409 . S
C695 C694 1.362 . S
H696 C702 0.930 . S
H697 C705 0.930 . S
H698 C706 0.930 . S
H699 C707 0.930 . S
H700 C710 0.930 . S
H701 C711 0.930 . S
C702 H696 0.930 . S
C702 C703 1.355 . S
C702 C704 1.415 . S
C703 C702 1.355 . S
C703 C705 1.419 1_556 S
C704 C702 1.415 . S
C704 C709 1.425 1_556 S
C704 C711 1.409 . S
C705 H697 0.930 . S
C705 C703 1.419 1_554 S
C705 C706 1.362 . S
C706 H698 0.930 . S
C706 C705 1.362 . S
C706 C709 1.409 . S
C707 H699 0.930 . S
C707 C708 1.355 . S
C707 C709 1.415 . S
C708 C707 1.355 . S
C708 C710 1.419 1_554 S
C709 C704 1.425 1_554 S
C709 C706 1.409 . S
C709 C707 1.415 . S
C710 H700 0.930 . S
C710 C708 1.419 1_556 S
C710 C711 1.362 . S
C711 H701 0.930 . S
C711 C704 1.409 . S
C711 C710 1.362 . S
H712 C718 0.930 . S
H713 C721 0.930 . S
H714 C722 0.930 . S
H715 C723 0.930 . S
H716 C726 0.930 . S
H717 C727 0.930 . S
C718 H712 0.930 . S
C718 C719 1.355 . S
C718 C720 1.415 . S
C719 C718 1.355 . S
C719 C721 1.419 . S
C720 C718 1.415 . S
C720 C725 1.425 . S
C720 C727 1.409 . S
C721 H713 0.930 . S
C721 C719 1.419 . S
C721 C722 1.362 . S
C722 H714 0.930 . S
C722 C721 1.362 . S
C722 C725 1.409 . S
C723 H715 0.930 . S
C723 C724 1.355 . S
C723 C725 1.415 . S
C724 C723 1.355 . S
C724 C726 1.419 . S
C725 C720 1.425 . S
C725 C722 1.409 . S
C725 C723 1.415 . S
C726 H716 0.930 . S
C726 C724 1.419 . S
C726 C727 1.362 . S
C727 H717 0.930 . S
C727 C720 1.409 . S
C727 C726 1.362 . S
H728 C734 0.930 . S
H729 C737 0.930 . S
H730 C738 0.930 . S
H731 C739 0.930 . S
H732 C742 0.930 . S
H733 C743 0.930 . S
C734 H728 0.930 . S
C734 C735 1.355 . S
C734 C736 1.415 . S
C735 C734 1.355 . S
C735 C737 1.419 . S
C736 C734 1.415 . S
C736 C741 1.425 . S
C736 C743 1.409 . S
C737 H729 0.930 . S
C737 C735 1.419 . S
C737 C738 1.362 . S
C738 H730 0.930 . S
C738 C737 1.362 . S
C738 C741 1.409 . S
C739 H731 0.930 . S
C739 C740 1.355 . S
C739 C741 1.415 . S
C740 C739 1.355 . S
C740 C742 1.419 . S
C741 C736 1.425 . S
C741 C738 1.409 . S
C741 C739 1.415 . S
C742 H732 0.930 . S
C742 C740 1.419 . S
C742 C743 1.362 . S
C743 H733 0.930 . S
C743 C736 1.409 . S
C743 C742 1.362 . S
H744 C750 0.930 . S
H745 C753 0.930 . S
H746 C754 0.930 . S
H747 C755 0.930 . S
H748 C758 0.930 . S
H749 C759 0.930 . S
C750 H744 0.930 . S
C750 C751 1.355 . S
C750 C752 1.415 . S
C751 C750 1.355 . S
C751 C753 1.419 . S
C752 C750 1.415 . S
C752 C757 1.425 . S
C752 C759 1.409 . S
C753 H745 0.930 . S
C753 C751 1.419 . S
C753 C754 1.362 . S
C754 H746 0.930 . S
C754 C753 1.362 . S
C754 C757 1.409 . S
C755 H747 0.930 . S
C755 C756 1.355 . S
C755 C757 1.415 . S
C756 C755 1.355 . S
C756 C758 1.419 . S
C757 C752 1.425 . S
C757 C754 1.409 . S
C757 C755 1.415 . S
C758 H748 0.930 . S
C758 C756 1.419 . S
C758 C759 1.362 . S
C759 H749 0.930 . S
C759 C752 1.409 . S
C759 C758 1.362 . S
H760 C766 0.930 . S
H761 C769 0.930 . S
H762 C770 0.930 . S
H763 C771 0.930 . S
H764 C774 0.930 . S
H765 C775 0.930 . S
C766 H760 0.930 . S
C766 C767 1.355 1_655 S
C766 C768 1.415 . S
C767 C766 1.355 1_455 S
C767 C769 1.419 . S
C768 C766 1.415 . S
C768 C773 1.425 1_655 S
C768 C775 1.409 . S
C769 H761 0.930 . S
C769 C767 1.419 . S
C769 C770 1.362 . S
C770 H762 0.930 . S
C770 C769 1.362 . S
C770 C773 1.409 . S
C771 H763 0.930 . S
C771 C772 1.355 1_455 S
C771 C773 1.415 . S
C772 C771 1.355 1_655 S
C772 C774 1.419 . S
C773 C768 1.425 1_455 S
C773 C770 1.409 . S
C773 C771 1.415 . S
C774 H764 0.930 . S
C774 C772 1.419 . S
C774 C775 1.362 . S
C775 H765 0.930 . S
C775 C768 1.409 . S
C775 C774 1.362 . S
H776 C782 0.930 1_565 S
H777 C785 0.930 . S
H778 C786 0.930 . S
H779 C787 0.930 1_545 S
H780 C790 0.930 . S
H781 C791 0.930 . S
C782 H776 0.930 1_545 S
C782 C783 1.355 . S
C782 C784 1.415 1_545 S
C783 C782 1.355 . S
C783 C785 1.419 . S
C784 C782 1.415 1_565 S
C784 C789 1.425 1_565 S
C784 C791 1.409 . S
C785 H777 0.930 . S
C785 C783 1.419 . S
C785 C786 1.362 . S
C786 H778 0.930 . S
C786 C785 1.362 . S
C786 C789 1.409 . S
C787 H779 0.930 1_565 S
C787 C788 1.355 . S
C787 C789 1.415 1_565 S
C788 C787 1.355 . S
C788 C790 1.419 . S
C789 C784 1.425 1_545 S
C789 C786 1.409 . S
C789 C787 1.415 1_545 S
C790 H780 0.930 . S
C790 C788 1.419 . S
C790 C791 1.362 . S
C791 H781 0.930 . S
C791 C784 1.409 . S
C791 C790 1.362 . S
H792 C798 0.930 . S
H793 C801 0.930 . S
H794 C802 0.930 . S
H795 C803 0.930 . S
H796 C806 0.930 . S
H797 C807 0.930 . S
C798 H792 0.930 . S
C798 C799 1.355 . S
C798 C800 1.415 . S
C799 C798 1.355 . S
C799 C801 1.419 . S
C800 C798 1.415 . S
C800 C805 1.425 . S
C800 C807 1.409 . S
C801 H793 0.930 . S
C801 C799 1.419 . S
C801 C802 1.362 . S
C802 H794 0.930 . S
C802 C801 1.362 . S
C802 C805 1.409 . S
C803 H795 0.930 . S
C803 C804 1.355 . S
C803 C805 1.415 . S
C804 C803 1.355 . S
C804 C806 1.419 . S
C805 C800 1.425 . S
C805 C802 1.409 . S
C805 C803 1.415 . S
C806 H796 0.930 . S
C806 C804 1.419 . S
C806 C807 1.362 . S
C807 H797 0.930 . S
C807 C800 1.409 . S
C807 C806 1.362 . S
H808 C814 0.930 . S
H809 C817 0.930 . S
H810 C818 0.930 . S
H811 C819 0.930 . S
H812 C822 0.930 . S
H813 C823 0.930 . S
C814 H808 0.930 . S
C814 C815 1.355 . S
C814 C816 1.415 . S
C815 C814 1.355 . S
C815 C817 1.419 1_455 S
C816 C814 1.415 . S
C816 C821 1.425 1_455 S
C816 C823 1.409 . S
C817 H809 0.930 . S
C817 C815 1.419 1_655 S
C817 C818 1.362 . S
C818 H810 0.930 . S
C818 C817 1.362 . S
C818 C821 1.409 . S
C819 H811 0.930 . S
C819 C820 1.355 . S
C819 C821 1.415 . S
C820 C819 1.355 . S
C820 C822 1.419 1_655 S
C821 C816 1.425 1_655 S
C821 C818 1.409 . S
C821 C819 1.415 . S
C822 H812 0.930 . S
C822 C820 1.419 1_455 S
C822 C823 1.362 . S
C823 H813 0.930 . S
C823 C816 1.409 . S
C823 C822 1.362 . S
H824 C830 0.930 . S
H825 C833 0.930 . S
H826 C834 0.930 1_554 S
H827 C835 0.930 . S
H828 C838 0.930 . S
H829 C839 0.930 1_556 S
C830 H824 0.930 . S
C830 C831 1.355 1_565 S
C830 C832 1.415 . S
C831 C830 1.355 1_545 S
C831 C833 1.419 . S
C832 C830 1.415 . S
C832 C837 1.425 1_566 S
C832 C839 1.409 1_556 S
C833 H825 0.930 . S
C833 C831 1.419 . S
C833 C834 1.362 . S
C834 H826 0.930 1_556 S
C834 C833 1.362 . S
C834 C837 1.409 1_556 S
C835 H827 0.930 . S
C835 C836 1.355 1_545 S
C835 C837 1.415 . S
C836 C835 1.355 1_565 S
C836 C838 1.419 . S
C837 C832 1.425 1_544 S
C837 C834 1.409 1_554 S
C837 C835 1.415 . S
C838 H828 0.930 . S
C838 C836 1.419 . S
C838 C839 1.362 . S
C839 H829 0.930 1_554 S
C839 C832 1.409 1_554 S
C839 C838 1.362 . S
C271 C15 0.979 . S
C276 C191 1.054 . S
C287 C213 1.052 . S
C292 C43 1.009 . S
C303 C235 1.069 1_556 S
C308 C59 0.986 . S
C319 C257 1.010 . S
C324 C73 1.020 1_554 S
C335 C147 0.979 . S
C340 C103 1.054 . S
C351 C161 0.966 . S
C356 C131 1.075 . S
C367 C21 1.594 . S
C372 C153 1.585 . S
C383 C29 1.571 . S
C388 C169 1.564 . S
C399 C65 1.562 . S
C404 C197 1.577 . S
C415 C219 1.566 . S
C420 C81 1.590 . S
C431 C241 1.580 . S
C436 C109 1.596 . S
C447 C117 1.595 . S
C452 C263 1.582 . S
C463 C7 1.036 . S
C468 C205 0.983 . S
C479 C227 1.039 . S
C484 C37 0.980 . S
C495 C51 0.978 . S
C500 C249 1.040 . S
C511 C139 1.037 . S
C516 C87 0.982 . S
C527 C175 0.977 . S
C532 C95 1.040 . S
C543 C125 1.027 . S
C548 C183 0.994 . S
C559 C10 1.632 . S
C564 C120 1.569 . S
C575 C18 1.620 . S
C580 C30 1.602 . S
C591 C54 1.615 . S
C596 C32 1.562 . S
C607 C62 1.600 . S
C612 C84 1.579 . S
C623 C74 1.624 . S
C628 C98 1.589 . S
C639 C118 1.577 . S
C644 C106 1.611 . S
C655 C162 1.562 . S
C660 C142 1.627 . S
C671 C172 1.606 . S
C676 C194 1.567 . S
C687 C186 1.596 . S
C692 C216 1.622 . S
C703 C208 1.601 . S
C708 C238 1.570 . S
C719 C260 1.612 . S
C724 C230 1.577 . S
C735 C150 1.574 . S
C740 C252 1.597 . S
C751 C8 1.368 . S
C756 C206 1.375 . S
C767 C40 1.360 . S
C772 C228 1.376 . S
C783 C52 1.376 . S
C788 C250 1.364 . S
C799 C140 1.349 . S
C804 C76 1.364 . S
C815 C164 1.355 . S
C820 C96 1.351 . S
C831 C184 1.363 . S
C836 C128 1.376 . S
