# Generated by pormake.
# Topology fnj, (5)-cn, num edge types: 1
# Building blocks:
#     Node 0, Type 0, BuildingBlock: BEQFEK_clean_sbu_0, # of connection points: 5
#     Node 1, Type 0, BuildingBlock: BEQFEK_clean_sbu_0, # of connection points: 5
#     Node 2, Type 0, BuildingBlock: BEQFEK_clean_sbu_0, # of connection points: 5
#     Node 3, Type 0, BuildingBlock: BEQFEK_clean_sbu_0, # of connection points: 5
#     Node 4, Type 0, BuildingBlock: BEQFEK_clean_sbu_0, # of connection points: 5
#     Node 5, Type 0, BuildingBlock: BEQFEK_clean_sbu_0, # of connection points: 5
#     Node 6, Type 0, BuildingBlock: BEQFEK_clean_sbu_0, # of connection points: 5
#     Node 7, Type 0, BuildingBlock: BEQFEK_clean_sbu_0, # of connection points: 5
#     Node 8, Type 0, BuildingBlock: BEQFEK_clean_sbu_0, # of connection points: 5
#     Node 9, Type 0, BuildingBlock: BEQFEK_clean_sbu_0, # of connection points: 5
#     Node 10, Type 0, BuildingBlock: BEQFEK_clean_sbu_0, # of connection points: 5
#     Node 11, Type 0, BuildingBlock: BEQFEK_clean_sbu_0, # of connection points: 5
#     Node 12, Type 0, BuildingBlock: BEQFEK_clean_sbu_0, # of connection points: 5
#     Node 13, Type 0, BuildingBlock: BEQFEK_clean_sbu_0, # of connection points: 5
#     Node 14, Type 0, BuildingBlock: BEQFEK_clean_sbu_0, # of connection points: 5
#     Node 15, Type 0, BuildingBlock: BEQFEK_clean_sbu_0, # of connection points: 5
#     Edge 16, Type (0, 0), BuildingBlock: XIVTED_clean_linker_0, # of connection points: 2
#     Edge 17, Type (0, 0), BuildingBlock: XIVTED_clean_linker_0, # of connection points: 2
#     Edge 18, Type (0, 0), BuildingBlock: XIVTED_clean_linker_0, # of connection points: 2
#     Edge 19, Type (0, 0), BuildingBlock: XIVTED_clean_linker_0, # of connection points: 2
#     Edge 20, Type (0, 0), BuildingBlock: XIVTED_clean_linker_0, # of connection points: 2
#     Edge 21, Type (0, 0), BuildingBlock: XIVTED_clean_linker_0, # of connection points: 2
#     Edge 22, Type (0, 0), BuildingBlock: XIVTED_clean_linker_0, # of connection points: 2
#     Edge 23, Type (0, 0), BuildingBlock: XIVTED_clean_linker_0, # of connection points: 2
#     Edge 24, Type (0, 0), BuildingBlock: XIVTED_clean_linker_0, # of connection points: 2
#     Edge 25, Type (0, 0), BuildingBlock: XIVTED_clean_linker_0, # of connection points: 2
#     Edge 26, Type (0, 0), BuildingBlock: XIVTED_clean_linker_0, # of connection points: 2
#     Edge 27, Type (0, 0), BuildingBlock: XIVTED_clean_linker_0, # of connection points: 2
#     Edge 28, Type (0, 0), BuildingBlock: XIVTED_clean_linker_0, # of connection points: 2
#     Edge 29, Type (0, 0), BuildingBlock: XIVTED_clean_linker_0, # of connection points: 2
#     Edge 30, Type (0, 0), BuildingBlock: XIVTED_clean_linker_0, # of connection points: 2
#     Edge 31, Type (0, 0), BuildingBlock: XIVTED_clean_linker_0, # of connection points: 2
#     Edge 32, Type (0, 0), BuildingBlock: XIVTED_clean_linker_0, # of connection points: 2
#     Edge 33, Type (0, 0), BuildingBlock: XIVTED_clean_linker_0, # of connection points: 2
#     Edge 34, Type (0, 0), BuildingBlock: XIVTED_clean_linker_0, # of connection points: 2
#     Edge 35, Type (0, 0), BuildingBlock: XIVTED_clean_linker_0, # of connection points: 2
#     Edge 36, Type (0, 0), BuildingBlock: XIVTED_clean_linker_0, # of connection points: 2
#     Edge 37, Type (0, 0), BuildingBlock: XIVTED_clean_linker_0, # of connection points: 2
#     Edge 38, Type (0, 0), BuildingBlock: XIVTED_clean_linker_0, # of connection points: 2
#     Edge 39, Type (0, 0), BuildingBlock: XIVTED_clean_linker_0, # of connection points: 2
#     Edge 40, Type (0, 0), BuildingBlock: XIVTED_clean_linker_0, # of connection points: 2
#     Edge 41, Type (0, 0), BuildingBlock: XIVTED_clean_linker_0, # of connection points: 2
#     Edge 42, Type (0, 0), BuildingBlock: XIVTED_clean_linker_0, # of connection points: 2
#     Edge 43, Type (0, 0), BuildingBlock: XIVTED_clean_linker_0, # of connection points: 2
#     Edge 44, Type (0, 0), BuildingBlock: XIVTED_clean_linker_0, # of connection points: 2
#     Edge 45, Type (0, 0), BuildingBlock: XIVTED_clean_linker_0, # of connection points: 2
#     Edge 46, Type (0, 0), BuildingBlock: XIVTED_clean_linker_0, # of connection points: 2
#     Edge 47, Type (0, 0), BuildingBlock: XIVTED_clean_linker_0, # of connection points: 2
#     Edge 48, Type (0, 0), BuildingBlock: XIVTED_clean_linker_0, # of connection points: 2
#     Edge 49, Type (0, 0), BuildingBlock: XIVTED_clean_linker_0, # of connection points: 2
#     Edge 50, Type (0, 0), BuildingBlock: XIVTED_clean_linker_0, # of connection points: 2
#     Edge 51, Type (0, 0), BuildingBlock: XIVTED_clean_linker_0, # of connection points: 2
#     Edge 52, Type (0, 0), BuildingBlock: XIVTED_clean_linker_0, # of connection points: 2
#     Edge 53, Type (0, 0), BuildingBlock: XIVTED_clean_linker_0, # of connection points: 2
#     Edge 54, Type (0, 0), BuildingBlock: XIVTED_clean_linker_0, # of connection points: 2
#     Edge 55, Type (0, 0), BuildingBlock: XIVTED_clean_linker_0, # of connection points: 2
# Relax obj value: 0.138
# Max RMSD: 0.162
# Mean RMSD: 0.162
data_MOF--net-fnj--node1-BEQFEK_clean_sbu_0--edge1-XIVTED_clean_linker_0
_symmetry_space_group_name_H-M    P1
_symmetry_Int_Tables_number       1
_symmetry_cell_setting            triclinic
loop_
_symmetry_equiv_pos_as_xyz
'x, y, z'
_cell_length_a     74.911002
_cell_length_b     74.921276
_cell_length_c     19.109224
_cell_angle_alpha  89.939584
_cell_angle_beta   89.971187
_cell_angle_gamma 101.01839
loop_
_atom_site_label
_atom_site_type_symbol
_atom_site_fract_x
_atom_site_fract_y
_atom_site_fract_z
_atom_type_partial_charge
Co0 Co 0.38696 0.04536 0.98231 0.0
Co1 Co 0.38369 0.0301 0.13379 0.0
C2 C 0.37206 0.06544 0.09286 0.0
O3 O 0.37711 0.06494 0.02937 0.0
O4 O 0.37368 0.0528 0.13557 0.0
C5 C 0.39726 0.06361 0.84263 0.0
O6 O 0.40522 0.07929 0.86907 0.0
C7 C 0.39216 0.03389 0.28193 0.0
C8 C 0.37945 0.0069 0.32326 0.0
C9 C 0.38843 0.02406 0.34347 0.0
N10 N 0.38559 0.02307 0.22821 0.0
N11 N 0.37827 0.00686 0.25304 0.0
C12 C 0.40037 0.05365 0.27424 0.0
H13 H 0.39979 0.05817 0.21926 0.0
H14 H 0.41487 0.05595 0.28987 0.0
H15 H 0.39326 0.06191 0.30892 0.0
C16 C 0.42549 0.04145 0.00352 0.0
N17 N 0.40831 0.04062 0.02612 0.0
N18 N 0.40675 0.03375 0.0897 0.0
C19 C 0.42284 0.02985 0.10949 0.0
C20 C 0.43529 0.03468 0.05571 0.0
C21 C 0.43231 0.04879 0.93364 0.0
H22 H 0.42929 0.06261 0.92719 0.0
H23 H 0.44717 0.04961 0.92795 0.0
H24 H 0.42505 0.04002 0.89182 0.0
O25 O 0.3682 0.02282 0.97986 0.0
O26 O 0.36628 0.01077 0.08601 0.0
H27 H 0.43794 0.0138 0.17256 0.0
H28 H 0.4274 0.02986 0.2198 0.0
C29 C 0.4257 0.02007 0.17571 0.0
H30 H 0.41368 0.00928 0.18651 0.0
H31 H 0.37177 0.99603 0.22233 0.0
O32 O 0.39056 0.05043 0.88223 0.0
C33 C 0.36139 0.01025 0.0222 0.0
Co34 Co 0.27076 0.16153 0.37645 0.0
Co35 Co 0.25511 0.15763 0.2257 0.0
C36 C 0.29059 0.1462 0.2664 0.0
O37 O 0.29026 0.1515 0.32959 0.0
O38 O 0.27782 0.14762 0.22407 0.0
C39 C 0.28887 0.17214 0.51654 0.0
O40 O 0.3047 0.17998 0.49087 0.0
C41 C 0.25878 0.16591 0.07733 0.0
C42 C 0.23183 0.15302 0.03639 0.0
C43 C 0.24893 0.16214 0.01592 0.0
N44 N 0.24801 0.15925 0.13121 0.0
N45 N 0.23183 0.1518 0.10661 0.0
C46 C 0.27849 0.17432 0.08481 0.0
H47 H 0.28311 0.17354 0.13954 0.0
H48 H 0.28058 0.1889 0.07021 0.0
H49 H 0.28682 0.16752 0.04928 0.0
C50 C 0.26703 0.2 0.35277 0.0
N51 N 0.26599 0.1827 0.33142 0.0
N52 N 0.25888 0.18087 0.2683 0.0
C53 C 0.25499 0.1969 0.24764 0.0
C54 C 0.26012 0.20959 0.30028 0.0
C55 C 0.27473 0.20712 0.42168 0.0
H56 H 0.28839 0.20373 0.4281 0.0
H57 H 0.27596 0.22206 0.42576 0.0
H58 H 0.26592 0.20036 0.46448 0.0
O59 O 0.24819 0.14283 0.38046 0.0
O60 O 0.23582 0.14043 0.27494 0.0
H61 H 0.23853 0.21166 0.18507 0.0
H62 H 0.25462 0.2013 0.13725 0.0
C63 C 0.24496 0.19952 0.18182 0.0
H64 H 0.23425 0.18738 0.17175 0.0
H65 H 0.22105 0.14524 0.13749 0.0
O66 O 0.27584 0.16545 0.47631 0.0
C67 C 0.23548 0.13585 0.33911 0.0
Co68 Co 0.1121 0.00303 0.49478 0.0
Co69 Co 0.11492 0.01849 0.64628 0.0
C70 C 0.12648 0.98304 0.60759 0.0
O71 O 0.1215 0.98338 0.54398 0.0
O72 O 0.12494 0.99586 0.64941 0.0
C73 C 0.10099 0.98492 0.35561 0.0
O74 O 0.09057 0.97051 0.38302 0.0
C75 C 0.10665 0.01455 0.79482 0.0
C76 C 0.11804 0.04192 0.83559 0.0
C77 C 0.10984 0.02452 0.85608 0.0
N78 N 0.11268 0.02555 0.74075 0.0
N79 N 0.11923 0.04197 0.76531 0.0
C80 C 0.09955 0.99454 0.78789 0.0
H81 H 0.09876 0.99034 0.73228 0.0
H82 H 0.08568 0.99103 0.81024 0.0
H83 H 0.10842 0.9869 0.81737 0.0
C84 C 0.07361 0.00775 0.51303 0.0
N85 N 0.09063 0.00816 0.53677 0.0
N86 N 0.09196 0.01479 0.60075 0.0
C87 C 0.07584 0.01875 0.61984 0.0
C88 C 0.06366 0.01437 0.56495 0.0
C89 C 0.06749 0.00273 0.43994 0.0
H90 H 0.07813 0.00899 0.40231 0.0
H91 H 0.06531 0.98775 0.43423 0.0
H92 H 0.05463 0.0073 0.42724 0.0
O93 O 0.13089 0.02545 0.49283 0.0
O94 O 0.13255 0.03781 0.59837 0.0
H95 H 0.08238 0.03891 0.69992 0.0
H96 H 0.05832 0.02934 0.69355 0.0
C97 C 0.07221 0.02635 0.68973 0.0
H98 H 0.07364 0.0163 0.73086 0.0
H99 H 0.12524 0.05298 0.73437 0.0
O100 O 0.10918 0.9976 0.39447 0.0
C101 C 0.13759 0.03814 0.53469 0.0
Co102 Co 0.22841 0.88546 0.87901 0.0
Co103 Co 0.2422 0.88989 0.72581 0.0
C104 C 0.20664 0.90034 0.77439 0.0
O105 O 0.20823 0.89548 0.83765 0.0
O106 O 0.21867 0.8989 0.72853 0.0
C107 C 0.21194 0.87548 0.02096 0.0
O108 O 0.19505 0.87493 0.00113 0.0
C109 C 0.23896 0.88512 0.57503 0.0
C110 C 0.26728 0.88491 0.54308 0.0
C111 C 0.24963 0.88258 0.51805 0.0
N112 N 0.2497 0.88818 0.63157 0.0
N113 N 0.26666 0.88832 0.61209 0.0
C114 C 0.21943 0.88691 0.57544 0.0
H115 H 0.21868 0.90056 0.596 0.0
H116 H 0.2116 0.87654 0.61094 0.0
H117 H 0.21321 0.88586 0.52277 0.0
C118 C 0.23179 0.84736 0.85281 0.0
N119 N 0.2327 0.86464 0.83142 0.0
N120 N 0.23919 0.86644 0.76738 0.0
C121 C 0.24269 0.85029 0.74591 0.0
C122 C 0.23815 0.83768 0.7995 0.0
C123 C 0.22477 0.84026 0.9228 0.0
H124 H 0.21182 0.84481 0.93402 0.0
H125 H 0.22236 0.8252 0.92488 0.0
H126 H 0.23477 0.84589 0.96374 0.0
O127 O 0.25068 0.90439 0.8817 0.0
O128 O 0.2615 0.90744 0.77375 0.0
H129 H 0.26505 0.85694 0.67535 0.0
H130 H 0.25428 0.83342 0.67267 0.0
C131 C 0.25178 0.84746 0.67814 0.0
H132 H 0.2432 0.85043 0.634 0.0
H133 H 0.27773 0.89031 0.64624 0.0
O134 O 0.22486 0.87938 0.97749 0.0
C135 C 0.26266 0.91178 0.83814 0.0
Co136 Co 0.61205 0.00277 0.10893 0.0
Co137 Co 0.61449 0.01861 0.95806 0.0
C138 C 0.62659 0.98325 -0.00398 0.0
O139 O 0.62181 0.98335 0.05996 0.0
O140 O 0.6247 0.99609 0.95476 0.0
C141 C 0.60233 0.98453 0.24946 0.0
O142 O 0.59387 0.96897 0.22359 0.0
C143 C 0.60527 0.01458 0.8106 0.0
C144 C 0.6177 0.04149 0.76791 0.0
C145 C 0.60872 0.02425 0.74858 0.0
N146 N 0.61201 0.02555 0.86372 0.0
N147 N 0.61915 0.04171 0.83807 0.0
C148 C 0.5972 0.99481 0.81924 0.0
H149 H 0.59792 0.99046 0.87438 0.0
H150 H 0.58266 0.99237 0.80406 0.0
H151 H 0.6043 0.98651 0.7847 0.0
C152 C 0.57327 0.00635 0.09076 0.0
N153 N 0.59041 0.00746 0.06709 0.0
N154 N 0.59164 0.01457 0.00388 0.0
C155 C 0.5754 0.01831 0.98539 0.0
C156 C 0.56318 0.01314 0.03962 0.0
C157 C 0.56677 0.99869 0.16055 0.0
H158 H 0.56959 0.98475 0.16515 0.0
H159 H 0.55197 0.99805 0.16775 0.0
H160 H 0.57438 0.00712 0.20251 0.0
O161 O 0.63062 0.02546 0.11045 0.0
O162 O 0.63195 0.03803 0.00523 0.0
H163 H 0.55986 0.03436 0.92436 0.0
H164 H 0.57029 0.0185 0.87549 0.0
C165 C 0.57215 0.0282 0.91989 0.0
H166 H 0.58405 0.03909 0.90861 0.0
H167 H 0.62575 0.05263 0.86813 0.0
O168 O 0.60907 0.99761 0.20939 0.0
C169 C 0.63711 0.03829 0.06868 0.0
Co170 Co 0.72675 0.88527 0.71711 0.0
Co171 Co 0.74171 0.8886 0.86914 0.0
C172 C 0.70668 0.90049 0.82757 0.0
O173 O 0.70723 0.89513 0.76457 0.0
O174 O 0.71927 0.89902 0.8706 0.0
C175 C 0.7085 0.87376 0.57889 0.0
O176 O 0.69444 0.86294 0.60687 0.0
C177 C 0.73714 0.8803 0.01712 0.0
C178 C 0.7643 0.89163 0.06014 0.0
C179 C 0.74682 0.88327 0.07909 0.0
N180 N 0.74839 0.88653 0.96405 0.0
N181 N 0.76467 0.89308 0.98991 0.0
C182 C 0.71717 0.87322 0.00859 0.0
H183 H 0.71332 0.8723 0.95257 0.0
H184 H 0.71344 0.85944 0.03163 0.0
H185 H 0.7094 0.88225 0.03654 0.0
C186 C 0.73121 0.84679 0.73798 0.0
N187 N 0.73149 0.86388 0.76072 0.0
N188 N 0.73795 0.86544 0.82496 0.0
C189 C 0.74198 0.84943 0.84512 0.0
C190 C 0.73779 0.83708 0.79077 0.0
C191 C 0.72648 0.84041 0.66497 0.0
H192 H 0.73257 0.85106 0.62706 0.0
H193 H 0.7115 0.83784 0.6588 0.0
H194 H 0.7314 0.82768 0.65315 0.0
O195 O 0.74939 0.90378 0.71483 0.0
O196 O 0.76134 0.90583 0.82116 0.0
H197 H 0.76204 0.85659 0.92528 0.0
H198 H 0.75315 0.83241 0.9191 0.0
C199 C 0.74971 0.84611 0.91512 0.0
H200 H 0.73955 0.84724 0.95616 0.0
H201 H 0.77583 0.89918 0.9599 0.0
O202 O 0.72119 0.88222 0.61708 0.0
C203 C 0.76197 0.91055 0.75705 0.0
Co204 Co 0.88644 0.04425 0.61697 0.0
Co205 Co 0.88366 0.02922 0.46492 0.0
C206 C 0.87153 0.06421 0.50515 0.0
O207 O 0.87652 0.06364 0.56866 0.0
O208 O 0.87331 0.05169 0.46233 0.0
C209 C 0.89756 0.06254 0.75547 0.0
O210 O 0.90832 0.07667 0.72767 0.0
C211 C 0.8922 0.03356 0.3169 0.0
C212 C 0.88079 0.00637 0.27451 0.0
C213 C 0.88917 0.02381 0.25513 0.0
N214 N 0.88595 0.02241 0.37024 0.0
N215 N 0.87937 0.0061 0.34474 0.0
C216 C 0.89938 0.05353 0.32491 0.0
H217 H 0.89983 0.0576 0.38066 0.0
H218 H 0.9134 0.05701 0.30389 0.0
H219 H 0.89078 0.06132 0.29474 0.0
C220 C 0.92506 0.04002 0.59789 0.0
N221 N 0.90801 0.03957 0.57438 0.0
N222 N 0.90669 0.03308 0.51017 0.0
C223 C 0.92284 0.02924 0.49075 0.0
C224 C 0.93502 0.03357 0.5456 0.0
C225 C 0.93119 0.04479 0.67115 0.0
H226 H 0.92043 0.03869 0.70859 0.0
H227 H 0.93371 0.05978 0.67718 0.0
H228 H 0.94389 0.03991 0.68379 0.0
O229 O 0.86803 0.0216 0.61885 0.0
O230 O 0.86623 0.00963 0.51262 0.0
H231 H 0.91618 0.00924 0.41012 0.0
H232 H 0.94027 0.01851 0.4171 0.0
C233 C 0.92646 0.02169 0.42076 0.0
H234 H 0.92524 0.03185 0.37983 0.0
H235 H 0.87322 0.995 0.37499 0.0
O236 O 0.88924 0.04982 0.7171 0.0
C237 C 0.86136 0.00901 0.57655 0.0
Co238 Co 0.77015 0.1621 0.22889 0.0
Co239 Co 0.7543 0.15688 0.37948 0.0
C240 C 0.78966 0.14549 0.33697 0.0
O241 O 0.78936 0.15117 0.27421 0.0
O242 O 0.777 0.14691 0.37986 0.0
C243 C 0.7835 0.15935 0.08985 0.0
O244 O 0.78847 0.14454 0.11322 0.0
C245 C 0.75875 0.16317 0.52742 0.0
C246 C 0.73115 0.15401 0.57045 0.0
C247 C 0.74902 0.16085 0.58927 0.0
N248 N 0.74729 0.15776 0.47441 0.0
N249 N 0.73076 0.15237 0.50018 0.0
C250 C 0.77845 0.17137 0.51803 0.0
H251 H 0.78094 0.17723 0.46476 0.0
H252 H 0.78288 0.18205 0.55793 0.0
H253 H 0.78667 0.16067 0.52467 0.0
C254 C 0.7669 0.20016 0.25793 0.0
N255 N 0.76565 0.18272 0.27774 0.0
N256 N 0.75828 0.18048 0.34031 0.0
C257 C 0.75435 0.19639 0.36215 0.0
C258 C 0.75971 0.20942 0.31062 0.0
C259 C 0.77482 0.20769 0.18971 0.0
H260 H 0.78718 0.20214 0.17771 0.0
H261 H 0.7784 0.22275 0.19093 0.0
H262 H 0.76476 0.20343 0.14743 0.0
O263 O 0.74736 0.14365 0.22079 0.0
O264 O 0.73525 0.14028 0.32709 0.0
H265 H 0.73798 0.2109 0.42628 0.0
H266 H 0.75342 0.19942 0.47312 0.0
C267 C 0.74404 0.19851 0.42778 0.0
H268 H 0.73304 0.18648 0.43526 0.0
H269 H 0.7193 0.14736 0.46996 0.0
O270 O 0.77651 0.16916 0.13188 0.0
C271 C 0.73474 0.13633 0.26222 0.0
Co272 Co 0.88551 0.5446 0.4811 0.0
Co273 Co 0.8836 0.52918 0.63256 0.0
C274 C 0.87119 0.56433 0.59427 0.0
O275 O 0.87585 0.56395 0.53026 0.0
O276 O 0.87323 0.55169 0.63635 0.0
C277 C 0.8947 0.56293 0.34081 0.0
O278 O 0.9029 0.57855 0.36703 0.0
C279 C 0.89308 0.53318 0.77987 0.0
C280 C 0.88114 0.50608 0.82212 0.0
C281 C 0.88986 0.52338 0.84171 0.0
N282 N 0.88644 0.52221 0.72662 0.0
N283 N 0.87961 0.50593 0.75199 0.0
C284 C 0.90081 0.55302 0.77157 0.0
H285 H 0.90008 0.55739 0.71645 0.0
H286 H 0.91534 0.55573 0.78706 0.0
H287 H 0.89348 0.56112 0.80604 0.0
C288 C 0.92422 0.54096 0.4968 0.0
N289 N 0.90727 0.54006 0.5219 0.0
N290 N 0.90631 0.53313 0.58539 0.0
C291 C 0.9226 0.52929 0.60264 0.0
C292 C 0.93453 0.53417 0.54717 0.0
C293 C 0.93037 0.54838 0.42628 0.0
H294 H 0.92265 0.53971 0.38517 0.0
H295 H 0.92738 0.56224 0.42112 0.0
H296 H 0.94515 0.54916 0.41823 0.0
O297 O 0.86708 0.52188 0.48067 0.0
O298 O 0.86598 0.50964 0.58641 0.0
H299 H 0.91431 0.50854 0.67977 0.0
H300 H 0.93847 0.51347 0.66335 0.0
C301 C 0.92611 0.51951 0.6681 0.0
H302 H 0.92793 0.52924 0.71239 0.0
H303 H 0.87314 0.49499 0.7218 0.0
O304 O 0.88822 0.5497 0.38059 0.0
C305 C 0.86069 0.50918 0.52308 0.0
Co306 Co 0.76988 0.66218 0.8716 0.0
Co307 Co 0.75447 0.65655 0.72169 0.0
C308 C 0.78981 0.64526 0.76813 0.0
O309 O 0.78968 0.65149 0.83007 0.0
O310 O 0.77699 0.64621 0.72539 0.0
C311 C 0.78699 0.67343 0.01204 0.0
O312 O 0.80394 0.67534 0.99086 0.0
C313 C 0.75941 0.66457 0.5739 0.0
C314 C 0.732 0.6544 0.5309 0.0
C315 C 0.74952 0.66276 0.51189 0.0
N316 N 0.7482 0.65772 0.62629 0.0
N317 N 0.73183 0.6517 0.60046 0.0
C318 C 0.77917 0.67242 0.58436 0.0
H319 H 0.78365 0.66986 0.63784 0.0
H320 H 0.7815 0.68739 0.57769 0.0
H321 H 0.78755 0.66668 0.54556 0.0
C322 C 0.76665 0.70029 0.84098 0.0
N323 N 0.76556 0.68279 0.82214 0.0
N324 N 0.75812 0.68027 0.75981 0.0
C325 C 0.75391 0.69602 0.7373 0.0
C326 C 0.75928 0.70925 0.78785 0.0
C327 C 0.77298 0.70771 0.91127 0.0
H328 H 0.76379 0.70053 0.95215 0.0
H329 H 0.78684 0.70509 0.92129 0.0
H330 H 0.77312 0.72249 0.91532 0.0
O331 O 0.74724 0.64355 0.87731 0.0
O332 O 0.7348 0.64011 0.77192 0.0
H333 H 0.73304 0.68681 0.66173 0.0
H334 H 0.73987 0.71129 0.66601 0.0
C335 C 0.74469 0.69823 0.66917 0.0
H336 H 0.75446 0.69797 0.62587 0.0
H337 H 0.7206 0.64568 0.63024 0.0
O338 O 0.77401 0.66857 0.96955 0.0
C339 C 0.73447 0.63621 0.83679 0.0
Co340 Co 0.6111 0.50321 0.99253 0.0
Co341 Co 0.61418 0.51879 0.1439 0.0
C342 C 0.62596 0.48348 0.10489 0.0
O343 O 0.62089 0.48381 0.04141 0.0
O344 O 0.62435 0.49622 0.14695 0.0
C345 C 0.59991 0.48507 0.85329 0.0
O346 O 0.58909 0.47088 0.88036 0.0
C347 C 0.60557 0.51461 0.29195 0.0
C348 C 0.61742 0.54169 0.33433 0.0
C349 C 0.60878 0.52434 0.35375 0.0
N350 N 0.61198 0.5257 0.23858 0.0
N351 N 0.61882 0.54194 0.26408 0.0
C352 C 0.59803 0.49471 0.28391 0.0
H353 H 0.6062 0.48672 0.31528 0.0
H354 H 0.59785 0.49057 0.22828 0.0
H355 H 0.58386 0.49159 0.3035 0.0
C356 C 0.57261 0.5078 0.0117 0.0
N357 N 0.58966 0.5082 0.03511 0.0
N358 N 0.59112 0.51497 0.09888 0.0
C359 C 0.57506 0.51907 0.11809 0.0
C360 C 0.56279 0.5146 0.06359 0.0
C361 C 0.56638 0.50274 0.93878 0.0
H362 H 0.57703 0.50882 0.90091 0.0
H363 H 0.564 0.48775 0.93342 0.0
H364 H 0.55358 0.50746 0.92614 0.0
O365 O 0.62963 0.52574 0.99012 0.0
O366 O 0.63167 0.53823 0.09547 0.0
H367 H 0.58213 0.53935 0.19749 0.0
H368 H 0.55793 0.53053 0.19079 0.0
C369 C 0.57162 0.52703 0.18752 0.0
H370 H 0.57262 0.51698 0.22914 0.0
H371 H 0.62514 0.55297 0.23384 0.0
O372 O 0.60823 0.49765 0.89232 0.0
C373 C 0.63645 0.53851 0.03146 0.0
Co374 Co 0.72649 0.38442 0.377 0.0
Co375 Co 0.74263 0.38933 0.22671 0.0
C376 C 0.70732 0.40105 0.26785 0.0
O377 O 0.70745 0.39546 0.33081 0.0
O378 O 0.72003 0.39944 0.22545 0.0
C379 C 0.71389 0.38797 0.51624 0.0
O380 O 0.70991 0.40324 0.49281 0.0
C381 C 0.73842 0.38304 0.07864 0.0
C382 C 0.76609 0.3922 0.03632 0.0
C383 C 0.74825 0.38543 0.01702 0.0
N384 N 0.7498 0.38834 0.13199 0.0
N385 N 0.76638 0.39373 0.10663 0.0
C386 C 0.71869 0.37491 0.08742 0.0
H387 H 0.71605 0.3691 0.14072 0.0
H388 H 0.71434 0.36419 0.04758 0.0
H389 H 0.71052 0.38562 0.08011 0.0
C390 C 0.72958 0.34625 0.34892 0.0
N391 N 0.73095 0.36368 0.32874 0.0
N392 N 0.73842 0.36579 0.26632 0.0
C393 C 0.74228 0.34982 0.24493 0.0
C394 C 0.73677 0.33686 0.29661 0.0
C395 C 0.72155 0.33884 0.41713 0.0
H396 H 0.70922 0.34448 0.42876 0.0
H397 H 0.71788 0.32378 0.41617 0.0
H398 H 0.73157 0.3431 0.45953 0.0
O399 O 0.74935 0.40276 0.38536 0.0
O400 O 0.76164 0.40589 0.27933 0.0
H401 H 0.75864 0.33512 0.18151 0.0
H402 H 0.74335 0.34666 0.13405 0.0
C403 C 0.75266 0.34756 0.1796 0.0
H404 H 0.76373 0.35953 0.17216 0.0
H405 H 0.7778 0.3987 0.13714 0.0
O406 O 0.71997 0.37752 0.47405 0.0
C407 C 0.76207 0.40994 0.34409 0.0
Co408 Co 0.10998 0.50304 0.60981 0.0
Co409 Co 0.11505 0.51857 0.45898 0.0
C410 C 0.12692 0.48354 0.50307 0.0
O411 O 0.1212 0.48392 0.5657 0.0
O412 O 0.12533 0.49603 0.45963 0.0
C413 C 0.11228 0.4894 0.74903 0.0
O414 O 0.12706 0.4842 0.72655 0.0
C415 C 0.10862 0.51348 0.31174 0.0
C416 C 0.11781 0.54083 0.26655 0.0
C417 C 0.11095 0.52287 0.24917 0.0
N418 N 0.11405 0.52521 0.36383 0.0
N419 N 0.11946 0.5416 0.33679 0.0
C420 C 0.10042 0.49384 0.32263 0.0
H421 H 0.09465 0.4916 0.37613 0.0
H422 H 0.08965 0.48923 0.28319 0.0
H423 H 0.11108 0.48556 0.31638 0.0
C424 C 0.07187 0.50592 0.58072 0.0
N425 N 0.08928 0.50715 0.56064 0.0
N426 N 0.09143 0.51443 0.49792 0.0
C427 C 0.07548 0.51829 0.47618 0.0
C428 C 0.06252 0.51302 0.52805 0.0
C429 C 0.06446 0.49825 0.64948 0.0
H430 H 0.06889 0.50842 0.69121 0.0
H431 H 0.06992 0.48586 0.66183 0.0
H432 H 0.04938 0.49478 0.64883 0.0
O433 O 0.12816 0.52602 0.61726 0.0
O434 O 0.13148 0.53793 0.51059 0.0
H435 H 0.08522 0.5396 0.40283 0.0
H436 H 0.06078 0.53447 0.41184 0.0
C437 C 0.07325 0.52853 0.41044 0.0
H438 H 0.07242 0.51913 0.36522 0.0
H439 H 0.12452 0.55321 0.36612 0.0
O440 O 0.10284 0.49673 0.7066 0.0
C441 C 0.13537 0.53862 0.57552 0.0
Co442 Co 0.22825 0.38619 0.23557 0.0
Co443 Co 0.24456 0.38932 0.38553 0.0
C444 C 0.20875 0.40085 0.34706 0.0
O445 O 0.20859 0.3953 0.28408 0.0
O446 O 0.22189 0.39966 0.38801 0.0
C447 C 0.21033 0.37593 0.09493 0.0
O448 O 0.19487 0.36716 0.12075 0.0
C449 C 0.24048 0.3804 0.53332 0.0
C450 C 0.26727 0.39313 0.57607 0.0
C451 C 0.25009 0.38396 0.59538 0.0
N452 N 0.25145 0.38722 0.48018 0.0
N453 N 0.26754 0.39456 0.50588 0.0
C454 C 0.22078 0.37211 0.52462 0.0
H455 H 0.21641 0.37296 0.46958 0.0
H456 H 0.21853 0.35753 0.53921 0.0
H457 H 0.21235 0.37896 0.55958 0.0
C458 C 0.23254 0.34765 0.25551 0.0
N459 N 0.23355 0.36485 0.27814 0.0
N460 N 0.24066 0.36634 0.34131 0.0
C461 C 0.24456 0.35024 0.3607 0.0
C462 C 0.23944 0.3378 0.30722 0.0
C463 C 0.2247 0.3408 0.18647 0.0
H464 H 0.21069 0.34345 0.18242 0.0
H465 H 0.22419 0.32601 0.1801 0.0
H466 H 0.23291 0.34833 0.14369 0.0
O467 O 0.25013 0.40578 0.23412 0.0
O468 O 0.26408 0.40638 0.33666 0.0
H469 H 0.26091 0.33513 0.42226 0.0
H470 H 0.24486 0.34538 0.4708 0.0
C471 C 0.25454 0.34729 0.4263 0.0
H472 H 0.26528 0.35935 0.43706 0.0
H473 H 0.27844 0.40124 0.4758 0.0
O474 O 0.22326 0.38297 0.13505 0.0
C475 C 0.26335 0.41209 0.27424 0.0
Co476 Co 0.38523 0.54361 0.11042 0.0
Co477 Co 0.38243 0.52815 0.95928 0.0
C478 C 0.37122 0.56389 -0.00104 0.0
O479 O 0.37674 0.56363 0.06187 0.0
O480 O 0.3722 0.55089 0.95711 0.0
C481 C 0.39636 0.5614 0.24957 0.0
O482 O 0.40675 0.57579 0.22198 0.0
C483 C 0.39059 0.53222 0.81066 0.0
C484 C 0.37953 0.50476 0.76996 0.0
C485 C 0.38755 0.52221 0.74945 0.0
N486 N 0.38466 0.52119 0.86473 0.0
N487 N 0.3783 0.50473 0.84022 0.0
C488 C 0.39752 0.55226 0.81757 0.0
H489 H 0.39815 0.55648 0.87316 0.0
H490 H 0.41143 0.55587 0.79565 0.0
H491 H 0.38862 0.5598 0.78773 0.0
C492 C 0.42356 0.53822 0.09296 0.0
N493 N 0.40659 0.53801 0.069 0.0
N494 N 0.40533 0.53164 0.00466 0.0
C495 C 0.42142 0.52759 0.98559 0.0
C496 C 0.43352 0.53168 0.04085 0.0
C497 C 0.42965 0.5431 0.16618 0.0
H498 H 0.41896 0.53687 0.20363 0.0
H499 H 0.43192 0.55808 0.17218 0.0
H500 H 0.44246 0.53842 0.17886 0.0
O501 O 0.36536 0.52204 0.1105 0.0
O502 O 0.36505 0.5086 0.007 0.0
H503 H 0.41497 0.50758 0.90496 0.0
H504 H 0.43899 0.51725 0.91145 0.0
C505 C 0.42508 0.52017 0.91543 0.0
H506 H 0.42357 0.53028 0.87461 0.0
H507 H 0.37242 0.49366 0.87119 0.0
O508 O 0.38812 0.54872 0.21084 0.0
C509 C 0.35911 0.50908 0.06918 0.0
Co510 Co 0.26973 0.66204 0.72882 0.0
Co511 Co 0.25337 0.65734 0.87858 0.0
C512 C 0.28845 0.64502 0.83779 0.0
O513 O 0.28861 0.65076 0.77499 0.0
O514 O 0.27567 0.64675 0.87963 0.0
C515 C 0.28159 0.65799 0.58926 0.0
O516 O 0.28441 0.64221 0.61203 0.0
C517 C 0.25799 0.66347 0.02629 0.0
C518 C 0.23038 0.65478 0.06978 0.0
C519 C 0.24836 0.66117 0.0883 0.0
N520 N 0.24639 0.65847 0.97339 0.0
N521 N 0.22985 0.65338 -0.00058 0.0
C522 C 0.2778 0.67118 0.01683 0.0
H523 H 0.28041 0.6771 0.96369 0.0
H524 H 0.28252 0.68173 0.05697 0.0
H525 H 0.2857 0.66021 0.02314 0.0
C526 C 0.26701 0.70033 0.75643 0.0
N527 N 0.26552 0.6829 0.77683 0.0
N528 N 0.258 0.68089 0.83918 0.0
C529 C 0.25429 0.69693 0.86039 0.0
C530 C 0.25988 0.70982 0.80858 0.0
C531 C 0.27493 0.70761 0.6879 0.0
H532 H 0.28729 0.70201 0.67631 0.0
H533 H 0.27852 0.72269 0.68834 0.0
H534 H 0.26487 0.70322 0.64576 0.0
O535 O 0.24667 0.64395 0.72046 0.0
O536 O 0.23411 0.64108 0.82607 0.0
H537 H 0.2326 0.68754 0.93254 0.0
H538 H 0.23826 0.71196 0.92397 0.0
C539 C 0.24391 0.69932 0.9256 0.0
H540 H 0.25312 0.69989 0.97132 0.0
H541 H 0.21828 0.64865 0.96936 0.0
O542 O 0.27642 0.6689 0.632 0.0
C543 C 0.23377 0.63699 0.76137 0.0
H544 H 0.41954 0.08022 0.73677 0.0
H545 H 0.36374 0.01517 0.44698 0.0
H546 H 0.37113 0.03995 0.77618 0.0
H547 H 0.41646 0.04824 0.40547 0.0
H548 H 0.36524 0.02678 0.56593 0.0
H549 H 0.41742 0.07179 0.61193 0.0
C550 C 0.40839 0.06982 0.71899 0.0
C551 C 0.3956 0.06064 0.76664 0.0
C552 C 0.37648 0.03161 0.53085 0.0
C553 C 0.39311 0.05098 0.62548 0.0
C554 C 0.37566 0.02489 0.46297 0.0
C555 C 0.38988 0.03093 0.41598 0.0
C556 C 0.39173 0.04438 0.55242 0.0
C557 C 0.40496 0.04362 0.43937 0.0
C558 C 0.40724 0.06494 0.64812 0.0
C559 C 0.38143 0.04721 0.74133 0.0
N560 N 0.40552 0.04994 0.5062 0.0
N561 N 0.38061 0.04278 0.67271 0.0
H562 H 0.2398 0.13788 0.91127 0.0
H563 H 0.30558 0.19392 0.62343 0.0
H564 H 0.27311 0.19035 0.95448 0.0
H565 H 0.26442 0.14639 0.58175 0.0
H566 H 0.2969 0.19159 0.74809 0.0
H567 H 0.25129 0.13977 0.79205 0.0
C568 C 0.24955 0.14983 0.89562 0.0
C569 C 0.25571 0.16384 0.94322 0.0
C570 C 0.28989 0.18167 0.7114 0.0
C571 C 0.26903 0.16613 0.80645 0.0
C572 C 0.29491 0.18293 0.64064 0.0
C573 C 0.28558 0.17044 0.59241 0.0
C574 C 0.27566 0.1677 0.73338 0.0
C575 C 0.27182 0.15647 0.61703 0.0
C576 C 0.2562 0.15087 0.82757 0.0
C577 C 0.26842 0.17897 0.92017 0.0
N578 N 0.26727 0.15552 0.68557 0.0
N579 N 0.2747 0.17974 0.8532 0.0
H580 H 0.07706 0.97035 0.25164 0.0
H581 H 0.1351 0.0325 0.95801 0.0
H582 H 0.12882 0.00588 0.2865 0.0
H583 H 0.08138 0.00137 0.91952 0.0
H584 H 0.13361 0.02074 0.07713 0.0
H585 H 0.07923 0.97876 0.1269 0.0
C586 C 0.08896 0.97967 0.23285 0.0
C587 C 0.1027 0.98756 0.27932 0.0
C588 C 0.12215 0.01634 0.04265 0.0
C589 C 0.10521 0.99729 0.13802 0.0
C590 C 0.12298 0.02315 0.97476 0.0
C591 C 0.10848 0.01766 0.92861 0.0
C592 C 0.1066 0.00406 0.06501 0.0
C593 C 0.0931 0.00548 0.95278 0.0
C594 C 0.09014 0.98456 0.16198 0.0
C595 C 0.1178 -0.00036 0.25261 0.0
N596 N 0.09253 -0.00092 0.01955 0.0
N597 N 0.1186 0.00418 0.18398 0.0
H598 H 0.21889 0.85966 0.47095 0.0
H599 H 0.24553 0.87444 0.07168 0.0
H600 H 0.26801 0.89485 0.39982 0.0
H601 H 0.18955 0.86959 0.13714 0.0
H602 H 0.25455 0.87317 0.19307 0.0
H603 H 0.2087 0.85531 0.34906 0.0
C604 C 0.22739 0.86669 0.42977 0.0
C605 C 0.2439 0.87838 0.44532 0.0
C606 C 0.24029 0.87227 0.18078 0.0
C607 C 0.2329 0.8725 0.30694 0.0
C608 C 0.23506 0.87298 0.11151 0.0
C609 C 0.21674 0.87252 0.09426 0.0
C610 C 0.22716 0.87087 0.23344 0.0
C611 C 0.20382 0.87024 0.1483 0.0
C612 C 0.22165 0.864 0.36056 0.0
C613 C 0.25502 0.88606 0.39001 0.0
N614 N 0.20931 0.86962 0.21603 0.0
N615 N 0.24927 0.88304 0.32308 0.0
H616 H 0.58069 -0.00035 0.68833 0.0
H617 H 0.62939 0.0072 0.31534 0.0
H618 H 0.63304 0.03308 0.64362 0.0
H619 H 0.57939 0.96927 0.35557 0.0
H620 H 0.63108 0.01563 0.4379 0.0
H621 H 0.57979 0.98752 0.56916 0.0
C622 C 0.59211 0.00424 0.65396 0.0
C623 C 0.60713 0.01716 0.67633 0.0
C624 C 0.61975 0.00537 0.42048 0.0
C625 C 0.60599 0.00367 0.53982 0.0
C626 C 0.61879 0.00054 0.35036 0.0
C627 C 0.60414 0.98763 0.32536 0.0
C628 C 0.60584 0.99742 0.4663 0.0
C629 C 0.59091 0.97928 0.37306 0.0
C630 C 0.59151 0.9974 0.58577 0.0
C631 C 0.62118 0.02317 0.62857 0.0
N632 N 0.59195 0.98449 0.44149 0.0
N633 N 0.62027 0.01636 0.56277 0.0
H634 H 0.72643 0.90326 0.51015 0.0
H635 H 0.72425 0.85395 0.13938 0.0
H636 H 0.69589 0.84909 0.47484 0.0
H637 H 0.75352 0.90816 0.18281 0.0
H638 H 0.71193 0.85212 0.25857 0.0
H639 H 0.73413 0.90579 0.38679 0.0
C640 C 0.7212 0.89192 0.47602 0.0
C641 C 0.71066 0.87587 0.50264 0.0
C642 C 0.72092 0.86446 0.24173 0.0
C643 C 0.71969 0.87855 0.36095 0.0
C644 C 0.72782 0.86557 0.17359 0.0
C645 C 0.73963 0.88137 0.15102 0.0
C646 C 0.72597 0.87924 0.28733 0.0
C647 C 0.74446 0.89573 0.19828 0.0
C648 C 0.72564 0.89335 0.40549 0.0
C649 C 0.70406 0.86169 0.4561 0.0
N650 N 0.73759 0.89433 0.26408 0.0
N651 N 0.70889 0.86327 0.38729 0.0
H652 H 0.91816 0.0468 0.19444 0.0
H653 H 0.86835 0.04401 0.82433 0.0
H654 H 0.86431 0.01656 0.15139 0.0
H655 H 0.92217 0.07542 0.8594 0.0
H656 H 0.86611 0.03609 0.94756 0.0
H657 H 0.91966 0.05913 0.07531 0.0
C658 C 0.90655 0.043 0.16033 0.0
C659 C 0.89094 0.03093 0.18303 0.0
C660 C 0.8784 0.04482 0.92883 0.0
C661 C 0.8927 0.04462 0.04674 0.0
C662 C 0.87967 0.04939 0.85838 0.0
C663 C 0.89554 0.06025 0.83171 0.0
C664 C 0.89319 0.05097 0.97323 0.0
C665 C 0.9097 0.06701 0.87816 0.0
C666 C 0.90747 0.04992 0.09221 0.0
C667 C 0.8766 0.02582 0.13585 0.0
N668 N 0.90829 0.06206 0.94686 0.0
N669 N 0.87781 0.03273 0.07007 0.0
H670 H 0.73478 0.17647 0.69925 0.0
H671 H 0.79707 0.14163 0.98249 0.0
H672 H 0.779 0.15 0.64251 0.0
H673 H 0.76738 0.18454 0.0243 0.0
H674 H 0.79079 0.14426 0.85761 0.0
H675 H 0.74603 0.17893 0.82003 0.0
C676 C 0.74696 0.17136 0.71227 0.0
C677 C 0.75615 0.16329 0.66106 0.0
C678 C 0.78588 0.15326 0.89415 0.0
C679 C 0.76892 0.16576 0.79838 0.0
C680 C 0.78947 0.15177 0.96537 0.0
C681 C 0.78255 0.16272 0.01395 0.0
C682 C 0.77508 0.16557 0.87176 0.0
C683 C 0.77286 0.1757 0.9888 0.0
C684 C 0.75342 0.17283 0.78086 0.0
C685 C 0.77179 0.15673 0.68024 0.0
N686 N 0.76916 0.17657 0.91954 0.0
N687 N 0.7776 0.15795 0.74763 0.0
H688 H 0.86799 0.54001 0.2742 0.0
H689 H 0.91747 0.54836 0.90261 0.0
H690 H 0.91767 0.57854 0.23541 0.0
H691 H 0.86551 0.51404 0.94621 0.0
H692 H 0.91796 0.56043 0.0218 0.0
H693 H 0.86669 0.53158 0.15164 0.0
C694 C 0.8786 0.54681 0.23947 0.0
C695 C 0.89304 0.55989 0.26488 0.0
C696 C 0.90641 0.55036 0.00495 0.0
C697 C 0.8918 0.55009 0.12399 0.0
C698 C 0.90605 0.54355 0.93676 0.0
C699 C 0.89126 0.5304 0.91406 0.0
C700 C 0.89192 0.54384 0.05054 0.0
C701 C 0.87721 0.52413 0.96152 0.0
C702 C 0.87786 0.54197 0.16937 0.0
C703 C 0.9063 0.5684 0.21758 0.0
N704 N 0.87788 0.53093 0.0273 0.0
N705 N 0.90549 0.56319 0.14917 0.0
H706 H 0.77914 0.68828 0.46191 0.0
H707 H 0.75312 0.67102 0.06587 0.0
H708 H 0.73348 0.64771 0.39323 0.0
H709 H 0.80973 0.68064 0.12689 0.0
H710 H 0.74446 0.67068 0.18805 0.0
H711 H 0.7893 0.69261 0.34121 0.0
C712 C 0.7714 0.67994 0.42249 0.0
C713 C 0.75575 0.66697 0.43899 0.0
C714 C 0.75877 0.67296 0.17463 0.0
C715 C 0.76681 0.67293 0.30007 0.0
C716 C 0.76381 0.6732 0.10489 0.0
C717 C 0.78224 0.6755 0.08607 0.0
C718 C 0.7722 0.67527 0.22628 0.0
C719 C 0.79538 0.6786 0.13924 0.0
C720 C 0.77715 0.6827 0.35321 0.0
C721 C 0.74572 0.6577 0.38363 0.0
N722 N 0.79009 0.6783 0.20751 0.0
N723 N 0.7514 0.66089 0.31671 0.0
H724 H 0.62899 0.50421 0.78536 0.0
H725 H 0.57972 0.50131 0.41412 0.0
H726 H 0.57556 0.47216 0.74852 0.0
H727 H 0.63347 0.53167 0.45813 0.0
H728 H 0.5781 0.48899 0.53323 0.0
H729 H 0.63132 0.51238 0.66239 0.0
C730 C 0.61777 0.49876 0.751 0.0
C731 C 0.60199 0.48762 0.77712 0.0
C732 C 0.59029 0.49823 0.51655 0.0
C733 C 0.60443 0.49717 0.63581 0.0
C734 C 0.59129 0.50514 0.44841 0.0
C735 C 0.60691 0.51724 0.42593 0.0
C736 C 0.605 0.50356 0.56231 0.0
C737 C 0.62118 0.52238 0.47344 0.0
C738 C 0.61909 0.50346 0.68068 0.0
C739 C 0.58796 0.48077 0.73023 0.0
N740 N 0.61989 0.51549 0.53924 0.0
N741 N 0.58942 0.48584 0.66165 0.0
H742 H 0.70129 0.40645 0.62358 0.0
H743 H 0.76229 0.36976 0.90665 0.0
H744 H 0.72919 0.36218 0.58181 0.0
H745 H 0.71866 0.397 0.96386 0.0
H746 H 0.75113 0.36774 0.78568 0.0
H747 H 0.70762 0.40373 0.7484 0.0
C748 C 0.70851 0.39601 0.64071 0.0
C749 C 0.71488 0.38467 0.59217 0.0
C750 C 0.74385 0.37391 0.82501 0.0
C751 C 0.72243 0.38171 0.73424 0.0
C752 C 0.75026 0.37513 0.89369 0.0
C753 C 0.74119 0.38328 0.94507 0.0
C754 C 0.72855 0.38132 0.8076 0.0
C755 C 0.72576 0.3902 0.92597 0.0
C756 C 0.71212 0.39446 0.71187 0.0
C757 C 0.72411 0.37131 0.6173 0.0
N758 N 0.72 0.38922 0.85851 0.0
N759 N 0.72785 0.37039 0.68651 0.0
H760 H 0.08603 0.50444 0.81257 0.0
H761 H 0.12209 0.49274 0.19912 0.0
H762 H 0.12994 0.47628 0.8578 0.0
H763 H 0.09511 0.53623 0.1376 0.0
H764 H 0.11935 0.48118 0.0792 0.0
H765 H 0.08327 0.51026 0.93719 0.0
C766 C 0.09493 0.49922 0.84873 0.0
C767 C 0.10847 0.49011 0.82462 0.0
C768 C 0.11385 0.49312 0.0922 0.0
C769 C 0.10531 0.49678 0.96715 0.0
C770 C 0.11525 0.49962 0.16061 0.0
C771 C 0.10858 0.5153 0.17809 0.0
C772 C 0.10564 0.50233 0.04122 0.0
C773 C 0.10039 0.52408 0.12588 0.0
C774 C 0.09337 0.50265 0.9198 0.0
C775 C 0.11946 0.48354 0.87406 0.0
N776 N 0.0991 0.51744 0.0596 0.0
N777 N 0.11774 0.48714 0.94315 0.0
H778 H 0.23225 0.40359 0.02903 0.0
H779 H 0.22584 0.35552 0.65507 0.0
H780 H 0.19583 0.35267 0.98882 0.0
H781 H 0.25857 0.4081 0.70101 0.0
H782 H 0.21373 0.35411 0.77443 0.0
H783 H 0.24068 0.40565 0.9064 0.0
C784 C 0.22593 0.39286 0.99401 0.0
C785 C 0.21344 0.37786 0.01903 0.0
C786 C 0.22345 0.366 0.75806 0.0
C787 C 0.22325 0.37999 0.87801 0.0
C788 C 0.23027 0.36688 0.68976 0.0
C789 C 0.24299 0.38211 0.66767 0.0
C790 C 0.22952 0.38041 0.8044 0.0
C791 C 0.24881 0.39608 0.71582 0.0
C792 C 0.23076 0.39403 0.92385 0.0
C793 C 0.2055 0.36446 0.97132 0.0
N794 N 0.24201 0.3949 0.78172 0.0
N795 N 0.21071 0.36573 0.90286 0.0
H796 H 0.36248 0.51381 0.64711 0.0
H797 H 0.4203 0.57609 0.35335 0.0
H798 H 0.41585 0.54565 0.68632 0.0
H799 H 0.36857 0.54045 0.31887 0.0
H800 H 0.41815 0.56778 0.4782 0.0
H801 H 0.36398 0.52545 0.52784 0.0
C802 C 0.37453 0.5233 0.63049 0.0
C803 C 0.38892 0.52903 0.67688 0.0
C804 C 0.40724 0.56193 0.44317 0.0
C805 C 0.3908 0.54248 0.5403 0.0
C806 C 0.40841 0.56676 0.37224 0.0
C807 C 0.39468 0.5588 0.32586 0.0
C808 C 0.39219 0.5492 0.46724 0.0
C809 C 0.37959 0.54673 0.35269 0.0
C810 C 0.37536 0.53003 0.56251 0.0
C811 C 0.40421 0.54136 0.65286 0.0
N812 N 0.3788 0.54225 0.42135 0.0
N813 N 0.40478 0.54769 0.58599 0.0
H814 H 0.27732 0.64807 0.13877 0.0
H815 H 0.26861 0.6855 0.52504 0.0
H816 H 0.23571 0.67752 0.20018 0.0
H817 H 0.29238 0.63854 0.48093 0.0
H818 H 0.26263 0.68831 0.40042 0.0
H819 H 0.28864 0.64986 0.25913 0.0
C820 C 0.27081 0.65523 0.17741 0.0
C821 C 0.25573 0.66289 0.15978 0.0
C822 C 0.26932 0.67752 0.41808 0.0
C823 C 0.26845 0.66481 0.29701 0.0
C824 C 0.27285 0.67594 0.4891 0.0
C825 C 0.2808 0.66158 0.51352 0.0
C826 C 0.27396 0.66481 0.37109 0.0
C827 C 0.28606 0.64968 0.46441 0.0
C828 C 0.27716 0.65609 0.24603 0.0
C829 C 0.2474 0.67149 0.21205 0.0
N830 N 0.28245 0.6515 0.39537 0.0
N831 N 0.25391 0.67228 0.27853 0.0
H832 H 0.35857 0.09053 0.01409 0.0
H833 H 0.31608 0.13321 0.34476 0.0
H834 H 0.36538 0.07431 0.22783 0.0
H835 H 0.29913 0.13915 0.13141 0.0
H836 H 0.33867 0.11611 0.30235 0.0
H837 H 0.34124 0.11295 0.05634 0.0
C838 C 0.35661 0.09182 0.06989 0.0
C839 C 0.36325 0.08037 0.11741 0.0
C840 C 0.33009 0.12129 0.26486 0.0
C841 C 0.34345 0.10596 0.16601 0.0
C842 C 0.31723 0.1311 0.28901 0.0
C843 C 0.30554 0.13743 0.24167 0.0
C844 C 0.33135 0.11791 0.19287 0.0
C845 C 0.30769 0.13432 0.16992 0.0
C846 C 0.34666 0.10457 0.09394 0.0
C847 C 0.36032 0.08268 0.1892 0.0
N848 N 0.32027 0.12471 0.14777 0.0
N849 N 0.35056 0.09514 0.21126 0.0
H850 H 0.15934 0.06547 0.60871 0.0
H851 H 0.20807 0.11407 0.26611 0.0
H852 H 0.14724 0.04573 0.39847 0.0
H853 H 0.228 0.12649 0.47593 0.0
H854 H 0.18352 0.09101 0.31414 0.0
H855 H 0.18254 0.09006 0.56121 0.0
C856 C 0.16151 0.06632 0.55266 0.0
C857 C 0.15139 0.05344 0.50762 0.0
C858 C 0.19327 0.09881 0.34961 0.0
C859 C 0.17781 0.08154 0.45296 0.0
C860 C 0.20726 0.112 0.32222 0.0
C861 C 0.22019 0.12217 0.36694 0.0
C862 C 0.19211 0.09585 0.42228 0.0
C863 C 0.21843 0.1189 0.43932 0.0
C864 C 0.17477 0.08033 0.52559 0.0
C865 C 0.15478 0.05525 0.43534 0.0
N866 N 0.20467 0.10604 0.46469 0.0
N867 N 0.16767 0.06901 0.41034 0.0
H868 H 0.18728 0.91953 0.8576 0.0
H869 H 0.13628 0.9551 0.53263 0.0
H870 H 0.19076 0.90085 0.64565 0.0
H871 H 0.13612 0.97667 0.74209 0.0
H872 H 0.15279 0.93215 0.57603 0.0
H873 H 0.16479 0.9373 0.81949 0.0
C874 C 0.18318 0.91901 0.80317 0.0
C875 C 0.19127 0.90907 0.75429 0.0
C876 C 0.14901 0.94183 0.61256 0.0
C877 C 0.16566 0.92941 0.7102 0.0
C878 C 0.13956 0.95493 0.5878 0.0
C879 C 0.13499 0.96799 0.63354 0.0
C880 C 0.15392 0.94178 0.68357 0.0
C881 C 0.13953 0.96702 0.70464 0.0
C882 C 0.17042 0.92922 0.78134 0.0
C883 C 0.18539 0.90882 0.68453 0.0
N884 N 0.14884 0.95425 0.7273 0.0
N885 N 0.17307 0.91896 0.66444 0.0
H886 H 0.34032 0.98283 0.09781 0.0
H887 H 0.28878 0.93425 0.76106 0.0
H888 H 0.35086 0.00269 0.88665 0.0
H889 H 0.2717 0.92093 0.97378 0.0
H890 H 0.31354 0.9576 0.80569 0.0
H891 H 0.31697 0.95817 0.05268 0.0
C892 C 0.33778 0.98199 0.042 0.0
C893 C 0.34752 0.99492 -0.00394 0.0
C894 C 0.30437 0.94954 0.84252 0.0
C895 C 0.32085 0.96671 0.94404 0.0
C896 C 0.29026 0.93618 0.81707 0.0
C897 C 0.27807 0.92566 0.86366 0.0
C898 C 0.30639 0.95231 0.91507 0.0
C899 C 0.28067 0.92877 0.93579 0.0
C900 C 0.32442 0.96793 0.01627 0.0
C901 C 0.34363 0.99312 0.92416 0.0
N902 N 0.29452 0.9418 0.95921 0.0
N903 N 0.33061 0.9793 0.90043 0.0
H904 H 0.67851 0.9087 0.74963 0.0
H905 H 0.63286 0.97572 0.85952 0.0
H906 H 0.70071 0.91283 0.9588 0.0
H907 H 0.64017 0.95723 0.06977 0.0
H908 H 0.64963 0.95347 0.81487 0.0
H909 H 0.6558 0.92608 0.78706 0.0
C910 C 0.67863 0.91327 0.80341 0.0
C911 C 0.69178 0.90958 0.85072 0.0
C912 C 0.6472 0.95385 0.87059 0.0
C913 C 0.66612 0.93001 0.89359 0.0
C914 C 0.63776 0.96676 0.89634 0.0
C915 C 0.63516 0.96842 0.96865 0.0
C916 C 0.65418 0.94245 0.91744 0.0
C917 C 0.64184 0.95642 0.01366 0.0
C918 C 0.66575 0.9234 0.82464 0.0
C919 C 0.69104 0.91559 0.92012 0.0
N920 N 0.65126 0.9441 0.98735 0.0
N921 N 0.67852 0.9256 0.9393 0.0
H922 H 0.77003 0.91979 0.62067 0.0
H923 H 0.85212 0.00087 0.71277 0.0
H924 H 0.78925 0.93226 0.83135 0.0
H925 H 0.83939 0.98196 0.5019 0.0
H926 H 0.82886 0.97619 0.7569 0.0
H927 H 0.79495 0.94279 0.57632 0.0
C928 C 0.7795 0.92735 0.65774 0.0
C929 C 0.77746 0.92413 0.73004 0.0
C930 C 0.83119 0.97737 0.70101 0.0
C931 C 0.80608 0.95058 0.67922 0.0
C932 C 0.84445 0.99151 0.67561 0.0
C933 C 0.84768 0.99358 0.60332 0.0
C934 C 0.8209 0.96522 0.65392 0.0
C935 C 0.83737 0.98092 0.55796 0.0
C936 C 0.79378 0.94045 0.63221 0.0
C937 C 0.79026 0.93429 0.77528 0.0
N938 N 0.82435 0.96734 0.58401 0.0
N939 N 0.80396 0.94714 0.74913 0.0
H940 H 0.85792 0.08903 0.58453 0.0
H941 H 0.81589 0.13381 0.25766 0.0
H942 H 0.86456 0.07318 0.37032 0.0
H943 H 0.79696 0.13589 0.4704 0.0
H944 H 0.83846 0.11635 0.29838 0.0
H945 H 0.84035 0.11133 0.54322 0.0
C946 C 0.85587 0.09037 0.52881 0.0
C947 C 0.86255 0.07907 0.4809 0.0
C948 C 0.82944 0.12082 0.33607 0.0
C949 C 0.84248 0.10455 0.43335 0.0
C950 C 0.81661 0.13082 0.31294 0.0
C951 C 0.80445 0.1363 0.36062 0.0
C952 C 0.83023 0.11645 0.40741 0.0
C953 C 0.806 0.13199 0.43166 0.0
C954 C 0.84579 0.10305 0.50529 0.0
C955 C 0.85949 0.08146 0.40921 0.0
N956 N 0.8186 0.12231 0.45281 0.0
N957 N 0.84961 0.09387 0.38763 0.0
H958 H 0.70748 0.11439 0.33526 0.0
H959 H 0.65843 0.06584 0.99405 0.0
H960 H 0.72702 0.12733 0.12509 0.0
H961 H 0.64703 0.04584 0.20459 0.0
H962 H 0.68152 0.09059 0.04075 0.0
H963 H 0.683 0.09132 0.28765 0.0
C964 C 0.7066 0.11245 0.27911 0.0
C965 C 0.71941 0.12276 0.23419 0.0
C966 C 0.67393 0.08077 0.07661 0.0
C967 C 0.69137 0.09638 0.17932 0.0
C968 C 0.66072 0.06667 0.05002 0.0
C969 C 0.65083 0.05367 0.09538 0.0
C970 C 0.67714 0.08197 0.14908 0.0
C971 C 0.65439 0.05545 0.16749 0.0
C972 C 0.69264 0.09924 0.25196 0.0
C973 C 0.71753 0.11963 0.1618 0.0
N974 N 0.66722 0.06932 0.19203 0.0
N975 N 0.7038 0.10672 0.13664 0.0
H976 H 0.81453 0.6315 0.84835 0.0
H977 H 0.8583 0.59013 0.51751 0.0
H978 H 0.79894 0.63845 0.63402 0.0
H979 H 0.86383 0.57222 0.72995 0.0
H980 H 0.84103 0.61241 0.56086 0.0
H981 H 0.83709 0.61412 0.80681 0.0
C982 C 0.81599 0.62955 0.79263 0.0
C983 C 0.8047 0.63625 0.74466 0.0
C984 C 0.84614 0.60368 0.598 0.0
C985 C 0.83043 0.6165 0.69691 0.0
C986 C 0.85606 0.591 0.5733 0.0
C987 C 0.86234 0.57912 0.62003 0.0
C988 C 0.84256 0.60459 0.66996 0.0
C989 C 0.85905 0.58094 0.69188 0.0
C990 C 0.8288 0.61959 0.76899 0.0
C991 C 0.80718 0.63334 0.67299 0.0
N992 N 0.84931 0.59335 0.7146 0.0
N993 N 0.81972 0.62364 0.65138 0.0
H994 H 0.72716 0.62812 0.97481 0.0
H995 H 0.64516 0.5459 0.89446 0.0
H996 H 0.70693 0.61377 0.76674 0.0
H997 H 0.65873 0.566 0.10327 0.0
H998 H 0.66809 0.57038 0.84739 0.0
H999 H 0.70262 0.60527 0.02307 0.0
C1000 C 0.71754 0.62019 0.93917 0.0
C1001 C 0.71919 0.62283 0.86642 0.0
C1002 C 0.66604 0.56951 0.90348 0.0
C1003 C 0.69105 0.59656 0.92168 0.0
C1004 C 0.65296 0.55547 0.93058 0.0
C1005 C 0.65005 0.5538 0.00315 0.0
C1006 C 0.67647 0.58197 0.94909 0.0
C1007 C 0.66051 0.56674 0.04705 0.0
C1008 C 0.7035 0.60717 0.9669 0.0
C1009 C 0.70624 0.61221 0.82306 0.0
N1010 N 0.67335 0.58023 0.01934 0.0
N1011 N 0.69278 0.59947 0.85135 0.0
H1012 H 0.63251 0.47474 0.24034 0.0
H1013 H 0.70029 0.41026 0.13373 0.0
H1014 H 0.63972 0.45846 0.0271 0.0
H1015 H 0.68129 0.4135 0.3458 0.0
H1016 H 0.67794 0.42765 0.09416 0.0
H1017 H 0.64989 0.45224 0.28067 0.0
C1018 C 0.63762 0.46633 0.20198 0.0
C1019 C 0.6348 0.46862 0.13009 0.0
C1020 C 0.67848 0.42439 0.14925 0.0
C1021 C 0.65484 0.44294 0.17606 0.0
C1022 C 0.69128 0.41442 0.17202 0.0
C1023 C 0.69271 0.41036 0.24332 0.0
C1024 C 0.66718 0.43069 0.19816 0.0
C1025 C 0.68067 0.4163 0.29036 0.0
C1026 C 0.64749 0.45345 0.22514 0.0
C1027 C 0.64161 0.45723 0.08293 0.0
N1028 N 0.66854 0.42636 0.26704 0.0
N1029 N 0.65151 0.44504 0.10671 0.0
H1030 H 0.76964 0.41922 0.48116 0.0
H1031 H 0.851 0.50104 0.3875 0.0
H1032 H 0.78945 0.43167 0.27101 0.0
H1033 H 0.83908 0.48207 0.59901 0.0
H1034 H 0.82785 0.47617 0.34459 0.0
H1035 H 0.79433 0.44253 0.52586 0.0
C1036 C 0.77919 0.42681 0.44436 0.0
C1037 C 0.7774 0.42351 0.37207 0.0
C1038 C 0.83032 0.47737 0.40038 0.0
C1039 C 0.80565 0.45028 0.4231 0.0
C1040 C 0.84352 0.49163 0.42506 0.0
C1041 C 0.84696 0.49372 0.49713 0.0
C1042 C 0.82029 0.46512 0.44798 0.0
C1043 C 0.83688 0.48099 0.54306 0.0
C1044 C 0.79331 0.44009 0.47002 0.0
C1045 C 0.79026 0.43373 0.32707 0.0
N1046 N 0.82391 0.46729 0.51772 0.0
N1047 N 0.80376 0.44672 0.3533 0.0
H1048 H 0.13595 0.47555 0.3698 0.0
H1049 H 0.20111 0.40896 0.48229 0.0
H1050 H 0.13973 0.45828 0.584 0.0
H1051 H 0.18303 0.41353 0.26962 0.0
H1052 H 0.17887 0.42682 0.52163 0.0
H1053 H 0.1533 0.45293 0.33277 0.0
C1054 C 0.14024 0.46687 0.4091 0.0
C1055 C 0.13632 0.46885 0.4802 0.0
C1056 C 0.17964 0.42372 0.46649 0.0
C1057 C 0.15659 0.44301 0.43799 0.0
C1058 C 0.19236 0.41358 0.4439 0.0
C1059 C 0.19406 0.40989 0.37239 0.0
C1060 C 0.16871 0.43044 0.41713 0.0
C1061 C 0.18226 0.41609 0.32517 0.0
C1062 C 0.15017 0.45391 0.38781 0.0
C1063 C 0.14241 0.45722 0.52863 0.0
N1064 N 0.17025 0.42625 0.34829 0.0
N1065 N 0.15244 0.44493 0.50671 0.0
H1066 H 0.30021 0.41536 0.28953 0.0
H1067 H 0.32822 0.51323 0.13507 0.0
H1068 H 0.25931 0.44111 0.19537 0.0
H1069 H 0.35737 0.47228 0.06423 0.0
H1070 H 0.30478 0.48924 0.18559 0.0
H1071 H 0.32396 0.43869 0.23534 0.0
C1072 C 0.29628 0.42603 0.25814 0.0
C1073 C 0.27788 0.42643 0.24672 0.0
C1074 C 0.3163 0.48557 0.15877 0.0
C1075 C 0.30465 0.45295 0.18633 0.0
C1076 C 0.32959 0.49915 0.13002 0.0
C1077 C 0.34454 0.49459 0.09505 0.0
C1078 C 0.31836 0.4674 0.15461 0.0
C1079 C 0.34586 0.47622 0.09015 0.0
C1080 C 0.30975 0.43914 0.22694 0.0
C1081 C 0.27339 0.44037 0.20515 0.0
N1082 N 0.33301 0.46321 0.12059 0.0
N1083 N 0.2867 0.45324 0.17709 0.0
H1084 H 0.29377 0.63417 0.97122 0.0
H1085 H 0.36328 0.59217 0.07629 0.0
H1086 H 0.31573 0.63378 0.76238 0.0
H1087 H 0.35893 0.56988 0.86726 0.0
H1088 H 0.34562 0.61469 0.03922 0.0
H1089 H 0.31618 0.61721 0.01246 0.0
C1090 C 0.30354 0.63085 0.93411 0.0
C1091 C 0.30293 0.63563 0.86321 0.0
C1092 C 0.34841 0.60479 0.0016 0.0
C1093 C 0.3289 0.6161 0.91062 0.0
C1094 C 0.35866 0.59202 0.02254 0.0
C1095 C 0.3623 0.57885 0.97524 0.0
C1096 C 0.34165 0.60435 0.93291 0.0
C1097 C 0.35619 0.57957 0.90589 0.0
C1098 C 0.31648 0.62122 0.95797 0.0
C1099 C 0.31577 0.63051 0.81756 0.0
N1100 N 0.34606 0.59203 0.88691 0.0
N1101 N 0.32811 0.6208 0.84192 0.0
H1102 H 0.14363 0.54694 0.7126 0.0
H1103 H 0.22639 0.62792 0.62416 0.0
H1104 H 0.15772 0.56558 0.50218 0.0
H1105 H 0.20596 0.61553 0.83354 0.0
H1106 H 0.2016 0.60496 0.57848 0.0
H1107 H 0.16662 0.57175 0.75776 0.0
C1108 C 0.15152 0.55627 0.6758 0.0
C1109 C 0.14878 0.5541 0.60336 0.0
C1110 C 0.20248 0.60732 0.63438 0.0
C1111 C 0.17523 0.58255 0.65497 0.0
C1112 C 0.21667 0.62042 0.6606 0.0
C1113 C 0.21834 0.62363 0.73294 0.0
C1114 C 0.18992 0.59722 0.68076 0.0
C1115 C 0.20525 0.61352 0.77745 0.0
C1116 C 0.16463 0.57048 0.70172 0.0
C1117 C 0.15937 0.5667 0.55838 0.0
N1118 N 0.19167 0.6007 0.75067 0.0
N1119 N 0.17221 0.58032 0.58491 0.0
H1120 H 0.46199 0.04554 0.15168 0.0
H1121 H 0.53634 0.00193 0.9447 0.0
H1122 H 0.45143 0.01726 0.95535 0.0
H1123 H 0.54695 0.0301 0.14122 0.0
H1124 H 0.50508 0.00722 0.9479 0.0
H1125 H 0.49315 0.03991 0.14938 0.0
C1126 C 0.46632 0.03818 0.10801 0.0
C1127 C 0.45429 0.03194 0.05339 0.0
C1128 C 0.51419 0.01219 0.99053 0.0
C1129 C 0.48976 0.02541 0.05024 0.0
C1130 C 0.53199 0.00917 0.98865 0.0
C1131 C 0.54408 0.0155 0.04298 0.0
C1132 C 0.50849 0.02169 0.04712 0.0
C1133 C 0.53789 0.0248 0.09883 0.0
C1134 C 0.48406 0.03498 0.10664 0.0
C1135 C 0.46044 0.0225 -0.00207 0.0
N1136 N 0.52051 0.02764 0.09944 0.0
N1137 N 0.47777 0.0195 -0.00224 0.0
H1138 H 0.2284 0.31151 0.4046 0.0
H1139 H 0.27064 0.23567 0.20141 0.0
H1140 H 0.25612 0.32097 0.20651 0.0
H1141 H 0.24347 0.22651 0.40068 0.0
H1142 H 0.26529 0.26693 0.2016 0.0
H1143 H 0.23355 0.2802 0.40377 0.0
C1144 C 0.23552 0.3069 0.36083 0.0
C1145 C 0.24176 0.31868 0.30535 0.0
C1146 C 0.26054 0.25812 0.24545 0.0
C1147 C 0.24777 0.28303 0.30387 0.0
C1148 C 0.26359 0.24032 0.24526 0.0
C1149 C 0.25757 0.22865 0.30131 0.0
C1150 C 0.25136 0.26424 0.30207 0.0
C1151 C 0.24853 0.23523 0.35698 0.0
C1152 C 0.23846 0.28907 0.36029 0.0
C1153 C 0.25089 0.31216 0.24977 0.0
N1154 N 0.24567 0.2526 0.35596 0.0
N1155 N 0.25365 0.29475 0.25044 0.0
H1156 H 0.0335 0.98911 0.53401 0.0
H1157 H 0.96517 0.05883 0.57656 0.0
H1158 H 0.05093 0.04571 0.58588 0.0
H1159 H 0.94777 0.00226 0.52438 0.0
H1160 H 0.99672 0.05432 0.58113 0.0
H1161 H 0.00197 0.99364 0.52925 0.0
C1162 C 0.03061 0.00249 0.54436 0.0
C1163 C 0.04467 0.01702 0.56109 0.0
C1164 C 0.98603 0.04288 0.5685 0.0
C1165 C 0.00881 0.02237 0.55591 0.0
C1166 C 0.96808 0.04547 0.56608 0.0
C1167 C 0.95403 0.03093 0.54928 0.0
C1168 C 0.98989 0.0256 0.55431 0.0
C1169 C 0.95834 0.01385 0.53636 0.0
C1170 C 0.01266 0.00508 0.54183 0.0
C1171 C 0.04036 0.03411 0.57391 0.0
N1172 N 0.97591 0.01165 0.53899 0.0
N1173 N 0.02279 0.03632 0.5712 0.0
H1174 H 0.24366 0.72596 0.7049 0.0
H1175 H 0.25686 0.82246 0.89793 0.0
H1176 H 0.26911 0.73637 0.90679 0.0
H1177 H 0.2264 0.8102 0.70707 0.0
H1178 H 0.26226 0.79125 0.9008 0.0
H1179 H 0.23829 0.75717 0.7023 0.0
C1180 C 0.24823 0.73492 0.74843 0.0
C1181 C 0.2569 0.72873 0.80599 0.0
C1182 C 0.25437 0.79534 0.85829 0.0
C1183 C 0.25066 0.7643 0.80395 0.0
C1184 C 0.25125 0.8131 0.85683 0.0
C1185 C 0.2412 0.81879 0.80214 0.0
C1186 C 0.24744 0.78322 0.80448 0.0
C1187 C 0.23435 0.80629 0.74976 0.0
C1188 C 0.24507 0.75267 0.74719 0.0
C1189 C 0.26232 0.7407 0.8616 0.0
N1190 N 0.23762 0.78908 0.7521 0.0
N1191 N 0.25913 0.75795 0.8592 0.0
H1192 H 0.7849 0.7402 0.7985 0.0
H1193 H 0.71288 0.80638 0.76399 0.0
H1194 H 0.72716 0.72103 0.77789 0.0
H1195 H 0.76965 0.82526 0.80962 0.0
H1196 H 0.71806 0.77502 0.762 0.0
H1197 H 0.77988 0.77162 0.79753 0.0
C1198 C 0.77117 0.74269 0.79379 0.0
C1199 C 0.75642 0.72818 0.78776 0.0
C1200 C 0.72939 0.786 0.77259 0.0
C1201 C 0.75051 0.76385 0.78632 0.0
C1202 C 0.72643 0.80383 0.77351 0.0
C1203 C 0.74083 0.81823 0.78783 0.0
C1204 C 0.74693 0.78263 0.78558 0.0
C1205 C 0.75817 0.8144 0.79948 0.0
C1206 C 0.76829 0.76056 0.79311 0.0
C1207 C 0.73888 0.73196 0.78175 0.0
N1208 N 0.76075 0.79694 0.79822 0.0
N1209 N 0.7364 0.74945 0.78103 0.0
H1210 H 0.76837 0.23544 0.41118 0.0
H1211 H 0.72804 0.3108 0.19631 0.0
H1212 H 0.74392 0.22611 0.20711 0.0
H1213 H 0.75231 0.32012 0.4007 0.0
H1214 H 0.73374 0.27967 0.19906 0.0
H1215 H 0.76255 0.26654 0.40874 0.0
C1216 C 0.76178 0.24001 0.36589 0.0
C1217 C 0.75667 0.22833 0.30917 0.0
C1218 C 0.73778 0.28849 0.24344 0.0
C1219 C 0.75 0.26375 0.30567 0.0
C1220 C 0.73456 0.30623 0.24175 0.0
C1221 C 0.73967 0.31791 0.29844 0.0
C1222 C 0.74622 0.28245 0.30228 0.0
C1223 C 0.74797 0.3114 0.35633 0.0
C1224 C 0.75849 0.25772 0.36438 0.0
C1225 C 0.74827 0.23482 0.25149 0.0
N1226 N 0.75101 0.2941 0.35676 0.0
N1227 N 0.74518 0.25211 0.25121 0.0
H1228 H 0.94972 0.51698 0.44335 0.0
H1229 H 0.0469 0.52976 0.63142 0.0
H1230 H 0.96216 0.54499 0.63933 0.0
H1231 H 0.03574 0.50414 0.43021 0.0
H1232 H 0.01577 0.5352 0.63556 0.0
H1233 H 0.98111 0.51209 0.43696 0.0
C1234 C 0.95916 0.52223 0.48467 0.0
C1235 C 0.9535 0.5315 0.54169 0.0
C1236 C 0.02007 0.52838 0.59044 0.0
C1237 C 0.98922 0.52576 0.53549 0.0
C1238 C 0.03779 0.52519 0.58831 0.0
C1239 C 0.04374 0.51638 0.53064 0.0
C1240 C 0.00821 0.52271 0.53442 0.0
C1241 C 0.03159 0.51101 0.47551 0.0
C1242 C 0.97702 0.51937 0.48125 0.0
C1243 C 0.96607 0.53775 0.59459 0.0
N1244 N 0.01435 0.51422 0.47878 0.0
N1245 N 0.98335 0.53476 0.59027 0.0
H1246 H 0.44595 0.50025 0.01919 0.0
H1247 H 0.55042 0.5462 0.0824 0.0
H1248 H 0.46384 0.5567 0.07236 0.0
H1249 H 0.53239 0.48943 0.03465 0.0
H1250 H 0.51882 0.55045 0.0779 0.0
H1251 H 0.47756 0.496 0.02366 0.0
C1252 C 0.45662 0.51175 0.03149 0.0
C1253 C 0.45246 0.52887 0.04472 0.0
C1254 C 0.52173 0.53704 0.06854 0.0
C1255 C 0.48851 0.52417 0.05066 0.0
C1256 C 0.53972 0.53463 0.07138 0.0
C1257 C 0.54385 0.51741 0.05978 0.0
C1258 C 0.5078 0.52212 0.05361 0.0
C1259 C 0.52965 0.5029 0.04415 0.0
C1260 C 0.47462 0.50933 0.03429 0.0
C1261 C 0.46661 0.5433 0.06171 0.0
N1262 N 0.51222 0.50556 0.04169 0.0
N1263 N 0.48404 0.54064 0.06401 0.0
loop_
_geom_bond_atom_site_label_1
_geom_bond_atom_site_label_2
_geom_bond_distance
_geom_bond_site_symmetry_2
_ccdc_geom_bond_type
Co0 O3 1.970 1_556 S
Co0 N17 1.989 1_556 S
Co0 O25 1.967 1_556 S
Co0 O32 1.920 . S
Co1 O4 1.966 . S
Co1 N10 2.022 . S
Co1 N18 1.993 . S
Co1 O26 1.941 . S
C2 O3 1.258 . S
C2 O4 1.263 . S
O3 Co0 1.970 1_554 S
O3 C2 1.258 . S
O4 Co1 1.966 . S
O4 C2 1.263 . S
C5 O6 1.235 . S
C5 O32 1.289 . S
O6 C5 1.235 . S
C7 C9 1.400 . S
C7 N10 1.351 . S
C7 C12 1.501 . S
C8 C9 1.387 . S
C8 N11 1.341 . S
C9 C7 1.400 . S
C9 C8 1.387 . S
N10 Co1 2.022 . S
N10 C7 1.351 . S
N10 N11 1.365 . S
N11 C8 1.341 . S
N11 N10 1.365 . S
N11 H31 0.862 . S
C12 C7 1.501 . S
C12 H13 0.961 . S
C12 H14 0.961 . S
C12 H15 0.960 . S
H13 C12 0.961 . S
H14 C12 0.961 . S
H15 C12 0.960 . S
C16 N17 1.342 . S
C16 C20 1.401 . S
C16 C21 1.499 1_554 S
N17 Co0 1.989 1_554 S
N17 C16 1.342 . S
N17 N18 1.388 . S
N18 Co1 1.993 . S
N18 N17 1.388 . S
N18 C19 1.346 . S
C19 N18 1.346 . S
C19 C20 1.396 . S
C19 C29 1.510 . S
C20 C16 1.401 . S
C20 C19 1.396 . S
C21 C16 1.499 1_556 S
C21 H22 0.959 . S
C21 H23 0.960 . S
C21 H24 0.961 . S
H22 C21 0.959 . S
H23 C21 0.960 . S
H24 C21 0.961 . S
O25 Co0 1.967 1_554 S
O25 C33 1.258 . S
O26 Co1 1.941 . S
O26 C33 1.266 . S
H27 C29 0.959 . S
H28 C29 0.961 . S
C29 C19 1.510 . S
C29 H27 0.959 . S
C29 H28 0.961 . S
C29 H30 0.960 . S
H30 C29 0.960 . S
H31 N11 0.862 . S
O32 Co0 1.920 . S
O32 C5 1.289 . S
C33 O25 1.258 . S
C33 O26 1.266 . S
Co34 O37 1.970 . S
Co34 N51 1.989 . S
Co34 O59 1.967 . S
Co34 O66 1.920 . S
Co35 O38 1.966 . S
Co35 N44 2.022 . S
Co35 N52 1.993 . S
Co35 O60 1.941 . S
C36 O37 1.258 . S
C36 O38 1.263 . S
O37 Co34 1.970 . S
O37 C36 1.258 . S
O38 Co35 1.966 . S
O38 C36 1.263 . S
C39 O40 1.235 . S
C39 O66 1.289 . S
O40 C39 1.235 . S
C41 C43 1.400 1_554 S
C41 N44 1.351 . S
C41 C46 1.501 . S
C42 C43 1.387 1_554 S
C42 N45 1.341 . S
C43 C41 1.400 1_556 S
C43 C42 1.387 1_556 S
N44 Co35 2.022 . S
N44 C41 1.351 . S
N44 N45 1.365 . S
N45 C42 1.341 . S
N45 N44 1.365 . S
N45 H65 0.862 . S
C46 C41 1.501 . S
C46 H47 0.961 . S
C46 H48 0.961 . S
C46 H49 0.960 . S
H47 C46 0.961 . S
H48 C46 0.961 . S
H49 C46 0.960 . S
C50 N51 1.342 . S
C50 C54 1.401 . S
C50 C55 1.499 . S
N51 Co34 1.989 . S
N51 C50 1.342 . S
N51 N52 1.388 . S
N52 Co35 1.993 . S
N52 N51 1.388 . S
N52 C53 1.346 . S
C53 N52 1.346 . S
C53 C54 1.396 . S
C53 C63 1.510 . S
C54 C50 1.401 . S
C54 C53 1.396 . S
C55 C50 1.499 . S
C55 H56 0.959 . S
C55 H57 0.960 . S
C55 H58 0.961 . S
H56 C55 0.959 . S
H57 C55 0.960 . S
H58 C55 0.961 . S
O59 Co34 1.967 . S
O59 C67 1.258 . S
O60 Co35 1.941 . S
O60 C67 1.266 . S
H61 C63 0.959 . S
H62 C63 0.961 . S
C63 C53 1.510 . S
C63 H61 0.959 . S
C63 H62 0.961 . S
C63 H64 0.960 . S
H64 C63 0.960 . S
H65 N45 0.862 . S
O66 Co34 1.920 . S
O66 C39 1.289 . S
C67 O59 1.258 . S
C67 O60 1.266 . S
Co68 O71 1.970 1_545 S
Co68 N85 1.989 . S
Co68 O93 1.967 . S
Co68 O100 1.920 . S
Co69 O72 1.966 1_545 S
Co69 N78 2.022 . S
Co69 N86 1.993 . S
Co69 O94 1.941 . S
C70 O71 1.258 . S
C70 O72 1.263 . S
O71 Co68 1.970 1_565 S
O71 C70 1.258 . S
O72 Co69 1.966 1_565 S
O72 C70 1.263 . S
C73 O74 1.235 . S
C73 O100 1.289 1_565 S
O74 C73 1.235 . S
C75 C77 1.400 . S
C75 N78 1.351 . S
C75 C80 1.501 1_545 S
C76 C77 1.387 . S
C76 N79 1.341 . S
C77 C75 1.400 . S
C77 C76 1.387 . S
N78 Co69 2.022 . S
N78 C75 1.351 . S
N78 N79 1.365 . S
N79 C76 1.341 . S
N79 N78 1.365 . S
N79 H99 0.862 . S
C80 C75 1.501 1_565 S
C80 H81 0.961 . S
C80 H82 0.961 . S
C80 H83 0.960 . S
H81 C80 0.961 . S
H82 C80 0.961 . S
H83 C80 0.960 . S
C84 N85 1.342 . S
C84 C88 1.401 . S
C84 C89 1.499 . S
N85 Co68 1.989 . S
N85 C84 1.342 . S
N85 N86 1.388 . S
N86 Co69 1.993 . S
N86 N85 1.388 . S
N86 C87 1.346 . S
C87 N86 1.346 . S
C87 C88 1.396 . S
C87 C97 1.510 . S
C88 C84 1.401 . S
C88 C87 1.396 . S
C89 C84 1.499 . S
C89 H90 0.959 . S
C89 H91 0.960 . S
C89 H92 0.961 . S
H90 C89 0.959 . S
H91 C89 0.960 . S
H92 C89 0.961 . S
O93 Co68 1.967 . S
O93 C101 1.258 . S
O94 Co69 1.941 . S
O94 C101 1.266 . S
H95 C97 0.959 . S
H96 C97 0.961 . S
C97 C87 1.510 . S
C97 H95 0.959 . S
C97 H96 0.961 . S
C97 H98 0.960 . S
H98 C97 0.960 . S
H99 N79 0.862 . S
O100 Co68 1.920 . S
O100 C73 1.289 1_545 S
C101 O93 1.258 . S
C101 O94 1.266 . S
Co102 O105 1.970 . S
Co102 N119 1.989 . S
Co102 O127 1.967 . S
Co102 O134 1.920 . S
Co103 O106 1.966 . S
Co103 N112 2.022 . S
Co103 N120 1.993 . S
Co103 O128 1.941 . S
C104 O105 1.258 . S
C104 O106 1.263 . S
O105 Co102 1.970 . S
O105 C104 1.258 . S
O106 Co103 1.966 . S
O106 C104 1.263 . S
C107 O108 1.235 1_554 S
C107 O134 1.289 1_554 S
O108 C107 1.235 1_556 S
C109 C111 1.400 . S
C109 N112 1.351 . S
C109 C114 1.501 . S
C110 C111 1.387 . S
C110 N113 1.341 . S
C111 C109 1.400 . S
C111 C110 1.387 . S
N112 Co103 2.022 . S
N112 C109 1.351 . S
N112 N113 1.365 . S
N113 C110 1.341 . S
N113 N112 1.365 . S
N113 H133 0.862 . S
C114 C109 1.501 . S
C114 H115 0.961 . S
C114 H116 0.961 . S
C114 H117 0.960 . S
H115 C114 0.961 . S
H116 C114 0.961 . S
H117 C114 0.960 . S
C118 N119 1.342 . S
C118 C122 1.401 . S
C118 C123 1.499 . S
N119 Co102 1.989 . S
N119 C118 1.342 . S
N119 N120 1.388 . S
N120 Co103 1.993 . S
N120 N119 1.388 . S
N120 C121 1.346 . S
C121 N120 1.346 . S
C121 C122 1.396 . S
C121 C131 1.510 . S
C122 C118 1.401 . S
C122 C121 1.396 . S
C123 C118 1.499 . S
C123 H124 0.959 . S
C123 H125 0.960 . S
C123 H126 0.961 . S
H124 C123 0.959 . S
H125 C123 0.960 . S
H126 C123 0.961 . S
O127 Co102 1.967 . S
O127 C135 1.258 . S
O128 Co103 1.941 . S
O128 C135 1.266 . S
H129 C131 0.959 . S
H130 C131 0.961 . S
C131 C121 1.510 . S
C131 H129 0.959 . S
C131 H130 0.961 . S
C131 H132 0.960 . S
H132 C131 0.960 . S
H133 N113 0.862 . S
O134 Co102 1.920 . S
O134 C107 1.289 1_556 S
C135 O127 1.258 . S
C135 O128 1.266 . S
Co136 O139 1.970 1_545 S
Co136 N153 1.989 . S
Co136 O161 1.967 . S
Co136 O168 1.920 . S
Co137 O140 1.966 1_545 S
Co137 N146 2.022 . S
Co137 N154 1.993 1_556 S
Co137 O162 1.941 . S
C138 O139 1.258 . S
C138 O140 1.263 1_554 S
O139 Co136 1.970 1_565 S
O139 C138 1.258 . S
O140 Co137 1.966 1_565 S
O140 C138 1.263 1_556 S
C141 O142 1.235 . S
C141 O168 1.289 1_565 S
O142 C141 1.235 . S
C143 C145 1.400 . S
C143 N146 1.351 . S
C143 C148 1.501 1_545 S
C144 C145 1.387 . S
C144 N147 1.341 . S
C145 C143 1.400 . S
C145 C144 1.387 . S
N146 Co137 2.022 . S
N146 C143 1.351 . S
N146 N147 1.365 . S
N147 C144 1.341 . S
N147 N146 1.365 . S
N147 H167 0.862 . S
C148 C143 1.501 1_565 S
C148 H149 0.961 . S
C148 H150 0.961 . S
C148 H151 0.960 . S
H149 C148 0.961 . S
H150 C148 0.961 . S
H151 C148 0.960 . S
C152 N153 1.342 . S
C152 C156 1.401 . S
C152 C157 1.499 . S
N153 Co136 1.989 . S
N153 C152 1.342 . S
N153 N154 1.388 . S
N154 Co137 1.993 1_554 S
N154 N153 1.388 . S
N154 C155 1.346 1_554 S
C155 N154 1.346 1_556 S
C155 C156 1.396 1_556 S
C155 C165 1.510 . S
C156 C152 1.401 . S
C156 C155 1.396 1_554 S
C157 C152 1.499 . S
C157 H158 0.959 . S
C157 H159 0.960 . S
C157 H160 0.961 . S
H158 C157 0.959 . S
H159 C157 0.960 . S
H160 C157 0.961 . S
O161 Co136 1.967 . S
O161 C169 1.258 . S
O162 Co137 1.941 . S
O162 C169 1.266 1_556 S
H163 C165 0.959 . S
H164 C165 0.961 . S
C165 C155 1.510 . S
C165 H163 0.959 . S
C165 H164 0.961 . S
C165 H166 0.960 . S
H166 C165 0.960 . S
H167 N147 0.862 . S
O168 Co136 1.920 . S
O168 C141 1.289 1_545 S
C169 O161 1.258 . S
C169 O162 1.266 1_554 S
Co170 O173 1.970 . S
Co170 N187 1.989 . S
Co170 O195 1.967 . S
Co170 O202 1.920 . S
Co171 O174 1.966 . S
Co171 N180 2.022 1_556 S
Co171 N188 1.993 . S
Co171 O196 1.941 . S
C172 O173 1.258 . S
C172 O174 1.263 . S
O173 Co170 1.970 . S
O173 C172 1.258 . S
O174 Co171 1.966 . S
O174 C172 1.263 . S
C175 O176 1.235 . S
C175 O202 1.289 . S
O176 C175 1.235 . S
C177 C179 1.400 . S
C177 N180 1.351 . S
C177 C182 1.501 . S
C178 C179 1.387 . S
C178 N181 1.341 . S
C179 C177 1.400 . S
C179 C178 1.387 . S
N180 Co171 2.022 1_554 S
N180 C177 1.351 . S
N180 N181 1.365 . S
N181 C178 1.341 . S
N181 N180 1.365 . S
N181 H201 0.862 . S
C182 C177 1.501 . S
C182 H183 0.961 . S
C182 H184 0.961 . S
C182 H185 0.960 . S
H183 C182 0.961 . S
H184 C182 0.961 . S
H185 C182 0.960 . S
C186 N187 1.342 . S
C186 C190 1.401 . S
C186 C191 1.499 . S
N187 Co170 1.989 . S
N187 C186 1.342 . S
N187 N188 1.388 . S
N188 Co171 1.993 . S
N188 N187 1.388 . S
N188 C189 1.346 . S
C189 N188 1.346 . S
C189 C190 1.396 . S
C189 C199 1.510 . S
C190 C186 1.401 . S
C190 C189 1.396 . S
C191 C186 1.499 . S
C191 H192 0.959 . S
C191 H193 0.960 . S
C191 H194 0.961 . S
H192 C191 0.959 . S
H193 C191 0.960 . S
H194 C191 0.961 . S
O195 Co170 1.967 . S
O195 C203 1.258 . S
O196 Co171 1.941 . S
O196 C203 1.266 . S
H197 C199 0.959 . S
H198 C199 0.961 . S
C199 C189 1.510 . S
C199 H197 0.959 . S
C199 H198 0.961 . S
C199 H200 0.960 . S
H200 C199 0.960 . S
H201 N181 0.862 . S
O202 Co170 1.920 . S
O202 C175 1.289 . S
C203 O195 1.258 . S
C203 O196 1.266 . S
Co204 O207 1.970 . S
Co204 N221 1.989 . S
Co204 O229 1.967 . S
Co204 O236 1.920 . S
Co205 O208 1.966 . S
Co205 N214 2.022 . S
Co205 N222 1.993 . S
Co205 O230 1.941 . S
C206 O207 1.258 . S
C206 O208 1.263 . S
O207 Co204 1.970 . S
O207 C206 1.258 . S
O208 Co205 1.966 . S
O208 C206 1.263 . S
C209 O210 1.235 . S
C209 O236 1.289 . S
O210 C209 1.235 . S
C211 C213 1.400 . S
C211 N214 1.351 . S
C211 C216 1.501 . S
C212 C213 1.387 . S
C212 N215 1.341 . S
C213 C211 1.400 . S
C213 C212 1.387 . S
N214 Co205 2.022 . S
N214 C211 1.351 . S
N214 N215 1.365 . S
N215 C212 1.341 . S
N215 N214 1.365 . S
N215 H235 0.862 . S
C216 C211 1.501 . S
C216 H217 0.961 . S
C216 H218 0.961 . S
C216 H219 0.960 . S
H217 C216 0.961 . S
H218 C216 0.961 . S
H219 C216 0.960 . S
C220 N221 1.342 . S
C220 C224 1.401 . S
C220 C225 1.499 . S
N221 Co204 1.989 . S
N221 C220 1.342 . S
N221 N222 1.388 . S
N222 Co205 1.993 . S
N222 N221 1.388 . S
N222 C223 1.346 . S
C223 N222 1.346 . S
C223 C224 1.396 . S
C223 C233 1.510 . S
C224 C220 1.401 . S
C224 C223 1.396 . S
C225 C220 1.499 . S
C225 H226 0.959 . S
C225 H227 0.960 . S
C225 H228 0.961 . S
H226 C225 0.959 . S
H227 C225 0.960 . S
H228 C225 0.961 . S
O229 Co204 1.967 . S
O229 C237 1.258 . S
O230 Co205 1.941 . S
O230 C237 1.266 . S
H231 C233 0.959 . S
H232 C233 0.961 . S
C233 C223 1.510 . S
C233 H231 0.959 . S
C233 H232 0.961 . S
C233 H234 0.960 . S
H234 C233 0.960 . S
H235 N215 0.862 . S
O236 Co204 1.920 . S
O236 C209 1.289 . S
C237 O229 1.258 . S
C237 O230 1.266 . S
Co238 O241 1.970 . S
Co238 N255 1.989 . S
Co238 O263 1.967 . S
Co238 O270 1.920 . S
Co239 O242 1.966 . S
Co239 N248 2.022 . S
Co239 N256 1.993 . S
Co239 O264 1.941 . S
C240 O241 1.258 . S
C240 O242 1.263 . S
O241 Co238 1.970 . S
O241 C240 1.258 . S
O242 Co239 1.966 . S
O242 C240 1.263 . S
C243 O244 1.235 . S
C243 O270 1.289 . S
O244 C243 1.235 . S
C245 C247 1.400 . S
C245 N248 1.351 . S
C245 C250 1.501 . S
C246 C247 1.387 . S
C246 N249 1.341 . S
C247 C245 1.400 . S
C247 C246 1.387 . S
N248 Co239 2.022 . S
N248 C245 1.351 . S
N248 N249 1.365 . S
N249 C246 1.341 . S
N249 N248 1.365 . S
N249 H269 0.862 . S
C250 C245 1.501 . S
C250 H251 0.961 . S
C250 H252 0.961 . S
C250 H253 0.960 . S
H251 C250 0.961 . S
H252 C250 0.961 . S
H253 C250 0.960 . S
C254 N255 1.342 . S
C254 C258 1.401 . S
C254 C259 1.499 . S
N255 Co238 1.989 . S
N255 C254 1.342 . S
N255 N256 1.388 . S
N256 Co239 1.993 . S
N256 N255 1.388 . S
N256 C257 1.346 . S
C257 N256 1.346 . S
C257 C258 1.396 . S
C257 C267 1.510 . S
C258 C254 1.401 . S
C258 C257 1.396 . S
C259 C254 1.499 . S
C259 H260 0.959 . S
C259 H261 0.960 . S
C259 H262 0.961 . S
H260 C259 0.959 . S
H261 C259 0.960 . S
H262 C259 0.961 . S
O263 Co238 1.967 . S
O263 C271 1.258 . S
O264 Co239 1.941 . S
O264 C271 1.266 . S
H265 C267 0.959 . S
H266 C267 0.961 . S
C267 C257 1.510 . S
C267 H265 0.959 . S
C267 H266 0.961 . S
C267 H268 0.960 . S
H268 C267 0.960 . S
H269 N249 0.862 . S
O270 Co238 1.920 . S
O270 C243 1.289 . S
C271 O263 1.258 . S
C271 O264 1.266 . S
Co272 O275 1.970 . S
Co272 N289 1.989 . S
Co272 O297 1.967 . S
Co272 O304 1.920 . S
Co273 O276 1.966 . S
Co273 N282 2.022 . S
Co273 N290 1.993 . S
Co273 O298 1.941 . S
C274 O275 1.258 . S
C274 O276 1.263 . S
O275 Co272 1.970 . S
O275 C274 1.258 . S
O276 Co273 1.966 . S
O276 C274 1.263 . S
C277 O278 1.235 . S
C277 O304 1.289 . S
O278 C277 1.235 . S
C279 C281 1.400 . S
C279 N282 1.351 . S
C279 C284 1.501 . S
C280 C281 1.387 . S
C280 N283 1.341 . S
C281 C279 1.400 . S
C281 C280 1.387 . S
N282 Co273 2.022 . S
N282 C279 1.351 . S
N282 N283 1.365 . S
N283 C280 1.341 . S
N283 N282 1.365 . S
N283 H303 0.862 . S
C284 C279 1.501 . S
C284 H285 0.961 . S
C284 H286 0.961 . S
C284 H287 0.960 . S
H285 C284 0.961 . S
H286 C284 0.961 . S
H287 C284 0.960 . S
C288 N289 1.342 . S
C288 C292 1.401 . S
C288 C293 1.499 . S
N289 Co272 1.989 . S
N289 C288 1.342 . S
N289 N290 1.388 . S
N290 Co273 1.993 . S
N290 N289 1.388 . S
N290 C291 1.346 . S
C291 N290 1.346 . S
C291 C292 1.396 . S
C291 C301 1.510 . S
C292 C288 1.401 . S
C292 C291 1.396 . S
C293 C288 1.499 . S
C293 H294 0.959 . S
C293 H295 0.960 . S
C293 H296 0.961 . S
H294 C293 0.959 . S
H295 C293 0.960 . S
H296 C293 0.961 . S
O297 Co272 1.967 . S
O297 C305 1.258 . S
O298 Co273 1.941 . S
O298 C305 1.266 . S
H299 C301 0.959 . S
H300 C301 0.961 . S
C301 C291 1.510 . S
C301 H299 0.959 . S
C301 H300 0.961 . S
C301 H302 0.960 . S
H302 C301 0.960 . S
H303 N283 0.862 . S
O304 Co272 1.920 . S
O304 C277 1.289 . S
C305 O297 1.258 . S
C305 O298 1.266 . S
Co306 O309 1.970 . S
Co306 N323 1.989 . S
Co306 O331 1.967 . S
Co306 O338 1.920 . S
Co307 O310 1.966 . S
Co307 N316 2.022 . S
Co307 N324 1.993 . S
Co307 O332 1.941 . S
C308 O309 1.258 . S
C308 O310 1.263 . S
O309 Co306 1.970 . S
O309 C308 1.258 . S
O310 Co307 1.966 . S
O310 C308 1.263 . S
C311 O312 1.235 1_554 S
C311 O338 1.289 1_554 S
O312 C311 1.235 1_556 S
C313 C315 1.400 . S
C313 N316 1.351 . S
C313 C318 1.501 . S
C314 C315 1.387 . S
C314 N317 1.341 . S
C315 C313 1.400 . S
C315 C314 1.387 . S
N316 Co307 2.022 . S
N316 C313 1.351 . S
N316 N317 1.365 . S
N317 C314 1.341 . S
N317 N316 1.365 . S
N317 H337 0.862 . S
C318 C313 1.501 . S
C318 H319 0.961 . S
C318 H320 0.961 . S
C318 H321 0.960 . S
H319 C318 0.961 . S
H320 C318 0.961 . S
H321 C318 0.960 . S
C322 N323 1.342 . S
C322 C326 1.401 . S
C322 C327 1.499 . S
N323 Co306 1.989 . S
N323 C322 1.342 . S
N323 N324 1.388 . S
N324 Co307 1.993 . S
N324 N323 1.388 . S
N324 C325 1.346 . S
C325 N324 1.346 . S
C325 C326 1.396 . S
C325 C335 1.510 . S
C326 C322 1.401 . S
C326 C325 1.396 . S
C327 C322 1.499 . S
C327 H328 0.959 . S
C327 H329 0.960 . S
C327 H330 0.961 . S
H328 C327 0.959 . S
H329 C327 0.960 . S
H330 C327 0.961 . S
O331 Co306 1.967 . S
O331 C339 1.258 . S
O332 Co307 1.941 . S
O332 C339 1.266 . S
H333 C335 0.959 . S
H334 C335 0.961 . S
C335 C325 1.510 . S
C335 H333 0.959 . S
C335 H334 0.961 . S
C335 H336 0.960 . S
H336 C335 0.960 . S
H337 N317 0.862 . S
O338 Co306 1.920 . S
O338 C311 1.289 1_556 S
C339 O331 1.258 . S
C339 O332 1.266 . S
Co340 O343 1.970 1_556 S
Co340 N357 1.989 1_556 S
Co340 O365 1.967 1_556 S
Co340 O372 1.920 . S
Co341 O344 1.966 . S
Co341 N350 2.022 . S
Co341 N358 1.993 . S
Co341 O366 1.941 . S
C342 O343 1.258 . S
C342 O344 1.263 . S
O343 Co340 1.970 1_554 S
O343 C342 1.258 . S
O344 Co341 1.966 . S
O344 C342 1.263 . S
C345 O346 1.235 . S
C345 O372 1.289 . S
O346 C345 1.235 . S
C347 C349 1.400 . S
C347 N350 1.351 . S
C347 C352 1.501 . S
C348 C349 1.387 . S
C348 N351 1.341 . S
C349 C347 1.400 . S
C349 C348 1.387 . S
N350 Co341 2.022 . S
N350 C347 1.351 . S
N350 N351 1.365 . S
N351 C348 1.341 . S
N351 N350 1.365 . S
N351 H371 0.862 . S
C352 C347 1.501 . S
C352 H353 0.961 . S
C352 H354 0.961 . S
C352 H355 0.960 . S
H353 C352 0.961 . S
H354 C352 0.961 . S
H355 C352 0.960 . S
C356 N357 1.342 . S
C356 C360 1.401 . S
C356 C361 1.499 1_554 S
N357 Co340 1.989 1_554 S
N357 C356 1.342 . S
N357 N358 1.388 . S
N358 Co341 1.993 . S
N358 N357 1.388 . S
N358 C359 1.346 . S
C359 N358 1.346 . S
C359 C360 1.396 . S
C359 C369 1.510 . S
C360 C356 1.401 . S
C360 C359 1.396 . S
C361 C356 1.499 1_556 S
C361 H362 0.959 . S
C361 H363 0.960 . S
C361 H364 0.961 . S
H362 C361 0.959 . S
H363 C361 0.960 . S
H364 C361 0.961 . S
O365 Co340 1.967 1_554 S
O365 C373 1.258 . S
O366 Co341 1.941 . S
O366 C373 1.266 . S
H367 C369 0.959 . S
H368 C369 0.961 . S
C369 C359 1.510 . S
C369 H367 0.959 . S
C369 H368 0.961 . S
C369 H370 0.960 . S
H370 C369 0.960 . S
H371 N351 0.862 . S
O372 Co340 1.920 . S
O372 C345 1.289 . S
C373 O365 1.258 . S
C373 O366 1.266 . S
Co374 O377 1.970 . S
Co374 N391 1.989 . S
Co374 O399 1.967 . S
Co374 O406 1.920 . S
Co375 O378 1.966 . S
Co375 N384 2.022 . S
Co375 N392 1.993 . S
Co375 O400 1.941 . S
C376 O377 1.258 . S
C376 O378 1.263 . S
O377 Co374 1.970 . S
O377 C376 1.258 . S
O378 Co375 1.966 . S
O378 C376 1.263 . S
C379 O380 1.235 . S
C379 O406 1.289 . S
O380 C379 1.235 . S
C381 C383 1.400 1_554 S
C381 N384 1.351 . S
C381 C386 1.501 . S
C382 C383 1.387 1_554 S
C382 N385 1.341 . S
C383 C381 1.400 1_556 S
C383 C382 1.387 1_556 S
N384 Co375 2.022 . S
N384 C381 1.351 . S
N384 N385 1.365 . S
N385 C382 1.341 . S
N385 N384 1.365 . S
N385 H405 0.862 . S
C386 C381 1.501 . S
C386 H387 0.961 . S
C386 H388 0.961 . S
C386 H389 0.960 . S
H387 C386 0.961 . S
H388 C386 0.961 . S
H389 C386 0.960 . S
C390 N391 1.342 . S
C390 C394 1.401 . S
C390 C395 1.499 . S
N391 Co374 1.989 . S
N391 C390 1.342 . S
N391 N392 1.388 . S
N392 Co375 1.993 . S
N392 N391 1.388 . S
N392 C393 1.346 . S
C393 N392 1.346 . S
C393 C394 1.396 . S
C393 C403 1.510 . S
C394 C390 1.401 . S
C394 C393 1.396 . S
C395 C390 1.499 . S
C395 H396 0.959 . S
C395 H397 0.960 . S
C395 H398 0.961 . S
H396 C395 0.959 . S
H397 C395 0.960 . S
H398 C395 0.961 . S
O399 Co374 1.967 . S
O399 C407 1.258 . S
O400 Co375 1.941 . S
O400 C407 1.266 . S
H401 C403 0.959 . S
H402 C403 0.961 . S
C403 C393 1.510 . S
C403 H401 0.959 . S
C403 H402 0.961 . S
C403 H404 0.960 . S
H404 C403 0.960 . S
H405 N385 0.862 . S
O406 Co374 1.920 . S
O406 C379 1.289 . S
C407 O399 1.258 . S
C407 O400 1.266 . S
Co408 O411 1.970 . S
Co408 N425 1.989 . S
Co408 O433 1.967 . S
Co408 O440 1.920 . S
Co409 O412 1.966 . S
Co409 N418 2.022 . S
Co409 N426 1.993 . S
Co409 O434 1.941 . S
C410 O411 1.258 . S
C410 O412 1.263 . S
O411 Co408 1.970 . S
O411 C410 1.258 . S
O412 Co409 1.966 . S
O412 C410 1.263 . S
C413 O414 1.235 . S
C413 O440 1.289 . S
O414 C413 1.235 . S
C415 C417 1.400 . S
C415 N418 1.351 . S
C415 C420 1.501 . S
C416 C417 1.387 . S
C416 N419 1.341 . S
C417 C415 1.400 . S
C417 C416 1.387 . S
N418 Co409 2.022 . S
N418 C415 1.351 . S
N418 N419 1.365 . S
N419 C416 1.341 . S
N419 N418 1.365 . S
N419 H439 0.862 . S
C420 C415 1.501 . S
C420 H421 0.961 . S
C420 H422 0.961 . S
C420 H423 0.960 . S
H421 C420 0.961 . S
H422 C420 0.961 . S
H423 C420 0.960 . S
C424 N425 1.342 . S
C424 C428 1.401 . S
C424 C429 1.499 . S
N425 Co408 1.989 . S
N425 C424 1.342 . S
N425 N426 1.388 . S
N426 Co409 1.993 . S
N426 N425 1.388 . S
N426 C427 1.346 . S
C427 N426 1.346 . S
C427 C428 1.396 . S
C427 C437 1.510 . S
C428 C424 1.401 . S
C428 C427 1.396 . S
C429 C424 1.499 . S
C429 H430 0.959 . S
C429 H431 0.960 . S
C429 H432 0.961 . S
H430 C429 0.959 . S
H431 C429 0.960 . S
H432 C429 0.961 . S
O433 Co408 1.967 . S
O433 C441 1.258 . S
O434 Co409 1.941 . S
O434 C441 1.266 . S
H435 C437 0.959 . S
H436 C437 0.961 . S
C437 C427 1.510 . S
C437 H435 0.959 . S
C437 H436 0.961 . S
C437 H438 0.960 . S
H438 C437 0.960 . S
H439 N419 0.862 . S
O440 Co408 1.920 . S
O440 C413 1.289 . S
C441 O433 1.258 . S
C441 O434 1.266 . S
Co442 O445 1.970 . S
Co442 N459 1.989 . S
Co442 O467 1.967 . S
Co442 O474 1.920 . S
Co443 O446 1.966 . S
Co443 N452 2.022 . S
Co443 N460 1.993 . S
Co443 O468 1.941 . S
C444 O445 1.258 . S
C444 O446 1.263 . S
O445 Co442 1.970 . S
O445 C444 1.258 . S
O446 Co443 1.966 . S
O446 C444 1.263 . S
C447 O448 1.235 . S
C447 O474 1.289 . S
O448 C447 1.235 . S
C449 C451 1.400 . S
C449 N452 1.351 . S
C449 C454 1.501 . S
C450 C451 1.387 . S
C450 N453 1.341 . S
C451 C449 1.400 . S
C451 C450 1.387 . S
N452 Co443 2.022 . S
N452 C449 1.351 . S
N452 N453 1.365 . S
N453 C450 1.341 . S
N453 N452 1.365 . S
N453 H473 0.862 . S
C454 C449 1.501 . S
C454 H455 0.961 . S
C454 H456 0.961 . S
C454 H457 0.960 . S
H455 C454 0.961 . S
H456 C454 0.961 . S
H457 C454 0.960 . S
C458 N459 1.342 . S
C458 C462 1.401 . S
C458 C463 1.499 . S
N459 Co442 1.989 . S
N459 C458 1.342 . S
N459 N460 1.388 . S
N460 Co443 1.993 . S
N460 N459 1.388 . S
N460 C461 1.346 . S
C461 N460 1.346 . S
C461 C462 1.396 . S
C461 C471 1.510 . S
C462 C458 1.401 . S
C462 C461 1.396 . S
C463 C458 1.499 . S
C463 H464 0.959 . S
C463 H465 0.960 . S
C463 H466 0.961 . S
H464 C463 0.959 . S
H465 C463 0.960 . S
H466 C463 0.961 . S
O467 Co442 1.967 . S
O467 C475 1.258 . S
O468 Co443 1.941 . S
O468 C475 1.266 . S
H469 C471 0.959 . S
H470 C471 0.961 . S
C471 C461 1.510 . S
C471 H469 0.959 . S
C471 H470 0.961 . S
C471 H472 0.960 . S
H472 C471 0.960 . S
H473 N453 0.862 . S
O474 Co442 1.920 . S
O474 C447 1.289 . S
C475 O467 1.258 . S
C475 O468 1.266 . S
Co476 O479 1.970 . S
Co476 N493 1.989 . S
Co476 O501 1.967 . S
Co476 O508 1.920 . S
Co477 O480 1.966 . S
Co477 N486 2.022 . S
Co477 N494 1.993 1_556 S
Co477 O502 1.941 . S
C478 O479 1.258 . S
C478 O480 1.263 1_554 S
O479 Co476 1.970 . S
O479 C478 1.258 . S
O480 Co477 1.966 . S
O480 C478 1.263 1_556 S
C481 O482 1.235 . S
C481 O508 1.289 . S
O482 C481 1.235 . S
C483 C485 1.400 . S
C483 N486 1.351 . S
C483 C488 1.501 . S
C484 C485 1.387 . S
C484 N487 1.341 . S
C485 C483 1.400 . S
C485 C484 1.387 . S
N486 Co477 2.022 . S
N486 C483 1.351 . S
N486 N487 1.365 . S
N487 C484 1.341 . S
N487 N486 1.365 . S
N487 H507 0.862 . S
C488 C483 1.501 . S
C488 H489 0.961 . S
C488 H490 0.961 . S
C488 H491 0.960 . S
H489 C488 0.961 . S
H490 C488 0.961 . S
H491 C488 0.960 . S
C492 N493 1.342 . S
C492 C496 1.401 . S
C492 C497 1.499 . S
N493 Co476 1.989 . S
N493 C492 1.342 . S
N493 N494 1.388 . S
N494 Co477 1.993 1_554 S
N494 N493 1.388 . S
N494 C495 1.346 1_554 S
C495 N494 1.346 1_556 S
C495 C496 1.396 1_556 S
C495 C505 1.510 . S
C496 C492 1.401 . S
C496 C495 1.396 1_554 S
C497 C492 1.499 . S
C497 H498 0.959 . S
C497 H499 0.960 . S
C497 H500 0.961 . S
H498 C497 0.959 . S
H499 C497 0.960 . S
H500 C497 0.961 . S
O501 Co476 1.967 . S
O501 C509 1.258 . S
O502 Co477 1.941 . S
O502 C509 1.266 1_556 S
H503 C505 0.959 . S
H504 C505 0.961 . S
C505 C495 1.510 . S
C505 H503 0.959 . S
C505 H504 0.961 . S
C505 H506 0.960 . S
H506 C505 0.960 . S
H507 N487 0.862 . S
O508 Co476 1.920 . S
O508 C481 1.289 . S
C509 O501 1.258 . S
C509 O502 1.266 1_554 S
Co510 O513 1.970 . S
Co510 N527 1.989 . S
Co510 O535 1.967 . S
Co510 O542 1.920 . S
Co511 O514 1.966 . S
Co511 N520 2.022 1_556 S
Co511 N528 1.993 . S
Co511 O536 1.941 . S
C512 O513 1.258 . S
C512 O514 1.263 . S
O513 Co510 1.970 . S
O513 C512 1.258 . S
O514 Co511 1.966 . S
O514 C512 1.263 . S
C515 O516 1.235 . S
C515 O542 1.289 . S
O516 C515 1.235 . S
C517 C519 1.400 . S
C517 N520 1.351 . S
C517 C522 1.501 . S
C518 C519 1.387 . S
C518 N521 1.341 . S
C519 C517 1.400 . S
C519 C518 1.387 . S
N520 Co511 2.022 1_554 S
N520 C517 1.351 . S
N520 N521 1.365 . S
N521 C518 1.341 . S
N521 N520 1.365 . S
N521 H541 0.862 . S
C522 C517 1.501 . S
C522 H523 0.961 . S
C522 H524 0.961 . S
C522 H525 0.960 . S
H523 C522 0.961 . S
H524 C522 0.961 . S
H525 C522 0.960 . S
C526 N527 1.342 . S
C526 C530 1.401 . S
C526 C531 1.499 . S
N527 Co510 1.989 . S
N527 C526 1.342 . S
N527 N528 1.388 . S
N528 Co511 1.993 . S
N528 N527 1.388 . S
N528 C529 1.346 . S
C529 N528 1.346 . S
C529 C530 1.396 . S
C529 C539 1.510 . S
C530 C526 1.401 . S
C530 C529 1.396 . S
C531 C526 1.499 . S
C531 H532 0.959 . S
C531 H533 0.960 . S
C531 H534 0.961 . S
H532 C531 0.959 . S
H533 C531 0.960 . S
H534 C531 0.961 . S
O535 Co510 1.967 . S
O535 C543 1.258 . S
O536 Co511 1.941 . S
O536 C543 1.266 . S
H537 C539 0.959 . S
H538 C539 0.961 . S
C539 C529 1.510 . S
C539 H537 0.959 . S
C539 H538 0.961 . S
C539 H540 0.960 . S
H540 C539 0.960 . S
H541 N521 0.862 . S
O542 Co510 1.920 . S
O542 C515 1.289 . S
C543 O535 1.258 . S
C543 O536 1.266 . S
H544 C550 0.930 . S
H545 C554 0.930 . S
H546 C559 0.929 . S
H547 C557 0.929 . S
H548 C552 0.929 . S
H549 C558 0.929 . S
C550 H544 0.930 . S
C550 C551 1.367 . S
C550 C558 1.378 . S
C551 C550 1.367 . S
C551 C559 1.433 . S
C552 H548 0.929 . S
C552 C554 1.378 . S
C552 C556 1.350 . S
C553 C556 1.463 . S
C553 C558 1.350 . S
C553 N561 1.427 . S
C554 H545 0.930 . S
C554 C552 1.378 . S
C554 C555 1.367 . S
C555 C554 1.367 . S
C555 C557 1.433 . S
C556 C552 1.350 . S
C556 C553 1.463 . S
C556 N560 1.427 . S
C557 H547 0.929 . S
C557 C555 1.433 . S
C557 N560 1.384 . S
C558 H549 0.929 . S
C558 C550 1.378 . S
C558 C553 1.350 . S
C559 H546 0.929 . S
C559 C551 1.433 . S
C559 N561 1.384 . S
N560 C556 1.427 . S
N560 C557 1.384 . S
N561 C553 1.427 . S
N561 C559 1.384 . S
H562 C568 0.930 . S
H563 C572 0.930 . S
H564 C577 0.929 . S
H565 C575 0.929 . S
H566 C570 0.929 . S
H567 C576 0.929 . S
C568 H562 0.930 . S
C568 C569 1.367 . S
C568 C576 1.378 . S
C569 C568 1.367 . S
C569 C577 1.433 . S
C570 H566 0.929 . S
C570 C572 1.378 . S
C570 C574 1.350 . S
C571 C574 1.463 . S
C571 C576 1.350 . S
C571 N579 1.427 . S
C572 H563 0.930 . S
C572 C570 1.378 . S
C572 C573 1.367 . S
C573 C572 1.367 . S
C573 C575 1.433 . S
C574 C570 1.350 . S
C574 C571 1.463 . S
C574 N578 1.427 . S
C575 H565 0.929 . S
C575 C573 1.433 . S
C575 N578 1.384 . S
C576 H567 0.929 . S
C576 C568 1.378 . S
C576 C571 1.350 . S
C577 H564 0.929 . S
C577 C569 1.433 . S
C577 N579 1.384 . S
N578 C574 1.427 . S
N578 C575 1.384 . S
N579 C571 1.427 . S
N579 C577 1.384 . S
H580 C586 0.930 . S
H581 C590 0.930 . S
H582 C595 0.929 . S
H583 C593 0.929 . S
H584 C588 0.929 . S
H585 C594 0.929 . S
C586 H580 0.930 . S
C586 C587 1.367 . S
C586 C594 1.378 . S
C587 C586 1.367 . S
C587 C595 1.433 1_565 S
C588 H584 0.929 . S
C588 C590 1.378 1_554 S
C588 C592 1.350 . S
C589 C592 1.473 . S
C589 C594 1.322 1_545 S
C589 N597 1.449 . S
C590 H581 0.930 . S
C590 C588 1.378 1_556 S
C590 C591 1.367 . S
C591 C590 1.367 . S
C591 C593 1.433 1_545 S
C592 C588 1.350 . S
C592 C589 1.473 . S
C592 N596 1.427 1_545 S
C593 H583 0.929 . S
C593 C591 1.433 1_565 S
C593 N596 1.384 1_556 S
C594 H585 0.929 . S
C594 C586 1.378 . S
C594 C589 1.322 1_565 S
C595 H582 0.929 . S
C595 C587 1.433 1_545 S
C595 N597 1.384 . S
N596 C592 1.427 1_565 S
N596 C593 1.384 1_554 S
N597 C589 1.449 . S
N597 C595 1.384 . S
H598 C604 0.930 . S
H599 C608 0.930 . S
H600 C613 0.929 . S
H601 C611 0.929 . S
H602 C606 0.929 . S
H603 C612 0.929 . S
C604 H598 0.930 . S
C604 C605 1.367 . S
C604 C612 1.378 . S
C605 C604 1.367 . S
C605 C613 1.433 . S
C606 H602 0.929 . S
C606 C608 1.378 . S
C606 C610 1.350 . S
C607 C610 1.463 . S
C607 C612 1.350 . S
C607 N615 1.427 . S
C608 H599 0.930 . S
C608 C606 1.378 . S
C608 C609 1.367 . S
C609 C608 1.367 . S
C609 C611 1.433 . S
C610 C606 1.350 . S
C610 C607 1.463 . S
C610 N614 1.427 . S
C611 H601 0.929 . S
C611 C609 1.433 . S
C611 N614 1.384 . S
C612 H603 0.929 . S
C612 C604 1.378 . S
C612 C607 1.350 . S
C613 H600 0.929 . S
C613 C605 1.433 . S
C613 N615 1.384 . S
N614 C610 1.427 . S
N614 C611 1.384 . S
N615 C607 1.427 . S
N615 C613 1.384 . S
H616 C622 0.930 . S
H617 C626 0.930 . S
H618 C631 0.929 . S
H619 C629 0.929 . S
H620 C624 0.929 . S
H621 C630 0.923 1_565 S
C622 H616 0.930 . S
C622 C623 1.367 . S
C622 C630 1.383 . S
C623 C622 1.367 . S
C623 C631 1.433 . S
C624 H620 0.929 . S
C624 C626 1.378 . S
C624 C628 1.350 . S
C625 C628 1.463 . S
C625 C630 1.352 . S
C625 N633 1.427 . S
C626 H617 0.930 . S
C626 C624 1.378 . S
C626 C627 1.367 1_545 S
C627 C626 1.367 1_565 S
C627 C629 1.433 . S
C628 C624 1.350 . S
C628 C625 1.463 . S
C628 N632 1.427 1_545 S
C629 H619 0.929 . S
C629 C627 1.433 . S
C629 N632 1.384 . S
C630 H621 0.923 1_545 S
C630 C622 1.383 . S
C630 C625 1.352 . S
C631 H618 0.929 . S
C631 C623 1.433 . S
C631 N633 1.384 . S
N632 C628 1.427 1_565 S
N632 C629 1.384 . S
N633 C625 1.427 . S
N633 C631 1.384 . S
H634 C640 0.930 . S
H635 C644 0.930 . S
H636 C649 0.929 . S
H637 C647 0.929 . S
H638 C642 0.929 . S
H639 C648 0.929 . S
C640 H634 0.930 . S
C640 C641 1.367 . S
C640 C648 1.378 . S
C641 C640 1.367 . S
C641 C649 1.433 . S
C642 H638 0.929 . S
C642 C644 1.378 . S
C642 C646 1.350 . S
C643 C646 1.463 . S
C643 C648 1.350 . S
C643 N651 1.427 . S
C644 H635 0.930 . S
C644 C642 1.378 . S
C644 C645 1.367 . S
C645 C644 1.367 . S
C645 C647 1.433 . S
C646 C642 1.350 . S
C646 C643 1.463 . S
C646 N650 1.427 . S
C647 H637 0.929 . S
C647 C645 1.433 . S
C647 N650 1.384 . S
C648 H639 0.929 . S
C648 C640 1.378 . S
C648 C643 1.350 . S
C649 H636 0.929 . S
C649 C641 1.433 . S
C649 N651 1.384 . S
N650 C646 1.427 . S
N650 C647 1.384 . S
N651 C643 1.427 . S
N651 C649 1.384 . S
H652 C658 0.930 . S
H653 C662 0.930 . S
H654 C667 0.929 . S
H655 C665 0.929 . S
H656 C660 0.929 . S
H657 C666 0.929 . S
C658 H652 0.930 . S
C658 C659 1.367 . S
C658 C666 1.378 . S
C659 C658 1.367 . S
C659 C667 1.433 . S
C660 H656 0.929 . S
C660 C662 1.378 . S
C660 C664 1.350 . S
C661 C664 1.463 1_554 S
C661 C666 1.350 . S
C661 N669 1.427 . S
C662 H653 0.930 . S
C662 C660 1.378 . S
C662 C663 1.367 . S
C663 C662 1.367 . S
C663 C665 1.433 . S
C664 C660 1.350 . S
C664 C661 1.463 1_556 S
C664 N668 1.427 . S
C665 H655 0.929 . S
C665 C663 1.433 . S
C665 N668 1.384 . S
C666 H657 0.929 . S
C666 C658 1.378 . S
C666 C661 1.350 . S
C667 H654 0.929 . S
C667 C659 1.433 . S
C667 N669 1.384 . S
N668 C664 1.427 . S
N668 C665 1.384 . S
N669 C661 1.427 . S
N669 C667 1.384 . S
H670 C676 0.930 . S
H671 C680 0.930 . S
H672 C685 0.929 . S
H673 C683 0.929 . S
H674 C678 0.929 . S
H675 C684 0.929 . S
C676 H670 0.930 . S
C676 C677 1.367 . S
C676 C684 1.378 . S
C677 C676 1.367 . S
C677 C685 1.433 . S
C678 H674 0.929 . S
C678 C680 1.379 1_556 S
C678 C682 1.350 . S
C679 C682 1.463 . S
C679 C684 1.350 . S
C679 N687 1.427 . S
C680 H671 0.930 . S
C680 C678 1.379 1_554 S
C680 C681 1.366 . S
C681 C680 1.366 . S
C681 C683 1.433 . S
C682 C678 1.350 . S
C682 C679 1.463 . S
C682 N686 1.427 . S
C683 H673 0.929 . S
C683 C681 1.433 . S
C683 N686 1.384 1_554 S
C684 H675 0.929 . S
C684 C676 1.378 . S
C684 C679 1.350 . S
C685 H672 0.929 . S
C685 C677 1.433 . S
C685 N687 1.384 . S
N686 C682 1.427 . S
N686 C683 1.384 1_556 S
N687 C679 1.427 . S
N687 C685 1.384 . S
H688 C694 0.930 . S
H689 C698 0.930 . S
H690 C703 0.929 . S
H691 C701 0.929 . S
H692 C696 0.929 . S
H693 C702 0.929 . S
C694 H688 0.930 . S
C694 C695 1.367 . S
C694 C702 1.378 . S
C695 C694 1.367 . S
C695 C703 1.433 . S
C696 H692 0.929 . S
C696 C698 1.378 1_554 S
C696 C700 1.350 . S
C697 C700 1.463 . S
C697 C702 1.350 . S
C697 N705 1.427 . S
C698 H689 0.930 . S
C698 C696 1.378 1_556 S
C698 C699 1.367 . S
C699 C698 1.367 . S
C699 C701 1.433 . S
C700 C696 1.350 . S
C700 C697 1.463 . S
C700 N704 1.427 . S
C701 H691 0.929 . S
C701 C699 1.433 . S
C701 N704 1.384 1_556 S
C702 H693 0.929 . S
C702 C694 1.378 . S
C702 C697 1.350 . S
C703 H690 0.929 . S
C703 C695 1.433 . S
C703 N705 1.384 . S
N704 C700 1.427 . S
N704 C701 1.384 1_554 S
N705 C697 1.427 . S
N705 C703 1.384 . S
H706 C712 0.930 . S
H707 C716 0.930 . S
H708 C721 0.929 . S
H709 C719 0.929 . S
H710 C714 0.929 . S
H711 C720 0.929 . S
C712 H706 0.930 . S
C712 C713 1.367 . S
C712 C720 1.378 . S
C713 C712 1.367 . S
C713 C721 1.433 . S
C714 H710 0.929 . S
C714 C716 1.378 . S
C714 C718 1.350 . S
C715 C718 1.463 . S
C715 C720 1.350 . S
C715 N723 1.427 . S
C716 H707 0.930 . S
C716 C714 1.378 . S
C716 C717 1.367 . S
C717 C716 1.367 . S
C717 C719 1.433 . S
C718 C714 1.350 . S
C718 C715 1.463 . S
C718 N722 1.427 . S
C719 H709 0.929 . S
C719 C717 1.433 . S
C719 N722 1.384 . S
C720 H711 0.929 . S
C720 C712 1.378 . S
C720 C715 1.350 . S
C721 H708 0.929 . S
C721 C713 1.433 . S
C721 N723 1.384 . S
N722 C718 1.427 . S
N722 C719 1.384 . S
N723 C715 1.427 . S
N723 C721 1.384 . S
H724 C730 0.930 . S
H725 C734 0.930 . S
H726 C739 0.929 . S
H727 C737 0.929 . S
H728 C732 0.929 . S
H729 C738 0.929 . S
C730 H724 0.930 . S
C730 C731 1.367 . S
C730 C738 1.378 . S
C731 C730 1.367 . S
C731 C739 1.433 . S
C732 H728 0.929 . S
C732 C734 1.378 . S
C732 C736 1.350 . S
C733 C736 1.463 . S
C733 C738 1.350 . S
C733 N741 1.427 . S
C734 H725 0.930 . S
C734 C732 1.378 . S
C734 C735 1.367 . S
C735 C734 1.367 . S
C735 C737 1.433 . S
C736 C732 1.350 . S
C736 C733 1.463 . S
C736 N740 1.427 . S
C737 H727 0.929 . S
C737 C735 1.433 . S
C737 N740 1.384 . S
C738 H729 0.929 . S
C738 C730 1.378 . S
C738 C733 1.350 . S
C739 H726 0.929 . S
C739 C731 1.433 . S
C739 N741 1.384 . S
N740 C736 1.427 . S
N740 C737 1.384 . S
N741 C733 1.427 . S
N741 C739 1.384 . S
H742 C748 0.930 . S
H743 C752 0.930 . S
H744 C757 0.929 . S
H745 C755 0.929 . S
H746 C750 0.929 . S
H747 C756 0.929 . S
C748 H742 0.930 . S
C748 C749 1.367 . S
C748 C756 1.378 . S
C749 C748 1.367 . S
C749 C757 1.433 . S
C750 H746 0.929 . S
C750 C752 1.378 . S
C750 C754 1.350 . S
C751 C754 1.463 . S
C751 C756 1.350 . S
C751 N759 1.427 . S
C752 H743 0.930 . S
C752 C750 1.378 . S
C752 C753 1.367 . S
C753 C752 1.367 . S
C753 C755 1.433 . S
C754 C750 1.350 . S
C754 C751 1.463 . S
C754 N758 1.427 . S
C755 H745 0.929 . S
C755 C753 1.433 . S
C755 N758 1.384 . S
C756 H747 0.929 . S
C756 C748 1.378 . S
C756 C751 1.350 . S
C757 H744 0.929 . S
C757 C749 1.433 . S
C757 N759 1.384 . S
N758 C754 1.427 . S
N758 C755 1.384 . S
N759 C751 1.427 . S
N759 C757 1.384 . S
H760 C766 0.930 . S
H761 C770 0.930 . S
H762 C775 0.929 . S
H763 C773 0.929 . S
H764 C768 0.929 . S
H765 C774 0.929 . S
C766 H760 0.930 . S
C766 C767 1.367 . S
C766 C774 1.378 . S
C767 C766 1.367 . S
C767 C775 1.433 . S
C768 H764 0.929 . S
C768 C770 1.378 . S
C768 C772 1.350 . S
C769 C772 1.463 1_556 S
C769 C774 1.350 . S
C769 N777 1.427 . S
C770 H761 0.930 . S
C770 C768 1.378 . S
C770 C771 1.367 . S
C771 C770 1.367 . S
C771 C773 1.433 . S
C772 C768 1.350 . S
C772 C769 1.463 1_554 S
C772 N776 1.427 . S
C773 H763 0.929 . S
C773 C771 1.433 . S
C773 N776 1.384 . S
C774 H765 0.929 . S
C774 C766 1.378 . S
C774 C769 1.350 . S
C775 H762 0.929 . S
C775 C767 1.433 . S
C775 N777 1.384 . S
N776 C772 1.427 . S
N776 C773 1.384 . S
N777 C769 1.427 . S
N777 C775 1.384 . S
H778 C784 0.930 . S
H779 C788 0.930 . S
H780 C793 0.929 . S
H781 C791 0.929 . S
H782 C786 0.929 . S
H783 C792 0.929 . S
C784 H778 0.930 . S
C784 C785 1.367 . S
C784 C792 1.378 1_554 S
C785 C784 1.367 . S
C785 C793 1.433 . S
C786 H782 0.929 . S
C786 C788 1.378 . S
C786 C790 1.350 . S
C787 C790 1.463 . S
C787 C792 1.350 . S
C787 N795 1.427 . S
C788 H779 0.930 . S
C788 C786 1.378 . S
C788 C789 1.367 . S
C789 C788 1.367 . S
C789 C791 1.433 . S
C790 C786 1.350 . S
C790 C787 1.463 . S
C790 N794 1.427 . S
C791 H781 0.929 . S
C791 C789 1.433 . S
C791 N794 1.384 . S
C792 H783 0.929 . S
C792 C784 1.378 1_556 S
C792 C787 1.350 . S
C793 H780 0.929 . S
C793 C785 1.433 . S
C793 N795 1.384 1_554 S
N794 C790 1.427 . S
N794 C791 1.384 . S
N795 C787 1.427 . S
N795 C793 1.384 1_556 S
H796 C802 0.930 . S
H797 C806 0.930 . S
H798 C811 0.929 . S
H799 C809 0.929 . S
H800 C804 0.929 . S
H801 C810 0.929 . S
C802 H796 0.930 . S
C802 C803 1.367 . S
C802 C810 1.378 . S
C803 C802 1.367 . S
C803 C811 1.433 . S
C804 H800 0.929 . S
C804 C806 1.378 . S
C804 C808 1.350 . S
C805 C808 1.463 . S
C805 C810 1.350 . S
C805 N813 1.427 . S
C806 H797 0.930 . S
C806 C804 1.378 . S
C806 C807 1.367 . S
C807 C806 1.367 . S
C807 C809 1.433 . S
C808 C804 1.350 . S
C808 C805 1.463 . S
C808 N812 1.427 . S
C809 H799 0.929 . S
C809 C807 1.433 . S
C809 N812 1.384 . S
C810 H801 0.929 . S
C810 C802 1.378 . S
C810 C805 1.350 . S
C811 H798 0.929 . S
C811 C803 1.433 . S
C811 N813 1.384 . S
N812 C808 1.427 . S
N812 C809 1.384 . S
N813 C805 1.427 . S
N813 C811 1.384 . S
H814 C820 0.930 . S
H815 C824 0.930 . S
H816 C829 0.929 . S
H817 C827 0.929 . S
H818 C822 0.929 . S
H819 C828 0.929 . S
C820 H814 0.930 . S
C820 C821 1.367 . S
C820 C828 1.378 . S
C821 C820 1.367 . S
C821 C829 1.433 . S
C822 H818 0.929 . S
C822 C824 1.378 . S
C822 C826 1.350 . S
C823 C826 1.463 . S
C823 C828 1.350 . S
C823 N831 1.427 . S
C824 H815 0.930 . S
C824 C822 1.378 . S
C824 C825 1.367 . S
C825 C824 1.367 . S
C825 C827 1.433 . S
C826 C822 1.350 . S
C826 C823 1.463 . S
C826 N830 1.427 . S
C827 H817 0.929 . S
C827 C825 1.433 . S
C827 N830 1.384 . S
C828 H819 0.929 . S
C828 C820 1.378 . S
C828 C823 1.350 . S
C829 H816 0.929 . S
C829 C821 1.433 . S
C829 N831 1.384 . S
N830 C826 1.427 . S
N830 C827 1.384 . S
N831 C823 1.427 . S
N831 C829 1.384 . S
H832 C838 0.930 . S
H833 C842 0.930 . S
H834 C847 0.929 . S
H835 C845 0.929 . S
H836 C840 0.929 . S
H837 C846 0.929 . S
C838 H832 0.930 . S
C838 C839 1.367 . S
C838 C846 1.378 . S
C839 C838 1.367 . S
C839 C847 1.433 . S
C840 H836 0.929 . S
C840 C842 1.378 . S
C840 C844 1.350 . S
C841 C844 1.463 . S
C841 C846 1.350 . S
C841 N849 1.427 . S
C842 H833 0.930 . S
C842 C840 1.378 . S
C842 C843 1.367 . S
C843 C842 1.367 . S
C843 C845 1.433 . S
C844 C840 1.350 . S
C844 C841 1.463 . S
C844 N848 1.427 . S
C845 H835 0.929 . S
C845 C843 1.433 . S
C845 N848 1.384 . S
C846 H837 0.929 . S
C846 C838 1.378 . S
C846 C841 1.350 . S
C847 H834 0.929 . S
C847 C839 1.433 . S
C847 N849 1.384 . S
N848 C844 1.427 . S
N848 C845 1.384 . S
N849 C841 1.427 . S
N849 C847 1.384 . S
H850 C856 0.930 . S
H851 C860 0.930 . S
H852 C865 0.929 . S
H853 C863 0.929 . S
H854 C858 0.929 . S
H855 C864 0.929 . S
C856 H850 0.930 . S
C856 C857 1.367 . S
C856 C864 1.378 . S
C857 C856 1.367 . S
C857 C865 1.433 . S
C858 H854 0.929 . S
C858 C860 1.378 . S
C858 C862 1.350 . S
C859 C862 1.463 . S
C859 C864 1.350 . S
C859 N867 1.427 . S
C860 H851 0.930 . S
C860 C858 1.378 . S
C860 C861 1.367 . S
C861 C860 1.367 . S
C861 C863 1.433 . S
C862 C858 1.350 . S
C862 C859 1.463 . S
C862 N866 1.427 . S
C863 H853 0.929 . S
C863 C861 1.433 . S
C863 N866 1.384 . S
C864 H855 0.929 . S
C864 C856 1.378 . S
C864 C859 1.350 . S
C865 H852 0.929 . S
C865 C857 1.433 . S
C865 N867 1.384 . S
N866 C862 1.427 . S
N866 C863 1.384 . S
N867 C859 1.427 . S
N867 C865 1.384 . S
H868 C874 0.930 . S
H869 C878 0.930 . S
H870 C883 0.929 . S
H871 C881 0.929 . S
H872 C876 0.929 . S
H873 C882 0.929 . S
C874 H868 0.930 . S
C874 C875 1.367 . S
C874 C882 1.378 . S
C875 C874 1.367 . S
C875 C883 1.433 . S
C876 H872 0.929 . S
C876 C878 1.378 . S
C876 C880 1.350 . S
C877 C880 1.463 . S
C877 C882 1.350 . S
C877 N885 1.427 . S
C878 H869 0.930 . S
C878 C876 1.378 . S
C878 C879 1.367 . S
C879 C878 1.367 . S
C879 C881 1.433 . S
C880 C876 1.350 . S
C880 C877 1.463 . S
C880 N884 1.427 . S
C881 H871 0.929 . S
C881 C879 1.433 . S
C881 N884 1.384 . S
C882 H873 0.929 . S
C882 C874 1.378 . S
C882 C877 1.350 . S
C883 H870 0.929 . S
C883 C875 1.433 . S
C883 N885 1.384 . S
N884 C880 1.427 . S
N884 C881 1.384 . S
N885 C877 1.427 . S
N885 C883 1.384 . S
H886 C892 0.930 . S
H887 C896 0.930 . S
H888 C901 0.929 1_545 S
H889 C899 0.929 . S
H890 C894 0.929 . S
H891 C900 0.929 . S
C892 H886 0.930 . S
C892 C893 1.367 . S
C892 C900 1.378 . S
C893 C892 1.367 . S
C893 C901 1.433 1_554 S
C894 H890 0.929 . S
C894 C896 1.378 . S
C894 C898 1.350 . S
C895 C898 1.463 . S
C895 C900 1.350 1_556 S
C895 N903 1.427 . S
C896 H887 0.930 . S
C896 C894 1.378 . S
C896 C897 1.367 . S
C897 C896 1.367 . S
C897 C899 1.433 . S
C898 C894 1.350 . S
C898 C895 1.463 . S
C898 N902 1.427 . S
C899 H889 0.929 . S
C899 C897 1.433 . S
C899 N902 1.384 . S
C900 H891 0.929 . S
C900 C892 1.378 . S
C900 C895 1.350 1_554 S
C901 H888 0.929 1_565 S
C901 C893 1.433 1_556 S
C901 N903 1.384 . S
N902 C898 1.427 . S
N902 C899 1.384 . S
N903 C895 1.427 . S
N903 C901 1.384 . S
H904 C910 0.930 . S
H905 C914 0.930 . S
H906 C919 0.929 . S
H907 C917 0.930 . S
H908 C912 0.929 . S
H909 C918 0.929 . S
C910 H904 0.930 . S
C910 C911 1.367 . S
C910 C918 1.378 . S
C911 C910 1.367 . S
C911 C919 1.433 . S
C912 H908 0.929 . S
C912 C914 1.378 . S
C912 C916 1.350 . S
C913 C916 1.463 . S
C913 C918 1.350 . S
C913 N921 1.427 . S
C914 H905 0.930 . S
C914 C912 1.378 . S
C914 C915 1.369 . S
C915 C914 1.369 . S
C915 C917 1.435 . S
C916 C912 1.350 . S
C916 C913 1.463 . S
C916 N920 1.427 . S
C917 H907 0.930 . S
C917 C915 1.435 . S
C917 N920 1.384 . S
C918 H909 0.929 . S
C918 C910 1.378 . S
C918 C913 1.350 . S
C919 H906 0.929 . S
C919 C911 1.433 . S
C919 N921 1.384 . S
N920 C916 1.427 . S
N920 C917 1.384 . S
N921 C913 1.427 . S
N921 C919 1.384 . S
H922 C928 0.930 . S
H923 C932 0.930 . S
H924 C937 0.929 . S
H925 C935 0.929 1_545 S
H926 C930 0.929 . S
H927 C936 0.929 . S
C928 H922 0.930 . S
C928 C929 1.367 . S
C928 C936 1.378 . S
C929 C928 1.367 . S
C929 C937 1.433 . S
C930 H926 0.929 . S
C930 C932 1.378 . S
C930 C934 1.350 . S
C931 C934 1.463 . S
C931 C936 1.350 . S
C931 N939 1.427 . S
C932 H923 0.930 . S
C932 C930 1.378 . S
C932 C933 1.367 . S
C933 C932 1.367 . S
C933 C935 1.433 . S
C934 C930 1.350 . S
C934 C931 1.463 . S
C934 N938 1.427 . S
C935 H925 0.929 1_565 S
C935 C933 1.433 . S
C935 N938 1.384 . S
C936 H927 0.929 . S
C936 C928 1.378 . S
C936 C931 1.350 . S
C937 H924 0.929 . S
C937 C929 1.433 . S
C937 N939 1.384 . S
N938 C934 1.427 . S
N938 C935 1.384 . S
N939 C931 1.427 . S
N939 C937 1.384 . S
H940 C946 0.930 . S
H941 C950 0.930 . S
H942 C955 0.929 . S
H943 C953 0.929 . S
H944 C948 0.929 . S
H945 C954 0.929 . S
C946 H940 0.930 . S
C946 C947 1.367 . S
C946 C954 1.378 . S
C947 C946 1.367 . S
C947 C955 1.433 . S
C948 H944 0.929 . S
C948 C950 1.378 . S
C948 C952 1.350 . S
C949 C952 1.463 . S
C949 C954 1.350 . S
C949 N957 1.427 . S
C950 H941 0.930 . S
C950 C948 1.378 . S
C950 C951 1.367 . S
C951 C950 1.367 . S
C951 C953 1.433 . S
C952 C948 1.350 . S
C952 C949 1.463 . S
C952 N956 1.427 . S
C953 H943 0.929 . S
C953 C951 1.433 . S
C953 N956 1.384 . S
C954 H945 0.929 . S
C954 C946 1.378 . S
C954 C949 1.350 . S
C955 H942 0.929 . S
C955 C947 1.433 . S
C955 N957 1.384 . S
N956 C952 1.427 . S
N956 C953 1.384 . S
N957 C949 1.427 . S
N957 C955 1.384 . S
H958 C964 0.930 . S
H959 C968 0.930 . S
H960 C973 0.929 . S
H961 C971 0.929 . S
H962 C966 0.929 . S
H963 C972 0.929 . S
C964 H958 0.930 . S
C964 C965 1.367 . S
C964 C972 1.378 . S
C965 C964 1.367 . S
C965 C973 1.433 . S
C966 H962 0.929 . S
C966 C968 1.378 . S
C966 C970 1.350 . S
C967 C970 1.463 . S
C967 C972 1.350 . S
C967 N975 1.427 . S
C968 H959 0.930 . S
C968 C966 1.378 . S
C968 C969 1.367 . S
C969 C968 1.367 . S
C969 C971 1.433 . S
C970 C966 1.350 . S
C970 C967 1.463 . S
C970 N974 1.427 . S
C971 H961 0.929 . S
C971 C969 1.433 . S
C971 N974 1.384 . S
C972 H963 0.929 . S
C972 C964 1.378 . S
C972 C967 1.350 . S
C973 H960 0.929 . S
C973 C965 1.433 . S
C973 N975 1.384 . S
N974 C970 1.427 . S
N974 C971 1.384 . S
N975 C967 1.427 . S
N975 C973 1.384 . S
H976 C982 0.930 . S
H977 C986 0.930 . S
H978 C991 0.929 . S
H979 C989 0.929 . S
H980 C984 0.929 . S
H981 C990 0.929 . S
C982 H976 0.930 . S
C982 C983 1.367 . S
C982 C990 1.378 . S
C983 C982 1.367 . S
C983 C991 1.433 . S
C984 H980 0.929 . S
C984 C986 1.378 . S
C984 C988 1.350 . S
C985 C988 1.463 . S
C985 C990 1.350 . S
C985 N993 1.427 . S
C986 H977 0.930 . S
C986 C984 1.378 . S
C986 C987 1.367 . S
C987 C986 1.367 . S
C987 C989 1.433 . S
C988 C984 1.350 . S
C988 C985 1.463 . S
C988 N992 1.427 . S
C989 H979 0.929 . S
C989 C987 1.433 . S
C989 N992 1.384 . S
C990 H981 0.929 . S
C990 C982 1.378 . S
C990 C985 1.350 . S
C991 H978 0.929 . S
C991 C983 1.433 . S
C991 N993 1.384 . S
N992 C988 1.427 . S
N992 C989 1.384 . S
N993 C985 1.427 . S
N993 C991 1.384 . S
H994 C1000 0.930 . S
H995 C1004 0.930 . S
H996 C1009 0.929 . S
H997 C1007 0.929 . S
H998 C1002 0.929 . S
H999 C1008 0.929 . S
C1000 H994 0.930 . S
C1000 C1001 1.367 . S
C1000 C1008 1.378 . S
C1001 C1000 1.367 . S
C1001 C1009 1.433 . S
C1002 H998 0.929 . S
C1002 C1004 1.378 . S
C1002 C1006 1.350 . S
C1003 C1006 1.463 . S
C1003 C1008 1.350 . S
C1003 N1011 1.427 . S
C1004 H995 0.930 . S
C1004 C1002 1.378 . S
C1004 C1005 1.367 1_556 S
C1005 C1004 1.367 1_554 S
C1005 C1007 1.433 . S
C1006 C1002 1.350 . S
C1006 C1003 1.463 . S
C1006 N1010 1.427 1_556 S
C1007 H997 0.929 . S
C1007 C1005 1.433 . S
C1007 N1010 1.384 . S
C1008 H999 0.929 . S
C1008 C1000 1.378 . S
C1008 C1003 1.350 . S
C1009 H996 0.929 . S
C1009 C1001 1.433 . S
C1009 N1011 1.384 . S
N1010 C1006 1.427 1_554 S
N1010 C1007 1.384 . S
N1011 C1003 1.427 . S
N1011 C1009 1.384 . S
H1012 C1018 0.930 . S
H1013 C1022 0.930 . S
H1014 C1027 0.929 . S
H1015 C1025 0.929 . S
H1016 C1020 0.929 . S
H1017 C1026 0.929 . S
C1018 H1012 0.930 . S
C1018 C1019 1.367 . S
C1018 C1026 1.378 . S
C1019 C1018 1.367 . S
C1019 C1027 1.433 . S
C1020 H1016 0.929 . S
C1020 C1022 1.378 . S
C1020 C1024 1.350 . S
C1021 C1024 1.463 . S
C1021 C1026 1.350 . S
C1021 N1029 1.427 . S
C1022 H1013 0.930 . S
C1022 C1020 1.378 . S
C1022 C1023 1.367 . S
C1023 C1022 1.367 . S
C1023 C1025 1.433 . S
C1024 C1020 1.350 . S
C1024 C1021 1.463 . S
C1024 N1028 1.427 . S
C1025 H1015 0.929 . S
C1025 C1023 1.433 . S
C1025 N1028 1.384 . S
C1026 H1017 0.929 . S
C1026 C1018 1.378 . S
C1026 C1021 1.350 . S
C1027 H1014 0.929 . S
C1027 C1019 1.433 . S
C1027 N1029 1.384 . S
N1028 C1024 1.427 . S
N1028 C1025 1.384 . S
N1029 C1021 1.427 . S
N1029 C1027 1.384 . S
H1030 C1036 0.930 . S
H1031 C1040 0.930 . S
H1032 C1045 0.929 . S
H1033 C1043 0.929 . S
H1034 C1038 0.929 . S
H1035 C1044 0.929 . S
C1036 H1030 0.930 . S
C1036 C1037 1.367 . S
C1036 C1044 1.378 . S
C1037 C1036 1.367 . S
C1037 C1045 1.433 . S
C1038 H1034 0.929 . S
C1038 C1040 1.378 . S
C1038 C1042 1.350 . S
C1039 C1042 1.463 . S
C1039 C1044 1.350 . S
C1039 N1047 1.427 . S
C1040 H1031 0.930 . S
C1040 C1038 1.378 . S
C1040 C1041 1.367 . S
C1041 C1040 1.367 . S
C1041 C1043 1.433 . S
C1042 C1038 1.350 . S
C1042 C1039 1.463 . S
C1042 N1046 1.427 . S
C1043 H1033 0.929 . S
C1043 C1041 1.433 . S
C1043 N1046 1.384 . S
C1044 H1035 0.929 . S
C1044 C1036 1.378 . S
C1044 C1039 1.350 . S
C1045 H1032 0.929 . S
C1045 C1037 1.433 . S
C1045 N1047 1.384 . S
N1046 C1042 1.427 . S
N1046 C1043 1.384 . S
N1047 C1039 1.427 . S
N1047 C1045 1.384 . S
H1048 C1054 0.930 . S
H1049 C1058 0.930 . S
H1050 C1063 0.929 . S
H1051 C1061 0.929 . S
H1052 C1056 0.929 . S
H1053 C1062 0.929 . S
C1054 H1048 0.930 . S
C1054 C1055 1.367 . S
C1054 C1062 1.378 . S
C1055 C1054 1.367 . S
C1055 C1063 1.433 . S
C1056 H1052 0.929 . S
C1056 C1058 1.378 . S
C1056 C1060 1.350 . S
C1057 C1060 1.463 . S
C1057 C1062 1.350 . S
C1057 N1065 1.427 . S
C1058 H1049 0.930 . S
C1058 C1056 1.378 . S
C1058 C1059 1.367 . S
C1059 C1058 1.367 . S
C1059 C1061 1.433 . S
C1060 C1056 1.350 . S
C1060 C1057 1.463 . S
C1060 N1064 1.427 . S
C1061 H1051 0.929 . S
C1061 C1059 1.433 . S
C1061 N1064 1.384 . S
C1062 H1053 0.929 . S
C1062 C1054 1.378 . S
C1062 C1057 1.350 . S
C1063 H1050 0.929 . S
C1063 C1055 1.433 . S
C1063 N1065 1.384 . S
N1064 C1060 1.427 . S
N1064 C1061 1.384 . S
N1065 C1057 1.427 . S
N1065 C1063 1.384 . S
H1066 C1072 0.930 . S
H1067 C1076 0.930 . S
H1068 C1081 0.929 . S
H1069 C1079 0.929 . S
H1070 C1074 0.929 . S
H1071 C1080 0.929 . S
C1072 H1066 0.930 . S
C1072 C1073 1.367 . S
C1072 C1080 1.378 . S
C1073 C1072 1.367 . S
C1073 C1081 1.433 . S
C1074 H1070 0.929 . S
C1074 C1076 1.378 . S
C1074 C1078 1.350 . S
C1075 C1078 1.463 . S
C1075 C1080 1.350 . S
C1075 N1083 1.427 . S
C1076 H1067 0.930 . S
C1076 C1074 1.378 . S
C1076 C1077 1.367 . S
C1077 C1076 1.367 . S
C1077 C1079 1.433 . S
C1078 C1074 1.350 . S
C1078 C1075 1.463 . S
C1078 N1082 1.427 . S
C1079 H1069 0.929 . S
C1079 C1077 1.433 . S
C1079 N1082 1.384 . S
C1080 H1071 0.929 . S
C1080 C1072 1.378 . S
C1080 C1075 1.350 . S
C1081 H1068 0.929 . S
C1081 C1073 1.433 . S
C1081 N1083 1.384 . S
N1082 C1078 1.427 . S
N1082 C1079 1.384 . S
N1083 C1075 1.427 . S
N1083 C1081 1.384 . S
H1084 C1090 0.930 . S
H1085 C1094 0.930 . S
H1086 C1099 0.929 . S
H1087 C1097 0.929 . S
H1088 C1092 0.929 . S
H1089 C1098 0.929 . S
C1090 H1084 0.930 . S
C1090 C1091 1.367 . S
C1090 C1098 1.378 . S
C1091 C1090 1.367 . S
C1091 C1099 1.433 . S
C1092 H1088 0.929 . S
C1092 C1094 1.378 . S
C1092 C1096 1.350 . S
C1093 C1096 1.463 . S
C1093 C1098 1.350 . S
C1093 N1101 1.427 . S
C1094 H1085 0.930 . S
C1094 C1092 1.378 . S
C1094 C1095 1.368 . S
C1095 C1094 1.368 . S
C1095 C1097 1.435 . S
C1096 C1092 1.350 . S
C1096 C1093 1.463 . S
C1096 N1100 1.427 . S
C1097 H1087 0.929 . S
C1097 C1095 1.435 . S
C1097 N1100 1.384 . S
C1098 H1089 0.929 . S
C1098 C1090 1.378 . S
C1098 C1093 1.350 . S
C1099 H1086 0.929 . S
C1099 C1091 1.433 . S
C1099 N1101 1.384 . S
N1100 C1096 1.427 . S
N1100 C1097 1.384 . S
N1101 C1093 1.427 . S
N1101 C1099 1.384 . S
H1102 C1108 0.930 . S
H1103 C1112 0.930 . S
H1104 C1117 0.929 . S
H1105 C1115 0.929 . S
H1106 C1110 0.929 . S
H1107 C1116 0.929 . S
C1108 H1102 0.930 . S
C1108 C1109 1.367 . S
C1108 C1116 1.378 . S
C1109 C1108 1.367 . S
C1109 C1117 1.433 . S
C1110 H1106 0.929 . S
C1110 C1112 1.378 . S
C1110 C1114 1.350 . S
C1111 C1114 1.463 . S
C1111 C1116 1.350 . S
C1111 N1119 1.427 . S
C1112 H1103 0.930 . S
C1112 C1110 1.378 . S
C1112 C1113 1.367 . S
C1113 C1112 1.367 . S
C1113 C1115 1.433 . S
C1114 C1110 1.350 . S
C1114 C1111 1.463 . S
C1114 N1118 1.427 . S
C1115 H1105 0.929 . S
C1115 C1113 1.433 . S
C1115 N1118 1.384 . S
C1116 H1107 0.929 . S
C1116 C1108 1.378 . S
C1116 C1111 1.350 . S
C1117 H1104 0.929 . S
C1117 C1109 1.433 . S
C1117 N1119 1.384 . S
N1118 C1114 1.427 . S
N1118 C1115 1.384 . S
N1119 C1111 1.427 . S
N1119 C1117 1.384 . S
H1120 C1126 0.930 . S
H1121 C1130 0.930 . S
H1122 C1135 0.929 1_556 S
H1123 C1133 0.929 . S
H1124 C1128 0.929 . S
H1125 C1134 0.929 . S
C1126 H1120 0.930 . S
C1126 C1127 1.367 . S
C1126 C1134 1.378 . S
C1127 C1126 1.367 . S
C1127 C1135 1.433 . S
C1128 H1124 0.929 . S
C1128 C1130 1.378 . S
C1128 C1132 1.350 1_556 S
C1129 C1132 1.463 . S
C1129 C1134 1.350 . S
C1129 N1137 1.435 . S
C1130 H1121 0.930 . S
C1130 C1128 1.378 . S
C1130 C1131 1.367 1_556 S
C1131 C1130 1.367 1_554 S
C1131 C1133 1.433 . S
C1132 C1128 1.350 1_554 S
C1132 C1129 1.463 . S
C1132 N1136 1.427 . S
C1133 H1123 0.929 . S
C1133 C1131 1.433 . S
C1133 N1136 1.384 . S
C1134 H1125 0.929 . S
C1134 C1126 1.378 . S
C1134 C1129 1.350 . S
C1135 H1122 0.929 1_554 S
C1135 C1127 1.433 . S
C1135 N1137 1.384 . S
N1136 C1132 1.427 . S
N1136 C1133 1.384 . S
N1137 C1129 1.435 . S
N1137 C1135 1.384 . S
H1138 C1144 0.930 . S
H1139 C1148 0.930 . S
H1140 C1153 0.929 . S
H1141 C1151 0.929 . S
H1142 C1146 0.929 . S
H1143 C1152 0.929 . S
C1144 H1138 0.930 . S
C1144 C1145 1.367 . S
C1144 C1152 1.378 . S
C1145 C1144 1.367 . S
C1145 C1153 1.433 . S
C1146 H1142 0.929 . S
C1146 C1148 1.378 . S
C1146 C1150 1.350 . S
C1147 C1150 1.463 . S
C1147 C1152 1.350 . S
C1147 N1155 1.427 . S
C1148 H1139 0.930 . S
C1148 C1146 1.378 . S
C1148 C1149 1.367 . S
C1149 C1148 1.367 . S
C1149 C1151 1.433 . S
C1150 C1146 1.350 . S
C1150 C1147 1.463 . S
C1150 N1154 1.427 . S
C1151 H1141 0.929 . S
C1151 C1149 1.433 . S
C1151 N1154 1.384 . S
C1152 H1143 0.929 . S
C1152 C1144 1.378 . S
C1152 C1147 1.350 . S
C1153 H1140 0.929 . S
C1153 C1145 1.433 . S
C1153 N1155 1.384 . S
N1154 C1150 1.427 . S
N1154 C1151 1.384 . S
N1155 C1147 1.427 . S
N1155 C1153 1.384 . S
H1156 C1162 0.930 . S
H1157 C1166 0.930 . S
H1158 C1171 0.929 . S
H1159 C1169 0.929 . S
H1160 C1164 0.929 . S
H1161 C1170 0.929 . S
C1162 H1156 0.930 . S
C1162 C1163 1.367 . S
C1162 C1170 1.378 . S
C1163 C1162 1.367 . S
C1163 C1171 1.433 . S
C1164 H1160 0.929 . S
C1164 C1166 1.378 . S
C1164 C1168 1.350 . S
C1165 C1168 1.463 1_455 S
C1165 C1170 1.350 . S
C1165 N1173 1.427 . S
C1166 H1157 0.930 . S
C1166 C1164 1.378 . S
C1166 C1167 1.367 . S
C1167 C1166 1.367 . S
C1167 C1169 1.433 . S
C1168 C1164 1.350 . S
C1168 C1165 1.463 1_655 S
C1168 N1172 1.427 . S
C1169 H1159 0.929 . S
C1169 C1167 1.433 . S
C1169 N1172 1.384 . S
C1170 H1161 0.929 . S
C1170 C1162 1.378 . S
C1170 C1165 1.350 . S
C1171 H1158 0.929 . S
C1171 C1163 1.433 . S
C1171 N1173 1.384 . S
N1172 C1168 1.427 . S
N1172 C1169 1.384 . S
N1173 C1165 1.427 . S
N1173 C1171 1.384 . S
H1174 C1180 0.930 . S
H1175 C1184 0.930 . S
H1176 C1189 0.929 . S
H1177 C1187 0.929 . S
H1178 C1182 0.929 . S
H1179 C1188 0.929 . S
C1180 H1174 0.930 . S
C1180 C1181 1.367 . S
C1180 C1188 1.378 . S
C1181 C1180 1.367 . S
C1181 C1189 1.433 . S
C1182 H1178 0.929 . S
C1182 C1184 1.378 . S
C1182 C1186 1.350 . S
C1183 C1186 1.463 . S
C1183 C1188 1.350 . S
C1183 N1191 1.427 . S
C1184 H1175 0.930 . S
C1184 C1182 1.378 . S
C1184 C1185 1.367 . S
C1185 C1184 1.367 . S
C1185 C1187 1.433 . S
C1186 C1182 1.350 . S
C1186 C1183 1.463 . S
C1186 N1190 1.427 . S
C1187 H1177 0.929 . S
C1187 C1185 1.433 . S
C1187 N1190 1.384 . S
C1188 H1179 0.929 . S
C1188 C1180 1.378 . S
C1188 C1183 1.350 . S
C1189 H1176 0.929 . S
C1189 C1181 1.433 . S
C1189 N1191 1.384 . S
N1190 C1186 1.427 . S
N1190 C1187 1.384 . S
N1191 C1183 1.427 . S
N1191 C1189 1.384 . S
H1192 C1198 0.930 . S
H1193 C1202 0.930 . S
H1194 C1207 0.929 . S
H1195 C1205 0.929 . S
H1196 C1200 0.929 . S
H1197 C1206 0.929 . S
C1198 H1192 0.930 . S
C1198 C1199 1.367 . S
C1198 C1206 1.378 . S
C1199 C1198 1.367 . S
C1199 C1207 1.433 . S
C1200 H1196 0.929 . S
C1200 C1202 1.378 . S
C1200 C1204 1.350 . S
C1201 C1204 1.463 . S
C1201 C1206 1.350 . S
C1201 N1209 1.427 . S
C1202 H1193 0.930 . S
C1202 C1200 1.378 . S
C1202 C1203 1.367 . S
C1203 C1202 1.367 . S
C1203 C1205 1.433 . S
C1204 C1200 1.350 . S
C1204 C1201 1.463 . S
C1204 N1208 1.427 . S
C1205 H1195 0.929 . S
C1205 C1203 1.433 . S
C1205 N1208 1.384 . S
C1206 H1197 0.929 . S
C1206 C1198 1.378 . S
C1206 C1201 1.350 . S
C1207 H1194 0.929 . S
C1207 C1199 1.433 . S
C1207 N1209 1.384 . S
N1208 C1204 1.427 . S
N1208 C1205 1.384 . S
N1209 C1201 1.427 . S
N1209 C1207 1.384 . S
H1210 C1216 0.930 . S
H1211 C1220 0.930 . S
H1212 C1225 0.929 . S
H1213 C1223 0.929 . S
H1214 C1218 0.929 . S
H1215 C1224 0.929 . S
C1216 H1210 0.930 . S
C1216 C1217 1.367 . S
C1216 C1224 1.378 . S
C1217 C1216 1.367 . S
C1217 C1225 1.433 . S
C1218 H1214 0.929 . S
C1218 C1220 1.378 . S
C1218 C1222 1.350 . S
C1219 C1222 1.463 . S
C1219 C1224 1.350 . S
C1219 N1227 1.427 . S
C1220 H1211 0.930 . S
C1220 C1218 1.378 . S
C1220 C1221 1.367 . S
C1221 C1220 1.367 . S
C1221 C1223 1.433 . S
C1222 C1218 1.350 . S
C1222 C1219 1.463 . S
C1222 N1226 1.427 . S
C1223 H1213 0.929 . S
C1223 C1221 1.433 . S
C1223 N1226 1.384 . S
C1224 H1215 0.929 . S
C1224 C1216 1.378 . S
C1224 C1219 1.350 . S
C1225 H1212 0.929 . S
C1225 C1217 1.433 . S
C1225 N1227 1.384 . S
N1226 C1222 1.427 . S
N1226 C1223 1.384 . S
N1227 C1219 1.427 . S
N1227 C1225 1.384 . S
H1228 C1234 0.930 . S
H1229 C1238 0.930 . S
H1230 C1243 0.929 . S
H1231 C1241 0.929 . S
H1232 C1236 0.929 . S
H1233 C1242 0.929 . S
C1234 H1228 0.930 . S
C1234 C1235 1.367 . S
C1234 C1242 1.378 . S
C1235 C1234 1.367 . S
C1235 C1243 1.433 . S
C1236 H1232 0.929 . S
C1236 C1238 1.378 . S
C1236 C1240 1.350 . S
C1237 C1240 1.463 1_655 S
C1237 C1242 1.350 . S
C1237 N1245 1.427 . S
C1238 H1229 0.930 . S
C1238 C1236 1.378 . S
C1238 C1239 1.367 . S
C1239 C1238 1.367 . S
C1239 C1241 1.433 . S
C1240 C1236 1.350 . S
C1240 C1237 1.463 1_455 S
C1240 N1244 1.427 . S
C1241 H1231 0.929 . S
C1241 C1239 1.433 . S
C1241 N1244 1.384 . S
C1242 H1233 0.929 . S
C1242 C1234 1.378 . S
C1242 C1237 1.350 . S
C1243 H1230 0.929 . S
C1243 C1235 1.433 . S
C1243 N1245 1.384 . S
N1244 C1240 1.427 . S
N1244 C1241 1.384 . S
N1245 C1237 1.427 . S
N1245 C1243 1.384 . S
H1246 C1252 0.930 . S
H1247 C1256 0.930 . S
H1248 C1261 0.929 . S
H1249 C1259 0.929 . S
H1250 C1254 0.929 . S
H1251 C1260 0.929 . S
C1252 H1246 0.930 . S
C1252 C1253 1.367 . S
C1252 C1260 1.378 . S
C1253 C1252 1.367 . S
C1253 C1261 1.433 . S
C1254 H1250 0.929 . S
C1254 C1256 1.378 . S
C1254 C1258 1.350 . S
C1255 C1258 1.463 . S
C1255 C1260 1.350 . S
C1255 N1263 1.427 . S
C1256 H1247 0.930 . S
C1256 C1254 1.378 . S
C1256 C1257 1.367 . S
C1257 C1256 1.367 . S
C1257 C1259 1.433 . S
C1258 C1254 1.350 . S
C1258 C1255 1.463 . S
C1258 N1262 1.427 . S
C1259 H1249 0.929 . S
C1259 C1257 1.433 . S
C1259 N1262 1.384 . S
C1260 H1251 0.929 . S
C1260 C1252 1.378 . S
C1260 C1255 1.350 . S
C1261 H1248 0.929 . S
C1261 C1253 1.433 . S
C1261 N1263 1.384 . S
N1262 C1258 1.427 . S
N1262 C1259 1.384 . S
N1263 C1255 1.427 . S
N1263 C1261 1.384 . S
C551 C5 1.264 . S
C555 C9 1.238 . S
C569 C43 1.237 . S
C573 C39 1.266 . S
C587 C73 1.265 . S
C591 C77 1.237 . S
C605 C111 1.250 . S
C609 C107 1.261 . S
C623 C145 1.249 . S
C627 C141 1.265 . S
C641 C175 1.263 . S
C645 C179 1.250 . S
C659 C213 1.250 . S
C663 C209 1.263 . S
C677 C247 1.246 . S
C681 C243 1.266 . S
C695 C277 1.265 . S
C699 C281 1.248 . S
C713 C315 1.250 . S
C717 C311 1.262 . S
C731 C345 1.262 . S
C735 C349 1.250 . S
C749 C379 1.267 . S
C753 C383 1.243 . S
C767 C413 1.262 . S
C771 C417 1.241 . S
C785 C447 1.264 . S
C789 C451 1.250 . S
C803 C485 1.237 . S
C807 C481 1.266 . S
C821 C519 1.242 . S
C825 C515 1.262 . S
C839 C2 1.618 . S
C843 C36 1.618 . S
C857 C101 1.578 . S
C861 C67 1.577 . S
C875 C104 1.616 . S
C879 C70 1.618 . S
C893 C33 1.578 1_565 S
C897 C135 1.578 . S
C911 C172 1.616 . S
C915 C138 1.612 1_556 S
C929 C203 1.573 . S
C933 C237 1.575 1_565 S
C947 C206 1.618 . S
C951 C240 1.616 . S
C965 C271 1.578 . S
C969 C169 1.579 . S
C983 C308 1.618 . S
C987 C274 1.616 . S
C1001 C339 1.573 . S
C1005 C373 1.572 . S
C1019 C342 1.613 . S
C1023 C376 1.615 . S
C1037 C407 1.574 . S
C1041 C305 1.576 . S
C1055 C410 1.613 . S
C1059 C444 1.614 . S
C1073 C475 1.577 . S
C1077 C509 1.574 . S
C1091 C512 1.615 . S
C1095 C478 1.614 1_556 S
C1109 C441 1.574 . S
C1113 C543 1.572 . S
C1127 C20 1.517 . S
C1131 C156 1.517 . S
C1145 C462 1.517 . S
C1149 C54 1.517 . S
C1163 C88 1.515 . S
C1167 C224 1.515 . S
C1181 C530 1.516 . S
C1185 C122 1.516 . S
C1199 C326 1.514 . S
C1203 C190 1.514 . S
C1217 C258 1.518 . S
C1221 C394 1.518 . S
C1235 C292 1.517 . S
C1239 C428 1.517 . S
C1253 C496 1.518 . S
C1257 C360 1.518 . S
