# Generated by pormake.
# Topology sxi, (6)-cn, num edge types: 1
# Building blocks:
#     Node 0, Type 0, BuildingBlock: OJICUG_clean_sbu_0, # of connection points: 6
#     Node 1, Type 0, BuildingBlock: OJICUG_clean_sbu_0, # of connection points: 6
#     Node 2, Type 0, BuildingBlock: OJICUG_clean_sbu_0, # of connection points: 6
#     Node 3, Type 0, BuildingBlock: OJICUG_clean_sbu_0, # of connection points: 6
#     Node 4, Type 0, BuildingBlock: OJICUG_clean_sbu_0, # of connection points: 6
#     Node 5, Type 0, BuildingBlock: OJICUG_clean_sbu_0, # of connection points: 6
#     Node 6, Type 0, BuildingBlock: OJICUG_clean_sbu_0, # of connection points: 6
#     Node 7, Type 0, BuildingBlock: OJICUG_clean_sbu_0, # of connection points: 6
#     Node 8, Type 0, BuildingBlock: OJICUG_clean_sbu_0, # of connection points: 6
#     Node 9, Type 0, BuildingBlock: OJICUG_clean_sbu_0, # of connection points: 6
#     Node 10, Type 0, BuildingBlock: OJICUG_clean_sbu_0, # of connection points: 6
#     Node 11, Type 0, BuildingBlock: OJICUG_clean_sbu_0, # of connection points: 6
#     Node 12, Type 0, BuildingBlock: OJICUG_clean_sbu_0, # of connection points: 6
#     Node 13, Type 0, BuildingBlock: OJICUG_clean_sbu_0, # of connection points: 6
#     Node 14, Type 0, BuildingBlock: OJICUG_clean_sbu_0, # of connection points: 6
#     Node 15, Type 0, BuildingBlock: OJICUG_clean_sbu_0, # of connection points: 6
#     Node 16, Type 0, BuildingBlock: OJICUG_clean_sbu_0, # of connection points: 6
#     Node 17, Type 0, BuildingBlock: OJICUG_clean_sbu_0, # of connection points: 6
#     Node 18, Type 0, BuildingBlock: OJICUG_clean_sbu_0, # of connection points: 6
#     Node 19, Type 0, BuildingBlock: OJICUG_clean_sbu_0, # of connection points: 6
#     Node 20, Type 0, BuildingBlock: OJICUG_clean_sbu_0, # of connection points: 6
#     Node 21, Type 0, BuildingBlock: OJICUG_clean_sbu_0, # of connection points: 6
#     Node 22, Type 0, BuildingBlock: OJICUG_clean_sbu_0, # of connection points: 6
#     Node 23, Type 0, BuildingBlock: OJICUG_clean_sbu_0, # of connection points: 6
#     Edge 24, Type (0, 0), BuildingBlock: KIFKEQ_clean_linker_1, # of connection points: 2
#     Edge 25, Type (0, 0), BuildingBlock: KIFKEQ_clean_linker_1, # of connection points: 2
#     Edge 26, Type (0, 0), BuildingBlock: KIFKEQ_clean_linker_1, # of connection points: 2
#     Edge 27, Type (0, 0), BuildingBlock: KIFKEQ_clean_linker_1, # of connection points: 2
#     Edge 28, Type (0, 0), BuildingBlock: KIFKEQ_clean_linker_1, # of connection points: 2
#     Edge 29, Type (0, 0), BuildingBlock: KIFKEQ_clean_linker_1, # of connection points: 2
#     Edge 30, Type (0, 0), BuildingBlock: KIFKEQ_clean_linker_1, # of connection points: 2
#     Edge 31, Type (0, 0), BuildingBlock: KIFKEQ_clean_linker_1, # of connection points: 2
#     Edge 32, Type (0, 0), BuildingBlock: KIFKEQ_clean_linker_1, # of connection points: 2
#     Edge 33, Type (0, 0), BuildingBlock: KIFKEQ_clean_linker_1, # of connection points: 2
#     Edge 34, Type (0, 0), BuildingBlock: KIFKEQ_clean_linker_1, # of connection points: 2
#     Edge 35, Type (0, 0), BuildingBlock: KIFKEQ_clean_linker_1, # of connection points: 2
#     Edge 36, Type (0, 0), BuildingBlock: KIFKEQ_clean_linker_1, # of connection points: 2
#     Edge 37, Type (0, 0), BuildingBlock: KIFKEQ_clean_linker_1, # of connection points: 2
#     Edge 38, Type (0, 0), BuildingBlock: KIFKEQ_clean_linker_1, # of connection points: 2
#     Edge 39, Type (0, 0), BuildingBlock: KIFKEQ_clean_linker_1, # of connection points: 2
#     Edge 40, Type (0, 0), BuildingBlock: KIFKEQ_clean_linker_1, # of connection points: 2
#     Edge 41, Type (0, 0), BuildingBlock: KIFKEQ_clean_linker_1, # of connection points: 2
#     Edge 42, Type (0, 0), BuildingBlock: KIFKEQ_clean_linker_1, # of connection points: 2
#     Edge 43, Type (0, 0), BuildingBlock: KIFKEQ_clean_linker_1, # of connection points: 2
#     Edge 44, Type (0, 0), BuildingBlock: KIFKEQ_clean_linker_1, # of connection points: 2
#     Edge 45, Type (0, 0), BuildingBlock: KIFKEQ_clean_linker_1, # of connection points: 2
#     Edge 46, Type (0, 0), BuildingBlock: KIFKEQ_clean_linker_1, # of connection points: 2
#     Edge 47, Type (0, 0), BuildingBlock: KIFKEQ_clean_linker_1, # of connection points: 2
#     Edge 48, Type (0, 0), BuildingBlock: KIFKEQ_clean_linker_1, # of connection points: 2
#     Edge 49, Type (0, 0), BuildingBlock: KIFKEQ_clean_linker_1, # of connection points: 2
#     Edge 50, Type (0, 0), BuildingBlock: KIFKEQ_clean_linker_1, # of connection points: 2
#     Edge 51, Type (0, 0), BuildingBlock: KIFKEQ_clean_linker_1, # of connection points: 2
#     Edge 52, Type (0, 0), BuildingBlock: KIFKEQ_clean_linker_1, # of connection points: 2
#     Edge 53, Type (0, 0), BuildingBlock: KIFKEQ_clean_linker_1, # of connection points: 2
#     Edge 54, Type (0, 0), BuildingBlock: KIFKEQ_clean_linker_1, # of connection points: 2
#     Edge 55, Type (0, 0), BuildingBlock: KIFKEQ_clean_linker_1, # of connection points: 2
#     Edge 56, Type (0, 0), BuildingBlock: KIFKEQ_clean_linker_1, # of connection points: 2
#     Edge 57, Type (0, 0), BuildingBlock: KIFKEQ_clean_linker_1, # of connection points: 2
#     Edge 58, Type (0, 0), BuildingBlock: KIFKEQ_clean_linker_1, # of connection points: 2
#     Edge 59, Type (0, 0), BuildingBlock: KIFKEQ_clean_linker_1, # of connection points: 2
#     Edge 60, Type (0, 0), BuildingBlock: KIFKEQ_clean_linker_1, # of connection points: 2
#     Edge 61, Type (0, 0), BuildingBlock: KIFKEQ_clean_linker_1, # of connection points: 2
#     Edge 62, Type (0, 0), BuildingBlock: KIFKEQ_clean_linker_1, # of connection points: 2
#     Edge 63, Type (0, 0), BuildingBlock: KIFKEQ_clean_linker_1, # of connection points: 2
#     Edge 64, Type (0, 0), BuildingBlock: KIFKEQ_clean_linker_1, # of connection points: 2
#     Edge 65, Type (0, 0), BuildingBlock: KIFKEQ_clean_linker_1, # of connection points: 2
#     Edge 66, Type (0, 0), BuildingBlock: KIFKEQ_clean_linker_1, # of connection points: 2
#     Edge 67, Type (0, 0), BuildingBlock: KIFKEQ_clean_linker_1, # of connection points: 2
#     Edge 68, Type (0, 0), BuildingBlock: KIFKEQ_clean_linker_1, # of connection points: 2
#     Edge 69, Type (0, 0), BuildingBlock: KIFKEQ_clean_linker_1, # of connection points: 2
#     Edge 70, Type (0, 0), BuildingBlock: KIFKEQ_clean_linker_1, # of connection points: 2
#     Edge 71, Type (0, 0), BuildingBlock: KIFKEQ_clean_linker_1, # of connection points: 2
#     Edge 72, Type (0, 0), BuildingBlock: KIFKEQ_clean_linker_1, # of connection points: 2
#     Edge 73, Type (0, 0), BuildingBlock: KIFKEQ_clean_linker_1, # of connection points: 2
#     Edge 74, Type (0, 0), BuildingBlock: KIFKEQ_clean_linker_1, # of connection points: 2
#     Edge 75, Type (0, 0), BuildingBlock: KIFKEQ_clean_linker_1, # of connection points: 2
#     Edge 76, Type (0, 0), BuildingBlock: KIFKEQ_clean_linker_1, # of connection points: 2
#     Edge 77, Type (0, 0), BuildingBlock: KIFKEQ_clean_linker_1, # of connection points: 2
#     Edge 78, Type (0, 0), BuildingBlock: KIFKEQ_clean_linker_1, # of connection points: 2
#     Edge 79, Type (0, 0), BuildingBlock: KIFKEQ_clean_linker_1, # of connection points: 2
#     Edge 80, Type (0, 0), BuildingBlock: KIFKEQ_clean_linker_1, # of connection points: 2
#     Edge 81, Type (0, 0), BuildingBlock: KIFKEQ_clean_linker_1, # of connection points: 2
#     Edge 82, Type (0, 0), BuildingBlock: KIFKEQ_clean_linker_1, # of connection points: 2
#     Edge 83, Type (0, 0), BuildingBlock: KIFKEQ_clean_linker_1, # of connection points: 2
#     Edge 84, Type (0, 0), BuildingBlock: KIFKEQ_clean_linker_1, # of connection points: 2
#     Edge 85, Type (0, 0), BuildingBlock: KIFKEQ_clean_linker_1, # of connection points: 2
#     Edge 86, Type (0, 0), BuildingBlock: KIFKEQ_clean_linker_1, # of connection points: 2
#     Edge 87, Type (0, 0), BuildingBlock: KIFKEQ_clean_linker_1, # of connection points: 2
#     Edge 88, Type (0, 0), BuildingBlock: KIFKEQ_clean_linker_1, # of connection points: 2
#     Edge 89, Type (0, 0), BuildingBlock: KIFKEQ_clean_linker_1, # of connection points: 2
#     Edge 90, Type (0, 0), BuildingBlock: KIFKEQ_clean_linker_1, # of connection points: 2
#     Edge 91, Type (0, 0), BuildingBlock: KIFKEQ_clean_linker_1, # of connection points: 2
#     Edge 92, Type (0, 0), BuildingBlock: KIFKEQ_clean_linker_1, # of connection points: 2
#     Edge 93, Type (0, 0), BuildingBlock: KIFKEQ_clean_linker_1, # of connection points: 2
#     Edge 94, Type (0, 0), BuildingBlock: KIFKEQ_clean_linker_1, # of connection points: 2
#     Edge 95, Type (0, 0), BuildingBlock: KIFKEQ_clean_linker_1, # of connection points: 2
# Relax obj value: 0.447
# Max RMSD: 0.271
# Mean RMSD: 0.271
data_MOF--net-sxi--node1-OJICUG_clean_sbu_0--edge1-KIFKEQ_clean_linker_1
_symmetry_space_group_name_H-M    P1
_symmetry_Int_Tables_number       1
_symmetry_cell_setting            triclinic
loop_
_symmetry_equiv_pos_as_xyz
'x, y, z'
_cell_length_a     48.702942
_cell_length_b     48.698259
_cell_length_c     48.678587
_cell_angle_alpha  89.963472
_cell_angle_beta   89.97298
_cell_angle_gamma 89.969895
loop_
_atom_site_label
_atom_site_type_symbol
_atom_site_fract_x
_atom_site_fract_y
_atom_site_fract_z
_atom_type_partial_charge
Sc0 Sc 0.02304 0.31039 0.398 0.0
Sc1 Sc 0.07734 0.33757 0.36047 0.0
Sc2 Sc 0.02292 0.37969 0.38134 0.0
O3 O 0.04115 0.34278 0.37991 0.0
C4 C 0.97417 0.33828 0.36705 0.0
C5 C 0.04698 0.28376 0.34378 0.0
C6 C 0.04795 0.38243 0.32168 0.0
C7 C 0.08307 0.3001 0.41455 0.0
C8 C 0.00628 0.35772 0.43986 0.0
C9 C 0.08614 0.39282 0.39375 0.0
O10 O 0.98685 0.31643 0.37377 0.0
O11 O 0.05937 0.30518 0.33515 0.0
O12 O 0.02843 0.38678 0.33835 0.0
O13 O 0.05852 0.30375 0.42247 0.0
O14 O 0.01507 0.37717 0.42487 0.0
O15 O 0.09581 0.36985 0.38546 0.0
O16 O 0.00551 0.33309 0.43155 0.0
O17 O 0.09164 0.30765 0.3909 0.0
O18 O 0.06101 0.39957 0.39107 0.0
O19 O 0.03776 0.28167 0.36803 0.0
O20 O 0.98365 0.36227 0.37137 0.0
O21 O 0.06821 0.3669 0.32761 0.0
Sc22 Sc 0.93149 0.76292 0.64546 0.0
Sc23 Sc 0.9139 0.82554 0.61261 0.0
Sc24 Sc 0.86363 0.78582 0.64654 0.0
O25 O 0.90311 0.79148 0.6348 0.0
C26 C 0.88086 0.72638 0.62698 0.0
C27 C 0.95504 0.78062 0.58728 0.0
C28 C 0.85797 0.80736 0.58418 0.0
C29 C 0.96108 0.82016 0.65795 0.0
C30 C 0.89413 0.76204 0.69928 0.0
C31 C 0.86933 0.84969 0.65485 0.0
O32 O 0.9066 0.72993 0.6298 0.0
O33 O 0.94326 0.80396 0.58612 0.0
O34 O 0.84894 0.79657 0.60622 0.0
O35 O 0.9583 0.79432 0.66131 0.0
O36 O 0.87366 0.77373 0.68807 0.0
O37 O 0.88737 0.85321 0.63622 0.0
O38 O 0.91598 0.75655 0.68627 0.0
O39 O 0.94638 0.8343 0.64146 0.0
O40 O 0.85996 0.82642 0.66141 0.0
O41 O 0.95162 0.76398 0.60687 0.0
O42 O 0.86315 0.74439 0.63314 0.0
O43 O 0.88166 0.81846 0.58238 0.0
Sc44 Sc 0.48614 0.68502 0.91196 0.0
Sc45 Sc 0.4283 0.66324 0.87485 0.0
Sc46 Sc 0.46812 0.61649 0.9118 0.0
O47 O 0.46091 0.65501 0.89939 0.0
C48 C 0.52734 0.63502 0.9001 0.0
C49 C 0.47465 0.70461 0.85213 0.0
C50 C 0.44888 0.60823 0.84899 0.0
C51 C 0.42638 0.71222 0.91664 0.0
C52 C 0.48616 0.65052 0.96569 0.0
C53 C 0.40486 0.61867 0.91724 0.0
O54 O 0.52215 0.65957 0.90752 0.0
O55 O 0.45003 0.69557 0.85197 0.0
O56 O 0.45558 0.59923 0.87267 0.0
O57 O 0.45246 0.71312 0.91859 0.0
O58 O 0.48282 0.62826 0.95236 0.0
O59 O 0.40205 0.63255 0.89513 0.0
O60 O 0.48366 0.67393 0.9545 0.0
O61 O 0.41372 0.69356 0.90342 0.0
O62 O 0.42795 0.61427 0.92834 0.0
O63 O 0.49176 0.69882 0.87084 0.0
O64 O 0.50885 0.61713 0.89638 0.0
O65 O 0.4411 0.63291 0.84497 0.0
Sc66 Sc 0.56424 0.2422 0.14779 0.0
Sc67 Sc 0.58608 0.17951 0.12091 0.0
Sc68 Sc 0.63228 0.22344 0.15142 0.0
O69 O 0.59394 0.21525 0.13985 0.0
C70 C 0.61477 0.27821 0.12532 0.0
C71 C 0.54296 0.22043 0.09203 0.0
C72 C 0.64088 0.19483 0.0931 0.0
C73 C 0.53864 0.18394 0.16431 0.0
C74 C 0.59885 0.25219 0.20016 0.0
C75 C 0.62945 0.16331 0.16747 0.0
O76 O 0.59037 0.27598 0.13481 0.0
O77 O 0.55197 0.19613 0.09615 0.0
O78 O 0.64981 0.2014 0.11683 0.0
O79 O 0.53638 0.20992 0.16122 0.0
O80 O 0.62102 0.2475 0.18719 0.0
O81 O 0.61815 0.15763 0.14443 0.0
O82 O 0.57551 0.2469 0.19007 0.0
O83 O 0.55731 0.16966 0.15273 0.0
O84 O 0.63164 0.18771 0.17618 0.0
O85 O 0.55014 0.24063 0.1066 0.0
O86 O 0.63268 0.25938 0.12709 0.0
O87 O 0.61557 0.18945 0.08888 0.0
Sc88 Sc 0.53303 0.11411 0.60306 0.0
Sc89 Sc 0.57129 0.16619 0.63629 0.0
Sc90 Sc 0.51104 0.18205 0.59855 0.0
O91 O 0.53854 0.1542 0.6127 0.0
C92 C 0.51202 0.14168 0.54726 0.0
C93 C 0.59712 0.12021 0.5965 0.0
C94 C 0.56846 0.21207 0.58909 0.0
C95 C 0.55338 0.11068 0.6659 0.0
C96 C 0.47308 0.13272 0.6187 0.0
C97 C 0.52413 0.20692 0.65759 0.0
O98 O 0.52131 0.12147 0.56091 0.0
O99 O 0.5999 0.1391 0.61444 0.0
O100 O 0.5432 0.20821 0.5836 0.0
O101 O 0.54309 0.10101 0.64397 0.0
O102 O 0.47691 0.15795 0.613 0.0
O103 O 0.54736 0.19532 0.661 0.0
O104 O 0.49133 0.11441 0.61581 0.0
O105 O 0.56395 0.13461 0.66725 0.0
O106 O 0.50946 0.20331 0.6365 0.0
O107 O 0.57416 0.1103 0.5895 0.0
O108 O 0.50788 0.16497 0.55805 0.0
O109 O 0.58142 0.19859 0.60748 0.0
Sc110 Sc 0.12762 0.26938 0.86453 0.0
Sc111 Sc 0.08671 0.32564 0.8853 0.0
Sc112 Sc 0.05727 0.26785 0.85242 0.0
O113 O 0.09047 0.28779 0.86751 0.0
C114 C 0.1004 0.25059 0.80751 0.0
C115 C 0.1389 0.33071 0.84492 0.0
C116 C 0.0427 0.32932 0.83648 0.0
C117 C 0.13444 0.29965 0.92237 0.0
C118 C 0.09062 0.22037 0.88323 0.0
C119 C 0.03498 0.29241 0.90883 0.0
O120 O 0.12042 0.25236 0.82414 0.0
O121 O 0.1198 0.34196 0.85914 0.0
O122 O 0.04114 0.30357 0.83305 0.0
O123 O 0.14102 0.2823 0.90418 0.0
O124 O 0.06951 0.22962 0.87092 0.0
O125 O 0.05275 0.31157 0.91174 0.0
O126 O 0.11335 0.23299 0.88382 0.0
O127 O 0.11504 0.31683 0.91892 0.0
O128 O 0.03457 0.27609 0.8886 0.0
O129 O 0.14372 0.30506 0.84536 0.0
O130 O 0.07619 0.25759 0.81395 0.0
O131 O 0.05799 0.3403 0.85457 0.0
Sc132 Sc 0.97602 0.88204 0.09775 0.0
Sc133 Sc 0.92938 0.83587 0.12831 0.0
Sc134 Sc 0.99235 0.81243 0.10016 0.0
O135 O 0.96587 0.84334 0.10885 0.0
C136 C 0.0007 0.849 0.0468 0.0
C137 C 0.91315 0.88173 0.08358 0.0
C138 C 0.93367 0.78833 0.08326 0.0
C139 C 0.94955 0.89038 0.15784 0.0
C140 C 0.03155 0.85956 0.12255 0.0
C141 C 0.9687 0.79135 0.15702 0.0
O142 O 0.99149 0.87082 0.05772 0.0
O143 O 0.90644 0.86504 0.10264 0.0
O144 O 0.95982 0.78859 0.08219 0.0
O145 O 0.96228 0.89837 0.13646 0.0
O146 O 0.02647 0.83435 0.11786 0.0
O147 O 0.94623 0.80475 0.15626 0.0
O148 O 0.01543 0.87885 0.11589 0.0
O149 O 0.93708 0.86735 0.15916 0.0
O150 O 0.987 0.7933 0.13877 0.0
O151 O 0.93769 0.88845 0.07853 0.0
O152 O 0.00219 0.82651 0.05971 0.0
O153 O 0.9197 0.80427 0.09871 0.0
Sc154 Sc 0.36709 0.71273 0.32989 0.0
Sc155 Sc 0.41303 0.67752 0.37173 0.0
Sc156 Sc 0.4349 0.73264 0.33144 0.0
O157 O 0.40503 0.7078 0.34451 0.0
C158 C 0.4033 0.72811 0.27658 0.0
C159 C 0.36896 0.65004 0.33133 0.0
C160 C 0.46304 0.67318 0.33176 0.0
C161 C 0.35708 0.69848 0.39395 0.0
C162 C 0.38342 0.77326 0.33773 0.0
C163 C 0.4527 0.72614 0.39203 0.0
O164 O 0.38044 0.72544 0.28909 0.0
O165 O 0.38183 0.65015 0.35417 0.0
O166 O 0.46414 0.69924 0.32929 0.0
O167 O 0.34873 0.7021 0.36932 0.0
O168 O 0.40831 0.76813 0.33147 0.0
O169 O 0.44528 0.701 0.393 0.0
O170 O 0.36578 0.75464 0.34231 0.0
O171 O 0.38206 0.69291 0.39968 0.0
O172 O 0.44573 0.74208 0.3727 0.0
O173 O 0.36719 0.67117 0.31625 0.0
O174 O 0.42616 0.72601 0.28889 0.0
O175 O 0.44366 0.6609 0.3444 0.0
Sc176 Sc 0.38135 0.01942 0.37518 0.0
Sc177 Sc 0.36325 0.07694 0.33494 0.0
Sc178 Sc 0.39477 0.019 0.30484 0.0
O179 O 0.37975 0.03856 0.33833 0.0
C180 C 0.43887 0.00135 0.34978 0.0
C181 C 0.39822 0.08116 0.38997 0.0
C182 C 0.41388 0.0794 0.29246 0.0
C183 C 0.32379 0.04926 0.38049 0.0
C184 C 0.36378 0.97078 0.33539 0.0
C185 C 0.34068 0.04768 0.28137 0.0
O186 O 0.42384 0.00765 0.37019 0.0
O187 O 0.38946 0.09247 0.36796 0.0
O188 O 0.41827 0.05373 0.29267 0.0
O189 O 0.33954 0.02895 0.38474 0.0
O190 O 0.37203 0.9824 0.31354 0.0
O191 O 0.33617 0.06404 0.30139 0.0
O192 O 0.36711 0.98114 0.35907 0.0
O193 O 0.33011 0.06879 0.36418 0.0
O194 O 0.36144 0.03209 0.27996 0.0
O195 O 0.39523 0.05577 0.39512 0.0
O196 O 0.43062 0.00333 0.32516 0.0
O197 O 0.39411 0.09058 0.30551 0.0
Sc198 Sc 0.24183 0.15111 0.56322 0.0
Sc199 Sc 0.17883 0.12578 0.5862 0.0
Sc200 Sc 0.22524 0.15408 0.63219 0.0
O201 O 0.21544 0.14366 0.59374 0.0
C202 C 0.2798 0.12801 0.61165 0.0
C203 C 0.21719 0.09714 0.54089 0.0
C204 C 0.19722 0.09481 0.63876 0.0
C205 C 0.18316 0.1699 0.5397 0.0
C206 C 0.25282 0.20363 0.59859 0.0
C207 C 0.16435 0.16881 0.6338 0.0
O208 O 0.2763 0.13661 0.58714 0.0
O209 O 0.19338 0.10227 0.5505 0.0
O210 O 0.20581 0.11752 0.64863 0.0
O211 O 0.20899 0.16603 0.53711 0.0
O212 O 0.24713 0.19118 0.62087 0.0
O213 O 0.15833 0.14722 0.62022 0.0
O214 O 0.24881 0.19298 0.57518 0.0
O215 O 0.16881 0.15886 0.5587 0.0
O216 O 0.18866 0.17788 0.63532 0.0
O217 O 0.2383 0.11019 0.54839 0.0
O218 O 0.26216 0.13104 0.63056 0.0
O219 O 0.18882 0.09243 0.61402 0.0
Sc220 Sc 0.09167 0.98201 0.81081 0.0
Sc221 Sc 0.13072 0.92531 0.83267 0.0
Sc222 Sc 0.09595 0.96669 0.87955 0.0
O223 O 0.10633 0.95793 0.84083 0.0
C224 C 0.10664 0.02468 0.8587 0.0
C225 C 0.15151 0.97156 0.79005 0.0
C226 C 0.15811 0.94641 0.88688 0.0
C227 C 0.08792 0.92201 0.78445 0.0
C228 C 0.04066 0.9844 0.84784 0.0
C229 C 0.08868 0.90355 0.87847 0.0
O230 O 0.09648 0.01865 0.83533 0.0
O231 O 0.15291 0.94719 0.79982 0.0
O232 O 0.13472 0.95329 0.89623 0.0
O233 O 0.08503 0.94797 0.78336 0.0
O234 O 0.05587 0.98297 0.86904 0.0
O235 O 0.11033 0.89989 0.86402 0.0
O236 O 0.04965 0.97855 0.82407 0.0
O237 O 0.1017 0.90991 0.80308 0.0
O238 O 0.07852 0.92704 0.88333 0.0
O239 O 0.13202 0.98799 0.79535 0.0
O240 O 0.11283 0.00669 0.87646 0.0
O241 O 0.16155 0.93826 0.86224 0.0
Sc242 Sc 0.26267 0.84982 0.07091 0.0
Sc243 Sc 0.32378 0.88653 0.08465 0.0
Sc244 Sc 0.28479 0.85734 0.13878 0.0
O245 O 0.29048 0.86462 0.09805 0.0
C246 C 0.22483 0.87222 0.11905 0.0
C247 C 0.27752 0.90735 0.04309 0.0
C248 C 0.30553 0.91972 0.13849 0.0
C249 C 0.31927 0.83774 0.04074 0.0
C250 C 0.2636 0.80059 0.11425 0.0
C251 C 0.34891 0.84827 0.13214 0.0
O252 O 0.22896 0.86692 0.09379 0.0
O253 O 0.30012 0.91148 0.05565 0.0
O254 O 0.29335 0.89923 0.14902 0.0
O255 O 0.29431 0.83193 0.04588 0.0
O256 O 0.2744 0.81454 0.13348 0.0
O257 O 0.35183 0.86287 0.11059 0.0
O258 O 0.2581 0.81084 0.09095 0.0
O259 O 0.33219 0.85716 0.05256 0.0
O260 O 0.32618 0.84495 0.14428 0.0
O261 O 0.26282 0.88628 0.04686 0.0
O262 O 0.24275 0.86872 0.13755 0.0
O263 O 0.31822 0.91853 0.11558 0.0
Sc264 Sc 0.90168 0.49661 0.68644 0.0
Sc265 Sc 0.8789 0.43364 0.66063 0.0
Sc266 Sc 0.90564 0.48292 0.61709 0.0
O267 O 0.89531 0.47116 0.65493 0.0
C268 C 0.87661 0.5349 0.6391 0.0
C269 C 0.84781 0.46956 0.70653 0.0
C270 C 0.8487 0.45148 0.60769 0.0
C271 C 0.92199 0.4378 0.70816 0.0
C272 C 0.95343 0.51163 0.65207 0.0
C273 C 0.92453 0.42338 0.61425 0.0
O274 O 0.88626 0.53147 0.66327 0.0
O275 O 0.85362 0.44625 0.69602 0.0
O276 O 0.87128 0.46138 0.59887 0.0
O277 O 0.91735 0.46337 0.71189 0.0
O278 O 0.94085 0.50714 0.62963 0.0
O279 O 0.90283 0.41547 0.62676 0.0
O280 O 0.94342 0.50512 0.6752 0.0
O281 O 0.91159 0.42407 0.68845 0.0
O282 O 0.93187 0.44831 0.61363 0.0
O283 O 0.86082 0.4912 0.70058 0.0
O284 O 0.8798 0.51765 0.61989 0.0
O285 O 0.84584 0.44278 0.63227 0.0
Sc286 Sc 0.76751 0.63455 0.87272 0.0
Sc287 Sc 0.82529 0.61592 0.91197 0.0
Sc288 Sc 0.76768 0.64618 0.94336 0.0
O289 O 0.78689 0.63216 0.90925 0.0
C290 C 0.74624 0.69005 0.9 0.0
C291 C 0.82825 0.65527 0.85937 0.0
C292 C 0.82731 0.66671 0.95428 0.0
C293 C 0.79904 0.57787 0.8648 0.0
C294 C 0.72124 0.61245 0.91312 0.0
C295 C 0.7975 0.59235 0.9656 0.0
O296 O 0.75334 0.6761 0.87915 0.0
O297 O 0.84021 0.64394 0.87989 0.0
O298 O 0.80172 0.67162 0.95368 0.0
O299 O 0.77889 0.59382 0.86066 0.0
O300 O 0.73241 0.62114 0.93508 0.0
O301 O 0.81216 0.58742 0.94439 0.0
O302 O 0.73082 0.61723 0.88931 0.0
O303 O 0.81807 0.58354 0.88182 0.0
O304 O 0.78322 0.61388 0.96832 0.0
O305 O 0.80295 0.65189 0.85401 0.0
O306 O 0.74903 0.68121 0.92428 0.0
O307 O 0.83813 0.64599 0.94245 0.0
Sc308 Sc 0.60724 0.52901 0.11331 0.0
Sc309 Sc 0.63821 0.56976 0.16502 0.0
Sc310 Sc 0.60377 0.50796 0.18184 0.0
O311 O 0.61646 0.53568 0.15345 0.0
C312 C 0.5524 0.50655 0.14143 0.0
C313 C 0.5968 0.59287 0.11886 0.0
C314 C 0.59146 0.56507 0.21126 0.0
C315 C 0.66904 0.55185 0.10972 0.0
C316 C 0.62561 0.47015 0.13325 0.0
C317 C 0.66215 0.52438 0.20634 0.0
O318 O 0.56522 0.51669 0.12106 0.0
O319 O 0.61339 0.59687 0.13877 0.0
O320 O 0.5866 0.53969 0.2073 0.0
O321 O 0.64807 0.53957 0.10026 0.0
O322 O 0.62043 0.47423 0.15855 0.0
O323 O 0.66487 0.5472 0.19369 0.0
O324 O 0.62107 0.48777 0.11468 0.0
O325 O 0.66905 0.56397 0.13296 0.0
O326 O 0.64142 0.50905 0.20357 0.0
O327 O 0.59255 0.56959 0.10819 0.0
O328 O 0.56386 0.50234 0.16439 0.0
O329 O 0.60967 0.57844 0.19799 0.0
Sc330 Sc 0.71618 0.33729 0.3673 0.0
Sc331 Sc 0.68 0.37732 0.41455 0.0
Sc332 Sc 0.73511 0.33623 0.43552 0.0
O333 O 0.7105 0.35043 0.4058 0.0
C334 C 0.72984 0.2825 0.40195 0.0
C335 C 0.65276 0.33768 0.36973 0.0
C336 C 0.67586 0.33627 0.46391 0.0
C337 C 0.70189 0.40156 0.35917 0.0
C338 C 0.77654 0.34343 0.38488 0.0
C339 C 0.72888 0.3966 0.45459 0.0
O340 O 0.72759 0.29585 0.37952 0.0
O341 O 0.65214 0.35981 0.38376 0.0
O342 O 0.70185 0.33336 0.46462 0.0
O343 O 0.70674 0.37742 0.35014 0.0
O344 O 0.77087 0.33665 0.40949 0.0
O345 O 0.70388 0.39815 0.44678 0.0
O346 O 0.75831 0.34897 0.36714 0.0
O347 O 0.69475 0.40619 0.38398 0.0
O348 O 0.74461 0.37703 0.44779 0.0
O349 O 0.6746 0.32419 0.3656 0.0
O350 O 0.72828 0.29404 0.42526 0.0
O351 O 0.66359 0.34955 0.44497 0.0
Sc352 Sc 0.30706 0.39792 0.01309 0.0
Sc353 Sc 0.33504 0.36902 0.07396 0.0
Sc354 Sc 0.3781 0.39522 0.02178 0.0
O355 O 0.33999 0.38726 0.03635 0.0
C356 C 0.34802 0.37227 0.96902 0.0
C357 C 0.28612 0.34196 0.03916 0.0
C358 C 0.38626 0.33594 0.04996 0.0
C359 C 0.28879 0.41579 0.0735 0.0
C360 C 0.34612 0.44841 0.0002 0.0
C361 C 0.38447 0.41146 0.08422 0.0
O362 O 0.32405 0.37916 0.97683 0.0
O363 O 0.30203 0.34173 0.05997 0.0
O364 O 0.39344 0.35583 0.03464 0.0
O365 O 0.28719 0.41714 0.04744 0.0
O366 O 0.36794 0.43573 0.00681 0.0
O367 O 0.36665 0.39453 0.09327 0.0
O368 O 0.3226 0.43744 0.00161 0.0
O369 O 0.30517 0.39966 0.08606 0.0
O370 O 0.38992 0.41442 0.05898 0.0
O371 O 0.2866 0.36047 0.02098 0.0
O372 O 0.36941 0.37688 0.9831 0.0
O373 O 0.36492 0.3368 0.06517 0.0
Sc374 Sc 0.88552 0.1018 0.9665 0.0
Sc375 Sc 0.83631 0.13391 0.92353 0.0
Sc376 Sc 0.81605 0.09839 0.98368 0.0
O377 O 0.84591 0.11146 0.9578 0.0
C378 C 0.85642 0.04688 0.98683 0.0
C379 C 0.88443 0.0941 0.90196 0.0
C380 C 0.79104 0.08616 0.92454 0.0
C381 C 0.89002 0.16444 0.94573 0.0
C382 C 0.86202 0.11903 0.02476 0.0
C383 C 0.79104 0.15608 0.96574 0.0
O384 O 0.87713 0.05929 0.97686 0.0
O385 O 0.86473 0.11075 0.89745 0.0
O386 O 0.79347 0.08109 0.95009 0.0
O387 O 0.89889 0.14313 0.95799 0.0
O388 O 0.83685 0.1152 0.01887 0.0
O389 O 0.80567 0.15963 0.94431 0.0
O390 O 0.8815 0.11396 0.00825 0.0
O391 O 0.86748 0.16478 0.93234 0.0
O392 O 0.79313 0.13527 0.98106 0.0
O393 O 0.89349 0.08868 0.9257 0.0
O394 O 0.83367 0.05881 0.99073 0.0
O395 O 0.80458 0.1049 0.91217 0.0
Sc396 Sc 0.14257 0.55574 0.24267 0.0
Sc397 Sc 0.11869 0.5875 0.18201 0.0
Sc398 Sc 0.14054 0.62673 0.23829 0.0
O399 O 0.13383 0.58985 0.22086 0.0
C400 C 0.11284 0.5948 0.28637 0.0
C401 C 0.08847 0.53728 0.21268 0.0
C402 C 0.0847 0.63767 0.20497 0.0
C403 C 0.1637 0.54039 0.18228 0.0
C404 C 0.1914 0.59251 0.26234 0.0
C405 C 0.16317 0.63633 0.17901 0.0
O406 O 0.12409 0.57215 0.27963 0.0
O407 O 0.09187 0.55237 0.19146 0.0
O408 O 0.10468 0.64499 0.22005 0.0
O409 O 0.16124 0.5358 0.2079 0.0
O410 O 0.17728 0.61436 0.26013 0.0
O411 O 0.14466 0.62154 0.1677 0.0
O412 O 0.18281 0.56944 0.25403 0.0
O413 O 0.15098 0.55964 0.16992 0.0
O414 O 0.16599 0.63837 0.20483 0.0
O415 O 0.10388 0.53824 0.23356 0.0
O416 O 0.11531 0.61658 0.27234 0.0
O417 O 0.08502 0.61552 0.19102 0.0
Sc418 Sc 0.68492 0.90587 0.48773 0.0
Sc419 Sc 0.65893 0.87504 0.42745 0.0
Sc420 Sc 0.61481 0.90513 0.47581 0.0
O421 O 0.65307 0.89522 0.4636 0.0
C422 C 0.64029 0.88165 0.52962 0.0
C423 C 0.70507 0.84813 0.46625 0.0
C424 C 0.60522 0.84598 0.44803 0.0
C425 C 0.70666 0.91951 0.42717 0.0
C426 C 0.64784 0.95719 0.49906 0.0
C427 C 0.61201 0.91976 0.41376 0.0
O428 O 0.66417 0.89094 0.5241 0.0
O429 O 0.69182 0.84864 0.44363 0.0
O430 O 0.59709 0.86804 0.45938 0.0
O431 O 0.70812 0.92093 0.45325 0.0
O432 O 0.62591 0.94363 0.49514 0.0
O433 O 0.62698 0.89936 0.40665 0.0
O434 O 0.67133 0.9472 0.49426 0.0
O435 O 0.68912 0.90476 0.41456 0.0
O436 O 0.60832 0.92678 0.43857 0.0
O437 O 0.70292 0.86649 0.48445 0.0
O438 O 0.62002 0.88379 0.51342 0.0
O439 O 0.62905 0.84357 0.43752 0.0
Sc440 Sc 0.33908 0.3714 0.71165 0.0
Sc441 Sc 0.38056 0.41797 0.6768 0.0
Sc442 Sc 0.34221 0.43881 0.7344 0.0
O443 O 0.35406 0.40951 0.70789 0.0
C444 C 0.28651 0.40631 0.73065 0.0
C445 C 0.33929 0.37504 0.64888 0.0
C446 C 0.3389 0.46737 0.67478 0.0
C447 C 0.40309 0.36172 0.69699 0.0
C448 C 0.35242 0.3863 0.77266 0.0
C449 C 0.40263 0.45793 0.72442 0.0
O450 O 0.29838 0.3841 0.72379 0.0
O451 O 0.36225 0.38762 0.64879 0.0
O452 O 0.33561 0.46754 0.70086 0.0
O453 O 0.37856 0.35332 0.70101 0.0
O454 O 0.3483 0.41194 0.76919 0.0
O455 O 0.40344 0.44957 0.69961 0.0
O456 O 0.3512 0.36873 0.75348 0.0
O457 O 0.4087 0.38658 0.69083 0.0
O458 O 0.38315 0.45216 0.74052 0.0
O459 O 0.32502 0.37247 0.67039 0.0
O460 O 0.29927 0.42883 0.73323 0.0
O461 O 0.35282 0.44911 0.6621 0.0
Sc462 Sc 0.11655 0.59205 0.54058 0.0
Sc463 Sc 0.16549 0.63489 0.56831 0.0
Sc464 Sc 0.18119 0.59387 0.51148 0.0
O465 O 0.15456 0.60714 0.53959 0.0
C466 C 0.14867 0.53894 0.51841 0.0
C467 C 0.12573 0.59457 0.60148 0.0
C468 C 0.21423 0.5927 0.56873 0.0
C469 C 0.10799 0.65623 0.55351 0.0
C470 C 0.12482 0.60373 0.47852 0.0
C471 C 0.2023 0.65393 0.51695 0.0
O472 O 0.12711 0.55158 0.5259 0.0
O473 O 0.13642 0.61837 0.59891 0.0
O474 O 0.21282 0.58884 0.54273 0.0
O475 O 0.09975 0.63131 0.55408 0.0
O476 O 0.15053 0.59843 0.47953 0.0
O477 O 0.19628 0.65561 0.5424 0.0
O478 O 0.10916 0.60434 0.49939 0.0
O479 O 0.13346 0.66244 0.55431 0.0
O480 O 0.19377 0.63457 0.50195 0.0
O481 O 0.12412 0.57831 0.58134 0.0
O482 O 0.17162 0.55101 0.51613 0.0
O483 O 0.1969 0.60714 0.58215 0.0
Sc484 Sc 0.65379 0.93313 0.76071 0.0
Sc485 Sc 0.62445 0.91094 0.82228 0.0
Sc486 Sc 0.66153 0.86583 0.78183 0.0
O487 O 0.64653 0.90343 0.78797 0.0
C488 C 0.63913 0.88077 0.72377 0.0
C489 C 0.59655 0.95256 0.77953 0.0
C490 C 0.60028 0.85521 0.80484 0.0
C491 C 0.66518 0.96032 0.8199 0.0
C492 C 0.71037 0.90232 0.75673 0.0
C493 C 0.66934 0.86794 0.8434 0.0
O494 O 0.64412 0.90631 0.72681 0.0
O495 O 0.60014 0.94448 0.80417 0.0
O496 O 0.62459 0.84712 0.79898 0.0
O497 O 0.66391 0.96155 0.79365 0.0
O498 O 0.69981 0.87944 0.76364 0.0
O499 O 0.64582 0.8791 0.84648 0.0
O500 O 0.69685 0.92456 0.75701 0.0
O501 O 0.65414 0.9412 0.83408 0.0
O502 O 0.68147 0.86793 0.82047 0.0
O503 O 0.61169 0.94457 0.76006 0.0
O504 O 0.64294 0.86294 0.7424 0.0
O505 O 0.59472 0.88031 0.8101 0.0
Sc506 Sc 0.85032 0.06564 0.26099 0.0
Sc507 Sc 0.88315 0.085 0.32289 0.0
Sc508 Sc 0.85262 0.13487 0.27953 0.0
O509 O 0.86217 0.09513 0.28785 0.0
C510 C 0.8717 0.11288 0.22141 0.0
C511 C 0.90829 0.04209 0.27999 0.0
C512 C 0.91386 0.13982 0.30353 0.0
C513 C 0.83667 0.03868 0.31899 0.0
C514 C 0.79854 0.10536 0.25736 0.0
C515 C 0.84105 0.13137 0.34347 0.0
O516 O 0.86729 0.08767 0.22667 0.0
O517 O 0.9104 0.0557 0.30226 0.0
O518 O 0.8932 0.14862 0.29021 0.0
O519 O 0.83257 0.04151 0.29333 0.0
O520 O 0.81083 0.12615 0.26723 0.0
O521 O 0.85767 0.11176 0.34845 0.0
O522 O 0.81045 0.08254 0.25379 0.0
O523 O 0.85456 0.05239 0.33226 0.0
O524 O 0.83727 0.14136 0.31978 0.0
O525 O 0.88802 0.04413 0.26394 0.0
O526 O 0.86669 0.13209 0.23823 0.0
O527 O 0.91372 0.11707 0.31657 0.0
H528 H 0.94295 0.29185 0.36229 0.0
H529 H 0.94144 0.37958 0.34793 0.0
H530 H 0.89321 0.29044 0.35748 0.0
H531 H 0.89181 0.37801 0.34355 0.0
H532 H 0.79947 0.36455 0.33797 0.0
H533 H 0.84714 0.35935 0.32266 0.0
H534 H 0.86522 0.31246 0.39583 0.0
H535 H 0.81822 0.31754 0.41109 0.0
C536 C 0.93216 0.31068 0.35736 0.0
C537 C 0.94591 0.33602 0.35667 0.0
C538 C 0.90375 0.30982 0.35452 0.0
C539 C 0.88885 0.33423 0.35089 0.0
C540 C 0.90289 0.35894 0.34649 0.0
C541 C 0.9313 0.35984 0.34934 0.0
C542 C 0.8137 0.35311 0.35069 0.0
C543 C 0.80526 0.34172 0.37587 0.0
C544 C 0.84078 0.34998 0.34182 0.0
C545 C 0.85952 0.33505 0.35782 0.0
C546 C 0.85094 0.32346 0.38276 0.0
C547 C 0.82414 0.32685 0.39176 0.0
H548 H 0.85703 0.57403 0.67409 0.0
H549 H 0.86712 0.55513 0.58778 0.0
H550 H 0.84623 0.62138 0.66215 0.0
H551 H 0.85681 0.60262 0.57614 0.0
H552 H 0.90854 0.68669 0.59889 0.0
H553 H 0.89469 0.63888 0.59401 0.0
H554 H 0.81661 0.65721 0.63186 0.0
H555 H 0.83006 0.70518 0.63631 0.0
C556 C 0.8562 0.57979 0.6526 0.0
C557 C 0.86379 0.56122 0.63196 0.0
C558 C 0.84964 0.60673 0.64575 0.0
C559 C 0.851 0.61538 0.61826 0.0
C560 C 0.85568 0.59619 0.59743 0.0
C561 C 0.86179 0.56914 0.60421 0.0
C562 C 0.88812 0.68068 0.60538 0.0
C563 C 0.87068 0.69935 0.61861 0.0
C564 C 0.88005 0.65348 0.60225 0.0
C565 C 0.85466 0.64466 0.61271 0.0
C566 C 0.83621 0.66378 0.6236 0.0
C567 C 0.84406 0.69109 0.62628 0.0
H568 H 0.68819 0.60798 0.95831 0.0
H569 H 0.69227 0.58824 0.8717 0.0
H570 H 0.63844 0.60393 0.95668 0.0
H571 H 0.64255 0.58467 0.87024 0.0
H572 H 0.54783 0.58619 0.88108 0.0
H573 H 0.59425 0.56822 0.88838 0.0
H574 H 0.61709 0.6442 0.92794 0.0
H575 H 0.57133 0.66222 0.92072 0.0
C576 C 0.67864 0.60175 0.93921 0.0
C577 C 0.69387 0.59988 0.91479 0.0
C578 C 0.65021 0.59935 0.93834 0.0
C579 C 0.63696 0.59501 0.91313 0.0
C580 C 0.65244 0.58838 0.88982 0.0
C581 C 0.68088 0.59075 0.89066 0.0
C582 C 0.56288 0.59909 0.89115 0.0
C583 C 0.55597 0.62561 0.90038 0.0
C584 C 0.58919 0.58867 0.89555 0.0
C585 C 0.60865 0.6045 0.90956 0.0
C586 C 0.602 0.63125 0.91796 0.0
C587 C 0.57597 0.64176 0.91331 0.0
H588 H 0.58305 0.3178 0.10202 0.0
H589 H 0.66674 0.29845 0.12464 0.0
H590 H 0.59638 0.36533 0.09396 0.0
H591 H 0.6798 0.34621 0.1171 0.0
H592 H 0.64937 0.43047 0.16485 0.0
H593 H 0.65651 0.38268 0.15191 0.0
H594 H 0.63075 0.40088 0.06903 0.0
H595 H 0.62397 0.44879 0.08163 0.0
C596 C 0.60439 0.32357 0.10451 0.0
C597 C 0.62371 0.30479 0.11457 0.0
C598 C 0.6121 0.3506 0.09956 0.0
C599 C 0.63906 0.35914 0.10509 0.0
C600 C 0.65896 0.33984 0.11265 0.0
C601 C 0.65138 0.31266 0.11708 0.0
C602 C 0.64599 0.42444 0.1437 0.0
C603 C 0.63534 0.44304 0.12448 0.0
C604 C 0.65047 0.39726 0.1362 0.0
C605 C 0.644 0.3884 0.10954 0.0
C606 C 0.63591 0.40748 0.08965 0.0
C607 C 0.63184 0.43476 0.09701 0.0
H608 H 0.43402 0.1634 0.64419 0.0
H609 H 0.45063 0.08195 0.61289 0.0
H610 H 0.38611 0.15085 0.65109 0.0
H611 H 0.40248 0.06965 0.61943 0.0
H612 H 0.31757 0.10479 0.57763 0.0
H613 H 0.36545 0.09554 0.5886 0.0
H614 H 0.3503 0.11614 0.67353 0.0
H615 H 0.30222 0.12504 0.66279 0.0
C616 C 0.42753 0.14267 0.63938 0.0
C617 C 0.44571 0.12385 0.62742 0.0
C618 C 0.40028 0.13536 0.64371 0.0
C619 C 0.39087 0.10931 0.63571 0.0
C620 C 0.40949 0.08977 0.62582 0.0
C621 C 0.43688 0.09692 0.62195 0.0
C622 C 0.32427 0.10653 0.59878 0.0
C623 C 0.30652 0.11639 0.61919 0.0
C624 C 0.35152 0.10087 0.60513 0.0
C625 C 0.36133 0.1054 0.63185 0.0
C626 C 0.34299 0.11255 0.65282 0.0
C627 C 0.31561 0.11778 0.64657 0.0
H628 H 0.04688 0.18533 0.88454 0.0
H629 H 0.13299 0.1913 0.90582 0.0
H630 H 0.05009 0.13553 0.88663 0.0
H631 H 0.13602 0.14154 0.90743 0.0
H632 H 0.12617 0.04635 0.90682 0.0
H633 H 0.11894 0.09314 0.92366 0.0
H634 H 0.07932 0.11436 0.84719 0.0
H635 H 0.0864 0.06818 0.83027 0.0
C636 C 0.06623 0.17612 0.89051 0.0
C637 C 0.09001 0.19208 0.89367 0.0
C638 C 0.068 0.14767 0.89178 0.0
C639 C 0.0935 0.13505 0.89625 0.0
C640 C 0.11623 0.15097 0.90367 0.0
C641 C 0.11447 0.17946 0.90248 0.0
C642 C 0.11614 0.06111 0.89353 0.0
C643 C 0.10666 0.05355 0.86728 0.0
C644 C 0.11182 0.08767 0.90331 0.0
C645 C 0.09775 0.10676 0.88704 0.0
C646 C 0.08935 0.09956 0.86045 0.0
C647 C 0.09385 0.07325 0.85061 0.0
H648 H 0.05285 0.91113 0.12689 0.0
H649 H 0.07054 0.8258 0.14474 0.0
H650 H 0.10046 0.9229 0.13604 0.0
H651 H 0.11809 0.83794 0.15424 0.0
H652 H 0.20228 0.86547 0.16967 0.0
H653 H 0.15383 0.86994 0.18154 0.0
H654 H 0.1371 0.90212 0.10058 0.0
H655 H 0.18538 0.89723 0.08838 0.0
C656 C 0.06664 0.89499 0.13355 0.0
C657 C 0.05826 0.86732 0.13417 0.0
C658 C 0.09378 0.90188 0.13899 0.0
C659 C 0.11267 0.88128 0.14556 0.0
C660 C 0.10367 0.85416 0.14933 0.0
C661 C 0.07659 0.84717 0.14354 0.0
C662 C 0.18839 0.87425 0.15467 0.0
C663 C 0.19728 0.88041 0.12786 0.0
C664 C 0.16081 0.8769 0.16158 0.0
C665 C 0.14205 0.88628 0.14195 0.0
C666 C 0.1514 0.89508 0.11611 0.0
C667 C 0.17887 0.89195 0.10901 0.0
H668 H 0.33706 0.79527 0.36084 0.0
H669 H 0.40829 0.81564 0.31172 0.0
H670 H 0.32121 0.84297 0.35725 0.0
H671 H 0.39244 0.86266 0.30815 0.0
H672 H 0.3565 0.93982 0.28913 0.0
H673 H 0.35228 0.89005 0.28771 0.0
H674 H 0.34287 0.88802 0.37587 0.0
H675 H 0.34678 0.93774 0.37752 0.0
C676 C 0.34923 0.80987 0.34925 0.0
C677 C 0.37405 0.80189 0.3368 0.0
C678 C 0.34007 0.83696 0.34708 0.0
C679 C 0.35535 0.85615 0.33198 0.0
C680 C 0.37994 0.84803 0.31934 0.0
C681 C 0.38926 0.82123 0.32182 0.0
C682 C 0.35268 0.9289 0.30814 0.0
C683 C 0.35314 0.94254 0.33356 0.0
C684 C 0.35017 0.90046 0.30727 0.0
C685 C 0.348 0.8854 0.33175 0.0
C686 C 0.34467 0.89926 0.35675 0.0
C687 C 0.34719 0.92773 0.35766 0.0
H688 H 0.30823 0.35687 0.93246 0.0
H689 H 0.39639 0.36293 0.94232 0.0
H690 H 0.31446 0.35056 0.88319 0.0
H691 H 0.40226 0.357 0.89308 0.0
H692 H 0.37858 0.41292 0.81395 0.0
H693 H 0.3821 0.39822 0.86174 0.0
H694 H 0.34022 0.32263 0.84201 0.0
H695 H 0.33722 0.33701 0.79389 0.0
C696 C 0.32891 0.35607 0.9243 0.0
C697 C 0.35174 0.36134 0.94109 0.0
C698 C 0.33246 0.35217 0.89617 0.0
C699 C 0.35881 0.35372 0.88464 0.0
C700 C 0.38178 0.35592 0.90173 0.0
C701 C 0.3783 0.35947 0.92985 0.0
C702 C 0.37064 0.39296 0.81975 0.0
C703 C 0.35741 0.3762 0.80051 0.0
C704 C 0.37292 0.38442 0.8469 0.0
C705 C 0.36155 0.35926 0.85521 0.0
C706 C 0.34929 0.34197 0.83581 0.0
C707 C 0.34756 0.35025 0.80847 0.0
H708 H 0.9126 0.11695 0.04853 0.0
H709 H 0.82834 0.14074 0.06403 0.0
H710 H 0.92329 0.12328 0.09694 0.0
H711 H 0.83936 0.14731 0.11242 0.0
H712 H 0.86669 0.16296 0.19704 0.0
H713 H 0.87146 0.17297 0.14822 0.0
H714 H 0.90101 0.09055 0.13422 0.0
H715 H 0.89597 0.08023 0.18294 0.0
C716 C 0.89652 0.12421 0.06208 0.0
C717 C 0.86942 0.12772 0.05268 0.0
C718 C 0.90277 0.12792 0.0897 0.0
C719 C 0.88213 0.13564 0.10813 0.0
C720 C 0.85565 0.14155 0.09838 0.0
C721 C 0.84928 0.13748 0.07082 0.0
C722 C 0.87494 0.14719 0.1837 0.0
C723 C 0.88035 0.12057 0.19357 0.0
C724 C 0.87769 0.15301 0.15585 0.0
C725 C 0.88639 0.13247 0.13774 0.0
C726 C 0.89442 0.10675 0.14799 0.0
C727 C 0.89127 0.10076 0.17575 0.0
H728 H 0.10258 0.55372 0.32338 0.0
H729 H 0.09167 0.64097 0.3101 0.0
H730 H 0.09235 0.56007 0.37194 0.0
H731 H 0.08198 0.64706 0.3587 0.0
H732 H 0.14525 0.63329 0.43629 0.0
H733 H 0.12786 0.6344 0.38932 0.0
H734 H 0.05965 0.58294 0.41306 0.0
H735 H 0.07659 0.58266 0.46056 0.0
C736 C 0.09713 0.57405 0.33058 0.0
C737 C 0.09908 0.59699 0.31321 0.0
C738 C 0.09093 0.5776 0.35829 0.0
C739 C 0.08684 0.6041 0.36879 0.0
C740 C 0.08519 0.62649 0.35084 0.0
C741 C 0.09106 0.62294 0.32312 0.0
C742 C 0.12615 0.6229 0.43157 0.0
C743 C 0.1123 0.60772 0.45163 0.0
C744 C 0.11603 0.62378 0.40492 0.0
C745 C 0.09234 0.60892 0.39793 0.0
C746 C 0.07773 0.59479 0.41828 0.0
C747 C 0.08746 0.59456 0.44521 0.0
H748 H 0.67831 0.86278 0.56615 0.0
H749 H 0.59081 0.87279 0.55426 0.0
H750 H 0.67027 0.85111 0.61411 0.0
H751 H 0.583 0.86131 0.60234 0.0
H752 H 0.65096 0.83183 0.69969 0.0
H753 H 0.64477 0.82039 0.65114 0.0
H754 H 0.60122 0.89671 0.63889 0.0
H755 H 0.60782 0.90839 0.68704 0.0
C756 C 0.65737 0.86186 0.5736 0.0
C757 C 0.63528 0.8695 0.55677 0.0
C758 C 0.65274 0.85476 0.6009 0.0
C759 C 0.62603 0.85553 0.61171 0.0
C760 C 0.60373 0.86062 0.59428 0.0
C761 C 0.60831 0.86738 0.56689 0.0
C762 C 0.63934 0.84571 0.68673 0.0
C763 C 0.63036 0.87125 0.69669 0.0
C764 C 0.63575 0.8391 0.65913 0.0
C765 C 0.62261 0.85771 0.64153 0.0
C766 C 0.61118 0.88192 0.65221 0.0
C767 C 0.61525 0.88877 0.6796 0.0
H768 H 0.18682 0.50848 0.4898 0.0
H769 H 0.10322 0.50608 0.51974 0.0
H770 H 0.17702 0.46938 0.45973 0.0
H771 H 0.09373 0.46738 0.48958 0.0
H772 H 0.07958 0.44782 0.39763 0.0
H773 H 0.09934 0.47829 0.43181 0.0
H774 H 0.15114 0.41271 0.46113 0.0
H775 H 0.13084 0.38147 0.42681 0.0
C776 C 0.16668 0.49911 0.49075 0.0
C777 C 0.14564 0.51085 0.50686 0.0
C778 C 0.16116 0.47672 0.4735 0.0
C779 C 0.13457 0.46577 0.47218 0.0
C780 C 0.11436 0.47569 0.49018 0.0
C781 C 0.11985 0.49787 0.50745 0.0
C782 C 0.09553 0.43987 0.41096 0.0
C783 C 0.1034 0.41212 0.40971 0.0
C784 C 0.10673 0.45733 0.43058 0.0
C785 C 0.12627 0.4476 0.44933 0.0
C786 C 0.13593 0.42051 0.4469 0.0
C787 C 0.12449 0.40279 0.42718 0.0
H788 H 0.87655 0.86231 0.70808 0.0
H789 H 0.83199 0.88618 0.63544 0.0
H790 H 0.84122 0.88321 0.73685 0.0
H791 H 0.7964 0.907 0.66412 0.0
H792 H 0.75033 0.86353 0.76365 0.0
H793 H 0.7948 0.86122 0.74094 0.0
H794 H 0.77927 0.93923 0.7017 0.0
H795 H 0.73463 0.94171 0.72463 0.0
C796 C 0.85998 0.8735 0.69828 0.0
C797 C 0.85702 0.87289 0.6696 0.0
C798 C 0.83954 0.88508 0.71473 0.0
C799 C 0.81575 0.89615 0.70275 0.0
C800 C 0.81452 0.89866 0.67396 0.0
C801 C 0.83503 0.887 0.65747 0.0
C802 C 0.75655 0.88044 0.75059 0.0
C803 C 0.73883 0.90269 0.74584 0.0
C804 C 0.78217 0.87925 0.73774 0.0
C805 C 0.79059 0.90012 0.71958 0.0
C806 C 0.77333 0.92288 0.71557 0.0
C807 C 0.74781 0.92428 0.72879 0.0
H808 H 0.37071 0.58301 0.89104 0.0
H809 H 0.38971 0.61737 0.97041 0.0
H810 H 0.3492 0.54344 0.91348 0.0
H811 H 0.36819 0.57809 0.99282 0.0
H812 H 0.38749 0.48508 0.0089 0.0
H813 H 0.39197 0.53119 0.98999 0.0
H814 H 0.31414 0.52231 0.94853 0.0
H815 H 0.3094 0.47603 0.96777 0.0
C816 C 0.36881 0.58288 0.91322 0.0
C817 C 0.38192 0.60305 0.92906 0.0
C818 C 0.35674 0.56013 0.92609 0.0
C819 C 0.35772 0.55747 0.95486 0.0
C820 C 0.36762 0.57945 0.9706 0.0
C821 C 0.37963 0.60206 0.9578 0.0
C822 C 0.37121 0.493 0.99596 0.0
C823 C 0.34816 0.47689 0.98978 0.0
C824 C 0.37363 0.5195 0.98534 0.0
C825 C 0.35324 0.53039 0.968 0.0
C826 C 0.33006 0.51442 0.96193 0.0
C827 C 0.32738 0.48801 0.97299 0.0
H828 H 0.66495 0.12528 0.14664 0.0
H829 H 0.63165 0.15683 0.22246 0.0
H830 H 0.70345 0.10528 0.17199 0.0
H831 H 0.66976 0.1366 0.24786 0.0
H832 H 0.76318 0.14836 0.26567 0.0
H833 H 0.71743 0.1543 0.24642 0.0
H834 H 0.72268 0.07437 0.20841 0.0
H835 H 0.76855 0.06835 0.22753 0.0
C836 C 0.66514 0.12669 0.16886 0.0
C837 C 0.64556 0.14272 0.18263 0.0
C838 C 0.68727 0.11543 0.18339 0.0
C839 C 0.68994 0.12003 0.21183 0.0
C840 C 0.66856 0.13329 0.22589 0.0
C841 C 0.6466 0.14459 0.2114 0.0
C842 C 0.7545 0.13189 0.25351 0.0
C843 C 0.76968 0.108 0.24803 0.0
C844 C 0.72816 0.13518 0.24265 0.0
C845 C 0.71643 0.11473 0.22593 0.0
C846 C 0.73123 0.0905 0.2211 0.0
C847 C 0.75749 0.08709 0.23216 0.0
H848 H 0.68671 0.99808 0.49897 0.0
H849 H 0.60547 0.97833 0.5289 0.0
H850 H 0.68483 0.04217 0.52351 0.0
H851 H 0.60412 0.02187 0.55366 0.0
H852 H 0.62757 0.08116 0.62099 0.0
H853 H 0.64675 0.04211 0.59586 0.0
H854 H 0.63631 0.08587 0.5196 0.0
H855 H 0.61652 0.1247 0.54469 0.0
C856 C 0.66848 0.00314 0.51068 0.0
C857 C 0.64618 0.98472 0.51194 0.0
C858 C 0.66753 0.02825 0.52473 0.0
C859 C 0.64453 0.03498 0.54067 0.0
C860 C 0.62219 0.01683 0.54169 0.0
C861 C 0.6229 0.99206 0.52731 0.0
C862 C 0.63114 0.08318 0.59911 0.0
C863 C 0.62092 0.106 0.58477 0.0
C864 C 0.64177 0.06072 0.58471 0.0
C865 C 0.64277 0.06111 0.55589 0.0
C866 C 0.63595 0.08531 0.54185 0.0
C867 C 0.62493 0.10761 0.55623 0.0
H868 H 0.24524 0.37431 0.71065 0.0
H869 H 0.26374 0.43356 0.77386 0.0
H870 H 0.203 0.36207 0.73457 0.0
H871 H 0.22235 0.42017 0.79875 0.0
H872 H 0.14323 0.38751 0.83901 0.0
H873 H 0.17285 0.41236 0.80632 0.0
H874 H 0.20234 0.33481 0.77481 0.0
H875 H 0.17322 0.31062 0.80607 0.0
C876 C 0.2399 0.38516 0.72933 0.0
C877 C 0.25791 0.40455 0.7406 0.0
C878 C 0.21583 0.37806 0.74319 0.0
C879 C 0.20977 0.38947 0.76909 0.0
C880 C 0.22636 0.41093 0.77892 0.0
C881 C 0.25015 0.41855 0.76466 0.0
C882 C 0.15593 0.37594 0.82488 0.0
C883 C 0.15592 0.34704 0.82548 0.0
C884 C 0.17285 0.39013 0.80617 0.0
C885 C 0.18969 0.37561 0.78757 0.0
C886 C 0.18919 0.34682 0.78813 0.0
C887 C 0.17263 0.33285 0.80661 0.0
H888 H 0.87285 0.91622 0.10134 0.0
H889 H 0.90934 0.88153 0.0285 0.0
H890 H 0.85355 0.95359 0.07376 0.0
H891 H 0.88991 0.91851 0.00083 0.0
H892 H 0.90046 0.01206 0.98106 0.0
H893 H 0.90629 0.96676 0.00157 0.0
H894 H 0.82432 0.971 0.03515 0.0
H895 H 0.81838 0.01628 0.01475 0.0
C896 C 0.8754 0.91577 0.07923 0.0
C897 C 0.89243 0.89606 0.06697 0.0
C898 C 0.8646 0.93728 0.06342 0.0
C899 C 0.87081 0.9393 0.03521 0.0
C900 C 0.88527 0.9178 0.02258 0.0
C901 C 0.89602 0.89642 0.03834 0.0
C902 C 0.88352 0.00321 0.99244 0.0
C903 C 0.85908 0.01801 0.99637 0.0
C904 C 0.88677 0.97713 0.00407 0.0
C905 C 0.86572 0.9653 0.02002 0.0
C906 C 0.84094 0.97964 0.02314 0.0
C907 C 0.83759 0.00559 0.01132 0.0
H908 H 0.36003 0.62653 0.28165 0.0
H909 H 0.33263 0.62588 0.36595 0.0
H910 H 0.31721 0.60461 0.26749 0.0
H911 H 0.28944 0.60453 0.35168 0.0
H912 H 0.20896 0.62933 0.30055 0.0
H913 H 0.25465 0.63308 0.32078 0.0
H914 H 0.28174 0.56327 0.27339 0.0
H915 H 0.23566 0.55903 0.25348 0.0
C916 C 0.34537 0.62045 0.29728 0.0
C917 C 0.34957 0.62781 0.32485 0.0
C918 C 0.32084 0.60803 0.28918 0.0
C919 C 0.29994 0.60331 0.30847 0.0
C920 C 0.30525 0.60813 0.33644 0.0
C921 C 0.33007 0.62003 0.34463 0.0
C922 C 0.22456 0.61461 0.29464 0.0
C923 C 0.21881 0.59402 0.2753 0.0
C924 C 0.2506 0.61655 0.30646 0.0
C925 C 0.27158 0.59827 0.29882 0.0
C926 C 0.26581 0.57744 0.27975 0.0
C927 C 0.23953 0.5751 0.26836 0.0
H928 H 0.39832 0.07197 0.44447 0.0
H929 H 0.43341 0.12527 0.38275 0.0
H930 H 0.43021 0.08967 0.47831 0.0
H931 H 0.46554 0.14357 0.41748 0.0
H932 H 0.48867 0.17899 0.51178 0.0
H933 H 0.46236 0.16857 0.47026 0.0
H934 H 0.48545 0.08336 0.47717 0.0
H935 H 0.51175 0.09344 0.51846 0.0
C936 C 0.41262 0.08784 0.43822 0.0
C937 C 0.41362 0.09695 0.41083 0.0
C938 C 0.43097 0.09784 0.45761 0.0
C939 C 0.45073 0.11739 0.45025 0.0
C940 C 0.45059 0.12823 0.42345 0.0
C941 C 0.43213 0.11797 0.40373 0.0
C942 C 0.48879 0.15813 0.50407 0.0
C943 C 0.50189 0.13692 0.51887 0.0
C944 C 0.47379 0.15228 0.48022 0.0
C945 C 0.47162 0.12515 0.47088 0.0
C946 C 0.48664 0.10443 0.48421 0.0
C947 C 0.50172 0.11025 0.50787 0.0
H948 H 0.15441 0.22288 0.64267 0.0
H949 H 0.13166 0.14169 0.66995 0.0
H950 H 0.13292 0.2427 0.68363 0.0
H951 H 0.11101 0.16151 0.71143 0.0
H952 H 0.13818 0.21192 0.79353 0.0
H953 H 0.14581 0.19128 0.74839 0.0
H954 H 0.08174 0.24189 0.71404 0.0
H955 H 0.07333 0.26207 0.75957 0.0
C956 C 0.14387 0.20942 0.65693 0.0
C957 C 0.14447 0.18083 0.65315 0.0
C958 C 0.13169 0.22073 0.68033 0.0
C959 C 0.12056 0.20354 0.70059 0.0
C960 C 0.11945 0.1751 0.69595 0.0
C961 C 0.13102 0.16382 0.67217 0.0
C962 C 0.12566 0.21861 0.7764 0.0
C963 C 0.10526 0.23868 0.78001 0.0
C964 C 0.12984 0.20661 0.7507 0.0
C965 C 0.11412 0.21485 0.72799 0.0
C966 C 0.09389 0.23509 0.7314 0.0
C967 C 0.08919 0.24662 0.75734 0.0
H968 H 0.11302 0.86951 0.91544 0.0
H969 H 0.03542 0.889 0.87752 0.0
H970 H 0.08879 0.84866 0.95424 0.0
H971 H 0.01116 0.86796 0.91598 0.0
H972 H 0.03421 0.81184 0.02116 0.0
H973 H 0.05414 0.81513 0.97517 0.0
H974 H 0.01077 0.89138 0.96206 0.0
H975 H 0.99095 0.88824 0.00787 0.0
C976 C 0.09085 0.86781 0.91464 0.0
C977 C 0.076 0.88086 0.89369 0.0
C978 C 0.07694 0.85611 0.93694 0.0
C979 C 0.04809 0.85739 0.93838 0.0
C980 C 0.03339 0.8672 0.91561 0.0
C981 C 0.04725 0.8789 0.89346 0.0
C982 C 0.02865 0.82914 0.00832 0.0
C983 C 0.01111 0.84991 0.01824 0.0
C984 C 0.04011 0.83097 0.98203 0.0
C985 C 0.03386 0.85335 0.96499 0.0
C986 C 0.01561 0.87361 0.97457 0.0
C987 C 0.00446 0.87199 0.00093 0.0
H988 H 0.35962 0.79638 0.1172 0.0
H989 H 0.38517 0.86035 0.17267 0.0
H990 H 0.37987 0.7618 0.14754 0.0
H991 H 0.40606 0.82591 0.20277 0.0
H992 H 0.36188 0.72588 0.23856 0.0
H993 H 0.35831 0.7529 0.19642 0.0
H994 H 0.4403 0.78395 0.20899 0.0
H995 H 0.44425 0.7565 0.2508 0.0
C996 C 0.37112 0.80313 0.13503 0.0
C997 C 0.37133 0.83099 0.14243 0.0
C998 C 0.38235 0.78333 0.15255 0.0
C999 C 0.39427 0.79118 0.17758 0.0
C1000 C 0.3972 0.81932 0.18346 0.0
C1001 C 0.38551 0.83908 0.16614 0.0
C1002 C 0.37947 0.73776 0.2319 0.0
C1003 C 0.40326 0.73909 0.24814 0.0
C1004 C 0.37748 0.75317 0.20771 0.0
C1005 C 0.39903 0.77059 0.19954 0.0
C1006 C 0.42341 0.7707 0.21485 0.0
C1007 C 0.42565 0.75484 0.23873 0.0
H1008 H 0.97981 0.32294 0.47535 0.0
H1009 H 0.01001 0.40613 0.46817 0.0
H1010 H 0.96258 0.33312 0.52131 0.0
H1011 H 0.99257 0.41624 0.51391 0.0
H1012 H 0.97884 0.42419 0.60262 0.0
H1013 H 0.00093 0.40427 0.56241 0.0
H1014 H 0.92563 0.36217 0.54198 0.0
H1015 H 0.90357 0.3819 0.58265 0.0
C1016 C 0.9829 0.34337 0.48357 0.0
C1017 C 0.99629 0.36376 0.46799 0.0
C1018 C 0.97293 0.34916 0.50988 0.0
C1019 C 0.97638 0.37537 0.52131 0.0
C1020 C 0.99001 0.39566 0.50587 0.0
C1021 C -0.00019 0.38995 0.47952 0.0
C1022 C 0.96727 0.40997 0.59001 0.0
C1023 C 0.93943 0.40478 0.59555 0.0
C1024 C 0.97983 0.3988 0.56686 0.0
C1025 C 0.9648 0.38228 0.54866 0.0
C1026 C 0.93772 0.3749 0.55562 0.0
C1027 C 0.92512 0.38605 0.57897 0.0
H1028 H 0.88414 0.65969 0.84816 0.0
H1029 H 0.80522 0.69572 0.82942 0.0
H1030 H 0.90564 0.69035 0.81416 0.0
H1031 H 0.8259 0.72477 0.79552 0.0
H1032 H 0.86311 0.7834 0.74092 0.0
H1033 H 0.85319 0.76224 0.78521 0.0
H1034 H 0.90758 0.69493 0.76522 0.0
H1035 H 0.91876 0.71709 0.7218 0.0
C1036 C 0.87148 0.67421 0.83704 0.0
C1037 C 0.84293 0.67485 0.84118 0.0
C1038 C 0.8837 0.69168 0.81748 0.0
C1039 C 0.86756 0.71017 0.80198 0.0
C1040 C 0.83925 0.71138 0.80722 0.0
C1041 C 0.82723 0.69419 0.82652 0.0
C1042 C 0.87336 0.76439 0.74631 0.0
C1043 C 0.89134 0.7517 0.72774 0.0
C1044 C 0.86761 0.75212 0.77163 0.0
C1045 C 0.87899 0.7264 0.77858 0.0
C1046 C 0.89849 0.71472 0.76076 0.0
C1047 C 0.90476 0.72737 0.73571 0.0
H1048 H 0.54306 0.60118 0.12764 0.0
H1049 H 0.61228 0.63156 0.08165 0.0
H1050 H 0.5117 0.62161 0.09424 0.0
H1051 H 0.58095 0.65231 0.0482 0.0
H1052 H 0.51505 0.6899 0.99343 0.0
H1053 H 0.53998 0.68461 0.0367 0.0
H1054 H 0.50751 0.60262 0.04533 0.0
H1055 H 0.48295 0.60764 0.00193 0.0
C1056 C 0.5515 0.61365 0.11124 0.0
C1057 C 0.58004 0.6152 0.1074 0.0
C1058 C 0.53357 0.62497 0.09189 0.0
C1059 C 0.54388 0.63816 0.0684 0.0
C1060 C 0.5724 0.64238 0.06619 0.0
C1061 C 0.59038 0.63079 0.08548 0.0
C1062 C 0.51269 0.67096 0.00487 0.0
C1063 C 0.49703 0.64912 0.99416 0.0
C1064 C 0.52711 0.66794 0.02957 0.0
C1065 C 0.52569 0.64326 0.0444 0.0
C1066 C 0.50876 0.62203 0.03452 0.0
C1067 C 0.49478 0.62484 0.00958 0.0
H1068 H 0.62761 0.2882 0.36796 0.0
H1069 H 0.62846 0.36843 0.33046 0.0
H1070 H 0.60621 0.2691 0.32678 0.0
H1071 H 0.60773 0.34919 0.28892 0.0
H1072 H 0.63786 0.28796 0.21756 0.0
H1073 H 0.63986 0.31237 0.26125 0.0
H1074 H 0.56516 0.2726 0.28746 0.0
H1075 H 0.56259 0.24856 0.24311 0.0
C1076 C 0.62173 0.30199 0.3515 0.0
C1077 C 0.62948 0.32976 0.35232 0.0
C1078 C 0.60967 0.29104 0.32789 0.0
C1079 C 0.60577 0.30765 0.30466 0.0
C1080 C 0.61064 0.33602 0.30663 0.0
C1081 C 0.62217 0.34709 0.33049 0.0
C1082 C 0.6218 0.28445 0.23257 0.0
C1083 C 0.60019 0.26622 0.22703 0.0
C1084 C 0.62275 0.29869 0.25739 0.0
C1085 C 0.60241 0.29464 0.27744 0.0
C1086 C 0.58086 0.27627 0.27212 0.0
C1087 C 0.57951 0.26248 0.2469 0.0
H1088 H 0.51953 0.51156 0.09596 0.0
H1089 H 0.51991 0.48009 0.17906 0.0
H1090 H 0.47435 0.49155 0.08878 0.0
H1091 H 0.47453 0.46034 0.17186 0.0
H1092 H 0.38866 0.46644 0.08298 0.0
H1093 H 0.42613 0.49361 0.10197 0.0
H1094 H 0.45646 0.42173 0.14433 0.0
H1095 H 0.41834 0.39474 0.12567 0.0
C1096 C 0.50984 0.50078 0.11285 0.0
C1097 C 0.52355 0.4973 0.13798 0.0
C1098 C 0.4838 0.48943 0.10881 0.0
C1099 C 0.47082 0.4743 0.12979 0.0
C1100 C 0.48407 0.47165 0.15524 0.0
C1101 C 0.51007 0.48311 0.15934 0.0
C1102 C 0.40272 0.4568 0.0973 0.0
C1103 C 0.40069 0.4286 0.103 0.0
C1104 C 0.42436 0.47223 0.10787 0.0
C1105 C 0.44463 0.45969 0.1241 0.0
C1106 C 0.44113 0.43203 0.13192 0.0
C1107 C 0.41924 0.41657 0.12143 0.0
H1108 H 0.9986 0.98722 0.80979 0.0
H1109 H 0.02101 0.01246 0.89197 0.0
H1110 H 0.95614 0.01454 0.81337 0.0
H1111 H 0.97938 0.0398 0.89494 0.0
H1112 H 0.92775 0.11385 0.87377 0.0
H1113 H 0.96385 0.08503 0.85392 0.0
H1114 H 0.91198 0.01386 0.86257 0.0
H1115 H 0.87597 0.0427 0.88281 0.0
C1116 C 0.99441 0.99827 0.82863 0.0
C1117 C 0.01325 0.99755 0.85061 0.0
C1118 C 0.97024 0.01394 0.83056 0.0
C1119 C 0.96492 0.02945 0.85425 0.0
C1120 C 0.98328 0.02815 0.87637 0.0
C1121 C 0.00702 0.01227 0.87468 0.0
C1122 C 0.92343 0.09239 0.8698 0.0
C1123 C 0.89897 0.08052 0.87931 0.0
C1124 C 0.94414 0.07588 0.85869 0.0
C1125 C 0.94054 0.04733 0.85676 0.0
C1126 C 0.91499 0.03589 0.86349 0.0
C1127 C 0.89435 0.0524 0.87486 0.0
H1128 H 0.15069 0.66761 0.13389 0.0
H1129 H 0.21735 0.64419 0.18735 0.0
H1130 H 0.17916 0.70429 0.11457 0.0
H1131 H 0.24611 0.67995 0.16756 0.0
H1132 H 0.23985 0.76417 0.07846 0.0
H1133 H 0.21916 0.7199 0.08924 0.0
H1134 H 0.24499 0.72857 0.1737 0.0
H1135 H 0.26614 0.77238 0.16289 0.0
C1136 C 0.17175 0.66968 0.14074 0.0
C1137 C 0.18177 0.65337 0.16226 0.0
C1138 C 0.1881 0.69069 0.12974 0.0
C1139 C 0.21477 0.69544 0.13996 0.0
C1140 C 0.22545 0.67738 0.15976 0.0
C1141 C 0.20906 0.65673 0.17092 0.0
C1142 C 0.24153 0.75643 0.09925 0.0
C1143 C 0.25452 0.77202 0.11987 0.0
C1144 C 0.22949 0.7311 0.10543 0.0
C1145 C 0.23022 0.7207 0.13234 0.0
C1146 C 0.24431 0.73571 0.15264 0.0
C1147 C 0.25637 0.76099 0.14647 0.0
H1148 H 0.47287 0.97466 0.31367 0.0
H1149 H 0.46883 0.00484 0.39708 0.0
H1150 H 0.51917 0.95716 0.32224 0.0
H1151 H 0.51491 0.9874 0.4055 0.0
H1152 H 0.60316 0.97435 0.41083 0.0
H1153 H 0.56324 0.99646 0.39031 0.0
H1154 H 0.54023 0.91966 0.3525 0.0
H1155 H 0.5806 0.89755 0.37293 0.0
C1156 C 0.48189 0.97773 0.33377 0.0
C1157 C 0.46711 0.99114 0.35474 0.0
C1158 C 0.50836 0.96763 0.33863 0.0
C1159 C 0.52074 0.97116 0.3644 0.0
C1160 C 0.50608 0.98481 0.38524 0.0
C1161 C 0.47956 0.99458 0.38051 0.0
C1162 C 0.59018 0.96248 0.39721 0.0
C1163 C 0.59479 0.93425 0.39356 0.0
C1164 C 0.56719 0.97505 0.38572 0.0
C1165 C 0.54827 0.95959 0.37046 0.0
C1166 C 0.55447 0.93204 0.36426 0.0
C1167 C 0.57766 0.91942 0.37575 0.0
H1168 H 0.36957 0.33366 0.62772 0.0
H1169 H 0.29043 0.37304 0.62236 0.0
H1170 H 0.3498 0.2915 0.60887 0.0
H1171 H 0.27084 0.33117 0.60275 0.0
H1172 H 0.25108 0.24557 0.56095 0.0
H1173 H 0.27527 0.28983 0.56326 0.0
H1174 H 0.31082 0.26608 0.64088 0.0
H1175 H 0.28622 0.22248 0.63911 0.0
C1176 C 0.34841 0.33388 0.62082 0.0
C1177 C 0.33152 0.35658 0.62631 0.0
C1178 C 0.33702 0.30965 0.6104 0.0
C1179 C 0.30877 0.3081 0.60475 0.0
C1180 C 0.2927 0.33192 0.60686 0.0
C1181 C 0.30394 0.35594 0.61784 0.0
C1182 C 0.26405 0.24989 0.5785 0.0
C1183 C 0.26658 0.23068 0.59999 0.0
C1184 C 0.27793 0.27508 0.57971 0.0
C1185 C 0.29522 0.28104 0.60198 0.0
C1186 C 0.29797 0.26172 0.62324 0.0
C1187 C 0.28361 0.23695 0.62239 0.0
H1188 H 0.97134 0.54731 0.61299 0.0
H1189 H 0.99534 0.50952 0.68963 0.0
H1190 H 0.01484 0.57198 0.61148 0.0
H1191 H 0.03941 0.53395 0.68771 0.0
H1192 H 0.12236 0.54737 0.63077 0.0
H1193 H 0.07994 0.52979 0.65095 0.0
H1194 H 0.04207 0.60919 0.64023 0.0
H1195 H 0.08475 0.62693 0.62057 0.0
C1196 C 0.98593 0.54426 0.62951 0.0
C1197 C 0.98001 0.52631 0.6513 0.0
C1198 C 0.01067 0.55868 0.62884 0.0
C1199 C 0.03028 0.55515 0.6497 0.0
C1200 C 0.02448 0.53722 0.67155 0.0
C1201 C -0.00063 0.5232 0.67255 0.0
C1202 C 0.10551 0.56147 0.63431 0.0
C1203 C 0.10679 0.58848 0.62421 0.0
C1204 C 0.08117 0.55137 0.64568 0.0
C1205 C 0.05766 0.56803 0.64662 0.0
C1206 C 0.05992 0.59592 0.63951 0.0
C1207 C 0.08446 0.60617 0.62862 0.0
H1208 H 0.71418 0.71941 0.93568 0.0
H1209 H 0.7523 0.72378 0.85559 0.0
H1210 H 0.69583 0.76587 0.92946 0.0
H1211 H 0.73426 0.77016 0.84966 0.0
H1212 H 0.72285 0.85947 0.85519 0.0
H1213 H 0.74212 0.81712 0.87367 0.0
H1214 H 0.66071 0.78917 0.89473 0.0
H1215 H 0.64129 0.83172 0.87598 0.0
C1216 C 0.71872 0.73031 0.91681 0.0
C1217 C 0.73471 0.71793 0.89609 0.0
C1218 C 0.70817 0.75683 0.9133 0.0
C1219 C 0.71391 0.77166 0.88927 0.0
C1220 C 0.72988 0.7593 0.8686 0.0
C1221 C 0.74 0.73267 0.87188 0.0
C1222 C 0.70916 0.84479 0.86481 0.0
C1223 C 0.68058 0.84875 0.86398 0.0
C1224 C 0.72016 0.82046 0.8751 0.0
C1225 C 0.70282 0.79967 0.88494 0.0
C1226 C 0.6745 0.8049 0.88714 0.0
C1227 C 0.6634 0.82935 0.87668 0.0
H1228 H 0.72544 0.24657 0.35903 0.0
H1229 H 0.75656 0.25337 0.44187 0.0
H1230 H 0.74957 0.20304 0.35369 0.0
H1231 H 0.781 0.2099 0.4363 0.0
H1232 H 0.85479 0.16815 0.3832 0.0
H1233 H 0.82236 0.20009 0.40463 0.0
H1234 H 0.75466 0.15401 0.37078 0.0
H1235 H 0.78712 0.12221 0.34952 0.0
C1236 C 0.73684 0.23844 0.37633 0.0
C1237 C 0.73918 0.25354 0.40078 0.0
C1238 C 0.75058 0.21343 0.37334 0.0
C1239 C 0.76728 0.20314 0.39458 0.0
C1240 C 0.76836 0.2174 0.41959 0.0
C1241 C 0.75421 0.24222 0.42278 0.0
C1242 C 0.83298 0.16403 0.38175 0.0
C1243 C 0.82335 0.14265 0.36508 0.0
C1244 C 0.81438 0.18238 0.39381 0.0
C1245 C 0.78599 0.17972 0.389 0.0
C1246 C 0.77641 0.15667 0.37461 0.0
C1247 C 0.79495 0.13831 0.36275 0.0
H1248 H 0.09394 0.48917 0.18578 0.0
H1249 H 0.04251 0.53239 0.2433 0.0
H1250 H 0.0788 0.44533 0.20508 0.0
H1251 H 0.02726 0.48896 0.26262 0.0
H1252 H 0.00475 0.40948 0.29816 0.0
H1253 H 0.00637 0.4436 0.26164 0.0
H1254 H 0.09276 0.42716 0.25025 0.0
H1255 H 0.0911 0.39271 0.28662 0.0
C1256 C 0.078 0.48923 0.20132 0.0
C1257 C 0.06911 0.51414 0.21284 0.0
C1258 C 0.06978 0.46413 0.21281 0.0
C1259 C 0.05229 0.46359 0.23582 0.0
C1260 C 0.04066 0.48848 0.24487 0.0
C1261 C 0.04912 0.51349 0.23358 0.0
C1262 C 0.02402 0.41269 0.28751 0.0
C1263 C 0.04796 0.39865 0.29574 0.0
C1264 C 0.0249 0.43231 0.26654 0.0
C1265 C 0.04973 0.43845 0.25321 0.0
C1266 C 0.07319 0.42284 0.25988 0.0
C1267 C 0.0723 0.40312 0.28089 0.0
H1268 H 0.85387 0.84425 0.54147 0.0
H1269 H 0.82042 0.76805 0.57196 0.0
H1270 H 0.81852 0.84539 0.5058 0.0
H1271 H 0.78599 0.76845 0.53583 0.0
H1272 H 0.75494 0.84433 0.44173 0.0
H1273 H 0.79633 0.82824 0.46531 0.0
H1274 H 0.74562 0.79396 0.52967 0.0
H1275 H 0.70483 0.80953 0.50578 0.0
C1276 C 0.8394 0.82742 0.54011 0.0
C1277 C 0.83958 0.8064 0.55987 0.0
C1278 C 0.8192 0.82791 0.51953 0.0
C1279 C 0.79902 0.80716 0.51805 0.0
C1280 C 0.80066 0.78513 0.53666 0.0
C1281 C 0.82048 0.78488 0.55739 0.0
C1282 C 0.75273 0.83182 0.46002 0.0
C1283 C 0.72669 0.82775 0.47173 0.0
C1284 C 0.77646 0.82318 0.47392 0.0
C1285 C 0.7745 0.8103 0.49978 0.0
C1286 C 0.74819 0.80359 0.50978 0.0
C1287 C 0.72461 0.81226 0.49593 0.0
H1288 H 0.43054 0.45438 0.77197 0.0
H1289 H 0.4168 0.50773 0.70268 0.0
H1290 H 0.44778 0.49273 0.79851 0.0
H1291 H 0.43479 0.54664 0.72911 0.0
H1292 H 0.481 0.56273 0.84398 0.0
H1293 H 0.47931 0.52751 0.80864 0.0
H1294 H 0.41613 0.57325 0.76624 0.0
H1295 H 0.4188 0.60917 0.80117 0.0
C1296 C 0.43256 0.47418 0.76197 0.0
C1297 C 0.42258 0.47802 0.73521 0.0
C1298 C 0.44237 0.49634 0.77725 0.0
C1299 C 0.44237 0.52307 0.7662 0.0
C1300 C 0.43466 0.52646 0.73847 0.0
C1301 C 0.42489 0.50409 0.72309 0.0
C1302 C 0.46698 0.56545 0.82693 0.0
C1303 C 0.44969 0.58856 0.82565 0.0
C1304 C 0.46596 0.54519 0.80663 0.0
C1305 C 0.44726 0.54715 0.78468 0.0
C1306 C 0.431 0.57104 0.78262 0.0
C1307 C 0.43234 0.5916 0.80278 0.0
H1308 H 0.63184 0.19317 0.03697 0.0
H1309 H 0.69653 0.19338 0.09765 0.0
H1310 H 0.66646 0.19273 0.00039 0.0
H1311 H 0.73063 0.19208 0.06171 0.0
H1312 H 0.79216 0.20084 0.99906 0.0
H1313 H 0.75322 0.2161 0.02677 0.0
H1314 H 0.69947 0.16359 0.97958 0.0
H1315 H 0.73823 0.14974 0.95123 0.0
C1316 C 0.65337 0.19295 0.04253 0.0
C1317 C 0.66129 0.19329 0.07032 0.0
C1318 C 0.67327 0.19278 0.02155 0.0
C1319 C 0.70155 0.19281 0.0279 0.0
C1320 C 0.70924 0.19297 0.05575 0.0
C1321 C 0.68951 0.19333 0.07654 0.0
C1322 C 0.77172 0.19397 0.99361 0.0
C1323 C 0.76812 0.1745 0.97274 0.0
C1324 C 0.74942 0.20212 0.00991 0.0
C1325 C 0.7232 0.19037 0.00612 0.0
C1326 C 0.71918 0.17316 0.98326 0.0
C1327 C 0.74142 0.16537 0.96675 0.0
H1328 H 0.56031 0.95559 0.73774 0.0
H1329 H 0.59438 0.00266 0.80444 0.0
H1330 H 0.54462 0.99749 0.71581 0.0
H1331 H 0.57841 0.04517 0.78257 0.0
H1332 H 0.59164 0.10636 0.70736 0.0
H1333 H 0.59464 0.06976 0.7418 0.0
H1334 H 0.51678 0.03754 0.71413 0.0
H1335 H 0.51438 0.07333 0.67935 0.0
C1336 C 0.5632 0.97491 0.74838 0.0
C1337 C 0.57827 0.97583 0.77292 0.0
C1338 C 0.55433 0.99908 0.73574 0.0
C1339 C 0.56052 0.0249 0.74719 0.0
C1340 C 0.5736 0.02569 0.773 0.0
C1341 C 0.58227 0.00133 0.78583 0.0
C1342 C 0.57494 0.09179 0.70911 0.0
C1343 C 0.55306 0.09241 0.69033 0.0
C1344 C 0.57655 0.07084 0.72893 0.0
C1345 C 0.55615 0.05032 0.73049 0.0
C1346 C 0.5332 0.05251 0.71314 0.0
C1347 C 0.53178 0.07311 0.69322 0.0
H1348 H 0.28452 0.29859 0.00481 0.0
H1349 H 0.23623 0.34425 0.06316 0.0
H1350 H 0.24282 0.28326 0.98206 0.0
H1351 H 0.19412 0.32889 0.04054 0.0
H1352 H 0.14196 0.34191 0.95927 0.0
H1353 H 0.17615 0.34412 0.99599 0.0
H1354 H 0.19917 0.26 0.97981 0.0
H1355 H 0.16555 0.25798 0.94297 0.0
C1356 C 0.26486 0.30384 0.01385 0.0
C1357 C 0.26359 0.32218 0.03602 0.0
C1358 C 0.24084 0.29537 0.00061 0.0
C1359 C 0.21503 0.3053 0.00911 0.0
C1360 C 0.21366 0.32122 0.03318 0.0
C1361 C 0.23775 0.32951 0.04656 0.0
C1362 C 0.15391 0.32374 0.96397 0.0
C1363 C 0.15136 0.29999 0.94781 0.0
C1364 C 0.17345 0.32491 0.98513 0.0
C1365 C 0.19071 0.30229 0.99069 0.0
C1366 C 0.18665 0.27795 0.9758 0.0
C1367 C 0.16731 0.27683 0.95465 0.0
H1368 H 0.94399 0.04366 0.23782 0.0
H1369 H 0.9137 0.99149 0.30253 0.0
H1370 H 0.95921 0.00362 0.2123 0.0
H1371 H 0.92927 0.95092 0.27719 0.0
H1372 H 0.91242 0.89406 0.20051 0.0
H1373 H 0.91072 0.92933 0.23626 0.0
H1374 H 0.98656 0.96379 0.20571 0.0
H1375 H 0.98774 0.9293 0.16972 0.0
C1376 C 0.94214 0.02361 0.24733 0.0
C1377 C 0.9282 0.0207 0.27237 0.0
C1378 C 0.9506 0.0005 0.23257 0.0
C1379 C 0.94508 0.97386 0.24242 0.0
C1380 C 0.93345 0.97107 0.26878 0.0
C1381 C 0.92511 0.99432 0.28362 0.0
C1382 C 0.92888 0.90895 0.20171 0.0
C1383 C 0.94986 0.90919 0.1819 0.0
C1384 C 0.92806 0.9291 0.22234 0.0
C1385 C 0.94838 0.94971 0.22375 0.0
C1386 C 0.97025 0.9487 0.20496 0.0
C1387 C 0.9709 0.92885 0.18427 0.0
H1388 H 0.20083 0.67478 0.46559 0.0
H1389 H 0.25114 0.67222 0.5384 0.0
H1390 H 0.23948 0.69124 0.439 0.0
H1391 H 0.2903 0.68955 0.51177 0.0
H1392 H 0.35803 0.67298 0.44445 0.0
H1393 H 0.32054 0.67003 0.47775 0.0
H1394 H 0.27193 0.72479 0.42757 0.0
H1395 H 0.30881 0.72672 0.39395 0.0
C1396 C 0.21999 0.67885 0.47615 0.0
C1397 C 0.22289 0.67229 0.5041 0.0
C1398 C 0.24231 0.68834 0.46086 0.0
C1399 C 0.26832 0.69152 0.47305 0.0
C1400 C 0.27072 0.68695 0.50157 0.0
C1401 C 0.24817 0.67751 0.51699 0.0
C1402 C 0.33946 0.68468 0.44077 0.0
C1403 C 0.33624 0.69967 0.41628 0.0
C1404 C 0.31797 0.68315 0.45997 0.0
C1405 C 0.29289 0.69686 0.45528 0.0
C1406 C 0.29056 0.71336 0.43164 0.0
C1407 C 0.3118 0.71454 0.41234 0.0
H1408 H 0.25291 0.0551 0.53478 0.0
H1409 H 0.19211 0.10256 0.49136 0.0
H1410 H 0.27165 0.03899 0.49129 0.0
H1411 H 0.2111 0.08673 0.44744 0.0
H1412 H 0.30015 0.00872 0.41132 0.0
H1413 H 0.26598 0.01395 0.44741 0.0
H1414 H 0.25667 0.09953 0.42626 0.0
H1415 H 0.29091 0.09437 0.38991 0.0
C1416 C 0.24272 0.06097 0.51588 0.0
C1417 C 0.22084 0.07971 0.51642 0.0
C1418 C 0.25354 0.05191 0.49089 0.0
C1419 C 0.24306 0.06182 0.46583 0.0
C1420 C 0.21973 0.07889 0.46638 0.0
C1421 C 0.20857 0.08758 0.4915 0.0
C1422 C 0.29045 0.02858 0.4139 0.0
C1423 C 0.29874 0.05128 0.39796 0.0
C1424 C 0.27084 0.03153 0.43466 0.0
C1425 C 0.25887 0.05721 0.44 0.0
C1426 C 0.26538 0.07939 0.42259 0.0
C1427 C 0.28511 0.07646 0.40177 0.0
H1428 H 0.16068 0.94947 0.73951 0.0
H1429 H 0.18265 0.01714 0.79203 0.0
H1430 H 0.17754 0.97504 0.69945 0.0
H1431 H 0.19911 0.04277 0.75257 0.0
H1432 H 0.23238 0.08511 0.68074 0.0
H1433 H 0.22998 0.04937 0.71551 0.0
H1434 H 0.15916 0.01473 0.67487 0.0
H1435 H 0.1623 0.05022 0.63927 0.0
C1436 C 0.1704 0.96923 0.74262 0.0
C1437 C 0.17082 0.98121 0.76886 0.0
C1438 C 0.17953 0.98413 0.71965 0.0
C1439 C 0.18939 0.01116 0.72263 0.0
C1440 C 0.19199 0.02197 0.74933 0.0
C1441 C 0.1827 0.00722 0.7721 0.0
C1442 C 0.21647 0.06967 0.67901 0.0
C1443 C 0.19718 0.0708 0.65755 0.0
C1444 C 0.21509 0.04915 0.69899 0.0
C1445 C 0.1941 0.02938 0.69837 0.0
C1446 C 0.17574 0.02949 0.67595 0.0
C1447 C 0.17738 0.04992 0.65562 0.0
H1448 H 0.20462 0.91411 0.88886 0.0
H1449 H 0.16464 0.98236 0.92885 0.0
H1450 H 0.23875 0.91265 0.92583 0.0
H1451 H 0.19902 0.98164 0.96502 0.0
H1452 H 0.30108 0.91711 0.99329 0.0
H1453 H 0.27638 0.93255 0.95214 0.0
H1454 H 0.2056 0.95118 0.0024 0.0
H1455 H 0.23038 0.93613 0.04296 0.0
C1456 C 0.20355 0.92922 0.90515 0.0
C1457 C 0.18164 0.94797 0.90623 0.0
C1458 C 0.22318 0.92852 0.9263 0.0
C1459 C 0.22145 0.94678 0.94875 0.0
C1460 C 0.20067 0.96682 0.94852 0.0
C1461 C 0.18096 0.96726 0.9277 0.0
C1462 C 0.28076 0.9259 0.99555 0.0
C1463 C 0.26779 0.926 0.02133 0.0
C1464 C 0.26639 0.93421 0.97194 0.0
C1465 C 0.23883 0.94286 0.97378 0.0
C1466 C 0.22684 0.94503 3e-05 0.0
C1467 C 0.24109 0.93657 0.02344 0.0
H1468 H 0.34446 0.96043 0.1422 0.0
H1469 H 0.26338 0.93801 0.17 0.0
H1470 H 0.34431 -0.00054 0.17368 0.0
H1471 H 0.26246 0.97762 0.20038 0.0
H1472 H 0.29654 0.01456 0.28207 0.0
H1473 H 0.28264 0.98792 0.24239 0.0
H1474 H 0.32878 0.04243 0.18957 0.0
H1475 H 0.34351 0.0683 0.22988 0.0
C1476 C 0.32633 0.9643 0.15452 0.0
C1477 C 0.3042 0.94588 0.15403 0.0
C1478 C 0.32607 0.98683 0.17249 0.0
C1479 C 0.30344 0.99169 0.19 0.0
C1480 C 0.28053 0.97427 0.18785 0.0
C1481 C 0.28102 0.95156 0.17033 0.0
C1482 C 0.30224 0.02186 0.26181 0.0
C1483 C 0.32086 0.04363 0.25904 0.0
C1484 C 0.29458 0.00633 0.23889 0.0
C1485 C 0.30522 0.01244 0.21263 0.0
C1486 C 0.32082 0.03657 0.2095 0.0
C1487 C 0.32868 0.05191 0.23253 0.0
H1488 H 0.70613 0.41082 0.50386 0.0
H1489 H 0.77774 0.42251 0.4531 0.0
H1490 H 0.7312 0.42941 0.54349 0.0
H1491 H 0.8027 0.44089 0.49217 0.0
H1492 H 0.80382 0.41682 0.60825 0.0
H1493 H 0.76994 0.41072 0.5715 0.0
H1494 H 0.80749 0.4769 0.52589 0.0
H1495 H 0.84141 0.48252 0.56198 0.0
C1496 C 0.72681 0.41848 0.50094 0.0
C1497 C 0.73996 0.41557 0.47541 0.0
C1498 C 0.74131 0.42866 0.52369 0.0
C1499 C 0.76904 0.43643 0.5211 0.0
C1500 C 0.78133 0.43543 0.49495 0.0
C1501 C 0.76702 0.42498 0.47246 0.0
C1502 C 0.80452 0.43029 0.59055 0.0
C1503 C 0.82568 0.44971 0.58777 0.0
C1504 C 0.78502 0.42694 0.56956 0.0
C1505 C 0.78623 0.4431 0.54555 0.0
C1506 C 0.80628 0.46373 0.54379 0.0
C1507 C 0.82578 0.4669 0.56453 0.0
H1508 H 0.80349 0.50253 0.71135 0.0
H1509 H 0.85367 0.44515 0.75629 0.0
H1510 H 0.78719 0.52222 0.75426 0.0
H1511 H 0.83745 0.46489 0.79967 0.0
H1512 H 0.75869 0.55463 0.83349 0.0
H1513 H 0.76367 0.51963 0.7982 0.0
H1514 H 0.84916 0.51011 0.81966 0.0
H1515 H 0.84412 0.54498 0.85536 0.0
C1516 C 0.80981 0.49312 0.73051 0.0
C1517 C 0.82949 0.47207 0.7305 0.0
C1518 C 0.80067 0.50455 0.75521 0.0
C1519 C 0.81135 0.49545 0.78051 0.0
C1520 C 0.82908 0.4726 0.78055 0.0
C1521 C 0.83795 0.4609 0.75574 0.0
C1522 C 0.77849 0.54477 0.83108 0.0
C1523 C 0.80115 0.55305 0.84703 0.0
C1524 C 0.78131 0.52466 0.81077 0.0
C1525 C 0.80688 0.51226 0.80578 0.0
C1526 C 0.82908 0.51905 0.82305 0.0
C1527 C 0.82625 0.53919 0.84347 0.0
H1528 H 0.68485 0.5123 0.07356 0.0
H1529 H 0.71034 0.59029 0.10691 0.0
H1530 H 0.72355 0.51281 0.042 0.0
H1531 H 0.74838 0.59169 0.07432 0.0
H1532 H 0.81725 0.59245 0.01757 0.0
H1533 H 0.79048 0.57666 0.0569 0.0
H1534 H 0.73533 0.53458 0.00151 0.0
H1535 H 0.763 0.54931 0.9628 0.0
C1536 C 0.6988 0.52963 0.07414 0.0
C1537 C 0.69429 0.55146 0.09252 0.0
C1538 C 0.72102 0.52997 0.05591 0.0
C1539 C 0.73916 0.55243 0.05511 0.0
C1540 C 0.73526 0.57376 0.07439 0.0
C1541 C 0.71325 0.57315 0.09303 0.0
C1542 C 0.80047 0.57826 0.01409 0.0
C1543 C 0.79247 0.57175 0.98714 0.0
C1544 C 0.78458 0.56984 0.03658 0.0
C1545 C 0.76005 0.55507 0.03256 0.0
C1546 C 0.75401 0.54583 0.00576 0.0
C1547 C 0.77016 0.55395 0.98336 0.0
H1548 H 0.73551 0.40523 0.31462 0.0
H1549 H 0.6732 0.4502 0.35874 0.0
H1550 H 0.73588 0.44026 0.27899 0.0
H1551 H 0.67237 0.48471 0.32232 0.0
H1552 H 0.67454 0.54694 0.25611 0.0
H1553 H 0.69115 0.52086 0.29586 0.0
H1554 H 0.70736 0.45155 0.24276 0.0
H1555 H 0.69174 0.47792 0.2036 0.0
C1556 C 0.72189 0.42271 0.31673 0.0
C1557 C 0.70404 0.42472 0.33935 0.0
C1558 C 0.72201 0.44282 0.29618 0.0
C1559 C 0.70382 0.46528 0.29728 0.0
C1560 C 0.68692 0.46798 0.3207 0.0
C1561 C 0.68721 0.44805 0.34159 0.0
C1562 C 0.6832 0.5267 0.25288 0.0
C1563 C 0.68233 0.51461 0.22671 0.0
C1564 C 0.69211 0.51144 0.27574 0.0
C1565 C 0.70017 0.48375 0.27284 0.0
C1566 C 0.70167 0.47277 0.24611 0.0
C1567 C 0.69286 0.48799 0.22342 0.0
H1568 H 0.49235 0.19689 0.09372 0.0
H1569 H 0.54001 0.25871 0.05205 0.0
H1570 H 0.44994 0.21941 0.07859 0.0
H1571 H 0.49816 0.28133 0.03713 0.0
H1572 H 0.42125 0.31909 0.00972 0.0
H1573 H 0.4562 0.28352 0.01219 0.0
H1574 H 0.42859 0.26212 0.09379 0.0
H1575 H 0.3929 0.29739 0.09093 0.0
C1576 C 0.49374 0.21442 0.08007 0.0
C1577 C 0.51945 0.22586 0.0737 0.0
C1578 C 0.46946 0.22769 0.07189 0.0
C1579 C 0.47051 0.2525 0.05701 0.0
C1580 C 0.49634 0.26221 0.04835 0.0
C1581 C 0.52047 0.24912 0.05671 0.0
C1582 C 0.42232 0.30653 0.02807 0.0
C1583 C 0.40453 0.31143 0.05034 0.0
C1584 C 0.44244 0.28611 0.02949 0.0
C1585 C 0.44562 0.27015 0.05334 0.0
C1586 C 0.42668 0.27383 0.07497 0.0
C1587 C 0.40627 0.29418 0.07343 0.0
H1588 H 0.98339 0.31315 0.91012 0.0
H1589 H 0.03758 0.25592 0.95017 0.0
H1590 H 0.94375 0.2865 0.9254 0.0
H1591 H 0.99855 0.22856 0.9645 0.0
H1592 H 0.92619 0.17867 0.98599 0.0
H1593 H 0.95802 0.21712 0.98671 0.0
H1594 H 0.92576 0.24499 0.90877 0.0
H1595 H 0.89299 0.20715 0.90889 0.0
C1596 C 0.98672 0.29573 0.92359 0.0
C1597 C 0.01354 0.28687 0.92937 0.0
C1598 C 0.96403 0.27995 0.93171 0.0
C1599 C 0.96777 0.25477 0.94551 0.0
C1600 C 0.99454 0.24777 0.95405 0.0
C1601 C 0.01711 0.2637 0.94614 0.0
C1602 C 0.92566 0.19323 0.96916 0.0
C1603 C 0.90728 0.1896 0.94716 0.0
C1604 C 0.94403 0.21531 0.96953 0.0
C1605 C 0.94494 0.2342 0.94766 0.0
C1606 C 0.9256 0.23124 0.92625 0.0
C1607 C 0.90686 0.20935 0.92613 0.0
H1608 H 0.00695 0.79156 0.19695 0.0
H1609 H 0.94464 0.74129 0.15951 0.0
H1610 H 0.03026 0.75071 0.21357 0.0
H1611 H 0.96779 0.69993 0.17635 0.0
H1612 H 0.04555 0.6429 0.16433 0.0
H1613 H 0.01024 0.6785 0.16069 0.0
H1614 H 0.03364 0.70984 0.24031 0.0
H1615 H 0.06919 0.67497 0.24354 0.0
C1616 C 0.99733 0.77175 0.19377 0.0
C1617 C 0.97374 0.76963 0.17741 0.0
C1618 C 0.01086 0.74818 0.20303 0.0
C1619 C 0.00122 0.72186 0.19589 0.0
C1620 C 0.97604 0.71983 0.18184 0.0
C1621 C 0.96239 0.74353 0.17274 0.0
C1622 C 0.04282 0.65713 0.18121 0.0
C1623 C 0.06058 0.65641 0.20393 0.0
C1624 C 0.02244 0.67747 0.17925 0.0
C1625 C 0.01924 0.69734 0.2001 0.0
C1626 C 0.03584 0.69532 0.22361 0.0
C1627 C 0.05627 0.67526 0.22543 0.0
H1628 H 0.4509 0.77489 0.41821 0.0
H1629 H 0.50184 0.70338 0.40674 0.0
H1630 H 0.4897 0.79979 0.43723 0.0
H1631 H 0.54119 0.72839 0.42596 0.0
H1632 H 0.55938 0.83864 0.47923 0.0
H1633 H 0.52331 0.8047 0.47346 0.0
H1634 H 0.56913 0.76712 0.40746 0.0
H1635 H 0.60577 0.80099 0.41361 0.0
C1636 C 0.47023 0.76417 0.42084 0.0
C1637 C 0.47331 0.73717 0.41129 0.0
C1638 C 0.49256 0.77844 0.43167 0.0
C1639 C 0.5187 0.76619 0.43291 0.0
C1640 C 0.5214 0.73849 0.42504 0.0
C1641 C 0.4988 0.72402 0.41448 0.0
C1642 C 0.56201 0.82297 0.46366 0.0
C1643 C 0.5853 0.82288 0.44652 0.0
C1644 C 0.54127 0.80348 0.46038 0.0
C1645 C 0.54309 0.7834 0.43976 0.0
C1646 C 0.56713 0.78219 0.42369 0.0
C1647 C 0.58808 0.80171 0.42709 0.0
H1648 H 0.4754 0.20495 0.6833 0.0
H1649 H 0.54702 0.25577 0.67296 0.0
H1650 H 0.44932 0.24424 0.69905 0.0
H1651 H 0.5211 0.29564 0.68961 0.0
H1652 H 0.45277 0.36101 0.67012 0.0
H1653 H 0.4864 0.32376 0.66943 0.0
H1654 H 0.43821 0.27938 0.7294 0.0
H1655 H 0.40415 0.3159 0.72893 0.0
C1656 C 0.48595 0.22438 0.68586 0.0
C1657 C 0.51329 0.22724 0.67725 0.0
C1658 C 0.47094 0.24711 0.6948 0.0
C1659 C 0.48287 0.27344 0.6953 0.0
C1660 C 0.51106 0.27582 0.68904 0.0
C1661 C 0.52614 0.25289 0.68007 0.0
C1662 C 0.4496 0.34342 0.68337 0.0
C1663 C 0.42554 0.34116 0.69914 0.0
C1664 C 0.46901 0.32209 0.68319 0.0
C1665 C 0.46498 0.2982 0.69911 0.0
C1666 C 0.44177 0.297 0.7163 0.0
C1667 C 0.42221 0.31802 0.71609 0.0
H1668 H 0.95285 0.7432 0.54614 0.0
H1669 H 0.00747 0.79823 0.58853 0.0
H1670 H 0.992 0.71583 0.53099 0.0
H1671 H 0.04665 0.77024 0.57482 0.0
H1672 H 0.11463 0.71232 0.54662 0.0
H1673 H 0.07862 0.7475 0.54514 0.0
H1674 H 0.01727 0.68464 0.5577 0.0
H1675 H 0.05262 0.64997 0.55841 0.0
C1676 C 0.97339 0.75019 0.55103 0.0
C1677 C 0.97717 0.77304 0.56812 0.0
C1678 C 0.99586 0.73416 0.54295 0.0
C1679 C 0.02253 0.74019 0.55247 0.0
C1680 C 0.02655 0.76484 0.56704 0.0
C1681 C 0.00406 0.78113 0.5747 0.0
C1682 C 0.09341 0.70608 0.54891 0.0
C1683 C 0.08666 0.67822 0.55266 0.0
C1684 C 0.07273 0.72626 0.54804 0.0
C1685 C 0.04483 0.71904 0.5509 0.0
C1686 C 0.03829 0.69113 0.55455 0.0
C1687 C 0.05878 0.67112 0.55532 0.0
H1688 H 0.51062 0.70108 0.80966 0.0
H1689 H 0.46048 0.75798 0.85513 0.0
H1690 H 0.5378 0.73915 0.79169 0.0
H1691 H 0.48854 0.79605 0.83889 0.0
H1692 H 0.54404 0.86245 0.80501 0.0
H1693 H 0.50862 0.82692 0.80783 0.0
H1694 H 0.57193 0.76478 0.81239 0.0
H1695 H 0.60676 0.7998 0.80841 0.0
C1696 C 0.50478 0.7219 0.8149 0.0
C1697 C 0.48324 0.72669 0.83338 0.0
C1698 C 0.52072 0.74375 0.80515 0.0
C1699 C 0.51607 0.77078 0.8145 0.0
C1700 C 0.49285 0.7757 0.83106 0.0
C1701 C 0.47655 0.75386 0.84029 0.0
C1702 C 0.55028 0.84114 0.80644 0.0
C1703 C 0.57829 0.83405 0.80649 0.0
C1704 C 0.52997 0.82072 0.80808 0.0
C1705 C 0.53719 0.79274 0.8101 0.0
C1706 C 0.56527 0.78586 0.81003 0.0
C1707 C 0.58543 0.80612 0.80807 0.0
H1708 H 0.9297 0.17708 0.26484 0.0
H1709 H 0.95448 0.14241 0.34258 0.0
H1710 H 0.96816 0.20885 0.26644 0.0
H1711 H 0.99225 0.17511 0.34502 0.0
H1712 H 0.00932 0.28688 0.30328 0.0
H1713 H 0.98018 0.24895 0.28911 0.0
H1714 H 0.03453 0.19195 0.33025 0.0
H1715 H 0.06267 0.23044 0.34558 0.0
C1716 C 0.94342 0.17625 0.28233 0.0
C1717 C 0.93883 0.15738 0.30376 0.0
C1718 C 0.96549 0.19461 0.2833 0.0
C1719 C 0.98339 0.19498 0.30597 0.0
C1720 C 0.97933 0.17533 0.32695 0.0
C1721 C 0.95747 0.15662 0.32572 0.0
C1722 C 0.01578 0.26611 0.30801 0.0
C1723 C 0.03845 0.26155 0.32516 0.0
C1724 C 0.99888 0.24421 0.30014 0.0
C1725 C 0.00449 0.21719 0.30905 0.0
C1726 C 0.029 0.21246 0.32365 0.0
C1727 C 0.04559 0.23443 0.33188 0.0
H1728 H 0.12889 0.27026 0.40093 0.0
H1729 H 0.07799 0.29387 0.46974 0.0
H1730 H 0.15423 0.23871 0.43072 0.0
H1731 H 0.10355 0.26302 0.49944 0.0
H1732 H 0.12828 0.18097 0.53502 0.0
H1733 H 0.10625 0.2137 0.5044 0.0
H1734 H 0.18521 0.23519 0.47007 0.0
H1735 H 0.20729 0.20197 0.50025 0.0
C1736 C 0.12349 0.26913 0.42249 0.0
C1737 C 0.10126 0.28426 0.43292 0.0
C1738 C 0.13797 0.25107 0.43954 0.0
C1739 C 0.13052 0.24801 0.46731 0.0
C1740 C 0.10928 0.26433 0.47797 0.0
C1741 C 0.09477 0.28216 0.46098 0.0
C1742 C 0.14098 0.19256 0.5209 0.0
C1743 C 0.16957 0.18887 0.52021 0.0
C1744 C 0.12837 0.21148 0.50347 0.0
C1745 C 0.14405 0.22727 0.48503 0.0
C1746 C 0.17256 0.22322 0.48392 0.0
C1747 C 0.18519 0.20422 0.50131 0.0
H1748 H 0.07188 0.938 0.73336 0.0
H1749 H 0.0709 0.86872 0.78884 0.0
H1750 H 0.04403 0.91246 0.70076 0.0
H1751 H 0.04203 0.84347 0.75671 0.0
H1752 H 0.00488 0.79766 0.68496 0.0
H1753 H 0.03865 0.82123 0.71331 0.0
H1754 H 0.99767 0.89844 0.69755 0.0
H1755 H 0.96463 0.87507 0.66847 0.0
C1756 C 0.06571 0.91726 0.73855 0.0
C1757 C 0.07336 0.90542 0.76373 0.0
C1758 C 0.04961 0.90268 0.71995 0.0
C1759 C 0.04043 0.87605 0.72626 0.0
C1760 C 0.04894 0.86383 0.75104 0.0
C1761 C 0.06541 0.87832 0.76952 0.0
C1762 C 0.00319 0.8197 0.68746 0.0
C1763 C 0.98206 0.8345 0.67448 0.0
C1764 C 0.02248 0.83319 0.7038 0.0
C1765 C 0.0209 0.86174 0.70774 0.0
C1766 C -0.00013 0.87652 0.69455 0.0
C1767 C 0.98078 0.86309 0.67798 0.0
H1768 H 0.44525 0.74931 0.95412 0.0
H1769 H 0.37099 0.7221 0.91376 0.0
H1770 H 0.41864 0.78073 0.98204 0.0
H1771 H 0.34437 0.75443 0.94122 0.0
H1772 H 0.36743 0.84995 0.01466 0.0
H1773 H 0.39229 0.82184 0.98166 0.0
H1774 H 0.32977 0.75917 0.988 0.0
H1775 H 0.30442 0.78767 0.02025 0.0
C1776 C 0.42327 0.75034 0.95085 0.0
C1777 C 0.41025 0.73304 0.93177 0.0
C1778 C 0.408 0.76853 0.9668 0.0
C1779 C 0.37935 0.77009 0.96392 0.0
C1780 C 0.36637 0.7534 0.94425 0.0
C1781 C 0.38165 0.73499 0.9284 0.0
C1782 C 0.35894 0.83021 0.00894 0.0
C1783 C 0.33403 0.82097 0.02021 0.0
C1784 C 0.37323 0.81406 0.99007 0.0
C1785 C 0.3631 0.78819 0.98228 0.0
C1786 C 0.33796 0.77916 0.99322 0.0
C1787 C 0.32352 0.79543 0.01188 0.0
H1788 H 0.54632 0.13447 0.18891 0.0
H1789 H 0.4886 0.20171 0.1835 0.0
H1790 H 0.51647 0.11127 0.2212 0.0
H1791 H 0.4579 0.17774 0.21529 0.0
H1792 H 0.42183 0.13553 0.29299 0.0
H1793 H 0.45184 0.16219 0.26251 0.0
H1794 H 0.47437 0.08761 0.21996 0.0
H1795 H 0.44569 0.06127 0.25058 0.0
C1796 C 0.52702 0.14415 0.19431 0.0
C1797 C 0.51967 0.16978 0.18334 0.0
C1798 C 0.50984 0.13079 0.21285 0.0
C1799 C 0.48459 0.14245 0.2206 0.0
C1800 C 0.4773 0.16829 0.20991 0.0
C1801 C 0.49476 0.1819 0.19154 0.0
C1802 C 0.43336 0.12495 0.27719 0.0
C1803 C 0.4317 0.09626 0.27452 0.0
C1804 C 0.45039 0.14019 0.25963 0.0
C1805 C 0.4658 0.12698 0.23901 0.0
C1806 C 0.46348 0.09841 0.23608 0.0
C1807 C 0.44687 0.08327 0.25367 0.0
H1808 H 0.55343 0.23431 0.53991 0.0
H1809 H 0.61709 0.2373 0.60166 0.0
H1810 H 0.57862 0.26715 0.51211 0.0
H1811 H 0.64185 0.27113 0.57431 0.0
H1812 H 0.69446 0.2995 0.50181 0.0
H1813 H 0.66788 0.27215 0.53356 0.0
H1814 H 0.59373 0.31319 0.50704 0.0
H1815 H 0.62043 0.34003 0.47414 0.0
C1816 C 0.57265 0.24229 0.54775 0.0
C1817 C 0.58338 0.233 0.57291 0.0
C1818 C 0.58701 0.26134 0.53187 0.0
C1819 C 0.61232 0.27183 0.5409 0.0
C1820 C 0.62266 0.26312 0.56647 0.0
C1821 C 0.60845 0.24377 0.5822 0.0
C1822 C 0.67252 0.30299 0.50284 0.0
C1823 C 0.65957 0.32189 0.48521 0.0
C1824 C 0.65724 0.28735 0.5213 0.0
C1825 C 0.62861 0.29036 0.52289 0.0
C1826 C 0.61572 0.31 0.50601 0.0
C1827 C 0.63102 0.32553 0.48727 0.0
H1828 H 0.94566 0.38765 0.7011 0.0
H1829 H 0.94081 0.45536 0.75835 0.0
H1830 H 0.97579 0.3633 0.73236 0.0
H1831 H 0.9706 0.43041 0.79017 0.0
H1832 H 0.04619 0.38509 0.8276 0.0
H1833 H 0.01767 0.41277 0.7967 0.0
H1834 H 0.97074 0.34049 0.7757 0.0
H1835 H -0.00071 0.313 0.80561 0.0
C1836 C 0.95084 0.39729 0.72047 0.0
C1837 C 0.94056 0.42334 0.72735 0.0
C1838 C 0.96809 0.38327 0.73844 0.0
C1839 C 0.97531 0.39478 0.76389 0.0
C1840 C 0.96553 0.42109 0.77062 0.0
C1841 C 0.94835 0.43528 0.75248 0.0
C1842 C 0.02975 0.37521 0.81636 0.0
C1843 C 0.02526 0.3468 0.8188 0.0
C1844 C 0.01337 0.39106 0.79878 0.0
C1845 C 0.9922 0.37873 0.78349 0.0
C1846 C 0.98732 0.3505 0.78662 0.0
C1847 C 0.00369 0.33474 0.8039 0.0
H1848 H 0.8788 0.77616 0.08305 0.0
H1849 H 0.95503 0.75758 0.04137 0.0
H1850 H 0.85431 0.74651 0.05119 0.0
H1851 H 0.93037 0.72856 0.0091 0.0
H1852 H 0.81453 0.71793 0.97275 0.0
H1853 H 0.841 0.74674 0.00361 0.0
H1854 H 0.90548 0.68576 0.00541 0.0
H1855 H 0.87922 0.65709 0.97382 0.0
C1856 C 0.89034 0.7658 0.06709 0.0
C1857 C 0.91887 0.76933 0.06476 0.0
C1858 C 0.87627 0.74894 0.04871 0.0
C1859 C 0.89037 0.73537 0.02745 0.0
C1860 C 0.91895 0.73851 0.02539 0.0
C1861 C 0.93306 0.75525 0.04387 0.0
C1862 C 0.83444 0.71069 0.97956 0.0
C1863 C 0.8447 0.68512 0.97096 0.0
C1864 C 0.84952 0.72714 0.99744 0.0
C1865 C 0.87515 0.71836 0.0073 0.0
C1866 C 0.88585 0.69317 0.99805 0.0
C1867 C 0.8708 0.67674 0.97997 0.0
H1868 H 0.47314 0.61778 0.33609 0.0
H1869 H 0.5014 0.69142 0.29527 0.0
H1870 H 0.5065 0.59082 0.31012 0.0
H1871 H 0.53367 0.66456 0.26876 0.0
H1872 H 0.60295 0.61388 0.2365 0.0
H1873 H 0.57452 0.63881 0.26924 0.0
H1874 H 0.51309 0.5749 0.26451 0.0
H1875 H 0.54203 0.54951 0.23273 0.0
C1876 C 0.48649 0.62823 0.32168 0.0
C1877 C 0.48451 0.65676 0.31777 0.0
C1878 C 0.5055 0.61276 0.30666 0.0
C1879 C 0.52276 0.62546 0.28722 0.0
C1880 C 0.52114 0.65407 0.28384 0.0
C1881 C 0.5024 0.66951 0.299 0.0
C1882 C 0.58344 0.6051 0.24259 0.0
C1883 C 0.57469 0.57981 0.23188 0.0
C1884 C 0.56707 0.61943 0.2613 0.0
C1885 C 0.54137 0.609 0.26942 0.0
C1886 C 0.53291 0.5834 0.2591 0.0
C1887 C 0.54944 0.56891 0.24068 0.0
H1888 H 0.29179 0.4277 0.12848 0.0
H1889 H 0.24466 0.44517 0.05526 0.0
H1890 H 0.26225 0.45846 0.15469 0.0
H1891 H 0.21474 0.47514 0.08157 0.0
H1892 H 0.18629 0.49164 0.19842 0.0
H1893 H 0.21647 0.46169 0.17231 0.0
H1894 H 0.21416 0.51866 0.10422 0.0
H1895 H 0.18321 0.54829 0.13006 0.0
C1896 C 0.27503 0.43792 0.11801 0.0
C1897 C 0.27065 0.43399 0.08976 0.0
C1898 C 0.25802 0.45548 0.13306 0.0
C1899 C 0.23613 0.46932 0.12023 0.0
C1900 C 0.23169 0.46523 0.09201 0.0
C1901 C 0.24879 0.44787 0.07695 0.0
C1902 C 0.19222 0.49784 0.17788 0.0
C1903 C 0.18226 0.52237 0.16631 0.0
C1904 C 0.20969 0.4807 0.16297 0.0
C1905 C 0.2178 0.48776 0.13619 0.0
C1906 C 0.20798 0.51239 0.12466 0.0
C1907 C 0.19032 0.52944 0.13951 0.0
H1908 H 0.76877 0.03713 0.93953 0.0
H1909 H 0.76938 0.09666 0.8736 0.0
H1910 H 0.73708 0.00876 0.91376 0.0
H1911 H 0.7367 0.06855 0.84806 0.0
H1912 H 0.70448 0.99426 0.79868 0.0
H1913 H 0.73387 0.02605 0.82361 0.0
H1914 H 0.69081 0.00673 0.89887 0.0
H1915 H 0.66216 0.97419 0.87412 0.0
C1916 C 0.7619 0.04433 0.91962 0.0
C1917 C 0.77159 0.06918 0.90862 0.0
C1918 C 0.74354 0.02812 0.9049 0.0
C1919 C 0.73413 0.03647 0.87892 0.0
C1920 C 0.74376 0.06138 0.8679 0.0
C1921 C 0.76241 0.07753 0.88255 0.0
C1922 C 0.70113 0.997 0.82051 0.0
C1923 C 0.68119 0.98152 0.8345 0.0
C1924 C 0.71791 0.01533 0.83479 0.0
C1925 C 0.71489 0.01876 0.8633 0.0
C1926 C 0.69413 0.0041 0.87703 0.0
C1927 C 0.6776 0.98555 0.86283 0.0
H1928 H 0.84444 0.01819 0.37078 0.0
H1929 H 0.78878 0.01533 0.30166 0.0
H1930 H 0.81416 0.98768 0.39638 0.0
H1931 H 0.75812 0.98571 0.32755 0.0
H1932 H 0.71964 0.91398 0.37272 0.0
H1933 H 0.75263 0.94083 0.34633 0.0
H1934 H 0.77051 0.98946 0.41841 0.0
H1935 H 0.73835 0.9621 0.44494 0.0
C1936 C 0.82573 0.0111 0.36107 0.0
C1937 C 0.81901 0.01924 0.33421 0.0
C1938 C 0.8083 0.99373 0.37579 0.0
C1939 C 0.78362 0.98437 0.36407 0.0
C1940 C 0.77714 0.99219 0.33706 0.0
C1941 C 0.79469 0.00932 0.32226 0.0
C1942 C 0.73065 0.93039 0.38291 0.0
C1943 C 0.72638 0.93589 0.41092 0.0
C1944 C 0.74949 0.94584 0.36777 0.0
C1945 C 0.76426 0.96728 0.38026 0.0
C1946 C 0.75991 0.97276 0.40826 0.0
C1947 C 0.7413 0.95717 0.42344 0.0
H1948 H 0.32549 0.46572 0.62034 0.0
H1949 H 0.32019 0.51727 0.69236 0.0
H1950 H 0.29814 0.49868 0.59467 0.0
H1951 H 0.29382 0.5509 0.66637 0.0
H1952 H 0.21615 0.58297 0.62391 0.0
H1953 H 0.24905 0.5551 0.64885 0.0
H1954 H 0.29516 0.54243 0.57398 0.0
H1955 H 0.26144 0.56948 0.54874 0.0
C1956 C 0.31894 0.48437 0.63054 0.0
C1957 C 0.32477 0.48875 0.65846 0.0
C1958 C 0.30337 0.5034 0.61576 0.0
C1959 C 0.29356 0.52745 0.62845 0.0
C1960 C 0.30048 0.53234 0.65608 0.0
C1961 C 0.31572 0.51313 0.67096 0.0
C1962 C 0.23347 0.57452 0.61278 0.0
C1963 C 0.23604 0.5783 0.58427 0.0
C1964 C 0.25249 0.55862 0.62715 0.0
C1965 C 0.27479 0.54636 0.61346 0.0
C1966 C 0.27797 0.55109 0.58511 0.0
C1967 C 0.25872 0.56674 0.57065 0.0
loop_
_geom_bond_atom_site_label_1
_geom_bond_atom_site_label_2
_geom_bond_distance
_geom_bond_site_symmetry_2
_ccdc_geom_bond_type
Sc0 O3 2.025 . S
Sc0 O10 2.105 1_455 S
Sc0 O13 2.105 . S
Sc0 O16 2.105 . S
Sc0 O19 2.105 . S
Sc1 O3 2.025 . S
Sc1 O11 2.105 . S
Sc1 O15 2.105 . S
Sc1 O17 2.105 . S
Sc1 O21 2.105 . S
Sc2 O3 2.025 . S
Sc2 O12 2.105 . S
Sc2 O14 2.105 . S
Sc2 O18 2.105 . S
Sc2 O20 2.105 1_455 S
O3 Sc0 2.025 . S
O3 Sc1 2.025 . S
O3 Sc2 2.025 . S
C4 O10 1.268 . S
C4 O20 1.268 . S
C5 O11 1.268 . S
C5 O19 1.268 . S
C6 O12 1.268 . S
C6 O21 1.268 . S
C7 O13 1.268 . S
C7 O17 1.268 . S
C8 O14 1.268 . S
C8 O16 1.268 . S
C9 O15 1.268 . S
C9 O18 1.268 . S
O10 Sc0 2.105 1_655 S
O10 C4 1.268 . S
O11 Sc1 2.105 . S
O11 C5 1.268 . S
O12 Sc2 2.105 . S
O12 C6 1.268 . S
O13 Sc0 2.105 . S
O13 C7 1.268 . S
O14 Sc2 2.105 . S
O14 C8 1.268 . S
O15 Sc1 2.105 . S
O15 C9 1.268 . S
O16 Sc0 2.105 . S
O16 C8 1.268 . S
O17 Sc1 2.105 . S
O17 C7 1.268 . S
O18 Sc2 2.105 . S
O18 C9 1.268 . S
O19 Sc0 2.105 . S
O19 C5 1.268 . S
O20 Sc2 2.105 1_655 S
O20 C4 1.268 . S
O21 Sc1 2.105 . S
O21 C6 1.268 . S
Sc22 O25 2.025 . S
Sc22 O32 2.105 . S
Sc22 O35 2.105 . S
Sc22 O38 2.105 . S
Sc22 O41 2.105 . S
Sc23 O25 2.025 . S
Sc23 O33 2.105 . S
Sc23 O37 2.105 . S
Sc23 O39 2.105 . S
Sc23 O43 2.105 . S
Sc24 O25 2.025 . S
Sc24 O34 2.105 . S
Sc24 O36 2.105 . S
Sc24 O40 2.105 . S
Sc24 O42 2.105 . S
O25 Sc22 2.025 . S
O25 Sc23 2.025 . S
O25 Sc24 2.025 . S
C26 O32 1.268 . S
C26 O42 1.268 . S
C27 O33 1.268 . S
C27 O41 1.268 . S
C28 O34 1.268 . S
C28 O43 1.268 . S
C29 O35 1.268 . S
C29 O39 1.268 . S
C30 O36 1.268 . S
C30 O38 1.268 . S
C31 O37 1.268 . S
C31 O40 1.268 . S
O32 Sc22 2.105 . S
O32 C26 1.268 . S
O33 Sc23 2.105 . S
O33 C27 1.268 . S
O34 Sc24 2.105 . S
O34 C28 1.268 . S
O35 Sc22 2.105 . S
O35 C29 1.268 . S
O36 Sc24 2.105 . S
O36 C30 1.268 . S
O37 Sc23 2.105 . S
O37 C31 1.268 . S
O38 Sc22 2.105 . S
O38 C30 1.268 . S
O39 Sc23 2.105 . S
O39 C29 1.268 . S
O40 Sc24 2.105 . S
O40 C31 1.268 . S
O41 Sc22 2.105 . S
O41 C27 1.268 . S
O42 Sc24 2.105 . S
O42 C26 1.268 . S
O43 Sc23 2.105 . S
O43 C28 1.268 . S
Sc44 O47 2.025 . S
Sc44 O54 2.105 . S
Sc44 O57 2.105 . S
Sc44 O60 2.105 . S
Sc44 O63 2.105 . S
Sc45 O47 2.025 . S
Sc45 O55 2.105 . S
Sc45 O59 2.105 . S
Sc45 O61 2.105 . S
Sc45 O65 2.105 . S
Sc46 O47 2.025 . S
Sc46 O56 2.105 . S
Sc46 O58 2.105 . S
Sc46 O62 2.105 . S
Sc46 O64 2.105 . S
O47 Sc44 2.025 . S
O47 Sc45 2.025 . S
O47 Sc46 2.025 . S
C48 O54 1.268 . S
C48 O64 1.268 . S
C49 O55 1.268 . S
C49 O63 1.268 . S
C50 O56 1.268 . S
C50 O65 1.268 . S
C51 O57 1.268 . S
C51 O61 1.268 . S
C52 O58 1.268 . S
C52 O60 1.268 . S
C53 O59 1.268 . S
C53 O62 1.268 . S
O54 Sc44 2.105 . S
O54 C48 1.268 . S
O55 Sc45 2.105 . S
O55 C49 1.268 . S
O56 Sc46 2.105 . S
O56 C50 1.268 . S
O57 Sc44 2.105 . S
O57 C51 1.268 . S
O58 Sc46 2.105 . S
O58 C52 1.268 . S
O59 Sc45 2.105 . S
O59 C53 1.268 . S
O60 Sc44 2.105 . S
O60 C52 1.268 . S
O61 Sc45 2.105 . S
O61 C51 1.268 . S
O62 Sc46 2.105 . S
O62 C53 1.268 . S
O63 Sc44 2.105 . S
O63 C49 1.268 . S
O64 Sc46 2.105 . S
O64 C48 1.268 . S
O65 Sc45 2.105 . S
O65 C50 1.268 . S
Sc66 O69 2.025 . S
Sc66 O76 2.105 . S
Sc66 O79 2.105 . S
Sc66 O82 2.105 . S
Sc66 O85 2.105 . S
Sc67 O69 2.025 . S
Sc67 O77 2.105 . S
Sc67 O81 2.105 . S
Sc67 O83 2.105 . S
Sc67 O87 2.105 . S
Sc68 O69 2.025 . S
Sc68 O78 2.105 . S
Sc68 O80 2.105 . S
Sc68 O84 2.105 . S
Sc68 O86 2.105 . S
O69 Sc66 2.025 . S
O69 Sc67 2.025 . S
O69 Sc68 2.025 . S
C70 O76 1.268 . S
C70 O86 1.268 . S
C71 O77 1.268 . S
C71 O85 1.268 . S
C72 O78 1.268 . S
C72 O87 1.268 . S
C73 O79 1.268 . S
C73 O83 1.268 . S
C74 O80 1.268 . S
C74 O82 1.268 . S
C75 O81 1.268 . S
C75 O84 1.268 . S
O76 Sc66 2.105 . S
O76 C70 1.268 . S
O77 Sc67 2.105 . S
O77 C71 1.268 . S
O78 Sc68 2.105 . S
O78 C72 1.268 . S
O79 Sc66 2.105 . S
O79 C73 1.268 . S
O80 Sc68 2.105 . S
O80 C74 1.268 . S
O81 Sc67 2.105 . S
O81 C75 1.268 . S
O82 Sc66 2.105 . S
O82 C74 1.268 . S
O83 Sc67 2.105 . S
O83 C73 1.268 . S
O84 Sc68 2.105 . S
O84 C75 1.268 . S
O85 Sc66 2.105 . S
O85 C71 1.268 . S
O86 Sc68 2.105 . S
O86 C70 1.268 . S
O87 Sc67 2.105 . S
O87 C72 1.268 . S
Sc88 O91 2.025 . S
Sc88 O98 2.105 . S
Sc88 O101 2.105 . S
Sc88 O104 2.105 . S
Sc88 O107 2.105 . S
Sc89 O91 2.025 . S
Sc89 O99 2.105 . S
Sc89 O103 2.105 . S
Sc89 O105 2.105 . S
Sc89 O109 2.105 . S
Sc90 O91 2.025 . S
Sc90 O100 2.105 . S
Sc90 O102 2.105 . S
Sc90 O106 2.105 . S
Sc90 O108 2.105 . S
O91 Sc88 2.025 . S
O91 Sc89 2.025 . S
O91 Sc90 2.025 . S
C92 O98 1.268 . S
C92 O108 1.268 . S
C93 O99 1.268 . S
C93 O107 1.268 . S
C94 O100 1.268 . S
C94 O109 1.268 . S
C95 O101 1.268 . S
C95 O105 1.268 . S
C96 O102 1.268 . S
C96 O104 1.268 . S
C97 O103 1.268 . S
C97 O106 1.268 . S
O98 Sc88 2.105 . S
O98 C92 1.268 . S
O99 Sc89 2.105 . S
O99 C93 1.268 . S
O100 Sc90 2.105 . S
O100 C94 1.268 . S
O101 Sc88 2.105 . S
O101 C95 1.268 . S
O102 Sc90 2.105 . S
O102 C96 1.268 . S
O103 Sc89 2.105 . S
O103 C97 1.268 . S
O104 Sc88 2.105 . S
O104 C96 1.268 . S
O105 Sc89 2.105 . S
O105 C95 1.268 . S
O106 Sc90 2.105 . S
O106 C97 1.268 . S
O107 Sc88 2.105 . S
O107 C93 1.268 . S
O108 Sc90 2.105 . S
O108 C92 1.268 . S
O109 Sc89 2.105 . S
O109 C94 1.268 . S
Sc110 O113 2.025 . S
Sc110 O120 2.105 . S
Sc110 O123 2.105 . S
Sc110 O126 2.105 . S
Sc110 O129 2.105 . S
Sc111 O113 2.025 . S
Sc111 O121 2.105 . S
Sc111 O125 2.105 . S
Sc111 O127 2.105 . S
Sc111 O131 2.105 . S
Sc112 O113 2.025 . S
Sc112 O122 2.105 . S
Sc112 O124 2.105 . S
Sc112 O128 2.105 . S
Sc112 O130 2.105 . S
O113 Sc110 2.025 . S
O113 Sc111 2.025 . S
O113 Sc112 2.025 . S
C114 O120 1.268 . S
C114 O130 1.268 . S
C115 O121 1.268 . S
C115 O129 1.268 . S
C116 O122 1.268 . S
C116 O131 1.268 . S
C117 O123 1.268 . S
C117 O127 1.268 . S
C118 O124 1.268 . S
C118 O126 1.268 . S
C119 O125 1.268 . S
C119 O128 1.268 . S
O120 Sc110 2.105 . S
O120 C114 1.268 . S
O121 Sc111 2.105 . S
O121 C115 1.268 . S
O122 Sc112 2.105 . S
O122 C116 1.268 . S
O123 Sc110 2.105 . S
O123 C117 1.268 . S
O124 Sc112 2.105 . S
O124 C118 1.268 . S
O125 Sc111 2.105 . S
O125 C119 1.268 . S
O126 Sc110 2.105 . S
O126 C118 1.268 . S
O127 Sc111 2.105 . S
O127 C117 1.268 . S
O128 Sc112 2.105 . S
O128 C119 1.268 . S
O129 Sc110 2.105 . S
O129 C115 1.268 . S
O130 Sc112 2.105 . S
O130 C114 1.268 . S
O131 Sc111 2.105 . S
O131 C116 1.268 . S
Sc132 O135 2.025 . S
Sc132 O142 2.105 . S
Sc132 O145 2.105 . S
Sc132 O148 2.105 1_655 S
Sc132 O151 2.105 . S
Sc133 O135 2.025 . S
Sc133 O143 2.105 . S
Sc133 O147 2.105 . S
Sc133 O149 2.105 . S
Sc133 O153 2.105 . S
Sc134 O135 2.025 . S
Sc134 O144 2.105 . S
Sc134 O146 2.105 1_655 S
Sc134 O150 2.105 . S
Sc134 O152 2.105 . S
O135 Sc132 2.025 . S
O135 Sc133 2.025 . S
O135 Sc134 2.025 . S
C136 O142 1.268 . S
C136 O152 1.268 . S
C137 O143 1.268 . S
C137 O151 1.268 . S
C138 O144 1.268 . S
C138 O153 1.268 . S
C139 O145 1.268 . S
C139 O149 1.268 . S
C140 O146 1.268 . S
C140 O148 1.268 . S
C141 O147 1.268 . S
C141 O150 1.268 . S
O142 Sc132 2.105 . S
O142 C136 1.268 . S
O143 Sc133 2.105 . S
O143 C137 1.268 . S
O144 Sc134 2.105 . S
O144 C138 1.268 . S
O145 Sc132 2.105 . S
O145 C139 1.268 . S
O146 Sc134 2.105 1_455 S
O146 C140 1.268 . S
O147 Sc133 2.105 . S
O147 C141 1.268 . S
O148 Sc132 2.105 1_455 S
O148 C140 1.268 . S
O149 Sc133 2.105 . S
O149 C139 1.268 . S
O150 Sc134 2.105 . S
O150 C141 1.268 . S
O151 Sc132 2.105 . S
O151 C137 1.268 . S
O152 Sc134 2.105 . S
O152 C136 1.268 . S
O153 Sc133 2.105 . S
O153 C138 1.268 . S
Sc154 O157 2.025 . S
Sc154 O164 2.105 . S
Sc154 O167 2.105 . S
Sc154 O170 2.105 . S
Sc154 O173 2.105 . S
Sc155 O157 2.025 . S
Sc155 O165 2.105 . S
Sc155 O169 2.105 . S
Sc155 O171 2.105 . S
Sc155 O175 2.105 . S
Sc156 O157 2.025 . S
Sc156 O166 2.105 . S
Sc156 O168 2.105 . S
Sc156 O172 2.105 . S
Sc156 O174 2.105 . S
O157 Sc154 2.025 . S
O157 Sc155 2.025 . S
O157 Sc156 2.025 . S
C158 O164 1.268 . S
C158 O174 1.268 . S
C159 O165 1.268 . S
C159 O173 1.268 . S
C160 O166 1.268 . S
C160 O175 1.268 . S
C161 O167 1.268 . S
C161 O171 1.268 . S
C162 O168 1.268 . S
C162 O170 1.268 . S
C163 O169 1.268 . S
C163 O172 1.268 . S
O164 Sc154 2.105 . S
O164 C158 1.268 . S
O165 Sc155 2.105 . S
O165 C159 1.268 . S
O166 Sc156 2.105 . S
O166 C160 1.268 . S
O167 Sc154 2.105 . S
O167 C161 1.268 . S
O168 Sc156 2.105 . S
O168 C162 1.268 . S
O169 Sc155 2.105 . S
O169 C163 1.268 . S
O170 Sc154 2.105 . S
O170 C162 1.268 . S
O171 Sc155 2.105 . S
O171 C161 1.268 . S
O172 Sc156 2.105 . S
O172 C163 1.268 . S
O173 Sc154 2.105 . S
O173 C159 1.268 . S
O174 Sc156 2.105 . S
O174 C158 1.268 . S
O175 Sc155 2.105 . S
O175 C160 1.268 . S
Sc176 O179 2.025 . S
Sc176 O186 2.105 . S
Sc176 O189 2.105 . S
Sc176 O192 2.105 1_545 S
Sc176 O195 2.105 . S
Sc177 O179 2.025 . S
Sc177 O187 2.105 . S
Sc177 O191 2.105 . S
Sc177 O193 2.105 . S
Sc177 O197 2.105 . S
Sc178 O179 2.025 . S
Sc178 O188 2.105 . S
Sc178 O190 2.105 1_545 S
Sc178 O194 2.105 . S
Sc178 O196 2.105 . S
O179 Sc176 2.025 . S
O179 Sc177 2.025 . S
O179 Sc178 2.025 . S
C180 O186 1.268 . S
C180 O196 1.268 . S
C181 O187 1.268 . S
C181 O195 1.268 . S
C182 O188 1.268 . S
C182 O197 1.268 . S
C183 O189 1.268 . S
C183 O193 1.268 . S
C184 O190 1.268 . S
C184 O192 1.268 . S
C185 O191 1.268 . S
C185 O194 1.268 . S
O186 Sc176 2.105 . S
O186 C180 1.268 . S
O187 Sc177 2.105 . S
O187 C181 1.268 . S
O188 Sc178 2.105 . S
O188 C182 1.268 . S
O189 Sc176 2.105 . S
O189 C183 1.268 . S
O190 Sc178 2.105 1_565 S
O190 C184 1.268 . S
O191 Sc177 2.105 . S
O191 C185 1.268 . S
O192 Sc176 2.105 1_565 S
O192 C184 1.268 . S
O193 Sc177 2.105 . S
O193 C183 1.268 . S
O194 Sc178 2.105 . S
O194 C185 1.268 . S
O195 Sc176 2.105 . S
O195 C181 1.268 . S
O196 Sc178 2.105 . S
O196 C180 1.268 . S
O197 Sc177 2.105 . S
O197 C182 1.268 . S
Sc198 O201 2.025 . S
Sc198 O208 2.105 . S
Sc198 O211 2.105 . S
Sc198 O214 2.105 . S
Sc198 O217 2.105 . S
Sc199 O201 2.025 . S
Sc199 O209 2.105 . S
Sc199 O213 2.105 . S
Sc199 O215 2.105 . S
Sc199 O219 2.105 . S
Sc200 O201 2.025 . S
Sc200 O210 2.105 . S
Sc200 O212 2.105 . S
Sc200 O216 2.105 . S
Sc200 O218 2.105 . S
O201 Sc198 2.025 . S
O201 Sc199 2.025 . S
O201 Sc200 2.025 . S
C202 O208 1.268 . S
C202 O218 1.268 . S
C203 O209 1.268 . S
C203 O217 1.268 . S
C204 O210 1.268 . S
C204 O219 1.268 . S
C205 O211 1.268 . S
C205 O215 1.268 . S
C206 O212 1.268 . S
C206 O214 1.268 . S
C207 O213 1.268 . S
C207 O216 1.268 . S
O208 Sc198 2.105 . S
O208 C202 1.268 . S
O209 Sc199 2.105 . S
O209 C203 1.268 . S
O210 Sc200 2.105 . S
O210 C204 1.268 . S
O211 Sc198 2.105 . S
O211 C205 1.268 . S
O212 Sc200 2.105 . S
O212 C206 1.268 . S
O213 Sc199 2.105 . S
O213 C207 1.268 . S
O214 Sc198 2.105 . S
O214 C206 1.268 . S
O215 Sc199 2.105 . S
O215 C205 1.268 . S
O216 Sc200 2.105 . S
O216 C207 1.268 . S
O217 Sc198 2.105 . S
O217 C203 1.268 . S
O218 Sc200 2.105 . S
O218 C202 1.268 . S
O219 Sc199 2.105 . S
O219 C204 1.268 . S
Sc220 O223 2.025 . S
Sc220 O230 2.105 1_565 S
Sc220 O233 2.105 . S
Sc220 O236 2.105 . S
Sc220 O239 2.105 . S
Sc221 O223 2.025 . S
Sc221 O231 2.105 . S
Sc221 O235 2.105 . S
Sc221 O237 2.105 . S
Sc221 O241 2.105 . S
Sc222 O223 2.025 . S
Sc222 O232 2.105 . S
Sc222 O234 2.105 . S
Sc222 O238 2.105 . S
Sc222 O240 2.105 1_565 S
O223 Sc220 2.025 . S
O223 Sc221 2.025 . S
O223 Sc222 2.025 . S
C224 O230 1.268 . S
C224 O240 1.268 . S
C225 O231 1.268 . S
C225 O239 1.268 . S
C226 O232 1.268 . S
C226 O241 1.268 . S
C227 O233 1.268 . S
C227 O237 1.268 . S
C228 O234 1.268 . S
C228 O236 1.268 . S
C229 O235 1.268 . S
C229 O238 1.268 . S
O230 Sc220 2.105 1_545 S
O230 C224 1.268 . S
O231 Sc221 2.105 . S
O231 C225 1.268 . S
O232 Sc222 2.105 . S
O232 C226 1.268 . S
O233 Sc220 2.105 . S
O233 C227 1.268 . S
O234 Sc222 2.105 . S
O234 C228 1.268 . S
O235 Sc221 2.105 . S
O235 C229 1.268 . S
O236 Sc220 2.105 . S
O236 C228 1.268 . S
O237 Sc221 2.105 . S
O237 C227 1.268 . S
O238 Sc222 2.105 . S
O238 C229 1.268 . S
O239 Sc220 2.105 . S
O239 C225 1.268 . S
O240 Sc222 2.105 1_545 S
O240 C224 1.268 . S
O241 Sc221 2.105 . S
O241 C226 1.268 . S
Sc242 O245 2.025 . S
Sc242 O252 2.105 . S
Sc242 O255 2.105 . S
Sc242 O258 2.105 . S
Sc242 O261 2.105 . S
Sc243 O245 2.025 . S
Sc243 O253 2.105 . S
Sc243 O257 2.105 . S
Sc243 O259 2.105 . S
Sc243 O263 2.105 . S
Sc244 O245 2.025 . S
Sc244 O254 2.105 . S
Sc244 O256 2.105 . S
Sc244 O260 2.105 . S
Sc244 O262 2.105 . S
O245 Sc242 2.025 . S
O245 Sc243 2.025 . S
O245 Sc244 2.025 . S
C246 O252 1.268 . S
C246 O262 1.268 . S
C247 O253 1.268 . S
C247 O261 1.268 . S
C248 O254 1.268 . S
C248 O263 1.268 . S
C249 O255 1.268 . S
C249 O259 1.268 . S
C250 O256 1.268 . S
C250 O258 1.268 . S
C251 O257 1.268 . S
C251 O260 1.268 . S
O252 Sc242 2.105 . S
O252 C246 1.268 . S
O253 Sc243 2.105 . S
O253 C247 1.268 . S
O254 Sc244 2.105 . S
O254 C248 1.268 . S
O255 Sc242 2.105 . S
O255 C249 1.268 . S
O256 Sc244 2.105 . S
O256 C250 1.268 . S
O257 Sc243 2.105 . S
O257 C251 1.268 . S
O258 Sc242 2.105 . S
O258 C250 1.268 . S
O259 Sc243 2.105 . S
O259 C249 1.268 . S
O260 Sc244 2.105 . S
O260 C251 1.268 . S
O261 Sc242 2.105 . S
O261 C247 1.268 . S
O262 Sc244 2.105 . S
O262 C246 1.268 . S
O263 Sc243 2.105 . S
O263 C248 1.268 . S
Sc264 O267 2.025 . S
Sc264 O274 2.105 . S
Sc264 O277 2.105 . S
Sc264 O280 2.105 . S
Sc264 O283 2.105 . S
Sc265 O267 2.025 . S
Sc265 O275 2.105 . S
Sc265 O279 2.105 . S
Sc265 O281 2.105 . S
Sc265 O285 2.105 . S
Sc266 O267 2.025 . S
Sc266 O276 2.105 . S
Sc266 O278 2.105 . S
Sc266 O282 2.105 . S
Sc266 O284 2.105 . S
O267 Sc264 2.025 . S
O267 Sc265 2.025 . S
O267 Sc266 2.025 . S
C268 O274 1.268 . S
C268 O284 1.268 . S
C269 O275 1.268 . S
C269 O283 1.268 . S
C270 O276 1.268 . S
C270 O285 1.268 . S
C271 O277 1.268 . S
C271 O281 1.268 . S
C272 O278 1.268 . S
C272 O280 1.268 . S
C273 O279 1.268 . S
C273 O282 1.268 . S
O274 Sc264 2.105 . S
O274 C268 1.268 . S
O275 Sc265 2.105 . S
O275 C269 1.268 . S
O276 Sc266 2.105 . S
O276 C270 1.268 . S
O277 Sc264 2.105 . S
O277 C271 1.268 . S
O278 Sc266 2.105 . S
O278 C272 1.268 . S
O279 Sc265 2.105 . S
O279 C273 1.268 . S
O280 Sc264 2.105 . S
O280 C272 1.268 . S
O281 Sc265 2.105 . S
O281 C271 1.268 . S
O282 Sc266 2.105 . S
O282 C273 1.268 . S
O283 Sc264 2.105 . S
O283 C269 1.268 . S
O284 Sc266 2.105 . S
O284 C268 1.268 . S
O285 Sc265 2.105 . S
O285 C270 1.268 . S
Sc286 O289 2.025 . S
Sc286 O296 2.105 . S
Sc286 O299 2.105 . S
Sc286 O302 2.105 . S
Sc286 O305 2.105 . S
Sc287 O289 2.025 . S
Sc287 O297 2.105 . S
Sc287 O301 2.105 . S
Sc287 O303 2.105 . S
Sc287 O307 2.105 . S
Sc288 O289 2.025 . S
Sc288 O298 2.105 . S
Sc288 O300 2.105 . S
Sc288 O304 2.105 . S
Sc288 O306 2.105 . S
O289 Sc286 2.025 . S
O289 Sc287 2.025 . S
O289 Sc288 2.025 . S
C290 O296 1.268 . S
C290 O306 1.268 . S
C291 O297 1.268 . S
C291 O305 1.268 . S
C292 O298 1.268 . S
C292 O307 1.268 . S
C293 O299 1.268 . S
C293 O303 1.268 . S
C294 O300 1.268 . S
C294 O302 1.268 . S
C295 O301 1.268 . S
C295 O304 1.268 . S
O296 Sc286 2.105 . S
O296 C290 1.268 . S
O297 Sc287 2.105 . S
O297 C291 1.268 . S
O298 Sc288 2.105 . S
O298 C292 1.268 . S
O299 Sc286 2.105 . S
O299 C293 1.268 . S
O300 Sc288 2.105 . S
O300 C294 1.268 . S
O301 Sc287 2.105 . S
O301 C295 1.268 . S
O302 Sc286 2.105 . S
O302 C294 1.268 . S
O303 Sc287 2.105 . S
O303 C293 1.268 . S
O304 Sc288 2.105 . S
O304 C295 1.268 . S
O305 Sc286 2.105 . S
O305 C291 1.268 . S
O306 Sc288 2.105 . S
O306 C290 1.268 . S
O307 Sc287 2.105 . S
O307 C292 1.268 . S
Sc308 O311 2.025 . S
Sc308 O318 2.105 . S
Sc308 O321 2.105 . S
Sc308 O324 2.105 . S
Sc308 O327 2.105 . S
Sc309 O311 2.025 . S
Sc309 O319 2.105 . S
Sc309 O323 2.105 . S
Sc309 O325 2.105 . S
Sc309 O329 2.105 . S
Sc310 O311 2.025 . S
Sc310 O320 2.105 . S
Sc310 O322 2.105 . S
Sc310 O326 2.105 . S
Sc310 O328 2.105 . S
O311 Sc308 2.025 . S
O311 Sc309 2.025 . S
O311 Sc310 2.025 . S
C312 O318 1.268 . S
C312 O328 1.268 . S
C313 O319 1.268 . S
C313 O327 1.268 . S
C314 O320 1.268 . S
C314 O329 1.268 . S
C315 O321 1.268 . S
C315 O325 1.268 . S
C316 O322 1.268 . S
C316 O324 1.268 . S
C317 O323 1.268 . S
C317 O326 1.268 . S
O318 Sc308 2.105 . S
O318 C312 1.268 . S
O319 Sc309 2.105 . S
O319 C313 1.268 . S
O320 Sc310 2.105 . S
O320 C314 1.268 . S
O321 Sc308 2.105 . S
O321 C315 1.268 . S
O322 Sc310 2.105 . S
O322 C316 1.268 . S
O323 Sc309 2.105 . S
O323 C317 1.268 . S
O324 Sc308 2.105 . S
O324 C316 1.268 . S
O325 Sc309 2.105 . S
O325 C315 1.268 . S
O326 Sc310 2.105 . S
O326 C317 1.268 . S
O327 Sc308 2.105 . S
O327 C313 1.268 . S
O328 Sc310 2.105 . S
O328 C312 1.268 . S
O329 Sc309 2.105 . S
O329 C314 1.268 . S
Sc330 O333 2.025 . S
Sc330 O340 2.105 . S
Sc330 O343 2.105 . S
Sc330 O346 2.105 . S
Sc330 O349 2.105 . S
Sc331 O333 2.025 . S
Sc331 O341 2.105 . S
Sc331 O345 2.105 . S
Sc331 O347 2.105 . S
Sc331 O351 2.105 . S
Sc332 O333 2.025 . S
Sc332 O342 2.105 . S
Sc332 O344 2.105 . S
Sc332 O348 2.105 . S
Sc332 O350 2.105 . S
O333 Sc330 2.025 . S
O333 Sc331 2.025 . S
O333 Sc332 2.025 . S
C334 O340 1.268 . S
C334 O350 1.268 . S
C335 O341 1.268 . S
C335 O349 1.268 . S
C336 O342 1.268 . S
C336 O351 1.268 . S
C337 O343 1.268 . S
C337 O347 1.268 . S
C338 O344 1.268 . S
C338 O346 1.268 . S
C339 O345 1.268 . S
C339 O348 1.268 . S
O340 Sc330 2.105 . S
O340 C334 1.268 . S
O341 Sc331 2.105 . S
O341 C335 1.268 . S
O342 Sc332 2.105 . S
O342 C336 1.268 . S
O343 Sc330 2.105 . S
O343 C337 1.268 . S
O344 Sc332 2.105 . S
O344 C338 1.268 . S
O345 Sc331 2.105 . S
O345 C339 1.268 . S
O346 Sc330 2.105 . S
O346 C338 1.268 . S
O347 Sc331 2.105 . S
O347 C337 1.268 . S
O348 Sc332 2.105 . S
O348 C339 1.268 . S
O349 Sc330 2.105 . S
O349 C335 1.268 . S
O350 Sc332 2.105 . S
O350 C334 1.268 . S
O351 Sc331 2.105 . S
O351 C336 1.268 . S
Sc352 O355 2.025 . S
Sc352 O362 2.105 1_554 S
Sc352 O365 2.105 . S
Sc352 O368 2.105 . S
Sc352 O371 2.105 . S
Sc353 O355 2.025 . S
Sc353 O363 2.105 . S
Sc353 O367 2.105 . S
Sc353 O369 2.105 . S
Sc353 O373 2.105 . S
Sc354 O355 2.025 . S
Sc354 O364 2.105 . S
Sc354 O366 2.105 . S
Sc354 O370 2.105 . S
Sc354 O372 2.105 1_554 S
O355 Sc352 2.025 . S
O355 Sc353 2.025 . S
O355 Sc354 2.025 . S
C356 O362 1.268 . S
C356 O372 1.268 . S
C357 O363 1.268 . S
C357 O371 1.268 . S
C358 O364 1.268 . S
C358 O373 1.268 . S
C359 O365 1.268 . S
C359 O369 1.268 . S
C360 O366 1.268 . S
C360 O368 1.268 . S
C361 O367 1.268 . S
C361 O370 1.268 . S
O362 Sc352 2.105 1_556 S
O362 C356 1.268 . S
O363 Sc353 2.105 . S
O363 C357 1.268 . S
O364 Sc354 2.105 . S
O364 C358 1.268 . S
O365 Sc352 2.105 . S
O365 C359 1.268 . S
O366 Sc354 2.105 . S
O366 C360 1.268 . S
O367 Sc353 2.105 . S
O367 C361 1.268 . S
O368 Sc352 2.105 . S
O368 C360 1.268 . S
O369 Sc353 2.105 . S
O369 C359 1.268 . S
O370 Sc354 2.105 . S
O370 C361 1.268 . S
O371 Sc352 2.105 . S
O371 C357 1.268 . S
O372 Sc354 2.105 1_556 S
O372 C356 1.268 . S
O373 Sc353 2.105 . S
O373 C358 1.268 . S
Sc374 O377 2.025 . S
Sc374 O384 2.105 . S
Sc374 O387 2.105 . S
Sc374 O390 2.105 1_556 S
Sc374 O393 2.105 . S
Sc375 O377 2.025 . S
Sc375 O385 2.105 . S
Sc375 O389 2.105 . S
Sc375 O391 2.105 . S
Sc375 O395 2.105 . S
Sc376 O377 2.025 . S
Sc376 O386 2.105 . S
Sc376 O388 2.105 1_556 S
Sc376 O392 2.105 . S
Sc376 O394 2.105 . S
O377 Sc374 2.025 . S
O377 Sc375 2.025 . S
O377 Sc376 2.025 . S
C378 O384 1.268 . S
C378 O394 1.268 . S
C379 O385 1.268 . S
C379 O393 1.268 . S
C380 O386 1.268 . S
C380 O395 1.268 . S
C381 O387 1.268 . S
C381 O391 1.268 . S
C382 O388 1.268 . S
C382 O390 1.268 . S
C383 O389 1.268 . S
C383 O392 1.268 . S
O384 Sc374 2.105 . S
O384 C378 1.268 . S
O385 Sc375 2.105 . S
O385 C379 1.268 . S
O386 Sc376 2.105 . S
O386 C380 1.268 . S
O387 Sc374 2.105 . S
O387 C381 1.268 . S
O388 Sc376 2.105 1_554 S
O388 C382 1.268 . S
O389 Sc375 2.105 . S
O389 C383 1.268 . S
O390 Sc374 2.105 1_554 S
O390 C382 1.268 . S
O391 Sc375 2.105 . S
O391 C381 1.268 . S
O392 Sc376 2.105 . S
O392 C383 1.268 . S
O393 Sc374 2.105 . S
O393 C379 1.268 . S
O394 Sc376 2.105 . S
O394 C378 1.268 . S
O395 Sc375 2.105 . S
O395 C380 1.268 . S
Sc396 O399 2.025 . S
Sc396 O406 2.105 . S
Sc396 O409 2.105 . S
Sc396 O412 2.105 . S
Sc396 O415 2.105 . S
Sc397 O399 2.025 . S
Sc397 O407 2.105 . S
Sc397 O411 2.105 . S
Sc397 O413 2.105 . S
Sc397 O417 2.105 . S
Sc398 O399 2.025 . S
Sc398 O408 2.105 . S
Sc398 O410 2.105 . S
Sc398 O414 2.105 . S
Sc398 O416 2.105 . S
O399 Sc396 2.025 . S
O399 Sc397 2.025 . S
O399 Sc398 2.025 . S
C400 O406 1.268 . S
C400 O416 1.268 . S
C401 O407 1.268 . S
C401 O415 1.268 . S
C402 O408 1.268 . S
C402 O417 1.268 . S
C403 O409 1.268 . S
C403 O413 1.268 . S
C404 O410 1.268 . S
C404 O412 1.268 . S
C405 O411 1.268 . S
C405 O414 1.268 . S
O406 Sc396 2.105 . S
O406 C400 1.268 . S
O407 Sc397 2.105 . S
O407 C401 1.268 . S
O408 Sc398 2.105 . S
O408 C402 1.268 . S
O409 Sc396 2.105 . S
O409 C403 1.268 . S
O410 Sc398 2.105 . S
O410 C404 1.268 . S
O411 Sc397 2.105 . S
O411 C405 1.268 . S
O412 Sc396 2.105 . S
O412 C404 1.268 . S
O413 Sc397 2.105 . S
O413 C403 1.268 . S
O414 Sc398 2.105 . S
O414 C405 1.268 . S
O415 Sc396 2.105 . S
O415 C401 1.268 . S
O416 Sc398 2.105 . S
O416 C400 1.268 . S
O417 Sc397 2.105 . S
O417 C402 1.268 . S
Sc418 O421 2.025 . S
Sc418 O428 2.105 . S
Sc418 O431 2.105 . S
Sc418 O434 2.105 . S
Sc418 O437 2.105 . S
Sc419 O421 2.025 . S
Sc419 O429 2.105 . S
Sc419 O433 2.105 . S
Sc419 O435 2.105 . S
Sc419 O439 2.105 . S
Sc420 O421 2.025 . S
Sc420 O430 2.105 . S
Sc420 O432 2.105 . S
Sc420 O436 2.105 . S
Sc420 O438 2.105 . S
O421 Sc418 2.025 . S
O421 Sc419 2.025 . S
O421 Sc420 2.025 . S
C422 O428 1.268 . S
C422 O438 1.268 . S
C423 O429 1.268 . S
C423 O437 1.268 . S
C424 O430 1.268 . S
C424 O439 1.268 . S
C425 O431 1.268 . S
C425 O435 1.268 . S
C426 O432 1.268 . S
C426 O434 1.268 . S
C427 O433 1.268 . S
C427 O436 1.268 . S
O428 Sc418 2.105 . S
O428 C422 1.268 . S
O429 Sc419 2.105 . S
O429 C423 1.268 . S
O430 Sc420 2.105 . S
O430 C424 1.268 . S
O431 Sc418 2.105 . S
O431 C425 1.268 . S
O432 Sc420 2.105 . S
O432 C426 1.268 . S
O433 Sc419 2.105 . S
O433 C427 1.268 . S
O434 Sc418 2.105 . S
O434 C426 1.268 . S
O435 Sc419 2.105 . S
O435 C425 1.268 . S
O436 Sc420 2.105 . S
O436 C427 1.268 . S
O437 Sc418 2.105 . S
O437 C423 1.268 . S
O438 Sc420 2.105 . S
O438 C422 1.268 . S
O439 Sc419 2.105 . S
O439 C424 1.268 . S
Sc440 O443 2.025 . S
Sc440 O450 2.105 . S
Sc440 O453 2.105 . S
Sc440 O456 2.105 . S
Sc440 O459 2.105 . S
Sc441 O443 2.025 . S
Sc441 O451 2.105 . S
Sc441 O455 2.105 . S
Sc441 O457 2.105 . S
Sc441 O461 2.105 . S
Sc442 O443 2.025 . S
Sc442 O452 2.105 . S
Sc442 O454 2.105 . S
Sc442 O458 2.105 . S
Sc442 O460 2.105 . S
O443 Sc440 2.025 . S
O443 Sc441 2.025 . S
O443 Sc442 2.025 . S
C444 O450 1.268 . S
C444 O460 1.268 . S
C445 O451 1.268 . S
C445 O459 1.268 . S
C446 O452 1.268 . S
C446 O461 1.268 . S
C447 O453 1.268 . S
C447 O457 1.268 . S
C448 O454 1.268 . S
C448 O456 1.268 . S
C449 O455 1.268 . S
C449 O458 1.268 . S
O450 Sc440 2.105 . S
O450 C444 1.268 . S
O451 Sc441 2.105 . S
O451 C445 1.268 . S
O452 Sc442 2.105 . S
O452 C446 1.268 . S
O453 Sc440 2.105 . S
O453 C447 1.268 . S
O454 Sc442 2.105 . S
O454 C448 1.268 . S
O455 Sc441 2.105 . S
O455 C449 1.268 . S
O456 Sc440 2.105 . S
O456 C448 1.268 . S
O457 Sc441 2.105 . S
O457 C447 1.268 . S
O458 Sc442 2.105 . S
O458 C449 1.268 . S
O459 Sc440 2.105 . S
O459 C445 1.268 . S
O460 Sc442 2.105 . S
O460 C444 1.268 . S
O461 Sc441 2.105 . S
O461 C446 1.268 . S
Sc462 O465 2.025 . S
Sc462 O472 2.105 . S
Sc462 O475 2.105 . S
Sc462 O478 2.105 . S
Sc462 O481 2.105 . S
Sc463 O465 2.025 . S
Sc463 O473 2.105 . S
Sc463 O477 2.105 . S
Sc463 O479 2.105 . S
Sc463 O483 2.105 . S
Sc464 O465 2.025 . S
Sc464 O474 2.105 . S
Sc464 O476 2.105 . S
Sc464 O480 2.105 . S
Sc464 O482 2.105 . S
O465 Sc462 2.025 . S
O465 Sc463 2.025 . S
O465 Sc464 2.025 . S
C466 O472 1.268 . S
C466 O482 1.268 . S
C467 O473 1.268 . S
C467 O481 1.268 . S
C468 O474 1.268 . S
C468 O483 1.268 . S
C469 O475 1.268 . S
C469 O479 1.268 . S
C470 O476 1.268 . S
C470 O478 1.268 . S
C471 O477 1.268 . S
C471 O480 1.268 . S
O472 Sc462 2.105 . S
O472 C466 1.268 . S
O473 Sc463 2.105 . S
O473 C467 1.268 . S
O474 Sc464 2.105 . S
O474 C468 1.268 . S
O475 Sc462 2.105 . S
O475 C469 1.268 . S
O476 Sc464 2.105 . S
O476 C470 1.268 . S
O477 Sc463 2.105 . S
O477 C471 1.268 . S
O478 Sc462 2.105 . S
O478 C470 1.268 . S
O479 Sc463 2.105 . S
O479 C469 1.268 . S
O480 Sc464 2.105 . S
O480 C471 1.268 . S
O481 Sc462 2.105 . S
O481 C467 1.268 . S
O482 Sc464 2.105 . S
O482 C466 1.268 . S
O483 Sc463 2.105 . S
O483 C468 1.268 . S
Sc484 O487 2.025 . S
Sc484 O494 2.105 . S
Sc484 O497 2.105 . S
Sc484 O500 2.105 . S
Sc484 O503 2.105 . S
Sc485 O487 2.025 . S
Sc485 O495 2.105 . S
Sc485 O499 2.105 . S
Sc485 O501 2.105 . S
Sc485 O505 2.105 . S
Sc486 O487 2.025 . S
Sc486 O496 2.105 . S
Sc486 O498 2.105 . S
Sc486 O502 2.105 . S
Sc486 O504 2.105 . S
O487 Sc484 2.025 . S
O487 Sc485 2.025 . S
O487 Sc486 2.025 . S
C488 O494 1.268 . S
C488 O504 1.268 . S
C489 O495 1.268 . S
C489 O503 1.268 . S
C490 O496 1.268 . S
C490 O505 1.268 . S
C491 O497 1.268 . S
C491 O501 1.268 . S
C492 O498 1.268 . S
C492 O500 1.268 . S
C493 O499 1.268 . S
C493 O502 1.268 . S
O494 Sc484 2.105 . S
O494 C488 1.268 . S
O495 Sc485 2.105 . S
O495 C489 1.268 . S
O496 Sc486 2.105 . S
O496 C490 1.268 . S
O497 Sc484 2.105 . S
O497 C491 1.268 . S
O498 Sc486 2.105 . S
O498 C492 1.268 . S
O499 Sc485 2.105 . S
O499 C493 1.268 . S
O500 Sc484 2.105 . S
O500 C492 1.268 . S
O501 Sc485 2.105 . S
O501 C491 1.268 . S
O502 Sc486 2.105 . S
O502 C493 1.268 . S
O503 Sc484 2.105 . S
O503 C489 1.268 . S
O504 Sc486 2.105 . S
O504 C488 1.268 . S
O505 Sc485 2.105 . S
O505 C490 1.268 . S
Sc506 O509 2.025 . S
Sc506 O516 2.105 . S
Sc506 O519 2.105 . S
Sc506 O522 2.105 . S
Sc506 O525 2.105 . S
Sc507 O509 2.025 . S
Sc507 O517 2.105 . S
Sc507 O521 2.105 . S
Sc507 O523 2.105 . S
Sc507 O527 2.105 . S
Sc508 O509 2.025 . S
Sc508 O518 2.105 . S
Sc508 O520 2.105 . S
Sc508 O524 2.105 . S
Sc508 O526 2.105 . S
O509 Sc506 2.025 . S
O509 Sc507 2.025 . S
O509 Sc508 2.025 . S
C510 O516 1.268 . S
C510 O526 1.268 . S
C511 O517 1.268 . S
C511 O525 1.268 . S
C512 O518 1.268 . S
C512 O527 1.268 . S
C513 O519 1.268 . S
C513 O523 1.268 . S
C514 O520 1.268 . S
C514 O522 1.268 . S
C515 O521 1.268 . S
C515 O524 1.268 . S
O516 Sc506 2.105 . S
O516 C510 1.268 . S
O517 Sc507 2.105 . S
O517 C511 1.268 . S
O518 Sc508 2.105 . S
O518 C512 1.268 . S
O519 Sc506 2.105 . S
O519 C513 1.268 . S
O520 Sc508 2.105 . S
O520 C514 1.268 . S
O521 Sc507 2.105 . S
O521 C515 1.268 . S
O522 Sc506 2.105 . S
O522 C514 1.268 . S
O523 Sc507 2.105 . S
O523 C513 1.268 . S
O524 Sc508 2.105 . S
O524 C515 1.268 . S
O525 Sc506 2.105 . S
O525 C511 1.268 . S
O526 Sc508 2.105 . S
O526 C510 1.268 . S
O527 Sc507 2.105 . S
O527 C512 1.268 . S
H528 C536 0.950 . S
H529 C541 0.950 . S
H530 C538 0.950 . S
H531 C540 0.950 . S
H532 C542 0.950 . S
H533 C544 0.950 . S
H534 C546 0.950 . S
H535 C547 0.950 . S
C536 H528 0.950 . S
C536 C537 1.386 . S
C536 C538 1.391 . S
C537 C536 1.386 . S
C537 C541 1.393 . S
C538 H530 0.950 . S
C538 C536 1.391 . S
C538 C539 1.400 . S
C539 C538 1.400 . S
C539 C540 1.398 . S
C539 C545 1.491 . S
C540 H531 0.950 . S
C540 C539 1.398 . S
C540 C541 1.391 . S
C541 H529 0.950 . S
C541 C537 1.393 . S
C541 C540 1.391 . S
C542 H532 0.950 . S
C542 C543 1.386 . S
C542 C544 1.391 . S
C543 C542 1.386 . S
C543 C547 1.393 . S
C544 H533 0.950 . S
C544 C542 1.391 . S
C544 C545 1.400 . S
C545 C539 1.491 . S
C545 C544 1.400 . S
C545 C546 1.398 . S
C546 H534 0.950 . S
C546 C545 1.398 . S
C546 C547 1.391 . S
C547 H535 0.950 . S
C547 C543 1.393 . S
C547 C546 1.391 . S
H548 C556 0.950 . S
H549 C561 0.950 . S
H550 C558 0.950 . S
H551 C560 0.950 . S
H552 C562 0.950 . S
H553 C564 0.950 . S
H554 C566 0.950 . S
H555 C567 0.950 . S
C556 H548 0.950 . S
C556 C557 1.386 . S
C556 C558 1.391 . S
C557 C556 1.386 . S
C557 C561 1.393 . S
C558 H550 0.950 . S
C558 C556 1.391 . S
C558 C559 1.400 . S
C559 C558 1.400 . S
C559 C560 1.398 . S
C559 C565 1.491 . S
C560 H551 0.950 . S
C560 C559 1.398 . S
C560 C561 1.391 . S
C561 H549 0.950 . S
C561 C557 1.393 . S
C561 C560 1.391 . S
C562 H552 0.950 . S
C562 C563 1.386 . S
C562 C564 1.391 . S
C563 C562 1.386 . S
C563 C567 1.393 . S
C564 H553 0.950 . S
C564 C562 1.391 . S
C564 C565 1.400 . S
C565 C559 1.491 . S
C565 C564 1.400 . S
C565 C566 1.398 . S
C566 H554 0.950 . S
C566 C565 1.398 . S
C566 C567 1.391 . S
C567 H555 0.950 . S
C567 C563 1.393 . S
C567 C566 1.391 . S
H568 C576 0.950 . S
H569 C581 0.950 . S
H570 C578 0.950 . S
H571 C580 0.950 . S
H572 C582 0.950 . S
H573 C584 0.950 . S
H574 C586 0.950 . S
H575 C587 0.950 . S
C576 H568 0.950 . S
C576 C577 1.386 . S
C576 C578 1.391 . S
C577 C576 1.386 . S
C577 C581 1.393 . S
C578 H570 0.950 . S
C578 C576 1.391 . S
C578 C579 1.400 . S
C579 C578 1.400 . S
C579 C580 1.398 . S
C579 C585 1.491 . S
C580 H571 0.950 . S
C580 C579 1.398 . S
C580 C581 1.391 . S
C581 H569 0.950 . S
C581 C577 1.393 . S
C581 C580 1.391 . S
C582 H572 0.950 . S
C582 C583 1.386 . S
C582 C584 1.391 . S
C583 C582 1.386 . S
C583 C587 1.393 . S
C584 H573 0.950 . S
C584 C582 1.391 . S
C584 C585 1.400 . S
C585 C579 1.491 . S
C585 C584 1.400 . S
C585 C586 1.398 . S
C586 H574 0.950 . S
C586 C585 1.398 . S
C586 C587 1.391 . S
C587 H575 0.950 . S
C587 C583 1.393 . S
C587 C586 1.391 . S
H588 C596 0.950 . S
H589 C601 0.950 . S
H590 C598 0.950 . S
H591 C600 0.950 . S
H592 C602 0.950 . S
H593 C604 0.950 . S
H594 C606 0.950 . S
H595 C607 0.950 . S
C596 H588 0.950 . S
C596 C597 1.386 . S
C596 C598 1.391 . S
C597 C596 1.386 . S
C597 C601 1.393 . S
C598 H590 0.950 . S
C598 C596 1.391 . S
C598 C599 1.400 . S
C599 C598 1.400 . S
C599 C600 1.398 . S
C599 C605 1.491 . S
C600 H591 0.950 . S
C600 C599 1.398 . S
C600 C601 1.391 . S
C601 H589 0.950 . S
C601 C597 1.393 . S
C601 C600 1.391 . S
C602 H592 0.950 . S
C602 C603 1.386 . S
C602 C604 1.391 . S
C603 C602 1.386 . S
C603 C607 1.393 . S
C604 H593 0.950 . S
C604 C602 1.391 . S
C604 C605 1.400 . S
C605 C599 1.491 . S
C605 C604 1.400 . S
C605 C606 1.398 . S
C606 H594 0.950 . S
C606 C605 1.398 . S
C606 C607 1.391 . S
C607 H595 0.950 . S
C607 C603 1.393 . S
C607 C606 1.391 . S
H608 C616 0.950 . S
H609 C621 0.950 . S
H610 C618 0.950 . S
H611 C620 0.950 . S
H612 C622 0.950 . S
H613 C624 0.950 . S
H614 C626 0.950 . S
H615 C627 0.950 . S
C616 H608 0.950 . S
C616 C617 1.386 . S
C616 C618 1.391 . S
C617 C616 1.386 . S
C617 C621 1.393 . S
C618 H610 0.950 . S
C618 C616 1.391 . S
C618 C619 1.400 . S
C619 C618 1.400 . S
C619 C620 1.398 . S
C619 C625 1.491 . S
C620 H611 0.950 . S
C620 C619 1.398 . S
C620 C621 1.391 . S
C621 H609 0.950 . S
C621 C617 1.393 . S
C621 C620 1.391 . S
C622 H612 0.950 . S
C622 C623 1.386 . S
C622 C624 1.391 . S
C623 C622 1.386 . S
C623 C627 1.393 . S
C624 H613 0.950 . S
C624 C622 1.391 . S
C624 C625 1.400 . S
C625 C619 1.491 . S
C625 C624 1.400 . S
C625 C626 1.398 . S
C626 H614 0.950 . S
C626 C625 1.398 . S
C626 C627 1.391 . S
C627 H615 0.950 . S
C627 C623 1.393 . S
C627 C626 1.391 . S
H628 C636 0.950 . S
H629 C641 0.950 . S
H630 C638 0.950 . S
H631 C640 0.950 . S
H632 C642 0.950 . S
H633 C644 0.950 . S
H634 C646 0.950 . S
H635 C647 0.950 . S
C636 H628 0.950 . S
C636 C637 1.386 . S
C636 C638 1.391 . S
C637 C636 1.386 . S
C637 C641 1.393 . S
C638 H630 0.950 . S
C638 C636 1.391 . S
C638 C639 1.400 . S
C639 C638 1.400 . S
C639 C640 1.398 . S
C639 C645 1.491 . S
C640 H631 0.950 . S
C640 C639 1.398 . S
C640 C641 1.391 . S
C641 H629 0.950 . S
C641 C637 1.393 . S
C641 C640 1.391 . S
C642 H632 0.950 . S
C642 C643 1.386 . S
C642 C644 1.391 . S
C643 C642 1.386 . S
C643 C647 1.393 . S
C644 H633 0.950 . S
C644 C642 1.391 . S
C644 C645 1.400 . S
C645 C639 1.491 . S
C645 C644 1.400 . S
C645 C646 1.398 . S
C646 H634 0.950 . S
C646 C645 1.398 . S
C646 C647 1.391 . S
C647 H635 0.950 . S
C647 C643 1.393 . S
C647 C646 1.391 . S
H648 C656 0.950 . S
H649 C661 0.950 . S
H650 C658 0.950 . S
H651 C660 0.950 . S
H652 C662 0.950 . S
H653 C664 0.950 . S
H654 C666 0.950 . S
H655 C667 0.950 . S
C656 H648 0.950 . S
C656 C657 1.386 . S
C656 C658 1.391 . S
C657 C656 1.386 . S
C657 C661 1.393 . S
C658 H650 0.950 . S
C658 C656 1.391 . S
C658 C659 1.400 . S
C659 C658 1.400 . S
C659 C660 1.398 . S
C659 C665 1.491 . S
C660 H651 0.950 . S
C660 C659 1.398 . S
C660 C661 1.391 . S
C661 H649 0.950 . S
C661 C657 1.393 . S
C661 C660 1.391 . S
C662 H652 0.950 . S
C662 C663 1.386 . S
C662 C664 1.391 . S
C663 C662 1.386 . S
C663 C667 1.393 . S
C664 H653 0.950 . S
C664 C662 1.391 . S
C664 C665 1.400 . S
C665 C659 1.491 . S
C665 C664 1.400 . S
C665 C666 1.398 . S
C666 H654 0.950 . S
C666 C665 1.398 . S
C666 C667 1.391 . S
C667 H655 0.950 . S
C667 C663 1.393 . S
C667 C666 1.391 . S
H668 C676 0.950 . S
H669 C681 0.950 . S
H670 C678 0.950 . S
H671 C680 0.950 . S
H672 C682 0.950 . S
H673 C684 0.950 . S
H674 C686 0.950 . S
H675 C687 0.950 . S
C676 H668 0.950 . S
C676 C677 1.386 . S
C676 C678 1.391 . S
C677 C676 1.386 . S
C677 C681 1.393 . S
C678 H670 0.950 . S
C678 C676 1.391 . S
C678 C679 1.400 . S
C679 C678 1.400 . S
C679 C680 1.398 . S
C679 C685 1.491 . S
C680 H671 0.950 . S
C680 C679 1.398 . S
C680 C681 1.391 . S
C681 H669 0.950 . S
C681 C677 1.393 . S
C681 C680 1.391 . S
C682 H672 0.950 . S
C682 C683 1.386 . S
C682 C684 1.391 . S
C683 C682 1.386 . S
C683 C687 1.393 . S
C684 H673 0.950 . S
C684 C682 1.391 . S
C684 C685 1.400 . S
C685 C679 1.491 . S
C685 C684 1.400 . S
C685 C686 1.398 . S
C686 H674 0.950 . S
C686 C685 1.398 . S
C686 C687 1.391 . S
C687 H675 0.950 . S
C687 C683 1.393 . S
C687 C686 1.391 . S
H688 C696 0.950 . S
H689 C701 0.950 . S
H690 C698 0.950 . S
H691 C700 0.950 . S
H692 C702 0.950 . S
H693 C704 0.950 . S
H694 C706 0.950 . S
H695 C707 0.950 . S
C696 H688 0.950 . S
C696 C697 1.386 . S
C696 C698 1.391 . S
C697 C696 1.386 . S
C697 C701 1.393 . S
C698 H690 0.950 . S
C698 C696 1.391 . S
C698 C699 1.400 . S
C699 C698 1.400 . S
C699 C700 1.398 . S
C699 C705 1.491 . S
C700 H691 0.950 . S
C700 C699 1.398 . S
C700 C701 1.391 . S
C701 H689 0.950 . S
C701 C697 1.393 . S
C701 C700 1.391 . S
C702 H692 0.950 . S
C702 C703 1.386 . S
C702 C704 1.391 . S
C703 C702 1.386 . S
C703 C707 1.393 . S
C704 H693 0.950 . S
C704 C702 1.391 . S
C704 C705 1.400 . S
C705 C699 1.491 . S
C705 C704 1.400 . S
C705 C706 1.398 . S
C706 H694 0.950 . S
C706 C705 1.398 . S
C706 C707 1.391 . S
C707 H695 0.950 . S
C707 C703 1.393 . S
C707 C706 1.391 . S
H708 C716 0.950 . S
H709 C721 0.950 . S
H710 C718 0.950 . S
H711 C720 0.950 . S
H712 C722 0.950 . S
H713 C724 0.950 . S
H714 C726 0.950 . S
H715 C727 0.950 . S
C716 H708 0.950 . S
C716 C717 1.386 . S
C716 C718 1.391 . S
C717 C716 1.386 . S
C717 C721 1.393 . S
C718 H710 0.950 . S
C718 C716 1.391 . S
C718 C719 1.400 . S
C719 C718 1.400 . S
C719 C720 1.398 . S
C719 C725 1.491 . S
C720 H711 0.950 . S
C720 C719 1.398 . S
C720 C721 1.391 . S
C721 H709 0.950 . S
C721 C717 1.393 . S
C721 C720 1.391 . S
C722 H712 0.950 . S
C722 C723 1.386 . S
C722 C724 1.391 . S
C723 C722 1.386 . S
C723 C727 1.393 . S
C724 H713 0.950 . S
C724 C722 1.391 . S
C724 C725 1.400 . S
C725 C719 1.491 . S
C725 C724 1.400 . S
C725 C726 1.398 . S
C726 H714 0.950 . S
C726 C725 1.398 . S
C726 C727 1.391 . S
C727 H715 0.950 . S
C727 C723 1.393 . S
C727 C726 1.391 . S
H728 C736 0.950 . S
H729 C741 0.950 . S
H730 C738 0.950 . S
H731 C740 0.950 . S
H732 C742 0.950 . S
H733 C744 0.950 . S
H734 C746 0.950 . S
H735 C747 0.950 . S
C736 H728 0.950 . S
C736 C737 1.386 . S
C736 C738 1.391 . S
C737 C736 1.386 . S
C737 C741 1.393 . S
C738 H730 0.950 . S
C738 C736 1.391 . S
C738 C739 1.400 . S
C739 C738 1.400 . S
C739 C740 1.398 . S
C739 C745 1.491 . S
C740 H731 0.950 . S
C740 C739 1.398 . S
C740 C741 1.391 . S
C741 H729 0.950 . S
C741 C737 1.393 . S
C741 C740 1.391 . S
C742 H732 0.950 . S
C742 C743 1.386 . S
C742 C744 1.391 . S
C743 C742 1.386 . S
C743 C747 1.393 . S
C744 H733 0.950 . S
C744 C742 1.391 . S
C744 C745 1.400 . S
C745 C739 1.491 . S
C745 C744 1.400 . S
C745 C746 1.398 . S
C746 H734 0.950 . S
C746 C745 1.398 . S
C746 C747 1.391 . S
C747 H735 0.950 . S
C747 C743 1.393 . S
C747 C746 1.391 . S
H748 C756 0.950 . S
H749 C761 0.950 . S
H750 C758 0.950 . S
H751 C760 0.950 . S
H752 C762 0.950 . S
H753 C764 0.950 . S
H754 C766 0.950 . S
H755 C767 0.950 . S
C756 H748 0.950 . S
C756 C757 1.386 . S
C756 C758 1.391 . S
C757 C756 1.386 . S
C757 C761 1.393 . S
C758 H750 0.950 . S
C758 C756 1.391 . S
C758 C759 1.400 . S
C759 C758 1.400 . S
C759 C760 1.398 . S
C759 C765 1.491 . S
C760 H751 0.950 . S
C760 C759 1.398 . S
C760 C761 1.391 . S
C761 H749 0.950 . S
C761 C757 1.393 . S
C761 C760 1.391 . S
C762 H752 0.950 . S
C762 C763 1.386 . S
C762 C764 1.391 . S
C763 C762 1.386 . S
C763 C767 1.393 . S
C764 H753 0.950 . S
C764 C762 1.391 . S
C764 C765 1.400 . S
C765 C759 1.491 . S
C765 C764 1.400 . S
C765 C766 1.398 . S
C766 H754 0.950 . S
C766 C765 1.398 . S
C766 C767 1.391 . S
C767 H755 0.950 . S
C767 C763 1.393 . S
C767 C766 1.391 . S
H768 C776 0.950 . S
H769 C781 0.950 . S
H770 C778 0.950 . S
H771 C780 0.950 . S
H772 C782 0.950 . S
H773 C784 0.950 . S
H774 C786 0.950 . S
H775 C787 0.950 . S
C776 H768 0.950 . S
C776 C777 1.386 . S
C776 C778 1.391 . S
C777 C776 1.386 . S
C777 C781 1.393 . S
C778 H770 0.950 . S
C778 C776 1.391 . S
C778 C779 1.400 . S
C779 C778 1.400 . S
C779 C780 1.398 . S
C779 C785 1.491 . S
C780 H771 0.950 . S
C780 C779 1.398 . S
C780 C781 1.391 . S
C781 H769 0.950 . S
C781 C777 1.393 . S
C781 C780 1.391 . S
C782 H772 0.950 . S
C782 C783 1.386 . S
C782 C784 1.391 . S
C783 C782 1.386 . S
C783 C787 1.393 . S
C784 H773 0.950 . S
C784 C782 1.391 . S
C784 C785 1.400 . S
C785 C779 1.491 . S
C785 C784 1.400 . S
C785 C786 1.398 . S
C786 H774 0.950 . S
C786 C785 1.398 . S
C786 C787 1.391 . S
C787 H775 0.950 . S
C787 C783 1.393 . S
C787 C786 1.391 . S
H788 C796 0.950 . S
H789 C801 0.950 . S
H790 C798 0.950 . S
H791 C800 0.950 . S
H792 C802 0.950 . S
H793 C804 0.950 . S
H794 C806 0.950 . S
H795 C807 0.950 . S
C796 H788 0.950 . S
C796 C797 1.386 . S
C796 C798 1.391 . S
C797 C796 1.386 . S
C797 C801 1.393 . S
C798 H790 0.950 . S
C798 C796 1.391 . S
C798 C799 1.400 . S
C799 C798 1.400 . S
C799 C800 1.398 . S
C799 C805 1.491 . S
C800 H791 0.950 . S
C800 C799 1.398 . S
C800 C801 1.391 . S
C801 H789 0.950 . S
C801 C797 1.393 . S
C801 C800 1.391 . S
C802 H792 0.950 . S
C802 C803 1.386 . S
C802 C804 1.391 . S
C803 C802 1.386 . S
C803 C807 1.393 . S
C804 H793 0.950 . S
C804 C802 1.391 . S
C804 C805 1.400 . S
C805 C799 1.491 . S
C805 C804 1.400 . S
C805 C806 1.398 . S
C806 H794 0.950 . S
C806 C805 1.398 . S
C806 C807 1.391 . S
C807 H795 0.950 . S
C807 C803 1.393 . S
C807 C806 1.391 . S
H808 C816 0.950 . S
H809 C821 0.950 . S
H810 C818 0.950 . S
H811 C820 0.950 . S
H812 C822 0.950 1_554 S
H813 C824 0.950 . S
H814 C826 0.950 . S
H815 C827 0.950 . S
C816 H808 0.950 . S
C816 C817 1.386 . S
C816 C818 1.391 . S
C817 C816 1.386 . S
C817 C821 1.393 . S
C818 H810 0.950 . S
C818 C816 1.391 . S
C818 C819 1.400 . S
C819 C818 1.400 . S
C819 C820 1.398 . S
C819 C825 1.491 . S
C820 H811 0.950 . S
C820 C819 1.398 . S
C820 C821 1.391 . S
C821 H809 0.950 . S
C821 C817 1.393 . S
C821 C820 1.391 . S
C822 H812 0.950 1_556 S
C822 C823 1.382 1_556 S
C822 C824 1.391 . S
C823 C822 1.382 1_554 S
C823 C827 1.382 1_554 S
C824 H813 0.950 . S
C824 C822 1.391 . S
C824 C825 1.400 . S
C825 C819 1.491 . S
C825 C824 1.400 . S
C825 C826 1.398 . S
C826 H814 0.950 . S
C826 C825 1.398 . S
C826 C827 1.391 . S
C827 H815 0.950 . S
C827 C823 1.382 1_556 S
C827 C826 1.391 . S
H828 C836 0.950 . S
H829 C841 0.950 . S
H830 C838 0.950 . S
H831 C840 0.950 . S
H832 C842 0.950 . S
H833 C844 0.950 . S
H834 C846 0.950 . S
H835 C847 0.950 . S
C836 H828 0.950 . S
C836 C837 1.386 . S
C836 C838 1.391 . S
C837 C836 1.386 . S
C837 C841 1.393 . S
C838 H830 0.950 . S
C838 C836 1.391 . S
C838 C839 1.400 . S
C839 C838 1.400 . S
C839 C840 1.398 . S
C839 C845 1.491 . S
C840 H831 0.950 . S
C840 C839 1.398 . S
C840 C841 1.391 . S
C841 H829 0.950 . S
C841 C837 1.393 . S
C841 C840 1.391 . S
C842 H832 0.950 . S
C842 C843 1.386 . S
C842 C844 1.391 . S
C843 C842 1.386 . S
C843 C847 1.393 . S
C844 H833 0.950 . S
C844 C842 1.391 . S
C844 C845 1.400 . S
C845 C839 1.491 . S
C845 C844 1.400 . S
C845 C846 1.398 . S
C846 H834 0.950 . S
C846 C845 1.398 . S
C846 C847 1.391 . S
C847 H835 0.950 . S
C847 C843 1.393 . S
C847 C846 1.391 . S
H848 C856 0.950 . S
H849 C861 0.950 . S
H850 C858 0.950 . S
H851 C860 0.950 . S
H852 C862 0.950 . S
H853 C864 0.950 . S
H854 C866 0.950 . S
H855 C867 0.950 . S
C856 H848 0.950 . S
C856 C857 1.386 . S
C856 C858 1.391 1_565 S
C857 C856 1.386 . S
C857 C861 1.393 . S
C858 H850 0.950 . S
C858 C856 1.391 1_545 S
C858 C859 1.400 . S
C859 C858 1.400 . S
C859 C860 1.398 1_545 S
C859 C865 1.491 . S
C860 H851 0.950 . S
C860 C859 1.398 1_565 S
C860 C861 1.391 . S
C861 H849 0.950 . S
C861 C857 1.393 . S
C861 C860 1.391 . S
C862 H852 0.950 . S
C862 C863 1.386 . S
C862 C864 1.391 . S
C863 C862 1.386 . S
C863 C867 1.393 . S
C864 H853 0.950 . S
C864 C862 1.391 . S
C864 C865 1.400 . S
C865 C859 1.491 . S
C865 C864 1.400 . S
C865 C866 1.398 . S
C866 H854 0.950 . S
C866 C865 1.398 . S
C866 C867 1.391 . S
C867 H855 0.950 . S
C867 C863 1.393 . S
C867 C866 1.391 . S
H868 C876 0.950 . S
H869 C881 0.950 . S
H870 C878 0.950 . S
H871 C880 0.950 . S
H872 C882 0.950 . S
H873 C884 0.950 . S
H874 C886 0.950 . S
H875 C887 0.950 . S
C876 H868 0.950 . S
C876 C877 1.386 . S
C876 C878 1.391 . S
C877 C876 1.386 . S
C877 C881 1.393 . S
C878 H870 0.950 . S
C878 C876 1.391 . S
C878 C879 1.400 . S
C879 C878 1.400 . S
C879 C880 1.398 . S
C879 C885 1.491 . S
C880 H871 0.950 . S
C880 C879 1.398 . S
C880 C881 1.391 . S
C881 H869 0.950 . S
C881 C877 1.393 . S
C881 C880 1.391 . S
C882 H872 0.950 . S
C882 C883 1.386 . S
C882 C884 1.391 . S
C883 C882 1.386 . S
C883 C887 1.393 . S
C884 H873 0.950 . S
C884 C882 1.391 . S
C884 C885 1.400 . S
C885 C879 1.491 . S
C885 C884 1.400 . S
C885 C886 1.398 . S
C886 H874 0.950 . S
C886 C885 1.398 . S
C886 C887 1.391 . S
C887 H875 0.950 . S
C887 C883 1.393 . S
C887 C886 1.391 . S
H888 C896 0.950 . S
H889 C901 0.950 . S
H890 C898 0.950 . S
H891 C900 0.950 . S
H892 C902 0.943 1_556 S
H893 C904 0.950 . S
H894 C906 0.950 . S
H895 C907 0.950 . S
C896 H888 0.950 . S
C896 C897 1.386 . S
C896 C898 1.391 . S
C897 C896 1.386 . S
C897 C901 1.393 . S
C898 H890 0.950 . S
C898 C896 1.391 . S
C898 C899 1.400 . S
C899 C898 1.400 . S
C899 C900 1.398 . S
C899 C905 1.491 . S
C900 H891 0.950 . S
C900 C899 1.398 . S
C900 C901 1.391 . S
C901 H889 0.950 . S
C901 C897 1.393 . S
C901 C900 1.391 . S
C902 H892 0.943 1_554 S
C902 C903 1.385 1_554 S
C902 C904 1.398 1_545 S
C903 C902 1.385 1_556 S
C903 C907 1.380 1_556 S
C904 H893 0.950 . S
C904 C902 1.398 1_565 S
C904 C905 1.400 . S
C905 C899 1.491 . S
C905 C904 1.400 . S
C905 C906 1.398 . S
C906 H894 0.950 . S
C906 C905 1.398 . S
C906 C907 1.391 1_565 S
C907 H895 0.950 . S
C907 C903 1.380 1_554 S
C907 C906 1.391 1_545 S
H908 C916 0.950 . S
H909 C921 0.950 . S
H910 C918 0.950 . S
H911 C920 0.950 . S
H912 C922 0.950 . S
H913 C924 0.950 . S
H914 C926 0.950 . S
H915 C927 0.950 . S
C916 H908 0.950 . S
C916 C917 1.386 . S
C916 C918 1.391 . S
C917 C916 1.386 . S
C917 C921 1.393 . S
C918 H910 0.950 . S
C918 C916 1.391 . S
C918 C919 1.400 . S
C919 C918 1.400 . S
C919 C920 1.398 . S
C919 C925 1.491 . S
C920 H911 0.950 . S
C920 C919 1.398 . S
C920 C921 1.391 . S
C921 H909 0.950 . S
C921 C917 1.393 . S
C921 C920 1.391 . S
C922 H912 0.950 . S
C922 C923 1.386 . S
C922 C924 1.391 . S
C923 C922 1.386 . S
C923 C927 1.393 . S
C924 H913 0.950 . S
C924 C922 1.391 . S
C924 C925 1.400 . S
C925 C919 1.491 . S
C925 C924 1.400 . S
C925 C926 1.398 . S
C926 H914 0.950 . S
C926 C925 1.398 . S
C926 C927 1.391 . S
C927 H915 0.950 . S
C927 C923 1.393 . S
C927 C926 1.391 . S
H928 C936 0.950 . S
H929 C941 0.950 . S
H930 C938 0.950 . S
H931 C940 0.950 . S
H932 C942 0.950 . S
H933 C944 0.950 . S
H934 C946 0.950 . S
H935 C947 0.950 . S
C936 H928 0.950 . S
C936 C937 1.386 . S
C936 C938 1.391 . S
C937 C936 1.386 . S
C937 C941 1.393 . S
C938 H930 0.950 . S
C938 C936 1.391 . S
C938 C939 1.400 . S
C939 C938 1.400 . S
C939 C940 1.398 . S
C939 C945 1.491 . S
C940 H931 0.950 . S
C940 C939 1.398 . S
C940 C941 1.391 . S
C941 H929 0.950 . S
C941 C937 1.393 . S
C941 C940 1.391 . S
C942 H932 0.950 . S
C942 C943 1.386 . S
C942 C944 1.391 . S
C943 C942 1.386 . S
C943 C947 1.393 . S
C944 H933 0.950 . S
C944 C942 1.391 . S
C944 C945 1.400 . S
C945 C939 1.491 . S
C945 C944 1.400 . S
C945 C946 1.398 . S
C946 H934 0.950 . S
C946 C945 1.398 . S
C946 C947 1.391 . S
C947 H935 0.950 . S
C947 C943 1.393 . S
C947 C946 1.391 . S
H948 C956 0.950 . S
H949 C961 0.950 . S
H950 C958 0.950 . S
H951 C960 0.950 . S
H952 C962 0.950 . S
H953 C964 0.950 . S
H954 C966 0.950 . S
H955 C967 0.950 . S
C956 H948 0.950 . S
C956 C957 1.386 . S
C956 C958 1.391 . S
C957 C956 1.386 . S
C957 C961 1.393 . S
C958 H950 0.950 . S
C958 C956 1.391 . S
C958 C959 1.400 . S
C959 C958 1.400 . S
C959 C960 1.398 . S
C959 C965 1.491 . S
C960 H951 0.950 . S
C960 C959 1.398 . S
C960 C961 1.391 . S
C961 H949 0.950 . S
C961 C957 1.393 . S
C961 C960 1.391 . S
C962 H952 0.950 . S
C962 C963 1.386 . S
C962 C964 1.391 . S
C963 C962 1.386 . S
C963 C967 1.393 . S
C964 H953 0.950 . S
C964 C962 1.391 . S
C964 C965 1.400 . S
C965 C959 1.491 . S
C965 C964 1.400 . S
C965 C966 1.398 . S
C966 H954 0.950 . S
C966 C965 1.398 . S
C966 C967 1.391 . S
C967 H955 0.950 . S
C967 C963 1.393 . S
C967 C966 1.391 . S
H968 C976 0.950 . S
H969 C981 0.950 . S
H970 C978 0.950 . S
H971 C980 0.950 . S
H972 C982 0.947 1_556 S
H973 C984 0.950 1_655 S
H974 C986 0.950 . S
H975 C987 0.950 . S
C976 H968 0.950 . S
C976 C977 1.386 . S
C976 C978 1.391 . S
C977 C976 1.386 . S
C977 C981 1.393 . S
C978 H970 0.950 . S
C978 C976 1.391 . S
C978 C979 1.400 . S
C979 C978 1.400 . S
C979 C980 1.398 . S
C979 C985 1.491 . S
C980 H971 0.950 . S
C980 C979 1.398 . S
C980 C981 1.391 . S
C981 H969 0.950 . S
C981 C977 1.393 . S
C981 C980 1.391 . S
C982 H972 0.947 1_554 S
C982 C983 1.400 1_655 S
C982 C984 1.373 1_654 S
C983 C982 1.400 1_455 S
C983 C987 1.406 . S
C984 H973 0.950 1_455 S
C984 C982 1.373 1_456 S
C984 C985 1.400 . S
C985 C979 1.491 . S
C985 C984 1.400 . S
C985 C986 1.398 1_556 S
C986 H974 0.950 . S
C986 C985 1.398 1_554 S
C986 C987 1.391 . S
C987 H975 0.950 . S
C987 C983 1.406 . S
C987 C986 1.391 . S
H988 C996 0.950 . S
H989 C1001 0.950 . S
H990 C998 0.950 . S
H991 C1000 0.950 . S
H992 C1002 0.950 . S
H993 C1004 0.950 . S
H994 C1006 0.950 . S
H995 C1007 0.950 . S
C996 H988 0.950 . S
C996 C997 1.386 . S
C996 C998 1.391 . S
C997 C996 1.386 . S
C997 C1001 1.393 . S
C998 H990 0.950 . S
C998 C996 1.391 . S
C998 C999 1.400 . S
C999 C998 1.400 . S
C999 C1000 1.398 . S
C999 C1005 1.491 . S
C1000 H991 0.950 . S
C1000 C999 1.398 . S
C1000 C1001 1.391 . S
C1001 H989 0.950 . S
C1001 C997 1.393 . S
C1001 C1000 1.391 . S
C1002 H992 0.950 . S
C1002 C1003 1.386 . S
C1002 C1004 1.391 . S
C1003 C1002 1.386 . S
C1003 C1007 1.393 . S
C1004 H993 0.950 . S
C1004 C1002 1.391 . S
C1004 C1005 1.400 . S
C1005 C999 1.491 . S
C1005 C1004 1.400 . S
C1005 C1006 1.398 . S
C1006 H994 0.950 . S
C1006 C1005 1.398 . S
C1006 C1007 1.391 . S
C1007 H995 0.950 . S
C1007 C1003 1.393 . S
C1007 C1006 1.391 . S
H1008 C1016 0.950 . S
H1009 C1021 0.950 . S
H1010 C1018 0.950 . S
H1011 C1020 0.950 1_455 S
H1012 C1022 0.950 . S
H1013 C1024 0.950 . S
H1014 C1026 0.950 . S
H1015 C1027 0.950 . S
C1016 H1008 0.950 . S
C1016 C1017 1.380 1_655 S
C1016 C1018 1.391 . S
C1017 C1016 1.380 1_455 S
C1017 C1021 1.395 . S
C1018 H1010 0.950 . S
C1018 C1016 1.391 . S
C1018 C1019 1.400 . S
C1019 C1018 1.400 . S
C1019 C1020 1.398 . S
C1019 C1025 1.491 . S
C1020 H1011 0.950 1_655 S
C1020 C1019 1.398 . S
C1020 C1021 1.391 1_655 S
C1021 H1009 0.950 . S
C1021 C1017 1.395 . S
C1021 C1020 1.391 1_455 S
C1022 H1012 0.950 . S
C1022 C1023 1.386 . S
C1022 C1024 1.391 . S
C1023 C1022 1.386 . S
C1023 C1027 1.393 . S
C1024 H1013 0.950 . S
C1024 C1022 1.391 . S
C1024 C1025 1.400 . S
C1025 C1019 1.491 . S
C1025 C1024 1.400 . S
C1025 C1026 1.398 . S
C1026 H1014 0.950 . S
C1026 C1025 1.398 . S
C1026 C1027 1.391 . S
C1027 H1015 0.950 . S
C1027 C1023 1.393 . S
C1027 C1026 1.391 . S
H1028 C1036 0.950 . S
H1029 C1041 0.950 . S
H1030 C1038 0.950 . S
H1031 C1040 0.950 . S
H1032 C1042 0.950 . S
H1033 C1044 0.950 . S
H1034 C1046 0.950 . S
H1035 C1047 0.950 . S
C1036 H1028 0.950 . S
C1036 C1037 1.386 . S
C1036 C1038 1.391 . S
C1037 C1036 1.386 . S
C1037 C1041 1.393 . S
C1038 H1030 0.950 . S
C1038 C1036 1.391 . S
C1038 C1039 1.400 . S
C1039 C1038 1.400 . S
C1039 C1040 1.398 . S
C1039 C1045 1.491 . S
C1040 H1031 0.950 . S
C1040 C1039 1.398 . S
C1040 C1041 1.391 . S
C1041 H1029 0.950 . S
C1041 C1037 1.393 . S
C1041 C1040 1.391 . S
C1042 H1032 0.950 . S
C1042 C1043 1.386 . S
C1042 C1044 1.391 . S
C1043 C1042 1.386 . S
C1043 C1047 1.393 . S
C1044 H1033 0.950 . S
C1044 C1042 1.391 . S
C1044 C1045 1.400 . S
C1045 C1039 1.491 . S
C1045 C1044 1.400 . S
C1045 C1046 1.398 . S
C1046 H1034 0.950 . S
C1046 C1045 1.398 . S
C1046 C1047 1.391 . S
C1047 H1035 0.950 . S
C1047 C1043 1.393 . S
C1047 C1046 1.391 . S
H1048 C1056 0.950 . S
H1049 C1061 0.950 . S
H1050 C1058 0.950 . S
H1051 C1060 0.950 . S
H1052 C1062 0.950 . S
H1053 C1064 0.950 . S
H1054 C1066 0.950 . S
H1055 C1067 0.950 . S
C1056 H1048 0.950 . S
C1056 C1057 1.386 . S
C1056 C1058 1.391 . S
C1057 C1056 1.386 . S
C1057 C1061 1.393 . S
C1058 H1050 0.950 . S
C1058 C1056 1.391 . S
C1058 C1059 1.400 . S
C1059 C1058 1.400 . S
C1059 C1060 1.398 . S
C1059 C1065 1.491 . S
C1060 H1051 0.950 . S
C1060 C1059 1.398 . S
C1060 C1061 1.391 . S
C1061 H1049 0.950 . S
C1061 C1057 1.393 . S
C1061 C1060 1.391 . S
C1062 H1052 0.950 . S
C1062 C1063 1.386 . S
C1062 C1064 1.391 1_556 S
C1063 C1062 1.386 . S
C1063 C1067 1.393 . S
C1064 H1053 0.950 . S
C1064 C1062 1.391 1_554 S
C1064 C1065 1.400 . S
C1065 C1059 1.491 . S
C1065 C1064 1.400 . S
C1065 C1066 1.398 . S
C1066 H1054 0.950 . S
C1066 C1065 1.398 . S
C1066 C1067 1.391 1_554 S
C1067 H1055 0.950 . S
C1067 C1063 1.393 . S
C1067 C1066 1.391 1_556 S
H1068 C1076 0.950 . S
H1069 C1081 0.950 . S
H1070 C1078 0.950 . S
H1071 C1080 0.950 . S
H1072 C1082 0.950 . S
H1073 C1084 0.950 . S
H1074 C1086 0.950 . S
H1075 C1087 0.950 . S
C1076 H1068 0.950 . S
C1076 C1077 1.386 . S
C1076 C1078 1.391 . S
C1077 C1076 1.386 . S
C1077 C1081 1.393 . S
C1078 H1070 0.950 . S
C1078 C1076 1.391 . S
C1078 C1079 1.400 . S
C1079 C1078 1.400 . S
C1079 C1080 1.398 . S
C1079 C1085 1.491 . S
C1080 H1071 0.950 . S
C1080 C1079 1.398 . S
C1080 C1081 1.391 . S
C1081 H1069 0.950 . S
C1081 C1077 1.393 . S
C1081 C1080 1.391 . S
C1082 H1072 0.950 . S
C1082 C1083 1.386 . S
C1082 C1084 1.391 . S
C1083 C1082 1.386 . S
C1083 C1087 1.393 . S
C1084 H1073 0.950 . S
C1084 C1082 1.391 . S
C1084 C1085 1.400 . S
C1085 C1079 1.491 . S
C1085 C1084 1.400 . S
C1085 C1086 1.398 . S
C1086 H1074 0.950 . S
C1086 C1085 1.398 . S
C1086 C1087 1.391 . S
C1087 H1075 0.950 . S
C1087 C1083 1.393 . S
C1087 C1086 1.391 . S
H1088 C1096 0.950 . S
H1089 C1101 0.950 . S
H1090 C1098 0.950 . S
H1091 C1100 0.950 . S
H1092 C1102 0.950 . S
H1093 C1104 0.950 . S
H1094 C1106 0.950 . S
H1095 C1107 0.950 . S
C1096 H1088 0.950 . S
C1096 C1097 1.386 . S
C1096 C1098 1.391 . S
C1097 C1096 1.386 . S
C1097 C1101 1.393 . S
C1098 H1090 0.950 . S
C1098 C1096 1.391 . S
C1098 C1099 1.400 . S
C1099 C1098 1.400 . S
C1099 C1100 1.398 . S
C1099 C1105 1.491 . S
C1100 H1091 0.950 . S
C1100 C1099 1.398 . S
C1100 C1101 1.391 . S
C1101 H1089 0.950 . S
C1101 C1097 1.393 . S
C1101 C1100 1.391 . S
C1102 H1092 0.950 . S
C1102 C1103 1.386 . S
C1102 C1104 1.391 . S
C1103 C1102 1.386 . S
C1103 C1107 1.393 . S
C1104 H1093 0.950 . S
C1104 C1102 1.391 . S
C1104 C1105 1.400 . S
C1105 C1099 1.491 . S
C1105 C1104 1.400 . S
C1105 C1106 1.398 . S
C1106 H1094 0.950 . S
C1106 C1105 1.398 . S
C1106 C1107 1.391 . S
C1107 H1095 0.950 . S
C1107 C1103 1.393 . S
C1107 C1106 1.391 . S
H1108 C1116 0.949 . S
H1109 C1121 0.950 . S
H1110 C1118 0.950 1_565 S
H1111 C1120 0.950 . S
H1112 C1122 0.950 . S
H1113 C1124 0.950 . S
H1114 C1126 0.950 . S
H1115 C1127 0.950 . S
C1116 H1108 0.949 . S
C1116 C1117 1.389 1_655 S
C1116 C1118 1.389 1_565 S
C1117 C1116 1.389 1_455 S
C1117 C1121 1.391 1_565 S
C1118 H1110 0.950 1_545 S
C1118 C1116 1.389 1_545 S
C1118 C1119 1.400 . S
C1119 C1118 1.400 . S
C1119 C1120 1.398 1_655 S
C1119 C1125 1.491 . S
C1120 H1111 0.950 . S
C1120 C1119 1.398 1_455 S
C1120 C1121 1.391 . S
C1121 H1109 0.950 . S
C1121 C1117 1.391 1_545 S
C1121 C1120 1.391 . S
C1122 H1112 0.950 . S
C1122 C1123 1.386 . S
C1122 C1124 1.391 . S
C1123 C1122 1.386 . S
C1123 C1127 1.393 . S
C1124 H1113 0.950 . S
C1124 C1122 1.391 . S
C1124 C1125 1.400 . S
C1125 C1119 1.491 . S
C1125 C1124 1.400 . S
C1125 C1126 1.398 . S
C1126 H1114 0.950 . S
C1126 C1125 1.398 . S
C1126 C1127 1.391 . S
C1127 H1115 0.950 . S
C1127 C1123 1.393 . S
C1127 C1126 1.391 . S
H1128 C1136 0.950 . S
H1129 C1141 0.950 . S
H1130 C1138 0.950 . S
H1131 C1140 0.950 . S
H1132 C1142 0.950 . S
H1133 C1144 0.950 . S
H1134 C1146 0.950 . S
H1135 C1147 0.950 . S
C1136 H1128 0.950 . S
C1136 C1137 1.386 . S
C1136 C1138 1.391 . S
C1137 C1136 1.386 . S
C1137 C1141 1.393 . S
C1138 H1130 0.950 . S
C1138 C1136 1.391 . S
C1138 C1139 1.400 . S
C1139 C1138 1.400 . S
C1139 C1140 1.398 . S
C1139 C1145 1.491 . S
C1140 H1131 0.950 . S
C1140 C1139 1.398 . S
C1140 C1141 1.391 . S
C1141 H1129 0.950 . S
C1141 C1137 1.393 . S
C1141 C1140 1.391 . S
C1142 H1132 0.950 . S
C1142 C1143 1.386 . S
C1142 C1144 1.391 . S
C1143 C1142 1.386 . S
C1143 C1147 1.393 . S
C1144 H1133 0.950 . S
C1144 C1142 1.391 . S
C1144 C1145 1.400 . S
C1145 C1139 1.491 . S
C1145 C1144 1.400 . S
C1145 C1146 1.398 . S
C1146 H1134 0.950 . S
C1146 C1145 1.398 . S
C1146 C1147 1.391 . S
C1147 H1135 0.950 . S
C1147 C1143 1.393 . S
C1147 C1146 1.391 . S
H1148 C1156 0.950 . S
H1149 C1161 0.950 . S
H1150 C1158 0.950 . S
H1151 C1160 0.950 1_545 S
H1152 C1162 0.950 . S
H1153 C1164 0.950 . S
H1154 C1166 0.950 . S
H1155 C1167 0.950 . S
C1156 H1148 0.950 . S
C1156 C1157 1.382 1_565 S
C1156 C1158 1.391 . S
C1157 C1156 1.382 1_545 S
C1157 C1161 1.394 . S
C1158 H1150 0.950 . S
C1158 C1156 1.391 . S
C1158 C1159 1.400 . S
C1159 C1158 1.400 . S
C1159 C1160 1.398 . S
C1159 C1165 1.491 . S
C1160 H1151 0.950 1_565 S
C1160 C1159 1.398 . S
C1160 C1161 1.391 1_565 S
C1161 H1149 0.950 . S
C1161 C1157 1.394 . S
C1161 C1160 1.391 1_545 S
C1162 H1152 0.950 . S
C1162 C1163 1.386 . S
C1162 C1164 1.391 . S
C1163 C1162 1.386 . S
C1163 C1167 1.393 . S
C1164 H1153 0.950 . S
C1164 C1162 1.391 . S
C1164 C1165 1.400 . S
C1165 C1159 1.491 . S
C1165 C1164 1.400 . S
C1165 C1166 1.398 . S
C1166 H1154 0.950 . S
C1166 C1165 1.398 . S
C1166 C1167 1.391 . S
C1167 H1155 0.950 . S
C1167 C1163 1.393 . S
C1167 C1166 1.391 . S
H1168 C1176 0.950 . S
H1169 C1181 0.950 . S
H1170 C1178 0.950 . S
H1171 C1180 0.950 . S
H1172 C1182 0.950 . S
H1173 C1184 0.950 . S
H1174 C1186 0.950 . S
H1175 C1187 0.950 . S
C1176 H1168 0.950 . S
C1176 C1177 1.386 . S
C1176 C1178 1.391 . S
C1177 C1176 1.386 . S
C1177 C1181 1.393 . S
C1178 H1170 0.950 . S
C1178 C1176 1.391 . S
C1178 C1179 1.400 . S
C1179 C1178 1.400 . S
C1179 C1180 1.398 . S
C1179 C1185 1.491 . S
C1180 H1171 0.950 . S
C1180 C1179 1.398 . S
C1180 C1181 1.391 . S
C1181 H1169 0.950 . S
C1181 C1177 1.393 . S
C1181 C1180 1.391 . S
C1182 H1172 0.950 . S
C1182 C1183 1.386 . S
C1182 C1184 1.391 . S
C1183 C1182 1.386 . S
C1183 C1187 1.393 . S
C1184 H1173 0.950 . S
C1184 C1182 1.391 . S
C1184 C1185 1.400 . S
C1185 C1179 1.491 . S
C1185 C1184 1.400 . S
C1185 C1186 1.398 . S
C1186 H1174 0.950 . S
C1186 C1185 1.398 . S
C1186 C1187 1.391 . S
C1187 H1175 0.950 . S
C1187 C1183 1.393 . S
C1187 C1186 1.391 . S
H1188 C1196 0.950 . S
H1189 C1201 0.951 . S
H1190 C1198 0.950 . S
H1191 C1200 0.950 . S
H1192 C1202 0.950 . S
H1193 C1204 0.950 . S
H1194 C1206 0.950 . S
H1195 C1207 0.950 . S
C1196 H1188 0.950 . S
C1196 C1197 1.386 . S
C1196 C1198 1.391 . S
C1197 C1196 1.386 . S
C1197 C1201 1.382 1_655 S
C1198 H1190 0.950 . S
C1198 C1196 1.391 . S
C1198 C1199 1.400 1_655 S
C1199 C1198 1.400 1_455 S
C1199 C1200 1.398 . S
C1199 C1205 1.491 . S
C1200 H1191 0.950 . S
C1200 C1199 1.398 . S
C1200 C1201 1.400 . S
C1201 H1189 0.951 . S
C1201 C1197 1.382 1_455 S
C1201 C1200 1.400 . S
C1202 H1192 0.950 . S
C1202 C1203 1.386 . S
C1202 C1204 1.391 . S
C1203 C1202 1.386 . S
C1203 C1207 1.393 . S
C1204 H1193 0.950 . S
C1204 C1202 1.391 . S
C1204 C1205 1.400 . S
C1205 C1199 1.491 . S
C1205 C1204 1.400 . S
C1205 C1206 1.398 . S
C1206 H1194 0.950 . S
C1206 C1205 1.398 . S
C1206 C1207 1.391 . S
C1207 H1195 0.950 . S
C1207 C1203 1.393 . S
C1207 C1206 1.391 . S
H1208 C1216 0.950 . S
H1209 C1221 0.950 . S
H1210 C1218 0.950 . S
H1211 C1220 0.950 . S
H1212 C1222 0.950 . S
H1213 C1224 0.950 . S
H1214 C1226 0.950 . S
H1215 C1227 0.950 . S
C1216 H1208 0.950 . S
C1216 C1217 1.386 . S
C1216 C1218 1.391 . S
C1217 C1216 1.386 . S
C1217 C1221 1.393 . S
C1218 H1210 0.950 . S
C1218 C1216 1.391 . S
C1218 C1219 1.400 . S
C1219 C1218 1.400 . S
C1219 C1220 1.398 . S
C1219 C1225 1.491 . S
C1220 H1211 0.950 . S
C1220 C1219 1.398 . S
C1220 C1221 1.391 . S
C1221 H1209 0.950 . S
C1221 C1217 1.393 . S
C1221 C1220 1.391 . S
C1222 H1212 0.950 . S
C1222 C1223 1.386 . S
C1222 C1224 1.391 . S
C1223 C1222 1.386 . S
C1223 C1227 1.393 . S
C1224 H1213 0.950 . S
C1224 C1222 1.391 . S
C1224 C1225 1.400 . S
C1225 C1219 1.491 . S
C1225 C1224 1.400 . S
C1225 C1226 1.398 . S
C1226 H1214 0.950 . S
C1226 C1225 1.398 . S
C1226 C1227 1.391 . S
C1227 H1215 0.950 . S
C1227 C1223 1.393 . S
C1227 C1226 1.391 . S
H1228 C1236 0.950 . S
H1229 C1241 0.950 . S
H1230 C1238 0.950 . S
H1231 C1240 0.950 . S
H1232 C1242 0.950 . S
H1233 C1244 0.950 . S
H1234 C1246 0.950 . S
H1235 C1247 0.950 . S
C1236 H1228 0.950 . S
C1236 C1237 1.386 . S
C1236 C1238 1.391 . S
C1237 C1236 1.386 . S
C1237 C1241 1.393 . S
C1238 H1230 0.950 . S
C1238 C1236 1.391 . S
C1238 C1239 1.400 . S
C1239 C1238 1.400 . S
C1239 C1240 1.398 . S
C1239 C1245 1.491 . S
C1240 H1231 0.950 . S
C1240 C1239 1.398 . S
C1240 C1241 1.391 . S
C1241 H1229 0.950 . S
C1241 C1237 1.393 . S
C1241 C1240 1.391 . S
C1242 H1232 0.950 . S
C1242 C1243 1.386 . S
C1242 C1244 1.391 . S
C1243 C1242 1.386 . S
C1243 C1247 1.393 . S
C1244 H1233 0.950 . S
C1244 C1242 1.391 . S
C1244 C1245 1.400 . S
C1245 C1239 1.491 . S
C1245 C1244 1.400 . S
C1245 C1246 1.398 . S
C1246 H1234 0.950 . S
C1246 C1245 1.398 . S
C1246 C1247 1.391 . S
C1247 H1235 0.950 . S
C1247 C1243 1.393 . S
C1247 C1246 1.391 . S
H1248 C1256 0.950 . S
H1249 C1261 0.950 . S
H1250 C1258 0.950 . S
H1251 C1260 0.950 . S
H1252 C1262 0.950 . S
H1253 C1264 0.950 . S
H1254 C1266 0.950 . S
H1255 C1267 0.950 . S
C1256 H1248 0.950 . S
C1256 C1257 1.386 . S
C1256 C1258 1.391 . S
C1257 C1256 1.386 . S
C1257 C1261 1.393 . S
C1258 H1250 0.950 . S
C1258 C1256 1.391 . S
C1258 C1259 1.400 . S
C1259 C1258 1.400 . S
C1259 C1260 1.398 . S
C1259 C1265 1.491 . S
C1260 H1251 0.950 . S
C1260 C1259 1.398 . S
C1260 C1261 1.391 . S
C1261 H1249 0.950 . S
C1261 C1257 1.393 . S
C1261 C1260 1.391 . S
C1262 H1252 0.950 . S
C1262 C1263 1.386 . S
C1262 C1264 1.391 . S
C1263 C1262 1.386 . S
C1263 C1267 1.393 . S
C1264 H1253 0.950 . S
C1264 C1262 1.391 . S
C1264 C1265 1.400 . S
C1265 C1259 1.491 . S
C1265 C1264 1.400 . S
C1265 C1266 1.398 . S
C1266 H1254 0.950 . S
C1266 C1265 1.398 . S
C1266 C1267 1.391 . S
C1267 H1255 0.950 . S
C1267 C1263 1.393 . S
C1267 C1266 1.391 . S
H1268 C1276 0.950 . S
H1269 C1281 0.950 . S
H1270 C1278 0.950 . S
H1271 C1280 0.950 . S
H1272 C1282 0.950 . S
H1273 C1284 0.950 . S
H1274 C1286 0.950 . S
H1275 C1287 0.950 . S
C1276 H1268 0.950 . S
C1276 C1277 1.386 . S
C1276 C1278 1.391 . S
C1277 C1276 1.386 . S
C1277 C1281 1.393 . S
C1278 H1270 0.950 . S
C1278 C1276 1.391 . S
C1278 C1279 1.400 . S
C1279 C1278 1.400 . S
C1279 C1280 1.398 . S
C1279 C1285 1.491 . S
C1280 H1271 0.950 . S
C1280 C1279 1.398 . S
C1280 C1281 1.391 . S
C1281 H1269 0.950 . S
C1281 C1277 1.393 . S
C1281 C1280 1.391 . S
C1282 H1272 0.950 . S
C1282 C1283 1.386 . S
C1282 C1284 1.391 . S
C1283 C1282 1.386 . S
C1283 C1287 1.393 . S
C1284 H1273 0.950 . S
C1284 C1282 1.391 . S
C1284 C1285 1.400 . S
C1285 C1279 1.491 . S
C1285 C1284 1.400 . S
C1285 C1286 1.398 . S
C1286 H1274 0.950 . S
C1286 C1285 1.398 . S
C1286 C1287 1.391 . S
C1287 H1275 0.950 . S
C1287 C1283 1.393 . S
C1287 C1286 1.391 . S
H1288 C1296 0.950 . S
H1289 C1301 0.950 . S
H1290 C1298 0.950 . S
H1291 C1300 0.950 . S
H1292 C1302 0.950 . S
H1293 C1304 0.950 . S
H1294 C1306 0.950 . S
H1295 C1307 0.950 . S
C1296 H1288 0.950 . S
C1296 C1297 1.386 . S
C1296 C1298 1.391 . S
C1297 C1296 1.386 . S
C1297 C1301 1.393 . S
C1298 H1290 0.950 . S
C1298 C1296 1.391 . S
C1298 C1299 1.400 . S
C1299 C1298 1.400 . S
C1299 C1300 1.398 . S
C1299 C1305 1.491 . S
C1300 H1291 0.950 . S
C1300 C1299 1.398 . S
C1300 C1301 1.391 . S
C1301 H1289 0.950 . S
C1301 C1297 1.393 . S
C1301 C1300 1.391 . S
C1302 H1292 0.950 . S
C1302 C1303 1.386 . S
C1302 C1304 1.391 . S
C1303 C1302 1.386 . S
C1303 C1307 1.393 . S
C1304 H1293 0.950 . S
C1304 C1302 1.391 . S
C1304 C1305 1.400 . S
C1305 C1299 1.491 . S
C1305 C1304 1.400 . S
C1305 C1306 1.398 . S
C1306 H1294 0.950 . S
C1306 C1305 1.398 . S
C1306 C1307 1.391 . S
C1307 H1295 0.950 . S
C1307 C1303 1.393 . S
C1307 C1306 1.391 . S
H1308 C1316 0.950 . S
H1309 C1321 0.950 . S
H1310 C1318 0.950 1_556 S
H1311 C1320 0.950 . S
H1312 C1322 0.950 . S
H1313 C1324 0.950 . S
H1314 C1326 0.950 . S
H1315 C1327 0.950 . S
C1316 H1308 0.950 . S
C1316 C1317 1.386 . S
C1316 C1318 1.391 . S
C1317 C1316 1.386 . S
C1317 C1321 1.393 . S
C1318 H1310 0.950 1_554 S
C1318 C1316 1.391 . S
C1318 C1319 1.400 . S
C1319 C1318 1.400 . S
C1319 C1320 1.398 . S
C1319 C1325 1.491 . S
C1320 H1311 0.950 . S
C1320 C1319 1.398 . S
C1320 C1321 1.391 . S
C1321 H1309 0.950 . S
C1321 C1317 1.393 . S
C1321 C1320 1.391 . S
C1322 H1312 0.950 . S
C1322 C1323 1.386 1_554 S
C1322 C1324 1.391 . S
C1323 C1322 1.386 1_556 S
C1323 C1327 1.393 . S
C1324 H1313 0.950 . S
C1324 C1322 1.391 . S
C1324 C1325 1.400 . S
C1325 C1319 1.491 . S
C1325 C1324 1.400 . S
C1325 C1326 1.398 1_554 S
C1326 H1314 0.950 . S
C1326 C1325 1.398 1_556 S
C1326 C1327 1.391 . S
C1327 H1315 0.950 . S
C1327 C1323 1.393 . S
C1327 C1326 1.391 . S
H1328 C1336 0.950 . S
H1329 C1341 0.950 . S
H1330 C1338 0.950 . S
H1331 C1340 0.950 . S
H1332 C1342 0.950 . S
H1333 C1344 0.950 . S
H1334 C1346 0.950 . S
H1335 C1347 0.950 . S
C1336 H1328 0.950 . S
C1336 C1337 1.386 . S
C1336 C1338 1.391 1_565 S
C1337 C1336 1.386 . S
C1337 C1341 1.393 . S
C1338 H1330 0.950 . S
C1338 C1336 1.391 1_545 S
C1338 C1339 1.400 . S
C1339 C1338 1.400 . S
C1339 C1340 1.398 . S
C1339 C1345 1.491 . S
C1340 H1331 0.950 . S
C1340 C1339 1.398 . S
C1340 C1341 1.391 1_545 S
C1341 H1329 0.950 . S
C1341 C1337 1.393 . S
C1341 C1340 1.391 1_565 S
C1342 H1332 0.950 . S
C1342 C1343 1.386 . S
C1342 C1344 1.391 . S
C1343 C1342 1.386 . S
C1343 C1347 1.393 . S
C1344 H1333 0.950 . S
C1344 C1342 1.391 . S
C1344 C1345 1.400 . S
C1345 C1339 1.491 . S
C1345 C1344 1.400 . S
C1345 C1346 1.398 . S
C1346 H1334 0.950 . S
C1346 C1345 1.398 . S
C1346 C1347 1.391 . S
C1347 H1335 0.950 . S
C1347 C1343 1.393 . S
C1347 C1346 1.391 . S
H1348 C1356 0.950 . S
H1349 C1361 0.950 . S
H1350 C1358 0.950 . S
H1351 C1360 0.950 . S
H1352 C1362 0.950 . S
H1353 C1364 0.950 . S
H1354 C1366 0.950 . S
H1355 C1367 0.950 . S
C1356 H1348 0.950 . S
C1356 C1357 1.386 . S
C1356 C1358 1.391 . S
C1357 C1356 1.386 . S
C1357 C1361 1.393 1_554 S
C1358 H1350 0.950 . S
C1358 C1356 1.391 . S
C1358 C1359 1.400 1_554 S
C1359 C1358 1.400 1_556 S
C1359 C1360 1.398 . S
C1359 C1365 1.491 . S
C1360 H1351 0.950 . S
C1360 C1359 1.398 . S
C1360 C1361 1.391 . S
C1361 H1349 0.950 . S
C1361 C1357 1.393 1_556 S
C1361 C1360 1.391 . S
C1362 H1352 0.950 . S
C1362 C1363 1.386 . S
C1362 C1364 1.391 . S
C1363 C1362 1.386 . S
C1363 C1367 1.393 . S
C1364 H1353 0.950 . S
C1364 C1362 1.391 . S
C1364 C1365 1.400 . S
C1365 C1359 1.491 . S
C1365 C1364 1.400 . S
C1365 C1366 1.398 . S
C1366 H1354 0.950 . S
C1366 C1365 1.398 . S
C1366 C1367 1.391 . S
C1367 H1355 0.950 . S
C1367 C1363 1.393 . S
C1367 C1366 1.391 . S
H1368 C1376 0.950 . S
H1369 C1381 0.950 . S
H1370 C1378 0.950 . S
H1371 C1380 0.950 . S
H1372 C1382 0.950 . S
H1373 C1384 0.950 . S
H1374 C1386 0.950 . S
H1375 C1387 0.950 . S
C1376 H1368 0.950 . S
C1376 C1377 1.386 . S
C1376 C1378 1.391 1_545 S
C1377 C1376 1.386 . S
C1377 C1381 1.393 1_545 S
C1378 H1370 0.950 . S
C1378 C1376 1.391 1_565 S
C1378 C1379 1.400 . S
C1379 C1378 1.400 . S
C1379 C1380 1.398 . S
C1379 C1385 1.491 . S
C1380 H1371 0.950 . S
C1380 C1379 1.398 . S
C1380 C1381 1.391 . S
C1381 H1369 0.950 . S
C1381 C1377 1.393 1_565 S
C1381 C1380 1.391 . S
C1382 H1372 0.950 . S
C1382 C1383 1.386 . S
C1382 C1384 1.391 . S
C1383 C1382 1.386 . S
C1383 C1387 1.393 . S
C1384 H1373 0.950 . S
C1384 C1382 1.391 . S
C1384 C1385 1.400 . S
C1385 C1379 1.491 . S
C1385 C1384 1.400 . S
C1385 C1386 1.398 . S
C1386 H1374 0.950 . S
C1386 C1385 1.398 . S
C1386 C1387 1.391 . S
C1387 H1375 0.950 . S
C1387 C1383 1.393 . S
C1387 C1386 1.391 . S
H1388 C1396 0.950 . S
H1389 C1401 0.950 . S
H1390 C1398 0.950 . S
H1391 C1400 0.950 . S
H1392 C1402 0.950 . S
H1393 C1404 0.950 . S
H1394 C1406 0.950 . S
H1395 C1407 0.950 . S
C1396 H1388 0.950 . S
C1396 C1397 1.386 . S
C1396 C1398 1.391 . S
C1397 C1396 1.386 . S
C1397 C1401 1.393 . S
C1398 H1390 0.950 . S
C1398 C1396 1.391 . S
C1398 C1399 1.400 . S
C1399 C1398 1.400 . S
C1399 C1400 1.398 . S
C1399 C1405 1.491 . S
C1400 H1391 0.950 . S
C1400 C1399 1.398 . S
C1400 C1401 1.391 . S
C1401 H1389 0.950 . S
C1401 C1397 1.393 . S
C1401 C1400 1.391 . S
C1402 H1392 0.950 . S
C1402 C1403 1.386 . S
C1402 C1404 1.391 . S
C1403 C1402 1.386 . S
C1403 C1407 1.393 . S
C1404 H1393 0.950 . S
C1404 C1402 1.391 . S
C1404 C1405 1.400 . S
C1405 C1399 1.491 . S
C1405 C1404 1.400 . S
C1405 C1406 1.398 . S
C1406 H1394 0.950 . S
C1406 C1405 1.398 . S
C1406 C1407 1.391 . S
C1407 H1395 0.950 . S
C1407 C1403 1.393 . S
C1407 C1406 1.391 . S
H1408 C1416 0.950 . S
H1409 C1421 0.950 . S
H1410 C1418 0.950 . S
H1411 C1420 0.950 . S
H1412 C1422 0.950 . S
H1413 C1424 0.950 . S
H1414 C1426 0.950 . S
H1415 C1427 0.950 . S
C1416 H1408 0.950 . S
C1416 C1417 1.386 . S
C1416 C1418 1.391 . S
C1417 C1416 1.386 . S
C1417 C1421 1.393 . S
C1418 H1410 0.950 . S
C1418 C1416 1.391 . S
C1418 C1419 1.400 . S
C1419 C1418 1.400 . S
C1419 C1420 1.398 . S
C1419 C1425 1.491 . S
C1420 H1411 0.950 . S
C1420 C1419 1.398 . S
C1420 C1421 1.391 . S
C1421 H1409 0.950 . S
C1421 C1417 1.393 . S
C1421 C1420 1.391 . S
C1422 H1412 0.950 . S
C1422 C1423 1.386 . S
C1422 C1424 1.391 . S
C1423 C1422 1.386 . S
C1423 C1427 1.393 . S
C1424 H1413 0.950 . S
C1424 C1422 1.391 . S
C1424 C1425 1.400 . S
C1425 C1419 1.491 . S
C1425 C1424 1.400 . S
C1425 C1426 1.398 . S
C1426 H1414 0.950 . S
C1426 C1425 1.398 . S
C1426 C1427 1.391 . S
C1427 H1415 0.950 . S
C1427 C1423 1.393 . S
C1427 C1426 1.391 . S
H1428 C1436 0.950 . S
H1429 C1441 0.950 . S
H1430 C1438 0.950 . S
H1431 C1440 0.950 . S
H1432 C1442 0.950 . S
H1433 C1444 0.950 . S
H1434 C1446 0.950 . S
H1435 C1447 0.950 . S
C1436 H1428 0.950 . S
C1436 C1437 1.386 . S
C1436 C1438 1.391 1_565 S
C1437 C1436 1.386 . S
C1437 C1441 1.393 . S
C1438 H1430 0.950 . S
C1438 C1436 1.391 1_545 S
C1438 C1439 1.400 . S
C1439 C1438 1.400 . S
C1439 C1440 1.398 . S
C1439 C1445 1.491 . S
C1440 H1431 0.950 . S
C1440 C1439 1.398 . S
C1440 C1441 1.391 1_545 S
C1441 H1429 0.950 . S
C1441 C1437 1.393 . S
C1441 C1440 1.391 1_565 S
C1442 H1432 0.950 . S
C1442 C1443 1.386 . S
C1442 C1444 1.391 . S
C1443 C1442 1.386 . S
C1443 C1447 1.393 . S
C1444 H1433 0.950 . S
C1444 C1442 1.391 . S
C1444 C1445 1.400 . S
C1445 C1439 1.491 . S
C1445 C1444 1.400 . S
C1445 C1446 1.398 . S
C1446 H1434 0.950 . S
C1446 C1445 1.398 . S
C1446 C1447 1.391 . S
C1447 H1435 0.950 . S
C1447 C1443 1.393 . S
C1447 C1446 1.391 . S
H1448 C1456 0.950 . S
H1449 C1461 0.950 . S
H1450 C1458 0.950 . S
H1451 C1460 0.950 . S
H1452 C1462 0.953 . S
H1453 C1464 0.950 . S
H1454 C1466 0.950 . S
H1455 C1467 0.950 . S
C1456 H1448 0.950 . S
C1456 C1457 1.386 . S
C1456 C1458 1.391 . S
C1457 C1456 1.386 . S
C1457 C1461 1.393 . S
C1458 H1450 0.950 . S
C1458 C1456 1.391 . S
C1458 C1459 1.400 . S
C1459 C1458 1.400 . S
C1459 C1460 1.398 . S
C1459 C1465 1.491 . S
C1460 H1451 0.950 . S
C1460 C1459 1.398 . S
C1460 C1461 1.391 . S
C1461 H1449 0.950 . S
C1461 C1457 1.393 . S
C1461 C1460 1.391 . S
C1462 H1452 0.953 . S
C1462 C1463 1.405 . S
C1462 C1464 1.369 1_554 S
C1463 C1462 1.405 . S
C1463 C1467 1.393 . S
C1464 H1453 0.950 . S
C1464 C1462 1.369 1_556 S
C1464 C1465 1.400 . S
C1465 C1459 1.491 . S
C1465 C1464 1.400 . S
C1465 C1466 1.398 . S
C1466 H1454 0.950 . S
C1466 C1465 1.398 . S
C1466 C1467 1.391 1_556 S
C1467 H1455 0.950 . S
C1467 C1463 1.393 . S
C1467 C1466 1.391 1_554 S
H1468 C1476 0.950 . S
H1469 C1481 0.950 . S
H1470 C1478 0.950 . S
H1471 C1480 0.950 . S
H1472 C1482 0.950 . S
H1473 C1484 0.950 . S
H1474 C1486 0.950 . S
H1475 C1487 0.950 . S
C1476 H1468 0.950 . S
C1476 C1477 1.386 . S
C1476 C1478 1.391 . S
C1477 C1476 1.386 . S
C1477 C1481 1.393 . S
C1478 H1470 0.950 . S
C1478 C1476 1.391 . S
C1478 C1479 1.400 . S
C1479 C1478 1.400 . S
C1479 C1480 1.398 . S
C1479 C1485 1.491 . S
C1480 H1471 0.950 . S
C1480 C1479 1.398 . S
C1480 C1481 1.391 . S
C1481 H1469 0.950 . S
C1481 C1477 1.393 . S
C1481 C1480 1.391 . S
C1482 H1472 0.950 . S
C1482 C1483 1.386 1_565 S
C1482 C1484 1.391 . S
C1483 C1482 1.386 1_545 S
C1483 C1487 1.393 . S
C1484 H1473 0.950 . S
C1484 C1482 1.391 . S
C1484 C1485 1.400 . S
C1485 C1479 1.491 . S
C1485 C1484 1.400 . S
C1485 C1486 1.398 1_565 S
C1486 H1474 0.950 . S
C1486 C1485 1.398 1_545 S
C1486 C1487 1.391 . S
C1487 H1475 0.950 . S
C1487 C1483 1.393 . S
C1487 C1486 1.391 . S
H1488 C1496 0.950 . S
H1489 C1501 0.950 . S
H1490 C1498 0.950 . S
H1491 C1500 0.950 . S
H1492 C1502 0.950 . S
H1493 C1504 0.950 . S
H1494 C1506 0.950 . S
H1495 C1507 0.950 . S
C1496 H1488 0.950 . S
C1496 C1497 1.386 . S
C1496 C1498 1.391 . S
C1497 C1496 1.386 . S
C1497 C1501 1.393 . S
C1498 H1490 0.950 . S
C1498 C1496 1.391 . S
C1498 C1499 1.400 . S
C1499 C1498 1.400 . S
C1499 C1500 1.398 . S
C1499 C1505 1.491 . S
C1500 H1491 0.950 . S
C1500 C1499 1.398 . S
C1500 C1501 1.391 . S
C1501 H1489 0.950 . S
C1501 C1497 1.393 . S
C1501 C1500 1.391 . S
C1502 H1492 0.950 . S
C1502 C1503 1.386 . S
C1502 C1504 1.391 . S
C1503 C1502 1.386 . S
C1503 C1507 1.393 . S
C1504 H1493 0.950 . S
C1504 C1502 1.391 . S
C1504 C1505 1.400 . S
C1505 C1499 1.491 . S
C1505 C1504 1.400 . S
C1505 C1506 1.398 . S
C1506 H1494 0.950 . S
C1506 C1505 1.398 . S
C1506 C1507 1.391 . S
C1507 H1495 0.950 . S
C1507 C1503 1.393 . S
C1507 C1506 1.391 . S
H1508 C1516 0.950 . S
H1509 C1521 0.950 . S
H1510 C1518 0.950 . S
H1511 C1520 0.950 . S
H1512 C1522 0.950 . S
H1513 C1524 0.950 . S
H1514 C1526 0.950 . S
H1515 C1527 0.950 . S
C1516 H1508 0.950 . S
C1516 C1517 1.386 . S
C1516 C1518 1.391 . S
C1517 C1516 1.386 . S
C1517 C1521 1.393 . S
C1518 H1510 0.950 . S
C1518 C1516 1.391 . S
C1518 C1519 1.400 . S
C1519 C1518 1.400 . S
C1519 C1520 1.398 . S
C1519 C1525 1.491 . S
C1520 H1511 0.950 . S
C1520 C1519 1.398 . S
C1520 C1521 1.391 . S
C1521 H1509 0.950 . S
C1521 C1517 1.393 . S
C1521 C1520 1.391 . S
C1522 H1512 0.950 . S
C1522 C1523 1.386 . S
C1522 C1524 1.391 . S
C1523 C1522 1.386 . S
C1523 C1527 1.393 . S
C1524 H1513 0.950 . S
C1524 C1522 1.391 . S
C1524 C1525 1.400 . S
C1525 C1519 1.491 . S
C1525 C1524 1.400 . S
C1525 C1526 1.398 . S
C1526 H1514 0.950 . S
C1526 C1525 1.398 . S
C1526 C1527 1.391 . S
C1527 H1515 0.950 . S
C1527 C1523 1.393 . S
C1527 C1526 1.391 . S
H1528 C1536 0.950 . S
H1529 C1541 0.950 . S
H1530 C1538 0.950 . S
H1531 C1540 0.950 . S
H1532 C1542 0.950 . S
H1533 C1544 0.950 . S
H1534 C1546 0.951 . S
H1535 C1547 0.950 . S
C1536 H1528 0.950 . S
C1536 C1537 1.386 . S
C1536 C1538 1.391 . S
C1537 C1536 1.386 . S
C1537 C1541 1.393 . S
C1538 H1530 0.950 . S
C1538 C1536 1.391 . S
C1538 C1539 1.400 . S
C1539 C1538 1.400 . S
C1539 C1540 1.398 . S
C1539 C1545 1.491 . S
C1540 H1531 0.950 . S
C1540 C1539 1.398 . S
C1540 C1541 1.391 . S
C1541 H1529 0.950 . S
C1541 C1537 1.393 . S
C1541 C1540 1.391 . S
C1542 H1532 0.950 . S
C1542 C1543 1.386 1_554 S
C1542 C1544 1.391 . S
C1543 C1542 1.386 1_556 S
C1543 C1547 1.393 . S
C1544 H1533 0.950 . S
C1544 C1542 1.391 . S
C1544 C1545 1.400 . S
C1545 C1539 1.491 . S
C1545 C1544 1.400 . S
C1545 C1546 1.395 1_554 S
C1546 H1534 0.951 . S
C1546 C1545 1.395 1_556 S
C1546 C1547 1.394 . S
C1547 H1535 0.950 . S
C1547 C1543 1.393 . S
C1547 C1546 1.394 . S
H1548 C1556 0.950 . S
H1549 C1561 0.950 . S
H1550 C1558 0.950 . S
H1551 C1560 0.950 . S
H1552 C1562 0.950 . S
H1553 C1564 0.950 . S
H1554 C1566 0.950 . S
H1555 C1567 0.950 . S
C1556 H1548 0.950 . S
C1556 C1557 1.386 . S
C1556 C1558 1.391 . S
C1557 C1556 1.386 . S
C1557 C1561 1.393 . S
C1558 H1550 0.950 . S
C1558 C1556 1.391 . S
C1558 C1559 1.400 . S
C1559 C1558 1.400 . S
C1559 C1560 1.398 . S
C1559 C1565 1.491 . S
C1560 H1551 0.950 . S
C1560 C1559 1.398 . S
C1560 C1561 1.391 . S
C1561 H1549 0.950 . S
C1561 C1557 1.393 . S
C1561 C1560 1.391 . S
C1562 H1552 0.950 . S
C1562 C1563 1.386 . S
C1562 C1564 1.391 . S
C1563 C1562 1.386 . S
C1563 C1567 1.393 . S
C1564 H1553 0.950 . S
C1564 C1562 1.391 . S
C1564 C1565 1.400 . S
C1565 C1559 1.491 . S
C1565 C1564 1.400 . S
C1565 C1566 1.398 . S
C1566 H1554 0.950 . S
C1566 C1565 1.398 . S
C1566 C1567 1.391 . S
C1567 H1555 0.950 . S
C1567 C1563 1.393 . S
C1567 C1566 1.391 . S
H1568 C1576 0.950 . S
H1569 C1581 0.950 . S
H1570 C1578 0.950 . S
H1571 C1580 0.950 . S
H1572 C1582 0.950 . S
H1573 C1584 0.950 . S
H1574 C1586 0.950 . S
H1575 C1587 0.950 . S
C1576 H1568 0.950 . S
C1576 C1577 1.386 . S
C1576 C1578 1.391 . S
C1577 C1576 1.386 . S
C1577 C1581 1.393 . S
C1578 H1570 0.950 . S
C1578 C1576 1.391 . S
C1578 C1579 1.400 . S
C1579 C1578 1.400 . S
C1579 C1580 1.398 . S
C1579 C1585 1.491 . S
C1580 H1571 0.950 . S
C1580 C1579 1.398 . S
C1580 C1581 1.391 . S
C1581 H1569 0.950 . S
C1581 C1577 1.393 . S
C1581 C1580 1.391 . S
C1582 H1572 0.950 . S
C1582 C1583 1.386 . S
C1582 C1584 1.391 . S
C1583 C1582 1.386 . S
C1583 C1587 1.393 . S
C1584 H1573 0.950 . S
C1584 C1582 1.391 . S
C1584 C1585 1.400 . S
C1585 C1579 1.491 . S
C1585 C1584 1.400 . S
C1585 C1586 1.398 . S
C1586 H1574 0.950 . S
C1586 C1585 1.398 . S
C1586 C1587 1.391 . S
C1587 H1575 0.950 . S
C1587 C1583 1.393 . S
C1587 C1586 1.391 . S
H1588 C1596 0.950 . S
H1589 C1601 0.950 . S
H1590 C1598 0.950 . S
H1591 C1600 0.950 . S
H1592 C1602 0.950 . S
H1593 C1604 0.950 . S
H1594 C1606 0.950 . S
H1595 C1607 0.950 . S
C1596 H1588 0.950 . S
C1596 C1597 1.386 1_655 S
C1596 C1598 1.391 . S
C1597 C1596 1.386 1_455 S
C1597 C1601 1.393 . S
C1598 H1590 0.950 . S
C1598 C1596 1.391 . S
C1598 C1599 1.400 . S
C1599 C1598 1.400 . S
C1599 C1600 1.398 . S
C1599 C1605 1.491 . S
C1600 H1591 0.950 . S
C1600 C1599 1.398 . S
C1600 C1601 1.391 1_655 S
C1601 H1589 0.950 . S
C1601 C1597 1.393 . S
C1601 C1600 1.391 1_455 S
C1602 H1592 0.950 . S
C1602 C1603 1.386 . S
C1602 C1604 1.391 . S
C1603 C1602 1.386 . S
C1603 C1607 1.393 . S
C1604 H1593 0.950 . S
C1604 C1602 1.391 . S
C1604 C1605 1.400 . S
C1605 C1599 1.491 . S
C1605 C1604 1.400 . S
C1605 C1606 1.398 . S
C1606 H1594 0.950 . S
C1606 C1605 1.398 . S
C1606 C1607 1.391 . S
C1607 H1595 0.950 . S
C1607 C1603 1.393 . S
C1607 C1606 1.391 . S
H1608 C1616 0.950 . S
H1609 C1621 0.950 . S
H1610 C1618 0.950 . S
H1611 C1620 0.950 . S
H1612 C1622 0.950 . S
H1613 C1624 0.950 . S
H1614 C1626 0.950 . S
H1615 C1627 0.950 . S
C1616 H1608 0.950 . S
C1616 C1617 1.386 1_455 S
C1616 C1618 1.391 . S
C1617 C1616 1.386 1_655 S
C1617 C1621 1.393 . S
C1618 H1610 0.950 . S
C1618 C1616 1.391 . S
C1618 C1619 1.400 . S
C1619 C1618 1.400 . S
C1619 C1620 1.398 1_455 S
C1619 C1625 1.491 . S
C1620 H1611 0.950 . S
C1620 C1619 1.398 1_655 S
C1620 C1621 1.391 . S
C1621 H1609 0.950 . S
C1621 C1617 1.393 . S
C1621 C1620 1.391 . S
C1622 H1612 0.950 . S
C1622 C1623 1.386 . S
C1622 C1624 1.391 . S
C1623 C1622 1.386 . S
C1623 C1627 1.393 . S
C1624 H1613 0.950 . S
C1624 C1622 1.391 . S
C1624 C1625 1.400 . S
C1625 C1619 1.491 . S
C1625 C1624 1.400 . S
C1625 C1626 1.398 . S
C1626 H1614 0.950 . S
C1626 C1625 1.398 . S
C1626 C1627 1.391 . S
C1627 H1615 0.950 . S
C1627 C1623 1.393 . S
C1627 C1626 1.391 . S
H1628 C1636 0.950 . S
H1629 C1641 0.950 . S
H1630 C1638 0.950 . S
H1631 C1640 0.950 . S
H1632 C1642 0.950 . S
H1633 C1644 0.950 . S
H1634 C1646 0.950 . S
H1635 C1647 0.950 . S
C1636 H1628 0.950 . S
C1636 C1637 1.386 . S
C1636 C1638 1.391 . S
C1637 C1636 1.386 . S
C1637 C1641 1.393 . S
C1638 H1630 0.950 . S
C1638 C1636 1.391 . S
C1638 C1639 1.400 . S
C1639 C1638 1.400 . S
C1639 C1640 1.398 . S
C1639 C1645 1.491 . S
C1640 H1631 0.950 . S
C1640 C1639 1.398 . S
C1640 C1641 1.391 . S
C1641 H1629 0.950 . S
C1641 C1637 1.393 . S
C1641 C1640 1.391 . S
C1642 H1632 0.950 . S
C1642 C1643 1.386 . S
C1642 C1644 1.391 . S
C1643 C1642 1.386 . S
C1643 C1647 1.393 . S
C1644 H1633 0.950 . S
C1644 C1642 1.391 . S
C1644 C1645 1.400 . S
C1645 C1639 1.491 . S
C1645 C1644 1.400 . S
C1645 C1646 1.398 . S
C1646 H1634 0.950 . S
C1646 C1645 1.398 . S
C1646 C1647 1.391 . S
C1647 H1635 0.950 . S
C1647 C1643 1.393 . S
C1647 C1646 1.391 . S
H1648 C1656 0.950 . S
H1649 C1661 0.950 . S
H1650 C1658 0.950 . S
H1651 C1660 0.950 . S
H1652 C1662 0.950 . S
H1653 C1664 0.950 . S
H1654 C1666 0.950 . S
H1655 C1667 0.950 . S
C1656 H1648 0.950 . S
C1656 C1657 1.386 . S
C1656 C1658 1.391 . S
C1657 C1656 1.386 . S
C1657 C1661 1.393 . S
C1658 H1650 0.950 . S
C1658 C1656 1.391 . S
C1658 C1659 1.400 . S
C1659 C1658 1.400 . S
C1659 C1660 1.398 . S
C1659 C1665 1.491 . S
C1660 H1651 0.950 . S
C1660 C1659 1.398 . S
C1660 C1661 1.391 . S
C1661 H1649 0.950 . S
C1661 C1657 1.393 . S
C1661 C1660 1.391 . S
C1662 H1652 0.950 . S
C1662 C1663 1.386 . S
C1662 C1664 1.391 . S
C1663 C1662 1.386 . S
C1663 C1667 1.393 . S
C1664 H1653 0.950 . S
C1664 C1662 1.391 . S
C1664 C1665 1.400 . S
C1665 C1659 1.491 . S
C1665 C1664 1.400 . S
C1665 C1666 1.398 . S
C1666 H1654 0.950 . S
C1666 C1665 1.398 . S
C1666 C1667 1.391 . S
C1667 H1655 0.950 . S
C1667 C1663 1.393 . S
C1667 C1666 1.391 . S
H1668 C1676 0.950 . S
H1669 C1681 0.950 . S
H1670 C1678 0.950 . S
H1671 C1680 0.950 . S
H1672 C1682 0.950 . S
H1673 C1684 0.950 . S
H1674 C1686 0.950 . S
H1675 C1687 0.950 . S
C1676 H1668 0.950 . S
C1676 C1677 1.386 . S
C1676 C1678 1.392 . S
C1677 C1676 1.386 . S
C1677 C1681 1.393 1_655 S
C1678 H1670 0.950 . S
C1678 C1676 1.392 . S
C1678 C1679 1.400 1_655 S
C1679 C1678 1.400 1_455 S
C1679 C1680 1.398 . S
C1679 C1685 1.491 . S
C1680 H1671 0.950 . S
C1680 C1679 1.398 . S
C1680 C1681 1.391 . S
C1681 H1669 0.950 . S
C1681 C1677 1.393 1_455 S
C1681 C1680 1.391 . S
C1682 H1672 0.950 . S
C1682 C1683 1.386 . S
C1682 C1684 1.391 . S
C1683 C1682 1.386 . S
C1683 C1687 1.393 . S
C1684 H1673 0.950 . S
C1684 C1682 1.391 . S
C1684 C1685 1.400 . S
C1685 C1679 1.491 . S
C1685 C1684 1.400 . S
C1685 C1686 1.398 . S
C1686 H1674 0.950 . S
C1686 C1685 1.398 . S
C1686 C1687 1.391 . S
C1687 H1675 0.950 . S
C1687 C1683 1.393 . S
C1687 C1686 1.391 . S
H1688 C1696 0.950 . S
H1689 C1701 0.950 . S
H1690 C1698 0.950 . S
H1691 C1700 0.950 . S
H1692 C1702 0.950 . S
H1693 C1704 0.950 . S
H1694 C1706 0.950 . S
H1695 C1707 0.950 . S
C1696 H1688 0.950 . S
C1696 C1697 1.386 . S
C1696 C1698 1.391 . S
C1697 C1696 1.386 . S
C1697 C1701 1.393 . S
C1698 H1690 0.950 . S
C1698 C1696 1.391 . S
C1698 C1699 1.400 . S
C1699 C1698 1.400 . S
C1699 C1700 1.398 . S
C1699 C1705 1.491 . S
C1700 H1691 0.950 . S
C1700 C1699 1.398 . S
C1700 C1701 1.391 . S
C1701 H1689 0.950 . S
C1701 C1697 1.393 . S
C1701 C1700 1.391 . S
C1702 H1692 0.950 . S
C1702 C1703 1.386 . S
C1702 C1704 1.391 . S
C1703 C1702 1.386 . S
C1703 C1707 1.393 . S
C1704 H1693 0.950 . S
C1704 C1702 1.391 . S
C1704 C1705 1.400 . S
C1705 C1699 1.491 . S
C1705 C1704 1.400 . S
C1705 C1706 1.398 . S
C1706 H1694 0.950 . S
C1706 C1705 1.398 . S
C1706 C1707 1.391 . S
C1707 H1695 0.950 . S
C1707 C1703 1.393 . S
C1707 C1706 1.391 . S
H1708 C1716 0.950 . S
H1709 C1721 0.950 . S
H1710 C1718 0.950 . S
H1711 C1720 0.950 . S
H1712 C1722 0.950 . S
H1713 C1724 0.950 . S
H1714 C1726 0.950 . S
H1715 C1727 0.950 . S
C1716 H1708 0.950 . S
C1716 C1717 1.386 . S
C1716 C1718 1.391 . S
C1717 C1716 1.386 . S
C1717 C1721 1.393 . S
C1718 H1710 0.950 . S
C1718 C1716 1.391 . S
C1718 C1719 1.400 . S
C1719 C1718 1.400 . S
C1719 C1720 1.398 . S
C1719 C1725 1.491 . S
C1720 H1711 0.950 . S
C1720 C1719 1.398 . S
C1720 C1721 1.391 . S
C1721 H1709 0.950 . S
C1721 C1717 1.393 . S
C1721 C1720 1.391 . S
C1722 H1712 0.950 . S
C1722 C1723 1.386 1_655 S
C1722 C1724 1.391 . S
C1723 C1722 1.386 1_455 S
C1723 C1727 1.393 . S
C1724 H1713 0.950 . S
C1724 C1722 1.391 . S
C1724 C1725 1.400 . S
C1725 C1719 1.491 . S
C1725 C1724 1.400 . S
C1725 C1726 1.398 1_655 S
C1726 H1714 0.950 . S
C1726 C1725 1.398 1_455 S
C1726 C1727 1.391 . S
C1727 H1715 0.950 . S
C1727 C1723 1.393 . S
C1727 C1726 1.391 . S
H1728 C1736 0.950 . S
H1729 C1741 0.950 . S
H1730 C1738 0.950 . S
H1731 C1740 0.950 . S
H1732 C1742 0.950 . S
H1733 C1744 0.950 . S
H1734 C1746 0.950 . S
H1735 C1747 0.950 . S
C1736 H1728 0.950 . S
C1736 C1737 1.386 . S
C1736 C1738 1.391 . S
C1737 C1736 1.386 . S
C1737 C1741 1.393 . S
C1738 H1730 0.950 . S
C1738 C1736 1.391 . S
C1738 C1739 1.400 . S
C1739 C1738 1.400 . S
C1739 C1740 1.398 . S
C1739 C1745 1.491 . S
C1740 H1731 0.950 . S
C1740 C1739 1.398 . S
C1740 C1741 1.391 . S
C1741 H1729 0.950 . S
C1741 C1737 1.393 . S
C1741 C1740 1.391 . S
C1742 H1732 0.950 . S
C1742 C1743 1.386 . S
C1742 C1744 1.391 . S
C1743 C1742 1.386 . S
C1743 C1747 1.393 . S
C1744 H1733 0.950 . S
C1744 C1742 1.391 . S
C1744 C1745 1.400 . S
C1745 C1739 1.491 . S
C1745 C1744 1.400 . S
C1745 C1746 1.398 . S
C1746 H1734 0.950 . S
C1746 C1745 1.398 . S
C1746 C1747 1.391 . S
C1747 H1735 0.950 . S
C1747 C1743 1.393 . S
C1747 C1746 1.391 . S
H1748 C1756 0.950 . S
H1749 C1761 0.950 . S
H1750 C1758 0.950 . S
H1751 C1760 0.950 . S
H1752 C1762 0.950 . S
H1753 C1764 0.950 . S
H1754 C1766 0.950 1_455 S
H1755 C1767 0.950 . S
C1756 H1748 0.950 . S
C1756 C1757 1.386 . S
C1756 C1758 1.391 . S
C1757 C1756 1.386 . S
C1757 C1761 1.393 . S
C1758 H1750 0.950 . S
C1758 C1756 1.391 . S
C1758 C1759 1.400 . S
C1759 C1758 1.400 . S
C1759 C1760 1.398 . S
C1759 C1765 1.491 1_455 S
C1760 H1751 0.950 . S
C1760 C1759 1.398 . S
C1760 C1761 1.391 . S
C1761 H1749 0.950 . S
C1761 C1757 1.393 . S
C1761 C1760 1.391 . S
C1762 H1752 0.950 . S
C1762 C1763 1.386 . S
C1762 C1764 1.391 . S
C1763 C1762 1.386 . S
C1763 C1767 1.393 . S
C1764 H1753 0.950 . S
C1764 C1762 1.391 . S
C1764 C1765 1.400 . S
C1765 C1759 1.491 1_655 S
C1765 C1764 1.400 . S
C1765 C1766 1.398 . S
C1766 H1754 0.950 1_655 S
C1766 C1765 1.398 . S
C1766 C1767 1.391 . S
C1767 H1755 0.950 . S
C1767 C1763 1.393 . S
C1767 C1766 1.391 . S
H1768 C1776 0.950 . S
H1769 C1781 0.950 . S
H1770 C1778 0.950 1_554 S
H1771 C1780 0.950 . S
H1772 C1782 0.950 . S
H1773 C1784 0.950 . S
H1774 C1786 0.950 . S
H1775 C1787 0.950 . S
C1776 H1768 0.950 . S
C1776 C1777 1.386 . S
C1776 C1778 1.391 . S
C1777 C1776 1.386 . S
C1777 C1781 1.393 . S
C1778 H1770 0.950 1_556 S
C1778 C1776 1.391 . S
C1778 C1779 1.400 . S
C1779 C1778 1.400 . S
C1779 C1780 1.398 . S
C1779 C1785 1.491 1_556 S
C1780 H1771 0.950 . S
C1780 C1779 1.398 . S
C1780 C1781 1.391 . S
C1781 H1769 0.950 . S
C1781 C1777 1.393 . S
C1781 C1780 1.391 . S
C1782 H1772 0.950 . S
C1782 C1783 1.386 . S
C1782 C1784 1.391 1_554 S
C1783 C1782 1.386 . S
C1783 C1787 1.393 . S
C1784 H1773 0.950 . S
C1784 C1782 1.391 1_556 S
C1784 C1785 1.400 1_556 S
C1785 C1779 1.491 1_554 S
C1785 C1784 1.400 1_554 S
C1785 C1786 1.398 . S
C1786 H1774 0.950 . S
C1786 C1785 1.398 . S
C1786 C1787 1.391 . S
C1787 H1775 0.950 . S
C1787 C1783 1.393 . S
C1787 C1786 1.391 . S
H1788 C1796 0.950 . S
H1789 C1801 0.950 . S
H1790 C1798 0.950 . S
H1791 C1800 0.950 . S
H1792 C1802 0.950 . S
H1793 C1804 0.950 . S
H1794 C1806 0.950 . S
H1795 C1807 0.950 . S
C1796 H1788 0.950 . S
C1796 C1797 1.386 . S
C1796 C1798 1.391 . S
C1797 C1796 1.386 . S
C1797 C1801 1.393 . S
C1798 H1790 0.950 . S
C1798 C1796 1.391 . S
C1798 C1799 1.400 . S
C1799 C1798 1.400 . S
C1799 C1800 1.398 . S
C1799 C1805 1.491 . S
C1800 H1791 0.950 . S
C1800 C1799 1.398 . S
C1800 C1801 1.391 . S
C1801 H1789 0.950 . S
C1801 C1797 1.393 . S
C1801 C1800 1.391 . S
C1802 H1792 0.950 . S
C1802 C1803 1.386 . S
C1802 C1804 1.391 . S
C1803 C1802 1.386 . S
C1803 C1807 1.393 . S
C1804 H1793 0.950 . S
C1804 C1802 1.391 . S
C1804 C1805 1.400 . S
C1805 C1799 1.491 . S
C1805 C1804 1.400 . S
C1805 C1806 1.398 . S
C1806 H1794 0.950 . S
C1806 C1805 1.398 . S
C1806 C1807 1.391 . S
C1807 H1795 0.950 . S
C1807 C1803 1.393 . S
C1807 C1806 1.391 . S
H1808 C1816 0.950 . S
H1809 C1821 0.950 . S
H1810 C1818 0.950 . S
H1811 C1820 0.950 . S
H1812 C1822 0.950 . S
H1813 C1824 0.950 . S
H1814 C1826 0.950 . S
H1815 C1827 0.950 . S
C1816 H1808 0.950 . S
C1816 C1817 1.386 . S
C1816 C1818 1.391 . S
C1817 C1816 1.386 . S
C1817 C1821 1.393 . S
C1818 H1810 0.950 . S
C1818 C1816 1.391 . S
C1818 C1819 1.400 . S
C1819 C1818 1.400 . S
C1819 C1820 1.398 . S
C1819 C1825 1.491 . S
C1820 H1811 0.950 . S
C1820 C1819 1.398 . S
C1820 C1821 1.391 . S
C1821 H1809 0.950 . S
C1821 C1817 1.393 . S
C1821 C1820 1.391 . S
C1822 H1812 0.950 . S
C1822 C1823 1.386 . S
C1822 C1824 1.391 . S
C1823 C1822 1.386 . S
C1823 C1827 1.393 . S
C1824 H1813 0.950 . S
C1824 C1822 1.391 . S
C1824 C1825 1.400 . S
C1825 C1819 1.491 . S
C1825 C1824 1.400 . S
C1825 C1826 1.398 . S
C1826 H1814 0.950 . S
C1826 C1825 1.398 . S
C1826 C1827 1.391 . S
C1827 H1815 0.950 . S
C1827 C1823 1.393 . S
C1827 C1826 1.391 . S
H1828 C1836 0.950 . S
H1829 C1841 0.950 . S
H1830 C1838 0.950 . S
H1831 C1840 0.950 1_455 S
H1832 C1842 0.950 . S
H1833 C1844 0.950 . S
H1834 C1846 0.950 . S
H1835 C1847 0.950 . S
C1836 H1828 0.950 . S
C1836 C1837 1.386 . S
C1836 C1838 1.391 . S
C1837 C1836 1.386 . S
C1837 C1841 1.393 . S
C1838 H1830 0.950 . S
C1838 C1836 1.391 . S
C1838 C1839 1.400 . S
C1839 C1838 1.400 . S
C1839 C1840 1.398 . S
C1839 C1845 1.491 1_655 S
C1840 H1831 0.950 1_655 S
C1840 C1839 1.398 . S
C1840 C1841 1.391 . S
C1841 H1829 0.950 . S
C1841 C1837 1.393 . S
C1841 C1840 1.391 . S
C1842 H1832 0.950 . S
C1842 C1843 1.386 . S
C1842 C1844 1.391 . S
C1843 C1842 1.386 . S
C1843 C1847 1.393 . S
C1844 H1833 0.950 . S
C1844 C1842 1.391 . S
C1844 C1845 1.400 . S
C1845 C1839 1.491 1_455 S
C1845 C1844 1.400 . S
C1845 C1846 1.398 1_455 S
C1846 H1834 0.950 . S
C1846 C1845 1.398 1_655 S
C1846 C1847 1.391 1_655 S
C1847 H1835 0.950 . S
C1847 C1843 1.393 . S
C1847 C1846 1.391 1_455 S
H1848 C1856 0.950 . S
H1849 C1861 0.950 . S
H1850 C1858 0.950 . S
H1851 C1860 0.950 1_556 S
H1852 C1862 0.950 . S
H1853 C1864 0.950 . S
H1854 C1866 0.950 . S
H1855 C1867 0.950 . S
C1856 H1848 0.950 . S
C1856 C1857 1.386 . S
C1856 C1858 1.391 . S
C1857 C1856 1.386 . S
C1857 C1861 1.393 . S
C1858 H1850 0.950 . S
C1858 C1856 1.391 . S
C1858 C1859 1.400 . S
C1859 C1858 1.400 . S
C1859 C1860 1.398 . S
C1859 C1865 1.491 1_554 S
C1860 H1851 0.950 1_554 S
C1860 C1859 1.398 . S
C1860 C1861 1.391 . S
C1861 H1849 0.950 . S
C1861 C1857 1.393 . S
C1861 C1860 1.391 . S
C1862 H1852 0.950 . S
C1862 C1863 1.386 . S
C1862 C1864 1.391 . S
C1863 C1862 1.386 . S
C1863 C1867 1.393 . S
C1864 H1853 0.950 . S
C1864 C1862 1.391 . S
C1864 C1865 1.400 . S
C1865 C1859 1.491 1_556 S
C1865 C1864 1.400 . S
C1865 C1866 1.398 1_556 S
C1866 H1854 0.950 . S
C1866 C1865 1.398 1_554 S
C1866 C1867 1.391 1_554 S
C1867 H1855 0.950 . S
C1867 C1863 1.393 . S
C1867 C1866 1.391 1_556 S
H1868 C1876 0.950 . S
H1869 C1881 0.950 . S
H1870 C1878 0.950 . S
H1871 C1880 0.950 . S
H1872 C1882 0.950 . S
H1873 C1884 0.950 . S
H1874 C1886 0.950 . S
H1875 C1887 0.950 . S
C1876 H1868 0.950 . S
C1876 C1877 1.386 . S
C1876 C1878 1.391 . S
C1877 C1876 1.386 . S
C1877 C1881 1.393 . S
C1878 H1870 0.950 . S
C1878 C1876 1.391 . S
C1878 C1879 1.400 . S
C1879 C1878 1.400 . S
C1879 C1880 1.398 . S
C1879 C1885 1.491 . S
C1880 H1871 0.950 . S
C1880 C1879 1.398 . S
C1880 C1881 1.391 . S
C1881 H1869 0.950 . S
C1881 C1877 1.393 . S
C1881 C1880 1.391 . S
C1882 H1872 0.950 . S
C1882 C1883 1.386 . S
C1882 C1884 1.391 . S
C1883 C1882 1.386 . S
C1883 C1887 1.393 . S
C1884 H1873 0.950 . S
C1884 C1882 1.391 . S
C1884 C1885 1.400 . S
C1885 C1879 1.491 . S
C1885 C1884 1.400 . S
C1885 C1886 1.398 . S
C1886 H1874 0.950 . S
C1886 C1885 1.398 . S
C1886 C1887 1.391 . S
C1887 H1875 0.950 . S
C1887 C1883 1.393 . S
C1887 C1886 1.391 . S
H1888 C1896 0.950 . S
H1889 C1901 0.950 . S
H1890 C1898 0.950 . S
H1891 C1900 0.950 . S
H1892 C1902 0.950 . S
H1893 C1904 0.950 . S
H1894 C1906 0.950 . S
H1895 C1907 0.950 . S
C1896 H1888 0.950 . S
C1896 C1897 1.386 . S
C1896 C1898 1.391 . S
C1897 C1896 1.386 . S
C1897 C1901 1.393 . S
C1898 H1890 0.950 . S
C1898 C1896 1.391 . S
C1898 C1899 1.400 . S
C1899 C1898 1.400 . S
C1899 C1900 1.398 . S
C1899 C1905 1.491 . S
C1900 H1891 0.950 . S
C1900 C1899 1.398 . S
C1900 C1901 1.391 . S
C1901 H1889 0.950 . S
C1901 C1897 1.393 . S
C1901 C1900 1.391 . S
C1902 H1892 0.950 . S
C1902 C1903 1.386 . S
C1902 C1904 1.391 . S
C1903 C1902 1.386 . S
C1903 C1907 1.393 . S
C1904 H1893 0.950 . S
C1904 C1902 1.391 . S
C1904 C1905 1.400 . S
C1905 C1899 1.491 . S
C1905 C1904 1.400 . S
C1905 C1906 1.398 . S
C1906 H1894 0.950 . S
C1906 C1905 1.398 . S
C1906 C1907 1.391 . S
C1907 H1895 0.950 . S
C1907 C1903 1.393 . S
C1907 C1906 1.391 . S
H1908 C1916 0.950 . S
H1909 C1921 0.950 . S
H1910 C1918 0.950 . S
H1911 C1920 0.950 . S
H1912 C1922 0.950 . S
H1913 C1924 0.950 . S
H1914 C1926 0.950 . S
H1915 C1927 0.950 . S
C1916 H1908 0.950 . S
C1916 C1917 1.386 . S
C1916 C1918 1.391 . S
C1917 C1916 1.386 . S
C1917 C1921 1.393 . S
C1918 H1910 0.950 . S
C1918 C1916 1.391 . S
C1918 C1919 1.400 . S
C1919 C1918 1.400 . S
C1919 C1920 1.398 . S
C1919 C1925 1.491 1_545 S
C1920 H1911 0.950 . S
C1920 C1919 1.398 . S
C1920 C1921 1.391 . S
C1921 H1909 0.950 . S
C1921 C1917 1.393 . S
C1921 C1920 1.391 . S
C1922 H1912 0.950 . S
C1922 C1923 1.386 . S
C1922 C1924 1.391 . S
C1923 C1922 1.386 . S
C1923 C1927 1.393 . S
C1924 H1913 0.950 . S
C1924 C1922 1.391 . S
C1924 C1925 1.400 . S
C1925 C1919 1.491 1_565 S
C1925 C1924 1.400 . S
C1925 C1926 1.398 . S
C1926 H1914 0.950 . S
C1926 C1925 1.398 . S
C1926 C1927 1.391 . S
C1927 H1915 0.950 . S
C1927 C1923 1.393 . S
C1927 C1926 1.391 . S
H1928 C1936 0.950 . S
H1929 C1941 0.950 . S
H1930 C1938 0.950 . S
H1931 C1940 0.950 . S
H1932 C1942 0.950 . S
H1933 C1944 0.950 . S
H1934 C1946 0.950 1_545 S
H1935 C1947 0.950 . S
C1936 H1928 0.950 . S
C1936 C1937 1.386 . S
C1936 C1938 1.391 . S
C1937 C1936 1.386 . S
C1937 C1941 1.393 . S
C1938 H1930 0.950 . S
C1938 C1936 1.391 . S
C1938 C1939 1.400 . S
C1939 C1938 1.400 . S
C1939 C1940 1.398 1_545 S
C1939 C1945 1.491 1_545 S
C1940 H1931 0.950 . S
C1940 C1939 1.398 1_565 S
C1940 C1941 1.391 1_565 S
C1941 H1929 0.950 . S
C1941 C1937 1.393 . S
C1941 C1940 1.391 1_545 S
C1942 H1932 0.950 . S
C1942 C1943 1.386 . S
C1942 C1944 1.391 . S
C1943 C1942 1.386 . S
C1943 C1947 1.393 . S
C1944 H1933 0.950 . S
C1944 C1942 1.391 . S
C1944 C1945 1.400 . S
C1945 C1939 1.491 1_565 S
C1945 C1944 1.400 . S
C1945 C1946 1.398 . S
C1946 H1934 0.950 1_565 S
C1946 C1945 1.398 . S
C1946 C1947 1.391 . S
C1947 H1935 0.950 . S
C1947 C1943 1.393 . S
C1947 C1946 1.391 . S
H1948 C1956 0.950 . S
H1949 C1961 0.950 . S
H1950 C1958 0.950 . S
H1951 C1960 0.950 . S
H1952 C1962 0.950 . S
H1953 C1964 0.950 . S
H1954 C1966 0.950 . S
H1955 C1967 0.950 . S
C1956 H1948 0.950 . S
C1956 C1957 1.386 . S
C1956 C1958 1.391 . S
C1957 C1956 1.386 . S
C1957 C1961 1.393 . S
C1958 H1950 0.950 . S
C1958 C1956 1.391 . S
C1958 C1959 1.400 . S
C1959 C1958 1.400 . S
C1959 C1960 1.398 . S
C1959 C1965 1.491 . S
C1960 H1951 0.950 . S
C1960 C1959 1.398 . S
C1960 C1961 1.391 . S
C1961 H1949 0.950 . S
C1961 C1957 1.393 . S
C1961 C1960 1.391 . S
C1962 H1952 0.950 . S
C1962 C1963 1.386 . S
C1962 C1964 1.391 . S
C1963 C1962 1.386 . S
C1963 C1967 1.393 . S
C1964 H1953 0.950 . S
C1964 C1962 1.391 . S
C1964 C1965 1.400 . S
C1965 C1959 1.491 . S
C1965 C1964 1.400 . S
C1965 C1966 1.398 . S
C1966 H1954 0.950 . S
C1966 C1965 1.398 . S
C1966 C1967 1.391 . S
C1967 H1955 0.950 . S
C1967 C1963 1.393 . S
C1967 C1966 1.391 . S
C537 C4 1.007 . S
C543 C338 1.003 . S
C557 C268 1.008 . S
C563 C26 1.037 . S
C577 C294 1.000 . S
C583 C48 1.017 . S
C597 C70 1.001 . S
C603 C316 1.024 . S
C617 C96 1.007 . S
C623 C202 1.034 . S
C637 C118 1.008 . S
C643 C224 1.002 . S
C657 C140 1.043 . S
C663 C246 1.016 . S
C677 C162 1.047 . S
C683 C184 1.038 . S
C697 C356 1.003 . S
C703 C448 1.029 . S
C717 C382 1.029 . S
C723 C510 1.003 . S
C737 C400 1.011 . S
C743 C470 1.039 . S
C757 C422 1.006 . S
C763 C488 1.003 . S
C777 C466 1.079 . S
C783 C9 1.051 . S
C797 C31 1.066 . S
C803 C492 1.072 . S
C817 C53 1.047 . S
C823 C360 1.084 . S
C837 C75 1.043 . S
C843 C514 1.078 . S
C857 C426 1.054 . S
C863 C93 1.075 . S
C877 C444 1.049 . S
C883 C115 1.074 . S
C897 C137 1.045 . S
C903 C378 1.083 . S
C917 C159 1.067 . S
C923 C404 1.071 . S
C937 C181 1.056 . S
C943 C92 1.046 . S
C957 C207 1.075 . S
C963 C114 1.056 . S
C977 C229 1.041 . S
C983 C136 1.057 1_455 S
C997 C251 1.046 . S
C1003 C158 1.078 . S
C1017 C8 1.072 . S
C1023 C273 1.038 . S
C1037 C291 1.048 . S
C1043 C30 1.079 . S
C1057 C313 1.075 . S
C1063 C52 1.050 . S
C1077 C335 1.074 . S
C1083 C74 1.060 . S
C1097 C312 1.056 . S
C1103 C361 1.044 . S
C1117 C228 1.065 . S
C1123 C379 1.072 . S
C1137 C405 1.056 . S
C1143 C250 1.046 . S
C1157 C180 1.071 . S
C1163 C427 1.038 . S
C1177 C445 1.045 . S
C1183 C206 1.055 . S
C1197 C272 1.060 . S
C1203 C467 1.041 . S
C1217 C290 1.076 . S
C1223 C493 1.041 . S
C1237 C334 1.045 . S
C1243 C515 1.070 . S
C1257 C401 1.547 . S
C1263 C6 1.531 . S
C1277 C28 1.524 . S
C1283 C423 1.568 . S
C1297 C449 1.570 . S
C1303 C50 1.522 . S
C1317 C72 1.520 . S
C1323 C383 1.549 . S
C1337 C489 1.559 . S
C1343 C95 1.505 . S
C1357 C357 1.556 . S
C1363 C117 1.509 . S
C1377 C511 1.568 . S
C1383 C139 1.500 . S
C1397 C471 1.571 . S
C1403 C161 1.500 . S
C1417 C203 1.573 . S
C1423 C183 1.515 . S
C1437 C225 1.557 . S
C1443 C204 1.534 . S
C1457 C226 1.522 . S
C1463 C247 1.569 . S
C1477 C248 1.532 . S
C1483 C185 1.548 . S
C1497 C339 1.550 . S
C1503 C270 1.517 . S
C1517 C269 1.575 . S
C1523 C293 1.510 . S
C1537 C315 1.508 . S
C1543 C295 1.575 . S
C1557 C337 1.502 . S
C1563 C317 1.574 . S
C1577 C71 1.557 . S
C1583 C358 1.533 . S
C1597 C119 1.554 . S
C1603 C381 1.535 . S
C1617 C141 1.575 . S
C1623 C402 1.503 . S
C1637 C163 1.565 . S
C1643 C424 1.528 . S
C1657 C97 1.573 . S
C1663 C447 1.501 . S
C1677 C27 1.575 . S
C1683 C469 1.505 . S
C1697 C49 1.575 . S
C1703 C490 1.507 . S
C1717 C512 1.511 . S
C1723 C5 1.554 . S
C1737 C7 1.522 . S
C1743 C205 1.511 . S
C1757 C227 1.515 . S
C1763 C29 1.523 . S
C1777 C51 1.517 . S
C1783 C249 1.515 . S
C1797 C73 1.523 . S
C1803 C182 1.514 . S
C1817 C94 1.511 . S
C1823 C336 1.524 . S
C1837 C271 1.523 . S
C1843 C116 1.514 . S
C1857 C138 1.520 . S
C1863 C292 1.518 . S
C1877 C160 1.524 . S
C1883 C314 1.511 . S
C1897 C359 1.516 . S
C1903 C403 1.516 . S
C1917 C380 1.513 . S
C1923 C491 1.524 . S
C1937 C513 1.519 . S
C1943 C425 1.513 . S
C1957 C446 1.519 . S
C1963 C468 1.514 . S
