# Generated by pormake.
# Topology smc, (6)-cn, num edge types: 1
# Building blocks:
#     Node 0, Type 0, BuildingBlock: KUMJIN_clean_sbu_1, # of connection points: 6
#     Node 1, Type 0, BuildingBlock: KUMJIN_clean_sbu_1, # of connection points: 6
#     Node 2, Type 0, BuildingBlock: KUMJIN_clean_sbu_1, # of connection points: 6
#     Node 3, Type 0, BuildingBlock: KUMJIN_clean_sbu_1, # of connection points: 6
#     Node 4, Type 0, BuildingBlock: KUMJIN_clean_sbu_1, # of connection points: 6
#     Node 5, Type 0, BuildingBlock: KUMJIN_clean_sbu_1, # of connection points: 6
#     Node 6, Type 0, BuildingBlock: KUMJIN_clean_sbu_1, # of connection points: 6
#     Node 7, Type 0, BuildingBlock: KUMJIN_clean_sbu_1, # of connection points: 6
#     Node 8, Type 0, BuildingBlock: KUMJIN_clean_sbu_1, # of connection points: 6
#     Edge 9, Type (0, 0), BuildingBlock: UVAHIK_clean_linker_0, # of connection points: 2
#     Edge 10, Type (0, 0), BuildingBlock: UVAHIK_clean_linker_0, # of connection points: 2
#     Edge 11, Type (0, 0), BuildingBlock: UVAHIK_clean_linker_0, # of connection points: 2
#     Edge 12, Type (0, 0), BuildingBlock: UVAHIK_clean_linker_0, # of connection points: 2
#     Edge 13, Type (0, 0), BuildingBlock: UVAHIK_clean_linker_0, # of connection points: 2
#     Edge 14, Type (0, 0), BuildingBlock: UVAHIK_clean_linker_0, # of connection points: 2
#     Edge 15, Type (0, 0), BuildingBlock: UVAHIK_clean_linker_0, # of connection points: 2
#     Edge 16, Type (0, 0), BuildingBlock: UVAHIK_clean_linker_0, # of connection points: 2
#     Edge 17, Type (0, 0), BuildingBlock: UVAHIK_clean_linker_0, # of connection points: 2
#     Edge 18, Type (0, 0), BuildingBlock: UVAHIK_clean_linker_0, # of connection points: 2
#     Edge 19, Type (0, 0), BuildingBlock: UVAHIK_clean_linker_0, # of connection points: 2
#     Edge 20, Type (0, 0), BuildingBlock: UVAHIK_clean_linker_0, # of connection points: 2
#     Edge 21, Type (0, 0), BuildingBlock: UVAHIK_clean_linker_0, # of connection points: 2
#     Edge 22, Type (0, 0), BuildingBlock: UVAHIK_clean_linker_0, # of connection points: 2
#     Edge 23, Type (0, 0), BuildingBlock: UVAHIK_clean_linker_0, # of connection points: 2
#     Edge 24, Type (0, 0), BuildingBlock: UVAHIK_clean_linker_0, # of connection points: 2
#     Edge 25, Type (0, 0), BuildingBlock: UVAHIK_clean_linker_0, # of connection points: 2
#     Edge 26, Type (0, 0), BuildingBlock: UVAHIK_clean_linker_0, # of connection points: 2
#     Edge 27, Type (0, 0), BuildingBlock: UVAHIK_clean_linker_0, # of connection points: 2
#     Edge 28, Type (0, 0), BuildingBlock: UVAHIK_clean_linker_0, # of connection points: 2
#     Edge 29, Type (0, 0), BuildingBlock: UVAHIK_clean_linker_0, # of connection points: 2
#     Edge 30, Type (0, 0), BuildingBlock: UVAHIK_clean_linker_0, # of connection points: 2
#     Edge 31, Type (0, 0), BuildingBlock: UVAHIK_clean_linker_0, # of connection points: 2
#     Edge 32, Type (0, 0), BuildingBlock: UVAHIK_clean_linker_0, # of connection points: 2
#     Edge 33, Type (0, 0), BuildingBlock: UVAHIK_clean_linker_0, # of connection points: 2
#     Edge 34, Type (0, 0), BuildingBlock: UVAHIK_clean_linker_0, # of connection points: 2
#     Edge 35, Type (0, 0), BuildingBlock: UVAHIK_clean_linker_0, # of connection points: 2
# Relax obj value: 0.162
# Max RMSD: 0.302
# Mean RMSD: 0.302
data_MOF--net-smc--node1-KUMJIN_clean_sbu_1--edge1-UVAHIK_clean_linker_0
_symmetry_space_group_name_H-M    P1
_symmetry_Int_Tables_number       1
_symmetry_cell_setting            triclinic
loop_
_symmetry_equiv_pos_as_xyz
'x, y, z'
_cell_length_a     46.994269
_cell_length_b     46.988736
_cell_length_c     51.156244
_cell_angle_alpha  89.84693
_cell_angle_beta   90.027726
_cell_angle_gamma 119.99495
loop_
_atom_site_label
_atom_site_type_symbol
_atom_site_fract_x
_atom_site_fract_y
_atom_site_fract_z
_atom_type_partial_charge
Eu0 Eu 0.04301 0.42587 0.02569 0.0
C1 C 0.03886 0.55257 0.03545 0.0
N2 N 0.02685 0.52527 0.05094 0.0
C3 C 0.05407 0.55912 0.08813 0.0
C4 C 0.05972 0.58418 0.04579 0.0
C5 C 0.03295 0.52839 0.0772 0.0
C6 C 0.0678 0.58709 0.07233 0.0
C7 C 0.04201 0.57694 0.99271 0.0
C8 C 0.03029 0.54908 1.00906 0.0
C9 C 0.06263 0.60833 1.00308 0.0
C10 C 0.07163 0.61191 0.02948 0.0
Eu11 Eu 0.99104 0.4751 0.02945 0.0
N12 N 0.01138 0.51838 0.99915 0.0
C13 C 0.0331 0.57235 0.96626 0.0
C14 C 1.00183 0.5137 0.97361 0.0
C15 C 0.01284 0.54061 0.95671 0.0
H16 H 0.02098 0.50767 0.0902 0.0
H17 H 0.00556 0.53688 0.93636 0.0
H18 H 1.00048 0.3649 0.98357 0.0
H19 H 0.09397 0.41943 0.11999 0.0
H20 H 0.98569 0.48919 0.96637 0.0
H21 H 0.04169 0.59313 0.95308 0.0
H22 H 0.0901 0.44591 0.07929 0.0
H23 H 0.05921 0.5613 0.10888 0.0
H24 H 0.07208 0.62998 0.99077 0.0
H25 H 0.08778 0.63629 0.03712 0.0
H26 H 0.96796 0.30401 0.98341 0.0
H27 H 0.08393 0.6109 0.08094 0.0
H28 H 0.0574 0.35967 0.12659 0.0
N29 N 0.01297 0.3678 1.02372 0.0
C30 C 0.01236 0.35121 0.04562 0.0
C31 C 0.98015 0.31698 1.00109 0.0
C32 C 0.9944 0.3166 0.04649 0.0
C33 C 0.99855 0.35132 1.00118 0.0
C34 C 0.97766 0.29952 1.02397 0.0
N35 N 0.05037 0.40199 0.06402 0.0
C36 C 0.07357 0.41993 0.08232 0.0
C37 C 0.03322 0.35262 0.08916 0.0
C38 C 0.03149 0.36894 0.06656 0.0
C39 C 0.0553 0.37124 0.10891 0.0
C40 C 0.07602 0.40497 0.10524 0.0
H41 H 0.96353 0.27292 1.02384 0.0
H42 H 0.98061 0.27365 0.07066 0.0
H43 H 0.01464 0.30525 0.1081 0.0
O44 O 0.0919 0.43041 1.02431 0.0
O45 O 0.98684 0.3942 0.02697 0.0
O46 O 0.96965 0.42554 0.0494 0.0
O47 O 0.06588 0.42614 0.98863 0.0
O48 O 0.04974 0.46045 0.05909 0.0
O49 O 1.00021 0.4566 0.06846 0.0
O50 O 0.94207 0.46298 1.01544 0.0
O51 O 0.03898 0.49456 1.00648 0.0
O52 O 0.06856 0.48055 0.03331 0.0
O53 O 0.96444 0.49698 0.04725 0.0
O54 O 0.97648 0.43914 0.99528 0.0
O55 O 0.02491 0.43881 0.98878 0.0
C56 C 0.96387 0.3977 0.03882 0.0
C57 C 0.12283 0.46402 0.98871 0.0
C58 C 0.18239 0.50016 0.9849 0.0
C59 C 0.17689 0.5225 0.97045 0.0
C60 C 0.11821 0.48706 0.97444 0.0
C61 C 0.14507 0.51599 0.96538 0.0
C62 C 0.15504 0.47072 0.99389 0.0
C63 C 0.02683 0.45597 0.07591 0.0
C64 C 0.09408 0.43387 0.99903 0.0
C65 C 0.99457 0.30023 0.06946 0.0
C66 C 0.01393 0.31823 0.09079 0.0
C67 C 0.06709 0.50153 1.01723 0.0
C68 C 0.90694 0.46775 0.04636 0.0
C69 C 0.85829 0.47179 0.05722 0.0
C70 C 0.84969 0.4467 0.07596 0.0
C71 C 0.89792 0.44302 0.0652 0.0
C72 C 0.88701 0.48184 0.04224 0.0
C73 C 0.86921 0.43233 0.0797 0.0
C74 C 0.99471 0.4302 0.98176 0.0
C75 C 0.93856 0.4814 0.03264 0.0
H76 H 0.19723 0.54499 0.96278 0.0
H77 H 0.09381 0.48289 0.97033 0.0
H78 H 0.1412 0.53348 0.95438 0.0
H79 H 0.15871 0.45337 1.00533 0.0
H80 H 0.82834 0.43866 0.08834 0.0
H81 H 0.91343 0.43252 0.06906 0.0
H82 H 0.89427 0.50092 0.02758 0.0
H83 H 0.86244 0.41335 0.09435 0.0
Eu84 Eu 0.59201 0.62238 1.00794 0.0
C85 C 0.46422 0.50049 0.02737 0.0
N86 N 0.48679 0.51279 0.04683 0.0
C87 C 0.44546 0.50622 0.07752 0.0
C88 C 0.43121 0.49152 0.03216 0.0
C89 C 0.47795 0.5151 0.07178 0.0
C90 C 0.42201 0.49459 0.05758 0.0
C91 C 0.45109 0.4842 0.98208 0.0
C92 C 0.47423 0.49704 1.00261 0.0
C93 C 0.41848 0.47643 0.98652 0.0
C94 C 0.40854 0.47998 1.01151 0.0
Eu95 Eu 0.54092 0.52692 0.03618 0.0
N96 N 0.50604 0.50476 0.99887 0.0
C97 C 0.46109 0.47851 0.95789 0.0
C98 C 0.51467 0.49575 0.97612 0.0
C99 C 0.4928 0.4836 0.9551 0.0
H100 H 0.49621 0.52426 0.08713 0.0
H101 H 0.50021 0.47744 0.93692 0.0
H102 H 0.56277 0.61328 0.94758 0.0
H103 H 0.71662 0.70314 0.04332 0.0
H104 H 0.53798 0.49682 0.974 0.0
H105 H 0.44409 0.46871 0.94164 0.0
H106 H 0.65626 0.66717 0.04695 0.0
H107 H 0.43854 0.5085 0.09724 0.0
H108 H 0.40055 0.46697 0.97088 0.0
H109 H 0.3832 0.47348 1.01471 0.0
H110 H 0.58379 0.62742 0.90216 0.0
H111 H 0.39691 0.48801 0.06201 0.0
H112 H 0.74335 0.71489 0.99985 0.0
N113 N 0.61034 0.63548 0.96443 0.0
C114 C 0.64319 0.6536 0.96051 0.0
C115 C 0.60078 0.63484 0.91839 0.0
C116 C 0.65634 0.66249 0.9351 0.0
C117 C 0.58896 0.62678 0.94403 0.0
C118 C 0.63466 0.65239 0.91387 0.0
N119 N 0.6495 0.65788 1.00616 0.0
C120 C 0.66791 0.67219 0.02795 0.0
C121 C 0.69764 0.68577 0.979 0.0
C122 C 0.66347 0.66512 0.9821 0.0
C123 C 0.71699 0.69895 1.00138 0.0
C124 C 0.70199 0.69247 0.02595 0.0
H125 H 0.64378 0.65862 0.89402 0.0
H126 H 0.70112 0.68896 0.91243 0.0
H127 H 0.73736 0.70915 0.9509 0.0
O128 O 0.56634 0.6425 0.03002 0.0
O129 O 0.62631 0.60618 0.02608 0.0
O130 O 0.59624 0.5509 0.03964 0.0
O131 O 0.59337 0.66745 0.99513 0.0
O132 O 0.59211 0.61755 0.05204 0.0
O133 O 0.55966 0.56416 0.06935 0.0
O134 O 0.52502 0.47439 0.03534 0.0
O135 O 0.52316 0.56394 0.03691 0.0
O136 O 0.53975 0.5862 0.99677 0.0
O137 O 0.53718 0.49995 0.07206 0.0
O138 O 0.57679 0.53712 1.00262 0.0
O139 O 0.56712 0.57544 0.98521 0.0
C140 C 0.62396 0.57916 0.03642 0.0
C141 C 0.58678 0.6996 0.02728 0.0
C142 C 0.57853 0.74619 0.03522 0.0
C143 C 0.60566 0.75946 0.05225 0.0
C144 C 0.61396 0.71333 0.04407 0.0
C145 C 0.62329 0.74315 0.05652 0.0
C146 C 0.5693 0.71615 1.02276 0.0
C147 C 0.57871 0.59648 0.07164 0.0
C148 C 0.57577 0.6678 1.01464 0.0
C149 C 0.69049 0.68204 0.9318 0.0
C150 C 0.71113 0.69352 0.95372 0.0
C151 C 0.51778 0.5757 1.01541 0.0
C152 C 0.54463 0.45359 0.06869 0.0
C153 C 0.5445 0.40142 0.07049 0.0
C154 C 0.57372 0.417 0.08518 0.0
C155 C 0.57352 0.46837 0.08366 0.0
C156 C 0.53012 0.42004 0.06229 0.0
C157 C 0.58804 0.45018 0.09167 0.0
C158 C 0.58163 0.55802 0.98377 0.0
C159 C 0.52866 0.47233 0.06031 0.0
H160 H 0.61347 0.78265 0.06199 0.0
H161 H 0.62778 0.70094 0.04762 0.0
H162 H 0.64423 0.75364 0.06955 0.0
H163 H 0.54813 0.7053 1.00991 0.0
H164 H 0.58521 0.40337 0.09213 0.0
H165 H 0.58468 0.49384 0.08944 0.0
H166 H 0.50773 0.40853 0.05082 0.0
H167 H 0.61032 0.46178 0.1032 0.0
Eu168 Eu 0.39952 0.986 1.00169 0.0
C169 C 0.52225 0.98067 0.02568 0.0
N170 N 0.51023 0.99305 0.04367 0.0
C171 C 0.51739 0.96204 0.07764 0.0
C172 C 0.53167 0.95759 0.033 0.0
C173 C 0.50829 0.98477 0.06944 0.0
C174 C 0.52897 0.94823 0.05931 0.0
C175 C 0.5383 0.97911 0.98095 0.0
C176 C 0.52536 0.99132 0.99994 0.0
C177 C 0.54663 0.95526 0.98797 0.0
C178 C 0.54346 0.94464 1.01395 0.0
Eu179 Eu 0.4955 0.03126 0.02897 0.0
N180 N 0.51744 0.01477 0.99377 0.0
C181 C 0.54369 0.99209 0.95566 0.0
C182 C 0.52613 0.02985 0.96984 0.0
C183 C 0.53825 0.01806 0.95026 0.0
H184 H 0.49932 0.99552 0.08356 0.0
H185 H 0.54418 0.02961 0.93117 0.0
H186 H 0.40579 0.95815 0.94385 0.0
H187 H 0.32193 0.03654 0.03067 0.0
H188 H 0.52489 0.05166 0.96566 0.0
H189 H 0.55354 0.98334 0.94053 0.0
H190 H 0.3562 0.01071 0.03743 0.0
H191 H 0.51543 0.95513 0.09804 0.0
H192 H 0.55629 0.94543 0.97357 0.0
H193 H 0.5505 0.92664 1.01916 0.0
H194 H 0.38945 0.95884 0.89783 0.0
H195 H 0.53586 0.93049 0.06567 0.0
H196 H 0.31072 0.04819 0.98578 0.0
N197 N 0.38577 0.98701 0.95759 0.0
C198 C 0.36849 1.00219 0.95183 0.0
C199 C 0.38365 0.97138 0.9128 0.0
C200 C 0.35894 0.00356 0.92597 0.0
C201 C 0.39292 0.97109 0.93875 0.0
C202 C 0.36673 0.98785 0.90636 0.0
N203 N 0.36527 0.00926 0.99692 0.0
C204 C 0.35146 0.01591 1.0178 0.0
C205 C 0.33839 0.02821 0.96731 0.0
C206 C 0.35812 0.01399 0.97219 0.0
C207 C 0.32595 0.03716 0.98867 0.0
C208 C 0.33212 0.03052 1.01404 0.0
H209 H 0.35905 0.98753 0.88635 0.0
H210 H 0.33367 0.02111 0.90094 0.0
H211 H 0.31581 0.04293 0.93721 0.0
O212 O 0.37717 0.9431 0.02774 0.0
O213 O 0.41683 0.03828 1.01674 0.0
O214 O 0.47282 0.06359 0.02775 0.0
O215 O 0.35516 0.94114 0.99023 0.0
O216 O 0.40524 0.99586 0.04514 0.0
O217 O 0.45809 0.01381 0.0623 0.0
O218 O 0.54835 0.0665 0.0279 0.0
O219 O 0.4579 0.97716 0.03373 0.0
O220 O 0.43481 0.96759 0.99368 0.0
O221 O 0.52132 0.06009 0.0634 0.0
O222 O 0.4852 0.05342 0.99283 0.0
O223 O 0.44584 0.00423 0.97844 0.0
C224 C 0.445 0.06373 0.02455 0.0
C225 C 0.31989 0.90657 1.02312 0.0
C226 C 0.27081 0.85295 0.03064 0.0
C227 C 0.25458 0.86936 0.03988 0.0
C228 C 0.3034 0.92226 0.03271 0.0
C229 C 0.27091 0.90366 0.04114 0.0
C230 C 0.30382 0.8721 1.02251 0.0
C231 C 0.42608 1.00269 0.06471 0.0
C232 C 0.35297 0.92556 1.01186 0.0
C233 C 0.34079 0.0193 0.92075 0.0
C234 C 0.33064 0.03173 0.9414 0.0
C235 C 0.44512 0.95771 1.0136 0.0
C236 C 0.56654 0.11321 0.05467 0.0
C237 C 0.6178 0.16624 0.05396 0.0
C238 C 0.59968 0.18175 0.06037 0.0
C239 C 0.54909 0.12938 0.06077 0.0
C240 C 0.60084 0.13174 0.05124 0.0
C241 C 0.56564 0.16344 0.06362 0.0
C242 C 0.46399 0.0358 0.97468 0.0
C243 C 0.54932 0.07717 0.05145 0.0
H244 H 0.22902 0.85588 0.0457 0.0
H245 H 0.31545 0.94878 0.03328 0.0
H246 H 0.25809 0.91589 0.04824 0.0
H247 H 0.31721 0.8604 1.0155 0.0
H248 H 0.61181 0.20809 0.06314 0.0
H249 H 0.52268 0.11572 0.06336 0.0
H250 H 0.61415 0.11924 0.04603 0.0
H251 H 0.55203 0.17572 0.06843 0.0
Eu252 Eu 0.70938 0.76103 0.36809 0.0
C253 C 0.6987 0.88303 0.3767 0.0
N254 N 0.68546 0.85495 0.39134 0.0
C255 C 0.70769 0.88704 0.43027 0.0
C256 C 0.71791 0.91414 0.38839 0.0
C257 C 0.68827 0.85682 0.41796 0.0
C258 C 0.72293 0.91578 0.41541 0.0
C259 C 0.70552 0.9095 0.33437 0.0
C260 C 0.69276 0.88084 0.34989 0.0
C261 C 0.72473 0.94038 0.34603 0.0
C262 C 0.73108 0.94268 0.37291 0.0
Eu263 Eu 0.65312 0.80564 0.36751 0.0
N264 N 0.67517 0.85066 0.33883 0.0
C265 C 0.69898 0.90621 0.30749 0.0
C266 C 0.66785 0.84722 0.31283 0.0
C267 C 0.67993 0.87494 0.2967 0.0
H268 H 0.67489 0.83548 0.43013 0.0
H269 H 0.67446 0.8722 0.276 0.0
H270 H 0.67602 0.70444 0.32113 0.0
H271 H 0.74603 0.74674 0.46632 0.0
H272 H 0.65271 0.82303 0.30461 0.0
H273 H 0.70843 0.92764 0.29492 0.0
H274 H 0.74678 0.77692 0.42639 0.0
H275 H 0.71028 0.8882 0.45133 0.0
H276 H 0.73501 0.96264 0.33438 0.0
H277 H 0.74602 0.9667 0.38158 0.0
H278 H 0.64601 0.6438 0.31683 0.0
H279 H 0.73768 0.93918 0.42507 0.0
H280 H 0.71092 0.68625 0.46824 0.0
N281 N 0.68214 0.7035 0.36214 0.0
C282 C 0.67879 0.68497 0.38354 0.0
C283 C 0.65489 0.65504 0.33574 0.0
C284 C 0.6622 0.6504 0.38206 0.0
C285 C 0.6718 0.68926 0.33818 0.0
C286 C 0.64966 0.63549 0.35786 0.0
N287 N 0.71119 0.73412 0.40663 0.0
C288 C 0.73087 0.75058 0.4273 0.0
C289 C 0.69264 0.68249 0.42878 0.0
C290 C 0.69363 0.7008 0.40657 0.0
C291 C 0.71092 0.69939 0.4508 0.0
C292 C 0.73074 0.73354 0.44981 0.0
H293 H 0.6367 0.60898 0.35591 0.0
H294 H 0.64654 0.60536 0.4039 0.0
H295 H 0.67335 0.63348 0.44481 0.0
O296 O 0.7565 0.76307 0.3728 0.0
O297 O 0.6537 0.72714 0.36518 0.0
O298 O 0.63169 0.75534 0.38609 0.0
O299 O 0.74334 0.7737 0.33508 0.0
O300 O 0.71042 0.79337 0.4014 0.0
O301 O 0.65887 0.78608 0.4072 0.0
O302 O 0.60541 0.79193 0.3499 0.0
O303 O 0.70224 0.82611 0.34632 0.0
O304 O 0.7301 0.81476 0.37662 0.0
O305 O 0.62259 0.82462 0.38288 0.0
O306 O 0.64418 0.77175 0.33276 0.0
O307 O 0.69254 0.76953 0.32852 0.0
C308 C 0.62876 0.72857 0.37548 0.0
C309 C 0.78299 0.75632 0.33629 0.0
C310 C 0.83558 0.76022 0.32601 0.0
C311 C 0.81855 0.72834 0.31551 0.0
C312 C 0.76634 0.72463 0.32569 0.0
C313 C 0.78415 0.71078 0.31526 0.0
C314 C 0.81746 0.77402 0.33628 0.0
C315 C 0.6853 0.78654 0.41653 0.0
C316 C 0.76545 0.77123 0.34867 0.0
C317 C 0.6595 0.63197 0.40454 0.0
C318 C 0.67471 0.64799 0.42786 0.0
C319 C 0.72968 0.83446 0.35876 0.0
C320 C 0.56546 0.79281 0.37773 0.0
C321 C 0.51421 0.79322 0.38545 0.0
C322 C 0.50351 0.76524 0.40147 0.0
C323 C 0.55441 0.76524 0.39399 0.0
C324 C 0.54537 0.8067 0.37347 0.0
C325 C 0.52343 0.75136 0.40557 0.0
C326 C 0.66369 0.76391 0.31977 0.0
C327 C 0.5987 0.80873 0.36648 0.0
H328 H 0.83181 0.71709 0.30734 0.0
H329 H 0.73976 0.71061 0.3257 0.0
H330 H 0.77126 0.68628 0.30711 0.0
H331 H 0.83018 0.79831 0.34495 0.0
H332 H 0.48006 0.75445 0.41143 0.0
H333 H 0.56993 0.7548 0.39803 0.0
H334 H 0.55416 0.82809 0.36092 0.0
H335 H 0.51502 0.73009 0.41816 0.0
Eu336 Eu 0.26066 0.96731 0.35856 0.0
C337 C 0.13392 0.8351 0.36222 0.0
N338 N 0.15963 0.84988 0.37925 0.0
C339 C 0.12214 0.84016 0.41452 0.0
C340 C 0.1013 0.82299 0.37081 0.0
C341 C 0.15398 0.85126 0.40529 0.0
C342 C 0.09572 0.82623 0.3972 0.0
C343 C 0.11388 0.81656 0.31808 0.0
C344 C 0.14005 0.83181 0.33601 0.0
C345 C 0.0815 0.80458 0.3267 0.0
C346 C 0.07524 0.80778 0.35295 0.0
Eu347 Eu 0.21184 0.86608 0.36074 0.0
N348 N 0.17168 0.84435 0.32788 0.0
C349 C 0.12105 0.81397 0.29192 0.0
C350 C 0.17881 0.84094 0.30265 0.0
C351 C 0.15364 0.82607 0.28421 0.0
H352 H 0.17357 0.85984 0.41935 0.0
H353 H 0.15934 0.82375 0.26411 0.0
H354 H 0.32087 0.98622 0.31553 0.0
H355 H 0.26938 0.02336 0.45378 0.0
H356 H 0.20391 0.84965 0.29677 0.0
H357 H 0.10161 0.80248 0.27756 0.0
H358 H 0.24232 0.99491 0.41269 0.0
H359 H 0.11792 0.84175 0.43513 0.0
H360 H 0.0611 0.79289 0.31318 0.0
H361 H 0.05009 0.79827 0.35928 0.0
H362 H 0.38172 0.01414 0.31457 0.0
H363 H 0.07105 0.8174 0.40449 0.0
H364 H 0.32879 0.04432 0.46005 0.0
N365 N 0.31865 0.99452 0.35604 0.0
C366 C 0.33561 0.00961 0.37798 0.0
C367 C 0.36906 0.01285 0.33258 0.0
C368 C 0.37021 0.02584 0.37845 0.0
C369 C 0.33473 0.99711 0.33313 0.0
C370 C 0.38689 0.02686 0.35545 0.0
N371 N 0.28527 0.9972 0.39717 0.0
C372 C 0.26799 1.00298 0.41574 0.0
C373 C 0.33503 0.02786 0.42207 0.0
C374 C 0.31827 0.01063 0.39939 0.0
C375 C 0.3169 0.03131 0.44227 0.0
C376 C 0.28334 0.01948 0.43882 0.0
H377 H 0.41347 0.03912 0.35498 0.0
H378 H 0.41354 0.05368 0.40238 0.0
H379 H 0.38268 0.05541 0.44067 0.0
O380 O 0.25672 0.01205 0.35797 0.0
O381 O 0.29235 0.94268 0.36039 0.0
O382 O 0.25898 0.89571 0.38334 0.0
O383 O 0.26223 0.9918 0.32198 0.0
O384 O 0.22436 0.93989 0.39147 0.0
O385 O 0.2264 0.89277 0.40036 0.0
O386 O 0.22785 0.83074 0.35043 0.0
O387 O 0.19354 0.89483 0.33706 0.0
O388 O 0.20529 0.93777 0.36399 0.0
O389 O 0.1871 0.81658 0.37663 0.0
O390 O 0.24942 0.88864 0.32742 0.0
O391 O 0.24896 0.93713 0.3215 0.0
C392 C 0.2875 0.91599 0.37276 0.0
C393 C 0.22549 0.01222 0.32162 0.0
C394 C 0.19278 0.03891 0.3148 0.0
C395 C 0.1699 0.01141 0.3005 0.0
C396 C 0.20206 0.98494 0.30733 0.0
C397 C 0.17449 0.98459 0.29693 0.0
C398 C 0.22054 0.0391 0.32552 0.0
C399 C 0.22563 0.91923 0.40816 0.0
C400 C 0.25463 0.01221 0.33263 0.0
C401 C 0.38697 0.04142 0.4015 0.0
C402 C 0.36939 0.04236 0.42331 0.0
C403 C 0.18543 0.91521 0.3475 0.0
C404 C 0.21669 0.78936 0.38248 0.0
C405 C 0.21227 0.73682 0.39448 0.0
C406 C 0.22923 0.75129 0.41784 0.0
C407 C 0.23276 0.80289 0.40616 0.0
C408 C 0.20664 0.75644 0.37666 0.0
C409 C 0.23954 0.78409 0.42348 0.0
C410 C 0.25833 0.91619 0.3143 0.0
C411 C 0.20614 0.80765 0.36547 0.0
H412 H 0.14815 0.01047 0.29236 0.0
H413 H 0.20495 0.96375 0.30415 0.0
H414 H 0.15658 0.96343 0.28606 0.0
H415 H 0.23838 0.06018 0.33656 0.0
H416 H 0.23359 0.73702 0.43228 0.0
H417 H 0.23939 0.82774 0.41152 0.0
H418 H 0.1937 0.746 0.35852 0.0
H419 H 0.25196 0.79469 0.44173 0.0
Eu420 Eu 0.06083 0.31843 0.3436 0.0
C421 C 0.18586 0.31628 0.36127 0.0
N422 N 0.17416 0.32786 0.38026 0.0
C423 C 0.18411 0.29719 0.41282 0.0
C424 C 0.19642 0.29374 0.3674 0.0
C425 C 0.17379 0.31938 0.40582 0.0
C426 C 0.19531 0.28417 0.39351 0.0
C427 C 0.19915 0.31503 0.31563 0.0
C428 C 0.18702 0.32681 0.33562 0.0
C429 C 0.20876 0.29185 0.32157 0.0
C430 C 0.20757 0.28138 0.34738 0.0
Eu431 Eu 0.15815 0.36573 0.36723 0.0
N432 N 0.17769 0.34947 0.33038 0.0
C433 C 0.20238 0.32773 0.29038 0.0
C434 C 0.18437 0.3644 0.3064 0.0
C435 C 0.19565 0.35303 0.2859 0.0
H436 H 0.16516 0.32956 0.42071 0.0
H437 H 0.19998 0.36443 0.26679 0.0
H438 H 0.06117 0.30402 0.28001 0.0
H439 H 0.98845 0.36102 0.39685 0.0
H440 H 0.1823 0.38588 0.3029 0.0
H441 H 0.21156 0.3193 0.27452 0.0
H442 H 0.02289 0.33509 0.39166 0.0
H443 H 0.1834 0.29011 0.43306 0.0
H444 H 0.21786 0.2824 0.3064 0.0
H445 H 0.21561 0.26392 0.35169 0.0
H446 H 0.04116 0.31537 0.23858 0.0
H447 H 0.20312 0.26682 0.39896 0.0
H448 H 0.97226 0.38096 0.3579 0.0
N449 N 0.04268 0.32829 0.30351 0.0
C450 C 0.0251 0.34398 0.30452 0.0
C451 C 0.03666 0.32374 0.25698 0.0
C452 C 0.01346 0.35123 0.2815 0.0
C453 C 0.04801 0.31744 0.28035 0.0
C454 C 0.01973 0.34115 0.25751 0.0
N455 N 0.02697 0.34168 0.35044 0.0
C456 C 0.0159 0.34388 0.37465 0.0
C457 C 0.99718 0.3655 0.3307 0.0
C458 C 0.01698 0.3509 0.32875 0.0
C459 C 0.98746 0.36981 0.35557 0.0
C460 C 0.9965 0.35853 0.37761 0.0
H461 H 0.01095 0.34601 0.2394 0.0
H462 H 0.98616 0.37333 0.26576 0.0
H463 H 0.97195 0.38591 0.30888 0.0
O464 O 0.03384 0.27288 0.36621 0.0
O465 O 0.07838 0.37026 0.35868 0.0
O466 O 0.13312 0.3956 0.37318 0.0
O467 O 0.01966 0.2751 0.32637 0.0
O468 O 0.06983 0.31881 0.38718 0.0
O469 O 0.1242 0.34998 0.40269 0.0
O470 O 0.20987 0.40238 0.3612 0.0
O471 O 0.1233 0.31053 0.37055 0.0
O472 O 0.0969 0.30236 0.332 0.0
O473 O 0.18955 0.39402 0.39994 0.0
O474 O 0.14431 0.38764 0.33296 0.0
O475 O 0.1052 0.3384 0.31768 0.0
C476 C 0.10482 0.39466 0.36956 0.0
C477 C 0.97787 0.23909 0.35481 0.0
C478 C 0.92815 0.18596 0.36151 0.0
C479 C 0.91011 0.20238 0.36412 0.0
C480 C 0.95946 0.25491 0.35745 0.0
C481 C 0.92577 0.2366 0.36231 0.0
C482 C 0.96232 0.20482 0.35724 0.0
C483 C 0.09205 0.33098 0.406 0.0
C484 C 0.01275 0.25752 0.34757 0.0
C485 C 0.99502 0.36721 0.28325 0.0
C486 C 0.98692 0.37436 0.30781 0.0
C487 C 0.10858 0.29171 0.3504 0.0
C488 C 0.23317 0.44746 0.38974 0.0
C489 C 0.28516 0.49955 0.38991 0.0
C490 C 0.26781 0.51584 0.39631 0.0
C491 C 0.21642 0.46426 0.39579 0.0
C492 C 0.26751 0.46515 0.38681 0.0
C493 C 0.23368 0.49826 0.39918 0.0
C494 C 0.12277 0.37024 0.31491 0.0
C495 C 0.21519 0.41171 0.38542 0.0
H496 H 0.88375 0.18886 0.36687 0.0
H497 H 0.97092 0.28124 0.35521 0.0
H498 H 0.9116 0.24891 0.36411 0.0
H499 H 0.97694 0.19297 0.35544 0.0
H500 H 0.28061 0.54218 0.39923 0.0
H501 H 0.19003 0.45108 0.39776 0.0
H502 H 0.28031 0.45217 0.38151 0.0
H503 H 0.22056 0.51105 0.40396 0.0
Eu504 Eu 0.37671 0.09923 0.69009 0.0
C505 C 0.36462 0.22067 0.70149 0.0
N506 N 0.35482 0.19396 0.71737 0.0
C507 C 0.3818 0.22948 0.7538 0.0
C508 C 0.38425 0.25285 0.71122 0.0
C509 C 0.36184 0.1981 0.74348 0.0
C510 C 0.39335 0.25695 0.73757 0.0
C511 C 0.3642 0.24324 0.65866 0.0
C512 C 0.35472 0.21602 0.67537 0.0
C513 C 0.38387 0.27517 0.66838 0.0
C514 C 0.39386 0.27994 0.69454 0.0
Eu515 Eu 0.32022 0.14257 0.69707 0.0
N516 N 0.33644 0.18487 0.66613 0.0
C517 C 0.35379 0.23753 0.63257 0.0
C518 C 0.32516 0.17909 0.64103 0.0
C519 C 0.33404 0.20533 0.62377 0.0
H520 H 0.3514 0.17764 0.75683 0.0
H521 H 0.32549 0.20074 0.60375 0.0
H522 H 0.34066 0.04537 0.64183 0.0
H523 H 0.41691 0.07918 0.78519 0.0
H524 H 0.30938 0.15422 0.63437 0.0
H525 H 0.36065 0.25781 0.61914 0.0
H526 H 0.41737 0.11147 0.74681 0.0
H527 H 0.38768 0.23251 0.77443 0.0
H528 H 0.39153 0.29636 0.65579 0.0
H529 H 0.40888 0.30477 0.70175 0.0
H530 H 0.30999 0.98504 0.63545 0.0
H531 H 0.40855 0.28125 0.74571 0.0
H532 H 0.38089 0.01876 0.78552 0.0
N533 N 0.34851 0.04211 0.6823 0.0
C534 C 0.34594 0.02239 0.70265 0.0
C535 C 0.31974 0.99521 0.6545 0.0
C536 C 0.32896 0.98794 0.69997 0.0
C537 C 0.3369 0.02925 0.65815 0.0
C538 C 0.31537 0.97441 0.6756 0.0
N539 N 0.37973 0.07021 0.72688 0.0
C540 C 0.40057 0.0853 0.74728 0.0
C541 C 0.36134 0.01732 0.74687 0.0
C542 C 0.36177 0.03692 0.72577 0.0
C543 C 0.38048 0.0329 0.7689 0.0
C544 C 0.40079 0.06701 0.76883 0.0
H545 H 0.30216 0.94805 0.67272 0.0
H546 H 0.31371 0.9417 0.71983 0.0
H547 H 0.34216 0.96745 0.76092 0.0
O548 O 0.4242 0.10156 0.69174 0.0
O549 O 0.32074 0.06488 0.69184 0.0
O550 O 0.30544 0.09452 0.7177 0.0
O551 O 0.40674 0.10925 0.65481 0.0
O552 O 0.38432 0.13291 0.72464 0.0
O553 O 0.33397 0.12681 0.73543 0.0
O554 O 0.26826 0.12426 0.6872 0.0
O555 O 0.36579 0.1631 0.67133 0.0
O556 O 0.3992 0.15381 0.69734 0.0
O557 O 0.29321 0.16395 0.71461 0.0
O558 O 0.30616 0.1069 0.66281 0.0
O559 O 0.35522 0.10815 0.65299 0.0
C560 C 0.29832 0.06715 0.70566 0.0
C561 C 0.44673 0.09219 0.65388 0.0
C562 C 0.49833 0.09438 0.64273 0.0
C563 C 0.48032 0.06291 0.63163 0.0
C564 C 0.42909 0.06089 0.64269 0.0
C565 C 0.44592 0.04641 0.63152 0.0
C566 C 0.48119 0.10883 0.65373 0.0
C567 C 0.36222 0.12909 0.74215 0.0
C568 C 0.43034 0.10782 0.667 0.0
C569 C 0.32692 0.96825 0.7214 0.0
C570 C 0.34307 0.98291 0.74482 0.0
C571 C 0.39504 0.17279 0.6809 0.0
C572 C 0.23606 0.1333 0.7187 0.0
C573 C 0.18703 0.1369 0.72857 0.0
C574 C 0.18324 0.11941 0.75194 0.0
C575 C 0.23239 0.11685 0.74244 0.0
C576 C 0.21328 0.14306 0.71178 0.0
C577 C 0.20568 0.10933 0.75868 0.0
C578 C 0.32456 0.0999 0.6475 0.0
C579 C 0.26579 0.14486 0.70273 0.0
H580 H 0.49282 0.05118 0.62292 0.0
H581 H 0.40251 0.04765 0.64277 0.0
H582 H 0.43227 0.02221 0.6229 0.0
H583 H 0.49468 0.13278 0.66289 0.0
H584 H 0.16367 0.11454 0.76554 0.0
H585 H 0.25062 0.11064 0.74876 0.0
H586 H 0.21668 0.15635 0.69363 0.0
H587 H 0.20294 0.0966 0.77699 0.0
Eu588 Eu 0.92103 0.28826 0.67051 0.0
C589 C 0.79254 0.16252 0.69198 0.0
N590 N 0.8161 0.17732 0.71049 0.0
C591 C 0.77562 0.16981 0.74239 0.0
C592 C 0.75925 0.15114 0.69801 0.0
C593 C 0.80826 0.18059 0.73555 0.0
C594 C 0.751 0.15507 0.72353 0.0
C595 C 0.77742 0.14295 0.64754 0.0
C596 C 0.80169 0.15851 0.66703 0.0
C597 C 0.74439 0.13237 0.65329 0.0
C598 C 0.73529 0.13615 0.67851 0.0
Eu599 Eu 0.87004 0.19247 0.69846 0.0
N600 N 0.83382 0.16826 0.66216 0.0
C601 C 0.78682 0.13728 0.62308 0.0
C602 C 0.84215 0.15939 0.63917 0.0
C603 C 0.8192 0.14498 0.61906 0.0
H604 H 0.82734 0.19169 0.75017 0.0
H605 H 0.82632 0.13889 0.60072 0.0
H606 H 0.89281 0.28341 0.61032 0.0
H607 H 0.04669 0.36291 0.70674 0.0
H608 H 0.86602 0.16205 0.63622 0.0
H609 H 0.76896 0.12553 0.6076 0.0
H610 H 0.98601 0.33006 0.71011 0.0
H611 H 0.76947 0.17274 0.76221 0.0
H612 H 0.72554 0.12049 0.63852 0.0
H613 H 0.7096 0.12711 0.68278 0.0
H614 H 0.91441 0.29819 0.56506 0.0
H615 H 0.72572 0.1467 0.72888 0.0
H616 H 0.07352 0.3738 0.66335 0.0
N617 N 0.94005 0.30249 0.62727 0.0
C618 C 0.97298 0.31887 0.6235 0.0
C619 C 0.93116 0.30405 0.58132 0.0
C620 C 0.98646 0.32763 0.59819 0.0
C621 C 0.91901 0.29568 0.60685 0.0
C622 C 0.96504 0.31962 0.57692 0.0
N623 N 0.97903 0.32171 0.66919 0.0
C624 C 0.99769 0.3348 0.69113 0.0
C625 C 0.02755 0.34752 0.64226 0.0
C626 C 0.99316 0.32873 0.64519 0.0
C627 C 0.04699 0.35929 0.66475 0.0
C628 C 0.03194 0.35328 0.68928 0.0
H629 H 0.97441 0.3259 0.55713 0.0
H630 H 0.03163 0.35168 0.57572 0.0
H631 H 0.06767 0.369 0.61437 0.0
O632 O 0.8995 0.31137 0.69437 0.0
O633 O 0.9552 0.27068 0.68615 0.0
O634 O 0.92523 0.21643 0.7019 0.0
O635 O 0.92141 0.33238 0.65693 0.0
O636 O 0.92076 0.283 0.71457 0.0
O637 O 0.88912 0.22951 0.73172 0.0
O638 O 0.85621 0.14045 0.69733 0.0
O639 O 0.85147 0.22899 0.69935 0.0
O640 O 0.86838 0.25265 0.65962 0.0
O641 O 0.86681 0.1655 0.73421 0.0
O642 O 0.90461 0.20327 0.66374 0.0
O643 O 0.89427 0.2417 0.6475 0.0
C644 C 0.95291 0.24418 0.69733 0.0
C645 C 0.92265 0.36881 0.68882 0.0
C646 C 0.91891 0.418 0.69761 0.0
C647 C 0.95232 0.43444 0.70491 0.0
C648 C 0.95566 0.38553 0.69649 0.0
C649 C 0.97034 0.41816 0.70461 0.0
C650 C 0.90425 0.38483 0.68985 0.0
C651 C 0.90782 0.26183 0.73413 0.0
C652 C 0.90763 0.33552 0.67795 0.0
C653 C 0.02076 0.34502 0.59504 0.0
C654 C 0.04128 0.35487 0.61704 0.0
C655 C 0.84597 0.24091 0.67797 0.0
C656 C 0.87726 0.12108 0.73068 0.0
C657 C 0.88001 0.07042 0.7329 0.0
C658 C 0.90942 0.08745 0.74721 0.0
C659 C 0.90632 0.13727 0.74534 0.0
C660 C 0.86412 0.0876 0.72461 0.0
C661 C 0.92241 0.12059 0.75332 0.0
C662 C 0.90827 0.22393 0.64501 0.0
C663 C 0.85975 0.13834 0.72231 0.0
H664 H 0.96491 0.46011 0.71035 0.0
H665 H 0.97019 0.3736 0.69573 0.0
H666 H 0.99599 0.4311 0.71019 0.0
H667 H 0.87857 0.37131 0.68434 0.0
H668 H 0.92206 0.07498 0.75425 0.0
H669 H 0.91635 0.16267 0.75095 0.0
H670 H 0.84158 0.07501 0.7134 0.0
H671 H 0.94483 0.13329 0.76461 0.0
Eu672 Eu 0.72093 0.64623 0.7025 0.0
C673 C 0.85282 0.65186 0.70899 0.0
N674 N 0.83824 0.66414 0.72489 0.0
C675 C 0.84735 0.63826 0.76197 0.0
C676 C 0.86429 0.6314 0.71906 0.0
C677 C 0.83702 0.65898 0.75127 0.0
C678 C 0.86066 0.62406 0.74577 0.0
C679 C 0.8722 0.64809 0.66572 0.0
C680 C 0.85665 0.65993 0.6825 0.0
C681 C 0.88356 0.62775 0.67578 0.0
C682 C 0.8794 0.61924 0.70232 0.0
Eu683 Eu 0.82212 0.699 0.70377 0.0
N684 N 0.84431 0.67858 0.67295 0.0
C685 C 0.87543 0.65666 0.6392 0.0
C686 C 0.84819 0.68786 0.64733 0.0
C687 C 0.8635 0.67675 0.62999 0.0
H688 H 0.8292 0.67148 0.7645 0.0
H689 H 0.86623 0.68379 0.60959 0.0
H690 H 0.70092 0.68186 0.65517 0.0
H691 H 0.67045 0.61348 0.80129 0.0
H692 H 0.83947 0.70386 0.64033 0.0
H693 H 0.88716 0.64798 0.62569 0.0
H694 H 0.6978 0.60961 0.76131 0.0
H695 H 0.84571 0.63383 0.78284 0.0
H696 H 0.89531 0.61819 0.66315 0.0
H697 H 0.88815 0.60337 0.70975 0.0
H698 H 0.67256 0.714 0.65005 0.0
H699 H 0.86893 0.60827 0.7542 0.0
H700 H 0.64742 0.65064 0.80236 0.0
N701 N 0.69324 0.676 0.69608 0.0
C702 C 0.6783 0.68014 0.71722 0.0
C703 C 0.67421 0.70485 0.6691 0.0
C704 C 0.66153 0.69792 0.71531 0.0
C705 C 0.69037 0.68685 0.67199 0.0
C706 C 0.66006 0.71077 0.69093 0.0
N707 N 0.6932 0.64657 0.741 0.0
C708 C 0.68911 0.62695 0.76202 0.0
C709 C 0.66193 0.66758 0.76257 0.0
C710 C 0.67864 0.66527 0.7405 0.0
C711 C 0.66007 0.6496 0.785 0.0
C712 C 0.67312 0.62865 0.78451 0.0
H713 H 0.64743 0.72461 0.68864 0.0
H714 H 0.63354 0.71555 0.73659 0.0
H715 H 0.63379 0.68887 0.778 0.0
O716 O 0.67521 0.59969 0.70715 0.0
O717 O 0.74495 0.70237 0.70172 0.0
O718 O 0.79308 0.71892 0.72427 0.0
O719 O 0.69665 0.61471 0.66871 0.0
O720 O 0.74984 0.64017 0.73552 0.0
O721 O 0.79627 0.6898 0.74369 0.0
O722 O 0.85764 0.74794 0.68859 0.0
O723 O 0.79316 0.651 0.68129 0.0
O724 O 0.75139 0.62204 0.70966 0.0
O725 O 0.87126 0.72699 0.72031 0.0
O726 O 0.79847 0.71146 0.66981 0.0
O727 O 0.74887 0.66296 0.66402 0.0
C728 C 0.77161 0.7253 0.71331 0.0
C729 C 0.6394 0.57587 0.67145 0.0
C730 C 0.58914 0.52434 0.66182 0.0
C731 C 0.57452 0.54246 0.65312 0.0
C732 C 0.62455 0.5936 0.66268 0.0
C733 C 0.59222 0.57687 0.65346 0.0
C734 C 0.62174 0.5414 0.67088 0.0
C735 C 0.76973 0.66292 0.7519 0.0
C736 C 0.67263 0.59217 0.68253 0.0
C737 C 0.64626 0.70169 0.73758 0.0
C738 C 0.64648 0.68656 0.76118 0.0
C739 C 0.77263 0.62307 0.6926 0.0
C740 C 0.89943 0.78462 0.71771 0.0
C741 C 0.95191 0.83558 0.72366 0.0
C742 C 0.93732 0.84446 0.74372 0.0
C743 C 0.88574 0.79373 0.73809 0.0
C744 C 0.93246 0.80553 0.71056 0.0
C745 C 0.90451 0.82373 0.75076 0.0
C746 C 0.77137 0.69264 0.65631 0.0
C747 C 0.88057 0.7523 0.70511 0.0
H748 H 0.54951 0.53005 0.6459 0.0
H749 H 0.63776 0.62019 0.66318 0.0
H750 H 0.58075 0.59059 0.6467 0.0
H751 H 0.63318 0.52783 0.67818 0.0
H752 H 0.95149 0.86706 0.75453 0.0
H753 H 0.8607 0.77746 0.74442 0.0
H754 H 0.94301 0.79818 0.69496 0.0
H755 H 0.89378 0.83067 0.76646 0.0
C756 C 0.47183 0.56974 0.98684 0.0
C757 C 0.4859 0.57421 1.01176 0.0
C758 C 0.43957 0.56349 0.98405 0.0
C759 C 0.37229 0.56733 1.01944 0.0
H760 H 0.31666 0.50033 0.9697 0.0
C761 C 0.24115 0.54042 0.99606 0.0
C762 C 0.21671 0.50798 0.99037 0.0
C763 C 0.27386 0.54856 0.99929 0.0
C764 C 0.33171 0.51882 0.98391 0.0
H765 H 0.47836 0.57791 0.05308 0.0
H766 H 0.4222 0.56677 0.04836 0.0
H767 H 0.37426 0.51576 0.97364 0.0
H768 H 0.20759 0.45844 0.98441 0.0
H769 H 0.26457 0.47241 0.99101 0.0
H770 H 0.32958 0.56954 0.03046 0.0
C771 C 0.43581 0.56811 0.03089 0.0
C772 C 0.36495 0.5281 0.98585 0.0
C773 C 0.46795 0.57427 0.03365 0.0
C774 C 0.22571 0.48364 0.98888 0.0
C775 C 0.25851 0.49176 0.9923 0.0
C776 C 0.33904 0.55788 1.01765 0.0
C777 C 0.4209 0.56188 1.00612 0.0
C778 C 0.3857 0.55257 1.00358 0.0
C779 C 0.28309 0.52443 0.99725 0.0
C780 C 0.3183 0.53361 0.99977 0.0
H781 H 0.48518 0.56956 0.96964 0.0
H782 H 0.42909 0.55942 0.96463 0.0
H783 H 0.38753 0.58642 0.03318 0.0
H784 H 0.23507 0.55974 0.99782 0.0
H785 H 0.29202 0.57403 1.0028 0.0
C786 C 0.44772 0.91187 0.03565 0.0
C787 C 0.44726 0.92745 1.01236 0.0
C788 C 0.45544 0.88681 0.03539 0.0
C789 C 0.50174 0.85836 0.99551 0.0
H790 H 0.47074 0.79001 0.0484 0.0
C791 C 0.55061 0.77629 0.05172 0.0
C792 C 0.55974 0.76346 0.03063 0.0
C793 C 0.53292 0.79253 0.04746 0.0
C794 C 0.47969 0.80904 0.03356 0.0
H795 H 0.45213 0.92757 0.97027 0.0
H796 H 0.46518 0.88323 0.96964 0.0
H797 H 0.44415 0.82292 0.04361 0.0
H798 H 0.55769 0.7578 0.98852 0.0
H799 H 0.52698 0.78652 0.98105 0.0
H800 H 0.53744 0.84446 0.98564 0.0
C801 C 0.46021 0.89082 0.98823 0.0
C802 C 0.46449 0.82795 0.03081 0.0
C803 C 0.45236 0.91594 0.98853 0.0
C804 C 0.55081 0.76725 1.00517 0.0
C805 C 0.53343 0.78385 1.00087 0.0
C806 C 0.51677 0.83924 0.99813 0.0
C807 C 0.46281 0.87661 1.01177 0.0
C808 C 0.47583 0.85344 1.01219 0.0
C809 C 0.52425 0.79662 1.02199 0.0
C810 C 0.50638 0.81487 1.01758 0.0
H811 H 0.44364 0.92015 0.05429 0.0
H812 H 0.45755 0.8769 0.05395 0.0
H813 H 0.51149 0.87797 0.98117 0.0
H814 H 0.55691 0.77352 0.07157 0.0
H815 H 0.5265 0.80241 0.0641 0.0
C816 C 0.22806 0.79664 0.0468 0.0
C817 C 0.25316 0.81618 0.02895 0.0
C818 C 0.21084 0.76238 0.04475 0.0
C819 C 0.19512 0.69402 0.99863 0.0
H820 H 0.15717 0.6415 0.06092 0.0
C821 C 0.09899 0.55543 0.99408 0.0
C822 C 0.09499 0.53555 1.01583 0.0
C823 C 0.12197 0.58904 0.99458 0.0
C824 C 0.16813 0.65555 0.0433 0.0
H825 H 0.27952 0.81407 0.99478 0.0
H826 H 0.25155 0.75476 0.99255 0.0
H827 H 0.19041 0.70045 0.06465 0.0
H828 H 0.11427 0.53428 0.05402 0.0
H829 H 0.15533 0.59238 0.05452 0.0
H830 H 0.17437 0.64885 0.9775 0.0
C831 C 0.24419 0.76587 1.00763 0.0
C832 C 0.18671 0.68974 0.04538 0.0
C833 C 0.26087 0.80019 1.00928 0.0
C834 C 0.11644 0.54916 0.03711 0.0
C835 C 0.13968 0.58268 0.03752 0.0
C836 C 0.1772 0.65973 0.99663 0.0
C837 C 0.21868 0.74637 0.0252 0.0
C838 C 0.20013 0.70963 1.02304 0.0
C839 C 0.14187 0.60342 1.01673 0.0
C840 C 0.16307 0.63994 1.0189 0.0
H841 H 0.2216 0.80768 0.06256 0.0
H842 H 0.19103 0.7486 0.05842 0.0
H843 H 0.20448 0.70819 0.98082 0.0
H844 H 0.08323 0.5453 0.97716 0.0
H845 H 0.12263 0.60389 0.97814 0.0
C846 C 0.47891 0.12456 1.02353 0.0
C847 C 0.44796 0.09651 0.02771 0.0
C848 C 0.48415 0.15583 0.02862 0.0
C849 C 0.44779 0.20775 0.03567 0.0
H850 H 0.52697 0.26111 0.07591 0.0
C851 C 0.49502 0.34452 0.06635 0.0
C852 C 0.52918 0.3658 0.06418 0.0
C853 C 0.48125 0.31061 0.06234 0.0
C854 C 0.50489 0.24668 0.06452 0.0
H855 H 0.39765 0.07974 0.03916 0.0
H856 H 0.40684 0.13537 0.04788 0.0
H857 H 0.50868 0.20342 0.06848 0.0
H858 H 0.57528 0.36826 0.05451 0.0
H859 H 0.55144 0.30953 0.04758 0.0
H860 H 0.44463 0.25162 0.03126 0.0
C861 C 0.42703 0.13256 0.04083 0.0
C862 C 0.49432 0.21356 0.06038 0.0
C863 C 0.42174 0.1008 0.03579 0.0
C864 C 0.54901 0.35254 0.05697 0.0
C865 C 0.53532 0.31882 0.05301 0.0
C866 C 0.45846 0.24117 0.03982 0.0
C867 C 0.45861 0.16026 0.03793 0.0
C868 C 0.46621 0.19392 0.04531 0.0
C869 C 0.50138 0.29732 0.05615 0.0
C870 C 0.4877 0.26119 0.05368 0.0
H871 H 0.49953 0.12242 1.01656 0.0
H872 H 0.50853 0.17669 0.02553 0.0
H873 H 0.42607 0.19318 1.02394 0.0
H874 H 0.47906 0.3539 0.07203 0.0
H875 H 0.45504 0.29471 0.06496 0.0
C876 C 0.67521 0.17491 0.05872 0.0
C877 C 0.65416 0.18622 0.05004 0.0
C878 C 0.70937 0.19435 0.05571 0.0
C879 C 0.77352 0.26798 1.01968 0.0
H880 H 0.83062 0.27181 0.07599 0.0
C881 C 0.90407 0.37668 0.03342 0.0
C882 C 0.92957 0.37019 0.03875 0.0
C883 C 0.87141 0.35138 0.03319 0.0
C884 C 0.81501 0.27065 0.05995 0.0
H885 H 0.65287 0.22667 0.03061 0.0
H886 H 0.71194 0.26081 0.02634 0.0
H887 H 0.7716 0.23301 0.07863 0.0
H888 H 0.94097 0.33203 0.04789 0.0
H889 H 0.88332 0.28731 0.04795 0.0
H890 H 0.8168 0.3066 1.00159 0.0
C891 C 0.70223 0.23672 0.03511 0.0
C892 C 0.78115 0.24836 0.0614 0.0
C893 C 0.66819 0.21726 0.03795 0.0
C894 C 0.92176 0.33765 0.04368 0.0
C895 C 0.88884 0.31219 0.04386 0.0
C896 C 0.80721 0.29044 1.0184 0.0
C897 C 0.72339 0.22564 0.04399 0.0
C898 C 0.75982 0.24717 0.0415 0.0
C899 C 0.86334 0.31885 0.03851 0.0
C900 C 0.82825 0.29245 0.03872 0.0
H901 H 0.66539 0.15127 0.06832 0.0
H902 H 0.72476 0.18477 0.06256 0.0
H903 H 0.75815 0.26725 1.00362 0.0
H904 H 0.90941 0.40136 0.02899 0.0
H905 H 0.85236 0.35737 0.02919 0.0
C906 C 0.85263 0.52178 0.04789 0.0
C907 C 0.83799 0.48806 0.05413 0.0
C908 C 0.83369 0.5372 0.04638 0.0
C909 C 0.76168 0.53387 0.07411 0.0
H910 H 0.75256 0.57436 1.01091 0.0
C911 C 0.65231 0.55322 0.05898 0.0
C912 C 0.65449 0.57851 0.0429 0.0
C913 C 0.67895 0.54827 0.0621 0.0
C914 C 0.75538 0.56391 0.02894 0.0
H915 H 0.7913 0.44415 0.06251 0.0
H916 H 0.75891 0.4715 0.06116 0.0
H917 H 0.79107 0.55354 1.01192 0.0
H918 H 0.68748 0.61987 1.01862 0.0
H919 H 0.73476 0.61183 0.02464 0.0
H920 H 0.72665 0.54436 0.09145 0.0
C921 C 0.78508 0.48581 0.05741 0.0
C922 C 0.77728 0.55179 0.02941 0.0
C923 C 0.80379 0.47024 0.05837 0.0
C924 C 0.68492 0.60018 0.03123 0.0
C925 C 0.71189 0.59527 0.0344 0.0
C926 C 0.74036 0.5465 0.07384 0.0
C927 C 0.79986 0.51944 0.0516 0.0
C928 C 0.77983 0.53579 0.05176 0.0
C929 C 0.70901 0.56876 0.04949 0.0
C930 C 0.73597 0.56066 0.05098 0.0
H931 H 0.87888 0.53661 0.04489 0.0
H932 H 0.84564 0.56321 0.04195 0.0
H933 H 0.76365 0.52212 0.09172 0.0
H934 H 0.62949 0.53631 0.06852 0.0
H935 H 0.6753 0.52728 0.07353 0.0
C936 C 0.88961 0.81239 0.32015 0.0
C937 C 0.87211 0.77889 0.32696 0.0
C938 C 0.9239 0.83031 0.32202 0.0
C939 C 0.99327 0.83106 0.35598 0.0
H940 H 0.04611 0.88928 0.29994 0.0
C941 C 0.13393 0.91094 0.36536 0.0
C942 C 0.15151 0.90862 0.3441 0.0
C943 C 0.10019 0.89934 0.36317 0.0
C944 C 0.03168 0.87317 0.31578 0.0
H945 H 0.8769 0.73796 0.34108 0.0
H946 H 0.9368 0.76925 0.34433 0.0
H947 H 0.98623 0.85897 0.29611 0.0
H948 H 0.14855 0.89487 0.30343 0.0
H949 H 0.0898 0.87497 0.29943 0.0
H950 H 0.03861 0.84487 0.37553 0.0
C951 C 0.92395 0.78165 0.33762 0.0
C952 C 0.9974 0.85597 0.31365 0.0
C953 C 0.88969 0.76366 0.33549 0.0
C954 C 0.1354 0.89673 0.32013 0.0
C955 C 0.10181 0.88552 0.31783 0.0
C956 C 0.0275 0.84854 0.35824 0.0
C957 C 0.94144 0.81521 0.33099 0.0
C958 C 0.97782 0.83441 0.33359 0.0
C959 C 0.08359 0.88573 0.33956 0.0
C960 C 0.04715 0.86948 0.33802 0.0
H961 H 0.87677 0.82476 0.31333 0.0
H962 H 0.93664 0.85615 0.31689 0.0
H963 H 0.97885 0.81492 0.37181 0.0
H964 H 0.14583 0.91996 0.38408 0.0
H965 H 0.08692 0.90021 0.38017 0.0
C966 C 0.11357 0.25152 0.32139 0.0
C967 C 0.11126 0.26198 0.34658 0.0
C968 C 0.12096 0.22635 0.31807 0.0
C969 C 0.1619 0.1876 0.3521 0.0
H970 H 0.12024 0.11978 0.29958 0.0
C971 C 0.18772 0.07948 0.34349 0.0
C972 C 0.18699 0.06694 0.31847 0.0
C973 C 0.17878 0.10353 0.34708 0.0
C974 C 0.13257 0.13885 0.31407 0.0
H975 H 0.11254 0.25295 0.38799 0.0
H976 H 0.12512 0.20883 0.38223 0.0
H977 H 0.10237 0.15991 0.30534 0.0
H978 H 0.17803 0.07083 0.27744 0.0
H979 H 0.16359 0.11346 0.28346 0.0
H980 H 0.1926 0.16713 0.36052 0.0
C981 C 0.12196 0.22048 0.36505 0.0
C982 C 0.12216 0.16177 0.31743 0.0
C983 C 0.11458 0.24559 0.36834 0.0
C984 C 0.1784 0.07979 0.297 0.0
C985 C 0.16987 0.10405 0.30052 0.0
C986 C 0.17259 0.16492 0.34855 0.0
C987 C 0.12599 0.21108 0.33989 0.0
C988 C 0.13668 0.18639 0.33649 0.0
C989 C 0.16928 0.11583 0.32566 0.0
C990 C 0.15809 0.14021 0.32947 0.0
H991 H 0.11132 0.26388 0.30427 0.0
H992 H 0.12409 0.21979 0.29843 0.0
H993 H 0.17384 0.20648 0.3668 0.0
H994 H 0.19395 0.06976 0.3604 0.0
H995 H 0.17832 0.11168 0.36677 0.0
C996 C 0.88349 0.13102 0.37809 0.0
C997 C 0.91124 0.14932 0.36217 0.0
C998 C 0.86677 0.09669 0.37774 0.0
C999 C 0.85732 0.02615 0.33774 0.0
H1000 H 0.81203 0.97692 0.3998 0.0
C1001 C 0.76179 0.88768 0.33493 0.0
C1002 C 0.75674 0.86879 0.35753 0.0
C1003 C 0.78411 0.92142 0.33508 0.0
C1004 C 0.82504 0.99014 0.38237 0.0
H1005 H 0.94307 0.14526 0.33344 0.0
H1006 H 0.91547 0.08585 0.33424 0.0
H1007 H 0.84467 0.03625 0.40187 0.0
H1008 H 0.7731 0.86954 0.39728 0.0
H1009 H 0.81296 0.92804 0.3973 0.0
H1010 H 0.83892 0.97988 0.3186 0.0
C1011 C 0.90587 0.09793 0.3464 0.0
C1012 C 0.84329 0.0244 0.38342 0.0
C1013 C 0.92218 0.13224 0.34634 0.0
C1014 C 0.77625 0.88362 0.37963 0.0
C1015 C 0.79878 0.91729 0.37974 0.0
C1016 C 0.83959 0.99184 0.33683 0.0
C1017 C 0.87767 0.07962 0.36185 0.0
C1018 C 0.85939 0.04296 0.36104 0.0
C1019 C 0.8022 0.93687 0.35778 0.0
C1020 C 0.82291 0.97335 0.35906 0.0
H1021 H 0.87454 0.14315 0.39088 0.0
H1022 H 0.84491 0.08364 0.38965 0.0
H1023 H 0.86886 0.03942 0.31994 0.0
H1024 H 0.74734 0.87665 0.31752 0.0
H1025 H 0.78576 0.93554 0.31783 0.0
C1026 C 0.16835 0.68168 0.37751 0.0
C1027 C 0.1991 0.70103 0.38958 0.0
C1028 C 0.15522 0.64778 0.37435 0.0
C1029 C 0.17858 0.58246 0.37708 0.0
H1030 H 0.08471 0.52372 0.38491 0.0
C1031 C 0.12569 0.44574 0.3957 0.0
C1032 C 0.10485 0.42539 0.37587 0.0
C1033 C 0.13314 0.47833 0.39767 0.0
C1034 C 0.11092 0.53993 0.38254 0.0
H1035 H 0.2404 0.69954 0.4071 0.0
H1036 H 0.21698 0.64071 0.40291 0.0
H1037 H 0.10717 0.58325 0.38685 0.0
H1038 H 0.07176 0.42176 0.34484 0.0
H1039 H 0.08423 0.47901 0.34875 0.0
H1040 H 0.18234 0.53903 0.37394 0.0
C1041 C 0.20317 0.65165 0.39526 0.0
C1042 C 0.12386 0.57406 0.38348 0.0
C1043 C 0.21647 0.68554 0.39807 0.0
C1044 C 0.08836 0.43707 0.36004 0.0
C1045 C 0.09554 0.46979 0.36222 0.0
C1046 C 0.16573 0.54851 0.37665 0.0
C1047 C 0.17229 0.63219 0.38342 0.0
C1048 C 0.15798 0.59583 0.38103 0.0
C1049 C 0.11919 0.49104 0.38027 0.0
C1050 C 0.13187 0.52693 0.37963 0.0
H1051 H 0.15394 0.69252 0.37102 0.0
H1052 H 0.13163 0.63385 0.3648 0.0
H1053 H 0.20478 0.5982 0.37433 0.0
H1054 H 0.13741 0.43683 0.409 0.0
H1055 H 0.15082 0.49401 0.41218 0.0
C1056 C 0.33605 0.54896 0.3729 0.0
C1057 C 0.32143 0.51857 0.38602 0.0
C1058 C 0.37008 0.56728 0.36958 0.0
C1059 C 0.44796 0.57917 0.39698 0.0
H1060 H 0.4841 0.63021 0.33361 0.0
C1061 C 0.58823 0.66845 0.38145 0.0
C1062 C 0.59541 0.69995 0.37346 0.0
C1063 C 0.5557 0.64224 0.38095 0.0
C1064 C 0.47438 0.61605 0.35141 0.0
H1065 H 0.33134 0.48358 0.40584 0.0
H1066 H 0.39086 0.5154 0.39965 0.0
H1067 H 0.42526 0.59176 0.33665 0.0
H1068 H 0.57508 0.7285 0.35728 0.0
H1069 H 0.5187 0.68329 0.35646 0.0
H1070 H 0.49725 0.60406 0.41182 0.0
C1071 C 0.3759 0.52516 0.39215 0.0
C1072 C 0.44064 0.59412 0.35321 0.0
C1073 C 0.34176 0.50678 0.39547 0.0
C1074 C 0.57002 0.7046 0.36403 0.0
C1075 C 0.5378 0.67856 0.36325 0.0
C1076 C 0.48183 0.60106 0.39512 0.0
C1077 C 0.39049 0.5557 0.37921 0.0
C1078 C 0.42685 0.57606 0.37628 0.0
C1079 C 0.53013 0.64714 0.37196 0.0
C1080 C 0.49525 0.62038 0.37257 0.0
H1081 H 0.32116 0.55862 0.36505 0.0
H1082 H 0.38043 0.59089 0.35985 0.0
H1083 H 0.43818 0.56583 0.4151 0.0
H1084 H 0.60748 0.66435 0.38882 0.0
H1085 H 0.55052 0.61824 0.38768 0.0
C1086 C 0.34723 0.93067 0.37053 0.0
C1087 C 0.31382 0.90722 0.3738 0.0
C1088 C 0.37134 0.9213 0.37179 0.0
C1089 C 0.38268 0.85243 0.39577 0.0
H1090 H 0.45752 0.88833 0.34887 0.0
C1091 C 0.45879 0.78895 0.38078 0.0
C1092 C 0.49322 0.80862 0.382 0.0
C1093 C 0.43888 0.80321 0.37946 0.0
C1094 C 0.43687 0.8783 0.36224 0.0
H1095 H 0.27977 0.85556 0.37948 0.0
H1096 H 0.32078 0.83905 0.38139 0.0
H1097 H 0.41948 0.90975 0.34763 0.0
H1098 H 0.53353 0.85906 0.38212 0.0
H1099 H 0.49863 0.88384 0.37918 0.0
H1100 H 0.39947 0.82049 0.40992 0.0
C1101 C 0.3289 0.86489 0.37881 0.0
C1102 C 0.41513 0.89064 0.36161 0.0
C1103 C 0.30515 0.87432 0.37772 0.0
C1104 C 0.50718 0.84303 0.38092 0.0
C1105 C 0.48719 0.85731 0.37933 0.0
C1106 C 0.40411 0.83995 0.3962 0.0
C1107 C 0.36242 0.88821 0.37621 0.0
C1108 C 0.38739 0.87744 0.37809 0.0
C1109 C 0.45279 0.83754 0.37905 0.0
C1110 C 0.43118 0.85234 0.3792 0.0
H1111 H 0.35478 0.95623 0.36742 0.0
H1112 H 0.39692 0.94001 0.36975 0.0
H1113 H 0.36218 0.84223 0.40929 0.0
H1114 H 0.44709 0.76241 0.38091 0.0
H1115 H 0.41247 0.78727 0.37876 0.0
C1116 C 0.79266 0.23411 0.69363 0.0
C1117 C 0.81252 0.23498 0.67283 0.0
C1118 C 0.75947 0.22373 0.68957 0.0
C1119 C 0.69556 0.20333 0.63836 0.0
H1120 H 0.63786 0.1423 0.69109 0.0
C1121 C 0.55343 0.14555 0.63786 0.0
C1122 C 0.53483 0.11183 0.64378 0.0
C1123 C 0.58766 0.16244 0.64039 0.0
C1124 C 0.65364 0.15918 0.67613 0.0
H1125 H 0.81395 0.22763 0.63119 0.0
H1126 H 0.75579 0.20867 0.62411 0.0
H1127 H 0.69699 0.17086 0.69773 0.0
H1128 H 0.53762 0.06936 0.65678 0.0
H1129 H 0.59741 0.09884 0.66121 0.0
H1130 H 0.65182 0.19126 0.61675 0.0
C1131 C 0.76582 0.21648 0.64352 0.0
C1132 C 0.68759 0.17589 0.68005 0.0
C1133 C 0.79916 0.22728 0.64756 0.0
C1134 C 0.55127 0.09526 0.65188 0.0
C1135 C 0.58546 0.11221 0.65467 0.0
C1136 C 0.66148 0.18684 0.63457 0.0
C1137 C 0.74534 0.21366 0.66463 0.0
C1138 C 0.70907 0.19789 0.66109 0.0
C1139 C 0.60401 0.14605 0.64917 0.0
C1140 C 0.64018 0.16428 0.65329 0.0
H1141 H 0.80254 0.24037 0.71325 0.0
H1142 H 0.74465 0.22259 0.70618 0.0
H1143 H 0.71132 0.22035 0.62348 0.0
H1144 H 0.54147 0.15893 0.63138 0.0
H1145 H 0.60126 0.18851 0.63612 0.0
C1146 C 0.87467 0.42771 0.67896 0.0
C1147 C 0.89983 0.43567 0.69736 0.0
C1148 C 0.8572 0.44459 0.67847 0.0
C1149 C 0.84241 0.50352 0.71748 0.0
H1150 H 0.80987 0.51517 0.65106 0.0
C1151 C 0.77245 0.57442 0.71253 0.0
C1152 C 0.77898 0.59539 0.69102 0.0
C1153 C 0.7828 0.55125 0.71249 0.0
C1154 C 0.81907 0.51255 0.66977 0.0
H1155 H 0.92567 0.46774 0.73004 0.0
H1156 H 0.89736 0.49871 0.72779 0.0
H1157 H 0.83859 0.48448 0.65283 0.0
H1158 H 0.79861 0.6067 0.65173 0.0
H1159 H 0.81796 0.56743 0.65191 0.0
H1160 H 0.82538 0.53389 0.73405 0.0
C1161 C 0.89011 0.47857 0.71427 0.0
C1162 C 0.83512 0.49428 0.6709 0.0
C1163 C 0.90698 0.46112 0.71521 0.0
C1164 C 0.79386 0.59118 0.66876 0.0
C1165 C 0.8046 0.56832 0.66881 0.0
C1166 C 0.82714 0.52247 0.71624 0.0
C1167 C 0.86488 0.47056 0.69592 0.0
C1168 C 0.84709 0.48949 0.69478 0.0
C1169 C 0.80014 0.5487 0.69102 0.0
C1170 C 0.81518 0.52726 0.69237 0.0
H1171 H 0.86863 0.40875 0.66451 0.0
H1172 H 0.8376 0.43709 0.66434 0.0
H1173 H 0.85056 0.5 0.73638 0.0
H1174 H 0.76062 0.57684 0.72987 0.0
H1175 H 0.77781 0.53588 0.72962 0.0
C1176 C 0.53806 0.47066 0.67177 0.0
C1177 C 0.57042 0.48777 0.66218 0.0
C1178 C 0.5211 0.43632 0.67337 0.0
C1179 C 0.51882 0.3624 0.64672 0.0
H1180 H 0.46958 0.32053 0.70974 0.0
C1181 C 0.42328 0.22372 0.65381 0.0
C1182 C 0.4209 0.20743 0.67743 0.0
C1183 C 0.44457 0.25758 0.65151 0.0
C1184 C 0.48342 0.33182 0.69209 0.0
H1185 H 0.61001 0.48217 0.64609 0.0
H1186 H 0.58036 0.42222 0.64881 0.0
H1187 H 0.49968 0.38036 0.70643 0.0
H1188 H 0.43992 0.21325 0.71682 0.0
H1189 H 0.47724 0.27254 0.71287 0.0
H1190 H 0.50238 0.31383 0.63233 0.0
C1191 C 0.56813 0.43537 0.65514 0.0
C1192 C 0.50037 0.36611 0.69008 0.0
C1193 C 0.5852 0.46972 0.65376 0.0
C1194 C 0.4414 0.22524 0.69835 0.0
C1195 C 0.46246 0.25921 0.69616 0.0
C1196 C 0.50158 0.32808 0.64863 0.0
C1197 C 0.53599 0.41828 0.66518 0.0
C1198 C 0.51818 0.3818 0.66735 0.0
C1199 C 0.46379 0.27588 0.67288 0.0
C1200 C 0.48357 0.31237 0.6713 0.0
H1201 H 0.52609 0.48386 0.67859 0.0
H1202 H 0.49624 0.42385 0.68095 0.0
H1203 H 0.53217 0.37375 0.6289 0.0
H1204 H 0.40773 0.21044 0.6374 0.0
H1205 H 0.44472 0.26964 0.6334 0.0
C1206 C 0.7544 0.76826 0.71577 0.0
C1207 C 0.77902 0.75984 0.713 0.0
C1208 C 0.76272 0.80143 0.71686 0.0
C1209 C 0.83438 0.88346 0.73148 0.0
H1210 H 0.78401 0.91803 0.69782 0.0
C1211 C 0.88651 0.02216 0.72086 0.0
C1212 C 0.86583 0.0347 0.72739 0.0
C1213 C 0.87386 0.98839 0.71801 0.0
C1214 C 0.79815 0.90864 0.70751 0.0
H1215 H 0.83093 0.77929 0.70685 0.0
H1216 H 0.8456 0.83654 0.70871 0.0
H1217 H 0.76521 0.85914 0.69514 0.0
H1218 H 0.81527 0.02137 0.73514 0.0
H1219 H 0.79312 0.96223 0.72992 0.0
H1220 H 0.86743 0.93268 0.74366 0.0
C1221 C 0.82003 0.81791 0.71109 0.0
C1222 C 0.78735 0.87492 0.70602 0.0
C1223 C 0.81169 0.78502 0.71012 0.0
C1224 C 0.83188 0.01261 0.72992 0.0
C1225 C 0.81917 0.9787 0.72697 0.0
C1226 C 0.84519 0.91699 0.73285 0.0
C1227 C 0.7958 0.82666 0.71502 0.0
C1228 C 0.80564 0.86201 0.71768 0.0
C1229 C 0.84016 0.96618 0.72153 0.0
C1230 C 0.82751 0.93012 0.7206 0.0
H1231 H 0.72898 0.74935 0.71791 0.0
H1232 H 0.7434 0.80726 0.71989 0.0
H1233 H 0.84865 0.87432 0.7413 0.0
H1234 H 0.91264 0.03847 0.71817 0.0
H1235 H 0.8906 0.97961 0.71323 0.0
C1236 C 0.00769 0.84381 0.71143 0.0
C1237 C 0.98749 0.85722 0.71717 0.0
C1238 C 0.04144 0.86427 0.70688 0.0
C1239 C 0.10442 0.95147 0.69189 0.0
H1240 H 0.16557 0.92757 0.72163 0.0
C1241 C 0.23864 0.04668 0.71295 0.0
C1242 C 0.26348 0.04015 0.70528 0.0
C1243 C 0.20559 0.02252 0.71165 0.0
C1244 C 0.14879 0.93435 0.7129 0.0
H1245 H 0.98715 0.90293 0.72173 0.0
H1246 H 0.0457 0.93833 0.71474 0.0
H1247 H 0.10646 0.88903 0.72432 0.0
H1248 H 0.27276 1.00244 0.69038 0.0
H1249 H 0.21454 0.95949 0.68865 0.0
H1250 H 0.14672 0.99728 0.68145 0.0
C1251 C 0.03556 0.91202 0.71332 0.0
C1252 C 0.11486 0.91225 0.71438 0.0
C1253 C 1.00189 0.89162 0.71774 0.0
C1254 C 0.25431 0.00834 0.6965 0.0
C1255 C 0.221 0.98376 0.69555 0.0
C1256 C 0.1382 0.97359 0.69067 0.0
C1257 C 0.05593 0.89869 0.70798 0.0
C1258 C 0.09215 0.92079 0.70435 0.0
C1259 C 0.19628 0.99079 0.70286 0.0
C1260 C 0.16076 0.96557 0.7016 0.0
H1261 H 0.99763 0.81746 0.71107 0.0
H1262 H 0.05616 0.85304 0.70254 0.0
H1263 H 0.08789 0.95867 0.6833 0.0
H1264 H 0.24467 0.0708 0.71954 0.0
H1265 H 0.18724 0.02868 0.71773 0.0
C1266 C 0.13136 0.13248 0.72919 0.0
C1267 C 0.16486 0.15027 0.72255 0.0
C1268 C 0.111 0.1458 0.72495 0.0
C1269 C 0.11332 0.22528 0.71343 0.0
H1270 H 0.02144 0.16712 0.69706 0.0
C1271 C 0.01194 0.26089 0.68771 0.0
C1272 C 0.98336 0.24325 0.70293 0.0
C1273 C 0.03762 0.25384 0.68962 0.0
C1274 C 0.04709 0.18365 0.70157 0.0
H1275 H 0.20303 0.19627 0.70604 0.0
H1276 H 0.16721 0.21878 0.69754 0.0
H1277 H 0.05851 0.14511 0.69938 0.0
H1278 H 0.96117 0.20767 0.73416 0.0
H1279 H 1.0052 0.19485 0.73702 0.0
H1280 H 0.10138 0.2639 0.71512 0.0
C1281 C 0.1568 0.19475 0.70657 0.0
C1282 C 0.06833 0.17103 0.70313 0.0
C1283 C 0.17727 0.18155 0.71107 0.0
C1284 C 0.98229 0.22076 0.72158 0.0
C1285 C 0.00756 0.21353 0.7233 0.0
C1286 C 0.09203 0.23802 0.71146 0.0
C1287 C 0.12341 0.17716 0.71363 0.0
C1288 C 0.10159 0.19146 0.70971 0.0
C1289 C 0.03488 0.2291 0.70671 0.0
C1290 C 0.05861 0.21711 0.7061 0.0
H1291 H 0.12078 0.1082 0.73779 0.0
H1292 H 0.08558 0.13163 0.73107 0.0
H1293 H 0.13867 0.24177 0.71876 0.0
H1294 H 0.01356 0.27848 0.67321 0.0
H1295 H 0.05863 0.26629 0.67673 0.0
C1296 C 0.11057 0.41072 0.29327 0.0
C1297 C 0.11879 0.38595 0.29125 0.0
C1298 C 0.10126 0.42158 0.27102 0.0
C1299 C 0.06791 0.39299 0.20447 0.0
H1300 H 0.08779 0.48281 0.19394 0.0
C1301 C 0.01048 0.42707 0.119 0.0
C1302 C 0.03314 0.45376 0.10389 0.0
C1303 C 0.01945 0.42112 0.14369 0.0
C1304 C 0.08197 0.4576 0.19664 0.0
H1305 H 0.12643 0.35489 0.26446 0.0
H1306 H 0.11181 0.37482 0.2254 0.0
H1307 H 0.10943 0.46885 0.23234 0.0
H1308 H 0.08197 0.49635 0.10307 0.0
H1309 H 0.0975 0.48647 0.1463 0.0
H1310 H 0.04088 0.38178 0.16866 0.0
C1311 C 0.11119 0.38508 0.24418 0.0
C1312 C 0.09422 0.44954 0.21874 0.0
C1313 C 0.11989 0.37386 0.26647 0.0
C1314 C 0.06405 0.47567 0.1145 0.0
C1315 C 0.07288 0.47001 0.13927 0.0
C1316 C 0.05543 0.40097 0.18257 0.0
C1317 C 0.10065 0.40826 0.24623 0.0
C1318 C 0.08758 0.41715 0.22285 0.0
C1319 C 0.0511 0.44206 0.15382 0.0
C1320 C 0.06246 0.4334 0.17825 0.0
H1321 H 0.1097 0.42044 0.3122 0.0
H1322 H 0.09322 0.43936 0.27344 0.0
H1323 H 0.06191 0.36772 0.20702 0.0
H1324 H 0.98662 0.40969 0.11107 0.0
H1325 H 1.00197 0.39958 0.15452 0.0
C1326 C 0.62043 0.73524 0.28507 0.0
C1327 C 0.65285 0.74752 0.29392 0.0
C1328 C 0.60978 0.71725 0.26175 0.0
C1329 C 0.62897 0.66721 0.21723 0.0
H1330 H 0.57903 0.68491 0.16592 0.0
C1331 C 0.57885 0.592 0.12095 0.0
C1332 C 0.5849 0.61115 0.09823 0.0
C1333 C 0.58461 0.60653 0.14579 0.0
C1334 C 0.59291 0.67962 0.1801 0.0
H1335 H 0.6997 0.75124 0.28454 0.0
H1336 H 0.68109 0.72001 0.24425 0.0
H1337 H 0.5942 0.71495 0.20724 0.0
H1338 H 0.60121 0.66061 0.0841 0.0
H1339 H 0.61104 0.68555 0.12698 0.0
H1340 H 0.6282 0.63231 0.18987 0.0
C1341 C 0.66377 0.72386 0.25547 0.0
C1342 C 0.60138 0.69666 0.20384 0.0
C1343 C 0.67448 0.74203 0.27854 0.0
C1344 C 0.5965 0.64501 0.10103 0.0
C1345 C 0.60185 0.65936 0.12571 0.0
C1346 C 0.62022 0.64993 0.19359 0.0
C1347 C 0.63122 0.71093 0.24691 0.0
C1348 C 0.62002 0.69109 0.22249 0.0
C1349 C 0.59601 0.64038 0.14841 0.0
C1350 C 0.6026 0.65636 0.17455 0.0
H1351 H 0.60304 0.73883 0.29643 0.0
H1352 H 0.58451 0.70757 0.25569 0.0
H1353 H 0.643 0.66204 0.23134 0.0
H1354 H 0.56988 0.56587 0.11955 0.0
H1355 H 0.57979 0.59123 0.16295 0.0
C1356 C 0.37651 0.97566 0.09358 0.0
C1357 C 0.41095 0.99448 0.09125 0.0
C1358 C 0.36144 0.96617 0.11796 0.0
C1359 C 0.37563 0.9566 0.18816 0.0
H1360 H 0.29309 0.9557 0.19551 0.0
C1361 C 0.29077 0.90463 0.28058 0.0
C1362 C 0.27562 0.92244 0.28877 0.0
C1363 C 0.30831 0.91247 0.25687 0.0
C1364 C 0.31624 0.95601 0.19401 0.0
H1365 H 0.45646 0.01773 0.11323 0.0
H1366 H 0.42984 1.00199 0.15626 0.0
H1367 H 0.32294 0.97345 0.15474 0.0
H1368 H 0.26713 0.96242 0.27815 0.0
H1369 H 0.29786 0.97631 0.23797 0.0
H1370 H 0.36913 0.94024 0.22813 0.0
C1371 C 0.41464 0.99417 0.1389 0.0
C1372 C 0.33324 0.96583 0.17036 0.0
C1373 C 0.42991 0.00345 0.11425 0.0
C1374 C 0.27835 0.94802 0.27269 0.0
C1375 C 0.29587 0.95591 0.24933 0.0
C1376 C 0.35861 0.94697 0.21208 0.0
C1377 C 0.38012 0.97552 0.14104 0.0
C1378 C 0.36309 0.96612 0.16695 0.0
C1379 C 0.31095 0.9382 0.2409 0.0
C1380 C 0.32873 0.94672 0.21532 0.0
H1381 H 0.36085 0.96758 0.07647 0.0
H1382 H 0.33493 0.95108 0.11863 0.0
H1383 H 0.39837 0.95621 0.18621 0.0
H1384 H 0.28935 0.88492 0.29257 0.0
H1385 H 0.31946 0.89816 0.25091 0.0
C1386 C 0.45053 0.07639 0.95458 0.0
C1387 C 0.45823 0.05133 0.95164 0.0
C1388 C 0.44063 0.08778 0.93302 0.0
C1389 C 0.40635 0.06212 0.86606 0.0
H1390 H 0.4261 0.15238 0.85953 0.0
C1391 C 0.34678 0.10043 0.78533 0.0
C1392 C 0.36946 0.1268 0.76992 0.0
C1393 C 0.35636 0.09377 0.80948 0.0
C1394 C 0.42024 0.12704 0.86119 0.0
H1395 H 0.46408 0.02019 0.92373 0.0
H1396 H 0.44832 0.04095 0.88582 0.0
H1397 H 0.44803 0.1363 0.89652 0.0
H1398 H 0.41889 0.16836 0.76827 0.0
H1399 H 0.43544 0.15729 0.81072 0.0
H1400 H 0.37889 0.05292 0.83063 0.0
C1401 C 0.44851 0.05101 0.90488 0.0
C1402 C 0.43266 0.11774 0.88247 0.0
C1403 C 0.45784 0.03927 0.92653 0.0
C1404 C 0.40098 0.14792 0.7799 0.0
C1405 C 0.41041 0.14156 0.80419 0.0
C1406 C 0.39355 0.07127 0.84508 0.0
C1407 C 0.4389 0.07483 0.90789 0.0
C1408 C 0.42597 0.08511 0.88517 0.0
C1409 C 0.3886 0.11372 0.81882 0.0
C1410 C 0.40044 0.10386 0.84229 0.0
H1411 H 0.45069 0.08623 0.97364 0.0
H1412 H 0.43321 0.1059 0.93628 0.0
H1413 H 0.4007 0.03687 0.86724 0.0
H1414 H 0.32243 0.08367 0.77792 0.0
H1415 H 0.33891 0.07232 0.82042 0.0
C1416 C 1.0033 0.40615 0.94087 0.0
C1417 C 0.98237 0.41227 0.9566 0.0
C1418 C 0.99173 0.38738 0.91816 0.0
C1419 C 0.92927 0.36077 0.86707 0.0
H1420 H 0.95459 0.29526 0.85321 0.0
C1421 C 0.92633 0.31032 0.76387 0.0
C1422 C 0.91391 0.27631 0.76083 0.0
C1423 C 0.93119 0.32433 0.78869 0.0
C1424 C 0.94702 0.3132 0.85688 0.0
H1425 H 0.93278 0.40389 0.96016 0.0
H1426 H 0.91269 0.37159 0.91985 0.0
H1427 H 0.96908 0.32447 0.89491 0.0
H1428 H 0.89713 0.23053 0.7819 0.0
H1429 H 0.90632 0.25531 0.82546 0.0
H1430 H 0.90789 0.35004 0.82876 0.0
C1431 C 0.9381 0.38123 0.92547 0.0
C1432 C 0.95554 0.33013 0.88068 0.0
C1433 C 0.94962 0.39977 0.94852 0.0
C1434 C 0.90674 0.25676 0.78345 0.0
C1435 C 0.91205 0.27095 0.8084 0.0
C1436 C 0.92109 0.34412 0.84312 0.0
C1437 C 0.95897 0.37447 0.91023 0.0
C1438 C 0.94721 0.35447 0.88591 0.0
C1439 C 0.92413 0.30489 0.81128 0.0
C1440 C 0.93028 0.32046 0.83759 0.0
H1441 H 0.02874 0.41555 0.94615 0.0
H1442 H 0.00862 0.3832 0.90663 0.0
H1443 H 0.9226 0.37944 0.87045 0.0
H1444 H 0.93207 0.32631 0.74703 0.0
H1445 H 0.94097 0.35059 0.79018 0.0
C1446 C 0.75471 0.6231 0.78843 0.0
C1447 C 0.76417 0.65511 0.78005 0.0
C1448 C 0.74069 0.61208 0.81307 0.0
C1449 C 0.72379 0.63562 0.87768 0.0
H1450 H 0.64071 0.55421 0.87121 0.0
C1451 C 0.63693 0.57221 0.96623 0.0
C1452 C 0.604 0.5631 0.96179 0.0
C1453 C 0.6592 0.58186 0.94536 0.0
C1454 C 0.66384 0.57691 0.8734 0.0
H1455 H 0.76896 0.70158 0.79146 0.0
H1456 H 0.74455 0.68238 0.83497 0.0
H1457 H 0.67724 0.57593 0.83364 0.0
H1458 H 0.56781 0.55472 0.93219 0.0
H1459 H 0.60625 0.57056 0.8956 0.0
H1460 H 0.7103 0.63625 0.91764 0.0
C1461 C 0.74804 0.66583 0.82244 0.0
C1462 C 0.68493 0.58927 0.85191 0.0
C1463 C 0.76214 0.6769 0.79763 0.0
C1464 C 0.59317 0.56178 0.93606 0.0
C1465 C 0.61519 0.57076 0.91515 0.0
C1466 C 0.70291 0.62284 0.89942 0.0
C1467 C 0.73586 0.63285 0.82993 0.0
C1468 C 0.71494 0.61901 0.85364 0.0
C1469 C 0.64865 0.58166 0.91958 0.0
C1470 C 0.67235 0.5937 0.89736 0.0
H1471 H 0.75623 0.60591 0.77523 0.0
H1472 H 0.73214 0.58676 0.81845 0.0
H1473 H 0.74682 0.65847 0.87967 0.0
H1474 H 0.64575 0.5731 0.98586 0.0
H1475 H 0.68468 0.58968 0.94941 0.0
C1476 C 0.66717 0.75417 0.45789 0.0
C1477 C 0.68886 0.78331 0.4448 0.0
C1478 C 0.67511 0.74763 0.48278 0.0
C1479 C 0.7494 0.77214 0.52369 0.0
H1480 H 0.68533 0.71462 0.57469 0.0
C1481 C 0.73973 0.68331 0.61475 0.0
C1482 C 0.76537 0.70495 0.63131 0.0
C1483 C 0.7308 0.69508 0.59299 0.0
C1484 C 0.70349 0.73066 0.56056 0.0
H1485 H 0.73428 0.82964 0.44784 0.0
H1486 H 0.74734 0.8193 0.49175 0.0
H1487 H 0.66717 0.73258 0.53657 0.0
H1488 H 0.80281 0.75587 0.63708 0.0
H1489 H 0.78776 0.77634 0.59836 0.0
H1490 H 0.78568 0.77033 0.548 0.0
C1491 C 0.72489 0.80074 0.48266 0.0
C1492 C 0.69309 0.7409 0.53864 0.0
C1493 C 0.71723 0.80694 0.45766 0.0
C1494 C 0.78301 0.73852 0.62473 0.0
C1495 C 0.77431 0.75026 0.60264 0.0
C1496 C 0.75981 0.76224 0.5458 0.0
C1497 C 0.7047 0.77039 0.49514 0.0
C1498 C 0.71584 0.76147 0.51967 0.0
C1499 C 0.74762 0.72871 0.5869 0.0
C1500 C 0.73693 0.74101 0.56427 0.0
H1501 H 0.64543 0.73539 0.44809 0.0
H1502 H 0.65905 0.72385 0.49148 0.0
H1503 H 0.7677 0.78733 0.50935 0.0
H1504 H 0.72576 0.65724 0.619 0.0
H1505 H 0.71054 0.6778 0.58095 0.0
C1506 C 0.24863 0.92316 0.45298 0.0
C1507 C 0.22686 0.92668 0.43634 0.0
C1508 C 0.25513 0.93695 0.47806 0.0
C1509 C 0.229 0.97949 0.52694 0.0
H1510 H 0.32053 0.02053 0.54709 0.0
C1511 C 0.27758 0.05486 0.62293 0.0
C1512 C 0.31018 0.08092 0.6233 0.0
C1513 C 0.26547 0.03392 0.60126 0.0
C1514 C 0.29493 0.00971 0.54168 0.0
H1515 H 0.19237 0.94433 0.43357 0.0
H1516 H 0.20407 0.96901 0.47677 0.0
H1517 H 0.30195 0.98663 0.50838 0.0
H1518 H 0.35528 0.10636 0.60102 0.0
H1519 H 0.33382 0.07145 0.56269 0.0
H1520 H 0.22252 0.00445 0.55928 0.0
C1521 C 0.21618 0.9556 0.47092 0.0
C1522 C 0.28403 0.98947 0.51963 0.0
C1523 C 0.20957 0.94162 0.44598 0.0
C1524 C 0.33004 0.0864 0.60126 0.0
C1525 C 0.31778 0.06599 0.57941 0.0
C1526 C 0.24005 1.00024 0.54876 0.0
C1527 C 0.24003 0.95461 0.48699 0.0
C1528 C 0.25092 0.97415 0.51177 0.0
C1529 C 0.28553 0.03893 0.57923 0.0
C1530 C 0.27328 0.01594 0.55636 0.0
H1531 H 0.26213 0.91153 0.44606 0.0
H1532 H 0.27285 0.93467 0.49009 0.0
H1533 H 0.20323 0.96785 0.52188 0.0
H1534 H 0.26193 0.0497 0.6399 0.0
H1535 H 0.24071 0.0132 0.60221 0.0
C1536 C 0.9604 0.23466 0.62297 0.0
C1537 C 0.92768 0.22749 0.62131 0.0
C1538 C 0.98018 0.24353 0.6005 0.0
C1539 C 0.97565 0.24352 0.52731 0.0
H1540 H 0.06598 0.31421 0.53241 0.0
C1541 C 0.05731 0.28534 0.43621 0.0
C1542 C 0.07921 0.31902 0.43257 0.0
C1543 C 0.04185 0.27327 0.46024 0.0
C1544 C 0.04073 0.29463 0.53056 0.0
H1545 H 0.88919 0.22173 0.595 0.0
H1546 H 0.92312 0.23686 0.55593 0.0
H1547 H 0.03255 0.29343 0.57188 0.0
H1548 H 0.103 0.36653 0.45138 0.0
H1549 H 0.07488 0.34567 0.4935 0.0
H1550 H 0.98298 0.24556 0.4861 0.0
C1551 C 0.93396 0.23576 0.5743 0.0
C1552 C 0.02162 0.28235 0.55332 0.0
C1553 C 0.91443 0.22724 0.59673 0.0
C1554 C 0.08628 0.34041 0.45379 0.0
C1555 C 0.07019 0.32836 0.47789 0.0
C1556 C 0.99454 0.25593 0.50466 0.0
C1557 C 0.96739 0.24486 0.57586 0.0
C1558 C 0.98868 0.25674 0.55199 0.0
C1559 C 0.04716 0.29464 0.48125 0.0
C1560 C 0.02742 0.28165 0.50585 0.0
H1561 H 0.97105 0.23478 0.64174 0.0
H1562 H 0.00556 0.24969 0.60249 0.0
H1563 H 0.95064 0.22348 0.52535 0.0
H1564 H 0.05184 0.26823 0.42026 0.0
H1565 H 0.0253 0.24707 0.46214 0.0
loop_
_geom_bond_atom_site_label_1
_geom_bond_atom_site_label_2
_geom_bond_distance
_geom_bond_site_symmetry_2
_ccdc_geom_bond_type
Eu0 N29 2.600 . S
Eu0 N35 2.562 1_556 S
Eu0 O44 2.462 1_556 S
Eu0 O45 2.373 1_455 S
Eu0 O47 2.432 . S
Eu0 O48 2.291 1_556 S
Eu0 O52 2.335 . S
Eu0 O55 2.372 . S
Eu0 C64 2.787 . S
C1 N2 1.369 1_455 S
C1 C4 1.405 . S
C1 C8 1.448 . S
N2 C1 1.369 1_655 S
N2 C5 1.314 1_655 S
N2 Eu11 2.597 . S
C3 C5 1.398 . S
C3 C6 1.367 . S
C3 H23 0.931 . S
C4 C1 1.405 . S
C4 C6 1.403 . S
C4 C10 1.439 . S
C5 N2 1.314 1_455 S
C5 C3 1.398 . S
C5 H16 0.933 1_455 S
C6 C3 1.367 . S
C6 C4 1.403 . S
C6 H27 0.929 . S
C7 C8 1.438 . S
C7 C9 1.400 . S
C7 C13 1.383 1_554 S
C8 C1 1.448 . S
C8 C7 1.438 . S
C8 N12 1.351 1_454 S
C9 C7 1.400 . S
C9 C10 1.374 . S
C9 H24 0.931 . S
C10 C4 1.439 . S
C10 C9 1.374 . S
C10 H25 0.931 . S
Eu11 N2 2.597 . S
Eu11 N12 2.562 1_554 S
Eu11 O46 2.335 . S
Eu11 O49 2.372 . S
Eu11 O50 2.462 1_554 S
Eu11 O51 2.373 1_655 S
Eu11 O53 2.432 . S
Eu11 O54 2.291 1_554 S
Eu11 C75 2.787 . S
N12 C8 1.351 1_656 S
N12 Eu11 2.562 1_556 S
N12 C14 1.325 . S
C13 C7 1.383 1_556 S
C13 C15 1.366 . S
C13 H21 0.930 . S
C14 N12 1.325 . S
C14 C15 1.416 1_655 S
C14 H20 0.929 . S
C15 C13 1.366 . S
C15 C14 1.416 1_455 S
C15 H17 0.930 . S
H16 C5 0.933 1_655 S
H17 C15 0.930 . S
H18 C33 0.930 . S
H19 C40 0.930 . S
H20 C14 0.929 . S
H21 C13 0.930 . S
H22 C36 0.929 . S
H23 C3 0.931 . S
H24 C9 0.931 . S
H25 C10 0.931 . S
H26 C31 0.931 . S
H27 C6 0.929 . S
H28 C39 0.930 . S
N29 Eu0 2.600 . S
N29 C30 1.365 . S
N29 C33 1.319 . S
C30 N29 1.365 . S
C30 C32 1.405 1_455 S
C30 C38 1.448 . S
C31 H26 0.931 . S
C31 C33 1.397 1_655 S
C31 C34 1.367 . S
C32 C30 1.405 1_655 S
C32 C34 1.403 . S
C32 C65 1.439 . S
C33 H18 0.930 . S
C33 N29 1.319 . S
C33 C31 1.397 1_455 S
C34 C31 1.367 . S
C34 C32 1.403 . S
C34 H41 0.929 . S
N35 Eu0 2.562 1_554 S
N35 C36 1.325 . S
N35 C38 1.351 1_554 S
C36 H22 0.929 . S
C36 N35 1.325 . S
C36 C40 1.416 . S
C37 C38 1.430 1_654 S
C37 C39 1.404 . S
C37 C66 1.387 1_554 S
C38 C30 1.448 . S
C38 N35 1.351 1_556 S
C38 C37 1.430 1_456 S
C39 H28 0.930 . S
C39 C37 1.404 . S
C39 C40 1.366 1_655 S
C40 H19 0.930 . S
C40 C36 1.416 . S
C40 C39 1.366 1_455 S
H41 C34 0.929 . S
H42 C65 0.931 . S
H43 C66 0.931 . S
O44 Eu0 2.462 1_554 S
O44 C64 1.252 1_554 S
O45 Eu0 2.373 1_655 S
O45 C56 1.249 1_556 S
O46 Eu11 2.335 . S
O46 C56 1.264 . S
O47 Eu0 2.432 . S
O47 C64 1.268 . S
O48 Eu0 2.291 1_554 S
O48 C63 1.255 . S
O49 Eu11 2.372 . S
O49 C63 1.257 1_655 S
O50 Eu11 2.462 1_556 S
O50 C75 1.252 1_556 S
O51 Eu11 2.373 1_455 S
O51 C67 1.249 1_554 S
O52 Eu0 2.335 . S
O52 C67 1.264 . S
O53 Eu11 2.432 . S
O53 C75 1.268 . S
O54 Eu11 2.291 1_556 S
O54 C74 1.255 . S
O55 Eu0 2.372 . S
O55 C74 1.257 1_455 S
C56 O45 1.249 1_554 S
C56 O46 1.264 . S
C57 C60 1.382 . S
C57 C62 1.390 1_556 S
C57 C64 1.506 . S
C58 C59 1.398 1_554 S
C58 C62 1.392 . S
C59 C58 1.398 1_556 S
C59 C61 1.372 . S
C59 H76 0.931 . S
C60 C57 1.382 . S
C60 C61 1.390 . S
C60 H77 0.931 . S
C61 C59 1.372 . S
C61 C60 1.390 . S
C61 H78 0.929 . S
C62 C57 1.390 1_554 S
C62 C58 1.392 . S
C62 H79 0.930 . S
C63 O48 1.255 . S
C63 O49 1.257 1_455 S
C64 Eu0 2.787 . S
C64 O44 1.252 1_556 S
C64 O47 1.268 . S
C64 C57 1.506 . S
C65 C32 1.439 . S
C65 H42 0.931 . S
C65 C66 1.374 . S
C66 C37 1.387 1_556 S
C66 H43 0.931 . S
C66 C65 1.374 . S
C67 O51 1.249 1_556 S
C67 O52 1.264 . S
C68 C71 1.382 . S
C68 C72 1.390 1_554 S
C68 C75 1.506 . S
C69 C70 1.398 1_556 S
C69 C72 1.392 . S
C70 C69 1.398 1_554 S
C70 C73 1.372 . S
C70 H80 0.931 . S
C71 C68 1.382 . S
C71 C73 1.390 . S
C71 H81 0.931 . S
C72 C68 1.390 1_556 S
C72 C69 1.392 . S
C72 H82 0.930 . S
C73 C70 1.372 . S
C73 C71 1.390 . S
C73 H83 0.929 . S
C74 O54 1.255 . S
C74 O55 1.257 1_655 S
C75 Eu11 2.787 . S
C75 O50 1.252 1_554 S
C75 O53 1.268 . S
C75 C68 1.506 . S
H76 C59 0.931 . S
H77 C60 0.931 . S
H78 C61 0.929 . S
H79 C62 0.930 . S
H80 C70 0.931 . S
H81 C71 0.931 . S
H82 C72 0.930 . S
H83 C73 0.929 . S
Eu84 N113 2.600 . S
Eu84 N119 2.562 1_556 S
Eu84 O128 2.462 1_556 S
Eu84 O129 2.373 . S
Eu84 O131 2.432 . S
Eu84 O132 2.291 1_556 S
Eu84 O136 2.335 . S
Eu84 O139 2.372 . S
Eu84 C148 2.787 . S
C85 N86 1.365 . S
C85 C88 1.405 . S
C85 C92 1.448 . S
N86 C85 1.365 . S
N86 C89 1.319 . S
N86 Eu95 2.600 . S
C87 C89 1.397 . S
C87 C90 1.367 . S
C87 H107 0.931 . S
C88 C85 1.405 . S
C88 C90 1.403 . S
C88 C94 1.439 . S
C89 N86 1.319 . S
C89 C87 1.397 . S
C89 H100 0.930 . S
C90 C87 1.367 . S
C90 C88 1.403 . S
C90 H111 0.929 . S
C91 C92 1.438 . S
C91 C93 1.400 . S
C91 C97 1.384 1_554 S
C92 C85 1.448 . S
C92 C91 1.438 . S
C92 N96 1.351 1_554 S
C93 C91 1.400 . S
C93 C94 1.374 . S
C93 H108 0.931 . S
C94 C88 1.439 . S
C94 C93 1.374 . S
C94 H109 0.931 . S
Eu95 N86 2.600 . S
Eu95 N96 2.562 1_554 S
Eu95 O130 2.335 . S
Eu95 O133 2.372 . S
Eu95 O134 2.462 1_554 S
Eu95 O135 2.373 . S
Eu95 O137 2.432 . S
Eu95 O138 2.291 1_554 S
Eu95 C159 2.787 . S
N96 C92 1.351 1_556 S
N96 Eu95 2.562 1_556 S
N96 C98 1.325 . S
C97 C91 1.384 1_556 S
C97 C99 1.366 . S
C97 H105 0.930 . S
C98 N96 1.325 . S
C98 C99 1.416 . S
C98 H104 0.929 . S
C99 C97 1.366 . S
C99 C98 1.416 . S
C99 H101 0.930 . S
H100 C89 0.930 . S
H101 C99 0.930 . S
H102 C117 0.930 . S
H103 C124 0.930 . S
H104 C98 0.929 . S
H105 C97 0.930 . S
H106 C120 0.929 . S
H107 C87 0.931 . S
H108 C93 0.931 . S
H109 C94 0.931 . S
H110 C115 0.931 . S
H111 C90 0.929 . S
H112 C123 0.930 . S
N113 Eu84 2.600 . S
N113 C114 1.365 . S
N113 C117 1.319 . S
C114 N113 1.365 . S
C114 C116 1.405 . S
C114 C122 1.448 . S
C115 H110 0.931 . S
C115 C117 1.397 . S
C115 C118 1.367 . S
C116 C114 1.405 . S
C116 C118 1.403 . S
C116 C149 1.439 . S
C117 H102 0.930 . S
C117 N113 1.319 . S
C117 C115 1.397 . S
C118 C115 1.367 . S
C118 C116 1.403 . S
C118 H125 0.929 . S
N119 Eu84 2.562 1_554 S
N119 C120 1.325 . S
N119 C122 1.351 1_554 S
C120 H106 0.929 . S
C120 N119 1.325 . S
C120 C124 1.416 . S
C121 C122 1.430 1_554 S
C121 C123 1.404 . S
C121 C150 1.387 1_554 S
C122 C114 1.448 . S
C122 N119 1.351 1_556 S
C122 C121 1.430 1_556 S
C123 H112 0.930 . S
C123 C121 1.404 . S
C123 C124 1.366 . S
C124 H103 0.930 . S
C124 C120 1.416 . S
C124 C123 1.366 . S
H125 C118 0.929 . S
H126 C149 0.931 . S
H127 C150 0.931 . S
O128 Eu84 2.462 1_554 S
O128 C148 1.252 1_554 S
O129 Eu84 2.373 . S
O129 C140 1.249 1_556 S
O130 Eu95 2.335 . S
O130 C140 1.264 . S
O131 Eu84 2.432 . S
O131 C148 1.268 . S
O132 Eu84 2.291 1_554 S
O132 C147 1.255 . S
O133 Eu95 2.372 . S
O133 C147 1.257 . S
O134 Eu95 2.462 1_556 S
O134 C159 1.252 1_556 S
O135 Eu95 2.373 . S
O135 C151 1.249 1_554 S
O136 Eu84 2.335 . S
O136 C151 1.264 . S
O137 Eu95 2.432 . S
O137 C159 1.268 . S
O138 Eu95 2.291 1_556 S
O138 C158 1.255 . S
O139 Eu84 2.372 . S
O139 C158 1.257 . S
C140 O129 1.249 1_554 S
C140 O130 1.264 . S
C141 C144 1.382 . S
C141 C146 1.390 1_556 S
C141 C148 1.506 . S
C142 C143 1.398 1_554 S
C142 C146 1.392 . S
C143 C142 1.398 1_556 S
C143 C145 1.372 . S
C143 H160 0.931 . S
C144 C141 1.382 . S
C144 C145 1.390 . S
C144 H161 0.931 . S
C145 C143 1.372 . S
C145 C144 1.390 . S
C145 H162 0.929 . S
C146 C141 1.390 1_554 S
C146 C142 1.392 . S
C146 H163 0.930 . S
C147 O132 1.255 . S
C147 O133 1.257 . S
C148 Eu84 2.787 . S
C148 O128 1.252 1_556 S
C148 O131 1.268 . S
C148 C141 1.506 . S
C149 C116 1.439 . S
C149 H126 0.931 . S
C149 C150 1.374 . S
C150 C121 1.387 1_556 S
C150 H127 0.931 . S
C150 C149 1.374 . S
C151 O135 1.249 1_556 S
C151 O136 1.264 . S
C152 C155 1.382 . S
C152 C156 1.390 1_554 S
C152 C159 1.506 . S
C153 C154 1.398 1_556 S
C153 C156 1.392 . S
C154 C153 1.398 1_554 S
C154 C157 1.372 . S
C154 H164 0.931 . S
C155 C152 1.382 . S
C155 C157 1.390 . S
C155 H165 0.931 . S
C156 C152 1.390 1_556 S
C156 C153 1.392 . S
C156 H166 0.930 . S
C157 C154 1.372 . S
C157 C155 1.390 . S
C157 H167 0.929 . S
C158 O138 1.255 . S
C158 O139 1.257 . S
C159 Eu95 2.787 . S
C159 O134 1.252 1_554 S
C159 O137 1.268 . S
C159 C152 1.506 . S
H160 C143 0.931 . S
H161 C144 0.931 . S
H162 C145 0.929 . S
H163 C146 0.930 . S
H164 C154 0.931 . S
H165 C155 0.931 . S
H166 C156 0.930 . S
H167 C157 0.929 . S
Eu168 N197 2.600 . S
Eu168 N203 2.562 1_556 S
Eu168 O212 2.462 1_556 S
Eu168 O213 2.373 1_565 S
Eu168 O215 2.432 . S
Eu168 O216 2.291 1_556 S
Eu168 O220 2.335 . S
Eu168 O223 2.372 . S
Eu168 C232 2.787 . S
C169 N170 1.362 . S
C169 C172 1.408 1_545 S
C169 C176 1.448 . S
N170 C169 1.362 . S
N170 C173 1.319 . S
N170 Eu179 2.600 . S
C171 C173 1.397 1_565 S
C171 C174 1.367 . S
C171 H191 0.931 . S
C172 C169 1.408 1_565 S
C172 C174 1.403 . S
C172 C178 1.439 . S
C173 N170 1.319 . S
C173 C171 1.397 1_545 S
C173 H184 0.930 . S
C174 C171 1.367 . S
C174 C172 1.403 . S
C174 H195 0.929 . S
C175 C176 1.438 1_565 S
C175 C177 1.400 . S
C175 C181 1.384 1_554 S
C176 C169 1.448 . S
C176 C175 1.438 1_545 S
C176 N180 1.351 1_554 S
C177 C175 1.400 . S
C177 C178 1.374 . S
C177 H192 0.931 . S
C178 C172 1.439 . S
C178 C177 1.374 . S
C178 H193 0.931 . S
Eu179 N170 2.600 . S
Eu179 N180 2.562 1_554 S
Eu179 O214 2.335 . S
Eu179 O217 2.372 . S
Eu179 O218 2.462 1_554 S
Eu179 O219 2.373 1_545 S
Eu179 O221 2.432 . S
Eu179 O222 2.291 1_554 S
Eu179 C243 2.787 . S
N180 C176 1.351 1_556 S
N180 Eu179 2.562 1_556 S
N180 C182 1.325 . S
C181 C175 1.384 1_556 S
C181 C183 1.366 1_565 S
C181 H189 0.930 . S
C182 N180 1.325 . S
C182 C183 1.416 . S
C182 H188 0.929 . S
C183 C181 1.366 1_545 S
C183 C182 1.416 . S
C183 H185 0.930 . S
H184 C173 0.930 . S
H185 C183 0.930 . S
H186 C201 0.930 . S
H187 C208 0.930 . S
H188 C182 0.929 . S
H189 C181 0.930 . S
H190 C204 0.929 . S
H191 C171 0.931 . S
H192 C177 0.931 . S
H193 C178 0.931 . S
H194 C199 0.931 . S
H195 C174 0.929 . S
H196 C207 0.930 . S
N197 Eu168 2.600 . S
N197 C198 1.365 1_565 S
N197 C201 1.319 . S
C198 N197 1.365 1_545 S
C198 C200 1.405 . S
C198 C206 1.448 . S
C199 H194 0.931 . S
C199 C201 1.397 1_545 S
C199 C202 1.367 . S
C200 C198 1.405 . S
C200 C202 1.403 . S
C200 C233 1.439 . S
C201 H186 0.930 . S
C201 N197 1.319 . S
C201 C199 1.397 1_565 S
C202 C199 1.367 . S
C202 C200 1.403 . S
C202 H209 0.929 . S
N203 Eu168 2.562 1_554 S
N203 C204 1.325 . S
N203 C206 1.351 1_564 S
C204 H190 0.929 . S
C204 N203 1.325 . S
C204 C208 1.416 1_565 S
C205 C206 1.430 1_554 S
C205 C207 1.404 . S
C205 C234 1.387 1_554 S
C206 C198 1.448 . S
C206 N203 1.351 1_546 S
C206 C205 1.430 1_556 S
C207 H196 0.930 . S
C207 C205 1.404 . S
C207 C208 1.366 . S
C208 H187 0.930 . S
C208 C204 1.416 1_545 S
C208 C207 1.366 . S
H209 C202 0.929 . S
H210 C233 0.931 . S
H211 C234 0.931 . S
O212 Eu168 2.462 1_554 S
O212 C232 1.252 1_554 S
O213 Eu168 2.373 1_545 S
O213 C224 1.249 1_556 S
O214 Eu179 2.335 . S
O214 C224 1.264 . S
O215 Eu168 2.432 . S
O215 C232 1.268 . S
O216 Eu168 2.291 1_554 S
O216 C231 1.255 . S
O217 Eu179 2.372 . S
O217 C231 1.257 1_545 S
O218 Eu179 2.462 1_556 S
O218 C243 1.252 1_556 S
O219 Eu179 2.373 1_565 S
O219 C235 1.249 1_554 S
O220 Eu168 2.335 . S
O220 C235 1.264 . S
O221 Eu179 2.432 . S
O221 C243 1.268 . S
O222 Eu179 2.291 1_556 S
O222 C242 1.255 . S
O223 Eu168 2.372 . S
O223 C242 1.257 1_565 S
C224 O213 1.249 1_554 S
C224 O214 1.264 . S
C225 C228 1.382 . S
C225 C230 1.390 1_556 S
C225 C232 1.506 . S
C226 C227 1.398 1_554 S
C226 C230 1.392 . S
C227 C226 1.398 1_556 S
C227 C229 1.372 . S
C227 H244 0.931 . S
C228 C225 1.382 . S
C228 C229 1.390 . S
C228 H245 0.931 . S
C229 C227 1.372 . S
C229 C228 1.390 . S
C229 H246 0.929 . S
C230 C225 1.390 1_554 S
C230 C226 1.392 . S
C230 H247 0.930 . S
C231 O216 1.255 . S
C231 O217 1.257 1_565 S
C232 Eu168 2.787 . S
C232 O212 1.252 1_556 S
C232 O215 1.268 . S
C232 C225 1.506 . S
C233 C200 1.439 . S
C233 H210 0.931 . S
C233 C234 1.374 . S
C234 C205 1.387 1_556 S
C234 H211 0.931 . S
C234 C233 1.374 . S
C235 O219 1.249 1_556 S
C235 O220 1.264 . S
C236 C239 1.382 . S
C236 C240 1.390 1_554 S
C236 C243 1.506 . S
C237 C238 1.398 1_556 S
C237 C240 1.392 . S
C238 C237 1.398 1_554 S
C238 C241 1.372 . S
C238 H248 0.931 . S
C239 C236 1.382 . S
C239 C241 1.390 . S
C239 H249 0.931 . S
C240 C236 1.390 1_556 S
C240 C237 1.392 . S
C240 H250 0.930 . S
C241 C238 1.372 . S
C241 C239 1.390 . S
C241 H251 0.929 . S
C242 O222 1.255 . S
C242 O223 1.257 1_545 S
C243 Eu179 2.787 . S
C243 O218 1.252 1_554 S
C243 O221 1.268 . S
C243 C236 1.506 . S
H244 C227 0.931 . S
H245 C228 0.931 . S
H246 C229 0.929 . S
H247 C230 0.930 . S
H248 C238 0.931 . S
H249 C239 0.931 . S
H250 C240 0.930 . S
H251 C241 0.929 . S
Eu252 N281 2.600 . S
Eu252 N287 2.562 . S
Eu252 O296 2.462 . S
Eu252 O297 2.373 . S
Eu252 O299 2.432 . S
Eu252 O300 2.291 . S
Eu252 O304 2.335 . S
Eu252 O307 2.372 . S
Eu252 C316 2.787 . S
C253 N254 1.365 . S
C253 C256 1.405 . S
C253 C260 1.448 . S
N254 C253 1.365 . S
N254 C257 1.319 . S
N254 Eu263 2.600 . S
C255 C257 1.397 . S
C255 C258 1.367 . S
C255 H275 0.931 . S
C256 C253 1.405 . S
C256 C258 1.403 . S
C256 C262 1.439 . S
C257 N254 1.319 . S
C257 C255 1.397 . S
C257 H268 0.930 . S
C258 C255 1.367 . S
C258 C256 1.403 . S
C258 H279 0.929 . S
C259 C260 1.430 . S
C259 C261 1.387 . S
C259 C265 1.404 . S
C260 C253 1.448 . S
C260 C259 1.430 . S
C260 N264 1.351 . S
C261 C259 1.387 . S
C261 C262 1.374 . S
C261 H276 0.931 . S
C262 C256 1.439 . S
C262 C261 1.374 . S
C262 H277 0.931 . S
Eu263 N254 2.600 . S
Eu263 N264 2.562 . S
Eu263 O298 2.335 . S
Eu263 O301 2.372 . S
Eu263 O302 2.462 . S
Eu263 O303 2.373 . S
Eu263 O305 2.432 . S
Eu263 O306 2.291 . S
Eu263 C327 2.787 . S
N264 C260 1.351 . S
N264 Eu263 2.562 . S
N264 C266 1.325 . S
C265 C259 1.404 . S
C265 C267 1.366 . S
C265 H273 0.930 . S
C266 N264 1.325 . S
C266 C267 1.416 . S
C266 H272 0.929 . S
C267 C265 1.366 . S
C267 C266 1.416 . S
C267 H269 0.930 . S
H268 C257 0.930 . S
H269 C267 0.930 . S
H270 C285 0.930 . S
H271 C292 0.930 . S
H272 C266 0.929 . S
H273 C265 0.930 . S
H274 C288 0.929 . S
H275 C255 0.931 . S
H276 C261 0.931 . S
H277 C262 0.931 . S
H278 C283 0.931 . S
H279 C258 0.929 . S
H280 C291 0.930 . S
N281 Eu252 2.600 . S
N281 C282 1.365 . S
N281 C285 1.319 . S
C282 N281 1.365 . S
C282 C284 1.405 . S
C282 C290 1.448 . S
C283 H278 0.931 . S
C283 C285 1.397 . S
C283 C286 1.367 . S
C284 C282 1.405 . S
C284 C286 1.403 . S
C284 C317 1.439 . S
C285 H270 0.930 . S
C285 N281 1.319 . S
C285 C283 1.397 . S
C286 C283 1.367 . S
C286 C284 1.403 . S
C286 H293 0.929 . S
N287 Eu252 2.562 . S
N287 C288 1.325 . S
N287 C290 1.351 . S
C288 H274 0.929 . S
C288 N287 1.325 . S
C288 C292 1.416 . S
C289 C290 1.430 . S
C289 C291 1.404 . S
C289 C318 1.387 . S
C290 C282 1.448 . S
C290 N287 1.351 . S
C290 C289 1.430 . S
C291 H280 0.930 . S
C291 C289 1.404 . S
C291 C292 1.366 . S
C292 H271 0.930 . S
C292 C288 1.416 . S
C292 C291 1.366 . S
H293 C286 0.929 . S
H294 C317 0.931 . S
H295 C318 0.931 . S
O296 Eu252 2.462 . S
O296 C316 1.252 . S
O297 Eu252 2.373 . S
O297 C308 1.249 . S
O298 Eu263 2.335 . S
O298 C308 1.264 . S
O299 Eu252 2.432 . S
O299 C316 1.268 . S
O300 Eu252 2.291 . S
O300 C315 1.255 . S
O301 Eu263 2.372 . S
O301 C315 1.257 . S
O302 Eu263 2.462 . S
O302 C327 1.252 . S
O303 Eu263 2.373 . S
O303 C319 1.249 . S
O304 Eu252 2.335 . S
O304 C319 1.264 . S
O305 Eu263 2.432 . S
O305 C327 1.268 . S
O306 Eu263 2.291 . S
O306 C326 1.255 . S
O307 Eu252 2.372 . S
O307 C326 1.257 . S
C308 O297 1.249 . S
C308 O298 1.264 . S
C309 C312 1.382 . S
C309 C314 1.390 . S
C309 C316 1.506 . S
C310 C311 1.398 . S
C310 C314 1.392 . S
C311 C310 1.398 . S
C311 C313 1.372 . S
C311 H328 0.931 . S
C312 C309 1.382 . S
C312 C313 1.390 . S
C312 H329 0.931 . S
C313 C311 1.372 . S
C313 C312 1.390 . S
C313 H330 0.929 . S
C314 C309 1.390 . S
C314 C310 1.392 . S
C314 H331 0.930 . S
C315 O300 1.255 . S
C315 O301 1.257 . S
C316 Eu252 2.787 . S
C316 O296 1.252 . S
C316 O299 1.268 . S
C316 C309 1.506 . S
C317 C284 1.439 . S
C317 H294 0.931 . S
C317 C318 1.374 . S
C318 C289 1.387 . S
C318 H295 0.931 . S
C318 C317 1.374 . S
C319 O303 1.249 . S
C319 O304 1.264 . S
C320 C323 1.382 . S
C320 C324 1.390 . S
C320 C327 1.506 . S
C321 C322 1.398 . S
C321 C324 1.392 . S
C322 C321 1.398 . S
C322 C325 1.372 . S
C322 H332 0.931 . S
C323 C320 1.382 . S
C323 C325 1.390 . S
C323 H333 0.931 . S
C324 C320 1.390 . S
C324 C321 1.392 . S
C324 H334 0.930 . S
C325 C322 1.372 . S
C325 C323 1.390 . S
C325 H335 0.929 . S
C326 O306 1.255 . S
C326 O307 1.257 . S
C327 Eu263 2.787 . S
C327 O302 1.252 . S
C327 O305 1.268 . S
C327 C320 1.506 . S
H328 C311 0.931 . S
H329 C312 0.931 . S
H330 C313 0.929 . S
H331 C314 0.930 . S
H332 C322 0.931 . S
H333 C323 0.931 . S
H334 C324 0.930 . S
H335 C325 0.929 . S
Eu336 N365 2.600 . S
Eu336 N371 2.562 . S
Eu336 O380 2.462 . S
Eu336 O381 2.373 . S
Eu336 O383 2.432 . S
Eu336 O384 2.291 . S
Eu336 O388 2.335 . S
Eu336 O391 2.372 . S
Eu336 C400 2.787 . S
C337 N338 1.365 . S
C337 C340 1.405 . S
C337 C344 1.448 . S
N338 C337 1.365 . S
N338 C341 1.319 . S
N338 Eu347 2.600 . S
C339 C341 1.397 . S
C339 C342 1.367 . S
C339 H359 0.931 . S
C340 C337 1.405 . S
C340 C342 1.403 . S
C340 C346 1.439 . S
C341 N338 1.319 . S
C341 C339 1.397 . S
C341 H352 0.930 . S
C342 C339 1.367 . S
C342 C340 1.403 . S
C342 H363 0.929 . S
C343 C344 1.430 . S
C343 C345 1.387 . S
C343 C349 1.404 . S
C344 C337 1.448 . S
C344 C343 1.430 . S
C344 N348 1.351 . S
C345 C343 1.387 . S
C345 C346 1.374 . S
C345 H360 0.931 . S
C346 C340 1.439 . S
C346 C345 1.374 . S
C346 H361 0.931 . S
Eu347 N338 2.600 . S
Eu347 N348 2.562 . S
Eu347 O382 2.335 . S
Eu347 O385 2.372 . S
Eu347 O386 2.462 . S
Eu347 O387 2.373 . S
Eu347 O389 2.432 . S
Eu347 O390 2.291 . S
Eu347 C411 2.787 . S
N348 C344 1.351 . S
N348 Eu347 2.562 . S
N348 C350 1.325 . S
C349 C343 1.404 . S
C349 C351 1.366 . S
C349 H357 0.930 . S
C350 N348 1.325 . S
C350 C351 1.416 . S
C350 H356 0.929 . S
C351 C349 1.366 . S
C351 C350 1.416 . S
C351 H353 0.930 . S
H352 C341 0.930 . S
H353 C351 0.930 . S
H354 C369 0.930 . S
H355 C376 0.930 . S
H356 C350 0.929 . S
H357 C349 0.930 . S
H358 C372 0.929 . S
H359 C339 0.931 . S
H360 C345 0.931 . S
H361 C346 0.931 . S
H362 C367 0.931 . S
H363 C342 0.929 . S
H364 C375 0.930 . S
N365 Eu336 2.600 . S
N365 C366 1.365 . S
N365 C369 1.319 . S
C366 N365 1.365 . S
C366 C368 1.405 . S
C366 C374 1.448 . S
C367 H362 0.931 . S
C367 C369 1.397 . S
C367 C370 1.367 . S
C368 C366 1.405 . S
C368 C370 1.403 . S
C368 C401 1.439 1_565 S
C369 H354 0.930 . S
C369 N365 1.319 . S
C369 C367 1.397 . S
C370 C367 1.367 . S
C370 C368 1.403 . S
C370 H377 0.929 1_565 S
N371 Eu336 2.562 . S
N371 C372 1.325 . S
N371 C374 1.351 . S
C372 H358 0.929 . S
C372 N371 1.325 . S
C372 C376 1.416 1_565 S
C373 C374 1.430 1_545 S
C373 C375 1.404 . S
C373 C402 1.387 . S
C374 C366 1.448 . S
C374 N371 1.351 . S
C374 C373 1.430 1_565 S
C375 H364 0.930 . S
C375 C373 1.404 . S
C375 C376 1.366 . S
C376 H355 0.930 . S
C376 C372 1.416 1_545 S
C376 C375 1.366 . S
H377 C370 0.929 1_545 S
H378 C401 0.931 . S
H379 C402 0.931 . S
O380 Eu336 2.462 . S
O380 C400 1.252 . S
O381 Eu336 2.373 . S
O381 C392 1.249 . S
O382 Eu347 2.335 . S
O382 C392 1.264 . S
O383 Eu336 2.432 . S
O383 C400 1.268 . S
O384 Eu336 2.291 . S
O384 C399 1.255 . S
O385 Eu347 2.372 . S
O385 C399 1.257 . S
O386 Eu347 2.462 . S
O386 C411 1.252 . S
O387 Eu347 2.373 . S
O387 C403 1.249 . S
O388 Eu336 2.335 . S
O388 C403 1.264 . S
O389 Eu347 2.432 . S
O389 C411 1.268 . S
O390 Eu347 2.291 . S
O390 C410 1.255 . S
O391 Eu336 2.372 . S
O391 C410 1.257 . S
C392 O381 1.249 . S
C392 O382 1.264 . S
C393 C396 1.382 . S
C393 C398 1.390 . S
C393 C400 1.506 1_545 S
C394 C395 1.398 . S
C394 C398 1.392 . S
C395 C394 1.398 . S
C395 C397 1.372 . S
C395 H412 0.931 . S
C396 C393 1.382 . S
C396 C397 1.390 . S
C396 H413 0.931 . S
C397 C395 1.372 . S
C397 C396 1.390 . S
C397 H414 0.929 . S
C398 C393 1.390 . S
C398 C394 1.392 . S
C398 H415 0.930 . S
C399 O384 1.255 . S
C399 O385 1.257 . S
C400 Eu336 2.787 . S
C400 O380 1.252 . S
C400 O383 1.268 . S
C400 C393 1.506 1_565 S
C401 C368 1.439 1_545 S
C401 H378 0.931 . S
C401 C402 1.374 . S
C402 C373 1.387 . S
C402 H379 0.931 . S
C402 C401 1.374 . S
C403 O387 1.249 . S
C403 O388 1.264 . S
C404 C407 1.382 . S
C404 C408 1.390 . S
C404 C411 1.506 . S
C405 C406 1.398 . S
C405 C408 1.392 . S
C406 C405 1.398 . S
C406 C409 1.372 . S
C406 H416 0.931 . S
C407 C404 1.382 . S
C407 C409 1.390 . S
C407 H417 0.931 . S
C408 C404 1.390 . S
C408 C405 1.392 . S
C408 H418 0.930 . S
C409 C406 1.372 . S
C409 C407 1.390 . S
C409 H419 0.929 . S
C410 O390 1.255 . S
C410 O391 1.257 . S
C411 Eu347 2.787 . S
C411 O386 1.252 . S
C411 O389 1.268 . S
C411 C404 1.506 . S
H412 C395 0.931 . S
H413 C396 0.931 . S
H414 C397 0.929 . S
H415 C398 0.930 . S
H416 C406 0.931 . S
H417 C407 0.931 . S
H418 C408 0.930 . S
H419 C409 0.929 . S
Eu420 N449 2.600 . S
Eu420 N455 2.562 . S
Eu420 O464 2.462 . S
Eu420 O465 2.373 . S
Eu420 O467 2.432 . S
Eu420 O468 2.291 . S
Eu420 O472 2.335 . S
Eu420 O475 2.372 . S
Eu420 C484 2.787 . S
C421 N422 1.365 . S
C421 C424 1.405 . S
C421 C428 1.448 . S
N422 C421 1.365 . S
N422 C425 1.319 . S
N422 Eu431 2.600 . S
C423 C425 1.397 . S
C423 C426 1.367 . S
C423 H443 0.931 . S
C424 C421 1.405 . S
C424 C426 1.403 . S
C424 C430 1.439 . S
C425 N422 1.319 . S
C425 C423 1.397 . S
C425 H436 0.930 . S
C426 C423 1.367 . S
C426 C424 1.403 . S
C426 H447 0.929 . S
C427 C428 1.430 . S
C427 C429 1.387 . S
C427 C433 1.404 . S
C428 C421 1.448 . S
C428 C427 1.430 . S
C428 N432 1.351 . S
C429 C427 1.387 . S
C429 C430 1.374 . S
C429 H444 0.931 . S
C430 C424 1.439 . S
C430 C429 1.374 . S
C430 H445 0.931 . S
Eu431 N422 2.600 . S
Eu431 N432 2.562 . S
Eu431 O466 2.335 . S
Eu431 O469 2.372 . S
Eu431 O470 2.462 . S
Eu431 O471 2.373 . S
Eu431 O473 2.432 . S
Eu431 O474 2.291 . S
Eu431 C495 2.787 . S
N432 C428 1.351 . S
N432 Eu431 2.562 . S
N432 C434 1.325 . S
C433 C427 1.404 . S
C433 C435 1.366 . S
C433 H441 0.930 . S
C434 N432 1.325 . S
C434 C435 1.416 . S
C434 H440 0.929 . S
C435 C433 1.366 . S
C435 C434 1.416 . S
C435 H437 0.930 . S
H436 C425 0.930 . S
H437 C435 0.930 . S
H438 C453 0.930 . S
H439 C460 0.930 . S
H440 C434 0.929 . S
H441 C433 0.930 . S
H442 C456 0.929 . S
H443 C423 0.931 . S
H444 C429 0.931 . S
H445 C430 0.931 . S
H446 C451 0.931 . S
H447 C426 0.929 . S
H448 C459 0.930 . S
N449 Eu420 2.600 . S
N449 C450 1.365 . S
N449 C453 1.319 . S
C450 N449 1.365 . S
C450 C452 1.405 . S
C450 C458 1.448 . S
C451 H446 0.931 . S
C451 C453 1.397 . S
C451 C454 1.367 . S
C452 C450 1.405 . S
C452 C454 1.403 . S
C452 C485 1.439 1_455 S
C453 H438 0.930 . S
C453 N449 1.319 . S
C453 C451 1.397 . S
C454 C451 1.367 . S
C454 C452 1.403 . S
C454 H461 0.929 . S
N455 Eu420 2.562 . S
N455 C456 1.325 . S
N455 C458 1.351 . S
C456 H442 0.929 . S
C456 N455 1.325 . S
C456 C460 1.416 . S
C457 C458 1.431 1_655 S
C457 C459 1.404 . S
C457 C486 1.386 . S
C458 C450 1.448 . S
C458 N455 1.351 . S
C458 C457 1.431 1_455 S
C459 H448 0.930 . S
C459 C457 1.404 . S
C459 C460 1.366 1_655 S
C460 H439 0.930 . S
C460 C456 1.416 . S
C460 C459 1.366 1_455 S
H461 C454 0.929 . S
H462 C485 0.931 . S
H463 C486 0.931 . S
O464 Eu420 2.462 . S
O464 C484 1.252 . S
O465 Eu420 2.373 . S
O465 C476 1.249 . S
O466 Eu431 2.335 . S
O466 C476 1.264 . S
O467 Eu420 2.432 . S
O467 C484 1.268 . S
O468 Eu420 2.291 . S
O468 C483 1.255 . S
O469 Eu431 2.372 . S
O469 C483 1.257 . S
O470 Eu431 2.462 . S
O470 C495 1.252 . S
O471 Eu431 2.373 . S
O471 C487 1.249 . S
O472 Eu420 2.335 . S
O472 C487 1.264 . S
O473 Eu431 2.432 . S
O473 C495 1.268 . S
O474 Eu431 2.291 . S
O474 C494 1.255 . S
O475 Eu420 2.372 . S
O475 C494 1.257 . S
C476 O465 1.249 . S
C476 O466 1.264 . S
C477 C480 1.382 . S
C477 C482 1.390 . S
C477 C484 1.506 1_655 S
C478 C479 1.398 . S
C478 C482 1.392 . S
C479 C478 1.398 . S
C479 C481 1.372 . S
C479 H496 0.931 . S
C480 C477 1.382 . S
C480 C481 1.390 . S
C480 H497 0.931 . S
C481 C479 1.372 . S
C481 C480 1.390 . S
C481 H498 0.929 . S
C482 C477 1.390 . S
C482 C478 1.392 . S
C482 H499 0.930 . S
C483 O468 1.255 . S
C483 O469 1.257 . S
C484 Eu420 2.787 . S
C484 O464 1.252 . S
C484 O467 1.268 . S
C484 C477 1.506 1_455 S
C485 C452 1.439 1_655 S
C485 H462 0.931 . S
C485 C486 1.374 . S
C486 C457 1.386 . S
C486 H463 0.931 . S
C486 C485 1.374 . S
C487 O471 1.249 . S
C487 O472 1.264 . S
C488 C491 1.382 . S
C488 C492 1.390 . S
C488 C495 1.506 . S
C489 C490 1.398 . S
C489 C492 1.392 . S
C490 C489 1.398 . S
C490 C493 1.372 . S
C490 H500 0.931 . S
C491 C488 1.382 . S
C491 C493 1.390 . S
C491 H501 0.931 . S
C492 C488 1.390 . S
C492 C489 1.392 . S
C492 H502 0.930 . S
C493 C490 1.372 . S
C493 C491 1.390 . S
C493 H503 0.929 . S
C494 O474 1.255 . S
C494 O475 1.257 . S
C495 Eu431 2.787 . S
C495 O470 1.252 . S
C495 O473 1.268 . S
C495 C488 1.506 . S
H496 C479 0.931 . S
H497 C480 0.931 . S
H498 C481 0.929 . S
H499 C482 0.930 . S
H500 C490 0.931 . S
H501 C491 0.931 . S
H502 C492 0.930 . S
H503 C493 0.929 . S
Eu504 N533 2.600 . S
Eu504 N539 2.562 . S
Eu504 O548 2.462 . S
Eu504 O549 2.373 . S
Eu504 O551 2.432 . S
Eu504 O552 2.291 . S
Eu504 O556 2.335 . S
Eu504 O559 2.372 . S
Eu504 C568 2.787 . S
C505 N506 1.365 . S
C505 C508 1.405 . S
C505 C512 1.448 . S
N506 C505 1.365 . S
N506 C509 1.319 . S
N506 Eu515 2.600 . S
C507 C509 1.397 . S
C507 C510 1.367 . S
C507 H527 0.931 . S
C508 C505 1.405 . S
C508 C510 1.403 . S
C508 C514 1.439 . S
C509 N506 1.319 . S
C509 C507 1.397 . S
C509 H520 0.930 . S
C510 C507 1.367 . S
C510 C508 1.403 . S
C510 H531 0.929 . S
C511 C512 1.430 . S
C511 C513 1.387 . S
C511 C517 1.404 . S
C512 C505 1.448 . S
C512 C511 1.430 . S
C512 N516 1.351 . S
C513 C511 1.387 . S
C513 C514 1.374 . S
C513 H528 0.931 . S
C514 C508 1.439 . S
C514 C513 1.374 . S
C514 H529 0.931 . S
Eu515 N506 2.600 . S
Eu515 N516 2.562 . S
Eu515 O550 2.335 . S
Eu515 O553 2.372 . S
Eu515 O554 2.462 . S
Eu515 O555 2.373 . S
Eu515 O557 2.432 . S
Eu515 O558 2.291 . S
Eu515 C579 2.787 . S
N516 C512 1.351 . S
N516 Eu515 2.562 . S
N516 C518 1.325 . S
C517 C511 1.404 . S
C517 C519 1.366 . S
C517 H525 0.930 . S
C518 N516 1.325 . S
C518 C519 1.416 . S
C518 H524 0.929 . S
C519 C517 1.366 . S
C519 C518 1.416 . S
C519 H521 0.930 . S
H520 C509 0.930 . S
H521 C519 0.930 . S
H522 C537 0.930 . S
H523 C544 0.930 . S
H524 C518 0.929 . S
H525 C517 0.930 . S
H526 C540 0.929 . S
H527 C507 0.931 . S
H528 C513 0.931 . S
H529 C514 0.931 . S
H530 C535 0.931 . S
H531 C510 0.929 . S
H532 C543 0.930 . S
N533 Eu504 2.600 . S
N533 C534 1.365 . S
N533 C537 1.319 . S
C534 N533 1.365 . S
C534 C536 1.405 . S
C534 C542 1.448 . S
C535 H530 0.931 . S
C535 C537 1.397 . S
C535 C538 1.367 . S
C536 C534 1.405 . S
C536 C538 1.403 . S
C536 C569 1.439 1_545 S
C537 H522 0.930 . S
C537 N533 1.319 . S
C537 C535 1.397 . S
C538 C535 1.367 . S
C538 C536 1.403 . S
C538 H545 0.929 1_545 S
N539 Eu504 2.562 . S
N539 C540 1.325 . S
N539 C542 1.351 . S
C540 H526 0.929 . S
C540 N539 1.325 . S
C540 C544 1.416 . S
C541 C542 1.430 1_565 S
C541 C543 1.404 . S
C541 C570 1.387 . S
C542 C534 1.448 . S
C542 N539 1.351 . S
C542 C541 1.430 1_545 S
C543 H532 0.930 . S
C543 C541 1.404 . S
C543 C544 1.366 1_565 S
C544 H523 0.930 . S
C544 C540 1.416 . S
C544 C543 1.366 1_545 S
H545 C538 0.929 1_565 S
H546 C569 0.931 . S
H547 C570 0.931 . S
O548 Eu504 2.462 . S
O548 C568 1.252 . S
O549 Eu504 2.373 . S
O549 C560 1.249 . S
O550 Eu515 2.335 . S
O550 C560 1.264 . S
O551 Eu504 2.432 . S
O551 C568 1.268 . S
O552 Eu504 2.291 . S
O552 C567 1.255 . S
O553 Eu515 2.372 . S
O553 C567 1.257 . S
O554 Eu515 2.462 . S
O554 C579 1.252 . S
O555 Eu515 2.373 . S
O555 C571 1.249 . S
O556 Eu504 2.335 . S
O556 C571 1.264 . S
O557 Eu515 2.432 . S
O557 C579 1.268 . S
O558 Eu515 2.291 . S
O558 C578 1.255 . S
O559 Eu504 2.372 . S
O559 C578 1.257 . S
C560 O549 1.249 . S
C560 O550 1.264 . S
C561 C564 1.382 . S
C561 C566 1.390 . S
C561 C568 1.506 . S
C562 C563 1.398 . S
C562 C566 1.392 . S
C563 C562 1.398 . S
C563 C565 1.372 . S
C563 H580 0.931 . S
C564 C561 1.382 . S
C564 C565 1.390 . S
C564 H581 0.931 . S
C565 C563 1.372 . S
C565 C564 1.390 . S
C565 H582 0.929 . S
C566 C561 1.390 . S
C566 C562 1.392 . S
C566 H583 0.930 . S
C567 O552 1.255 . S
C567 O553 1.257 . S
C568 Eu504 2.787 . S
C568 O548 1.252 . S
C568 O551 1.268 . S
C568 C561 1.506 . S
C569 C536 1.439 1_565 S
C569 H546 0.931 . S
C569 C570 1.374 . S
C570 C541 1.387 . S
C570 H547 0.931 . S
C570 C569 1.374 . S
C571 O555 1.249 . S
C571 O556 1.264 . S
C572 C575 1.382 . S
C572 C576 1.390 . S
C572 C579 1.506 . S
C573 C574 1.398 . S
C573 C576 1.392 . S
C574 C573 1.398 . S
C574 C577 1.372 . S
C574 H584 0.931 . S
C575 C572 1.382 . S
C575 C577 1.390 . S
C575 H585 0.931 . S
C576 C572 1.390 . S
C576 C573 1.392 . S
C576 H586 0.930 . S
C577 C574 1.372 . S
C577 C575 1.390 . S
C577 H587 0.929 . S
C578 O558 1.255 . S
C578 O559 1.257 . S
C579 Eu515 2.787 . S
C579 O554 1.252 . S
C579 O557 1.268 . S
C579 C572 1.506 . S
H580 C563 0.931 . S
H581 C564 0.931 . S
H582 C565 0.929 . S
H583 C566 0.930 . S
H584 C574 0.931 . S
H585 C575 0.931 . S
H586 C576 0.930 . S
H587 C577 0.929 . S
Eu588 N617 2.600 . S
Eu588 N623 2.562 . S
Eu588 O632 2.462 . S
Eu588 O633 2.373 . S
Eu588 O635 2.432 . S
Eu588 O636 2.291 . S
Eu588 O640 2.335 . S
Eu588 O643 2.372 . S
Eu588 C652 2.787 . S
C589 N590 1.365 . S
C589 C592 1.405 . S
C589 C596 1.448 . S
N590 C589 1.365 . S
N590 C593 1.319 . S
N590 Eu599 2.600 . S
C591 C593 1.397 . S
C591 C594 1.367 . S
C591 H611 0.931 . S
C592 C589 1.405 . S
C592 C594 1.403 . S
C592 C598 1.439 . S
C593 N590 1.319 . S
C593 C591 1.397 . S
C593 H604 0.930 . S
C594 C591 1.367 . S
C594 C592 1.403 . S
C594 H615 0.929 . S
C595 C596 1.430 . S
C595 C597 1.387 . S
C595 C601 1.404 . S
C596 C589 1.448 . S
C596 C595 1.430 . S
C596 N600 1.351 . S
C597 C595 1.387 . S
C597 C598 1.374 . S
C597 H612 0.931 . S
C598 C592 1.439 . S
C598 C597 1.374 . S
C598 H613 0.931 . S
Eu599 N590 2.600 . S
Eu599 N600 2.562 . S
Eu599 O634 2.335 . S
Eu599 O637 2.372 . S
Eu599 O638 2.462 . S
Eu599 O639 2.373 . S
Eu599 O641 2.432 . S
Eu599 O642 2.291 . S
Eu599 C663 2.787 . S
N600 C596 1.351 . S
N600 Eu599 2.562 . S
N600 C602 1.325 . S
C601 C595 1.404 . S
C601 C603 1.366 . S
C601 H609 0.930 . S
C602 N600 1.325 . S
C602 C603 1.416 . S
C602 H608 0.929 . S
C603 C601 1.366 . S
C603 C602 1.416 . S
C603 H605 0.930 . S
H604 C593 0.930 . S
H605 C603 0.930 . S
H606 C621 0.930 . S
H607 C628 0.930 . S
H608 C602 0.929 . S
H609 C601 0.930 . S
H610 C624 0.929 . S
H611 C591 0.931 . S
H612 C597 0.931 . S
H613 C598 0.931 . S
H614 C619 0.931 . S
H615 C594 0.929 . S
H616 C627 0.930 . S
N617 Eu588 2.600 . S
N617 C618 1.365 . S
N617 C621 1.319 . S
C618 N617 1.365 . S
C618 C620 1.405 1_655 S
C618 C626 1.448 . S
C619 H614 0.931 . S
C619 C621 1.397 . S
C619 C622 1.367 . S
C620 C618 1.405 1_455 S
C620 C622 1.403 1_455 S
C620 C653 1.439 . S
C621 H606 0.930 . S
C621 N617 1.319 . S
C621 C619 1.397 . S
C622 C619 1.367 . S
C622 C620 1.403 1_655 S
C622 H629 0.929 1_655 S
N623 Eu588 2.562 . S
N623 C624 1.325 . S
N623 C626 1.351 . S
C624 H610 0.929 . S
C624 N623 1.325 . S
C624 C628 1.416 . S
C625 C626 1.430 1_455 S
C625 C627 1.404 . S
C625 C654 1.387 . S
C626 C618 1.448 . S
C626 N623 1.351 . S
C626 C625 1.430 1_655 S
C627 H616 0.930 . S
C627 C625 1.404 . S
C627 C628 1.366 1_455 S
C628 H607 0.930 . S
C628 C624 1.416 . S
C628 C627 1.366 1_655 S
H629 C622 0.929 1_455 S
H630 C653 0.931 . S
H631 C654 0.931 . S
O632 Eu588 2.462 . S
O632 C652 1.252 . S
O633 Eu588 2.373 . S
O633 C644 1.249 . S
O634 Eu599 2.335 . S
O634 C644 1.264 . S
O635 Eu588 2.432 . S
O635 C652 1.268 . S
O636 Eu588 2.291 . S
O636 C651 1.255 . S
O637 Eu599 2.372 . S
O637 C651 1.257 . S
O638 Eu599 2.462 . S
O638 C663 1.252 . S
O639 Eu599 2.373 . S
O639 C655 1.249 . S
O640 Eu588 2.335 . S
O640 C655 1.264 . S
O641 Eu599 2.432 . S
O641 C663 1.268 . S
O642 Eu599 2.291 . S
O642 C662 1.255 . S
O643 Eu588 2.372 . S
O643 C662 1.257 . S
C644 O633 1.249 . S
C644 O634 1.264 . S
C645 C648 1.382 . S
C645 C650 1.390 . S
C645 C652 1.506 . S
C646 C647 1.398 . S
C646 C650 1.392 . S
C647 C646 1.398 . S
C647 C649 1.372 . S
C647 H664 0.931 . S
C648 C645 1.382 . S
C648 C649 1.390 . S
C648 H665 0.931 . S
C649 C647 1.372 . S
C649 C648 1.390 . S
C649 H666 0.929 . S
C650 C645 1.390 . S
C650 C646 1.392 . S
C650 H667 0.930 . S
C651 O636 1.255 . S
C651 O637 1.257 . S
C652 Eu588 2.787 . S
C652 O632 1.252 . S
C652 O635 1.268 . S
C652 C645 1.506 . S
C653 C620 1.439 . S
C653 H630 0.931 . S
C653 C654 1.374 . S
C654 C625 1.387 . S
C654 H631 0.931 . S
C654 C653 1.374 . S
C655 O639 1.249 . S
C655 O640 1.264 . S
C656 C659 1.382 . S
C656 C660 1.390 . S
C656 C663 1.506 . S
C657 C658 1.398 . S
C657 C660 1.392 . S
C658 C657 1.398 . S
C658 C661 1.372 . S
C658 H668 0.931 . S
C659 C656 1.382 . S
C659 C661 1.390 . S
C659 H669 0.931 . S
C660 C656 1.390 . S
C660 C657 1.392 . S
C660 H670 0.930 . S
C661 C658 1.372 . S
C661 C659 1.390 . S
C661 H671 0.929 . S
C662 O642 1.255 . S
C662 O643 1.257 . S
C663 Eu599 2.787 . S
C663 O638 1.252 . S
C663 O641 1.268 . S
C663 C656 1.506 . S
H664 C647 0.931 . S
H665 C648 0.931 . S
H666 C649 0.929 . S
H667 C650 0.930 . S
H668 C658 0.931 . S
H669 C659 0.931 . S
H670 C660 0.930 . S
H671 C661 0.929 . S
Eu672 N701 2.600 . S
Eu672 N707 2.562 . S
Eu672 O716 2.462 . S
Eu672 O717 2.373 . S
Eu672 O719 2.432 . S
Eu672 O720 2.291 . S
Eu672 O724 2.335 . S
Eu672 O727 2.372 . S
Eu672 C736 2.787 . S
C673 N674 1.365 . S
C673 C676 1.405 . S
C673 C680 1.448 . S
N674 C673 1.365 . S
N674 C677 1.319 . S
N674 Eu683 2.600 . S
C675 C677 1.397 . S
C675 C678 1.367 . S
C675 H695 0.931 . S
C676 C673 1.405 . S
C676 C678 1.403 . S
C676 C682 1.439 . S
C677 N674 1.319 . S
C677 C675 1.397 . S
C677 H688 0.930 . S
C678 C675 1.367 . S
C678 C676 1.403 . S
C678 H699 0.929 . S
C679 C680 1.430 . S
C679 C681 1.387 . S
C679 C685 1.404 . S
C680 C673 1.448 . S
C680 C679 1.430 . S
C680 N684 1.351 . S
C681 C679 1.387 . S
C681 C682 1.374 . S
C681 H696 0.931 . S
C682 C676 1.439 . S
C682 C681 1.374 . S
C682 H697 0.931 . S
Eu683 N674 2.600 . S
Eu683 N684 2.562 . S
Eu683 O718 2.335 . S
Eu683 O721 2.372 . S
Eu683 O722 2.462 . S
Eu683 O723 2.373 . S
Eu683 O725 2.432 . S
Eu683 O726 2.291 . S
Eu683 C747 2.787 . S
N684 C680 1.351 . S
N684 Eu683 2.562 . S
N684 C686 1.325 . S
C685 C679 1.404 . S
C685 C687 1.366 . S
C685 H693 0.930 . S
C686 N684 1.325 . S
C686 C687 1.416 . S
C686 H692 0.929 . S
C687 C685 1.366 . S
C687 C686 1.416 . S
C687 H689 0.930 . S
H688 C677 0.930 . S
H689 C687 0.930 . S
H690 C705 0.930 . S
H691 C712 0.930 . S
H692 C686 0.929 . S
H693 C685 0.930 . S
H694 C708 0.929 . S
H695 C675 0.931 . S
H696 C681 0.931 . S
H697 C682 0.931 . S
H698 C703 0.931 . S
H699 C678 0.929 . S
H700 C711 0.930 . S
N701 Eu672 2.600 . S
N701 C702 1.365 . S
N701 C705 1.319 . S
C702 N701 1.365 . S
C702 C704 1.405 . S
C702 C710 1.448 . S
C703 H698 0.931 . S
C703 C705 1.397 . S
C703 C706 1.367 . S
C704 C702 1.405 . S
C704 C706 1.403 . S
C704 C737 1.439 . S
C705 H690 0.930 . S
C705 N701 1.319 . S
C705 C703 1.397 . S
C706 C703 1.367 . S
C706 C704 1.403 . S
C706 H713 0.929 . S
N707 Eu672 2.562 . S
N707 C708 1.325 . S
N707 C710 1.351 . S
C708 H694 0.929 . S
C708 N707 1.325 . S
C708 C712 1.416 . S
C709 C710 1.430 . S
C709 C711 1.404 . S
C709 C738 1.387 . S
C710 C702 1.448 . S
C710 N707 1.351 . S
C710 C709 1.430 . S
C711 H700 0.930 . S
C711 C709 1.404 . S
C711 C712 1.366 . S
C712 H691 0.930 . S
C712 C708 1.416 . S
C712 C711 1.366 . S
H713 C706 0.929 . S
H714 C737 0.931 . S
H715 C738 0.931 . S
O716 Eu672 2.462 . S
O716 C736 1.252 . S
O717 Eu672 2.373 . S
O717 C728 1.249 . S
O718 Eu683 2.335 . S
O718 C728 1.264 . S
O719 Eu672 2.432 . S
O719 C736 1.268 . S
O720 Eu672 2.291 . S
O720 C735 1.255 . S
O721 Eu683 2.372 . S
O721 C735 1.257 . S
O722 Eu683 2.462 . S
O722 C747 1.252 . S
O723 Eu683 2.373 . S
O723 C739 1.249 . S
O724 Eu672 2.335 . S
O724 C739 1.264 . S
O725 Eu683 2.432 . S
O725 C747 1.268 . S
O726 Eu683 2.291 . S
O726 C746 1.255 . S
O727 Eu672 2.372 . S
O727 C746 1.257 . S
C728 O717 1.249 . S
C728 O718 1.264 . S
C729 C732 1.382 . S
C729 C734 1.390 . S
C729 C736 1.506 . S
C730 C731 1.398 . S
C730 C734 1.392 . S
C731 C730 1.398 . S
C731 C733 1.372 . S
C731 H748 0.931 . S
C732 C729 1.382 . S
C732 C733 1.390 . S
C732 H749 0.931 . S
C733 C731 1.372 . S
C733 C732 1.390 . S
C733 H750 0.929 . S
C734 C729 1.390 . S
C734 C730 1.392 . S
C734 H751 0.930 . S
C735 O720 1.255 . S
C735 O721 1.257 . S
C736 Eu672 2.787 . S
C736 O716 1.252 . S
C736 O719 1.268 . S
C736 C729 1.506 . S
C737 C704 1.439 . S
C737 H714 0.931 . S
C737 C738 1.374 . S
C738 C709 1.387 . S
C738 H715 0.931 . S
C738 C737 1.374 . S
C739 O723 1.249 . S
C739 O724 1.264 . S
C740 C743 1.382 . S
C740 C744 1.390 . S
C740 C747 1.506 . S
C741 C742 1.398 . S
C741 C744 1.392 . S
C742 C741 1.398 . S
C742 C745 1.372 . S
C742 H752 0.931 . S
C743 C740 1.382 . S
C743 C745 1.390 . S
C743 H753 0.931 . S
C744 C740 1.390 . S
C744 C741 1.392 . S
C744 H754 0.930 . S
C745 C742 1.372 . S
C745 C743 1.390 . S
C745 H755 0.929 . S
C746 O726 1.255 . S
C746 O727 1.257 . S
C747 Eu683 2.787 . S
C747 O722 1.252 . S
C747 O725 1.268 . S
C747 C740 1.506 . S
H748 C731 0.931 . S
H749 C732 0.931 . S
H750 C733 0.929 . S
H751 C734 0.930 . S
H752 C742 0.931 . S
H753 C743 0.931 . S
H754 C744 0.930 . S
H755 C745 0.929 . S
C756 C757 1.349 . S
C756 C758 1.327 . S
C756 H781 0.950 . S
C757 C756 1.349 . S
C757 C773 1.349 1_556 S
C758 C756 1.327 . S
C758 C777 1.429 1_556 S
C758 H782 0.950 . S
C759 C776 1.574 . S
C759 C778 1.368 . S
C759 H783 0.949 . S
H760 C764 0.949 1_556 S
C761 C762 1.349 . S
C761 C763 1.327 . S
C761 H784 0.950 . S
C762 C761 1.349 . S
C762 C774 1.349 . S
C763 C761 1.327 . S
C763 C779 1.429 . S
C763 H785 0.950 . S
C764 H760 0.949 1_554 S
C764 C772 1.574 1_554 S
C764 C780 1.369 . S
H765 C773 0.950 . S
H766 C771 0.950 . S
H767 C772 0.949 . S
H768 C774 0.950 . S
H769 C775 0.946 1_556 S
H770 C776 0.949 . S
C771 H766 0.950 . S
C771 C773 1.327 . S
C771 C777 1.429 . S
C772 C764 1.574 1_556 S
C772 H767 0.949 . S
C772 C778 1.368 1_556 S
C773 C757 1.349 1_554 S
C773 H765 0.950 . S
C773 C771 1.327 . S
C774 C762 1.349 . S
C774 H768 0.950 . S
C774 C775 1.327 . S
C775 H769 0.946 1_554 S
C775 C774 1.327 . S
C775 C779 1.429 . S
C776 C759 1.574 . S
C776 H770 0.949 . S
C776 C780 1.368 . S
C777 C758 1.429 1_554 S
C777 C771 1.429 . S
C777 C778 1.523 . S
C778 C759 1.368 . S
C778 C772 1.368 1_554 S
C778 C777 1.523 . S
C779 C763 1.429 . S
C779 C775 1.429 . S
C779 C780 1.523 . S
C780 C764 1.369 . S
C780 C776 1.368 . S
C780 C779 1.523 . S
H781 C756 0.950 . S
H782 C758 0.950 . S
H783 C759 0.949 . S
H784 C761 0.950 . S
H785 C763 0.950 . S
C786 C787 1.349 1_554 S
C786 C788 1.327 . S
C786 H811 0.950 . S
C787 C786 1.349 1_556 S
C787 C803 1.349 . S
C788 C786 1.327 . S
C788 C807 1.429 . S
C788 H812 0.950 . S
C789 C806 1.572 1_556 S
C789 C808 1.368 1_556 S
C789 H813 0.949 . S
H790 C794 0.949 . S
C791 C792 1.349 . S
C791 C793 1.327 . S
C791 H814 0.950 . S
C792 C791 1.349 . S
C792 C804 1.349 . S
C793 C791 1.327 . S
C793 C809 1.429 . S
C793 H815 0.951 1_554 S
C794 H790 0.949 . S
C794 C802 1.574 . S
C794 C810 1.368 . S
H795 C803 0.950 . S
H796 C801 0.950 . S
H797 C802 0.949 . S
H798 C804 0.950 . S
H799 C805 0.950 . S
H800 C806 0.947 1_556 S
C801 H796 0.950 . S
C801 C803 1.327 . S
C801 C807 1.429 1_556 S
C802 C794 1.574 . S
C802 H797 0.949 . S
C802 C808 1.368 . S
C803 C787 1.349 . S
C803 H795 0.950 . S
C803 C801 1.327 . S
C804 C792 1.349 . S
C804 H798 0.950 . S
C804 C805 1.327 . S
C805 H799 0.950 . S
C805 C804 1.327 . S
C805 C809 1.429 . S
C806 C789 1.572 1_554 S
C806 H800 0.947 1_554 S
C806 C810 1.372 . S
C807 C788 1.429 . S
C807 C801 1.429 1_554 S
C807 C808 1.523 . S
C808 C789 1.368 1_554 S
C808 C802 1.368 . S
C808 C807 1.523 . S
C809 C793 1.429 . S
C809 C805 1.429 . S
C809 C810 1.523 . S
C810 C794 1.368 . S
C810 C806 1.372 . S
C810 C809 1.523 . S
H811 C786 0.950 . S
H812 C788 0.950 . S
H813 C789 0.949 . S
H814 C791 0.950 . S
H815 C793 0.951 1_556 S
C816 C817 1.349 . S
C816 C818 1.327 . S
C816 H841 0.950 . S
C817 C816 1.349 . S
C817 C833 1.380 . S
C818 C816 1.327 . S
C818 C837 1.429 . S
C818 H842 0.950 . S
C819 C836 1.574 . S
C819 C838 1.368 1_556 S
C819 H843 0.949 . S
H820 C824 0.949 . S
C821 C822 1.349 . S
C821 C823 1.327 . S
C821 H844 0.950 . S
C822 C821 1.349 . S
C822 C834 1.349 1_556 S
C823 C821 1.327 . S
C823 C839 1.429 1_556 S
C823 H845 0.950 . S
C824 H820 0.949 . S
C824 C832 1.574 . S
C824 C840 1.368 . S
H825 C833 0.925 1_556 S
H826 C831 0.950 . S
H827 C832 0.949 . S
H828 C834 0.950 . S
H829 C835 0.950 . S
H830 C836 0.949 . S
C831 H826 0.950 . S
C831 C833 1.322 1_556 S
C831 C837 1.429 1_556 S
C832 C824 1.574 . S
C832 H827 0.949 . S
C832 C838 1.368 . S
C833 C817 1.380 . S
C833 H825 0.925 1_554 S
C833 C831 1.322 1_554 S
C834 C822 1.349 1_554 S
C834 H828 0.950 . S
C834 C835 1.327 . S
C835 H829 0.950 . S
C835 C834 1.327 . S
C835 C839 1.429 . S
C836 C819 1.574 . S
C836 H830 0.949 . S
C836 C840 1.368 1_556 S
C837 C818 1.429 . S
C837 C831 1.429 1_554 S
C837 C838 1.523 . S
C838 C819 1.368 1_554 S
C838 C832 1.368 . S
C838 C837 1.523 . S
C839 C823 1.429 1_554 S
C839 C835 1.429 . S
C839 C840 1.523 . S
C840 C824 1.368 . S
C840 C836 1.368 1_554 S
C840 C839 1.523 . S
H841 C816 0.950 . S
H842 C818 0.950 . S
H843 C819 0.949 . S
H844 C821 0.950 . S
H845 C823 0.950 . S
C846 C847 1.349 . S
C846 C848 1.327 . S
C846 H871 0.950 . S
C847 C846 1.349 . S
C847 C863 1.349 1_554 S
C848 C846 1.327 . S
C848 C867 1.429 . S
C848 H872 0.950 . S
C849 C866 1.574 . S
C849 C868 1.386 . S
C849 H873 0.949 . S
H850 C854 0.949 . S
C851 C852 1.349 . S
C851 C853 1.327 . S
C851 H874 0.950 . S
C852 C851 1.349 . S
C852 C864 1.349 1_556 S
C853 C851 1.327 . S
C853 C869 1.429 . S
C853 H875 0.950 . S
C854 H850 0.949 . S
C854 C862 1.574 . S
C854 C870 1.368 1_554 S
H855 C863 0.950 . S
H856 C861 0.950 . S
H857 C862 0.949 . S
H858 C864 0.950 . S
H859 C865 0.950 . S
H860 C866 0.949 . S
C861 H856 0.950 . S
C861 C863 1.327 . S
C861 C867 1.429 1_556 S
C862 C854 1.574 . S
C862 H857 0.949 . S
C862 C868 1.353 1_554 S
C863 C847 1.349 1_556 S
C863 H855 0.950 . S
C863 C861 1.327 . S
C864 C852 1.349 1_554 S
C864 H858 0.950 . S
C864 C865 1.327 . S
C865 H859 0.950 . S
C865 C864 1.327 . S
C865 C869 1.429 1_554 S
C866 C849 1.574 . S
C866 H860 0.949 . S
C866 C870 1.368 . S
C867 C848 1.429 . S
C867 C861 1.429 1_554 S
C867 C868 1.520 1_554 S
C868 C849 1.386 . S
C868 C862 1.353 1_556 S
C868 C867 1.520 1_556 S
C869 C853 1.429 . S
C869 C865 1.429 1_556 S
C869 C870 1.523 . S
C870 C854 1.368 1_556 S
C870 C866 1.368 . S
C870 C869 1.523 . S
H871 C846 0.950 . S
H872 C848 0.950 . S
H873 C849 0.949 . S
H874 C851 0.950 . S
H875 C853 0.950 . S
C876 C877 1.349 1_554 S
C876 C878 1.327 . S
C876 H901 0.950 . S
C877 C876 1.349 1_556 S
C877 C893 1.349 . S
C878 C876 1.327 . S
C878 C897 1.429 1_554 S
C878 H902 0.950 . S
C879 C896 1.574 . S
C879 C898 1.368 . S
C879 H903 0.949 . S
H880 C884 0.949 . S
C881 C882 1.349 1_556 S
C881 C883 1.327 . S
C881 H904 0.950 . S
C882 C881 1.349 1_554 S
C882 C894 1.349 . S
C883 C881 1.327 . S
C883 C899 1.429 1_556 S
C883 H905 0.950 . S
C884 H880 0.949 . S
C884 C892 1.574 . S
C884 C900 1.354 1_554 S
H885 C893 0.950 . S
H886 C891 0.950 . S
H887 C892 0.949 . S
H888 C894 0.950 . S
H889 C895 0.950 . S
H890 C896 0.949 . S
C891 H886 0.950 . S
C891 C893 1.327 . S
C891 C897 1.429 . S
C892 C884 1.574 . S
C892 H887 0.949 . S
C892 C898 1.368 1_554 S
C893 C877 1.349 . S
C893 H885 0.950 . S
C893 C891 1.327 . S
C894 C882 1.349 . S
C894 H888 0.950 . S
C894 C895 1.327 . S
C895 H889 0.950 . S
C895 C894 1.327 . S
C895 C899 1.429 . S
C896 C879 1.574 . S
C896 H890 0.949 . S
C896 C900 1.385 . S
C897 C878 1.429 1_556 S
C897 C891 1.429 . S
C897 C898 1.523 . S
C898 C879 1.368 . S
C898 C892 1.368 1_556 S
C898 C897 1.523 . S
C899 C883 1.429 1_554 S
C899 C895 1.429 . S
C899 C900 1.520 1_554 S
C900 C884 1.354 1_556 S
C900 C896 1.385 . S
C900 C899 1.520 1_556 S
H901 C876 0.950 . S
H902 C878 0.950 . S
H903 C879 0.949 . S
H904 C881 0.950 . S
H905 C883 0.950 . S
C906 C907 1.349 . S
C906 C908 1.327 . S
C906 H931 0.950 . S
C907 C906 1.349 . S
C907 C923 1.349 1_556 S
C908 C906 1.327 . S
C908 C927 1.429 . S
C908 H932 0.950 . S
C909 C926 1.574 . S
C909 C928 1.368 1_554 S
C909 H933 0.949 . S
H910 C914 0.949 . S
C911 C912 1.349 . S
C911 C913 1.327 . S
C911 H934 0.950 . S
C912 C911 1.349 . S
C912 C924 1.349 1_554 S
C913 C911 1.327 . S
C913 C929 1.429 . S
C913 H935 0.950 . S
C914 H910 0.949 . S
C914 C922 1.574 . S
C914 C930 1.387 . S
H915 C923 0.950 . S
H916 C921 0.950 . S
H917 C922 0.949 . S
H918 C924 0.950 . S
H919 C925 0.950 . S
H920 C926 0.949 . S
C921 H916 0.950 . S
C921 C923 1.327 . S
C921 C927 1.429 1_554 S
C922 C914 1.574 . S
C922 H917 0.949 . S
C922 C928 1.368 . S
C923 C907 1.349 1_554 S
C923 H915 0.950 . S
C923 C921 1.327 . S
C924 C912 1.349 1_556 S
C924 H918 0.950 . S
C924 C925 1.327 . S
C925 H919 0.950 . S
C925 C924 1.327 . S
C925 C929 1.429 1_556 S
C926 C909 1.574 . S
C926 H920 0.949 . S
C926 C930 1.352 1_554 S
C927 C908 1.429 . S
C927 C921 1.429 1_556 S
C927 C928 1.523 . S
C928 C909 1.368 1_556 S
C928 C922 1.368 . S
C928 C927 1.523 . S
C929 C913 1.429 . S
C929 C925 1.429 1_554 S
C929 C930 1.520 1_554 S
C930 C914 1.387 . S
C930 C926 1.352 1_556 S
C930 C929 1.520 1_556 S
H931 C906 0.950 . S
H932 C908 0.950 . S
H933 C909 0.949 . S
H934 C911 0.950 . S
H935 C913 0.950 . S
C936 C937 1.349 . S
C936 C938 1.327 . S
C936 H961 0.950 . S
C937 C936 1.349 . S
C937 C953 1.349 . S
C938 C936 1.327 . S
C938 C957 1.429 . S
C938 H962 0.950 . S
C939 C956 1.574 1_655 S
C939 C958 1.368 . S
C939 H963 0.949 . S
H940 C944 0.949 . S
C941 C942 1.349 . S
C941 C943 1.327 . S
C941 H964 0.950 . S
C942 C941 1.349 . S
C942 C954 1.349 . S
C943 C941 1.327 . S
C943 C959 1.429 . S
C943 H965 0.950 . S
C944 H940 0.949 . S
C944 C952 1.574 1_455 S
C944 C960 1.368 . S
H945 C953 0.950 . S
H946 C951 0.950 . S
H947 C952 0.949 . S
H948 C954 0.950 . S
H949 C955 0.950 . S
H950 C956 0.949 . S
C951 H946 0.950 . S
C951 C953 1.327 . S
C951 C957 1.429 . S
C952 C944 1.574 1_655 S
C952 H947 0.949 . S
C952 C958 1.368 . S
C953 C937 1.349 . S
C953 H945 0.950 . S
C953 C951 1.327 . S
C954 C942 1.349 . S
C954 H948 0.950 . S
C954 C955 1.327 . S
C955 H949 0.950 . S
C955 C954 1.327 . S
C955 C959 1.429 . S
C956 C939 1.574 1_455 S
C956 H950 0.949 . S
C956 C960 1.368 . S
C957 C938 1.429 . S
C957 C951 1.429 . S
C957 C958 1.523 . S
C958 C939 1.368 . S
C958 C952 1.368 . S
C958 C957 1.523 . S
C959 C943 1.429 . S
C959 C955 1.429 . S
C959 C960 1.523 . S
C960 C944 1.368 . S
C960 C956 1.368 . S
C960 C959 1.523 . S
H961 C936 0.950 . S
H962 C938 0.950 . S
H963 C939 0.949 . S
H964 C941 0.950 . S
H965 C943 0.950 . S
C966 C967 1.349 . S
C966 C968 1.327 . S
C966 H991 0.950 . S
C967 C966 1.349 . S
C967 C983 1.349 . S
C968 C966 1.327 . S
C968 C987 1.429 . S
C968 H992 0.950 . S
C969 C986 1.574 . S
C969 C988 1.368 . S
C969 H993 0.949 . S
H970 C974 0.949 . S
C971 C972 1.349 . S
C971 C973 1.327 . S
C971 H994 0.950 . S
C972 C971 1.349 . S
C972 C984 1.349 . S
C973 C971 1.327 . S
C973 C989 1.429 . S
C973 H995 0.950 . S
C974 H970 0.949 . S
C974 C982 1.574 . S
C974 C990 1.368 . S
H975 C983 0.950 . S
H976 C981 0.950 . S
H977 C982 0.949 . S
H978 C984 0.950 . S
H979 C985 0.950 . S
H980 C986 0.949 . S
C981 H976 0.950 . S
C981 C983 1.327 . S
C981 C987 1.429 . S
C982 C974 1.574 . S
C982 H977 0.949 . S
C982 C988 1.368 . S
C983 C967 1.349 . S
C983 H975 0.950 . S
C983 C981 1.327 . S
C984 C972 1.349 . S
C984 H978 0.950 . S
C984 C985 1.327 . S
C985 H979 0.950 . S
C985 C984 1.327 . S
C985 C989 1.429 . S
C986 C969 1.574 . S
C986 H980 0.949 . S
C986 C990 1.368 . S
C987 C968 1.429 . S
C987 C981 1.429 . S
C987 C988 1.523 . S
C988 C969 1.368 . S
C988 C982 1.368 . S
C988 C987 1.523 . S
C989 C973 1.429 . S
C989 C985 1.429 . S
C989 C990 1.523 . S
C990 C974 1.368 . S
C990 C986 1.368 . S
C990 C989 1.523 . S
H991 C966 0.950 . S
H992 C968 0.950 . S
H993 C969 0.949 . S
H994 C971 0.950 . S
H995 C973 0.950 . S
C996 C997 1.349 . S
C996 C998 1.327 . S
C996 H1021 0.950 . S
C997 C996 1.349 . S
C997 C1013 1.349 . S
C998 C996 1.327 . S
C998 C1017 1.429 . S
C998 H1022 0.950 . S
C999 C1016 1.574 1_545 S
C999 C1018 1.368 . S
C999 H1023 0.949 . S
H1000 C1004 0.947 1_565 S
C1001 C1002 1.349 . S
C1001 C1003 1.327 . S
C1001 H1024 0.950 . S
C1002 C1001 1.349 . S
C1002 C1014 1.349 . S
C1003 C1001 1.327 . S
C1003 C1019 1.429 . S
C1003 H1025 0.950 . S
C1004 H1000 0.947 1_545 S
C1004 C1012 1.589 . S
C1004 C1020 1.356 1_545 S
H1005 C1013 0.950 . S
H1006 C1011 0.950 . S
H1007 C1012 0.949 . S
H1008 C1014 0.950 . S
H1009 C1015 0.950 . S
H1010 C1016 0.949 . S
C1011 H1006 0.950 . S
C1011 C1013 1.327 . S
C1011 C1017 1.429 . S
C1012 C1004 1.589 . S
C1012 H1007 0.949 . S
C1012 C1018 1.368 . S
C1013 C997 1.349 . S
C1013 H1005 0.950 . S
C1013 C1011 1.327 . S
C1014 C1002 1.349 . S
C1014 H1008 0.950 . S
C1014 C1015 1.327 . S
C1015 H1009 0.950 . S
C1015 C1014 1.327 . S
C1015 C1019 1.429 . S
C1016 C999 1.574 1_565 S
C1016 H1010 0.949 . S
C1016 C1020 1.368 . S
C1017 C998 1.429 . S
C1017 C1011 1.429 . S
C1017 C1018 1.523 . S
C1018 C999 1.368 . S
C1018 C1012 1.368 . S
C1018 C1017 1.523 . S
C1019 C1003 1.429 . S
C1019 C1015 1.429 . S
C1019 C1020 1.523 . S
C1020 C1004 1.356 1_565 S
C1020 C1016 1.368 . S
C1020 C1019 1.523 . S
H1021 C996 0.950 . S
H1022 C998 0.950 . S
H1023 C999 0.949 . S
H1024 C1001 0.950 . S
H1025 C1003 0.950 . S
C1026 C1027 1.349 . S
C1026 C1028 1.327 . S
C1026 H1051 0.950 . S
C1027 C1026 1.349 . S
C1027 C1043 1.349 . S
C1028 C1026 1.327 . S
C1028 C1047 1.429 . S
C1028 H1052 0.950 . S
C1029 C1046 1.574 . S
C1029 C1048 1.368 . S
C1029 H1053 0.949 . S
H1030 C1034 0.949 . S
C1031 C1032 1.349 . S
C1031 C1033 1.327 . S
C1031 H1054 0.950 . S
C1032 C1031 1.349 . S
C1032 C1044 1.349 . S
C1033 C1031 1.327 . S
C1033 C1049 1.429 . S
C1033 H1055 0.950 . S
C1034 H1030 0.949 . S
C1034 C1042 1.574 . S
C1034 C1050 1.368 . S
H1035 C1043 0.950 . S
H1036 C1041 0.950 . S
H1037 C1042 0.949 . S
H1038 C1044 0.950 . S
H1039 C1045 0.950 . S
H1040 C1046 0.949 . S
C1041 H1036 0.950 . S
C1041 C1043 1.327 . S
C1041 C1047 1.429 . S
C1042 C1034 1.574 . S
C1042 H1037 0.949 . S
C1042 C1048 1.368 . S
C1043 C1027 1.349 . S
C1043 H1035 0.950 . S
C1043 C1041 1.327 . S
C1044 C1032 1.349 . S
C1044 H1038 0.950 . S
C1044 C1045 1.327 . S
C1045 H1039 0.950 . S
C1045 C1044 1.327 . S
C1045 C1049 1.429 . S
C1046 C1029 1.574 . S
C1046 H1040 0.949 . S
C1046 C1050 1.368 . S
C1047 C1028 1.429 . S
C1047 C1041 1.429 . S
C1047 C1048 1.523 . S
C1048 C1029 1.368 . S
C1048 C1042 1.368 . S
C1048 C1047 1.523 . S
C1049 C1033 1.429 . S
C1049 C1045 1.429 . S
C1049 C1050 1.523 . S
C1050 C1034 1.368 . S
C1050 C1046 1.368 . S
C1050 C1049 1.523 . S
H1051 C1026 0.950 . S
H1052 C1028 0.950 . S
H1053 C1029 0.949 . S
H1054 C1031 0.950 . S
H1055 C1033 0.950 . S
C1056 C1057 1.349 . S
C1056 C1058 1.327 . S
C1056 H1081 0.950 . S
C1057 C1056 1.349 . S
C1057 C1073 1.349 . S
C1058 C1056 1.327 . S
C1058 C1077 1.429 . S
C1058 H1082 0.950 . S
C1059 C1076 1.574 . S
C1059 C1078 1.368 . S
C1059 H1083 0.949 . S
H1060 C1064 0.949 . S
C1061 C1062 1.349 . S
C1061 C1063 1.327 . S
C1061 H1084 0.950 . S
C1062 C1061 1.349 . S
C1062 C1074 1.349 . S
C1063 C1061 1.327 . S
C1063 C1079 1.429 . S
C1063 H1085 0.950 . S
C1064 H1060 0.949 . S
C1064 C1072 1.574 . S
C1064 C1080 1.368 . S
H1065 C1073 0.950 . S
H1066 C1071 0.950 . S
H1067 C1072 0.949 . S
H1068 C1074 0.950 . S
H1069 C1075 0.950 . S
H1070 C1076 0.949 . S
C1071 H1066 0.950 . S
C1071 C1073 1.327 . S
C1071 C1077 1.429 . S
C1072 C1064 1.574 . S
C1072 H1067 0.949 . S
C1072 C1078 1.368 . S
C1073 C1057 1.349 . S
C1073 H1065 0.950 . S
C1073 C1071 1.327 . S
C1074 C1062 1.349 . S
C1074 H1068 0.950 . S
C1074 C1075 1.327 . S
C1075 H1069 0.950 . S
C1075 C1074 1.327 . S
C1075 C1079 1.429 . S
C1076 C1059 1.574 . S
C1076 H1070 0.949 . S
C1076 C1080 1.368 . S
C1077 C1058 1.429 . S
C1077 C1071 1.429 . S
C1077 C1078 1.523 . S
C1078 C1059 1.368 . S
C1078 C1072 1.368 . S
C1078 C1077 1.523 . S
C1079 C1063 1.429 . S
C1079 C1075 1.429 . S
C1079 C1080 1.523 . S
C1080 C1064 1.368 . S
C1080 C1076 1.368 . S
C1080 C1079 1.523 . S
H1081 C1056 0.950 . S
H1082 C1058 0.950 . S
H1083 C1059 0.949 . S
H1084 C1061 0.950 . S
H1085 C1063 0.950 . S
C1086 C1087 1.349 . S
C1086 C1088 1.327 . S
C1086 H1111 0.950 . S
C1087 C1086 1.349 . S
C1087 C1103 1.349 . S
C1088 C1086 1.327 . S
C1088 C1107 1.429 . S
C1088 H1112 0.950 . S
C1089 C1106 1.574 . S
C1089 C1108 1.368 . S
C1089 H1113 0.949 . S
H1090 C1094 0.949 . S
C1091 C1092 1.349 . S
C1091 C1093 1.327 . S
C1091 H1114 0.950 . S
C1092 C1091 1.349 . S
C1092 C1104 1.349 . S
C1093 C1091 1.327 . S
C1093 C1109 1.429 . S
C1093 H1115 0.950 . S
C1094 H1090 0.949 . S
C1094 C1102 1.574 . S
C1094 C1110 1.368 . S
H1095 C1103 0.950 . S
H1096 C1101 0.950 . S
H1097 C1102 0.949 . S
H1098 C1104 0.950 . S
H1099 C1105 0.950 . S
H1100 C1106 0.949 . S
C1101 H1096 0.950 . S
C1101 C1103 1.327 . S
C1101 C1107 1.429 . S
C1102 C1094 1.574 . S
C1102 H1097 0.949 . S
C1102 C1108 1.368 . S
C1103 C1087 1.349 . S
C1103 H1095 0.950 . S
C1103 C1101 1.327 . S
C1104 C1092 1.349 . S
C1104 H1098 0.950 . S
C1104 C1105 1.327 . S
C1105 H1099 0.950 . S
C1105 C1104 1.327 . S
C1105 C1109 1.429 . S
C1106 C1089 1.574 . S
C1106 H1100 0.949 . S
C1106 C1110 1.368 . S
C1107 C1088 1.429 . S
C1107 C1101 1.429 . S
C1107 C1108 1.523 . S
C1108 C1089 1.368 . S
C1108 C1102 1.368 . S
C1108 C1107 1.523 . S
C1109 C1093 1.429 . S
C1109 C1105 1.429 . S
C1109 C1110 1.523 . S
C1110 C1094 1.368 . S
C1110 C1106 1.368 . S
C1110 C1109 1.523 . S
H1111 C1086 0.950 . S
H1112 C1088 0.950 . S
H1113 C1089 0.949 . S
H1114 C1091 0.950 . S
H1115 C1093 0.950 . S
C1116 C1117 1.349 . S
C1116 C1118 1.327 . S
C1116 H1141 0.950 . S
C1117 C1116 1.349 . S
C1117 C1133 1.349 . S
C1118 C1116 1.327 . S
C1118 C1137 1.429 . S
C1118 H1142 0.950 . S
C1119 C1136 1.574 . S
C1119 C1138 1.368 . S
C1119 H1143 0.949 . S
H1120 C1124 0.949 . S
C1121 C1122 1.349 . S
C1121 C1123 1.327 . S
C1121 H1144 0.950 . S
C1122 C1121 1.349 . S
C1122 C1134 1.349 . S
C1123 C1121 1.327 . S
C1123 C1139 1.429 . S
C1123 H1145 0.950 . S
C1124 H1120 0.949 . S
C1124 C1132 1.574 . S
C1124 C1140 1.368 . S
H1125 C1133 0.950 . S
H1126 C1131 0.950 . S
H1127 C1132 0.949 . S
H1128 C1134 0.950 . S
H1129 C1135 0.950 . S
H1130 C1136 0.949 . S
C1131 H1126 0.950 . S
C1131 C1133 1.327 . S
C1131 C1137 1.429 . S
C1132 C1124 1.574 . S
C1132 H1127 0.949 . S
C1132 C1138 1.368 . S
C1133 C1117 1.349 . S
C1133 H1125 0.950 . S
C1133 C1131 1.327 . S
C1134 C1122 1.349 . S
C1134 H1128 0.950 . S
C1134 C1135 1.327 . S
C1135 H1129 0.950 . S
C1135 C1134 1.327 . S
C1135 C1139 1.429 . S
C1136 C1119 1.574 . S
C1136 H1130 0.949 . S
C1136 C1140 1.368 . S
C1137 C1118 1.429 . S
C1137 C1131 1.429 . S
C1137 C1138 1.523 . S
C1138 C1119 1.368 . S
C1138 C1132 1.368 . S
C1138 C1137 1.523 . S
C1139 C1123 1.429 . S
C1139 C1135 1.429 . S
C1139 C1140 1.523 . S
C1140 C1124 1.368 . S
C1140 C1136 1.368 . S
C1140 C1139 1.523 . S
H1141 C1116 0.950 . S
H1142 C1118 0.950 . S
H1143 C1119 0.949 . S
H1144 C1121 0.950 . S
H1145 C1123 0.950 . S
C1146 C1147 1.349 . S
C1146 C1148 1.327 . S
C1146 H1171 0.950 . S
C1147 C1146 1.349 . S
C1147 C1163 1.349 . S
C1148 C1146 1.327 . S
C1148 C1167 1.429 . S
C1148 H1172 0.950 . S
C1149 C1166 1.574 . S
C1149 C1168 1.368 . S
C1149 H1173 0.949 . S
H1150 C1154 0.949 . S
C1151 C1152 1.349 . S
C1151 C1153 1.327 . S
C1151 H1174 0.950 . S
C1152 C1151 1.349 . S
C1152 C1164 1.349 . S
C1153 C1151 1.327 . S
C1153 C1169 1.429 . S
C1153 H1175 0.950 . S
C1154 H1150 0.949 . S
C1154 C1162 1.574 . S
C1154 C1170 1.368 . S
H1155 C1163 0.950 . S
H1156 C1161 0.950 . S
H1157 C1162 0.949 . S
H1158 C1164 0.950 . S
H1159 C1165 0.950 . S
H1160 C1166 0.949 . S
C1161 H1156 0.950 . S
C1161 C1163 1.327 . S
C1161 C1167 1.429 . S
C1162 C1154 1.574 . S
C1162 H1157 0.949 . S
C1162 C1168 1.368 . S
C1163 C1147 1.349 . S
C1163 H1155 0.950 . S
C1163 C1161 1.327 . S
C1164 C1152 1.349 . S
C1164 H1158 0.950 . S
C1164 C1165 1.327 . S
C1165 H1159 0.950 . S
C1165 C1164 1.327 . S
C1165 C1169 1.429 . S
C1166 C1149 1.574 . S
C1166 H1160 0.949 . S
C1166 C1170 1.368 . S
C1167 C1148 1.429 . S
C1167 C1161 1.429 . S
C1167 C1168 1.523 . S
C1168 C1149 1.368 . S
C1168 C1162 1.368 . S
C1168 C1167 1.523 . S
C1169 C1153 1.429 . S
C1169 C1165 1.429 . S
C1169 C1170 1.523 . S
C1170 C1154 1.368 . S
C1170 C1166 1.368 . S
C1170 C1169 1.523 . S
H1171 C1146 0.950 . S
H1172 C1148 0.950 . S
H1173 C1149 0.949 . S
H1174 C1151 0.950 . S
H1175 C1153 0.950 . S
C1176 C1177 1.349 . S
C1176 C1178 1.327 . S
C1176 H1201 0.950 . S
C1177 C1176 1.349 . S
C1177 C1193 1.349 . S
C1178 C1176 1.327 . S
C1178 C1197 1.429 . S
C1178 H1202 0.950 . S
C1179 C1196 1.574 . S
C1179 C1198 1.368 . S
C1179 H1203 0.949 . S
H1180 C1184 0.949 . S
C1181 C1182 1.349 . S
C1181 C1183 1.327 . S
C1181 H1204 0.950 . S
C1182 C1181 1.349 . S
C1182 C1194 1.349 . S
C1183 C1181 1.327 . S
C1183 C1199 1.429 . S
C1183 H1205 0.950 . S
C1184 H1180 0.949 . S
C1184 C1192 1.574 . S
C1184 C1200 1.368 . S
H1185 C1193 0.950 . S
H1186 C1191 0.950 . S
H1187 C1192 0.949 . S
H1188 C1194 0.950 . S
H1189 C1195 0.950 . S
H1190 C1196 0.949 . S
C1191 H1186 0.950 . S
C1191 C1193 1.327 . S
C1191 C1197 1.429 . S
C1192 C1184 1.574 . S
C1192 H1187 0.949 . S
C1192 C1198 1.368 . S
C1193 C1177 1.349 . S
C1193 H1185 0.950 . S
C1193 C1191 1.327 . S
C1194 C1182 1.349 . S
C1194 H1188 0.950 . S
C1194 C1195 1.327 . S
C1195 H1189 0.950 . S
C1195 C1194 1.327 . S
C1195 C1199 1.429 . S
C1196 C1179 1.574 . S
C1196 H1190 0.949 . S
C1196 C1200 1.368 . S
C1197 C1178 1.429 . S
C1197 C1191 1.429 . S
C1197 C1198 1.523 . S
C1198 C1179 1.368 . S
C1198 C1192 1.368 . S
C1198 C1197 1.523 . S
C1199 C1183 1.429 . S
C1199 C1195 1.429 . S
C1199 C1200 1.523 . S
C1200 C1184 1.368 . S
C1200 C1196 1.368 . S
C1200 C1199 1.523 . S
H1201 C1176 0.950 . S
H1202 C1178 0.950 . S
H1203 C1179 0.949 . S
H1204 C1181 0.950 . S
H1205 C1183 0.950 . S
C1206 C1207 1.349 . S
C1206 C1208 1.327 . S
C1206 H1231 0.950 . S
C1207 C1206 1.349 . S
C1207 C1223 1.349 . S
C1208 C1206 1.327 . S
C1208 C1227 1.429 . S
C1208 H1232 0.950 . S
C1209 C1226 1.574 . S
C1209 C1228 1.368 . S
C1209 H1233 0.949 . S
H1210 C1214 0.949 . S
C1211 C1212 1.349 . S
C1211 C1213 1.327 1_545 S
C1211 H1234 0.950 . S
C1212 C1211 1.349 . S
C1212 C1224 1.349 1_545 S
C1213 C1211 1.327 1_565 S
C1213 C1229 1.429 . S
C1213 H1235 0.950 . S
C1214 H1210 0.949 . S
C1214 C1222 1.574 . S
C1214 C1230 1.368 . S
H1215 C1223 0.950 . S
H1216 C1221 0.950 . S
H1217 C1222 0.949 . S
H1218 C1224 0.950 1_545 S
H1219 C1225 0.950 . S
H1220 C1226 0.949 . S
C1221 H1216 0.950 . S
C1221 C1223 1.327 . S
C1221 C1227 1.429 . S
C1222 C1214 1.574 . S
C1222 H1217 0.949 . S
C1222 C1228 1.368 . S
C1223 C1207 1.349 . S
C1223 H1215 0.950 . S
C1223 C1221 1.327 . S
C1224 C1212 1.349 1_565 S
C1224 H1218 0.950 1_565 S
C1224 C1225 1.327 . S
C1225 H1219 0.950 . S
C1225 C1224 1.327 . S
C1225 C1229 1.429 . S
C1226 C1209 1.574 . S
C1226 H1220 0.949 . S
C1226 C1230 1.368 . S
C1227 C1208 1.429 . S
C1227 C1221 1.429 . S
C1227 C1228 1.523 . S
C1228 C1209 1.368 . S
C1228 C1222 1.368 . S
C1228 C1227 1.523 . S
C1229 C1213 1.429 . S
C1229 C1225 1.429 . S
C1229 C1230 1.523 . S
C1230 C1214 1.368 . S
C1230 C1226 1.368 . S
C1230 C1229 1.523 . S
H1231 C1206 0.950 . S
H1232 C1208 0.950 . S
H1233 C1209 0.949 . S
H1234 C1211 0.950 . S
H1235 C1213 0.950 . S
C1236 C1237 1.349 1_455 S
C1236 C1238 1.327 . S
C1236 H1261 0.950 1_455 S
C1237 C1236 1.349 1_655 S
C1237 C1253 1.349 1_655 S
C1238 C1236 1.327 . S
C1238 C1257 1.429 . S
C1238 H1262 0.950 . S
C1239 C1256 1.574 . S
C1239 C1258 1.368 . S
C1239 H1263 0.949 . S
H1240 C1244 0.949 . S
C1241 C1242 1.349 . S
C1241 C1243 1.327 . S
C1241 H1264 0.950 . S
C1242 C1241 1.349 . S
C1242 C1254 1.349 . S
C1243 C1241 1.327 . S
C1243 C1259 1.429 . S
C1243 H1265 0.950 . S
C1244 H1240 0.949 . S
C1244 C1252 1.574 . S
C1244 C1260 1.368 . S
H1245 C1253 0.950 1_655 S
H1246 C1251 0.950 . S
H1247 C1252 0.949 . S
H1248 C1254 0.950 . S
H1249 C1255 0.950 1_565 S
H1250 C1256 0.949 1_545 S
C1251 H1246 0.950 . S
C1251 C1253 1.327 . S
C1251 C1257 1.429 . S
C1252 C1244 1.574 . S
C1252 H1247 0.949 . S
C1252 C1258 1.368 . S
C1253 C1237 1.349 1_455 S
C1253 H1245 0.950 1_455 S
C1253 C1251 1.327 . S
C1254 C1242 1.349 . S
C1254 H1248 0.950 . S
C1254 C1255 1.327 . S
C1255 H1249 0.950 1_545 S
C1255 C1254 1.327 . S
C1255 C1259 1.429 . S
C1256 C1239 1.574 . S
C1256 H1250 0.949 1_565 S
C1256 C1260 1.368 . S
C1257 C1238 1.429 . S
C1257 C1251 1.429 . S
C1257 C1258 1.523 . S
C1258 C1239 1.368 . S
C1258 C1252 1.368 . S
C1258 C1257 1.523 . S
C1259 C1243 1.429 . S
C1259 C1255 1.429 . S
C1259 C1260 1.523 1_545 S
C1260 C1244 1.368 . S
C1260 C1256 1.368 . S
C1260 C1259 1.523 1_565 S
H1261 C1236 0.950 1_655 S
H1262 C1238 0.950 . S
H1263 C1239 0.949 . S
H1264 C1241 0.950 . S
H1265 C1243 0.950 . S
C1266 C1267 1.349 . S
C1266 C1268 1.327 . S
C1266 H1291 0.950 . S
C1267 C1266 1.349 . S
C1267 C1283 1.349 . S
C1268 C1266 1.327 . S
C1268 C1287 1.429 . S
C1268 H1292 0.950 . S
C1269 C1286 1.574 . S
C1269 C1288 1.368 . S
C1269 H1293 0.949 . S
H1270 C1274 0.949 1_655 S
C1271 C1272 1.349 . S
C1271 C1273 1.327 1_655 S
C1271 H1294 0.950 . S
C1272 C1271 1.349 . S
C1272 C1284 1.349 . S
C1273 C1271 1.327 1_455 S
C1273 C1289 1.429 . S
C1273 H1295 0.950 . S
C1274 H1270 0.949 1_455 S
C1274 C1282 1.574 . S
C1274 C1290 1.368 . S
H1275 C1283 0.950 . S
H1276 C1281 0.950 . S
H1277 C1282 0.949 . S
H1278 C1284 0.950 . S
H1279 C1285 0.950 . S
H1280 C1286 0.949 . S
C1281 H1276 0.950 . S
C1281 C1283 1.327 . S
C1281 C1287 1.429 . S
C1282 C1274 1.574 . S
C1282 H1277 0.949 . S
C1282 C1288 1.368 . S
C1283 C1267 1.349 . S
C1283 H1275 0.950 . S
C1283 C1281 1.327 . S
C1284 C1272 1.349 . S
C1284 H1278 0.950 . S
C1284 C1285 1.327 . S
C1285 H1279 0.950 . S
C1285 C1284 1.327 . S
C1285 C1289 1.429 1_655 S
C1286 C1269 1.574 . S
C1286 H1280 0.949 . S
C1286 C1290 1.368 . S
C1287 C1268 1.429 . S
C1287 C1281 1.429 . S
C1287 C1288 1.523 . S
C1288 C1269 1.368 . S
C1288 C1282 1.368 . S
C1288 C1287 1.523 . S
C1289 C1273 1.429 . S
C1289 C1285 1.429 1_455 S
C1289 C1290 1.523 . S
C1290 C1274 1.368 . S
C1290 C1286 1.368 . S
C1290 C1289 1.523 . S
H1291 C1266 0.950 . S
H1292 C1268 0.950 . S
H1293 C1269 0.949 . S
H1294 C1271 0.950 . S
H1295 C1273 0.950 . S
C1296 C1297 1.349 . S
C1296 C1298 1.327 . S
C1296 H1321 0.950 . S
C1297 C1296 1.349 . S
C1297 C1313 1.349 . S
C1298 C1296 1.327 . S
C1298 C1317 1.429 . S
C1298 H1322 0.950 . S
C1299 C1316 1.574 . S
C1299 C1318 1.368 . S
C1299 H1323 0.949 . S
H1300 C1304 0.949 . S
C1301 C1302 1.349 . S
C1301 C1303 1.327 . S
C1301 H1324 0.950 . S
C1302 C1301 1.349 . S
C1302 C1314 1.349 . S
C1303 C1301 1.327 . S
C1303 C1319 1.429 . S
C1303 H1325 0.950 . S
C1304 H1300 0.949 . S
C1304 C1312 1.574 . S
C1304 C1320 1.368 . S
H1305 C1313 0.950 . S
H1306 C1311 0.950 . S
H1307 C1312 0.949 . S
H1308 C1314 0.950 . S
H1309 C1315 0.950 . S
H1310 C1316 0.949 . S
C1311 H1306 0.950 . S
C1311 C1313 1.327 . S
C1311 C1317 1.429 . S
C1312 C1304 1.574 . S
C1312 H1307 0.949 . S
C1312 C1318 1.368 . S
C1313 C1297 1.349 . S
C1313 H1305 0.950 . S
C1313 C1311 1.327 . S
C1314 C1302 1.349 . S
C1314 H1308 0.950 . S
C1314 C1315 1.327 . S
C1315 H1309 0.950 . S
C1315 C1314 1.327 . S
C1315 C1319 1.429 . S
C1316 C1299 1.574 . S
C1316 H1310 0.949 . S
C1316 C1320 1.368 . S
C1317 C1298 1.429 . S
C1317 C1311 1.429 . S
C1317 C1318 1.523 . S
C1318 C1299 1.368 . S
C1318 C1312 1.368 . S
C1318 C1317 1.523 . S
C1319 C1303 1.429 . S
C1319 C1315 1.429 . S
C1319 C1320 1.523 . S
C1320 C1304 1.368 . S
C1320 C1316 1.368 . S
C1320 C1319 1.523 . S
H1321 C1296 0.950 . S
H1322 C1298 0.950 . S
H1323 C1299 0.949 . S
H1324 C1301 0.950 . S
H1325 C1303 0.950 . S
C1326 C1327 1.349 . S
C1326 C1328 1.327 . S
C1326 H1351 0.950 . S
C1327 C1326 1.349 . S
C1327 C1343 1.349 . S
C1328 C1326 1.327 . S
C1328 C1347 1.429 . S
C1328 H1352 0.950 . S
C1329 C1346 1.574 . S
C1329 C1348 1.368 . S
C1329 H1353 0.949 . S
H1330 C1334 0.949 . S
C1331 C1332 1.349 . S
C1331 C1333 1.327 . S
C1331 H1354 0.950 . S
C1332 C1331 1.349 . S
C1332 C1344 1.349 . S
C1333 C1331 1.327 . S
C1333 C1349 1.429 . S
C1333 H1355 0.950 . S
C1334 H1330 0.949 . S
C1334 C1342 1.574 . S
C1334 C1350 1.368 . S
H1335 C1343 0.950 . S
H1336 C1341 0.950 . S
H1337 C1342 0.949 . S
H1338 C1344 0.950 . S
H1339 C1345 0.950 . S
H1340 C1346 0.949 . S
C1341 H1336 0.950 . S
C1341 C1343 1.327 . S
C1341 C1347 1.429 . S
C1342 C1334 1.574 . S
C1342 H1337 0.949 . S
C1342 C1348 1.368 . S
C1343 C1327 1.349 . S
C1343 H1335 0.950 . S
C1343 C1341 1.327 . S
C1344 C1332 1.349 . S
C1344 H1338 0.950 . S
C1344 C1345 1.327 . S
C1345 H1339 0.950 . S
C1345 C1344 1.327 . S
C1345 C1349 1.429 . S
C1346 C1329 1.574 . S
C1346 H1340 0.949 . S
C1346 C1350 1.368 . S
C1347 C1328 1.429 . S
C1347 C1341 1.429 . S
C1347 C1348 1.523 . S
C1348 C1329 1.368 . S
C1348 C1342 1.368 . S
C1348 C1347 1.523 . S
C1349 C1333 1.429 . S
C1349 C1345 1.429 . S
C1349 C1350 1.523 . S
C1350 C1334 1.368 . S
C1350 C1346 1.368 . S
C1350 C1349 1.523 . S
H1351 C1326 0.950 . S
H1352 C1328 0.950 . S
H1353 C1329 0.949 . S
H1354 C1331 0.950 . S
H1355 C1333 0.950 . S
C1356 C1357 1.349 . S
C1356 C1358 1.327 . S
C1356 H1381 0.950 . S
C1357 C1356 1.349 . S
C1357 C1373 1.349 . S
C1358 C1356 1.327 . S
C1358 C1377 1.429 . S
C1358 H1382 0.950 . S
C1359 C1376 1.574 . S
C1359 C1378 1.368 . S
C1359 H1383 0.949 . S
H1360 C1364 0.949 . S
C1361 C1362 1.349 . S
C1361 C1363 1.327 . S
C1361 H1384 0.950 . S
C1362 C1361 1.349 . S
C1362 C1374 1.349 . S
C1363 C1361 1.327 . S
C1363 C1379 1.429 . S
C1363 H1385 0.950 . S
C1364 H1360 0.949 . S
C1364 C1372 1.574 . S
C1364 C1380 1.368 . S
H1365 C1373 0.950 . S
H1366 C1371 0.950 . S
H1367 C1372 0.949 . S
H1368 C1374 0.950 . S
H1369 C1375 0.950 . S
H1370 C1376 0.949 . S
C1371 H1366 0.950 . S
C1371 C1373 1.327 . S
C1371 C1377 1.429 . S
C1372 C1364 1.574 . S
C1372 H1367 0.949 . S
C1372 C1378 1.368 . S
C1373 C1357 1.349 . S
C1373 H1365 0.950 . S
C1373 C1371 1.327 . S
C1374 C1362 1.349 . S
C1374 H1368 0.950 . S
C1374 C1375 1.327 . S
C1375 H1369 0.950 . S
C1375 C1374 1.327 . S
C1375 C1379 1.429 . S
C1376 C1359 1.574 . S
C1376 H1370 0.949 . S
C1376 C1380 1.368 . S
C1377 C1358 1.429 . S
C1377 C1371 1.429 . S
C1377 C1378 1.523 . S
C1378 C1359 1.368 . S
C1378 C1372 1.368 . S
C1378 C1377 1.523 . S
C1379 C1363 1.429 . S
C1379 C1375 1.429 . S
C1379 C1380 1.523 . S
C1380 C1364 1.368 . S
C1380 C1376 1.368 . S
C1380 C1379 1.523 . S
H1381 C1356 0.950 . S
H1382 C1358 0.950 . S
H1383 C1359 0.949 . S
H1384 C1361 0.950 . S
H1385 C1363 0.950 . S
C1386 C1387 1.349 . S
C1386 C1388 1.327 . S
C1386 H1411 0.950 . S
C1387 C1386 1.349 . S
C1387 C1403 1.349 . S
C1388 C1386 1.327 . S
C1388 C1407 1.429 . S
C1388 H1412 0.950 . S
C1389 C1406 1.574 . S
C1389 C1408 1.368 . S
C1389 H1413 0.949 . S
H1390 C1394 0.949 . S
C1391 C1392 1.349 . S
C1391 C1393 1.327 . S
C1391 H1414 0.950 . S
C1392 C1391 1.349 . S
C1392 C1404 1.349 . S
C1393 C1391 1.327 . S
C1393 C1409 1.429 . S
C1393 H1415 0.950 . S
C1394 H1390 0.949 . S
C1394 C1402 1.574 . S
C1394 C1410 1.368 . S
H1395 C1403 0.950 1_565 S
H1396 C1401 0.950 . S
H1397 C1402 0.949 . S
H1398 C1404 0.950 . S
H1399 C1405 0.950 . S
H1400 C1406 0.949 . S
C1401 H1396 0.950 . S
C1401 C1403 1.327 . S
C1401 C1407 1.429 . S
C1402 C1394 1.574 . S
C1402 H1397 0.949 . S
C1402 C1408 1.368 . S
C1403 C1387 1.349 . S
C1403 H1395 0.950 1_545 S
C1403 C1401 1.327 . S
C1404 C1392 1.349 . S
C1404 H1398 0.950 . S
C1404 C1405 1.327 . S
C1405 H1399 0.950 . S
C1405 C1404 1.327 . S
C1405 C1409 1.429 . S
C1406 C1389 1.574 . S
C1406 H1400 0.949 . S
C1406 C1410 1.368 . S
C1407 C1388 1.429 . S
C1407 C1401 1.429 . S
C1407 C1408 1.523 . S
C1408 C1389 1.368 . S
C1408 C1402 1.368 . S
C1408 C1407 1.523 . S
C1409 C1393 1.429 . S
C1409 C1405 1.429 . S
C1409 C1410 1.523 . S
C1410 C1394 1.368 . S
C1410 C1406 1.368 . S
C1410 C1409 1.523 . S
H1411 C1386 0.950 . S
H1412 C1388 0.950 . S
H1413 C1389 0.949 . S
H1414 C1391 0.950 . S
H1415 C1393 0.950 . S
C1416 C1417 1.349 . S
C1416 C1418 1.327 . S
C1416 H1441 0.950 1_655 S
C1417 C1416 1.349 . S
C1417 C1433 1.349 . S
C1418 C1416 1.327 . S
C1418 C1437 1.429 . S
C1418 H1442 0.950 . S
C1419 C1436 1.574 . S
C1419 C1438 1.368 . S
C1419 H1443 0.949 . S
H1420 C1424 0.949 . S
C1421 C1422 1.349 . S
C1421 C1423 1.327 . S
C1421 H1444 0.950 . S
C1422 C1421 1.349 . S
C1422 C1434 1.349 . S
C1423 C1421 1.327 . S
C1423 C1439 1.429 . S
C1423 H1445 0.950 . S
C1424 H1420 0.949 . S
C1424 C1432 1.574 . S
C1424 C1440 1.368 . S
H1425 C1433 0.950 . S
H1426 C1431 0.950 . S
H1427 C1432 0.949 . S
H1428 C1434 0.950 . S
H1429 C1435 0.950 . S
H1430 C1436 0.949 . S
C1431 H1426 0.950 . S
C1431 C1433 1.327 . S
C1431 C1437 1.429 . S
C1432 C1424 1.574 . S
C1432 H1427 0.949 . S
C1432 C1438 1.368 . S
C1433 C1417 1.349 . S
C1433 H1425 0.950 . S
C1433 C1431 1.327 . S
C1434 C1422 1.349 . S
C1434 H1428 0.950 . S
C1434 C1435 1.327 . S
C1435 H1429 0.950 . S
C1435 C1434 1.327 . S
C1435 C1439 1.429 . S
C1436 C1419 1.574 . S
C1436 H1430 0.949 . S
C1436 C1440 1.368 . S
C1437 C1418 1.429 . S
C1437 C1431 1.429 . S
C1437 C1438 1.523 . S
C1438 C1419 1.368 . S
C1438 C1432 1.368 . S
C1438 C1437 1.523 . S
C1439 C1423 1.429 . S
C1439 C1435 1.429 . S
C1439 C1440 1.523 . S
C1440 C1424 1.368 . S
C1440 C1436 1.368 . S
C1440 C1439 1.523 . S
H1441 C1416 0.950 1_455 S
H1442 C1418 0.950 . S
H1443 C1419 0.949 . S
H1444 C1421 0.950 . S
H1445 C1423 0.950 . S
C1446 C1447 1.349 . S
C1446 C1448 1.327 . S
C1446 H1471 0.950 . S
C1447 C1446 1.349 . S
C1447 C1463 1.349 . S
C1448 C1446 1.327 . S
C1448 C1467 1.429 . S
C1448 H1472 0.950 . S
C1449 C1466 1.574 . S
C1449 C1468 1.368 . S
C1449 H1473 0.949 . S
H1450 C1454 0.949 . S
C1451 C1452 1.349 . S
C1451 C1453 1.327 . S
C1451 H1474 0.950 . S
C1452 C1451 1.349 . S
C1452 C1464 1.349 . S
C1453 C1451 1.327 . S
C1453 C1469 1.429 . S
C1453 H1475 0.950 . S
C1454 H1450 0.949 . S
C1454 C1462 1.574 . S
C1454 C1470 1.368 . S
H1455 C1463 0.950 . S
H1456 C1461 0.950 . S
H1457 C1462 0.949 . S
H1458 C1464 0.950 . S
H1459 C1465 0.950 . S
H1460 C1466 0.949 . S
C1461 H1456 0.950 . S
C1461 C1463 1.327 . S
C1461 C1467 1.429 . S
C1462 C1454 1.574 . S
C1462 H1457 0.949 . S
C1462 C1468 1.368 . S
C1463 C1447 1.349 . S
C1463 H1455 0.950 . S
C1463 C1461 1.327 . S
C1464 C1452 1.349 . S
C1464 H1458 0.950 . S
C1464 C1465 1.327 . S
C1465 H1459 0.950 . S
C1465 C1464 1.327 . S
C1465 C1469 1.429 . S
C1466 C1449 1.574 . S
C1466 H1460 0.949 . S
C1466 C1470 1.368 . S
C1467 C1448 1.429 . S
C1467 C1461 1.429 . S
C1467 C1468 1.523 . S
C1468 C1449 1.368 . S
C1468 C1462 1.368 . S
C1468 C1467 1.523 . S
C1469 C1453 1.429 . S
C1469 C1465 1.429 . S
C1469 C1470 1.523 . S
C1470 C1454 1.368 . S
C1470 C1466 1.368 . S
C1470 C1469 1.523 . S
H1471 C1446 0.950 . S
H1472 C1448 0.950 . S
H1473 C1449 0.949 . S
H1474 C1451 0.950 . S
H1475 C1453 0.950 . S
C1476 C1477 1.349 . S
C1476 C1478 1.327 . S
C1476 H1501 0.950 . S
C1477 C1476 1.349 . S
C1477 C1493 1.349 . S
C1478 C1476 1.327 . S
C1478 C1497 1.429 . S
C1478 H1502 0.950 . S
C1479 C1496 1.574 . S
C1479 C1498 1.368 . S
C1479 H1503 0.949 . S
H1480 C1484 0.949 . S
C1481 C1482 1.349 . S
C1481 C1483 1.327 . S
C1481 H1504 0.950 . S
C1482 C1481 1.349 . S
C1482 C1494 1.349 . S
C1483 C1481 1.327 . S
C1483 C1499 1.429 . S
C1483 H1505 0.950 . S
C1484 H1480 0.949 . S
C1484 C1492 1.574 . S
C1484 C1500 1.368 . S
H1485 C1493 0.950 . S
H1486 C1491 0.950 . S
H1487 C1492 0.949 . S
H1488 C1494 0.950 . S
H1489 C1495 0.950 . S
H1490 C1496 0.949 . S
C1491 H1486 0.950 . S
C1491 C1493 1.327 . S
C1491 C1497 1.429 . S
C1492 C1484 1.574 . S
C1492 H1487 0.949 . S
C1492 C1498 1.368 . S
C1493 C1477 1.349 . S
C1493 H1485 0.950 . S
C1493 C1491 1.327 . S
C1494 C1482 1.349 . S
C1494 H1488 0.950 . S
C1494 C1495 1.327 . S
C1495 H1489 0.950 . S
C1495 C1494 1.327 . S
C1495 C1499 1.429 . S
C1496 C1479 1.574 . S
C1496 H1490 0.949 . S
C1496 C1500 1.368 . S
C1497 C1478 1.429 . S
C1497 C1491 1.429 . S
C1497 C1498 1.523 . S
C1498 C1479 1.368 . S
C1498 C1492 1.368 . S
C1498 C1497 1.523 . S
C1499 C1483 1.429 . S
C1499 C1495 1.429 . S
C1499 C1500 1.523 . S
C1500 C1484 1.368 . S
C1500 C1496 1.368 . S
C1500 C1499 1.523 . S
H1501 C1476 0.950 . S
H1502 C1478 0.950 . S
H1503 C1479 0.949 . S
H1504 C1481 0.950 . S
H1505 C1483 0.950 . S
C1506 C1507 1.349 . S
C1506 C1508 1.327 . S
C1506 H1531 0.950 . S
C1507 C1506 1.349 . S
C1507 C1523 1.349 . S
C1508 C1506 1.327 . S
C1508 C1527 1.429 . S
C1508 H1532 0.950 . S
C1509 C1526 1.574 . S
C1509 C1528 1.368 . S
C1509 H1533 0.949 . S
H1510 C1514 0.949 . S
C1511 C1512 1.349 . S
C1511 C1513 1.327 . S
C1511 H1534 0.950 . S
C1512 C1511 1.349 . S
C1512 C1524 1.349 . S
C1513 C1511 1.327 . S
C1513 C1529 1.429 . S
C1513 H1535 0.950 . S
C1514 H1510 0.949 . S
C1514 C1522 1.574 . S
C1514 C1530 1.368 . S
H1515 C1523 0.950 . S
H1516 C1521 0.950 . S
H1517 C1522 0.949 1_565 S
H1518 C1524 0.950 . S
H1519 C1525 0.950 . S
H1520 C1526 0.949 . S
C1521 H1516 0.950 . S
C1521 C1523 1.327 . S
C1521 C1527 1.429 . S
C1522 C1514 1.574 . S
C1522 H1517 0.949 1_545 S
C1522 C1528 1.368 . S
C1523 C1507 1.349 . S
C1523 H1515 0.950 . S
C1523 C1521 1.327 . S
C1524 C1512 1.349 . S
C1524 H1518 0.950 . S
C1524 C1525 1.327 . S
C1525 H1519 0.950 . S
C1525 C1524 1.327 . S
C1525 C1529 1.429 . S
C1526 C1509 1.574 . S
C1526 H1520 0.949 . S
C1526 C1530 1.368 . S
C1527 C1508 1.429 . S
C1527 C1521 1.429 . S
C1527 C1528 1.523 1_565 S
C1528 C1509 1.368 . S
C1528 C1522 1.368 . S
C1528 C1527 1.523 1_545 S
C1529 C1513 1.429 . S
C1529 C1525 1.429 . S
C1529 C1530 1.523 . S
C1530 C1514 1.368 . S
C1530 C1526 1.368 . S
C1530 C1529 1.523 . S
H1531 C1506 0.950 . S
H1532 C1508 0.950 . S
H1533 C1509 0.949 . S
H1534 C1511 0.950 . S
H1535 C1513 0.950 . S
C1536 C1537 1.349 . S
C1536 C1538 1.327 . S
C1536 H1561 0.950 . S
C1537 C1536 1.349 . S
C1537 C1553 1.349 . S
C1538 C1536 1.327 . S
C1538 C1557 1.429 . S
C1538 H1562 0.950 . S
C1539 C1556 1.574 . S
C1539 C1558 1.368 . S
C1539 H1563 0.949 . S
H1540 C1544 0.949 . S
C1541 C1542 1.349 . S
C1541 C1543 1.327 . S
C1541 H1564 0.950 . S
C1542 C1541 1.349 . S
C1542 C1554 1.349 . S
C1543 C1541 1.327 . S
C1543 C1559 1.429 . S
C1543 H1565 0.914 1_455 S
C1544 H1540 0.949 . S
C1544 C1552 1.577 . S
C1544 C1560 1.368 . S
H1545 C1553 0.950 . S
H1546 C1551 0.950 . S
H1547 C1552 0.951 . S
H1548 C1554 0.950 . S
H1549 C1555 0.950 . S
H1550 C1556 0.949 . S
C1551 H1546 0.950 . S
C1551 C1553 1.327 . S
C1551 C1557 1.429 . S
C1552 C1544 1.577 . S
C1552 H1547 0.951 . S
C1552 C1558 1.363 1_455 S
C1553 C1537 1.349 . S
C1553 H1545 0.950 . S
C1553 C1551 1.327 . S
C1554 C1542 1.349 . S
C1554 H1548 0.950 . S
C1554 C1555 1.327 . S
C1555 H1549 0.950 . S
C1555 C1554 1.327 . S
C1555 C1559 1.429 . S
C1556 C1539 1.574 . S
C1556 H1550 0.949 . S
C1556 C1560 1.368 1_655 S
C1557 C1538 1.429 . S
C1557 C1551 1.429 . S
C1557 C1558 1.523 . S
C1558 C1539 1.368 . S
C1558 C1552 1.363 1_655 S
C1558 C1557 1.523 . S
C1559 C1543 1.429 . S
C1559 C1555 1.429 . S
C1559 C1560 1.523 . S
C1560 C1544 1.368 . S
C1560 C1556 1.368 1_455 S
C1560 C1559 1.523 . S
H1561 C1536 0.950 . S
H1562 C1538 0.950 . S
H1563 C1539 0.949 . S
H1564 C1541 0.950 . S
H1565 C1543 0.914 1_655 S
C757 C151 1.087 . S
C762 C58 0.969 . S
C787 C235 1.087 . S
C792 C142 0.969 . S
C817 C226 0.969 . S
C822 C67 1.087 . S
C847 C224 1.421 . S
C852 C153 1.227 . S
C877 C237 1.227 . S
C882 C56 1.421 . S
C907 C69 1.227 . S
C912 C140 1.421 . S
C937 C310 0.968 . S
C942 C403 1.087 . S
C967 C487 1.087 . S
C972 C394 0.968 . S
C997 C478 0.969 . S
C1002 C319 1.087 . S
C1027 C405 1.227 . S
C1032 C476 1.421 . S
C1057 C489 1.227 . S
C1062 C308 1.421 . S
C1087 C392 1.421 . S
C1092 C321 1.227 . S
C1117 C655 1.087 . S
C1122 C562 0.969 . S
C1147 C646 0.969 . S
C1152 C739 1.087 . S
C1177 C730 0.969 . S
C1182 C571 1.087 . S
C1207 C728 1.421 . S
C1212 C657 1.227 . S
C1237 C741 1.227 . S
C1242 C560 1.421 . S
C1267 C573 1.227 . S
C1272 C644 1.421 . S
C1297 C494 2.457 . S
C1302 C63 2.583 . S
C1327 C326 2.457 . S
C1332 C147 2.582 . S
C1357 C231 2.583 . S
C1362 C410 2.458 . S
C1387 C242 2.457 . S
C1392 C567 2.582 . S
C1417 C74 2.457 . S
C1422 C651 2.582 . S
C1447 C735 2.583 . S
C1452 C158 2.458 . S
C1477 C315 2.582 . S
C1482 C746 2.457 . S
C1507 C399 2.582 . S
C1512 C578 2.457 . S
C1537 C662 2.458 . S
C1542 C483 2.583 . S
