# Generated by pormake.
# Topology uof, (4)-cn, num edge types: 1
# Building blocks:
#     Node 0, Type 0, BuildingBlock: AZAVOO_clean_sbu_0, # of connection points: 4
#     Node 1, Type 0, BuildingBlock: AZAVOO_clean_sbu_0, # of connection points: 4
#     Node 2, Type 0, BuildingBlock: AZAVOO_clean_sbu_0, # of connection points: 4
#     Node 3, Type 0, BuildingBlock: AZAVOO_clean_sbu_0, # of connection points: 4
#     Node 4, Type 0, BuildingBlock: AZAVOO_clean_sbu_0, # of connection points: 4
#     Node 5, Type 0, BuildingBlock: AZAVOO_clean_sbu_0, # of connection points: 4
#     Node 6, Type 0, BuildingBlock: AZAVOO_clean_sbu_0, # of connection points: 4
#     Node 7, Type 0, BuildingBlock: AZAVOO_clean_sbu_0, # of connection points: 4
#     Node 8, Type 0, BuildingBlock: AZAVOO_clean_sbu_0, # of connection points: 4
#     Node 9, Type 0, BuildingBlock: AZAVOO_clean_sbu_0, # of connection points: 4
#     Node 10, Type 0, BuildingBlock: AZAVOO_clean_sbu_0, # of connection points: 4
#     Node 11, Type 0, BuildingBlock: AZAVOO_clean_sbu_0, # of connection points: 4
#     Edge 12, Type (0, 0), BuildingBlock: XUDNAN_clean_linker_2, # of connection points: 2
#     Edge 13, Type (0, 0), BuildingBlock: XUDNAN_clean_linker_2, # of connection points: 2
#     Edge 14, Type (0, 0), BuildingBlock: XUDNAN_clean_linker_2, # of connection points: 2
#     Edge 15, Type (0, 0), BuildingBlock: XUDNAN_clean_linker_2, # of connection points: 2
#     Edge 16, Type (0, 0), BuildingBlock: XUDNAN_clean_linker_2, # of connection points: 2
#     Edge 17, Type (0, 0), BuildingBlock: XUDNAN_clean_linker_2, # of connection points: 2
#     Edge 18, Type (0, 0), BuildingBlock: XUDNAN_clean_linker_2, # of connection points: 2
#     Edge 19, Type (0, 0), BuildingBlock: XUDNAN_clean_linker_2, # of connection points: 2
#     Edge 20, Type (0, 0), BuildingBlock: XUDNAN_clean_linker_2, # of connection points: 2
#     Edge 21, Type (0, 0), BuildingBlock: XUDNAN_clean_linker_2, # of connection points: 2
#     Edge 22, Type (0, 0), BuildingBlock: XUDNAN_clean_linker_2, # of connection points: 2
#     Edge 23, Type (0, 0), BuildingBlock: XUDNAN_clean_linker_2, # of connection points: 2
#     Edge 24, Type (0, 0), BuildingBlock: XUDNAN_clean_linker_2, # of connection points: 2
#     Edge 25, Type (0, 0), BuildingBlock: XUDNAN_clean_linker_2, # of connection points: 2
#     Edge 26, Type (0, 0), BuildingBlock: XUDNAN_clean_linker_2, # of connection points: 2
#     Edge 27, Type (0, 0), BuildingBlock: XUDNAN_clean_linker_2, # of connection points: 2
#     Edge 28, Type (0, 0), BuildingBlock: XUDNAN_clean_linker_2, # of connection points: 2
#     Edge 29, Type (0, 0), BuildingBlock: XUDNAN_clean_linker_2, # of connection points: 2
#     Edge 30, Type (0, 0), BuildingBlock: XUDNAN_clean_linker_2, # of connection points: 2
#     Edge 31, Type (0, 0), BuildingBlock: XUDNAN_clean_linker_2, # of connection points: 2
#     Edge 32, Type (0, 0), BuildingBlock: XUDNAN_clean_linker_2, # of connection points: 2
#     Edge 33, Type (0, 0), BuildingBlock: XUDNAN_clean_linker_2, # of connection points: 2
#     Edge 34, Type (0, 0), BuildingBlock: XUDNAN_clean_linker_2, # of connection points: 2
#     Edge 35, Type (0, 0), BuildingBlock: XUDNAN_clean_linker_2, # of connection points: 2
# Relax obj value: 0.245
# Max RMSD: 0.197
# Mean RMSD: 0.197
data_MOF--net-uof--node1-AZAVOO_clean_sbu_0--edge1-XUDNAN_clean_linker_2
_symmetry_space_group_name_H-M    P1
_symmetry_Int_Tables_number       1
_symmetry_cell_setting            triclinic
loop_
_symmetry_equiv_pos_as_xyz
'x, y, z'
_cell_length_a     32.395786
_cell_length_b     32.42652
_cell_length_c     62.785313
_cell_angle_alpha  89.839494
_cell_angle_beta   89.975241
_cell_angle_gamma 119.64993
loop_
_atom_site_label
_atom_site_type_symbol
_atom_site_fract_x
_atom_site_fract_y
_atom_site_fract_z
_atom_type_partial_charge
Mg0 Mg 0.21917 0.2829 0.24118 0.0
O1 O 0.23065 0.23197 0.22057 0.0
O2 O 0.30488 0.24533 0.22391 0.0
Mg3 Mg 0.33994 0.30234 0.24946 0.0
C4 C 0.26349 0.22287 0.21573 0.0
C5 C 0.12552 0.25671 0.21765 0.0
O6 O 0.15538 0.29708 0.20845 0.0
O7 O 0.20993 0.23556 0.27032 0.0
O8 O 0.28512 0.25113 0.2731 0.0
O9 O 0.2538 0.33954 0.21555 0.0
O10 O 0.29178 0.32957 0.24242 0.0
C11 C 0.24197 0.22956 0.27942 0.0
C12 C 0.29338 0.35161 0.22522 0.0
O13 O 0.1404 0.24098 0.23261 0.0
Mg14 Mg 0.92198 0.26891 0.53007 0.0
O15 O -0.00978 0.29512 0.51015 0.0
O16 O 0.03865 0.37145 0.5186 0.0
Mg17 Mg 0.00414 0.3932 0.54445 0.0
C18 C 0.02905 0.33437 0.5079 0.0
C19 C 0.87437 0.17277 0.50405 0.0
O20 O 0.86837 0.19923 0.48989 0.0
O21 O 0.96203 0.2633 0.55906 0.0
O22 O 0.00943 0.33998 0.56664 0.0
O23 O 0.89121 0.29739 0.50542 0.0
O24 O 0.9358 0.33799 0.53266 0.0
C25 C -0.00579 0.29606 0.57044 0.0
C26 C 0.91429 0.33727 0.51541 0.0
O27 O 0.8961 0.19157 0.52129 0.0
Mg28 Mg 0.66654 0.93875 0.89213 0.0
O29 O 0.72181 -0.00772 0.86926 0.0
O30 O 0.72708 0.063 0.87455 0.0
Mg31 Mg 0.67059 0.05321 0.89887 0.0
C32 C 0.74008 0.03641 0.86521 0.0
C33 C 0.69884 0.8777 0.86694 0.0
O34 O 0.67982 0.89078 0.85175 0.0
O35 O 0.71622 0.97311 0.92068 0.0
O36 O 0.71257 0.03969 0.92454 0.0
O37 O 0.61104 0.92083 0.86694 0.0
O38 O 0.63097 0.9773 0.89098 0.0
C39 C 0.72727 0.01157 0.93061 0.0
C40 C 0.60779 0.95652 0.87405 0.0
O41 O 0.69766 0.89035 0.88599 0.0
Mg42 Mg 0.7158 0.63218 0.21195 0.0
O43 O 0.6921 0.67834 0.19397 0.0
O44 O 0.6276 0.67235 0.21007 0.0
Mg45 Mg 0.60972 0.62191 0.23821 0.0
C46 C 0.65913 0.68887 0.19546 0.0
C47 C 0.78708 0.6678 0.17382 0.0
O48 O 0.74666 0.64625 0.16343 0.0
O49 O 0.7463 0.6871 0.23898 0.0
O50 O 0.67887 0.67732 0.25345 0.0
O51 O 0.66511 0.57024 0.19169 0.0
O52 O 0.64713 0.5893 0.22271 0.0
C53 C 0.72414 0.69794 0.25273 0.0
C54 C 0.6335 0.56308 0.20604 0.0
O55 O 0.78635 0.66833 0.19405 0.0
Mg56 Mg 0.0497 0.73493 0.55822 0.0
O57 O 0.97901 0.72859 0.54804 0.0
O58 O 0.9184 0.65727 0.55684 0.0
Mg59 Mg 0.95039 0.61964 0.57539 0.0
C60 C 0.9348 0.69817 0.5483 0.0
C61 C 0.07548 0.83031 0.53495 0.0
O62 O 0.03977 0.80064 0.52308 0.0
O63 O 0.03405 0.74912 0.59201 0.0
O64 O 0.97234 0.67807 0.60051 0.0
O65 O 0.05212 0.69993 0.52787 0.0
O66 O 0.01667 0.66118 0.55744 0.0
C67 C 0.00137 0.72145 0.60481 0.0
C68 C 0.02522 0.66011 0.53748 0.0
O69 O 0.08883 0.81442 0.55046 0.0
Mg70 Mg 0.31785 0.06819 0.86498 0.0
O71 O 0.2733 -0.0112 0.85615 0.0
O72 O 0.30667 0.95078 0.87233 0.0
Mg73 Mg 0.36837 0.00324 0.89248 0.0
C74 C 0.27518 0.95103 0.86022 0.0
C75 C 0.27296 0.11768 0.83873 0.0
O76 O 0.31682 0.14101 0.83158 0.0
O77 O 0.28127 0.05066 0.8974 0.0
O78 O 0.31261 0.00967 0.91239 0.0
O79 O 0.36833 0.08036 0.83787 0.0
O80 O 0.37534 0.05863 0.87049 0.0
C81 C 0.28438 0.02653 0.91277 0.0
C82 C 0.3897 0.06648 0.85106 0.0
O83 O 0.26164 0.08403 0.85197 0.0
Mg84 Mg 0.63964 0.75502 0.43124 0.0
O85 O 0.69223 0.7418 0.44994 0.0
O86 O 0.68381 0.67075 0.44251 0.0
Mg87 Mg 0.63163 0.64246 0.41499 0.0
C88 C 0.70314 0.70951 0.45293 0.0
C89 C 0.68741 0.83658 0.46372 0.0
O90 O 0.67149 0.79867 0.47587 0.0
O91 O 0.68897 0.77602 0.40221 0.0
O92 O 0.68399 0.70614 0.39492 0.0
O93 O 0.58408 0.71252 0.45581 0.0
O94 O 0.59688 0.68164 0.42697 0.0
C95 C 0.70142 0.75051 0.3915 0.0
C96 C 0.57554 0.67518 0.445 0.0
O97 O 0.67837 0.83131 0.44387 0.0
Mg98 Mg 0.88251 0.63219 0.79553 0.0
O99 O 0.96051 0.67181 0.80603 0.0
O100 O -0.00109 0.63782 0.79106 0.0
Mg101 Mg 0.94718 0.58082 0.76853 0.0
C102 C -0.00195 0.66893 0.80317 0.0
C103 C 0.84131 0.69992 0.80419 0.0
O104 O 0.82084 0.6823 0.78581 0.0
O105 O 0.90569 0.67399 0.76412 0.0
O106 O 0.94579 0.64081 0.74998 0.0
O107 O 0.8663 0.57717 0.821 0.0
O108 O 0.88802 0.57302 0.78802 0.0
C109 C 0.93134 0.671 0.74938 0.0
C110 C 0.87806 0.55576 0.80693 0.0
O111 O 0.86994 0.68765 0.81186 0.0
Mg112 Mg 0.21213 0.87781 0.09467 0.0
O113 O 0.22153 0.94189 0.11391 0.0
O114 O 0.29332 0.0037 0.10685 0.0
Mg115 Mg 0.32671 0.98146 0.08076 0.0
C116 C 0.25382 0.9849 0.11684 0.0
C117 C 0.11724 0.83265 0.12221 0.0
O118 O 0.14686 0.85164 0.13819 0.0
O119 O 0.19555 0.90802 0.06505 0.0
O120 O 0.26654 0.97184 0.05861 0.0
O121 O 0.25206 0.86262 0.12018 0.0
O122 O 0.28496 0.90789 0.09194 0.0
C123 C 0.22249 0.94555 0.05446 0.0
C124 C 0.29012 0.89128 0.1097 0.0
O125 O 0.13355 0.83729 0.1034 0.0
Mg126 Mg 0.34648 0.25053 0.46737 0.0
O127 O 0.29894 0.28327 0.46269 0.0
O128 O 0.33115 0.34172 0.4385 0.0
Mg129 Mg 0.39737 0.34188 0.42579 0.0
C130 C 0.29843 0.31636 0.45182 0.0
C131 C 0.29445 0.16032 0.49651 0.0
O132 O 0.33801 0.16784 0.49848 0.0
O133 O 0.31477 0.20939 0.43675 0.0
O134 O 0.34811 0.26761 0.41257 0.0
O135 O 0.38879 0.30763 0.49113 0.0
O136 O 0.40423 0.3137 0.45666 0.0
C137 C 0.32097 0.22416 0.41756 0.0
C138 C 0.41215 0.33382 0.47501 0.0
O139 O 0.28726 0.18936 0.48572 0.0
Mg140 Mg 0.08219 0.34562 0.7643 0.0
O141 O 0.01234 0.27819 0.77087 0.0
O142 O 0.95239 0.27795 0.75307 0.0
Mg143 Mg -0.01555 0.35028 0.73656 0.0
C144 C 0.96881 0.25833 0.76547 0.0
C145 C 0.10532 0.28687 0.79552 0.0
O146 O 0.07064 0.28925 0.80523 0.0
O147 O 0.08322 0.31815 0.73079 0.0
O148 O 0.02505 0.32569 0.71523 0.0
O149 O 0.06871 0.37944 0.79252 0.0
O150 O 0.04279 0.38006 0.75999 0.0
C151 C 0.05782 0.31477 0.71465 0.0
C152 C 0.04256 0.38861 0.78 0.0
O153 O 0.12109 0.30895 0.77798 0.0
Mg154 Mg 0.71753 0.06858 0.12454 0.0
O155 O 0.69056 -0.01082 0.12736 0.0
O156 O 0.63274 0.95015 0.10349 0.0
Mg157 Mg 0.62087 0.00553 0.08617 0.0
C158 C 0.65989 0.95094 0.11839 0.0
C159 C 0.82038 0.12273 0.1425 0.0
O160 O 0.82244 0.15353 0.12829 0.0
O161 O 0.75645 0.07027 0.09356 0.0
O162 O 0.69435 0.03397 0.07147 0.0
O163 O 0.66168 0.05991 0.14818 0.0
O164 O 0.65142 0.05386 0.11332 0.0
C165 C 0.73888 0.05502 0.07514 0.0
C166 C 0.63344 0.04938 0.13203 0.0
O167 O 0.78193 0.08363 0.14466 0.0
H168 H 0.90811 0.20262 0.14137 0.0
H169 H 0.82639 0.06844 0.17466 0.0
H170 H 0.89517 0.0883 0.19794 0.0
H171 H 0.01974 0.20395 0.14237 0.0
H172 H 0.05422 0.26719 0.14625 0.0
H173 H -0.00152 0.24216 0.1323 0.0
H174 H 0.96857 0.28283 0.1588 0.0
H175 H 0.02415 0.30781 0.17289 0.0
H176 H 0.96913 0.27218 0.18698 0.0
H177 H 0.97325 0.12338 0.21778 0.0
H178 H 0.05483 0.17011 0.23195 0.0
H179 H 0.0845 0.28085 0.18547 0.0
C180 C 0.9046 0.17732 0.15353 0.0
C181 C 0.86181 0.13399 0.1562 0.0
C182 C 0.85881 0.10188 0.1723 0.0
C183 C 0.89767 0.11285 0.18563 0.0
C184 C 0.93924 0.15601 0.18263 0.0
C185 C 0.94296 0.18765 0.16693 0.0
C186 C -0.00841 0.23153 0.16689 0.0
C187 C 0.01753 0.23647 0.1457 0.0
C188 C -0.01187 0.27622 0.17168 0.0
C189 C 0.01467 0.21972 0.18506 0.0
C190 C 0.98397 0.17606 0.19397 0.0
C191 C -0.0024 0.15763 0.21093 0.0
C192 C 0.04396 0.18445 0.21889 0.0
C193 C 0.07607 0.22917 0.20985 0.0
C194 C 0.06089 0.24687 0.19278 0.0
H195 H 0.82489 0.12038 0.46916 0.0
H196 H 0.87359 0.10741 0.53197 0.0
H197 H 0.83225 0.02044 0.52802 0.0
H198 H 0.70997 0.01945 0.47278 0.0
H199 H 0.7079 0.00161 0.44546 0.0
H200 H 0.74318 0.06318 0.45261 0.0
H201 H 0.81771 0.06585 0.43601 0.0
H202 H 0.78257 0.00433 0.42866 0.0
H203 H 0.83514 0.0236 0.44464 0.0
H204 H 0.78196 0.93509 0.51837 0.0
H205 H 0.72966 0.85655 0.50273 0.0
H206 H 0.71469 0.92412 0.4457 0.0
C207 C 0.8273 0.09932 0.482 0.0
C208 C 0.8525 0.12084 0.5009 0.0
C209 C 0.85461 0.09188 0.51733 0.0
C210 C 0.83117 0.04239 0.51526 0.0
C211 C 0.80604 0.02233 0.4966 0.0
C212 C 0.80429 0.04981 0.48016 0.0
C213 C 0.77417 0.01912 0.46191 0.0
C214 C 0.73126 0.02627 0.45797 0.0
C215 C 0.8042 0.02881 0.4416 0.0
C216 C 0.75877 0.9701 0.47081 0.0
C217 C 0.77753 0.97286 0.49086 0.0
C218 C 0.76733 0.93245 0.50262 0.0
C219 C 0.73736 0.88797 0.49361 0.0
C220 C 0.71806 0.88414 0.47298 0.0
C221 C 0.72909 0.92588 0.46145 0.0
H222 H 0.70013 0.83808 0.82864 0.0
H223 H 0.75465 0.85814 0.8932 0.0
H224 H 0.79942 0.81734 0.88377 0.0
H225 H 0.68458 0.72131 0.82152 0.0
H226 H 0.70198 0.73091 0.79388 0.0
H227 H 0.67492 0.76228 0.80572 0.0
H228 H 0.74709 0.84227 0.79406 0.0
H229 H 0.77455 0.81116 0.78232 0.0
H230 H 0.80602 0.85621 0.80207 0.0
H231 H 0.83925 0.77553 0.8671 0.0
H232 H 0.86675 0.7307 0.84519 0.0
H233 H 0.78467 0.73654 0.79177 0.0
C234 C 0.72142 0.83387 0.84083 0.0
C235 C 0.72396 0.85138 0.86166 0.0
C236 C 0.75207 0.84492 0.87715 0.0
C237 C 0.77778 0.82198 0.87193 0.0
C238 C 0.77481 0.80554 0.85119 0.0
C239 C 0.74703 0.81083 0.83594 0.0
C240 C 0.7491 0.78903 0.81494 0.0
C241 C 0.69971 0.74847 0.80866 0.0
C242 C 0.77047 0.82693 0.79731 0.0
C243 C 0.78229 0.77048 0.82078 0.0
C244 C 0.79705 0.78073 0.8417 0.0
C245 C 0.82785 0.76721 0.85071 0.0
C246 C 0.84338 0.74186 0.83811 0.0
C247 C 0.82779 0.72998 0.81677 0.0
C248 C 0.7972 0.74499 0.80802 0.0
H249 H 0.87719 0.71705 0.19046 0.0
H250 H 0.80046 0.67039 0.1307 0.0
H251 H 0.87652 0.70772 0.1111 0.0
H252 H 0.96971 0.83049 0.17138 0.0
H253 H 0.01562 0.82887 0.18695 0.0
H254 H 0.95511 0.79862 0.19632 0.0
H255 H 0.95753 0.72009 0.19906 0.0
H256 H 0.01802 0.75007 0.18968 0.0
H257 H 0.97371 0.69822 0.17598 0.0
H258 H 0.96061 0.74915 0.09801 0.0
H259 H 0.04721 0.79278 0.09219 0.0
H260 H 0.06949 0.81305 0.16046 0.0
C261 C 0.87632 0.7147 0.17325 0.0
C262 C 0.83279 0.69071 0.16212 0.0
C263 C 0.8333 0.68853 0.13959 0.0
C264 C 0.87633 0.70962 0.12831 0.0
C265 C 0.91855 0.73284 0.13977 0.0
C266 C 0.91894 0.73562 0.16173 0.0
C267 C 0.96926 0.76266 0.17018 0.0
C268 C 0.97792 0.80784 0.1819 0.0
C269 C 0.98026 0.73085 0.18457 0.0
C270 C -0.0029 0.77452 0.14954 0.0
C271 C 0.96713 0.75696 0.1322 0.0
C272 C -0.01555 0.76313 0.11146 0.0
C273 C 0.03375 0.78795 0.10833 0.0
C274 C 0.06525 0.80638 0.12586 0.0
C275 C 0.04645 0.79949 0.14672 0.0
H276 H 0.2964 0.09041 0.52061 0.0
H277 H 0.20013 0.12815 0.48926 0.0
H278 H 0.13275 0.04939 0.49807 0.0
H279 H 0.24347 0.97378 0.50299 0.0
H280 H 0.25147 0.94902 0.52734 0.0
H281 H 0.29177 0.01007 0.52066 0.0
H282 H 0.27366 0.03681 0.55665 0.0
H283 H 0.23354 0.97571 0.56354 0.0
H284 H 0.21299 0.0182 0.56375 0.0
H285 H 0.07777 0.96386 0.50603 0.0
H286 H 0.03737 0.87873 0.51545 0.0
H287 H 0.16797 0.89704 0.54325 0.0
C288 C 0.26104 0.08248 0.51597 0.0
C289 C 0.25361 0.11548 0.50422 0.0
C290 C 0.20678 0.10357 0.49833 0.0
C291 C 0.16821 0.05887 0.50324 0.0
C292 C 0.17694 0.02672 0.51433 0.0
C293 C 0.22203 0.03814 0.52093 0.0
C294 C 0.22191 -0.00368 0.53184 0.0
C295 C 0.25405 0.98143 0.51999 0.0
C296 C 0.23638 0.00744 0.55534 0.0
C297 C 0.16997 0.95922 0.52973 0.0
C298 C 0.14468 0.97756 0.51959 0.0
C299 C 0.09693 0.94929 0.51436 0.0
C300 C 0.07439 0.90099 0.51965 0.0
C301 C 0.0995 0.88157 0.53023 0.0
C302 C 0.14775 0.91123 0.53552 0.0
H303 H 0.28407 0.1858 0.80959 0.0
H304 H 0.18469 0.0865 0.85589 0.0
H305 H 0.1306 0.11824 0.84932 0.0
H306 H 0.2688 0.28314 0.82283 0.0
H307 H 0.2725 0.30377 0.79583 0.0
H308 H 0.30252 0.27169 0.80321 0.0
H309 H 0.25819 0.21028 0.77344 0.0
H310 H 0.22833 0.24244 0.76583 0.0
H311 H 0.19422 0.18029 0.7725 0.0
H312 H 0.09021 0.16444 0.83978 0.0
H313 H 0.06288 0.21794 0.82579 0.0
H314 H 0.18711 0.28573 0.78479 0.0
C315 C 0.25069 0.17032 0.81817 0.0
C316 C 0.23867 0.13369 0.83329 0.0
C317 C 0.19465 0.11448 0.8442 0.0
C318 C 0.16372 0.13234 0.84061 0.0
C319 C 0.17709 0.16908 0.82593 0.0
C320 C 0.21921 0.18747 0.81467 0.0
C321 C 0.22533 0.22729 0.79998 0.0
C322 C 0.26993 0.27424 0.80582 0.0
C323 C 0.22657 0.21428 0.77655 0.0
C324 C 0.18041 0.22888 0.80499 0.0
C325 C 0.15319 0.19508 0.82006 0.0
C326 C 0.11096 0.19074 0.82783 0.0
C327 C 0.0959 0.22149 0.81986 0.0
C328 C 0.12284 0.25594 0.80416 0.0
C329 C 0.16562 0.25954 0.79666 0.0
H330 H 0.56812 0.52439 0.23722 0.0
H331 H 0.58366 0.52614 0.16859 0.0
H332 H 0.4961 0.47472 0.16509 0.0
H333 H 0.47658 0.40345 0.24186 0.0
H334 H 0.44749 0.41581 0.26338 0.0
H335 H 0.5106 0.45217 0.25969 0.0
H336 H 0.50116 0.52707 0.2579 0.0
H337 H 0.4379 0.49083 0.26128 0.0
H338 H 0.46145 0.52986 0.23858 0.0
H339 H 0.40433 0.42369 0.17005 0.0
H340 H 0.32139 0.37296 0.18305 0.0
H341 H 0.37113 0.40708 0.24811 0.0
C342 C 0.55326 0.51402 0.2214 0.0
C343 C 0.58244 0.52936 0.20317 0.0
C344 C 0.56173 0.5145 0.18278 0.0
C345 C 0.51211 0.48566 0.18066 0.0
C346 C 0.48419 0.47198 0.1991 0.0
C347 C 0.50445 0.4854 0.21906 0.0
C348 C 0.46786 0.46568 0.23658 0.0
C349 C 0.47613 0.43229 0.25123 0.0
C350 C 0.46706 0.50575 0.24932 0.0
C351 C 0.42348 0.4388 0.2235 0.0
C352 C 0.43303 0.44291 0.20189 0.0
C353 C 0.39665 0.42031 0.18694 0.0
C354 C 0.34971 0.39193 0.19441 0.0
C355 C 0.34018 0.38627 0.21654 0.0
C356 C 0.37749 0.41073 0.23108 0.0
H357 H 0.0641 0.60968 0.52113 0.0
H358 H 0.93109 0.60905 0.52854 0.0
H359 H 0.88758 0.5275 0.51445 0.0
H360 H 0.02775 0.52754 0.47244 0.0
H361 H 0.0596 0.49917 0.48253 0.0
H362 H 0.08116 0.56118 0.48777 0.0
H363 H 0.08041 0.54544 0.52836 0.0
H364 H 0.05948 0.48392 0.52312 0.0
H365 H 0.02629 0.5007 0.54069 0.0
H366 H 0.85773 0.44202 0.50689 0.0
H367 H 0.84486 0.36014 0.50879 0.0
H368 H -0.00341 0.41568 0.5055 0.0
C369 C 0.02603 0.59284 0.51889 0.0
C370 C 0.00074 0.61533 0.52568 0.0
C371 C 0.95088 0.59213 0.52337 0.0
C372 C 0.92598 0.54601 0.51516 0.0
C373 C 0.95162 0.52376 0.50925 0.0
C374 C 0.00069 0.54657 0.51087 0.0
C375 C 0.01918 0.51265 0.50675 0.0
C376 C 0.04866 0.52594 0.48614 0.0
C377 C 0.04797 0.51055 0.52587 0.0
C378 C 0.97279 0.46669 0.50413 0.0
C379 C 0.9342 0.47394 0.5049 0.0
C380 C 0.88763 0.43598 0.5056 0.0
C381 C 0.88052 0.38959 0.50656 0.0
C382 C 0.91982 0.38203 0.50707 0.0
C383 C 0.96611 0.42079 0.50482 0.0
H384 H 0.38312 0.98028 0.85214 0.0
H385 H 0.47839 0.12728 0.83597 0.0
H386 H 0.54511 0.11055 0.83349 0.0
H387 H 0.45355 0.96758 0.88655 0.0
H388 H 0.43822 0.90755 0.88006 0.0
H389 H 0.39654 0.92768 0.87502 0.0
H390 H 0.39178 0.90466 0.83532 0.0
H391 H 0.43306 0.88358 0.8402 0.0
H392 H 0.44548 0.92736 0.81975 0.0
H393 H 0.60261 0.08246 0.84143 0.0
H394 H 0.64588 0.04417 0.85638 0.0
H395 H 0.51298 0.91425 0.86645 0.0
C396 C 0.41766 0.0084 0.84729 0.0
C397 C 0.42592 0.05486 0.84409 0.0
C398 C 0.47153 0.09126 0.83806 0.0
C399 C 0.50947 0.082 0.83668 0.0
C400 C 0.50065 0.03603 0.841 0.0
C401 C 0.45553 -0.00046 0.84573 0.0
C402 C 0.45608 0.95487 0.85236 0.0
C403 C 0.43488 0.93853 0.87482 0.0
C404 C 0.43007 0.91528 0.83592 0.0
C405 C 0.50894 0.97274 0.85206 0.0
C406 C 0.53401 0.01943 0.84512 0.0
C407 C 0.58341 0.04553 0.84619 0.0
C408 C 0.60767 0.02368 0.85482 0.0
C409 C 0.58256 0.97625 0.86214 0.0
C410 C 0.53281 0.95011 0.86027 0.0
H411 H 0.55066 0.59133 0.42515 0.0
H412 H 0.53785 0.64904 0.48546 0.0
H413 H 0.49704 0.56784 0.50085 0.0
H414 H 0.44116 0.48327 0.42642 0.0
H415 H 0.46555 0.44923 0.41474 0.0
H416 H 0.49149 0.51145 0.40869 0.0
H417 H 0.57359 0.52527 0.42139 0.0
H418 H 0.54779 0.46309 0.42759 0.0
H419 H 0.57936 0.50687 0.44782 0.0
H420 H 0.45587 0.47814 0.50906 0.0
H421 H 0.41823 0.3904 0.50897 0.0
H422 H 0.46848 0.39614 0.44439 0.0
C423 C 0.53997 0.58732 0.44168 0.0
C424 C 0.54809 0.62676 0.45415 0.0
C425 C 0.53203 0.61935 0.47557 0.0
C426 C 0.50906 0.57339 0.48447 0.0
C427 C 0.50296 0.53546 0.4718 0.0
C428 C 0.51819 0.54221 0.45087 0.0
C429 C 0.50851 0.49628 0.44055 0.0
C430 C 0.47466 0.48438 0.42148 0.0
C431 C 0.55509 0.498 0.43396 0.0
C432 C 0.48482 0.46223 0.45882 0.0
C433 C 0.48155 0.48514 0.47672 0.0
C434 C 0.45865 0.46001 0.49516 0.0
C435 C 0.4376 0.41021 0.495 0.0
C436 C 0.43991 0.38625 0.47658 0.0
C437 C 0.46521 0.41306 0.4586 0.0
H438 H 0.96002 0.56487 0.8222 0.0
H439 H 0.81929 0.46225 0.80074 0.0
H440 H 0.84426 0.40186 0.79753 0.0
H441 H 0.01845 0.54024 0.78629 0.0
H442 H 0.06761 0.54703 0.80232 0.0
H443 H 0.0362 0.57756 0.80953 0.0
H444 H 0.01833 0.53943 0.84697 0.0
H445 H 0.05072 0.50927 0.84022 0.0
H446 H -0.00972 0.47582 0.84957 0.0
H447 H 0.88834 0.36098 0.78781 0.0
H448 H 0.94694 0.33886 0.77558 0.0
H449 H 0.06049 0.46657 0.80351 0.0
C450 C 0.93392 0.52876 0.81815 0.0
C451 C 0.88739 0.5173 0.81242 0.0
C452 C 0.85455 0.47081 0.80591 0.0
C453 C 0.86857 0.43648 0.80394 0.0
C454 C 0.91556 0.44946 0.80857 0.0
C455 C 0.94762 0.49423 0.81599 0.0
C456 C -0.00242 0.5014 0.81666 0.0
C457 C 0.03196 0.54405 0.80286 0.0
C458 C 0.01526 0.50678 0.83973 0.0
C459 C -0.01086 0.45499 0.80716 0.0
C460 C 0.94144 0.42532 0.80291 0.0
C461 C 0.92552 0.3832 0.79166 0.0
C462 C 0.9591 0.37115 0.78454 0.0
C463 C 0.00793 0.40089 0.78874 0.0
C464 C 0.02309 0.44284 0.80055 0.0
H465 H 0.37238 0.93837 0.08771 0.0
H466 H 0.31739 0.88463 0.15085 0.0
H467 H 0.40013 0.92108 0.1645 0.0
H468 H 0.4737 0.92281 0.08951 0.0
H469 H 0.51041 0.97661 0.0748 0.0
H470 H 0.44723 0.94461 0.07054 0.0
H471 H 0.44298 0.02063 0.07922 0.0
H472 H 0.50612 0.05279 0.08365 0.0
H473 H 0.46612 0.05044 0.1042 0.0
H474 H 0.49136 0.96587 0.17067 0.0
H475 H 0.57946 0.0105 0.16833 0.0
H476 H 0.56969 0.03685 0.10127 0.0
C477 C 0.37741 0.93428 0.10447 0.0
C478 C 0.33846 0.90906 0.11828 0.0
C479 C 0.34684 0.90381 0.13999 0.0
C480 C 0.39365 0.92458 0.14787 0.0
C481 C 0.43128 0.95038 0.13378 0.0
C482 C 0.42331 0.95497 0.11251 0.0
C483 C 0.46893 0.98459 0.10043 0.0
C484 C 0.47543 0.9554 0.08279 0.0
C485 C 0.47115 0.02979 0.09135 0.0
C486 C 0.50428 -0.00395 0.11813 0.0
C487 C 0.48233 0.97616 0.13731 0.0
C488 C 0.50873 0.98161 0.15572 0.0
C489 C 0.55868 0.00719 0.15428 0.0
C490 C 0.58138 0.02684 0.13457 0.0
C491 C 0.55353 0.02182 0.11651 0.0
H492 H 0.31999 0.06734 0.13552 0.0
H493 H 0.16827 0.96881 0.13272 0.0
H494 H 0.15414 0.0199 0.15735 0.0
H495 H 0.32325 0.09417 0.19128 0.0
H496 H 0.36806 0.15553 0.18796 0.0
H497 H 0.36593 0.11143 0.16993 0.0
H498 H 0.36053 0.15925 0.13794 0.0
H499 H 0.36241 0.20338 0.15587 0.0
H500 H 0.31395 0.17437 0.13735 0.0
H501 H 0.15658 0.0832 0.18113 0.0
H502 H 0.17556 0.15086 0.2048 0.0
H503 H 0.32604 0.20595 0.19313 0.0
C504 C 0.28375 0.0565 0.14004 0.0
C505 C 0.24518 0.0143 0.13211 0.0
C506 C 0.19835 0.00102 0.13863 0.0
C507 C 0.18997 0.02986 0.15254 0.0
C508 C 0.22883 0.07144 0.1599 0.0
C509 C 0.27481 0.08446 0.15407 0.0
C510 C 0.31044 0.13029 0.16463 0.0
C511 C 0.34388 0.12235 0.17933 0.0
C512 C 0.33847 0.16911 0.14795 0.0
C513 C 0.27727 0.1412 0.17725 0.0
C514 C 0.23034 0.10706 0.17415 0.0
C515 C 0.1932 0.11001 0.18378 0.0
C516 C 0.20436 0.14868 0.19712 0.0
C517 C 0.25231 0.18356 0.20086 0.0
C518 C 0.2891 0.17968 0.19071 0.0
H519 H 0.05105 0.26487 0.50008 0.0
H520 H 0.09171 0.41039 0.48438 0.0
H521 H 0.16101 0.41854 0.46431 0.0
H522 H 0.16382 0.28749 0.51161 0.0
H523 H 0.15734 0.23288 0.50115 0.0
H524 H 0.10604 0.23503 0.51058 0.0
H525 H 0.06486 0.20498 0.47406 0.0
H526 H 0.11596 0.20224 0.46455 0.0
H527 H 0.09481 0.2362 0.45008 0.0
H528 H 0.23003 0.41368 0.44939 0.0
H529 H 0.29529 0.39711 0.44184 0.0
H530 H 0.21155 0.25622 0.4691 0.0
C531 C 0.07366 0.29783 0.49177 0.0
C532 C 0.06591 0.3368 0.49344 0.0
C533 C 0.09707 0.38006 0.48308 0.0
C534 C 0.13633 0.38494 0.4716 0.0
C535 C 0.14397 0.34631 0.4708 0.0
C536 C 0.1135 0.30355 0.4806 0.0
C537 C 0.13278 0.26957 0.47959 0.0
C538 C 0.14046 0.25545 0.50207 0.0
C539 C 0.10016 0.22565 0.46627 0.0
C540 C 0.17948 0.30044 0.46834 0.0
C541 C 0.18484 0.34417 0.46298 0.0
C542 C 0.22604 0.37936 0.45327 0.0
C543 C 0.2629 0.36966 0.44908 0.0
C544 C 0.25852 0.32548 0.45496 0.0
C545 C 0.216 0.29039 0.46448 0.0
H546 H 0.96305 0.24367 0.80771 0.0
H547 H 0.89821 0.17648 0.74797 0.0
H548 H 0.83827 0.10539 0.76769 0.0
H549 H 0.93778 0.1362 0.8388 0.0
H550 H 0.92407 0.15854 0.86244 0.0
H551 H 0.96689 0.1992 0.84355 0.0
H552 H 0.91886 0.24344 0.84032 0.0
H553 H 0.87595 0.20298 0.85909 0.0
H554 H 0.85695 0.21064 0.83312 0.0
H555 H 0.78314 0.04429 0.79419 0.0
H556 H 0.73024 0.00329 0.82487 0.0
H557 H 0.82651 0.11597 0.86671 0.0
C558 C 0.93705 0.21327 0.79882 0.0
C559 C 0.93549 0.21449 0.77645 0.0
C560 C 0.89998 0.17539 0.76517 0.0
C561 C 0.86618 0.135 0.77622 0.0
C562 C 0.86822 0.13509 0.79843 0.0
C563 C 0.90239 0.17359 0.80959 0.0
C564 C 0.89287 0.16829 0.83328 0.0
C565 C 0.93277 0.16537 0.84522 0.0
C566 C 0.88571 0.20872 0.84194 0.0
C567 C 0.84723 0.12131 0.83374 0.0
C568 C 0.83441 0.1019 0.81359 0.0
C569 C 0.79294 0.05901 0.81003 0.0
C570 C 0.76325 0.03599 0.82747 0.0
C571 C 0.77472 0.05683 0.84791 0.0
C572 C 0.81738 0.09954 0.85114 0.0
H573 H 0.65526 0.92161 0.15922 0.0
H574 H 0.65617 0.88014 0.09374 0.0
H575 H 0.6557 0.80724 0.10625 0.0
H576 H 0.72885 0.8807 0.18133 0.0
H577 H 0.69526 0.85901 0.20567 0.0
H578 H 0.69558 0.90749 0.19148 0.0
H579 H 0.60359 0.86085 0.18966 0.0
H580 H 0.60297 0.81231 0.20397 0.0
H581 H 0.57398 0.80201 0.17847 0.0
H582 H 0.66306 0.74329 0.1263 0.0
H583 H 0.66595 0.68691 0.15227 0.0
H584 H 0.6511 0.76637 0.20421 0.0
C585 C 0.6551 0.89694 0.14757 0.0
C586 C 0.65609 0.90616 0.1256 0.0
C587 C 0.65529 0.87321 0.11068 0.0
C588 C 0.65523 0.83202 0.11762 0.0
C589 C 0.65479 0.8241 0.13949 0.0
C590 C 0.65364 0.85515 0.15422 0.0
C591 C 0.65178 0.83786 0.17677 0.0
C592 C 0.69547 0.87338 0.18955 0.0
C593 C 0.60531 0.82764 0.18786 0.0
C594 C 0.65299 0.79265 0.17248 0.0
C595 C 0.65543 0.78562 0.1509 0.0
C596 C 0.66022 0.7479 0.1432 0.0
C597 C 0.66204 0.7163 0.15798 0.0
C598 C 0.65798 0.72226 0.18003 0.0
C599 C 0.65327 0.76073 0.18734 0.0
H600 H 0.71815 0.6427 0.47251 0.0
H601 H 0.76974 0.79433 0.46972 0.0
H602 H 0.83222 0.80785 0.49578 0.0
H603 H 0.73883 0.63837 0.52948 0.0
H604 H 0.75619 0.59381 0.52631 0.0
H605 H 0.71435 0.59602 0.5081 0.0
H606 H 0.76808 0.60205 0.47625 0.0
H607 H 0.80999 0.59981 0.49434 0.0
H608 H 0.8293 0.64861 0.47587 0.0
H609 H 0.89325 0.80526 0.51947 0.0
H610 H 0.94576 0.78614 0.54083 0.0
H611 H 0.85102 0.63608 0.52963 0.0
C612 C 0.74247 0.67873 0.47744 0.0
C613 C 0.73939 0.71748 0.46901 0.0
C614 C 0.77153 0.7641 0.476 0.0
C615 C 0.80708 0.77215 0.49079 0.0
C616 C 0.80938 0.73314 0.49864 0.0
C617 C 0.77762 0.68733 0.4924 0.0
C618 C 0.78813 0.65165 0.503 0.0
C619 C 0.74692 0.61798 0.51759 0.0
C620 C 0.79957 0.62392 0.48637 0.0
C621 C 0.83155 0.68466 0.51575 0.0
C622 C 0.8433 0.73154 0.51303 0.0
C623 C 0.88399 0.76866 0.52204 0.0
C624 C 0.9136 0.7575 0.53406 0.0
C625 C 0.90196 0.70966 0.53706 0.0
C626 C 0.86013 0.6729 0.528 0.0
H627 H 0.18385 0.92438 0.84826 0.0
H628 H 0.28579 0.87452 0.8519 0.0
H629 H 0.22529 0.79631 0.83846 0.0
H630 H 0.08358 0.81565 0.8661 0.0
H631 H 0.04184 0.82023 0.84865 0.0
H632 H 0.09354 0.87316 0.85783 0.0
H633 H 0.11821 0.90061 0.81879 0.0
H634 H 0.06635 0.84799 0.80952 0.0
H635 H 0.12446 0.86158 0.80032 0.0
H636 H 0.15484 0.72439 0.82417 0.0
H637 H 0.07794 0.66245 0.81016 0.0
H638 H 0.02017 0.7572 0.81759 0.0
C639 C 0.19349 0.89712 0.846 0.0
C640 C 0.23945 0.90545 0.85102 0.0
C641 C 0.25066 0.86876 0.84819 0.0
C642 C 0.21661 0.82427 0.84056 0.0
C643 C 0.17143 0.81693 0.83606 0.0
C644 C 0.15968 0.8522 0.83869 0.0
C645 C 0.10816 0.83452 0.83309 0.0
C646 C 0.08014 0.83597 0.85258 0.0
C647 C 0.10408 0.86286 0.81431 0.0
C648 C 0.09298 0.78397 0.82677 0.0
C649 C 0.13011 0.77467 0.82852 0.0
C650 C 0.12533 0.73104 0.82287 0.0
C651 C 0.08149 0.69606 0.81497 0.0
C652 C 0.0429 0.70475 0.81302 0.0
C653 C 0.04875 0.74919 0.81924 0.0
H654 H 0.34894 0.19876 0.38189 0.0
H655 H 0.22577 0.18575 0.41462 0.0
H656 H 0.18057 0.16271 0.38096 0.0
H657 H 0.34698 0.25557 0.34144 0.0
H658 H 0.36367 0.22812 0.32077 0.0
H659 H 0.38002 0.22579 0.34773 0.0
H660 H 0.33762 0.13407 0.34638 0.0
H661 H 0.3216 0.13599 0.31903 0.0
H662 H 0.27632 0.10092 0.3383 0.0
H663 H 0.16019 0.16971 0.34337 0.0
H664 H 0.16456 0.19812 0.30639 0.0
H665 H 0.29774 0.19904 0.29766 0.0
C666 C 0.31147 0.18776 0.38207 0.0
C667 C 0.29034 0.19297 0.40066 0.0
C668 C 0.24194 0.18052 0.40053 0.0
C669 C 0.2161 0.16759 0.38144 0.0
C670 C 0.23894 0.16601 0.36285 0.0
C671 C 0.28515 0.17399 0.3632 0.0
C672 C 0.30436 0.1777 0.3409 0.0
C673 C 0.35144 0.22457 0.33754 0.0
C674 C 0.3103 0.13459 0.33586 0.0
C675 C 0.26421 0.17641 0.3281 0.0
C676 C 0.2261 0.16827 0.34087 0.0
C677 C 0.18889 0.17416 0.33305 0.0
C678 C 0.19165 0.19043 0.31201 0.0
C679 C 0.23157 0.20095 0.29917 0.0
C680 C 0.26662 0.1911 0.30705 0.0
H681 H 0.06912 0.35646 0.59489 0.0
H682 H 0.96005 0.20867 0.58982 0.0
H683 H 0.98241 0.19312 0.62532 0.0
H684 H 0.15567 0.33735 0.62966 0.0
H685 H 0.17044 0.39062 0.6443 0.0
H686 H 0.15605 0.38688 0.61637 0.0
H687 H 0.09037 0.40801 0.62485 0.0
H688 H 0.10465 0.41195 0.65257 0.0
H689 H 0.0447 0.37244 0.64391 0.0
H690 H 0.00237 0.19798 0.66385 0.0
H691 H 0.015 0.22352 0.70149 0.0
H692 H 0.11043 0.36791 0.68177 0.0
C693 C 0.05095 0.3204 0.60089 0.0
C694 C 0.01274 0.28382 0.58959 0.0
C695 C -0.01037 0.23725 0.59811 0.0
C696 C 0.00231 0.22806 0.61825 0.0
C697 C 0.03864 0.26562 0.62947 0.0
C698 C 0.063 0.31085 0.62092 0.0
C699 C 0.09474 0.34678 0.63726 0.0
C700 C 0.14735 0.36656 0.63155 0.0
C701 C 0.08283 0.38708 0.6398 0.0
C702 C 0.08141 0.31556 0.65686 0.0
C703 C 0.05041 0.26847 0.65193 0.0
C704 C 0.02791 0.2343 0.66782 0.0
C705 C 0.03542 0.24897 0.68915 0.0
C706 C 0.0649 0.29729 0.69429 0.0
C707 C 0.08955 0.33049 0.67808 0.0
H708 H 0.76513 0.11838 0.04327 0.0
H709 H 0.77306 -0.0037 0.06538 0.0
H710 H 0.79202 0.98253 0.02888 0.0
H711 H 0.70184 0.07068 0.00224 0.0
H712 H 0.72799 0.11954 0.98366 0.0
H713 H 0.73355 0.13105 0.01166 0.0
H714 H 0.82517 0.17845 0.00843 0.0
H715 H 0.82005 0.16806 0.9801 0.0
H716 H 0.85622 0.15172 -0.00411 0.0
H717 H 0.78425 0.96761 0.98983 0.0
H718 H 0.75622 0.95646 0.9526 0.0
H719 H 0.7553 0.08965 0.95549 0.0
C720 C 0.77443 0.091 0.04056 0.0
C721 C 0.76931 0.05932 0.05703 0.0
C722 C 0.77868 0.02191 0.05299 0.0
C723 C 0.78917 0.01373 0.03226 0.0
C724 C 0.79066 0.04368 0.01589 0.0
C725 C 0.78488 0.08254 0.01994 0.0
C726 C 0.77947 0.1042 -0.00053 0.0
C727 C 0.73296 0.1064 -0.00074 0.0
C728 C 0.82282 0.15353 -0.00425 0.0
C729 C 0.77829 0.06883 0.98348 0.0
C730 C 0.78618 0.03494 0.99308 0.0
C731 C 0.77969 -0.00514 0.982 0.0
C732 C 0.76352 -0.01133 0.96084 0.0
C733 C 0.75351 0.02216 0.95107 0.0
C734 C 0.76306 0.06359 0.96237 0.0
H735 H 0.70038 0.75818 0.27138 0.0
H736 H 0.80297 0.70972 0.274 0.0
H737 H 0.82682 0.74377 0.30999 0.0
H738 H 0.76941 0.86805 0.30964 0.0
H739 H 0.71332 0.85687 0.32056 0.0
H740 H 0.71796 0.84624 0.2927 0.0
H741 H 0.64904 0.76005 0.2972 0.0
H742 H 0.64453 0.77004 0.32486 0.0
H743 H 0.65405 0.72203 0.31683 0.0
H744 H 0.81816 0.75495 0.34803 0.0
H745 H 0.78175 0.74696 0.38339 0.0
H746 H 0.68733 0.7923 0.35719 0.0
C747 C 0.72972 0.75721 0.27915 0.0
C748 C 0.74995 0.73154 0.27005 0.0
C749 C 0.78759 0.72992 0.28061 0.0
C750 C 0.80127 0.74918 0.3011 0.0
C751 C 0.77774 0.77088 0.31047 0.0
C752 C 0.74363 0.77632 0.29954 0.0
C753 C 0.71737 0.79269 0.31417 0.0
C754 C 0.73032 0.84402 0.30896 0.0
C755 C 0.66311 0.75916 0.31321 0.0
C756 C 0.73778 0.78995 0.33547 0.0
C757 C 0.77383 0.77902 0.33294 0.0
C758 C 0.79166 0.76563 0.35023 0.0
C759 C 0.77077 0.76111 0.37028 0.0
C760 C 0.73281 0.77038 0.37292 0.0
C761 C 0.71781 0.78724 0.35559 0.0
H762 H 0.05604 0.73697 0.63957 0.0
H763 H 0.93156 0.73942 0.6166 0.0
H764 H 0.91019 0.74794 0.6535 0.0
H765 H 0.00219 0.66157 0.67829 0.0
H766 H 0.04892 0.68584 0.69787 0.0
H767 H 0.06341 0.69678 0.67014 0.0
H768 H 0.10756 0.78745 0.67682 0.0
H769 H 0.09341 0.77674 0.70479 0.0
H770 H 0.07719 0.81423 0.68995 0.0
H771 H 0.8924 0.73693 0.69229 0.0
H772 H 0.87799 0.70331 0.72877 0.0
H773 H 0.01242 0.70494 0.7266 0.0
C774 C 0.02592 0.74212 0.64238 0.0
C775 C -0.00389 0.73908 0.62549 0.0
C776 C 0.95534 0.74307 0.62949 0.0
C777 C 0.94308 0.74801 0.65037 0.0
C778 C 0.97194 0.74866 0.667 0.0
C779 C 0.01288 0.74623 0.66319 0.0
C780 C 0.03261 0.73812 0.68362 0.0
C781 C 0.03696 0.6929 0.68239 0.0
C782 C 0.08054 0.78175 0.68912 0.0
C783 C -0.00558 0.73241 0.69916 0.0
C784 C 0.96068 0.74047 0.68952 0.0
C785 C 0.91922 0.73179 0.70017 0.0
C786 C 0.91125 0.71272 0.72088 0.0
C787 C 0.94411 0.7016 0.73035 0.0
C788 C -0.01307 0.71348 0.71968 0.0
H789 H 0.1924 0.89178 0.01934 0.0
H790 H 0.22051 0.02639 0.04536 0.0
H791 H 0.21728 0.05506 0.00925 0.0
H792 H 0.27151 0.93709 0.98243 0.0
H793 H 0.24166 0.89471 0.96148 0.0
H794 H 0.22602 0.87727 0.98867 0.0
H795 H 0.13809 0.85151 0.98079 0.0
H796 H 0.15331 0.86824 0.95326 0.0
H797 H 0.12334 0.89277 0.96841 0.0
H798 H 0.2317 0.07613 0.97097 0.0
H799 H 0.26694 0.08893 0.93487 0.0
H800 H 0.23721 0.94331 0.93382 0.0
C801 C 0.1946 0.92602 0.0174 0.0
C802 C 0.20504 0.95644 0.03493 0.0
C803 C 0.211 0.00227 0.03201 0.0
C804 C 0.20919 0.01873 0.01156 0.0
C805 C 0.20201 -0.01094 0.99424 0.0
C806 C 0.19447 0.94336 -0.00301 0.0
C807 C 0.19885 0.92266 0.97609 0.0
C808 C 0.23678 0.90711 0.97726 0.0
C809 C 0.15051 0.88135 0.96923 0.0
C810 C 0.21414 0.96511 0.96161 0.0
C811 C 0.21355 0.00232 0.97205 0.0
C812 C 0.23113 0.04687 0.96247 0.0
C813 C 0.25115 0.05394 0.94202 0.0
C814 C 0.25462 0.01702 0.93181 0.0
C815 C 0.2345 0.97185 0.94141 0.0
loop_
_geom_bond_atom_site_label_1
_geom_bond_atom_site_label_2
_geom_bond_distance
_geom_bond_site_symmetry_2
_ccdc_geom_bond_type
Mg0 O1 2.028 . S
Mg0 O7 1.986 . S
Mg0 O9 2.114 . S
Mg0 O10 2.251 . S
Mg0 O13 2.010 . S
O1 Mg0 2.028 . S
O1 C4 1.250 . S
O2 Mg3 2.028 . S
O2 C4 1.248 . S
Mg3 O2 2.028 . S
Mg3 O8 2.032 . S
Mg3 O10 2.079 . S
C4 O1 1.250 . S
C4 O2 1.248 . S
C5 O6 1.264 . S
C5 O13 1.249 . S
O6 C5 1.264 . S
O7 Mg0 1.986 . S
O7 C11 1.246 . S
O8 Mg3 2.032 . S
O8 C11 1.259 . S
O9 Mg0 2.114 . S
O9 C12 1.252 . S
O10 Mg0 2.251 . S
O10 Mg3 2.079 . S
O10 C12 1.273 . S
C11 O7 1.246 . S
C11 O8 1.259 . S
C12 O9 1.252 . S
C12 O10 1.273 . S
O13 Mg0 2.010 . S
O13 C5 1.249 . S
Mg14 O15 2.028 . S
Mg14 O21 1.986 . S
Mg14 O23 2.114 . S
Mg14 O24 2.251 . S
Mg14 O27 2.010 . S
O15 Mg14 2.028 . S
O15 C18 1.250 1_655 S
O16 Mg17 2.028 . S
O16 C18 1.248 . S
Mg17 O16 2.028 . S
Mg17 O22 2.032 . S
Mg17 O24 2.079 1_455 S
C18 O15 1.250 1_455 S
C18 O16 1.248 . S
C19 O20 1.264 . S
C19 O27 1.249 . S
O20 C19 1.264 . S
O21 Mg14 1.986 . S
O21 C25 1.246 . S
O22 Mg17 2.032 . S
O22 C25 1.259 1_455 S
O23 Mg14 2.114 . S
O23 C26 1.252 . S
O24 Mg14 2.251 . S
O24 Mg17 2.079 1_655 S
O24 C26 1.273 . S
C25 O21 1.246 . S
C25 O22 1.259 1_655 S
C26 O23 1.252 . S
C26 O24 1.273 . S
O27 Mg14 2.010 . S
O27 C19 1.249 . S
Mg28 O29 2.028 . S
Mg28 O35 1.986 . S
Mg28 O37 2.114 . S
Mg28 O38 2.251 . S
Mg28 O41 2.010 . S
O29 Mg28 2.028 . S
O29 C32 1.250 1_565 S
O30 Mg31 2.028 . S
O30 C32 1.248 . S
Mg31 O30 2.028 . S
Mg31 O36 2.032 . S
Mg31 O38 2.079 1_545 S
C32 O29 1.250 1_545 S
C32 O30 1.248 . S
C33 O34 1.264 . S
C33 O41 1.249 . S
O34 C33 1.264 . S
O35 Mg28 1.986 . S
O35 C39 1.246 . S
O36 Mg31 2.032 . S
O36 C39 1.259 1_545 S
O37 Mg28 2.114 . S
O37 C40 1.252 . S
O38 Mg28 2.251 . S
O38 Mg31 2.079 1_565 S
O38 C40 1.273 . S
C39 O35 1.246 . S
C39 O36 1.259 1_565 S
C40 O37 1.252 . S
C40 O38 1.273 . S
O41 Mg28 2.010 . S
O41 C33 1.249 . S
Mg42 O43 2.028 . S
Mg42 O49 1.986 . S
Mg42 O51 2.114 . S
Mg42 O52 2.251 . S
Mg42 O55 2.010 . S
O43 Mg42 2.028 . S
O43 C46 1.250 . S
O44 Mg45 2.028 . S
O44 C46 1.248 . S
Mg45 O44 2.028 . S
Mg45 O50 2.032 . S
Mg45 O52 2.079 . S
C46 O43 1.250 . S
C46 O44 1.248 . S
C47 O48 1.264 . S
C47 O55 1.249 . S
O48 C47 1.264 . S
O49 Mg42 1.986 . S
O49 C53 1.246 . S
O50 Mg45 2.032 . S
O50 C53 1.259 . S
O51 Mg42 2.114 . S
O51 C54 1.252 . S
O52 Mg42 2.251 . S
O52 Mg45 2.079 . S
O52 C54 1.273 . S
C53 O49 1.246 . S
C53 O50 1.259 . S
C54 O51 1.252 . S
C54 O52 1.273 . S
O55 Mg42 2.010 . S
O55 C47 1.249 . S
Mg56 O57 2.028 . S
Mg56 O63 1.986 . S
Mg56 O65 2.114 . S
Mg56 O66 2.251 . S
Mg56 O69 2.010 . S
O57 Mg56 2.028 . S
O57 C60 1.250 1_455 S
O58 Mg59 2.028 . S
O58 C60 1.248 . S
Mg59 O58 2.028 . S
Mg59 O64 2.032 . S
Mg59 O66 2.079 1_655 S
C60 O57 1.250 1_655 S
C60 O58 1.248 . S
C61 O62 1.264 . S
C61 O69 1.249 . S
O62 C61 1.264 . S
O63 Mg56 1.986 . S
O63 C67 1.246 . S
O64 Mg59 2.032 . S
O64 C67 1.259 1_655 S
O65 Mg56 2.114 . S
O65 C68 1.252 . S
O66 Mg56 2.251 . S
O66 Mg59 2.079 1_455 S
O66 C68 1.273 . S
C67 O63 1.246 . S
C67 O64 1.259 1_455 S
C68 O65 1.252 . S
C68 O66 1.273 . S
O69 Mg56 2.010 . S
O69 C61 1.249 . S
Mg70 O71 2.028 . S
Mg70 O77 1.986 . S
Mg70 O79 2.114 . S
Mg70 O80 2.251 . S
Mg70 O83 2.010 . S
O71 Mg70 2.028 . S
O71 C74 1.250 1_545 S
O72 Mg73 2.028 . S
O72 C74 1.248 . S
Mg73 O72 2.028 . S
Mg73 O78 2.032 . S
Mg73 O80 2.079 1_565 S
C74 O71 1.250 1_565 S
C74 O72 1.248 . S
C75 O76 1.264 . S
C75 O83 1.249 . S
O76 C75 1.264 . S
O77 Mg70 1.986 . S
O77 C81 1.246 . S
O78 Mg73 2.032 . S
O78 C81 1.259 1_565 S
O79 Mg70 2.114 . S
O79 C82 1.252 . S
O80 Mg70 2.251 . S
O80 Mg73 2.079 1_545 S
O80 C82 1.273 . S
C81 O77 1.246 . S
C81 O78 1.259 1_545 S
C82 O79 1.252 . S
C82 O80 1.273 . S
O83 Mg70 2.010 . S
O83 C75 1.249 . S
Mg84 O85 2.028 . S
Mg84 O91 1.986 . S
Mg84 O93 2.114 . S
Mg84 O94 2.251 . S
Mg84 O97 2.010 . S
O85 Mg84 2.028 . S
O85 C88 1.250 . S
O86 Mg87 2.028 . S
O86 C88 1.248 . S
Mg87 O86 2.028 . S
Mg87 O92 2.032 . S
Mg87 O94 2.079 . S
C88 O85 1.250 . S
C88 O86 1.248 . S
C89 O90 1.264 . S
C89 O97 1.249 . S
O90 C89 1.264 . S
O91 Mg84 1.986 . S
O91 C95 1.246 . S
O92 Mg87 2.032 . S
O92 C95 1.259 . S
O93 Mg84 2.114 . S
O93 C96 1.252 . S
O94 Mg84 2.251 . S
O94 Mg87 2.079 . S
O94 C96 1.273 . S
C95 O91 1.246 . S
C95 O92 1.259 . S
C96 O93 1.252 . S
C96 O94 1.273 . S
O97 Mg84 2.010 . S
O97 C89 1.249 . S
Mg98 O99 2.028 . S
Mg98 O105 1.986 . S
Mg98 O107 2.114 . S
Mg98 O108 2.251 . S
Mg98 O111 2.010 . S
O99 Mg98 2.028 . S
O99 C102 1.250 1_655 S
O100 Mg101 2.028 . S
O100 C102 1.248 . S
Mg101 O100 2.028 . S
Mg101 O106 2.032 . S
Mg101 O108 2.079 1_455 S
C102 O99 1.250 1_455 S
C102 O100 1.248 . S
C103 O104 1.264 . S
C103 O111 1.249 . S
O104 C103 1.264 . S
O105 Mg98 1.986 . S
O105 C109 1.246 . S
O106 Mg101 2.032 . S
O106 C109 1.259 1_455 S
O107 Mg98 2.114 . S
O107 C110 1.252 . S
O108 Mg98 2.251 . S
O108 Mg101 2.079 1_655 S
O108 C110 1.273 . S
C109 O105 1.246 . S
C109 O106 1.259 1_655 S
C110 O107 1.252 . S
C110 O108 1.273 . S
O111 Mg98 2.010 . S
O111 C103 1.249 . S
Mg112 O113 2.028 . S
Mg112 O119 1.986 . S
Mg112 O121 2.114 . S
Mg112 O122 2.251 . S
Mg112 O125 2.010 . S
O113 Mg112 2.028 . S
O113 C116 1.250 1_565 S
O114 Mg115 2.028 . S
O114 C116 1.248 . S
Mg115 O114 2.028 . S
Mg115 O120 2.032 . S
Mg115 O122 2.079 1_545 S
C116 O113 1.250 1_545 S
C116 O114 1.248 . S
C117 O118 1.264 . S
C117 O125 1.249 . S
O118 C117 1.264 . S
O119 Mg112 1.986 . S
O119 C123 1.246 . S
O120 Mg115 2.032 . S
O120 C123 1.259 1_545 S
O121 Mg112 2.114 . S
O121 C124 1.252 . S
O122 Mg112 2.251 . S
O122 Mg115 2.079 1_565 S
O122 C124 1.273 . S
C123 O119 1.246 . S
C123 O120 1.259 1_565 S
C124 O121 1.252 . S
C124 O122 1.273 . S
O125 Mg112 2.010 . S
O125 C117 1.249 . S
Mg126 O127 2.028 . S
Mg126 O133 1.986 . S
Mg126 O135 2.114 . S
Mg126 O136 2.251 . S
Mg126 O139 2.010 . S
O127 Mg126 2.028 . S
O127 C130 1.250 . S
O128 Mg129 2.028 . S
O128 C130 1.248 . S
Mg129 O128 2.028 . S
Mg129 O134 2.032 . S
Mg129 O136 2.079 . S
C130 O127 1.250 . S
C130 O128 1.248 . S
C131 O132 1.264 . S
C131 O139 1.249 . S
O132 C131 1.264 . S
O133 Mg126 1.986 . S
O133 C137 1.246 . S
O134 Mg129 2.032 . S
O134 C137 1.259 . S
O135 Mg126 2.114 . S
O135 C138 1.252 . S
O136 Mg126 2.251 . S
O136 Mg129 2.079 . S
O136 C138 1.273 . S
C137 O133 1.246 . S
C137 O134 1.259 . S
C138 O135 1.252 . S
C138 O136 1.273 . S
O139 Mg126 2.010 . S
O139 C131 1.249 . S
Mg140 O141 2.028 . S
Mg140 O147 1.986 . S
Mg140 O149 2.114 . S
Mg140 O150 2.251 . S
Mg140 O153 2.010 . S
O141 Mg140 2.028 . S
O141 C144 1.250 1_455 S
O142 Mg143 2.028 . S
O142 C144 1.248 . S
Mg143 O142 2.028 . S
Mg143 O148 2.032 . S
Mg143 O150 2.079 1_655 S
C144 O141 1.250 1_655 S
C144 O142 1.248 . S
C145 O146 1.264 . S
C145 O153 1.249 . S
O146 C145 1.264 . S
O147 Mg140 1.986 . S
O147 C151 1.246 . S
O148 Mg143 2.032 . S
O148 C151 1.259 1_655 S
O149 Mg140 2.114 . S
O149 C152 1.252 . S
O150 Mg140 2.251 . S
O150 Mg143 2.079 1_455 S
O150 C152 1.273 . S
C151 O147 1.246 . S
C151 O148 1.259 1_455 S
C152 O149 1.252 . S
C152 O150 1.273 . S
O153 Mg140 2.010 . S
O153 C145 1.249 . S
Mg154 O155 2.028 . S
Mg154 O161 1.986 . S
Mg154 O163 2.114 . S
Mg154 O164 2.251 . S
Mg154 O167 2.010 . S
O155 Mg154 2.028 . S
O155 C158 1.250 1_545 S
O156 Mg157 2.028 . S
O156 C158 1.248 . S
Mg157 O156 2.028 . S
Mg157 O162 2.032 . S
Mg157 O164 2.079 1_565 S
C158 O155 1.250 1_565 S
C158 O156 1.248 . S
C159 O160 1.264 . S
C159 O167 1.249 . S
O160 C159 1.264 . S
O161 Mg154 1.986 . S
O161 C165 1.246 . S
O162 Mg157 2.032 . S
O162 C165 1.259 1_565 S
O163 Mg154 2.114 . S
O163 C166 1.252 . S
O164 Mg154 2.251 . S
O164 Mg157 2.079 1_545 S
O164 C166 1.273 . S
C165 O161 1.246 . S
C165 O162 1.259 1_545 S
C166 O163 1.252 . S
C166 O164 1.273 . S
O167 Mg154 2.010 . S
O167 C159 1.249 . S
H168 C180 0.930 . S
H169 C182 0.930 . S
H170 C183 0.930 . S
H171 C187 0.959 . S
H172 C187 0.959 . S
H173 C187 0.961 . S
H174 C188 0.960 1_655 S
H175 C188 0.961 . S
H176 C188 0.959 . S
H177 C191 0.929 . S
H178 C192 0.931 . S
H179 C194 0.930 . S
C180 H168 0.930 . S
C180 C181 1.399 . S
C180 C185 1.399 . S
C181 C180 1.399 . S
C181 C182 1.376 . S
C182 H169 0.930 . S
C182 C181 1.376 . S
C182 C183 1.388 . S
C183 H170 0.930 . S
C183 C182 1.388 . S
C183 C184 1.390 . S
C184 C183 1.390 . S
C184 C185 1.394 . S
C184 C190 1.465 1_655 S
C185 C180 1.399 . S
C185 C184 1.394 . S
C185 C186 1.516 1_655 S
C186 C185 1.516 1_455 S
C186 C187 1.502 . S
C186 C188 1.561 . S
C186 C189 1.526 . S
C187 H171 0.959 . S
C187 H172 0.959 . S
C187 H173 0.961 . S
C187 C186 1.502 . S
C188 H174 0.960 1_455 S
C188 H175 0.961 . S
C188 H176 0.959 . S
C188 C186 1.561 . S
C189 C186 1.526 . S
C189 C190 1.396 . S
C189 C194 1.390 . S
C190 C184 1.465 1_455 S
C190 C189 1.396 . S
C190 C191 1.399 . S
C191 H177 0.929 . S
C191 C190 1.399 . S
C191 C192 1.385 . S
C192 H178 0.931 . S
C192 C191 1.385 . S
C192 C193 1.389 . S
C193 C192 1.389 . S
C193 C194 1.387 . S
C194 H179 0.930 . S
C194 C189 1.390 . S
C194 C193 1.387 . S
H195 C207 0.930 . S
H196 C209 0.930 . S
H197 C210 0.930 . S
H198 C214 0.959 1_565 S
H199 C214 0.959 1_565 S
H200 C214 0.961 . S
H201 C215 0.960 . S
H202 C215 0.961 . S
H203 C215 0.959 . S
H204 C218 0.929 . S
H205 C219 0.931 . S
H206 C221 0.930 . S
C207 H195 0.930 . S
C207 C208 1.399 . S
C207 C212 1.399 . S
C208 C207 1.399 . S
C208 C209 1.376 . S
C209 H196 0.930 . S
C209 C208 1.376 . S
C209 C210 1.388 . S
C210 H197 0.930 . S
C210 C209 1.388 . S
C210 C211 1.390 . S
C211 C210 1.390 . S
C211 C212 1.394 . S
C211 C217 1.465 1_545 S
C212 C207 1.399 . S
C212 C211 1.394 . S
C212 C213 1.516 . S
C213 C212 1.516 . S
C213 C214 1.502 . S
C213 C215 1.561 . S
C213 C216 1.526 1_545 S
C214 H198 0.959 1_545 S
C214 H199 0.959 1_545 S
C214 H200 0.961 . S
C214 C213 1.502 . S
C215 H201 0.960 . S
C215 H202 0.961 . S
C215 H203 0.959 . S
C215 C213 1.561 . S
C216 C213 1.526 1_565 S
C216 C217 1.396 . S
C216 C221 1.390 . S
C217 C211 1.465 1_565 S
C217 C216 1.396 . S
C217 C218 1.399 . S
C218 H204 0.929 . S
C218 C217 1.399 . S
C218 C219 1.385 . S
C219 H205 0.931 . S
C219 C218 1.385 . S
C219 C220 1.389 . S
C220 C219 1.389 . S
C220 C221 1.387 . S
C221 H206 0.930 . S
C221 C216 1.390 . S
C221 C220 1.387 . S
H222 C234 0.930 . S
H223 C236 0.930 . S
H224 C237 0.930 . S
H225 C241 0.959 . S
H226 C241 0.959 . S
H227 C241 0.961 . S
H228 C242 0.960 . S
H229 C242 0.961 . S
H230 C242 0.959 . S
H231 C245 0.929 . S
H232 C246 0.931 . S
H233 C248 0.930 . S
C234 H222 0.930 . S
C234 C235 1.399 . S
C234 C239 1.399 . S
C235 C234 1.399 . S
C235 C236 1.376 . S
C236 H223 0.930 . S
C236 C235 1.376 . S
C236 C237 1.388 . S
C237 H224 0.930 . S
C237 C236 1.388 . S
C237 C238 1.390 . S
C238 C237 1.390 . S
C238 C239 1.394 . S
C238 C244 1.465 . S
C239 C234 1.399 . S
C239 C238 1.394 . S
C239 C240 1.516 . S
C240 C239 1.516 . S
C240 C241 1.502 . S
C240 C242 1.561 . S
C240 C243 1.526 . S
C241 H225 0.959 . S
C241 H226 0.959 . S
C241 H227 0.961 . S
C241 C240 1.502 . S
C242 H228 0.960 . S
C242 H229 0.961 . S
C242 H230 0.959 . S
C242 C240 1.561 . S
C243 C240 1.526 . S
C243 C244 1.396 . S
C243 C248 1.390 . S
C244 C238 1.465 . S
C244 C243 1.396 . S
C244 C245 1.399 . S
C245 H231 0.929 . S
C245 C244 1.399 . S
C245 C246 1.385 . S
C246 H232 0.931 . S
C246 C245 1.385 . S
C246 C247 1.389 . S
C247 C246 1.389 . S
C247 C248 1.387 . S
C248 H233 0.930 . S
C248 C243 1.390 . S
C248 C247 1.387 . S
H249 C261 0.930 . S
H250 C263 0.930 . S
H251 C264 0.930 . S
H252 C268 0.959 . S
H253 C268 0.959 . S
H254 C268 0.961 . S
H255 C269 0.960 . S
H256 C269 0.961 . S
H257 C269 0.959 . S
H258 C272 0.929 . S
H259 C273 0.931 . S
H260 C275 0.930 . S
C261 H249 0.930 . S
C261 C262 1.399 . S
C261 C266 1.399 . S
C262 C261 1.399 . S
C262 C263 1.376 . S
C263 H250 0.930 . S
C263 C262 1.376 . S
C263 C264 1.388 . S
C264 H251 0.930 . S
C264 C263 1.388 . S
C264 C265 1.390 . S
C265 C264 1.390 . S
C265 C266 1.394 . S
C265 C271 1.465 1_655 S
C266 C261 1.399 . S
C266 C265 1.394 . S
C266 C267 1.516 1_655 S
C267 C266 1.516 1_455 S
C267 C268 1.502 . S
C267 C269 1.561 . S
C267 C270 1.526 . S
C268 H252 0.959 . S
C268 H253 0.959 . S
C268 H254 0.961 . S
C268 C267 1.502 . S
C269 H255 0.960 . S
C269 H256 0.961 . S
C269 H257 0.959 . S
C269 C267 1.561 . S
C270 C267 1.526 . S
C270 C271 1.396 . S
C270 C275 1.390 . S
C271 C265 1.465 1_455 S
C271 C270 1.396 . S
C271 C272 1.399 . S
C272 H258 0.929 . S
C272 C271 1.399 . S
C272 C273 1.385 . S
C273 H259 0.931 . S
C273 C272 1.385 . S
C273 C274 1.389 . S
C274 C273 1.389 . S
C274 C275 1.387 . S
C275 H260 0.930 . S
C275 C270 1.390 . S
C275 C274 1.387 . S
H276 C288 0.930 . S
H277 C290 0.930 . S
H278 C291 0.930 . S
H279 C295 0.959 . S
H280 C295 0.959 . S
H281 C295 0.961 . S
H282 C296 0.960 . S
H283 C296 0.961 1_565 S
H284 C296 0.959 . S
H285 C299 0.929 . S
H286 C300 0.931 . S
H287 C302 0.930 . S
C288 H276 0.930 . S
C288 C289 1.399 . S
C288 C293 1.399 . S
C289 C288 1.399 . S
C289 C290 1.376 . S
C290 H277 0.930 . S
C290 C289 1.376 . S
C290 C291 1.388 . S
C291 H278 0.930 . S
C291 C290 1.388 . S
C291 C292 1.390 . S
C292 C291 1.390 . S
C292 C293 1.394 . S
C292 C298 1.465 1_545 S
C293 C288 1.399 . S
C293 C292 1.394 . S
C293 C294 1.516 . S
C294 C293 1.516 . S
C294 C295 1.502 . S
C294 C296 1.561 . S
C294 C297 1.526 1_545 S
C295 H279 0.959 . S
C295 H280 0.959 . S
C295 H281 0.961 . S
C295 C294 1.502 . S
C296 H282 0.960 . S
C296 H283 0.961 1_545 S
C296 H284 0.959 . S
C296 C294 1.561 . S
C297 C294 1.526 1_565 S
C297 C298 1.396 . S
C297 C302 1.390 . S
C298 C292 1.465 1_565 S
C298 C297 1.396 . S
C298 C299 1.399 . S
C299 H285 0.929 . S
C299 C298 1.399 . S
C299 C300 1.385 . S
C300 H286 0.931 . S
C300 C299 1.385 . S
C300 C301 1.389 . S
C301 C300 1.389 . S
C301 C302 1.387 . S
C302 H287 0.930 . S
C302 C297 1.390 . S
C302 C301 1.387 . S
H303 C315 0.930 . S
H304 C317 0.930 . S
H305 C318 0.930 . S
H306 C322 0.959 . S
H307 C322 0.959 . S
H308 C322 0.961 . S
H309 C323 0.960 . S
H310 C323 0.961 . S
H311 C323 0.959 . S
H312 C326 0.929 . S
H313 C327 0.931 . S
H314 C329 0.930 . S
C315 H303 0.930 . S
C315 C316 1.399 . S
C315 C320 1.399 . S
C316 C315 1.399 . S
C316 C317 1.376 . S
C317 H304 0.930 . S
C317 C316 1.376 . S
C317 C318 1.388 . S
C318 H305 0.930 . S
C318 C317 1.388 . S
C318 C319 1.390 . S
C319 C318 1.390 . S
C319 C320 1.394 . S
C319 C325 1.465 . S
C320 C315 1.399 . S
C320 C319 1.394 . S
C320 C321 1.516 . S
C321 C320 1.516 . S
C321 C322 1.502 . S
C321 C323 1.561 . S
C321 C324 1.526 . S
C322 H306 0.959 . S
C322 H307 0.959 . S
C322 H308 0.961 . S
C322 C321 1.502 . S
C323 H309 0.960 . S
C323 H310 0.961 . S
C323 H311 0.959 . S
C323 C321 1.561 . S
C324 C321 1.526 . S
C324 C325 1.396 . S
C324 C329 1.390 . S
C325 C319 1.465 . S
C325 C324 1.396 . S
C325 C326 1.399 . S
C326 H312 0.929 . S
C326 C325 1.399 . S
C326 C327 1.385 . S
C327 H313 0.931 . S
C327 C326 1.385 . S
C327 C328 1.389 . S
C328 C327 1.389 . S
C328 C329 1.387 . S
C329 H314 0.930 . S
C329 C324 1.390 . S
C329 C328 1.387 . S
H330 C342 0.930 . S
H331 C344 0.930 . S
H332 C345 0.930 . S
H333 C349 0.959 . S
H334 C349 0.959 . S
H335 C349 0.961 . S
H336 C350 0.960 . S
H337 C350 0.961 . S
H338 C350 0.959 . S
H339 C353 0.929 . S
H340 C354 0.931 . S
H341 C356 0.930 . S
C342 H330 0.930 . S
C342 C343 1.399 . S
C342 C347 1.399 . S
C343 C342 1.399 . S
C343 C344 1.376 . S
C344 H331 0.930 . S
C344 C343 1.376 . S
C344 C345 1.388 . S
C345 H332 0.930 . S
C345 C344 1.388 . S
C345 C346 1.390 . S
C346 C345 1.390 . S
C346 C347 1.394 . S
C346 C352 1.465 . S
C347 C342 1.399 . S
C347 C346 1.394 . S
C347 C348 1.516 . S
C348 C347 1.516 . S
C348 C349 1.502 . S
C348 C350 1.561 . S
C348 C351 1.526 . S
C349 H333 0.959 . S
C349 H334 0.959 . S
C349 H335 0.961 . S
C349 C348 1.502 . S
C350 H336 0.960 . S
C350 H337 0.961 . S
C350 H338 0.959 . S
C350 C348 1.561 . S
C351 C348 1.526 . S
C351 C352 1.396 . S
C351 C356 1.390 . S
C352 C346 1.465 . S
C352 C351 1.396 . S
C352 C353 1.399 . S
C353 H339 0.929 . S
C353 C352 1.399 . S
C353 C354 1.385 . S
C354 H340 0.931 . S
C354 C353 1.385 . S
C354 C355 1.389 . S
C355 C354 1.389 . S
C355 C356 1.387 . S
C356 H341 0.930 . S
C356 C351 1.390 . S
C356 C355 1.387 . S
H357 C369 0.930 . S
H358 C371 0.930 . S
H359 C372 0.930 . S
H360 C376 0.959 . S
H361 C376 0.959 . S
H362 C376 0.961 . S
H363 C377 0.960 . S
H364 C377 0.961 . S
H365 C377 0.959 . S
H366 C380 0.929 1_455 S
H367 C381 0.931 . S
H368 C383 0.930 . S
C369 H357 0.930 . S
C369 C370 1.399 . S
C369 C374 1.399 . S
C370 C369 1.399 . S
C370 C371 1.376 . S
C371 H358 0.930 . S
C371 C370 1.376 . S
C371 C372 1.388 . S
C372 H359 0.930 . S
C372 C371 1.388 . S
C372 C373 1.390 . S
C373 C372 1.390 . S
C373 C374 1.394 . S
C373 C379 1.465 1_455 S
C374 C369 1.399 . S
C374 C373 1.394 . S
C374 C375 1.516 1_455 S
C375 C374 1.516 1_655 S
C375 C376 1.502 . S
C375 C377 1.561 1_655 S
C375 C378 1.526 . S
C376 H360 0.959 . S
C376 H361 0.959 . S
C376 H362 0.961 . S
C376 C375 1.502 . S
C377 H363 0.960 . S
C377 H364 0.961 . S
C377 H365 0.959 . S
C377 C375 1.561 1_455 S
C378 C375 1.526 . S
C378 C379 1.396 . S
C378 C383 1.390 . S
C379 C373 1.465 1_655 S
C379 C378 1.396 . S
C379 C380 1.399 . S
C380 H366 0.929 1_655 S
C380 C379 1.399 . S
C380 C381 1.385 . S
C381 H367 0.931 . S
C381 C380 1.385 . S
C381 C382 1.389 . S
C382 C381 1.389 . S
C382 C383 1.387 . S
C383 H368 0.930 . S
C383 C378 1.390 . S
C383 C382 1.387 . S
H384 C396 0.930 . S
H385 C398 0.930 . S
H386 C399 0.930 . S
H387 C403 0.959 . S
H388 C403 0.959 . S
H389 C403 0.961 . S
H390 C404 0.960 . S
H391 C404 0.961 . S
H392 C404 0.959 . S
H393 C407 0.929 . S
H394 C408 0.931 . S
H395 C410 0.930 . S
C396 H384 0.930 . S
C396 C397 1.399 . S
C396 C401 1.399 . S
C397 C396 1.399 . S
C397 C398 1.376 . S
C398 H385 0.930 . S
C398 C397 1.376 . S
C398 C399 1.388 . S
C399 H386 0.930 . S
C399 C398 1.388 . S
C399 C400 1.390 . S
C400 C399 1.390 . S
C400 C401 1.394 . S
C400 C406 1.465 1_545 S
C401 C396 1.399 . S
C401 C400 1.394 . S
C401 C402 1.524 . S
C402 C401 1.524 . S
C402 C403 1.496 1_545 S
C402 C404 1.567 . S
C402 C405 1.518 1_545 S
C403 H387 0.959 . S
C403 H388 0.959 . S
C403 H389 0.961 . S
C403 C402 1.496 1_565 S
C404 H390 0.960 . S
C404 H391 0.961 . S
C404 H392 0.959 . S
C404 C402 1.567 . S
C405 C402 1.518 1_565 S
C405 C406 1.396 . S
C405 C410 1.390 . S
C406 C400 1.465 1_565 S
C406 C405 1.396 . S
C406 C407 1.399 . S
C407 H393 0.929 . S
C407 C406 1.399 . S
C407 C408 1.385 . S
C408 H394 0.931 . S
C408 C407 1.385 . S
C408 C409 1.389 . S
C409 C408 1.389 . S
C409 C410 1.387 . S
C410 H395 0.930 . S
C410 C405 1.390 . S
C410 C409 1.387 . S
H411 C423 0.930 . S
H412 C425 0.930 . S
H413 C426 0.930 . S
H414 C430 0.959 . S
H415 C430 0.959 . S
H416 C430 0.961 . S
H417 C431 0.960 . S
H418 C431 0.961 . S
H419 C431 0.959 . S
H420 C434 0.929 . S
H421 C435 0.931 . S
H422 C437 0.930 . S
C423 H411 0.930 . S
C423 C424 1.399 . S
C423 C428 1.399 . S
C424 C423 1.399 . S
C424 C425 1.376 . S
C425 H412 0.930 . S
C425 C424 1.376 . S
C425 C426 1.388 . S
C426 H413 0.930 . S
C426 C425 1.388 . S
C426 C427 1.390 . S
C427 C426 1.390 . S
C427 C428 1.394 . S
C427 C433 1.465 . S
C428 C423 1.399 . S
C428 C427 1.394 . S
C428 C429 1.516 . S
C429 C428 1.516 . S
C429 C430 1.502 . S
C429 C431 1.561 . S
C429 C432 1.526 . S
C430 H414 0.959 . S
C430 H415 0.959 . S
C430 H416 0.961 . S
C430 C429 1.502 . S
C431 H417 0.960 . S
C431 H418 0.961 . S
C431 H419 0.959 . S
C431 C429 1.561 . S
C432 C429 1.526 . S
C432 C433 1.396 . S
C432 C437 1.390 . S
C433 C427 1.465 . S
C433 C432 1.396 . S
C433 C434 1.399 . S
C434 H420 0.929 . S
C434 C433 1.399 . S
C434 C435 1.385 . S
C435 H421 0.931 . S
C435 C434 1.385 . S
C435 C436 1.389 . S
C436 C435 1.389 . S
C436 C437 1.387 . S
C437 H422 0.930 . S
C437 C432 1.390 . S
C437 C436 1.387 . S
H438 C450 0.930 . S
H439 C452 0.930 . S
H440 C453 0.930 . S
H441 C457 0.959 . S
H442 C457 0.959 . S
H443 C457 0.961 . S
H444 C458 0.960 . S
H445 C458 0.961 1_455 S
H446 C458 0.959 . S
H447 C461 0.929 . S
H448 C462 0.931 . S
H449 C464 0.930 . S
C450 H438 0.930 . S
C450 C451 1.399 . S
C450 C455 1.399 . S
C451 C450 1.399 . S
C451 C452 1.376 . S
C452 H439 0.930 . S
C452 C451 1.376 . S
C452 C453 1.388 . S
C453 H440 0.930 . S
C453 C452 1.388 . S
C453 C454 1.390 . S
C454 C453 1.390 . S
C454 C455 1.394 . S
C454 C460 1.465 . S
C455 C450 1.399 . S
C455 C454 1.394 . S
C455 C456 1.516 1_655 S
C456 C455 1.516 1_455 S
C456 C457 1.502 . S
C456 C458 1.561 1_455 S
C456 C459 1.526 . S
C457 H441 0.959 . S
C457 H442 0.959 . S
C457 H443 0.961 . S
C457 C456 1.502 . S
C458 H444 0.960 . S
C458 H445 0.961 1_655 S
C458 H446 0.959 . S
C458 C456 1.561 1_655 S
C459 C456 1.526 . S
C459 C460 1.396 1_455 S
C459 C464 1.390 . S
C460 C454 1.465 . S
C460 C459 1.396 1_655 S
C460 C461 1.399 . S
C461 H447 0.929 . S
C461 C460 1.399 . S
C461 C462 1.385 1_655 S
C462 H448 0.931 . S
C462 C461 1.385 1_455 S
C462 C463 1.389 . S
C463 C462 1.389 . S
C463 C464 1.387 . S
C464 H449 0.930 . S
C464 C459 1.390 . S
C464 C463 1.387 . S
H465 C477 0.930 . S
H466 C479 0.930 . S
H467 C480 0.930 . S
H468 C484 0.959 . S
H469 C484 0.959 . S
H470 C484 0.961 . S
H471 C485 0.960 . S
H472 C485 0.961 . S
H473 C485 0.959 . S
H474 C488 0.929 . S
H475 C489 0.931 . S
H476 C491 0.930 . S
C477 H465 0.930 . S
C477 C478 1.399 . S
C477 C482 1.399 . S
C478 C477 1.399 . S
C478 C479 1.376 . S
C479 H466 0.930 . S
C479 C478 1.376 . S
C479 C480 1.388 . S
C480 H467 0.930 . S
C480 C479 1.388 . S
C480 C481 1.390 . S
C481 C480 1.390 . S
C481 C482 1.394 . S
C481 C487 1.465 1_565 S
C482 C477 1.399 . S
C482 C481 1.394 . S
C482 C483 1.516 1_565 S
C483 C482 1.516 1_545 S
C483 C484 1.502 . S
C483 C485 1.561 1_545 S
C483 C486 1.526 . S
C484 H468 0.959 . S
C484 H469 0.959 . S
C484 H470 0.961 . S
C484 C483 1.502 . S
C485 H471 0.960 . S
C485 H472 0.961 . S
C485 H473 0.959 . S
C485 C483 1.561 1_565 S
C486 C483 1.526 . S
C486 C487 1.396 . S
C486 C491 1.390 . S
C487 C481 1.465 1_545 S
C487 C486 1.396 . S
C487 C488 1.399 . S
C488 H474 0.929 . S
C488 C487 1.399 . S
C488 C489 1.385 . S
C489 H475 0.931 . S
C489 C488 1.385 . S
C489 C490 1.389 . S
C490 C489 1.389 . S
C490 C491 1.387 . S
C491 H476 0.930 . S
C491 C486 1.390 . S
C491 C490 1.387 . S
H492 C504 0.930 . S
H493 C506 0.930 . S
H494 C507 0.930 . S
H495 C511 0.959 . S
H496 C511 0.959 . S
H497 C511 0.961 . S
H498 C512 0.960 . S
H499 C512 0.961 . S
H500 C512 0.959 . S
H501 C515 0.929 . S
H502 C516 0.931 . S
H503 C518 0.930 . S
C504 H492 0.930 . S
C504 C505 1.399 . S
C504 C509 1.399 . S
C505 C504 1.399 . S
C505 C506 1.376 . S
C506 H493 0.930 . S
C506 C505 1.376 . S
C506 C507 1.388 . S
C507 H494 0.930 . S
C507 C506 1.388 . S
C507 C508 1.390 . S
C508 C507 1.390 . S
C508 C509 1.394 . S
C508 C514 1.465 . S
C509 C504 1.399 . S
C509 C508 1.394 . S
C509 C510 1.516 . S
C510 C509 1.516 . S
C510 C511 1.502 . S
C510 C512 1.561 . S
C510 C513 1.526 . S
C511 H495 0.959 . S
C511 H496 0.959 . S
C511 H497 0.961 . S
C511 C510 1.502 . S
C512 H498 0.960 . S
C512 H499 0.961 . S
C512 H500 0.959 . S
C512 C510 1.561 . S
C513 C510 1.526 . S
C513 C514 1.396 . S
C513 C518 1.390 . S
C514 C508 1.465 . S
C514 C513 1.396 . S
C514 C515 1.399 . S
C515 H501 0.929 . S
C515 C514 1.399 . S
C515 C516 1.385 . S
C516 H502 0.931 . S
C516 C515 1.385 . S
C516 C517 1.389 . S
C517 C516 1.389 . S
C517 C518 1.387 . S
C518 H503 0.930 . S
C518 C513 1.390 . S
C518 C517 1.387 . S
H519 C531 0.930 . S
H520 C533 0.930 . S
H521 C534 0.930 . S
H522 C538 0.959 . S
H523 C538 0.959 . S
H524 C538 0.961 . S
H525 C539 0.960 . S
H526 C539 0.961 . S
H527 C539 0.959 . S
H528 C542 0.929 . S
H529 C543 0.931 . S
H530 C545 0.930 . S
C531 H519 0.930 . S
C531 C532 1.399 . S
C531 C536 1.399 . S
C532 C531 1.399 . S
C532 C533 1.376 . S
C533 H520 0.930 . S
C533 C532 1.376 . S
C533 C534 1.388 . S
C534 H521 0.930 . S
C534 C533 1.388 . S
C534 C535 1.390 . S
C535 C534 1.390 . S
C535 C536 1.394 . S
C535 C541 1.465 . S
C536 C531 1.399 . S
C536 C535 1.394 . S
C536 C537 1.516 . S
C537 C536 1.516 . S
C537 C538 1.502 . S
C537 C539 1.561 . S
C537 C540 1.526 . S
C538 H522 0.959 . S
C538 H523 0.959 . S
C538 H524 0.961 . S
C538 C537 1.502 . S
C539 H525 0.960 . S
C539 H526 0.961 . S
C539 H527 0.959 . S
C539 C537 1.561 . S
C540 C537 1.526 . S
C540 C541 1.396 . S
C540 C545 1.390 . S
C541 C535 1.465 . S
C541 C540 1.396 . S
C541 C542 1.399 . S
C542 H528 0.929 . S
C542 C541 1.399 . S
C542 C543 1.385 . S
C543 H529 0.931 . S
C543 C542 1.385 . S
C543 C544 1.389 . S
C544 C543 1.389 . S
C544 C545 1.387 . S
C545 H530 0.930 . S
C545 C540 1.390 . S
C545 C544 1.387 . S
H546 C558 0.930 . S
H547 C560 0.930 . S
H548 C561 0.930 . S
H549 C565 0.959 . S
H550 C565 0.959 . S
H551 C565 0.961 . S
H552 C566 0.960 . S
H553 C566 0.961 . S
H554 C566 0.959 . S
H555 C569 0.929 . S
H556 C570 0.931 . S
H557 C572 0.930 . S
C558 H546 0.930 . S
C558 C559 1.399 . S
C558 C563 1.399 . S
C559 C558 1.399 . S
C559 C560 1.376 . S
C560 H547 0.930 . S
C560 C559 1.376 . S
C560 C561 1.388 . S
C561 H548 0.930 . S
C561 C560 1.388 . S
C561 C562 1.390 . S
C562 C561 1.390 . S
C562 C563 1.394 . S
C562 C568 1.465 . S
C563 C558 1.399 . S
C563 C562 1.394 . S
C563 C564 1.516 . S
C564 C563 1.516 . S
C564 C565 1.502 . S
C564 C566 1.561 . S
C564 C567 1.526 . S
C565 H549 0.959 . S
C565 H550 0.959 . S
C565 H551 0.961 . S
C565 C564 1.502 . S
C566 H552 0.960 . S
C566 H553 0.961 . S
C566 H554 0.959 . S
C566 C564 1.561 . S
C567 C564 1.526 . S
C567 C568 1.396 . S
C567 C572 1.390 . S
C568 C562 1.465 . S
C568 C567 1.396 . S
C568 C569 1.399 . S
C569 H555 0.929 . S
C569 C568 1.399 . S
C569 C570 1.385 . S
C570 H556 0.931 . S
C570 C569 1.385 . S
C570 C571 1.389 . S
C571 C570 1.389 . S
C571 C572 1.387 . S
C572 H557 0.930 . S
C572 C567 1.390 . S
C572 C571 1.387 . S
H573 C585 0.930 . S
H574 C587 0.930 . S
H575 C588 0.930 . S
H576 C592 0.959 . S
H577 C592 0.959 . S
H578 C592 0.961 . S
H579 C593 0.960 . S
H580 C593 0.961 . S
H581 C593 0.959 . S
H582 C596 0.929 . S
H583 C597 0.931 . S
H584 C599 0.930 . S
C585 H573 0.930 . S
C585 C586 1.399 . S
C585 C590 1.399 . S
C586 C585 1.399 . S
C586 C587 1.376 . S
C587 H574 0.930 . S
C587 C586 1.376 . S
C587 C588 1.388 . S
C588 H575 0.930 . S
C588 C587 1.388 . S
C588 C589 1.390 . S
C589 C588 1.390 . S
C589 C590 1.394 . S
C589 C595 1.465 . S
C590 C585 1.399 . S
C590 C589 1.394 . S
C590 C591 1.516 . S
C591 C590 1.516 . S
C591 C592 1.502 . S
C591 C593 1.561 . S
C591 C594 1.526 . S
C592 H576 0.959 . S
C592 H577 0.959 . S
C592 H578 0.961 . S
C592 C591 1.502 . S
C593 H579 0.960 . S
C593 H580 0.961 . S
C593 H581 0.959 . S
C593 C591 1.561 . S
C594 C591 1.526 . S
C594 C595 1.396 . S
C594 C599 1.390 . S
C595 C589 1.465 . S
C595 C594 1.396 . S
C595 C596 1.399 . S
C596 H582 0.929 . S
C596 C595 1.399 . S
C596 C597 1.385 . S
C597 H583 0.931 . S
C597 C596 1.385 . S
C597 C598 1.389 . S
C598 C597 1.389 . S
C598 C599 1.387 . S
C599 H584 0.930 . S
C599 C594 1.390 . S
C599 C598 1.387 . S
H600 C612 0.930 . S
H601 C614 0.930 . S
H602 C615 0.930 . S
H603 C619 0.959 . S
H604 C619 0.959 . S
H605 C619 0.961 . S
H606 C620 0.960 . S
H607 C620 0.961 . S
H608 C620 0.959 . S
H609 C623 0.929 . S
H610 C624 0.931 1_455 S
H611 C626 0.930 . S
C612 H600 0.930 . S
C612 C613 1.399 . S
C612 C617 1.399 . S
C613 C612 1.399 . S
C613 C614 1.376 . S
C614 H601 0.930 . S
C614 C613 1.376 . S
C614 C615 1.388 . S
C615 H602 0.930 . S
C615 C614 1.388 . S
C615 C616 1.390 . S
C616 C615 1.390 . S
C616 C617 1.394 . S
C616 C622 1.465 . S
C617 C612 1.399 . S
C617 C616 1.394 . S
C617 C618 1.516 . S
C618 C617 1.516 . S
C618 C619 1.502 . S
C618 C620 1.561 . S
C618 C621 1.526 . S
C619 H603 0.959 . S
C619 H604 0.959 . S
C619 H605 0.961 . S
C619 C618 1.502 . S
C620 H606 0.960 . S
C620 H607 0.961 . S
C620 H608 0.959 . S
C620 C618 1.561 . S
C621 C618 1.526 . S
C621 C622 1.396 . S
C621 C626 1.390 . S
C622 C616 1.465 . S
C622 C621 1.396 . S
C622 C623 1.399 . S
C623 H609 0.929 . S
C623 C622 1.399 . S
C623 C624 1.385 . S
C624 H610 0.931 1_655 S
C624 C623 1.385 . S
C624 C625 1.389 . S
C625 C624 1.389 . S
C625 C626 1.387 . S
C626 H611 0.930 . S
C626 C621 1.390 . S
C626 C625 1.387 . S
H627 C639 0.930 . S
H628 C641 0.930 . S
H629 C642 0.930 . S
H630 C646 0.959 . S
H631 C646 0.959 . S
H632 C646 0.961 . S
H633 C647 0.960 . S
H634 C647 0.961 . S
H635 C647 0.959 . S
H636 C650 0.929 . S
H637 C651 0.931 . S
H638 C653 0.930 . S
C639 H627 0.930 . S
C639 C640 1.399 . S
C639 C644 1.399 . S
C640 C639 1.399 . S
C640 C641 1.376 . S
C641 H628 0.930 . S
C641 C640 1.376 . S
C641 C642 1.388 . S
C642 H629 0.930 . S
C642 C641 1.388 . S
C642 C643 1.390 . S
C643 C642 1.390 . S
C643 C644 1.394 . S
C643 C649 1.465 . S
C644 C639 1.399 . S
C644 C643 1.394 . S
C644 C645 1.516 . S
C645 C644 1.516 . S
C645 C646 1.502 . S
C645 C647 1.561 . S
C645 C648 1.526 . S
C646 H630 0.959 . S
C646 H631 0.959 . S
C646 H632 0.961 . S
C646 C645 1.502 . S
C647 H633 0.960 . S
C647 H634 0.961 . S
C647 H635 0.959 . S
C647 C645 1.561 . S
C648 C645 1.526 . S
C648 C649 1.396 . S
C648 C653 1.390 . S
C649 C643 1.465 . S
C649 C648 1.396 . S
C649 C650 1.399 . S
C650 H636 0.929 . S
C650 C649 1.399 . S
C650 C651 1.385 . S
C651 H637 0.931 . S
C651 C650 1.385 . S
C651 C652 1.389 . S
C652 C651 1.389 . S
C652 C653 1.387 . S
C653 H638 0.930 . S
C653 C648 1.390 . S
C653 C652 1.387 . S
H654 C666 0.930 . S
H655 C668 0.930 . S
H656 C669 0.930 . S
H657 C673 0.959 . S
H658 C673 0.959 . S
H659 C673 0.961 . S
H660 C674 0.960 . S
H661 C674 0.961 . S
H662 C674 0.959 . S
H663 C677 0.929 . S
H664 C678 0.931 . S
H665 C680 0.930 . S
C666 H654 0.930 . S
C666 C667 1.399 . S
C666 C671 1.399 . S
C667 C666 1.399 . S
C667 C668 1.376 . S
C668 H655 0.930 . S
C668 C667 1.376 . S
C668 C669 1.388 . S
C669 H656 0.930 . S
C669 C668 1.388 . S
C669 C670 1.390 . S
C670 C669 1.390 . S
C670 C671 1.394 . S
C670 C676 1.465 . S
C671 C666 1.399 . S
C671 C670 1.394 . S
C671 C672 1.516 . S
C672 C671 1.516 . S
C672 C673 1.502 . S
C672 C674 1.561 . S
C672 C675 1.526 . S
C673 H657 0.959 . S
C673 H658 0.959 . S
C673 H659 0.961 . S
C673 C672 1.502 . S
C674 H660 0.960 . S
C674 H661 0.961 . S
C674 H662 0.959 . S
C674 C672 1.561 . S
C675 C672 1.526 . S
C675 C676 1.396 . S
C675 C680 1.390 . S
C676 C670 1.465 . S
C676 C675 1.396 . S
C676 C677 1.399 . S
C677 H663 0.929 . S
C677 C676 1.399 . S
C677 C678 1.385 . S
C678 H664 0.931 . S
C678 C677 1.385 . S
C678 C679 1.389 . S
C679 C678 1.389 . S
C679 C680 1.387 . S
C680 H665 0.930 . S
C680 C675 1.390 . S
C680 C679 1.387 . S
H681 C693 0.930 . S
H682 C695 0.930 . S
H683 C696 0.930 . S
H684 C700 0.959 . S
H685 C700 0.959 . S
H686 C700 0.961 . S
H687 C701 0.960 . S
H688 C701 0.961 . S
H689 C701 0.959 . S
H690 C704 0.929 . S
H691 C705 0.931 . S
H692 C707 0.930 . S
C693 H681 0.930 . S
C693 C694 1.399 1_455 S
C693 C698 1.399 . S
C694 C693 1.399 1_655 S
C694 C695 1.376 . S
C695 H682 0.930 . S
C695 C694 1.376 . S
C695 C696 1.388 . S
C696 H683 0.930 . S
C696 C695 1.388 . S
C696 C697 1.390 . S
C697 C696 1.390 . S
C697 C698 1.394 1_655 S
C697 C703 1.465 . S
C698 C693 1.399 . S
C698 C697 1.394 1_455 S
C698 C699 1.516 . S
C699 C698 1.516 . S
C699 C700 1.502 . S
C699 C701 1.561 . S
C699 C702 1.526 . S
C700 H684 0.959 . S
C700 H685 0.959 . S
C700 H686 0.961 . S
C700 C699 1.502 . S
C701 H687 0.960 . S
C701 H688 0.961 . S
C701 H689 0.959 . S
C701 C699 1.561 . S
C702 C699 1.526 . S
C702 C703 1.396 1_455 S
C702 C707 1.390 . S
C703 C697 1.465 . S
C703 C702 1.396 1_655 S
C703 C704 1.399 . S
C704 H690 0.929 . S
C704 C703 1.399 . S
C704 C705 1.385 . S
C705 H691 0.931 . S
C705 C704 1.385 . S
C705 C706 1.389 1_655 S
C706 C705 1.389 1_455 S
C706 C707 1.387 . S
C707 H692 0.930 . S
C707 C702 1.390 . S
C707 C706 1.387 . S
H708 C720 0.930 . S
H709 C722 0.930 . S
H710 C723 0.930 . S
H711 C727 0.959 . S
H712 C727 0.959 . S
H713 C727 0.961 1_554 S
H714 C728 0.926 1_554 S
H715 C728 0.961 . S
H716 C728 0.959 . S
H717 C731 0.929 . S
H718 C732 0.931 . S
H719 C734 0.930 . S
C720 H708 0.930 . S
C720 C721 1.399 . S
C720 C725 1.399 . S
C721 C720 1.399 . S
C721 C722 1.376 1_545 S
C722 H709 0.930 . S
C722 C721 1.376 1_565 S
C722 C723 1.388 . S
C723 H710 0.930 . S
C723 C722 1.388 . S
C723 C724 1.390 . S
C724 C723 1.390 . S
C724 C725 1.394 1_565 S
C724 C730 1.465 1_554 S
C725 C720 1.399 . S
C725 C724 1.394 1_545 S
C725 C726 1.516 1_554 S
C726 C725 1.516 1_556 S
C726 C727 1.502 . S
C726 C728 1.561 . S
C726 C729 1.526 . S
C727 H711 0.959 . S
C727 H712 0.959 . S
C727 H713 0.961 1_556 S
C727 C726 1.502 . S
C728 H714 0.926 1_556 S
C728 H715 0.961 . S
C728 H716 0.959 . S
C728 C726 1.561 . S
C729 C726 1.526 . S
C729 C730 1.396 1_545 S
C729 C734 1.390 . S
C730 C724 1.465 1_556 S
C730 C729 1.396 1_565 S
C730 C731 1.399 . S
C731 H717 0.929 . S
C731 C730 1.399 . S
C731 C732 1.385 . S
C732 H718 0.931 . S
C732 C731 1.385 . S
C732 C733 1.389 . S
C733 C732 1.389 . S
C733 C734 1.387 1_565 S
C734 H719 0.930 . S
C734 C729 1.390 . S
C734 C733 1.387 1_545 S
H735 C747 0.930 . S
H736 C749 0.930 . S
H737 C750 0.930 . S
H738 C754 0.959 . S
H739 C754 0.959 . S
H740 C754 0.961 . S
H741 C755 0.960 . S
H742 C755 0.961 . S
H743 C755 0.959 . S
H744 C758 0.929 . S
H745 C759 0.931 . S
H746 C761 0.930 . S
C747 H735 0.930 . S
C747 C748 1.399 . S
C747 C752 1.399 . S
C748 C747 1.399 . S
C748 C749 1.376 . S
C749 H736 0.930 . S
C749 C748 1.376 . S
C749 C750 1.388 . S
C750 H737 0.930 . S
C750 C749 1.388 . S
C750 C751 1.390 . S
C751 C750 1.390 . S
C751 C752 1.394 . S
C751 C757 1.465 . S
C752 C747 1.399 . S
C752 C751 1.394 . S
C752 C753 1.516 . S
C753 C752 1.516 . S
C753 C754 1.502 . S
C753 C755 1.561 . S
C753 C756 1.526 . S
C754 H738 0.959 . S
C754 H739 0.959 . S
C754 H740 0.961 . S
C754 C753 1.502 . S
C755 H741 0.960 . S
C755 H742 0.961 . S
C755 H743 0.959 . S
C755 C753 1.561 . S
C756 C753 1.526 . S
C756 C757 1.396 . S
C756 C761 1.390 . S
C757 C751 1.465 . S
C757 C756 1.396 . S
C757 C758 1.399 . S
C758 H744 0.929 . S
C758 C757 1.399 . S
C758 C759 1.385 . S
C759 H745 0.931 . S
C759 C758 1.385 . S
C759 C760 1.389 . S
C760 C759 1.389 . S
C760 C761 1.387 . S
C761 H746 0.930 . S
C761 C756 1.390 . S
C761 C760 1.387 . S
H762 C774 0.930 . S
H763 C776 0.930 . S
H764 C777 0.930 . S
H765 C781 0.959 . S
H766 C781 0.959 . S
H767 C781 0.961 . S
H768 C782 0.960 . S
H769 C782 0.961 . S
H770 C782 0.959 . S
H771 C785 0.929 . S
H772 C786 0.931 . S
H773 C788 0.930 . S
C774 H762 0.930 . S
C774 C775 1.399 . S
C774 C779 1.399 . S
C775 C774 1.399 . S
C775 C776 1.376 1_455 S
C776 H763 0.930 . S
C776 C775 1.376 1_655 S
C776 C777 1.388 . S
C777 H764 0.930 . S
C777 C776 1.388 . S
C777 C778 1.390 . S
C778 C777 1.390 . S
C778 C779 1.394 1_655 S
C778 C784 1.465 . S
C779 C774 1.399 . S
C779 C778 1.394 1_455 S
C779 C780 1.516 . S
C780 C779 1.516 . S
C780 C781 1.502 . S
C780 C782 1.561 . S
C780 C783 1.526 . S
C781 H765 0.959 . S
C781 H766 0.959 . S
C781 H767 0.961 . S
C781 C780 1.502 . S
C782 H768 0.960 . S
C782 H769 0.961 . S
C782 H770 0.959 . S
C782 C780 1.561 . S
C783 C780 1.526 . S
C783 C784 1.396 1_455 S
C783 C788 1.390 . S
C784 C778 1.465 . S
C784 C783 1.396 1_655 S
C784 C785 1.399 . S
C785 H771 0.929 . S
C785 C784 1.399 . S
C785 C786 1.385 . S
C786 H772 0.931 . S
C786 C785 1.385 . S
C786 C787 1.389 . S
C787 C786 1.389 . S
C787 C788 1.387 1_655 S
C788 H773 0.930 . S
C788 C783 1.390 . S
C788 C787 1.387 1_455 S
H789 C801 0.930 . S
H790 C803 0.930 . S
H791 C804 0.930 . S
H792 C808 0.959 . S
H793 C808 0.959 . S
H794 C808 0.961 1_554 S
H795 C809 0.949 1_554 S
H796 C809 0.961 . S
H797 C809 0.959 . S
H798 C812 0.929 . S
H799 C813 0.931 . S
H800 C815 0.930 . S
C801 H789 0.930 . S
C801 C802 1.399 . S
C801 C806 1.399 . S
C802 C801 1.399 . S
C802 C803 1.376 1_565 S
C803 H790 0.930 . S
C803 C802 1.376 1_545 S
C803 C804 1.388 . S
C804 H791 0.930 . S
C804 C803 1.388 . S
C804 C805 1.390 . S
C805 C804 1.390 . S
C805 C806 1.394 1_545 S
C805 C811 1.465 1_554 S
C806 C801 1.399 . S
C806 C805 1.394 1_565 S
C806 C807 1.516 1_554 S
C807 C806 1.516 1_556 S
C807 C808 1.502 . S
C807 C809 1.561 . S
C807 C810 1.526 . S
C808 H792 0.959 . S
C808 H793 0.959 . S
C808 H794 0.961 1_556 S
C808 C807 1.502 . S
C809 H795 0.949 1_556 S
C809 H796 0.961 . S
C809 H797 0.959 . S
C809 C807 1.561 . S
C810 C807 1.526 . S
C810 C811 1.396 1_565 S
C810 C815 1.390 . S
C811 C805 1.465 1_556 S
C811 C810 1.396 1_545 S
C811 C812 1.399 . S
C812 H798 0.929 . S
C812 C811 1.399 . S
C812 C813 1.385 . S
C813 H799 0.931 . S
C813 C812 1.385 . S
C813 C814 1.389 . S
C814 C813 1.389 . S
C814 C815 1.387 1_545 S
C815 H800 0.930 . S
C815 C810 1.390 . S
C815 C814 1.387 1_565 S
C181 C159 1.329 . S
C193 C5 1.277 . S
C208 C19 1.326 . S
C220 C89 1.339 . S
C235 C33 1.287 . S
C247 C103 1.333 . S
C262 C47 1.279 . S
C274 C117 1.226 . S
C289 C131 1.240 . S
C301 C61 1.298 . S
C316 C75 1.324 . S
C328 C145 1.340 . S
C343 C54 1.103 . S
C355 C12 1.148 . S
C370 C68 1.116 . S
C382 C26 1.074 . S
C397 C82 1.111 . S
C409 C40 1.078 . S
C424 C96 1.112 . S
C436 C138 1.077 . S
C451 C110 1.127 . S
C463 C152 1.068 . S
C478 C124 1.114 . S
C490 C166 1.076 . S
C505 C116 0.807 . S
C517 C4 0.723 . S
C532 C18 0.747 . S
C544 C130 0.715 . S
C559 C144 0.712 . S
C571 C32 0.797 . S
C586 C158 0.706 . S
C598 C46 0.770 . S
C613 C88 0.773 . S
C625 C60 0.808 . S
C640 C74 0.761 . S
C652 C102 0.710 . S
C667 C137 1.530 . S
C679 C11 1.544 . S
C694 C25 1.535 . S
C706 C151 1.487 . S
C721 C165 1.525 . S
C733 C39 1.546 . S
C748 C53 1.488 . S
C760 C95 1.492 . S
C775 C67 1.484 . S
C787 C109 1.532 . S
C802 C123 1.516 . S
C814 C81 1.548 . S
