# Generated by pormake.
# Topology smc, (6)-cn, num edge types: 1
# Building blocks:
#     Node 0, Type 0, BuildingBlock: IZENUY_clean_sbu_0, # of connection points: 6
#     Node 1, Type 0, BuildingBlock: IZENUY_clean_sbu_0, # of connection points: 6
#     Node 2, Type 0, BuildingBlock: IZENUY_clean_sbu_0, # of connection points: 6
#     Node 3, Type 0, BuildingBlock: IZENUY_clean_sbu_0, # of connection points: 6
#     Node 4, Type 0, BuildingBlock: IZENUY_clean_sbu_0, # of connection points: 6
#     Node 5, Type 0, BuildingBlock: IZENUY_clean_sbu_0, # of connection points: 6
#     Node 6, Type 0, BuildingBlock: IZENUY_clean_sbu_0, # of connection points: 6
#     Node 7, Type 0, BuildingBlock: IZENUY_clean_sbu_0, # of connection points: 6
#     Node 8, Type 0, BuildingBlock: IZENUY_clean_sbu_0, # of connection points: 6
#     Edge 9, Type (0, 0), BuildingBlock: XIVTED_clean_linker_0, # of connection points: 2
#     Edge 10, Type (0, 0), BuildingBlock: XIVTED_clean_linker_0, # of connection points: 2
#     Edge 11, Type (0, 0), BuildingBlock: XIVTED_clean_linker_0, # of connection points: 2
#     Edge 12, Type (0, 0), BuildingBlock: XIVTED_clean_linker_0, # of connection points: 2
#     Edge 13, Type (0, 0), BuildingBlock: XIVTED_clean_linker_0, # of connection points: 2
#     Edge 14, Type (0, 0), BuildingBlock: XIVTED_clean_linker_0, # of connection points: 2
#     Edge 15, Type (0, 0), BuildingBlock: XIVTED_clean_linker_0, # of connection points: 2
#     Edge 16, Type (0, 0), BuildingBlock: XIVTED_clean_linker_0, # of connection points: 2
#     Edge 17, Type (0, 0), BuildingBlock: XIVTED_clean_linker_0, # of connection points: 2
#     Edge 18, Type (0, 0), BuildingBlock: XIVTED_clean_linker_0, # of connection points: 2
#     Edge 19, Type (0, 0), BuildingBlock: XIVTED_clean_linker_0, # of connection points: 2
#     Edge 20, Type (0, 0), BuildingBlock: XIVTED_clean_linker_0, # of connection points: 2
#     Edge 21, Type (0, 0), BuildingBlock: XIVTED_clean_linker_0, # of connection points: 2
#     Edge 22, Type (0, 0), BuildingBlock: XIVTED_clean_linker_0, # of connection points: 2
#     Edge 23, Type (0, 0), BuildingBlock: XIVTED_clean_linker_0, # of connection points: 2
#     Edge 24, Type (0, 0), BuildingBlock: XIVTED_clean_linker_0, # of connection points: 2
#     Edge 25, Type (0, 0), BuildingBlock: XIVTED_clean_linker_0, # of connection points: 2
#     Edge 26, Type (0, 0), BuildingBlock: XIVTED_clean_linker_0, # of connection points: 2
#     Edge 27, Type (0, 0), BuildingBlock: XIVTED_clean_linker_0, # of connection points: 2
#     Edge 28, Type (0, 0), BuildingBlock: XIVTED_clean_linker_0, # of connection points: 2
#     Edge 29, Type (0, 0), BuildingBlock: XIVTED_clean_linker_0, # of connection points: 2
#     Edge 30, Type (0, 0), BuildingBlock: XIVTED_clean_linker_0, # of connection points: 2
#     Edge 31, Type (0, 0), BuildingBlock: XIVTED_clean_linker_0, # of connection points: 2
#     Edge 32, Type (0, 0), BuildingBlock: XIVTED_clean_linker_0, # of connection points: 2
#     Edge 33, Type (0, 0), BuildingBlock: XIVTED_clean_linker_0, # of connection points: 2
#     Edge 34, Type (0, 0), BuildingBlock: XIVTED_clean_linker_0, # of connection points: 2
#     Edge 35, Type (0, 0), BuildingBlock: XIVTED_clean_linker_0, # of connection points: 2
# Relax obj value: 0.289
# Max RMSD: 0.292
# Mean RMSD: 0.291
data_MOF--net-smc--node1-IZENUY_clean_sbu_0--edge1-XIVTED_clean_linker_0
_symmetry_space_group_name_H-M    P1
_symmetry_Int_Tables_number       1
_symmetry_cell_setting            triclinic
loop_
_symmetry_equiv_pos_as_xyz
'x, y, z'
_cell_length_a     29.415782
_cell_length_b     29.390145
_cell_length_c     45.153524
_cell_angle_alpha  89.662554
_cell_angle_beta   90.179964
_cell_angle_gamma 120.07753
loop_
_atom_site_label
_atom_site_type_symbol
_atom_site_fract_x
_atom_site_fract_y
_atom_site_fract_z
_atom_type_partial_charge
Fe0 Fe 0.04127 0.4934 0.98326 0.0
Fe1 Fe 1.00517 0.38313 0.00862 0.0
O2 O 1.00234 0.44189 0.0084 0.0
Fe3 Fe 0.96069 0.44995 0.03337 0.0
O4 O 0.94892 0.49217 0.00871 0.0
O5 O 0.98237 0.48859 0.96592 0.0
O6 O 0.04183 0.45099 0.95422 0.0
C7 C 0.01014 0.4033 0.94877 0.0
C8 C 0.04947 0.54677 0.03556 0.0
O9 O 0.98694 0.37102 0.96958 0.0
C10 C 0.99751 0.39555 0.06831 0.0
O11 O 0.1015 0.50076 0.99962 0.0
O12 O 0.07569 0.41624 0.00029 0.0
O13 O 0.01755 0.50679 0.05054 0.0
O14 O 0.04859 0.54571 0.00766 0.0
C15 C 0.89688 0.34864 0.01337 0.0
O16 O 0.0235 0.39048 0.0477 0.0
O17 O 0.96368 0.40868 0.06266 0.0
C18 C 0.11118 0.4638 0.00392 0.0
O19 O 0.93509 0.34063 0.017 0.0
O20 O 0.90276 0.39402 0.01712 0.0
C21 C 0.94835 0.49303 0.98079 0.0
Fe22 Fe 0.63734 0.64234 0.00815 0.0
Fe23 Fe 0.52697 0.57626 0.98165 0.0
O24 O 0.57552 0.5838 0.00753 0.0
Fe25 Fe 0.56185 0.53185 0.03261 0.0
O26 O 0.60443 0.57377 0.06214 0.0
O27 O 0.62982 0.65394 0.04695 0.0
O28 O 0.61077 0.68536 0.99892 0.0
C29 C 0.56454 0.67768 0.00149 0.0
C30 C 0.66169 0.5615 0.01291 0.0
O31 O 0.52496 0.63246 0.99731 0.0
C32 C 0.5178 0.47896 0.98004 0.0
O33 O 0.65002 0.6354 0.96944 0.0
O34 O 0.57273 0.61727 0.95283 0.0
O35 O 0.61495 0.52438 0.01675 0.0
O36 O 0.67377 0.60876 0.01744 0.0
C37 C 0.46944 0.53276 0.03369 0.0
O38 O 0.5269 0.51916 0.96493 0.0
O39 O 0.51709 0.47994 0.0079 0.0
C40 C 0.62 0.63042 0.94818 0.0
O41 O 0.47192 0.53446 0.00577 0.0
O42 O 0.50735 0.53671 0.04916 0.0
C43 C 0.62163 0.62168 0.06765 0.0
Fe44 Fe 0.43917 0.96921 0.98605 0.0
Fe45 Fe 0.37239 0.01325 0.01085 0.0
O46 O 0.43252 0.01338 0.00935 0.0
Fe47 Fe 0.48629 0.05776 0.03106 0.0
O48 O 0.52488 0.08778 0.99872 0.0
O49 O 0.51099 0.01433 0.97861 0.0
O50 O 0.42643 0.99736 0.95391 0.0
C51 C 0.38534 0.99981 0.95017 0.0
C52 C 0.48975 0.96246 0.03426 0.0
O53 O 0.35496 0.99351 0.97168 0.0
C54 C 0.40671 0.02741 0.07039 0.0
O55 O 0.36941 0.91601 0.98986 0.0
O56 O 0.33807 0.94627 0.0238 0.0
O57 O 0.51339 0.01244 0.03632 0.0
O58 O 0.4515 0.93897 0.01707 0.0
C59 C 0.44219 0.1185 0.00986 0.0
O60 O 0.3796 0.03304 0.05028 0.0
O61 O 0.4497 0.03007 0.0645 0.0
C62 C 0.33674 0.90813 0.0105 0.0
O63 O 0.40329 0.08014 0.99793 0.0
O64 O 0.46958 0.111 0.02911 0.0
C65 C 0.53776 0.06428 0.98056 0.0
Fe66 Fe 0.63986 0.76936 0.36416 0.0
Fe67 Fe 0.68583 0.7031 0.34099 0.0
O68 O 0.68401 0.76234 0.34093 0.0
Fe69 Fe 0.72602 0.81522 0.31772 0.0
O70 O 0.75627 0.85662 0.34923 0.0
O71 O 0.68248 0.84229 0.36857 0.0
O72 O 0.67033 0.76127 0.39669 0.0
C73 C 0.67363 0.72087 0.40194 0.0
C74 C 0.62821 0.81422 0.31487 0.0
O75 O 0.67039 0.69024 0.38111 0.0
C76 C 0.69638 0.73319 0.28009 0.0
O77 O 0.58875 0.69894 0.36347 0.0
O78 O 0.61779 0.66541 0.33029 0.0
O79 O 0.67808 0.83911 0.3119 0.0
O80 O 0.60688 0.77642 0.33267 0.0
C81 C 0.79061 0.77489 0.33826 0.0
O82 O 0.70141 0.70653 0.30089 0.0
O83 O 0.69859 0.77625 0.28523 0.0
C84 C 0.58031 0.66444 0.34408 0.0
O85 O 0.75397 0.73644 0.35164 0.0
O86 O 0.78088 0.80128 0.31944 0.0
C87 C 0.73196 0.87143 0.36556 0.0
Fe88 Fe 0.26161 0.88225 0.36748 0.0
Fe89 Fe 0.33228 0.99492 0.34477 0.0
O90 O 0.27204 0.93459 0.34392 0.0
Fe91 Fe 0.22206 0.92614 0.31912 0.0
O92 O 0.17863 0.91643 0.34912 0.0
O93 O 0.18916 0.85606 0.37167 0.0
O94 O 0.27078 0.92099 0.39986 0.0
C95 C 0.31204 0.9636 0.40539 0.0
C96 C 0.217 0.82676 0.31796 0.0
O97 O 0.3437 0.99073 0.38482 0.0
C98 C 0.30744 0.97726 0.28382 0.0
O99 O 0.33113 0.89837 0.36688 0.0
O100 O 0.36857 0.96305 0.3345 0.0
O101 O 0.19457 0.85375 0.31398 0.0
O102 O 0.25319 0.84115 0.33652 0.0
C103 C 0.2632 0.03034 0.34025 0.0
O104 O 0.33109 0.00924 0.30479 0.0
O105 O 0.26391 0.93618 0.28796 0.0
C106 C 0.36677 0.92447 0.34781 0.0
O107 O 0.29954 0.03038 0.35501 0.0
O108 O 0.2392 0.99609 0.32025 0.0
C109 C 0.16287 0.87928 0.36736 0.0
Fe110 Fe 0.04052 0.34867 0.34259 0.0
Fe111 Fe 0.10956 0.30741 0.31773 0.0
O112 O 0.10088 0.34933 0.34191 0.0
Fe113 Fe 0.15287 0.39141 0.36536 0.0
O114 O 0.11414 0.36123 0.39781 0.0
O115 O 0.04365 0.36282 0.38283 0.0
O116 O 1.00558 0.28014 0.353 0.0
C117 C 1.00562 0.24395 0.3384 0.0
C118 C 0.10949 0.454 0.34606 0.0
O119 O 0.03954 0.25465 0.31821 0.0
C120 C 0.20847 0.40204 0.31601 0.0
O121 O 0.02776 0.3347 0.30218 0.0
O122 O 0.10045 0.33894 0.28616 0.0
O123 O 0.13642 0.44466 0.36468 0.0
O124 O 0.07162 0.41713 0.33257 0.0
C125 C 0.15576 0.2957 0.3664 0.0
O126 O 0.18192 0.35238 0.31285 0.0
O127 O 0.19382 0.42417 0.33412 0.0
C128 C 0.05978 0.34167 0.28126 0.0
O129 O 0.11841 0.27389 0.34843 0.0
O130 O 0.17929 0.34542 0.36986 0.0
C131 C 0.07055 0.35755 0.40333 0.0
Fe132 Fe 0.38338 0.14812 0.65532 0.0
Fe133 Fe 0.34242 0.03589 0.6786 0.0
O134 O 0.33975 0.09463 0.67762 0.0
Fe135 Fe 0.29361 0.10065 0.69956 0.0
O136 O 0.26226 0.10722 0.66715 0.0
O137 O 0.33468 0.17053 0.64747 0.0
O138 O 0.36008 0.10966 0.62228 0.0
C139 C 0.36008 0.06744 0.61789 0.0
C140 C 0.38413 0.20314 0.70268 0.0
O141 O 0.36235 0.04034 0.63932 0.0
C142 C 0.32796 0.05411 0.73842 0.0
O143 O 0.43891 0.13548 0.65945 0.0
O144 O 0.40934 0.07 0.69139 0.0
O145 O 0.33454 0.17365 0.70424 0.0
O146 O 0.41014 0.18914 0.6873 0.0
C147 C 0.23684 0.99587 0.67879 0.0
O148 O 0.32317 0.02205 0.71817 0.0
O149 O 0.32325 0.09357 0.7328 0.0
C150 C 0.44707 0.10917 0.6791 0.0
O151 O 0.27557 0.99782 0.66588 0.0
O152 O 0.24356 0.02975 0.69829 0.0
C153 C 0.28455 0.1449 0.6493 0.0
Fe154 Fe 0.90522 0.19756 0.70189 0.0
Fe155 Fe 0.97821 0.30811 0.67658 0.0
O156 O 0.91714 0.24852 0.67647 0.0
Fe157 Fe 0.86739 0.23924 0.651 0.0
O158 O 0.81328 0.1968 0.67547 0.0
O159 O 0.85012 0.20095 0.71859 0.0
O160 O 0.9473 0.24076 0.73108 0.0
C161 C 0.96175 0.28815 0.73635 0.0
C162 C 0.86058 0.14303 0.64957 0.0
O163 O 0.97068 0.32012 0.71538 0.0
C164 C 0.95937 0.29483 0.61676 0.0
O165 O 0.95904 0.1916 0.68616 0.0
O166 O 0.01671 0.27643 0.68582 0.0
O167 O 0.86821 0.18263 0.63435 0.0
O168 O 0.86124 0.14452 0.67746 0.0
C169 C 0.90309 0.34055 0.67034 0.0
O170 O 0.99035 0.30089 0.63775 0.0
O171 O 0.91194 0.2805 0.62186 0.0
C172 C 1.00554 0.22914 0.68233 0.0
O173 O 0.94969 0.34946 0.66733 0.0
O174 O 0.8642 0.29476 0.66661 0.0
C175 C 0.81148 0.1956 0.70338 0.0
Fe176 Fe 0.77225 0.6283 0.65217 0.0
Fe177 Fe 0.70572 0.67352 0.67564 0.0
O178 O 0.7654 0.67295 0.67507 0.0
Fe179 Fe 0.81852 0.71669 0.69742 0.0
O180 O 0.85827 0.74617 0.66538 0.0
O181 O 0.84453 0.67236 0.6459 0.0
O182 O 0.7616 0.65654 0.61948 0.0
C183 C 0.72063 0.65885 0.61475 0.0
C184 C 0.82016 0.62053 0.70129 0.0
O185 O 0.69058 0.65542 0.63597 0.0
C186 C 0.7377 0.6873 0.73599 0.0
O187 O 0.70202 0.57629 0.65442 0.0
O188 O 0.67024 0.60612 0.68819 0.0
O189 O 0.84435 0.6705 0.70332 0.0
O190 O 0.78221 0.59746 0.68383 0.0
C191 C 0.77632 0.77875 0.67567 0.0
O192 O 0.71095 0.69192 0.71521 0.0
O193 O 0.78084 0.68977 0.73068 0.0
C194 C 0.66878 0.56821 0.67463 0.0
O195 O 0.73762 0.74085 0.66329 0.0
O196 O 0.803 0.77059 0.69504 0.0
C197 C 0.87167 0.72226 0.64779 0.0
H198 H 0.38374 0.43657 0.04204 0.0
H199 H 0.20105 0.56022 0.01192 0.0
H200 H 0.43889 0.60202 0.04932 0.0
H201 H 0.14287 0.39333 0.01817 0.0
H202 H 0.28695 0.57658 0.02934 0.0
H203 H 0.29333 0.41932 0.03972 0.0
C204 C 0.3765 0.46903 0.04468 0.0
C205 C 0.41864 0.5207 0.04641 0.0
C206 C 0.25524 0.53638 0.02707 0.0
C207 C 0.31562 0.50188 0.04172 0.0
C208 C 0.20619 0.52701 0.01696 0.0
C209 C 0.16449 0.4753 0.01332 0.0
C210 C 0.26291 0.49376 0.03344 0.0
C211 C 0.17377 0.43391 0.02027 0.0
C212 C 0.32494 0.45937 0.04271 0.0
C213 C 0.4073 0.56159 0.04844 0.0
N214 N 0.22184 0.44404 0.02979 0.0
N215 N 0.357 0.5515 0.04544 0.0
H216 H 0.43885 0.8695 0.06289 0.0
H217 H 0.64046 0.78167 0.00638 0.0
H218 H 0.58946 0.97953 0.02564 0.0
H219 H 0.4735 0.6771 0.01623 0.0
H220 H 0.62957 0.85476 0.023 0.0
H221 H 0.46064 0.79981 0.05878 0.0
C222 C 0.4776 0.87947 0.0551 0.0
C223 C 0.51243 0.93037 0.04458 0.0
C224 C 0.59542 0.81576 0.02162 0.0
C225 C 0.53678 0.85023 0.03859 0.0
C226 C 0.60144 0.77393 0.01199 0.0
C227 C 0.55773 0.72285 0.0098 0.0
C228 C 0.54544 0.80653 0.02957 0.0
C229 C 0.50832 0.71554 0.01755 0.0
C230 C 0.48957 0.83943 0.05218 0.0
C231 C 0.5617 0.94095 0.03418 0.0
N232 N 0.50358 0.7568 0.02715 0.0
N233 N 0.5721 0.90093 0.0309 0.0
H234 H 0.24278 0.88051 0.03645 0.0
H235 H 0.14891 0.57456 0.05015 0.0
H236 H 0.33399 0.81348 0.00373 0.0
H237 H 0.0413 0.63328 0.04607 0.0
H238 H 0.22281 0.66514 0.04715 0.0
H239 H 0.17406 0.793 0.05187 0.0
C240 C 0.2484 0.84734 0.03246 0.0
C241 C 0.29412 0.85436 0.01843 0.0
C242 C 0.18307 0.65832 0.04786 0.0
C243 C 0.21569 0.75394 0.03678 0.0
C244 C 0.14098 0.60678 0.05019 0.0
C245 C 0.08906 0.5966 0.04884 0.0
C246 C 0.173 0.69996 0.04445 0.0
C247 C 0.08076 0.63958 0.04791 0.0
C248 C 0.20912 0.79742 0.04138 0.0
C249 C 0.29912 0.80981 0.01403 0.0
N250 N 0.12227 0.68939 0.04544 0.0
N251 N 0.26043 0.76147 0.02326 0.0
H252 H 0.37464 0.14631 0.98556 0.0
H253 H 0.5891 0.45063 0.9659 0.0
H254 H 0.53574 0.21269 0.01386 0.0
H255 H 0.42285 0.39265 0.96971 0.0
H256 H 0.57197 0.36005 0.97016 0.0
H257 H 0.39367 0.2331 0.9687 0.0
C258 C 0.4141 0.17921 0.98834 0.0
C259 C 0.45355 0.17219 0.00152 0.0
C260 C 0.53915 0.36698 0.96911 0.0
C261 C 0.47579 0.2719 0.98151 0.0
C262 C 0.54885 0.41851 0.96603 0.0
C263 C 0.50727 0.42895 0.96699 0.0
C264 C 0.48735 0.32563 0.97292 0.0
C265 C 0.45589 0.38614 0.96818 0.0
C266 C 0.4249 0.22875 0.97856 0.0
C267 C 0.50396 0.2164 0.00429 0.0
N268 N 0.44736 0.33639 0.97144 0.0
N269 N 0.51369 0.2644 0.99431 0.0
H270 H 0.57848 0.15703 0.95172 0.0
H271 H 0.86873 0.24475 0.008 0.0
H272 H 0.62054 0.04701 0.9875 0.0
H273 H 0.8067 0.34953 0.99779 0.0
H274 H 0.78485 0.17192 0.99081 0.0
H275 H 0.6701 0.22692 0.95546 0.0
C276 C 0.60759 0.14708 0.95903 0.0
C277 C 0.5919 0.09612 0.96931 0.0
C278 C 0.78976 0.21091 0.9922 0.0
C279 C 0.69657 0.1765 0.97495 0.0
C280 C 0.83756 0.2526 0.00218 0.0
C281 C 0.845 0.30366 0.00448 0.0
C282 C 0.74907 0.22022 0.98405 0.0
C283 C 0.80303 0.3111 0.99641 0.0
C284 C 0.6597 0.18725 0.96177 0.0
C285 C 0.63102 0.08562 0.97915 0.0
N286 N 0.75704 0.26995 0.98653 0.0
N287 N 0.68151 0.12574 0.9823 0.0
H288 H 0.84997 0.42244 0.96322 0.0
H289 H 0.7621 0.63366 0.99727 0.0
H290 H 0.95696 0.58834 0.97264 0.0
H291 H 0.65706 0.466 0.004 0.0
H292 H 0.83044 0.61795 0.97872 0.0
H293 H 0.77579 0.43837 0.96625 0.0
C294 C 0.85777 0.46252 0.96438 0.0
C295 C 0.9095 0.50422 0.96733 0.0
C296 C 0.79246 0.58449 0.98414 0.0
C297 C 0.82526 0.5227 0.97203 0.0
C298 C 0.75331 0.59338 0.99501 0.0
C299 C 0.70362 0.55107 0.00264 0.0
C300 C 0.78235 0.53283 0.98076 0.0
C301 C 0.69474 0.49985 0.99861 0.0
C302 C 0.81548 0.47152 0.96669 0.0
C303 C 0.91766 0.55528 0.96967 0.0
N304 N 0.73381 0.49217 0.98809 0.0
N305 N 0.87601 0.56303 0.97242 0.0
H306 H 0.88067 0.87052 0.33298 0.0
H307 H 0.0834 0.77569 0.36714 0.0
H308 H 0.82498 0.70956 0.35893 0.0
H309 H 0.11591 0.93317 0.38485 0.0
H310 H 0.98937 0.74735 0.36272 0.0
H311 H 0.96975 0.89251 0.34749 0.0
C312 C 0.88728 0.83974 0.34144 0.0
C313 C 0.84539 0.78817 0.34467 0.0
C314 C 0.01706 0.78778 0.36837 0.0
C315 C 0.94711 0.81298 0.36142 0.0
C316 C 0.07054 0.80372 0.37137 0.0
C317 C 0.10741 0.85683 0.37636 0.0
C318 C 1.00101 0.82551 0.36989 0.0
C319 C 0.0887 0.89184 0.38096 0.0
C320 C 0.93796 0.85236 0.35004 0.0
C321 C 0.85618 0.74989 0.35611 0.0
N322 N 0.03713 0.87589 0.37695 0.0
N323 N 0.90604 0.76292 0.36385 0.0
H324 H 0.25953 0.32106 0.36655 0.0
H325 H 0.16835 0.02499 0.33312 0.0
H326 H 0.1025 0.19467 0.38449 0.0
H327 H 0.32747 0.12935 0.36181 0.0
H328 H 0.14555 0.09158 0.347 0.0
H329 H 0.28888 0.25608 0.36304 0.0
C330 C 0.23179 0.28001 0.37101 0.0
C331 C 0.17851 0.2631 0.37574 0.0
C332 C 0.18547 0.09987 0.35027 0.0
C333 C 0.21101 0.18893 0.37035 0.0
C334 C 0.19859 0.06214 0.34201 0.0
C335 C 0.24985 0.07176 0.3462 0.0
C336 C 0.22412 0.148 0.36225 0.0
C337 C 0.28741 0.1204 0.35824 0.0
C338 C 0.24832 0.2429 0.36855 0.0
C339 C 0.14391 0.20926 0.38071 0.0
N340 N 0.27396 0.15698 0.3656 0.0
N341 N 0.16044 0.17404 0.3772 0.0
H342 H 0.95775 0.16287 0.29882 0.0
H343 H 0.79366 0.93351 0.41118 0.0
H344 H 0.95686 0.20117 0.39081 0.0
H345 H 0.7358 0.93888 0.32435 0.0
H346 H 0.85983 0.02778 0.40622 0.0
H347 H 0.88401 0.07409 0.30879 0.0
C348 C 0.94227 0.15244 0.32111 0.0
C349 C 0.9631 0.18934 0.34397 0.0
C350 C 0.83133 0.00847 0.38873 0.0
C351 C 0.87949 0.08814 0.3556 0.0
C352 C 0.79321 0.95508 0.39175 0.0
C353 C 0.7578 0.92895 0.36861 0.0
C354 C 0.83501 0.03476 0.36193 0.0
C355 C 0.76061 0.958 0.34321 0.0
C356 C 0.90005 0.10207 0.32676 0.0
C357 C 0.94148 0.17385 0.37252 0.0
N358 N 0.79905 0.00893 0.34031 0.0
N359 N 0.90111 0.12422 0.37763 0.0
H360 H 0.27032 0.78108 0.29758 0.0
H361 H 0.04159 0.48702 0.32855 0.0
H362 H 0.11385 0.74699 0.31955 0.0
H363 H 0.20507 0.54465 0.34814 0.0
H364 H 0.06333 0.57644 0.31423 0.0
H365 H 0.24159 0.68765 0.30185 0.0
C366 C 0.22925 0.75351 0.30206 0.0
C367 C 0.19437 0.77176 0.30819 0.0
C368 C 0.0943 0.56941 0.32172 0.0
C369 C 0.16167 0.66491 0.31407 0.0
C370 C 0.08203 0.51856 0.32998 0.0
C371 C 0.1216 0.50852 0.33984 0.0
C372 C 0.14671 0.61026 0.32256 0.0
C373 C 0.17329 0.55074 0.3411 0.0
C374 C 0.21318 0.70036 0.30505 0.0
C375 C 0.1418 0.73447 0.31435 0.0
N376 N 0.1844 0.59965 0.33232 0.0
N377 N 0.12711 0.68267 0.31758 0.0
H378 H 0.25492 0.50149 0.29547 0.0
H379 H 0.54826 0.56509 0.32411 0.0
H380 H 0.28727 0.37747 0.31714 0.0
H381 H 0.48976 0.66857 0.34737 0.0
H382 H 0.45895 0.49793 0.30939 0.0
H383 H 0.34857 0.56541 0.29901 0.0
C384 C 0.28212 0.48749 0.29978 0.0
C385 C 0.2634 0.43419 0.30612 0.0
C386 C 0.46585 0.53534 0.31775 0.0
C387 C 0.37039 0.50733 0.31106 0.0
C388 C 0.51657 0.57357 0.32622 0.0
C389 C 0.52622 0.62226 0.33728 0.0
C390 C 0.4249 0.54654 0.31954 0.0
C391 C 0.48391 0.63133 0.3394 0.0
C392 C 0.33539 0.52408 0.30229 0.0
C393 C 0.30021 0.41816 0.31189 0.0
N394 N 0.43519 0.59399 0.33038 0.0
N395 N 0.35215 0.45482 0.31471 0.0
H396 H 0.35868 0.82781 0.35248 0.0
H397 H 0.65258 0.91811 0.3116 0.0
H398 H 0.46561 0.98786 0.32562 0.0
H399 H 0.52559 0.75919 0.29989 0.0
H400 H 0.58805 0.94719 0.31654 0.0
H401 H 0.42296 0.8034 0.33625 0.0
C402 C 0.39593 0.85791 0.34352 0.0
C403 C 0.40697 0.90996 0.34062 0.0
C404 C 0.57447 0.90616 0.31215 0.0
C405 C 0.48052 0.88232 0.32172 0.0
C406 C 0.61142 0.88965 0.30892 0.0
C407 C 0.59454 0.83603 0.30573 0.0
C408 C 0.52057 0.86856 0.31253 0.0
C409 C 0.54034 0.80088 0.30264 0.0
C410 C 0.43232 0.84388 0.33388 0.0
C411 C 0.45558 0.94724 0.32832 0.0
N412 N 0.50533 0.81749 0.30684 0.0
N413 N 0.49079 0.93283 0.31956 0.0
H414 H 0.78072 0.26517 0.71698 0.0
H415 H 0.47746 0.04495 0.70555 0.0
H416 H 0.72706 0.09955 0.7149 0.0
H417 H 0.53972 0.20327 0.67247 0.0
H418 H 0.5657 0.0668 0.72098 0.0
H419 H 0.68918 0.24531 0.71479 0.0
C420 C 0.74942 0.22455 0.71753 0.0
C421 C 0.76121 0.18391 0.71653 0.0
C422 C 0.56004 0.09679 0.71044 0.0
C423 C 0.65684 0.16082 0.71308 0.0
C424 C 0.5097 0.0844 0.70151 0.0
C425 C 0.50117 0.12224 0.68736 0.0
C426 C 0.60236 0.14766 0.70567 0.0
C427 C 0.54457 0.17271 0.6829 0.0
C428 C 0.69734 0.21326 0.71573 0.0
C429 C 0.71945 0.1319 0.71641 0.0
N430 N 0.59332 0.184 0.69208 0.0
N431 N 0.66906 0.12179 0.71435 0.0
H432 H 0.97746 0.44479 0.67683 0.0
H433 H 0.76808 0.52588 0.72818 0.0
H434 H 0.81034 0.33782 0.68315 0.0
H435 H 0.92083 0.63913 0.69471 0.0
H436 H 0.79181 0.45751 0.72479 0.0
H437 H 0.9639 0.51646 0.69304 0.0
C438 C 0.93786 0.43622 0.68159 0.0
C439 C 0.89489 0.38488 0.67855 0.0
C440 C 0.82071 0.49752 0.71885 0.0
C441 C 0.87953 0.46688 0.69785 0.0
C442 C 0.80756 0.53677 0.72133 0.0
C443 C 0.84255 0.5882 0.71167 0.0
C444 C 0.86923 0.50965 0.70651 0.0
C445 C 0.89288 0.60006 0.70253 0.0
C446 C 0.93032 0.47723 0.691 0.0
C447 C 0.84467 0.37646 0.68523 0.0
N448 N 0.90446 0.56078 0.69962 0.0
N449 N 0.83844 0.41692 0.69461 0.0
H450 H 0.61671 0.48672 0.63585 0.0
H451 H 0.44626 0.2629 0.74856 0.0
H452 H 0.6198 0.52886 0.72748 0.0
H453 H 0.38751 0.27212 0.66272 0.0
H454 H 0.51513 0.35612 0.74365 0.0
H455 H 0.5393 0.40065 0.64647 0.0
C456 C 0.60137 0.47763 0.65822 0.0
C457 C 0.62443 0.51484 0.68079 0.0
C458 C 0.48577 0.33804 0.72644 0.0
C459 C 0.53653 0.41677 0.69312 0.0
C460 C 0.44606 0.28528 0.72946 0.0
C461 C 0.40968 0.26042 0.70653 0.0
C462 C 0.49002 0.36493 0.69981 0.0
C463 C 0.41291 0.29038 0.68149 0.0
C464 C 0.55703 0.42887 0.66422 0.0
C465 C 0.60281 0.50121 0.70943 0.0
N466 N 0.45296 0.34058 0.6785 0.0
N467 N 0.5603 0.45302 0.7149 0.0
H468 H 0.7104 0.80868 0.65116 0.0
H469 H 0.92955 0.11208 0.63461 0.0
H470 H 0.87039 0.87178 0.6808 0.0
H471 H 0.76422 0.05821 0.63982 0.0
H472 H 0.90997 0.02057 0.63777 0.0
H473 H 0.73123 0.89669 0.63541 0.0
C474 C 0.74997 0.84109 0.65443 0.0
C475 C 0.78859 0.83284 0.66769 0.0
C476 C 0.87787 0.02864 0.63729 0.0
C477 C 0.8129 0.93378 0.64895 0.0
C478 C 0.88896 0.0807 0.6349 0.0
C479 C 0.84838 0.09251 0.63651 0.0
C480 C 0.82567 0.98814 0.64109 0.0
C481 C 0.7965 0.05062 0.63779 0.0
C482 C 0.7618 0.8913 0.64531 0.0
C483 C 0.83922 0.87643 0.67114 0.0
N484 N 0.7866 1.00029 0.64036 0.0
N485 N 0.84997 0.92503 0.66175 0.0
H486 H 0.95093 0.69855 0.65115 0.0
H487 H 0.14476 0.99728 0.68037 0.0
H488 H 0.91717 0.81913 0.62361 0.0
H489 H 0.20812 0.89713 0.65902 0.0
H490 H 0.05805 0.92781 0.664 0.0
H491 H 0.0445 0.76585 0.65524 0.0
C492 C 0.9635 0.73864 0.64463 0.0
C493 C 0.92633 0.75344 0.63721 0.0
C494 C 0.09101 0.9211 0.66286 0.0
C495 C 0.03205 0.83042 0.6432 0.0
C496 C 0.14026 0.96045 0.67256 0.0
C497 C 0.18353 0.95281 0.67121 0.0
C498 C 0.08467 0.8733 0.65233 0.0
C499 C 0.17565 0.90452 0.66044 0.0
C500 C 0.0167 0.77715 0.64742 0.0
C501 C 0.94464 0.80619 0.62948 0.0
N502 N 0.12703 0.86629 0.6517 0.0
N503 N 0.99588 0.84296 0.63346 0.0
H504 H 0.30368 0.24675 0.65109 0.0
H505 H 0.99805 0.1337 0.67114 0.0
H506 H 0.18636 0.08923 0.627 0.0
H507 H 0.10982 0.30022 0.67253 0.0
H508 H 0.06727 0.11788 0.65346 0.0
H509 H 0.23496 0.2701 0.65481 0.0
C510 C 0.26397 0.21772 0.64525 0.0
C511 C 0.25088 0.1659 0.63886 0.0
C512 C 0.07662 0.15795 0.65745 0.0
C513 C 0.17148 0.19154 0.6444 0.0
C514 C 0.03706 0.16698 0.66772 0.0
C515 C 0.04788 0.21837 0.67339 0.0
C516 C 0.12779 0.2005 0.65313 0.0
C517 C 0.09953 0.25986 0.66865 0.0
C518 C 0.22441 0.2308 0.64789 0.0
C519 C 0.19819 0.12967 0.63205 0.0
N520 N 0.13756 0.25 0.65901 0.0
N521 N 0.16036 0.14278 0.63567 0.0
H522 H 0.11835 0.34953 0.2329 0.0
H523 H 0.93777 0.38975 0.11597 0.0
H524 H 0.97617 0.3486 0.25779 0.0
H525 H 0.07217 0.37557 0.09205 0.0
H526 H 0.95069 0.37496 0.16768 0.0
H527 H 0.1016 0.35976 0.18152 0.0
C528 C 0.08338 0.35141 0.22764 0.0
C529 C 0.0485 0.34808 0.24994 0.0
C530 C 0.97722 0.37484 0.15114 0.0
C531 C 0.02921 0.36003 0.19042 0.0
C532 C 0.96998 0.38333 0.12153 0.0
C533 C 1.00408 0.38401 0.09951 0.0
C534 C 0.01904 0.36721 0.15898 0.0
C535 C 0.04489 0.3753 0.10818 0.0
C536 C 0.07387 0.3572 0.19809 0.0
C537 C 1.00407 0.35092 0.24143 0.0
N538 N 0.05134 0.36749 0.13726 0.0
N539 N 0.99573 0.35685 0.21228 0.0
H540 H 0.67319 0.63659 0.25771 0.0
H541 H 0.65899 0.72115 0.08993 0.0
H542 H 0.7053 0.79132 0.23103 0.0
H543 H 0.61673 0.56315 0.11606 0.0
H544 H 0.68117 0.74867 0.14149 0.0
H545 H 0.65785 0.60977 0.20552 0.0
C546 C 0.67742 0.66496 0.24094 0.0
C547 C 0.69026 0.71612 0.24883 0.0
C548 C 0.66714 0.70798 0.1359 0.0
C549 C 0.67265 0.68587 0.18929 0.0
C550 C 0.65449 0.6923 0.10645 0.0
C551 C 0.63589 0.6398 0.0986 0.0
C552 C 0.6612 0.67091 0.15768 0.0
C553 C 0.63081 0.60408 0.12103 0.0
C554 C 0.66849 0.64965 0.21119 0.0
C555 C 0.69507 0.75128 0.22613 0.0
N556 N 0.64332 0.62026 0.14949 0.0
N557 N 0.68615 0.73547 0.19753 0.0
H558 H 0.41607 0.96368 0.10988 0.0
H559 H 0.34958 0.07122 0.2537 0.0
H560 H 0.3615 0.07475 0.1016 0.0
H561 H 0.30885 0.9091 0.24482 0.0
H562 H 0.37294 0.08504 0.2006 0.0
H563 H 0.39479 0.9543 0.16261 0.0
C564 C 0.39942 0.98598 0.11926 0.0
C565 C 0.39015 0.01978 0.10153 0.0
C566 C 0.35909 0.04665 0.21049 0.0
C567 C 0.36703 0.0102 0.16177 0.0
C568 C 0.34643 0.03895 0.24066 0.0
C569 C 0.32755 0.98905 0.25338 0.0
C570 C 0.35397 1.00442 0.19354 0.0
C571 C 0.32329 0.94813 0.23568 0.0
C572 C 0.38736 0.98062 0.14924 0.0
C573 C 0.3686 0.04788 0.11463 0.0
N574 N 0.33674 0.95679 0.20668 0.0
N575 N 0.35815 0.04289 0.14423 0.0
H576 H 0.29035 0.94823 0.92136 0.0
H577 H 0.38935 0.12716 0.77833 0.0
H578 H 0.45228 0.06923 0.91032 0.0
H579 H 0.2843 0.9603 0.76888 0.0
H580 H 0.40051 0.11353 0.83071 0.0
H581 H 0.27448 0.95912 0.86868 0.0
C582 C 0.32218 0.97744 0.90792 0.0
C583 C 0.3726 0.00799 0.91989 0.0
C584 C 0.37505 0.07994 0.81714 0.0
C585 C 0.35485 0.02075 0.86063 0.0
C586 C 0.36867 0.08762 0.78738 0.0
C587 C 0.33615 0.04468 0.76943 0.0
C588 C 0.34768 0.02915 0.82921 0.0
C589 C 0.31015 0.99421 0.78209 0.0
C590 C 0.31329 0.98321 0.87801 0.0
C591 C 0.4129 0.04492 0.90173 0.0
N592 N 0.31605 0.98776 0.81148 0.0
N593 N 0.40306 0.0506 0.87303 0.0
H594 H 0.04637 0.46529 0.89948 0.0
H595 H 0.93797 0.22666 0.78581 0.0
H596 H 0.95679 0.30242 0.92652 0.0
H597 H 1.00235 0.38851 0.75845 0.0
H598 H 0.94884 0.25395 0.83732 0.0
H599 H 0.03464 0.43794 0.84797 0.0
C600 C 0.02431 0.42364 0.89463 0.0
C601 C 1.00277 0.38602 0.9175 0.0
C602 C 0.96061 0.28354 0.8201 0.0
C603 C 0.98916 0.35452 0.85819 0.0
C604 C 0.95466 0.26809 0.79058 0.0
C605 C 0.96956 0.30544 0.76763 0.0
C606 C 0.98192 0.33685 0.82693 0.0
C607 C 0.99051 0.3584 0.77535 0.0
C608 C 0.0175 0.40813 0.86511 0.0
C609 C 0.97422 0.33275 0.90968 0.0
N610 N 0.99621 0.37255 0.80438 0.0
N611 N 0.96842 0.31857 0.88066 0.0
H612 H 0.64569 0.6768 0.75799 0.0
H613 H 0.71686 0.65284 0.92707 0.0
H614 H 0.79056 0.6853 0.7854 0.0
H615 H 0.56826 0.63488 0.89894 0.0
H616 H 0.74656 0.66937 0.87546 0.0
H617 H 0.61827 0.66573 0.80993 0.0
C618 C 0.6718 0.67657 0.77488 0.0
C619 C 0.72046 0.68198 0.76725 0.0
C620 C 0.7075 0.66195 0.88065 0.0
C621 C 0.68938 0.66924 0.82671 0.0
C622 C 0.69061 0.65264 0.91012 0.0
C623 C 0.64 0.6424 0.9174 0.0
C624 C 0.67357 0.6611 0.85834 0.0
C625 C 0.60758 0.64243 0.89445 0.0
C626 C 0.65613 0.67017 0.80453 0.0
C627 C 0.75264 0.68122 0.79014 0.0
N628 N 0.62488 0.65155 0.86602 0.0
N629 N 0.73652 0.67493 0.81875 0.0
H630 H 0.6507 0.75997 0.45069 0.0
H631 H 0.75054 0.6258 0.56635 0.0
H632 H 0.69948 0.6497 0.42478 0.0
H633 H 0.65843 0.69613 0.59212 0.0
H634 H 0.73363 0.63538 0.51453 0.0
H635 H 0.6552 0.73893 0.50244 0.0
C636 C 0.66238 0.73125 0.45586 0.0
C637 C 0.67515 0.7068 0.43329 0.0
C638 C 0.71666 0.64829 0.53146 0.0
C639 C 0.68035 0.68263 0.49276 0.0
C640 C 0.72646 0.64308 0.56109 0.0
C641 C 0.70616 0.66064 0.58359 0.0
C642 C 0.68701 0.67202 0.52412 0.0
C643 C 0.67479 0.68211 0.57546 0.0
C644 C 0.66457 0.71904 0.48547 0.0
C645 C 0.68943 0.66954 0.44143 0.0
N646 N 0.66669 0.68783 0.5463 0.0
N647 N 0.69214 0.65894 0.47055 0.0
H648 H 0.27233 0.89997 0.4538 0.0
H649 H 0.39454 0.13182 0.56968 0.0
H650 H 0.38196 0.06034 0.4285 0.0
H651 H 0.32808 0.96911 0.59554 0.0
H652 H 0.38954 0.10667 0.51796 0.0
H653 H 0.29096 0.92454 0.50569 0.0
C654 C 0.30046 0.94045 0.45916 0.0
C655 C 0.32534 0.97837 0.43675 0.0
C656 C 0.37654 0.07649 0.53491 0.0
C657 C 0.34668 0.00663 0.49629 0.0
C658 C 0.3791 0.09072 0.56446 0.0
C659 C 0.36119 0.05233 0.58692 0.0
C660 C 0.3551 0.02335 0.52763 0.0
C661 C 0.34221 0.99986 0.57889 0.0
C662 C 0.31129 0.95429 0.48883 0.0
C663 C 0.36184 0.02996 0.44506 0.0
N664 N 0.339 0.98677 0.5498 0.0
N665 N 0.371 0.04275 0.47423 0.0
H666 H 0.05641 0.32041 0.59424 0.0
H667 H 0.97769 0.34367 0.42653 0.0
H668 H 0.90474 0.29724 0.56841 0.0
H669 H 0.12489 0.35533 0.45187 0.0
H670 H 0.95157 0.33081 0.47881 0.0
H671 H 0.08403 0.33788 0.54228 0.0
C672 C 0.02904 0.31923 0.57772 0.0
C673 C 0.9782 0.30726 0.58576 0.0
C674 C 0.98963 0.3363 0.47285 0.0
C675 C 0.00937 0.32706 0.5263 0.0
C676 C 1.00453 0.3437 0.44301 0.0
C677 C 0.05349 0.35057 0.4347 0.0
C678 C 0.02401 0.3359 0.49449 0.0
C679 C 0.08667 0.35012 0.45709 0.0
C680 C 0.04473 0.32908 0.54805 0.0
C681 C 0.94431 0.30612 0.56333 0.0
N682 N 0.07133 0.34292 0.48585 0.0
N683 N 0.96047 0.31582 0.53471 0.0
loop_
_geom_bond_atom_site_label_1
_geom_bond_atom_site_label_2
_geom_bond_distance
_geom_bond_site_symmetry_2
_ccdc_geom_bond_type
Fe0 O2 1.918 1_556 S
Fe0 O5 1.997 1_455 S
Fe0 O6 2.002 . S
Fe0 O11 1.976 . S
Fe0 O14 1.996 1_556 S
Fe1 O2 1.918 . S
Fe1 O9 1.997 1_454 S
Fe1 O12 1.996 1_554 S
Fe1 O16 1.976 . S
Fe1 O19 2.002 1_455 S
O2 Fe0 1.918 1_554 S
O2 Fe1 1.918 . S
O2 Fe3 1.918 1_455 S
Fe3 O2 1.918 1_655 S
Fe3 O4 2.002 . S
Fe3 O13 1.976 1_655 S
Fe3 O17 1.996 . S
Fe3 O20 1.997 . S
O4 Fe3 2.002 . S
O4 C21 1.295 1_554 S
O5 Fe0 1.997 1_655 S
O5 C21 1.235 . S
O6 Fe0 2.002 . S
O6 C7 1.295 1_455 S
C7 O6 1.295 1_655 S
C7 O9 1.235 . S
C8 O13 1.287 . S
C8 O14 1.255 . S
O9 Fe1 1.997 1_656 S
O9 C7 1.235 . S
C10 O16 1.287 . S
C10 O17 1.255 1_455 S
O11 Fe0 1.976 . S
O11 C18 1.287 . S
O12 Fe1 1.996 1_556 S
O12 C18 1.255 . S
O13 Fe3 1.976 1_455 S
O13 C8 1.287 . S
O14 Fe0 1.996 1_554 S
O14 C8 1.255 . S
C15 O19 1.295 . S
C15 O20 1.235 . S
O16 Fe1 1.976 . S
O16 C10 1.287 . S
O17 Fe3 1.996 . S
O17 C10 1.255 1_655 S
C18 O11 1.287 . S
C18 O12 1.255 . S
O19 Fe1 2.002 1_655 S
O19 C15 1.295 . S
O20 Fe3 1.997 . S
O20 C15 1.235 . S
C21 O4 1.295 1_556 S
C21 O5 1.235 . S
Fe22 O24 1.918 . S
Fe22 O27 1.997 . S
Fe22 O28 2.002 1_554 S
Fe22 O33 1.976 1_554 S
Fe22 O36 1.996 . S
Fe23 O24 1.918 1_556 S
Fe23 O31 1.997 . S
Fe23 O34 1.996 . S
Fe23 O38 1.976 . S
Fe23 O41 2.002 1_556 S
O24 Fe22 1.918 . S
O24 Fe23 1.918 1_554 S
O24 Fe25 1.918 . S
Fe25 O24 1.918 . S
Fe25 O26 2.002 . S
Fe25 O35 1.976 . S
Fe25 O39 1.996 . S
Fe25 O42 1.997 . S
O26 Fe25 2.002 . S
O26 C43 1.295 . S
O27 Fe22 1.997 . S
O27 C43 1.235 . S
O28 Fe22 2.002 1_556 S
O28 C29 1.295 . S
C29 O28 1.295 . S
C29 O31 1.235 . S
C30 O35 1.287 . S
C30 O36 1.255 . S
O31 Fe23 1.997 . S
O31 C29 1.235 . S
C32 O38 1.287 . S
C32 O39 1.255 1_556 S
O33 Fe22 1.976 1_556 S
O33 C40 1.287 . S
O34 Fe23 1.996 . S
O34 C40 1.255 . S
O35 Fe25 1.976 . S
O35 C30 1.287 . S
O36 Fe22 1.996 . S
O36 C30 1.255 . S
C37 O41 1.295 . S
C37 O42 1.235 . S
O38 Fe23 1.976 . S
O38 C32 1.287 . S
O39 Fe25 1.996 . S
O39 C32 1.255 1_554 S
C40 O33 1.287 . S
C40 O34 1.255 . S
O41 Fe23 2.002 1_554 S
O41 C37 1.295 . S
O42 Fe25 1.997 . S
O42 C37 1.235 . S
C43 O26 1.295 . S
C43 O27 1.235 . S
Fe44 O46 1.918 1_566 S
Fe44 O49 1.997 1_565 S
Fe44 O50 2.002 . S
Fe44 O55 1.976 . S
Fe44 O58 1.996 1_556 S
Fe45 O46 1.918 . S
Fe45 O53 1.997 1_554 S
Fe45 O56 1.993 1_544 S
Fe45 O60 1.976 1_545 S
Fe45 O63 2.002 . S
O46 Fe44 1.918 1_544 S
O46 Fe45 1.918 . S
O46 Fe47 1.918 . S
Fe47 O46 1.918 . S
Fe47 O48 2.002 . S
Fe47 O57 1.976 1_545 S
Fe47 O61 1.996 . S
Fe47 O64 1.997 . S
O48 Fe47 2.002 . S
O48 C65 1.295 1_554 S
O49 Fe44 1.997 1_545 S
O49 C65 1.235 . S
O50 Fe44 2.002 . S
O50 C51 1.295 1_565 S
C51 O50 1.295 1_545 S
C51 O53 1.235 . S
C52 O57 1.287 . S
C52 O58 1.255 . S
O53 Fe45 1.997 1_556 S
O53 C51 1.235 . S
C54 O60 1.287 . S
C54 O61 1.255 1_565 S
O55 Fe44 1.976 . S
O55 C62 1.287 . S
O56 Fe45 1.993 1_566 S
O56 C62 1.260 . S
O57 Fe47 1.976 1_565 S
O57 C52 1.287 . S
O58 Fe44 1.996 1_554 S
O58 C52 1.255 . S
C59 O63 1.295 . S
C59 O64 1.235 . S
O60 Fe45 1.976 1_565 S
O60 C54 1.287 . S
O61 Fe47 1.996 . S
O61 C54 1.255 1_545 S
C62 O55 1.287 . S
C62 O56 1.260 . S
O63 Fe45 2.002 . S
O63 C59 1.295 . S
O64 Fe47 1.997 . S
O64 C59 1.235 . S
C65 O48 1.295 1_556 S
C65 O49 1.235 . S
Fe66 O68 1.918 . S
Fe66 O71 1.997 . S
Fe66 O72 2.002 . S
Fe66 O77 1.976 . S
Fe66 O80 1.996 . S
Fe67 O68 1.918 . S
Fe67 O75 1.997 . S
Fe67 O78 1.996 . S
Fe67 O82 1.976 . S
Fe67 O85 2.002 . S
O68 Fe66 1.918 . S
O68 Fe67 1.918 . S
O68 Fe69 1.918 . S
Fe69 O68 1.918 . S
Fe69 O70 2.002 . S
Fe69 O79 1.976 . S
Fe69 O83 1.996 . S
Fe69 O86 1.997 . S
O70 Fe69 2.002 . S
O70 C87 1.295 . S
O71 Fe66 1.997 . S
O71 C87 1.235 . S
O72 Fe66 2.002 . S
O72 C73 1.295 . S
C73 O72 1.295 . S
C73 O75 1.235 . S
C74 O79 1.287 . S
C74 O80 1.255 . S
O75 Fe67 1.997 . S
O75 C73 1.235 . S
C76 O82 1.287 . S
C76 O83 1.255 . S
O77 Fe66 1.976 . S
O77 C84 1.287 . S
O78 Fe67 1.996 . S
O78 C84 1.255 . S
O79 Fe69 1.976 . S
O79 C74 1.287 . S
O80 Fe66 1.996 . S
O80 C74 1.255 . S
C81 O85 1.295 . S
C81 O86 1.235 . S
O82 Fe67 1.976 . S
O82 C76 1.287 . S
O83 Fe69 1.996 . S
O83 C76 1.255 . S
C84 O77 1.287 . S
C84 O78 1.255 . S
O85 Fe67 2.002 . S
O85 C81 1.295 . S
O86 Fe69 1.997 . S
O86 C81 1.235 . S
C87 O70 1.295 . S
C87 O71 1.235 . S
Fe88 O90 1.918 . S
Fe88 O93 1.997 . S
Fe88 O94 2.002 . S
Fe88 O99 1.976 . S
Fe88 O102 1.996 . S
Fe89 O90 1.918 . S
Fe89 O97 1.997 . S
Fe89 O100 1.996 . S
Fe89 O104 1.976 . S
Fe89 O107 2.002 1_565 S
O90 Fe88 1.918 . S
O90 Fe89 1.918 . S
O90 Fe91 1.918 . S
Fe91 O90 1.918 . S
Fe91 O92 2.002 . S
Fe91 O101 1.976 . S
Fe91 O105 1.996 . S
Fe91 O108 1.997 . S
O92 Fe91 2.002 . S
O92 C109 1.295 . S
O93 Fe88 1.997 . S
O93 C109 1.235 . S
O94 Fe88 2.002 . S
O94 C95 1.295 . S
C95 O94 1.295 . S
C95 O97 1.235 . S
C96 O101 1.287 . S
C96 O102 1.255 . S
O97 Fe89 1.997 . S
O97 C95 1.235 . S
C98 O104 1.287 . S
C98 O105 1.255 . S
O99 Fe88 1.976 . S
O99 C106 1.287 . S
O100 Fe89 1.996 . S
O100 C106 1.255 . S
O101 Fe91 1.976 . S
O101 C96 1.287 . S
O102 Fe88 1.996 . S
O102 C96 1.255 . S
C103 O107 1.295 . S
C103 O108 1.235 1_545 S
O104 Fe89 1.976 . S
O104 C98 1.287 . S
O105 Fe91 1.996 . S
O105 C98 1.255 . S
C106 O99 1.287 . S
C106 O100 1.255 . S
O107 Fe89 2.002 1_545 S
O107 C103 1.295 . S
O108 Fe91 1.997 . S
O108 C103 1.235 1_565 S
C109 O92 1.295 . S
C109 O93 1.235 . S
Fe110 O112 1.918 . S
Fe110 O115 1.997 . S
Fe110 O116 2.002 1_455 S
Fe110 O121 1.976 . S
Fe110 O124 1.996 . S
Fe111 O112 1.918 . S
Fe111 O119 1.997 . S
Fe111 O122 1.996 . S
Fe111 O126 1.976 . S
Fe111 O129 2.002 . S
O112 Fe110 1.918 . S
O112 Fe111 1.918 . S
O112 Fe113 1.918 . S
Fe113 O112 1.918 . S
Fe113 O114 2.002 . S
Fe113 O123 1.976 . S
Fe113 O127 1.996 . S
Fe113 O130 1.997 . S
O114 Fe113 2.002 . S
O114 C131 1.295 . S
O115 Fe110 1.997 . S
O115 C131 1.235 . S
O116 Fe110 2.002 1_655 S
O116 C117 1.295 . S
C117 O116 1.295 . S
C117 O119 1.235 1_655 S
C118 O123 1.287 . S
C118 O124 1.255 . S
O119 Fe111 1.997 . S
O119 C117 1.235 1_455 S
C120 O126 1.287 . S
C120 O127 1.255 . S
O121 Fe110 1.976 . S
O121 C128 1.287 . S
O122 Fe111 1.996 . S
O122 C128 1.255 . S
O123 Fe113 1.976 . S
O123 C118 1.287 . S
O124 Fe110 1.996 . S
O124 C118 1.255 . S
C125 O129 1.295 . S
C125 O130 1.235 . S
O126 Fe111 1.976 . S
O126 C120 1.287 . S
O127 Fe113 1.996 . S
O127 C120 1.255 . S
C128 O121 1.287 . S
C128 O122 1.255 . S
O129 Fe111 2.002 . S
O129 C125 1.295 . S
O130 Fe113 1.997 . S
O130 C125 1.235 . S
C131 O114 1.295 . S
C131 O115 1.235 . S
Fe132 O134 1.918 . S
Fe132 O137 1.997 . S
Fe132 O138 2.002 . S
Fe132 O143 1.976 . S
Fe132 O146 1.996 . S
Fe133 O134 1.918 . S
Fe133 O141 1.997 . S
Fe133 O144 1.996 . S
Fe133 O148 1.976 . S
Fe133 O151 2.002 1_545 S
O134 Fe132 1.918 . S
O134 Fe133 1.918 . S
O134 Fe135 1.918 . S
Fe135 O134 1.918 . S
Fe135 O136 2.002 . S
Fe135 O145 1.976 . S
Fe135 O149 1.996 . S
Fe135 O152 1.997 . S
O136 Fe135 2.002 . S
O136 C153 1.295 . S
O137 Fe132 1.997 . S
O137 C153 1.235 . S
O138 Fe132 2.002 . S
O138 C139 1.295 . S
C139 O138 1.295 . S
C139 O141 1.235 . S
C140 O145 1.287 . S
C140 O146 1.255 . S
O141 Fe133 1.997 . S
O141 C139 1.235 . S
C142 O148 1.287 . S
C142 O149 1.255 . S
O143 Fe132 1.976 . S
O143 C150 1.287 . S
O144 Fe133 1.996 . S
O144 C150 1.255 . S
O145 Fe135 1.976 . S
O145 C140 1.287 . S
O146 Fe132 1.996 . S
O146 C140 1.255 . S
C147 O151 1.295 1_545 S
C147 O152 1.235 . S
O148 Fe133 1.976 . S
O148 C142 1.287 . S
O149 Fe135 1.996 . S
O149 C142 1.255 . S
C150 O143 1.287 . S
C150 O144 1.255 . S
O151 Fe133 2.002 1_565 S
O151 C147 1.295 1_565 S
O152 Fe135 1.997 . S
O152 C147 1.235 . S
C153 O136 1.295 . S
C153 O137 1.235 . S
Fe154 O156 1.918 . S
Fe154 O159 1.997 . S
Fe154 O160 2.002 . S
Fe154 O165 1.976 . S
Fe154 O168 1.996 . S
Fe155 O156 1.918 . S
Fe155 O163 1.997 . S
Fe155 O166 1.996 1_655 S
Fe155 O170 1.976 . S
Fe155 O173 2.002 . S
O156 Fe154 1.918 . S
O156 Fe155 1.918 . S
O156 Fe157 1.918 . S
Fe157 O156 1.918 . S
Fe157 O158 2.002 . S
Fe157 O167 1.976 . S
Fe157 O171 1.996 . S
Fe157 O174 1.997 . S
O158 Fe157 2.002 . S
O158 C175 1.295 . S
O159 Fe154 1.997 . S
O159 C175 1.235 . S
O160 Fe154 2.002 . S
O160 C161 1.295 . S
C161 O160 1.295 . S
C161 O163 1.235 . S
C162 O167 1.287 . S
C162 O168 1.255 . S
O163 Fe155 1.997 . S
O163 C161 1.235 . S
C164 O170 1.287 . S
C164 O171 1.255 . S
O165 Fe154 1.976 . S
O165 C172 1.287 1_655 S
O166 Fe155 1.996 1_455 S
O166 C172 1.255 . S
O167 Fe157 1.976 . S
O167 C162 1.287 . S
O168 Fe154 1.996 . S
O168 C162 1.255 . S
C169 O173 1.295 . S
C169 O174 1.235 . S
O170 Fe155 1.976 . S
O170 C164 1.287 . S
O171 Fe157 1.996 . S
O171 C164 1.255 . S
C172 O165 1.287 1_455 S
C172 O166 1.255 . S
O173 Fe155 2.002 . S
O173 C169 1.295 . S
O174 Fe157 1.997 . S
O174 C169 1.235 . S
C175 O158 1.295 . S
C175 O159 1.235 . S
Fe176 O178 1.918 . S
Fe176 O181 1.997 . S
Fe176 O182 2.002 . S
Fe176 O187 1.976 . S
Fe176 O190 1.996 . S
Fe177 O178 1.918 . S
Fe177 O185 1.997 . S
Fe177 O188 1.996 . S
Fe177 O192 1.976 . S
Fe177 O195 2.002 . S
O178 Fe176 1.918 . S
O178 Fe177 1.918 . S
O178 Fe179 1.918 . S
Fe179 O178 1.918 . S
Fe179 O180 2.002 . S
Fe179 O189 1.976 . S
Fe179 O193 1.996 . S
Fe179 O196 1.997 . S
O180 Fe179 2.002 . S
O180 C197 1.295 . S
O181 Fe176 1.997 . S
O181 C197 1.235 . S
O182 Fe176 2.002 . S
O182 C183 1.295 . S
C183 O182 1.295 . S
C183 O185 1.235 . S
C184 O189 1.287 . S
C184 O190 1.255 . S
O185 Fe177 1.997 . S
O185 C183 1.235 . S
C186 O192 1.287 . S
C186 O193 1.255 . S
O187 Fe176 1.976 . S
O187 C194 1.287 . S
O188 Fe177 1.996 . S
O188 C194 1.255 . S
O189 Fe179 1.976 . S
O189 C184 1.287 . S
O190 Fe176 1.996 . S
O190 C184 1.255 . S
C191 O195 1.295 . S
C191 O196 1.235 . S
O192 Fe177 1.976 . S
O192 C186 1.287 . S
O193 Fe179 1.996 . S
O193 C186 1.255 . S
C194 O187 1.287 . S
C194 O188 1.255 . S
O195 Fe177 2.002 . S
O195 C191 1.295 . S
O196 Fe179 1.997 . S
O196 C191 1.235 . S
C197 O180 1.295 . S
C197 O181 1.235 . S
H198 C204 0.930 . S
H199 C208 0.930 . S
H200 C213 0.929 . S
H201 C211 0.929 . S
H202 C206 0.929 . S
H203 C212 0.929 . S
C204 H198 0.930 . S
C204 C205 1.367 . S
C204 C212 1.378 . S
C205 C204 1.367 . S
C205 C213 1.433 . S
C206 H202 0.929 . S
C206 C208 1.378 . S
C206 C210 1.350 1_556 S
C207 C210 1.463 . S
C207 C212 1.350 . S
C207 N215 1.427 . S
C208 H199 0.930 . S
C208 C206 1.378 . S
C208 C209 1.367 . S
C209 C208 1.367 . S
C209 C211 1.433 1_556 S
C210 C206 1.350 1_554 S
C210 C207 1.463 . S
C210 N214 1.427 . S
C211 H201 0.929 . S
C211 C209 1.433 1_554 S
C211 N214 1.384 . S
C212 H203 0.929 . S
C212 C204 1.378 . S
C212 C207 1.350 . S
C213 H200 0.929 . S
C213 C205 1.433 . S
C213 N215 1.384 . S
N214 C210 1.427 . S
N214 C211 1.384 . S
N215 C207 1.427 . S
N215 C213 1.384 . S
H216 C222 0.930 . S
H217 C226 0.930 . S
H218 C231 0.929 1_556 S
H219 C229 0.929 . S
H220 C224 0.929 . S
H221 C230 0.929 . S
C222 H216 0.930 . S
C222 C223 1.367 . S
C222 C230 1.378 . S
C223 C222 1.367 . S
C223 C231 1.433 . S
C224 H220 0.929 . S
C224 C226 1.378 . S
C224 C228 1.350 1_556 S
C225 C228 1.463 . S
C225 C230 1.350 . S
C225 N233 1.427 1_554 S
C226 H217 0.930 . S
C226 C224 1.378 . S
C226 C227 1.367 . S
C227 C226 1.367 . S
C227 C229 1.433 1_556 S
C228 C224 1.350 1_554 S
C228 C225 1.463 . S
C228 N232 1.427 . S
C229 H219 0.929 . S
C229 C227 1.433 1_554 S
C229 N232 1.384 . S
C230 H221 0.929 . S
C230 C222 1.378 . S
C230 C225 1.350 . S
C231 H218 0.929 1_554 S
C231 C223 1.433 . S
C231 N233 1.384 1_554 S
N232 C228 1.427 . S
N232 C229 1.384 . S
N233 C225 1.427 1_556 S
N233 C231 1.384 1_556 S
H234 C240 0.930 . S
H235 C244 0.930 . S
H236 C249 0.929 . S
H237 C247 0.929 . S
H238 C242 0.929 . S
H239 C248 0.929 . S
C240 H234 0.930 . S
C240 C241 1.367 . S
C240 C248 1.378 . S
C241 C240 1.367 . S
C241 C249 1.433 1_556 S
C242 H238 0.929 . S
C242 C244 1.378 . S
C242 C246 1.350 . S
C243 C246 1.463 . S
C243 C248 1.350 1_554 S
C243 N251 1.427 . S
C244 H235 0.930 . S
C244 C242 1.378 . S
C244 C245 1.367 . S
C245 C244 1.367 . S
C245 C247 1.433 . S
C246 C242 1.350 . S
C246 C243 1.463 . S
C246 N250 1.427 . S
C247 H237 0.929 . S
C247 C245 1.433 . S
C247 N250 1.384 . S
C248 H239 0.929 . S
C248 C240 1.378 . S
C248 C243 1.350 1_556 S
C249 H236 0.929 . S
C249 C241 1.433 1_554 S
C249 N251 1.384 . S
N250 C246 1.427 . S
N250 C247 1.384 . S
N251 C243 1.427 . S
N251 C249 1.384 . S
H252 C258 0.930 . S
H253 C262 0.930 . S
H254 C267 0.929 . S
H255 C265 0.929 . S
H256 C260 0.929 . S
H257 C266 0.929 . S
C258 H252 0.930 . S
C258 C259 1.367 1_556 S
C258 C266 1.378 . S
C259 C258 1.367 1_554 S
C259 C267 1.433 . S
C260 H256 0.929 . S
C260 C262 1.378 . S
C260 C264 1.373 . S
C261 C264 1.471 . S
C261 C266 1.350 1_554 S
C261 N269 1.427 . S
C262 H253 0.930 . S
C262 C260 1.378 . S
C262 C263 1.367 1_554 S
C263 C262 1.367 1_556 S
C263 C265 1.433 . S
C264 C260 1.373 . S
C264 C261 1.471 . S
C264 N268 1.394 1_554 S
C265 H255 0.929 . S
C265 C263 1.433 . S
C265 N268 1.384 . S
C266 H257 0.929 . S
C266 C258 1.378 . S
C266 C261 1.350 1_556 S
C267 H254 0.929 . S
C267 C259 1.433 . S
C267 N269 1.384 . S
N268 C264 1.394 1_556 S
N268 C265 1.384 . S
N269 C261 1.427 . S
N269 C267 1.384 . S
H270 C276 0.930 . S
H271 C280 0.930 . S
H272 C285 0.929 . S
H273 C283 0.929 1_556 S
H274 C278 0.929 . S
H275 C284 0.929 . S
C276 H270 0.930 . S
C276 C277 1.367 . S
C276 C284 1.378 . S
C277 C276 1.367 . S
C277 C285 1.433 1_556 S
C278 H274 0.929 . S
C278 C280 1.378 . S
C278 C282 1.350 . S
C279 C282 1.460 1_556 S
C279 C284 1.355 . S
C279 N287 1.424 1_556 S
C280 H271 0.930 . S
C280 C278 1.378 . S
C280 C281 1.367 . S
C281 C280 1.367 . S
C281 C283 1.433 . S
C282 C278 1.350 . S
C282 C279 1.460 1_554 S
C282 N286 1.427 1_554 S
C283 H273 0.929 1_554 S
C283 C281 1.433 . S
C283 N286 1.384 1_554 S
C284 H275 0.929 . S
C284 C276 1.378 . S
C284 C279 1.355 . S
C285 H272 0.929 . S
C285 C277 1.433 1_554 S
C285 N287 1.384 . S
N286 C282 1.427 1_556 S
N286 C283 1.384 1_556 S
N287 C279 1.424 1_554 S
N287 C285 1.384 . S
H288 C294 0.930 . S
H289 C298 0.930 1_556 S
H290 C303 0.929 . S
H291 C301 0.929 . S
H292 C296 0.929 . S
H293 C302 0.929 . S
C294 H288 0.930 . S
C294 C295 1.367 1_554 S
C294 C302 1.378 . S
C295 C294 1.367 1_556 S
C295 C303 1.433 . S
C296 H292 0.929 . S
C296 C298 1.378 1_556 S
C296 C300 1.350 1_556 S
C297 C300 1.463 . S
C297 C302 1.350 . S
C297 N305 1.427 1_554 S
C298 H289 0.930 1_554 S
C298 C296 1.378 1_554 S
C298 C299 1.367 . S
C299 C298 1.367 . S
C299 C301 1.433 . S
C300 C296 1.350 1_554 S
C300 C297 1.463 . S
C300 N304 1.427 . S
C301 H291 0.929 . S
C301 C299 1.433 . S
C301 N304 1.384 . S
C302 H293 0.929 . S
C302 C294 1.378 . S
C302 C297 1.350 . S
C303 H290 0.929 . S
C303 C295 1.433 . S
C303 N305 1.384 . S
N304 C300 1.427 . S
N304 C301 1.384 . S
N305 C297 1.427 1_556 S
N305 C303 1.384 . S
H306 C312 0.930 . S
H307 C316 0.930 . S
H308 C321 0.929 . S
H309 C319 0.929 . S
H310 C314 0.933 . S
H311 C320 0.929 . S
C312 H306 0.930 . S
C312 C313 1.367 . S
C312 C320 1.378 . S
C313 C312 1.367 . S
C313 C321 1.433 . S
C314 H310 0.933 . S
C314 C316 1.358 1_655 S
C314 C318 1.366 . S
C315 C318 1.463 . S
C315 C320 1.350 . S
C315 N323 1.427 . S
C316 H307 0.930 . S
C316 C314 1.358 1_455 S
C316 C317 1.367 . S
C317 C316 1.367 . S
C317 C319 1.433 . S
C318 C314 1.366 . S
C318 C315 1.463 . S
C318 N322 1.425 1_655 S
C319 H309 0.929 . S
C319 C317 1.433 . S
C319 N322 1.404 . S
C320 H311 0.929 . S
C320 C312 1.378 . S
C320 C315 1.350 . S
C321 H308 0.929 . S
C321 C313 1.433 . S
C321 N323 1.384 . S
N322 C318 1.425 1_455 S
N322 C319 1.404 . S
N323 C315 1.427 . S
N323 C321 1.384 . S
H324 C330 0.930 . S
H325 C334 0.929 1_565 S
H326 C339 0.929 . S
H327 C337 0.929 . S
H328 C332 0.929 . S
H329 C338 0.929 . S
C330 H324 0.930 . S
C330 C331 1.367 . S
C330 C338 1.378 . S
C331 C330 1.367 . S
C331 C339 1.433 . S
C332 H328 0.929 . S
C332 C334 1.378 . S
C332 C336 1.350 . S
C333 C336 1.463 . S
C333 C338 1.350 . S
C333 N341 1.427 . S
C334 H325 0.929 1_545 S
C334 C332 1.378 . S
C334 C335 1.367 . S
C335 C334 1.367 . S
C335 C337 1.433 . S
C336 C332 1.350 . S
C336 C333 1.463 . S
C336 N340 1.427 . S
C337 H327 0.929 . S
C337 C335 1.433 . S
C337 N340 1.384 . S
C338 H329 0.929 . S
C338 C330 1.378 . S
C338 C333 1.350 . S
C339 H326 0.929 . S
C339 C331 1.433 . S
C339 N341 1.384 . S
N340 C336 1.427 . S
N340 C337 1.384 . S
N341 C333 1.427 . S
N341 C339 1.384 . S
H342 C348 0.930 . S
H343 C352 0.930 . S
H344 C357 0.929 . S
H345 C355 0.929 . S
H346 C350 0.929 . S
H347 C356 0.929 . S
C348 H342 0.930 . S
C348 C349 1.367 . S
C348 C356 1.378 . S
C349 C348 1.367 . S
C349 C357 1.433 . S
C350 H346 0.929 . S
C350 C352 1.378 1_545 S
C350 C354 1.350 . S
C351 C354 1.463 . S
C351 C356 1.350 . S
C351 N359 1.427 . S
C352 H343 0.930 . S
C352 C350 1.378 1_565 S
C352 C353 1.367 . S
C353 C352 1.367 . S
C353 C355 1.433 . S
C354 C350 1.350 . S
C354 C351 1.463 . S
C354 N358 1.427 . S
C355 H345 0.929 . S
C355 C353 1.433 . S
C355 N358 1.384 1_565 S
C356 H347 0.929 . S
C356 C348 1.378 . S
C356 C351 1.350 . S
C357 H344 0.929 . S
C357 C349 1.433 . S
C357 N359 1.384 . S
N358 C354 1.427 . S
N358 C355 1.384 1_545 S
N359 C351 1.427 . S
N359 C357 1.384 . S
H360 C366 0.930 . S
H361 C370 0.930 . S
H362 C375 0.929 . S
H363 C373 0.929 . S
H364 C368 0.929 . S
H365 C374 0.929 . S
C366 H360 0.930 . S
C366 C367 1.367 . S
C366 C374 1.378 . S
C367 C366 1.367 . S
C367 C375 1.433 . S
C368 H364 0.929 . S
C368 C370 1.378 . S
C368 C372 1.350 . S
C369 C372 1.463 . S
C369 C374 1.350 . S
C369 N377 1.427 . S
C370 H361 0.930 . S
C370 C368 1.378 . S
C370 C371 1.367 . S
C371 C370 1.367 . S
C371 C373 1.433 . S
C372 C368 1.350 . S
C372 C369 1.463 . S
C372 N376 1.427 . S
C373 H363 0.929 . S
C373 C371 1.433 . S
C373 N376 1.384 . S
C374 H365 0.929 . S
C374 C366 1.378 . S
C374 C369 1.350 . S
C375 H362 0.929 . S
C375 C367 1.433 . S
C375 N377 1.384 . S
N376 C372 1.427 . S
N376 C373 1.384 . S
N377 C369 1.427 . S
N377 C375 1.384 . S
H378 C384 0.930 . S
H379 C388 0.930 . S
H380 C393 0.929 . S
H381 C391 0.929 . S
H382 C386 0.929 . S
H383 C392 0.929 . S
C384 H378 0.930 . S
C384 C385 1.367 . S
C384 C392 1.378 . S
C385 C384 1.367 . S
C385 C393 1.433 . S
C386 H382 0.929 . S
C386 C388 1.378 . S
C386 C390 1.350 . S
C387 C390 1.463 . S
C387 C392 1.350 . S
C387 N395 1.427 . S
C388 H379 0.930 . S
C388 C386 1.378 . S
C388 C389 1.367 . S
C389 C388 1.367 . S
C389 C391 1.433 . S
C390 C386 1.350 . S
C390 C387 1.463 . S
C390 N394 1.427 . S
C391 H381 0.929 . S
C391 C389 1.433 . S
C391 N394 1.384 . S
C392 H383 0.929 . S
C392 C384 1.378 . S
C392 C387 1.350 . S
C393 H380 0.929 . S
C393 C385 1.433 . S
C393 N395 1.384 . S
N394 C390 1.427 . S
N394 C391 1.384 . S
N395 C387 1.427 . S
N395 C393 1.384 . S
H396 C402 0.930 . S
H397 C406 0.930 . S
H398 C411 0.929 . S
H399 C409 0.929 . S
H400 C404 0.929 . S
H401 C410 0.929 . S
C402 H396 0.930 . S
C402 C403 1.367 . S
C402 C410 1.378 . S
C403 C402 1.367 . S
C403 C411 1.433 . S
C404 H400 0.929 . S
C404 C406 1.378 . S
C404 C408 1.350 . S
C405 C408 1.463 . S
C405 C410 1.350 . S
C405 N413 1.427 . S
C406 H397 0.930 . S
C406 C404 1.378 . S
C406 C407 1.367 . S
C407 C406 1.367 . S
C407 C409 1.433 . S
C408 C404 1.350 . S
C408 C405 1.463 . S
C408 N412 1.427 . S
C409 H399 0.929 . S
C409 C407 1.433 . S
C409 N412 1.384 . S
C410 H401 0.929 . S
C410 C402 1.378 . S
C410 C405 1.350 . S
C411 H398 0.929 . S
C411 C403 1.433 . S
C411 N413 1.384 . S
N412 C408 1.427 . S
N412 C409 1.384 . S
N413 C405 1.427 . S
N413 C411 1.384 . S
H414 C420 0.930 . S
H415 C424 0.930 . S
H416 C429 0.929 . S
H417 C427 0.929 . S
H418 C422 0.929 . S
H419 C428 0.929 . S
C420 H414 0.930 . S
C420 C421 1.367 . S
C420 C428 1.378 . S
C421 C420 1.367 . S
C421 C429 1.433 . S
C422 H418 0.929 . S
C422 C424 1.378 . S
C422 C426 1.350 . S
C423 C426 1.463 . S
C423 C428 1.350 . S
C423 N431 1.427 . S
C424 H415 0.930 . S
C424 C422 1.378 . S
C424 C425 1.367 . S
C425 C424 1.367 . S
C425 C427 1.433 . S
C426 C422 1.350 . S
C426 C423 1.463 . S
C426 N430 1.427 . S
C427 H417 0.929 . S
C427 C425 1.433 . S
C427 N430 1.384 . S
C428 H419 0.929 . S
C428 C420 1.378 . S
C428 C423 1.350 . S
C429 H416 0.929 . S
C429 C421 1.433 . S
C429 N431 1.384 . S
N430 C426 1.427 . S
N430 C427 1.384 . S
N431 C423 1.427 . S
N431 C429 1.384 . S
H432 C438 0.930 . S
H433 C442 0.930 . S
H434 C447 0.929 . S
H435 C445 0.929 . S
H436 C440 0.929 . S
H437 C446 0.929 . S
C438 H432 0.930 . S
C438 C439 1.367 . S
C438 C446 1.378 . S
C439 C438 1.367 . S
C439 C447 1.433 . S
C440 H436 0.929 . S
C440 C442 1.378 . S
C440 C444 1.350 . S
C441 C444 1.463 . S
C441 C446 1.350 . S
C441 N449 1.427 . S
C442 H433 0.930 . S
C442 C440 1.378 . S
C442 C443 1.367 . S
C443 C442 1.367 . S
C443 C445 1.433 . S
C444 C440 1.350 . S
C444 C441 1.463 . S
C444 N448 1.427 . S
C445 H435 0.929 . S
C445 C443 1.433 . S
C445 N448 1.384 . S
C446 H437 0.929 . S
C446 C438 1.378 . S
C446 C441 1.350 . S
C447 H434 0.929 . S
C447 C439 1.433 . S
C447 N449 1.384 . S
N448 C444 1.427 . S
N448 C445 1.384 . S
N449 C441 1.427 . S
N449 C447 1.384 . S
H450 C456 0.930 . S
H451 C460 0.930 . S
H452 C465 0.929 . S
H453 C463 0.929 . S
H454 C458 0.929 . S
H455 C464 0.929 . S
C456 H450 0.930 . S
C456 C457 1.367 . S
C456 C464 1.378 . S
C457 C456 1.367 . S
C457 C465 1.433 . S
C458 H454 0.929 . S
C458 C460 1.378 . S
C458 C462 1.350 . S
C459 C462 1.463 . S
C459 C464 1.350 . S
C459 N467 1.427 . S
C460 H451 0.930 . S
C460 C458 1.378 . S
C460 C461 1.367 . S
C461 C460 1.367 . S
C461 C463 1.433 . S
C462 C458 1.350 . S
C462 C459 1.463 . S
C462 N466 1.427 . S
C463 H453 0.929 . S
C463 C461 1.433 . S
C463 N466 1.384 . S
C464 H455 0.929 . S
C464 C456 1.378 . S
C464 C459 1.350 . S
C465 H452 0.929 . S
C465 C457 1.433 . S
C465 N467 1.384 . S
N466 C462 1.427 . S
N466 C463 1.384 . S
N467 C459 1.427 . S
N467 C465 1.384 . S
H468 C474 0.930 . S
H469 C478 0.930 . S
H470 C483 0.929 . S
H471 C481 0.929 . S
H472 C476 0.929 . S
H473 C482 0.929 . S
C474 H468 0.930 . S
C474 C475 1.367 . S
C474 C482 1.378 . S
C475 C474 1.367 . S
C475 C483 1.433 . S
C476 H472 0.929 . S
C476 C478 1.378 . S
C476 C480 1.350 1_545 S
C477 C480 1.463 . S
C477 C482 1.350 . S
C477 N485 1.427 . S
C478 H469 0.930 . S
C478 C476 1.378 . S
C478 C479 1.367 . S
C479 C478 1.367 . S
C479 C481 1.433 . S
C480 C476 1.350 1_565 S
C480 C477 1.463 . S
C480 N484 1.427 . S
C481 H471 0.929 . S
C481 C479 1.433 . S
C481 N484 1.384 1_545 S
C482 H473 0.929 . S
C482 C474 1.378 . S
C482 C477 1.350 . S
C483 H470 0.929 . S
C483 C475 1.433 . S
C483 N485 1.384 . S
N484 C480 1.427 . S
N484 C481 1.384 1_565 S
N485 C477 1.427 . S
N485 C483 1.384 . S
H486 C492 0.930 . S
H487 C496 0.930 . S
H488 C501 0.929 . S
H489 C499 0.929 . S
H490 C494 0.929 . S
H491 C500 0.929 . S
C492 H486 0.930 . S
C492 C493 1.367 . S
C492 C500 1.378 1_655 S
C493 C492 1.367 . S
C493 C501 1.433 . S
C494 H490 0.929 . S
C494 C496 1.378 . S
C494 C498 1.350 . S
C495 C498 1.463 . S
C495 C500 1.350 . S
C495 N503 1.427 . S
C496 H487 0.930 . S
C496 C494 1.378 . S
C496 C497 1.367 . S
C497 C496 1.367 . S
C497 C499 1.433 . S
C498 C494 1.350 . S
C498 C495 1.463 . S
C498 N502 1.427 . S
C499 H489 0.929 . S
C499 C497 1.433 . S
C499 N502 1.384 . S
C500 H491 0.929 . S
C500 C492 1.378 1_455 S
C500 C495 1.350 . S
C501 H488 0.929 . S
C501 C493 1.433 . S
C501 N503 1.384 1_655 S
N502 C498 1.427 . S
N502 C499 1.384 . S
N503 C495 1.427 . S
N503 C501 1.384 1_455 S
H504 C510 0.930 . S
H505 C514 0.930 . S
H506 C519 0.929 . S
H507 C517 0.929 . S
H508 C512 0.929 . S
H509 C518 0.929 . S
C510 H504 0.930 . S
C510 C511 1.367 . S
C510 C518 1.378 . S
C511 C510 1.367 . S
C511 C519 1.433 . S
C512 H508 0.929 . S
C512 C514 1.378 . S
C512 C516 1.350 . S
C513 C516 1.463 . S
C513 C518 1.350 . S
C513 N521 1.427 . S
C514 H505 0.930 . S
C514 C512 1.378 . S
C514 C515 1.367 . S
C515 C514 1.367 . S
C515 C517 1.433 . S
C516 C512 1.350 . S
C516 C513 1.463 . S
C516 N520 1.427 . S
C517 H507 0.929 . S
C517 C515 1.433 . S
C517 N520 1.384 . S
C518 H509 0.929 . S
C518 C510 1.378 . S
C518 C513 1.350 . S
C519 H506 0.929 . S
C519 C511 1.433 . S
C519 N521 1.384 . S
N520 C516 1.427 . S
N520 C517 1.384 . S
N521 C513 1.427 . S
N521 C519 1.384 . S
H522 C528 0.930 . S
H523 C532 0.930 1_655 S
H524 C537 0.929 . S
H525 C535 0.929 . S
H526 C530 0.929 1_655 S
H527 C536 0.929 . S
C528 H522 0.930 . S
C528 C529 1.367 . S
C528 C536 1.378 . S
C529 C528 1.367 . S
C529 C537 1.433 . S
C530 H526 0.929 1_455 S
C530 C532 1.378 . S
C530 C534 1.350 . S
C531 C534 1.463 . S
C531 C536 1.350 . S
C531 N539 1.427 . S
C532 H523 0.930 1_455 S
C532 C530 1.378 . S
C532 C533 1.367 . S
C533 C532 1.367 . S
C533 C535 1.433 . S
C534 C530 1.350 . S
C534 C531 1.463 . S
C534 N538 1.427 . S
C535 H525 0.929 . S
C535 C533 1.433 . S
C535 N538 1.384 . S
C536 H527 0.929 . S
C536 C528 1.378 . S
C536 C531 1.350 . S
C537 H524 0.929 . S
C537 C529 1.433 . S
C537 N539 1.384 . S
N538 C534 1.427 . S
N538 C535 1.384 . S
N539 C531 1.427 . S
N539 C537 1.384 . S
H540 C546 0.930 . S
H541 C550 0.930 . S
H542 C555 0.929 . S
H543 C553 0.929 . S
H544 C548 0.929 . S
H545 C554 0.929 . S
C546 H540 0.930 . S
C546 C547 1.367 . S
C546 C554 1.378 . S
C547 C546 1.367 . S
C547 C555 1.433 . S
C548 H544 0.929 . S
C548 C550 1.378 . S
C548 C552 1.350 . S
C549 C552 1.463 . S
C549 C554 1.350 . S
C549 N557 1.427 . S
C550 H541 0.930 . S
C550 C548 1.378 . S
C550 C551 1.367 . S
C551 C550 1.367 . S
C551 C553 1.433 . S
C552 C548 1.350 . S
C552 C549 1.463 . S
C552 N556 1.427 . S
C553 H543 0.929 . S
C553 C551 1.433 . S
C553 N556 1.384 . S
C554 H545 0.929 . S
C554 C546 1.378 . S
C554 C549 1.350 . S
C555 H542 0.929 . S
C555 C547 1.433 . S
C555 N557 1.384 . S
N556 C552 1.427 . S
N556 C553 1.384 . S
N557 C549 1.427 . S
N557 C555 1.384 . S
H558 C564 0.930 . S
H559 C568 0.930 . S
H560 C573 0.929 . S
H561 C571 0.929 . S
H562 C566 0.929 . S
H563 C572 0.929 . S
C564 H558 0.930 . S
C564 C565 1.367 . S
C564 C572 1.378 . S
C565 C564 1.367 . S
C565 C573 1.433 1_565 S
C566 H562 0.929 . S
C566 C568 1.378 . S
C566 C570 1.350 1_545 S
C567 C570 1.463 . S
C567 C572 1.350 . S
C567 N575 1.427 1_565 S
C568 H559 0.930 . S
C568 C566 1.378 . S
C568 C569 1.367 1_545 S
C569 C568 1.367 1_565 S
C569 C571 1.433 . S
C570 C566 1.350 1_565 S
C570 C567 1.463 . S
C570 N574 1.427 . S
C571 H561 0.929 . S
C571 C569 1.433 . S
C571 N574 1.384 . S
C572 H563 0.929 . S
C572 C564 1.378 . S
C572 C567 1.350 . S
C573 H560 0.929 . S
C573 C565 1.433 1_545 S
C573 N575 1.384 . S
N574 C570 1.427 . S
N574 C571 1.384 . S
N575 C567 1.427 1_545 S
N575 C573 1.384 . S
H576 C582 0.930 . S
H577 C586 0.930 . S
H578 C591 0.929 . S
H579 C589 0.929 1_565 S
H580 C584 0.929 . S
H581 C590 0.929 . S
C582 H576 0.930 . S
C582 C583 1.367 1_565 S
C582 C590 1.378 . S
C583 C582 1.367 1_545 S
C583 C591 1.433 . S
C584 H580 0.929 . S
C584 C586 1.378 . S
C584 C588 1.350 . S
C585 C588 1.463 . S
C585 C590 1.350 1_545 S
C585 N593 1.427 . S
C586 H577 0.930 . S
C586 C584 1.378 . S
C586 C587 1.367 . S
C587 C586 1.367 . S
C587 C589 1.433 . S
C588 C584 1.350 . S
C588 C585 1.463 . S
C588 N592 1.427 . S
C589 H579 0.929 1_545 S
C589 C587 1.433 . S
C589 N592 1.384 . S
C590 H581 0.929 . S
C590 C582 1.378 . S
C590 C585 1.350 1_565 S
C591 H578 0.929 . S
C591 C583 1.433 . S
C591 N593 1.384 . S
N592 C588 1.427 . S
N592 C589 1.384 . S
N593 C585 1.427 . S
N593 C591 1.384 . S
H594 C600 0.930 . S
H595 C604 0.930 . S
H596 C609 0.929 1_455 S
H597 C607 0.929 . S
H598 C602 0.929 . S
H599 C608 0.929 . S
C600 H594 0.930 . S
C600 C601 1.367 . S
C600 C608 1.378 . S
C601 C600 1.367 . S
C601 C609 1.433 . S
C602 H598 0.929 . S
C602 C604 1.378 . S
C602 C606 1.350 . S
C603 C606 1.463 . S
C603 C608 1.350 . S
C603 N611 1.427 . S
C604 H595 0.930 . S
C604 C602 1.378 . S
C604 C605 1.367 . S
C605 C604 1.367 . S
C605 C607 1.433 . S
C606 C602 1.350 . S
C606 C603 1.463 . S
C606 N610 1.427 . S
C607 H597 0.929 . S
C607 C605 1.433 . S
C607 N610 1.384 . S
C608 H599 0.929 . S
C608 C600 1.378 . S
C608 C603 1.350 . S
C609 H596 0.929 1_655 S
C609 C601 1.433 . S
C609 N611 1.384 . S
N610 C606 1.427 . S
N610 C607 1.384 . S
N611 C603 1.427 . S
N611 C609 1.384 . S
H612 C618 0.930 . S
H613 C622 0.930 . S
H614 C627 0.929 . S
H615 C625 0.929 . S
H616 C620 0.929 . S
H617 C626 0.929 . S
C618 H612 0.930 . S
C618 C619 1.367 . S
C618 C626 1.378 . S
C619 C618 1.367 . S
C619 C627 1.433 . S
C620 H616 0.929 . S
C620 C622 1.378 . S
C620 C624 1.350 . S
C621 C624 1.463 . S
C621 C626 1.350 . S
C621 N629 1.427 . S
C622 H613 0.930 . S
C622 C620 1.378 . S
C622 C623 1.367 . S
C623 C622 1.367 . S
C623 C625 1.433 . S
C624 C620 1.350 . S
C624 C621 1.463 . S
C624 N628 1.427 . S
C625 H615 0.929 . S
C625 C623 1.433 . S
C625 N628 1.384 . S
C626 H617 0.929 . S
C626 C618 1.378 . S
C626 C621 1.350 . S
C627 H614 0.929 . S
C627 C619 1.433 . S
C627 N629 1.384 . S
N628 C624 1.427 . S
N628 C625 1.384 . S
N629 C621 1.427 . S
N629 C627 1.384 . S
H630 C636 0.930 . S
H631 C640 0.930 . S
H632 C645 0.929 . S
H633 C643 0.929 . S
H634 C638 0.929 . S
H635 C644 0.929 . S
C636 H630 0.930 . S
C636 C637 1.367 . S
C636 C644 1.378 . S
C637 C636 1.367 . S
C637 C645 1.433 . S
C638 H634 0.929 . S
C638 C640 1.378 . S
C638 C642 1.350 . S
C639 C642 1.463 . S
C639 C644 1.350 . S
C639 N647 1.427 . S
C640 H631 0.930 . S
C640 C638 1.378 . S
C640 C641 1.367 . S
C641 C640 1.367 . S
C641 C643 1.433 . S
C642 C638 1.350 . S
C642 C639 1.463 . S
C642 N646 1.427 . S
C643 H633 0.929 . S
C643 C641 1.433 . S
C643 N646 1.384 . S
C644 H635 0.929 . S
C644 C636 1.378 . S
C644 C639 1.350 . S
C645 H632 0.929 . S
C645 C637 1.433 . S
C645 N647 1.384 . S
N646 C642 1.427 . S
N646 C643 1.384 . S
N647 C639 1.427 . S
N647 C645 1.384 . S
H648 C654 0.930 . S
H649 C658 0.930 . S
H650 C663 0.929 . S
H651 C661 0.929 . S
H652 C656 0.929 . S
H653 C662 0.929 . S
C654 H648 0.930 . S
C654 C655 1.367 . S
C654 C662 1.378 . S
C655 C654 1.367 . S
C655 C663 1.433 1_565 S
C656 H652 0.929 . S
C656 C658 1.378 . S
C656 C660 1.350 . S
C657 C660 1.460 1_565 S
C657 C662 1.359 . S
C657 N665 1.420 1_565 S
C658 H649 0.930 . S
C658 C656 1.378 . S
C658 C659 1.367 . S
C659 C658 1.367 . S
C659 C661 1.433 1_545 S
C660 C656 1.350 . S
C660 C657 1.460 1_545 S
C660 N664 1.427 1_545 S
C661 H651 0.929 . S
C661 C659 1.433 1_565 S
C661 N664 1.384 . S
C662 H653 0.929 . S
C662 C654 1.378 . S
C662 C657 1.359 . S
C663 H650 0.929 . S
C663 C655 1.433 1_545 S
C663 N665 1.384 . S
N664 C660 1.427 1_565 S
N664 C661 1.384 . S
N665 C657 1.420 1_545 S
N665 C663 1.384 . S
H666 C672 0.930 . S
H667 C676 0.930 . S
H668 C681 0.929 . S
H669 C679 0.929 . S
H670 C674 0.929 . S
H671 C680 0.929 . S
C672 H666 0.930 . S
C672 C673 1.367 1_455 S
C672 C680 1.378 . S
C673 C672 1.367 1_655 S
C673 C681 1.433 . S
C674 H670 0.929 . S
C674 C676 1.378 . S
C674 C678 1.350 1_655 S
C675 C678 1.463 1_655 S
C675 C680 1.350 1_655 S
C675 N683 1.427 . S
C676 H667 0.930 . S
C676 C674 1.378 . S
C676 C677 1.367 1_655 S
C677 C676 1.367 1_455 S
C677 C679 1.433 . S
C678 C674 1.350 1_455 S
C678 C675 1.463 1_455 S
C678 N682 1.427 . S
C679 H669 0.929 . S
C679 C677 1.433 . S
C679 N682 1.384 . S
C680 H671 0.929 . S
C680 C672 1.378 . S
C680 C675 1.350 1_455 S
C681 H668 0.929 . S
C681 C673 1.433 . S
C681 N683 1.384 . S
N682 C678 1.427 . S
N682 C679 1.384 . S
N683 C675 1.427 . S
N683 C681 1.384 . S
C205 C37 1.338 . S
C209 C18 1.395 . S
C223 C52 1.342 . S
C227 C29 1.408 . S
C241 C62 1.334 . S
C245 C8 1.286 . S
C259 C59 1.379 . S
C263 C32 1.305 . S
C277 C65 1.351 . S
C281 C15 1.425 . S
C295 C21 1.293 . S
C299 C30 1.355 . S
C313 C81 1.401 . S
C317 C109 1.318 . S
C331 C125 1.322 . S
C335 C103 1.401 . S
C349 C117 1.415 . S
C353 C87 1.342 . S
C367 C96 1.306 . S
C371 C118 1.356 . S
C385 C120 1.298 . S
C389 C84 1.348 . S
C403 C106 1.360 . S
C407 C74 1.315 . S
C421 C175 1.304 . S
C425 C150 1.366 . S
C439 C169 1.391 . S
C443 C184 1.318 . S
C457 C194 1.342 . S
C461 C140 1.297 . S
C475 C191 1.359 . S
C479 C162 1.287 . S
C493 C197 1.339 . S
C497 C147 1.423 1_565 S
C511 C153 1.284 . S
C515 C172 1.345 . S
C529 C128 1.281 . S
C533 C10 1.281 . S
C547 C76 1.352 . S
C551 C43 1.344 . S
C565 C54 1.298 . S
C569 C98 1.298 . S
C583 C51 1.296 . S
C587 C142 1.307 . S
C601 C7 1.354 . S
C605 C161 1.350 . S
C619 C186 1.254 . S
C623 C40 1.254 . S
C637 C73 1.320 . S
C641 C183 1.317 . S
C655 C95 1.305 . S
C659 C139 1.309 . S
C673 C164 1.272 . S
C677 C131 1.267 . S
