# Generated by pormake.
# Topology uky, (4)-cn, num edge types: 1
# Building blocks:
#     Node 0, Type 0, BuildingBlock: ESEHIV_clean_sbu_0, # of connection points: 4
#     Node 1, Type 0, BuildingBlock: ESEHIV_clean_sbu_0, # of connection points: 4
#     Node 2, Type 0, BuildingBlock: ESEHIV_clean_sbu_0, # of connection points: 4
#     Node 3, Type 0, BuildingBlock: ESEHIV_clean_sbu_0, # of connection points: 4
#     Node 4, Type 0, BuildingBlock: ESEHIV_clean_sbu_0, # of connection points: 4
#     Node 5, Type 0, BuildingBlock: ESEHIV_clean_sbu_0, # of connection points: 4
#     Node 6, Type 0, BuildingBlock: ESEHIV_clean_sbu_0, # of connection points: 4
#     Node 7, Type 0, BuildingBlock: ESEHIV_clean_sbu_0, # of connection points: 4
#     Node 8, Type 0, BuildingBlock: ESEHIV_clean_sbu_0, # of connection points: 4
#     Node 9, Type 0, BuildingBlock: ESEHIV_clean_sbu_0, # of connection points: 4
#     Node 10, Type 0, BuildingBlock: ESEHIV_clean_sbu_0, # of connection points: 4
#     Node 11, Type 0, BuildingBlock: ESEHIV_clean_sbu_0, # of connection points: 4
#     Node 12, Type 0, BuildingBlock: ESEHIV_clean_sbu_0, # of connection points: 4
#     Node 13, Type 0, BuildingBlock: ESEHIV_clean_sbu_0, # of connection points: 4
#     Node 14, Type 0, BuildingBlock: ESEHIV_clean_sbu_0, # of connection points: 4
#     Node 15, Type 0, BuildingBlock: ESEHIV_clean_sbu_0, # of connection points: 4
#     Node 16, Type 0, BuildingBlock: ESEHIV_clean_sbu_0, # of connection points: 4
#     Node 17, Type 0, BuildingBlock: ESEHIV_clean_sbu_0, # of connection points: 4
#     Node 18, Type 0, BuildingBlock: ESEHIV_clean_sbu_0, # of connection points: 4
#     Node 19, Type 0, BuildingBlock: ESEHIV_clean_sbu_0, # of connection points: 4
#     Node 20, Type 0, BuildingBlock: ESEHIV_clean_sbu_0, # of connection points: 4
#     Node 21, Type 0, BuildingBlock: ESEHIV_clean_sbu_0, # of connection points: 4
#     Node 22, Type 0, BuildingBlock: ESEHIV_clean_sbu_0, # of connection points: 4
#     Node 23, Type 0, BuildingBlock: ESEHIV_clean_sbu_0, # of connection points: 4
#     Node 24, Type 0, BuildingBlock: ESEHIV_clean_sbu_0, # of connection points: 4
#     Node 25, Type 0, BuildingBlock: ESEHIV_clean_sbu_0, # of connection points: 4
#     Node 26, Type 0, BuildingBlock: ESEHIV_clean_sbu_0, # of connection points: 4
#     Node 27, Type 0, BuildingBlock: ESEHIV_clean_sbu_0, # of connection points: 4
#     Node 28, Type 0, BuildingBlock: ESEHIV_clean_sbu_0, # of connection points: 4
#     Node 29, Type 0, BuildingBlock: ESEHIV_clean_sbu_0, # of connection points: 4
#     Node 30, Type 0, BuildingBlock: ESEHIV_clean_sbu_0, # of connection points: 4
#     Node 31, Type 0, BuildingBlock: ESEHIV_clean_sbu_0, # of connection points: 4
#     Node 32, Type 0, BuildingBlock: ESEHIV_clean_sbu_0, # of connection points: 4
#     Node 33, Type 0, BuildingBlock: ESEHIV_clean_sbu_0, # of connection points: 4
#     Node 34, Type 0, BuildingBlock: ESEHIV_clean_sbu_0, # of connection points: 4
#     Node 35, Type 0, BuildingBlock: ESEHIV_clean_sbu_0, # of connection points: 4
#     Node 36, Type 0, BuildingBlock: ESEHIV_clean_sbu_0, # of connection points: 4
#     Node 37, Type 0, BuildingBlock: ESEHIV_clean_sbu_0, # of connection points: 4
#     Node 38, Type 0, BuildingBlock: ESEHIV_clean_sbu_0, # of connection points: 4
#     Node 39, Type 0, BuildingBlock: ESEHIV_clean_sbu_0, # of connection points: 4
#     Node 40, Type 0, BuildingBlock: ESEHIV_clean_sbu_0, # of connection points: 4
#     Node 41, Type 0, BuildingBlock: ESEHIV_clean_sbu_0, # of connection points: 4
#     Node 42, Type 0, BuildingBlock: ESEHIV_clean_sbu_0, # of connection points: 4
#     Node 43, Type 0, BuildingBlock: ESEHIV_clean_sbu_0, # of connection points: 4
#     Node 44, Type 0, BuildingBlock: ESEHIV_clean_sbu_0, # of connection points: 4
#     Node 45, Type 0, BuildingBlock: ESEHIV_clean_sbu_0, # of connection points: 4
#     Node 46, Type 0, BuildingBlock: ESEHIV_clean_sbu_0, # of connection points: 4
#     Node 47, Type 0, BuildingBlock: ESEHIV_clean_sbu_0, # of connection points: 4
#     Edge 48, Type (0, 0), BuildingBlock: XIVTED_clean_linker_0, # of connection points: 2
#     Edge 49, Type (0, 0), BuildingBlock: XIVTED_clean_linker_0, # of connection points: 2
#     Edge 50, Type (0, 0), BuildingBlock: XIVTED_clean_linker_0, # of connection points: 2
#     Edge 51, Type (0, 0), BuildingBlock: XIVTED_clean_linker_0, # of connection points: 2
#     Edge 52, Type (0, 0), BuildingBlock: XIVTED_clean_linker_0, # of connection points: 2
#     Edge 53, Type (0, 0), BuildingBlock: XIVTED_clean_linker_0, # of connection points: 2
#     Edge 54, Type (0, 0), BuildingBlock: XIVTED_clean_linker_0, # of connection points: 2
#     Edge 55, Type (0, 0), BuildingBlock: XIVTED_clean_linker_0, # of connection points: 2
#     Edge 56, Type (0, 0), BuildingBlock: XIVTED_clean_linker_0, # of connection points: 2
#     Edge 57, Type (0, 0), BuildingBlock: XIVTED_clean_linker_0, # of connection points: 2
#     Edge 58, Type (0, 0), BuildingBlock: XIVTED_clean_linker_0, # of connection points: 2
#     Edge 59, Type (0, 0), BuildingBlock: XIVTED_clean_linker_0, # of connection points: 2
#     Edge 60, Type (0, 0), BuildingBlock: XIVTED_clean_linker_0, # of connection points: 2
#     Edge 61, Type (0, 0), BuildingBlock: XIVTED_clean_linker_0, # of connection points: 2
#     Edge 62, Type (0, 0), BuildingBlock: XIVTED_clean_linker_0, # of connection points: 2
#     Edge 63, Type (0, 0), BuildingBlock: XIVTED_clean_linker_0, # of connection points: 2
#     Edge 64, Type (0, 0), BuildingBlock: XIVTED_clean_linker_0, # of connection points: 2
#     Edge 65, Type (0, 0), BuildingBlock: XIVTED_clean_linker_0, # of connection points: 2
#     Edge 66, Type (0, 0), BuildingBlock: XIVTED_clean_linker_0, # of connection points: 2
#     Edge 67, Type (0, 0), BuildingBlock: XIVTED_clean_linker_0, # of connection points: 2
#     Edge 68, Type (0, 0), BuildingBlock: XIVTED_clean_linker_0, # of connection points: 2
#     Edge 69, Type (0, 0), BuildingBlock: XIVTED_clean_linker_0, # of connection points: 2
#     Edge 70, Type (0, 0), BuildingBlock: XIVTED_clean_linker_0, # of connection points: 2
#     Edge 71, Type (0, 0), BuildingBlock: XIVTED_clean_linker_0, # of connection points: 2
#     Edge 72, Type (0, 0), BuildingBlock: XIVTED_clean_linker_0, # of connection points: 2
#     Edge 73, Type (0, 0), BuildingBlock: XIVTED_clean_linker_0, # of connection points: 2
#     Edge 74, Type (0, 0), BuildingBlock: XIVTED_clean_linker_0, # of connection points: 2
#     Edge 75, Type (0, 0), BuildingBlock: XIVTED_clean_linker_0, # of connection points: 2
#     Edge 76, Type (0, 0), BuildingBlock: XIVTED_clean_linker_0, # of connection points: 2
#     Edge 77, Type (0, 0), BuildingBlock: XIVTED_clean_linker_0, # of connection points: 2
#     Edge 78, Type (0, 0), BuildingBlock: XIVTED_clean_linker_0, # of connection points: 2
#     Edge 79, Type (0, 0), BuildingBlock: XIVTED_clean_linker_0, # of connection points: 2
#     Edge 80, Type (0, 0), BuildingBlock: XIVTED_clean_linker_0, # of connection points: 2
#     Edge 81, Type (0, 0), BuildingBlock: XIVTED_clean_linker_0, # of connection points: 2
#     Edge 82, Type (0, 0), BuildingBlock: XIVTED_clean_linker_0, # of connection points: 2
#     Edge 83, Type (0, 0), BuildingBlock: XIVTED_clean_linker_0, # of connection points: 2
#     Edge 84, Type (0, 0), BuildingBlock: XIVTED_clean_linker_0, # of connection points: 2
#     Edge 85, Type (0, 0), BuildingBlock: XIVTED_clean_linker_0, # of connection points: 2
#     Edge 86, Type (0, 0), BuildingBlock: XIVTED_clean_linker_0, # of connection points: 2
#     Edge 87, Type (0, 0), BuildingBlock: XIVTED_clean_linker_0, # of connection points: 2
#     Edge 88, Type (0, 0), BuildingBlock: XIVTED_clean_linker_0, # of connection points: 2
#     Edge 89, Type (0, 0), BuildingBlock: XIVTED_clean_linker_0, # of connection points: 2
#     Edge 90, Type (0, 0), BuildingBlock: XIVTED_clean_linker_0, # of connection points: 2
#     Edge 91, Type (0, 0), BuildingBlock: XIVTED_clean_linker_0, # of connection points: 2
#     Edge 92, Type (0, 0), BuildingBlock: XIVTED_clean_linker_0, # of connection points: 2
#     Edge 93, Type (0, 0), BuildingBlock: XIVTED_clean_linker_0, # of connection points: 2
#     Edge 94, Type (0, 0), BuildingBlock: XIVTED_clean_linker_0, # of connection points: 2
#     Edge 95, Type (0, 0), BuildingBlock: XIVTED_clean_linker_0, # of connection points: 2
#     Edge 96, Type (0, 0), BuildingBlock: XIVTED_clean_linker_0, # of connection points: 2
#     Edge 97, Type (0, 0), BuildingBlock: XIVTED_clean_linker_0, # of connection points: 2
#     Edge 98, Type (0, 0), BuildingBlock: XIVTED_clean_linker_0, # of connection points: 2
#     Edge 99, Type (0, 0), BuildingBlock: XIVTED_clean_linker_0, # of connection points: 2
#     Edge 100, Type (0, 0), BuildingBlock: XIVTED_clean_linker_0, # of connection points: 2
#     Edge 101, Type (0, 0), BuildingBlock: XIVTED_clean_linker_0, # of connection points: 2
#     Edge 102, Type (0, 0), BuildingBlock: XIVTED_clean_linker_0, # of connection points: 2
#     Edge 103, Type (0, 0), BuildingBlock: XIVTED_clean_linker_0, # of connection points: 2
#     Edge 104, Type (0, 0), BuildingBlock: XIVTED_clean_linker_0, # of connection points: 2
#     Edge 105, Type (0, 0), BuildingBlock: XIVTED_clean_linker_0, # of connection points: 2
#     Edge 106, Type (0, 0), BuildingBlock: XIVTED_clean_linker_0, # of connection points: 2
#     Edge 107, Type (0, 0), BuildingBlock: XIVTED_clean_linker_0, # of connection points: 2
#     Edge 108, Type (0, 0), BuildingBlock: XIVTED_clean_linker_0, # of connection points: 2
#     Edge 109, Type (0, 0), BuildingBlock: XIVTED_clean_linker_0, # of connection points: 2
#     Edge 110, Type (0, 0), BuildingBlock: XIVTED_clean_linker_0, # of connection points: 2
#     Edge 111, Type (0, 0), BuildingBlock: XIVTED_clean_linker_0, # of connection points: 2
#     Edge 112, Type (0, 0), BuildingBlock: XIVTED_clean_linker_0, # of connection points: 2
#     Edge 113, Type (0, 0), BuildingBlock: XIVTED_clean_linker_0, # of connection points: 2
#     Edge 114, Type (0, 0), BuildingBlock: XIVTED_clean_linker_0, # of connection points: 2
#     Edge 115, Type (0, 0), BuildingBlock: XIVTED_clean_linker_0, # of connection points: 2
#     Edge 116, Type (0, 0), BuildingBlock: XIVTED_clean_linker_0, # of connection points: 2
#     Edge 117, Type (0, 0), BuildingBlock: XIVTED_clean_linker_0, # of connection points: 2
#     Edge 118, Type (0, 0), BuildingBlock: XIVTED_clean_linker_0, # of connection points: 2
#     Edge 119, Type (0, 0), BuildingBlock: XIVTED_clean_linker_0, # of connection points: 2
#     Edge 120, Type (0, 0), BuildingBlock: XIVTED_clean_linker_0, # of connection points: 2
#     Edge 121, Type (0, 0), BuildingBlock: XIVTED_clean_linker_0, # of connection points: 2
#     Edge 122, Type (0, 0), BuildingBlock: XIVTED_clean_linker_0, # of connection points: 2
#     Edge 123, Type (0, 0), BuildingBlock: XIVTED_clean_linker_0, # of connection points: 2
#     Edge 124, Type (0, 0), BuildingBlock: XIVTED_clean_linker_0, # of connection points: 2
#     Edge 125, Type (0, 0), BuildingBlock: XIVTED_clean_linker_0, # of connection points: 2
#     Edge 126, Type (0, 0), BuildingBlock: XIVTED_clean_linker_0, # of connection points: 2
#     Edge 127, Type (0, 0), BuildingBlock: XIVTED_clean_linker_0, # of connection points: 2
#     Edge 128, Type (0, 0), BuildingBlock: XIVTED_clean_linker_0, # of connection points: 2
#     Edge 129, Type (0, 0), BuildingBlock: XIVTED_clean_linker_0, # of connection points: 2
#     Edge 130, Type (0, 0), BuildingBlock: XIVTED_clean_linker_0, # of connection points: 2
#     Edge 131, Type (0, 0), BuildingBlock: XIVTED_clean_linker_0, # of connection points: 2
#     Edge 132, Type (0, 0), BuildingBlock: XIVTED_clean_linker_0, # of connection points: 2
#     Edge 133, Type (0, 0), BuildingBlock: XIVTED_clean_linker_0, # of connection points: 2
#     Edge 134, Type (0, 0), BuildingBlock: XIVTED_clean_linker_0, # of connection points: 2
#     Edge 135, Type (0, 0), BuildingBlock: XIVTED_clean_linker_0, # of connection points: 2
#     Edge 136, Type (0, 0), BuildingBlock: XIVTED_clean_linker_0, # of connection points: 2
#     Edge 137, Type (0, 0), BuildingBlock: XIVTED_clean_linker_0, # of connection points: 2
#     Edge 138, Type (0, 0), BuildingBlock: XIVTED_clean_linker_0, # of connection points: 2
#     Edge 139, Type (0, 0), BuildingBlock: XIVTED_clean_linker_0, # of connection points: 2
#     Edge 140, Type (0, 0), BuildingBlock: XIVTED_clean_linker_0, # of connection points: 2
#     Edge 141, Type (0, 0), BuildingBlock: XIVTED_clean_linker_0, # of connection points: 2
#     Edge 142, Type (0, 0), BuildingBlock: XIVTED_clean_linker_0, # of connection points: 2
#     Edge 143, Type (0, 0), BuildingBlock: XIVTED_clean_linker_0, # of connection points: 2
# Relax obj value: 0.110
# Max RMSD: 0.295
# Mean RMSD: 0.272
data_MOF--net-uky--node1-ESEHIV_clean_sbu_0--edge1-XIVTED_clean_linker_0
_symmetry_space_group_name_H-M    P1
_symmetry_Int_Tables_number       1
_symmetry_cell_setting            triclinic
loop_
_symmetry_equiv_pos_as_xyz
'x, y, z'
_cell_length_a     62.738683
_cell_length_b     74.198628
_cell_length_c     74.149048
_cell_angle_alpha  89.968215
_cell_angle_beta   90.012346
_cell_angle_gamma 89.961431
loop_
_atom_site_label
_atom_site_type_symbol
_atom_site_fract_x
_atom_site_fract_y
_atom_site_fract_z
_atom_type_partial_charge
Cu0 Cu 0.2142 0.24413 0.39681 0.0
N1 N 0.23222 0.25159 0.41529 0.0
N2 N 0.24671 0.25605 0.44242 0.0
C3 C 0.22987 0.24939 0.4332 0.0
C4 C 0.26003 0.26273 0.42978 0.0
C5 C 0.25101 0.26 0.41308 0.0
O6 O 0.19497 0.22554 0.40566 0.0
C7 C 0.24848 0.22689 0.37809 0.0
O8 O 0.25288 0.21907 0.39355 0.0
H9 H 0.21634 0.24271 0.4393 0.0
H10 H 0.25774 0.26374 0.40018 0.0
N11 N 0.19884 0.26398 0.3886 0.0
N12 N 0.18927 0.28679 0.37062 0.0
C13 C 0.20325 0.27323 0.37347 0.0
C14 C 0.18153 0.27192 0.39574 0.0
C15 C 0.17558 0.28604 0.38467 0.0
C16 C 0.17745 0.22193 0.39779 0.0
O17 O 0.17283 0.23013 0.38258 0.0
H18 H 0.21666 0.27012 0.36484 0.0
H19 H 0.1737 0.26764 0.40802 0.0
O20 O 0.23188 0.23664 0.37672 0.0
H21 H 0.27512 0.26928 0.43242 0.0
H22 H 0.16203 0.29484 0.38669 0.0
Cu23 Cu 0.02136 0.9774 0.65531 0.0
N24 N 0.04105 0.99445 0.64751 0.0
N25 N 0.05449 0.01784 0.63227 0.0
C26 C 0.0375 0.00692 0.63469 0.0
C27 C 0.06935 0.01187 0.64405 0.0
C28 C 0.06097 0.99745 0.65347 0.0
O29 O 0.99706 0.97946 0.6392 0.0
C30 C 0.0076 0.99778 0.68521 0.0
O31 O 0.00438 0.01024 0.67291 0.0
H32 H 0.02271 0.00785 0.62725 0.0
H33 H 0.06873 0.98982 0.66403 0.0
N34 N 0.03314 0.9544 0.65331 0.0
N35 N 0.04787 0.92785 0.66023 0.0
C36 C 0.04176 0.94418 0.66646 0.0
C37 C 0.03396 0.94429 0.63828 0.0
C38 C 0.04297 0.92789 0.6425 0.0
C39 C 0.9834 0.96713 0.63636 0.0
O40 O 0.98413 0.95226 0.64597 0.0
H41 H 0.04309 0.94849 0.68036 0.0
H42 H 0.02819 0.94853 0.6252 0.0
O43 O 0.0142 0.98232 0.6803 0.0
H44 H 0.08498 0.01768 0.64603 0.0
H45 H 0.04585 0.91691 0.63321 0.0
Cu46 Cu 0.2949 0.76571 0.89203 0.0
N47 N 0.27747 0.75798 0.9108 0.0
N48 N 0.26345 0.75406 0.9382 0.0
C49 C 0.27976 0.76108 0.92859 0.0
C50 C 0.25051 0.74622 0.92596 0.0
C51 C 0.25922 0.74864 0.90909 0.0
O52 O 0.31511 0.78335 0.90117 0.0
C53 C 0.26048 0.78479 0.87609 0.0
O54 O 0.25697 0.79059 0.89256 0.0
H55 H 0.29286 0.76867 0.93428 0.0
H56 H 0.25265 0.74408 0.89639 0.0
N57 N 0.30927 0.74579 0.88276 0.0
N58 N 0.31675 0.7222 0.86514 0.0
C59 C 0.30273 0.73551 0.86888 0.0
C60 C 0.32801 0.73877 0.88809 0.0
C61 C 0.33272 0.72423 0.87719 0.0
C62 C 0.33218 0.78741 0.89282 0.0
O63 O 0.33579 0.78031 0.87688 0.0
H64 H 0.28812 0.73797 0.86152 0.0
H65 H 0.33757 0.74391 0.89908 0.0
O66 O 0.27674 0.77501 0.87301 0.0
H67 H 0.23587 0.73913 0.92898 0.0
H68 H 0.34667 0.71571 0.87821 0.0
Cu69 Cu 0.48894 0.03079 0.15579 0.0
N70 N 0.46884 0.01555 0.14544 0.0
N71 N 0.45501 0.99397 0.12799 0.0
C72 C 0.47277 1.00312 0.13266 0.0
C73 C 0.43929 1.00098 0.13829 0.0
C74 C 0.44789 0.01432 0.14903 0.0
O75 O 0.51435 0.02854 0.14105 0.0
C76 C 0.50367 0.03232 0.19213 0.0
O77 O 0.51172 0.04797 0.18743 0.0
H78 H 0.48847 1.00067 0.12715 0.0
H79 H 0.4395 0.02253 0.15877 0.0
N80 N 0.47886 0.05448 0.15482 0.0
N81 N 0.4652 0.08127 0.16231 0.0
C82 C 0.4697 0.06436 0.16796 0.0
C83 C 0.47989 0.06539 0.14036 0.0
C84 C 0.47159 0.08194 0.14495 0.0
C85 C 0.52841 0.04067 0.1388 0.0
O86 O 0.52734 0.05563 0.14822 0.0
H87 H 0.46679 0.05936 0.18146 0.0
H88 H 0.48642 0.06159 0.12741 0.0
O89 O 0.49374 0.02299 0.18045 0.0
H90 H 0.42273 0.99692 0.13798 0.0
H91 H 0.47017 0.09352 0.13614 0.0
Cu92 Cu 0.21069 0.76563 0.118 0.0
N93 N 0.22656 0.75692 0.09864 0.0
N94 N 0.23974 0.7526 0.07101 0.0
C95 C 0.22463 0.76091 0.081 0.0
C96 C 0.25148 0.74296 0.08285 0.0
C97 C 0.24327 0.74563 0.09986 0.0
O98 O 0.18975 0.78317 0.1097 0.0
C99 C 0.24801 0.78217 0.13232 0.0
O100 O 0.25267 0.78555 0.11538 0.0
H101 H 0.21273 0.77004 0.07567 0.0
H102 H 0.2492 0.73992 0.11232 0.0
N103 N 0.1962 0.74634 0.12836 0.0
N104 N 0.18845 0.72318 0.14649 0.0
C105 C 0.20309 0.73572 0.14189 0.0
C106 C 0.1766 0.74035 0.12417 0.0
C107 C 0.17175 0.72607 0.13534 0.0
C108 C 0.19444 0.79798 0.10199 0.0
O109 O 0.21457 0.80242 0.10004 0.0
H110 H 0.21839 0.73742 0.14841 0.0
H111 H 0.16655 0.74602 0.11376 0.0
O112 O 0.23023 0.77485 0.13616 0.0
H113 H 0.26495 0.7345 0.07946 0.0
H114 H 0.15714 0.71833 0.13513 0.0
Cu115 Cu 0.488 0.97402 0.35222 0.0
N116 N 0.46977 0.99166 0.36145 0.0
N117 N 0.45648 0.01369 0.37873 0.0
C118 C 0.47185 1.00101 0.37692 0.0
C119 C 0.44422 0.01204 0.36383 0.0
C120 C 0.45245 0.99846 0.35324 0.0
O121 O 0.51287 0.97183 0.36773 0.0
C122 C 0.49853 0.99627 0.32251 0.0
O123 O 0.49755 0.00916 0.33462 0.0
H124 H 0.48446 0.99861 0.38656 0.0
H125 H 0.44658 0.99416 0.34022 0.0
N126 N 0.47416 0.95181 0.35292 0.0
N127 N 0.45915 0.92565 0.34509 0.0
C128 C 0.46672 0.94168 0.3392 0.0
C129 C 0.47107 0.94196 0.36791 0.0
C130 C 0.46185 0.92583 0.36314 0.0
C131 C 0.52498 0.98484 0.37217 0.0
O132 O 0.52169 1.00086 0.36518 0.0
H133 H 0.46745 0.94573 0.32518 0.0
H134 H 0.47558 0.94614 0.38135 0.0
O135 O 0.49539 0.98003 0.32739 0.0
H136 H 0.43066 0.0204 0.36046 0.0
H137 H 0.45746 0.91506 0.37227 0.0
Cu138 Cu 0.29727 0.24262 0.62129 0.0
N139 N 0.28215 0.25375 0.60279 0.0
N140 N 0.26902 0.25973 0.57544 0.0
C141 C 0.28355 0.25027 0.58502 0.0
C142 C 0.25813 0.26953 0.5877 0.0
C143 C 0.26629 0.26582 0.60456 0.0
O144 O 0.31596 0.22458 0.61066 0.0
C145 C 0.26007 0.22439 0.63336 0.0
O146 O 0.25751 0.22016 0.61629 0.0
H147 H 0.2945 0.24054 0.57933 0.0
H148 H 0.26076 0.27122 0.61728 0.0
N149 N 0.31307 0.25995 0.63369 0.0
N150 N 0.32044 0.28257 0.65252 0.0
C151 C 0.30501 0.27345 0.64373 0.0
C152 C 0.33433 0.26067 0.63607 0.0
C153 C 0.33892 0.27457 0.6478 0.0
C154 C 0.32967 0.21539 0.61937 0.0
O155 O 0.33088 0.21713 0.63697 0.0
H156 H 0.28812 0.27609 0.64511 0.0
H157 H 0.34567 0.2515 0.63004 0.0
O158 O 0.27675 0.23284 0.6382 0.0
H159 H 0.24517 0.2787 0.58472 0.0
H160 H 0.35457 0.27845 0.65256 0.0
Cu161 Cu 0.02824 0.02968 0.85172 0.0
N162 N 0.04804 0.01337 0.86102 0.0
N163 N 0.06274 0.9917 0.87794 0.0
C164 C 0.04623 1.00326 0.87604 0.0
C165 C 0.07551 0.99484 0.86362 0.0
C166 C 0.06641 0.00821 0.85324 0.0
O167 O 1.00344 0.03024 0.86736 0.0
C168 C 0.01091 0.03202 0.81618 0.0
O169 O 1.00366 0.04778 0.82142 0.0
H170 H 0.03268 1.00391 0.88503 0.0
H171 H 0.07247 0.01353 0.84066 0.0
N172 N 0.03994 0.05279 0.85206 0.0
N173 N 0.05362 0.07943 0.84411 0.0
C174 C 0.04844 0.06263 0.83856 0.0
C175 C 0.03997 0.06363 0.86658 0.0
C176 C 0.04835 0.08005 0.86174 0.0
C177 C 0.9923 0.01655 0.87155 0.0
O178 O 0.99649 1.00092 0.86401 0.0
H179 H 0.05011 0.05779 0.82486 0.0
H180 H 0.03391 0.0599 0.87972 0.0
O181 O 0.02129 0.02231 0.82728 0.0
H182 H 0.09027 0.98787 0.86072 0.0
H183 H 0.05037 0.09158 0.87052 0.0
Cu184 Cu 0.3883 0.22802 0.25497 0.0
N185 N 0.3804 0.24751 0.24039 0.0
N186 N 0.36528 0.27304 0.23052 0.0
C187 C 0.3646 0.25959 0.24285 0.0
C188 C 0.38199 0.26901 0.21976 0.0
C189 C 0.39123 0.25331 0.22587 0.0
O190 O 0.36994 0.22606 0.27603 0.0
C191 C 0.42654 0.24589 0.26458 0.0
O192 O 0.41441 0.26032 0.26436 0.0
H193 H 0.35303 0.25864 0.25361 0.0
H194 H 0.40538 0.24691 0.22053 0.0
N195 N 0.38497 0.20677 0.2419 0.0
N196 N 0.39178 0.18105 0.22734 0.0
C197 C 0.40015 0.19618 0.2346 0.0
C198 C 0.36643 0.19813 0.23908 0.0
C199 C 0.37056 0.18226 0.23012 0.0
C200 C 0.36524 0.23896 0.28658 0.0
O201 O 0.37385 0.25489 0.28405 0.0
H202 H 0.41701 0.19924 0.23512 0.0
H203 H 0.35103 0.20294 0.24354 0.0
O204 O 0.41818 0.23055 0.26156 0.0
H205 H 0.38778 0.27719 0.20872 0.0
H206 H 0.35886 0.17238 0.22598 0.0
Cu207 Cu 0.04456 0.14039 0.49632 0.0
N208 N 0.02652 0.15952 0.50196 0.0
N209 N 0.01258 0.18706 0.50491 0.0
C210 C 0.02966 0.17732 0.49955 0.0
C211 C 0.9983 0.1749 0.511 0.0
C212 C 0.00697 0.15796 0.5092 0.0
O213 O 0.06596 0.14767 0.47872 0.0
C214 C 0.01091 0.12137 0.47856 0.0
O215 O 0.00722 0.13654 0.46999 0.0
H216 H 0.044 0.18293 0.49372 0.0
H217 H 0.99953 0.14532 0.51285 0.0
N218 N 0.05842 0.13312 0.51728 0.0
N219 N 0.06614 0.117 0.5419 0.0
C220 C 0.05222 0.11967 0.52826 0.0
C221 C 0.07686 0.13928 0.52417 0.0
C222 C 0.0817 0.12933 0.53937 0.0
C223 C 0.06175 0.15642 0.46438 0.0
O224 O 0.0418 0.16002 0.4604 0.0
H225 H 0.03805 0.11168 0.52594 0.0
H226 H 0.08623 0.15007 0.5184 0.0
O227 O 0.02691 0.12017 0.48903 0.0
H228 H 0.98279 0.178 0.51659 0.0
H229 H 0.09556 0.13106 0.54787 0.0
Cu230 Cu 0.12213 0.78007 0.75258 0.0
N231 N 0.12974 0.76137 0.73709 0.0
N232 N 0.14374 0.73538 0.72739 0.0
C233 C 0.14087 0.74653 0.7416 0.0
C234 C 0.13397 0.74365 0.71339 0.0
C235 C 0.12536 0.75967 0.71943 0.0
O236 O 0.14096 0.77892 0.77328 0.0
C237 C 0.08402 0.76248 0.76289 0.0
O238 O 0.09619 0.74807 0.76316 0.0
H239 H 0.14644 0.74392 0.75516 0.0
H240 H 0.11658 0.76943 0.71151 0.0
N241 N 0.12617 0.80216 0.74108 0.0
N242 N 0.11987 0.82825 0.72698 0.0
C243 C 0.11151 0.81244 0.73265 0.0
C244 C 0.14438 0.81169 0.74064 0.0
C245 C 0.14055 0.8278 0.73198 0.0
C246 C 0.14188 0.79111 0.7853 0.0
O247 O 0.12851 0.80473 0.78459 0.0
H248 H 0.09495 0.80863 0.73121 0.0
H249 H 0.15931 0.80732 0.7465 0.0
O250 O 0.09232 0.7777 0.75923 0.0
H251 H 0.13332 0.73867 0.69969 0.0
H252 H 0.15211 0.83835 0.72954 0.0
Cu253 Cu 0.46519 0.86655 0.99359 0.0
N254 N 0.48001 0.84683 1.00268 0.0
N255 N 0.49217 0.81892 0.0073 0.0
C256 C 0.47744 0.82922 0.99885 0.0
C257 C 0.50432 0.83052 0.01682 0.0
C258 C 0.49676 0.8477 0.01395 0.0
O259 O 0.44366 0.85856 0.97654 0.0
C260 C 0.48366 0.89963 0.98204 0.0
O261 O 0.4652 0.90668 0.98655 0.0
H262 H 0.46543 0.82414 0.9897 0.0
H263 H 0.50317 0.86005 0.01948 0.0
N264 N 0.45138 0.87801 0.01267 0.0
N265 N 0.4445 0.89627 0.03594 0.0
C266 C 0.45945 0.89019 0.02429 0.0
C267 C 0.43075 0.87618 0.01718 0.0
C268 C 0.42645 0.8874 0.03151 0.0
C269 C 0.44772 0.85106 0.96151 0.0
O270 O 0.46765 0.84905 0.95647 0.0
H271 H 0.47589 0.89457 0.02404 0.0
H272 H 0.41955 0.86752 0.01028 0.0
O273 O 0.48621 0.88265 0.98305 0.0
H274 H 0.51769 0.82686 0.0253 0.0
H275 H 0.41103 0.88927 0.03779 0.0
Cu276 Cu 0.38651 0.77488 0.25569 0.0
N277 N 0.37891 0.7567 0.2718 0.0
N278 N 0.36491 0.73103 0.28236 0.0
C279 C 0.366 0.74264 0.26831 0.0
C280 C 0.37767 0.73823 0.29517 0.0
C281 C 0.38629 0.75402 0.2886 0.0
O282 O 0.36719 0.7737 0.23532 0.0
C283 C 0.42218 0.75617 0.24241 0.0
O284 O 0.40802 0.74345 0.23957 0.0
H285 H 0.35774 0.74099 0.25562 0.0
H286 H 0.39753 0.76273 0.2954 0.0
N287 N 0.38342 0.79741 0.26654 0.0
N288 N 0.39062 0.82383 0.27964 0.0
C289 C 0.3984 0.80756 0.27468 0.0
C290 C 0.36561 0.80749 0.26644 0.0
C291 C 0.36999 0.8238 0.27448 0.0
C292 C 0.36726 0.78522 0.22262 0.0
O293 O 0.38191 0.79787 0.22247 0.0
H294 H 0.41479 0.80333 0.27641 0.0
H295 H 0.35059 0.80337 0.2606 0.0
O296 O 0.41601 0.77124 0.24872 0.0
H297 H 0.38107 0.73232 0.3082 0.0
H298 H 0.35885 0.83477 0.2764 0.0
Cu299 Cu 0.46255 0.1372 0.51729 0.0
N300 N 0.47812 0.15583 0.50695 0.0
N301 N 0.49149 0.183 0.50079 0.0
C302 C 0.47598 0.17373 0.50937 0.0
C303 C 0.50373 0.17046 0.49264 0.0
C304 C 0.49541 0.15372 0.49645 0.0
O305 O 0.44126 0.14702 0.53362 0.0
C306 C 0.48096 0.10443 0.52976 0.0
O307 O 0.463 0.09711 0.52439 0.0
H308 H 0.46378 0.17977 0.51775 0.0
H309 H 0.50176 0.14085 0.49221 0.0
N310 N 0.4485 0.12465 0.49902 0.0
N311 N 0.44184 0.10603 0.47597 0.0
C312 C 0.45701 0.11369 0.48645 0.0
C313 C 0.42732 0.12404 0.49639 0.0
C314 C 0.42316 0.11261 0.48221 0.0
C315 C 0.44447 0.15086 0.55012 0.0
O316 O 0.46332 0.14786 0.55723 0.0
H317 H 0.47395 0.11126 0.48522 0.0
H318 H 0.4157 0.13115 0.5045 0.0
O319 O 0.48312 0.12146 0.529 0.0
H320 H 0.51772 0.17318 0.48455 0.0
H321 H 0.40749 0.10902 0.47731 0.0
Cu322 Cu 0.11743 0.23122 0.75265 0.0
N323 N 0.12601 0.25035 0.7672 0.0
N324 N 0.14143 0.27623 0.77547 0.0
C325 C 0.13767 0.26459 0.76183 0.0
C326 C 0.13172 0.26894 0.79001 0.0
C327 C 0.12218 0.25298 0.78484 0.0
O328 O 0.13455 0.2324 0.73091 0.0
C329 C 0.07814 0.24691 0.74145 0.0
O330 O 0.09006 0.26036 0.73586 0.0
H331 H 0.14355 0.26616 0.7482 0.0
H332 H 0.11311 0.24394 0.79332 0.0
N333 N 0.12297 0.20943 0.76428 0.0
N334 N 0.11808 0.18305 0.77824 0.0
C335 C 0.1088 0.19839 0.7723 0.0
C336 C 0.14184 0.20086 0.76524 0.0
C337 C 0.13887 0.18457 0.77381 0.0
C338 C 0.13719 0.21941 0.71994 0.0
O339 O 0.12618 0.20451 0.7221 0.0
H340 H 0.09194 0.20134 0.77328 0.0
H341 H 0.15662 0.206 0.75978 0.0
O342 O 0.08701 0.23307 0.74827 0.0
H343 H 0.1313 0.27477 0.80338 0.0
H344 H 0.15108 0.17464 0.7766 0.0
Cu345 Cu 0.04416 0.86867 0.01352 0.0
N346 N 0.02611 0.85019 0.00621 0.0
N347 N 0.01191 0.82301 1.00172 0.0
C348 C 0.02901 0.83228 0.00775 0.0
C349 C 0.99783 0.83558 0.99613 0.0
C350 C 0.00667 0.85233 0.99888 0.0
O351 O 0.06331 0.85975 0.03217 0.0
C352 C 0.01034 0.88719 0.0314 0.0
O353 O 0.00715 0.87198 0.04007 0.0
H354 H 0.04314 0.82621 0.01355 0.0
H355 H 0.99937 0.86521 0.99593 0.0
N356 N 0.0595 0.87667 0.99357 0.0
N357 N 0.06912 0.89411 0.97036 0.0
C358 C 0.05535 0.89178 0.98417 0.0
C359 C 0.07643 0.86905 0.98548 0.0
C360 C 0.08241 0.87978 0.97113 0.0
C361 C 0.08127 0.86703 0.03547 0.0
O362 O 0.08655 0.88188 0.02692 0.0
H363 H 0.04222 0.9007 0.9873 0.0
H364 H 0.0839 0.85662 0.98976 0.0
O365 O 0.02629 0.88864 0.02092 0.0
H366 H 0.98231 0.83288 0.99036 0.0
H367 H 0.09567 0.8773 0.96214 0.0
Cu368 Cu 0.23582 0.40246 0.2352 0.0
N369 N 0.21438 0.39352 0.25004 0.0
N370 N 0.19843 0.37687 0.2712 0.0
C371 C 0.21622 0.37937 0.26127 0.0
C372 C 0.18485 0.39 0.26596 0.0
C373 C 0.19476 0.40025 0.25286 0.0
O374 O 0.2599 0.38621 0.23803 0.0
C375 C 0.25047 0.43913 0.23353 0.0
O376 O 0.25551 0.43564 0.21669 0.0
H377 H 0.23064 0.37145 0.26256 0.0
H378 H 0.18828 0.41196 0.2461 0.0
N379 N 0.22651 0.40188 0.21123 0.0
N380 N 0.21343 0.40953 0.18425 0.0
C381 C 0.21675 0.41483 0.20147 0.0
C382 C 0.229 0.38787 0.19992 0.0
C383 C 0.22109 0.39257 0.18326 0.0
C384 C 0.27488 0.38436 0.22662 0.0
O385 O 0.2756 0.39503 0.2125 0.0
H386 H 0.21265 0.42798 0.20675 0.0
H387 H 0.23629 0.37516 0.20353 0.0
O388 O 0.24251 0.42674 0.24331 0.0
H389 H 0.16896 0.3921 0.27124 0.0
H390 H 0.22085 0.3841 0.17138 0.0
Cu391 Cu 0.73723 0.10093 0.78196 0.0
N392 N 0.71743 0.109 0.76508 0.0
N393 N 0.7032 0.12529 0.74273 0.0
C394 C 0.72057 0.12237 0.7531 0.0
C395 C 0.68859 0.1132 0.74847 0.0
C396 C 0.69742 0.10319 0.76228 0.0
O397 O 0.76214 0.11615 0.77926 0.0
C398 C 0.74598 0.06909 0.76223 0.0
O399 O 0.74507 0.07989 0.74821 0.0
H400 H 0.73545 0.12964 0.75195 0.0
H401 H 0.68979 0.0925 0.76981 0.0
N402 N 0.72594 0.10375 0.80506 0.0
N403 N 0.71157 0.09759 0.83193 0.0
C404 C 0.71752 0.09091 0.81574 0.0
C405 C 0.72514 0.11908 0.81471 0.0
C406 C 0.71636 0.11531 0.83132 0.0
C407 C 0.77564 0.11923 0.79166 0.0
O408 O 0.77415 0.11049 0.80703 0.0
H409 H 0.7162 0.0769 0.81183 0.0
H410 H 0.73075 0.13204 0.81002 0.0
O411 O 0.7436 0.07563 0.77796 0.0
H412 H 0.67255 0.11184 0.7433 0.0
H413 H 0.71352 0.12491 0.84205 0.0
Cu414 Cu 0.13725 0.49865 0.03426 0.0
N415 N 0.12955 0.48479 0.01434 0.0
N416 N 0.11593 0.47694 0.98761 0.0
C417 C 0.11799 0.49017 1.00001 0.0
C418 C 0.12655 0.46268 0.99453 0.0
C419 C 0.13496 0.46758 0.01099 0.0
O420 O 0.11671 0.51807 0.03669 0.0
C421 C 0.17482 0.50977 0.01617 0.0
O422 O 0.1627 0.50881 1.00176 0.0
H423 H 0.11126 0.50354 0.99876 0.0
H424 H 0.14457 0.45928 0.01982 0.0
N425 N 0.13486 0.48464 0.05502 0.0
N426 N 0.14222 0.47029 0.08078 0.0
C427 C 0.15035 0.47885 0.06621 0.0
C428 C 0.11641 0.4795 0.06267 0.0
C429 C 0.12088 0.47067 0.07856 0.0
C430 C 0.11711 0.53312 0.02851 0.0
O431 O 0.13316 0.53695 0.01781 0.0
H432 H 0.16715 0.48137 0.06402 0.0
H433 H 0.10077 0.48232 0.0572 0.0
O434 O 0.16665 0.50671 0.03159 0.0
H435 H 0.12852 0.44974 0.98802 0.0
H436 H 0.10931 0.46497 0.08777 0.0
Cu437 Cu 0.77184 0.904 0.27819 0.0
N438 N 0.79227 0.89405 0.26296 0.0
N439 N 0.80658 0.87679 0.24142 0.0
C440 C 0.78884 0.88081 0.25093 0.0
C441 C 0.82178 0.88798 0.24786 0.0
C442 C 0.81288 0.89863 0.26113 0.0
O443 O 0.74674 0.88889 0.27577 0.0
C444 C 0.75602 0.94 0.27965 0.0
O445 O 0.74754 0.93498 0.29505 0.0
H446 H 0.77357 0.87424 0.2493 0.0
H447 H 0.82077 0.90909 0.26877 0.0
N448 N 0.78179 0.90311 0.30194 0.0
N449 N 0.79504 0.91074 0.32886 0.0
C450 C 0.79043 0.91639 0.31196 0.0
C451 C 0.7812 0.88857 0.31276 0.0
C452 C 0.78924 0.89323 0.32938 0.0
C453 C 0.73271 0.8864 0.28791 0.0
O454 O 0.73361 0.89577 0.30291 0.0
H455 H 0.79291 0.92998 0.30706 0.0
H456 H 0.77515 0.8755 0.30883 0.0
O457 O 0.76661 0.92863 0.27047 0.0
H458 H 0.83806 0.88873 0.24311 0.0
H459 H 0.79092 0.88437 0.34089 0.0
Cu460 Cu 0.87005 0.00835 0.02558 0.0
N461 N 0.88071 0.02058 0.00545 0.0
N462 N 0.89792 0.02743 0.97992 0.0
C463 C 0.89515 0.01509 0.99315 0.0
C464 C 0.88484 0.04123 0.9842 0.0
C465 C 0.87426 0.03695 0.9999 0.0
O466 O 0.88685 0.98684 0.03008 0.0
C467 C 0.82792 0.9944 0.03115 0.0
O468 O 0.83526 0.98804 0.04648 0.0
H469 H 0.90352 1.00238 0.99389 0.0
H470 H 0.86237 0.04506 0.00668 0.0
N471 N 0.87297 0.02341 0.04556 0.0
N472 N 0.86729 0.03961 0.07054 0.0
C473 C 0.85852 0.02861 0.058 0.0
C474 C 0.89137 0.0313 0.05039 0.0
C475 C 0.88796 0.04127 0.06573 0.0
C476 C 0.88932 0.97439 0.0185 0.0
O477 O 0.87901 0.97528 1.0031 0.0
H478 H 0.84196 0.02458 0.05776 0.0
H479 H 0.90629 0.02976 0.04325 0.0
O480 O 0.84033 1.00305 0.02073 0.0
H481 H 0.88258 0.05335 0.9763 0.0
H482 H 0.89993 0.04888 0.07295 0.0
Cu483 Cu 0.26923 0.60441 0.7301 0.0
N484 N 0.29007 0.61414 0.74506 0.0
N485 N 0.30479 0.63104 0.7667 0.0
C486 C 0.28688 0.62722 0.75732 0.0
C487 C 0.31985 0.6199 0.75992 0.0
C488 C 0.31069 0.60947 0.74659 0.0
O489 O 0.24444 0.61989 0.73271 0.0
C490 C 0.25292 0.56855 0.72893 0.0
O491 O 0.24434 0.57358 0.71357 0.0
H492 H 0.27165 0.63378 0.75924 0.0
H493 H 0.31841 0.59907 0.73874 0.0
N494 N 0.27873 0.60499 0.70623 0.0
N495 N 0.29186 0.59697 0.67938 0.0
C496 C 0.28772 0.59167 0.69648 0.0
C497 C 0.27741 0.6192 0.69503 0.0
C498 C 0.28539 0.6143 0.67845 0.0
C499 C 0.22987 0.62205 0.72097 0.0
O500 O 0.22995 0.61211 0.70632 0.0
H501 H 0.29079 0.5783 0.70172 0.0
H502 H 0.27094 0.63222 0.69867 0.0
O503 O 0.26373 0.57987 0.73799 0.0
H504 H 0.33619 0.61901 0.76449 0.0
H505 H 0.28659 0.62289 0.66669 0.0
Cu506 Cu 0.13791 0.50841 0.48254 0.0
N507 N 0.12906 0.52558 0.49928 0.0
N508 N 0.11476 0.53694 0.52446 0.0
C509 C 0.12092 0.52188 0.51565 0.0
C510 C 0.11936 0.55067 0.51312 0.0
C511 C 0.12812 0.5436 0.49757 0.0
O512 O 0.11792 0.48862 0.48496 0.0
C513 C 0.18105 0.51394 0.48924 0.0
O514 O 0.1751 0.53071 0.48652 0.0
H515 H 0.11943 0.50831 0.52086 0.0
H516 H 0.13305 0.55102 0.48572 0.0
N517 N 0.13549 0.51771 0.45916 0.0
N518 N 0.14265 0.52946 0.43203 0.0
C519 C 0.15071 0.52438 0.44818 0.0
C520 C 0.11726 0.51863 0.44965 0.0
C521 C 0.12161 0.52581 0.43293 0.0
C522 C 0.11528 0.47605 0.47353 0.0
O523 O 0.12813 0.47487 0.4596 0.0
H524 H 0.16738 0.52524 0.45179 0.0
H525 H 0.10186 0.51431 0.45457 0.0
O526 O 0.16718 0.50149 0.48802 0.0
H527 H 0.11602 0.56476 0.51559 0.0
H528 H 0.11011 0.52844 0.42236 0.0
Cu529 Cu 0.371 0.49966 0.98066 0.0
N530 N 0.37936 0.4839 0.99895 0.0
N531 N 0.39397 0.47389 0.02461 0.0
C532 C 0.39062 0.48827 0.01377 0.0
C533 C 0.38438 0.45993 0.01617 0.0
C534 C 0.3754 0.46615 1.00035 0.0
O535 O 0.38953 0.52053 0.98191 0.0
C536 C 0.33337 0.5096 0.99919 0.0
O537 O 0.346 0.50983 0.01331 0.0
H538 H 0.39592 0.50185 0.0166 0.0
H539 H 0.36663 0.45832 0.99055 0.0
N540 N 0.37484 0.48879 0.95818 0.0
N541 N 0.36858 0.47578 0.93152 0.0
C542 C 0.36022 0.48071 0.94759 0.0
C543 C 0.39302 0.48886 0.94857 0.0
C544 C 0.38921 0.48088 0.93212 0.0
C545 C 0.38999 0.53274 0.96986 0.0
O546 O 0.3763 0.53209 0.95647 0.0
H547 H 0.34367 0.47902 0.95136 0.0
H548 H 0.40789 0.49466 0.95311 0.0
O549 O 0.34118 0.50602 0.98375 0.0
H550 H 0.38409 0.44614 0.0209 0.0
H551 H 0.40073 0.479 0.92142 0.0
Cu552 Cu 0.71315 0.74104 0.88969 0.0
N553 N 0.73007 0.74872 0.90884 0.0
N554 N 0.74415 0.75231 0.93625 0.0
C555 C 0.72807 0.74504 0.92655 0.0
C556 C 0.75659 0.76094 0.92417 0.0
C557 C 0.74783 0.75873 0.90731 0.0
O558 O 0.69165 0.72399 0.898 0.0
C559 C 0.74894 0.72308 0.87446 0.0
O560 O 0.7533 0.71869 0.89123 0.0
H561 H 0.71539 0.73688 0.93213 0.0
H562 H 0.75407 0.76386 0.89471 0.0
N563 N 0.69928 0.76108 0.88016 0.0
N564 N 0.69179 0.78478 0.86261 0.0
C565 C 0.7056 0.7712 0.86607 0.0
C566 C 0.6809 0.76844 0.88588 0.0
C567 C 0.67624 0.78306 0.8751 0.0
C568 C 0.69587 0.70909 0.90573 0.0
O569 O 0.71584 0.7042 0.90777 0.0
H570 H 0.72017 0.76871 0.85867 0.0
H571 H 0.67154 0.76345 0.89706 0.0
O572 O 0.7318 0.73159 0.87098 0.0
H573 H 0.77092 0.76843 0.92731 0.0
H574 H 0.66228 0.79156 0.87622 0.0
Cu575 Cu 0.52171 0.47863 0.15472 0.0
N576 N 0.54226 0.49414 0.14541 0.0
N577 N 0.55716 0.51542 0.1282 0.0
C578 C 0.53963 0.50533 0.1313 0.0
C579 C 0.57137 0.51033 0.14091 0.0
C580 C 0.56213 0.49716 0.15149 0.0
O581 O 0.4969 0.48122 0.13921 0.0
C582 C 0.50658 0.47565 0.19092 0.0
O583 O 0.49942 0.45983 0.18576 0.0
H584 H 0.5249 0.50636 0.12376 0.0
H585 H 0.56927 0.49038 0.16291 0.0
N586 N 0.53191 0.45499 0.1535 0.0
N587 N 0.54606 0.42828 0.16072 0.0
C588 C 0.54159 0.44517 0.16644 0.0
C589 C 0.53052 0.44405 0.13908 0.0
C590 C 0.53912 0.42756 0.14351 0.0
C591 C 0.48254 0.46935 0.13685 0.0
O592 O 0.48284 0.45457 0.1466 0.0
H593 H 0.54487 0.45019 0.17986 0.0
H594 H 0.52356 0.44781 0.12627 0.0
O595 O 0.51599 0.4857 0.17952 0.0
H596 H 0.58732 0.51566 0.14244 0.0
H597 H 0.54035 0.416 0.13468 0.0
Cu598 Cu 0.79462 0.26648 0.38885 0.0
N599 N 0.77526 0.26183 0.40736 0.0
N600 N 0.7598 0.25846 0.43426 0.0
C601 C 0.77814 0.26201 0.42537 0.0
C602 C 0.745 0.25576 0.42135 0.0
C603 C 0.7546 0.25776 0.40481 0.0
O604 O 0.81795 0.28188 0.39681 0.0
C605 C 0.76443 0.28842 0.37047 0.0
O606 O 0.76207 0.2964 0.38616 0.0
H607 H 0.79321 0.26504 0.4318 0.0
H608 H 0.74703 0.25645 0.39177 0.0
N609 N 0.80603 0.24462 0.38123 0.0
N610 N 0.81212 0.22002 0.36462 0.0
C611 C 0.80056 0.2353 0.36636 0.0
C612 C 0.8215 0.23497 0.38924 0.0
C613 C 0.82532 0.21978 0.37902 0.0
C614 C 0.81583 0.29523 0.40744 0.0
O615 O 0.7967 0.29974 0.41305 0.0
H616 H 0.78857 0.23983 0.35689 0.0
H617 H 0.82941 0.23873 0.40164 0.0
O618 O 0.77866 0.27633 0.36868 0.0
H619 H 0.72844 0.25237 0.42368 0.0
H620 H 0.83675 0.2093 0.38211 0.0
Cu621 Cu 0.99271 0.53336 0.65764 0.0
N622 N 0.9737 0.51574 0.64989 0.0
N623 N 0.96032 0.49279 0.63399 0.0
C624 C 0.97716 0.50385 0.63651 0.0
C625 C 0.94573 0.49799 0.64635 0.0
C626 C 0.95403 0.51217 0.65612 0.0
O627 O 0.01755 0.53157 0.64215 0.0
C628 C 1.00279 0.51393 0.6894 0.0
O629 O 1.00259 0.49995 0.67853 0.0
H630 H 0.99189 0.50324 0.62896 0.0
H631 H 0.94628 0.51943 0.66694 0.0
N632 N 0.98001 0.55592 0.65488 0.0
N633 N 0.96398 0.58207 0.66112 0.0
C634 C 0.97117 0.56624 0.66781 0.0
C635 C 0.97819 0.56541 0.6395 0.0
C636 C 0.9684 0.5816 0.64332 0.0
C637 C 0.02993 0.54458 0.63827 0.0
O638 O 0.02735 0.56019 0.64634 0.0
H639 H 0.9704 0.56235 0.68186 0.0
H640 H 0.98376 0.56091 0.62645 0.0
O641 O 0.99955 0.52958 0.68292 0.0
H642 H 0.93004 0.49219 0.64806 0.0
H643 H 0.96462 0.59211 0.63371 0.0
Cu644 Cu 0.70819 0.25884 0.61395 0.0
N645 N 0.72002 0.24815 0.5936 0.0
N646 N 0.73242 0.24398 0.56569 0.0
C647 C 0.7209 0.25474 0.57669 0.0
C648 C 0.73894 0.23009 0.57609 0.0
C649 C 0.73127 0.23272 0.59329 0.0
O650 O 0.68729 0.27681 0.60659 0.0
C651 C 0.73057 0.2724 0.64459 0.0
O652 O 0.71187 0.27233 0.65257 0.0
H653 H 0.71384 0.26744 0.57271 0.0
H654 H 0.73402 0.22417 0.60489 0.0
N655 N 0.6942 0.24109 0.62722 0.0
N656 N 0.68763 0.21866 0.64657 0.0
C657 C 0.70247 0.23002 0.63982 0.0
C658 C 0.6735 0.23663 0.62592 0.0
C659 C 0.66939 0.2228 0.63781 0.0
C660 C 0.69174 0.29221 0.60005 0.0
O661 O 0.71178 0.29719 0.59883 0.0
H662 H 0.71908 0.23019 0.64375 0.0
H663 H 0.6622 0.24303 0.61694 0.0
O664 O 0.73182 0.26817 0.62801 0.0
H665 H 0.74858 0.21886 0.57161 0.0
H666 H 0.65406 0.21649 0.64002 0.0
Cu667 Cu 0.99374 0.4728 0.85487 0.0
N668 N 0.97455 0.48993 0.86362 0.0
N669 N 0.96035 0.51175 0.8806 0.0
C670 C 0.97674 0.50012 0.87853 0.0
C671 C 0.94723 0.50857 0.86651 0.0
C672 C 0.95604 0.49511 0.85607 0.0
O673 O 0.01864 0.4722 0.87039 0.0
C674 C 1.00164 0.49361 0.8233 0.0
O675 O 0.99865 0.50746 0.83403 0.0
H676 H 0.99008 0.49899 0.88769 0.0
H677 H 0.94965 0.48969 0.84366 0.0
N678 N 0.98129 0.45009 0.85636 0.0
N679 N 0.9662 0.42383 0.84907 0.0
C680 C 0.97195 0.44038 0.8432 0.0
C681 C 0.98133 0.43941 0.87102 0.0
C682 C 0.97206 0.4232 0.86658 0.0
C683 C 0.03008 0.48576 0.87437 0.0
O684 O 0.02627 0.50134 0.86658 0.0
H685 H 0.97001 0.44515 0.8295 0.0
H686 H 0.98798 0.4431 0.88396 0.0
O687 O 1.00082 0.47773 0.82979 0.0
H688 H 0.93262 0.51579 0.86364 0.0
H689 H 0.96977 0.41185 0.87554 0.0
Cu690 Cu 0.79653 0.74153 0.11592 0.0
N691 N 0.78014 0.74969 0.09664 0.0
N692 N 0.76622 0.75334 0.06917 0.0
C693 C 0.78177 0.74545 0.07904 0.0
C694 C 0.7545 0.76293 0.08104 0.0
C695 C 0.76316 0.76068 0.09795 0.0
O696 O 0.81801 0.72448 0.10767 0.0
C697 C 0.75995 0.72422 0.1305 0.0
O698 O 0.75554 0.72039 0.11361 0.0
H699 H 0.79378 0.73646 0.07366 0.0
H700 H 0.75736 0.76644 0.11042 0.0
N701 N 0.81054 0.76122 0.12594 0.0
N702 N 0.81794 0.78458 0.14388 0.0
C703 C 0.80361 0.7717 0.13954 0.0
C704 C 0.82984 0.76766 0.12143 0.0
C705 C 0.83448 0.78207 0.13249 0.0
C706 C 0.81404 0.70917 0.10072 0.0
O707 O 0.79419 0.70371 0.09947 0.0
H708 H 0.78853 0.76964 0.14633 0.0
H709 H 0.83985 0.76219 0.11089 0.0
O710 O 0.77743 0.73207 0.13427 0.0
H711 H 0.74074 0.77109 0.07773 0.0
H712 H 0.84883 0.79014 0.13205 0.0
Cu713 Cu 0.52456 0.53121 0.35196 0.0
N714 N 0.54285 0.51343 0.36084 0.0
N715 N 0.55611 0.49095 0.37757 0.0
C716 C 0.53986 0.50272 0.3753 0.0
C717 C 0.56988 0.49456 0.36404 0.0
C718 C 0.56167 0.50842 0.35378 0.0
O719 O 0.5004 0.53361 0.36815 0.0
C720 C 0.51352 0.50952 0.32185 0.0
O721 O 0.51501 0.49626 0.33353 0.0
H722 H 0.52585 0.50333 0.38375 0.0
H723 H 0.56882 0.51438 0.34192 0.0
N724 N 0.5387 0.55327 0.35256 0.0
N725 N 0.55296 0.57972 0.3447 0.0
C726 C 0.54471 0.56396 0.33876 0.0
C727 C 0.54341 0.56249 0.36765 0.0
C728 C 0.55218 0.5788 0.36286 0.0
C729 C 0.48728 0.52121 0.37223 0.0
O730 O 0.48855 0.50554 0.36407 0.0
H731 H 0.54245 0.56051 0.3247 0.0
H732 H 0.54027 0.55776 0.38119 0.0
O733 O 0.51645 0.52564 0.3272 0.0
H734 H 0.5849 0.48777 0.36171 0.0
H735 H 0.55758 0.58917 0.37204 0.0
Cu736 Cu 0.8873 0.73069 0.75064 0.0
N737 N 0.87984 0.74925 0.73494 0.0
N738 N 0.86519 0.77482 0.72481 0.0
C739 C 0.86801 0.76378 0.73913 0.0
C740 C 0.87576 0.76681 0.71109 0.0
C741 C 0.88477 0.75104 0.71739 0.0
O742 O 0.86797 0.73177 0.77101 0.0
C743 C 0.92511 0.74853 0.76132 0.0
O744 O 0.91294 0.76294 0.76108 0.0
H745 H 0.86183 0.76621 0.75253 0.0
H746 H 0.89412 0.74149 0.70972 0.0
N747 N 0.88372 0.70857 0.73916 0.0
N748 N 0.89063 0.68266 0.725 0.0
C749 C 0.8986 0.69858 0.7307 0.0
C750 C 0.86573 0.69873 0.7387 0.0
C751 C 0.86995 0.68271 0.73001 0.0
C752 C 0.86686 0.71956 0.78301 0.0
O753 O 0.88034 0.70601 0.78253 0.0
H754 H 0.91507 0.70269 0.72926 0.0
H755 H 0.85071 0.70282 0.74457 0.0
O756 O 0.91692 0.73325 0.75779 0.0
H757 H 0.87664 0.77176 0.69739 0.0
H758 H 0.85867 0.67195 0.72757 0.0
Cu759 Cu 0.54338 0.63958 0.99245 0.0
N760 N 0.52617 0.65832 1.00055 0.0
N761 N 0.51266 0.68581 0.00495 0.0
C762 C 0.52879 0.67611 0.99775 0.0
C763 C 0.49949 0.67362 0.01259 0.0
C764 C 0.50789 0.65668 0.00988 0.0
O765 O 0.56302 0.64889 0.97439 0.0
C766 C 0.50847 0.62364 0.97403 0.0
O767 O 0.50477 0.64011 0.96828 0.0
H768 H 0.54199 0.68175 0.99025 0.0
H769 H 0.50109 0.64401 0.01422 0.0
N770 N 0.55834 0.6303 0.01207 0.0
N771 N 0.56693 0.61239 0.03524 0.0
C772 C 0.55289 0.6157 0.0218 0.0
C773 C 0.57638 0.63657 0.01957 0.0
C774 C 0.58174 0.62555 0.03386 0.0
C775 C 0.58045 0.64106 0.9704 0.0
O776 O 0.58489 0.62543 0.97784 0.0
H777 H 0.5387 0.60786 0.01915 0.0
H778 H 0.58503 0.64828 0.01491 0.0
O779 O 0.52499 0.62057 0.9835 0.0
H780 H 0.48491 0.67672 0.01975 0.0
H781 H 0.59562 0.62702 0.04239 0.0
Cu782 Cu 0.62288 0.27887 0.24962 0.0
N783 N 0.63078 0.25961 0.23493 0.0
N784 N 0.64497 0.23324 0.22664 0.0
C785 C 0.64148 0.24485 0.24035 0.0
C786 C 0.63618 0.24111 0.21199 0.0
C787 C 0.62738 0.25738 0.21716 0.0
O788 O 0.64208 0.27873 0.2701 0.0
C789 C 0.58531 0.26108 0.26111 0.0
O790 O 0.59774 0.24684 0.2617 0.0
H791 H 0.64681 0.24282 0.25408 0.0
H792 H 0.61911 0.2669 0.20861 0.0
N793 N 0.62626 0.30052 0.23714 0.0
N794 N 0.61912 0.32649 0.22311 0.0
C795 C 0.61095 0.31113 0.23008 0.0
C796 C 0.6447 0.30936 0.23447 0.0
C797 C 0.64035 0.3254 0.22585 0.0
C798 C 0.64487 0.29209 0.28058 0.0
O799 O 0.6331 0.3066 0.27854 0.0
H800 H 0.59414 0.3079 0.23053 0.0
H801 H 0.66017 0.30458 0.2388 0.0
O802 O 0.59324 0.27626 0.25677 0.0
H803 H 0.63587 0.23545 0.19854 0.0
H804 H 0.65193 0.33546 0.22188 0.0
Cu805 Cu 0.96415 0.36802 0.49669 0.0
N806 N 0.97925 0.34804 0.50493 0.0
N807 N 0.99175 0.32012 0.50881 0.0
C808 C 0.97664 0.33047 0.50093 0.0
C809 C 1.00415 0.33165 0.51819 0.0
C810 C 0.99639 0.34882 0.51577 0.0
O811 O 0.94144 0.36081 0.48035 0.0
C812 C 0.98281 0.40117 0.48536 0.0
O813 O 0.96483 0.40845 0.49079 0.0
H814 H 0.96428 0.32546 0.49208 0.0
H815 H 1.00293 0.36111 0.52132 0.0
N816 N 0.95156 0.37914 0.51657 0.0
N817 N 0.94608 0.39673 0.5406 0.0
C818 C 0.96025 0.39115 0.52804 0.0
C819 C 0.93133 0.37693 0.52211 0.0
C820 C 0.92789 0.38774 0.53691 0.0
C821 C 0.94396 0.3516 0.46603 0.0
O822 O 0.96329 0.34703 0.46099 0.0
H823 H 0.97659 0.39572 0.52711 0.0
H824 H 0.91981 0.36823 0.51563 0.0
O825 O 0.9849 0.38412 0.48575 0.0
H826 H 0.01784 0.32795 0.52628 0.0
H827 H 0.91296 0.38922 0.54406 0.0
Cu828 Cu 0.88004 0.27884 0.75866 0.0
N829 N 0.87007 0.26069 0.7739 0.0
N830 N 0.85654 0.23455 0.7836 0.0
C831 C 0.86294 0.24425 0.76913 0.0
C832 C 0.85978 0.2454 0.79797 0.0
C833 C 0.86806 0.2615 0.79193 0.0
O834 O 0.85979 0.28112 0.73902 0.0
C835 C 0.9217 0.2654 0.76147 0.0
O836 O 0.91476 0.26071 0.77751 0.0
H837 H 0.86254 0.23954 0.75533 0.0
H838 H 0.8722 0.27307 0.80009 0.0
N839 N 0.87929 0.30073 0.77092 0.0
N840 N 0.88836 0.32642 0.78456 0.0
C841 C 0.89541 0.31058 0.77778 0.0
C842 C 0.86155 0.31056 0.77357 0.0
C843 C 0.86708 0.32641 0.78195 0.0
C844 C 0.85963 0.2722 0.7244 0.0
O845 O 0.87498 0.26061 0.72111 0.0
H846 H 0.91196 0.30647 0.77734 0.0
H847 H 0.84573 0.30654 0.76941 0.0
O848 O 0.90911 0.27359 0.75075 0.0
H849 H 0.85595 0.24214 0.81182 0.0
H850 H 0.85626 0.33709 0.78585 0.0
Cu851 Cu 0.9652 0.64264 0.01085 0.0
N852 N 0.9771 0.66256 0.99948 0.0
N853 N 0.98812 0.69061 0.99401 0.0
C854 C 0.97612 0.67991 0.00469 0.0
C855 C 0.99689 0.67954 0.98162 0.0
C856 C 0.99003 0.66224 0.98503 0.0
O857 O 0.94615 0.65124 0.02974 0.0
C858 C 0.98765 0.61235 0.02545 0.0
O859 O 0.96886 0.60467 0.02678 0.0
H860 H 0.96738 0.68448 0.01641 0.0
H861 H 0.99446 0.65018 0.97773 0.0
N862 N 0.95026 0.62945 0.99358 0.0
N863 N 0.9428 0.6093 0.97206 0.0
C864 C 0.95737 0.61515 0.98416 0.0
C865 C 0.93063 0.63291 0.98719 0.0
C866 C 0.92593 0.62047 0.97398 0.0
C867 C 0.92988 0.64259 0.03523 0.0
O868 O 0.92621 0.62634 0.02893 0.0
H869 H 0.97295 0.60923 0.98616 0.0
H870 H 0.92058 0.64388 0.99166 0.0
O871 O 0.98894 0.6285 0.01983 0.0
H872 H 0.00753 0.68364 0.97088 0.0
H873 H 0.91143 0.62005 0.96609 0.0
Cu874 Cu 0.6212 0.73105 0.2534 0.0
N875 N 0.63138 0.74815 0.26963 0.0
N876 N 0.64668 0.77329 0.28004 0.0
C877 C 0.64121 0.76366 0.26528 0.0
C878 C 0.63993 0.76337 0.29422 0.0
C879 C 0.63051 0.74786 0.28774 0.0
O880 O 0.63927 0.73251 0.23219 0.0
C881 C 0.57813 0.72596 0.24146 0.0
O882 O 0.58427 0.70963 0.237 0.0
H883 H 0.64405 0.76782 0.2515 0.0
H884 H 0.62359 0.7371 0.29566 0.0
N885 N 0.62409 0.70802 0.2633 0.0
N886 N 0.61747 0.68133 0.27611 0.0
C887 C 0.60967 0.69787 0.27218 0.0
C888 C 0.6416 0.69766 0.26182 0.0
C889 C 0.63756 0.6812 0.26963 0.0
C890 C 0.63999 0.72047 0.21999 0.0
O891 O 0.62668 0.70683 0.22069 0.0
H892 H 0.59363 0.70232 0.27522 0.0
H893 H 0.65619 0.70174 0.25522 0.0
O894 O 0.5916 0.73686 0.2482 0.0
H895 H 0.64196 0.76687 0.30828 0.0
H896 H 0.64858 0.67 0.27051 0.0
Cu897 Cu 0.54243 0.36258 0.5106 0.0
N898 N 0.52976 0.34288 0.49946 0.0
N899 N 0.51786 0.31505 0.49419 0.0
C900 C 0.5309 0.32541 0.50431 0.0
C901 C 0.50826 0.32643 0.48253 0.0
C902 C 0.51567 0.34359 0.48582 0.0
O903 O 0.56108 0.35366 0.5297 0.0
C904 C 0.52062 0.39363 0.52453 0.0
O905 O 0.53959 0.40093 0.52627 0.0
H906 H 0.54044 0.32054 0.51546 0.0
H907 H 0.51075 0.35583 0.47906 0.0
N908 N 0.55798 0.3751 0.49319 0.0
N909 N 0.56634 0.39439 0.47111 0.0
C910 C 0.5514 0.38922 0.4832 0.0
C911 C 0.57766 0.37113 0.48721 0.0
C912 C 0.58289 0.38302 0.47365 0.0
C913 C 0.57771 0.36187 0.53514 0.0
O914 O 0.58197 0.37799 0.52876 0.0
H915 H 0.53574 0.39521 0.48444 0.0
H916 H 0.58742 0.36021 0.49228 0.0
O917 O 0.51903 0.37746 0.51905 0.0
H918 H 0.49663 0.32264 0.47244 0.0
H919 H 0.59777 0.38325 0.46627 0.0
Cu920 Cu 0.73534 0.90296 0.72678 0.0
N921 N 0.71586 0.895 0.74397 0.0
N922 N 0.70199 0.8786 0.76638 0.0
C923 C 0.71862 0.88081 0.75504 0.0
C924 C 0.68823 0.892 0.76224 0.0
C925 C 0.69683 0.90208 0.74837 0.0
O926 O 0.76022 0.88763 0.72905 0.0
C927 C 0.74491 0.9347 0.7464 0.0
O928 O 0.74432 0.92388 0.76043 0.0
H929 H 0.73282 0.87253 0.75498 0.0
H930 H 0.68981 0.91379 0.74202 0.0
N931 N 0.72364 0.90028 0.70383 0.0
N932 N 0.70874 0.90671 0.67723 0.0
C933 C 0.71452 0.91313 0.69357 0.0
C934 C 0.7235 0.88522 0.69375 0.0
C935 C 0.71438 0.88915 0.6773 0.0
C936 C 0.77413 0.88527 0.71681 0.0
O937 O 0.77302 0.89476 0.70187 0.0
H938 H 0.71267 0.92699 0.69784 0.0
H939 H 0.72986 0.87235 0.69801 0.0
O940 O 0.742 0.9282 0.73072 0.0
H941 H 0.67297 0.89431 0.76865 0.0
H942 H 0.71199 0.8798 0.66629 0.0
Cu943 Cu 0.23637 0.60243 0.2803 0.0
N944 N 0.21635 0.61278 0.2649 0.0
N945 N 0.20244 0.63041 0.24343 0.0
C946 C 0.22009 0.62604 0.25294 0.0
C947 C 0.187 0.61941 0.24979 0.0
C948 C 0.19565 0.60854 0.26301 0.0
O949 O 0.26165 0.61747 0.27859 0.0
C950 C 0.25082 0.56576 0.28125 0.0
O951 O 0.25748 0.56944 0.29763 0.0
H952 H 0.23549 0.63241 0.25138 0.0
H953 H 0.1875 0.59817 0.27061 0.0
N954 N 0.22573 0.60294 0.30387 0.0
N955 N 0.21229 0.59509 0.33069 0.0
C956 C 0.2174 0.58947 0.31388 0.0
C957 C 0.22547 0.61756 0.31459 0.0
C958 C 0.21733 0.61276 0.33113 0.0
C959 C 0.27497 0.62008 0.29126 0.0
O960 O 0.27308 0.61098 0.30637 0.0
H961 H 0.21555 0.57579 0.30907 0.0
H962 H 0.23108 0.63077 0.31065 0.0
O963 O 0.24186 0.57803 0.27195 0.0
H964 H 0.17071 0.61895 0.24502 0.0
H965 H 0.21514 0.62164 0.34256 0.0
Cu966 Cu 0.63666 0.99833 0.52791 0.0
N967 N 0.62989 0.98347 0.50852 0.0
N968 N 0.61643 0.97513 0.4819 0.0
C969 C 0.61941 0.98881 0.49362 0.0
C970 C 0.62534 0.96056 0.48982 0.0
C971 C 0.6337 0.96578 0.50626 0.0
O972 O 0.61662 0.01818 0.52697 0.0
C973 C 0.67448 0.01049 0.51109 0.0
O974 O 0.66225 0.01164 0.49675 0.0
H975 H 0.61376 1.00245 0.49162 0.0
H976 H 0.64187 0.95729 0.5159 0.0
N977 N 0.63252 0.98596 0.5495 0.0
N978 N 0.63864 0.97128 0.5753 0.0
C979 C 0.64724 0.97774 0.55988 0.0
C980 C 0.61403 0.98457 0.55856 0.0
C981 C 0.61775 0.97555 0.57449 0.0
C982 C 0.6138 0.02988 0.53926 0.0
O983 O 0.6265 0.0301 0.55335 0.0
H984 H 0.66399 0.97702 0.55645 0.0
H985 H 0.59897 0.99004 0.554 0.0
O986 O 0.66627 0.00577 0.52606 0.0
H987 H 0.62594 0.94715 0.48413 0.0
H988 H 0.60599 0.97239 0.58469 0.0
Cu989 Cu 0.2701 0.40695 0.78066 0.0
N990 N 0.28786 0.39993 0.76168 0.0
N991 N 0.30156 0.38352 0.73926 0.0
C992 C 0.2906 0.38322 0.75492 0.0
C993 C 0.30617 0.401 0.73619 0.0
C994 C 0.29782 0.41107 0.7501 0.0
O995 O 0.24551 0.39086 0.78179 0.0
C996 C 0.25334 0.43753 0.76258 0.0
O997 O 0.2485 0.4257 0.75008 0.0
H998 H 0.28339 0.37126 0.76066 0.0
H999 H 0.298 0.42561 0.75121 0.0
N1000 N 0.28471 0.40473 0.80247 0.0
N1001 N 0.30023 0.41116 0.82884 0.0
C1002 C 0.29228 0.41788 0.81327 0.0
C1003 C 0.2881 0.38924 0.81144 0.0
C1004 C 0.29764 0.39315 0.8277 0.0
C1005 C 0.23652 0.38414 0.76794 0.0
O1006 O 0.24298 0.38897 0.75181 0.0
H1007 H 0.29129 0.43209 0.81004 0.0
H1008 H 0.28351 0.37604 0.8066 0.0
O1009 O 0.26207 0.43211 0.77711 0.0
H1010 H 0.31433 0.40616 0.72441 0.0
H1011 H 0.30226 0.38348 0.83792 0.0
Cu1012 Cu 0.37553 0.51005 0.53057 0.0
N1013 N 0.3888 0.52401 0.51297 0.0
N1014 N 0.40518 0.53171 0.48731 0.0
C1015 C 0.39769 0.51804 0.49757 0.0
C1016 C 0.40078 0.54685 0.49674 0.0
C1017 C 0.39066 0.54205 0.51253 0.0
O1018 O 0.39249 0.48843 0.53378 0.0
C1019 C 0.33246 0.49587 0.52935 0.0
O1020 O 0.33755 0.48544 0.54301 0.0
H1021 H 0.39868 0.50393 0.49405 0.0
H1022 H 0.38479 0.55106 0.52286 0.0
N1023 N 0.37611 0.52238 0.55246 0.0
N1024 N 0.36688 0.53554 0.57841 0.0
C1025 C 0.35985 0.52843 0.5627 0.0
C1026 C 0.39392 0.52588 0.56192 0.0
C1027 C 0.3883 0.53397 0.57792 0.0
C1028 C 0.39276 0.47472 0.52351 0.0
O1029 O 0.37921 0.4737 0.51005 0.0
H1030 H 0.34324 0.52716 0.55896 0.0
H1031 H 0.40987 0.5225 0.55755 0.0
O1032 O 0.34642 0.5063 0.52259 0.0
H1033 H 0.4042 0.56047 0.49242 0.0
H1034 H 0.39915 0.5384 0.58836 0.0
Cu1035 Cu 0.77103 0.10165 0.22619 0.0
N1036 N 0.78754 0.10993 0.24543 0.0
N1037 N 0.79972 0.12672 0.26826 0.0
C1038 C 0.78543 0.12546 0.25467 0.0
C1039 C 0.81137 0.11143 0.26736 0.0
C1040 C 0.80384 0.10114 0.25327 0.0
O1041 O 0.74634 0.11734 0.22324 0.0
C1042 C 0.75859 0.07103 0.2462 0.0
O1043 O 0.75775 0.08273 0.25946 0.0
H1044 H 0.77365 0.13562 0.25145 0.0
H1045 H 0.80955 0.088 0.2492 0.0
N1046 N 0.78734 0.10378 0.20529 0.0
N1047 N 0.80491 0.09838 0.17961 0.0
C1048 C 0.79277 0.09125 0.19292 0.0
C1049 C 0.79619 0.11925 0.1996 0.0
C1050 C 0.80701 0.11599 0.18382 0.0
C1051 C 0.73386 0.1218 0.23601 0.0
O1052 O 0.73646 0.11455 0.25202 0.0
H1053 H 0.78814 0.07723 0.1938 0.0
H1054 H 0.79476 0.13204 0.20649 0.0
O1055 O 0.76348 0.07649 0.23044 0.0
H1056 H 0.82405 0.10766 0.27651 0.0
H1057 H 0.8155 0.12595 0.17594 0.0
Cu1058 Cu 0.63646 0.00932 0.98226 0.0
N1059 N 0.62937 0.02562 1.00037 0.0
N1060 N 0.61574 0.03601 0.02622 0.0
C1061 C 0.6189 0.02144 0.01563 0.0
C1062 C 0.62469 0.04991 0.01717 0.0
C1063 C 0.63308 0.04344 1.00122 0.0
O1064 O 0.61619 0.9897 0.9841 0.0
C1065 C 0.67219 0.9952 1.00053 0.0
O1066 O 0.65828 0.99236 0.01346 0.0
H1067 H 0.61391 0.00788 0.01888 0.0
H1068 H 0.64114 0.05117 0.9909 0.0
N1069 N 0.63317 0.02009 0.95971 0.0
N1070 N 0.63992 0.03333 0.93324 0.0
C1071 C 0.64802 0.02815 0.94934 0.0
C1072 C 0.61511 0.02028 0.94994 0.0
C1073 C 0.61922 0.0284 0.9336 0.0
C1074 C 0.61454 0.97677 0.97295 0.0
O1075 O 0.62844 0.97528 0.95979 0.0
H1076 H 0.66452 0.02971 0.95331 0.0
H1077 H 0.60009 0.01464 0.95432 0.0
O1078 O 0.6658 1.00175 0.98562 0.0
H1079 H 0.62484 0.06381 0.02155 0.0
H1080 H 0.60783 0.03054 0.92285 0.0
Cu1081 Cu 0.87148 0.99874 0.4794 0.0
N1082 N 0.88068 0.98356 0.49802 0.0
N1083 N 0.89603 0.97345 0.52338 0.0
C1084 C 0.89376 0.9875 0.51189 0.0
C1085 C 0.88401 0.96012 0.51627 0.0
C1086 C 0.8746 0.9664 0.50068 0.0
O1087 O 0.88996 0.01968 0.47761 0.0
C1088 C 0.83355 0.00684 0.49873 0.0
O1089 O 0.84564 0.00448 0.513 0.0
H1090 H 0.90108 1.00054 0.51371 0.0
H1091 H 0.86386 0.95904 0.49197 0.0
N1092 N 0.87392 0.98649 0.45755 0.0
N1093 N 0.8663 0.97295 0.43142 0.0
C1094 C 0.85839 0.97967 0.447 0.0
C1095 C 0.89219 0.98389 0.44844 0.0
C1096 C 0.88756 0.97557 0.43232 0.0
C1097 C 0.89268 0.03129 0.49 0.0
O1098 O 0.88175 0.03001 0.50505 0.0
H1099 H 0.84163 0.98014 0.45042 0.0
H1100 H 0.90776 0.98807 0.4531 0.0
O1101 O 0.84177 0.00544 0.48309 0.0
H1102 H 0.88212 0.94675 0.52184 0.0
H1103 H 0.89897 0.97172 0.42207 0.0
H1104 H 0.2317 0.26524 0.5577 0.0
H1105 H 0.28449 0.25481 0.46012 0.0
H1106 H 0.29805 0.25246 0.54931 0.0
H1107 H 0.21655 0.25709 0.46868 0.0
H1108 H 0.28994 0.25551 0.49272 0.0
H1109 H 0.22599 0.26398 0.52509 0.0
C1110 C 0.24509 0.26226 0.549 0.0
C1111 C 0.2654 0.25899 0.55625 0.0
C1112 C 0.27382 0.25582 0.48749 0.0
C1113 C 0.25895 0.25742 0.51891 0.0
C1114 C 0.27071 0.25553 0.46886 0.0
C1115 C 0.25003 0.25597 0.46165 0.0
C1116 C 0.25613 0.2567 0.49905 0.0
C1117 C 0.23275 0.25659 0.47366 0.0
C1118 C 0.24179 0.26141 0.53039 0.0
C1119 C 0.2821 0.25491 0.54433 0.0
N1120 N 0.23619 0.25704 0.49177 0.0
N1121 N 0.27853 0.25432 0.52626 0.0
H1122 H 0.99318 0.0292 0.70035 0.0
H1123 H 0.02244 0.99965 0.80123 0.0
H1124 H 0.01722 0.97651 0.71442 0.0
H1125 H 0.99346 0.05071 0.78782 0.0
H1126 H 0.01969 0.99065 0.76964 0.0
H1127 H 0.99211 0.03699 0.73236 0.0
C1128 C 0.99811 0.01921 0.71016 0.0
C1129 C 0.00538 1.00218 0.70464 0.0
C1130 C 0.01382 1.00379 0.7736 0.0
C1131 C 0.00432 0.01109 0.74139 0.0
C1132 C 0.01539 0.00896 0.79167 0.0
C1133 C 0.00824 0.02602 0.79722 0.0
C1134 C 0.00513 0.01577 0.7609 0.0
C1135 C 0.99921 0.03745 0.78418 0.0
C1136 C 0.9975 0.02368 0.72846 0.0
C1137 C 0.01152 0.9898 0.71801 0.0
N1138 N 0.99803 0.03216 0.76664 0.0
N1139 N 0.01097 0.99454 0.73573 0.0
H1140 H 0.29393 0.75588 0.96412 0.0
H1141 H 0.20975 0.75864 0.04529 0.0
H1142 H 0.22584 0.75404 0.95627 0.0
H1143 H 0.27706 0.74946 0.05282 0.0
H1144 H 0.21553 0.76001 0.01267 0.0
H1145 H 0.28825 0.75655 0.99675 0.0
C1146 C 0.27779 0.75574 0.96925 0.0
C1147 C 0.26034 0.75483 0.95744 0.0
C1148 C 0.22904 0.7577 0.02147 0.0
C1149 C 0.2537 0.75552 0.99478 0.0
C1150 C 0.22576 0.75703 0.04009 0.0
C1151 C 0.24293 0.75384 0.0518 0.0
C1152 C 0.24967 0.75533 0.0145 0.0
C1153 C 0.26332 0.75167 0.04429 0.0
C1154 C 0.27455 0.75601 0.98789 0.0
C1155 C 0.23976 0.75448 0.96487 0.0
N1156 N 0.26613 0.75248 0.02614 0.0
N1157 N 0.237 0.75485 0.98305 0.0
H1158 H 0.51057 0.02873 0.30841 0.0
H1159 H 0.49151 0.9996 0.20596 0.0
H1160 H 0.4938 0.97455 0.29273 0.0
H1161 H 0.51874 0.05068 0.22156 0.0
H1162 H 0.49218 0.99009 0.23753 0.0
H1163 H 0.51366 0.03692 0.27664 0.0
C1164 C 0.50764 0.01851 0.29828 0.0
C1165 C 0.50184 1.00093 0.30327 0.0
C1166 C 0.49813 1.00334 0.23404 0.0
C1167 C 0.50521 0.01029 0.26676 0.0
C1168 C 0.49772 0.0088 0.216 0.0
C1169 C 0.50501 0.02601 0.21108 0.0
C1170 C 0.50571 0.01521 0.24731 0.0
C1171 C 0.51294 0.03731 0.2247 0.0
C1172 C 0.50944 0.0232 0.28012 0.0
C1173 C 0.49832 0.98826 0.28952 0.0
N1174 N 0.51295 0.03175 0.24218 0.0
N1175 N 0.4999 0.99322 0.27189 0.0
H1176 H 0.555 0.28775 0.2621 0.0
H1177 H 0.45677 0.21909 0.26564 0.0
H1178 H 0.56248 0.23008 0.2666 0.0
H1179 H 0.44977 0.27693 0.26794 0.0
H1180 H 0.4955 0.22277 0.26672 0.0
H1181 H 0.51644 0.28405 0.26491 0.0
C1182 C 0.54856 0.27431 0.26379 0.0
C1183 C 0.56203 0.2592 0.26404 0.0
C1184 C 0.48548 0.23465 0.26712 0.0
C1185 C 0.5178 0.25484 0.26716 0.0
C1186 C 0.46335 0.23256 0.26651 0.0
C1187 C 0.44996 0.24773 0.26663 0.0
C1188 C 0.49434 0.25204 0.26773 0.0
C1189 C 0.45943 0.26484 0.26777 0.0
C1190 C 0.52652 0.2722 0.26541 0.0
C1191 C 0.55274 0.24212 0.26631 0.0
N1192 N 0.481 0.26653 0.26815 0.0
N1193 N 0.53121 0.2404 0.26765 0.0
H1194 H 0.96126 0.29498 0.50216 0.0
H1195 H 0.04369 0.2125 0.50614 0.0
H1196 H 0.02869 0.30126 0.5117 0.0
H1197 H 0.97552 0.20582 0.50237 0.0
H1198 H 0.03876 0.24518 0.50602 0.0
H1199 H 0.9664 0.26237 0.50007 0.0
C1200 C 0.97715 0.28953 0.50371 0.0
C1201 C 0.99454 0.30089 0.50721 0.0
C1202 C 0.02488 0.23656 0.5052 0.0
C1203 C 1.00055 0.26356 0.50493 0.0
C1204 C 0.0277 0.21789 0.50516 0.0
C1205 C 0.01 0.20637 0.50436 0.0
C1206 C 1.0042 0.2438 0.50435 0.0
C1207 C 0.98961 0.21415 0.50331 0.0
C1208 C 0.98007 0.27089 0.50261 0.0
C1209 C 0.01477 0.29303 0.50929 0.0
N1210 N 0.98728 0.23236 0.50334 0.0
N1211 N 0.01721 0.27487 0.50811 0.0
H1212 H 0.05408 0.78945 0.76375 0.0
H1213 H 0.95502 0.72159 0.76325 0.0
H1214 H 0.06058 0.73163 0.76719 0.0
H1215 H 0.94843 0.77946 0.7656 0.0
H1216 H 0.99367 0.72497 0.76568 0.0
H1217 H 0.01537 0.7861 0.76541 0.0
C1218 C 0.04739 0.77605 0.76498 0.0
C1219 C 0.06064 0.76079 0.76525 0.0
C1220 C 0.98376 0.73693 0.76579 0.0
C1221 C 0.01625 0.75685 0.76704 0.0
C1222 C 0.96167 0.73501 0.7644 0.0
C1223 C 0.94842 0.75026 0.76414 0.0
C1224 C 0.99275 0.75425 0.76681 0.0
C1225 C 0.95799 0.76731 0.7657 0.0
C1226 C 0.02527 0.77415 0.76593 0.0
C1227 C 0.05103 0.74378 0.7669 0.0
N1228 N 0.97954 0.76884 0.76685 0.0
N1229 N 0.02944 0.74226 0.7676 0.0
H1230 H 0.46147 0.79383 1.00133 0.0
H1231 H 0.54369 0.71123 1.00348 0.0
H1232 H 0.52898 0.8 0.01044 0.0
H1233 H 0.47544 0.70448 0.00535 0.0
H1234 H 0.53872 0.74392 1.00316 0.0
H1235 H 0.46639 0.76112 0.99991 0.0
C1236 C 0.47733 0.78832 1.00293 0.0
C1237 C 0.49482 0.79967 0.0061 0.0
C1238 C 0.52483 0.73528 1.00364 0.0
C1239 C 0.50058 0.76228 0.00454 0.0
C1240 C 0.52766 0.71662 1.00371 0.0
C1241 C 0.50996 0.7051 0.0045 0.0
C1242 C 0.50413 0.74251 1.00422 0.0
C1243 C 0.48954 0.71285 0.00499 0.0
C1244 C 0.48012 0.76965 1.00222 0.0
C1245 C 0.51501 0.79176 0.00824 0.0
N1246 N 0.48718 0.73106 0.0048 0.0
N1247 N 0.51734 0.77358 0.00739 0.0
H1248 H 0.55991 0.75856 0.24964 0.0
H1249 H 0.44078 0.72526 0.22972 0.0
H1250 H 0.54453 0.70561 0.22937 0.0
H1251 H 0.45616 0.77837 0.24955 0.0
H1252 H 0.47881 0.71843 0.22786 0.0
H1253 H 0.52219 0.76661 0.24814 0.0
C1254 C 0.54863 0.74864 0.24478 0.0
C1255 C 0.55544 0.73133 0.23969 0.0
C1256 C 0.47389 0.73162 0.23252 0.0
C1257 C 0.51211 0.74049 0.238 0.0
C1258 C 0.45214 0.73555 0.23357 0.0
C1259 C 0.44521 0.7524 0.23988 0.0
C1260 C 0.48889 0.74461 0.23787 0.0
C1261 C 0.46072 0.76519 0.24464 0.0
C1262 C 0.52706 0.75325 0.24394 0.0
C1263 C 0.54005 0.71908 0.23348 0.0
N1264 N 0.4818 0.761 0.24363 0.0
N1265 N 0.51912 0.72386 0.23289 0.0
H1266 H 0.54634 0.28953 0.50435 0.0
H1267 H 0.46142 0.20923 0.50198 0.0
H1268 H 0.48091 0.29711 0.48823 0.0
H1269 H 0.52932 0.20052 0.49969 0.0
H1270 H 0.46766 0.24187 0.50119 0.0
H1271 H 0.53978 0.25706 0.50694 0.0
C1272 C 0.53058 0.28435 0.50145 0.0
C1273 C 0.51418 0.29598 0.49598 0.0
C1274 C 0.48118 0.23279 0.50086 0.0
C1275 C 0.50653 0.25897 0.49895 0.0
C1276 C 0.47763 0.21421 0.50142 0.0
C1277 C 0.49488 0.20219 0.50079 0.0
C1278 C 0.50214 0.23937 0.49994 0.0
C1279 C 0.51557 0.20932 0.49994 0.0
C1280 C 0.52687 0.26585 0.50283 0.0
C1281 C 0.49407 0.28857 0.49224 0.0
N1282 N 0.51864 0.22744 0.4996 0.0
N1283 N 0.49078 0.27054 0.49386 0.0
H1284 H 0.94819 0.24087 0.777 0.0
H1285 H 0.05325 0.27364 0.72663 0.0
H1286 H 0.94624 0.28082 0.73472 0.0
H1287 H 0.04921 0.22407 0.75694 0.0
H1288 H 0.01454 0.27725 0.72957 0.0
H1289 H 0.9856 0.23533 0.77022 0.0
C1290 C 0.95563 0.24846 0.76622 0.0
C1291 C 0.94407 0.26138 0.75645 0.0
C1292 C 0.02214 0.26551 0.73541 0.0
C1293 C 0.98716 0.25518 0.74868 0.0
C1294 C 0.04424 0.26344 0.73376 0.0
C1295 C 0.05456 0.24857 0.74163 0.0
C1296 C 0.01032 0.25274 0.74519 0.0
C1297 C 0.04202 0.23578 0.75068 0.0
C1298 C 0.97702 0.24523 0.76231 0.0
C1299 C 0.95456 0.2707 0.74255 0.0
N1300 N 0.02065 0.23825 0.75235 0.0
N1301 N 0.9756 0.26755 0.73919 0.0
H1302 H 0.96037 0.71539 0.00707 0.0
H1303 H 0.04241 0.7974 0.99762 0.0
H1304 H 0.02368 0.70943 0.98521 0.0
H1305 H 0.9748 0.80466 0.00524 0.0
H1306 H 0.03691 0.76473 0.99645 0.0
H1307 H 0.96642 0.74787 0.00986 0.0
C1308 C 0.97557 0.72091 1.00295 0.0
C1309 C 0.99151 0.70972 0.99583 0.0
C1310 C 0.02329 0.77349 0.99838 0.0
C1311 C 0.99856 0.74681 0.99897 0.0
C1312 C 0.02644 0.79211 0.99916 0.0
C1313 C 0.00903 0.80375 1.00144 0.0
C1314 C 1.00259 0.76647 1.0001 0.0
C1315 C 0.98863 0.79619 1.0032 0.0
C1316 C 0.97898 0.73945 0.00444 0.0
C1317 C 0.01086 0.71761 0.99053 0.0
N1318 N 0.98598 0.77803 1.00254 0.0
N1319 N 0.01387 0.73566 0.99226 0.0
H1320 H 0.24885 0.4499 0.26884 0.0
H1321 H 0.24616 0.55483 0.24619 0.0
H1322 H 0.25688 0.47058 0.21485 0.0
H1323 H 0.25959 0.53446 0.29953 0.0
H1324 H 0.24781 0.52403 0.23451 0.0
H1325 H 0.25059 0.48073 0.28046 0.0
C1326 C 0.25107 0.46091 0.25943 0.0
C1327 C 0.2527 0.45764 0.24082 0.0
C1328 C 0.25053 0.52632 0.24875 0.0
C1329 C 0.25447 0.49299 0.25405 0.0
C1330 C 0.24952 0.54389 0.25545 0.0
C1331 C 0.25272 0.54725 0.27389 0.0
C1332 C 0.25443 0.51192 0.2606 0.0
C1333 C 0.25708 0.53253 0.28522 0.0
C1334 C 0.25211 0.4785 0.26608 0.0
C1335 C 0.25561 0.47245 0.22929 0.0
N1336 N 0.25763 0.5155 0.27842 0.0
N1337 N 0.25621 0.48948 0.23607 0.0
H1338 H 0.74921 0.05038 0.73048 0.0
H1339 H 0.74913 0.95336 0.77811 0.0
H1340 H 0.74776 0.04273 0.78818 0.0
H1341 H 0.74638 0.96105 0.72044 0.0
H1342 H 0.7513 0.98601 0.78203 0.0
H1343 H 0.75085 0.01771 0.72654 0.0
C1344 C 0.74936 0.04185 0.74234 0.0
C1345 C 0.74826 0.04935 0.75969 0.0
C1346 C 0.75031 0.98056 0.76851 0.0
C1347 C 0.75008 0.01185 0.75526 0.0
C1348 C 0.7491 0.96189 0.76625 0.0
C1349 C 0.74748 0.95441 0.74892 0.0
C1350 C 0.74991 0.99189 0.75332 0.0
C1351 C 0.74754 0.96619 0.73407 0.0
C1352 C 0.75027 0.02317 0.74007 0.0
C1353 C 0.74853 0.03758 0.77454 0.0
N1354 N 0.74866 0.98431 0.73662 0.0
N1355 N 0.74934 0.01944 0.77198 0.0
H1356 H 0.20533 0.51137 0.04275 0.0
H1357 H 0.30261 0.51099 0.9729 0.0
H1358 H 0.19752 0.51423 0.98498 0.0
H1359 H 0.3109 0.51375 0.03063 0.0
H1360 H 0.26407 0.51317 0.97712 0.0
H1361 H 0.24398 0.51333 0.03872 0.0
C1362 C 0.21171 0.51257 0.02923 0.0
C1363 C 0.19812 0.51255 0.01418 0.0
C1364 C 0.27432 0.51342 0.98887 0.0
C1365 C 0.2424 0.51465 0.00945 0.0
C1366 C 0.29636 0.51216 0.98647 0.0
C1367 C 0.31006 0.51211 1.00144 0.0
C1368 C 0.26583 0.51451 0.00638 0.0
C1369 C 0.30098 0.5137 0.01869 0.0
C1370 C 0.2338 0.51366 0.02693 0.0
C1371 C 0.20733 0.51413 0.99699 0.0
N1372 N 0.27946 0.51471 0.02069 0.0
N1373 N 0.22886 0.51499 0.9951 0.0
H1374 H 0.74336 0.05584 0.27715 0.0
H1375 H 0.76997 0.95467 0.24777 0.0
H1376 H 0.76701 0.04191 0.2243 0.0
H1377 H 0.73833 0.96867 0.29752 0.0
H1378 H 0.76863 0.98633 0.23863 0.0
H1379 H 0.74089 0.02388 0.2845 0.0
C1380 C 0.74793 0.04605 0.26703 0.0
C1381 C 0.7555 0.0516 0.2501 0.0
C1382 C 0.76186 0.98246 0.2515 0.0
C1383 C 0.75284 0.01483 0.25851 0.0
C1384 C 0.76265 0.96437 0.25675 0.0
C1385 C 0.75433 0.95898 0.27349 0.0
C1386 C 0.75282 0.99531 0.26311 0.0
C1387 C 0.74498 0.97217 0.28452 0.0
C1388 C 0.74649 0.02777 0.27124 0.0
C1389 C 0.76108 0.03826 0.23752 0.0
N1390 N 0.74461 0.98971 0.27918 0.0
N1391 N 0.7598 0.0205 0.24203 0.0
H1392 H 0.7056 1.00223 0.97775 0.0
H1393 H 0.79545 0.97998 0.05145 0.0
H1394 H 0.69151 0.98245 0.03119 0.0
H1395 H 0.80835 0.00421 0.99964 0.0
H1396 H 0.75764 0.9782 0.0434 0.0
H1397 H 0.74361 1.0003 0.98461 0.0
C1398 C 0.71048 0.99734 0.99088 0.0
C1399 C 0.69529 0.99259 1.00394 0.0
C1400 C 0.76878 0.98383 0.03378 0.0
C1401 C 0.7389 0.99044 0.01194 0.0
C1402 C 0.79038 0.98483 0.03835 0.0
C1403 C 0.80512 0.99234 0.02625 0.0
C1404 C 0.76185 0.99034 0.01695 0.0
C1405 C 0.79759 0.9984 0.00946 0.0
C1406 C 0.73222 0.99628 0.99481 0.0
C1407 C 0.70262 0.98633 0.02072 0.0
N1408 N 0.77652 0.99731 0.00535 0.0
N1409 N 0.72388 0.98551 0.02427 0.0
H1410 H 0.23383 0.45324 0.73358 0.0
H1411 H 0.26864 0.55357 0.76008 0.0
H1412 H 0.26688 0.46633 0.78292 0.0
H1413 H 0.23308 0.54029 0.71205 0.0
H1414 H 0.26688 0.52199 0.76937 0.0
H1415 H 0.23199 0.48525 0.72627 0.0
C1416 C 0.24058 0.46285 0.74296 0.0
C1417 C 0.25061 0.45704 0.75887 0.0
C1418 C 0.25937 0.52599 0.75684 0.0
C1419 C 0.24868 0.49386 0.75048 0.0
C1420 C 0.26036 0.54405 0.75151 0.0
C1421 C 0.25106 0.54962 0.7352 0.0
C1422 C 0.24905 0.51336 0.74577 0.0
C1423 C 0.24053 0.53664 0.7247 0.0
C1424 C 0.23954 0.48117 0.73876 0.0
C1425 C 0.25901 0.47017 0.77051 0.0
N1426 N 0.2399 0.51914 0.73012 0.0
N1427 N 0.25798 0.48795 0.76602 0.0
H1428 H 0.29802 0.4747 0.53874 0.0
H1429 H 0.21533 0.53584 0.48451 0.0
H1430 H 0.31616 0.51901 0.50426 0.0
H1431 H 0.19806 0.48327 0.50468 0.0
H1432 H 0.25211 0.53028 0.49335 0.0
H1433 H 0.26112 0.47781 0.52802 0.0
C1434 C 0.29431 0.485 0.52887 0.0
C1435 C 0.31025 0.49665 0.52246 0.0
C1436 C 0.24036 0.51988 0.49578 0.0
C1437 C 0.26812 0.50036 0.51029 0.0
C1438 C 0.21929 0.52307 0.49078 0.0
C1439 C 0.20356 0.51001 0.49389 0.0
C1440 C 0.24585 0.50358 0.50422 0.0
C1441 C 0.20971 0.49369 0.50199 0.0
C1442 C 0.27326 0.48674 0.52274 0.0
C1443 C 0.30448 0.50973 0.50965 0.0
N1444 N 0.23037 0.49098 0.50703 0.0
N1445 N 0.28394 0.51129 0.50412 0.0
H1446 H 0.72843 0.75536 0.05153 0.0
H1447 H 0.782 0.75263 0.9539 0.0
H1448 H 0.79588 0.74791 0.04308 0.0
H1449 H 0.71413 0.74921 0.96243 0.0
H1450 H 0.78746 0.75178 0.98651 0.0
H1451 H 0.72286 0.754 0.01894 0.0
C1452 C 0.74208 0.75348 0.04281 0.0
C1453 C 0.76268 0.75185 0.05003 0.0
C1454 C 0.77137 0.75114 0.98126 0.0
C1455 C 0.75641 0.75022 0.01269 0.0
C1456 C 0.76824 0.75175 0.96264 0.0
C1457 C 0.74756 0.7511 0.95543 0.0
C1458 C 0.75368 0.75005 0.99281 0.0
C1459 C 0.73033 0.74963 0.96741 0.0
C1460 C 0.73887 0.75258 0.02421 0.0
C1461 C 0.77973 0.74911 0.0381 0.0
N1462 N 0.73376 0.74928 0.98551 0.0
N1463 N 0.77624 0.74851 0.02001 0.0
H1464 H 0.51642 0.5326 0.29294 0.0
H1465 H 0.49236 0.45577 0.21967 0.0
H1466 H 0.50277 0.47723 0.30654 0.0
H1467 H 0.51754 0.50815 0.20599 0.0
H1468 H 0.49202 0.46455 0.25144 0.0
H1469 H 0.51284 0.52499 0.26094 0.0
C1470 C 0.51251 0.51888 0.28923 0.0
C1471 C 0.50999 0.50552 0.30248 0.0
C1472 C 0.49755 0.47415 0.24148 0.0
C1473 C 0.50588 0.49672 0.26585 0.0
C1474 C 0.49768 0.46917 0.22331 0.0
C1475 C 0.50508 0.4812 0.21011 0.0
C1476 C 0.50475 0.49135 0.24654 0.0
C1477 C 0.51179 0.49839 0.21569 0.0
C1478 C 0.51054 0.51454 0.27094 0.0
C1479 C 0.50496 0.48796 0.29682 0.0
N1480 N 0.5115 0.50293 0.23347 0.0
N1481 N 0.50311 0.48408 0.27897 0.0
H1482 H 0.72363 0.26694 0.45226 0.0
H1483 H 0.76761 0.23298 0.54745 0.0
H1484 H 0.78812 0.24838 0.4601 0.0
H1485 H 0.7083 0.2617 0.54102 0.0
H1486 H 0.77507 0.23749 0.51539 0.0
H1487 H 0.71738 0.26423 0.48463 0.0
C1488 C 0.73647 0.26225 0.46081 0.0
C1489 C 0.75639 0.25775 0.45346 0.0
C1490 C 0.76046 0.24287 0.52101 0.0
C1491 C 0.74937 0.25466 0.4906 0.0
C1492 C 0.75612 0.24018 0.53928 0.0
C1493 C 0.73724 0.2469 0.54691 0.0
C1494 C 0.74573 0.25219 0.51023 0.0
C1495 C 0.7231 0.25641 0.53574 0.0
C1496 C 0.73294 0.26082 0.47931 0.0
C1497 C 0.77258 0.25207 0.46523 0.0
N1498 N 0.72757 0.25867 0.51795 0.0
N1499 N 0.76867 0.25055 0.48321 0.0
H1500 H 1.00287 0.5397 0.71595 0.0
H1501 H 0.00668 0.46807 0.79685 0.0
H1502 H 0.00788 0.48223 0.70794 0.0
H1503 H 1.00263 0.5256 0.8048 0.0
H1504 H 0.00894 0.47306 0.76431 0.0
H1505 H 0.00456 0.53489 0.74853 0.0
C1506 C 0.00446 0.52607 0.72102 0.0
C1507 C 0.00516 0.51134 0.70914 0.0
C1508 C 0.00767 0.4846 0.77317 0.0
C1509 C 0.00701 0.50573 0.74653 0.0
C1510 C 0.0064 0.48176 0.79178 0.0
C1511 C 0.00438 0.49643 0.80362 0.0
C1512 C 0.00687 0.50224 0.76629 0.0
C1513 C 1.00411 0.51387 0.79622 0.0
C1514 C 0.0054 0.52333 0.73965 0.0
C1515 C 0.00724 0.49399 0.71655 0.0
N1516 N 0.00524 0.51627 0.77806 0.0
N1517 N 0.00799 0.49167 0.73473 0.0
H1518 H 0.81064 0.00863 0.53011 0.0
H1519 H 0.69763 0.01746 0.48053 0.0
H1520 H 0.80338 0.01178 0.4723 0.0
H1521 H 0.70478 0.00852 0.53775 0.0
H1522 H 0.7364 0.01858 0.47759 0.0
H1523 H 0.77208 0.01166 0.53341 0.0
C1524 C 0.80097 0.01007 0.51809 0.0
C1525 C 0.81031 0.00985 0.50088 0.0
C1526 C 0.72949 0.01648 0.4908 0.0
C1527 C 0.76601 0.0133 0.50459 0.0
C1528 C 0.70732 0.01589 0.49252 0.0
C1529 C 0.69788 0.0128 0.50941 0.0
C1530 C 0.74238 0.01399 0.5061 0.0
C1531 C 0.71132 0.01087 0.52444 0.0
C1532 C 0.77892 0.01177 0.52 0.0
C1533 C 0.79691 0.01181 0.48583 0.0
N1534 N 0.73286 0.01142 0.52242 0.0
N1535 N 0.77545 0.01338 0.48803 0.0
H1536 H 0.17308 0.37939 0.30086 0.0
H1537 H 0.20716 0.28205 0.33754 0.0
H1538 H 0.21656 0.34376 0.2733 0.0
H1539 H 0.17106 0.32015 0.36922 0.0
H1540 H 0.20822 0.30368 0.31292 0.0
H1541 H 0.16934 0.35695 0.32489 0.0
C1542 C 0.18169 0.3668 0.29978 0.0
C1543 C 0.19525 0.3635 0.28507 0.0
C1544 C 0.20004 0.30733 0.32525 0.0
C1545 C 0.19116 0.33782 0.31257 0.0
C1546 C 0.19953 0.29498 0.33942 0.0
C1547 C 0.18919 0.29928 0.35567 0.0
C1548 C 0.19009 0.32416 0.3272 0.0
C1549 C 0.17912 0.31616 0.35698 0.0
C1550 C 0.17966 0.35404 0.31356 0.0
C1551 C 0.2062 0.34701 0.28449 0.0
N1552 N 0.17989 0.32801 0.34296 0.0
N1553 N 0.20393 0.33482 0.29802 0.0
H1554 H 0.95212 0.9435 0.62572 0.0
H1555 H 0.92815 0.99603 0.53365 0.0
H1556 H 0.98111 0.99428 0.61138 0.0
H1557 H 0.89184 0.94989 0.55146 0.0
H1558 H 0.948 0.99524 0.56185 0.0
H1559 H 0.93005 0.94532 0.59854 0.0
C1560 C 0.95374 0.9551 0.61695 0.0
C1561 C 0.96855 0.96873 0.62086 0.0
C1562 C 0.93564 0.9853 0.5596 0.0
C1563 C 0.94348 0.9708 0.5896 0.0
C1564 C 0.92419 0.98578 0.54346 0.0
C1565 C 0.90815 0.97301 0.54 0.0
C1566 C 0.93121 0.97192 0.57246 0.0
C1567 C 0.90416 0.95988 0.55329 0.0
C1568 C 0.94115 0.95612 0.60141 0.0
C1569 C 0.96993 0.98344 0.60896 0.0
N1570 N 0.91562 0.95966 0.56887 0.0
N1571 N 0.95768 0.98402 0.59385 0.0
H1572 H 0.28043 0.70891 0.85038 0.0
H1573 H 0.34147 0.64632 0.77924 0.0
H1574 H 0.34896 0.7047 0.84791 0.0
H1575 H 0.27333 0.64551 0.78749 0.0
H1576 H 0.34472 0.66829 0.80362 0.0
H1577 H 0.27767 0.68656 0.82639 0.0
C1578 C 0.29492 0.70336 0.84474 0.0
C1579 C 0.31496 0.70876 0.85117 0.0
C1580 C 0.32907 0.66327 0.80007 0.0
C1581 C 0.31192 0.68297 0.82369 0.0
C1582 C 0.32719 0.65064 0.78617 0.0
C1583 C 0.30707 0.64399 0.78114 0.0
C1584 C 0.3107 0.66938 0.80901 0.0
C1585 C 0.28915 0.65038 0.79057 0.0
C1586 C 0.29333 0.69049 0.8311 0.0
C1587 C 0.33318 0.70082 0.84351 0.0
N1588 N 0.2914 0.66269 0.80398 0.0
N1589 N 0.33123 0.68838 0.83014 0.0
H1590 H 0.61859 0.06167 0.05249 0.0
H1591 H 0.53373 0.01203 0.11604 0.0
H1592 H 0.58728 0.01157 0.03927 0.0
H1593 H 0.55816 0.06527 0.12714 0.0
H1594 H 0.55639 0.01047 0.08943 0.0
H1595 H 0.59914 0.06233 0.08106 0.0
C1596 C 0.60765 0.05083 0.0555 0.0
C1597 C 0.60466 0.03654 0.04331 0.0
C1598 C 0.55692 0.02247 0.09772 0.0
C1599 C 0.58252 0.03712 0.07619 0.0
C1600 C 0.54401 0.02335 0.113 0.0
C1601 C 0.54392 0.03886 0.12383 0.0
C1602 C 0.56987 0.0372 0.09313 0.0
C1603 C 0.55766 0.05307 0.11917 0.0
C1604 C 0.59663 0.05117 0.0719 0.0
C1605 C 0.59044 0.02274 0.04821 0.0
N1606 N 0.57 0.05194 0.1041 0.0
N1607 N 0.57993 0.02341 0.0642 0.0
H1608 H 0.15613 0.7071 0.16489 0.0
H1609 H 0.2344 0.64469 0.22304 0.0
H1610 H 0.22467 0.70838 0.16018 0.0
H1611 H 0.16631 0.64688 0.23129 0.0
H1612 H 0.23102 0.66742 0.19951 0.0
H1613 H 0.15941 0.68428 0.18847 0.0
C1614 C 0.17188 0.70253 0.16872 0.0
C1615 C 0.19016 0.70971 0.16048 0.0
C1616 C 0.21681 0.66294 0.20648 0.0
C1617 C 0.19403 0.68361 0.18766 0.0
C1618 C 0.21873 0.64998 0.22004 0.0
C1619 C 0.20062 0.6438 0.22933 0.0
C1620 C 0.19663 0.66981 0.20204 0.0
C1621 C 0.18071 0.65102 0.22445 0.0
C1622 C 0.17374 0.68956 0.18229 0.0
C1623 C 0.21015 0.70342 0.16626 0.0
N1624 N 0.17926 0.66362 0.21117 0.0
N1625 N 0.21154 0.69073 0.17945 0.0
H1626 H 0.6122 0.00431 0.46008 0.0
H1627 H 0.53464 0.95395 0.39083 0.0
H1628 H 0.59564 0.94805 0.46448 0.0
H1629 H 0.5516 0.01019 0.3868 0.0
H1630 H 0.55879 0.95092 0.41653 0.0
H1631 H 0.59181 0.00616 0.43216 0.0
C1632 C 0.60424 0.99233 0.45521 0.0
C1633 C 0.60548 0.97604 0.4648 0.0
C1634 C 0.55734 0.96389 0.40995 0.0
C1635 C 0.58216 0.97802 0.43261 0.0
C1636 C 0.54357 0.96563 0.39523 0.0
C1637 C 0.54098 0.98238 0.38667 0.0
C1638 C 0.56859 0.97901 0.4162 0.0
C1639 C 0.55301 0.99703 0.39299 0.0
C1640 C 0.59269 0.99337 0.43917 0.0
C1641 C 0.59522 0.96087 0.45754 0.0
N1642 N 0.56617 0.99502 0.40742 0.0
N1643 N 0.58387 0.96226 0.44195 0.0
H1644 H 0.29292 0.31042 0.64955 0.0
H1645 H 0.31329 0.34943 0.74767 0.0
H1646 H 0.34144 0.28789 0.68397 0.0
H1647 H 0.29671 0.38393 0.70307 0.0
H1648 H 0.31822 0.32428 0.72638 0.0
H1649 H 0.28836 0.33535 0.67103 0.0
C1650 C 0.30252 0.31073 0.66168 0.0
C1651 C 0.31763 0.29721 0.66501 0.0
C1652 C 0.31357 0.33739 0.72131 0.0
C1653 C 0.31232 0.32535 0.68965 0.0
C1654 C 0.31069 0.35165 0.7334 0.0
C1655 C 0.30477 0.36873 0.72703 0.0
C1656 C 0.3099 0.34018 0.70283 0.0
C1657 C 0.30156 0.37101 0.70844 0.0
C1658 C 0.30001 0.32494 0.67384 0.0
C1659 C 0.32979 0.2982 0.68087 0.0
N1660 N 0.30397 0.35685 0.69699 0.0
N1661 N 0.32676 0.31196 0.69271 0.0
H1662 H 0.91518 0.05476 0.96044 0.0
H1663 H 0.97018 0.98923 0.88817 0.0
H1664 H 0.91115 0.99677 0.9631 0.0
H1665 H 0.97886 0.04694 0.88913 0.0
H1666 H 0.94664 0.99172 0.91439 0.0
H1667 H 0.93687 0.05213 0.93326 0.0
C1668 C 0.91877 0.04146 0.95529 0.0
C1669 C 0.91127 0.02597 0.96412 0.0
C1670 C 0.95364 1.00384 0.90881 0.0
C1671 C 0.93629 0.02283 0.93293 0.0
C1672 C 0.967 1.00244 0.89377 0.0
C1673 C 0.97658 0.0179 0.88643 0.0
C1674 C 0.94974 0.02082 0.91653 0.0
C1675 C 0.97191 0.03464 0.89433 0.0
C1676 C 0.93126 0.03996 0.93978 0.0
C1677 C 0.91676 0.00908 0.9569 0.0
N1678 N 0.95889 0.03564 0.90895 0.0
N1679 N 0.92888 0.00796 0.94172 0.0
H1680 H 0.35254 0.20746 0.30263 0.0
H1681 H 0.25132 0.25077 0.35017 0.0
H1682 H 0.33979 0.26461 0.3019 0.0
H1683 H 0.28248 0.20406 0.37282 0.0
H1684 H 0.27993 0.25328 0.32799 0.0
H1685 H 0.32358 0.20352 0.32461 0.0
C1686 C 0.34369 0.21917 0.30713 0.0
C1687 C 0.34862 0.23641 0.30051 0.0
C1688 C 0.28043 0.24243 0.33776 0.0
C1689 C 0.31532 0.23191 0.32521 0.0
C1690 C 0.26402 0.24087 0.35034 0.0
C1691 C 0.26451 0.22718 0.36342 0.0
C1692 C 0.29731 0.23004 0.33799 0.0
C1693 C 0.28151 0.21484 0.36301 0.0
C1694 C 0.32724 0.2169 0.31966 0.0
C1695 C 0.33665 0.25111 0.30677 0.0
N1696 N 0.29723 0.21652 0.35045 0.0
N1697 N 0.32042 0.2485 0.31863 0.0
H1698 H 0.02204 0.03708 0.61732 0.0
H1699 H 0.09898 0.1016 0.56032 0.0
H1700 H 0.09068 0.03308 0.61878 0.0
H1701 H 0.03047 0.10118 0.55523 0.0
H1702 H 0.09642 0.07788 0.58314 0.0
H1703 H 0.02501 0.06167 0.59576 0.0
C1704 C 0.03776 0.04126 0.61307 0.0
C1705 C 0.05614 0.03279 0.61985 0.0
C1706 C 0.08195 0.083 0.57704 0.0
C1707 C 0.05965 0.06132 0.5952 0.0
C1708 C 0.08339 0.09664 0.56408 0.0
C1709 C 0.06491 0.10338 0.55576 0.0
C1710 C 0.06188 0.0761 0.58181 0.0
C1711 C 0.04516 0.09623 0.56105 0.0
C1712 C 0.03944 0.05543 0.60079 0.0
C1713 C 0.07607 0.03922 0.61406 0.0
N1714 N 0.04417 0.08301 0.57371 0.0
N1715 N 0.07729 0.05306 0.60205 0.0
H1716 H 0.14714 0.81315 0.81473 0.0
H1717 H 0.25935 0.76969 0.84241 0.0
H1718 H 0.17599 0.76816 0.78703 0.0
H1719 H 0.2242 0.80549 0.87737 0.0
H1720 H 0.23064 0.77168 0.82029 0.0
H1721 H 0.1766 0.81277 0.83644 0.0
C1722 C 0.15961 0.80316 0.81323 0.0
C1723 C 0.15904 0.79064 0.79905 0.0
C1724 C 0.22924 0.77916 0.83276 0.0
C1725 C 0.19291 0.79028 0.82371 0.0
C1726 C 0.2457 0.77813 0.84538 0.0
C1727 C 0.24419 0.7874 0.86184 0.0
C1728 C 0.21111 0.78963 0.83652 0.0
C1729 C 0.22604 0.79808 0.8649 0.0
C1730 C 0.17643 0.80297 0.82562 0.0
C1731 C 0.17568 0.77803 0.79777 0.0
N1732 N 0.21019 0.79888 0.85238 0.0
N1733 N 0.19194 0.77823 0.80988 0.0
H1734 H 0.47408 0.9231 0.03713 0.0
H1735 H 0.42543 0.9672 0.12675 0.0
H1736 H 0.42024 0.90114 0.06594 0.0
H1737 H 0.48078 0.98793 0.09911 0.0
H1738 H 0.42309 0.94305 0.10447 0.0
H1739 H 0.47699 0.94678 0.05983 0.0
C1740 C 0.46297 0.92312 0.04828 0.0
C1741 C 0.44686 0.91004 0.04955 0.0
C1742 C 0.43576 0.95288 0.10329 0.0
C1743 C 0.44993 0.93737 0.07554 0.0
C1744 C 0.43703 0.96676 0.11596 0.0
C1745 C 0.45334 0.97967 0.11486 0.0
C1746 C 0.45086 0.95188 0.08933 0.0
C1747 C 0.4681 0.97819 0.10069 0.0
C1748 C 0.46456 0.93675 0.0612 0.0
C1749 C 0.43272 0.91103 0.06422 0.0
N1750 N 0.46649 0.96459 0.08849 0.0
N1751 N 0.43457 0.92445 0.0766 0.0
H1752 H 0.36409 0.80559 0.19181 0.0
H1753 H 0.24727 0.76981 0.16715 0.0
H1754 H 0.33074 0.76503 0.22257 0.0
H1755 H 0.28653 0.79943 0.12964 0.0
H1756 H 0.27614 0.77104 0.18924 0.0
H1757 H 0.33451 0.80611 0.17024 0.0
C1758 C 0.35059 0.79676 0.19401 0.0
C1759 C 0.34995 0.78521 0.20901 0.0
C1760 C 0.2784 0.77734 0.17621 0.0
C1761 C 0.31594 0.78591 0.18449 0.0
C1762 C 0.26186 0.77675 0.16362 0.0
C1763 C 0.26448 0.78448 0.14647 0.0
C1764 C 0.29769 0.78583 0.17171 0.0
C1765 C 0.28382 0.79323 0.14266 0.0
C1766 C 0.33371 0.79708 0.1817 0.0
C1767 C 0.33201 0.7741 0.21117 0.0
N1768 N 0.29969 0.79364 0.15516 0.0
N1769 N 0.31571 0.77478 0.1991 0.0
H1770 H 0.4209 0.03271 0.38771 0.0
H1771 H 0.47606 0.08398 0.47031 0.0
H1772 H 0.48683 0.02496 0.40261 0.0
H1773 H 0.41418 0.0979 0.44889 0.0
H1774 H 0.47993 0.06141 0.44657 0.0
H1775 H 0.41767 0.0555 0.41116 0.0
C1776 C 0.43476 0.0358 0.39581 0.0
C1777 C 0.45421 0.02683 0.39301 0.0
C1778 C 0.46553 0.06944 0.44707 0.0
C1779 C 0.45049 0.05293 0.42021 0.0
C1780 C 0.46334 0.08245 0.46059 0.0
C1781 C 0.44471 0.09294 0.46173 0.0
C1782 C 0.44896 0.06681 0.4346 0.0
C1783 C 0.42868 0.09002 0.44881 0.0
C1784 C 0.43286 0.04882 0.4093 0.0
C1785 C 0.47144 0.03129 0.4043 0.0
N1786 N 0.43115 0.07724 0.43586 0.0
N1787 N 0.46917 0.04401 0.41737 0.0
H1788 H 0.16853 0.24481 0.71718 0.0
H1789 H 0.22368 0.20414 0.6293 0.0
H1790 H 0.14561 0.19609 0.69198 0.0
H1791 H 0.25588 0.23919 0.66692 0.0
H1792 H 0.19324 0.2026 0.65004 0.0
H1793 H 0.19857 0.2451 0.69632 0.0
C1794 C 0.16969 0.23423 0.70716 0.0
C1795 C 0.15449 0.22037 0.70636 0.0
C1796 C 0.20706 0.21051 0.65376 0.0
C1797 C 0.18902 0.22064 0.68241 0.0
C1798 C 0.22444 0.21139 0.64196 0.0
C1799 C 0.24238 0.22181 0.64637 0.0
C1800 C 0.20751 0.22037 0.66992 0.0
C1801 C 0.24245 0.23094 0.66295 0.0
C1802 C 0.18696 0.23435 0.69533 0.0
C1803 C 0.15696 0.20701 0.6931 0.0
N1804 N 0.22523 0.23013 0.67402 0.0
N1805 N 0.17388 0.20749 0.6816 0.0
H1806 H 0.0524 0.9277 0.97458 0.0
H1807 H 0.08459 0.96012 0.87526 0.0
H1808 H 0.0863 0.8942 0.9366 0.0
H1809 H 0.04649 0.99178 0.91192 0.0
H1810 H 0.08738 0.9366 0.89819 0.0
H1811 H 0.05173 0.95186 0.95234 0.0
C1812 C 0.05963 0.92534 0.96156 0.0
C1813 C 0.06929 0.90874 0.95749 0.0
C1814 C 0.07845 0.94871 0.90123 0.0
C1815 C 0.0688 0.93661 0.93192 0.0
C1816 C 0.07697 0.96223 0.88817 0.0
C1817 C 0.06523 0.978 0.89161 0.0
C1818 C 0.06818 0.95094 0.91791 0.0
C1819 C 0.05545 0.97979 0.90855 0.0
C1820 C 0.05934 0.93923 0.94887 0.0
C1821 C 0.07881 0.90674 0.94045 0.0
N1822 N 0.05713 0.96644 0.92104 0.0
N1823 N 0.07827 0.92047 0.92829 0.0
H1824 H 0.27881 0.36047 0.25465 0.0
H1825 H 0.35905 0.2954 0.20184 0.0
H1826 H 0.30433 0.37255 0.20195 0.0
H1827 H 0.34154 0.28775 0.25765 0.0
H1828 H 0.33823 0.32314 0.20133 0.0
H1829 H 0.30105 0.33345 0.2558 0.0
C1830 C 0.28921 0.35753 0.24337 0.0
C1831 C 0.28967 0.36883 0.22816 0.0
C1832 C 0.33896 0.31539 0.21369 0.0
C1833 C 0.31504 0.33772 0.22933 0.0
C1834 C 0.35093 0.29952 0.21402 0.0
C1835 C 0.35221 0.2891 0.22983 0.0
C1836 C 0.32803 0.32095 0.22925 0.0
C1837 C 0.34092 0.2951 0.24507 0.0
C1838 C 0.30189 0.34206 0.24403 0.0
C1839 C 0.30346 0.36428 0.21396 0.0
N1840 N 0.32933 0.3106 0.24439 0.0
N1841 N 0.31548 0.34904 0.21484 0.0
H1842 H 0.80396 0.13239 0.81662 0.0
H1843 H 0.83564 0.21775 0.75618 0.0
H1844 H 0.78187 0.14076 0.7621 0.0
H1845 H 0.85613 0.21048 0.81128 0.0
H1846 H 0.8186 0.18822 0.7572 0.0
H1847 H 0.82593 0.15948 0.81399 0.0
C1848 C 0.8039 0.13979 0.80403 0.0
C1849 C 0.79092 0.13433 0.78961 0.0
C1850 C 0.82691 0.19304 0.76905 0.0
C1851 C 0.81593 0.16547 0.78655 0.0
C1852 C 0.83677 0.2099 0.76845 0.0
C1853 C 0.84726 0.21674 0.78371 0.0
C1854 C 0.82752 0.18287 0.78503 0.0
C1855 C 0.84793 0.20595 0.79929 0.0
C1856 C 0.81641 0.1553 0.80255 0.0
C1857 C 0.79153 0.14448 0.77361 0.0
N1858 N 0.83813 0.18961 0.79957 0.0
N1859 N 0.80368 0.1596 0.77257 0.0
H1860 H 0.02883 0.62256 0.01867 0.0
H1861 H 0.07919 0.52718 0.0458 0.0
H1862 H 0.99157 0.57786 0.03852 0.0
H1863 H 0.1129 0.56737 0.01482 0.0
H1864 H 0.0482 0.54708 0.04689 0.0
H1865 H 0.06091 0.60403 0.02096 0.0
C1866 C 0.02739 0.6089 0.02368 0.0
C1867 C 0.0074 0.60173 0.02834 0.0
C1868 C 0.0624 0.55157 0.03991 0.0
C1869 C 0.04417 0.58042 0.03094 0.0
C1870 C 0.08016 0.54024 0.03931 0.0
C1871 C 0.0987 0.54557 0.03012 0.0
C1872 C 0.06316 0.56844 0.03136 0.0
C1873 C 0.09894 0.56266 0.02199 0.0
C1874 C 0.04573 0.5983 0.0249 0.0
C1875 C 0.00659 0.58393 0.03471 0.0
N1876 N 0.08143 0.57347 0.02278 0.0
N1877 N 0.0247 0.57387 0.03578 0.0
H1878 H 0.67226 0.7876 0.25408 0.0
H1879 H 0.70304 0.87454 0.31245 0.0
H1880 H 0.64661 0.79821 0.30704 0.0
H1881 H 0.72766 0.8636 0.25919 0.0
H1882 H 0.68063 0.84766 0.31014 0.0
H1883 H 0.69112 0.81624 0.25521 0.0
C1884 C 0.6704 0.79598 0.2659 0.0
C1885 C 0.65776 0.79037 0.28049 0.0
C1886 C 0.69083 0.85122 0.29892 0.0
C1887 C 0.67967 0.82329 0.28196 0.0
C1888 C 0.70359 0.86661 0.3002 0.0
C1889 C 0.71736 0.87132 0.28603 0.0
C1890 C 0.69185 0.84042 0.28337 0.0
C1891 C 0.71737 0.8605 0.27049 0.0
C1892 C 0.68131 0.81235 0.26658 0.0
C1893 C 0.65636 0.8018 0.29557 0.0
N1894 N 0.70494 0.84553 0.26964 0.0
N1895 N 0.6672 0.81767 0.29593 0.0
H1896 H 0.90512 0.96164 0.05054 0.0
H1897 H 1.00414 0.91298 0.0057 0.0
H1898 H 0.91184 0.95612 0.9929 0.0
H1899 H 0.97776 0.89288 0.05558 0.0
H1900 H 0.97407 0.93373 1.00304 0.0
H1901 H 0.93492 0.94047 0.05467 0.0
C1902 C 0.91277 0.95588 0.03878 0.0
C1903 C 0.90597 0.96055 0.02134 0.0
C1904 C 0.97494 0.92483 0.01461 0.0
C1905 C 0.94024 0.93687 0.026 0.0
C1906 C 0.99219 0.9131 0.01625 0.0
C1907 C 0.99347 0.90115 0.03091 0.0
C1908 C 0.95901 0.92492 0.02787 0.0
C1909 C 0.97736 0.90184 0.04406 0.0
C1910 C 0.92971 0.94384 0.04116 0.0
C1911 C 0.91645 0.95276 0.00657 0.0
N1912 N 0.9608 0.9136 0.04228 0.0
N1913 N 0.93323 0.94148 0.00922 0.0
H1914 H 0.19814 0.63249 0.69762 0.0
H1915 H 0.17359 0.72365 0.75137 0.0
H1916 H 0.22734 0.64665 0.7484 0.0
H1917 H 0.14002 0.70804 0.703 0.0
H1918 H 0.19268 0.69511 0.75075 0.0
H1919 H 0.17587 0.65952 0.69966 0.0
C1920 C 0.19974 0.64117 0.70928 0.0
C1921 C 0.21473 0.6373 0.72282 0.0
C1922 C 0.18108 0.69788 0.74029 0.0
C1923 C 0.18941 0.66837 0.72515 0.0
C1924 C 0.17004 0.71421 0.74068 0.0
C1925 C 0.15506 0.7184 0.72721 0.0
C1926 C 0.17726 0.68555 0.7263 0.0
C1927 C 0.15157 0.7056 0.71354 0.0
C1928 C 0.18705 0.65663 0.71042 0.0
C1929 C 0.21607 0.64907 0.73761 0.0
N1930 N 0.1626 0.6898 0.71341 0.0
N1931 N 0.2037 0.6641 0.73831 0.0
H1932 H 0.98772 0.43704 0.4927 0.0
H1933 H 0.10666 0.4448 0.45496 0.0
H1934 H 0.02085 0.39149 0.46976 0.0
H1935 H 0.08037 0.48061 0.49508 0.0
H1936 H 0.07401 0.42661 0.45655 0.0
H1937 H 0.02005 0.45508 0.48935 0.0
C1938 C 1.0017 0.43088 0.48674 0.0
C1939 C 1.00157 0.4127 0.48154 0.0
C1940 C 0.07549 0.43842 0.46502 0.0
C1941 C 0.0387 0.4333 0.47775 0.0
C1942 C 0.09409 0.4488 0.46414 0.0
C1943 C 0.09631 0.46422 0.47494 0.0
C1944 C 0.05886 0.4437 0.47656 0.0
C1945 C 0.07946 0.46878 0.48657 0.0
C1946 C 0.02021 0.44116 0.48497 0.0
C1947 C 0.02026 0.40544 0.47401 0.0
N1948 N 0.06144 0.45866 0.48697 0.0
N1949 N 0.03808 0.41577 0.47232 0.0
H1950 H 0.50776 0.59001 0.98926 0.0
H1951 H 0.39447 0.56235 0.94794 0.0
H1952 H 0.47162 0.62492 0.95406 0.0
H1953 H 0.42464 0.53447 0.99224 0.0
H1954 H 0.42383 0.58411 0.94785 0.0
H1955 H 0.47902 0.5679 0.98788 0.0
C1956 C 0.49388 0.59297 0.98108 0.0
C1957 C 0.49211 0.6094 0.97179 0.0
C1958 C 0.42397 0.57325 0.95761 0.0
C1959 C 0.45899 0.58411 0.97027 0.0
C1960 C 0.40721 0.56083 0.95769 0.0
C1961 C 0.40704 0.54656 0.97014 0.0
C1962 C 0.4408 0.57129 0.96996 0.0
C1963 C 0.42402 0.54527 0.98243 0.0
C1964 C 0.4774 0.58036 0.98039 0.0
C1965 C 0.47367 0.61246 0.96147 0.0
N1966 N 0.44022 0.55741 0.98198 0.0
N1967 N 0.45781 0.59996 0.96101 0.0
H1968 H 0.71376 0.7824 0.83103 0.0
H1969 H 0.67819 0.88045 0.79703 0.0
H1970 H 0.6731 0.81791 0.86174 0.0
H1971 H 0.72068 0.84554 0.76745 0.0
H1972 H 0.67527 0.85742 0.82048 0.0
H1973 H 0.71604 0.80522 0.80744 0.0
C1974 C 0.7054 0.79501 0.83291 0.0
C1975 C 0.69324 0.79817 0.8485 0.0
C1976 C 0.68523 0.85481 0.80885 0.0
C1977 C 0.69559 0.8244 0.8213 0.0
C1978 C 0.68681 0.86792 0.79538 0.0
C1979 C 0.69976 0.86501 0.78021 0.0
C1980 C 0.69664 0.83859 0.80715 0.0
C1981 C 0.71077 0.84855 0.77898 0.0
C1982 C 0.70661 0.80803 0.81934 0.0
C1983 C 0.68246 0.81473 0.84992 0.0
N1984 N 0.70895 0.83599 0.79225 0.0
N1985 N 0.68391 0.8272 0.83653 0.0
H1986 H 0.47932 0.49723 0.11276 0.0
H1987 H 0.39091 0.44897 0.05157 0.0
H1988 H 0.4514 0.44571 0.12591 0.0
H1989 H 0.42349 0.498 0.03661 0.0
H1990 H 0.41102 0.44845 0.07977 0.0
H1991 H 0.45667 0.49886 0.08606 0.0
C1992 C 0.46829 0.48631 0.11014 0.0
C1993 C 0.46736 0.47126 0.12161 0.0
C1994 C 0.41371 0.45934 0.07032 0.0
C1995 C 0.4414 0.47301 0.09086 0.0
C1996 C 0.4023 0.45961 0.05412 0.0
C1997 C 0.40547 0.47353 0.04153 0.0
C1998 C 0.42842 0.4731 0.07405 0.0
C1999 C 0.42025 0.48709 0.04587 0.0
C2000 C 0.45539 0.48723 0.09482 0.0
C2001 C 0.45272 0.45755 0.11746 0.0
N2002 N 0.43116 0.4865 0.06171 0.0
N2003 N 0.4404 0.45871 0.10239 0.0
H2004 H 0.84302 0.19683 0.35349 0.0
H2005 H 0.76897 0.15043 0.27879 0.0
H2006 H 0.77805 0.21289 0.34304 0.0
H2007 H 0.83455 0.13551 0.28827 0.0
H2008 H 0.77214 0.1737 0.30186 0.0
H2009 H 0.84021 0.17437 0.32959 0.0
C2010 C 0.82812 0.19561 0.34625 0.0
C2011 C 0.81073 0.2068 0.35038 0.0
C2012 C 0.78586 0.16536 0.29887 0.0
C2013 C 0.80746 0.18113 0.32277 0.0
C2014 C 0.7841 0.15211 0.28558 0.0
C2015 C 0.80152 0.1409 0.28152 0.0
C2016 C 0.80516 0.16747 0.30824 0.0
C2017 C 0.8206 0.14361 0.29106 0.0
C2018 C 0.82657 0.18283 0.3325 0.0
C2019 C 0.79195 0.20474 0.34026 0.0
N2020 N 0.82189 0.15658 0.30396 0.0
N2021 N 0.7908 0.19214 0.32697 0.0
H2022 H 0.03846 0.51442 0.61829 0.0
H2023 H 0.11296 0.56577 0.54719 0.0
H2024 H 0.05582 0.57048 0.62338 0.0
H2025 H 0.0925 0.51051 0.5416 0.0
H2026 H 0.09418 0.5674 0.57604 0.0
H2027 H 0.0607 0.51225 0.59143 0.0
C2028 C 0.04711 0.52625 0.61387 0.0
C2029 C 0.04516 0.54269 0.6231 0.0
C2030 C 0.0939 0.5549 0.56852 0.0
C2031 C 0.0706 0.54033 0.59212 0.0
C2032 C 0.10454 0.55398 0.55197 0.0
C2033 C 0.10434 0.53799 0.54182 0.0
C2034 C 0.08295 0.53972 0.57501 0.0
C2035 C 0.09339 0.52307 0.54893 0.0
C2036 C 0.05978 0.52502 0.59846 0.0
C2037 C 0.0568 0.55754 0.61669 0.0
N2038 N 0.08311 0.52434 0.56501 0.0
N2039 N 0.06891 0.55604 0.60154 0.0
H2040 H 0.71754 0.21793 0.67314 0.0
H2041 H 0.67516 0.12487 0.71468 0.0
H2042 H 0.66425 0.18822 0.6515 0.0
H2043 H 0.72579 0.15634 0.73836 0.0
H2044 H 0.67145 0.14757 0.69105 0.0
H2045 H 0.72168 0.19495 0.6965 0.0
C2046 C 0.70679 0.20653 0.6732 0.0
C2047 C 0.69049 0.20506 0.6603 0.0
C2048 C 0.68339 0.1495 0.70142 0.0
C2049 C 0.69501 0.17872 0.68717 0.0
C2050 C 0.68544 0.13656 0.71501 0.0
C2051 C 0.70083 0.1386 0.72862 0.0
C2052 C 0.69681 0.16465 0.70138 0.0
C2053 C 0.71391 0.15398 0.72808 0.0
C2054 C 0.70907 0.19345 0.68663 0.0
C2055 C 0.67685 0.19008 0.66127 0.0
N2056 N 0.71159 0.16638 0.71472 0.0
N2057 N 0.67943 0.17752 0.67444 0.0
H2058 H 0.09905 0.44918 0.96844 0.0
H2059 H 0.05288 0.51298 0.89042 0.0
H2060 H 0.10762 0.50688 0.96753 0.0
H2061 H 0.04197 0.4556 0.89314 0.0
H2062 H 0.07524 0.5108 0.91737 0.0
H2063 H 0.08022 0.45109 0.93972 0.0
C2064 C 0.09712 0.46225 0.96218 0.0
C2065 C 0.10492 0.47789 0.97052 0.0
C2066 C 0.06806 0.49867 0.912 0.0
C2067 C 0.08314 0.48021 0.93757 0.0
C2068 C 0.05536 0.49989 0.89655 0.0
C2069 C 0.04544 0.48446 0.88952 0.0
C2070 C 0.07089 0.4819 0.92048 0.0
C2071 C 0.0492 0.46788 0.89809 0.0
C2072 C 0.08626 0.46334 0.94578 0.0
C2073 C 0.10163 0.49449 0.96179 0.0
N2074 N 0.06153 0.46706 0.91315 0.0
N2075 N 0.09099 0.4952 0.94582 0.0
H2076 H 0.84301 0.86094 0.22914 0.0
H2077 H 0.78156 0.79866 0.15793 0.0
H2078 H 0.77488 0.86224 0.22096 0.0
H2079 H 0.8501 0.80127 0.16191 0.0
H2080 H 0.7788 0.82117 0.18181 0.0
H2081 H 0.84598 0.83858 0.20512 0.0
C2082 C 0.82867 0.85664 0.22229 0.0
C2083 C 0.80865 0.86356 0.22722 0.0
C2084 C 0.79446 0.81684 0.17745 0.0
C2085 C 0.81194 0.83772 0.19974 0.0
C2086 C 0.79604 0.80389 0.16387 0.0
C2087 C 0.8161 0.79801 0.15787 0.0
C2088 C 0.81307 0.82397 0.1852 0.0
C2089 C 0.83432 0.80552 0.16593 0.0
C2090 C 0.83038 0.84378 0.2086 0.0
C2091 C 0.79062 0.85718 0.21792 0.0
N2092 N 0.83237 0.81806 0.1792 0.0
N2093 N 0.79271 0.84464 0.20469 0.0
H2094 H 0.40303 0.50397 0.46324 0.0
H2095 H 0.48217 0.55136 0.39306 0.0
H2096 H 0.43104 0.5565 0.47134 0.0
H2097 H 0.45944 0.49677 0.38709 0.0
H2098 H 0.46085 0.55438 0.42039 0.0
H2099 H 0.42134 0.50186 0.4343 0.0
C2100 C 0.41307 0.51505 0.45903 0.0
C2101 C 0.41552 0.53042 0.46993 0.0
C2102 C 0.46042 0.54177 0.41306 0.0
C2103 C 0.43636 0.52814 0.43652 0.0
C2104 C 0.47255 0.54004 0.39739 0.0
C2105 C 0.47271 0.52374 0.38777 0.0
C2106 C 0.44831 0.5271 0.41924 0.0
C2107 C 0.45987 0.50957 0.39407 0.0
C2108 C 0.42343 0.51386 0.4424 0.0
C2109 C 0.42845 0.54446 0.46344 0.0
N2110 N 0.44828 0.51155 0.40946 0.0
N2111 N 0.4384 0.54295 0.44723 0.0
H2112 H 0.78547 0.70288 0.87614 0.0
H2113 H 0.83252 0.74231 0.78418 0.0
H2114 H 0.74995 0.73783 0.84057 0.0
H2115 H 0.86123 0.69756 0.81243 0.0
H2116 H 0.80314 0.74202 0.80576 0.0
H2117 H 0.81405 0.70146 0.85374 0.0
C2118 C 0.78358 0.71012 0.86356 0.0
C2119 C 0.76527 0.72051 0.86025 0.0
C2120 C 0.81584 0.73224 0.80723 0.0
C2121 C 0.7981 0.71915 0.83467 0.0
C2122 C 0.83272 0.73246 0.79497 0.0
C2123 C 0.84943 0.71995 0.7965 0.0
C2124 C 0.8157 0.71953 0.82127 0.0
C2125 C 0.84871 0.70746 0.81073 0.0
C2126 C 0.79993 0.70931 0.85078 0.0
C2127 C 0.76372 0.72961 0.84369 0.0
N2128 N 0.83216 0.70761 0.8226 0.0
N2129 N 0.77999 0.72884 0.8316 0.0
H2130 H 0.58313 0.54476 0.12929 0.0
H2131 H 0.54577 0.58048 0.03235 0.0
H2132 H 0.53705 0.5175 0.09583 0.0
H2133 H 0.58632 0.61099 0.06813 0.0
H2134 H 0.54396 0.55657 0.05481 0.0
H2135 H 0.58639 0.56823 0.10628 0.0
C2136 C 0.57381 0.54362 0.11707 0.0
C2137 C 0.55973 0.52913 0.11455 0.0
C2138 C 0.55326 0.5685 0.05775 0.0
C2139 C 0.56327 0.55606 0.08818 0.0
C2140 C 0.55422 0.58226 0.04494 0.0
C2141 C 0.56613 0.59793 0.0483 0.0
C2142 C 0.56433 0.57031 0.07411 0.0
C2143 C 0.57709 0.59915 0.0648 0.0
C2144 C 0.57558 0.5571 0.10397 0.0
C2145 C 0.54786 0.52852 0.09849 0.0
N2146 N 0.5759 0.58556 0.07708 0.0
N2147 N 0.54991 0.54176 0.08595 0.0
H2148 H 0.67577 0.26638 0.28464 0.0
H2149 H 0.73187 0.31314 0.36926 0.0
H2150 H 0.65443 0.31713 0.30667 0.0
H2151 H 0.75977 0.2693 0.33913 0.0
H2152 H 0.7029 0.31464 0.34718 0.0
H2153 H 0.7057 0.26661 0.30562 0.0
C2154 C 0.6773 0.27755 0.29395 0.0
C2155 C 0.6625 0.29175 0.29388 0.0
C2156 C 0.71547 0.3048 0.34533 0.0
C2157 C 0.69693 0.29212 0.31797 0.0
C2158 C 0.73205 0.30397 0.35791 0.0
C2159 C 0.74829 0.29105 0.3561 0.0
C2160 C 0.71499 0.29251 0.33094 0.0
C2161 C 0.74764 0.2795 0.34111 0.0
C2162 C 0.6945 0.27772 0.30587 0.0
C2163 C 0.66543 0.30589 0.30624 0.0
N2164 N 0.73119 0.2804 0.32922 0.0
N2165 N 0.68227 0.30569 0.31782 0.0
H2166 H 0.93418 0.46354 0.63531 0.0
H2167 H 0.9745 0.42442 0.54054 0.0
H2168 H 0.98204 0.4893 0.60238 0.0
H2169 H 0.9247 0.39992 0.57231 0.0
H2170 H 0.97854 0.44761 0.56365 0.0
H2171 H 0.93111 0.43971 0.61278 0.0
C2172 C 0.94398 0.46427 0.62334 0.0
C2173 C 0.95839 0.47854 0.62082 0.0
C2174 C 0.96675 0.43714 0.56559 0.0
C2175 C 0.95511 0.45109 0.59496 0.0
C2176 C 0.96454 0.4238 0.55243 0.0
C2177 C 0.9492 0.41017 0.55443 0.0
C2178 C 0.95357 0.43687 0.58091 0.0
C2179 C 0.93652 0.41027 0.57005 0.0
C2180 C 0.94231 0.45058 0.6105 0.0
C2181 C 0.97091 0.47852 0.60509 0.0
N2182 N 0.93898 0.4234 0.58266 0.0
N2183 N 0.96896 0.46505 0.59279 0.0
H2184 H 0.82235 0.29048 0.73006 0.0
H2185 H 0.7718 0.26612 0.63407 0.0
H2186 H 0.85503 0.25829 0.69022 0.0
H2187 H 0.73446 0.28403 0.67957 0.0
H2188 H 0.80385 0.26746 0.65279 0.0
H2189 H 0.79154 0.29235 0.71004 0.0
C2190 C 0.82313 0.28389 0.71704 0.0
C2191 C 0.84133 0.27413 0.71186 0.0
C2192 C 0.78866 0.27119 0.65863 0.0
C2193 C 0.80599 0.27629 0.68882 0.0
C2194 C 0.77034 0.27054 0.64794 0.0
C2195 C 0.75034 0.27491 0.65527 0.0
C2196 C 0.78706 0.27643 0.67677 0.0
C2197 C 0.7495 0.28047 0.67336 0.0
C2198 C 0.80547 0.28492 0.70565 0.0
C2199 C 0.84133 0.26587 0.69482 0.0
N2200 N 0.76758 0.28105 0.68348 0.0
N2201 N 0.82393 0.26714 0.68391 0.0
H2202 H 0.99174 0.52781 0.90012 0.0
H2203 H 0.91108 0.59062 0.95537 0.0
H2204 H 0.92353 0.52691 0.89267 0.0
H2205 H 0.97959 0.59429 0.95951 0.0
H2206 H 0.91519 0.56646 0.93334 0.0
H2207 H 0.98743 0.55107 0.92305 0.0
C2208 C 0.97582 0.53237 0.90339 0.0
C2209 C 0.95796 0.52532 0.89441 0.0
C2210 C 0.92932 0.57255 0.93909 0.0
C2211 C 0.95292 0.55222 0.92061 0.0
C2212 C 0.92699 0.58644 0.95163 0.0
C2213 C 0.945 0.59465 0.95935 0.0
C2214 C 0.94981 0.56673 0.93417 0.0
C2215 C 0.96521 0.58833 0.95415 0.0
C2216 C 0.97339 0.54577 0.91643 0.0
C2217 C 0.93777 0.53206 0.89906 0.0
N2218 N 0.96705 0.5748 0.94188 0.0
N2219 N 0.9358 0.54511 0.91183 0.0
H2220 H 0.6445 0.69904 0.19008 0.0
H2221 H 0.75965 0.73792 0.16482 0.0
H2222 H 0.67498 0.74249 0.21892 0.0
H2223 H 0.72226 0.70569 0.12812 0.0
H2224 H 0.73047 0.73671 0.18661 0.0
H2225 H 0.67425 0.69881 0.1687 0.0
C2226 C 0.65738 0.70858 0.19188 0.0
C2227 C 0.65719 0.72084 0.2063 0.0
C2228 C 0.72869 0.72983 0.17382 0.0
C2229 C 0.69142 0.72046 0.18203 0.0
C2230 C 0.74542 0.7304 0.16141 0.0
C2231 C 0.7434 0.72192 0.14457 0.0
C2232 C 0.70984 0.72061 0.16946 0.0
C2233 C 0.72449 0.71247 0.1409 0.0
C2234 C 0.67436 0.70842 0.17968 0.0
C2235 C 0.67437 0.73286 0.20797 0.0
N2236 N 0.70844 0.71208 0.15323 0.0
N2237 N 0.69081 0.7323 0.19605 0.0
H2238 H 0.58009 0.46039 0.37611 0.0
H2239 H 0.5414 0.42439 0.47258 0.0
H2240 H 0.53639 0.48957 0.41033 0.0
H2241 H 0.58755 0.39701 0.43924 0.0
H2242 H 0.53882 0.44818 0.44984 0.0
H2243 H 0.58283 0.43705 0.39911 0.0
C2244 C 0.57117 0.46201 0.38848 0.0
C2245 C 0.558 0.47709 0.3912 0.0
C2246 C 0.54954 0.43697 0.44752 0.0
C2247 C 0.56087 0.45011 0.41764 0.0
C2248 C 0.55093 0.42332 0.46047 0.0
C2249 C 0.56473 0.40862 0.45788 0.0
C2250 C 0.56198 0.43594 0.4318 0.0
C2251 C 0.57691 0.40814 0.44198 0.0
C2252 C 0.57265 0.44857 0.40161 0.0
C2253 C 0.54655 0.47815 0.40747 0.0
N2254 N 0.57521 0.42155 0.42957 0.0
N2255 N 0.54825 0.46487 0.42004 0.0
H2256 H 0.80546 0.87504 0.69298 0.0
H2257 H 0.83433 0.78575 0.74825 0.0
H2258 H 0.7783 0.8614 0.74471 0.0
H2259 H 0.86802 0.80203 0.70013 0.0
H2260 H 0.81394 0.81357 0.74706 0.0
H2261 H 0.82887 0.84871 0.69529 0.0
C2262 C 0.80453 0.86662 0.70489 0.0
C2263 C 0.78981 0.87043 0.71863 0.0
C2264 C 0.82586 0.81111 0.73679 0.0
C2265 C 0.81642 0.84018 0.72129 0.0
C2266 C 0.83764 0.79518 0.73749 0.0
C2267 C 0.85306 0.7914 0.72428 0.0
C2268 C 0.82932 0.82343 0.72271 0.0
C2269 C 0.85618 0.80417 0.7105 0.0
C2270 C 0.81788 0.85157 0.70618 0.0
C2271 C 0.78934 0.85901 0.73375 0.0
N2272 N 0.84439 0.81957 0.71005 0.0
N2273 N 0.80232 0.84438 0.7346 0.0
H2274 H 0.30076 0.63406 0.31768 0.0
H2275 H 0.34876 0.71145 0.25433 0.0
H2276 H 0.28479 0.64015 0.26136 0.0
H2277 H 0.35411 0.71184 0.31242 0.0
H2278 H 0.32847 0.68358 0.25623 0.0
H2279 H 0.32397 0.66046 0.31542 0.0
C2280 C 0.30229 0.64081 0.30479 0.0
C2281 C 0.29072 0.63489 0.2897 0.0
C2282 C 0.33411 0.68976 0.26856 0.0
C2283 C 0.3172 0.66519 0.28706 0.0
C2284 C 0.34565 0.70582 0.26752 0.0
C2285 C 0.35316 0.71426 0.28326 0.0
C2286 C 0.33008 0.68193 0.28545 0.0
C2287 C 0.34888 0.70588 0.29989 0.0
C2288 C 0.31547 0.65595 0.30354 0.0
C2289 C 0.29332 0.64424 0.27337 0.0
N2290 N 0.33762 0.69022 0.30054 0.0
N2291 N 0.30623 0.65893 0.2725 0.0
H2292 H 0.48571 0.06848 0.5229 0.0
H2293 H 0.60509 0.06024 0.55931 0.0
H2294 H 0.5191 0.11421 0.54516 0.0
H2295 H 0.57876 0.02604 0.51782 0.0
H2296 H 0.57225 0.07836 0.55861 0.0
H2297 H 0.5181 0.05049 0.52601 0.0
C2298 C 0.49976 0.07469 0.52869 0.0
C2299 C 0.4997 0.09292 0.53371 0.0
C2300 C 0.57378 0.06691 0.54966 0.0
C2301 C 0.5369 0.07236 0.53724 0.0
C2302 C 0.59247 0.05658 0.55004 0.0
C2303 C 0.59472 0.04165 0.53856 0.0
C2304 C 0.55712 0.06202 0.53798 0.0
C2305 C 0.57783 0.03749 0.52684 0.0
C2306 C 0.5183 0.06444 0.53032 0.0
C2307 C 0.51847 0.10022 0.54104 0.0
N2308 N 0.55973 0.04753 0.52695 0.0
N2309 N 0.53635 0.08992 0.54258 0.0
H2310 H 0.22287 0.36735 0.79894 0.0
H2311 H 0.14905 0.29696 0.74591 0.0
H2312 H 0.21357 0.36771 0.74125 0.0
H2313 H 0.16152 0.29358 0.80306 0.0
H2314 H 0.1707 0.32416 0.74444 0.0
H2315 H 0.19828 0.34182 0.80123 0.0
C2316 C 0.21553 0.36218 0.78677 0.0
C2317 C 0.22038 0.36967 0.76986 0.0
C2318 C 0.16868 0.3175 0.75733 0.0
C2319 C 0.1923 0.34038 0.77239 0.0
C2320 C 0.15638 0.30186 0.75816 0.0
C2321 C 0.15354 0.29278 0.77462 0.0
C2322 C 0.17829 0.32423 0.77305 0.0
C2323 C 0.16311 0.30013 0.7901 0.0
C2324 C 0.20154 0.34756 0.78809 0.0
C2325 C 0.2104 0.36236 0.75457 0.0
N2326 N 0.17513 0.31535 0.78893 0.0
N2327 N 0.19693 0.34812 0.7562 0.0
H2328 H 0.39734 0.44218 0.50619 0.0
H2329 H 0.51691 0.42734 0.53949 0.0
H2330 H 0.42791 0.47667 0.54528 0.0
H2331 H 0.47983 0.38523 0.51444 0.0
H2332 H 0.48486 0.44614 0.54085 0.0
H2333 H 0.42775 0.42151 0.50809 0.0
C2334 C 0.41034 0.44534 0.51527 0.0
C2335 C 0.41006 0.46122 0.52555 0.0
C2336 C 0.48371 0.43272 0.53519 0.0
C2337 C 0.44502 0.43775 0.52761 0.0
C2338 C 0.50202 0.42199 0.5344 0.0
C2339 C 0.5011 0.40468 0.52683 0.0
C2340 C 0.4644 0.42622 0.52812 0.0
C2341 C 0.48132 0.39847 0.52043 0.0
C2342 C 0.42769 0.43353 0.51636 0.0
C2343 C 0.42738 0.4646 0.53709 0.0
N2344 N 0.46382 0.40929 0.52107 0.0
N2345 N 0.44422 0.45307 0.53768 0.0
H2346 H 0.64902 0.21133 0.25581 0.0
H2347 H 0.72572 0.14138 0.2053 0.0
H2348 H 0.66608 0.21595 0.19963 0.0
H2349 H 0.70691 0.13646 0.26109 0.0
H2350 H 0.70251 0.16772 0.20239 0.0
H2351 H 0.66895 0.18316 0.25753 0.0
C2352 C 0.65701 0.20647 0.24383 0.0
C2353 C 0.65599 0.21616 0.22758 0.0
C2354 C 0.70335 0.1608 0.21524 0.0
C2355 C 0.67877 0.18368 0.22941 0.0
C2356 C 0.71657 0.14572 0.2169 0.0
C2357 C 0.71837 0.1367 0.2335 0.0
C2358 C 0.69186 0.16698 0.23028 0.0
C2359 C 0.70611 0.14298 0.24804 0.0
C2360 C 0.66829 0.19028 0.24479 0.0
C2361 C 0.66631 0.20892 0.2124 0.0
N2362 N 0.6935 0.15776 0.24612 0.0
N2363 N 0.67737 0.19318 0.21372 0.0
H2364 H 0.60782 0.94479 0.95506 0.0
H2365 H 0.48707 0.93585 0.98818 0.0
H2366 H 0.57813 0.98152 0.99257 0.0
H2367 H 0.52278 0.89026 0.96827 0.0
H2368 H 0.51897 0.95449 0.98536 0.0
H2369 H 0.57559 0.92603 0.95588 0.0
C2370 C 0.59459 0.94889 0.96349 0.0
C2371 C 0.59573 0.96472 0.97381 0.0
C2372 C 0.51979 0.94043 0.98153 0.0
C2373 C 0.55878 0.94354 0.97455 0.0
C2374 C 0.50154 0.92979 0.983 0.0
C2375 C 0.50225 0.91143 0.97851 0.0
C2376 C 0.53889 0.93274 0.97532 0.0
C2377 C 0.52153 0.90434 0.97196 0.0
C2378 C 0.57622 0.93819 0.96395 0.0
C2379 C 0.57806 0.96938 0.98448 0.0
N2380 N 0.5391 0.91501 0.97056 0.0
N2381 N 0.56031 0.95892 0.98447 0.0
H2382 H 0.97979 0.1147 0.45341 0.0
H2383 H 0.91422 0.04885 0.51676 0.0
H2384 H 0.00436 0.09572 0.50437 0.0
H2385 H 0.90979 0.04483 0.45883 0.0
H2386 H 0.94373 0.07019 0.51329 0.0
H2387 H 0.95072 0.09262 0.45571 0.0
C2388 C 0.97918 0.1058 0.46498 0.0
C2389 C 0.99457 0.10699 0.47867 0.0
C2390 C 0.93624 0.06464 0.50135 0.0
C2391 C 0.96117 0.08218 0.48159 0.0
C2392 C 0.91931 0.0526 0.50332 0.0
C2393 C 0.90955 0.04507 0.48806 0.0
C2394 C 0.94317 0.06949 0.48401 0.0
C2395 C 0.91693 0.05029 0.47094 0.0
C2396 C 0.96262 0.09324 0.46628 0.0
C2397 C 0.99296 0.09517 0.49342 0.0
N2398 N 0.93323 0.06229 0.46937 0.0
N2399 N 0.97642 0.08342 0.4946 0.0
H2400 H 0.05861 0.17397 0.43196 0.0
H2401 H 0.18156 0.20246 0.42915 0.0
H2402 H 0.10478 0.15617 0.47129 0.0
H2403 H 0.13685 0.21431 0.38651 0.0
H2404 H 0.15402 0.18479 0.44442 0.0
H2405 H 0.08728 0.18816 0.41478 0.0
C2406 C 0.07479 0.17294 0.43694 0.0
C2407 C 0.07923 0.1639 0.45315 0.0
C2408 C 0.15028 0.19115 0.43165 0.0
C2409 C 0.11223 0.18028 0.43356 0.0
C2410 C 0.16602 0.20125 0.42292 0.0
C2411 C 0.16152 0.20998 0.40653 0.0
C2412 C 0.12982 0.18984 0.42404 0.0
C2413 C 0.14107 0.20788 0.39912 0.0
C2414 C 0.09118 0.18105 0.4271 0.0
C2415 C 0.10057 0.16299 0.45888 0.0
N2416 N 0.12597 0.19815 0.40797 0.0
N2417 N 0.11622 0.17118 0.44917 0.0
H2418 H 0.04375 0.89199 0.65404 0.0
H2419 H 0.12854 0.86397 0.72938 0.0
H2420 H 0.07384 0.93044 0.68941 0.0
H2421 H 0.08632 0.82582 0.70396 0.0
H2422 H 0.1104 0.88845 0.71347 0.0
H2423 H 0.06085 0.86751 0.67076 0.0
C2424 C 0.05401 0.89528 0.6653 0.0
C2425 C 0.05743 0.9133 0.6703 0.0
C2426 C 0.10505 0.87473 0.71141 0.0
C2427 C 0.07705 0.88532 0.68954 0.0
C2428 C 0.1155 0.86074 0.72039 0.0
C2429 C 0.10898 0.84281 0.71795 0.0
C2430 C 0.08809 0.87079 0.6997 0.0
C2431 C 0.09175 0.83944 0.70634 0.0
C2432 C 0.06366 0.88129 0.67491 0.0
C2433 C 0.07064 0.91675 0.68518 0.0
N2434 N 0.082 0.85329 0.69756 0.0
N2435 N 0.08009 0.90291 0.6942 0.0
H2436 H 0.40507 0.85041 0.96947 0.0
H2437 H 0.37235 0.79546 0.88065 0.0
H2438 H 0.45009 0.83445 0.92845 0.0
H2439 H 0.3297 0.805 0.92531 0.0
H2440 H 0.40011 0.81232 0.89647 0.0
H2441 H 0.3765 0.83648 0.952 0.0
C2442 C 0.40896 0.84407 0.95673 0.0
C2443 C 0.43009 0.84355 0.95048 0.0
C2444 C 0.38465 0.8108 0.90277 0.0
C2445 C 0.39732 0.8275 0.93037 0.0
C2446 C 0.36874 0.80121 0.89372 0.0
C2447 C 0.34864 0.79872 0.90168 0.0
C2448 C 0.38045 0.81805 0.9199 0.0
C2449 C 0.34495 0.8065 0.91866 0.0
C2450 C 0.39261 0.83607 0.94677 0.0
C2451 C 0.43409 0.83513 0.93385 0.0
N2452 N 0.3607 0.81576 0.92721 0.0
N2453 N 0.41788 0.82741 0.92441 0.0
H2454 H 0.38076 0.14571 0.22733 0.0
H2455 H 0.47249 0.11707 0.15856 0.0
H2456 H 0.42846 0.1828 0.208 0.0
H2457 H 0.43619 0.0785 0.18936 0.0
H2458 H 0.45523 0.14151 0.17517 0.0
H2459 H 0.39945 0.12108 0.21216 0.0
C2460 C 0.39514 0.14868 0.21984 0.0
C2461 C 0.40302 0.16636 0.21886 0.0
C2462 C 0.4511 0.1277 0.17836 0.0
C2463 C 0.42453 0.13821 0.20147 0.0
C2464 C 0.46085 0.11375 0.1688 0.0
C2465 C 0.45569 0.09572 0.17253 0.0
C2466 C 0.43586 0.12364 0.19161 0.0
C2467 C 0.44073 0.0922 0.18614 0.0
C2468 C 0.40589 0.13459 0.21129 0.0
C2469 C 0.42192 0.16937 0.2092 0.0
N2470 N 0.4312 0.10603 0.19509 0.0
N2471 N 0.43195 0.15546 0.20076 0.0
H2472 H 0.19857 0.83072 0.08515 0.0
H2473 H 0.07608 0.83585 0.055 0.0
H2474 H 0.15143 0.79128 0.10058 0.0
H2475 H 0.12229 0.87724 0.04308 0.0
H2476 H 0.10306 0.8199 0.0727 0.0
H2477 H 0.17058 0.84845 0.07059 0.0
C2478 C 0.18232 0.82582 0.08557 0.0
C2479 C 0.1774 0.80942 0.09407 0.0
C2480 C 0.10726 0.83254 0.06631 0.0
C2481 C 0.14519 0.82967 0.07729 0.0
C2482 C 0.09184 0.84167 0.0562 0.0
C2483 C 0.09691 0.85791 0.04745 0.0
C2484 C 0.12799 0.8396 0.06763 0.0
C2485 C 0.11763 0.86477 0.04953 0.0
C2486 C 0.16632 0.83597 0.07725 0.0
C2487 C 0.15601 0.80381 0.09419 0.0
N2488 N 0.13241 0.85554 0.0593 0.0
N2489 N 0.14075 0.81385 0.08585 0.0
H2490 H 0.43657 0.92819 0.31394 0.0
H2491 H 0.42346 0.82128 0.30334 0.0
H2492 H 0.46202 0.88987 0.35203 0.0
H2493 H 0.38362 0.85968 0.27555 0.0
H2494 H 0.44159 0.84627 0.31855 0.0
H2495 H 0.42081 0.90319 0.29688 0.0
C2496 C 0.43897 0.91452 0.31862 0.0
C2497 C 0.45049 0.91111 0.33449 0.0
C2498 C 0.42889 0.84922 0.3091 0.0
C2499 C 0.43258 0.88248 0.31509 0.0
C2500 C 0.41864 0.83497 0.30034 0.0
C2501 C 0.40192 0.83839 0.28825 0.0
C2502 C 0.42256 0.86705 0.30556 0.0
C2503 C 0.3962 0.85641 0.28498 0.0
C2504 C 0.42988 0.90027 0.30897 0.0
C2505 C 0.45298 0.89312 0.34003 0.0
N2506 N 0.40651 0.87006 0.29355 0.0
N2507 N 0.44414 0.8795 0.33034 0.0
H2508 H 0.4447 0.15953 0.58617 0.0
H2509 H 0.32996 0.20684 0.58342 0.0
H2510 H 0.40471 0.16121 0.53881 0.0
H2511 H 0.36548 0.19864 0.63261 0.0
H2512 H 0.3573 0.19019 0.56692 0.0
H2513 H 0.41615 0.17398 0.60344 0.0
C2514 C 0.42992 0.16288 0.5794 0.0
C2515 C 0.42716 0.15916 0.56097 0.0
C2516 C 0.35908 0.19193 0.58134 0.0
C2517 C 0.3944 0.17578 0.58069 0.0
C2518 C 0.34345 0.20145 0.59079 0.0
C2519 C 0.34541 0.20419 0.60946 0.0
C2520 C 0.37697 0.18519 0.59055 0.0
C2521 C 0.36326 0.19685 0.61825 0.0
C2522 C 0.4136 0.17112 0.58929 0.0
C2523 C 0.40761 0.16381 0.55296 0.0
N2524 N 0.3784 0.18779 0.60871 0.0
N2525 N 0.39206 0.17192 0.56283 0.0
H2526 H 0.08334 0.184 0.79998 0.0
H2527 H 0.08038 0.07712 0.81538 0.0
H2528 H 0.12951 0.14776 0.7767 0.0
H2529 H 0.04629 0.11513 0.84859 0.0
H2530 H 0.09566 0.10239 0.79835 0.0
H2531 H 0.06663 0.15842 0.81526 0.0
C2532 C 0.08988 0.17065 0.798 0.0
C2533 C 0.1079 0.16804 0.7871 0.0
C2534 C 0.08482 0.10517 0.80937 0.0
C2535 C 0.08888 0.13866 0.80457 0.0
C2536 C 0.07601 0.09076 0.819 0.0
C2537 C 0.06217 0.09403 0.8335 0.0
C2538 C 0.07951 0.12295 0.81413 0.0
C2539 C 0.05715 0.11199 0.8377 0.0
C2540 C 0.08042 0.15606 0.8068 0.0
C2541 C 0.11583 0.15043 0.78517 0.0
N2542 N 0.06577 0.12575 0.82806 0.0
N2543 N 0.10625 0.13641 0.79377 0.0
H2544 H 0.18219 0.43476 0.18658 0.0
H2545 H 0.1815 0.45497 0.08041 0.0
H2546 H 0.22334 0.40763 0.14875 0.0
H2547 H 0.12913 0.46842 0.11557 0.0
H2548 H 0.20007 0.44122 0.10607 0.0
H2549 H 0.1655 0.45095 0.16138 0.0
C2550 C 0.18781 0.43233 0.17299 0.0
C2551 C 0.20405 0.41974 0.16973 0.0
C2552 C 0.18453 0.44721 0.10816 0.0
C2553 C 0.18513 0.43818 0.14089 0.0
C2554 C 0.174 0.45515 0.09355 0.0
C2555 C 0.1537 0.46273 0.09584 0.0
C2556 C 0.1748 0.44709 0.12523 0.0
C2557 C 0.14462 0.46247 0.11316 0.0
C2558 C 0.17822 0.44147 0.15862 0.0
C2559 C 0.21065 0.417 0.15184 0.0
N2560 N 0.15524 0.45481 0.12719 0.0
N2561 N 0.2012 0.42615 0.13811 0.0
H2562 H 0.71561 0.10487 0.86763 0.0
H2563 H 0.6318 0.02962 0.89754 0.0
H2564 H 0.68593 0.06818 0.8302 0.0
H2565 H 0.67328 0.05656 0.93524 0.0
H2566 H 0.64992 0.04492 0.87271 0.0
H2567 H 0.69876 0.08869 0.89261 0.0
C2568 C 0.7055 0.09344 0.86466 0.0
C2569 C 0.70213 0.0879 0.84678 0.0
C2570 C 0.65513 0.04745 0.8864 0.0
C2571 C 0.6828 0.06929 0.87532 0.0
C2572 C 0.64469 0.03881 0.90059 0.0
C2573 C 0.65097 0.04188 0.9185 0.0
C2574 C 0.67186 0.05945 0.89011 0.0
C2575 C 0.66803 0.05372 0.92164 0.0
C2576 C 0.696 0.08414 0.87893 0.0
C2577 C 0.68911 0.07282 0.84376 0.0
N2578 N 0.67778 0.06217 0.90759 0.0
N2579 N 0.67981 0.06412 0.85786 0.0
H2580 H 0.82302 0.93852 0.3263 0.0
H2581 H 0.82961 0.95364 0.43319 0.0
H2582 H 0.78797 0.90647 0.36468 0.0
H2583 H 0.87638 0.97419 0.39588 0.0
H2584 H 0.81088 0.93938 0.40792 0.0
H2585 H 0.8395 0.95493 0.35138 0.0
C2586 C 0.81867 0.93504 0.33999 0.0
C2587 C 0.80421 0.92103 0.34341 0.0
C2588 C 0.82523 0.94704 0.40528 0.0
C2589 C 0.82297 0.9397 0.37215 0.0
C2590 C 0.83584 0.95526 0.41968 0.0
C2591 C 0.85466 0.96501 0.41665 0.0
C2592 C 0.83335 0.94878 0.38769 0.0
C2593 C 0.86212 0.96656 0.39886 0.0
C2594 C 0.82817 0.94432 0.3543 0.0
C2595 C 0.79927 0.91698 0.36144 0.0
N2596 N 0.85145 0.95856 0.38506 0.0
N2597 N 0.8086 0.92627 0.37512 0.0
H2598 H 0.84017 0.10817 0.16089 0.0
H2599 H 0.83206 0.02802 0.08881 0.0
H2600 H 0.79059 0.06794 0.16282 0.0
H2601 H 0.87923 0.07031 0.08759 0.0
H2602 H 0.81627 0.04199 0.11568 0.0
H2603 H 0.85458 0.09387 0.13409 0.0
C2604 C 0.8322 0.09637 0.15564 0.0
C2605 C 0.81398 0.08939 0.16411 0.0
C2606 C 0.83008 0.04817 0.10949 0.0
C2607 C 0.83067 0.07267 0.13326 0.0
C2608 C 0.83903 0.04027 0.09408 0.0
C2609 C 0.85714 0.0479 0.08594 0.0
C2610 C 0.83927 0.06384 0.11677 0.0
C2611 C 0.86557 0.06371 0.09352 0.0
C2612 C 0.84053 0.08812 0.14031 0.0
C2613 C 0.80471 0.07375 0.15682 0.0
N2614 N 0.85661 0.07109 0.10845 0.0
N2615 N 0.81312 0.06594 0.14177 0.0
H2616 H 0.32915 0.55335 0.57595 0.0
H2617 H 0.32082 0.56995 0.68256 0.0
H2618 H 0.37612 0.53467 0.61409 0.0
H2619 H 0.28458 0.6002 0.64346 0.0
H2620 H 0.33794 0.55345 0.65788 0.0
H2621 H 0.30927 0.56722 0.60084 0.0
C2622 C 0.33517 0.55204 0.58957 0.0
C2623 C 0.3544 0.54298 0.59294 0.0
C2624 C 0.32619 0.56367 0.65471 0.0
C2625 C 0.33181 0.55876 0.62145 0.0
C2626 C 0.31633 0.573 0.6688 0.0
C2627 C 0.30136 0.58656 0.66506 0.0
C2628 C 0.32088 0.56778 0.63675 0.0
C2629 C 0.29627 0.59007 0.64694 0.0
C2630 C 0.32391 0.56004 0.60375 0.0
C2631 C 0.36156 0.54179 0.61085 0.0
N2632 N 0.306 0.58074 0.63347 0.0
N2633 N 0.35028 0.54957 0.62442 0.0
H2634 H 0.21906 0.59994 0.36644 0.0
H2635 H 0.13321 0.52648 0.39644 0.0
H2636 H 0.18574 0.56623 0.32841 0.0
H2637 H 0.17762 0.55097 0.43342 0.0
H2638 H 0.15124 0.54157 0.37138 0.0
H2639 H 0.20308 0.58291 0.39119 0.0
C2640 C 0.20833 0.58896 0.3633 0.0
C2641 C 0.20362 0.58458 0.34532 0.0
C2642 C 0.15712 0.54357 0.38496 0.0
C2643 C 0.18526 0.56495 0.37364 0.0
C2644 C 0.14676 0.53504 0.39929 0.0
C2645 C 0.15385 0.53753 0.41708 0.0
C2646 C 0.17459 0.55487 0.38843 0.0
C2647 C 0.1717 0.54857 0.41994 0.0
C2648 C 0.19932 0.57916 0.37744 0.0
C2649 C 0.18989 0.57001 0.34205 0.0
N2650 N 0.18134 0.55694 0.40579 0.0
N2651 N 0.18105 0.56081 0.35607 0.0
H2652 H 0.37653 0.48058 0.89591 0.0
H2653 H 0.29786 0.40241 0.86429 0.0
H2654 H 0.33604 0.45171 0.93294 0.0
H2655 H 0.32257 0.44248 0.82774 0.0
H2656 H 0.31371 0.41883 0.88956 0.0
H2657 H 0.35897 0.46537 0.8707 0.0
C2658 C 0.36397 0.471 0.89873 0.0
C2659 C 0.3578 0.46734 0.91656 0.0
C2660 C 0.31559 0.42408 0.87602 0.0
C2661 C 0.33762 0.44985 0.88775 0.0
C2662 C 0.30668 0.41464 0.86158 0.0
C2663 C 0.30898 0.42105 0.84386 0.0
C2664 C 0.32719 0.43992 0.87275 0.0
C2665 C 0.32031 0.43714 0.84118 0.0
C2666 C 0.35385 0.46241 0.88433 0.0
C2667 C 0.34119 0.45499 0.91941 0.0
N2668 N 0.32914 0.44594 0.85545 0.0
N2669 N 0.3318 0.44657 0.90516 0.0
H2670 H 0.57657 0.67335 0.95255 0.0
H2671 H 0.69891 0.67591 0.92185 0.0
H2672 H 0.6209 0.62984 0.96201 0.0
H2673 H 0.65311 0.71692 0.90746 0.0
H2674 H 0.67036 0.65858 0.93604 0.0
H2675 H 0.60408 0.68919 0.93538 0.0
C2676 C 0.59203 0.66705 0.95092 0.0
C2677 C 0.59642 0.65024 0.95881 0.0
C2678 C 0.66652 0.67132 0.92969 0.0
C2679 C 0.6281 0.6684 0.93923 0.0
C2680 C 0.68284 0.68125 0.92158 0.0
C2681 C 0.67846 0.69795 0.91348 0.0
C2682 C 0.64562 0.67815 0.92983 0.0
C2683 C 0.65728 0.70413 0.91355 0.0
C2684 C 0.60775 0.67612 0.94111 0.0
C2685 C 0.61677 0.64277 0.95621 0.0
N2686 N 0.6417 0.69429 0.92168 0.0
N2687 N 0.63186 0.65194 0.94676 0.0
H2688 H 0.58225 0.32462 0.20404 0.0
H2689 H 0.5755 0.43119 0.18744 0.0
H2690 H 0.62972 0.36195 0.2233 0.0
H2691 H 0.53911 0.39242 0.15701 0.0
H2692 H 0.59281 0.40633 0.20362 0.0
H2693 H 0.56346 0.3497 0.18956 0.0
C2694 C 0.58864 0.3381 0.20532 0.0
C2695 C 0.60764 0.34117 0.21482 0.0
C2696 C 0.58102 0.40328 0.1934 0.0
C2697 C 0.58625 0.36995 0.19829 0.0
C2698 C 0.57105 0.41746 0.18425 0.0
C2699 C 0.55593 0.41387 0.17078 0.0
C2700 C 0.57563 0.38538 0.18921 0.0
C2701 C 0.5509 0.3958 0.16709 0.0
C2702 C 0.57799 0.3524 0.19697 0.0
C2703 C 0.61531 0.35893 0.2159 0.0
N2704 N 0.56068 0.38225 0.17627 0.0
N2705 N 0.60457 0.37264 0.20778 0.0
H2706 H 0.85789 0.28941 0.39892 0.0
H2707 H 0.90189 0.35942 0.47221 0.0
H2708 H 0.81737 0.32279 0.43205 0.0
H2709 H 0.94277 0.32843 0.43713 0.0
H2710 H 0.87082 0.34689 0.45687 0.0
H2711 H 0.88913 0.30421 0.41193 0.0
C2712 C 0.85553 0.29991 0.40885 0.0
C2713 C 0.83491 0.3048 0.41442 0.0
C2714 C 0.88658 0.34288 0.45245 0.0
C2715 C 0.87072 0.32178 0.42947 0.0
C2716 C 0.90436 0.35005 0.46121 0.0
C2717 C 0.92503 0.34494 0.45601 0.0
C2718 C 0.88937 0.33041 0.4384 0.0
C2719 C 0.92717 0.33276 0.44163 0.0
C2720 C 0.8734 0.30837 0.41629 0.0
C2721 C 0.83291 0.31853 0.42735 0.0
N2722 N 0.90958 0.32584 0.4334 0.0
N2723 N 0.85055 0.32646 0.43447 0.0
H2724 H 0.92392 0.68577 0.70185 0.0
H2725 H 0.93879 0.57923 0.69072 0.0
H2726 H 0.88313 0.64677 0.72768 0.0
H2727 H 0.96597 0.61786 0.65386 0.0
H2728 H 0.92127 0.60393 0.70685 0.0
H2729 H 0.94256 0.66112 0.68648 0.0
C2730 C 0.91897 0.67202 0.70435 0.0
C2731 C 0.9019 0.66831 0.716 0.0
C2732 C 0.93106 0.607 0.69522 0.0
C2733 C 0.92313 0.64008 0.69852 0.0
C2734 C 0.94117 0.59292 0.68609 0.0
C2735 C 0.95381 0.59649 0.6709 0.0
C2736 C 0.93383 0.62482 0.68926 0.0
C2737 C 0.95616 0.61449 0.66537 0.0
C2738 C 0.92951 0.65798 0.69551 0.0
C2739 C 0.89601 0.65025 0.71863 0.0
N2740 N 0.94633 0.62798 0.67458 0.0
N2741 N 0.90665 0.63681 0.71002 0.0
H2742 H 0.57388 0.32878 0.55145 0.0
H2743 H 0.69496 0.32622 0.58559 0.0
H2744 H 0.6173 0.37351 0.54571 0.0
H2745 H 0.64913 0.28441 0.59713 0.0
H2746 H 0.66662 0.34403 0.57152 0.0
H2747 H 0.60098 0.31265 0.56883 0.0
C2748 C 0.58904 0.33529 0.55395 0.0
C2749 C 0.59329 0.35254 0.54703 0.0
C2750 C 0.66273 0.33101 0.57724 0.0
C2751 C 0.62456 0.33401 0.56684 0.0
C2752 C 0.67893 0.32081 0.58528 0.0
C2753 C 0.67449 0.30373 0.59252 0.0
C2754 C 0.64192 0.32405 0.57629 0.0
C2755 C 0.65336 0.29748 0.59171 0.0
C2756 C 0.60454 0.32605 0.56388 0.0
C2757 C 0.61327 0.36025 0.55075 0.0
N2758 N 0.63794 0.30756 0.58366 0.0
N2759 N 0.62819 0.3509 0.56027 0.0
H2760 H 0.88043 0.36225 0.78295 0.0
H2761 H 0.97114 0.38782 0.85372 0.0
H2762 H 0.92449 0.32315 0.80447 0.0
H2763 H 0.93864 0.42733 0.82107 0.0
H2764 H 0.95316 0.36385 0.83697 0.0
H2765 H 0.90048 0.38621 0.79787 0.0
C2766 C 0.89433 0.35872 0.79085 0.0
C2767 C 0.90074 0.34067 0.79258 0.0
C2768 C 0.95004 0.37775 0.83341 0.0
C2769 C 0.92379 0.36805 0.8097 0.0
C2770 C 0.96018 0.39144 0.84305 0.0
C2771 C 0.95629 0.40961 0.83885 0.0
C2772 C 0.93568 0.38223 0.81959 0.0
C2773 C 0.94219 0.41352 0.82468 0.0
C2774 C 0.90585 0.37241 0.79926 0.0
C2775 C 0.91908 0.33688 0.80273 0.0
N2776 N 0.93227 0.39995 0.81565 0.0
N2777 N 0.92987 0.35045 0.81105 0.0
H2778 H 0.81183 0.67528 0.086 0.0
H2779 H 0.93272 0.6757 0.05155 0.0
H2780 H 0.85631 0.71808 0.09763 0.0
H2781 H 0.89074 0.62998 0.04586 0.0
H2782 H 0.9052 0.69114 0.06904 0.0
H2783 H 0.84064 0.65823 0.07176 0.0
C2784 C 0.82766 0.68107 0.08565 0.0
C2785 C 0.83159 0.69819 0.09298 0.0
C2786 C 0.90205 0.67768 0.06408 0.0
C2787 C 0.8647 0.67875 0.07658 0.0
C2788 C 0.91778 0.66883 0.05409 0.0
C2789 C 0.91405 0.65151 0.04714 0.0
C2790 C 0.88232 0.66923 0.06707 0.0
C2791 C 0.89436 0.64332 0.0509 0.0
C2792 C 0.84413 0.67131 0.07753 0.0
C2793 C 0.85249 0.70496 0.09215 0.0
N2794 N 0.8792 0.65229 0.06048 0.0
N2795 N 0.86819 0.69528 0.08401 0.0
H2796 H 0.623 0.64566 0.26998 0.0
H2797 H 0.55124 0.6152 0.35324 0.0
H2798 H 0.58737 0.68336 0.30235 0.0
H2799 H 0.57212 0.57836 0.3119 0.0
H2800 H 0.5657 0.64029 0.33569 0.0
H2801 H 0.60591 0.62076 0.286 0.0
C2802 C 0.61159 0.64869 0.28049 0.0
C2803 C 0.6067 0.66661 0.28493 0.0
C2804 C 0.56702 0.62674 0.3304 0.0
C2805 C 0.58704 0.63816 0.30334 0.0
C2806 C 0.55891 0.6124 0.34047 0.0
C2807 C 0.5606 0.59465 0.33406 0.0
C2808 C 0.57718 0.62332 0.31389 0.0
C2809 C 0.57038 0.59183 0.31728 0.0
C2810 C 0.60173 0.63447 0.28955 0.0
C2811 C 0.59151 0.66975 0.29846 0.0
N2812 N 0.57848 0.60599 0.30785 0.0
N2813 N 0.58236 0.65566 0.30731 0.0
H2814 H 0.67328 0.94947 0.57303 0.0
H2815 H 0.68169 0.93513 0.6798 0.0
H2816 H 0.62883 0.97256 0.61088 0.0
H2817 H 0.71351 0.90083 0.64134 0.0
H2818 H 0.66499 0.95148 0.6548 0.0
H2819 H 0.69111 0.93395 0.59804 0.0
C2820 C 0.66736 0.95134 0.58661 0.0
C2821 C 0.6495 0.96226 0.58987 0.0
C2822 C 0.67562 0.94036 0.65184 0.0
C2823 C 0.66978 0.94459 0.61853 0.0
C2824 C 0.68525 0.93111 0.66609 0.0
C2825 C 0.69896 0.91656 0.66265 0.0
C2826 C 0.67993 0.93518 0.63398 0.0
C2827 C 0.70284 0.91181 0.64461 0.0
C2828 C 0.67744 0.94241 0.60086 0.0
C2829 C 0.64235 0.96409 0.60773 0.0
N2830 N 0.69344 0.92113 0.63096 0.0
N2831 N 0.65255 0.9554 0.62138 0.0
loop_
_geom_bond_atom_site_label_1
_geom_bond_atom_site_label_2
_geom_bond_distance
_geom_bond_site_symmetry_2
_ccdc_geom_bond_type
Cu0 N1 1.999 . S
Cu0 O6 1.974 . S
Cu0 N11 1.985 . S
Cu0 O20 1.959 . S
N1 Cu0 1.999 . S
N1 C3 1.263 . S
N1 C5 1.389 . S
N2 C3 1.358 . S
N2 C4 1.400 . S
C3 N1 1.263 . S
C3 N2 1.358 . S
C3 H9 0.930 . S
C4 N2 1.400 . S
C4 C5 1.351 . S
C4 H21 0.930 . S
C5 N1 1.389 . S
C5 C4 1.351 . S
C5 H10 0.930 . S
O6 Cu0 1.974 . S
O6 C16 1.282 . S
C7 O8 1.261 . S
C7 O20 1.251 . S
O8 C7 1.261 . S
H9 C3 0.930 . S
H10 C5 0.930 . S
N11 Cu0 1.985 . S
N11 C13 1.335 . S
N11 C14 1.390 . S
N12 C13 1.345 . S
N12 C15 1.336 . S
C13 N11 1.335 . S
C13 N12 1.345 . S
C13 H18 0.930 . S
C14 N11 1.390 . S
C14 C15 1.346 . S
C14 H19 0.930 . S
C15 N12 1.336 . S
C15 C14 1.346 . S
C15 H22 0.929 . S
C16 O6 1.282 . S
C16 O17 1.216 . S
O17 C16 1.216 . S
H18 C13 0.930 . S
H19 C14 0.930 . S
O20 Cu0 1.959 . S
O20 C7 1.251 . S
H21 C4 0.930 . S
H22 C15 0.929 . S
Cu23 N24 1.950 1_565 S
Cu23 O29 1.974 . S
Cu23 N34 1.985 . S
Cu23 O43 1.959 . S
N24 Cu23 1.950 1_545 S
N24 C26 1.289 . S
N24 C28 1.423 . S
N25 C26 1.358 . S
N25 C27 1.400 . S
C26 N24 1.289 . S
C26 N25 1.358 . S
C26 H32 0.930 . S
C27 N25 1.400 . S
C27 C28 1.351 . S
C27 H44 0.930 . S
C28 N24 1.423 . S
C28 C27 1.351 . S
C28 H33 0.930 . S
O29 Cu23 1.974 . S
O29 C39 1.282 . S
C30 O31 1.261 . S
C30 O43 1.251 . S
O31 C30 1.261 . S
H32 C26 0.930 . S
H33 C28 0.930 . S
N34 Cu23 1.985 . S
N34 C36 1.335 . S
N34 C37 1.390 . S
N35 C36 1.345 . S
N35 C38 1.336 . S
C36 N34 1.335 . S
C36 N35 1.345 . S
C36 H41 0.930 . S
C37 N34 1.390 . S
C37 C38 1.346 . S
C37 H42 0.930 . S
C38 N35 1.336 . S
C38 C37 1.346 . S
C38 H45 0.929 . S
C39 O29 1.282 . S
C39 O40 1.216 . S
O40 C39 1.216 . S
H41 C36 0.930 . S
H42 C37 0.930 . S
O43 Cu23 1.959 . S
O43 C30 1.251 . S
H44 C27 0.930 . S
H45 C38 0.929 . S
Cu46 N47 1.999 . S
Cu46 O52 1.974 . S
Cu46 N57 1.985 . S
Cu46 O66 1.959 . S
N47 Cu46 1.999 . S
N47 C49 1.263 . S
N47 C51 1.389 . S
N48 C49 1.358 . S
N48 C50 1.400 . S
C49 N47 1.263 . S
C49 N48 1.358 . S
C49 H55 0.930 . S
C50 N48 1.400 . S
C50 C51 1.351 . S
C50 H67 0.930 . S
C51 N47 1.389 . S
C51 C50 1.351 . S
C51 H56 0.930 . S
O52 Cu46 1.974 . S
O52 C62 1.282 . S
C53 O54 1.261 . S
C53 O66 1.251 . S
O54 C53 1.261 . S
H55 C49 0.930 . S
H56 C51 0.930 . S
N57 Cu46 1.985 . S
N57 C59 1.335 . S
N57 C60 1.390 . S
N58 C59 1.345 . S
N58 C61 1.336 . S
C59 N57 1.335 . S
C59 N58 1.345 . S
C59 H64 0.930 . S
C60 N57 1.390 . S
C60 C61 1.346 . S
C60 H65 0.930 . S
C61 N58 1.336 . S
C61 C60 1.346 . S
C61 H68 0.929 . S
C62 O52 1.282 . S
C62 O63 1.216 . S
O63 C62 1.216 . S
H64 C59 0.930 . S
H65 C60 0.930 . S
O66 Cu46 1.959 . S
O66 C53 1.251 . S
H67 C50 0.930 . S
H68 C61 0.929 . S
Cu69 N70 1.999 1_545 S
Cu69 O75 1.974 . S
Cu69 N80 1.985 . S
Cu69 O89 1.959 . S
N70 Cu69 1.999 1_565 S
N70 C72 1.263 . S
N70 C74 1.389 . S
N71 C72 1.358 . S
N71 C73 1.400 . S
C72 N70 1.263 . S
C72 N71 1.358 . S
C72 H78 0.930 . S
C73 N71 1.400 . S
C73 C74 1.351 . S
C73 H90 0.930 . S
C74 N70 1.389 . S
C74 C73 1.351 . S
C74 H79 0.930 . S
O75 Cu69 1.974 . S
O75 C85 1.282 . S
C76 O77 1.261 . S
C76 O89 1.251 . S
O77 C76 1.261 . S
H78 C72 0.930 . S
H79 C74 0.930 . S
N80 Cu69 1.985 . S
N80 C82 1.335 . S
N80 C83 1.390 . S
N81 C82 1.345 . S
N81 C84 1.336 . S
C82 N80 1.335 . S
C82 N81 1.345 . S
C82 H87 0.930 . S
C83 N80 1.390 . S
C83 C84 1.346 . S
C83 H88 0.930 . S
C84 N81 1.336 . S
C84 C83 1.346 . S
C84 H91 0.929 . S
C85 O75 1.282 . S
C85 O86 1.216 . S
O86 C85 1.216 . S
H87 C82 0.930 . S
H88 C83 0.930 . S
O89 Cu69 1.959 . S
O89 C76 1.251 . S
H90 C73 0.930 . S
H91 C84 0.929 . S
Cu92 N93 1.999 . S
Cu92 O98 1.974 . S
Cu92 N103 1.985 . S
Cu92 O112 1.959 . S
N93 Cu92 1.999 . S
N93 C95 1.263 . S
N93 C97 1.389 . S
N94 C95 1.358 . S
N94 C96 1.400 . S
C95 N93 1.263 . S
C95 N94 1.358 . S
C95 H101 0.930 . S
C96 N94 1.400 . S
C96 C97 1.351 . S
C96 H113 0.930 . S
C97 N93 1.389 . S
C97 C96 1.351 . S
C97 H102 0.930 . S
O98 Cu92 1.974 . S
O98 C108 1.282 . S
C99 O100 1.261 . S
C99 O112 1.251 . S
O100 C99 1.261 . S
H101 C95 0.930 . S
H102 C97 0.930 . S
N103 Cu92 1.985 . S
N103 C105 1.335 . S
N103 C106 1.390 . S
N104 C105 1.345 . S
N104 C107 1.336 . S
C105 N103 1.335 . S
C105 N104 1.345 . S
C105 H110 0.930 . S
C106 N103 1.390 . S
C106 C107 1.346 . S
C106 H111 0.930 . S
C107 N104 1.336 . S
C107 C106 1.346 . S
C107 H114 0.929 . S
C108 O98 1.282 . S
C108 O109 1.216 . S
O109 C108 1.216 . S
H110 C105 0.930 . S
H111 C106 0.930 . S
O112 Cu92 1.959 . S
O112 C99 1.251 . S
H113 C96 0.930 . S
H114 C107 0.929 . S
Cu115 N116 1.950 1_565 S
Cu115 O121 1.974 . S
Cu115 N126 1.985 . S
Cu115 O135 1.959 . S
N116 Cu115 1.950 1_545 S
N116 C118 1.289 . S
N116 C120 1.423 . S
N117 C118 1.358 . S
N117 C119 1.400 . S
C118 N116 1.289 . S
C118 N117 1.358 . S
C118 H124 0.930 . S
C119 N117 1.400 . S
C119 C120 1.351 . S
C119 H136 0.930 . S
C120 N116 1.423 . S
C120 C119 1.351 . S
C120 H125 0.930 . S
O121 Cu115 1.974 . S
O121 C131 1.282 . S
C122 O123 1.261 . S
C122 O135 1.251 . S
O123 C122 1.261 . S
H124 C118 0.930 . S
H125 C120 0.930 . S
N126 Cu115 1.985 . S
N126 C128 1.335 . S
N126 C129 1.390 . S
N127 C128 1.345 . S
N127 C130 1.336 . S
C128 N126 1.335 . S
C128 N127 1.345 . S
C128 H133 0.930 . S
C129 N126 1.390 . S
C129 C130 1.346 . S
C129 H134 0.930 . S
C130 N127 1.336 . S
C130 C129 1.346 . S
C130 H137 0.929 . S
C131 O121 1.282 . S
C131 O132 1.216 . S
O132 C131 1.216 . S
H133 C128 0.930 . S
H134 C129 0.930 . S
O135 Cu115 1.959 . S
O135 C122 1.251 . S
H136 C119 0.930 . S
H137 C130 0.929 . S
Cu138 N139 1.999 . S
Cu138 O144 1.974 . S
Cu138 N149 1.985 . S
Cu138 O158 1.959 . S
N139 Cu138 1.999 . S
N139 C141 1.263 . S
N139 C143 1.389 . S
N140 C141 1.358 . S
N140 C142 1.400 . S
C141 N139 1.263 . S
C141 N140 1.358 . S
C141 H147 0.930 . S
C142 N140 1.400 . S
C142 C143 1.351 . S
C142 H159 0.930 . S
C143 N139 1.389 . S
C143 C142 1.351 . S
C143 H148 0.930 . S
O144 Cu138 1.974 . S
O144 C154 1.282 . S
C145 O146 1.261 . S
C145 O158 1.251 . S
O146 C145 1.261 . S
H147 C141 0.930 . S
H148 C143 0.930 . S
N149 Cu138 1.985 . S
N149 C151 1.335 . S
N149 C152 1.390 . S
N150 C151 1.345 . S
N150 C153 1.336 . S
C151 N149 1.335 . S
C151 N150 1.345 . S
C151 H156 0.930 . S
C152 N149 1.390 . S
C152 C153 1.346 . S
C152 H157 0.930 . S
C153 N150 1.336 . S
C153 C152 1.346 . S
C153 H160 0.929 . S
C154 O144 1.282 . S
C154 O155 1.216 . S
O155 C154 1.216 . S
H156 C151 0.930 . S
H157 C152 0.930 . S
O158 Cu138 1.959 . S
O158 C145 1.251 . S
H159 C142 0.930 . S
H160 C153 0.929 . S
Cu161 N162 1.999 1_545 S
Cu161 O167 1.974 . S
Cu161 N172 1.985 . S
Cu161 O181 1.959 . S
N162 Cu161 1.999 1_565 S
N162 C164 1.263 . S
N162 C166 1.389 . S
N163 C164 1.358 . S
N163 C165 1.400 . S
C164 N162 1.263 . S
C164 N163 1.358 . S
C164 H170 0.930 . S
C165 N163 1.400 . S
C165 C166 1.351 . S
C165 H182 0.930 . S
C166 N162 1.389 . S
C166 C165 1.351 . S
C166 H171 0.930 . S
O167 Cu161 1.974 . S
O167 C177 1.282 . S
C168 O169 1.261 . S
C168 O181 1.251 . S
O169 C168 1.261 . S
H170 C164 0.930 . S
H171 C166 0.930 . S
N172 Cu161 1.985 . S
N172 C174 1.335 . S
N172 C175 1.390 . S
N173 C174 1.345 . S
N173 C176 1.336 . S
C174 N172 1.335 . S
C174 N173 1.345 . S
C174 H179 0.930 . S
C175 N172 1.390 . S
C175 C176 1.346 . S
C175 H180 0.930 . S
C176 N173 1.336 . S
C176 C175 1.346 . S
C176 H183 0.929 . S
C177 O167 1.282 . S
C177 O178 1.216 . S
O178 C177 1.216 . S
H179 C174 0.930 . S
H180 C175 0.930 . S
O181 Cu161 1.959 . S
O181 C168 1.251 . S
H182 C165 0.930 . S
H183 C176 0.929 . S
Cu184 N185 1.999 . S
Cu184 O190 1.974 . S
Cu184 N195 1.985 . S
Cu184 O204 1.959 . S
N185 Cu184 1.999 . S
N185 C187 1.263 . S
N185 C189 1.389 . S
N186 C187 1.358 . S
N186 C188 1.400 . S
C187 N185 1.263 . S
C187 N186 1.358 . S
C187 H193 0.930 . S
C188 N186 1.400 . S
C188 C189 1.351 . S
C188 H205 0.930 . S
C189 N185 1.389 . S
C189 C188 1.351 . S
C189 H194 0.930 . S
O190 Cu184 1.974 . S
O190 C200 1.282 . S
C191 O192 1.261 . S
C191 O204 1.251 . S
O192 C191 1.261 . S
H193 C187 0.930 . S
H194 C189 0.930 . S
N195 Cu184 1.985 . S
N195 C197 1.335 . S
N195 C198 1.390 . S
N196 C197 1.345 . S
N196 C199 1.336 . S
C197 N195 1.335 . S
C197 N196 1.345 . S
C197 H202 0.930 . S
C198 N195 1.390 . S
C198 C199 1.346 . S
C198 H203 0.930 . S
C199 N196 1.336 . S
C199 C198 1.346 . S
C199 H206 0.929 . S
C200 O190 1.282 . S
C200 O201 1.216 . S
O201 C200 1.216 . S
H202 C197 0.930 . S
H203 C198 0.930 . S
O204 Cu184 1.959 . S
O204 C191 1.251 . S
H205 C188 0.930 . S
H206 C199 0.929 . S
Cu207 N208 1.999 . S
Cu207 O213 1.974 . S
Cu207 N218 1.985 . S
Cu207 O227 1.959 . S
N208 Cu207 1.999 . S
N208 C210 1.263 . S
N208 C212 1.437 . S
N209 C210 1.358 . S
N209 C211 1.400 1_455 S
C210 N208 1.263 . S
C210 N209 1.358 . S
C210 H216 0.930 . S
C211 N209 1.400 1_655 S
C211 C212 1.338 1_655 S
C211 H228 0.930 . S
C212 N208 1.437 . S
C212 C211 1.338 1_455 S
C212 H217 0.902 1_455 S
O213 Cu207 1.974 . S
O213 C223 1.282 . S
C214 O215 1.261 . S
C214 O227 1.251 . S
O215 C214 1.261 . S
H216 C210 0.930 . S
H217 C212 0.902 1_655 S
N218 Cu207 1.985 . S
N218 C220 1.335 . S
N218 C221 1.390 . S
N219 C220 1.345 . S
N219 C222 1.336 . S
C220 N218 1.335 . S
C220 N219 1.345 . S
C220 H225 0.930 . S
C221 N218 1.390 . S
C221 C222 1.346 . S
C221 H226 0.930 . S
C222 N219 1.336 . S
C222 C221 1.346 . S
C222 H229 0.929 . S
C223 O213 1.282 . S
C223 O224 1.216 . S
O224 C223 1.216 . S
H225 C220 0.930 . S
H226 C221 0.930 . S
O227 Cu207 1.959 . S
O227 C214 1.251 . S
H228 C211 0.930 . S
H229 C222 0.929 . S
Cu230 N231 1.999 . S
Cu230 O236 1.974 . S
Cu230 N241 1.985 . S
Cu230 O250 1.959 . S
N231 Cu230 1.999 . S
N231 C233 1.263 . S
N231 C235 1.389 . S
N232 C233 1.358 . S
N232 C234 1.400 . S
C233 N231 1.263 . S
C233 N232 1.358 . S
C233 H239 0.930 . S
C234 N232 1.400 . S
C234 C235 1.351 . S
C234 H251 0.930 . S
C235 N231 1.389 . S
C235 C234 1.351 . S
C235 H240 0.930 . S
O236 Cu230 1.974 . S
O236 C246 1.282 . S
C237 O238 1.261 . S
C237 O250 1.251 . S
O238 C237 1.261 . S
H239 C233 0.930 . S
H240 C235 0.930 . S
N241 Cu230 1.985 . S
N241 C243 1.335 . S
N241 C244 1.390 . S
N242 C243 1.345 . S
N242 C245 1.336 . S
C243 N241 1.335 . S
C243 N242 1.345 . S
C243 H248 0.930 . S
C244 N241 1.390 . S
C244 C245 1.346 . S
C244 H249 0.930 . S
C245 N242 1.336 . S
C245 C244 1.346 . S
C245 H252 0.929 . S
C246 O236 1.282 . S
C246 O247 1.216 . S
O247 C246 1.216 . S
H248 C243 0.930 . S
H249 C244 0.930 . S
O250 Cu230 1.959 . S
O250 C237 1.251 . S
H251 C234 0.930 . S
H252 C245 0.929 . S
Cu253 N254 1.999 . S
Cu253 O259 1.974 . S
Cu253 N264 1.985 . S
Cu253 O273 1.959 . S
N254 Cu253 1.999 . S
N254 C256 1.263 . S
N254 C258 1.389 . S
N255 C256 1.358 . S
N255 C257 1.400 . S
C256 N254 1.263 . S
C256 N255 1.358 . S
C256 H262 0.930 . S
C257 N255 1.400 . S
C257 C258 1.351 . S
C257 H274 0.930 . S
C258 N254 1.389 . S
C258 C257 1.351 . S
C258 H263 0.930 . S
O259 Cu253 1.974 . S
O259 C269 1.282 . S
C260 O261 1.261 . S
C260 O273 1.251 . S
O261 C260 1.261 . S
H262 C256 0.930 . S
H263 C258 0.930 . S
N264 Cu253 1.985 . S
N264 C266 1.335 1_556 S
N264 C267 1.390 . S
N265 C266 1.345 . S
N265 C268 1.336 1_554 S
C266 N264 1.335 1_554 S
C266 N265 1.345 . S
C266 H271 0.930 . S
C267 N264 1.390 . S
C267 C268 1.346 . S
C267 H272 0.930 . S
C268 N265 1.336 1_556 S
C268 C267 1.346 . S
C268 H275 0.929 . S
C269 O259 1.282 . S
C269 O270 1.216 . S
O270 C269 1.216 . S
H271 C266 0.930 . S
H272 C267 0.930 . S
O273 Cu253 1.959 . S
O273 C260 1.251 . S
H274 C257 0.930 . S
H275 C268 0.929 . S
Cu276 N277 1.999 . S
Cu276 O282 1.974 . S
Cu276 N287 1.985 . S
Cu276 O296 1.959 . S
N277 Cu276 1.999 . S
N277 C279 1.263 . S
N277 C281 1.389 . S
N278 C279 1.358 . S
N278 C280 1.400 . S
C279 N277 1.263 . S
C279 N278 1.358 . S
C279 H285 0.930 . S
C280 N278 1.400 . S
C280 C281 1.351 . S
C280 H297 0.930 . S
C281 N277 1.389 . S
C281 C280 1.351 . S
C281 H286 0.930 . S
O282 Cu276 1.974 . S
O282 C292 1.282 . S
C283 O284 1.261 . S
C283 O296 1.251 . S
O284 C283 1.261 . S
H285 C279 0.930 . S
H286 C281 0.930 . S
N287 Cu276 1.985 . S
N287 C289 1.335 . S
N287 C290 1.390 . S
N288 C289 1.345 . S
N288 C291 1.336 . S
C289 N287 1.335 . S
C289 N288 1.345 . S
C289 H294 0.930 . S
C290 N287 1.390 . S
C290 C291 1.346 . S
C290 H295 0.930 . S
C291 N288 1.336 . S
C291 C290 1.346 . S
C291 H298 0.929 . S
C292 O282 1.282 . S
C292 O293 1.216 . S
O293 C292 1.216 . S
H294 C289 0.930 . S
H295 C290 0.930 . S
O296 Cu276 1.959 . S
O296 C283 1.251 . S
H297 C280 0.930 . S
H298 C291 0.929 . S
Cu299 N300 1.999 . S
Cu299 O305 1.974 . S
Cu299 N310 1.985 . S
Cu299 O319 1.959 . S
N300 Cu299 1.999 . S
N300 C302 1.263 . S
N300 C304 1.389 . S
N301 C302 1.358 . S
N301 C303 1.400 . S
C302 N300 1.263 . S
C302 N301 1.358 . S
C302 H308 0.930 . S
C303 N301 1.400 . S
C303 C304 1.351 . S
C303 H320 0.930 . S
C304 N300 1.389 . S
C304 C303 1.351 . S
C304 H309 0.930 . S
O305 Cu299 1.974 . S
O305 C315 1.282 . S
C306 O307 1.261 . S
C306 O319 1.251 . S
O307 C306 1.261 . S
H308 C302 0.930 . S
H309 C304 0.930 . S
N310 Cu299 1.985 . S
N310 C312 1.335 . S
N310 C313 1.390 . S
N311 C312 1.345 . S
N311 C314 1.336 . S
C312 N310 1.335 . S
C312 N311 1.345 . S
C312 H317 0.930 . S
C313 N310 1.390 . S
C313 C314 1.346 . S
C313 H318 0.930 . S
C314 N311 1.336 . S
C314 C313 1.346 . S
C314 H321 0.929 . S
C315 O305 1.282 . S
C315 O316 1.216 . S
O316 C315 1.216 . S
H317 C312 0.930 . S
H318 C313 0.930 . S
O319 Cu299 1.959 . S
O319 C306 1.251 . S
H320 C303 0.930 . S
H321 C314 0.929 . S
Cu322 N323 1.999 . S
Cu322 O328 1.974 . S
Cu322 N333 1.985 . S
Cu322 O342 1.959 . S
N323 Cu322 1.999 . S
N323 C325 1.263 . S
N323 C327 1.389 . S
N324 C325 1.358 . S
N324 C326 1.400 . S
C325 N323 1.263 . S
C325 N324 1.358 . S
C325 H331 0.930 . S
C326 N324 1.400 . S
C326 C327 1.351 . S
C326 H343 0.930 . S
C327 N323 1.389 . S
C327 C326 1.351 . S
C327 H332 0.930 . S
O328 Cu322 1.974 . S
O328 C338 1.282 . S
C329 O330 1.261 . S
C329 O342 1.251 . S
O330 C329 1.261 . S
H331 C325 0.930 . S
H332 C327 0.930 . S
N333 Cu322 1.985 . S
N333 C335 1.335 . S
N333 C336 1.390 . S
N334 C335 1.345 . S
N334 C337 1.336 . S
C335 N333 1.335 . S
C335 N334 1.345 . S
C335 H340 0.930 . S
C336 N333 1.390 . S
C336 C337 1.346 . S
C336 H341 0.930 . S
C337 N334 1.336 . S
C337 C336 1.346 . S
C337 H344 0.929 . S
C338 O328 1.282 . S
C338 O339 1.216 . S
O339 C338 1.216 . S
H340 C335 0.930 . S
H341 C336 0.930 . S
O342 Cu322 1.959 . S
O342 C329 1.251 . S
H343 C326 0.930 . S
H344 C337 0.929 . S
Cu345 N346 1.999 . S
Cu345 O351 1.974 . S
Cu345 N356 1.985 . S
Cu345 O365 1.959 . S
N346 Cu345 1.999 . S
N346 C348 1.263 . S
N346 C350 1.438 . S
N347 C348 1.358 . S
N347 C349 1.400 1_455 S
C348 N346 1.263 . S
C348 N347 1.358 . S
C348 H354 0.930 . S
C349 N347 1.400 1_655 S
C349 C350 1.337 1_655 S
C349 H366 0.930 . S
C350 N346 1.438 . S
C350 C349 1.337 1_455 S
C350 H355 0.901 1_455 S
O351 Cu345 1.974 . S
O351 C361 1.282 . S
C352 O353 1.261 . S
C352 O365 1.251 . S
O353 C352 1.261 . S
H354 C348 0.930 . S
H355 C350 0.901 1_655 S
N356 Cu345 1.985 . S
N356 C358 1.335 1_554 S
N356 C359 1.390 . S
N357 C358 1.345 . S
N357 C360 1.336 1_556 S
C358 N356 1.335 1_556 S
C358 N357 1.345 . S
C358 H363 0.930 . S
C359 N356 1.390 . S
C359 C360 1.346 . S
C359 H364 0.930 . S
C360 N357 1.336 1_554 S
C360 C359 1.346 . S
C360 H367 0.929 . S
C361 O351 1.282 . S
C361 O362 1.216 . S
O362 C361 1.216 . S
H363 C358 0.930 . S
H364 C359 0.930 . S
O365 Cu345 1.959 . S
O365 C352 1.251 . S
H366 C349 0.930 . S
H367 C360 0.929 . S
Cu368 N369 1.999 . S
Cu368 O374 1.974 . S
Cu368 N379 1.985 . S
Cu368 O388 1.959 . S
N369 Cu368 1.999 . S
N369 C371 1.263 . S
N369 C373 1.389 . S
N370 C371 1.358 . S
N370 C372 1.400 . S
C371 N369 1.263 . S
C371 N370 1.358 . S
C371 H377 0.930 . S
C372 N370 1.400 . S
C372 C373 1.351 . S
C372 H389 0.930 . S
C373 N369 1.389 . S
C373 C372 1.351 . S
C373 H378 0.930 . S
O374 Cu368 1.974 . S
O374 C384 1.282 . S
C375 O376 1.261 . S
C375 O388 1.251 . S
O376 C375 1.261 . S
H377 C371 0.930 . S
H378 C373 0.930 . S
N379 Cu368 1.985 . S
N379 C381 1.335 . S
N379 C382 1.390 . S
N380 C381 1.345 . S
N380 C383 1.336 . S
C381 N379 1.335 . S
C381 N380 1.345 . S
C381 H386 0.930 . S
C382 N379 1.390 . S
C382 C383 1.346 . S
C382 H387 0.930 . S
C383 N380 1.336 . S
C383 C382 1.346 . S
C383 H390 0.929 . S
C384 O374 1.282 . S
C384 O385 1.216 . S
O385 C384 1.216 . S
H386 C381 0.930 . S
H387 C382 0.930 . S
O388 Cu368 1.959 . S
O388 C375 1.251 . S
H389 C372 0.930 . S
H390 C383 0.929 . S
Cu391 N392 1.999 . S
Cu391 O397 1.974 . S
Cu391 N402 1.985 . S
Cu391 O411 1.959 . S
N392 Cu391 1.999 . S
N392 C394 1.263 . S
N392 C396 1.389 . S
N393 C394 1.358 . S
N393 C395 1.400 . S
C394 N392 1.263 . S
C394 N393 1.358 . S
C394 H400 0.930 . S
C395 N393 1.400 . S
C395 C396 1.351 . S
C395 H412 0.930 . S
C396 N392 1.389 . S
C396 C395 1.351 . S
C396 H401 0.930 . S
O397 Cu391 1.974 . S
O397 C407 1.282 . S
C398 O399 1.261 . S
C398 O411 1.251 . S
O399 C398 1.261 . S
H400 C394 0.930 . S
H401 C396 0.930 . S
N402 Cu391 1.985 . S
N402 C404 1.335 . S
N402 C405 1.390 . S
N403 C404 1.345 . S
N403 C406 1.336 . S
C404 N402 1.335 . S
C404 N403 1.345 . S
C404 H409 0.930 . S
C405 N402 1.390 . S
C405 C406 1.346 . S
C405 H410 0.930 . S
C406 N403 1.336 . S
C406 C405 1.346 . S
C406 H413 0.929 . S
C407 O397 1.282 . S
C407 O408 1.216 . S
O408 C407 1.216 . S
H409 C404 0.930 . S
H410 C405 0.930 . S
O411 Cu391 1.959 . S
O411 C398 1.251 . S
H412 C395 0.930 . S
H413 C406 0.929 . S
Cu414 N415 1.999 1_554 S
Cu414 O420 1.974 . S
Cu414 N425 1.985 . S
Cu414 O434 1.959 . S
N415 Cu414 1.999 1_556 S
N415 C417 1.263 . S
N415 C419 1.389 . S
N416 C417 1.358 . S
N416 C418 1.400 . S
C417 N415 1.263 . S
C417 N416 1.358 . S
C417 H423 0.930 . S
C418 N416 1.400 . S
C418 C419 1.351 . S
C418 H435 0.930 . S
C419 N415 1.389 . S
C419 C418 1.351 . S
C419 H424 0.930 . S
O420 Cu414 1.974 . S
O420 C430 1.282 . S
C421 O422 1.261 . S
C421 O434 1.251 . S
O422 C421 1.261 . S
H423 C417 0.930 . S
H424 C419 0.930 . S
N425 Cu414 1.985 . S
N425 C427 1.335 . S
N425 C428 1.390 . S
N426 C427 1.345 . S
N426 C429 1.336 . S
C427 N425 1.335 . S
C427 N426 1.345 . S
C427 H432 0.930 . S
C428 N425 1.390 . S
C428 C429 1.346 . S
C428 H433 0.930 . S
C429 N426 1.336 . S
C429 C428 1.346 . S
C429 H436 0.929 . S
C430 O420 1.282 . S
C430 O431 1.216 . S
O431 C430 1.216 . S
H432 C427 0.930 . S
H433 C428 0.930 . S
O434 Cu414 1.959 . S
O434 C421 1.251 . S
H435 C418 0.930 . S
H436 C429 0.929 . S
Cu437 N438 1.999 . S
Cu437 O443 1.974 . S
Cu437 N448 1.985 . S
Cu437 O457 1.959 . S
N438 Cu437 1.999 . S
N438 C440 1.263 . S
N438 C442 1.389 . S
N439 C440 1.358 . S
N439 C441 1.400 . S
C440 N438 1.263 . S
C440 N439 1.358 . S
C440 H446 0.930 . S
C441 N439 1.400 . S
C441 C442 1.351 . S
C441 H458 0.930 . S
C442 N438 1.389 . S
C442 C441 1.351 . S
C442 H447 0.930 . S
O443 Cu437 1.974 . S
O443 C453 1.282 . S
C444 O445 1.261 . S
C444 O457 1.251 . S
O445 C444 1.261 . S
H446 C440 0.930 . S
H447 C442 0.930 . S
N448 Cu437 1.985 . S
N448 C450 1.335 . S
N448 C451 1.390 . S
N449 C450 1.345 . S
N449 C452 1.336 . S
C450 N448 1.335 . S
C450 N449 1.345 . S
C450 H455 0.930 . S
C451 N448 1.390 . S
C451 C452 1.346 . S
C451 H456 0.930 . S
C452 N449 1.336 . S
C452 C451 1.346 . S
C452 H459 0.929 . S
C453 O443 1.282 . S
C453 O454 1.216 . S
O454 C453 1.216 . S
H455 C450 0.930 . S
H456 C451 0.930 . S
O457 Cu437 1.959 . S
O457 C444 1.251 . S
H458 C441 0.930 . S
H459 C452 0.929 . S
Cu460 N461 1.999 1_554 S
Cu460 O466 1.974 . S
Cu460 N471 1.985 . S
Cu460 O480 1.959 . S
N461 Cu460 1.999 1_556 S
N461 C463 1.263 . S
N461 C465 1.389 . S
N462 C463 1.358 . S
N462 C464 1.400 . S
C463 N461 1.263 . S
C463 N462 1.358 . S
C463 H469 0.916 1_545 S
C464 N462 1.400 . S
C464 C465 1.351 . S
C464 H481 0.930 . S
C465 N461 1.389 . S
C465 C464 1.351 . S
C465 H470 0.930 . S
O466 Cu460 1.974 . S
O466 C476 1.282 1_545 S
C467 O468 1.261 . S
C467 O480 1.251 . S
O468 C467 1.261 . S
H469 C463 0.916 1_565 S
H470 C465 0.930 . S
N471 Cu460 1.985 . S
N471 C473 1.335 . S
N471 C474 1.390 . S
N472 C473 1.345 . S
N472 C475 1.336 . S
C473 N471 1.335 . S
C473 N472 1.345 . S
C473 H478 0.930 . S
C474 N471 1.390 . S
C474 C475 1.346 . S
C474 H479 0.930 1_545 S
C475 N472 1.336 . S
C475 C474 1.346 . S
C475 H482 0.929 . S
C476 O466 1.282 1_565 S
C476 O477 1.216 . S
O477 C476 1.216 . S
H478 C473 0.930 . S
H479 C474 0.930 1_565 S
O480 Cu460 1.959 . S
O480 C467 1.251 . S
H481 C464 0.930 . S
H482 C475 0.929 . S
Cu483 N484 1.999 . S
Cu483 O489 1.974 . S
Cu483 N494 1.985 . S
Cu483 O503 1.959 . S
N484 Cu483 1.999 . S
N484 C486 1.263 . S
N484 C488 1.389 . S
N485 C486 1.358 . S
N485 C487 1.400 . S
C486 N484 1.263 . S
C486 N485 1.358 . S
C486 H492 0.930 . S
C487 N485 1.400 . S
C487 C488 1.351 . S
C487 H504 0.930 . S
C488 N484 1.389 . S
C488 C487 1.351 . S
C488 H493 0.930 . S
O489 Cu483 1.974 . S
O489 C499 1.282 . S
C490 O491 1.261 . S
C490 O503 1.251 . S
O491 C490 1.261 . S
H492 C486 0.930 . S
H493 C488 0.930 . S
N494 Cu483 1.985 . S
N494 C496 1.335 . S
N494 C497 1.390 . S
N495 C496 1.345 . S
N495 C498 1.336 . S
C496 N494 1.335 . S
C496 N495 1.345 . S
C496 H501 0.930 . S
C497 N494 1.390 . S
C497 C498 1.346 . S
C497 H502 0.930 . S
C498 N495 1.336 . S
C498 C497 1.346 . S
C498 H505 0.929 . S
C499 O489 1.282 . S
C499 O500 1.216 . S
O500 C499 1.216 . S
H501 C496 0.930 . S
H502 C497 0.930 . S
O503 Cu483 1.959 . S
O503 C490 1.251 . S
H504 C487 0.930 . S
H505 C498 0.929 . S
Cu506 N507 1.999 . S
Cu506 O512 1.974 . S
Cu506 N517 1.985 . S
Cu506 O526 1.959 . S
N507 Cu506 1.999 . S
N507 C509 1.263 . S
N507 C511 1.389 . S
N508 C509 1.358 . S
N508 C510 1.400 . S
C509 N507 1.263 . S
C509 N508 1.358 . S
C509 H515 0.930 . S
C510 N508 1.400 . S
C510 C511 1.351 . S
C510 H527 0.930 . S
C511 N507 1.389 . S
C511 C510 1.351 . S
C511 H516 0.930 . S
O512 Cu506 1.974 . S
O512 C522 1.282 . S
C513 O514 1.261 . S
C513 O526 1.251 . S
O514 C513 1.261 . S
H515 C509 0.930 . S
H516 C511 0.930 . S
N517 Cu506 1.985 . S
N517 C519 1.335 . S
N517 C520 1.390 . S
N518 C519 1.345 . S
N518 C521 1.336 . S
C519 N517 1.335 . S
C519 N518 1.345 . S
C519 H524 0.930 . S
C520 N517 1.390 . S
C520 C521 1.346 . S
C520 H525 0.930 . S
C521 N518 1.336 . S
C521 C520 1.346 . S
C521 H528 0.929 . S
C522 O512 1.282 . S
C522 O523 1.216 . S
O523 C522 1.216 . S
H524 C519 0.930 . S
H525 C520 0.930 . S
O526 Cu506 1.959 . S
O526 C513 1.251 . S
H527 C510 0.930 . S
H528 C521 0.929 . S
Cu529 N530 1.999 1_556 S
Cu529 O535 1.974 . S
Cu529 N540 1.985 . S
Cu529 O549 1.959 . S
N530 Cu529 1.999 1_554 S
N530 C532 1.263 . S
N530 C534 1.389 . S
N531 C532 1.358 . S
N531 C533 1.400 . S
C532 N530 1.263 . S
C532 N531 1.358 . S
C532 H538 0.930 . S
C533 N531 1.400 . S
C533 C534 1.351 . S
C533 H550 0.930 . S
C534 N530 1.389 . S
C534 C533 1.351 . S
C534 H539 0.930 . S
O535 Cu529 1.974 . S
O535 C545 1.282 . S
C536 O537 1.261 . S
C536 O549 1.251 . S
O537 C536 1.261 . S
H538 C532 0.930 . S
H539 C534 0.930 . S
N540 Cu529 1.985 . S
N540 C542 1.335 . S
N540 C543 1.390 . S
N541 C542 1.345 . S
N541 C544 1.336 . S
C542 N540 1.335 . S
C542 N541 1.345 . S
C542 H547 0.930 . S
C543 N540 1.390 . S
C543 C544 1.346 . S
C543 H548 0.930 . S
C544 N541 1.336 . S
C544 C543 1.346 . S
C544 H551 0.929 . S
C545 O535 1.282 . S
C545 O546 1.216 . S
O546 C545 1.216 . S
H547 C542 0.930 . S
H548 C543 0.930 . S
O549 Cu529 1.959 . S
O549 C536 1.251 . S
H550 C533 0.930 . S
H551 C544 0.929 . S
Cu552 N553 1.999 . S
Cu552 O558 1.974 . S
Cu552 N563 1.985 . S
Cu552 O572 1.959 . S
N553 Cu552 1.999 . S
N553 C555 1.263 . S
N553 C557 1.389 . S
N554 C555 1.358 . S
N554 C556 1.400 . S
C555 N553 1.263 . S
C555 N554 1.358 . S
C555 H561 0.930 . S
C556 N554 1.400 . S
C556 C557 1.351 . S
C556 H573 0.930 . S
C557 N553 1.389 . S
C557 C556 1.351 . S
C557 H562 0.930 . S
O558 Cu552 1.974 . S
O558 C568 1.282 . S
C559 O560 1.261 . S
C559 O572 1.251 . S
O560 C559 1.261 . S
H561 C555 0.930 . S
H562 C557 0.930 . S
N563 Cu552 1.985 . S
N563 C565 1.335 . S
N563 C566 1.390 . S
N564 C565 1.345 . S
N564 C567 1.336 . S
C565 N563 1.335 . S
C565 N564 1.345 . S
C565 H570 0.930 . S
C566 N563 1.390 . S
C566 C567 1.346 . S
C566 H571 0.930 . S
C567 N564 1.336 . S
C567 C566 1.346 . S
C567 H574 0.929 . S
C568 O558 1.282 . S
C568 O569 1.216 . S
O569 C568 1.216 . S
H570 C565 0.930 . S
H571 C566 0.930 . S
O572 Cu552 1.959 . S
O572 C559 1.251 . S
H573 C556 0.930 . S
H574 C567 0.929 . S
Cu575 N576 1.999 . S
Cu575 O581 1.974 . S
Cu575 N586 1.985 . S
Cu575 O595 1.959 . S
N576 Cu575 1.999 . S
N576 C578 1.263 . S
N576 C580 1.389 . S
N577 C578 1.358 . S
N577 C579 1.400 . S
C578 N576 1.263 . S
C578 N577 1.358 . S
C578 H584 0.930 . S
C579 N577 1.400 . S
C579 C580 1.351 . S
C579 H596 0.930 . S
C580 N576 1.389 . S
C580 C579 1.351 . S
C580 H585 0.930 . S
O581 Cu575 1.974 . S
O581 C591 1.282 . S
C582 O583 1.261 . S
C582 O595 1.251 . S
O583 C582 1.261 . S
H584 C578 0.930 . S
H585 C580 0.930 . S
N586 Cu575 1.985 . S
N586 C588 1.335 . S
N586 C589 1.390 . S
N587 C588 1.345 . S
N587 C590 1.336 . S
C588 N586 1.335 . S
C588 N587 1.345 . S
C588 H593 0.930 . S
C589 N586 1.390 . S
C589 C590 1.346 . S
C589 H594 0.930 . S
C590 N587 1.336 . S
C590 C589 1.346 . S
C590 H597 0.929 . S
C591 O581 1.282 . S
C591 O592 1.216 . S
O592 C591 1.216 . S
H593 C588 0.930 . S
H594 C589 0.930 . S
O595 Cu575 1.959 . S
O595 C582 1.251 . S
H596 C579 0.930 . S
H597 C590 0.929 . S
Cu598 N599 1.999 . S
Cu598 O604 1.974 . S
Cu598 N609 1.985 . S
Cu598 O618 1.959 . S
N599 Cu598 1.999 . S
N599 C601 1.263 . S
N599 C603 1.389 . S
N600 C601 1.358 . S
N600 C602 1.400 . S
C601 N599 1.263 . S
C601 N600 1.358 . S
C601 H607 0.930 . S
C602 N600 1.400 . S
C602 C603 1.351 . S
C602 H619 0.930 . S
C603 N599 1.389 . S
C603 C602 1.351 . S
C603 H608 0.930 . S
O604 Cu598 1.974 . S
O604 C614 1.282 . S
C605 O606 1.261 . S
C605 O618 1.251 . S
O606 C605 1.261 . S
H607 C601 0.930 . S
H608 C603 0.930 . S
N609 Cu598 1.985 . S
N609 C611 1.335 . S
N609 C612 1.390 . S
N610 C611 1.345 . S
N610 C613 1.336 . S
C611 N609 1.335 . S
C611 N610 1.345 . S
C611 H616 0.930 . S
C612 N609 1.390 . S
C612 C613 1.346 . S
C612 H617 0.930 . S
C613 N610 1.336 . S
C613 C612 1.346 . S
C613 H620 0.929 . S
C614 O604 1.282 . S
C614 O615 1.216 . S
O615 C614 1.216 . S
H616 C611 0.930 . S
H617 C612 0.930 . S
O618 Cu598 1.959 . S
O618 C605 1.251 . S
H619 C602 0.930 . S
H620 C613 0.929 . S
Cu621 N622 1.999 . S
Cu621 O627 1.974 . S
Cu621 N632 1.985 . S
Cu621 O641 1.959 . S
N622 Cu621 1.999 . S
N622 C624 1.263 . S
N622 C626 1.389 . S
N623 C624 1.358 . S
N623 C625 1.400 . S
C624 N622 1.263 . S
C624 N623 1.358 . S
C624 H630 0.930 . S
C625 N623 1.400 . S
C625 C626 1.351 . S
C625 H642 0.930 . S
C626 N622 1.389 . S
C626 C625 1.351 . S
C626 H631 0.930 . S
O627 Cu621 1.974 . S
O627 C637 1.282 . S
C628 O629 1.261 . S
C628 O641 1.251 . S
O629 C628 1.261 . S
H630 C624 0.930 . S
H631 C626 0.930 . S
N632 Cu621 1.985 . S
N632 C634 1.335 . S
N632 C635 1.390 . S
N633 C634 1.345 . S
N633 C636 1.336 . S
C634 N632 1.335 . S
C634 N633 1.345 . S
C634 H639 0.930 . S
C635 N632 1.390 . S
C635 C636 1.346 . S
C635 H640 0.930 . S
C636 N633 1.336 . S
C636 C635 1.346 . S
C636 H643 0.929 . S
C637 O627 1.282 . S
C637 O638 1.216 . S
O638 C637 1.216 . S
H639 C634 0.930 . S
H640 C635 0.930 . S
O641 Cu621 1.959 . S
O641 C628 1.251 . S
H642 C625 0.930 . S
H643 C636 0.929 . S
Cu644 N645 1.999 . S
Cu644 O650 1.974 . S
Cu644 N655 1.985 . S
Cu644 O664 1.959 . S
N645 Cu644 1.999 . S
N645 C647 1.263 . S
N645 C649 1.389 . S
N646 C647 1.358 . S
N646 C648 1.400 . S
C647 N645 1.263 . S
C647 N646 1.358 . S
C647 H653 0.930 . S
C648 N646 1.400 . S
C648 C649 1.351 . S
C648 H665 0.930 . S
C649 N645 1.389 . S
C649 C648 1.351 . S
C649 H654 0.930 . S
O650 Cu644 1.974 . S
O650 C660 1.282 . S
C651 O652 1.261 . S
C651 O664 1.251 . S
O652 C651 1.261 . S
H653 C647 0.930 . S
H654 C649 0.930 . S
N655 Cu644 1.985 . S
N655 C657 1.335 . S
N655 C658 1.390 . S
N656 C657 1.345 . S
N656 C659 1.336 . S
C657 N655 1.335 . S
C657 N656 1.345 . S
C657 H662 0.930 . S
C658 N655 1.390 . S
C658 C659 1.346 . S
C658 H663 0.930 . S
C659 N656 1.336 . S
C659 C658 1.346 . S
C659 H666 0.929 . S
C660 O650 1.282 . S
C660 O661 1.216 . S
O661 C660 1.216 . S
H662 C657 0.930 . S
H663 C658 0.930 . S
O664 Cu644 1.959 . S
O664 C651 1.251 . S
H665 C648 0.930 . S
H666 C659 0.929 . S
Cu667 N668 1.999 . S
Cu667 O673 1.974 . S
Cu667 N678 1.985 . S
Cu667 O687 1.959 . S
N668 Cu667 1.999 . S
N668 C670 1.263 . S
N668 C672 1.389 . S
N669 C670 1.358 . S
N669 C671 1.400 . S
C670 N668 1.263 . S
C670 N669 1.358 . S
C670 H676 0.930 . S
C671 N669 1.400 . S
C671 C672 1.351 . S
C671 H688 0.930 . S
C672 N668 1.389 . S
C672 C671 1.351 . S
C672 H677 0.930 . S
O673 Cu667 1.974 . S
O673 C683 1.282 . S
C674 O675 1.261 . S
C674 O687 1.251 . S
O675 C674 1.261 . S
H676 C670 0.930 . S
H677 C672 0.930 . S
N678 Cu667 1.985 . S
N678 C680 1.335 . S
N678 C681 1.390 . S
N679 C680 1.345 . S
N679 C682 1.336 . S
C680 N678 1.335 . S
C680 N679 1.345 . S
C680 H685 0.930 . S
C681 N678 1.390 . S
C681 C682 1.346 . S
C681 H686 0.930 . S
C682 N679 1.336 . S
C682 C681 1.346 . S
C682 H689 0.929 . S
C683 O673 1.282 . S
C683 O684 1.216 . S
O684 C683 1.216 . S
H685 C680 0.930 . S
H686 C681 0.930 . S
O687 Cu667 1.959 . S
O687 C674 1.251 . S
H688 C671 0.930 . S
H689 C682 0.929 . S
Cu690 N691 1.999 . S
Cu690 O696 1.974 . S
Cu690 N701 1.985 . S
Cu690 O710 1.959 . S
N691 Cu690 1.999 . S
N691 C693 1.263 . S
N691 C695 1.389 . S
N692 C693 1.358 . S
N692 C694 1.400 . S
C693 N691 1.263 . S
C693 N692 1.358 . S
C693 H699 0.930 . S
C694 N692 1.400 . S
C694 C695 1.351 . S
C694 H711 0.930 . S
C695 N691 1.389 . S
C695 C694 1.351 . S
C695 H700 0.930 . S
O696 Cu690 1.974 . S
O696 C706 1.282 . S
C697 O698 1.261 . S
C697 O710 1.251 . S
O698 C697 1.261 . S
H699 C693 0.930 . S
H700 C695 0.930 . S
N701 Cu690 1.985 . S
N701 C703 1.335 . S
N701 C704 1.390 . S
N702 C703 1.345 . S
N702 C705 1.336 . S
C703 N701 1.335 . S
C703 N702 1.345 . S
C703 H708 0.930 . S
C704 N701 1.390 . S
C704 C705 1.346 . S
C704 H709 0.930 . S
C705 N702 1.336 . S
C705 C704 1.346 . S
C705 H712 0.929 . S
C706 O696 1.282 . S
C706 O707 1.216 . S
O707 C706 1.216 . S
H708 C703 0.930 . S
H709 C704 0.930 . S
O710 Cu690 1.959 . S
O710 C697 1.251 . S
H711 C694 0.930 . S
H712 C705 0.929 . S
Cu713 N714 1.999 . S
Cu713 O719 1.974 . S
Cu713 N724 1.985 . S
Cu713 O733 1.959 . S
N714 Cu713 1.999 . S
N714 C716 1.263 . S
N714 C718 1.389 . S
N715 C716 1.358 . S
N715 C717 1.400 . S
C716 N714 1.263 . S
C716 N715 1.358 . S
C716 H722 0.930 . S
C717 N715 1.400 . S
C717 C718 1.351 . S
C717 H734 0.930 . S
C718 N714 1.389 . S
C718 C717 1.351 . S
C718 H723 0.930 . S
O719 Cu713 1.974 . S
O719 C729 1.282 . S
C720 O721 1.261 . S
C720 O733 1.251 . S
O721 C720 1.261 . S
H722 C716 0.930 . S
H723 C718 0.930 . S
N724 Cu713 1.985 . S
N724 C726 1.335 . S
N724 C727 1.390 . S
N725 C726 1.345 . S
N725 C728 1.336 . S
C726 N724 1.335 . S
C726 N725 1.345 . S
C726 H731 0.930 . S
C727 N724 1.390 . S
C727 C728 1.346 . S
C727 H732 0.930 . S
C728 N725 1.336 . S
C728 C727 1.346 . S
C728 H735 0.929 . S
C729 O719 1.282 . S
C729 O730 1.216 . S
O730 C729 1.216 . S
H731 C726 0.930 . S
H732 C727 0.930 . S
O733 Cu713 1.959 . S
O733 C720 1.251 . S
H734 C717 0.930 . S
H735 C728 0.929 . S
Cu736 N737 1.999 . S
Cu736 O742 1.974 . S
Cu736 N747 1.985 . S
Cu736 O756 1.959 . S
N737 Cu736 1.999 . S
N737 C739 1.263 . S
N737 C741 1.389 . S
N738 C739 1.358 . S
N738 C740 1.400 . S
C739 N737 1.263 . S
C739 N738 1.358 . S
C739 H745 0.930 . S
C740 N738 1.400 . S
C740 C741 1.351 . S
C740 H757 0.930 . S
C741 N737 1.389 . S
C741 C740 1.351 . S
C741 H746 0.930 . S
O742 Cu736 1.974 . S
O742 C752 1.282 . S
C743 O744 1.261 . S
C743 O756 1.251 . S
O744 C743 1.261 . S
H745 C739 0.930 . S
H746 C741 0.930 . S
N747 Cu736 1.985 . S
N747 C749 1.335 . S
N747 C750 1.390 . S
N748 C749 1.345 . S
N748 C751 1.336 . S
C749 N747 1.335 . S
C749 N748 1.345 . S
C749 H754 0.930 . S
C750 N747 1.390 . S
C750 C751 1.346 . S
C750 H755 0.930 . S
C751 N748 1.336 . S
C751 C750 1.346 . S
C751 H758 0.929 . S
C752 O742 1.282 . S
C752 O753 1.216 . S
O753 C752 1.216 . S
H754 C749 0.930 . S
H755 C750 0.930 . S
O756 Cu736 1.959 . S
O756 C743 1.251 . S
H757 C740 0.930 . S
H758 C751 0.929 . S
Cu759 N760 1.999 . S
Cu759 O765 1.974 . S
Cu759 N770 1.985 . S
Cu759 O779 1.959 . S
N760 Cu759 1.999 . S
N760 C762 1.263 . S
N760 C764 1.389 . S
N761 C762 1.358 . S
N761 C763 1.400 . S
C762 N760 1.263 . S
C762 N761 1.358 . S
C762 H768 0.930 . S
C763 N761 1.400 . S
C763 C764 1.351 . S
C763 H780 0.930 . S
C764 N760 1.389 . S
C764 C763 1.351 . S
C764 H769 0.930 . S
O765 Cu759 1.974 . S
O765 C775 1.282 . S
C766 O767 1.261 . S
C766 O779 1.251 . S
O767 C766 1.261 . S
H768 C762 0.930 . S
H769 C764 0.930 . S
N770 Cu759 1.985 . S
N770 C772 1.335 1_556 S
N770 C773 1.390 . S
N771 C772 1.345 . S
N771 C774 1.336 1_554 S
C772 N770 1.335 1_554 S
C772 N771 1.345 . S
C772 H777 0.930 . S
C773 N770 1.390 . S
C773 C774 1.346 . S
C773 H778 0.930 . S
C774 N771 1.336 1_556 S
C774 C773 1.346 . S
C774 H781 0.929 . S
C775 O765 1.282 . S
C775 O776 1.216 . S
O776 C775 1.216 . S
H777 C772 0.930 . S
H778 C773 0.930 . S
O779 Cu759 1.959 . S
O779 C766 1.251 . S
H780 C763 0.930 . S
H781 C774 0.929 . S
Cu782 N783 1.999 . S
Cu782 O788 1.974 . S
Cu782 N793 1.985 . S
Cu782 O802 1.959 . S
N783 Cu782 1.999 . S
N783 C785 1.263 . S
N783 C787 1.389 . S
N784 C785 1.358 . S
N784 C786 1.400 . S
C785 N783 1.263 . S
C785 N784 1.358 . S
C785 H791 0.930 . S
C786 N784 1.400 . S
C786 C787 1.351 . S
C786 H803 0.930 . S
C787 N783 1.389 . S
C787 C786 1.351 . S
C787 H792 0.930 . S
O788 Cu782 1.974 . S
O788 C798 1.282 . S
C789 O790 1.261 . S
C789 O802 1.251 . S
O790 C789 1.261 . S
H791 C785 0.930 . S
H792 C787 0.930 . S
N793 Cu782 1.985 . S
N793 C795 1.335 . S
N793 C796 1.390 . S
N794 C795 1.345 . S
N794 C797 1.336 . S
C795 N793 1.335 . S
C795 N794 1.345 . S
C795 H800 0.930 . S
C796 N793 1.390 . S
C796 C797 1.346 . S
C796 H801 0.930 . S
C797 N794 1.336 . S
C797 C796 1.346 . S
C797 H804 0.929 . S
C798 O788 1.282 . S
C798 O799 1.216 . S
O799 C798 1.216 . S
H800 C795 0.930 . S
H801 C796 0.930 . S
O802 Cu782 1.959 . S
O802 C789 1.251 . S
H803 C786 0.930 . S
H804 C797 0.929 . S
Cu805 N806 1.999 . S
Cu805 O811 1.974 . S
Cu805 N816 1.985 . S
Cu805 O825 1.959 . S
N806 Cu805 1.999 . S
N806 C808 1.263 . S
N806 C810 1.437 . S
N807 C808 1.358 . S
N807 C809 1.400 1_655 S
C808 N806 1.263 . S
C808 N807 1.358 . S
C808 H814 0.930 . S
C809 N807 1.400 1_455 S
C809 C810 1.338 1_455 S
C809 H826 0.930 . S
C810 N806 1.437 . S
C810 C809 1.338 1_655 S
C810 H815 0.902 1_655 S
O811 Cu805 1.974 . S
O811 C821 1.282 . S
C812 O813 1.261 . S
C812 O825 1.251 . S
O813 C812 1.261 . S
H814 C808 0.930 . S
H815 C810 0.902 1_455 S
N816 Cu805 1.985 . S
N816 C818 1.335 . S
N816 C819 1.390 . S
N817 C818 1.345 . S
N817 C820 1.336 . S
C818 N816 1.335 . S
C818 N817 1.345 . S
C818 H823 0.930 . S
C819 N816 1.390 . S
C819 C820 1.346 . S
C819 H824 0.930 . S
C820 N817 1.336 . S
C820 C819 1.346 . S
C820 H827 0.929 . S
C821 O811 1.282 . S
C821 O822 1.216 . S
O822 C821 1.216 . S
H823 C818 0.930 . S
H824 C819 0.930 . S
O825 Cu805 1.959 . S
O825 C812 1.251 . S
H826 C809 0.930 . S
H827 C820 0.929 . S
Cu828 N829 1.999 . S
Cu828 O834 1.974 . S
Cu828 N839 1.985 . S
Cu828 O848 1.959 . S
N829 Cu828 1.999 . S
N829 C831 1.263 . S
N829 C833 1.389 . S
N830 C831 1.358 . S
N830 C832 1.400 . S
C831 N829 1.263 . S
C831 N830 1.358 . S
C831 H837 0.930 . S
C832 N830 1.400 . S
C832 C833 1.351 . S
C832 H849 0.930 . S
C833 N829 1.389 . S
C833 C832 1.351 . S
C833 H838 0.930 . S
O834 Cu828 1.974 . S
O834 C844 1.282 . S
C835 O836 1.261 . S
C835 O848 1.251 . S
O836 C835 1.261 . S
H837 C831 0.930 . S
H838 C833 0.930 . S
N839 Cu828 1.985 . S
N839 C841 1.335 . S
N839 C842 1.390 . S
N840 C841 1.345 . S
N840 C843 1.336 . S
C841 N839 1.335 . S
C841 N840 1.345 . S
C841 H846 0.930 . S
C842 N839 1.390 . S
C842 C843 1.346 . S
C842 H847 0.930 . S
C843 N840 1.336 . S
C843 C842 1.346 . S
C843 H850 0.929 . S
C844 O834 1.282 . S
C844 O845 1.216 . S
O845 C844 1.216 . S
H846 C841 0.930 . S
H847 C842 0.930 . S
O848 Cu828 1.959 . S
O848 C835 1.251 . S
H849 C832 0.930 . S
H850 C843 0.929 . S
Cu851 N852 1.999 . S
Cu851 O857 1.974 . S
Cu851 N862 1.985 . S
Cu851 O871 1.959 . S
N852 Cu851 1.999 . S
N852 C854 1.263 . S
N852 C856 1.437 . S
N853 C854 1.358 . S
N853 C855 1.400 1_655 S
C854 N852 1.263 . S
C854 N853 1.358 . S
C854 H860 0.930 . S
C855 N853 1.400 1_455 S
C855 C856 1.338 1_455 S
C855 H872 0.930 . S
C856 N852 1.437 . S
C856 C855 1.338 1_655 S
C856 H861 0.902 1_655 S
O857 Cu851 1.974 . S
O857 C867 1.282 . S
C858 O859 1.261 . S
C858 O871 1.251 . S
O859 C858 1.261 . S
H860 C854 0.930 . S
H861 C856 0.902 1_455 S
N862 Cu851 1.985 . S
N862 C864 1.335 1_554 S
N862 C865 1.390 . S
N863 C864 1.345 . S
N863 C866 1.336 1_556 S
C864 N862 1.335 1_556 S
C864 N863 1.345 . S
C864 H869 0.930 . S
C865 N862 1.390 . S
C865 C866 1.346 . S
C865 H870 0.930 . S
C866 N863 1.336 1_554 S
C866 C865 1.346 . S
C866 H873 0.929 . S
C867 O857 1.282 . S
C867 O868 1.216 . S
O868 C867 1.216 . S
H869 C864 0.930 . S
H870 C865 0.930 . S
O871 Cu851 1.959 . S
O871 C858 1.251 . S
H872 C855 0.930 . S
H873 C866 0.929 . S
Cu874 N875 1.999 . S
Cu874 O880 1.974 . S
Cu874 N885 1.985 . S
Cu874 O894 1.959 . S
N875 Cu874 1.999 . S
N875 C877 1.263 . S
N875 C879 1.389 . S
N876 C877 1.358 . S
N876 C878 1.400 . S
C877 N875 1.263 . S
C877 N876 1.358 . S
C877 H883 0.930 . S
C878 N876 1.400 . S
C878 C879 1.351 . S
C878 H895 0.930 . S
C879 N875 1.389 . S
C879 C878 1.351 . S
C879 H884 0.930 . S
O880 Cu874 1.974 . S
O880 C890 1.282 . S
C881 O882 1.261 . S
C881 O894 1.251 . S
O882 C881 1.261 . S
H883 C877 0.930 . S
H884 C879 0.930 . S
N885 Cu874 1.985 . S
N885 C887 1.335 . S
N885 C888 1.390 . S
N886 C887 1.345 . S
N886 C889 1.336 . S
C887 N885 1.335 . S
C887 N886 1.345 . S
C887 H892 0.930 . S
C888 N885 1.390 . S
C888 C889 1.346 . S
C888 H893 0.930 . S
C889 N886 1.336 . S
C889 C888 1.346 . S
C889 H896 0.929 . S
C890 O880 1.282 . S
C890 O891 1.216 . S
O891 C890 1.216 . S
H892 C887 0.930 . S
H893 C888 0.930 . S
O894 Cu874 1.959 . S
O894 C881 1.251 . S
H895 C878 0.930 . S
H896 C889 0.929 . S
Cu897 N898 1.999 . S
Cu897 O903 1.974 . S
Cu897 N908 1.985 . S
Cu897 O917 1.959 . S
N898 Cu897 1.999 . S
N898 C900 1.263 . S
N898 C902 1.389 . S
N899 C900 1.358 . S
N899 C901 1.400 . S
C900 N898 1.263 . S
C900 N899 1.358 . S
C900 H906 0.930 . S
C901 N899 1.400 . S
C901 C902 1.351 . S
C901 H918 0.930 . S
C902 N898 1.389 . S
C902 C901 1.351 . S
C902 H907 0.930 . S
O903 Cu897 1.974 . S
O903 C913 1.282 . S
C904 O905 1.261 . S
C904 O917 1.251 . S
O905 C904 1.261 . S
H906 C900 0.930 . S
H907 C902 0.930 . S
N908 Cu897 1.985 . S
N908 C910 1.335 . S
N908 C911 1.390 . S
N909 C910 1.345 . S
N909 C912 1.336 . S
C910 N908 1.335 . S
C910 N909 1.345 . S
C910 H915 0.930 . S
C911 N908 1.390 . S
C911 C912 1.346 . S
C911 H916 0.930 . S
C912 N909 1.336 . S
C912 C911 1.346 . S
C912 H919 0.929 . S
C913 O903 1.282 . S
C913 O914 1.216 . S
O914 C913 1.216 . S
H915 C910 0.930 . S
H916 C911 0.930 . S
O917 Cu897 1.959 . S
O917 C904 1.251 . S
H918 C901 0.930 . S
H919 C912 0.929 . S
Cu920 N921 1.999 . S
Cu920 O926 1.974 . S
Cu920 N931 1.985 . S
Cu920 O940 1.959 . S
N921 Cu920 1.999 . S
N921 C923 1.263 . S
N921 C925 1.389 . S
N922 C923 1.358 . S
N922 C924 1.400 . S
C923 N921 1.263 . S
C923 N922 1.358 . S
C923 H929 0.930 . S
C924 N922 1.400 . S
C924 C925 1.351 . S
C924 H941 0.930 . S
C925 N921 1.389 . S
C925 C924 1.351 . S
C925 H930 0.930 . S
O926 Cu920 1.974 . S
O926 C936 1.282 . S
C927 O928 1.261 . S
C927 O940 1.251 . S
O928 C927 1.261 . S
H929 C923 0.930 . S
H930 C925 0.930 . S
N931 Cu920 1.985 . S
N931 C933 1.335 . S
N931 C934 1.390 . S
N932 C933 1.345 . S
N932 C935 1.336 . S
C933 N931 1.335 . S
C933 N932 1.345 . S
C933 H938 0.930 . S
C934 N931 1.390 . S
C934 C935 1.346 . S
C934 H939 0.930 . S
C935 N932 1.336 . S
C935 C934 1.346 . S
C935 H942 0.929 . S
C936 O926 1.282 . S
C936 O937 1.216 . S
O937 C936 1.216 . S
H938 C933 0.930 . S
H939 C934 0.930 . S
O940 Cu920 1.959 . S
O940 C927 1.251 . S
H941 C924 0.930 . S
H942 C935 0.929 . S
Cu943 N944 1.999 . S
Cu943 O949 1.974 . S
Cu943 N954 1.985 . S
Cu943 O963 1.959 . S
N944 Cu943 1.999 . S
N944 C946 1.263 . S
N944 C948 1.389 . S
N945 C946 1.358 . S
N945 C947 1.400 . S
C946 N944 1.263 . S
C946 N945 1.358 . S
C946 H952 0.930 . S
C947 N945 1.400 . S
C947 C948 1.351 . S
C947 H964 0.930 . S
C948 N944 1.389 . S
C948 C947 1.351 . S
C948 H953 0.930 . S
O949 Cu943 1.974 . S
O949 C959 1.282 . S
C950 O951 1.261 . S
C950 O963 1.251 . S
O951 C950 1.261 . S
H952 C946 0.930 . S
H953 C948 0.930 . S
N954 Cu943 1.985 . S
N954 C956 1.335 . S
N954 C957 1.390 . S
N955 C956 1.345 . S
N955 C958 1.336 . S
C956 N954 1.335 . S
C956 N955 1.345 . S
C956 H961 0.930 . S
C957 N954 1.390 . S
C957 C958 1.346 . S
C957 H962 0.930 . S
C958 N955 1.336 . S
C958 C957 1.346 . S
C958 H965 0.929 . S
C959 O949 1.282 . S
C959 O960 1.216 . S
O960 C959 1.216 . S
H961 C956 0.930 . S
H962 C957 0.930 . S
O963 Cu943 1.959 . S
O963 C950 1.251 . S
H964 C947 0.930 . S
H965 C958 0.929 . S
Cu966 N967 1.999 . S
Cu966 O972 1.974 . S
Cu966 N977 1.985 . S
Cu966 O986 1.959 . S
N967 Cu966 1.999 . S
N967 C969 1.263 . S
N967 C971 1.389 . S
N968 C969 1.358 . S
N968 C970 1.400 . S
C969 N967 1.263 . S
C969 N968 1.358 . S
C969 H975 0.939 . S
C970 N968 1.400 . S
C970 C971 1.351 . S
C970 H987 0.930 . S
C971 N967 1.389 . S
C971 C970 1.351 . S
C971 H976 0.930 . S
O972 Cu966 1.974 . S
O972 C982 1.282 1_565 S
C973 O974 1.261 . S
C973 O986 1.251 . S
O974 C973 1.261 . S
H975 C969 0.939 . S
H976 C971 0.930 . S
N977 Cu966 1.985 . S
N977 C979 1.335 . S
N977 C980 1.390 . S
N978 C979 1.345 . S
N978 C981 1.336 . S
C979 N977 1.335 . S
C979 N978 1.345 . S
C979 H984 0.930 . S
C980 N977 1.390 . S
C980 C981 1.346 . S
C980 H985 0.930 1_565 S
C981 N978 1.336 . S
C981 C980 1.346 . S
C981 H988 0.929 . S
C982 O972 1.282 1_545 S
C982 O983 1.216 . S
O983 C982 1.216 . S
H984 C979 0.930 . S
H985 C980 0.930 1_545 S
O986 Cu966 1.959 . S
O986 C973 1.251 . S
H987 C970 0.930 . S
H988 C981 0.929 . S
Cu989 N990 1.999 . S
Cu989 O995 1.974 . S
Cu989 N1000 1.985 . S
Cu989 O1009 1.959 . S
N990 Cu989 1.999 . S
N990 C992 1.263 . S
N990 C994 1.389 . S
N991 C992 1.358 . S
N991 C993 1.400 . S
C992 N990 1.263 . S
C992 N991 1.358 . S
C992 H998 0.930 . S
C993 N991 1.400 . S
C993 C994 1.351 . S
C993 H1010 0.930 . S
C994 N990 1.389 . S
C994 C993 1.351 . S
C994 H999 0.930 . S
O995 Cu989 1.974 . S
O995 C1005 1.282 . S
C996 O997 1.261 . S
C996 O1009 1.251 . S
O997 C996 1.261 . S
H998 C992 0.930 . S
H999 C994 0.930 . S
N1000 Cu989 1.985 . S
N1000 C1002 1.335 . S
N1000 C1003 1.390 . S
N1001 C1002 1.345 . S
N1001 C1004 1.336 . S
C1002 N1000 1.335 . S
C1002 N1001 1.345 . S
C1002 H1007 0.930 . S
C1003 N1000 1.390 . S
C1003 C1004 1.346 . S
C1003 H1008 0.930 . S
C1004 N1001 1.336 . S
C1004 C1003 1.346 . S
C1004 H1011 0.929 . S
C1005 O995 1.282 . S
C1005 O1006 1.216 . S
O1006 C1005 1.216 . S
H1007 C1002 0.930 . S
H1008 C1003 0.930 . S
O1009 Cu989 1.959 . S
O1009 C996 1.251 . S
H1010 C993 0.930 . S
H1011 C1004 0.929 . S
Cu1012 N1013 1.999 . S
Cu1012 O1018 1.974 . S
Cu1012 N1023 1.985 . S
Cu1012 O1032 1.959 . S
N1013 Cu1012 1.999 . S
N1013 C1015 1.263 . S
N1013 C1017 1.389 . S
N1014 C1015 1.358 . S
N1014 C1016 1.400 . S
C1015 N1013 1.263 . S
C1015 N1014 1.358 . S
C1015 H1021 0.930 . S
C1016 N1014 1.400 . S
C1016 C1017 1.351 . S
C1016 H1033 0.930 . S
C1017 N1013 1.389 . S
C1017 C1016 1.351 . S
C1017 H1022 0.930 . S
O1018 Cu1012 1.974 . S
O1018 C1028 1.282 . S
C1019 O1020 1.261 . S
C1019 O1032 1.251 . S
O1020 C1019 1.261 . S
H1021 C1015 0.930 . S
H1022 C1017 0.930 . S
N1023 Cu1012 1.985 . S
N1023 C1025 1.335 . S
N1023 C1026 1.390 . S
N1024 C1025 1.345 . S
N1024 C1027 1.336 . S
C1025 N1023 1.335 . S
C1025 N1024 1.345 . S
C1025 H1030 0.930 . S
C1026 N1023 1.390 . S
C1026 C1027 1.346 . S
C1026 H1031 0.930 . S
C1027 N1024 1.336 . S
C1027 C1026 1.346 . S
C1027 H1034 0.929 . S
C1028 O1018 1.282 . S
C1028 O1029 1.216 . S
O1029 C1028 1.216 . S
H1030 C1025 0.930 . S
H1031 C1026 0.930 . S
O1032 Cu1012 1.959 . S
O1032 C1019 1.251 . S
H1033 C1016 0.930 . S
H1034 C1027 0.929 . S
Cu1035 N1036 1.999 . S
Cu1035 O1041 1.974 . S
Cu1035 N1046 1.985 . S
Cu1035 O1055 1.959 . S
N1036 Cu1035 1.999 . S
N1036 C1038 1.263 . S
N1036 C1040 1.389 . S
N1037 C1038 1.358 . S
N1037 C1039 1.400 . S
C1038 N1036 1.263 . S
C1038 N1037 1.358 . S
C1038 H1044 0.930 . S
C1039 N1037 1.400 . S
C1039 C1040 1.351 . S
C1039 H1056 0.930 . S
C1040 N1036 1.389 . S
C1040 C1039 1.351 . S
C1040 H1045 0.930 . S
O1041 Cu1035 1.974 . S
O1041 C1051 1.282 . S
C1042 O1043 1.261 . S
C1042 O1055 1.251 . S
O1043 C1042 1.261 . S
H1044 C1038 0.930 . S
H1045 C1040 0.930 . S
N1046 Cu1035 1.985 . S
N1046 C1048 1.335 . S
N1046 C1049 1.390 . S
N1047 C1048 1.345 . S
N1047 C1050 1.336 . S
C1048 N1046 1.335 . S
C1048 N1047 1.345 . S
C1048 H1053 0.930 . S
C1049 N1046 1.390 . S
C1049 C1050 1.346 . S
C1049 H1054 0.930 . S
C1050 N1047 1.336 . S
C1050 C1049 1.346 . S
C1050 H1057 0.929 . S
C1051 O1041 1.282 . S
C1051 O1052 1.216 . S
O1052 C1051 1.216 . S
H1053 C1048 0.930 . S
H1054 C1049 0.930 . S
O1055 Cu1035 1.959 . S
O1055 C1042 1.251 . S
H1056 C1039 0.930 . S
H1057 C1050 0.929 . S
Cu1058 N1059 1.999 1_556 S
Cu1058 O1064 1.974 . S
Cu1058 N1069 1.985 . S
Cu1058 O1078 1.959 . S
N1059 Cu1058 1.999 1_554 S
N1059 C1061 1.263 . S
N1059 C1063 1.389 . S
N1060 C1061 1.358 . S
N1060 C1062 1.400 . S
C1061 N1059 1.263 . S
C1061 N1060 1.358 . S
C1061 H1067 0.916 1_545 S
C1062 N1060 1.400 . S
C1062 C1063 1.351 . S
C1062 H1079 0.930 . S
C1063 N1059 1.389 . S
C1063 C1062 1.351 . S
C1063 H1068 0.930 . S
O1064 Cu1058 1.974 . S
O1064 C1074 1.282 1_545 S
C1065 O1066 1.261 . S
C1065 O1078 1.251 . S
O1066 C1065 1.261 . S
H1067 C1061 0.916 1_565 S
H1068 C1063 0.930 . S
N1069 Cu1058 1.985 . S
N1069 C1071 1.335 . S
N1069 C1072 1.390 . S
N1070 C1071 1.345 . S
N1070 C1073 1.336 . S
C1071 N1069 1.335 . S
C1071 N1070 1.345 . S
C1071 H1076 0.930 . S
C1072 N1069 1.390 . S
C1072 C1073 1.346 . S
C1072 H1077 0.930 1_545 S
C1073 N1070 1.336 . S
C1073 C1072 1.346 . S
C1073 H1080 0.929 . S
C1074 O1064 1.282 1_565 S
C1074 O1075 1.216 . S
O1075 C1074 1.216 . S
H1076 C1071 0.930 . S
H1077 C1072 0.930 1_565 S
O1078 Cu1058 1.959 . S
O1078 C1065 1.251 . S
H1079 C1062 0.930 . S
H1080 C1073 0.929 . S
Cu1081 N1082 1.999 . S
Cu1081 O1087 1.974 . S
Cu1081 N1092 1.985 . S
Cu1081 O1101 1.959 . S
N1082 Cu1081 1.999 . S
N1082 C1084 1.263 . S
N1082 C1086 1.389 . S
N1083 C1084 1.358 . S
N1083 C1085 1.400 . S
C1084 N1082 1.263 . S
C1084 N1083 1.358 . S
C1084 H1090 0.939 . S
C1085 N1083 1.400 . S
C1085 C1086 1.351 . S
C1085 H1102 0.930 . S
C1086 N1082 1.389 . S
C1086 C1085 1.351 . S
C1086 H1091 0.930 . S
O1087 Cu1081 1.974 . S
O1087 C1097 1.282 1_565 S
C1088 O1089 1.261 . S
C1088 O1101 1.251 . S
O1089 C1088 1.261 . S
H1090 C1084 0.939 . S
H1091 C1086 0.930 . S
N1092 Cu1081 1.985 . S
N1092 C1094 1.335 . S
N1092 C1095 1.390 . S
N1093 C1094 1.345 . S
N1093 C1096 1.336 . S
C1094 N1092 1.335 . S
C1094 N1093 1.345 . S
C1094 H1099 0.930 . S
C1095 N1092 1.390 . S
C1095 C1096 1.346 . S
C1095 H1100 0.930 1_565 S
C1096 N1093 1.336 . S
C1096 C1095 1.346 . S
C1096 H1103 0.929 . S
C1097 O1087 1.282 1_545 S
C1097 O1098 1.216 . S
O1098 C1097 1.216 . S
H1099 C1094 0.930 . S
H1100 C1095 0.930 1_545 S
O1101 Cu1081 1.959 . S
O1101 C1088 1.251 . S
H1102 C1085 0.930 . S
H1103 C1096 0.929 . S
H1104 C1110 0.930 . S
H1105 C1114 0.930 . S
H1106 C1119 0.929 . S
H1107 C1117 0.929 . S
H1108 C1112 0.929 . S
H1109 C1118 0.929 . S
C1110 H1104 0.930 . S
C1110 C1111 1.367 . S
C1110 C1118 1.378 . S
C1111 C1110 1.367 . S
C1111 C1119 1.433 . S
C1112 H1108 0.929 . S
C1112 C1114 1.378 . S
C1112 C1116 1.350 . S
C1113 C1116 1.463 . S
C1113 C1118 1.350 . S
C1113 N1121 1.427 . S
C1114 H1105 0.930 . S
C1114 C1112 1.378 . S
C1114 C1115 1.367 . S
C1115 C1114 1.367 . S
C1115 C1117 1.433 . S
C1116 C1112 1.350 . S
C1116 C1113 1.463 . S
C1116 N1120 1.427 . S
C1117 H1107 0.929 . S
C1117 C1115 1.433 . S
C1117 N1120 1.384 . S
C1118 H1109 0.929 . S
C1118 C1110 1.378 . S
C1118 C1113 1.350 . S
C1119 H1106 0.929 . S
C1119 C1111 1.433 . S
C1119 N1121 1.384 . S
N1120 C1116 1.427 . S
N1120 C1117 1.384 . S
N1121 C1113 1.427 . S
N1121 C1119 1.384 . S
H1122 C1128 0.930 . S
H1123 C1132 0.930 . S
H1124 C1137 0.929 . S
H1125 C1135 0.929 . S
H1126 C1130 0.929 . S
H1127 C1136 0.929 . S
C1128 H1122 0.930 . S
C1128 C1129 1.367 1_545 S
C1128 C1136 1.378 . S
C1129 C1128 1.367 1_565 S
C1129 C1137 1.433 . S
C1130 H1126 0.929 . S
C1130 C1132 1.378 . S
C1130 C1134 1.350 1_565 S
C1131 C1134 1.463 1_565 S
C1131 C1136 1.350 1_565 S
C1131 N1139 1.427 . S
C1132 H1123 0.930 . S
C1132 C1130 1.378 . S
C1132 C1133 1.367 1_565 S
C1133 C1132 1.367 1_545 S
C1133 C1135 1.433 . S
C1134 C1130 1.350 1_545 S
C1134 C1131 1.463 1_545 S
C1134 N1138 1.427 . S
C1135 H1125 0.929 . S
C1135 C1133 1.433 . S
C1135 N1138 1.384 . S
C1136 H1127 0.929 . S
C1136 C1128 1.378 . S
C1136 C1131 1.350 1_545 S
C1137 H1124 0.929 . S
C1137 C1129 1.433 . S
C1137 N1139 1.384 . S
N1138 C1134 1.427 . S
N1138 C1135 1.384 . S
N1139 C1131 1.427 . S
N1139 C1137 1.384 . S
H1140 C1146 0.930 . S
H1141 C1150 0.930 . S
H1142 C1155 0.929 . S
H1143 C1153 0.929 . S
H1144 C1148 0.929 . S
H1145 C1154 0.929 . S
C1146 H1140 0.930 . S
C1146 C1147 1.367 . S
C1146 C1154 1.378 . S
C1147 C1146 1.367 . S
C1147 C1155 1.433 . S
C1148 H1144 0.929 . S
C1148 C1150 1.378 . S
C1148 C1152 1.350 . S
C1149 C1152 1.463 1_556 S
C1149 C1154 1.350 . S
C1149 N1157 1.427 . S
C1150 H1141 0.930 . S
C1150 C1148 1.378 . S
C1150 C1151 1.367 . S
C1151 C1150 1.367 . S
C1151 C1153 1.433 . S
C1152 C1148 1.350 . S
C1152 C1149 1.463 1_554 S
C1152 N1156 1.427 . S
C1153 H1143 0.929 . S
C1153 C1151 1.433 . S
C1153 N1156 1.384 . S
C1154 H1145 0.929 . S
C1154 C1146 1.378 . S
C1154 C1149 1.350 . S
C1155 H1142 0.929 . S
C1155 C1147 1.433 . S
C1155 N1157 1.384 . S
N1156 C1152 1.427 . S
N1156 C1153 1.384 . S
N1157 C1149 1.427 . S
N1157 C1155 1.384 . S
H1158 C1164 0.930 . S
H1159 C1168 0.930 . S
H1160 C1173 0.929 . S
H1161 C1171 0.929 . S
H1162 C1166 0.929 . S
H1163 C1172 0.929 . S
C1164 H1158 0.930 . S
C1164 C1165 1.367 1_545 S
C1164 C1172 1.378 . S
C1165 C1164 1.367 1_565 S
C1165 C1173 1.433 . S
C1166 H1162 0.929 . S
C1166 C1168 1.378 . S
C1166 C1170 1.350 1_565 S
C1167 C1170 1.463 1_565 S
C1167 C1172 1.350 1_565 S
C1167 N1175 1.427 . S
C1168 H1159 0.930 . S
C1168 C1166 1.378 . S
C1168 C1169 1.367 1_565 S
C1169 C1168 1.367 1_545 S
C1169 C1171 1.433 . S
C1170 C1166 1.350 1_545 S
C1170 C1167 1.463 1_545 S
C1170 N1174 1.427 . S
C1171 H1161 0.929 . S
C1171 C1169 1.433 . S
C1171 N1174 1.384 . S
C1172 H1163 0.929 . S
C1172 C1164 1.378 . S
C1172 C1167 1.350 1_545 S
C1173 H1160 0.929 . S
C1173 C1165 1.433 . S
C1173 N1175 1.384 . S
N1174 C1170 1.427 . S
N1174 C1171 1.384 . S
N1175 C1167 1.427 . S
N1175 C1173 1.384 . S
H1176 C1182 0.930 . S
H1177 C1186 0.930 . S
H1178 C1191 0.929 . S
H1179 C1189 0.929 . S
H1180 C1184 0.929 . S
H1181 C1190 0.929 . S
C1182 H1176 0.930 . S
C1182 C1183 1.367 . S
C1182 C1190 1.378 . S
C1183 C1182 1.367 . S
C1183 C1191 1.433 . S
C1184 H1180 0.929 . S
C1184 C1186 1.378 . S
C1184 C1188 1.350 . S
C1185 C1188 1.463 . S
C1185 C1190 1.350 . S
C1185 N1193 1.427 . S
C1186 H1177 0.930 . S
C1186 C1184 1.378 . S
C1186 C1187 1.367 . S
C1187 C1186 1.367 . S
C1187 C1189 1.433 . S
C1188 C1184 1.350 . S
C1188 C1185 1.463 . S
C1188 N1192 1.427 . S
C1189 H1179 0.929 . S
C1189 C1187 1.433 . S
C1189 N1192 1.384 . S
C1190 H1181 0.929 . S
C1190 C1182 1.378 . S
C1190 C1185 1.350 . S
C1191 H1178 0.929 . S
C1191 C1183 1.433 . S
C1191 N1193 1.384 . S
N1192 C1188 1.427 . S
N1192 C1189 1.384 . S
N1193 C1185 1.427 . S
N1193 C1191 1.384 . S
H1194 C1200 0.930 . S
H1195 C1204 0.930 . S
H1196 C1209 0.929 . S
H1197 C1207 0.929 . S
H1198 C1202 0.929 . S
H1199 C1208 0.929 . S
C1200 H1194 0.930 . S
C1200 C1201 1.367 . S
C1200 C1208 1.378 . S
C1201 C1200 1.367 . S
C1201 C1209 1.433 1_655 S
C1202 H1198 0.929 . S
C1202 C1204 1.378 . S
C1202 C1206 1.350 . S
C1203 C1206 1.463 1_655 S
C1203 C1208 1.350 . S
C1203 N1211 1.427 1_655 S
C1204 H1195 0.930 . S
C1204 C1202 1.378 . S
C1204 C1205 1.367 . S
C1205 C1204 1.367 . S
C1205 C1207 1.433 1_455 S
C1206 C1202 1.350 . S
C1206 C1203 1.463 1_455 S
C1206 N1210 1.427 1_455 S
C1207 H1197 0.929 . S
C1207 C1205 1.433 1_655 S
C1207 N1210 1.384 . S
C1208 H1199 0.929 . S
C1208 C1200 1.378 . S
C1208 C1203 1.350 . S
C1209 H1196 0.929 . S
C1209 C1201 1.433 1_455 S
C1209 N1211 1.384 . S
N1210 C1206 1.427 1_655 S
N1210 C1207 1.384 . S
N1211 C1203 1.427 1_455 S
N1211 C1209 1.384 . S
H1212 C1218 0.930 . S
H1213 C1222 0.930 . S
H1214 C1227 0.929 . S
H1215 C1225 0.929 . S
H1216 C1220 0.929 . S
H1217 C1226 0.929 . S
C1218 H1212 0.930 . S
C1218 C1219 1.367 . S
C1218 C1226 1.378 . S
C1219 C1218 1.367 . S
C1219 C1227 1.433 . S
C1220 H1216 0.929 . S
C1220 C1222 1.378 . S
C1220 C1224 1.350 . S
C1221 C1224 1.463 1_455 S
C1221 C1226 1.350 . S
C1221 N1229 1.427 . S
C1222 H1213 0.930 . S
C1222 C1220 1.378 . S
C1222 C1223 1.367 . S
C1223 C1222 1.367 . S
C1223 C1225 1.433 . S
C1224 C1220 1.350 . S
C1224 C1221 1.463 1_655 S
C1224 N1228 1.427 . S
C1225 H1215 0.929 . S
C1225 C1223 1.433 . S
C1225 N1228 1.384 . S
C1226 H1217 0.929 . S
C1226 C1218 1.378 . S
C1226 C1221 1.350 . S
C1227 H1214 0.929 . S
C1227 C1219 1.433 . S
C1227 N1229 1.384 . S
N1228 C1224 1.427 . S
N1228 C1225 1.384 . S
N1229 C1221 1.427 . S
N1229 C1227 1.384 . S
H1230 C1236 0.930 . S
H1231 C1240 0.930 . S
H1232 C1245 0.929 . S
H1233 C1243 0.929 . S
H1234 C1238 0.929 . S
H1235 C1244 0.929 . S
C1236 H1230 0.930 . S
C1236 C1237 1.367 . S
C1236 C1244 1.378 . S
C1237 C1236 1.367 . S
C1237 C1245 1.433 . S
C1238 H1234 0.929 . S
C1238 C1240 1.378 . S
C1238 C1242 1.350 . S
C1239 C1242 1.463 . S
C1239 C1244 1.350 . S
C1239 N1247 1.427 . S
C1240 H1231 0.930 . S
C1240 C1238 1.378 . S
C1240 C1241 1.367 . S
C1241 C1240 1.367 . S
C1241 C1243 1.433 . S
C1242 C1238 1.350 . S
C1242 C1239 1.463 . S
C1242 N1246 1.427 . S
C1243 H1233 0.929 . S
C1243 C1241 1.433 . S
C1243 N1246 1.384 . S
C1244 H1235 0.929 . S
C1244 C1236 1.378 . S
C1244 C1239 1.350 . S
C1245 H1232 0.929 . S
C1245 C1237 1.433 . S
C1245 N1247 1.384 . S
N1246 C1242 1.427 . S
N1246 C1243 1.384 . S
N1247 C1239 1.427 . S
N1247 C1245 1.384 . S
H1248 C1254 0.930 . S
H1249 C1258 0.930 . S
H1250 C1263 0.929 . S
H1251 C1261 0.929 . S
H1252 C1256 0.929 . S
H1253 C1262 0.929 . S
C1254 H1248 0.930 . S
C1254 C1255 1.367 . S
C1254 C1262 1.378 . S
C1255 C1254 1.367 . S
C1255 C1263 1.433 . S
C1256 H1252 0.929 . S
C1256 C1258 1.378 . S
C1256 C1260 1.350 . S
C1257 C1260 1.463 . S
C1257 C1262 1.350 . S
C1257 N1265 1.427 . S
C1258 H1249 0.930 . S
C1258 C1256 1.378 . S
C1258 C1259 1.367 . S
C1259 C1258 1.367 . S
C1259 C1261 1.433 . S
C1260 C1256 1.350 . S
C1260 C1257 1.463 . S
C1260 N1264 1.427 . S
C1261 H1251 0.929 . S
C1261 C1259 1.433 . S
C1261 N1264 1.384 . S
C1262 H1253 0.929 . S
C1262 C1254 1.378 . S
C1262 C1257 1.350 . S
C1263 H1250 0.929 . S
C1263 C1255 1.433 . S
C1263 N1265 1.384 . S
N1264 C1260 1.427 . S
N1264 C1261 1.384 . S
N1265 C1257 1.427 . S
N1265 C1263 1.384 . S
H1266 C1272 0.930 . S
H1267 C1276 0.930 . S
H1268 C1281 0.929 . S
H1269 C1279 0.929 . S
H1270 C1274 0.929 . S
H1271 C1280 0.929 . S
C1272 H1266 0.930 . S
C1272 C1273 1.367 . S
C1272 C1280 1.378 . S
C1273 C1272 1.367 . S
C1273 C1281 1.433 . S
C1274 H1270 0.929 . S
C1274 C1276 1.378 . S
C1274 C1278 1.350 . S
C1275 C1278 1.463 . S
C1275 C1280 1.350 . S
C1275 N1283 1.427 . S
C1276 H1267 0.930 . S
C1276 C1274 1.378 . S
C1276 C1277 1.367 . S
C1277 C1276 1.367 . S
C1277 C1279 1.433 . S
C1278 C1274 1.350 . S
C1278 C1275 1.463 . S
C1278 N1282 1.427 . S
C1279 H1269 0.929 . S
C1279 C1277 1.433 . S
C1279 N1282 1.384 . S
C1280 H1271 0.929 . S
C1280 C1272 1.378 . S
C1280 C1275 1.350 . S
C1281 H1268 0.929 . S
C1281 C1273 1.433 . S
C1281 N1283 1.384 . S
N1282 C1278 1.427 . S
N1282 C1279 1.384 . S
N1283 C1275 1.427 . S
N1283 C1281 1.384 . S
H1284 C1290 0.930 . S
H1285 C1294 0.930 . S
H1286 C1299 0.929 . S
H1287 C1297 0.929 . S
H1288 C1292 0.929 . S
H1289 C1298 0.929 . S
C1290 H1284 0.930 . S
C1290 C1291 1.367 . S
C1290 C1298 1.378 . S
C1291 C1290 1.367 . S
C1291 C1299 1.433 . S
C1292 H1288 0.929 . S
C1292 C1294 1.378 . S
C1292 C1296 1.350 . S
C1293 C1296 1.463 1_655 S
C1293 C1298 1.350 . S
C1293 N1301 1.427 . S
C1294 H1285 0.930 . S
C1294 C1292 1.378 . S
C1294 C1295 1.367 . S
C1295 C1294 1.367 . S
C1295 C1297 1.433 . S
C1296 C1292 1.350 . S
C1296 C1293 1.463 1_455 S
C1296 N1300 1.427 . S
C1297 H1287 0.929 . S
C1297 C1295 1.433 . S
C1297 N1300 1.384 . S
C1298 H1289 0.929 . S
C1298 C1290 1.378 . S
C1298 C1293 1.350 . S
C1299 H1286 0.929 . S
C1299 C1291 1.433 . S
C1299 N1301 1.384 . S
N1300 C1296 1.427 . S
N1300 C1297 1.384 . S
N1301 C1293 1.427 . S
N1301 C1299 1.384 . S
H1302 C1308 0.930 . S
H1303 C1312 0.930 . S
H1304 C1317 0.929 . S
H1305 C1315 0.929 . S
H1306 C1310 0.929 . S
H1307 C1316 0.929 . S
C1308 H1302 0.930 . S
C1308 C1309 1.367 . S
C1308 C1316 1.378 . S
C1309 C1308 1.367 . S
C1309 C1317 1.433 1_655 S
C1310 H1306 0.929 . S
C1310 C1312 1.378 . S
C1310 C1314 1.350 . S
C1311 C1314 1.463 1_655 S
C1311 C1316 1.350 . S
C1311 N1319 1.427 1_655 S
C1312 H1303 0.930 . S
C1312 C1310 1.378 . S
C1312 C1313 1.367 . S
C1313 C1312 1.367 . S
C1313 C1315 1.433 1_455 S
C1314 C1310 1.350 . S
C1314 C1311 1.463 1_455 S
C1314 N1318 1.427 1_455 S
C1315 H1305 0.929 . S
C1315 C1313 1.433 1_655 S
C1315 N1318 1.384 . S
C1316 H1307 0.929 . S
C1316 C1308 1.378 . S
C1316 C1311 1.350 . S
C1317 H1304 0.929 . S
C1317 C1309 1.433 1_455 S
C1317 N1319 1.384 . S
N1318 C1314 1.427 1_655 S
N1318 C1315 1.384 . S
N1319 C1311 1.427 1_455 S
N1319 C1317 1.384 . S
H1320 C1326 0.930 . S
H1321 C1330 0.930 . S
H1322 C1335 0.929 . S
H1323 C1333 0.929 . S
H1324 C1328 0.929 . S
H1325 C1334 0.929 . S
C1326 H1320 0.930 . S
C1326 C1327 1.367 . S
C1326 C1334 1.378 . S
C1327 C1326 1.367 . S
C1327 C1335 1.433 . S
C1328 H1324 0.929 . S
C1328 C1330 1.378 . S
C1328 C1332 1.350 . S
C1329 C1332 1.463 . S
C1329 C1334 1.350 . S
C1329 N1337 1.427 . S
C1330 H1321 0.930 . S
C1330 C1328 1.378 . S
C1330 C1331 1.367 . S
C1331 C1330 1.367 . S
C1331 C1333 1.433 . S
C1332 C1328 1.350 . S
C1332 C1329 1.463 . S
C1332 N1336 1.427 . S
C1333 H1323 0.929 . S
C1333 C1331 1.433 . S
C1333 N1336 1.384 . S
C1334 H1325 0.929 . S
C1334 C1326 1.378 . S
C1334 C1329 1.350 . S
C1335 H1322 0.929 . S
C1335 C1327 1.433 . S
C1335 N1337 1.384 . S
N1336 C1332 1.427 . S
N1336 C1333 1.384 . S
N1337 C1329 1.427 . S
N1337 C1335 1.384 . S
H1338 C1344 0.930 . S
H1339 C1348 0.930 . S
H1340 C1353 0.929 . S
H1341 C1351 0.929 . S
H1342 C1346 0.929 . S
H1343 C1352 0.929 . S
C1344 H1338 0.930 . S
C1344 C1345 1.367 . S
C1344 C1352 1.378 . S
C1345 C1344 1.367 . S
C1345 C1353 1.433 . S
C1346 H1342 0.929 . S
C1346 C1348 1.378 . S
C1346 C1350 1.350 . S
C1347 C1350 1.463 1_545 S
C1347 C1352 1.350 . S
C1347 N1355 1.427 . S
C1348 H1339 0.930 . S
C1348 C1346 1.378 . S
C1348 C1349 1.367 . S
C1349 C1348 1.367 . S
C1349 C1351 1.433 . S
C1350 C1346 1.350 . S
C1350 C1347 1.463 1_565 S
C1350 N1354 1.427 . S
C1351 H1341 0.929 . S
C1351 C1349 1.433 . S
C1351 N1354 1.384 . S
C1352 H1343 0.929 . S
C1352 C1344 1.378 . S
C1352 C1347 1.350 . S
C1353 H1340 0.929 . S
C1353 C1345 1.433 . S
C1353 N1355 1.384 . S
N1354 C1350 1.427 . S
N1354 C1351 1.384 . S
N1355 C1347 1.427 . S
N1355 C1353 1.384 . S
H1356 C1362 0.930 . S
H1357 C1366 0.930 . S
H1358 C1371 0.929 . S
H1359 C1369 0.929 . S
H1360 C1364 0.929 . S
H1361 C1370 0.929 . S
C1362 H1356 0.930 . S
C1362 C1363 1.367 . S
C1362 C1370 1.378 . S
C1363 C1362 1.367 . S
C1363 C1371 1.433 1_554 S
C1364 H1360 0.929 . S
C1364 C1366 1.378 . S
C1364 C1368 1.350 . S
C1365 C1368 1.463 1_554 S
C1365 C1370 1.350 . S
C1365 N1373 1.427 1_554 S
C1366 H1357 0.930 . S
C1366 C1364 1.378 . S
C1366 C1367 1.367 . S
C1367 C1366 1.367 . S
C1367 C1369 1.433 1_556 S
C1368 C1364 1.350 . S
C1368 C1365 1.463 1_556 S
C1368 N1372 1.427 1_556 S
C1369 H1359 0.929 . S
C1369 C1367 1.433 1_554 S
C1369 N1372 1.384 . S
C1370 H1361 0.929 . S
C1370 C1362 1.378 . S
C1370 C1365 1.350 . S
C1371 H1358 0.929 . S
C1371 C1363 1.433 1_556 S
C1371 N1373 1.384 . S
N1372 C1368 1.427 1_554 S
N1372 C1369 1.384 . S
N1373 C1365 1.427 1_556 S
N1373 C1371 1.384 . S
H1374 C1380 0.930 . S
H1375 C1384 0.930 . S
H1376 C1389 0.929 . S
H1377 C1387 0.929 . S
H1378 C1382 0.929 . S
H1379 C1388 0.929 . S
C1380 H1374 0.930 . S
C1380 C1381 1.367 . S
C1380 C1388 1.378 . S
C1381 C1380 1.367 . S
C1381 C1389 1.433 . S
C1382 H1378 0.929 . S
C1382 C1384 1.378 . S
C1382 C1386 1.350 . S
C1383 C1386 1.463 1_545 S
C1383 C1388 1.350 . S
C1383 N1391 1.427 . S
C1384 H1375 0.930 . S
C1384 C1382 1.378 . S
C1384 C1385 1.367 . S
C1385 C1384 1.367 . S
C1385 C1387 1.433 . S
C1386 C1382 1.350 . S
C1386 C1383 1.463 1_565 S
C1386 N1390 1.427 . S
C1387 H1377 0.929 . S
C1387 C1385 1.433 . S
C1387 N1390 1.384 . S
C1388 H1379 0.929 . S
C1388 C1380 1.378 . S
C1388 C1383 1.350 . S
C1389 H1376 0.929 . S
C1389 C1381 1.433 . S
C1389 N1391 1.384 . S
N1390 C1386 1.427 . S
N1390 C1387 1.384 . S
N1391 C1383 1.427 . S
N1391 C1389 1.384 . S
H1392 C1398 0.930 . S
H1393 C1402 0.960 . S
H1394 C1407 0.940 1_554 S
H1395 C1405 0.926 1_556 S
H1396 C1400 0.959 . S
H1397 C1406 0.929 . S
C1398 H1392 0.930 . S
C1398 C1399 1.367 . S
C1398 C1406 1.378 . S
C1399 C1398 1.367 . S
C1399 C1407 1.441 . S
C1400 H1396 0.959 . S
C1400 C1402 1.378 . S
C1400 C1404 1.360 . S
C1401 C1404 1.457 1_556 S
C1401 C1406 1.360 . S
C1401 N1409 1.422 1_556 S
C1402 H1393 0.960 . S
C1402 C1400 1.378 . S
C1402 C1403 1.367 . S
C1403 C1402 1.367 . S
C1403 C1405 1.441 . S
C1404 C1400 1.360 . S
C1404 C1401 1.457 1_554 S
C1404 N1408 1.422 1_554 S
C1405 H1395 0.926 1_554 S
C1405 C1403 1.441 . S
C1405 N1408 1.379 1_554 S
C1406 H1397 0.929 . S
C1406 C1398 1.378 . S
C1406 C1401 1.360 . S
C1407 H1394 0.940 1_556 S
C1407 C1399 1.441 . S
C1407 N1409 1.379 1_556 S
N1408 C1404 1.422 1_556 S
N1408 C1405 1.379 1_556 S
N1409 C1401 1.422 1_554 S
N1409 C1407 1.379 1_554 S
H1410 C1416 0.930 . S
H1411 C1420 0.930 . S
H1412 C1425 0.929 . S
H1413 C1423 0.929 . S
H1414 C1418 0.929 . S
H1415 C1424 0.929 . S
C1416 H1410 0.930 . S
C1416 C1417 1.367 . S
C1416 C1424 1.378 . S
C1417 C1416 1.367 . S
C1417 C1425 1.433 . S
C1418 H1414 0.929 . S
C1418 C1420 1.378 . S
C1418 C1422 1.350 . S
C1419 C1422 1.463 . S
C1419 C1424 1.350 . S
C1419 N1427 1.427 . S
C1420 H1411 0.930 . S
C1420 C1418 1.378 . S
C1420 C1421 1.367 . S
C1421 C1420 1.367 . S
C1421 C1423 1.433 . S
C1422 C1418 1.350 . S
C1422 C1419 1.463 . S
C1422 N1426 1.427 . S
C1423 H1413 0.929 . S
C1423 C1421 1.433 . S
C1423 N1426 1.384 . S
C1424 H1415 0.929 . S
C1424 C1416 1.378 . S
C1424 C1419 1.350 . S
C1425 H1412 0.929 . S
C1425 C1417 1.433 . S
C1425 N1427 1.384 . S
N1426 C1422 1.427 . S
N1426 C1423 1.384 . S
N1427 C1419 1.427 . S
N1427 C1425 1.384 . S
H1428 C1434 0.930 . S
H1429 C1438 0.930 . S
H1430 C1443 0.929 . S
H1431 C1441 0.929 . S
H1432 C1436 0.929 . S
H1433 C1442 0.929 . S
C1434 H1428 0.930 . S
C1434 C1435 1.367 . S
C1434 C1442 1.378 . S
C1435 C1434 1.367 . S
C1435 C1443 1.433 . S
C1436 H1432 0.929 . S
C1436 C1438 1.378 . S
C1436 C1440 1.350 . S
C1437 C1440 1.463 . S
C1437 C1442 1.350 . S
C1437 N1445 1.427 . S
C1438 H1429 0.930 . S
C1438 C1436 1.378 . S
C1438 C1439 1.367 . S
C1439 C1438 1.367 . S
C1439 C1441 1.433 . S
C1440 C1436 1.350 . S
C1440 C1437 1.463 . S
C1440 N1444 1.427 . S
C1441 H1431 0.929 . S
C1441 C1439 1.433 . S
C1441 N1444 1.384 . S
C1442 H1433 0.929 . S
C1442 C1434 1.378 . S
C1442 C1437 1.350 . S
C1443 H1430 0.929 . S
C1443 C1435 1.433 . S
C1443 N1445 1.384 . S
N1444 C1440 1.427 . S
N1444 C1441 1.384 . S
N1445 C1437 1.427 . S
N1445 C1443 1.384 . S
H1446 C1452 0.930 . S
H1447 C1456 0.930 . S
H1448 C1461 0.929 . S
H1449 C1459 0.929 . S
H1450 C1454 0.929 . S
H1451 C1460 0.929 . S
C1452 H1446 0.930 . S
C1452 C1453 1.367 . S
C1452 C1460 1.378 . S
C1453 C1452 1.367 . S
C1453 C1461 1.433 . S
C1454 H1450 0.929 . S
C1454 C1456 1.378 . S
C1454 C1458 1.350 . S
C1455 C1458 1.463 1_554 S
C1455 C1460 1.350 . S
C1455 N1463 1.427 . S
C1456 H1447 0.930 . S
C1456 C1454 1.378 . S
C1456 C1457 1.367 . S
C1457 C1456 1.367 . S
C1457 C1459 1.433 . S
C1458 C1454 1.350 . S
C1458 C1455 1.463 1_556 S
C1458 N1462 1.427 . S
C1459 H1449 0.929 . S
C1459 C1457 1.433 . S
C1459 N1462 1.384 . S
C1460 H1451 0.929 . S
C1460 C1452 1.378 . S
C1460 C1455 1.350 . S
C1461 H1448 0.929 . S
C1461 C1453 1.433 . S
C1461 N1463 1.384 . S
N1462 C1458 1.427 . S
N1462 C1459 1.384 . S
N1463 C1455 1.427 . S
N1463 C1461 1.384 . S
H1464 C1470 0.930 . S
H1465 C1474 0.930 . S
H1466 C1479 0.929 . S
H1467 C1477 0.929 . S
H1468 C1472 0.929 . S
H1469 C1478 0.929 . S
C1470 H1464 0.930 . S
C1470 C1471 1.367 . S
C1470 C1478 1.378 . S
C1471 C1470 1.367 . S
C1471 C1479 1.433 . S
C1472 H1468 0.929 . S
C1472 C1474 1.378 . S
C1472 C1476 1.350 . S
C1473 C1476 1.463 . S
C1473 C1478 1.350 . S
C1473 N1481 1.427 . S
C1474 H1465 0.930 . S
C1474 C1472 1.378 . S
C1474 C1475 1.367 . S
C1475 C1474 1.367 . S
C1475 C1477 1.433 . S
C1476 C1472 1.350 . S
C1476 C1473 1.463 . S
C1476 N1480 1.427 . S
C1477 H1467 0.929 . S
C1477 C1475 1.433 . S
C1477 N1480 1.384 . S
C1478 H1469 0.929 . S
C1478 C1470 1.378 . S
C1478 C1473 1.350 . S
C1479 H1466 0.929 . S
C1479 C1471 1.433 . S
C1479 N1481 1.384 . S
N1480 C1476 1.427 . S
N1480 C1477 1.384 . S
N1481 C1473 1.427 . S
N1481 C1479 1.384 . S
H1482 C1488 0.930 . S
H1483 C1492 0.930 . S
H1484 C1497 0.929 . S
H1485 C1495 0.929 . S
H1486 C1490 0.929 . S
H1487 C1496 0.929 . S
C1488 H1482 0.930 . S
C1488 C1489 1.367 . S
C1488 C1496 1.378 . S
C1489 C1488 1.367 . S
C1489 C1497 1.433 . S
C1490 H1486 0.929 . S
C1490 C1492 1.378 . S
C1490 C1494 1.350 . S
C1491 C1494 1.463 . S
C1491 C1496 1.350 . S
C1491 N1499 1.427 . S
C1492 H1483 0.930 . S
C1492 C1490 1.378 . S
C1492 C1493 1.367 . S
C1493 C1492 1.367 . S
C1493 C1495 1.433 . S
C1494 C1490 1.350 . S
C1494 C1491 1.463 . S
C1494 N1498 1.427 . S
C1495 H1485 0.929 . S
C1495 C1493 1.433 . S
C1495 N1498 1.384 . S
C1496 H1487 0.929 . S
C1496 C1488 1.378 . S
C1496 C1491 1.350 . S
C1497 H1484 0.929 . S
C1497 C1489 1.433 . S
C1497 N1499 1.384 . S
N1498 C1494 1.427 . S
N1498 C1495 1.384 . S
N1499 C1491 1.427 . S
N1499 C1497 1.384 . S
H1500 C1506 0.930 . S
H1501 C1510 0.930 . S
H1502 C1515 0.929 . S
H1503 C1513 0.929 . S
H1504 C1508 0.929 . S
H1505 C1514 0.929 . S
C1506 H1500 0.930 . S
C1506 C1507 1.367 . S
C1506 C1514 1.378 . S
C1507 C1506 1.367 . S
C1507 C1515 1.433 . S
C1508 H1504 0.929 . S
C1508 C1510 1.378 . S
C1508 C1512 1.350 . S
C1509 C1512 1.463 . S
C1509 C1514 1.350 . S
C1509 N1517 1.427 . S
C1510 H1501 0.930 . S
C1510 C1508 1.378 . S
C1510 C1511 1.367 . S
C1511 C1510 1.367 . S
C1511 C1513 1.433 . S
C1512 C1508 1.350 . S
C1512 C1509 1.463 . S
C1512 N1516 1.427 . S
C1513 H1503 0.929 . S
C1513 C1511 1.433 . S
C1513 N1516 1.384 . S
C1514 H1505 0.929 . S
C1514 C1506 1.378 . S
C1514 C1509 1.350 . S
C1515 H1502 0.929 . S
C1515 C1507 1.433 . S
C1515 N1517 1.384 . S
N1516 C1512 1.427 . S
N1516 C1513 1.384 . S
N1517 C1509 1.427 . S
N1517 C1515 1.384 . S
H1518 C1524 0.930 . S
H1519 C1528 0.930 . S
H1520 C1533 0.929 . S
H1521 C1531 0.929 . S
H1522 C1526 0.929 . S
H1523 C1532 0.929 . S
C1524 H1518 0.930 . S
C1524 C1525 1.367 . S
C1524 C1532 1.378 . S
C1525 C1524 1.367 . S
C1525 C1533 1.433 . S
C1526 H1522 0.929 . S
C1526 C1528 1.378 . S
C1526 C1530 1.350 . S
C1527 C1530 1.463 . S
C1527 C1532 1.350 . S
C1527 N1535 1.427 . S
C1528 H1519 0.930 . S
C1528 C1526 1.378 . S
C1528 C1529 1.367 . S
C1529 C1528 1.367 . S
C1529 C1531 1.433 . S
C1530 C1526 1.350 . S
C1530 C1527 1.463 . S
C1530 N1534 1.427 . S
C1531 H1521 0.929 . S
C1531 C1529 1.433 . S
C1531 N1534 1.384 . S
C1532 H1523 0.929 . S
C1532 C1524 1.378 . S
C1532 C1527 1.350 . S
C1533 H1520 0.929 . S
C1533 C1525 1.433 . S
C1533 N1535 1.384 . S
N1534 C1530 1.427 . S
N1534 C1531 1.384 . S
N1535 C1527 1.427 . S
N1535 C1533 1.384 . S
H1536 C1542 0.930 . S
H1537 C1546 0.930 . S
H1538 C1551 0.929 . S
H1539 C1549 0.929 . S
H1540 C1544 0.929 . S
H1541 C1550 0.929 . S
C1542 H1536 0.930 . S
C1542 C1543 1.367 . S
C1542 C1550 1.378 . S
C1543 C1542 1.367 . S
C1543 C1551 1.433 . S
C1544 H1540 0.929 . S
C1544 C1546 1.378 . S
C1544 C1548 1.350 . S
C1545 C1548 1.463 . S
C1545 C1550 1.350 . S
C1545 N1553 1.427 . S
C1546 H1537 0.930 . S
C1546 C1544 1.378 . S
C1546 C1547 1.367 . S
C1547 C1546 1.367 . S
C1547 C1549 1.433 . S
C1548 C1544 1.350 . S
C1548 C1545 1.463 . S
C1548 N1552 1.427 . S
C1549 H1539 0.929 . S
C1549 C1547 1.433 . S
C1549 N1552 1.384 . S
C1550 H1541 0.929 . S
C1550 C1542 1.378 . S
C1550 C1545 1.350 . S
C1551 H1538 0.929 . S
C1551 C1543 1.433 . S
C1551 N1553 1.384 . S
N1552 C1548 1.427 . S
N1552 C1549 1.384 . S
N1553 C1545 1.427 . S
N1553 C1551 1.384 . S
H1554 C1560 0.930 . S
H1555 C1564 0.930 1_545 S
H1556 C1569 0.929 . S
H1557 C1567 0.929 . S
H1558 C1562 0.929 1_545 S
H1559 C1568 0.929 . S
C1560 H1554 0.930 . S
C1560 C1561 1.367 1_655 S
C1560 C1568 1.378 . S
C1561 C1560 1.367 1_455 S
C1561 C1569 1.433 . S
C1562 H1558 0.929 1_565 S
C1562 C1564 1.378 . S
C1562 C1566 1.350 . S
C1563 C1566 1.463 . S
C1563 C1568 1.350 . S
C1563 N1571 1.427 . S
C1564 H1555 0.930 1_565 S
C1564 C1562 1.378 . S
C1564 C1565 1.367 . S
C1565 C1564 1.367 . S
C1565 C1567 1.433 . S
C1566 C1562 1.350 . S
C1566 C1563 1.463 . S
C1566 N1570 1.427 . S
C1567 H1557 0.929 . S
C1567 C1565 1.433 . S
C1567 N1570 1.384 . S
C1568 H1559 0.929 . S
C1568 C1560 1.378 . S
C1568 C1563 1.350 . S
C1569 H1556 0.929 . S
C1569 C1561 1.433 . S
C1569 N1571 1.384 1_455 S
N1570 C1566 1.427 . S
N1570 C1567 1.384 . S
N1571 C1563 1.427 . S
N1571 C1569 1.384 1_655 S
H1572 C1578 0.930 . S
H1573 C1582 0.930 . S
H1574 C1587 0.929 . S
H1575 C1585 0.929 . S
H1576 C1580 0.929 . S
H1577 C1586 0.929 . S
C1578 H1572 0.930 . S
C1578 C1579 1.367 . S
C1578 C1586 1.378 . S
C1579 C1578 1.367 . S
C1579 C1587 1.433 . S
C1580 H1576 0.929 . S
C1580 C1582 1.378 . S
C1580 C1584 1.350 . S
C1581 C1584 1.463 . S
C1581 C1586 1.350 . S
C1581 N1589 1.427 . S
C1582 H1573 0.930 . S
C1582 C1580 1.378 . S
C1582 C1583 1.367 . S
C1583 C1582 1.367 . S
C1583 C1585 1.433 . S
C1584 C1580 1.350 . S
C1584 C1581 1.463 . S
C1584 N1588 1.427 . S
C1585 H1575 0.929 . S
C1585 C1583 1.433 . S
C1585 N1588 1.384 . S
C1586 H1577 0.929 . S
C1586 C1578 1.378 . S
C1586 C1581 1.350 . S
C1587 H1574 0.929 . S
C1587 C1579 1.433 . S
C1587 N1589 1.384 . S
N1588 C1584 1.427 . S
N1588 C1585 1.384 . S
N1589 C1581 1.427 . S
N1589 C1587 1.384 . S
H1590 C1596 0.930 . S
H1591 C1600 0.930 . S
H1592 C1605 0.929 1_565 S
H1593 C1603 0.929 . S
H1594 C1598 0.929 . S
H1595 C1604 0.929 . S
C1596 H1590 0.930 . S
C1596 C1597 1.367 . S
C1596 C1604 1.378 . S
C1597 C1596 1.367 . S
C1597 C1605 1.433 . S
C1598 H1594 0.929 . S
C1598 C1600 1.378 . S
C1598 C1602 1.350 . S
C1599 C1602 1.463 . S
C1599 C1604 1.350 . S
C1599 N1607 1.427 . S
C1600 H1591 0.930 . S
C1600 C1598 1.378 . S
C1600 C1601 1.367 . S
C1601 C1600 1.367 . S
C1601 C1603 1.433 . S
C1602 C1598 1.350 . S
C1602 C1599 1.463 . S
C1602 N1606 1.427 . S
C1603 H1593 0.929 . S
C1603 C1601 1.433 . S
C1603 N1606 1.384 . S
C1604 H1595 0.929 . S
C1604 C1596 1.378 . S
C1604 C1599 1.350 . S
C1605 H1592 0.929 1_545 S
C1605 C1597 1.433 . S
C1605 N1607 1.384 . S
N1606 C1602 1.427 . S
N1606 C1603 1.384 . S
N1607 C1599 1.427 . S
N1607 C1605 1.384 . S
H1608 C1614 0.930 . S
H1609 C1618 0.930 . S
H1610 C1623 0.929 . S
H1611 C1621 0.929 . S
H1612 C1616 0.929 . S
H1613 C1622 0.929 . S
C1614 H1608 0.930 . S
C1614 C1615 1.367 . S
C1614 C1622 1.378 . S
C1615 C1614 1.367 . S
C1615 C1623 1.433 . S
C1616 H1612 0.929 . S
C1616 C1618 1.378 . S
C1616 C1620 1.350 . S
C1617 C1620 1.463 . S
C1617 C1622 1.350 . S
C1617 N1625 1.427 . S
C1618 H1609 0.930 . S
C1618 C1616 1.378 . S
C1618 C1619 1.367 . S
C1619 C1618 1.367 . S
C1619 C1621 1.433 . S
C1620 C1616 1.350 . S
C1620 C1617 1.463 . S
C1620 N1624 1.427 . S
C1621 H1611 0.929 . S
C1621 C1619 1.433 . S
C1621 N1624 1.384 . S
C1622 H1613 0.929 . S
C1622 C1614 1.378 . S
C1622 C1617 1.350 . S
C1623 H1610 0.929 . S
C1623 C1615 1.433 . S
C1623 N1625 1.384 . S
N1624 C1620 1.427 . S
N1624 C1621 1.384 . S
N1625 C1617 1.427 . S
N1625 C1623 1.384 . S
H1626 C1632 0.930 . S
H1627 C1636 0.930 . S
H1628 C1641 0.929 . S
H1629 C1639 0.929 . S
H1630 C1634 0.929 . S
H1631 C1640 0.929 1_545 S
C1632 H1626 0.930 . S
C1632 C1633 1.367 1_545 S
C1632 C1640 1.378 1_545 S
C1633 C1632 1.367 1_565 S
C1633 C1641 1.433 . S
C1634 H1630 0.929 . S
C1634 C1636 1.378 . S
C1634 C1638 1.350 . S
C1635 C1638 1.463 . S
C1635 C1640 1.350 . S
C1635 N1643 1.427 . S
C1636 H1627 0.930 . S
C1636 C1634 1.378 . S
C1636 C1637 1.367 . S
C1637 C1636 1.367 . S
C1637 C1639 1.433 . S
C1638 C1634 1.350 . S
C1638 C1635 1.463 . S
C1638 N1642 1.427 . S
C1639 H1629 0.929 . S
C1639 C1637 1.433 . S
C1639 N1642 1.384 . S
C1640 H1631 0.929 1_565 S
C1640 C1632 1.378 1_565 S
C1640 C1635 1.350 . S
C1641 H1628 0.929 . S
C1641 C1633 1.433 . S
C1641 N1643 1.384 . S
N1642 C1638 1.427 . S
N1642 C1639 1.384 . S
N1643 C1635 1.427 . S
N1643 C1641 1.384 . S
H1644 C1650 0.930 . S
H1645 C1654 0.930 . S
H1646 C1659 0.929 . S
H1647 C1657 0.929 . S
H1648 C1652 0.929 . S
H1649 C1658 0.929 . S
C1650 H1644 0.930 . S
C1650 C1651 1.367 . S
C1650 C1658 1.378 . S
C1651 C1650 1.367 . S
C1651 C1659 1.433 . S
C1652 H1648 0.929 . S
C1652 C1654 1.378 . S
C1652 C1656 1.350 . S
C1653 C1656 1.463 . S
C1653 C1658 1.350 . S
C1653 N1661 1.427 . S
C1654 H1645 0.930 . S
C1654 C1652 1.378 . S
C1654 C1655 1.367 . S
C1655 C1654 1.367 . S
C1655 C1657 1.433 . S
C1656 C1652 1.350 . S
C1656 C1653 1.463 . S
C1656 N1660 1.427 . S
C1657 H1647 0.929 . S
C1657 C1655 1.433 . S
C1657 N1660 1.384 . S
C1658 H1649 0.929 . S
C1658 C1650 1.378 . S
C1658 C1653 1.350 . S
C1659 H1646 0.929 . S
C1659 C1651 1.433 . S
C1659 N1661 1.384 . S
N1660 C1656 1.427 . S
N1660 C1657 1.384 . S
N1661 C1653 1.427 . S
N1661 C1659 1.384 . S
H1662 C1668 0.930 . S
H1663 C1672 0.930 . S
H1664 C1677 0.929 1_565 S
H1665 C1675 0.953 . S
H1666 C1670 0.929 . S
H1667 C1676 0.929 . S
C1668 H1662 0.930 . S
C1668 C1669 1.367 . S
C1668 C1676 1.378 . S
C1669 C1668 1.367 . S
C1669 C1677 1.433 . S
C1670 H1666 0.929 . S
C1670 C1672 1.378 . S
C1670 C1674 1.350 . S
C1671 C1674 1.463 . S
C1671 C1676 1.350 . S
C1671 N1679 1.427 . S
C1672 H1663 0.930 . S
C1672 C1670 1.378 . S
C1672 C1673 1.367 1_655 S
C1673 C1672 1.367 1_455 S
C1673 C1675 1.437 . S
C1674 C1670 1.350 . S
C1674 C1671 1.463 . S
C1674 N1678 1.427 . S
C1675 H1665 0.953 . S
C1675 C1673 1.437 . S
C1675 N1678 1.356 1_455 S
C1676 H1667 0.929 . S
C1676 C1668 1.378 . S
C1676 C1671 1.350 . S
C1677 H1664 0.929 1_545 S
C1677 C1669 1.433 . S
C1677 N1679 1.384 . S
N1678 C1674 1.427 . S
N1678 C1675 1.356 1_655 S
N1679 C1671 1.427 . S
N1679 C1677 1.384 . S
H1680 C1686 0.930 . S
H1681 C1690 0.930 . S
H1682 C1695 0.929 . S
H1683 C1693 0.929 . S
H1684 C1688 0.929 . S
H1685 C1694 0.929 . S
C1686 H1680 0.930 . S
C1686 C1687 1.367 . S
C1686 C1694 1.378 . S
C1687 C1686 1.367 . S
C1687 C1695 1.433 . S
C1688 H1684 0.929 . S
C1688 C1690 1.378 . S
C1688 C1692 1.350 . S
C1689 C1692 1.463 . S
C1689 C1694 1.350 . S
C1689 N1697 1.427 . S
C1690 H1681 0.930 . S
C1690 C1688 1.378 . S
C1690 C1691 1.367 . S
C1691 C1690 1.367 . S
C1691 C1693 1.433 . S
C1692 C1688 1.350 . S
C1692 C1689 1.463 . S
C1692 N1696 1.427 . S
C1693 H1683 0.929 . S
C1693 C1691 1.433 . S
C1693 N1696 1.384 . S
C1694 H1685 0.929 . S
C1694 C1686 1.378 . S
C1694 C1689 1.350 . S
C1695 H1682 0.929 . S
C1695 C1687 1.433 . S
C1695 N1697 1.384 . S
N1696 C1692 1.427 . S
N1696 C1693 1.384 . S
N1697 C1689 1.427 . S
N1697 C1695 1.384 . S
H1698 C1704 0.930 . S
H1699 C1708 0.930 . S
H1700 C1713 0.929 . S
H1701 C1711 0.929 . S
H1702 C1706 0.929 . S
H1703 C1712 0.929 . S
C1704 H1698 0.930 . S
C1704 C1705 1.367 . S
C1704 C1712 1.378 . S
C1705 C1704 1.367 . S
C1705 C1713 1.433 . S
C1706 H1702 0.929 . S
C1706 C1708 1.378 . S
C1706 C1710 1.350 . S
C1707 C1710 1.463 . S
C1707 C1712 1.350 . S
C1707 N1715 1.427 . S
C1708 H1699 0.930 . S
C1708 C1706 1.378 . S
C1708 C1709 1.367 . S
C1709 C1708 1.367 . S
C1709 C1711 1.433 . S
C1710 C1706 1.350 . S
C1710 C1707 1.463 . S
C1710 N1714 1.427 . S
C1711 H1701 0.929 . S
C1711 C1709 1.433 . S
C1711 N1714 1.384 . S
C1712 H1703 0.929 . S
C1712 C1704 1.378 . S
C1712 C1707 1.350 . S
C1713 H1700 0.929 . S
C1713 C1705 1.433 . S
C1713 N1715 1.384 . S
N1714 C1710 1.427 . S
N1714 C1711 1.384 . S
N1715 C1707 1.427 . S
N1715 C1713 1.384 . S
H1716 C1722 0.930 . S
H1717 C1726 0.930 . S
H1718 C1731 0.929 . S
H1719 C1729 0.929 . S
H1720 C1724 0.929 . S
H1721 C1730 0.929 . S
C1722 H1716 0.930 . S
C1722 C1723 1.367 . S
C1722 C1730 1.378 . S
C1723 C1722 1.367 . S
C1723 C1731 1.433 . S
C1724 H1720 0.929 . S
C1724 C1726 1.378 . S
C1724 C1728 1.350 . S
C1725 C1728 1.463 . S
C1725 C1730 1.350 . S
C1725 N1733 1.427 . S
C1726 H1717 0.930 . S
C1726 C1724 1.378 . S
C1726 C1727 1.367 . S
C1727 C1726 1.367 . S
C1727 C1729 1.433 . S
C1728 C1724 1.350 . S
C1728 C1725 1.463 . S
C1728 N1732 1.427 . S
C1729 H1719 0.929 . S
C1729 C1727 1.433 . S
C1729 N1732 1.384 . S
C1730 H1721 0.929 . S
C1730 C1722 1.378 . S
C1730 C1725 1.350 . S
C1731 H1718 0.929 . S
C1731 C1723 1.433 . S
C1731 N1733 1.384 . S
N1732 C1728 1.427 . S
N1732 C1729 1.384 . S
N1733 C1725 1.427 . S
N1733 C1731 1.384 . S
H1734 C1740 0.930 . S
H1735 C1744 0.930 . S
H1736 C1749 0.929 . S
H1737 C1747 0.929 . S
H1738 C1742 0.929 . S
H1739 C1748 0.929 . S
C1740 H1734 0.930 . S
C1740 C1741 1.367 . S
C1740 C1748 1.378 . S
C1741 C1740 1.367 . S
C1741 C1749 1.433 . S
C1742 H1738 0.929 . S
C1742 C1744 1.378 . S
C1742 C1746 1.350 . S
C1743 C1746 1.463 . S
C1743 C1748 1.350 . S
C1743 N1751 1.427 . S
C1744 H1735 0.930 . S
C1744 C1742 1.378 . S
C1744 C1745 1.367 . S
C1745 C1744 1.367 . S
C1745 C1747 1.433 . S
C1746 C1742 1.350 . S
C1746 C1743 1.463 . S
C1746 N1750 1.427 . S
C1747 H1737 0.929 . S
C1747 C1745 1.433 . S
C1747 N1750 1.384 . S
C1748 H1739 0.929 . S
C1748 C1740 1.378 . S
C1748 C1743 1.350 . S
C1749 H1736 0.929 . S
C1749 C1741 1.433 . S
C1749 N1751 1.384 . S
N1750 C1746 1.427 . S
N1750 C1747 1.384 . S
N1751 C1743 1.427 . S
N1751 C1749 1.384 . S
H1752 C1758 0.930 . S
H1753 C1762 0.930 . S
H1754 C1767 0.929 . S
H1755 C1765 0.929 . S
H1756 C1760 0.929 . S
H1757 C1766 0.929 . S
C1758 H1752 0.930 . S
C1758 C1759 1.367 . S
C1758 C1766 1.378 . S
C1759 C1758 1.367 . S
C1759 C1767 1.433 . S
C1760 H1756 0.929 . S
C1760 C1762 1.378 . S
C1760 C1764 1.350 . S
C1761 C1764 1.463 . S
C1761 C1766 1.350 . S
C1761 N1769 1.427 . S
C1762 H1753 0.930 . S
C1762 C1760 1.378 . S
C1762 C1763 1.367 . S
C1763 C1762 1.367 . S
C1763 C1765 1.433 . S
C1764 C1760 1.350 . S
C1764 C1761 1.463 . S
C1764 N1768 1.427 . S
C1765 H1755 0.929 . S
C1765 C1763 1.433 . S
C1765 N1768 1.384 . S
C1766 H1757 0.929 . S
C1766 C1758 1.378 . S
C1766 C1761 1.350 . S
C1767 H1754 0.929 . S
C1767 C1759 1.433 . S
C1767 N1769 1.384 . S
N1768 C1764 1.427 . S
N1768 C1765 1.384 . S
N1769 C1761 1.427 . S
N1769 C1767 1.384 . S
H1770 C1776 0.930 . S
H1771 C1780 0.930 . S
H1772 C1785 0.929 . S
H1773 C1783 0.929 . S
H1774 C1778 0.929 . S
H1775 C1784 0.929 . S
C1776 H1770 0.930 . S
C1776 C1777 1.367 . S
C1776 C1784 1.378 . S
C1777 C1776 1.367 . S
C1777 C1785 1.433 . S
C1778 H1774 0.929 . S
C1778 C1780 1.378 . S
C1778 C1782 1.350 . S
C1779 C1782 1.463 . S
C1779 C1784 1.350 . S
C1779 N1787 1.427 . S
C1780 H1771 0.930 . S
C1780 C1778 1.378 . S
C1780 C1781 1.367 . S
C1781 C1780 1.367 . S
C1781 C1783 1.433 . S
C1782 C1778 1.350 . S
C1782 C1779 1.463 . S
C1782 N1786 1.427 . S
C1783 H1773 0.929 . S
C1783 C1781 1.433 . S
C1783 N1786 1.384 . S
C1784 H1775 0.929 . S
C1784 C1776 1.378 . S
C1784 C1779 1.350 . S
C1785 H1772 0.929 . S
C1785 C1777 1.433 . S
C1785 N1787 1.384 . S
N1786 C1782 1.427 . S
N1786 C1783 1.384 . S
N1787 C1779 1.427 . S
N1787 C1785 1.384 . S
H1788 C1794 0.930 . S
H1789 C1798 0.930 . S
H1790 C1803 0.929 . S
H1791 C1801 0.929 . S
H1792 C1796 0.929 . S
H1793 C1802 0.929 . S
C1794 H1788 0.930 . S
C1794 C1795 1.367 . S
C1794 C1802 1.378 . S
C1795 C1794 1.367 . S
C1795 C1803 1.433 . S
C1796 H1792 0.929 . S
C1796 C1798 1.378 . S
C1796 C1800 1.350 . S
C1797 C1800 1.463 . S
C1797 C1802 1.350 . S
C1797 N1805 1.427 . S
C1798 H1789 0.930 . S
C1798 C1796 1.378 . S
C1798 C1799 1.367 . S
C1799 C1798 1.367 . S
C1799 C1801 1.433 . S
C1800 C1796 1.350 . S
C1800 C1797 1.463 . S
C1800 N1804 1.427 . S
C1801 H1791 0.929 . S
C1801 C1799 1.433 . S
C1801 N1804 1.384 . S
C1802 H1793 0.929 . S
C1802 C1794 1.378 . S
C1802 C1797 1.350 . S
C1803 H1790 0.929 . S
C1803 C1795 1.433 . S
C1803 N1805 1.384 . S
N1804 C1800 1.427 . S
N1804 C1801 1.384 . S
N1805 C1797 1.427 . S
N1805 C1803 1.384 . S
H1806 C1812 0.930 . S
H1807 C1816 0.930 . S
H1808 C1821 0.929 . S
H1809 C1819 0.929 . S
H1810 C1814 0.929 . S
H1811 C1820 0.929 . S
C1812 H1806 0.930 . S
C1812 C1813 1.367 . S
C1812 C1820 1.378 . S
C1813 C1812 1.367 . S
C1813 C1821 1.433 . S
C1814 H1810 0.929 . S
C1814 C1816 1.378 . S
C1814 C1818 1.350 . S
C1815 C1818 1.463 . S
C1815 C1820 1.350 . S
C1815 N1823 1.427 . S
C1816 H1807 0.930 . S
C1816 C1814 1.378 . S
C1816 C1817 1.367 . S
C1817 C1816 1.367 . S
C1817 C1819 1.433 . S
C1818 C1814 1.350 . S
C1818 C1815 1.463 . S
C1818 N1822 1.427 . S
C1819 H1809 0.929 . S
C1819 C1817 1.433 . S
C1819 N1822 1.384 . S
C1820 H1811 0.929 . S
C1820 C1812 1.378 . S
C1820 C1815 1.350 . S
C1821 H1808 0.929 . S
C1821 C1813 1.433 . S
C1821 N1823 1.384 . S
N1822 C1818 1.427 . S
N1822 C1819 1.384 . S
N1823 C1815 1.427 . S
N1823 C1821 1.384 . S
H1824 C1830 0.930 . S
H1825 C1834 0.930 . S
H1826 C1839 0.929 . S
H1827 C1837 0.929 . S
H1828 C1832 0.929 . S
H1829 C1838 0.929 . S
C1830 H1824 0.930 . S
C1830 C1831 1.367 . S
C1830 C1838 1.378 . S
C1831 C1830 1.367 . S
C1831 C1839 1.433 . S
C1832 H1828 0.929 . S
C1832 C1834 1.378 . S
C1832 C1836 1.350 . S
C1833 C1836 1.463 . S
C1833 C1838 1.350 . S
C1833 N1841 1.427 . S
C1834 H1825 0.930 . S
C1834 C1832 1.378 . S
C1834 C1835 1.367 . S
C1835 C1834 1.367 . S
C1835 C1837 1.433 . S
C1836 C1832 1.350 . S
C1836 C1833 1.463 . S
C1836 N1840 1.427 . S
C1837 H1827 0.929 . S
C1837 C1835 1.433 . S
C1837 N1840 1.384 . S
C1838 H1829 0.929 . S
C1838 C1830 1.378 . S
C1838 C1833 1.350 . S
C1839 H1826 0.929 . S
C1839 C1831 1.433 . S
C1839 N1841 1.384 . S
N1840 C1836 1.427 . S
N1840 C1837 1.384 . S
N1841 C1833 1.427 . S
N1841 C1839 1.384 . S
H1842 C1848 0.930 . S
H1843 C1852 0.930 . S
H1844 C1857 0.929 . S
H1845 C1855 0.929 . S
H1846 C1850 0.929 . S
H1847 C1856 0.929 . S
C1848 H1842 0.930 . S
C1848 C1849 1.367 . S
C1848 C1856 1.378 . S
C1849 C1848 1.367 . S
C1849 C1857 1.433 . S
C1850 H1846 0.929 . S
C1850 C1852 1.378 . S
C1850 C1854 1.350 . S
C1851 C1854 1.463 . S
C1851 C1856 1.350 . S
C1851 N1859 1.427 . S
C1852 H1843 0.930 . S
C1852 C1850 1.378 . S
C1852 C1853 1.367 . S
C1853 C1852 1.367 . S
C1853 C1855 1.433 . S
C1854 C1850 1.350 . S
C1854 C1851 1.463 . S
C1854 N1858 1.427 . S
C1855 H1845 0.929 . S
C1855 C1853 1.433 . S
C1855 N1858 1.384 . S
C1856 H1847 0.929 . S
C1856 C1848 1.378 . S
C1856 C1851 1.350 . S
C1857 H1844 0.929 . S
C1857 C1849 1.433 . S
C1857 N1859 1.384 . S
N1858 C1854 1.427 . S
N1858 C1855 1.384 . S
N1859 C1851 1.427 . S
N1859 C1857 1.384 . S
H1860 C1866 0.970 . S
H1861 C1870 0.930 . S
H1862 C1875 0.929 1_655 S
H1863 C1873 0.929 . S
H1864 C1868 0.929 . S
H1865 C1874 0.929 . S
C1866 H1860 0.970 . S
C1866 C1867 1.367 . S
C1866 C1874 1.378 . S
C1867 C1866 1.367 . S
C1867 C1875 1.433 . S
C1868 H1864 0.929 . S
C1868 C1870 1.378 . S
C1868 C1872 1.350 . S
C1869 C1872 1.463 . S
C1869 C1874 1.350 . S
C1869 N1877 1.427 . S
C1870 H1861 0.930 . S
C1870 C1868 1.378 . S
C1870 C1871 1.367 . S
C1871 C1870 1.367 . S
C1871 C1873 1.433 . S
C1872 C1868 1.350 . S
C1872 C1869 1.463 . S
C1872 N1876 1.427 . S
C1873 H1863 0.929 . S
C1873 C1871 1.433 . S
C1873 N1876 1.384 . S
C1874 H1865 0.929 . S
C1874 C1866 1.378 . S
C1874 C1869 1.350 . S
C1875 H1862 0.929 1_455 S
C1875 C1867 1.433 . S
C1875 N1877 1.384 . S
N1876 C1872 1.427 . S
N1876 C1873 1.384 . S
N1877 C1869 1.427 . S
N1877 C1875 1.384 . S
H1878 C1884 0.930 . S
H1879 C1888 0.930 . S
H1880 C1893 0.929 . S
H1881 C1891 0.929 . S
H1882 C1886 0.929 . S
H1883 C1892 0.929 . S
C1884 H1878 0.930 . S
C1884 C1885 1.367 . S
C1884 C1892 1.378 . S
C1885 C1884 1.367 . S
C1885 C1893 1.433 . S
C1886 H1882 0.929 . S
C1886 C1888 1.378 . S
C1886 C1890 1.350 . S
C1887 C1890 1.463 . S
C1887 C1892 1.350 . S
C1887 N1895 1.427 . S
C1888 H1879 0.930 . S
C1888 C1886 1.378 . S
C1888 C1889 1.367 . S
C1889 C1888 1.367 . S
C1889 C1891 1.433 . S
C1890 C1886 1.350 . S
C1890 C1887 1.463 . S
C1890 N1894 1.427 . S
C1891 H1881 0.929 . S
C1891 C1889 1.433 . S
C1891 N1894 1.384 . S
C1892 H1883 0.929 . S
C1892 C1884 1.378 . S
C1892 C1887 1.350 . S
C1893 H1880 0.929 . S
C1893 C1885 1.433 . S
C1893 N1895 1.384 . S
N1894 C1890 1.427 . S
N1894 C1891 1.384 . S
N1895 C1887 1.427 . S
N1895 C1893 1.384 . S
H1896 C1902 0.930 . S
H1897 C1906 0.930 1_556 S
H1898 C1911 0.929 1_556 S
H1899 C1909 0.929 . S
H1900 C1904 0.929 1_556 S
H1901 C1910 0.929 . S
C1902 H1896 0.930 . S
C1902 C1903 1.367 . S
C1902 C1910 1.378 . S
C1903 C1902 1.367 . S
C1903 C1911 1.433 . S
C1904 H1900 0.929 1_554 S
C1904 C1906 1.378 . S
C1904 C1908 1.350 . S
C1905 C1908 1.463 . S
C1905 C1910 1.350 . S
C1905 N1913 1.427 . S
C1906 H1897 0.930 1_554 S
C1906 C1904 1.378 . S
C1906 C1907 1.367 . S
C1907 C1906 1.367 . S
C1907 C1909 1.433 . S
C1908 C1904 1.350 . S
C1908 C1905 1.463 . S
C1908 N1912 1.427 . S
C1909 H1899 0.929 . S
C1909 C1907 1.433 . S
C1909 N1912 1.384 . S
C1910 H1901 0.929 . S
C1910 C1902 1.378 . S
C1910 C1905 1.350 . S
C1911 H1898 0.929 1_554 S
C1911 C1903 1.433 . S
C1911 N1913 1.384 . S
N1912 C1908 1.427 . S
N1912 C1909 1.384 . S
N1913 C1905 1.427 . S
N1913 C1911 1.384 . S
H1914 C1920 0.930 . S
H1915 C1924 0.930 . S
H1916 C1929 0.929 . S
H1917 C1927 0.929 . S
H1918 C1922 0.929 . S
H1919 C1928 0.929 . S
C1920 H1914 0.930 . S
C1920 C1921 1.367 . S
C1920 C1928 1.378 . S
C1921 C1920 1.367 . S
C1921 C1929 1.433 . S
C1922 H1918 0.929 . S
C1922 C1924 1.378 . S
C1922 C1926 1.350 . S
C1923 C1926 1.463 . S
C1923 C1928 1.350 . S
C1923 N1931 1.427 . S
C1924 H1915 0.930 . S
C1924 C1922 1.378 . S
C1924 C1925 1.367 . S
C1925 C1924 1.367 . S
C1925 C1927 1.433 . S
C1926 C1922 1.350 . S
C1926 C1923 1.463 . S
C1926 N1930 1.427 . S
C1927 H1917 0.929 . S
C1927 C1925 1.433 . S
C1927 N1930 1.384 . S
C1928 H1919 0.929 . S
C1928 C1920 1.378 . S
C1928 C1923 1.350 . S
C1929 H1916 0.929 . S
C1929 C1921 1.433 . S
C1929 N1931 1.384 . S
N1930 C1926 1.427 . S
N1930 C1927 1.384 . S
N1931 C1923 1.427 . S
N1931 C1929 1.384 . S
H1932 C1938 0.930 1_655 S
H1933 C1942 0.930 . S
H1934 C1947 0.929 . S
H1935 C1945 0.929 . S
H1936 C1940 0.929 . S
H1937 C1946 0.929 . S
C1938 H1932 0.930 1_455 S
C1938 C1939 1.367 . S
C1938 C1946 1.378 . S
C1939 C1938 1.367 . S
C1939 C1947 1.433 . S
C1940 H1936 0.929 . S
C1940 C1942 1.378 . S
C1940 C1944 1.350 . S
C1941 C1944 1.463 . S
C1941 C1946 1.350 . S
C1941 N1949 1.427 . S
C1942 H1933 0.930 . S
C1942 C1940 1.378 . S
C1942 C1943 1.367 . S
C1943 C1942 1.367 . S
C1943 C1945 1.433 . S
C1944 C1940 1.350 . S
C1944 C1941 1.463 . S
C1944 N1948 1.427 . S
C1945 H1935 0.929 . S
C1945 C1943 1.433 . S
C1945 N1948 1.384 . S
C1946 H1937 0.929 . S
C1946 C1938 1.378 . S
C1946 C1941 1.350 . S
C1947 H1934 0.929 . S
C1947 C1939 1.433 . S
C1947 N1949 1.384 . S
N1948 C1944 1.427 . S
N1948 C1945 1.384 . S
N1949 C1941 1.427 . S
N1949 C1947 1.384 . S
H1950 C1956 0.930 1_554 S
H1951 C1960 0.930 . S
H1952 C1965 0.929 . S
H1953 C1963 0.929 1_554 S
H1954 C1958 0.929 . S
H1955 C1964 0.929 1_554 S
C1956 H1950 0.930 1_556 S
C1956 C1957 1.367 . S
C1956 C1964 1.378 . S
C1957 C1956 1.367 . S
C1957 C1965 1.433 . S
C1958 H1954 0.929 . S
C1958 C1960 1.378 . S
C1958 C1962 1.350 . S
C1959 C1962 1.463 . S
C1959 C1964 1.350 . S
C1959 N1967 1.427 . S
C1960 H1951 0.930 . S
C1960 C1958 1.378 . S
C1960 C1961 1.367 . S
C1961 C1960 1.367 . S
C1961 C1963 1.433 . S
C1962 C1958 1.350 . S
C1962 C1959 1.463 . S
C1962 N1966 1.427 . S
C1963 H1953 0.929 1_556 S
C1963 C1961 1.433 . S
C1963 N1966 1.384 . S
C1964 H1955 0.929 1_556 S
C1964 C1956 1.378 . S
C1964 C1959 1.350 . S
C1965 H1952 0.929 . S
C1965 C1957 1.433 . S
C1965 N1967 1.384 . S
N1966 C1962 1.427 . S
N1966 C1963 1.384 . S
N1967 C1959 1.427 . S
N1967 C1965 1.384 . S
H1968 C1974 0.930 . S
H1969 C1978 0.930 . S
H1970 C1983 0.929 . S
H1971 C1981 0.929 . S
H1972 C1976 0.929 . S
H1973 C1982 0.929 . S
C1974 H1968 0.930 . S
C1974 C1975 1.367 . S
C1974 C1982 1.378 . S
C1975 C1974 1.367 . S
C1975 C1983 1.433 . S
C1976 H1972 0.929 . S
C1976 C1978 1.378 . S
C1976 C1980 1.350 . S
C1977 C1980 1.463 . S
C1977 C1982 1.350 . S
C1977 N1985 1.427 . S
C1978 H1969 0.930 . S
C1978 C1976 1.378 . S
C1978 C1979 1.367 . S
C1979 C1978 1.367 . S
C1979 C1981 1.433 . S
C1980 C1976 1.350 . S
C1980 C1977 1.463 . S
C1980 N1984 1.427 . S
C1981 H1971 0.929 . S
C1981 C1979 1.433 . S
C1981 N1984 1.384 . S
C1982 H1973 0.929 . S
C1982 C1974 1.378 . S
C1982 C1977 1.350 . S
C1983 H1970 0.929 . S
C1983 C1975 1.433 . S
C1983 N1985 1.384 . S
N1984 C1980 1.427 . S
N1984 C1981 1.384 . S
N1985 C1977 1.427 . S
N1985 C1983 1.384 . S
H1986 C1992 0.930 . S
H1987 C1996 0.930 . S
H1988 C2001 0.929 . S
H1989 C1999 0.929 . S
H1990 C1994 0.929 . S
H1991 C2000 0.929 . S
C1992 H1986 0.930 . S
C1992 C1993 1.367 . S
C1992 C2000 1.378 . S
C1993 C1992 1.367 . S
C1993 C2001 1.433 . S
C1994 H1990 0.929 . S
C1994 C1996 1.378 . S
C1994 C1998 1.350 . S
C1995 C1998 1.463 . S
C1995 C2000 1.350 . S
C1995 N2003 1.427 . S
C1996 H1987 0.930 . S
C1996 C1994 1.378 . S
C1996 C1997 1.367 . S
C1997 C1996 1.367 . S
C1997 C1999 1.433 . S
C1998 C1994 1.350 . S
C1998 C1995 1.463 . S
C1998 N2002 1.427 . S
C1999 H1989 0.929 . S
C1999 C1997 1.433 . S
C1999 N2002 1.384 . S
C2000 H1991 0.929 . S
C2000 C1992 1.378 . S
C2000 C1995 1.350 . S
C2001 H1988 0.929 . S
C2001 C1993 1.433 . S
C2001 N2003 1.384 . S
N2002 C1998 1.427 . S
N2002 C1999 1.384 . S
N2003 C1995 1.427 . S
N2003 C2001 1.384 . S
H2004 C2010 0.930 . S
H2005 C2014 0.930 . S
H2006 C2019 0.929 . S
H2007 C2017 0.929 . S
H2008 C2012 0.929 . S
H2009 C2018 0.929 . S
C2010 H2004 0.930 . S
C2010 C2011 1.367 . S
C2010 C2018 1.378 . S
C2011 C2010 1.367 . S
C2011 C2019 1.433 . S
C2012 H2008 0.929 . S
C2012 C2014 1.378 . S
C2012 C2016 1.350 . S
C2013 C2016 1.463 . S
C2013 C2018 1.350 . S
C2013 N2021 1.427 . S
C2014 H2005 0.930 . S
C2014 C2012 1.378 . S
C2014 C2015 1.367 . S
C2015 C2014 1.367 . S
C2015 C2017 1.433 . S
C2016 C2012 1.350 . S
C2016 C2013 1.463 . S
C2016 N2020 1.427 . S
C2017 H2007 0.929 . S
C2017 C2015 1.433 . S
C2017 N2020 1.384 . S
C2018 H2009 0.929 . S
C2018 C2010 1.378 . S
C2018 C2013 1.350 . S
C2019 H2006 0.929 . S
C2019 C2011 1.433 . S
C2019 N2021 1.384 . S
N2020 C2016 1.427 . S
N2020 C2017 1.384 . S
N2021 C2013 1.427 . S
N2021 C2019 1.384 . S
H2022 C2028 0.931 . S
H2023 C2032 0.930 . S
H2024 C2037 0.929 . S
H2025 C2035 0.929 . S
H2026 C2030 0.929 . S
H2027 C2036 0.929 . S
C2028 H2022 0.931 . S
C2028 C2029 1.367 . S
C2028 C2036 1.377 1_655 S
C2029 C2028 1.367 . S
C2029 C2037 1.433 1_655 S
C2030 H2026 0.929 . S
C2030 C2032 1.378 . S
C2030 C2034 1.350 . S
C2031 C2034 1.463 . S
C2031 C2036 1.350 . S
C2031 N2039 1.427 . S
C2032 H2023 0.930 . S
C2032 C2030 1.378 . S
C2032 C2033 1.367 . S
C2033 C2032 1.367 . S
C2033 C2035 1.433 . S
C2034 C2030 1.350 . S
C2034 C2031 1.463 . S
C2034 N2038 1.427 . S
C2035 H2025 0.929 . S
C2035 C2033 1.433 . S
C2035 N2038 1.384 . S
C2036 H2027 0.929 . S
C2036 C2028 1.377 1_455 S
C2036 C2031 1.350 . S
C2037 H2024 0.929 . S
C2037 C2029 1.433 1_455 S
C2037 N2039 1.384 . S
N2038 C2034 1.427 . S
N2038 C2035 1.384 . S
N2039 C2031 1.427 . S
N2039 C2037 1.384 . S
H2040 C2046 0.930 . S
H2041 C2050 0.930 . S
H2042 C2055 0.929 . S
H2043 C2053 0.929 . S
H2044 C2048 0.929 . S
H2045 C2054 0.929 . S
C2046 H2040 0.930 . S
C2046 C2047 1.367 . S
C2046 C2054 1.378 . S
C2047 C2046 1.367 . S
C2047 C2055 1.433 . S
C2048 H2044 0.929 . S
C2048 C2050 1.378 . S
C2048 C2052 1.350 . S
C2049 C2052 1.463 . S
C2049 C2054 1.350 . S
C2049 N2057 1.427 . S
C2050 H2041 0.930 . S
C2050 C2048 1.378 . S
C2050 C2051 1.367 . S
C2051 C2050 1.367 . S
C2051 C2053 1.433 . S
C2052 C2048 1.350 . S
C2052 C2049 1.463 . S
C2052 N2056 1.427 . S
C2053 H2043 0.929 . S
C2053 C2051 1.433 . S
C2053 N2056 1.384 . S
C2054 H2045 0.929 . S
C2054 C2046 1.378 . S
C2054 C2049 1.350 . S
C2055 H2042 0.929 . S
C2055 C2047 1.433 . S
C2055 N2057 1.384 . S
N2056 C2052 1.427 . S
N2056 C2053 1.384 . S
N2057 C2049 1.427 . S
N2057 C2055 1.384 . S
H2058 C2064 0.930 . S
H2059 C2068 0.930 . S
H2060 C2073 0.929 . S
H2061 C2071 0.929 1_655 S
H2062 C2066 0.929 . S
H2063 C2072 0.929 . S
C2064 H2058 0.930 . S
C2064 C2065 1.367 . S
C2064 C2072 1.378 . S
C2065 C2064 1.367 . S
C2065 C2073 1.433 . S
C2066 H2062 0.929 . S
C2066 C2068 1.378 . S
C2066 C2070 1.350 . S
C2067 C2070 1.463 . S
C2067 C2072 1.350 . S
C2067 N2075 1.427 . S
C2068 H2059 0.930 . S
C2068 C2066 1.378 . S
C2068 C2069 1.367 1_455 S
C2069 C2068 1.367 1_655 S
C2069 C2071 1.433 1_655 S
C2070 C2066 1.350 . S
C2070 C2067 1.463 . S
C2070 N2074 1.427 . S
C2071 H2061 0.929 1_455 S
C2071 C2069 1.433 1_455 S
C2071 N2074 1.384 . S
C2072 H2063 0.929 . S
C2072 C2064 1.378 . S
C2072 C2067 1.350 . S
C2073 H2060 0.929 . S
C2073 C2065 1.433 . S
C2073 N2075 1.384 . S
N2074 C2070 1.427 . S
N2074 C2071 1.384 . S
N2075 C2067 1.427 . S
N2075 C2073 1.384 . S
H2076 C2082 0.930 . S
H2077 C2086 0.930 . S
H2078 C2091 0.929 . S
H2079 C2089 0.929 . S
H2080 C2084 0.929 . S
H2081 C2090 0.929 . S
C2082 H2076 0.930 . S
C2082 C2083 1.367 . S
C2082 C2090 1.378 . S
C2083 C2082 1.367 . S
C2083 C2091 1.433 . S
C2084 H2080 0.929 . S
C2084 C2086 1.378 . S
C2084 C2088 1.350 . S
C2085 C2088 1.463 . S
C2085 C2090 1.350 . S
C2085 N2093 1.427 . S
C2086 H2077 0.930 . S
C2086 C2084 1.378 . S
C2086 C2087 1.367 . S
C2087 C2086 1.367 . S
C2087 C2089 1.433 . S
C2088 C2084 1.350 . S
C2088 C2085 1.463 . S
C2088 N2092 1.427 . S
C2089 H2079 0.929 . S
C2089 C2087 1.433 . S
C2089 N2092 1.384 . S
C2090 H2081 0.929 . S
C2090 C2082 1.378 . S
C2090 C2085 1.350 . S
C2091 H2078 0.929 . S
C2091 C2083 1.433 . S
C2091 N2093 1.384 . S
N2092 C2088 1.427 . S
N2092 C2089 1.384 . S
N2093 C2085 1.427 . S
N2093 C2091 1.384 . S
H2094 C2100 0.930 . S
H2095 C2104 0.930 . S
H2096 C2109 0.929 . S
H2097 C2107 0.929 . S
H2098 C2102 0.929 . S
H2099 C2108 0.929 . S
C2100 H2094 0.930 . S
C2100 C2101 1.367 . S
C2100 C2108 1.378 . S
C2101 C2100 1.367 . S
C2101 C2109 1.433 . S
C2102 H2098 0.929 . S
C2102 C2104 1.378 . S
C2102 C2106 1.350 . S
C2103 C2106 1.463 . S
C2103 C2108 1.350 . S
C2103 N2111 1.427 . S
C2104 H2095 0.930 . S
C2104 C2102 1.378 . S
C2104 C2105 1.367 . S
C2105 C2104 1.367 . S
C2105 C2107 1.433 . S
C2106 C2102 1.350 . S
C2106 C2103 1.463 . S
C2106 N2110 1.427 . S
C2107 H2097 0.929 . S
C2107 C2105 1.433 . S
C2107 N2110 1.384 . S
C2108 H2099 0.929 . S
C2108 C2100 1.378 . S
C2108 C2103 1.350 . S
C2109 H2096 0.929 . S
C2109 C2101 1.433 . S
C2109 N2111 1.384 . S
N2110 C2106 1.427 . S
N2110 C2107 1.384 . S
N2111 C2103 1.427 . S
N2111 C2109 1.384 . S
H2112 C2118 0.930 . S
H2113 C2122 0.930 . S
H2114 C2127 0.929 . S
H2115 C2125 0.929 . S
H2116 C2120 0.929 . S
H2117 C2126 0.929 . S
C2118 H2112 0.930 . S
C2118 C2119 1.367 . S
C2118 C2126 1.378 . S
C2119 C2118 1.367 . S
C2119 C2127 1.433 . S
C2120 H2116 0.929 . S
C2120 C2122 1.378 . S
C2120 C2124 1.350 . S
C2121 C2124 1.463 . S
C2121 C2126 1.350 . S
C2121 N2129 1.427 . S
C2122 H2113 0.930 . S
C2122 C2120 1.378 . S
C2122 C2123 1.367 . S
C2123 C2122 1.367 . S
C2123 C2125 1.433 . S
C2124 C2120 1.350 . S
C2124 C2121 1.463 . S
C2124 N2128 1.427 . S
C2125 H2115 0.929 . S
C2125 C2123 1.433 . S
C2125 N2128 1.384 . S
C2126 H2117 0.929 . S
C2126 C2118 1.378 . S
C2126 C2121 1.350 . S
C2127 H2114 0.929 . S
C2127 C2119 1.433 . S
C2127 N2129 1.384 . S
N2128 C2124 1.427 . S
N2128 C2125 1.384 . S
N2129 C2121 1.427 . S
N2129 C2127 1.384 . S
H2130 C2136 0.930 . S
H2131 C2140 0.930 . S
H2132 C2145 0.929 . S
H2133 C2143 0.929 . S
H2134 C2138 0.929 . S
H2135 C2144 0.929 . S
C2136 H2130 0.930 . S
C2136 C2137 1.367 . S
C2136 C2144 1.378 . S
C2137 C2136 1.367 . S
C2137 C2145 1.433 . S
C2138 H2134 0.929 . S
C2138 C2140 1.378 . S
C2138 C2142 1.350 . S
C2139 C2142 1.463 . S
C2139 C2144 1.350 . S
C2139 N2147 1.427 . S
C2140 H2131 0.930 . S
C2140 C2138 1.378 . S
C2140 C2141 1.367 . S
C2141 C2140 1.367 . S
C2141 C2143 1.433 . S
C2142 C2138 1.350 . S
C2142 C2139 1.463 . S
C2142 N2146 1.427 . S
C2143 H2133 0.929 . S
C2143 C2141 1.433 . S
C2143 N2146 1.384 . S
C2144 H2135 0.929 . S
C2144 C2136 1.378 . S
C2144 C2139 1.350 . S
C2145 H2132 0.929 . S
C2145 C2137 1.433 . S
C2145 N2147 1.384 . S
N2146 C2142 1.427 . S
N2146 C2143 1.384 . S
N2147 C2139 1.427 . S
N2147 C2145 1.384 . S
H2148 C2154 0.930 . S
H2149 C2158 0.930 . S
H2150 C2163 0.929 . S
H2151 C2161 0.929 . S
H2152 C2156 0.929 . S
H2153 C2162 0.929 . S
C2154 H2148 0.930 . S
C2154 C2155 1.367 . S
C2154 C2162 1.378 . S
C2155 C2154 1.367 . S
C2155 C2163 1.433 . S
C2156 H2152 0.929 . S
C2156 C2158 1.378 . S
C2156 C2160 1.350 . S
C2157 C2160 1.463 . S
C2157 C2162 1.350 . S
C2157 N2165 1.427 . S
C2158 H2149 0.930 . S
C2158 C2156 1.378 . S
C2158 C2159 1.367 . S
C2159 C2158 1.367 . S
C2159 C2161 1.433 . S
C2160 C2156 1.350 . S
C2160 C2157 1.463 . S
C2160 N2164 1.427 . S
C2161 H2151 0.929 . S
C2161 C2159 1.433 . S
C2161 N2164 1.384 . S
C2162 H2153 0.929 . S
C2162 C2154 1.378 . S
C2162 C2157 1.350 . S
C2163 H2150 0.929 . S
C2163 C2155 1.433 . S
C2163 N2165 1.384 . S
N2164 C2160 1.427 . S
N2164 C2161 1.384 . S
N2165 C2157 1.427 . S
N2165 C2163 1.384 . S
H2166 C2172 0.930 . S
H2167 C2176 0.930 . S
H2168 C2181 0.929 . S
H2169 C2179 0.929 . S
H2170 C2174 0.929 . S
H2171 C2180 0.929 . S
C2172 H2166 0.930 . S
C2172 C2173 1.367 . S
C2172 C2180 1.378 . S
C2173 C2172 1.367 . S
C2173 C2181 1.433 . S
C2174 H2170 0.929 . S
C2174 C2176 1.378 . S
C2174 C2178 1.350 . S
C2175 C2178 1.463 . S
C2175 C2180 1.350 . S
C2175 N2183 1.427 . S
C2176 H2167 0.930 . S
C2176 C2174 1.378 . S
C2176 C2177 1.367 . S
C2177 C2176 1.367 . S
C2177 C2179 1.433 . S
C2178 C2174 1.350 . S
C2178 C2175 1.463 . S
C2178 N2182 1.427 . S
C2179 H2169 0.929 . S
C2179 C2177 1.433 . S
C2179 N2182 1.384 . S
C2180 H2171 0.929 . S
C2180 C2172 1.378 . S
C2180 C2175 1.350 . S
C2181 H2168 0.929 . S
C2181 C2173 1.433 . S
C2181 N2183 1.384 . S
N2182 C2178 1.427 . S
N2182 C2179 1.384 . S
N2183 C2175 1.427 . S
N2183 C2181 1.384 . S
H2184 C2190 0.930 . S
H2185 C2194 0.930 . S
H2186 C2199 0.929 . S
H2187 C2197 0.929 . S
H2188 C2192 0.929 . S
H2189 C2198 0.929 . S
C2190 H2184 0.930 . S
C2190 C2191 1.367 . S
C2190 C2198 1.378 . S
C2191 C2190 1.367 . S
C2191 C2199 1.433 . S
C2192 H2188 0.929 . S
C2192 C2194 1.378 . S
C2192 C2196 1.350 . S
C2193 C2196 1.463 . S
C2193 C2198 1.350 . S
C2193 N2201 1.427 . S
C2194 H2185 0.930 . S
C2194 C2192 1.378 . S
C2194 C2195 1.367 . S
C2195 C2194 1.367 . S
C2195 C2197 1.433 . S
C2196 C2192 1.350 . S
C2196 C2193 1.463 . S
C2196 N2200 1.427 . S
C2197 H2187 0.929 . S
C2197 C2195 1.433 . S
C2197 N2200 1.384 . S
C2198 H2189 0.929 . S
C2198 C2190 1.378 . S
C2198 C2193 1.350 . S
C2199 H2186 0.929 . S
C2199 C2191 1.433 . S
C2199 N2201 1.384 . S
N2200 C2196 1.427 . S
N2200 C2197 1.384 . S
N2201 C2193 1.427 . S
N2201 C2199 1.384 . S
H2202 C2208 0.930 . S
H2203 C2212 0.930 . S
H2204 C2217 0.929 . S
H2205 C2215 0.929 . S
H2206 C2210 0.929 . S
H2207 C2216 0.929 . S
C2208 H2202 0.930 . S
C2208 C2209 1.367 . S
C2208 C2216 1.378 . S
C2209 C2208 1.367 . S
C2209 C2217 1.433 . S
C2210 H2206 0.929 . S
C2210 C2212 1.378 . S
C2210 C2214 1.350 . S
C2211 C2214 1.463 . S
C2211 C2216 1.350 . S
C2211 N2219 1.427 . S
C2212 H2203 0.930 . S
C2212 C2210 1.378 . S
C2212 C2213 1.367 . S
C2213 C2212 1.367 . S
C2213 C2215 1.433 . S
C2214 C2210 1.350 . S
C2214 C2211 1.463 . S
C2214 N2218 1.427 . S
C2215 H2205 0.929 . S
C2215 C2213 1.433 . S
C2215 N2218 1.384 . S
C2216 H2207 0.929 . S
C2216 C2208 1.378 . S
C2216 C2211 1.350 . S
C2217 H2204 0.929 . S
C2217 C2209 1.433 . S
C2217 N2219 1.384 . S
N2218 C2214 1.427 . S
N2218 C2215 1.384 . S
N2219 C2211 1.427 . S
N2219 C2217 1.384 . S
H2220 C2226 0.930 . S
H2221 C2230 0.930 . S
H2222 C2235 0.929 . S
H2223 C2233 0.929 . S
H2224 C2228 0.929 . S
H2225 C2234 0.929 . S
C2226 H2220 0.930 . S
C2226 C2227 1.367 . S
C2226 C2234 1.378 . S
C2227 C2226 1.367 . S
C2227 C2235 1.433 . S
C2228 H2224 0.929 . S
C2228 C2230 1.378 . S
C2228 C2232 1.350 . S
C2229 C2232 1.463 . S
C2229 C2234 1.350 . S
C2229 N2237 1.427 . S
C2230 H2221 0.930 . S
C2230 C2228 1.378 . S
C2230 C2231 1.367 . S
C2231 C2230 1.367 . S
C2231 C2233 1.433 . S
C2232 C2228 1.350 . S
C2232 C2229 1.463 . S
C2232 N2236 1.427 . S
C2233 H2223 0.929 . S
C2233 C2231 1.433 . S
C2233 N2236 1.384 . S
C2234 H2225 0.929 . S
C2234 C2226 1.378 . S
C2234 C2229 1.350 . S
C2235 H2222 0.929 . S
C2235 C2227 1.433 . S
C2235 N2237 1.384 . S
N2236 C2232 1.427 . S
N2236 C2233 1.384 . S
N2237 C2229 1.427 . S
N2237 C2235 1.384 . S
H2238 C2244 0.930 . S
H2239 C2248 0.930 . S
H2240 C2253 0.929 . S
H2241 C2251 0.929 . S
H2242 C2246 0.929 . S
H2243 C2252 0.929 . S
C2244 H2238 0.930 . S
C2244 C2245 1.367 . S
C2244 C2252 1.378 . S
C2245 C2244 1.367 . S
C2245 C2253 1.433 . S
C2246 H2242 0.929 . S
C2246 C2248 1.378 . S
C2246 C2250 1.350 . S
C2247 C2250 1.463 . S
C2247 C2252 1.350 . S
C2247 N2255 1.427 . S
C2248 H2239 0.930 . S
C2248 C2246 1.378 . S
C2248 C2249 1.367 . S
C2249 C2248 1.367 . S
C2249 C2251 1.433 . S
C2250 C2246 1.350 . S
C2250 C2247 1.463 . S
C2250 N2254 1.427 . S
C2251 H2241 0.929 . S
C2251 C2249 1.433 . S
C2251 N2254 1.384 . S
C2252 H2243 0.929 . S
C2252 C2244 1.378 . S
C2252 C2247 1.350 . S
C2253 H2240 0.929 . S
C2253 C2245 1.433 . S
C2253 N2255 1.384 . S
N2254 C2250 1.427 . S
N2254 C2251 1.384 . S
N2255 C2247 1.427 . S
N2255 C2253 1.384 . S
H2256 C2262 0.930 . S
H2257 C2266 0.930 . S
H2258 C2271 0.929 . S
H2259 C2269 0.929 . S
H2260 C2264 0.929 . S
H2261 C2270 0.929 . S
C2262 H2256 0.930 . S
C2262 C2263 1.367 . S
C2262 C2270 1.378 . S
C2263 C2262 1.367 . S
C2263 C2271 1.433 . S
C2264 H2260 0.929 . S
C2264 C2266 1.378 . S
C2264 C2268 1.350 . S
C2265 C2268 1.463 . S
C2265 C2270 1.350 . S
C2265 N2273 1.427 . S
C2266 H2257 0.930 . S
C2266 C2264 1.378 . S
C2266 C2267 1.367 . S
C2267 C2266 1.367 . S
C2267 C2269 1.433 . S
C2268 C2264 1.350 . S
C2268 C2265 1.463 . S
C2268 N2272 1.427 . S
C2269 H2259 0.929 . S
C2269 C2267 1.433 . S
C2269 N2272 1.384 . S
C2270 H2261 0.929 . S
C2270 C2262 1.378 . S
C2270 C2265 1.350 . S
C2271 H2258 0.929 . S
C2271 C2263 1.433 . S
C2271 N2273 1.384 . S
N2272 C2268 1.427 . S
N2272 C2269 1.384 . S
N2273 C2265 1.427 . S
N2273 C2271 1.384 . S
H2274 C2280 0.930 . S
H2275 C2284 0.930 . S
H2276 C2289 0.929 . S
H2277 C2287 0.929 . S
H2278 C2282 0.929 . S
H2279 C2288 0.929 . S
C2280 H2274 0.930 . S
C2280 C2281 1.367 . S
C2280 C2288 1.378 . S
C2281 C2280 1.367 . S
C2281 C2289 1.433 . S
C2282 H2278 0.929 . S
C2282 C2284 1.378 . S
C2282 C2286 1.350 . S
C2283 C2286 1.463 . S
C2283 C2288 1.350 . S
C2283 N2291 1.427 . S
C2284 H2275 0.930 . S
C2284 C2282 1.378 . S
C2284 C2285 1.367 . S
C2285 C2284 1.367 . S
C2285 C2287 1.433 . S
C2286 C2282 1.350 . S
C2286 C2283 1.463 . S
C2286 N2290 1.427 . S
C2287 H2277 0.929 . S
C2287 C2285 1.433 . S
C2287 N2290 1.384 . S
C2288 H2279 0.929 . S
C2288 C2280 1.378 . S
C2288 C2283 1.350 . S
C2289 H2276 0.929 . S
C2289 C2281 1.433 . S
C2289 N2291 1.384 . S
N2290 C2286 1.427 . S
N2290 C2287 1.384 . S
N2291 C2283 1.427 . S
N2291 C2289 1.384 . S
H2292 C2298 0.930 . S
H2293 C2302 0.930 . S
H2294 C2307 0.929 . S
H2295 C2305 0.929 . S
H2296 C2300 0.929 . S
H2297 C2306 0.929 . S
C2298 H2292 0.930 . S
C2298 C2299 1.367 . S
C2298 C2306 1.378 . S
C2299 C2298 1.367 . S
C2299 C2307 1.433 . S
C2300 H2296 0.929 . S
C2300 C2302 1.378 . S
C2300 C2304 1.350 . S
C2301 C2304 1.463 . S
C2301 C2306 1.350 . S
C2301 N2309 1.427 . S
C2302 H2293 0.930 . S
C2302 C2300 1.378 . S
C2302 C2303 1.367 . S
C2303 C2302 1.367 . S
C2303 C2305 1.433 . S
C2304 C2300 1.350 . S
C2304 C2301 1.463 . S
C2304 N2308 1.427 . S
C2305 H2295 0.929 . S
C2305 C2303 1.433 . S
C2305 N2308 1.384 . S
C2306 H2297 0.929 . S
C2306 C2298 1.378 . S
C2306 C2301 1.350 . S
C2307 H2294 0.929 . S
C2307 C2299 1.433 . S
C2307 N2309 1.384 . S
N2308 C2304 1.427 . S
N2308 C2305 1.384 . S
N2309 C2301 1.427 . S
N2309 C2307 1.384 . S
H2310 C2316 0.930 . S
H2311 C2320 0.930 . S
H2312 C2325 0.929 . S
H2313 C2323 0.929 . S
H2314 C2318 0.929 . S
H2315 C2324 0.929 . S
C2316 H2310 0.930 . S
C2316 C2317 1.367 . S
C2316 C2324 1.378 . S
C2317 C2316 1.367 . S
C2317 C2325 1.433 . S
C2318 H2314 0.929 . S
C2318 C2320 1.378 . S
C2318 C2322 1.350 . S
C2319 C2322 1.463 . S
C2319 C2324 1.350 . S
C2319 N2327 1.427 . S
C2320 H2311 0.930 . S
C2320 C2318 1.378 . S
C2320 C2321 1.367 . S
C2321 C2320 1.367 . S
C2321 C2323 1.433 . S
C2322 C2318 1.350 . S
C2322 C2319 1.463 . S
C2322 N2326 1.427 . S
C2323 H2313 0.929 . S
C2323 C2321 1.433 . S
C2323 N2326 1.384 . S
C2324 H2315 0.929 . S
C2324 C2316 1.378 . S
C2324 C2319 1.350 . S
C2325 H2312 0.929 . S
C2325 C2317 1.433 . S
C2325 N2327 1.384 . S
N2326 C2322 1.427 . S
N2326 C2323 1.384 . S
N2327 C2319 1.427 . S
N2327 C2325 1.384 . S
H2328 C2334 0.930 . S
H2329 C2338 0.930 . S
H2330 C2343 0.929 . S
H2331 C2341 0.929 . S
H2332 C2336 0.929 . S
H2333 C2342 0.929 . S
C2334 H2328 0.930 . S
C2334 C2335 1.367 . S
C2334 C2342 1.378 . S
C2335 C2334 1.367 . S
C2335 C2343 1.433 . S
C2336 H2332 0.929 . S
C2336 C2338 1.378 . S
C2336 C2340 1.350 . S
C2337 C2340 1.463 . S
C2337 C2342 1.350 . S
C2337 N2345 1.427 . S
C2338 H2329 0.930 . S
C2338 C2336 1.378 . S
C2338 C2339 1.367 . S
C2339 C2338 1.367 . S
C2339 C2341 1.433 . S
C2340 C2336 1.350 . S
C2340 C2337 1.463 . S
C2340 N2344 1.427 . S
C2341 H2331 0.929 . S
C2341 C2339 1.433 . S
C2341 N2344 1.384 . S
C2342 H2333 0.929 . S
C2342 C2334 1.378 . S
C2342 C2337 1.350 . S
C2343 H2330 0.929 . S
C2343 C2335 1.433 . S
C2343 N2345 1.384 . S
N2344 C2340 1.427 . S
N2344 C2341 1.384 . S
N2345 C2337 1.427 . S
N2345 C2343 1.384 . S
H2346 C2352 0.930 . S
H2347 C2356 0.930 . S
H2348 C2361 0.929 . S
H2349 C2359 0.929 . S
H2350 C2354 0.929 . S
H2351 C2360 0.929 . S
C2352 H2346 0.930 . S
C2352 C2353 1.367 . S
C2352 C2360 1.378 . S
C2353 C2352 1.367 . S
C2353 C2361 1.433 . S
C2354 H2350 0.929 . S
C2354 C2356 1.378 . S
C2354 C2358 1.350 . S
C2355 C2358 1.463 . S
C2355 C2360 1.350 . S
C2355 N2363 1.427 . S
C2356 H2347 0.930 . S
C2356 C2354 1.378 . S
C2356 C2357 1.367 . S
C2357 C2356 1.367 . S
C2357 C2359 1.433 . S
C2358 C2354 1.350 . S
C2358 C2355 1.463 . S
C2358 N2362 1.427 . S
C2359 H2349 0.929 . S
C2359 C2357 1.433 . S
C2359 N2362 1.384 . S
C2360 H2351 0.929 . S
C2360 C2352 1.378 . S
C2360 C2355 1.350 . S
C2361 H2348 0.929 . S
C2361 C2353 1.433 . S
C2361 N2363 1.384 . S
N2362 C2358 1.427 . S
N2362 C2359 1.384 . S
N2363 C2355 1.427 . S
N2363 C2361 1.384 . S
H2364 C2370 0.930 . S
H2365 C2374 0.930 . S
H2366 C2379 0.929 . S
H2367 C2377 0.929 . S
H2368 C2372 0.929 . S
H2369 C2378 0.929 . S
C2370 H2364 0.930 . S
C2370 C2371 1.367 . S
C2370 C2378 1.378 . S
C2371 C2370 1.367 . S
C2371 C2379 1.433 . S
C2372 H2368 0.929 . S
C2372 C2374 1.378 . S
C2372 C2376 1.350 . S
C2373 C2376 1.463 . S
C2373 C2378 1.350 . S
C2373 N2381 1.427 . S
C2374 H2365 0.930 . S
C2374 C2372 1.378 . S
C2374 C2375 1.367 . S
C2375 C2374 1.367 . S
C2375 C2377 1.433 . S
C2376 C2372 1.350 . S
C2376 C2373 1.463 . S
C2376 N2380 1.427 . S
C2377 H2367 0.929 . S
C2377 C2375 1.433 . S
C2377 N2380 1.384 . S
C2378 H2369 0.929 . S
C2378 C2370 1.378 . S
C2378 C2373 1.350 . S
C2379 H2366 0.929 . S
C2379 C2371 1.433 . S
C2379 N2381 1.384 . S
N2380 C2376 1.427 . S
N2380 C2377 1.384 . S
N2381 C2373 1.427 . S
N2381 C2379 1.384 . S
H2382 C2388 0.930 . S
H2383 C2392 0.930 . S
H2384 C2397 0.929 . S
H2385 C2395 0.929 . S
H2386 C2390 0.929 . S
H2387 C2396 0.929 . S
C2388 H2382 0.930 . S
C2388 C2389 1.367 . S
C2388 C2396 1.378 . S
C2389 C2388 1.367 . S
C2389 C2397 1.433 . S
C2390 H2386 0.929 . S
C2390 C2392 1.378 . S
C2390 C2394 1.350 . S
C2391 C2394 1.463 . S
C2391 C2396 1.350 . S
C2391 N2399 1.427 . S
C2392 H2383 0.930 . S
C2392 C2390 1.378 . S
C2392 C2393 1.367 . S
C2393 C2392 1.367 . S
C2393 C2395 1.433 . S
C2394 C2390 1.350 . S
C2394 C2391 1.463 . S
C2394 N2398 1.427 . S
C2395 H2385 0.929 . S
C2395 C2393 1.433 . S
C2395 N2398 1.384 . S
C2396 H2387 0.929 . S
C2396 C2388 1.378 . S
C2396 C2391 1.350 . S
C2397 H2384 0.929 . S
C2397 C2389 1.433 . S
C2397 N2399 1.384 . S
N2398 C2394 1.427 . S
N2398 C2395 1.384 . S
N2399 C2391 1.427 . S
N2399 C2397 1.384 . S
H2400 C2406 0.930 . S
H2401 C2410 0.930 . S
H2402 C2415 0.929 . S
H2403 C2413 0.929 . S
H2404 C2408 0.929 . S
H2405 C2414 0.929 . S
C2406 H2400 0.930 . S
C2406 C2407 1.367 . S
C2406 C2414 1.378 . S
C2407 C2406 1.367 . S
C2407 C2415 1.433 . S
C2408 H2404 0.929 . S
C2408 C2410 1.378 . S
C2408 C2412 1.350 . S
C2409 C2412 1.463 . S
C2409 C2414 1.350 . S
C2409 N2417 1.427 . S
C2410 H2401 0.930 . S
C2410 C2408 1.378 . S
C2410 C2411 1.367 . S
C2411 C2410 1.367 . S
C2411 C2413 1.433 . S
C2412 C2408 1.350 . S
C2412 C2409 1.463 . S
C2412 N2416 1.427 . S
C2413 H2403 0.929 . S
C2413 C2411 1.433 . S
C2413 N2416 1.384 . S
C2414 H2405 0.929 . S
C2414 C2406 1.378 . S
C2414 C2409 1.350 . S
C2415 H2402 0.929 . S
C2415 C2407 1.433 . S
C2415 N2417 1.384 . S
N2416 C2412 1.427 . S
N2416 C2413 1.384 . S
N2417 C2409 1.427 . S
N2417 C2415 1.384 . S
H2418 C2424 0.930 . S
H2419 C2428 0.930 . S
H2420 C2433 0.929 . S
H2421 C2431 0.929 . S
H2422 C2426 0.929 . S
H2423 C2432 0.929 . S
C2424 H2418 0.930 . S
C2424 C2425 1.367 . S
C2424 C2432 1.378 . S
C2425 C2424 1.367 . S
C2425 C2433 1.433 . S
C2426 H2422 0.929 . S
C2426 C2428 1.378 . S
C2426 C2430 1.350 . S
C2427 C2430 1.463 . S
C2427 C2432 1.350 . S
C2427 N2435 1.427 . S
C2428 H2419 0.930 . S
C2428 C2426 1.378 . S
C2428 C2429 1.367 . S
C2429 C2428 1.367 . S
C2429 C2431 1.433 . S
C2430 C2426 1.350 . S
C2430 C2427 1.463 . S
C2430 N2434 1.427 . S
C2431 H2421 0.929 . S
C2431 C2429 1.433 . S
C2431 N2434 1.384 . S
C2432 H2423 0.929 . S
C2432 C2424 1.378 . S
C2432 C2427 1.350 . S
C2433 H2420 0.929 . S
C2433 C2425 1.433 . S
C2433 N2435 1.384 . S
N2434 C2430 1.427 . S
N2434 C2431 1.384 . S
N2435 C2427 1.427 . S
N2435 C2433 1.384 . S
H2436 C2442 0.930 . S
H2437 C2446 0.930 . S
H2438 C2451 0.929 . S
H2439 C2449 0.929 . S
H2440 C2444 0.929 . S
H2441 C2450 0.929 . S
C2442 H2436 0.930 . S
C2442 C2443 1.367 . S
C2442 C2450 1.378 . S
C2443 C2442 1.367 . S
C2443 C2451 1.433 . S
C2444 H2440 0.929 . S
C2444 C2446 1.378 . S
C2444 C2448 1.350 . S
C2445 C2448 1.463 . S
C2445 C2450 1.350 . S
C2445 N2453 1.427 . S
C2446 H2437 0.930 . S
C2446 C2444 1.378 . S
C2446 C2447 1.367 . S
C2447 C2446 1.367 . S
C2447 C2449 1.433 . S
C2448 C2444 1.350 . S
C2448 C2445 1.463 . S
C2448 N2452 1.427 . S
C2449 H2439 0.929 . S
C2449 C2447 1.433 . S
C2449 N2452 1.384 . S
C2450 H2441 0.929 . S
C2450 C2442 1.378 . S
C2450 C2445 1.350 . S
C2451 H2438 0.929 . S
C2451 C2443 1.433 . S
C2451 N2453 1.384 . S
N2452 C2448 1.427 . S
N2452 C2449 1.384 . S
N2453 C2445 1.427 . S
N2453 C2451 1.384 . S
H2454 C2460 0.930 . S
H2455 C2464 0.930 . S
H2456 C2469 0.929 . S
H2457 C2467 0.929 . S
H2458 C2462 0.929 . S
H2459 C2468 0.929 . S
C2460 H2454 0.930 . S
C2460 C2461 1.367 . S
C2460 C2468 1.378 . S
C2461 C2460 1.367 . S
C2461 C2469 1.433 . S
C2462 H2458 0.929 . S
C2462 C2464 1.378 . S
C2462 C2466 1.350 . S
C2463 C2466 1.463 . S
C2463 C2468 1.350 . S
C2463 N2471 1.427 . S
C2464 H2455 0.930 . S
C2464 C2462 1.378 . S
C2464 C2465 1.367 . S
C2465 C2464 1.367 . S
C2465 C2467 1.433 . S
C2466 C2462 1.350 . S
C2466 C2463 1.463 . S
C2466 N2470 1.427 . S
C2467 H2457 0.929 . S
C2467 C2465 1.433 . S
C2467 N2470 1.384 . S
C2468 H2459 0.929 . S
C2468 C2460 1.378 . S
C2468 C2463 1.350 . S
C2469 H2456 0.929 . S
C2469 C2461 1.433 . S
C2469 N2471 1.384 . S
N2470 C2466 1.427 . S
N2470 C2467 1.384 . S
N2471 C2463 1.427 . S
N2471 C2469 1.384 . S
H2472 C2478 0.930 . S
H2473 C2482 0.930 . S
H2474 C2487 0.929 . S
H2475 C2485 0.929 . S
H2476 C2480 0.929 . S
H2477 C2486 0.929 . S
C2478 H2472 0.930 . S
C2478 C2479 1.367 . S
C2478 C2486 1.378 . S
C2479 C2478 1.367 . S
C2479 C2487 1.433 . S
C2480 H2476 0.929 . S
C2480 C2482 1.378 . S
C2480 C2484 1.350 . S
C2481 C2484 1.463 . S
C2481 C2486 1.350 . S
C2481 N2489 1.427 . S
C2482 H2473 0.930 . S
C2482 C2480 1.378 . S
C2482 C2483 1.367 . S
C2483 C2482 1.367 . S
C2483 C2485 1.433 . S
C2484 C2480 1.350 . S
C2484 C2481 1.463 . S
C2484 N2488 1.427 . S
C2485 H2475 0.929 . S
C2485 C2483 1.433 . S
C2485 N2488 1.384 . S
C2486 H2477 0.929 . S
C2486 C2478 1.378 . S
C2486 C2481 1.350 . S
C2487 H2474 0.929 . S
C2487 C2479 1.433 . S
C2487 N2489 1.384 . S
N2488 C2484 1.427 . S
N2488 C2485 1.384 . S
N2489 C2481 1.427 . S
N2489 C2487 1.384 . S
H2490 C2496 0.930 . S
H2491 C2500 0.930 . S
H2492 C2505 0.929 . S
H2493 C2503 0.929 . S
H2494 C2498 0.929 . S
H2495 C2504 0.929 . S
C2496 H2490 0.930 . S
C2496 C2497 1.367 . S
C2496 C2504 1.378 . S
C2497 C2496 1.367 . S
C2497 C2505 1.433 . S
C2498 H2494 0.929 . S
C2498 C2500 1.378 . S
C2498 C2502 1.350 . S
C2499 C2502 1.463 . S
C2499 C2504 1.350 . S
C2499 N2507 1.427 . S
C2500 H2491 0.930 . S
C2500 C2498 1.378 . S
C2500 C2501 1.367 . S
C2501 C2500 1.367 . S
C2501 C2503 1.433 . S
C2502 C2498 1.350 . S
C2502 C2499 1.463 . S
C2502 N2506 1.427 . S
C2503 H2493 0.929 . S
C2503 C2501 1.433 . S
C2503 N2506 1.384 . S
C2504 H2495 0.929 . S
C2504 C2496 1.378 . S
C2504 C2499 1.350 . S
C2505 H2492 0.929 . S
C2505 C2497 1.433 . S
C2505 N2507 1.384 . S
N2506 C2502 1.427 . S
N2506 C2503 1.384 . S
N2507 C2499 1.427 . S
N2507 C2505 1.384 . S
H2508 C2514 0.930 . S
H2509 C2518 0.930 . S
H2510 C2523 0.929 . S
H2511 C2521 0.929 . S
H2512 C2516 0.929 . S
H2513 C2522 0.929 . S
C2514 H2508 0.930 . S
C2514 C2515 1.367 . S
C2514 C2522 1.378 . S
C2515 C2514 1.367 . S
C2515 C2523 1.433 . S
C2516 H2512 0.929 . S
C2516 C2518 1.378 . S
C2516 C2520 1.350 . S
C2517 C2520 1.463 . S
C2517 C2522 1.350 . S
C2517 N2525 1.427 . S
C2518 H2509 0.930 . S
C2518 C2516 1.378 . S
C2518 C2519 1.367 . S
C2519 C2518 1.367 . S
C2519 C2521 1.433 . S
C2520 C2516 1.350 . S
C2520 C2517 1.463 . S
C2520 N2524 1.427 . S
C2521 H2511 0.929 . S
C2521 C2519 1.433 . S
C2521 N2524 1.384 . S
C2522 H2513 0.929 . S
C2522 C2514 1.378 . S
C2522 C2517 1.350 . S
C2523 H2510 0.929 . S
C2523 C2515 1.433 . S
C2523 N2525 1.384 . S
N2524 C2520 1.427 . S
N2524 C2521 1.384 . S
N2525 C2517 1.427 . S
N2525 C2523 1.384 . S
H2526 C2532 0.930 . S
H2527 C2536 0.930 . S
H2528 C2541 0.929 . S
H2529 C2539 0.929 . S
H2530 C2534 0.929 . S
H2531 C2540 0.929 . S
C2532 H2526 0.930 . S
C2532 C2533 1.367 . S
C2532 C2540 1.378 . S
C2533 C2532 1.367 . S
C2533 C2541 1.433 . S
C2534 H2530 0.929 . S
C2534 C2536 1.378 . S
C2534 C2538 1.350 . S
C2535 C2538 1.463 . S
C2535 C2540 1.350 . S
C2535 N2543 1.427 . S
C2536 H2527 0.930 . S
C2536 C2534 1.378 . S
C2536 C2537 1.367 . S
C2537 C2536 1.367 . S
C2537 C2539 1.433 . S
C2538 C2534 1.350 . S
C2538 C2535 1.463 . S
C2538 N2542 1.427 . S
C2539 H2529 0.929 . S
C2539 C2537 1.433 . S
C2539 N2542 1.384 . S
C2540 H2531 0.929 . S
C2540 C2532 1.378 . S
C2540 C2535 1.350 . S
C2541 H2528 0.929 . S
C2541 C2533 1.433 . S
C2541 N2543 1.384 . S
N2542 C2538 1.427 . S
N2542 C2539 1.384 . S
N2543 C2535 1.427 . S
N2543 C2541 1.384 . S
H2544 C2550 0.930 . S
H2545 C2554 0.930 . S
H2546 C2559 0.929 . S
H2547 C2557 0.929 . S
H2548 C2552 0.929 . S
H2549 C2558 0.929 . S
C2550 H2544 0.930 . S
C2550 C2551 1.367 . S
C2550 C2558 1.378 . S
C2551 C2550 1.367 . S
C2551 C2559 1.433 . S
C2552 H2548 0.929 . S
C2552 C2554 1.378 . S
C2552 C2556 1.350 . S
C2553 C2556 1.463 . S
C2553 C2558 1.350 . S
C2553 N2561 1.427 . S
C2554 H2545 0.930 . S
C2554 C2552 1.378 . S
C2554 C2555 1.367 . S
C2555 C2554 1.367 . S
C2555 C2557 1.433 . S
C2556 C2552 1.350 . S
C2556 C2553 1.463 . S
C2556 N2560 1.427 . S
C2557 H2547 0.929 . S
C2557 C2555 1.433 . S
C2557 N2560 1.384 . S
C2558 H2549 0.929 . S
C2558 C2550 1.378 . S
C2558 C2553 1.350 . S
C2559 H2546 0.929 . S
C2559 C2551 1.433 . S
C2559 N2561 1.384 . S
N2560 C2556 1.427 . S
N2560 C2557 1.384 . S
N2561 C2553 1.427 . S
N2561 C2559 1.384 . S
H2562 C2568 0.930 . S
H2563 C2572 0.930 . S
H2564 C2577 0.929 . S
H2565 C2575 0.929 . S
H2566 C2570 0.929 . S
H2567 C2576 0.929 . S
C2568 H2562 0.930 . S
C2568 C2569 1.367 . S
C2568 C2576 1.378 . S
C2569 C2568 1.367 . S
C2569 C2577 1.433 . S
C2570 H2566 0.929 . S
C2570 C2572 1.378 . S
C2570 C2574 1.350 . S
C2571 C2574 1.463 . S
C2571 C2576 1.350 . S
C2571 N2579 1.427 . S
C2572 H2563 0.930 . S
C2572 C2570 1.378 . S
C2572 C2573 1.367 . S
C2573 C2572 1.367 . S
C2573 C2575 1.433 . S
C2574 C2570 1.350 . S
C2574 C2571 1.463 . S
C2574 N2578 1.427 . S
C2575 H2565 0.929 . S
C2575 C2573 1.433 . S
C2575 N2578 1.384 . S
C2576 H2567 0.929 . S
C2576 C2568 1.378 . S
C2576 C2571 1.350 . S
C2577 H2564 0.929 . S
C2577 C2569 1.433 . S
C2577 N2579 1.384 . S
N2578 C2574 1.427 . S
N2578 C2575 1.384 . S
N2579 C2571 1.427 . S
N2579 C2577 1.384 . S
H2580 C2586 0.930 . S
H2581 C2590 0.930 . S
H2582 C2595 0.929 . S
H2583 C2593 0.929 . S
H2584 C2588 0.929 . S
H2585 C2594 0.929 . S
C2586 H2580 0.930 . S
C2586 C2587 1.367 . S
C2586 C2594 1.378 . S
C2587 C2586 1.367 . S
C2587 C2595 1.433 . S
C2588 H2584 0.929 . S
C2588 C2590 1.378 . S
C2588 C2592 1.350 . S
C2589 C2592 1.463 . S
C2589 C2594 1.350 . S
C2589 N2597 1.427 . S
C2590 H2581 0.930 . S
C2590 C2588 1.378 . S
C2590 C2591 1.367 . S
C2591 C2590 1.367 . S
C2591 C2593 1.433 . S
C2592 C2588 1.350 . S
C2592 C2589 1.463 . S
C2592 N2596 1.427 . S
C2593 H2583 0.929 . S
C2593 C2591 1.433 . S
C2593 N2596 1.384 . S
C2594 H2585 0.929 . S
C2594 C2586 1.378 . S
C2594 C2589 1.350 . S
C2595 H2582 0.929 . S
C2595 C2587 1.433 . S
C2595 N2597 1.384 . S
N2596 C2592 1.427 . S
N2596 C2593 1.384 . S
N2597 C2589 1.427 . S
N2597 C2595 1.384 . S
H2598 C2604 0.930 . S
H2599 C2608 0.930 . S
H2600 C2613 0.929 . S
H2601 C2611 0.929 . S
H2602 C2606 0.929 . S
H2603 C2612 0.929 . S
C2604 H2598 0.930 . S
C2604 C2605 1.367 . S
C2604 C2612 1.378 . S
C2605 C2604 1.367 . S
C2605 C2613 1.433 . S
C2606 H2602 0.929 . S
C2606 C2608 1.378 . S
C2606 C2610 1.350 . S
C2607 C2610 1.463 . S
C2607 C2612 1.350 . S
C2607 N2615 1.427 . S
C2608 H2599 0.930 . S
C2608 C2606 1.378 . S
C2608 C2609 1.367 . S
C2609 C2608 1.367 . S
C2609 C2611 1.433 . S
C2610 C2606 1.350 . S
C2610 C2607 1.463 . S
C2610 N2614 1.427 . S
C2611 H2601 0.929 . S
C2611 C2609 1.433 . S
C2611 N2614 1.384 . S
C2612 H2603 0.929 . S
C2612 C2604 1.378 . S
C2612 C2607 1.350 . S
C2613 H2600 0.929 . S
C2613 C2605 1.433 . S
C2613 N2615 1.384 . S
N2614 C2610 1.427 . S
N2614 C2611 1.384 . S
N2615 C2607 1.427 . S
N2615 C2613 1.384 . S
H2616 C2622 0.930 . S
H2617 C2626 0.930 . S
H2618 C2631 0.929 . S
H2619 C2629 0.929 . S
H2620 C2624 0.929 . S
H2621 C2630 0.929 . S
C2622 H2616 0.930 . S
C2622 C2623 1.367 . S
C2622 C2630 1.378 . S
C2623 C2622 1.367 . S
C2623 C2631 1.433 . S
C2624 H2620 0.929 . S
C2624 C2626 1.378 . S
C2624 C2628 1.350 . S
C2625 C2628 1.463 . S
C2625 C2630 1.350 . S
C2625 N2633 1.427 . S
C2626 H2617 0.930 . S
C2626 C2624 1.378 . S
C2626 C2627 1.367 . S
C2627 C2626 1.367 . S
C2627 C2629 1.433 . S
C2628 C2624 1.350 . S
C2628 C2625 1.463 . S
C2628 N2632 1.427 . S
C2629 H2619 0.929 . S
C2629 C2627 1.433 . S
C2629 N2632 1.384 . S
C2630 H2621 0.929 . S
C2630 C2622 1.378 . S
C2630 C2625 1.350 . S
C2631 H2618 0.929 . S
C2631 C2623 1.433 . S
C2631 N2633 1.384 . S
N2632 C2628 1.427 . S
N2632 C2629 1.384 . S
N2633 C2625 1.427 . S
N2633 C2631 1.384 . S
H2634 C2640 0.930 . S
H2635 C2644 0.930 . S
H2636 C2649 0.929 . S
H2637 C2647 0.929 . S
H2638 C2642 0.929 . S
H2639 C2648 0.929 . S
C2640 H2634 0.930 . S
C2640 C2641 1.367 . S
C2640 C2648 1.378 . S
C2641 C2640 1.367 . S
C2641 C2649 1.433 . S
C2642 H2638 0.929 . S
C2642 C2644 1.378 . S
C2642 C2646 1.350 . S
C2643 C2646 1.463 . S
C2643 C2648 1.350 . S
C2643 N2651 1.427 . S
C2644 H2635 0.930 . S
C2644 C2642 1.378 . S
C2644 C2645 1.367 . S
C2645 C2644 1.367 . S
C2645 C2647 1.433 . S
C2646 C2642 1.350 . S
C2646 C2643 1.463 . S
C2646 N2650 1.427 . S
C2647 H2637 0.929 . S
C2647 C2645 1.433 . S
C2647 N2650 1.384 . S
C2648 H2639 0.929 . S
C2648 C2640 1.378 . S
C2648 C2643 1.350 . S
C2649 H2636 0.929 . S
C2649 C2641 1.433 . S
C2649 N2651 1.384 . S
N2650 C2646 1.427 . S
N2650 C2647 1.384 . S
N2651 C2643 1.427 . S
N2651 C2649 1.384 . S
H2652 C2658 0.930 . S
H2653 C2662 0.930 . S
H2654 C2667 0.929 . S
H2655 C2665 0.929 . S
H2656 C2660 0.929 . S
H2657 C2666 0.929 . S
C2658 H2652 0.930 . S
C2658 C2659 1.367 . S
C2658 C2666 1.378 . S
C2659 C2658 1.367 . S
C2659 C2667 1.433 . S
C2660 H2656 0.929 . S
C2660 C2662 1.378 . S
C2660 C2664 1.350 . S
C2661 C2664 1.463 . S
C2661 C2666 1.350 . S
C2661 N2669 1.427 . S
C2662 H2653 0.930 . S
C2662 C2660 1.378 . S
C2662 C2663 1.367 . S
C2663 C2662 1.367 . S
C2663 C2665 1.433 . S
C2664 C2660 1.350 . S
C2664 C2661 1.463 . S
C2664 N2668 1.427 . S
C2665 H2655 0.929 . S
C2665 C2663 1.433 . S
C2665 N2668 1.384 . S
C2666 H2657 0.929 . S
C2666 C2658 1.378 . S
C2666 C2661 1.350 . S
C2667 H2654 0.929 . S
C2667 C2659 1.433 . S
C2667 N2669 1.384 . S
N2668 C2664 1.427 . S
N2668 C2665 1.384 . S
N2669 C2661 1.427 . S
N2669 C2667 1.384 . S
H2670 C2676 0.930 . S
H2671 C2680 0.930 . S
H2672 C2685 0.929 . S
H2673 C2683 0.929 . S
H2674 C2678 0.929 . S
H2675 C2684 0.929 . S
C2676 H2670 0.930 . S
C2676 C2677 1.367 . S
C2676 C2684 1.378 . S
C2677 C2676 1.367 . S
C2677 C2685 1.433 . S
C2678 H2674 0.929 . S
C2678 C2680 1.378 . S
C2678 C2682 1.350 . S
C2679 C2682 1.463 . S
C2679 C2684 1.350 . S
C2679 N2687 1.427 . S
C2680 H2671 0.930 . S
C2680 C2678 1.378 . S
C2680 C2681 1.367 . S
C2681 C2680 1.367 . S
C2681 C2683 1.433 . S
C2682 C2678 1.350 . S
C2682 C2679 1.463 . S
C2682 N2686 1.427 . S
C2683 H2673 0.929 . S
C2683 C2681 1.433 . S
C2683 N2686 1.384 . S
C2684 H2675 0.929 . S
C2684 C2676 1.378 . S
C2684 C2679 1.350 . S
C2685 H2672 0.929 . S
C2685 C2677 1.433 . S
C2685 N2687 1.384 . S
N2686 C2682 1.427 . S
N2686 C2683 1.384 . S
N2687 C2679 1.427 . S
N2687 C2685 1.384 . S
H2688 C2694 0.930 . S
H2689 C2698 0.930 . S
H2690 C2703 0.929 . S
H2691 C2701 0.929 . S
H2692 C2696 0.929 . S
H2693 C2702 0.929 . S
C2694 H2688 0.930 . S
C2694 C2695 1.367 . S
C2694 C2702 1.378 . S
C2695 C2694 1.367 . S
C2695 C2703 1.433 . S
C2696 H2692 0.929 . S
C2696 C2698 1.378 . S
C2696 C2700 1.350 . S
C2697 C2700 1.463 . S
C2697 C2702 1.350 . S
C2697 N2705 1.427 . S
C2698 H2689 0.930 . S
C2698 C2696 1.378 . S
C2698 C2699 1.367 . S
C2699 C2698 1.367 . S
C2699 C2701 1.433 . S
C2700 C2696 1.350 . S
C2700 C2697 1.463 . S
C2700 N2704 1.427 . S
C2701 H2691 0.929 . S
C2701 C2699 1.433 . S
C2701 N2704 1.384 . S
C2702 H2693 0.929 . S
C2702 C2694 1.378 . S
C2702 C2697 1.350 . S
C2703 H2690 0.929 . S
C2703 C2695 1.433 . S
C2703 N2705 1.384 . S
N2704 C2700 1.427 . S
N2704 C2701 1.384 . S
N2705 C2697 1.427 . S
N2705 C2703 1.384 . S
H2706 C2712 0.930 . S
H2707 C2716 0.930 . S
H2708 C2721 0.929 . S
H2709 C2719 0.929 . S
H2710 C2714 0.929 . S
H2711 C2720 0.929 . S
C2712 H2706 0.930 . S
C2712 C2713 1.367 . S
C2712 C2720 1.378 . S
C2713 C2712 1.367 . S
C2713 C2721 1.433 . S
C2714 H2710 0.929 . S
C2714 C2716 1.378 . S
C2714 C2718 1.350 . S
C2715 C2718 1.463 . S
C2715 C2720 1.350 . S
C2715 N2723 1.427 . S
C2716 H2707 0.930 . S
C2716 C2714 1.378 . S
C2716 C2717 1.367 . S
C2717 C2716 1.367 . S
C2717 C2719 1.433 . S
C2718 C2714 1.350 . S
C2718 C2715 1.463 . S
C2718 N2722 1.427 . S
C2719 H2709 0.929 . S
C2719 C2717 1.433 . S
C2719 N2722 1.384 . S
C2720 H2711 0.929 . S
C2720 C2712 1.378 . S
C2720 C2715 1.350 . S
C2721 H2708 0.929 . S
C2721 C2713 1.433 . S
C2721 N2723 1.384 . S
N2722 C2718 1.427 . S
N2722 C2719 1.384 . S
N2723 C2715 1.427 . S
N2723 C2721 1.384 . S
H2724 C2730 0.930 . S
H2725 C2734 0.930 . S
H2726 C2739 0.929 . S
H2727 C2737 0.929 . S
H2728 C2732 0.929 . S
H2729 C2738 0.929 . S
C2730 H2724 0.930 . S
C2730 C2731 1.367 . S
C2730 C2738 1.378 . S
C2731 C2730 1.367 . S
C2731 C2739 1.433 . S
C2732 H2728 0.929 . S
C2732 C2734 1.378 . S
C2732 C2736 1.350 . S
C2733 C2736 1.463 . S
C2733 C2738 1.350 . S
C2733 N2741 1.427 . S
C2734 H2725 0.930 . S
C2734 C2732 1.378 . S
C2734 C2735 1.367 . S
C2735 C2734 1.367 . S
C2735 C2737 1.433 . S
C2736 C2732 1.350 . S
C2736 C2733 1.463 . S
C2736 N2740 1.427 . S
C2737 H2727 0.929 . S
C2737 C2735 1.433 . S
C2737 N2740 1.384 . S
C2738 H2729 0.929 . S
C2738 C2730 1.378 . S
C2738 C2733 1.350 . S
C2739 H2726 0.929 . S
C2739 C2731 1.433 . S
C2739 N2741 1.384 . S
N2740 C2736 1.427 . S
N2740 C2737 1.384 . S
N2741 C2733 1.427 . S
N2741 C2739 1.384 . S
H2742 C2748 0.930 . S
H2743 C2752 0.930 . S
H2744 C2757 0.929 . S
H2745 C2755 0.929 . S
H2746 C2750 0.929 . S
H2747 C2756 0.929 . S
C2748 H2742 0.930 . S
C2748 C2749 1.367 . S
C2748 C2756 1.378 . S
C2749 C2748 1.367 . S
C2749 C2757 1.433 . S
C2750 H2746 0.929 . S
C2750 C2752 1.378 . S
C2750 C2754 1.350 . S
C2751 C2754 1.463 . S
C2751 C2756 1.350 . S
C2751 N2759 1.427 . S
C2752 H2743 0.930 . S
C2752 C2750 1.378 . S
C2752 C2753 1.367 . S
C2753 C2752 1.367 . S
C2753 C2755 1.433 . S
C2754 C2750 1.350 . S
C2754 C2751 1.463 . S
C2754 N2758 1.427 . S
C2755 H2745 0.929 . S
C2755 C2753 1.433 . S
C2755 N2758 1.384 . S
C2756 H2747 0.929 . S
C2756 C2748 1.378 . S
C2756 C2751 1.350 . S
C2757 H2744 0.929 . S
C2757 C2749 1.433 . S
C2757 N2759 1.384 . S
N2758 C2754 1.427 . S
N2758 C2755 1.384 . S
N2759 C2751 1.427 . S
N2759 C2757 1.384 . S
H2760 C2766 0.930 . S
H2761 C2770 0.930 . S
H2762 C2775 0.929 . S
H2763 C2773 0.929 . S
H2764 C2768 0.929 . S
H2765 C2774 0.929 . S
C2766 H2760 0.930 . S
C2766 C2767 1.367 . S
C2766 C2774 1.378 . S
C2767 C2766 1.367 . S
C2767 C2775 1.433 . S
C2768 H2764 0.929 . S
C2768 C2770 1.378 . S
C2768 C2772 1.350 . S
C2769 C2772 1.463 . S
C2769 C2774 1.350 . S
C2769 N2777 1.427 . S
C2770 H2761 0.930 . S
C2770 C2768 1.378 . S
C2770 C2771 1.367 . S
C2771 C2770 1.367 . S
C2771 C2773 1.433 . S
C2772 C2768 1.350 . S
C2772 C2769 1.463 . S
C2772 N2776 1.427 . S
C2773 H2763 0.929 . S
C2773 C2771 1.433 . S
C2773 N2776 1.384 . S
C2774 H2765 0.929 . S
C2774 C2766 1.378 . S
C2774 C2769 1.350 . S
C2775 H2762 0.929 . S
C2775 C2767 1.433 . S
C2775 N2777 1.384 . S
N2776 C2772 1.427 . S
N2776 C2773 1.384 . S
N2777 C2769 1.427 . S
N2777 C2775 1.384 . S
H2778 C2784 0.930 . S
H2779 C2788 0.930 . S
H2780 C2793 0.929 . S
H2781 C2791 0.929 . S
H2782 C2786 0.929 . S
H2783 C2792 0.929 . S
C2784 H2778 0.930 . S
C2784 C2785 1.367 . S
C2784 C2792 1.378 . S
C2785 C2784 1.367 . S
C2785 C2793 1.433 . S
C2786 H2782 0.929 . S
C2786 C2788 1.378 . S
C2786 C2790 1.350 . S
C2787 C2790 1.463 . S
C2787 C2792 1.350 . S
C2787 N2795 1.427 . S
C2788 H2779 0.930 . S
C2788 C2786 1.378 . S
C2788 C2789 1.367 . S
C2789 C2788 1.367 . S
C2789 C2791 1.433 . S
C2790 C2786 1.350 . S
C2790 C2787 1.463 . S
C2790 N2794 1.427 . S
C2791 H2781 0.929 . S
C2791 C2789 1.433 . S
C2791 N2794 1.384 . S
C2792 H2783 0.929 . S
C2792 C2784 1.378 . S
C2792 C2787 1.350 . S
C2793 H2780 0.929 . S
C2793 C2785 1.433 . S
C2793 N2795 1.384 . S
N2794 C2790 1.427 . S
N2794 C2791 1.384 . S
N2795 C2787 1.427 . S
N2795 C2793 1.384 . S
H2796 C2802 0.930 . S
H2797 C2806 0.930 . S
H2798 C2811 0.929 . S
H2799 C2809 0.929 . S
H2800 C2804 0.929 . S
H2801 C2810 0.929 . S
C2802 H2796 0.930 . S
C2802 C2803 1.367 . S
C2802 C2810 1.378 . S
C2803 C2802 1.367 . S
C2803 C2811 1.433 . S
C2804 H2800 0.929 . S
C2804 C2806 1.378 . S
C2804 C2808 1.350 . S
C2805 C2808 1.463 . S
C2805 C2810 1.350 . S
C2805 N2813 1.427 . S
C2806 H2797 0.930 . S
C2806 C2804 1.378 . S
C2806 C2807 1.367 . S
C2807 C2806 1.367 . S
C2807 C2809 1.433 . S
C2808 C2804 1.350 . S
C2808 C2805 1.463 . S
C2808 N2812 1.427 . S
C2809 H2799 0.929 . S
C2809 C2807 1.433 . S
C2809 N2812 1.384 . S
C2810 H2801 0.929 . S
C2810 C2802 1.378 . S
C2810 C2805 1.350 . S
C2811 H2798 0.929 . S
C2811 C2803 1.433 . S
C2811 N2813 1.384 . S
N2812 C2808 1.427 . S
N2812 C2809 1.384 . S
N2813 C2805 1.427 . S
N2813 C2811 1.384 . S
H2814 C2820 0.930 . S
H2815 C2824 0.930 . S
H2816 C2829 0.929 . S
H2817 C2827 0.929 . S
H2818 C2822 0.929 . S
H2819 C2828 0.929 . S
C2820 H2814 0.930 . S
C2820 C2821 1.367 . S
C2820 C2828 1.378 . S
C2821 C2820 1.367 . S
C2821 C2829 1.433 . S
C2822 H2818 0.929 . S
C2822 C2824 1.378 . S
C2822 C2826 1.350 . S
C2823 C2826 1.463 . S
C2823 C2828 1.350 . S
C2823 N2831 1.427 . S
C2824 H2815 0.930 . S
C2824 C2822 1.378 . S
C2824 C2825 1.367 . S
C2825 C2824 1.367 . S
C2825 C2827 1.433 . S
C2826 C2822 1.350 . S
C2826 C2823 1.463 . S
C2826 N2830 1.427 . S
C2827 H2817 0.929 . S
C2827 C2825 1.433 . S
C2827 N2830 1.384 . S
C2828 H2819 0.929 . S
C2828 C2820 1.378 . S
C2828 C2823 1.350 . S
C2829 H2816 0.929 . S
C2829 C2821 1.433 . S
C2829 N2831 1.384 . S
N2830 C2826 1.427 . S
N2830 C2827 1.384 . S
N2831 C2823 1.427 . S
N2831 C2829 1.384 . S
C1111 N140 1.597 . S
C1115 N2 1.584 . S
C1129 C30 1.809 . S
C1133 C168 1.815 . S
C1147 N48 1.585 . S
C1151 N94 1.601 . S
C1165 C122 1.809 . S
C1169 C76 1.815 . S
C1183 C789 1.761 . S
C1187 C191 1.770 . S
C1201 N807 1.588 . S
C1205 N209 1.599 . S
C1219 C237 1.761 . S
C1223 C743 1.770 . S
C1237 N255 1.586 . S
C1241 N761 1.600 . S
C1255 C881 1.771 . S
C1259 C283 1.762 . S
C1273 N899 1.591 . S
C1277 N301 1.597 . S
C1291 C835 1.771 . S
C1295 C329 1.762 . S
C1309 N853 1.587 . S
C1313 N347 1.600 . S
C1327 C375 1.810 . S
C1331 C950 1.814 . S
C1345 C398 1.811 . S
C1349 C927 1.813 . S
C1363 C421 1.766 . S
C1367 C536 1.765 . S
C1381 C1042 1.810 . S
C1385 C444 1.814 . S
C1399 C1065 1.771 . S
C1403 C467 1.761 . S
C1417 C996 1.810 . S
C1421 C490 1.814 . S
C1435 C1019 1.762 . S
C1439 C513 1.771 . S
C1453 N692 1.590 . S
C1457 N554 1.589 . S
C1471 C720 1.816 . S
C1475 C582 1.810 . S
C1489 N600 1.583 . S
C1493 N646 1.599 . S
C1507 C628 1.815 . S
C1511 C674 1.811 . S
C1525 C1088 1.768 . S
C1529 C973 1.766 . S
C1543 N370 1.704 . S
C1547 N12 1.763 . S
C1561 C39 1.607 . S
C1565 N1083 1.609 . S
C1579 N58 1.754 . S
C1583 N485 1.698 . S
C1597 N1060 1.601 . S
C1601 C85 1.613 . S
C1615 N104 1.763 . S
C1619 N945 1.715 . S
C1633 N968 1.614 . S
C1637 C131 1.614 . S
C1651 N150 1.753 . S
C1655 N991 1.698 . S
C1669 N462 1.596 . S
C1673 C177 1.600 . S
C1687 C200 1.667 . S
C1691 C7 1.748 . S
C1705 N25 1.714 . S
C1709 N219 1.762 . S
C1723 C246 1.660 . S
C1727 C53 1.744 . S
C1741 N265 1.760 . S
C1745 N71 1.700 . S
C1759 C292 1.663 . S
C1763 C99 1.746 . S
C1777 N117 1.703 . S
C1781 N311 1.762 . S
C1795 C338 1.668 . S
C1799 C145 1.744 . S
C1813 N357 1.765 . S
C1817 N163 1.709 . S
C1831 C384 1.609 . S
C1835 N186 1.598 . S
C1849 C407 1.608 . S
C1853 N830 1.610 . S
C1867 C858 1.751 1_455 S
C1871 C430 1.673 . S
C1885 N876 1.599 . S
C1889 C453 1.600 . S
C1903 C476 1.667 . S
C1907 C352 1.748 1_655 S
C1921 C499 1.607 . S
C1925 N232 1.609 . S
C1939 C812 1.741 1_455 S
C1943 C522 1.658 . S
C1957 C766 1.747 . S
C1961 C545 1.664 . S
C1975 N564 1.765 . S
C1979 N922 1.713 . S
C1993 C591 1.619 . S
C1997 N531 1.610 . S
C2011 N610 1.759 . S
C2015 N1037 1.714 . S
C2029 C637 1.608 . S
C2033 N508 1.597 . S
C2047 N656 1.766 . S
C2051 N393 1.711 . S
C2065 N416 1.595 . S
C2069 C683 1.602 . S
C2083 N439 1.702 . S
C2087 N702 1.761 . S
C2101 N1014 1.614 . S
C2105 C729 1.617 . S
C2119 C559 1.747 . S
C2123 C752 1.672 . S
C2137 N577 1.706 . S
C2141 N771 1.764 . S
C2155 C798 1.674 . S
C2159 C605 1.749 . S
C2173 N623 1.703 . S
C2177 N817 1.763 . S
C2191 C844 1.670 . S
C2195 C651 1.749 . S
C2209 N669 1.710 . S
C2213 N863 1.756 . S
C2227 C890 1.660 . S
C2231 C697 1.743 . S
C2245 N715 1.708 . S
C2249 N909 1.765 . S
C2263 C936 1.601 . S
C2267 N738 1.596 . S
C2281 C959 1.613 . S
C2285 N278 1.613 . S
C2299 C306 1.741 . S
C2303 C982 1.658 . S
C2317 C1005 1.614 . S
C2321 N324 1.614 . S
C2335 C1028 1.658 . S
C2339 C904 1.742 . S
C2353 N784 1.613 . S
C2357 C1051 1.614 . S
C2371 C1074 1.658 . S
C2375 C260 1.741 . S
C2389 C214 1.742 1_655 S
C2393 C1097 1.663 . S
C2407 C223 1.332 . S
C2411 C16 1.337 . S
C2425 N35 1.486 . S
C2429 N242 1.484 . S
C2443 C269 1.345 . S
C2447 C62 1.333 . S
C2461 N196 1.476 . S
C2465 N81 1.485 . S
C2479 C108 1.331 . S
C2483 C361 1.338 . S
C2497 N127 1.492 . S
C2501 N288 1.478 . S
C2515 C315 1.331 . S
C2519 C154 1.338 . S
C2533 N334 1.484 . S
C2537 N173 1.495 . S
C2551 N380 1.493 . S
C2555 N426 1.479 . S
C2569 N403 1.486 . S
C2573 N1070 1.476 . S
C2587 N449 1.493 . S
C2591 N1093 1.479 . S
C2605 N1047 1.488 . S
C2609 N472 1.485 . S
C2623 N1024 1.482 . S
C2627 N495 1.495 . S
C2641 N955 1.486 . S
C2645 N518 1.483 . S
C2659 N541 1.479 . S
C2663 N1001 1.484 . S
C2677 C775 1.338 . S
C2681 C568 1.331 . S
C2695 N794 1.484 . S
C2699 N587 1.495 . S
C2713 C614 1.340 . S
C2717 C821 1.342 . S
C2731 N748 1.482 . S
C2735 N633 1.494 . S
C2749 C913 1.343 . S
C2753 C660 1.330 . S
C2767 N840 1.478 . S
C2771 N679 1.484 . S
C2785 C706 1.330 . S
C2789 C867 1.342 . S
C2803 N886 1.479 . S
C2807 N725 1.484 . S
C2821 N978 1.485 . S
C2825 N932 1.495 . S
