# Generated by pormake.
# Topology wkj, (6)-cn, num edge types: 1
# Building blocks:
#     Node 0, Type 0, BuildingBlock: MIFKUJ_clean_sbu_0, # of connection points: 6
#     Node 1, Type 0, BuildingBlock: MIFKUJ_clean_sbu_0, # of connection points: 6
#     Node 2, Type 0, BuildingBlock: MIFKUJ_clean_sbu_0, # of connection points: 6
#     Node 3, Type 0, BuildingBlock: MIFKUJ_clean_sbu_0, # of connection points: 6
#     Node 4, Type 0, BuildingBlock: MIFKUJ_clean_sbu_0, # of connection points: 6
#     Node 5, Type 0, BuildingBlock: MIFKUJ_clean_sbu_0, # of connection points: 6
#     Node 6, Type 0, BuildingBlock: MIFKUJ_clean_sbu_0, # of connection points: 6
#     Node 7, Type 0, BuildingBlock: MIFKUJ_clean_sbu_0, # of connection points: 6
#     Node 8, Type 0, BuildingBlock: MIFKUJ_clean_sbu_0, # of connection points: 6
#     Node 9, Type 0, BuildingBlock: MIFKUJ_clean_sbu_0, # of connection points: 6
#     Node 10, Type 0, BuildingBlock: MIFKUJ_clean_sbu_0, # of connection points: 6
#     Node 11, Type 0, BuildingBlock: MIFKUJ_clean_sbu_0, # of connection points: 6
#     Edge 12, Type (0, 0), BuildingBlock: MIFKUJ_clean_linker_0, # of connection points: 2
#     Edge 13, Type (0, 0), BuildingBlock: MIFKUJ_clean_linker_0, # of connection points: 2
#     Edge 14, Type (0, 0), BuildingBlock: MIFKUJ_clean_linker_0, # of connection points: 2
#     Edge 15, Type (0, 0), BuildingBlock: MIFKUJ_clean_linker_0, # of connection points: 2
#     Edge 16, Type (0, 0), BuildingBlock: MIFKUJ_clean_linker_0, # of connection points: 2
#     Edge 17, Type (0, 0), BuildingBlock: MIFKUJ_clean_linker_0, # of connection points: 2
#     Edge 18, Type (0, 0), BuildingBlock: MIFKUJ_clean_linker_0, # of connection points: 2
#     Edge 19, Type (0, 0), BuildingBlock: MIFKUJ_clean_linker_0, # of connection points: 2
#     Edge 20, Type (0, 0), BuildingBlock: MIFKUJ_clean_linker_0, # of connection points: 2
#     Edge 21, Type (0, 0), BuildingBlock: MIFKUJ_clean_linker_0, # of connection points: 2
#     Edge 22, Type (0, 0), BuildingBlock: MIFKUJ_clean_linker_0, # of connection points: 2
#     Edge 23, Type (0, 0), BuildingBlock: MIFKUJ_clean_linker_0, # of connection points: 2
#     Edge 24, Type (0, 0), BuildingBlock: MIFKUJ_clean_linker_0, # of connection points: 2
#     Edge 25, Type (0, 0), BuildingBlock: MIFKUJ_clean_linker_0, # of connection points: 2
#     Edge 26, Type (0, 0), BuildingBlock: MIFKUJ_clean_linker_0, # of connection points: 2
#     Edge 27, Type (0, 0), BuildingBlock: MIFKUJ_clean_linker_0, # of connection points: 2
#     Edge 28, Type (0, 0), BuildingBlock: MIFKUJ_clean_linker_0, # of connection points: 2
#     Edge 29, Type (0, 0), BuildingBlock: MIFKUJ_clean_linker_0, # of connection points: 2
#     Edge 30, Type (0, 0), BuildingBlock: MIFKUJ_clean_linker_0, # of connection points: 2
#     Edge 31, Type (0, 0), BuildingBlock: MIFKUJ_clean_linker_0, # of connection points: 2
#     Edge 32, Type (0, 0), BuildingBlock: MIFKUJ_clean_linker_0, # of connection points: 2
#     Edge 33, Type (0, 0), BuildingBlock: MIFKUJ_clean_linker_0, # of connection points: 2
#     Edge 34, Type (0, 0), BuildingBlock: MIFKUJ_clean_linker_0, # of connection points: 2
#     Edge 35, Type (0, 0), BuildingBlock: MIFKUJ_clean_linker_0, # of connection points: 2
#     Edge 36, Type (0, 0), BuildingBlock: MIFKUJ_clean_linker_0, # of connection points: 2
#     Edge 37, Type (0, 0), BuildingBlock: MIFKUJ_clean_linker_0, # of connection points: 2
#     Edge 38, Type (0, 0), BuildingBlock: MIFKUJ_clean_linker_0, # of connection points: 2
#     Edge 39, Type (0, 0), BuildingBlock: MIFKUJ_clean_linker_0, # of connection points: 2
#     Edge 40, Type (0, 0), BuildingBlock: MIFKUJ_clean_linker_0, # of connection points: 2
#     Edge 41, Type (0, 0), BuildingBlock: MIFKUJ_clean_linker_0, # of connection points: 2
#     Edge 42, Type (0, 0), BuildingBlock: MIFKUJ_clean_linker_0, # of connection points: 2
#     Edge 43, Type (0, 0), BuildingBlock: MIFKUJ_clean_linker_0, # of connection points: 2
#     Edge 44, Type (0, 0), BuildingBlock: MIFKUJ_clean_linker_0, # of connection points: 2
#     Edge 45, Type (0, 0), BuildingBlock: MIFKUJ_clean_linker_0, # of connection points: 2
#     Edge 46, Type (0, 0), BuildingBlock: MIFKUJ_clean_linker_0, # of connection points: 2
#     Edge 47, Type (0, 0), BuildingBlock: MIFKUJ_clean_linker_0, # of connection points: 2
# Relax obj value: 0.315
# Max RMSD: 0.207
# Mean RMSD: 0.207
data_MOF--net-wkj--node1-MIFKUJ_clean_sbu_0--edge1-MIFKUJ_clean_linker_0
_symmetry_space_group_name_H-M    P1
_symmetry_Int_Tables_number       1
_symmetry_cell_setting            triclinic
loop_
_symmetry_equiv_pos_as_xyz
'x, y, z'
_cell_length_a     60.571664
_cell_length_b     60.49709
_cell_length_c     38.207287
_cell_angle_alpha  89.926141
_cell_angle_beta   90.07317
_cell_angle_gamma 119.79809
loop_
_atom_site_label
_atom_site_type_symbol
_atom_site_fract_x
_atom_site_fract_y
_atom_site_fract_z
_atom_type_partial_charge
Zn0 Zn 0.44099 0.07787 0.19367 0.0
Zn1 Zn 0.42924 0.07995 0.30418 0.0
C2 C 0.40283 0.04269 0.14754 0.0
O3 O 0.40845 0.02734 0.16476 0.0
C4 C 0.47855 0.10293 0.34051 0.0
O5 O 0.48338 0.12372 0.32345 0.0
O6 O 0.47358 0.09475 0.16615 0.0
O7 O 0.44226 0.10184 0.23244 0.0
O8 O 0.43855 0.11433 0.28523 0.0
C9 C 0.47844 0.11335 0.14599 0.0
O10 O 0.46254 0.12218 0.14471 0.0
O11 O 0.41294 0.06587 0.15706 0.0
C12 C 0.38949 0.04318 0.34363 0.0
O13 O 0.39781 0.02963 0.32733 0.0
O14 O 0.3988 0.06645 0.33536 0.0
O15 O 0.42281 0.05785 0.26205 0.0
O16 O 0.44014 0.0484 0.21919 0.0
O17 O 0.45754 0.08257 0.33529 0.0
C18 C 0.44429 0.11928 0.25303 0.0
C19 C 0.43725 0.04959 0.25185 0.0
Zn20 Zn 0.34805 0.47023 0.53414 0.0
Zn21 Zn 0.32724 0.44806 0.63685 0.0
C22 C 0.34077 0.44363 0.47442 0.0
O23 O 0.36447 0.46226 0.47423 0.0
C24 C 0.34466 0.4862 0.68918 0.0
O25 O 0.32035 0.47914 0.68972 0.0
O26 O 0.36784 0.50262 0.50614 0.0
O27 O 0.33174 0.4753 0.57788 0.0
O28 O 0.30261 0.45822 0.61816 0.0
C29 C 0.35771 0.51428 0.4915 0.0
O30 O 0.33399 0.50752 0.49877 0.0
O31 O 0.32661 0.44161 0.50026 0.0
C32 C 0.3179 0.40009 0.66228 0.0
O33 O 0.32873 0.40014 0.63253 0.0
O34 O 0.31192 0.41716 0.66767 0.0
O35 O 0.34163 0.44206 0.59234 0.0
O36 O 0.37247 0.46012 0.55507 0.0
O37 O 0.35262 0.47613 0.66705 0.0
C38 C 0.30899 0.46725 0.58737 0.0
C39 C 0.3643 0.44881 0.58421 0.0
Zn40 Zn 0.89691 0.35552 0.85881 0.0
Zn41 Zn 0.90147 0.34779 0.96892 0.0
C42 C 0.90403 0.33439 0.7937 0.0
O43 O 0.88102 0.32986 0.78607 0.0
C44 C 0.87106 0.35653 0.01717 0.0
O45 O 0.86227 0.33206 0.02207 0.0
O46 O 0.87579 0.3677 0.83215 0.0
O47 O 0.8767 0.32879 0.89768 0.0
O48 O 0.87179 0.31558 0.95318 0.0
C49 C 0.85355 0.35497 0.81916 0.0
O50 O 0.84044 0.33024 0.82419 0.0
O51 O 0.91327 0.34317 0.82374 0.0
C52 C 0.94608 0.35183 0.00682 0.0
O53 O 0.96052 0.36474 0.98028 0.0
O54 O 0.92214 0.34237 0.00499 0.0
O55 O 0.91777 0.3617 0.92337 0.0
O56 O 0.92666 0.3873 0.87989 0.0
O57 O 0.88788 0.368 0.99377 0.0
C58 C 0.86425 0.31235 0.92144 0.0
C59 C 0.93062 0.38387 0.91138 0.0
Zn60 Zn 0.51713 0.88489 0.21073 0.0
Zn61 Zn 0.55414 0.9008 0.29963 0.0
C62 C 0.54016 0.91456 0.15508 0.0
O63 O 0.51877 0.91466 0.1604 0.0
C64 C 0.52246 0.87775 0.35679 0.0
O65 O 0.53948 0.87048 0.36054 0.0
O66 O 0.48443 0.86242 0.18405 0.0
O67 O 0.52437 0.87032 0.25291 0.0
O68 O 0.55487 0.87015 0.28212 0.0
C69 C 0.48617 0.85027 0.15794 0.0
O70 O 0.50764 0.85033 0.15292 0.0
O71 O 0.54547 0.90099 0.17504 0.0
C72 C 0.60067 0.94354 0.32675 0.0
O73 O 0.60043 0.95595 0.29868 0.0
O74 O 0.58395 0.92034 0.33037 0.0
O75 O 0.55362 0.9207 0.25676 0.0
O76 O 0.5179 0.91514 0.23354 0.0
O77 O 0.52371 0.89085 0.3301 0.0
C78 C 0.53993 0.86231 0.2562 0.0
C79 C 0.53692 0.92746 0.25381 0.0
Zn80 Zn 0.62465 0.5303 0.53127 0.0
Zn81 Zn 0.63654 0.53231 0.64266 0.0
C82 C 0.62123 0.5673 0.48984 0.0
O83 O 0.59825 0.55481 0.50316 0.0
C84 C 0.61426 0.48247 0.67945 0.0
O85 O 0.62998 0.47805 0.66111 0.0
O86 O 0.61263 0.50029 0.49838 0.0
O87 O 0.6502 0.53097 0.56732 0.0
O88 O 0.66516 0.52974 0.61984 0.0
C89 C 0.62267 0.50384 0.46819 0.0
O90 O 0.64231 0.52615 0.46061 0.0
O91 O 0.63785 0.56171 0.5001 0.0
C92 C 0.65082 0.58268 0.6707 0.0
O93 O 0.64189 0.58653 0.64138 0.0
O94 O 0.6513 0.56213 0.67492 0.0
O95 O 0.62034 0.53809 0.60155 0.0
O96 O 0.59372 0.52515 0.55854 0.0
O97 O 0.61308 0.50255 0.67354 0.0
C98 C 0.66789 0.53215 0.58663 0.0
C99 C 0.59778 0.52877 0.59114 0.0
Zn100 Zn 0.07405 0.62601 0.86933 0.0
Zn101 Zn 0.09325 0.64751 0.97402 0.0
C102 C 0.03962 0.61844 0.81867 0.0
O103 O 0.03399 0.59573 0.83013 0.0
C104 C 0.12328 0.62952 0.01025 0.0
O105 O 0.14007 0.65397 0.01069 0.0
O106 O 0.08848 0.60927 0.83894 0.0
O107 O 0.10077 0.65287 0.90045 0.0
O108 O 0.12212 0.675 0.9462 0.0
C109 C 0.11118 0.61874 0.82789 0.0
O110 O 0.1289 0.64083 0.83992 0.0
O111 O 0.05693 0.63782 0.8345 0.0
C112 C 0.07214 0.64602 0.03962 0.0
O113 O 0.07509 0.62599 0.04141 0.0
O114 O 0.08057 0.66052 0.01306 0.0
O115 O 0.06495 0.63162 0.93928 0.0
O116 O 0.04881 0.59985 0.90296 0.0
O117 O 0.10279 0.62201 0.99307 0.0
C118 C 0.11967 0.67243 0.91306 0.0
C119 C 0.05165 0.60802 0.93421 0.0
Zn120 Zn 0.8752 0.51287 0.45495 0.0
Zn121 Zn 0.88459 0.54203 0.35566 0.0
C122 C 0.90994 0.53925 0.50546 0.0
O123 O 0.90867 0.51703 0.502 0.0
C124 C 0.86185 0.4911 0.31816 0.0
O125 O 0.84778 0.47907 0.34544 0.0
O126 O 0.85422 0.48338 0.48857 0.0
O127 O 0.85594 0.51651 0.41329 0.0
O128 O 0.85346 0.54152 0.37436 0.0
C129 C 0.84874 0.48942 0.51794 0.0
O130 O 0.85361 0.5129 0.52281 0.0
O131 O 0.89639 0.54443 0.48517 0.0
C132 C 0.92357 0.57465 0.31254 0.0
O133 O 0.92447 0.55347 0.31048 0.0
O134 O 0.90706 0.57535 0.33218 0.0
O135 O 0.9014 0.53834 0.39913 0.0
O136 O 0.9019 0.50797 0.42911 0.0
O137 O 0.87653 0.51503 0.31932 0.0
C138 C 0.84933 0.53278 0.40541 0.0
C139 C 0.9093 0.52269 0.40263 0.0
Zn140 Zn 0.36189 0.88598 0.78892 0.0
Zn141 Zn 0.34501 0.88516 0.68038 0.0
C142 C 0.35769 0.91844 0.83513 0.0
O143 O 0.38223 0.92689 0.83287 0.0
C144 C 0.3623 0.85318 0.64358 0.0
O145 O 0.35694 0.83867 0.67146 0.0
O146 O 0.37438 0.86854 0.82297 0.0
O147 O 0.34227 0.86375 0.7472 0.0
O148 O 0.31542 0.85714 0.70461 0.0
C149 C 0.3606 0.85776 0.84971 0.0
O150 O 0.33864 0.857 0.85261 0.0
O151 O 0.34239 0.89896 0.81746 0.0
C152 C 0.3375 0.92898 0.66557 0.0
O153 O 0.34619 0.93738 0.69716 0.0
O154 O 0.33484 0.90779 0.65549 0.0
O155 O 0.36904 0.90352 0.7191 0.0
O156 O 0.3915 0.91832 0.76624 0.0
O157 O 0.35922 0.87244 0.64398 0.0
C158 C 0.31957 0.85527 0.73683 0.0
C159 C 0.38808 0.92127 0.73402 0.0
Zn160 Zn 0.43969 0.35611 0.13319 0.0
Zn161 Zn 0.43616 0.34589 0.02204 0.0
C162 C 0.41503 0.3658 0.1851 0.0
O163 O 0.43604 0.3873 0.17867 0.0
C164 C 0.4856 0.35962 0.99042 0.0
O165 O 0.48146 0.33772 0.00318 0.0
O166 O 0.47031 0.36422 0.16265 0.0
O167 O 0.43677 0.33273 0.09346 0.0
O168 O 0.43584 0.31494 0.0435 0.0
C169 C 0.46882 0.35158 0.18999 0.0
O170 O 0.44697 0.33146 0.19799 0.0
O171 O 0.4101 0.34644 0.16646 0.0
C172 C 0.41084 0.32952 0.95715 0.0
O173 O 0.43042 0.32631 0.95113 0.0
O174 O 0.40816 0.33651 0.98741 0.0
O175 O 0.43166 0.36474 0.0623 0.0
O176 O 0.44869 0.38892 0.10773 0.0
O177 O 0.46958 0.36696 0.99642 0.0
C178 C 0.43772 0.3152 0.07672 0.0
C179 C 0.44676 0.38657 0.07463 0.0
Zn180 Zn 0.0952 0.46518 0.45801 0.0
Zn181 Zn 0.08895 0.44069 0.35503 0.0
C182 C 0.07005 0.43533 0.51457 0.0
O183 O 0.06839 0.45598 0.51882 0.0
C184 C 0.11473 0.48918 0.31628 0.0
O185 O 0.13493 0.49416 0.33491 0.0
O186 O 0.11242 0.49638 0.48947 0.0
O187 O 0.11523 0.46654 0.41452 0.0
O188 O 0.12167 0.44501 0.3741 0.0
C189 C 0.12568 0.49719 0.51583 0.0
O190 O 0.13061 0.47858 0.52073 0.0
O191 O 0.0815 0.43342 0.48786 0.0
C192 C 0.0499 0.38877 0.33784 0.0
O193 O 0.03853 0.38979 0.36655 0.0
O194 O 0.07119 0.4077 0.32936 0.0
O195 O 0.0696 0.43975 0.39846 0.0
O196 O 0.0651 0.46483 0.43486 0.0
O197 O 0.09411 0.46842 0.32127 0.0
C198 C 0.12481 0.45297 0.40547 0.0
C199 C 0.06073 0.45433 0.40488 0.0
Zn200 Zn 0.61579 0.0824 0.80374 0.0
Zn201 Zn 0.63347 0.08285 0.69806 0.0
C202 C 0.6222 0.06926 0.86997 0.0
O203 O 0.59989 0.0679 0.87034 0.0
C204 C 0.61479 0.10745 0.65035 0.0
O205 O 0.63531 0.12825 0.6605 0.0
O206 O 0.59744 0.09927 0.82506 0.0
O207 O 0.63518 0.10173 0.7616 0.0
O208 O 0.65953 0.11788 0.71663 0.0
C209 C 0.60998 0.12054 0.84063 0.0
O210 O 0.63491 0.13299 0.83806 0.0
O211 O 0.63515 0.07596 0.84184 0.0
C212 C 0.66099 0.08076 0.64131 0.0
O213 O 0.66466 0.10393 0.63739 0.0
O214 O 0.65016 0.06848 0.66884 0.0
O215 O 0.61817 0.05943 0.74089 0.0
O216 O 0.59067 0.04803 0.78306 0.0
O217 O 0.60899 0.08635 0.66508 0.0
C218 C 0.6549 0.11982 0.74849 0.0
C219 C 0.59566 0.04497 0.7516 0.0
Zn220 Zn 0.52292 0.62913 0.12682 0.0
Zn221 Zn 0.54491 0.64168 0.02232 0.0
C222 C 0.54802 0.63545 0.18676 0.0
O223 O 0.52822 0.61236 0.18687 0.0
C224 C 0.49425 0.61435 0.99029 0.0
O225 O 0.48936 0.63018 0.00758 0.0
O226 O 0.48941 0.6135 0.15386 0.0
O227 O 0.52155 0.64534 0.0806 0.0
O228 O 0.53836 0.66992 0.03538 0.0
C229 C 0.48537 0.62794 0.1739 0.0
O230 O 0.50144 0.65256 0.17323 0.0
O231 O 0.55139 0.65004 0.16083 0.0
C232 C 0.59488 0.65364 0.99424 0.0
O233 O 0.59913 0.64575 0.02422 0.0
O234 O 0.57466 0.65474 0.99015 0.0
O235 O 0.55072 0.62991 0.06928 0.0
O236 O 0.53212 0.60229 0.11082 0.0
O237 O 0.51532 0.61501 0.99497 0.0
C238 C 0.53055 0.6672 0.06679 0.0
C239 C 0.54446 0.60832 0.08209 0.0
H240 H 0.4812 0.14478 0.20477 0.0
H241 H 0.49145 0.18525 0.1764 0.0
H242 H 0.43928 0.19259 0.24577 0.0
H243 H 0.42865 0.15203 0.27348 0.0
H244 H 0.42794 0.18746 0.17127 0.0
H245 H 0.496 0.2341 0.25404 0.0
H246 H 0.53602 0.24499 0.28455 0.0
H247 H 0.57594 0.26482 0.18655 0.0
H248 H 0.53604 0.2537 0.15536 0.0
H249 H 0.42939 0.30029 0.14419 0.0
H250 H 0.44333 0.27379 0.17468 0.0
H251 H 0.4788 0.26793 0.08 0.0
H252 H 0.46491 0.29457 0.04926 0.0
H253 H 0.50404 0.27354 0.16085 0.0
H254 H 0.43502 0.22243 0.07773 0.0
H255 H 0.39522 0.2132 0.04781 0.0
H256 H 0.35796 0.20191 0.14714 0.0
H257 H 0.39774 0.2115 0.17762 0.0
C258 C 0.47201 0.15516 0.21374 0.0
C259 C 0.45339 0.14506 0.23999 0.0
C260 C 0.47826 0.17839 0.19818 0.0
C261 C 0.46597 0.19161 0.20907 0.0
C262 C 0.44892 0.1825 0.23725 0.0
C263 C 0.44278 0.15938 0.25285 0.0
C264 C 0.4669 0.21192 0.1872 0.0
C265 C 0.44462 0.20626 0.16903 0.0
C266 C 0.48895 0.23605 0.18357 0.0
C267 C 0.51294 0.24272 0.2023 0.0
C268 C 0.51324 0.24049 0.23893 0.0
C269 C 0.53592 0.24679 0.25637 0.0
C270 C 0.55849 0.2555 0.23749 0.0
C271 C 0.55843 0.25802 0.20113 0.0
C272 C 0.53579 0.25174 0.18357 0.0
C273 C 0.44056 0.29372 0.13015 0.0
C274 C 0.44588 0.2991 0.09451 0.0
C275 C 0.44872 0.27891 0.14757 0.0
C276 C 0.46233 0.26939 0.12951 0.0
C277 C 0.46864 0.27558 0.09427 0.0
C278 C 0.46026 0.29025 0.07669 0.0
C279 C 0.46499 0.24896 0.14572 0.0
C280 C 0.48771 0.25451 0.16266 0.0
C281 C 0.44348 0.22446 0.14809 0.0
C282 C 0.41934 0.21785 0.12989 0.0
C283 C 0.41836 0.21812 0.09316 0.0
C284 C 0.39583 0.21282 0.07611 0.0
C285 C 0.37408 0.20702 0.09557 0.0
C286 C 0.37482 0.20642 0.13211 0.0
C287 C 0.39735 0.21176 0.14927 0.0
H288 H 0.35666 0.20295 0.08233 0.0
H289 H 0.57603 0.26036 0.25103 0.0
H290 H 0.28848 0.42212 0.55475 0.0
H291 H 0.24693 0.40112 0.52517 0.0
H292 H 0.24269 0.46999 0.53554 0.0
H293 H 0.28408 0.49087 0.56504 0.0
H294 H 0.2023 0.42329 0.56891 0.0
H295 H 0.25063 0.45743 0.45941 0.0
H296 H 0.28293 0.4609 0.41704 0.0
H297 H 0.24241 0.37971 0.40348 0.0
H298 H 0.20997 0.37578 0.44609 0.0
H299 H 0.1517 0.4738 0.46387 0.0
H300 H 0.16873 0.45463 0.50375 0.0
H301 H 0.13036 0.38403 0.44587 0.0
H302 H 0.11325 0.40344 0.4058 0.0
H303 H 0.18042 0.4049 0.44333 0.0
H304 H 0.12215 0.38108 0.53808 0.0
H305 H 0.09307 0.38431 0.5803 0.0
H306 H 0.15471 0.45387 0.62073 0.0
H307 H 0.18412 0.45119 0.57882 0.0
C308 C 0.27893 0.43288 0.54935 0.0
C309 C 0.28898 0.4579 0.56162 0.0
C310 C 0.25533 0.4209 0.53291 0.0
C311 C 0.24189 0.434 0.52909 0.0
C312 C 0.25293 0.45967 0.53891 0.0
C313 C 0.27648 0.47162 0.55529 0.0
C314 C 0.21546 0.42083 0.51757 0.0
C315 C 0.1971 0.41883 0.54159 0.0
C316 C 0.20894 0.41391 0.48237 0.0
C317 C 0.22808 0.41627 0.45622 0.0
C318 C 0.24871 0.44031 0.44755 0.0
C319 C 0.26702 0.44237 0.42347 0.0
C320 C 0.26479 0.42052 0.4077 0.0
C321 C 0.24414 0.3966 0.4158 0.0
C322 C 0.22578 0.39445 0.43989 0.0
C323 C 0.14611 0.4539 0.46069 0.0
C324 C 0.13164 0.44014 0.43192 0.0
C325 C 0.15554 0.44279 0.48362 0.0
C326 C 0.15049 0.41773 0.47797 0.0
C327 C 0.13421 0.40326 0.45077 0.0
C328 C 0.12487 0.41447 0.4277 0.0
C329 C 0.1677 0.41009 0.49402 0.0
C330 C 0.18461 0.40772 0.47111 0.0
C331 C 0.17317 0.41387 0.53017 0.0
C332 C 0.15545 0.41571 0.55546 0.0
C333 C 0.12952 0.39707 0.55595 0.0
C334 C 0.11297 0.39879 0.57989 0.0
C335 C 0.12209 0.41916 0.60336 0.0
C336 C 0.14772 0.43796 0.60278 0.0
C337 C 0.16437 0.43627 0.57905 0.0
H338 H 0.10929 0.42042 0.62194 0.0
H339 H 0.27901 0.42214 0.38915 0.0
H340 H 0.82505 0.30939 0.885 0.0
H341 H 0.78671 0.27058 0.86643 0.0
H342 H 0.81311 0.2249 0.91928 0.0
H343 H 0.85161 0.26397 0.93812 0.0
H344 H 0.79907 0.21623 0.84155 0.0
H345 H 0.76667 0.21989 0.95513 0.0
H346 H 0.7596 0.24243 0.00374 0.0
H347 H 0.71621 0.26305 0.93579 0.0
H348 H 0.72327 0.24088 0.88666 0.0
H349 H 0.68358 0.10838 0.78903 0.0
H350 H 0.71756 0.13718 0.82872 0.0
H351 H 0.70362 0.19825 0.79998 0.0
H352 H 0.66978 0.16939 0.75963 0.0
H353 H 0.71085 0.19318 0.87441 0.0
H354 H 0.74829 0.20018 0.7617 0.0
H355 H 0.7571 0.18396 0.70746 0.0
H356 H 0.79285 0.15015 0.76705 0.0
H357 H 0.7838 0.16582 0.82183 0.0
C358 C 0.82263 0.29103 0.89234 0.0
C359 C 0.84112 0.28926 0.91208 0.0
C360 C 0.80075 0.26905 0.88227 0.0
C361 C 0.79736 0.24519 0.89177 0.0
C362 C 0.81563 0.24334 0.91203 0.0
C363 C 0.8374 0.26544 0.92263 0.0
C364 C 0.77547 0.22245 0.8778 0.0
C365 C 0.77973 0.21048 0.84938 0.0
C366 C 0.75053 0.21609 0.88746 0.0
C367 C 0.74557 0.22877 0.9172 0.0
C368 C 0.7557 0.2293 0.95053 0.0
C369 C 0.75168 0.242 0.97818 0.0
C370 C 0.73748 0.25418 0.97285 0.0
C371 C 0.72717 0.25358 0.93989 0.0
C372 C 0.73112 0.24089 0.91216 0.0
C373 C 0.68796 0.12801 0.79131 0.0
C374 C 0.67488 0.13722 0.77136 0.0
C375 C 0.70704 0.14423 0.81396 0.0
C376 C 0.71282 0.16959 0.81694 0.0
C377 C 0.69912 0.17859 0.79781 0.0
C378 C 0.6802 0.16239 0.77471 0.0
C379 C 0.73453 0.1872 0.83804 0.0
C380 C 0.73017 0.19823 0.86746 0.0
C381 C 0.75947 0.19328 0.82872 0.0
C382 C 0.76499 0.1838 0.79591 0.0
C383 C 0.75774 0.18901 0.7633 0.0
C384 C 0.76284 0.17998 0.73245 0.0
C385 C 0.77543 0.16593 0.73382 0.0
C386 C 0.78302 0.16096 0.76606 0.0
C387 C 0.7779 0.16991 0.79702 0.0
H388 H 0.77939 0.15897 0.7099 0.0
H389 H 0.73446 0.26407 0.99426 0.0
H390 H 0.50227 0.67676 0.11217 0.0
H391 H 0.51445 0.7182 0.13878 0.0
H392 H 0.5896 0.74971 0.09432 0.0
H393 H 0.57746 0.70841 0.0676 0.0
H394 H 0.58304 0.76444 0.16972 0.0
H395 H 0.55798 0.76176 0.0482 0.0
H396 H 0.5294 0.74032 -0.00172 0.0
H397 H 0.46689 0.73756 0.0549 0.0
H398 H 0.49499 0.75855 0.1054 0.0
H399 H 0.58595 0.87568 0.22813 0.0
H400 H 0.59476 0.85192 0.18359 0.0
H401 H 0.51426 0.79806 0.17604 0.0
H402 H 0.5055 0.82233 0.21932 0.0
H403 H 0.53623 0.80351 0.11465 0.0
H404 H 0.5521 0.78989 0.23665 0.0
H405 H 0.57377 0.80469 0.29362 0.0
H406 H 0.64626 0.83246 0.24353 0.0
H407 H 0.62494 0.81799 0.18619 0.0
C408 C 0.52156 0.69237 0.10915 0.0
C409 C 0.53896 0.68984 0.08798 0.0
C410 C 0.52844 0.71588 0.12404 0.0
C411 C 0.55275 0.73674 0.11788 0.0
C412 C 0.57078 0.73368 0.09905 0.0
C413 C 0.56381 0.71028 0.08381 0.0
C414 C 0.55815 0.76218 0.12794 0.0
C415 C 0.5735 0.77351 0.15721 0.0
C416 C 0.54532 0.77348 0.11147 0.0
C417 C 0.5286 0.76165 0.08063 0.0
C418 C 0.53812 0.75647 0.05007 0.0
C419 C 0.522 0.74439 0.02167 0.0
C420 C 0.49634 0.73756 0.02343 0.0
C421 C 0.48677 0.74288 0.05356 0.0
C422 C 0.50279 0.7549 0.08206 0.0
C423 C 0.57024 0.85901 0.21627 0.0
C424 C 0.54513 0.8503 0.22708 0.0
C425 C 0.57524 0.84565 0.19086 0.0
C426 C 0.55519 0.82314 0.17708 0.0
C427 C 0.52997 0.81548 0.18635 0.0
C428 C 0.52497 0.8291 0.2112 0.0
C429 C 0.56014 0.80521 0.15759 0.0
C430 C 0.54684 0.79524 0.12628 0.0
C431 C 0.57417 0.79466 0.17285 0.0
C432 C 0.587 0.80316 0.2072 0.0
C433 C 0.57266 0.79926 0.23783 0.0
C434 C 0.58487 0.80757 0.27014 0.0
C435 C 0.61138 0.81958 0.27218 0.0
C436 C 0.62573 0.82321 0.24189 0.0
C437 C 0.61361 0.81496 0.20948 0.0
H438 H 0.6208 0.826 0.29722 0.0
H439 H 0.48388 0.72818 0.00144 0.0
H440 H 0.70189 0.51645 0.60117 0.0
H441 H 0.7449 0.53441 0.57729 0.0
H442 H 0.73389 0.58908 0.51794 0.0
H443 H 0.69033 0.56974 0.53951 0.0
H444 H 0.75226 0.56982 0.47867 0.0
H445 H 0.77636 0.60617 0.59187 0.0
H446 H 0.77516 0.60644 0.65636 0.0
H447 H 0.80278 0.55343 0.6604 0.0
H448 H 0.80371 0.55244 0.59601 0.0
H449 H 0.8602 0.58218 0.40343 0.0
H450 H 0.84516 0.60263 0.44461 0.0
H451 H 0.81355 0.53551 0.50988 0.0
H452 H 0.82806 0.51483 0.46842 0.0
H453 H 0.82721 0.58214 0.54716 0.0
H454 H 0.77844 0.53085 0.44314 0.0
H455 H 0.77493 0.52292 0.37947 0.0
H456 H 0.79127 0.59959 0.36051 0.0
H457 H 0.79517 0.60799 0.42418 0.0
C458 C 0.70878 0.53219 0.58285 0.0
C459 C 0.69304 0.5416 0.57164 0.0
C460 C 0.73342 0.5428 0.5698 0.0
C461 C 0.74288 0.56367 0.54672 0.0
C462 C 0.72707 0.57318 0.53596 0.0
C463 C 0.7022 0.56199 0.54797 0.0
C464 C 0.76805 0.57336 0.53045 0.0
C465 C 0.76896 0.57363 0.49379 0.0
C466 C 0.7898 0.57808 0.55013 0.0
C467 C 0.79015 0.5793 0.58899 0.0
C468 C 0.78216 0.59455 0.60649 0.0
C469 C 0.78149 0.59479 0.64306 0.0
C470 C 0.7889 0.57998 0.66246 0.0
C471 C 0.7971 0.56495 0.64534 0.0
C472 C 0.79777 0.5646 0.60879 0.0
C473 C 0.8506 0.57208 0.42706 0.0
C474 C 0.84468 0.54676 0.43273 0.0
C475 C 0.84252 0.58399 0.45079 0.0
C476 C 0.8282 0.57045 0.47995 0.0
C477 C 0.82486 0.54629 0.4876 0.0
C478 C 0.83289 0.53439 0.46386 0.0
C479 C 0.81053 0.57729 0.49608 0.0
C480 C 0.81097 0.5801 0.53246 0.0
C481 C 0.78976 0.57505 0.47638 0.0
C482 C 0.78739 0.57012 0.43821 0.0
C483 C 0.78142 0.54603 0.42533 0.0
C484 C 0.77936 0.54145 0.38929 0.0
C485 C 0.78295 0.56077 0.36595 0.0
C486 C 0.78857 0.58468 0.37863 0.0
C487 C 0.79074 0.58937 0.41467 0.0
H488 H 0.78132 0.55719 0.33806 0.0
H489 H 0.78829 0.58014 0.69076 0.0
H490 H 0.31271 0.82926 0.79686 0.0
H491 H 0.27179 0.80427 0.82622 0.0
H492 H 0.23875 0.8379 0.75967 0.0
H493 H 0.27979 0.86348 0.73096 0.0
H494 H 0.21497 0.81972 0.82979 0.0
H495 H 0.2387 0.79327 0.72362 0.0
H496 H 0.26824 0.78709 0.68597 0.0
H497 H 0.27123 0.73632 0.76199 0.0
H498 H 0.2422 0.74268 0.80049 0.0
H499 H 0.10945 0.68025 0.84661 0.0
H500 H 0.13667 0.71619 0.80856 0.0
H501 H 0.19458 0.7459 0.88865 0.0
H502 H 0.16749 0.71028 0.92707 0.0
H503 H 0.19512 0.7327 0.79413 0.0
H504 H 0.19541 0.79063 0.90294 0.0
H505 H 0.16591 0.79471 0.94354 0.0
H506 H 0.11374 0.7805 0.85894 0.0
H507 H 0.14281 0.77589 0.81809 0.0
C508 C 0.2971 0.83236 0.79001 0.0
C509 C 0.29884 0.84753 0.76139 0.0
C510 C 0.27383 0.81812 0.8066 0.0
C511 C 0.25248 0.81898 0.79409 0.0
C512 C 0.25516 0.83703 0.76917 0.0
C513 C 0.27843 0.85131 0.75267 0.0
C514 C 0.22736 0.79734 0.80062 0.0
C515 C 0.21032 0.80077 0.82137 0.0
C516 C 0.22121 0.77282 0.78849 0.0
C517 C 0.23837 0.7686 0.76506 0.0
C518 C 0.24581 0.78095 0.73245 0.0
C519 C 0.26246 0.77741 0.71094 0.0
C520 C 0.27162 0.76134 0.7216 0.0
C521 C 0.26413 0.74877 0.75377 0.0
C522 C 0.24757 0.75233 0.77544 0.0
C523 C 0.12807 0.69442 0.85597 0.0
C524 C 0.13653 0.69282 0.8897 0.0
C525 C 0.14337 0.71482 0.83434 0.0
C526 C 0.16708 0.73352 0.84644 0.0
C527 C 0.1759 0.7316 0.87958 0.0
C528 C 0.16059 0.71137 0.90131 0.0
C529 C 0.18361 0.7551 0.82466 0.0
C530 C 0.19918 0.75179 0.8009 0.0
C531 C 0.18826 0.77962 0.8335 0.0
C532 C 0.17126 0.78316 0.85761 0.0
C533 C 0.17771 0.78856 0.89308 0.0
C534 C 0.16102 0.7908 0.91613 0.0
C535 C 0.13799 0.78794 0.90381 0.0
C536 C 0.13157 0.78271 0.86844 0.0
C537 C 0.14808 0.78018 0.84538 0.0
H538 H 0.12512 0.78973 0.92167 0.0
H539 H 0.28449 0.75861 0.7049 0.0
H540 H 0.6301 0.16478 0.87861 0.0
H541 H 0.61172 0.17282 0.93078 0.0
H542 H 0.5438 0.09976 0.9178 0.0
H543 H 0.56148 0.09217 0.86511 0.0
H544 H 0.53028 0.13006 0.94221 0.0
H545 H 0.59496 0.10941 0.97267 0.0
H546 H 0.63803 0.11464 0.9717 0.0
H547 H 0.66871 0.18938 0.01607 0.0
H548 H 0.62581 0.18469 0.01701 0.0
H549 H 0.50143 0.08763 0.12182 0.0
H550 H 0.53037 0.0989 0.07212 0.0
H551 H 0.53195 0.17067 0.06247 0.0
H552 H 0.50241 0.15916 0.11195 0.0
H553 H 0.58143 0.14758 0.05083 0.0
H554 H 0.50818 0.16309 0.00526 0.0
H555 H 0.46222 0.14789 0.01145 0.0
H556 H 0.44574 0.07052 0.00015 0.0
H557 H 0.49167 0.08534 0.99456 0.0
C558 C 0.61101 0.15071 0.88646 0.0
C559 C 0.59738 0.12771 0.86793 0.0
C560 C 0.6006 0.15524 0.91644 0.0
C561 C 0.57661 0.13661 0.92881 0.0
C562 C 0.56236 0.11442 0.90897 0.0
C563 C 0.57255 0.11007 0.87876 0.0
C564 C 0.56689 0.13913 0.96346 0.0
C565 C 0.54174 0.13437 0.96573 0.0
C566 C 0.58148 0.14409 0.99457 0.0
C567 C 0.60723 0.14682 0.99455 0.0
C568 C 0.61091 0.12701 0.98206 0.0
C569 C 0.63528 0.12987 0.98153 0.0
C570 C 0.65609 0.15236 0.9937 0.0
C571 C 0.65256 0.17199 0.00659 0.0
C572 C 0.62823 0.16924 0.00717 0.0
C573 C 0.5085 0.10608 0.10982 0.0
C574 C 0.49946 0.12235 0.12049 0.0
C575 C 0.52508 0.11254 0.08145 0.0
C576 C 0.53308 0.1355 0.06354 0.0
C577 C 0.52577 0.15275 0.07587 0.0
C578 C 0.50886 0.14613 0.104 0.0
C579 C 0.54534 0.13919 0.02896 0.0
C580 C 0.57061 0.1445 0.0269 0.0
C581 C 0.53075 0.13396 -0.00191 0.0
C582 C 0.50322 0.12529 -0.00043 0.0
C583 C 0.49471 0.14286 0.00404 0.0
C584 C 0.46871 0.13431 0.00758 0.0
C585 C 0.45108 0.10825 0.00623 0.0
C586 C 0.45941 0.09069 0.00123 0.0
C587 C 0.48541 0.09915 -0.00207 0.0
H588 H 0.43097 0.10167 0.00904 0.0
H589 H 0.67495 0.15455 0.99323 0.0
H590 H 0.46887 0.65314 0.21627 0.0
H591 H 0.4425 0.63686 0.26868 0.0
H592 H 0.4328 0.56232 0.24913 0.0
H593 H 0.45851 0.57832 0.19607 0.0
H594 H 0.39081 0.55667 0.27618 0.0
H595 H 0.4796 0.60559 0.30754 0.0
H596 H 0.52272 0.64312 0.31007 0.0
H597 H 0.49259 0.68729 0.35601 0.0
H598 H 0.44928 0.64996 0.354 0.0
H599 H 0.39566 0.51569 0.4518 0.0
H600 H 0.41278 0.53868 0.39701 0.0
H601 H 0.36662 0.57418 0.40765 0.0
H602 H 0.34846 0.55033 0.4622 0.0
H603 H 0.43259 0.60218 0.38592 0.0
H604 H 0.34153 0.54738 0.35585 0.0
H605 H 0.30227 0.50567 0.36031 0.0
H606 H 0.34065 0.46921 0.31463 0.0
H607 H 0.38032 0.51069 0.31062 0.0
C608 C 0.46075 0.63317 0.22277 0.0
C609 C 0.46605 0.6171 0.20217 0.0
C610 C 0.44578 0.6239 0.25291 0.0
C611 C 0.43615 0.59848 0.26346 0.0
C612 C 0.44009 0.58203 0.24172 0.0
C613 C 0.45484 0.59122 0.21134 0.0
C614 C 0.42354 0.58945 0.29817 0.0
C615 C 0.39992 0.56681 0.30005 0.0
C616 C 0.43529 0.60251 0.32962 0.0
C617 C 0.46119 0.6251 0.3302 0.0
C618 C 0.48215 0.62337 0.3179 0.0
C619 C 0.50662 0.64458 0.3193 0.0
C620 C 0.51036 0.66761 0.33291 0.0
C621 C 0.48965 0.66946 0.34535 0.0
C622 C 0.46515 0.64827 0.34419 0.0
C623 C 0.38934 0.52862 0.44285 0.0
C624 C 0.37062 0.53114 0.46129 0.0
C625 C 0.3991 0.54167 0.41145 0.0
C626 C 0.39072 0.55783 0.3982 0.0
C627 C 0.37307 0.56152 0.41737 0.0
C628 C 0.3628 0.54798 0.4485 0.0
C629 C 0.39996 0.56987 0.36358 0.0
C630 C 0.42315 0.59272 0.36181 0.0
C631 C 0.38805 0.55684 0.33239 0.0
C632 C 0.36395 0.53209 0.33332 0.0
C633 C 0.34165 0.53044 0.34703 0.0
C634 C 0.31932 0.50685 0.34944 0.0
C635 C 0.31899 0.48479 0.33786 0.0
C636 C 0.34095 0.48631 0.32364 0.0
C637 C 0.36336 0.50986 0.32128 0.0
H638 H 0.30171 0.46653 0.33984 0.0
H639 H 0.52932 0.684 0.33397 0.0
H640 H 0.81164 0.33246 0.77612 0.0
H641 H 0.8018 0.35235 0.72716 0.0
H642 H 0.86621 0.42511 0.75433 0.0
H643 H 0.87585 0.40559 0.80344 0.0
H644 H 0.82829 0.4314 0.73152 0.0
H645 H 0.86996 0.38504 0.69492 0.0
H646 H 0.87495 0.3473 0.68727 0.0
H647 H 0.80561 0.31056 0.62786 0.0
H648 H 0.80018 0.34811 0.63533 0.0
H649 H 0.87324 0.50361 0.57948 0.0
H650 H 0.86665 0.47776 0.63141 0.0
H651 H 0.80583 0.41268 0.57913 0.0
H652 H 0.81381 0.43848 0.5257 0.0
H653 H 0.83265 0.39808 0.61468 0.0
H654 H 0.79574 0.4499 0.64574 0.0
H655 H 0.79583 0.49061 0.65087 0.0
H656 H 0.86004 0.51929 0.72019 0.0
H657 H 0.86052 0.4789 0.71523 0.0
C658 C 0.8234 0.35279 0.77209 0.0
C659 C 0.84481 0.36736 0.79337 0.0
C660 C 0.8178 0.36411 0.744 0.0
C661 C 0.83358 0.39014 0.73661 0.0
C662 C 0.85382 0.40498 0.75935 0.0
C663 C 0.85939 0.39374 0.78738 0.0
C664 C 0.83068 0.40172 0.70376 0.0
C665 C 0.82916 0.42409 0.70595 0.0
C666 C 0.83138 0.39195 0.67033 0.0
C667 C 0.83455 0.3693 0.66597 0.0
C668 C 0.85572 0.36887 0.68036 0.0
C669 C 0.85863 0.34752 0.67605 0.0
C670 C 0.84056 0.3265 0.65718 0.0
C671 C 0.81957 0.32684 0.64252 0.0
C672 C 0.81658 0.34817 0.64676 0.0
C673 C 0.85836 0.4838 0.57912 0.0
C674 C 0.84377 0.47305 0.54887 0.0
C675 C 0.85444 0.46905 0.60896 0.0
C676 C 0.83508 0.44342 0.60984 0.0
C677 C 0.82067 0.43248 0.57932 0.0
C678 C 0.82516 0.44716 0.54888 0.0
C679 C 0.83078 0.42812 0.64235 0.0
C680 C 0.831 0.40505 0.64013 0.0
C681 C 0.82918 0.43742 0.6758 0.0
C682 C 0.82816 0.46133 0.68006 0.0
C683 C 0.80986 0.46487 0.66211 0.0
C684 C 0.80984 0.48792 0.66495 0.0
C685 C 0.82794 0.50752 0.68583 0.0
C686 C 0.846 0.50408 0.70408 0.0
C687 C 0.84611 0.48108 0.70135 0.0
H688 H 0.82796 0.52538 0.68786 0.0
H689 H 0.84284 0.30999 0.65386 0.0
H690 H 0.40319 0.85247 0.85221 0.0
H691 H 0.42084 0.84243 0.90387 0.0
H692 H 0.35795 0.83439 0.96597 0.0
H693 H 0.33988 0.84368 0.91476 0.0
H694 H 0.42453 0.87626 0.97564 0.0
H695 H 0.34664 0.78926 0.97653 0.0
H696 H 0.31854 0.74842 0.94715 0.0
H697 H 0.38254 0.73802 0.92717 0.0
H698 H 0.41107 0.77908 0.95594 0.0
H699 H 0.44657 0.85953 0.14947 0.0
H700 H 0.42159 0.85296 0.09625 0.0
H701 H 0.45792 0.81492 0.04804 0.0
H702 H 0.48301 0.82139 0.10118 0.0
H703 H 0.40622 0.79372 0.0281 0.0
H704 H 0.48282 0.87376 0.03 0.0
H705 H 0.51555 0.91497 0.05393 0.0
H706 H 0.46028 0.93946 0.06255 0.0
H707 H 0.42713 0.89823 0.03883 0.0
C708 C 0.39286 0.84802 0.87669 0.0
C709 C 0.37016 0.84896 0.87933 0.0
C710 C 0.4029 0.84219 0.9061 0.0
C711 C 0.39044 0.83725 0.93851 0.0
C712 C 0.36752 0.83755 0.94099 0.0
C713 C 0.35732 0.84303 0.91165 0.0
C714 C 0.40299 0.83545 0.97078 0.0
C715 C 0.42033 0.85822 0.98734 0.0
C716 C 0.39815 0.81194 0.98521 0.0
C717 C 0.38102 0.78743 0.96778 0.0
C718 C 0.35477 0.77847 0.96538 0.0
C719 C 0.33875 0.75522 0.94898 0.0
C720 C 0.34877 0.74069 0.93514 0.0
C721 C 0.37482 0.74934 0.93778 0.0
C722 C 0.39091 0.77259 0.95411 0.0
C723 C 0.44879 0.84917 0.12794 0.0
C724 C 0.46706 0.84133 0.1294 0.0
C725 C 0.43455 0.84551 0.09747 0.0
C726 C 0.43823 0.83384 0.06801 0.0
C727 C 0.45486 0.82405 0.07042 0.0
C728 C 0.46924 0.82786 0.10081 0.0
C729 C 0.42699 0.83458 0.03378 0.0
C730 C 0.41025 0.81175 0.01661 0.0
C731 C 0.43271 0.85811 0.01829 0.0
C732 C 0.45244 0.88282 0.03298 0.0
C733 C 0.47759 0.88784 0.03732 0.0
C734 C 0.49623 0.91123 0.05077 0.0
C735 C 0.48999 0.92981 0.05988 0.0
C736 C 0.46508 0.92503 0.05552 0.0
C737 C 0.44636 0.90167 0.04201 0.0
H738 H 0.50445 0.94795 0.07018 0.0
H739 H 0.33633 0.72269 0.9225 0.0
H740 H 0.51283 0.3975 0.18749 0.0
H741 H 0.54328 0.41811 0.23481 0.0
H742 H 0.50333 0.35025 0.2978 0.0
H743 H 0.47238 0.32963 0.25073 0.0
H744 H 0.50763 0.39073 0.33071 0.0
H745 H 0.56536 0.37232 0.26806 0.0
H746 H 0.58987 0.37169 0.21695 0.0
H747 H 0.62881 0.45338 0.21222 0.0
H748 H 0.60431 0.45451 0.26298 0.0
H749 H 0.5885 0.45288 0.47545 0.0
H750 H 0.5658 0.42212 0.4287 0.0
H751 H 0.60504 0.48112 0.35154 0.0
H752 H 0.62848 0.51145 0.39786 0.0
H753 H 0.60183 0.44038 0.32798 0.0
H754 H 0.54208 0.46014 0.38232 0.0
H755 H 0.5155 0.46312 0.42898 0.0
H756 H 0.47867 0.38226 0.44467 0.0
H757 H 0.50533 0.37882 0.39865 0.0
C758 C 0.51082 0.38671 0.21108 0.0
C759 C 0.48995 0.36205 0.21557 0.0
C760 C 0.52839 0.3985 0.23808 0.0
C761 C 0.52562 0.38573 0.26989 0.0
C762 C 0.50578 0.36048 0.27351 0.0
C763 C 0.48811 0.34872 0.24658 0.0
C764 C 0.54116 0.39983 0.30073 0.0
C765 C 0.52827 0.4011 0.33048 0.0
C766 C 0.56804 0.41415 0.2998 0.0
C767 C 0.58285 0.41347 0.26926 0.0
C768 C 0.57901 0.39014 0.25598 0.0
C769 C 0.59293 0.3897 0.22708 0.0
C770 C 0.61085 0.41248 0.21131 0.0
C771 C 0.61492 0.43575 0.22445 0.0
C772 C 0.60105 0.4363 0.25332 0.0
C773 C 0.59245 0.45915 0.44847 0.0
C774 C 0.61027 0.48457 0.44033 0.0
C775 C 0.57935 0.44162 0.42177 0.0
C776 C 0.58335 0.44935 0.38652 0.0
C777 C 0.60162 0.4746 0.37845 0.0
C778 C 0.61503 0.49196 0.40502 0.0
C779 C 0.56826 0.43153 0.35789 0.0
C780 C 0.58121 0.42963 0.32852 0.0
C781 C 0.54134 0.41704 0.35877 0.0
C782 C 0.526 0.41929 0.38739 0.0
C783 C 0.52856 0.44305 0.39604 0.0
C784 C 0.51343 0.44481 0.42229 0.0
C785 C 0.49547 0.42292 0.4398 0.0
C786 C 0.49264 0.39921 0.43117 0.0
C787 C 0.50778 0.39735 0.40505 0.0
H788 H 0.4837 0.42432 0.45998 0.0
H789 H 0.62161 0.4121 0.18894 0.0
H790 H 0.15696 0.62496 0.80506 0.0
H791 H 0.16455 0.60658 0.75233 0.0
H792 H 0.08429 0.56916 0.72819 0.0
H793 H 0.0766 0.58618 0.78123 0.0
H794 H 0.09819 0.53861 0.71405 0.0
H795 H 0.13434 0.62776 0.6879 0.0
H796 H 0.16267 0.67384 0.69662 0.0
H797 H 0.22801 0.66432 0.68581 0.0
H798 H 0.20002 0.61807 0.67744 0.0
H799 H 0.10109 0.52381 0.52919 0.0
H800 H 0.1042 0.5478 0.58231 0.0
H801 H 0.16465 0.53616 0.6204 0.0
H802 H 0.16118 0.51142 0.56777 0.0
H803 H 0.16458 0.59169 0.62742 0.0
H804 H 0.12281 0.49929 0.65569 0.0
H805 H 0.09077 0.4544 0.64468 0.0
H806 H 0.03138 0.47359 0.64701 0.0
H807 H 0.06318 0.51869 0.65762 0.0
C808 C 0.14099 0.61262 0.78854 0.0
C809 C 0.11619 0.60692 0.79736 0.0
C810 C 0.14535 0.60232 0.75822 0.0
C811 C 0.12508 0.58684 0.73566 0.0
C812 C 0.10033 0.58101 0.74491 0.0
C813 C 0.09592 0.59075 0.77542 0.0
C814 C 0.12914 0.57633 0.70255 0.0
C815 C 0.11268 0.55043 0.6952 0.0
C816 C 0.14817 0.5915 0.67773 0.0
C817 C 0.16505 0.61937 0.68239 0.0
C818 C 0.15473 0.63544 0.68756 0.0
C819 C 0.17074 0.66161 0.69243 0.0
C820 C 0.19713 0.672 0.69188 0.0
C821 C 0.20756 0.65624 0.6863 0.0
C822 C 0.19163 0.63004 0.68146 0.0
C823 C 0.11548 0.52686 0.54844 0.0
C824 C 0.13085 0.51565 0.54437 0.0
C825 C 0.1172 0.54055 0.57876 0.0
C826 C 0.13464 0.54368 0.60514 0.0
C827 C 0.15116 0.534 0.60018 0.0
C828 C 0.1491 0.51984 0.57018 0.0
C829 C 0.13344 0.5544 0.63939 0.0
C830 C 0.15035 0.58015 0.64672 0.0
C831 C 0.11437 0.53942 0.66387 0.0
C832 C 0.09539 0.51238 0.65697 0.0
C833 C 0.10296 0.49399 0.65337 0.0
C834 C 0.08483 0.46849 0.64731 0.0
C835 C 0.05905 0.46116 0.64499 0.0
C836 C 0.05136 0.47931 0.64872 0.0
C837 C 0.06942 0.50482 0.65478 0.0
H838 H 0.04498 0.44142 0.64049 0.0
H839 H 0.20949 0.69226 0.69571 0.0
H840 H 0.36816 0.96711 0.83193 0.0
H841 H 0.36587 0.99218 0.88052 0.0
H842 H 0.3282 0.92416 0.94368 0.0
H843 H 0.32966 0.89889 0.89435 0.0
H844 H 0.31339 0.95895 0.96239 0.0
H845 H 0.39156 0.9581 0.94282 0.0
H846 H 0.42812 0.96354 0.90784 0.0
H847 H 0.45191 0.0426 0.8924 0.0
H848 H 0.41522 0.03751 0.9269 0.0
H849 H 0.36807 -0.00577 0.1302 0.0
H850 H 0.35141 0.97774 0.07208 0.0
H851 H 0.39036 0.0541 0.03034 0.0
H852 H 0.40704 0.07084 0.08893 0.0
H853 H 0.40223 0.02109 0.99628 0.0
H854 H 0.32667 0.02179 0.02777 0.0
H855 H 0.29098 0.0143 0.06629 0.0
H856 H 0.2633 0.93379 0.0635 0.0
H857 H 0.299 0.94079 0.02528 0.0
C858 C 0.35837 0.95741 0.85569 0.0
C859 C 0.34897 0.93119 0.85956 0.0
C860 C 0.35721 0.97173 0.88349 0.0
C861 C 0.34741 0.96015 0.916 0.0
C862 C 0.33587 0.9335 0.91886 0.0
C863 C 0.33663 0.91906 0.8907 0.0
C864 C 0.35287 0.97606 0.94793 0.0
C865 C 0.33278 0.97254 0.96985 0.0
C866 C 0.37819 -0.00588 0.95742 0.0
C867 C 0.40046 -0.00266 0.93703 0.0
C868 C 0.40448 0.9766 0.93175 0.0
C869 C 0.42523 0.97962 0.91204 0.0
C870 C 0.44227 0.00338 0.8978 0.0
C871 C 0.43865 0.02419 0.90337 0.0
C872 C 0.41787 0.02125 0.92299 0.0
C873 C 0.3725 0.0076 0.10886 0.0
C874 C 0.38877 0.0338 0.11413 0.0
C875 C 0.36288 -0.00185 0.07565 0.0
C876 C 0.36947 0.01468 0.04688 0.0
C877 C 0.38487 0.04104 0.05225 0.0
C878 C 0.39425 0.05058 0.08574 0.0
C879 C 0.36279 0.00383 0.01104 0.0
C880 C 0.38274 0.00811 0.98842 0.0
C881 C 0.33742 0.98625 0.0013 0.0
C882 C 0.3156 0.98185 0.02374 0.0
C883 C 0.31304 0.00249 0.03549 0.0
C884 C 0.29279 -0.00167 0.05726 0.0
C885 C 0.2749 0.97359 0.06737 0.0
C886 C 0.27716 0.95294 0.05562 0.0
C887 C 0.29737 0.95699 0.03383 0.0
H888 H 0.25926 0.97041 0.08428 0.0
H889 H 0.45833 0.00569 0.88254 0.0
H890 H 0.37986 0.32368 0.22238 0.0
H891 H 0.35821 0.32402 0.27687 0.0
H892 H 0.39311 0.40578 0.26964 0.0
H893 H 0.41465 0.40559 0.21626 0.0
H894 H 0.4003 0.39071 0.33353 0.0
H895 H 0.32943 0.36453 0.24918 0.0
H896 H 0.29842 0.33389 0.20708 0.0
H897 H 0.27038 0.2754 0.28571 0.0
H898 H 0.30142 0.30568 0.32816 0.0
H899 H 0.34694 0.45366 0.40572 0.0
H900 H 0.34932 0.42625 0.36094 0.0
H901 H 0.32128 0.3641 0.43463 0.0
H902 H 0.31881 0.39177 0.47996 0.0
H903 H 0.30744 0.3551 0.34975 0.0
H904 H 0.37309 0.38337 0.43735 0.0
H905 H 0.40415 0.41393 0.47941 0.0
H906 H 0.44307 0.46662 0.39587 0.0
H907 H 0.41189 0.43661 0.3534 0.0
C908 C 0.38252 0.34161 0.23226 0.0
C909 C 0.39906 0.36463 0.21516 0.0
C910 C 0.37023 0.3418 0.2634 0.0
C911 C 0.37424 0.36498 0.27751 0.0
C912 C 0.38996 0.3877 0.25955 0.0
C913 C 0.40222 0.38754 0.22888 0.0
C914 C 0.36315 0.36657 0.31145 0.0
C915 C 0.37997 0.38265 0.33724 0.0
C916 C 0.33662 0.35522 0.3171 0.0
C917 C 0.31788 0.33725 0.29166 0.0
C918 C 0.31675 0.34509 0.25739 0.0
C919 C 0.29915 0.32781 0.23349 0.0
C920 C 0.28249 0.3027 0.24368 0.0
C921 C 0.28333 0.29484 0.27783 0.0
C922 C 0.30089 0.31206 0.30182 0.0
C923 C 0.34016 0.43381 0.41193 0.0
C924 C 0.33272 0.42475 0.44614 0.0
C925 C 0.3416 0.4182 0.38639 0.0
C926 C 0.3358 0.39331 0.39467 0.0
C927 C 0.32575 0.38326 0.4278 0.0
C928 C 0.3242 0.39899 0.45355 0.0
C929 C 0.34474 0.38029 0.37055 0.0
C930 C 0.32768 0.36227 0.34669 0.0
C931 C 0.37114 0.38959 0.36677 0.0
C932 C 0.38995 0.4078 0.39223 0.0
C933 C 0.38807 0.4016 0.428 0.0
C934 C 0.40574 0.4188 0.45191 0.0
C935 C 0.42553 0.44223 0.44034 0.0
C936 C 0.4277 0.44848 0.40481 0.0
C937 C 0.41003 0.43137 0.38081 0.0
H938 H 0.43921 0.4555 0.45888 0.0
H939 H 0.2689 0.28934 0.22513 0.0
H940 H 0.08436 0.43513 0.58124 0.0
H941 H 0.05728 0.40717 0.62832 0.0
H942 H -0.00151 0.36363 0.55292 0.0
H943 H 0.02616 0.3908 0.50564 0.0
H944 H 0.9877 0.39162 0.60689 0.0
H945 H 0.02107 0.33368 0.59555 0.0
H946 H 0.05598 0.32385 0.59386 0.0
H947 H 0.07838 0.35339 0.6979 0.0
H948 H 0.04384 0.36376 0.70005 0.0
H949 H 0.89171 0.3203 0.72531 0.0
H950 H 0.92113 0.32866 0.67693 0.0
H951 H 0.98403 0.35815 0.74947 0.0
H952 H 0.95469 0.34941 0.79811 0.0
H953 H -0.00679 0.33515 0.69654 0.0
H954 H 0.9706 0.39875 0.70992 0.0
H955 H 0.94329 0.41799 0.71698 0.0
H956 H 0.90912 0.3887 0.61679 0.0
H957 H 0.93607 0.36901 0.60927 0.0
C958 C 0.06617 0.41874 0.57469 0.0
C959 C 0.05738 0.41468 0.54005 0.0
C960 C 0.05068 0.40292 0.6015 0.0
C961 C 0.02586 0.38348 0.59406 0.0
C962 C 0.01766 0.37846 0.55909 0.0
C963 C 0.03346 0.39384 0.53215 0.0
C964 C 0.00724 0.37171 0.62282 0.0
C965 C 0.98843 0.37868 0.62595 0.0
C966 C 0.00944 0.35633 0.64894 0.0
C967 C 0.02994 0.34966 0.64785 0.0
C968 C 0.03353 0.33825 0.61799 0.0
C969 C 0.05324 0.33254 0.61696 0.0
C970 C 0.06942 0.33804 0.64572 0.0
C971 C 0.06585 0.34916 0.67563 0.0
C972 C 0.04618 0.35491 0.67678 0.0
C973 C 0.91172 0.32801 0.73111 0.0
C974 C 0.92089 0.33456 0.76554 0.0
C975 C 0.92854 0.33285 0.70339 0.0
C976 C 0.95485 0.34454 0.70952 0.0
C977 C 0.96383 0.34922 0.7441 0.0
C978 C 0.947 0.34428 0.77189 0.0
C979 C 0.97303 0.35429 0.6798 0.0
C980 C -0.00798 0.34749 0.67691 0.0
C981 C 0.97186 0.37087 0.65461 0.0
C982 C 0.95516 0.38217 0.65919 0.0
C983 C 0.95708 0.39618 0.68953 0.0
C984 C 0.94172 0.40723 0.69358 0.0
C985 C 0.92453 0.4046 0.66731 0.0
C986 C 0.92251 0.39076 0.63706 0.0
C987 C 0.93782 0.37965 0.63289 0.0
H988 H 0.91284 0.41338 0.67034 0.0
H989 H 0.08468 0.33364 0.64485 0.0
H990 H 0.58244 0.91457 0.12757 0.0
H991 H 0.60815 0.93981 0.0772 0.0
H992 H 0.56135 0.97484 0.06836 0.0
H993 H 0.53617 0.95035 0.11792 0.0
H994 H 0.56613 0.95408 0.00611 0.0
H995 H 0.61772 0.00698 0.10296 0.0
H996 H 0.64478 0.01631 0.15532 0.0
H997 H 0.69733 0.00267 0.09682 0.0
H998 H 0.67034 0.99289 0.04421 0.0
H999 H 0.61003 0.0712 0.93713 0.0
H1000 H 0.60939 0.04396 0.98453 0.0
H1001 H 0.64865 0.01647 0.91931 0.0
H1002 H 0.64933 0.04394 0.87122 0.0
H1003 H 0.65503 0.02581 0.01048 0.0
H1004 H 0.60174 0.97787 0.90936 0.0
H1005 H 0.57358 0.97363 0.86 0.0
H1006 H 0.52261 0.98117 0.93057 0.0
H1007 H 0.55075 0.986 0.98023 0.0
C1008 C 0.57787 0.92783 0.11493 0.0
C1009 C 0.55708 0.93024 0.12641 0.0
C1010 C 0.59252 0.94219 0.08627 0.0
C1011 C 0.58646 0.95899 0.06895 0.0
C1012 C 0.56619 0.9618 0.08112 0.0
C1013 C 0.55177 0.9477 0.10952 0.0
C1014 C 0.60017 0.97339 0.03732 0.0
C1015 C 0.58578 0.96938 0.0068 0.0
C1016 C 0.62583 0.99323 0.03815 0.0
C1017 C 0.6418 -0.00125 0.06986 0.0
C1018 C 0.63487 0.00564 0.1014 0.0
C1019 C 0.65023 0.01109 0.13108 0.0
C1020 C 0.67269 0.00995 0.12945 0.0
C1021 C 0.67987 0.00344 0.09809 0.0
C1022 C 0.66455 -0.00207 0.06834 0.0
C1023 C 0.61938 0.06008 0.93325 0.0
C1024 C 0.62937 0.05931 0.90044 0.0
C1025 C 0.61909 0.04461 0.9604 0.0
C1026 C 0.6287 0.02807 0.95516 0.0
C1027 C 0.6412 0.02922 0.92372 0.0
C1028 C 0.6416 0.04489 0.89635 0.0
C1029 C 0.62076 0.00665 0.97981 0.0
C1030 C 0.63595 0.00955 0.0091 0.0
C1031 C 0.59564 0.98587 0.97819 0.0
C1032 C 0.57849 0.98254 0.94842 0.0
C1033 C 0.58465 0.97887 0.91428 0.0
C1034 C 0.56868 0.97633 0.88626 0.0
C1035 C 0.54635 0.97719 0.89213 0.0
C1036 C 0.53992 0.98054 0.92605 0.0
C1037 C 0.55588 0.98318 0.95413 0.0
H1038 H 0.53401 0.97521 0.87041 0.0
H1039 H 0.68459 0.01422 0.15244 0.0
H1040 H 0.5953 0.59148 0.47285 0.0
H1041 H 0.59495 0.61027 0.41658 0.0
H1042 H 0.6557 0.59867 0.3799 0.0
H1043 H 0.65623 0.57968 0.43675 0.0
H1044 H 0.65456 0.64821 0.35614 0.0
H1045 H 0.60854 0.55729 0.35229 0.0
H1046 H 0.58007 0.5138 0.37419 0.0
H1047 H 0.51869 0.52986 0.38111 0.0
H1048 H 0.54688 0.57358 0.35975 0.0
H1049 H 0.59811 0.64864 0.18349 0.0
H1050 H 0.6223 0.64416 0.23218 0.0
H1051 H 0.56165 0.63112 0.30321 0.0
H1052 H 0.53747 0.63489 0.25469 0.0
H1053 H 0.57113 0.59129 0.30039 0.0
H1054 H 0.62114 0.6848 0.30853 0.0
H1055 H 0.65013 0.72692 0.28287 0.0
H1056 H 0.70517 0.70357 0.26193 0.0
H1057 H 0.67638 0.66122 0.28721 0.0
C1058 C 0.60908 0.59351 0.45322 0.0
C1059 C 0.62562 0.58389 0.45911 0.0
C1060 C 0.6089 0.60431 0.42109 0.0
C1061 C 0.62514 0.60564 0.39406 0.0
C1062 C 0.64312 0.5979 0.40056 0.0
C1063 C 0.64338 0.58709 0.43301 0.0
C1064 C 0.62025 0.61167 0.3583 0.0
C1065 C 0.6366 0.6356 0.34343 0.0
C1066 C 0.59697 0.59508 0.34157 0.0
C1067 C 0.57991 0.56881 0.35464 0.0
C1068 C 0.58905 0.55164 0.35881 0.0
C1069 C 0.57294 0.52693 0.37105 0.0
C1070 C 0.54761 0.51911 0.37907 0.0
C1071 C 0.53832 0.53597 0.37488 0.0
C1072 C 0.55435 0.56071 0.36266 0.0
C1073 C 0.59064 0.64605 0.20985 0.0
C1074 C 0.56616 0.6424 0.21572 0.0
C1075 C 0.60432 0.64327 0.23755 0.0
C1076 C 0.59364 0.63705 0.27125 0.0
C1077 C 0.57019 0.63577 0.27741 0.0
C1078 C 0.55651 0.63823 0.24984 0.0
C1079 C 0.60466 0.62846 0.29926 0.0
C1080 C 0.58938 0.60378 0.31255 0.0
C1081 C 0.62908 0.64417 0.31381 0.0
C1082 C 0.64656 0.66982 0.29952 0.0
C1083 C 0.63939 0.68863 0.29833 0.0
C1084 C 0.65578 0.71254 0.28388 0.0
C1085 C 0.67945 0.7179 0.27071 0.0
C1086 C 0.68683 0.6994 0.27213 0.0
C1087 C 0.6705 0.67546 0.28658 0.0
H1088 H 0.69209 0.73641 0.25947 0.0
H1089 H 0.53514 0.49997 0.38841 0.0
H1090 H 0.00145 0.58003 0.78242 0.0
H1091 H 0.9867 0.58127 0.7237 0.0
H1092 H 0.03749 0.66238 0.71901 0.0
H1093 H 0.05302 0.66134 0.77839 0.0
H1094 H 0.97607 0.63306 0.69409 0.0
H1095 H 0.05973 0.64487 0.67213 0.0
H1096 H 0.09586 0.63732 0.68025 0.0
H1097 H 0.04766 0.55815 0.65605 0.0
H1098 H 0.01114 0.56512 0.64829 0.0
H1099 H 0.92647 0.59061 0.51576 0.0
H1100 H 0.95429 0.61778 0.56341 0.0
H1101 H 0.95525 0.55267 0.6079 0.0
H1102 H 0.92833 0.52605 0.56107 0.0
H1103 H 0.00223 0.592 0.6036 0.0
H1104 H 0.91833 0.57716 0.64144 0.0
H1105 H 0.8799 0.58125 0.63621 0.0
H1106 H 0.92637 0.66272 0.63273 0.0
H1107 H 0.96508 0.65906 0.63765 0.0
C1108 C 0.00941 0.59827 0.76927 0.0
C1109 C 0.02853 0.62058 0.78511 0.0
C1110 C 0.00093 0.5989 0.73563 0.0
C1111 C 0.01115 0.62183 0.71703 0.0
C1112 C 0.02943 0.64448 0.73307 0.0
C1113 C 0.03818 0.64385 0.76696 0.0
C1114 C 0.00288 0.62096 0.68036 0.0
C1115 C 0.98231 0.62492 0.67372 0.0
C1116 C 0.01083 0.60997 0.65417 0.0
C1117 C 0.03264 0.60554 0.65972 0.0
C1118 C 0.05675 0.6258 0.66892 0.0
C1119 C 0.07733 0.62163 0.67335 0.0
C1120 C 0.07406 0.59728 0.66855 0.0
C1121 C 0.05017 0.57701 0.65963 0.0
C1122 C 0.02954 0.58108 0.65517 0.0
C1123 C 0.93266 0.58223 0.53583 0.0
C1124 C 0.9255 0.55626 0.53432 0.0
C1125 C 0.94851 0.59773 0.56301 0.0
C1126 C 0.95714 0.58733 0.58906 0.0
C1127 C 0.94929 0.56129 0.58785 0.0
C1128 C 0.93379 0.54603 0.56093 0.0
C1129 C 0.97448 0.60278 0.6179 0.0
C1130 C -0.0033 0.60132 0.62314 0.0
C1131 C 0.9678 0.61572 0.64289 0.0
C1132 C 0.94457 0.61782 0.63934 0.0
C1133 C 0.92034 0.59592 0.63918 0.0
C1134 C 0.89852 0.59817 0.63638 0.0
C1135 C 0.9007 0.62223 0.63397 0.0
C1136 C 0.92471 0.6441 0.63447 0.0
C1137 C 0.94659 0.64195 0.63727 0.0
H1138 H 0.88378 0.62393 0.63185 0.0
H1139 H 0.09004 0.59412 0.67161 0.0
H1140 H 0.48436 0.08999 0.24907 0.0
H1141 H 0.5229 0.09179 0.27214 0.0
H1142 H 0.4768 0.02021 0.32523 0.0
H1143 H 0.43824 0.01867 0.30256 0.0
H1144 H 0.52518 0.04757 0.35494 0.0
H1145 H 0.48375 0.01421 0.2434 0.0
H1146 H 0.46532 0.0151 0.18621 0.0
H1147 H 0.53618 0.07994 0.15555 0.0
H1148 H 0.5549 0.07961 0.21302 0.0
H1149 H 0.50387 0.93579 0.29092 0.0
H1150 H 0.51018 0.9769 0.31086 0.0
H1151 H 0.58666 0.01439 0.26983 0.0
H1152 H 0.58038 0.97302 0.25006 0.0
H1153 H 0.54991 0.0274 0.24068 0.0
H1154 H 0.58845 0.03496 0.35378 0.0
H1155 H 0.59402 0.01333 0.40478 0.0
H1156 H 0.5139 0.97737 0.42622 0.0
H1157 H 0.50812 -0.00062 0.37612 0.0
C1158 C 0.48258 0.07525 0.26692 0.0
C1159 C 0.45873 0.05387 0.27363 0.0
C1160 C 0.50451 0.07647 0.28041 0.0
C1161 C 0.50264 0.0559 0.29971 0.0
C1162 C 0.47858 0.03628 0.31035 0.0
C1163 C 0.45659 0.03517 0.29708 0.0
C1164 C 0.52374 0.05041 0.29883 0.0
C1165 C 0.53142 0.04399 0.33005 0.0
C1166 C 0.53182 0.04565 0.26626 0.0
C1167 C 0.52053 0.04718 0.23258 0.0
C1168 C 0.49525 0.0289 0.22463 0.0
C1169 C 0.48479 0.02924 0.1922 0.0
C1170 C 0.49956 0.04756 0.16729 0.0
C1171 C 0.52475 0.0658 0.17495 0.0
C1172 C 0.53529 0.0656 0.20749 0.0
C1173 C 0.5222 0.95274 0.28706 0.0
C1174 C 0.54168 0.95149 0.26927 0.0
C1175 C 0.52598 0.97611 0.29886 0.0
C1176 C 0.54914 -0.00145 0.29253 0.0
C1177 C 0.56896 -0.0028 0.27572 0.0
C1178 C 0.5653 0.97368 0.2644 0.0
C1179 C 0.54967 0.023 0.29647 0.0
C1180 C 0.54603 0.03327 0.26571 0.0
C1181 C 0.54409 0.02992 0.32909 0.0
C1182 C 0.54795 0.0191 0.36163 0.0
C1183 C 0.57215 0.0228 0.36989 0.0
C1184 C 0.57534 0.01042 0.39868 0.0
C1185 C 0.55439 -0.00595 0.41911 0.0
C1186 C 0.53026 0.99033 0.41099 0.0
C1187 C 0.52704 0.00296 0.38257 0.0
H1188 H 0.55684 0.98414 0.44104 0.0
H1189 H 0.4915 0.04738 0.14196 0.0
H1190 H 0.38853 0.49094 0.62294 0.0
H1191 H 0.42564 0.50308 0.65976 0.0
H1192 H 0.4209 0.43076 0.6386 0.0
H1193 H 0.38191 0.41756 0.60467 0.0
H1194 H 0.45044 0.4511 0.69304 0.0
H1195 H 0.44722 0.4735 0.57803 0.0
H1196 H 0.43111 0.48667 0.5275 0.0
H1197 H 0.45886 0.5606 0.57337 0.0
H1198 H 0.47483 0.54766 0.62455 0.0
H1199 H 0.55551 0.48289 0.58774 0.0
H1200 H 0.51603 0.46995 0.61918 0.0
H1201 H 0.55251 0.53941 0.67944 0.0
H1202 H 0.59256 0.55217 0.64843 0.0
H1203 H 0.5097 0.52705 0.6236 0.0
H1204 H 0.51879 0.49034 0.73952 0.0
H1205 H 0.54228 0.46964 0.76128 0.0
H1206 H 0.50876 0.4127 0.68095 0.0
H1207 H 0.48373 0.43218 0.66035 0.0
C1208 C 0.39445 0.47705 0.62825 0.0
C1209 C 0.38269 0.45343 0.6115 0.0
C1210 C 0.41556 0.48392 0.64925 0.0
C1211 C 0.42627 0.46808 0.65107 0.0
C1212 C 0.4129 0.44327 0.63743 0.0
C1213 C 0.391 0.43592 0.61761 0.0
C1214 C 0.45382 0.47992 0.6568 0.0
C1215 C 0.46341 0.46834 0.67918 0.0
C1216 C 0.47074 0.50117 0.63621 0.0
C1217 C 0.46188 0.50953 0.60529 0.0
C1218 C 0.44977 0.49254 0.5774 0.0
C1219 C 0.44066 0.49994 0.54867 0.0
C1220 C 0.44386 0.52443 0.5473 0.0
C1221 C 0.45632 0.54161 0.57457 0.0
C1222 C 0.46542 0.53426 0.60346 0.0
C1223 C 0.55532 0.49486 0.60868 0.0
C1224 C 0.57665 0.51854 0.61561 0.0
C1225 C 0.53294 0.48737 0.6269 0.0
C1226 C 0.53163 0.50364 0.65186 0.0
C1227 C 0.55348 0.52648 0.66076 0.0
C1228 C 0.57618 0.53375 0.64297 0.0
C1229 C 0.50632 0.49913 0.66132 0.0
C1230 C 0.49684 0.51157 0.64058 0.0
C1231 C 0.48959 0.47752 0.681 0.0
C1232 C 0.49933 0.46251 0.69872 0.0
C1233 C 0.51583 0.4729 0.72735 0.0
C1234 C 0.52952 0.46146 0.7393 0.0
C1235 C 0.52738 0.44011 0.72206 0.0
C1236 C 0.51041 0.42925 0.69422 0.0
C1237 C 0.49606 0.44015 0.68289 0.0
H1238 H 0.5388 0.43189 0.73018 0.0
H1239 H 0.43675 0.53012 0.52506 0.0
H1240 H 0.98095 0.41357 0.92339 0.0
H1241 H 0.00102 0.45092 0.96167 0.0
H1242 H 0.9268 0.43795 0.99194 0.0
H1243 H 0.90718 0.40279 0.95015 0.0
H1244 H 0.95299 0.48167 0.97024 0.0
H1245 H 0.97285 0.43028 0.04436 0.0
H1246 H 0.99065 0.40296 0.05907 0.0
H1247 H 0.06569 0.46322 0.03449 0.0
H1248 H 0.04858 0.49131 0.01973 0.0
H1249 H 0.02623 0.60448 0.99404 0.0
H1250 H 0.00811 0.56775 0.03375 0.0
H1251 H 0.04934 0.5371 0.97921 0.0
H1252 H 0.06693 0.57332 0.93952 0.0
H1253 H 0.02951 0.51331 0.04542 0.0
H1254 H 0.00252 0.52688 0.92733 0.0
H1255 H -0.00353 0.55473 0.88584 0.0
H1256 H 0.9508 0.56618 0.96161 0.0
H1257 H 0.95674 0.53839 0.00365 0.0
C1258 C 0.96912 0.41878 0.93856 0.0
C1259 C 0.94267 0.40532 0.935 0.0
C1260 C 0.98046 0.43963 0.96101 0.0
C1261 C 0.9653 0.44651 0.98095 0.0
C1262 C 0.93873 0.4324 0.97773 0.0
C1263 C 0.92756 0.41237 0.95416 0.0
C1264 C 0.97699 0.47118 -0.00071 0.0
C1265 C 0.96897 0.48814 0.98813 0.0
C1266 C -0.00127 0.47995 0.0211 0.0
C1267 C 0.00929 0.46323 0.03145 0.0
C1268 C -0.00681 0.43794 0.04224 0.0
C1269 C 0.00316 0.42212 0.05018 0.0
C1270 C 0.02923 0.43114 0.04733 0.0
C1271 C 0.04547 0.4562 0.03675 0.0
C1272 C 0.03562 0.47218 0.02879 0.0
C1273 C 0.03211 0.5903 0.99168 0.0
C1274 C 0.04676 0.59062 0.96313 0.0
C1275 C 0.02226 0.56972 0.01477 0.0
C1276 C 0.02684 0.54948 0.00859 0.0
C1277 C 0.04534 0.55242 0.98409 0.0
C1278 C 0.05487 0.57271 0.96086 0.0
C1279 C 0.0063 0.52324 0.01412 0.0
C1280 C 0.01229 0.50595 0.02988 0.0
C1281 C 0.98416 0.51413 0.99325 0.0
C1282 C 0.98026 0.53086 0.96863 0.0
C1283 C 0.9912 0.53539 0.93509 0.0
C1284 C 0.98782 0.55114 0.91152 0.0
C1285 C 0.97332 0.56229 0.92114 0.0
C1286 C 0.9621 0.5576 0.9543 0.0
C1287 C 0.96547 0.54186 0.97803 0.0
H1288 H 0.97073 0.5745 0.90286 0.0
H1289 H 0.03684 0.41878 0.05358 0.0
H1290 H 0.08994 0.50261 0.38246 0.0
H1291 H 0.07636 0.52601 0.34411 0.0
H1292 H 0.00511 0.45701 0.32606 0.0
H1293 H 0.01956 0.43322 0.36234 0.0
H1294 H 0.01424 0.49636 0.27664 0.0
H1295 H 0.00676 0.48102 0.40447 0.0
H1296 H 0.02525 0.47957 0.46146 0.0
H1297 H 0.08364 0.55765 0.44902 0.0
H1298 H 0.06542 0.55947 0.39181 0.0
H1299 H 0.90912 0.48273 0.36938 0.0
H1300 H 0.94406 0.48464 0.33453 0.0
H1301 H 0.98626 0.56635 0.34659 0.0
H1302 H 0.95146 0.56446 0.38123 0.0
H1303 H 0.00444 0.53838 0.38227 0.0
H1304 H 0.98203 0.54805 0.26952 0.0
H1305 H 0.95501 0.5414 0.21803 0.0
H1306 H 0.94417 0.46616 0.20494 0.0
H1307 H 0.97038 0.47191 0.25711 0.0
C1308 C 0.07186 0.49235 0.36897 0.0
C1309 C 0.05522 0.46654 0.376 0.0
C1310 C 0.06433 0.50556 0.34659 0.0
C1311 C 0.03943 0.49337 0.33335 0.0
C1312 C 0.02434 0.46678 0.33627 0.0
C1313 C 0.03232 0.45331 0.35756 0.0
C1314 C 0.02628 0.50819 0.32969 0.0
C1315 C 0.01217 0.50591 0.29935 0.0
C1316 C 0.02405 0.52093 0.35938 0.0
C1317 C 0.03493 0.52031 0.39389 0.0
C1318 C 0.02355 0.49786 0.41396 0.0
C1319 C 0.03396 0.49697 0.44624 0.0
C1320 C 0.05566 0.51849 0.4588 0.0
C1321 C 0.06687 0.54099 0.43919 0.0
C1322 C 0.0565 0.54198 0.40687 0.0
C1323 C 0.92562 0.50106 0.36369 0.0
C1324 C 0.928 0.52339 0.37802 0.0
C1325 C 0.94525 0.50225 0.34324 0.0
C1326 C 0.96753 0.52571 0.33767 0.0
C1327 C 0.96903 0.54819 0.35007 0.0
C1328 C 0.9494 0.54701 0.37028 0.0
C1329 C 0.99114 0.52548 0.32984 0.0
C1330 C 0.00734 0.53035 0.35846 0.0
C1331 C -0.00578 0.51427 0.29914 0.0
C1332 C 0.97823 0.51043 0.26757 0.0
C1333 C 0.97368 0.52994 0.256 0.0
C1334 C 0.95847 0.52633 0.22662 0.0
C1335 C 0.94785 0.50336 0.20824 0.0
C1336 C 0.95239 0.48394 0.21924 0.0
C1337 C 0.96745 0.48738 0.24877 0.0
H1338 H 0.93614 0.50065 0.18545 0.0
H1339 H 0.06375 0.51774 0.48375 0.0
H1340 H 0.38569 0.92977 0.66456 0.0
H1341 H 0.4167 0.96538 0.62988 0.0
H1342 H 0.46116 -0.00086 0.72315 0.0
H1343 H 0.42935 0.96434 0.75833 0.0
H1344 H 0.46877 0.03558 0.67211 0.0
H1345 H 0.47119 0.95097 0.68226 0.0
H1346 H 0.44768 0.9045 0.67215 0.0
H1347 H 0.42785 0.91656 0.5687 0.0
H1348 H 0.45188 0.96307 0.57799 0.0
H1349 H 0.54535 0.02373 0.76594 0.0
H1350 H 0.51216 0.01553 0.72412 0.0
H1351 H 0.56386 0.02966 0.63869 0.0
H1352 H 0.59785 0.03795 0.6809 0.0
H1353 H 0.5127 0.99014 0.62942 0.0
H1354 H 0.54842 0.08086 0.64593 0.0
H1355 H 0.57429 0.11885 0.6825 0.0
H1356 H 0.51901 0.08655 0.7648 0.0
H1357 H 0.49324 0.04844 0.72885 0.0
C1358 C 0.40155 0.94529 0.67792 0.0
C1359 C 0.40541 0.94413 0.7141 0.0
C1360 C 0.41917 0.9657 0.65798 0.0
C1361 C 0.4413 0.9847 0.6738 0.0
C1362 C 0.44405 0.98471 0.7104 0.0
C1363 C 0.42617 0.96456 0.73045 0.0
C1364 C 0.46437 0.00022 0.65303 0.0
C1365 C 0.47847 0.02618 0.66116 0.0
C1366 C 0.47672 0.98807 0.63728 0.0
C1367 C 0.46318 0.96032 0.63077 0.0
C1368 C 0.46199 0.94362 0.65725 0.0
C1369 C 0.44863 0.91732 0.65168 0.0
C1370 C 0.43645 0.90758 0.6197 0.0
C1371 C 0.43753 0.92412 0.5933 0.0
C1372 C 0.45104 0.95045 0.59867 0.0
C1373 C 0.54984 0.02513 0.73831 0.0
C1374 C 0.57462 0.03331 0.72657 0.0
C1375 C 0.53096 0.02081 0.71444 0.0
C1376 C 0.53662 0.02486 0.67861 0.0
C1377 C 0.56009 0.02891 0.66643 0.0
C1378 C 0.5792 0.03322 0.69049 0.0
C1379 C 0.51683 0.02353 0.65511 0.0
C1380 C 0.50325 0.00072 0.63671 0.0
C1381 C 0.50495 0.0379 0.66392 0.0
C1382 C 0.51894 0.0619 0.68441 0.0
C1383 C 0.54191 0.08198 0.67175 0.0
C1384 C 0.55653 0.10349 0.69241 0.0
C1385 C 0.5483 0.10511 0.72597 0.0
C1386 C 0.52532 0.08535 0.73873 0.0
C1387 C 0.51062 0.06386 0.71808 0.0
H1388 H 0.55973 0.12166 0.74208 0.0
H1389 H 0.42626 0.88726 0.61537 0.0
H1390 H 0.54981 0.60569 0.01147 0.0
H1391 H 0.55055 0.57136 0.97934 0.0
H1392 H 0.55187 0.53614 0.07694 0.0
H1393 H 0.55002 0.57002 0.10925 0.0
H1394 H 0.57659 0.52624 0.01322 0.0
H1395 H 0.49849 0.51846 0.0639 0.0
H1396 H 0.4697 0.53541 0.07581 0.0
H1397 H 0.46195 0.54327 0.96568 0.0
H1398 H 0.49212 0.52795 0.95307 0.0
H1399 H 0.4946 0.42088 0.09446 0.0
H1400 H 0.52555 0.45728 0.06188 0.0
H1401 H 0.47571 0.43292 0.97184 0.0
H1402 H 0.44378 0.39653 0.00559 0.0
H1403 H 0.48371 0.47551 0.99142 0.0
H1404 H 0.54345 0.44997 0.96512 0.0
H1405 H 0.56699 0.42692 0.97554 0.0
H1406 H 0.60548 0.47575 0.06265 0.0
H1407 H 0.58159 0.49837 0.05362 0.0
C1408 C 0.55067 0.59093 0.02609 0.0
C1409 C 0.54871 0.58986 0.06274 0.0
C1410 C 0.55171 0.57165 0.00765 0.0
C1411 C 0.5513 0.55137 0.02585 0.0
C1412 C 0.55248 0.55188 0.06254 0.0
C1413 C 0.55077 0.57083 0.08092 0.0
C1414 C 0.54144 0.52662 0.00859 0.0
C1415 C 0.55641 0.51494 0.00764 0.0
C1416 C 0.51524 0.51241 0.00072 0.0
C1417 C 0.49787 0.52255 0.0076 0.0
C1418 C 0.49108 0.52437 0.04223 0.0
C1419 C 0.47464 0.5338 0.04908 0.0
C1420 C 0.46435 0.54085 0.02143 0.0
C1421 C 0.47052 0.53846 0.98695 0.0
C1422 C 0.48739 0.52954 0.97993 0.0
C1423 C 0.49038 0.42299 0.0675 0.0
C1424 C 0.46664 0.40632 0.05271 0.0
C1425 C 0.5085 0.44351 0.04838 0.0
C1426 C 0.50334 0.44776 0.01393 0.0
C1427 C 0.48027 0.4299 -0.00179 0.0
C1428 C 0.46196 0.40935 0.01757 0.0
C1429 C 0.51817 0.47389 -0.00033 0.0
C1430 C 0.50425 0.48645 0.99416 0.0
C1431 C 0.54499 0.4884 0.00386 0.0
C1432 C 0.56062 0.47586 0.00849 0.0
C1433 C 0.55684 0.45565 0.98654 0.0
C1434 C 0.57019 0.44263 0.99231 0.0
C1435 C 0.58766 0.44984 0.01976 0.0
C1436 C 0.59195 0.47019 0.04137 0.0
C1437 C 0.57851 0.48315 0.03587 0.0
H1438 H 0.59793 0.4397 0.02424 0.0
H1439 H 0.4514 0.54792 0.02667 0.0
H1440 H 0.31705 0.91577 0.60053 0.0
H1441 H 0.322 0.94425 0.55246 0.0
H1442 H 0.35888 0.00888 0.62157 0.0
H1443 H 0.3546 0.98038 0.6702 0.0
H1444 H 0.30917 0.98853 0.54734 0.0
H1445 H 0.39998 0.03124 0.59196 0.0
H1446 H 0.43919 0.03281 0.61345 0.0
H1447 H 0.43151 0.97842 0.5354 0.0
H1448 H 0.39192 0.97599 0.51422 0.0
H1449 H 0.37454 0.06825 0.38938 0.0
H1450 H 0.35955 0.05527 0.44958 0.0
H1451 H 0.35761 0.98391 0.43263 0.0
H1452 H 0.37215 -0.00364 0.37268 0.0
H1453 H 0.39231 0.01983 0.48818 0.0
H1454 H 0.30581 0.97593 0.44305 0.0
H1455 H 0.26922 0.97419 0.41211 0.0
H1456 H 0.26855 0.02796 0.48474 0.0
H1457 H 0.30538 0.03024 0.51587 0.0
C1458 C 0.32586 0.93599 0.60582 0.0
C1459 C 0.33579 0.94586 0.63907 0.0
C1460 C 0.3286 0.95222 0.5783 0.0
C1461 C 0.34116 0.9786 0.58346 0.0
C1462 C 0.34948 0.98854 0.6171 0.0
C1463 C 0.34683 0.97223 0.64484 0.0
C1464 C 0.34744 -0.00488 0.55242 0.0
C1465 C 0.32762 -0.00376 0.53484 0.0
C1466 C 0.37125 0.00446 0.53578 0.0
C1467 C 0.39276 0.00309 0.55197 0.0
C1468 C 0.40621 0.01901 0.58018 0.0
C1469 C 0.42862 0.0202 0.59212 0.0
C1470 C 0.43786 0.00578 0.57572 0.0
C1471 C 0.42431 0.98952 0.54815 0.0
C1472 C 0.40183 0.98813 0.5363 0.0
C1473 C 0.37019 0.04948 0.39816 0.0
C1474 C 0.37488 0.03346 0.37643 0.0
C1475 C 0.36165 0.04215 0.43251 0.0
C1476 C 0.35773 0.01878 0.44536 0.0
C1477 C 0.36061 0.00206 0.423 0.0
C1478 C 0.36891 0.00922 0.38873 0.0
C1479 C 0.35403 0.01288 0.48303 0.0
C1480 C 0.37428 0.01344 0.50141 0.0
C1481 C 0.33061 0.00488 0.50007 0.0
C1482 C 0.30855 0.00355 0.48144 0.0
C1483 C 0.29804 0.9876 0.45217 0.0
C1484 C 0.27721 0.98645 0.43468 0.0
C1485 C 0.26663 0.00104 0.44636 0.0
C1486 C 0.27681 0.01673 0.47566 0.0
C1487 C 0.29764 0.01795 0.49326 0.0
H1488 H 0.2505 0.00012 0.43279 0.0
H1489 H 0.45567 0.00743 0.58399 0.0
H1490 H 0.36789 0.33361 0.96054 0.0
H1491 H 0.34629 0.3412 0.9117 0.0
H1492 H 0.397 0.33444 0.83897 0.0
H1493 H 0.41861 0.32672 0.88743 0.0
H1494 H 0.39559 0.38041 0.83435 0.0
H1495 H 0.33674 0.28915 0.84099 0.0
H1496 H 0.30625 0.24974 0.87158 0.0
H1497 H 0.25901 0.28222 0.8948 0.0
H1498 H 0.28938 0.32195 0.86466 0.0
H1499 H 0.34782 0.37849 0.6675 0.0
H1500 H 0.35889 0.36404 0.72083 0.0
H1501 H 0.30498 0.37622 0.77918 0.0
H1502 H 0.29408 0.39136 0.72581 0.0
H1503 H 0.30563 0.33 0.79604 0.0
H1504 H 0.35975 0.41848 0.78512 0.0
H1505 H 0.39029 0.46054 0.7611 0.0
H1506 H 0.44708 0.438 0.75399 0.0
H1507 H 0.41651 0.39534 0.77607 0.0
C1508 C 0.37411 0.33323 0.93409 0.0
C1509 C 0.39508 0.32976 0.92783 0.0
C1510 C 0.36172 0.33753 0.90627 0.0
C1511 C 0.37016 0.33846 0.87187 0.0
C1512 C 0.39029 0.33382 0.86543 0.0
C1513 C 0.40254 0.32932 0.89314 0.0
C1514 C 0.35962 0.34647 0.84282 0.0
C1515 C 0.37606 0.36923 0.82546 0.0
C1516 C 0.33375 0.33252 0.83293 0.0
C1517 C 0.31546 0.3086 0.85087 0.0
C1518 C 0.31996 0.28796 0.85286 0.0
C1519 C 0.30267 0.26555 0.87005 0.0
C1520 C 0.28074 0.2635 0.8852 0.0
C1521 C 0.27602 0.28384 0.88308 0.0
C1522 C 0.29324 0.30629 0.86591 0.0
C1523 C 0.33784 0.37757 0.69144 0.0
C1524 C 0.32013 0.38616 0.69251 0.0
C1525 C 0.34438 0.36953 0.72193 0.0
C1526 C 0.33305 0.36954 0.75387 0.0
C1527 C 0.31402 0.37631 0.7547 0.0
C1528 C 0.30778 0.38483 0.72424 0.0
C1529 C 0.34198 0.36337 0.78639 0.0
C1530 C 0.32522 0.34117 0.80471 0.0
C1531 C 0.36755 0.37816 0.79761 0.0
C1532 C 0.38553 0.40336 0.78178 0.0
C1533 C 0.37849 0.42216 0.77753 0.0
C1534 C 0.39586 0.4462 0.76429 0.0
C1535 C 0.42055 0.4519 0.75573 0.0
C1536 C 0.42787 0.43351 0.76023 0.0
C1537 C 0.41046 0.40933 0.77294 0.0
H1538 H 0.43404 0.4706 0.74582 0.0
H1539 H 0.26739 0.24614 0.89852 0.0
H1540 H 0.92652 0.35233 0.07015 0.0
H1541 H 0.94501 0.35473 0.1276 0.0
H1542 H 0.00971 0.35542 0.07932 0.0
H1543 H 0.99132 0.35346 0.02108 0.0
H1544 H 0.98914 0.32017 0.13188 0.0
H1545 H 0.02078 0.40911 0.12092 0.0
H1546 H 0.02682 0.45251 0.11614 0.0
H1547 H 0.97119 0.43531 0.19643 0.0
H1548 H 0.96473 0.39184 0.20168 0.0
H1549 H 0.0693 0.37423 0.28418 0.0
H1550 H 0.04757 0.35624 0.22887 0.0
H1551 H 0.97693 0.34339 0.27394 0.0
H1552 H -0.00155 0.36111 0.32949 0.0
H1553 H 0.00105 0.38344 0.2229 0.0
H1554 H 0.97515 0.29544 0.23766 0.0
H1555 H 0.98104 0.25885 0.25117 0.0
H1556 H 0.03394 0.2792 0.16614 0.0
H1557 H 0.02865 0.31615 0.15239 0.0
C1558 C 0.94464 0.35286 0.07168 0.0
C1559 C 0.95738 0.35236 0.0412 0.0
C1560 C 0.95535 0.35461 0.10454 0.0
C1561 C 0.97881 0.3555 0.10769 0.0
C1562 C -0.00839 0.35488 0.07734 0.0
C1563 C 0.98108 0.35362 0.0442 0.0
C1564 C 0.9886 0.35488 0.14292 0.0
C1565 C -0.0079 0.33422 0.15169 0.0
C1566 C -0.00814 0.37288 0.16896 0.0
C1567 C -0.00796 0.39705 0.1613 0.0
C1568 C 0.0093 0.41432 0.13685 0.0
C1569 C 0.01304 0.43905 0.13438 0.0
C1570 C -0.0004 0.44669 0.15619 0.0
C1571 C 0.98178 0.42942 0.17979 0.0
C1572 C 0.97801 0.40472 0.18242 0.0
C1573 C 0.04889 0.36645 0.28279 0.0
C1574 C 0.03564 0.36965 0.31071 0.0
C1575 C 0.03648 0.35601 0.25124 0.0
C1576 C 0.01077 0.34882 0.24734 0.0
C1577 C -0.00319 0.34884 0.27662 0.0
C1578 C 0.00915 0.359 0.30833 0.0
C1579 C 0.00093 0.34856 0.21196 0.0
C1580 C -0.00236 0.3692 0.20314 0.0
C1581 C -0.00162 0.3309 0.18598 0.0
C1582 C 0.00167 0.30872 0.19419 0.0
C1583 C 0.98824 0.29228 0.22205 0.0
C1584 C 0.99142 0.27143 0.2297 0.0
C1585 C 0.0079 0.26674 0.20958 0.0
C1586 C 0.02119 0.28287 0.18172 0.0
C1587 C 0.01808 0.30375 0.17395 0.0
H1588 H 0.01034 0.25058 0.21555 0.0
H1589 H 0.00279 0.46593 0.15452 0.0
H1590 H 0.66283 0.09381 0.57284 0.0
H1591 H 0.65429 0.06598 0.52251 0.0
H1592 H 0.65121 0.00727 0.58995 0.0
H1593 H 0.65954 0.03498 0.64081 0.0
H1594 H 0.67667 0.01185 0.52784 0.0
H1595 H 0.59738 -0.00279 0.56507 0.0
H1596 H 0.56188 0.00296 0.58494 0.0
H1597 H 0.56557 0.04216 0.48949 0.0
H1598 H 0.60138 0.03696 0.46918 0.0
H1599 H 0.60977 0.92324 0.38481 0.0
H1600 H 0.62405 0.94395 0.44169 0.0
H1601 H 0.63814 0.01516 0.39647 0.0
H1602 H 0.6236 -0.00542 0.33952 0.0
H1603 H 0.60248 -0.00446 0.45455 0.0
H1604 H 0.68705 0.00761 0.42217 0.0
H1605 H 0.71423 0.98963 0.40539 0.0
H1606 H 0.69169 0.94344 0.49819 0.0
H1607 H 0.6642 0.96098 0.51533 0.0
C1608 C 0.66096 0.07523 0.57695 0.0
C1609 C 0.66175 0.06648 0.61073 0.0
C1610 C 0.65578 0.05927 0.54824 0.0
C1611 C 0.65163 0.03449 0.55284 0.0
C1612 C 0.65415 0.02629 0.58613 0.0
C1613 C 0.65902 0.04215 0.615 0.0
C1614 C 0.64422 0.01726 0.5226 0.0
C1615 C 0.66037 0.00815 0.51187 0.0
C1616 C 0.62244 0.01175 0.50259 0.0
C1617 C 0.60228 0.01687 0.5157 0.0
C1618 C 0.59097 0.00748 0.54855 0.0
C1619 C 0.57071 0.01055 0.55985 0.0
C1620 C 0.56151 0.02293 0.53852 0.0
C1621 C 0.57275 0.03257 0.506 0.0
C1622 C 0.59303 0.02956 0.49457 0.0
C1623 C 0.61656 0.94348 0.38677 0.0
C1624 C 0.61538 0.95729 0.35785 0.0
C1625 C 0.6247 0.95523 0.41925 0.0
C1626 C 0.63189 0.98094 0.42311 0.0
C1627 C 0.6325 -0.00479 0.39379 0.0
C1628 C 0.62442 0.9835 0.36126 0.0
C1629 C 0.63626 0.99242 0.45812 0.0
C1630 C 0.61905 -0.0002 0.47019 0.0
C1631 C 0.65641 -0.00459 0.47988 0.0
C1632 C 0.67349 0.9855 0.4699 0.0
C1633 C 0.68783 0.99356 0.43891 0.0
C1634 C 0.7033 0.98345 0.42935 0.0
C1635 C 0.70466 0.96538 0.45068 0.0
C1636 C 0.69063 0.95744 0.4817 0.0
C1637 C 0.67515 0.9675 0.49137 0.0
H1638 H 0.7166 0.95754 0.4432 0.0
H1639 H 0.54549 0.0248 0.54706 0.0
H1640 H 0.63002 0.63796 0.98665 0.0
H1641 H 0.64654 0.63172 0.93125 0.0
H1642 H 0.60845 0.6651 0.87517 0.0
H1643 H 0.59209 0.6716 0.93009 0.0
H1644 H 0.59564 0.61563 0.85285 0.0
H1645 H 0.67071 0.69689 0.87866 0.0
H1646 H 0.70618 0.72608 0.91677 0.0
H1647 H 0.73469 0.67375 0.91818 0.0
H1648 H 0.6992 0.6441 0.88035 0.0
H1649 H 0.63346 0.61608 0.68094 0.0
H1650 H 0.63079 0.6341 0.73697 0.0
H1651 H 0.67316 0.60278 0.78674 0.0
H1652 H 0.67592 0.58468 0.73087 0.0
H1653 H 0.68496 0.65019 0.81383 0.0
H1654 H 0.61283 0.56926 0.79017 0.0
H1655 H 0.57625 0.53603 0.75748 0.0
H1656 H 0.54092 0.58243 0.75731 0.0
H1657 H 0.57752 0.61617 0.78944 0.0
C1658 C 0.62578 0.64464 0.96263 0.0
C1659 C 0.60956 0.65505 0.9627 0.0
C1660 C 0.63514 0.64097 0.93103 0.0
C1661 C 0.62846 0.64776 0.89923 0.0
C1662 C 0.61361 0.65958 0.89948 0.0
C1663 C 0.60438 0.66335 0.93092 0.0
C1664 C 0.63509 0.64073 0.86546 0.0
C1665 C 0.61514 0.6235 0.84399 0.0
C1666 C 0.66055 0.65015 0.85488 0.0
C1667 C 0.68222 0.66822 0.87688 0.0
C1668 C 0.68448 0.69156 0.88723 0.0
C1669 C 0.7046 0.70819 0.90876 0.0
C1670 C 0.72265 0.70175 0.91994 0.0
C1671 C 0.72069 0.67871 0.90949 0.0
C1672 C 0.70061 0.66201 0.88796 0.0
C1673 C 0.64286 0.61367 0.70356 0.0
C1674 C 0.65459 0.59868 0.70168 0.0
C1675 C 0.64119 0.62383 0.73557 0.0
C1676 C 0.65137 0.6193 0.76598 0.0
C1677 C 0.66508 0.60634 0.76355 0.0
C1678 C 0.66658 0.59598 0.73164 0.0
C1679 C 0.64545 0.62578 0.80066 0.0
C1680 C 0.66545 0.64254 0.82249 0.0
C1681 C 0.61997 0.61547 0.81199 0.0
C1682 C 0.59813 0.59544 0.79187 0.0
C1683 C 0.59745 0.57256 0.78276 0.0
C1684 C 0.57666 0.55358 0.76442 0.0
C1685 C 0.5563 0.55713 0.75531 0.0
C1686 C 0.55673 0.57971 0.76437 0.0
C1687 C 0.5775 0.59878 0.78264 0.0
H1688 H 0.54013 0.54236 0.74136 0.0
H1689 H 0.73819 0.71463 0.93666 0.0
H1690 H 0.0624 0.68565 0.04721 0.0
H1691 H 0.03189 0.68745 0.08808 0.0
H1692 H 0.01363 0.61377 0.12902 0.0
H1693 H 0.04372 0.61191 0.08928 0.0
H1694 H 0.9708 0.61763 0.11452 0.0
H1695 H 0.05368 0.66269 0.17328 0.0
H1696 H 0.09835 0.69722 0.17699 0.0
H1697 H 0.07433 0.75296 0.16917 0.0
H1698 H 0.02947 0.71863 0.16502 0.0
H1699 H 0.96744 0.5839 0.28206 0.0
H1700 H 0.98832 0.61192 0.23254 0.0
H1701 H 0.9355 0.64009 0.23785 0.0
H1702 H 0.9143 0.61189 0.28804 0.0
H1703 H 0.00381 0.67324 0.21909 0.0
H1704 H 0.91406 0.61346 0.18074 0.0
H1705 H 0.8757 0.57106 0.1864 0.0
H1706 H 0.9199 0.53522 0.16318 0.0
H1707 H 0.95851 0.57736 0.15774 0.0
C1708 C 0.05188 0.66995 0.06509 0.0
C1709 C 0.05548 0.64869 0.06516 0.0
C1710 C 0.03442 0.67094 0.08812 0.0
C1711 C 0.02028 0.65053 0.11097 0.0
C1712 C 0.02406 0.62949 0.11109 0.0
C1713 C 0.04154 0.62862 0.0886 0.0
C1714 C 0.00253 0.65097 0.13688 0.0
C1715 C 0.97754 0.63041 0.13684 0.0
C1716 C 0.01155 0.66755 0.16594 0.0
C1717 C 0.03835 0.68819 0.16839 0.0
C1718 C 0.05798 0.68232 0.1721 0.0
C1719 C 0.0833 0.70183 0.17432 0.0
C1720 C 0.08918 0.72727 0.1732 0.0
C1721 C 0.06973 0.73324 0.16993 0.0
C1722 C 0.04436 0.71377 0.16762 0.0
C1723 C 0.96067 0.59654 0.27336 0.0
C1724 C 0.93911 0.59556 0.28845 0.0
C1725 C 0.97268 0.61262 0.24526 0.0
C1726 C 0.96327 0.62784 0.2317 0.0
C1727 C 0.94297 0.62847 0.24827 0.0
C1728 C 0.93096 0.6124 0.27679 0.0
C1729 C 0.97252 0.63936 0.19716 0.0
C1730 C -0.00394 0.66192 0.19557 0.0
C1731 C 0.96263 0.62391 0.16707 0.0
C1732 C 0.93914 0.59858 0.16877 0.0
C1733 C 0.91557 0.59653 0.17683 0.0
C1734 C 0.89379 0.57254 0.18003 0.0
C1735 C 0.89536 0.55046 0.17514 0.0
C1736 C 0.91869 0.55232 0.16687 0.0
C1737 C 0.9405 0.57626 0.16363 0.0
H1738 H 0.87851 0.53192 0.17778 0.0
H1739 H 0.10879 0.74236 0.17497 0.0
H1740 H 0.47426 0.06337 0.38026 0.0
H1741 H 0.49968 0.06578 0.43131 0.0
H1742 H 0.5476 0.14659 0.41521 0.0
H1743 H 0.52237 0.14435 0.36383 0.0
H1744 H 0.57507 0.12339 0.43714 0.0
H1745 H 0.50181 0.12806 0.4733 0.0
H1746 H 0.45605 0.11427 0.47439 0.0
H1747 H 0.43962 0.04214 0.51737 0.0
H1748 H 0.48526 0.05544 0.51669 0.0
H1749 H 0.61783 0.14924 0.61771 0.0
H1750 H 0.59625 0.15008 0.56369 0.0
H1751 H 0.5581 0.06824 0.55856 0.0
H1752 H 0.58092 0.0673 0.61077 0.0
H1753 H 0.52646 0.09469 0.54837 0.0
H1754 H 0.60031 0.09024 0.50873 0.0
H1755 H 0.64624 0.10494 0.50791 0.0
H1756 H 0.66174 0.17857 0.47191 0.0
H1757 H 0.61582 0.16434 0.47299 0.0
C1758 C 0.49039 0.08162 0.38727 0.0
C1759 C 0.49601 0.10376 0.36832 0.0
C1760 C 0.50488 0.08296 0.41649 0.0
C1761 C 0.5252 0.10646 0.42745 0.0
C1762 C 0.53189 0.1283 0.40732 0.0
C1763 C 0.5174 0.12698 0.37802 0.0
C1764 C 0.53819 0.1084 0.46122 0.0
C1765 C 0.5645 0.11744 0.46149 0.0
C1766 C 0.52438 0.10053 0.49303 0.0
C1767 C 0.49696 0.09269 0.49469 0.0
C1768 C 0.48842 0.10923 0.48297 0.0
C1769 C 0.4625 0.10151 0.48361 0.0
C1770 C 0.44492 0.07733 0.49604 0.0
C1771 C 0.45326 0.06088 0.50801 0.0
C1772 C 0.47916 0.06852 0.50758 0.0
C1773 C 0.60483 0.1314 0.60509 0.0
C1774 C 0.60067 0.10808 0.61902 0.0
C1775 C 0.59249 0.13193 0.57435 0.0
C1776 C 0.57552 0.10915 0.5574 0.0
C1777 C 0.57105 0.08592 0.57147 0.0
C1778 C 0.58394 0.08542 0.60148 0.0
C1779 C 0.56318 0.1094 0.5241 0.0
C1780 C 0.537 0.10079 0.52399 0.0
C1781 C 0.57712 0.11784 0.49257 0.0
C1782 C 0.60467 0.12631 0.4913 0.0
C1783 C 0.61352 0.10962 0.5009 0.0
C1784 C 0.63955 0.11785 0.50034 0.0
C1785 C 0.65692 0.1427 0.48996 0.0
C1786 C 0.64827 0.15933 0.47999 0.0
C1787 C 0.62224 0.15119 0.48054 0.0
H1788 H 0.67707 0.14906 0.48956 0.0
H1789 H 0.42484 0.07132 0.49639 0.0
H1790 H 0.33458 0.51261 0.7386 0.0
H1791 H 0.3612 0.53613 0.78843 0.0
H1792 H 0.42002 0.52124 0.75217 0.0
H1793 H 0.39321 0.49712 0.70303 0.0
H1794 H 0.41023 0.50908 0.81834 0.0
H1795 H 0.42782 0.5816 0.74933 0.0
H1796 H 0.41839 0.60961 0.71301 0.0
H1797 H 0.37827 0.61934 0.79876 0.0
H1798 H 0.38719 0.59112 0.83551 0.0
H1799 H 0.50633 0.59276 0.93657 0.0
H1800 H 0.4804 0.57063 0.88573 0.0
H1801 H 0.41901 0.57978 0.92636 0.0
H1802 H 0.44495 0.60208 0.97762 0.0
H1803 H 0.43062 0.59527 0.8578 0.0
H1804 H 0.41028 0.51863 0.92406 0.0
H1805 H 0.41906 0.4891 0.95805 0.0
H1806 H 0.46668 0.4886 0.87527 0.0
H1807 H 0.45786 0.51782 0.84061 0.0
C1808 C 0.35333 0.51466 0.74097 0.0
C1809 C 0.36185 0.50306 0.71678 0.0
C1810 C 0.36859 0.52824 0.76935 0.0
C1811 C 0.39268 0.5306 0.77388 0.0
C1812 C 0.40153 0.51972 0.74913 0.0
C1813 C 0.38625 0.5061 0.72087 0.0
C1814 C 0.40772 0.54253 0.80589 0.0
C1815 C 0.41504 0.5281 0.82665 0.0
C1816 C 0.41348 0.5671 0.81712 0.0
C1817 C 0.40796 0.58401 0.79507 0.0
C1818 C 0.41679 0.58952 0.76036 0.0
C1819 C 0.41158 0.60548 0.73971 0.0
C1820 C 0.39768 0.61619 0.75354 0.0
C1821 C 0.38901 0.61101 0.78808 0.0
C1822 C 0.39416 0.59505 0.80884 0.0
C1823 C 0.48718 0.58978 0.93501 0.0
C1824 C 0.47758 0.59902 0.96125 0.0
C1825 C 0.47236 0.57703 0.90595 0.0
C1826 C 0.4477 0.57333 0.90249 0.0
C1827 C 0.43796 0.58233 0.92872 0.0
C1828 C 0.45277 0.59504 0.95794 0.0
C1829 C 0.43291 0.56171 0.87024 0.0
C1830 C 0.42574 0.57624 0.8494 0.0
C1831 C 0.42752 0.53735 0.85867 0.0
C1832 C 0.43363 0.52059 0.87996 0.0
C1833 C 0.42272 0.51231 0.91322 0.0
C1834 C 0.42752 0.49546 0.93246 0.0
C1835 C 0.44343 0.48699 0.91884 0.0
C1836 C 0.45439 0.49519 0.88582 0.0
C1837 C 0.4494 0.51179 0.8663 0.0
H1838 H 0.44731 0.47414 0.93392 0.0
H1839 H 0.39367 0.62855 0.73751 0.0
H1840 H 0.88796 0.40781 0.01786 0.0
H1841 H 0.88231 0.43216 0.06464 0.0
H1842 H 0.83306 0.36233 0.11944 0.0
H1843 H 0.8386 0.33793 0.07285 0.0
H1844 H 0.81736 0.39859 0.12604 0.0
H1845 H 0.89614 0.39464 0.13699 0.0
H1846 H 0.93774 0.40224 0.11522 0.0
H1847 H 0.96331 0.48204 0.10475 0.0
H1848 H 0.9218 0.47489 0.12593 0.0
H1849 H 0.83151 0.44016 0.30329 0.0
H1850 H 0.82961 0.41842 0.24832 0.0
H1851 H 0.887 0.48964 0.20396 0.0
H1852 H 0.88944 0.51124 0.25862 0.0
H1853 H 0.89771 0.45446 0.18934 0.0
H1854 H 0.82393 0.46246 0.18062 0.0
H1855 H 0.78328 0.45873 0.19934 0.0
H1856 H 0.74871 0.37724 0.2014 0.0
H1857 H 0.78929 0.38048 0.18321 0.0
C1858 C 0.87569 0.39764 0.03962 0.0
C1859 C 0.86426 0.371 0.04202 0.0
C1860 C 0.87241 0.41156 0.0663 0.0
C1861 C 0.85765 0.39906 0.09585 0.0
C1862 C 0.84464 0.37237 0.09698 0.0
C1863 C 0.84794 0.35846 0.07035 0.0
C1864 C 0.85789 0.41366 0.12719 0.0
C1865 C 0.83487 0.4107 0.14007 0.0
C1866 C 0.88083 0.43002 0.14492 0.0
C1867 C 0.90582 0.4342 0.13271 0.0
C1868 C 0.91058 0.41376 0.12981 0.0
C1869 C 0.9341 0.41799 0.11754 0.0
C1870 C 0.95298 0.44259 0.10846 0.0
C1871 C 0.94855 0.46302 0.11169 0.0
C1872 C 0.92507 0.45889 0.12383 0.0
C1873 C 0.84371 0.45115 0.28181 0.0
C1874 C 0.86053 0.47744 0.28537 0.0
C1875 C 0.84247 0.43875 0.25032 0.0
C1876 C 0.8579 0.45246 0.2218 0.0
C1877 C 0.87485 0.47864 0.2255 0.0
C1878 C 0.87616 0.49099 0.25686 0.0
C1879 C 0.85719 0.43948 0.18847 0.0
C1880 C 0.88016 0.44259 0.17528 0.0
C1881 C 0.83427 0.42383 0.17013 0.0
C1882 C 0.80976 0.42173 0.1809 0.0
C1883 C 0.80773 0.44374 0.18535 0.0
C1884 C 0.78468 0.44171 0.19582 0.0
C1885 C 0.76345 0.41776 0.20166 0.0
C1886 C 0.76519 0.39578 0.19692 0.0
C1887 C 0.78821 0.3977 0.1865 0.0
H1888 H 0.74562 0.41623 0.20976 0.0
H1889 H 0.97123 0.44599 0.09936 0.0
H1890 H 0.49068 0.89756 0.36413 0.0
H1891 H 0.46133 0.89035 0.4125 0.0
H1892 H 0.48279 0.83937 0.46108 0.0
H1893 H 0.51205 0.84642 0.413 0.0
H1894 H 0.43271 0.81923 0.46238 0.0
H1895 H 0.5049 0.8983 0.49151 0.0
H1896 H 0.53894 0.9432 0.49468 0.0
H1897 H 0.48352 0.96753 0.48772 0.0
H1898 H 0.44919 0.92289 0.4833 0.0
H1899 H 0.38593 0.82463 0.63635 0.0
H1900 H 0.40917 0.82313 0.58453 0.0
H1901 H 0.3849 0.86885 0.52731 0.0
H1902 H 0.36213 0.8707 0.57851 0.0
H1903 H 0.43647 0.89007 0.53177 0.0
H1904 H 0.36383 0.8078 0.50453 0.0
H1905 H 0.33219 0.76326 0.51844 0.0
H1906 H 0.39208 0.74574 0.53362 0.0
H1907 H 0.42411 0.79027 0.52024 0.0
C1908 C 0.48902 0.88471 0.38503 0.0
C1909 C 0.50365 0.87251 0.38475 0.0
C1910 C 0.47241 0.88077 0.41276 0.0
C1911 C 0.47006 0.8645 0.44052 0.0
C1912 C 0.48433 0.85201 0.43994 0.0
C1913 C 0.50105 0.85608 0.41243 0.0
C1914 C 0.45236 0.85999 0.46985 0.0
C1915 C 0.43363 0.83476 0.47766 0.0
C1916 C 0.45351 0.88025 0.48978 0.0
C1917 C 0.47441 0.90711 0.48664 0.0
C1918 C 0.49997 0.91319 0.48963 0.0
C1919 C 0.51933 0.93862 0.49198 0.0
C1920 C 0.51335 0.95814 0.49179 0.0
C1921 C 0.48809 0.95236 0.48815 0.0
C1922 C 0.46871 0.92701 0.48543 0.0
C1923 C 0.3851 0.83381 0.61242 0.0
C1924 C 0.37266 0.84817 0.61161 0.0
C1925 C 0.39828 0.83287 0.58287 0.0
C1926 C 0.39878 0.84598 0.55223 0.0
C1927 C 0.38481 0.85871 0.55077 0.0
C1928 C 0.3719 0.85983 0.58013 0.0
C1929 C 0.41649 0.84967 0.52338 0.0
C1930 C 0.43533 0.8747 0.51591 0.0
C1931 C 0.4157 0.82933 0.50435 0.0
C1932 C 0.39639 0.80244 0.51165 0.0
C1933 C 0.37027 0.7945 0.51104 0.0
C1934 C 0.35226 0.76924 0.51879 0.0
C1935 C 0.36012 0.7517 0.52698 0.0
C1936 C 0.38601 0.75935 0.52729 0.0
C1937 C 0.4041 0.78458 0.51956 0.0
H1938 H 0.34616 0.73217 0.53303 0.0
H1939 H 0.5283 0.97777 0.49417 0.0
H1940 H 0.60326 0.43356 0.69376 0.0
H1941 H 0.58552 0.40949 0.74809 0.0
H1942 H 0.58001 0.47239 0.79093 0.0
H1943 H 0.59736 0.49642 0.73683 0.0
H1944 H 0.60607 0.45051 0.83319 0.0
H1945 H 0.50363 0.40921 0.80624 0.0
H1946 H 0.46902 0.38907 0.76286 0.0
H1947 H 0.50924 0.35697 0.71045 0.0
H1948 H 0.54361 0.37617 0.7543 0.0
H1949 H 0.498 0.40421 0.95709 0.0
H1950 H 0.52723 0.42356 0.9082 0.0
H1951 H 0.54845 0.36548 0.91483 0.0
H1952 H 0.51953 0.34615 0.96455 0.0
H1953 H 0.5178 0.37938 0.84804 0.0
H1954 H 0.59438 0.40161 0.91622 0.0
H1955 H 0.62435 0.42155 0.96529 0.0
H1956 H 0.63117 0.4939 0.94029 0.0
H1957 H 0.60103 0.47431 0.89126 0.0
C1958 C 0.59774 0.44202 0.71448 0.0
C1959 C 0.60134 0.46674 0.71071 0.0
C1960 C 0.5874 0.42816 0.74541 0.0
C1961 C 0.58049 0.43876 0.77305 0.0
C1962 C 0.58454 0.46358 0.76955 0.0
C1963 C 0.59443 0.47727 0.73854 0.0
C1964 C 0.57097 0.42512 0.8068 0.0
C1965 C 0.58685 0.43472 0.83634 0.0
C1966 C 0.5458 0.40469 0.81114 0.0
C1967 C 0.52668 0.39497 0.78272 0.0
C1968 C 0.50519 0.39806 0.78522 0.0
C1969 C 0.48546 0.38654 0.76084 0.0
C1970 C 0.48699 0.37183 0.73382 0.0
C1971 C 0.50823 0.36858 0.7312 0.0
C1972 C 0.52791 0.37988 0.75575 0.0
C1973 C 0.50943 0.39597 0.94904 0.0
C1974 C 0.50635 0.37361 0.9648 0.0
C1975 C 0.52625 0.40714 0.92114 0.0
C1976 C 0.5404 0.39629 0.9085 0.0
C1977 C 0.53822 0.37456 0.92492 0.0
C1978 C 0.52152 0.36344 0.95315 0.0
C1979 C 0.55287 0.40464 0.87406 0.0
C1980 C 0.53734 0.39452 0.84459 0.0
C1981 C 0.57804 0.42483 0.87001 0.0
C1982 C 0.59524 0.43642 0.90034 0.0
C1983 C 0.602 0.42169 0.92149 0.0
C1984 C 0.61916 0.43297 0.94913 0.0
C1985 C 0.62974 0.459 0.95581 0.0
C1986 C 0.62305 0.47377 0.93499 0.0
C1987 C 0.60594 0.46258 0.90728 0.0
H1988 H 0.643 0.46769 0.97723 0.0
H1989 H 0.47173 0.36296 0.71489 0.0
H1990 H 0.07603 0.48489 0.27488 0.0
H1991 H 0.0793 0.51002 0.22311 0.0
H1992 H 0.15991 0.55742 0.24052 0.0
H1993 H 0.15688 0.53233 0.29261 0.0
H1994 H 0.13325 0.58433 0.21732 0.0
H1995 H 0.14879 0.51677 0.17973 0.0
H1996 H 0.13891 0.47203 0.18315 0.0
H1997 H 0.06272 0.44688 0.1485 0.0
H1998 H 0.07208 0.49157 0.14484 0.0
H1999 H 0.16457 0.63831 0.04971 0.0
H2000 H 0.16501 0.61384 0.10043 0.0
H2001 H 0.08648 0.5579 0.08141 0.0
H2002 H 0.08602 0.58205 0.03047 0.0
H2003 H 0.11333 0.53557 0.10608 0.0
H2004 H 0.10091 0.60589 0.13801 0.0
H2005 H 0.11191 0.651 0.13837 0.0
H2006 H 0.18348 0.67176 0.18733 0.0
H2007 H 0.17301 0.62678 0.18688 0.0
C2008 C 0.09445 0.50082 0.268 0.0
C2009 C 0.11629 0.50637 0.28758 0.0
C2010 C 0.09625 0.51518 0.23843 0.0
C2011 C 0.1199 0.53535 0.22783 0.0
C2012 C 0.14151 0.5419 0.24834 0.0
C2013 C 0.13974 0.52748 0.27799 0.0
C2014 C 0.12223 0.54802 0.19374 0.0
C2015 C 0.12925 0.57384 0.19294 0.0
C2016 C 0.11667 0.53418 0.1621 0.0
C2017 C 0.11118 0.50743 0.16187 0.0
C2018 C 0.12996 0.50167 0.17262 0.0
C2019 C 0.12442 0.47636 0.17468 0.0
C2020 C 0.10014 0.45664 0.16604 0.0
C2021 C 0.08144 0.46223 0.15507 0.0
C2022 C 0.08689 0.48754 0.15283 0.0
C2023 C 0.14756 0.62051 0.05583 0.0
C2024 C 0.12518 0.61228 0.03619 0.0
C2025 C 0.14781 0.60659 0.08493 0.0
C2026 C 0.1256 0.58435 0.09519 0.0
C2027 C 0.10381 0.57507 0.07411 0.0
C2028 C 0.10359 0.5889 0.04488 0.0
C2029 C 0.12442 0.57211 0.12942 0.0
C2030 C 0.11748 0.54623 0.13033 0.0
C2031 C 0.13017 0.58602 0.1612 0.0
C2032 C 0.13627 0.613 0.16216 0.0
C2033 C 0.11904 0.62009 0.14871 0.0
C2034 C 0.12517 0.64563 0.14894 0.0
C2035 C 0.1484 0.66424 0.1628 0.0
C2036 C 0.1655 0.65733 0.17658 0.0
C2037 C 0.15947 0.63181 0.17639 0.0
H2038 H 0.15313 0.68401 0.16292 0.0
H2039 H 0.09582 0.43703 0.16786 0.0
loop_
_geom_bond_atom_site_label_1
_geom_bond_atom_site_label_2
_geom_bond_distance
_geom_bond_site_symmetry_2
_ccdc_geom_bond_type
Zn0 O6 1.969 . S
Zn0 O7 1.965 . S
Zn0 O11 2.024 . S
Zn0 O16 1.969 . S
Zn1 O8 1.969 . S
Zn1 O14 1.969 . S
Zn1 O15 1.965 . S
Zn1 O17 2.024 . S
C2 O3 1.229 . S
C2 O11 1.058 . S
O3 C2 1.229 . S
C4 O5 1.229 . S
C4 O17 1.058 . S
O5 C4 1.229 . S
O6 Zn0 1.969 . S
O6 C9 1.267 . S
O7 Zn0 1.965 . S
O7 C18 1.260 . S
O8 Zn1 1.969 . S
O8 C18 1.258 . S
C9 O6 1.267 . S
C9 O10 1.228 . S
O10 C9 1.228 . S
O11 Zn0 2.024 . S
O11 C2 1.058 . S
C12 O13 1.228 . S
C12 O14 1.267 . S
O13 C12 1.228 . S
O14 Zn1 1.969 . S
O14 C12 1.267 . S
O15 Zn1 1.965 . S
O15 C19 1.260 . S
O16 Zn0 1.969 . S
O16 C19 1.258 . S
O17 Zn1 2.024 . S
O17 C4 1.058 . S
C18 O7 1.260 . S
C18 O8 1.258 . S
C19 O15 1.260 . S
C19 O16 1.258 . S
Zn20 O26 1.969 . S
Zn20 O27 1.965 . S
Zn20 O31 2.024 . S
Zn20 O36 1.969 . S
Zn21 O28 1.969 . S
Zn21 O34 1.969 . S
Zn21 O35 1.965 . S
Zn21 O37 2.024 . S
C22 O23 1.229 . S
C22 O31 1.058 . S
O23 C22 1.229 . S
C24 O25 1.229 . S
C24 O37 1.058 . S
O25 C24 1.229 . S
O26 Zn20 1.969 . S
O26 C29 1.267 . S
O27 Zn20 1.965 . S
O27 C38 1.260 . S
O28 Zn21 1.969 . S
O28 C38 1.258 . S
C29 O26 1.267 . S
C29 O30 1.228 . S
O30 C29 1.228 . S
O31 Zn20 2.024 . S
O31 C22 1.058 . S
C32 O33 1.228 . S
C32 O34 1.267 . S
O33 C32 1.228 . S
O34 Zn21 1.969 . S
O34 C32 1.267 . S
O35 Zn21 1.965 . S
O35 C39 1.260 . S
O36 Zn20 1.969 . S
O36 C39 1.258 . S
O37 Zn21 2.024 . S
O37 C24 1.058 . S
C38 O27 1.260 . S
C38 O28 1.258 . S
C39 O35 1.260 . S
C39 O36 1.258 . S
Zn40 O46 1.969 . S
Zn40 O47 1.965 . S
Zn40 O51 2.024 . S
Zn40 O56 1.969 . S
Zn41 O48 1.969 . S
Zn41 O54 1.969 . S
Zn41 O55 1.965 . S
Zn41 O57 2.024 . S
C42 O43 1.229 . S
C42 O51 1.058 . S
O43 C42 1.229 . S
C44 O45 1.229 . S
C44 O57 1.058 1_554 S
O45 C44 1.229 . S
O46 Zn40 1.969 . S
O46 C49 1.267 . S
O47 Zn40 1.965 . S
O47 C58 1.260 . S
O48 Zn41 1.969 . S
O48 C58 1.258 . S
C49 O46 1.267 . S
C49 O50 1.228 . S
O50 C49 1.228 . S
O51 Zn40 2.024 . S
O51 C42 1.058 . S
C52 O53 1.228 . S
C52 O54 1.267 1_554 S
O53 C52 1.228 . S
O54 Zn41 1.969 . S
O54 C52 1.267 1_556 S
O55 Zn41 1.965 . S
O55 C59 1.260 . S
O56 Zn40 1.969 . S
O56 C59 1.258 . S
O57 Zn41 2.024 . S
O57 C44 1.058 1_556 S
C58 O47 1.260 . S
C58 O48 1.258 . S
C59 O55 1.260 . S
C59 O56 1.258 . S
Zn60 O66 1.969 . S
Zn60 O67 1.965 . S
Zn60 O71 2.024 . S
Zn60 O76 1.969 . S
Zn61 O68 1.969 . S
Zn61 O74 1.969 . S
Zn61 O75 1.965 . S
Zn61 O77 2.024 . S
C62 O63 1.229 . S
C62 O71 1.058 . S
O63 C62 1.229 . S
C64 O65 1.229 . S
C64 O77 1.058 . S
O65 C64 1.229 . S
O66 Zn60 1.969 . S
O66 C69 1.267 . S
O67 Zn60 1.965 . S
O67 C78 1.260 . S
O68 Zn61 1.969 . S
O68 C78 1.258 . S
C69 O66 1.267 . S
C69 O70 1.228 . S
O70 C69 1.228 . S
O71 Zn60 2.024 . S
O71 C62 1.058 . S
C72 O73 1.228 . S
C72 O74 1.267 . S
O73 C72 1.228 . S
O74 Zn61 1.969 . S
O74 C72 1.267 . S
O75 Zn61 1.965 . S
O75 C79 1.260 . S
O76 Zn60 1.969 . S
O76 C79 1.258 . S
O77 Zn61 2.024 . S
O77 C64 1.058 . S
C78 O67 1.260 . S
C78 O68 1.258 . S
C79 O75 1.260 . S
C79 O76 1.258 . S
Zn80 O86 1.969 . S
Zn80 O87 1.965 . S
Zn80 O91 2.024 . S
Zn80 O96 1.969 . S
Zn81 O88 1.969 . S
Zn81 O94 1.969 . S
Zn81 O95 1.965 . S
Zn81 O97 2.024 . S
C82 O83 1.229 . S
C82 O91 1.058 . S
O83 C82 1.229 . S
C84 O85 1.229 . S
C84 O97 1.058 . S
O85 C84 1.229 . S
O86 Zn80 1.969 . S
O86 C89 1.267 . S
O87 Zn80 1.965 . S
O87 C98 1.260 . S
O88 Zn81 1.969 . S
O88 C98 1.258 . S
C89 O86 1.267 . S
C89 O90 1.228 . S
O90 C89 1.228 . S
O91 Zn80 2.024 . S
O91 C82 1.058 . S
C92 O93 1.228 . S
C92 O94 1.267 . S
O93 C92 1.228 . S
O94 Zn81 1.969 . S
O94 C92 1.267 . S
O95 Zn81 1.965 . S
O95 C99 1.260 . S
O96 Zn80 1.969 . S
O96 C99 1.258 . S
O97 Zn81 2.024 . S
O97 C84 1.058 . S
C98 O87 1.260 . S
C98 O88 1.258 . S
C99 O95 1.260 . S
C99 O96 1.258 . S
Zn100 O106 1.969 . S
Zn100 O107 1.965 . S
Zn100 O111 2.024 . S
Zn100 O116 1.969 . S
Zn101 O108 1.969 . S
Zn101 O114 1.969 . S
Zn101 O115 1.965 . S
Zn101 O117 2.024 . S
C102 O103 1.229 . S
C102 O111 1.058 . S
O103 C102 1.229 . S
C104 O105 1.229 . S
C104 O117 1.058 1_554 S
O105 C104 1.229 . S
O106 Zn100 1.969 . S
O106 C109 1.267 . S
O107 Zn100 1.965 . S
O107 C118 1.260 . S
O108 Zn101 1.969 . S
O108 C118 1.258 . S
C109 O106 1.267 . S
C109 O110 1.228 . S
O110 C109 1.228 . S
O111 Zn100 2.024 . S
O111 C102 1.058 . S
C112 O113 1.228 . S
C112 O114 1.267 1_554 S
O113 C112 1.228 . S
O114 Zn101 1.969 . S
O114 C112 1.267 1_556 S
O115 Zn101 1.965 . S
O115 C119 1.260 . S
O116 Zn100 1.969 . S
O116 C119 1.258 . S
O117 Zn101 2.024 . S
O117 C104 1.058 1_556 S
C118 O107 1.260 . S
C118 O108 1.258 . S
C119 O115 1.260 . S
C119 O116 1.258 . S
Zn120 O126 1.969 . S
Zn120 O127 1.965 . S
Zn120 O131 2.024 . S
Zn120 O136 1.969 . S
Zn121 O128 1.969 . S
Zn121 O134 1.969 . S
Zn121 O135 1.965 . S
Zn121 O137 2.024 . S
C122 O123 1.229 . S
C122 O131 1.058 . S
O123 C122 1.229 . S
C124 O125 1.229 . S
C124 O137 1.058 . S
O125 C124 1.229 . S
O126 Zn120 1.969 . S
O126 C129 1.267 . S
O127 Zn120 1.965 . S
O127 C138 1.260 . S
O128 Zn121 1.969 . S
O128 C138 1.258 . S
C129 O126 1.267 . S
C129 O130 1.228 . S
O130 C129 1.228 . S
O131 Zn120 2.024 . S
O131 C122 1.058 . S
C132 O133 1.228 . S
C132 O134 1.267 . S
O133 C132 1.228 . S
O134 Zn121 1.969 . S
O134 C132 1.267 . S
O135 Zn121 1.965 . S
O135 C139 1.260 . S
O136 Zn120 1.969 . S
O136 C139 1.258 . S
O137 Zn121 2.024 . S
O137 C124 1.058 . S
C138 O127 1.260 . S
C138 O128 1.258 . S
C139 O135 1.260 . S
C139 O136 1.258 . S
Zn140 O146 1.969 . S
Zn140 O147 1.965 . S
Zn140 O151 2.024 . S
Zn140 O156 1.969 . S
Zn141 O148 1.969 . S
Zn141 O154 1.969 . S
Zn141 O155 1.965 . S
Zn141 O157 2.024 . S
C142 O143 1.229 . S
C142 O151 1.058 . S
O143 C142 1.229 . S
C144 O145 1.229 . S
C144 O157 1.058 . S
O145 C144 1.229 . S
O146 Zn140 1.969 . S
O146 C149 1.267 . S
O147 Zn140 1.965 . S
O147 C158 1.260 . S
O148 Zn141 1.969 . S
O148 C158 1.258 . S
C149 O146 1.267 . S
C149 O150 1.228 . S
O150 C149 1.228 . S
O151 Zn140 2.024 . S
O151 C142 1.058 . S
C152 O153 1.228 . S
C152 O154 1.267 . S
O153 C152 1.228 . S
O154 Zn141 1.969 . S
O154 C152 1.267 . S
O155 Zn141 1.965 . S
O155 C159 1.260 . S
O156 Zn140 1.969 . S
O156 C159 1.258 . S
O157 Zn141 2.024 . S
O157 C144 1.058 . S
C158 O147 1.260 . S
C158 O148 1.258 . S
C159 O155 1.260 . S
C159 O156 1.258 . S
Zn160 O166 1.969 . S
Zn160 O167 1.965 . S
Zn160 O171 2.024 . S
Zn160 O176 1.969 . S
Zn161 O168 1.969 . S
Zn161 O174 1.969 . S
Zn161 O175 1.965 . S
Zn161 O177 2.024 . S
C162 O163 1.229 . S
C162 O171 1.058 . S
O163 C162 1.229 . S
C164 O165 1.229 . S
C164 O177 1.058 1_556 S
O165 C164 1.229 . S
O166 Zn160 1.969 . S
O166 C169 1.267 . S
O167 Zn160 1.965 . S
O167 C178 1.260 . S
O168 Zn161 1.969 . S
O168 C178 1.258 . S
C169 O166 1.267 . S
C169 O170 1.228 . S
O170 C169 1.228 . S
O171 Zn160 2.024 . S
O171 C162 1.058 . S
C172 O173 1.228 . S
C172 O174 1.267 1_556 S
O173 C172 1.228 . S
O174 Zn161 1.969 . S
O174 C172 1.267 1_554 S
O175 Zn161 1.965 . S
O175 C179 1.260 . S
O176 Zn160 1.969 . S
O176 C179 1.258 . S
O177 Zn161 2.024 . S
O177 C164 1.058 1_554 S
C178 O167 1.260 . S
C178 O168 1.258 . S
C179 O175 1.260 . S
C179 O176 1.258 . S
Zn180 O186 1.969 . S
Zn180 O187 1.965 . S
Zn180 O191 2.024 . S
Zn180 O196 1.969 . S
Zn181 O188 1.969 . S
Zn181 O194 1.969 . S
Zn181 O195 1.965 . S
Zn181 O197 2.024 . S
C182 O183 1.229 . S
C182 O191 1.058 . S
O183 C182 1.229 . S
C184 O185 1.229 . S
C184 O197 1.058 . S
O185 C184 1.229 . S
O186 Zn180 1.969 . S
O186 C189 1.267 . S
O187 Zn180 1.965 . S
O187 C198 1.260 . S
O188 Zn181 1.969 . S
O188 C198 1.258 . S
C189 O186 1.267 . S
C189 O190 1.228 . S
O190 C189 1.228 . S
O191 Zn180 2.024 . S
O191 C182 1.058 . S
C192 O193 1.228 . S
C192 O194 1.267 . S
O193 C192 1.228 . S
O194 Zn181 1.969 . S
O194 C192 1.267 . S
O195 Zn181 1.965 . S
O195 C199 1.260 . S
O196 Zn180 1.969 . S
O196 C199 1.258 . S
O197 Zn181 2.024 . S
O197 C184 1.058 . S
C198 O187 1.260 . S
C198 O188 1.258 . S
C199 O195 1.260 . S
C199 O196 1.258 . S
Zn200 O206 1.969 . S
Zn200 O207 1.965 . S
Zn200 O211 2.024 . S
Zn200 O216 1.969 . S
Zn201 O208 1.969 . S
Zn201 O214 1.969 . S
Zn201 O215 1.965 . S
Zn201 O217 2.024 . S
C202 O203 1.229 . S
C202 O211 1.058 . S
O203 C202 1.229 . S
C204 O205 1.229 . S
C204 O217 1.058 . S
O205 C204 1.229 . S
O206 Zn200 1.969 . S
O206 C209 1.267 . S
O207 Zn200 1.965 . S
O207 C218 1.260 . S
O208 Zn201 1.969 . S
O208 C218 1.258 . S
C209 O206 1.267 . S
C209 O210 1.228 . S
O210 C209 1.228 . S
O211 Zn200 2.024 . S
O211 C202 1.058 . S
C212 O213 1.228 . S
C212 O214 1.267 . S
O213 C212 1.228 . S
O214 Zn201 1.969 . S
O214 C212 1.267 . S
O215 Zn201 1.965 . S
O215 C219 1.260 . S
O216 Zn200 1.969 . S
O216 C219 1.258 . S
O217 Zn201 2.024 . S
O217 C204 1.058 . S
C218 O207 1.260 . S
C218 O208 1.258 . S
C219 O215 1.260 . S
C219 O216 1.258 . S
Zn220 O226 1.969 . S
Zn220 O227 1.965 . S
Zn220 O231 2.024 . S
Zn220 O236 1.969 . S
Zn221 O228 1.969 . S
Zn221 O234 1.969 . S
Zn221 O235 1.965 . S
Zn221 O237 2.024 . S
C222 O223 1.229 . S
C222 O231 1.058 . S
O223 C222 1.229 . S
C224 O225 1.229 . S
C224 O237 1.058 1_556 S
O225 C224 1.229 . S
O226 Zn220 1.969 . S
O226 C229 1.267 . S
O227 Zn220 1.965 . S
O227 C238 1.260 . S
O228 Zn221 1.969 . S
O228 C238 1.258 . S
C229 O226 1.267 . S
C229 O230 1.228 . S
O230 C229 1.228 . S
O231 Zn220 2.024 . S
O231 C222 1.058 . S
C232 O233 1.228 . S
C232 O234 1.267 1_556 S
O233 C232 1.228 . S
O234 Zn221 1.969 . S
O234 C232 1.267 1_554 S
O235 Zn221 1.965 . S
O235 C239 1.260 . S
O236 Zn220 1.969 . S
O236 C239 1.258 . S
O237 Zn221 2.024 . S
O237 C224 1.058 1_554 S
C238 O227 1.260 . S
C238 O228 1.258 . S
C239 O235 1.260 . S
C239 O236 1.258 . S
H240 C258 0.951 . S
H241 C260 0.951 . S
H242 C262 0.950 . S
H243 C263 0.950 . S
H244 C265 0.950 . S
H245 C268 0.950 . S
H246 C269 0.950 . S
H247 C271 0.950 . S
H248 C272 0.950 . S
H249 C273 0.951 . S
H250 C275 0.951 . S
H251 C277 0.950 . S
H252 C278 0.950 . S
H253 C280 0.950 . S
H254 C283 0.950 . S
H255 C284 0.950 . S
H256 C286 0.950 . S
H257 C287 0.950 . S
C258 H240 0.951 . S
C258 C259 1.366 . S
C258 C260 1.388 . S
C259 C258 1.366 . S
C259 C263 1.385 . S
C260 H241 0.951 . S
C260 C258 1.388 . S
C260 C261 1.366 . S
C261 C260 1.366 . S
C261 C262 1.414 . S
C261 C264 1.499 . S
C262 H242 0.950 . S
C262 C261 1.414 . S
C262 C263 1.374 . S
C263 H243 0.950 . S
C263 C259 1.385 . S
C263 C262 1.374 . S
C264 C261 1.499 . S
C264 C265 1.373 . S
C264 C266 1.389 . S
C265 H244 0.950 . S
C265 C264 1.373 . S
C265 C281 1.377 . S
C266 C264 1.389 . S
C266 C267 1.524 . S
C266 C280 1.377 . S
C267 C266 1.524 . S
C267 C268 1.397 . S
C267 C272 1.363 . S
C268 H245 0.950 . S
C268 C267 1.397 . S
C268 C269 1.334 . S
C269 H246 0.950 . S
C269 C268 1.334 . S
C269 C270 1.287 . S
C270 C269 1.287 . S
C270 C271 1.524 . S
C270 H289 0.913 . S
C271 H247 0.950 . S
C271 C270 1.524 . S
C271 C272 1.415 . S
C272 H248 0.950 . S
C272 C267 1.363 . S
C272 C271 1.415 . S
C273 H249 0.951 . S
C273 C274 1.366 . S
C273 C275 1.388 . S
C274 C273 1.366 . S
C274 C278 1.385 . S
C275 H250 0.951 . S
C275 C273 1.388 . S
C275 C276 1.366 . S
C276 C275 1.366 . S
C276 C277 1.414 . S
C276 C279 1.499 . S
C277 H251 0.950 . S
C277 C276 1.414 . S
C277 C278 1.374 . S
C278 H252 0.950 . S
C278 C274 1.385 . S
C278 C277 1.374 . S
C279 C276 1.499 . S
C279 C280 1.373 . S
C279 C281 1.389 . S
C280 H253 0.950 . S
C280 C266 1.377 . S
C280 C279 1.373 . S
C281 C265 1.377 . S
C281 C279 1.389 . S
C281 C282 1.524 . S
C282 C281 1.524 . S
C282 C283 1.397 . S
C282 C287 1.363 . S
C283 H254 0.950 . S
C283 C282 1.397 . S
C283 C284 1.334 . S
C284 H255 0.950 . S
C284 C283 1.334 . S
C284 C285 1.287 . S
C285 C284 1.287 . S
C285 C286 1.524 . S
C285 H288 0.999 . S
C286 H256 0.950 . S
C286 C285 1.524 . S
C286 C287 1.415 . S
C287 H257 0.950 . S
C287 C282 1.363 . S
C287 C286 1.415 . S
H288 C285 0.999 . S
H289 C270 0.913 . S
H290 C308 0.951 . S
H291 C310 0.951 . S
H292 C312 0.950 . S
H293 C313 0.950 . S
H294 C315 0.950 . S
H295 C318 0.950 . S
H296 C319 0.950 . S
H297 C321 0.950 . S
H298 C322 0.950 . S
H299 C323 0.951 . S
H300 C325 0.951 . S
H301 C327 0.950 . S
H302 C328 0.950 . S
H303 C330 0.950 . S
H304 C333 0.950 . S
H305 C334 0.950 . S
H306 C336 0.950 . S
H307 C337 0.950 . S
C308 H290 0.951 . S
C308 C309 1.366 . S
C308 C310 1.388 . S
C309 C308 1.366 . S
C309 C313 1.385 . S
C310 H291 0.951 . S
C310 C308 1.388 . S
C310 C311 1.366 . S
C311 C310 1.366 . S
C311 C312 1.414 . S
C311 C314 1.499 . S
C312 H292 0.950 . S
C312 C311 1.414 . S
C312 C313 1.374 . S
C313 H293 0.950 . S
C313 C309 1.385 . S
C313 C312 1.374 . S
C314 C311 1.499 . S
C314 C315 1.373 . S
C314 C316 1.389 . S
C315 H294 0.950 . S
C315 C314 1.373 . S
C315 C331 1.377 . S
C316 C314 1.389 . S
C316 C317 1.524 . S
C316 C330 1.377 . S
C317 C316 1.524 . S
C317 C318 1.397 . S
C317 C322 1.363 . S
C318 H295 0.950 . S
C318 C317 1.397 . S
C318 C319 1.334 . S
C319 H296 0.950 . S
C319 C318 1.334 . S
C319 C320 1.287 . S
C320 C319 1.287 . S
C320 C321 1.524 . S
C320 H339 0.913 . S
C321 H297 0.950 . S
C321 C320 1.524 . S
C321 C322 1.415 . S
C322 H298 0.950 . S
C322 C317 1.363 . S
C322 C321 1.415 . S
C323 H299 0.951 . S
C323 C324 1.366 . S
C323 C325 1.388 . S
C324 C323 1.366 . S
C324 C328 1.385 . S
C325 H300 0.951 . S
C325 C323 1.388 . S
C325 C326 1.366 . S
C326 C325 1.366 . S
C326 C327 1.414 . S
C326 C329 1.499 . S
C327 H301 0.950 . S
C327 C326 1.414 . S
C327 C328 1.374 . S
C328 H302 0.950 . S
C328 C324 1.385 . S
C328 C327 1.374 . S
C329 C326 1.499 . S
C329 C330 1.373 . S
C329 C331 1.389 . S
C330 H303 0.950 . S
C330 C316 1.377 . S
C330 C329 1.373 . S
C331 C315 1.377 . S
C331 C329 1.389 . S
C331 C332 1.524 . S
C332 C331 1.524 . S
C332 C333 1.397 . S
C332 C337 1.363 . S
C333 H304 0.950 . S
C333 C332 1.397 . S
C333 C334 1.334 . S
C334 H305 0.950 . S
C334 C333 1.334 . S
C334 C335 1.287 . S
C335 C334 1.287 . S
C335 C336 1.524 . S
C335 H338 0.999 . S
C336 H306 0.950 . S
C336 C335 1.524 . S
C336 C337 1.415 . S
C337 H307 0.950 . S
C337 C332 1.363 . S
C337 C336 1.415 . S
H338 C335 0.999 . S
H339 C320 0.913 . S
H340 C358 0.951 . S
H341 C360 0.951 . S
H342 C362 0.950 . S
H343 C363 0.950 . S
H344 C365 0.950 . S
H345 C368 0.950 . S
H346 C369 0.950 . S
H347 C371 0.950 . S
H348 C372 0.950 . S
H349 C373 0.951 . S
H350 C375 0.951 . S
H351 C377 0.950 . S
H352 C378 0.950 . S
H353 C380 0.950 . S
H354 C383 0.950 . S
H355 C384 0.950 . S
H356 C386 0.950 . S
H357 C387 0.950 . S
C358 H340 0.951 . S
C358 C359 1.366 . S
C358 C360 1.388 . S
C359 C358 1.366 . S
C359 C363 1.385 . S
C360 H341 0.951 . S
C360 C358 1.388 . S
C360 C361 1.366 . S
C361 C360 1.366 . S
C361 C362 1.414 . S
C361 C364 1.499 . S
C362 H342 0.950 . S
C362 C361 1.414 . S
C362 C363 1.374 . S
C363 H343 0.950 . S
C363 C359 1.385 . S
C363 C362 1.374 . S
C364 C361 1.499 . S
C364 C365 1.373 . S
C364 C366 1.389 . S
C365 H344 0.950 . S
C365 C364 1.373 . S
C365 C381 1.377 . S
C366 C364 1.389 . S
C366 C367 1.524 . S
C366 C380 1.377 . S
C367 C366 1.524 . S
C367 C368 1.397 . S
C367 C372 1.363 . S
C368 H345 0.950 . S
C368 C367 1.397 . S
C368 C369 1.334 . S
C369 H346 0.950 . S
C369 C368 1.334 . S
C369 C370 1.287 . S
C370 C369 1.287 . S
C370 C371 1.524 . S
C370 H389 0.913 . S
C371 H347 0.950 . S
C371 C370 1.524 . S
C371 C372 1.415 . S
C372 H348 0.950 . S
C372 C367 1.363 . S
C372 C371 1.415 . S
C373 H349 0.951 . S
C373 C374 1.366 . S
C373 C375 1.388 . S
C374 C373 1.366 . S
C374 C378 1.385 . S
C375 H350 0.951 . S
C375 C373 1.388 . S
C375 C376 1.366 . S
C376 C375 1.366 . S
C376 C377 1.414 . S
C376 C379 1.499 . S
C377 H351 0.950 . S
C377 C376 1.414 . S
C377 C378 1.374 . S
C378 H352 0.950 . S
C378 C374 1.385 . S
C378 C377 1.374 . S
C379 C376 1.499 . S
C379 C380 1.373 . S
C379 C381 1.389 . S
C380 H353 0.950 . S
C380 C366 1.377 . S
C380 C379 1.373 . S
C381 C365 1.377 . S
C381 C379 1.389 . S
C381 C382 1.524 . S
C382 C381 1.524 . S
C382 C383 1.397 . S
C382 C387 1.363 . S
C383 H354 0.950 . S
C383 C382 1.397 . S
C383 C384 1.334 . S
C384 H355 0.950 . S
C384 C383 1.334 . S
C384 C385 1.287 . S
C385 C384 1.287 . S
C385 C386 1.524 . S
C385 H388 0.999 . S
C386 H356 0.950 . S
C386 C385 1.524 . S
C386 C387 1.415 . S
C387 H357 0.950 . S
C387 C382 1.363 . S
C387 C386 1.415 . S
H388 C385 0.999 . S
H389 C370 0.913 . S
H390 C408 0.951 . S
H391 C410 0.951 . S
H392 C412 0.950 . S
H393 C413 0.950 . S
H394 C415 0.950 . S
H395 C418 0.950 . S
H396 C419 0.950 . S
H397 C421 0.950 . S
H398 C422 0.950 . S
H399 C423 0.951 . S
H400 C425 0.951 . S
H401 C427 0.950 . S
H402 C428 0.950 . S
H403 C430 0.950 . S
H404 C433 0.950 . S
H405 C434 0.950 . S
H406 C436 0.950 . S
H407 C437 0.950 . S
C408 H390 0.951 . S
C408 C409 1.366 . S
C408 C410 1.388 . S
C409 C408 1.366 . S
C409 C413 1.385 . S
C410 H391 0.951 . S
C410 C408 1.388 . S
C410 C411 1.366 . S
C411 C410 1.366 . S
C411 C412 1.414 . S
C411 C414 1.499 . S
C412 H392 0.950 . S
C412 C411 1.414 . S
C412 C413 1.374 . S
C413 H393 0.950 . S
C413 C409 1.385 . S
C413 C412 1.374 . S
C414 C411 1.499 . S
C414 C415 1.373 . S
C414 C416 1.389 . S
C415 H394 0.950 . S
C415 C414 1.373 . S
C415 C431 1.377 . S
C416 C414 1.389 . S
C416 C417 1.524 . S
C416 C430 1.377 . S
C417 C416 1.524 . S
C417 C418 1.397 . S
C417 C422 1.363 . S
C418 H395 0.950 . S
C418 C417 1.397 . S
C418 C419 1.334 . S
C419 H396 0.950 . S
C419 C418 1.334 . S
C419 C420 1.287 . S
C420 C419 1.287 . S
C420 C421 1.524 . S
C420 H439 0.913 . S
C421 H397 0.950 . S
C421 C420 1.524 . S
C421 C422 1.415 . S
C422 H398 0.950 . S
C422 C417 1.363 . S
C422 C421 1.415 . S
C423 H399 0.951 . S
C423 C424 1.366 . S
C423 C425 1.388 . S
C424 C423 1.366 . S
C424 C428 1.385 . S
C425 H400 0.951 . S
C425 C423 1.388 . S
C425 C426 1.366 . S
C426 C425 1.366 . S
C426 C427 1.414 . S
C426 C429 1.499 . S
C427 H401 0.950 . S
C427 C426 1.414 . S
C427 C428 1.374 . S
C428 H402 0.950 . S
C428 C424 1.385 . S
C428 C427 1.374 . S
C429 C426 1.499 . S
C429 C430 1.373 . S
C429 C431 1.389 . S
C430 H403 0.950 . S
C430 C416 1.377 . S
C430 C429 1.373 . S
C431 C415 1.377 . S
C431 C429 1.389 . S
C431 C432 1.524 . S
C432 C431 1.524 . S
C432 C433 1.397 . S
C432 C437 1.363 . S
C433 H404 0.950 . S
C433 C432 1.397 . S
C433 C434 1.334 . S
C434 H405 0.950 . S
C434 C433 1.334 . S
C434 C435 1.287 . S
C435 C434 1.287 . S
C435 C436 1.524 . S
C435 H438 0.999 . S
C436 H406 0.950 . S
C436 C435 1.524 . S
C436 C437 1.415 . S
C437 H407 0.950 . S
C437 C432 1.363 . S
C437 C436 1.415 . S
H438 C435 0.999 . S
H439 C420 0.913 . S
H440 C458 0.951 . S
H441 C460 0.951 . S
H442 C462 0.950 . S
H443 C463 0.950 . S
H444 C465 0.950 . S
H445 C468 0.950 . S
H446 C469 0.950 . S
H447 C471 0.950 . S
H448 C472 0.950 . S
H449 C473 0.951 . S
H450 C475 0.951 . S
H451 C477 0.950 . S
H452 C478 0.950 . S
H453 C480 0.950 . S
H454 C483 0.950 . S
H455 C484 0.950 . S
H456 C486 0.950 . S
H457 C487 0.950 . S
C458 H440 0.951 . S
C458 C459 1.366 . S
C458 C460 1.388 . S
C459 C458 1.366 . S
C459 C463 1.385 . S
C460 H441 0.951 . S
C460 C458 1.388 . S
C460 C461 1.366 . S
C461 C460 1.366 . S
C461 C462 1.414 . S
C461 C464 1.499 . S
C462 H442 0.950 . S
C462 C461 1.414 . S
C462 C463 1.374 . S
C463 H443 0.950 . S
C463 C459 1.385 . S
C463 C462 1.374 . S
C464 C461 1.499 . S
C464 C465 1.373 . S
C464 C466 1.389 . S
C465 H444 0.950 . S
C465 C464 1.373 . S
C465 C481 1.377 . S
C466 C464 1.389 . S
C466 C467 1.524 . S
C466 C480 1.377 . S
C467 C466 1.524 . S
C467 C468 1.397 . S
C467 C472 1.363 . S
C468 H445 0.950 . S
C468 C467 1.397 . S
C468 C469 1.334 . S
C469 H446 0.950 . S
C469 C468 1.334 . S
C469 C470 1.287 . S
C470 C469 1.287 . S
C470 C471 1.524 . S
C470 H489 0.913 . S
C471 H447 0.950 . S
C471 C470 1.524 . S
C471 C472 1.415 . S
C472 H448 0.950 . S
C472 C467 1.363 . S
C472 C471 1.415 . S
C473 H449 0.951 . S
C473 C474 1.366 . S
C473 C475 1.388 . S
C474 C473 1.366 . S
C474 C478 1.385 . S
C475 H450 0.951 . S
C475 C473 1.388 . S
C475 C476 1.366 . S
C476 C475 1.366 . S
C476 C477 1.414 . S
C476 C479 1.499 . S
C477 H451 0.950 . S
C477 C476 1.414 . S
C477 C478 1.374 . S
C478 H452 0.950 . S
C478 C474 1.385 . S
C478 C477 1.374 . S
C479 C476 1.499 . S
C479 C480 1.373 . S
C479 C481 1.389 . S
C480 H453 0.950 . S
C480 C466 1.377 . S
C480 C479 1.373 . S
C481 C465 1.377 . S
C481 C479 1.389 . S
C481 C482 1.524 . S
C482 C481 1.524 . S
C482 C483 1.397 . S
C482 C487 1.363 . S
C483 H454 0.950 . S
C483 C482 1.397 . S
C483 C484 1.334 . S
C484 H455 0.950 . S
C484 C483 1.334 . S
C484 C485 1.287 . S
C485 C484 1.287 . S
C485 C486 1.524 . S
C485 H488 0.999 . S
C486 H456 0.950 . S
C486 C485 1.524 . S
C486 C487 1.415 . S
C487 H457 0.950 . S
C487 C482 1.363 . S
C487 C486 1.415 . S
H488 C485 0.999 . S
H489 C470 0.913 . S
H490 C508 0.951 . S
H491 C510 0.951 . S
H492 C512 0.950 . S
H493 C513 0.950 . S
H494 C515 0.950 . S
H495 C518 0.950 . S
H496 C519 0.950 . S
H497 C521 0.950 . S
H498 C522 0.950 . S
H499 C523 0.951 . S
H500 C525 0.951 . S
H501 C527 0.950 . S
H502 C528 0.950 . S
H503 C530 0.950 . S
H504 C533 0.950 . S
H505 C534 0.950 . S
H506 C536 0.950 . S
H507 C537 0.950 . S
C508 H490 0.951 . S
C508 C509 1.366 . S
C508 C510 1.388 . S
C509 C508 1.366 . S
C509 C513 1.385 . S
C510 H491 0.951 . S
C510 C508 1.388 . S
C510 C511 1.366 . S
C511 C510 1.366 . S
C511 C512 1.414 . S
C511 C514 1.499 . S
C512 H492 0.950 . S
C512 C511 1.414 . S
C512 C513 1.374 . S
C513 H493 0.950 . S
C513 C509 1.385 . S
C513 C512 1.374 . S
C514 C511 1.499 . S
C514 C515 1.373 . S
C514 C516 1.389 . S
C515 H494 0.950 . S
C515 C514 1.373 . S
C515 C531 1.377 . S
C516 C514 1.389 . S
C516 C517 1.524 . S
C516 C530 1.377 . S
C517 C516 1.524 . S
C517 C518 1.397 . S
C517 C522 1.363 . S
C518 H495 0.950 . S
C518 C517 1.397 . S
C518 C519 1.334 . S
C519 H496 0.950 . S
C519 C518 1.334 . S
C519 C520 1.287 . S
C520 C519 1.287 . S
C520 C521 1.524 . S
C520 H539 0.913 . S
C521 H497 0.950 . S
C521 C520 1.524 . S
C521 C522 1.415 . S
C522 H498 0.950 . S
C522 C517 1.363 . S
C522 C521 1.415 . S
C523 H499 0.951 . S
C523 C524 1.366 . S
C523 C525 1.388 . S
C524 C523 1.366 . S
C524 C528 1.385 . S
C525 H500 0.951 . S
C525 C523 1.388 . S
C525 C526 1.366 . S
C526 C525 1.366 . S
C526 C527 1.414 . S
C526 C529 1.499 . S
C527 H501 0.950 . S
C527 C526 1.414 . S
C527 C528 1.374 . S
C528 H502 0.950 . S
C528 C524 1.385 . S
C528 C527 1.374 . S
C529 C526 1.499 . S
C529 C530 1.373 . S
C529 C531 1.389 . S
C530 H503 0.950 . S
C530 C516 1.377 . S
C530 C529 1.373 . S
C531 C515 1.377 . S
C531 C529 1.389 . S
C531 C532 1.524 . S
C532 C531 1.524 . S
C532 C533 1.397 . S
C532 C537 1.363 . S
C533 H504 0.950 . S
C533 C532 1.397 . S
C533 C534 1.334 . S
C534 H505 0.950 . S
C534 C533 1.334 . S
C534 C535 1.287 . S
C535 C534 1.287 . S
C535 C536 1.524 . S
C535 H538 0.999 . S
C536 H506 0.950 . S
C536 C535 1.524 . S
C536 C537 1.415 . S
C537 H507 0.950 . S
C537 C532 1.363 . S
C537 C536 1.415 . S
H538 C535 0.999 . S
H539 C520 0.913 . S
H540 C558 0.951 . S
H541 C560 0.951 . S
H542 C562 0.950 . S
H543 C563 0.950 . S
H544 C565 0.950 . S
H545 C568 0.950 . S
H546 C569 0.950 . S
H547 C571 0.950 . S
H548 C572 0.950 . S
H549 C573 0.951 . S
H550 C575 0.951 . S
H551 C577 0.950 . S
H552 C578 0.950 . S
H553 C580 0.950 . S
H554 C583 0.950 . S
H555 C584 0.950 . S
H556 C586 0.950 . S
H557 C587 0.950 . S
C558 H540 0.951 . S
C558 C559 1.366 . S
C558 C560 1.388 . S
C559 C558 1.366 . S
C559 C563 1.385 . S
C560 H541 0.951 . S
C560 C558 1.388 . S
C560 C561 1.366 . S
C561 C560 1.366 . S
C561 C562 1.414 . S
C561 C564 1.499 . S
C562 H542 0.950 . S
C562 C561 1.414 . S
C562 C563 1.374 . S
C563 H543 0.950 . S
C563 C559 1.385 . S
C563 C562 1.374 . S
C564 C561 1.499 . S
C564 C565 1.373 . S
C564 C566 1.407 . S
C565 H544 0.950 . S
C565 C564 1.373 . S
C565 C581 1.359 1_556 S
C566 C564 1.407 . S
C566 C567 1.523 1_556 S
C566 C580 1.359 1_556 S
C567 C566 1.523 1_554 S
C567 C568 1.397 1_554 S
C567 C572 1.363 . S
C568 H545 0.950 . S
C568 C567 1.397 1_556 S
C568 C569 1.334 . S
C569 H546 0.950 . S
C569 C568 1.334 . S
C569 C570 1.287 1_556 S
C570 C569 1.287 1_554 S
C570 C571 1.524 . S
C570 H589 0.913 . S
C571 H547 0.950 . S
C571 C570 1.524 . S
C571 C572 1.415 . S
C572 H548 0.950 . S
C572 C567 1.363 . S
C572 C571 1.415 . S
C573 H549 0.951 . S
C573 C574 1.366 . S
C573 C575 1.388 . S
C574 C573 1.366 . S
C574 C578 1.385 . S
C575 H550 0.951 . S
C575 C573 1.388 . S
C575 C576 1.366 . S
C576 C575 1.366 . S
C576 C577 1.414 . S
C576 C579 1.499 . S
C577 H551 0.950 . S
C577 C576 1.414 . S
C577 C578 1.374 . S
C578 H552 0.950 . S
C578 C574 1.385 . S
C578 C577 1.374 . S
C579 C576 1.499 . S
C579 C580 1.373 . S
C579 C581 1.407 . S
C580 H553 0.950 . S
C580 C566 1.359 1_554 S
C580 C579 1.373 . S
C581 C565 1.359 1_554 S
C581 C579 1.407 . S
C581 C582 1.523 1_554 S
C582 C581 1.523 1_556 S
C582 C583 1.397 1_556 S
C582 C587 1.363 . S
C583 H554 0.950 . S
C583 C582 1.397 1_554 S
C583 C584 1.334 . S
C584 H555 0.950 . S
C584 C583 1.334 . S
C584 C585 1.287 1_554 S
C585 C584 1.287 1_556 S
C585 C586 1.524 . S
C585 H588 0.999 . S
C586 H556 0.950 . S
C586 C585 1.524 . S
C586 C587 1.415 . S
C587 H557 0.950 . S
C587 C582 1.363 . S
C587 C586 1.415 . S
H588 C585 0.999 . S
H589 C570 0.913 . S
H590 C608 0.951 . S
H591 C610 0.951 . S
H592 C612 0.950 . S
H593 C613 0.950 . S
H594 C615 0.950 . S
H595 C618 0.950 . S
H596 C619 0.950 . S
H597 C621 0.950 . S
H598 C622 0.950 . S
H599 C623 0.951 . S
H600 C625 0.951 . S
H601 C627 0.950 . S
H602 C628 0.950 . S
H603 C630 0.950 . S
H604 C633 0.950 . S
H605 C634 0.950 . S
H606 C636 0.950 . S
H607 C637 0.950 . S
C608 H590 0.951 . S
C608 C609 1.366 . S
C608 C610 1.388 . S
C609 C608 1.366 . S
C609 C613 1.385 . S
C610 H591 0.951 . S
C610 C608 1.388 . S
C610 C611 1.366 . S
C611 C610 1.366 . S
C611 C612 1.414 . S
C611 C614 1.499 . S
C612 H592 0.950 . S
C612 C611 1.414 . S
C612 C613 1.374 . S
C613 H593 0.950 . S
C613 C609 1.385 . S
C613 C612 1.374 . S
C614 C611 1.499 . S
C614 C615 1.373 . S
C614 C616 1.389 . S
C615 H594 0.950 . S
C615 C614 1.373 . S
C615 C631 1.377 . S
C616 C614 1.389 . S
C616 C617 1.524 . S
C616 C630 1.377 . S
C617 C616 1.524 . S
C617 C618 1.397 . S
C617 C622 1.363 . S
C618 H595 0.950 . S
C618 C617 1.397 . S
C618 C619 1.334 . S
C619 H596 0.950 . S
C619 C618 1.334 . S
C619 C620 1.287 . S
C620 C619 1.287 . S
C620 C621 1.524 . S
C620 H639 0.913 . S
C621 H597 0.950 . S
C621 C620 1.524 . S
C621 C622 1.415 . S
C622 H598 0.950 . S
C622 C617 1.363 . S
C622 C621 1.415 . S
C623 H599 0.951 . S
C623 C624 1.366 . S
C623 C625 1.388 . S
C624 C623 1.366 . S
C624 C628 1.385 . S
C625 H600 0.951 . S
C625 C623 1.388 . S
C625 C626 1.366 . S
C626 C625 1.366 . S
C626 C627 1.414 . S
C626 C629 1.499 . S
C627 H601 0.950 . S
C627 C626 1.414 . S
C627 C628 1.374 . S
C628 H602 0.950 . S
C628 C624 1.385 . S
C628 C627 1.374 . S
C629 C626 1.499 . S
C629 C630 1.373 . S
C629 C631 1.389 . S
C630 H603 0.950 . S
C630 C616 1.377 . S
C630 C629 1.373 . S
C631 C615 1.377 . S
C631 C629 1.389 . S
C631 C632 1.524 . S
C632 C631 1.524 . S
C632 C633 1.397 . S
C632 C637 1.363 . S
C633 H604 0.950 . S
C633 C632 1.397 . S
C633 C634 1.334 . S
C634 H605 0.950 . S
C634 C633 1.334 . S
C634 C635 1.287 . S
C635 C634 1.287 . S
C635 C636 1.524 . S
C635 H638 0.999 . S
C636 H606 0.950 . S
C636 C635 1.524 . S
C636 C637 1.415 . S
C637 H607 0.950 . S
C637 C632 1.363 . S
C637 C636 1.415 . S
H638 C635 0.999 . S
H639 C620 0.913 . S
H640 C658 0.951 . S
H641 C660 0.951 . S
H642 C662 0.950 . S
H643 C663 0.950 . S
H644 C665 0.950 . S
H645 C668 0.950 . S
H646 C669 0.950 . S
H647 C671 0.950 . S
H648 C672 0.950 . S
H649 C673 0.951 . S
H650 C675 0.951 . S
H651 C677 0.950 . S
H652 C678 0.950 . S
H653 C680 0.950 . S
H654 C683 0.950 . S
H655 C684 0.950 . S
H656 C686 0.950 . S
H657 C687 0.950 . S
C658 H640 0.951 . S
C658 C659 1.366 . S
C658 C660 1.388 . S
C659 C658 1.366 . S
C659 C663 1.385 . S
C660 H641 0.951 . S
C660 C658 1.388 . S
C660 C661 1.366 . S
C661 C660 1.366 . S
C661 C662 1.414 . S
C661 C664 1.499 . S
C662 H642 0.950 . S
C662 C661 1.414 . S
C662 C663 1.374 . S
C663 H643 0.950 . S
C663 C659 1.385 . S
C663 C662 1.374 . S
C664 C661 1.499 . S
C664 C665 1.373 . S
C664 C666 1.389 . S
C665 H644 0.950 . S
C665 C664 1.373 . S
C665 C681 1.377 . S
C666 C664 1.389 . S
C666 C667 1.524 . S
C666 C680 1.377 . S
C667 C666 1.524 . S
C667 C668 1.397 . S
C667 C672 1.363 . S
C668 H645 0.950 . S
C668 C667 1.397 . S
C668 C669 1.334 . S
C669 H646 0.950 . S
C669 C668 1.334 . S
C669 C670 1.287 . S
C670 C669 1.287 . S
C670 C671 1.524 . S
C670 H689 0.913 . S
C671 H647 0.950 . S
C671 C670 1.524 . S
C671 C672 1.415 . S
C672 H648 0.950 . S
C672 C667 1.363 . S
C672 C671 1.415 . S
C673 H649 0.951 . S
C673 C674 1.366 . S
C673 C675 1.388 . S
C674 C673 1.366 . S
C674 C678 1.385 . S
C675 H650 0.951 . S
C675 C673 1.388 . S
C675 C676 1.366 . S
C676 C675 1.366 . S
C676 C677 1.414 . S
C676 C679 1.499 . S
C677 H651 0.950 . S
C677 C676 1.414 . S
C677 C678 1.374 . S
C678 H652 0.950 . S
C678 C674 1.385 . S
C678 C677 1.374 . S
C679 C676 1.499 . S
C679 C680 1.373 . S
C679 C681 1.389 . S
C680 H653 0.950 . S
C680 C666 1.377 . S
C680 C679 1.373 . S
C681 C665 1.377 . S
C681 C679 1.389 . S
C681 C682 1.524 . S
C682 C681 1.524 . S
C682 C683 1.397 . S
C682 C687 1.363 . S
C683 H654 0.950 . S
C683 C682 1.397 . S
C683 C684 1.334 . S
C684 H655 0.950 . S
C684 C683 1.334 . S
C684 C685 1.287 . S
C685 C684 1.287 . S
C685 C686 1.524 . S
C685 H688 0.999 . S
C686 H656 0.950 . S
C686 C685 1.524 . S
C686 C687 1.415 . S
C687 H657 0.950 . S
C687 C682 1.363 . S
C687 C686 1.415 . S
H688 C685 0.999 . S
H689 C670 0.913 . S
H690 C708 0.951 . S
H691 C710 0.951 . S
H692 C712 0.950 . S
H693 C713 0.950 . S
H694 C715 0.950 . S
H695 C718 0.950 . S
H696 C719 0.950 . S
H697 C721 0.950 . S
H698 C722 0.950 . S
H699 C723 0.951 . S
H700 C725 0.951 . S
H701 C727 0.950 . S
H702 C728 0.950 . S
H703 C730 0.950 . S
H704 C733 0.950 . S
H705 C734 0.950 . S
H706 C736 0.950 . S
H707 C737 0.950 . S
C708 H690 0.951 . S
C708 C709 1.366 . S
C708 C710 1.388 . S
C709 C708 1.366 . S
C709 C713 1.385 . S
C710 H691 0.951 . S
C710 C708 1.388 . S
C710 C711 1.366 . S
C711 C710 1.366 . S
C711 C712 1.414 . S
C711 C714 1.499 . S
C712 H692 0.950 . S
C712 C711 1.414 . S
C712 C713 1.374 . S
C713 H693 0.950 . S
C713 C709 1.385 . S
C713 C712 1.374 . S
C714 C711 1.499 . S
C714 C715 1.373 . S
C714 C716 1.389 . S
C715 H694 0.950 . S
C715 C714 1.373 . S
C715 C731 1.377 1_556 S
C716 C714 1.389 . S
C716 C717 1.524 . S
C716 C730 1.377 1_556 S
C717 C716 1.524 . S
C717 C718 1.397 . S
C717 C722 1.363 . S
C718 H695 0.950 . S
C718 C717 1.397 . S
C718 C719 1.334 . S
C719 H696 0.950 . S
C719 C718 1.334 . S
C719 C720 1.287 . S
C720 C719 1.287 . S
C720 C721 1.524 . S
C720 H739 0.913 . S
C721 H697 0.950 . S
C721 C720 1.524 . S
C721 C722 1.415 . S
C722 H698 0.950 . S
C722 C717 1.363 . S
C722 C721 1.415 . S
C723 H699 0.951 . S
C723 C724 1.366 . S
C723 C725 1.388 . S
C724 C723 1.366 . S
C724 C728 1.385 . S
C725 H700 0.951 . S
C725 C723 1.388 . S
C725 C726 1.366 . S
C726 C725 1.366 . S
C726 C727 1.414 . S
C726 C729 1.499 . S
C727 H701 0.950 . S
C727 C726 1.414 . S
C727 C728 1.374 . S
C728 H702 0.950 . S
C728 C724 1.385 . S
C728 C727 1.374 . S
C729 C726 1.499 . S
C729 C730 1.373 . S
C729 C731 1.389 . S
C730 H703 0.950 . S
C730 C716 1.377 1_554 S
C730 C729 1.373 . S
C731 C715 1.377 1_554 S
C731 C729 1.389 . S
C731 C732 1.524 . S
C732 C731 1.524 . S
C732 C733 1.397 . S
C732 C737 1.363 . S
C733 H704 0.950 . S
C733 C732 1.397 . S
C733 C734 1.334 . S
C734 H705 0.950 . S
C734 C733 1.334 . S
C734 C735 1.287 . S
C735 C734 1.287 . S
C735 C736 1.524 . S
C735 H738 0.999 . S
C736 H706 0.950 . S
C736 C735 1.524 . S
C736 C737 1.415 . S
C737 H707 0.950 . S
C737 C732 1.363 . S
C737 C736 1.415 . S
H738 C735 0.999 . S
H739 C720 0.913 . S
H740 C758 0.951 . S
H741 C760 0.951 . S
H742 C762 0.950 . S
H743 C763 0.950 . S
H744 C765 0.950 . S
H745 C768 0.950 . S
H746 C769 0.950 . S
H747 C771 0.950 . S
H748 C772 0.950 . S
H749 C773 0.951 . S
H750 C775 0.951 . S
H751 C777 0.950 . S
H752 C778 0.950 . S
H753 C780 0.950 . S
H754 C783 0.950 . S
H755 C784 0.950 . S
H756 C786 0.950 . S
H757 C787 0.950 . S
C758 H740 0.951 . S
C758 C759 1.366 . S
C758 C760 1.388 . S
C759 C758 1.366 . S
C759 C763 1.385 . S
C760 H741 0.951 . S
C760 C758 1.388 . S
C760 C761 1.366 . S
C761 C760 1.366 . S
C761 C762 1.414 . S
C761 C764 1.499 . S
C762 H742 0.950 . S
C762 C761 1.414 . S
C762 C763 1.374 . S
C763 H743 0.950 . S
C763 C759 1.385 . S
C763 C762 1.374 . S
C764 C761 1.499 . S
C764 C765 1.373 . S
C764 C766 1.389 . S
C765 H744 0.950 . S
C765 C764 1.373 . S
C765 C781 1.377 . S
C766 C764 1.389 . S
C766 C767 1.524 . S
C766 C780 1.377 . S
C767 C766 1.524 . S
C767 C768 1.397 . S
C767 C772 1.363 . S
C768 H745 0.950 . S
C768 C767 1.397 . S
C768 C769 1.334 . S
C769 H746 0.950 . S
C769 C768 1.334 . S
C769 C770 1.287 . S
C770 C769 1.287 . S
C770 C771 1.524 . S
C770 H789 0.913 . S
C771 H747 0.950 . S
C771 C770 1.524 . S
C771 C772 1.415 . S
C772 H748 0.950 . S
C772 C767 1.363 . S
C772 C771 1.415 . S
C773 H749 0.951 . S
C773 C774 1.366 . S
C773 C775 1.388 . S
C774 C773 1.366 . S
C774 C778 1.385 . S
C775 H750 0.951 . S
C775 C773 1.388 . S
C775 C776 1.366 . S
C776 C775 1.366 . S
C776 C777 1.414 . S
C776 C779 1.499 . S
C777 H751 0.950 . S
C777 C776 1.414 . S
C777 C778 1.374 . S
C778 H752 0.950 . S
C778 C774 1.385 . S
C778 C777 1.374 . S
C779 C776 1.499 . S
C779 C780 1.373 . S
C779 C781 1.389 . S
C780 H753 0.950 . S
C780 C766 1.377 . S
C780 C779 1.373 . S
C781 C765 1.377 . S
C781 C779 1.389 . S
C781 C782 1.524 . S
C782 C781 1.524 . S
C782 C783 1.397 . S
C782 C787 1.363 . S
C783 H754 0.950 . S
C783 C782 1.397 . S
C783 C784 1.334 . S
C784 H755 0.950 . S
C784 C783 1.334 . S
C784 C785 1.287 . S
C785 C784 1.287 . S
C785 C786 1.524 . S
C785 H788 0.999 . S
C786 H756 0.950 . S
C786 C785 1.524 . S
C786 C787 1.415 . S
C787 H757 0.950 . S
C787 C782 1.363 . S
C787 C786 1.415 . S
H788 C785 0.999 . S
H789 C770 0.913 . S
H790 C808 0.951 . S
H791 C810 0.951 . S
H792 C812 0.950 . S
H793 C813 0.950 . S
H794 C815 0.950 . S
H795 C818 0.950 . S
H796 C819 0.950 . S
H797 C821 0.950 . S
H798 C822 0.950 . S
H799 C823 0.951 . S
H800 C825 0.951 . S
H801 C827 0.950 . S
H802 C828 0.950 . S
H803 C830 0.950 . S
H804 C833 0.950 . S
H805 C834 0.950 . S
H806 C836 0.950 . S
H807 C837 0.950 . S
C808 H790 0.951 . S
C808 C809 1.366 . S
C808 C810 1.388 . S
C809 C808 1.366 . S
C809 C813 1.385 . S
C810 H791 0.951 . S
C810 C808 1.388 . S
C810 C811 1.366 . S
C811 C810 1.366 . S
C811 C812 1.414 . S
C811 C814 1.499 . S
C812 H792 0.950 . S
C812 C811 1.414 . S
C812 C813 1.374 . S
C813 H793 0.950 . S
C813 C809 1.385 . S
C813 C812 1.374 . S
C814 C811 1.499 . S
C814 C815 1.373 . S
C814 C816 1.389 . S
C815 H794 0.950 . S
C815 C814 1.373 . S
C815 C831 1.377 . S
C816 C814 1.389 . S
C816 C817 1.524 . S
C816 C830 1.377 . S
C817 C816 1.524 . S
C817 C818 1.397 . S
C817 C822 1.363 . S
C818 H795 0.950 . S
C818 C817 1.397 . S
C818 C819 1.334 . S
C819 H796 0.950 . S
C819 C818 1.334 . S
C819 C820 1.287 . S
C820 C819 1.287 . S
C820 C821 1.524 . S
C820 H839 0.913 . S
C821 H797 0.950 . S
C821 C820 1.524 . S
C821 C822 1.415 . S
C822 H798 0.950 . S
C822 C817 1.363 . S
C822 C821 1.415 . S
C823 H799 0.951 . S
C823 C824 1.366 . S
C823 C825 1.388 . S
C824 C823 1.366 . S
C824 C828 1.385 . S
C825 H800 0.951 . S
C825 C823 1.388 . S
C825 C826 1.366 . S
C826 C825 1.366 . S
C826 C827 1.414 . S
C826 C829 1.499 . S
C827 H801 0.950 . S
C827 C826 1.414 . S
C827 C828 1.374 . S
C828 H802 0.950 . S
C828 C824 1.385 . S
C828 C827 1.374 . S
C829 C826 1.499 . S
C829 C830 1.373 . S
C829 C831 1.389 . S
C830 H803 0.950 . S
C830 C816 1.377 . S
C830 C829 1.373 . S
C831 C815 1.377 . S
C831 C829 1.389 . S
C831 C832 1.524 . S
C832 C831 1.524 . S
C832 C833 1.397 . S
C832 C837 1.363 . S
C833 H804 0.950 . S
C833 C832 1.397 . S
C833 C834 1.334 . S
C834 H805 0.950 . S
C834 C833 1.334 . S
C834 C835 1.287 . S
C835 C834 1.287 . S
C835 C836 1.524 . S
C835 H838 0.999 . S
C836 H806 0.950 . S
C836 C835 1.524 . S
C836 C837 1.415 . S
C837 H807 0.950 . S
C837 C832 1.363 . S
C837 C836 1.415 . S
H838 C835 0.999 . S
H839 C820 0.913 . S
H840 C858 0.951 . S
H841 C860 0.951 . S
H842 C862 0.950 . S
H843 C863 0.950 . S
H844 C865 0.950 . S
H845 C868 0.950 . S
H846 C869 0.950 . S
H847 C871 0.950 . S
H848 C872 0.950 . S
H849 C873 0.951 . S
H850 C875 0.950 . S
H851 C877 0.950 . S
H852 C878 0.950 . S
H853 C880 0.950 . S
H854 C883 0.950 . S
H855 C884 0.950 . S
H856 C886 0.950 . S
H857 C887 0.950 . S
C858 H840 0.951 . S
C858 C859 1.366 . S
C858 C860 1.388 . S
C859 C858 1.366 . S
C859 C863 1.385 . S
C860 H841 0.951 . S
C860 C858 1.388 . S
C860 C861 1.366 . S
C861 C860 1.366 . S
C861 C862 1.414 . S
C861 C864 1.499 . S
C862 H842 0.950 . S
C862 C861 1.414 . S
C862 C863 1.374 . S
C863 H843 0.950 . S
C863 C859 1.385 . S
C863 C862 1.374 . S
C864 C861 1.499 . S
C864 C865 1.373 . S
C864 C866 1.389 1_565 S
C865 H844 0.950 . S
C865 C864 1.373 . S
C865 C881 1.377 1_556 S
C866 C864 1.389 1_545 S
C866 C867 1.524 . S
C866 C880 1.377 1_556 S
C867 C866 1.524 . S
C867 C868 1.397 1_545 S
C867 C872 1.363 . S
C868 H845 0.950 . S
C868 C867 1.397 1_565 S
C868 C869 1.334 . S
C869 H846 0.950 . S
C869 C868 1.334 . S
C869 C870 1.287 1_565 S
C870 C869 1.287 1_545 S
C870 C871 1.524 . S
C870 H889 0.913 . S
C871 H847 0.950 . S
C871 C870 1.524 . S
C871 C872 1.415 . S
C872 H848 0.950 . S
C872 C867 1.363 . S
C872 C871 1.415 . S
C873 H849 0.951 . S
C873 C874 1.366 . S
C873 C875 1.388 . S
C874 C873 1.366 . S
C874 C878 1.385 . S
C875 H850 0.950 . S
C875 C873 1.388 . S
C875 C876 1.366 . S
C876 C875 1.366 . S
C876 C877 1.414 . S
C876 C879 1.499 . S
C877 H851 0.950 . S
C877 C876 1.414 . S
C877 C878 1.374 . S
C878 H852 0.950 . S
C878 C874 1.385 . S
C878 C877 1.374 . S
C879 C876 1.499 . S
C879 C880 1.373 . S
C879 C881 1.389 1_545 S
C880 H853 0.950 . S
C880 C866 1.377 1_554 S
C880 C879 1.373 . S
C881 C865 1.377 1_554 S
C881 C879 1.389 1_565 S
C881 C882 1.524 . S
C882 C881 1.524 . S
C882 C883 1.397 1_565 S
C882 C887 1.363 . S
C883 H854 0.950 . S
C883 C882 1.397 1_545 S
C883 C884 1.334 . S
C884 H855 0.950 . S
C884 C883 1.334 . S
C884 C885 1.287 1_545 S
C885 C884 1.287 1_565 S
C885 C886 1.524 . S
C885 H888 0.999 . S
C886 H856 0.950 . S
C886 C885 1.524 . S
C886 C887 1.415 . S
C887 H857 0.950 . S
C887 C882 1.363 . S
C887 C886 1.415 . S
H888 C885 0.999 . S
H889 C870 0.913 . S
H890 C908 0.951 . S
H891 C910 0.951 . S
H892 C912 0.950 . S
H893 C913 0.950 . S
H894 C915 0.950 . S
H895 C918 0.950 . S
H896 C919 0.950 . S
H897 C921 0.950 . S
H898 C922 0.950 . S
H899 C923 0.951 . S
H900 C925 0.951 . S
H901 C927 0.950 . S
H902 C928 0.950 . S
H903 C930 0.950 . S
H904 C933 0.950 . S
H905 C934 0.950 . S
H906 C936 0.950 . S
H907 C937 0.950 . S
C908 H890 0.951 . S
C908 C909 1.366 . S
C908 C910 1.388 . S
C909 C908 1.366 . S
C909 C913 1.385 . S
C910 H891 0.951 . S
C910 C908 1.388 . S
C910 C911 1.366 . S
C911 C910 1.366 . S
C911 C912 1.414 . S
C911 C914 1.499 . S
C912 H892 0.950 . S
C912 C911 1.414 . S
C912 C913 1.374 . S
C913 H893 0.950 . S
C913 C909 1.385 . S
C913 C912 1.374 . S
C914 C911 1.499 . S
C914 C915 1.373 . S
C914 C916 1.389 . S
C915 H894 0.950 . S
C915 C914 1.373 . S
C915 C931 1.377 . S
C916 C914 1.389 . S
C916 C917 1.524 . S
C916 C930 1.377 . S
C917 C916 1.524 . S
C917 C918 1.397 . S
C917 C922 1.363 . S
C918 H895 0.950 . S
C918 C917 1.397 . S
C918 C919 1.334 . S
C919 H896 0.950 . S
C919 C918 1.334 . S
C919 C920 1.287 . S
C920 C919 1.287 . S
C920 C921 1.524 . S
C920 H939 0.913 . S
C921 H897 0.950 . S
C921 C920 1.524 . S
C921 C922 1.415 . S
C922 H898 0.950 . S
C922 C917 1.363 . S
C922 C921 1.415 . S
C923 H899 0.951 . S
C923 C924 1.366 . S
C923 C925 1.388 . S
C924 C923 1.366 . S
C924 C928 1.385 . S
C925 H900 0.951 . S
C925 C923 1.388 . S
C925 C926 1.366 . S
C926 C925 1.366 . S
C926 C927 1.414 . S
C926 C929 1.499 . S
C927 H901 0.950 . S
C927 C926 1.414 . S
C927 C928 1.374 . S
C928 H902 0.950 . S
C928 C924 1.385 . S
C928 C927 1.374 . S
C929 C926 1.499 . S
C929 C930 1.373 . S
C929 C931 1.389 . S
C930 H903 0.950 . S
C930 C916 1.377 . S
C930 C929 1.373 . S
C931 C915 1.377 . S
C931 C929 1.389 . S
C931 C932 1.524 . S
C932 C931 1.524 . S
C932 C933 1.397 . S
C932 C937 1.363 . S
C933 H904 0.950 . S
C933 C932 1.397 . S
C933 C934 1.334 . S
C934 H905 0.950 . S
C934 C933 1.334 . S
C934 C935 1.287 . S
C935 C934 1.287 . S
C935 C936 1.524 . S
C935 H938 0.999 . S
C936 H906 0.950 . S
C936 C935 1.524 . S
C936 C937 1.415 . S
C937 H907 0.950 . S
C937 C932 1.363 . S
C937 C936 1.415 . S
H938 C935 0.999 . S
H939 C920 0.913 . S
H940 C958 0.951 . S
H941 C960 0.951 . S
H942 C962 0.928 1_655 S
H943 C963 0.950 . S
H944 C965 0.950 . S
H945 C968 0.950 . S
H946 C969 0.950 . S
H947 C971 0.950 . S
H948 C972 0.950 . S
H949 C973 0.951 . S
H950 C975 0.951 . S
H951 C977 0.928 1_455 S
H952 C978 0.950 . S
H953 C980 0.950 . S
H954 C983 0.950 . S
H955 C984 0.950 . S
H956 C986 0.950 . S
H957 C987 0.950 . S
C958 H940 0.951 . S
C958 C959 1.366 . S
C958 C960 1.388 . S
C959 C958 1.366 . S
C959 C963 1.385 . S
C960 H941 0.951 . S
C960 C958 1.388 . S
C960 C961 1.366 . S
C961 C960 1.366 . S
C961 C962 1.414 . S
C961 C964 1.499 . S
C962 H942 0.928 1_455 S
C962 C961 1.414 . S
C962 C963 1.374 . S
C963 H943 0.950 . S
C963 C959 1.385 . S
C963 C962 1.374 . S
C964 C961 1.499 . S
C964 C965 1.373 1_455 S
C964 C966 1.389 . S
C965 H944 0.950 . S
C965 C964 1.373 1_655 S
C965 C981 1.377 . S
C966 C964 1.389 . S
C966 C967 1.524 . S
C966 C980 1.377 . S
C967 C966 1.524 . S
C967 C968 1.397 . S
C967 C972 1.363 . S
C968 H945 0.950 . S
C968 C967 1.397 . S
C968 C969 1.334 . S
C969 H946 0.950 . S
C969 C968 1.334 . S
C969 C970 1.287 . S
C970 C969 1.287 . S
C970 C971 1.524 . S
C970 H989 0.913 . S
C971 H947 0.950 . S
C971 C970 1.524 . S
C971 C972 1.415 . S
C972 H948 0.950 . S
C972 C967 1.363 . S
C972 C971 1.415 . S
C973 H949 0.951 . S
C973 C974 1.366 . S
C973 C975 1.388 . S
C974 C973 1.366 . S
C974 C978 1.385 . S
C975 H950 0.951 . S
C975 C973 1.388 . S
C975 C976 1.366 . S
C976 C975 1.366 . S
C976 C977 1.414 . S
C976 C979 1.499 . S
C977 H951 0.928 1_655 S
C977 C976 1.414 . S
C977 C978 1.374 . S
C978 H952 0.950 . S
C978 C974 1.385 . S
C978 C977 1.374 . S
C979 C976 1.499 . S
C979 C980 1.373 1_655 S
C979 C981 1.389 . S
C980 H953 0.950 . S
C980 C966 1.377 . S
C980 C979 1.373 1_455 S
C981 C965 1.377 . S
C981 C979 1.389 . S
C981 C982 1.524 . S
C982 C981 1.524 . S
C982 C983 1.397 . S
C982 C987 1.363 . S
C983 H954 0.950 . S
C983 C982 1.397 . S
C983 C984 1.334 . S
C984 H955 0.950 . S
C984 C983 1.334 . S
C984 C985 1.287 . S
C985 C984 1.287 . S
C985 C986 1.524 . S
C985 H988 0.999 . S
C986 H956 0.950 . S
C986 C985 1.524 . S
C986 C987 1.415 . S
C987 H957 0.950 . S
C987 C982 1.363 . S
C987 C986 1.415 . S
H988 C985 0.999 . S
H989 C970 0.913 . S
H990 C1008 0.951 . S
H991 C1010 0.951 . S
H992 C1012 0.950 . S
H993 C1013 0.950 . S
H994 C1015 0.950 . S
H995 C1018 0.950 . S
H996 C1019 0.950 . S
H997 C1021 0.950 . S
H998 C1022 0.950 . S
H999 C1023 0.951 . S
H1000 C1025 0.951 . S
H1001 C1027 0.950 . S
H1002 C1028 0.950 . S
H1003 C1030 0.950 . S
H1004 C1033 0.950 . S
H1005 C1034 0.950 . S
H1006 C1036 0.950 . S
H1007 C1037 0.950 . S
C1008 H990 0.951 . S
C1008 C1009 1.366 . S
C1008 C1010 1.388 . S
C1009 C1008 1.366 . S
C1009 C1013 1.385 . S
C1010 H991 0.951 . S
C1010 C1008 1.388 . S
C1010 C1011 1.366 . S
C1011 C1010 1.366 . S
C1011 C1012 1.414 . S
C1011 C1014 1.499 . S
C1012 H992 0.950 . S
C1012 C1011 1.414 . S
C1012 C1013 1.374 . S
C1013 H993 0.950 . S
C1013 C1009 1.385 . S
C1013 C1012 1.374 . S
C1014 C1011 1.499 . S
C1014 C1015 1.373 . S
C1014 C1016 1.389 1_565 S
C1015 H994 0.950 . S
C1015 C1014 1.373 . S
C1015 C1031 1.377 1_554 S
C1016 C1014 1.389 1_545 S
C1016 C1017 1.524 . S
C1016 C1030 1.377 1_554 S
C1017 C1016 1.524 . S
C1017 C1018 1.397 . S
C1017 C1022 1.363 . S
C1018 H995 0.950 . S
C1018 C1017 1.397 . S
C1018 C1019 1.334 . S
C1019 H996 0.950 . S
C1019 C1018 1.334 . S
C1019 C1020 1.287 . S
C1020 C1019 1.287 . S
C1020 C1021 1.524 . S
C1020 H1039 0.913 . S
C1021 H997 0.950 . S
C1021 C1020 1.524 . S
C1021 C1022 1.415 . S
C1022 H998 0.950 . S
C1022 C1017 1.363 . S
C1022 C1021 1.415 . S
C1023 H999 0.951 . S
C1023 C1024 1.366 . S
C1023 C1025 1.388 . S
C1024 C1023 1.366 . S
C1024 C1028 1.385 . S
C1025 H1000 0.951 . S
C1025 C1023 1.388 . S
C1025 C1026 1.366 . S
C1026 C1025 1.366 . S
C1026 C1027 1.414 . S
C1026 C1029 1.499 . S
C1027 H1001 0.950 . S
C1027 C1026 1.414 . S
C1027 C1028 1.374 . S
C1028 H1002 0.950 . S
C1028 C1024 1.385 . S
C1028 C1027 1.374 . S
C1029 C1026 1.499 . S
C1029 C1030 1.373 . S
C1029 C1031 1.389 1_545 S
C1030 H1003 0.950 . S
C1030 C1016 1.377 1_556 S
C1030 C1029 1.373 . S
C1031 C1015 1.377 1_556 S
C1031 C1029 1.389 1_565 S
C1031 C1032 1.524 . S
C1032 C1031 1.524 . S
C1032 C1033 1.397 . S
C1032 C1037 1.363 . S
C1033 H1004 0.950 . S
C1033 C1032 1.397 . S
C1033 C1034 1.334 . S
C1034 H1005 0.950 . S
C1034 C1033 1.334 . S
C1034 C1035 1.287 . S
C1035 C1034 1.287 . S
C1035 C1036 1.524 . S
C1035 H1038 0.999 . S
C1036 H1006 0.950 . S
C1036 C1035 1.524 . S
C1036 C1037 1.415 . S
C1037 H1007 0.950 . S
C1037 C1032 1.363 . S
C1037 C1036 1.415 . S
H1038 C1035 0.999 . S
H1039 C1020 0.913 . S
H1040 C1058 0.951 . S
H1041 C1060 0.951 . S
H1042 C1062 0.950 . S
H1043 C1063 0.950 . S
H1044 C1065 0.950 . S
H1045 C1068 0.950 . S
H1046 C1069 0.950 . S
H1047 C1071 0.950 . S
H1048 C1072 0.950 . S
H1049 C1073 0.951 . S
H1050 C1075 0.951 . S
H1051 C1077 0.950 . S
H1052 C1078 0.950 . S
H1053 C1080 0.950 . S
H1054 C1083 0.950 . S
H1055 C1084 0.950 . S
H1056 C1086 0.950 . S
H1057 C1087 0.950 . S
C1058 H1040 0.951 . S
C1058 C1059 1.366 . S
C1058 C1060 1.388 . S
C1059 C1058 1.366 . S
C1059 C1063 1.385 . S
C1060 H1041 0.951 . S
C1060 C1058 1.388 . S
C1060 C1061 1.366 . S
C1061 C1060 1.366 . S
C1061 C1062 1.414 . S
C1061 C1064 1.499 . S
C1062 H1042 0.950 . S
C1062 C1061 1.414 . S
C1062 C1063 1.374 . S
C1063 H1043 0.950 . S
C1063 C1059 1.385 . S
C1063 C1062 1.374 . S
C1064 C1061 1.499 . S
C1064 C1065 1.373 . S
C1064 C1066 1.389 . S
C1065 H1044 0.950 . S
C1065 C1064 1.373 . S
C1065 C1081 1.377 . S
C1066 C1064 1.389 . S
C1066 C1067 1.524 . S
C1066 C1080 1.377 . S
C1067 C1066 1.524 . S
C1067 C1068 1.397 . S
C1067 C1072 1.363 . S
C1068 H1045 0.950 . S
C1068 C1067 1.397 . S
C1068 C1069 1.334 . S
C1069 H1046 0.950 . S
C1069 C1068 1.334 . S
C1069 C1070 1.287 . S
C1070 C1069 1.287 . S
C1070 C1071 1.524 . S
C1070 H1089 0.913 . S
C1071 H1047 0.950 . S
C1071 C1070 1.524 . S
C1071 C1072 1.415 . S
C1072 H1048 0.950 . S
C1072 C1067 1.363 . S
C1072 C1071 1.415 . S
C1073 H1049 0.951 . S
C1073 C1074 1.366 . S
C1073 C1075 1.388 . S
C1074 C1073 1.366 . S
C1074 C1078 1.385 . S
C1075 H1050 0.951 . S
C1075 C1073 1.388 . S
C1075 C1076 1.366 . S
C1076 C1075 1.366 . S
C1076 C1077 1.414 . S
C1076 C1079 1.499 . S
C1077 H1051 0.950 . S
C1077 C1076 1.414 . S
C1077 C1078 1.374 . S
C1078 H1052 0.950 . S
C1078 C1074 1.385 . S
C1078 C1077 1.374 . S
C1079 C1076 1.499 . S
C1079 C1080 1.373 . S
C1079 C1081 1.389 . S
C1080 H1053 0.950 . S
C1080 C1066 1.377 . S
C1080 C1079 1.373 . S
C1081 C1065 1.377 . S
C1081 C1079 1.389 . S
C1081 C1082 1.524 . S
C1082 C1081 1.524 . S
C1082 C1083 1.397 . S
C1082 C1087 1.363 . S
C1083 H1054 0.950 . S
C1083 C1082 1.397 . S
C1083 C1084 1.334 . S
C1084 H1055 0.950 . S
C1084 C1083 1.334 . S
C1084 C1085 1.287 . S
C1085 C1084 1.287 . S
C1085 C1086 1.524 . S
C1085 H1088 0.999 . S
C1086 H1056 0.950 . S
C1086 C1085 1.524 . S
C1086 C1087 1.415 . S
C1087 H1057 0.950 . S
C1087 C1082 1.363 . S
C1087 C1086 1.415 . S
H1088 C1085 0.999 . S
H1089 C1070 0.913 . S
H1090 C1108 0.951 . S
H1091 C1110 0.951 . S
H1092 C1112 0.950 . S
H1093 C1113 0.950 . S
H1094 C1115 0.950 . S
H1095 C1118 0.950 . S
H1096 C1119 0.950 . S
H1097 C1121 0.950 . S
H1098 C1122 0.950 . S
H1099 C1123 0.951 . S
H1100 C1125 0.951 . S
H1101 C1127 0.950 . S
H1102 C1128 0.950 . S
H1103 C1130 0.950 . S
H1104 C1133 0.950 . S
H1105 C1134 0.950 . S
H1106 C1136 0.950 . S
H1107 C1137 0.950 . S
C1108 H1090 0.951 . S
C1108 C1109 1.366 . S
C1108 C1110 1.388 . S
C1109 C1108 1.366 . S
C1109 C1113 1.385 . S
C1110 H1091 0.951 . S
C1110 C1108 1.388 . S
C1110 C1111 1.366 . S
C1111 C1110 1.366 . S
C1111 C1112 1.414 . S
C1111 C1114 1.499 . S
C1112 H1092 0.950 . S
C1112 C1111 1.414 . S
C1112 C1113 1.374 . S
C1113 H1093 0.950 . S
C1113 C1109 1.385 . S
C1113 C1112 1.374 . S
C1114 C1111 1.499 . S
C1114 C1115 1.373 1_455 S
C1114 C1116 1.389 . S
C1115 H1094 0.950 . S
C1115 C1114 1.373 1_655 S
C1115 C1131 1.377 . S
C1116 C1114 1.389 . S
C1116 C1117 1.524 . S
C1116 C1130 1.377 . S
C1117 C1116 1.524 . S
C1117 C1118 1.397 . S
C1117 C1122 1.363 . S
C1118 H1095 0.950 . S
C1118 C1117 1.397 . S
C1118 C1119 1.334 . S
C1119 H1096 0.950 . S
C1119 C1118 1.334 . S
C1119 C1120 1.287 . S
C1120 C1119 1.287 . S
C1120 C1121 1.524 . S
C1120 H1139 0.913 . S
C1121 H1097 0.950 . S
C1121 C1120 1.524 . S
C1121 C1122 1.415 . S
C1122 H1098 0.950 . S
C1122 C1117 1.363 . S
C1122 C1121 1.415 . S
C1123 H1099 0.951 . S
C1123 C1124 1.366 . S
C1123 C1125 1.388 . S
C1124 C1123 1.366 . S
C1124 C1128 1.385 . S
C1125 H1100 0.951 . S
C1125 C1123 1.388 . S
C1125 C1126 1.366 . S
C1126 C1125 1.366 . S
C1126 C1127 1.414 . S
C1126 C1129 1.499 . S
C1127 H1101 0.950 . S
C1127 C1126 1.414 . S
C1127 C1128 1.374 . S
C1128 H1102 0.950 . S
C1128 C1124 1.385 . S
C1128 C1127 1.374 . S
C1129 C1126 1.499 . S
C1129 C1130 1.373 1_655 S
C1129 C1131 1.389 . S
C1130 H1103 0.950 . S
C1130 C1116 1.377 . S
C1130 C1129 1.373 1_455 S
C1131 C1115 1.377 . S
C1131 C1129 1.389 . S
C1131 C1132 1.524 . S
C1132 C1131 1.524 . S
C1132 C1133 1.397 . S
C1132 C1137 1.363 . S
C1133 H1104 0.950 . S
C1133 C1132 1.397 . S
C1133 C1134 1.334 . S
C1134 H1105 0.950 . S
C1134 C1133 1.334 . S
C1134 C1135 1.287 . S
C1135 C1134 1.287 . S
C1135 C1136 1.524 . S
C1135 H1138 0.999 . S
C1136 H1106 0.950 . S
C1136 C1135 1.524 . S
C1136 C1137 1.415 . S
C1137 H1107 0.950 . S
C1137 C1132 1.363 . S
C1137 C1136 1.415 . S
H1138 C1135 0.999 . S
H1139 C1120 0.913 . S
H1140 C1158 0.951 . S
H1141 C1160 0.951 . S
H1142 C1162 0.950 . S
H1143 C1163 0.950 . S
H1144 C1165 0.950 . S
H1145 C1168 0.950 . S
H1146 C1169 0.950 . S
H1147 C1171 0.950 . S
H1148 C1172 0.950 . S
H1149 C1173 0.951 . S
H1150 C1175 0.951 . S
H1151 C1177 0.950 . S
H1152 C1178 0.950 . S
H1153 C1180 0.950 . S
H1154 C1183 0.950 . S
H1155 C1184 0.950 . S
H1156 C1186 0.950 . S
H1157 C1187 0.950 . S
C1158 H1140 0.951 . S
C1158 C1159 1.366 . S
C1158 C1160 1.388 . S
C1159 C1158 1.366 . S
C1159 C1163 1.385 . S
C1160 H1141 0.951 . S
C1160 C1158 1.388 . S
C1160 C1161 1.366 . S
C1161 C1160 1.366 . S
C1161 C1162 1.414 . S
C1161 C1164 1.499 . S
C1162 H1142 0.950 . S
C1162 C1161 1.414 . S
C1162 C1163 1.374 . S
C1163 H1143 0.950 . S
C1163 C1159 1.385 . S
C1163 C1162 1.374 . S
C1164 C1161 1.499 . S
C1164 C1165 1.373 . S
C1164 C1166 1.389 . S
C1165 H1144 0.950 . S
C1165 C1164 1.373 . S
C1165 C1181 1.377 1_545 S
C1166 C1164 1.389 . S
C1166 C1167 1.524 . S
C1166 C1180 1.377 1_545 S
C1167 C1166 1.524 . S
C1167 C1168 1.397 . S
C1167 C1172 1.363 . S
C1168 H1145 0.950 . S
C1168 C1167 1.397 . S
C1168 C1169 1.334 . S
C1169 H1146 0.950 . S
C1169 C1168 1.334 . S
C1169 C1170 1.287 . S
C1170 C1169 1.287 . S
C1170 C1171 1.524 . S
C1170 H1189 0.913 . S
C1171 H1147 0.950 . S
C1171 C1170 1.524 . S
C1171 C1172 1.415 . S
C1172 H1148 0.950 . S
C1172 C1167 1.363 . S
C1172 C1171 1.415 . S
C1173 H1149 0.951 . S
C1173 C1174 1.366 . S
C1173 C1175 1.388 . S
C1174 C1173 1.366 . S
C1174 C1178 1.385 . S
C1175 H1150 0.951 . S
C1175 C1173 1.388 . S
C1175 C1176 1.366 . S
C1176 C1175 1.366 . S
C1176 C1177 1.414 . S
C1176 C1179 1.499 . S
C1177 H1151 0.950 . S
C1177 C1176 1.414 . S
C1177 C1178 1.374 . S
C1178 H1152 0.950 . S
C1178 C1174 1.385 . S
C1178 C1177 1.374 . S
C1179 C1176 1.499 . S
C1179 C1180 1.373 . S
C1179 C1181 1.389 . S
C1180 H1153 0.950 . S
C1180 C1166 1.377 1_565 S
C1180 C1179 1.373 . S
C1181 C1165 1.377 1_565 S
C1181 C1179 1.389 . S
C1181 C1182 1.524 . S
C1182 C1181 1.524 . S
C1182 C1183 1.397 . S
C1182 C1187 1.363 . S
C1183 H1154 0.950 . S
C1183 C1182 1.397 . S
C1183 C1184 1.334 . S
C1184 H1155 0.950 . S
C1184 C1183 1.334 . S
C1184 C1185 1.287 . S
C1185 C1184 1.287 . S
C1185 C1186 1.524 . S
C1185 H1188 0.999 . S
C1186 H1156 0.950 . S
C1186 C1185 1.524 . S
C1186 C1187 1.415 . S
C1187 H1157 0.950 . S
C1187 C1182 1.363 . S
C1187 C1186 1.415 . S
H1188 C1185 0.999 . S
H1189 C1170 0.913 . S
H1190 C1208 0.951 . S
H1191 C1210 0.951 . S
H1192 C1212 0.950 . S
H1193 C1213 0.950 . S
H1194 C1215 0.950 . S
H1195 C1218 0.950 . S
H1196 C1219 0.950 . S
H1197 C1221 0.950 . S
H1198 C1222 0.950 . S
H1199 C1223 0.951 . S
H1200 C1225 0.951 . S
H1201 C1227 0.950 . S
H1202 C1228 0.950 . S
H1203 C1230 0.950 . S
H1204 C1233 0.950 . S
H1205 C1234 0.950 . S
H1206 C1236 0.950 . S
H1207 C1237 0.950 . S
C1208 H1190 0.951 . S
C1208 C1209 1.366 . S
C1208 C1210 1.388 . S
C1209 C1208 1.366 . S
C1209 C1213 1.385 . S
C1210 H1191 0.951 . S
C1210 C1208 1.388 . S
C1210 C1211 1.366 . S
C1211 C1210 1.366 . S
C1211 C1212 1.414 . S
C1211 C1214 1.499 . S
C1212 H1192 0.950 . S
C1212 C1211 1.414 . S
C1212 C1213 1.374 . S
C1213 H1193 0.950 . S
C1213 C1209 1.385 . S
C1213 C1212 1.374 . S
C1214 C1211 1.499 . S
C1214 C1215 1.373 . S
C1214 C1216 1.389 . S
C1215 H1194 0.950 . S
C1215 C1214 1.373 . S
C1215 C1231 1.377 . S
C1216 C1214 1.389 . S
C1216 C1217 1.524 . S
C1216 C1230 1.377 . S
C1217 C1216 1.524 . S
C1217 C1218 1.397 . S
C1217 C1222 1.363 . S
C1218 H1195 0.950 . S
C1218 C1217 1.397 . S
C1218 C1219 1.334 . S
C1219 H1196 0.950 . S
C1219 C1218 1.334 . S
C1219 C1220 1.287 . S
C1220 C1219 1.287 . S
C1220 C1221 1.524 . S
C1220 H1239 0.913 . S
C1221 H1197 0.950 . S
C1221 C1220 1.524 . S
C1221 C1222 1.415 . S
C1222 H1198 0.950 . S
C1222 C1217 1.363 . S
C1222 C1221 1.415 . S
C1223 H1199 0.951 . S
C1223 C1224 1.366 . S
C1223 C1225 1.388 . S
C1224 C1223 1.366 . S
C1224 C1228 1.385 . S
C1225 H1200 0.951 . S
C1225 C1223 1.388 . S
C1225 C1226 1.366 . S
C1226 C1225 1.366 . S
C1226 C1227 1.414 . S
C1226 C1229 1.499 . S
C1227 H1201 0.950 . S
C1227 C1226 1.414 . S
C1227 C1228 1.374 . S
C1228 H1202 0.950 . S
C1228 C1224 1.385 . S
C1228 C1227 1.374 . S
C1229 C1226 1.499 . S
C1229 C1230 1.373 . S
C1229 C1231 1.389 . S
C1230 H1203 0.950 . S
C1230 C1216 1.377 . S
C1230 C1229 1.373 . S
C1231 C1215 1.377 . S
C1231 C1229 1.389 . S
C1231 C1232 1.524 . S
C1232 C1231 1.524 . S
C1232 C1233 1.397 . S
C1232 C1237 1.363 . S
C1233 H1204 0.950 . S
C1233 C1232 1.397 . S
C1233 C1234 1.334 . S
C1234 H1205 0.950 . S
C1234 C1233 1.334 . S
C1234 C1235 1.287 . S
C1235 C1234 1.287 . S
C1235 C1236 1.524 . S
C1235 H1238 0.999 . S
C1236 H1206 0.950 . S
C1236 C1235 1.524 . S
C1236 C1237 1.415 . S
C1237 H1207 0.950 . S
C1237 C1232 1.363 . S
C1237 C1236 1.415 . S
H1238 C1235 0.999 . S
H1239 C1220 0.913 . S
H1240 C1258 0.951 . S
H1241 C1260 0.951 . S
H1242 C1262 0.950 . S
H1243 C1263 0.950 . S
H1244 C1265 0.950 . S
H1245 C1268 0.950 . S
H1246 C1269 0.950 . S
H1247 C1271 0.950 . S
H1248 C1272 0.950 . S
H1249 C1273 0.951 . S
H1250 C1275 0.951 . S
H1251 C1277 0.950 . S
H1252 C1278 0.950 . S
H1253 C1280 0.950 . S
H1254 C1283 0.950 . S
H1255 C1284 0.950 . S
H1256 C1286 0.950 . S
H1257 C1287 0.950 . S
C1258 H1240 0.951 . S
C1258 C1259 1.366 . S
C1258 C1260 1.388 . S
C1259 C1258 1.366 . S
C1259 C1263 1.385 . S
C1260 H1241 0.951 . S
C1260 C1258 1.388 . S
C1260 C1261 1.366 . S
C1261 C1260 1.366 . S
C1261 C1262 1.414 . S
C1261 C1264 1.499 . S
C1262 H1242 0.950 . S
C1262 C1261 1.414 . S
C1262 C1263 1.374 . S
C1263 H1243 0.950 . S
C1263 C1259 1.385 . S
C1263 C1262 1.374 . S
C1264 C1261 1.499 . S
C1264 C1265 1.373 . S
C1264 C1266 1.389 1_655 S
C1265 H1244 0.950 . S
C1265 C1264 1.373 . S
C1265 C1281 1.377 . S
C1266 C1264 1.389 1_455 S
C1266 C1267 1.524 . S
C1266 C1280 1.377 . S
C1267 C1266 1.524 . S
C1267 C1268 1.397 1_455 S
C1267 C1272 1.363 . S
C1268 H1245 0.950 . S
C1268 C1267 1.397 1_655 S
C1268 C1269 1.334 1_556 S
C1269 H1246 0.950 . S
C1269 C1268 1.334 1_554 S
C1269 C1270 1.287 1_655 S
C1270 C1269 1.287 1_455 S
C1270 C1271 1.524 . S
C1270 H1289 0.913 . S
C1271 H1247 0.950 . S
C1271 C1270 1.524 . S
C1271 C1272 1.415 1_554 S
C1272 H1248 0.950 . S
C1272 C1267 1.363 . S
C1272 C1271 1.415 1_556 S
C1273 H1249 0.951 . S
C1273 C1274 1.366 . S
C1273 C1275 1.388 . S
C1274 C1273 1.366 . S
C1274 C1278 1.385 . S
C1275 H1250 0.951 . S
C1275 C1273 1.388 . S
C1275 C1276 1.366 . S
C1276 C1275 1.366 . S
C1276 C1277 1.414 . S
C1276 C1279 1.499 . S
C1277 H1251 0.950 . S
C1277 C1276 1.414 . S
C1277 C1278 1.374 . S
C1278 H1252 0.950 . S
C1278 C1274 1.385 . S
C1278 C1277 1.374 . S
C1279 C1276 1.499 . S
C1279 C1280 1.373 . S
C1279 C1281 1.389 1_455 S
C1280 H1253 0.950 . S
C1280 C1266 1.377 . S
C1280 C1279 1.373 . S
C1281 C1265 1.377 . S
C1281 C1279 1.389 1_655 S
C1281 C1282 1.524 . S
C1282 C1281 1.524 . S
C1282 C1283 1.397 1_655 S
C1282 C1287 1.363 . S
C1283 H1254 0.950 . S
C1283 C1282 1.397 1_455 S
C1283 C1284 1.334 . S
C1284 H1255 0.950 . S
C1284 C1283 1.334 . S
C1284 C1285 1.287 1_455 S
C1285 C1284 1.287 1_655 S
C1285 C1286 1.524 . S
C1285 H1288 0.999 . S
C1286 H1256 0.950 . S
C1286 C1285 1.524 . S
C1286 C1287 1.415 . S
C1287 H1257 0.950 . S
C1287 C1282 1.363 . S
C1287 C1286 1.415 . S
H1288 C1285 0.999 . S
H1289 C1270 0.913 . S
H1290 C1308 0.951 . S
H1291 C1310 0.951 . S
H1292 C1312 0.950 . S
H1293 C1313 0.950 . S
H1294 C1315 0.950 . S
H1295 C1318 0.950 . S
H1296 C1319 0.950 . S
H1297 C1321 0.950 . S
H1298 C1322 0.950 . S
H1299 C1323 0.951 . S
H1300 C1325 0.951 . S
H1301 C1327 0.950 . S
H1302 C1328 0.950 . S
H1303 C1330 0.950 . S
H1304 C1333 0.950 . S
H1305 C1334 0.950 . S
H1306 C1336 0.950 . S
H1307 C1337 0.950 . S
C1308 H1290 0.951 . S
C1308 C1309 1.366 . S
C1308 C1310 1.388 . S
C1309 C1308 1.366 . S
C1309 C1313 1.385 . S
C1310 H1291 0.951 . S
C1310 C1308 1.388 . S
C1310 C1311 1.366 . S
C1311 C1310 1.366 . S
C1311 C1312 1.414 . S
C1311 C1314 1.499 . S
C1312 H1292 0.950 . S
C1312 C1311 1.414 . S
C1312 C1313 1.374 . S
C1313 H1293 0.950 . S
C1313 C1309 1.385 . S
C1313 C1312 1.374 . S
C1314 C1311 1.499 . S
C1314 C1315 1.373 . S
C1314 C1316 1.389 . S
C1315 H1294 0.950 . S
C1315 C1314 1.373 . S
C1315 C1331 1.377 1_455 S
C1316 C1314 1.389 . S
C1316 C1317 1.524 . S
C1316 C1330 1.377 1_455 S
C1317 C1316 1.524 . S
C1317 C1318 1.397 . S
C1317 C1322 1.363 . S
C1318 H1295 0.950 . S
C1318 C1317 1.397 . S
C1318 C1319 1.334 . S
C1319 H1296 0.950 . S
C1319 C1318 1.334 . S
C1319 C1320 1.287 . S
C1320 C1319 1.287 . S
C1320 C1321 1.524 . S
C1320 H1339 0.913 . S
C1321 H1297 0.950 . S
C1321 C1320 1.524 . S
C1321 C1322 1.415 . S
C1322 H1298 0.950 . S
C1322 C1317 1.363 . S
C1322 C1321 1.415 . S
C1323 H1299 0.951 . S
C1323 C1324 1.366 . S
C1323 C1325 1.388 . S
C1324 C1323 1.366 . S
C1324 C1328 1.385 . S
C1325 H1300 0.951 . S
C1325 C1323 1.388 . S
C1325 C1326 1.366 . S
C1326 C1325 1.366 . S
C1326 C1327 1.414 . S
C1326 C1329 1.499 . S
C1327 H1301 0.950 . S
C1327 C1326 1.414 . S
C1327 C1328 1.374 . S
C1328 H1302 0.950 . S
C1328 C1324 1.385 . S
C1328 C1327 1.374 . S
C1329 C1326 1.499 . S
C1329 C1330 1.373 . S
C1329 C1331 1.389 . S
C1330 H1303 0.950 . S
C1330 C1316 1.377 1_655 S
C1330 C1329 1.373 . S
C1331 C1315 1.377 1_655 S
C1331 C1329 1.389 . S
C1331 C1332 1.524 . S
C1332 C1331 1.524 . S
C1332 C1333 1.397 . S
C1332 C1337 1.363 . S
C1333 H1304 0.950 . S
C1333 C1332 1.397 . S
C1333 C1334 1.334 . S
C1334 H1305 0.950 . S
C1334 C1333 1.334 . S
C1334 C1335 1.287 . S
C1335 C1334 1.287 . S
C1335 C1336 1.524 . S
C1335 H1338 0.999 . S
C1336 H1306 0.950 . S
C1336 C1335 1.524 . S
C1336 C1337 1.415 . S
C1337 H1307 0.950 . S
C1337 C1332 1.363 . S
C1337 C1336 1.415 . S
H1338 C1335 0.999 . S
H1339 C1320 0.913 . S
H1340 C1358 0.951 . S
H1341 C1360 0.951 . S
H1342 C1362 0.950 . S
H1343 C1363 0.950 . S
H1344 C1365 0.963 . S
H1345 C1368 0.950 . S
H1346 C1369 0.950 . S
H1347 C1371 0.950 . S
H1348 C1372 0.950 . S
H1349 C1373 0.951 . S
H1350 C1375 0.951 . S
H1351 C1377 0.950 . S
H1352 C1378 0.950 . S
H1353 C1380 0.963 . S
H1354 C1383 0.950 . S
H1355 C1384 0.950 . S
H1356 C1386 0.950 . S
H1357 C1387 0.950 . S
C1358 H1340 0.951 . S
C1358 C1359 1.366 . S
C1358 C1360 1.388 . S
C1359 C1358 1.366 . S
C1359 C1363 1.385 . S
C1360 H1341 0.951 . S
C1360 C1358 1.388 . S
C1360 C1361 1.366 . S
C1361 C1360 1.366 . S
C1361 C1362 1.414 . S
C1361 C1364 1.499 . S
C1362 H1342 0.950 . S
C1362 C1361 1.414 . S
C1362 C1363 1.374 . S
C1363 H1343 0.950 . S
C1363 C1359 1.385 . S
C1363 C1362 1.374 . S
C1364 C1361 1.499 . S
C1364 C1365 1.351 1_565 S
C1364 C1366 1.389 . S
C1365 H1344 0.963 . S
C1365 C1364 1.351 1_545 S
C1365 C1381 1.387 . S
C1366 C1364 1.389 . S
C1366 C1367 1.524 . S
C1366 C1380 1.387 . S
C1367 C1366 1.524 . S
C1367 C1368 1.397 . S
C1367 C1372 1.363 . S
C1368 H1345 0.950 . S
C1368 C1367 1.397 . S
C1368 C1369 1.334 . S
C1369 H1346 0.950 . S
C1369 C1368 1.334 . S
C1369 C1370 1.287 . S
C1370 C1369 1.287 . S
C1370 C1371 1.524 . S
C1370 H1389 0.913 . S
C1371 H1347 0.950 . S
C1371 C1370 1.524 . S
C1371 C1372 1.415 . S
C1372 H1348 0.950 . S
C1372 C1367 1.363 . S
C1372 C1371 1.415 . S
C1373 H1349 0.951 . S
C1373 C1374 1.366 . S
C1373 C1375 1.388 . S
C1374 C1373 1.366 . S
C1374 C1378 1.385 . S
C1375 H1350 0.951 . S
C1375 C1373 1.388 . S
C1375 C1376 1.366 . S
C1376 C1375 1.366 . S
C1376 C1377 1.414 . S
C1376 C1379 1.499 . S
C1377 H1351 0.950 . S
C1377 C1376 1.414 . S
C1377 C1378 1.374 . S
C1378 H1352 0.950 . S
C1378 C1374 1.385 . S
C1378 C1377 1.374 . S
C1379 C1376 1.499 . S
C1379 C1380 1.351 1_545 S
C1379 C1381 1.389 . S
C1380 H1353 0.963 . S
C1380 C1366 1.387 . S
C1380 C1379 1.351 1_565 S
C1381 C1365 1.387 . S
C1381 C1379 1.389 . S
C1381 C1382 1.524 . S
C1382 C1381 1.524 . S
C1382 C1383 1.397 . S
C1382 C1387 1.363 . S
C1383 H1354 0.950 . S
C1383 C1382 1.397 . S
C1383 C1384 1.334 . S
C1384 H1355 0.950 . S
C1384 C1383 1.334 . S
C1384 C1385 1.287 . S
C1385 C1384 1.287 . S
C1385 C1386 1.524 . S
C1385 H1388 0.999 . S
C1386 H1356 0.950 . S
C1386 C1385 1.524 . S
C1386 C1387 1.415 . S
C1387 H1357 0.950 . S
C1387 C1382 1.363 . S
C1387 C1386 1.415 . S
H1388 C1385 0.999 . S
H1389 C1370 0.913 . S
H1390 C1408 0.951 . S
H1391 C1410 0.951 . S
H1392 C1412 0.950 . S
H1393 C1413 0.950 . S
H1394 C1415 0.950 . S
H1395 C1418 0.950 . S
H1396 C1419 0.950 . S
H1397 C1421 0.950 . S
H1398 C1422 0.950 . S
H1399 C1423 0.951 . S
H1400 C1425 0.951 . S
H1401 C1427 0.950 . S
H1402 C1428 0.950 . S
H1403 C1430 0.950 . S
H1404 C1433 0.950 . S
H1405 C1434 0.950 . S
H1406 C1436 0.950 . S
H1407 C1437 0.950 . S
C1408 H1390 0.951 . S
C1408 C1409 1.366 . S
C1408 C1410 1.388 . S
C1409 C1408 1.366 . S
C1409 C1413 1.385 . S
C1410 H1391 0.951 . S
C1410 C1408 1.388 . S
C1410 C1411 1.366 . S
C1411 C1410 1.366 . S
C1411 C1412 1.414 . S
C1411 C1414 1.499 . S
C1412 H1392 0.950 . S
C1412 C1411 1.414 . S
C1412 C1413 1.374 . S
C1413 H1393 0.950 . S
C1413 C1409 1.385 . S
C1413 C1412 1.374 . S
C1414 C1411 1.499 . S
C1414 C1415 1.373 . S
C1414 C1416 1.389 . S
C1415 H1394 0.950 . S
C1415 C1414 1.373 . S
C1415 C1431 1.377 . S
C1416 C1414 1.389 . S
C1416 C1417 1.524 . S
C1416 C1430 1.377 . S
C1417 C1416 1.524 . S
C1417 C1418 1.397 . S
C1417 C1422 1.363 . S
C1418 H1395 0.950 . S
C1418 C1417 1.397 . S
C1418 C1419 1.334 . S
C1419 H1396 0.950 . S
C1419 C1418 1.334 . S
C1419 C1420 1.287 . S
C1420 C1419 1.287 . S
C1420 C1421 1.524 . S
C1420 H1439 0.913 . S
C1421 H1397 0.950 . S
C1421 C1420 1.524 . S
C1421 C1422 1.415 . S
C1422 H1398 0.950 . S
C1422 C1417 1.363 . S
C1422 C1421 1.415 . S
C1423 H1399 0.951 . S
C1423 C1424 1.366 . S
C1423 C1425 1.388 . S
C1424 C1423 1.366 . S
C1424 C1428 1.385 . S
C1425 H1400 0.951 . S
C1425 C1423 1.388 . S
C1425 C1426 1.366 . S
C1426 C1425 1.366 . S
C1426 C1427 1.414 . S
C1426 C1429 1.499 . S
C1427 H1401 0.950 . S
C1427 C1426 1.414 . S
C1427 C1428 1.374 . S
C1428 H1402 0.950 . S
C1428 C1424 1.385 . S
C1428 C1427 1.374 . S
C1429 C1426 1.499 . S
C1429 C1430 1.373 . S
C1429 C1431 1.389 . S
C1430 H1403 0.950 . S
C1430 C1416 1.377 . S
C1430 C1429 1.373 . S
C1431 C1415 1.377 . S
C1431 C1429 1.389 . S
C1431 C1432 1.524 . S
C1432 C1431 1.524 . S
C1432 C1433 1.397 . S
C1432 C1437 1.363 . S
C1433 H1404 0.950 . S
C1433 C1432 1.397 . S
C1433 C1434 1.334 . S
C1434 H1405 0.950 . S
C1434 C1433 1.334 . S
C1434 C1435 1.287 . S
C1435 C1434 1.287 . S
C1435 C1436 1.524 . S
C1435 H1438 0.999 . S
C1436 H1406 0.950 . S
C1436 C1435 1.524 . S
C1436 C1437 1.415 . S
C1437 H1407 0.950 . S
C1437 C1432 1.363 . S
C1437 C1436 1.415 . S
H1438 C1435 0.999 . S
H1439 C1420 0.913 . S
H1440 C1458 0.951 . S
H1441 C1460 0.951 . S
H1442 C1462 0.950 . S
H1443 C1463 0.950 . S
H1444 C1465 0.950 . S
H1445 C1468 0.950 . S
H1446 C1469 0.950 . S
H1447 C1471 0.950 . S
H1448 C1472 0.950 . S
H1449 C1473 0.951 . S
H1450 C1475 0.951 . S
H1451 C1477 0.950 . S
H1452 C1478 0.950 . S
H1453 C1480 0.950 . S
H1454 C1483 0.950 . S
H1455 C1484 0.950 . S
H1456 C1486 0.950 . S
H1457 C1487 0.950 . S
C1458 H1440 0.951 . S
C1458 C1459 1.366 . S
C1458 C1460 1.388 . S
C1459 C1458 1.366 . S
C1459 C1463 1.385 . S
C1460 H1441 0.951 . S
C1460 C1458 1.388 . S
C1460 C1461 1.366 . S
C1461 C1460 1.366 . S
C1461 C1462 1.414 . S
C1461 C1464 1.499 . S
C1462 H1442 0.950 . S
C1462 C1461 1.414 . S
C1462 C1463 1.374 . S
C1463 H1443 0.950 . S
C1463 C1459 1.385 . S
C1463 C1462 1.374 . S
C1464 C1461 1.499 . S
C1464 C1465 1.373 . S
C1464 C1466 1.389 . S
C1465 H1444 0.950 . S
C1465 C1464 1.373 . S
C1465 C1481 1.377 1_565 S
C1466 C1464 1.389 . S
C1466 C1467 1.524 . S
C1466 C1480 1.377 1_565 S
C1467 C1466 1.524 . S
C1467 C1468 1.397 1_565 S
C1467 C1472 1.363 . S
C1468 H1445 0.950 . S
C1468 C1467 1.397 1_545 S
C1468 C1469 1.334 . S
C1469 H1446 0.950 . S
C1469 C1468 1.334 . S
C1469 C1470 1.287 . S
C1470 C1469 1.287 . S
C1470 C1471 1.524 1_545 S
C1470 H1489 0.913 . S
C1471 H1447 0.950 . S
C1471 C1470 1.524 1_565 S
C1471 C1472 1.415 . S
C1472 H1448 0.950 . S
C1472 C1467 1.363 . S
C1472 C1471 1.415 . S
C1473 H1449 0.951 . S
C1473 C1474 1.366 . S
C1473 C1475 1.388 . S
C1474 C1473 1.366 . S
C1474 C1478 1.385 . S
C1475 H1450 0.951 . S
C1475 C1473 1.388 . S
C1475 C1476 1.366 . S
C1476 C1475 1.366 . S
C1476 C1477 1.414 . S
C1476 C1479 1.499 . S
C1477 H1451 0.950 . S
C1477 C1476 1.414 . S
C1477 C1478 1.374 . S
C1478 H1452 0.950 . S
C1478 C1474 1.385 . S
C1478 C1477 1.374 . S
C1479 C1476 1.499 . S
C1479 C1480 1.373 . S
C1479 C1481 1.389 . S
C1480 H1453 0.950 . S
C1480 C1466 1.377 1_545 S
C1480 C1479 1.373 . S
C1481 C1465 1.377 1_545 S
C1481 C1479 1.389 . S
C1481 C1482 1.524 . S
C1482 C1481 1.524 . S
C1482 C1483 1.397 1_545 S
C1482 C1487 1.363 . S
C1483 H1454 0.950 . S
C1483 C1482 1.397 1_565 S
C1483 C1484 1.334 . S
C1484 H1455 0.950 . S
C1484 C1483 1.334 . S
C1484 C1485 1.287 . S
C1485 C1484 1.287 . S
C1485 C1486 1.524 1_565 S
C1485 H1488 0.999 . S
C1486 H1456 0.950 . S
C1486 C1485 1.524 1_545 S
C1486 C1487 1.415 . S
C1487 H1457 0.950 . S
C1487 C1482 1.363 . S
C1487 C1486 1.415 . S
H1488 C1485 0.999 . S
H1489 C1470 0.913 . S
H1490 C1508 0.951 . S
H1491 C1510 0.951 . S
H1492 C1512 0.950 . S
H1493 C1513 0.950 . S
H1494 C1515 0.950 . S
H1495 C1518 0.950 . S
H1496 C1519 0.950 . S
H1497 C1521 0.950 . S
H1498 C1522 0.950 . S
H1499 C1523 0.951 . S
H1500 C1525 0.951 . S
H1501 C1527 0.950 . S
H1502 C1528 0.950 . S
H1503 C1530 0.950 . S
H1504 C1533 0.950 . S
H1505 C1534 0.950 . S
H1506 C1536 0.950 . S
H1507 C1537 0.950 . S
C1508 H1490 0.951 . S
C1508 C1509 1.366 . S
C1508 C1510 1.388 . S
C1509 C1508 1.366 . S
C1509 C1513 1.385 . S
C1510 H1491 0.951 . S
C1510 C1508 1.388 . S
C1510 C1511 1.366 . S
C1511 C1510 1.366 . S
C1511 C1512 1.414 . S
C1511 C1514 1.499 . S
C1512 H1492 0.950 . S
C1512 C1511 1.414 . S
C1512 C1513 1.374 . S
C1513 H1493 0.950 . S
C1513 C1509 1.385 . S
C1513 C1512 1.374 . S
C1514 C1511 1.499 . S
C1514 C1515 1.373 . S
C1514 C1516 1.389 . S
C1515 H1494 0.950 . S
C1515 C1514 1.373 . S
C1515 C1531 1.377 . S
C1516 C1514 1.389 . S
C1516 C1517 1.524 . S
C1516 C1530 1.377 . S
C1517 C1516 1.524 . S
C1517 C1518 1.397 . S
C1517 C1522 1.363 . S
C1518 H1495 0.950 . S
C1518 C1517 1.397 . S
C1518 C1519 1.334 . S
C1519 H1496 0.950 . S
C1519 C1518 1.334 . S
C1519 C1520 1.287 . S
C1520 C1519 1.287 . S
C1520 C1521 1.524 . S
C1520 H1539 0.913 . S
C1521 H1497 0.950 . S
C1521 C1520 1.524 . S
C1521 C1522 1.415 . S
C1522 H1498 0.950 . S
C1522 C1517 1.363 . S
C1522 C1521 1.415 . S
C1523 H1499 0.951 . S
C1523 C1524 1.366 . S
C1523 C1525 1.388 . S
C1524 C1523 1.366 . S
C1524 C1528 1.385 . S
C1525 H1500 0.951 . S
C1525 C1523 1.388 . S
C1525 C1526 1.366 . S
C1526 C1525 1.366 . S
C1526 C1527 1.414 . S
C1526 C1529 1.499 . S
C1527 H1501 0.950 . S
C1527 C1526 1.414 . S
C1527 C1528 1.374 . S
C1528 H1502 0.950 . S
C1528 C1524 1.385 . S
C1528 C1527 1.374 . S
C1529 C1526 1.499 . S
C1529 C1530 1.373 . S
C1529 C1531 1.389 . S
C1530 H1503 0.950 . S
C1530 C1516 1.377 . S
C1530 C1529 1.373 . S
C1531 C1515 1.377 . S
C1531 C1529 1.389 . S
C1531 C1532 1.524 . S
C1532 C1531 1.524 . S
C1532 C1533 1.397 . S
C1532 C1537 1.363 . S
C1533 H1504 0.950 . S
C1533 C1532 1.397 . S
C1533 C1534 1.334 . S
C1534 H1505 0.950 . S
C1534 C1533 1.334 . S
C1534 C1535 1.287 . S
C1535 C1534 1.287 . S
C1535 C1536 1.524 . S
C1535 H1538 0.999 . S
C1536 H1506 0.950 . S
C1536 C1535 1.524 . S
C1536 C1537 1.415 . S
C1537 H1507 0.950 . S
C1537 C1532 1.363 . S
C1537 C1536 1.415 . S
H1538 C1535 0.999 . S
H1539 C1520 0.913 . S
H1540 C1558 0.951 . S
H1541 C1560 0.951 . S
H1542 C1562 0.950 . S
H1543 C1563 0.950 . S
H1544 C1565 0.950 . S
H1545 C1568 0.925 1_455 S
H1546 C1569 0.950 1_455 S
H1547 C1571 0.950 . S
H1548 C1572 0.950 . S
H1549 C1573 0.951 . S
H1550 C1575 0.951 . S
H1551 C1577 0.950 . S
H1552 C1578 0.950 . S
H1553 C1580 0.950 . S
H1554 C1583 0.925 1_655 S
H1555 C1584 0.950 1_655 S
H1556 C1586 0.950 . S
H1557 C1587 0.950 . S
C1558 H1540 0.951 . S
C1558 C1559 1.366 . S
C1558 C1560 1.388 . S
C1559 C1558 1.366 . S
C1559 C1563 1.385 . S
C1560 H1541 0.951 . S
C1560 C1558 1.388 . S
C1560 C1561 1.366 . S
C1561 C1560 1.366 . S
C1561 C1562 1.414 . S
C1561 C1564 1.499 . S
C1562 H1542 0.950 . S
C1562 C1561 1.414 . S
C1562 C1563 1.374 . S
C1563 H1543 0.950 . S
C1563 C1559 1.385 . S
C1563 C1562 1.374 . S
C1564 C1561 1.499 . S
C1564 C1565 1.373 . S
C1564 C1566 1.389 . S
C1565 H1544 0.950 . S
C1565 C1564 1.373 . S
C1565 C1581 1.377 1_655 S
C1566 C1564 1.389 . S
C1566 C1567 1.524 . S
C1566 C1580 1.377 1_655 S
C1567 C1566 1.524 . S
C1567 C1568 1.405 . S
C1567 C1572 1.363 . S
C1568 H1545 0.925 1_655 S
C1568 C1567 1.405 . S
C1568 C1569 1.351 . S
C1569 H1546 0.950 1_655 S
C1569 C1568 1.351 . S
C1569 C1570 1.287 . S
C1570 C1569 1.287 . S
C1570 C1571 1.524 . S
C1570 H1589 0.913 . S
C1571 H1547 0.950 . S
C1571 C1570 1.524 . S
C1571 C1572 1.415 . S
C1572 H1548 0.950 . S
C1572 C1567 1.363 . S
C1572 C1571 1.415 . S
C1573 H1549 0.951 . S
C1573 C1574 1.366 . S
C1573 C1575 1.388 . S
C1574 C1573 1.366 . S
C1574 C1578 1.385 . S
C1575 H1550 0.951 . S
C1575 C1573 1.388 . S
C1575 C1576 1.366 . S
C1576 C1575 1.366 . S
C1576 C1577 1.414 . S
C1576 C1579 1.499 . S
C1577 H1551 0.950 . S
C1577 C1576 1.414 . S
C1577 C1578 1.374 . S
C1578 H1552 0.950 . S
C1578 C1574 1.385 . S
C1578 C1577 1.374 . S
C1579 C1576 1.499 . S
C1579 C1580 1.373 . S
C1579 C1581 1.389 . S
C1580 H1553 0.950 . S
C1580 C1566 1.377 1_455 S
C1580 C1579 1.373 . S
C1581 C1565 1.377 1_455 S
C1581 C1579 1.389 . S
C1581 C1582 1.524 . S
C1582 C1581 1.524 . S
C1582 C1583 1.405 . S
C1582 C1587 1.363 . S
C1583 H1554 0.925 1_455 S
C1583 C1582 1.405 . S
C1583 C1584 1.351 . S
C1584 H1555 0.950 1_455 S
C1584 C1583 1.351 . S
C1584 C1585 1.287 . S
C1585 C1584 1.287 . S
C1585 C1586 1.524 . S
C1585 H1588 0.999 . S
C1586 H1556 0.950 . S
C1586 C1585 1.524 . S
C1586 C1587 1.415 . S
C1587 H1557 0.950 . S
C1587 C1582 1.363 . S
C1587 C1586 1.415 . S
H1588 C1585 0.999 . S
H1589 C1570 0.913 . S
H1590 C1608 0.951 . S
H1591 C1610 0.951 . S
H1592 C1612 0.950 . S
H1593 C1613 0.950 . S
H1594 C1615 0.950 . S
H1595 C1618 0.954 . S
H1596 C1619 0.950 . S
H1597 C1621 0.950 . S
H1598 C1622 0.950 . S
H1599 C1623 0.951 . S
H1600 C1625 0.951 . S
H1601 C1627 0.950 . S
H1602 C1628 0.950 . S
H1603 C1630 0.950 . S
H1604 C1633 0.954 . S
H1605 C1634 0.950 . S
H1606 C1636 0.950 . S
H1607 C1637 0.950 . S
C1608 H1590 0.951 . S
C1608 C1609 1.366 . S
C1608 C1610 1.388 . S
C1609 C1608 1.366 . S
C1609 C1613 1.385 . S
C1610 H1591 0.951 . S
C1610 C1608 1.388 . S
C1610 C1611 1.366 . S
C1611 C1610 1.366 . S
C1611 C1612 1.414 . S
C1611 C1614 1.499 . S
C1612 H1592 0.950 . S
C1612 C1611 1.414 . S
C1612 C1613 1.374 . S
C1613 H1593 0.950 . S
C1613 C1609 1.385 . S
C1613 C1612 1.374 . S
C1614 C1611 1.499 . S
C1614 C1615 1.373 . S
C1614 C1616 1.389 . S
C1615 H1594 0.950 . S
C1615 C1614 1.373 . S
C1615 C1631 1.377 1_545 S
C1616 C1614 1.389 . S
C1616 C1617 1.524 . S
C1616 C1630 1.377 1_545 S
C1617 C1616 1.524 . S
C1617 C1618 1.397 . S
C1617 C1622 1.363 . S
C1618 H1595 0.954 . S
C1618 C1617 1.397 . S
C1618 C1619 1.334 . S
C1619 H1596 0.950 . S
C1619 C1618 1.334 . S
C1619 C1620 1.287 . S
C1620 C1619 1.287 . S
C1620 C1621 1.524 . S
C1620 H1639 0.913 . S
C1621 H1597 0.950 . S
C1621 C1620 1.524 . S
C1621 C1622 1.415 . S
C1622 H1598 0.950 . S
C1622 C1617 1.363 . S
C1622 C1621 1.415 . S
C1623 H1599 0.951 . S
C1623 C1624 1.366 . S
C1623 C1625 1.388 . S
C1624 C1623 1.366 . S
C1624 C1628 1.385 . S
C1625 H1600 0.951 . S
C1625 C1623 1.388 . S
C1625 C1626 1.366 . S
C1626 C1625 1.366 . S
C1626 C1627 1.414 . S
C1626 C1629 1.499 . S
C1627 H1601 0.950 . S
C1627 C1626 1.414 . S
C1627 C1628 1.374 . S
C1628 H1602 0.950 . S
C1628 C1624 1.385 . S
C1628 C1627 1.374 . S
C1629 C1626 1.499 . S
C1629 C1630 1.373 . S
C1629 C1631 1.389 . S
C1630 H1603 0.950 . S
C1630 C1616 1.377 1_565 S
C1630 C1629 1.373 . S
C1631 C1615 1.377 1_565 S
C1631 C1629 1.389 . S
C1631 C1632 1.524 . S
C1632 C1631 1.524 . S
C1632 C1633 1.397 . S
C1632 C1637 1.363 . S
C1633 H1604 0.954 . S
C1633 C1632 1.397 . S
C1633 C1634 1.334 . S
C1634 H1605 0.950 . S
C1634 C1633 1.334 . S
C1634 C1635 1.287 . S
C1635 C1634 1.287 . S
C1635 C1636 1.524 . S
C1635 H1638 0.999 . S
C1636 H1606 0.950 . S
C1636 C1635 1.524 . S
C1636 C1637 1.415 . S
C1637 H1607 0.950 . S
C1637 C1632 1.363 . S
C1637 C1636 1.415 . S
H1638 C1635 0.999 . S
H1639 C1620 0.913 . S
H1640 C1658 0.951 . S
H1641 C1660 0.951 . S
H1642 C1662 0.950 . S
H1643 C1663 0.950 . S
H1644 C1665 0.950 . S
H1645 C1668 0.950 . S
H1646 C1669 0.950 . S
H1647 C1671 0.950 . S
H1648 C1672 0.950 . S
H1649 C1673 0.951 . S
H1650 C1675 0.951 . S
H1651 C1677 0.950 . S
H1652 C1678 0.950 . S
H1653 C1680 0.950 . S
H1654 C1683 0.950 . S
H1655 C1684 0.950 . S
H1656 C1686 0.950 . S
H1657 C1687 0.950 . S
C1658 H1640 0.951 . S
C1658 C1659 1.366 . S
C1658 C1660 1.388 . S
C1659 C1658 1.366 . S
C1659 C1663 1.385 . S
C1660 H1641 0.951 . S
C1660 C1658 1.388 . S
C1660 C1661 1.366 . S
C1661 C1660 1.366 . S
C1661 C1662 1.414 . S
C1661 C1664 1.499 . S
C1662 H1642 0.950 . S
C1662 C1661 1.414 . S
C1662 C1663 1.374 . S
C1663 H1643 0.950 . S
C1663 C1659 1.385 . S
C1663 C1662 1.374 . S
C1664 C1661 1.499 . S
C1664 C1665 1.373 . S
C1664 C1666 1.389 . S
C1665 H1644 0.950 . S
C1665 C1664 1.373 . S
C1665 C1681 1.377 . S
C1666 C1664 1.389 . S
C1666 C1667 1.524 . S
C1666 C1680 1.377 . S
C1667 C1666 1.524 . S
C1667 C1668 1.397 . S
C1667 C1672 1.363 . S
C1668 H1645 0.950 . S
C1668 C1667 1.397 . S
C1668 C1669 1.334 . S
C1669 H1646 0.950 . S
C1669 C1668 1.334 . S
C1669 C1670 1.287 . S
C1670 C1669 1.287 . S
C1670 C1671 1.524 . S
C1670 H1689 0.913 . S
C1671 H1647 0.950 . S
C1671 C1670 1.524 . S
C1671 C1672 1.415 . S
C1672 H1648 0.950 . S
C1672 C1667 1.363 . S
C1672 C1671 1.415 . S
C1673 H1649 0.951 . S
C1673 C1674 1.366 . S
C1673 C1675 1.388 . S
C1674 C1673 1.366 . S
C1674 C1678 1.385 . S
C1675 H1650 0.951 . S
C1675 C1673 1.388 . S
C1675 C1676 1.366 . S
C1676 C1675 1.366 . S
C1676 C1677 1.414 . S
C1676 C1679 1.499 . S
C1677 H1651 0.950 . S
C1677 C1676 1.414 . S
C1677 C1678 1.374 . S
C1678 H1652 0.950 . S
C1678 C1674 1.385 . S
C1678 C1677 1.374 . S
C1679 C1676 1.499 . S
C1679 C1680 1.373 . S
C1679 C1681 1.389 . S
C1680 H1653 0.950 . S
C1680 C1666 1.377 . S
C1680 C1679 1.373 . S
C1681 C1665 1.377 . S
C1681 C1679 1.389 . S
C1681 C1682 1.524 . S
C1682 C1681 1.524 . S
C1682 C1683 1.397 . S
C1682 C1687 1.363 . S
C1683 H1654 0.950 . S
C1683 C1682 1.397 . S
C1683 C1684 1.334 . S
C1684 H1655 0.950 . S
C1684 C1683 1.334 . S
C1684 C1685 1.287 . S
C1685 C1684 1.287 . S
C1685 C1686 1.524 . S
C1685 H1688 0.999 . S
C1686 H1656 0.950 . S
C1686 C1685 1.524 . S
C1686 C1687 1.415 . S
C1687 H1657 0.950 . S
C1687 C1682 1.363 . S
C1687 C1686 1.415 . S
H1688 C1685 0.999 . S
H1689 C1670 0.913 . S
H1690 C1708 0.951 . S
H1691 C1710 0.951 . S
H1692 C1712 0.950 . S
H1693 C1713 0.950 . S
H1694 C1715 0.950 . S
H1695 C1718 0.950 . S
H1696 C1719 0.950 . S
H1697 C1721 0.950 . S
H1698 C1722 0.950 . S
H1699 C1723 0.951 . S
H1700 C1725 0.951 . S
H1701 C1727 0.950 . S
H1702 C1728 0.950 . S
H1703 C1730 0.950 . S
H1704 C1733 0.950 . S
H1705 C1734 0.950 . S
H1706 C1736 0.950 . S
H1707 C1737 0.950 . S
C1708 H1690 0.951 . S
C1708 C1709 1.366 . S
C1708 C1710 1.388 . S
C1709 C1708 1.366 . S
C1709 C1713 1.385 . S
C1710 H1691 0.951 . S
C1710 C1708 1.388 . S
C1710 C1711 1.366 . S
C1711 C1710 1.366 . S
C1711 C1712 1.414 . S
C1711 C1714 1.499 . S
C1712 H1692 0.950 . S
C1712 C1711 1.414 . S
C1712 C1713 1.374 . S
C1713 H1693 0.950 . S
C1713 C1709 1.385 . S
C1713 C1712 1.374 . S
C1714 C1711 1.499 . S
C1714 C1715 1.373 1_455 S
C1714 C1716 1.389 . S
C1715 H1694 0.950 . S
C1715 C1714 1.373 1_655 S
C1715 C1731 1.377 . S
C1716 C1714 1.389 . S
C1716 C1717 1.524 . S
C1716 C1730 1.377 . S
C1717 C1716 1.524 . S
C1717 C1718 1.397 . S
C1717 C1722 1.363 . S
C1718 H1695 0.950 . S
C1718 C1717 1.397 . S
C1718 C1719 1.334 . S
C1719 H1696 0.950 . S
C1719 C1718 1.334 . S
C1719 C1720 1.287 . S
C1720 C1719 1.287 . S
C1720 C1721 1.524 . S
C1720 H1739 0.913 . S
C1721 H1697 0.950 . S
C1721 C1720 1.524 . S
C1721 C1722 1.415 . S
C1722 H1698 0.950 . S
C1722 C1717 1.363 . S
C1722 C1721 1.415 . S
C1723 H1699 0.951 . S
C1723 C1724 1.366 . S
C1723 C1725 1.388 . S
C1724 C1723 1.366 . S
C1724 C1728 1.385 . S
C1725 H1700 0.951 . S
C1725 C1723 1.388 . S
C1725 C1726 1.366 . S
C1726 C1725 1.366 . S
C1726 C1727 1.414 . S
C1726 C1729 1.499 . S
C1727 H1701 0.950 . S
C1727 C1726 1.414 . S
C1727 C1728 1.374 . S
C1728 H1702 0.950 . S
C1728 C1724 1.385 . S
C1728 C1727 1.374 . S
C1729 C1726 1.499 . S
C1729 C1730 1.373 1_655 S
C1729 C1731 1.389 . S
C1730 H1703 0.950 . S
C1730 C1716 1.377 . S
C1730 C1729 1.373 1_455 S
C1731 C1715 1.377 . S
C1731 C1729 1.389 . S
C1731 C1732 1.524 . S
C1732 C1731 1.524 . S
C1732 C1733 1.397 . S
C1732 C1737 1.363 . S
C1733 H1704 0.950 . S
C1733 C1732 1.397 . S
C1733 C1734 1.334 . S
C1734 H1705 0.950 . S
C1734 C1733 1.334 . S
C1734 C1735 1.287 . S
C1735 C1734 1.287 . S
C1735 C1736 1.524 . S
C1735 H1738 0.999 . S
C1736 H1706 0.950 . S
C1736 C1735 1.524 . S
C1736 C1737 1.415 . S
C1737 H1707 0.950 . S
C1737 C1732 1.363 . S
C1737 C1736 1.415 . S
H1738 C1735 0.999 . S
H1739 C1720 0.913 . S
H1740 C1758 0.951 . S
H1741 C1760 0.951 . S
H1742 C1762 0.950 . S
H1743 C1763 0.950 . S
H1744 C1765 0.950 . S
H1745 C1768 0.950 . S
H1746 C1769 0.950 . S
H1747 C1771 0.950 . S
H1748 C1772 0.950 . S
H1749 C1773 0.951 . S
H1750 C1775 0.951 . S
H1751 C1777 0.950 . S
H1752 C1778 0.950 . S
H1753 C1780 0.950 . S
H1754 C1783 0.950 . S
H1755 C1784 0.950 . S
H1756 C1786 0.950 . S
H1757 C1787 0.950 . S
C1758 H1740 0.951 . S
C1758 C1759 1.366 . S
C1758 C1760 1.388 . S
C1759 C1758 1.366 . S
C1759 C1763 1.385 . S
C1760 H1741 0.951 . S
C1760 C1758 1.388 . S
C1760 C1761 1.366 . S
C1761 C1760 1.366 . S
C1761 C1762 1.414 . S
C1761 C1764 1.499 . S
C1762 H1742 0.950 . S
C1762 C1761 1.414 . S
C1762 C1763 1.374 . S
C1763 H1743 0.950 . S
C1763 C1759 1.385 . S
C1763 C1762 1.374 . S
C1764 C1761 1.499 . S
C1764 C1765 1.373 . S
C1764 C1766 1.389 . S
C1765 H1744 0.950 . S
C1765 C1764 1.373 . S
C1765 C1781 1.377 . S
C1766 C1764 1.389 . S
C1766 C1767 1.524 . S
C1766 C1780 1.377 . S
C1767 C1766 1.524 . S
C1767 C1768 1.397 . S
C1767 C1772 1.363 . S
C1768 H1745 0.950 . S
C1768 C1767 1.397 . S
C1768 C1769 1.334 . S
C1769 H1746 0.950 . S
C1769 C1768 1.334 . S
C1769 C1770 1.287 . S
C1770 C1769 1.287 . S
C1770 C1771 1.524 . S
C1770 H1789 0.913 . S
C1771 H1747 0.950 . S
C1771 C1770 1.524 . S
C1771 C1772 1.415 . S
C1772 H1748 0.950 . S
C1772 C1767 1.363 . S
C1772 C1771 1.415 . S
C1773 H1749 0.951 . S
C1773 C1774 1.366 . S
C1773 C1775 1.388 . S
C1774 C1773 1.366 . S
C1774 C1778 1.385 . S
C1775 H1750 0.951 . S
C1775 C1773 1.388 . S
C1775 C1776 1.366 . S
C1776 C1775 1.366 . S
C1776 C1777 1.414 . S
C1776 C1779 1.499 . S
C1777 H1751 0.950 . S
C1777 C1776 1.414 . S
C1777 C1778 1.374 . S
C1778 H1752 0.950 . S
C1778 C1774 1.385 . S
C1778 C1777 1.374 . S
C1779 C1776 1.499 . S
C1779 C1780 1.373 . S
C1779 C1781 1.389 . S
C1780 H1753 0.950 . S
C1780 C1766 1.377 . S
C1780 C1779 1.373 . S
C1781 C1765 1.377 . S
C1781 C1779 1.389 . S
C1781 C1782 1.524 . S
C1782 C1781 1.524 . S
C1782 C1783 1.397 . S
C1782 C1787 1.363 . S
C1783 H1754 0.950 . S
C1783 C1782 1.397 . S
C1783 C1784 1.334 . S
C1784 H1755 0.950 . S
C1784 C1783 1.334 . S
C1784 C1785 1.287 . S
C1785 C1784 1.287 . S
C1785 C1786 1.524 . S
C1785 H1788 0.999 . S
C1786 H1756 0.950 . S
C1786 C1785 1.524 . S
C1786 C1787 1.415 . S
C1787 H1757 0.950 . S
C1787 C1782 1.363 . S
C1787 C1786 1.415 . S
H1788 C1785 0.999 . S
H1789 C1770 0.913 . S
H1790 C1808 0.951 . S
H1791 C1810 0.951 . S
H1792 C1812 0.950 . S
H1793 C1813 0.950 . S
H1794 C1815 0.950 . S
H1795 C1818 0.950 . S
H1796 C1819 0.950 . S
H1797 C1821 0.950 . S
H1798 C1822 0.950 . S
H1799 C1823 0.951 . S
H1800 C1825 0.951 . S
H1801 C1827 0.950 . S
H1802 C1828 0.950 . S
H1803 C1830 0.950 . S
H1804 C1833 0.950 . S
H1805 C1834 0.950 . S
H1806 C1836 0.950 . S
H1807 C1837 0.950 . S
C1808 H1790 0.951 . S
C1808 C1809 1.366 . S
C1808 C1810 1.388 . S
C1809 C1808 1.366 . S
C1809 C1813 1.385 . S
C1810 H1791 0.951 . S
C1810 C1808 1.388 . S
C1810 C1811 1.366 . S
C1811 C1810 1.366 . S
C1811 C1812 1.414 . S
C1811 C1814 1.499 . S
C1812 H1792 0.950 . S
C1812 C1811 1.414 . S
C1812 C1813 1.374 . S
C1813 H1793 0.950 . S
C1813 C1809 1.385 . S
C1813 C1812 1.374 . S
C1814 C1811 1.499 . S
C1814 C1815 1.373 . S
C1814 C1816 1.389 . S
C1815 H1794 0.950 . S
C1815 C1814 1.373 . S
C1815 C1831 1.377 . S
C1816 C1814 1.389 . S
C1816 C1817 1.524 . S
C1816 C1830 1.377 . S
C1817 C1816 1.524 . S
C1817 C1818 1.397 . S
C1817 C1822 1.363 . S
C1818 H1795 0.950 . S
C1818 C1817 1.397 . S
C1818 C1819 1.334 . S
C1819 H1796 0.950 . S
C1819 C1818 1.334 . S
C1819 C1820 1.287 . S
C1820 C1819 1.287 . S
C1820 C1821 1.524 . S
C1820 H1839 0.913 . S
C1821 H1797 0.950 . S
C1821 C1820 1.524 . S
C1821 C1822 1.415 . S
C1822 H1798 0.950 . S
C1822 C1817 1.363 . S
C1822 C1821 1.415 . S
C1823 H1799 0.951 . S
C1823 C1824 1.366 . S
C1823 C1825 1.388 . S
C1824 C1823 1.366 . S
C1824 C1828 1.385 . S
C1825 H1800 0.951 . S
C1825 C1823 1.388 . S
C1825 C1826 1.366 . S
C1826 C1825 1.366 . S
C1826 C1827 1.414 . S
C1826 C1829 1.499 . S
C1827 H1801 0.950 . S
C1827 C1826 1.414 . S
C1827 C1828 1.374 . S
C1828 H1802 0.950 . S
C1828 C1824 1.385 . S
C1828 C1827 1.374 . S
C1829 C1826 1.499 . S
C1829 C1830 1.373 . S
C1829 C1831 1.389 . S
C1830 H1803 0.950 . S
C1830 C1816 1.377 . S
C1830 C1829 1.373 . S
C1831 C1815 1.377 . S
C1831 C1829 1.389 . S
C1831 C1832 1.524 . S
C1832 C1831 1.524 . S
C1832 C1833 1.397 . S
C1832 C1837 1.363 . S
C1833 H1804 0.950 . S
C1833 C1832 1.397 . S
C1833 C1834 1.334 . S
C1834 H1805 0.950 . S
C1834 C1833 1.334 . S
C1834 C1835 1.287 . S
C1835 C1834 1.287 . S
C1835 C1836 1.524 . S
C1835 H1838 0.999 . S
C1836 H1806 0.950 . S
C1836 C1835 1.524 . S
C1836 C1837 1.415 . S
C1837 H1807 0.950 . S
C1837 C1832 1.363 . S
C1837 C1836 1.415 . S
H1838 C1835 0.999 . S
H1839 C1820 0.913 . S
H1840 C1858 0.951 . S
H1841 C1860 0.951 . S
H1842 C1862 0.950 . S
H1843 C1863 0.950 . S
H1844 C1865 0.950 . S
H1845 C1868 0.950 . S
H1846 C1869 0.950 . S
H1847 C1871 0.950 . S
H1848 C1872 0.950 . S
H1849 C1873 0.951 . S
H1850 C1875 0.951 . S
H1851 C1877 0.950 . S
H1852 C1878 0.950 . S
H1853 C1880 0.950 . S
H1854 C1883 0.950 . S
H1855 C1884 0.950 . S
H1856 C1886 0.950 . S
H1857 C1887 0.950 . S
C1858 H1840 0.951 . S
C1858 C1859 1.366 . S
C1858 C1860 1.388 . S
C1859 C1858 1.366 . S
C1859 C1863 1.385 . S
C1860 H1841 0.951 . S
C1860 C1858 1.388 . S
C1860 C1861 1.366 . S
C1861 C1860 1.366 . S
C1861 C1862 1.414 . S
C1861 C1864 1.499 . S
C1862 H1842 0.950 . S
C1862 C1861 1.414 . S
C1862 C1863 1.374 . S
C1863 H1843 0.950 . S
C1863 C1859 1.385 . S
C1863 C1862 1.374 . S
C1864 C1861 1.499 . S
C1864 C1865 1.373 . S
C1864 C1866 1.389 . S
C1865 H1844 0.950 . S
C1865 C1864 1.373 . S
C1865 C1881 1.377 . S
C1866 C1864 1.389 . S
C1866 C1867 1.524 . S
C1866 C1880 1.377 . S
C1867 C1866 1.524 . S
C1867 C1868 1.397 . S
C1867 C1872 1.363 . S
C1868 H1845 0.950 . S
C1868 C1867 1.397 . S
C1868 C1869 1.334 . S
C1869 H1846 0.950 . S
C1869 C1868 1.334 . S
C1869 C1870 1.287 . S
C1870 C1869 1.287 . S
C1870 C1871 1.524 . S
C1870 H1889 0.913 . S
C1871 H1847 0.950 . S
C1871 C1870 1.524 . S
C1871 C1872 1.415 . S
C1872 H1848 0.950 . S
C1872 C1867 1.363 . S
C1872 C1871 1.415 . S
C1873 H1849 0.951 . S
C1873 C1874 1.366 . S
C1873 C1875 1.388 . S
C1874 C1873 1.366 . S
C1874 C1878 1.385 . S
C1875 H1850 0.951 . S
C1875 C1873 1.388 . S
C1875 C1876 1.366 . S
C1876 C1875 1.366 . S
C1876 C1877 1.414 . S
C1876 C1879 1.499 . S
C1877 H1851 0.950 . S
C1877 C1876 1.414 . S
C1877 C1878 1.374 . S
C1878 H1852 0.950 . S
C1878 C1874 1.385 . S
C1878 C1877 1.374 . S
C1879 C1876 1.499 . S
C1879 C1880 1.373 . S
C1879 C1881 1.389 . S
C1880 H1853 0.950 . S
C1880 C1866 1.377 . S
C1880 C1879 1.373 . S
C1881 C1865 1.377 . S
C1881 C1879 1.389 . S
C1881 C1882 1.524 . S
C1882 C1881 1.524 . S
C1882 C1883 1.397 . S
C1882 C1887 1.363 . S
C1883 H1854 0.950 . S
C1883 C1882 1.397 . S
C1883 C1884 1.334 . S
C1884 H1855 0.950 . S
C1884 C1883 1.334 . S
C1884 C1885 1.287 . S
C1885 C1884 1.287 . S
C1885 C1886 1.524 . S
C1885 H1888 0.999 . S
C1886 H1856 0.950 . S
C1886 C1885 1.524 . S
C1886 C1887 1.415 . S
C1887 H1857 0.950 . S
C1887 C1882 1.363 . S
C1887 C1886 1.415 . S
H1888 C1885 0.999 . S
H1889 C1870 0.913 . S
H1890 C1908 0.951 . S
H1891 C1910 0.951 . S
H1892 C1912 0.950 . S
H1893 C1913 0.950 . S
H1894 C1915 0.950 . S
H1895 C1918 0.950 . S
H1896 C1919 0.950 . S
H1897 C1921 0.950 . S
H1898 C1922 0.950 . S
H1899 C1923 0.951 . S
H1900 C1925 0.951 . S
H1901 C1927 0.950 . S
H1902 C1928 0.950 . S
H1903 C1930 0.950 . S
H1904 C1933 0.950 . S
H1905 C1934 0.950 . S
H1906 C1936 0.950 . S
H1907 C1937 0.950 . S
C1908 H1890 0.951 . S
C1908 C1909 1.366 . S
C1908 C1910 1.388 . S
C1909 C1908 1.366 . S
C1909 C1913 1.385 . S
C1910 H1891 0.951 . S
C1910 C1908 1.388 . S
C1910 C1911 1.366 . S
C1911 C1910 1.366 . S
C1911 C1912 1.414 . S
C1911 C1914 1.499 . S
C1912 H1892 0.950 . S
C1912 C1911 1.414 . S
C1912 C1913 1.374 . S
C1913 H1893 0.950 . S
C1913 C1909 1.385 . S
C1913 C1912 1.374 . S
C1914 C1911 1.499 . S
C1914 C1915 1.373 . S
C1914 C1916 1.389 . S
C1915 H1894 0.950 . S
C1915 C1914 1.373 . S
C1915 C1931 1.377 . S
C1916 C1914 1.389 . S
C1916 C1917 1.524 . S
C1916 C1930 1.377 . S
C1917 C1916 1.524 . S
C1917 C1918 1.397 . S
C1917 C1922 1.363 . S
C1918 H1895 0.950 . S
C1918 C1917 1.397 . S
C1918 C1919 1.334 . S
C1919 H1896 0.950 . S
C1919 C1918 1.334 . S
C1919 C1920 1.287 . S
C1920 C1919 1.287 . S
C1920 C1921 1.524 . S
C1920 H1939 0.913 . S
C1921 H1897 0.950 . S
C1921 C1920 1.524 . S
C1921 C1922 1.415 . S
C1922 H1898 0.950 . S
C1922 C1917 1.363 . S
C1922 C1921 1.415 . S
C1923 H1899 0.951 . S
C1923 C1924 1.366 . S
C1923 C1925 1.388 . S
C1924 C1923 1.366 . S
C1924 C1928 1.385 . S
C1925 H1900 0.951 . S
C1925 C1923 1.388 . S
C1925 C1926 1.366 . S
C1926 C1925 1.366 . S
C1926 C1927 1.414 . S
C1926 C1929 1.499 . S
C1927 H1901 0.950 . S
C1927 C1926 1.414 . S
C1927 C1928 1.374 . S
C1928 H1902 0.950 . S
C1928 C1924 1.385 . S
C1928 C1927 1.374 . S
C1929 C1926 1.499 . S
C1929 C1930 1.373 . S
C1929 C1931 1.389 . S
C1930 H1903 0.950 . S
C1930 C1916 1.377 . S
C1930 C1929 1.373 . S
C1931 C1915 1.377 . S
C1931 C1929 1.389 . S
C1931 C1932 1.524 . S
C1932 C1931 1.524 . S
C1932 C1933 1.397 . S
C1932 C1937 1.363 . S
C1933 H1904 0.950 . S
C1933 C1932 1.397 . S
C1933 C1934 1.334 . S
C1934 H1905 0.950 . S
C1934 C1933 1.334 . S
C1934 C1935 1.287 . S
C1935 C1934 1.287 . S
C1935 C1936 1.524 . S
C1935 H1938 0.999 . S
C1936 H1906 0.950 . S
C1936 C1935 1.524 . S
C1936 C1937 1.415 . S
C1937 H1907 0.950 . S
C1937 C1932 1.363 . S
C1937 C1936 1.415 . S
H1938 C1935 0.999 . S
H1939 C1920 0.913 . S
H1940 C1958 0.951 . S
H1941 C1960 0.951 . S
H1942 C1962 0.950 . S
H1943 C1963 0.950 . S
H1944 C1965 0.950 . S
H1945 C1968 0.950 . S
H1946 C1969 0.950 . S
H1947 C1971 0.950 . S
H1948 C1972 0.950 . S
H1949 C1973 0.951 . S
H1950 C1975 0.951 . S
H1951 C1977 0.950 . S
H1952 C1978 0.950 . S
H1953 C1980 0.950 . S
H1954 C1983 0.950 . S
H1955 C1984 0.950 . S
H1956 C1986 0.950 . S
H1957 C1987 0.950 . S
C1958 H1940 0.951 . S
C1958 C1959 1.366 . S
C1958 C1960 1.388 . S
C1959 C1958 1.366 . S
C1959 C1963 1.385 . S
C1960 H1941 0.951 . S
C1960 C1958 1.388 . S
C1960 C1961 1.366 . S
C1961 C1960 1.366 . S
C1961 C1962 1.414 . S
C1961 C1964 1.499 . S
C1962 H1942 0.950 . S
C1962 C1961 1.414 . S
C1962 C1963 1.374 . S
C1963 H1943 0.950 . S
C1963 C1959 1.385 . S
C1963 C1962 1.374 . S
C1964 C1961 1.499 . S
C1964 C1965 1.373 . S
C1964 C1966 1.389 . S
C1965 H1944 0.950 . S
C1965 C1964 1.373 . S
C1965 C1981 1.377 . S
C1966 C1964 1.389 . S
C1966 C1967 1.524 . S
C1966 C1980 1.377 . S
C1967 C1966 1.524 . S
C1967 C1968 1.397 . S
C1967 C1972 1.363 . S
C1968 H1945 0.950 . S
C1968 C1967 1.397 . S
C1968 C1969 1.334 . S
C1969 H1946 0.950 . S
C1969 C1968 1.334 . S
C1969 C1970 1.287 . S
C1970 C1969 1.287 . S
C1970 C1971 1.524 . S
C1970 H1989 0.913 . S
C1971 H1947 0.950 . S
C1971 C1970 1.524 . S
C1971 C1972 1.415 . S
C1972 H1948 0.950 . S
C1972 C1967 1.363 . S
C1972 C1971 1.415 . S
C1973 H1949 0.951 . S
C1973 C1974 1.366 . S
C1973 C1975 1.388 . S
C1974 C1973 1.366 . S
C1974 C1978 1.385 . S
C1975 H1950 0.951 . S
C1975 C1973 1.388 . S
C1975 C1976 1.366 . S
C1976 C1975 1.366 . S
C1976 C1977 1.414 . S
C1976 C1979 1.499 . S
C1977 H1951 0.950 . S
C1977 C1976 1.414 . S
C1977 C1978 1.374 . S
C1978 H1952 0.950 . S
C1978 C1974 1.385 . S
C1978 C1977 1.374 . S
C1979 C1976 1.499 . S
C1979 C1980 1.373 . S
C1979 C1981 1.389 . S
C1980 H1953 0.950 . S
C1980 C1966 1.377 . S
C1980 C1979 1.373 . S
C1981 C1965 1.377 . S
C1981 C1979 1.389 . S
C1981 C1982 1.524 . S
C1982 C1981 1.524 . S
C1982 C1983 1.397 . S
C1982 C1987 1.363 . S
C1983 H1954 0.950 . S
C1983 C1982 1.397 . S
C1983 C1984 1.334 . S
C1984 H1955 0.950 . S
C1984 C1983 1.334 . S
C1984 C1985 1.287 . S
C1985 C1984 1.287 . S
C1985 C1986 1.524 . S
C1985 H1988 0.999 . S
C1986 H1956 0.950 . S
C1986 C1985 1.524 . S
C1986 C1987 1.415 . S
C1987 H1957 0.950 . S
C1987 C1982 1.363 . S
C1987 C1986 1.415 . S
H1988 C1985 0.999 . S
H1989 C1970 0.913 . S
H1990 C2008 0.951 . S
H1991 C2010 0.951 . S
H1992 C2012 0.950 . S
H1993 C2013 0.950 . S
H1994 C2015 0.950 . S
H1995 C2018 0.950 . S
H1996 C2019 0.950 . S
H1997 C2021 0.950 . S
H1998 C2022 0.950 . S
H1999 C2023 0.951 . S
H2000 C2025 0.951 . S
H2001 C2027 0.950 . S
H2002 C2028 0.950 . S
H2003 C2030 0.950 . S
H2004 C2033 0.950 . S
H2005 C2034 0.950 . S
H2006 C2036 0.950 . S
H2007 C2037 0.950 . S
C2008 H1990 0.951 . S
C2008 C2009 1.366 . S
C2008 C2010 1.388 . S
C2009 C2008 1.366 . S
C2009 C2013 1.385 . S
C2010 H1991 0.951 . S
C2010 C2008 1.388 . S
C2010 C2011 1.366 . S
C2011 C2010 1.366 . S
C2011 C2012 1.414 . S
C2011 C2014 1.499 . S
C2012 H1992 0.950 . S
C2012 C2011 1.414 . S
C2012 C2013 1.374 . S
C2013 H1993 0.950 . S
C2013 C2009 1.385 . S
C2013 C2012 1.374 . S
C2014 C2011 1.499 . S
C2014 C2015 1.373 . S
C2014 C2016 1.389 . S
C2015 H1994 0.950 . S
C2015 C2014 1.373 . S
C2015 C2031 1.377 . S
C2016 C2014 1.389 . S
C2016 C2017 1.524 . S
C2016 C2030 1.377 . S
C2017 C2016 1.524 . S
C2017 C2018 1.397 . S
C2017 C2022 1.363 . S
C2018 H1995 0.950 . S
C2018 C2017 1.397 . S
C2018 C2019 1.334 . S
C2019 H1996 0.950 . S
C2019 C2018 1.334 . S
C2019 C2020 1.287 . S
C2020 C2019 1.287 . S
C2020 C2021 1.524 . S
C2020 H2039 0.913 . S
C2021 H1997 0.950 . S
C2021 C2020 1.524 . S
C2021 C2022 1.415 . S
C2022 H1998 0.950 . S
C2022 C2017 1.363 . S
C2022 C2021 1.415 . S
C2023 H1999 0.951 . S
C2023 C2024 1.366 . S
C2023 C2025 1.388 . S
C2024 C2023 1.366 . S
C2024 C2028 1.385 . S
C2025 H2000 0.951 . S
C2025 C2023 1.388 . S
C2025 C2026 1.366 . S
C2026 C2025 1.366 . S
C2026 C2027 1.414 . S
C2026 C2029 1.499 . S
C2027 H2001 0.950 . S
C2027 C2026 1.414 . S
C2027 C2028 1.374 . S
C2028 H2002 0.950 . S
C2028 C2024 1.385 . S
C2028 C2027 1.374 . S
C2029 C2026 1.499 . S
C2029 C2030 1.373 . S
C2029 C2031 1.389 . S
C2030 H2003 0.950 . S
C2030 C2016 1.377 . S
C2030 C2029 1.373 . S
C2031 C2015 1.377 . S
C2031 C2029 1.389 . S
C2031 C2032 1.524 . S
C2032 C2031 1.524 . S
C2032 C2033 1.397 . S
C2032 C2037 1.363 . S
C2033 H2004 0.950 . S
C2033 C2032 1.397 . S
C2033 C2034 1.334 . S
C2034 H2005 0.950 . S
C2034 C2033 1.334 . S
C2034 C2035 1.287 . S
C2035 C2034 1.287 . S
C2035 C2036 1.524 . S
C2035 H2038 0.999 . S
C2036 H2006 0.950 . S
C2036 C2035 1.524 . S
C2036 C2037 1.415 . S
C2037 H2007 0.950 . S
C2037 C2032 1.363 . S
C2037 C2036 1.415 . S
H2038 C2035 0.999 . S
H2039 C2020 0.913 . S
C259 C18 0.920 . S
C274 C178 0.919 . S
C309 C38 0.920 . S
C324 C198 0.919 . S
C359 C58 0.920 . S
C374 C218 0.919 . S
C409 C238 0.920 . S
C424 C78 0.919 . S
C459 C98 0.919 . S
C474 C138 0.920 . S
C509 C158 0.920 . S
C524 C118 0.919 . S
C559 C209 0.804 . S
C574 C9 0.804 . S
C609 C229 0.805 . S
C624 C29 0.804 . S
C659 C49 0.804 . S
C674 C129 0.804 . S
C709 C149 0.803 . S
C724 C69 0.805 . S
C759 C169 0.802 . S
C774 C89 0.804 . S
C809 C109 0.804 . S
C824 C189 0.805 . S
C859 C142 1.418 . S
C874 C2 1.417 . S
C909 C162 1.417 . S
C924 C22 1.418 . S
C959 C182 1.417 . S
C974 C42 1.419 . S
C1009 C62 1.417 . S
C1024 C202 1.418 . S
C1059 C82 1.419 . S
C1074 C222 1.417 . S
C1109 C102 1.418 . S
C1124 C122 1.417 . S
C1159 C19 0.611 . S
C1174 C79 0.609 . S
C1209 C39 0.611 . S
C1224 C99 0.609 . S
C1259 C59 0.609 . S
C1274 C119 0.611 . S
C1309 C199 0.611 . S
C1324 C139 0.609 . S
C1359 C159 0.609 . S
C1374 C219 0.610 . S
C1409 C239 0.610 . S
C1424 C179 0.609 . S
C1459 C152 1.319 . S
C1474 C12 1.317 . S
C1509 C172 1.317 . S
C1524 C32 1.319 . S
C1559 C52 1.319 . S
C1574 C192 1.317 . S
C1609 C212 1.319 . S
C1624 C72 1.317 . S
C1659 C232 1.317 . S
C1674 C92 1.319 . S
C1709 C112 1.318 . S
C1724 C132 1.319 . S
C1759 C4 1.502 . S
C1774 C204 1.503 . S
C1809 C24 1.501 . S
C1824 C224 1.502 . S
C1859 C44 1.503 . S
C1874 C124 1.502 . S
C1909 C64 1.503 . S
C1924 C144 1.501 . S
C1959 C84 1.502 . S
C1974 C164 1.501 . S
C2009 C184 1.503 . S
C2024 C104 1.502 . S
