# Generated by pormake.
# Topology bcs, (6)-cn, num edge types: 1
# Building blocks:
#     Node 0, Type 0, BuildingBlock: JUFBIX_clean_sbu_0, # of connection points: 6
#     Node 1, Type 0, BuildingBlock: JUFBIX_clean_sbu_0, # of connection points: 6
#     Node 2, Type 0, BuildingBlock: JUFBIX_clean_sbu_0, # of connection points: 6
#     Node 3, Type 0, BuildingBlock: JUFBIX_clean_sbu_0, # of connection points: 6
#     Node 4, Type 0, BuildingBlock: JUFBIX_clean_sbu_0, # of connection points: 6
#     Node 5, Type 0, BuildingBlock: JUFBIX_clean_sbu_0, # of connection points: 6
#     Node 6, Type 0, BuildingBlock: JUFBIX_clean_sbu_0, # of connection points: 6
#     Node 7, Type 0, BuildingBlock: JUFBIX_clean_sbu_0, # of connection points: 6
#     Node 8, Type 0, BuildingBlock: JUFBIX_clean_sbu_0, # of connection points: 6
#     Node 9, Type 0, BuildingBlock: JUFBIX_clean_sbu_0, # of connection points: 6
#     Node 10, Type 0, BuildingBlock: JUFBIX_clean_sbu_0, # of connection points: 6
#     Node 11, Type 0, BuildingBlock: JUFBIX_clean_sbu_0, # of connection points: 6
#     Node 12, Type 0, BuildingBlock: JUFBIX_clean_sbu_0, # of connection points: 6
#     Node 13, Type 0, BuildingBlock: JUFBIX_clean_sbu_0, # of connection points: 6
#     Node 14, Type 0, BuildingBlock: JUFBIX_clean_sbu_0, # of connection points: 6
#     Node 15, Type 0, BuildingBlock: JUFBIX_clean_sbu_0, # of connection points: 6
#     Edge 16, Type (0, 0), BuildingBlock: AJUNOK_clean_linker_0, # of connection points: 2
#     Edge 17, Type (0, 0), BuildingBlock: AJUNOK_clean_linker_0, # of connection points: 2
#     Edge 18, Type (0, 0), BuildingBlock: AJUNOK_clean_linker_0, # of connection points: 2
#     Edge 19, Type (0, 0), BuildingBlock: AJUNOK_clean_linker_0, # of connection points: 2
#     Edge 20, Type (0, 0), BuildingBlock: AJUNOK_clean_linker_0, # of connection points: 2
#     Edge 21, Type (0, 0), BuildingBlock: AJUNOK_clean_linker_0, # of connection points: 2
#     Edge 22, Type (0, 0), BuildingBlock: AJUNOK_clean_linker_0, # of connection points: 2
#     Edge 23, Type (0, 0), BuildingBlock: AJUNOK_clean_linker_0, # of connection points: 2
#     Edge 24, Type (0, 0), BuildingBlock: AJUNOK_clean_linker_0, # of connection points: 2
#     Edge 25, Type (0, 0), BuildingBlock: AJUNOK_clean_linker_0, # of connection points: 2
#     Edge 26, Type (0, 0), BuildingBlock: AJUNOK_clean_linker_0, # of connection points: 2
#     Edge 27, Type (0, 0), BuildingBlock: AJUNOK_clean_linker_0, # of connection points: 2
#     Edge 28, Type (0, 0), BuildingBlock: AJUNOK_clean_linker_0, # of connection points: 2
#     Edge 29, Type (0, 0), BuildingBlock: AJUNOK_clean_linker_0, # of connection points: 2
#     Edge 30, Type (0, 0), BuildingBlock: AJUNOK_clean_linker_0, # of connection points: 2
#     Edge 31, Type (0, 0), BuildingBlock: AJUNOK_clean_linker_0, # of connection points: 2
#     Edge 32, Type (0, 0), BuildingBlock: AJUNOK_clean_linker_0, # of connection points: 2
#     Edge 33, Type (0, 0), BuildingBlock: AJUNOK_clean_linker_0, # of connection points: 2
#     Edge 34, Type (0, 0), BuildingBlock: AJUNOK_clean_linker_0, # of connection points: 2
#     Edge 35, Type (0, 0), BuildingBlock: AJUNOK_clean_linker_0, # of connection points: 2
#     Edge 36, Type (0, 0), BuildingBlock: AJUNOK_clean_linker_0, # of connection points: 2
#     Edge 37, Type (0, 0), BuildingBlock: AJUNOK_clean_linker_0, # of connection points: 2
#     Edge 38, Type (0, 0), BuildingBlock: AJUNOK_clean_linker_0, # of connection points: 2
#     Edge 39, Type (0, 0), BuildingBlock: AJUNOK_clean_linker_0, # of connection points: 2
#     Edge 40, Type (0, 0), BuildingBlock: AJUNOK_clean_linker_0, # of connection points: 2
#     Edge 41, Type (0, 0), BuildingBlock: AJUNOK_clean_linker_0, # of connection points: 2
#     Edge 42, Type (0, 0), BuildingBlock: AJUNOK_clean_linker_0, # of connection points: 2
#     Edge 43, Type (0, 0), BuildingBlock: AJUNOK_clean_linker_0, # of connection points: 2
#     Edge 44, Type (0, 0), BuildingBlock: AJUNOK_clean_linker_0, # of connection points: 2
#     Edge 45, Type (0, 0), BuildingBlock: AJUNOK_clean_linker_0, # of connection points: 2
#     Edge 46, Type (0, 0), BuildingBlock: AJUNOK_clean_linker_0, # of connection points: 2
#     Edge 47, Type (0, 0), BuildingBlock: AJUNOK_clean_linker_0, # of connection points: 2
#     Edge 48, Type (0, 0), BuildingBlock: AJUNOK_clean_linker_0, # of connection points: 2
#     Edge 49, Type (0, 0), BuildingBlock: AJUNOK_clean_linker_0, # of connection points: 2
#     Edge 50, Type (0, 0), BuildingBlock: AJUNOK_clean_linker_0, # of connection points: 2
#     Edge 51, Type (0, 0), BuildingBlock: AJUNOK_clean_linker_0, # of connection points: 2
#     Edge 52, Type (0, 0), BuildingBlock: AJUNOK_clean_linker_0, # of connection points: 2
#     Edge 53, Type (0, 0), BuildingBlock: AJUNOK_clean_linker_0, # of connection points: 2
#     Edge 54, Type (0, 0), BuildingBlock: AJUNOK_clean_linker_0, # of connection points: 2
#     Edge 55, Type (0, 0), BuildingBlock: AJUNOK_clean_linker_0, # of connection points: 2
#     Edge 56, Type (0, 0), BuildingBlock: AJUNOK_clean_linker_0, # of connection points: 2
#     Edge 57, Type (0, 0), BuildingBlock: AJUNOK_clean_linker_0, # of connection points: 2
#     Edge 58, Type (0, 0), BuildingBlock: AJUNOK_clean_linker_0, # of connection points: 2
#     Edge 59, Type (0, 0), BuildingBlock: AJUNOK_clean_linker_0, # of connection points: 2
#     Edge 60, Type (0, 0), BuildingBlock: AJUNOK_clean_linker_0, # of connection points: 2
#     Edge 61, Type (0, 0), BuildingBlock: AJUNOK_clean_linker_0, # of connection points: 2
#     Edge 62, Type (0, 0), BuildingBlock: AJUNOK_clean_linker_0, # of connection points: 2
#     Edge 63, Type (0, 0), BuildingBlock: AJUNOK_clean_linker_0, # of connection points: 2
# Relax obj value: 0.451
# Max RMSD: 0.307
# Mean RMSD: 0.240
data_MOF--net-bcs--node1-JUFBIX_clean_sbu_0--edge1-AJUNOK_clean_linker_0
_symmetry_space_group_name_H-M    P1
_symmetry_Int_Tables_number       1
_symmetry_cell_setting            triclinic
loop_
_symmetry_equiv_pos_as_xyz
'x, y, z'
_cell_length_a     26.720927
_cell_length_b     27.950848
_cell_length_c     27.384526
_cell_angle_alpha  99.56017
_cell_angle_beta   98.595263
_cell_angle_gamma 88.563657
loop_
_atom_site_label
_atom_site_type_symbol
_atom_site_fract_x
_atom_site_fract_y
_atom_site_fract_z
_atom_type_partial_charge
Co0 Co 0.98657 0.99325 1.0067 0.0
C1 C 0.96778 0.07992 0.079 0.0
Co2 Co 0.04502 0.04899 1.01183 0.0
C3 C 0.93122 0.92905 0.05036 0.0
C4 C 0.90285 0.92255 0.97223 0.0
N5 N 0.93809 0.94594 1.00801 0.0
N6 N 0.89387 0.89595 0.04251 0.0
C7 C 0.87543 0.89216 0.99353 0.0
H8 H 0.95221 0.94186 0.08696 0.0
H9 H 0.89718 0.9275 0.93344 0.0
C10 C 0.06247 0.96157 0.93958 0.0
N11 N 0.09356 0.09756 1.00954 0.0
C12 C 0.10818 0.10699 0.96638 0.0
C13 C 0.11381 0.13436 0.0446 0.0
N14 N 0.13671 0.14778 0.97288 0.0
C15 C 0.14 0.16507 0.02231 0.0
C16 C 0.07714 0.97533 0.07972 0.0
O17 O 1.02154 0.94835 0.95364 0.0
O18 O 0.07746 1.00489 0.95831 0.0
O19 O 0.09245 1.01441 0.06611 0.0
O20 O 0.03202 0.96234 0.05991 0.0
O21 O 1.00949 0.09358 0.06642 0.0
H22 H 0.10815 0.1398 0.08343 0.0
H23 H 0.09549 0.08572 0.93005 0.0
O24 O 0.95329 0.03685 0.05883 0.0
O25 O 0.93993 1.02643 0.95217 0.0
O26 O 0.99876 0.08044 0.95946 0.0
C27 C 0.95388 0.0663 0.93948 0.0
H28 H 0.84486 0.86855 0.97457 0.0
H29 H 0.15927 0.1981 0.04108 0.0
Co30 Co 0.29118 0.77264 0.23631 0.0
C31 C 0.30187 0.84185 0.32573 0.0
Co32 Co 0.23395 0.76763 0.28565 0.0
C33 C 0.347 0.83067 0.18758 0.0
C34 C 0.37192 0.75717 0.17182 0.0
N35 N 0.33984 0.78549 0.19738 0.0
N36 N 0.38178 0.83212 0.15684 0.0
C37 C 0.39755 0.78566 0.14674 0.0
H38 H 0.32538 0.86186 0.20144 0.0
H39 H 0.37572 0.71839 0.17067 0.0
C40 C 0.22371 0.69786 0.19654 0.0
N41 N 0.1842 0.75602 0.32468 0.0
C42 C 0.17763 0.71431 0.34259 0.0
C43 C 0.14565 0.78465 0.33811 0.0
N44 N 0.13715 0.71595 0.36736 0.0
C45 C 0.11675 0.76026 0.36391 0.0
C46 C 0.20062 0.83436 0.21044 0.0
O47 O 0.26256 0.71822 0.18682 0.0
O48 O 0.20642 0.71427 0.23685 0.0
O49 O 0.18657 0.81669 0.24732 0.0
O50 O 0.24404 0.81913 0.19983 0.0
O51 O 0.26301 0.82163 0.33555 0.0
H52 H 0.13832 0.82057 0.32888 0.0
H53 H 0.20202 0.68298 0.33733 0.0
O54 O 0.31841 0.82581 0.28505 0.0
O55 O 0.33911 0.72503 0.27436 0.0
O56 O 0.28152 0.72054 0.32168 0.0
C57 C 0.32564 0.70692 0.31117 0.0
H58 H 0.42535 0.77293 0.12259 0.0
H59 H 0.08235 0.77395 0.3776 0.0
Co60 Co 0.54107 0.97295 0.52309 0.0
C61 C 0.62376 0.03575 0.54919 0.0
Co62 Co 0.53464 0.03226 0.47991 0.0
C63 C 0.58681 0.90243 0.57552 0.0
C64 C 0.50997 0.91197 0.58865 0.0
N65 N 0.54368 0.9252 0.56131 0.0
N66 N 0.58252 0.87726 0.61222 0.0
C67 C 0.53411 0.88242 0.62051 0.0
H68 H 0.62233 0.90806 0.56273 0.0
H69 H 0.47202 0.92639 0.5887 0.0
C70 C 0.4501 0.97199 0.45615 0.0
N71 N 0.54034 0.07933 0.44151 0.0
C72 C 0.5156 0.12124 0.43765 0.0
C73 C 0.58182 0.08228 0.41901 0.0
N74 N 0.54054 0.14993 0.41417 0.0
C75 C 0.58183 0.12534 0.40203 0.0
C76 C 0.56963 0.94578 0.43335 0.0
O77 O 0.47535 0.9516 0.49025 0.0
O78 O 0.46834 1.01002 0.44485 0.0
O79 O 0.56188 0.99009 0.43242 0.0
O80 O 0.56834 0.92949 0.47352 0.0
O81 O 0.59905 0.05449 0.51423 0.0
H82 H 0.61217 0.05599 0.41756 0.0
H83 H 0.48053 0.13063 0.45222 0.0
O84 O 0.60731 0.99629 0.55806 0.0
O85 O 0.51298 1.01459 0.57115 0.0
O86 O 0.5052 0.07491 0.52821 0.0
C87 C 0.50066 0.05805 0.56768 0.0
H88 H 0.5189 0.87 0.65071 0.0
H89 H 0.61038 0.13808 0.38304 0.0
Co90 Co 0.24277 0.30371 0.76159 0.0
C91 C 0.33415 0.31261 0.82503 0.0
Co92 Co 0.2904 0.24006 0.75272 0.0
C93 C 0.15605 0.36284 0.76718 0.0
C94 C 0.22303 0.40448 0.77159 0.0
N95 N 0.2058 0.3588 0.76597 0.0
N96 N 0.14158 0.40949 0.77768 0.0
C97 C 0.18368 0.43576 0.77903 0.0
H98 H 0.13205 0.33186 0.7657 0.0
H99 H 0.26232 0.41436 0.77404 0.0
C100 C 0.20029 0.23111 0.68797 0.0
N101 N 0.32895 0.18597 0.7469 0.0
C102 C 0.37631 0.18449 0.73626 0.0
C103 C 0.31485 0.13936 0.74277 0.0
N104 N 0.39142 0.13893 0.72234 0.0
C105 C 0.35348 0.11014 0.72733 0.0
C106 C 0.22326 0.23718 0.8236 0.0
O107 O 0.19273 0.27373 0.70964 0.0
O108 O 0.24061 0.20908 0.70171 0.0
O109 O 0.25837 0.21503 0.80226 0.0
O110 O 0.20945 0.27856 0.81213 0.0
O111 O 0.34068 0.27 0.80296 0.0
H112 H 0.27726 0.1276 0.74544 0.0
H113 H 0.39688 0.21618 0.73231 0.0
O114 O 0.29292 0.33436 0.8136 0.0
O115 O 0.27436 0.32855 0.71299 0.0
O116 O 0.32297 0.2655 0.7021 0.0
C117 C 0.30898 0.30679 0.6912 0.0
H118 H 0.18779 0.47444 0.79163 0.0
H119 H 0.35115 0.07138 0.71428 0.0
Co120 Co 1.01993 0.04226 0.47462 0.0
C121 C 0.04527 0.12016 0.54906 0.0
Co122 Co 0.97291 0.04781 0.53525 0.0
C123 C 0.08255 0.06758 0.4069 0.0
C124 C 0.08708 0.99173 0.41053 0.0
N125 N 0.0626 0.03275 0.42667 0.0
N126 N 0.12001 0.05052 0.38063 0.0
C127 C 0.12236 1.00254 0.38213 0.0
H128 H 0.07053 0.10503 0.41309 0.0
H129 H 0.08172 0.95685 0.42119 0.0
C130 C 0.94656 0.96963 0.46123 0.0
N131 N 0.93066 0.06063 0.58451 0.0
C132 C 0.94238 0.05755 0.63354 0.0
C133 C 0.8842 0.08137 0.58071 0.0
N134 N 0.90533 0.07524 0.66008 0.0
C135 C 0.86852 0.09001 0.62681 0.0
C136 C 0.93332 0.08517 0.45057 0.0
O137 O 0.98364 0.98486 0.44376 0.0
O138 O 0.93621 0.99026 0.50367 0.0
O139 O 0.92905 0.08191 0.49518 0.0
O140 O 0.975 0.07533 0.43462 0.0
O141 O 1.00861 0.10414 0.56597 0.0
H142 H 0.86258 0.09026 0.54691 0.0
H143 H 0.97681 0.04122 0.64942 0.0
O144 O 0.05581 0.10025 0.50664 0.0
O145 O 0.06441 1.0083 0.51379 0.0
O146 O 1.01884 1.0121 0.57457 0.0
C147 C 0.0593 0.99977 0.55665 0.0
H148 H 0.14958 0.97758 0.3663 0.0
H149 H 0.83218 0.10456 0.63498 0.0
Co150 Co 0.27605 0.75343 0.79064 0.0
C151 C 0.33875 0.83402 0.80458 0.0
Co152 Co 0.26323 0.7956 0.7313 0.0
C153 C 0.30227 0.67259 0.8356 0.0
C154 C 0.29599 0.73562 0.89073 0.0
N155 N 0.28789 0.71908 0.84117 0.0
N156 N 0.32297 0.6601 0.87917 0.0
C157 C 0.31818 0.69917 0.91433 0.0
H158 H 0.30511 0.65055 0.79967 0.0
H159 H 0.29216 0.77309 0.90768 0.0
C160 C 0.20085 0.71469 0.71763 0.0
N161 N 0.25075 0.82978 0.68046 0.0
C162 C 0.23344 0.87543 0.68363 0.0
C163 C 0.24921 0.81301 0.6312 0.0
N164 N 0.21872 0.88716 0.63821 0.0
C165 C 0.22941 0.84849 0.60497 0.0
C166 C 0.33802 0.71882 0.70955 0.0
O167 O 0.2248 0.70941 0.75973 0.0
O168 O 0.21087 0.7509 0.69829 0.0
O169 O 0.31494 0.7552 0.69353 0.0
O170 O 0.32736 0.71107 0.75184 0.0
O171 O 0.31423 0.8402 0.76287 0.0
H172 H 0.25782 0.77621 0.61532 0.0
H173 H 0.22808 0.89842 0.71835 0.0
O174 O 0.32882 0.79734 0.82318 0.0
O175 O 0.22547 0.79426 0.82881 0.0
O176 O 0.21132 0.83737 0.76965 0.0
C177 C 0.20162 0.8301 0.81245 0.0
H178 H 0.33655 0.70345 0.95283 0.0
H179 H 0.21869 0.84439 0.56476 0.0
Co180 Co 0.45493 0.06495 1.01309 0.0
C181 C 0.52498 0.10444 0.09381 0.0
Co182 Co 0.52362 1.02149 0.02411 0.0
C183 C 0.38154 0.13261 0.04177 0.0
C184 C 0.38219 0.12458 0.96298 0.0
N185 N 0.39772 0.10311 1.00336 0.0
N186 N 0.36133 0.1739 0.02834 0.0
C187 C 0.3604 0.16872 0.97852 0.0
H188 H 0.39294 0.12828 0.08045 0.0
H189 H 0.39351 0.11316 0.9265 0.0
C190 C 0.4558 0.98247 0.94212 0.0
N191 N 0.58131 0.98718 0.03682 0.0
C192 C 0.61652 0.97655 1.00677 0.0
C193 C 0.60122 0.97309 0.08057 0.0
N194 N 0.6577 0.95672 0.02991 0.0
C195 C 0.64839 0.95366 0.07617 0.0
C196 C 0.44739 0.99216 0.07103 0.0
O197 O 0.4294 1.01893 0.95716 0.0
O198 O 0.49978 0.9765 0.96558 0.0
O199 O 0.4919 0.98408 0.06134 0.0
O200 O 0.4231 0.02829 0.05599 0.0
O201 O 0.54753 0.06514 0.08164 0.0
H202 H 0.58301 0.97756 0.11377 0.0
H203 H 0.61188 0.9826 0.96829 0.0
O204 O 0.48263 0.1125 0.06911 0.0
O205 O 0.48648 0.09957 0.97089 0.0
O206 O 0.55634 0.05909 0.98544 0.0
C207 C 0.53235 0.092 0.96482 0.0
H208 H 0.35167 0.19739 0.9564 0.0
H209 H 0.67362 0.93824 0.10426 0.0
Co210 Co 0.3272 0.28138 0.28937 0.0
C211 C 0.31591 0.33822 0.3765 0.0
Co212 Co 0.35971 0.35453 0.29483 0.0
C213 C 0.28384 0.19584 0.31327 0.0
C214 C 0.27547 0.19589 0.23442 0.0
N215 N 0.29789 0.2201 0.27881 0.0
N216 N 0.25207 0.15872 0.29233 0.0
C217 C 0.24753 0.15816 0.24261 0.0
H218 H 0.29467 0.20678 0.35315 0.0
H219 H 0.27576 0.20726 0.19858 0.0
C220 C 0.36725 0.29939 0.20546 0.0
N221 N 0.38719 0.416 0.30717 0.0
C222 C 0.38034 0.45126 0.27888 0.0
C223 C 0.42201 0.43392 0.3466 0.0
N224 N 0.41012 0.49005 0.29857 0.0
C225 C 0.43717 0.47886 0.3406 0.0
C226 C 0.42543 0.28663 0.32963 0.0
O227 O 0.34662 0.26887 0.22564 0.0
O228 O 0.37967 0.34114 0.22998 0.0
O229 O 0.42179 0.33048 0.32343 0.0
O230 O 0.38793 0.25815 0.31663 0.0
O231 O 0.33881 0.36805 0.35764 0.0
H232 H 0.43765 0.41438 0.37632 0.0
H233 H 0.35727 0.44692 0.24238 0.0
O234 O 0.30733 0.29561 0.35302 0.0
O235 O 0.26648 0.30456 0.26213 0.0
O236 O 0.29682 0.37737 0.26561 0.0
C237 C 0.2603 0.34738 0.25326 0.0
H238 H 0.22248 0.13471 0.21445 0.0
H239 H 0.46869 0.49966 0.36268 0.0
Co240 Co 0.57114 0.49855 0.95589 0.0
C241 C 0.60311 0.57936 0.02821 0.0
Co242 Co 0.5231 0.51547 1.01484 0.0
C243 C 0.63074 0.50702 0.87989 0.0
C244 C 0.63954 0.43668 0.90079 0.0
N245 N 0.6146 0.47927 0.90987 0.0
N246 N 0.6647 0.48387 0.85273 0.0
C247 C 0.67143 0.43984 0.86615 0.0
H248 H 0.62 0.54466 0.87994 0.0
H249 H 0.6363 0.40602 0.91958 0.0
C250 C 0.49287 0.43329 0.94692 0.0
N251 N 0.47808 0.53324 0.05941 0.0
C252 C 0.48778 0.54971 0.1089 0.0
C253 C 0.42726 0.53068 0.04883 0.0
N254 N 0.44516 0.5565 0.13028 0.0
C255 C 0.40701 0.54444 0.09218 0.0
C256 C 0.49213 0.55167 0.92736 0.0
O257 O 0.52913 0.44476 0.92601 0.0
O258 O 0.48522 0.45828 0.98824 0.0
O259 O 0.48317 0.54708 0.97028 0.0
O260 O 0.53295 0.53594 0.9124 0.0
O261 O 0.56108 0.57191 0.04195 0.0
H262 H 0.40637 0.51732 1.01232 0.0
H263 H 0.52558 0.55412 0.12922 0.0
O264 O 0.6148 0.55346 0.98847 0.0
O265 O 0.60793 0.46217 0.99807 0.0
O266 O 0.56454 0.484 0.06005 0.0
C267 C 0.60385 0.46548 0.04379 0.0
H268 H 0.69852 0.41298 0.8533 0.0
H269 H 0.36749 0.54119 0.0956 0.0
Co270 Co 0.76343 0.24824 0.28573 0.0
C271 C 0.83492 0.31863 0.31326 0.0
Co272 Co 0.7601 0.29375 0.2304 0.0
C273 C 0.75551 0.1586 0.31386 0.0
C274 C 0.75993 0.2146 0.37792 0.0
N275 N 0.75884 0.20674 0.32816 0.0
N276 N 0.76104 0.13487 0.35299 0.0
C277 C 0.76084 0.17036 0.39332 0.0
H278 H 0.7556 0.14104 0.27555 0.0
H279 H 0.76409 0.24977 0.40156 0.0
C280 C 0.68478 0.22725 0.20541 0.0
N281 N 0.76455 0.3332 0.18626 0.0
C282 C 0.76448 0.38167 0.19506 0.0
C283 C 0.77127 0.32038 0.13821 0.0
N284 N 0.76721 0.40033 0.15338 0.0
C285 C 0.77353 0.3615 0.11806 0.0
C286 C 0.82732 0.20991 0.20767 0.0
O287 O 0.70716 0.21652 0.24595 0.0
O288 O 0.70303 0.26109 0.18786 0.0
O289 O 0.80951 0.24912 0.1939 0.0
O290 O 0.81223 0.20086 0.2477 0.0
O291 O 0.81457 0.32762 0.27115 0.0
H292 H 0.77129 0.28359 0.11824 0.0
H293 H 0.75651 0.40272 0.22986 0.0
O294 O 0.82037 0.28146 0.32852 0.0
O295 O 0.71606 0.29281 0.32309 0.0
O296 O 0.71048 0.3403 0.26769 0.0
C297 C 0.69698 0.33142 0.30862 0.0
H298 H 0.76939 0.16518 0.43203 0.0
H299 H 0.7717 0.36197 0.07839 0.0
Co300 Co 0.98568 0.54036 0.51839 0.0
C301 C 0.06976 0.56808 0.59208 0.0
Co302 Co 0.05116 0.49197 0.51712 0.0
C303 C 0.91867 0.60152 0.56782 0.0
C304 C 0.92056 0.62082 0.49582 0.0
N305 N 0.93535 0.5862 0.52397 0.0
N306 N 0.89513 0.64458 0.56902 0.0
C307 C 0.89646 0.65735 0.52397 0.0
H308 H 0.92932 0.58452 0.60062 0.0
H309 H 0.93123 0.62209 0.45948 0.0
C310 C 0.96668 0.4635 0.44419 0.0
N311 N 0.10024 0.44502 0.51488 0.0
C312 C 0.14905 0.4478 0.5093 0.0
C313 C 0.09193 0.39746 0.51431 0.0
N314 N 0.1712 0.40361 0.50374 0.0
C315 C 0.13533 0.37198 0.50738 0.0
C316 C 0.97978 0.46754 0.57434 0.0
O317 O 0.94754 0.50371 0.46151 0.0
O318 O 1.01118 0.45266 0.46242 0.0
O319 O 1.02329 0.45873 0.56217 0.0
O320 O 0.95524 0.50307 0.55931 0.0
O321 O 0.09071 0.53031 0.57169 0.0
H322 H 0.05559 0.38172 0.51529 0.0
H323 H 0.16686 0.48113 0.50566 0.0
O324 O 1.02431 0.57744 0.57559 0.0
O325 O 1.01574 0.5768 0.47783 0.0
O326 O 0.08026 0.52752 0.47136 0.0
C327 C 0.05752 0.56651 0.46181 0.0
H328 H 0.88469 0.69201 0.51364 0.0
H329 H 0.13838 0.33283 0.49997 0.0
Co330 Co 0.74 0.78865 0.24818 0.0
C331 C 0.8116 0.83151 0.32705 0.0
Co332 Co 0.80634 0.74406 0.26395 0.0
C333 C 0.63753 0.81445 0.24105 0.0
C334 C 0.68305 0.87324 0.23184 0.0
N335 N 0.68442 0.82582 0.23492 0.0
N336 N 0.60857 0.85407 0.24981 0.0
C337 C 0.63623 0.89061 0.24039 0.0
H338 H 0.62726 0.77865 0.24611 0.0
H339 H 0.71572 0.89491 0.23075 0.0
C340 C 0.73552 0.7022 0.18301 0.0
N341 N 0.86149 0.70692 0.2789 0.0
C342 C 0.88409 0.6792 0.24425 0.0
C343 C 0.87747 0.68986 0.32206 0.0
N344 N 0.90993 0.64278 0.26268 0.0
C345 C 0.90711 0.64947 0.31185 0.0
C346 C 0.72998 0.72744 0.31932 0.0
O347 O 0.71173 0.74086 0.19543 0.0
O348 O 0.77755 0.69419 0.20912 0.0
O349 O 0.77397 0.71506 0.31031 0.0
O350 O 0.70727 0.75959 0.29636 0.0
O351 O 0.83431 0.79182 0.31657 0.0
H352 H 0.86366 0.70223 0.35719 0.0
H353 H 0.87565 0.6813 0.2047 0.0
O354 O 0.76914 0.83888 0.30148 0.0
O355 O 0.77149 0.81647 0.20156 0.0
O356 O 0.83966 0.77348 0.21672 0.0
C357 C 0.81583 0.80468 0.19276 0.0
H358 H 0.62727 0.92885 0.24852 0.0
H359 H 0.92044 0.62419 0.33692 0.0
Co360 Co 0.79295 0.26931 0.73631 0.0
C361 C 0.79585 0.33528 0.82468 0.0
Co362 Co 0.73062 0.26001 0.77798 0.0
C363 C 0.85534 0.32231 0.68811 0.0
C364 C 0.88138 0.24898 0.68498 0.0
N365 N 0.84547 0.27954 0.70165 0.0
N366 N 0.89549 0.31977 0.66329 0.0
C367 C 0.91243 0.27377 0.66159 0.0
H368 H 0.83397 0.35518 0.6971 0.0
H369 H 0.88471 0.21124 0.68945 0.0
C370 C 0.72917 0.19134 0.69105 0.0
N371 N 0.67807 0.25163 0.81365 0.0
C372 C 0.66525 0.21096 0.82978 0.0
C373 C 0.64678 0.28623 0.83229 0.0
N374 N 0.62731 0.21893 0.85779 0.0
C375 C 0.61561 0.26624 0.85934 0.0
C376 C 0.70336 0.32987 0.70463 0.0
O377 O 0.76802 0.2145 0.68559 0.0
O378 O 0.70611 0.20663 0.72805 0.0
O379 O 0.68625 0.30898 0.73773 0.0
O380 O 0.74864 0.31701 0.6975 0.0
O381 O 0.75641 0.31289 0.82918 0.0
H382 H 0.6475 0.32388 0.82765 0.0
H383 H 0.68356 0.17622 0.8213 0.0
O384 O 0.81723 0.3224 0.78623 0.0
O385 O 0.83765 0.2221 0.77681 0.0
O386 O 0.775 0.21205 0.81638 0.0
C387 C 0.821 0.20103 0.80991 0.0
H388 H 0.94443 0.25898 0.64404 0.0
H389 H 0.58767 0.28533 0.88007 0.0
Co390 Co 0.79359 0.77889 0.82548 0.0
C391 C 0.77215 0.86011 0.88756 0.0
Co392 Co 0.83806 0.84152 0.81881 0.0
C393 C 0.76702 0.67929 0.82154 0.0
C394 C 0.70326 0.72731 0.82382 0.0
N395 N 0.75414 0.72663 0.82708 0.0
N396 N 0.72596 0.65056 0.81292 0.0
C397 C 0.68585 0.68055 0.81523 0.0
H398 H 0.80548 0.6661 0.82185 0.0
H399 H 0.68018 0.75973 0.82535 0.0
C400 C 0.85807 0.75793 0.75546 0.0
N401 N 0.87783 0.89334 0.81696 0.0
C402 C 0.86338 0.93911 0.81307 0.0
C403 C 0.92823 0.89279 0.81735 0.0
N404 N 0.90248 0.9672 0.80889 0.0
C405 C 0.94344 0.93786 0.81204 0.0
C406 C 0.87796 0.79132 0.89388 0.0
O407 O 0.82783 0.74069 0.77934 0.0
O408 O 0.87 0.80256 0.76741 0.0
O409 O 0.88711 0.82425 0.86989 0.0
O410 O 0.83958 0.76419 0.87856 0.0
O411 O 0.80571 0.87957 0.869 0.0
H412 H 0.95192 0.86093 0.81853 0.0
H413 H 0.82425 0.95058 0.81037 0.0
O414 O 0.75935 0.81655 0.87118 0.0
O415 O 0.74701 0.7941 0.77337 0.0
O416 O 0.78764 0.85944 0.76792 0.0
C417 C 0.75003 0.83098 0.753 0.0
H418 H 0.64673 0.66938 0.81122 0.0
H419 H 0.98095 0.94632 0.80565 0.0
Co420 Co 0.48897 0.49733 0.50886 0.0
C421 C 0.47528 0.58506 0.58152 0.0
Co422 Co 0.54932 0.55094 0.51213 0.0
C423 C 0.43541 0.42382 0.54669 0.0
C424 C 0.38897 0.45283 0.48806 0.0
N425 N 0.4372 0.45223 0.51085 0.0
N426 N 0.38832 0.40724 0.54735 0.0
C427 C 0.35926 0.42629 0.51078 0.0
H428 H 0.46669 0.41924 0.57533 0.0
H429 H 0.37502 0.47479 0.45996 0.0
C430 C 0.562 0.46361 0.43907 0.0
N431 N 0.59979 0.59699 0.50978 0.0
C432 C 0.61475 0.60611 0.46673 0.0
C433 C 0.62249 0.63195 0.54541 0.0
N434 N 0.64605 0.64498 0.47373 0.0
C435 C 0.6506 0.66132 0.52359 0.0
C436 C 0.58012 0.47527 0.57872 0.0
O437 O 0.52046 0.45187 0.45327 0.0
O438 O 0.57941 0.50582 0.4587 0.0
O439 O 0.5957 0.51494 0.56644 0.0
O440 O 0.53465 0.46349 0.55909 0.0
O441 O 0.51618 0.5972 0.56644 0.0
H442 H 0.61709 0.63725 0.58431 0.0
H443 H 0.60157 0.5852 0.43034 0.0
O444 O 0.45947 0.54184 0.56361 0.0
O445 O 0.44268 0.53412 0.45672 0.0
O446 O 0.50442 0.58384 0.45953 0.0
C447 C 0.45825 0.57222 0.44193 0.0
H448 H 0.31867 0.42458 0.5036 0.0
H449 H 0.67054 0.69373 0.54312 0.0
Co450 Co 1.0215 0.47449 0.03467 0.0
C451 C 0.08835 0.553 0.06811 0.0
Co452 Co 0.99375 0.54019 1.00696 0.0
C453 C 0.08951 0.40868 0.07601 0.0
C454 C 1.01258 0.38848 0.07488 0.0
N455 N 0.04184 0.41839 0.05726 0.0
N456 N 0.09105 0.37707 0.10808 0.0
C457 C 0.043 0.36291 0.10642 0.0
H458 H 0.12209 0.42827 0.07056 0.0
H459 H 0.97169 0.38985 0.07055 0.0
C460 C 0.92723 0.46418 0.97284 0.0
N461 N 0.97438 0.59597 0.98499 0.0
C462 C 0.98176 0.64073 1.01189 0.0
C463 C 0.9623 0.60221 0.93693 0.0
N464 N 0.97708 0.67451 0.9822 0.0
C465 C 0.96383 0.65071 0.93514 0.0
C466 C 0.04737 0.48208 0.94395 0.0
O467 O 0.96089 0.44232 0.99886 0.0
O468 O 0.93339 0.5088 0.97149 0.0
O469 O 1.02461 0.5221 0.95039 0.0
O470 O 0.05267 0.45602 0.97808 0.0
O471 O 0.05413 0.57273 0.04114 0.0
H472 H 0.95483 0.57329 0.90522 0.0
H473 H 0.99161 0.64837 0.05223 0.0
O474 O 0.08278 0.50865 0.07156 0.0
O475 O 0.99086 0.49157 0.09089 0.0
O476 O 0.96187 0.55814 0.06417 0.0
C477 C 0.96602 0.53035 0.09676 0.0
H478 H 0.03033 0.34039 0.13076 0.0
H479 H 0.9542 0.66757 0.90209 0.0
C480 C 0.17853 0.2422 0.90081 0.0
C481 C 0.19927 0.21405 0.86086 0.0
C482 C 0.15862 0.22056 0.93725 0.0
C483 C 0.15718 0.16962 0.93489 0.0
H484 H 0.17861 0.28139 0.90462 0.0
H485 H 0.14375 0.24401 0.96733 0.0
S486 S 0.20531 0.07912 0.83739 0.0
N487 N 0.21634 0.13189 0.82148 0.0
N488 N 0.17842 0.09191 0.88852 0.0
C489 C 0.177 0.14114 0.89469 0.0
C490 C 0.1981 0.16309 0.85826 0.0
C491 C 0.16113 0.92795 0.11292 0.0
C492 C 0.10998 0.94286 0.11636 0.0
C493 C 0.18873 0.89417 0.14248 0.0
C494 C 0.16861 0.87214 0.17929 0.0
H495 H 0.18012 0.9415 0.08573 0.0
H496 H 0.22705 0.88504 0.13594 0.0
S497 S 0.03785 0.90066 0.20826 0.0
N498 N 0.04183 0.93226 0.16306 0.0
N499 N 0.0926 0.87236 0.21789 0.0
C500 C 0.11796 0.88782 0.18405 0.0
C501 C 0.0895 0.92148 0.15325 0.0
C502 C 0.39439 0.94677 0.37365 0.0
C503 C 0.4043 0.94659 0.42555 0.0
C504 C 0.35893 0.91467 0.34224 0.0
C505 C 0.33099 0.88156 0.3613 0.0
H506 H 0.41654 0.96956 0.35662 0.0
H507 H 0.35481 0.91446 0.30226 0.0
S508 S 0.33833 0.87045 0.49526 0.0
N509 N 0.38014 0.91298 0.49511 0.0
N510 N 0.3129 0.85374 0.43622 0.0
C511 C 0.3379 0.88343 0.41349 0.0
C512 C 0.3747 0.91554 0.44548 0.0
C513 C 0.46231 0.09116 0.69481 0.0
C514 C 0.4252 0.12613 0.68689 0.0
C515 C 0.4896 0.07193 0.65664 0.0
C516 C 0.47972 0.08673 0.60935 0.0
H517 H 0.46854 0.07732 0.7299 0.0
H518 H 0.51683 0.04351 0.66346 0.0
S519 S 0.3877 0.17982 0.57156 0.0
N520 N 0.38115 0.17699 0.63002 0.0
N521 N 0.43297 0.1408 0.55793 0.0
C522 C 0.4449 0.12403 0.60209 0.0
C523 C 0.41718 0.14363 0.64101 0.0
C524 C 0.14831 0.97315 0.56528 0.0
C525 C 0.10204 0.97747 0.58455 0.0
C526 C 0.18816 0.94664 0.58591 0.0
C527 C 0.18335 0.92401 0.62666 0.0
H528 H 0.15336 0.98857 0.53255 0.0
H529 H 0.22203 0.94143 0.56827 0.0
S530 S 0.0735 0.93081 0.69627 0.0
N531 N 0.05599 0.96238 0.65069 0.0
N532 N 0.1314 0.91156 0.68957 0.0
C533 C 0.13911 0.93142 0.64925 0.0
C534 C 0.09822 0.95852 0.62809 0.0
C535 C 0.41136 0.85955 0.87199 0.0
C536 C 0.37427 0.87154 0.83375 0.0
C537 C 0.44054 0.89564 0.90491 0.0
C538 C 0.43273 0.94493 0.90131 0.0
H539 H 0.41678 0.82217 0.87755 0.0
H540 H 0.46714 0.88507 0.93518 0.0
S541 S 0.34362 0.99533 0.8054 0.0
N542 N 0.33431 0.93612 0.79187 0.0
N543 N 0.3883 1.00382 0.85463 0.0
C544 C 0.3976 0.95726 0.86188 0.0
C545 C 0.36859 0.92056 0.82779 0.0
C546 C 0.41199 0.23173 0.09265 0.0
C547 C 0.36524 0.21887 0.0624 0.0
C548 C 0.41427 0.2648 0.13727 0.0
C549 C 0.36994 0.28636 0.15208 0.0
H550 H 0.4461 0.21236 0.08423 0.0
H551 H 0.44969 0.26929 0.16265 0.0
S552 S 0.24062 0.27305 0.08042 0.0
N553 N 0.27561 0.23588 0.04596 0.0
N554 N 0.27977 0.29928 0.12953 0.0
C555 C 0.3243 0.27872 0.11884 0.0
C556 C 0.32193 0.24459 0.07379 0.0
C557 C 0.17462 0.05718 0.31683 0.0
C558 C 0.1541 0.07809 0.35987 0.0
C559 C 0.20751 0.08338 0.29575 0.0
C560 C 0.22131 0.13144 0.31695 0.0
H561 H 0.16449 1.02055 0.29877 0.0
H562 H 0.22206 0.066 0.26236 0.0
S563 S 0.17867 0.2028 0.43034 0.0
N564 N 0.1519 0.14922 0.42431 0.0
N565 N 0.21109 0.19922 0.38311 0.0
C566 C 0.20136 0.15272 0.36025 0.0
C567 C 0.16833 0.12589 0.38201 0.0
C568 C 0.90481 0.19468 0.15653 0.0
C569 C 0.86439 0.17609 0.17682 0.0
C570 C 0.93838 0.16457 0.12723 0.0
C571 C 0.93391 0.11304 0.11444 0.0
H572 H 0.91096 0.23351 0.16355 0.0
H573 H 0.96771 0.18236 0.11354 0.0
S574 S 0.83261 0.04438 0.15383 0.0
N575 N 0.82171 0.10107 0.17836 0.0
N576 N 0.88239 0.04599 0.12491 0.0
C577 C 0.89308 0.09418 0.13395 0.0
C578 C 0.85944 0.12479 0.16422 0.0
C579 C 0.10798 0.59193 0.39782 0.0
C580 C 0.08084 0.60393 0.43855 0.0
C581 C 0.12659 0.62846 0.37488 0.0
C582 C 0.11936 0.67848 0.39209 0.0
H583 H 0.11367 0.55419 0.38274 0.0
H584 H 0.14587 0.61735 0.34278 0.0
S585 S 0.05774 0.72878 0.50269 0.0
N586 N 0.0518 0.66952 0.49769 0.0
N587 N 0.08798 0.73708 0.45647 0.0
C588 C 0.09431 0.69056 0.43426 0.0
C589 C 0.07488 0.65366 0.45693 0.0
C590 C 0.66376 0.89784 0.66524 0.0
C591 C 0.62447 0.86425 0.64617 0.0
C592 C 0.70507 0.88644 0.69888 0.0
C593 C 0.70841 0.84095 0.71438 0.0
H594 H 0.66198 0.93354 0.65466 0.0
H595 H 0.73391 0.91379 0.71353 0.0
S596 S 0.61647 0.73918 0.67135 0.0
N597 N 0.59189 0.78363 0.64255 0.0
N598 N 0.66987 0.76081 0.70537 0.0
C599 C 0.66971 0.80648 0.69429 0.0
C600 C 0.62751 0.81855 0.66037 0.0
C601 C 0.40583 0.39856 0.93226 0.0
C602 C 0.45527 0.39666 0.91983 0.0
C603 C 0.36679 0.37035 0.90205 0.0
C604 C 0.37616 0.33836 0.85923 0.0
H605 H 0.39649 0.4238 0.96413 0.0
H606 H 0.32886 0.37422 0.91174 0.0
S607 S 0.49869 0.31823 0.8109 0.0
N608 N 0.51135 0.35913 0.86203 0.0
N609 N 0.43811 0.30516 0.80621 0.0
C610 C 0.42567 0.33438 0.84751 0.0
C611 C 0.46523 0.36377 0.87761 0.0
C612 C 0.85377 0.86515 0.41325 0.0
C613 C 0.83915 0.87051 0.36288 0.0
C614 C 0.88788 0.89784 0.44564 0.0
C615 C 0.91025 0.93526 0.42781 0.0
H616 H 0.83941 0.83504 0.42738 0.0
H617 H 0.8981 0.89285 0.48426 0.0
S618 S 0.88425 0.96404 0.2987 0.0
N619 N 0.84828 0.91647 0.29709 0.0
N620 N 0.91431 0.97615 0.35659 0.0
C621 C 0.89559 0.94085 0.37745 0.0
C622 C 0.85959 0.90884 0.34527 0.0
C623 C 0.41157 0.60343 0.64759 0.0
C624 C 0.44365 0.62063 0.61687 0.0
C625 C 0.37978 0.63456 0.67784 0.0
C626 C 0.37548 0.68566 0.67868 0.0
H627 H 0.41088 0.56487 0.64847 0.0
H628 H 0.35702 0.61782 0.69991 0.0
S629 S 0.44997 0.75148 0.60564 0.0
N630 N 0.46833 0.69461 0.59133 0.0
N631 N 0.40823 0.75119 0.64447 0.0
C632 C 0.40708 0.70336 0.64791 0.0
C633 C 0.44074 0.67185 0.61842 0.0
C634 C 0.52885 0.15492 0.9085 0.0
C635 C 0.55763 0.1224 0.93565 0.0
C636 C 0.5518 0.1857 0.88266 0.0
C637 C 0.60444 0.18509 0.88249 0.0
H638 H 0.48817 0.15702 0.90747 0.0
H639 H 0.52816 0.21029 0.86261 0.0
S640 S 0.69754 0.10936 0.94997 0.0
N641 N 0.64229 0.09302 0.96197 0.0
N642 N 0.68501 0.1508 0.91332 0.0
C643 C 0.63375 0.15281 0.90922 0.0
C644 C 0.61047 0.12156 0.9358 0.0
C645 C 0.14091 0.32616 0.1612 0.0
C646 C 0.13188 0.37157 0.14676 0.0
C647 C 0.18103 0.31953 0.19808 0.0
C648 C 0.21371 0.35818 0.2215 0.0
H649 H 0.11755 0.29535 0.14282 0.0
H650 H 0.18754 0.28318 0.20658 0.0
S651 S 0.20093 0.4862 0.20245 0.0
N652 N 0.15422 0.45751 0.16304 0.0
N653 N 0.23132 0.44439 0.23138 0.0
C654 C 0.20348 0.40445 0.20927 0.0
C655 C 0.16217 0.41133 0.17199 0.0
C656 C 0.73976 0.53015 0.85202 0.0
C657 C 0.69478 0.50815 0.82575 0.0
C658 C 0.7544 0.57533 0.84318 0.0
C659 C 0.72435 0.59881 0.80768 0.0
H660 H 0.759 0.5162 0.88446 0.0
H661 H 0.78519 0.59454 0.86846 0.0
S662 S 0.6134 0.54778 0.71848 0.0
N663 N 0.62809 0.50665 0.75522 0.0
N664 N 0.65616 0.59118 0.73749 0.0
C665 C 0.68507 0.57278 0.77521 0.0
C666 C 0.67028 0.52709 0.78435 0.0
C667 C 0.69121 0.44877 0.15968 0.0
C668 C 0.73773 0.44101 0.14094 0.0
C669 C 0.64738 0.4568 0.12788 0.0
C670 C 0.65002 0.46128 0.0783 0.0
H671 H 0.68662 0.44058 0.19598 0.0
H672 H 0.61126 0.45693 0.14139 0.0
S673 S 0.76697 0.46988 0.02154 0.0
N674 N 0.7867 0.45539 0.07725 0.0
N675 N 0.70498 0.47548 0.01804 0.0
C676 C 0.69795 0.46553 0.06352 0.0
C677 C 0.74213 0.45602 0.09567 0.0
C678 C 0.94187 0.37713 0.41109 0.0
C679 C 0.9355 0.4269 0.40803 0.0
C680 C 0.90924 0.34189 0.38066 0.0
C681 C 0.86997 0.3552 0.34536 0.0
H682 H 0.97129 0.36545 0.43833 0.0
H683 H 0.91485 0.30414 0.38468 0.0
S684 S 0.83801 0.4808 0.32241 0.0
N685 N 0.88735 0.48752 0.36705 0.0
N686 N 0.82665 0.42195 0.30941 0.0
C687 C 0.8639 0.4049 0.34157 0.0
C688 C 0.89649 0.44059 0.373 0.0
C689 C 0.64289 0.65984 0.38521 0.0
C690 C 0.66731 0.66587 0.43549 0.0
C691 C 0.6626 0.68013 0.34787 0.0
C692 C 0.70797 0.70702 0.35887 0.0
H693 H 0.60779 0.63981 0.37455 0.0
H694 H 0.64228 0.67451 0.31006 0.0
S695 S 0.78735 0.73399 0.48322 0.0
N696 N 0.74049 0.70108 0.49295 0.0
N697 N 0.77661 0.73874 0.42329 0.0
C698 C 0.73294 0.71305 0.40847 0.0
C699 C 0.71286 0.69283 0.44656 0.0
C700 C 0.84116 0.4143 0.85336 0.0
C701 C 0.82023 0.37281 0.86532 0.0
C702 C 0.87268 0.44591 0.88964 0.0
C703 C 0.88577 0.43625 0.93879 0.0
H704 H 0.83455 0.42144 0.81521 0.0
H705 H 0.88954 0.47634 0.8782 0.0
S706 S 0.83761 0.33465 0.99011 0.0
N707 N 0.81123 0.32606 0.93079 0.0
N708 N 0.87232 0.38424 0.99843 0.0
C709 C 0.86322 0.39615 0.95178 0.0
C710 C 0.82989 0.36477 0.91519 0.0
C711 C 0.80693 0.85731 0.1254 0.0
C712 C 0.83769 0.82708 0.15421 0.0
C713 C 0.82533 0.87909 0.08879 0.0
C714 C 0.87549 0.8723 0.07959 0.0
H715 H 0.76796 0.8643 0.13098 0.0
H716 H 0.80048 0.90225 0.06805 0.0
S717 S 0.97136 0.79492 0.14123 0.0
N718 N 0.92091 0.79009 0.1684 0.0
N719 N 0.95541 0.83222 0.10053 0.0
C720 C 0.90681 0.84232 0.10762 0.0
C721 C 0.88793 0.81938 0.14452 0.0
C722 C 0.90766 0.17095 0.85778 0.0
C723 C 0.85456 0.16479 0.84118 0.0
C724 C 0.93807 0.13978 0.88817 0.0
C725 C 0.91902 0.0983 0.90411 0.0
H726 H 0.92627 0.20128 0.84811 0.0
H727 H 0.97777 0.14866 0.89938 0.0
S728 S 0.78399 0.06004 0.86671 0.0
N729 N 0.78583 0.10986 0.84186 0.0
N730 N 0.84164 0.0522 0.89582 0.0
C731 C 0.86631 0.09067 0.88626 0.0
C732 C 0.83503 0.12308 0.85614 0.0
C733 C 0.71143 0.14274 0.60381 0.0
C734 C 0.71056 0.14662 0.65556 0.0
C735 C 0.68696 0.10406 0.56954 0.0
C736 C 0.66178 0.06693 0.58563 0.0
H737 H 0.7284 0.17128 0.58942 0.0
H738 H 0.68545 0.10461 0.52987 0.0
S739 S 0.65551 0.05645 0.71796 0.0
N740 N 0.68722 0.10719 0.72162 0.0
N741 N 0.64226 0.03456 0.65766 0.0
C742 C 0.66441 0.06842 0.63759 0.0
C743 C 0.68841 0.10824 0.67236 0.0
C744 C 0.54623 0.93146 0.34136 0.0
C745 C 0.56824 0.91396 0.3851 0.0
C746 C 0.54981 0.90531 0.29417 0.0
C747 C 0.57782 0.8622 0.28936 0.0
H748 H 0.5284 0.96685 0.34332 0.0
H749 H 0.53744 0.92238 0.26168 0.0
S750 S 0.6197 0.79142 0.39238 0.0
N751 N 0.60178 0.84422 0.42088 0.0
N752 N 0.60978 0.79451 0.33202 0.0
C753 C 0.59028 0.83987 0.3326 0.0
C754 C 0.58597 0.86645 0.38077 0.0
C755 C 0.79556 0.07203 0.39791 0.0
C756 C 0.79408 0.09393 0.35541 0.0
C757 C 0.84153 0.06878 0.42854 0.0
C758 C 0.88683 0.08414 0.41516 0.0
H759 H 0.76095 0.06735 0.41276 0.0
H760 H 0.84096 0.05641 0.46382 0.0
S761 S 0.90383 0.1088 0.29028 0.0
N762 N 0.84206 0.1048 0.28865 0.0
N763 N 0.92902 0.09974 0.34674 0.0
C764 C 0.88653 0.09233 0.36628 0.0
C765 C 0.83965 0.09487 0.3351 0.0
C766 C 0.61189 0.211 0.13513 0.0
C767 C 0.63807 0.20038 0.18062 0.0
C768 C 0.5704 0.18274 0.10943 0.0
C769 C 0.55409 0.14295 0.12834 0.0
H770 H 0.62474 0.23995 0.11822 0.0
H771 H 0.55357 0.18971 0.07275 0.0
S772 S 0.60454 0.10337 0.24844 0.0
N773 N 0.64002 0.15018 0.24606 0.0
N774 N 0.56354 0.09669 0.19638 0.0
C775 C 0.57756 0.13384 0.17497 0.0
C776 C 0.6192 0.16269 0.2015 0.0
C777 C 0.74588 0.93671 0.93683 0.0
C778 C 0.75023 0.88605 0.93005 0.0
C779 C 0.71927 0.96087 0.97367 0.0
C780 C 0.69751 0.93502 1.00501 0.0
H781 H 0.76031 0.95733 0.91175 0.0
H782 H 0.71267 0.99949 0.9757 0.0
S783 S 0.70725 0.80347 1.00867 0.0
N784 N 0.73718 0.81163 0.96216 0.0
N785 N 0.68754 0.8578 0.03173 0.0
C786 C 0.70603 0.88521 1.00187 0.0
C787 C 0.73227 0.86042 0.96404 0.0
C788 C 0.85457 0.04658 0.71663 0.0
C789 C 0.90022 0.06581 0.70897 0.0
C790 C 0.85368 1.01924 0.75466 0.0
C791 C 0.89853 1.01037 0.78616 0.0
H792 H 0.82067 0.04747 0.68965 0.0
H793 H 0.81882 1.00065 0.75502 0.0
S794 S 1.0216 0.07211 0.79498 0.0
N795 N 0.9868 0.08794 0.74504 0.0
N796 N 0.98502 0.03736 0.81794 0.0
C797 C 0.9417 0.03774 0.78497 0.0
C798 C 0.94265 0.06522 0.74581 0.0
C799 C 0.15119 0.91153 0.83696 0.0
C800 C 0.164 0.86283 0.84341 0.0
C801 C 0.11893 0.94234 0.867 0.0
C802 C 0.09494 0.92666 0.90486 0.0
H803 H 0.16736 0.92679 0.80898 0.0
H804 H 0.11261 0.97923 0.86015 0.0
S805 S 0.11484 0.80326 0.93893 0.0
N806 N 0.14924 0.80198 0.89339 0.0
N807 N 0.08834 0.85751 0.94641 0.0
C808 C 0.10672 0.87791 0.91107 0.0
C809 C 0.1408 0.84708 0.88166 0.0
C810 C 0.98843 0.40227 0.62778 0.0
C811 C 0.95694 0.43327 0.60091 0.0
C812 C 0.96818 0.36551 0.64828 0.0
C813 C 0.91564 0.35831 0.64282 0.0
H814 H 0.02922 0.40594 0.63242 0.0
H815 H 0.99375 0.34248 0.66854 0.0
S816 S 0.81692 0.42634 0.5722 0.0
N817 N 0.87051 0.45248 0.56806 0.0
N818 N 0.83263 0.38339 0.60645 0.0
C819 C 0.88369 0.38896 0.61617 0.0
C820 C 0.90427 0.42644 0.59531 0.0
C821 C 0.52972 0.20281 0.35084 0.0
C822 C 0.52381 0.19471 0.39901 0.0
C823 C 0.50281 0.23956 0.32996 0.0
C824 C 0.47015 0.26906 0.35716 0.0
H825 H 0.55108 0.17776 0.32733 0.0
H826 H 0.50314 0.24128 0.29074 0.0
S827 S 0.45091 0.27002 0.4881 0.0
N828 N 0.49065 0.22478 0.4764 0.0
N829 N 0.43934 0.29411 0.43643 0.0
C830 C 0.46907 0.2656 0.40732 0.0
C831 C 0.49606 0.22798 0.42852 0.0
C832 C 0.67254 0.64308 0.05393 0.0
C833 C 0.64195 0.60777 0.06596 0.0
C834 C 0.70559 0.67225 0.09179 0.0
C835 C 0.7105 0.6655 0.14225 0.0
H836 H 0.66913 0.64975 1.01573 0.0
H837 H 0.72618 0.70125 0.08184 0.0
S838 S 0.64226 0.57598 0.19278 0.0
N839 N 0.62103 0.56686 0.1322 0.0
N840 N 0.68413 0.62009 0.20172 0.0
C841 C 0.68232 0.62886 0.1541 0.0
C842 C 0.6479 0.60032 0.11632 0.0
C843 C 0.14445 0.21694 0.60499 0.0
C844 C 0.15981 0.20467 0.65276 0.0
C845 C 0.10687 0.18976 0.57084 0.0
C846 C 0.08274 0.15095 0.5846 0.0
H847 H 0.16237 0.24684 0.59366 0.0
H848 H 0.09657 0.19911 0.53381 0.0
S849 S 0.11088 0.10471 0.70547 0.0
N850 N 0.14957 0.15115 0.7117 0.0
N851 N 0.07798 0.10122 0.64897 0.0
C852 C 0.09776 0.13904 0.63267 0.0
C853 C 0.13659 0.16571 0.66649 0.0
C854 C 0.65071 0.41447 0.33655 0.0
C855 C 0.66002 0.36457 0.33987 0.0
C856 C 0.61918 0.44525 0.36736 0.0
C857 C 0.59263 0.4285 0.40289 0.0
H858 H 0.66915 0.43061 0.31063 0.0
H859 H 0.61564 0.48308 0.36317 0.0
S860 S 0.6035 0.30178 0.42885 0.0
N861 N 0.63934 0.30125 0.38457 0.0
N862 N 0.58004 0.35716 0.43909 0.0
C863 C 0.60092 0.37861 0.40597 0.0
C864 C 0.63414 0.34762 0.37575 0.0
C865 C 0.42319 0.90606 0.06618 0.0
C866 C 0.42349 0.95411 0.09192 0.0
C867 C 0.40924 0.86682 0.08737 0.0
C868 C 0.39547 0.87362 0.13571 0.0
H869 H 0.43489 0.89859 0.02943 0.0
H870 H 0.40942 0.83078 0.06562 0.0
S871 S 0.39331 0.99241 0.22025 0.0
N872 N 0.41018 1.00646 0.16873 0.0
N873 N 0.38504 0.93299 0.20952 0.0
C874 C 0.39555 0.92179 0.16196 0.0
C875 C 0.40933 0.9619 0.1399 0.0
C876 C 0.99401 0.7545 0.96945 0.0
C877 C 0.97069 0.7252 0.99647 0.0
C878 C 0.96397 0.78291 0.93914 0.0
C879 C 0.91147 0.78374 0.93887 0.0
H880 H 0.0321 0.74598 0.96192 0.0
H881 H 0.98051 0.79758 0.91098 0.0
S882 S 0.8415 0.73785 0.02842 0.0
N883 N 0.89984 0.71738 0.04023 0.0
N884 N 0.84219 0.77071 0.98366 0.0
C885 C 0.89172 0.76674 0.97746 0.0
C886 C 0.92279 0.73878 1.00837 0.0
C887 C 0.4816 0.53923 0.21365 0.0
C888 C 0.44194 0.55866 0.18271 0.0
C889 C 0.4726 0.52252 0.25678 0.0
C890 C 0.42384 0.52456 0.26997 0.0
H891 H 0.51824 0.53144 0.20199 0.0
H892 H 0.50224 0.50252 0.2762 0.0
S893 S 0.31345 0.5896 0.2142 0.0
N894 N 0.35707 0.59341 0.17811 0.0
N895 N 0.33966 0.55882 0.258 0.0
C896 C 0.38654 0.55118 0.24472 0.0
C897 C 0.39585 0.56926 0.20135 0.0
C898 C 0.4032 0.5522 0.89361 0.0
C899 C 0.4518 0.57155 0.89569 0.0
C900 C 0.36034 0.58099 0.88662 0.0
C901 C 0.36565 0.62915 0.8811 0.0
H902 H 0.3988 0.51635 0.9027 0.0
H903 H 0.32347 0.56669 0.88838 0.0
S904 S 0.48306 0.69273 0.8722 0.0
N905 N 0.50218 0.6385 0.88381 0.0
N906 N 0.4208 0.69272 0.86888 0.0
C907 C 0.41328 0.64695 0.87699 0.0
C908 C 0.45685 0.61779 0.88439 0.0
C909 C 0.09091 0.65415 0.62726 0.0
C910 C 0.09978 0.60457 0.62911 0.0
C911 C 0.12338 0.68979 0.65658 0.0
C912 C 0.16481 0.67714 0.68994 0.0
H913 H 0.05995 0.66542 0.60134 0.0
H914 H 0.11633 0.72743 0.65272 0.0
S915 S 0.20152 0.55259 0.71211 0.0
N916 N 0.15122 0.54471 0.66851 0.0
N917 N 0.2113 0.61175 0.72534 0.0
C918 C 0.17254 0.62782 0.69404 0.0
C919 C 0.14025 0.59148 0.66316 0.0
C920 C 0.30265 0.36621 0.63102 0.0
C921 C 0.33106 0.33045 0.65375 0.0
C922 C 0.32171 0.39094 0.59702 0.0
C923 C 0.37051 0.38167 0.58391 0.0
H924 H 0.26482 0.37522 0.63934 0.0
H925 H 0.29781 0.41805 0.58126 0.0
S926 S 0.46247 0.29415 0.63565 0.0
N927 N 0.41193 0.28876 0.6625 0.0
N928 N 0.44796 0.33521 0.59879 0.0
C929 C 0.4 0.3467 0.60718 0.0
C930 C 0.38022 0.32105 0.64173 0.0
C931 C 0.17267 0.62094 0.18163 0.0
C932 C 0.19664 0.65632 0.16178 0.0
C933 C 0.14062 0.58528 0.1507 0.0
C934 C 0.13042 0.58385 0.09861 0.0
H935 H 0.17752 0.62171 0.22175 0.0
H936 H 0.12122 0.56058 0.16807 0.0
S937 S 0.18406 0.66711 0.02735 0.0
N938 N 0.20911 0.68612 0.08611 0.0
N939 N 0.14782 0.62034 0.02834 0.0
C940 C 0.15509 0.61815 0.0781 0.0
C941 C 0.18858 0.65386 0.10949 0.0
C942 C 0.61999 0.36296 0.65266 0.0
C943 C 0.67198 0.36868 0.67453 0.0
C944 C 0.59222 0.39667 0.62325 0.0
C945 C 0.61284 0.44045 0.61315 0.0
H946 H 0.60022 0.33105 0.6573 0.0
H947 H 0.55329 0.38767 0.60779 0.0
S948 S 0.74538 0.47867 0.66667 0.0
N949 N 0.74114 0.42601 0.68573 0.0
N950 N 0.69023 0.48777 0.6332 0.0
C951 C 0.66439 0.44746 0.63622 0.0
C952 C 0.69301 0.41266 0.66562 0.0
C953 C 0.97124 0.58529 0.23053 0.0
C954 C 0.92072 0.599 0.23171 0.0
C955 C 0.98528 0.55838 0.18705 0.0
C956 C 0.94899 0.54617 0.14427 0.0
H957 H 1.00032 0.59996 0.2609 0.0
H958 H 1.02511 0.55136 0.18524 0.0
S959 S 0.81098 0.56608 0.13315 0.0
N960 N 0.83334 0.58998 0.19131 0.0
N961 N 0.86055 0.54359 0.10751 0.0
C962 C 0.89791 0.555 0.147 0.0
C963 C 0.88346 0.57998 0.19185 0.0
C964 C 0.89914 0.72235 0.6274 0.0
C965 C 0.88298 0.67385 0.61385 0.0
C966 C 0.89319 0.749 0.67438 0.0
C967 C 0.87103 0.72785 0.70924 0.0
H968 H 0.91748 0.73934 0.602 0.0
H969 H 0.90532 0.78654 0.68307 0.0
S970 S 0.82177 0.60159 0.69019 0.0
N971 N 0.84284 0.60614 0.63753 0.0
N972 N 0.8331 0.65479 0.72615 0.0
C973 C 0.85502 0.67906 0.69574 0.0
C974 C 0.86047 0.6525 0.64792 0.0
C975 C 0.37084 0.61198 0.40561 0.0
C976 C 0.42399 0.60409 0.40583 0.0
C977 C 0.34064 0.64409 0.37596 0.0
C978 C 0.35999 0.67083 0.34237 0.0
H979 H 0.35208 0.59397 0.42993 0.0
H980 H 0.3009 0.64792 0.37964 0.0
S981 S 0.49578 0.66185 0.32378 0.0
N982 N 0.4933 0.62652 0.36613 0.0
N983 N 0.43796 0.68323 0.3108 0.0
C984 C 0.41274 0.66201 0.34103 0.0
C985 C 0.44377 0.63023 0.37212 0.0
C986 C 0.08985 0.39458 0.83999 0.0
C987 C 0.10289 0.4251 0.80774 0.0
C988 C 0.07063 0.41359 0.88332 0.0
C989 C 0.06276 0.46354 0.89553 0.0
H990 H 0.09912 0.35641 0.83508 0.0
H991 H 0.064 0.38901 0.90841 0.0
S992 S 0.07505 0.55638 0.81562 0.0
N993 N 0.09508 0.50549 0.78457 0.0
N994 N 0.05858 0.54198 0.86714 0.0
C995 C 0.06868 0.49362 0.86041 0.0
C996 C 0.08845 0.47405 0.81595 0.0
C997 C 0.26096 0.40123 0.4122 0.0
C998 C 0.28678 0.35738 0.4161 0.0
C999 C 0.22552 0.41765 0.4433 0.0
C1000 C 0.21474 0.39092 0.47962 0.0
H1001 H 0.26612 0.42184 0.38309 0.0
H1002 H 0.20439 0.45001 0.43656 0.0
S1003 S 0.27814 0.2774 0.50937 0.0
N1004 N 0.30347 0.28963 0.46134 0.0
N1005 N 0.23669 0.3211 0.52133 0.0
C1006 C 0.24249 0.34827 0.48579 0.0
C1007 C 0.2785 0.33125 0.45352 0.0
loop_
_geom_bond_atom_site_label_1
_geom_bond_atom_site_label_2
_geom_bond_distance
_geom_bond_site_symmetry_2
_ccdc_geom_bond_type
Co0 N5 2.070 . S
Co0 O17 2.007 1_554 S
Co0 O20 2.075 1_655 S
Co0 O24 2.129 1_565 S
Co0 O25 2.004 1_554 S
C1 O21 1.259 1_655 S
C1 O24 1.258 . S
Co2 N11 2.067 . S
Co2 O18 2.126 1_545 S
Co2 O19 2.008 1_556 S
Co2 O21 2.010 1_556 S
Co2 O26 2.072 1_455 S
C3 N5 1.316 . S
C3 N6 1.347 . S
C3 H8 0.931 1_554 S
C4 N5 1.375 . S
C4 C7 1.350 . S
C4 H9 0.930 . S
N5 Co0 2.070 . S
N5 C3 1.316 . S
N5 C4 1.375 . S
N6 C3 1.347 . S
N6 C7 1.373 . S
C7 C4 1.350 . S
C7 N6 1.373 . S
C7 H28 0.931 . S
H8 C3 0.931 1_556 S
H9 C4 0.930 . S
C10 O17 1.259 1_455 S
C10 O18 1.258 . S
N11 Co2 2.067 . S
N11 C12 1.316 . S
N11 C13 1.375 . S
C12 N11 1.316 . S
C12 N14 1.347 . S
C12 H23 0.931 1_556 S
C13 N11 1.375 . S
C13 C15 1.350 . S
C13 H22 0.930 . S
N14 C12 1.347 . S
N14 C15 1.373 . S
C15 C13 1.350 . S
C15 N14 1.373 . S
C15 H29 0.931 . S
C16 O19 1.256 1_565 S
C16 O20 1.255 . S
O17 Co0 2.007 1_556 S
O17 C10 1.259 1_655 S
O18 Co2 2.126 1_565 S
O18 C10 1.258 . S
O19 Co2 2.008 1_554 S
O19 C16 1.256 1_545 S
O20 Co0 2.075 1_455 S
O20 C16 1.255 . S
O21 C1 1.259 1_455 S
O21 Co2 2.010 1_554 S
H22 C13 0.930 . S
H23 C12 0.931 1_554 S
O24 Co0 2.129 1_545 S
O24 C1 1.258 . S
O25 Co0 2.004 1_556 S
O25 C27 1.256 1_565 S
O26 Co2 2.072 1_655 S
O26 C27 1.255 . S
C27 O25 1.256 1_545 S
C27 O26 1.255 . S
H28 C7 0.931 . S
H29 C15 0.931 . S
Co30 N35 2.057 . S
Co30 O47 2.021 . S
Co30 O50 2.062 . S
Co30 O54 2.117 . S
Co30 O55 2.020 . S
C31 O51 1.259 . S
C31 O54 1.258 . S
Co32 N41 2.057 . S
Co32 O48 2.117 . S
Co32 O49 2.020 . S
Co32 O51 2.021 . S
Co32 O56 2.062 . S
C33 N35 1.316 . S
C33 N36 1.347 . S
C33 H38 0.931 . S
C34 N35 1.375 . S
C34 C37 1.350 . S
C34 H39 0.930 . S
N35 Co30 2.057 . S
N35 C33 1.316 . S
N35 C34 1.375 . S
N36 C33 1.347 . S
N36 C37 1.373 . S
C37 C34 1.350 . S
C37 N36 1.373 . S
C37 H58 0.931 . S
H38 C33 0.931 . S
H39 C34 0.930 . S
C40 O47 1.259 . S
C40 O48 1.258 . S
N41 Co32 2.057 . S
N41 C42 1.316 . S
N41 C43 1.375 . S
C42 N41 1.316 . S
C42 N44 1.347 . S
C42 H53 0.931 . S
C43 N41 1.375 . S
C43 C45 1.350 . S
C43 H52 0.930 . S
N44 C42 1.347 . S
N44 C45 1.373 . S
C45 C43 1.350 . S
C45 N44 1.373 . S
C45 H59 0.931 . S
C46 O49 1.256 . S
C46 O50 1.255 . S
O47 Co30 2.021 . S
O47 C40 1.259 . S
O48 Co32 2.117 . S
O48 C40 1.258 . S
O49 Co32 2.020 . S
O49 C46 1.256 . S
O50 Co30 2.062 . S
O50 C46 1.255 . S
O51 C31 1.259 . S
O51 Co32 2.021 . S
H52 C43 0.930 . S
H53 C42 0.931 . S
O54 Co30 2.117 . S
O54 C31 1.258 . S
O55 Co30 2.020 . S
O55 C57 1.256 . S
O56 Co32 2.062 . S
O56 C57 1.255 . S
C57 O55 1.256 . S
C57 O56 1.255 . S
H58 C37 0.931 . S
H59 C45 0.931 . S
Co60 N65 2.057 . S
Co60 O77 2.021 . S
Co60 O80 2.062 . S
Co60 O84 2.117 1_565 S
Co60 O85 2.020 1_565 S
C61 O81 1.259 . S
C61 O84 1.258 . S
Co62 N71 2.057 . S
Co62 O78 2.117 1_545 S
Co62 O79 2.020 1_545 S
Co62 O81 2.021 . S
Co62 O86 2.062 . S
C63 N65 1.316 . S
C63 N66 1.347 . S
C63 H68 0.931 . S
C64 N65 1.375 . S
C64 C67 1.350 . S
C64 H69 0.930 . S
N65 Co60 2.057 . S
N65 C63 1.316 . S
N65 C64 1.375 . S
N66 C63 1.347 . S
N66 C67 1.373 . S
C67 C64 1.350 . S
C67 N66 1.373 . S
C67 H88 0.931 . S
H68 C63 0.931 . S
H69 C64 0.930 . S
C70 O77 1.259 . S
C70 O78 1.258 . S
N71 Co62 2.057 . S
N71 C72 1.316 . S
N71 C73 1.375 . S
C72 N71 1.316 . S
C72 N74 1.347 . S
C72 H83 0.931 . S
C73 N71 1.375 . S
C73 C75 1.350 . S
C73 H82 0.930 . S
N74 C72 1.347 . S
N74 C75 1.373 . S
C75 C73 1.350 . S
C75 N74 1.373 . S
C75 H89 0.931 . S
C76 O79 1.256 . S
C76 O80 1.255 . S
O77 Co60 2.021 . S
O77 C70 1.259 . S
O78 Co62 2.117 1_565 S
O78 C70 1.258 . S
O79 Co62 2.020 1_565 S
O79 C76 1.256 . S
O80 Co60 2.062 . S
O80 C76 1.255 . S
O81 C61 1.259 . S
O81 Co62 2.021 . S
H82 C73 0.930 . S
H83 C72 0.931 . S
O84 Co60 2.117 1_545 S
O84 C61 1.258 . S
O85 Co60 2.020 1_545 S
O85 C87 1.256 . S
O86 Co62 2.062 . S
O86 C87 1.255 . S
C87 O85 1.256 . S
C87 O86 1.255 . S
H88 C67 0.931 . S
H89 C75 0.931 . S
Co90 N95 2.057 . S
Co90 O107 2.021 . S
Co90 O110 2.062 . S
Co90 O114 2.117 . S
Co90 O115 2.020 . S
C91 O111 1.259 . S
C91 O114 1.258 . S
Co92 N101 2.057 . S
Co92 O108 2.117 . S
Co92 O109 2.020 . S
Co92 O111 2.021 . S
Co92 O116 2.062 . S
C93 N95 1.316 . S
C93 N96 1.347 . S
C93 H98 0.931 . S
C94 N95 1.375 . S
C94 C97 1.350 . S
C94 H99 0.930 . S
N95 Co90 2.057 . S
N95 C93 1.316 . S
N95 C94 1.375 . S
N96 C93 1.347 . S
N96 C97 1.373 . S
C97 C94 1.350 . S
C97 N96 1.373 . S
C97 H118 0.931 . S
H98 C93 0.931 . S
H99 C94 0.930 . S
C100 O107 1.259 . S
C100 O108 1.258 . S
N101 Co92 2.057 . S
N101 C102 1.316 . S
N101 C103 1.375 . S
C102 N101 1.316 . S
C102 N104 1.347 . S
C102 H113 0.931 . S
C103 N101 1.375 . S
C103 C105 1.350 . S
C103 H112 0.930 . S
N104 C102 1.347 . S
N104 C105 1.373 . S
C105 C103 1.350 . S
C105 N104 1.373 . S
C105 H119 0.931 . S
C106 O109 1.256 . S
C106 O110 1.255 . S
O107 Co90 2.021 . S
O107 C100 1.259 . S
O108 Co92 2.117 . S
O108 C100 1.258 . S
O109 Co92 2.020 . S
O109 C106 1.256 . S
O110 Co90 2.062 . S
O110 C106 1.255 . S
O111 C91 1.259 . S
O111 Co92 2.021 . S
H112 C103 0.930 . S
H113 C102 0.931 . S
O114 Co90 2.117 . S
O114 C91 1.258 . S
O115 Co90 2.020 . S
O115 C117 1.256 . S
O116 Co92 2.062 . S
O116 C117 1.255 . S
C117 O115 1.256 . S
C117 O116 1.255 . S
H118 C97 0.931 . S
H119 C105 0.931 . S
Co120 N125 2.057 . S
Co120 O137 2.021 1_445 S
Co120 O140 2.062 1_455 S
Co120 O144 2.117 . S
Co120 O145 2.020 1_545 S
C121 O141 1.259 . S
C121 O144 1.258 . S
Co122 N131 2.057 . S
Co122 O138 2.117 . S
Co122 O139 2.020 1_565 S
Co122 O141 2.021 1_665 S
Co122 O146 2.062 1_655 S
C123 N125 1.316 . S
C123 N126 1.347 . S
C123 H128 0.931 . S
C124 N125 1.375 . S
C124 C127 1.350 . S
C124 H129 0.930 . S
N125 Co120 2.057 . S
N125 C123 1.316 . S
N125 C124 1.375 . S
N126 C123 1.347 . S
N126 C127 1.373 . S
C127 C124 1.350 . S
C127 N126 1.373 . S
C127 H148 0.931 . S
H128 C123 0.931 . S
H129 C124 0.930 . S
C130 O137 1.259 . S
C130 O138 1.258 . S
N131 Co122 2.057 . S
N131 C132 1.316 . S
N131 C133 1.375 . S
C132 N131 1.316 . S
C132 N134 1.347 . S
C132 H143 0.931 . S
C133 N131 1.375 . S
C133 C135 1.350 . S
C133 H142 0.930 . S
N134 C132 1.347 . S
N134 C135 1.373 . S
C135 C133 1.350 . S
C135 N134 1.373 . S
C135 H149 0.931 . S
C136 O139 1.256 . S
C136 O140 1.255 . S
O137 Co120 2.021 1_665 S
O137 C130 1.259 . S
O138 Co122 2.117 . S
O138 C130 1.258 . S
O139 Co122 2.020 1_545 S
O139 C136 1.256 . S
O140 Co120 2.062 1_655 S
O140 C136 1.255 . S
O141 C121 1.259 . S
O141 Co122 2.021 1_445 S
H142 C133 0.930 . S
H143 C132 0.931 . S
O144 Co120 2.117 . S
O144 C121 1.258 . S
O145 Co120 2.020 1_565 S
O145 C147 1.256 . S
O146 Co122 2.062 1_455 S
O146 C147 1.255 . S
C147 O145 1.256 . S
C147 O146 1.255 . S
H148 C127 0.931 . S
H149 C135 0.931 . S
Co150 N155 2.057 . S
Co150 O167 2.021 . S
Co150 O170 2.062 . S
Co150 O174 2.117 . S
Co150 O175 2.020 . S
C151 O171 1.259 . S
C151 O174 1.258 . S
Co152 N161 2.057 . S
Co152 O168 2.117 . S
Co152 O169 2.020 . S
Co152 O171 2.021 . S
Co152 O176 2.062 . S
C153 N155 1.316 . S
C153 N156 1.347 . S
C153 H158 0.931 . S
C154 N155 1.375 . S
C154 C157 1.350 . S
C154 H159 0.930 . S
N155 Co150 2.057 . S
N155 C153 1.316 . S
N155 C154 1.375 . S
N156 C153 1.347 . S
N156 C157 1.373 . S
C157 C154 1.350 . S
C157 N156 1.373 . S
C157 H178 0.931 . S
H158 C153 0.931 . S
H159 C154 0.930 . S
C160 O167 1.259 . S
C160 O168 1.258 . S
N161 Co152 2.057 . S
N161 C162 1.316 . S
N161 C163 1.375 . S
C162 N161 1.316 . S
C162 N164 1.347 . S
C162 H173 0.931 . S
C163 N161 1.375 . S
C163 C165 1.350 . S
C163 H172 0.930 . S
N164 C162 1.347 . S
N164 C165 1.373 . S
C165 C163 1.350 . S
C165 N164 1.373 . S
C165 H179 0.931 . S
C166 O169 1.256 . S
C166 O170 1.255 . S
O167 Co150 2.021 . S
O167 C160 1.259 . S
O168 Co152 2.117 . S
O168 C160 1.258 . S
O169 Co152 2.020 . S
O169 C166 1.256 . S
O170 Co150 2.062 . S
O170 C166 1.255 . S
O171 C151 1.259 . S
O171 Co152 2.021 . S
H172 C163 0.930 . S
H173 C162 0.931 . S
O174 Co150 2.117 . S
O174 C151 1.258 . S
O175 Co150 2.020 . S
O175 C177 1.256 . S
O176 Co152 2.062 . S
O176 C177 1.255 . S
C177 O175 1.256 . S
C177 O176 1.255 . S
H178 C157 0.931 . S
H179 C165 0.931 . S
Co180 N185 2.057 . S
Co180 O197 2.021 1_544 S
Co180 O200 2.062 1_545 S
Co180 O204 2.117 . S
Co180 O205 2.020 1_554 S
C181 O201 1.259 . S
C181 O204 1.258 . S
Co182 N191 2.057 . S
Co182 O198 2.117 . S
Co182 O199 2.020 1_556 S
Co182 O201 2.021 1_566 S
Co182 O206 2.062 1_565 S
C183 N185 1.316 . S
C183 N186 1.347 . S
C183 H188 0.931 . S
C184 N185 1.375 . S
C184 C187 1.350 . S
C184 H189 0.930 . S
N185 Co180 2.057 . S
N185 C183 1.316 . S
N185 C184 1.375 . S
N186 C183 1.347 . S
N186 C187 1.373 . S
C187 C184 1.350 . S
C187 N186 1.373 . S
C187 H208 0.931 . S
H188 C183 0.931 . S
H189 C184 0.930 . S
C190 O197 1.259 . S
C190 O198 1.258 . S
N191 Co182 2.057 . S
N191 C192 1.316 . S
N191 C193 1.375 . S
C192 N191 1.316 . S
C192 N194 1.347 . S
C192 H203 0.931 . S
C193 N191 1.375 . S
C193 C195 1.350 . S
C193 H202 0.930 . S
N194 C192 1.347 . S
N194 C195 1.373 . S
C195 C193 1.350 . S
C195 N194 1.373 . S
C195 H209 0.931 . S
C196 O199 1.256 . S
C196 O200 1.255 . S
O197 Co180 2.021 1_566 S
O197 C190 1.259 . S
O198 Co182 2.117 . S
O198 C190 1.258 . S
O199 Co182 2.020 1_554 S
O199 C196 1.256 . S
O200 Co180 2.062 1_565 S
O200 C196 1.255 . S
O201 C181 1.259 . S
O201 Co182 2.021 1_544 S
H202 C193 0.930 . S
H203 C192 0.931 . S
O204 Co180 2.117 . S
O204 C181 1.258 . S
O205 Co180 2.020 1_556 S
O205 C207 1.256 . S
O206 Co182 2.062 1_545 S
O206 C207 1.255 . S
C207 O205 1.256 . S
C207 O206 1.255 . S
H208 C187 0.931 . S
H209 C195 0.931 . S
Co210 N215 2.057 . S
Co210 O227 2.021 . S
Co210 O230 2.062 . S
Co210 O234 2.117 . S
Co210 O235 2.020 . S
C211 O231 1.259 . S
C211 O234 1.258 . S
Co212 N221 2.057 . S
Co212 O228 2.117 . S
Co212 O229 2.020 . S
Co212 O231 2.021 . S
Co212 O236 2.062 . S
C213 N215 1.316 . S
C213 N216 1.347 . S
C213 H218 0.931 . S
C214 N215 1.375 . S
C214 C217 1.350 . S
C214 H219 0.930 . S
N215 Co210 2.057 . S
N215 C213 1.316 . S
N215 C214 1.375 . S
N216 C213 1.347 . S
N216 C217 1.373 . S
C217 C214 1.350 . S
C217 N216 1.373 . S
C217 H238 0.931 . S
H218 C213 0.931 . S
H219 C214 0.930 . S
C220 O227 1.259 . S
C220 O228 1.258 . S
N221 Co212 2.057 . S
N221 C222 1.316 . S
N221 C223 1.375 . S
C222 N221 1.316 . S
C222 N224 1.347 . S
C222 H233 0.931 . S
C223 N221 1.375 . S
C223 C225 1.350 . S
C223 H232 0.930 . S
N224 C222 1.347 . S
N224 C225 1.373 . S
C225 C223 1.350 . S
C225 N224 1.373 . S
C225 H239 0.931 . S
C226 O229 1.256 . S
C226 O230 1.255 . S
O227 Co210 2.021 . S
O227 C220 1.259 . S
O228 Co212 2.117 . S
O228 C220 1.258 . S
O229 Co212 2.020 . S
O229 C226 1.256 . S
O230 Co210 2.062 . S
O230 C226 1.255 . S
O231 C211 1.259 . S
O231 Co212 2.021 . S
H232 C223 0.930 . S
H233 C222 0.931 . S
O234 Co210 2.117 . S
O234 C211 1.258 . S
O235 Co210 2.020 . S
O235 C237 1.256 . S
O236 Co212 2.062 . S
O236 C237 1.255 . S
C237 O235 1.256 . S
C237 O236 1.255 . S
H238 C217 0.931 . S
H239 C225 0.931 . S
Co240 N245 2.057 . S
Co240 O257 2.021 . S
Co240 O260 2.062 . S
Co240 O264 2.117 1_556 S
Co240 O265 2.020 1_556 S
C241 O261 1.259 . S
C241 O264 1.258 . S
Co242 N251 2.057 . S
Co242 O258 2.117 1_554 S
Co242 O259 2.020 1_554 S
Co242 O261 2.021 . S
Co242 O266 2.062 . S
C243 N245 1.316 . S
C243 N246 1.347 . S
C243 H248 0.931 . S
C244 N245 1.375 . S
C244 C247 1.350 . S
C244 H249 0.930 . S
N245 Co240 2.057 . S
N245 C243 1.316 . S
N245 C244 1.375 . S
N246 C243 1.347 . S
N246 C247 1.373 . S
C247 C244 1.350 . S
C247 N246 1.373 . S
C247 H268 0.931 . S
H248 C243 0.931 . S
H249 C244 0.930 . S
C250 O257 1.259 . S
C250 O258 1.258 . S
N251 Co242 2.057 . S
N251 C252 1.316 . S
N251 C253 1.375 . S
C252 N251 1.316 . S
C252 N254 1.347 . S
C252 H263 0.931 . S
C253 N251 1.375 . S
C253 C255 1.350 . S
C253 H262 0.930 . S
N254 C252 1.347 . S
N254 C255 1.373 . S
C255 C253 1.350 . S
C255 N254 1.373 . S
C255 H269 0.931 . S
C256 O259 1.256 . S
C256 O260 1.255 . S
O257 Co240 2.021 . S
O257 C250 1.259 . S
O258 Co242 2.117 1_556 S
O258 C250 1.258 . S
O259 Co242 2.020 1_556 S
O259 C256 1.256 . S
O260 Co240 2.062 . S
O260 C256 1.255 . S
O261 C241 1.259 . S
O261 Co242 2.021 . S
H262 C253 0.930 . S
H263 C252 0.931 . S
O264 Co240 2.117 1_554 S
O264 C241 1.258 . S
O265 Co240 2.020 1_554 S
O265 C267 1.256 . S
O266 Co242 2.062 . S
O266 C267 1.255 . S
C267 O265 1.256 . S
C267 O266 1.255 . S
H268 C247 0.931 . S
H269 C255 0.931 . S
Co270 N275 2.057 . S
Co270 O287 2.021 . S
Co270 O290 2.062 . S
Co270 O294 2.117 . S
Co270 O295 2.020 . S
C271 O291 1.259 . S
C271 O294 1.258 . S
Co272 N281 2.057 . S
Co272 O288 2.117 . S
Co272 O289 2.020 . S
Co272 O291 2.021 . S
Co272 O296 2.062 . S
C273 N275 1.316 . S
C273 N276 1.347 . S
C273 H278 0.931 . S
C274 N275 1.375 . S
C274 C277 1.350 . S
C274 H279 0.930 . S
N275 Co270 2.057 . S
N275 C273 1.316 . S
N275 C274 1.375 . S
N276 C273 1.347 . S
N276 C277 1.373 . S
C277 C274 1.350 . S
C277 N276 1.373 . S
C277 H298 0.931 . S
H278 C273 0.931 . S
H279 C274 0.930 . S
C280 O287 1.259 . S
C280 O288 1.258 . S
N281 Co272 2.057 . S
N281 C282 1.316 . S
N281 C283 1.375 . S
C282 N281 1.316 . S
C282 N284 1.347 . S
C282 H293 0.931 . S
C283 N281 1.375 . S
C283 C285 1.350 . S
C283 H292 0.930 . S
N284 C282 1.347 . S
N284 C285 1.373 . S
C285 C283 1.350 . S
C285 N284 1.373 . S
C285 H299 0.931 . S
C286 O289 1.256 . S
C286 O290 1.255 . S
O287 Co270 2.021 . S
O287 C280 1.259 . S
O288 Co272 2.117 . S
O288 C280 1.258 . S
O289 Co272 2.020 . S
O289 C286 1.256 . S
O290 Co270 2.062 . S
O290 C286 1.255 . S
O291 C271 1.259 . S
O291 Co272 2.021 . S
H292 C283 0.930 . S
H293 C282 0.931 . S
O294 Co270 2.117 . S
O294 C271 1.258 . S
O295 Co270 2.020 . S
O295 C297 1.256 . S
O296 Co272 2.062 . S
O296 C297 1.255 . S
C297 O295 1.256 . S
C297 O296 1.255 . S
H298 C277 0.931 . S
H299 C285 0.931 . S
Co300 N305 2.057 . S
Co300 O317 2.021 . S
Co300 O320 2.062 . S
Co300 O324 2.117 1_655 S
Co300 O325 2.020 . S
C301 O321 1.259 . S
C301 O324 1.258 . S
Co302 N311 2.057 . S
Co302 O318 2.117 1_455 S
Co302 O319 2.020 . S
Co302 O321 2.021 . S
Co302 O326 2.062 . S
C303 N305 1.316 . S
C303 N306 1.347 . S
C303 H308 0.931 . S
C304 N305 1.375 . S
C304 C307 1.350 . S
C304 H309 0.930 . S
N305 Co300 2.057 . S
N305 C303 1.316 . S
N305 C304 1.375 . S
N306 C303 1.347 . S
N306 C307 1.373 . S
C307 C304 1.350 . S
C307 N306 1.373 . S
C307 H328 0.931 . S
H308 C303 0.931 . S
H309 C304 0.930 . S
C310 O317 1.259 . S
C310 O318 1.258 . S
N311 Co302 2.057 . S
N311 C312 1.316 . S
N311 C313 1.375 . S
C312 N311 1.316 . S
C312 N314 1.347 . S
C312 H323 0.931 . S
C313 N311 1.375 . S
C313 C315 1.350 . S
C313 H322 0.930 . S
N314 C312 1.347 . S
N314 C315 1.373 . S
C315 C313 1.350 . S
C315 N314 1.373 . S
C315 H329 0.931 . S
C316 O319 1.256 1_655 S
C316 O320 1.255 . S
O317 Co300 2.021 . S
O317 C310 1.259 . S
O318 Co302 2.117 1_655 S
O318 C310 1.258 . S
O319 Co302 2.020 . S
O319 C316 1.256 1_455 S
O320 Co300 2.062 . S
O320 C316 1.255 . S
O321 C301 1.259 . S
O321 Co302 2.021 . S
H322 C313 0.930 . S
H323 C312 0.931 . S
O324 Co300 2.117 1_455 S
O324 C301 1.258 . S
O325 Co300 2.020 . S
O325 C327 1.256 1_655 S
O326 Co302 2.062 . S
O326 C327 1.255 . S
C327 O325 1.256 1_455 S
C327 O326 1.255 . S
H328 C307 0.931 . S
H329 C315 0.931 . S
Co330 N335 2.057 . S
Co330 O347 2.021 . S
Co330 O350 2.062 . S
Co330 O354 2.117 . S
Co330 O355 2.020 . S
C331 O351 1.259 . S
C331 O354 1.258 . S
Co332 N341 2.057 . S
Co332 O348 2.117 . S
Co332 O349 2.020 . S
Co332 O351 2.021 . S
Co332 O356 2.062 . S
C333 N335 1.316 . S
C333 N336 1.347 . S
C333 H338 0.931 . S
C334 N335 1.375 . S
C334 C337 1.350 . S
C334 H339 0.930 . S
N335 Co330 2.057 . S
N335 C333 1.316 . S
N335 C334 1.375 . S
N336 C333 1.347 . S
N336 C337 1.373 . S
C337 C334 1.350 . S
C337 N336 1.373 . S
C337 H358 0.931 . S
H338 C333 0.931 . S
H339 C334 0.930 . S
C340 O347 1.259 . S
C340 O348 1.258 . S
N341 Co332 2.057 . S
N341 C342 1.316 . S
N341 C343 1.375 . S
C342 N341 1.316 . S
C342 N344 1.347 . S
C342 H353 0.931 . S
C343 N341 1.375 . S
C343 C345 1.350 . S
C343 H352 0.930 . S
N344 C342 1.347 . S
N344 C345 1.373 . S
C345 C343 1.350 . S
C345 N344 1.373 . S
C345 H359 0.931 . S
C346 O349 1.256 . S
C346 O350 1.255 . S
O347 Co330 2.021 . S
O347 C340 1.259 . S
O348 Co332 2.117 . S
O348 C340 1.258 . S
O349 Co332 2.020 . S
O349 C346 1.256 . S
O350 Co330 2.062 . S
O350 C346 1.255 . S
O351 C331 1.259 . S
O351 Co332 2.021 . S
H352 C343 0.930 . S
H353 C342 0.931 . S
O354 Co330 2.117 . S
O354 C331 1.258 . S
O355 Co330 2.020 . S
O355 C357 1.256 . S
O356 Co332 2.062 . S
O356 C357 1.255 . S
C357 O355 1.256 . S
C357 O356 1.255 . S
H358 C337 0.931 . S
H359 C345 0.931 . S
Co360 N365 2.057 . S
Co360 O377 2.021 . S
Co360 O380 2.062 . S
Co360 O384 2.117 . S
Co360 O385 2.020 . S
C361 O381 1.259 . S
C361 O384 1.258 . S
Co362 N371 2.057 . S
Co362 O378 2.117 . S
Co362 O379 2.020 . S
Co362 O381 2.021 . S
Co362 O386 2.062 . S
C363 N365 1.316 . S
C363 N366 1.347 . S
C363 H368 0.931 . S
C364 N365 1.375 . S
C364 C367 1.350 . S
C364 H369 0.930 . S
N365 Co360 2.057 . S
N365 C363 1.316 . S
N365 C364 1.375 . S
N366 C363 1.347 . S
N366 C367 1.373 . S
C367 C364 1.350 . S
C367 N366 1.373 . S
C367 H388 0.931 . S
H368 C363 0.931 . S
H369 C364 0.930 . S
C370 O377 1.259 . S
C370 O378 1.258 . S
N371 Co362 2.057 . S
N371 C372 1.316 . S
N371 C373 1.375 . S
C372 N371 1.316 . S
C372 N374 1.347 . S
C372 H383 0.931 . S
C373 N371 1.375 . S
C373 C375 1.350 . S
C373 H382 0.930 . S
N374 C372 1.347 . S
N374 C375 1.373 . S
C375 C373 1.350 . S
C375 N374 1.373 . S
C375 H389 0.931 . S
C376 O379 1.256 . S
C376 O380 1.255 . S
O377 Co360 2.021 . S
O377 C370 1.259 . S
O378 Co362 2.117 . S
O378 C370 1.258 . S
O379 Co362 2.020 . S
O379 C376 1.256 . S
O380 Co360 2.062 . S
O380 C376 1.255 . S
O381 C361 1.259 . S
O381 Co362 2.021 . S
H382 C373 0.930 . S
H383 C372 0.931 . S
O384 Co360 2.117 . S
O384 C361 1.258 . S
O385 Co360 2.020 . S
O385 C387 1.256 . S
O386 Co362 2.062 . S
O386 C387 1.255 . S
C387 O385 1.256 . S
C387 O386 1.255 . S
H388 C367 0.931 . S
H389 C375 0.931 . S
Co390 N395 2.057 . S
Co390 O407 2.021 . S
Co390 O410 2.062 . S
Co390 O414 2.117 . S
Co390 O415 2.020 . S
C391 O411 1.259 . S
C391 O414 1.258 . S
Co392 N401 2.057 . S
Co392 O408 2.117 . S
Co392 O409 2.020 . S
Co392 O411 2.021 . S
Co392 O416 2.062 . S
C393 N395 1.316 . S
C393 N396 1.347 . S
C393 H398 0.931 . S
C394 N395 1.375 . S
C394 C397 1.350 . S
C394 H399 0.930 . S
N395 Co390 2.057 . S
N395 C393 1.316 . S
N395 C394 1.375 . S
N396 C393 1.347 . S
N396 C397 1.373 . S
C397 C394 1.350 . S
C397 N396 1.373 . S
C397 H418 0.931 . S
H398 C393 0.931 . S
H399 C394 0.930 . S
C400 O407 1.259 . S
C400 O408 1.258 . S
N401 Co392 2.057 . S
N401 C402 1.316 . S
N401 C403 1.375 . S
C402 N401 1.316 . S
C402 N404 1.347 . S
C402 H413 0.931 . S
C403 N401 1.375 . S
C403 C405 1.350 . S
C403 H412 0.930 . S
N404 C402 1.347 . S
N404 C405 1.373 . S
C405 C403 1.350 . S
C405 N404 1.373 . S
C405 H419 0.931 . S
C406 O409 1.256 . S
C406 O410 1.255 . S
O407 Co390 2.021 . S
O407 C400 1.259 . S
O408 Co392 2.117 . S
O408 C400 1.258 . S
O409 Co392 2.020 . S
O409 C406 1.256 . S
O410 Co390 2.062 . S
O410 C406 1.255 . S
O411 C391 1.259 . S
O411 Co392 2.021 . S
H412 C403 0.930 . S
H413 C402 0.931 . S
O414 Co390 2.117 . S
O414 C391 1.258 . S
O415 Co390 2.020 . S
O415 C417 1.256 . S
O416 Co392 2.062 . S
O416 C417 1.255 . S
C417 O415 1.256 . S
C417 O416 1.255 . S
H418 C397 0.931 . S
H419 C405 0.931 . S
Co420 N425 2.057 . S
Co420 O437 2.021 . S
Co420 O440 2.062 . S
Co420 O444 2.117 . S
Co420 O445 2.020 . S
C421 O441 1.259 . S
C421 O444 1.258 . S
Co422 N431 2.057 . S
Co422 O438 2.117 . S
Co422 O439 2.020 . S
Co422 O441 2.021 . S
Co422 O446 2.062 . S
C423 N425 1.316 . S
C423 N426 1.347 . S
C423 H428 0.931 . S
C424 N425 1.375 . S
C424 C427 1.350 . S
C424 H429 0.930 . S
N425 Co420 2.057 . S
N425 C423 1.316 . S
N425 C424 1.375 . S
N426 C423 1.347 . S
N426 C427 1.373 . S
C427 C424 1.350 . S
C427 N426 1.373 . S
C427 H448 0.931 . S
H428 C423 0.931 . S
H429 C424 0.930 . S
C430 O437 1.259 . S
C430 O438 1.258 . S
N431 Co422 2.057 . S
N431 C432 1.316 . S
N431 C433 1.375 . S
C432 N431 1.316 . S
C432 N434 1.347 . S
C432 H443 0.931 . S
C433 N431 1.375 . S
C433 C435 1.350 . S
C433 H442 0.930 . S
N434 C432 1.347 . S
N434 C435 1.373 . S
C435 C433 1.350 . S
C435 N434 1.373 . S
C435 H449 0.931 . S
C436 O439 1.256 . S
C436 O440 1.255 . S
O437 Co420 2.021 . S
O437 C430 1.259 . S
O438 Co422 2.117 . S
O438 C430 1.258 . S
O439 Co422 2.020 . S
O439 C436 1.256 . S
O440 Co420 2.062 . S
O440 C436 1.255 . S
O441 C421 1.259 . S
O441 Co422 2.021 . S
H442 C433 0.930 . S
H443 C432 0.931 . S
O444 Co420 2.117 . S
O444 C421 1.258 . S
O445 Co420 2.020 . S
O445 C447 1.256 . S
O446 Co422 2.062 . S
O446 C447 1.255 . S
C447 O445 1.256 . S
C447 O446 1.255 . S
H448 C427 0.931 . S
H449 C435 0.931 . S
Co450 N455 2.057 . S
Co450 O467 2.021 1_454 S
Co450 O470 2.062 1_554 S
Co450 O474 2.117 . S
Co450 O475 2.020 1_455 S
C451 O471 1.259 . S
C451 O474 1.258 . S
Co452 N461 2.057 . S
Co452 O468 2.117 . S
Co452 O469 2.020 1_655 S
Co452 O471 2.021 1_656 S
Co452 O476 2.062 1_556 S
C453 N455 1.316 . S
C453 N456 1.347 . S
C453 H458 0.931 . S
C454 N455 1.375 . S
C454 C457 1.350 . S
C454 H459 0.930 . S
N455 Co450 2.057 . S
N455 C453 1.316 . S
N455 C454 1.375 . S
N456 C453 1.347 . S
N456 C457 1.373 . S
C457 C454 1.350 . S
C457 N456 1.373 . S
C457 H478 0.931 . S
H458 C453 0.931 . S
H459 C454 0.930 . S
C460 O467 1.259 . S
C460 O468 1.258 . S
N461 Co452 2.057 . S
N461 C462 1.316 . S
N461 C463 1.375 . S
C462 N461 1.316 . S
C462 N464 1.347 . S
C462 H473 0.931 . S
C463 N461 1.375 . S
C463 C465 1.350 . S
C463 H472 0.930 . S
N464 C462 1.347 . S
N464 C465 1.373 . S
C465 C463 1.350 . S
C465 N464 1.373 . S
C465 H479 0.931 . S
C466 O469 1.256 . S
C466 O470 1.255 . S
O467 Co450 2.021 1_656 S
O467 C460 1.259 . S
O468 Co452 2.117 . S
O468 C460 1.258 . S
O469 Co452 2.020 1_455 S
O469 C466 1.256 . S
O470 Co450 2.062 1_556 S
O470 C466 1.255 . S
O471 C451 1.259 . S
O471 Co452 2.021 1_454 S
H472 C463 0.930 . S
H473 C462 0.931 . S
O474 Co450 2.117 . S
O474 C451 1.258 . S
O475 Co450 2.020 1_655 S
O475 C477 1.256 . S
O476 Co452 2.062 1_554 S
O476 C477 1.255 . S
C477 O475 1.256 . S
C477 O476 1.255 . S
H478 C457 0.931 . S
H479 C465 0.931 . S
C480 C481 1.369 . S
C480 C482 1.419 . S
C480 H484 0.930 . S
C481 C480 1.369 . S
C481 C490 1.429 . S
C482 C480 1.419 . S
C482 C483 1.363 . S
C482 H485 0.929 . S
C483 C482 1.363 . S
C483 C489 1.428 . S
H484 C480 0.930 . S
H485 C482 0.929 . S
S486 N487 1.613 . S
S486 N488 1.610 . S
N487 S486 1.613 . S
N487 C490 1.350 . S
N488 S486 1.610 . S
N488 C489 1.351 . S
C489 C483 1.428 . S
C489 N488 1.351 . S
C489 C490 1.434 . S
C490 C481 1.429 . S
C490 N487 1.350 . S
C490 C489 1.434 . S
C491 C492 1.369 . S
C491 C493 1.419 . S
C491 H495 0.930 . S
C492 C491 1.369 . S
C492 C501 1.429 . S
C493 C491 1.419 . S
C493 C494 1.363 . S
C493 H496 0.929 . S
C494 C493 1.363 . S
C494 C500 1.428 . S
H495 C491 0.930 . S
H496 C493 0.929 . S
S497 N498 1.613 . S
S497 N499 1.610 . S
N498 S497 1.613 . S
N498 C501 1.350 . S
N499 S497 1.610 . S
N499 C500 1.351 . S
C500 C494 1.428 . S
C500 N499 1.351 . S
C500 C501 1.434 . S
C501 C492 1.429 . S
C501 N498 1.350 . S
C501 C500 1.434 . S
C502 C503 1.369 . S
C502 C504 1.419 . S
C502 H506 0.930 . S
C503 C502 1.369 . S
C503 C512 1.429 . S
C504 C502 1.419 . S
C504 C505 1.363 . S
C504 H507 0.929 . S
C505 C504 1.363 . S
C505 C511 1.428 . S
H506 C502 0.930 . S
H507 C504 0.929 . S
S508 N509 1.613 . S
S508 N510 1.610 . S
N509 S508 1.613 . S
N509 C512 1.350 . S
N510 S508 1.610 . S
N510 C511 1.351 . S
C511 C505 1.428 . S
C511 N510 1.351 . S
C511 C512 1.434 . S
C512 C503 1.429 . S
C512 N509 1.350 . S
C512 C511 1.434 . S
C513 C514 1.369 . S
C513 C515 1.419 . S
C513 H517 0.930 . S
C514 C513 1.369 . S
C514 C523 1.429 . S
C515 C513 1.419 . S
C515 C516 1.363 . S
C515 H518 0.929 . S
C516 C515 1.363 . S
C516 C522 1.428 . S
H517 C513 0.930 . S
H518 C515 0.929 . S
S519 N520 1.613 . S
S519 N521 1.610 . S
N520 S519 1.613 . S
N520 C523 1.350 . S
N521 S519 1.610 . S
N521 C522 1.351 . S
C522 C516 1.428 . S
C522 N521 1.351 . S
C522 C523 1.434 . S
C523 C514 1.429 . S
C523 N520 1.350 . S
C523 C522 1.434 . S
C524 C525 1.369 . S
C524 C526 1.419 . S
C524 H528 0.930 . S
C525 C524 1.369 . S
C525 C534 1.429 . S
C526 C524 1.419 . S
C526 C527 1.363 . S
C526 H529 0.929 . S
C527 C526 1.363 . S
C527 C533 1.428 . S
H528 C524 0.930 . S
H529 C526 0.929 . S
S530 N531 1.613 . S
S530 N532 1.610 1_545 S
N531 S530 1.613 . S
N531 C534 1.350 1_545 S
N532 S530 1.610 1_565 S
N532 C533 1.351 . S
C533 C527 1.428 . S
C533 N532 1.351 . S
C533 C534 1.434 . S
C534 C525 1.429 . S
C534 N531 1.350 1_565 S
C534 C533 1.434 . S
C535 C536 1.369 . S
C535 C537 1.419 . S
C535 H539 0.930 . S
C536 C535 1.369 . S
C536 C545 1.429 . S
C537 C535 1.419 . S
C537 C538 1.363 . S
C537 H540 0.929 . S
C538 C537 1.363 . S
C538 C544 1.428 . S
H539 C535 0.930 . S
H540 C537 0.929 . S
S541 N542 1.613 . S
S541 N543 1.610 . S
N542 S541 1.613 . S
N542 C545 1.350 . S
N543 S541 1.610 . S
N543 C544 1.351 . S
C544 C538 1.428 . S
C544 N543 1.351 . S
C544 C545 1.434 . S
C545 C536 1.429 . S
C545 N542 1.350 . S
C545 C544 1.434 . S
C546 C547 1.369 . S
C546 C548 1.419 . S
C546 H550 0.930 . S
C547 C546 1.369 . S
C547 C556 1.429 . S
C548 C546 1.419 . S
C548 C549 1.363 . S
C548 H551 0.929 . S
C549 C548 1.363 . S
C549 C555 1.428 . S
H550 C546 0.930 . S
H551 C548 0.929 . S
S552 N553 1.613 . S
S552 N554 1.610 . S
N553 S552 1.613 . S
N553 C556 1.350 . S
N554 S552 1.610 . S
N554 C555 1.351 . S
C555 C549 1.428 . S
C555 N554 1.351 . S
C555 C556 1.434 . S
C556 C547 1.429 . S
C556 N553 1.350 . S
C556 C555 1.434 . S
C557 C558 1.369 . S
C557 C559 1.419 . S
C557 H561 0.930 1_545 S
C558 C557 1.369 . S
C558 C567 1.429 . S
C559 C557 1.419 . S
C559 C560 1.363 . S
C559 H562 0.929 . S
C560 C559 1.363 . S
C560 C566 1.428 . S
H561 C557 0.930 1_565 S
H562 C559 0.929 . S
S563 N564 1.613 . S
S563 N565 1.610 . S
N564 S563 1.613 . S
N564 C567 1.350 . S
N565 S563 1.610 . S
N565 C566 1.351 . S
C566 C560 1.428 . S
C566 N565 1.351 . S
C566 C567 1.434 . S
C567 C558 1.429 . S
C567 N564 1.350 . S
C567 C566 1.434 . S
C568 C569 1.369 . S
C568 C570 1.419 . S
C568 H572 0.930 . S
C569 C568 1.369 . S
C569 C578 1.429 . S
C570 C568 1.419 . S
C570 C571 1.363 . S
C570 H573 0.929 . S
C571 C570 1.363 . S
C571 C577 1.428 . S
H572 C568 0.930 . S
H573 C570 0.929 . S
S574 N575 1.613 . S
S574 N576 1.610 . S
N575 S574 1.613 . S
N575 C578 1.350 . S
N576 S574 1.610 . S
N576 C577 1.351 . S
C577 C571 1.428 . S
C577 N576 1.351 . S
C577 C578 1.434 . S
C578 C569 1.429 . S
C578 N575 1.350 . S
C578 C577 1.434 . S
C579 C580 1.369 . S
C579 C581 1.419 . S
C579 H583 0.930 . S
C580 C579 1.369 . S
C580 C589 1.429 . S
C581 C579 1.419 . S
C581 C582 1.363 . S
C581 H584 0.929 . S
C582 C581 1.363 . S
C582 C588 1.428 . S
H583 C579 0.930 . S
H584 C581 0.929 . S
S585 N586 1.613 . S
S585 N587 1.610 . S
N586 S585 1.613 . S
N586 C589 1.350 . S
N587 S585 1.610 . S
N587 C588 1.351 . S
C588 C582 1.428 . S
C588 N587 1.351 . S
C588 C589 1.434 . S
C589 C580 1.429 . S
C589 N586 1.350 . S
C589 C588 1.434 . S
C590 C591 1.369 . S
C590 C592 1.419 . S
C590 H594 0.930 . S
C591 C590 1.369 . S
C591 C600 1.429 . S
C592 C590 1.419 . S
C592 C593 1.363 . S
C592 H595 0.929 . S
C593 C592 1.363 . S
C593 C599 1.428 . S
H594 C590 0.930 . S
H595 C592 0.929 . S
S596 N597 1.613 . S
S596 N598 1.610 . S
N597 S596 1.613 . S
N597 C600 1.350 . S
N598 S596 1.610 . S
N598 C599 1.351 . S
C599 C593 1.428 . S
C599 N598 1.351 . S
C599 C600 1.434 . S
C600 C591 1.429 . S
C600 N597 1.350 . S
C600 C599 1.434 . S
C601 C602 1.369 . S
C601 C603 1.419 . S
C601 H605 0.930 . S
C602 C601 1.369 . S
C602 C611 1.429 . S
C603 C601 1.419 . S
C603 C604 1.363 . S
C603 H606 0.929 . S
C604 C603 1.363 . S
C604 C610 1.428 . S
H605 C601 0.930 . S
H606 C603 0.929 . S
S607 N608 1.613 . S
S607 N609 1.610 . S
N608 S607 1.613 . S
N608 C611 1.350 . S
N609 S607 1.610 . S
N609 C610 1.351 . S
C610 C604 1.428 . S
C610 N609 1.351 . S
C610 C611 1.434 . S
C611 C602 1.429 . S
C611 N608 1.350 . S
C611 C610 1.434 . S
C612 C613 1.369 . S
C612 C614 1.419 . S
C612 H616 0.930 . S
C613 C612 1.369 . S
C613 C622 1.429 . S
C614 C612 1.419 . S
C614 C615 1.363 . S
C614 H617 0.929 . S
C615 C614 1.363 . S
C615 C621 1.428 . S
H616 C612 0.930 . S
H617 C614 0.929 . S
S618 N619 1.613 . S
S618 N620 1.610 . S
N619 S618 1.613 . S
N619 C622 1.350 . S
N620 S618 1.610 . S
N620 C621 1.351 . S
C621 C615 1.428 . S
C621 N620 1.351 . S
C621 C622 1.434 . S
C622 C613 1.429 . S
C622 N619 1.350 . S
C622 C621 1.434 . S
C623 C624 1.369 . S
C623 C625 1.419 . S
C623 H627 0.930 . S
C624 C623 1.369 . S
C624 C633 1.429 . S
C625 C623 1.419 . S
C625 C626 1.363 . S
C625 H628 0.929 . S
C626 C625 1.363 . S
C626 C632 1.428 . S
H627 C623 0.930 . S
H628 C625 0.929 . S
S629 N630 1.613 . S
S629 N631 1.610 . S
N630 S629 1.613 . S
N630 C633 1.350 . S
N631 S629 1.610 . S
N631 C632 1.351 . S
C632 C626 1.428 . S
C632 N631 1.351 . S
C632 C633 1.434 . S
C633 C624 1.429 . S
C633 N630 1.350 . S
C633 C632 1.434 . S
C634 C635 1.369 . S
C634 C636 1.419 . S
C634 H638 0.930 . S
C635 C634 1.369 . S
C635 C644 1.429 . S
C636 C634 1.419 . S
C636 C637 1.363 . S
C636 H639 0.929 . S
C637 C636 1.363 . S
C637 C643 1.428 . S
H638 C634 0.930 . S
H639 C636 0.929 . S
S640 N641 1.613 . S
S640 N642 1.610 . S
N641 S640 1.613 . S
N641 C644 1.350 . S
N642 S640 1.610 . S
N642 C643 1.351 . S
C643 C637 1.428 . S
C643 N642 1.351 . S
C643 C644 1.434 . S
C644 C635 1.429 . S
C644 N641 1.350 . S
C644 C643 1.434 . S
C645 C646 1.369 . S
C645 C647 1.419 . S
C645 H649 0.930 . S
C646 C645 1.369 . S
C646 C655 1.429 . S
C647 C645 1.419 . S
C647 C648 1.363 . S
C647 H650 0.929 . S
C648 C647 1.363 . S
C648 C654 1.428 . S
H649 C645 0.930 . S
H650 C647 0.929 . S
S651 N652 1.613 . S
S651 N653 1.610 . S
N652 S651 1.613 . S
N652 C655 1.350 . S
N653 S651 1.610 . S
N653 C654 1.351 . S
C654 C648 1.428 . S
C654 N653 1.351 . S
C654 C655 1.434 . S
C655 C646 1.429 . S
C655 N652 1.350 . S
C655 C654 1.434 . S
C656 C657 1.369 . S
C656 C658 1.419 . S
C656 H660 0.930 . S
C657 C656 1.369 . S
C657 C666 1.429 . S
C658 C656 1.419 . S
C658 C659 1.363 . S
C658 H661 0.929 . S
C659 C658 1.363 . S
C659 C665 1.428 . S
H660 C656 0.930 . S
H661 C658 0.929 . S
S662 N663 1.613 . S
S662 N664 1.610 . S
N663 S662 1.613 . S
N663 C666 1.350 . S
N664 S662 1.610 . S
N664 C665 1.351 . S
C665 C659 1.428 . S
C665 N664 1.351 . S
C665 C666 1.434 . S
C666 C657 1.429 . S
C666 N663 1.350 . S
C666 C665 1.434 . S
C667 C668 1.369 . S
C667 C669 1.419 . S
C667 H671 0.930 . S
C668 C667 1.369 . S
C668 C677 1.429 . S
C669 C667 1.419 . S
C669 C670 1.363 . S
C669 H672 0.929 . S
C670 C669 1.363 . S
C670 C676 1.428 . S
H671 C667 0.930 . S
H672 C669 0.929 . S
S673 N674 1.613 . S
S673 N675 1.610 . S
N674 S673 1.613 . S
N674 C677 1.350 . S
N675 S673 1.610 . S
N675 C676 1.351 . S
C676 C670 1.428 . S
C676 N675 1.351 . S
C676 C677 1.434 . S
C677 C668 1.429 . S
C677 N674 1.350 . S
C677 C676 1.434 . S
C678 C679 1.369 . S
C678 C680 1.419 . S
C678 H682 0.930 . S
C679 C678 1.369 . S
C679 C688 1.429 . S
C680 C678 1.419 . S
C680 C681 1.363 . S
C680 H683 0.929 . S
C681 C680 1.363 . S
C681 C687 1.428 . S
H682 C678 0.930 . S
H683 C680 0.929 . S
S684 N685 1.613 . S
S684 N686 1.610 . S
N685 S684 1.613 . S
N685 C688 1.350 . S
N686 S684 1.610 . S
N686 C687 1.351 . S
C687 C681 1.428 . S
C687 N686 1.351 . S
C687 C688 1.434 . S
C688 C679 1.429 . S
C688 N685 1.350 . S
C688 C687 1.434 . S
C689 C690 1.369 . S
C689 C691 1.419 . S
C689 H693 0.930 . S
C690 C689 1.369 . S
C690 C699 1.429 . S
C691 C689 1.419 . S
C691 C692 1.363 . S
C691 H694 0.929 . S
C692 C691 1.363 . S
C692 C698 1.428 . S
H693 C689 0.930 . S
H694 C691 0.929 . S
S695 N696 1.613 . S
S695 N697 1.610 . S
N696 S695 1.613 . S
N696 C699 1.350 . S
N697 S695 1.610 . S
N697 C698 1.351 . S
C698 C692 1.428 . S
C698 N697 1.351 . S
C698 C699 1.434 . S
C699 C690 1.429 . S
C699 N696 1.350 . S
C699 C698 1.434 . S
C700 C701 1.369 . S
C700 C702 1.419 . S
C700 H704 0.930 . S
C701 C700 1.369 . S
C701 C710 1.429 . S
C702 C700 1.419 . S
C702 C703 1.363 . S
C702 H705 0.929 . S
C703 C702 1.363 . S
C703 C709 1.428 . S
H704 C700 0.930 . S
H705 C702 0.929 . S
S706 N707 1.613 . S
S706 N708 1.610 . S
N707 S706 1.613 . S
N707 C710 1.350 . S
N708 S706 1.610 . S
N708 C709 1.351 . S
C709 C703 1.428 . S
C709 N708 1.351 . S
C709 C710 1.434 . S
C710 C701 1.429 . S
C710 N707 1.350 . S
C710 C709 1.434 . S
C711 C712 1.369 . S
C711 C713 1.419 . S
C711 H715 0.930 . S
C712 C711 1.369 . S
C712 C721 1.429 . S
C713 C711 1.419 . S
C713 C714 1.363 . S
C713 H716 0.929 . S
C714 C713 1.363 . S
C714 C720 1.428 . S
H715 C711 0.930 . S
H716 C713 0.929 . S
S717 N718 1.613 . S
S717 N719 1.610 . S
N718 S717 1.613 . S
N718 C721 1.350 . S
N719 S717 1.610 . S
N719 C720 1.351 . S
C720 C714 1.428 . S
C720 N719 1.351 . S
C720 C721 1.434 . S
C721 C712 1.429 . S
C721 N718 1.350 . S
C721 C720 1.434 . S
C722 C723 1.369 . S
C722 C724 1.419 . S
C722 H726 0.930 . S
C723 C722 1.369 . S
C723 C732 1.429 . S
C724 C722 1.419 . S
C724 C725 1.363 . S
C724 H727 0.929 . S
C725 C724 1.363 . S
C725 C731 1.428 . S
H726 C722 0.930 . S
H727 C724 0.929 . S
S728 N729 1.613 . S
S728 N730 1.610 . S
N729 S728 1.613 . S
N729 C732 1.350 . S
N730 S728 1.610 . S
N730 C731 1.351 . S
C731 C725 1.428 . S
C731 N730 1.351 . S
C731 C732 1.434 . S
C732 C723 1.429 . S
C732 N729 1.350 . S
C732 C731 1.434 . S
C733 C734 1.369 . S
C733 C735 1.419 . S
C733 H737 0.930 . S
C734 C733 1.369 . S
C734 C743 1.429 . S
C735 C733 1.419 . S
C735 C736 1.363 . S
C735 H738 0.929 . S
C736 C735 1.363 . S
C736 C742 1.428 . S
H737 C733 0.930 . S
H738 C735 0.929 . S
S739 N740 1.613 . S
S739 N741 1.610 . S
N740 S739 1.613 . S
N740 C743 1.350 . S
N741 S739 1.610 . S
N741 C742 1.351 . S
C742 C736 1.428 . S
C742 N741 1.351 . S
C742 C743 1.434 . S
C743 C734 1.429 . S
C743 N740 1.350 . S
C743 C742 1.434 . S
C744 C745 1.369 . S
C744 C746 1.419 . S
C744 H748 0.930 . S
C745 C744 1.369 . S
C745 C754 1.429 . S
C746 C744 1.419 . S
C746 C747 1.363 . S
C746 H749 0.929 . S
C747 C746 1.363 . S
C747 C753 1.428 . S
H748 C744 0.930 . S
H749 C746 0.929 . S
S750 N751 1.613 . S
S750 N752 1.610 . S
N751 S750 1.613 . S
N751 C754 1.350 . S
N752 S750 1.610 . S
N752 C753 1.351 . S
C753 C747 1.428 . S
C753 N752 1.351 . S
C753 C754 1.434 . S
C754 C745 1.429 . S
C754 N751 1.350 . S
C754 C753 1.434 . S
C755 C756 1.369 . S
C755 C757 1.419 . S
C755 H759 0.930 . S
C756 C755 1.369 . S
C756 C765 1.429 . S
C757 C755 1.419 . S
C757 C758 1.363 . S
C757 H760 0.929 . S
C758 C757 1.363 . S
C758 C764 1.428 . S
H759 C755 0.930 . S
H760 C757 0.929 . S
S761 N762 1.613 . S
S761 N763 1.610 . S
N762 S761 1.613 . S
N762 C765 1.350 . S
N763 S761 1.610 . S
N763 C764 1.351 . S
C764 C758 1.428 . S
C764 N763 1.351 . S
C764 C765 1.434 . S
C765 C756 1.429 . S
C765 N762 1.350 . S
C765 C764 1.434 . S
C766 C767 1.369 . S
C766 C768 1.419 . S
C766 H770 0.930 . S
C767 C766 1.369 . S
C767 C776 1.429 . S
C768 C766 1.419 . S
C768 C769 1.363 . S
C768 H771 0.929 . S
C769 C768 1.363 . S
C769 C775 1.428 . S
H770 C766 0.930 . S
H771 C768 0.929 . S
S772 N773 1.613 . S
S772 N774 1.610 . S
N773 S772 1.613 . S
N773 C776 1.350 . S
N774 S772 1.610 . S
N774 C775 1.351 . S
C775 C769 1.428 . S
C775 N774 1.351 . S
C775 C776 1.434 . S
C776 C767 1.429 . S
C776 N773 1.350 . S
C776 C775 1.434 . S
C777 C778 1.369 . S
C777 C779 1.419 . S
C777 H781 0.930 . S
C778 C777 1.369 . S
C778 C787 1.429 . S
C779 C777 1.419 . S
C779 C780 1.363 . S
C779 H782 0.929 . S
C780 C779 1.363 . S
C780 C786 1.428 . S
H781 C777 0.930 . S
H782 C779 0.929 . S
S783 N784 1.613 . S
S783 N785 1.610 . S
N784 S783 1.613 . S
N784 C787 1.350 . S
N785 S783 1.610 . S
N785 C786 1.351 . S
C786 C780 1.428 . S
C786 N785 1.351 . S
C786 C787 1.434 . S
C787 C778 1.429 . S
C787 N784 1.350 . S
C787 C786 1.434 . S
C788 C789 1.369 . S
C788 C790 1.419 . S
C788 H792 0.930 . S
C789 C788 1.369 . S
C789 C798 1.429 . S
C790 C788 1.419 . S
C790 C791 1.363 . S
C790 H793 0.929 . S
C791 C790 1.363 . S
C791 C797 1.428 . S
H792 C788 0.930 . S
H793 C790 0.929 . S
S794 N795 1.613 . S
S794 N796 1.610 . S
N795 S794 1.613 . S
N795 C798 1.350 . S
N796 S794 1.610 . S
N796 C797 1.351 . S
C797 C791 1.428 . S
C797 N796 1.351 . S
C797 C798 1.434 . S
C798 C789 1.429 . S
C798 N795 1.350 . S
C798 C797 1.434 . S
C799 C800 1.369 . S
C799 C801 1.419 . S
C799 H803 0.930 . S
C800 C799 1.369 . S
C800 C809 1.429 . S
C801 C799 1.419 . S
C801 C802 1.363 . S
C801 H804 0.929 . S
C802 C801 1.363 . S
C802 C808 1.428 . S
H803 C799 0.930 . S
H804 C801 0.929 . S
S805 N806 1.613 . S
S805 N807 1.610 . S
N806 S805 1.613 . S
N806 C809 1.350 . S
N807 S805 1.610 . S
N807 C808 1.351 . S
C808 C802 1.428 . S
C808 N807 1.351 . S
C808 C809 1.434 . S
C809 C800 1.429 . S
C809 N806 1.350 . S
C809 C808 1.434 . S
C810 C811 1.369 . S
C810 C812 1.419 . S
C810 H814 0.930 . S
C811 C810 1.369 . S
C811 C820 1.429 . S
C812 C810 1.419 . S
C812 C813 1.363 . S
C812 H815 0.929 . S
C813 C812 1.363 . S
C813 C819 1.428 . S
H814 C810 0.930 . S
H815 C812 0.929 . S
S816 N817 1.613 . S
S816 N818 1.610 . S
N817 S816 1.613 . S
N817 C820 1.350 . S
N818 S816 1.610 . S
N818 C819 1.351 . S
C819 C813 1.428 . S
C819 N818 1.351 . S
C819 C820 1.434 . S
C820 C811 1.429 . S
C820 N817 1.350 . S
C820 C819 1.434 . S
C821 C822 1.369 . S
C821 C823 1.419 . S
C821 H825 0.930 . S
C822 C821 1.369 . S
C822 C831 1.429 . S
C823 C821 1.419 . S
C823 C824 1.363 . S
C823 H826 0.929 . S
C824 C823 1.363 . S
C824 C830 1.428 . S
H825 C821 0.930 . S
H826 C823 0.929 . S
S827 N828 1.613 . S
S827 N829 1.610 . S
N828 S827 1.613 . S
N828 C831 1.350 . S
N829 S827 1.610 . S
N829 C830 1.351 . S
C830 C824 1.428 . S
C830 N829 1.351 . S
C830 C831 1.434 . S
C831 C822 1.429 . S
C831 N828 1.350 . S
C831 C830 1.434 . S
C832 C833 1.369 . S
C832 C834 1.419 . S
C832 H836 0.930 . S
C833 C832 1.369 . S
C833 C842 1.429 . S
C834 C832 1.419 . S
C834 C835 1.363 . S
C834 H837 0.929 . S
C835 C834 1.363 . S
C835 C841 1.428 . S
H836 C832 0.930 . S
H837 C834 0.929 . S
S838 N839 1.613 . S
S838 N840 1.610 . S
N839 S838 1.613 . S
N839 C842 1.350 . S
N840 S838 1.610 . S
N840 C841 1.351 . S
C841 C835 1.428 . S
C841 N840 1.351 . S
C841 C842 1.434 . S
C842 C833 1.429 . S
C842 N839 1.350 . S
C842 C841 1.434 . S
C843 C844 1.369 . S
C843 C845 1.419 . S
C843 H847 0.930 . S
C844 C843 1.369 . S
C844 C853 1.429 . S
C845 C843 1.419 . S
C845 C846 1.363 . S
C845 H848 0.929 . S
C846 C845 1.363 . S
C846 C852 1.428 . S
H847 C843 0.930 . S
H848 C845 0.929 . S
S849 N850 1.613 . S
S849 N851 1.610 . S
N850 S849 1.613 . S
N850 C853 1.350 . S
N851 S849 1.610 . S
N851 C852 1.351 . S
C852 C846 1.428 . S
C852 N851 1.351 . S
C852 C853 1.434 . S
C853 C844 1.429 . S
C853 N850 1.350 . S
C853 C852 1.434 . S
C854 C855 1.369 . S
C854 C856 1.419 . S
C854 H858 0.930 . S
C855 C854 1.369 . S
C855 C864 1.429 . S
C856 C854 1.419 . S
C856 C857 1.363 . S
C856 H859 0.929 . S
C857 C856 1.363 . S
C857 C863 1.428 . S
H858 C854 0.930 . S
H859 C856 0.929 . S
S860 N861 1.613 . S
S860 N862 1.610 . S
N861 S860 1.613 . S
N861 C864 1.350 . S
N862 S860 1.610 . S
N862 C863 1.351 . S
C863 C857 1.428 . S
C863 N862 1.351 . S
C863 C864 1.434 . S
C864 C855 1.429 . S
C864 N861 1.350 . S
C864 C863 1.434 . S
C865 C866 1.369 . S
C865 C867 1.419 . S
C865 H869 0.930 . S
C866 C865 1.369 . S
C866 C875 1.429 . S
C867 C865 1.419 . S
C867 C868 1.363 . S
C867 H870 0.929 . S
C868 C867 1.363 . S
C868 C874 1.428 . S
H869 C865 0.930 . S
H870 C867 0.929 . S
S871 N872 1.613 . S
S871 N873 1.610 . S
N872 S871 1.613 . S
N872 C875 1.350 . S
N873 S871 1.610 . S
N873 C874 1.351 . S
C874 C868 1.428 . S
C874 N873 1.351 . S
C874 C875 1.434 . S
C875 C866 1.429 . S
C875 N872 1.350 . S
C875 C874 1.434 . S
C876 C877 1.369 . S
C876 C878 1.419 . S
C876 H880 0.930 . S
C877 C876 1.369 . S
C877 C886 1.429 . S
C878 C876 1.419 . S
C878 C879 1.363 . S
C878 H881 0.929 . S
C879 C878 1.363 . S
C879 C885 1.428 . S
H880 C876 0.930 . S
H881 C878 0.929 . S
S882 N883 1.613 . S
S882 N884 1.610 . S
N883 S882 1.613 . S
N883 C886 1.350 . S
N884 S882 1.610 . S
N884 C885 1.351 . S
C885 C879 1.428 . S
C885 N884 1.351 . S
C885 C886 1.434 . S
C886 C877 1.429 . S
C886 N883 1.350 . S
C886 C885 1.434 . S
C887 C888 1.369 . S
C887 C889 1.419 . S
C887 H891 0.930 . S
C888 C887 1.369 . S
C888 C897 1.429 . S
C889 C887 1.419 . S
C889 C890 1.363 . S
C889 H892 0.929 . S
C890 C889 1.363 . S
C890 C896 1.428 . S
H891 C887 0.930 . S
H892 C889 0.929 . S
S893 N894 1.613 . S
S893 N895 1.610 . S
N894 S893 1.613 . S
N894 C897 1.350 . S
N895 S893 1.610 . S
N895 C896 1.351 . S
C896 C890 1.428 . S
C896 N895 1.351 . S
C896 C897 1.434 . S
C897 C888 1.429 . S
C897 N894 1.350 . S
C897 C896 1.434 . S
C898 C899 1.369 . S
C898 C900 1.419 . S
C898 H902 0.930 . S
C899 C898 1.369 . S
C899 C908 1.429 . S
C900 C898 1.419 . S
C900 C901 1.363 . S
C900 H903 0.929 . S
C901 C900 1.363 . S
C901 C907 1.428 . S
H902 C898 0.930 . S
H903 C900 0.929 . S
S904 N905 1.613 . S
S904 N906 1.610 . S
N905 S904 1.613 . S
N905 C908 1.350 . S
N906 S904 1.610 . S
N906 C907 1.351 . S
C907 C901 1.428 . S
C907 N906 1.351 . S
C907 C908 1.434 . S
C908 C899 1.429 . S
C908 N905 1.350 . S
C908 C907 1.434 . S
C909 C910 1.369 . S
C909 C911 1.419 . S
C909 H913 0.930 . S
C910 C909 1.369 . S
C910 C919 1.429 . S
C911 C909 1.419 . S
C911 C912 1.363 . S
C911 H914 0.929 . S
C912 C911 1.363 . S
C912 C918 1.428 . S
H913 C909 0.930 . S
H914 C911 0.929 . S
S915 N916 1.613 . S
S915 N917 1.610 . S
N916 S915 1.613 . S
N916 C919 1.350 . S
N917 S915 1.610 . S
N917 C918 1.351 . S
C918 C912 1.428 . S
C918 N917 1.351 . S
C918 C919 1.434 . S
C919 C910 1.429 . S
C919 N916 1.350 . S
C919 C918 1.434 . S
C920 C921 1.369 . S
C920 C922 1.419 . S
C920 H924 0.930 . S
C921 C920 1.369 . S
C921 C930 1.429 . S
C922 C920 1.419 . S
C922 C923 1.363 . S
C922 H925 0.929 . S
C923 C922 1.363 . S
C923 C929 1.428 . S
H924 C920 0.930 . S
H925 C922 0.929 . S
S926 N927 1.613 . S
S926 N928 1.610 . S
N927 S926 1.613 . S
N927 C930 1.350 . S
N928 S926 1.610 . S
N928 C929 1.351 . S
C929 C923 1.428 . S
C929 N928 1.351 . S
C929 C930 1.434 . S
C930 C921 1.429 . S
C930 N927 1.350 . S
C930 C929 1.434 . S
C931 C932 1.369 . S
C931 C933 1.419 . S
C931 H935 0.930 . S
C932 C931 1.369 . S
C932 C941 1.429 . S
C933 C931 1.419 . S
C933 C934 1.363 . S
C933 H936 0.929 . S
C934 C933 1.363 . S
C934 C940 1.428 . S
H935 C931 0.930 . S
H936 C933 0.929 . S
S937 N938 1.613 . S
S937 N939 1.610 . S
N938 S937 1.613 . S
N938 C941 1.350 . S
N939 S937 1.610 . S
N939 C940 1.351 . S
C940 C934 1.428 . S
C940 N939 1.351 . S
C940 C941 1.434 . S
C941 C932 1.429 . S
C941 N938 1.350 . S
C941 C940 1.434 . S
C942 C943 1.369 . S
C942 C944 1.419 . S
C942 H946 0.930 . S
C943 C942 1.369 . S
C943 C952 1.429 . S
C944 C942 1.419 . S
C944 C945 1.363 . S
C944 H947 0.929 . S
C945 C944 1.363 . S
C945 C951 1.428 . S
H946 C942 0.930 . S
H947 C944 0.929 . S
S948 N949 1.613 . S
S948 N950 1.610 . S
N949 S948 1.613 . S
N949 C952 1.350 . S
N950 S948 1.610 . S
N950 C951 1.351 . S
C951 C945 1.428 . S
C951 N950 1.351 . S
C951 C952 1.434 . S
C952 C943 1.429 . S
C952 N949 1.350 . S
C952 C951 1.434 . S
C953 C954 1.369 . S
C953 C955 1.419 . S
C953 H957 0.930 . S
C954 C953 1.369 . S
C954 C963 1.429 . S
C955 C953 1.419 . S
C955 C956 1.363 . S
C955 H958 0.929 . S
C956 C955 1.363 . S
C956 C962 1.428 . S
H957 C953 0.930 . S
H958 C955 0.929 . S
S959 N960 1.613 . S
S959 N961 1.610 . S
N960 S959 1.613 . S
N960 C963 1.350 . S
N961 S959 1.610 . S
N961 C962 1.351 . S
C962 C956 1.428 . S
C962 N961 1.351 . S
C962 C963 1.434 . S
C963 C954 1.429 . S
C963 N960 1.350 . S
C963 C962 1.434 . S
C964 C965 1.369 . S
C964 C966 1.419 . S
C964 H968 0.930 . S
C965 C964 1.369 . S
C965 C974 1.429 . S
C966 C964 1.419 . S
C966 C967 1.363 . S
C966 H969 0.929 . S
C967 C966 1.363 . S
C967 C973 1.428 . S
H968 C964 0.930 . S
H969 C966 0.929 . S
S970 N971 1.613 . S
S970 N972 1.610 . S
N971 S970 1.613 . S
N971 C974 1.350 . S
N972 S970 1.610 . S
N972 C973 1.351 . S
C973 C967 1.428 . S
C973 N972 1.351 . S
C973 C974 1.434 . S
C974 C965 1.429 . S
C974 N971 1.350 . S
C974 C973 1.434 . S
C975 C976 1.369 . S
C975 C977 1.419 . S
C975 H979 0.930 . S
C976 C975 1.369 . S
C976 C985 1.429 . S
C977 C975 1.419 . S
C977 C978 1.363 . S
C977 H980 0.929 . S
C978 C977 1.363 . S
C978 C984 1.428 . S
H979 C975 0.930 . S
H980 C977 0.929 . S
S981 N982 1.613 . S
S981 N983 1.610 . S
N982 S981 1.613 . S
N982 C985 1.350 . S
N983 S981 1.610 . S
N983 C984 1.351 . S
C984 C978 1.428 . S
C984 N983 1.351 . S
C984 C985 1.434 . S
C985 C976 1.429 . S
C985 N982 1.350 . S
C985 C984 1.434 . S
C986 C987 1.369 . S
C986 C988 1.419 . S
C986 H990 0.930 . S
C987 C986 1.369 . S
C987 C996 1.429 . S
C988 C986 1.419 . S
C988 C989 1.363 . S
C988 H991 0.929 . S
C989 C988 1.363 . S
C989 C995 1.428 . S
H990 C986 0.930 . S
H991 C988 0.929 . S
S992 N993 1.613 1_655 S
S992 N994 1.610 1_655 S
N993 S992 1.613 1_455 S
N993 C996 1.350 . S
N994 S992 1.610 1_455 S
N994 C995 1.351 . S
C995 C989 1.428 . S
C995 N994 1.351 . S
C995 C996 1.434 . S
C996 C987 1.429 . S
C996 N993 1.350 . S
C996 C995 1.434 . S
C997 C998 1.369 . S
C997 C999 1.419 . S
C997 H1001 0.930 . S
C998 C997 1.369 . S
C998 C1007 1.429 . S
C999 C997 1.419 . S
C999 C1000 1.363 . S
C999 H1002 0.929 . S
C1000 C999 1.363 . S
C1000 C1006 1.428 . S
H1001 C997 0.930 . S
H1002 C999 0.929 . S
S1003 N1004 1.613 . S
S1003 N1005 1.610 . S
N1004 S1003 1.613 . S
N1004 C1007 1.350 . S
N1005 S1003 1.610 . S
N1005 C1006 1.351 . S
C1006 C1000 1.428 . S
C1006 N1005 1.351 . S
C1006 C1007 1.434 . S
C1007 C998 1.429 . S
C1007 N1004 1.350 . S
C1007 C1006 1.434 . S
C481 C106 1.824 . S
C483 N14 1.640 . S
C492 C16 2.375 . S
C494 C46 2.396 . S
C503 C70 1.309 . S
C505 C31 1.304 . S
C514 N104 0.894 . S
C516 C87 0.933 . S
C525 C147 0.953 . S
C527 N164 0.926 . S
C536 C151 1.313 . S
C538 C190 1.319 . S
C547 N186 0.928 . S
C549 C220 0.938 . S
C558 N126 0.528 . S
C560 N216 0.579 . S
C569 C286 2.268 . S
C571 C1 2.256 . S
C580 C327 1.747 . S
C582 N44 1.616 . S
C591 N66 0.959 . S
C593 C417 0.961 . S
C602 C250 1.351 . S
C604 C91 1.348 . S
C613 C331 1.343 . S
C615 C130 1.356 . S
C624 C421 2.257 . S
C626 C166 2.270 . S
C635 C207 1.744 . S
C637 N374 1.619 . S
C646 N456 0.960 . S
C648 C237 0.964 . S
C657 N246 0.540 . S
C659 N396 0.602 . S
C668 N284 0.926 . S
C670 C267 0.954 . S
C679 C310 1.317 . S
C681 C271 1.316 . S
C690 N434 1.651 . S
C692 C346 1.820 . S
C701 C361 1.303 . S
C703 C460 1.312 . S
C712 C357 1.820 . S
C714 N6 1.651 . S
C723 C387 2.395 . S
C725 C27 2.378 . S
C734 C370 1.306 . S
C736 C61 1.306 . S
C745 C76 0.935 . S
C747 N336 0.891 . S
C756 N276 0.923 . S
C758 C136 0.954 . S
C767 C280 1.314 . S
C769 C181 1.314 . S
C778 C391 0.949 . S
C780 N194 0.921 . S
C789 N134 0.528 . S
C791 N404 0.588 . S
C800 C177 2.270 . S
C802 C10 2.259 . S
C811 C316 1.749 . S
C813 N366 1.613 . S
C822 N74 0.964 . S
C824 C226 0.961 . S
C833 C241 1.353 . S
C835 C340 1.343 . S
C844 C100 1.345 . S
C846 C121 1.347 . S
C855 C297 2.269 . S
C857 C430 2.258 . S
C866 C196 1.750 . S
C868 N36 1.610 . S
C877 N464 0.951 . S
C879 C406 0.964 . S
C888 N254 0.548 . S
C890 N224 0.603 . S
C899 C256 0.956 . S
C901 N156 0.918 . S
C910 C301 1.316 . S
C912 C160 1.314 . S
C921 C117 1.819 . S
C923 N426 1.647 . S
C932 C40 1.301 . S
C934 C451 1.306 . S
C943 C376 2.397 . S
C945 C436 2.376 . S
C954 N344 0.875 . S
C956 C477 0.944 . S
C965 N306 0.932 . S
C967 C400 0.947 . S
C976 C447 2.373 . S
C978 C57 2.395 . S
C987 N96 0.890 . S
C989 C466 0.937 . S
C998 C211 0.939 . S
C1000 N314 0.924 . S
