# Generated by pormake.
# Topology kag, (6)-cn, num edge types: 1
# Building blocks:
#     Node 0, Type 0, BuildingBlock: NUHQIS_clean_sbu_0, # of connection points: 6
#     Node 1, Type 0, BuildingBlock: NUHQIS_clean_sbu_0, # of connection points: 6
#     Node 2, Type 0, BuildingBlock: NUHQIS_clean_sbu_0, # of connection points: 6
#     Edge 3, Type (0, 0), BuildingBlock: FUNLAD_clean_linker_1, # of connection points: 2
#     Edge 4, Type (0, 0), BuildingBlock: FUNLAD_clean_linker_1, # of connection points: 2
#     Edge 5, Type (0, 0), BuildingBlock: FUNLAD_clean_linker_1, # of connection points: 2
#     Edge 6, Type (0, 0), BuildingBlock: FUNLAD_clean_linker_1, # of connection points: 2
#     Edge 7, Type (0, 0), BuildingBlock: FUNLAD_clean_linker_1, # of connection points: 2
#     Edge 8, Type (0, 0), BuildingBlock: FUNLAD_clean_linker_1, # of connection points: 2
#     Edge 9, Type (0, 0), BuildingBlock: FUNLAD_clean_linker_1, # of connection points: 2
#     Edge 10, Type (0, 0), BuildingBlock: FUNLAD_clean_linker_1, # of connection points: 2
#     Edge 11, Type (0, 0), BuildingBlock: FUNLAD_clean_linker_1, # of connection points: 2
# Relax obj value: 0.074
# Max RMSD: 0.187
# Mean RMSD: 0.108
data_MOF--net-kag--node1-NUHQIS_clean_sbu_0--edge1-FUNLAD_clean_linker_1
_symmetry_space_group_name_H-M    P1
_symmetry_Int_Tables_number       1
_symmetry_cell_setting            triclinic
loop_
_symmetry_equiv_pos_as_xyz
'x, y, z'
_cell_length_a     50.838019
_cell_length_b     33.556337
_cell_length_c     15.815191
_cell_angle_alpha  87.991628
_cell_angle_beta   96.077382
_cell_angle_gamma 121.65302
loop_
_atom_site_label
_atom_site_type_symbol
_atom_site_fract_x
_atom_site_fract_y
_atom_site_fract_z
_atom_type_partial_charge
Tb0 Tb 0.04186 0.4863 0.99155 0.0
Eu1 Eu 1.02194 0.56285 0.00342 0.0
C2 C 0.03571 0.51786 0.16986 0.0
C3 C 0.9704 0.45084 0.98785 0.0
C4 C 0.09812 0.45041 0.98789 0.0
C5 C 0.14265 0.45567 0.07254 0.0
C6 C 0.11138 0.44183 0.0633 0.0
C7 C 0.11703 0.47412 0.92244 0.0
C8 C 0.14836 0.48788 0.93158 0.0
C9 C 0.16139 0.47806 0.00644 0.0
C10 C 0.06515 0.43677 0.98061 0.0
O11 O 0.04718 0.52112 0.86918 0.0
O12 O 1.0071 0.53242 0.8705 0.0
O13 O 0.07375 0.60561 0.9835 0.0
O14 O 0.08417 0.55054 0.0371 0.0
C15 C 1.02568 0.52692 0.82817 0.0
O16 O 1.01101 0.61303 0.94381 0.0
O17 O 1.00685 0.59887 0.07818 0.0
O18 O 0.03915 0.55644 0.13685 0.0
O19 O 0.0307 0.48282 0.12219 0.0
O20 O 0.99126 0.44252 0.9646 0.0
O21 O 0.97811 0.49236 0.01648 0.0
C22 C 0.09376 0.59318 0.01184 0.0
O23 O 0.05535 0.44176 0.04982 0.0
O24 O 0.05509 0.4512 0.91462 0.0
C25 C 0.968 0.60733 0.00064 0.0
C26 C 0.90789 0.5927 0.98729 0.0
C27 C 0.93221 0.63234 0.9523 0.0
C28 C 0.96197 0.63947 0.95852 0.0
C29 C 0.94345 0.5666 0.03308 0.0
C30 C 0.91361 0.55938 0.02672 0.0
C31 C 0.99998 0.61705 0.01174 0.0
H32 H 0.15207 0.44801 0.13121 0.0
H33 H 0.09754 0.42436 0.11541 0.0
H34 H 0.10773 0.48221 0.8641 0.0
H35 H 0.16199 0.50611 0.87973 0.0
H36 H 0.92825 0.65826 0.92102 0.0
H37 H 0.98045 0.67061 0.93194 0.0
H38 H 0.94745 0.54089 0.06515 0.0
H39 H 0.89553 0.52875 0.05547 0.0
Tb40 Tb 0.57055 0.06752 -0.00675 0.0
Eu41 Eu 0.49251 0.99358 -0.0054 0.0
C42 C 0.53887 0.03445 0.16274 0.0
C43 C 0.53967 0.95281 0.99177 0.0
C44 C 0.66109 0.15837 -0.00689 0.0
C45 C 0.71579 0.20531 0.04942 0.0
C46 C 0.68484 0.17092 0.05973 0.0
C47 C 0.66894 0.18145 0.91559 0.0
C48 C 0.69999 0.21624 0.90531 0.0
C49 C 0.72402 0.22829 0.97157 0.0
C50 C 0.62944 0.11803 0.00499 0.0
O51 O 0.55276 0.06153 0.85979 0.0
O52 O 0.50215 0.99824 0.85809 0.0
O53 O 0.50007 0.06739 0.98574 0.0
O54 O 0.55369 0.11748 -0.00201 0.0
C55 C 0.52616 1.02928 0.81955 0.0
O56 O 0.44448 0.96445 0.93655 0.0
O57 O 0.45325 0.93947 0.05991 0.0
O58 O 0.51249 1.02714 0.12483 0.0
O59 O 0.56051 0.0381 0.11915 0.0
O60 O 0.56341 0.99627 0.98413 0.0
O61 O 0.51151 0.94415 0.00061 0.0
C62 C 0.52513 0.11035 0.99137 0.0
O63 O 0.61275 0.12048 0.0595 0.0
O64 O 0.61242 0.08915 0.94151 0.0
C65 C 0.39849 0.90351 0.00172 0.0
C66 C 0.33327 0.84361 0.00724 0.0
C67 C 0.34583 0.85837 0.929 0.0
C68 C 0.37807 0.88833 0.92632 0.0
C69 C 0.38589 0.88752 0.07972 0.0
C70 C 0.35363 0.85847 0.08245 0.0
C71 C 0.43263 0.93621 -0.00078 0.0
H72 H 0.73299 0.21378 0.10321 0.0
H73 H 0.67951 0.15336 0.11993 0.0
H74 H 0.6512 0.17223 0.86273 0.0
H75 H 0.70531 0.23332 0.84473 0.0
H76 H 0.33062 0.848 0.87015 0.0
H77 H 0.38701 0.89988 0.86519 0.0
H78 H 0.40092 0.89844 0.13892 0.0
H79 H 0.34452 0.84791 0.14358 0.0
Tb80 Tb 0.49727 0.50073 -0.00058 0.0
Eu81 Eu 0.57125 0.56638 -0.00321 0.0
C82 C 0.52578 0.52911 0.82268 0.0
C83 C 0.53561 0.44907 -0.00229 0.0
C84 C 0.4156 0.47001 -0.00097 0.0
C85 C 0.37541 0.47235 0.90507 0.0
C86 C 0.39992 0.46446 0.91757 0.0
C87 C 0.40691 0.48499 0.06693 0.0
C88 C 0.38248 0.49287 0.05452 0.0
C89 C 0.36609 0.48595 0.97349 0.0
C90 C 0.44006 0.45863 0.01535 0.0
O91 O 0.51886 0.50111 0.12615 0.0
O92 O 0.5595 0.57542 0.12467 0.0
O93 O 0.55809 0.62241 0.98139 0.0
O94 O 0.50659 0.57379 0.00293 0.0
C95 C 0.54008 0.53981 0.16688 0.0
O96 O 0.6153 0.59018 0.0726 0.0
O97 O 0.61484 0.61183 0.94157 0.0
O98 O 0.55351 0.54244 0.86031 0.0
O99 O 0.50228 0.51828 0.86576 0.0
O100 O 0.50804 0.44484 0.98405 0.0
O101 O 0.56107 0.49106 0.01132 0.0
C102 C 0.53076 0.6164 0.99158 0.0
O103 O 0.45128 0.45235 0.94997 0.0
O104 O 0.46181 0.48324 0.07595 0.0
C105 C 0.65438 0.59736 -0.00362 0.0
C106 C 0.69779 0.5706 0.98134 0.0
C107 C 0.70057 0.59727 0.05238 0.0
C108 C 0.67921 0.61072 0.05923 0.0
C109 C 0.65072 0.56937 0.92682 0.0
C110 C 0.67239 0.55632 0.91926 0.0
C111 C 0.63156 0.61024 0.00884 0.0
H112 H 0.36321 0.46674 0.84201 0.0
H113 H 0.40612 0.45311 0.86381 0.0
H114 H 0.41852 0.48953 0.13054 0.0
H115 H 0.37606 0.50259 0.10966 0.0
H116 H 0.71882 0.60768 0.10382 0.0
H117 H 0.68186 0.63115 0.11459 0.0
H118 H 0.63114 0.55745 0.87867 0.0
H119 H 0.66935 0.53518 0.86458 0.0
H120 H 1.00248 0.52946 0.70372 0.0
C121 C 1.02238 0.52859 0.7341 0.0
H122 H 0.06243 0.52751 0.71459 0.0
H123 H 1.00671 0.43717 0.34315 0.0
H124 H 1.00465 0.37223 0.42018 0.0
H125 H 1.01833 0.3781 0.57544 0.0
H126 H 0.03333 0.44862 0.6547 0.0
C127 C 0.04276 0.5293 0.68533 0.0
C128 C 0.03765 0.52827 0.59016 0.0
C129 C 0.03048 0.48776 0.54381 0.0
C130 C 1.02424 0.48534 0.45342 0.0
C131 C 1.01401 0.44247 0.41056 0.0
C132 C 1.01219 0.40449 0.45432 0.0
C133 C 1.01977 0.40772 0.54175 0.0
C134 C 1.02848 0.44855 0.58641 0.0
H135 H 0.054 0.50274 0.29146 0.0
C136 C 0.03881 0.5144 0.26328 0.0
H137 H 1.00749 0.53515 0.28271 0.0
H138 H 0.05225 0.61218 0.6584 0.0
H139 H 0.05495 0.67775 0.58164 0.0
H140 H 0.04579 0.67479 0.42516 0.0
H141 H 0.034 0.60658 0.34454 0.0
C142 C 1.023 0.52449 0.3129 0.0
C143 C 1.02735 0.52485 0.40845 0.0
C144 C 0.03445 0.56541 0.45511 0.0
C145 C 0.03958 0.56709 0.54576 0.0
C146 C 0.04731 0.60845 0.58998 0.0
C147 C 0.04921 0.64657 0.54665 0.0
C148 C 0.04408 0.64492 0.45856 0.0
C149 C 0.0371 0.6052 0.41301 0.0
H150 H 0.56565 0.03924 0.28527 0.0
C151 C 0.54437 0.03662 0.25662 0.0
H152 H 0.50277 0.03218 0.27982 0.0
H153 H 0.50234 0.94892 0.64649 0.0
H154 H 0.4595 0.8814 0.56829 0.0
H155 H 0.4481 0.884 0.41339 0.0
H156 H 0.48 0.9539 0.33568 0.0
C157 C 0.52449 0.03592 0.30728 0.0
C158 C 0.53024 0.03625 0.40199 0.0
C159 C 0.5106 0.99583 0.44722 0.0
C160 C 0.51628 0.99509 0.53728 0.0
C161 C 0.49789 0.95268 0.57926 0.0
C162 C 0.47346 0.9133 0.53484 0.0
C163 C 0.46711 0.91471 0.44762 0.0
C164 C 0.48556 0.95519 0.40386 0.0
H165 H 0.49911 1.01723 0.69474 0.0
C166 C 0.52211 1.02827 0.72572 0.0
H167 H 0.56784 0.04754 0.7096 0.0
H168 H 0.5715 0.12043 0.33583 0.0
H169 H 0.61448 0.18797 0.41376 0.0
H170 H 0.62406 0.18717 0.56976 0.0
H171 H 0.59065 0.11902 0.64873 0.0
C172 C 0.54504 0.03737 0.67828 0.0
C173 C 0.54053 0.03591 0.58293 0.0
C174 C 0.56051 0.07609 0.53737 0.0
C175 C 0.55526 0.07637 0.44704 0.0
C176 C 0.57493 0.11763 0.40389 0.0
C177 C 0.59958 0.15689 0.44796 0.0
C178 C 0.60494 0.15647 0.53578 0.0
C179 C 0.58558 0.11688 0.58034 0.0
H180 H 0.49713 0.5157 0.69959 0.0
C181 C 0.52024 0.52592 0.72857 0.0
H182 H 0.56541 0.54392 0.70538 0.0
H183 H 0.50678 0.43228 0.34535 0.0
H184 H 0.50023 0.36719 0.43159 0.0
H185 H 0.50979 0.37532 0.58802 0.0
H186 H 0.52597 0.44877 0.65922 0.0
C187 C 0.54224 0.53429 0.67813 0.0
C188 C 0.53535 0.52906 0.58365 0.0
C189 C 0.52584 0.48596 0.54275 0.0
C190 C 0.52019 0.48126 0.45239 0.0
C191 C 0.51111 0.43785 0.41361 0.0
C192 C 0.50732 0.40014 0.46239 0.0
C193 C 0.51271 0.40472 0.55046 0.0
C194 C 0.52196 0.44707 0.59051 0.0
H195 H 0.56524 0.57147 0.29183 0.0
C196 C 0.54337 0.5435 0.26064 0.0
H197 H 0.49816 0.48738 0.27687 0.0
H198 H 0.55358 0.61648 0.64169 0.0
H199 H 0.55701 0.68041 0.55665 0.0
H200 H 0.54348 0.67059 0.4012 0.0
H201 H 0.52719 0.59734 0.32963 0.0
C202 C 0.52011 0.51533 0.30773 0.0
C203 C 0.52411 0.51976 0.40279 0.0
C204 C 0.53214 0.56221 0.44419 0.0
C205 C 0.53852 0.56719 0.53442 0.0
C206 C 0.54787 0.61057 0.57362 0.0
C207 C 0.54992 0.64752 0.52559 0.0
C208 C 0.54241 0.64205 0.43804 0.0
C209 C 0.53344 0.59993 0.39758 0.0
H210 H 0.20235 0.48261 0.08002 0.0
C211 C 0.19377 0.48838 0.01763 0.0
H212 H 0.20494 0.50562 0.89025 0.0
H213 H 0.34931 0.5927 0.98892 0.0
H214 H 0.34857 0.66362 0.95992 0.0
H215 H 0.29895 0.66111 0.93603 0.0
H216 H 0.2497 0.58743 0.93955 0.0
C217 C 0.21186 0.49938 0.95403 0.0
C218 C 0.24172 0.501 0.96844 0.0
C219 C 0.27016 0.54437 0.96676 0.0
C220 C 0.29874 0.546 0.98214 0.0
C221 C 0.32691 0.58961 0.97878 0.0
C222 C 0.32682 0.63057 0.96211 0.0
C223 C 0.29888 0.62913 0.94851 0.0
C224 C 0.27079 0.58663 0.95066 0.0
H225 H 0.32318 0.47444 0.89932 0.0
C226 C 0.33782 0.48884 0.95903 0.0
H227 H 0.34294 0.52377 0.07481 0.0
H228 H 0.19118 0.41104 0.96635 0.0
H229 H 0.19204 0.34091 0.00179 0.0
H230 H 0.24167 0.34473 0.03951 0.0
H231 H 0.29073 0.4187 0.04057 0.0
C232 C 0.32863 0.5064 0.01641 0.0
C233 C 0.29873 0.50437 5e-05 0.0
C234 C 0.2703 0.46098 0.00267 0.0
C235 C 0.24171 0.45911 0.98471 0.0
C236 C 0.21361 0.41494 0.98309 0.0
C237 C 0.21375 0.37426 0.00267 0.0
C238 C 0.24168 0.37639 0.02362 0.0
C239 C 0.2697 0.4191 0.02359 0.0
H240 H 0.76043 0.28843 0.90432 0.0
C241 C 0.75697 0.26561 0.95795 0.0
H242 H 0.77998 0.24988 0.06096 0.0
H243 H 0.90052 0.37568 0.83952 0.0
H244 H 0.87146 0.31726 0.72664 0.0
H245 H 0.81694 0.25475 0.73691 0.0
H246 H 0.79095 0.25062 0.85967 0.0
C247 C 0.78252 0.27211 0.00719 0.0
C248 C 0.81523 0.31153 -0.00358 0.0
C249 C 0.83073 0.31245 0.92592 0.0
C250 C 0.86283 0.3476 0.92167 0.0
C251 C 0.87682 0.3489 0.84805 0.0
C252 C 0.8603 0.31572 0.78233 0.0
C253 C 0.82957 0.28059 0.78801 0.0
C254 C 0.81488 0.27872 0.85883 0.0
H255 H 0.93197 0.3761 0.97734 0.0
C256 C 0.93717 0.41174 0.98326 0.0
H257 H 0.91907 0.45509 0.99211 0.0
H258 H 0.79251 0.3238 0.13559 0.0
H259 H 0.82143 0.38248 0.24847 0.0
H260 H 0.87745 0.43971 0.24609 0.0
H261 H 0.90485 0.43927 0.13044 0.0
C262 C 0.91358 0.41929 0.98611 0.0
C263 C 0.87999 0.38095 0.98955 0.0
C264 C 0.86427 0.38039 0.05923 0.0
C265 C 0.83202 0.34626 0.06206 0.0
C266 C 0.81704 0.34801 0.13122 0.0
C267 C 0.83333 0.38163 0.19633 0.0
C268 C 0.86485 0.41396 0.19485 0.0
C269 C 0.88026 0.41342 0.12759 0.0
H270 H 0.57083 0.92422 -0.00557 0.0
C271 C 0.5465 0.91319 0.99256 0.0
H272 H 0.50089 0.85432 0.98419 0.0
H273 H 0.51605 0.69394 0.84519 0.0
H274 H 0.48967 0.70814 0.72252 0.0
H275 H 0.48314 0.77592 0.71985 0.0
H276 H 0.5029 0.83021 0.84017 0.0
C277 C 0.52534 0.86574 0.99032 0.0
C278 C 0.53301 0.82656 0.98959 0.0
C279 C 0.52116 0.7937 0.91975 0.0
C280 C 0.5249 0.75369 0.92142 0.0
C281 C 0.51341 0.72373 0.84867 0.0
C282 C 0.49835 0.73167 0.77738 0.0
C283 C 0.49465 0.76985 0.7759 0.0
C284 C 0.50594 0.80061 0.84573 0.0
H285 H 0.50117 0.6477 0.98544 0.0
C286 C 0.52529 0.65747 0.9892 0.0
H287 H 0.57148 0.71497 0.00221 0.0
H288 H 0.55813 0.87834 0.13673 0.0
H289 H 0.58447 0.86419 0.25965 0.0
H290 H 0.59065 0.79608 0.26301 0.0
H291 H 0.57067 0.74146 0.14307 0.0
C292 C 0.54723 0.70468 -0.0064 0.0
C293 C 0.54043 0.74487 -0.0065 0.0
C294 C 0.55246 0.77793 0.0632 0.0
C295 C 0.54878 0.81801 0.06139 0.0
C296 C 0.56054 0.84831 0.13372 0.0
C297 C 0.57562 0.84046 0.20505 0.0
C298 C 0.57914 0.8021 0.20689 0.0
C299 C 0.5677 0.77112 0.13729 0.0
H300 H 0.87786 0.62189 0.98285 0.0
C301 C 0.87765 0.58927 0.9864 0.0
H302 H 0.84894 0.51538 0.9892 0.0
H303 H 0.73972 0.52029 0.13806 0.0
H304 H 0.75213 0.4775 0.24543 0.0
H305 H 0.79678 0.46808 0.23688 0.0
H306 H 0.82882 0.5004 0.12001 0.0
C307 C 0.85021 0.54869 0.98656 0.0
C308 C 0.82104 0.54904 0.98645 0.0
C309 C 0.80284 0.53015 0.05578 0.0
C310 C 0.77767 0.53668 0.06215 0.0
C311 C 0.7595 0.51707 0.13125 0.0
C312 C 0.76632 0.49237 0.19316 0.0
C313 C 0.79142 0.48698 0.18821 0.0
C314 C 0.80961 0.50569 0.12065 0.0
H315 H 0.71526 0.53198 0.91909 0.0
C316 C 0.7208 0.55717 0.96969 0.0
H317 H 0.75575 0.60181 0.06626 0.0
H318 H 0.84585 0.57871 0.83426 0.0
H319 H 0.83382 0.62237 0.72818 0.0
H320 H 0.79369 0.64073 0.74682 0.0
H321 H 0.76496 0.61468 0.87046 0.0
C322 C 0.74867 0.57626 0.01556 0.0
C323 C 0.77135 0.56299 0.00056 0.0
C324 C 0.78848 0.57986 0.92902 0.0
C325 C 0.8127 0.57148 0.92056 0.0
C326 C 0.82833 0.58629 0.8461 0.0
C327 C 0.82144 0.61098 0.7843 0.0
C328 C 0.79879 0.62118 0.79465 0.0
C329 C 0.78239 0.60585 0.86595 0.0
H330 H 0.1417 0.60886 0.03277 0.0
C331 C 0.12818 0.62495 0.01451 0.0
H332 H 0.13156 0.6881 0.97423 0.0
H333 H 0.27583 0.77365 0.14951 0.0
H334 H 0.25328 0.76832 0.27966 0.0
H335 H 0.19665 0.73123 0.28011 0.0
H336 H 0.16213 0.69859 0.1499 0.0
C337 C 0.14389 0.67041 -0.00609 0.0
C338 C 0.17872 0.69643 0.99271 0.0
C339 C 0.19895 0.71781 0.06801 0.0
C340 C 0.23194 0.74125 0.06691 0.0
C341 C 0.25098 0.75833 0.14503 0.0
C342 C 0.23827 0.75484 0.22072 0.0
C343 C 0.20637 0.73382 0.22102 0.0
C344 C 0.18683 0.71529 0.14586 0.0
H345 H 0.28948 0.83529 0.0406 0.0
C346 C 0.29899 0.81727 0.0118 0.0
H347 H 0.28983 0.75449 0.95752 0.0
H348 H 0.14711 0.65441 0.84018 0.0
H349 H 0.16929 0.65582 0.71098 0.0
H350 H 0.22604 0.6997 0.70625 0.0
H351 H 0.26103 0.74195 0.83059 0.0
C352 C 0.27987 0.77211 0.98549 0.0
C353 C 0.24505 0.74552 0.98927 0.0
C354 C 0.22464 0.7223 0.91476 0.0
C355 C 0.19168 0.6976 0.9168 0.0
C356 C 0.17217 0.67391 0.842 0.0
C357 C 0.18459 0.67445 0.76734 0.0
C358 C 0.21655 0.6991 0.76474 0.0
C359 C 0.23642 0.72309 0.837 0.0
H360 H 0.56417 0.41623 0.00591 0.0
C361 C 0.54012 0.40701 -0.00165 0.0
H362 H 0.49387 0.35004 0.98113 0.0
H363 H 0.50517 0.18395 0.85128 0.0
H364 H 0.47534 0.1946 0.73339 0.0
H365 H 0.46827 0.26182 0.731 0.0
H366 H 0.4908 0.31895 0.84693 0.0
C367 C 0.51802 0.35988 0.99135 0.0
C368 C 0.52463 0.31928 0.99212 0.0
C369 C 0.51125 0.28471 0.92459 0.0
C370 C 0.51532 0.24494 0.92608 0.0
C371 C 0.50227 0.21343 0.85534 0.0
C372 C 0.48525 0.21938 0.78657 0.0
C373 C 0.48124 0.25724 0.78525 0.0
C374 C 0.49416 0.28967 0.85274 0.0
H375 H 0.49484 0.14041 0.98542 0.0
C376 C 0.51914 0.15101 0.99033 0.0
H377 H 0.56482 0.20962 0.00342 0.0
H378 H 0.55102 0.37204 0.13841 0.0
H379 H 0.58073 0.36128 0.25637 0.0
H380 H 0.58839 0.29464 0.25782 0.0
H381 H 0.56642 0.23809 0.14095 0.0
C382 C 0.54042 0.19851 -0.00484 0.0
C383 C 0.53281 0.23801 -0.00436 0.0
C384 C 0.54595 0.27234 0.0635 0.0
C385 C 0.54175 0.31197 0.06223 0.0
C386 C 0.5543 0.34296 0.13373 0.0
C387 C 0.57118 0.33687 0.20266 0.0
C388 C 0.5755 0.29932 0.20348 0.0
C389 C 0.56293 0.26725 0.13545 0.0
loop_
_geom_bond_atom_site_label_1
_geom_bond_atom_site_label_2
_geom_bond_distance
_geom_bond_site_symmetry_2
_ccdc_geom_bond_type
Tb0 C10 2.825 . S
Tb0 O11 2.347 1_554 S
Tb0 O14 2.366 . S
Tb0 O19 2.418 . S
Tb0 O20 2.384 1_455 S
Tb0 O23 2.479 . S
Tb0 O24 2.471 1_554 S
Eu1 O12 2.418 . S
Eu1 O13 2.384 1_655 S
Eu1 O16 2.479 . S
Eu1 O17 2.471 1_556 S
Eu1 O18 2.347 1_556 S
Eu1 O21 2.366 . S
Eu1 C31 2.825 . S
C2 O18 1.259 1_455 S
C2 O19 1.265 . S
C3 O20 1.255 1_556 S
C3 O21 1.265 . S
C4 C6 1.380 1_556 S
C4 C7 1.373 . S
C4 C10 1.507 1_556 S
C5 C6 1.384 . S
C5 C9 1.387 1_554 S
C5 H32 0.930 . S
C6 C4 1.380 1_554 S
C6 C5 1.384 . S
C6 H33 0.931 . S
C7 C4 1.373 . S
C7 C8 1.390 . S
C7 H34 0.930 . S
C8 C7 1.390 . S
C8 C9 1.391 . S
C8 H35 0.930 . S
C9 C5 1.387 1_556 S
C9 C8 1.391 . S
C10 Tb0 2.825 . S
C10 C4 1.507 1_554 S
C10 O23 1.238 . S
C10 O24 1.247 1_554 S
O11 Tb0 2.347 1_556 S
O11 C15 1.259 1_455 S
O12 Eu1 2.418 . S
O12 C15 1.265 . S
O13 Eu1 2.384 1_455 S
O13 C22 1.255 1_556 S
O14 Tb0 2.366 . S
O14 C22 1.265 . S
C15 O11 1.259 1_655 S
C15 O12 1.265 . S
O16 Eu1 2.479 . S
O16 C31 1.238 . S
O17 Eu1 2.471 1_554 S
O17 C31 1.247 1_554 S
O18 Eu1 2.347 1_554 S
O18 C2 1.259 1_655 S
O19 Tb0 2.418 . S
O19 C2 1.265 . S
O20 Tb0 2.384 1_655 S
O20 C3 1.255 1_554 S
O21 Eu1 2.366 . S
O21 C3 1.265 . S
C22 O13 1.255 1_554 S
C22 O14 1.265 . S
O23 Tb0 2.479 . S
O23 C10 1.238 . S
O24 Tb0 2.471 1_556 S
O24 C10 1.247 1_556 S
C25 C28 1.375 1_554 S
C25 C29 1.379 . S
C25 C31 1.506 1_554 S
C26 C27 1.387 1_554 S
C26 C30 1.391 . S
C27 C26 1.387 1_556 S
C27 C28 1.384 . S
C27 H36 0.930 . S
C28 C25 1.375 1_556 S
C28 C27 1.384 . S
C28 H37 0.931 . S
C29 C25 1.379 . S
C29 C30 1.390 . S
C29 H38 0.930 . S
C30 C26 1.391 . S
C30 C29 1.390 . S
C30 H39 0.930 . S
C31 Eu1 2.825 . S
C31 O16 1.238 . S
C31 O17 1.247 1_556 S
C31 C25 1.506 1_556 S
H32 C5 0.930 . S
H33 C6 0.931 . S
H34 C7 0.930 . S
H35 C8 0.930 . S
H36 C27 0.930 . S
H37 C28 0.931 . S
H38 C29 0.930 . S
H39 C30 0.930 . S
Tb40 C50 2.825 . S
Tb40 O51 2.347 1_554 S
Tb40 O54 2.366 . S
Tb40 O59 2.418 . S
Tb40 O60 2.384 1_545 S
Tb40 O63 2.479 . S
Tb40 O64 2.471 1_554 S
Eu41 O52 2.418 . S
Eu41 O53 2.384 1_565 S
Eu41 O56 2.479 . S
Eu41 O57 2.471 1_556 S
Eu41 O58 2.347 1_556 S
Eu41 O61 2.366 . S
Eu41 C71 2.825 . S
C42 O58 1.259 1_545 S
C42 O59 1.265 . S
C43 O60 1.253 1_556 S
C43 O61 1.267 . S
C44 C46 1.380 . S
C44 C47 1.374 1_554 S
C44 C50 1.507 . S
C45 C46 1.384 . S
C45 C49 1.387 1_554 S
C45 H72 0.930 . S
C46 C44 1.380 . S
C46 C45 1.384 . S
C46 H73 0.931 . S
C47 C44 1.374 1_556 S
C47 C48 1.390 . S
C47 H74 0.930 . S
C48 C47 1.390 . S
C48 C49 1.391 . S
C48 H75 0.930 . S
C49 C45 1.387 1_556 S
C49 C48 1.391 . S
C50 Tb40 2.825 . S
C50 C44 1.507 . S
C50 O63 1.238 . S
C50 O64 1.247 1_554 S
O51 Tb40 2.347 1_556 S
O51 C55 1.259 1_545 S
O52 Eu41 2.418 . S
O52 C55 1.265 . S
O53 Eu41 2.384 1_545 S
O53 C62 1.255 1_556 S
O54 Tb40 2.366 . S
O54 C62 1.265 . S
C55 O51 1.259 1_565 S
C55 O52 1.265 . S
O56 Eu41 2.479 . S
O56 C71 1.238 . S
O57 Eu41 2.471 1_554 S
O57 C71 1.247 1_554 S
O58 Eu41 2.347 1_554 S
O58 C42 1.259 1_565 S
O59 Tb40 2.418 . S
O59 C42 1.265 . S
O60 Tb40 2.384 1_565 S
O60 C43 1.253 1_554 S
O61 Eu41 2.366 . S
O61 C43 1.267 . S
C62 O53 1.255 1_554 S
C62 O54 1.265 . S
O63 Tb40 2.479 . S
O63 C50 1.238 . S
O64 Tb40 2.471 1_556 S
O64 C50 1.247 1_556 S
C65 C68 1.380 . S
C65 C69 1.374 1_556 S
C65 C71 1.507 . S
C66 C67 1.387 1_554 S
C66 C70 1.391 . S
C67 C66 1.387 1_556 S
C67 C68 1.384 . S
C67 H76 0.930 . S
C68 C65 1.380 . S
C68 C67 1.384 . S
C68 H77 0.931 . S
C69 C65 1.374 1_554 S
C69 C70 1.390 . S
C69 H78 0.930 . S
C70 C66 1.391 . S
C70 C69 1.390 . S
C70 H79 0.930 . S
C71 Eu41 2.825 . S
C71 O56 1.238 . S
C71 O57 1.247 1_556 S
C71 C65 1.507 . S
H72 C45 0.930 . S
H73 C46 0.931 . S
H74 C47 0.930 . S
H75 C48 0.930 . S
H76 C67 0.930 . S
H77 C68 0.931 . S
H78 C69 0.930 . S
H79 C70 0.930 . S
Tb80 C90 2.825 . S
Tb80 O91 2.347 1_556 S
Tb80 O94 2.366 . S
Tb80 O99 2.418 . S
Tb80 O100 2.384 . S
Tb80 O103 2.479 . S
Tb80 O104 2.471 1_556 S
Eu81 O92 2.418 . S
Eu81 O93 2.384 . S
Eu81 O96 2.479 . S
Eu81 O97 2.471 1_554 S
Eu81 O98 2.347 1_554 S
Eu81 O101 2.366 . S
Eu81 C111 2.825 . S
C82 O98 1.259 . S
C82 O99 1.265 . S
C83 O100 1.255 1_554 S
C83 O101 1.265 . S
C84 C86 1.380 . S
C84 C87 1.374 1_556 S
C84 C90 1.507 . S
C85 C86 1.384 . S
C85 C89 1.387 1_556 S
C85 H112 0.930 . S
C86 C84 1.380 . S
C86 C85 1.384 . S
C86 H113 0.931 . S
C87 C84 1.374 1_554 S
C87 C88 1.390 . S
C87 H114 0.930 . S
C88 C87 1.390 . S
C88 C89 1.391 . S
C88 H115 0.930 . S
C89 C85 1.387 1_554 S
C89 C88 1.391 . S
C90 Tb80 2.825 . S
C90 C84 1.507 . S
C90 O103 1.238 . S
C90 O104 1.247 1_556 S
O91 Tb80 2.347 1_554 S
O91 C95 1.259 . S
O92 Eu81 2.418 . S
O92 C95 1.265 . S
O93 Eu81 2.384 . S
O93 C102 1.255 1_554 S
O94 Tb80 2.366 . S
O94 C102 1.265 . S
C95 O91 1.259 . S
C95 O92 1.265 . S
O96 Eu81 2.479 . S
O96 C111 1.238 . S
O97 Eu81 2.471 1_556 S
O97 C111 1.247 1_556 S
O98 Eu81 2.347 1_556 S
O98 C82 1.259 . S
O99 Tb80 2.418 . S
O99 C82 1.265 . S
O100 Tb80 2.384 . S
O100 C83 1.255 1_556 S
O101 Eu81 2.366 . S
O101 C83 1.265 . S
C102 O93 1.255 1_556 S
C102 O94 1.265 . S
O103 Tb80 2.479 . S
O103 C90 1.238 . S
O104 Tb80 2.471 1_554 S
O104 C90 1.247 1_554 S
C105 C108 1.380 . S
C105 C109 1.374 1_554 S
C105 C111 1.507 . S
C106 C107 1.387 1_556 S
C106 C110 1.391 . S
C107 C106 1.387 1_554 S
C107 C108 1.384 . S
C107 H116 0.930 . S
C108 C105 1.380 . S
C108 C107 1.384 . S
C108 H117 0.931 . S
C109 C105 1.374 1_556 S
C109 C110 1.390 . S
C109 H118 0.930 . S
C110 C106 1.391 . S
C110 C109 1.390 . S
C110 H119 0.930 . S
C111 Eu81 2.825 . S
C111 O96 1.238 . S
C111 O97 1.247 1_554 S
C111 C105 1.507 . S
H112 C85 0.930 . S
H113 C86 0.931 . S
H114 C87 0.930 . S
H115 C88 0.930 . S
H116 C107 0.930 . S
H117 C108 0.931 . S
H118 C109 0.930 . S
H119 C110 0.930 . S
H120 C121 0.951 . S
C121 H120 0.951 . S
C121 C127 1.265 1_655 S
H122 C127 0.950 . S
H123 C131 0.949 . S
H124 C132 0.950 . S
H125 C133 0.951 . S
H126 C134 0.951 . S
C127 C121 1.265 1_455 S
C127 H122 0.950 . S
C127 C128 1.478 . S
C128 C127 1.478 . S
C128 C129 1.397 . S
C128 C145 1.394 . S
C129 C128 1.397 . S
C129 C130 1.435 1_455 S
C129 C134 1.429 . S
C130 C129 1.435 1_655 S
C130 C131 1.412 . S
C130 C143 1.415 . S
C131 H123 0.949 . S
C131 C130 1.412 . S
C131 C132 1.345 . S
C132 H124 0.950 . S
C132 C131 1.345 . S
C132 C133 1.424 1_655 S
C133 H125 0.951 . S
C133 C132 1.424 1_455 S
C133 C134 1.347 . S
C134 H126 0.951 . S
C134 C129 1.429 . S
C134 C133 1.347 . S
H135 C136 0.951 . S
C136 H135 0.951 . S
C136 C142 1.265 1_455 S
H137 C142 0.950 . S
H138 C146 0.949 . S
H139 C147 0.950 . S
H140 C148 0.951 . S
H141 C149 0.951 . S
C142 C136 1.265 1_655 S
C142 H137 0.950 . S
C142 C143 1.478 . S
C143 C130 1.415 . S
C143 C142 1.478 . S
C143 C144 1.412 1_655 S
C144 C143 1.412 1_455 S
C144 C145 1.441 . S
C144 C149 1.411 1_455 S
C145 C128 1.394 . S
C145 C144 1.441 . S
C145 C146 1.428 . S
C146 H138 0.949 . S
C146 C145 1.428 . S
C146 C147 1.345 . S
C147 H139 0.950 . S
C147 C146 1.345 . S
C147 C148 1.424 . S
C148 H140 0.951 . S
C148 C147 1.424 . S
C148 C149 1.348 1_455 S
C149 H141 0.951 . S
C149 C144 1.411 1_655 S
C149 C148 1.348 1_655 S
H150 C151 0.961 1_545 S
C151 H150 0.961 1_565 S
C151 C157 1.258 . S
H152 C157 0.950 . S
H153 C161 0.949 . S
H154 C162 0.950 . S
H155 C163 0.951 . S
H156 C164 0.951 . S
C157 C151 1.258 . S
C157 H152 0.950 . S
C157 C158 1.478 . S
C158 C157 1.478 . S
C158 C159 1.397 . S
C158 C175 1.394 1_565 S
C159 C158 1.397 . S
C159 C160 1.438 . S
C159 C164 1.429 . S
C160 C159 1.438 . S
C160 C161 1.428 . S
C160 C173 1.394 1_565 S
C161 H153 0.949 . S
C161 C160 1.428 . S
C161 C162 1.345 . S
C162 H154 0.950 . S
C162 C161 1.345 . S
C162 C163 1.424 . S
C163 H155 0.951 . S
C163 C162 1.424 . S
C163 C164 1.347 . S
C164 H156 0.951 . S
C164 C159 1.429 . S
C164 C163 1.347 . S
H165 C166 0.965 1_565 S
C166 H165 0.965 1_545 S
C166 C172 1.265 . S
H167 C172 0.950 . S
H168 C176 0.949 . S
H169 C177 0.950 . S
H170 C178 0.951 . S
H171 C179 0.951 . S
C172 C166 1.265 . S
C172 H167 0.950 . S
C172 C173 1.478 . S
C173 C160 1.394 1_545 S
C173 C172 1.478 . S
C173 C174 1.397 . S
C174 C173 1.397 . S
C174 C175 1.438 . S
C174 C179 1.429 . S
C175 C158 1.394 1_545 S
C175 C174 1.438 . S
C175 C176 1.428 . S
C176 H168 0.949 . S
C176 C175 1.428 . S
C176 C177 1.345 . S
C177 H169 0.950 . S
C177 C176 1.345 . S
C177 C178 1.424 . S
C178 H170 0.951 . S
C178 C177 1.424 . S
C178 C179 1.347 . S
C179 H171 0.951 . S
C179 C174 1.429 . S
C179 C178 1.347 . S
H180 C181 0.951 . S
C181 H180 0.951 . S
C181 C187 1.265 . S
H182 C187 0.950 . S
H183 C191 0.949 . S
H184 C192 0.950 . S
H185 C193 0.951 . S
H186 C194 0.951 . S
C187 C181 1.265 . S
C187 H182 0.950 . S
C187 C188 1.478 . S
C188 C187 1.478 . S
C188 C189 1.397 . S
C188 C205 1.394 . S
C189 C188 1.397 . S
C189 C190 1.438 . S
C189 C194 1.429 . S
C190 C189 1.438 . S
C190 C191 1.428 . S
C190 C203 1.394 . S
C191 H183 0.949 . S
C191 C190 1.428 . S
C191 C192 1.345 . S
C192 H184 0.950 . S
C192 C191 1.345 . S
C192 C193 1.424 . S
C193 H185 0.951 . S
C193 C192 1.424 . S
C193 C194 1.347 . S
C194 H186 0.951 . S
C194 C189 1.429 . S
C194 C193 1.347 . S
H195 C196 0.951 . S
C196 H195 0.951 . S
C196 C202 1.265 . S
H197 C202 0.950 . S
H198 C206 0.949 . S
H199 C207 0.950 . S
H200 C208 0.951 . S
H201 C209 0.951 . S
C202 C196 1.265 . S
C202 H197 0.950 . S
C202 C203 1.478 . S
C203 C190 1.394 . S
C203 C202 1.478 . S
C203 C204 1.397 . S
C204 C203 1.397 . S
C204 C205 1.438 . S
C204 C209 1.429 . S
C205 C188 1.394 . S
C205 C204 1.438 . S
C205 C206 1.428 . S
C206 H198 0.949 . S
C206 C205 1.428 . S
C206 C207 1.345 . S
C207 H199 0.950 . S
C207 C206 1.345 . S
C207 C208 1.424 . S
C208 H200 0.951 . S
C208 C207 1.424 . S
C208 C209 1.347 . S
C209 H201 0.951 . S
C209 C204 1.429 . S
C209 C208 1.347 . S
H210 C211 0.951 1_554 S
C211 H210 0.951 1_556 S
C211 C217 1.265 . S
H212 C217 0.950 . S
H213 C221 0.948 1_554 S
H214 C222 0.950 . S
H215 C223 0.951 . S
H216 C224 0.951 . S
C217 C211 1.265 . S
C217 H212 0.950 . S
C217 C218 1.478 . S
C218 C217 1.478 . S
C218 C219 1.397 . S
C218 C235 1.394 . S
C219 C218 1.397 . S
C219 C220 1.438 . S
C219 C224 1.429 . S
C220 C219 1.438 . S
C220 C221 1.428 . S
C220 C233 1.394 1_556 S
C221 H213 0.948 1_556 S
C221 C220 1.428 . S
C221 C222 1.346 . S
C222 H214 0.950 . S
C222 C221 1.346 . S
C222 C223 1.424 . S
C223 H215 0.951 . S
C223 C222 1.424 . S
C223 C224 1.347 . S
C224 H216 0.951 . S
C224 C219 1.429 . S
C224 C223 1.347 . S
H225 C226 0.951 1_556 S
C226 H225 0.951 1_554 S
C226 C232 1.265 . S
H227 C232 0.950 . S
H228 C236 0.949 . S
H229 C237 0.950 . S
H230 C238 0.951 . S
H231 C239 0.951 . S
C232 C226 1.265 . S
C232 H227 0.950 . S
C232 C233 1.478 . S
C233 C220 1.394 1_554 S
C233 C232 1.478 . S
C233 C234 1.397 . S
C234 C233 1.397 . S
C234 C235 1.438 1_554 S
C234 C239 1.429 . S
C235 C218 1.394 . S
C235 C234 1.438 1_556 S
C235 C236 1.428 . S
C236 H228 0.949 . S
C236 C235 1.428 . S
C236 C237 1.345 1_556 S
C237 H229 0.950 . S
C237 C236 1.345 1_554 S
C237 C238 1.424 . S
C238 H230 0.951 . S
C238 C237 1.424 . S
C238 C239 1.347 . S
C239 H231 0.951 . S
C239 C234 1.429 . S
C239 C238 1.347 . S
H240 C241 0.951 . S
C241 H240 0.951 . S
C241 C247 1.265 . S
H242 C247 0.950 . S
H243 C251 0.949 . S
H244 C252 0.950 . S
H245 C253 0.951 . S
H246 C254 0.951 . S
C247 C241 1.265 . S
C247 H242 0.950 . S
C247 C248 1.478 . S
C248 C247 1.478 . S
C248 C249 1.397 . S
C248 C265 1.394 1_556 S
C249 C248 1.397 . S
C249 C250 1.438 . S
C249 C254 1.429 . S
C250 C249 1.438 . S
C250 C251 1.428 . S
C250 C263 1.394 . S
C251 H243 0.949 . S
C251 C250 1.428 . S
C251 C252 1.345 . S
C252 H244 0.950 . S
C252 C251 1.345 . S
C252 C253 1.424 . S
C253 H245 0.951 . S
C253 C252 1.424 . S
C253 C254 1.347 . S
C254 H246 0.951 . S
C254 C249 1.429 . S
C254 C253 1.347 . S
H255 C256 0.951 . S
C256 H255 0.951 . S
C256 C262 1.265 . S
H257 C262 0.950 . S
H258 C266 0.949 . S
H259 C267 0.950 . S
H260 C268 0.951 . S
H261 C269 0.951 . S
C262 C256 1.265 . S
C262 H257 0.950 . S
C262 C263 1.478 . S
C263 C250 1.394 . S
C263 C262 1.478 . S
C263 C264 1.397 1_556 S
C264 C263 1.397 1_554 S
C264 C265 1.438 . S
C264 C269 1.429 . S
C265 C248 1.394 1_554 S
C265 C264 1.438 . S
C265 C266 1.428 . S
C266 H258 0.949 . S
C266 C265 1.428 . S
C266 C267 1.345 . S
C267 H259 0.950 . S
C267 C266 1.345 . S
C267 C268 1.424 . S
C268 H260 0.951 . S
C268 C267 1.424 . S
C268 C269 1.347 . S
C269 H261 0.951 . S
C269 C264 1.429 . S
C269 C268 1.347 . S
H270 C271 0.951 1_554 S
C271 H270 0.951 1_556 S
C271 C277 1.265 . S
H272 C277 0.950 . S
H273 C281 0.949 . S
H274 C282 0.950 . S
H275 C283 0.951 . S
H276 C284 0.951 . S
C277 C271 1.265 . S
C277 H272 0.950 . S
C277 C278 1.478 . S
C278 C277 1.478 . S
C278 C279 1.397 . S
C278 C295 1.394 1_556 S
C279 C278 1.397 . S
C279 C280 1.438 . S
C279 C284 1.429 . S
C280 C279 1.438 . S
C280 C281 1.428 . S
C280 C293 1.394 . S
C281 H273 0.949 . S
C281 C280 1.428 . S
C281 C282 1.345 . S
C282 H274 0.950 . S
C282 C281 1.345 . S
C282 C283 1.424 . S
C283 H275 0.951 . S
C283 C282 1.424 . S
C283 C284 1.347 . S
C284 H276 0.951 . S
C284 C279 1.429 . S
C284 C283 1.347 . S
H285 C286 0.951 . S
C286 H285 0.951 . S
C286 C292 1.264 1_556 S
H287 C292 0.950 . S
H288 C296 0.949 . S
H289 C297 0.950 . S
H290 C298 0.951 . S
H291 C299 0.951 . S
C292 C286 1.264 1_554 S
C292 H287 0.950 . S
C292 C293 1.479 1_554 S
C293 C280 1.394 . S
C293 C292 1.479 1_556 S
C293 C294 1.397 1_556 S
C294 C293 1.397 1_554 S
C294 C295 1.438 . S
C294 C299 1.429 . S
C295 C278 1.394 1_554 S
C295 C294 1.438 . S
C295 C296 1.428 . S
C296 H288 0.949 . S
C296 C295 1.428 . S
C296 C297 1.345 . S
C297 H289 0.950 . S
C297 C296 1.345 . S
C297 C298 1.424 . S
C298 H290 0.951 . S
C298 C297 1.424 . S
C298 C299 1.347 . S
C299 H291 0.951 . S
C299 C294 1.429 . S
C299 C298 1.347 . S
H300 C301 0.951 . S
C301 H300 0.951 . S
C301 C307 1.265 . S
H302 C307 0.950 . S
H303 C311 0.949 . S
H304 C312 0.950 . S
H305 C313 0.951 . S
H306 C314 0.951 . S
C307 C301 1.265 . S
C307 H302 0.950 . S
C307 C308 1.478 . S
C308 C307 1.478 . S
C308 C309 1.397 . S
C308 C325 1.394 1_554 S
C309 C308 1.397 . S
C309 C310 1.438 . S
C309 C314 1.429 . S
C310 C309 1.438 . S
C310 C311 1.428 . S
C310 C323 1.389 1_554 S
C311 H303 0.949 . S
C311 C310 1.428 . S
C311 C312 1.345 . S
C312 H304 0.950 . S
C312 C311 1.345 . S
C312 C313 1.424 . S
C313 H305 0.951 . S
C313 C312 1.424 . S
C313 C314 1.347 . S
C314 H306 0.951 . S
C314 C309 1.429 . S
C314 C313 1.347 . S
H315 C316 0.951 . S
C316 H315 0.951 . S
C316 C322 1.265 . S
H317 C322 0.950 . S
H318 C326 0.949 . S
H319 C327 0.950 . S
H320 C328 0.951 . S
H321 C329 0.951 . S
C322 C316 1.265 . S
C322 H317 0.950 . S
C322 C323 1.478 . S
C323 C310 1.389 1_556 S
C323 C322 1.478 . S
C323 C324 1.402 . S
C324 C323 1.402 . S
C324 C325 1.438 . S
C324 C329 1.429 . S
C325 C308 1.394 1_556 S
C325 C324 1.438 . S
C325 C326 1.428 . S
C326 H318 0.949 . S
C326 C325 1.428 . S
C326 C327 1.345 . S
C327 H319 0.950 . S
C327 C326 1.345 . S
C327 C328 1.424 . S
C328 H320 0.951 . S
C328 C327 1.424 . S
C328 C329 1.347 . S
C329 H321 0.951 . S
C329 C324 1.429 . S
C329 C328 1.347 . S
H330 C331 0.951 . S
C331 H330 0.951 . S
C331 C337 1.265 . S
H332 C337 0.950 . S
H333 C341 0.949 . S
H334 C342 0.950 . S
H335 C343 0.951 . S
H336 C344 0.951 . S
C337 C331 1.265 . S
C337 H332 0.950 . S
C337 C338 1.478 . S
C338 C337 1.478 . S
C338 C339 1.397 . S
C338 C355 1.394 1_554 S
C339 C338 1.397 . S
C339 C340 1.438 . S
C339 C344 1.429 . S
C340 C339 1.438 . S
C340 C341 1.428 . S
C340 C353 1.394 . S
C341 H333 0.949 . S
C341 C340 1.428 . S
C341 C342 1.345 . S
C342 H334 0.950 . S
C342 C341 1.345 . S
C342 C343 1.424 . S
C343 H335 0.951 . S
C343 C342 1.424 . S
C343 C344 1.347 . S
C344 H336 0.951 . S
C344 C339 1.429 . S
C344 C343 1.347 . S
H345 C346 0.951 . S
C346 H345 0.951 . S
C346 C352 1.265 . S
H347 C352 0.950 1_556 S
H348 C356 0.949 . S
H349 C357 0.950 . S
H350 C358 0.951 . S
H351 C359 0.951 . S
C352 C346 1.265 . S
C352 H347 0.950 1_554 S
C352 C353 1.478 . S
C353 C340 1.394 . S
C353 C352 1.478 . S
C353 C354 1.397 1_554 S
C354 C353 1.397 1_556 S
C354 C355 1.438 . S
C354 C359 1.429 . S
C355 C338 1.394 1_556 S
C355 C354 1.438 . S
C355 C356 1.428 . S
C356 H348 0.949 . S
C356 C355 1.428 . S
C356 C357 1.345 . S
C357 H349 0.950 . S
C357 C356 1.345 . S
C357 C358 1.424 . S
C358 H350 0.951 . S
C358 C357 1.424 . S
C358 C359 1.347 . S
C359 H351 0.951 . S
C359 C354 1.429 . S
C359 C358 1.347 . S
H360 C361 0.951 . S
C361 H360 0.951 . S
C361 C367 1.265 . S
H362 C367 0.950 . S
H363 C371 0.949 . S
H364 C372 0.950 . S
H365 C373 0.951 . S
H366 C374 0.951 . S
C367 C361 1.265 . S
C367 H362 0.950 . S
C367 C368 1.478 . S
C368 C367 1.478 . S
C368 C369 1.397 1_554 S
C368 C385 1.394 . S
C369 C368 1.397 1_556 S
C369 C370 1.438 . S
C369 C374 1.429 . S
C370 C369 1.438 . S
C370 C371 1.428 . S
C370 C383 1.394 1_556 S
C371 H363 0.949 . S
C371 C370 1.428 . S
C371 C372 1.345 . S
C372 H364 0.950 . S
C372 C371 1.345 . S
C372 C373 1.424 . S
C373 H365 0.951 . S
C373 C372 1.424 . S
C373 C374 1.347 . S
C374 H366 0.951 . S
C374 C369 1.429 . S
C374 C373 1.347 . S
H375 C376 0.951 . S
C376 H375 0.951 . S
C376 C382 1.265 . S
H377 C382 0.950 . S
H378 C386 0.949 . S
H379 C387 0.950 . S
H380 C388 0.951 . S
H381 C389 0.951 . S
C382 C376 1.265 . S
C382 H377 0.950 . S
C382 C383 1.478 . S
C383 C370 1.394 1_554 S
C383 C382 1.478 . S
C383 C384 1.397 . S
C384 C383 1.397 . S
C384 C385 1.438 . S
C384 C389 1.429 . S
C385 C368 1.394 . S
C385 C384 1.438 . S
C385 C386 1.428 . S
C386 H378 0.949 . S
C386 C385 1.428 . S
C386 C387 1.345 . S
C387 H379 0.950 . S
C387 C386 1.345 . S
C387 C388 1.424 . S
C388 H380 0.951 . S
C388 C387 1.424 . S
C388 C389 1.347 . S
C389 H381 0.951 . S
C389 C384 1.429 . S
C389 C388 1.347 . S
C121 C15 1.437 . S
C136 C2 1.437 . S
C151 C42 1.417 1_565 S
C166 C55 1.416 1_545 S
C181 C82 1.427 . S
C196 C95 1.427 . S
C211 C9 0.861 . S
C226 C89 0.867 . S
C241 C49 1.948 . S
C256 C3 2.001 . S
C271 C43 2.548 . S
C286 C102 2.592 . S
C301 C26 0.897 . S
C316 C106 0.929 . S
C331 C22 1.960 . S
C346 C66 1.866 . S
C361 C83 2.592 . S
C376 C62 2.547 . S
