# Generated by pormake.
# Topology zfk, (5)-cn, num edge types: 1
# Building blocks:
#     Node 0, Type 0, BuildingBlock: BEQFEK_clean_sbu_0, # of connection points: 5
#     Node 1, Type 0, BuildingBlock: BEQFEK_clean_sbu_0, # of connection points: 5
#     Node 2, Type 0, BuildingBlock: BEQFEK_clean_sbu_0, # of connection points: 5
#     Node 3, Type 0, BuildingBlock: BEQFEK_clean_sbu_0, # of connection points: 5
#     Node 4, Type 0, BuildingBlock: BEQFEK_clean_sbu_0, # of connection points: 5
#     Node 5, Type 0, BuildingBlock: BEQFEK_clean_sbu_0, # of connection points: 5
#     Node 6, Type 0, BuildingBlock: BEQFEK_clean_sbu_0, # of connection points: 5
#     Node 7, Type 0, BuildingBlock: BEQFEK_clean_sbu_0, # of connection points: 5
#     Node 8, Type 0, BuildingBlock: BEQFEK_clean_sbu_0, # of connection points: 5
#     Node 9, Type 0, BuildingBlock: BEQFEK_clean_sbu_0, # of connection points: 5
#     Node 10, Type 0, BuildingBlock: BEQFEK_clean_sbu_0, # of connection points: 5
#     Node 11, Type 0, BuildingBlock: BEQFEK_clean_sbu_0, # of connection points: 5
#     Node 12, Type 0, BuildingBlock: BEQFEK_clean_sbu_0, # of connection points: 5
#     Node 13, Type 0, BuildingBlock: BEQFEK_clean_sbu_0, # of connection points: 5
#     Node 14, Type 0, BuildingBlock: BEQFEK_clean_sbu_0, # of connection points: 5
#     Node 15, Type 0, BuildingBlock: BEQFEK_clean_sbu_0, # of connection points: 5
#     Edge 16, Type (0, 0), None
#     Edge 17, Type (0, 0), None
#     Edge 18, Type (0, 0), None
#     Edge 19, Type (0, 0), None
#     Edge 20, Type (0, 0), None
#     Edge 21, Type (0, 0), None
#     Edge 22, Type (0, 0), None
#     Edge 23, Type (0, 0), None
#     Edge 24, Type (0, 0), None
#     Edge 25, Type (0, 0), None
#     Edge 26, Type (0, 0), None
#     Edge 27, Type (0, 0), None
#     Edge 28, Type (0, 0), None
#     Edge 29, Type (0, 0), None
#     Edge 30, Type (0, 0), None
#     Edge 31, Type (0, 0), None
#     Edge 32, Type (0, 0), None
#     Edge 33, Type (0, 0), None
#     Edge 34, Type (0, 0), None
#     Edge 35, Type (0, 0), None
#     Edge 36, Type (0, 0), None
#     Edge 37, Type (0, 0), None
#     Edge 38, Type (0, 0), None
#     Edge 39, Type (0, 0), None
#     Edge 40, Type (0, 0), None
#     Edge 41, Type (0, 0), None
#     Edge 42, Type (0, 0), None
#     Edge 43, Type (0, 0), None
#     Edge 44, Type (0, 0), None
#     Edge 45, Type (0, 0), None
#     Edge 46, Type (0, 0), None
#     Edge 47, Type (0, 0), None
#     Edge 48, Type (0, 0), None
#     Edge 49, Type (0, 0), None
#     Edge 50, Type (0, 0), None
#     Edge 51, Type (0, 0), None
#     Edge 52, Type (0, 0), None
#     Edge 53, Type (0, 0), None
#     Edge 54, Type (0, 0), None
#     Edge 55, Type (0, 0), None
# Relax obj value: 0.120
# Max RMSD: 0.123
# Mean RMSD: 0.123
data_MOF--net-zfk--node1-BEQFEK_clean_sbu_0--edge1-none
_symmetry_space_group_name_H-M    P1
_symmetry_Int_Tables_number       1
_symmetry_cell_setting            triclinic
loop_
_symmetry_equiv_pos_as_xyz
'x, y, z'
_cell_length_a     15.107941
_cell_length_b     15.107271
_cell_length_c     43.064711
_cell_angle_alpha  89.998174
_cell_angle_beta   90.04189
_cell_angle_gamma 89.988898
loop_
_atom_site_label
_atom_site_type_symbol
_atom_site_fract_x
_atom_site_fract_y
_atom_site_fract_z
_atom_type_partial_charge
Co0 Co 0.00739 0.2426 0.0855 0.0
Co1 Co 0.04229 0.24329 0.15818 0.0
C2 C -0.01621 0.08077 0.12944 0.0
O3 O -0.01337 0.12278 0.1038 0.0
O4 O -0.00694 0.12111 0.15534 0.0
C5 C 0.89723 0.20481 0.0297 0.0
O6 O 0.84053 0.16077 0.04684 0.0
C7 C 0.08123 0.26048 0.22652 0.0
C8 C 0.19484 0.35247 0.22401 0.0
C9 C 0.14115 0.30803 0.24473 0.0
N10 N 0.09842 0.27744 0.19646 0.0
N11 N 0.16703 0.33174 0.19527 0.0
C12 C 0.0067 0.20317 0.2373 0.0
H13 H 0.96776 0.17826 0.21726 0.0
H14 H 0.96292 0.24152 0.25302 0.0
H15 H 0.03361 0.14627 0.25059 0.0
C16 C 0.97135 0.4293 0.10211 0.0
N17 N 0.97497 0.34335 0.11053 0.0
N18 N 0.9774 0.33892 0.1411 0.0
C19 C 0.9713 0.42165 0.15295 0.0
C20 C 0.9705 0.48238 0.12869 0.0
C21 C -0.01971 0.46026 0.06922 0.0
H22 H -0.00966 0.40396 0.05319 0.0
H23 H 0.91969 0.49691 0.06234 0.0
H24 H 0.03743 0.50608 0.06718 0.0
O25 O 0.13493 0.24384 0.08082 0.0
O26 O 0.14364 0.23293 0.13193 0.0
H27 H 0.03843 0.46937 0.19342 0.0
H28 H 0.92221 0.49357 0.19239 0.0
C29 C 0.97263 0.4425 0.18692 0.0
H30 H 0.95798 0.3825 0.20079 0.0
H31 H 0.19399 0.35631 0.17471 0.0
O32 O 0.96249 0.24426 0.04221 0.0
C33 C 0.1794 0.23314 0.10541 0.0
Co34 Co 0.21447 0.00991 0.58541 0.0
Co35 Co 0.21377 0.04457 0.65804 0.0
C36 C 0.37622 -0.01393 0.62941 0.0
O37 O 0.33419 -0.01089 0.60377 0.0
O38 O 0.3359 -0.00479 0.6553 0.0
C39 C 0.24825 0.89628 0.52996 0.0
O40 O 0.28749 0.83653 0.54731 0.0
C41 C 0.19663 0.08273 0.72639 0.0
C42 C 0.10461 0.19638 0.72405 0.0
C43 C 0.1491 0.14237 0.74469 0.0
N44 N 0.17964 0.10038 0.69636 0.0
N45 N 0.12531 0.169 0.69527 0.0
C46 C 0.25392 0.008 0.73707 0.0
H47 H 0.2786 0.96918 0.71697 0.0
H48 H 0.21567 0.96414 0.75279 0.0
H49 H 0.31099 0.0347 0.75032 0.0
C50 C 0.02775 0.97394 0.60197 0.0
N51 N 0.1137 0.97747 0.6104 0.0
N52 N 0.11818 -0.02029 0.64097 0.0
C53 C 0.03547 0.97359 0.65281 0.0
C54 C 0.97471 0.97298 0.62855 0.0
C55 C -0.00322 -0.01704 0.56908 0.0
H56 H 0.05309 -0.00694 0.55307 0.0
H57 H 0.96018 0.92235 0.56218 0.0
H58 H 0.9509 0.04008 0.56703 0.0
O59 O 0.21324 0.13752 0.58059 0.0
O60 O 0.22411 0.14595 0.63172 0.0
H61 H -0.0122 0.04035 0.69334 0.0
H62 H 0.96366 0.92412 0.69221 0.0
C63 C 0.01469 0.97461 0.68678 0.0
H64 H 0.07471 0.95983 0.70064 0.0
H65 H 0.10072 0.19627 0.67474 0.0
O66 O 0.2132 0.96432 0.54224 0.0
C67 C 0.22394 0.18188 0.6052 0.0
Co68 Co 0.44532 0.21494 0.08544 0.0
Co69 Co 0.41188 0.21273 0.15807 0.0
C70 C 0.46905 0.3757 0.13002 0.0
O71 O 0.46537 0.33383 0.10439 0.0
O72 O 0.46079 0.33509 0.15589 0.0
C73 C 0.56059 0.19706 0.02774 0.0
O74 O 0.62696 0.1597 0.04244 0.0
C75 C 0.37379 0.19466 0.22634 0.0
C76 C 0.26062 0.10211 0.22394 0.0
C77 C 0.31424 0.14695 0.24461 0.0
N78 N 0.35643 0.17751 0.19631 0.0
N79 N 0.28812 0.12282 0.19517 0.0
C80 C 0.44806 0.25248 0.23705 0.0
H81 H 0.48703 0.27709 0.21699 0.0
H82 H 0.49191 0.21466 0.25293 0.0
H83 H 0.42086 0.30959 0.25014 0.0
C84 C 0.48103 0.02779 0.10156 0.0
N85 N 0.47854 0.11368 0.11009 0.0
N86 N 0.47728 0.11784 0.14067 0.0
C87 C 0.48347 0.03499 0.1524 0.0
C88 C 0.4828 0.97445 0.12808 0.0
C89 C 0.46897 -0.00257 0.06873 0.0
H90 H 0.45608 0.05404 0.05306 0.0
H91 H 0.52932 0.9619 0.06094 0.0
H92 H 0.41232 0.95094 0.06733 0.0
O93 O 0.31795 0.2129 0.08067 0.0
O94 O 0.31014 0.22328 0.13181 0.0
H95 H 0.41822 -0.01367 0.19309 0.0
H96 H 0.53463 0.96329 0.19158 0.0
C97 C 0.48351 0.01391 0.18636 0.0
H98 H 0.49809 0.07394 0.20023 0.0
H99 H 0.26105 0.09815 0.17462 0.0
O100 O 0.49051 0.21831 0.04222 0.0
C101 C 0.27389 0.22327 0.10534 0.0
Co102 Co 0.24311 0.44845 0.58545 0.0
Co103 Co 0.24418 0.41347 0.65811 0.0
C104 C 0.08148 0.47187 0.62949 0.0
O105 O 0.1234 0.46903 0.60385 0.0
O106 O 0.12193 0.46263 0.65538 0.0
C107 C 0.20627 0.56042 0.52991 0.0
O108 O 0.1641 0.61815 0.54722 0.0
C109 C 0.2617 0.37433 0.72642 0.0
C110 C 0.354 0.26095 0.72386 0.0
C111 C 0.3094 0.31446 0.74461 0.0
N112 N 0.27866 0.35725 0.69635 0.0
N113 N 0.33317 0.28879 0.69514 0.0
C114 C 0.20425 0.44875 0.73723 0.0
H115 H 0.17945 0.48785 0.71721 0.0
H116 H 0.24243 0.49242 0.75305 0.0
H117 H 0.14726 0.4217 0.7504 0.0
C118 C 0.42988 0.48459 0.60208 0.0
N119 N 0.34395 0.48092 0.61049 0.0
N120 N 0.33957 0.47856 0.64106 0.0
C121 C 0.4223 0.48473 0.65292 0.0
C122 C 0.483 0.48549 0.62867 0.0
C123 C 0.46077 0.47576 0.56919 0.0
H124 H 0.4044 0.466 0.55314 0.0
H125 H 0.49758 0.53629 0.56237 0.0
H126 H 0.50643 0.41849 0.5671 0.0
O127 O 0.24444 0.32083 0.58061 0.0
O128 O 0.23383 0.3123 0.63172 0.0
H129 H 0.47026 0.41781 0.6934 0.0
H130 H 0.49413 0.53409 0.69236 0.0
C131 C 0.44319 0.48353 0.68689 0.0
H132 H 0.38318 0.49808 0.70076 0.0
H133 H 0.35778 0.26193 0.67456 0.0
O134 O 0.24425 0.49399 0.54224 0.0
C135 C 0.23389 0.27641 0.60521 0.0
Co136 Co 0.0117 0.21548 0.93806 0.0
Co137 Co 0.04513 0.21319 0.8654 0.0
C138 C -0.01192 0.37624 0.89346 0.0
O139 O -0.00829 0.33436 0.91909 0.0
O140 O -0.00368 0.33564 0.86759 0.0
C141 C 0.89656 0.19671 0.99573 0.0
O142 O 0.8307 0.15851 0.98103 0.0
C143 C 0.08363 0.19535 0.79713 0.0
C144 C 0.19638 0.10224 0.79957 0.0
C145 C 0.14317 0.14753 0.77889 0.0
N146 N 0.10061 0.17784 0.82717 0.0
N147 N 0.16866 0.12281 0.82833 0.0
C148 C 0.00981 0.25372 0.78639 0.0
H149 H 0.97063 0.2782 0.80642 0.0
H150 H 0.96605 0.2164 0.77034 0.0
H151 H 0.0375 0.31091 0.77348 0.0
C152 C 0.97635 0.02837 0.92196 0.0
N153 N 0.97856 0.11424 0.91341 0.0
N154 N -0.0203 0.11838 0.88283 0.0
C155 C 0.97363 0.03551 0.87112 0.0
C156 C 0.97457 0.975 0.89545 0.0
C157 C -0.01117 -0.00192 0.95477 0.0
H158 H 0.00201 0.0547 0.9704 0.0
H159 H 0.92855 0.96266 0.96268 0.0
H160 H 0.04546 0.95152 0.9561 0.0
O161 O 0.13904 0.21344 0.94283 0.0
O162 O 0.14683 0.22372 0.89168 0.0
H163 H 0.03862 -0.01344 0.83042 0.0
H164 H 0.92216 0.96391 0.83198 0.0
C165 C 0.97344 0.01438 0.83717 0.0
H166 H 0.95897 0.07443 0.82328 0.0
H167 H 0.19543 0.09785 0.84888 0.0
O168 O 0.96642 0.21876 0.98127 0.0
C169 C 0.18309 0.22375 0.91815 0.0
Co170 Co 0.24214 0.00958 0.43803 0.0
Co171 Co 0.24398 0.04315 0.36537 0.0
C172 C 0.08124 -0.01442 0.39358 0.0
O173 O 0.12318 -0.0108 0.4192 0.0
O174 O 0.12172 -0.006 0.3677 0.0
C175 C 0.25607 0.89427 0.49599 0.0
O176 O 0.28696 0.82459 0.48136 0.0
C177 C 0.26131 0.08158 0.29706 0.0
C178 C 0.35397 0.19465 0.29946 0.0
C179 C 0.30888 0.14124 0.27879 0.0
N180 N 0.27884 0.09864 0.3271 0.0
N181 N 0.33357 0.16691 0.32822 0.0
C182 C 0.20315 0.00758 0.28635 0.0
H183 H 0.17862 0.96851 0.3064 0.0
H184 H 0.24067 0.96376 0.2704 0.0
H185 H 0.146 0.03508 0.27334 0.0
C186 C 0.42926 0.97379 0.42196 0.0
N187 N 0.34338 0.97652 0.4134 0.0
N188 N 0.33922 0.97817 0.38282 0.0
C189 C 0.42206 0.97208 0.37112 0.0
C190 C 0.48259 0.97237 0.39545 0.0
C191 C 0.4597 -0.0152 0.45484 0.0
H192 H 0.40312 -0.00291 0.47056 0.0
H193 H 0.49521 0.92419 0.46239 0.0
H194 H 0.50628 0.04138 0.45648 0.0
O195 O 0.24392 0.13691 0.44261 0.0
O196 O 0.23319 0.14505 0.39147 0.0
H197 H 0.47071 0.03779 0.33051 0.0
H198 H 0.4938 0.92137 0.3319 0.0
C199 C 0.44316 0.97241 0.33716 0.0
H200 H 0.38315 0.95794 0.32325 0.0
H201 H 0.35848 0.1938 0.34876 0.0
O202 O 0.23935 0.96533 0.48136 0.0
C203 C 0.23329 0.18108 0.41797 0.0
Co204 Co 0.44956 0.24319 0.93801 0.0
Co205 Co 0.41466 0.24399 0.86532 0.0
C206 C 0.47327 0.08142 0.89406 0.0
O207 O 0.47042 0.12343 0.9197 0.0
O208 O 0.46393 0.12176 0.86816 0.0
C209 C 0.55988 0.20542 0.99378 0.0
O210 O 0.61688 0.16188 0.9766 0.0
C211 C 0.37529 0.26105 0.79698 0.0
C212 C 0.26207 0.35354 0.79953 0.0
C213 C 0.31539 0.30872 0.77879 0.0
N214 N 0.35846 0.27829 0.82705 0.0
N215 N 0.29008 0.33291 0.82826 0.0
C216 C 0.44944 0.20327 0.78617 0.0
H217 H 0.48858 0.17846 0.80618 0.0
H218 H 0.49314 0.24119 0.7703 0.0
H219 H 0.4221 0.14629 0.77303 0.0
C220 C 0.48584 0.42989 0.92144 0.0
N221 N 0.48202 0.34397 0.913 0.0
N222 N 0.47951 0.33959 0.88244 0.0
C223 C 0.48575 0.42232 0.8706 0.0
C224 C 0.48674 0.48301 0.89486 0.0
C225 C 0.4771 0.46082 0.95434 0.0
H226 H 0.46709 0.40452 0.97036 0.0
H227 H 0.53778 0.49739 0.96118 0.0
H228 H 0.42002 0.50672 0.95642 0.0
O229 O 0.32203 0.24441 0.94267 0.0
O230 O 0.31332 0.23353 0.89156 0.0
H231 H 0.41863 0.47037 0.83016 0.0
H232 H 0.53494 0.49412 0.83115 0.0
C233 C 0.48436 0.44323 0.83663 0.0
H234 H 0.49876 0.3832 0.82274 0.0
H235 H 0.26338 0.35771 0.84883 0.0
O236 O 0.4944 0.24464 0.98131 0.0
C237 C 0.27756 0.23369 0.91808 0.0
Co238 Co 0.2148 0.44697 0.43801 0.0
Co239 Co 0.21247 0.41333 0.36532 0.0
C240 C 0.37553 0.47055 0.39347 0.0
O241 O 0.33366 0.46706 0.4191 0.0
O242 O 0.33493 0.46216 0.36759 0.0
C243 C 0.19801 0.5619 0.49594 0.0
O244 O 0.16229 0.6294 0.48137 0.0
C245 C 0.1945 0.37404 0.29706 0.0
C246 C 0.10148 0.2613 0.29968 0.0
C247 C 0.14665 0.31424 0.27891 0.0
N248 N 0.17709 0.35749 0.32713 0.0
N249 N 0.12212 0.28942 0.32839 0.0
C250 C 0.25283 0.44771 0.28621 0.0
H251 H 0.27758 0.48699 0.30619 0.0
H252 H 0.21535 0.49143 0.27019 0.0
H253 H 0.30982 0.41987 0.27324 0.0
C254 C 0.02765 0.48252 0.42192 0.0
N255 N 0.11349 0.48005 0.41336 0.0
N256 N 0.11754 0.47862 0.38277 0.0
C257 C 0.03465 0.48472 0.37107 0.0
C258 C 0.9742 0.48414 0.3954 0.0
C259 C -0.0026 0.47067 0.45476 0.0
H260 H 0.05405 0.45766 0.47041 0.0
H261 H 0.96217 0.53119 0.46255 0.0
H262 H 0.95067 0.41421 0.45621 0.0
O263 O 0.21289 0.31964 0.44266 0.0
O264 O 0.22321 0.31165 0.39151 0.0
H265 H -0.0144 0.41931 0.33044 0.0
H266 H 0.96293 0.5358 0.33188 0.0
C267 C 0.01342 0.48457 0.33712 0.0
H268 H 0.07343 0.49886 0.32321 0.0
H269 H 0.09723 0.26292 0.34898 0.0
O270 O 0.21804 0.49171 0.4813 0.0
C271 C 0.22327 0.27552 0.41799 0.0
Co272 Co 0.94989 0.71459 0.93803 0.0
Co273 Co 0.91501 0.71391 0.86535 0.0
C274 C 0.97354 0.87641 0.89409 0.0
O275 O 0.97068 0.8344 0.91973 0.0
O276 O 0.96426 0.83608 0.86819 0.0
C277 C 0.06004 0.75238 0.99383 0.0
O278 O 0.11674 0.79641 0.97669 0.0
C279 C 0.87603 0.69673 0.79702 0.0
C280 C 0.76242 0.60475 0.79953 0.0
C281 C 0.81609 0.64919 0.77881 0.0
N282 N 0.85886 0.67976 0.82708 0.0
N283 N 0.79025 0.62547 0.82827 0.0
C284 C 0.95056 0.75403 0.78623 0.0
H285 H -0.01048 0.77893 0.80627 0.0
H286 H -0.00568 0.71568 0.7705 0.0
H287 H 0.92364 0.81094 0.77295 0.0
C288 C -0.01408 0.52788 0.92142 0.0
N289 N -0.0177 0.61383 0.913 0.0
N290 N -0.02012 0.61826 0.88243 0.0
C291 C -0.01402 0.53554 0.87058 0.0
C292 C -0.01323 0.47481 0.89484 0.0
C293 C 0.97698 0.49692 0.95431 0.0
H294 H 0.96692 0.55322 0.97034 0.0
H295 H 0.03759 0.46028 0.96119 0.0
H296 H 0.91985 0.45109 0.95635 0.0
O297 O 0.82235 0.71337 0.94271 0.0
O298 O 0.81366 0.7243 0.8916 0.0
H299 H 0.91885 0.48782 0.83011 0.0
H300 H 0.03508 0.46362 0.83114 0.0
C301 C -0.01535 0.51469 0.83661 0.0
H302 H -0.0007 0.57469 0.82274 0.0
H303 H 0.7633 0.6009 0.84884 0.0
O304 O -0.00522 0.71292 0.98132 0.0
C305 C 0.77789 0.72409 0.91812 0.0
Co306 Co 0.74293 0.94739 0.43812 0.0
Co307 Co 0.74363 0.91265 0.36549 0.0
C308 C 0.58118 0.97116 0.39411 0.0
O309 O 0.62319 0.96815 0.41975 0.0
O310 O 0.62151 0.96202 0.36822 0.0
C311 C 0.70825 0.06067 0.49353 0.0
O312 O 0.66803 0.1197 0.47616 0.0
C313 C 0.76076 0.87446 0.29715 0.0
C314 C 0.85274 0.76078 0.29949 0.0
C315 C 0.80827 0.8148 0.27884 0.0
N316 N 0.77774 0.85681 0.32718 0.0
N317 N 0.83205 0.78817 0.32827 0.0
C318 C 0.70349 0.94922 0.28647 0.0
H319 H 0.67885 -0.01195 0.30657 0.0
H320 H 0.74176 -0.00695 0.27075 0.0
H321 H 0.6464 0.92254 0.27323 0.0
C322 C 0.92965 -0.01674 0.42154 0.0
N323 N 0.8437 -0.02023 0.41312 0.0
N324 N 0.83922 0.97753 0.38255 0.0
C325 C 0.92192 -0.01638 0.37071 0.0
C326 C -0.01732 -0.01579 0.39496 0.0
C327 C 0.96062 0.97422 0.45444 0.0
H328 H 0.90431 0.96411 0.47045 0.0
H329 H -0.00278 0.03482 0.46134 0.0
H330 H 0.0065 0.9171 0.45648 0.0
O331 O 0.74412 0.81978 0.44295 0.0
O332 O 0.73328 0.81133 0.39183 0.0
H333 H 0.96958 0.91685 0.33018 0.0
H334 H -0.00627 0.03307 0.3313 0.0
C335 C 0.9427 -0.01741 0.33673 0.0
H336 H 0.88267 -0.00262 0.32288 0.0
H337 H 0.85664 0.7609 0.3488 0.0
O338 O 0.74423 -0.00692 0.48127 0.0
C339 C 0.73342 0.77541 0.41835 0.0
Co340 Co 0.51197 0.74233 0.93808 0.0
Co341 Co 0.54543 0.74454 0.86544 0.0
C342 C 0.48822 0.58157 0.8935 0.0
O343 O 0.4919 0.62343 0.91913 0.0
O344 O 0.49651 0.62217 0.86763 0.0
C345 C 0.39669 0.76016 0.99578 0.0
O346 O 0.33028 0.79745 0.98108 0.0
C347 C 0.58351 0.76263 0.79717 0.0
C348 C 0.6967 0.85515 0.79958 0.0
C349 C 0.64307 0.81034 0.77891 0.0
N350 N 0.60089 0.77976 0.82721 0.0
N351 N 0.66921 0.83443 0.82834 0.0
C352 C 0.50923 0.70483 0.78646 0.0
H353 H 0.47027 0.68021 0.80652 0.0
H354 H 0.46537 0.74267 0.77059 0.0
H355 H 0.5364 0.64773 0.77336 0.0
C356 C 0.47624 0.92947 0.92196 0.0
N357 N 0.47875 0.84359 0.91343 0.0
N358 N 0.48004 0.83943 0.88284 0.0
C359 C 0.47384 0.92228 0.87112 0.0
C360 C 0.47448 -0.01718 0.89544 0.0
C361 C 0.48826 0.95983 0.95478 0.0
H362 H 0.50113 0.90323 0.97046 0.0
H363 H 0.42791 -0.00463 0.96257 0.0
H364 H 0.54492 0.00631 0.9562 0.0
O365 O 0.63933 0.74435 0.94285 0.0
O366 O 0.64716 0.73397 0.8917 0.0
H367 H 0.53912 0.97094 0.83044 0.0
H368 H 0.42271 -0.00601 0.83194 0.0
C369 C 0.47382 0.94337 0.83716 0.0
H370 H 0.45923 0.88334 0.82329 0.0
H371 H 0.69629 0.85909 0.84889 0.0
O372 O 0.46679 0.73896 0.9813 0.0
C373 C 0.6834 0.73398 0.91818 0.0
Co374 Co 0.714 0.50885 0.4381 0.0
Co375 Co 0.71297 0.54384 0.36544 0.0
C376 C 0.87561 0.48529 0.39406 0.0
O377 O 0.83369 0.48817 0.4197 0.0
O378 O 0.83518 0.49457 0.36817 0.0
C379 C 0.75063 0.39676 0.49364 0.0
O380 O 0.79263 0.33891 0.47632 0.0
C381 C 0.69549 0.58298 0.29713 0.0
C382 C 0.60324 0.69641 0.29967 0.0
C383 C 0.64781 0.64286 0.27894 0.0
N384 N 0.67853 0.60008 0.3272 0.0
N385 N 0.62406 0.66857 0.3284 0.0
C386 C 0.7529 0.50852 0.28632 0.0
H387 H 0.77767 0.46941 0.30635 0.0
H388 H 0.71471 0.46487 0.2705 0.0
H389 H 0.80991 0.53554 0.27315 0.0
C390 C 0.52721 0.47278 0.42147 0.0
N391 N 0.61314 0.47646 0.41306 0.0
N392 N 0.61752 0.47883 0.38249 0.0
C393 C 0.53479 0.47267 0.37063 0.0
C394 C 0.4741 0.47189 0.39487 0.0
C395 C 0.49632 0.48157 0.45436 0.0
H396 H 0.55268 0.49137 0.4704 0.0
H397 H 0.45956 0.42101 0.46118 0.0
H398 H 0.45061 0.5388 0.45646 0.0
O399 O 0.7128 0.63648 0.44295 0.0
O400 O 0.72342 0.64499 0.39183 0.0
H401 H 0.48687 0.53961 0.33015 0.0
H402 H 0.46296 0.42334 0.33118 0.0
C403 C 0.51391 0.47389 0.33666 0.0
H404 H 0.57393 0.45932 0.32279 0.0
H405 H 0.59946 0.69545 0.34898 0.0
O406 O 0.71283 0.4633 0.48131 0.0
C407 C 0.72339 0.68088 0.41835 0.0
Co408 Co 0.9456 0.7417 0.08548 0.0
Co409 Co 0.91218 0.74399 0.15813 0.0
C410 C 0.96921 0.58094 0.13007 0.0
O411 O 0.96557 0.62282 0.10444 0.0
O412 O 0.96097 0.62154 0.15594 0.0
C413 C 0.06072 0.76047 0.0278 0.0
O414 O 0.12658 0.79867 0.0425 0.0
C415 C 0.8737 0.76182 0.2264 0.0
C416 C 0.76098 0.85495 0.22397 0.0
C417 C 0.81418 0.80965 0.24465 0.0
N418 N 0.85672 0.77934 0.19636 0.0
N419 N 0.78868 0.83439 0.19521 0.0
C420 C 0.94752 0.70343 0.23714 0.0
H421 H -0.01331 0.67895 0.21711 0.0
H422 H -0.00871 0.74073 0.25319 0.0
H423 H 0.91982 0.64624 0.25005 0.0
C424 C -0.01903 0.92881 0.10157 0.0
N425 N -0.02125 0.84294 0.11012 0.0
N426 N 0.97762 0.8388 0.14071 0.0
C427 C -0.01631 0.92167 0.15241 0.0
C428 C -0.01724 -0.01782 0.12808 0.0
C429 C 0.96848 0.95911 0.06876 0.0
H430 H 0.95528 0.90248 0.05313 0.0
H431 H 0.02875 -0.00548 0.06085 0.0
H432 H 0.91185 0.00566 0.06744 0.0
O433 O 0.81825 0.74377 0.08071 0.0
O434 O 0.81046 0.73349 0.13186 0.0
H435 H 0.91871 0.97062 0.19312 0.0
H436 H 0.03517 -0.00672 0.19155 0.0
C437 C -0.01611 0.9428 0.18637 0.0
H438 H -0.00164 0.88275 0.20025 0.0
H439 H 0.76191 0.85936 0.17466 0.0
O440 O -0.00913 0.73843 0.04226 0.0
C441 C 0.7742 0.73347 0.10538 0.0
Co442 Co 0.71524 0.94759 0.58548 0.0
Co443 Co 0.71339 0.91411 0.65814 0.0
C444 C 0.87615 0.97161 0.62994 0.0
O445 O 0.83421 0.96796 0.60431 0.0
O446 O 0.83567 0.96322 0.65582 0.0
C447 C 0.70032 0.06266 0.52749 0.0
O448 O 0.66799 0.13177 0.54208 0.0
C449 C 0.69603 0.8757 0.72645 0.0
C450 C 0.60329 0.76269 0.72405 0.0
C451 C 0.64842 0.81607 0.74472 0.0
N452 N 0.67849 0.85866 0.69642 0.0
N453 N 0.62371 0.79042 0.69529 0.0
C454 C 0.75424 0.94965 0.73717 0.0
H455 H 0.7788 -0.01129 0.71712 0.0
H456 H 0.71675 -0.0065 0.75312 0.0
H457 H 0.81137 0.92211 0.75018 0.0
C458 C 0.52811 -0.01673 0.60154 0.0
N459 N 0.614 -0.01935 0.6101 0.0
N460 N 0.61819 -0.02087 0.64068 0.0
C461 C 0.53535 -0.01477 0.65239 0.0
C462 C 0.4748 -0.01518 0.62806 0.0
C463 C 0.49767 0.97196 0.56868 0.0
H464 H 0.55422 0.95908 0.553 0.0
H465 H 0.46259 0.03272 0.56101 0.0
H466 H 0.45071 0.91568 0.56711 0.0
O467 O 0.71344 0.82027 0.5809 0.0
O468 O 0.72414 0.8122 0.63204 0.0
H469 H 0.48668 0.91971 0.69303 0.0
H470 H 0.46367 0.03614 0.69159 0.0
C471 C 0.51427 -0.01496 0.68635 0.0
H472 H 0.5743 -0.00048 0.70025 0.0
H473 H 0.59878 0.76356 0.67475 0.0
O474 O 0.71807 -0.00811 0.54216 0.0
C475 C 0.72404 0.77613 0.60555 0.0
Co476 Co 0.50773 0.71408 0.08551 0.0
Co477 Co 0.54261 0.71328 0.15821 0.0
C478 C 0.48399 0.87585 0.12946 0.0
O479 O 0.48685 0.83384 0.10382 0.0
O480 O 0.49335 0.83552 0.15536 0.0
C481 C 0.39741 0.7518 0.02974 0.0
O482 O 0.34037 0.7953 0.04692 0.0
C483 C 0.58195 0.69626 0.22655 0.0
C484 C 0.69513 0.60372 0.22401 0.0
C485 C 0.64183 0.64857 0.24475 0.0
N486 N 0.59878 0.67898 0.19649 0.0
N487 N 0.66714 0.62434 0.19529 0.0
C488 C 0.50782 0.75408 0.23736 0.0
H489 H 0.46869 0.77887 0.21734 0.0
H490 H 0.46411 0.71618 0.25324 0.0
H491 H 0.53518 0.81106 0.25049 0.0
C492 C 0.47144 0.52738 0.10208 0.0
N493 N 0.47526 0.61331 0.11052 0.0
N494 N 0.47776 0.61768 0.14109 0.0
C495 C 0.47152 0.53495 0.15292 0.0
C496 C 0.47054 0.47426 0.12866 0.0
C497 C 0.48019 0.49645 0.06918 0.0
H498 H 0.49022 0.55276 0.05316 0.0
H499 H 0.41951 0.4599 0.06234 0.0
H500 H 0.53726 0.45055 0.0671 0.0
O501 O 0.63527 0.71286 0.08086 0.0
O502 O 0.64397 0.72372 0.13198 0.0
H503 H 0.53862 0.48688 0.19336 0.0
H504 H 0.42231 0.46314 0.19237 0.0
C505 C 0.4729 0.51403 0.18689 0.0
H506 H 0.4585 0.57405 0.20078 0.0
H507 H 0.69384 0.59952 0.17471 0.0
O508 O 0.46291 0.71263 0.04221 0.0
C509 C 0.67973 0.72355 0.10545 0.0
Co510 Co 0.74231 0.51021 0.58554 0.0
Co511 Co 0.74466 0.54392 0.65823 0.0
C512 C 0.58157 0.48677 0.63007 0.0
O513 O 0.62343 0.49021 0.60445 0.0
O514 O 0.62217 0.49518 0.65595 0.0
C515 C 0.75887 0.39522 0.5276 0.0
O516 O 0.79432 0.32759 0.54217 0.0
C517 C 0.76268 0.5832 0.72648 0.0
C518 C 0.85571 0.69594 0.72386 0.0
C519 C 0.81055 0.64299 0.74463 0.0
N520 N 0.78007 0.59977 0.69641 0.0
N521 N 0.83504 0.66783 0.69515 0.0
C522 C 0.70437 0.50952 0.73734 0.0
H523 H 0.67959 0.47026 0.71736 0.0
H524 H 0.74187 0.4658 0.75335 0.0
H525 H 0.64739 0.53736 0.75032 0.0
C526 C 0.92944 0.47456 0.60164 0.0
N527 N 0.84359 0.47707 0.61019 0.0
N528 N 0.83955 0.47854 0.64078 0.0
C529 C 0.92244 0.47244 0.65248 0.0
C530 C -0.01712 0.47297 0.62815 0.0
C531 C 0.95968 0.48635 0.5688 0.0
H532 H 0.90303 0.49921 0.55313 0.0
H533 H -0.00496 0.42586 0.56103 0.0
H534 H 0.00631 0.54289 0.56732 0.0
O535 O 0.74433 0.63753 0.58088 0.0
O536 O 0.73401 0.64559 0.63203 0.0
H537 H 0.97149 0.53792 0.6931 0.0
H538 H -0.00582 0.42143 0.69168 0.0
C539 C 0.94368 0.47265 0.68643 0.0
H540 H 0.88368 0.45836 0.70035 0.0
H541 H 0.85991 0.69434 0.67456 0.0
O542 O 0.73904 0.46547 0.54224 0.0
C543 C 0.73399 0.68168 0.60554 0.0
loop_
_geom_bond_atom_site_label_1
_geom_bond_atom_site_label_2
_geom_bond_distance
_geom_bond_site_symmetry_2
_ccdc_geom_bond_type
Co0 O3 1.976 . S
Co0 N17 1.989 . S
Co0 O25 1.967 . S
Co0 O32 1.920 . S
Co1 O4 1.966 . S
Co1 N10 2.022 . S
Co1 N18 1.993 . S
Co1 O26 1.941 . S
C2 O3 1.259 . S
C2 O4 1.263 . S
O3 Co0 1.976 . S
O3 C2 1.259 . S
O4 Co1 1.966 . S
O4 C2 1.263 . S
C5 O6 1.235 . S
C5 O32 1.289 1_655 S
O6 C5 1.235 . S
C7 C9 1.400 . S
C7 N10 1.351 . S
C7 C12 1.501 1_455 S
C8 C9 1.387 . S
C8 N11 1.341 . S
C9 C7 1.400 . S
C9 C8 1.387 . S
N10 Co1 2.022 . S
N10 C7 1.351 . S
N10 N11 1.365 . S
N11 C8 1.341 . S
N11 N10 1.365 . S
N11 H31 0.862 . S
C12 C7 1.501 1_655 S
C12 H13 0.961 . S
C12 H14 0.961 . S
C12 H15 0.960 . S
H13 C12 0.961 . S
H14 C12 0.961 . S
H15 C12 0.960 . S
C16 N17 1.342 . S
C16 C20 1.401 . S
C16 C21 1.499 . S
N17 Co0 1.989 . S
N17 C16 1.342 . S
N17 N18 1.388 . S
N18 Co1 1.993 . S
N18 N17 1.388 . S
N18 C19 1.346 . S
C19 N18 1.346 . S
C19 C20 1.396 . S
C19 C29 1.510 . S
C20 C16 1.401 . S
C20 C19 1.396 . S
C21 C16 1.499 . S
C21 H22 0.959 . S
C21 H23 0.960 1_455 S
C21 H24 0.961 . S
H22 C21 0.959 . S
H23 C21 0.960 1_655 S
H24 C21 0.961 . S
O25 Co0 1.967 . S
O25 C33 1.258 . S
O26 Co1 1.941 . S
O26 C33 1.266 . S
H27 C29 0.959 . S
H28 C29 0.961 1_655 S
C29 C19 1.510 . S
C29 H27 0.959 . S
C29 H28 0.961 1_455 S
C29 H30 0.960 . S
H30 C29 0.960 . S
H31 N11 0.862 . S
O32 Co0 1.920 . S
O32 C5 1.289 1_455 S
C33 O25 1.258 . S
C33 O26 1.266 . S
Co34 O37 1.976 . S
Co34 N51 1.989 . S
Co34 O59 1.967 . S
Co34 O66 1.920 . S
Co35 O38 1.966 . S
Co35 N44 2.022 . S
Co35 N52 1.993 . S
Co35 O60 1.941 . S
C36 O37 1.259 . S
C36 O38 1.263 . S
O37 Co34 1.976 . S
O37 C36 1.259 . S
O38 Co35 1.966 . S
O38 C36 1.263 . S
C39 O40 1.235 . S
C39 O66 1.289 1_565 S
O40 C39 1.235 . S
C41 C43 1.400 . S
C41 N44 1.351 . S
C41 C46 1.501 1_545 S
C42 C43 1.387 . S
C42 N45 1.341 . S
C43 C41 1.400 . S
C43 C42 1.387 . S
N44 Co35 2.022 . S
N44 C41 1.351 . S
N44 N45 1.365 . S
N45 C42 1.341 . S
N45 N44 1.365 . S
N45 H65 0.862 . S
C46 C41 1.501 1_565 S
C46 H47 0.961 . S
C46 H48 0.961 . S
C46 H49 0.960 . S
H47 C46 0.961 . S
H48 C46 0.961 . S
H49 C46 0.960 . S
C50 N51 1.342 . S
C50 C54 1.401 1_455 S
C50 C55 1.499 1_455 S
N51 Co34 1.989 . S
N51 C50 1.342 . S
N51 N52 1.388 . S
N52 Co35 1.993 . S
N52 N51 1.388 . S
N52 C53 1.346 1_455 S
C53 N52 1.346 1_655 S
C53 C54 1.396 . S
C53 C63 1.510 . S
C54 C50 1.401 1_655 S
C54 C53 1.396 . S
C55 C50 1.499 1_655 S
C55 H56 0.959 1_655 S
C55 H57 0.960 1_545 S
C55 H58 0.961 . S
H56 C55 0.959 1_455 S
H57 C55 0.960 1_565 S
H58 C55 0.961 . S
O59 Co34 1.967 . S
O59 C67 1.258 . S
O60 Co35 1.941 . S
O60 C67 1.266 . S
H61 C63 0.959 . S
H62 C63 0.961 1_565 S
C63 C53 1.510 . S
C63 H61 0.959 . S
C63 H62 0.961 1_545 S
C63 H64 0.960 1_655 S
H64 C63 0.960 1_455 S
H65 N45 0.862 . S
O66 Co34 1.920 . S
O66 C39 1.289 1_545 S
C67 O59 1.258 . S
C67 O60 1.266 . S
Co68 O71 1.970 . S
Co68 N85 1.989 . S
Co68 O93 1.967 . S
Co68 O100 1.920 . S
Co69 O72 1.966 . S
Co69 N78 2.022 . S
Co69 N86 1.993 . S
Co69 O94 1.941 . S
C70 O71 1.258 . S
C70 O72 1.263 . S
O71 Co68 1.970 . S
O71 C70 1.258 . S
O72 Co69 1.966 . S
O72 C70 1.263 . S
C73 O74 1.235 . S
C73 O100 1.289 . S
O74 C73 1.235 . S
C75 C77 1.400 . S
C75 N78 1.351 . S
C75 C80 1.501 . S
C76 C77 1.387 . S
C76 N79 1.341 . S
C77 C75 1.400 . S
C77 C76 1.387 . S
N78 Co69 2.022 . S
N78 C75 1.351 . S
N78 N79 1.365 . S
N79 C76 1.341 . S
N79 N78 1.365 . S
N79 H99 0.862 . S
C80 C75 1.501 . S
C80 H81 0.961 . S
C80 H82 0.961 . S
C80 H83 0.960 . S
H81 C80 0.961 . S
H82 C80 0.961 . S
H83 C80 0.960 . S
C84 N85 1.342 . S
C84 C88 1.401 1_545 S
C84 C89 1.499 1_545 S
N85 Co68 1.989 . S
N85 C84 1.342 . S
N85 N86 1.388 . S
N86 Co69 1.993 . S
N86 N85 1.388 . S
N86 C87 1.346 1_545 S
C87 N86 1.346 1_565 S
C87 C88 1.396 . S
C87 C97 1.510 . S
C88 C84 1.401 1_565 S
C88 C87 1.396 . S
C89 C84 1.499 1_565 S
C89 H90 0.959 1_565 S
C89 H91 0.960 . S
C89 H92 0.961 . S
H90 C89 0.959 1_545 S
H91 C89 0.960 . S
H92 C89 0.961 . S
O93 Co68 1.967 . S
O93 C101 1.258 . S
O94 Co69 1.941 . S
O94 C101 1.266 . S
H95 C97 0.959 . S
H96 C97 0.961 . S
C97 C87 1.510 . S
C97 H95 0.959 . S
C97 H96 0.961 . S
C97 H98 0.960 1_565 S
H98 C97 0.960 1_545 S
H99 N79 0.862 . S
O100 Co68 1.920 . S
O100 C73 1.289 . S
C101 O93 1.258 . S
C101 O94 1.266 . S
Co102 O105 1.970 . S
Co102 N119 1.989 . S
Co102 O127 1.967 . S
Co102 O134 1.920 . S
Co103 O106 1.966 . S
Co103 N112 2.022 . S
Co103 N120 1.993 . S
Co103 O128 1.941 . S
C104 O105 1.258 . S
C104 O106 1.263 . S
O105 Co102 1.970 . S
O105 C104 1.258 . S
O106 Co103 1.966 . S
O106 C104 1.263 . S
C107 O108 1.235 . S
C107 O134 1.289 . S
O108 C107 1.235 . S
C109 C111 1.400 . S
C109 N112 1.351 . S
C109 C114 1.501 . S
C110 C111 1.387 . S
C110 N113 1.341 . S
C111 C109 1.400 . S
C111 C110 1.387 . S
N112 Co103 2.022 . S
N112 C109 1.351 . S
N112 N113 1.365 . S
N113 C110 1.341 . S
N113 N112 1.365 . S
N113 H133 0.862 . S
C114 C109 1.501 . S
C114 H115 0.961 . S
C114 H116 0.961 . S
C114 H117 0.960 . S
H115 C114 0.961 . S
H116 C114 0.961 . S
H117 C114 0.960 . S
C118 N119 1.342 . S
C118 C122 1.401 . S
C118 C123 1.499 . S
N119 Co102 1.989 . S
N119 C118 1.342 . S
N119 N120 1.388 . S
N120 Co103 1.993 . S
N120 N119 1.388 . S
N120 C121 1.346 . S
C121 N120 1.346 . S
C121 C122 1.396 . S
C121 C131 1.510 . S
C122 C118 1.401 . S
C122 C121 1.396 . S
C123 C118 1.499 . S
C123 H124 0.959 . S
C123 H125 0.960 . S
C123 H126 0.961 . S
H124 C123 0.959 . S
H125 C123 0.960 . S
H126 C123 0.961 . S
O127 Co102 1.967 . S
O127 C135 1.258 . S
O128 Co103 1.941 . S
O128 C135 1.266 . S
H129 C131 0.959 . S
H130 C131 0.961 . S
C131 C121 1.510 . S
C131 H129 0.959 . S
C131 H130 0.961 . S
C131 H132 0.960 . S
H132 C131 0.960 . S
H133 N113 0.862 . S
O134 Co102 1.920 . S
O134 C107 1.289 . S
C135 O127 1.258 . S
C135 O128 1.266 . S
Co136 O139 1.976 . S
Co136 N153 1.989 . S
Co136 O161 1.967 . S
Co136 O168 1.920 . S
Co137 O140 1.966 . S
Co137 N146 2.022 . S
Co137 N154 1.993 . S
Co137 O162 1.941 . S
C138 O139 1.259 . S
C138 O140 1.263 . S
O139 Co136 1.976 . S
O139 C138 1.259 . S
O140 Co137 1.966 . S
O140 C138 1.263 . S
C141 O142 1.235 . S
C141 O168 1.289 1_655 S
O142 C141 1.235 . S
C143 C145 1.400 . S
C143 N146 1.351 . S
C143 C148 1.501 1_455 S
C144 C145 1.387 . S
C144 N147 1.341 . S
C145 C143 1.400 . S
C145 C144 1.387 . S
N146 Co137 2.022 . S
N146 C143 1.351 . S
N146 N147 1.365 . S
N147 C144 1.341 . S
N147 N146 1.365 . S
N147 H167 0.862 . S
C148 C143 1.501 1_655 S
C148 H149 0.961 . S
C148 H150 0.961 . S
C148 H151 0.960 . S
H149 C148 0.961 . S
H150 C148 0.961 . S
H151 C148 0.960 . S
C152 N153 1.342 . S
C152 C156 1.401 1_545 S
C152 C157 1.499 1_545 S
N153 Co136 1.989 . S
N153 C152 1.342 . S
N153 N154 1.388 . S
N154 Co137 1.993 . S
N154 N153 1.388 . S
N154 C155 1.346 1_545 S
C155 N154 1.346 1_565 S
C155 C156 1.396 . S
C155 C165 1.510 . S
C156 C152 1.401 1_565 S
C156 C155 1.396 . S
C157 C152 1.499 1_565 S
C157 H158 0.959 1_565 S
C157 H159 0.960 1_455 S
C157 H160 0.961 . S
H158 C157 0.959 1_545 S
H159 C157 0.960 1_655 S
H160 C157 0.961 . S
O161 Co136 1.967 . S
O161 C169 1.258 . S
O162 Co137 1.941 . S
O162 C169 1.266 . S
H163 C165 0.959 . S
H164 C165 0.961 1_655 S
C165 C155 1.510 . S
C165 H163 0.959 . S
C165 H164 0.961 1_455 S
C165 H166 0.960 1_565 S
H166 C165 0.960 1_545 S
H167 N147 0.862 . S
O168 Co136 1.920 . S
O168 C141 1.289 1_455 S
C169 O161 1.258 . S
C169 O162 1.266 . S
Co170 O173 1.976 . S
Co170 N187 1.989 . S
Co170 O195 1.967 . S
Co170 O202 1.920 . S
Co171 O174 1.966 . S
Co171 N180 2.022 . S
Co171 N188 1.993 . S
Co171 O196 1.941 . S
C172 O173 1.259 . S
C172 O174 1.263 . S
O173 Co170 1.976 . S
O173 C172 1.259 . S
O174 Co171 1.966 . S
O174 C172 1.263 . S
C175 O176 1.235 . S
C175 O202 1.289 1_565 S
O176 C175 1.235 . S
C177 C179 1.400 . S
C177 N180 1.351 . S
C177 C182 1.501 1_545 S
C178 C179 1.387 . S
C178 N181 1.341 . S
C179 C177 1.400 . S
C179 C178 1.387 . S
N180 Co171 2.022 . S
N180 C177 1.351 . S
N180 N181 1.365 . S
N181 C178 1.341 . S
N181 N180 1.365 . S
N181 H201 0.862 . S
C182 C177 1.501 1_565 S
C182 H183 0.961 . S
C182 H184 0.961 . S
C182 H185 0.960 . S
H183 C182 0.961 . S
H184 C182 0.961 . S
H185 C182 0.960 . S
C186 N187 1.342 . S
C186 C190 1.401 . S
C186 C191 1.499 . S
N187 Co170 1.989 . S
N187 C186 1.342 . S
N187 N188 1.388 . S
N188 Co171 1.993 . S
N188 N187 1.388 . S
N188 C189 1.346 . S
C189 N188 1.346 . S
C189 C190 1.396 . S
C189 C199 1.510 . S
C190 C186 1.401 . S
C190 C189 1.396 . S
C191 C186 1.499 . S
C191 H192 0.959 . S
C191 H193 0.960 1_545 S
C191 H194 0.961 . S
H192 C191 0.959 . S
H193 C191 0.960 1_565 S
H194 C191 0.961 . S
O195 Co170 1.967 . S
O195 C203 1.258 . S
O196 Co171 1.941 . S
O196 C203 1.266 . S
H197 C199 0.959 . S
H198 C199 0.961 1_565 S
C199 C189 1.510 . S
C199 H197 0.959 . S
C199 H198 0.961 1_545 S
C199 H200 0.960 . S
H200 C199 0.960 . S
H201 N181 0.862 . S
O202 Co170 1.920 . S
O202 C175 1.289 1_545 S
C203 O195 1.258 . S
C203 O196 1.266 . S
Co204 O207 1.970 . S
Co204 N221 1.989 . S
Co204 O229 1.967 . S
Co204 O236 1.920 . S
Co205 O208 1.966 . S
Co205 N214 2.022 . S
Co205 N222 1.993 . S
Co205 O230 1.941 . S
C206 O207 1.258 . S
C206 O208 1.263 . S
O207 Co204 1.970 . S
O207 C206 1.258 . S
O208 Co205 1.966 . S
O208 C206 1.263 . S
C209 O210 1.235 . S
C209 O236 1.289 . S
O210 C209 1.235 . S
C211 C213 1.400 . S
C211 N214 1.351 . S
C211 C216 1.501 . S
C212 C213 1.387 . S
C212 N215 1.341 . S
C213 C211 1.400 . S
C213 C212 1.387 . S
N214 Co205 2.022 . S
N214 C211 1.351 . S
N214 N215 1.365 . S
N215 C212 1.341 . S
N215 N214 1.365 . S
N215 H235 0.862 . S
C216 C211 1.501 . S
C216 H217 0.961 . S
C216 H218 0.961 . S
C216 H219 0.960 . S
H217 C216 0.961 . S
H218 C216 0.961 . S
H219 C216 0.960 . S
C220 N221 1.342 . S
C220 C224 1.401 . S
C220 C225 1.499 . S
N221 Co204 1.989 . S
N221 C220 1.342 . S
N221 N222 1.388 . S
N222 Co205 1.993 . S
N222 N221 1.388 . S
N222 C223 1.346 . S
C223 N222 1.346 . S
C223 C224 1.396 . S
C223 C233 1.510 . S
C224 C220 1.401 . S
C224 C223 1.396 . S
C225 C220 1.499 . S
C225 H226 0.959 . S
C225 H227 0.960 . S
C225 H228 0.961 . S
H226 C225 0.959 . S
H227 C225 0.960 . S
H228 C225 0.961 . S
O229 Co204 1.967 . S
O229 C237 1.258 . S
O230 Co205 1.941 . S
O230 C237 1.266 . S
H231 C233 0.959 . S
H232 C233 0.961 . S
C233 C223 1.510 . S
C233 H231 0.959 . S
C233 H232 0.961 . S
C233 H234 0.960 . S
H234 C233 0.960 . S
H235 N215 0.862 . S
O236 Co204 1.920 . S
O236 C209 1.289 . S
C237 O229 1.258 . S
C237 O230 1.266 . S
Co238 O241 1.970 . S
Co238 N255 1.989 . S
Co238 O263 1.967 . S
Co238 O270 1.920 . S
Co239 O242 1.966 . S
Co239 N248 2.022 . S
Co239 N256 1.993 . S
Co239 O264 1.941 . S
C240 O241 1.258 . S
C240 O242 1.263 . S
O241 Co238 1.970 . S
O241 C240 1.258 . S
O242 Co239 1.966 . S
O242 C240 1.263 . S
C243 O244 1.235 . S
C243 O270 1.289 . S
O244 C243 1.235 . S
C245 C247 1.400 . S
C245 N248 1.351 . S
C245 C250 1.501 . S
C246 C247 1.387 . S
C246 N249 1.341 . S
C247 C245 1.400 . S
C247 C246 1.387 . S
N248 Co239 2.022 . S
N248 C245 1.351 . S
N248 N249 1.365 . S
N249 C246 1.341 . S
N249 N248 1.365 . S
N249 H269 0.862 . S
C250 C245 1.501 . S
C250 H251 0.961 . S
C250 H252 0.961 . S
C250 H253 0.960 . S
H251 C250 0.961 . S
H252 C250 0.961 . S
H253 C250 0.960 . S
C254 N255 1.342 . S
C254 C258 1.401 1_455 S
C254 C259 1.499 1_455 S
N255 Co238 1.989 . S
N255 C254 1.342 . S
N255 N256 1.388 . S
N256 Co239 1.993 . S
N256 N255 1.388 . S
N256 C257 1.346 1_455 S
C257 N256 1.346 1_655 S
C257 C258 1.396 . S
C257 C267 1.510 . S
C258 C254 1.401 1_655 S
C258 C257 1.396 . S
C259 C254 1.499 1_655 S
C259 H260 0.959 1_655 S
C259 H261 0.960 . S
C259 H262 0.961 . S
H260 C259 0.959 1_455 S
H261 C259 0.960 . S
H262 C259 0.961 . S
O263 Co238 1.967 . S
O263 C271 1.258 . S
O264 Co239 1.941 . S
O264 C271 1.266 . S
H265 C267 0.959 . S
H266 C267 0.961 . S
C267 C257 1.510 . S
C267 H265 0.959 . S
C267 H266 0.961 . S
C267 H268 0.960 1_655 S
H268 C267 0.960 1_455 S
H269 N249 0.862 . S
O270 Co238 1.920 . S
O270 C243 1.289 . S
C271 O263 1.258 . S
C271 O264 1.266 . S
Co272 O275 1.976 . S
Co272 N289 1.989 . S
Co272 O297 1.967 . S
Co272 O304 1.920 . S
Co273 O276 1.966 . S
Co273 N282 2.022 . S
Co273 N290 1.993 . S
Co273 O298 1.941 . S
C274 O275 1.259 . S
C274 O276 1.263 . S
O275 Co272 1.976 . S
O275 C274 1.259 . S
O276 Co273 1.966 . S
O276 C274 1.263 . S
C277 O278 1.235 . S
C277 O304 1.289 1_455 S
O278 C277 1.235 . S
C279 C281 1.400 . S
C279 N282 1.351 . S
C279 C284 1.501 1_655 S
C280 C281 1.387 . S
C280 N283 1.341 . S
C281 C279 1.400 . S
C281 C280 1.387 . S
N282 Co273 2.022 . S
N282 C279 1.351 . S
N282 N283 1.365 . S
N283 C280 1.341 . S
N283 N282 1.365 . S
N283 H303 0.862 . S
C284 C279 1.501 1_455 S
C284 H285 0.961 . S
C284 H286 0.961 . S
C284 H287 0.960 . S
H285 C284 0.961 . S
H286 C284 0.961 . S
H287 C284 0.960 . S
C288 N289 1.342 . S
C288 C292 1.401 . S
C288 C293 1.499 . S
N289 Co272 1.989 . S
N289 C288 1.342 . S
N289 N290 1.388 . S
N290 Co273 1.993 . S
N290 N289 1.388 . S
N290 C291 1.346 . S
C291 N290 1.346 . S
C291 C292 1.396 . S
C291 C301 1.510 . S
C292 C288 1.401 . S
C292 C291 1.396 . S
C293 C288 1.499 . S
C293 H294 0.959 . S
C293 H295 0.960 1_655 S
C293 H296 0.961 . S
H294 C293 0.959 . S
H295 C293 0.960 1_455 S
H296 C293 0.961 . S
O297 Co272 1.967 . S
O297 C305 1.258 . S
O298 Co273 1.941 . S
O298 C305 1.266 . S
H299 C301 0.959 . S
H300 C301 0.961 1_455 S
C301 C291 1.510 . S
C301 H299 0.959 . S
C301 H300 0.961 1_655 S
C301 H302 0.960 . S
H302 C301 0.960 . S
H303 N283 0.862 . S
O304 Co272 1.920 . S
O304 C277 1.289 1_655 S
C305 O297 1.258 . S
C305 O298 1.266 . S
Co306 O309 1.976 . S
Co306 N323 1.989 . S
Co306 O331 1.967 . S
Co306 O338 1.920 . S
Co307 O310 1.966 . S
Co307 N316 2.022 . S
Co307 N324 1.993 . S
Co307 O332 1.941 . S
C308 O309 1.259 . S
C308 O310 1.263 . S
O309 Co306 1.976 . S
O309 C308 1.259 . S
O310 Co307 1.966 . S
O310 C308 1.263 . S
C311 O312 1.235 . S
C311 O338 1.289 1_545 S
O312 C311 1.235 . S
C313 C315 1.400 . S
C313 N316 1.351 . S
C313 C318 1.501 1_565 S
C314 C315 1.387 . S
C314 N317 1.341 . S
C315 C313 1.400 . S
C315 C314 1.387 . S
N316 Co307 2.022 . S
N316 C313 1.351 . S
N316 N317 1.365 . S
N317 C314 1.341 . S
N317 N316 1.365 . S
N317 H337 0.862 . S
C318 C313 1.501 1_545 S
C318 H319 0.961 . S
C318 H320 0.961 . S
C318 H321 0.960 . S
H319 C318 0.961 . S
H320 C318 0.961 . S
H321 C318 0.960 . S
C322 N323 1.342 . S
C322 C326 1.401 1_655 S
C322 C327 1.499 1_655 S
N323 Co306 1.989 . S
N323 C322 1.342 . S
N323 N324 1.388 . S
N324 Co307 1.993 . S
N324 N323 1.388 . S
N324 C325 1.346 1_655 S
C325 N324 1.346 1_455 S
C325 C326 1.396 . S
C325 C335 1.510 . S
C326 C322 1.401 1_455 S
C326 C325 1.396 . S
C327 C322 1.499 1_455 S
C327 H328 0.959 1_455 S
C327 H329 0.960 1_565 S
C327 H330 0.961 . S
H328 C327 0.959 1_655 S
H329 C327 0.960 1_545 S
H330 C327 0.961 . S
O331 Co306 1.967 . S
O331 C339 1.258 . S
O332 Co307 1.941 . S
O332 C339 1.266 . S
H333 C335 0.959 . S
H334 C335 0.961 1_545 S
C335 C325 1.510 . S
C335 H333 0.959 . S
C335 H334 0.961 1_565 S
C335 H336 0.960 1_455 S
H336 C335 0.960 1_655 S
H337 N317 0.862 . S
O338 Co306 1.920 . S
O338 C311 1.289 1_565 S
C339 O331 1.258 . S
C339 O332 1.266 . S
Co340 O343 1.970 . S
Co340 N357 1.989 . S
Co340 O365 1.967 . S
Co340 O372 1.920 . S
Co341 O344 1.966 . S
Co341 N350 2.022 . S
Co341 N358 1.993 . S
Co341 O366 1.941 . S
C342 O343 1.258 . S
C342 O344 1.263 . S
O343 Co340 1.970 . S
O343 C342 1.258 . S
O344 Co341 1.966 . S
O344 C342 1.263 . S
C345 O346 1.235 . S
C345 O372 1.289 . S
O346 C345 1.235 . S
C347 C349 1.400 . S
C347 N350 1.351 . S
C347 C352 1.501 . S
C348 C349 1.387 . S
C348 N351 1.341 . S
C349 C347 1.400 . S
C349 C348 1.387 . S
N350 Co341 2.022 . S
N350 C347 1.351 . S
N350 N351 1.365 . S
N351 C348 1.341 . S
N351 N350 1.365 . S
N351 H371 0.862 . S
C352 C347 1.501 . S
C352 H353 0.961 . S
C352 H354 0.961 . S
C352 H355 0.960 . S
H353 C352 0.961 . S
H354 C352 0.961 . S
H355 C352 0.960 . S
C356 N357 1.342 . S
C356 C360 1.401 1_565 S
C356 C361 1.499 1_565 S
N357 Co340 1.989 . S
N357 C356 1.342 . S
N357 N358 1.388 . S
N358 Co341 1.993 . S
N358 N357 1.388 . S
N358 C359 1.346 1_565 S
C359 N358 1.346 1_545 S
C359 C360 1.396 . S
C359 C369 1.510 . S
C360 C356 1.401 1_545 S
C360 C359 1.396 . S
C361 C356 1.499 1_545 S
C361 H362 0.959 1_545 S
C361 H363 0.960 . S
C361 H364 0.961 . S
H362 C361 0.959 1_565 S
H363 C361 0.960 . S
H364 C361 0.961 . S
O365 Co340 1.967 . S
O365 C373 1.258 . S
O366 Co341 1.941 . S
O366 C373 1.266 . S
H367 C369 0.959 . S
H368 C369 0.961 . S
C369 C359 1.510 . S
C369 H367 0.959 . S
C369 H368 0.961 . S
C369 H370 0.960 1_545 S
H370 C369 0.960 1_565 S
H371 N351 0.862 . S
O372 Co340 1.920 . S
O372 C345 1.289 . S
C373 O365 1.258 . S
C373 O366 1.266 . S
Co374 O377 1.970 . S
Co374 N391 1.989 . S
Co374 O399 1.967 . S
Co374 O406 1.920 . S
Co375 O378 1.966 . S
Co375 N384 2.022 . S
Co375 N392 1.993 . S
Co375 O400 1.941 . S
C376 O377 1.258 . S
C376 O378 1.263 . S
O377 Co374 1.970 . S
O377 C376 1.258 . S
O378 Co375 1.966 . S
O378 C376 1.263 . S
C379 O380 1.235 . S
C379 O406 1.289 . S
O380 C379 1.235 . S
C381 C383 1.400 . S
C381 N384 1.351 . S
C381 C386 1.501 . S
C382 C383 1.387 . S
C382 N385 1.341 . S
C383 C381 1.400 . S
C383 C382 1.387 . S
N384 Co375 2.022 . S
N384 C381 1.351 . S
N384 N385 1.365 . S
N385 C382 1.341 . S
N385 N384 1.365 . S
N385 H405 0.862 . S
C386 C381 1.501 . S
C386 H387 0.961 . S
C386 H388 0.961 . S
C386 H389 0.960 . S
H387 C386 0.961 . S
H388 C386 0.961 . S
H389 C386 0.960 . S
C390 N391 1.342 . S
C390 C394 1.401 . S
C390 C395 1.499 . S
N391 Co374 1.989 . S
N391 C390 1.342 . S
N391 N392 1.388 . S
N392 Co375 1.993 . S
N392 N391 1.388 . S
N392 C393 1.346 . S
C393 N392 1.346 . S
C393 C394 1.396 . S
C393 C403 1.510 . S
C394 C390 1.401 . S
C394 C393 1.396 . S
C395 C390 1.499 . S
C395 H396 0.959 . S
C395 H397 0.960 . S
C395 H398 0.961 . S
H396 C395 0.959 . S
H397 C395 0.960 . S
H398 C395 0.961 . S
O399 Co374 1.967 . S
O399 C407 1.258 . S
O400 Co375 1.941 . S
O400 C407 1.266 . S
H401 C403 0.959 . S
H402 C403 0.961 . S
C403 C393 1.510 . S
C403 H401 0.959 . S
C403 H402 0.961 . S
C403 H404 0.960 . S
H404 C403 0.960 . S
H405 N385 0.862 . S
O406 Co374 1.920 . S
O406 C379 1.289 . S
C407 O399 1.258 . S
C407 O400 1.266 . S
Co408 O411 1.976 . S
Co408 N425 1.989 . S
Co408 O433 1.967 . S
Co408 O440 1.920 . S
Co409 O412 1.966 . S
Co409 N418 2.022 . S
Co409 N426 1.993 . S
Co409 O434 1.941 . S
C410 O411 1.259 . S
C410 O412 1.263 . S
O411 Co408 1.976 . S
O411 C410 1.259 . S
O412 Co409 1.966 . S
O412 C410 1.263 . S
C413 O414 1.235 . S
C413 O440 1.289 1_455 S
O414 C413 1.235 . S
C415 C417 1.400 . S
C415 N418 1.351 . S
C415 C420 1.501 1_655 S
C416 C417 1.387 . S
C416 N419 1.341 . S
C417 C415 1.400 . S
C417 C416 1.387 . S
N418 Co409 2.022 . S
N418 C415 1.351 . S
N418 N419 1.365 . S
N419 C416 1.341 . S
N419 N418 1.365 . S
N419 H439 0.862 . S
C420 C415 1.501 1_455 S
C420 H421 0.961 . S
C420 H422 0.961 . S
C420 H423 0.960 . S
H421 C420 0.961 . S
H422 C420 0.961 . S
H423 C420 0.960 . S
C424 N425 1.342 . S
C424 C428 1.401 1_565 S
C424 C429 1.499 1_565 S
N425 Co408 1.989 . S
N425 C424 1.342 . S
N425 N426 1.388 . S
N426 Co409 1.993 . S
N426 N425 1.388 . S
N426 C427 1.346 1_565 S
C427 N426 1.346 1_545 S
C427 C428 1.396 . S
C427 C437 1.510 . S
C428 C424 1.401 1_545 S
C428 C427 1.396 . S
C429 C424 1.499 1_545 S
C429 H430 0.959 1_545 S
C429 H431 0.960 1_655 S
C429 H432 0.961 . S
H430 C429 0.959 1_565 S
H431 C429 0.960 1_455 S
H432 C429 0.961 . S
O433 Co408 1.967 . S
O433 C441 1.258 . S
O434 Co409 1.941 . S
O434 C441 1.266 . S
H435 C437 0.959 . S
H436 C437 0.961 1_455 S
C437 C427 1.510 . S
C437 H435 0.959 . S
C437 H436 0.961 1_655 S
C437 H438 0.960 1_545 S
H438 C437 0.960 1_565 S
H439 N419 0.862 . S
O440 Co408 1.920 . S
O440 C413 1.289 1_655 S
C441 O433 1.258 . S
C441 O434 1.266 . S
Co442 O445 1.976 . S
Co442 N459 1.989 . S
Co442 O467 1.967 . S
Co442 O474 1.920 . S
Co443 O446 1.966 . S
Co443 N452 2.022 . S
Co443 N460 1.993 . S
Co443 O468 1.941 . S
C444 O445 1.259 . S
C444 O446 1.263 . S
O445 Co442 1.976 . S
O445 C444 1.259 . S
O446 Co443 1.966 . S
O446 C444 1.263 . S
C447 O448 1.235 . S
C447 O474 1.289 1_545 S
O448 C447 1.235 . S
C449 C451 1.400 . S
C449 N452 1.351 . S
C449 C454 1.501 1_565 S
C450 C451 1.387 . S
C450 N453 1.341 . S
C451 C449 1.400 . S
C451 C450 1.387 . S
N452 Co443 2.022 . S
N452 C449 1.351 . S
N452 N453 1.365 . S
N453 C450 1.341 . S
N453 N452 1.365 . S
N453 H473 0.862 . S
C454 C449 1.501 1_545 S
C454 H455 0.961 . S
C454 H456 0.961 . S
C454 H457 0.960 . S
H455 C454 0.961 . S
H456 C454 0.961 . S
H457 C454 0.960 . S
C458 N459 1.342 . S
C458 C462 1.401 . S
C458 C463 1.499 . S
N459 Co442 1.989 . S
N459 C458 1.342 . S
N459 N460 1.388 . S
N460 Co443 1.993 . S
N460 N459 1.388 . S
N460 C461 1.346 . S
C461 N460 1.346 . S
C461 C462 1.396 . S
C461 C471 1.510 . S
C462 C458 1.401 . S
C462 C461 1.396 . S
C463 C458 1.499 . S
C463 H464 0.959 . S
C463 H465 0.960 1_565 S
C463 H466 0.961 . S
H464 C463 0.959 . S
H465 C463 0.960 1_545 S
H466 C463 0.961 . S
O467 Co442 1.967 . S
O467 C475 1.258 . S
O468 Co443 1.941 . S
O468 C475 1.266 . S
H469 C471 0.959 . S
H470 C471 0.961 1_545 S
C471 C461 1.510 . S
C471 H469 0.959 . S
C471 H470 0.961 1_565 S
C471 H472 0.960 . S
H472 C471 0.960 . S
H473 N453 0.862 . S
O474 Co442 1.920 . S
O474 C447 1.289 1_565 S
C475 O467 1.258 . S
C475 O468 1.266 . S
Co476 O479 1.970 . S
Co476 N493 1.989 . S
Co476 O501 1.967 . S
Co476 O508 1.920 . S
Co477 O480 1.966 . S
Co477 N486 2.022 . S
Co477 N494 1.993 . S
Co477 O502 1.941 . S
C478 O479 1.258 . S
C478 O480 1.263 . S
O479 Co476 1.970 . S
O479 C478 1.258 . S
O480 Co477 1.966 . S
O480 C478 1.263 . S
C481 O482 1.235 . S
C481 O508 1.289 . S
O482 C481 1.235 . S
C483 C485 1.400 . S
C483 N486 1.351 . S
C483 C488 1.501 . S
C484 C485 1.387 . S
C484 N487 1.341 . S
C485 C483 1.400 . S
C485 C484 1.387 . S
N486 Co477 2.022 . S
N486 C483 1.351 . S
N486 N487 1.365 . S
N487 C484 1.341 . S
N487 N486 1.365 . S
N487 H507 0.862 . S
C488 C483 1.501 . S
C488 H489 0.961 . S
C488 H490 0.961 . S
C488 H491 0.960 . S
H489 C488 0.961 . S
H490 C488 0.961 . S
H491 C488 0.960 . S
C492 N493 1.342 . S
C492 C496 1.401 . S
C492 C497 1.499 . S
N493 Co476 1.989 . S
N493 C492 1.342 . S
N493 N494 1.388 . S
N494 Co477 1.993 . S
N494 N493 1.388 . S
N494 C495 1.346 . S
C495 N494 1.346 . S
C495 C496 1.396 . S
C495 C505 1.510 . S
C496 C492 1.401 . S
C496 C495 1.396 . S
C497 C492 1.499 . S
C497 H498 0.959 . S
C497 H499 0.960 . S
C497 H500 0.961 . S
H498 C497 0.959 . S
H499 C497 0.960 . S
H500 C497 0.961 . S
O501 Co476 1.967 . S
O501 C509 1.258 . S
O502 Co477 1.941 . S
O502 C509 1.266 . S
H503 C505 0.959 . S
H504 C505 0.961 . S
C505 C495 1.510 . S
C505 H503 0.959 . S
C505 H504 0.961 . S
C505 H506 0.960 . S
H506 C505 0.960 . S
H507 N487 0.862 . S
O508 Co476 1.920 . S
O508 C481 1.289 . S
C509 O501 1.258 . S
C509 O502 1.266 . S
Co510 O513 1.970 . S
Co510 N527 1.989 . S
Co510 O535 1.967 . S
Co510 O542 1.920 . S
Co511 O514 1.966 . S
Co511 N520 2.022 . S
Co511 N528 1.993 . S
Co511 O536 1.941 . S
C512 O513 1.258 . S
C512 O514 1.263 . S
O513 Co510 1.970 . S
O513 C512 1.258 . S
O514 Co511 1.966 . S
O514 C512 1.263 . S
C515 O516 1.235 . S
C515 O542 1.289 . S
O516 C515 1.235 . S
C517 C519 1.400 . S
C517 N520 1.351 . S
C517 C522 1.501 . S
C518 C519 1.387 . S
C518 N521 1.341 . S
C519 C517 1.400 . S
C519 C518 1.387 . S
N520 Co511 2.022 . S
N520 C517 1.351 . S
N520 N521 1.365 . S
N521 C518 1.341 . S
N521 N520 1.365 . S
N521 H541 0.862 . S
C522 C517 1.501 . S
C522 H523 0.961 . S
C522 H524 0.961 . S
C522 H525 0.960 . S
H523 C522 0.961 . S
H524 C522 0.961 . S
H525 C522 0.960 . S
C526 N527 1.342 . S
C526 C530 1.401 1_655 S
C526 C531 1.499 1_655 S
N527 Co510 1.989 . S
N527 C526 1.342 . S
N527 N528 1.388 . S
N528 Co511 1.993 . S
N528 N527 1.388 . S
N528 C529 1.346 1_655 S
C529 N528 1.346 1_455 S
C529 C530 1.396 . S
C529 C539 1.510 . S
C530 C526 1.401 1_455 S
C530 C529 1.396 . S
C531 C526 1.499 1_455 S
C531 H532 0.959 1_455 S
C531 H533 0.960 . S
C531 H534 0.961 . S
H532 C531 0.959 1_655 S
H533 C531 0.960 . S
H534 C531 0.961 . S
O535 Co510 1.967 . S
O535 C543 1.258 . S
O536 Co511 1.941 . S
O536 C543 1.266 . S
H537 C539 0.959 . S
H538 C539 0.961 . S
C539 C529 1.510 . S
C539 H537 0.959 . S
C539 H538 0.961 . S
C539 H540 0.960 1_455 S
H540 C539 0.960 1_655 S
H541 N521 0.862 . S
O542 Co510 1.920 . S
O542 C515 1.289 . S
C543 O535 1.258 . S
C543 O536 1.266 . S
C141 C5 1.837 1_556 S
C175 C39 1.837 . S
C73 C209 1.837 1_554 S
C243 C107 1.837 . S
C413 C277 1.837 1_554 S
C311 C447 1.837 . S
C345 C481 1.837 1_556 S
C379 C515 1.837 . S
C2 C428 1.490 1_455 S
C36 C462 1.489 1_545 S
C496 C70 1.489 . S
C104 C530 1.489 . S
C292 C138 1.489 1_655 S
C326 C172 1.490 1_565 S
C206 C360 1.489 . S
C394 C240 1.489 . S
C274 C156 1.490 1_655 S
C308 C190 1.489 1_565 S
C224 C342 1.489 . S
C376 C258 1.489 . S
C410 C20 1.489 1_655 S
C444 C54 1.490 1_565 S
C478 C88 1.489 . S
C122 C512 1.489 . S
C247 C9 1.908 . S
C43 C145 1.907 . S
C179 C77 1.908 . S
C213 C111 1.908 . S
C281 C519 1.908 . S
C417 C315 1.907 . S
C349 C451 1.908 . S
C485 C383 1.908 . S
C101 C33 0.400 . S
C135 C67 0.400 . S
C169 C237 0.401 . S
C271 C203 0.400 . S
C305 C373 0.400 . S
C407 C339 0.400 . S
C441 C509 0.401 . S
C475 C543 0.400 . S
