# Generated by pormake.
# Topology kag, (6)-cn, num edge types: 1
# Building blocks:
#     Node 0, Type 0, BuildingBlock: UKALOJ_clean_sbu_0, # of connection points: 6
#     Node 1, Type 0, BuildingBlock: UKALOJ_clean_sbu_0, # of connection points: 6
#     Node 2, Type 0, BuildingBlock: UKALOJ_clean_sbu_0, # of connection points: 6
#     Edge 3, Type (0, 0), BuildingBlock: XUDNAN_clean_linker_2, # of connection points: 2
#     Edge 4, Type (0, 0), BuildingBlock: XUDNAN_clean_linker_2, # of connection points: 2
#     Edge 5, Type (0, 0), BuildingBlock: XUDNAN_clean_linker_2, # of connection points: 2
#     Edge 6, Type (0, 0), BuildingBlock: XUDNAN_clean_linker_2, # of connection points: 2
#     Edge 7, Type (0, 0), BuildingBlock: XUDNAN_clean_linker_2, # of connection points: 2
#     Edge 8, Type (0, 0), BuildingBlock: XUDNAN_clean_linker_2, # of connection points: 2
#     Edge 9, Type (0, 0), BuildingBlock: XUDNAN_clean_linker_2, # of connection points: 2
#     Edge 10, Type (0, 0), BuildingBlock: XUDNAN_clean_linker_2, # of connection points: 2
#     Edge 11, Type (0, 0), BuildingBlock: XUDNAN_clean_linker_2, # of connection points: 2
# Relax obj value: 0.124
# Max RMSD: 0.168
# Mean RMSD: 0.168
data_MOF--net-kag--node1-UKALOJ_clean_sbu_0--edge1-XUDNAN_clean_linker_2
_symmetry_space_group_name_H-M    P1
_symmetry_Int_Tables_number       1
_symmetry_cell_setting            triclinic
loop_
_symmetry_equiv_pos_as_xyz
'x, y, z'
_cell_length_a     29.129243
_cell_length_b     29.263239
_cell_length_c     20.076568
_cell_angle_alpha  89.94303
_cell_angle_beta   89.828498
_cell_angle_gamma 120.25
loop_
_atom_site_label
_atom_site_type_symbol
_atom_site_fract_x
_atom_site_fract_y
_atom_site_fract_z
_atom_type_partial_charge
Zn0 Zn -0.01142 0.4571 0.96966 0.0
O1 O 0.04227 0.53645 0.95221 0.0
C2 C 0.07065 0.43187 1.00348 0.0
Zn3 Zn 0.00353 0.46483 0.07875 0.0
C4 C 0.06905 0.5651 1.00076 0.0
O5 O 0.06258 0.5447 0.05855 0.0
C6 C 0.92179 0.35698 0.04527 0.0
O7 O 0.94971 0.49026 0.09561 0.0
O8 O 0.92931 0.47757 0.98949 0.0
N9 N 0.02453 0.47496 0.17706 0.0
C10 C -0.00417 0.45272 0.23274 0.0
C11 C 0.07623 0.503 0.26254 0.0
N12 N 0.07443 0.50632 0.19571 0.0
N13 N 0.02745 0.4693 0.28689 0.0
C14 C -0.0072 0.45291 0.81449 0.0
C15 C 0.91023 0.4146 0.79118 0.0
N16 N 0.96609 0.44526 0.87224 0.0
N17 N 0.9149 0.4218 0.85753 0.0
N18 N 0.9585 0.43391 0.76301 0.0
H19 H 0.07268 0.50259 0.8502 0.0
H20 H 0.06761 0.49332 0.76098 0.0
H21 H 0.05902 0.44056 0.8147 0.0
C22 C 0.05146 0.47397 0.80969 0.0
C23 C 0.9366 0.4172 0.2344 0.0
H24 H 0.91762 0.42659 0.19308 0.0
H25 H 0.9199 0.42114 0.28237 0.0
H26 H 0.9268 0.37551 0.22907 0.0
O27 O 0.94369 0.38532 0.0961 0.0
O28 O 0.93438 0.37734 0.98758 0.0
C29 C 0.92279 0.49169 0.04702 0.0
O30 O 0.04866 0.4379 0.95234 0.0
O31 O 0.05799 0.43975 0.06109 0.0
Zn32 Zn 0.45804 0.01341 0.96875 0.0
O33 O 0.47689 0.95525 0.94642 0.0
C34 C 0.35116 0.93132 1.00671 0.0
Zn35 Zn 0.45468 -0.00352 0.07775 0.0
C36 C 0.48396 0.93081 0.99381 0.0
O37 O 0.47685 0.94023 0.05359 0.0
C38 C 0.4316 0.08122 0.05213 0.0
O39 O 0.53563 0.05285 0.09127 0.0
O40 O 0.53946 0.06601 0.98286 0.0
N41 N 0.44603 0.97323 0.17545 0.0
C42 C 0.45534 -0.00074 0.23381 0.0
C43 C 0.41508 0.91678 0.25621 0.0
N44 N 0.42148 0.92206 0.18968 0.0
N45 N 0.43618 0.96463 0.28513 0.0
C46 C 0.4423 0.00677 0.81475 0.0
C47 C 0.49538 0.08619 0.78401 0.0
N48 N 0.46565 0.03497 0.87014 0.0
N49 N 0.49863 0.08427 0.85086 0.0
N50 N 0.46002 0.03811 0.76018 0.0
H51 H 0.40978 0.93062 0.76728 0.0
H52 H 0.36325 0.94055 0.81507 0.0
H53 H 0.4103 0.92834 0.85703 0.0
C54 C 0.40457 0.94817 0.81364 0.0
C55 C 0.47842 0.05781 0.24009 0.0
H56 H 0.4989 0.07868 0.19369 0.0
H57 H 0.50711 0.07347 0.28175 0.0
H58 H 0.44599 0.06603 0.25151 0.0
O59 O 0.43318 0.05327 0.09948 0.0
O60 O 0.44064 0.07264 0.99283 0.0
C61 C 0.5624 0.07507 0.03904 0.0
O62 O 0.37678 0.95915 0.95668 0.0
O63 O 0.37442 0.93938 0.06249 0.0
Zn64 Zn 0.53472 0.55145 0.07795 0.0
O65 O 0.51622 0.47484 0.10189 0.0
C66 C 0.64134 0.57617 0.03846 0.0
Zn67 Zn 0.53759 0.53802 0.96892 0.0
C68 C 0.50882 0.44325 0.05445 0.0
O69 O 0.51551 0.45966 0.9945 0.0
C70 C 0.5611 0.64594 0.99368 0.0
O71 O 0.45628 0.51318 0.95766 0.0
O72 O 0.45328 0.52272 0.066 0.0
N73 N 0.54396 0.52297 0.87034 0.0
C74 C 0.53559 0.54312 0.8143 0.0
C75 C 0.56775 0.495 0.78475 0.0
N76 N 0.56361 0.49277 0.8518 0.0
N77 N 0.55069 0.52664 0.76009 0.0
C78 C 0.54329 0.55651 0.23375 0.0
C79 C 0.5124 0.60725 0.25531 0.0
N80 N 0.5288 0.56831 0.17532 0.0
N81 N 0.50942 0.59961 0.18904 0.0
N82 N 0.53329 0.58048 0.28464 0.0
H83 H 0.53907 0.48281 0.25342 0.0
H84 H 0.59948 0.53969 0.28101 0.0
H85 H 0.58904 0.5233 0.19337 0.0
C86 C 0.56963 0.52403 0.24048 0.0
C87 C 0.51067 0.57714 0.81219 0.0
H88 H 0.48469 0.56996 0.85591 0.0
H89 H 0.48711 0.56955 0.76596 0.0
H90 H 0.54237 0.61924 0.8121 0.0
O91 O 0.55918 0.61659 0.94603 0.0
O92 O 0.5522 0.62785 0.05267 0.0
C93 C 0.4299 0.50875 1.01015 0.0
O94 O 0.61579 0.57833 0.08854 0.0
O95 O 0.61813 0.56118 0.98254 0.0
H96 H 0.01977 0.51263 0.67659 0.0
H97 H 0.91608 0.34325 0.69433 0.0
H98 H 0.92586 0.33316 0.57346 0.0
H99 H 0.97098 0.52696 0.52247 0.0
H100 H 0.03439 0.57712 0.49003 0.0
H101 H 0.02285 0.57062 0.57857 0.0
H102 H 0.10506 0.55976 0.59498 0.0
H103 H 0.11714 0.56665 0.50643 0.0
H104 H 0.10979 0.50922 0.54943 0.0
H105 H 0.94363 0.34206 0.45098 0.0
H106 H 0.96784 0.36937 0.33358 0.0
H107 H 0.05929 0.53331 0.39445 0.0
C108 C 0.00046 0.47345 0.65497 0.0
C109 C 0.96814 0.42845 0.69426 0.0
C110 C 0.94148 0.37786 0.66452 0.0
C111 C 0.9469 0.37186 0.59625 0.0
C112 C 0.97894 0.41702 0.55859 0.0
C113 C 0.00541 0.46685 0.58678 0.0
C114 C 0.03516 0.50909 0.53445 0.0
C115 C 0.01459 0.54824 0.53121 0.0
C116 C 0.09536 0.53787 0.54708 0.0
C117 C 0.02059 0.47528 0.47239 0.0
C118 C -0.01163 0.42227 0.48754 0.0
C119 C 0.96874 0.38345 0.43844 0.0
C120 C -0.01785 0.3993 0.37197 0.0
C121 C 0.01433 0.45343 0.35526 0.0
C122 C 0.03443 0.49172 0.40624 0.0
H123 H 0.51358 0.02465 0.37375 0.0
H124 H 0.34363 0.92312 0.35135 0.0
H125 H 0.33061 0.9342 0.47095 0.0
H126 H 0.52274 0.97713 0.5325 0.0
H127 H 0.57293 0.04047 0.56396 0.0
H128 H 0.56861 0.02747 0.47589 0.0
H129 H 0.55987 0.10995 0.4532 0.0
H130 H 0.56444 0.12337 0.54127 0.0
H131 H 0.50839 0.11626 0.49473 0.0
H132 H 0.33636 0.95421 0.59274 0.0
H133 H 0.36067 0.98013 0.7102 0.0
H134 H 0.52715 0.06763 0.65479 0.0
C135 C 0.47368 0.00594 0.394 0.0
C136 C 0.42937 0.97385 0.35368 0.0
C137 C 0.37779 0.94814 0.38189 0.0
C138 C 0.37011 0.95434 0.44945 0.0
C139 C 0.41457 0.98622 0.48811 0.0
C140 C 0.46538 0.01162 0.46156 0.0
C141 C 0.50647 0.04162 0.51483 0.0
C142 C 0.54494 0.02038 0.52221 0.0
C143 C 0.53656 0.10135 0.50012 0.0
C144 C 0.47087 0.02858 0.5755 0.0
C145 C 0.41799 -0.00316 0.55883 0.0
C146 C 0.37765 0.97885 0.60647 0.0
C147 C 0.39179 -0.00674 0.67307 0.0
C148 C 0.44576 0.02476 0.69148 0.0
C149 C 0.48563 0.04333 0.64181 0.0
H150 H 0.51961 0.46581 0.64904 0.0
H151 H 0.59553 0.62785 0.71805 0.0
H152 H 0.60237 0.65916 0.60233 0.0
H153 H 0.59878 0.49413 0.49617 0.0
H154 H 0.54388 0.44572 0.44748 0.0
H155 H 0.54614 0.43577 0.53575 0.0
H156 H 0.45335 0.4264 0.55024 0.0
H157 H 0.45074 0.43612 0.46207 0.0
H158 H 0.44252 0.47832 0.52032 0.0
H159 H 0.59694 0.6727 0.48116 0.0
H160 H 0.58097 0.66786 0.35982 0.0
H161 H 0.5107 0.49757 0.36684 0.0
C162 C 0.53781 0.5078 0.63932 0.0
C163 C 0.55568 0.54444 0.69229 0.0
C164 C 0.5798 0.59916 0.67825 0.0
C165 C 0.58446 0.6173 0.61268 0.0
C166 C 0.56545 0.5802 0.56159 0.0
C167 C 0.54284 0.52661 0.57387 0.0
C168 C 0.5246 0.49524 0.50964 0.0
C169 C 0.55519 0.46599 0.4965 0.0
C170 C 0.46422 0.45676 0.51065 0.0
C171 C 0.5398 0.53955 0.45965 0.0
C172 C 0.56352 0.58821 0.49087 0.0
C173 C 0.57899 0.63493 0.45599 0.0
C174 C 0.56969 0.63185 0.38734 0.0
C175 C 0.54553 0.58256 0.35422 0.0
C176 C 0.53061 0.53584 0.39082 0.0
H177 H 0.15016 0.4698 0.9107 0.0
H178 H 0.08951 0.37081 0.08671 0.0
H179 H 0.17241 0.36818 0.09514 0.0
H180 H 0.23677 0.41349 0.84686 0.0
H181 H 0.28805 0.47844 0.82086 0.0
H182 H 0.2192 0.46086 0.81732 0.0
H183 H 0.24093 0.54261 0.88935 0.0
H184 H 0.30936 0.55986 0.89447 0.0
H185 H 0.27148 0.5501 0.96965 0.0
H186 H 0.26531 0.39313 0.10172 0.0
H187 H 0.363 0.4376 0.09953 0.0
H188 H 0.36672 0.51988 0.91802 0.0
C189 C 0.15357 0.44543 0.94877 0.0
C190 C 0.11365 0.41994 0.99763 0.0
C191 C 0.11978 0.39016 0.04862 0.0
C192 C 0.16659 0.38833 0.05365 0.0
C193 C 0.20669 0.4164 1.00715 0.0
C194 C 0.20058 0.44372 0.95487 0.0
C195 C 0.25263 0.4767 0.91776 0.0
C196 C 0.24893 0.45612 0.84646 0.0
C197 C 0.26956 0.53579 0.91788 0.0
C198 C 0.28938 0.46621 0.95999 0.0
C199 C 0.2617 0.43069 1.01065 0.0
C200 C 0.28731 0.41967 0.06117 0.0
C201 C 0.34272 0.44555 0.05998 0.0
C202 C 0.3718 0.48169 1.00843 0.0
C203 C 0.34493 0.4915 0.95712 0.0
H204 H 0.62557 0.1495 0.13105 0.0
H205 H 0.62924 0.06978 0.95091 0.0
H206 H 0.72695 0.12265 0.94917 0.0
H207 H 0.72 0.27355 0.07846 0.0
H208 H 0.75103 0.29787 0.15822 0.0
H209 H 0.6827 0.2461 0.15429 0.0
H210 H 0.70416 0.18683 0.22866 0.0
H211 H 0.77294 0.23851 0.23216 0.0
H212 H 0.7557 0.17343 0.20358 0.0
H213 H 0.81986 0.19067 0.95541 0.0
H214 H 0.90281 0.27649 0.96304 0.0
H215 H 0.84232 0.3158 0.13806 0.0
C216 C 0.64738 0.14253 0.09247 0.0
C217 C 0.6205 0.10571 0.0413 0.0
C218 C 0.64955 0.09814 0.99034 0.0
C219 C 0.70496 0.12742 0.98944 0.0
C220 C 0.73062 0.16428 0.03973 0.0
C221 C 0.70298 0.1724 0.09009 0.0
C222 C 0.73983 0.22018 0.13162 0.0
C223 C 0.72236 0.26187 0.13051 0.0
C224 C 0.74336 0.20373 0.20327 0.0
C225 C 0.79174 0.2391 0.09443 0.0
C226 C 0.78563 0.20518 0.04286 0.0
C227 C 0.82571 0.21696 0.99648 0.0
C228 C 0.87257 0.26574 1.00108 0.0
C229 C 0.87878 0.30198 0.0516 0.0
C230 C 0.83888 0.28779 0.10038 0.0
H231 H 0.50213 0.87219 0.08395 0.0
H232 H 0.50854 0.9059 0.8723 0.0
H233 H 0.54174 0.84455 0.85019 0.0
H234 H 0.62019 0.8583 0.08984 0.0
H235 H 0.5903 0.80487 0.14936 0.0
H236 H 0.57199 0.85523 0.14895 0.0
H237 H 0.47269 0.78335 0.13581 0.0
H238 H 0.49066 0.73294 0.13708 0.0
H239 H 0.45329 0.73686 0.06812 0.0
H240 H 0.56807 0.77491 0.85089 0.0
H241 H 0.57816 0.69748 0.87356 0.0
H242 H 0.55443 0.71103 0.08457 0.0
C243 C 0.51097 0.86713 0.03296 0.0
C244 C 0.50291 0.89379 0.97988 0.0
C245 C 0.51449 0.88576 0.91378 0.0
C246 C 0.53374 0.85139 0.90076 0.0
C247 C 0.54143 0.82583 0.95444 0.0
C248 C 0.53017 0.83318 1.01916 0.0
C249 C 0.53777 0.7981 0.06753 0.0
C250 C 0.58275 0.83111 0.11682 0.0
C251 C 0.4855 0.76059 0.10423 0.0
C252 C 0.55347 0.76857 1.01967 0.0
C253 C 0.55628 0.78564 0.9548 0.0
C254 C 0.56646 0.76149 0.90155 0.0
C255 C 0.57195 0.71746 0.91485 0.0
C256 C 0.5665 0.69792 0.98066 0.0
C257 C 0.55914 0.72516 0.03372 0.0
H258 H 0.85769 0.49887 0.95471 0.0
H259 H 0.90652 0.53201 0.16161 0.0
H260 H 0.84816 0.56955 0.17742 0.0
H261 H 0.84569 0.61601 0.92477 0.0
H262 H 0.7876 0.58031 0.87342 0.0
H263 H 0.83676 0.56022 0.87647 0.0
H264 H 0.76433 0.46542 0.91148 0.0
H265 H 0.71502 0.48505 0.90751 0.0
H266 H 0.72316 0.45664 0.98311 0.0
H267 H 0.78028 0.59746 0.17314 0.0
H268 H 0.70196 0.60657 0.15144 0.0
H269 H 0.69861 0.55644 0.94708 0.0
C270 C 0.85645 0.51439 1.00321 0.0
C271 C 0.88672 0.51267 0.05683 0.0
C272 C 0.88364 0.53294 0.11973 0.0
C273 C 0.85097 0.55474 0.12912 0.0
C274 C 0.82191 0.55616 0.07507 0.0
C275 C 0.82407 0.53624 1.01348 0.0
C276 C 0.78586 0.53884 0.965 0.0
C277 C 0.81578 0.57607 0.90646 0.0
C278 C 0.74466 0.48319 0.94038 0.0
C279 C 0.76077 0.56192 1.00957 0.0
C280 C 0.78269 0.57244 0.07256 0.0
C281 C 0.76322 0.59012 0.12377 0.0
C282 C 0.71882 0.59529 0.11092 0.0
C283 C 0.69437 0.58243 0.0475 0.0
C284 C 0.7169 0.56737 0.99576 0.0
H285 H 0.13514 0.63752 0.09218 0.0
H286 H 0.084 0.62172 0.88627 0.0
H287 H 0.14227 0.7178 0.87002 0.0
H288 H 0.14785 0.76685 0.1231 0.0
H289 H 0.20652 0.7892 0.1733 0.0
H290 H 0.15712 0.71986 0.17071 0.0
H291 H 0.22888 0.69734 0.13379 0.0
H292 H 0.27843 0.76636 0.1373 0.0
H293 H 0.26926 0.72977 0.06154 0.0
H294 H 0.21025 0.81402 0.87387 0.0
H295 H 0.28888 0.90165 0.89493 0.0
H296 H 0.29467 0.85414 0.09825 0.0
C297 C 0.13583 0.6543 0.04382 0.0
C298 C 0.10497 0.62224 0.9906 0.0
C299 C 0.10736 0.64559 0.92784 0.0
C300 C 0.13996 0.70016 0.91822 0.0
C301 C 0.16965 0.73071 0.9719 0.0
C302 C 0.16814 0.70859 0.03332 0.0
C303 C 0.207 0.74939 0.0813 0.0
C304 C 0.17786 0.75675 0.1406 0.0
C305 C 0.24834 0.73485 0.10481 0.0
C306 C 0.2317 0.79762 0.03662 0.0
C307 C 0.20903 0.78628 0.97406 0.0
C308 C 0.22797 0.82362 0.92287 0.0
C309 C 0.27264 0.87325 0.93528 0.0
C310 C 0.29793 0.88463 0.99812 0.0
C311 C 0.27585 0.84692 0.04993 0.0
H312 H 0.48641 0.36556 0.96401 0.0
H313 H 0.4887 0.39452 0.17645 0.0
H314 H 0.45614 0.3 0.19875 0.0
H315 H 0.36774 0.23322 0.96422 0.0
H316 H 0.39497 0.20922 0.90181 0.0
H317 H 0.41337 0.27797 0.90249 0.0
H318 H 0.51307 0.30566 0.9083 0.0
H319 H 0.49499 0.23721 0.90677 0.0
H320 H 0.53531 0.27917 0.97363 0.0
H321 H 0.43064 0.20435 0.1978 0.0
H322 H 0.42051 0.117 0.17403 0.0
H323 H 0.43371 0.15178 0.96222 0.0
C324 C 0.47961 0.35204 1.01525 0.0
C325 C 0.49001 0.38724 0.06848 0.0
C326 C 0.48096 0.36809 0.13486 0.0
C327 C 0.46209 0.31447 0.14801 0.0
C328 C 0.45212 0.28077 0.09419 0.0
C329 C 0.46072 0.2989 0.02918 0.0
C330 C 0.45099 0.25576 0.98043 0.0
C331 C 0.40395 0.24331 0.93454 0.0
C332 C 0.50159 0.27032 0.93996 0.0
C333 C 0.4373 0.21087 0.02831 0.0
C334 C 0.43727 0.2257 0.09364 0.0
C335 C 0.42979 0.19199 0.14682 0.0
C336 C 0.42407 0.14248 0.13283 0.0
C337 C 0.42642 0.12772 0.0663 0.0
C338 C 0.43122 0.1617 1.01355 0.0
loop_
_geom_bond_atom_site_label_1
_geom_bond_atom_site_label_2
_geom_bond_distance
_geom_bond_site_symmetry_2
_ccdc_geom_bond_type
Zn0 O1 2.055 . S
Zn0 O8 2.046 1_455 S
Zn0 N16 2.036 . S
Zn0 O28 2.053 1_455 S
Zn0 O30 2.066 . S
O1 Zn0 2.055 . S
O1 C4 1.259 . S
C2 O30 1.256 . S
C2 O31 1.244 1_556 S
Zn3 O5 2.046 . S
Zn3 O7 2.055 1_455 S
Zn3 N9 2.036 . S
Zn3 O27 2.066 1_455 S
Zn3 O31 2.053 . S
C4 O1 1.259 . S
C4 O5 1.254 1_556 S
O5 Zn3 2.046 . S
O5 C4 1.254 1_554 S
C6 O27 1.256 . S
C6 O28 1.244 1_554 S
O7 Zn3 2.055 1_655 S
O7 C29 1.259 . S
O8 Zn0 2.046 1_655 S
O8 C29 1.254 1_556 S
N9 Zn3 2.036 . S
N9 C10 1.298 1_455 S
N9 N12 1.398 . S
C10 N9 1.298 1_655 S
C10 N13 1.367 1_655 S
C10 C23 1.481 . S
C11 N12 1.299 . S
C11 N13 1.379 . S
N12 N9 1.398 . S
N12 C11 1.299 . S
N13 C10 1.367 1_455 S
N13 C11 1.379 . S
C14 N16 1.298 . S
C14 N18 1.367 . S
C14 C22 1.481 . S
C15 N17 1.299 . S
C15 N18 1.379 1_655 S
N16 Zn0 2.036 . S
N16 C14 1.298 . S
N16 N17 1.398 1_455 S
N17 C15 1.299 . S
N17 N16 1.398 1_655 S
N18 C14 1.367 . S
N18 C15 1.379 1_455 S
H19 C22 0.980 . S
H20 C22 0.981 . S
H21 C22 0.981 . S
C22 C14 1.481 . S
C22 H19 0.980 . S
C22 H20 0.981 . S
C22 H21 0.981 . S
C23 C10 1.481 . S
C23 H24 0.980 . S
C23 H25 0.981 . S
C23 H26 0.981 . S
H24 C23 0.980 . S
H25 C23 0.981 . S
H26 C23 0.981 . S
O27 Zn3 2.066 1_655 S
O27 C6 1.256 . S
O28 Zn0 2.053 1_655 S
O28 C6 1.244 1_556 S
C29 O7 1.259 . S
C29 O8 1.254 1_554 S
O30 Zn0 2.066 . S
O30 C2 1.256 . S
O31 C2 1.244 1_554 S
O31 Zn3 2.053 . S
Zn32 O33 2.055 1_545 S
Zn32 O40 2.046 . S
Zn32 N48 2.036 . S
Zn32 O60 2.053 . S
Zn32 O62 2.066 1_545 S
O33 Zn32 2.055 1_565 S
O33 C36 1.259 . S
C34 O62 1.256 . S
C34 O63 1.244 1_556 S
Zn35 O37 2.046 1_545 S
Zn35 O39 2.055 . S
Zn35 N41 2.036 . S
Zn35 O59 2.066 . S
Zn35 O63 2.053 1_545 S
C36 O33 1.259 . S
C36 O37 1.254 1_556 S
O37 Zn35 2.046 1_565 S
O37 C36 1.254 1_554 S
C38 O59 1.256 . S
C38 O60 1.244 1_554 S
O39 Zn35 2.055 . S
O39 C61 1.259 . S
O40 Zn32 2.046 . S
O40 C61 1.254 1_556 S
N41 Zn35 2.036 . S
N41 C42 1.298 . S
N41 N44 1.398 1_545 S
C42 N41 1.298 . S
C42 N45 1.367 . S
C42 C55 1.481 . S
C43 N44 1.299 . S
C43 N45 1.379 1_565 S
N44 N41 1.398 1_565 S
N44 C43 1.299 . S
N45 C42 1.367 . S
N45 C43 1.379 1_545 S
C46 N48 1.298 1_565 S
C46 N50 1.367 1_565 S
C46 C54 1.481 . S
C47 N49 1.299 . S
C47 N50 1.379 . S
N48 Zn32 2.036 . S
N48 C46 1.298 1_545 S
N48 N49 1.398 . S
N49 C47 1.299 . S
N49 N48 1.398 . S
N50 C46 1.367 1_545 S
N50 C47 1.379 . S
H51 C54 0.980 . S
H52 C54 0.981 . S
H53 C54 0.981 . S
C54 C46 1.481 . S
C54 H51 0.980 . S
C54 H52 0.981 . S
C54 H53 0.981 . S
C55 C42 1.481 . S
C55 H56 0.980 . S
C55 H57 0.981 . S
C55 H58 0.981 . S
H56 C55 0.980 . S
H57 C55 0.981 . S
H58 C55 0.981 . S
O59 Zn35 2.066 . S
O59 C38 1.256 . S
O60 Zn32 2.053 . S
O60 C38 1.244 1_556 S
C61 O39 1.259 . S
C61 O40 1.254 1_554 S
O62 Zn32 2.066 1_565 S
O62 C34 1.256 . S
O63 C34 1.244 1_554 S
O63 Zn35 2.053 1_565 S
Zn64 O65 2.055 . S
Zn64 O72 2.046 . S
Zn64 N80 2.036 . S
Zn64 O92 2.053 . S
Zn64 O94 2.066 . S
O65 Zn64 2.055 . S
O65 C68 1.259 . S
C66 O94 1.256 . S
C66 O95 1.244 1_554 S
Zn67 O69 2.046 . S
Zn67 O71 2.055 . S
Zn67 N73 2.036 . S
Zn67 O91 2.066 . S
Zn67 O95 2.053 . S
C68 O65 1.259 . S
C68 O69 1.254 1_554 S
O69 Zn67 2.046 . S
O69 C68 1.254 1_556 S
C70 O91 1.256 . S
C70 O92 1.244 1_556 S
O71 Zn67 2.055 . S
O71 C93 1.259 . S
O72 Zn64 2.046 . S
O72 C93 1.254 1_554 S
N73 Zn67 2.036 . S
N73 C74 1.298 . S
N73 N76 1.398 . S
C74 N73 1.298 . S
C74 N77 1.367 . S
C74 C87 1.481 . S
C75 N76 1.299 . S
C75 N77 1.379 . S
N76 N73 1.398 . S
N76 C75 1.299 . S
N77 C74 1.367 . S
N77 C75 1.379 . S
C78 N80 1.298 . S
C78 N82 1.367 . S
C78 C86 1.481 . S
C79 N81 1.299 . S
C79 N82 1.379 . S
N80 Zn64 2.036 . S
N80 C78 1.298 . S
N80 N81 1.398 . S
N81 C79 1.299 . S
N81 N80 1.398 . S
N82 C78 1.367 . S
N82 C79 1.379 . S
H83 C86 0.980 . S
H84 C86 0.981 . S
H85 C86 0.981 . S
C86 C78 1.481 . S
C86 H83 0.980 . S
C86 H84 0.981 . S
C86 H85 0.981 . S
C87 C74 1.481 . S
C87 H88 0.980 . S
C87 H89 0.981 . S
C87 H90 0.981 . S
H88 C87 0.980 . S
H89 C87 0.981 . S
H90 C87 0.981 . S
O91 Zn67 2.066 . S
O91 C70 1.256 . S
O92 Zn64 2.053 . S
O92 C70 1.244 1_554 S
C93 O71 1.259 . S
C93 O72 1.254 1_556 S
O94 Zn64 2.066 . S
O94 C66 1.256 . S
O95 C66 1.244 1_556 S
O95 Zn67 2.053 . S
H96 C108 0.930 . S
H97 C110 0.930 . S
H98 C111 0.930 1_655 S
H99 C115 0.959 1_655 S
H100 C115 0.959 . S
H101 C115 0.961 . S
H102 C116 0.960 . S
H103 C116 0.961 . S
H104 C116 0.959 . S
H105 C119 0.929 . S
H106 C120 0.931 . S
H107 C122 0.930 . S
C108 H96 0.930 . S
C108 C109 1.399 . S
C108 C113 1.399 . S
C109 C108 1.399 . S
C109 C110 1.376 . S
C110 H97 0.930 . S
C110 C109 1.376 . S
C110 C111 1.388 . S
C111 H98 0.930 1_455 S
C111 C110 1.388 . S
C111 C112 1.390 . S
C112 C111 1.390 . S
C112 C113 1.394 . S
C112 C118 1.465 . S
C113 C108 1.399 . S
C113 C112 1.394 . S
C113 C114 1.516 . S
C114 C113 1.516 . S
C114 C115 1.502 . S
C114 C116 1.561 . S
C114 C117 1.526 . S
C115 H99 0.959 1_455 S
C115 H100 0.959 . S
C115 H101 0.961 . S
C115 C114 1.502 . S
C116 H102 0.960 . S
C116 H103 0.961 . S
C116 H104 0.959 . S
C116 C114 1.561 . S
C117 C114 1.526 . S
C117 C118 1.396 . S
C117 C122 1.390 . S
C118 C112 1.465 . S
C118 C117 1.396 . S
C118 C119 1.399 1_455 S
C119 H105 0.929 . S
C119 C118 1.399 1_655 S
C119 C120 1.385 . S
C120 H106 0.931 . S
C120 C119 1.385 . S
C120 C121 1.389 . S
C121 C120 1.389 . S
C121 C122 1.387 1_655 S
C122 H107 0.930 . S
C122 C117 1.390 . S
C122 C121 1.387 1_455 S
H123 C135 0.930 . S
H124 C137 0.930 . S
H125 C138 0.930 . S
H126 C142 0.959 . S
H127 C142 0.959 . S
H128 C142 0.961 . S
H129 C143 0.960 . S
H130 C143 0.961 . S
H131 C143 0.959 . S
H132 C146 0.929 . S
H133 C147 0.931 . S
H134 C149 0.930 . S
C135 H123 0.930 . S
C135 C136 1.399 . S
C135 C140 1.399 . S
C136 C135 1.399 . S
C136 C137 1.376 1_545 S
C137 H124 0.930 . S
C137 C136 1.376 1_565 S
C137 C138 1.388 . S
C138 H125 0.930 . S
C138 C137 1.388 . S
C138 C139 1.390 . S
C139 C138 1.390 . S
C139 C140 1.394 1_565 S
C139 C145 1.465 . S
C140 C135 1.399 . S
C140 C139 1.394 1_545 S
C140 C141 1.516 . S
C141 C140 1.516 . S
C141 C142 1.502 . S
C141 C143 1.561 . S
C141 C144 1.526 . S
C142 H126 0.959 . S
C142 H127 0.959 . S
C142 H128 0.961 . S
C142 C141 1.502 . S
C143 H129 0.960 . S
C143 H130 0.961 . S
C143 H131 0.959 . S
C143 C141 1.561 . S
C144 C141 1.526 . S
C144 C145 1.396 1_545 S
C144 C149 1.390 . S
C145 C139 1.465 . S
C145 C144 1.396 1_565 S
C145 C146 1.399 . S
C146 H132 0.929 . S
C146 C145 1.399 . S
C146 C147 1.385 . S
C147 H133 0.931 . S
C147 C146 1.385 . S
C147 C148 1.389 . S
C148 C147 1.389 . S
C148 C149 1.387 1_565 S
C149 H134 0.930 . S
C149 C144 1.390 . S
C149 C148 1.387 1_545 S
H150 C162 0.930 . S
H151 C164 0.930 . S
H152 C165 0.930 . S
H153 C169 0.959 . S
H154 C169 0.959 . S
H155 C169 0.961 . S
H156 C170 0.960 . S
H157 C170 0.961 . S
H158 C170 0.959 . S
H159 C173 0.929 . S
H160 C174 0.931 . S
H161 C176 0.930 . S
C162 H150 0.930 . S
C162 C163 1.399 . S
C162 C167 1.399 . S
C163 C162 1.399 . S
C163 C164 1.376 . S
C164 H151 0.930 . S
C164 C163 1.376 . S
C164 C165 1.388 . S
C165 H152 0.930 . S
C165 C164 1.388 . S
C165 C166 1.390 . S
C166 C165 1.390 . S
C166 C167 1.394 . S
C166 C172 1.465 . S
C167 C162 1.399 . S
C167 C166 1.394 . S
C167 C168 1.516 . S
C168 C167 1.516 . S
C168 C169 1.502 . S
C168 C170 1.561 . S
C168 C171 1.526 . S
C169 H153 0.959 . S
C169 H154 0.959 . S
C169 H155 0.961 . S
C169 C168 1.502 . S
C170 H156 0.960 . S
C170 H157 0.961 . S
C170 H158 0.959 . S
C170 C168 1.561 . S
C171 C168 1.526 . S
C171 C172 1.396 . S
C171 C176 1.390 . S
C172 C166 1.465 . S
C172 C171 1.396 . S
C172 C173 1.399 . S
C173 H159 0.929 . S
C173 C172 1.399 . S
C173 C174 1.385 . S
C174 H160 0.931 . S
C174 C173 1.385 . S
C174 C175 1.389 . S
C175 C174 1.389 . S
C175 C176 1.387 . S
C176 H161 0.930 . S
C176 C171 1.390 . S
C176 C175 1.387 . S
H177 C189 0.930 . S
H178 C191 0.930 . S
H179 C192 0.930 . S
H180 C196 0.959 . S
H181 C196 0.959 . S
H182 C196 0.961 . S
H183 C197 0.960 . S
H184 C197 0.961 . S
H185 C197 0.959 1_554 S
H186 C200 0.929 . S
H187 C201 0.931 . S
H188 C203 0.930 . S
C189 H177 0.930 . S
C189 C190 1.399 . S
C189 C194 1.399 . S
C190 C189 1.399 . S
C190 C191 1.376 1_556 S
C191 H178 0.930 . S
C191 C190 1.376 1_554 S
C191 C192 1.388 . S
C192 H179 0.930 . S
C192 C191 1.388 . S
C192 C193 1.390 . S
C193 C192 1.390 . S
C193 C194 1.394 1_554 S
C193 C199 1.465 . S
C194 C189 1.399 . S
C194 C193 1.394 1_556 S
C194 C195 1.516 . S
C195 C194 1.516 . S
C195 C196 1.502 . S
C195 C197 1.561 . S
C195 C198 1.526 . S
C196 H180 0.959 . S
C196 H181 0.959 . S
C196 H182 0.961 . S
C196 C195 1.502 . S
C197 H183 0.960 . S
C197 H184 0.961 . S
C197 H185 0.959 1_556 S
C197 C195 1.561 . S
C198 C195 1.526 . S
C198 C199 1.396 1_556 S
C198 C203 1.390 . S
C199 C193 1.465 . S
C199 C198 1.396 1_554 S
C199 C200 1.399 . S
C200 H186 0.929 . S
C200 C199 1.399 . S
C200 C201 1.385 . S
C201 H187 0.931 . S
C201 C200 1.385 . S
C201 C202 1.389 . S
C202 C201 1.389 . S
C202 C203 1.387 1_554 S
C203 H188 0.930 . S
C203 C198 1.390 . S
C203 C202 1.387 1_556 S
H204 C216 0.930 . S
H205 C218 0.930 . S
H206 C219 0.930 . S
H207 C223 0.959 . S
H208 C223 0.959 . S
H209 C223 0.961 . S
H210 C224 0.960 . S
H211 C224 0.961 . S
H212 C224 0.959 . S
H213 C227 0.929 . S
H214 C228 0.931 . S
H215 C230 0.930 . S
C216 H204 0.930 . S
C216 C217 1.399 1_554 S
C216 C221 1.399 . S
C217 C216 1.399 1_556 S
C217 C218 1.376 . S
C218 H205 0.930 . S
C218 C217 1.376 . S
C218 C219 1.388 . S
C219 H206 0.930 . S
C219 C218 1.388 . S
C219 C220 1.390 . S
C220 C219 1.390 . S
C220 C221 1.394 1_556 S
C220 C226 1.465 . S
C221 C216 1.399 . S
C221 C220 1.394 1_554 S
C221 C222 1.516 . S
C222 C221 1.516 . S
C222 C223 1.502 . S
C222 C224 1.561 . S
C222 C225 1.526 . S
C223 H207 0.959 . S
C223 H208 0.959 . S
C223 H209 0.961 . S
C223 C222 1.502 . S
C224 H210 0.960 . S
C224 H211 0.961 . S
C224 H212 0.959 . S
C224 C222 1.561 . S
C225 C222 1.526 . S
C225 C226 1.396 1_554 S
C225 C230 1.390 . S
C226 C220 1.465 . S
C226 C225 1.396 1_556 S
C226 C227 1.399 . S
C227 H213 0.929 . S
C227 C226 1.399 . S
C227 C228 1.385 . S
C228 H214 0.931 . S
C228 C227 1.385 . S
C228 C229 1.389 1_556 S
C229 C228 1.389 1_554 S
C229 C230 1.387 . S
C230 H215 0.930 . S
C230 C225 1.390 . S
C230 C229 1.387 . S
H231 C243 0.930 . S
H232 C245 0.930 . S
H233 C246 0.930 . S
H234 C250 0.959 . S
H235 C250 0.959 . S
H236 C250 0.961 . S
H237 C251 0.960 . S
H238 C251 0.961 . S
H239 C251 0.959 . S
H240 C254 0.929 . S
H241 C255 0.931 . S
H242 C257 0.930 . S
C243 H231 0.930 . S
C243 C244 1.399 1_554 S
C243 C248 1.399 . S
C244 C243 1.399 1_556 S
C244 C245 1.376 . S
C245 H232 0.930 . S
C245 C244 1.376 . S
C245 C246 1.388 . S
C246 H233 0.930 . S
C246 C245 1.388 . S
C246 C247 1.390 . S
C247 C246 1.390 . S
C247 C248 1.394 1_556 S
C247 C253 1.465 . S
C248 C243 1.399 . S
C248 C247 1.394 1_554 S
C248 C249 1.516 . S
C249 C248 1.516 . S
C249 C250 1.502 . S
C249 C251 1.561 . S
C249 C252 1.526 . S
C250 H234 0.959 . S
C250 H235 0.959 . S
C250 H236 0.961 . S
C250 C249 1.502 . S
C251 H237 0.960 . S
C251 H238 0.961 . S
C251 H239 0.959 . S
C251 C249 1.561 . S
C252 C249 1.526 . S
C252 C253 1.396 1_554 S
C252 C257 1.390 . S
C253 C247 1.465 . S
C253 C252 1.396 1_556 S
C253 C254 1.399 . S
C254 H240 0.929 . S
C254 C253 1.399 . S
C254 C255 1.385 . S
C255 H241 0.931 . S
C255 C254 1.385 . S
C255 C256 1.389 . S
C256 C255 1.389 . S
C256 C257 1.387 1_556 S
C257 H242 0.930 . S
C257 C252 1.390 . S
C257 C256 1.387 1_554 S
H258 C270 0.930 . S
H259 C272 0.930 . S
H260 C273 0.930 . S
H261 C277 0.959 1_554 S
H262 C277 0.959 . S
H263 C277 0.961 . S
H264 C278 0.960 . S
H265 C278 0.961 . S
H266 C278 0.959 . S
H267 C281 0.929 . S
H268 C282 0.931 . S
H269 C284 0.930 . S
C270 H258 0.930 . S
C270 C271 1.399 1_556 S
C270 C275 1.399 . S
C271 C270 1.399 1_554 S
C271 C272 1.376 . S
C272 H259 0.930 . S
C272 C271 1.376 . S
C272 C273 1.388 . S
C273 H260 0.930 . S
C273 C272 1.388 . S
C273 C274 1.390 . S
C274 C273 1.390 . S
C274 C275 1.394 1_554 S
C274 C280 1.465 . S
C275 C270 1.399 . S
C275 C274 1.394 1_556 S
C275 C276 1.516 . S
C276 C275 1.516 . S
C276 C277 1.502 . S
C276 C278 1.561 . S
C276 C279 1.526 . S
C277 H261 0.959 1_556 S
C277 H262 0.959 . S
C277 H263 0.961 . S
C277 C276 1.502 . S
C278 H264 0.960 . S
C278 H265 0.961 . S
C278 H266 0.959 . S
C278 C276 1.561 . S
C279 C276 1.526 . S
C279 C280 1.396 1_556 S
C279 C284 1.390 . S
C280 C274 1.465 . S
C280 C279 1.396 1_554 S
C280 C281 1.399 . S
C281 H267 0.929 . S
C281 C280 1.399 . S
C281 C282 1.385 . S
C282 H268 0.931 . S
C282 C281 1.385 . S
C282 C283 1.389 . S
C283 C282 1.389 . S
C283 C284 1.387 1_554 S
C284 H269 0.930 . S
C284 C279 1.390 . S
C284 C283 1.387 1_556 S
H285 C297 0.930 . S
H286 C299 0.930 . S
H287 C300 0.930 . S
H288 C304 0.959 . S
H289 C304 0.959 . S
H290 C304 0.961 . S
H291 C305 0.960 . S
H292 C305 0.961 . S
H293 C305 0.959 . S
H294 C308 0.929 . S
H295 C309 0.931 . S
H296 C311 0.930 . S
C297 H285 0.930 . S
C297 C298 1.399 1_554 S
C297 C302 1.399 . S
C298 C297 1.399 1_556 S
C298 C299 1.376 . S
C299 H286 0.930 . S
C299 C298 1.376 . S
C299 C300 1.388 . S
C300 H287 0.930 . S
C300 C299 1.388 . S
C300 C301 1.390 . S
C301 C300 1.390 . S
C301 C302 1.394 1_556 S
C301 C307 1.465 . S
C302 C297 1.399 . S
C302 C301 1.394 1_554 S
C302 C303 1.516 . S
C303 C302 1.516 . S
C303 C304 1.502 . S
C303 C305 1.561 . S
C303 C306 1.526 . S
C304 H288 0.959 . S
C304 H289 0.959 . S
C304 H290 0.961 . S
C304 C303 1.502 . S
C305 H291 0.960 . S
C305 H292 0.961 . S
C305 H293 0.959 . S
C305 C303 1.561 . S
C306 C303 1.526 . S
C306 C307 1.396 1_554 S
C306 C311 1.390 . S
C307 C301 1.465 . S
C307 C306 1.396 1_556 S
C307 C308 1.399 . S
C308 H294 0.929 . S
C308 C307 1.399 . S
C308 C309 1.385 . S
C309 H295 0.931 . S
C309 C308 1.385 . S
C309 C310 1.389 . S
C310 C309 1.389 . S
C310 C311 1.387 1_556 S
C311 H296 0.930 . S
C311 C306 1.390 . S
C311 C310 1.387 1_554 S
H312 C324 0.930 . S
H313 C326 0.930 . S
H314 C327 0.930 . S
H315 C331 0.959 . S
H316 C331 0.959 . S
H317 C331 0.961 . S
H318 C332 0.960 . S
H319 C332 0.961 . S
H320 C332 0.959 . S
H321 C335 0.929 . S
H322 C336 0.931 . S
H323 C338 0.930 . S
C324 H312 0.930 . S
C324 C325 1.399 1_556 S
C324 C329 1.399 . S
C325 C324 1.399 1_554 S
C325 C326 1.376 . S
C326 H313 0.930 . S
C326 C325 1.376 . S
C326 C327 1.388 . S
C327 H314 0.930 . S
C327 C326 1.388 . S
C327 C328 1.390 . S
C328 C327 1.390 . S
C328 C329 1.394 1_554 S
C328 C334 1.465 . S
C329 C324 1.399 . S
C329 C328 1.394 1_556 S
C329 C330 1.516 . S
C330 C329 1.516 . S
C330 C331 1.502 . S
C330 C332 1.561 . S
C330 C333 1.526 . S
C331 H315 0.959 . S
C331 H316 0.959 . S
C331 H317 0.961 . S
C331 C330 1.502 . S
C332 H318 0.960 . S
C332 H319 0.961 . S
C332 H320 0.959 . S
C332 C330 1.561 . S
C333 C330 1.526 . S
C333 C334 1.396 1_556 S
C333 C338 1.390 . S
C334 C328 1.465 . S
C334 C333 1.396 1_554 S
C334 C335 1.399 . S
C335 H321 0.929 . S
C335 C334 1.399 . S
C335 C336 1.385 . S
C336 H322 0.931 . S
C336 C335 1.385 . S
C336 C337 1.389 . S
C337 C336 1.389 . S
C337 C338 1.387 1_554 S
C338 H323 0.930 . S
C338 C333 1.390 . S
C338 C337 1.387 1_556 S
C109 N18 1.480 . S
C121 N13 1.487 1_655 S
C136 N45 1.446 . S
C148 N50 1.511 1_565 S
C163 N77 1.514 . S
C175 N82 1.440 . S
C190 C2 1.182 . S
C202 C93 1.182 1_554 S
C217 C61 1.181 1_556 S
C229 C6 1.182 . S
C244 C36 1.187 . S
C256 C70 1.170 . S
C271 C29 1.187 . S
C283 C66 1.166 . S
C298 C4 1.187 . S
C310 C34 1.183 . S
C325 C68 1.187 . S
C337 C38 1.176 . S
