# Generated by pormake.
# Topology sml, (6)-cn, num edge types: 1
# Building blocks:
#     Node 0, Type 0, BuildingBlock: KUMBUR_clean_sbu_0, # of connection points: 6
#     Node 1, Type 0, BuildingBlock: KUMBUR_clean_sbu_0, # of connection points: 6
#     Node 2, Type 0, BuildingBlock: KUMBUR_clean_sbu_0, # of connection points: 6
#     Node 3, Type 0, BuildingBlock: KUMBUR_clean_sbu_0, # of connection points: 6
#     Node 4, Type 0, BuildingBlock: KUMBUR_clean_sbu_0, # of connection points: 6
#     Node 5, Type 0, BuildingBlock: KUMBUR_clean_sbu_0, # of connection points: 6
#     Edge 6, Type (0, 0), BuildingBlock: TEMPAE_clean_linker_10, # of connection points: 2
#     Edge 7, Type (0, 0), BuildingBlock: TEMPAE_clean_linker_10, # of connection points: 2
#     Edge 8, Type (0, 0), BuildingBlock: TEMPAE_clean_linker_10, # of connection points: 2
#     Edge 9, Type (0, 0), BuildingBlock: TEMPAE_clean_linker_10, # of connection points: 2
#     Edge 10, Type (0, 0), BuildingBlock: TEMPAE_clean_linker_10, # of connection points: 2
#     Edge 11, Type (0, 0), BuildingBlock: TEMPAE_clean_linker_10, # of connection points: 2
#     Edge 12, Type (0, 0), BuildingBlock: TEMPAE_clean_linker_10, # of connection points: 2
#     Edge 13, Type (0, 0), BuildingBlock: TEMPAE_clean_linker_10, # of connection points: 2
#     Edge 14, Type (0, 0), BuildingBlock: TEMPAE_clean_linker_10, # of connection points: 2
#     Edge 15, Type (0, 0), BuildingBlock: TEMPAE_clean_linker_10, # of connection points: 2
#     Edge 16, Type (0, 0), BuildingBlock: TEMPAE_clean_linker_10, # of connection points: 2
#     Edge 17, Type (0, 0), BuildingBlock: TEMPAE_clean_linker_10, # of connection points: 2
#     Edge 18, Type (0, 0), BuildingBlock: TEMPAE_clean_linker_10, # of connection points: 2
#     Edge 19, Type (0, 0), BuildingBlock: TEMPAE_clean_linker_10, # of connection points: 2
#     Edge 20, Type (0, 0), BuildingBlock: TEMPAE_clean_linker_10, # of connection points: 2
#     Edge 21, Type (0, 0), BuildingBlock: TEMPAE_clean_linker_10, # of connection points: 2
#     Edge 22, Type (0, 0), BuildingBlock: TEMPAE_clean_linker_10, # of connection points: 2
#     Edge 23, Type (0, 0), BuildingBlock: TEMPAE_clean_linker_10, # of connection points: 2
# Relax obj value: 0.028
# Max RMSD: 0.150
# Mean RMSD: 0.150
data_MOF--net-sml--node1-KUMBUR_clean_sbu_0--edge1-TEMPAE_clean_linker_10
_symmetry_space_group_name_H-M    P1
_symmetry_Int_Tables_number       1
_symmetry_cell_setting            triclinic
loop_
_symmetry_equiv_pos_as_xyz
'x, y, z'
_cell_length_a     33.304229
_cell_length_b     33.288778
_cell_length_c     24.149248
_cell_angle_alpha  89.982145
_cell_angle_beta   89.923168
_cell_angle_gamma 120.05448
loop_
_atom_site_label
_atom_site_type_symbol
_atom_site_fract_x
_atom_site_fract_y
_atom_site_fract_z
_atom_type_partial_charge
Tb0 Tb 0.19804 0.4371 0.9738 0.0
C1 C 0.35013 0.40906 0.07789 0.0
C2 C 0.31973 0.32657 0.06748 0.0
C3 C 0.40309 0.37902 0.07026 0.0
C4 C 0.31281 0.36484 0.07333 0.0
C5 C 0.39575 0.41672 0.07773 0.0
C6 C 0.3651 0.33398 0.06504 0.0
C7 C 0.42305 0.49757 0.09695 0.0
N8 N 0.34152 0.44438 0.08527 0.0
C9 C 0.37709 0.48808 0.09703 0.0
C10 C 0.43245 0.46179 0.08664 0.0
Tb11 Tb 0.26533 0.42583 0.08439 0.0
N12 N 0.26964 0.35927 0.07607 0.0
C13 C 0.23163 0.31557 0.07657 0.0
C14 C 0.28088 0.28204 0.06523 0.0
C15 C 0.23666 0.27651 0.07036 0.0
H16 H 0.36998 0.51587 0.10498 0.0
H17 H 0.20635 0.24215 0.06945 0.0
H18 H 0.37116 0.30508 0.06022 0.0
H19 H 0.45116 0.5324 0.10498 0.0
H20 H 0.19709 0.31034 0.08014 0.0
H21 H 0.23216 0.61347 0.99462 0.0
H22 H 0.28467 0.25173 0.06058 0.0
H23 H 0.10145 0.34118 0.93818 0.0
H24 H 0.2528 0.55281 0.9823 0.0
H25 H 0.01806 0.31457 0.93041 0.0
H26 H 0.43791 0.3842 0.06954 0.0
H27 H 0.14979 0.59249 1.00032 0.0
H28 H 0.06562 0.53052 0.99592 0.0
H29 H 0.46795 0.46899 0.08701 0.0
H30 H 0.00706 0.44886 0.97816 0.0
N31 N 0.18279 0.49689 0.98372 0.0
C32 C 0.21663 0.54267 0.9851 0.0
C33 C 0.15862 0.56547 0.99566 0.0
C34 C 0.12405 0.51891 0.99085 0.0
C35 C 0.20512 0.57744 0.99211 0.0
C36 C 0.1375 0.48519 0.9843 0.0
H37 H 0.98906 0.36817 0.9523 0.0
N38 N 0.11988 0.40926 0.96514 0.0
C39 C 0.04206 0.34981 0.94319 0.0
C40 C 0.10477 0.43964 0.9744 0.0
C41 C 0.08949 0.36511 0.94764 0.0
C42 C 0.02579 0.38011 0.95574 0.0
C43 C 0.05736 0.42593 0.97073 0.0
O44 O 0.18675 0.4076 0.89415 0.0
O45 O 0.2387 0.40724 1.00201 0.0
O46 O 0.31379 0.46383 1.01638 0.0
O47 O 0.27153 0.49244 0.97035 0.0
O48 O 0.18266 0.36601 0.95552 0.0
O49 O 0.22667 0.48163 0.90526 0.0
O50 O 0.28708 0.46086 0.16062 0.0
O51 O 0.22498 0.45624 0.05689 0.0
O52 O 0.14781 0.4004 0.03997 0.0
O53 O 0.18982 0.37694 0.09612 0.0
O54 O 0.28415 0.49783 0.10007 0.0
O55 O 0.23938 0.38713 0.15775 0.0
C56 C 0.21798 0.36792 0.97947 0.0
C57 C 0.18807 0.45403 0.81974 0.0
C58 C 0.18454 0.45533 0.71862 0.0
C59 C 0.20402 0.44944 0.76754 0.0
C60 C 0.14867 0.4659 0.72301 0.0
C61 C 0.15233 0.46455 0.82323 0.0
C62 C 0.13276 0.47042 0.77497 0.0
C63 C 0.31042 0.49183 0.97992 0.0
C64 C 0.20943 0.44771 0.86969 0.0
C65 C 0.04336 0.45876 0.98018 0.0
C66 C 0.0767 0.50524 0.99028 0.0
C67 C 0.24817 0.49613 0.07804 0.0
C68 C 0.28529 0.41703 0.23835 0.0
C69 C 0.2708 0.42221 0.29121 0.0
C70 C 0.29223 0.41773 0.33921 0.0
C71 C 0.32844 0.40785 0.33331 0.0
C72 C 0.32122 0.40692 0.23332 0.0
C73 C 0.34266 0.40236 0.2807 0.0
C74 C 0.15076 0.37617 0.08188 0.0
C75 C 0.26272 0.42319 0.18944 0.0
H76 H 0.23207 0.44185 0.76513 0.0
H77 H 0.13249 0.47008 0.68628 0.0
H78 H 0.13968 0.46828 0.86306 0.0
H79 H 0.10507 0.47841 0.77783 0.0
H80 H 0.24327 0.43047 0.29487 0.0
H81 H 0.34536 0.40377 0.3694 0.0
H82 H 0.33271 0.40265 0.193 0.0
H83 H 0.37039 0.39452 0.27665 0.0
Tb84 Tb 0.76758 0.19283 0.30528 0.0
C85 C 0.9457 0.3479 0.40931 0.0
C86 C 0.99864 0.31859 0.39931 0.0
C87 C 0.02851 0.40184 0.40081 0.0
C88 C 0.95321 0.311 0.40513 0.0
C89 C 0.98326 0.39383 0.40855 0.0
C90 C 0.0362 0.36424 0.39617 0.0
C91 C 0.92895 0.42004 0.42814 0.0
N92 N 0.90159 0.33859 0.41712 0.0
C93 C 0.89294 0.3738 0.42896 0.0
C94 C 0.97427 0.43015 0.41719 0.0
Tb95 Tb 0.84453 0.26198 0.4162 0.0
N96 N 0.91597 0.26758 0.40845 0.0
C97 C 0.92228 0.23001 0.40991 0.0
C98 C 1.00496 0.28013 0.3979 0.0
C99 C 0.96663 0.23567 0.40383 0.0
H100 H 0.85794 0.36621 0.43735 0.0
H101 H 0.97117 0.20567 0.40364 0.0
H102 H 0.07134 0.37082 0.3913 0.0
H103 H 0.92173 0.44782 0.43605 0.0
H104 H 0.89318 0.19532 0.41412 0.0
H105 H 0.62548 0.2274 0.32192 0.0
H106 H 0.03926 0.28442 0.39337 0.0
H107 H 0.76671 0.09612 0.27096 0.0
H108 H 0.70682 0.2478 0.30992 0.0
H109 H 0.70972 0.01252 0.26423 0.0
H110 H 0.05784 0.43688 0.39957 0.0
H111 H 0.56399 0.14513 0.33019 0.0
H112 H 0.5416 0.06081 0.32796 0.0
H113 H 1.00218 0.46592 0.41692 0.0
H114 H 0.56456 1.00197 0.3119 0.0
N115 N 0.69257 0.17784 0.31415 0.0
C116 C 0.68069 0.21169 0.31378 0.0
C117 C 0.59983 0.15387 0.32559 0.0
C118 C 0.61174 0.1192 0.32211 0.0
C119 C 0.63441 0.20031 0.3206 0.0
C120 C 0.65891 0.13254 0.3158 0.0
H121 H 0.62718 0.98369 0.28662 0.0
N122 N 0.71715 0.11463 0.29775 0.0
C123 C 0.69858 0.03664 0.2767 0.0
C124 C 0.67166 0.09964 0.30701 0.0
C125 C 0.7308 0.08413 0.28052 0.0
C126 C 0.65203 0.02046 0.28955 0.0
C127 C 0.63788 0.05219 0.30401 0.0
O128 O 0.78631 0.18021 0.22659 0.0
O129 O 0.83773 0.23473 0.3342 0.0
O130 O 0.85441 0.31048 0.34862 0.0
O131 O 0.78618 0.266 0.29798 0.0
O132 O 0.82415 0.17833 0.289 0.0
O133 O 0.75141 0.21957 0.23523 0.0
O134 O 0.83036 0.28368 0.49205 0.0
O135 O 0.77396 0.22079 0.38783 0.0
O136 O 0.75393 0.14327 0.37207 0.0
O137 O 0.81814 0.18661 0.42964 0.0
O138 O 0.79129 0.28083 0.42919 0.0
O139 O 0.85682 0.23646 0.49008 0.0
C140 C 0.85711 0.21446 0.31245 0.0
C141 C 0.74146 0.17966 0.15092 0.0
C142 C 0.73686 0.17572 0.04987 0.0
C143 C 0.76144 0.1968 0.09874 0.0
C144 C 0.69177 0.1372 0.05422 0.0
C145 C 0.69644 0.14141 0.15443 0.0
C146 C 0.67177 0.12033 0.10618 0.0
C147 C 0.82441 0.30563 0.3094 0.0
C148 C 0.76867 0.20207 0.20081 0.0
C149 C 0.59104 0.03832 0.31337 0.0
C150 C 0.57798 0.07181 0.32249 0.0
C151 C 0.75721 0.24455 0.40731 0.0
C152 C 0.87281 0.28307 0.56992 0.0
C153 C 0.85353 0.269 0.62306 0.0
C154 C 0.88008 0.29032 0.67075 0.0
C155 C 0.92638 0.32611 0.66414 0.0
C156 C 0.919 0.31865 0.56426 0.0
C157 C 0.94559 0.34007 0.61125 0.0
C158 C 0.78053 0.14705 0.41489 0.0
C159 C 0.84388 0.25983 0.52134 0.0
H160 H 0.79646 0.22613 0.09628 0.0
H161 H 0.67176 0.12046 1.01746 0.0
H162 H 0.68045 0.12791 0.19424 0.0
H163 H 0.637 0.0908 0.10904 0.0
H164 H 0.81799 0.24093 0.62714 0.0
H165 H 0.94763 0.34369 0.69981 0.0
H166 H 0.93449 0.32979 0.52375 0.0
H167 H 0.98122 0.36765 0.60668 0.0
Tb168 Tb 0.58496 0.75863 0.62589 0.0
C169 C 0.58883 0.92807 0.7322 0.0
C170 C 0.66991 0.98656 0.72635 0.0
C171 C 0.61115 0.00949 0.72533 0.0
C172 C 0.6346 0.93966 0.73 0.0
C173 C 0.57641 0.96278 0.73124 0.0
C174 C 0.6579 0.02138 0.72289 0.0
C175 C 0.49698 0.90291 0.74723 0.0
N176 N 0.55658 0.8827 0.73834 0.0
C177 C 0.51124 0.86989 0.74839 0.0
C178 C 0.52964 0.94953 0.73785 0.0
Tb179 Tb 0.58238 0.83046 0.73684 0.0
N180 N 0.64452 0.90491 0.7334 0.0
C181 C 0.6897 0.91523 0.73747 0.0
C182 C 0.71612 0.99702 0.72749 0.0
C183 C 0.72603 0.96121 0.73374 0.0
H184 H 0.48577 0.83389 0.75558 0.0
H185 H 0.76167 0.96895 0.73558 0.0
H186 H 0.68448 0.05759 0.71954 0.0
H187 H 0.46086 0.8924 0.75362 0.0
H188 H 0.69829 0.88821 0.74194 0.0
H189 H 0.41215 0.60886 0.63266 0.0
H190 H 0.74431 0.03259 0.72481 0.0
H191 H 0.68603 0.76556 0.60003 0.0
H192 H 0.46996 0.69181 0.62271 0.0
H193 H 0.71784 0.71273 0.59664 0.0
H194 H 0.60233 0.0367 0.72393 0.0
H195 H 0.43768 0.55136 0.64597 0.0
H196 H 0.50339 0.53458 0.64869 0.0
H197 H 0.51864 0.9751 0.73722 0.0
H198 H 0.58693 0.56273 0.63781 0.0
N199 N 0.52812 0.68213 0.63279 0.0
C200 C 0.48181 0.66731 0.62871 0.0
C201 C 0.4633 0.58785 0.642 0.0
C202 C 0.51075 0.60283 0.64183 0.0
C203 C 0.44878 0.62018 0.63426 0.0
C204 C 0.54257 0.65072 0.63666 0.0
H205 H 0.66711 0.62909 0.61668 0.0
N206 N 0.61793 0.71254 0.62249 0.0
C207 C 0.68163 0.69929 0.60665 0.0
C208 C 0.58924 0.66644 0.63077 0.0
C209 C 0.66342 0.72915 0.60861 0.0
C210 C 0.65293 0.65212 0.61816 0.0
C211 C 0.60591 0.635 0.62965 0.0
O212 O 0.61946 0.77846 0.54903 0.0
O213 O 0.60784 0.82758 0.65612 0.0
O214 O 0.54493 0.83924 0.66755 0.0
O215 O 0.52861 0.7743 0.61335 0.0
O216 O 0.65511 0.81848 0.61398 0.0
O217 O 0.54477 0.74019 0.5533 0.0
O218 O 0.54391 0.81165 0.81115 0.0
O219 O 0.55806 0.76125 0.70641 0.0
O220 O 0.61818 0.74586 0.69627 0.0
O221 O 0.63595 0.81043 0.7514 0.0
O222 O 0.5109 0.77344 0.74467 0.0
O223 O 0.61816 0.84213 0.812 0.0
C224 C 0.64849 0.84944 0.63714 0.0
C225 C 0.57958 0.73139 0.47236 0.0
C226 C 0.57923 0.72401 0.37157 0.0
C227 C 0.58011 0.74883 0.41924 0.0
C228 C 0.57798 0.68138 0.37811 0.0
C229 C 0.57803 0.68874 0.47799 0.0
C230 C 0.57733 0.66395 0.431 0.0
C231 C 0.52329 0.81016 0.62613 0.0
C232 C 0.58096 0.75865 0.52094 0.0
C233 C 0.5748 0.58746 0.6379 0.0
C234 C 0.52726 0.57142 0.64412 0.0
C235 C 0.51642 0.74134 0.72273 0.0
C236 C 0.58348 0.85255 0.89162 0.0
C237 C 0.58216 0.83325 0.94377 0.0
C238 C 0.5856 0.85784 0.99263 0.0
C239 C 0.59031 0.90218 0.98826 0.0
C240 C 0.58826 0.89675 0.88808 0.0
C241 C 0.59159 0.92137 0.93631 0.0
C242 C 0.63935 0.77325 0.73911 0.0
C243 C 0.58066 0.82601 0.84183 0.0
H244 H 0.58179 0.78208 0.41514 0.0
H245 H 0.57682 0.66117 0.34238 0.0
H246 H 0.57732 0.67461 0.51847 0.0
H247 H 0.57614 0.63102 0.43556 0.0
H248 H 0.57923 0.79935 0.94617 0.0
H249 H 0.59252 0.92182 0.02501 0.0
H250 H 0.58957 0.91221 0.84826 0.0
H251 H 0.59518 0.95547 0.93344 0.0
Tb252 Tb 0.81691 0.57602 0.97226 0.0
C253 C 0.66129 0.59892 0.07525 0.0
C254 C 0.69068 0.68125 0.06526 0.0
C255 C 0.60749 0.62777 0.06568 0.0
C256 C 0.6982 0.64339 0.07146 0.0
C257 C 0.61542 0.59051 0.07383 0.0
C258 C 0.64511 0.67311 0.06125 0.0
C259 C 0.58898 0.50984 0.09323 0.0
N260 N 0.6705 0.56406 0.08318 0.0
C261 C 0.63518 0.52009 0.09458 0.0
C262 C 0.57903 0.54513 0.08211 0.0
Tb263 Tb 0.74704 0.5836 0.08286 0.0
N264 N 0.74155 0.6496 0.07541 0.0
C265 C 0.77906 0.69358 0.07737 0.0
C266 C 0.72911 0.7261 0.06425 0.0
C267 C 0.77346 0.73229 0.07103 0.0
H268 H 0.64268 0.49263 0.10298 0.0
H269 H 0.80342 0.76689 0.07119 0.0
H270 H 0.6386 0.70166 0.05583 0.0
H271 H 0.56111 0.47478 0.10082 0.0
H272 H 0.81371 0.69932 0.08212 0.0
H273 H 0.78226 0.39928 0.98999 0.0
H274 H 0.72486 0.75612 0.05939 0.0
H275 H 0.9139 0.67219 0.93861 0.0
H276 H 0.76195 0.46023 0.97734 0.0
H277 H 0.99749 0.69889 0.93235 0.0
H278 H 0.57248 0.62201 0.06386 0.0
H279 H 0.86445 0.42017 0.99867 0.0
H280 H 0.94875 0.48221 0.99637 0.0
H281 H 0.54334 0.53733 0.08134 0.0
H282 H 0.00766 0.56409 0.98018 0.0
N283 N 0.83188 0.51602 0.98147 0.0
C284 C 0.79802 0.47023 0.98131 0.0
C285 C 0.85575 0.44726 0.99368 0.0
C286 C 0.89043 0.49389 0.98999 0.0
C287 C 0.80935 0.43535 0.9885 0.0
C288 C 0.87713 0.52771 0.98329 0.0
H289 H 0.02612 0.64508 0.95477 0.0
N290 N 0.89515 0.60392 0.9651 0.0
C291 C 0.97328 0.66355 0.94464 0.0
C292 C 0.91007 0.5734 0.97449 0.0
C293 C 0.92578 0.64822 0.94821 0.0
C294 C 0.98934 0.63311 0.95749 0.0
C295 C 0.95752 0.58714 0.97179 0.0
O296 O 0.82962 0.60769 0.89373 0.0
O297 O 0.77507 0.60433 1.00116 0.0
O298 O 0.69918 0.54553 1.01473 0.0
O299 O 0.7437 0.52141 0.96471 0.0
O300 O 0.83197 0.64733 0.9565 0.0
O301 O 0.79076 0.53331 0.90196 0.0
O302 O 0.7246 0.54757 0.15864 0.0
O303 O 0.78839 0.55442 0.0546 0.0
O304 O 0.86587 0.6119 0.03941 0.0
O305 O 0.82216 0.63313 0.09588 0.0
O306 O 0.72852 0.51146 0.09604 0.0
O307 O 0.77265 0.62114 0.15683 0.0
C308 C 0.79582 0.6442 0.97989 0.0
C309 C 0.83067 0.56395 0.8176 0.0
C310 C 0.83483 0.56394 0.71645 0.0
C311 C 0.81362 0.56704 0.76552 0.0
C312 C 0.87342 0.55753 0.72056 0.0
C313 C 0.86902 0.55742 0.82081 0.0
C314 C 0.89025 0.55424 0.7724 0.0
C315 C 0.70416 0.52037 0.9756 0.0
C316 C 0.80807 0.56826 0.86772 0.0
C317 C 0.97132 0.55418 0.98142 0.0
C318 C 0.93779 0.50758 0.99061 0.0
C319 C 0.76497 0.51392 0.07425 0.0
C320 C 0.72597 0.59092 0.23679 0.0
C321 C 0.74027 0.58595 0.28983 0.0
C322 C 0.71954 0.59186 0.33773 0.0
C323 C 0.68411 0.60285 0.3314 0.0
C324 C 0.69073 0.60198 0.23142 0.0
C325 C 0.66991 0.60786 0.27861 0.0
C326 C 0.86178 0.635 0.08176 0.0
C327 C 0.74884 0.58482 0.18802 0.0
H328 H 0.78424 0.5726 0.76332 0.0
H329 H 0.89027 0.5545 0.6837 0.0
H330 H 0.8825 0.55481 0.86054 0.0
H331 H 0.91985 0.54916 0.77503 0.0
H332 H 0.76811 0.57817 0.29368 0.0
H333 H 0.66699 0.60709 0.36722 0.0
H334 H 0.67943 0.60615 0.19096 0.0
H335 H 0.64262 0.61629 0.27428 0.0
Tb336 Tb 0.24309 0.81784 0.3041 0.0
C337 C 0.06436 0.66263 0.40916 0.0
C338 C 0.01163 0.69222 0.39986 0.0
C339 C 0.98146 0.60893 0.40154 0.0
C340 C 0.05701 0.69962 0.40514 0.0
C341 C 0.02669 0.61676 0.40874 0.0
C342 C 0.97393 0.64664 0.39708 0.0
C343 C 0.08085 0.5903 0.4277 0.0
N344 N 0.10844 0.67181 0.41655 0.0
C345 C 0.11696 0.63649 0.42824 0.0
C346 C 0.03553 0.58034 0.41722 0.0
Tb347 Tb 0.16581 0.74835 0.41519 0.0
N348 N 0.09439 0.74295 0.40819 0.0
C349 C 0.08825 0.78063 0.40996 0.0
C350 C 1.0055 0.73079 0.39865 0.0
C351 C 0.04396 0.77517 0.40435 0.0
H352 H 0.15192 0.64392 0.43634 0.0
H353 H 0.03956 0.80525 0.40437 0.0
H354 H 0.93882 0.64021 0.39269 0.0
H355 H 0.08796 0.56244 0.4355 0.0
H356 H 0.11743 0.81526 0.41406 0.0
H357 H 0.38442 0.78185 0.31489 0.0
H358 H 0.97124 0.72666 0.39448 0.0
H359 H 0.24424 0.9154 0.27333 0.0
H360 H 0.3031 0.76213 0.30521 0.0
H361 H 0.30164 0.9989 0.26676 0.0
H362 H 0.95203 0.57394 0.4006 0.0
H363 H 0.44643 0.86389 0.32335 0.0
H364 H 0.46939 0.94836 0.32265 0.0
H365 H 0.00754 0.5446 0.4172 0.0
H366 H 0.44685 0.00777 0.30914 0.0
N367 N 0.31795 0.83221 0.311 0.0
C368 C 0.32948 0.79813 0.30918 0.0
C369 C 0.41061 0.85543 0.31975 0.0
C370 C 0.399 0.89037 0.3177 0.0
C371 C 0.37573 0.80912 0.31467 0.0
C372 C 0.35184 0.87741 0.31276 0.0
H373 H 0.38437 0.02691 0.28669 0.0
N374 N 0.29377 0.89608 0.2975 0.0
C375 C 0.31268 0.97446 0.27808 0.0
C376 C 0.33931 0.91065 0.30545 0.0
C377 C 0.28021 0.927 0.28182 0.0
C378 C 0.35933 0.99016 0.28953 0.0
C379 C 0.37332 0.95804 0.30255 0.0
O380 O 0.22462 0.83191 0.22612 0.0
O381 O 0.17299 0.77631 0.33353 0.0
O382 O 0.15578 0.69991 0.34756 0.0
O383 O 0.22358 0.74453 0.29574 0.0
O384 O 0.18692 0.83314 0.28896 0.0
O385 O 0.25835 0.79129 0.23312 0.0
O386 O 0.18014 0.72683 0.49106 0.0
O387 O 0.23641 0.78867 0.38606 0.0
O388 O 0.25802 0.86642 0.37233 0.0
O389 O 0.19239 0.82375 0.42815 0.0
O390 O 0.21816 0.72832 0.42756 0.0
O391 O 0.15443 0.77462 0.48902 0.0
C392 C 0.15385 0.79698 0.31236 0.0
C393 C 0.26899 0.83257 0.14966 0.0
C394 C 0.27387 0.83728 0.04863 0.0
C395 C 0.24914 0.81587 0.09742 0.0
C396 C 0.31896 0.87574 0.05314 0.0
C397 C 0.31401 0.87076 0.15331 0.0
C398 C 0.33882 0.89221 0.10516 0.0
C399 C 0.18549 0.70488 0.30776 0.0
C400 C 0.24162 0.80981 0.19947 0.0
C401 C 0.42019 0.97149 0.31054 0.0
C402 C 0.43302 0.93766 0.31821 0.0
C403 C 0.2524 0.76404 0.40489 0.0
C404 C 0.13827 0.72837 0.56919 0.0
C405 C 0.15757 0.74303 0.62211 0.0
C406 C 0.13106 0.72225 0.6701 0.0
C407 C 0.08473 0.68643 0.66399 0.0
C408 C 0.09206 0.69276 0.56401 0.0
C409 C 0.06548 0.67189 0.6113 0.0
C410 C 0.231 0.86288 0.41466 0.0
C411 C 0.16716 0.75114 0.52032 0.0
H412 H 0.2141 0.7866 0.09485 0.0
H413 H 0.3391 0.89273 1.01645 0.0
H414 H 0.32992 0.88395 0.19316 0.0
H415 H 0.37361 0.92169 0.10815 0.0
H416 H 0.19312 0.77114 0.62579 0.0
H417 H 0.0635 0.66926 0.69992 0.0
H418 H 0.07655 0.68118 0.52365 0.0
H419 H 0.02983 0.64429 0.60712 0.0
Tb420 Tb 0.43163 0.247 0.63421 0.0
C421 C 0.41119 0.06967 0.74066 0.0
C422 C 0.32907 0.01554 0.73188 0.0
C423 C 0.38339 0.98695 0.73436 0.0
C424 C 0.36653 0.06135 0.73655 0.0
C425 C 0.42026 0.03261 0.74092 0.0
C426 C 0.33781 0.97842 0.7298 0.0
C427 C 0.50073 0.08828 0.75891 0.0
N428 N 0.4456 0.11414 0.74731 0.0
C429 C 0.4898 0.12375 0.75874 0.0
C430 C 0.46588 0.04252 0.74932 0.0
Tb431 Tb 0.42506 0.17039 0.74505 0.0
N432 N 0.35975 0.09821 0.73881 0.0
C433 C 0.31557 0.09114 0.74039 0.0
C434 C 0.28401 0.00843 0.73051 0.0
C435 C 0.27724 0.04639 0.7354 0.0
H436 H 0.51695 0.15906 0.76617 0.0
H437 H 0.24247 0.04125 0.73526 0.0
H438 H 0.30954 0.94299 0.72582 0.0
H439 H 0.53598 0.09623 0.76657 0.0
H440 H 0.3094 0.11987 0.74384 0.0
H441 H 0.60856 0.38905 0.64984 0.0
H442 H 0.25426 0.97382 0.72683 0.0
H443 H 0.33526 0.24791 0.60316 0.0
H444 H 0.54742 0.30777 0.63664 0.0
H445 H 0.30865 0.30499 0.59876 0.0
H446 H 0.38964 0.95798 0.73395 0.0
H447 H 0.5878 0.45025 0.6614 0.0
H448 H 0.52582 0.47245 0.66158 0.0
H449 H 0.47429 0.01505 0.74988 0.0
H450 H 0.44378 0.4496 0.64697 0.0
N451 N 0.49181 0.32191 0.64311 0.0
C452 C 0.53755 0.33386 0.64171 0.0
C453 C 0.56067 0.41448 0.656 0.0
C454 C 0.51403 0.40254 0.65333 0.0
C455 C 0.57251 0.38006 0.64923 0.0
C456 C 0.48015 0.35546 0.64626 0.0
H457 H 0.36271 0.38734 0.62177 0.0
N458 N 0.4037 0.29733 0.62892 0.0
C459 C 0.34407 0.31603 0.61036 0.0
C460 C 0.43438 0.34275 0.63849 0.0
C461 C 0.35932 0.28377 0.61286 0.0
C462 C 0.37464 0.36247 0.62356 0.0
C463 C 0.42068 0.3765 0.63705 0.0
O464 O 0.39928 0.22902 0.55613 0.0
O465 O 0.40392 0.17691 0.66332 0.0
O466 O 0.46341 0.16048 0.67729 0.0
O467 O 0.48567 0.2278 0.62489 0.0
O468 O 0.36046 0.19011 0.61888 0.0
O469 O 0.47374 0.26424 0.56315 0.0
O470 O 0.46112 0.18573 0.82082 0.0
O471 O 0.45421 0.24083 0.71611 0.0
O472 O 0.39702 0.26073 0.70241 0.0
O473 O 0.37489 0.19517 0.75789 0.0
O474 O 0.49733 0.2239 0.75674 0.0
O475 O 0.38745 0.15927 0.81887 0.0
C476 C 0.36404 0.15734 0.64226 0.0
C477 C 0.44254 0.27539 0.48051 0.0
C478 C 0.44231 0.28188 0.37962 0.0
C479 C 0.43932 0.25645 0.42763 0.0
C480 C 0.44853 0.3267 0.3856 0.0
C481 C 0.44899 0.32018 0.48557 0.0
C482 C 0.4519 0.34563 0.43824 0.0
C483 C 0.4878 0.19007 0.63721 0.0
C484 C 0.43851 0.24737 0.52947 0.0
C485 C 0.45373 0.4232 0.64712 0.0
C486 C 0.50038 0.4362 0.6554 0.0
C487 C 0.49493 0.25787 0.73486 0.0
C488 C 0.418 0.14504 0.89978 0.0
C489 C 0.42188 0.16514 0.95205 0.0
C490 C 0.41612 0.13959 1.00084 0.0
C491 C 0.40638 0.0934 0.99623 0.0
C492 C 0.40822 0.09901 0.89603 0.0
C493 C 0.40249 0.07338 0.94416 0.0
C494 C 0.37387 0.23353 0.74476 0.0
C495 C 0.42382 0.17289 0.8501 0.0
H496 H 0.43384 0.22158 0.42397 0.0
H497 H 0.45143 0.34739 0.34958 0.0
H498 H 0.45179 0.33542 0.52589 0.0
H499 H 0.4569 0.38023 0.44235 0.0
H500 H 0.4287 0.20055 0.95461 0.0
H501 H 0.4023 0.0729 0.03285 0.0
H502 H 0.40492 0.08293 0.85612 0.0
H503 H 0.39505 0.03785 0.94112 0.0
C504 C 0.33876 0.23377 0.83726 0.0
C505 C 0.34796 0.24857 0.78183 0.0
C506 C 0.31784 0.25094 0.8738 0.0
C507 C 0.30467 0.28281 0.85421 0.0
C508 C 0.31304 0.29712 0.79809 0.0
C509 C 0.33513 0.28043 0.76309 0.0
C510 C 0.31131 0.23621 0.9338 0.0
C511 C 0.29909 0.33055 0.77497 0.0
C512 C 0.2138 0.30001 0.92992 0.0
C513 C 0.24099 0.34385 0.95401 0.0
C514 C 0.23408 0.27902 0.89877 0.0
C515 C 0.28292 0.30208 0.89215 0.0
C516 C 0.31066 0.34552 0.91824 0.0
C517 C 0.2893 0.36626 0.94753 0.0
C518 C 0.20307 0.23318 0.87074 0.0
C519 C 0.36292 0.37096 0.91377 0.0
H520 H 0.34932 0.20995 0.85278 0.0
H521 H 0.34241 0.29256 0.72092 0.0
H522 H 0.27469 0.22239 0.94654 0.0
H523 H 0.32113 0.20941 0.94201 0.0
H524 H 0.33294 0.26684 0.9602 0.0
H525 H 0.305 0.33563 0.72958 0.0
H526 H 0.26186 0.31771 0.78354 0.0
H527 H 0.31928 0.36479 0.7955 0.0
H528 H 0.17637 0.28276 0.93394 0.0
H529 H 0.3107 0.40048 0.96434 0.0
H530 H 0.21386 0.20763 0.8818 0.0
H531 H 0.20649 0.23787 0.82513 0.0
H532 H 0.16601 0.21858 0.88216 0.0
H533 H 0.37955 0.40127 0.94211 0.0
H534 H 0.37353 0.38352 0.87074 0.0
H535 H 0.37635 0.34726 0.9235 0.0
C536 C 0.11372 0.34039 0.17343 0.0
C537 C 0.10904 0.34958 0.11773 0.0
C538 C 0.07492 0.31859 0.20891 0.0
C539 C 0.03004 0.30454 0.18801 0.0
C540 C 0.02504 0.3129 0.13159 0.0
C541 C 0.06453 0.33584 0.09758 0.0
C542 C 0.08217 0.3121 0.26921 0.0
C543 C 0.97792 0.29795 0.10705 0.0
C544 C 0.92188 0.21196 0.26284 0.0
C545 C 0.90417 0.23837 0.28656 0.0
C546 C 0.96332 0.23303 0.23181 0.0
C547 C 0.98826 0.28191 0.22499 0.0
C548 C 0.97137 0.30887 0.25051 0.0
C549 C 0.92905 0.2867 0.27954 0.0
C550 C 0.9794 0.20279 0.20441 0.0
C551 C 0.99735 0.36115 0.24605 0.0
H552 H 0.14796 0.35163 0.18998 0.0
H553 H 0.06038 0.34296 0.05507 0.0
H554 H 0.07252 0.33354 0.29501 0.0
H555 H 0.05937 0.27542 0.28179 0.0
H556 H 0.11874 0.32227 0.27839 0.0
H557 H 0.97962 0.30442 0.06173 0.0
H558 H 0.95416 0.2604 0.11474 0.0
H559 H 0.96252 0.31701 0.1273 0.0
H560 H 0.90249 0.17452 0.2672 0.0
H561 H 0.91532 0.30747 0.29592 0.0
H562 H 0.01562 0.2141 0.21659 0.0
H563 H 0.97906 0.20649 0.15876 0.0
H564 H 0.95713 0.16556 0.2153 0.0
H565 H 0.03427 0.37532 0.25757 0.0
H566 H 0.98226 0.37722 0.2731 0.0
H567 H 0.9966 0.37161 0.20263 0.0
C568 C 0.77578 0.10997 0.50756 0.0
C569 C 0.76547 0.10535 0.45071 0.0
C570 C 0.75841 0.07076 0.54252 0.0
C571 C 0.73081 0.0257 0.52 0.0
C572 C 0.72111 0.0209 0.46251 0.0
C573 C 0.73806 0.06065 0.42896 0.0
C574 C 0.76828 0.07768 0.6038 0.0
C575 C 0.69249 0.97369 0.43626 0.0
C576 C 0.71681 0.91805 0.59412 0.0
C577 C 0.671 0.89729 0.61356 0.0
C578 C 0.73727 0.96054 0.56523 0.0
C579 C 0.71156 0.98335 0.55607 0.0
C580 C 0.66589 0.9634 0.57748 0.0
C581 C 0.64587 0.92018 0.60458 0.0
C582 C 0.78571 0.97999 0.54239 0.0
C583 C 0.63751 0.98693 0.57032 0.0
H584 H 0.79616 0.14433 0.52519 0.0
H585 H 0.72988 0.05656 0.38546 0.0
H586 H 0.73542 0.06668 0.62655 0.0
H587 H 0.78245 0.05576 0.61873 0.0
H588 H 0.79314 0.11446 0.61431 0.0
H589 H 0.68991 0.97578 0.39059 0.0
H590 H 0.70792 0.95165 0.44562 0.0
H591 H 0.65692 0.95607 0.45386 0.0
H592 H 0.73626 0.90026 0.60013 0.0
H593 H 0.61017 0.90411 0.6178 0.0
H594 H 0.80804 0.01636 0.55626 0.0
H595 H 0.78462 0.98041 0.49647 0.0
H596 H 0.80197 0.95938 0.55537 0.0
H597 H 0.65798 0.02388 0.58291 0.0
H598 H 0.60498 0.96987 0.59506 0.0
H599 H 0.6283 0.98617 0.52606 0.0
C600 C 0.6726 0.77409 0.83314 0.0
C601 C 0.66543 0.75956 0.77759 0.0
C602 C 0.69352 0.75786 0.87091 0.0
C603 C 0.70874 0.72728 0.85246 0.0
C604 C 0.70244 0.71331 0.79626 0.0
C605 C 0.6803 0.729 0.76001 0.0
C606 C 0.69786 0.77214 0.93092 0.0
C607 C 0.71854 0.68119 0.77438 0.0
C608 C 0.79938 0.71224 0.93142 0.0
C609 C 0.77248 0.6678 0.95425 0.0
C610 C 0.77897 0.73286 0.89987 0.0
C611 C 0.7303 0.70877 0.89165 0.0
C612 C 0.70277 0.66478 0.91671 0.0
C613 C 0.72431 0.64441 0.94629 0.0
C614 C 0.80977 0.77935 0.87296 0.0
C615 C 0.65064 0.63833 0.91062 0.0
H616 H 0.66044 0.79689 0.84774 0.0
H617 H 0.6745 0.717 0.71778 0.0
H618 H 0.67634 0.7411 0.95689 0.0
H619 H 0.73426 0.78709 0.94503 0.0
H620 H 0.6865 0.79789 0.93823 0.0
H621 H 0.71411 0.67634 0.72883 0.0
H622 H 0.75569 0.69508 0.78449 0.0
H623 H 0.69861 0.64671 0.79452 0.0
H624 H 0.83672 0.73024 0.93662 0.0
H625 H 0.70321 0.6097 0.96208 0.0
H626 H 0.79743 0.80385 0.8831 0.0
H627 H 0.80812 0.77518 0.82727 0.0
H628 H 0.84653 0.79491 0.88614 0.0
H629 H 0.63613 0.66119 0.91993 0.0
H630 H 0.63394 0.60763 0.93846 0.0
H631 H 0.64128 0.62624 0.86728 0.0
C632 C 0.08926 0.79999 0.26329 0.0
C633 C 0.10684 0.7734 0.28674 0.0
C634 C 0.04783 0.77908 0.23246 0.0
C635 C 0.02284 0.73023 0.22563 0.0
C636 C 0.03954 0.7031 0.251 0.0
C637 C 0.08183 0.72509 0.27979 0.0
C638 C 0.03188 0.80945 0.20519 0.0
C639 C 0.01349 0.65082 0.24644 0.0
C640 C 0.89782 0.67108 0.17341 0.0
C641 C 0.90307 0.662 0.11784 0.0
C642 C 0.93635 0.69329 0.20904 0.0
C643 C 0.98144 0.70778 0.1884 0.0
C644 C 0.98701 0.69964 0.13209 0.0
C645 C 0.94783 0.67635 0.09795 0.0
C646 C 0.92859 0.69965 0.26923 0.0
C647 C 0.0344 0.71502 0.10789 0.0
H648 H 0.10877 0.83743 0.26764 0.0
H649 H 0.09545 0.70419 0.29601 0.0
H650 H 0.03275 0.80622 0.15951 0.0
H651 H 0.99549 0.7979 0.21699 0.0
H652 H 0.05392 0.84659 0.21654 0.0
H653 H 0.02839 0.63461 0.27356 0.0
H654 H 0.97652 0.63667 0.25782 0.0
H655 H 0.01447 0.64049 0.20303 0.0
H656 H 0.8634 0.65943 0.18973 0.0
H657 H 0.95242 0.66936 0.05555 0.0
H658 H 0.95143 0.73624 0.28197 0.0
H659 H 0.9378 0.67797 0.29521 0.0
H660 H 0.89199 0.68964 0.278 0.0
H661 H 0.05798 0.75252 0.11595 0.0
H662 H 0.03313 0.70893 0.06253 0.0
H663 H 0.04974 0.69589 0.12809 0.0
C664 C 0.29615 0.0921 0.59416 0.0
C665 C 0.34045 0.10999 0.61735 0.0
C666 C 0.27534 0.0502 0.56415 0.0
C667 C 0.299 0.02498 0.55792 0.0
C668 C 0.34296 0.04202 0.58307 0.0
C669 C 0.36359 0.0848 0.61097 0.0
C670 C 0.22894 0.03401 0.53698 0.0
C671 C 0.36896 0.01576 0.57924 0.0
C672 C 0.23185 0.8995 0.50645 0.0
C673 C 0.24615 0.90436 0.45087 0.0
C674 C 0.24877 0.93826 0.54195 0.0
C675 C 0.27983 0.98321 0.52111 0.0
C676 C 0.29358 0.98835 0.46482 0.0
C677 C 0.27724 0.94894 0.43093 0.0
C678 C 0.23472 0.93089 0.60218 0.0
C679 C 0.32598 0.03555 0.4403 0.0
H680 H 0.27833 0.11171 0.59807 0.0
H681 H 0.39821 0.09864 0.62699 0.0
H682 H 0.23291 0.03429 0.49131 0.0
H683 H 0.204 0.99778 0.54938 0.0
H684 H 0.21403 0.05629 0.54782 0.0
H685 H 0.40004 0.03084 0.6064 0.0
H686 H 0.34596 0.9789 0.59103 0.0
H687 H 0.38035 0.01632 0.53593 0.0
H688 H 0.2086 0.86521 0.52287 0.0
H689 H 0.28896 0.95326 0.38863 0.0
H690 H 0.22151 0.95418 0.61487 0.0
H691 H 0.26556 0.93978 0.62808 0.0
H692 H 0.2077 0.89443 0.61112 0.0
H693 H 0.31241 0.05943 0.44812 0.0
H694 H 0.33071 0.03397 0.39495 0.0
H695 H 0.36045 0.05074 0.46041 0.0
C696 C 0.21066 0.41423 0.65304 0.0
C697 C 0.20141 0.45034 0.66322 0.0
C698 C 0.22591 0.40872 0.60076 0.0
C699 C 0.23221 0.44014 0.55752 0.0
C700 C 0.2234 0.47694 0.56767 0.0
C701 C 0.20804 0.48153 0.62028 0.0
C702 C 0.23481 0.36896 0.59165 0.0
C703 C 0.23028 0.51156 0.52295 0.0
C704 C 0.30957 0.44978 0.43596 0.0
C705 C 0.27688 0.42344 0.3952 0.0
C706 C 0.29557 0.45565 0.48884 0.0
C707 C 0.24766 0.43432 0.50154 0.0
C708 C 0.21448 0.40752 0.46063 0.0
C709 C 0.22948 0.4026 0.40795 0.0
C710 C 0.33205 0.48495 0.53103 0.0
C711 C 0.16308 0.3839 0.47254 0.0
H712 H 0.20516 0.38967 0.68574 0.0
H713 H 0.20169 0.50994 0.62801 0.0
H714 H 0.21206 0.34619 0.55811 0.0
H715 H 0.2712 0.38241 0.57818 0.0
H716 H 0.22848 0.34769 0.62959 0.0
H717 H 0.22263 0.53862 0.53775 0.0
H718 H 0.26659 0.5288 0.50768 0.0
H719 H 0.20743 0.49341 0.48721 0.0
H720 H 0.34624 0.46645 0.42618 0.0
H721 H 0.20403 0.38179 0.37687 0.0
H722 H 0.32863 0.46377 0.56811 0.0
H723 H 0.32698 0.51388 0.5449 0.0
H724 H 0.36783 0.49975 0.5144 0.0
H725 H 0.1545 0.3608 0.50909 0.0
H726 H 0.14181 0.36299 0.43691 0.0
H727 H 0.15312 0.41025 0.4827 0.0
C728 C 0.78284 0.24148 0.98373 0.0
C729 C 0.75831 0.19361 0.99456 0.0
C730 C 0.80305 0.25873 0.93161 0.0
C731 C 0.79896 0.22737 0.88935 0.0
C732 C 0.77441 0.17903 0.90012 0.0
C733 C 0.7543 0.16276 0.95247 0.0
C734 C 0.82857 0.31049 0.92173 0.0
C735 C 0.76953 0.14443 0.85638 0.0
C736 C 0.81404 0.26491 0.73819 0.0
C737 C 0.8596 0.27513 0.72715 0.0
C738 C 0.7941 0.24994 0.79091 0.0
C739 C 0.82028 0.24496 0.83378 0.0
C740 C 0.86643 0.25564 0.82312 0.0
C741 C 0.88549 0.27054 0.77001 0.0
C742 C 0.74491 0.23925 0.80065 0.0
C743 C 0.89549 0.25067 0.86762 0.0
H744 H 0.78565 0.2655 1.01586 0.0
H745 H 0.73594 0.12578 0.96075 0.0
H746 H 0.86516 0.32259 0.91032 0.0
H747 H 0.81263 0.31888 0.88654 0.0
H748 H 0.82819 0.33017 0.95871 0.0
H749 H 0.74963 0.10803 0.87144 0.0
H750 H 0.75172 0.14791 0.81946 0.0
H751 H 0.80436 0.15161 0.84278 0.0
H752 H 0.794 0.26904 0.70565 0.0
H753 H 0.92049 0.27778 0.76177 0.0
H754 H 0.74397 0.26068 0.83526 0.0
H755 H 0.72286 0.20235 0.81285 0.0
H756 H 0.72956 0.24584 0.76335 0.0
H757 H 0.89816 0.27216 0.90405 0.0
H758 H 0.93108 0.26125 0.853 0.0
H759 H 0.87857 0.21407 0.88181 0.0
C760 C 0.60707 0.74 0.27286 0.0
C761 C 0.57955 0.74254 0.31528 0.0
C762 C 0.60802 0.75778 0.21977 0.0
C763 C 0.58078 0.77864 0.20874 0.0
C764 C 0.55263 0.78095 0.25122 0.0
C765 C 0.55239 0.76294 0.3039 0.0
C766 C 0.63862 0.75476 0.17569 0.0
C767 C 0.52273 0.80249 0.24104 0.0
C768 C 0.61525 0.86475 0.08977 0.0
C769 C 0.5845 0.83739 0.0479 0.0
C770 C 0.61458 0.846 0.14212 0.0
C771 C 0.58228 0.79874 0.15305 0.0
C772 C 0.55122 0.77087 0.11094 0.0
C773 C 0.55276 0.7905 0.0589 0.0
C774 C 0.64852 0.8768 0.18573 0.0
C775 C 0.51613 0.72039 0.12099 0.0
H776 H 0.62856 0.72479 0.28143 0.0
H777 H 0.53048 0.76439 0.33615 0.0
H778 H 0.61782 0.73711 0.13841 0.0
H779 H 0.66556 0.7902 0.16289 0.0
H780 H 0.65607 0.73565 0.1901 0.0
H781 H 0.50229 0.80096 0.2782 0.0
H782 H 0.54477 0.83935 0.22864 0.0
H783 H 0.49841 0.78438 0.20643 0.0
H784 H 0.64033 0.90081 0.08136 0.0
H785 H 0.52854 0.76925 0.02699 0.0
H786 H 0.67015 0.86197 0.19955 0.0
H787 H 0.62946 0.8785 0.22254 0.0
H788 H 0.67176 0.91268 0.17047 0.0
H789 H 0.53411 0.70119 0.13271 0.0
H790 H 0.49433 0.7035 0.08399 0.0
H791 H 0.49312 0.71721 0.15603 0.0
C792 C 0.84782 0.59407 0.61877 0.0
C793 C 0.81696 0.56761 0.66118 0.0
C794 C 0.83158 0.59785 0.56644 0.0
C795 C 0.78323 0.57445 0.55601 0.0
C796 C 0.75186 0.54762 0.5986 0.0
C797 C 0.76909 0.54464 0.65066 0.0
C798 C 0.86622 0.62706 0.52234 0.0
C799 C 0.70008 0.52187 0.58915 0.0
C800 C 0.7402 0.61776 0.43667 0.0
C801 C 0.73502 0.58684 0.39403 0.0
C802 C 0.75532 0.61381 0.48968 0.0
C803 C 0.76562 0.57811 0.50048 0.0
C804 C 0.76007 0.54653 0.45782 0.0
C805 C 0.74489 0.55128 0.40521 0.0
C806 C 0.76101 0.64838 0.53386 0.0
C807 C 0.77029 0.50774 0.46771 0.0
H808 H 0.88481 0.61243 0.62675 0.0
H809 H 0.74502 0.52369 0.68296 0.0
H810 H 0.86237 0.60541 0.48561 0.0
H811 H 0.85945 0.65491 0.50851 0.0
H812 H 0.90262 0.6433 0.53714 0.0
H813 H 0.68039 0.5019 0.62623 0.0
H814 H 0.68841 0.54673 0.57805 0.0
H815 H 0.69127 0.4975 0.55391 0.0
H816 H 0.73327 0.6457 0.42833 0.0
H817 H 0.74032 0.52678 0.37287 0.0
H818 H 0.79802 0.66892 0.54613 0.0
H819 H 0.74097 0.63002 0.57141 0.0
H820 H 0.74936 0.67264 0.51971 0.0
H821 H 0.80717 0.52236 0.47968 0.0
H822 H 0.76341 0.48556 0.43055 0.0
H823 H 0.74882 0.48561 0.50253 0.0
C824 C 0.1972 0.74829 0.73719 0.0
C825 C 0.15164 0.73801 0.72624 0.0
C826 C 0.21721 0.76366 0.7897 0.0
C827 C 0.19108 0.76895 0.83247 0.0
C828 C 0.14496 0.75833 0.82188 0.0
C829 C 0.12584 0.74303 0.76896 0.0
C830 C 0.26636 0.77429 0.79939 0.0
C831 C 0.11596 0.76362 0.86628 0.0
C832 C 0.22793 0.77186 0.98235 0.0
C833 C 0.25262 0.81969 0.99326 0.0
C834 C 0.20784 0.75483 0.93024 0.0
C835 C 0.21227 0.78638 0.88801 0.0
C836 C 0.23705 0.8347 0.8988 0.0
C837 C 0.25698 0.85074 0.95119 0.0
C838 C 0.1821 0.70309 0.92031 0.0
C839 C 0.24233 0.86949 0.85505 0.0
H840 H 0.21717 0.74384 0.70476 0.0
H841 H 0.09084 0.73576 0.76076 0.0
H842 H 0.28844 0.81119 0.81149 0.0
H843 H 0.26721 0.75284 0.83406 0.0
H844 H 0.28175 0.76766 0.7621 0.0
H845 H 0.08053 0.75347 0.85158 0.0
H846 H 0.11286 0.74192 0.90271 0.0
H847 H 0.13319 0.8002 0.88051 0.0
H848 H 0.22489 0.74768 1.01442 0.0
H849 H 0.27549 0.8877 0.95951 0.0
H850 H 0.19802 0.69466 0.88509 0.0
H851 H 0.14558 0.69121 0.90892 0.0
H852 H 0.18225 0.68325 0.95725 0.0
H853 H 0.26021 0.86595 0.81816 0.0
H854 H 0.26238 0.90584 0.87013 0.0
H855 H 0.20764 0.86257 0.84139 0.0
C856 C 0.46213 0.23722 0.31173 0.0
C857 C 0.43895 0.26169 0.32356 0.0
C858 C 0.45914 0.21782 0.25917 0.0
C859 C 0.43215 0.2228 0.21733 0.0
C860 C 0.4088 0.24761 0.22889 0.0
C861 C 0.41254 0.26679 0.28179 0.0
C862 C 0.48496 0.19204 0.24842 0.0
C863 C 0.37952 0.25356 0.18553 0.0
C864 C 0.45521 0.20686 0.0667 0.0
C865 C 0.42016 0.16102 0.05629 0.0
C866 C 0.45949 0.22743 0.11881 0.0
C867 C 0.42794 0.20159 0.16167 0.0
C868 C 0.3924 0.15537 0.15141 0.0
C869 C 0.38897 0.13567 0.09894 0.0
C870 C 0.49803 0.27671 0.12811 0.0
C871 C 0.35787 0.12673 0.19586 0.0
H872 H 0.48315 0.2337 0.34348 0.0
H873 H 0.3941 0.28517 0.29075 0.0
H874 H 0.46012 0.15557 0.23687 0.0
H875 H 0.50917 0.2081 0.21306 0.0
H876 H 0.50508 0.19195 0.28504 0.0
H877 H 0.36399 0.27422 0.20088 0.0
H878 H 0.40085 0.27106 0.14842 0.0
H879 H 0.35115 0.21906 0.17209 0.0
H880 H 0.47983 0.22653 0.03427 0.0
H881 H 0.36138 0.10049 0.09107 0.0
H882 H 0.52083 0.27765 0.16215 0.0
H883 H 0.4833 0.29867 0.14097 0.0
H884 H 0.51954 0.29217 0.09044 0.0
H885 H 0.37627 0.12318 0.23213 0.0
H886 H 0.33205 0.09146 0.18113 0.0
H887 H 0.33913 0.1445 0.21033 0.0
C888 C 0.26034 0.56868 0.12148 0.0
C889 C 0.22914 0.52383 0.10283 0.0
C890 C 0.24529 0.594 0.153 0.0
C891 C 0.19753 0.57429 0.16579 0.0
C892 C 0.16541 0.52974 0.14486 0.0
C893 C 0.18173 0.50463 0.11451 0.0
C894 C 0.2809 0.64138 0.17421 0.0
C895 C 0.11409 0.50777 0.15601 0.0
C896 C 0.17981 0.62778 0.29589 0.0
C897 C 0.17678 0.66485 0.27335 0.0
C898 C 0.183 0.59551 0.26114 0.0
C899 C 0.18253 0.60037 0.20275 0.0
C900 C 0.1753 0.63554 0.18029 0.0
C901 C 0.17315 0.66774 0.21589 0.0
C902 C 0.19084 0.5587 0.28686 0.0
C903 C 0.17246 0.64071 0.11855 0.0
H904 H 0.29704 0.58346 0.11279 0.0
H905 H 0.1575 0.46964 0.10122 0.0
H906 H 0.27261 0.66793 0.15935 0.0
H907 H 0.2801 0.64168 0.22015 0.0
H908 H 0.31667 0.65165 0.16063 0.0
H909 H 0.09337 0.47875 0.12696 0.0
H910 H 0.10658 0.49377 0.19881 0.0
H911 H 0.10257 0.53369 0.15252 0.0
H912 H 0.18309 0.62598 0.34036 0.0
H913 H 0.1706 0.6965 0.19868 0.0
H914 H 0.22695 0.56692 0.27842 0.0
H915 H 0.16727 0.52433 0.2682 0.0
H916 H 0.1853 0.55627 0.3324 0.0
H917 H 0.20561 0.64851 0.09853 0.0
H918 H 0.16493 0.66872 0.1078 0.0
H919 H 0.1448 0.60755 0.10098 0.0
C920 C 0.68168 0.17934 0.44488 0.0
C921 C 0.71038 0.22638 0.43161 0.0
C922 C 0.64035 0.1643 0.47524 0.0
C923 C 0.62869 0.1974 0.49471 0.0
C924 C 0.65726 0.24475 0.48025 0.0
C925 C 0.69733 0.25844 0.44856 0.0
C926 C 0.61028 0.11331 0.48794 0.0
C927 C 0.64653 0.28144 0.50007 0.0
C928 C 0.51215 0.17678 0.54527 0.0
C929 C 0.51906 0.18127 0.60265 0.0
C930 C 0.54581 0.17729 0.5097 0.0
C931 C 0.58803 0.18398 0.53202 0.0
C932 C 0.59381 0.18564 0.5904 0.0
C933 C 0.55893 0.18384 0.62515 0.0
C934 C 0.5373 0.17322 0.44804 0.0
C935 C 0.63837 0.19318 0.61599 0.0
H936 H 0.692 0.15447 0.43286 0.0
H937 H 0.71963 0.29487 0.43861 0.0
H938 H 0.61689 0.10653 0.53099 0.0
H939 H 0.57294 0.10235 0.48468 0.0
H940 H 0.61782 0.0916 0.4596 0.0
H941 H 0.67249 0.31675 0.48548 0.0
H942 H 0.61182 0.27347 0.48519 0.0
H943 H 0.64567 0.28167 0.54601 0.0
H944 H 0.481 0.17451 0.52808 0.0
H945 H 0.5643 0.1877 0.66954 0.0
H946 H 0.54307 0.14556 0.43104 0.0
H947 H 0.56223 0.20617 0.42724 0.0
H948 H 0.50152 0.16505 0.43754 0.0
H949 H 0.64812 0.16846 0.59846 0.0
H950 H 0.6357 0.18903 0.66173 0.0
H951 H 0.6668 0.22876 0.60608 0.0
C952 C 0.37189 0.57163 0.95488 0.0
C953 C 0.35117 0.52378 0.94659 0.0
C954 C 0.40437 0.6032 0.91684 0.0
C955 C 0.41518 0.58643 0.8683 0.0
C956 C 0.39578 0.5379 0.86116 0.0
C957 C 0.36414 0.5071 0.90068 0.0
C958 C 0.42491 0.65456 0.92699 0.0
C959 C 0.40564 0.51837 0.80988 0.0
C960 C 0.44294 0.67153 0.75027 0.0
C961 C 0.49147 0.6949 0.7489 0.0
C962 C 0.41769 0.63335 0.78541 0.0
C963 C 0.4416 0.61962 0.82246 0.0
C964 C 0.49069 0.64177 0.81944 0.0
C965 C 0.51505 0.67888 0.78215 0.0
C966 C 0.36539 0.60975 0.78542 0.0
C967 C 0.5178 0.62903 0.85863 0.0
H968 H 0.36133 0.58436 0.99014 0.0
H969 H 0.34735 0.46996 0.89386 0.0
H970 H 0.46296 0.67314 0.91994 0.0
H971 H 0.40974 0.66881 0.89741 0.0
H972 H 0.41807 0.66197 0.96974 0.0
H973 H 0.39407 0.4809 0.81453 0.0
H974 H 0.3871 0.52252 0.77416 0.0
H975 H 0.44321 0.53751 0.79986 0.0
H976 H 0.42474 0.68427 0.72503 0.0
H977 H 0.55262 0.69759 0.7823 0.0
H978 H 0.35348 0.61924 0.82358 0.0
H979 H 0.34984 0.57147 0.7853 0.0
H980 H 0.35208 0.61994 0.74904 0.0
H981 H 0.51773 0.64287 0.90041 0.0
H982 H 0.55443 0.64363 0.8451 0.0
H983 H 0.50155 0.59081 0.86248 0.0
C984 C 0.82888 0.38207 0.29605 0.0
C985 C 0.83334 0.34553 0.27449 0.0
C986 C 0.82622 0.4142 0.26048 0.0
C987 C 0.82868 0.40977 0.20224 0.0
C988 C 0.83722 0.37511 0.18092 0.0
C989 C 0.83878 0.34299 0.2173 0.0
C990 C 0.81689 0.45042 0.28501 0.0
C991 C 0.84191 0.37026 0.11945 0.0
C992 C 0.75258 0.44097 0.11682 0.0
C993 C 0.7839 0.48622 0.09933 0.0
C994 C 0.76709 0.41564 0.14918 0.0
C995 C 0.81445 0.43573 0.16399 0.0
C996 C 0.84682 0.48064 0.14404 0.0
C997 C 0.83099 0.50575 0.11278 0.0
C998 C 0.73121 0.36791 0.16933 0.0
C999 C 0.89779 0.50302 0.15729 0.0
H1000 H 0.82421 0.38359 0.34029 0.0
H1001 H 0.84231 0.3146 0.20084 0.0
H1002 H 0.84083 0.48504 0.26706 0.0
H1003 H 0.78099 0.44186 0.27465 0.0
H1004 H 0.82075 0.45251 0.33078 0.0
H1005 H 0.85195 0.34383 0.10982 0.0
H1006 H 0.80857 0.36018 0.09845 0.0
H1007 H 0.86839 0.40409 0.10183 0.0
H1008 H 0.71611 0.42592 0.10673 0.0
H1009 H 0.8553 0.54101 0.10032 0.0
H1010 H 0.73035 0.36733 0.21528 0.0
H1011 H 0.7405 0.3418 0.15561 0.0
H1012 H 0.69585 0.35726 0.1539 0.0
H1013 H 0.90383 0.5166 0.20024 0.0
H1014 H 0.91916 0.53241 0.12886 0.0
H1015 H 0.90983 0.47745 0.15467 0.0
C1016 C 0.31129 0.74685 0.44135 0.0
C1017 C 0.29961 0.78039 0.42659 0.0
C1018 C 0.35168 0.75865 0.47127 0.0
C1019 C 0.38207 0.80559 0.48582 0.0
C1020 C 0.37187 0.84019 0.46824 0.0
C1021 C 0.33006 0.82702 0.43998 0.0
C1022 C 0.36064 0.72039 0.48949 0.0
C1023 C 0.40409 0.89082 0.48081 0.0
C1024 C 0.4521 0.81627 0.61462 0.0
C1025 C 0.4911 0.81735 0.59138 0.0
C1026 C 0.41745 0.81552 0.58064 0.0
C1027 C 0.42263 0.81694 0.52219 0.0
C1028 C 0.46388 0.8217 0.49896 0.0
C1029 C 0.49727 0.82103 0.53384 0.0
C1030 C 0.37375 0.80959 0.6072 0.0
C1031 C 0.47182 0.82562 0.43716 0.0
H1032 H 0.28759 0.71073 0.43135 0.0
H1033 H 0.32076 0.85298 0.42969 0.0
H1034 H 0.39461 0.72696 0.4734 0.0
H1035 H 0.36217 0.71968 0.53537 0.0
H1036 H 0.33338 0.68565 0.47495 0.0
H1037 H 0.3969 0.9136 0.45394 0.0
H1038 H 0.39948 0.89783 0.52456 0.0
H1039 H 0.44084 0.90018 0.47522 0.0
H1040 H 0.44726 0.813 0.6591 0.0
H1041 H 0.52786 0.82239 0.51607 0.0
H1042 H 0.34424 0.77473 0.59694 0.0
H1043 H 0.3654 0.83563 0.59073 0.0
H1044 H 0.37672 0.81303 0.65299 0.0
H1045 H 0.4452 0.79358 0.41635 0.0
H1046 H 0.50669 0.83144 0.42585 0.0
H1047 H 0.46826 0.85485 0.42088 0.0
C1048 C 0.66722 0.49993 0.88314 0.0
C1049 C 0.66459 0.49019 0.9399 0.0
C1050 C 0.63504 0.4674 0.84582 0.0
C1051 C 0.6003 0.42354 0.86568 0.0
C1052 C 0.59585 0.41484 0.9236 0.0
C1053 C 0.62799 0.44853 0.96016 0.0
C1054 C 0.63999 0.47883 0.78479 0.0
C1055 C 0.55953 0.36854 0.94659 0.0
C1056 C 0.50375 0.33189 0.77511 0.0
C1057 C 0.52306 0.30449 0.75985 0.0
C1058 C 0.52921 0.37232 0.80713 0.0
C1059 C 0.57425 0.38449 0.82597 0.0
C1060 C 0.59421 0.35757 0.80901 0.0
C1061 C 0.56852 0.31826 0.77594 0.0
C1062 C 0.50701 0.40067 0.82257 0.0
C1063 C 0.64202 0.36897 0.82794 0.0
H1064 H 0.69566 0.53238 0.86769 0.0
H1065 H 0.62637 0.44103 1.00408 0.0
H1066 H 0.65183 0.45745 0.76256 0.0
H1067 H 0.6059 0.47038 0.76715 0.0
H1068 H 0.66526 0.51602 0.77673 0.0
H1069 H 0.55761 0.36881 0.99251 0.0
H1070 H 0.52492 0.3586 0.92941 0.0
H1071 H 0.56782 0.34142 0.93405 0.0
H1072 H 0.46836 0.32105 0.76366 0.0
H1073 H 0.5834 0.29698 0.7644 0.0
H1074 H 0.53269 0.43835 0.82138 0.0
H1075 H 0.49323 0.3918 0.86541 0.0
H1076 H 0.47777 0.39356 0.79448 0.0
H1077 H 0.66804 0.40483 0.81543 0.0
H1078 H 0.65265 0.3448 0.81055 0.0
H1079 H 0.64277 0.3673 0.8738 0.0
loop_
_geom_bond_atom_site_label_1
_geom_bond_atom_site_label_2
_geom_bond_distance
_geom_bond_site_symmetry_2
_ccdc_geom_bond_type
Tb0 N31 2.660 . S
Tb0 N38 2.600 . S
Tb0 O44 2.546 . S
Tb0 O45 2.610 . S
Tb0 O47 2.320 . S
Tb0 O48 2.552 . S
Tb0 O49 2.413 . S
Tb0 O51 2.362 1_556 S
Tb0 O52 2.421 1_556 S
Tb0 C64 2.833 . S
C1 C4 1.432 . S
C1 C5 1.414 . S
C1 N8 1.359 . S
C2 C4 1.417 . S
C2 C6 1.432 . S
C2 C14 1.410 . S
C3 C5 1.444 . S
C3 C6 1.317 . S
C3 H26 0.929 . S
C4 C1 1.432 . S
C4 C2 1.417 . S
C4 N12 1.360 . S
C5 C1 1.414 . S
C5 C3 1.444 . S
C5 C10 1.385 . S
C6 C2 1.432 . S
C6 C3 1.317 . S
C6 H18 0.930 . S
C7 C9 1.392 . S
C7 C10 1.370 . S
C7 H19 0.931 . S
N8 C1 1.359 . S
N8 C9 1.327 . S
N8 Tb11 2.600 . S
C9 C7 1.392 . S
C9 N8 1.327 . S
C9 H16 0.930 . S
C10 C5 1.385 . S
C10 C7 1.370 . S
C10 H29 0.930 . S
Tb11 N8 2.600 . S
Tb11 N12 2.660 . S
Tb11 O45 2.362 1_554 S
Tb11 O46 2.421 . S
Tb11 O50 2.546 . S
Tb11 O51 2.610 . S
Tb11 O53 2.320 . S
Tb11 O54 2.552 . S
Tb11 O55 2.413 . S
Tb11 C75 2.833 . S
N12 C4 1.360 . S
N12 Tb11 2.660 . S
N12 C13 1.305 . S
C13 N12 1.305 . S
C13 C15 1.407 . S
C13 H20 0.930 . S
C14 C2 1.410 . S
C14 C15 1.345 . S
C14 H22 0.930 . S
C15 C13 1.407 . S
C15 C14 1.345 . S
C15 H17 0.930 . S
H16 C9 0.930 . S
H17 C15 0.930 . S
H18 C6 0.930 . S
H19 C7 0.931 . S
H20 C13 0.930 . S
H21 C35 0.930 . S
H22 C14 0.930 . S
H23 C41 0.930 . S
H24 C32 0.930 . S
H25 C39 0.931 1_655 S
H26 C3 0.929 . S
H27 C33 0.930 . S
H28 C66 0.930 . S
H29 C10 0.930 . S
H30 C65 0.929 . S
N31 Tb0 2.660 . S
N31 C32 1.305 . S
N31 C36 1.360 . S
C32 H24 0.930 . S
C32 N31 1.305 . S
C32 C35 1.407 . S
C33 H27 0.930 . S
C33 C34 1.410 . S
C33 C35 1.345 . S
C34 C33 1.410 . S
C34 C36 1.417 . S
C34 C66 1.432 . S
C35 H21 0.930 . S
C35 C32 1.407 . S
C35 C33 1.345 . S
C36 N31 1.360 . S
C36 C34 1.417 . S
C36 C40 1.432 . S
H37 C42 0.930 1_655 S
N38 Tb0 2.600 . S
N38 C40 1.359 . S
N38 C41 1.327 . S
C39 H25 0.931 1_455 S
C39 C41 1.392 . S
C39 C42 1.370 . S
C40 C36 1.432 . S
C40 N38 1.359 . S
C40 C43 1.414 . S
C41 H23 0.930 . S
C41 N38 1.327 . S
C41 C39 1.392 . S
C42 H37 0.930 1_455 S
C42 C39 1.370 . S
C42 C43 1.385 . S
C43 C40 1.414 . S
C43 C42 1.385 . S
C43 C65 1.444 . S
O44 Tb0 2.546 . S
O44 C64 1.251 . S
O45 Tb0 2.610 . S
O45 Tb11 2.362 1_556 S
O45 C56 1.283 . S
O46 Tb11 2.421 . S
O46 C63 1.262 1_554 S
O47 Tb0 2.320 . S
O47 C63 1.260 . S
O48 Tb0 2.552 . S
O48 C56 1.243 . S
O49 Tb0 2.413 . S
O49 C64 1.256 . S
O50 Tb11 2.546 . S
O50 C75 1.251 . S
O51 Tb0 2.362 1_554 S
O51 Tb11 2.610 . S
O51 C67 1.283 . S
O52 Tb0 2.421 1_554 S
O52 C74 1.262 . S
O53 Tb11 2.320 . S
O53 C74 1.260 . S
O54 Tb11 2.552 . S
O54 C67 1.243 . S
O55 Tb11 2.413 . S
O55 C75 1.256 . S
C56 O45 1.283 . S
C56 O48 1.243 . S
C57 C59 1.382 . S
C57 C61 1.393 . S
C57 C64 1.500 . S
C58 C59 1.400 . S
C58 C60 1.384 . S
C59 C57 1.382 . S
C59 C58 1.400 . S
C59 H76 0.930 . S
C60 C58 1.384 . S
C60 C62 1.392 . S
C60 H77 0.931 . S
C61 C57 1.393 . S
C61 C62 1.401 . S
C61 H78 0.930 . S
C62 C60 1.392 . S
C62 C61 1.401 . S
C62 H79 0.930 . S
C63 O46 1.262 1_556 S
C63 O47 1.260 . S
C64 Tb0 2.833 . S
C64 O44 1.251 . S
C64 O49 1.256 . S
C64 C57 1.500 . S
C65 H30 0.929 . S
C65 C43 1.444 . S
C65 C66 1.317 . S
C66 H28 0.930 . S
C66 C34 1.432 . S
C66 C65 1.317 . S
C67 O51 1.283 . S
C67 O54 1.243 . S
C68 C69 1.382 . S
C68 C72 1.393 . S
C68 C75 1.500 . S
C69 C68 1.382 . S
C69 C70 1.400 . S
C69 H80 0.930 . S
C70 C69 1.400 . S
C70 C71 1.384 . S
C71 C70 1.384 . S
C71 C73 1.392 . S
C71 H81 0.931 . S
C72 C68 1.393 . S
C72 C73 1.401 . S
C72 H82 0.930 . S
C73 C71 1.392 . S
C73 C72 1.401 . S
C73 H83 0.930 . S
C74 O52 1.262 . S
C74 O53 1.260 . S
C75 Tb11 2.833 . S
C75 O50 1.251 . S
C75 O55 1.256 . S
C75 C68 1.500 . S
H76 C59 0.930 . S
H77 C60 0.931 . S
H78 C61 0.930 . S
H79 C62 0.930 . S
H80 C69 0.930 . S
H81 C71 0.931 . S
H82 C72 0.930 . S
H83 C73 0.930 . S
Tb84 N115 2.660 . S
Tb84 N122 2.600 . S
Tb84 O128 2.546 . S
Tb84 O129 2.610 . S
Tb84 O131 2.320 . S
Tb84 O132 2.552 . S
Tb84 O133 2.413 . S
Tb84 O135 2.362 . S
Tb84 O136 2.421 . S
Tb84 C148 2.833 . S
C85 C88 1.432 . S
C85 C89 1.414 . S
C85 N92 1.359 . S
C86 C88 1.417 . S
C86 C90 1.432 1_655 S
C86 C98 1.410 . S
C87 C89 1.444 1_455 S
C87 C90 1.317 . S
C87 H110 0.929 . S
C88 C85 1.432 . S
C88 C86 1.417 . S
C88 N96 1.360 . S
C89 C85 1.414 . S
C89 C87 1.444 1_655 S
C89 C94 1.385 . S
C90 C86 1.432 1_455 S
C90 C87 1.317 . S
C90 H102 0.930 . S
C91 C93 1.392 . S
C91 C94 1.370 . S
C91 H103 0.931 . S
N92 C85 1.359 . S
N92 C93 1.327 . S
N92 Tb95 2.600 . S
C93 C91 1.392 . S
C93 N92 1.327 . S
C93 H100 0.930 . S
C94 C89 1.385 . S
C94 C91 1.370 . S
C94 H113 0.930 1_655 S
Tb95 N92 2.600 . S
Tb95 N96 2.660 . S
Tb95 O129 2.362 . S
Tb95 O130 2.421 . S
Tb95 O134 2.546 . S
Tb95 O135 2.610 . S
Tb95 O137 2.320 . S
Tb95 O138 2.552 . S
Tb95 O139 2.413 . S
Tb95 C159 2.833 . S
N96 C88 1.360 . S
N96 Tb95 2.660 . S
N96 C97 1.305 . S
C97 N96 1.305 . S
C97 C99 1.407 . S
C97 H104 0.930 . S
C98 C86 1.410 . S
C98 C99 1.345 . S
C98 H106 0.930 1_655 S
C99 C97 1.407 . S
C99 C98 1.345 . S
C99 H101 0.930 . S
H100 C93 0.930 . S
H101 C99 0.930 . S
H102 C90 0.930 . S
H103 C91 0.931 . S
H104 C97 0.930 . S
H105 C119 0.930 . S
H106 C98 0.930 1_455 S
H107 C125 0.930 . S
H108 C116 0.930 . S
H109 C123 0.931 1_565 S
H110 C87 0.929 . S
H111 C117 0.930 . S
H112 C150 0.930 . S
H113 C94 0.930 1_455 S
H114 C149 0.929 . S
N115 Tb84 2.660 . S
N115 C116 1.305 . S
N115 C120 1.360 . S
C116 H108 0.930 . S
C116 N115 1.305 . S
C116 C119 1.407 . S
C117 H111 0.930 . S
C117 C118 1.410 . S
C117 C119 1.345 . S
C118 C117 1.410 . S
C118 C120 1.417 . S
C118 C150 1.432 . S
C119 H105 0.930 . S
C119 C116 1.407 . S
C119 C117 1.345 . S
C120 N115 1.360 . S
C120 C118 1.417 . S
C120 C124 1.432 . S
H121 C126 0.930 1_565 S
N122 Tb84 2.600 . S
N122 C124 1.359 . S
N122 C125 1.327 . S
C123 H109 0.931 1_545 S
C123 C125 1.392 . S
C123 C126 1.370 . S
C124 C120 1.432 . S
C124 N122 1.359 . S
C124 C127 1.414 . S
C125 H107 0.930 . S
C125 N122 1.327 . S
C125 C123 1.392 . S
C126 H121 0.930 1_545 S
C126 C123 1.370 . S
C126 C127 1.385 . S
C127 C124 1.414 . S
C127 C126 1.385 . S
C127 C149 1.444 . S
O128 Tb84 2.546 . S
O128 C148 1.251 . S
O129 Tb84 2.610 . S
O129 Tb95 2.362 . S
O129 C140 1.283 . S
O130 Tb95 2.421 . S
O130 C147 1.262 . S
O131 Tb84 2.320 . S
O131 C147 1.260 . S
O132 Tb84 2.552 . S
O132 C140 1.243 . S
O133 Tb84 2.413 . S
O133 C148 1.256 . S
O134 Tb95 2.546 . S
O134 C159 1.251 . S
O135 Tb84 2.362 . S
O135 Tb95 2.610 . S
O135 C151 1.283 . S
O136 Tb84 2.421 . S
O136 C158 1.262 . S
O137 Tb95 2.320 . S
O137 C158 1.260 . S
O138 Tb95 2.552 . S
O138 C151 1.243 . S
O139 Tb95 2.413 . S
O139 C159 1.256 . S
C140 O129 1.283 . S
C140 O132 1.243 . S
C141 C143 1.382 . S
C141 C145 1.393 . S
C141 C148 1.500 . S
C142 C143 1.400 . S
C142 C144 1.391 . S
C143 C141 1.382 . S
C143 C142 1.400 . S
C143 H160 0.930 . S
C144 C142 1.391 . S
C144 C146 1.406 . S
C144 H161 0.910 1_554 S
C145 C141 1.393 . S
C145 C146 1.401 . S
C145 H162 0.930 . S
C146 C144 1.406 . S
C146 C145 1.401 . S
C146 H163 0.930 . S
C147 O130 1.262 . S
C147 O131 1.260 . S
C148 Tb84 2.833 . S
C148 O128 1.251 . S
C148 O133 1.256 . S
C148 C141 1.500 . S
C149 H114 0.929 . S
C149 C127 1.444 . S
C149 C150 1.317 . S
C150 H112 0.930 . S
C150 C118 1.432 . S
C150 C149 1.317 . S
C151 O135 1.283 . S
C151 O138 1.243 . S
C152 C153 1.382 . S
C152 C156 1.393 . S
C152 C159 1.500 . S
C153 C152 1.382 . S
C153 C154 1.400 . S
C153 H164 0.930 . S
C154 C153 1.400 . S
C154 C155 1.384 . S
C155 C154 1.384 . S
C155 C157 1.392 . S
C155 H165 0.931 . S
C156 C152 1.393 . S
C156 C157 1.401 . S
C156 H166 0.930 . S
C157 C155 1.392 . S
C157 C156 1.401 . S
C157 H167 0.930 . S
C158 O136 1.262 . S
C158 O137 1.260 . S
C159 Tb95 2.833 . S
C159 O134 1.251 . S
C159 O139 1.256 . S
C159 C152 1.500 . S
H160 C143 0.930 . S
H161 C144 0.910 1_556 S
H162 C145 0.930 . S
H163 C146 0.930 . S
H164 C153 0.930 . S
H165 C155 0.931 . S
H166 C156 0.930 . S
H167 C157 0.930 . S
Tb168 N199 2.660 . S
Tb168 N206 2.600 . S
Tb168 O212 2.546 . S
Tb168 O213 2.610 . S
Tb168 O215 2.320 . S
Tb168 O216 2.552 . S
Tb168 O217 2.413 . S
Tb168 O219 2.362 . S
Tb168 O220 2.421 . S
Tb168 C232 2.833 . S
C169 C172 1.432 . S
C169 C173 1.414 . S
C169 N176 1.359 . S
C170 C172 1.417 . S
C170 C174 1.432 1_565 S
C170 C182 1.410 . S
C171 C173 1.444 1_545 S
C171 C174 1.317 . S
C171 H194 0.929 . S
C172 C169 1.432 . S
C172 C170 1.417 . S
C172 N180 1.360 . S
C173 C169 1.414 . S
C173 C171 1.444 1_565 S
C173 C178 1.385 . S
C174 C170 1.432 1_545 S
C174 C171 1.317 . S
C174 H186 0.930 . S
C175 C177 1.392 . S
C175 C178 1.370 . S
C175 H187 0.931 . S
N176 C169 1.359 . S
N176 C177 1.327 . S
N176 Tb179 2.600 . S
C177 C175 1.392 . S
C177 N176 1.327 . S
C177 H184 0.930 . S
C178 C173 1.385 . S
C178 C175 1.370 . S
C178 H197 0.930 1_565 S
Tb179 N176 2.600 . S
Tb179 N180 2.660 . S
Tb179 O213 2.362 . S
Tb179 O214 2.421 . S
Tb179 O218 2.546 . S
Tb179 O219 2.610 . S
Tb179 O221 2.320 . S
Tb179 O222 2.552 . S
Tb179 O223 2.413 . S
Tb179 C243 2.833 . S
N180 C172 1.360 . S
N180 Tb179 2.660 . S
N180 C181 1.305 . S
C181 N180 1.305 . S
C181 C183 1.407 . S
C181 H188 0.930 . S
C182 C170 1.410 . S
C182 C183 1.345 . S
C182 H190 0.930 1_565 S
C183 C181 1.407 . S
C183 C182 1.345 . S
C183 H185 0.930 . S
H184 C177 0.930 . S
H185 C183 0.930 . S
H186 C174 0.930 . S
H187 C175 0.931 . S
H188 C181 0.930 . S
H189 C203 0.930 . S
H190 C182 0.930 1_545 S
H191 C209 0.930 . S
H192 C200 0.930 . S
H193 C207 0.931 . S
H194 C171 0.929 . S
H195 C201 0.930 . S
H196 C234 0.930 . S
H197 C178 0.930 1_545 S
H198 C233 0.929 . S
N199 Tb168 2.660 . S
N199 C200 1.305 . S
N199 C204 1.360 . S
C200 H192 0.930 . S
C200 N199 1.305 . S
C200 C203 1.407 . S
C201 H195 0.930 . S
C201 C202 1.410 . S
C201 C203 1.345 . S
C202 C201 1.410 . S
C202 C204 1.417 . S
C202 C234 1.432 . S
C203 H189 0.930 . S
C203 C200 1.407 . S
C203 C201 1.345 . S
C204 N199 1.360 . S
C204 C202 1.417 . S
C204 C208 1.432 . S
H205 C210 0.930 . S
N206 Tb168 2.600 . S
N206 C208 1.359 . S
N206 C209 1.327 . S
C207 H193 0.931 . S
C207 C209 1.392 . S
C207 C210 1.370 . S
C208 C204 1.432 . S
C208 N206 1.359 . S
C208 C211 1.414 . S
C209 H191 0.930 . S
C209 N206 1.327 . S
C209 C207 1.392 . S
C210 H205 0.930 . S
C210 C207 1.370 . S
C210 C211 1.385 . S
C211 C208 1.414 . S
C211 C210 1.385 . S
C211 C233 1.444 . S
O212 Tb168 2.546 . S
O212 C232 1.251 . S
O213 Tb168 2.610 . S
O213 Tb179 2.362 . S
O213 C224 1.283 . S
O214 Tb179 2.421 . S
O214 C231 1.262 . S
O215 Tb168 2.320 . S
O215 C231 1.260 . S
O216 Tb168 2.552 . S
O216 C224 1.243 . S
O217 Tb168 2.413 . S
O217 C232 1.256 . S
O218 Tb179 2.546 . S
O218 C243 1.251 . S
O219 Tb168 2.362 . S
O219 Tb179 2.610 . S
O219 C235 1.283 . S
O220 Tb168 2.421 . S
O220 C242 1.262 . S
O221 Tb179 2.320 . S
O221 C242 1.260 . S
O222 Tb179 2.552 . S
O222 C235 1.243 . S
O223 Tb179 2.413 . S
O223 C243 1.256 . S
C224 O213 1.283 . S
C224 O216 1.243 . S
C225 C227 1.382 . S
C225 C229 1.393 . S
C225 C232 1.500 . S
C226 C227 1.400 . S
C226 C228 1.384 . S
C227 C225 1.382 . S
C227 C226 1.400 . S
C227 H244 0.930 . S
C228 C226 1.384 . S
C228 C230 1.392 . S
C228 H245 0.931 . S
C229 C225 1.393 . S
C229 C230 1.401 . S
C229 H246 0.930 . S
C230 C228 1.392 . S
C230 C229 1.401 . S
C230 H247 0.930 . S
C231 O214 1.262 . S
C231 O215 1.260 . S
C232 Tb168 2.833 . S
C232 O212 1.251 . S
C232 O217 1.256 . S
C232 C225 1.500 . S
C233 H198 0.929 . S
C233 C211 1.444 . S
C233 C234 1.317 . S
C234 H196 0.930 . S
C234 C202 1.432 . S
C234 C233 1.317 . S
C235 O219 1.283 . S
C235 O222 1.243 . S
C236 C237 1.382 . S
C236 C240 1.393 . S
C236 C243 1.500 . S
C237 C236 1.382 . S
C237 C238 1.400 . S
C237 H248 0.930 . S
C238 C237 1.400 . S
C238 C239 1.384 1_556 S
C239 C238 1.384 1_554 S
C239 C241 1.392 1_554 S
C239 H249 0.931 . S
C240 C236 1.393 . S
C240 C241 1.401 . S
C240 H250 0.930 . S
C241 C239 1.392 1_556 S
C241 C240 1.401 . S
C241 H251 0.930 . S
C242 O220 1.262 . S
C242 O221 1.260 . S
C243 Tb179 2.833 . S
C243 O218 1.251 . S
C243 O223 1.256 . S
C243 C236 1.500 . S
H244 C227 0.930 . S
H245 C228 0.931 . S
H246 C229 0.930 . S
H247 C230 0.930 . S
H248 C237 0.930 . S
H249 C239 0.931 . S
H250 C240 0.930 . S
H251 C241 0.930 . S
Tb252 N283 2.660 . S
Tb252 N290 2.600 . S
Tb252 O296 2.546 . S
Tb252 O297 2.610 . S
Tb252 O299 2.320 . S
Tb252 O300 2.552 . S
Tb252 O301 2.413 . S
Tb252 O303 2.362 1_556 S
Tb252 O304 2.421 1_556 S
Tb252 C316 2.833 . S
C253 C256 1.432 . S
C253 C257 1.414 . S
C253 N260 1.359 . S
C254 C256 1.417 . S
C254 C258 1.432 . S
C254 C266 1.410 . S
C255 C257 1.444 . S
C255 C258 1.317 . S
C255 H278 0.929 . S
C256 C253 1.432 . S
C256 C254 1.417 . S
C256 N264 1.360 . S
C257 C253 1.414 . S
C257 C255 1.444 . S
C257 C262 1.385 . S
C258 C254 1.432 . S
C258 C255 1.317 . S
C258 H270 0.930 . S
C259 C261 1.392 . S
C259 C262 1.370 . S
C259 H271 0.931 . S
N260 C253 1.359 . S
N260 C261 1.327 . S
N260 Tb263 2.600 . S
C261 C259 1.392 . S
C261 N260 1.327 . S
C261 H268 0.930 . S
C262 C257 1.385 . S
C262 C259 1.370 . S
C262 H281 0.930 . S
Tb263 N260 2.600 . S
Tb263 N264 2.660 . S
Tb263 O297 2.362 1_554 S
Tb263 O298 2.421 . S
Tb263 O302 2.546 . S
Tb263 O303 2.610 . S
Tb263 O305 2.320 . S
Tb263 O306 2.552 . S
Tb263 O307 2.413 . S
Tb263 C327 2.833 . S
N264 C256 1.360 . S
N264 Tb263 2.660 . S
N264 C265 1.305 . S
C265 N264 1.305 . S
C265 C267 1.407 . S
C265 H272 0.930 . S
C266 C254 1.410 . S
C266 C267 1.345 . S
C266 H274 0.930 . S
C267 C265 1.407 . S
C267 C266 1.345 . S
C267 H269 0.930 . S
H268 C261 0.930 . S
H269 C267 0.930 . S
H270 C258 0.930 . S
H271 C259 0.931 . S
H272 C265 0.930 . S
H273 C287 0.930 . S
H274 C266 0.930 . S
H275 C293 0.930 . S
H276 C284 0.930 . S
H277 C291 0.931 1_455 S
H278 C255 0.929 . S
H279 C285 0.930 . S
H280 C318 0.930 . S
H281 C262 0.930 . S
H282 C317 0.929 . S
N283 Tb252 2.660 . S
N283 C284 1.305 . S
N283 C288 1.360 . S
C284 H276 0.930 . S
C284 N283 1.305 . S
C284 C287 1.407 . S
C285 H279 0.930 . S
C285 C286 1.410 . S
C285 C287 1.345 . S
C286 C285 1.410 . S
C286 C288 1.417 . S
C286 C318 1.432 . S
C287 H273 0.930 . S
C287 C284 1.407 . S
C287 C285 1.345 . S
C288 N283 1.360 . S
C288 C286 1.417 . S
C288 C292 1.432 . S
H289 C294 0.930 1_455 S
N290 Tb252 2.600 . S
N290 C292 1.359 . S
N290 C293 1.327 . S
C291 H277 0.931 1_655 S
C291 C293 1.392 . S
C291 C294 1.370 . S
C292 C288 1.432 . S
C292 N290 1.359 . S
C292 C295 1.414 . S
C293 H275 0.930 . S
C293 N290 1.327 . S
C293 C291 1.392 . S
C294 H289 0.930 1_655 S
C294 C291 1.370 . S
C294 C295 1.385 . S
C295 C292 1.414 . S
C295 C294 1.385 . S
C295 C317 1.444 . S
O296 Tb252 2.546 . S
O296 C316 1.251 . S
O297 Tb252 2.610 . S
O297 Tb263 2.362 1_556 S
O297 C308 1.283 . S
O298 Tb263 2.421 . S
O298 C315 1.262 1_554 S
O299 Tb252 2.320 . S
O299 C315 1.260 . S
O300 Tb252 2.552 . S
O300 C308 1.243 . S
O301 Tb252 2.413 . S
O301 C316 1.256 . S
O302 Tb263 2.546 . S
O302 C327 1.251 . S
O303 Tb252 2.362 1_554 S
O303 Tb263 2.610 . S
O303 C319 1.283 . S
O304 Tb252 2.421 1_554 S
O304 C326 1.262 . S
O305 Tb263 2.320 . S
O305 C326 1.260 . S
O306 Tb263 2.552 . S
O306 C319 1.243 . S
O307 Tb263 2.413 . S
O307 C327 1.256 . S
C308 O297 1.283 . S
C308 O300 1.243 . S
C309 C311 1.382 . S
C309 C313 1.393 . S
C309 C316 1.500 . S
C310 C311 1.400 . S
C310 C312 1.384 . S
C311 C309 1.382 . S
C311 C310 1.400 . S
C311 H328 0.930 . S
C312 C310 1.384 . S
C312 C314 1.392 . S
C312 H329 0.931 . S
C313 C309 1.393 . S
C313 C314 1.401 . S
C313 H330 0.930 . S
C314 C312 1.392 . S
C314 C313 1.401 . S
C314 H331 0.930 . S
C315 O298 1.262 1_556 S
C315 O299 1.260 . S
C316 Tb252 2.833 . S
C316 O296 1.251 . S
C316 O301 1.256 . S
C316 C309 1.500 . S
C317 H282 0.929 . S
C317 C295 1.444 . S
C317 C318 1.317 . S
C318 H280 0.930 . S
C318 C286 1.432 . S
C318 C317 1.317 . S
C319 O303 1.283 . S
C319 O306 1.243 . S
C320 C321 1.382 . S
C320 C324 1.393 . S
C320 C327 1.500 . S
C321 C320 1.382 . S
C321 C322 1.400 . S
C321 H332 0.930 . S
C322 C321 1.400 . S
C322 C323 1.384 . S
C323 C322 1.384 . S
C323 C325 1.392 . S
C323 H333 0.931 . S
C324 C320 1.393 . S
C324 C325 1.401 . S
C324 H334 0.930 . S
C325 C323 1.392 . S
C325 C324 1.401 . S
C325 H335 0.930 . S
C326 O304 1.262 . S
C326 O305 1.260 . S
C327 Tb263 2.833 . S
C327 O302 1.251 . S
C327 O307 1.256 . S
C327 C320 1.500 . S
H328 C311 0.930 . S
H329 C312 0.931 . S
H330 C313 0.930 . S
H331 C314 0.930 . S
H332 C321 0.930 . S
H333 C323 0.931 . S
H334 C324 0.930 . S
H335 C325 0.930 . S
Tb336 N367 2.660 . S
Tb336 N374 2.600 . S
Tb336 O380 2.546 . S
Tb336 O381 2.610 . S
Tb336 O383 2.320 . S
Tb336 O384 2.552 . S
Tb336 O385 2.413 . S
Tb336 O387 2.362 . S
Tb336 O388 2.421 . S
Tb336 C400 2.833 . S
C337 C340 1.432 . S
C337 C341 1.414 . S
C337 N344 1.359 . S
C338 C340 1.417 . S
C338 C342 1.432 1_455 S
C338 C350 1.410 . S
C339 C341 1.444 1_655 S
C339 C342 1.317 . S
C339 H362 0.929 . S
C340 C337 1.432 . S
C340 C338 1.417 . S
C340 N348 1.360 . S
C341 C337 1.414 . S
C341 C339 1.444 1_455 S
C341 C346 1.385 . S
C342 C338 1.432 1_655 S
C342 C339 1.317 . S
C342 H354 0.930 . S
C343 C345 1.392 . S
C343 C346 1.370 . S
C343 H355 0.931 . S
N344 C337 1.359 . S
N344 C345 1.327 . S
N344 Tb347 2.600 . S
C345 C343 1.392 . S
C345 N344 1.327 . S
C345 H352 0.930 . S
C346 C341 1.385 . S
C346 C343 1.370 . S
C346 H365 0.930 1_455 S
Tb347 N344 2.600 . S
Tb347 N348 2.660 . S
Tb347 O381 2.362 . S
Tb347 O382 2.421 . S
Tb347 O386 2.546 . S
Tb347 O387 2.610 . S
Tb347 O389 2.320 . S
Tb347 O390 2.552 . S
Tb347 O391 2.413 . S
Tb347 C411 2.833 . S
N348 C340 1.360 . S
N348 Tb347 2.660 . S
N348 C349 1.305 . S
C349 N348 1.305 . S
C349 C351 1.407 . S
C349 H356 0.930 . S
C350 C338 1.410 . S
C350 C351 1.345 . S
C350 H358 0.930 1_455 S
C351 C349 1.407 . S
C351 C350 1.345 . S
C351 H353 0.930 . S
H352 C345 0.930 . S
H353 C351 0.930 . S
H354 C342 0.930 . S
H355 C343 0.931 . S
H356 C349 0.930 . S
H357 C371 0.930 . S
H358 C350 0.930 1_655 S
H359 C377 0.930 . S
H360 C368 0.930 . S
H361 C375 0.931 1_545 S
H362 C339 0.929 . S
H363 C369 0.930 . S
H364 C402 0.930 . S
H365 C346 0.930 1_655 S
H366 C401 0.929 . S
N367 Tb336 2.660 . S
N367 C368 1.305 . S
N367 C372 1.360 . S
C368 H360 0.930 . S
C368 N367 1.305 . S
C368 C371 1.407 . S
C369 H363 0.930 . S
C369 C370 1.410 . S
C369 C371 1.345 . S
C370 C369 1.410 . S
C370 C372 1.417 . S
C370 C402 1.432 . S
C371 H357 0.930 . S
C371 C368 1.407 . S
C371 C369 1.345 . S
C372 N367 1.360 . S
C372 C370 1.417 . S
C372 C376 1.432 . S
H373 C378 0.930 1_545 S
N374 Tb336 2.600 . S
N374 C376 1.359 . S
N374 C377 1.327 . S
C375 H361 0.931 1_565 S
C375 C377 1.392 . S
C375 C378 1.370 . S
C376 C372 1.432 . S
C376 N374 1.359 . S
C376 C379 1.414 . S
C377 H359 0.930 . S
C377 N374 1.327 . S
C377 C375 1.392 . S
C378 H373 0.930 1_565 S
C378 C375 1.370 . S
C378 C379 1.385 . S
C379 C376 1.414 . S
C379 C378 1.385 . S
C379 C401 1.444 . S
O380 Tb336 2.546 . S
O380 C400 1.251 . S
O381 Tb336 2.610 . S
O381 Tb347 2.362 . S
O381 C392 1.283 . S
O382 Tb347 2.421 . S
O382 C399 1.262 . S
O383 Tb336 2.320 . S
O383 C399 1.260 . S
O384 Tb336 2.552 . S
O384 C392 1.243 . S
O385 Tb336 2.413 . S
O385 C400 1.256 . S
O386 Tb347 2.546 . S
O386 C411 1.251 . S
O387 Tb336 2.362 . S
O387 Tb347 2.610 . S
O387 C403 1.283 . S
O388 Tb336 2.421 . S
O388 C410 1.262 . S
O389 Tb347 2.320 . S
O389 C410 1.260 . S
O390 Tb347 2.552 . S
O390 C403 1.243 . S
O391 Tb347 2.413 . S
O391 C411 1.256 . S
C392 O381 1.283 . S
C392 O384 1.243 . S
C393 C395 1.382 . S
C393 C397 1.393 . S
C393 C400 1.500 . S
C394 C395 1.400 . S
C394 C396 1.391 . S
C395 C393 1.382 . S
C395 C394 1.400 . S
C395 H412 0.930 . S
C396 C394 1.391 . S
C396 C398 1.406 . S
C396 H413 0.910 1_554 S
C397 C393 1.393 . S
C397 C398 1.401 . S
C397 H414 0.930 . S
C398 C396 1.406 . S
C398 C397 1.401 . S
C398 H415 0.930 . S
C399 O382 1.262 . S
C399 O383 1.260 . S
C400 Tb336 2.833 . S
C400 O380 1.251 . S
C400 O385 1.256 . S
C400 C393 1.500 . S
C401 H366 0.929 . S
C401 C379 1.444 . S
C401 C402 1.317 . S
C402 H364 0.930 . S
C402 C370 1.432 . S
C402 C401 1.317 . S
C403 O387 1.283 . S
C403 O390 1.243 . S
C404 C405 1.382 . S
C404 C408 1.393 . S
C404 C411 1.500 . S
C405 C404 1.382 . S
C405 C406 1.400 . S
C405 H416 0.930 . S
C406 C405 1.400 . S
C406 C407 1.384 . S
C407 C406 1.384 . S
C407 C409 1.392 . S
C407 H417 0.931 . S
C408 C404 1.393 . S
C408 C409 1.401 . S
C408 H418 0.930 . S
C409 C407 1.392 . S
C409 C408 1.401 . S
C409 H419 0.930 . S
C410 O388 1.262 . S
C410 O389 1.260 . S
C411 Tb347 2.833 . S
C411 O386 1.251 . S
C411 O391 1.256 . S
C411 C404 1.500 . S
H412 C395 0.930 . S
H413 C396 0.910 1_556 S
H414 C397 0.930 . S
H415 C398 0.930 . S
H416 C405 0.930 . S
H417 C407 0.931 . S
H418 C408 0.930 . S
H419 C409 0.930 . S
Tb420 N451 2.660 . S
Tb420 N458 2.600 . S
Tb420 O464 2.546 . S
Tb420 O465 2.610 . S
Tb420 O467 2.320 . S
Tb420 O468 2.552 . S
Tb420 O469 2.413 . S
Tb420 O471 2.362 . S
Tb420 O472 2.421 . S
Tb420 C484 2.833 . S
C421 C424 1.432 . S
C421 C425 1.414 . S
C421 N428 1.359 . S
C422 C424 1.417 . S
C422 C426 1.432 1_545 S
C422 C434 1.410 . S
C423 C425 1.444 1_565 S
C423 C426 1.317 . S
C423 H446 0.929 . S
C424 C421 1.432 . S
C424 C422 1.417 . S
C424 N432 1.360 . S
C425 C421 1.414 . S
C425 C423 1.444 1_545 S
C425 C430 1.385 . S
C426 C422 1.432 1_565 S
C426 C423 1.317 . S
C426 H438 0.930 . S
C427 C429 1.392 . S
C427 C430 1.370 . S
C427 H439 0.931 . S
N428 C421 1.359 . S
N428 C429 1.327 . S
N428 Tb431 2.600 . S
C429 C427 1.392 . S
C429 N428 1.327 . S
C429 H436 0.930 . S
C430 C425 1.385 . S
C430 C427 1.370 . S
C430 H449 0.930 1_545 S
Tb431 N428 2.600 . S
Tb431 N432 2.660 . S
Tb431 O465 2.362 . S
Tb431 O466 2.421 . S
Tb431 O470 2.546 . S
Tb431 O471 2.610 . S
Tb431 O473 2.320 . S
Tb431 O474 2.552 . S
Tb431 O475 2.413 . S
Tb431 C495 2.833 . S
N432 C424 1.360 . S
N432 Tb431 2.660 . S
N432 C433 1.305 . S
C433 N432 1.305 . S
C433 C435 1.407 . S
C433 H440 0.930 . S
C434 C422 1.410 . S
C434 C435 1.345 . S
C434 H442 0.930 1_545 S
C435 C433 1.407 . S
C435 C434 1.345 . S
C435 H437 0.930 . S
H436 C429 0.930 . S
H437 C435 0.930 . S
H438 C426 0.930 . S
H439 C427 0.931 . S
H440 C433 0.930 . S
H441 C455 0.930 . S
H442 C434 0.930 1_565 S
H443 C461 0.930 . S
H444 C452 0.930 . S
H445 C459 0.931 . S
H446 C423 0.929 . S
H447 C453 0.930 . S
H448 C486 0.930 . S
H449 C430 0.930 1_565 S
H450 C485 0.929 . S
N451 Tb420 2.660 . S
N451 C452 1.305 . S
N451 C456 1.360 . S
C452 H444 0.930 . S
C452 N451 1.305 . S
C452 C455 1.407 . S
C453 H447 0.930 . S
C453 C454 1.410 . S
C453 C455 1.345 . S
C454 C453 1.410 . S
C454 C456 1.417 . S
C454 C486 1.432 . S
C455 H441 0.930 . S
C455 C452 1.407 . S
C455 C453 1.345 . S
C456 N451 1.360 . S
C456 C454 1.417 . S
C456 C460 1.432 . S
H457 C462 0.930 . S
N458 Tb420 2.600 . S
N458 C460 1.359 . S
N458 C461 1.327 . S
C459 H445 0.931 . S
C459 C461 1.392 . S
C459 C462 1.370 . S
C460 C456 1.432 . S
C460 N458 1.359 . S
C460 C463 1.414 . S
C461 H443 0.930 . S
C461 N458 1.327 . S
C461 C459 1.392 . S
C462 H457 0.930 . S
C462 C459 1.370 . S
C462 C463 1.385 . S
C463 C460 1.414 . S
C463 C462 1.385 . S
C463 C485 1.444 . S
O464 Tb420 2.546 . S
O464 C484 1.251 . S
O465 Tb420 2.610 . S
O465 Tb431 2.362 . S
O465 C476 1.283 . S
O466 Tb431 2.421 . S
O466 C483 1.262 . S
O467 Tb420 2.320 . S
O467 C483 1.260 . S
O468 Tb420 2.552 . S
O468 C476 1.243 . S
O469 Tb420 2.413 . S
O469 C484 1.256 . S
O470 Tb431 2.546 . S
O470 C495 1.251 . S
O471 Tb420 2.362 . S
O471 Tb431 2.610 . S
O471 C487 1.283 . S
O472 Tb420 2.421 . S
O472 C494 1.262 . S
O473 Tb431 2.320 . S
O473 C494 1.260 . S
O474 Tb431 2.552 . S
O474 C487 1.243 . S
O475 Tb431 2.413 . S
O475 C495 1.256 . S
C476 O465 1.283 . S
C476 O468 1.243 . S
C477 C479 1.382 . S
C477 C481 1.393 . S
C477 C484 1.500 . S
C478 C479 1.400 . S
C478 C480 1.384 . S
C479 C477 1.382 . S
C479 C478 1.400 . S
C479 H496 0.930 . S
C480 C478 1.384 . S
C480 C482 1.392 . S
C480 H497 0.931 . S
C481 C477 1.393 . S
C481 C482 1.401 . S
C481 H498 0.930 . S
C482 C480 1.392 . S
C482 C481 1.401 . S
C482 H499 0.930 . S
C483 O466 1.262 . S
C483 O467 1.260 . S
C484 Tb420 2.833 . S
C484 O464 1.251 . S
C484 O469 1.256 . S
C484 C477 1.500 . S
C485 H450 0.929 . S
C485 C463 1.444 . S
C485 C486 1.317 . S
C486 H448 0.930 . S
C486 C454 1.432 . S
C486 C485 1.317 . S
C487 O471 1.283 . S
C487 O474 1.243 . S
C488 C489 1.382 . S
C488 C492 1.393 . S
C488 C495 1.500 . S
C489 C488 1.382 . S
C489 C490 1.400 . S
C489 H500 0.930 . S
C490 C489 1.400 . S
C490 C491 1.384 1_556 S
C491 C490 1.384 1_554 S
C491 C493 1.392 1_554 S
C491 H501 0.931 . S
C492 C488 1.393 . S
C492 C493 1.401 . S
C492 H502 0.930 . S
C493 C491 1.392 1_556 S
C493 C492 1.401 . S
C493 H503 0.930 . S
C494 O472 1.262 . S
C494 O473 1.260 . S
C495 Tb431 2.833 . S
C495 O470 1.251 . S
C495 O475 1.256 . S
C495 C488 1.500 . S
H496 C479 0.930 . S
H497 C480 0.931 . S
H498 C481 0.930 . S
H499 C482 0.930 . S
H500 C489 0.930 . S
H501 C491 0.931 . S
H502 C492 0.930 . S
H503 C493 0.930 . S
C504 C505 1.391 . S
C504 C506 1.394 . S
C504 H520 0.931 . S
C505 C504 1.391 . S
C505 C509 1.376 . S
C506 C504 1.394 . S
C506 C507 1.369 . S
C506 C510 1.531 . S
C507 C506 1.369 . S
C507 C508 1.410 . S
C507 C515 1.503 . S
C508 C507 1.410 . S
C508 C509 1.392 . S
C508 C511 1.511 . S
C509 C505 1.376 . S
C509 C508 1.392 . S
C509 H521 0.929 . S
C510 C506 1.531 . S
C510 H522 0.960 . S
C510 H523 0.962 . S
C510 H524 0.960 . S
C511 C508 1.511 . S
C511 H525 0.961 . S
C511 H526 0.961 . S
C511 H527 0.961 . S
C512 C513 1.370 . S
C512 C514 1.363 . S
C512 H528 0.931 . S
C513 C512 1.370 . S
C513 C517 1.408 . S
C514 C512 1.363 . S
C514 C515 1.370 . S
C514 C518 1.524 . S
C515 C507 1.503 . S
C515 C514 1.370 . S
C515 C516 1.403 . S
C516 C515 1.403 . S
C516 C517 1.404 . S
C516 C519 1.539 . S
C517 C513 1.408 . S
C517 C516 1.404 . S
C517 H529 0.930 . S
C518 C514 1.524 . S
C518 H530 0.956 . S
C518 H531 0.961 . S
C518 H532 0.961 . S
C519 C516 1.539 . S
C519 H533 0.958 . S
C519 H534 0.961 . S
C519 H535 0.960 . S
H520 C504 0.931 . S
H521 C509 0.929 . S
H522 C510 0.960 . S
H523 C510 0.962 . S
H524 C510 0.960 . S
H525 C511 0.961 . S
H526 C511 0.961 . S
H527 C511 0.961 . S
H528 C512 0.931 . S
H529 C517 0.930 . S
H530 C518 0.956 . S
H531 C518 0.961 . S
H532 C518 0.961 . S
H533 C519 0.958 . S
H534 C519 0.961 . S
H535 C519 0.960 . S
C536 C537 1.391 . S
C536 C538 1.394 . S
C536 H552 0.931 . S
C537 C536 1.391 . S
C537 C541 1.376 . S
C538 C536 1.394 . S
C538 C539 1.369 . S
C538 C542 1.531 . S
C539 C538 1.369 . S
C539 C540 1.410 . S
C539 C547 1.503 1_455 S
C540 C539 1.410 . S
C540 C541 1.392 . S
C540 C543 1.511 1_455 S
C541 C537 1.376 . S
C541 C540 1.392 . S
C541 H553 0.929 . S
C542 C538 1.531 . S
C542 H554 0.960 . S
C542 H555 0.962 . S
C542 H556 0.960 . S
C543 C540 1.511 1_655 S
C543 H557 0.961 . S
C543 H558 0.961 . S
C543 H559 0.961 . S
C544 C545 1.370 . S
C544 C546 1.363 . S
C544 H560 0.931 . S
C545 C544 1.370 . S
C545 C549 1.408 . S
C546 C544 1.363 . S
C546 C547 1.370 . S
C546 C550 1.524 . S
C547 C539 1.503 1_655 S
C547 C546 1.370 . S
C547 C548 1.403 . S
C548 C547 1.403 . S
C548 C549 1.404 . S
C548 C551 1.539 1_655 S
C549 C545 1.408 . S
C549 C548 1.404 . S
C549 H561 0.930 . S
C550 C546 1.524 . S
C550 H562 0.956 . S
C550 H563 0.961 . S
C550 H564 0.961 . S
C551 C548 1.539 1_455 S
C551 H565 0.958 . S
C551 H566 0.961 1_455 S
C551 H567 0.960 . S
H552 C536 0.931 . S
H553 C541 0.929 . S
H554 C542 0.960 . S
H555 C542 0.962 . S
H556 C542 0.960 . S
H557 C543 0.961 . S
H558 C543 0.961 . S
H559 C543 0.961 . S
H560 C544 0.931 . S
H561 C549 0.930 . S
H562 C550 0.956 . S
H563 C550 0.961 . S
H564 C550 0.961 . S
H565 C551 0.958 . S
H566 C551 0.961 1_655 S
H567 C551 0.960 . S
C568 C569 1.391 . S
C568 C570 1.394 . S
C568 H584 0.931 . S
C569 C568 1.391 . S
C569 C573 1.376 . S
C570 C568 1.394 . S
C570 C571 1.369 . S
C570 C574 1.531 . S
C571 C570 1.369 . S
C571 C572 1.410 . S
C571 C579 1.503 1_545 S
C572 C571 1.410 . S
C572 C573 1.392 . S
C572 C575 1.511 1_545 S
C573 C569 1.376 . S
C573 C572 1.392 . S
C573 H585 0.929 . S
C574 C570 1.531 . S
C574 H586 0.960 . S
C574 H587 0.962 . S
C574 H588 0.960 . S
C575 C572 1.511 1_565 S
C575 H589 0.961 . S
C575 H590 0.961 . S
C575 H591 0.961 1_565 S
C576 C577 1.370 . S
C576 C578 1.363 . S
C576 H592 0.931 . S
C577 C576 1.370 . S
C577 C581 1.408 . S
C578 C576 1.363 . S
C578 C579 1.370 . S
C578 C582 1.524 . S
C579 C571 1.503 1_565 S
C579 C578 1.370 . S
C579 C580 1.403 . S
C580 C579 1.403 . S
C580 C581 1.404 . S
C580 C583 1.539 1_565 S
C581 C577 1.408 . S
C581 C580 1.404 . S
C581 H593 0.930 . S
C582 C578 1.524 . S
C582 H594 0.956 . S
C582 H595 0.961 . S
C582 H596 0.961 . S
C583 C580 1.539 1_545 S
C583 H597 0.958 . S
C583 H598 0.961 . S
C583 H599 0.960 . S
H584 C568 0.931 . S
H585 C573 0.929 . S
H586 C574 0.960 . S
H587 C574 0.962 . S
H588 C574 0.960 . S
H589 C575 0.961 . S
H590 C575 0.961 . S
H591 C575 0.961 1_545 S
H592 C576 0.931 . S
H593 C581 0.930 . S
H594 C582 0.956 . S
H595 C582 0.961 . S
H596 C582 0.961 . S
H597 C583 0.958 . S
H598 C583 0.961 . S
H599 C583 0.960 . S
C600 C601 1.391 . S
C600 C602 1.394 . S
C600 H616 0.931 . S
C601 C600 1.391 . S
C601 C605 1.376 . S
C602 C600 1.394 . S
C602 C603 1.369 . S
C602 C606 1.531 . S
C603 C602 1.369 . S
C603 C604 1.410 . S
C603 C611 1.503 . S
C604 C603 1.410 . S
C604 C605 1.392 . S
C604 C607 1.511 . S
C605 C601 1.376 . S
C605 C604 1.392 . S
C605 H617 0.929 . S
C606 C602 1.531 . S
C606 H618 0.960 . S
C606 H619 0.962 . S
C606 H620 0.960 . S
C607 C604 1.511 . S
C607 H621 0.961 . S
C607 H622 0.961 . S
C607 H623 0.961 . S
C608 C609 1.370 . S
C608 C610 1.363 . S
C608 H624 0.931 . S
C609 C608 1.370 . S
C609 C613 1.408 . S
C610 C608 1.363 . S
C610 C611 1.370 . S
C610 C614 1.524 . S
C611 C603 1.503 . S
C611 C610 1.370 . S
C611 C612 1.403 . S
C612 C611 1.403 . S
C612 C613 1.404 . S
C612 C615 1.539 . S
C613 C609 1.408 . S
C613 C612 1.404 . S
C613 H625 0.930 . S
C614 C610 1.524 . S
C614 H626 0.956 . S
C614 H627 0.961 . S
C614 H628 0.961 . S
C615 C612 1.539 . S
C615 H629 0.958 . S
C615 H630 0.961 . S
C615 H631 0.960 . S
H616 C600 0.931 . S
H617 C605 0.929 . S
H618 C606 0.960 . S
H619 C606 0.962 . S
H620 C606 0.960 . S
H621 C607 0.961 . S
H622 C607 0.961 . S
H623 C607 0.961 . S
H624 C608 0.931 . S
H625 C613 0.930 . S
H626 C614 0.956 . S
H627 C614 0.961 . S
H628 C614 0.961 . S
H629 C615 0.958 . S
H630 C615 0.961 . S
H631 C615 0.960 . S
C632 C633 1.391 . S
C632 C634 1.394 . S
C632 H648 0.931 . S
C633 C632 1.391 . S
C633 C637 1.376 . S
C634 C632 1.394 . S
C634 C635 1.369 . S
C634 C638 1.531 . S
C635 C634 1.369 . S
C635 C636 1.410 . S
C635 C643 1.503 1_455 S
C636 C635 1.410 . S
C636 C637 1.392 . S
C636 C639 1.511 . S
C637 C633 1.376 . S
C637 C636 1.392 . S
C637 H649 0.929 . S
C638 C634 1.531 . S
C638 H650 0.960 . S
C638 H651 0.962 1_455 S
C638 H652 0.960 . S
C639 C636 1.511 . S
C639 H653 0.961 . S
C639 H654 0.961 . S
C639 H655 0.961 . S
C640 C641 1.370 . S
C640 C642 1.363 . S
C640 H656 0.931 . S
C641 C640 1.370 . S
C641 C645 1.408 . S
C642 C640 1.363 . S
C642 C643 1.370 . S
C642 C646 1.524 . S
C643 C635 1.503 1_655 S
C643 C642 1.370 . S
C643 C644 1.403 . S
C644 C643 1.403 . S
C644 C645 1.404 . S
C644 C647 1.539 1_655 S
C645 C641 1.408 . S
C645 C644 1.404 . S
C645 H657 0.930 . S
C646 C642 1.524 . S
C646 H658 0.956 . S
C646 H659 0.961 . S
C646 H660 0.961 . S
C647 C644 1.539 1_455 S
C647 H661 0.958 . S
C647 H662 0.961 . S
C647 H663 0.960 . S
H648 C632 0.931 . S
H649 C637 0.929 . S
H650 C638 0.960 . S
H651 C638 0.962 1_655 S
H652 C638 0.960 . S
H653 C639 0.961 . S
H654 C639 0.961 . S
H655 C639 0.961 . S
H656 C640 0.931 . S
H657 C645 0.930 . S
H658 C646 0.956 . S
H659 C646 0.961 . S
H660 C646 0.961 . S
H661 C647 0.958 . S
H662 C647 0.961 . S
H663 C647 0.960 . S
C664 C665 1.391 . S
C664 C666 1.394 . S
C664 H680 0.931 . S
C665 C664 1.391 . S
C665 C669 1.376 . S
C666 C664 1.394 . S
C666 C667 1.369 . S
C666 C670 1.531 . S
C667 C666 1.369 . S
C667 C668 1.410 . S
C667 C675 1.503 1_545 S
C668 C667 1.410 . S
C668 C669 1.392 . S
C668 C671 1.511 . S
C669 C665 1.376 . S
C669 C668 1.392 . S
C669 H681 0.929 . S
C670 C666 1.531 . S
C670 H682 0.960 . S
C670 H683 0.962 . S
C670 H684 0.960 . S
C671 C668 1.511 . S
C671 H685 0.961 . S
C671 H686 0.961 1_545 S
C671 H687 0.961 . S
C672 C673 1.370 . S
C672 C674 1.363 . S
C672 H688 0.931 . S
C673 C672 1.370 . S
C673 C677 1.408 . S
C674 C672 1.363 . S
C674 C675 1.370 . S
C674 C678 1.524 . S
C675 C667 1.503 1_565 S
C675 C674 1.370 . S
C675 C676 1.403 . S
C676 C675 1.403 . S
C676 C677 1.404 . S
C676 C679 1.539 1_565 S
C677 C673 1.408 . S
C677 C676 1.404 . S
C677 H689 0.930 . S
C678 C674 1.524 . S
C678 H690 0.956 . S
C678 H691 0.961 . S
C678 H692 0.961 . S
C679 C676 1.539 1_545 S
C679 H693 0.958 . S
C679 H694 0.961 . S
C679 H695 0.960 . S
H680 C664 0.931 . S
H681 C669 0.929 . S
H682 C670 0.960 . S
H683 C670 0.962 . S
H684 C670 0.960 . S
H685 C671 0.961 . S
H686 C671 0.961 1_565 S
H687 C671 0.961 . S
H688 C672 0.931 . S
H689 C677 0.930 . S
H690 C678 0.956 . S
H691 C678 0.961 . S
H692 C678 0.961 . S
H693 C679 0.958 . S
H694 C679 0.961 . S
H695 C679 0.960 . S
C696 C697 1.391 . S
C696 C698 1.394 . S
C696 H712 0.931 . S
C697 C696 1.391 . S
C697 C701 1.376 . S
C698 C696 1.394 . S
C698 C699 1.369 . S
C698 C702 1.531 . S
C699 C698 1.369 . S
C699 C700 1.410 . S
C699 C707 1.503 . S
C700 C699 1.410 . S
C700 C701 1.392 . S
C700 C703 1.511 . S
C701 C697 1.376 . S
C701 C700 1.392 . S
C701 H713 0.929 . S
C702 C698 1.531 . S
C702 H714 0.960 . S
C702 H715 0.962 . S
C702 H716 0.960 . S
C703 C700 1.511 . S
C703 H717 0.961 . S
C703 H718 0.961 . S
C703 H719 0.961 . S
C704 C705 1.370 . S
C704 C706 1.363 . S
C704 H720 0.931 . S
C705 C704 1.370 . S
C705 C709 1.408 . S
C706 C704 1.363 . S
C706 C707 1.370 . S
C706 C710 1.524 . S
C707 C699 1.503 . S
C707 C706 1.370 . S
C707 C708 1.403 . S
C708 C707 1.403 . S
C708 C709 1.404 . S
C708 C711 1.539 . S
C709 C705 1.408 . S
C709 C708 1.404 . S
C709 H721 0.930 . S
C710 C706 1.524 . S
C710 H722 0.956 . S
C710 H723 0.961 . S
C710 H724 0.961 . S
C711 C708 1.539 . S
C711 H725 0.958 . S
C711 H726 0.961 . S
C711 H727 0.960 . S
H712 C696 0.931 . S
H713 C701 0.929 . S
H714 C702 0.960 . S
H715 C702 0.962 . S
H716 C702 0.960 . S
H717 C703 0.961 . S
H718 C703 0.961 . S
H719 C703 0.961 . S
H720 C704 0.931 . S
H721 C709 0.930 . S
H722 C710 0.956 . S
H723 C710 0.961 . S
H724 C710 0.961 . S
H725 C711 0.958 . S
H726 C711 0.961 . S
H727 C711 0.960 . S
C728 C729 1.391 . S
C728 C730 1.394 . S
C728 H744 0.931 . S
C729 C728 1.391 . S
C729 C733 1.376 . S
C730 C728 1.394 . S
C730 C731 1.369 . S
C730 C734 1.531 . S
C731 C730 1.369 . S
C731 C732 1.410 . S
C731 C739 1.503 . S
C732 C731 1.410 . S
C732 C733 1.392 . S
C732 C735 1.511 . S
C733 C729 1.376 . S
C733 C732 1.392 . S
C733 H745 0.929 . S
C734 C730 1.531 . S
C734 H746 0.960 . S
C734 H747 0.962 . S
C734 H748 0.960 . S
C735 C732 1.511 . S
C735 H749 0.961 . S
C735 H750 0.961 . S
C735 H751 0.961 . S
C736 C737 1.370 . S
C736 C738 1.363 . S
C736 H752 0.931 . S
C737 C736 1.370 . S
C737 C741 1.408 . S
C738 C736 1.363 . S
C738 C739 1.370 . S
C738 C742 1.524 . S
C739 C731 1.503 . S
C739 C738 1.370 . S
C739 C740 1.403 . S
C740 C739 1.403 . S
C740 C741 1.404 . S
C740 C743 1.539 . S
C741 C737 1.408 . S
C741 C740 1.404 . S
C741 H753 0.930 . S
C742 C738 1.524 . S
C742 H754 0.956 . S
C742 H755 0.961 . S
C742 H756 0.961 . S
C743 C740 1.539 . S
C743 H757 0.958 . S
C743 H758 0.961 . S
C743 H759 0.960 . S
H744 C728 0.931 . S
H745 C733 0.929 . S
H746 C734 0.960 . S
H747 C734 0.962 . S
H748 C734 0.960 . S
H749 C735 0.961 . S
H750 C735 0.961 . S
H751 C735 0.961 . S
H752 C736 0.931 . S
H753 C741 0.930 . S
H754 C742 0.956 . S
H755 C742 0.961 . S
H756 C742 0.961 . S
H757 C743 0.958 . S
H758 C743 0.961 . S
H759 C743 0.960 . S
C760 C761 1.391 . S
C760 C762 1.394 . S
C760 H776 0.931 . S
C761 C760 1.391 . S
C761 C765 1.376 . S
C762 C760 1.394 . S
C762 C763 1.369 . S
C762 C766 1.531 . S
C763 C762 1.369 . S
C763 C764 1.410 . S
C763 C771 1.503 . S
C764 C763 1.410 . S
C764 C765 1.392 . S
C764 C767 1.511 . S
C765 C761 1.376 . S
C765 C764 1.392 . S
C765 H777 0.929 . S
C766 C762 1.531 . S
C766 H778 0.960 . S
C766 H779 0.962 . S
C766 H780 0.960 . S
C767 C764 1.511 . S
C767 H781 0.961 . S
C767 H782 0.961 . S
C767 H783 0.961 . S
C768 C769 1.370 . S
C768 C770 1.363 . S
C768 H784 0.931 . S
C769 C768 1.370 . S
C769 C773 1.408 . S
C770 C768 1.363 . S
C770 C771 1.370 . S
C770 C774 1.524 . S
C771 C763 1.503 . S
C771 C770 1.370 . S
C771 C772 1.403 . S
C772 C771 1.403 . S
C772 C773 1.404 . S
C772 C775 1.539 . S
C773 C769 1.408 . S
C773 C772 1.404 . S
C773 H785 0.930 . S
C774 C770 1.524 . S
C774 H786 0.956 . S
C774 H787 0.961 . S
C774 H788 0.961 . S
C775 C772 1.539 . S
C775 H789 0.958 . S
C775 H790 0.961 . S
C775 H791 0.960 . S
H776 C760 0.931 . S
H777 C765 0.929 . S
H778 C766 0.960 . S
H779 C766 0.962 . S
H780 C766 0.960 . S
H781 C767 0.961 . S
H782 C767 0.961 . S
H783 C767 0.961 . S
H784 C768 0.931 . S
H785 C773 0.930 . S
H786 C774 0.956 . S
H787 C774 0.961 . S
H788 C774 0.961 . S
H789 C775 0.958 . S
H790 C775 0.961 . S
H791 C775 0.960 . S
C792 C793 1.391 . S
C792 C794 1.394 . S
C792 H808 0.931 . S
C793 C792 1.391 . S
C793 C797 1.376 . S
C794 C792 1.394 . S
C794 C795 1.369 . S
C794 C798 1.531 . S
C795 C794 1.369 . S
C795 C796 1.410 . S
C795 C803 1.503 . S
C796 C795 1.410 . S
C796 C797 1.392 . S
C796 C799 1.511 . S
C797 C793 1.376 . S
C797 C796 1.392 . S
C797 H809 0.929 . S
C798 C794 1.531 . S
C798 H810 0.960 . S
C798 H811 0.962 . S
C798 H812 0.960 . S
C799 C796 1.511 . S
C799 H813 0.961 . S
C799 H814 0.961 . S
C799 H815 0.961 . S
C800 C801 1.370 . S
C800 C802 1.363 . S
C800 H816 0.931 . S
C801 C800 1.370 . S
C801 C805 1.408 . S
C802 C800 1.363 . S
C802 C803 1.370 . S
C802 C806 1.524 . S
C803 C795 1.503 . S
C803 C802 1.370 . S
C803 C804 1.403 . S
C804 C803 1.403 . S
C804 C805 1.404 . S
C804 C807 1.539 . S
C805 C801 1.408 . S
C805 C804 1.404 . S
C805 H817 0.930 . S
C806 C802 1.524 . S
C806 H818 0.956 . S
C806 H819 0.961 . S
C806 H820 0.961 . S
C807 C804 1.539 . S
C807 H821 0.958 . S
C807 H822 0.961 . S
C807 H823 0.960 . S
H808 C792 0.931 . S
H809 C797 0.929 . S
H810 C798 0.960 . S
H811 C798 0.962 . S
H812 C798 0.960 . S
H813 C799 0.961 . S
H814 C799 0.961 . S
H815 C799 0.961 . S
H816 C800 0.931 . S
H817 C805 0.930 . S
H818 C806 0.956 . S
H819 C806 0.961 . S
H820 C806 0.961 . S
H821 C807 0.958 . S
H822 C807 0.961 . S
H823 C807 0.960 . S
C824 C825 1.391 . S
C824 C826 1.394 . S
C824 H840 0.931 . S
C825 C824 1.391 . S
C825 C829 1.376 . S
C826 C824 1.394 . S
C826 C827 1.369 . S
C826 C830 1.531 . S
C827 C826 1.369 . S
C827 C828 1.410 . S
C827 C835 1.503 . S
C828 C827 1.410 . S
C828 C829 1.392 . S
C828 C831 1.511 . S
C829 C825 1.376 . S
C829 C828 1.392 . S
C829 H841 0.929 . S
C830 C826 1.531 . S
C830 H842 0.960 . S
C830 H843 0.962 . S
C830 H844 0.960 . S
C831 C828 1.511 . S
C831 H845 0.961 . S
C831 H846 0.961 . S
C831 H847 0.961 . S
C832 C833 1.370 . S
C832 C834 1.363 . S
C832 H848 0.931 . S
C833 C832 1.370 . S
C833 C837 1.408 . S
C834 C832 1.363 . S
C834 C835 1.370 . S
C834 C838 1.524 . S
C835 C827 1.503 . S
C835 C834 1.370 . S
C835 C836 1.403 . S
C836 C835 1.403 . S
C836 C837 1.404 . S
C836 C839 1.539 . S
C837 C833 1.408 . S
C837 C836 1.404 . S
C837 H849 0.930 . S
C838 C834 1.524 . S
C838 H850 0.956 . S
C838 H851 0.961 . S
C838 H852 0.961 . S
C839 C836 1.539 . S
C839 H853 0.958 . S
C839 H854 0.961 . S
C839 H855 0.960 . S
H840 C824 0.931 . S
H841 C829 0.929 . S
H842 C830 0.960 . S
H843 C830 0.962 . S
H844 C830 0.960 . S
H845 C831 0.961 . S
H846 C831 0.961 . S
H847 C831 0.961 . S
H848 C832 0.931 . S
H849 C837 0.930 . S
H850 C838 0.956 . S
H851 C838 0.961 . S
H852 C838 0.961 . S
H853 C839 0.958 . S
H854 C839 0.961 . S
H855 C839 0.960 . S
C856 C857 1.391 . S
C856 C858 1.394 . S
C856 H872 0.931 . S
C857 C856 1.391 . S
C857 C861 1.376 . S
C858 C856 1.394 . S
C858 C859 1.369 . S
C858 C862 1.531 . S
C859 C858 1.369 . S
C859 C860 1.410 . S
C859 C867 1.503 . S
C860 C859 1.410 . S
C860 C861 1.392 . S
C860 C863 1.511 . S
C861 C857 1.376 . S
C861 C860 1.392 . S
C861 H873 0.929 . S
C862 C858 1.531 . S
C862 H874 0.960 . S
C862 H875 0.962 . S
C862 H876 0.960 . S
C863 C860 1.511 . S
C863 H877 0.961 . S
C863 H878 0.961 . S
C863 H879 0.961 . S
C864 C865 1.370 . S
C864 C866 1.363 . S
C864 H880 0.931 . S
C865 C864 1.370 . S
C865 C869 1.408 . S
C866 C864 1.363 . S
C866 C867 1.370 . S
C866 C870 1.524 . S
C867 C859 1.503 . S
C867 C866 1.370 . S
C867 C868 1.403 . S
C868 C867 1.403 . S
C868 C869 1.404 . S
C868 C871 1.539 . S
C869 C865 1.408 . S
C869 C868 1.404 . S
C869 H881 0.930 . S
C870 C866 1.524 . S
C870 H882 0.956 . S
C870 H883 0.961 . S
C870 H884 0.961 . S
C871 C868 1.539 . S
C871 H885 0.958 . S
C871 H886 0.961 . S
C871 H887 0.960 . S
H872 C856 0.931 . S
H873 C861 0.929 . S
H874 C862 0.960 . S
H875 C862 0.962 . S
H876 C862 0.960 . S
H877 C863 0.961 . S
H878 C863 0.961 . S
H879 C863 0.961 . S
H880 C864 0.931 . S
H881 C869 0.930 . S
H882 C870 0.956 . S
H883 C870 0.961 . S
H884 C870 0.961 . S
H885 C871 0.958 . S
H886 C871 0.961 . S
H887 C871 0.960 . S
C888 C889 1.391 . S
C888 C890 1.394 . S
C888 H904 0.931 . S
C889 C888 1.391 . S
C889 C893 1.376 . S
C890 C888 1.394 . S
C890 C891 1.369 . S
C890 C894 1.531 . S
C891 C890 1.369 . S
C891 C892 1.410 . S
C891 C899 1.503 . S
C892 C891 1.410 . S
C892 C893 1.392 . S
C892 C895 1.511 . S
C893 C889 1.376 . S
C893 C892 1.392 . S
C893 H905 0.929 . S
C894 C890 1.531 . S
C894 H906 0.960 . S
C894 H907 0.962 . S
C894 H908 0.960 . S
C895 C892 1.511 . S
C895 H909 0.961 . S
C895 H910 0.961 . S
C895 H911 0.961 . S
C896 C897 1.370 . S
C896 C898 1.363 . S
C896 H912 0.931 . S
C897 C896 1.370 . S
C897 C901 1.408 . S
C898 C896 1.363 . S
C898 C899 1.370 . S
C898 C902 1.524 . S
C899 C891 1.503 . S
C899 C898 1.370 . S
C899 C900 1.403 . S
C900 C899 1.403 . S
C900 C901 1.404 . S
C900 C903 1.539 . S
C901 C897 1.408 . S
C901 C900 1.404 . S
C901 H913 0.930 . S
C902 C898 1.524 . S
C902 H914 0.956 . S
C902 H915 0.961 . S
C902 H916 0.961 . S
C903 C900 1.539 . S
C903 H917 0.958 . S
C903 H918 0.961 . S
C903 H919 0.960 . S
H904 C888 0.931 . S
H905 C893 0.929 . S
H906 C894 0.960 . S
H907 C894 0.962 . S
H908 C894 0.960 . S
H909 C895 0.961 . S
H910 C895 0.961 . S
H911 C895 0.961 . S
H912 C896 0.931 . S
H913 C901 0.930 . S
H914 C902 0.956 . S
H915 C902 0.961 . S
H916 C902 0.961 . S
H917 C903 0.958 . S
H918 C903 0.961 . S
H919 C903 0.960 . S
C920 C921 1.391 . S
C920 C922 1.394 . S
C920 H936 0.931 . S
C921 C920 1.391 . S
C921 C925 1.376 . S
C922 C920 1.394 . S
C922 C923 1.369 . S
C922 C926 1.531 . S
C923 C922 1.369 . S
C923 C924 1.410 . S
C923 C931 1.503 . S
C924 C923 1.410 . S
C924 C925 1.392 . S
C924 C927 1.511 . S
C925 C921 1.376 . S
C925 C924 1.392 . S
C925 H937 0.929 . S
C926 C922 1.531 . S
C926 H938 0.960 . S
C926 H939 0.962 . S
C926 H940 0.960 . S
C927 C924 1.511 . S
C927 H941 0.961 . S
C927 H942 0.961 . S
C927 H943 0.961 . S
C928 C929 1.370 . S
C928 C930 1.363 . S
C928 H944 0.931 . S
C929 C928 1.370 . S
C929 C933 1.408 . S
C930 C928 1.363 . S
C930 C931 1.370 . S
C930 C934 1.524 . S
C931 C923 1.503 . S
C931 C930 1.370 . S
C931 C932 1.403 . S
C932 C931 1.403 . S
C932 C933 1.404 . S
C932 C935 1.539 . S
C933 C929 1.408 . S
C933 C932 1.404 . S
C933 H945 0.930 . S
C934 C930 1.524 . S
C934 H946 0.956 . S
C934 H947 0.961 . S
C934 H948 0.961 . S
C935 C932 1.539 . S
C935 H949 0.958 . S
C935 H950 0.961 . S
C935 H951 0.960 . S
H936 C920 0.931 . S
H937 C925 0.929 . S
H938 C926 0.960 . S
H939 C926 0.962 . S
H940 C926 0.960 . S
H941 C927 0.961 . S
H942 C927 0.961 . S
H943 C927 0.961 . S
H944 C928 0.931 . S
H945 C933 0.930 . S
H946 C934 0.956 . S
H947 C934 0.961 . S
H948 C934 0.961 . S
H949 C935 0.958 . S
H950 C935 0.961 . S
H951 C935 0.960 . S
C952 C953 1.391 . S
C952 C954 1.394 . S
C952 H968 0.931 . S
C953 C952 1.391 . S
C953 C957 1.376 . S
C954 C952 1.394 . S
C954 C955 1.369 . S
C954 C958 1.531 . S
C955 C954 1.369 . S
C955 C956 1.410 . S
C955 C963 1.503 . S
C956 C955 1.410 . S
C956 C957 1.392 . S
C956 C959 1.511 . S
C957 C953 1.376 . S
C957 C956 1.392 . S
C957 H969 0.929 . S
C958 C954 1.531 . S
C958 H970 0.960 . S
C958 H971 0.962 . S
C958 H972 0.960 . S
C959 C956 1.511 . S
C959 H973 0.961 . S
C959 H974 0.961 . S
C959 H975 0.961 . S
C960 C961 1.370 . S
C960 C962 1.363 . S
C960 H976 0.931 . S
C961 C960 1.370 . S
C961 C965 1.408 . S
C962 C960 1.363 . S
C962 C963 1.370 . S
C962 C966 1.524 . S
C963 C955 1.503 . S
C963 C962 1.370 . S
C963 C964 1.403 . S
C964 C963 1.403 . S
C964 C965 1.404 . S
C964 C967 1.539 . S
C965 C961 1.408 . S
C965 C964 1.404 . S
C965 H977 0.930 . S
C966 C962 1.524 . S
C966 H978 0.956 . S
C966 H979 0.961 . S
C966 H980 0.961 . S
C967 C964 1.539 . S
C967 H981 0.958 . S
C967 H982 0.961 . S
C967 H983 0.960 . S
H968 C952 0.931 . S
H969 C957 0.929 . S
H970 C958 0.960 . S
H971 C958 0.962 . S
H972 C958 0.960 . S
H973 C959 0.961 . S
H974 C959 0.961 . S
H975 C959 0.961 . S
H976 C960 0.931 . S
H977 C965 0.930 . S
H978 C966 0.956 . S
H979 C966 0.961 . S
H980 C966 0.961 . S
H981 C967 0.958 . S
H982 C967 0.961 . S
H983 C967 0.960 . S
C984 C985 1.391 . S
C984 C986 1.394 . S
C984 H1000 0.931 . S
C985 C984 1.391 . S
C985 C989 1.376 . S
C986 C984 1.394 . S
C986 C987 1.369 . S
C986 C990 1.531 . S
C987 C986 1.369 . S
C987 C988 1.410 . S
C987 C995 1.503 . S
C988 C987 1.410 . S
C988 C989 1.392 . S
C988 C991 1.511 . S
C989 C985 1.376 . S
C989 C988 1.392 . S
C989 H1001 0.929 . S
C990 C986 1.531 . S
C990 H1002 0.960 . S
C990 H1003 0.962 . S
C990 H1004 0.960 . S
C991 C988 1.511 . S
C991 H1005 0.961 . S
C991 H1006 0.961 . S
C991 H1007 0.961 . S
C992 C993 1.370 . S
C992 C994 1.363 . S
C992 H1008 0.931 . S
C993 C992 1.370 . S
C993 C997 1.408 . S
C994 C992 1.363 . S
C994 C995 1.370 . S
C994 C998 1.524 . S
C995 C987 1.503 . S
C995 C994 1.370 . S
C995 C996 1.403 . S
C996 C995 1.403 . S
C996 C997 1.404 . S
C996 C999 1.539 . S
C997 C993 1.408 . S
C997 C996 1.404 . S
C997 H1009 0.930 . S
C998 C994 1.524 . S
C998 H1010 0.956 . S
C998 H1011 0.961 . S
C998 H1012 0.961 . S
C999 C996 1.539 . S
C999 H1013 0.958 . S
C999 H1014 0.961 . S
C999 H1015 0.960 . S
H1000 C984 0.931 . S
H1001 C989 0.929 . S
H1002 C990 0.960 . S
H1003 C990 0.962 . S
H1004 C990 0.960 . S
H1005 C991 0.961 . S
H1006 C991 0.961 . S
H1007 C991 0.961 . S
H1008 C992 0.931 . S
H1009 C997 0.930 . S
H1010 C998 0.956 . S
H1011 C998 0.961 . S
H1012 C998 0.961 . S
H1013 C999 0.958 . S
H1014 C999 0.961 . S
H1015 C999 0.960 . S
C1016 C1017 1.391 . S
C1016 C1018 1.394 . S
C1016 H1032 0.931 . S
C1017 C1016 1.391 . S
C1017 C1021 1.376 . S
C1018 C1016 1.394 . S
C1018 C1019 1.369 . S
C1018 C1022 1.531 . S
C1019 C1018 1.369 . S
C1019 C1020 1.410 . S
C1019 C1027 1.503 . S
C1020 C1019 1.410 . S
C1020 C1021 1.392 . S
C1020 C1023 1.511 . S
C1021 C1017 1.376 . S
C1021 C1020 1.392 . S
C1021 H1033 0.929 . S
C1022 C1018 1.531 . S
C1022 H1034 0.960 . S
C1022 H1035 0.962 . S
C1022 H1036 0.960 . S
C1023 C1020 1.511 . S
C1023 H1037 0.961 . S
C1023 H1038 0.961 . S
C1023 H1039 0.961 . S
C1024 C1025 1.370 . S
C1024 C1026 1.363 . S
C1024 H1040 0.931 . S
C1025 C1024 1.370 . S
C1025 C1029 1.408 . S
C1026 C1024 1.363 . S
C1026 C1027 1.370 . S
C1026 C1030 1.524 . S
C1027 C1019 1.503 . S
C1027 C1026 1.370 . S
C1027 C1028 1.403 . S
C1028 C1027 1.403 . S
C1028 C1029 1.404 . S
C1028 C1031 1.539 . S
C1029 C1025 1.408 . S
C1029 C1028 1.404 . S
C1029 H1041 0.930 . S
C1030 C1026 1.524 . S
C1030 H1042 0.956 . S
C1030 H1043 0.961 . S
C1030 H1044 0.961 . S
C1031 C1028 1.539 . S
C1031 H1045 0.958 . S
C1031 H1046 0.961 . S
C1031 H1047 0.960 . S
H1032 C1016 0.931 . S
H1033 C1021 0.929 . S
H1034 C1022 0.960 . S
H1035 C1022 0.962 . S
H1036 C1022 0.960 . S
H1037 C1023 0.961 . S
H1038 C1023 0.961 . S
H1039 C1023 0.961 . S
H1040 C1024 0.931 . S
H1041 C1029 0.930 . S
H1042 C1030 0.956 . S
H1043 C1030 0.961 . S
H1044 C1030 0.961 . S
H1045 C1031 0.958 . S
H1046 C1031 0.961 . S
H1047 C1031 0.960 . S
C1048 C1049 1.391 . S
C1048 C1050 1.394 . S
C1048 H1064 0.931 . S
C1049 C1048 1.391 . S
C1049 C1053 1.376 . S
C1050 C1048 1.394 . S
C1050 C1051 1.369 . S
C1050 C1054 1.531 . S
C1051 C1050 1.369 . S
C1051 C1052 1.410 . S
C1051 C1059 1.503 . S
C1052 C1051 1.410 . S
C1052 C1053 1.392 . S
C1052 C1055 1.511 . S
C1053 C1049 1.376 . S
C1053 C1052 1.392 . S
C1053 H1065 0.929 . S
C1054 C1050 1.531 . S
C1054 H1066 0.960 . S
C1054 H1067 0.962 . S
C1054 H1068 0.960 . S
C1055 C1052 1.511 . S
C1055 H1069 0.961 . S
C1055 H1070 0.961 . S
C1055 H1071 0.961 . S
C1056 C1057 1.370 . S
C1056 C1058 1.363 . S
C1056 H1072 0.931 . S
C1057 C1056 1.370 . S
C1057 C1061 1.408 . S
C1058 C1056 1.363 . S
C1058 C1059 1.370 . S
C1058 C1062 1.524 . S
C1059 C1051 1.503 . S
C1059 C1058 1.370 . S
C1059 C1060 1.403 . S
C1060 C1059 1.403 . S
C1060 C1061 1.404 . S
C1060 C1063 1.539 . S
C1061 C1057 1.408 . S
C1061 C1060 1.404 . S
C1061 H1073 0.930 . S
C1062 C1058 1.524 . S
C1062 H1074 0.956 . S
C1062 H1075 0.961 . S
C1062 H1076 0.961 . S
C1063 C1060 1.539 . S
C1063 H1077 0.958 . S
C1063 H1078 0.961 . S
C1063 H1079 0.960 . S
H1064 C1048 0.931 . S
H1065 C1053 0.929 . S
H1066 C1054 0.960 . S
H1067 C1054 0.962 . S
H1068 C1054 0.960 . S
H1069 C1055 0.961 . S
H1070 C1055 0.961 . S
H1071 C1055 0.961 . S
H1072 C1056 0.931 . S
H1073 C1061 0.930 . S
H1074 C1062 0.956 . S
H1075 C1062 0.961 . S
H1076 C1062 0.961 . S
H1077 C1063 0.958 . S
H1078 C1063 0.961 . S
H1079 C1063 0.960 . S
C505 C494 1.433 . S
C513 C56 1.379 . S
C537 C74 1.448 . S
C545 C140 1.401 . S
C569 C158 1.448 . S
C577 C224 1.404 . S
C601 C242 1.444 . S
C609 C308 1.392 . S
C633 C392 1.355 . S
C641 C326 1.438 . S
C665 C476 1.357 . S
C673 C410 1.439 . S
C697 C58 1.287 . S
C705 C70 1.327 . S
C729 C142 1.351 1_556 S
C737 C154 1.299 . S
C761 C226 1.301 . S
C769 C238 1.316 1_554 S
C793 C310 1.269 . S
C801 C322 1.331 . S
C825 C406 1.337 . S
C833 C394 1.306 1_556 S
C857 C478 1.335 . S
C865 C490 1.307 1_554 S
C889 C67 1.415 . S
C897 C399 1.442 . S
C921 C151 1.362 . S
C929 C483 1.426 . S
C953 C63 1.427 . S
C961 C235 1.375 . S
C985 C147 1.448 . S
C993 C319 1.387 . S
C1017 C403 1.400 . S
C1025 C231 1.437 . S
C1049 C315 1.405 . S
C1057 C487 1.363 . S
