# Generated by pormake.
# Topology unl, (4)-cn, num edge types: 1
# Building blocks:
#     Node 0, Type 0, BuildingBlock: ESEHIV_clean_sbu_0, # of connection points: 4
#     Node 1, Type 0, BuildingBlock: ESEHIV_clean_sbu_0, # of connection points: 4
#     Node 2, Type 0, BuildingBlock: ESEHIV_clean_sbu_0, # of connection points: 4
#     Node 3, Type 0, BuildingBlock: ESEHIV_clean_sbu_0, # of connection points: 4
#     Node 4, Type 0, BuildingBlock: ESEHIV_clean_sbu_0, # of connection points: 4
#     Node 5, Type 0, BuildingBlock: ESEHIV_clean_sbu_0, # of connection points: 4
#     Node 6, Type 0, BuildingBlock: ESEHIV_clean_sbu_0, # of connection points: 4
#     Node 7, Type 0, BuildingBlock: ESEHIV_clean_sbu_0, # of connection points: 4
#     Node 8, Type 0, BuildingBlock: ESEHIV_clean_sbu_0, # of connection points: 4
#     Node 9, Type 0, BuildingBlock: ESEHIV_clean_sbu_0, # of connection points: 4
#     Node 10, Type 0, BuildingBlock: ESEHIV_clean_sbu_0, # of connection points: 4
#     Node 11, Type 0, BuildingBlock: ESEHIV_clean_sbu_0, # of connection points: 4
#     Node 12, Type 0, BuildingBlock: ESEHIV_clean_sbu_0, # of connection points: 4
#     Node 13, Type 0, BuildingBlock: ESEHIV_clean_sbu_0, # of connection points: 4
#     Node 14, Type 0, BuildingBlock: ESEHIV_clean_sbu_0, # of connection points: 4
#     Node 15, Type 0, BuildingBlock: ESEHIV_clean_sbu_0, # of connection points: 4
#     Node 16, Type 0, BuildingBlock: ESEHIV_clean_sbu_0, # of connection points: 4
#     Node 17, Type 0, BuildingBlock: ESEHIV_clean_sbu_0, # of connection points: 4
#     Node 18, Type 0, BuildingBlock: ESEHIV_clean_sbu_0, # of connection points: 4
#     Node 19, Type 0, BuildingBlock: ESEHIV_clean_sbu_0, # of connection points: 4
#     Node 20, Type 0, BuildingBlock: ESEHIV_clean_sbu_0, # of connection points: 4
#     Node 21, Type 0, BuildingBlock: ESEHIV_clean_sbu_0, # of connection points: 4
#     Node 22, Type 0, BuildingBlock: ESEHIV_clean_sbu_0, # of connection points: 4
#     Node 23, Type 0, BuildingBlock: ESEHIV_clean_sbu_0, # of connection points: 4
#     Node 24, Type 0, BuildingBlock: ESEHIV_clean_sbu_0, # of connection points: 4
#     Node 25, Type 0, BuildingBlock: ESEHIV_clean_sbu_0, # of connection points: 4
#     Node 26, Type 0, BuildingBlock: ESEHIV_clean_sbu_0, # of connection points: 4
#     Node 27, Type 0, BuildingBlock: ESEHIV_clean_sbu_0, # of connection points: 4
#     Node 28, Type 0, BuildingBlock: ESEHIV_clean_sbu_0, # of connection points: 4
#     Node 29, Type 0, BuildingBlock: ESEHIV_clean_sbu_0, # of connection points: 4
#     Node 30, Type 0, BuildingBlock: ESEHIV_clean_sbu_0, # of connection points: 4
#     Node 31, Type 0, BuildingBlock: ESEHIV_clean_sbu_0, # of connection points: 4
#     Node 32, Type 0, BuildingBlock: ESEHIV_clean_sbu_0, # of connection points: 4
#     Node 33, Type 0, BuildingBlock: ESEHIV_clean_sbu_0, # of connection points: 4
#     Node 34, Type 0, BuildingBlock: ESEHIV_clean_sbu_0, # of connection points: 4
#     Node 35, Type 0, BuildingBlock: ESEHIV_clean_sbu_0, # of connection points: 4
#     Edge 36, Type (0, 0), BuildingBlock: UVAHIK_clean_linker_0, # of connection points: 2
#     Edge 37, Type (0, 0), BuildingBlock: UVAHIK_clean_linker_0, # of connection points: 2
#     Edge 38, Type (0, 0), BuildingBlock: UVAHIK_clean_linker_0, # of connection points: 2
#     Edge 39, Type (0, 0), BuildingBlock: UVAHIK_clean_linker_0, # of connection points: 2
#     Edge 40, Type (0, 0), BuildingBlock: UVAHIK_clean_linker_0, # of connection points: 2
#     Edge 41, Type (0, 0), BuildingBlock: UVAHIK_clean_linker_0, # of connection points: 2
#     Edge 42, Type (0, 0), BuildingBlock: UVAHIK_clean_linker_0, # of connection points: 2
#     Edge 43, Type (0, 0), BuildingBlock: UVAHIK_clean_linker_0, # of connection points: 2
#     Edge 44, Type (0, 0), BuildingBlock: UVAHIK_clean_linker_0, # of connection points: 2
#     Edge 45, Type (0, 0), BuildingBlock: UVAHIK_clean_linker_0, # of connection points: 2
#     Edge 46, Type (0, 0), BuildingBlock: UVAHIK_clean_linker_0, # of connection points: 2
#     Edge 47, Type (0, 0), BuildingBlock: UVAHIK_clean_linker_0, # of connection points: 2
#     Edge 48, Type (0, 0), BuildingBlock: UVAHIK_clean_linker_0, # of connection points: 2
#     Edge 49, Type (0, 0), BuildingBlock: UVAHIK_clean_linker_0, # of connection points: 2
#     Edge 50, Type (0, 0), BuildingBlock: UVAHIK_clean_linker_0, # of connection points: 2
#     Edge 51, Type (0, 0), BuildingBlock: UVAHIK_clean_linker_0, # of connection points: 2
#     Edge 52, Type (0, 0), BuildingBlock: UVAHIK_clean_linker_0, # of connection points: 2
#     Edge 53, Type (0, 0), BuildingBlock: UVAHIK_clean_linker_0, # of connection points: 2
#     Edge 54, Type (0, 0), BuildingBlock: UVAHIK_clean_linker_0, # of connection points: 2
#     Edge 55, Type (0, 0), BuildingBlock: UVAHIK_clean_linker_0, # of connection points: 2
#     Edge 56, Type (0, 0), BuildingBlock: UVAHIK_clean_linker_0, # of connection points: 2
#     Edge 57, Type (0, 0), BuildingBlock: UVAHIK_clean_linker_0, # of connection points: 2
#     Edge 58, Type (0, 0), BuildingBlock: UVAHIK_clean_linker_0, # of connection points: 2
#     Edge 59, Type (0, 0), BuildingBlock: UVAHIK_clean_linker_0, # of connection points: 2
#     Edge 60, Type (0, 0), BuildingBlock: UVAHIK_clean_linker_0, # of connection points: 2
#     Edge 61, Type (0, 0), BuildingBlock: UVAHIK_clean_linker_0, # of connection points: 2
#     Edge 62, Type (0, 0), BuildingBlock: UVAHIK_clean_linker_0, # of connection points: 2
#     Edge 63, Type (0, 0), BuildingBlock: UVAHIK_clean_linker_0, # of connection points: 2
#     Edge 64, Type (0, 0), BuildingBlock: UVAHIK_clean_linker_0, # of connection points: 2
#     Edge 65, Type (0, 0), BuildingBlock: UVAHIK_clean_linker_0, # of connection points: 2
#     Edge 66, Type (0, 0), BuildingBlock: UVAHIK_clean_linker_0, # of connection points: 2
#     Edge 67, Type (0, 0), BuildingBlock: UVAHIK_clean_linker_0, # of connection points: 2
#     Edge 68, Type (0, 0), BuildingBlock: UVAHIK_clean_linker_0, # of connection points: 2
#     Edge 69, Type (0, 0), BuildingBlock: UVAHIK_clean_linker_0, # of connection points: 2
#     Edge 70, Type (0, 0), BuildingBlock: UVAHIK_clean_linker_0, # of connection points: 2
#     Edge 71, Type (0, 0), BuildingBlock: UVAHIK_clean_linker_0, # of connection points: 2
#     Edge 72, Type (0, 0), BuildingBlock: UVAHIK_clean_linker_0, # of connection points: 2
#     Edge 73, Type (0, 0), BuildingBlock: UVAHIK_clean_linker_0, # of connection points: 2
#     Edge 74, Type (0, 0), BuildingBlock: UVAHIK_clean_linker_0, # of connection points: 2
#     Edge 75, Type (0, 0), BuildingBlock: UVAHIK_clean_linker_0, # of connection points: 2
#     Edge 76, Type (0, 0), BuildingBlock: UVAHIK_clean_linker_0, # of connection points: 2
#     Edge 77, Type (0, 0), BuildingBlock: UVAHIK_clean_linker_0, # of connection points: 2
#     Edge 78, Type (0, 0), BuildingBlock: UVAHIK_clean_linker_0, # of connection points: 2
#     Edge 79, Type (0, 0), BuildingBlock: UVAHIK_clean_linker_0, # of connection points: 2
#     Edge 80, Type (0, 0), BuildingBlock: UVAHIK_clean_linker_0, # of connection points: 2
#     Edge 81, Type (0, 0), BuildingBlock: UVAHIK_clean_linker_0, # of connection points: 2
#     Edge 82, Type (0, 0), BuildingBlock: UVAHIK_clean_linker_0, # of connection points: 2
#     Edge 83, Type (0, 0), BuildingBlock: UVAHIK_clean_linker_0, # of connection points: 2
#     Edge 84, Type (0, 0), BuildingBlock: UVAHIK_clean_linker_0, # of connection points: 2
#     Edge 85, Type (0, 0), BuildingBlock: UVAHIK_clean_linker_0, # of connection points: 2
#     Edge 86, Type (0, 0), BuildingBlock: UVAHIK_clean_linker_0, # of connection points: 2
#     Edge 87, Type (0, 0), BuildingBlock: UVAHIK_clean_linker_0, # of connection points: 2
#     Edge 88, Type (0, 0), BuildingBlock: UVAHIK_clean_linker_0, # of connection points: 2
#     Edge 89, Type (0, 0), BuildingBlock: UVAHIK_clean_linker_0, # of connection points: 2
#     Edge 90, Type (0, 0), BuildingBlock: UVAHIK_clean_linker_0, # of connection points: 2
#     Edge 91, Type (0, 0), BuildingBlock: UVAHIK_clean_linker_0, # of connection points: 2
#     Edge 92, Type (0, 0), BuildingBlock: UVAHIK_clean_linker_0, # of connection points: 2
#     Edge 93, Type (0, 0), BuildingBlock: UVAHIK_clean_linker_0, # of connection points: 2
#     Edge 94, Type (0, 0), BuildingBlock: UVAHIK_clean_linker_0, # of connection points: 2
#     Edge 95, Type (0, 0), BuildingBlock: UVAHIK_clean_linker_0, # of connection points: 2
#     Edge 96, Type (0, 0), BuildingBlock: UVAHIK_clean_linker_0, # of connection points: 2
#     Edge 97, Type (0, 0), BuildingBlock: UVAHIK_clean_linker_0, # of connection points: 2
#     Edge 98, Type (0, 0), BuildingBlock: UVAHIK_clean_linker_0, # of connection points: 2
#     Edge 99, Type (0, 0), BuildingBlock: UVAHIK_clean_linker_0, # of connection points: 2
#     Edge 100, Type (0, 0), BuildingBlock: UVAHIK_clean_linker_0, # of connection points: 2
#     Edge 101, Type (0, 0), BuildingBlock: UVAHIK_clean_linker_0, # of connection points: 2
#     Edge 102, Type (0, 0), BuildingBlock: UVAHIK_clean_linker_0, # of connection points: 2
#     Edge 103, Type (0, 0), BuildingBlock: UVAHIK_clean_linker_0, # of connection points: 2
#     Edge 104, Type (0, 0), BuildingBlock: UVAHIK_clean_linker_0, # of connection points: 2
#     Edge 105, Type (0, 0), BuildingBlock: UVAHIK_clean_linker_0, # of connection points: 2
#     Edge 106, Type (0, 0), BuildingBlock: UVAHIK_clean_linker_0, # of connection points: 2
#     Edge 107, Type (0, 0), BuildingBlock: UVAHIK_clean_linker_0, # of connection points: 2
# Relax obj value: 0.033
# Max RMSD: 0.193
# Mean RMSD: 0.182
data_MOF--net-unl--node1-ESEHIV_clean_sbu_0--edge1-UVAHIK_clean_linker_0
_symmetry_space_group_name_H-M    P1
_symmetry_Int_Tables_number       1
_symmetry_cell_setting            triclinic
loop_
_symmetry_equiv_pos_as_xyz
'x, y, z'
_cell_length_a     79.507067
_cell_length_b     83.472265
_cell_length_c     64.435496
_cell_angle_alpha  88.684499
_cell_angle_beta   89.813039
_cell_angle_gamma 118.44817
loop_
_atom_site_label
_atom_site_type_symbol
_atom_site_fract_x
_atom_site_fract_y
_atom_site_fract_z
_atom_type_partial_charge
Cu0 Cu 0.23034 0.1641 0.11977 0.0
N1 N 0.23351 0.18272 0.13764 0.0
N2 N 0.22979 0.19459 0.16703 0.0
C3 C 0.22506 0.17925 0.15653 0.0
C4 C 0.24171 0.20835 0.15407 0.0
C5 C 0.24406 0.20096 0.13596 0.0
O6 O 0.239 0.14912 0.1355 0.0
C7 C 0.19838 0.1639 0.10307 0.0
O8 O 0.20885 0.18116 0.10735 0.0
H9 H 0.21551 0.16559 0.16236 0.0
H10 H 0.25292 0.20833 0.12263 0.0
N11 N 0.24537 0.17097 0.09561 0.0
N12 N 0.25088 0.16039 0.06614 0.0
C13 C 0.24886 0.15833 0.08695 0.0
C14 C 0.24582 0.18194 0.07972 0.0
C15 C 0.24941 0.17552 0.06149 0.0
C16 C 0.25643 0.15846 0.14085 0.0
O17 O 0.26571 0.17588 0.13571 0.0
H18 H 0.2471 0.14627 0.09544 0.0
H19 H 0.24116 0.19214 0.08082 0.0
O20 O 0.20426 0.15269 0.10887 0.0
H21 H 0.24857 0.22269 0.15755 0.0
H22 H 0.24844 0.18015 0.04592 0.0
Cu23 Cu 0.86351 0.05761 0.13214 0.0
N24 N 0.85014 0.03689 0.1161 0.0
N25 N 0.84201 0.01527 0.09235 0.0
C26 C 0.8553 0.03204 0.09826 0.0
C27 C 0.82796 1.00956 0.10694 0.0
C28 C 0.83302 0.02284 0.12148 0.0
O29 O 0.88844 0.0737 0.11956 0.0
C30 C 0.87322 0.05977 0.1753 0.0
O31 O 0.88446 0.07717 0.17109 0.0
H32 H 0.8687 0.04039 0.0901 0.0
H33 H 0.82488 0.02223 0.13524 0.0
N34 N 0.85005 0.07088 0.13288 0.0
N35 N 0.84263 0.093 0.13978 0.0
C36 C 0.85578 0.08715 0.14165 0.0
C37 C 0.83272 0.06628 0.12507 0.0
C38 C 0.8281 0.07984 0.12931 0.0
C39 C 0.90086 0.06914 0.11379 0.0
O40 O 0.89789 0.05249 0.11783 0.0
H41 H 0.86926 0.09441 0.14948 0.0
H42 H 0.82405 0.05392 0.11686 0.0
O43 O 0.86419 0.04929 0.1606 0.0
H44 H 0.81489 0.99669 0.10716 0.0
H45 H 0.8151 0.08004 0.12478 0.0
Cu46 Cu 0.96625 0.79349 0.12525 0.0
N47 N 0.99004 0.80419 0.11151 0.0
N48 N 1.01448 0.8215 0.08996 0.0
C49 C 0.99558 0.8148 0.09406 0.0
C50 C 1.02096 0.8147 0.10531 0.0
C51 C 1.00588 0.80403 0.11851 0.0
O52 O 0.94866 0.79959 0.11047 0.0
C53 C 0.98237 0.81681 0.15931 0.0
O54 O 0.99216 0.82907 0.14476 0.0
H55 H 0.98614 0.81809 0.085 0.0
H56 H 1.00646 0.79699 0.13258 0.0
N57 N 0.9557 0.76816 0.12517 0.0
N58 N 0.93741 0.73862 0.13364 0.0
C59 C 0.94354 0.756 0.13936 0.0
C60 C 0.95739 0.75818 0.11001 0.0
C61 C 0.94612 0.73997 0.11517 0.0
C62 C 0.95121 0.81563 0.10661 0.0
O63 O 0.96637 0.82966 0.11382 0.0
H64 H 0.93879 0.75984 0.15324 0.0
H65 H 0.96594 0.7638 0.09599 0.0
O66 O 0.96992 0.80093 0.15409 0.0
H67 H 0.03561 0.81736 0.10696 0.0
H68 H 0.94444 0.72861 0.106 0.0
Cu69 Cu 0.17465 0.21905 0.41446 0.0
N70 N 0.19004 0.2104 0.42694 0.0
N71 N 0.20046 0.19714 0.45034 0.0
C72 C 0.18821 0.20377 0.44656 0.0
C73 C 0.21044 0.1998 0.43245 0.0
C74 C 0.20405 0.20808 0.41807 0.0
O75 O 0.15076 0.20842 0.43022 0.0
C76 C 0.17055 0.19928 0.37737 0.0
O77 O 0.16814 0.18576 0.39003 0.0
H78 H 0.17762 0.20319 0.45758 0.0
H79 H 0.2089 0.21173 0.40211 0.0
N80 N 0.18622 0.24425 0.41671 0.0
N81 N 0.19377 0.27336 0.4102 0.0
C82 C 0.18289 0.25585 0.40476 0.0
C83 C 0.19963 0.25466 0.4302 0.0
C84 C 0.20432 0.27263 0.42624 0.0
C85 C 0.13645 0.21096 0.42678 0.0
O86 O 0.13633 0.22014 0.41 0.0
H87 H 0.17254 0.25142 0.39246 0.0
H88 H 0.20565 0.24954 0.44197 0.0
O89 O 0.1723 0.21395 0.38492 0.0
H90 H 0.22146 0.19591 0.42992 0.0
H91 H 0.21493 0.28423 0.43434 0.0
Cu92 Cu 0.83539 0.96677 0.41508 0.0
N93 N 0.86007 0.9807 0.42556 0.0
N94 N 0.88179 1.00005 0.44742 0.0
C95 C 0.86323 0.99142 0.44198 0.0
C96 C 0.89071 0.99436 0.43384 0.0
C97 C 0.87726 0.98242 0.42034 0.0
O98 O 0.81945 0.95618 0.44001 0.0
C99 C 0.8415 0.99764 0.38956 0.0
O100 O 0.85739 1.00633 0.39992 0.0
H101 H 0.85188 0.99258 0.44998 0.0
H102 H 0.87982 0.97549 0.40772 0.0
N103 N 0.83096 0.94651 0.39946 0.0
N104 N 0.81171 0.92118 0.38263 0.0
C105 C 0.81432 0.93733 0.3895 0.0
C106 C 0.83943 0.93588 0.39871 0.0
C107 C 0.82749 0.92015 0.38839 0.0
C108 C 0.82526 0.94654 0.45031 0.0
O109 O 0.84007 0.94526 0.44332 0.0
H110 H 0.80364 0.94187 0.38869 0.0
H111 H 0.85271 0.93879 0.4062 0.0
O112 O 0.82917 0.98161 0.3957 0.0
H113 H 0.90587 0.99863 0.4335 0.0
H114 H 0.82994 0.90864 0.38594 0.0
Cu115 Cu 0.08044 0.86873 0.41947 0.0
N116 N 0.06844 0.8719 0.39585 0.0
N117 N 0.05511 0.86903 0.36464 0.0
C118 C 0.06117 0.86115 0.37932 0.0
C119 C 0.05861 0.8852 0.37233 0.0
C120 C 0.06681 0.88693 0.39143 0.0
O121 O 0.09361 0.85486 0.41196 0.0
C122 C 0.05382 0.86808 0.44826 0.0
O123 O 0.05867 0.8836 0.43829 0.0
H124 H 0.06094 0.84816 0.37779 0.0
H125 H 0.0717 0.89861 0.40123 0.0
N126 N 0.09947 0.89185 0.42656 0.0
N127 N 0.11891 0.9161 0.44466 0.0
C128 C 0.10457 0.89873 0.44561 0.0
C129 C 0.11105 0.90522 0.41317 0.0
C130 C 0.123 0.92022 0.42427 0.0
C131 C 0.10745 0.8556 0.42263 0.0
O132 O 0.11112 0.86377 0.44051 0.0
H133 H 0.09777 0.89122 0.45982 0.0
H134 H 0.11079 0.90409 0.39647 0.0
O135 O 0.06175 0.85862 0.4427 0.0
H136 H 0.05553 0.89516 0.36466 0.0
H137 H 0.13405 0.93306 0.41785 0.0
Cu138 Cu 0.81445 0.86272 0.91172 0.0
N139 N 0.81863 0.84679 0.92905 0.0
N140 N 0.83095 0.83578 0.95313 0.0
C141 C 0.83289 0.85081 0.94259 0.0
C142 C 0.81478 0.82187 0.94585 0.0
C143 C 0.80726 0.8287 0.93105 0.0
O144 O 0.82697 0.8865 0.92468 0.0
C145 C 0.8221 0.86828 0.86711 0.0
O146 O 0.81154 0.87651 0.86682 0.0
H147 H 0.84444 0.86448 0.94458 0.0
H148 H 0.79424 0.82107 0.92253 0.0
N149 N 0.78794 0.85424 0.91206 0.0
N150 N 0.75685 0.84259 0.90468 0.0
C151 C 0.77471 0.84793 0.89701 0.0
C152 C 0.77814 0.85283 0.92965 0.0
C153 C 0.75908 0.84573 0.92519 0.0
C154 C 0.82033 0.8977 0.92394 0.0
O155 O 0.80578 0.89431 0.91188 0.0
H156 H 0.77801 0.84698 0.88093 0.0
H157 H 0.78452 0.85675 0.94474 0.0
O158 O 0.8249 0.86217 0.88432 0.0
H159 H 0.8085 0.80777 0.95111 0.0
H160 H 0.74777 0.84335 0.93621 0.0
Cu161 Cu 0.17993 0.96009 0.91346 0.0
N162 N 0.1993 0.98187 0.92358 0.0
N163 N 0.21473 1.00894 0.93854 0.0
C164 C 0.19785 0.99354 0.9367 0.0
C165 C 0.22721 1.00675 0.92623 0.0
C166 C 0.21766 0.9901 0.91704 0.0
O167 O 0.15826 0.94968 0.93275 0.0
C168 C 0.17053 0.97924 0.88344 0.0
O169 O 0.16927 0.98771 0.89982 0.0
H170 H 0.18454 0.99111 0.94401 0.0
H171 H 0.22355 0.98453 0.90591 0.0
N172 N 0.18935 0.94351 0.91148 0.0
N173 N 0.19406 0.92023 0.90214 0.0
C174 C 0.18464 0.92985 0.89812 0.0
C175 C 0.20205 0.94247 0.9244 0.0
C176 C 0.205 0.92821 0.91871 0.0
C177 C 0.1422 0.93647 0.92795 0.0
O178 O 0.13969 0.9306 0.90887 0.0
H179 H 0.1745 0.92706 0.88577 0.0
H180 H 0.20848 0.95133 0.9373 0.0
O181 O 0.17374 0.96578 0.88604 0.0
H182 H 0.24217 0.01655 0.9239 0.0
H183 H 0.21413 0.9238 0.92662 0.0
Cu184 Cu 0.07929 0.20133 0.91391 0.0
N185 N 0.05835 0.19628 0.93134 0.0
N186 N 0.03586 0.18445 0.95647 0.0
C187 C 0.05186 0.18505 0.94827 0.0
C188 C 0.03221 0.1957 0.94414 0.0
C189 C 0.04601 0.20288 0.92868 0.0
O190 O 0.09513 0.19277 0.9285 0.0
C191 C 0.07706 0.18965 0.87111 0.0
O192 O 0.09567 0.19597 0.87139 0.0
H193 H 0.05872 0.1775 0.95444 0.0
H194 H 0.04691 0.21214 0.91617 0.0
N195 N 0.09373 0.22678 0.91018 0.0
N196 N 0.11515 0.25495 0.89903 0.0
C197 C 0.10782 0.2368 0.89621 0.0
C198 C 0.09228 0.23899 0.92227 0.0
C199 C 0.10533 0.25626 0.91546 0.0
C200 C 0.09086 0.17626 0.93264 0.0
O201 O 0.0755 0.16307 0.92453 0.0
H202 H 0.11258 0.23091 0.88427 0.0
H203 H 0.08258 0.23556 0.93543 0.0
O204 O 0.06835 0.19016 0.8875 0.0
H205 H 1.02012 0.19821 0.94581 0.0
H206 H 0.10773 0.26881 0.9225 0.0
Cu207 Cu 0.87837 0.81823 0.6307 0.0
N208 N 0.86001 0.82151 0.61576 0.0
N209 N 0.84474 0.83415 0.59834 0.0
C210 C 0.86182 0.83643 0.6052 0.0
C211 C 0.83183 0.81715 0.60478 0.0
C212 C 0.84124 0.80947 0.61553 0.0
O213 O 0.90269 0.8298 0.61488 0.0
C214 C 0.88704 0.82775 0.67445 0.0
O215 O 0.89873 0.82074 0.67408 0.0
H216 H 0.87523 0.8489 0.60329 0.0
H217 H 0.83477 0.79614 0.62313 0.0
N218 N 0.86981 0.79301 0.63249 0.0
N219 N 0.86393 0.76485 0.64237 0.0
C220 C 0.87061 0.78233 0.64813 0.0
C221 C 0.8623 0.78189 0.61645 0.0
C222 C 0.85859 0.76461 0.62245 0.0
C223 C 0.91425 0.82319 0.61525 0.0
O224 O 0.91087 0.80971 0.62841 0.0
H225 H 0.8765 0.78737 0.66316 0.0
H226 H 0.85992 0.78618 0.60127 0.0
O227 O 0.87852 0.82825 0.65794 0.0
H228 H 0.81661 0.81071 0.60201 0.0
H229 H 0.85242 0.75279 0.61279 0.0
Cu230 Cu 0.23574 0.07897 0.64426 0.0
N231 N 0.23361 0.05921 0.62948 0.0
N232 N 0.22304 0.03632 0.60741 0.0
C233 C 0.22236 0.05147 0.61315 0.0
C234 C 0.23523 0.03454 0.62062 0.0
C235 C 0.24172 0.04869 0.63421 0.0
O236 O 0.22349 0.09016 0.6278 0.0
C237 C 0.22046 0.0762 0.68629 0.0
O238 O 0.22491 0.09349 0.68479 0.0
H239 H 0.21331 0.05645 0.60616 0.0
H240 H 0.25136 0.05096 0.64696 0.0
N241 N 0.26175 0.09531 0.64675 0.0
N242 N 0.28989 0.11771 0.65683 0.0
C243 C 0.2708 0.1085 0.66061 0.0
C244 C 0.27552 0.09628 0.63381 0.0
C245 C 0.29284 0.11 0.63997 0.0
C246 C 0.2265 0.10647 0.62941 0.0
O247 O 0.2371 0.11639 0.64456 0.0
H248 H 0.26355 0.11125 0.67315 0.0
H249 H 0.27307 0.0877 0.62062 0.0
O250 O 0.22374 0.06863 0.67104 0.0
H251 H 0.23908 0.02373 0.62055 0.0
H252 H 0.30649 0.11428 0.63227 0.0
Cu253 Cu 0.96417 0.15604 0.6383 0.0
N254 N 0.98684 0.17178 0.62392 0.0
N255 N 1.01057 0.18332 0.60025 0.0
C256 C 0.99254 0.17017 0.60469 0.0
C257 C 1.0163 0.1937 0.61718 0.0
C258 C 1.0016 0.18664 0.63167 0.0
O259 O 0.95099 0.13355 0.62267 0.0
C260 C 0.98622 0.15199 0.67078 0.0
O261 O 0.9969 0.15202 0.65517 0.0
H262 H 0.98397 0.15921 0.59448 0.0
H263 H 1.00183 0.19162 0.64707 0.0
N264 N 0.94873 0.16744 0.63859 0.0
N265 N 0.92838 0.17775 0.64762 0.0
C266 C 0.93678 0.16756 0.6535 0.0
C267 C 0.94777 0.17779 0.62282 0.0
C268 C 0.93531 0.18414 0.62829 0.0
C269 C 0.95909 0.12444 0.61654 0.0
O270 O 0.97658 0.12921 0.62251 0.0
H271 H 0.9345 0.1605 0.66839 0.0
H272 H 0.95562 0.18048 0.60828 0.0
O273 O 0.97079 0.15261 0.66691 0.0
H274 H 0.03021 0.20544 0.61903 0.0
H275 H 0.93143 0.19256 0.61856 0.0
Cu276 Cu 0.8856 0.48794 0.46652 0.0
N277 N 0.88332 0.50538 0.48238 0.0
N278 N 0.87792 0.51762 0.5106 0.0
C279 C 0.87797 0.50282 0.50257 0.0
C280 C 0.88358 0.53004 0.49471 0.0
C281 C 0.88695 0.52247 0.47737 0.0
O282 O 0.90408 0.48228 0.48016 0.0
C283 C 0.84583 0.46959 0.46072 0.0
O284 O 0.84483 0.48122 0.47336 0.0
H285 H 0.87398 0.49015 0.51105 0.0
H286 H 0.89194 0.52907 0.4623 0.0
N287 N 0.89466 0.49527 0.43941 0.0
N288 N 0.8961 0.48548 0.40771 0.0
C289 C 0.89854 0.48398 0.42823 0.0
C290 C 0.88998 0.50465 0.4254 0.0
C291 C 0.89109 0.49877 0.40576 0.0
C292 C 0.92078 0.49596 0.48077 0.0
O293 O 0.92337 0.51162 0.47278 0.0
H294 H 0.90029 0.47299 0.43532 0.0
H295 H 0.8835 0.51304 0.42924 0.0
O296 O 0.86064 0.4674 0.46108 0.0
H297 H 0.88552 0.54374 0.49557 0.0
H298 H 0.88605 0.50218 0.39161 0.0
Cu299 Cu 0.52761 0.38831 0.4588 0.0
N300 N 0.51259 0.36767 0.44329 0.0
N301 N 0.50394 0.34579 0.41989 0.0
C302 C 0.51674 0.36303 0.42472 0.0
C303 C 0.49129 0.33943 0.43591 0.0
C304 C 0.49662 0.35294 0.45025 0.0
O305 O 0.55255 0.40067 0.445 0.0
C306 C 0.53896 0.38846 0.50165 0.0
O307 O 0.55121 0.40577 0.49845 0.0
H308 H 0.52943 0.37169 0.41554 0.0
H309 H 0.48982 0.35184 0.46517 0.0
N310 N 0.51651 0.40379 0.45903 0.0
N311 N 0.51047 0.4268 0.46613 0.0
C312 C 0.52005 0.41766 0.47177 0.0
C313 C 0.50412 0.40403 0.44505 0.0
C314 C 0.50036 0.41813 0.44935 0.0
C315 C 0.5646 0.41742 0.44693 0.0
O316 O 0.56107 0.42718 0.46019 0.0
H317 H 0.52998 0.42137 0.48445 0.0
H318 H 0.49849 0.39478 0.43233 0.0
O319 O 0.52838 0.37932 0.48688 0.0
H320 H 0.4793 0.3258 0.43737 0.0
H321 H 0.49096 0.42173 0.44068 0.0
Cu322 Cu 0.62912 0.1336 0.46776 0.0
N323 N 0.65265 0.14356 0.45332 0.0
N324 N 0.67656 0.15884 0.43028 0.0
C325 C 0.65849 0.15455 0.43614 0.0
C326 C 0.68218 0.15015 0.44431 0.0
C327 C 0.66746 0.14078 0.45841 0.0
O328 O 0.61143 0.13974 0.4531 0.0
C329 C 0.64786 0.15435 0.50346 0.0
O330 O 0.66046 0.16583 0.48991 0.0
H331 H 0.64961 0.15907 0.42793 0.0
H332 H 0.66754 0.13255 0.47159 0.0
N333 N 0.61817 0.10819 0.46781 0.0
N334 N 0.59904 0.07867 0.47589 0.0
C335 C 0.60386 0.09611 0.48025 0.0
C336 C 0.62258 0.09813 0.45512 0.0
C337 C 0.61086 0.07995 0.46006 0.0
C338 C 0.61451 0.15567 0.44762 0.0
O339 O 0.63026 0.16989 0.45349 0.0
H340 H 0.59722 0.10011 0.49231 0.0
H341 H 0.63343 0.10364 0.44297 0.0
O342 O 0.63302 0.14056 0.49692 0.0
H343 H 0.69609 0.15077 0.44461 0.0
H344 H 0.61081 0.06859 0.45226 0.0
Cu345 Cu 0.83767 0.55513 0.7599 0.0
N346 N 0.85429 0.54818 0.7729 0.0
N347 N 0.86504 0.53355 0.79415 0.0
C348 C 0.84978 0.5355 0.78828 0.0
C349 C 0.8797 0.54554 0.78191 0.0
C350 C 0.87302 0.55451 0.76885 0.0
O351 O 0.81399 0.5438 0.77606 0.0
C352 C 0.83634 0.53486 0.7244 0.0
O353 O 0.83816 0.52389 0.73809 0.0
H354 H 0.83557 0.52799 0.79509 0.0
H355 H 0.88119 0.56484 0.75711 0.0
N356 N 0.84779 0.58039 0.76111 0.0
N357 N 0.85436 0.6091 0.75344 0.0
C358 C 0.84587 0.59166 0.74714 0.0
C359 C 0.85784 0.59099 0.77673 0.0
C360 C 0.86192 0.60868 0.77206 0.0
C361 C 0.80004 0.54711 0.7738 0.0
O362 O 0.80025 0.55755 0.75812 0.0
H363 H 0.838 0.58706 0.73291 0.0
H364 H 0.86179 0.58613 0.79061 0.0
O365 O 0.83488 0.54849 0.73076 0.0
H366 H 0.89417 0.54751 0.78207 0.0
H367 H 0.86993 0.62034 0.78161 0.0
Cu368 Cu 0.50008 0.30812 0.75087 0.0
N369 N 0.50962 0.32907 0.76664 0.0
N370 N 0.52272 0.34875 0.79216 0.0
C371 C 0.51404 0.33103 0.78695 0.0
C372 C 0.52364 0.35819 0.77454 0.0
C373 C 0.51552 0.34603 0.75887 0.0
O374 O 0.50487 0.28986 0.7649 0.0
C375 C 0.50528 0.30549 0.70743 0.0
O376 O 0.49152 0.28865 0.71011 0.0
H377 H 0.51175 0.31983 0.79744 0.0
H378 H 0.51449 0.34932 0.74275 0.0
N379 N 0.47367 0.29823 0.74826 0.0
N380 N 0.44349 0.278 0.74104 0.0
C381 C 0.46142 0.28071 0.74441 0.0
C382 C 0.46318 0.30696 0.74759 0.0
C383 C 0.44453 0.29451 0.74319 0.0
C384 C 0.5211 0.2928 0.77158 0.0
O385 O 0.53616 0.30869 0.76765 0.0
H386 H 0.46579 0.27029 0.74358 0.0
H387 H 0.46884 0.32147 0.74941 0.0
O388 O 0.5117 0.31549 0.72317 0.0
H389 H 0.52996 0.37288 0.77305 0.0
H390 H 0.4329 0.29759 0.74078 0.0
Cu391 Cu 0.74419 0.19629 0.76137 0.0
N392 N 0.72508 0.17863 0.7451 0.0
N393 N 0.70779 0.16671 0.71663 0.0
C394 C 0.7224 0.18148 0.72499 0.0
C395 C 0.70108 0.15401 0.73225 0.0
C396 C 0.71179 0.16138 0.74976 0.0
O397 O 0.76867 0.20345 0.74705 0.0
C398 C 0.71989 0.21139 0.76967 0.0
O399 O 0.70781 0.19921 0.75711 0.0
H400 H 0.73089 0.19438 0.71685 0.0
H401 H 0.71005 0.15463 0.76475 0.0
N402 N 0.74702 0.18881 0.788 0.0
N403 N 0.7595 0.19994 0.81889 0.0
C404 C 0.76269 0.20038 0.79826 0.0
C405 C 0.73342 0.18024 0.80279 0.0
C406 C 0.74117 0.18696 0.82192 0.0
C407 C 0.77252 0.19024 0.7464 0.0
O408 O 0.75999 0.17441 0.75457 0.0
H409 H 0.77519 0.21103 0.79036 0.0
H410 H 0.71835 0.17205 0.79971 0.0
O411 O 0.73744 0.21512 0.76886 0.0
H412 H 0.68942 0.14028 0.73114 0.0
H413 H 0.7332 0.18443 0.83637 0.0
Cu414 Cu 0.4813 0.19353 0.23981 0.0
N415 N 0.48822 0.17864 0.25576 0.0
N416 N 0.50098 0.1687 0.28056 0.0
C417 C 0.49924 0.18304 0.27277 0.0
C418 C 0.49066 0.15484 0.26785 0.0
C419 C 0.48284 0.161 0.25263 0.0
O420 O 0.49302 0.21718 0.25304 0.0
C421 C 0.50214 0.20608 0.20034 0.0
O422 O 0.51124 0.22227 0.20844 0.0
H423 H 0.50559 0.19641 0.27944 0.0
H424 H 0.47384 0.15319 0.24012 0.0
N425 N 0.45465 0.18361 0.242 0.0
N426 N 0.42367 0.17426 0.23573 0.0
C427 C 0.4416 0.18157 0.22747 0.0
C428 C 0.44465 0.17732 0.2599 0.0
C429 C 0.42564 0.17156 0.25612 0.0
C430 C 0.4871 0.2289 0.25139 0.0
O431 O 0.47395 0.22654 0.23773 0.0
H432 H 0.44523 0.18571 0.21132 0.0
H433 H 0.45086 0.17703 0.27473 0.0
O434 O 0.48905 0.19298 0.21098 0.0
H435 H 0.48906 0.14124 0.26922 0.0
H436 H 0.41413 0.16568 0.26755 0.0
Cu437 Cu 0.83933 0.29156 0.24618 0.0
N438 N 0.85646 0.31254 0.25991 0.0
N439 N 0.86855 0.33891 0.27651 0.0
C440 C 0.85276 0.32285 0.27313 0.0
C441 C 0.88264 0.33862 0.2651 0.0
C442 C 0.87515 0.32245 0.25485 0.0
O443 O 0.81708 0.27631 0.2637 0.0
C444 C 0.82302 0.2921 0.20575 0.0
O445 O 0.81163 0.27448 0.20806 0.0
H446 H 0.83861 0.31919 0.27909 0.0
H447 H 0.88258 0.3186 0.24357 0.0
N448 N 0.85138 0.27749 0.24045 0.0
N449 N 0.85727 0.25569 0.22825 0.0
C450 C 0.84562 0.26336 0.22756 0.0
C451 C 0.86702 0.27863 0.24974 0.0
C452 C 0.87076 0.26533 0.24219 0.0
C453 C 0.8037 0.27949 0.26967 0.0
O454 O 0.80356 0.29444 0.26312 0.0
H455 H 0.83307 0.25869 0.21804 0.0
H456 H 0.87489 0.28814 0.26165 0.0
O457 O 0.83427 0.30076 0.22026 0.0
H458 H 0.89722 0.34956 0.26377 0.0
H459 H 0.88214 0.26258 0.24717 0.0
Cu460 Cu 0.7562 0.52709 0.25632 0.0
N461 N 0.73563 0.52637 0.27116 0.0
N462 N 0.71108 0.51689 0.29363 0.0
C463 C 0.7244 0.51329 0.28507 0.0
C464 C 0.71409 0.53287 0.28479 0.0
C465 C 0.72934 0.53875 0.27104 0.0
O466 O 0.7633 0.51114 0.27225 0.0
C467 C 0.7417 0.52806 0.21719 0.0
O468 O 0.74302 0.54314 0.2246 0.0
H469 H 0.72595 0.50136 0.28878 0.0
H470 H 0.7356 0.55132 0.26188 0.0
N471 N 0.77621 0.55107 0.25621 0.0
N472 N 0.80026 0.5785 0.24678 0.0
C473 C 0.78795 0.56148 0.24057 0.0
C474 C 0.78121 0.56176 0.27278 0.0
C475 C 0.79593 0.57861 0.26707 0.0
C476 C 0.78021 0.51347 0.27455 0.0
O477 O 0.79435 0.5264 0.26365 0.0
H478 H 0.78742 0.55664 0.22504 0.0
H479 H 0.77435 0.55762 0.28792 0.0
O480 O 0.74759 0.51891 0.22823 0.0
H481 H 0.70617 0.54003 0.28839 0.0
H482 H 0.80256 0.59016 0.27708 0.0
Cu483 Cu 0.56072 0.15359 0.96381 0.0
N484 N 0.54281 0.15675 0.94807 0.0
N485 N 0.53124 0.16886 0.92439 0.0
C486 C 0.54675 0.17103 0.93511 0.0
C487 C 0.51696 0.15252 0.93109 0.0
C488 C 0.52415 0.14509 0.94564 0.0
O489 O 0.58523 0.16961 0.94985 0.0
C490 C 0.56062 0.17475 0.99793 0.0
O491 O 0.56597 0.1878 0.98363 0.0
H492 H 0.56086 0.18266 0.93349 0.0
H493 H 0.51648 0.1319 0.95345 0.0
N494 N 0.55578 0.12934 0.96167 0.0
N495 N 0.54678 0.09976 0.96777 0.0
C496 C 0.5475 0.11509 0.97538 0.0
C497 C 0.5602 0.12275 0.94488 0.0
C498 C 0.55475 0.10462 0.94858 0.0
C499 C 0.60015 0.1676 0.94985 0.0
O500 O 0.60078 0.15524 0.96234 0.0
H501 H 0.54239 0.11602 0.99066 0.0
H502 H 0.56697 0.13065 0.93088 0.0
O503 O 0.55842 0.15922 0.99276 0.0
H504 H 0.50247 0.14605 0.92544 0.0
H505 H 0.55633 0.09566 0.93779 0.0
Cu506 Cu 0.89859 0.39921 0.97384 0.0
N507 N 0.89357 0.37693 0.96226 0.0
N508 N 0.87922 0.35015 0.94642 0.0
C509 C 0.88043 0.36681 0.94818 0.0
C510 C 0.89222 0.34994 0.95968 0.0
C511 C 0.90095 0.36637 0.9694 0.0
O512 O 0.89201 0.41391 0.95497 0.0
C513 C 0.86909 0.37963 1.00356 0.0
O514 O 0.8601 0.37014 0.98741 0.0
H515 H 0.87122 0.37113 0.94031 0.0
H516 H 0.91146 0.37014 0.98149 0.0
N517 N 0.92499 0.41295 0.97811 0.0
N518 N 0.95352 0.43529 0.98762 0.0
C519 C 0.93427 0.42786 0.98974 0.0
C520 C 0.9388 0.41089 0.96838 0.0
C521 C 0.95634 0.42456 0.97423 0.0
C522 C 0.87555 0.41058 0.94859 0.0
O523 O 0.86036 0.39573 0.95524 0.0
H524 H 0.92704 0.4335 0.99894 0.0
H525 H 0.93628 0.40042 0.95738 0.0
O526 O 0.88543 0.39361 1.00082 0.0
H527 H 0.89498 0.33857 0.96246 0.0
H528 H 0.97012 0.42648 0.9689 0.0
Cu529 Cu 0.62922 0.4877 0.98695 0.0
N530 N 0.65209 0.50406 0.97358 0.0
N531 N 0.67613 0.51593 0.95031 0.0
C532 C 0.65773 0.5033 0.95403 0.0
C533 C 0.68221 0.525 0.96814 0.0
C534 C 0.66734 0.51767 0.98244 0.0
O535 O 0.61887 0.46535 0.97154 0.0
C536 C 0.64698 0.47931 1.02033 0.0
O537 O 0.65403 0.47364 1.00546 0.0
H538 H 0.64886 0.49312 0.94313 0.0
H539 H 0.6678 0.52152 0.99843 0.0
N540 N 0.61199 0.497 0.98572 0.0
N541 N 0.588 0.50295 0.99299 0.0
C542 C 0.59881 0.49547 1.0 0.0
C543 C 0.60951 0.50577 0.96924 0.0
C544 C 0.59477 0.50946 0.97365 0.0
C545 C 0.60162 0.45273 0.97294 0.0
O546 O 0.59015 0.45361 0.98707 0.0
H547 H 0.59684 0.48855 1.01493 0.0
H548 H 0.61772 0.50902 0.95489 0.0
O549 O 0.6351 0.48495 1.01572 0.0
H550 H 0.69651 0.53592 0.97076 0.0
H551 H 0.58948 0.51645 0.96339 0.0
Cu552 Cu 0.55939 0.82657 0.7945 0.0
N553 N 0.56457 0.84651 0.81136 0.0
N554 N 0.5642 0.86067 0.8405 0.0
C555 C 0.55893 0.84452 0.83145 0.0
C556 C 0.5737 0.87337 0.82536 0.0
C557 C 0.57391 0.8646 0.80743 0.0
O558 O 0.57232 0.81415 0.80768 0.0
C559 C 0.5232 0.82204 0.78613 0.0
O560 O 0.53137 0.83901 0.79203 0.0
H561 H 0.55119 0.83134 0.83924 0.0
H562 H 0.58028 0.87097 0.7926 0.0
N563 N 0.5687 0.83133 0.76707 0.0
N564 N 0.57104 0.822 0.73535 0.0
C565 C 0.56165 0.81753 0.75377 0.0
C566 C 0.58316 0.84532 0.75667 0.0
C567 C 0.58471 0.83953 0.73705 0.0
C568 C 0.59047 0.82413 0.80681 0.0
O569 O 0.59748 0.84053 0.79826 0.0
H570 H 0.55045 0.80401 0.7581 0.0
H571 H 0.59244 0.85845 0.76311 0.0
O572 O 0.53189 0.81271 0.78938 0.0
H573 H 0.57978 0.88795 0.82692 0.0
H574 H 0.59531 0.84744 0.72521 0.0
Cu575 Cu 0.19879 0.72177 0.80346 0.0
N576 N 0.18439 0.7003 0.78907 0.0
N577 N 0.1753 0.67833 0.76578 0.0
C578 C 0.18798 0.69569 0.77026 0.0
C579 C 0.16322 0.67188 0.78231 0.0
C580 C 0.16881 0.68546 0.79658 0.0
O581 O 0.22213 0.73752 0.78802 0.0
C582 C 0.20543 0.70183 0.83625 0.0
O583 O 0.20583 0.69149 0.8214 0.0
H584 H 0.20004 0.70463 0.76041 0.0
H585 H 0.16231 0.68446 0.81166 0.0
N586 N 0.18497 0.73451 0.80611 0.0
N587 N 0.17784 0.75653 0.81448 0.0
C588 C 0.19159 0.75136 0.81361 0.0
C589 C 0.16643 0.72875 0.80203 0.0
C590 C 0.16199 0.74227 0.80715 0.0
C591 C 0.23454 0.73297 0.78224 0.0
O592 O 0.23235 0.71682 0.78772 0.0
H593 H 0.20623 0.75956 0.81835 0.0
H594 H 0.15675 0.71553 0.79608 0.0
O595 O 0.2035 0.71576 0.83154 0.0
H596 H 0.15127 0.65827 0.78405 0.0
H597 H 0.148 0.74138 0.80603 0.0
Cu598 Cu 0.3073 0.46462 0.78724 0.0
N599 N 0.32986 0.47238 0.77152 0.0
N600 N 0.35366 0.48816 0.74858 0.0
C601 C 0.33527 0.48292 0.75398 0.0
C602 C 0.35997 0.48055 0.76319 0.0
C603 C 0.34528 0.47082 0.77726 0.0
O604 O 0.29238 0.47415 0.77276 0.0
C605 C 0.30452 0.47477 0.82934 0.0
O606 O 0.28633 0.46912 0.82579 0.0
H607 H 0.32627 0.48745 0.74599 0.0
H608 H 0.346 0.46371 0.7912 0.0
N609 N 0.29367 0.43904 0.7887 0.0
N610 N 0.27266 0.41024 0.79814 0.0
C611 C 0.2796 0.42813 0.80221 0.0
C612 C 0.29574 0.4277 0.7757 0.0
C613 C 0.28287 0.41 0.78146 0.0
C614 C 0.27444 0.46822 0.77482 0.0
O615 O 0.26469 0.45546 0.7889 0.0
H616 H 0.27459 0.43322 0.81477 0.0
H617 H 0.30576 0.43205 0.76274 0.0
O618 O 0.31519 0.47414 0.81496 0.0
H619 H 0.37432 0.48223 0.76389 0.0
H620 H 0.2809 0.39792 0.7736 0.0
Cu621 Cu 0.49262 0.88617 0.08209 0.0
N622 N 0.47954 0.86209 0.0924 0.0
N623 N 0.47617 0.83914 0.11385 0.0
C624 C 0.48837 0.85546 0.105 0.0
C625 C 0.45882 0.83531 0.10634 0.0
C626 C 0.46093 0.84953 0.09315 0.0
O627 O 0.50155 0.8989 0.10816 0.0
C628 C 0.50389 0.87575 0.04701 0.0
O629 O 0.48562 0.86391 0.04882 0.0
H630 H 0.50337 0.86321 0.10864 0.0
H631 H 0.44963 0.85096 0.08548 0.0
N632 N 0.47784 0.89522 0.06877 0.0
N633 N 0.47388 0.91719 0.05241 0.0
C634 C 0.48582 0.91019 0.05619 0.0
C635 C 0.46001 0.89235 0.07292 0.0
C636 C 0.45751 0.90587 0.06281 0.0
C637 C 0.4958 0.90987 0.11448 0.0
O638 O 0.49355 0.92059 0.10083 0.0
H639 H 0.5008 0.91684 0.05168 0.0
H640 H 0.45011 0.88211 0.0838 0.0
O641 O 0.51133 0.88762 0.06104 0.0
H642 H 0.44546 0.82336 0.11048 0.0
H643 H 0.44498 0.90773 0.06397 0.0
Cu644 Cu 0.15789 0.63303 0.09028 0.0
N645 N 0.16267 0.65316 0.10636 0.0
N646 N 0.17544 0.67508 0.12983 0.0
C647 C 0.175 0.65991 0.12218 0.0
C648 C 0.16281 0.67785 0.11836 0.0
C649 C 0.155 0.66436 0.10395 0.0
O650 O 0.17108 0.62118 0.10371 0.0
C651 C 0.17056 0.63327 0.04836 0.0
O652 O 0.16826 0.61695 0.05307 0.0
H653 H 0.18379 0.65403 0.12761 0.0
H654 H 0.14453 0.66285 0.09241 0.0
N655 N 0.13146 0.61706 0.09004 0.0
N656 N 0.10258 0.59428 0.08205 0.0
C657 C 0.12148 0.60339 0.07698 0.0
C658 C 0.11847 0.61672 0.10368 0.0
C659 C 0.10074 0.60279 0.09882 0.0
C660 C 0.16645 0.60438 0.10271 0.0
O661 O 0.15264 0.59387 0.09041 0.0
H662 H 0.12807 0.59996 0.06435 0.0
H663 H 0.12172 0.62592 0.11641 0.0
O664 O 0.16718 0.64209 0.06214 0.0
H665 H 0.15932 0.68878 0.1203 0.0
H666 H 0.08752 0.59933 0.10706 0.0
Cu667 Cu 0.41365 0.54485 0.08279 0.0
N668 N 0.39586 0.54231 0.06248 0.0
N669 N 0.37861 0.53514 0.03348 0.0
C670 C 0.39329 0.53474 0.04368 0.0
C671 C 0.37186 0.54335 0.0464 0.0
C672 C 0.38251 0.54774 0.0642 0.0
O673 O 0.42769 0.5321 0.07489 0.0
C674 C 0.38477 0.52277 0.11315 0.0
O675 O 0.37705 0.51103 0.0983 0.0
H676 H 0.40179 0.52882 0.0378 0.0
H677 H 0.38065 0.55442 0.07753 0.0
N678 N 0.4312 0.56944 0.08514 0.0
N679 N 0.45186 0.5955 0.0996 0.0
C680 C 0.44046 0.57738 0.10253 0.0
C681 C 0.43687 0.58294 0.07066 0.0
C682 C 0.44962 0.59906 0.07955 0.0
C683 C 0.44059 0.53187 0.08636 0.0
O684 O 0.44331 0.53904 0.10478 0.0
H685 H 0.4385 0.57002 0.11715 0.0
H686 H 0.43198 0.58117 0.05481 0.0
O687 O 0.40059 0.53713 0.10966 0.0
H688 H 0.3602 0.54622 0.04317 0.0
H689 H 0.45676 0.61233 0.0718 0.0
Cu690 Cu 0.14699 0.52762 0.58067 0.0
N691 N 0.15613 0.51243 0.59168 0.0
N692 N 0.17097 0.50135 0.61215 0.0
C693 C 0.16394 0.5132 0.61041 0.0
C694 C 0.16734 0.49277 0.59392 0.0
C695 C 0.15811 0.49958 0.58136 0.0
O696 O 0.15449 0.54787 0.59926 0.0
C697 C 0.17484 0.53906 0.54869 0.0
O698 O 0.18622 0.54134 0.56437 0.0
H699 H 0.16523 0.52279 0.62212 0.0
H700 H 0.15372 0.4959 0.56554 0.0
N701 N 0.1203 0.51442 0.58022 0.0
N702 N 0.08962 0.50401 0.57169 0.0
C703 C 0.10808 0.51611 0.56699 0.0
C704 C 0.10927 0.50091 0.59372 0.0
C705 C 0.0904 0.49447 0.58854 0.0
C706 C 0.15652 0.5636 0.59466 0.0
O707 O 0.15416 0.56755 0.5754 0.0
H708 H 0.11269 0.52589 0.55411 0.0
H709 H 0.11463 0.49615 0.60655 0.0
O710 O 0.15736 0.53449 0.55245 0.0
H711 H 0.17134 0.48251 0.58989 0.0
H712 H 0.07821 0.48379 0.59682 0.0
Cu713 Cu 0.51392 0.63069 0.56895 0.0
N714 N 0.53163 0.65061 0.58391 0.0
N715 N 0.54461 0.67615 0.60234 0.0
C716 C 0.52824 0.66217 0.59534 0.0
C717 C 0.55875 0.67312 0.59496 0.0
C718 C 0.55075 0.65754 0.58354 0.0
O719 O 0.49024 0.61918 0.58557 0.0
C720 C 0.5035 0.63391 0.52578 0.0
O721 O 0.49158 0.61634 0.52629 0.0
H722 H 0.51408 0.66067 0.59779 0.0
H723 H 0.5584 0.65189 0.57512 0.0
N724 N 0.52291 0.61358 0.56657 0.0
N725 N 0.52603 0.58911 0.55823 0.0
C726 C 0.51778 0.59966 0.5534 0.0
C727 C 0.53475 0.61171 0.58008 0.0
C728 C 0.53681 0.59684 0.57496 0.0
C729 C 0.47626 0.60346 0.58236 0.0
O730 O 0.47625 0.59502 0.56541 0.0
H731 H 0.50759 0.59685 0.54112 0.0
H732 H 0.54103 0.62027 0.59324 0.0
O733 O 0.51287 0.64143 0.54194 0.0
H734 H 0.57389 0.6816 0.59745 0.0
H735 H 0.54545 0.59201 0.58315 0.0
Cu736 Cu 0.41627 0.86119 0.58481 0.0
N737 N 0.39309 0.85467 0.59851 0.0
N738 N 0.36875 0.84244 0.62143 0.0
C739 C 0.38586 0.844 0.61572 0.0
C740 C 0.36515 0.85252 0.60721 0.0
C741 C 0.38016 0.86001 0.59312 0.0
O742 O 0.43082 0.85296 0.6024 0.0
C743 C 0.39543 0.83767 0.55228 0.0
O744 O 0.38447 0.82729 0.56765 0.0
H745 H 0.39312 0.83773 0.62402 0.0
H746 H 0.3816 0.86875 0.57982 0.0
N747 N 0.42981 0.88667 0.58325 0.0
N748 N 0.4499 0.91558 0.57349 0.0
C749 C 0.44351 0.89775 0.56949 0.0
C750 C 0.42756 0.89781 0.59639 0.0
C751 C 0.43986 0.91558 0.59044 0.0
C752 C 0.42753 0.83662 0.60584 0.0
O753 O 0.41437 0.8234 0.59517 0.0
H754 H 0.44851 0.89284 0.55673 0.0
H755 H 0.4177 0.89328 0.6095 0.0
O756 O 0.41074 0.85211 0.55649 0.0
H757 H 0.35245 0.85415 0.60682 0.0
H758 H 0.4415 0.92756 0.59826 0.0
Cu759 Cu 0.22801 0.48985 0.3094 0.0
N760 N 0.21554 0.50114 0.29591 0.0
N761 N 0.2075 0.51655 0.27281 0.0
C762 C 0.21693 0.50686 0.27591 0.0
C763 C 0.19981 0.51677 0.2914 0.0
C764 C 0.20473 0.50723 0.30557 0.0
O765 O 0.2514 0.4951 0.29426 0.0
C766 C 0.21736 0.48956 0.35087 0.0
O767 O 0.20176 0.47555 0.34438 0.0
H768 H 0.2254 0.50477 0.26417 0.0
H769 H 0.20123 0.50541 0.32197 0.0
N770 N 0.21289 0.46457 0.30909 0.0
N771 N 0.20246 0.43503 0.31654 0.0
C772 C 0.21571 0.45232 0.3204 0.0
C773 C 0.19741 0.45477 0.29759 0.0
C774 C 0.19094 0.43651 0.30214 0.0
C775 C 0.2636 0.51049 0.28652 0.0
O776 O 0.26191 0.52505 0.29037 0.0
H777 H 0.22739 0.45608 0.33108 0.0
H778 H 0.19127 0.46051 0.28669 0.0
O779 O 0.23146 0.49786 0.33821 0.0
H780 H 0.1915 0.52364 0.29456 0.0
H781 H 0.17857 0.42524 0.29556 0.0
Cu782 Cu 0.57159 0.75951 0.29739 0.0
N783 N 0.57061 0.74055 0.28171 0.0
N784 N 0.56152 0.71866 0.25835 0.0
C785 C 0.55939 0.73274 0.26535 0.0
C786 C 0.57468 0.71769 0.27075 0.0
C787 C 0.58028 0.73122 0.28511 0.0
O788 O 0.55695 0.76947 0.28267 0.0
C789 C 0.54894 0.73392 0.32868 0.0
O790 O 0.5405 0.7243 0.3124 0.0
H791 H 0.54945 0.73695 0.25913 0.0
H792 H 0.59046 0.73393 0.29739 0.0
N793 N 0.59696 0.77836 0.29666 0.0
N794 N 0.627 0.7994 0.30341 0.0
C795 C 0.611 0.78467 0.3109 0.0
C796 C 0.60445 0.7893 0.27976 0.0
C797 C 0.62283 0.80222 0.28383 0.0
C798 C 0.53901 0.76179 0.27943 0.0
O799 O 0.52781 0.74583 0.28828 0.0
H800 H 0.6094 0.7789 0.32646 0.0
H801 H 0.59689 0.788 0.26545 0.0
O802 O 0.56254 0.75015 0.3258 0.0
H803 H 0.57991 0.70791 0.26958 0.0
H804 H 0.63247 0.81285 0.27311 0.0
Cu805 Cu 0.30484 0.82895 0.30983 0.0
N806 N 0.32546 0.84715 0.29435 0.0
N807 N 0.35098 0.86197 0.27301 0.0
C808 C 0.33738 0.84552 0.28055 0.0
C809 C 0.3474 0.87429 0.2826 0.0
C810 C 0.33178 0.86516 0.29568 0.0
O811 O 0.29453 0.80657 0.29399 0.0
C812 C 0.30682 0.81548 0.35143 0.0
O813 O 0.28949 0.8021 0.34857 0.0
H814 H 0.33604 0.83254 0.27612 0.0
H815 H 0.32556 0.87123 0.30569 0.0
N816 N 0.28571 0.83608 0.31222 0.0
N817 N 0.26024 0.83908 0.32209 0.0
C818 C 0.27279 0.83308 0.3276 0.0
C819 C 0.28123 0.84435 0.2967 0.0
C820 C 0.26567 0.84624 0.30269 0.0
C821 C 0.27704 0.79434 0.29536 0.0
O822 O 0.26593 0.79577 0.3095 0.0
H823 H 0.27215 0.82604 0.34214 0.0
H824 H 0.28859 0.84838 0.28181 0.0
O825 O 0.31508 0.82743 0.33698 0.0
H826 H 0.35572 0.88894 0.28071 0.0
H827 H 0.25883 0.85237 0.29338 0.0
C828 C 0.23553 0.12784 0.05771 0.0
C829 C 0.24819 0.14611 0.05217 0.0
C830 C 0.23277 0.11381 0.04457 0.0
C831 C 0.23846 0.10349 0.99025 0.0
H832 H 0.23175 0.05829 1.01598 0.0
C833 C 0.23278 0.04221 0.94373 0.0
C834 C 0.21857 0.02476 0.95038 0.0
C835 C 0.23683 0.05753 0.9554 0.0
C836 C 0.23343 0.07076 1.00856 0.0
H837 H 0.26744 0.16403 0.02814 0.0
H838 H 0.26292 0.13927 1.005 0.0
H839 H 0.23889 0.08431 0.03742 0.0
H840 H 0.19742 1.0098 0.97446 0.0
H841 H 0.2045 0.03654 0.99491 0.0
H842 H 0.23317 0.08979 0.9613 0.0
C843 C 0.25504 0.13589 1.01961 0.0
C844 C 0.23751 0.08571 1.02085 0.0
C845 C 0.25772 0.15005 0.03282 0.0
C846 C 0.20837 0.02304 0.96888 0.0
C847 C 0.21255 0.03833 0.98066 0.0
C848 C 0.23451 0.08852 0.9779 0.0
C849 C 0.24266 0.11755 0.02546 0.0
C850 C 0.23977 0.10219 1.01193 0.0
C851 C 0.22689 0.05575 0.97411 0.0
C852 C 0.23168 0.0719 0.98698 0.0
H853 H 0.22742 0.12434 0.07215 0.0
H854 H 0.22265 0.09997 0.04935 0.0
H855 H 0.23994 0.11588 0.98286 0.0
H856 H 0.24073 0.04405 0.92941 0.0
H857 H 0.24801 0.07072 0.94998 0.0
C858 C 0.92944 0.07625 0.09087 0.0
C859 C 0.91729 0.08192 0.1004 0.0
C860 C 0.94366 0.08776 0.07658 0.0
C861 C 0.95508 0.12694 0.04071 0.0
H862 H 1.00538 0.13036 0.03713 0.0
C863 C 1.01316 0.17929 0.98542 0.0
C864 C 1.02447 0.17364 0.97409 0.0
C865 C 1.00119 0.16841 1.00167 0.0
C866 C 0.99133 0.12942 0.03778 0.0
H867 H 0.91119 0.10453 0.10299 0.0
H868 H 0.93602 0.12458 0.07839 0.0
H869 H 0.98269 0.11094 0.06418 0.0
H870 H 0.03226 0.15217 0.9714 0.0
H871 H 1.01126 0.13309 0.99974 0.0
H872 H 0.96351 0.14521 1.01431 0.0
C873 C 0.93435 0.1111 0.08161 0.0
C874 C 0.97832 0.11829 0.05331 0.0
C875 C 0.92017 0.09962 0.09586 0.0
C876 C 1.02388 0.15702 0.97987 0.0
C877 C 1.01182 0.14607 0.99615 0.0
C878 C 0.96803 0.13801 0.02523 0.0
C879 C 0.94604 0.10522 0.07147 0.0
C880 C 0.96005 0.11699 0.05504 0.0
C881 C 1.00011 0.15152 1.00707 0.0
C882 C 0.98637 0.1395 1.02359 0.0
H883 H 0.92762 0.0627 0.09397 0.0
H884 H 0.95232 0.08273 0.069 0.0
H885 H 0.94101 0.12596 0.04123 0.0
H886 H 1.01355 0.19218 0.98173 0.0
H887 H 0.99275 0.17328 1.01003 0.0
C888 C 0.85565 0.85016 0.98009 0.0
C889 C 0.84318 0.83467 0.96907 0.0
C890 C 0.86716 0.84889 0.99578 0.0
C891 C 0.87053 0.81568 0.03203 0.0
H892 H 0.92411 0.85151 0.03511 0.0
C893 C 0.92314 0.80352 0.08285 0.0
C894 C 0.93793 0.81841 0.09268 0.0
C895 C 0.91125 0.80615 0.0688 0.0
C896 C 0.9091 0.84153 0.03471 0.0
H897 H 0.83362 0.80579 0.96576 0.0
H898 H 0.85339 0.80359 0.99315 0.0
H899 H 0.90418 0.85507 1.00861 0.0
H900 H 0.95152 0.84774 0.09574 0.0
H901 H 0.93052 0.85229 0.07154 0.0
H902 H 0.87532 0.80214 0.05811 0.0
C903 C 0.85406 0.81667 0.98984 0.0
C904 C 0.89769 0.84356 1.01947 0.0
C905 C 0.84268 0.81795 0.97409 0.0
C906 C 0.94031 0.83597 0.08839 0.0
C907 C 0.92834 0.83859 0.07439 0.0
C908 C 0.88188 0.8137 0.04734 0.0
C909 C 0.86638 0.83209 1.00094 0.0
C910 C 0.87833 0.83053 1.01778 0.0
C911 C 0.91374 0.82373 0.06428 0.0
C912 C 0.90139 0.82647 0.04873 0.0
H913 H 0.85633 0.86323 0.9769 0.0
H914 H 0.87639 0.861 1.00416 0.0
H915 H 0.85558 0.80557 0.0314 0.0
H916 H 0.92094 0.78981 0.08567 0.0
H917 H 0.90039 0.79439 0.06111 0.0
C918 C 0.04156 0.19071 0.58384 0.0
C919 C 1.02198 0.18514 0.58204 0.0
C920 C 0.05281 0.19269 0.56629 0.0
C921 C 0.05014 0.18135 0.51007 0.0
H922 H 0.10335 0.2186 0.51053 0.0
C923 C 0.10409 0.20588 0.43904 0.0
C924 C 0.12138 0.20569 0.4431 0.0
C925 C 0.09071 0.20237 0.45509 0.0
C926 C 0.08852 0.20812 0.51022 0.0
H927 H 0.99876 0.17725 0.56046 0.0
H928 H 1.01851 0.18144 0.52952 0.0
H929 H 0.08254 0.21512 0.53994 0.0
H930 H 0.13795 0.20133 0.46716 0.0
H931 H 0.11487 0.19573 0.49506 0.0
H932 H 0.05633 0.17495 0.47979 0.0
C933 C 0.02517 0.1838 0.54457 0.0
C934 C 0.07657 0.20598 0.52717 0.0
C935 C 1.01382 0.18148 0.56226 0.0
C936 C 0.12478 0.20155 0.46343 0.0
C937 C 0.11162 0.19842 0.47947 0.0
C938 C 0.06208 0.18376 0.49289 0.0
C939 C 0.04489 0.18954 0.54632 0.0
C940 C 0.05727 0.19235 0.52757 0.0
C941 C 0.09458 0.19901 0.47552 0.0
C942 C 0.08145 0.19697 0.49299 0.0
H943 H 0.04814 0.19326 0.59894 0.0
H944 H 0.06774 0.19656 0.5685 0.0
H945 H 0.03547 0.17057 0.50979 0.0
H946 H 0.10103 0.20899 0.42355 0.0
H947 H 0.07766 0.20293 0.45169 0.0
C948 C 0.8241 0.94542 0.48863 0.0
C949 C 0.81651 0.93677 0.46993 0.0
C950 C 0.82328 0.93513 0.50647 0.0
C951 C 0.80448 0.88737 0.528 0.0
H952 H 0.85473 0.90735 0.55243 0.0
C953 C 0.8545 0.86041 0.57363 0.0
C954 C 0.84074 0.84711 0.5871 0.0
C955 C 0.85016 0.87231 0.56197 0.0
C956 C 0.84063 0.90151 0.54574 0.0
H957 H 0.8011 0.91073 0.4554 0.0
H958 H 0.79934 0.89273 0.48636 0.0
H959 H 0.8476 0.92599 0.52822 0.0
H960 H 0.81193 0.83654 0.59959 0.0
H961 H 0.80445 0.85731 0.5795 0.0
H962 H 0.79788 0.86255 0.54465 0.0
C963 C 0.80571 0.90737 0.4876 0.0
C964 C 0.8364 0.91234 0.53209 0.0
C965 C 0.80654 0.91768 0.46982 0.0
C966 C 0.82274 0.84635 0.58904 0.0
C967 C 0.81843 0.85828 0.57749 0.0
C968 C 0.80873 0.87652 0.54161 0.0
C969 C 0.815 0.916 0.50583 0.0
C970 C 0.81837 0.90532 0.52271 0.0
C971 C 0.83199 0.8713 0.56359 0.0
C972 C 0.827 0.88333 0.55037 0.0
H973 H 0.83234 0.96015 0.48893 0.0
H974 H 0.83027 0.94222 0.52035 0.0
H975 H 0.7904 0.88153 0.52123 0.0
H976 H 0.86842 0.86126 0.57164 0.0
H977 H 0.86089 0.88197 0.55123 0.0
C978 C 0.13015 0.9205 0.48087 0.0
C979 C 0.12818 0.9278 0.46173 0.0
C980 C 0.13982 0.93197 0.49713 0.0
C981 C 0.15492 0.97777 0.51687 0.0
H982 H 0.19351 0.9705 0.54586 0.0
C983 C 0.20705 0.03058 0.57348 0.0
C984 C 0.21221 0.02407 0.59133 0.0
C985 C 0.19648 0.01867 0.55792 0.0
C986 C 0.18259 0.97259 0.53817 0.0
H987 H 0.13428 0.95278 0.44485 0.0
H988 H 0.15111 0.97281 0.47324 0.0
H989 H 0.17511 0.94976 0.51872 0.0
H990 H 0.20995 0.99988 0.60705 0.0
H991 H 0.19124 0.97904 0.58018 0.0
H992 H 0.16216 1.00043 0.53643 0.0
C993 C 0.14523 0.95823 0.47565 0.0
C994 C 0.17208 0.9607 0.52258 0.0
C995 C 0.13575 0.94678 0.45934 0.0
C996 C 0.20647 1.00537 0.59333 0.0
C997 C 0.19576 0.99342 0.57788 0.0
C998 C 0.16531 0.98957 0.53259 0.0
C999 C 0.14751 0.95096 0.49466 0.0
C1000 C 0.15821 0.96323 0.51169 0.0
C1001 C 0.19066 0.99992 0.55993 0.0
C1002 C 0.17936 0.98719 0.54338 0.0
H1003 H 0.12459 0.90595 0.48311 0.0
H1004 H 0.14125 0.92599 0.51168 0.0
H1005 H 0.14415 0.97992 0.5089 0.0
H1006 H 0.21147 0.04496 0.5714 0.0
H1007 H 0.19313 0.02424 0.54417 0.0
C1008 C 0.83246 0.98589 0.07538 0.0
C1009 C 0.84276 1.00505 0.07481 0.0
C1010 C 0.8327 0.97587 0.0584 0.0
C1011 C 0.84162 0.97941 1.00167 0.0
H1012 H 0.84106 0.93312 1.01122 0.0
C1013 C 0.81833 0.92418 0.93928 0.0
C1014 C 0.82698 0.9129 0.93876 0.0
C1015 C 0.82285 0.93705 0.95477 0.0
C1016 C 0.84146 0.94611 1.00817 0.0
H1017 H 0.86156 0.02864 0.05571 0.0
H1018 H 0.86215 1.0111 0.02604 0.0
H1019 H 0.84448 0.95236 0.04041 0.0
H1020 H 0.84786 0.90695 0.9537 0.0
H1021 H 0.85595 0.92957 0.98049 0.0
H1022 H 0.83867 0.97314 0.96937 0.0
C1023 C 0.85372 1.00385 0.03968 0.0
C1024 C 0.84318 0.95707 0.025 0.0
C1025 C 0.85353 0.01392 0.05677 0.0
C1026 C 0.84085 0.91535 0.95364 0.0
C1027 C 0.84538 0.92824 0.96913 0.0
C1028 C 0.83989 0.96842 0.9848 0.0
C1029 C 0.84327 0.98467 0.04027 0.0
C1030 C 0.84298 0.97374 1.02205 0.0
C1031 C 0.83616 0.93903 0.97017 0.0
C1032 C 0.83953 0.95149 0.98784 0.0
H1033 H 0.82423 0.97851 0.08904 0.0
H1034 H 0.82428 0.96116 0.05939 0.0
H1035 H 0.84131 0.99209 0.99879 0.0
H1036 H 0.80756 0.92269 0.92812 0.0
H1037 H 0.81529 0.94494 0.95512 0.0
C1038 C 0.0449 0.84695 0.07663 0.0
C1039 C 0.02572 0.83404 0.07341 0.0
C1040 C 0.056 0.85894 0.06058 0.0
C1041 C 0.0608 0.86359 1.00403 0.0
H1042 H 0.09361 0.91482 1.01424 0.0
C1043 C 0.1088 0.91321 0.93871 0.0
C1044 C 0.12722 0.92656 0.94416 0.0
C1045 C 0.09515 0.90286 0.95405 0.0
C1046 C 0.08473 0.90052 1.01113 0.0
H1047 H 1.00315 0.82361 0.0508 0.0
H1048 H 1.02269 0.84445 1.02253 0.0
H1049 H 0.07231 0.89489 0.04178 0.0
H1050 H 0.14561 0.93968 0.97008 0.0
H1051 H 0.12213 0.92137 0.99674 0.0
H1052 H 0.07363 0.86894 0.97371 0.0
C1053 C 0.02906 0.8453 0.03757 0.0
C1054 C 0.07244 0.88912 0.02693 0.0
C1055 C 1.01785 0.83347 0.05376 0.0
C1056 C 0.13153 0.92959 0.96532 0.0
C1057 C 0.11796 0.91911 0.98065 0.0
C1058 C 0.07326 0.87494 0.9883 0.0
C1059 C 0.04827 0.85817 0.04082 0.0
C1060 C 0.06046 0.87049 1.02362 0.0
C1061 C 0.09962 0.90544 0.97526 0.0
C1062 C 0.08555 0.89356 0.99167 0.0
H1063 H 0.05131 0.84788 0.09165 0.0
H1064 H 0.07079 0.86859 0.06353 0.0
H1065 H 0.05189 0.84926 1.00109 0.0
H1066 H 0.10496 0.91061 0.92256 0.0
H1067 H 0.0811 0.89276 0.94923 0.0
C1068 C 0.11251 0.18552 0.9633 0.0
C1069 C 0.1014 0.17209 0.94912 0.0
C1070 C 0.12081 0.18131 0.98022 0.0
C1071 C 0.1396 0.15233 1.0002 0.0
H1072 H 0.12723 0.16368 0.0543 0.0
C1073 C 0.17625 0.14444 0.0751 0.0
C1074 C 0.18212 0.15898 0.08877 0.0
C1075 C 0.16364 0.14253 0.0589 0.0
C1076 C 0.13104 0.16056 0.03935 0.0
H1077 H 0.09094 0.14383 0.94128 0.0
H1078 H 0.10616 0.13667 0.97062 0.0
H1079 H 0.11205 0.16808 1.02352 0.0
H1080 H 0.17852 0.18225 0.09679 0.0
H1081 H 0.15712 0.17919 0.06888 0.0
H1082 H 0.15944 0.14581 1.0158 0.0
C1083 C 0.10811 0.15037 0.96866 0.0
C1084 C 0.12222 0.163 1.02172 0.0
C1085 C 0.09941 0.15449 0.9519 0.0
C1086 C 0.17431 0.17087 0.08658 0.0
C1087 C 0.16184 0.16902 0.07052 0.0
C1088 C 0.14875 0.15019 1.01786 0.0
C1089 C 0.11857 0.16367 0.98321 0.0
C1090 C 0.12667 0.15927 1.00192 0.0
C1091 C 0.15659 0.15509 0.0561 0.0
C1092 C 0.14494 0.15471 0.03766 0.0
H1093 H 0.11428 0.19919 0.96176 0.0
H1094 H 0.12892 0.19185 0.99112 0.0
H1095 H 0.14328 0.14936 0.9851 0.0
H1096 H 0.18215 0.13513 0.07625 0.0
H1097 H 0.15976 0.13148 0.0483 0.0
C1098 C 0.93357 0.84271 0.58442 0.0
C1099 C 0.93007 0.829 0.59955 0.0
C1100 C 0.94756 0.84702 0.5688 0.0
C1101 C 0.97441 0.82755 0.541 0.0
H1102 H 1.00748 0.87763 0.52315 0.0
C1103 C 0.03617 0.84789 0.47961 0.0
C1104 C 0.03956 0.86238 0.46569 0.0
C1105 C 1.0232 0.84353 0.49642 0.0
C1106 C 0.99822 0.86352 0.5277 0.0
H1107 H 0.93895 0.80935 0.61016 0.0
H1108 H 0.96321 0.81688 0.58311 0.0
H1109 H 0.98432 0.87101 0.5512 0.0
H1110 H 0.03141 0.88324 0.45831 0.0
H1111 H 1.00882 0.87546 0.4869 0.0
H1112 H 0.98812 0.82003 0.51729 0.0
C1113 C 0.95503 0.82419 0.58315 0.0
C1114 C 0.98491 0.85974 0.54388 0.0
C1115 C 0.94117 0.81997 0.59881 0.0
C1116 C 0.0294 0.87211 0.46879 0.0
C1117 C 1.01646 0.86772 0.48539 0.0
C1118 C 0.98766 0.83133 0.52471 0.0
C1119 C 0.95833 0.83765 0.5678 0.0
C1120 C 0.97274 0.8417 0.55071 0.0
C1121 C 1.01328 0.85352 0.49965 0.0
C1122 C 0.99968 0.84937 0.51768 0.0
H1123 H 0.92527 0.8499 0.58442 0.0
H1124 H 0.94959 0.85738 0.55716 0.0
H1125 H 0.96514 0.81347 0.54567 0.0
H1126 H 0.04376 0.84014 0.47774 0.0
H1127 H 1.02126 0.83256 0.50711 0.0
C1128 C 0.19933 0.19396 0.48864 0.0
C1129 C 0.20176 0.18811 0.46912 0.0
C1130 C 0.20061 0.18517 0.50688 0.0
C1131 C 0.19447 0.14161 0.52743 0.0
H1132 H 0.22987 0.16949 0.57016 0.0
C1133 C 0.21494 0.10661 0.59334 0.0
C1134 C 0.2203 0.11491 0.61267 0.0
C1135 C 0.21106 0.11537 0.57675 0.0
C1136 C 0.21959 0.16146 0.55866 0.0
H1137 H 0.20704 0.16827 0.45334 0.0
H1138 H 0.20886 0.15263 0.48519 0.0
H1139 H 0.2261 0.18519 0.53959 0.0
H1140 H 0.22495 0.13857 0.63 0.0
H1141 H 0.21732 0.15352 0.60136 0.0
H1142 H 0.1875 0.11793 0.54648 0.0
C1143 C 0.20617 0.16414 0.48637 0.0
C1144 C 0.21755 0.17051 0.54106 0.0
C1145 C 0.20529 0.17317 0.46818 0.0
C1146 C 0.22098 0.13187 0.61526 0.0
C1147 C 0.21677 0.14051 0.59873 0.0
C1148 C 0.19622 0.13259 0.54518 0.0
C1149 C 0.20392 0.1701 0.50589 0.0
C1150 C 0.2052 0.16064 0.52514 0.0
C1151 C 0.21209 0.13255 0.5791 0.0
C1152 C 0.20906 0.14233 0.56092 0.0
H1153 H 0.1967 0.2055 0.48979 0.0
H1154 H 0.19878 0.18999 0.52174 0.0
H1155 H 0.18465 0.13371 0.51548 0.0
H1156 H 0.21445 0.09362 0.59073 0.0
H1157 H 0.20788 0.10886 0.56188 0.0
C1158 C 0.95932 0.10053 0.59368 0.0
C1159 C 0.94995 0.11007 0.60083 0.0
C1160 C 0.95167 0.08812 0.57764 0.0
C1161 C 0.91869 0.07687 0.5333 0.0
H1162 H 0.92194 0.03197 0.5334 0.0
C1163 C 0.88072 0.02211 0.47186 0.0
C1164 C 0.88998 1.01261 0.46424 0.0
C1165 C 0.88817 0.03385 0.48849 0.0
C1166 C 0.92113 0.04456 0.53296 0.0
H1167 H 0.92483 0.11361 0.5969 0.0
H1168 H 0.91138 0.09184 0.56909 0.0
H1169 H 0.93396 0.05208 0.56283 0.0
H1170 H 0.91458 1.00828 0.46831 0.0
H1171 H 0.9278 0.02903 0.49711 0.0
H1172 H 0.90595 0.06945 0.50344 0.0
C1173 C 0.92483 0.09415 0.57572 0.0
C1174 C 0.928 0.0561 0.54991 0.0
C1175 C 0.93246 0.10654 0.59182 0.0
C1176 C 0.90709 0.0154 0.47363 0.0
C1177 C 0.91456 0.02717 0.49033 0.0
C1178 C 0.91185 0.06536 0.51637 0.0
C1179 C 0.93444 0.08492 0.56823 0.0
C1180 C 0.92684 0.07241 0.55034 0.0
C1181 C 0.90517 0.03654 0.49803 0.0
C1182 C 0.91291 0.049 0.51595 0.0
H1183 H 0.97283 0.1029 0.60017 0.0
H1184 H 0.9596 0.08145 0.5722 0.0
H1185 H 0.91789 0.08946 0.53284 0.0
H1186 H 0.86769 0.02059 0.46493 0.0
H1187 H 0.88039 0.04061 0.49405 0.0
C1188 C 0.88228 0.37206 0.28127 0.0
C1189 C 0.86992 0.35407 0.2881 0.0
C1190 C 0.88419 0.38684 0.29271 0.0
C1191 C 0.86145 0.39948 0.33574 0.0
H1192 H 0.91175 0.44172 0.33835 0.0
C1193 C 0.88262 0.45311 0.39893 0.0
C1194 C 0.89273 0.47165 0.39285 0.0
C1195 C 0.87907 0.43953 0.38474 0.0
C1196 C 0.89757 0.43013 0.33755 0.0
H1197 H 0.84973 0.33747 0.3122 0.0
H1198 H 0.85342 0.36321 0.33267 0.0
H1199 H 0.90704 0.41631 0.31685 0.0
H1200 H 0.90679 0.49048 0.36709 0.0
H1201 H 0.90101 0.46653 0.34209 0.0
H1202 H 0.85228 0.41312 0.35719 0.0
C1203 C 0.86136 0.36599 0.31817 0.0
C1204 C 0.89481 0.41552 0.32517 0.0
C1205 C 0.85926 0.35119 0.30652 0.0
C1206 C 0.89908 0.4763 0.37214 0.0
C1207 C 0.89581 0.46263 0.35793 0.0
C1208 C 0.86429 0.41398 0.34831 0.0
C1209 C 0.87395 0.38406 0.31149 0.0
C1210 C 0.87673 0.3999 0.32419 0.0
C1211 C 0.88572 0.44409 0.36412 0.0
C1212 C 0.88241 0.4294 0.34948 0.0
H1213 H 0.89039 0.37473 0.26691 0.0
H1214 H 0.89364 0.40047 0.28672 0.0
H1215 H 0.84723 0.38794 0.33508 0.0
H1216 H 0.87722 0.44907 0.41468 0.0
H1217 H 0.87139 0.4254 0.39002 0.0
C1218 C 0.5828 0.41722 0.41516 0.0
C1219 C 0.58143 0.42629 0.43269 0.0
C1220 C 0.59766 0.42622 0.4006 0.0
C1221 C 0.64573 0.46538 0.39256 0.0
H1222 H 0.63112 0.46236 0.33481 0.0
C1223 C 0.70068 0.49586 0.3243 0.0
C1224 C 0.69691 0.50616 0.30927 0.0
C1225 C 0.687 0.48563 0.33963 0.0
C1226 C 0.63541 0.46335 0.35087 0.0
H1227 H 0.59504 0.45169 0.44908 0.0
H1228 H 0.6211 0.46731 0.42374 0.0
H1229 H 0.60686 0.44515 0.3615 0.0
H1230 H 0.67575 0.51359 0.29835 0.0
H1231 H 0.65179 0.49562 0.32503 0.0
H1232 H 0.67428 0.4837 0.38189 0.0
C1233 C 0.61063 0.45326 0.42126 0.0
C1234 C 0.62156 0.45337 0.36612 0.0
C1235 C 0.59566 0.44433 0.43573 0.0
C1236 C 0.67911 0.50591 0.30981 0.0
C1237 C 0.66535 0.4955 0.32497 0.0
C1238 C 0.65963 0.47519 0.37726 0.0
C1239 C 0.61159 0.44441 0.40335 0.0
C1240 C 0.62654 0.45438 0.38715 0.0
C1241 C 0.66917 0.4853 0.34008 0.0
C1242 C 0.65458 0.47441 0.35628 0.0
H1243 H 0.57209 0.40332 0.41234 0.0
H1244 H 0.59815 0.41899 0.38705 0.0
H1245 H 0.64999 0.46634 0.40863 0.0
H1246 H 0.71433 0.49592 0.3244 0.0
H1247 H 0.6903 0.47782 0.35101 0.0
C1248 C 0.58478 0.14262 0.42623 0.0
C1249 C 0.60149 0.1579 0.43269 0.0
C1250 C 0.57339 0.14435 0.41077 0.0
C1251 C 0.56317 0.17779 0.38185 0.0
H1252 H 0.5438 0.14026 0.34068 0.0
C1253 C 0.52735 0.18406 0.30555 0.0
C1254 C 0.51163 0.16815 0.29851 0.0
C1255 C 0.53802 0.18329 0.32248 0.0
C1256 C 0.54886 0.15076 0.35217 0.0
H1257 H 0.61896 0.18714 0.42823 0.0
H1258 H 0.59915 0.19014 0.40114 0.0
H1259 H 0.56256 0.13808 0.36926 0.0
H1260 H 0.49444 0.13906 0.3045 0.0
H1261 H 0.51291 0.13773 0.33384 0.0
H1262 H 0.54948 0.1905 0.36459 0.0
C1263 C 0.59476 0.17681 0.40818 0.0
C1264 C 0.55965 0.1495 0.36861 0.0
C1265 C 0.60617 0.17508 0.4237 0.0
C1266 C 0.50666 0.15154 0.30913 0.0
C1267 C 0.5173 0.15077 0.32601 0.0
C1268 C 0.55235 0.17905 0.36536 0.0
C1269 C 0.57838 0.16141 0.40126 0.0
C1270 C 0.56689 0.16293 0.38375 0.0
C1271 C 0.53325 0.16659 0.33281 0.0
C1272 C 0.54497 0.1655 0.35033 0.0
H1273 H 0.58063 0.12919 0.43287 0.0
H1274 H 0.56069 0.13224 0.40616 0.0
H1275 H 0.56835 0.1883 0.39331 0.0
H1276 H 0.53172 0.19707 0.29768 0.0
H1277 H 0.55032 0.19573 0.32713 0.0
C1278 C 0.67954 0.51628 0.91208 0.0
C1279 C 0.68748 0.51822 0.93189 0.0
C1280 C 0.69079 0.51892 0.89422 0.0
C1281 C 0.7421 0.5389 0.87698 0.0
H1282 H 0.72026 0.51147 0.82741 0.0
C1283 C 0.7884 0.53573 0.81007 0.0
C1284 C 0.78516 0.54134 0.79042 0.0
C1285 C 0.77553 0.53221 0.82654 0.0
C1286 C 0.72648 0.51927 0.84114 0.0
H1287 H 0.71313 0.52368 0.94862 0.0
H1288 H 0.73251 0.5275 0.9178 0.0
H1289 H 0.69978 0.5066 0.85789 0.0
H1290 H 0.76537 0.54684 0.77246 0.0
H1291 H 0.7425 0.54012 0.80128 0.0
H1292 H 0.76891 0.55099 0.8604 0.0
C1293 C 0.71788 0.52474 0.91577 0.0
C1294 C 0.71476 0.51659 0.8586 0.0
C1295 C 0.70674 0.52245 0.93353 0.0
C1296 C 0.76829 0.54258 0.78741 0.0
C1297 C 0.75519 0.53871 0.80385 0.0
C1298 C 0.75382 0.54129 0.85972 0.0
C1299 C 0.71018 0.52325 0.89579 0.0
C1300 C 0.72243 0.5263 0.87686 0.0
C1301 C 0.75893 0.53388 0.82368 0.0
C1302 C 0.74616 0.53146 0.84167 0.0
H1303 H 0.66474 0.51312 0.91041 0.0
H1304 H 0.68434 0.51789 0.87921 0.0
H1305 H 0.74854 0.54707 0.89039 0.0
H1306 H 0.80124 0.53466 0.81298 0.0
H1307 H 0.77866 0.52838 0.84164 0.0
C1308 C 0.50597 0.26357 0.79276 0.0
C1309 C 0.52257 0.27904 0.7854 0.0
C1310 C 0.50719 0.25127 0.807 0.0
C1311 C 0.53995 0.24791 0.84581 0.0
H1312 H 0.50422 0.19621 0.84461 0.0
C1313 C 0.54718 0.19458 0.89872 0.0
C1314 C 0.53037 0.18103 0.90852 0.0
C1315 C 0.54636 0.20632 0.88339 0.0
C1316 C 0.5142 0.21063 0.84525 0.0
H1317 H 0.55353 0.29337 0.78682 0.0
H1318 H 0.55571 0.27168 0.8112 0.0
H1319 H 0.50289 0.21675 0.81791 0.0
H1320 H 0.49945 0.16951 0.90965 0.0
H1321 H 0.49807 0.18979 0.88272 0.0
H1322 H 0.55138 0.24169 0.87304 0.0
C1323 C 0.54168 0.26926 0.80638 0.0
C1324 C 0.51343 0.22245 0.82995 0.0
C1325 C 0.54045 0.28165 0.79224 0.0
C1326 C 0.5127 0.17954 0.90237 0.0
C1327 C 0.51189 0.1912 0.8869 0.0
C1328 C 0.54082 0.23607 0.861 0.0
C1329 C 0.52504 0.25401 0.81417 0.0
C1330 C 0.52624 0.24128 0.83007 0.0
C1331 C 0.52872 0.20477 0.87727 0.0
C1332 C 0.5279 0.21731 0.86096 0.0
H1333 H 0.49194 0.26116 0.78793 0.0
H1334 H 0.49403 0.23987 0.81282 0.0
H1335 H 0.54982 0.26234 0.84671 0.0
H1336 H 0.56105 0.19605 0.90261 0.0
H1337 H 0.55957 0.21646 0.87607 0.0
C1338 C 0.85958 0.33812 0.91503 0.0
C1339 C 0.86592 0.33509 0.93432 0.0
C1340 C 0.84733 0.3234 0.903 0.0
C1341 C 0.8127 0.2741 0.90584 0.0
H1342 H 0.82521 0.27553 0.84744 0.0
C1343 C 0.7733 0.21115 0.85341 0.0
C1344 C 0.77056 0.21461 0.83261 0.0
C1345 C 0.78449 0.22563 0.86638 0.0
C1346 C 0.82126 0.27494 0.86364 0.0
H1347 H 0.86371 0.31418 0.95645 0.0
H1348 H 0.84239 0.28859 0.93556 0.0
H1349 H 0.84485 0.30139 0.86872 0.0
H1350 H 0.77626 0.23594 0.80952 0.0
H1351 H 0.79521 0.26096 0.83196 0.0
H1352 H 0.78893 0.24775 0.90074 0.0
C1353 C 0.84694 0.30232 0.92965 0.0
C1354 C 0.8326 0.28982 0.87586 0.0
C1355 C 0.85933 0.31701 0.94153 0.0
C1356 C 0.77863 0.23279 0.82528 0.0
C1357 C 0.78955 0.24718 0.8382 0.0
C1358 C 0.80121 0.25925 0.89356 0.0
C1359 C 0.84093 0.30531 0.91014 0.0
C1360 C 0.82848 0.2896 0.89711 0.0
C1361 C 0.79293 0.24387 0.85887 0.0
C1362 C 0.8053 0.25947 0.87225 0.0
H1363 H 0.86443 0.35187 0.90905 0.0
H1364 H 0.84283 0.32616 0.88811 0.0
H1365 H 0.80906 0.27355 0.92215 0.0
H1366 H 0.76712 0.19726 0.85944 0.0
H1367 H 0.78681 0.22248 0.88216 0.0
C1368 C 0.50823 0.34305 0.38224 0.0
C1369 C 0.50454 0.33548 0.40249 0.0
C1370 C 0.50761 0.3325 0.36528 0.0
C1371 C 0.49032 0.28353 0.35128 0.0
H1372 H 0.52017 0.30537 0.30094 0.0
C1373 C 0.49932 0.24117 0.28658 0.0
C1374 C 0.49259 0.2433 0.26708 0.0
C1375 C 0.50208 0.25336 0.30242 0.0
C1376 C 0.51174 0.29913 0.31492 0.0
H1377 H 0.49832 0.31134 0.42103 0.0
H1378 H 0.49835 0.29331 0.39197 0.0
H1379 H 0.5228 0.32465 0.33008 0.0
H1380 H 0.48436 0.26044 0.24871 0.0
H1381 H 0.48992 0.28218 0.27627 0.0
H1382 H 0.47994 0.25794 0.33626 0.0
C1383 C 0.50074 0.30702 0.38872 0.0
C1384 C 0.51311 0.31018 0.33164 0.0
C1385 C 0.50089 0.3174 0.40553 0.0
C1386 C 0.48956 0.25842 0.26353 0.0
C1387 C 0.49276 0.27088 0.27927 0.0
C1388 C 0.48934 0.27251 0.33479 0.0
C1389 C 0.50371 0.31422 0.36821 0.0
C1390 C 0.5024 0.30256 0.35015 0.0
C1391 C 0.49862 0.26821 0.29902 0.0
C1392 C 0.5 0.28016 0.31644 0.0
H1393 H 0.51099 0.35694 0.3795 0.0
H1394 H 0.50973 0.33862 0.34985 0.0
H1395 H 0.48133 0.27702 0.3648 0.0
H1396 H 0.50169 0.22962 0.28992 0.0
H1397 H 0.50667 0.25103 0.31748 0.0
C1398 C 0.78987 0.25114 0.29236 0.0
C1399 C 0.78908 0.26674 0.28494 0.0
C1400 C 0.77688 0.23956 0.30752 0.0
C1401 C 0.72984 0.22605 0.33262 0.0
H1402 H 0.75016 0.20814 0.37665 0.0
C1403 C 0.68464 0.18469 0.40525 0.0
C1404 C 0.6878 0.17048 0.41303 0.0
C1405 C 0.6963 0.19652 0.38926 0.0
C1406 C 0.74415 0.2128 0.36436 0.0
H1407 H 0.77359 0.28212 0.28744 0.0
H1408 H 0.75087 0.26185 0.31402 0.0
H1409 H 0.77152 0.22845 0.34955 0.0
H1410 H 0.70519 0.1571 0.40929 0.0
H1411 H 0.72529 0.17745 0.38148 0.0
H1412 H 0.70239 0.21026 0.34748 0.0
C1413 C 0.76156 0.25857 0.30797 0.0
C1414 C 0.75644 0.22449 0.34878 0.0
C1415 C 0.77463 0.27023 0.29279 0.0
C1416 C 0.70258 0.16811 0.40404 0.0
C1417 C 0.71416 0.17984 0.38806 0.0
C1418 C 0.71748 0.21426 0.34822 0.0
C1419 C 0.76268 0.2432 0.31573 0.0
C1420 C 0.74946 0.23116 0.3326 0.0
C1421 C 0.71138 0.19437 0.38061 0.0
C1422 C 0.72445 0.20734 0.36421 0.0
H1423 H 0.8007 0.24791 0.28663 0.0
H1424 H 0.77797 0.22768 0.31282 0.0
H1425 H 0.72394 0.23081 0.32031 0.0
H1426 H 0.6735 0.18702 0.41191 0.0
H1427 H 0.69381 0.20763 0.38406 0.0
C1428 C 0.84237 0.46449 0.42238 0.0
C1429 C 0.83438 0.46546 0.44151 0.0
C1430 C 0.83411 0.46572 0.40365 0.0
C1431 C 0.80124 0.48285 0.38393 0.0
H1432 H 0.80975 0.46601 0.33133 0.0
C1433 C 0.77053 0.49446 0.30754 0.0
C1434 C 0.7842 0.50351 0.2916 0.0
C1435 C 0.77502 0.48703 0.32498 0.0
C1436 C 0.80728 0.47078 0.34594 0.0
H1437 H 0.81031 0.46645 0.45598 0.0
H1438 H 0.79507 0.46715 0.42353 0.0
H1439 H 0.81925 0.45672 0.36355 0.0
H1440 H 0.81301 0.511 0.28111 0.0
H1441 H 0.82067 0.49758 0.31145 0.0
H1442 H 0.78896 0.49661 0.36625 0.0
C1443 C 0.80837 0.46659 0.4228 0.0
C1444 C 0.81281 0.46555 0.36446 0.0
C1445 C 0.81693 0.46587 0.4415 0.0
C1446 C 0.80217 0.50415 0.2931 0.0
C1447 C 0.80654 0.49642 0.31043 0.0
C1448 C 0.7954 0.48775 0.36551 0.0
C1449 C 0.81732 0.46746 0.40355 0.0
C1450 C 0.81008 0.47168 0.38377 0.0
C1451 C 0.79316 0.48816 0.32678 0.0
C1452 C 0.79852 0.48195 0.34629 0.0
H1453 H 0.85579 0.46416 0.42181 0.0
H1454 H 0.84162 0.4664 0.38934 0.0
H1455 H 0.79931 0.48839 0.39822 0.0
H1456 H 0.75657 0.49373 0.30696 0.0
H1457 H 0.76439 0.48064 0.33728 0.0
C1458 C 0.63327 0.17771 0.93531 0.0
C1459 C 0.61538 0.17716 0.93367 0.0
C1460 C 0.64689 0.18513 0.91909 0.0
C1461 C 0.65765 0.21191 0.86818 0.0
H1462 H 0.68934 0.18905 0.85828 0.0
C1463 C 0.69321 0.21286 0.78887 0.0
C1464 C 0.71188 0.21503 0.78883 0.0
C1465 C 0.68367 0.21189 0.80756 0.0
C1466 C 0.68079 0.19576 0.86098 0.0
H1467 H 0.59792 0.18424 0.91365 0.0
H1468 H 0.6211 0.19639 0.88522 0.0
H1469 H 0.66831 0.17986 0.8887 0.0
H1470 H 0.73553 0.21896 0.80853 0.0
H1471 H 0.71867 0.2168 0.84119 0.0
H1472 H 0.66951 0.22702 0.83962 0.0
C1473 C 0.62507 0.19169 0.89921 0.0
C1474 C 0.6687 0.19054 0.87855 0.0
C1475 C 0.61162 0.18458 0.91558 0.0
C1476 C 0.72119 0.21731 0.80794 0.0
C1477 C 0.71147 0.21592 0.82669 0.0
C1478 C 0.66949 0.21686 0.8504 0.0
C1479 C 0.64288 0.19191 0.90055 0.0
C1480 C 0.65675 0.19838 0.8824 0.0
C1481 C 0.69242 0.21274 0.82672 0.0
C1482 C 0.6811 0.20875 0.8465 0.0
H1483 H 0.63671 0.17221 0.94907 0.0
H1484 H 0.66053 0.1854 0.92112 0.0
H1485 H 0.64913 0.21867 0.87066 0.0
H1486 H 0.68561 0.211 0.77445 0.0
H1487 H 0.669 0.20939 0.80703 0.0
C1488 C 0.8901 0.43931 0.92648 0.0
C1489 C 0.87379 0.42325 0.93322 0.0
C1490 C 0.88868 0.45108 0.91163 0.0
C1491 C 0.85418 0.46341 0.88676 0.0
H1492 H 0.89417 0.48575 0.84457 0.0
C1493 C 0.84885 0.50529 0.8162 0.0
C1494 C 0.86559 0.52119 0.80995 0.0
C1495 C 0.84948 0.49324 0.8313 0.0
C1496 C 0.88298 0.4798 0.85637 0.0
H1497 H 0.84312 0.40712 0.92961 0.0
H1498 H 0.84068 0.42758 0.90351 0.0
H1499 H 0.89583 0.46498 0.87063 0.0
H1500 H 0.89606 0.53693 0.81526 0.0
H1501 H 0.89715 0.51598 0.84143 0.0
H1502 H 0.84133 0.47825 0.8724 0.0
C1503 C 0.85456 0.43117 0.90992 0.0
C1504 C 0.88393 0.46787 0.87135 0.0
C1505 C 0.85598 0.41937 0.92483 0.0
C1506 C 0.88294 0.52472 0.81934 0.0
C1507 C 0.88356 0.51267 0.8344 0.0
C1508 C 0.85322 0.47535 0.87174 0.0
C1509 C 0.87092 0.44713 0.90303 0.0
C1510 C 0.86961 0.45958 0.88683 0.0
C1511 C 0.86686 0.49673 0.84054 0.0
C1512 C 0.86766 0.48378 0.8564 0.0
H1513 H 0.90405 0.44282 0.93265 0.0
H1514 H 0.90154 0.46338 0.907 0.0
H1515 H 0.84302 0.45748 0.89858 0.0
H1516 H 0.83528 0.50193 0.80917 0.0
H1517 H 0.83638 0.48099 0.83543 0.0
C1518 C 0.60464 0.44056 0.93874 0.0
C1519 C 0.59397 0.43855 0.95697 0.0
C1520 C 0.59679 0.42835 0.92263 0.0
C1521 C 0.54979 0.39441 0.90208 0.0
H1522 H 0.58215 0.38501 0.8646 0.0
C1523 C 0.52119 0.34771 0.83059 0.0
C1524 C 0.53067 0.35631 0.81189 0.0
C1525 C 0.52859 0.35567 0.84967 0.0
C1526 C 0.57294 0.38749 0.87497 0.0
H1527 H 0.56694 0.4216 0.9729 0.0
H1528 H 0.55346 0.39985 0.94512 0.0
H1529 H 0.59568 0.40203 0.89593 0.0
H1530 H 0.55562 0.37955 0.79848 0.0
H1531 H 0.56873 0.39323 0.8317 0.0
H1532 H 0.52703 0.37962 0.88101 0.0
C1533 C 0.56772 0.41121 0.94297 0.0
C1534 C 0.5807 0.39736 0.89289 0.0
C1535 C 0.5755 0.4236 0.95901 0.0
C1536 C 0.54792 0.37273 0.81264 0.0
C1537 C 0.5555 0.38047 0.83165 0.0
C1538 C 0.54197 0.38428 0.88431 0.0
C1539 C 0.57812 0.41358 0.92438 0.0
C1540 C 0.56936 0.40136 0.90647 0.0
C1541 C 0.54583 0.37214 0.85035 0.0
C1542 C 0.55357 0.38107 0.87035 0.0
H1543 H 0.61885 0.452 0.93654 0.0
H1544 H 0.60519 0.43093 0.9085 0.0
H1545 H 0.54061 0.39737 0.91191 0.0
H1546 H 0.50784 0.33509 0.8304 0.0
H1547 H 0.52089 0.34895 0.86387 0.0
C1548 C 0.56438 0.70767 0.61461 0.0
C1549 C 0.54676 0.69148 0.61437 0.0
C1550 C 0.56664 0.7224 0.62647 0.0
C1551 C 0.54515 0.7339 0.67122 0.0
H1552 H 0.57717 0.78364 0.65119 0.0
C1553 C 0.54965 0.79468 0.71595 0.0
C1554 C 0.56795 0.80952 0.7188 0.0
C1555 C 0.54685 0.78113 0.70193 0.0
C1556 C 0.56831 0.76984 0.65708 0.0
H1557 H 0.51766 0.6784 0.62656 0.0
H1558 H 0.52146 0.70418 0.64679 0.0
H1559 H 0.5724 0.75831 0.62939 0.0
H1560 H 0.59752 0.82211 0.70834 0.0
H1561 H 0.59264 0.79841 0.68368 0.0
H1562 H 0.54102 0.74541 0.69887 0.0
C1563 C 0.53367 0.70537 0.63803 0.0
C1564 C 0.56557 0.75527 0.64459 0.0
C1565 C 0.53141 0.69059 0.62619 0.0
C1566 C 0.58324 0.81093 0.70644 0.0
C1567 C 0.58043 0.79731 0.69234 0.0
C1568 C 0.54781 0.74844 0.68364 0.0
C1569 C 0.55136 0.72147 0.63842 0.0
C1570 C 0.55398 0.73707 0.6515 0.0
C1571 C 0.56227 0.78201 0.69028 0.0
C1572 C 0.55942 0.76662 0.67677 0.0
H1573 H 0.57651 0.70911 0.60555 0.0
H1574 H 0.58054 0.73443 0.62651 0.0
H1575 H 0.53644 0.72014 0.67731 0.0
H1576 H 0.53747 0.79337 0.72486 0.0
H1577 H 0.53258 0.76981 0.70039 0.0
C1578 C 0.34398 0.83731 0.64791 0.0
C1579 C 0.3567 0.83212 0.63887 0.0
C1580 C 0.3318 0.82702 0.66432 0.0
C1581 C 0.32398 0.79178 0.70496 0.0
H1582 H 0.272 0.78438 0.70442 0.0
C1583 C 0.26321 0.73978 0.75974 0.0
C1584 C 0.25029 0.74517 0.76782 0.0
C1585 C 0.27712 0.75076 0.74491 0.0
C1586 C 0.28653 0.78649 0.70497 0.0
H1587 H 0.36665 0.81204 0.64016 0.0
H1588 H 0.34527 0.79396 0.66871 0.0
H1589 H 0.29437 0.80264 0.67686 0.0
H1590 H 0.24231 0.76669 0.76713 0.0
H1591 H 0.26656 0.78582 0.74148 0.0
H1592 H 0.31594 0.77538 0.73305 0.0
C1593 C 0.34491 0.80617 0.66329 0.0
C1594 C 0.29938 0.79698 0.68915 0.0
C1595 C 0.35717 0.81653 0.64689 0.0
C1596 C 0.25194 0.76203 0.76116 0.0
C1597 C 0.26578 0.77297 0.74634 0.0
C1598 C 0.31106 0.7812 0.7208 0.0
C1599 C 0.33194 0.8112 0.67209 0.0
C1600 C 0.31831 0.79985 0.68897 0.0
C1601 C 0.27835 0.76736 0.7378 0.0
C1602 C 0.2922 0.77851 0.72103 0.0
H1603 H 0.3435 0.84943 0.64241 0.0
H1604 H 0.32232 0.83154 0.67099 0.0
H1605 H 0.3385 0.79386 0.70545 0.0
H1606 H 0.26234 0.72687 0.76451 0.0
H1607 H 0.2865 0.74599 0.73855 0.0
C1608 C 0.17593 0.49955 0.6498 0.0
C1609 C 0.18148 0.49923 0.62918 0.0
C1610 C 0.18584 0.49686 0.66629 0.0
C1611 C 0.22066 0.47955 0.67737 0.0
H1612 H 0.22551 0.50283 0.73005 0.0
C1613 C 0.27297 0.48198 0.74041 0.0
C1614 C 0.26434 0.47413 0.75972 0.0
C1615 C 0.26282 0.48586 0.72523 0.0
C1616 C 0.22418 0.49622 0.71541 0.0
H1617 H 0.20217 0.49672 0.60957 0.0
H1618 H 0.22003 0.49293 0.63807 0.0
H1619 H 0.20817 0.50826 0.70185 0.0
H1620 H 0.23858 0.46496 0.77858 0.0
H1621 H 0.22102 0.47232 0.75211 0.0
H1622 H 0.23735 0.46814 0.69081 0.0
C1623 C 0.20754 0.49438 0.64175 0.0
C1624 C 0.21414 0.4992 0.69926 0.0
C1625 C 0.19739 0.49667 0.62534 0.0
C1626 C 0.24559 0.47095 0.76383 0.0
C1627 C 0.23557 0.47521 0.74875 0.0
C1628 C 0.231 0.47691 0.69333 0.0
C1629 C 0.20178 0.49416 0.6625 0.0
C1630 C 0.21227 0.49093 0.67995 0.0
C1631 C 0.24398 0.48234 0.72918 0.0
C1632 C 0.23287 0.48522 0.71247 0.0
H1633 H 0.16361 0.5014 0.65312 0.0
H1634 H 0.18072 0.49653 0.68196 0.0
H1635 H 0.21915 0.47249 0.66306 0.0
H1636 H 0.28736 0.48455 0.73671 0.0
H1637 H 0.26962 0.49144 0.71028 0.0
C1638 C 0.47857 0.91788 0.14166 0.0
C1639 C 0.48552 0.9062 0.13489 0.0
C1640 C 0.4659 0.91297 0.15867 0.0
C1641 C 0.42986 0.87213 0.18785 0.0
H1642 H 0.42976 0.90802 0.22487 0.0
C1643 C 0.37343 0.85358 0.25506 0.0
C1644 C 0.36636 0.86595 0.25819 0.0
C1645 C 0.38885 0.85795 0.24127 0.0
C1646 C 0.42945 0.89782 0.21457 0.0
H1647 H 0.48508 0.88038 0.14146 0.0
H1648 H 0.4632 0.87194 0.17132 0.0
H1649 H 0.45575 0.91694 0.1996 0.0
H1650 H 0.3697 0.89237 0.24837 0.0
H1651 H 0.39632 0.8999 0.22462 0.0
H1652 H 0.40338 0.85306 0.20271 0.0
C1653 C 0.46737 0.88484 0.16325 0.0
C1654 C 0.44442 0.90295 0.20005 0.0
C1655 C 0.48014 0.88981 0.14625 0.0
C1656 C 0.37494 0.88263 0.24685 0.0
C1657 C 0.39031 0.88699 0.23316 0.0
C1658 C 0.41486 0.86698 0.20241 0.0
C1659 C 0.45975 0.89619 0.16943 0.0
C1660 C 0.4447 0.89027 0.18622 0.0
C1661 C 0.39763 0.87482 0.23027 0.0
C1662 C 0.41427 0.87984 0.21574 0.0
H1663 H 0.4823 0.93056 0.13328 0.0
H1664 H 0.46026 0.92202 0.16276 0.0
H1665 H 0.42942 0.862 0.17734 0.0
H1666 H 0.36735 0.84068 0.26359 0.0
H1667 H 0.39415 0.84826 0.23956 0.0
C1668 C 0.18559 0.60636 0.13425 0.0
C1669 C 0.17482 0.59629 0.11742 0.0
C1670 C 0.1914 0.59811 0.14968 0.0
C1671 C 0.19989 0.55966 0.16302 0.0
H1672 H 0.18449 0.56502 0.21845 0.0
C1673 C 0.20353 0.51783 0.23487 0.0
C1674 C 0.20692 0.52611 0.25421 0.0
C1675 C 0.20117 0.52664 0.2172 0.0
C1676 C 0.18929 0.56362 0.20318 0.0
H1677 H 0.16267 0.56995 0.103 0.0
H1678 H 0.17314 0.55562 0.12993 0.0
H1679 H 0.1785 0.58031 0.18919 0.0
H1680 H 0.21184 0.55044 0.27014 0.0
H1681 H 0.20865 0.56618 0.23942 0.0
H1682 H 0.21104 0.54323 0.17707 0.0
C1683 C 0.17692 0.56986 0.13116 0.0
C1684 C 0.18573 0.57235 0.18638 0.0
C1685 C 0.17088 0.57805 0.11581 0.0
C1686 C 0.20885 0.54365 0.25544 0.0
C1687 C 0.20688 0.55258 0.23782 0.0
C1688 C 0.20375 0.55111 0.17994 0.0
C1689 C 0.18679 0.57969 0.14851 0.0
C1690 C 0.191 0.5705 0.16615 0.0
C1691 C 0.20247 0.54403 0.21853 0.0
C1692 C 0.19853 0.55303 0.20029 0.0
H1693 H 0.18892 0.62044 0.13597 0.0
H1694 H 0.19916 0.60604 0.1628 0.0
H1695 H 0.20411 0.55804 0.14754 0.0
H1696 H 0.20195 0.50426 0.23362 0.0
H1697 H 0.19767 0.51953 0.2027 0.0
C1698 C 0.54377 0.7127 0.22541 0.0
C1699 C 0.55119 0.70666 0.2418 0.0
C1700 C 0.53342 0.70094 0.20962 0.0
C1701 C 0.50515 0.65208 0.19849 0.0
H1702 H 0.51341 0.66884 0.14089 0.0
C1703 C 0.47074 0.60244 0.13174 0.0
C1704 C 0.46362 0.60827 0.11489 0.0
C1705 C 0.48173 0.61465 0.14686 0.0
C1706 C 0.51075 0.66399 0.15691 0.0
H1707 H 0.5534 0.68343 0.25439 0.0
H1708 H 0.53555 0.66301 0.22677 0.0
H1709 H 0.53193 0.68977 0.16792 0.0
H1710 H 0.46252 0.63157 0.10079 0.0
H1711 H 0.48156 0.65286 0.12725 0.0
H1712 H 0.48388 0.62638 0.18761 0.0
C1713 C 0.53765 0.67682 0.22621 0.0
C1714 C 0.52139 0.67599 0.17241 0.0
C1715 C 0.54807 0.6886 0.24193 0.0
C1716 C 0.46795 0.62667 0.11342 0.0
C1717 C 0.4789 0.63889 0.1286 0.0
C1718 C 0.49447 0.64011 0.18303 0.0
C1719 C 0.53014 0.68282 0.20989 0.0
C1720 C 0.51876 0.67015 0.19337 0.0
C1721 C 0.48584 0.63301 0.14558 0.0
C1722 C 0.49716 0.64588 0.16203 0.0
H1723 H 0.54605 0.72655 0.22471 0.0
H1724 H 0.52772 0.70595 0.19736 0.0
H1725 H 0.50253 0.64723 0.21452 0.0
H1726 H 0.46799 0.58846 0.13315 0.0
H1727 H 0.48715 0.60971 0.15946 0.0
C1728 C 0.16017 0.57161 0.63223 0.0
C1729 C 0.16064 0.57697 0.6113 0.0
C1730 C 0.16337 0.58384 0.64809 0.0
C1731 C 0.16353 0.62749 0.65928 0.0
H1732 H 0.18826 0.62383 0.7096 0.0
C1733 C 0.18113 0.67693 0.72819 0.0
C1734 C 0.17528 0.66827 0.74785 0.0
C1735 C 0.18065 0.66694 0.71078 0.0
C1736 C 0.18128 0.62499 0.69566 0.0
H1737 H 0.16517 0.5996 0.59066 0.0
H1738 H 0.17127 0.62114 0.61832 0.0
H1739 H 0.18554 0.60467 0.6805 0.0
H1740 H 0.16485 0.64246 0.76472 0.0
H1741 H 0.16422 0.62513 0.7345 0.0
H1742 H 0.15952 0.64803 0.67459 0.0
C1743 C 0.16801 0.60732 0.62252 0.0
C1744 C 0.17962 0.61393 0.67897 0.0
C1745 C 0.16463 0.59499 0.60662 0.0
C1746 C 0.16924 0.64949 0.74977 0.0
C1747 C 0.16905 0.6396 0.73248 0.0
C1748 C 0.16541 0.63872 0.67593 0.0
C1749 C 0.16734 0.60189 0.64351 0.0
C1750 C 0.17039 0.61475 0.66067 0.0
C1751 C 0.17466 0.64817 0.71277 0.0
C1752 C 0.174 0.63736 0.69444 0.0
H1753 H 0.157 0.55781 0.63647 0.0
H1754 H 0.16231 0.57896 0.664 0.0
H1755 H 0.15614 0.62842 0.6456 0.0
H1756 H 0.18575 0.69136 0.72624 0.0
H1757 H 0.18513 0.67393 0.69579 0.0
C1758 C 0.38404 0.51348 0.73502 0.0
C1759 C 0.36487 0.50059 0.73191 0.0
C1760 C 0.39515 0.52537 0.71888 0.0
C1761 C 0.39209 0.54269 0.66527 0.0
H1762 H 0.44652 0.55843 0.66464 0.0
C1763 C 0.44444 0.57791 0.59457 0.0
C1764 C 0.46168 0.59358 0.59899 0.0
C1765 C 0.43167 0.56744 0.61061 0.0
C1766 C 0.43136 0.55425 0.66469 0.0
H1767 H 0.34227 0.49003 0.70943 0.0
H1768 H 0.36181 0.51012 0.68083 0.0
H1769 H 0.42636 0.53801 0.69237 0.0
H1770 H 0.47876 0.61068 0.62378 0.0
H1771 H 0.45669 0.59213 0.65173 0.0
H1772 H 0.3973 0.55843 0.63681 0.0
C1773 C 0.36823 0.51156 0.69592 0.0
C1774 C 0.41972 0.5426 0.68071 0.0
C1775 C 0.35699 0.49992 0.71227 0.0
C1776 C 0.46559 0.59876 0.61979 0.0
C1777 C 0.45302 0.58808 0.63582 0.0
C1778 C 0.40373 0.55407 0.64897 0.0
C1779 C 0.38757 0.52445 0.69893 0.0
C1780 C 0.39989 0.53672 0.68143 0.0
C1781 C 0.43604 0.57218 0.63144 0.0
C1782 C 0.42351 0.5601 0.64862 0.0
H1783 H 0.39039 0.51454 0.75011 0.0
H1784 H 0.4097 0.53537 0.72222 0.0
H1785 H 0.37702 0.53881 0.66527 0.0
H1786 H 0.441 0.57353 0.57874 0.0
H1787 H 0.41873 0.55522 0.60677 0.0
C1788 C 0.49752 0.82645 0.76919 0.0
C1789 C 0.50752 0.81642 0.77087 0.0
C1790 C 0.48624 0.82484 0.75198 0.0
C1791 C 0.48111 0.81136 0.69673 0.0
H1792 H 0.43987 0.82364 0.69942 0.0
C1793 C 0.43688 0.81564 0.62558 0.0
C1794 C 0.43666 0.83238 0.62376 0.0
C1795 C 0.44443 0.81136 0.64325 0.0
C1796 C 0.45135 0.82016 0.69844 0.0
H1797 H 0.51244 0.79586 0.75624 0.0
H1798 H 0.49209 0.79249 0.72645 0.0
H1799 H 0.45294 0.81838 0.73142 0.0
H1800 H 0.44423 0.85771 0.63919 0.0
H1801 H 0.45685 0.85001 0.6701 0.0
H1802 H 0.47905 0.81288 0.66353 0.0
C1803 C 0.49339 0.80202 0.73825 0.0
C1804 C 0.45897 0.81724 0.7168 0.0
C1805 C 0.50483 0.80371 0.75554 0.0
C1806 C 0.44427 0.84475 0.63996 0.0
C1807 C 0.45139 0.84031 0.65776 0.0
C1808 C 0.47318 0.81394 0.67832 0.0
C1809 C 0.4844 0.813 0.7359 0.0
C1810 C 0.47438 0.81334 0.71629 0.0
C1811 C 0.45146 0.82354 0.65967 0.0
C1812 C 0.45857 0.81885 0.679 0.0
H1813 H 0.49929 0.8364 0.78066 0.0
H1814 H 0.4799 0.83377 0.75084 0.0
H1815 H 0.49306 0.8086 0.69553 0.0
H1816 H 0.43111 0.80581 0.6134 0.0
H1817 H 0.44431 0.79834 0.64435 0.0
C1818 C 0.29293 0.5283 0.26388 0.0
C1819 C 0.27812 0.51143 0.27123 0.0
C1820 C 0.30563 0.52908 0.24823 0.0
C1821 C 0.30814 0.50354 0.20399 0.0
H1822 H 0.36305 0.53417 0.20672 0.0
C1823 C 0.35807 0.50378 0.13844 0.0
C1824 C 0.37415 0.52044 0.13299 0.0
C1825 C 0.34725 0.50207 0.15638 0.0
C1826 C 0.34773 0.52572 0.2055 0.0
H1827 H 0.26533 0.48213 0.26806 0.0
H1828 H 0.28726 0.48355 0.24065 0.0
H1829 H 0.34266 0.53284 0.23583 0.0
H1830 H 0.39158 0.54836 0.14231 0.0
H1831 H 0.37247 0.54562 0.173 0.0
H1832 H 0.3129 0.49687 0.17348 0.0
C1833 C 0.28905 0.49616 0.24701 0.0
C1834 C 0.33606 0.52492 0.22229 0.0
C1835 C 0.27656 0.49537 0.26283 0.0
C1836 C 0.37936 0.53526 0.1461 0.0
C1837 C 0.3684 0.53364 0.16385 0.0
C1838 C 0.31974 0.50454 0.1871 0.0
C1839 C 0.30361 0.51302 0.23938 0.0
C1840 C 0.31614 0.51381 0.22172 0.0
C1841 C 0.35204 0.51707 0.16918 0.0
C1842 C 0.33974 0.51564 0.18756 0.0
H1843 H 0.29454 0.54093 0.26999 0.0
H1844 H 0.31665 0.54227 0.2426 0.0
H1845 H 0.2928 0.49504 0.20297 0.0
H1846 H 0.35373 0.49205 0.12877 0.0
H1847 H 0.33506 0.48895 0.16012 0.0
C1848 C 0.54382 0.78416 0.25028 0.0
C1849 C 0.5313 0.76979 0.26364 0.0
C1850 C 0.53673 0.79069 0.23418 0.0
C1851 C 0.49438 0.79366 0.21608 0.0
H1852 H 0.51839 0.80059 0.16179 0.0
C1853 C 0.46693 0.81683 0.14367 0.0
C1854 C 0.48087 0.82923 0.12956 0.0
C1855 C 0.47197 0.80829 0.1597 0.0
C1856 C 0.51164 0.799 0.17686 0.0
H1857 H 0.50141 0.7514 0.27081 0.0
H1858 H 0.48904 0.76309 0.24288 0.0
H1859 H 0.52947 0.78908 0.19077 0.0
H1860 H 0.51098 0.84166 0.121 0.0
H1861 H 0.51978 0.82752 0.14905 0.0
H1862 H 0.4769 0.80406 0.20235 0.0
C1863 C 0.50436 0.7692 0.24486 0.0
C1864 C 0.51799 0.79232 0.1935 0.0
C1865 C 0.51147 0.76249 0.26084 0.0
C1866 C 0.49984 0.83248 0.13168 0.0
C1867 C 0.50488 0.82408 0.14771 0.0
C1868 C 0.48816 0.80056 0.19946 0.0
C1869 C 0.51693 0.78318 0.23113 0.0
C1870 C 0.50958 0.78972 0.21336 0.0
C1871 C 0.49107 0.81194 0.16209 0.0
C1872 C 0.49683 0.80352 0.17962 0.0
H1873 H 0.55917 0.79012 0.2519 0.0
H1874 H 0.5468 0.80163 0.22405 0.0
H1875 H 0.48767 0.79189 0.23121 0.0
H1876 H 0.4522 0.81399 0.14268 0.0
H1877 H 0.46084 0.79884 0.17023 0.0
C1878 C 0.24928 0.76651 0.28133 0.0
C1879 C 0.26859 0.77993 0.27961 0.0
C1880 C 0.24061 0.75406 0.26553 0.0
C1881 C 0.24506 0.74908 0.20928 0.0
H1882 H 0.20655 0.69903 0.22082 0.0
C1883 C 0.19198 0.70478 0.14717 0.0
C1884 C 0.18712 0.68624 0.14641 0.0
C1885 C 0.20302 0.71559 0.1633 0.0
C1886 C 0.21739 0.71291 0.21728 0.0
H1887 H 0.29408 0.79033 0.26007 0.0
H1888 H 0.27898 0.76854 0.23256 0.0
H1889 H 0.22416 0.71841 0.24939 0.0
H1890 H 0.19018 0.66461 0.16227 0.0
H1891 H 0.20958 0.68351 0.19036 0.0
H1892 H 0.23832 0.7436 0.17719 0.0
C1893 C 0.27047 0.76779 0.24607 0.0
C1894 C 0.22737 0.7241 0.23371 0.0
C1895 C 0.27918 0.7802 0.26194 0.0
C1896 C 0.19374 0.67884 0.16223 0.0
C1897 C 0.20472 0.68965 0.17847 0.0
C1898 C 0.23504 0.73792 0.19287 0.0
C1899 C 0.25098 0.75472 0.24751 0.0
C1900 C 0.24122 0.74239 0.22995 0.0
C1901 C 0.2095 0.70818 0.17922 0.0
C1902 C 0.22091 0.71974 0.19665 0.0
H1903 H 0.24065 0.76587 0.29468 0.0
H1904 H 0.22554 0.74434 0.26713 0.0
H1905 H 0.25547 0.76312 0.20576 0.0
H1906 H 0.18737 0.71105 0.13518 0.0
H1907 H 0.20621 0.72973 0.16345 0.0
C1908 C 0.17831 0.21354 0.3414 0.0
C1909 C 0.17372 0.19839 0.35475 0.0
C1910 C 0.18314 0.21334 0.32051 0.0
C1911 C 0.18059 0.18242 0.27851 0.0
H1912 H 0.22387 0.22568 0.25507 0.0
C1913 C 0.21755 0.18089 0.20201 0.0
C1914 C 0.22351 0.19572 0.18781 0.0
C1915 C 0.21091 0.18163 0.2219 0.0
C1916 C 0.2116 0.21356 0.26125 0.0
H1917 H 0.17016 0.17097 0.35634 0.0
H1918 H 0.17864 0.17064 0.32005 0.0
H1919 H 0.21273 0.22598 0.29031 0.0
H1920 H 0.22724 0.22307 0.18367 0.0
H1921 H 0.21567 0.22439 0.21846 0.0
H1922 H 0.17956 0.16994 0.24955 0.0
C1923 C 0.17835 0.18265 0.32564 0.0
C1924 C 0.20519 0.21373 0.28149 0.0
C1925 C 0.17355 0.18286 0.34653 0.0
C1926 C 0.22293 0.21146 0.19421 0.0
C1927 C 0.21628 0.2122 0.21418 0.0
C1928 C 0.18701 0.18225 0.2583 0.0
C1929 C 0.18347 0.19798 0.31241 0.0
C1930 C 0.1897 0.1981 0.29047 0.0
C1931 C 0.21004 0.19722 0.22824 0.0
C1932 C 0.20272 0.19776 0.24946 0.0
H1933 H 0.17856 0.22574 0.34716 0.0
H1934 H 0.1867 0.22528 0.31072 0.0
H1935 H 0.16842 0.17024 0.28474 0.0
H1936 H 0.21818 0.1687 0.19788 0.0
H1937 H 0.20667 0.16999 0.23242 0.0
C1938 C 0.828 0.99304 0.35353 0.0
C1939 C 0.8403 1.00472 0.36851 0.0
C1940 C 0.82962 0.9989 0.33267 0.0
C1941 C 0.85088 0.04012 0.29745 0.0
H1942 H 0.85126 1.00671 0.25686 0.0
C1943 C 0.87923 0.06438 0.21357 0.0
C1944 C 0.86955 0.05279 0.19724 0.0
C1945 C 0.87482 0.05825 0.23431 0.0
C1946 C 0.85096 0.01616 0.26789 0.0
H1947 H 0.8632 0.03207 0.37341 0.0
H1948 H 0.86589 0.04227 0.33728 0.0
H1949 H 0.84378 0.99674 0.29314 0.0
H1950 H 0.84773 0.02548 0.19007 0.0
H1951 H 0.83992 0.01486 0.22614 0.0
H1952 H 0.85813 0.05957 0.27227 0.0
C1953 C 0.85499 0.02858 0.34155 0.0
C1954 C 0.84662 1.01041 0.28875 0.0
C1955 C 0.85347 0.0227 0.36232 0.0
C1956 C 0.85557 0.03478 0.20221 0.0
C1957 C 0.85112 0.02866 0.22296 0.0
C1958 C 0.85516 0.04585 0.27659 0.0
C1959 C 0.84345 0.01662 0.32632 0.0
C1960 C 0.84669 0.02236 0.30386 0.0
C1961 C 0.86055 0.04036 0.23933 0.0
C1962 C 0.85545 0.03403 0.26152 0.0
H1963 H 0.81775 0.97908 0.35768 0.0
H1964 H 0.82029 0.98941 0.32142 0.0
H1965 H 0.85082 0.04962 0.30857 0.0
H1966 H 0.89013 0.07831 0.21038 0.0
H1967 H 0.88268 0.06757 0.24641 0.0
C1968 C 0.98044 0.80714 0.19695 0.0
C1969 C 0.98708 0.82106 0.18148 0.0
C1970 C 0.98621 0.81114 0.21757 0.0
C1971 C 1.00621 0.84897 0.25425 0.0
H1972 H 0.02478 0.81969 0.28388 0.0
C1973 C 0.05033 0.87468 0.32791 0.0
C1974 C 0.0473 0.86234 0.34452 0.0
C1975 C 0.04198 0.86855 0.30869 0.0
C1976 C 1.01938 0.82785 0.27597 0.0
H1977 H 1.00462 0.85013 0.17571 0.0
H1978 H 1.01447 0.85709 0.21157 0.0
H1979 H 1.01128 0.81094 0.24934 0.0
H1980 H 0.03339 0.83375 0.35375 0.0
H1981 H 1.01855 0.82292 0.32006 0.0
H1982 H 1.01422 0.86589 0.2807 0.0
C1983 C 1.0048 0.84309 0.20781 0.0
C1984 C 1.01166 0.82284 0.25616 0.0
C1985 C 0.99921 0.83908 0.1872 0.0
C1986 C 0.03606 0.84359 0.34123 0.0
C1987 C 0.02757 0.8374 0.32192 0.0
C1988 C 1.0138 0.85392 0.27404 0.0
C1989 C 0.99854 0.82916 0.22321 0.0
C1990 C 1.00529 0.83353 0.24493 0.0
C1991 C 0.03023 0.84986 0.30548 0.0
C1992 C 1.02085 0.84364 0.28503 0.0
H1993 H 0.97113 0.7931 0.19306 0.0
H1994 H 0.981 0.80013 0.22911 0.0
H1995 H 1.0011 0.85731 0.24619 0.0
H1996 H 0.05928 0.88918 0.32973 0.0
H1997 H 0.04485 0.87853 0.29628 0.0
C1998 C 0.87051 0.84192 0.69454 0.0
C1999 C 0.88251 0.83382 0.69433 0.0
C2000 C 0.86522 0.84663 0.71328 0.0
C2001 C 0.86033 0.83555 0.76971 0.0
H2002 H 0.85642 0.87993 0.77374 0.0
C2003 C 0.84229 0.85748 0.84782 0.0
C2004 C 0.83019 0.86547 0.84744 0.0
C2005 C 0.84948 0.85434 0.82934 0.0
C2006 C 0.8572 0.86736 0.77287 0.0
H2007 H 0.89857 0.82463 0.71384 0.0
H2008 H 0.88941 0.83291 0.7465 0.0
H2009 H 0.86765 0.87335 0.74141 0.0
H2010 H 0.81628 0.87647 0.82713 0.0
H2011 H 0.82853 0.87074 0.79497 0.0
H2012 H 0.84963 0.82939 0.80102 0.0
C2013 C 0.88394 0.83546 0.73214 0.0
C2014 C 0.8637 0.8636 0.75428 0.0
C2015 C 0.88932 0.83083 0.71337 0.0
C2016 C 0.82561 0.87037 0.82807 0.0
C2017 C 0.83275 0.86716 0.80957 0.0
C2018 C 0.85376 0.83926 0.78827 0.0
C2019 C 0.8717 0.84331 0.73237 0.0
C2020 C 0.86531 0.84761 0.7524 0.0
C2021 C 0.84473 0.85902 0.80991 0.0
C2022 C 0.85203 0.85521 0.79013 0.0
H2023 H 0.86493 0.84441 0.68022 0.0
H2024 H 0.85562 0.85245 0.7128 0.0
H2025 H 0.86107 0.82296 0.76878 0.0
H2026 H 0.84622 0.8536 0.86242 0.0
H2027 H 0.8589 0.84834 0.83034 0.0
C2028 C 0.20878 0.04722 0.70747 0.0
C2029 C 0.21255 0.06548 0.70596 0.0
C2030 C 0.20231 0.03721 0.72613 0.0
C2031 C 0.17944 0.0352 0.77682 0.0
H2032 H 0.20365 1.00631 0.79384 0.0
C2033 C 0.17112 1.0038 0.85982 0.0
C2034 C 0.17122 0.98706 0.86233 0.0
C2035 C 0.1742 1.01244 0.84025 0.0
C2036 C 0.19646 0.01402 0.78921 0.0
H2037 H 0.21197 0.08736 0.72291 0.0
H2038 H 0.20063 0.06981 0.75564 0.0
H2039 H 0.21289 0.02337 0.76097 0.0
H2040 H 0.17367 0.96583 0.84598 0.0
H2041 H 0.17859 0.98067 0.81178 0.0
H2042 H 0.163 0.02581 0.80512 0.0
C2043 C 0.20265 0.06326 0.74225 0.0
C2044 C 0.20183 0.02388 0.77035 0.0
C2045 C 0.20923 0.07335 0.72352 0.0
C2046 C 0.17362 0.97877 0.84464 0.0
C2047 C 0.17661 0.98737 0.82504 0.0
C2048 C 0.17398 0.02523 0.79569 0.0
C2049 C 0.19936 0.04514 0.74383 0.0
C2050 C 0.19342 0.03462 0.76392 0.0
C2051 C 0.17738 1.00452 0.82265 0.0
C2052 C 0.18246 0.01454 0.80216 0.0
H2053 H 0.21105 0.04064 0.69426 0.0
H2054 H 0.19962 0.02321 0.72671 0.0
H2055 H 0.17253 0.04317 0.77221 0.0
H2056 H 0.16935 1.01062 0.87309 0.0
H2057 H 0.17486 0.02569 0.83911 0.0
C2058 C 0.98311 0.15427 0.70961 0.0
C2059 C 0.99331 0.15303 0.69238 0.0
C2060 C 0.99075 0.15651 0.72964 0.0
C2061 C 0.02893 0.15286 0.76028 0.0
H2062 H 1.0226 0.18565 0.79721 0.0
C2063 C 0.07541 0.18191 0.83328 0.0
C2064 C 0.06633 0.18329 0.85141 0.0
C2065 C 0.06554 0.17689 0.81451 0.0
C2066 C 1.02434 0.17629 0.7872 0.0
H2067 H 1.01951 0.15296 0.68295 0.0
H2068 H 0.03281 0.15715 0.7174 0.0
H2069 H 1.00689 0.17914 0.76369 0.0
H2070 H 0.03954 0.1802 0.86393 0.0
H2071 H 1.02242 0.17151 0.83129 0.0
H2072 H 0.04675 0.15037 0.78366 0.0
C2073 C 1.01877 0.15607 0.71569 0.0
C2074 C 1.01526 0.17249 0.76793 0.0
C2075 C 1.01114 0.15377 0.69578 0.0
C2076 C 0.04704 0.17929 0.85032 0.0
C2077 C 0.03722 0.17442 0.83153 0.0
C2078 C 0.03812 0.15676 0.77947 0.0
C2079 C 1.00879 0.1576 0.73295 0.0
C2080 C 1.01754 0.16083 0.75408 0.0
C2081 C 0.04636 0.17326 0.81333 0.0
C2082 C 0.03606 0.16863 0.79314 0.0
H2083 H 0.96934 0.15375 0.7076 0.0
H2084 H 0.98247 0.15738 0.74253 0.0
H2085 H 0.03076 0.14351 0.75032 0.0
H2086 H 0.09025 0.18492 0.83349 0.0
H2087 H 0.07309 0.1763 0.80079 0.0
C2088 C 0.8412 0.51817 0.69503 0.0
C2089 C 0.83791 0.53234 0.70182 0.0
C2090 C 0.84413 0.51648 0.67395 0.0
C2091 C 0.85883 0.54319 0.62419 0.0
H2092 H 0.84033 0.49549 0.60063 0.0
C2093 C 0.86756 0.53295 0.53651 0.0
C2094 C 0.87295 0.51963 0.5317 0.0
C2095 C 0.86249 0.53465 0.55689 0.0
C2096 C 0.84574 0.50892 0.607 0.0
H2097 H 0.83467 0.55563 0.69155 0.0
H2098 H 0.83945 0.55251 0.6547 0.0
H2099 H 0.83228 0.49791 0.63653 0.0
H2100 H 0.87765 0.49799 0.54505 0.0
H2101 H 0.8687 0.50085 0.58029 0.0
H2102 H 0.87229 0.55415 0.59456 0.0
C2103 C 0.8401 0.54286 0.66575 0.0
C2104 C 0.84113 0.51032 0.62763 0.0
C2105 C 0.8372 0.54456 0.68689 0.0
C2106 C 0.87323 0.50816 0.54791 0.0
C2107 C 0.86809 0.5098 0.56823 0.0
C2108 C 0.86337 0.54178 0.6035 0.0
C2109 C 0.8438 0.52889 0.659 0.0
C2110 C 0.84779 0.52746 0.63661 0.0
C2111 C 0.86259 0.52302 0.573 0.0
C2112 C 0.85706 0.52462 0.59471 0.0
H2113 H 0.84194 0.50854 0.70606 0.0
H2114 H 0.8472 0.50571 0.66946 0.0
H2115 H 0.86445 0.55662 0.6306 0.0
H2116 H 0.86693 0.5419 0.5245 0.0
H2117 H 0.85816 0.54486 0.55997 0.0
C2118 C 0.50307 0.30273 0.66868 0.0
C2119 C 0.51145 0.3134 0.68608 0.0
C2120 C 0.50728 0.31053 0.64861 0.0
C2121 C 0.54174 0.35103 0.61735 0.0
H2122 H 0.49873 0.33708 0.58063 0.0
C2123 C 0.54735 0.38988 0.53946 0.0
C2124 C 0.53701 0.37965 0.5225 0.0
C2125 C 0.54502 0.38165 0.55923 0.0
C2126 C 0.51098 0.34097 0.59052 0.0
H2127 H 0.53139 0.3406 0.69583 0.0
H2128 H 0.53872 0.3542 0.66082 0.0
H2129 H 0.49365 0.32293 0.61513 0.0
H2130 H 0.51636 0.35258 0.51306 0.0
H2131 H 0.51255 0.33822 0.54731 0.0
H2132 H 0.55906 0.36911 0.59269 0.0
C2133 C 0.52894 0.33975 0.6627 0.0
C2134 C 0.50805 0.33284 0.61037 0.0
C2135 C 0.52469 0.33195 0.68281 0.0
C2136 C 0.52449 0.36093 0.52576 0.0
C2137 C 0.52221 0.3527 0.54548 0.0
C2138 C 0.54468 0.35914 0.59744 0.0
C2139 C 0.52002 0.32921 0.64536 0.0
C2140 C 0.52337 0.33774 0.62407 0.0
C2141 C 0.53232 0.36295 0.56255 0.0
C2142 C 0.52933 0.35423 0.58374 0.0
H2143 H 0.49287 0.28839 0.67055 0.0
H2144 H 0.5004 0.30192 0.63561 0.0
H2145 H 0.5539 0.355 0.62739 0.0
H2146 H 0.55708 0.40434 0.53756 0.0
H2147 H 0.55289 0.39005 0.572 0.0
C2148 C 0.63946 0.14351 0.54083 0.0
C2149 C 0.65204 0.15637 0.52607 0.0
C2150 C 0.64428 0.1447 0.56189 0.0
C2151 C 0.67781 0.17654 0.60062 0.0
H2152 H 0.666 0.13201 0.63172 0.0
C2153 C 0.71242 0.17719 0.67959 0.0
C2154 C 0.70084 0.1651 0.69555 0.0
C2155 C 0.70563 0.17598 0.65935 0.0
C2156 C 0.66922 0.14457 0.62335 0.0
H2157 H 0.67946 0.18076 0.52212 0.0
H2158 H 0.6879 0.18269 0.55854 0.0
H2159 H 0.65547 0.13041 0.59594 0.0
H2160 H 0.67283 0.14213 0.70231 0.0
H2161 H 0.66111 0.13993 0.66699 0.0
H2162 H 0.69183 0.1907 0.62793 0.0
C2163 C 0.67417 0.17181 0.554 0.0
C2164 C 0.66314 0.14366 0.60279 0.0
C2165 C 0.66934 0.17065 0.533 0.0
C2166 C 0.68231 0.15158 0.69051 0.0
C2167 C 0.67554 0.15032 0.6702 0.0
C2168 C 0.68396 0.17744 0.62112 0.0
C2169 C 0.66181 0.15876 0.56876 0.0
C2170 C 0.66748 0.15965 0.59105 0.0
C2171 C 0.68707 0.16258 0.65437 0.0
C2172 C 0.67989 0.16149 0.63273 0.0
H2173 H 0.626 0.13234 0.53609 0.0
H2174 H 0.63423 0.13455 0.57278 0.0
H2175 H 0.68112 0.18914 0.5923 0.0
H2176 H 0.72688 0.18754 0.68259 0.0
H2177 H 0.71507 0.18543 0.64751 0.0
C2178 C 0.5605 0.1955 0.02558 0.0
C2179 C 0.55582 0.17782 1.01938 0.0
C2180 C 0.55503 0.19844 0.04524 0.0
C2181 C 0.53687 0.17621 0.09772 0.0
H2182 H 0.52279 0.21451 0.10271 0.0
C2183 C 0.50082 0.18496 0.17224 0.0
C2184 C 0.50771 0.2028 0.17934 0.0
C2185 C 0.50665 0.18182 0.15286 0.0
C2186 C 0.52682 0.20385 0.10165 0.0
H2187 H 0.54175 0.14936 0.02927 0.0
H2188 H 0.53182 0.15438 0.06331 0.0
H2189 H 0.53297 0.20909 0.0691 0.0
H2190 H 0.52601 0.23135 0.17127 0.0
H2191 H 0.53598 0.22589 0.13742 0.0
H2192 H 0.53029 0.17079 0.13029 0.0
C2193 C 0.54009 0.1661 0.05317 0.0
C2194 C 0.53277 0.20076 0.08232 0.0
C2195 C 0.54573 0.16318 0.03354 0.0
C2196 C 0.52039 0.21743 0.16636 0.0
C2197 C 0.52605 0.2143 0.14688 0.0
C2198 C 0.53074 0.17919 0.11701 0.0
C2199 C 0.54451 0.18378 0.05929 0.0
C2200 C 0.53799 0.18694 0.08002 0.0
C2201 C 0.51937 0.19645 0.13991 0.0
C2202 C 0.5257 0.19311 0.11927 0.0
H2203 H 0.56836 0.20714 1.01518 0.0
H2204 H 0.55916 0.2123 0.0494 0.0
H2205 H 0.54104 0.16564 0.09681 0.0
H2206 H 0.49107 0.17333 0.18179 0.0
H2207 H 0.50105 0.16791 0.14794 0.0
C2208 C 0.84442 0.35592 0.02748 0.0
C2209 C 0.86145 0.3725 0.02481 0.0
C2210 C 0.83824 0.34788 0.04724 0.0
C2211 C 0.84395 0.35653 0.10355 0.0
H2212 H 0.82863 0.30498 0.10843 0.0
C2213 C 0.83826 0.32017 0.18269 0.0
C2214 C 0.82443 0.30177 0.18561 0.0
C2215 C 0.84091 0.32903 0.16333 0.0
C2216 C 0.8325 0.31929 0.10737 0.0
H2217 H 0.8849 0.39399 0.04105 0.0
H2218 H 0.87403 0.37997 0.07562 0.0
H2219 H 0.83663 0.32026 0.07443 0.0
H2220 H 0.80204 0.27847 0.17051 0.0
H2221 H 0.80636 0.29404 0.13679 0.0
H2222 H 0.83984 0.35558 0.13649 0.0
C2223 C 0.86545 0.37321 0.06236 0.0
C2224 C 0.83716 0.32808 0.08783 0.0
C2225 C 0.87171 0.38123 0.04253 0.0
C2226 C 0.81288 0.29261 0.1688 0.0
C2227 C 0.81547 0.30153 0.14941 0.0
C2228 C 0.83916 0.3477 0.12311 0.0
C2229 C 0.84885 0.35624 0.06489 0.0
C2230 C 0.8431 0.34684 0.08567 0.0
C2231 C 0.82973 0.31979 0.14632 0.0
C2232 C 0.83356 0.32899 0.12534 0.0
H2233 H 0.83607 0.34882 1.01423 0.0
H2234 H 0.82523 0.33496 0.04866 0.0
H2235 H 0.84823 0.37093 0.1024 0.0
H2236 H 0.84748 0.32769 0.19523 0.0
H2237 H 0.85221 0.34298 0.16158 0.0
C2238 C 0.66624 0.47339 0.04737 0.0
C2239 C 0.65454 0.48112 0.04172 0.0
C2240 C 0.6747 0.47638 0.06693 0.0
C2241 C 0.6729 0.49376 0.11956 0.0
H2242 H 0.72477 0.50107 0.12309 0.0
C2243 C 0.7218 0.52951 0.18797 0.0
C2244 C 0.73206 0.52138 0.19708 0.0
C2245 C 0.71193 0.52304 0.16953 0.0
C2246 C 0.71021 0.49886 0.1224 0.0
H2247 H 0.6424 0.49792 0.0524 0.0
H2248 H 0.65746 0.50354 0.08615 0.0
H2249 H 0.70804 0.49263 0.09017 0.0
H2250 H 0.7402 0.50022 0.19362 0.0
H2251 H 0.72318 0.48912 0.16093 0.0
H2252 H 0.67543 0.50069 0.15163 0.0
C2253 C 0.65981 0.49477 0.07574 0.0
C2254 C 0.70054 0.49395 0.10352 0.0
C2255 C 0.6512 0.49162 0.05627 0.0
C2256 C 0.73244 0.50677 0.18703 0.0
C2257 C 0.72274 0.50045 0.16831 0.0
C2258 C 0.68265 0.49888 0.13832 0.0
C2259 C 0.67185 0.48735 0.08132 0.0
C2260 C 0.6818 0.49152 0.10175 0.0
C2261 C 0.71221 0.50841 0.1595 0.0
C2262 C 0.70148 0.50169 0.1399 0.0
H2263 H 0.66905 0.46516 0.03658 0.0
H2264 H 0.68353 0.47012 0.07072 0.0
H2265 H 0.65836 0.4916 0.11906 0.0
H2266 H 0.72114 0.54077 0.19524 0.0
H2267 H 0.70417 0.52963 0.16301 0.0
C2268 C 0.53011 0.8912 1.01949 0.0
C2269 C 0.51442 0.87546 0.02798 0.0
C2270 C 0.53753 0.89093 0.99966 0.0
C2271 C 0.52142 0.86523 0.95111 0.0
H2272 H 0.57502 0.88788 0.93506 0.0
C2273 C 0.5449 0.84942 0.87315 0.0
C2274 C 0.55998 0.86352 0.86164 0.0
C2275 C 0.54062 0.85207 0.89346 0.0
C2276 C 0.55998 0.88166 0.93921 0.0
H2277 H 0.49523 0.84686 1.02292 0.0
H2278 H 0.50822 0.84634 0.989 0.0
H2279 H 0.56588 0.89054 0.97072 0.0
H2280 H 0.58257 0.89152 0.86306 0.0
H2281 H 0.57483 0.89622 0.89839 0.0
H2282 H 0.51534 0.8564 0.91987 0.0
C2283 C 0.5145 0.85904 0.99719 0.0
C2284 C 0.55475 0.88318 0.95969 0.0
C2285 C 0.50712 0.85931 1.01678 0.0
C2286 C 0.57073 0.88037 0.87124 0.0
C2287 C 0.56642 0.88302 0.89165 0.0
C2288 C 0.5266 0.86376 0.93077 0.0
C2289 C 0.52938 0.87494 0.988 0.0
C2290 C 0.53538 0.87466 0.966 0.0
C2291 C 0.55119 0.86893 0.90301 0.0
C2292 C 0.54595 0.87165 0.92455 0.0
H2293 H 0.536 0.90388 0.02768 0.0
H2294 H 0.54904 0.90343 0.99308 0.0
H2295 H 0.50634 0.8589 0.95519 0.0
H2296 H 0.53611 0.83631 0.86643 0.0
H2297 H 0.52899 0.84076 0.90174 0.0
C2298 C 0.20588 0.68011 0.86361 0.0
C2299 C 0.20516 0.69622 0.85837 0.0
C2300 C 0.20393 0.67392 0.8843 0.0
C2301 C 0.20594 0.68818 0.93889 0.0
H2302 H 0.17303 0.63653 0.94986 0.0
C2303 C 0.17787 0.65816 1.02151 0.0
C2304 C 0.17634 0.64109 0.02694 0.0
C2305 C 0.18265 0.66524 1.00116 0.0
C2306 C 0.18249 0.65095 0.94711 0.0
H2307 H 0.20237 0.71873 0.87098 0.0
H2308 H 0.19887 0.7079 0.90702 0.0
H2309 H 0.17943 0.64835 0.91419 0.0
H2310 H 0.179 0.61825 1.01519 0.0
H2311 H 0.18754 0.63066 0.97981 0.0
H2312 H 0.20888 0.69078 0.97186 0.0
C2313 C 0.20109 0.7001 0.89514 0.0
C2314 C 0.18617 0.65774 0.9266 0.0
C2315 C 0.20302 0.70628 0.87443 0.0
C2316 C 0.17997 0.63139 1.01157 0.0
C2317 C 0.18475 0.63847 0.99121 0.0
C2318 C 0.20228 0.68138 0.95942 0.0
C2319 C 0.20123 0.68369 0.90032 0.0
C2320 C 0.19788 0.67646 0.9222 0.0
C2321 C 0.18603 0.65544 0.98569 0.0
C2322 C 0.19042 0.66268 0.96381 0.0
H2323 H 0.20758 0.67204 0.85168 0.0
H2324 H 0.20443 0.6614 0.88774 0.0
H2325 H 0.21524 0.70263 0.93608 0.0
H2326 H 0.17514 0.666 0.03293 0.0
H2327 H 0.18325 0.67822 0.99746 0.0
C2328 C 0.35234 0.52304 1.00814 0.0
C2329 C 0.37145 0.52829 1.01317 0.0
C2330 C 0.34543 0.51689 0.98836 0.0
C2331 C 0.36124 0.51833 0.93399 0.0
H2332 H 0.31 0.47822 0.92794 0.0
C2333 C 0.33178 0.4865 0.85436 0.0
C2334 C 0.31251 0.48126 0.85019 0.0
C2335 C 0.3392 0.49214 0.87414 0.0
C2336 C 0.32425 0.48959 0.9293 0.0
H2337 H 0.39822 0.53105 1.00115 0.0
H2338 H 0.3861 0.52009 0.96665 0.0
H2339 H 0.32253 0.48782 0.96251 0.0
H2340 H 0.28601 0.47808 0.86362 0.0
H2341 H 0.29898 0.48812 0.89798 0.0
H2342 H 0.36291 0.52017 0.90076 0.0
C2343 C 0.37651 0.52091 0.97803 0.0
C2344 C 0.33146 0.49508 0.94917 0.0
C2345 C 0.38342 0.52702 0.9979 0.0
C2346 C 0.3009 0.48195 0.86627 0.0
C2347 C 0.30832 0.4876 0.88605 0.0
C2348 C 0.35401 0.51285 0.9141 0.0
C2349 C 0.35742 0.51581 0.973 0.0
C2350 C 0.35002 0.50958 0.95179 0.0
C2351 C 0.32755 0.4927 0.89029 0.0
C2352 C 0.33537 0.49845 0.91148 0.0
H2353 H 0.34262 0.5236 1.01953 0.0
H2354 H 0.33072 0.51326 0.98502 0.0
H2355 H 0.37548 0.52972 0.9354 0.0
H2356 H 0.34115 0.48609 0.84238 0.0
H2357 H 0.354 0.49574 0.87685 0.0
C2358 C 0.19949 0.53976 0.52371 0.0
C2359 C 0.18151 0.53872 0.52718 0.0
C2360 C 0.20488 0.53698 0.50397 0.0
C2361 C 0.183 0.51446 0.45494 0.0
H2362 H 0.2357 0.53685 0.43534 0.0
C2363 C 0.20402 0.48447 0.38688 0.0
C2364 C 0.21705 0.49641 0.37183 0.0
C2365 C 0.20123 0.49096 0.40566 0.0
C2366 C 0.22089 0.53058 0.44047 0.0
H2367 H 0.15555 0.53498 0.51223 0.0
H2368 H 0.16513 0.53065 0.4777 0.0
H2369 H 0.22777 0.54711 0.46733 0.0
H2370 H 0.23797 0.52451 0.36503 0.0
H2371 H 0.2329 0.53601 0.39787 0.0
H2372 H 0.17599 0.49824 0.42797 0.0
C2373 C 0.1749 0.5331 0.49037 0.0
C2374 C 0.21634 0.53633 0.45896 0.0
C2375 C 0.16944 0.53574 0.51017 0.0
C2376 C 0.22792 0.51496 0.37639 0.0
C2377 C 0.22497 0.52153 0.39521 0.0
C2378 C 0.18752 0.5088 0.43647 0.0
C2379 C 0.19249 0.5332 0.48709 0.0
C2380 C 0.19734 0.52819 0.4666 0.0
C2381 C 0.2112 0.50964 0.40986 0.0
C2382 C 0.20655 0.51654 0.42911 0.0
H2383 H 0.20916 0.54199 0.53644 0.0
H2384 H 0.21843 0.53699 0.50222 0.0
H2385 H 0.16825 0.50766 0.46033 0.0
H2386 H 0.19558 0.47007 0.38396 0.0
H2387 H 0.19096 0.48128 0.41676 0.0
C2388 C 0.52094 0.66344 0.50513 0.0
C2389 C 0.50702 0.64492 0.50613 0.0
C2390 C 0.52501 0.67362 0.48644 0.0
C2391 C 0.52036 0.66799 0.4293 0.0
H2392 H 0.53276 0.71891 0.42823 0.0
C2393 C 0.52818 0.70728 0.35212 0.0
C2394 C 0.5434 0.72515 0.3498 0.0
C2395 C 0.52356 0.6982 0.37148 0.0
C2396 C 0.52953 0.70476 0.42827 0.0
H2397 H 0.4862 0.62278 0.48813 0.0
H2398 H 0.49304 0.64055 0.45568 0.0
H2399 H 0.52467 0.70168 0.46122 0.0
H2400 H 0.56541 0.74762 0.36637 0.0
H2401 H 0.55734 0.73168 0.40033 0.0
H2402 H 0.52516 0.67101 0.39641 0.0
C2403 C 0.5011 0.64715 0.46928 0.0
C2404 C 0.52487 0.69484 0.44722 0.0
C2405 C 0.49706 0.63696 0.48798 0.0
C2406 C 0.55358 0.73388 0.36757 0.0
C2407 C 0.54892 0.72475 0.38706 0.0
C2408 C 0.52495 0.67787 0.4104 0.0
C2409 C 0.51527 0.6656 0.46818 0.0
C2410 C 0.52016 0.67627 0.448 0.0
C2411 C 0.53401 0.70666 0.38919 0.0
C2412 C 0.52952 0.69637 0.40957 0.0
H2413 H 0.52897 0.67007 0.51875 0.0
H2414 H 0.53617 0.68769 0.48624 0.0
H2415 H 0.51726 0.65387 0.42925 0.0
H2416 H 0.51988 0.70012 0.33886 0.0
H2417 H 0.51175 0.68445 0.37253 0.0
C2418 C 0.37116 0.81821 0.52636 0.0
C2419 C 0.38842 0.83392 0.53057 0.0
C2420 C 0.36317 0.81556 0.50659 0.0
C2421 C 0.37356 0.83099 0.4511 0.0
H2422 H 0.3187 0.81263 0.44916 0.0
C2423 C 0.3349 0.83171 0.37498 0.0
C2424 C 0.31665 0.81697 0.37154 0.0
C2425 C 0.34402 0.83334 0.394 0.0
C2426 C 0.334 0.81753 0.44933 0.0
H2427 H 0.41111 0.85889 0.51686 0.0
H2428 H 0.39714 0.85428 0.48234 0.0
H2429 H 0.33412 0.81607 0.48253 0.0
H2430 H 0.29385 0.79223 0.38553 0.0
H2431 H 0.3098 0.79492 0.41853 0.0
H2432 H 0.37341 0.83249 0.41785 0.0
C2433 C 0.38983 0.84392 0.49436 0.0
C2434 C 0.34288 0.81952 0.46854 0.0
C2435 C 0.39784 0.84659 0.5142 0.0
C2436 C 0.30785 0.80381 0.38761 0.0
C2437 C 0.31698 0.80542 0.40663 0.0
C2438 C 0.36466 0.82897 0.43184 0.0
C2439 C 0.37217 0.82853 0.49039 0.0
C2440 C 0.36279 0.82627 0.46974 0.0
C2441 C 0.33518 0.82026 0.41016 0.0
C2442 C 0.34473 0.82222 0.43067 0.0
H2443 H 0.36351 0.80809 0.53851 0.0
H2444 H 0.34978 0.80336 0.50406 0.0
H2445 H 0.38888 0.83602 0.45135 0.0
H2446 H 0.34213 0.84216 0.36301 0.0
H2447 H 0.35788 0.84508 0.39615 0.0
C2448 C 0.2706 0.15288 0.1726 0.0
C2449 C 0.26728 0.15049 0.15125 0.0
C2450 C 0.28587 0.15144 0.18159 0.0
C2451 C 0.33387 0.15913 0.1667 0.0
H2452 H 0.33429 0.14146 0.22272 0.0
C2453 C 0.40345 0.16603 0.20429 0.0
C2454 C 0.40599 0.1703 0.22543 0.0
C2455 C 0.38596 0.16152 0.19472 0.0
C2456 C 0.3345 0.14663 0.2071 0.0
H2457 H 0.27689 0.14432 0.12258 0.0
H2458 H 0.30335 0.14138 0.13826 0.0
H2459 H 0.30403 0.13587 0.20738 0.0
H2460 H 0.39225 0.1738 0.25279 0.0
H2461 H 0.36211 0.16623 0.2362 0.0
H2462 H 0.36435 0.17037 0.16658 0.0
C2463 C 0.29419 0.14435 0.14813 0.0
C2464 C 0.31709 0.14334 0.19828 0.0
C2465 C 0.27885 0.1457 0.13921 0.0
C2466 C 0.39072 0.17022 0.23662 0.0
C2467 C 0.37334 0.1658 0.22707 0.0
C2468 C 0.35129 0.1625 0.17555 0.0
C2469 C 0.29834 0.14789 0.16929 0.0
C2470 C 0.31656 0.14974 0.17804 0.0
C2471 C 0.3706 0.16124 0.20602 0.0
C2472 C 0.35191 0.15654 0.196 0.0
H2473 H 0.26226 0.15719 0.18205 0.0
H2474 H 0.28872 0.15444 0.19786 0.0
H2475 H 0.33409 0.16455 0.1512 0.0
H2476 H 0.41482 0.16579 0.19526 0.0
H2477 H 0.38439 0.15794 0.17853 0.0
C2478 C 0.83733 0.22624 0.21132 0.0
C2479 C 0.85536 0.23995 0.21739 0.0
C2480 C 0.83549 0.21057 0.20179 0.0
C2481 C 0.86315 0.19225 0.17356 0.0
H2482 H 0.82207 0.14522 0.19191 0.0
C2483 C 0.86152 0.12463 0.15197 0.0
C2484 C 0.84374 0.10962 0.14757 0.0
C2485 C 0.86258 0.14063 0.15969 0.0
C2486 C 0.83348 0.15824 0.18637 0.0
H2487 H 0.88565 0.24812 0.2175 0.0
H2488 H 0.88244 0.22083 0.20112 0.0
H2489 H 0.82439 0.17295 0.20629 0.0
H2490 H 0.81309 0.09984 0.14804 0.0
H2491 H 0.81496 0.12778 0.16098 0.0
H2492 H 0.87228 0.17758 0.15366 0.0
C2493 C 0.8697 0.22217 0.20366 0.0
C2494 C 0.8348 0.17416 0.19464 0.0
C2495 C 0.87152 0.23776 0.21327 0.0
C2496 C 0.82706 0.11111 0.15102 0.0
C2497 C 0.82811 0.12711 0.15871 0.0
C2498 C 0.8618 0.17634 0.16525 0.0
C2499 C 0.85165 0.20829 0.19794 0.0
C2500 C 0.84974 0.19137 0.18845 0.0
C2501 C 0.84589 0.14209 0.16319 0.0
C2502 C 0.84702 0.15909 0.17164 0.0
H2503 H 0.82456 0.22739 0.21438 0.0
H2504 H 0.82139 0.20023 0.1974 0.0
H2505 H 0.87467 0.20529 0.16819 0.0
H2506 H 0.87471 0.12415 0.14934 0.0
H2507 H 0.87651 0.15177 0.16317 0.0
C2508 C 0.81401 0.59412 0.21273 0.0
C2509 C 0.81467 0.59366 0.23456 0.0
C2510 C 0.82763 0.60918 0.20111 0.0
C2511 C 0.87563 0.65035 0.2053 0.0
H2512 H 0.85957 0.66746 0.15672 0.0
C2513 C 0.92234 0.72135 0.16628 0.0
C2514 C 0.92383 0.72212 0.14449 0.0
C2515 C 0.90927 0.70529 0.17679 0.0
C2516 C 0.86431 0.66275 0.17015 0.0
H2517 H 0.83082 0.60874 0.26105 0.0
H2518 H 0.85383 0.63498 0.24106 0.0
H2519 H 0.83648 0.64005 0.1757 0.0
H2520 H 0.91244 0.70668 0.11667 0.0
H2521 H 0.88958 0.6787 0.135 0.0
H2522 H 0.90334 0.67334 0.19998 0.0
C2523 C 0.84301 0.62363 0.23279 0.0
C2524 C 0.85109 0.64698 0.18101 0.0
C2525 C 0.82952 0.60857 0.24435 0.0
C2526 C 0.91181 0.70649 0.13346 0.0
C2527 C 0.89858 0.69051 0.14395 0.0
C2528 C 0.88877 0.6662 0.19457 0.0
C2529 C 0.84226 0.62421 0.211 0.0
C2530 C 0.85653 0.64059 0.19883 0.0
C2531 C 0.89721 0.68969 0.16574 0.0
C2532 C 0.88326 0.67265 0.17693 0.0
H2533 H 0.8028 0.58301 0.20456 0.0
H2534 H 0.82671 0.60898 0.18435 0.0
H2535 H 0.88052 0.6457 0.21865 0.0
H2536 H 0.93148 0.7331 0.17523 0.0
H2537 H 0.90845 0.70515 0.19358 0.0
C2538 C 0.20786 0.41858 0.34603 0.0
C2539 C 0.20097 0.41853 0.32594 0.0
C2540 C 0.20655 0.40265 0.35511 0.0
C2541 C 0.20175 0.35789 0.34223 0.0
H2542 H 0.18656 0.34577 0.40013 0.0
C2543 C 0.18783 0.28919 0.38034 0.0
C2544 C 0.19416 0.28942 0.40076 0.0
C2545 C 0.18826 0.30474 0.37119 0.0
C2546 C 0.19105 0.34905 0.38401 0.0
H2547 H 0.18737 0.40163 0.29965 0.0
H2548 H 0.18495 0.37376 0.31556 0.0
H2549 H 0.18803 0.37321 0.38424 0.0
H2550 H 0.20576 0.30635 0.42755 0.0
H2551 H 0.20698 0.33353 0.41145 0.0
H2552 H 0.20499 0.33387 0.34202 0.0
C2553 C 0.19147 0.38619 0.32423 0.0
C2554 C 0.19186 0.36477 0.37489 0.0
C2555 C 0.19268 0.40212 0.31519 0.0
C2556 C 0.20094 0.30565 0.41176 0.0
C2557 C 0.20142 0.32122 0.40259 0.0
C2558 C 0.20102 0.3422 0.35136 0.0
C2559 C 0.19839 0.38628 0.3443 0.0
C2560 C 0.19725 0.3694 0.35391 0.0
C2561 C 0.19509 0.32097 0.38218 0.0
C2562 C 0.19569 0.33759 0.37239 0.0
H2563 H 0.21412 0.43092 0.35484 0.0
H2564 H 0.21217 0.40322 0.37052 0.0
H2565 H 0.20622 0.3612 0.3261 0.0
H2566 H 0.18271 0.27706 0.37126 0.0
H2567 H 0.18307 0.30397 0.35554 0.0
C2568 C 0.65282 0.80273 0.32751 0.0
C2569 C 0.6449 0.81045 0.3136 0.0
C2570 C 0.67123 0.81341 0.33545 0.0
C2571 C 0.71592 0.85668 0.32328 0.0
H2572 H 0.72963 0.85229 0.37999 0.0
C2573 C 0.78351 0.91251 0.36056 0.0
C2574 C 0.79445 0.90738 0.37347 0.0
C2575 C 0.76597 0.89945 0.35297 0.0
C2576 C 0.72609 0.85351 0.36402 0.0
H2577 H 0.64951 0.83564 0.29835 0.0
H2578 H 0.6811 0.85418 0.31233 0.0
H2579 H 0.69728 0.83186 0.36814 0.0
H2580 H 0.79553 0.88439 0.38841 0.0
H2581 H 0.76469 0.86142 0.37513 0.0
H2582 H 0.74449 0.87852 0.31924 0.0
C2583 C 0.67358 0.8398 0.31659 0.0
C2584 C 0.70753 0.84179 0.35722 0.0
C2585 C 0.65538 0.82918 0.30862 0.0
C2586 C 0.78753 0.88875 0.37833 0.0
C2587 C 0.76978 0.87563 0.37091 0.0
C2588 C 0.73434 0.8684 0.33009 0.0
C2589 C 0.68201 0.83204 0.32971 0.0
C2590 C 0.70209 0.84346 0.33684 0.0
C2591 C 0.75875 0.88085 0.3582 0.0
C2592 C 0.7396 0.8672 0.35063 0.0
H2593 H 0.64511 0.78833 0.33157 0.0
H2594 H 0.67724 0.80695 0.34551 0.0
H2595 H 0.71249 0.85807 0.30732 0.0
H2596 H 0.7885 0.92673 0.35647 0.0
H2597 H 0.7578 0.904 0.34339 0.0
C2598 C 0.24394 0.8383 0.35546 0.0
C2599 C 0.24391 0.83767 0.33367 0.0
C2600 C 0.22849 0.83815 0.36635 0.0
C2601 C 0.17728 0.82682 0.361 0.0
H2602 H 0.18831 0.86146 0.40463 0.0
C2603 C 0.12035 0.84528 0.39285 0.0
C2604 C 0.12103 0.8498 0.41384 0.0
C2605 C 0.13458 0.84198 0.38411 0.0
C2606 C 0.18486 0.85146 0.39273 0.0
H2607 H 0.22713 0.83553 0.3064 0.0
H2608 H 0.20048 0.83536 0.3252 0.0
H2609 H 0.2144 0.85878 0.38801 0.0
H2610 H 0.13688 0.85359 0.44227 0.0
H2611 H 0.16127 0.84742 0.42725 0.0
H2612 H 0.14777 0.81954 0.36561 0.0
C2613 C 0.21237 0.836 0.33398 0.0
C2614 C 0.1999 0.84995 0.38317 0.0
C2615 C 0.22781 0.83632 0.32314 0.0
C2616 C 0.13591 0.85026 0.42602 0.0
C2617 C 0.15006 0.84687 0.41732 0.0
C2618 C 0.16223 0.82828 0.37062 0.0
C2619 C 0.21254 0.83711 0.35572 0.0
C2620 C 0.19636 0.83776 0.36699 0.0
C2621 C 0.14984 0.84302 0.39613 0.0
C2622 C 0.16579 0.84076 0.3865 0.0
H2623 H 0.25611 0.83941 0.36405 0.0
H2624 H 0.22905 0.83885 0.38312 0.0
H2625 H 0.17395 0.81707 0.34882 0.0
H2626 H 0.1092 0.84492 0.38295 0.0
H2627 H 0.13394 0.83925 0.36771 0.0
C2628 C 0.73849 0.84049 0.87282 0.0
C2629 C 0.739 0.83549 0.89369 0.0
C2630 C 0.72095 0.83493 0.86294 0.0
C2631 C 0.67011 0.82035 0.87529 0.0
H2632 H 0.66308 0.80918 0.8169 0.0
C2633 C 0.60059 0.8079 0.8335 0.0
C2634 C 0.60413 0.81831 0.81501 0.0
C2635 C 0.61538 0.80573 0.84282 0.0
C2636 C 0.6648 0.81226 0.83324 0.0
H2637 H 0.72142 0.81971 0.92007 0.0
H2638 H 0.69101 0.81003 0.90292 0.0
H2639 H 0.69261 0.81407 0.8336 0.0
H2640 H 0.62539 0.83352 0.79106 0.0
H2641 H 0.65084 0.82966 0.807 0.0
H2642 H 0.64256 0.81908 0.8748 0.0
C2643 C 0.7041 0.81861 0.89429 0.0
C2644 C 0.68177 0.81513 0.84279 0.0
C2645 C 0.72158 0.82418 0.90414 0.0
C2646 C 0.62225 0.82546 0.80537 0.0
C2647 C 0.63685 0.82314 0.81447 0.0
C2648 C 0.65314 0.81749 0.86573 0.0
C2649 C 0.70351 0.82419 0.87369 0.0
C2650 C 0.68482 0.81958 0.86385 0.0
C2651 C 0.63383 0.81371 0.8336 0.0
C2652 C 0.65044 0.81382 0.84447 0.0
H2653 H 0.75161 0.84928 0.86437 0.0
H2654 H 0.72107 0.83964 0.84711 0.0
H2655 H 0.672 0.82394 0.89147 0.0
H2656 H 0.58679 0.80235 0.84132 0.0
H2657 H 0.61254 0.79825 0.8575 0.0
C2658 C 0.19475 0.78442 0.83516 0.0
C2659 C 0.17952 0.77336 0.82231 0.0
C2660 C 0.19616 0.80049 0.84304 0.0
C2661 C 0.17851 0.83432 0.83566 0.0
H2662 H 0.1966 0.847 0.89179 0.0
C2663 C 0.17625 0.89337 0.88004 0.0
C2664 C 0.19249 0.90441 0.8917 0.0
C2665 C 0.17447 0.87758 0.87084 0.0
C2666 C 0.19168 0.84375 0.87602 0.0
H2667 H 0.15399 0.77104 0.80746 0.0
H2668 H 0.15614 0.79865 0.8217 0.0
H2669 H 0.19377 0.81915 0.87738 0.0
H2670 H 0.21996 0.90773 0.90185 0.0
H2671 H 0.2167 0.88025 0.88614 0.0
H2672 H 0.17619 0.85891 0.83454 0.0
C2673 C 0.16718 0.79501 0.82546 0.0
C2674 C 0.19011 0.82777 0.8677 0.0
C2675 C 0.16581 0.77897 0.81748 0.0
C2676 C 0.20704 0.89942 0.89347 0.0
C2677 C 0.2052 0.88363 0.88441 0.0
C2678 C 0.17996 0.85026 0.84406 0.0
C2679 C 0.18233 0.80596 0.83844 0.0
C2680 C 0.18364 0.82288 0.84735 0.0
C2681 C 0.18883 0.87241 0.87317 0.0
C2682 C 0.18671 0.85523 0.86428 0.0
H2683 H 0.20553 0.78062 0.83946 0.0
H2684 H 0.20822 0.80868 0.8527 0.0
H2685 H 0.1737 0.83115 0.81985 0.0
H2686 H 0.16468 0.89663 0.87844 0.0
H2687 H 0.16162 0.86916 0.86237 0.0
C2688 C 0.24283 0.39633 0.81969 0.0
C2689 C 0.25722 0.39463 0.80874 0.0
C2690 C 0.22757 0.38107 0.82933 0.0
C2691 C 0.20161 0.33029 0.82887 0.0
H2692 H 0.18164 0.33485 0.88207 0.0
C2693 C 0.1448 0.26776 0.87709 0.0
C2694 C 0.13055 0.26999 0.88763 0.0
C2695 C 0.16023 0.28268 0.86711 0.0
C2696 C 0.18688 0.33335 0.86709 0.0
H2697 H 0.26695 0.37544 0.79997 0.0
H2698 H 0.24054 0.34898 0.8168 0.0
H2699 H 0.2085 0.36134 0.86579 0.0
H2700 H 0.12105 0.28968 0.89494 0.0
H2701 H 0.14774 0.31548 0.87768 0.0
H2702 H 0.17997 0.30225 0.83025 0.0
C2703 C 0.24079 0.36204 0.81759 0.0
C2704 C 0.20232 0.34859 0.85773 0.0
C2705 C 0.25601 0.37728 0.80792 0.0
C2706 C 0.13192 0.28745 0.88745 0.0
C2707 C 0.1473 0.30231 0.87752 0.0
C2708 C 0.18616 0.31502 0.83826 0.0
C2709 C 0.22628 0.36367 0.82835 0.0
C2710 C 0.20989 0.34732 0.83844 0.0
C2711 C 0.1618 0.30022 0.8674 0.0
C2712 C 0.17852 0.31636 0.85747 0.0
H2713 H 0.24309 0.40938 0.82043 0.0
H2714 H 0.21656 0.38286 0.83721 0.0
H2715 H 0.20682 0.3288 0.81388 0.0
H2716 H 0.14433 0.25459 0.87702 0.0
H2717 H 0.17119 0.28056 0.85961 0.0
C2718 C 0.86258 0.73457 0.64428 0.0
C2719 C 0.86325 0.74965 0.65435 0.0
C2720 C 0.8614 0.71961 0.65565 0.0
C2721 C 0.87054 0.70514 0.70699 0.0
H2722 H 0.83606 0.65669 0.68806 0.0
C2723 C 0.85685 0.63985 0.75395 0.0
C2724 C 0.85499 0.62481 0.74278 0.0
C2725 C 0.85756 0.65512 0.74366 0.0
C2726 C 0.84595 0.6701 0.69344 0.0
H2727 H 0.86342 0.76072 0.68452 0.0
H2728 H 0.86154 0.73459 0.70441 0.0
H2729 H 0.83795 0.68326 0.66952 0.0
H2730 H 0.85268 0.61426 0.71191 0.0
H2731 H 0.8541 0.64089 0.69394 0.0
H2732 H 0.87872 0.69199 0.73078 0.0
C2733 C 0.86198 0.73446 0.68762 0.0
C2734 C 0.84699 0.68536 0.68282 0.0
C2735 C 0.86307 0.74946 0.6762 0.0
C2736 C 0.85384 0.62546 0.72103 0.0
C2737 C 0.85463 0.64076 0.71073 0.0
C2738 C 0.86956 0.68986 0.71759 0.0
C2739 C 0.86096 0.71928 0.67745 0.0
C2740 C 0.85939 0.70308 0.68936 0.0
C2741 C 0.85649 0.65581 0.7219 0.0
C2742 C 0.85732 0.67212 0.71088 0.0
H2743 H 0.86316 0.73431 0.62753 0.0
H2744 H 0.86107 0.70835 0.6473 0.0
H2745 H 0.8804 0.71859 0.7123 0.0
H2746 H 0.85746 0.63973 0.77072 0.0
H2747 H 0.85867 0.66628 0.75283 0.0
C2748 C 0.3234 0.13652 0.66735 0.0
C2749 C 0.30427 0.13301 0.66772 0.0
C2750 C 0.33769 0.15201 0.67646 0.0
C2751 C 0.3468 0.18799 0.71394 0.0
H2752 H 0.39409 0.21432 0.68213 0.0
C2753 C 0.40846 0.2586 0.73719 0.0
C2754 C 0.42726 0.26145 0.73436 0.0
C2755 C 0.39284 0.2429 0.72987 0.0
C2756 C 0.38108 0.20704 0.69135 0.0
H2757 H 0.28511 0.14287 0.67855 0.0
H2758 H 0.31015 0.17002 0.69458 0.0
H2759 H 0.36798 0.18699 0.66824 0.0
H2760 H 0.44419 0.24978 0.72159 0.0
H2761 H 0.41712 0.22241 0.70941 0.0
H2762 H 0.36005 0.20813 0.73711 0.0
C2763 C 0.31403 0.16066 0.68727 0.0
C2764 C 0.36609 0.19136 0.68337 0.0
C2765 C 0.29967 0.1451 0.6781 0.0
C2766 C 0.42999 0.24806 0.72431 0.0
C2767 C 0.41442 0.23241 0.71703 0.0
C2768 C 0.36187 0.20373 0.72197 0.0
C2769 C 0.33326 0.16445 0.68622 0.0
C2770 C 0.34883 0.18151 0.69464 0.0
C2771 C 0.39566 0.2297 0.7195 0.0
C2772 C 0.37927 0.21333 0.71085 0.0
H2773 H 0.3274 0.1273 0.65994 0.0
H2774 H 0.35228 0.15427 0.67581 0.0
H2775 H 0.33373 0.18066 0.72306 0.0
H2776 H 0.40579 0.26851 0.74503 0.0
H2777 H 0.37859 0.24129 0.73195 0.0
C2778 C 0.91264 0.19666 0.65451 0.0
C2779 C 0.91467 0.18108 0.65906 0.0
C2780 C 0.89879 0.19954 0.66474 0.0
C2781 C 0.86677 0.18518 0.71147 0.0
H2782 H 0.8378 0.20323 0.67936 0.0
C2783 C 0.79513 0.17782 0.74088 0.0
C2784 C 0.79058 0.192 0.73727 0.0
C2785 C 0.81153 0.1785 0.73213 0.0
C2786 C 0.84595 0.19847 0.68864 0.0
H2787 H 0.90365 0.15644 0.67829 0.0
H2788 H 0.87946 0.1614 0.69611 0.0
H2789 H 0.86372 0.20016 0.6627 0.0
H2790 H 0.8 0.21818 0.7216 0.0
H2791 H 0.8289 0.21935 0.70604 0.0
H2792 H 0.8488 0.18318 0.7373 0.0
C2793 C 0.88877 0.17154 0.68473 0.0
C2794 C 0.86083 0.19667 0.67908 0.0
C2795 C 0.90267 0.16866 0.67449 0.0
C2796 C 0.80308 0.20705 0.72472 0.0
C2797 C 0.81957 0.20766 0.71574 0.0
C2798 C 0.85191 0.18695 0.72099 0.0
C2799 C 0.88652 0.18696 0.67988 0.0
C2800 C 0.87128 0.18975 0.69029 0.0
C2801 C 0.82398 0.19335 0.71938 0.0
C2802 C 0.84108 0.19334 0.70964 0.0
H2803 H 0.92184 0.20675 0.64305 0.0
H2804 H 0.89779 0.21175 0.66085 0.0
H2805 H 0.87473 0.1802 0.72075 0.0
H2806 H 0.78592 0.16599 0.75047 0.0
H2807 H 0.81422 0.16709 0.73504 0.0
C2808 C 0.05544 0.48515 0.56298 0.0
C2809 C 0.07255 0.50179 0.56132 0.0
C2810 C 0.03873 0.48312 0.55357 0.0
C2811 C 1.02129 0.50338 0.51276 0.0
H2812 H 0.97304 0.47828 0.54317 0.0
C2813 C 0.95557 0.5102 0.48867 0.0
C2814 C 0.93736 0.49476 0.48972 0.0
C2815 C 0.9715 0.5096 0.49677 0.0
C2816 C 0.98634 0.48509 0.53434 0.0
H2817 H 0.08532 0.52933 0.54833 0.0
H2818 H 0.05623 0.5258 0.53191 0.0
H2819 H 1.00204 0.48025 0.55841 0.0
H2820 H 0.92168 0.46652 0.50029 0.0
H2821 H 0.94975 0.46545 0.51457 0.0
H2822 H 1.00569 0.50843 0.48882 0.0
C2823 C 0.0558 0.51423 0.54031 0.0
C2824 C 1.00299 0.48624 0.54308 0.0
C2825 C 0.07253 0.51627 0.54974 0.0
C2826 C 0.93549 0.47864 0.49922 0.0
C2827 C 0.95155 0.47806 0.50746 0.0
C2828 C 1.00468 0.50223 0.50404 0.0
C2829 C 0.03865 0.49765 0.54219 0.0
C2830 C 1.02073 0.49563 0.53251 0.0
C2831 C 0.96978 0.49355 0.50621 0.0
C2832 C 0.98704 0.49332 0.51484 0.0
H2833 H 0.05495 0.47358 0.57142 0.0
H2834 H 0.02589 0.47007 0.55505 0.0
H2835 H 0.0346 0.51036 0.50397 0.0
H2836 H 0.95761 0.5229 0.48155 0.0
H2837 H 0.9852 0.52188 0.49587 0.0
C2838 C 0.5177 0.56898 0.5278 0.0
C2839 C 0.52326 0.5725 0.54863 0.0
C2840 C 0.51556 0.55305 0.51854 0.0
C2841 C 0.50916 0.50663 0.5315 0.0
H2842 H 0.5276 0.50906 0.47515 0.0
C2843 C 0.51678 0.44706 0.49609 0.0
C2844 C 0.51153 0.44296 0.47526 0.0
C2845 C 0.51775 0.46271 0.50484 0.0
C2846 C 0.52217 0.50807 0.49083 0.0
H2847 H 0.53033 0.56152 0.57611 0.0
H2848 H 0.52705 0.53425 0.55998 0.0
H2849 H 0.5296 0.53636 0.49049 0.0
H2850 H 0.50355 0.45253 0.4473 0.0
H2851 H 0.50495 0.4795 0.46259 0.0
H2852 H 0.50185 0.47838 0.5319 0.0
C2853 C 0.52418 0.54367 0.55076 0.0
C2854 C 0.52329 0.52376 0.49963 0.0
C2855 C 0.52633 0.55953 0.55997 0.0
C2856 C 0.5074 0.45502 0.46344 0.0
C2857 C 0.50843 0.47068 0.47216 0.0
C2858 C 0.50807 0.49097 0.52272 0.0
C2859 C 0.51882 0.54018 0.5299 0.0
C2860 C 0.51691 0.5233 0.52014 0.0
C2861 C 0.5136 0.47476 0.49299 0.0
C2862 C 0.51463 0.49147 0.50229 0.0
H2863 H 0.51528 0.57865 0.51855 0.0
H2864 H 0.51122 0.55077 0.5025 0.0
H2865 H 0.50377 0.50561 0.54719 0.0
H2866 H 0.51994 0.43808 0.50573 0.0
H2867 H 0.52199 0.46548 0.52087 0.0
C2868 C 0.56869 0.06214 0.49622 0.0
C2869 C 0.58422 0.06214 0.4857 0.0
C2870 C 0.55425 0.04609 0.50547 0.0
C2871 C 0.5325 0.99571 0.50435 0.0
H2872 H 0.51152 0.99761 0.55806 0.0
C2873 C 0.47937 0.93062 0.55146 0.0
C2874 C 0.4645 0.93143 0.56245 0.0
C2875 C 0.49399 0.9463 0.5417 0.0
C2876 C 0.51704 0.99684 0.54294 0.0
H2877 H 0.59676 0.04509 0.4771 0.0
H2878 H 0.57163 0.0172 0.49316 0.0
H2879 H 0.53689 0.02539 0.54205 0.0
H2880 H 0.45296 0.94931 0.57092 0.0
H2881 H 0.47822 0.97646 0.55391 0.0
H2882 H 0.51258 0.96714 0.50524 0.0
C2883 C 0.57046 0.02958 0.49397 0.0
C2884 C 0.53162 1.01281 0.53375 0.0
C2885 C 0.58491 0.04563 0.48475 0.0
C2886 C 0.46438 0.94822 0.56301 0.0
C2887 C 0.47892 0.96384 0.55325 0.0
C2888 C 0.51787 0.97972 0.51354 0.0
C2889 C 0.55492 0.02959 0.50445 0.0
C2890 C 0.53951 1.01248 0.5143 0.0
C2891 C 0.49405 0.96317 0.54265 0.0
C2892 C 0.50988 0.98009 0.53292 0.0
H2893 H 0.56745 0.07446 0.49703 0.0
H2894 H 0.54236 0.04657 0.51314 0.0
H2895 H 0.53806 0.99498 0.48924 0.0
H2896 H 0.48002 0.91798 0.55086 0.0
H2897 H 0.5055 0.94529 0.53384 0.0
C2898 C 0.52415 0.07549 0.9923 0.0
C2899 C 0.53929 0.08187 0.97766 0.0
C2900 C 0.51642 0.05775 1.00098 0.0
C2901 C 0.52769 0.01967 1.00971 0.0
H2902 H 0.47275 0.9895 1.01546 0.0
C2903 C 0.49428 0.94259 0.02804 0.0
C2904 C 0.47913 0.9348 0.04267 0.0
C2905 C 0.50079 0.96036 1.02015 0.0
C2906 C 0.48813 0.99779 1.01417 0.0
H2907 H 0.55851 0.07469 0.96128 0.0
H2908 H 0.54506 0.04398 0.97613 0.0
H2909 H 0.48595 0.02105 1.00261 0.0
H2910 H 0.45862 0.93969 0.05994 0.0
H2911 H 0.46992 0.97065 0.04611 0.0
H2912 H 0.52996 0.99654 1.0212 0.0
C2913 C 0.53911 0.0526 0.981 0.0
C2914 C 0.49572 0.01592 1.00683 0.0
C2915 C 0.54671 0.0702 0.97227 0.0
C2916 C 0.47019 0.9451 0.04858 0.0
C2917 C 0.47671 0.96292 0.04066 0.0
C2918 C 0.52014 1.00162 1.01704 0.0
C2919 C 0.5238 0.04605 0.99541 0.0
C2920 C 0.51561 0.02705 1.0043 0.0
C2921 C 0.49235 0.97093 0.02663 0.0
C2922 C 0.50025 0.99034 1.01919 0.0
H2923 H 0.51802 0.08406 0.9967 0.0
H2924 H 0.50474 0.05324 1.01215 0.0
H2925 H 0.54309 0.02791 1.00839 0.0
H2926 H 0.50127 0.93499 1.0228 0.0
H2927 H 0.51255 0.96586 1.009 0.0
C2928 C 0.9859 0.46207 0.98673 0.0
C2929 C 0.96811 0.45164 0.99685 0.0
C2930 C 1.00025 0.47768 0.99573 0.0
C2931 C 1.00862 0.51163 0.03638 0.0
H2932 H 0.06139 0.52195 0.03006 0.0
C2933 C 0.07016 0.56731 0.08279 0.0
C2934 C 0.08759 0.57849 0.07222 0.0
C2935 C 0.05561 0.5521 0.07338 0.0
C2936 C 0.04676 0.51939 0.03179 0.0
H2937 H 0.95153 0.44956 1.02447 0.0
H2938 H 0.97662 0.47666 0.04039 0.0
H2939 H 0.03601 0.49498 1.01448 0.0
H2940 H 0.10304 0.58217 0.04315 0.0
H2941 H 0.07775 0.55554 0.02689 0.0
H2942 H 1.01944 0.53597 0.05395 0.0
C2943 C 0.9794 0.47294 0.02526 0.0
C2944 C 0.03215 0.5039 1.02282 0.0
C2945 C 0.96498 0.45736 1.01616 0.0
C2946 C 0.09001 0.57387 0.05195 0.0
C2947 C 0.07546 0.55856 0.04258 0.0
C2948 C 1.02323 0.52707 0.04545 0.0
C2949 C 0.99729 0.48329 1.01521 0.0
C2950 C 1.01286 0.49979 0.02494 0.0
C2951 C 0.05804 0.5475 0.05316 0.0
C2952 C 0.0425 0.53116 0.04327 0.0
H2953 H 0.98872 0.45832 0.97166 0.0
H2954 H 1.01361 0.48546 0.98725 0.0
H2955 H 0.99402 0.50915 0.0381 0.0
H2956 H 0.06775 0.57007 0.09851 0.0
H2957 H 0.04253 0.54373 0.08213 0.0
C2958 C 0.55737 0.50392 0.99209 0.0
C2959 C 0.57224 0.50355 1.00352 0.0
C2960 C 0.54236 0.50505 1.00211 0.0
C2961 C 0.53028 0.52033 0.05035 0.0
H2962 H 0.4781 0.49237 0.03173 0.0
C2963 C 0.4678 0.52486 0.09098 0.0
C2964 C 0.45382 0.52548 0.07818 0.0
C2965 C 0.48138 0.52043 0.08289 0.0
C2966 C 0.4926 0.50042 0.03701 0.0
H2967 H 0.58283 0.50397 0.03454 0.0
H2968 H 0.55656 0.50593 0.05211 0.0
H2969 H 0.50345 0.48801 1.0158 0.0
H2970 H 0.44294 0.5215 0.04685 0.0
H2971 H 0.46676 0.51411 0.03266 0.0
H2972 H 0.51961 0.53308 0.0712 0.0
C2973 C 0.5566 0.50541 0.03533 0.0
C2974 C 0.50714 0.49789 0.02789 0.0
C2975 C 0.57157 0.50412 0.02529 0.0
C2976 C 0.45345 0.52108 0.05719 0.0
C2977 C 0.4671 0.51675 0.04906 0.0
C2978 C 0.51576 0.52295 0.0594 0.0
C2979 C 0.54184 0.50595 1.02385 0.0
C2980 C 0.52619 0.50792 0.03433 0.0
C2981 C 0.48143 0.5166 0.06173 0.0
C2982 C 0.49673 0.51314 0.05275 0.0
H2983 H 0.55728 0.50327 0.97533 0.0
H2984 H 0.53134 0.5056 0.99276 0.0
H2985 H 0.54483 0.52846 0.0555 0.0
H2986 H 0.46846 0.52807 0.10725 0.0
H2987 H 0.49194 0.52012 0.09323 0.0
loop_
_geom_bond_atom_site_label_1
_geom_bond_atom_site_label_2
_geom_bond_distance
_geom_bond_site_symmetry_2
_ccdc_geom_bond_type
Cu0 N1 1.999 . S
Cu0 O6 1.974 . S
Cu0 N11 1.985 . S
Cu0 O20 1.959 . S
N1 Cu0 1.999 . S
N1 C3 1.263 . S
N1 C5 1.389 . S
N2 C3 1.358 . S
N2 C4 1.400 . S
C3 N1 1.263 . S
C3 N2 1.358 . S
C3 H9 0.930 . S
C4 N2 1.400 . S
C4 C5 1.351 . S
C4 H21 0.930 . S
C5 N1 1.389 . S
C5 C4 1.351 . S
C5 H10 0.930 . S
O6 Cu0 1.974 . S
O6 C16 1.282 . S
C7 O8 1.261 . S
C7 O20 1.251 . S
O8 C7 1.261 . S
H9 C3 0.930 . S
H10 C5 0.930 . S
N11 Cu0 1.985 . S
N11 C13 1.335 . S
N11 C14 1.390 . S
N12 C13 1.345 . S
N12 C15 1.336 . S
C13 N11 1.335 . S
C13 N12 1.345 . S
C13 H18 0.930 . S
C14 N11 1.390 . S
C14 C15 1.346 . S
C14 H19 0.930 . S
C15 N12 1.336 . S
C15 C14 1.346 . S
C15 H22 0.929 . S
C16 O6 1.282 . S
C16 O17 1.216 . S
O17 C16 1.216 . S
H18 C13 0.930 . S
H19 C14 0.930 . S
O20 Cu0 1.959 . S
O20 C7 1.251 . S
H21 C4 0.930 . S
H22 C15 0.929 . S
Cu23 N24 1.999 . S
Cu23 O29 1.974 . S
Cu23 N34 1.985 . S
Cu23 O43 1.959 . S
N24 Cu23 1.999 . S
N24 C26 1.263 . S
N24 C28 1.389 . S
N25 C26 1.358 . S
N25 C27 1.400 1_545 S
C26 N24 1.263 . S
C26 N25 1.358 . S
C26 H32 0.930 . S
C27 N25 1.400 1_565 S
C27 C28 1.351 1_565 S
C27 H44 0.930 . S
C28 N24 1.389 . S
C28 C27 1.351 1_545 S
C28 H33 0.930 . S
O29 Cu23 1.974 . S
O29 C39 1.282 . S
C30 O31 1.261 . S
C30 O43 1.251 . S
O31 C30 1.261 . S
H32 C26 0.930 . S
H33 C28 0.930 . S
N34 Cu23 1.985 . S
N34 C36 1.335 . S
N34 C37 1.390 . S
N35 C36 1.345 . S
N35 C38 1.336 . S
C36 N34 1.335 . S
C36 N35 1.345 . S
C36 H41 0.930 . S
C37 N34 1.390 . S
C37 C38 1.346 . S
C37 H42 0.930 . S
C38 N35 1.336 . S
C38 C37 1.346 . S
C38 H45 0.929 . S
C39 O29 1.282 . S
C39 O40 1.216 . S
O40 C39 1.216 . S
H41 C36 0.930 . S
H42 C37 0.930 . S
O43 Cu23 1.959 . S
O43 C30 1.251 . S
H44 C27 0.930 . S
H45 C38 0.929 . S
Cu46 N47 1.999 . S
Cu46 O52 1.974 . S
Cu46 N57 1.985 . S
Cu46 O66 1.959 . S
N47 Cu46 1.999 . S
N47 C49 1.263 . S
N47 C51 1.389 . S
N48 C49 1.358 . S
N48 C50 1.400 . S
C49 N47 1.263 . S
C49 N48 1.358 . S
C49 H55 0.930 . S
C50 N48 1.400 . S
C50 C51 1.351 . S
C50 H67 0.930 1_655 S
C51 N47 1.389 . S
C51 C50 1.351 . S
C51 H56 0.930 . S
O52 Cu46 1.974 . S
O52 C62 1.282 . S
C53 O54 1.261 . S
C53 O66 1.251 . S
O54 C53 1.261 . S
H55 C49 0.930 . S
H56 C51 0.930 . S
N57 Cu46 1.985 . S
N57 C59 1.335 . S
N57 C60 1.390 . S
N58 C59 1.345 . S
N58 C61 1.336 . S
C59 N57 1.335 . S
C59 N58 1.345 . S
C59 H64 0.930 . S
C60 N57 1.390 . S
C60 C61 1.346 . S
C60 H65 0.930 . S
C61 N58 1.336 . S
C61 C60 1.346 . S
C61 H68 0.929 . S
C62 O52 1.282 . S
C62 O63 1.216 . S
O63 C62 1.216 . S
H64 C59 0.930 . S
H65 C60 0.930 . S
O66 Cu46 1.959 . S
O66 C53 1.251 . S
H67 C50 0.930 1_455 S
H68 C61 0.929 . S
Cu69 N70 1.999 . S
Cu69 O75 1.974 . S
Cu69 N80 1.985 . S
Cu69 O89 1.959 . S
N70 Cu69 1.999 . S
N70 C72 1.263 . S
N70 C74 1.389 . S
N71 C72 1.358 . S
N71 C73 1.400 . S
C72 N70 1.263 . S
C72 N71 1.358 . S
C72 H78 0.930 . S
C73 N71 1.400 . S
C73 C74 1.351 . S
C73 H90 0.930 . S
C74 N70 1.389 . S
C74 C73 1.351 . S
C74 H79 0.930 . S
O75 Cu69 1.974 . S
O75 C85 1.282 . S
C76 O77 1.261 . S
C76 O89 1.251 . S
O77 C76 1.261 . S
H78 C72 0.930 . S
H79 C74 0.930 . S
N80 Cu69 1.985 . S
N80 C82 1.335 . S
N80 C83 1.390 . S
N81 C82 1.345 . S
N81 C84 1.336 . S
C82 N80 1.335 . S
C82 N81 1.345 . S
C82 H87 0.930 . S
C83 N80 1.390 . S
C83 C84 1.346 . S
C83 H88 0.930 . S
C84 N81 1.336 . S
C84 C83 1.346 . S
C84 H91 0.929 . S
C85 O75 1.282 . S
C85 O86 1.216 . S
O86 C85 1.216 . S
H87 C82 0.930 . S
H88 C83 0.930 . S
O89 Cu69 1.959 . S
O89 C76 1.251 . S
H90 C73 0.930 . S
H91 C84 0.929 . S
Cu92 N93 1.999 . S
Cu92 O98 1.974 . S
Cu92 N103 1.985 . S
Cu92 O112 1.959 . S
N93 Cu92 1.999 . S
N93 C95 1.263 . S
N93 C97 1.389 . S
N94 C95 1.358 . S
N94 C96 1.397 . S
C95 N93 1.263 . S
C95 N94 1.358 . S
C95 H101 0.930 . S
C96 N94 1.397 . S
C96 C97 1.349 . S
C96 H113 0.935 1_565 S
C97 N93 1.389 . S
C97 C96 1.349 . S
C97 H102 0.930 . S
O98 Cu92 1.974 . S
O98 C108 1.282 . S
C99 O100 1.261 . S
C99 O112 1.251 . S
O100 C99 1.261 . S
H101 C95 0.930 . S
H102 C97 0.930 . S
N103 Cu92 1.985 . S
N103 C105 1.335 . S
N103 C106 1.390 . S
N104 C105 1.345 . S
N104 C107 1.336 . S
C105 N103 1.335 . S
C105 N104 1.345 . S
C105 H110 0.930 . S
C106 N103 1.390 . S
C106 C107 1.346 . S
C106 H111 0.930 . S
C107 N104 1.336 . S
C107 C106 1.346 . S
C107 H114 0.929 . S
C108 O98 1.282 . S
C108 O109 1.216 . S
O109 C108 1.216 . S
H110 C105 0.930 . S
H111 C106 0.930 . S
O112 Cu92 1.959 . S
O112 C99 1.251 . S
H113 C96 0.935 1_545 S
H114 C107 0.929 . S
Cu115 N116 1.999 . S
Cu115 O121 1.974 . S
Cu115 N126 1.985 . S
Cu115 O135 1.959 . S
N116 Cu115 1.999 . S
N116 C118 1.263 . S
N116 C120 1.389 . S
N117 C118 1.358 . S
N117 C119 1.400 . S
C118 N116 1.263 . S
C118 N117 1.358 . S
C118 H124 0.930 . S
C119 N117 1.400 . S
C119 C120 1.351 . S
C119 H136 0.930 . S
C120 N116 1.389 . S
C120 C119 1.351 . S
C120 H125 0.930 . S
O121 Cu115 1.974 . S
O121 C131 1.282 . S
C122 O123 1.261 . S
C122 O135 1.251 . S
O123 C122 1.261 . S
H124 C118 0.930 . S
H125 C120 0.930 . S
N126 Cu115 1.985 . S
N126 C128 1.335 . S
N126 C129 1.390 . S
N127 C128 1.345 . S
N127 C130 1.336 . S
C128 N126 1.335 . S
C128 N127 1.345 . S
C128 H133 0.930 . S
C129 N126 1.390 . S
C129 C130 1.346 . S
C129 H134 0.930 . S
C130 N127 1.336 . S
C130 C129 1.346 . S
C130 H137 0.929 . S
C131 O121 1.282 . S
C131 O132 1.216 . S
O132 C131 1.216 . S
H133 C128 0.930 . S
H134 C129 0.930 . S
O135 Cu115 1.959 . S
O135 C122 1.251 . S
H136 C119 0.930 . S
H137 C130 0.929 . S
Cu138 N139 1.999 . S
Cu138 O144 1.974 . S
Cu138 N149 1.985 . S
Cu138 O158 1.959 . S
N139 Cu138 1.999 . S
N139 C141 1.263 . S
N139 C143 1.389 . S
N140 C141 1.358 . S
N140 C142 1.400 . S
C141 N139 1.263 . S
C141 N140 1.358 . S
C141 H147 0.930 . S
C142 N140 1.400 . S
C142 C143 1.351 . S
C142 H159 0.930 . S
C143 N139 1.389 . S
C143 C142 1.351 . S
C143 H148 0.930 . S
O144 Cu138 1.974 . S
O144 C154 1.282 . S
C145 O146 1.261 . S
C145 O158 1.251 . S
O146 C145 1.261 . S
H147 C141 0.930 . S
H148 C143 0.930 . S
N149 Cu138 1.985 . S
N149 C151 1.335 . S
N149 C152 1.390 . S
N150 C151 1.345 . S
N150 C153 1.336 . S
C151 N149 1.335 . S
C151 N150 1.345 . S
C151 H156 0.930 . S
C152 N149 1.390 . S
C152 C153 1.346 . S
C152 H157 0.930 . S
C153 N150 1.336 . S
C153 C152 1.346 . S
C153 H160 0.929 . S
C154 O144 1.282 . S
C154 O155 1.216 . S
O155 C154 1.216 . S
H156 C151 0.930 . S
H157 C152 0.930 . S
O158 Cu138 1.959 . S
O158 C145 1.251 . S
H159 C142 0.930 . S
H160 C153 0.929 . S
Cu161 N162 1.999 . S
Cu161 O167 1.974 . S
Cu161 N172 1.985 . S
Cu161 O181 1.959 . S
N162 Cu161 1.999 . S
N162 C164 1.263 . S
N162 C166 1.389 . S
N163 C164 1.358 . S
N163 C165 1.400 . S
C164 N162 1.263 . S
C164 N163 1.358 . S
C164 H170 0.930 . S
C165 N163 1.400 . S
C165 C166 1.351 . S
C165 H182 0.930 1_565 S
C166 N162 1.389 . S
C166 C165 1.351 . S
C166 H171 0.930 . S
O167 Cu161 1.974 . S
O167 C177 1.282 . S
C168 O169 1.261 . S
C168 O181 1.251 . S
O169 C168 1.261 . S
H170 C164 0.930 . S
H171 C166 0.930 . S
N172 Cu161 1.985 . S
N172 C174 1.335 . S
N172 C175 1.390 . S
N173 C174 1.345 . S
N173 C176 1.336 . S
C174 N172 1.335 . S
C174 N173 1.345 . S
C174 H179 0.930 . S
C175 N172 1.390 . S
C175 C176 1.346 . S
C175 H180 0.930 . S
C176 N173 1.336 . S
C176 C175 1.346 . S
C176 H183 0.929 . S
C177 O167 1.282 . S
C177 O178 1.216 . S
O178 C177 1.216 . S
H179 C174 0.930 . S
H180 C175 0.930 . S
O181 Cu161 1.959 . S
O181 C168 1.251 . S
H182 C165 0.930 1_545 S
H183 C176 0.929 . S
Cu184 N185 1.999 . S
Cu184 O190 1.974 . S
Cu184 N195 1.985 . S
Cu184 O204 1.959 . S
N185 Cu184 1.999 . S
N185 C187 1.263 . S
N185 C189 1.389 . S
N186 C187 1.358 . S
N186 C188 1.400 . S
C187 N185 1.263 . S
C187 N186 1.358 . S
C187 H193 0.930 . S
C188 N186 1.400 . S
C188 C189 1.351 . S
C188 H205 0.930 1_455 S
C189 N185 1.389 . S
C189 C188 1.351 . S
C189 H194 0.930 . S
O190 Cu184 1.974 . S
O190 C200 1.282 . S
C191 O192 1.261 . S
C191 O204 1.251 . S
O192 C191 1.261 . S
H193 C187 0.930 . S
H194 C189 0.930 . S
N195 Cu184 1.985 . S
N195 C197 1.335 . S
N195 C198 1.390 . S
N196 C197 1.345 . S
N196 C199 1.336 . S
C197 N195 1.335 . S
C197 N196 1.345 . S
C197 H202 0.930 . S
C198 N195 1.390 . S
C198 C199 1.346 . S
C198 H203 0.930 . S
C199 N196 1.336 . S
C199 C198 1.346 . S
C199 H206 0.929 . S
C200 O190 1.282 . S
C200 O201 1.216 . S
O201 C200 1.216 . S
H202 C197 0.930 . S
H203 C198 0.930 . S
O204 Cu184 1.959 . S
O204 C191 1.251 . S
H205 C188 0.930 1_655 S
H206 C199 0.929 . S
Cu207 N208 1.999 . S
Cu207 O213 1.974 . S
Cu207 N218 1.985 . S
Cu207 O227 1.959 . S
N208 Cu207 1.999 . S
N208 C210 1.263 . S
N208 C212 1.389 . S
N209 C210 1.358 . S
N209 C211 1.400 . S
C210 N208 1.263 . S
C210 N209 1.358 . S
C210 H216 0.930 . S
C211 N209 1.400 . S
C211 C212 1.351 . S
C211 H228 0.930 . S
C212 N208 1.389 . S
C212 C211 1.351 . S
C212 H217 0.930 . S
O213 Cu207 1.974 . S
O213 C223 1.282 . S
C214 O215 1.261 . S
C214 O227 1.251 . S
O215 C214 1.261 . S
H216 C210 0.930 . S
H217 C212 0.930 . S
N218 Cu207 1.985 . S
N218 C220 1.335 . S
N218 C221 1.390 . S
N219 C220 1.345 . S
N219 C222 1.336 . S
C220 N218 1.335 . S
C220 N219 1.345 . S
C220 H225 0.930 . S
C221 N218 1.390 . S
C221 C222 1.346 . S
C221 H226 0.930 . S
C222 N219 1.336 . S
C222 C221 1.346 . S
C222 H229 0.929 . S
C223 O213 1.282 . S
C223 O224 1.216 . S
O224 C223 1.216 . S
H225 C220 0.930 . S
H226 C221 0.930 . S
O227 Cu207 1.959 . S
O227 C214 1.251 . S
H228 C211 0.930 . S
H229 C222 0.929 . S
Cu230 N231 1.999 . S
Cu230 O236 1.974 . S
Cu230 N241 1.985 . S
Cu230 O250 1.959 . S
N231 Cu230 1.999 . S
N231 C233 1.263 . S
N231 C235 1.389 . S
N232 C233 1.358 . S
N232 C234 1.400 . S
C233 N231 1.263 . S
C233 N232 1.358 . S
C233 H239 0.930 . S
C234 N232 1.400 . S
C234 C235 1.351 . S
C234 H251 0.930 1_545 S
C235 N231 1.389 . S
C235 C234 1.351 . S
C235 H240 0.930 . S
O236 Cu230 1.974 . S
O236 C246 1.282 . S
C237 O238 1.261 . S
C237 O250 1.251 . S
O238 C237 1.261 . S
H239 C233 0.930 . S
H240 C235 0.930 . S
N241 Cu230 1.985 . S
N241 C243 1.335 . S
N241 C244 1.390 . S
N242 C243 1.345 . S
N242 C245 1.336 . S
C243 N241 1.335 . S
C243 N242 1.345 . S
C243 H248 0.930 . S
C244 N241 1.390 . S
C244 C245 1.346 . S
C244 H249 0.930 . S
C245 N242 1.336 . S
C245 C244 1.346 . S
C245 H252 0.929 . S
C246 O236 1.282 . S
C246 O247 1.216 . S
O247 C246 1.216 . S
H248 C243 0.930 . S
H249 C244 0.930 . S
O250 Cu230 1.959 . S
O250 C237 1.251 . S
H251 C234 0.930 1_565 S
H252 C245 0.929 . S
Cu253 N254 1.999 . S
Cu253 O259 1.974 . S
Cu253 N264 1.985 . S
Cu253 O273 1.959 . S
N254 Cu253 1.999 . S
N254 C256 1.263 . S
N254 C258 1.389 . S
N255 C256 1.358 . S
N255 C257 1.400 . S
C256 N254 1.263 . S
C256 N255 1.358 . S
C256 H262 0.930 . S
C257 N255 1.400 . S
C257 C258 1.351 . S
C257 H274 0.930 1_655 S
C258 N254 1.389 . S
C258 C257 1.351 . S
C258 H263 0.930 . S
O259 Cu253 1.974 . S
O259 C269 1.282 . S
C260 O261 1.261 . S
C260 O273 1.251 . S
O261 C260 1.261 . S
H262 C256 0.930 . S
H263 C258 0.930 . S
N264 Cu253 1.985 . S
N264 C266 1.335 . S
N264 C267 1.390 . S
N265 C266 1.345 . S
N265 C268 1.336 . S
C266 N264 1.335 . S
C266 N265 1.345 . S
C266 H271 0.930 . S
C267 N264 1.390 . S
C267 C268 1.346 . S
C267 H272 0.930 . S
C268 N265 1.336 . S
C268 C267 1.346 . S
C268 H275 0.929 . S
C269 O259 1.282 . S
C269 O270 1.216 . S
O270 C269 1.216 . S
H271 C266 0.930 . S
H272 C267 0.930 . S
O273 Cu253 1.959 . S
O273 C260 1.251 . S
H274 C257 0.930 1_455 S
H275 C268 0.929 . S
Cu276 N277 1.999 . S
Cu276 O282 1.974 . S
Cu276 N287 1.985 . S
Cu276 O296 1.959 . S
N277 Cu276 1.999 . S
N277 C279 1.263 . S
N277 C281 1.389 . S
N278 C279 1.358 . S
N278 C280 1.400 . S
C279 N277 1.263 . S
C279 N278 1.358 . S
C279 H285 0.930 . S
C280 N278 1.400 . S
C280 C281 1.351 . S
C280 H297 0.930 . S
C281 N277 1.389 . S
C281 C280 1.351 . S
C281 H286 0.930 . S
O282 Cu276 1.974 . S
O282 C292 1.282 . S
C283 O284 1.261 . S
C283 O296 1.251 . S
O284 C283 1.261 . S
H285 C279 0.930 . S
H286 C281 0.930 . S
N287 Cu276 1.985 . S
N287 C289 1.335 . S
N287 C290 1.390 . S
N288 C289 1.345 . S
N288 C291 1.336 . S
C289 N287 1.335 . S
C289 N288 1.345 . S
C289 H294 0.930 . S
C290 N287 1.390 . S
C290 C291 1.346 . S
C290 H295 0.930 . S
C291 N288 1.336 . S
C291 C290 1.346 . S
C291 H298 0.929 . S
C292 O282 1.282 . S
C292 O293 1.216 . S
O293 C292 1.216 . S
H294 C289 0.930 . S
H295 C290 0.930 . S
O296 Cu276 1.959 . S
O296 C283 1.251 . S
H297 C280 0.930 . S
H298 C291 0.929 . S
Cu299 N300 1.999 . S
Cu299 O305 1.974 . S
Cu299 N310 1.985 . S
Cu299 O319 1.959 . S
N300 Cu299 1.999 . S
N300 C302 1.263 . S
N300 C304 1.389 . S
N301 C302 1.358 . S
N301 C303 1.400 . S
C302 N300 1.263 . S
C302 N301 1.358 . S
C302 H308 0.930 . S
C303 N301 1.400 . S
C303 C304 1.351 . S
C303 H320 0.930 . S
C304 N300 1.389 . S
C304 C303 1.351 . S
C304 H309 0.930 . S
O305 Cu299 1.974 . S
O305 C315 1.282 . S
C306 O307 1.261 . S
C306 O319 1.251 . S
O307 C306 1.261 . S
H308 C302 0.930 . S
H309 C304 0.930 . S
N310 Cu299 1.985 . S
N310 C312 1.335 . S
N310 C313 1.390 . S
N311 C312 1.345 . S
N311 C314 1.336 . S
C312 N310 1.335 . S
C312 N311 1.345 . S
C312 H317 0.930 . S
C313 N310 1.390 . S
C313 C314 1.346 . S
C313 H318 0.930 . S
C314 N311 1.336 . S
C314 C313 1.346 . S
C314 H321 0.929 . S
C315 O305 1.282 . S
C315 O316 1.216 . S
O316 C315 1.216 . S
H317 C312 0.930 . S
H318 C313 0.930 . S
O319 Cu299 1.959 . S
O319 C306 1.251 . S
H320 C303 0.930 . S
H321 C314 0.929 . S
Cu322 N323 1.999 . S
Cu322 O328 1.974 . S
Cu322 N333 1.985 . S
Cu322 O342 1.959 . S
N323 Cu322 1.999 . S
N323 C325 1.263 . S
N323 C327 1.389 . S
N324 C325 1.358 . S
N324 C326 1.400 . S
C325 N323 1.263 . S
C325 N324 1.358 . S
C325 H331 0.930 . S
C326 N324 1.400 . S
C326 C327 1.351 . S
C326 H343 0.930 . S
C327 N323 1.389 . S
C327 C326 1.351 . S
C327 H332 0.930 . S
O328 Cu322 1.974 . S
O328 C338 1.282 . S
C329 O330 1.261 . S
C329 O342 1.251 . S
O330 C329 1.261 . S
H331 C325 0.930 . S
H332 C327 0.930 . S
N333 Cu322 1.985 . S
N333 C335 1.335 . S
N333 C336 1.390 . S
N334 C335 1.345 . S
N334 C337 1.336 . S
C335 N333 1.335 . S
C335 N334 1.345 . S
C335 H340 0.930 . S
C336 N333 1.390 . S
C336 C337 1.346 . S
C336 H341 0.930 . S
C337 N334 1.336 . S
C337 C336 1.346 . S
C337 H344 0.929 . S
C338 O328 1.282 . S
C338 O339 1.216 . S
O339 C338 1.216 . S
H340 C335 0.930 . S
H341 C336 0.930 . S
O342 Cu322 1.959 . S
O342 C329 1.251 . S
H343 C326 0.930 . S
H344 C337 0.929 . S
Cu345 N346 1.999 . S
Cu345 O351 1.974 . S
Cu345 N356 1.985 . S
Cu345 O365 1.959 . S
N346 Cu345 1.999 . S
N346 C348 1.263 . S
N346 C350 1.389 . S
N347 C348 1.358 . S
N347 C349 1.400 . S
C348 N346 1.263 . S
C348 N347 1.358 . S
C348 H354 0.930 . S
C349 N347 1.400 . S
C349 C350 1.351 . S
C349 H366 0.930 . S
C350 N346 1.389 . S
C350 C349 1.351 . S
C350 H355 0.930 . S
O351 Cu345 1.974 . S
O351 C361 1.282 . S
C352 O353 1.261 . S
C352 O365 1.251 . S
O353 C352 1.261 . S
H354 C348 0.930 . S
H355 C350 0.930 . S
N356 Cu345 1.985 . S
N356 C358 1.335 . S
N356 C359 1.390 . S
N357 C358 1.345 . S
N357 C360 1.336 . S
C358 N356 1.335 . S
C358 N357 1.345 . S
C358 H363 0.930 . S
C359 N356 1.390 . S
C359 C360 1.346 . S
C359 H364 0.930 . S
C360 N357 1.336 . S
C360 C359 1.346 . S
C360 H367 0.929 . S
C361 O351 1.282 . S
C361 O362 1.216 . S
O362 C361 1.216 . S
H363 C358 0.930 . S
H364 C359 0.930 . S
O365 Cu345 1.959 . S
O365 C352 1.251 . S
H366 C349 0.930 . S
H367 C360 0.929 . S
Cu368 N369 1.999 . S
Cu368 O374 1.974 . S
Cu368 N379 1.985 . S
Cu368 O388 1.959 . S
N369 Cu368 1.999 . S
N369 C371 1.263 . S
N369 C373 1.389 . S
N370 C371 1.358 . S
N370 C372 1.400 . S
C371 N369 1.263 . S
C371 N370 1.358 . S
C371 H377 0.930 . S
C372 N370 1.400 . S
C372 C373 1.351 . S
C372 H389 0.930 . S
C373 N369 1.389 . S
C373 C372 1.351 . S
C373 H378 0.930 . S
O374 Cu368 1.974 . S
O374 C384 1.282 . S
C375 O376 1.261 . S
C375 O388 1.251 . S
O376 C375 1.261 . S
H377 C371 0.930 . S
H378 C373 0.930 . S
N379 Cu368 1.985 . S
N379 C381 1.335 . S
N379 C382 1.390 . S
N380 C381 1.345 . S
N380 C383 1.336 . S
C381 N379 1.335 . S
C381 N380 1.345 . S
C381 H386 0.930 . S
C382 N379 1.390 . S
C382 C383 1.346 . S
C382 H387 0.930 . S
C383 N380 1.336 . S
C383 C382 1.346 . S
C383 H390 0.929 . S
C384 O374 1.282 . S
C384 O385 1.216 . S
O385 C384 1.216 . S
H386 C381 0.930 . S
H387 C382 0.930 . S
O388 Cu368 1.959 . S
O388 C375 1.251 . S
H389 C372 0.930 . S
H390 C383 0.929 . S
Cu391 N392 1.999 . S
Cu391 O397 1.974 . S
Cu391 N402 1.985 . S
Cu391 O411 1.959 . S
N392 Cu391 1.999 . S
N392 C394 1.263 . S
N392 C396 1.389 . S
N393 C394 1.358 . S
N393 C395 1.400 . S
C394 N392 1.263 . S
C394 N393 1.358 . S
C394 H400 0.930 . S
C395 N393 1.400 . S
C395 C396 1.351 . S
C395 H412 0.930 . S
C396 N392 1.389 . S
C396 C395 1.351 . S
C396 H401 0.930 . S
O397 Cu391 1.974 . S
O397 C407 1.282 . S
C398 O399 1.261 . S
C398 O411 1.251 . S
O399 C398 1.261 . S
H400 C394 0.930 . S
H401 C396 0.930 . S
N402 Cu391 1.985 . S
N402 C404 1.335 . S
N402 C405 1.390 . S
N403 C404 1.345 . S
N403 C406 1.336 . S
C404 N402 1.335 . S
C404 N403 1.345 . S
C404 H409 0.930 . S
C405 N402 1.390 . S
C405 C406 1.346 . S
C405 H410 0.930 . S
C406 N403 1.336 . S
C406 C405 1.346 . S
C406 H413 0.929 . S
C407 O397 1.282 . S
C407 O408 1.216 . S
O408 C407 1.216 . S
H409 C404 0.930 . S
H410 C405 0.930 . S
O411 Cu391 1.959 . S
O411 C398 1.251 . S
H412 C395 0.930 . S
H413 C406 0.929 . S
Cu414 N415 1.999 . S
Cu414 O420 1.974 . S
Cu414 N425 1.985 . S
Cu414 O434 1.959 . S
N415 Cu414 1.999 . S
N415 C417 1.263 . S
N415 C419 1.389 . S
N416 C417 1.358 . S
N416 C418 1.400 . S
C417 N415 1.263 . S
C417 N416 1.358 . S
C417 H423 0.930 . S
C418 N416 1.400 . S
C418 C419 1.351 . S
C418 H435 0.930 . S
C419 N415 1.389 . S
C419 C418 1.351 . S
C419 H424 0.930 . S
O420 Cu414 1.974 . S
O420 C430 1.282 . S
C421 O422 1.261 . S
C421 O434 1.251 . S
O422 C421 1.261 . S
H423 C417 0.930 . S
H424 C419 0.930 . S
N425 Cu414 1.985 . S
N425 C427 1.335 . S
N425 C428 1.390 . S
N426 C427 1.345 . S
N426 C429 1.336 . S
C427 N425 1.335 . S
C427 N426 1.345 . S
C427 H432 0.930 . S
C428 N425 1.390 . S
C428 C429 1.346 . S
C428 H433 0.930 . S
C429 N426 1.336 . S
C429 C428 1.346 . S
C429 H436 0.929 . S
C430 O420 1.282 . S
C430 O431 1.216 . S
O431 C430 1.216 . S
H432 C427 0.930 . S
H433 C428 0.930 . S
O434 Cu414 1.959 . S
O434 C421 1.251 . S
H435 C418 0.930 . S
H436 C429 0.929 . S
Cu437 N438 1.999 . S
Cu437 O443 1.974 . S
Cu437 N448 1.985 . S
Cu437 O457 1.959 . S
N438 Cu437 1.999 . S
N438 C440 1.263 . S
N438 C442 1.389 . S
N439 C440 1.358 . S
N439 C441 1.400 . S
C440 N438 1.263 . S
C440 N439 1.358 . S
C440 H446 0.930 . S
C441 N439 1.400 . S
C441 C442 1.351 . S
C441 H458 0.930 . S
C442 N438 1.389 . S
C442 C441 1.351 . S
C442 H447 0.930 . S
O443 Cu437 1.974 . S
O443 C453 1.282 . S
C444 O445 1.261 . S
C444 O457 1.251 . S
O445 C444 1.261 . S
H446 C440 0.930 . S
H447 C442 0.930 . S
N448 Cu437 1.985 . S
N448 C450 1.335 . S
N448 C451 1.390 . S
N449 C450 1.345 . S
N449 C452 1.336 . S
C450 N448 1.335 . S
C450 N449 1.345 . S
C450 H455 0.930 . S
C451 N448 1.390 . S
C451 C452 1.346 . S
C451 H456 0.930 . S
C452 N449 1.336 . S
C452 C451 1.346 . S
C452 H459 0.929 . S
C453 O443 1.282 . S
C453 O454 1.216 . S
O454 C453 1.216 . S
H455 C450 0.930 . S
H456 C451 0.930 . S
O457 Cu437 1.959 . S
O457 C444 1.251 . S
H458 C441 0.930 . S
H459 C452 0.929 . S
Cu460 N461 1.999 . S
Cu460 O466 1.974 . S
Cu460 N471 1.985 . S
Cu460 O480 1.959 . S
N461 Cu460 1.999 . S
N461 C463 1.263 . S
N461 C465 1.389 . S
N462 C463 1.358 . S
N462 C464 1.400 . S
C463 N461 1.263 . S
C463 N462 1.358 . S
C463 H469 0.930 . S
C464 N462 1.400 . S
C464 C465 1.351 . S
C464 H481 0.930 . S
C465 N461 1.389 . S
C465 C464 1.351 . S
C465 H470 0.930 . S
O466 Cu460 1.974 . S
O466 C476 1.282 . S
C467 O468 1.261 . S
C467 O480 1.251 . S
O468 C467 1.261 . S
H469 C463 0.930 . S
H470 C465 0.930 . S
N471 Cu460 1.985 . S
N471 C473 1.335 . S
N471 C474 1.390 . S
N472 C473 1.345 . S
N472 C475 1.336 . S
C473 N471 1.335 . S
C473 N472 1.345 . S
C473 H478 0.930 . S
C474 N471 1.390 . S
C474 C475 1.346 . S
C474 H479 0.930 . S
C475 N472 1.336 . S
C475 C474 1.346 . S
C475 H482 0.929 . S
C476 O466 1.282 . S
C476 O477 1.216 . S
O477 C476 1.216 . S
H478 C473 0.930 . S
H479 C474 0.930 . S
O480 Cu460 1.959 . S
O480 C467 1.251 . S
H481 C464 0.930 . S
H482 C475 0.929 . S
Cu483 N484 1.999 . S
Cu483 O489 1.974 . S
Cu483 N494 1.985 . S
Cu483 O503 1.959 . S
N484 Cu483 1.999 . S
N484 C486 1.263 . S
N484 C488 1.389 . S
N485 C486 1.358 . S
N485 C487 1.400 . S
C486 N484 1.263 . S
C486 N485 1.358 . S
C486 H492 0.930 . S
C487 N485 1.400 . S
C487 C488 1.351 . S
C487 H504 0.930 . S
C488 N484 1.389 . S
C488 C487 1.351 . S
C488 H493 0.930 . S
O489 Cu483 1.974 . S
O489 C499 1.282 . S
C490 O491 1.261 . S
C490 O503 1.251 . S
O491 C490 1.261 . S
H492 C486 0.930 . S
H493 C488 0.930 . S
N494 Cu483 1.985 . S
N494 C496 1.335 . S
N494 C497 1.390 . S
N495 C496 1.345 . S
N495 C498 1.336 . S
C496 N494 1.335 . S
C496 N495 1.345 . S
C496 H501 0.930 . S
C497 N494 1.390 . S
C497 C498 1.346 . S
C497 H502 0.930 . S
C498 N495 1.336 . S
C498 C497 1.346 . S
C498 H505 0.929 . S
C499 O489 1.282 . S
C499 O500 1.216 . S
O500 C499 1.216 . S
H501 C496 0.930 . S
H502 C497 0.930 . S
O503 Cu483 1.959 . S
O503 C490 1.251 . S
H504 C487 0.930 . S
H505 C498 0.929 . S
Cu506 N507 1.999 . S
Cu506 O512 1.974 . S
Cu506 N517 1.985 . S
Cu506 O526 1.959 . S
N507 Cu506 1.999 . S
N507 C509 1.263 . S
N507 C511 1.389 . S
N508 C509 1.358 . S
N508 C510 1.400 . S
C509 N507 1.263 . S
C509 N508 1.358 . S
C509 H515 0.930 . S
C510 N508 1.400 . S
C510 C511 1.351 . S
C510 H527 0.930 . S
C511 N507 1.389 . S
C511 C510 1.351 . S
C511 H516 0.930 . S
O512 Cu506 1.974 . S
O512 C522 1.282 . S
C513 O514 1.261 . S
C513 O526 1.251 . S
O514 C513 1.261 . S
H515 C509 0.930 . S
H516 C511 0.930 . S
N517 Cu506 1.985 . S
N517 C519 1.335 . S
N517 C520 1.390 . S
N518 C519 1.345 . S
N518 C521 1.336 . S
C519 N517 1.335 . S
C519 N518 1.345 . S
C519 H524 0.930 . S
C520 N517 1.390 . S
C520 C521 1.346 . S
C520 H525 0.930 . S
C521 N518 1.336 . S
C521 C520 1.346 . S
C521 H528 0.929 . S
C522 O512 1.282 . S
C522 O523 1.216 . S
O523 C522 1.216 . S
H524 C519 0.930 . S
H525 C520 0.930 . S
O526 Cu506 1.959 . S
O526 C513 1.251 . S
H527 C510 0.930 . S
H528 C521 0.929 . S
Cu529 N530 1.999 . S
Cu529 O535 1.974 . S
Cu529 N540 1.985 . S
Cu529 O549 1.959 . S
N530 Cu529 1.999 . S
N530 C532 1.263 . S
N530 C534 1.389 . S
N531 C532 1.358 . S
N531 C533 1.400 . S
C532 N530 1.263 . S
C532 N531 1.358 . S
C532 H538 0.930 . S
C533 N531 1.400 . S
C533 C534 1.351 . S
C533 H550 0.930 . S
C534 N530 1.389 . S
C534 C533 1.351 . S
C534 H539 0.930 . S
O535 Cu529 1.974 . S
O535 C545 1.282 . S
C536 O537 1.261 . S
C536 O549 1.251 . S
O537 C536 1.261 . S
H538 C532 0.930 . S
H539 C534 0.930 . S
N540 Cu529 1.985 . S
N540 C542 1.335 . S
N540 C543 1.390 . S
N541 C542 1.345 . S
N541 C544 1.336 . S
C542 N540 1.335 . S
C542 N541 1.345 . S
C542 H547 0.930 . S
C543 N540 1.390 . S
C543 C544 1.346 . S
C543 H548 0.930 . S
C544 N541 1.336 . S
C544 C543 1.346 . S
C544 H551 0.929 . S
C545 O535 1.282 . S
C545 O546 1.216 . S
O546 C545 1.216 . S
H547 C542 0.930 . S
H548 C543 0.930 . S
O549 Cu529 1.959 . S
O549 C536 1.251 . S
H550 C533 0.930 . S
H551 C544 0.929 . S
Cu552 N553 1.999 . S
Cu552 O558 1.974 . S
Cu552 N563 1.985 . S
Cu552 O572 1.959 . S
N553 Cu552 1.999 . S
N553 C555 1.263 . S
N553 C557 1.389 . S
N554 C555 1.358 . S
N554 C556 1.400 . S
C555 N553 1.263 . S
C555 N554 1.358 . S
C555 H561 0.930 . S
C556 N554 1.400 . S
C556 C557 1.351 . S
C556 H573 0.930 . S
C557 N553 1.389 . S
C557 C556 1.351 . S
C557 H562 0.930 . S
O558 Cu552 1.974 . S
O558 C568 1.282 . S
C559 O560 1.261 . S
C559 O572 1.251 . S
O560 C559 1.261 . S
H561 C555 0.930 . S
H562 C557 0.930 . S
N563 Cu552 1.985 . S
N563 C565 1.335 . S
N563 C566 1.390 . S
N564 C565 1.345 . S
N564 C567 1.336 . S
C565 N563 1.335 . S
C565 N564 1.345 . S
C565 H570 0.930 . S
C566 N563 1.390 . S
C566 C567 1.346 . S
C566 H571 0.930 . S
C567 N564 1.336 . S
C567 C566 1.346 . S
C567 H574 0.929 . S
C568 O558 1.282 . S
C568 O569 1.216 . S
O569 C568 1.216 . S
H570 C565 0.930 . S
H571 C566 0.930 . S
O572 Cu552 1.959 . S
O572 C559 1.251 . S
H573 C556 0.930 . S
H574 C567 0.929 . S
Cu575 N576 1.999 . S
Cu575 O581 1.974 . S
Cu575 N586 1.985 . S
Cu575 O595 1.959 . S
N576 Cu575 1.999 . S
N576 C578 1.263 . S
N576 C580 1.389 . S
N577 C578 1.358 . S
N577 C579 1.400 . S
C578 N576 1.263 . S
C578 N577 1.358 . S
C578 H584 0.930 . S
C579 N577 1.400 . S
C579 C580 1.351 . S
C579 H596 0.930 . S
C580 N576 1.389 . S
C580 C579 1.351 . S
C580 H585 0.930 . S
O581 Cu575 1.974 . S
O581 C591 1.282 . S
C582 O583 1.261 . S
C582 O595 1.251 . S
O583 C582 1.261 . S
H584 C578 0.930 . S
H585 C580 0.930 . S
N586 Cu575 1.985 . S
N586 C588 1.335 . S
N586 C589 1.390 . S
N587 C588 1.345 . S
N587 C590 1.336 . S
C588 N586 1.335 . S
C588 N587 1.345 . S
C588 H593 0.930 . S
C589 N586 1.390 . S
C589 C590 1.346 . S
C589 H594 0.930 . S
C590 N587 1.336 . S
C590 C589 1.346 . S
C590 H597 0.929 . S
C591 O581 1.282 . S
C591 O592 1.216 . S
O592 C591 1.216 . S
H593 C588 0.930 . S
H594 C589 0.930 . S
O595 Cu575 1.959 . S
O595 C582 1.251 . S
H596 C579 0.930 . S
H597 C590 0.929 . S
Cu598 N599 1.999 . S
Cu598 O604 1.974 . S
Cu598 N609 1.985 . S
Cu598 O618 1.959 . S
N599 Cu598 1.999 . S
N599 C601 1.263 . S
N599 C603 1.389 . S
N600 C601 1.358 . S
N600 C602 1.400 . S
C601 N599 1.263 . S
C601 N600 1.358 . S
C601 H607 0.930 . S
C602 N600 1.400 . S
C602 C603 1.351 . S
C602 H619 0.930 . S
C603 N599 1.389 . S
C603 C602 1.351 . S
C603 H608 0.930 . S
O604 Cu598 1.974 . S
O604 C614 1.282 . S
C605 O606 1.261 . S
C605 O618 1.251 . S
O606 C605 1.261 . S
H607 C601 0.930 . S
H608 C603 0.930 . S
N609 Cu598 1.985 . S
N609 C611 1.335 . S
N609 C612 1.390 . S
N610 C611 1.345 . S
N610 C613 1.336 . S
C611 N609 1.335 . S
C611 N610 1.345 . S
C611 H616 0.930 . S
C612 N609 1.390 . S
C612 C613 1.346 . S
C612 H617 0.930 . S
C613 N610 1.336 . S
C613 C612 1.346 . S
C613 H620 0.929 . S
C614 O604 1.282 . S
C614 O615 1.216 . S
O615 C614 1.216 . S
H616 C611 0.930 . S
H617 C612 0.930 . S
O618 Cu598 1.959 . S
O618 C605 1.251 . S
H619 C602 0.930 . S
H620 C613 0.929 . S
Cu621 N622 1.999 . S
Cu621 O627 1.974 . S
Cu621 N632 1.985 . S
Cu621 O641 1.959 . S
N622 Cu621 1.999 . S
N622 C624 1.263 . S
N622 C626 1.389 . S
N623 C624 1.358 . S
N623 C625 1.400 . S
C624 N622 1.263 . S
C624 N623 1.358 . S
C624 H630 0.930 . S
C625 N623 1.400 . S
C625 C626 1.351 . S
C625 H642 0.930 . S
C626 N622 1.389 . S
C626 C625 1.351 . S
C626 H631 0.930 . S
O627 Cu621 1.974 . S
O627 C637 1.282 . S
C628 O629 1.261 . S
C628 O641 1.251 . S
O629 C628 1.261 . S
H630 C624 0.930 . S
H631 C626 0.930 . S
N632 Cu621 1.985 . S
N632 C634 1.335 . S
N632 C635 1.390 . S
N633 C634 1.345 . S
N633 C636 1.336 . S
C634 N632 1.335 . S
C634 N633 1.345 . S
C634 H639 0.930 . S
C635 N632 1.390 . S
C635 C636 1.346 . S
C635 H640 0.930 . S
C636 N633 1.336 . S
C636 C635 1.346 . S
C636 H643 0.929 . S
C637 O627 1.282 . S
C637 O638 1.216 . S
O638 C637 1.216 . S
H639 C634 0.930 . S
H640 C635 0.930 . S
O641 Cu621 1.959 . S
O641 C628 1.251 . S
H642 C625 0.930 . S
H643 C636 0.929 . S
Cu644 N645 1.999 . S
Cu644 O650 1.974 . S
Cu644 N655 1.985 . S
Cu644 O664 1.959 . S
N645 Cu644 1.999 . S
N645 C647 1.263 . S
N645 C649 1.389 . S
N646 C647 1.358 . S
N646 C648 1.400 . S
C647 N645 1.263 . S
C647 N646 1.358 . S
C647 H653 0.930 . S
C648 N646 1.400 . S
C648 C649 1.351 . S
C648 H665 0.930 . S
C649 N645 1.389 . S
C649 C648 1.351 . S
C649 H654 0.930 . S
O650 Cu644 1.974 . S
O650 C660 1.282 . S
C651 O652 1.261 . S
C651 O664 1.251 . S
O652 C651 1.261 . S
H653 C647 0.930 . S
H654 C649 0.930 . S
N655 Cu644 1.985 . S
N655 C657 1.335 . S
N655 C658 1.390 . S
N656 C657 1.345 . S
N656 C659 1.336 . S
C657 N655 1.335 . S
C657 N656 1.345 . S
C657 H662 0.930 . S
C658 N655 1.390 . S
C658 C659 1.346 . S
C658 H663 0.930 . S
C659 N656 1.336 . S
C659 C658 1.346 . S
C659 H666 0.929 . S
C660 O650 1.282 . S
C660 O661 1.216 . S
O661 C660 1.216 . S
H662 C657 0.930 . S
H663 C658 0.930 . S
O664 Cu644 1.959 . S
O664 C651 1.251 . S
H665 C648 0.930 . S
H666 C659 0.929 . S
Cu667 N668 1.999 . S
Cu667 O673 1.974 . S
Cu667 N678 1.985 . S
Cu667 O687 1.959 . S
N668 Cu667 1.999 . S
N668 C670 1.263 . S
N668 C672 1.389 . S
N669 C670 1.358 . S
N669 C671 1.400 . S
C670 N668 1.263 . S
C670 N669 1.358 . S
C670 H676 0.930 . S
C671 N669 1.400 . S
C671 C672 1.351 . S
C671 H688 0.930 . S
C672 N668 1.389 . S
C672 C671 1.351 . S
C672 H677 0.930 . S
O673 Cu667 1.974 . S
O673 C683 1.282 . S
C674 O675 1.261 . S
C674 O687 1.251 . S
O675 C674 1.261 . S
H676 C670 0.930 . S
H677 C672 0.930 . S
N678 Cu667 1.985 . S
N678 C680 1.335 . S
N678 C681 1.390 . S
N679 C680 1.345 . S
N679 C682 1.336 . S
C680 N678 1.335 . S
C680 N679 1.345 . S
C680 H685 0.930 . S
C681 N678 1.390 . S
C681 C682 1.346 . S
C681 H686 0.930 . S
C682 N679 1.336 . S
C682 C681 1.346 . S
C682 H689 0.929 . S
C683 O673 1.282 . S
C683 O684 1.216 . S
O684 C683 1.216 . S
H685 C680 0.930 . S
H686 C681 0.930 . S
O687 Cu667 1.959 . S
O687 C674 1.251 . S
H688 C671 0.930 . S
H689 C682 0.929 . S
Cu690 N691 1.999 . S
Cu690 O696 1.974 . S
Cu690 N701 1.985 . S
Cu690 O710 1.959 . S
N691 Cu690 1.999 . S
N691 C693 1.263 . S
N691 C695 1.389 . S
N692 C693 1.358 . S
N692 C694 1.400 . S
C693 N691 1.263 . S
C693 N692 1.358 . S
C693 H699 0.930 . S
C694 N692 1.400 . S
C694 C695 1.351 . S
C694 H711 0.930 . S
C695 N691 1.389 . S
C695 C694 1.351 . S
C695 H700 0.930 . S
O696 Cu690 1.974 . S
O696 C706 1.282 . S
C697 O698 1.261 . S
C697 O710 1.251 . S
O698 C697 1.261 . S
H699 C693 0.930 . S
H700 C695 0.930 . S
N701 Cu690 1.985 . S
N701 C703 1.335 . S
N701 C704 1.390 . S
N702 C703 1.345 . S
N702 C705 1.336 . S
C703 N701 1.335 . S
C703 N702 1.345 . S
C703 H708 0.930 . S
C704 N701 1.390 . S
C704 C705 1.346 . S
C704 H709 0.930 . S
C705 N702 1.336 . S
C705 C704 1.346 . S
C705 H712 0.929 . S
C706 O696 1.282 . S
C706 O707 1.216 . S
O707 C706 1.216 . S
H708 C703 0.930 . S
H709 C704 0.930 . S
O710 Cu690 1.959 . S
O710 C697 1.251 . S
H711 C694 0.930 . S
H712 C705 0.929 . S
Cu713 N714 1.999 . S
Cu713 O719 1.974 . S
Cu713 N724 1.985 . S
Cu713 O733 1.959 . S
N714 Cu713 1.999 . S
N714 C716 1.263 . S
N714 C718 1.389 . S
N715 C716 1.358 . S
N715 C717 1.400 . S
C716 N714 1.263 . S
C716 N715 1.358 . S
C716 H722 0.930 . S
C717 N715 1.400 . S
C717 C718 1.351 . S
C717 H734 0.930 . S
C718 N714 1.389 . S
C718 C717 1.351 . S
C718 H723 0.930 . S
O719 Cu713 1.974 . S
O719 C729 1.282 . S
C720 O721 1.261 . S
C720 O733 1.251 . S
O721 C720 1.261 . S
H722 C716 0.930 . S
H723 C718 0.930 . S
N724 Cu713 1.985 . S
N724 C726 1.335 . S
N724 C727 1.390 . S
N725 C726 1.345 . S
N725 C728 1.336 . S
C726 N724 1.335 . S
C726 N725 1.345 . S
C726 H731 0.930 . S
C727 N724 1.390 . S
C727 C728 1.346 . S
C727 H732 0.930 . S
C728 N725 1.336 . S
C728 C727 1.346 . S
C728 H735 0.929 . S
C729 O719 1.282 . S
C729 O730 1.216 . S
O730 C729 1.216 . S
H731 C726 0.930 . S
H732 C727 0.930 . S
O733 Cu713 1.959 . S
O733 C720 1.251 . S
H734 C717 0.930 . S
H735 C728 0.929 . S
Cu736 N737 1.999 . S
Cu736 O742 1.974 . S
Cu736 N747 1.985 . S
Cu736 O756 1.959 . S
N737 Cu736 1.999 . S
N737 C739 1.263 . S
N737 C741 1.389 . S
N738 C739 1.358 . S
N738 C740 1.400 . S
C739 N737 1.263 . S
C739 N738 1.358 . S
C739 H745 0.930 . S
C740 N738 1.400 . S
C740 C741 1.351 . S
C740 H757 0.930 . S
C741 N737 1.389 . S
C741 C740 1.351 . S
C741 H746 0.930 . S
O742 Cu736 1.974 . S
O742 C752 1.282 . S
C743 O744 1.261 . S
C743 O756 1.251 . S
O744 C743 1.261 . S
H745 C739 0.930 . S
H746 C741 0.930 . S
N747 Cu736 1.985 . S
N747 C749 1.335 . S
N747 C750 1.390 . S
N748 C749 1.345 . S
N748 C751 1.336 . S
C749 N747 1.335 . S
C749 N748 1.345 . S
C749 H754 0.930 . S
C750 N747 1.390 . S
C750 C751 1.346 . S
C750 H755 0.930 . S
C751 N748 1.336 . S
C751 C750 1.346 . S
C751 H758 0.929 . S
C752 O742 1.282 . S
C752 O753 1.216 . S
O753 C752 1.216 . S
H754 C749 0.930 . S
H755 C750 0.930 . S
O756 Cu736 1.959 . S
O756 C743 1.251 . S
H757 C740 0.930 . S
H758 C751 0.929 . S
Cu759 N760 1.999 . S
Cu759 O765 1.974 . S
Cu759 N770 1.985 . S
Cu759 O779 1.959 . S
N760 Cu759 1.999 . S
N760 C762 1.263 . S
N760 C764 1.389 . S
N761 C762 1.358 . S
N761 C763 1.400 . S
C762 N760 1.263 . S
C762 N761 1.358 . S
C762 H768 0.930 . S
C763 N761 1.400 . S
C763 C764 1.351 . S
C763 H780 0.930 . S
C764 N760 1.389 . S
C764 C763 1.351 . S
C764 H769 0.930 . S
O765 Cu759 1.974 . S
O765 C775 1.282 . S
C766 O767 1.261 . S
C766 O779 1.251 . S
O767 C766 1.261 . S
H768 C762 0.930 . S
H769 C764 0.930 . S
N770 Cu759 1.985 . S
N770 C772 1.335 . S
N770 C773 1.390 . S
N771 C772 1.345 . S
N771 C774 1.336 . S
C772 N770 1.335 . S
C772 N771 1.345 . S
C772 H777 0.930 . S
C773 N770 1.390 . S
C773 C774 1.346 . S
C773 H778 0.930 . S
C774 N771 1.336 . S
C774 C773 1.346 . S
C774 H781 0.929 . S
C775 O765 1.282 . S
C775 O776 1.216 . S
O776 C775 1.216 . S
H777 C772 0.930 . S
H778 C773 0.930 . S
O779 Cu759 1.959 . S
O779 C766 1.251 . S
H780 C763 0.930 . S
H781 C774 0.929 . S
Cu782 N783 1.999 . S
Cu782 O788 1.974 . S
Cu782 N793 1.985 . S
Cu782 O802 1.959 . S
N783 Cu782 1.999 . S
N783 C785 1.263 . S
N783 C787 1.389 . S
N784 C785 1.358 . S
N784 C786 1.400 . S
C785 N783 1.263 . S
C785 N784 1.358 . S
C785 H791 0.930 . S
C786 N784 1.400 . S
C786 C787 1.351 . S
C786 H803 0.930 . S
C787 N783 1.389 . S
C787 C786 1.351 . S
C787 H792 0.930 . S
O788 Cu782 1.974 . S
O788 C798 1.282 . S
C789 O790 1.261 . S
C789 O802 1.251 . S
O790 C789 1.261 . S
H791 C785 0.930 . S
H792 C787 0.930 . S
N793 Cu782 1.985 . S
N793 C795 1.335 . S
N793 C796 1.390 . S
N794 C795 1.345 . S
N794 C797 1.336 . S
C795 N793 1.335 . S
C795 N794 1.345 . S
C795 H800 0.930 . S
C796 N793 1.390 . S
C796 C797 1.346 . S
C796 H801 0.930 . S
C797 N794 1.336 . S
C797 C796 1.346 . S
C797 H804 0.929 . S
C798 O788 1.282 . S
C798 O799 1.216 . S
O799 C798 1.216 . S
H800 C795 0.930 . S
H801 C796 0.930 . S
O802 Cu782 1.959 . S
O802 C789 1.251 . S
H803 C786 0.930 . S
H804 C797 0.929 . S
Cu805 N806 1.999 . S
Cu805 O811 1.974 . S
Cu805 N816 1.985 . S
Cu805 O825 1.959 . S
N806 Cu805 1.999 . S
N806 C808 1.263 . S
N806 C810 1.389 . S
N807 C808 1.358 . S
N807 C809 1.400 . S
C808 N806 1.263 . S
C808 N807 1.358 . S
C808 H814 0.930 . S
C809 N807 1.400 . S
C809 C810 1.351 . S
C809 H826 0.930 . S
C810 N806 1.389 . S
C810 C809 1.351 . S
C810 H815 0.930 . S
O811 Cu805 1.974 . S
O811 C821 1.282 . S
C812 O813 1.261 . S
C812 O825 1.251 . S
O813 C812 1.261 . S
H814 C808 0.930 . S
H815 C810 0.930 . S
N816 Cu805 1.985 . S
N816 C818 1.335 . S
N816 C819 1.390 . S
N817 C818 1.345 . S
N817 C820 1.336 . S
C818 N816 1.335 . S
C818 N817 1.345 . S
C818 H823 0.930 . S
C819 N816 1.390 . S
C819 C820 1.346 . S
C819 H824 0.930 . S
C820 N817 1.336 . S
C820 C819 1.346 . S
C820 H827 0.929 . S
C821 O811 1.282 . S
C821 O822 1.216 . S
O822 C821 1.216 . S
H823 C818 0.930 . S
H824 C819 0.930 . S
O825 Cu805 1.959 . S
O825 C812 1.251 . S
H826 C809 0.930 . S
H827 C820 0.929 . S
C828 C829 1.349 . S
C828 C830 1.327 . S
C828 H853 0.950 . S
C829 C828 1.349 . S
C829 C845 1.349 . S
C830 C828 1.327 . S
C830 C849 1.429 . S
C830 H854 0.950 . S
C831 C848 1.574 . S
C831 C850 1.368 . S
C831 H855 0.949 . S
H832 C836 0.949 . S
C833 C834 1.349 1_545 S
C833 C835 1.327 . S
C833 H856 0.950 . S
C834 C833 1.349 1_565 S
C834 C846 1.349 . S
C835 C833 1.327 . S
C835 C851 1.429 . S
C835 H857 0.950 . S
C836 H832 0.949 . S
C836 C844 1.574 1_556 S
C836 C852 1.368 . S
H837 C845 0.950 . S
H838 C843 0.950 1_556 S
H839 C844 0.949 . S
H840 C846 0.950 . S
H841 C847 0.950 . S
H842 C848 0.949 . S
C843 H838 0.950 1_554 S
C843 C845 1.327 . S
C843 C849 1.429 . S
C844 C836 1.574 1_554 S
C844 H839 0.949 . S
C844 C850 1.368 1_554 S
C845 C829 1.349 . S
C845 H837 0.950 . S
C845 C843 1.327 . S
C846 C834 1.349 . S
C846 H840 0.950 . S
C846 C847 1.327 1_565 S
C847 H841 0.950 . S
C847 C846 1.327 1_545 S
C847 C851 1.429 . S
C848 C831 1.574 . S
C848 H842 0.949 . S
C848 C852 1.368 . S
C849 C830 1.429 . S
C849 C843 1.429 . S
C849 C850 1.523 1_554 S
C850 C831 1.368 . S
C850 C844 1.368 1_556 S
C850 C849 1.523 1_556 S
C851 C835 1.429 . S
C851 C847 1.429 . S
C851 C852 1.523 . S
C852 C836 1.368 . S
C852 C848 1.368 . S
C852 C851 1.523 . S
H853 C828 0.950 . S
H854 C830 0.950 . S
H855 C831 0.949 . S
H856 C833 0.950 . S
H857 C835 0.950 . S
C858 C859 1.349 . S
C858 C860 1.327 . S
C858 H883 0.950 . S
C859 C858 1.349 . S
C859 C875 1.349 . S
C860 C858 1.327 . S
C860 C879 1.429 . S
C860 H884 0.950 . S
C861 C878 1.574 1_554 S
C861 C880 1.368 . S
C861 H885 0.949 . S
H862 C866 0.949 . S
C863 C864 1.349 1_655 S
C863 C865 1.327 . S
C863 H886 0.946 . S
C864 C863 1.349 1_455 S
C864 C876 1.349 1_455 S
C865 C863 1.327 . S
C865 C881 1.429 . S
C865 H887 0.950 . S
C866 H862 0.949 . S
C866 C874 1.574 1_556 S
C866 C882 1.368 . S
H867 C875 0.950 . S
H868 C873 0.950 . S
H869 C874 0.949 . S
H870 C876 0.977 . S
H871 C877 0.950 . S
H872 C878 0.949 . S
C873 H868 0.950 . S
C873 C875 1.327 . S
C873 C879 1.429 . S
C874 C866 1.574 1_554 S
C874 H869 0.949 . S
C874 C880 1.368 . S
C875 C859 1.349 . S
C875 H867 0.950 . S
C875 C873 1.327 . S
C876 C864 1.349 1_655 S
C876 H870 0.977 . S
C876 C877 1.327 . S
C877 H871 0.950 . S
C877 C876 1.327 . S
C877 C881 1.429 . S
C878 C861 1.574 1_556 S
C878 H872 0.949 . S
C878 C882 1.368 . S
C879 C860 1.429 . S
C879 C873 1.429 . S
C879 C880 1.523 . S
C880 C861 1.368 . S
C880 C874 1.368 . S
C880 C879 1.523 . S
C881 C865 1.429 . S
C881 C877 1.429 . S
C881 C882 1.523 . S
C882 C866 1.368 . S
C882 C878 1.368 . S
C882 C881 1.523 . S
H883 C858 0.950 . S
H884 C860 0.950 . S
H885 C861 0.949 . S
H886 C863 0.946 . S
H887 C865 0.950 . S
C888 C889 1.349 . S
C888 C890 1.327 . S
C888 H913 0.950 . S
C889 C888 1.349 . S
C889 C905 1.349 . S
C890 C888 1.327 . S
C890 C909 1.429 . S
C890 H914 0.950 . S
C891 C908 1.574 . S
C891 C910 1.368 . S
C891 H915 0.949 . S
H892 C896 0.949 . S
C893 C894 1.349 . S
C893 C895 1.327 . S
C893 H916 0.950 . S
C894 C893 1.349 . S
C894 C906 1.349 . S
C895 C893 1.327 . S
C895 C911 1.429 . S
C895 H917 0.950 . S
C896 H892 0.949 . S
C896 C904 1.574 1_554 S
C896 C912 1.368 . S
H897 C905 0.950 . S
H898 C903 0.950 . S
H899 C904 0.948 1_554 S
H900 C906 0.950 . S
H901 C907 0.950 . S
H902 C908 0.949 . S
C903 H898 0.950 . S
C903 C905 1.327 . S
C903 C909 1.429 . S
C904 C896 1.574 1_556 S
C904 H899 0.948 1_556 S
C904 C910 1.368 . S
C905 C889 1.349 . S
C905 H897 0.950 . S
C905 C903 1.327 . S
C906 C894 1.349 . S
C906 H900 0.950 . S
C906 C907 1.327 . S
C907 H901 0.950 . S
C907 C906 1.327 . S
C907 C911 1.429 . S
C908 C891 1.574 . S
C908 H902 0.949 . S
C908 C912 1.368 1_556 S
C909 C890 1.429 . S
C909 C903 1.429 . S
C909 C910 1.523 . S
C910 C891 1.368 . S
C910 C904 1.368 . S
C910 C909 1.523 . S
C911 C895 1.429 . S
C911 C907 1.429 . S
C911 C912 1.523 . S
C912 C896 1.368 . S
C912 C908 1.368 1_554 S
C912 C911 1.523 . S
H913 C888 0.950 . S
H914 C890 0.950 . S
H915 C891 0.949 . S
H916 C893 0.950 . S
H917 C895 0.950 . S
C918 C919 1.349 1_455 S
C918 C920 1.327 . S
C918 H943 0.950 . S
C919 C918 1.349 1_655 S
C919 C935 1.349 . S
C920 C918 1.327 . S
C920 C939 1.429 . S
C920 H944 0.950 . S
C921 C938 1.574 . S
C921 C940 1.368 . S
C921 H945 0.949 . S
H922 C926 0.949 . S
C923 C924 1.349 . S
C923 C925 1.327 . S
C923 H946 0.950 . S
C924 C923 1.349 . S
C924 C936 1.349 . S
C925 C923 1.327 . S
C925 C941 1.429 . S
C925 H947 0.950 . S
C926 H922 0.949 . S
C926 C934 1.574 . S
C926 C942 1.368 . S
H927 C935 0.950 . S
H928 C933 0.950 . S
H929 C934 0.949 . S
H930 C936 0.950 . S
H931 C937 0.950 . S
H932 C938 0.949 . S
C933 H928 0.950 . S
C933 C935 1.327 1_455 S
C933 C939 1.429 . S
C934 C926 1.574 . S
C934 H929 0.949 . S
C934 C940 1.368 . S
C935 C919 1.349 . S
C935 H927 0.950 . S
C935 C933 1.327 1_655 S
C936 C924 1.349 . S
C936 H930 0.950 . S
C936 C937 1.327 . S
C937 H931 0.950 . S
C937 C936 1.327 . S
C937 C941 1.429 . S
C938 C921 1.574 . S
C938 H932 0.949 . S
C938 C942 1.368 . S
C939 C920 1.429 . S
C939 C933 1.429 . S
C939 C940 1.523 . S
C940 C921 1.368 . S
C940 C934 1.368 . S
C940 C939 1.523 . S
C941 C925 1.429 . S
C941 C937 1.429 . S
C941 C942 1.523 . S
C942 C926 1.368 . S
C942 C938 1.368 . S
C942 C941 1.523 . S
H943 C918 0.950 . S
H944 C920 0.950 . S
H945 C921 0.949 . S
H946 C923 0.950 . S
H947 C925 0.950 . S
C948 C949 1.349 . S
C948 C950 1.327 . S
C948 H973 0.950 . S
C949 C948 1.349 . S
C949 C965 1.349 . S
C950 C948 1.327 . S
C950 C969 1.429 . S
C950 H974 0.950 . S
C951 C968 1.574 . S
C951 C970 1.368 . S
C951 H975 0.949 . S
H952 C956 0.949 . S
C953 C954 1.349 . S
C953 C955 1.327 . S
C953 H976 0.950 . S
C954 C953 1.349 . S
C954 C966 1.349 . S
C955 C953 1.327 . S
C955 C971 1.429 . S
C955 H977 0.950 . S
C956 H952 0.949 . S
C956 C964 1.574 . S
C956 C972 1.368 . S
H957 C965 0.950 . S
H958 C963 0.950 . S
H959 C964 0.949 . S
H960 C966 0.950 . S
H961 C967 0.950 . S
H962 C968 0.949 . S
C963 H958 0.950 . S
C963 C965 1.327 . S
C963 C969 1.429 . S
C964 C956 1.574 . S
C964 H959 0.949 . S
C964 C970 1.368 . S
C965 C949 1.349 . S
C965 H957 0.950 . S
C965 C963 1.327 . S
C966 C954 1.349 . S
C966 H960 0.950 . S
C966 C967 1.327 . S
C967 H961 0.950 . S
C967 C966 1.327 . S
C967 C971 1.429 . S
C968 C951 1.574 . S
C968 H962 0.949 . S
C968 C972 1.368 . S
C969 C950 1.429 . S
C969 C963 1.429 . S
C969 C970 1.523 . S
C970 C951 1.368 . S
C970 C964 1.368 . S
C970 C969 1.523 . S
C971 C955 1.429 . S
C971 C967 1.429 . S
C971 C972 1.523 . S
C972 C956 1.368 . S
C972 C968 1.368 . S
C972 C971 1.523 . S
H973 C948 0.950 . S
H974 C950 0.950 . S
H975 C951 0.949 . S
H976 C953 0.950 . S
H977 C955 0.950 . S
C978 C979 1.349 . S
C978 C980 1.327 . S
C978 H1003 0.950 . S
C979 C978 1.349 . S
C979 C995 1.349 . S
C980 C978 1.327 . S
C980 C999 1.429 . S
C980 H1004 0.950 . S
C981 C998 1.574 . S
C981 C1000 1.368 . S
C981 H1005 0.949 . S
H982 C986 0.949 . S
C983 C984 1.349 . S
C983 C985 1.327 1_545 S
C983 H1006 0.950 . S
C984 C983 1.349 . S
C984 C996 1.349 1_545 S
C985 C983 1.327 1_565 S
C985 C1001 1.429 . S
C985 H1007 0.950 . S
C986 H982 0.949 . S
C986 C994 1.574 . S
C986 C1002 1.368 . S
H987 C995 0.950 . S
H988 C993 0.950 . S
H989 C994 0.949 . S
H990 C996 0.950 . S
H991 C997 0.950 . S
H992 C998 0.949 . S
C993 H988 0.950 . S
C993 C995 1.327 . S
C993 C999 1.429 . S
C994 C986 1.574 . S
C994 H989 0.949 . S
C994 C1000 1.368 . S
C995 C979 1.349 . S
C995 H987 0.950 . S
C995 C993 1.327 . S
C996 C984 1.349 1_565 S
C996 H990 0.950 . S
C996 C997 1.327 . S
C997 H991 0.950 . S
C997 C996 1.327 . S
C997 C1001 1.429 . S
C998 C981 1.574 . S
C998 H992 0.949 . S
C998 C1002 1.368 . S
C999 C980 1.429 . S
C999 C993 1.429 . S
C999 C1000 1.523 . S
C1000 C981 1.368 . S
C1000 C994 1.368 . S
C1000 C999 1.523 . S
C1001 C985 1.429 . S
C1001 C997 1.429 . S
C1001 C1002 1.523 . S
C1002 C986 1.368 . S
C1002 C998 1.368 . S
C1002 C1001 1.523 . S
H1003 C978 0.950 . S
H1004 C980 0.950 . S
H1005 C981 0.949 . S
H1006 C983 0.950 . S
H1007 C985 0.950 . S
C1008 C1009 1.349 . S
C1008 C1010 1.327 . S
C1008 H1033 0.950 . S
C1009 C1008 1.349 . S
C1009 C1025 1.349 . S
C1010 C1008 1.327 . S
C1010 C1029 1.429 . S
C1010 H1034 0.950 . S
C1011 C1028 1.574 . S
C1011 C1030 1.368 1_556 S
C1011 H1035 0.949 . S
H1012 C1016 0.948 1_554 S
C1013 C1014 1.349 . S
C1013 C1015 1.327 . S
C1013 H1036 0.950 . S
C1014 C1013 1.349 . S
C1014 C1026 1.349 . S
C1015 C1013 1.327 . S
C1015 C1031 1.429 . S
C1015 H1037 0.950 . S
C1016 H1012 0.948 1_556 S
C1016 C1024 1.566 1_556 S
C1016 C1032 1.377 . S
H1017 C1025 0.950 1_545 S
H1018 C1023 0.950 . S
H1019 C1024 0.949 . S
H1020 C1026 0.950 . S
H1021 C1027 0.950 . S
H1022 C1028 0.949 . S
C1023 H1018 0.950 . S
C1023 C1025 1.327 . S
C1023 C1029 1.429 . S
C1024 C1016 1.566 1_554 S
C1024 H1019 0.949 . S
C1024 C1030 1.368 . S
C1025 C1009 1.349 . S
C1025 H1017 0.950 1_565 S
C1025 C1023 1.327 . S
C1026 C1014 1.349 . S
C1026 H1020 0.950 . S
C1026 C1027 1.327 . S
C1027 H1021 0.950 . S
C1027 C1026 1.327 . S
C1027 C1031 1.429 . S
C1028 C1011 1.574 . S
C1028 H1022 0.949 . S
C1028 C1032 1.368 . S
C1029 C1010 1.429 . S
C1029 C1023 1.429 . S
C1029 C1030 1.523 . S
C1030 C1011 1.368 1_554 S
C1030 C1024 1.368 . S
C1030 C1029 1.523 . S
C1031 C1015 1.429 . S
C1031 C1027 1.429 . S
C1031 C1032 1.523 . S
C1032 C1016 1.377 . S
C1032 C1028 1.368 . S
C1032 C1031 1.523 . S
H1033 C1008 0.950 . S
H1034 C1010 0.950 . S
H1035 C1011 0.949 . S
H1036 C1013 0.950 . S
H1037 C1015 0.950 . S
C1038 C1039 1.349 1_455 S
C1038 C1040 1.327 . S
C1038 H1063 0.950 . S
C1039 C1038 1.349 1_655 S
C1039 C1055 1.349 . S
C1040 C1038 1.327 . S
C1040 C1059 1.429 . S
C1040 H1064 0.950 . S
C1041 C1058 1.574 . S
C1041 C1060 1.368 1_556 S
C1041 H1065 0.949 . S
H1042 C1046 0.945 1_554 S
C1043 C1044 1.349 . S
C1043 C1045 1.327 . S
C1043 H1066 0.950 . S
C1044 C1043 1.349 . S
C1044 C1056 1.349 . S
C1045 C1043 1.327 . S
C1045 C1061 1.429 . S
C1045 H1067 0.950 . S
C1046 H1042 0.945 1_556 S
C1046 C1054 1.559 1_556 S
C1046 C1062 1.388 . S
H1047 C1055 0.950 . S
H1048 C1053 0.950 . S
H1049 C1054 0.949 . S
H1050 C1056 0.950 . S
H1051 C1057 0.950 . S
H1052 C1058 0.949 . S
C1053 H1048 0.950 . S
C1053 C1055 1.327 1_455 S
C1053 C1059 1.429 . S
C1054 C1046 1.559 1_554 S
C1054 H1049 0.949 . S
C1054 C1060 1.368 . S
C1055 C1039 1.349 . S
C1055 H1047 0.950 . S
C1055 C1053 1.327 1_655 S
C1056 C1044 1.349 . S
C1056 H1050 0.950 . S
C1056 C1057 1.327 . S
C1057 H1051 0.950 . S
C1057 C1056 1.327 . S
C1057 C1061 1.429 . S
C1058 C1041 1.574 . S
C1058 H1052 0.949 . S
C1058 C1062 1.368 . S
C1059 C1040 1.429 . S
C1059 C1053 1.429 . S
C1059 C1060 1.523 . S
C1060 C1041 1.368 1_554 S
C1060 C1054 1.368 . S
C1060 C1059 1.523 . S
C1061 C1045 1.429 . S
C1061 C1057 1.429 . S
C1061 C1062 1.523 . S
C1062 C1046 1.388 . S
C1062 C1058 1.368 . S
C1062 C1061 1.523 . S
H1063 C1038 0.950 . S
H1064 C1040 0.950 . S
H1065 C1041 0.949 . S
H1066 C1043 0.950 . S
H1067 C1045 0.950 . S
C1068 C1069 1.349 . S
C1068 C1070 1.327 . S
C1068 H1093 0.950 . S
C1069 C1068 1.349 . S
C1069 C1085 1.349 . S
C1070 C1068 1.327 . S
C1070 C1089 1.429 . S
C1070 H1094 0.950 . S
C1071 C1088 1.574 1_556 S
C1071 C1090 1.368 . S
C1071 H1095 0.949 . S
H1072 C1076 0.949 . S
C1073 C1074 1.349 . S
C1073 C1075 1.327 . S
C1073 H1096 0.950 . S
C1074 C1073 1.349 . S
C1074 C1086 1.349 . S
C1075 C1073 1.327 . S
C1075 C1091 1.429 . S
C1075 H1097 0.950 . S
C1076 H1072 0.949 . S
C1076 C1084 1.540 1_554 S
C1076 C1092 1.368 . S
H1077 C1085 0.950 . S
H1078 C1083 0.950 . S
H1079 C1084 0.958 . S
H1080 C1086 0.950 . S
H1081 C1087 0.950 . S
H1082 C1088 0.949 . S
C1083 H1078 0.950 . S
C1083 C1085 1.327 . S
C1083 C1089 1.429 . S
C1084 C1076 1.540 1_556 S
C1084 H1079 0.958 . S
C1084 C1090 1.395 . S
C1085 C1069 1.349 . S
C1085 H1077 0.950 . S
C1085 C1083 1.327 . S
C1086 C1074 1.349 . S
C1086 H1080 0.950 . S
C1086 C1087 1.327 . S
C1087 H1081 0.950 . S
C1087 C1086 1.327 . S
C1087 C1091 1.429 . S
C1088 C1071 1.574 1_554 S
C1088 H1082 0.949 . S
C1088 C1092 1.368 . S
C1089 C1070 1.429 . S
C1089 C1083 1.429 . S
C1089 C1090 1.523 . S
C1090 C1071 1.368 . S
C1090 C1084 1.395 . S
C1090 C1089 1.523 . S
C1091 C1075 1.429 . S
C1091 C1087 1.429 . S
C1091 C1092 1.523 . S
C1092 C1076 1.368 . S
C1092 C1088 1.368 . S
C1092 C1091 1.523 . S
H1093 C1068 0.950 . S
H1094 C1070 0.950 . S
H1095 C1071 0.949 . S
H1096 C1073 0.950 . S
H1097 C1075 0.950 . S
C1098 C1099 1.349 . S
C1098 C1100 1.327 . S
C1098 H1123 0.950 . S
C1099 C1098 1.349 . S
C1099 C1115 1.349 . S
C1100 C1098 1.327 . S
C1100 C1119 1.429 . S
C1100 H1124 0.950 . S
C1101 C1118 1.574 . S
C1101 C1120 1.368 . S
C1101 H1125 0.949 . S
H1102 C1106 0.949 . S
C1103 C1104 1.349 . S
C1103 C1105 1.327 1_455 S
C1103 H1126 0.950 . S
C1104 C1103 1.349 . S
C1104 C1116 1.349 1_455 S
C1105 C1103 1.327 1_655 S
C1105 C1121 1.429 . S
C1105 H1127 0.950 1_655 S
C1106 H1102 0.949 . S
C1106 C1114 1.574 . S
C1106 C1122 1.368 . S
H1107 C1115 0.950 . S
H1108 C1113 0.950 . S
H1109 C1114 0.949 . S
H1110 C1116 0.950 . S
H1111 C1117 0.950 . S
H1112 C1118 0.949 . S
C1113 H1108 0.950 . S
C1113 C1115 1.327 . S
C1113 C1119 1.429 . S
C1114 C1106 1.574 . S
C1114 H1109 0.949 . S
C1114 C1120 1.368 . S
C1115 C1099 1.349 . S
C1115 H1107 0.950 . S
C1115 C1113 1.327 . S
C1116 C1104 1.349 1_655 S
C1116 H1110 0.950 . S
C1116 C1117 1.327 . S
C1117 H1111 0.950 . S
C1117 C1116 1.327 . S
C1117 C1121 1.429 . S
C1118 C1101 1.574 . S
C1118 H1112 0.949 . S
C1118 C1122 1.368 . S
C1119 C1100 1.429 . S
C1119 C1113 1.429 . S
C1119 C1120 1.523 . S
C1120 C1101 1.368 . S
C1120 C1114 1.368 . S
C1120 C1119 1.523 . S
C1121 C1105 1.429 . S
C1121 C1117 1.429 . S
C1121 C1122 1.523 . S
C1122 C1106 1.368 . S
C1122 C1118 1.368 . S
C1122 C1121 1.523 . S
H1123 C1098 0.950 . S
H1124 C1100 0.950 . S
H1125 C1101 0.949 . S
H1126 C1103 0.950 . S
H1127 C1105 0.950 1_455 S
C1128 C1129 1.349 . S
C1128 C1130 1.327 . S
C1128 H1153 0.950 . S
C1129 C1128 1.349 . S
C1129 C1145 1.349 . S
C1130 C1128 1.327 . S
C1130 C1149 1.429 . S
C1130 H1154 0.950 . S
C1131 C1148 1.574 . S
C1131 C1150 1.368 . S
C1131 H1155 0.949 . S
H1132 C1136 0.949 . S
C1133 C1134 1.349 . S
C1133 C1135 1.327 . S
C1133 H1156 0.950 . S
C1134 C1133 1.349 . S
C1134 C1146 1.349 . S
C1135 C1133 1.327 . S
C1135 C1151 1.429 . S
C1135 H1157 0.950 . S
C1136 H1132 0.949 . S
C1136 C1144 1.574 . S
C1136 C1152 1.368 . S
H1137 C1145 0.950 . S
H1138 C1143 0.950 . S
H1139 C1144 0.949 . S
H1140 C1146 0.950 . S
H1141 C1147 0.950 . S
H1142 C1148 0.949 . S
C1143 H1138 0.950 . S
C1143 C1145 1.327 . S
C1143 C1149 1.429 . S
C1144 C1136 1.574 . S
C1144 H1139 0.949 . S
C1144 C1150 1.368 . S
C1145 C1129 1.349 . S
C1145 H1137 0.950 . S
C1145 C1143 1.327 . S
C1146 C1134 1.349 . S
C1146 H1140 0.950 . S
C1146 C1147 1.327 . S
C1147 H1141 0.950 . S
C1147 C1146 1.327 . S
C1147 C1151 1.429 . S
C1148 C1131 1.574 . S
C1148 H1142 0.949 . S
C1148 C1152 1.368 . S
C1149 C1130 1.429 . S
C1149 C1143 1.429 . S
C1149 C1150 1.523 . S
C1150 C1131 1.368 . S
C1150 C1144 1.368 . S
C1150 C1149 1.523 . S
C1151 C1135 1.429 . S
C1151 C1147 1.429 . S
C1151 C1152 1.523 . S
C1152 C1136 1.368 . S
C1152 C1148 1.368 . S
C1152 C1151 1.523 . S
H1153 C1128 0.950 . S
H1154 C1130 0.950 . S
H1155 C1131 0.949 . S
H1156 C1133 0.950 . S
H1157 C1135 0.950 . S
C1158 C1159 1.349 . S
C1158 C1160 1.327 . S
C1158 H1183 0.950 . S
C1159 C1158 1.349 . S
C1159 C1175 1.349 . S
C1160 C1158 1.327 . S
C1160 C1179 1.429 . S
C1160 H1184 0.950 . S
C1161 C1178 1.574 . S
C1161 C1180 1.368 . S
C1161 H1185 0.949 . S
H1162 C1166 0.949 . S
C1163 C1164 1.349 . S
C1163 C1165 1.327 . S
C1163 H1186 0.950 . S
C1164 C1163 1.349 . S
C1164 C1176 1.349 . S
C1165 C1163 1.327 . S
C1165 C1181 1.429 . S
C1165 H1187 0.950 . S
C1166 H1162 0.949 . S
C1166 C1174 1.574 . S
C1166 C1182 1.368 . S
H1167 C1175 0.950 . S
H1168 C1173 0.950 . S
H1169 C1174 0.949 . S
H1170 C1176 0.950 . S
H1171 C1177 0.950 . S
H1172 C1178 0.949 . S
C1173 H1168 0.950 . S
C1173 C1175 1.327 . S
C1173 C1179 1.429 . S
C1174 C1166 1.574 . S
C1174 H1169 0.949 . S
C1174 C1180 1.368 . S
C1175 C1159 1.349 . S
C1175 H1167 0.950 . S
C1175 C1173 1.327 . S
C1176 C1164 1.349 . S
C1176 H1170 0.950 . S
C1176 C1177 1.327 . S
C1177 H1171 0.950 . S
C1177 C1176 1.327 . S
C1177 C1181 1.429 . S
C1178 C1161 1.574 . S
C1178 H1172 0.949 . S
C1178 C1182 1.368 . S
C1179 C1160 1.429 . S
C1179 C1173 1.429 . S
C1179 C1180 1.523 . S
C1180 C1161 1.368 . S
C1180 C1174 1.368 . S
C1180 C1179 1.523 . S
C1181 C1165 1.429 . S
C1181 C1177 1.429 . S
C1181 C1182 1.523 . S
C1182 C1166 1.368 . S
C1182 C1178 1.368 . S
C1182 C1181 1.523 . S
H1183 C1158 0.950 . S
H1184 C1160 0.950 . S
H1185 C1161 0.949 . S
H1186 C1163 0.950 . S
H1187 C1165 0.950 . S
C1188 C1189 1.349 . S
C1188 C1190 1.327 . S
C1188 H1213 0.950 . S
C1189 C1188 1.349 . S
C1189 C1205 1.349 . S
C1190 C1188 1.327 . S
C1190 C1209 1.429 . S
C1190 H1214 0.950 . S
C1191 C1208 1.574 . S
C1191 C1210 1.368 . S
C1191 H1215 0.949 . S
H1192 C1196 0.949 . S
C1193 C1194 1.349 . S
C1193 C1195 1.327 . S
C1193 H1216 0.950 . S
C1194 C1193 1.349 . S
C1194 C1206 1.349 . S
C1195 C1193 1.327 . S
C1195 C1211 1.429 . S
C1195 H1217 0.950 . S
C1196 H1192 0.949 . S
C1196 C1204 1.574 . S
C1196 C1212 1.368 . S
H1197 C1205 0.950 . S
H1198 C1203 0.950 . S
H1199 C1204 0.949 . S
H1200 C1206 0.950 . S
H1201 C1207 0.950 . S
H1202 C1208 0.949 . S
C1203 H1198 0.950 . S
C1203 C1205 1.327 . S
C1203 C1209 1.429 . S
C1204 C1196 1.574 . S
C1204 H1199 0.949 . S
C1204 C1210 1.368 . S
C1205 C1189 1.349 . S
C1205 H1197 0.950 . S
C1205 C1203 1.327 . S
C1206 C1194 1.349 . S
C1206 H1200 0.950 . S
C1206 C1207 1.327 . S
C1207 H1201 0.950 . S
C1207 C1206 1.327 . S
C1207 C1211 1.429 . S
C1208 C1191 1.574 . S
C1208 H1202 0.949 . S
C1208 C1212 1.368 . S
C1209 C1190 1.429 . S
C1209 C1203 1.429 . S
C1209 C1210 1.523 . S
C1210 C1191 1.368 . S
C1210 C1204 1.368 . S
C1210 C1209 1.523 . S
C1211 C1195 1.429 . S
C1211 C1207 1.429 . S
C1211 C1212 1.523 . S
C1212 C1196 1.368 . S
C1212 C1208 1.368 . S
C1212 C1211 1.523 . S
H1213 C1188 0.950 . S
H1214 C1190 0.950 . S
H1215 C1191 0.949 . S
H1216 C1193 0.950 . S
H1217 C1195 0.950 . S
C1218 C1219 1.349 . S
C1218 C1220 1.327 . S
C1218 H1243 0.950 . S
C1219 C1218 1.349 . S
C1219 C1235 1.349 . S
C1220 C1218 1.327 . S
C1220 C1239 1.429 . S
C1220 H1244 0.950 . S
C1221 C1238 1.574 . S
C1221 C1240 1.368 . S
C1221 H1245 0.949 . S
H1222 C1226 0.949 . S
C1223 C1224 1.349 . S
C1223 C1225 1.327 . S
C1223 H1246 0.950 . S
C1224 C1223 1.349 . S
C1224 C1236 1.349 . S
C1225 C1223 1.327 . S
C1225 C1241 1.429 . S
C1225 H1247 0.950 . S
C1226 H1222 0.949 . S
C1226 C1234 1.574 . S
C1226 C1242 1.368 . S
H1227 C1235 0.950 . S
H1228 C1233 0.950 . S
H1229 C1234 0.949 . S
H1230 C1236 0.950 . S
H1231 C1237 0.950 . S
H1232 C1238 0.949 . S
C1233 H1228 0.950 . S
C1233 C1235 1.327 . S
C1233 C1239 1.429 . S
C1234 C1226 1.574 . S
C1234 H1229 0.949 . S
C1234 C1240 1.368 . S
C1235 C1219 1.349 . S
C1235 H1227 0.950 . S
C1235 C1233 1.327 . S
C1236 C1224 1.349 . S
C1236 H1230 0.950 . S
C1236 C1237 1.327 . S
C1237 H1231 0.950 . S
C1237 C1236 1.327 . S
C1237 C1241 1.429 . S
C1238 C1221 1.574 . S
C1238 H1232 0.949 . S
C1238 C1242 1.368 . S
C1239 C1220 1.429 . S
C1239 C1233 1.429 . S
C1239 C1240 1.523 . S
C1240 C1221 1.368 . S
C1240 C1234 1.368 . S
C1240 C1239 1.523 . S
C1241 C1225 1.429 . S
C1241 C1237 1.429 . S
C1241 C1242 1.523 . S
C1242 C1226 1.368 . S
C1242 C1238 1.368 . S
C1242 C1241 1.523 . S
H1243 C1218 0.950 . S
H1244 C1220 0.950 . S
H1245 C1221 0.949 . S
H1246 C1223 0.950 . S
H1247 C1225 0.950 . S
C1248 C1249 1.349 . S
C1248 C1250 1.327 . S
C1248 H1273 0.950 . S
C1249 C1248 1.349 . S
C1249 C1265 1.349 . S
C1250 C1248 1.327 . S
C1250 C1269 1.429 . S
C1250 H1274 0.950 . S
C1251 C1268 1.574 . S
C1251 C1270 1.368 . S
C1251 H1275 0.949 . S
H1252 C1256 0.949 . S
C1253 C1254 1.349 . S
C1253 C1255 1.327 . S
C1253 H1276 0.950 . S
C1254 C1253 1.349 . S
C1254 C1266 1.349 . S
C1255 C1253 1.327 . S
C1255 C1271 1.429 . S
C1255 H1277 0.950 . S
C1256 H1252 0.949 . S
C1256 C1264 1.574 . S
C1256 C1272 1.368 . S
H1257 C1265 0.950 . S
H1258 C1263 0.950 . S
H1259 C1264 0.949 . S
H1260 C1266 0.950 . S
H1261 C1267 0.950 . S
H1262 C1268 0.949 . S
C1263 H1258 0.950 . S
C1263 C1265 1.327 . S
C1263 C1269 1.429 . S
C1264 C1256 1.574 . S
C1264 H1259 0.949 . S
C1264 C1270 1.368 . S
C1265 C1249 1.349 . S
C1265 H1257 0.950 . S
C1265 C1263 1.327 . S
C1266 C1254 1.349 . S
C1266 H1260 0.950 . S
C1266 C1267 1.327 . S
C1267 H1261 0.950 . S
C1267 C1266 1.327 . S
C1267 C1271 1.429 . S
C1268 C1251 1.574 . S
C1268 H1262 0.949 . S
C1268 C1272 1.368 . S
C1269 C1250 1.429 . S
C1269 C1263 1.429 . S
C1269 C1270 1.523 . S
C1270 C1251 1.368 . S
C1270 C1264 1.368 . S
C1270 C1269 1.523 . S
C1271 C1255 1.429 . S
C1271 C1267 1.429 . S
C1271 C1272 1.523 . S
C1272 C1256 1.368 . S
C1272 C1268 1.368 . S
C1272 C1271 1.523 . S
H1273 C1248 0.950 . S
H1274 C1250 0.950 . S
H1275 C1251 0.949 . S
H1276 C1253 0.950 . S
H1277 C1255 0.950 . S
C1278 C1279 1.349 . S
C1278 C1280 1.327 . S
C1278 H1303 0.950 . S
C1279 C1278 1.349 . S
C1279 C1295 1.349 . S
C1280 C1278 1.327 . S
C1280 C1299 1.429 . S
C1280 H1304 0.950 . S
C1281 C1298 1.574 . S
C1281 C1300 1.368 . S
C1281 H1305 0.949 . S
H1282 C1286 0.949 . S
C1283 C1284 1.349 . S
C1283 C1285 1.327 . S
C1283 H1306 0.950 . S
C1284 C1283 1.349 . S
C1284 C1296 1.349 . S
C1285 C1283 1.327 . S
C1285 C1301 1.429 . S
C1285 H1307 0.950 . S
C1286 H1282 0.949 . S
C1286 C1294 1.574 . S
C1286 C1302 1.368 . S
H1287 C1295 0.950 . S
H1288 C1293 0.950 . S
H1289 C1294 0.949 . S
H1290 C1296 0.950 . S
H1291 C1297 0.950 . S
H1292 C1298 0.949 . S
C1293 H1288 0.950 . S
C1293 C1295 1.327 . S
C1293 C1299 1.429 . S
C1294 C1286 1.574 . S
C1294 H1289 0.949 . S
C1294 C1300 1.368 . S
C1295 C1279 1.349 . S
C1295 H1287 0.950 . S
C1295 C1293 1.327 . S
C1296 C1284 1.349 . S
C1296 H1290 0.950 . S
C1296 C1297 1.327 . S
C1297 H1291 0.950 . S
C1297 C1296 1.327 . S
C1297 C1301 1.429 . S
C1298 C1281 1.574 . S
C1298 H1292 0.949 . S
C1298 C1302 1.368 . S
C1299 C1280 1.429 . S
C1299 C1293 1.429 . S
C1299 C1300 1.523 . S
C1300 C1281 1.368 . S
C1300 C1294 1.368 . S
C1300 C1299 1.523 . S
C1301 C1285 1.429 . S
C1301 C1297 1.429 . S
C1301 C1302 1.523 . S
C1302 C1286 1.368 . S
C1302 C1298 1.368 . S
C1302 C1301 1.523 . S
H1303 C1278 0.950 . S
H1304 C1280 0.950 . S
H1305 C1281 0.949 . S
H1306 C1283 0.950 . S
H1307 C1285 0.950 . S
C1308 C1309 1.349 . S
C1308 C1310 1.327 . S
C1308 H1333 0.950 . S
C1309 C1308 1.349 . S
C1309 C1325 1.349 . S
C1310 C1308 1.327 . S
C1310 C1329 1.429 . S
C1310 H1334 0.950 . S
C1311 C1328 1.574 . S
C1311 C1330 1.368 . S
C1311 H1335 0.949 . S
H1312 C1316 0.949 . S
C1313 C1314 1.349 . S
C1313 C1315 1.327 . S
C1313 H1336 0.950 . S
C1314 C1313 1.349 . S
C1314 C1326 1.349 . S
C1315 C1313 1.327 . S
C1315 C1331 1.429 . S
C1315 H1337 0.950 . S
C1316 H1312 0.949 . S
C1316 C1324 1.574 . S
C1316 C1332 1.368 . S
H1317 C1325 0.950 . S
H1318 C1323 0.950 . S
H1319 C1324 0.949 . S
H1320 C1326 0.950 . S
H1321 C1327 0.950 . S
H1322 C1328 0.949 . S
C1323 H1318 0.950 . S
C1323 C1325 1.327 . S
C1323 C1329 1.429 . S
C1324 C1316 1.574 . S
C1324 H1319 0.949 . S
C1324 C1330 1.368 . S
C1325 C1309 1.349 . S
C1325 H1317 0.950 . S
C1325 C1323 1.327 . S
C1326 C1314 1.349 . S
C1326 H1320 0.950 . S
C1326 C1327 1.327 . S
C1327 H1321 0.950 . S
C1327 C1326 1.327 . S
C1327 C1331 1.429 . S
C1328 C1311 1.574 . S
C1328 H1322 0.949 . S
C1328 C1332 1.368 . S
C1329 C1310 1.429 . S
C1329 C1323 1.429 . S
C1329 C1330 1.523 . S
C1330 C1311 1.368 . S
C1330 C1324 1.368 . S
C1330 C1329 1.523 . S
C1331 C1315 1.429 . S
C1331 C1327 1.429 . S
C1331 C1332 1.523 . S
C1332 C1316 1.368 . S
C1332 C1328 1.368 . S
C1332 C1331 1.523 . S
H1333 C1308 0.950 . S
H1334 C1310 0.950 . S
H1335 C1311 0.949 . S
H1336 C1313 0.950 . S
H1337 C1315 0.950 . S
C1338 C1339 1.349 . S
C1338 C1340 1.327 . S
C1338 H1363 0.950 . S
C1339 C1338 1.349 . S
C1339 C1355 1.349 . S
C1340 C1338 1.327 . S
C1340 C1359 1.429 . S
C1340 H1364 0.950 . S
C1341 C1358 1.574 . S
C1341 C1360 1.368 . S
C1341 H1365 0.949 . S
H1342 C1346 0.949 . S
C1343 C1344 1.349 . S
C1343 C1345 1.327 . S
C1343 H1366 0.950 . S
C1344 C1343 1.349 . S
C1344 C1356 1.349 . S
C1345 C1343 1.327 . S
C1345 C1361 1.429 . S
C1345 H1367 0.950 . S
C1346 H1342 0.949 . S
C1346 C1354 1.574 . S
C1346 C1362 1.368 . S
H1347 C1355 0.950 . S
H1348 C1353 0.950 . S
H1349 C1354 0.949 . S
H1350 C1356 0.950 . S
H1351 C1357 0.950 . S
H1352 C1358 0.949 . S
C1353 H1348 0.950 . S
C1353 C1355 1.327 . S
C1353 C1359 1.429 . S
C1354 C1346 1.574 . S
C1354 H1349 0.949 . S
C1354 C1360 1.368 . S
C1355 C1339 1.349 . S
C1355 H1347 0.950 . S
C1355 C1353 1.327 . S
C1356 C1344 1.349 . S
C1356 H1350 0.950 . S
C1356 C1357 1.327 . S
C1357 H1351 0.950 . S
C1357 C1356 1.327 . S
C1357 C1361 1.429 . S
C1358 C1341 1.574 . S
C1358 H1352 0.949 . S
C1358 C1362 1.368 . S
C1359 C1340 1.429 . S
C1359 C1353 1.429 . S
C1359 C1360 1.523 . S
C1360 C1341 1.368 . S
C1360 C1354 1.368 . S
C1360 C1359 1.523 . S
C1361 C1345 1.429 . S
C1361 C1357 1.429 . S
C1361 C1362 1.523 . S
C1362 C1346 1.368 . S
C1362 C1358 1.368 . S
C1362 C1361 1.523 . S
H1363 C1338 0.950 . S
H1364 C1340 0.950 . S
H1365 C1341 0.949 . S
H1366 C1343 0.950 . S
H1367 C1345 0.950 . S
C1368 C1369 1.349 . S
C1368 C1370 1.327 . S
C1368 H1393 0.950 . S
C1369 C1368 1.349 . S
C1369 C1385 1.349 . S
C1370 C1368 1.327 . S
C1370 C1389 1.429 . S
C1370 H1394 0.950 . S
C1371 C1388 1.574 . S
C1371 C1390 1.368 . S
C1371 H1395 0.949 . S
H1372 C1376 0.949 . S
C1373 C1374 1.349 . S
C1373 C1375 1.327 . S
C1373 H1396 0.950 . S
C1374 C1373 1.349 . S
C1374 C1386 1.349 . S
C1375 C1373 1.327 . S
C1375 C1391 1.429 . S
C1375 H1397 0.950 . S
C1376 H1372 0.949 . S
C1376 C1384 1.574 . S
C1376 C1392 1.368 . S
H1377 C1385 0.950 . S
H1378 C1383 0.950 . S
H1379 C1384 0.949 . S
H1380 C1386 0.950 . S
H1381 C1387 0.950 . S
H1382 C1388 0.949 . S
C1383 H1378 0.950 . S
C1383 C1385 1.327 . S
C1383 C1389 1.429 . S
C1384 C1376 1.574 . S
C1384 H1379 0.949 . S
C1384 C1390 1.368 . S
C1385 C1369 1.349 . S
C1385 H1377 0.950 . S
C1385 C1383 1.327 . S
C1386 C1374 1.349 . S
C1386 H1380 0.950 . S
C1386 C1387 1.327 . S
C1387 H1381 0.950 . S
C1387 C1386 1.327 . S
C1387 C1391 1.429 . S
C1388 C1371 1.574 . S
C1388 H1382 0.949 . S
C1388 C1392 1.368 . S
C1389 C1370 1.429 . S
C1389 C1383 1.429 . S
C1389 C1390 1.523 . S
C1390 C1371 1.368 . S
C1390 C1384 1.368 . S
C1390 C1389 1.523 . S
C1391 C1375 1.429 . S
C1391 C1387 1.429 . S
C1391 C1392 1.523 . S
C1392 C1376 1.368 . S
C1392 C1388 1.368 . S
C1392 C1391 1.523 . S
H1393 C1368 0.950 . S
H1394 C1370 0.950 . S
H1395 C1371 0.949 . S
H1396 C1373 0.950 . S
H1397 C1375 0.950 . S
C1398 C1399 1.349 . S
C1398 C1400 1.327 . S
C1398 H1423 0.950 . S
C1399 C1398 1.349 . S
C1399 C1415 1.349 . S
C1400 C1398 1.327 . S
C1400 C1419 1.429 . S
C1400 H1424 0.950 . S
C1401 C1418 1.574 . S
C1401 C1420 1.368 . S
C1401 H1425 0.949 . S
H1402 C1406 0.949 . S
C1403 C1404 1.349 . S
C1403 C1405 1.327 . S
C1403 H1426 0.950 . S
C1404 C1403 1.349 . S
C1404 C1416 1.349 . S
C1405 C1403 1.327 . S
C1405 C1421 1.429 . S
C1405 H1427 0.950 . S
C1406 H1402 0.949 . S
C1406 C1414 1.574 . S
C1406 C1422 1.368 . S
H1407 C1415 0.950 . S
H1408 C1413 0.950 . S
H1409 C1414 0.949 . S
H1410 C1416 0.950 . S
H1411 C1417 0.950 . S
H1412 C1418 0.949 . S
C1413 H1408 0.950 . S
C1413 C1415 1.327 . S
C1413 C1419 1.429 . S
C1414 C1406 1.574 . S
C1414 H1409 0.949 . S
C1414 C1420 1.368 . S
C1415 C1399 1.349 . S
C1415 H1407 0.950 . S
C1415 C1413 1.327 . S
C1416 C1404 1.349 . S
C1416 H1410 0.950 . S
C1416 C1417 1.327 . S
C1417 H1411 0.950 . S
C1417 C1416 1.327 . S
C1417 C1421 1.429 . S
C1418 C1401 1.574 . S
C1418 H1412 0.949 . S
C1418 C1422 1.368 . S
C1419 C1400 1.429 . S
C1419 C1413 1.429 . S
C1419 C1420 1.523 . S
C1420 C1401 1.368 . S
C1420 C1414 1.368 . S
C1420 C1419 1.523 . S
C1421 C1405 1.429 . S
C1421 C1417 1.429 . S
C1421 C1422 1.523 . S
C1422 C1406 1.368 . S
C1422 C1418 1.368 . S
C1422 C1421 1.523 . S
H1423 C1398 0.950 . S
H1424 C1400 0.950 . S
H1425 C1401 0.949 . S
H1426 C1403 0.950 . S
H1427 C1405 0.950 . S
C1428 C1429 1.349 . S
C1428 C1430 1.327 . S
C1428 H1453 0.950 . S
C1429 C1428 1.349 . S
C1429 C1445 1.349 . S
C1430 C1428 1.327 . S
C1430 C1449 1.429 . S
C1430 H1454 0.950 . S
C1431 C1448 1.574 . S
C1431 C1450 1.368 . S
C1431 H1455 0.949 . S
H1432 C1436 0.949 . S
C1433 C1434 1.349 . S
C1433 C1435 1.327 . S
C1433 H1456 0.950 . S
C1434 C1433 1.349 . S
C1434 C1446 1.349 . S
C1435 C1433 1.327 . S
C1435 C1451 1.429 . S
C1435 H1457 0.950 . S
C1436 H1432 0.949 . S
C1436 C1444 1.574 . S
C1436 C1452 1.368 . S
H1437 C1445 0.950 . S
H1438 C1443 0.950 . S
H1439 C1444 0.949 . S
H1440 C1446 0.950 . S
H1441 C1447 0.950 . S
H1442 C1448 0.949 . S
C1443 H1438 0.950 . S
C1443 C1445 1.327 . S
C1443 C1449 1.429 . S
C1444 C1436 1.574 . S
C1444 H1439 0.949 . S
C1444 C1450 1.368 . S
C1445 C1429 1.349 . S
C1445 H1437 0.950 . S
C1445 C1443 1.327 . S
C1446 C1434 1.349 . S
C1446 H1440 0.950 . S
C1446 C1447 1.327 . S
C1447 H1441 0.950 . S
C1447 C1446 1.327 . S
C1447 C1451 1.429 . S
C1448 C1431 1.574 . S
C1448 H1442 0.949 . S
C1448 C1452 1.368 . S
C1449 C1430 1.429 . S
C1449 C1443 1.429 . S
C1449 C1450 1.523 . S
C1450 C1431 1.368 . S
C1450 C1444 1.368 . S
C1450 C1449 1.523 . S
C1451 C1435 1.429 . S
C1451 C1447 1.429 . S
C1451 C1452 1.523 . S
C1452 C1436 1.368 . S
C1452 C1448 1.368 . S
C1452 C1451 1.523 . S
H1453 C1428 0.950 . S
H1454 C1430 0.950 . S
H1455 C1431 0.949 . S
H1456 C1433 0.950 . S
H1457 C1435 0.950 . S
C1458 C1459 1.349 . S
C1458 C1460 1.327 . S
C1458 H1483 0.950 . S
C1459 C1458 1.349 . S
C1459 C1475 1.349 . S
C1460 C1458 1.327 . S
C1460 C1479 1.429 . S
C1460 H1484 0.950 . S
C1461 C1478 1.574 . S
C1461 C1480 1.368 . S
C1461 H1485 0.949 . S
H1462 C1466 0.949 . S
C1463 C1464 1.349 . S
C1463 C1465 1.327 . S
C1463 H1486 0.950 . S
C1464 C1463 1.349 . S
C1464 C1476 1.349 . S
C1465 C1463 1.327 . S
C1465 C1481 1.429 . S
C1465 H1487 0.950 . S
C1466 H1462 0.949 . S
C1466 C1474 1.574 . S
C1466 C1482 1.368 . S
H1467 C1475 0.950 . S
H1468 C1473 0.950 . S
H1469 C1474 0.949 . S
H1470 C1476 0.950 . S
H1471 C1477 0.950 . S
H1472 C1478 0.949 . S
C1473 H1468 0.950 . S
C1473 C1475 1.327 . S
C1473 C1479 1.429 . S
C1474 C1466 1.574 . S
C1474 H1469 0.949 . S
C1474 C1480 1.368 . S
C1475 C1459 1.349 . S
C1475 H1467 0.950 . S
C1475 C1473 1.327 . S
C1476 C1464 1.349 . S
C1476 H1470 0.950 . S
C1476 C1477 1.327 . S
C1477 H1471 0.950 . S
C1477 C1476 1.327 . S
C1477 C1481 1.429 . S
C1478 C1461 1.574 . S
C1478 H1472 0.949 . S
C1478 C1482 1.368 . S
C1479 C1460 1.429 . S
C1479 C1473 1.429 . S
C1479 C1480 1.523 . S
C1480 C1461 1.368 . S
C1480 C1474 1.368 . S
C1480 C1479 1.523 . S
C1481 C1465 1.429 . S
C1481 C1477 1.429 . S
C1481 C1482 1.523 . S
C1482 C1466 1.368 . S
C1482 C1478 1.368 . S
C1482 C1481 1.523 . S
H1483 C1458 0.950 . S
H1484 C1460 0.950 . S
H1485 C1461 0.949 . S
H1486 C1463 0.950 . S
H1487 C1465 0.950 . S
C1488 C1489 1.349 . S
C1488 C1490 1.327 . S
C1488 H1513 0.950 . S
C1489 C1488 1.349 . S
C1489 C1505 1.349 . S
C1490 C1488 1.327 . S
C1490 C1509 1.429 . S
C1490 H1514 0.950 . S
C1491 C1508 1.574 . S
C1491 C1510 1.368 . S
C1491 H1515 0.949 . S
H1492 C1496 0.949 . S
C1493 C1494 1.349 . S
C1493 C1495 1.327 . S
C1493 H1516 0.950 . S
C1494 C1493 1.349 . S
C1494 C1506 1.349 . S
C1495 C1493 1.327 . S
C1495 C1511 1.429 . S
C1495 H1517 0.950 . S
C1496 H1492 0.949 . S
C1496 C1504 1.574 . S
C1496 C1512 1.368 . S
H1497 C1505 0.950 . S
H1498 C1503 0.950 . S
H1499 C1504 0.949 . S
H1500 C1506 0.950 . S
H1501 C1507 0.950 . S
H1502 C1508 0.949 . S
C1503 H1498 0.950 . S
C1503 C1505 1.327 . S
C1503 C1509 1.429 . S
C1504 C1496 1.574 . S
C1504 H1499 0.949 . S
C1504 C1510 1.368 . S
C1505 C1489 1.349 . S
C1505 H1497 0.950 . S
C1505 C1503 1.327 . S
C1506 C1494 1.349 . S
C1506 H1500 0.950 . S
C1506 C1507 1.327 . S
C1507 H1501 0.950 . S
C1507 C1506 1.327 . S
C1507 C1511 1.429 . S
C1508 C1491 1.574 . S
C1508 H1502 0.949 . S
C1508 C1512 1.368 . S
C1509 C1490 1.429 . S
C1509 C1503 1.429 . S
C1509 C1510 1.523 . S
C1510 C1491 1.368 . S
C1510 C1504 1.368 . S
C1510 C1509 1.523 . S
C1511 C1495 1.429 . S
C1511 C1507 1.429 . S
C1511 C1512 1.523 . S
C1512 C1496 1.368 . S
C1512 C1508 1.368 . S
C1512 C1511 1.523 . S
H1513 C1488 0.950 . S
H1514 C1490 0.950 . S
H1515 C1491 0.949 . S
H1516 C1493 0.950 . S
H1517 C1495 0.950 . S
C1518 C1519 1.349 . S
C1518 C1520 1.327 . S
C1518 H1543 0.950 . S
C1519 C1518 1.349 . S
C1519 C1535 1.349 . S
C1520 C1518 1.327 . S
C1520 C1539 1.429 . S
C1520 H1544 0.950 . S
C1521 C1538 1.574 . S
C1521 C1540 1.368 . S
C1521 H1545 0.949 . S
H1522 C1526 0.949 . S
C1523 C1524 1.349 . S
C1523 C1525 1.327 . S
C1523 H1546 0.950 . S
C1524 C1523 1.349 . S
C1524 C1536 1.349 . S
C1525 C1523 1.327 . S
C1525 C1541 1.429 . S
C1525 H1547 0.950 . S
C1526 H1522 0.949 . S
C1526 C1534 1.574 . S
C1526 C1542 1.368 . S
H1527 C1535 0.950 . S
H1528 C1533 0.950 . S
H1529 C1534 0.949 . S
H1530 C1536 0.950 . S
H1531 C1537 0.950 . S
H1532 C1538 0.949 . S
C1533 H1528 0.950 . S
C1533 C1535 1.327 . S
C1533 C1539 1.429 . S
C1534 C1526 1.574 . S
C1534 H1529 0.949 . S
C1534 C1540 1.368 . S
C1535 C1519 1.349 . S
C1535 H1527 0.950 . S
C1535 C1533 1.327 . S
C1536 C1524 1.349 . S
C1536 H1530 0.950 . S
C1536 C1537 1.327 . S
C1537 H1531 0.950 . S
C1537 C1536 1.327 . S
C1537 C1541 1.429 . S
C1538 C1521 1.574 . S
C1538 H1532 0.949 . S
C1538 C1542 1.368 . S
C1539 C1520 1.429 . S
C1539 C1533 1.429 . S
C1539 C1540 1.523 . S
C1540 C1521 1.368 . S
C1540 C1534 1.368 . S
C1540 C1539 1.523 . S
C1541 C1525 1.429 . S
C1541 C1537 1.429 . S
C1541 C1542 1.523 . S
C1542 C1526 1.368 . S
C1542 C1538 1.368 . S
C1542 C1541 1.523 . S
H1543 C1518 0.950 . S
H1544 C1520 0.950 . S
H1545 C1521 0.949 . S
H1546 C1523 0.950 . S
H1547 C1525 0.950 . S
C1548 C1549 1.349 . S
C1548 C1550 1.327 . S
C1548 H1573 0.950 . S
C1549 C1548 1.349 . S
C1549 C1565 1.349 . S
C1550 C1548 1.327 . S
C1550 C1569 1.429 . S
C1550 H1574 0.950 . S
C1551 C1568 1.574 . S
C1551 C1570 1.368 . S
C1551 H1575 0.949 . S
H1552 C1556 0.949 . S
C1553 C1554 1.349 . S
C1553 C1555 1.327 . S
C1553 H1576 0.950 . S
C1554 C1553 1.349 . S
C1554 C1566 1.349 . S
C1555 C1553 1.327 . S
C1555 C1571 1.429 . S
C1555 H1577 0.950 . S
C1556 H1552 0.949 . S
C1556 C1564 1.574 . S
C1556 C1572 1.368 . S
H1557 C1565 0.950 . S
H1558 C1563 0.950 . S
H1559 C1564 0.949 . S
H1560 C1566 0.950 . S
H1561 C1567 0.950 . S
H1562 C1568 0.949 . S
C1563 H1558 0.950 . S
C1563 C1565 1.327 . S
C1563 C1569 1.429 . S
C1564 C1556 1.574 . S
C1564 H1559 0.949 . S
C1564 C1570 1.368 . S
C1565 C1549 1.349 . S
C1565 H1557 0.950 . S
C1565 C1563 1.327 . S
C1566 C1554 1.349 . S
C1566 H1560 0.950 . S
C1566 C1567 1.327 . S
C1567 H1561 0.950 . S
C1567 C1566 1.327 . S
C1567 C1571 1.429 . S
C1568 C1551 1.574 . S
C1568 H1562 0.949 . S
C1568 C1572 1.368 . S
C1569 C1550 1.429 . S
C1569 C1563 1.429 . S
C1569 C1570 1.523 . S
C1570 C1551 1.368 . S
C1570 C1564 1.368 . S
C1570 C1569 1.523 . S
C1571 C1555 1.429 . S
C1571 C1567 1.429 . S
C1571 C1572 1.523 . S
C1572 C1556 1.368 . S
C1572 C1568 1.368 . S
C1572 C1571 1.523 . S
H1573 C1548 0.950 . S
H1574 C1550 0.950 . S
H1575 C1551 0.949 . S
H1576 C1553 0.950 . S
H1577 C1555 0.950 . S
C1578 C1579 1.349 . S
C1578 C1580 1.327 . S
C1578 H1603 0.950 . S
C1579 C1578 1.349 . S
C1579 C1595 1.349 . S
C1580 C1578 1.327 . S
C1580 C1599 1.429 . S
C1580 H1604 0.950 . S
C1581 C1598 1.574 . S
C1581 C1600 1.368 . S
C1581 H1605 0.949 . S
H1582 C1586 0.949 . S
C1583 C1584 1.349 . S
C1583 C1585 1.327 . S
C1583 H1606 0.950 . S
C1584 C1583 1.349 . S
C1584 C1596 1.349 . S
C1585 C1583 1.327 . S
C1585 C1601 1.429 . S
C1585 H1607 0.950 . S
C1586 H1582 0.949 . S
C1586 C1594 1.574 . S
C1586 C1602 1.368 . S
H1587 C1595 0.950 . S
H1588 C1593 0.950 . S
H1589 C1594 0.949 . S
H1590 C1596 0.950 . S
H1591 C1597 0.950 . S
H1592 C1598 0.949 . S
C1593 H1588 0.950 . S
C1593 C1595 1.327 . S
C1593 C1599 1.429 . S
C1594 C1586 1.574 . S
C1594 H1589 0.949 . S
C1594 C1600 1.368 . S
C1595 C1579 1.349 . S
C1595 H1587 0.950 . S
C1595 C1593 1.327 . S
C1596 C1584 1.349 . S
C1596 H1590 0.950 . S
C1596 C1597 1.327 . S
C1597 H1591 0.950 . S
C1597 C1596 1.327 . S
C1597 C1601 1.429 . S
C1598 C1581 1.574 . S
C1598 H1592 0.949 . S
C1598 C1602 1.368 . S
C1599 C1580 1.429 . S
C1599 C1593 1.429 . S
C1599 C1600 1.523 . S
C1600 C1581 1.368 . S
C1600 C1594 1.368 . S
C1600 C1599 1.523 . S
C1601 C1585 1.429 . S
C1601 C1597 1.429 . S
C1601 C1602 1.523 . S
C1602 C1586 1.368 . S
C1602 C1598 1.368 . S
C1602 C1601 1.523 . S
H1603 C1578 0.950 . S
H1604 C1580 0.950 . S
H1605 C1581 0.949 . S
H1606 C1583 0.950 . S
H1607 C1585 0.950 . S
C1608 C1609 1.349 . S
C1608 C1610 1.327 . S
C1608 H1633 0.950 . S
C1609 C1608 1.349 . S
C1609 C1625 1.349 . S
C1610 C1608 1.327 . S
C1610 C1629 1.429 . S
C1610 H1634 0.950 . S
C1611 C1628 1.574 . S
C1611 C1630 1.368 . S
C1611 H1635 0.949 . S
H1612 C1616 0.949 . S
C1613 C1614 1.349 . S
C1613 C1615 1.327 . S
C1613 H1636 0.950 . S
C1614 C1613 1.349 . S
C1614 C1626 1.349 . S
C1615 C1613 1.327 . S
C1615 C1631 1.429 . S
C1615 H1637 0.950 . S
C1616 H1612 0.949 . S
C1616 C1624 1.574 . S
C1616 C1632 1.368 . S
H1617 C1625 0.950 . S
H1618 C1623 0.950 . S
H1619 C1624 0.949 . S
H1620 C1626 0.950 . S
H1621 C1627 0.950 . S
H1622 C1628 0.949 . S
C1623 H1618 0.950 . S
C1623 C1625 1.327 . S
C1623 C1629 1.429 . S
C1624 C1616 1.574 . S
C1624 H1619 0.949 . S
C1624 C1630 1.368 . S
C1625 C1609 1.349 . S
C1625 H1617 0.950 . S
C1625 C1623 1.327 . S
C1626 C1614 1.349 . S
C1626 H1620 0.950 . S
C1626 C1627 1.327 . S
C1627 H1621 0.950 . S
C1627 C1626 1.327 . S
C1627 C1631 1.429 . S
C1628 C1611 1.574 . S
C1628 H1622 0.949 . S
C1628 C1632 1.368 . S
C1629 C1610 1.429 . S
C1629 C1623 1.429 . S
C1629 C1630 1.523 . S
C1630 C1611 1.368 . S
C1630 C1624 1.368 . S
C1630 C1629 1.523 . S
C1631 C1615 1.429 . S
C1631 C1627 1.429 . S
C1631 C1632 1.523 . S
C1632 C1616 1.368 . S
C1632 C1628 1.368 . S
C1632 C1631 1.523 . S
H1633 C1608 0.950 . S
H1634 C1610 0.950 . S
H1635 C1611 0.949 . S
H1636 C1613 0.950 . S
H1637 C1615 0.950 . S
C1638 C1639 1.349 . S
C1638 C1640 1.327 . S
C1638 H1663 0.950 . S
C1639 C1638 1.349 . S
C1639 C1655 1.349 . S
C1640 C1638 1.327 . S
C1640 C1659 1.429 . S
C1640 H1664 0.950 . S
C1641 C1658 1.574 . S
C1641 C1660 1.368 . S
C1641 H1665 0.949 . S
H1642 C1646 0.949 . S
C1643 C1644 1.349 . S
C1643 C1645 1.327 . S
C1643 H1666 0.950 . S
C1644 C1643 1.349 . S
C1644 C1656 1.349 . S
C1645 C1643 1.327 . S
C1645 C1661 1.429 . S
C1645 H1667 0.950 . S
C1646 H1642 0.949 . S
C1646 C1654 1.574 . S
C1646 C1662 1.368 . S
H1647 C1655 0.950 . S
H1648 C1653 0.950 . S
H1649 C1654 0.949 . S
H1650 C1656 0.950 . S
H1651 C1657 0.950 . S
H1652 C1658 0.949 . S
C1653 H1648 0.950 . S
C1653 C1655 1.327 . S
C1653 C1659 1.429 . S
C1654 C1646 1.574 . S
C1654 H1649 0.949 . S
C1654 C1660 1.368 . S
C1655 C1639 1.349 . S
C1655 H1647 0.950 . S
C1655 C1653 1.327 . S
C1656 C1644 1.349 . S
C1656 H1650 0.950 . S
C1656 C1657 1.327 . S
C1657 H1651 0.950 . S
C1657 C1656 1.327 . S
C1657 C1661 1.429 . S
C1658 C1641 1.574 . S
C1658 H1652 0.949 . S
C1658 C1662 1.368 . S
C1659 C1640 1.429 . S
C1659 C1653 1.429 . S
C1659 C1660 1.523 . S
C1660 C1641 1.368 . S
C1660 C1654 1.368 . S
C1660 C1659 1.523 . S
C1661 C1645 1.429 . S
C1661 C1657 1.429 . S
C1661 C1662 1.523 . S
C1662 C1646 1.368 . S
C1662 C1658 1.368 . S
C1662 C1661 1.523 . S
H1663 C1638 0.950 . S
H1664 C1640 0.950 . S
H1665 C1641 0.949 . S
H1666 C1643 0.950 . S
H1667 C1645 0.950 . S
C1668 C1669 1.349 . S
C1668 C1670 1.327 . S
C1668 H1693 0.950 . S
C1669 C1668 1.349 . S
C1669 C1685 1.349 . S
C1670 C1668 1.327 . S
C1670 C1689 1.429 . S
C1670 H1694 0.950 . S
C1671 C1688 1.574 . S
C1671 C1690 1.368 . S
C1671 H1695 0.949 . S
H1672 C1676 0.949 . S
C1673 C1674 1.349 . S
C1673 C1675 1.327 . S
C1673 H1696 0.950 . S
C1674 C1673 1.349 . S
C1674 C1686 1.349 . S
C1675 C1673 1.327 . S
C1675 C1691 1.429 . S
C1675 H1697 0.950 . S
C1676 H1672 0.949 . S
C1676 C1684 1.574 . S
C1676 C1692 1.368 . S
H1677 C1685 0.950 . S
H1678 C1683 0.950 . S
H1679 C1684 0.949 . S
H1680 C1686 0.950 . S
H1681 C1687 0.950 . S
H1682 C1688 0.949 . S
C1683 H1678 0.950 . S
C1683 C1685 1.327 . S
C1683 C1689 1.429 . S
C1684 C1676 1.574 . S
C1684 H1679 0.949 . S
C1684 C1690 1.368 . S
C1685 C1669 1.349 . S
C1685 H1677 0.950 . S
C1685 C1683 1.327 . S
C1686 C1674 1.349 . S
C1686 H1680 0.950 . S
C1686 C1687 1.327 . S
C1687 H1681 0.950 . S
C1687 C1686 1.327 . S
C1687 C1691 1.429 . S
C1688 C1671 1.574 . S
C1688 H1682 0.949 . S
C1688 C1692 1.368 . S
C1689 C1670 1.429 . S
C1689 C1683 1.429 . S
C1689 C1690 1.523 . S
C1690 C1671 1.368 . S
C1690 C1684 1.368 . S
C1690 C1689 1.523 . S
C1691 C1675 1.429 . S
C1691 C1687 1.429 . S
C1691 C1692 1.523 . S
C1692 C1676 1.368 . S
C1692 C1688 1.368 . S
C1692 C1691 1.523 . S
H1693 C1668 0.950 . S
H1694 C1670 0.950 . S
H1695 C1671 0.949 . S
H1696 C1673 0.950 . S
H1697 C1675 0.950 . S
C1698 C1699 1.349 . S
C1698 C1700 1.327 . S
C1698 H1723 0.950 . S
C1699 C1698 1.349 . S
C1699 C1715 1.349 . S
C1700 C1698 1.327 . S
C1700 C1719 1.429 . S
C1700 H1724 0.950 . S
C1701 C1718 1.574 . S
C1701 C1720 1.368 . S
C1701 H1725 0.949 . S
H1702 C1706 0.949 . S
C1703 C1704 1.349 . S
C1703 C1705 1.327 . S
C1703 H1726 0.950 . S
C1704 C1703 1.349 . S
C1704 C1716 1.349 . S
C1705 C1703 1.327 . S
C1705 C1721 1.429 . S
C1705 H1727 0.950 . S
C1706 H1702 0.949 . S
C1706 C1714 1.574 . S
C1706 C1722 1.368 . S
H1707 C1715 0.950 . S
H1708 C1713 0.950 . S
H1709 C1714 0.949 . S
H1710 C1716 0.950 . S
H1711 C1717 0.950 . S
H1712 C1718 0.949 . S
C1713 H1708 0.950 . S
C1713 C1715 1.327 . S
C1713 C1719 1.429 . S
C1714 C1706 1.574 . S
C1714 H1709 0.949 . S
C1714 C1720 1.368 . S
C1715 C1699 1.349 . S
C1715 H1707 0.950 . S
C1715 C1713 1.327 . S
C1716 C1704 1.349 . S
C1716 H1710 0.950 . S
C1716 C1717 1.327 . S
C1717 H1711 0.950 . S
C1717 C1716 1.327 . S
C1717 C1721 1.429 . S
C1718 C1701 1.574 . S
C1718 H1712 0.949 . S
C1718 C1722 1.368 . S
C1719 C1700 1.429 . S
C1719 C1713 1.429 . S
C1719 C1720 1.523 . S
C1720 C1701 1.368 . S
C1720 C1714 1.368 . S
C1720 C1719 1.523 . S
C1721 C1705 1.429 . S
C1721 C1717 1.429 . S
C1721 C1722 1.523 . S
C1722 C1706 1.368 . S
C1722 C1718 1.368 . S
C1722 C1721 1.523 . S
H1723 C1698 0.950 . S
H1724 C1700 0.950 . S
H1725 C1701 0.949 . S
H1726 C1703 0.950 . S
H1727 C1705 0.950 . S
C1728 C1729 1.349 . S
C1728 C1730 1.327 . S
C1728 H1753 0.950 . S
C1729 C1728 1.349 . S
C1729 C1745 1.349 . S
C1730 C1728 1.327 . S
C1730 C1749 1.429 . S
C1730 H1754 0.950 . S
C1731 C1748 1.574 . S
C1731 C1750 1.368 . S
C1731 H1755 0.949 . S
H1732 C1736 0.949 . S
C1733 C1734 1.349 . S
C1733 C1735 1.327 . S
C1733 H1756 0.950 . S
C1734 C1733 1.349 . S
C1734 C1746 1.349 . S
C1735 C1733 1.327 . S
C1735 C1751 1.429 . S
C1735 H1757 0.950 . S
C1736 H1732 0.949 . S
C1736 C1744 1.574 . S
C1736 C1752 1.368 . S
H1737 C1745 0.950 . S
H1738 C1743 0.950 . S
H1739 C1744 0.949 . S
H1740 C1746 0.950 . S
H1741 C1747 0.950 . S
H1742 C1748 0.949 . S
C1743 H1738 0.950 . S
C1743 C1745 1.327 . S
C1743 C1749 1.429 . S
C1744 C1736 1.574 . S
C1744 H1739 0.949 . S
C1744 C1750 1.368 . S
C1745 C1729 1.349 . S
C1745 H1737 0.950 . S
C1745 C1743 1.327 . S
C1746 C1734 1.349 . S
C1746 H1740 0.950 . S
C1746 C1747 1.327 . S
C1747 H1741 0.950 . S
C1747 C1746 1.327 . S
C1747 C1751 1.429 . S
C1748 C1731 1.574 . S
C1748 H1742 0.949 . S
C1748 C1752 1.368 . S
C1749 C1730 1.429 . S
C1749 C1743 1.429 . S
C1749 C1750 1.523 . S
C1750 C1731 1.368 . S
C1750 C1744 1.368 . S
C1750 C1749 1.523 . S
C1751 C1735 1.429 . S
C1751 C1747 1.429 . S
C1751 C1752 1.523 . S
C1752 C1736 1.368 . S
C1752 C1748 1.368 . S
C1752 C1751 1.523 . S
H1753 C1728 0.950 . S
H1754 C1730 0.950 . S
H1755 C1731 0.949 . S
H1756 C1733 0.950 . S
H1757 C1735 0.950 . S
C1758 C1759 1.349 . S
C1758 C1760 1.327 . S
C1758 H1783 0.950 . S
C1759 C1758 1.349 . S
C1759 C1775 1.349 . S
C1760 C1758 1.327 . S
C1760 C1779 1.429 . S
C1760 H1784 0.950 . S
C1761 C1778 1.574 . S
C1761 C1780 1.368 . S
C1761 H1785 0.949 . S
H1762 C1766 0.949 . S
C1763 C1764 1.349 . S
C1763 C1765 1.327 . S
C1763 H1786 0.950 . S
C1764 C1763 1.349 . S
C1764 C1776 1.349 . S
C1765 C1763 1.327 . S
C1765 C1781 1.429 . S
C1765 H1787 0.950 . S
C1766 H1762 0.949 . S
C1766 C1774 1.574 . S
C1766 C1782 1.368 . S
H1767 C1775 0.950 . S
H1768 C1773 0.950 . S
H1769 C1774 0.949 . S
H1770 C1776 0.950 . S
H1771 C1777 0.950 . S
H1772 C1778 0.949 . S
C1773 H1768 0.950 . S
C1773 C1775 1.327 . S
C1773 C1779 1.429 . S
C1774 C1766 1.574 . S
C1774 H1769 0.949 . S
C1774 C1780 1.368 . S
C1775 C1759 1.349 . S
C1775 H1767 0.950 . S
C1775 C1773 1.327 . S
C1776 C1764 1.349 . S
C1776 H1770 0.950 . S
C1776 C1777 1.327 . S
C1777 H1771 0.950 . S
C1777 C1776 1.327 . S
C1777 C1781 1.429 . S
C1778 C1761 1.574 . S
C1778 H1772 0.949 . S
C1778 C1782 1.368 . S
C1779 C1760 1.429 . S
C1779 C1773 1.429 . S
C1779 C1780 1.523 . S
C1780 C1761 1.368 . S
C1780 C1774 1.368 . S
C1780 C1779 1.523 . S
C1781 C1765 1.429 . S
C1781 C1777 1.429 . S
C1781 C1782 1.523 . S
C1782 C1766 1.368 . S
C1782 C1778 1.368 . S
C1782 C1781 1.523 . S
H1783 C1758 0.950 . S
H1784 C1760 0.950 . S
H1785 C1761 0.949 . S
H1786 C1763 0.950 . S
H1787 C1765 0.950 . S
C1788 C1789 1.349 . S
C1788 C1790 1.327 . S
C1788 H1813 0.950 . S
C1789 C1788 1.349 . S
C1789 C1805 1.349 . S
C1790 C1788 1.327 . S
C1790 C1809 1.429 . S
C1790 H1814 0.950 . S
C1791 C1808 1.574 . S
C1791 C1810 1.368 . S
C1791 H1815 0.949 . S
H1792 C1796 0.949 . S
C1793 C1794 1.349 . S
C1793 C1795 1.327 . S
C1793 H1816 0.950 . S
C1794 C1793 1.349 . S
C1794 C1806 1.349 . S
C1795 C1793 1.327 . S
C1795 C1811 1.429 . S
C1795 H1817 0.950 . S
C1796 H1792 0.949 . S
C1796 C1804 1.574 . S
C1796 C1812 1.368 . S
H1797 C1805 0.950 . S
H1798 C1803 0.950 . S
H1799 C1804 0.949 . S
H1800 C1806 0.950 . S
H1801 C1807 0.950 . S
H1802 C1808 0.949 . S
C1803 H1798 0.950 . S
C1803 C1805 1.327 . S
C1803 C1809 1.429 . S
C1804 C1796 1.574 . S
C1804 H1799 0.949 . S
C1804 C1810 1.368 . S
C1805 C1789 1.349 . S
C1805 H1797 0.950 . S
C1805 C1803 1.327 . S
C1806 C1794 1.349 . S
C1806 H1800 0.950 . S
C1806 C1807 1.327 . S
C1807 H1801 0.950 . S
C1807 C1806 1.327 . S
C1807 C1811 1.429 . S
C1808 C1791 1.574 . S
C1808 H1802 0.949 . S
C1808 C1812 1.368 . S
C1809 C1790 1.429 . S
C1809 C1803 1.429 . S
C1809 C1810 1.523 . S
C1810 C1791 1.368 . S
C1810 C1804 1.368 . S
C1810 C1809 1.523 . S
C1811 C1795 1.429 . S
C1811 C1807 1.429 . S
C1811 C1812 1.523 . S
C1812 C1796 1.368 . S
C1812 C1808 1.368 . S
C1812 C1811 1.523 . S
H1813 C1788 0.950 . S
H1814 C1790 0.950 . S
H1815 C1791 0.949 . S
H1816 C1793 0.950 . S
H1817 C1795 0.950 . S
C1818 C1819 1.349 . S
C1818 C1820 1.327 . S
C1818 H1843 0.950 . S
C1819 C1818 1.349 . S
C1819 C1835 1.349 . S
C1820 C1818 1.327 . S
C1820 C1839 1.429 . S
C1820 H1844 0.950 . S
C1821 C1838 1.574 . S
C1821 C1840 1.368 . S
C1821 H1845 0.949 . S
H1822 C1826 0.949 . S
C1823 C1824 1.349 . S
C1823 C1825 1.327 . S
C1823 H1846 0.950 . S
C1824 C1823 1.349 . S
C1824 C1836 1.349 . S
C1825 C1823 1.327 . S
C1825 C1841 1.429 . S
C1825 H1847 0.950 . S
C1826 H1822 0.949 . S
C1826 C1834 1.574 . S
C1826 C1842 1.368 . S
H1827 C1835 0.950 . S
H1828 C1833 0.950 . S
H1829 C1834 0.949 . S
H1830 C1836 0.950 . S
H1831 C1837 0.950 . S
H1832 C1838 0.949 . S
C1833 H1828 0.950 . S
C1833 C1835 1.327 . S
C1833 C1839 1.429 . S
C1834 C1826 1.574 . S
C1834 H1829 0.949 . S
C1834 C1840 1.368 . S
C1835 C1819 1.349 . S
C1835 H1827 0.950 . S
C1835 C1833 1.327 . S
C1836 C1824 1.349 . S
C1836 H1830 0.950 . S
C1836 C1837 1.327 . S
C1837 H1831 0.950 . S
C1837 C1836 1.327 . S
C1837 C1841 1.429 . S
C1838 C1821 1.574 . S
C1838 H1832 0.949 . S
C1838 C1842 1.368 . S
C1839 C1820 1.429 . S
C1839 C1833 1.429 . S
C1839 C1840 1.523 . S
C1840 C1821 1.368 . S
C1840 C1834 1.368 . S
C1840 C1839 1.523 . S
C1841 C1825 1.429 . S
C1841 C1837 1.429 . S
C1841 C1842 1.523 . S
C1842 C1826 1.368 . S
C1842 C1838 1.368 . S
C1842 C1841 1.523 . S
H1843 C1818 0.950 . S
H1844 C1820 0.950 . S
H1845 C1821 0.949 . S
H1846 C1823 0.950 . S
H1847 C1825 0.950 . S
C1848 C1849 1.349 . S
C1848 C1850 1.327 . S
C1848 H1873 0.950 . S
C1849 C1848 1.349 . S
C1849 C1865 1.349 . S
C1850 C1848 1.327 . S
C1850 C1869 1.429 . S
C1850 H1874 0.950 . S
C1851 C1868 1.574 . S
C1851 C1870 1.368 . S
C1851 H1875 0.949 . S
H1852 C1856 0.949 . S
C1853 C1854 1.349 . S
C1853 C1855 1.327 . S
C1853 H1876 0.950 . S
C1854 C1853 1.349 . S
C1854 C1866 1.349 . S
C1855 C1853 1.327 . S
C1855 C1871 1.429 . S
C1855 H1877 0.950 . S
C1856 H1852 0.949 . S
C1856 C1864 1.574 . S
C1856 C1872 1.368 . S
H1857 C1865 0.950 . S
H1858 C1863 0.950 . S
H1859 C1864 0.949 . S
H1860 C1866 0.950 . S
H1861 C1867 0.950 . S
H1862 C1868 0.949 . S
C1863 H1858 0.950 . S
C1863 C1865 1.327 . S
C1863 C1869 1.429 . S
C1864 C1856 1.574 . S
C1864 H1859 0.949 . S
C1864 C1870 1.368 . S
C1865 C1849 1.349 . S
C1865 H1857 0.950 . S
C1865 C1863 1.327 . S
C1866 C1854 1.349 . S
C1866 H1860 0.950 . S
C1866 C1867 1.327 . S
C1867 H1861 0.950 . S
C1867 C1866 1.327 . S
C1867 C1871 1.429 . S
C1868 C1851 1.574 . S
C1868 H1862 0.949 . S
C1868 C1872 1.368 . S
C1869 C1850 1.429 . S
C1869 C1863 1.429 . S
C1869 C1870 1.523 . S
C1870 C1851 1.368 . S
C1870 C1864 1.368 . S
C1870 C1869 1.523 . S
C1871 C1855 1.429 . S
C1871 C1867 1.429 . S
C1871 C1872 1.523 . S
C1872 C1856 1.368 . S
C1872 C1868 1.368 . S
C1872 C1871 1.523 . S
H1873 C1848 0.950 . S
H1874 C1850 0.950 . S
H1875 C1851 0.949 . S
H1876 C1853 0.950 . S
H1877 C1855 0.950 . S
C1878 C1879 1.349 . S
C1878 C1880 1.327 . S
C1878 H1903 0.950 . S
C1879 C1878 1.349 . S
C1879 C1895 1.349 . S
C1880 C1878 1.327 . S
C1880 C1899 1.429 . S
C1880 H1904 0.950 . S
C1881 C1898 1.574 . S
C1881 C1900 1.368 . S
C1881 H1905 0.949 . S
H1882 C1886 0.949 . S
C1883 C1884 1.349 . S
C1883 C1885 1.327 . S
C1883 H1906 0.950 . S
C1884 C1883 1.349 . S
C1884 C1896 1.349 . S
C1885 C1883 1.327 . S
C1885 C1901 1.429 . S
C1885 H1907 0.950 . S
C1886 H1882 0.949 . S
C1886 C1894 1.574 . S
C1886 C1902 1.368 . S
H1887 C1895 0.950 . S
H1888 C1893 0.950 . S
H1889 C1894 0.949 . S
H1890 C1896 0.950 . S
H1891 C1897 0.950 . S
H1892 C1898 0.949 . S
C1893 H1888 0.950 . S
C1893 C1895 1.327 . S
C1893 C1899 1.429 . S
C1894 C1886 1.574 . S
C1894 H1889 0.949 . S
C1894 C1900 1.368 . S
C1895 C1879 1.349 . S
C1895 H1887 0.950 . S
C1895 C1893 1.327 . S
C1896 C1884 1.349 . S
C1896 H1890 0.950 . S
C1896 C1897 1.327 . S
C1897 H1891 0.950 . S
C1897 C1896 1.327 . S
C1897 C1901 1.429 . S
C1898 C1881 1.574 . S
C1898 H1892 0.949 . S
C1898 C1902 1.368 . S
C1899 C1880 1.429 . S
C1899 C1893 1.429 . S
C1899 C1900 1.523 . S
C1900 C1881 1.368 . S
C1900 C1894 1.368 . S
C1900 C1899 1.523 . S
C1901 C1885 1.429 . S
C1901 C1897 1.429 . S
C1901 C1902 1.523 . S
C1902 C1886 1.368 . S
C1902 C1898 1.368 . S
C1902 C1901 1.523 . S
H1903 C1878 0.950 . S
H1904 C1880 0.950 . S
H1905 C1881 0.949 . S
H1906 C1883 0.950 . S
H1907 C1885 0.950 . S
C1908 C1909 1.349 . S
C1908 C1910 1.327 . S
C1908 H1933 0.950 . S
C1909 C1908 1.349 . S
C1909 C1925 1.349 . S
C1910 C1908 1.327 . S
C1910 C1929 1.429 . S
C1910 H1934 0.950 . S
C1911 C1928 1.574 . S
C1911 C1930 1.368 . S
C1911 H1935 0.949 . S
H1912 C1916 0.949 . S
C1913 C1914 1.349 . S
C1913 C1915 1.327 . S
C1913 H1936 0.950 . S
C1914 C1913 1.349 . S
C1914 C1926 1.349 . S
C1915 C1913 1.327 . S
C1915 C1931 1.429 . S
C1915 H1937 0.950 . S
C1916 H1912 0.949 . S
C1916 C1924 1.574 . S
C1916 C1932 1.368 . S
H1917 C1925 0.950 . S
H1918 C1923 0.950 . S
H1919 C1924 0.949 . S
H1920 C1926 0.950 . S
H1921 C1927 0.950 . S
H1922 C1928 0.949 . S
C1923 H1918 0.950 . S
C1923 C1925 1.327 . S
C1923 C1929 1.429 . S
C1924 C1916 1.574 . S
C1924 H1919 0.949 . S
C1924 C1930 1.368 . S
C1925 C1909 1.349 . S
C1925 H1917 0.950 . S
C1925 C1923 1.327 . S
C1926 C1914 1.349 . S
C1926 H1920 0.950 . S
C1926 C1927 1.327 . S
C1927 H1921 0.950 . S
C1927 C1926 1.327 . S
C1927 C1931 1.429 . S
C1928 C1911 1.574 . S
C1928 H1922 0.949 . S
C1928 C1932 1.368 . S
C1929 C1910 1.429 . S
C1929 C1923 1.429 . S
C1929 C1930 1.523 . S
C1930 C1911 1.368 . S
C1930 C1924 1.368 . S
C1930 C1929 1.523 . S
C1931 C1915 1.429 . S
C1931 C1927 1.429 . S
C1931 C1932 1.523 . S
C1932 C1916 1.368 . S
C1932 C1928 1.368 . S
C1932 C1931 1.523 . S
H1933 C1908 0.950 . S
H1934 C1910 0.950 . S
H1935 C1911 0.949 . S
H1936 C1913 0.950 . S
H1937 C1915 0.950 . S
C1938 C1939 1.349 . S
C1938 C1940 1.327 . S
C1938 H1963 0.950 . S
C1939 C1938 1.349 . S
C1939 C1955 1.349 . S
C1940 C1938 1.327 . S
C1940 C1959 1.429 . S
C1940 H1964 0.950 . S
C1941 C1958 1.563 1_565 S
C1941 C1960 1.363 . S
C1941 H1965 0.950 . S
H1942 C1946 0.949 . S
C1943 C1944 1.349 . S
C1943 C1945 1.327 . S
C1943 H1966 0.950 . S
C1944 C1943 1.349 . S
C1944 C1956 1.349 . S
C1945 C1943 1.327 . S
C1945 C1961 1.429 . S
C1945 H1967 0.950 . S
C1946 H1942 0.949 . S
C1946 C1954 1.574 . S
C1946 C1962 1.368 1_565 S
H1947 C1955 0.950 . S
H1948 C1953 0.950 . S
H1949 C1954 0.949 . S
H1950 C1956 0.950 . S
H1951 C1957 0.950 . S
H1952 C1958 0.949 . S
C1953 H1948 0.950 . S
C1953 C1955 1.327 . S
C1953 C1959 1.429 . S
C1954 C1946 1.574 . S
C1954 H1949 0.949 . S
C1954 C1960 1.368 . S
C1955 C1939 1.349 . S
C1955 H1947 0.950 . S
C1955 C1953 1.327 . S
C1956 C1944 1.349 . S
C1956 H1950 0.950 . S
C1956 C1957 1.327 . S
C1957 H1951 0.950 . S
C1957 C1956 1.327 . S
C1957 C1961 1.429 . S
C1958 C1941 1.563 1_545 S
C1958 H1952 0.949 . S
C1958 C1962 1.368 . S
C1959 C1940 1.429 . S
C1959 C1953 1.429 . S
C1959 C1960 1.523 . S
C1960 C1941 1.363 . S
C1960 C1954 1.368 . S
C1960 C1959 1.523 . S
C1961 C1945 1.429 . S
C1961 C1957 1.429 . S
C1961 C1962 1.523 . S
C1962 C1946 1.368 1_545 S
C1962 C1958 1.368 . S
C1962 C1961 1.523 . S
H1963 C1938 0.950 . S
H1964 C1940 0.950 . S
H1965 C1941 0.950 . S
H1966 C1943 0.950 . S
H1967 C1945 0.950 . S
C1968 C1969 1.349 . S
C1968 C1970 1.327 . S
C1968 H1993 0.950 . S
C1969 C1968 1.349 . S
C1969 C1985 1.349 . S
C1970 C1968 1.327 . S
C1970 C1989 1.429 . S
C1970 H1994 0.950 . S
C1971 C1988 1.574 . S
C1971 C1990 1.368 . S
C1971 H1995 0.949 . S
H1972 C1976 0.949 . S
C1973 C1974 1.349 . S
C1973 C1975 1.327 . S
C1973 H1996 0.950 . S
C1974 C1973 1.349 . S
C1974 C1986 1.349 . S
C1975 C1973 1.327 . S
C1975 C1991 1.429 . S
C1975 H1997 0.950 . S
C1976 H1972 0.949 . S
C1976 C1984 1.574 . S
C1976 C1992 1.368 . S
H1977 C1985 0.950 . S
H1978 C1983 0.950 . S
H1979 C1984 0.949 . S
H1980 C1986 0.950 . S
H1981 C1987 0.940 . S
H1982 C1988 0.950 . S
C1983 H1978 0.950 . S
C1983 C1985 1.327 . S
C1983 C1989 1.429 . S
C1984 C1976 1.574 . S
C1984 H1979 0.949 . S
C1984 C1990 1.368 . S
C1985 C1969 1.349 . S
C1985 H1977 0.950 . S
C1985 C1983 1.327 . S
C1986 C1974 1.349 . S
C1986 H1980 0.950 . S
C1986 C1987 1.327 . S
C1987 H1981 0.940 . S
C1987 C1986 1.327 . S
C1987 C1991 1.429 . S
C1988 C1971 1.574 . S
C1988 H1982 0.950 . S
C1988 C1992 1.368 . S
C1989 C1970 1.429 . S
C1989 C1983 1.429 . S
C1989 C1990 1.523 . S
C1990 C1971 1.368 . S
C1990 C1984 1.368 . S
C1990 C1989 1.523 . S
C1991 C1975 1.429 . S
C1991 C1987 1.429 . S
C1991 C1992 1.523 1_455 S
C1992 C1976 1.368 . S
C1992 C1988 1.368 . S
C1992 C1991 1.523 1_655 S
H1993 C1968 0.950 . S
H1994 C1970 0.950 . S
H1995 C1971 0.949 . S
H1996 C1973 0.950 . S
H1997 C1975 0.950 . S
C1998 C1999 1.349 . S
C1998 C2000 1.327 . S
C1998 H2023 0.950 . S
C1999 C1998 1.349 . S
C1999 C2015 1.349 . S
C2000 C1998 1.327 . S
C2000 C2019 1.429 . S
C2000 H2024 0.950 . S
C2001 C2018 1.574 . S
C2001 C2020 1.368 . S
C2001 H2025 0.949 . S
H2002 C2006 0.949 . S
C2003 C2004 1.349 . S
C2003 C2005 1.327 . S
C2003 H2026 0.950 . S
C2004 C2003 1.349 . S
C2004 C2016 1.349 . S
C2005 C2003 1.327 . S
C2005 C2021 1.429 . S
C2005 H2027 0.950 . S
C2006 H2002 0.949 . S
C2006 C2014 1.574 . S
C2006 C2022 1.368 . S
H2007 C2015 0.950 . S
H2008 C2013 0.950 . S
H2009 C2014 0.949 . S
H2010 C2016 0.950 . S
H2011 C2017 0.950 . S
H2012 C2018 0.949 . S
C2013 H2008 0.950 . S
C2013 C2015 1.327 . S
C2013 C2019 1.429 . S
C2014 C2006 1.574 . S
C2014 H2009 0.949 . S
C2014 C2020 1.368 . S
C2015 C1999 1.349 . S
C2015 H2007 0.950 . S
C2015 C2013 1.327 . S
C2016 C2004 1.349 . S
C2016 H2010 0.950 . S
C2016 C2017 1.327 . S
C2017 H2011 0.950 . S
C2017 C2016 1.327 . S
C2017 C2021 1.429 . S
C2018 C2001 1.574 . S
C2018 H2012 0.949 . S
C2018 C2022 1.368 . S
C2019 C2000 1.429 . S
C2019 C2013 1.429 . S
C2019 C2020 1.523 . S
C2020 C2001 1.368 . S
C2020 C2014 1.368 . S
C2020 C2019 1.523 . S
C2021 C2005 1.429 . S
C2021 C2017 1.429 . S
C2021 C2022 1.523 . S
C2022 C2006 1.368 . S
C2022 C2018 1.368 . S
C2022 C2021 1.523 . S
H2023 C1998 0.950 . S
H2024 C2000 0.950 . S
H2025 C2001 0.949 . S
H2026 C2003 0.950 . S
H2027 C2005 0.950 . S
C2028 C2029 1.349 . S
C2028 C2030 1.327 . S
C2028 H2053 0.950 . S
C2029 C2028 1.349 . S
C2029 C2045 1.349 . S
C2030 C2028 1.327 . S
C2030 C2049 1.429 . S
C2030 H2054 0.881 1_545 S
C2031 C2048 1.574 . S
C2031 C2050 1.368 . S
C2031 H2055 0.949 . S
H2032 C2036 0.949 . S
C2033 C2034 1.349 . S
C2033 C2035 1.327 . S
C2033 H2056 0.950 . S
C2034 C2033 1.349 . S
C2034 C2046 1.349 . S
C2035 C2033 1.327 . S
C2035 C2051 1.429 . S
C2035 H2057 1.000 . S
C2036 H2032 0.949 . S
C2036 C2044 1.574 . S
C2036 C2052 1.368 . S
H2037 C2045 0.950 . S
H2038 C2043 0.950 . S
H2039 C2044 0.949 . S
H2040 C2046 0.950 . S
H2041 C2047 0.950 . S
H2042 C2048 0.949 . S
C2043 H2038 0.950 . S
C2043 C2045 1.327 . S
C2043 C2049 1.429 . S
C2044 C2036 1.574 . S
C2044 H2039 0.949 . S
C2044 C2050 1.368 1_565 S
C2045 C2029 1.349 . S
C2045 H2037 0.950 . S
C2045 C2043 1.327 . S
C2046 C2034 1.349 . S
C2046 H2040 0.950 . S
C2046 C2047 1.327 . S
C2047 H2041 0.950 . S
C2047 C2046 1.327 . S
C2047 C2051 1.429 . S
C2048 C2031 1.574 . S
C2048 H2042 0.949 . S
C2048 C2052 1.368 1_545 S
C2049 C2030 1.429 . S
C2049 C2043 1.429 . S
C2049 C2050 1.523 . S
C2050 C2031 1.368 . S
C2050 C2044 1.368 1_545 S
C2050 C2049 1.523 . S
C2051 C2035 1.429 . S
C2051 C2047 1.429 . S
C2051 C2052 1.523 . S
C2052 C2036 1.368 . S
C2052 C2048 1.368 1_565 S
C2052 C2051 1.523 . S
H2053 C2028 0.950 . S
H2054 C2030 0.881 1_565 S
H2055 C2031 0.949 . S
H2056 C2033 0.950 . S
H2057 C2035 1.000 . S
C2058 C2059 1.349 . S
C2058 C2060 1.327 . S
C2058 H2083 0.950 . S
C2059 C2058 1.349 . S
C2059 C2075 1.349 . S
C2060 C2058 1.327 . S
C2060 C2079 1.429 . S
C2060 H2084 0.950 . S
C2061 C2078 1.574 1_655 S
C2061 C2080 1.368 . S
C2061 H2085 0.949 . S
H2062 C2066 0.949 . S
C2063 C2064 1.349 . S
C2063 C2065 1.327 . S
C2063 H2086 0.950 . S
C2064 C2063 1.349 . S
C2064 C2076 1.349 . S
C2065 C2063 1.327 . S
C2065 C2081 1.429 . S
C2065 H2087 0.950 . S
C2066 H2062 0.949 . S
C2066 C2074 1.574 1_455 S
C2066 C2082 1.368 . S
H2067 C2075 0.950 . S
H2068 C2073 0.950 . S
H2069 C2074 0.949 . S
H2070 C2076 0.950 . S
H2071 C2077 0.950 . S
H2072 C2078 0.949 . S
C2073 H2068 0.950 . S
C2073 C2075 1.327 . S
C2073 C2079 1.429 . S
C2074 C2066 1.574 1_655 S
C2074 H2069 0.949 . S
C2074 C2080 1.368 . S
C2075 C2059 1.349 . S
C2075 H2067 0.950 . S
C2075 C2073 1.327 . S
C2076 C2064 1.349 . S
C2076 H2070 0.950 . S
C2076 C2077 1.327 . S
C2077 H2071 0.950 . S
C2077 C2076 1.327 . S
C2077 C2081 1.429 . S
C2078 C2061 1.574 1_455 S
C2078 H2072 0.949 . S
C2078 C2082 1.368 . S
C2079 C2060 1.429 . S
C2079 C2073 1.429 . S
C2079 C2080 1.523 . S
C2080 C2061 1.368 . S
C2080 C2074 1.368 . S
C2080 C2079 1.523 . S
C2081 C2065 1.429 . S
C2081 C2077 1.429 . S
C2081 C2082 1.523 . S
C2082 C2066 1.368 . S
C2082 C2078 1.368 . S
C2082 C2081 1.523 . S
H2083 C2058 0.950 . S
H2084 C2060 0.950 . S
H2085 C2061 0.949 . S
H2086 C2063 0.950 . S
H2087 C2065 0.950 . S
C2088 C2089 1.349 . S
C2088 C2090 1.327 . S
C2088 H2113 0.950 . S
C2089 C2088 1.349 . S
C2089 C2105 1.349 . S
C2090 C2088 1.327 . S
C2090 C2109 1.429 . S
C2090 H2114 0.950 . S
C2091 C2108 1.574 . S
C2091 C2110 1.368 . S
C2091 H2115 0.949 . S
H2092 C2096 0.949 . S
C2093 C2094 1.349 . S
C2093 C2095 1.327 . S
C2093 H2116 0.950 . S
C2094 C2093 1.349 . S
C2094 C2106 1.349 . S
C2095 C2093 1.327 . S
C2095 C2111 1.429 . S
C2095 H2117 0.950 . S
C2096 H2092 0.949 . S
C2096 C2104 1.574 . S
C2096 C2112 1.368 . S
H2097 C2105 0.950 . S
H2098 C2103 0.950 . S
H2099 C2104 0.949 . S
H2100 C2106 0.950 . S
H2101 C2107 0.950 . S
H2102 C2108 0.949 . S
C2103 H2098 0.950 . S
C2103 C2105 1.327 . S
C2103 C2109 1.429 . S
C2104 C2096 1.574 . S
C2104 H2099 0.949 . S
C2104 C2110 1.368 . S
C2105 C2089 1.349 . S
C2105 H2097 0.950 . S
C2105 C2103 1.327 . S
C2106 C2094 1.349 . S
C2106 H2100 0.950 . S
C2106 C2107 1.327 . S
C2107 H2101 0.950 . S
C2107 C2106 1.327 . S
C2107 C2111 1.429 . S
C2108 C2091 1.574 . S
C2108 H2102 0.949 . S
C2108 C2112 1.368 . S
C2109 C2090 1.429 . S
C2109 C2103 1.429 . S
C2109 C2110 1.523 . S
C2110 C2091 1.368 . S
C2110 C2104 1.368 . S
C2110 C2109 1.523 . S
C2111 C2095 1.429 . S
C2111 C2107 1.429 . S
C2111 C2112 1.523 . S
C2112 C2096 1.368 . S
C2112 C2108 1.368 . S
C2112 C2111 1.523 . S
H2113 C2088 0.950 . S
H2114 C2090 0.950 . S
H2115 C2091 0.949 . S
H2116 C2093 0.950 . S
H2117 C2095 0.950 . S
C2118 C2119 1.349 . S
C2118 C2120 1.327 . S
C2118 H2143 0.950 . S
C2119 C2118 1.349 . S
C2119 C2135 1.349 . S
C2120 C2118 1.327 . S
C2120 C2139 1.429 . S
C2120 H2144 0.950 . S
C2121 C2138 1.574 . S
C2121 C2140 1.368 . S
C2121 H2145 0.949 . S
H2122 C2126 0.949 . S
C2123 C2124 1.349 . S
C2123 C2125 1.327 . S
C2123 H2146 0.950 . S
C2124 C2123 1.349 . S
C2124 C2136 1.349 . S
C2125 C2123 1.327 . S
C2125 C2141 1.429 . S
C2125 H2147 0.950 . S
C2126 H2122 0.949 . S
C2126 C2134 1.574 . S
C2126 C2142 1.368 . S
H2127 C2135 0.950 . S
H2128 C2133 0.950 . S
H2129 C2134 0.949 . S
H2130 C2136 0.950 . S
H2131 C2137 0.950 . S
H2132 C2138 0.949 . S
C2133 H2128 0.950 . S
C2133 C2135 1.327 . S
C2133 C2139 1.429 . S
C2134 C2126 1.574 . S
C2134 H2129 0.949 . S
C2134 C2140 1.368 . S
C2135 C2119 1.349 . S
C2135 H2127 0.950 . S
C2135 C2133 1.327 . S
C2136 C2124 1.349 . S
C2136 H2130 0.950 . S
C2136 C2137 1.327 . S
C2137 H2131 0.950 . S
C2137 C2136 1.327 . S
C2137 C2141 1.429 . S
C2138 C2121 1.574 . S
C2138 H2132 0.949 . S
C2138 C2142 1.368 . S
C2139 C2120 1.429 . S
C2139 C2133 1.429 . S
C2139 C2140 1.523 . S
C2140 C2121 1.368 . S
C2140 C2134 1.368 . S
C2140 C2139 1.523 . S
C2141 C2125 1.429 . S
C2141 C2137 1.429 . S
C2141 C2142 1.523 . S
C2142 C2126 1.368 . S
C2142 C2138 1.368 . S
C2142 C2141 1.523 . S
H2143 C2118 0.950 . S
H2144 C2120 0.950 . S
H2145 C2121 0.949 . S
H2146 C2123 0.950 . S
H2147 C2125 0.950 . S
C2148 C2149 1.349 . S
C2148 C2150 1.327 . S
C2148 H2173 0.950 . S
C2149 C2148 1.349 . S
C2149 C2165 1.349 . S
C2150 C2148 1.327 . S
C2150 C2169 1.429 . S
C2150 H2174 0.950 . S
C2151 C2168 1.574 . S
C2151 C2170 1.368 . S
C2151 H2175 0.949 . S
H2152 C2156 0.949 . S
C2153 C2154 1.349 . S
C2153 C2155 1.327 . S
C2153 H2176 0.950 . S
C2154 C2153 1.349 . S
C2154 C2166 1.349 . S
C2155 C2153 1.327 . S
C2155 C2171 1.429 . S
C2155 H2177 0.950 . S
C2156 H2152 0.949 . S
C2156 C2164 1.574 . S
C2156 C2172 1.368 . S
H2157 C2165 0.950 . S
H2158 C2163 0.950 . S
H2159 C2164 0.949 . S
H2160 C2166 0.950 . S
H2161 C2167 0.950 . S
H2162 C2168 0.949 . S
C2163 H2158 0.950 . S
C2163 C2165 1.327 . S
C2163 C2169 1.429 . S
C2164 C2156 1.574 . S
C2164 H2159 0.949 . S
C2164 C2170 1.368 . S
C2165 C2149 1.349 . S
C2165 H2157 0.950 . S
C2165 C2163 1.327 . S
C2166 C2154 1.349 . S
C2166 H2160 0.950 . S
C2166 C2167 1.327 . S
C2167 H2161 0.950 . S
C2167 C2166 1.327 . S
C2167 C2171 1.429 . S
C2168 C2151 1.574 . S
C2168 H2162 0.949 . S
C2168 C2172 1.368 . S
C2169 C2150 1.429 . S
C2169 C2163 1.429 . S
C2169 C2170 1.523 . S
C2170 C2151 1.368 . S
C2170 C2164 1.368 . S
C2170 C2169 1.523 . S
C2171 C2155 1.429 . S
C2171 C2167 1.429 . S
C2171 C2172 1.523 . S
C2172 C2156 1.368 . S
C2172 C2168 1.368 . S
C2172 C2171 1.523 . S
H2173 C2148 0.950 . S
H2174 C2150 0.950 . S
H2175 C2151 0.949 . S
H2176 C2153 0.950 . S
H2177 C2155 0.950 . S
C2178 C2179 1.349 . S
C2178 C2180 1.327 . S
C2178 H2203 0.950 . S
C2179 C2178 1.349 . S
C2179 C2195 1.349 . S
C2180 C2178 1.327 . S
C2180 C2199 1.429 . S
C2180 H2204 0.950 . S
C2181 C2198 1.574 . S
C2181 C2200 1.368 . S
C2181 H2205 0.949 . S
H2182 C2186 0.949 . S
C2183 C2184 1.349 . S
C2183 C2185 1.327 . S
C2183 H2206 0.950 . S
C2184 C2183 1.349 . S
C2184 C2196 1.349 . S
C2185 C2183 1.327 . S
C2185 C2201 1.429 . S
C2185 H2207 0.950 . S
C2186 H2182 0.949 . S
C2186 C2194 1.574 . S
C2186 C2202 1.368 . S
H2187 C2195 0.950 . S
H2188 C2193 0.950 . S
H2189 C2194 0.949 . S
H2190 C2196 0.950 . S
H2191 C2197 0.950 . S
H2192 C2198 0.949 . S
C2193 H2188 0.950 . S
C2193 C2195 1.327 . S
C2193 C2199 1.429 . S
C2194 C2186 1.574 . S
C2194 H2189 0.949 . S
C2194 C2200 1.368 . S
C2195 C2179 1.349 . S
C2195 H2187 0.950 . S
C2195 C2193 1.327 . S
C2196 C2184 1.349 . S
C2196 H2190 0.950 . S
C2196 C2197 1.327 . S
C2197 H2191 0.950 . S
C2197 C2196 1.327 . S
C2197 C2201 1.429 . S
C2198 C2181 1.574 . S
C2198 H2192 0.949 . S
C2198 C2202 1.368 . S
C2199 C2180 1.429 . S
C2199 C2193 1.429 . S
C2199 C2200 1.523 . S
C2200 C2181 1.368 . S
C2200 C2194 1.368 . S
C2200 C2199 1.523 . S
C2201 C2185 1.429 . S
C2201 C2197 1.429 . S
C2201 C2202 1.523 . S
C2202 C2186 1.368 . S
C2202 C2198 1.368 . S
C2202 C2201 1.523 . S
H2203 C2178 0.950 . S
H2204 C2180 0.950 . S
H2205 C2181 0.949 . S
H2206 C2183 0.950 . S
H2207 C2185 0.950 . S
C2208 C2209 1.349 . S
C2208 C2210 1.327 . S
C2208 H2233 0.950 1_554 S
C2209 C2208 1.349 . S
C2209 C2225 1.349 . S
C2210 C2208 1.327 . S
C2210 C2229 1.429 . S
C2210 H2234 0.950 . S
C2211 C2228 1.574 . S
C2211 C2230 1.368 . S
C2211 H2235 0.949 . S
H2212 C2216 0.949 . S
C2213 C2214 1.349 . S
C2213 C2215 1.327 . S
C2213 H2236 0.950 . S
C2214 C2213 1.349 . S
C2214 C2226 1.349 . S
C2215 C2213 1.327 . S
C2215 C2231 1.429 . S
C2215 H2237 0.950 . S
C2216 H2212 0.949 . S
C2216 C2224 1.574 . S
C2216 C2232 1.368 . S
H2217 C2225 0.950 . S
H2218 C2223 0.950 . S
H2219 C2224 0.949 . S
H2220 C2226 0.950 . S
H2221 C2227 0.950 . S
H2222 C2228 0.949 . S
C2223 H2218 0.950 . S
C2223 C2225 1.327 . S
C2223 C2229 1.429 . S
C2224 C2216 1.574 . S
C2224 H2219 0.949 . S
C2224 C2230 1.368 . S
C2225 C2209 1.349 . S
C2225 H2217 0.950 . S
C2225 C2223 1.327 . S
C2226 C2214 1.349 . S
C2226 H2220 0.950 . S
C2226 C2227 1.327 . S
C2227 H2221 0.950 . S
C2227 C2226 1.327 . S
C2227 C2231 1.429 . S
C2228 C2211 1.574 . S
C2228 H2222 0.949 . S
C2228 C2232 1.368 . S
C2229 C2210 1.429 . S
C2229 C2223 1.429 . S
C2229 C2230 1.523 . S
C2230 C2211 1.368 . S
C2230 C2224 1.368 . S
C2230 C2229 1.523 . S
C2231 C2215 1.429 . S
C2231 C2227 1.429 . S
C2231 C2232 1.523 . S
C2232 C2216 1.368 . S
C2232 C2228 1.368 . S
C2232 C2231 1.523 . S
H2233 C2208 0.950 1_556 S
H2234 C2210 0.950 . S
H2235 C2211 0.949 . S
H2236 C2213 0.950 . S
H2237 C2215 0.950 . S
C2238 C2239 1.349 . S
C2238 C2240 1.327 . S
C2238 H2263 0.950 . S
C2239 C2238 1.349 . S
C2239 C2255 1.349 . S
C2240 C2238 1.327 . S
C2240 C2259 1.429 . S
C2240 H2264 0.950 . S
C2241 C2258 1.574 . S
C2241 C2260 1.368 . S
C2241 H2265 0.949 . S
H2242 C2246 0.949 . S
C2243 C2244 1.349 . S
C2243 C2245 1.327 . S
C2243 H2266 0.950 . S
C2244 C2243 1.349 . S
C2244 C2256 1.349 . S
C2245 C2243 1.327 . S
C2245 C2261 1.429 . S
C2245 H2267 0.950 . S
C2246 H2242 0.949 . S
C2246 C2254 1.574 . S
C2246 C2262 1.368 . S
H2247 C2255 0.950 . S
H2248 C2253 0.950 . S
H2249 C2254 0.949 . S
H2250 C2256 0.950 . S
H2251 C2257 0.950 . S
H2252 C2258 0.949 . S
C2253 H2248 0.950 . S
C2253 C2255 1.327 . S
C2253 C2259 1.429 . S
C2254 C2246 1.574 . S
C2254 H2249 0.949 . S
C2254 C2260 1.368 . S
C2255 C2239 1.349 . S
C2255 H2247 0.950 . S
C2255 C2253 1.327 . S
C2256 C2244 1.349 . S
C2256 H2250 0.950 . S
C2256 C2257 1.327 . S
C2257 H2251 0.950 . S
C2257 C2256 1.327 . S
C2257 C2261 1.429 . S
C2258 C2241 1.574 . S
C2258 H2252 0.949 . S
C2258 C2262 1.368 . S
C2259 C2240 1.429 . S
C2259 C2253 1.429 . S
C2259 C2260 1.523 . S
C2260 C2241 1.368 . S
C2260 C2254 1.368 . S
C2260 C2259 1.523 . S
C2261 C2245 1.429 . S
C2261 C2257 1.429 . S
C2261 C2262 1.523 . S
C2262 C2246 1.368 . S
C2262 C2258 1.368 . S
C2262 C2261 1.523 . S
H2263 C2238 0.950 . S
H2264 C2240 0.950 . S
H2265 C2241 0.949 . S
H2266 C2243 0.950 . S
H2267 C2245 0.950 . S
C2268 C2269 1.349 1_556 S
C2268 C2270 1.327 . S
C2268 H2293 0.950 1_556 S
C2269 C2268 1.349 1_554 S
C2269 C2285 1.349 1_554 S
C2270 C2268 1.327 . S
C2270 C2289 1.429 . S
C2270 H2294 0.950 . S
C2271 C2288 1.574 . S
C2271 C2290 1.368 . S
C2271 H2295 0.949 . S
H2272 C2276 0.949 . S
C2273 C2274 1.349 . S
C2273 C2275 1.327 . S
C2273 H2296 0.950 . S
C2274 C2273 1.349 . S
C2274 C2286 1.349 . S
C2275 C2273 1.327 . S
C2275 C2291 1.429 . S
C2275 H2297 0.950 . S
C2276 H2272 0.949 . S
C2276 C2284 1.574 . S
C2276 C2292 1.368 . S
H2277 C2285 0.950 . S
H2278 C2283 0.950 . S
H2279 C2284 0.949 . S
H2280 C2286 0.950 . S
H2281 C2287 0.950 . S
H2282 C2288 0.949 . S
C2283 H2278 0.950 . S
C2283 C2285 1.327 . S
C2283 C2289 1.429 . S
C2284 C2276 1.574 . S
C2284 H2279 0.949 . S
C2284 C2290 1.368 . S
C2285 C2269 1.349 1_556 S
C2285 H2277 0.950 . S
C2285 C2283 1.327 . S
C2286 C2274 1.349 . S
C2286 H2280 0.950 . S
C2286 C2287 1.327 . S
C2287 H2281 0.950 . S
C2287 C2286 1.327 . S
C2287 C2291 1.429 . S
C2288 C2271 1.574 . S
C2288 H2282 0.949 . S
C2288 C2292 1.368 . S
C2289 C2270 1.429 . S
C2289 C2283 1.429 . S
C2289 C2290 1.523 . S
C2290 C2271 1.368 . S
C2290 C2284 1.368 . S
C2290 C2289 1.523 . S
C2291 C2275 1.429 . S
C2291 C2287 1.429 . S
C2291 C2292 1.523 . S
C2292 C2276 1.368 . S
C2292 C2288 1.368 . S
C2292 C2291 1.523 . S
H2293 C2268 0.950 1_554 S
H2294 C2270 0.950 . S
H2295 C2271 0.949 . S
H2296 C2273 0.950 . S
H2297 C2275 0.950 . S
C2298 C2299 1.349 . S
C2298 C2300 1.327 . S
C2298 H2323 0.950 . S
C2299 C2298 1.349 . S
C2299 C2315 1.349 . S
C2300 C2298 1.327 . S
C2300 C2319 1.429 . S
C2300 H2324 0.950 . S
C2301 C2318 1.574 . S
C2301 C2320 1.368 . S
C2301 H2325 0.949 . S
H2302 C2306 0.949 . S
C2303 C2304 1.349 . S
C2303 C2305 1.327 . S
C2303 H2326 0.950 . S
C2304 C2303 1.349 . S
C2304 C2316 1.349 . S
C2305 C2303 1.327 . S
C2305 C2321 1.429 . S
C2305 H2327 0.950 . S
C2306 H2302 0.949 . S
C2306 C2314 1.574 . S
C2306 C2322 1.368 . S
H2307 C2315 0.950 . S
H2308 C2313 0.950 . S
H2309 C2314 0.949 . S
H2310 C2316 0.950 . S
H2311 C2317 0.950 . S
H2312 C2318 0.949 . S
C2313 H2308 0.950 . S
C2313 C2315 1.327 . S
C2313 C2319 1.429 . S
C2314 C2306 1.574 . S
C2314 H2309 0.949 . S
C2314 C2320 1.368 . S
C2315 C2299 1.349 . S
C2315 H2307 0.950 . S
C2315 C2313 1.327 . S
C2316 C2304 1.349 . S
C2316 H2310 0.950 . S
C2316 C2317 1.327 . S
C2317 H2311 0.950 . S
C2317 C2316 1.327 . S
C2317 C2321 1.429 . S
C2318 C2301 1.574 . S
C2318 H2312 0.949 . S
C2318 C2322 1.368 . S
C2319 C2300 1.429 . S
C2319 C2313 1.429 . S
C2319 C2320 1.523 . S
C2320 C2301 1.368 . S
C2320 C2314 1.368 . S
C2320 C2319 1.523 . S
C2321 C2305 1.429 . S
C2321 C2317 1.429 . S
C2321 C2322 1.523 . S
C2322 C2306 1.368 . S
C2322 C2318 1.368 . S
C2322 C2321 1.523 . S
H2323 C2298 0.950 . S
H2324 C2300 0.950 . S
H2325 C2301 0.949 . S
H2326 C2303 0.950 . S
H2327 C2305 0.950 . S
C2328 C2329 1.349 . S
C2328 C2330 1.327 . S
C2328 H2353 0.950 . S
C2329 C2328 1.349 . S
C2329 C2345 1.349 . S
C2330 C2328 1.327 . S
C2330 C2349 1.429 . S
C2330 H2354 0.950 . S
C2331 C2348 1.574 . S
C2331 C2350 1.368 . S
C2331 H2355 0.949 . S
H2332 C2336 0.949 . S
C2333 C2334 1.349 . S
C2333 C2335 1.327 . S
C2333 H2356 0.950 . S
C2334 C2333 1.349 . S
C2334 C2346 1.349 . S
C2335 C2333 1.327 . S
C2335 C2351 1.429 . S
C2335 H2357 0.950 . S
C2336 H2332 0.949 . S
C2336 C2344 1.574 . S
C2336 C2352 1.368 . S
H2337 C2345 0.950 . S
H2338 C2343 0.950 . S
H2339 C2344 0.949 . S
H2340 C2346 0.950 . S
H2341 C2347 0.950 . S
H2342 C2348 0.949 . S
C2343 H2338 0.950 . S
C2343 C2345 1.327 . S
C2343 C2349 1.429 . S
C2344 C2336 1.574 . S
C2344 H2339 0.949 . S
C2344 C2350 1.368 . S
C2345 C2329 1.349 . S
C2345 H2337 0.950 . S
C2345 C2343 1.327 . S
C2346 C2334 1.349 . S
C2346 H2340 0.950 . S
C2346 C2347 1.327 . S
C2347 H2341 0.950 . S
C2347 C2346 1.327 . S
C2347 C2351 1.429 . S
C2348 C2331 1.574 . S
C2348 H2342 0.949 . S
C2348 C2352 1.368 . S
C2349 C2330 1.429 . S
C2349 C2343 1.429 . S
C2349 C2350 1.523 . S
C2350 C2331 1.368 . S
C2350 C2344 1.368 . S
C2350 C2349 1.523 . S
C2351 C2335 1.429 . S
C2351 C2347 1.429 . S
C2351 C2352 1.523 . S
C2352 C2336 1.368 . S
C2352 C2348 1.368 . S
C2352 C2351 1.523 . S
H2353 C2328 0.950 . S
H2354 C2330 0.950 . S
H2355 C2331 0.949 . S
H2356 C2333 0.950 . S
H2357 C2335 0.950 . S
C2358 C2359 1.349 . S
C2358 C2360 1.327 . S
C2358 H2383 0.950 . S
C2359 C2358 1.349 . S
C2359 C2375 1.349 . S
C2360 C2358 1.327 . S
C2360 C2379 1.429 . S
C2360 H2384 0.950 . S
C2361 C2378 1.574 . S
C2361 C2380 1.368 . S
C2361 H2385 0.949 . S
H2362 C2366 0.949 . S
C2363 C2364 1.349 . S
C2363 C2365 1.327 . S
C2363 H2386 0.950 . S
C2364 C2363 1.349 . S
C2364 C2376 1.349 . S
C2365 C2363 1.327 . S
C2365 C2381 1.429 . S
C2365 H2387 0.950 . S
C2366 H2362 0.949 . S
C2366 C2374 1.574 . S
C2366 C2382 1.368 . S
H2367 C2375 0.950 . S
H2368 C2373 0.950 . S
H2369 C2374 0.949 . S
H2370 C2376 0.950 . S
H2371 C2377 0.950 . S
H2372 C2378 0.949 . S
C2373 H2368 0.950 . S
C2373 C2375 1.327 . S
C2373 C2379 1.429 . S
C2374 C2366 1.574 . S
C2374 H2369 0.949 . S
C2374 C2380 1.368 . S
C2375 C2359 1.349 . S
C2375 H2367 0.950 . S
C2375 C2373 1.327 . S
C2376 C2364 1.349 . S
C2376 H2370 0.950 . S
C2376 C2377 1.327 . S
C2377 H2371 0.950 . S
C2377 C2376 1.327 . S
C2377 C2381 1.429 . S
C2378 C2361 1.574 . S
C2378 H2372 0.949 . S
C2378 C2382 1.368 . S
C2379 C2360 1.429 . S
C2379 C2373 1.429 . S
C2379 C2380 1.523 . S
C2380 C2361 1.368 . S
C2380 C2374 1.368 . S
C2380 C2379 1.523 . S
C2381 C2365 1.429 . S
C2381 C2377 1.429 . S
C2381 C2382 1.523 . S
C2382 C2366 1.368 . S
C2382 C2378 1.368 . S
C2382 C2381 1.523 . S
H2383 C2358 0.950 . S
H2384 C2360 0.950 . S
H2385 C2361 0.949 . S
H2386 C2363 0.950 . S
H2387 C2365 0.950 . S
C2388 C2389 1.349 . S
C2388 C2390 1.327 . S
C2388 H2413 0.950 . S
C2389 C2388 1.349 . S
C2389 C2405 1.349 . S
C2390 C2388 1.327 . S
C2390 C2409 1.429 . S
C2390 H2414 0.950 . S
C2391 C2408 1.574 . S
C2391 C2410 1.368 . S
C2391 H2415 0.949 . S
H2392 C2396 0.949 . S
C2393 C2394 1.349 . S
C2393 C2395 1.327 . S
C2393 H2416 0.950 . S
C2394 C2393 1.349 . S
C2394 C2406 1.349 . S
C2395 C2393 1.327 . S
C2395 C2411 1.429 . S
C2395 H2417 0.950 . S
C2396 H2392 0.949 . S
C2396 C2404 1.574 . S
C2396 C2412 1.368 . S
H2397 C2405 0.950 . S
H2398 C2403 0.950 . S
H2399 C2404 0.949 . S
H2400 C2406 0.950 . S
H2401 C2407 0.950 . S
H2402 C2408 0.949 . S
C2403 H2398 0.950 . S
C2403 C2405 1.327 . S
C2403 C2409 1.429 . S
C2404 C2396 1.574 . S
C2404 H2399 0.949 . S
C2404 C2410 1.368 . S
C2405 C2389 1.349 . S
C2405 H2397 0.950 . S
C2405 C2403 1.327 . S
C2406 C2394 1.349 . S
C2406 H2400 0.950 . S
C2406 C2407 1.327 . S
C2407 H2401 0.950 . S
C2407 C2406 1.327 . S
C2407 C2411 1.429 . S
C2408 C2391 1.574 . S
C2408 H2402 0.949 . S
C2408 C2412 1.368 . S
C2409 C2390 1.429 . S
C2409 C2403 1.429 . S
C2409 C2410 1.523 . S
C2410 C2391 1.368 . S
C2410 C2404 1.368 . S
C2410 C2409 1.523 . S
C2411 C2395 1.429 . S
C2411 C2407 1.429 . S
C2411 C2412 1.523 . S
C2412 C2396 1.368 . S
C2412 C2408 1.368 . S
C2412 C2411 1.523 . S
H2413 C2388 0.950 . S
H2414 C2390 0.950 . S
H2415 C2391 0.949 . S
H2416 C2393 0.950 . S
H2417 C2395 0.950 . S
C2418 C2419 1.349 . S
C2418 C2420 1.327 . S
C2418 H2443 0.950 . S
C2419 C2418 1.349 . S
C2419 C2435 1.349 . S
C2420 C2418 1.327 . S
C2420 C2439 1.429 . S
C2420 H2444 0.950 . S
C2421 C2438 1.574 . S
C2421 C2440 1.368 . S
C2421 H2445 0.949 . S
H2422 C2426 0.949 . S
C2423 C2424 1.349 . S
C2423 C2425 1.327 . S
C2423 H2446 0.950 . S
C2424 C2423 1.349 . S
C2424 C2436 1.349 . S
C2425 C2423 1.327 . S
C2425 C2441 1.429 . S
C2425 H2447 0.950 . S
C2426 H2422 0.949 . S
C2426 C2434 1.574 . S
C2426 C2442 1.368 . S
H2427 C2435 0.950 . S
H2428 C2433 0.950 . S
H2429 C2434 0.949 . S
H2430 C2436 0.950 . S
H2431 C2437 0.950 . S
H2432 C2438 0.949 . S
C2433 H2428 0.950 . S
C2433 C2435 1.327 . S
C2433 C2439 1.429 . S
C2434 C2426 1.574 . S
C2434 H2429 0.949 . S
C2434 C2440 1.368 . S
C2435 C2419 1.349 . S
C2435 H2427 0.950 . S
C2435 C2433 1.327 . S
C2436 C2424 1.349 . S
C2436 H2430 0.950 . S
C2436 C2437 1.327 . S
C2437 H2431 0.950 . S
C2437 C2436 1.327 . S
C2437 C2441 1.429 . S
C2438 C2421 1.574 . S
C2438 H2432 0.949 . S
C2438 C2442 1.368 . S
C2439 C2420 1.429 . S
C2439 C2433 1.429 . S
C2439 C2440 1.523 . S
C2440 C2421 1.368 . S
C2440 C2434 1.368 . S
C2440 C2439 1.523 . S
C2441 C2425 1.429 . S
C2441 C2437 1.429 . S
C2441 C2442 1.523 . S
C2442 C2426 1.368 . S
C2442 C2438 1.368 . S
C2442 C2441 1.523 . S
H2443 C2418 0.950 . S
H2444 C2420 0.950 . S
H2445 C2421 0.949 . S
H2446 C2423 0.950 . S
H2447 C2425 0.950 . S
C2448 C2449 1.349 . S
C2448 C2450 1.327 . S
C2448 H2473 0.950 . S
C2449 C2448 1.349 . S
C2449 C2465 1.349 . S
C2450 C2448 1.327 . S
C2450 C2469 1.429 . S
C2450 H2474 0.950 . S
C2451 C2468 1.574 . S
C2451 C2470 1.368 . S
C2451 H2475 0.949 . S
H2452 C2456 0.949 . S
C2453 C2454 1.349 . S
C2453 C2455 1.327 . S
C2453 H2476 0.950 . S
C2454 C2453 1.349 . S
C2454 C2466 1.349 . S
C2455 C2453 1.327 . S
C2455 C2471 1.429 . S
C2455 H2477 0.950 . S
C2456 H2452 0.949 . S
C2456 C2464 1.574 . S
C2456 C2472 1.368 . S
H2457 C2465 0.950 . S
H2458 C2463 0.950 . S
H2459 C2464 0.949 . S
H2460 C2466 0.950 . S
H2461 C2467 0.950 . S
H2462 C2468 0.949 . S
C2463 H2458 0.950 . S
C2463 C2465 1.327 . S
C2463 C2469 1.429 . S
C2464 C2456 1.574 . S
C2464 H2459 0.949 . S
C2464 C2470 1.368 . S
C2465 C2449 1.349 . S
C2465 H2457 0.950 . S
C2465 C2463 1.327 . S
C2466 C2454 1.349 . S
C2466 H2460 0.950 . S
C2466 C2467 1.327 . S
C2467 H2461 0.950 . S
C2467 C2466 1.327 . S
C2467 C2471 1.429 . S
C2468 C2451 1.574 . S
C2468 H2462 0.949 . S
C2468 C2472 1.368 . S
C2469 C2450 1.429 . S
C2469 C2463 1.429 . S
C2469 C2470 1.523 . S
C2470 C2451 1.368 . S
C2470 C2464 1.368 . S
C2470 C2469 1.523 . S
C2471 C2455 1.429 . S
C2471 C2467 1.429 . S
C2471 C2472 1.523 . S
C2472 C2456 1.368 . S
C2472 C2468 1.368 . S
C2472 C2471 1.523 . S
H2473 C2448 0.950 . S
H2474 C2450 0.950 . S
H2475 C2451 0.949 . S
H2476 C2453 0.950 . S
H2477 C2455 0.950 . S
C2478 C2479 1.349 . S
C2478 C2480 1.327 . S
C2478 H2503 0.950 . S
C2479 C2478 1.349 . S
C2479 C2495 1.349 . S
C2480 C2478 1.327 . S
C2480 C2499 1.429 . S
C2480 H2504 0.950 . S
C2481 C2498 1.574 . S
C2481 C2500 1.368 . S
C2481 H2505 0.949 . S
H2482 C2486 0.949 . S
C2483 C2484 1.349 . S
C2483 C2485 1.327 . S
C2483 H2506 0.950 . S
C2484 C2483 1.349 . S
C2484 C2496 1.349 . S
C2485 C2483 1.327 . S
C2485 C2501 1.429 . S
C2485 H2507 0.950 . S
C2486 H2482 0.949 . S
C2486 C2494 1.574 . S
C2486 C2502 1.368 . S
H2487 C2495 0.950 . S
H2488 C2493 0.950 . S
H2489 C2494 0.949 . S
H2490 C2496 0.950 . S
H2491 C2497 0.950 . S
H2492 C2498 0.949 . S
C2493 H2488 0.950 . S
C2493 C2495 1.327 . S
C2493 C2499 1.429 . S
C2494 C2486 1.574 . S
C2494 H2489 0.949 . S
C2494 C2500 1.368 . S
C2495 C2479 1.349 . S
C2495 H2487 0.950 . S
C2495 C2493 1.327 . S
C2496 C2484 1.349 . S
C2496 H2490 0.950 . S
C2496 C2497 1.327 . S
C2497 H2491 0.950 . S
C2497 C2496 1.327 . S
C2497 C2501 1.429 . S
C2498 C2481 1.574 . S
C2498 H2492 0.949 . S
C2498 C2502 1.368 . S
C2499 C2480 1.429 . S
C2499 C2493 1.429 . S
C2499 C2500 1.523 . S
C2500 C2481 1.368 . S
C2500 C2494 1.368 . S
C2500 C2499 1.523 . S
C2501 C2485 1.429 . S
C2501 C2497 1.429 . S
C2501 C2502 1.523 . S
C2502 C2486 1.368 . S
C2502 C2498 1.368 . S
C2502 C2501 1.523 . S
H2503 C2478 0.950 . S
H2504 C2480 0.950 . S
H2505 C2481 0.949 . S
H2506 C2483 0.950 . S
H2507 C2485 0.950 . S
C2508 C2509 1.349 . S
C2508 C2510 1.327 . S
C2508 H2533 0.950 . S
C2509 C2508 1.349 . S
C2509 C2525 1.349 . S
C2510 C2508 1.327 . S
C2510 C2529 1.429 . S
C2510 H2534 0.950 . S
C2511 C2528 1.574 . S
C2511 C2530 1.368 . S
C2511 H2535 0.949 . S
H2512 C2516 0.949 . S
C2513 C2514 1.349 . S
C2513 C2515 1.327 . S
C2513 H2536 0.950 . S
C2514 C2513 1.349 . S
C2514 C2526 1.349 . S
C2515 C2513 1.327 . S
C2515 C2531 1.429 . S
C2515 H2537 0.950 . S
C2516 H2512 0.949 . S
C2516 C2524 1.574 . S
C2516 C2532 1.368 . S
H2517 C2525 0.950 . S
H2518 C2523 0.950 . S
H2519 C2524 0.949 . S
H2520 C2526 0.950 . S
H2521 C2527 0.950 . S
H2522 C2528 0.949 . S
C2523 H2518 0.950 . S
C2523 C2525 1.327 . S
C2523 C2529 1.429 . S
C2524 C2516 1.574 . S
C2524 H2519 0.949 . S
C2524 C2530 1.368 . S
C2525 C2509 1.349 . S
C2525 H2517 0.950 . S
C2525 C2523 1.327 . S
C2526 C2514 1.349 . S
C2526 H2520 0.950 . S
C2526 C2527 1.327 . S
C2527 H2521 0.950 . S
C2527 C2526 1.327 . S
C2527 C2531 1.429 . S
C2528 C2511 1.574 . S
C2528 H2522 0.949 . S
C2528 C2532 1.368 . S
C2529 C2510 1.429 . S
C2529 C2523 1.429 . S
C2529 C2530 1.523 . S
C2530 C2511 1.368 . S
C2530 C2524 1.368 . S
C2530 C2529 1.523 . S
C2531 C2515 1.429 . S
C2531 C2527 1.429 . S
C2531 C2532 1.523 . S
C2532 C2516 1.368 . S
C2532 C2528 1.368 . S
C2532 C2531 1.523 . S
H2533 C2508 0.950 . S
H2534 C2510 0.950 . S
H2535 C2511 0.949 . S
H2536 C2513 0.950 . S
H2537 C2515 0.950 . S
C2538 C2539 1.349 . S
C2538 C2540 1.327 . S
C2538 H2563 0.950 . S
C2539 C2538 1.349 . S
C2539 C2555 1.349 . S
C2540 C2538 1.327 . S
C2540 C2559 1.429 . S
C2540 H2564 0.950 . S
C2541 C2558 1.574 . S
C2541 C2560 1.368 . S
C2541 H2565 0.949 . S
H2542 C2546 0.949 . S
C2543 C2544 1.349 . S
C2543 C2545 1.327 . S
C2543 H2566 0.950 . S
C2544 C2543 1.349 . S
C2544 C2556 1.349 . S
C2545 C2543 1.327 . S
C2545 C2561 1.429 . S
C2545 H2567 0.950 . S
C2546 H2542 0.949 . S
C2546 C2554 1.574 . S
C2546 C2562 1.368 . S
H2547 C2555 0.950 . S
H2548 C2553 0.950 . S
H2549 C2554 0.949 . S
H2550 C2556 0.950 . S
H2551 C2557 0.950 . S
H2552 C2558 0.949 . S
C2553 H2548 0.950 . S
C2553 C2555 1.327 . S
C2553 C2559 1.429 . S
C2554 C2546 1.574 . S
C2554 H2549 0.949 . S
C2554 C2560 1.368 . S
C2555 C2539 1.349 . S
C2555 H2547 0.950 . S
C2555 C2553 1.327 . S
C2556 C2544 1.349 . S
C2556 H2550 0.950 . S
C2556 C2557 1.327 . S
C2557 H2551 0.950 . S
C2557 C2556 1.327 . S
C2557 C2561 1.429 . S
C2558 C2541 1.574 . S
C2558 H2552 0.949 . S
C2558 C2562 1.368 . S
C2559 C2540 1.429 . S
C2559 C2553 1.429 . S
C2559 C2560 1.523 . S
C2560 C2541 1.368 . S
C2560 C2554 1.368 . S
C2560 C2559 1.523 . S
C2561 C2545 1.429 . S
C2561 C2557 1.429 . S
C2561 C2562 1.523 . S
C2562 C2546 1.368 . S
C2562 C2558 1.368 . S
C2562 C2561 1.523 . S
H2563 C2538 0.950 . S
H2564 C2540 0.950 . S
H2565 C2541 0.949 . S
H2566 C2543 0.950 . S
H2567 C2545 0.950 . S
C2568 C2569 1.349 . S
C2568 C2570 1.327 . S
C2568 H2593 0.950 . S
C2569 C2568 1.349 . S
C2569 C2585 1.349 . S
C2570 C2568 1.327 . S
C2570 C2589 1.429 . S
C2570 H2594 0.950 . S
C2571 C2588 1.574 . S
C2571 C2590 1.368 . S
C2571 H2595 0.949 . S
H2572 C2576 0.949 . S
C2573 C2574 1.349 . S
C2573 C2575 1.327 . S
C2573 H2596 0.950 . S
C2574 C2573 1.349 . S
C2574 C2586 1.349 . S
C2575 C2573 1.327 . S
C2575 C2591 1.429 . S
C2575 H2597 0.950 . S
C2576 H2572 0.949 . S
C2576 C2584 1.574 . S
C2576 C2592 1.368 . S
H2577 C2585 0.950 . S
H2578 C2583 0.950 . S
H2579 C2584 0.949 . S
H2580 C2586 0.950 . S
H2581 C2587 0.950 . S
H2582 C2588 0.949 . S
C2583 H2578 0.950 . S
C2583 C2585 1.327 . S
C2583 C2589 1.429 . S
C2584 C2576 1.574 . S
C2584 H2579 0.949 . S
C2584 C2590 1.368 . S
C2585 C2569 1.349 . S
C2585 H2577 0.950 . S
C2585 C2583 1.327 . S
C2586 C2574 1.349 . S
C2586 H2580 0.950 . S
C2586 C2587 1.327 . S
C2587 H2581 0.950 . S
C2587 C2586 1.327 . S
C2587 C2591 1.429 . S
C2588 C2571 1.574 . S
C2588 H2582 0.949 . S
C2588 C2592 1.368 . S
C2589 C2570 1.429 . S
C2589 C2583 1.429 . S
C2589 C2590 1.523 . S
C2590 C2571 1.368 . S
C2590 C2584 1.368 . S
C2590 C2589 1.523 . S
C2591 C2575 1.429 . S
C2591 C2587 1.429 . S
C2591 C2592 1.523 . S
C2592 C2576 1.368 . S
C2592 C2588 1.368 . S
C2592 C2591 1.523 . S
H2593 C2568 0.950 . S
H2594 C2570 0.950 . S
H2595 C2571 0.949 . S
H2596 C2573 0.950 . S
H2597 C2575 0.950 . S
C2598 C2599 1.349 . S
C2598 C2600 1.327 . S
C2598 H2623 0.950 . S
C2599 C2598 1.349 . S
C2599 C2615 1.349 . S
C2600 C2598 1.327 . S
C2600 C2619 1.429 . S
C2600 H2624 0.950 . S
C2601 C2618 1.574 . S
C2601 C2620 1.368 . S
C2601 H2625 0.949 . S
H2602 C2606 0.949 . S
C2603 C2604 1.349 . S
C2603 C2605 1.327 . S
C2603 H2626 0.950 . S
C2604 C2603 1.349 . S
C2604 C2616 1.349 . S
C2605 C2603 1.327 . S
C2605 C2621 1.429 . S
C2605 H2627 0.950 . S
C2606 H2602 0.949 . S
C2606 C2614 1.574 . S
C2606 C2622 1.368 . S
H2607 C2615 0.950 . S
H2608 C2613 0.950 . S
H2609 C2614 0.949 . S
H2610 C2616 0.950 . S
H2611 C2617 0.950 . S
H2612 C2618 0.949 . S
C2613 H2608 0.950 . S
C2613 C2615 1.327 . S
C2613 C2619 1.429 . S
C2614 C2606 1.574 . S
C2614 H2609 0.949 . S
C2614 C2620 1.368 . S
C2615 C2599 1.349 . S
C2615 H2607 0.950 . S
C2615 C2613 1.327 . S
C2616 C2604 1.349 . S
C2616 H2610 0.950 . S
C2616 C2617 1.327 . S
C2617 H2611 0.950 . S
C2617 C2616 1.327 . S
C2617 C2621 1.429 . S
C2618 C2601 1.574 . S
C2618 H2612 0.949 . S
C2618 C2622 1.368 . S
C2619 C2600 1.429 . S
C2619 C2613 1.429 . S
C2619 C2620 1.523 . S
C2620 C2601 1.368 . S
C2620 C2614 1.368 . S
C2620 C2619 1.523 . S
C2621 C2605 1.429 . S
C2621 C2617 1.429 . S
C2621 C2622 1.523 . S
C2622 C2606 1.368 . S
C2622 C2618 1.368 . S
C2622 C2621 1.523 . S
H2623 C2598 0.950 . S
H2624 C2600 0.950 . S
H2625 C2601 0.949 . S
H2626 C2603 0.950 . S
H2627 C2605 0.950 . S
C2628 C2629 1.349 . S
C2628 C2630 1.327 . S
C2628 H2653 0.950 . S
C2629 C2628 1.349 . S
C2629 C2645 1.349 . S
C2630 C2628 1.327 . S
C2630 C2649 1.429 . S
C2630 H2654 0.950 . S
C2631 C2648 1.574 . S
C2631 C2650 1.368 . S
C2631 H2655 0.949 . S
H2632 C2636 0.949 . S
C2633 C2634 1.349 . S
C2633 C2635 1.327 . S
C2633 H2656 0.950 . S
C2634 C2633 1.349 . S
C2634 C2646 1.349 . S
C2635 C2633 1.327 . S
C2635 C2651 1.429 . S
C2635 H2657 0.950 . S
C2636 H2632 0.949 . S
C2636 C2644 1.574 . S
C2636 C2652 1.368 . S
H2637 C2645 0.950 . S
H2638 C2643 0.950 . S
H2639 C2644 0.949 . S
H2640 C2646 0.950 . S
H2641 C2647 0.950 . S
H2642 C2648 0.949 . S
C2643 H2638 0.950 . S
C2643 C2645 1.327 . S
C2643 C2649 1.429 . S
C2644 C2636 1.574 . S
C2644 H2639 0.949 . S
C2644 C2650 1.368 . S
C2645 C2629 1.349 . S
C2645 H2637 0.950 . S
C2645 C2643 1.327 . S
C2646 C2634 1.349 . S
C2646 H2640 0.950 . S
C2646 C2647 1.327 . S
C2647 H2641 0.950 . S
C2647 C2646 1.327 . S
C2647 C2651 1.429 . S
C2648 C2631 1.574 . S
C2648 H2642 0.949 . S
C2648 C2652 1.368 . S
C2649 C2630 1.429 . S
C2649 C2643 1.429 . S
C2649 C2650 1.523 . S
C2650 C2631 1.368 . S
C2650 C2644 1.368 . S
C2650 C2649 1.523 . S
C2651 C2635 1.429 . S
C2651 C2647 1.429 . S
C2651 C2652 1.523 . S
C2652 C2636 1.368 . S
C2652 C2648 1.368 . S
C2652 C2651 1.523 . S
H2653 C2628 0.950 . S
H2654 C2630 0.950 . S
H2655 C2631 0.949 . S
H2656 C2633 0.950 . S
H2657 C2635 0.950 . S
C2658 C2659 1.349 . S
C2658 C2660 1.327 . S
C2658 H2683 0.950 . S
C2659 C2658 1.349 . S
C2659 C2675 1.349 . S
C2660 C2658 1.327 . S
C2660 C2679 1.429 . S
C2660 H2684 0.950 . S
C2661 C2678 1.574 . S
C2661 C2680 1.368 . S
C2661 H2685 0.949 . S
H2662 C2666 0.949 . S
C2663 C2664 1.349 . S
C2663 C2665 1.327 . S
C2663 H2686 0.950 . S
C2664 C2663 1.349 . S
C2664 C2676 1.349 . S
C2665 C2663 1.327 . S
C2665 C2681 1.429 . S
C2665 H2687 0.950 . S
C2666 H2662 0.949 . S
C2666 C2674 1.574 . S
C2666 C2682 1.368 . S
H2667 C2675 0.950 . S
H2668 C2673 0.950 . S
H2669 C2674 0.949 . S
H2670 C2676 0.950 . S
H2671 C2677 0.950 . S
H2672 C2678 0.949 . S
C2673 H2668 0.950 . S
C2673 C2675 1.327 . S
C2673 C2679 1.429 . S
C2674 C2666 1.574 . S
C2674 H2669 0.949 . S
C2674 C2680 1.368 . S
C2675 C2659 1.349 . S
C2675 H2667 0.950 . S
C2675 C2673 1.327 . S
C2676 C2664 1.349 . S
C2676 H2670 0.950 . S
C2676 C2677 1.327 . S
C2677 H2671 0.950 . S
C2677 C2676 1.327 . S
C2677 C2681 1.429 . S
C2678 C2661 1.574 . S
C2678 H2672 0.949 . S
C2678 C2682 1.368 . S
C2679 C2660 1.429 . S
C2679 C2673 1.429 . S
C2679 C2680 1.523 . S
C2680 C2661 1.368 . S
C2680 C2674 1.368 . S
C2680 C2679 1.523 . S
C2681 C2665 1.429 . S
C2681 C2677 1.429 . S
C2681 C2682 1.523 . S
C2682 C2666 1.368 . S
C2682 C2678 1.368 . S
C2682 C2681 1.523 . S
H2683 C2658 0.950 . S
H2684 C2660 0.950 . S
H2685 C2661 0.949 . S
H2686 C2663 0.950 . S
H2687 C2665 0.950 . S
C2688 C2689 1.349 . S
C2688 C2690 1.327 . S
C2688 H2713 0.950 . S
C2689 C2688 1.349 . S
C2689 C2705 1.349 . S
C2690 C2688 1.327 . S
C2690 C2709 1.429 . S
C2690 H2714 0.950 . S
C2691 C2708 1.574 . S
C2691 C2710 1.368 . S
C2691 H2715 0.949 . S
H2692 C2696 0.949 . S
C2693 C2694 1.349 . S
C2693 C2695 1.327 . S
C2693 H2716 0.950 . S
C2694 C2693 1.349 . S
C2694 C2706 1.349 . S
C2695 C2693 1.327 . S
C2695 C2711 1.429 . S
C2695 H2717 0.950 . S
C2696 H2692 0.949 . S
C2696 C2704 1.574 . S
C2696 C2712 1.368 . S
H2697 C2705 0.950 . S
H2698 C2703 0.950 . S
H2699 C2704 0.949 . S
H2700 C2706 0.950 . S
H2701 C2707 0.950 . S
H2702 C2708 0.949 . S
C2703 H2698 0.950 . S
C2703 C2705 1.327 . S
C2703 C2709 1.429 . S
C2704 C2696 1.574 . S
C2704 H2699 0.949 . S
C2704 C2710 1.368 . S
C2705 C2689 1.349 . S
C2705 H2697 0.950 . S
C2705 C2703 1.327 . S
C2706 C2694 1.349 . S
C2706 H2700 0.950 . S
C2706 C2707 1.327 . S
C2707 H2701 0.950 . S
C2707 C2706 1.327 . S
C2707 C2711 1.429 . S
C2708 C2691 1.574 . S
C2708 H2702 0.949 . S
C2708 C2712 1.368 . S
C2709 C2690 1.429 . S
C2709 C2703 1.429 . S
C2709 C2710 1.523 . S
C2710 C2691 1.368 . S
C2710 C2704 1.368 . S
C2710 C2709 1.523 . S
C2711 C2695 1.429 . S
C2711 C2707 1.429 . S
C2711 C2712 1.523 . S
C2712 C2696 1.368 . S
C2712 C2708 1.368 . S
C2712 C2711 1.523 . S
H2713 C2688 0.950 . S
H2714 C2690 0.950 . S
H2715 C2691 0.949 . S
H2716 C2693 0.950 . S
H2717 C2695 0.950 . S
C2718 C2719 1.349 . S
C2718 C2720 1.327 . S
C2718 H2743 0.950 . S
C2719 C2718 1.349 . S
C2719 C2735 1.349 . S
C2720 C2718 1.327 . S
C2720 C2739 1.429 . S
C2720 H2744 0.950 . S
C2721 C2738 1.574 . S
C2721 C2740 1.368 . S
C2721 H2745 0.949 . S
H2722 C2726 0.949 . S
C2723 C2724 1.349 . S
C2723 C2725 1.327 . S
C2723 H2746 0.950 . S
C2724 C2723 1.349 . S
C2724 C2736 1.349 . S
C2725 C2723 1.327 . S
C2725 C2741 1.429 . S
C2725 H2747 0.950 . S
C2726 H2722 0.949 . S
C2726 C2734 1.574 . S
C2726 C2742 1.368 . S
H2727 C2735 0.950 . S
H2728 C2733 0.950 . S
H2729 C2734 0.949 . S
H2730 C2736 0.950 . S
H2731 C2737 0.950 . S
H2732 C2738 0.949 . S
C2733 H2728 0.950 . S
C2733 C2735 1.327 . S
C2733 C2739 1.429 . S
C2734 C2726 1.574 . S
C2734 H2729 0.949 . S
C2734 C2740 1.368 . S
C2735 C2719 1.349 . S
C2735 H2727 0.950 . S
C2735 C2733 1.327 . S
C2736 C2724 1.349 . S
C2736 H2730 0.950 . S
C2736 C2737 1.327 . S
C2737 H2731 0.950 . S
C2737 C2736 1.327 . S
C2737 C2741 1.429 . S
C2738 C2721 1.574 . S
C2738 H2732 0.949 . S
C2738 C2742 1.368 . S
C2739 C2720 1.429 . S
C2739 C2733 1.429 . S
C2739 C2740 1.523 . S
C2740 C2721 1.368 . S
C2740 C2734 1.368 . S
C2740 C2739 1.523 . S
C2741 C2725 1.429 . S
C2741 C2737 1.429 . S
C2741 C2742 1.523 . S
C2742 C2726 1.368 . S
C2742 C2738 1.368 . S
C2742 C2741 1.523 . S
H2743 C2718 0.950 . S
H2744 C2720 0.950 . S
H2745 C2721 0.949 . S
H2746 C2723 0.950 . S
H2747 C2725 0.950 . S
C2748 C2749 1.349 . S
C2748 C2750 1.327 . S
C2748 H2773 0.950 . S
C2749 C2748 1.349 . S
C2749 C2765 1.349 . S
C2750 C2748 1.327 . S
C2750 C2769 1.429 . S
C2750 H2774 0.950 . S
C2751 C2768 1.574 . S
C2751 C2770 1.368 . S
C2751 H2775 0.949 . S
H2752 C2756 0.949 . S
C2753 C2754 1.349 . S
C2753 C2755 1.327 . S
C2753 H2776 0.950 . S
C2754 C2753 1.349 . S
C2754 C2766 1.349 . S
C2755 C2753 1.327 . S
C2755 C2771 1.429 . S
C2755 H2777 0.950 . S
C2756 H2752 0.949 . S
C2756 C2764 1.574 . S
C2756 C2772 1.368 . S
H2757 C2765 0.950 . S
H2758 C2763 0.950 . S
H2759 C2764 0.949 . S
H2760 C2766 0.950 . S
H2761 C2767 0.950 . S
H2762 C2768 0.949 . S
C2763 H2758 0.950 . S
C2763 C2765 1.327 . S
C2763 C2769 1.429 . S
C2764 C2756 1.574 . S
C2764 H2759 0.949 . S
C2764 C2770 1.368 . S
C2765 C2749 1.349 . S
C2765 H2757 0.950 . S
C2765 C2763 1.327 . S
C2766 C2754 1.349 . S
C2766 H2760 0.950 . S
C2766 C2767 1.327 . S
C2767 H2761 0.950 . S
C2767 C2766 1.327 . S
C2767 C2771 1.429 . S
C2768 C2751 1.574 . S
C2768 H2762 0.949 . S
C2768 C2772 1.368 . S
C2769 C2750 1.429 . S
C2769 C2763 1.429 . S
C2769 C2770 1.523 . S
C2770 C2751 1.368 . S
C2770 C2764 1.368 . S
C2770 C2769 1.523 . S
C2771 C2755 1.429 . S
C2771 C2767 1.429 . S
C2771 C2772 1.523 . S
C2772 C2756 1.368 . S
C2772 C2768 1.368 . S
C2772 C2771 1.523 . S
H2773 C2748 0.950 . S
H2774 C2750 0.950 . S
H2775 C2751 0.949 . S
H2776 C2753 0.950 . S
H2777 C2755 0.950 . S
C2778 C2779 1.349 . S
C2778 C2780 1.327 . S
C2778 H2803 0.950 . S
C2779 C2778 1.349 . S
C2779 C2795 1.349 . S
C2780 C2778 1.327 . S
C2780 C2799 1.429 . S
C2780 H2804 0.950 . S
C2781 C2798 1.574 . S
C2781 C2800 1.368 . S
C2781 H2805 0.949 . S
H2782 C2786 0.949 . S
C2783 C2784 1.349 . S
C2783 C2785 1.327 . S
C2783 H2806 0.950 . S
C2784 C2783 1.349 . S
C2784 C2796 1.349 . S
C2785 C2783 1.327 . S
C2785 C2801 1.429 . S
C2785 H2807 0.950 . S
C2786 H2782 0.949 . S
C2786 C2794 1.574 . S
C2786 C2802 1.368 . S
H2787 C2795 0.950 . S
H2788 C2793 0.950 . S
H2789 C2794 0.949 . S
H2790 C2796 0.950 . S
H2791 C2797 0.950 . S
H2792 C2798 0.949 . S
C2793 H2788 0.950 . S
C2793 C2795 1.327 . S
C2793 C2799 1.429 . S
C2794 C2786 1.574 . S
C2794 H2789 0.949 . S
C2794 C2800 1.368 . S
C2795 C2779 1.349 . S
C2795 H2787 0.950 . S
C2795 C2793 1.327 . S
C2796 C2784 1.349 . S
C2796 H2790 0.950 . S
C2796 C2797 1.327 . S
C2797 H2791 0.950 . S
C2797 C2796 1.327 . S
C2797 C2801 1.429 . S
C2798 C2781 1.574 . S
C2798 H2792 0.949 . S
C2798 C2802 1.368 . S
C2799 C2780 1.429 . S
C2799 C2793 1.429 . S
C2799 C2800 1.523 . S
C2800 C2781 1.368 . S
C2800 C2794 1.368 . S
C2800 C2799 1.523 . S
C2801 C2785 1.429 . S
C2801 C2797 1.429 . S
C2801 C2802 1.523 . S
C2802 C2786 1.368 . S
C2802 C2798 1.368 . S
C2802 C2801 1.523 . S
H2803 C2778 0.950 . S
H2804 C2780 0.950 . S
H2805 C2781 0.949 . S
H2806 C2783 0.950 . S
H2807 C2785 0.950 . S
C2808 C2809 1.349 . S
C2808 C2810 1.327 . S
C2808 H2833 0.950 . S
C2809 C2808 1.349 . S
C2809 C2825 1.349 . S
C2810 C2808 1.327 . S
C2810 C2829 1.429 . S
C2810 H2834 0.950 . S
C2811 C2828 1.574 1_455 S
C2811 C2830 1.368 . S
C2811 H2835 0.949 . S
H2812 C2816 0.949 . S
C2813 C2814 1.349 . S
C2813 C2815 1.327 . S
C2813 H2836 0.950 . S
C2814 C2813 1.349 . S
C2814 C2826 1.349 . S
C2815 C2813 1.327 . S
C2815 C2831 1.429 . S
C2815 H2837 0.950 . S
C2816 H2812 0.949 . S
C2816 C2824 1.574 . S
C2816 C2832 1.368 . S
H2817 C2825 0.950 . S
H2818 C2823 0.950 . S
H2819 C2824 0.961 . S
H2820 C2826 0.950 . S
H2821 C2827 0.950 . S
H2822 C2828 0.949 . S
C2823 H2818 0.950 . S
C2823 C2825 1.327 . S
C2823 C2829 1.429 . S
C2824 C2816 1.574 . S
C2824 H2819 0.961 . S
C2824 C2830 1.368 1_655 S
C2825 C2809 1.349 . S
C2825 H2817 0.950 . S
C2825 C2823 1.327 . S
C2826 C2814 1.349 . S
C2826 H2820 0.950 . S
C2826 C2827 1.327 . S
C2827 H2821 0.950 . S
C2827 C2826 1.327 . S
C2827 C2831 1.429 . S
C2828 C2811 1.574 1_655 S
C2828 H2822 0.949 . S
C2828 C2832 1.368 . S
C2829 C2810 1.429 . S
C2829 C2823 1.429 . S
C2829 C2830 1.523 . S
C2830 C2811 1.368 . S
C2830 C2824 1.368 1_455 S
C2830 C2829 1.523 . S
C2831 C2815 1.429 . S
C2831 C2827 1.429 . S
C2831 C2832 1.523 . S
C2832 C2816 1.368 . S
C2832 C2828 1.368 . S
C2832 C2831 1.523 . S
H2833 C2808 0.950 . S
H2834 C2810 0.950 . S
H2835 C2811 0.949 . S
H2836 C2813 0.950 . S
H2837 C2815 0.950 . S
C2838 C2839 1.349 . S
C2838 C2840 1.327 . S
C2838 H2863 0.950 . S
C2839 C2838 1.349 . S
C2839 C2855 1.349 . S
C2840 C2838 1.327 . S
C2840 C2859 1.429 . S
C2840 H2864 0.950 . S
C2841 C2858 1.574 . S
C2841 C2860 1.368 . S
C2841 H2865 0.949 . S
H2842 C2846 0.949 . S
C2843 C2844 1.349 . S
C2843 C2845 1.327 . S
C2843 H2866 0.950 . S
C2844 C2843 1.349 . S
C2844 C2856 1.349 . S
C2845 C2843 1.327 . S
C2845 C2861 1.429 . S
C2845 H2867 0.950 . S
C2846 H2842 0.949 . S
C2846 C2854 1.574 . S
C2846 C2862 1.368 . S
H2847 C2855 0.950 . S
H2848 C2853 0.950 . S
H2849 C2854 0.949 . S
H2850 C2856 0.950 . S
H2851 C2857 0.950 . S
H2852 C2858 0.949 . S
C2853 H2848 0.950 . S
C2853 C2855 1.327 . S
C2853 C2859 1.429 . S
C2854 C2846 1.574 . S
C2854 H2849 0.949 . S
C2854 C2860 1.368 . S
C2855 C2839 1.349 . S
C2855 H2847 0.950 . S
C2855 C2853 1.327 . S
C2856 C2844 1.349 . S
C2856 H2850 0.950 . S
C2856 C2857 1.327 . S
C2857 H2851 0.950 . S
C2857 C2856 1.327 . S
C2857 C2861 1.429 . S
C2858 C2841 1.574 . S
C2858 H2852 0.949 . S
C2858 C2862 1.368 . S
C2859 C2840 1.429 . S
C2859 C2853 1.429 . S
C2859 C2860 1.523 . S
C2860 C2841 1.368 . S
C2860 C2854 1.368 . S
C2860 C2859 1.523 . S
C2861 C2845 1.429 . S
C2861 C2857 1.429 . S
C2861 C2862 1.523 . S
C2862 C2846 1.368 . S
C2862 C2858 1.368 . S
C2862 C2861 1.523 . S
H2863 C2838 0.950 . S
H2864 C2840 0.950 . S
H2865 C2841 0.949 . S
H2866 C2843 0.950 . S
H2867 C2845 0.950 . S
C2868 C2869 1.349 . S
C2868 C2870 1.327 . S
C2868 H2893 0.950 . S
C2869 C2868 1.349 . S
C2869 C2885 1.349 . S
C2870 C2868 1.327 . S
C2870 C2889 1.429 . S
C2870 H2894 0.950 . S
C2871 C2888 1.610 . S
C2871 C2890 1.332 1_565 S
C2871 H2895 0.951 1_565 S
H2872 C2876 0.949 . S
C2873 C2874 1.349 . S
C2873 C2875 1.327 . S
C2873 H2896 0.950 . S
C2874 C2873 1.349 . S
C2874 C2886 1.349 . S
C2875 C2873 1.327 . S
C2875 C2891 1.429 . S
C2875 H2897 0.950 . S
C2876 H2872 0.949 . S
C2876 C2884 1.574 1_565 S
C2876 C2892 1.368 . S
H2877 C2885 0.950 . S
H2878 C2883 0.950 . S
H2879 C2884 0.949 . S
H2880 C2886 0.950 . S
H2881 C2887 0.950 . S
H2882 C2888 0.949 . S
C2883 H2878 0.950 . S
C2883 C2885 1.327 . S
C2883 C2889 1.429 . S
C2884 C2876 1.574 1_545 S
C2884 H2879 0.949 . S
C2884 C2890 1.368 . S
C2885 C2869 1.349 . S
C2885 H2877 0.950 . S
C2885 C2883 1.327 . S
C2886 C2874 1.349 . S
C2886 H2880 0.950 . S
C2886 C2887 1.327 . S
C2887 H2881 0.950 . S
C2887 C2886 1.327 . S
C2887 C2891 1.429 . S
C2888 C2871 1.610 . S
C2888 H2882 0.949 . S
C2888 C2892 1.368 . S
C2889 C2870 1.429 . S
C2889 C2883 1.429 . S
C2889 C2890 1.523 . S
C2890 C2871 1.332 1_545 S
C2890 C2884 1.368 . S
C2890 C2889 1.523 . S
C2891 C2875 1.429 . S
C2891 C2887 1.429 . S
C2891 C2892 1.523 . S
C2892 C2876 1.368 . S
C2892 C2888 1.368 . S
C2892 C2891 1.523 . S
H2893 C2868 0.950 . S
H2894 C2870 0.950 . S
H2895 C2871 0.951 1_545 S
H2896 C2873 0.950 . S
H2897 C2875 0.950 . S
C2898 C2899 1.301 1_554 S
C2898 C2900 1.341 . S
C2898 H2923 0.987 . S
C2899 C2898 1.301 1_556 S
C2899 C2915 1.349 . S
C2900 C2898 1.341 . S
C2900 C2919 1.429 1_554 S
C2900 H2924 0.950 . S
C2901 C2918 1.574 1_545 S
C2901 C2920 1.368 . S
C2901 H2925 0.949 . S
H2902 C2906 0.949 . S
C2903 C2904 1.349 . S
C2903 C2905 1.335 . S
C2903 H2926 0.950 1_554 S
C2904 C2903 1.349 . S
C2904 C2916 1.349 . S
C2905 C2903 1.335 . S
C2905 C2921 1.449 . S
C2905 H2927 0.921 1_554 S
C2906 H2902 0.949 . S
C2906 C2914 1.574 1_565 S
C2906 C2922 1.368 . S
H2907 C2915 0.950 . S
H2908 C2913 0.950 . S
H2909 C2914 0.949 . S
H2910 C2916 0.950 . S
H2911 C2917 0.950 . S
H2912 C2918 0.949 . S
C2913 H2908 0.950 . S
C2913 C2915 1.327 . S
C2913 C2919 1.429 . S
C2914 C2906 1.574 1_545 S
C2914 H2909 0.949 . S
C2914 C2920 1.368 1_554 S
C2915 C2899 1.349 . S
C2915 H2907 0.950 . S
C2915 C2913 1.327 . S
C2916 C2904 1.349 . S
C2916 H2910 0.950 . S
C2916 C2917 1.327 . S
C2917 H2911 0.950 . S
C2917 C2916 1.327 . S
C2917 C2921 1.429 . S
C2918 C2901 1.574 1_565 S
C2918 H2912 0.949 . S
C2918 C2922 1.368 1_556 S
C2919 C2900 1.429 1_556 S
C2919 C2913 1.429 . S
C2919 C2920 1.523 . S
C2920 C2901 1.368 . S
C2920 C2914 1.368 1_556 S
C2920 C2919 1.523 . S
C2921 C2905 1.449 . S
C2921 C2917 1.429 . S
C2921 C2922 1.523 . S
C2922 C2906 1.368 . S
C2922 C2918 1.368 1_554 S
C2922 C2921 1.523 . S
H2923 C2898 0.987 . S
H2924 C2900 0.950 . S
H2925 C2901 0.949 . S
H2926 C2903 0.950 1_556 S
H2927 C2905 0.921 1_556 S
C2928 C2929 1.349 . S
C2928 C2930 1.327 . S
C2928 H2953 0.950 . S
C2929 C2928 1.349 . S
C2929 C2945 1.349 . S
C2930 C2928 1.327 . S
C2930 C2949 1.429 . S
C2930 H2954 0.950 . S
C2931 C2948 1.574 1_655 S
C2931 C2950 1.368 1_554 S
C2931 H2955 0.949 . S
H2932 C2936 0.949 . S
C2933 C2934 1.349 . S
C2933 C2935 1.327 . S
C2933 H2956 0.950 . S
C2934 C2933 1.349 . S
C2934 C2946 1.349 . S
C2935 C2933 1.327 . S
C2935 C2951 1.429 . S
C2935 H2957 0.950 . S
C2936 H2932 0.949 . S
C2936 C2944 1.574 1_455 S
C2936 C2952 1.368 1_556 S
H2937 C2945 0.940 1_554 S
H2938 C2943 0.957 . S
H2939 C2944 0.949 . S
H2940 C2946 0.950 . S
H2941 C2947 0.950 1_556 S
H2942 C2948 0.949 . S
C2943 H2938 0.957 . S
C2943 C2945 1.324 1_554 S
C2943 C2949 1.425 1_554 S
C2944 C2936 1.574 1_655 S
C2944 H2939 0.949 . S
C2944 C2950 1.368 . S
C2945 C2929 1.349 . S
C2945 H2937 0.940 1_556 S
C2945 C2943 1.324 1_556 S
C2946 C2934 1.349 . S
C2946 H2940 0.950 . S
C2946 C2947 1.327 . S
C2947 H2941 0.950 1_554 S
C2947 C2946 1.327 . S
C2947 C2951 1.429 . S
C2948 C2931 1.574 1_455 S
C2948 H2942 0.949 . S
C2948 C2952 1.368 . S
C2949 C2930 1.429 . S
C2949 C2943 1.425 1_556 S
C2949 C2950 1.523 . S
C2950 C2931 1.368 1_556 S
C2950 C2944 1.368 . S
C2950 C2949 1.523 . S
C2951 C2935 1.429 . S
C2951 C2947 1.429 . S
C2951 C2952 1.523 . S
C2952 C2936 1.368 1_554 S
C2952 C2948 1.368 . S
C2952 C2951 1.523 . S
H2953 C2928 0.950 . S
H2954 C2930 0.950 . S
H2955 C2931 0.949 . S
H2956 C2933 0.950 . S
H2957 C2935 0.950 . S
C2958 C2959 1.349 . S
C2958 C2960 1.327 . S
C2958 H2983 0.950 . S
C2959 C2958 1.349 . S
C2959 C2975 1.349 1_556 S
C2960 C2958 1.327 . S
C2960 C2979 1.400 1_556 S
C2960 H2984 0.950 . S
C2961 C2978 1.574 . S
C2961 C2980 1.368 . S
C2961 H2985 0.949 . S
H2962 C2966 0.949 . S
C2963 C2964 1.349 . S
C2963 C2965 1.327 . S
C2963 H2986 0.950 . S
C2964 C2963 1.349 . S
C2964 C2976 1.349 . S
C2965 C2963 1.327 . S
C2965 C2981 1.429 . S
C2965 H2987 0.950 . S
C2966 H2962 0.949 . S
C2966 C2974 1.574 . S
C2966 C2982 1.368 1_556 S
H2967 C2975 0.950 . S
H2968 C2973 0.950 . S
H2969 C2974 0.949 . S
H2970 C2976 0.950 . S
H2971 C2977 0.950 1_556 S
H2972 C2978 0.949 . S
C2973 H2968 0.950 . S
C2973 C2975 1.327 . S
C2973 C2979 1.448 . S
C2974 C2966 1.574 . S
C2974 H2969 0.949 . S
C2974 C2980 1.368 1_556 S
C2975 C2959 1.349 1_554 S
C2975 H2967 0.950 . S
C2975 C2973 1.327 . S
C2976 C2964 1.349 . S
C2976 H2970 0.950 . S
C2976 C2977 1.327 . S
C2977 H2971 0.950 1_554 S
C2977 C2976 1.327 . S
C2977 C2981 1.429 . S
C2978 C2961 1.574 . S
C2978 H2972 0.949 . S
C2978 C2982 1.368 . S
C2979 C2960 1.400 1_554 S
C2979 C2973 1.448 . S
C2979 C2980 1.532 . S
C2980 C2961 1.368 . S
C2980 C2974 1.368 1_554 S
C2980 C2979 1.532 . S
C2981 C2965 1.429 . S
C2981 C2977 1.429 . S
C2981 C2982 1.523 . S
C2982 C2966 1.368 1_554 S
C2982 C2978 1.368 . S
C2982 C2981 1.523 . S
H2983 C2958 0.950 . S
H2984 C2960 0.950 . S
H2985 C2961 0.949 . S
H2986 C2963 0.950 . S
H2987 C2965 0.950 . S
C829 N12 1.452 . S
C834 N163 1.406 . S
C859 C39 1.470 . S
C864 N186 1.426 . S
C889 N140 1.434 . S
C894 C62 1.473 . S
C919 N255 1.434 . S
C924 C85 1.473 . S
C949 C108 1.471 . S
C954 N209 1.426 . S
C979 N127 1.452 . S
C984 N232 1.406 . S
C1009 N25 1.689 1_565 S
C1014 C154 1.736 . S
C1039 N48 1.551 . S
C1044 C177 1.599 . S
C1069 C200 1.690 . S
C1074 C7 1.724 . S
C1099 C223 1.690 . S
C1104 C122 1.724 . S
C1129 N71 1.551 . S
C1134 C246 1.599 . S
C1159 C269 1.736 . S
C1164 N94 1.689 1_545 S
C1189 N439 1.406 . S
C1194 N288 1.452 . S
C1219 C315 1.470 . S
C1224 N462 1.426 . S
C1249 C338 1.473 . S
C1254 N416 1.434 . S
C1279 N531 1.434 . S
C1284 C361 1.473 . S
C1309 C384 1.470 . S
C1314 N485 1.426 . S
C1339 N508 1.406 . S
C1344 N403 1.452 . S
C1369 N301 1.689 . S
C1374 C430 1.736 . S
C1399 C453 1.599 . S
C1404 N324 1.551 . S
C1429 C283 1.724 . S
C1434 C476 1.691 . S
C1459 C499 1.691 . S
C1464 C398 1.724 . S
C1489 C522 1.599 . S
C1494 N347 1.551 . S
C1519 C545 1.736 . S
C1524 N370 1.689 . S
C1549 N715 1.406 . S
C1554 N564 1.452 . S
C1579 N738 1.426 . S
C1584 C591 1.470 . S
C1609 N692 1.434 . S
C1614 C614 1.473 . S
C1639 C637 1.473 . S
C1644 N807 1.434 . S
C1669 C660 1.471 . S
C1674 N761 1.426 . S
C1699 N784 1.406 . S
C1704 N679 1.452 . S
C1729 C706 1.736 . S
C1734 N577 1.689 . S
C1759 N600 1.551 . S
C1764 C729 1.599 . S
C1789 C559 1.725 . S
C1794 C752 1.691 . S
C1819 C775 1.691 . S
C1824 C674 1.724 . S
C1849 C798 1.599 . S
C1854 N623 1.551 . S
C1879 C821 1.736 . S
C1884 N646 1.689 . S
C1909 C76 2.156 . S
C1914 N2 2.041 . S
C1939 C99 2.363 . S
C1944 C30 2.363 . S
C1969 C53 2.156 . S
C1974 N117 2.041 . S
C1999 C214 2.347 . S
C2004 C145 2.339 . S
C2029 C237 2.180 . S
C2034 C168 2.180 . S
C2059 C260 2.339 . S
C2064 C191 2.347 . S
C2089 C352 2.156 . S
C2094 N278 2.041 . S
C2119 C375 2.363 . S
C2124 C306 2.363 . S
C2149 C329 2.156 . S
C2154 N393 2.041 . S
C2179 C490 2.347 1_554 S
C2184 C421 2.339 . S
C2209 C513 2.180 1_554 S
C2214 C444 2.180 . S
C2239 C536 2.339 1_554 S
C2244 C467 2.347 . S
C2269 C628 2.156 . S
C2274 N554 2.041 . S
C2299 C582 2.363 . S
C2304 C651 2.363 1_556 S
C2329 N669 2.041 1_556 S
C2334 C605 2.156 . S
C2359 C697 2.339 . S
C2364 C766 2.347 . S
C2389 C720 2.180 . S
C2394 C789 2.180 . S
C2419 C743 2.347 . S
C2424 C812 2.339 . S
C2449 C16 1.726 . S
C2454 N426 1.716 . S
C2479 N449 1.585 . S
C2484 N35 1.584 . S
C2509 N472 1.703 . S
C2514 N58 1.709 . S
C2539 N771 1.703 . S
C2544 N81 1.709 . S
C2569 N794 1.585 . S
C2574 N104 1.584 . S
C2599 N817 1.716 . S
C2604 C131 1.726 . S
C2629 N150 1.716 . S
C2634 C568 1.726 . S
C2659 N587 1.584 . S
C2664 N173 1.585 . S
C2689 N610 1.709 . S
C2694 N196 1.703 . S
C2719 N219 1.703 . S
C2724 N357 1.709 . S
C2749 N242 1.585 . S
C2754 N380 1.584 . S
C2779 N265 1.716 . S
C2784 C407 1.726 . S
C2809 N702 1.716 . S
C2814 C292 1.726 . S
C2839 N725 1.585 . S
C2844 N311 1.584 . S
C2869 N334 1.709 . S
C2874 N748 1.703 . S
C2899 N495 1.703 . S
C2904 N633 1.709 . S
C2929 N518 1.585 . S
C2934 N656 1.584 . S
C2959 N541 1.716 . S
C2964 C683 1.726 . S
