# Generated by pormake.
# Topology acs-h, (5)-cn, num edge types: 1
# Building blocks:
#     Node 0, Type 0, BuildingBlock: XOMCOT_clean_sbu_1, # of connection points: 5
#     Node 1, Type 0, BuildingBlock: XOMCOT_clean_sbu_1, # of connection points: 5
#     Node 2, Type 0, BuildingBlock: XOMCOT_clean_sbu_1, # of connection points: 5
#     Node 3, Type 0, BuildingBlock: XOMCOT_clean_sbu_1, # of connection points: 5
#     Node 4, Type 0, BuildingBlock: XOMCOT_clean_sbu_1, # of connection points: 5
#     Node 5, Type 0, BuildingBlock: XOMCOT_clean_sbu_1, # of connection points: 5
#     Node 6, Type 0, BuildingBlock: XOMCOT_clean_sbu_1, # of connection points: 5
#     Node 7, Type 0, BuildingBlock: XOMCOT_clean_sbu_1, # of connection points: 5
#     Node 8, Type 0, BuildingBlock: XOMCOT_clean_sbu_1, # of connection points: 5
#     Node 9, Type 0, BuildingBlock: XOMCOT_clean_sbu_1, # of connection points: 5
#     Node 10, Type 0, BuildingBlock: XOMCOT_clean_sbu_1, # of connection points: 5
#     Node 11, Type 0, BuildingBlock: XOMCOT_clean_sbu_1, # of connection points: 5
#     Edge 12, Type (0, 0), BuildingBlock: TEMPAE_clean_linker_10, # of connection points: 2
#     Edge 13, Type (0, 0), BuildingBlock: TEMPAE_clean_linker_10, # of connection points: 2
#     Edge 14, Type (0, 0), BuildingBlock: TEMPAE_clean_linker_10, # of connection points: 2
#     Edge 15, Type (0, 0), BuildingBlock: TEMPAE_clean_linker_10, # of connection points: 2
#     Edge 16, Type (0, 0), BuildingBlock: TEMPAE_clean_linker_10, # of connection points: 2
#     Edge 17, Type (0, 0), BuildingBlock: TEMPAE_clean_linker_10, # of connection points: 2
#     Edge 18, Type (0, 0), BuildingBlock: TEMPAE_clean_linker_10, # of connection points: 2
#     Edge 19, Type (0, 0), BuildingBlock: TEMPAE_clean_linker_10, # of connection points: 2
#     Edge 20, Type (0, 0), BuildingBlock: TEMPAE_clean_linker_10, # of connection points: 2
#     Edge 21, Type (0, 0), BuildingBlock: TEMPAE_clean_linker_10, # of connection points: 2
#     Edge 22, Type (0, 0), BuildingBlock: TEMPAE_clean_linker_10, # of connection points: 2
#     Edge 23, Type (0, 0), BuildingBlock: TEMPAE_clean_linker_10, # of connection points: 2
#     Edge 24, Type (0, 0), BuildingBlock: TEMPAE_clean_linker_10, # of connection points: 2
#     Edge 25, Type (0, 0), BuildingBlock: TEMPAE_clean_linker_10, # of connection points: 2
#     Edge 26, Type (0, 0), BuildingBlock: TEMPAE_clean_linker_10, # of connection points: 2
#     Edge 27, Type (0, 0), BuildingBlock: TEMPAE_clean_linker_10, # of connection points: 2
#     Edge 28, Type (0, 0), BuildingBlock: TEMPAE_clean_linker_10, # of connection points: 2
#     Edge 29, Type (0, 0), BuildingBlock: TEMPAE_clean_linker_10, # of connection points: 2
#     Edge 30, Type (0, 0), BuildingBlock: TEMPAE_clean_linker_10, # of connection points: 2
#     Edge 31, Type (0, 0), BuildingBlock: TEMPAE_clean_linker_10, # of connection points: 2
#     Edge 32, Type (0, 0), BuildingBlock: TEMPAE_clean_linker_10, # of connection points: 2
#     Edge 33, Type (0, 0), BuildingBlock: TEMPAE_clean_linker_10, # of connection points: 2
#     Edge 34, Type (0, 0), BuildingBlock: TEMPAE_clean_linker_10, # of connection points: 2
#     Edge 35, Type (0, 0), BuildingBlock: TEMPAE_clean_linker_10, # of connection points: 2
#     Edge 36, Type (0, 0), BuildingBlock: TEMPAE_clean_linker_10, # of connection points: 2
#     Edge 37, Type (0, 0), BuildingBlock: TEMPAE_clean_linker_10, # of connection points: 2
#     Edge 38, Type (0, 0), BuildingBlock: TEMPAE_clean_linker_10, # of connection points: 2
#     Edge 39, Type (0, 0), BuildingBlock: TEMPAE_clean_linker_10, # of connection points: 2
#     Edge 40, Type (0, 0), BuildingBlock: TEMPAE_clean_linker_10, # of connection points: 2
#     Edge 41, Type (0, 0), BuildingBlock: TEMPAE_clean_linker_10, # of connection points: 2
# Relax obj value: 0.905
# Max RMSD: 0.277
# Mean RMSD: 0.277
data_MOF--net-acs-h--node1-XOMCOT_clean_sbu_1--edge1-TEMPAE_clean_linker_10
_symmetry_space_group_name_H-M    P1
_symmetry_Int_Tables_number       1
_symmetry_cell_setting            triclinic
loop_
_symmetry_equiv_pos_as_xyz
'x, y, z'
_cell_length_a     47.910636
_cell_length_b     47.925238
_cell_length_c     39.995595
_cell_angle_alpha  90.007071
_cell_angle_beta   89.995936
_cell_angle_gamma 120.01382
loop_
_atom_site_label
_atom_site_type_symbol
_atom_site_fract_x
_atom_site_fract_y
_atom_site_fract_z
_atom_type_partial_charge
C0 C 0.50375 0.14633 0.02661 0.0
C1 C 0.53456 0.15345 0.01839 0.0
N2 N 0.55111 0.15793 0.04698 0.0
N3 N 0.50121 0.14677 0.06015 0.0
C4 C 0.53046 0.15383 0.07185 0.0
H5 H 0.48453 0.14159 0.00931 0.0
Co6 Co 0.46496 0.14045 0.0832 0.0
C7 C 0.47773 0.12931 0.15387 0.0
O8 O 0.44796 0.10583 0.15838 0.0
N9 N 0.4282 0.13472 0.10603 0.0
C10 C 0.37881 0.12048 0.12404 0.0
C11 C 0.39638 0.11409 0.1012 0.0
C12 C 0.42914 0.15369 0.13145 0.0
N13 N 0.39957 0.14551 0.14294 0.0
O14 O 0.4827 0.1857 0.08508 0.0
H15 H 0.386 0.09573 0.08224 0.0
H16 H 0.45134 0.17292 0.14178 0.0
O17 O 0.48632 0.14358 0.12567 0.0
C18 C 0.48225 0.20194 0.06021 0.0
O19 O 0.46676 0.18675 0.03298 0.0
N20 N 0.44842 0.09599 0.0795 0.0
C21 C 0.43012 0.03314 0.06045 0.0
C22 C 0.45309 0.04878 0.08566 0.0
C23 C 0.46239 0.08032 0.09429 0.0
C24 C 0.42646 0.08141 0.05453 0.0
C25 C 0.41629 0.04969 0.04517 0.0
H26 H 0.48279 0.09265 0.11071 0.0
H27 H 0.41801 0.09507 0.04057 0.0
H28 H 0.53704 0.15698 0.09802 0.0
H29 H 0.54411 0.15537 0.99344 0.0
H30 H 0.35281 0.10804 0.12614 0.0
H31 H 0.46591 0.03781 0.09675 0.0
H32 H 0.3991 0.03889 0.02497 0.0
C33 C 0.80954 0.33681 0.05231 0.0
C34 C 0.80157 0.36054 0.04827 0.0
N35 N 0.81522 0.38206 0.07332 0.0
N36 N 0.82782 0.34325 0.07994 0.0
C37 C 0.83124 0.37114 0.09184 0.0
H38 H 0.80203 0.31594 0.0365 0.0
Co39 Co 0.84373 0.31863 0.0988 0.0
C40 C 0.84029 0.33051 0.17374 0.0
O41 O 0.85401 0.31481 0.18572 0.0
N42 N 0.85979 0.29369 0.11727 0.0
C43 C 0.89032 0.27273 0.13213 0.0
C44 C 0.88927 0.29667 0.114 0.0
C45 C 0.84324 0.26739 0.13655 0.0
N46 N 0.86114 0.25428 0.146 0.0
O47 O 0.80089 0.28341 0.10093 0.0
H48 H 0.90896 0.31519 0.09967 0.0
H49 H 0.81887 0.25893 0.1451 0.0
O50 O 0.83701 0.33205 0.14229 0.0
C51 C 0.7885 0.26041 0.07999 0.0
O52 O 0.80683 0.25838 0.05681 0.0
N53 N 0.88514 0.35394 0.09529 0.0
C54 C 0.93364 0.4152 0.07897 0.0
C55 C 0.92599 0.40647 0.11252 0.0
C56 C 0.90186 0.37524 0.12029 0.0
C57 C 0.89496 0.36088 0.06293 0.0
C58 C 0.91935 0.39158 0.05413 0.0
H59 H 0.8953 0.36937 0.1461 0.0
H60 H 0.88153 0.34353 0.04355 0.0
H61 H 0.8445 0.38278 0.11433 0.0
H62 H 0.78668 0.36167 0.02858 0.0
H63 H 0.91087 0.26933 0.13513 0.0
H64 H 0.9371 0.42412 0.13229 0.0
H65 H 0.92475 0.39758 0.02792 0.0
C66 C 0.69324 0.48333 0.06006 0.0
C67 C 0.6774 0.45178 0.04916 0.0
N68 N 0.6492 0.43597 0.06568 0.0
N69 N 0.67526 0.48705 0.08372 0.0
C70 C 0.64867 0.45776 0.08646 0.0
H71 H 0.71594 0.50237 0.05058 0.0
Co72 Co 0.68224 0.52413 0.10605 0.0
C73 C 0.664 0.50081 0.17541 0.0
O74 O 0.6896 0.52621 0.18749 0.0
N75 N 0.68887 0.56156 0.12829 0.0
C76 C 0.68181 0.59539 0.1606 0.0
C77 C 0.66663 0.56788 0.14151 0.0
C78 C 0.71728 0.5862 0.13887 0.0
N79 N 0.71375 0.60671 0.15917 0.0
O80 O 0.72063 0.5278 0.12453 0.0
H81 H 0.64088 0.55226 0.13999 0.0
H82 H 0.74011 0.58733 0.13507 0.0
O83 O 0.65882 0.49793 0.14402 0.0
C84 C 0.74664 0.5409 0.10769 0.0
O85 O 0.74852 0.55807 0.08127 0.0
N86 N 0.64499 0.51942 0.08621 0.0
C87 C 0.59202 0.50024 0.04492 0.0
C88 C 0.58781 0.49203 0.07886 0.0
C89 C 0.61465 0.50188 0.0992 0.0
C90 C 0.64953 0.52958 0.05385 0.0
C91 C 0.62322 0.52026 0.03262 0.0
H92 H 0.61072 0.49395 0.12488 0.0
H93 H 0.67375 0.54304 0.04396 0.0
H94 H 0.62887 0.45248 0.10309 0.0
H95 H 0.68546 0.44159 0.02986 0.0
H96 H 0.67009 0.60452 0.1768 0.0
H97 H 0.56397 0.47723 0.08937 0.0
H98 H 0.62732 0.52711 0.0065 0.0
C99 C 0.86489 0.49515 0.42725 0.0
C100 C 0.85454 0.46325 0.43386 0.0
N101 N 0.83284 0.44529 0.41036 0.0
N102 N 0.85021 0.49719 0.3993 0.0
C103 C 0.83032 0.46633 0.39006 0.0
H104 H 0.88253 0.51551 0.44152 0.0
Co105 Co 0.85806 0.53441 0.37657 0.0
C106 C 0.85813 0.51653 0.30434 0.0
O107 O 0.88027 0.5457 0.29529 0.0
N108 N 0.86561 0.57195 0.35403 0.0
C109 C 0.88349 0.62228 0.33662 0.0
C110 C 0.88975 0.60288 0.35686 0.0
C111 C 0.84496 0.57341 0.33212 0.0
N112 N 0.85529 0.60361 0.32106 0.0
O113 O 0.81355 0.52113 0.37963 0.0
H114 H 0.91058 0.61151 0.37276 0.0
H115 H 0.82234 0.55263 0.32485 0.0
O116 O 0.84895 0.51086 0.33475 0.0
C117 C 0.80077 0.51951 0.40792 0.0
O118 O 0.81896 0.52848 0.43482 0.0
N119 N 0.90181 0.54698 0.37545 0.0
C120 C 0.96103 0.55479 0.39467 0.0
C121 C 0.94434 0.53503 0.36749 0.0
C122 C 0.91444 0.53104 0.35855 0.0
C123 C 0.9187 0.56767 0.4007 0.0
C124 C 0.9487 0.57251 0.41025 0.0
H125 H 0.9004 0.51245 0.34068 0.0
H126 H 0.90745 0.57817 0.4156 0.0
H127 H 0.81492 0.45937 0.36832 0.0
H128 H 0.86244 0.45397 0.45422 0.0
H129 H 0.89857 0.64807 0.33357 0.0
H130 H 0.9526 0.52016 0.35557 0.0
H131 H 0.96075 0.58773 0.4316 0.0
C132 C 0.51152 0.37151 0.45082 0.0
C133 C 0.54353 0.39282 0.45712 0.0
N134 N 0.56066 0.39277 0.4305 0.0
N135 N 0.50857 0.35865 0.4201 0.0
C136 C 0.53905 0.37171 0.40859 0.0
H137 H 0.49165 0.36608 0.46742 0.0
Co138 Co 0.47015 0.33096 0.39846 0.0
C139 C 0.48426 0.34744 0.32572 0.0
O140 O 0.45478 0.34122 0.31936 0.0
N141 N 0.4313 0.30259 0.37725 0.0
C142 C 0.38132 0.27558 0.35696 0.0
C143 C 0.40191 0.30012 0.37797 0.0
C144 C 0.42769 0.27899 0.35628 0.0
N145 N 0.39772 0.2623 0.34359 0.0
O146 O 0.4813 0.29817 0.39981 0.0
H147 H 0.39568 0.3154 0.39211 0.0
H148 H 0.44729 0.27523 0.34889 0.0
O149 O 0.49207 0.34436 0.35543 0.0
C150 C 0.48283 0.28566 0.42723 0.0
O151 O 0.47516 0.29454 0.45522 0.0
N152 N 0.46006 0.36399 0.39912 0.0
C153 C 0.46481 0.42024 0.42411 0.0
C154 C 0.47839 0.42026 0.39313 0.0
C155 C 0.47653 0.39207 0.38148 0.0
C156 C 0.44303 0.36271 0.42695 0.0
C157 C 0.44513 0.39068 0.44003 0.0
H158 H 0.49175 0.39446 0.36072 0.0
H159 H 0.43122 0.34072 0.44144 0.0
H160 H 0.54536 0.36661 0.3843 0.0
H161 H 0.55348 0.40716 0.47949 0.0
H162 H 0.35648 0.26839 0.35157 0.0
H163 H 0.49336 0.44256 0.3798 0.0
H164 H 0.4344 0.38956 0.46419 0.0
C165 C 0.63477 0.14589 0.43986 0.0
C166 C 0.61478 0.15687 0.45077 0.0
N167 N 0.61203 0.17429 0.42599 0.0
N168 N 0.64387 0.15573 0.40806 0.0
C169 C 0.63018 0.17365 0.40062 0.0
H170 H 0.64178 0.13125 0.45413 0.0
Co171 Co 0.66781 0.14422 0.38056 0.0
C172 C 0.65398 0.15839 0.31217 0.0
O173 O 0.68369 0.16895 0.30204 0.0
N174 N 0.69181 0.1322 0.35381 0.0
C175 C 0.70703 0.10836 0.31623 0.0
C176 C 0.68118 0.10691 0.33271 0.0
C177 C 0.72412 0.14822 0.35019 0.0
N178 N 0.73402 0.13458 0.32704 0.0
O179 O 0.69948 0.18874 0.37589 0.0
H180 H 0.65614 0.08953 0.32805 0.0
H181 H 0.74005 0.17053 0.36293 0.0
O182 O 0.64574 0.14823 0.34198 0.0
C183 C 0.71548 0.20414 0.40151 0.0
O184 O 0.71143 0.18847 0.4297 0.0
N185 N 0.63665 0.10103 0.38644 0.0
C186 C 0.58591 0.0465 0.41452 0.0
C187 C 0.5819 0.05839 0.38398 0.0
C188 C 0.60751 0.08612 0.37055 0.0
C189 C 0.64239 0.08675 0.4129 0.0
C190 C 0.61708 0.05951 0.42779 0.0
H191 H 0.60278 0.09649 0.34891 0.0
H192 H 0.66576 0.0988 0.42489 0.0
H193 H 0.63278 0.18538 0.37681 0.0
H194 H 0.60308 0.15236 0.47491 0.0
H195 H 0.70577 0.09299 0.29575 0.0
H196 H 0.55841 0.04821 0.37228 0.0
H197 H 0.62133 0.05099 0.45126 0.0
C198 C 0.4723 0.7678 0.92879 0.0
C199 C 0.4392 0.75299 0.9304 0.0
N200 N 0.42986 0.77258 0.91617 0.0
N201 N 0.4838 0.79654 0.91356 0.0
C202 C 0.45752 0.79892 0.90665 0.0
H203 H 0.48697 0.75814 0.93797 0.0
Co204 Co 0.52635 0.82627 0.90275 0.0
C205 C 0.5162 0.85489 0.83736 0.0
O206 O 0.54561 0.87888 0.83247 0.0
N207 N 0.56893 0.85529 0.89205 0.0
C208 C 0.62227 0.88633 0.89581 0.0
C209 C 0.5934 0.87416 0.91289 0.0
C210 C 0.5833 0.85629 0.86288 0.0
N211 N 0.61548 0.87536 0.86423 0.0
O212 O 0.52864 0.79306 0.87927 0.0
H213 H 0.5906 0.87695 0.9393 0.0
H214 H 0.57065 0.84113 0.84168 0.0
O215 O 0.50981 0.83631 0.86256 0.0
C216 C 0.54211 0.7794 0.89404 0.0
O217 O 0.55933 0.79316 0.92093 0.0
N218 N 0.52338 0.85764 0.9275 0.0
C219 C 0.50276 0.89308 0.96365 0.0
C220 C 0.51745 0.90412 0.93247 0.0
C221 C 0.52778 0.88593 0.91468 0.0
C222 C 0.51294 0.84893 0.95957 0.0
C223 C 0.50163 0.86593 0.97788 0.0
H224 H 0.5381 0.89399 0.89028 0.0
H225 H 0.51097 0.82719 0.96997 0.0
H226 H 0.45887 0.81966 0.89447 0.0
H227 H 0.42345 0.72967 0.94139 0.0
H228 H 0.64625 0.90047 0.90616 0.0
H229 H 0.51925 0.92553 0.92124 0.0
H230 H 0.491 0.85731 0.00231 0.0
C231 C 0.14915 0.64499 0.95032 0.0
C232 C 0.15982 0.62399 0.9587 0.0
N233 N 0.16565 0.61284 0.93019 0.0
N234 N 0.14847 0.64703 0.91673 0.0
C235 C 0.15886 0.62734 0.90523 0.0
H236 H 0.14246 0.65806 0.96753 0.0
Co237 Co 0.13703 0.67255 0.89204 0.0
C238 C 0.1388 0.65147 0.82369 0.0
O239 O 0.15624 0.6817 0.81434 0.0
N240 N 0.12536 0.69818 0.86744 0.0
C241 C 0.09976 0.71493 0.83371 0.0
C242 C 0.09726 0.68912 0.85138 0.0
C243 C 0.14426 0.7295 0.85953 0.0
N244 N 0.12948 0.74014 0.83875 0.0
O245 O 0.18097 0.69798 0.87872 0.0
H246 H 0.07688 0.66487 0.85101 0.0
H247 H 0.16914 0.74395 0.86715 0.0
O248 O 0.12861 0.64479 0.8537 0.0
C249 C 0.19929 0.71696 0.90135 0.0
O250 O 0.18603 0.72013 0.9288 0.0
N251 N 0.09526 0.64825 0.90758 0.0
C252 C 0.0423 0.61204 0.94805 0.0
C253 C 0.0484 0.59794 0.92032 0.0
C254 C 0.07534 0.61645 0.90047 0.0
C255 C 0.08815 0.66301 0.93253 0.0
C256 C 0.06165 0.64527 0.95323 0.0
H257 H 0.08141 0.60451 0.88134 0.0
H258 H 0.10468 0.68812 0.93804 0.0
H259 H 0.16228 0.62425 0.87906 0.0
H260 H 0.16278 0.61721 0.98371 0.0
H261 H 0.08217 0.7145 0.8164 0.0
H262 H 0.03437 0.57221 0.91592 0.0
H263 H 0.0577 0.6569 0.97446 0.0
C264 C 0.33698 0.51063 0.93918 0.0
C265 C 0.36185 0.54136 0.94554 0.0
N266 N 0.38305 0.55048 0.92003 0.0
N267 N 0.34236 0.50062 0.90967 0.0
C268 C 0.37088 0.52514 0.89899 0.0
H269 H 0.31573 0.49695 0.9544 0.0
Co270 Co 0.31414 0.4631 0.88715 0.0
C271 C 0.33829 0.47943 0.81515 0.0
O272 O 0.32821 0.44991 0.8047 0.0
N273 N 0.28529 0.42525 0.86494 0.0
C274 C 0.25276 0.3742 0.84993 0.0
C275 C 0.27623 0.3943 0.87214 0.0
C276 C 0.26664 0.42327 0.8388 0.0
N277 N 0.24703 0.39263 0.82887 0.0
O278 O 0.28506 0.47889 0.8828 0.0
H279 H 0.28552 0.3865 0.89244 0.0
H280 H 0.26716 0.44404 0.8275 0.0
O281 O 0.33357 0.48448 0.84538 0.0
C282 C 0.26146 0.47015 0.90272 0.0
O283 O 0.25538 0.44746 0.92476 0.0
N284 N 0.34297 0.44825 0.89359 0.0
C285 C 0.38953 0.43626 0.92029 0.0
C286 C 0.39398 0.45072 0.88877 0.0
C287 C 0.37044 0.45669 0.87588 0.0
C288 C 0.33749 0.43258 0.92334 0.0
C289 C 0.36018 0.42581 0.93691 0.0
H290 H 0.37597 0.47042 0.85319 0.0
H291 H 0.31605 0.42694 0.93749 0.0
H292 H 0.38189 0.52511 0.87544 0.0
H293 H 0.36371 0.55612 0.96685 0.0
H294 H 0.24096 0.34817 0.84925 0.0
H295 H 0.41656 0.45985 0.87542 0.0
H296 H 0.35564 0.41433 0.96119 0.0
C297 C 0.21009 0.53631 0.56563 0.0
C298 C 0.22291 0.56924 0.5638 0.0
N299 N 0.20827 0.57783 0.58707 0.0
N300 N 0.18772 0.52443 0.59005 0.0
C301 C 0.18737 0.55034 0.60272 0.0
H302 H 0.21634 0.52188 0.54991 0.0
Co303 Co 0.16238 0.48148 0.60202 0.0
C304 C 0.12606 0.48438 0.66183 0.0
O305 O 0.099 0.45906 0.65218 0.0
N306 N 0.13744 0.43804 0.614 0.0
C307 C 0.11158 0.38432 0.6148 0.0
C308 C 0.12077 0.41122 0.59515 0.0
C309 C 0.13799 0.42678 0.64469 0.0
N310 N 0.12219 0.39441 0.64602 0.0
O311 O 0.19882 0.48376 0.62317 0.0
H312 H 0.11729 0.41088 0.56848 0.0
H313 H 0.15204 0.44211 0.66523 0.0
O314 O 0.15144 0.49457 0.64401 0.0
C315 C 0.21453 0.47424 0.60553 0.0
O316 O 0.20118 0.4582 0.57791 0.0
N317 N 0.1283 0.48046 0.57841 0.0
C318 C 0.09479 0.49303 0.52969 0.0
C319 C 0.09617 0.50372 0.56248 0.0
C320 C 0.11333 0.49748 0.58647 0.0
C321 C 0.12644 0.46926 0.54667 0.0
C322 C 0.1092 0.47471 0.52195 0.0
H323 H 0.11686 0.50921 0.61024 0.0
H324 H 0.14072 0.45843 0.53976 0.0
H325 H 0.172 0.54925 0.62306 0.0
H326 H 0.2409 0.58541 0.54619 0.0
H327 H 0.09973 0.35951 0.60646 0.0
H328 H 0.08561 0.51839 0.56904 0.0
H329 H 0.10917 0.46679 0.49657 0.0
C330 C 0.4895 0.6796 0.57143 0.0
C331 C 0.45815 0.65702 0.56361 0.0
N332 N 0.44672 0.63434 0.58776 0.0
N333 N 0.49761 0.67134 0.60052 0.0
C334 C 0.47124 0.64347 0.60951 0.0
H335 H 0.5052 0.70089 0.55709 0.0
Co336 Co 0.53629 0.69441 0.6235 0.0
C337 C 0.52046 0.66348 0.69237 0.0
O338 O 0.54993 0.6703 0.69977 0.0
N339 N 0.57539 0.71811 0.64617 0.0
C340 C 0.62708 0.74453 0.66127 0.0
C341 C 0.60518 0.72369 0.63823 0.0
C342 C 0.5799 0.73602 0.67378 0.0
N343 N 0.61096 0.75204 0.68369 0.0
O344 O 0.52473 0.72585 0.63395 0.0
H345 H 0.61104 0.71387 0.61683 0.0
H346 H 0.56069 0.73773 0.68608 0.0
O347 O 0.51462 0.67192 0.66418 0.0
C348 C 0.53266 0.74935 0.61412 0.0
O349 O 0.5526 0.75376 0.58947 0.0
N350 N 0.54671 0.66342 0.61075 0.0
C351 C 0.54595 0.61509 0.57179 0.0
C352 C 0.53341 0.60848 0.60434 0.0
C353 C 0.5339 0.63301 0.62347 0.0
C354 C 0.56134 0.67079 0.58029 0.0
C355 C 0.56172 0.64708 0.56055 0.0
H356 H 0.52095 0.62631 0.64672 0.0
H357 H 0.57038 0.69472 0.57013 0.0
H358 H 0.46969 0.63033 0.63199 0.0
H359 H 0.44482 0.65741 0.54195 0.0
H360 H 0.65277 0.75348 0.66145 0.0
H361 H 0.52054 0.58405 0.61384 0.0
H362 H 0.57212 0.65333 0.53574 0.0
C363 C 0.32295 0.818 0.58207 0.0
C364 C 0.34302 0.80643 0.57281 0.0
N365 N 0.3683 0.81864 0.59398 0.0
N366 N 0.33523 0.83689 0.60932 0.0
C367 C 0.36305 0.83717 0.61544 0.0
H368 H 0.30091 0.81291 0.56958 0.0
Co369 Co 0.31894 0.85885 0.63378 0.0
C370 C 0.33674 0.85256 0.70358 0.0
O371 O 0.30983 0.84887 0.71632 0.0
N372 N 0.30298 0.88144 0.6579 0.0
C373 C 0.29866 0.91712 0.68987 0.0
C374 C 0.31968 0.9105 0.67293 0.0
C375 C 0.27197 0.8713 0.66562 0.0
N376 N 0.26855 0.89226 0.68535 0.0
O377 O 0.28377 0.81836 0.64717 0.0
H378 H 0.34562 0.92535 0.67307 0.0
H379 H 0.25233 0.84777 0.65913 0.0
O380 O 0.34239 0.85752 0.67238 0.0
C381 C 0.26063 0.80398 0.62659 0.0
O382 O 0.25828 0.82065 0.60174 0.0
N383 N 0.35306 0.89717 0.61854 0.0
C384 C 0.40356 0.93808 0.57759 0.0
C385 C 0.40952 0.93273 0.61062 0.0
C386 C 0.38374 0.91206 0.63091 0.0
C387 C 0.34659 0.90495 0.58797 0.0
C388 C 0.3716 0.92553 0.56696 0.0
H389 H 0.3889 0.9061 0.65529 0.0
H390 H 0.32208 0.89265 0.57871 0.0
H391 H 0.37926 0.8507 0.63547 0.0
H392 H 0.33936 0.79049 0.55202 0.0
H393 H 0.30529 0.93778 0.70577 0.0
H394 H 0.43388 0.94209 0.61974 0.0
H395 H 0.36609 0.92972 0.54183 0.0
C396 C 0.63091 0.15159 0.25466 0.0
C397 C 0.6294 0.15705 0.28885 0.0
C398 C 0.60634 0.14798 0.23278 0.0
C399 C 0.58029 0.15103 0.24526 0.0
C400 C 0.57938 0.1578 0.27956 0.0
C401 C 0.60357 0.16005 0.30104 0.0
C402 C 0.60772 0.13986 0.19656 0.0
C403 C 0.55271 0.1624 0.29368 0.0
C404 C 0.53046 0.16599 0.18128 0.0
C405 C 0.50283 0.13545 0.17891 0.0
C406 C 0.55553 0.17167 0.20341 0.0
C407 C 0.55336 0.14588 0.22273 0.0
C408 C 0.52548 0.11497 0.22033 0.0
C409 C 0.50032 0.11026 0.19883 0.0
C410 C 0.58437 0.20518 0.20597 0.0
C411 C 0.52263 0.08664 0.23977 0.0
H412 H 0.65069 0.14897 0.24523 0.0
H413 H 0.60233 0.16436 0.32742 0.0
H414 H 0.58622 0.11633 0.19039 0.0
H415 H 0.60721 0.15819 0.18006 0.0
H416 H 0.6297 0.13851 0.19078 0.0
H417 H 0.55709 0.1704 0.3202 0.0
H418 H 0.55018 0.18052 0.27873 0.0
H419 H 0.52943 0.13945 0.29218 0.0
H420 H 0.5324 0.18549 0.16586 0.0
H421 H 0.47919 0.08651 0.19665 0.0
H422 H 0.60621 0.20521 0.19674 0.0
H423 H 0.5888 0.21304 0.23249 0.0
H424 H 0.58117 0.22305 0.19126 0.0
H425 H 0.54304 0.08284 0.23342 0.0
H426 H 0.49969 0.06403 0.23453 0.0
H427 H 0.524 0.0916 0.26698 0.0
C428 C 0.85192 0.36366 0.22572 0.0
C429 C 0.83538 0.35279 0.19532 0.0
C430 C 0.85197 0.38906 0.2433 0.0
C431 C 0.83494 0.40374 0.23023 0.0
C432 C 0.8166 0.3915 0.20064 0.0
C433 C 0.81694 0.3661 0.18363 0.0
C434 C 0.87165 0.40129 0.27494 0.0
C435 C 0.79805 0.40637 0.18594 0.0
C436 C 0.82286 0.45836 0.28995 0.0
C437 C 0.84912 0.4887 0.28189 0.0
C438 C 0.81721 0.43054 0.27264 0.0
C439 C 0.83816 0.4332 0.24636 0.0
C440 C 0.86345 0.46401 0.23665 0.0
C441 C 0.86863 0.49142 0.25455 0.0
C442 C 0.78968 0.39822 0.28344 0.0
C443 C 0.88628 0.46788 0.20865 0.0
H444 H 0.86617 0.35346 0.23494 0.0
H445 H 0.80357 0.35737 0.16048 0.0
H446 H 0.89174 0.42626 0.27096 0.0
H447 H 0.85661 0.40207 0.2956 0.0
H448 H 0.88193 0.38607 0.28284 0.0
H449 H 0.78283 0.39237 0.1644 0.0
H450 H 0.78249 0.40836 0.20522 0.0
H451 H 0.81526 0.43109 0.17722 0.0
H452 H 0.80716 0.45619 0.31047 0.0
H453 H 0.88894 0.51475 0.2481 0.0
H454 H 0.79935 0.38349 0.29436 0.0
H455 H 0.77473 0.38485 0.26155 0.0
H456 H 0.77401 0.40057 0.30238 0.0
H457 H 0.90197 0.45826 0.21681 0.0
H458 H 0.90184 0.49349 0.20129 0.0
H459 H 0.87278 0.45392 0.18633 0.0
C460 C 0.63616 0.48407 0.23079 0.0
C461 C 0.64001 0.47607 0.19809 0.0
C462 C 0.61148 0.46141 0.25144 0.0
C463 C 0.59066 0.42984 0.23927 0.0
C464 C 0.59548 0.42125 0.20681 0.0
C465 C 0.61987 0.44457 0.1865 0.0
C466 C 0.60689 0.47164 0.28576 0.0
C467 C 0.57445 0.38762 0.19325 0.0
C468 C 0.53999 0.3666 0.30424 0.0
C469 C 0.51026 0.36545 0.30111 0.0
C470 C 0.56616 0.38669 0.28358 0.0
C471 C 0.56264 0.40652 0.25969 0.0
C472 C 0.53244 0.40485 0.25592 0.0
C473 C 0.50652 0.38407 0.27642 0.0
C474 C 0.59773 0.38722 0.28789 0.0
C475 C 0.52784 0.426 0.23113 0.0
H476 H 0.65165 0.50841 0.2398 0.0
H477 H 0.62313 0.43811 0.16144 0.0
H478 H 0.58285 0.46972 0.28728 0.0
H479 H 0.60757 0.45542 0.30511 0.0
H480 H 0.62561 0.4968 0.29179 0.0
H481 H 0.58301 0.38413 0.16861 0.0
H482 H 0.57382 0.36958 0.21109 0.0
H483 H 0.54936 0.38267 0.19032 0.0
H484 H 0.54291 0.35207 0.32316 0.0
H485 H 0.48372 0.38353 0.27409 0.0
H486 H 0.61619 0.41092 0.29799 0.0
H487 H 0.60661 0.38405 0.26336 0.0
H488 H 0.59557 0.36811 0.30521 0.0
H489 H 0.54442 0.45173 0.23728 0.0
H490 H 0.50275 0.42154 0.23101 0.0
H491 H 0.53395 0.42185 0.20555 0.0
C492 C 0.4938 0.87776 0.79594 0.0
C493 C 0.48922 0.85229 0.81681 0.0
C494 C 0.4679 0.87671 0.77842 0.0
C495 C 0.43665 0.84951 0.78176 0.0
C496 C 0.43191 0.82352 0.80243 0.0
C497 C 0.45828 0.82512 0.81948 0.0
C498 C 0.4739 0.90491 0.75662 0.0
C499 C 0.39894 0.79415 0.80674 0.0
C500 C 0.3659 0.86073 0.75793 0.0
C501 C 0.36042 0.84974 0.72484 0.0
C502 C 0.3902 0.86014 0.77716 0.0
C503 C 0.40917 0.84805 0.76289 0.0
C504 C 0.40272 0.83572 0.72992 0.0
C505 C 0.37841 0.83666 0.71139 0.0
C506 C 0.39642 0.87368 0.81217 0.0
C507 C 0.42192 0.8221 0.71389 0.0
H508 H 0.51755 0.89888 0.79377 0.0
H509 H 0.45458 0.80506 0.83504 0.0
H510 H 0.46701 0.89678 0.73041 0.0
H511 H 0.45867 0.91497 0.76513 0.0
H512 H 0.49953 0.92443 0.75702 0.0
H513 H 0.39919 0.77629 0.82427 0.0
H514 H 0.38177 0.80139 0.81637 0.0
H515 H 0.38967 0.78233 0.78218 0.0
H516 H 0.35194 0.87075 0.76842 0.0
H517 H 0.37335 0.82693 0.68632 0.0
H518 H 0.41881 0.89754 0.81229 0.0
H519 H 0.40013 0.85788 0.82966 0.0
H520 H 0.37632 0.87677 0.8216 0.0
H521 H 0.44752 0.84127 0.71148 0.0
H522 H 0.41271 0.81199 0.68865 0.0
H523 H 0.42127 0.80286 0.72986 0.0
C524 C 0.09793 0.50702 0.69518 0.0
C525 C 0.1258 0.50528 0.68885 0.0
C526 C 0.09848 0.52978 0.7177 0.0
C527 C 0.12736 0.55069 0.73491 0.0
C528 C 0.1552 0.54806 0.72965 0.0
C529 C 0.15421 0.5257 0.70629 0.0
C530 C 0.06853 0.53234 0.72201 0.0
C531 C 0.1862 0.56929 0.74819 0.0
C532 C 0.14188 0.63168 0.76663 0.0
C533 C 0.13386 0.62521 0.80055 0.0
C534 C 0.13929 0.60748 0.74488 0.0
C535 C 0.12887 0.57615 0.75745 0.0
C536 C 0.12042 0.56937 0.7916 0.0
C537 C 0.12273 0.59388 0.81267 0.0
C538 C 0.14802 0.61556 0.70852 0.0
C539 C 0.10966 0.53643 0.80604 0.0
H540 H 0.07605 0.49159 0.68138 0.0
H541 H 0.17577 0.52435 0.70143 0.0
H542 H 0.06179 0.5302 0.74881 0.0
H543 H 0.07337 0.55637 0.7134 0.0
H544 H 0.04771 0.51354 0.70773 0.0
H545 H 0.20494 0.56268 0.74299 0.0
H546 H 0.19578 0.59481 0.74088 0.0
H547 H 0.18167 0.56761 0.77553 0.0
H548 H 0.15039 0.65577 0.75704 0.0
H549 H 0.11656 0.58863 0.83887 0.0
H550 H 0.12774 0.59857 0.6924 0.0
H551 H 0.16913 0.61293 0.70219 0.0
H552 H 0.15393 0.64054 0.70244 0.0
H553 H 0.08809 0.51791 0.79254 0.0
H554 H 0.10377 0.53502 0.83307 0.0
H555 H 0.12896 0.5303 0.80266 0.0
C556 C 0.49722 0.62315 0.73899 0.0
C557 C 0.49279 0.64017 0.71297 0.0
C558 C 0.4707 0.59803 0.75558 0.0
C559 C 0.43901 0.58951 0.74568 0.0
C560 C 0.43442 0.60732 0.72025 0.0
C561 C 0.46133 0.63272 0.70458 0.0
C562 C 0.47666 0.57963 0.7826 0.0
C563 C 0.40106 0.59884 0.70878 0.0
C564 C 0.37426 0.50337 0.76516 0.0
C565 C 0.36084 0.5075 0.7946 0.0
C566 C 0.39896 0.53 0.74825 0.0
C567 C 0.41072 0.56142 0.76134 0.0
C568 C 0.39627 0.56579 0.79018 0.0
C569 C 0.37129 0.53886 0.80619 0.0
C570 C 0.41346 0.5243 0.71732 0.0
C571 C 0.40849 0.59868 0.8054 0.0
H572 H 0.52138 0.62871 0.74573 0.0
H573 H 0.45761 0.64615 0.68501 0.0
H574 H 0.46018 0.57463 0.80409 0.0
H575 H 0.47186 0.55609 0.77245 0.0
H576 H 0.50193 0.59288 0.79178 0.0
H577 H 0.40158 0.61382 0.68732 0.0
H578 H 0.3874 0.57313 0.70126 0.0
H579 H 0.38772 0.60203 0.72971 0.0
H580 H 0.36629 0.47928 0.7559 0.0
H581 H 0.36071 0.54241 0.82858 0.0
H582 H 0.43689 0.52628 0.72388 0.0
H583 H 0.41819 0.54269 0.69793 0.0
H584 H 0.39759 0.5 0.70653 0.0
H585 H 0.43298 0.6073 0.81555 0.0
H586 H 0.39285 0.59843 0.82607 0.0
H587 H 0.41039 0.61622 0.78616 0.0
C588 C 0.4268 0.97976 0.06765 0.0
C589 C 0.4257 0.00254 0.04649 0.0
C590 C 0.43318 0.95634 0.05483 0.0
C591 C 0.43777 0.95536 0.02002 0.0
C592 C 0.43226 0.97535 0.99822 0.0
C593 C 0.42655 -0.00103 0.01175 0.0
C594 C 0.43866 0.93527 0.07887 0.0
C595 C 0.436 0.97432 0.96083 0.0
C596 C 0.504 0.94023 0.99065 0.0
C597 C 0.48636 0.90831 0.97991 0.0
C598 C 0.48834 0.95544 0.00469 0.0
C599 C 0.45422 0.9384 0.00713 0.0
C600 C 0.43632 0.90601 0.99635 0.0
C601 C 0.45274 0.89119 0.98307 0.0
C602 C 0.5083 0.98992 0.0164 0.0
C603 C 0.39996 0.88743 0.99782 0.0
H604 H 0.42525 0.98188 0.09449 0.0
H605 H 0.42571 0.01636 0.9951 0.0
H606 H 0.42794 0.91029 0.06926 0.0
H607 H 0.46496 0.94492 0.08171 0.0
H608 H 0.42839 0.93461 0.10396 0.0
H609 H 0.42472 0.9864 0.94726 0.0
H610 H 0.46203 0.98685 0.95442 0.0
H611 H 0.42512 0.94912 0.95184 0.0
H612 H 0.53001 0.95321 0.988 0.0
H613 H 0.43929 0.86651 0.97422 0.0
H614 H 0.50251 0.99201 0.04282 0.0
H615 H 0.50247 0.00571 0.00122 0.0
H616 H 0.53459 -0.00098 0.01441 0.0
H617 H 0.3915 0.88843 0.02337 0.0
H618 H 0.38985 0.86177 0.99056 0.0
H619 H 0.39013 0.89861 0.9807 0.0
C620 C 0.97712 0.45959 0.04604 0.0
C621 C 0.95204 0.44932 0.06916 0.0
C622 C 0.99052 0.49014 0.03145 0.0
C623 C 0.97806 0.51055 0.03992 0.0
C624 C 0.95389 0.50094 0.06468 0.0
C625 C 0.94117 0.47033 0.07911 0.0
C626 C 0.01678 0.49981 0.00559 0.0
C627 C 0.93971 0.5217 0.07437 0.0
C628 C 0.03265 0.59407 0.00721 0.0
C629 C 0.02061 0.591 0.97462 0.0
C630 C 0.01707 0.56905 0.0304 0.0
C631 C 0.98891 0.54056 0.02059 0.0
C632 C 0.97456 0.53905 0.9892 0.0
C633 C 0.99077 0.56431 0.96639 0.0
C634 C 0.03255 0.57176 0.064 0.0
C635 C 0.94379 0.50945 0.97847 0.0
H636 H 0.98537 0.44319 0.03845 0.0
H637 H 0.92133 0.46208 0.09666 0.0
H638 H 0.00758 0.50161 0.98069 0.0
H639 H 0.03759 0.52384 0.01166 0.0
H640 H 0.02541 0.48223 0.00384 0.0
H641 H 0.93051 0.51668 0.10044 0.0
H642 H 0.95747 0.54777 0.07202 0.0
H643 H 0.91907 0.51608 0.05763 0.0
H644 H 0.05579 0.61467 0.01367 0.0
H645 H 0.98126 0.56221 0.94133 0.0
H646 H 0.04442 0.55694 0.06395 0.0
H647 H 0.01412 0.56241 0.0841 0.0
H648 H 0.051 0.59704 0.06994 0.0
H649 H 0.94878 0.48964 0.97308 0.0
H650 H 0.93336 0.51392 0.95566 0.0
H651 H 0.92563 0.50119 -0.00118 0.0
C652 C 0.43963 0.43195 0.92073 0.0
C653 C 0.4172 0.43728 0.93793 0.0
C654 C 0.46861 0.43834 0.936 0.0
C655 C 0.47511 0.45032 0.96911 0.0
C656 C 0.45177 0.45398 0.98718 0.0
C657 C 0.42316 0.44751 0.97134 0.0
C658 C 0.4929 0.43386 0.91619 0.0
C659 C 0.4578 0.46662 0.02262 0.0
C660 C 0.54081 0.45386 0.02409 0.0
C661 C 0.56385 0.48675 0.02245 0.0
C662 C 0.51251 0.44105 0.00513 0.0
C663 C 0.50719 0.46176 0.98428 0.0
C664 C 0.5312 0.49463 0.98115 0.0
C665 C 0.55938 0.50675 0.00028 0.0
C666 C 0.48762 0.40582 0.00882 0.0
C667 C 0.52632 0.51743 0.95911 0.0
H668 H 0.43497 0.42374 0.89501 0.0
H669 H 0.4063 0.4523 0.98465 0.0
H670 H 0.5138 0.45778 0.90996 0.0
H671 H 0.50212 0.42072 0.93119 0.0
H672 H 0.48254 0.42049 0.89253 0.0
H673 H 0.4362 0.46574 0.03396 0.0
H674 H 0.46517 0.45245 0.03853 0.0
H675 H 0.47782 0.49199 0.0229 0.0
H676 H 0.54469 0.43824 0.04073 0.0
H677 H 0.57727 0.53215 -0.001 0.0
H678 H 0.47842 0.39466 0.98399 0.0
H679 H 0.46681 0.40346 0.02333 0.0
H680 H 0.49742 0.39215 0.02197 0.0
H681 H 0.54851 0.54138 0.95697 0.0
H682 H 0.50682 0.52089 0.9696 0.0
H683 H 0.51872 0.50714 0.93368 0.0
C684 C 0.0927 0.53686 0.49904 0.0
C685 C 0.08107 0.50385 0.50327 0.0
C686 C 0.07777 0.54778 0.47675 0.0
C687 C 0.0503 0.525 0.45886 0.0
C688 C 0.03978 0.49169 0.46147 0.0
C689 C 0.05554 0.48147 0.48361 0.0
C690 C 0.08999 0.58349 0.47422 0.0
C691 C 0.01039 0.46671 0.44293 0.0
C692 C 0.98433 0.54483 0.44542 0.0
C693 C 0.98673 0.55132 0.41106 0.0
C694 C 0.00535 0.53685 0.46124 0.0
C695 C 0.02951 0.53546 0.44223 0.0
C696 C 0.03288 0.54305 0.40773 0.0
C697 C 0.01117 0.55068 0.39241 0.0
C698 C 0.00085 0.52871 0.49809 0.0
C699 C 0.05874 0.54222 0.38695 0.0
H700 H 0.11294 0.5541 0.51394 0.0
H701 H 0.04684 0.45596 0.48691 0.0
H702 H 0.09074 0.59076 0.44775 0.0
H703 H 0.07331 0.5893 0.48774 0.0
H704 H 0.11442 0.59804 0.48524 0.0
H705 H 0.00789 0.4424 0.44429 0.0
H706 H 0.98848 0.46534 0.45396 0.0
H707 H 0.01139 0.47353 0.41629 0.0
H708 H 0.96495 0.54448 0.45977 0.0
H709 H 0.01292 0.5556 0.3658 0.0
H710 H 0.02347 0.54446 0.51189 0.0
H711 H 0.99511 0.50345 0.50185 0.0
H712 H 0.98119 0.53155 0.50929 0.0
H713 H 0.06001 0.55165 0.36128 0.0
H714 H 0.05385 0.51707 0.38506 0.0
H715 H 0.08261 0.5566 0.3991 0.0
C716 C 0.50947 0.47385 0.4421 0.0
C717 C 0.47644 0.45087 0.44259 0.0
C718 C 0.52205 0.50148 0.462 0.0
C719 C 0.50117 0.50606 0.4833 0.0
C720 C 0.46776 0.48329 0.48369 0.0
C721 C 0.45574 0.45592 0.46321 0.0
C722 C 0.5578 0.52535 0.46082 0.0
C723 C 0.44488 0.48751 0.50629 0.0
C724 C 0.53734 0.56016 0.55879 0.0
C725 C 0.53792 0.58832 0.54815 0.0
C726 C 0.52556 0.53317 0.53783 0.0
C727 C 0.51446 0.5346 0.50543 0.0
C728 C 0.51599 0.56325 0.49412 0.0
C729 C 0.52749 0.5897 0.5157 0.0
C730 C 0.52427 0.50289 0.55062 0.0
C731 C 0.50472 0.56571 0.45953 0.0
H732 H 0.52586 0.46971 0.42703 0.0
H733 H 0.43025 0.43823 0.46368 0.0
H734 H 0.56874 0.52667 0.48562 0.0
H735 H 0.57049 0.51881 0.44184 0.0
H736 H 0.56198 0.54979 0.455 0.0
H737 H 0.41952 0.46782 0.50326 0.0
H738 H 0.45207 0.48812 0.53277 0.0
H739 H 0.44614 0.51083 0.50099 0.0
H740 H 0.54558 0.55906 0.58373 0.0
H741 H 0.52712 0.61106 0.5075 0.0
H742 H 0.53801 0.49577 0.53373 0.0
H743 H 0.49894 0.48279 0.5508 0.0
H744 H 0.53425 0.50591 0.57629 0.0
H745 H 0.51746 0.55945 0.4404 0.0
H746 H 0.50887 0.59023 0.45409 0.0
H747 H 0.47859 0.54822 0.45695 0.0
C748 C 0.55659 0.00183 0.45609 0.0
C749 C 0.55741 0.02584 0.43541 0.0
C750 C 0.53151 0.98557 0.47922 0.0
C751 C 0.50691 0.99366 0.48153 0.0
C752 C 0.5071 0.01712 0.46002 0.0
C753 C 0.5324 0.033 0.43736 0.0
C754 C 0.53183 0.96052 0.50184 0.0
C755 C 0.4812 0.02632 0.46173 0.0
C756 C 0.42674 0.9379 0.52201 0.0
C757 C 0.43019 0.95276 0.55315 0.0
C758 C 0.45192 0.95043 0.49878 0.0
C759 C 0.48124 0.97841 0.50699 0.0
C760 C 0.48513 0.99324 0.53861 0.0
C761 C 0.45948 0.98018 0.56139 0.0
C762 C 0.44695 0.93405 0.46526 0.0
C763 C 0.51615 0.02323 0.54807 0.0
H764 H 0.57585 0.99623 0.45463 0.0
H765 H 0.53327 0.05216 0.42219 0.0
H766 H 0.53463 0.9687 0.5282 0.0
H767 H 0.50858 0.93756 0.50004 0.0
H768 H 0.55171 0.95582 0.49565 0.0
H769 H 0.48417 0.04402 0.44212 0.0
H770 H 0.45704 0.00461 0.45886 0.0
H771 H 0.4818 0.03695 0.48654 0.0
H772 H 0.4044 0.91614 0.51593 0.0
H773 H 0.46218 0.9916 0.5855 0.0
H774 H 0.46631 0.92825 0.46059 0.0
H775 H 0.44837 0.9506 0.44507 0.0
H776 H 0.42326 0.91149 0.46351 0.0
H777 H 0.53685 0.01918 0.54482 0.0
H778 H 0.51591 0.03069 0.57432 0.0
H779 H 0.52023 0.04336 0.53128 0.0
C780 C 0.36829 0.23817 0.29131 0.0
C781 C 0.38774 0.23851 0.31763 0.0
C782 C 0.36398 0.21962 0.26257 0.0
C783 C 0.37953 0.20117 0.26039 0.0
C784 C 0.39691 0.19938 0.28812 0.0
C785 C 0.40075 0.21808 0.31644 0.0
C786 C 0.34498 0.22182 0.23362 0.0
C787 C 0.41369 0.1798 0.28691 0.0
C788 C 0.36526 0.14183 0.19072 0.0
C789 C 0.39226 0.16015 0.17041 0.0
C790 C 0.35975 0.15524 0.21942 0.0
C791 C 0.38186 0.18763 0.22788 0.0
C792 C 0.40828 0.20663 0.20659 0.0
C793 C 0.41307 0.19266 0.17808 0.0
C794 C 0.33121 0.13438 0.24144 0.0
C795 C 0.43234 0.24137 0.21467 0.0
H796 H 0.35827 0.25402 0.2922 0.0
H797 H 0.41526 0.21792 0.33714 0.0
H798 H 0.36186 0.23733 0.21384 0.0
H799 H 0.3292 0.19771 0.2225 0.0
H800 H 0.32988 0.23232 0.24128 0.0
H801 H 0.42308 0.17811 0.31178 0.0
H802 H 0.39701 0.15509 0.27771 0.0
H803 H 0.43424 0.19116 0.2692 0.0
H804 H 0.34917 0.11665 0.18494 0.0
H805 H 0.43349 0.20712 0.16199 0.0
H806 H 0.31827 0.14731 0.24846 0.0
H807 H 0.33974 0.12875 0.26491 0.0
H808 H 0.31397 0.11133 0.22907 0.0
H809 H 0.41974 0.25518 0.21889 0.0
H810 H 0.45039 0.25332 0.19444 0.0
H811 H 0.44533 0.24257 0.23808 0.0
C812 C 0.77975 0.18329 0.30369 0.0
C813 C 0.76424 0.15003 0.3095 0.0
C814 C 0.80343 0.19751 0.27902 0.0
C815 C 0.81212 0.17799 0.26015 0.0
C816 C 0.79989 0.14539 0.26921 0.0
C817 C 0.77559 0.13158 0.29354 0.0
C818 C 0.81598 0.23252 0.2704 0.0
C819 C 0.81007 0.12432 0.25113 0.0
C820 C 0.81896 0.20461 0.17123 0.0
C821 C 0.85136 0.22878 0.16995 0.0
C822 C 0.80636 0.18522 0.19952 0.0
C823 C 0.82699 0.18976 0.22688 0.0
C824 C 0.8606 0.21088 0.22371 0.0
C825 C 0.87247 0.23055 0.19522 0.0
C826 C 0.77034 0.16269 0.20152 0.0
C827 C 0.88362 0.21504 0.25151 0.0
H828 H 0.77117 0.19771 0.31597 0.0
H829 H 0.76411 0.10598 0.29865 0.0
H830 H 0.84259 0.24557 0.26813 0.0
H831 H 0.80599 0.23418 0.24591 0.0
H832 H 0.80918 0.24496 0.28944 0.0
H833 H 0.80732 0.10431 0.26741 0.0
H834 H 0.79457 0.11352 0.22883 0.0
H835 H 0.83547 0.1384 0.24258 0.0
H836 H 0.80295 0.20265 0.15109 0.0
H837 H 0.89768 0.24895 0.19405 0.0
H838 H 0.75981 0.17188 0.22028 0.0
H839 H 0.7649 0.13839 0.20968 0.0
H840 H 0.75819 0.16034 0.17717 0.0
H841 H 0.88588 0.23416 0.26881 0.0
H842 H 0.90801 0.22258 0.24147 0.0
H843 H 0.87498 0.19249 0.26608 0.0
C844 C 0.84243 0.64438 0.30009 0.0
C845 C 0.839 0.61358 0.29793 0.0
C846 C 0.82537 0.65362 0.27852 0.0
C847 C 0.80426 0.63136 0.25457 0.0
C848 C 0.80139 0.60053 0.25176 0.0
C849 C 0.81888 0.59213 0.2734 0.0
C850 C 0.82919 0.68669 0.28222 0.0
C851 C 0.77934 0.57604 0.22627 0.0
C852 C 0.72846 0.62151 0.2178 0.0
C853 C 0.73723 0.62601 0.18394 0.0
C854 C 0.75152 0.62778 0.24256 0.0
C855 C 0.78382 0.63893 0.23296 0.0
C856 C 0.79356 0.64897 0.19965 0.0
C857 C 0.76997 0.64231 0.17538 0.0
C858 C 0.74032 0.61763 0.27804 0.0
C859 C 0.82804 0.6622 0.18871 0.0
H860 H 0.85778 0.66096 0.31922 0.0
H861 H 0.81677 0.56863 0.27114 0.0
H862 H 0.82902 0.69718 0.25755 0.0
H863 H 0.8087 0.68481 0.29698 0.0
H864 H 0.85186 0.70348 0.29549 0.0
H865 H 0.78035 0.55339 0.22713 0.0
H866 H 0.75406 0.56998 0.23078 0.0
H867 H 0.78601 0.58621 0.20069 0.0
H868 H 0.70321 0.60924 0.22467 0.0
H869 H 0.77674 0.64646 0.14921 0.0
H870 H 0.75822 0.6347 0.29617 0.0
H871 H 0.73755 0.59352 0.28261 0.0
H872 H 0.71672 0.61604 0.2828 0.0
H873 H 0.84505 0.67828 0.20809 0.0
H874 H 0.83303 0.67574 0.16484 0.0
H875 H 0.83266 0.64193 0.18483 0.0
C876 C 0.65452 0.86019 0.84535 0.0
C877 C 0.63663 0.87541 0.839 0.0
C878 C 0.66247 0.84597 0.81909 0.0
C879 C 0.65181 0.84698 0.78634 0.0
C880 C 0.639 0.86732 0.77937 0.0
C881 C 0.63149 0.88132 0.806 0.0
C882 C 0.67782 0.82595 0.82716 0.0
C883 C 0.62817 0.86994 0.74466 0.0
C884 C 0.65469 0.801 0.7104 0.0
C885 C 0.62373 0.77376 0.71162 0.0
C886 C 0.66548 0.82434 0.73585 0.0
C887 C 0.64456 0.82035 0.7627 0.0
C888 C 0.61412 0.7918 0.76504 0.0
C889 C 0.60426 0.76884 0.73958 0.0
C890 C 0.69839 0.85392 0.73277 0.0
C891 C 0.59098 0.78621 0.79343 0.0
H892 H 0.65861 0.85583 0.87099 0.0
H893 H 0.61784 0.8934 0.80139 0.0
H894 H 0.65869 0.80047 0.83066 0.0
H895 H 0.69365 0.82681 0.80643 0.0
H896 H 0.69217 0.83429 0.85057 0.0
H897 H 0.62411 0.89075 0.74243 0.0
H898 H 0.64623 0.87251 0.72576 0.0
H899 H 0.60519 0.84761 0.73882 0.0
H900 H 0.66992 0.80485 0.68887 0.0
H901 H 0.58076 0.74732 0.74107 0.0
H902 H 0.70901 0.86396 0.75759 0.0
H903 H 0.69633 0.87272 0.71864 0.0
H904 H 0.71514 0.84845 0.7188 0.0
H905 H 0.6028 0.78816 0.81783 0.0
H906 H 0.56882 0.76216 0.79206 0.0
H907 H 0.58372 0.80487 0.79288 0.0
C908 C 0.13072 0.78721 0.81222 0.0
C909 C 0.14524 0.76864 0.81863 0.0
C910 C 0.14582 0.81442 0.79134 0.0
C911 C 0.17537 0.82215 0.7757 0.0
C912 C 0.18994 0.80321 0.78223 0.0
C913 C 0.17485 0.777 0.80391 0.0
C914 C 0.12964 0.83412 0.78574 0.0
C915 C 0.22116 0.81001 0.76572 0.0
C916 C 0.21003 0.8599 0.69399 0.0
C917 C 0.24034 0.88414 0.70512 0.0
C918 C 0.1854 0.8418 0.71688 0.0
C919 C 0.19126 0.84891 0.75133 0.0
C920 C 0.2189 0.87771 0.76154 0.0
C921 C 0.24354 0.89493 0.73828 0.0
C922 C 0.15547 0.81211 0.70476 0.0
C923 C 0.22466 0.88746 0.79784 0.0
H924 H 0.1077 0.7805 0.82368 0.0
H925 H 0.18565 0.76217 0.80847 0.0
H926 H 0.14708 0.85942 0.77885 0.0
H927 H 0.11181 0.82312 0.76521 0.0
H928 H 0.1163 0.83412 0.80846 0.0
H929 H 0.22835 0.79201 0.77257 0.0
H930 H 0.2188 0.80991 0.73812 0.0
H931 H 0.24091 0.83418 0.7732 0.0
H932 H 0.20681 0.85268 0.66796 0.0
H933 H 0.26638 0.9144 0.74709 0.0
H934 H 0.13385 0.80924 0.71798 0.0
H935 H 0.15759 0.79052 0.71017 0.0
H936 H 0.15195 0.81301 0.6774 0.0
H937 H 0.20172 0.8815 0.81052 0.0
H938 H 0.24196 0.91366 0.80059 0.0
H939 H 0.23495 0.87408 0.81062 0.0
C940 C 0.12132 0.38503 0.70593 0.0
C941 C 0.12465 0.37649 0.67336 0.0
C942 C 0.13508 0.37775 0.73296 0.0
C943 C 0.15262 0.36171 0.72693 0.0
C944 C 0.15172 0.34876 0.69487 0.0
C945 C 0.13769 0.35641 0.66822 0.0
C946 C 0.1348 0.39139 0.7669 0.0
C947 C 0.16921 0.33056 0.68776 0.0
C948 C 0.23141 0.40243 0.77371 0.0
C949 C 0.22454 0.3824 0.80159 0.0
C950 C 0.20864 0.39494 0.74843 0.0
C951 C 0.17819 0.36647 0.75097 0.0
C952 C 0.17177 0.34504 0.778 0.0
C953 C 0.19508 0.35335 0.80316 0.0
C954 C 0.21672 0.41843 0.71983 0.0
C955 C 0.13983 0.31429 0.78137 0.0
H956 H 0.1108 0.40023 0.7097 0.0
H957 H 0.14009 0.3497 0.64295 0.0
H958 H 0.13113 0.37391 0.78695 0.0
H959 H 0.15842 0.41344 0.77132 0.0
H960 H 0.11563 0.39793 0.76881 0.0
H961 H 0.15982 0.31563 0.66482 0.0
H962 H 0.19521 0.348 0.68395 0.0
H963 H 0.16704 0.3148 0.7091 0.0
H964 H 0.25452 0.42441 0.77201 0.0
H965 H 0.18973 0.33779 0.82471 0.0
H966 H 0.20049 0.42871 0.72044 0.0
H967 H 0.21299 0.40587 0.69555 0.0
H968 H 0.24203 0.43863 0.72089 0.0
H969 H 0.12202 0.3198 0.79275 0.0
H970 H 0.14181 0.29663 0.79773 0.0
H971 H 0.13035 0.30301 0.75664 0.0
C972 C 0.51859 0.25338 0.08996 0.0
C973 C 0.50309 0.23738 0.06039 0.0
C974 C 0.54132 0.28638 0.08986 0.0
C975 C 0.54882 0.30374 0.05944 0.0
C976 C 0.53245 0.28802 0.02974 0.0
C977 C 0.50968 0.25499 0.03058 0.0
C978 C 0.558 0.30245 0.12215 0.0
C979 C 0.53976 0.30585 0.99688 0.0
C980 C 0.59168 0.39475 0.06615 0.0
C981 C 0.62398 0.40306 0.06169 0.0
C982 C 0.56685 0.36258 0.0647 0.0
C983 C 0.57454 0.33813 0.05866 0.0
C984 C 0.60703 0.34643 0.05317 0.0
C985 C 0.6314 0.37889 0.05466 0.0
C986 C 0.53251 0.35474 0.07043 0.0
C987 C 0.61612 0.32095 0.04665 0.0
H988 H 0.51347 0.23996 0.11313 0.0
H989 H 0.49784 0.24279 0.00763 0.0
H990 H 0.58421 0.31128 0.12 0.0
H991 H 0.5552 0.32369 0.12713 0.0
H992 H 0.5484 0.28586 0.14389 0.0
H993 H 0.52366 0.29057 0.97645 0.0
H994 H 0.53725 0.32754 -0.00054 0.0
H995 H 0.56509 0.31424 0.98959 0.0
H996 H 0.58582 0.41349 0.07089 0.0
H997 H 0.65636 0.3853 0.05141 0.0
H998 H 0.52303 0.34028 0.0936 0.0
H999 H 0.51692 0.33997 0.0495 0.0
H1000 H 0.53046 0.37675 0.07283 0.0
H1001 H 0.60986 0.30487 0.06872 0.0
H1002 H 0.64226 0.33151 0.0414 0.0
H1003 H 0.60225 0.30576 0.0251 0.0
C1004 C 0.73857 0.21291 0.05728 0.0
C1005 C 0.75303 0.23981 0.07846 0.0
C1006 C 0.705 0.19569 0.0527 0.0
C1007 C 0.68563 0.20607 0.0692 0.0
C1008 C 0.69999 0.23242 0.09161 0.0
C1009 C 0.73345 0.24877 0.09619 0.0
C1010 C 0.69039 0.16718 0.02927 0.0
C1011 C 0.68021 0.24442 0.10948 0.0
C1012 C 0.60756 0.1913 0.02947 0.0
C1013 C 0.5846 0.16775 0.05061 0.0
C1014 C 0.64058 0.20343 0.03475 0.0
C1015 C 0.65074 0.19108 0.06137 0.0
C1016 C 0.62753 0.1662 0.08185 0.0
C1017 C 0.59468 0.15513 0.0765 0.0
C1018 C 0.6646 0.23046 0.01281 0.0
C1019 C 0.63741 0.15189 0.1099 0.0
H1020 H 0.75355 0.20571 0.04372 0.0
H1021 H 0.7444 0.26956 0.1126 0.0
H1022 H 0.66958 0.14627 0.04134 0.0
H1023 H 0.68122 0.17325 0.00657 0.0
H1024 H 0.70812 0.15994 0.02146 0.0
H1025 H 0.69491 0.26443 0.12707 0.0
H1026 H 0.66906 0.25308 0.09089 0.0
H1027 H 0.66034 0.22454 0.12369 0.0
H1028 H 0.59967 0.20125 0.00972 0.0
H1029 H 0.57678 0.13668 0.09262 0.0
H1030 H 0.68164 0.22385 0.0015 0.0
H1031 H 0.67901 0.25236 0.0282 0.0
H1032 H 0.65274 0.23647 0.99244 0.0
H1033 H 0.65482 0.1448 0.10069 0.0
H1034 H 0.61643 0.13044 0.12112 0.0
H1035 H 0.64969 0.17017 0.12978 0.0
C1036 C 0.83468 0.43555 0.0992 0.0
C1037 C 0.81114 0.40921 0.08092 0.0
C1038 C 0.83026 0.46148 0.10797 0.0
C1039 C 0.80165 0.46099 0.09821 0.0
C1040 C 0.77784 0.43447 0.07978 0.0
C1041 C 0.78291 0.40898 0.07137 0.0
C1042 C 0.85605 0.48919 0.1278 0.0
C1043 C 0.74673 0.43282 0.06923 0.0
C1044 C 0.76442 0.50646 0.13695 0.0
C1045 C 0.76893 0.52813 0.11113 0.0
C1046 C 0.77773 0.48626 0.13482 0.0
C1047 C 0.79619 0.48814 0.10637 0.0
C1048 C 0.80414 0.51276 0.08245 0.0
C1049 C 0.79047 0.53258 0.08518 0.0
C1050 C 0.77006 0.46143 0.16179 0.0
C1051 C 0.82414 0.51591 0.05201 0.0
H1052 H 0.85666 0.43601 0.1065 0.0
H1053 H 0.76436 0.38848 0.0579 0.0
H1054 H 0.86394 0.51226 0.11449 0.0
H1055 H 0.84618 0.49088 0.15232 0.0
H1056 H 0.87742 0.48644 0.13229 0.0
H1057 H 0.73073 0.41055 0.05494 0.0
H1058 H 0.73345 0.43363 0.0916 0.0
H1059 H 0.75199 0.45394 0.05345 0.0
H1060 H 0.74851 0.50355 0.15759 0.0
H1061 H 0.79454 0.54965 0.06538 0.0
H1062 H 0.7926 0.4669 0.17493 0.0
H1063 H 0.75974 0.43697 0.15078 0.0
H1064 H 0.75282 0.46111 0.18057 0.0
H1065 H 0.84522 0.5134 0.05883 0.0
H1066 H 0.83287 0.5394 0.03917 0.0
H1067 H 0.80927 0.49635 0.03408 0.0
C1068 C 0.75032 0.48771 0.44058 0.0
C1069 C 0.76542 0.50359 0.41089 0.0
C1070 C 0.71665 0.47006 0.44302 0.0
C1071 C 0.69769 0.46901 0.41538 0.0
C1072 C 0.71282 0.4858 0.38563 0.0
C1073 C 0.7466 0.50258 0.38359 0.0
C1074 C 0.70136 0.45184 0.47488 0.0
C1075 C 0.69334 0.48582 0.35595 0.0
C1076 C 0.61203 0.39878 0.41109 0.0
C1077 C 0.59483 0.4121 0.42578 0.0
C1078 C 0.64557 0.41713 0.40724 0.0
C1079 C 0.66202 0.44978 0.41758 0.0
C1080 C 0.64453 0.46361 0.43146 0.0
C1081 C 0.61112 0.44443 0.43579 0.0
C1082 C 0.66347 0.40136 0.39295 0.0
C1083 C 0.66112 0.49854 0.44196 0.0
H1084 H 0.76483 0.48813 0.46158 0.0
H1085 H 0.7583 0.51495 0.36064 0.0
H1086 H 0.68537 0.46006 0.48565 0.0
H1087 H 0.68617 0.42575 0.46935 0.0
H1088 H 0.71956 0.45502 0.49398 0.0
H1089 H 0.70882 0.50157 0.33541 0.0
H1090 H 0.67855 0.46098 0.34612 0.0
H1091 H 0.67645 0.49414 0.36368 0.0
H1092 H 0.59927 0.3737 0.40353 0.0
H1093 H 0.59758 0.45474 0.44663 0.0
H1094 H 0.6811 0.40227 0.41155 0.0
H1095 H 0.67729 0.41465 0.37049 0.0
H1096 H 0.64702 0.3758 0.38593 0.0
H1097 H 0.67797 0.50265 0.46286 0.0
H1098 H 0.64374 0.5061 0.45016 0.0
H1099 H 0.67563 0.5142 0.42093 0.0
C1100 C 0.60378 0.21967 0.41289 0.0
C1101 C 0.59202 0.18864 0.42574 0.0
C1102 C 0.58464 0.23421 0.4131 0.0
C1103 C 0.55272 0.21679 0.4256 0.0
C1104 C 0.54048 0.18505 0.43778 0.0
C1105 C 0.5605 0.17151 0.43812 0.0
C1106 C 0.59876 0.26838 0.40058 0.0
C1107 C 0.50631 0.16545 0.45042 0.0
C1108 C 0.51491 0.26515 0.45625 0.0
C1109 C 0.49786 0.26534 0.4279 0.0
C1110 C 0.53263 0.24912 0.45594 0.0
C1111 C 0.53255 0.23223 0.42685 0.0
C1112 C 0.51417 0.23115 0.39866 0.0
C1113 C 0.49735 0.24812 0.39936 0.0
C1114 C 0.55245 0.25132 0.48624 0.0
C1115 C 0.51283 0.21266 0.36753 0.0
H1116 H 0.62826 0.23279 0.40348 0.0
H1117 H 0.55141 0.14727 0.44753 0.0
H1118 H 0.58419 0.26921 0.37948 0.0
H1119 H 0.59803 0.28392 0.42074 0.0
H1120 H 0.62411 0.27866 0.39208 0.0
H1121 H 0.50004 0.14054 0.45741 0.0
H1122 H 0.50292 0.17729 0.47263 0.0
H1123 H 0.48917 0.16413 0.43097 0.0
H1124 H 0.51559 0.27873 0.47821 0.0
H1125 H 0.484 0.24814 0.37747 0.0
H1126 H 0.57835 0.26349 0.47937 0.0
H1127 H 0.54564 0.22685 0.49529 0.0
H1128 H 0.54939 0.26489 0.50708 0.0
H1129 H 0.53695 0.22404 0.35559 0.0
H1130 H 0.49517 0.21187 0.34899 0.0
H1131 H 0.50623 0.1876 0.37408 0.0
C1132 C 0.78474 0.39357 0.39637 0.0
C1133 C 0.81705 0.41093 0.4064 0.0
C1134 C 0.76874 0.35989 0.39346 0.0
C1135 C 0.78579 0.34338 0.39997 0.0
C1136 C 0.81881 0.361 0.40881 0.0
C1137 C 0.83394 0.39457 0.41232 0.0
C1138 C 0.73336 0.34192 0.3846 0.0
C1139 C 0.838 0.34435 0.4151 0.0
C1140 C 0.73887 0.25702 0.43042 0.0
C1141 C 0.73484 0.23964 0.40092 0.0
C1142 C 0.75517 0.29077 0.4303 0.0
C1143 C 0.76852 0.30757 0.40007 0.0
C1144 C 0.76521 0.29017 0.37028 0.0
C1145 C 0.74795 0.2563 0.37097 0.0
C1146 C 0.75758 0.30842 0.46244 0.0
C1147 C 0.77982 0.30732 0.33777 0.0
H1148 H 0.77175 0.40633 0.39186 0.0
H1149 H 0.85912 0.40815 0.41943 0.0
H1150 H 0.72917 0.32651 0.36235 0.0
H1151 H 0.71932 0.32577 0.40554 0.0
H1152 H 0.7239 0.35843 0.37935 0.0
H1153 H 0.86405 0.36174 0.41887 0.0
H1154 H 0.82865 0.32894 0.43768 0.0
H1155 H 0.83531 0.32838 0.39377 0.0
H1156 H 0.7284 0.24421 0.45354 0.0
H1157 H 0.7449 0.24284 0.34815 0.0
H1158 H 0.74668 0.32392 0.45901 0.0
H1159 H 0.78325 0.32442 0.46921 0.0
H1160 H 0.74527 0.29172 0.48362 0.0
H1161 H 0.76858 0.32168 0.33006 0.0
H1162 H 0.7766 0.29029 0.3173 0.0
H1163 H 0.80597 0.3244 0.3411 0.0
C1164 C 0.43619 0.58584 0.89396 0.0
C1165 C 0.41023 0.58206 0.91367 0.0
C1166 C 0.46201 0.61662 0.88624 0.0
C1167 C 0.46164 0.64419 0.89825 0.0
C1168 C 0.43546 0.6405 0.91802 0.0
C1169 C 0.4102 0.60953 0.92557 0.0
C1170 C 0.48945 0.61967 0.86504 0.0
C1171 C 0.43385 0.66936 0.93077 0.0
C1172 C 0.53389 0.72629 0.91301 0.0
C1173 C 0.52907 0.7445 0.88865 0.0
C1174 C 0.5138 0.69277 0.91458 0.0
C1175 C 0.48859 0.67719 0.89101 0.0
C1176 C 0.48627 0.69498 0.86394 0.0
C1177 C 0.50673 0.7285 0.86298 0.0
C1178 C 0.51743 0.67464 0.94356 0.0
C1179 C 0.46102 0.67906 0.83707 0.0
H1180 H 0.43639 0.56471 0.8847 0.0
H1181 H 0.38993 0.60686 0.94009 0.0
H1182 H 0.48936 0.63054 0.84058 0.0
H1183 H 0.51292 0.63595 0.87714 0.0
H1184 H 0.48773 0.59599 0.86053 0.0
H1185 H 0.41195 0.66236 0.94603 0.0
H1186 H 0.45539 0.68483 0.94623 0.0
H1187 H 0.43389 0.68411 0.90935 0.0
H1188 H 0.5515 0.73838 0.93264 0.0
H1189 H 0.50356 0.7424 0.84349 0.0
H1190 H 0.51479 0.6514 0.93513 0.0
H1191 H 0.49814 0.66914 0.96215 0.0
H1192 H 0.54112 0.68885 0.95621 0.0
H1193 H 0.46789 0.66479 0.8207 0.0
H1194 H 0.45882 0.6969 0.82122 0.0
H1195 H 0.43705 0.66238 0.84802 0.0
C1196 C 0.25307 0.74299 0.92882 0.0
C1197 C 0.23458 0.73063 0.89971 0.0
C1198 C 0.28569 0.75183 0.92944 0.0
C1199 C 0.30037 0.7488 0.90003 0.0
C1200 C 0.28239 0.73816 0.87 0.0
C1201 C 0.24953 0.72887 0.87026 0.0
C1202 C 0.30401 0.76296 0.96201 0.0
C1203 C 0.29758 0.73555 0.83796 0.0
C1204 C 0.39171 0.79171 0.90247 0.0
C1205 C 0.39738 0.76649 0.91104 0.0
C1206 C 0.36034 0.78614 0.89752 0.0
C1207 C 0.33386 0.75467 0.90165 0.0
C1208 C 0.33926 0.72902 0.90985 0.0
C1209 C 0.37089 0.73519 0.91417 0.0
C1210 C 0.35555 0.81401 0.88822 0.0
C1211 C 0.31153 0.69514 0.9149 0.0
H1212 H 0.24174 0.74445 0.9517 0.0
H1213 H 0.23539 0.71955 0.84761 0.0
H1214 H 0.31145 0.74549 0.97016 0.0
H1215 H 0.32629 0.78658 0.95861 0.0
H1216 H 0.28945 0.76531 0.98226 0.0
H1217 H 0.28116 0.72965 0.81618 0.0
H1218 H 0.32013 0.75851 0.83283 0.0
H1219 H 0.30414 0.7165 0.8405 0.0
H1220 H 0.41162 0.81606 0.90008 0.0
H1221 H 0.37471 0.71533 0.92006 0.0
H1222 H 0.33891 0.81596 0.9061 0.0
H1223 H 0.34433 0.80976 0.86309 0.0
H1224 H 0.37858 0.83735 0.88787 0.0
H1225 H 0.29628 0.69474 0.936 0.0
H1226 H 0.31982 0.67771 0.92034 0.0
H1227 H 0.29607 0.68691 0.89228 0.0
C1228 C 0.16554 0.56783 0.90052 0.0
C1229 C 0.17706 0.59039 0.92659 0.0
C1230 C 0.17701 0.5463 0.89601 0.0
C1231 C 0.20126 0.54805 0.91758 0.0
C1232 C 0.21289 0.57074 0.94406 0.0
C1233 C 0.20036 0.59143 0.94846 0.0
C1234 C 0.16356 0.52246 0.86754 0.0
C1235 C 0.23912 0.5737 0.96723 0.0
C1236 C 0.21711 0.47817 0.9248 0.0
C1237 C 0.24418 0.48848 0.90416 0.0
C1238 C 0.20237 0.49695 0.92874 0.0
C1239 C 0.21527 0.5269 0.91199 0.0
C1240 C 0.24198 0.53697 0.89035 0.0
C1241 C 0.25603 0.51757 0.88657 0.0
C1242 C 0.17312 0.48492 0.95098 0.0
C1243 C 0.2561 0.56856 0.87173 0.0
H1244 H 0.14733 0.56686 0.88373 0.0
H1245 H 0.20949 0.60914 0.96836 0.0
H1246 H 0.17772 0.5339 0.84459 0.0
H1247 H 0.16464 0.50026 0.87257 0.0
H1248 H 0.13809 0.51542 0.86246 0.0
H1249 H 0.24522 0.59232 0.98681 0.0
H1250 H 0.23153 0.55026 0.9796 0.0
H1251 H 0.26121 0.58006 0.95261 0.0
H1252 H 0.20765 0.45558 0.93824 0.0
H1253 H 0.27693 0.52573 0.87054 0.0
H1254 H 0.1528 0.48393 0.93664 0.0
H1255 H 0.17841 0.50188 0.97207 0.0
H1256 H 0.16535 0.46059 0.96131 0.0
H1257 H 0.23748 0.56869 0.85535 0.0
H1258 H 0.27711 0.57306 0.85607 0.0
H1259 H 0.26389 0.58875 0.88973 0.0
C1260 C 0.40858 0.5803 0.61021 0.0
C1261 C 0.4144 0.60757 0.59161 0.0
C1262 C 0.37709 0.55486 0.61568 0.0
C1263 C 0.35079 0.55685 0.60238 0.0
C1264 C 0.35649 0.5841 0.58329 0.0
C1265 C 0.38819 0.60909 0.57813 0.0
C1266 C 0.37199 0.52613 0.63599 0.0
C1267 C 0.32902 0.58706 0.56856 0.0
C1268 C 0.26838 0.48522 0.58553 0.0
C1269 C 0.24981 0.4894 0.61002 0.0
C1270 C 0.30187 0.50566 0.58415 0.0
C1271 C 0.31711 0.5306 0.60803 0.0
C1272 C 0.29896 0.5328 0.63479 0.0
C1273 C 0.26545 0.51215 0.63547 0.0
C1274 C 0.32045 0.50228 0.55545 0.0
C1275 C 0.31455 0.55857 0.66121 0.0
H1276 H 0.42868 0.57873 0.62044 0.0
H1277 H 0.39239 0.63022 0.56423 0.0
H1278 H 0.36155 0.52647 0.66064 0.0
H1279 H 0.35466 0.5033 0.62343 0.0
H1280 H 0.39487 0.52606 0.64021 0.0
H1281 H 0.33758 0.60959 0.55392 0.0
H1282 H 0.31427 0.56623 0.55195 0.0
H1283 H 0.31301 0.58667 0.58883 0.0
H1284 H 0.25657 0.46743 0.566 0.0
H1285 H 0.25134 0.51526 0.65476 0.0
H1286 H 0.34306 0.50379 0.56449 0.0
H1287 H 0.32726 0.52236 0.53754 0.0
H1288 H 0.30611 0.47916 0.54184 0.0
H1289 H 0.33635 0.55907 0.67124 0.0
H1290 H 0.2979 0.55482 0.68227 0.0
H1291 H 0.32232 0.58252 0.64995 0.0
C1292 C 0.39058 0.78284 0.58323 0.0
C1293 C 0.39452 0.81203 0.59539 0.0
C1294 C 0.41511 0.77516 0.58679 0.0
C1295 C 0.44419 0.79712 0.6031 0.0
C1296 C 0.44854 0.82681 0.61498 0.0
C1297 C 0.42379 0.83402 0.61072 0.0
C1298 C 0.40961 0.74321 0.57377 0.0
C1299 C 0.47913 0.85077 0.63264 0.0
C1300 C 0.49118 0.75994 0.63941 0.0
C1301 C 0.5138 0.76611 0.61407 0.0
C1302 C 0.46914 0.77099 0.63677 0.0
C1303 C 0.46976 0.78862 0.60811 0.0
C1304 C 0.49365 0.79644 0.58335 0.0
C1305 C 0.51548 0.78517 0.58668 0.0
C1306 C 0.44439 0.76272 0.66402 0.0
C1307 C 0.4951 0.81526 0.55248 0.0
H1308 H 0.36797 0.76555 0.57177 0.0
H1309 H 0.42739 0.85692 0.61961 0.0
H1310 H 0.42909 0.74713 0.55608 0.0
H1311 H 0.41039 0.7285 0.59478 0.0
H1312 H 0.38605 0.72926 0.56081 0.0
H1313 H 0.47866 0.87277 0.64046 0.0
H1314 H 0.48284 0.83951 0.65517 0.0
H1315 H 0.50019 0.85796 0.61602 0.0
H1316 H 0.48989 0.74543 0.66079 0.0
H1317 H 0.53289 0.79007 0.56699 0.0
H1318 H 0.41976 0.74794 0.65361 0.0
H1319 H 0.44619 0.78509 0.67416 0.0
H1320 H 0.44747 0.74923 0.68493 0.0
H1321 H 0.47324 0.80079 0.53706 0.0
H1322 H 0.51667 0.82157 0.53693 0.0
H1323 H 0.49538 0.83779 0.55951 0.0
C1324 C 0.24649 0.75034 0.65057 0.0
C1325 C 0.24406 0.76846 0.62438 0.0
C1326 C 0.23732 0.71783 0.64594 0.0
C1327 C 0.22603 0.70341 0.61424 0.0
C1328 C 0.22151 0.72095 0.58844 0.0
C1329 C 0.2303 0.7532 0.59394 0.0
C1330 C 0.2413 0.69942 0.6744 0.0
C1331 C 0.20954 0.70641 0.55428 0.0
C1332 C 0.24282 0.63698 0.58852 0.0
C1333 C 0.2127 0.60937 0.59343 0.0
C1334 C 0.24748 0.66775 0.59533 0.0
C1335 C 0.22132 0.6709 0.60725 0.0
C1336 C 0.19081 0.64313 0.61203 0.0
C1337 C 0.18686 0.61271 0.60501 0.0
C1338 C 0.2804 0.6969 0.58982 0.0
C1339 C 0.16214 0.64551 0.62386 0.0
H1340 H 0.25686 0.76194 0.67424 0.0
H1341 H 0.22835 0.76701 0.57353 0.0
H1342 H 0.21881 0.67599 0.67798 0.0
H1343 H 0.26079 0.69413 0.66832 0.0
H1344 H 0.24743 0.71307 0.69829 0.0
H1345 H 0.20441 0.72212 0.53804 0.0
H1346 H 0.22803 0.70254 0.54183 0.0
H1347 H 0.18732 0.68257 0.55645 0.0
H1348 H 0.26286 0.63445 0.57985 0.0
H1349 H 0.16333 0.59151 0.60813 0.0
H1350 H 0.2897 0.71025 0.61365 0.0
H1351 H 0.27868 0.71356 0.57177 0.0
H1352 H 0.2981 0.69034 0.58016 0.0
H1353 H 0.16886 0.66256 0.64511 0.0
H1354 H 0.14177 0.62174 0.63159 0.0
H1355 H 0.15365 0.65496 0.60332 0.0
loop_
_geom_bond_atom_site_label_1
_geom_bond_atom_site_label_2
_geom_bond_distance
_geom_bond_site_symmetry_2
_ccdc_geom_bond_type
C0 C1 1.351 . S
C0 N3 1.368 . S
C0 H5 0.931 . S
C1 C0 1.351 . S
C1 N2 1.373 . S
C1 H29 0.930 . S
N2 C1 1.373 . S
N2 C4 1.340 . S
N3 C0 1.368 . S
N3 C4 1.321 . S
N3 Co6 2.135 . S
C4 N2 1.340 . S
C4 N3 1.321 . S
C4 H28 0.930 . S
H5 C0 0.931 . S
Co6 N3 2.135 . S
Co6 N9 2.121 . S
Co6 O14 2.055 . S
Co6 O17 2.039 . S
Co6 N20 2.140 . S
C7 O8 1.227 . S
C7 O17 1.265 . S
O8 C7 1.227 . S
N9 Co6 2.121 . S
N9 C11 1.375 . S
N9 C12 1.313 . S
C10 C11 1.338 . S
C10 N13 1.377 . S
C10 H30 0.930 . S
C11 N9 1.375 . S
C11 C10 1.338 . S
C11 H15 0.931 . S
C12 N9 1.313 . S
C12 N13 1.344 . S
C12 H16 0.930 . S
N13 C10 1.377 . S
N13 C12 1.344 . S
O14 Co6 2.055 . S
O14 C18 1.253 . S
H15 C11 0.931 . S
H16 C12 0.930 . S
O17 Co6 2.039 . S
O17 C7 1.265 . S
C18 O14 1.253 . S
C18 O19 1.227 . S
O19 C18 1.227 . S
N20 Co6 2.140 . S
N20 C23 1.346 . S
N20 C24 1.345 . S
C21 C22 1.387 . S
C21 C25 1.391 . S
C22 C21 1.387 . S
C22 C23 1.369 . S
C22 H31 0.929 . S
C23 N20 1.346 . S
C23 C22 1.369 . S
C23 H26 0.928 . S
C24 N20 1.345 . S
C24 C25 1.371 . S
C24 H27 0.931 . S
C25 C21 1.391 . S
C25 C24 1.371 . S
C25 H32 0.930 . S
H26 C23 0.928 . S
H27 C24 0.931 . S
H28 C4 0.930 . S
H29 C1 0.930 . S
H30 C10 0.930 . S
H31 C22 0.929 . S
H32 C25 0.930 . S
C33 C34 1.351 . S
C33 N36 1.368 . S
C33 H38 0.931 . S
C34 C33 1.351 . S
C34 N35 1.373 . S
C34 H62 0.930 . S
N35 C34 1.373 . S
N35 C37 1.340 . S
N36 C33 1.368 . S
N36 C37 1.321 . S
N36 Co39 2.135 . S
C37 N35 1.340 . S
C37 N36 1.321 . S
C37 H61 0.930 . S
H38 C33 0.931 . S
Co39 N36 2.135 . S
Co39 N42 2.121 . S
Co39 O47 2.055 . S
Co39 O50 2.039 . S
Co39 N53 2.140 . S
C40 O41 1.227 . S
C40 O50 1.265 . S
O41 C40 1.227 . S
N42 Co39 2.121 . S
N42 C44 1.375 . S
N42 C45 1.313 . S
C43 C44 1.338 . S
C43 N46 1.377 . S
C43 H63 0.930 . S
C44 N42 1.375 . S
C44 C43 1.338 . S
C44 H48 0.931 . S
C45 N42 1.313 . S
C45 N46 1.344 . S
C45 H49 0.930 . S
N46 C43 1.377 . S
N46 C45 1.344 . S
O47 Co39 2.055 . S
O47 C51 1.253 . S
H48 C44 0.931 . S
H49 C45 0.930 . S
O50 Co39 2.039 . S
O50 C40 1.265 . S
C51 O47 1.253 . S
C51 O52 1.227 . S
O52 C51 1.227 . S
N53 Co39 2.140 . S
N53 C56 1.346 . S
N53 C57 1.345 . S
C54 C55 1.387 . S
C54 C58 1.391 . S
C55 C54 1.387 . S
C55 C56 1.369 . S
C55 H64 0.929 . S
C56 N53 1.346 . S
C56 C55 1.369 . S
C56 H59 0.928 . S
C57 N53 1.345 . S
C57 C58 1.371 . S
C57 H60 0.931 . S
C58 C54 1.391 . S
C58 C57 1.371 . S
C58 H65 0.930 . S
H59 C56 0.928 . S
H60 C57 0.931 . S
H61 C37 0.930 . S
H62 C34 0.930 . S
H63 C43 0.930 . S
H64 C55 0.929 . S
H65 C58 0.930 . S
C66 C67 1.351 . S
C66 N69 1.368 . S
C66 H71 0.931 . S
C67 C66 1.351 . S
C67 N68 1.373 . S
C67 H95 0.930 . S
N68 C67 1.373 . S
N68 C70 1.340 . S
N69 C66 1.368 . S
N69 C70 1.321 . S
N69 Co72 2.135 . S
C70 N68 1.340 . S
C70 N69 1.321 . S
C70 H94 0.930 . S
H71 C66 0.931 . S
Co72 N69 2.135 . S
Co72 N75 2.121 . S
Co72 O80 2.055 . S
Co72 O83 2.039 . S
Co72 N86 2.140 . S
C73 O74 1.227 . S
C73 O83 1.265 . S
O74 C73 1.227 . S
N75 Co72 2.121 . S
N75 C77 1.375 . S
N75 C78 1.313 . S
C76 C77 1.338 . S
C76 N79 1.377 . S
C76 H96 0.930 . S
C77 N75 1.375 . S
C77 C76 1.338 . S
C77 H81 0.931 . S
C78 N75 1.313 . S
C78 N79 1.344 . S
C78 H82 0.930 . S
N79 C76 1.377 . S
N79 C78 1.344 . S
O80 Co72 2.055 . S
O80 C84 1.253 . S
H81 C77 0.931 . S
H82 C78 0.930 . S
O83 Co72 2.039 . S
O83 C73 1.265 . S
C84 O80 1.253 . S
C84 O85 1.227 . S
O85 C84 1.227 . S
N86 Co72 2.140 . S
N86 C89 1.346 . S
N86 C90 1.345 . S
C87 C88 1.387 . S
C87 C91 1.391 . S
C88 C87 1.387 . S
C88 C89 1.369 . S
C88 H97 0.929 . S
C89 N86 1.346 . S
C89 C88 1.369 . S
C89 H92 0.928 . S
C90 N86 1.345 . S
C90 C91 1.371 . S
C90 H93 0.931 . S
C91 C87 1.391 . S
C91 C90 1.371 . S
C91 H98 0.930 . S
H92 C89 0.928 . S
H93 C90 0.931 . S
H94 C70 0.930 . S
H95 C67 0.930 . S
H96 C76 0.930 . S
H97 C88 0.929 . S
H98 C91 0.930 . S
C99 C100 1.351 . S
C99 N102 1.368 . S
C99 H104 0.931 . S
C100 C99 1.351 . S
C100 N101 1.373 . S
C100 H128 0.930 . S
N101 C100 1.373 . S
N101 C103 1.340 . S
N102 C99 1.368 . S
N102 C103 1.321 . S
N102 Co105 2.135 . S
C103 N101 1.340 . S
C103 N102 1.321 . S
C103 H127 0.930 . S
H104 C99 0.931 . S
Co105 N102 2.135 . S
Co105 N108 2.121 . S
Co105 O113 2.055 . S
Co105 O116 2.039 . S
Co105 N119 2.140 . S
C106 O107 1.227 . S
C106 O116 1.265 . S
O107 C106 1.227 . S
N108 Co105 2.121 . S
N108 C110 1.375 . S
N108 C111 1.313 . S
C109 C110 1.338 . S
C109 N112 1.377 . S
C109 H129 0.930 . S
C110 N108 1.375 . S
C110 C109 1.338 . S
C110 H114 0.931 . S
C111 N108 1.313 . S
C111 N112 1.344 . S
C111 H115 0.930 . S
N112 C109 1.377 . S
N112 C111 1.344 . S
O113 Co105 2.055 . S
O113 C117 1.253 . S
H114 C110 0.931 . S
H115 C111 0.930 . S
O116 Co105 2.039 . S
O116 C106 1.265 . S
C117 O113 1.253 . S
C117 O118 1.227 . S
O118 C117 1.227 . S
N119 Co105 2.140 . S
N119 C122 1.346 . S
N119 C123 1.345 . S
C120 C121 1.387 . S
C120 C124 1.391 . S
C121 C120 1.387 . S
C121 C122 1.369 . S
C121 H130 0.929 . S
C122 N119 1.346 . S
C122 C121 1.369 . S
C122 H125 0.928 . S
C123 N119 1.345 . S
C123 C124 1.371 . S
C123 H126 0.931 . S
C124 C120 1.391 . S
C124 C123 1.371 . S
C124 H131 0.930 . S
H125 C122 0.928 . S
H126 C123 0.931 . S
H127 C103 0.930 . S
H128 C100 0.930 . S
H129 C109 0.930 . S
H130 C121 0.929 . S
H131 C124 0.930 . S
C132 C133 1.351 . S
C132 N135 1.368 . S
C132 H137 0.931 . S
C133 C132 1.351 . S
C133 N134 1.373 . S
C133 H161 0.930 . S
N134 C133 1.373 . S
N134 C136 1.340 . S
N135 C132 1.368 . S
N135 C136 1.321 . S
N135 Co138 2.135 . S
C136 N134 1.340 . S
C136 N135 1.321 . S
C136 H160 0.930 . S
H137 C132 0.931 . S
Co138 N135 2.135 . S
Co138 N141 2.121 . S
Co138 O146 2.055 . S
Co138 O149 2.039 . S
Co138 N152 2.140 . S
C139 O140 1.227 . S
C139 O149 1.265 . S
O140 C139 1.227 . S
N141 Co138 2.121 . S
N141 C143 1.375 . S
N141 C144 1.313 . S
C142 C143 1.338 . S
C142 N145 1.377 . S
C142 H162 0.930 . S
C143 N141 1.375 . S
C143 C142 1.338 . S
C143 H147 0.931 . S
C144 N141 1.313 . S
C144 N145 1.344 . S
C144 H148 0.930 . S
N145 C142 1.377 . S
N145 C144 1.344 . S
O146 Co138 2.055 . S
O146 C150 1.253 . S
H147 C143 0.931 . S
H148 C144 0.930 . S
O149 Co138 2.039 . S
O149 C139 1.265 . S
C150 O146 1.253 . S
C150 O151 1.227 . S
O151 C150 1.227 . S
N152 Co138 2.140 . S
N152 C155 1.346 . S
N152 C156 1.345 . S
C153 C154 1.387 . S
C153 C157 1.391 . S
C154 C153 1.387 . S
C154 C155 1.369 . S
C154 H163 0.929 . S
C155 N152 1.346 . S
C155 C154 1.369 . S
C155 H158 0.928 . S
C156 N152 1.345 . S
C156 C157 1.371 . S
C156 H159 0.931 . S
C157 C153 1.391 . S
C157 C156 1.371 . S
C157 H164 0.930 . S
H158 C155 0.928 . S
H159 C156 0.931 . S
H160 C136 0.930 . S
H161 C133 0.930 . S
H162 C142 0.930 . S
H163 C154 0.929 . S
H164 C157 0.930 . S
C165 C166 1.351 . S
C165 N168 1.368 . S
C165 H170 0.931 . S
C166 C165 1.351 . S
C166 N167 1.373 . S
C166 H194 0.930 . S
N167 C166 1.373 . S
N167 C169 1.340 . S
N168 C165 1.368 . S
N168 C169 1.321 . S
N168 Co171 2.135 . S
C169 N167 1.340 . S
C169 N168 1.321 . S
C169 H193 0.930 . S
H170 C165 0.931 . S
Co171 N168 2.135 . S
Co171 N174 2.121 . S
Co171 O179 2.055 . S
Co171 O182 2.039 . S
Co171 N185 2.140 . S
C172 O173 1.227 . S
C172 O182 1.265 . S
O173 C172 1.227 . S
N174 Co171 2.121 . S
N174 C176 1.375 . S
N174 C177 1.313 . S
C175 C176 1.338 . S
C175 N178 1.377 . S
C175 H195 0.930 . S
C176 N174 1.375 . S
C176 C175 1.338 . S
C176 H180 0.931 . S
C177 N174 1.313 . S
C177 N178 1.344 . S
C177 H181 0.930 . S
N178 C175 1.377 . S
N178 C177 1.344 . S
O179 Co171 2.055 . S
O179 C183 1.253 . S
H180 C176 0.931 . S
H181 C177 0.930 . S
O182 Co171 2.039 . S
O182 C172 1.265 . S
C183 O179 1.253 . S
C183 O184 1.227 . S
O184 C183 1.227 . S
N185 Co171 2.140 . S
N185 C188 1.346 . S
N185 C189 1.345 . S
C186 C187 1.387 . S
C186 C190 1.391 . S
C187 C186 1.387 . S
C187 C188 1.369 . S
C187 H196 0.929 . S
C188 N185 1.346 . S
C188 C187 1.369 . S
C188 H191 0.928 . S
C189 N185 1.345 . S
C189 C190 1.371 . S
C189 H192 0.931 . S
C190 C186 1.391 . S
C190 C189 1.371 . S
C190 H197 0.930 . S
H191 C188 0.928 . S
H192 C189 0.931 . S
H193 C169 0.930 . S
H194 C166 0.930 . S
H195 C175 0.930 . S
H196 C187 0.929 . S
H197 C190 0.930 . S
C198 C199 1.351 . S
C198 N201 1.368 . S
C198 H203 0.931 . S
C199 C198 1.351 . S
C199 N200 1.373 . S
C199 H227 0.930 . S
N200 C199 1.373 . S
N200 C202 1.340 . S
N201 C198 1.368 . S
N201 C202 1.321 . S
N201 Co204 2.135 . S
C202 N200 1.340 . S
C202 N201 1.321 . S
C202 H226 0.930 . S
H203 C198 0.931 . S
Co204 N201 2.135 . S
Co204 N207 2.121 . S
Co204 O212 2.055 . S
Co204 O215 2.039 . S
Co204 N218 2.140 . S
C205 O206 1.227 . S
C205 O215 1.265 . S
O206 C205 1.227 . S
N207 Co204 2.121 . S
N207 C209 1.375 . S
N207 C210 1.313 . S
C208 C209 1.338 . S
C208 N211 1.377 . S
C208 H228 0.930 . S
C209 N207 1.375 . S
C209 C208 1.338 . S
C209 H213 0.931 . S
C210 N207 1.313 . S
C210 N211 1.344 . S
C210 H214 0.930 . S
N211 C208 1.377 . S
N211 C210 1.344 . S
O212 Co204 2.055 . S
O212 C216 1.253 . S
H213 C209 0.931 . S
H214 C210 0.930 . S
O215 Co204 2.039 . S
O215 C205 1.265 . S
C216 O212 1.253 . S
C216 O217 1.227 . S
O217 C216 1.227 . S
N218 Co204 2.140 . S
N218 C221 1.346 . S
N218 C222 1.345 . S
C219 C220 1.387 . S
C219 C223 1.391 . S
C220 C219 1.387 . S
C220 C221 1.369 . S
C220 H229 0.929 . S
C221 N218 1.346 . S
C221 C220 1.369 . S
C221 H224 0.928 . S
C222 N218 1.345 . S
C222 C223 1.371 . S
C222 H225 0.931 . S
C223 C219 1.391 . S
C223 C222 1.371 . S
C223 H230 0.930 . S
H224 C221 0.928 . S
H225 C222 0.931 . S
H226 C202 0.930 . S
H227 C199 0.930 . S
H228 C208 0.930 . S
H229 C220 0.929 . S
H230 C223 0.930 . S
C231 C232 1.351 . S
C231 N234 1.368 . S
C231 H236 0.931 . S
C232 C231 1.351 . S
C232 N233 1.373 . S
C232 H260 0.930 . S
N233 C232 1.373 . S
N233 C235 1.340 . S
N234 C231 1.368 . S
N234 C235 1.321 . S
N234 Co237 2.135 . S
C235 N233 1.340 . S
C235 N234 1.321 . S
C235 H259 0.930 . S
H236 C231 0.931 . S
Co237 N234 2.135 . S
Co237 N240 2.121 . S
Co237 O245 2.055 . S
Co237 O248 2.039 . S
Co237 N251 2.140 . S
C238 O239 1.227 . S
C238 O248 1.265 . S
O239 C238 1.227 . S
N240 Co237 2.121 . S
N240 C242 1.375 . S
N240 C243 1.313 . S
C241 C242 1.338 . S
C241 N244 1.377 . S
C241 H261 0.930 . S
C242 N240 1.375 . S
C242 C241 1.338 . S
C242 H246 0.931 . S
C243 N240 1.313 . S
C243 N244 1.344 . S
C243 H247 0.930 . S
N244 C241 1.377 . S
N244 C243 1.344 . S
O245 Co237 2.055 . S
O245 C249 1.253 . S
H246 C242 0.931 . S
H247 C243 0.930 . S
O248 Co237 2.039 . S
O248 C238 1.265 . S
C249 O245 1.253 . S
C249 O250 1.227 . S
O250 C249 1.227 . S
N251 Co237 2.140 . S
N251 C254 1.346 . S
N251 C255 1.345 . S
C252 C253 1.387 . S
C252 C256 1.391 . S
C253 C252 1.387 . S
C253 C254 1.369 . S
C253 H262 0.929 . S
C254 N251 1.346 . S
C254 C253 1.369 . S
C254 H257 0.928 . S
C255 N251 1.345 . S
C255 C256 1.371 . S
C255 H258 0.931 . S
C256 C252 1.391 . S
C256 C255 1.371 . S
C256 H263 0.930 . S
H257 C254 0.928 . S
H258 C255 0.931 . S
H259 C235 0.930 . S
H260 C232 0.930 . S
H261 C241 0.930 . S
H262 C253 0.929 . S
H263 C256 0.930 . S
C264 C265 1.351 . S
C264 N267 1.368 . S
C264 H269 0.931 . S
C265 C264 1.351 . S
C265 N266 1.373 . S
C265 H293 0.930 . S
N266 C265 1.373 . S
N266 C268 1.340 . S
N267 C264 1.368 . S
N267 C268 1.321 . S
N267 Co270 2.135 . S
C268 N266 1.340 . S
C268 N267 1.321 . S
C268 H292 0.930 . S
H269 C264 0.931 . S
Co270 N267 2.135 . S
Co270 N273 2.121 . S
Co270 O278 2.055 . S
Co270 O281 2.039 . S
Co270 N284 2.140 . S
C271 O272 1.227 . S
C271 O281 1.265 . S
O272 C271 1.227 . S
N273 Co270 2.121 . S
N273 C275 1.375 . S
N273 C276 1.313 . S
C274 C275 1.338 . S
C274 N277 1.377 . S
C274 H294 0.930 . S
C275 N273 1.375 . S
C275 C274 1.338 . S
C275 H279 0.931 . S
C276 N273 1.313 . S
C276 N277 1.344 . S
C276 H280 0.930 . S
N277 C274 1.377 . S
N277 C276 1.344 . S
O278 Co270 2.055 . S
O278 C282 1.253 . S
H279 C275 0.931 . S
H280 C276 0.930 . S
O281 Co270 2.039 . S
O281 C271 1.265 . S
C282 O278 1.253 . S
C282 O283 1.227 . S
O283 C282 1.227 . S
N284 Co270 2.140 . S
N284 C287 1.346 . S
N284 C288 1.345 . S
C285 C286 1.387 . S
C285 C289 1.391 . S
C286 C285 1.387 . S
C286 C287 1.369 . S
C286 H295 0.929 . S
C287 N284 1.346 . S
C287 C286 1.369 . S
C287 H290 0.928 . S
C288 N284 1.345 . S
C288 C289 1.371 . S
C288 H291 0.931 . S
C289 C285 1.391 . S
C289 C288 1.371 . S
C289 H296 0.930 . S
H290 C287 0.928 . S
H291 C288 0.931 . S
H292 C268 0.930 . S
H293 C265 0.930 . S
H294 C274 0.930 . S
H295 C286 0.929 . S
H296 C289 0.930 . S
C297 C298 1.351 . S
C297 N300 1.368 . S
C297 H302 0.931 . S
C298 C297 1.351 . S
C298 N299 1.373 . S
C298 H326 0.930 . S
N299 C298 1.373 . S
N299 C301 1.340 . S
N300 C297 1.368 . S
N300 C301 1.321 . S
N300 Co303 2.135 . S
C301 N299 1.340 . S
C301 N300 1.321 . S
C301 H325 0.930 . S
H302 C297 0.931 . S
Co303 N300 2.135 . S
Co303 N306 2.121 . S
Co303 O311 2.055 . S
Co303 O314 2.039 . S
Co303 N317 2.140 . S
C304 O305 1.227 . S
C304 O314 1.265 . S
O305 C304 1.227 . S
N306 Co303 2.121 . S
N306 C308 1.375 . S
N306 C309 1.313 . S
C307 C308 1.338 . S
C307 N310 1.377 . S
C307 H327 0.930 . S
C308 N306 1.375 . S
C308 C307 1.338 . S
C308 H312 0.931 . S
C309 N306 1.313 . S
C309 N310 1.344 . S
C309 H313 0.930 . S
N310 C307 1.377 . S
N310 C309 1.344 . S
O311 Co303 2.055 . S
O311 C315 1.253 . S
H312 C308 0.931 . S
H313 C309 0.930 . S
O314 Co303 2.039 . S
O314 C304 1.265 . S
C315 O311 1.253 . S
C315 O316 1.227 . S
O316 C315 1.227 . S
N317 Co303 2.140 . S
N317 C320 1.346 . S
N317 C321 1.345 . S
C318 C319 1.387 . S
C318 C322 1.391 . S
C319 C318 1.387 . S
C319 C320 1.369 . S
C319 H328 0.929 . S
C320 N317 1.346 . S
C320 C319 1.369 . S
C320 H323 0.928 . S
C321 N317 1.345 . S
C321 C322 1.371 . S
C321 H324 0.931 . S
C322 C318 1.391 . S
C322 C321 1.371 . S
C322 H329 0.930 . S
H323 C320 0.928 . S
H324 C321 0.931 . S
H325 C301 0.930 . S
H326 C298 0.930 . S
H327 C307 0.930 . S
H328 C319 0.929 . S
H329 C322 0.930 . S
C330 C331 1.351 . S
C330 N333 1.368 . S
C330 H335 0.931 . S
C331 C330 1.351 . S
C331 N332 1.373 . S
C331 H359 0.930 . S
N332 C331 1.373 . S
N332 C334 1.340 . S
N333 C330 1.368 . S
N333 C334 1.321 . S
N333 Co336 2.135 . S
C334 N332 1.340 . S
C334 N333 1.321 . S
C334 H358 0.930 . S
H335 C330 0.931 . S
Co336 N333 2.135 . S
Co336 N339 2.121 . S
Co336 O344 2.055 . S
Co336 O347 2.039 . S
Co336 N350 2.140 . S
C337 O338 1.227 . S
C337 O347 1.265 . S
O338 C337 1.227 . S
N339 Co336 2.121 . S
N339 C341 1.375 . S
N339 C342 1.313 . S
C340 C341 1.338 . S
C340 N343 1.377 . S
C340 H360 0.930 . S
C341 N339 1.375 . S
C341 C340 1.338 . S
C341 H345 0.931 . S
C342 N339 1.313 . S
C342 N343 1.344 . S
C342 H346 0.930 . S
N343 C340 1.377 . S
N343 C342 1.344 . S
O344 Co336 2.055 . S
O344 C348 1.253 . S
H345 C341 0.931 . S
H346 C342 0.930 . S
O347 Co336 2.039 . S
O347 C337 1.265 . S
C348 O344 1.253 . S
C348 O349 1.227 . S
O349 C348 1.227 . S
N350 Co336 2.140 . S
N350 C353 1.346 . S
N350 C354 1.345 . S
C351 C352 1.387 . S
C351 C355 1.391 . S
C352 C351 1.387 . S
C352 C353 1.369 . S
C352 H361 0.929 . S
C353 N350 1.346 . S
C353 C352 1.369 . S
C353 H356 0.928 . S
C354 N350 1.345 . S
C354 C355 1.371 . S
C354 H357 0.931 . S
C355 C351 1.391 . S
C355 C354 1.371 . S
C355 H362 0.930 . S
H356 C353 0.928 . S
H357 C354 0.931 . S
H358 C334 0.930 . S
H359 C331 0.930 . S
H360 C340 0.930 . S
H361 C352 0.929 . S
H362 C355 0.930 . S
C363 C364 1.351 . S
C363 N366 1.368 . S
C363 H368 0.931 . S
C364 C363 1.351 . S
C364 N365 1.373 . S
C364 H392 0.930 . S
N365 C364 1.373 . S
N365 C367 1.340 . S
N366 C363 1.368 . S
N366 C367 1.321 . S
N366 Co369 2.135 . S
C367 N365 1.340 . S
C367 N366 1.321 . S
C367 H391 0.930 . S
H368 C363 0.931 . S
Co369 N366 2.135 . S
Co369 N372 2.121 . S
Co369 O377 2.055 . S
Co369 O380 2.039 . S
Co369 N383 2.140 . S
C370 O371 1.227 . S
C370 O380 1.265 . S
O371 C370 1.227 . S
N372 Co369 2.121 . S
N372 C374 1.375 . S
N372 C375 1.313 . S
C373 C374 1.338 . S
C373 N376 1.377 . S
C373 H393 0.930 . S
C374 N372 1.375 . S
C374 C373 1.338 . S
C374 H378 0.931 . S
C375 N372 1.313 . S
C375 N376 1.344 . S
C375 H379 0.930 . S
N376 C373 1.377 . S
N376 C375 1.344 . S
O377 Co369 2.055 . S
O377 C381 1.253 . S
H378 C374 0.931 . S
H379 C375 0.930 . S
O380 Co369 2.039 . S
O380 C370 1.265 . S
C381 O377 1.253 . S
C381 O382 1.227 . S
O382 C381 1.227 . S
N383 Co369 2.140 . S
N383 C386 1.346 . S
N383 C387 1.345 . S
C384 C385 1.387 . S
C384 C388 1.391 . S
C385 C384 1.387 . S
C385 C386 1.369 . S
C385 H394 0.929 . S
C386 N383 1.346 . S
C386 C385 1.369 . S
C386 H389 0.928 . S
C387 N383 1.345 . S
C387 C388 1.371 . S
C387 H390 0.931 . S
C388 C384 1.391 . S
C388 C387 1.371 . S
C388 H395 0.930 . S
H389 C386 0.928 . S
H390 C387 0.931 . S
H391 C367 0.930 . S
H392 C364 0.930 . S
H393 C373 0.930 . S
H394 C385 0.929 . S
H395 C388 0.930 . S
C396 C397 1.391 . S
C396 C398 1.394 . S
C396 H412 0.931 . S
C397 C396 1.391 . S
C397 C401 1.376 . S
C398 C396 1.394 . S
C398 C399 1.369 . S
C398 C402 1.531 . S
C399 C398 1.369 . S
C399 C400 1.410 . S
C399 C407 1.503 . S
C400 C399 1.410 . S
C400 C401 1.392 . S
C400 C403 1.511 . S
C401 C397 1.376 . S
C401 C400 1.392 . S
C401 H413 0.929 . S
C402 C398 1.531 . S
C402 H414 0.960 . S
C402 H415 0.962 . S
C402 H416 0.960 . S
C403 C400 1.511 . S
C403 H417 0.961 . S
C403 H418 0.961 . S
C403 H419 0.961 . S
C404 C405 1.370 . S
C404 C406 1.363 . S
C404 H420 0.931 . S
C405 C404 1.370 . S
C405 C409 1.408 . S
C406 C404 1.363 . S
C406 C407 1.370 . S
C406 C410 1.524 . S
C407 C399 1.503 . S
C407 C406 1.370 . S
C407 C408 1.403 . S
C408 C407 1.403 . S
C408 C409 1.404 . S
C408 C411 1.539 . S
C409 C405 1.408 . S
C409 C408 1.404 . S
C409 H421 0.930 . S
C410 C406 1.524 . S
C410 H422 0.956 . S
C410 H423 0.961 . S
C410 H424 0.961 . S
C411 C408 1.539 . S
C411 H425 0.958 . S
C411 H426 0.961 . S
C411 H427 0.960 . S
H412 C396 0.931 . S
H413 C401 0.929 . S
H414 C402 0.960 . S
H415 C402 0.962 . S
H416 C402 0.960 . S
H417 C403 0.961 . S
H418 C403 0.961 . S
H419 C403 0.961 . S
H420 C404 0.931 . S
H421 C409 0.930 . S
H422 C410 0.956 . S
H423 C410 0.961 . S
H424 C410 0.961 . S
H425 C411 0.958 . S
H426 C411 0.961 . S
H427 C411 0.960 . S
C428 C429 1.391 . S
C428 C430 1.394 . S
C428 H444 0.931 . S
C429 C428 1.391 . S
C429 C433 1.376 . S
C430 C428 1.394 . S
C430 C431 1.369 . S
C430 C434 1.531 . S
C431 C430 1.369 . S
C431 C432 1.410 . S
C431 C439 1.503 . S
C432 C431 1.410 . S
C432 C433 1.392 . S
C432 C435 1.511 . S
C433 C429 1.376 . S
C433 C432 1.392 . S
C433 H445 0.929 . S
C434 C430 1.531 . S
C434 H446 0.960 . S
C434 H447 0.962 . S
C434 H448 0.960 . S
C435 C432 1.511 . S
C435 H449 0.961 . S
C435 H450 0.961 . S
C435 H451 0.961 . S
C436 C437 1.370 . S
C436 C438 1.363 . S
C436 H452 0.931 . S
C437 C436 1.370 . S
C437 C441 1.408 . S
C438 C436 1.363 . S
C438 C439 1.370 . S
C438 C442 1.524 . S
C439 C431 1.503 . S
C439 C438 1.370 . S
C439 C440 1.403 . S
C440 C439 1.403 . S
C440 C441 1.404 . S
C440 C443 1.539 . S
C441 C437 1.408 . S
C441 C440 1.404 . S
C441 H453 0.930 . S
C442 C438 1.524 . S
C442 H454 0.956 . S
C442 H455 0.961 . S
C442 H456 0.961 . S
C443 C440 1.539 . S
C443 H457 0.958 . S
C443 H458 0.961 . S
C443 H459 0.960 . S
H444 C428 0.931 . S
H445 C433 0.929 . S
H446 C434 0.960 . S
H447 C434 0.962 . S
H448 C434 0.960 . S
H449 C435 0.961 . S
H450 C435 0.961 . S
H451 C435 0.961 . S
H452 C436 0.931 . S
H453 C441 0.930 . S
H454 C442 0.956 . S
H455 C442 0.961 . S
H456 C442 0.961 . S
H457 C443 0.958 . S
H458 C443 0.961 . S
H459 C443 0.960 . S
C460 C461 1.391 . S
C460 C462 1.394 . S
C460 H476 0.931 . S
C461 C460 1.391 . S
C461 C465 1.376 . S
C462 C460 1.394 . S
C462 C463 1.369 . S
C462 C466 1.531 . S
C463 C462 1.369 . S
C463 C464 1.410 . S
C463 C471 1.503 . S
C464 C463 1.410 . S
C464 C465 1.392 . S
C464 C467 1.511 . S
C465 C461 1.376 . S
C465 C464 1.392 . S
C465 H477 0.929 . S
C466 C462 1.531 . S
C466 H478 0.960 . S
C466 H479 0.962 . S
C466 H480 0.960 . S
C467 C464 1.511 . S
C467 H481 0.961 . S
C467 H482 0.961 . S
C467 H483 0.961 . S
C468 C469 1.370 . S
C468 C470 1.363 . S
C468 H484 0.931 . S
C469 C468 1.370 . S
C469 C473 1.408 . S
C470 C468 1.363 . S
C470 C471 1.370 . S
C470 C474 1.524 . S
C471 C463 1.503 . S
C471 C470 1.370 . S
C471 C472 1.403 . S
C472 C471 1.403 . S
C472 C473 1.404 . S
C472 C475 1.539 . S
C473 C469 1.408 . S
C473 C472 1.404 . S
C473 H485 0.930 . S
C474 C470 1.524 . S
C474 H486 0.956 . S
C474 H487 0.961 . S
C474 H488 0.961 . S
C475 C472 1.539 . S
C475 H489 0.958 . S
C475 H490 0.961 . S
C475 H491 0.960 . S
H476 C460 0.931 . S
H477 C465 0.929 . S
H478 C466 0.960 . S
H479 C466 0.962 . S
H480 C466 0.960 . S
H481 C467 0.961 . S
H482 C467 0.961 . S
H483 C467 0.961 . S
H484 C468 0.931 . S
H485 C473 0.930 . S
H486 C474 0.956 . S
H487 C474 0.961 . S
H488 C474 0.961 . S
H489 C475 0.958 . S
H490 C475 0.961 . S
H491 C475 0.960 . S
C492 C493 1.391 . S
C492 C494 1.394 . S
C492 H508 0.931 . S
C493 C492 1.391 . S
C493 C497 1.376 . S
C494 C492 1.394 . S
C494 C495 1.369 . S
C494 C498 1.531 . S
C495 C494 1.369 . S
C495 C496 1.410 . S
C495 C503 1.503 . S
C496 C495 1.410 . S
C496 C497 1.392 . S
C496 C499 1.511 . S
C497 C493 1.376 . S
C497 C496 1.392 . S
C497 H509 0.929 . S
C498 C494 1.531 . S
C498 H510 0.960 . S
C498 H511 0.962 . S
C498 H512 0.960 . S
C499 C496 1.511 . S
C499 H513 0.961 . S
C499 H514 0.961 . S
C499 H515 0.961 . S
C500 C501 1.370 . S
C500 C502 1.363 . S
C500 H516 0.931 . S
C501 C500 1.370 . S
C501 C505 1.408 . S
C502 C500 1.363 . S
C502 C503 1.370 . S
C502 C506 1.524 . S
C503 C495 1.503 . S
C503 C502 1.370 . S
C503 C504 1.403 . S
C504 C503 1.403 . S
C504 C505 1.404 . S
C504 C507 1.539 . S
C505 C501 1.408 . S
C505 C504 1.404 . S
C505 H517 0.930 . S
C506 C502 1.524 . S
C506 H518 0.956 . S
C506 H519 0.961 . S
C506 H520 0.961 . S
C507 C504 1.539 . S
C507 H521 0.958 . S
C507 H522 0.961 . S
C507 H523 0.960 . S
H508 C492 0.931 . S
H509 C497 0.929 . S
H510 C498 0.960 . S
H511 C498 0.962 . S
H512 C498 0.960 . S
H513 C499 0.961 . S
H514 C499 0.961 . S
H515 C499 0.961 . S
H516 C500 0.931 . S
H517 C505 0.930 . S
H518 C506 0.956 . S
H519 C506 0.961 . S
H520 C506 0.961 . S
H521 C507 0.958 . S
H522 C507 0.961 . S
H523 C507 0.960 . S
C524 C525 1.391 . S
C524 C526 1.394 . S
C524 H540 0.931 . S
C525 C524 1.391 . S
C525 C529 1.376 . S
C526 C524 1.394 . S
C526 C527 1.369 . S
C526 C530 1.531 . S
C527 C526 1.369 . S
C527 C528 1.410 . S
C527 C535 1.503 . S
C528 C527 1.410 . S
C528 C529 1.392 . S
C528 C531 1.511 . S
C529 C525 1.376 . S
C529 C528 1.392 . S
C529 H541 0.929 . S
C530 C526 1.531 . S
C530 H542 0.960 . S
C530 H543 0.962 . S
C530 H544 0.960 . S
C531 C528 1.511 . S
C531 H545 0.961 . S
C531 H546 0.961 . S
C531 H547 0.961 . S
C532 C533 1.370 . S
C532 C534 1.363 . S
C532 H548 0.931 . S
C533 C532 1.370 . S
C533 C537 1.408 . S
C534 C532 1.363 . S
C534 C535 1.370 . S
C534 C538 1.524 . S
C535 C527 1.503 . S
C535 C534 1.370 . S
C535 C536 1.403 . S
C536 C535 1.403 . S
C536 C537 1.404 . S
C536 C539 1.539 . S
C537 C533 1.408 . S
C537 C536 1.404 . S
C537 H549 0.930 . S
C538 C534 1.524 . S
C538 H550 0.956 . S
C538 H551 0.961 . S
C538 H552 0.961 . S
C539 C536 1.539 . S
C539 H553 0.958 . S
C539 H554 0.961 . S
C539 H555 0.960 . S
H540 C524 0.931 . S
H541 C529 0.929 . S
H542 C530 0.960 . S
H543 C530 0.962 . S
H544 C530 0.960 . S
H545 C531 0.961 . S
H546 C531 0.961 . S
H547 C531 0.961 . S
H548 C532 0.931 . S
H549 C537 0.930 . S
H550 C538 0.956 . S
H551 C538 0.961 . S
H552 C538 0.961 . S
H553 C539 0.958 . S
H554 C539 0.961 . S
H555 C539 0.960 . S
C556 C557 1.391 . S
C556 C558 1.394 . S
C556 H572 0.931 . S
C557 C556 1.391 . S
C557 C561 1.376 . S
C558 C556 1.394 . S
C558 C559 1.369 . S
C558 C562 1.531 . S
C559 C558 1.369 . S
C559 C560 1.410 . S
C559 C567 1.503 . S
C560 C559 1.410 . S
C560 C561 1.392 . S
C560 C563 1.511 . S
C561 C557 1.376 . S
C561 C560 1.392 . S
C561 H573 0.929 . S
C562 C558 1.531 . S
C562 H574 0.960 . S
C562 H575 0.962 . S
C562 H576 0.960 . S
C563 C560 1.511 . S
C563 H577 0.961 . S
C563 H578 0.961 . S
C563 H579 0.961 . S
C564 C565 1.370 . S
C564 C566 1.363 . S
C564 H580 0.931 . S
C565 C564 1.370 . S
C565 C569 1.408 . S
C566 C564 1.363 . S
C566 C567 1.370 . S
C566 C570 1.524 . S
C567 C559 1.503 . S
C567 C566 1.370 . S
C567 C568 1.403 . S
C568 C567 1.403 . S
C568 C569 1.404 . S
C568 C571 1.539 . S
C569 C565 1.408 . S
C569 C568 1.404 . S
C569 H581 0.930 . S
C570 C566 1.524 . S
C570 H582 0.956 . S
C570 H583 0.961 . S
C570 H584 0.961 . S
C571 C568 1.539 . S
C571 H585 0.958 . S
C571 H586 0.961 . S
C571 H587 0.960 . S
H572 C556 0.931 . S
H573 C561 0.929 . S
H574 C562 0.960 . S
H575 C562 0.962 . S
H576 C562 0.960 . S
H577 C563 0.961 . S
H578 C563 0.961 . S
H579 C563 0.961 . S
H580 C564 0.931 . S
H581 C569 0.930 . S
H582 C570 0.956 . S
H583 C570 0.961 . S
H584 C570 0.961 . S
H585 C571 0.958 . S
H586 C571 0.961 . S
H587 C571 0.960 . S
C588 C589 1.391 . S
C588 C590 1.394 . S
C588 H604 0.931 . S
C589 C588 1.391 . S
C589 C593 1.376 1_554 S
C590 C588 1.394 . S
C590 C591 1.369 . S
C590 C594 1.531 . S
C591 C590 1.369 . S
C591 C592 1.410 1_544 S
C591 C599 1.501 1_544 S
C592 C591 1.410 1_566 S
C592 C593 1.392 1_565 S
C592 C595 1.511 . S
C593 C589 1.376 1_556 S
C593 C592 1.392 1_545 S
C593 H605 0.929 . S
C594 C590 1.531 . S
C594 H606 0.960 . S
C594 H607 0.962 . S
C594 H608 0.960 . S
C595 C592 1.511 . S
C595 H609 0.961 . S
C595 H610 0.961 . S
C595 H611 0.961 . S
C596 C597 1.370 . S
C596 C598 1.363 1_565 S
C596 H612 0.931 1_565 S
C597 C596 1.370 . S
C597 C601 1.408 1_556 S
C598 C596 1.363 1_545 S
C598 C599 1.377 1_545 S
C598 C602 1.524 . S
C599 C591 1.501 1_566 S
C599 C598 1.377 1_565 S
C599 C600 1.399 1_556 S
C600 C599 1.399 1_554 S
C600 C601 1.404 . S
C600 C603 1.539 . S
C601 C597 1.408 1_554 S
C601 C600 1.404 . S
C601 H613 0.930 . S
C602 C598 1.524 . S
C602 H614 0.956 . S
C602 H615 0.961 . S
C602 H616 0.961 . S
C603 C600 1.539 . S
C603 H617 0.958 . S
C603 H618 0.961 . S
C603 H619 0.960 . S
H604 C588 0.931 . S
H605 C593 0.929 . S
H606 C594 0.960 . S
H607 C594 0.962 . S
H608 C594 0.960 . S
H609 C595 0.961 . S
H610 C595 0.961 . S
H611 C595 0.961 . S
H612 C596 0.931 1_545 S
H613 C601 0.930 . S
H614 C602 0.956 . S
H615 C602 0.961 . S
H616 C602 0.961 . S
H617 C603 0.958 . S
H618 C603 0.961 . S
H619 C603 0.960 . S
C620 C621 1.391 . S
C620 C622 1.394 1_655 S
C620 H636 0.931 1_655 S
C621 C620 1.391 . S
C621 C625 1.368 1_554 S
C622 C620 1.394 1_455 S
C622 C623 1.369 1_454 S
C622 C626 1.531 . S
C623 C622 1.369 1_656 S
C623 C624 1.410 . S
C623 C631 1.503 1_655 S
C624 C623 1.410 . S
C624 C625 1.398 . S
C624 C627 1.511 . S
C625 C621 1.368 1_556 S
C625 C624 1.398 . S
C625 H637 0.932 . S
C626 C622 1.531 . S
C626 H638 0.960 1_554 S
C626 H639 0.962 . S
C626 H640 0.960 . S
C627 C624 1.511 . S
C627 H641 0.961 . S
C627 H642 0.961 . S
C627 H643 0.961 . S
C628 C629 1.370 1_554 S
C628 C630 1.363 . S
C628 H644 0.931 . S
C629 C628 1.370 1_556 S
C629 C633 1.408 . S
C630 C628 1.363 . S
C630 C631 1.370 1_554 S
C630 C634 1.524 1_455 S
C631 C623 1.503 1_455 S
C631 C630 1.370 1_556 S
C631 C632 1.403 . S
C632 C631 1.403 . S
C632 C633 1.404 . S
C632 C635 1.539 . S
C633 C629 1.408 . S
C633 C632 1.404 . S
C633 H645 0.930 . S
C634 C630 1.524 1_655 S
C634 H646 0.956 1_655 S
C634 H647 0.961 . S
C634 H648 0.961 . S
C635 C632 1.539 . S
C635 H649 0.958 . S
C635 H650 0.961 . S
C635 H651 0.960 . S
H636 C620 0.931 1_455 S
H637 C625 0.932 . S
H638 C626 0.960 1_556 S
H639 C626 0.962 . S
H640 C626 0.960 . S
H641 C627 0.961 . S
H642 C627 0.961 . S
H643 C627 0.961 . S
H644 C628 0.931 . S
H645 C633 0.930 . S
H646 C634 0.956 1_455 S
H647 C634 0.961 . S
H648 C634 0.961 . S
H649 C635 0.958 . S
H650 C635 0.961 . S
H651 C635 0.960 . S
C652 C653 1.391 . S
C652 C654 1.394 . S
C652 H668 0.931 . S
C653 C652 1.391 . S
C653 C657 1.376 1_556 S
C654 C652 1.394 . S
C654 C655 1.346 1_556 S
C654 C658 1.531 . S
C655 C654 1.346 1_554 S
C655 C656 1.427 . S
C655 C663 1.508 . S
C656 C655 1.427 . S
C656 C657 1.392 . S
C656 C659 1.511 . S
C657 C653 1.376 1_554 S
C657 C656 1.392 . S
C657 H669 0.929 . S
C658 C654 1.531 . S
C658 H670 0.960 . S
C658 H671 0.962 . S
C658 H672 0.960 . S
C659 C656 1.511 . S
C659 H673 0.961 . S
C659 H674 0.961 . S
C659 H675 0.961 . S
C660 C661 1.370 1_556 S
C660 C662 1.363 . S
C660 H676 0.931 . S
C661 C660 1.370 1_554 S
C661 C665 1.408 . S
C662 C660 1.363 . S
C662 C663 1.370 1_556 S
C662 C666 1.524 . S
C663 C655 1.508 . S
C663 C662 1.370 1_554 S
C663 C664 1.403 . S
C664 C663 1.403 . S
C664 C665 1.404 . S
C664 C667 1.539 . S
C665 C661 1.408 . S
C665 C664 1.404 . S
C665 H677 0.930 . S
C666 C662 1.524 . S
C666 H678 0.956 . S
C666 H679 0.961 . S
C666 H680 0.961 . S
C667 C664 1.539 . S
C667 H681 0.958 . S
C667 H682 0.961 . S
C667 H683 0.960 . S
H668 C652 0.931 . S
H669 C657 0.929 . S
H670 C658 0.960 . S
H671 C658 0.962 . S
H672 C658 0.960 . S
H673 C659 0.961 . S
H674 C659 0.961 . S
H675 C659 0.961 . S
H676 C660 0.931 . S
H677 C665 0.930 . S
H678 C666 0.956 . S
H679 C666 0.961 . S
H680 C666 0.961 . S
H681 C667 0.958 . S
H682 C667 0.961 . S
H683 C667 0.960 . S
C684 C685 1.391 . S
C684 C686 1.394 . S
C684 H700 0.931 . S
C685 C684 1.391 . S
C685 C689 1.376 . S
C686 C684 1.394 . S
C686 C687 1.369 . S
C686 C690 1.531 . S
C687 C686 1.369 . S
C687 C688 1.410 1_455 S
C687 C695 1.503 1_455 S
C688 C687 1.410 1_655 S
C688 C689 1.392 1_655 S
C688 C691 1.511 . S
C689 C685 1.376 . S
C689 C688 1.392 1_455 S
C689 H701 0.929 1_455 S
C690 C686 1.531 . S
C690 H702 0.960 . S
C690 H703 0.962 . S
C690 H704 0.960 . S
C691 C688 1.511 . S
C691 H705 0.961 . S
C691 H706 0.961 . S
C691 H707 0.961 . S
C692 C693 1.370 . S
C692 C694 1.363 . S
C692 H708 0.931 . S
C693 C692 1.370 . S
C693 C697 1.408 . S
C694 C692 1.363 . S
C694 C695 1.370 . S
C694 C698 1.524 1_655 S
C695 C687 1.503 1_655 S
C695 C694 1.370 . S
C695 C696 1.403 . S
C696 C695 1.403 . S
C696 C697 1.404 . S
C696 C699 1.539 . S
C697 C693 1.408 . S
C697 C696 1.404 . S
C697 H709 0.930 . S
C698 C694 1.524 1_455 S
C698 H710 0.956 . S
C698 H711 0.961 . S
C698 H712 0.961 . S
C699 C696 1.539 . S
C699 H713 0.958 . S
C699 H714 0.961 . S
C699 H715 0.960 . S
H700 C684 0.931 . S
H701 C689 0.929 1_655 S
H702 C690 0.960 . S
H703 C690 0.962 . S
H704 C690 0.960 . S
H705 C691 0.961 . S
H706 C691 0.961 . S
H707 C691 0.961 . S
H708 C692 0.931 . S
H709 C697 0.930 . S
H710 C698 0.956 . S
H711 C698 0.961 . S
H712 C698 0.961 . S
H713 C699 0.958 . S
H714 C699 0.961 . S
H715 C699 0.960 . S
C716 C717 1.391 . S
C716 C718 1.394 . S
C716 H732 0.931 . S
C717 C716 1.391 . S
C717 C721 1.376 . S
C718 C716 1.394 . S
C718 C719 1.369 . S
C718 C722 1.531 . S
C719 C718 1.369 . S
C719 C720 1.410 . S
C719 C727 1.503 . S
C720 C719 1.410 . S
C720 C721 1.392 . S
C720 C723 1.511 . S
C721 C717 1.376 . S
C721 C720 1.392 . S
C721 H733 0.929 . S
C722 C718 1.531 . S
C722 H734 0.960 . S
C722 H735 0.962 . S
C722 H736 0.960 . S
C723 C720 1.511 . S
C723 H737 0.961 . S
C723 H738 0.961 . S
C723 H739 0.961 . S
C724 C725 1.370 . S
C724 C726 1.363 . S
C724 H740 0.931 . S
C725 C724 1.370 . S
C725 C729 1.408 . S
C726 C724 1.363 . S
C726 C727 1.370 . S
C726 C730 1.524 . S
C727 C719 1.503 . S
C727 C726 1.370 . S
C727 C728 1.403 . S
C728 C727 1.403 . S
C728 C729 1.404 . S
C728 C731 1.539 . S
C729 C725 1.408 . S
C729 C728 1.404 . S
C729 H741 0.930 . S
C730 C726 1.524 . S
C730 H742 0.956 . S
C730 H743 0.961 . S
C730 H744 0.961 . S
C731 C728 1.539 . S
C731 H745 0.958 . S
C731 H746 0.961 . S
C731 H747 0.960 . S
H732 C716 0.931 . S
H733 C721 0.929 . S
H734 C722 0.960 . S
H735 C722 0.962 . S
H736 C722 0.960 . S
H737 C723 0.961 . S
H738 C723 0.961 . S
H739 C723 0.961 . S
H740 C724 0.931 . S
H741 C729 0.930 . S
H742 C730 0.956 . S
H743 C730 0.961 . S
H744 C730 0.961 . S
H745 C731 0.958 . S
H746 C731 0.961 . S
H747 C731 0.960 . S
C748 C749 1.391 . S
C748 C750 1.394 1_545 S
C748 H764 0.931 1_545 S
C749 C748 1.391 . S
C749 C753 1.376 . S
C750 C748 1.394 1_565 S
C750 C751 1.369 1_565 S
C750 C754 1.531 . S
C751 C750 1.369 1_545 S
C751 C752 1.410 . S
C751 C759 1.503 1_545 S
C752 C751 1.410 . S
C752 C753 1.392 . S
C752 C755 1.511 . S
C753 C749 1.376 . S
C753 C752 1.392 . S
C753 H765 0.929 . S
C754 C750 1.531 . S
C754 H766 0.960 . S
C754 H767 0.962 . S
C754 H768 0.960 . S
C755 C752 1.511 . S
C755 H769 0.961 . S
C755 H770 0.961 . S
C755 H771 0.961 . S
C756 C757 1.370 . S
C756 C758 1.363 . S
C756 H772 0.931 . S
C757 C756 1.370 . S
C757 C761 1.408 . S
C758 C756 1.363 . S
C758 C759 1.370 . S
C758 C762 1.526 . S
C759 C751 1.503 1_565 S
C759 C758 1.370 . S
C759 C760 1.403 . S
C760 C759 1.403 . S
C760 C761 1.404 . S
C760 C763 1.539 . S
C761 C757 1.408 . S
C761 C760 1.404 . S
C761 H773 0.930 . S
C762 C758 1.526 . S
C762 H774 0.968 . S
C762 H775 0.951 1_565 S
C762 H776 0.957 . S
C763 C760 1.539 . S
C763 H777 0.958 . S
C763 H778 0.961 . S
C763 H779 0.960 1_565 S
H764 C748 0.931 1_565 S
H765 C753 0.929 . S
H766 C754 0.960 . S
H767 C754 0.962 . S
H768 C754 0.960 . S
H769 C755 0.961 . S
H770 C755 0.961 . S
H771 C755 0.961 . S
H772 C756 0.931 . S
H773 C761 0.930 . S
H774 C762 0.968 . S
H775 C762 0.951 1_545 S
H776 C762 0.957 . S
H777 C763 0.958 . S
H778 C763 0.961 . S
H779 C763 0.960 1_545 S
C780 C781 1.391 . S
C780 C782 1.394 . S
C780 H796 0.931 . S
C781 C780 1.391 . S
C781 C785 1.376 . S
C782 C780 1.394 . S
C782 C783 1.369 . S
C782 C786 1.531 . S
C783 C782 1.369 . S
C783 C784 1.410 . S
C783 C791 1.503 . S
C784 C783 1.410 . S
C784 C785 1.392 . S
C784 C787 1.511 . S
C785 C781 1.376 . S
C785 C784 1.392 . S
C785 H797 0.929 . S
C786 C782 1.531 . S
C786 H798 0.960 . S
C786 H799 0.962 . S
C786 H800 0.960 . S
C787 C784 1.511 . S
C787 H801 0.961 . S
C787 H802 0.961 . S
C787 H803 0.961 . S
C788 C789 1.370 . S
C788 C790 1.363 . S
C788 H804 0.931 . S
C789 C788 1.370 . S
C789 C793 1.408 . S
C790 C788 1.363 . S
C790 C791 1.370 . S
C790 C794 1.524 . S
C791 C783 1.503 . S
C791 C790 1.370 . S
C791 C792 1.403 . S
C792 C791 1.403 . S
C792 C793 1.404 . S
C792 C795 1.539 . S
C793 C789 1.408 . S
C793 C792 1.404 . S
C793 H805 0.930 . S
C794 C790 1.524 . S
C794 H806 0.956 . S
C794 H807 0.961 . S
C794 H808 0.961 . S
C795 C792 1.539 . S
C795 H809 0.958 . S
C795 H810 0.961 . S
C795 H811 0.960 . S
H796 C780 0.931 . S
H797 C785 0.929 . S
H798 C786 0.960 . S
H799 C786 0.962 . S
H800 C786 0.960 . S
H801 C787 0.961 . S
H802 C787 0.961 . S
H803 C787 0.961 . S
H804 C788 0.931 . S
H805 C793 0.930 . S
H806 C794 0.956 . S
H807 C794 0.961 . S
H808 C794 0.961 . S
H809 C795 0.958 . S
H810 C795 0.961 . S
H811 C795 0.960 . S
C812 C813 1.391 . S
C812 C814 1.394 . S
C812 H828 0.931 . S
C813 C812 1.391 . S
C813 C817 1.376 . S
C814 C812 1.394 . S
C814 C815 1.369 . S
C814 C818 1.531 . S
C815 C814 1.369 . S
C815 C816 1.410 . S
C815 C823 1.503 . S
C816 C815 1.410 . S
C816 C817 1.392 . S
C816 C819 1.511 . S
C817 C813 1.376 . S
C817 C816 1.392 . S
C817 H829 0.929 . S
C818 C814 1.531 . S
C818 H830 0.960 . S
C818 H831 0.962 . S
C818 H832 0.960 . S
C819 C816 1.511 . S
C819 H833 0.961 . S
C819 H834 0.961 . S
C819 H835 0.961 . S
C820 C821 1.370 . S
C820 C822 1.363 . S
C820 H836 0.931 . S
C821 C820 1.370 . S
C821 C825 1.408 . S
C822 C820 1.363 . S
C822 C823 1.370 . S
C822 C826 1.524 . S
C823 C815 1.503 . S
C823 C822 1.370 . S
C823 C824 1.403 . S
C824 C823 1.403 . S
C824 C825 1.404 . S
C824 C827 1.539 . S
C825 C821 1.408 . S
C825 C824 1.404 . S
C825 H837 0.930 . S
C826 C822 1.524 . S
C826 H838 0.956 . S
C826 H839 0.961 . S
C826 H840 0.961 . S
C827 C824 1.539 . S
C827 H841 0.958 . S
C827 H842 0.961 . S
C827 H843 0.960 . S
H828 C812 0.931 . S
H829 C817 0.929 . S
H830 C818 0.960 . S
H831 C818 0.962 . S
H832 C818 0.960 . S
H833 C819 0.961 . S
H834 C819 0.961 . S
H835 C819 0.961 . S
H836 C820 0.931 . S
H837 C825 0.930 . S
H838 C826 0.956 . S
H839 C826 0.961 . S
H840 C826 0.961 . S
H841 C827 0.958 . S
H842 C827 0.961 . S
H843 C827 0.960 . S
C844 C845 1.391 . S
C844 C846 1.394 . S
C844 H860 0.931 . S
C845 C844 1.391 . S
C845 C849 1.376 . S
C846 C844 1.394 . S
C846 C847 1.369 . S
C846 C850 1.531 . S
C847 C846 1.369 . S
C847 C848 1.410 . S
C847 C855 1.503 . S
C848 C847 1.410 . S
C848 C849 1.392 . S
C848 C851 1.511 . S
C849 C845 1.376 . S
C849 C848 1.392 . S
C849 H861 0.929 . S
C850 C846 1.531 . S
C850 H862 0.960 . S
C850 H863 0.962 . S
C850 H864 0.960 . S
C851 C848 1.511 . S
C851 H865 0.961 . S
C851 H866 0.961 . S
C851 H867 0.961 . S
C852 C853 1.370 . S
C852 C854 1.363 . S
C852 H868 0.931 . S
C853 C852 1.370 . S
C853 C857 1.408 . S
C854 C852 1.363 . S
C854 C855 1.370 . S
C854 C858 1.524 . S
C855 C847 1.503 . S
C855 C854 1.370 . S
C855 C856 1.403 . S
C856 C855 1.403 . S
C856 C857 1.404 . S
C856 C859 1.539 . S
C857 C853 1.408 . S
C857 C856 1.404 . S
C857 H869 0.930 . S
C858 C854 1.524 . S
C858 H870 0.956 . S
C858 H871 0.961 . S
C858 H872 0.961 . S
C859 C856 1.539 . S
C859 H873 0.958 . S
C859 H874 0.961 . S
C859 H875 0.960 . S
H860 C844 0.931 . S
H861 C849 0.929 . S
H862 C850 0.960 . S
H863 C850 0.962 . S
H864 C850 0.960 . S
H865 C851 0.961 . S
H866 C851 0.961 . S
H867 C851 0.961 . S
H868 C852 0.931 . S
H869 C857 0.930 . S
H870 C858 0.956 . S
H871 C858 0.961 . S
H872 C858 0.961 . S
H873 C859 0.958 . S
H874 C859 0.961 . S
H875 C859 0.960 . S
C876 C877 1.391 . S
C876 C878 1.394 . S
C876 H892 0.931 . S
C877 C876 1.391 . S
C877 C881 1.376 . S
C878 C876 1.394 . S
C878 C879 1.369 . S
C878 C882 1.531 . S
C879 C878 1.369 . S
C879 C880 1.410 . S
C879 C887 1.503 . S
C880 C879 1.410 . S
C880 C881 1.392 . S
C880 C883 1.511 . S
C881 C877 1.376 . S
C881 C880 1.392 . S
C881 H893 0.929 . S
C882 C878 1.531 . S
C882 H894 0.960 . S
C882 H895 0.962 . S
C882 H896 0.960 . S
C883 C880 1.511 . S
C883 H897 0.961 . S
C883 H898 0.961 . S
C883 H899 0.961 . S
C884 C885 1.370 . S
C884 C886 1.363 . S
C884 H900 0.931 . S
C885 C884 1.370 . S
C885 C889 1.408 . S
C886 C884 1.363 . S
C886 C887 1.370 . S
C886 C890 1.524 . S
C887 C879 1.503 . S
C887 C886 1.370 . S
C887 C888 1.403 . S
C888 C887 1.403 . S
C888 C889 1.404 . S
C888 C891 1.539 . S
C889 C885 1.408 . S
C889 C888 1.404 . S
C889 H901 0.930 . S
C890 C886 1.524 . S
C890 H902 0.956 . S
C890 H903 0.961 . S
C890 H904 0.961 . S
C891 C888 1.539 . S
C891 H905 0.958 . S
C891 H906 0.961 . S
C891 H907 0.960 . S
H892 C876 0.931 . S
H893 C881 0.929 . S
H894 C882 0.960 . S
H895 C882 0.962 . S
H896 C882 0.960 . S
H897 C883 0.961 . S
H898 C883 0.961 . S
H899 C883 0.961 . S
H900 C884 0.931 . S
H901 C889 0.930 . S
H902 C890 0.956 . S
H903 C890 0.961 . S
H904 C890 0.961 . S
H905 C891 0.958 . S
H906 C891 0.961 . S
H907 C891 0.960 . S
C908 C909 1.391 . S
C908 C910 1.394 . S
C908 H924 0.931 . S
C909 C908 1.391 . S
C909 C913 1.376 . S
C910 C908 1.394 . S
C910 C911 1.369 . S
C910 C914 1.531 . S
C911 C910 1.369 . S
C911 C912 1.410 . S
C911 C919 1.503 . S
C912 C911 1.410 . S
C912 C913 1.392 . S
C912 C915 1.511 . S
C913 C909 1.376 . S
C913 C912 1.392 . S
C913 H925 0.929 . S
C914 C910 1.531 . S
C914 H926 0.960 . S
C914 H927 0.962 . S
C914 H928 0.960 . S
C915 C912 1.511 . S
C915 H929 0.961 . S
C915 H930 0.961 . S
C915 H931 0.961 . S
C916 C917 1.370 . S
C916 C918 1.363 . S
C916 H932 0.931 . S
C917 C916 1.370 . S
C917 C921 1.408 . S
C918 C916 1.363 . S
C918 C919 1.370 . S
C918 C922 1.524 . S
C919 C911 1.503 . S
C919 C918 1.370 . S
C919 C920 1.403 . S
C920 C919 1.403 . S
C920 C921 1.404 . S
C920 C923 1.539 . S
C921 C917 1.408 . S
C921 C920 1.404 . S
C921 H933 0.930 . S
C922 C918 1.524 . S
C922 H934 0.956 . S
C922 H935 0.961 . S
C922 H936 0.961 . S
C923 C920 1.539 . S
C923 H937 0.958 . S
C923 H938 0.961 . S
C923 H939 0.960 . S
H924 C908 0.931 . S
H925 C913 0.929 . S
H926 C914 0.960 . S
H927 C914 0.962 . S
H928 C914 0.960 . S
H929 C915 0.961 . S
H930 C915 0.961 . S
H931 C915 0.961 . S
H932 C916 0.931 . S
H933 C921 0.930 . S
H934 C922 0.956 . S
H935 C922 0.961 . S
H936 C922 0.961 . S
H937 C923 0.958 . S
H938 C923 0.961 . S
H939 C923 0.960 . S
C940 C941 1.391 . S
C940 C942 1.394 . S
C940 H956 0.931 . S
C941 C940 1.391 . S
C941 C945 1.376 . S
C942 C940 1.394 . S
C942 C943 1.369 . S
C942 C946 1.531 . S
C943 C942 1.369 . S
C943 C944 1.410 . S
C943 C951 1.503 . S
C944 C943 1.410 . S
C944 C945 1.392 . S
C944 C947 1.511 . S
C945 C941 1.376 . S
C945 C944 1.392 . S
C945 H957 0.929 . S
C946 C942 1.531 . S
C946 H958 0.960 . S
C946 H959 0.962 . S
C946 H960 0.960 . S
C947 C944 1.511 . S
C947 H961 0.961 . S
C947 H962 0.961 . S
C947 H963 0.961 . S
C948 C949 1.370 . S
C948 C950 1.363 . S
C948 H964 0.931 . S
C949 C948 1.370 . S
C949 C953 1.408 . S
C950 C948 1.363 . S
C950 C951 1.370 . S
C950 C954 1.524 . S
C951 C943 1.503 . S
C951 C950 1.370 . S
C951 C952 1.403 . S
C952 C951 1.403 . S
C952 C953 1.404 . S
C952 C955 1.539 . S
C953 C949 1.408 . S
C953 C952 1.404 . S
C953 H965 0.930 . S
C954 C950 1.524 . S
C954 H966 0.956 . S
C954 H967 0.961 . S
C954 H968 0.961 . S
C955 C952 1.539 . S
C955 H969 0.958 . S
C955 H970 0.961 . S
C955 H971 0.960 . S
H956 C940 0.931 . S
H957 C945 0.929 . S
H958 C946 0.960 . S
H959 C946 0.962 . S
H960 C946 0.960 . S
H961 C947 0.961 . S
H962 C947 0.961 . S
H963 C947 0.961 . S
H964 C948 0.931 . S
H965 C953 0.930 . S
H966 C954 0.956 . S
H967 C954 0.961 . S
H968 C954 0.961 . S
H969 C955 0.958 . S
H970 C955 0.961 . S
H971 C955 0.960 . S
C972 C973 1.391 . S
C972 C974 1.394 . S
C972 H988 0.931 . S
C973 C972 1.391 . S
C973 C977 1.376 . S
C974 C972 1.394 . S
C974 C975 1.369 . S
C974 C978 1.531 . S
C975 C974 1.369 . S
C975 C976 1.410 . S
C975 C983 1.503 . S
C976 C975 1.410 . S
C976 C977 1.392 . S
C976 C979 1.511 . S
C977 C973 1.376 . S
C977 C976 1.392 . S
C977 H989 0.929 . S
C978 C974 1.531 . S
C978 H990 0.960 . S
C978 H991 0.962 . S
C978 H992 0.960 . S
C979 C976 1.511 . S
C979 H993 0.961 1_554 S
C979 H994 0.961 . S
C979 H995 0.961 1_554 S
C980 C981 1.370 . S
C980 C982 1.363 . S
C980 H996 0.931 . S
C981 C980 1.370 . S
C981 C985 1.408 . S
C982 C980 1.363 . S
C982 C983 1.370 . S
C982 C986 1.524 . S
C983 C975 1.503 . S
C983 C982 1.370 . S
C983 C984 1.403 . S
C984 C983 1.403 . S
C984 C985 1.404 . S
C984 C987 1.539 . S
C985 C981 1.408 . S
C985 C984 1.404 . S
C985 H997 0.930 . S
C986 C982 1.524 . S
C986 H998 0.956 . S
C986 H999 0.961 . S
C986 H1000 0.961 . S
C987 C984 1.539 . S
C987 H1001 0.958 . S
C987 H1002 0.961 . S
C987 H1003 0.960 . S
H988 C972 0.931 . S
H989 C977 0.929 . S
H990 C978 0.960 . S
H991 C978 0.962 . S
H992 C978 0.960 . S
H993 C979 0.961 1_556 S
H994 C979 0.961 . S
H995 C979 0.961 1_556 S
H996 C980 0.931 . S
H997 C985 0.930 . S
H998 C986 0.956 . S
H999 C986 0.961 . S
H1000 C986 0.961 . S
H1001 C987 0.958 . S
H1002 C987 0.961 . S
H1003 C987 0.960 . S
C1004 C1005 1.391 . S
C1004 C1006 1.394 . S
C1004 H1020 0.931 . S
C1005 C1004 1.391 . S
C1005 C1009 1.376 . S
C1006 C1004 1.394 . S
C1006 C1007 1.369 . S
C1006 C1010 1.531 . S
C1007 C1006 1.369 . S
C1007 C1008 1.410 . S
C1007 C1015 1.503 . S
C1008 C1007 1.410 . S
C1008 C1009 1.392 . S
C1008 C1011 1.511 . S
C1009 C1005 1.376 . S
C1009 C1008 1.392 . S
C1009 H1021 0.929 . S
C1010 C1006 1.531 . S
C1010 H1022 0.960 . S
C1010 H1023 0.962 . S
C1010 H1024 0.960 . S
C1011 C1008 1.511 . S
C1011 H1025 0.961 . S
C1011 H1026 0.961 . S
C1011 H1027 0.961 . S
C1012 C1013 1.370 . S
C1012 C1014 1.363 . S
C1012 H1028 0.931 . S
C1013 C1012 1.370 . S
C1013 C1017 1.408 . S
C1014 C1012 1.363 . S
C1014 C1015 1.370 . S
C1014 C1018 1.524 . S
C1015 C1007 1.503 . S
C1015 C1014 1.370 . S
C1015 C1016 1.403 . S
C1016 C1015 1.403 . S
C1016 C1017 1.404 . S
C1016 C1019 1.539 . S
C1017 C1013 1.408 . S
C1017 C1016 1.404 . S
C1017 H1029 0.930 . S
C1018 C1014 1.524 . S
C1018 H1030 0.956 . S
C1018 H1031 0.961 . S
C1018 H1032 0.961 1_554 S
C1019 C1016 1.539 . S
C1019 H1033 0.958 . S
C1019 H1034 0.961 . S
C1019 H1035 0.960 . S
H1020 C1004 0.931 . S
H1021 C1009 0.929 . S
H1022 C1010 0.960 . S
H1023 C1010 0.962 . S
H1024 C1010 0.960 . S
H1025 C1011 0.961 . S
H1026 C1011 0.961 . S
H1027 C1011 0.961 . S
H1028 C1012 0.931 . S
H1029 C1017 0.930 . S
H1030 C1018 0.956 . S
H1031 C1018 0.961 . S
H1032 C1018 0.961 1_556 S
H1033 C1019 0.958 . S
H1034 C1019 0.961 . S
H1035 C1019 0.960 . S
C1036 C1037 1.391 . S
C1036 C1038 1.394 . S
C1036 H1052 0.931 . S
C1037 C1036 1.391 . S
C1037 C1041 1.376 . S
C1038 C1036 1.394 . S
C1038 C1039 1.369 . S
C1038 C1042 1.531 . S
C1039 C1038 1.369 . S
C1039 C1040 1.410 . S
C1039 C1047 1.503 . S
C1040 C1039 1.410 . S
C1040 C1041 1.392 . S
C1040 C1043 1.511 . S
C1041 C1037 1.376 . S
C1041 C1040 1.392 . S
C1041 H1053 0.929 . S
C1042 C1038 1.531 . S
C1042 H1054 0.960 . S
C1042 H1055 0.962 . S
C1042 H1056 0.960 . S
C1043 C1040 1.511 . S
C1043 H1057 0.961 . S
C1043 H1058 0.961 . S
C1043 H1059 0.961 . S
C1044 C1045 1.370 . S
C1044 C1046 1.363 . S
C1044 H1060 0.931 . S
C1045 C1044 1.370 . S
C1045 C1049 1.408 . S
C1046 C1044 1.363 . S
C1046 C1047 1.370 . S
C1046 C1050 1.524 . S
C1047 C1039 1.503 . S
C1047 C1046 1.370 . S
C1047 C1048 1.403 . S
C1048 C1047 1.403 . S
C1048 C1049 1.404 . S
C1048 C1051 1.539 . S
C1049 C1045 1.408 . S
C1049 C1048 1.404 . S
C1049 H1061 0.930 . S
C1050 C1046 1.524 . S
C1050 H1062 0.956 . S
C1050 H1063 0.961 . S
C1050 H1064 0.961 . S
C1051 C1048 1.539 . S
C1051 H1065 0.958 1_554 S
C1051 H1066 0.961 1_554 S
C1051 H1067 0.960 . S
H1052 C1036 0.931 . S
H1053 C1041 0.929 . S
H1054 C1042 0.960 . S
H1055 C1042 0.962 . S
H1056 C1042 0.960 . S
H1057 C1043 0.961 . S
H1058 C1043 0.961 . S
H1059 C1043 0.961 . S
H1060 C1044 0.931 . S
H1061 C1049 0.930 . S
H1062 C1050 0.956 . S
H1063 C1050 0.961 . S
H1064 C1050 0.961 . S
H1065 C1051 0.958 1_556 S
H1066 C1051 0.961 1_556 S
H1067 C1051 0.960 . S
C1068 C1069 1.391 . S
C1068 C1070 1.394 . S
C1068 H1084 0.931 . S
C1069 C1068 1.391 . S
C1069 C1073 1.376 . S
C1070 C1068 1.394 . S
C1070 C1071 1.369 . S
C1070 C1074 1.531 . S
C1071 C1070 1.369 . S
C1071 C1072 1.410 . S
C1071 C1079 1.503 . S
C1072 C1071 1.410 . S
C1072 C1073 1.392 . S
C1072 C1075 1.511 . S
C1073 C1069 1.376 . S
C1073 C1072 1.392 . S
C1073 H1085 0.929 . S
C1074 C1070 1.531 . S
C1074 H1086 0.960 . S
C1074 H1087 0.962 . S
C1074 H1088 0.960 . S
C1075 C1072 1.511 . S
C1075 H1089 0.961 . S
C1075 H1090 0.961 . S
C1075 H1091 0.961 . S
C1076 C1077 1.370 . S
C1076 C1078 1.363 . S
C1076 H1092 0.931 . S
C1077 C1076 1.370 . S
C1077 C1081 1.408 . S
C1078 C1076 1.363 . S
C1078 C1079 1.370 . S
C1078 C1082 1.524 . S
C1079 C1071 1.503 . S
C1079 C1078 1.370 . S
C1079 C1080 1.403 . S
C1080 C1079 1.403 . S
C1080 C1081 1.404 . S
C1080 C1083 1.539 . S
C1081 C1077 1.408 . S
C1081 C1080 1.404 . S
C1081 H1093 0.930 . S
C1082 C1078 1.524 . S
C1082 H1094 0.956 . S
C1082 H1095 0.961 . S
C1082 H1096 0.961 . S
C1083 C1080 1.539 . S
C1083 H1097 0.958 . S
C1083 H1098 0.961 . S
C1083 H1099 0.960 . S
H1084 C1068 0.931 . S
H1085 C1073 0.929 . S
H1086 C1074 0.960 . S
H1087 C1074 0.962 . S
H1088 C1074 0.960 . S
H1089 C1075 0.961 . S
H1090 C1075 0.961 . S
H1091 C1075 0.961 . S
H1092 C1076 0.931 . S
H1093 C1081 0.930 . S
H1094 C1082 0.956 . S
H1095 C1082 0.961 . S
H1096 C1082 0.961 . S
H1097 C1083 0.958 . S
H1098 C1083 0.961 . S
H1099 C1083 0.960 . S
C1100 C1101 1.391 . S
C1100 C1102 1.394 . S
C1100 H1116 0.931 . S
C1101 C1100 1.391 . S
C1101 C1105 1.376 . S
C1102 C1100 1.394 . S
C1102 C1103 1.369 . S
C1102 C1106 1.531 . S
C1103 C1102 1.369 . S
C1103 C1104 1.410 . S
C1103 C1111 1.503 . S
C1104 C1103 1.410 . S
C1104 C1105 1.392 . S
C1104 C1107 1.511 . S
C1105 C1101 1.376 . S
C1105 C1104 1.392 . S
C1105 H1117 0.929 . S
C1106 C1102 1.531 . S
C1106 H1118 0.960 . S
C1106 H1119 0.962 . S
C1106 H1120 0.960 . S
C1107 C1104 1.511 . S
C1107 H1121 0.961 . S
C1107 H1122 0.961 . S
C1107 H1123 0.961 . S
C1108 C1109 1.370 . S
C1108 C1110 1.363 . S
C1108 H1124 0.931 . S
C1109 C1108 1.370 . S
C1109 C1113 1.408 . S
C1110 C1108 1.363 . S
C1110 C1111 1.370 . S
C1110 C1114 1.524 . S
C1111 C1103 1.503 . S
C1111 C1110 1.370 . S
C1111 C1112 1.403 . S
C1112 C1111 1.403 . S
C1112 C1113 1.404 . S
C1112 C1115 1.539 . S
C1113 C1109 1.408 . S
C1113 C1112 1.404 . S
C1113 H1125 0.930 . S
C1114 C1110 1.524 . S
C1114 H1126 0.956 . S
C1114 H1127 0.961 . S
C1114 H1128 0.961 . S
C1115 C1112 1.539 . S
C1115 H1129 0.958 . S
C1115 H1130 0.961 . S
C1115 H1131 0.960 . S
H1116 C1100 0.931 . S
H1117 C1105 0.929 . S
H1118 C1106 0.960 . S
H1119 C1106 0.962 . S
H1120 C1106 0.960 . S
H1121 C1107 0.961 . S
H1122 C1107 0.961 . S
H1123 C1107 0.961 . S
H1124 C1108 0.931 . S
H1125 C1113 0.930 . S
H1126 C1114 0.956 . S
H1127 C1114 0.961 . S
H1128 C1114 0.961 . S
H1129 C1115 0.958 . S
H1130 C1115 0.961 . S
H1131 C1115 0.960 . S
C1132 C1133 1.391 . S
C1132 C1134 1.394 . S
C1132 H1148 0.931 . S
C1133 C1132 1.391 . S
C1133 C1137 1.376 . S
C1134 C1132 1.394 . S
C1134 C1135 1.369 . S
C1134 C1138 1.531 . S
C1135 C1134 1.369 . S
C1135 C1136 1.410 . S
C1135 C1143 1.503 . S
C1136 C1135 1.410 . S
C1136 C1137 1.392 . S
C1136 C1139 1.511 . S
C1137 C1133 1.376 . S
C1137 C1136 1.392 . S
C1137 H1149 0.929 . S
C1138 C1134 1.531 . S
C1138 H1150 0.960 . S
C1138 H1151 0.962 . S
C1138 H1152 0.960 . S
C1139 C1136 1.511 . S
C1139 H1153 0.961 . S
C1139 H1154 0.961 . S
C1139 H1155 0.961 . S
C1140 C1141 1.370 . S
C1140 C1142 1.363 . S
C1140 H1156 0.931 . S
C1141 C1140 1.370 . S
C1141 C1145 1.408 . S
C1142 C1140 1.363 . S
C1142 C1143 1.370 . S
C1142 C1146 1.524 . S
C1143 C1135 1.503 . S
C1143 C1142 1.370 . S
C1143 C1144 1.403 . S
C1144 C1143 1.403 . S
C1144 C1145 1.404 . S
C1144 C1147 1.539 . S
C1145 C1141 1.408 . S
C1145 C1144 1.404 . S
C1145 H1157 0.930 . S
C1146 C1142 1.524 . S
C1146 H1158 0.956 . S
C1146 H1159 0.961 . S
C1146 H1160 0.961 . S
C1147 C1144 1.539 . S
C1147 H1161 0.958 . S
C1147 H1162 0.961 . S
C1147 H1163 0.960 . S
H1148 C1132 0.931 . S
H1149 C1137 0.929 . S
H1150 C1138 0.960 . S
H1151 C1138 0.962 . S
H1152 C1138 0.960 . S
H1153 C1139 0.961 . S
H1154 C1139 0.961 . S
H1155 C1139 0.961 . S
H1156 C1140 0.931 . S
H1157 C1145 0.930 . S
H1158 C1146 0.956 . S
H1159 C1146 0.961 . S
H1160 C1146 0.961 . S
H1161 C1147 0.958 . S
H1162 C1147 0.961 . S
H1163 C1147 0.960 . S
C1164 C1165 1.391 . S
C1164 C1166 1.394 . S
C1164 H1180 0.931 . S
C1165 C1164 1.391 . S
C1165 C1169 1.376 . S
C1166 C1164 1.394 . S
C1166 C1167 1.369 . S
C1166 C1170 1.531 . S
C1167 C1166 1.369 . S
C1167 C1168 1.410 . S
C1167 C1175 1.503 . S
C1168 C1167 1.410 . S
C1168 C1169 1.392 . S
C1168 C1171 1.511 . S
C1169 C1165 1.376 . S
C1169 C1168 1.392 . S
C1169 H1181 0.929 . S
C1170 C1166 1.531 . S
C1170 H1182 0.960 . S
C1170 H1183 0.962 . S
C1170 H1184 0.960 . S
C1171 C1168 1.511 . S
C1171 H1185 0.961 . S
C1171 H1186 0.961 . S
C1171 H1187 0.961 . S
C1172 C1173 1.370 . S
C1172 C1174 1.363 . S
C1172 H1188 0.931 . S
C1173 C1172 1.370 . S
C1173 C1177 1.408 . S
C1174 C1172 1.363 . S
C1174 C1175 1.370 . S
C1174 C1178 1.524 . S
C1175 C1167 1.503 . S
C1175 C1174 1.370 . S
C1175 C1176 1.403 . S
C1176 C1175 1.403 . S
C1176 C1177 1.404 . S
C1176 C1179 1.539 . S
C1177 C1173 1.408 . S
C1177 C1176 1.404 . S
C1177 H1189 0.930 . S
C1178 C1174 1.524 . S
C1178 H1190 0.956 . S
C1178 H1191 0.961 . S
C1178 H1192 0.973 . S
C1179 C1176 1.539 . S
C1179 H1193 0.958 . S
C1179 H1194 0.961 . S
C1179 H1195 0.960 . S
H1180 C1164 0.931 . S
H1181 C1169 0.929 . S
H1182 C1170 0.960 . S
H1183 C1170 0.962 . S
H1184 C1170 0.960 . S
H1185 C1171 0.961 . S
H1186 C1171 0.961 . S
H1187 C1171 0.961 . S
H1188 C1172 0.931 . S
H1189 C1177 0.930 . S
H1190 C1178 0.956 . S
H1191 C1178 0.961 . S
H1192 C1178 0.973 . S
H1193 C1179 0.958 . S
H1194 C1179 0.961 . S
H1195 C1179 0.960 . S
C1196 C1197 1.391 . S
C1196 C1198 1.394 . S
C1196 H1212 0.931 . S
C1197 C1196 1.391 . S
C1197 C1201 1.376 . S
C1198 C1196 1.394 . S
C1198 C1199 1.369 . S
C1198 C1202 1.531 . S
C1199 C1198 1.369 . S
C1199 C1200 1.410 . S
C1199 C1207 1.503 . S
C1200 C1199 1.410 . S
C1200 C1201 1.392 . S
C1200 C1203 1.511 . S
C1201 C1197 1.376 . S
C1201 C1200 1.392 . S
C1201 H1213 0.929 . S
C1202 C1198 1.531 . S
C1202 H1214 0.960 . S
C1202 H1215 0.962 . S
C1202 H1216 0.960 1_556 S
C1203 C1200 1.511 . S
C1203 H1217 0.961 . S
C1203 H1218 0.961 . S
C1203 H1219 0.961 . S
C1204 C1205 1.370 . S
C1204 C1206 1.363 . S
C1204 H1220 0.931 . S
C1205 C1204 1.370 . S
C1205 C1209 1.408 . S
C1206 C1204 1.363 . S
C1206 C1207 1.370 . S
C1206 C1210 1.524 . S
C1207 C1199 1.503 . S
C1207 C1206 1.370 . S
C1207 C1208 1.403 . S
C1208 C1207 1.403 . S
C1208 C1209 1.404 . S
C1208 C1211 1.539 . S
C1209 C1205 1.408 . S
C1209 C1208 1.404 . S
C1209 H1221 0.930 . S
C1210 C1206 1.524 . S
C1210 H1222 0.956 . S
C1210 H1223 0.961 . S
C1210 H1224 0.961 . S
C1211 C1208 1.539 . S
C1211 H1225 0.958 . S
C1211 H1226 0.961 . S
C1211 H1227 0.960 . S
H1212 C1196 0.931 . S
H1213 C1201 0.929 . S
H1214 C1202 0.960 . S
H1215 C1202 0.962 . S
H1216 C1202 0.960 1_554 S
H1217 C1203 0.961 . S
H1218 C1203 0.961 . S
H1219 C1203 0.961 . S
H1220 C1204 0.931 . S
H1221 C1209 0.930 . S
H1222 C1210 0.956 . S
H1223 C1210 0.961 . S
H1224 C1210 0.961 . S
H1225 C1211 0.958 . S
H1226 C1211 0.961 . S
H1227 C1211 0.960 . S
C1228 C1229 1.391 . S
C1228 C1230 1.394 . S
C1228 H1244 0.931 . S
C1229 C1228 1.391 . S
C1229 C1233 1.376 . S
C1230 C1228 1.394 . S
C1230 C1231 1.369 . S
C1230 C1234 1.531 . S
C1231 C1230 1.369 . S
C1231 C1232 1.410 . S
C1231 C1239 1.503 . S
C1232 C1231 1.410 . S
C1232 C1233 1.392 . S
C1232 C1235 1.511 . S
C1233 C1229 1.376 . S
C1233 C1232 1.392 . S
C1233 H1245 0.929 . S
C1234 C1230 1.531 . S
C1234 H1246 0.960 . S
C1234 H1247 0.962 . S
C1234 H1248 0.960 . S
C1235 C1232 1.511 . S
C1235 H1249 0.961 1_556 S
C1235 H1250 0.961 . S
C1235 H1251 0.961 . S
C1236 C1237 1.370 . S
C1236 C1238 1.363 . S
C1236 H1252 0.931 . S
C1237 C1236 1.370 . S
C1237 C1241 1.408 . S
C1238 C1236 1.363 . S
C1238 C1239 1.370 . S
C1238 C1242 1.524 . S
C1239 C1231 1.503 . S
C1239 C1238 1.370 . S
C1239 C1240 1.403 . S
C1240 C1239 1.403 . S
C1240 C1241 1.404 . S
C1240 C1243 1.539 . S
C1241 C1237 1.408 . S
C1241 C1240 1.404 . S
C1241 H1253 0.930 . S
C1242 C1238 1.524 . S
C1242 H1254 0.956 . S
C1242 H1255 0.961 . S
C1242 H1256 0.961 . S
C1243 C1240 1.539 . S
C1243 H1257 0.958 . S
C1243 H1258 0.961 . S
C1243 H1259 0.960 . S
H1244 C1228 0.931 . S
H1245 C1233 0.929 . S
H1246 C1234 0.960 . S
H1247 C1234 0.962 . S
H1248 C1234 0.960 . S
H1249 C1235 0.961 1_554 S
H1250 C1235 0.961 . S
H1251 C1235 0.961 . S
H1252 C1236 0.931 . S
H1253 C1241 0.930 . S
H1254 C1242 0.956 . S
H1255 C1242 0.961 . S
H1256 C1242 0.961 . S
H1257 C1243 0.958 . S
H1258 C1243 0.961 . S
H1259 C1243 0.960 . S
C1260 C1261 1.391 . S
C1260 C1262 1.394 . S
C1260 H1276 0.931 . S
C1261 C1260 1.391 . S
C1261 C1265 1.376 . S
C1262 C1260 1.394 . S
C1262 C1263 1.369 . S
C1262 C1266 1.531 . S
C1263 C1262 1.369 . S
C1263 C1264 1.410 . S
C1263 C1271 1.503 . S
C1264 C1263 1.410 . S
C1264 C1265 1.392 . S
C1264 C1267 1.511 . S
C1265 C1261 1.376 . S
C1265 C1264 1.392 . S
C1265 H1277 0.929 . S
C1266 C1262 1.531 . S
C1266 H1278 0.960 . S
C1266 H1279 0.962 . S
C1266 H1280 0.960 . S
C1267 C1264 1.511 . S
C1267 H1281 0.961 . S
C1267 H1282 0.961 . S
C1267 H1283 0.961 . S
C1268 C1269 1.370 . S
C1268 C1270 1.363 . S
C1268 H1284 0.931 . S
C1269 C1268 1.370 . S
C1269 C1273 1.408 . S
C1270 C1268 1.363 . S
C1270 C1271 1.370 . S
C1270 C1274 1.524 . S
C1271 C1263 1.503 . S
C1271 C1270 1.370 . S
C1271 C1272 1.403 . S
C1272 C1271 1.403 . S
C1272 C1273 1.404 . S
C1272 C1275 1.539 . S
C1273 C1269 1.408 . S
C1273 C1272 1.404 . S
C1273 H1285 0.930 . S
C1274 C1270 1.524 . S
C1274 H1286 0.956 . S
C1274 H1287 0.961 . S
C1274 H1288 0.961 . S
C1275 C1272 1.539 . S
C1275 H1289 0.958 . S
C1275 H1290 0.961 . S
C1275 H1291 0.960 . S
H1276 C1260 0.931 . S
H1277 C1265 0.929 . S
H1278 C1266 0.960 . S
H1279 C1266 0.962 . S
H1280 C1266 0.960 . S
H1281 C1267 0.961 . S
H1282 C1267 0.961 . S
H1283 C1267 0.961 . S
H1284 C1268 0.931 . S
H1285 C1273 0.930 . S
H1286 C1274 0.956 . S
H1287 C1274 0.961 . S
H1288 C1274 0.961 . S
H1289 C1275 0.958 . S
H1290 C1275 0.961 . S
H1291 C1275 0.960 . S
C1292 C1293 1.391 . S
C1292 C1294 1.394 . S
C1292 H1308 0.931 . S
C1293 C1292 1.391 . S
C1293 C1297 1.376 . S
C1294 C1292 1.394 . S
C1294 C1295 1.369 . S
C1294 C1298 1.531 . S
C1295 C1294 1.369 . S
C1295 C1296 1.410 . S
C1295 C1303 1.503 . S
C1296 C1295 1.410 . S
C1296 C1297 1.392 . S
C1296 C1299 1.511 . S
C1297 C1293 1.376 . S
C1297 C1296 1.392 . S
C1297 H1309 0.929 . S
C1298 C1294 1.531 . S
C1298 H1310 0.960 . S
C1298 H1311 0.962 . S
C1298 H1312 0.960 . S
C1299 C1296 1.511 . S
C1299 H1313 0.961 . S
C1299 H1314 0.961 . S
C1299 H1315 0.961 . S
C1300 C1301 1.370 . S
C1300 C1302 1.363 . S
C1300 H1316 0.931 . S
C1301 C1300 1.370 . S
C1301 C1305 1.408 . S
C1302 C1300 1.363 . S
C1302 C1303 1.370 . S
C1302 C1306 1.524 . S
C1303 C1295 1.503 . S
C1303 C1302 1.370 . S
C1303 C1304 1.403 . S
C1304 C1303 1.403 . S
C1304 C1305 1.404 . S
C1304 C1307 1.539 . S
C1305 C1301 1.408 . S
C1305 C1304 1.404 . S
C1305 H1317 0.930 . S
C1306 C1302 1.524 . S
C1306 H1318 0.956 . S
C1306 H1319 0.961 . S
C1306 H1320 0.961 . S
C1307 C1304 1.539 . S
C1307 H1321 0.958 . S
C1307 H1322 0.961 . S
C1307 H1323 0.960 . S
H1308 C1292 0.931 . S
H1309 C1297 0.929 . S
H1310 C1298 0.960 . S
H1311 C1298 0.962 . S
H1312 C1298 0.960 . S
H1313 C1299 0.961 . S
H1314 C1299 0.961 . S
H1315 C1299 0.961 . S
H1316 C1300 0.931 . S
H1317 C1305 0.930 . S
H1318 C1306 0.956 . S
H1319 C1306 0.961 . S
H1320 C1306 0.961 . S
H1321 C1307 0.958 . S
H1322 C1307 0.961 . S
H1323 C1307 0.960 . S
C1324 C1325 1.391 . S
C1324 C1326 1.394 . S
C1324 H1340 0.931 . S
C1325 C1324 1.391 . S
C1325 C1329 1.376 . S
C1326 C1324 1.394 . S
C1326 C1327 1.369 . S
C1326 C1330 1.531 . S
C1327 C1326 1.369 . S
C1327 C1328 1.410 . S
C1327 C1335 1.503 . S
C1328 C1327 1.410 . S
C1328 C1329 1.392 . S
C1328 C1331 1.511 . S
C1329 C1325 1.376 . S
C1329 C1328 1.392 . S
C1329 H1341 0.929 . S
C1330 C1326 1.531 . S
C1330 H1342 0.960 . S
C1330 H1343 0.962 . S
C1330 H1344 0.960 . S
C1331 C1328 1.511 . S
C1331 H1345 0.961 . S
C1331 H1346 0.961 . S
C1331 H1347 0.961 . S
C1332 C1333 1.370 . S
C1332 C1334 1.363 . S
C1332 H1348 0.931 . S
C1333 C1332 1.370 . S
C1333 C1337 1.408 . S
C1334 C1332 1.363 . S
C1334 C1335 1.370 . S
C1334 C1338 1.524 . S
C1335 C1327 1.503 . S
C1335 C1334 1.370 . S
C1335 C1336 1.403 . S
C1336 C1335 1.403 . S
C1336 C1337 1.404 . S
C1336 C1339 1.539 . S
C1337 C1333 1.408 . S
C1337 C1336 1.404 . S
C1337 H1349 0.930 . S
C1338 C1334 1.524 . S
C1338 H1350 0.956 . S
C1338 H1351 0.961 . S
C1338 H1352 0.961 . S
C1339 C1336 1.539 . S
C1339 H1353 0.958 . S
C1339 H1354 0.961 . S
C1339 H1355 0.960 . S
H1340 C1324 0.931 . S
H1341 C1329 0.929 . S
H1342 C1330 0.960 . S
H1343 C1330 0.962 . S
H1344 C1330 0.960 . S
H1345 C1331 0.961 . S
H1346 C1331 0.961 . S
H1347 C1331 0.961 . S
H1348 C1332 0.931 . S
H1349 C1337 0.930 . S
H1350 C1338 0.956 . S
H1351 C1338 0.961 . S
H1352 C1338 0.961 . S
H1353 C1339 0.958 . S
H1354 C1339 0.961 . S
H1355 C1339 0.960 . S
C397 C172 0.930 . S
C405 C7 0.920 . S
C429 C40 0.885 . S
C437 C106 0.921 . S
C461 C73 0.934 . S
C469 C139 0.917 . S
C493 C205 0.936 . S
C501 C370 0.903 . S
C525 C304 0.942 . S
C533 C238 0.907 . S
C557 C337 0.937 . S
C565 C271 0.903 . S
C589 C21 2.154 . S
C597 C219 2.134 . S
C621 C54 2.171 . S
C629 C252 2.133 . S
C653 C285 2.129 . S
C661 C87 2.146 . S
C685 C318 2.176 . S
C693 C120 2.127 . S
C717 C153 2.120 . S
C725 C351 2.150 . S
C749 C186 2.168 . S
C757 C384 2.134 . S
C781 N145 1.393 . S
C789 N13 1.430 . S
C813 N178 1.480 . S
C821 N46 1.442 . S
C845 N112 1.443 . S
C853 N79 1.467 . S
C877 N211 1.447 . S
C885 N343 1.426 . S
C909 N244 1.481 . S
C917 N376 1.436 . S
C941 N310 1.493 . S
C949 N277 1.465 . S
C973 C18 0.775 . S
C981 N68 0.773 . S
C1005 C51 0.792 . S
C1013 N2 0.786 . S
C1037 N35 0.805 . S
C1045 C84 0.810 . S
C1069 C117 0.849 . S
C1077 N134 0.828 . S
C1101 N167 0.838 . S
C1109 C150 0.818 . S
C1133 N101 0.841 . S
C1141 C183 0.819 . S
C1165 N266 0.754 . S
C1173 C216 0.794 . S
C1197 C249 0.777 . S
C1205 N200 0.769 . S
C1229 N233 0.722 . S
C1237 C282 0.791 . S
C1261 N332 0.723 . S
C1269 C315 0.794 . S
C1293 N365 0.848 . S
C1301 C348 0.824 . S
C1325 C381 0.818 . S
C1333 N299 0.815 . S
