# Generated by pormake.
# Topology zfw, (5)-cn, num edge types: 1
# Building blocks:
#     Node 0, Type 0, BuildingBlock: BEQFEK_clean_sbu_0, # of connection points: 5
#     Node 1, Type 0, BuildingBlock: BEQFEK_clean_sbu_0, # of connection points: 5
#     Node 2, Type 0, BuildingBlock: BEQFEK_clean_sbu_0, # of connection points: 5
#     Node 3, Type 0, BuildingBlock: BEQFEK_clean_sbu_0, # of connection points: 5
#     Node 4, Type 0, BuildingBlock: BEQFEK_clean_sbu_0, # of connection points: 5
#     Node 5, Type 0, BuildingBlock: BEQFEK_clean_sbu_0, # of connection points: 5
#     Node 6, Type 0, BuildingBlock: BEQFEK_clean_sbu_0, # of connection points: 5
#     Node 7, Type 0, BuildingBlock: BEQFEK_clean_sbu_0, # of connection points: 5
#     Node 8, Type 0, BuildingBlock: BEQFEK_clean_sbu_0, # of connection points: 5
#     Node 9, Type 0, BuildingBlock: BEQFEK_clean_sbu_0, # of connection points: 5
#     Node 10, Type 0, BuildingBlock: BEQFEK_clean_sbu_0, # of connection points: 5
#     Node 11, Type 0, BuildingBlock: BEQFEK_clean_sbu_0, # of connection points: 5
#     Node 12, Type 0, BuildingBlock: BEQFEK_clean_sbu_0, # of connection points: 5
#     Node 13, Type 0, BuildingBlock: BEQFEK_clean_sbu_0, # of connection points: 5
#     Node 14, Type 0, BuildingBlock: BEQFEK_clean_sbu_0, # of connection points: 5
#     Node 15, Type 0, BuildingBlock: BEQFEK_clean_sbu_0, # of connection points: 5
#     Edge 16, Type (0, 0), BuildingBlock: ZUJKAS_clean_linker_0, # of connection points: 2
#     Edge 17, Type (0, 0), BuildingBlock: ZUJKAS_clean_linker_0, # of connection points: 2
#     Edge 18, Type (0, 0), BuildingBlock: ZUJKAS_clean_linker_0, # of connection points: 2
#     Edge 19, Type (0, 0), BuildingBlock: ZUJKAS_clean_linker_0, # of connection points: 2
#     Edge 20, Type (0, 0), BuildingBlock: ZUJKAS_clean_linker_0, # of connection points: 2
#     Edge 21, Type (0, 0), BuildingBlock: ZUJKAS_clean_linker_0, # of connection points: 2
#     Edge 22, Type (0, 0), BuildingBlock: ZUJKAS_clean_linker_0, # of connection points: 2
#     Edge 23, Type (0, 0), BuildingBlock: ZUJKAS_clean_linker_0, # of connection points: 2
#     Edge 24, Type (0, 0), BuildingBlock: ZUJKAS_clean_linker_0, # of connection points: 2
#     Edge 25, Type (0, 0), BuildingBlock: ZUJKAS_clean_linker_0, # of connection points: 2
#     Edge 26, Type (0, 0), BuildingBlock: ZUJKAS_clean_linker_0, # of connection points: 2
#     Edge 27, Type (0, 0), BuildingBlock: ZUJKAS_clean_linker_0, # of connection points: 2
#     Edge 28, Type (0, 0), BuildingBlock: ZUJKAS_clean_linker_0, # of connection points: 2
#     Edge 29, Type (0, 0), BuildingBlock: ZUJKAS_clean_linker_0, # of connection points: 2
#     Edge 30, Type (0, 0), BuildingBlock: ZUJKAS_clean_linker_0, # of connection points: 2
#     Edge 31, Type (0, 0), BuildingBlock: ZUJKAS_clean_linker_0, # of connection points: 2
#     Edge 32, Type (0, 0), BuildingBlock: ZUJKAS_clean_linker_0, # of connection points: 2
#     Edge 33, Type (0, 0), BuildingBlock: ZUJKAS_clean_linker_0, # of connection points: 2
#     Edge 34, Type (0, 0), BuildingBlock: ZUJKAS_clean_linker_0, # of connection points: 2
#     Edge 35, Type (0, 0), BuildingBlock: ZUJKAS_clean_linker_0, # of connection points: 2
#     Edge 36, Type (0, 0), BuildingBlock: ZUJKAS_clean_linker_0, # of connection points: 2
#     Edge 37, Type (0, 0), BuildingBlock: ZUJKAS_clean_linker_0, # of connection points: 2
#     Edge 38, Type (0, 0), BuildingBlock: ZUJKAS_clean_linker_0, # of connection points: 2
#     Edge 39, Type (0, 0), BuildingBlock: ZUJKAS_clean_linker_0, # of connection points: 2
#     Edge 40, Type (0, 0), BuildingBlock: ZUJKAS_clean_linker_0, # of connection points: 2
#     Edge 41, Type (0, 0), BuildingBlock: ZUJKAS_clean_linker_0, # of connection points: 2
#     Edge 42, Type (0, 0), BuildingBlock: ZUJKAS_clean_linker_0, # of connection points: 2
#     Edge 43, Type (0, 0), BuildingBlock: ZUJKAS_clean_linker_0, # of connection points: 2
#     Edge 44, Type (0, 0), BuildingBlock: ZUJKAS_clean_linker_0, # of connection points: 2
#     Edge 45, Type (0, 0), BuildingBlock: ZUJKAS_clean_linker_0, # of connection points: 2
#     Edge 46, Type (0, 0), BuildingBlock: ZUJKAS_clean_linker_0, # of connection points: 2
#     Edge 47, Type (0, 0), BuildingBlock: ZUJKAS_clean_linker_0, # of connection points: 2
#     Edge 48, Type (0, 0), BuildingBlock: ZUJKAS_clean_linker_0, # of connection points: 2
#     Edge 49, Type (0, 0), BuildingBlock: ZUJKAS_clean_linker_0, # of connection points: 2
#     Edge 50, Type (0, 0), BuildingBlock: ZUJKAS_clean_linker_0, # of connection points: 2
#     Edge 51, Type (0, 0), BuildingBlock: ZUJKAS_clean_linker_0, # of connection points: 2
#     Edge 52, Type (0, 0), BuildingBlock: ZUJKAS_clean_linker_0, # of connection points: 2
#     Edge 53, Type (0, 0), BuildingBlock: ZUJKAS_clean_linker_0, # of connection points: 2
#     Edge 54, Type (0, 0), BuildingBlock: ZUJKAS_clean_linker_0, # of connection points: 2
#     Edge 55, Type (0, 0), BuildingBlock: ZUJKAS_clean_linker_0, # of connection points: 2
# Relax obj value: 0.354
# Max RMSD: 0.220
# Mean RMSD: 0.220
data_MOF--net-zfw--node1-BEQFEK_clean_sbu_0--edge1-ZUJKAS_clean_linker_0
_symmetry_space_group_name_H-M    P1
_symmetry_Int_Tables_number       1
_symmetry_cell_setting            triclinic
loop_
_symmetry_equiv_pos_as_xyz
'x, y, z'
_cell_length_a     89.627688
_cell_length_b     89.612783
_cell_length_c     21.885733
_cell_angle_alpha  89.976431
_cell_angle_beta   90.000456
_cell_angle_gamma 90.008303
loop_
_atom_site_label
_atom_site_type_symbol
_atom_site_fract_x
_atom_site_fract_y
_atom_site_fract_z
_atom_type_partial_charge
Co0 Co 0.02465 0.09687 0.30198 0.0
Co1 Co 0.02509 0.11227 0.17425 0.0
C2 C 0.00224 0.12005 0.26842 0.0
O3 O 0.00765 0.11069 0.30583 0.0
O4 O 0.00796 0.12184 0.21585 0.0
C5 C 0.01014 0.08098 0.39378 0.0
O6 O -0.00099 0.08275 0.35539 0.0
C7 C 0.01225 0.11571 0.0543 0.0
C8 C 0.0314 0.12311 -0.00147 0.0
C9 C 0.0167 0.11832 0.99454 0.0
N10 N 0.02393 0.11824 0.09128 0.0
N11 N 0.03523 0.12308 0.05801 0.0
C12 C 0.99729 0.11059 0.07655 0.0
H13 H 0.99404 0.11704 0.11758 0.0
H14 H 0.9979 0.09867 0.08996 0.0
H15 H 0.98857 0.1121 0.04109 0.0
C16 C 0.02396 0.06962 0.22536 0.0
N17 N 0.02374 0.08456 0.23241 0.0
N18 N 0.02451 0.09101 0.17843 0.0
C19 C 0.0256 0.08031 0.13535 0.0
C20 C 0.02497 0.0665 0.16352 0.0
C21 C 0.02332 0.05868 0.27696 0.0
H22 H 0.0318 0.06164 0.31182 0.0
H23 H 0.01218 0.05929 0.29872 0.0
H24 H 0.02515 0.04706 0.26133 0.0
O25 O 0.04357 0.10844 0.30201 0.0
O26 O 0.04388 0.11946 0.21085 0.0
H27 H 0.03683 0.09281 0.06529 0.0
H28 H 0.03505 0.0732 0.04923 0.0
C29 C 0.02938 0.08302 0.06963 0.0
H30 H 0.019 0.08502 0.04355 0.0
H31 H 0.04581 0.12544 0.07542 0.0
O32 O 0.0231 0.0853 0.37805 0.0
C33 C 0.04982 0.11692 0.26277 0.0
Co34 Co 0.17396 0.74634 0.54843 0.0
Co35 Co 0.15734 0.7497 0.42412 0.0
C36 C 0.15038 0.7247 0.509 0.0
O37 O 0.15982 0.72949 0.54758 0.0
O38 O 0.14837 0.73136 0.45841 0.0
C39 C 0.18922 0.73028 0.64002 0.0
O40 O 0.1863 0.71902 0.60349 0.0
C41 C 0.15258 0.7409 0.29909 0.0
C42 C 0.14436 0.76165 0.25633 0.0
C43 C 0.14909 0.74726 0.2431 0.0
N44 N 0.15036 0.75116 0.34277 0.0
N45 N 0.145 0.7634 0.31734 0.0
C46 C 0.15993 0.72614 0.31066 0.0
H47 H 0.16488 0.72578 0.35707 0.0
H48 H 0.16871 0.72391 0.27612 0.0
H49 H 0.15143 0.71718 0.30713 0.0
C50 C 0.20039 0.74662 0.4675 0.0
N51 N 0.18555 0.74687 0.47685 0.0
N52 N 0.17867 0.74914 0.42451 0.0
C53 C 0.18902 0.75085 0.38033 0.0
C54 C 0.20304 0.74901 0.40588 0.0
C55 C 0.21166 0.74395 0.51675 0.0
H56 H 0.2105 0.75267 0.55242 0.0
H57 H 0.20941 0.733 0.53846 0.0
H58 H 0.22322 0.74395 0.49881 0.0
O59 O 0.16288 0.76542 0.55777 0.0
O60 O 0.15024 0.76712 0.47057 0.0
H61 H 0.19557 0.76236 0.29792 0.0
H62 H 0.18402 0.74632 0.2865 0.0
C63 C 0.18592 0.75607 0.31655 0.0
H64 H 0.176 0.76342 0.31573 0.0
H65 H 0.1428 0.77326 0.34105 0.0
O66 O 0.18608 0.74344 0.62251 0.0
C67 C 0.15363 0.77214 0.52319 0.0
Co68 Co 0.52398 0.90026 0.80588 0.0
Co69 Co 0.523 0.88362 0.6807 0.0
C70 C 0.54672 0.87702 0.7705 0.0
O71 O 0.54119 0.88646 0.80733 0.0
O72 O 0.54086 0.87476 0.71852 0.0
C73 C 0.54 0.91618 0.89322 0.0
O74 O 0.55069 0.91387 0.85323 0.0
C75 C 0.53357 0.87562 0.55967 0.0
C76 C 0.5126 0.87139 0.50984 0.0
C77 C 0.52789 0.87276 0.50192 0.0
N78 N 0.52214 0.87642 0.5992 0.0
N79 N 0.50966 0.87341 0.56958 0.0
C80 C 0.54954 0.87809 0.57725 0.0
H81 H 0.55065 0.88862 0.60347 0.0
H82 H 0.55703 0.87822 0.53693 0.0
H83 H 0.55311 0.86889 0.60787 0.0
C84 C 0.52144 0.92659 0.72565 0.0
N85 N 0.5233 0.91184 0.73441 0.0
N86 N 0.5234 0.90497 0.68129 0.0
C87 C 0.52192 0.91526 0.63672 0.0
C88 C 0.52049 0.92928 0.6633 0.0
C89 C 0.51911 0.93753 0.77642 0.0
H90 H 0.51268 0.93223 0.81389 0.0
H91 H 0.53013 0.94094 0.79484 0.0
H92 H 0.51307 0.94759 0.76036 0.0
O93 O 0.50547 0.88856 0.81337 0.0
O94 O 0.50493 0.87652 0.72455 0.0
H95 H 0.51258 0.90508 0.5569 0.0
H96 H 0.52324 0.92183 0.54099 0.0
C97 C 0.52251 0.91174 0.56997 0.0
H98 H 0.5326 0.90511 0.561 0.0
H99 H 0.49908 0.87366 0.5894 0.0
O100 O 0.52671 0.91254 0.87953 0.0
C101 C 0.49928 0.87942 0.7767 0.0
Co102 Co 0.37049 0.24825 0.06121 0.0
Co103 Co 0.38618 0.24776 0.93412 0.0
C104 C 0.39304 0.27128 0.02599 0.0
O105 O 0.38355 0.26595 0.06309 0.0
O106 O 0.39539 0.26521 0.97444 0.0
C107 C 0.35373 0.26245 0.15223 0.0
O108 O 0.35458 0.27357 0.11321 0.0
C109 C 0.39264 0.25943 0.8133 0.0
C110 C 0.3959 0.23881 0.7598 0.0
C111 C 0.39425 0.25415 0.75406 0.0
N112 N 0.39259 0.24771 0.85154 0.0
N113 N 0.39507 0.23545 0.81962 0.0
C114 C 0.39075 0.27526 0.83383 0.0
H115 H 0.39892 0.27771 0.87049 0.0
H116 H 0.37943 0.27682 0.85333 0.0
H117 H 0.39263 0.28327 0.79594 0.0
C118 C 0.34344 0.24725 0.98387 0.0
N119 N 0.35833 0.24817 0.99116 0.0
N120 N 0.36484 0.24813 0.93724 0.0
C121 C 0.35421 0.24714 0.89376 0.0
C122 C 0.34035 0.24656 0.92195 0.0
C123 C 0.33252 0.24591 0.03529 0.0
H124 H 0.33714 0.23858 0.0715 0.0
H125 H 0.33057 0.25712 0.05522 0.0
H126 H 0.3217 0.24132 0.01937 0.0
O127 O 0.38273 0.22983 0.0648 0.0
O128 O 0.3935 0.22934 0.97331 0.0
H129 H 0.36459 0.23754 0.81499 0.0
H130 H 0.34687 0.24627 0.79894 0.0
C131 C 0.3572 0.24704 0.82647 0.0
H132 H 0.36283 0.25754 0.81371 0.0
H133 H 0.39514 0.22472 0.83814 0.0
O134 O 0.3588 0.24976 0.13676 0.0
C135 C 0.39128 0.22362 0.02582 0.0
Co136 Co 0.02641 0.89871 0.69647 0.0
Co137 Co 0.02529 0.88314 0.82369 0.0
C138 C 0.00278 0.87623 0.72869 0.0
O139 O 0.00919 0.885 0.69142 0.0
O140 O 0.00767 0.87456 0.7827 0.0
C141 C 0.01239 0.91539 0.6055 0.0
O142 O 0.00133 0.91448 0.64479 0.0
C143 C 0.01299 0.87769 0.94427 0.0
C144 C 0.03321 0.873 -0.00147 0.0
C145 C 0.01802 0.87573 0.0037 0.0
N146 N 0.02475 0.87686 0.90643 0.0
N147 N 0.03674 0.87356 0.93882 0.0
C148 C 0.99736 0.88062 0.92315 0.0
H149 H 0.99452 0.87274 0.88597 0.0
H150 H 0.99654 0.89207 0.9042 0.0
H151 H 0.98915 0.8791 0.96056 0.0
C152 C 0.02661 0.92581 0.77311 0.0
N153 N 0.02558 0.91092 0.76614 0.0
N154 N 0.02546 0.90448 0.82022 0.0
C155 C 0.02653 0.91516 0.86346 0.0
C156 C 0.02723 0.92896 0.83492 0.0
C157 C 0.02835 0.93666 0.7216 0.0
H158 H 0.03595 0.93199 0.6865 0.0
H159 H 0.0173 0.93859 0.70018 0.0
H160 H 0.03281 0.94751 0.73781 0.0
O161 O 0.04523 0.88724 0.69699 0.0
O162 O 0.04367 0.87511 0.78558 0.0
H163 H 0.03584 0.90406 0.9413 0.0
H164 H 0.02894 0.92254 0.95773 0.0
C165 C 0.02697 0.91228 0.93082 0.0
H166 H 0.0161 0.90767 0.94536 0.0
H167 H 0.04747 0.87271 0.92068 0.0
O168 O 0.02511 0.91033 0.62065 0.0
C169 C 0.05045 0.878 0.73575 0.0
Co170 Co 0.36982 0.74928 0.92929 0.0
Co171 Co 0.38515 0.74976 0.05732 0.0
C172 C 0.39191 0.72599 0.9664 0.0
O173 O 0.38266 0.73147 0.9287 0.0
O174 O 0.39422 0.73206 0.01797 0.0
C175 C 0.35338 0.73487 0.83827 0.0
O176 O 0.35424 0.72391 0.87803 0.0
C177 C 0.39099 0.73794 0.17833 0.0
C178 C 0.39481 0.75838 0.23234 0.0
C179 C 0.39277 0.74309 0.23766 0.0
N180 N 0.39129 0.7497 0.14033 0.0
N181 N 0.39407 0.76184 0.17257 0.0
C182 C 0.38867 0.72218 0.15749 0.0
H183 H 0.39709 0.71942 0.12219 0.0
H184 H 0.3775 0.72106 0.13608 0.0
H185 H 0.38987 0.71409 0.19554 0.0
C186 C 0.34256 0.75045 0.00523 0.0
N187 N 0.35747 0.74956 -0.00129 0.0
N188 N 0.36382 0.74969 0.05297 0.0
C189 C 0.35306 0.75077 0.09586 0.0
C190 C 0.33929 0.75126 0.06694 0.0
C191 C 0.33177 0.75152 0.95325 0.0
H192 H 0.33641 0.75879 0.9169 0.0
H193 H 0.32999 0.74023 0.9338 0.0
H194 H 0.32086 0.75604 0.96847 0.0
O195 O 0.38227 0.76755 0.92612 0.0
O196 O 0.39285 0.76803 0.01801 0.0
H197 H 0.36355 0.76028 0.1746 0.0
H198 H 0.34548 0.75226 0.19023 0.0
C199 C 0.35585 0.75102 0.16329 0.0
H200 H 0.36106 0.74036 0.17693 0.0
H201 H 0.39446 0.77259 0.15427 0.0
O202 O 0.35835 0.74766 0.85307 0.0
C203 C 0.39081 0.77371 0.96529 0.0
Co204 Co 0.52392 0.09624 0.18691 0.0
Co205 Co 0.52144 0.11122 0.31502 0.0
C206 C 0.54664 0.11833 0.23246 0.0
O207 O 0.54147 0.10945 0.1925 0.0
O208 O 0.54002 0.1202 0.28318 0.0
C209 C 0.54024 0.08073 0.09753 0.0
O210 O 0.55095 0.08239 0.13794 0.0
C211 C 0.52991 0.1169 0.44102 0.0
C212 C 0.50821 0.12222 0.48353 0.0
C213 C 0.52312 0.11961 0.49699 0.0
N214 N 0.51941 0.11746 0.39732 0.0
N215 N 0.50655 0.1211 0.42266 0.0
C216 C 0.54563 0.11193 0.42941 0.0
H217 H 0.54658 0.10649 0.38408 0.0
H218 H 0.54941 0.10402 0.46518 0.0
H219 H 0.5531 0.12181 0.43027 0.0
C220 C 0.52028 0.06891 0.26041 0.0
N221 N 0.5221 0.08376 0.25554 0.0
N222 N 0.52141 0.08988 0.31012 0.0
C223 C 0.51932 0.07898 0.35188 0.0
C224 C 0.51847 0.06534 0.32166 0.0
C225 C 0.51897 0.05864 0.20676 0.0
H226 H 0.51269 0.0642 0.1695 0.0
H227 H 0.53031 0.05598 0.18957 0.0
H228 H 0.51322 0.04811 0.21922 0.0
O229 O 0.50575 0.10845 0.17784 0.0
O230 O 0.50413 0.11924 0.269 0.0
H231 H 0.50945 0.0893 0.43043 0.0
H232 H 0.5175 0.0712 0.44621 0.0
C233 C 0.51874 0.08159 0.41947 0.0
H234 H 0.52932 0.08671 0.43425 0.0
H235 H 0.49649 0.12191 0.3989 0.0
O236 O 0.52709 0.08487 0.11116 0.0
C237 C 0.49918 0.11717 0.21507 0.0
Co238 Co 0.17602 0.24995 0.43259 0.0
Co239 Co 0.15988 0.24552 0.55752 0.0
C240 C 0.15206 0.27067 0.47367 0.0
O241 O 0.16195 0.26674 0.4355 0.0
O242 O 0.14989 0.26338 0.52269 0.0
C243 C 0.1909 0.26643 0.34104 0.0
O244 O 0.1878 0.27758 0.37786 0.0
C245 C 0.15504 0.25428 0.68261 0.0
C246 C 0.14708 0.23345 0.72558 0.0
C247 C 0.15153 0.24794 0.73868 0.0
N248 N 0.15308 0.24392 0.63911 0.0
N249 N 0.14791 0.23161 0.66466 0.0
C250 C 0.16202 0.2692 0.67066 0.0
H251 H 0.16693 0.26962 0.62417 0.0
H252 H 0.17077 0.27167 0.70504 0.0
H253 H 0.15332 0.27796 0.674 0.0
C254 C 0.20269 0.25008 0.51263 0.0
N255 N 0.18784 0.24936 0.50371 0.0
N256 N 0.18114 0.24689 0.55629 0.0
C257 C 0.19162 0.24546 0.60011 0.0
C258 C 0.20552 0.24775 0.57416 0.0
C259 C 0.21377 0.25325 0.46316 0.0
H260 H 0.21272 0.24468 0.4268 0.0
H261 H 0.21123 0.26425 0.44248 0.0
H262 H 0.22538 0.25342 0.48063 0.0
O263 O 0.16474 0.2309 0.42222 0.0
O264 O 0.15369 0.2277 0.51225 0.0
H265 H 0.19864 0.23397 0.68193 0.0
H266 H 0.18667 0.24967 0.69424 0.0
C267 C 0.18878 0.24003 0.66381 0.0
H268 H 0.17907 0.23241 0.66471 0.0
H269 H 0.14589 0.2217 0.64107 0.0
O270 O 0.18795 0.25319 0.35814 0.0
C271 C 0.15644 0.22334 0.45807 0.0
Co272 Co 0.87092 0.24763 0.44106 0.0
Co273 Co 0.88703 0.24973 0.56685 0.0
C274 C 0.89422 0.22557 0.4781 0.0
O275 O 0.88478 0.23061 0.44022 0.0
O276 O 0.89621 0.23189 0.52935 0.0
C277 C 0.85496 0.23145 0.35448 0.0
O278 O 0.85752 0.22079 0.39431 0.0
C279 C 0.89242 0.23855 0.68825 0.0
C280 C 0.89988 0.25851 0.7387 0.0
C281 C 0.89595 0.24365 0.74619 0.0
N282 N 0.89373 0.24995 0.64887 0.0
N283 N 0.8986 0.26177 0.67884 0.0
C284 C 0.88752 0.22318 0.67005 0.0
H285 H 0.89531 0.21876 0.63515 0.0
H286 H 0.8763 0.2237 0.64877 0.0
H287 H 0.88743 0.21538 0.70939 0.0
C288 C 0.84422 0.24921 0.51908 0.0
N289 N 0.85908 0.24805 0.51167 0.0
N290 N 0.86573 0.24946 0.56495 0.0
C291 C 0.85524 0.2519 0.60802 0.0
C292 C 0.8413 0.25167 0.58036 0.0
C293 C 0.83323 0.24951 0.4676 0.0
H294 H 0.83737 0.25696 0.43084 0.0
H295 H 0.83212 0.23811 0.44845 0.0
H296 H 0.8221 0.25344 0.48286 0.0
O297 O 0.88246 0.26646 0.43449 0.0
O298 O 0.89413 0.2678 0.52414 0.0
H299 H 0.86739 0.26335 0.6781 0.0
H300 H 0.84859 0.2584 0.69997 0.0
C301 C 0.85854 0.25478 0.674 0.0
H302 H 0.86255 0.24434 0.695 0.0
H303 H 0.90024 0.27225 0.6591 0.0
O304 O 0.85877 0.24475 0.36735 0.0
C305 C 0.89128 0.2731 0.47133 0.0
Co306 Co 0.67162 0.74402 0.9458 0.0
Co307 Co 0.65775 0.74426 0.07633 0.0
C308 C 0.6497 0.76741 0.98479 0.0
O309 O 0.6583 0.7615 0.9456 0.0
O310 O 0.64833 0.76186 0.03789 0.0
C311 C 0.68756 0.75867 0.8549 0.0
O312 O 0.68683 0.76935 0.89596 0.0
C313 C 0.6531 0.75656 0.19712 0.0
C314 C 0.64937 0.7364 0.25311 0.0
C315 C 0.65156 0.7517 0.25692 0.0
N316 N 0.65245 0.74464 0.16013 0.0
N317 N 0.64977 0.73266 0.19358 0.0
C318 C 0.65539 0.77221 0.17481 0.0
H319 H 0.64646 0.77503 0.14176 0.0
H320 H 0.66619 0.77303 0.15024 0.0
H321 H 0.65496 0.78045 0.21253 0.0
C322 C 0.69969 0.74349 0.017 0.0
N323 N 0.68472 0.74429 0.01306 0.0
N324 N 0.67897 0.7444 0.06841 0.0
C325 C 0.69018 0.74359 0.10944 0.0
C326 C 0.70362 0.74304 0.0781 0.0
C327 C 0.70996 0.74206 0.9634 0.0
H328 H 0.70486 0.73478 0.92819 0.0
H329 H 0.71181 0.75326 0.94318 0.0
H330 H 0.72091 0.73738 0.97722 0.0
O331 O 0.65959 0.72548 0.9463 0.0
O332 O 0.64972 0.72578 0.03956 0.0
H333 H 0.68041 0.73443 0.19047 0.0
H334 H 0.69875 0.74222 0.20236 0.0
C335 C 0.68811 0.74356 0.17731 0.0
H336 H 0.68319 0.75432 0.19138 0.0
H337 H 0.64913 0.72184 0.17615 0.0
O338 O 0.68248 0.74583 0.86822 0.0
C339 C 0.6514 0.71963 0.98751 0.0
Co340 Co 0.67633 0.24793 0.05738 0.0
Co341 Co 0.65945 0.24868 0.93307 0.0
C342 C 0.65331 0.22512 0.02602 0.0
O343 O 0.66283 0.23067 0.0623 0.0
O344 O 0.65092 0.23097 0.97412 0.0
C345 C 0.69245 0.23271 0.14548 0.0
O346 O 0.69057 0.22197 0.10532 0.0
C347 C 0.65492 0.2365 0.81278 0.0
C348 C 0.64355 0.2547 0.76322 0.0
C349 C 0.64971 0.24062 0.75572 0.0
N350 N 0.6523 0.24773 0.85183 0.0
N351 N 0.6452 0.25847 0.82243 0.0
C352 C 0.66232 0.22213 0.83043 0.0
H353 H 0.6571 0.21768 0.87255 0.0
H354 H 0.67426 0.22415 0.84075 0.0
H355 H 0.66137 0.21366 0.79368 0.0
C356 C 0.70257 0.24882 0.97577 0.0
N357 N 0.68777 0.24784 0.98542 0.0
N358 N 0.6807 0.2489 0.93288 0.0
C359 C 0.69083 0.25104 0.8882 0.0
C360 C 0.70496 0.25075 0.91373 0.0
C361 C 0.71406 0.24817 0.02534 0.0
H362 H 0.71161 0.25686 0.06002 0.0
H363 H 0.71343 0.23716 0.04824 0.0
H364 H 0.72552 0.24972 0.00746 0.0
O365 O 0.66434 0.26657 0.06201 0.0
O366 O 0.65213 0.26691 0.97343 0.0
H367 H 0.6962 0.26262 0.80451 0.0
H368 H 0.68618 0.2455 0.79527 0.0
C369 C 0.68719 0.25558 0.82406 0.0
H370 H 0.6766 0.26192 0.82266 0.0
H371 H 0.64206 0.2686 0.84209 0.0
O372 O 0.68871 0.24594 0.13107 0.0
C373 C 0.65515 0.27269 0.02518 0.0
Co374 Co 0.87061 0.74944 0.54773 0.0
Co375 Co 0.88683 0.74927 0.42159 0.0
C376 C 0.89395 0.77206 0.51602 0.0
O377 O 0.88467 0.76631 0.55292 0.0
O378 O 0.89583 0.76666 0.46295 0.0
C379 C 0.85465 0.76403 0.63922 0.0
O380 O 0.8567 0.77526 0.60147 0.0
C381 C 0.89105 0.76167 0.30115 0.0
C382 C 0.89833 0.74219 0.24715 0.0
C383 C 0.89375 0.75693 0.24182 0.0
N384 N 0.89328 0.75011 0.33909 0.0
N385 N 0.89807 0.7386 0.30689 0.0
C386 C 0.88609 0.77679 0.32212 0.0
H387 H 0.89256 0.78017 0.3629 0.0
H388 H 0.87416 0.77637 0.33552 0.0
H389 H 0.88773 0.78533 0.28603 0.0
C390 C 0.84387 0.7503 0.46851 0.0
N391 N 0.85876 0.75043 0.47698 0.0
N392 N 0.86551 0.74961 0.42367 0.0
C393 C 0.85505 0.74858 0.37957 0.0
C394 C 0.84108 0.74929 0.40639 0.0
C395 C 0.83266 0.75111 0.5191 0.0
H396 H 0.83517 0.74241 0.5537 0.0
H397 H 0.83352 0.76214 0.54164 0.0
H398 H 0.82109 0.74971 0.5023 0.0
O399 O 0.88187 0.7304 0.54895 0.0
O400 O 0.89429 0.73085 0.46077 0.0
H401 H 0.86785 0.73736 0.31051 0.0
H402 H 0.84837 0.73934 0.29252 0.0
C403 C 0.85811 0.74489 0.31405 0.0
H404 H 0.86036 0.7553 0.28852 0.0
H405 H 0.9002 0.72806 0.32513 0.0
O406 O 0.8587 0.75104 0.62284 0.0
C407 C 0.8911 0.72461 0.51148 0.0
Co408 Co 0.51782 0.59496 0.79969 0.0
Co409 Co 0.52339 0.61249 0.67883 0.0
C410 C 0.49663 0.61828 0.75745 0.0
O411 O 0.50036 0.60817 0.7951 0.0
O412 O 0.50461 0.62123 0.71096 0.0
C413 C 0.50194 0.57955 0.89275 0.0
O414 O 0.49029 0.5829 0.85898 0.0
C415 C 0.5161 0.61815 0.55266 0.0
C416 C 0.53688 0.62799 0.51637 0.0
C417 C 0.52289 0.62285 0.49901 0.0
N418 N 0.52573 0.62014 0.59884 0.0
N419 N 0.53799 0.62638 0.57733 0.0
C420 C 0.50151 0.61015 0.5597 0.0
H421 H 0.50081 0.60459 0.60489 0.0
H422 H 0.50002 0.60176 0.52294 0.0
H423 H 0.49228 0.61836 0.55635 0.0
C424 C 0.52019 0.56914 0.71636 0.0
N425 N 0.52001 0.58391 0.72736 0.0
N426 N 0.52309 0.59118 0.67665 0.0
C427 C 0.52584 0.58117 0.63204 0.0
C428 C 0.52383 0.56694 0.65547 0.0
C429 C 0.51666 0.55752 0.76331 0.0
H430 H 0.52581 0.55712 0.7974 0.0
H431 H 0.50627 0.56064 0.78767 0.0
H432 H 0.5152 0.54633 0.74255 0.0
O433 O 0.53612 0.60697 0.81561 0.0
O434 O 0.54024 0.6192 0.72896 0.0
H435 H 0.539 0.57554 0.55273 0.0
H436 H 0.52291 0.58682 0.53777 0.0
C437 C 0.53213 0.5849 0.57048 0.0
H438 H 0.53919 0.59502 0.57314 0.0
H439 H 0.54742 0.62873 0.60362 0.0
O440 O 0.51492 0.58229 0.87228 0.0
C441 C 0.54386 0.61601 0.78363 0.0
Co442 Co 0.02283 0.39975 0.30044 0.0
Co443 Co 0.0197 0.38358 0.17506 0.0
C444 C 0.04422 0.37604 0.26193 0.0
O445 O 0.03972 0.3858 0.29961 0.0
O446 O 0.03746 0.37382 0.21169 0.0
C447 C 0.03881 0.41503 0.39179 0.0
O448 O 0.04996 0.41244 0.35427 0.0
C449 C 0.02906 0.37893 0.05049 0.0
C450 C 0.0084 0.37098 0.00617 0.0
C451 C 0.02289 0.3756 0.99399 0.0
N452 N 0.01859 0.37676 0.09341 0.0
N453 N 0.00641 0.37156 0.06704 0.0
C454 C 0.04388 0.38602 0.0633 0.0
H455 H 0.04416 0.39076 0.1101 0.0
H456 H 0.04634 0.39492 0.02949 0.0
H457 H 0.05273 0.37742 0.05958 0.0
C458 C 0.02301 0.42646 0.22075 0.0
N459 N 0.02265 0.41158 0.22933 0.0
N460 N 0.02076 0.40488 0.17637 0.0
C461 C 0.01939 0.41538 0.13254 0.0
C462 C 0.02109 0.4293 0.15901 0.0
C463 C 0.02533 0.43758 0.27084 0.0
H464 H 0.03642 0.4357 0.29183 0.0
H465 H 0.02482 0.44923 0.2539 0.0
H466 H 0.01676 0.43589 0.30678 0.0
O467 O 0.00377 0.38844 0.30843 0.0
O468 O 0.00163 0.37719 0.21834 0.0
H469 H 0.00838 0.42227 0.04944 0.0
H470 H 0.02436 0.4106 0.03889 0.0
C471 C 0.01447 0.4125 0.06817 0.0
H472 H 0.00704 0.40266 0.06625 0.0
H473 H 0.99643 0.36942 0.09003 0.0
O474 O 0.02564 0.41165 0.37516 0.0
C475 C 0.99668 0.37999 0.27161 0.0
Co476 Co 0.52203 0.39931 0.18812 0.0
Co477 Co 0.52539 0.38453 0.31602 0.0
C478 C 0.49974 0.37733 0.23411 0.0
O479 O 0.50432 0.38646 0.19396 0.0
O480 O 0.50692 0.37526 0.28345 0.0
C481 C 0.5062 0.41512 0.09773 0.0
O482 O 0.49529 0.41364 0.13735 0.0
C483 C 0.51611 0.38095 0.44102 0.0
C484 C 0.53674 0.37341 0.48682 0.0
C485 C 0.52218 0.37795 0.49798 0.0
N486 N 0.52667 0.3786 0.39869 0.0
N487 N 0.53885 0.37367 0.42596 0.0
C488 C 0.5013 0.38792 0.42704 0.0
H489 H 0.50128 0.39286 0.38056 0.0
H490 H 0.49853 0.39667 0.46105 0.0
H491 H 0.49253 0.3792 0.42919 0.0
C492 C 0.52445 0.42689 0.26149 0.0
N493 N 0.52359 0.41195 0.2564 0.0
N494 N 0.52552 0.40583 0.31053 0.0
C495 C 0.52813 0.41676 0.35161 0.0
C496 C 0.52736 0.4304 0.32186 0.0
C497 C 0.52349 0.43751 0.20888 0.0
H498 H 0.53059 0.43347 0.17083 0.0
H499 H 0.51179 0.43796 0.19245 0.0
H500 H 0.52707 0.44891 0.22213 0.0
O501 O 0.5404 0.38692 0.17993 0.0
O502 O 0.5428 0.37674 0.27209 0.0
H503 H 0.53924 0.40462 0.4229 0.0
H504 H 0.53681 0.42415 0.43923 0.0
C505 C 0.53161 0.41425 0.41779 0.0
H506 H 0.52113 0.41194 0.44281 0.0
H507 H 0.54887 0.37143 0.40348 0.0
O508 O 0.51919 0.41062 0.11208 0.0
C509 C 0.54742 0.37864 0.21763 0.0
Co510 Co 0.01937 0.59631 0.68407 0.0
Co511 Co 0.01979 0.61197 0.81148 0.0
C512 C 0.04265 0.61903 0.71819 0.0
O513 O 0.03656 0.61008 0.68083 0.0
O514 O 0.03744 0.62082 0.77164 0.0
C515 C 0.03407 0.58028 0.59304 0.0
O516 O 0.045 0.58153 0.6327 0.0
C517 C 0.03165 0.61807 0.93235 0.0
C518 C 0.01119 0.62191 0.98623 0.0
C519 C 0.02649 0.61994 0.99164 0.0
N520 N 0.01989 0.61827 0.89433 0.0
N521 N 0.00774 0.62105 0.92649 0.0
C522 C 0.04742 0.61583 0.91157 0.0
H523 H 0.05012 0.62419 0.87594 0.0
H524 H 0.04862 0.60462 0.89057 0.0
H525 H 0.05549 0.61717 0.94957 0.0
C526 C 0.01931 0.56924 0.76095 0.0
N527 N 0.01994 0.58414 0.75389 0.0
N528 N 0.01991 0.59061 0.80791 0.0
C529 C 0.01915 0.5799 0.85123 0.0
C530 C 0.01879 0.56607 0.82281 0.0
C531 C 0.0181 0.55835 0.70939 0.0
H532 H 0.01055 0.56281 0.67366 0.0
H533 H 0.02929 0.55672 0.68883 0.0
H534 H 0.01385 0.54738 0.72534 0.0
O535 O 0.00059 0.60785 0.68272 0.0
O536 O 0.00159 0.6199 0.77158 0.0
H537 H 0.00983 0.59054 0.93004 0.0
H538 H 0.01787 0.57248 0.94586 0.0
C539 C 0.01906 0.58282 0.91857 0.0
H540 H 0.02975 0.58804 0.93164 0.0
H541 H 0.99699 0.62138 0.90819 0.0
O542 O 0.02112 0.58478 0.60804 0.0
C543 C 0.99515 0.61708 0.72095 0.0
H544 H 0.15148 0.21492 0.33951 0.0
H545 H 0.13607 0.19404 0.30422 0.0
H546 H 0.12974 0.17982 0.49073 0.0
H547 H 0.14472 0.20083 0.52645 0.0
H548 H 0.13659 0.16284 0.31848 0.0
H549 H 0.0874 0.18826 0.43225 0.0
H550 H 0.10476 0.19815 0.42241 0.0
H551 H 0.1027 0.18477 0.48317 0.0
C552 C 0.14696 0.20723 0.3729 0.0
C553 C 0.14907 0.20966 0.43579 0.0
C554 C 0.13819 0.19531 0.35268 0.0
C555 C 0.13151 0.18563 0.39503 0.0
C556 C 0.1345 0.18741 0.45748 0.0
H557 H 0.06409 0.11696 0.37325 0.0
H558 H 0.08557 0.13207 0.40322 0.0
C559 C 0.14309 0.19939 0.47775 0.0
C560 C 0.12055 0.17437 0.37455 0.0
H561 H 0.08407 0.1642 0.39007 0.0
C562 C 0.1251 0.16312 0.33398 0.0
C563 C 0.10554 0.17488 0.3945 0.0
C564 C 0.09974 0.18724 0.43499 0.0
C565 C 0.11503 0.15216 0.31376 0.0
C566 C 0.10012 0.15259 0.33458 0.0
C567 C 0.09559 0.16385 0.37489 0.0
C568 C 0.08873 0.14184 0.3138 0.0
C569 C 0.12038 0.14012 0.27095 0.0
C570 C 0.08356 0.14225 0.25339 0.0
C571 C 0.07122 0.13372 0.23612 0.0
C572 C 0.06384 0.12467 0.27913 0.0
C573 C 0.06948 0.12383 0.33901 0.0
C574 C 0.08177 0.13242 0.35624 0.0
H575 H 0.13276 0.13955 0.26912 0.0
H576 H 0.11596 0.12907 0.28507 0.0
H577 H 0.11619 0.14249 0.22421 0.0
H578 H 0.08866 0.14966 0.22029 0.0
H579 H 0.0672 0.13459 0.18958 0.0
H580 H 0.12668 0.78295 0.48793 0.0
H581 H 0.11363 0.80468 0.52765 0.0
H582 H 0.15088 0.81434 0.64627 0.0
H583 H 0.1637 0.79197 0.60887 0.0
H584 H 0.12696 0.81735 0.70733 0.0
H585 H 0.11777 0.84752 0.49215 0.0
H586 H 0.11033 0.82911 0.48387 0.0
H587 H 0.13008 0.83164 0.49651 0.0
C588 C 0.13217 0.78979 0.522 0.0
C589 C 0.14622 0.78582 0.54517 0.0
C590 C 0.12476 0.80232 0.54427 0.0
C591 C 0.13143 0.81144 0.5887 0.0
C592 C 0.14556 0.80756 0.61158 0.0
H593 H 0.07404 0.88809 0.66879 0.0
H594 H 0.09659 0.87426 0.64091 0.0
C595 C 0.15286 0.79479 0.59027 0.0
C596 C 0.12305 0.82428 0.61427 0.0
H597 H 0.09938 0.85221 0.57244 0.0
C598 C 0.12119 0.82519 0.67787 0.0
C599 C 0.1159 0.83489 0.57637 0.0
C600 C 0.1188 0.83583 0.50854 0.0
C601 C 0.11149 0.83567 0.70409 0.0
C602 C 0.10289 0.84498 0.66546 0.0
C603 C 0.10565 0.84485 0.60228 0.0
C604 C 0.09022 0.85403 0.68857 0.0
C605 C 0.11055 0.8365 0.77284 0.0
C606 C 0.07916 0.84737 0.72503 0.0
C607 C 0.06651 0.85538 0.74231 0.0
C608 C 0.06439 0.87004 0.72156 0.0
C609 C 0.07541 0.87676 0.68516 0.0
C610 C 0.08828 0.86887 0.6693 0.0
H611 H 0.12151 0.83383 0.79395 0.0
H612 H 0.107 0.84772 0.78866 0.0
H613 H 0.10244 0.82808 0.7895 0.0
H614 H 0.08002 0.83578 0.73852 0.0
H615 H 0.05807 0.84988 0.76973 0.0
H616 H 0.48576 0.88031 0.88874 0.0
H617 H 0.46466 0.86528 0.92378 0.0
H618 H 0.46081 0.8455 0.74501 0.0
H619 H 0.48193 0.86044 0.7092 0.0
H620 H 0.43207 0.85548 0.81366 0.0
H621 H 0.47111 0.81794 0.93899 0.0
H622 H 0.47319 0.83776 0.9495 0.0
H623 H 0.47721 0.82962 0.87651 0.0
C624 C 0.48034 0.87291 0.85655 0.0
C625 C 0.48564 0.87145 0.79631 0.0
C626 C 0.46829 0.86436 0.87672 0.0
C627 C 0.46132 0.85429 0.83696 0.0
C628 C 0.46611 0.85326 0.77618 0.0
H629 H 0.39469 0.78555 0.85122 0.0
H630 H 0.41047 0.80664 0.8228 0.0
C631 C 0.4782 0.86175 0.75597 0.0
C632 C 0.44983 0.84396 0.85998 0.0
H633 H 0.44562 0.81223 0.94393 0.0
C634 C 0.43494 0.84605 0.84242 0.0
C635 C 0.45373 0.83177 0.89759 0.0
C636 C 0.46967 0.82899 0.91671 0.0
C637 C 0.42374 0.83615 0.86166 0.0
C638 C 0.4277 0.82369 0.89799 0.0
C639 C 0.4426 0.8218 0.91622 0.0
C640 C 0.41682 0.81204 0.91566 0.0
C641 C 0.4078 0.83921 0.84342 0.0
C642 C 0.41528 0.80796 0.97723 0.0
C643 C 0.40649 0.79574 0.99354 0.0
C644 C 0.39905 0.78739 0.94851 0.0
C645 C 0.40021 0.7918 0.88703 0.0
C646 C 0.40913 0.80395 0.87072 0.0
H647 H 0.40601 0.85125 0.83373 0.0
H648 H 0.40519 0.83292 0.80112 0.0
H649 H 0.39989 0.83567 0.87967 0.0
H650 H 0.42118 0.81403 0.01259 0.0
H651 H 0.40576 0.79268 0.04134 0.0
H652 H 0.48684 0.11764 0.1007 0.0
H653 H 0.46597 0.13293 0.06524 0.0
H654 H 0.46043 0.15076 0.24671 0.0
H655 H 0.48127 0.13553 0.28295 0.0
H656 H 0.43257 0.14173 0.17676 0.0
H657 H 0.47154 0.17985 0.05421 0.0
H658 H 0.47354 0.16016 0.04024 0.0
H659 H 0.47769 0.16754 0.11451 0.0
C660 C 0.48112 0.1247 0.13331 0.0
C661 C 0.48583 0.12548 0.19455 0.0
C662 C 0.4692 0.13341 0.1129 0.0
C663 C 0.46181 0.143 0.15337 0.0
C664 C 0.46606 0.14339 0.21494 0.0
H665 H 0.39503 0.21172 0.1399 0.0
H666 H 0.41079 0.19061 0.16838 0.0
C667 C 0.478 0.13473 0.23541 0.0
C668 C 0.45031 0.15337 0.1307 0.0
H669 H 0.44598 0.18522 0.04757 0.0
C670 C 0.43542 0.15122 0.14826 0.0
C671 C 0.45417 0.16566 0.0935 0.0
C672 C 0.4701 0.16859 0.07463 0.0
C673 C 0.42419 0.16111 0.1293 0.0
C674 C 0.4281 0.17362 0.0932 0.0
C675 C 0.44299 0.1756 0.07507 0.0
C676 C 0.41717 0.18522 0.07555 0.0
C677 C 0.40826 0.15798 0.14755 0.0
C678 C 0.41561 0.18928 0.01396 0.0
C679 C 0.40683 0.2015 -0.00237 0.0
C680 C 0.3994 0.20987 0.04265 0.0
C681 C 0.40054 0.20545 0.10412 0.0
C682 C 0.40945 0.19331 0.12046 0.0
H683 H 0.40651 0.14594 0.15731 0.0
H684 H 0.40562 0.16429 0.18981 0.0
H685 H 0.40034 0.16148 0.11129 0.0
H686 H 0.42152 0.18322 0.97862 0.0
H687 H 0.40611 0.20456 0.94983 0.0
H688 H 0.9143 0.788 0.44911 0.0
H689 H 0.93103 0.80765 0.48599 0.0
H690 H 0.91149 0.80442 0.66543 0.0
H691 H 0.89465 0.78486 0.62934 0.0
H692 H 0.92171 0.83695 0.56466 0.0
H693 H 0.9597 0.79481 0.66937 0.0
H694 H 0.9479 0.79038 0.60493 0.0
H695 H 0.93985 0.79267 0.67928 0.0
C696 C 0.91344 0.79156 0.49627 0.0
C697 C 0.90322 0.78477 0.53642 0.0
C698 C 0.92297 0.8028 0.51711 0.0
C699 C 0.92246 0.80735 0.5783 0.0
C700 C 0.912 0.80097 0.61802 0.0
H701 H 0.98471 0.85818 0.79731 0.0
H702 H 0.96407 0.84267 0.76168 0.0
C703 C 0.90242 0.7898 0.59726 0.0
C704 C 0.93349 0.8181 0.60173 0.0
H705 H 0.96603 0.82006 0.68171 0.0
C706 C 0.93142 0.83334 0.59031 0.0
C707 C 0.94601 0.81322 0.63532 0.0
C708 C 0.94865 0.79688 0.64801 0.0
C709 C 0.94162 0.84396 0.61225 0.0
C710 C 0.95432 0.83907 0.64511 0.0
C711 C 0.95628 0.82378 0.65664 0.0
C712 C 0.96594 0.8495 0.66712 0.0
C713 C 0.93854 0.86028 0.60105 0.0
C714 C 0.97379 0.85853 0.62579 0.0
C715 C 0.98551 0.86752 0.64609 0.0
C716 C 0.98975 0.86746 0.708 0.0
C717 C 0.98175 0.85851 0.74937 0.0
C718 C 0.96995 0.84962 0.72909 0.0
H719 H 0.92649 0.86234 0.59243 0.0
H720 H 0.94213 0.8672 0.64047 0.0
H721 H 0.94481 0.86399 0.56005 0.0
H722 H 0.97114 0.85833 0.57752 0.0
H723 H 0.99148 0.87422 0.61291 0.0
H724 H 0.91808 0.21388 0.53988 0.0
H725 H 0.9351 0.19434 0.50469 0.0
H726 H 0.90883 0.18878 0.34127 0.0
H727 H 0.89172 0.20826 0.37582 0.0
H728 H 0.91898 0.16116 0.40214 0.0
H729 H 0.96386 0.20259 0.35631 0.0
H730 H 0.95565 0.20323 0.43126 0.0
H731 H 0.94455 0.20787 0.36568 0.0
C732 C 0.91582 0.20841 0.49676 0.0
C733 C 0.90364 0.21275 0.46034 0.0
C734 C 0.92558 0.19728 0.47671 0.0
C735 C 0.92328 0.19032 0.42013 0.0
C736 C 0.91078 0.19411 0.38497 0.0
H737 H 0.98856 0.14239 0.20395 0.0
H738 H 0.96839 0.1587 0.23875 0.0
C739 C 0.90106 0.20527 0.40478 0.0
C740 C 0.9343 0.1796 0.39609 0.0
H741 H 0.96998 0.17717 0.34286 0.0
C742 C 0.93014 0.16461 0.38914 0.0
C743 C 0.94873 0.18426 0.37838 0.0
C744 C 0.9535 0.20038 0.38271 0.0
C745 C 0.9402 0.15404 0.36582 0.0
C746 C 0.95475 0.15865 0.34955 0.0
C747 C 0.95881 0.17369 0.35561 0.0
C748 C 0.9661 0.14805 0.32699 0.0
C749 C 0.93514 0.1381 0.35807 0.0
C750 C 0.97143 0.13667 0.36515 0.0
C751 C 0.98295 0.12736 0.34554 0.0
C752 C 0.98941 0.12932 0.28747 0.0
C753 C 0.98384 0.14058 0.24892 0.0
C754 C 0.97233 0.14991 0.26868 0.0
H755 H 0.92278 0.13716 0.35811 0.0
H756 H 0.9395 0.1333 0.31484 0.0
H757 H 0.9395 0.13131 0.39653 0.0
H758 H 0.96693 0.13524 0.41073 0.0
H759 H 0.98697 0.11881 0.37643 0.0
H760 H 0.55899 0.14106 0.29918 0.0
H761 H 0.57925 0.15771 0.26792 0.0
H762 H 0.58462 0.13275 0.101 0.0
H763 H 0.56447 0.11601 0.13164 0.0
H764 H 0.61232 0.14185 0.16304 0.0
H765 H 0.57167 0.18786 0.12418 0.0
H766 H 0.57107 0.17908 0.19806 0.0
H767 H 0.56601 0.1686 0.13133 0.0
C768 C 0.5646 0.13898 0.25618 0.0
C769 C 0.55998 0.12732 0.21753 0.0
C770 C 0.57614 0.14853 0.23839 0.0
C771 C 0.58324 0.14653 0.18189 0.0
C772 C 0.57921 0.13447 0.1447 0.0
H773 H 0.6307 0.21123 0.96423 0.0
H774 H 0.61462 0.19114 0.00142 0.0
C775 C 0.56765 0.12496 0.16227 0.0
C776 C 0.59417 0.15756 0.15947 0.0
H777 H 0.59709 0.19341 0.10855 0.0
C778 C 0.60905 0.15314 0.15126 0.0
C779 C 0.58974 0.17217 0.14338 0.0
C780 C 0.57374 0.17725 0.14912 0.0
C781 C 0.61971 0.16309 0.12777 0.0
C782 C 0.6153 0.17778 0.11256 0.0
C783 C 0.6004 0.18213 0.12043 0.0
C784 C 0.62592 0.1889 0.0883 0.0
C785 C 0.63551 0.15777 0.11833 0.0
C786 C 0.63763 0.19418 0.12481 0.0
C787 C 0.64682 0.20567 0.10381 0.0
C788 C 0.64439 0.21213 0.04601 0.0
C789 C 0.63286 0.20653 0.00896 0.0
C790 C 0.62367 0.19506 0.03009 0.0
H791 H 0.63628 0.1454 0.11895 0.0
H792 H 0.64002 0.16193 0.07425 0.0
H793 H 0.64265 0.16218 0.15558 0.0
H794 H 0.63938 0.18973 0.17027 0.0
H795 H 0.6556 0.20972 0.13354 0.0
H796 H 0.55933 0.85334 0.71085 0.0
H797 H 0.57852 0.83642 0.74969 0.0
H798 H 0.58209 0.86266 0.91409 0.0
H799 H 0.56293 0.8797 0.87585 0.0
H800 H 0.61055 0.85229 0.85742 0.0
H801 H 0.56832 0.80783 0.89751 0.0
H802 H 0.56833 0.81605 0.82251 0.0
H803 H 0.56332 0.8272 0.88748 0.0
C804 C 0.56432 0.85564 0.75493 0.0
C805 C 0.55949 0.86778 0.79052 0.0
C806 C 0.57524 0.84594 0.77707 0.0
C807 C 0.58152 0.84824 0.83496 0.0
C808 C 0.57729 0.86071 0.86937 0.0
H809 H 0.62769 0.78122 0.05065 0.0
H810 H 0.61193 0.80204 0.018 0.0
C811 C 0.56632 0.8704 0.84744 0.0
C812 C 0.59191 0.83716 0.86096 0.0
H813 H 0.59361 0.80131 0.9128 0.0
C814 C 0.60689 0.84115 0.86973 0.0
C815 C 0.58697 0.82276 0.87774 0.0
C816 C 0.57084 0.81817 0.8714 0.0
C817 C 0.6172 0.83089 0.89356 0.0
C818 C 0.61234 0.81633 0.9085 0.0
C819 C 0.59728 0.81249 0.90106 0.0
C820 C 0.62273 0.80469 0.93026 0.0
C821 C 0.63316 0.83571 0.90291 0.0
C822 C 0.63401 0.79936 0.89168 0.0
C823 C 0.64299 0.78745 0.91002 0.0
C824 C 0.64081 0.78064 0.96727 0.0
C825 C 0.62968 0.78623 0.00635 0.0
C826 C 0.62067 0.79811 0.98781 0.0
H827 H 0.63424 0.84806 0.90397 0.0
H828 H 0.63771 0.83106 0.94612 0.0
H829 H 0.64007 0.83145 0.86461 0.0
H830 H 0.63558 0.80412 0.84664 0.0
H831 H 0.65147 0.78344 0.8788 0.0
H832 H 0.63623 0.70182 0.06776 0.0
H833 H 0.62085 0.68008 0.04391 0.0
H834 H 0.632 0.68464 0.85305 0.0
H835 H 0.64769 0.70611 0.87656 0.0
H836 H 0.59655 0.68077 0.97393 0.0
H837 H 0.63633 0.64029 0.87525 0.0
H838 H 0.64237 0.65644 0.91792 0.0
H839 H 0.6376 0.65809 0.83824 0.0
C840 C 0.63561 0.69806 0.0208 0.0
C841 C 0.64314 0.70574 0.97398 0.0
C842 C 0.62684 0.68561 0.00732 0.0
C843 C 0.62545 0.68061 0.94686 0.0
C844 C 0.63323 0.68804 0.90025 0.0
H845 H 0.56438 0.63361 0.72613 0.0
H846 H 0.585 0.64734 0.77244 0.0
C847 C 0.6421 0.70041 0.91373 0.0
C848 C 0.6146 0.66874 0.93147 0.0
H849 H 0.61034 0.63663 0.84937 0.0
C850 C 0.59961 0.67095 0.9478 0.0
C851 C 0.61862 0.65594 0.89741 0.0
C852 C 0.63464 0.65247 0.88176 0.0
C853 C 0.58843 0.66115 0.92818 0.0
C854 C 0.59238 0.64876 0.8917 0.0
C855 C 0.6074 0.6462 0.87726 0.0
C856 C 0.58087 0.63917 0.86386 0.0
C857 C 0.57237 0.66449 0.94396 0.0
C858 C 0.57196 0.62982 0.9 0.0
C859 C 0.56013 0.62194 0.87374 0.0
C860 C 0.55703 0.62335 0.81095 0.0
C861 C 0.56637 0.63235 0.77468 0.0
C862 C 0.5782 0.64015 0.80094 0.0
H863 H 0.57103 0.67563 0.9655 0.0
H864 H 0.56531 0.66402 0.90233 0.0
H865 H 0.56819 0.65593 0.97637 0.0
H866 H 0.57396 0.62887 0.94866 0.0
H867 H 0.5532 0.61505 0.90289 0.0
H868 H 0.56836 0.3655 0.29008 0.0
H869 H 0.58984 0.35075 0.25806 0.0
H870 H 0.57856 0.3586 0.06912 0.0
H871 H 0.55722 0.37375 0.10079 0.0
H872 H 0.58786 0.32535 0.19472 0.0
H873 H 0.62314 0.36539 0.06672 0.0
H874 H 0.60811 0.37131 0.11598 0.0
H875 H 0.60424 0.36483 0.03979 0.0
C876 C 0.57055 0.36427 0.24167 0.0
C877 C 0.56104 0.37073 0.19791 0.0
C878 C 0.58286 0.35588 0.22349 0.0
C879 C 0.5859 0.35372 0.16126 0.0
C880 C 0.57664 0.36043 0.11739 0.0
H881 H 0.63606 0.28967 0.95685 0.0
H882 H 0.62077 0.31058 0.99162 0.0
C883 C 0.56438 0.36898 0.13555 0.0
C884 C 0.59777 0.34319 0.14268 0.0
H885 H 0.62881 0.33943 0.05348 0.0
C886 C 0.59692 0.32849 0.1645 0.0
C887 C 0.60955 0.34731 0.10304 0.0
C888 C 0.61143 0.36311 0.08048 0.0
C889 C 0.60729 0.31767 0.14654 0.0
C890 C 0.61889 0.32172 0.1061 0.0
C891 C 0.61989 0.33644 0.08464 0.0
C892 C 0.62958 0.3105 0.08357 0.0
C893 C 0.60553 0.30188 0.16946 0.0
C894 C 0.63985 0.30388 0.12354 0.0
C895 C 0.6486 0.29191 0.10398 0.0
C896 C 0.64717 0.28637 0.0441 0.0
C897 C 0.63736 0.29356 0.00341 0.0
C898 C 0.62866 0.30555 0.02302 0.0
H899 H 0.59456 0.30006 0.19198 0.0
H900 H 0.60667 0.2938 0.13126 0.0
H901 H 0.61444 0.29944 0.20323 0.0
H902 H 0.64075 0.30768 0.17039 0.0
H903 H 0.65611 0.2867 0.13637 0.0
H904 H 0.97553 0.36705 0.19969 0.0
H905 H 0.95402 0.35243 0.23249 0.0
H906 H 0.96511 0.36113 0.42097 0.0
H907 H 0.98646 0.37615 0.38847 0.0
H908 H 0.95675 0.3273 0.29718 0.0
H909 H 0.92035 0.36659 0.4235 0.0
H910 H 0.93519 0.37283 0.37385 0.0
H911 H 0.93926 0.3667 0.45036 0.0
C912 C 0.97325 0.36608 0.24814 0.0
C913 C 0.98275 0.37266 0.29156 0.0
C914 C 0.96092 0.35776 0.26677 0.0
C915 C 0.95788 0.35579 0.32911 0.0
C916 C 0.96703 0.36279 0.3726 0.0
H917 H 0.90996 0.29085 0.53834 0.0
H918 H 0.92456 0.31212 0.50212 0.0
C919 C 0.9793 0.37127 0.35396 0.0
C920 C 0.94631 0.34499 0.34833 0.0
H921 H 0.91557 0.34048 0.43867 0.0
C922 C 0.94763 0.33024 0.32742 0.0
C923 C 0.93448 0.34884 0.38808 0.0
C924 C 0.93213 0.36464 0.4098 0.0
C925 C 0.93767 0.31914 0.34637 0.0
C926 C 0.92601 0.32293 0.38689 0.0
C927 C 0.92454 0.33768 0.40745 0.0
C928 C 0.91572 0.31144 0.41027 0.0
C929 C 0.93995 0.30333 0.32443 0.0
C930 C 0.90566 0.30433 0.37079 0.0
C931 C 0.89732 0.29215 0.39117 0.0
C932 C 0.89894 0.28689 0.45139 0.0
C933 C 0.90853 0.29452 0.49155 0.0
C934 C 0.91684 0.30672 0.47111 0.0
H935 H 0.95096 0.30181 0.30194 0.0
H936 H 0.93909 0.29536 0.36313 0.0
H937 H 0.93112 0.30048 0.29088 0.0
H938 H 0.90461 0.30794 0.32373 0.0
H939 H 0.88996 0.2866 0.35917 0.0
H940 H 0.88108 0.70207 0.58492 0.0
H941 H 0.89509 0.68011 0.61908 0.0
H942 H 0.93324 0.69491 0.51494 0.0
H943 H 0.919 0.71623 0.47775 0.0
H944 H 0.93104 0.66641 0.50617 0.0
H945 H 0.92509 0.68113 0.75139 0.0
H946 H 0.90765 0.67759 0.71406 0.0
H947 H 0.91884 0.69333 0.69121 0.0
C948 C 0.89242 0.70051 0.56902 0.0
C949 C 0.89902 0.71087 0.52909 0.0
C950 C 0.90045 0.68805 0.58895 0.0
C951 C 0.91537 0.68606 0.57101 0.0
C952 C 0.92177 0.6962 0.52963 0.0
H953 H 0.98785 0.64525 0.75518 0.0
H954 H 0.96692 0.66023 0.71904 0.0
C955 C 0.91363 0.7084 0.50842 0.0
C956 C 0.92461 0.67375 0.59604 0.0
H957 H 0.93838 0.65922 0.72873 0.0
C958 C 0.93262 0.6648 0.55487 0.0
C959 C 0.92672 0.67172 0.65966 0.0
C960 C 0.91924 0.68153 0.70665 0.0
C961 C 0.94321 0.65441 0.57521 0.0
C962 C 0.94528 0.65233 0.63883 0.0
C963 C 0.93674 0.66077 0.68003 0.0
C964 C 0.95727 0.64265 0.6637 0.0
C965 C 0.95264 0.64648 0.52813 0.0
C966 C 0.95865 0.62765 0.64594 0.0
C967 C 0.97088 0.6192 0.66519 0.0
C968 C 0.98161 0.62546 0.70434 0.0
C969 C 0.97973 0.64015 0.72507 0.0
C970 C 0.96775 0.64871 0.70447 0.0
H971 H 0.95239 0.65228 0.48324 0.0
H972 H 0.96444 0.64565 0.5432 0.0
H973 H 0.94824 0.63504 0.52114 0.0
H974 H 0.95043 0.62255 0.61633 0.0
H975 H 0.97199 0.60781 0.64932 0.0
H976 H 0.38545 0.29284 0.10816 0.0
H977 H 0.40085 0.31368 0.14329 0.0
H978 H 0.43654 0.29914 0.02497 0.0
H979 H 0.42088 0.27888 0.98714 0.0
H980 H 0.42505 0.31371 0.20413 0.0
H981 H 0.43731 0.34205 0.98623 0.0
H982 H 0.42346 0.32752 0.99186 0.0
H983 H 0.44291 0.32291 0.98174 0.0
C984 C 0.3965 0.29427 0.08893 0.0
C985 C 0.40195 0.28433 0.04461 0.0
C986 C 0.4053 0.30616 0.1091 0.0
C987 C 0.41978 0.30818 0.08602 0.0
C988 C 0.42524 0.29818 0.04193 0.0
H989 H 0.49357 0.34907 0.27228 0.0
H990 H 0.47282 0.33329 0.23978 0.0
C991 C 0.41632 0.28651 0.02065 0.0
C992 C 0.42954 0.32011 0.1109 0.0
H993 H 0.4544 0.34702 0.06899 0.0
C994 C 0.43128 0.32117 0.17456 0.0
C995 C 0.43745 0.3301 0.07265 0.0
C996 C 0.43504 0.33069 0.00442 0.0
C997 C 0.44113 0.3315 0.20083 0.0
C998 C 0.44999 0.34058 0.16227 0.0
C999 C 0.4478 0.33993 0.09874 0.0
C1000 C 0.46193 0.35049 0.18618 0.0
C1001 C 0.44176 0.33263 0.26958 0.0
C1002 C 0.46298 0.36532 0.16586 0.0
C1003 C 0.47511 0.37418 0.18272 0.0
C1004 C 0.48628 0.36845 0.22116 0.0
C1005 C 0.48498 0.35381 0.24332 0.0
C1006 C 0.47305 0.34482 0.22512 0.0
H1007 H 0.43089 0.32951 0.29042 0.0
H1008 H 0.45026 0.32472 0.28722 0.0
H1009 H 0.44471 0.34407 0.28478 0.0
H1010 H 0.45458 0.36996 0.13576 0.0
H1011 H 0.47585 0.38545 0.1651 0.0
H1012 H 0.38399 0.70465 0.88399 0.0
H1013 H 0.39893 0.68347 0.84926 0.0
H1014 H 0.43461 0.69688 0.96988 0.0
H1015 H 0.41937 0.71754 0.00722 0.0
H1016 H 0.42335 0.68333 0.78944 0.0
H1017 H 0.43428 0.65373 0.0058 0.0
H1018 H 0.42076 0.66857 0.00048 0.0
H1019 H 0.44026 0.67273 0.01178 0.0
C1020 C 0.39493 0.7029 0.90383 0.0
C1021 C 0.40052 0.71268 0.9485 0.0
C1022 C 0.40346 0.69082 0.8839 0.0
C1023 C 0.41782 0.6884 0.9076 0.0
C1024 C 0.42339 0.69817 0.95234 0.0
H1025 H 0.49134 0.64702 0.72316 0.0
H1026 H 0.47083 0.66301 0.75609 0.0
C1027 C 0.41472 0.71006 0.97333 0.0
C1028 C 0.42737 0.67636 0.88236 0.0
H1029 H 0.45138 0.6486 0.92325 0.0
C1030 C 0.42929 0.67558 0.81871 0.0
C1031 C 0.4349 0.666 0.92019 0.0
C1032 C 0.43229 0.66519 0.98825 0.0
C1033 C 0.43896 0.66514 0.79211 0.0
C1034 C 0.44744 0.65564 0.83036 0.0
C1035 C 0.44507 0.65602 0.8938 0.0
C1036 C 0.45924 0.64564 0.80619 0.0
C1037 C 0.43983 0.66437 0.72331 0.0
C1038 C 0.4598 0.63062 0.82437 0.0
C1039 C 0.47177 0.62159 0.80711 0.0
C1040 C 0.4833 0.62736 0.77056 0.0
C1041 C 0.4825 0.64223 0.75062 0.0
C1042 C 0.4707 0.65135 0.76908 0.0
H1043 H 0.42914 0.6679 0.70206 0.0
H1044 H 0.44862 0.67213 0.70697 0.0
H1045 H 0.44253 0.65293 0.70727 0.0
H1046 H 0.45112 0.62595 0.85308 0.0
H1047 H 0.47211 0.61015 0.82305 0.0
H1048 H 0.15226 0.70723 0.61119 0.0
H1049 H 0.13538 0.68722 0.64207 0.0
H1050 H 0.11052 0.69259 0.47484 0.0
H1051 H 0.12728 0.71273 0.44346 0.0
H1052 H 0.09319 0.69366 0.58267 0.0
H1053 H 0.13034 0.64407 0.5786 0.0
H1054 H 0.13766 0.65984 0.61953 0.0
H1055 H 0.13471 0.66115 0.53851 0.0
C1056 C 0.14333 0.70405 0.58049 0.0
C1057 C 0.14107 0.71164 0.52494 0.0
C1058 C 0.13376 0.69254 0.59811 0.0
C1059 C 0.12182 0.68836 0.56043 0.0
C1060 C 0.11974 0.69564 0.50433 0.0
H1061 H 0.05797 0.61671 0.61056 0.0
H1062 H 0.07772 0.63313 0.57288 0.0
C1063 C 0.12933 0.70713 0.48652 0.0
C1064 C 0.11079 0.6773 0.58197 0.0
H1065 H 0.10675 0.64108 0.62735 0.0
C1066 C 0.09612 0.68214 0.59211 0.0
C1067 C 0.11468 0.6623 0.59391 0.0
C1068 C 0.13017 0.65645 0.58163 0.0
C1069 C 0.08525 0.6724 0.61507 0.0
C1070 C 0.08924 0.65752 0.62876 0.0
C1071 C 0.10382 0.65257 0.61741 0.0
C1072 C 0.07825 0.64691 0.6539 0.0
C1073 C 0.06955 0.67807 0.62414 0.0
C1074 C 0.07233 0.64906 0.71254 0.0
C1075 C 0.06106 0.63972 0.73435 0.0
C1076 C 0.05552 0.62808 0.6977 0.0
C1077 C 0.0619 0.62564 0.63979 0.0
C1078 C 0.07321 0.63496 0.61819 0.0
H1079 H 0.0676 0.68878 0.59979 0.0
H1080 H 0.06128 0.66974 0.60784 0.0
H1081 H 0.06755 0.67994 0.67359 0.0
H1082 H 0.07624 0.65816 0.74094 0.0
H1083 H 0.05643 0.64187 0.77921 0.0
H1084 H 0.15895 0.29446 0.4017 0.0
H1085 H 0.14239 0.31463 0.36947 0.0
H1086 H 0.10661 0.29527 0.47519 0.0
H1087 H 0.12339 0.27555 0.5102 0.0
H1088 H 0.11899 0.31304 0.30273 0.0
H1089 H 0.10172 0.33751 0.52319 0.0
H1090 H 0.1168 0.32427 0.51762 0.0
H1091 H 0.09772 0.31794 0.52137 0.0
C1092 C 0.14762 0.29469 0.41896 0.0
C1093 C 0.14245 0.2835 0.45866 0.0
C1094 C 0.13816 0.30619 0.40043 0.0
C1095 C 0.12329 0.30662 0.42049 0.0
C1096 C 0.11815 0.29549 0.46057 0.0
H1097 H 0.05049 0.34775 0.22369 0.0
H1098 H 0.07048 0.33149 0.2603 0.0
C1099 C 0.12771 0.28416 0.48026 0.0
C1100 C 0.11291 0.31803 0.39585 0.0
H1101 H 0.08613 0.34313 0.43684 0.0
C1102 C 0.11195 0.31976 0.33216 0.0
C1103 C 0.10388 0.327 0.43408 0.0
C1104 C 0.10521 0.3267 0.50283 0.0
C1105 C 0.10198 0.32993 0.30562 0.0
C1106 C 0.09223 0.33815 0.34373 0.0
C1107 C 0.09346 0.3367 0.40747 0.0
C1108 C 0.08057 0.34819 0.31882 0.0
C1109 C 0.10221 0.33187 0.23711 0.0
C1110 C 0.07933 0.36288 0.34056 0.0
C1111 C 0.06767 0.37203 0.32102 0.0
C1112 C 0.05715 0.36673 0.27868 0.0
C1113 C 0.05858 0.35218 0.25569 0.0
C1114 C 0.07007 0.34291 0.27632 0.0
H1115 H 0.11333 0.32906 0.21787 0.0
H1116 H 0.09396 0.32419 0.21619 0.0
H1117 H 0.09938 0.34348 0.22368 0.0
H1118 H 0.08727 0.3672 0.37342 0.0
H1119 H 0.06684 0.38322 0.33943 0.0
H1120 H 0.04499 0.04403 0.1823 0.0
H1121 H 0.04693 0.02057 0.12467 0.0
H1122 H 0.00853 0.03315 0.01744 0.0
H1123 H 0.00665 0.05657 0.07465 0.0
H1124 H 0.0259 0.99762 0.10945 0.0
H1125 H 0.04023 0.02418 0.88807 0.0
H1126 H 0.04107 0.03409 0.95979 0.0
H1127 H 0.02347 0.03138 0.92192 0.0
C1128 C 0.03688 0.04162 0.14696 0.0
C1129 C 0.0256 0.05191 0.1329 0.0
C1130 C 0.03804 0.02833 0.11392 0.0
C1131 C 0.02802 0.0253 0.06622 0.0
C1132 C 0.01655 0.03546 0.05322 0.0
H1133 H 0.00859 0.95259 0.82325 0.0
H1134 H 0.00983 0.97639 0.87881 0.0
C1135 C 0.01542 0.04872 0.08607 0.0
C1136 C 0.0294 0.01145 0.03027 0.0
H1137 H 0.03371 -0.00163 0.88491 0.0
C1138 C 0.02776 0.99775 0.06047 0.0
C1139 C 0.03185 0.01173 0.96642 0.0
C1140 C 0.0344 0.02613 0.93216 0.0
C1141 C 0.02801 0.98426 0.02807 0.0
C1142 C 0.03016 0.98458 0.96409 0.0
C1143 C 0.03203 -0.00175 0.934 0.0
C1144 C 0.03009 0.97078 0.92748 0.0
C1145 C 0.02552 0.96983 0.06215 0.0
C1146 C 0.04133 0.96007 0.9353 0.0
C1147 C 0.04065 0.94659 0.90361 0.0
C1148 C 0.0287 0.94368 0.86398 0.0
C1149 C 0.01783 0.95466 0.85401 0.0
C1150 C 0.01853 0.96816 0.88563 0.0
H1151 H 0.02106 0.97174 0.10886 0.0
H1152 H 0.01765 0.96251 0.03687 0.0
H1153 H 0.03629 0.96381 0.06641 0.0
H1154 H 0.05049 0.96207 0.96656 0.0
H1155 H 0.04929 0.93832 0.91086 0.0
H1156 H 0.32945 0.77251 0.1457 0.0
H1157 H 0.30589 0.77256 0.20272 0.0
H1158 H 0.29212 0.73268 0.10765 0.0
H1159 H 0.31591 0.73236 0.05211 0.0
H1160 H 0.27633 0.77334 0.1662 0.0
H1161 H 0.28945 0.72044 0.28708 0.0
H1162 H 0.30324 0.73071 0.24413 0.0
H1163 H 0.29001 0.71897 0.20531 0.0
C1164 C 0.32134 0.76378 0.13718 0.0
C1165 C 0.32449 0.75226 0.09579 0.0
C1166 C 0.30792 0.76385 0.16943 0.0
C1167 C 0.29746 0.75242 0.16036 0.0
C1168 C 0.30024 0.74138 0.11633 0.0
H1169 H 0.21075 0.73242 0.30796 0.0
H1170 H 0.23398 0.73368 0.249 0.0
C1171 C 0.31371 0.74127 0.08433 0.0
C1172 C 0.28382 0.75188 0.19818 0.0
H1173 H 0.26508 0.73025 0.30114 0.0
C1174 C 0.27389 0.76397 0.19592 0.0
C1175 C 0.28078 0.73966 0.23726 0.0
C1176 C 0.29149 0.72677 0.24421 0.0
C1177 C 0.26077 0.764 0.23081 0.0
C1178 C 0.25764 0.75168 0.26895 0.0
C1179 C 0.26759 0.73965 0.27158 0.0
C1180 C 0.24384 0.75089 0.30531 0.0
C1181 C 0.25017 0.77702 0.22594 0.0
C1182 C 0.2419 0.76003 0.35671 0.0
C1183 C 0.2287 0.75926 0.39054 0.0
C1184 C 0.21737 0.74934 0.37316 0.0
C1185 C 0.2194 0.74013 0.32202 0.0
C1186 C 0.2326 0.74083 0.2885 0.0
H1187 H 0.25318 0.78467 0.1879 0.0
H1188 H 0.23858 0.77299 0.2189 0.0
H1189 H 0.25039 0.78345 0.26926 0.0
H1190 H 0.25056 0.76778 0.37037 0.0
H1191 H 0.22722 0.76658 0.42944 0.0
H1192 H 0.53375 0.03983 0.29648 0.0
H1193 H 0.53121 0.01559 0.34644 0.0
H1194 H 0.49667 0.03364 0.46261 0.0
H1195 H 0.49777 0.05711 0.4067 0.0
H1196 H 0.53781 0.00862 0.45079 0.0
H1197 H 0.478 0.99541 0.43432 0.0
H1198 H 0.48613 0.01059 0.39188 0.0
H1199 H 0.48 0.01327 0.46978 0.0
C1200 C 0.52527 0.03841 0.33124 0.0
C1201 C 0.51615 0.05039 0.34862 0.0
C1202 C 0.52392 0.02461 0.3603 0.0
C1203 C 0.51369 0.02264 0.40839 0.0
C1204 C 0.50436 0.03459 0.42471 0.0
H1205 H 0.53374 0.95613 0.68663 0.0
H1206 H 0.53085 0.97933 0.62902 0.0
C1207 C 0.50526 0.04817 0.39377 0.0
C1208 C 0.51378 0.00865 0.44492 0.0
H1209 H 0.49131 0.98347 0.51704 0.0
C1210 C 0.52762 0.00298 0.4642 0.0
C1211 C 0.50055 0.00108 0.46211 0.0
C1212 C 0.48538 0.00534 0.43772 0.0
C1213 C 0.52862 0.99012 0.50031 0.0
C1214 C 0.51535 0.9833 0.52176 0.0
C1215 C 0.50151 0.98885 0.50192 0.0
C1216 C 0.51559 0.96999 0.56227 0.0
C1217 C 0.54394 0.9838 0.51294 0.0
C1218 C 0.50689 0.95745 0.54774 0.0
C1219 C 0.50783 0.94453 0.58298 0.0
C1220 C 0.51793 0.94367 0.63187 0.0
C1221 C 0.52601 0.95643 0.64861 0.0
C1222 C 0.52459 0.96959 0.61489 0.0
H1223 H 0.55202 0.98705 0.47677 0.0
H1224 H 0.54817 0.98834 0.5568 0.0
H1225 H 0.54372 0.97143 0.51573 0.0
H1226 H 0.49964 0.95748 0.50815 0.0
H1227 H 0.50099 0.93503 0.57068 0.0
H1228 H 0.31635 0.26471 0.93622 0.0
H1229 H 0.29275 0.2638 0.87916 0.0
H1230 H 0.30799 0.22457 0.78362 0.0
H1231 H 0.33145 0.22529 0.8414 0.0
H1232 H 0.29777 0.25093 0.70937 0.0
H1233 H 0.25766 0.23187 0.88735 0.0
H1234 H 0.27058 0.24637 0.90851 0.0
H1235 H 0.27743 0.22802 0.89175 0.0
C1236 C 0.31449 0.25577 0.90379 0.0
C1237 C 0.32566 0.24517 0.89234 0.0
C1238 C 0.30108 0.25526 0.87135 0.0
C1239 C 0.29872 0.24412 0.82737 0.0
C1240 C 0.30968 0.23325 0.81739 0.0
H1241 H 0.23024 0.23102 0.54976 0.0
H1242 H 0.2534 0.23005 0.60964 0.0
C1243 C 0.32303 0.23369 0.85012 0.0
C1244 C 0.28524 0.24439 0.78891 0.0
H1245 H 0.24757 0.23936 0.79241 0.0
C1246 C 0.28677 0.24833 0.72722 0.0
C1247 C 0.27101 0.24107 0.81285 0.0
C1248 C 0.26897 0.2365 0.87866 0.0
C1249 C 0.2743 0.24935 0.68879 0.0
C1250 C 0.26003 0.24597 0.71262 0.0
C1251 C 0.25855 0.24193 0.77434 0.0
C1252 C 0.24641 0.24686 0.67476 0.0
C1253 C 0.27647 0.25444 0.62365 0.0
C1254 C 0.23481 0.25645 0.6921 0.0
C1255 C 0.22165 0.25694 0.65827 0.0
C1256 C 0.21991 0.24787 0.60656 0.0
C1257 C 0.23153 0.23833 0.58883 0.0
C1258 C 0.2447 0.23778 0.62292 0.0
H1259 H 0.28731 0.26026 0.61737 0.0
H1260 H 0.27635 0.24457 0.59302 0.0
H1261 H 0.26735 0.26206 0.60927 0.0
H1262 H 0.23591 0.2635 0.73207 0.0
H1263 H 0.21276 0.26434 0.67273 0.0
H1264 H 0.71468 0.23392 0.81979 0.0
H1265 H 0.73795 0.23669 0.76227 0.0
H1266 H 0.74993 0.27452 0.87406 0.0
H1267 H 0.72672 0.27152 0.93252 0.0
H1268 H 0.74775 0.26029 0.69463 0.0
H1269 H 0.78694 0.24864 0.88579 0.0
H1270 H 0.7672 0.24491 0.89112 0.0
H1271 H 0.7741 0.26363 0.8997 0.0
C1272 C 0.72238 0.24273 0.83222 0.0
C1273 C 0.71918 0.25235 0.88092 0.0
C1274 C 0.7356 0.24434 0.79938 0.0
C1275 C 0.74575 0.25566 0.81456 0.0
C1276 C 0.74242 0.26548 0.86267 0.0
H1277 H 0.83198 0.27562 0.64676 0.0
H1278 H 0.80821 0.27825 0.70162 0.0
C1279 C 0.72922 0.26378 0.89591 0.0
C1280 C 0.7597 0.25719 0.77917 0.0
H1281 H 0.79761 0.25525 0.79093 0.0
C1282 C 0.75866 0.25925 0.71569 0.0
C1283 C 0.77389 0.25584 0.80691 0.0
C1284 C 0.77567 0.253 0.87452 0.0
C1285 C 0.77146 0.25976 0.67902 0.0
C1286 C 0.78558 0.25814 0.70667 0.0
C1287 C 0.78669 0.25653 0.77021 0.0
C1288 C 0.79934 0.25716 0.67016 0.0
C1289 C 0.76984 0.2619 0.61098 0.0
C1290 C 0.80206 0.24447 0.63438 0.0
C1291 C 0.81564 0.24286 0.60398 0.0
C1292 C 0.82665 0.25391 0.60922 0.0
C1293 C 0.82371 0.26684 0.64328 0.0
C1294 C 0.81018 0.2684 0.67414 0.0
H1295 H 0.75858 0.26609 0.5985 0.0
H1296 H 0.77836 0.26985 0.59365 0.0
H1297 H 0.77162 0.25105 0.58768 0.0
H1298 H 0.79384 0.23563 0.63141 0.0
H1299 H 0.81773 0.23283 0.57773 0.0
H1300 H 0.7264 0.76236 0.05888 0.0
H1301 H 0.7508 0.76254 0.10989 0.0
H1302 H 0.73884 0.72247 0.20785 0.0
H1303 H 0.71464 0.72209 0.15568 0.0
H1304 H 0.7543 0.76479 0.23554 0.0
H1305 H 0.78093 0.71314 0.14803 0.0
H1306 H 0.76497 0.72161 0.11148 0.0
H1307 H 0.76256 0.71029 0.1786 0.0
C1308 C 0.72916 0.75347 0.09046 0.0
C1309 C 0.71873 0.7423 0.10414 0.0
C1310 C 0.74302 0.75359 0.1196 0.0
C1311 C 0.74663 0.74246 0.16225 0.0
C1312 C 0.73636 0.73102 0.17435 0.0
H1313 H 0.81824 0.72962 0.42364 0.0
H1314 H 0.79482 0.72824 0.36538 0.0
C1315 C 0.72253 0.73088 0.1451 0.0
C1316 C 0.76058 0.7435 0.1978 0.0
H1317 H 0.79252 0.72474 0.23376 0.0
C1318 C 0.76273 0.7561 0.23482 0.0
C1319 C 0.77145 0.73207 0.19695 0.0
C1320 C 0.76997 0.71857 0.15622 0.0
C1321 C 0.77539 0.75748 0.27188 0.0
C1322 C 0.78622 0.74604 0.2712 0.0
C1323 C 0.78411 0.73344 0.23422 0.0
C1324 C 0.80002 0.74714 0.30755 0.0
C1325 C 0.77697 0.77103 0.31229 0.0
C1326 C 0.8106 0.75817 0.29389 0.0
C1327 C 0.82383 0.759 0.32714 0.0
C1328 C 0.82665 0.74883 0.37447 0.0
C1329 C 0.81609 0.73776 0.38812 0.0
C1330 C 0.80284 0.7369 0.3547 0.0
H1331 H 0.76619 0.77699 0.31815 0.0
H1332 H 0.78129 0.76786 0.35805 0.0
H1333 H 0.78504 0.77889 0.29127 0.0
H1334 H 0.8087 0.76599 0.25695 0.0
H1335 H 0.83194 0.76752 0.31561 0.0
H1336 H 0.51045 0.55982 0.54871 0.0
H1337 H 0.5128 0.53657 0.49075 0.0
H1338 H 0.54282 0.51922 0.62758 0.0
H1339 H 0.54039 0.54251 0.68595 0.0
H1340 H 0.53834 0.52348 0.44194 0.0
H1341 H 0.51106 0.48657 0.6132 0.0
H1342 H 0.50988 0.50666 0.61689 0.0
H1343 H 0.52653 0.49726 0.64151 0.0
C1344 C 0.51753 0.55101 0.5663 0.0
C1345 C 0.52514 0.55278 0.62182 0.0
C1346 C 0.51886 0.53779 0.53328 0.0
C1347 C 0.52783 0.52615 0.55533 0.0
C1348 C 0.53561 0.52798 0.61051 0.0
H1349 H 0.55155 0.44236 0.37876 0.0
H1350 H 0.55273 0.46633 0.43332 0.0
C1351 C 0.53422 0.54121 0.64373 0.0
C1352 C 0.52902 0.51217 0.52006 0.0
H1353 H 0.52101 0.47496 0.52517 0.0
C1354 C 0.53461 0.51285 0.46016 0.0
C1355 C 0.52404 0.49838 0.54403 0.0
C1356 C 0.51742 0.49711 0.60723 0.0
C1357 C 0.53531 0.50005 0.42348 0.0
C1358 C 0.53031 0.48635 0.44749 0.0
C1359 C 0.52487 0.48558 0.50739 0.0
C1360 C 0.53014 0.47269 0.41037 0.0
C1361 C 0.54114 0.50118 0.35903 0.0
C1362 C 0.51712 0.46863 0.37907 0.0
C1363 C 0.51642 0.45502 0.34829 0.0
C1364 C 0.5287 0.44533 0.34907 0.0
C1365 C 0.54191 0.44966 0.37849 0.0
C1366 C 0.54261 0.46328 0.40928 0.0
H1367 H 0.54471 0.5127 0.3472 0.0
H1368 H 0.55078 0.49352 0.35318 0.0
H1369 H 0.53234 0.4976 0.32645 0.0
H1370 H 0.50741 0.47583 0.37971 0.0
H1371 H 0.50616 0.45183 0.3256 0.0
H1372 H 0.99777 0.55612 0.9024 0.0
H1373 H 0.99792 0.53252 0.95925 0.0
H1374 H 0.0378 0.51906 0.86352 0.0
H1375 H 0.03791 0.54289 0.80806 0.0
H1376 H 0.99724 0.50302 0.92114 0.0
H1377 H 0.05001 0.51601 0.04308 0.0
H1378 H 0.0397 0.52989 0.00077 0.0
H1379 H 0.05147 0.51681 0.96133 0.0
C1380 C 0.00655 0.54808 0.89377 0.0
C1381 C 0.018 0.55131 0.85212 0.0
C1382 C 0.0066 0.53464 0.9259 0.0
C1383 C 0.01806 0.52424 0.91651 0.0
C1384 C 0.02907 0.52713 0.87243 0.0
H1385 H 0.03839 0.43746 0.06376 0.0
H1386 H 0.03731 0.46081 0.00548 0.0
C1387 C 0.02906 0.54062 0.8405 0.0
C1388 C 0.01863 0.51052 0.9538 0.0
H1389 H 0.04018 0.49164 0.05654 0.0
C1390 C 0.00658 0.50054 0.95095 0.0
C1391 C 0.03081 0.50743 0.99293 0.0
C1392 C 0.04368 0.51815 0.00032 0.0
C1393 C 0.00655 0.48734 0.98535 0.0
C1394 C 0.01882 0.48419 0.02373 0.0
C1395 C 0.03082 0.49417 0.02685 0.0
C1396 C 0.01957 0.47035 0.05991 0.0
C1397 C 0.99358 0.4767 0.97969 0.0
C1398 C 0.01007 0.46818 0.1101 0.0
C1399 C 0.01073 0.45492 0.14353 0.0
C1400 C 0.02091 0.44374 0.12702 0.0
C1401 C 0.03049 0.446 0.07718 0.0
C1402 C 0.02989 0.45927 0.04405 0.0
H1403 H 0.98616 0.47961 0.9408 0.0
H1404 H 0.99764 0.46509 0.97352 0.0
H1405 H 0.98689 0.47703 0.02234 0.0
H1406 H 0.00212 0.47671 0.12309 0.0
H1407 H 0.00312 0.45325 0.18136 0.0
H1408 H 0.01874 0.13117 0.88257 0.0
H1409 H 0.01076 0.12055 0.78502 0.0
H1410 H 0.991 0.08323 0.87961 0.0
H1411 H -0.00054 0.09335 0.9764 0.0
H1412 H 0.0099 0.0743 0.79302 0.0
H1413 H 0.97161 0.11616 0.69482 0.0
H1414 H 0.98862 0.12473 0.71976 0.0
H1415 H 0.97652 0.11598 0.77489 0.0
C1416 C 0.01235 0.12091 0.8826 0.0
C1417 C 0.00945 0.11333 0.93746 0.0
C1418 C 0.00769 0.1149 0.82693 0.0
C1419 C 2e-05 0.10124 0.82524 0.0
C1420 C 0.99668 0.0939 0.88004 0.0
H1421 H 0.98306 0.07594 0.44738 0.0
H1422 H 0.97775 0.07613 0.55689 0.0
C1423 C 0.0014 0.09985 0.93562 0.0
C1424 C 0.99733 0.09376 0.76613 0.0
H1425 H 0.98478 0.10047 0.62197 0.0
C1426 C 0.00409 0.07984 0.75593 0.0
C1427 C 0.98946 0.1008 0.71823 0.0
C1428 C 0.98101 0.11517 0.7277 0.0
C1429 C 0.00429 0.07341 0.69761 0.0
C1430 C 0.99781 0.08126 0.64835 0.0
C1431 C 0.98992 0.09452 0.65968 0.0
C1432 C 0.00093 0.0773 0.5841 0.0
C1433 C 0.01192 0.05856 0.68896 0.0
C1434 C 0.01574 0.0773 0.56331 0.0
C1435 C 0.01882 0.07719 0.50091 0.0
C1436 C 0.00712 0.07725 0.45824 0.0
C1437 C 0.99233 0.07599 0.47915 0.0
C1438 C 0.98926 0.07609 0.5417 0.0
H1439 H 0.01099 0.05161 0.73083 0.0
H1440 H 0.00712 0.0523 0.64983 0.0
H1441 H 0.02396 0.06045 0.68013 0.0
H1442 H 0.02492 0.07854 0.59511 0.0
H1443 H 0.03033 0.0781 0.48626 0.0
H1444 H 0.14701 0.71904 0.19484 0.0
H1445 H 0.15816 0.71018 0.09894 0.0
H1446 H 0.17304 0.75491 0.05887 0.0
H1447 H 0.16231 0.76371 0.1547 0.0
H1448 H 0.1523 0.71989 0.97914 0.0
H1449 H 0.21128 0.72991 0.0407 0.0
H1450 H 0.19655 0.72898 0.09697 0.0
H1451 H 0.19975 0.74592 0.05468 0.0
C1452 C 0.15274 0.72693 0.16564 0.0
C1453 C 0.15401 0.742 0.18251 0.0
C1454 C 0.15908 0.72187 0.11106 0.0
C1455 C 0.16681 0.73182 0.07301 0.0
C1456 C 0.16751 0.74698 0.08862 0.0
H1457 H 0.19552 0.75093 0.72778 0.0
H1458 H 0.19314 0.74739 0.83775 0.0
C1459 C 0.16117 0.75203 0.14288 0.0
C1460 C 0.17354 0.72675 0.01511 0.0
H1461 H 0.20573 0.72897 0.93243 0.0
C1462 C 0.16405 0.72146 0.96914 0.0
C1463 C 0.1889 0.72875 0.00273 0.0
C1464 C 0.19974 0.73355 0.05163 0.0
C1465 C 0.16925 0.71936 0.90938 0.0
C1466 C 0.18441 0.7224 0.89594 0.0
C1467 C 0.19413 0.72667 0.94298 0.0
C1468 C 0.18962 0.72354 0.83212 0.0
C1469 C 0.15824 0.71504 0.86023 0.0
C1470 C 0.18937 0.71114 0.7931 0.0
C1471 C 0.19067 0.71314 0.72999 0.0
C1472 C 0.19222 0.72757 0.7054 0.0
C1473 C 0.19411 0.73971 0.74527 0.0
C1474 C 0.1928 0.7377 0.80818 0.0
H1475 H 0.14655 0.71506 0.87708 0.0
H1476 H 0.15904 0.72283 0.82086 0.0
H1477 H 0.16087 0.70366 0.8435 0.0
H1478 H 0.18718 0.70009 0.81105 0.0
H1479 H 0.18933 0.70353 0.70049 0.0
H1480 H 0.52409 0.93061 0.9811 0.0
H1481 H 0.52673 0.92709 0.09146 0.0
H1482 H 0.56581 0.89992 0.06076 0.0
H1483 H 0.56384 0.90439 0.95157 0.0
H1484 H 0.52228 0.90183 0.13707 0.0
H1485 H 0.57838 0.91829 0.21479 0.0
H1486 H 0.57113 0.92399 0.14152 0.0
H1487 H 0.57998 0.90604 0.15057 0.0
C1488 C 0.53363 0.92451 -0.00156 0.0
C1489 C 0.54376 0.91778 0.95817 0.0
C1490 C 0.5351 0.92241 0.06135 0.0
C1491 C 0.54647 0.91321 0.08471 0.0
C1492 C 0.55719 0.90739 0.04449 0.0
H1493 H 0.52609 0.85682 0.3964 0.0
H1494 H 0.53284 0.86559 0.29382 0.0
C1495 C 0.556 0.90989 0.98179 0.0
C1496 C 0.54551 0.90754 0.14829 0.0
H1497 H 0.56603 0.89919 0.27517 0.0
C1498 C 0.53182 0.90152 0.16753 0.0
C1499 C 0.5579 0.90708 0.18833 0.0
C1500 C 0.5726 0.91436 0.17284 0.0
C1501 C 0.53018 0.89496 0.22512 0.0
C1502 C 0.54281 0.89361 0.26353 0.0
C1503 C 0.55646 0.89985 0.24496 0.0
C1504 C 0.54169 0.88677 0.32497 0.0
C1505 C 0.51479 0.88995 0.24451 0.0
C1506 C 0.54562 0.89518 0.37649 0.0
C1507 C 0.54227 0.88995 0.43483 0.0
C1508 C 0.53485 0.87627 0.44267 0.0
C1509 C 0.53184 0.86739 0.39141 0.0
C1510 C 0.53553 0.87247 0.33295 0.0
H1511 H 0.50592 0.89571 0.21803 0.0
H1512 H 0.51363 0.8778 0.23609 0.0
H1513 H 0.51285 0.89212 0.29382 0.0
H1514 H 0.55043 0.9062 0.37153 0.0
H1515 H 0.54456 0.89716 0.47326 0.0
H1516 H 0.34933 0.28951 0.20752 0.0
H1517 H 0.35144 0.29463 0.31703 0.0
H1518 H 0.35418 0.2474 0.35326 0.0
H1519 H 0.35176 0.24216 0.2446 0.0
H1520 H 0.3393 0.26322 0.44441 0.0
H1521 H 0.39391 0.28907 0.3834 0.0
H1522 H 0.37746 0.29723 0.35034 0.0
H1523 H 0.383 0.27871 0.32874 0.0
C1524 C 0.34991 0.2802 0.23899 0.0
C1525 C 0.35077 0.26544 0.21739 0.0
C1526 C 0.35121 0.28317 0.30145 0.0
C1527 C 0.35341 0.27141 0.34278 0.0
C1528 C 0.35264 0.25664 0.32191 0.0
H1529 H 0.40586 0.24908 0.64158 0.0
H1530 H 0.39535 0.25699 0.54357 0.0
C1531 C 0.3513 0.25366 0.25972 0.0
C1532 C 0.35846 0.27419 0.40597 0.0
H1533 H 0.38941 0.28439 0.48675 0.0
C1534 C 0.3501 0.26815 0.4541 0.0
C1535 C 0.37266 0.28047 0.41791 0.0
C1536 C 0.38238 0.28667 0.36753 0.0
C1537 C 0.35591 0.26743 0.51349 0.0
C1538 C 0.37033 0.27323 0.52496 0.0
C1539 C 0.37834 0.28004 0.47755 0.0
C1540 C 0.37799 0.27063 0.58373 0.0
C1541 C 0.34698 0.25955 0.56236 0.0
C1542 C 0.37206 0.27616 0.63839 0.0
C1543 C 0.37795 0.27154 0.69428 0.0
C1544 C 0.3901 0.2616 0.69632 0.0
C1545 C 0.3966 0.25686 0.64133 0.0
C1546 C 0.39062 0.26137 0.58544 0.0
H1547 H 0.33735 0.25333 0.54308 0.0
H1548 H 0.35412 0.25159 0.58805 0.0
H1549 H 0.34259 0.2679 0.59517 0.0
H1550 H 0.36242 0.28343 0.6379 0.0
H1551 H 0.37227 0.27502 0.73543 0.0
H1552 H 0.98534 0.92104 0.55203 0.0
H1553 H 0.97973 0.91953 0.44276 0.0
H1554 H 0.02665 0.9148 0.40347 0.0
H1555 H 0.03239 0.91663 0.51188 0.0
H1556 H 0.01126 0.93069 0.31421 0.0
H1557 H 0.98299 0.87716 0.37356 0.0
H1558 H 0.97573 0.89388 0.40778 0.0
H1559 H 0.994 0.88737 0.42834 0.0
C1560 C 0.9945 0.92013 0.51996 0.0
C1561 C 0.00929 0.91857 0.5406 0.0
C1562 C 0.99125 0.91918 0.45763 0.0
C1563 C 0.00274 0.91661 0.41547 0.0
C1564 C 0.01761 0.91664 0.43546 0.0
H1565 H 0.02228 0.86379 0.11615 0.0
H1566 H 0.01472 0.87457 0.21405 0.0
C1567 C 0.02087 0.91765 0.49753 0.0
C1568 C -0.00048 0.91193 0.35216 0.0
H1569 H 0.98775 0.88171 0.27036 0.0
C1570 C 0.00582 0.92015 0.30419 0.0
C1571 C 0.99254 0.89807 0.33977 0.0
C1572 C 0.98599 0.88851 0.38991 0.0
C1573 C 0.00618 0.91448 0.24455 0.0
C1574 C -0.00026 0.90034 0.23266 0.0
C1575 C 0.99261 0.89255 0.27989 0.0
C1576 C 0.00205 0.89264 0.17379 0.0
C1577 C 0.0144 0.92316 0.19588 0.0
C1578 C 0.99693 0.8989 0.11906 0.0
C1579 C 0.00138 0.89287 0.06322 0.0
C1580 C 0.0107 0.88023 0.06127 0.0
C1581 C 0.01499 0.87343 0.11629 0.0
C1582 C 0.01067 0.87957 0.17213 0.0
H1583 H 0.02105 0.93248 0.21539 0.0
H1584 H 0.02203 0.91575 0.16986 0.0
H1585 H 0.00623 0.92798 0.16332 0.0
H1586 H 0.99013 0.90889 0.11949 0.0
H1587 H 0.99826 0.89877 0.02209 0.0
H1588 H 0.35002 0.75485 0.7454 0.0
H1589 H 0.35184 0.74951 0.63662 0.0
H1590 H 0.3522 0.70228 0.67479 0.0
H1591 H 0.35054 0.70753 0.78419 0.0
H1592 H 0.3769 0.71152 0.61287 0.0
H1593 H 0.3266 0.73332 0.49815 0.0
H1594 H 0.33403 0.7468 0.55046 0.0
H1595 H 0.32706 0.72927 0.57905 0.0
C1596 C 0.35 0.74331 0.73063 0.0
C1597 C 0.35036 0.73162 0.77337 0.0
C1598 C 0.35093 0.74027 0.66832 0.0
C1599 C 0.3521 0.72549 0.64767 0.0
C1600 C 0.35125 0.71375 0.68991 0.0
H1601 H 0.36988 0.72338 0.25658 0.0
H1602 H 0.36036 0.71457 0.35415 0.0
C1603 C 0.35027 0.71679 0.75238 0.0
C1604 C 0.35676 0.72266 0.58399 0.0
H1605 H 0.34948 0.73351 0.43792 0.0
C1606 C 0.37073 0.71597 0.57429 0.0
C1607 C 0.34864 0.72827 0.53372 0.0
C1608 C 0.33317 0.73467 0.54084 0.0
C1609 C 0.37732 0.71584 0.51625 0.0
C1610 C 0.36982 0.72279 0.46715 0.0
C1611 C 0.35533 0.72837 0.47587 0.0
C1612 C 0.37723 0.72571 0.40804 0.0
C1613 C 0.39245 0.70871 0.50851 0.0
C1614 C 0.39008 0.73468 0.4059 0.0
C1615 C 0.39573 0.73955 0.34989 0.0
C1616 C 0.38863 0.73554 0.29519 0.0
C1617 C 0.37603 0.72618 0.29747 0.0
C1618 C 0.37043 0.72127 0.35339 0.0
H1619 H 0.39423 0.69972 0.54272 0.0
H1620 H 0.39381 0.70395 0.46201 0.0
H1621 H 0.40122 0.71727 0.51565 0.0
H1622 H 0.39526 0.73858 0.44764 0.0
H1623 H 0.40526 0.74699 0.34945 0.0
H1624 H 0.50797 0.10609 0.5884 0.0
H1625 H 0.51775 0.0969 0.68509 0.0
H1626 H 0.56119 0.11453 0.64051 0.0
H1627 H 0.55126 0.12443 0.5442 0.0
H1628 H 0.54129 0.07602 0.69761 0.0
H1629 H 0.5534 0.13 0.81444 0.0
H1630 H 0.54158 0.12898 0.74781 0.0
H1631 H 0.56141 0.12707 0.74007 0.0
C1632 C 0.51954 0.10829 0.59951 0.0
C1633 C 0.52892 0.11579 0.55824 0.0
C1634 C 0.52515 0.10288 0.65451 0.0
C1635 C 0.5402 0.10492 0.66957 0.0
C1636 C 0.54953 0.11286 0.62961 0.0
H1637 H 0.56739 0.08354 0.0422 0.0
H1638 H 0.57181 0.08594 0.93233 0.0
C1639 C 0.54388 0.11838 0.57445 0.0
C1640 C 0.54585 0.09851 0.72723 0.0
H1641 H 0.55557 0.10818 0.87236 0.0
C1642 C 0.54471 0.08301 0.7356 0.0
C1643 C 0.55048 0.10764 0.77628 0.0
C1644 C 0.55175 0.12436 0.76974 0.0
C1645 C 0.54706 0.07651 0.79303 0.0
C1646 C 0.55053 0.08579 0.84312 0.0
C1647 C 0.5529 0.10111 0.83366 0.0
C1648 C 0.54915 0.08052 0.90678 0.0
C1649 C 0.54517 0.05989 0.80023 0.0
C1650 C 0.53507 0.07614 0.92841 0.0
C1651 C 0.53247 0.07488 0.99099 0.0
C1652 C 0.54392 0.07799 0.03287 0.0
C1653 C 0.55836 0.08104 0.01096 0.0
C1654 C 0.56091 0.08245 0.94825 0.0
H1655 H 0.5477 0.05395 0.75687 0.0
H1656 H 0.5525 0.05544 0.8369 0.0
H1657 H 0.53341 0.05743 0.81253 0.0
H1658 H 0.52577 0.07485 0.89723 0.0
H1659 H 0.52126 0.07247 0.00662 0.0
H1660 H 0.16347 0.23173 0.83086 0.0
H1661 H 0.17339 0.24083 0.92765 0.0
H1662 H 0.1601 0.28565 0.88067 0.0
H1663 H 0.14955 0.2765 0.78435 0.0
H1664 H 0.19635 0.26269 0.9409 0.0
H1665 H 0.1431 0.27933 0.05366 0.0
H1666 H 0.14348 0.26726 0.9877 0.0
H1667 H 0.14681 0.28689 0.97906 0.0
C1668 C 0.1624 0.24349 0.84152 0.0
C1669 C 0.1559 0.25345 0.79969 0.0
C1670 C 0.16822 0.24869 0.89651 0.0
C1671 C 0.16757 0.26391 0.91096 0.0
C1672 C 0.16069 0.27385 0.87025 0.0
H1673 H 0.18908 0.293 0.28016 0.0
H1674 H 0.18724 0.2962 0.16951 0.0
C1675 C 0.15479 0.26863 0.8151 0.0
C1676 C 0.17421 0.26912 0.96884 0.0
H1677 H 0.16491 0.2807 0.11203 0.0
C1678 C 0.18955 0.26688 0.97813 0.0
C1679 C 0.16531 0.27474 0.01685 0.0
C1680 C 0.14874 0.27715 0.00935 0.0
C1681 C 0.19608 0.26931 0.03545 0.0
C1682 C 0.18698 0.27392 0.08458 0.0
C1683 C 0.17187 0.27719 0.07412 0.0
C1684 C 0.19209 0.27312 0.14868 0.0
C1685 C 0.21254 0.26644 0.04341 0.0
C1686 C 0.19604 0.25921 0.17331 0.0
C1687 C 0.19704 0.25732 0.2364 0.0
C1688 C 0.194 0.2693 0.27587 0.0
C1689 C 0.19143 0.28354 0.25094 0.0
C1690 C 0.19036 0.2854 0.18772 0.0
H1691 H 0.21869 0.26835 -0.0 0.0
H1692 H 0.21739 0.27368 0.07949 0.0
H1693 H 0.21425 0.25462 0.05677 0.0
H1694 H 0.19716 0.24952 0.14412 0.0
H1695 H 0.19913 0.24624 0.25425 0.0
H1696 H 0.83968 0.24764 0.27004 0.0
H1697 H 0.8418 0.245 0.15913 0.0
H1698 H 0.86823 0.20516 0.18408 0.0
H1699 H 0.86521 0.20721 0.2941 0.0
H1700 H 0.86721 0.24894 0.11214 0.0
H1701 H 0.84826 0.19392 0.03086 0.0
H1702 H 0.84318 0.201 0.10519 0.0
H1703 H 0.86075 0.19156 0.09395 0.0
C1704 C 0.8453 0.23795 0.25144 0.0
C1705 C 0.85233 0.22767 0.2902 0.0
C1706 C 0.84657 0.23646 0.18823 0.0
C1707 C 0.85523 0.22491 0.16307 0.0
C1708 C 0.86119 0.21396 0.20191 0.0
H1709 H 0.91186 0.24384 0.85199 0.0
H1710 H 0.90268 0.23709 0.95396 0.0
C1711 C 0.85953 0.21519 0.26504 0.0
C1712 C 0.86052 0.22603 0.09911 0.0
H1713 H 0.86753 0.20591 0.96989 0.0
C1714 C 0.867 0.23958 0.08078 0.0
C1715 C 0.86032 0.21385 0.05801 0.0
C1716 C 0.85259 0.19934 0.07293 0.0
C1717 C 0.87346 0.24126 0.02309 0.0
C1718 C 0.87414 0.2288 0.98353 0.0
C1719 C 0.86737 0.21532 0.00105 0.0
C1720 C 0.88092 0.22998 0.92216 0.0
C1721 C 0.87918 0.25649 0.0049 0.0
C1722 C 0.87215 0.22714 0.8705 0.0
C1723 C 0.87752 0.23058 0.81251 0.0
C1724 C 0.89174 0.23696 0.8052 0.0
C1725 C 0.90087 0.23893 0.85657 0.0
C1726 C 0.89559 0.2352 0.91466 0.0
H1727 H 0.87398 0.26548 0.03264 0.0
H1728 H 0.8914 0.25697 0.01255 0.0
H1729 H 0.87693 0.25883 0.95593 0.0
H1730 H 0.86082 0.22309 0.87523 0.0
H1731 H 0.8701 0.22911 0.77408 0.0
H1732 H 0.69084 0.73929 0.75999 0.0
H1733 H 0.69037 0.74551 0.65178 0.0
H1734 H 0.69142 0.79242 0.69586 0.0
H1735 H 0.69174 0.78629 0.80471 0.0
H1736 H 0.66714 0.78476 0.62885 0.0
H1737 H 0.71742 0.7616 0.51922 0.0
H1738 H 0.70916 0.74803 0.56901 0.0
H1739 H 0.71643 0.76514 0.60043 0.0
C1740 C 0.69144 0.75093 0.74673 0.0
C1741 C 0.69109 0.7623 0.79082 0.0
C1742 C 0.6913 0.75447 0.68475 0.0
C1743 C 0.69094 0.76943 0.66583 0.0
C1744 C 0.69177 0.78081 0.70965 0.0
H1745 H 0.67488 0.77097 0.27347 0.0
H1746 H 0.68447 0.78039 0.37008 0.0
C1747 C 0.69196 0.77727 0.77179 0.0
C1748 C 0.68702 0.77289 0.60186 0.0
H1749 H 0.69479 0.76189 0.45649 0.0
C1750 C 0.6734 0.78016 0.59085 0.0
C1751 C 0.69528 0.76711 0.5523 0.0
C1752 C 0.71047 0.76018 0.56086 0.0
C1753 C 0.66715 0.78052 0.53221 0.0
C1754 C 0.67464 0.77325 0.48392 0.0
C1755 C 0.68892 0.76726 0.49385 0.0
C1756 C 0.66725 0.7701 0.42502 0.0
C1757 C 0.65232 0.78815 0.52307 0.0
C1758 C 0.65421 0.7614 0.42382 0.0
C1759 C 0.64855 0.75617 0.36843 0.0
C1760 C 0.65583 0.75956 0.31345 0.0
C1761 C 0.66862 0.76865 0.31466 0.0
C1762 C 0.67425 0.77392 0.36998 0.0
H1763 H 0.65079 0.79739 0.55635 0.0
H1764 H 0.65124 0.7927 0.47606 0.0
H1765 H 0.64322 0.77997 0.53069 0.0
H1766 H 0.64888 0.75796 0.46593 0.0
H1767 H 0.63886 0.74894 0.36878 0.0
H1768 H 0.63157 0.23726 0.65703 0.0
H1769 H 0.63906 0.22976 0.55369 0.0
H1770 H 0.68417 0.22307 0.61719 0.0
H1771 H 0.67659 0.22969 0.71988 0.0
H1772 H 0.65678 0.24486 0.48822 0.0
H1773 H 0.68168 0.18883 0.5048 0.0
H1774 H 0.6706 0.19666 0.56573 0.0
H1775 H 0.69024 0.20086 0.55984 0.0
C1776 C 0.64295 0.23367 0.64898 0.0
C1777 C 0.65344 0.23384 0.69644 0.0
C1778 C 0.64723 0.22941 0.59014 0.0
C1779 C 0.66215 0.2256 0.57773 0.0
C1780 C 0.67251 0.22539 0.62574 0.0
H1781 H 0.7027 0.25041 0.23764 0.0
H1782 H 0.69746 0.24694 0.3465 0.0
C1783 C 0.66816 0.22931 0.68462 0.0
C1784 C 0.66743 0.22421 0.51389 0.0
H1785 H 0.69061 0.20428 0.42076 0.0
C1786 C 0.66396 0.23582 0.47332 0.0
C1787 C 0.67672 0.21239 0.49402 0.0
C1788 C 0.67987 0.19892 0.53335 0.0
C1789 C 0.66985 0.23621 0.41423 0.0
C1790 C 0.6801 0.22504 0.39609 0.0
C1791 C 0.68314 0.21309 0.43559 0.0
C1792 C 0.68703 0.22533 0.33487 0.0
C1793 C 0.66482 0.24851 0.37169 0.0
C1794 C 0.6843 0.21366 0.29375 0.0
C1795 C 0.68772 0.21542 0.23199 0.0
C1796 C 0.69369 0.22897 0.21068 0.0
C1797 C 0.69792 0.23995 0.25295 0.0
C1798 C 0.69481 0.23803 0.3149 0.0
H1799 H 0.65396 0.25333 0.38622 0.0
H1800 H 0.67319 0.25764 0.37211 0.0
H1801 H 0.66365 0.24438 0.32411 0.0
H1802 H 0.67847 0.20369 0.30844 0.0
H1803 H 0.68436 0.20674 0.20041 0.0
H1804 H 0.90653 0.75394 0.13003 0.0
H1805 H 0.89605 0.76153 0.03165 0.0
H1806 H 0.85921 0.78268 0.12418 0.0
H1807 H 0.86913 0.77458 0.22172 0.0
H1808 H 0.84981 0.76359 0.03938 0.0
H1809 H 0.89269 0.80031 0.9381 0.0
H1810 H 0.9007 0.7831 0.96403 0.0
H1811 H 0.89244 0.79571 0.01847 0.0
C1812 C 0.8964 0.76054 0.12939 0.0
C1813 C 0.88891 0.76395 0.18396 0.0
C1814 C 0.89048 0.76498 0.07323 0.0
C1815 C 0.877 0.77294 0.07075 0.0
C1816 C 0.86975 0.77676 0.12519 0.0
H1817 H 0.85071 0.79107 0.69472 0.0
H1818 H 0.85173 0.79596 0.80447 0.0
C1819 C 0.8756 0.77226 0.18123 0.0
C1820 C 0.86958 0.77553 0.01141 0.0
H1821 H 0.87625 0.78774 0.86669 0.0
C1822 C 0.85543 0.76918 0.00191 0.0
C1823 C 0.87675 0.78308 0.96298 0.0
C1824 C 0.89141 0.79108 0.97161 0.0
C1825 C 0.84881 0.76916 0.94393 0.0
C1826 C 0.85668 0.77542 0.89424 0.0
C1827 C 0.87027 0.78281 0.90476 0.0
C1828 C 0.85225 0.77266 0.83022 0.0
C1829 C 0.83369 0.76203 0.93614 0.0
C1830 C 0.85159 0.75793 0.80862 0.0
C1831 C 0.85098 0.75509 0.74608 0.0
C1832 C 0.85123 0.76694 0.70407 0.0
C1833 C 0.8506 0.78169 0.72594 0.0
C1834 C 0.8512 0.78452 0.78863 0.0
H1835 H 0.82696 0.76306 0.97858 0.0
H1836 H 0.8274 0.76714 0.89774 0.0
H1837 H 0.83514 0.74996 0.92659 0.0
H1838 H 0.85267 0.7486 0.83978 0.0
H1839 H 0.8514 0.74361 0.73069 0.0
H1840 H 0.54083 0.61403 0.40635 0.0
H1841 H 0.53343 0.60545 0.30507 0.0
H1842 H 0.48737 0.61479 0.34717 0.0
H1843 H 0.49474 0.6238 0.4486 0.0
H1844 H 0.49395 0.58478 0.29771 0.0
H1845 H 0.51773 0.63102 0.15992 0.0
H1846 H 0.5304 0.62351 0.21557 0.0
H1847 H 0.51372 0.63283 0.24049 0.0
C1848 C 0.52915 0.61453 0.39381 0.0
C1849 C 0.51833 0.61936 0.43578 0.0
C1850 C 0.52495 0.60956 0.33604 0.0
C1851 C 0.50988 0.60947 0.319 0.0
C1852 C 0.49905 0.61468 0.35996 0.0
H1853 H 0.4768 0.5837 0.96153 0.0
H1854 H 0.47636 0.58834 0.07161 0.0
C1855 C 0.50327 0.61974 0.41786 0.0
C1856 C 0.50561 0.60354 0.2587 0.0
H1857 H 0.51208 0.60845 0.10671 0.0
C1858 C 0.49767 0.59004 0.25575 0.0
C1859 C 0.51047 0.6105 0.20438 0.0
C1860 C 0.51843 0.62534 0.20498 0.0
C1861 C 0.49512 0.58294 0.19948 0.0
C1862 C 0.50066 0.58957 0.14569 0.0
C1863 C 0.50803 0.60335 0.14851 0.0
C1864 C 0.49948 0.58238 0.08545 0.0
C1865 C 0.48707 0.56818 0.19764 0.0
C1866 C 0.51243 0.57677 0.05793 0.0
C1867 C 0.51275 0.57415 0.99518 0.0
C1868 C 0.50015 0.57727 0.95912 0.0
C1869 C 0.48671 0.58125 0.98803 0.0
C1870 C 0.48641 0.58391 0.05093 0.0
H1871 H 0.48384 0.56425 0.24393 0.0
H1872 H 0.47687 0.56924 0.16923 0.0
H1873 H 0.49431 0.55964 0.17589 0.0
H1874 H 0.52262 0.57557 0.08414 0.0
H1875 H 0.52323 0.57092 0.9743 0.0
H1876 H 0.05129 0.37357 0.94721 0.0
H1877 H 0.06044 0.38474 0.85172 0.0
H1878 H 0.01585 0.39967 0.80968 0.0
H1879 H 0.00677 0.38894 0.905 0.0
H1880 H 0.05098 0.37883 0.73154 0.0
H1881 H 0.04093 0.43786 0.79169 0.0
H1882 H 0.04179 0.42319 0.8483 0.0
H1883 H 0.02487 0.42641 0.80595 0.0
C1884 C 0.04351 0.37934 0.9177 0.0
C1885 C 0.02838 0.3806 0.93384 0.0
C1886 C 0.04873 0.38569 0.86335 0.0
C1887 C 0.03888 0.39342 0.82486 0.0
C1888 C 0.0237 0.39414 0.8398 0.0
H1889 H 0.01846 0.42091 0.48121 0.0
H1890 H 0.0226 0.41879 0.59093 0.0
C1891 C 0.01849 0.38779 0.89378 0.0
C1892 C 0.04407 0.4001 0.767 0.0
H1893 H 0.04145 0.43211 0.68329 0.0
C1894 C 0.04935 0.39055 0.72121 0.0
C1895 C 0.042 0.41543 0.7542 0.0
C1896 C 0.03723 0.42634 0.8029 0.0
C1897 C 0.05127 0.39565 0.66118 0.0
C1898 C 0.04804 0.41075 0.64728 0.0
C1899 C 0.04388 0.42055 0.69418 0.0
C1900 C 0.04648 0.41574 0.58335 0.0
C1901 C 0.05555 0.38457 0.61222 0.0
C1902 C 0.05868 0.41565 0.54328 0.0
C1903 C 0.05635 0.41681 0.48033 0.0
C1904 C 0.04177 0.41806 0.45694 0.0
C1905 C 0.02979 0.41975 0.49777 0.0
C1906 C 0.03215 0.41859 0.56053 0.0
H1907 H 0.05587 0.37293 0.62967 0.0
H1908 H 0.04753 0.3851 0.57358 0.0
H1909 H 0.06678 0.38739 0.59425 0.0
H1910 H 0.06986 0.41371 0.56035 0.0
H1911 H 0.06583 0.41563 0.45005 0.0
H1912 H 0.49366 0.37538 0.54278 0.0
H1913 H 0.48388 0.38645 0.63734 0.0
H1914 H 0.52795 0.40242 0.68205 0.0
H1915 H 0.53766 0.39179 0.58757 0.0
H1916 H 0.49274 0.38075 0.75734 0.0
H1917 H 0.50216 0.43999 0.69964 0.0
H1918 H 0.50185 0.42542 0.64256 0.0
H1919 H 0.51853 0.42895 0.68614 0.0
C1920 C 0.50119 0.38137 0.57266 0.0
C1921 C 0.51635 0.38295 0.55754 0.0
C1922 C 0.49561 0.38766 0.62645 0.0
C1923 C 0.50512 0.39566 0.66542 0.0
C1924 C 0.52035 0.3967 0.65149 0.0
H1925 H 0.52611 0.42107 0.00702 0.0
H1926 H 0.5213 0.41972 0.89758 0.0
C1927 C 0.52592 0.39041 0.59804 0.0
C1928 C 0.49958 0.40217 0.723 0.0
H1929 H 0.50191 0.43394 0.80818 0.0
C1930 C 0.49427 0.39246 0.76819 0.0
C1931 C 0.50146 0.41749 0.73646 0.0
C1932 C 0.50616 0.42859 0.68833 0.0
C1933 C 0.49226 0.39736 0.82841 0.0
C1934 C 0.49546 0.41242 0.8431 0.0
C1935 C 0.49951 0.42241 0.79669 0.0
C1936 C 0.49741 0.41707 0.90721 0.0
C1937 C 0.48801 0.38612 0.87681 0.0
C1938 C 0.48545 0.41693 0.94843 0.0
C1939 C 0.48817 0.41767 0.01123 0.0
C1940 C 0.5029 0.4185 0.03322 0.0
C1941 C 0.51467 0.42021 0.99143 0.0
C1942 C 0.51193 0.4195 0.92887 0.0
H1943 H 0.48739 0.37458 0.85849 0.0
H1944 H 0.49623 0.38631 0.91478 0.0
H1945 H 0.47693 0.38905 0.89599 0.0
H1946 H 0.47414 0.41526 0.93227 0.0
H1947 H 0.47886 0.41646 0.04237 0.0
H1948 H 0.01422 0.57684 0.49968 0.0
H1949 H 0.01966 0.57892 0.39103 0.0
H1950 H 0.06683 0.57985 0.42999 0.0
H1951 H 0.06149 0.57793 0.53923 0.0
H1952 H 0.05742 0.60446 0.36807 0.0
H1953 H 0.03628 0.55397 0.25264 0.0
H1954 H 0.02265 0.56127 0.30462 0.0
H1955 H 0.04018 0.55444 0.33363 0.0
C1956 C 0.02578 0.57701 0.48511 0.0
C1957 C 0.03741 0.57744 0.52806 0.0
C1958 C 0.02887 0.57809 0.42286 0.0
C1959 C 0.04365 0.57949 0.40247 0.0
C1960 C 0.05535 0.57873 0.44489 0.0
H1961 H 0.0464 0.59724 0.01135 0.0
H1962 H 0.05508 0.58784 0.10928 0.0
C1963 C 0.05227 0.5776 0.50728 0.0
C1964 C 0.04651 0.58422 0.33886 0.0
H1965 H 0.03605 0.57684 0.1924 0.0
C1966 C 0.0531 0.59825 0.32936 0.0
C1967 C 0.04107 0.57605 0.2884 0.0
C1968 C 0.0348 0.56052 0.2953 0.0
C1969 C 0.05331 0.60484 0.27129 0.0
C1970 C 0.04654 0.59727 0.22195 0.0
C1971 C 0.04104 0.58274 0.23053 0.0
C1972 C 0.04371 0.60465 0.16266 0.0
C1973 C 0.06035 0.62002 0.26377 0.0
C1974 C 0.03468 0.61745 0.1601 0.0
C1975 C 0.02987 0.62303 0.10388 0.0
C1976 C 0.03402 0.61592 0.04936 0.0
C1977 C 0.04347 0.6034 0.05207 0.0
C1978 C 0.04831 0.59786 0.10821 0.0
H1979 H 0.06925 0.62187 0.29829 0.0
H1980 H 0.0652 0.62142 0.21744 0.0
H1981 H 0.05171 0.62873 0.27059 0.0
H1982 H 0.03065 0.62263 0.20165 0.0
H1983 H 0.02237 0.63251 0.10313 0.0
loop_
_geom_bond_atom_site_label_1
_geom_bond_atom_site_label_2
_geom_bond_distance
_geom_bond_site_symmetry_2
_ccdc_geom_bond_type
Co0 O3 1.970 . S
Co0 N17 1.989 . S
Co0 O25 1.967 . S
Co0 O32 1.920 . S
Co1 O4 1.966 . S
Co1 N10 2.022 . S
Co1 N18 1.993 . S
Co1 O26 1.941 . S
C2 O3 1.258 . S
C2 O4 1.263 . S
O3 Co0 1.970 . S
O3 C2 1.258 . S
O4 Co1 1.966 . S
O4 C2 1.263 . S
C5 O6 1.235 . S
C5 O32 1.289 . S
O6 C5 1.235 . S
C7 C9 1.400 1_554 S
C7 N10 1.351 . S
C7 C12 1.501 . S
C8 C9 1.387 . S
C8 N11 1.341 1_556 S
C9 C7 1.400 1_556 S
C9 C8 1.387 . S
N10 Co1 2.022 . S
N10 C7 1.351 . S
N10 N11 1.365 . S
N11 C8 1.341 1_554 S
N11 N10 1.365 . S
N11 H31 0.862 . S
C12 C7 1.501 . S
C12 H13 0.961 . S
C12 H14 0.961 1_455 S
C12 H15 0.960 . S
H13 C12 0.961 . S
H14 C12 0.961 1_655 S
H15 C12 0.960 . S
C16 N17 1.342 . S
C16 C20 1.401 . S
C16 C21 1.499 . S
N17 Co0 1.989 . S
N17 C16 1.342 . S
N17 N18 1.388 . S
N18 Co1 1.993 . S
N18 N17 1.388 . S
N18 C19 1.346 . S
C19 N18 1.346 . S
C19 C20 1.396 . S
C19 C29 1.510 . S
C20 C16 1.401 . S
C20 C19 1.396 . S
C21 C16 1.499 . S
C21 H22 0.959 . S
C21 H23 0.960 . S
C21 H24 0.961 . S
H22 C21 0.959 . S
H23 C21 0.960 . S
H24 C21 0.961 . S
O25 Co0 1.967 . S
O25 C33 1.258 . S
O26 Co1 1.941 . S
O26 C33 1.266 . S
H27 C29 0.959 . S
H28 C29 0.961 . S
C29 C19 1.510 . S
C29 H27 0.959 . S
C29 H28 0.961 . S
C29 H30 0.960 . S
H30 C29 0.960 . S
H31 N11 0.862 . S
O32 Co0 1.920 . S
O32 C5 1.289 . S
C33 O25 1.258 . S
C33 O26 1.266 . S
Co34 O37 1.970 . S
Co34 N51 1.989 . S
Co34 O59 1.967 . S
Co34 O66 1.920 . S
Co35 O38 1.966 . S
Co35 N44 2.022 . S
Co35 N52 1.993 . S
Co35 O60 1.941 . S
C36 O37 1.258 . S
C36 O38 1.263 . S
O37 Co34 1.970 . S
O37 C36 1.258 . S
O38 Co35 1.966 . S
O38 C36 1.263 . S
C39 O40 1.235 . S
C39 O66 1.289 . S
O40 C39 1.235 . S
C41 C43 1.400 . S
C41 N44 1.351 . S
C41 C46 1.501 . S
C42 C43 1.387 . S
C42 N45 1.341 . S
C43 C41 1.400 . S
C43 C42 1.387 . S
N44 Co35 2.022 . S
N44 C41 1.351 . S
N44 N45 1.365 . S
N45 C42 1.341 . S
N45 N44 1.365 . S
N45 H65 0.862 . S
C46 C41 1.501 . S
C46 H47 0.961 . S
C46 H48 0.961 . S
C46 H49 0.960 . S
H47 C46 0.961 . S
H48 C46 0.961 . S
H49 C46 0.960 . S
C50 N51 1.342 . S
C50 C54 1.401 . S
C50 C55 1.499 . S
N51 Co34 1.989 . S
N51 C50 1.342 . S
N51 N52 1.388 . S
N52 Co35 1.993 . S
N52 N51 1.388 . S
N52 C53 1.346 . S
C53 N52 1.346 . S
C53 C54 1.396 . S
C53 C63 1.510 . S
C54 C50 1.401 . S
C54 C53 1.396 . S
C55 C50 1.499 . S
C55 H56 0.959 . S
C55 H57 0.960 . S
C55 H58 0.961 . S
H56 C55 0.959 . S
H57 C55 0.960 . S
H58 C55 0.961 . S
O59 Co34 1.967 . S
O59 C67 1.258 . S
O60 Co35 1.941 . S
O60 C67 1.266 . S
H61 C63 0.959 . S
H62 C63 0.961 . S
C63 C53 1.510 . S
C63 H61 0.959 . S
C63 H62 0.961 . S
C63 H64 0.960 . S
H64 C63 0.960 . S
H65 N45 0.862 . S
O66 Co34 1.920 . S
O66 C39 1.289 . S
C67 O59 1.258 . S
C67 O60 1.266 . S
Co68 O71 1.970 . S
Co68 N85 1.989 . S
Co68 O93 1.967 . S
Co68 O100 1.920 . S
Co69 O72 1.966 . S
Co69 N78 2.022 . S
Co69 N86 1.993 . S
Co69 O94 1.941 . S
C70 O71 1.258 . S
C70 O72 1.263 . S
O71 Co68 1.970 . S
O71 C70 1.258 . S
O72 Co69 1.966 . S
O72 C70 1.263 . S
C73 O74 1.235 . S
C73 O100 1.289 . S
O74 C73 1.235 . S
C75 C77 1.400 . S
C75 N78 1.351 . S
C75 C80 1.501 . S
C76 C77 1.387 . S
C76 N79 1.341 . S
C77 C75 1.400 . S
C77 C76 1.387 . S
N78 Co69 2.022 . S
N78 C75 1.351 . S
N78 N79 1.365 . S
N79 C76 1.341 . S
N79 N78 1.365 . S
N79 H99 0.862 . S
C80 C75 1.501 . S
C80 H81 0.961 . S
C80 H82 0.961 . S
C80 H83 0.960 . S
H81 C80 0.961 . S
H82 C80 0.961 . S
H83 C80 0.960 . S
C84 N85 1.342 . S
C84 C88 1.401 . S
C84 C89 1.499 . S
N85 Co68 1.989 . S
N85 C84 1.342 . S
N85 N86 1.388 . S
N86 Co69 1.993 . S
N86 N85 1.388 . S
N86 C87 1.346 . S
C87 N86 1.346 . S
C87 C88 1.396 . S
C87 C97 1.510 . S
C88 C84 1.401 . S
C88 C87 1.396 . S
C89 C84 1.499 . S
C89 H90 0.959 . S
C89 H91 0.960 . S
C89 H92 0.961 . S
H90 C89 0.959 . S
H91 C89 0.960 . S
H92 C89 0.961 . S
O93 Co68 1.967 . S
O93 C101 1.258 . S
O94 Co69 1.941 . S
O94 C101 1.266 . S
H95 C97 0.959 . S
H96 C97 0.961 . S
C97 C87 1.510 . S
C97 H95 0.959 . S
C97 H96 0.961 . S
C97 H98 0.960 . S
H98 C97 0.960 . S
H99 N79 0.862 . S
O100 Co68 1.920 . S
O100 C73 1.289 . S
C101 O93 1.258 . S
C101 O94 1.266 . S
Co102 O105 1.970 . S
Co102 N119 1.989 1_554 S
Co102 O127 1.967 . S
Co102 O134 1.920 . S
Co103 O106 1.966 . S
Co103 N112 2.022 . S
Co103 N120 1.993 . S
Co103 O128 1.941 . S
C104 O105 1.258 . S
C104 O106 1.263 1_554 S
O105 Co102 1.970 . S
O105 C104 1.258 . S
O106 Co103 1.966 . S
O106 C104 1.263 1_556 S
C107 O108 1.235 . S
C107 O134 1.289 . S
O108 C107 1.235 . S
C109 C111 1.400 . S
C109 N112 1.351 . S
C109 C114 1.501 . S
C110 C111 1.387 . S
C110 N113 1.341 . S
C111 C109 1.400 . S
C111 C110 1.387 . S
N112 Co103 2.022 . S
N112 C109 1.351 . S
N112 N113 1.365 . S
N113 C110 1.341 . S
N113 N112 1.365 . S
N113 H133 0.862 . S
C114 C109 1.501 . S
C114 H115 0.961 . S
C114 H116 0.961 . S
C114 H117 0.960 . S
H115 C114 0.961 . S
H116 C114 0.961 . S
H117 C114 0.960 . S
C118 N119 1.342 1_554 S
C118 C122 1.401 1_554 S
C118 C123 1.499 . S
N119 Co102 1.989 1_556 S
N119 C118 1.342 1_556 S
N119 N120 1.388 . S
N120 Co103 1.993 . S
N120 N119 1.388 . S
N120 C121 1.346 . S
C121 N120 1.346 . S
C121 C122 1.396 . S
C121 C131 1.510 . S
C122 C118 1.401 1_556 S
C122 C121 1.396 . S
C123 C118 1.499 . S
C123 H124 0.959 . S
C123 H125 0.960 . S
C123 H126 0.961 . S
H124 C123 0.959 . S
H125 C123 0.960 . S
H126 C123 0.961 . S
O127 Co102 1.967 . S
O127 C135 1.258 . S
O128 Co103 1.941 . S
O128 C135 1.266 1_556 S
H129 C131 0.959 . S
H130 C131 0.961 . S
C131 C121 1.510 . S
C131 H129 0.959 . S
C131 H130 0.961 . S
C131 H132 0.960 . S
H132 C131 0.960 . S
H133 N113 0.862 . S
O134 Co102 1.920 . S
O134 C107 1.289 . S
C135 O127 1.258 . S
C135 O128 1.266 1_554 S
Co136 O139 1.970 . S
Co136 N153 1.989 . S
Co136 O161 1.967 . S
Co136 O168 1.920 . S
Co137 O140 1.966 . S
Co137 N146 2.022 . S
Co137 N154 1.993 . S
Co137 O162 1.941 . S
C138 O139 1.258 . S
C138 O140 1.263 . S
O139 Co136 1.970 . S
O139 C138 1.258 . S
O140 Co137 1.966 . S
O140 C138 1.263 . S
C141 O142 1.235 . S
C141 O168 1.289 . S
O142 C141 1.235 . S
C143 C145 1.400 1_556 S
C143 N146 1.351 . S
C143 C148 1.501 . S
C144 C145 1.387 . S
C144 N147 1.341 1_554 S
C145 C143 1.400 1_554 S
C145 C144 1.387 . S
N146 Co137 2.022 . S
N146 C143 1.351 . S
N146 N147 1.365 . S
N147 C144 1.341 1_556 S
N147 N146 1.365 . S
N147 H167 0.862 . S
C148 C143 1.501 . S
C148 H149 0.961 . S
C148 H150 0.961 1_455 S
C148 H151 0.960 . S
H149 C148 0.961 . S
H150 C148 0.961 1_655 S
H151 C148 0.960 . S
C152 N153 1.342 . S
C152 C156 1.401 . S
C152 C157 1.499 . S
N153 Co136 1.989 . S
N153 C152 1.342 . S
N153 N154 1.388 . S
N154 Co137 1.993 . S
N154 N153 1.388 . S
N154 C155 1.346 . S
C155 N154 1.346 . S
C155 C156 1.396 . S
C155 C165 1.510 . S
C156 C152 1.401 . S
C156 C155 1.396 . S
C157 C152 1.499 . S
C157 H158 0.959 . S
C157 H159 0.960 . S
C157 H160 0.961 . S
H158 C157 0.959 . S
H159 C157 0.960 . S
H160 C157 0.961 . S
O161 Co136 1.967 . S
O161 C169 1.258 . S
O162 Co137 1.941 . S
O162 C169 1.266 . S
H163 C165 0.959 . S
H164 C165 0.961 . S
C165 C155 1.510 . S
C165 H163 0.959 . S
C165 H164 0.961 . S
C165 H166 0.960 . S
H166 C165 0.960 . S
H167 N147 0.862 . S
O168 Co136 1.920 . S
O168 C141 1.289 . S
C169 O161 1.258 . S
C169 O162 1.266 . S
Co170 O173 1.970 . S
Co170 N187 1.989 1_556 S
Co170 O195 1.967 . S
Co170 O202 1.920 . S
Co171 O174 1.966 . S
Co171 N180 2.022 . S
Co171 N188 1.993 . S
Co171 O196 1.941 . S
C172 O173 1.258 . S
C172 O174 1.263 1_556 S
O173 Co170 1.970 . S
O173 C172 1.258 . S
O174 Co171 1.966 . S
O174 C172 1.263 1_554 S
C175 O176 1.235 . S
C175 O202 1.289 . S
O176 C175 1.235 . S
C177 C179 1.400 . S
C177 N180 1.351 . S
C177 C182 1.501 . S
C178 C179 1.387 . S
C178 N181 1.341 . S
C179 C177 1.400 . S
C179 C178 1.387 . S
N180 Co171 2.022 . S
N180 C177 1.351 . S
N180 N181 1.365 . S
N181 C178 1.341 . S
N181 N180 1.365 . S
N181 H201 0.862 . S
C182 C177 1.501 . S
C182 H183 0.961 . S
C182 H184 0.961 . S
C182 H185 0.960 . S
H183 C182 0.961 . S
H184 C182 0.961 . S
H185 C182 0.960 . S
C186 N187 1.342 1_556 S
C186 C190 1.401 1_556 S
C186 C191 1.499 . S
N187 Co170 1.989 1_554 S
N187 C186 1.342 1_554 S
N187 N188 1.388 . S
N188 Co171 1.993 . S
N188 N187 1.388 . S
N188 C189 1.346 . S
C189 N188 1.346 . S
C189 C190 1.396 . S
C189 C199 1.510 . S
C190 C186 1.401 1_554 S
C190 C189 1.396 . S
C191 C186 1.499 . S
C191 H192 0.959 . S
C191 H193 0.960 . S
C191 H194 0.961 . S
H192 C191 0.959 . S
H193 C191 0.960 . S
H194 C191 0.961 . S
O195 Co170 1.967 . S
O195 C203 1.258 . S
O196 Co171 1.941 . S
O196 C203 1.266 1_554 S
H197 C199 0.959 . S
H198 C199 0.961 . S
C199 C189 1.510 . S
C199 H197 0.959 . S
C199 H198 0.961 . S
C199 H200 0.960 . S
H200 C199 0.960 . S
H201 N181 0.862 . S
O202 Co170 1.920 . S
O202 C175 1.289 . S
C203 O195 1.258 . S
C203 O196 1.266 1_556 S
Co204 O207 1.970 . S
Co204 N221 1.989 . S
Co204 O229 1.967 . S
Co204 O236 1.920 . S
Co205 O208 1.966 . S
Co205 N214 2.022 . S
Co205 N222 1.993 . S
Co205 O230 1.941 . S
C206 O207 1.258 . S
C206 O208 1.263 . S
O207 Co204 1.970 . S
O207 C206 1.258 . S
O208 Co205 1.966 . S
O208 C206 1.263 . S
C209 O210 1.235 . S
C209 O236 1.289 . S
O210 C209 1.235 . S
C211 C213 1.400 . S
C211 N214 1.351 . S
C211 C216 1.501 . S
C212 C213 1.387 . S
C212 N215 1.341 . S
C213 C211 1.400 . S
C213 C212 1.387 . S
N214 Co205 2.022 . S
N214 C211 1.351 . S
N214 N215 1.365 . S
N215 C212 1.341 . S
N215 N214 1.365 . S
N215 H235 0.862 . S
C216 C211 1.501 . S
C216 H217 0.961 . S
C216 H218 0.961 . S
C216 H219 0.960 . S
H217 C216 0.961 . S
H218 C216 0.961 . S
H219 C216 0.960 . S
C220 N221 1.342 . S
C220 C224 1.401 . S
C220 C225 1.499 . S
N221 Co204 1.989 . S
N221 C220 1.342 . S
N221 N222 1.388 . S
N222 Co205 1.993 . S
N222 N221 1.388 . S
N222 C223 1.346 . S
C223 N222 1.346 . S
C223 C224 1.396 . S
C223 C233 1.510 . S
C224 C220 1.401 . S
C224 C223 1.396 . S
C225 C220 1.499 . S
C225 H226 0.959 . S
C225 H227 0.960 . S
C225 H228 0.961 . S
H226 C225 0.959 . S
H227 C225 0.960 . S
H228 C225 0.961 . S
O229 Co204 1.967 . S
O229 C237 1.258 . S
O230 Co205 1.941 . S
O230 C237 1.266 . S
H231 C233 0.959 . S
H232 C233 0.961 . S
C233 C223 1.510 . S
C233 H231 0.959 . S
C233 H232 0.961 . S
C233 H234 0.960 . S
H234 C233 0.960 . S
H235 N215 0.862 . S
O236 Co204 1.920 . S
O236 C209 1.289 . S
C237 O229 1.258 . S
C237 O230 1.266 . S
Co238 O241 1.970 . S
Co238 N255 1.989 . S
Co238 O263 1.967 . S
Co238 O270 1.920 . S
Co239 O242 1.966 . S
Co239 N248 2.022 . S
Co239 N256 1.993 . S
Co239 O264 1.941 . S
C240 O241 1.258 . S
C240 O242 1.263 . S
O241 Co238 1.970 . S
O241 C240 1.258 . S
O242 Co239 1.966 . S
O242 C240 1.263 . S
C243 O244 1.235 . S
C243 O270 1.289 . S
O244 C243 1.235 . S
C245 C247 1.400 . S
C245 N248 1.351 . S
C245 C250 1.501 . S
C246 C247 1.387 . S
C246 N249 1.341 . S
C247 C245 1.400 . S
C247 C246 1.387 . S
N248 Co239 2.022 . S
N248 C245 1.351 . S
N248 N249 1.365 . S
N249 C246 1.341 . S
N249 N248 1.365 . S
N249 H269 0.862 . S
C250 C245 1.501 . S
C250 H251 0.961 . S
C250 H252 0.961 . S
C250 H253 0.960 . S
H251 C250 0.961 . S
H252 C250 0.961 . S
H253 C250 0.960 . S
C254 N255 1.342 . S
C254 C258 1.401 . S
C254 C259 1.499 . S
N255 Co238 1.989 . S
N255 C254 1.342 . S
N255 N256 1.388 . S
N256 Co239 1.993 . S
N256 N255 1.388 . S
N256 C257 1.346 . S
C257 N256 1.346 . S
C257 C258 1.396 . S
C257 C267 1.510 . S
C258 C254 1.401 . S
C258 C257 1.396 . S
C259 C254 1.499 . S
C259 H260 0.959 . S
C259 H261 0.960 . S
C259 H262 0.961 . S
H260 C259 0.959 . S
H261 C259 0.960 . S
H262 C259 0.961 . S
O263 Co238 1.967 . S
O263 C271 1.258 . S
O264 Co239 1.941 . S
O264 C271 1.266 . S
H265 C267 0.959 . S
H266 C267 0.961 . S
C267 C257 1.510 . S
C267 H265 0.959 . S
C267 H266 0.961 . S
C267 H268 0.960 . S
H268 C267 0.960 . S
H269 N249 0.862 . S
O270 Co238 1.920 . S
O270 C243 1.289 . S
C271 O263 1.258 . S
C271 O264 1.266 . S
Co272 O275 1.970 . S
Co272 N289 1.989 . S
Co272 O297 1.967 . S
Co272 O304 1.920 . S
Co273 O276 1.966 . S
Co273 N282 2.022 . S
Co273 N290 1.993 . S
Co273 O298 1.941 . S
C274 O275 1.258 . S
C274 O276 1.263 . S
O275 Co272 1.970 . S
O275 C274 1.258 . S
O276 Co273 1.966 . S
O276 C274 1.263 . S
C277 O278 1.235 . S
C277 O304 1.289 . S
O278 C277 1.235 . S
C279 C281 1.400 . S
C279 N282 1.351 . S
C279 C284 1.501 . S
C280 C281 1.387 . S
C280 N283 1.341 . S
C281 C279 1.400 . S
C281 C280 1.387 . S
N282 Co273 2.022 . S
N282 C279 1.351 . S
N282 N283 1.365 . S
N283 C280 1.341 . S
N283 N282 1.365 . S
N283 H303 0.862 . S
C284 C279 1.501 . S
C284 H285 0.961 . S
C284 H286 0.961 . S
C284 H287 0.960 . S
H285 C284 0.961 . S
H286 C284 0.961 . S
H287 C284 0.960 . S
C288 N289 1.342 . S
C288 C292 1.401 . S
C288 C293 1.499 . S
N289 Co272 1.989 . S
N289 C288 1.342 . S
N289 N290 1.388 . S
N290 Co273 1.993 . S
N290 N289 1.388 . S
N290 C291 1.346 . S
C291 N290 1.346 . S
C291 C292 1.396 . S
C291 C301 1.510 . S
C292 C288 1.401 . S
C292 C291 1.396 . S
C293 C288 1.499 . S
C293 H294 0.959 . S
C293 H295 0.960 . S
C293 H296 0.961 . S
H294 C293 0.959 . S
H295 C293 0.960 . S
H296 C293 0.961 . S
O297 Co272 1.967 . S
O297 C305 1.258 . S
O298 Co273 1.941 . S
O298 C305 1.266 . S
H299 C301 0.959 . S
H300 C301 0.961 . S
C301 C291 1.510 . S
C301 H299 0.959 . S
C301 H300 0.961 . S
C301 H302 0.960 . S
H302 C301 0.960 . S
H303 N283 0.862 . S
O304 Co272 1.920 . S
O304 C277 1.289 . S
C305 O297 1.258 . S
C305 O298 1.266 . S
Co306 O309 1.970 . S
Co306 N323 1.989 1_556 S
Co306 O331 1.967 . S
Co306 O338 1.920 . S
Co307 O310 1.966 . S
Co307 N316 2.022 . S
Co307 N324 1.993 . S
Co307 O332 1.941 . S
C308 O309 1.258 . S
C308 O310 1.263 1_556 S
O309 Co306 1.970 . S
O309 C308 1.258 . S
O310 Co307 1.966 . S
O310 C308 1.263 1_554 S
C311 O312 1.235 . S
C311 O338 1.289 . S
O312 C311 1.235 . S
C313 C315 1.400 . S
C313 N316 1.351 . S
C313 C318 1.501 . S
C314 C315 1.387 . S
C314 N317 1.341 . S
C315 C313 1.400 . S
C315 C314 1.387 . S
N316 Co307 2.022 . S
N316 C313 1.351 . S
N316 N317 1.365 . S
N317 C314 1.341 . S
N317 N316 1.365 . S
N317 H337 0.862 . S
C318 C313 1.501 . S
C318 H319 0.961 . S
C318 H320 0.961 . S
C318 H321 0.960 . S
H319 C318 0.961 . S
H320 C318 0.961 . S
H321 C318 0.960 . S
C322 N323 1.342 1_556 S
C322 C326 1.401 1_556 S
C322 C327 1.499 . S
N323 Co306 1.989 1_554 S
N323 C322 1.342 1_554 S
N323 N324 1.388 . S
N324 Co307 1.993 . S
N324 N323 1.388 . S
N324 C325 1.346 . S
C325 N324 1.346 . S
C325 C326 1.396 . S
C325 C335 1.510 . S
C326 C322 1.401 1_554 S
C326 C325 1.396 . S
C327 C322 1.499 . S
C327 H328 0.959 . S
C327 H329 0.960 . S
C327 H330 0.961 . S
H328 C327 0.959 . S
H329 C327 0.960 . S
H330 C327 0.961 . S
O331 Co306 1.967 . S
O331 C339 1.258 . S
O332 Co307 1.941 . S
O332 C339 1.266 1_554 S
H333 C335 0.959 . S
H334 C335 0.961 . S
C335 C325 1.510 . S
C335 H333 0.959 . S
C335 H334 0.961 . S
C335 H336 0.960 . S
H336 C335 0.960 . S
H337 N317 0.862 . S
O338 Co306 1.920 . S
O338 C311 1.289 . S
C339 O331 1.258 . S
C339 O332 1.266 1_556 S
Co340 O343 1.970 . S
Co340 N357 1.989 1_554 S
Co340 O365 1.967 . S
Co340 O372 1.920 . S
Co341 O344 1.966 . S
Co341 N350 2.022 . S
Co341 N358 1.993 . S
Co341 O366 1.941 . S
C342 O343 1.258 . S
C342 O344 1.263 1_554 S
O343 Co340 1.970 . S
O343 C342 1.258 . S
O344 Co341 1.966 . S
O344 C342 1.263 1_556 S
C345 O346 1.235 . S
C345 O372 1.289 . S
O346 C345 1.235 . S
C347 C349 1.400 . S
C347 N350 1.351 . S
C347 C352 1.501 . S
C348 C349 1.387 . S
C348 N351 1.341 . S
C349 C347 1.400 . S
C349 C348 1.387 . S
N350 Co341 2.022 . S
N350 C347 1.351 . S
N350 N351 1.365 . S
N351 C348 1.341 . S
N351 N350 1.365 . S
N351 H371 0.862 . S
C352 C347 1.501 . S
C352 H353 0.961 . S
C352 H354 0.961 . S
C352 H355 0.960 . S
H353 C352 0.961 . S
H354 C352 0.961 . S
H355 C352 0.960 . S
C356 N357 1.342 1_554 S
C356 C360 1.401 1_554 S
C356 C361 1.499 . S
N357 Co340 1.989 1_556 S
N357 C356 1.342 1_556 S
N357 N358 1.388 . S
N358 Co341 1.993 . S
N358 N357 1.388 . S
N358 C359 1.346 . S
C359 N358 1.346 . S
C359 C360 1.396 . S
C359 C369 1.510 . S
C360 C356 1.401 1_556 S
C360 C359 1.396 . S
C361 C356 1.499 . S
C361 H362 0.959 . S
C361 H363 0.960 . S
C361 H364 0.961 . S
H362 C361 0.959 . S
H363 C361 0.960 . S
H364 C361 0.961 . S
O365 Co340 1.967 . S
O365 C373 1.258 . S
O366 Co341 1.941 . S
O366 C373 1.266 1_556 S
H367 C369 0.959 . S
H368 C369 0.961 . S
C369 C359 1.510 . S
C369 H367 0.959 . S
C369 H368 0.961 . S
C369 H370 0.960 . S
H370 C369 0.960 . S
H371 N351 0.862 . S
O372 Co340 1.920 . S
O372 C345 1.289 . S
C373 O365 1.258 . S
C373 O366 1.266 1_554 S
Co374 O377 1.970 . S
Co374 N391 1.989 . S
Co374 O399 1.967 . S
Co374 O406 1.920 . S
Co375 O378 1.966 . S
Co375 N384 2.022 . S
Co375 N392 1.993 . S
Co375 O400 1.941 . S
C376 O377 1.258 . S
C376 O378 1.263 . S
O377 Co374 1.970 . S
O377 C376 1.258 . S
O378 Co375 1.966 . S
O378 C376 1.263 . S
C379 O380 1.235 . S
C379 O406 1.289 . S
O380 C379 1.235 . S
C381 C383 1.400 . S
C381 N384 1.351 . S
C381 C386 1.501 . S
C382 C383 1.387 . S
C382 N385 1.341 . S
C383 C381 1.400 . S
C383 C382 1.387 . S
N384 Co375 2.022 . S
N384 C381 1.351 . S
N384 N385 1.365 . S
N385 C382 1.341 . S
N385 N384 1.365 . S
N385 H405 0.862 . S
C386 C381 1.501 . S
C386 H387 0.961 . S
C386 H388 0.961 . S
C386 H389 0.960 . S
H387 C386 0.961 . S
H388 C386 0.961 . S
H389 C386 0.960 . S
C390 N391 1.342 . S
C390 C394 1.401 . S
C390 C395 1.499 . S
N391 Co374 1.989 . S
N391 C390 1.342 . S
N391 N392 1.388 . S
N392 Co375 1.993 . S
N392 N391 1.388 . S
N392 C393 1.346 . S
C393 N392 1.346 . S
C393 C394 1.396 . S
C393 C403 1.510 . S
C394 C390 1.401 . S
C394 C393 1.396 . S
C395 C390 1.499 . S
C395 H396 0.959 . S
C395 H397 0.960 . S
C395 H398 0.961 . S
H396 C395 0.959 . S
H397 C395 0.960 . S
H398 C395 0.961 . S
O399 Co374 1.967 . S
O399 C407 1.258 . S
O400 Co375 1.941 . S
O400 C407 1.266 . S
H401 C403 0.959 . S
H402 C403 0.961 . S
C403 C393 1.510 . S
C403 H401 0.959 . S
C403 H402 0.961 . S
C403 H404 0.960 . S
H404 C403 0.960 . S
H405 N385 0.862 . S
O406 Co374 1.920 . S
O406 C379 1.289 . S
C407 O399 1.258 . S
C407 O400 1.266 . S
Co408 O411 1.970 . S
Co408 N425 1.989 . S
Co408 O433 1.967 . S
Co408 O440 1.920 . S
Co409 O412 1.966 . S
Co409 N418 2.022 . S
Co409 N426 1.993 . S
Co409 O434 1.941 . S
C410 O411 1.258 . S
C410 O412 1.263 . S
O411 Co408 1.970 . S
O411 C410 1.258 . S
O412 Co409 1.966 . S
O412 C410 1.263 . S
C413 O414 1.235 . S
C413 O440 1.289 . S
O414 C413 1.235 . S
C415 C417 1.400 . S
C415 N418 1.351 . S
C415 C420 1.501 . S
C416 C417 1.387 . S
C416 N419 1.341 . S
C417 C415 1.400 . S
C417 C416 1.387 . S
N418 Co409 2.022 . S
N418 C415 1.351 . S
N418 N419 1.365 . S
N419 C416 1.341 . S
N419 N418 1.365 . S
N419 H439 0.862 . S
C420 C415 1.501 . S
C420 H421 0.961 . S
C420 H422 0.961 . S
C420 H423 0.960 . S
H421 C420 0.961 . S
H422 C420 0.961 . S
H423 C420 0.960 . S
C424 N425 1.342 . S
C424 C428 1.401 . S
C424 C429 1.499 . S
N425 Co408 1.989 . S
N425 C424 1.342 . S
N425 N426 1.388 . S
N426 Co409 1.993 . S
N426 N425 1.388 . S
N426 C427 1.346 . S
C427 N426 1.346 . S
C427 C428 1.396 . S
C427 C437 1.510 . S
C428 C424 1.401 . S
C428 C427 1.396 . S
C429 C424 1.499 . S
C429 H430 0.959 . S
C429 H431 0.960 . S
C429 H432 0.961 . S
H430 C429 0.959 . S
H431 C429 0.960 . S
H432 C429 0.961 . S
O433 Co408 1.967 . S
O433 C441 1.258 . S
O434 Co409 1.941 . S
O434 C441 1.266 . S
H435 C437 0.959 . S
H436 C437 0.961 . S
C437 C427 1.510 . S
C437 H435 0.959 . S
C437 H436 0.961 . S
C437 H438 0.960 . S
H438 C437 0.960 . S
H439 N419 0.862 . S
O440 Co408 1.920 . S
O440 C413 1.289 . S
C441 O433 1.258 . S
C441 O434 1.266 . S
Co442 O445 1.970 . S
Co442 N459 1.989 . S
Co442 O467 1.967 . S
Co442 O474 1.920 . S
Co443 O446 1.966 . S
Co443 N452 2.022 . S
Co443 N460 1.993 . S
Co443 O468 1.959 . S
C444 O445 1.258 . S
C444 O446 1.263 . S
O445 Co442 1.970 . S
O445 C444 1.258 . S
O446 Co443 1.966 . S
O446 C444 1.263 . S
C447 O448 1.235 . S
C447 O474 1.289 . S
O448 C447 1.235 . S
C449 C451 1.400 1_554 S
C449 N452 1.351 . S
C449 C454 1.501 . S
C450 C451 1.387 . S
C450 N453 1.341 1_556 S
C451 C449 1.400 1_556 S
C451 C450 1.387 . S
N452 Co443 2.022 . S
N452 C449 1.351 . S
N452 N453 1.365 . S
N453 C450 1.341 1_554 S
N453 N452 1.365 . S
N453 H473 0.862 1_455 S
C454 C449 1.501 . S
C454 H455 0.961 . S
C454 H456 0.961 . S
C454 H457 0.960 . S
H455 C454 0.961 . S
H456 C454 0.961 . S
H457 C454 0.960 . S
C458 N459 1.342 . S
C458 C462 1.401 . S
C458 C463 1.499 . S
N459 Co442 1.989 . S
N459 C458 1.342 . S
N459 N460 1.388 . S
N460 Co443 1.993 . S
N460 N459 1.388 . S
N460 C461 1.346 . S
C461 N460 1.346 . S
C461 C462 1.396 . S
C461 C471 1.510 . S
C462 C458 1.401 . S
C462 C461 1.396 . S
C463 C458 1.499 . S
C463 H464 0.959 . S
C463 H465 0.960 . S
C463 H466 0.961 . S
H464 C463 0.959 . S
H465 C463 0.960 . S
H466 C463 0.961 . S
O467 Co442 1.967 . S
O467 C475 1.258 1_455 S
O468 Co443 1.959 . S
O468 C475 1.262 1_455 S
H469 C471 0.959 . S
H470 C471 0.961 . S
C471 C461 1.510 . S
C471 H469 0.959 . S
C471 H470 0.961 . S
C471 H472 0.960 . S
H472 C471 0.960 . S
H473 N453 0.862 1_655 S
O474 Co442 1.920 . S
O474 C447 1.289 . S
C475 O467 1.258 1_655 S
C475 O468 1.262 1_655 S
Co476 O479 1.970 . S
Co476 N493 1.989 . S
Co476 O501 1.967 . S
Co476 O508 1.920 . S
Co477 O480 1.966 . S
Co477 N486 2.022 . S
Co477 N494 1.993 . S
Co477 O502 1.941 . S
C478 O479 1.258 . S
C478 O480 1.263 . S
O479 Co476 1.970 . S
O479 C478 1.258 . S
O480 Co477 1.966 . S
O480 C478 1.263 . S
C481 O482 1.235 . S
C481 O508 1.289 . S
O482 C481 1.235 . S
C483 C485 1.400 . S
C483 N486 1.351 . S
C483 C488 1.501 . S
C484 C485 1.387 . S
C484 N487 1.341 . S
C485 C483 1.400 . S
C485 C484 1.387 . S
N486 Co477 2.022 . S
N486 C483 1.351 . S
N486 N487 1.365 . S
N487 C484 1.341 . S
N487 N486 1.365 . S
N487 H507 0.862 . S
C488 C483 1.501 . S
C488 H489 0.961 . S
C488 H490 0.961 . S
C488 H491 0.960 . S
H489 C488 0.961 . S
H490 C488 0.961 . S
H491 C488 0.960 . S
C492 N493 1.342 . S
C492 C496 1.401 . S
C492 C497 1.499 . S
N493 Co476 1.989 . S
N493 C492 1.342 . S
N493 N494 1.388 . S
N494 Co477 1.993 . S
N494 N493 1.388 . S
N494 C495 1.346 . S
C495 N494 1.346 . S
C495 C496 1.396 . S
C495 C505 1.510 . S
C496 C492 1.401 . S
C496 C495 1.396 . S
C497 C492 1.499 . S
C497 H498 0.959 . S
C497 H499 0.960 . S
C497 H500 0.961 . S
H498 C497 0.959 . S
H499 C497 0.960 . S
H500 C497 0.961 . S
O501 Co476 1.967 . S
O501 C509 1.258 . S
O502 Co477 1.941 . S
O502 C509 1.266 . S
H503 C505 0.959 . S
H504 C505 0.961 . S
C505 C495 1.510 . S
C505 H503 0.959 . S
C505 H504 0.961 . S
C505 H506 0.960 . S
H506 C505 0.960 . S
H507 N487 0.862 . S
O508 Co476 1.920 . S
O508 C481 1.289 . S
C509 O501 1.258 . S
C509 O502 1.266 . S
Co510 O513 1.970 . S
Co510 N527 1.989 . S
Co510 O535 1.967 . S
Co510 O542 1.920 . S
Co511 O514 1.966 . S
Co511 N520 2.022 . S
Co511 N528 1.993 . S
Co511 O536 1.959 . S
C512 O513 1.258 . S
C512 O514 1.263 . S
O513 Co510 1.970 . S
O513 C512 1.258 . S
O514 Co511 1.966 . S
O514 C512 1.263 . S
C515 O516 1.235 . S
C515 O542 1.289 . S
O516 C515 1.235 . S
C517 C519 1.400 1_556 S
C517 N520 1.351 . S
C517 C522 1.501 . S
C518 C519 1.387 . S
C518 N521 1.341 1_554 S
C519 C517 1.400 1_554 S
C519 C518 1.387 . S
N520 Co511 2.022 . S
N520 C517 1.351 . S
N520 N521 1.365 . S
N521 C518 1.341 1_556 S
N521 N520 1.365 . S
N521 H541 0.862 1_455 S
C522 C517 1.501 . S
C522 H523 0.961 . S
C522 H524 0.961 . S
C522 H525 0.960 . S
H523 C522 0.961 . S
H524 C522 0.961 . S
H525 C522 0.960 . S
C526 N527 1.342 . S
C526 C530 1.401 . S
C526 C531 1.499 . S
N527 Co510 1.989 . S
N527 C526 1.342 . S
N527 N528 1.388 . S
N528 Co511 1.993 . S
N528 N527 1.388 . S
N528 C529 1.346 . S
C529 N528 1.346 . S
C529 C530 1.396 . S
C529 C539 1.510 . S
C530 C526 1.401 . S
C530 C529 1.396 . S
C531 C526 1.499 . S
C531 H532 0.959 . S
C531 H533 0.960 . S
C531 H534 0.961 . S
H532 C531 0.959 . S
H533 C531 0.960 . S
H534 C531 0.961 . S
O535 Co510 1.967 . S
O535 C543 1.258 1_455 S
O536 Co511 1.959 . S
O536 C543 1.262 1_455 S
H537 C539 0.959 . S
H538 C539 0.961 . S
C539 C529 1.510 . S
C539 H537 0.959 . S
C539 H538 0.961 . S
C539 H540 0.960 . S
H540 C539 0.960 . S
H541 N521 0.862 1_655 S
O542 Co510 1.920 . S
O542 C515 1.289 . S
C543 O535 1.258 1_655 S
C543 O536 1.262 1_655 S
H544 C552 0.929 . S
H545 C554 0.930 . S
H546 C556 0.930 . S
H547 C559 0.929 . S
H548 C562 0.930 . S
H549 C564 0.960 . S
H550 C564 0.960 . S
H551 C564 0.960 . S
C552 H544 0.929 . S
C552 C553 1.377 . S
C552 C554 1.384 . S
C553 C552 1.377 . S
C553 C559 1.390 . S
C554 H545 0.930 . S
C554 C552 1.384 . S
C554 C555 1.372 . S
C555 C554 1.372 . S
C555 C556 1.400 . S
C555 C560 1.490 . S
C556 H546 0.930 . S
C556 C555 1.400 . S
C556 C559 1.386 . S
H557 C573 0.930 . S
H558 C574 0.931 . S
C559 H547 0.929 . S
C559 C553 1.390 . S
C559 C556 1.386 . S
C560 C555 1.490 . S
C560 C562 1.395 . S
C560 C563 1.403 . S
H561 C567 0.930 . S
C562 H548 0.930 . S
C562 C560 1.395 . S
C562 C565 1.403 . S
C563 C560 1.403 . S
C563 C564 1.524 . S
C563 C567 1.400 . S
C564 H549 0.960 . S
C564 H550 0.960 . S
C564 H551 0.960 . S
C564 C563 1.524 . S
C565 C562 1.403 . S
C565 C566 1.392 . S
C565 C569 1.495 . S
C566 C565 1.392 . S
C566 C567 1.385 . S
C566 C568 1.478 . S
C567 H561 0.930 . S
C567 C563 1.400 . S
C567 C566 1.385 . S
C568 C566 1.478 . S
C568 C570 1.381 . S
C568 C574 1.383 . S
C569 C565 1.495 . S
C569 H575 0.959 . S
C569 H576 0.961 . S
C569 H577 0.960 . S
C570 C568 1.381 . S
C570 C571 1.394 . S
C570 H578 0.930 . S
C571 C570 1.394 . S
C571 C572 1.383 . S
C571 H579 0.929 . S
C572 C571 1.383 . S
C572 C573 1.377 . S
C573 H557 0.930 . S
C573 C572 1.377 . S
C573 C574 1.379 . S
C574 H558 0.931 . S
C574 C568 1.383 . S
C574 C573 1.379 . S
H575 C569 0.959 . S
H576 C569 0.961 . S
H577 C569 0.960 . S
H578 C570 0.930 . S
H579 C571 0.929 . S
H580 C588 0.929 . S
H581 C590 0.930 . S
H582 C592 0.930 . S
H583 C595 0.929 . S
H584 C598 0.930 . S
H585 C600 0.960 . S
H586 C600 0.960 . S
H587 C600 0.960 . S
C588 H580 0.929 . S
C588 C589 1.377 . S
C588 C590 1.384 . S
C589 C588 1.377 . S
C589 C595 1.390 . S
C590 H581 0.930 . S
C590 C588 1.384 . S
C590 C591 1.372 . S
C591 C590 1.372 . S
C591 C592 1.400 . S
C591 C596 1.490 . S
C592 H582 0.930 . S
C592 C591 1.400 . S
C592 C595 1.386 . S
H593 C609 0.930 . S
H594 C610 0.931 . S
C595 H583 0.929 . S
C595 C589 1.390 . S
C595 C592 1.386 . S
C596 C591 1.490 . S
C596 C598 1.395 . S
C596 C599 1.403 . S
H597 C603 0.930 . S
C598 H584 0.930 . S
C598 C596 1.395 . S
C598 C601 1.403 . S
C599 C596 1.403 . S
C599 C600 1.524 . S
C599 C603 1.400 . S
C600 H585 0.960 . S
C600 H586 0.960 . S
C600 H587 0.960 . S
C600 C599 1.524 . S
C601 C598 1.403 . S
C601 C602 1.392 . S
C601 C605 1.495 . S
C602 C601 1.392 . S
C602 C603 1.385 . S
C602 C604 1.478 . S
C603 H597 0.930 . S
C603 C599 1.400 . S
C603 C602 1.385 . S
C604 C602 1.478 . S
C604 C606 1.381 . S
C604 C610 1.383 . S
C605 C601 1.495 . S
C605 H611 0.959 . S
C605 H612 0.961 . S
C605 H613 0.960 . S
C606 C604 1.381 . S
C606 C607 1.394 . S
C606 H614 0.930 . S
C607 C606 1.394 . S
C607 C608 1.383 . S
C607 H615 0.929 . S
C608 C607 1.383 . S
C608 C609 1.377 . S
C609 H593 0.930 . S
C609 C608 1.377 . S
C609 C610 1.379 . S
C610 H594 0.931 . S
C610 C604 1.383 . S
C610 C609 1.379 . S
H611 C605 0.959 . S
H612 C605 0.961 . S
H613 C605 0.960 . S
H614 C606 0.930 . S
H615 C607 0.929 . S
H616 C624 0.929 . S
H617 C626 0.930 . S
H618 C628 0.930 . S
H619 C631 0.929 . S
H620 C634 0.930 . S
H621 C636 0.960 . S
H622 C636 0.960 . S
H623 C636 0.960 . S
C624 H616 0.929 . S
C624 C625 1.377 . S
C624 C626 1.384 . S
C625 C624 1.377 . S
C625 C631 1.390 . S
C626 H617 0.930 . S
C626 C624 1.384 . S
C626 C627 1.372 . S
C627 C626 1.372 . S
C627 C628 1.400 . S
C627 C632 1.490 . S
C628 H618 0.930 . S
C628 C627 1.400 . S
C628 C631 1.386 . S
H629 C645 0.930 . S
H630 C646 0.931 . S
C631 H619 0.929 . S
C631 C625 1.390 . S
C631 C628 1.386 . S
C632 C627 1.490 . S
C632 C634 1.395 . S
C632 C635 1.403 . S
H633 C639 0.930 . S
C634 H620 0.930 . S
C634 C632 1.395 . S
C634 C637 1.403 . S
C635 C632 1.403 . S
C635 C636 1.524 . S
C635 C639 1.400 . S
C636 H621 0.960 . S
C636 H622 0.960 . S
C636 H623 0.960 . S
C636 C635 1.524 . S
C637 C634 1.403 . S
C637 C638 1.392 . S
C637 C641 1.495 . S
C638 C637 1.392 . S
C638 C639 1.385 . S
C638 C640 1.478 . S
C639 H633 0.930 . S
C639 C635 1.400 . S
C639 C638 1.385 . S
C640 C638 1.478 . S
C640 C642 1.381 . S
C640 C646 1.383 . S
C641 C637 1.495 . S
C641 H647 0.959 . S
C641 H648 0.961 . S
C641 H649 0.960 . S
C642 C640 1.381 . S
C642 C643 1.394 . S
C642 H650 0.930 . S
C643 C642 1.394 . S
C643 C644 1.383 . S
C643 H651 0.929 1_556 S
C644 C643 1.383 . S
C644 C645 1.377 . S
C645 H629 0.930 . S
C645 C644 1.377 . S
C645 C646 1.379 . S
C646 H630 0.931 . S
C646 C640 1.383 . S
C646 C645 1.379 . S
H647 C641 0.959 . S
H648 C641 0.961 . S
H649 C641 0.960 . S
H650 C642 0.930 . S
H651 C643 0.929 1_554 S
H652 C660 0.929 . S
H653 C662 0.930 . S
H654 C664 0.930 . S
H655 C667 0.929 . S
H656 C670 0.930 . S
H657 C672 0.960 . S
H658 C672 0.960 . S
H659 C672 0.960 . S
C660 H652 0.929 . S
C660 C661 1.377 . S
C660 C662 1.384 . S
C661 C660 1.377 . S
C661 C667 1.390 . S
C662 H653 0.930 . S
C662 C660 1.384 . S
C662 C663 1.372 . S
C663 C662 1.372 . S
C663 C664 1.400 . S
C663 C668 1.490 . S
C664 H654 0.930 . S
C664 C663 1.400 . S
C664 C667 1.386 . S
H665 C681 0.930 . S
H666 C682 0.931 . S
C667 H655 0.929 . S
C667 C661 1.390 . S
C667 C664 1.386 . S
C668 C663 1.490 . S
C668 C670 1.395 . S
C668 C671 1.403 . S
H669 C675 0.930 . S
C670 H656 0.930 . S
C670 C668 1.395 . S
C670 C673 1.403 . S
C671 C668 1.403 . S
C671 C672 1.524 . S
C671 C675 1.400 . S
C672 H657 0.960 . S
C672 H658 0.960 . S
C672 H659 0.960 . S
C672 C671 1.524 . S
C673 C670 1.403 . S
C673 C674 1.392 . S
C673 C677 1.495 . S
C674 C673 1.392 . S
C674 C675 1.385 . S
C674 C676 1.478 . S
C675 H669 0.930 . S
C675 C671 1.400 . S
C675 C674 1.385 . S
C676 C674 1.478 . S
C676 C678 1.381 . S
C676 C682 1.383 . S
C677 C673 1.495 . S
C677 H683 0.959 . S
C677 H684 0.961 . S
C677 H685 0.960 . S
C678 C676 1.381 . S
C678 C679 1.394 . S
C678 H686 0.930 . S
C679 C678 1.394 . S
C679 C680 1.383 . S
C679 H687 0.929 1_554 S
C680 C679 1.383 . S
C680 C681 1.377 . S
C681 H665 0.930 . S
C681 C680 1.377 . S
C681 C682 1.379 . S
C682 H666 0.931 . S
C682 C676 1.383 . S
C682 C681 1.379 . S
H683 C677 0.959 . S
H684 C677 0.961 . S
H685 C677 0.960 . S
H686 C678 0.930 . S
H687 C679 0.929 1_556 S
H688 C696 0.929 . S
H689 C698 0.930 . S
H690 C700 0.930 . S
H691 C703 0.929 . S
H692 C706 0.930 . S
H693 C708 0.960 . S
H694 C708 0.960 . S
H695 C708 0.960 . S
C696 H688 0.929 . S
C696 C697 1.377 . S
C696 C698 1.384 . S
C697 C696 1.377 . S
C697 C703 1.390 . S
C698 H689 0.930 . S
C698 C696 1.384 . S
C698 C699 1.372 . S
C699 C698 1.372 . S
C699 C700 1.400 . S
C699 C704 1.490 . S
C700 H690 0.930 . S
C700 C699 1.400 . S
C700 C703 1.386 . S
H701 C717 0.930 . S
H702 C718 0.931 . S
C703 H691 0.929 . S
C703 C697 1.390 . S
C703 C700 1.386 . S
C704 C699 1.490 . S
C704 C706 1.395 . S
C704 C707 1.403 . S
H705 C711 0.930 . S
C706 H692 0.930 . S
C706 C704 1.395 . S
C706 C709 1.403 . S
C707 C704 1.403 . S
C707 C708 1.524 . S
C707 C711 1.400 . S
C708 H693 0.960 . S
C708 H694 0.960 . S
C708 H695 0.960 . S
C708 C707 1.524 . S
C709 C706 1.403 . S
C709 C710 1.392 . S
C709 C713 1.495 . S
C710 C709 1.392 . S
C710 C711 1.385 . S
C710 C712 1.478 . S
C711 H705 0.930 . S
C711 C707 1.400 . S
C711 C710 1.385 . S
C712 C710 1.478 . S
C712 C714 1.381 . S
C712 C718 1.383 . S
C713 C709 1.495 . S
C713 H719 0.959 . S
C713 H720 0.961 . S
C713 H721 0.960 . S
C714 C712 1.381 . S
C714 C715 1.382 1_655 S
C714 H722 0.930 . S
C715 C714 1.382 1_455 S
C715 C716 1.376 1_455 S
C715 H723 0.949 . S
C716 C715 1.376 1_655 S
C716 C717 1.377 . S
C717 H701 0.930 . S
C717 C716 1.377 . S
C717 C718 1.379 . S
C718 H702 0.931 . S
C718 C712 1.383 . S
C718 C717 1.379 . S
H719 C713 0.959 . S
H720 C713 0.961 . S
H721 C713 0.960 . S
H722 C714 0.930 . S
H723 C715 0.949 . S
H724 C732 0.929 . S
H725 C734 0.930 . S
H726 C736 0.930 . S
H727 C739 0.929 . S
H728 C742 0.930 . S
H729 C744 0.960 . S
H730 C744 0.960 . S
H731 C744 0.960 . S
C732 H724 0.929 . S
C732 C733 1.377 . S
C732 C734 1.384 . S
C733 C732 1.377 . S
C733 C739 1.390 . S
C734 H725 0.930 . S
C734 C732 1.384 . S
C734 C735 1.372 . S
C735 C734 1.372 . S
C735 C736 1.400 . S
C735 C740 1.490 . S
C736 H726 0.930 . S
C736 C735 1.400 . S
C736 C739 1.386 . S
H737 C753 0.930 . S
H738 C754 0.931 . S
C739 H727 0.929 . S
C739 C733 1.390 . S
C739 C736 1.386 . S
C740 C735 1.490 . S
C740 C742 1.395 . S
C740 C743 1.403 . S
H741 C747 0.930 . S
C742 H728 0.930 . S
C742 C740 1.395 . S
C742 C745 1.403 . S
C743 C740 1.403 . S
C743 C744 1.524 . S
C743 C747 1.400 . S
C744 H729 0.960 . S
C744 H730 0.960 . S
C744 H731 0.960 . S
C744 C743 1.524 . S
C745 C742 1.403 . S
C745 C746 1.392 . S
C745 C749 1.495 . S
C746 C745 1.392 . S
C746 C747 1.385 . S
C746 C748 1.478 . S
C747 H741 0.930 . S
C747 C743 1.400 . S
C747 C746 1.385 . S
C748 C746 1.478 . S
C748 C750 1.381 . S
C748 C754 1.383 . S
C749 C745 1.495 . S
C749 H755 0.959 . S
C749 H756 0.961 . S
C749 H757 0.960 . S
C750 C748 1.381 . S
C750 C751 1.398 1_655 S
C750 H758 0.930 . S
C751 C750 1.398 1_455 S
C751 C752 1.386 1_455 S
C751 H759 0.923 . S
C752 C751 1.386 1_655 S
C752 C753 1.377 . S
C753 H737 0.930 . S
C753 C752 1.377 . S
C753 C754 1.379 . S
C754 H738 0.931 . S
C754 C748 1.383 . S
C754 C753 1.379 . S
H755 C749 0.959 . S
H756 C749 0.961 . S
H757 C749 0.960 . S
H758 C750 0.930 . S
H759 C751 0.923 . S
H760 C768 0.929 . S
H761 C770 0.930 . S
H762 C772 0.930 . S
H763 C775 0.929 . S
H764 C778 0.930 . S
H765 C780 0.962 . S
H766 C780 0.960 . S
H767 C780 0.960 . S
C768 H760 0.929 . S
C768 C769 1.377 . S
C768 C770 1.384 . S
C769 C768 1.377 . S
C769 C775 1.390 . S
C770 H761 0.930 . S
C770 C768 1.384 . S
C770 C771 1.372 . S
C771 C770 1.372 . S
C771 C772 1.400 . S
C771 C776 1.490 . S
C772 H762 0.930 . S
C772 C771 1.400 . S
C772 C775 1.386 . S
H773 C789 0.939 . S
H774 C790 0.931 . S
C775 H763 0.929 . S
C775 C769 1.390 . S
C775 C772 1.386 . S
C776 C771 1.490 . S
C776 C778 1.395 . S
C776 C779 1.403 . S
H777 C783 0.930 . S
C778 H764 0.930 . S
C778 C776 1.395 . S
C778 C781 1.403 . S
C779 C776 1.403 . S
C779 C780 1.524 . S
C779 C783 1.400 . S
C780 H765 0.962 . S
C780 H766 0.960 . S
C780 H767 0.960 . S
C780 C779 1.524 . S
C781 C778 1.403 . S
C781 C782 1.392 . S
C781 C785 1.495 . S
C782 C781 1.392 . S
C782 C783 1.385 . S
C782 C784 1.478 . S
C783 H777 0.930 . S
C783 C779 1.400 . S
C783 C782 1.385 . S
C784 C782 1.478 . S
C784 C786 1.381 . S
C784 C790 1.383 . S
C785 C781 1.495 . S
C785 H791 0.959 . S
C785 H792 0.961 . S
C785 H793 0.960 . S
C786 C784 1.381 . S
C786 C787 1.394 . S
C786 H794 0.930 . S
C787 C786 1.394 . S
C787 C788 1.383 . S
C787 H795 0.929 . S
C788 C787 1.383 . S
C788 C789 1.377 . S
C789 H773 0.939 . S
C789 C788 1.377 . S
C789 C790 1.379 . S
C790 H774 0.931 . S
C790 C784 1.383 . S
C790 C789 1.379 . S
H791 C785 0.959 . S
H792 C785 0.961 . S
H793 C785 0.960 . S
H794 C786 0.930 . S
H795 C787 0.929 . S
H796 C804 0.929 . S
H797 C806 0.930 . S
H798 C808 0.930 . S
H799 C811 0.929 . S
H800 C814 0.930 . S
H801 C816 0.960 . S
H802 C816 0.960 . S
H803 C816 0.960 . S
C804 H796 0.929 . S
C804 C805 1.377 . S
C804 C806 1.384 . S
C805 C804 1.377 . S
C805 C811 1.390 . S
C806 H797 0.930 . S
C806 C804 1.384 . S
C806 C807 1.372 . S
C807 C806 1.372 . S
C807 C808 1.400 . S
C807 C812 1.490 . S
C808 H798 0.930 . S
C808 C807 1.400 . S
C808 C811 1.386 . S
H809 C825 0.930 . S
H810 C826 0.931 1_554 S
C811 H799 0.929 . S
C811 C805 1.390 . S
C811 C808 1.386 . S
C812 C807 1.490 . S
C812 C814 1.395 . S
C812 C815 1.403 . S
H813 C819 0.930 . S
C814 H800 0.930 . S
C814 C812 1.395 . S
C814 C817 1.403 . S
C815 C812 1.403 . S
C815 C816 1.524 . S
C815 C819 1.400 . S
C816 H801 0.960 . S
C816 H802 0.960 . S
C816 H803 0.960 . S
C816 C815 1.524 . S
C817 C814 1.403 . S
C817 C818 1.392 . S
C817 C821 1.495 . S
C818 C817 1.392 . S
C818 C819 1.385 . S
C818 C820 1.478 . S
C819 H813 0.930 . S
C819 C815 1.400 . S
C819 C818 1.385 . S
C820 C818 1.478 . S
C820 C822 1.381 . S
C820 C826 1.383 . S
C821 C817 1.495 . S
C821 H827 0.959 . S
C821 H828 0.961 . S
C821 H829 0.960 . S
C822 C820 1.381 . S
C822 C823 1.394 . S
C822 H830 0.930 . S
C823 C822 1.394 . S
C823 C824 1.383 . S
C823 H831 0.929 . S
C824 C823 1.383 . S
C824 C825 1.377 1_556 S
C825 H809 0.930 . S
C825 C824 1.377 1_554 S
C825 C826 1.379 1_554 S
C826 H810 0.931 1_556 S
C826 C820 1.383 . S
C826 C825 1.379 1_556 S
H827 C821 0.959 . S
H828 C821 0.961 . S
H829 C821 0.960 . S
H830 C822 0.930 . S
H831 C823 0.929 . S
H832 C840 0.929 . S
H833 C842 0.930 1_554 S
H834 C844 0.930 . S
H835 C847 0.929 . S
H836 C850 0.930 . S
H837 C852 0.960 . S
H838 C852 0.960 . S
H839 C852 0.960 . S
C840 H832 0.929 . S
C840 C841 1.377 1_554 S
C840 C842 1.384 1_554 S
C841 C840 1.377 1_556 S
C841 C847 1.390 . S
C842 H833 0.930 1_556 S
C842 C840 1.384 1_556 S
C842 C843 1.372 . S
C843 C842 1.372 . S
C843 C844 1.400 . S
C843 C848 1.490 . S
C844 H834 0.930 . S
C844 C843 1.400 . S
C844 C847 1.386 . S
H845 C861 0.930 . S
H846 C862 0.931 . S
C847 H835 0.929 . S
C847 C841 1.390 . S
C847 C844 1.386 . S
C848 C843 1.490 . S
C848 C850 1.395 . S
C848 C851 1.403 . S
H849 C855 0.930 . S
C850 H836 0.930 . S
C850 C848 1.395 . S
C850 C853 1.403 . S
C851 C848 1.403 . S
C851 C852 1.524 . S
C851 C855 1.400 . S
C852 H837 0.960 . S
C852 H838 0.960 . S
C852 H839 0.960 . S
C852 C851 1.524 . S
C853 C850 1.403 . S
C853 C854 1.392 . S
C853 C857 1.495 . S
C854 C853 1.392 . S
C854 C855 1.385 . S
C854 C856 1.478 . S
C855 H849 0.930 . S
C855 C851 1.400 . S
C855 C854 1.385 . S
C856 C854 1.478 . S
C856 C858 1.381 . S
C856 C862 1.383 . S
C857 C853 1.495 . S
C857 H863 0.959 . S
C857 H864 0.961 . S
C857 H865 0.960 . S
C858 C856 1.381 . S
C858 C859 1.394 . S
C858 H866 0.930 . S
C859 C858 1.394 . S
C859 C860 1.383 . S
C859 H867 0.929 . S
C860 C859 1.383 . S
C860 C861 1.377 . S
C861 H845 0.930 . S
C861 C860 1.377 . S
C861 C862 1.379 . S
C862 H846 0.931 . S
C862 C856 1.383 . S
C862 C861 1.379 . S
H863 C857 0.959 . S
H864 C857 0.961 . S
H865 C857 0.960 . S
H866 C858 0.930 . S
H867 C859 0.929 . S
H868 C876 0.929 . S
H869 C878 0.930 . S
H870 C880 0.930 . S
H871 C883 0.929 . S
H872 C886 0.930 . S
H873 C888 0.960 . S
H874 C888 0.960 . S
H875 C888 0.960 . S
C876 H868 0.929 . S
C876 C877 1.377 . S
C876 C878 1.384 . S
C877 C876 1.377 . S
C877 C883 1.390 . S
C878 H869 0.930 . S
C878 C876 1.384 . S
C878 C879 1.372 . S
C879 C878 1.372 . S
C879 C880 1.400 . S
C879 C884 1.490 . S
C880 H870 0.930 . S
C880 C879 1.400 . S
C880 C883 1.386 . S
H881 C897 0.930 1_556 S
H882 C898 0.931 . S
C883 H871 0.929 . S
C883 C877 1.390 . S
C883 C880 1.386 . S
C884 C879 1.490 . S
C884 C886 1.395 . S
C884 C887 1.403 . S
H885 C891 0.930 . S
C886 H872 0.930 . S
C886 C884 1.395 . S
C886 C889 1.403 . S
C887 C884 1.403 . S
C887 C888 1.524 . S
C887 C891 1.400 . S
C888 H873 0.960 . S
C888 H874 0.960 . S
C888 H875 0.960 . S
C888 C887 1.524 . S
C889 C886 1.403 . S
C889 C890 1.392 . S
C889 C893 1.495 . S
C890 C889 1.392 . S
C890 C891 1.385 . S
C890 C892 1.478 . S
C891 H885 0.930 . S
C891 C887 1.400 . S
C891 C890 1.385 . S
C892 C890 1.478 . S
C892 C894 1.381 . S
C892 C898 1.383 . S
C893 C889 1.495 . S
C893 H899 0.959 . S
C893 H900 0.961 . S
C893 H901 0.960 . S
C894 C892 1.381 . S
C894 C895 1.394 . S
C894 H902 0.930 . S
C895 C894 1.394 . S
C895 C896 1.383 . S
C895 H903 0.929 . S
C896 C895 1.383 . S
C896 C897 1.377 . S
C897 H881 0.930 1_554 S
C897 C896 1.377 . S
C897 C898 1.379 . S
C898 H882 0.931 . S
C898 C892 1.383 . S
C898 C897 1.379 . S
H899 C893 0.959 . S
H900 C893 0.961 . S
H901 C893 0.960 . S
H902 C894 0.930 . S
H903 C895 0.929 . S
H904 C912 0.929 . S
H905 C914 0.930 . S
H906 C916 0.930 . S
H907 C919 0.929 . S
H908 C922 0.930 . S
H909 C924 0.960 . S
H910 C924 0.960 . S
H911 C924 0.960 . S
C912 H904 0.929 . S
C912 C913 1.377 . S
C912 C914 1.384 . S
C913 C912 1.377 . S
C913 C919 1.390 . S
C914 H905 0.930 . S
C914 C912 1.384 . S
C914 C915 1.372 . S
C915 C914 1.372 . S
C915 C916 1.400 . S
C915 C920 1.490 . S
C916 H906 0.930 . S
C916 C915 1.400 . S
C916 C919 1.386 . S
H917 C933 0.930 . S
H918 C934 0.931 . S
C919 H907 0.929 . S
C919 C913 1.390 . S
C919 C916 1.386 . S
C920 C915 1.490 . S
C920 C922 1.395 . S
C920 C923 1.403 . S
H921 C927 0.930 . S
C922 H908 0.930 . S
C922 C920 1.395 . S
C922 C925 1.403 . S
C923 C920 1.403 . S
C923 C924 1.524 . S
C923 C927 1.400 . S
C924 H909 0.960 . S
C924 H910 0.960 . S
C924 H911 0.960 . S
C924 C923 1.524 . S
C925 C922 1.403 . S
C925 C926 1.392 . S
C925 C929 1.495 . S
C926 C925 1.392 . S
C926 C927 1.385 . S
C926 C928 1.478 . S
C927 H921 0.930 . S
C927 C923 1.400 . S
C927 C926 1.385 . S
C928 C926 1.478 . S
C928 C930 1.381 . S
C928 C934 1.383 . S
C929 C925 1.495 . S
C929 H935 0.959 . S
C929 H936 0.961 . S
C929 H937 0.960 . S
C930 C928 1.381 . S
C930 C931 1.394 . S
C930 H938 0.930 . S
C931 C930 1.394 . S
C931 C932 1.383 . S
C931 H939 0.929 . S
C932 C931 1.383 . S
C932 C933 1.377 . S
C933 H917 0.930 . S
C933 C932 1.377 . S
C933 C934 1.379 . S
C934 H918 0.931 . S
C934 C928 1.383 . S
C934 C933 1.379 . S
H935 C929 0.959 . S
H936 C929 0.961 . S
H937 C929 0.960 . S
H938 C930 0.930 . S
H939 C931 0.929 . S
H940 C948 0.929 . S
H941 C950 0.930 . S
H942 C952 0.930 . S
H943 C955 0.929 . S
H944 C958 0.930 . S
H945 C960 0.960 . S
H946 C960 0.960 . S
H947 C960 0.960 . S
C948 H940 0.929 . S
C948 C949 1.377 . S
C948 C950 1.384 . S
C949 C948 1.377 . S
C949 C955 1.390 . S
C950 H941 0.930 . S
C950 C948 1.384 . S
C950 C951 1.372 . S
C951 C950 1.372 . S
C951 C952 1.400 . S
C951 C956 1.490 . S
C952 H942 0.930 . S
C952 C951 1.400 . S
C952 C955 1.386 . S
H953 C969 0.934 1_455 S
H954 C970 0.931 . S
C955 H943 0.929 . S
C955 C949 1.390 . S
C955 C952 1.386 . S
C956 C951 1.490 . S
C956 C958 1.395 . S
C956 C959 1.403 . S
H957 C963 0.930 . S
C958 H944 0.930 . S
C958 C956 1.395 . S
C958 C961 1.403 . S
C959 C956 1.403 . S
C959 C960 1.524 . S
C959 C963 1.400 . S
C960 H945 0.960 . S
C960 H946 0.960 . S
C960 H947 0.960 . S
C960 C959 1.524 . S
C961 C958 1.403 . S
C961 C962 1.392 . S
C961 C965 1.495 . S
C962 C961 1.392 . S
C962 C963 1.385 . S
C962 C964 1.478 . S
C963 H957 0.930 . S
C963 C959 1.400 . S
C963 C962 1.385 . S
C964 C962 1.478 . S
C964 C966 1.381 . S
C964 C970 1.383 . S
C965 C961 1.495 . S
C965 H971 0.959 . S
C965 H972 0.961 . S
C965 H973 0.960 . S
C966 C964 1.381 . S
C966 C967 1.394 . S
C966 H974 0.930 . S
C967 C966 1.394 . S
C967 C968 1.383 . S
C967 H975 0.929 . S
C968 C967 1.383 . S
C968 C969 1.377 . S
C969 H953 0.934 1_655 S
C969 C968 1.377 . S
C969 C970 1.379 . S
C970 H954 0.931 . S
C970 C964 1.383 . S
C970 C969 1.379 . S
H971 C965 0.959 . S
H972 C965 0.961 . S
H973 C965 0.960 . S
H974 C966 0.930 . S
H975 C967 0.929 . S
H976 C984 0.929 1_556 S
H977 C986 0.930 . S
H978 C988 0.930 . S
H979 C991 0.929 . S
H980 C994 0.930 . S
H981 C996 0.960 . S
H982 C996 0.960 1_556 S
H983 C996 0.960 . S
C984 H976 0.929 1_554 S
C984 C985 1.377 . S
C984 C986 1.384 . S
C985 C984 1.377 . S
C985 C991 1.390 . S
C986 H977 0.930 . S
C986 C984 1.384 . S
C986 C987 1.372 . S
C987 C986 1.372 . S
C987 C988 1.400 . S
C987 C992 1.490 . S
C988 H978 0.930 . S
C988 C987 1.400 . S
C988 C991 1.386 . S
H989 C1005 0.930 . S
H990 C1006 0.931 . S
C991 H979 0.929 . S
C991 C985 1.390 . S
C991 C988 1.386 . S
C992 C987 1.490 . S
C992 C994 1.395 . S
C992 C995 1.403 . S
H993 C999 0.930 . S
C994 H980 0.930 . S
C994 C992 1.395 . S
C994 C997 1.403 . S
C995 C992 1.403 . S
C995 C996 1.524 . S
C995 C999 1.400 . S
C996 H981 0.960 . S
C996 H982 0.960 1_554 S
C996 H983 0.960 . S
C996 C995 1.524 . S
C997 C994 1.403 . S
C997 C998 1.392 . S
C997 C1001 1.495 . S
C998 C997 1.392 . S
C998 C999 1.385 . S
C998 C1000 1.478 . S
C999 H993 0.930 . S
C999 C995 1.400 . S
C999 C998 1.385 . S
C1000 C998 1.478 . S
C1000 C1002 1.381 . S
C1000 C1006 1.383 . S
C1001 C997 1.495 . S
C1001 H1007 0.959 . S
C1001 H1008 0.961 . S
C1001 H1009 0.960 . S
C1002 C1000 1.381 . S
C1002 C1003 1.394 . S
C1002 H1010 0.930 . S
C1003 C1002 1.394 . S
C1003 C1004 1.383 . S
C1003 H1011 0.929 . S
C1004 C1003 1.383 . S
C1004 C1005 1.377 . S
C1005 H989 0.930 . S
C1005 C1004 1.377 . S
C1005 C1006 1.379 . S
C1006 H990 0.931 . S
C1006 C1000 1.383 . S
C1006 C1005 1.379 . S
H1007 C1001 0.959 . S
H1008 C1001 0.961 . S
H1009 C1001 0.960 . S
H1010 C1002 0.930 . S
H1011 C1003 0.929 . S
H1012 C1020 0.929 . S
H1013 C1022 0.930 . S
H1014 C1024 0.930 . S
H1015 C1027 0.929 . S
H1016 C1030 0.930 . S
H1017 C1032 0.960 . S
H1018 C1032 0.960 1_554 S
H1019 C1032 0.960 . S
C1020 H1012 0.929 . S
C1020 C1021 1.377 . S
C1020 C1022 1.384 . S
C1021 C1020 1.377 . S
C1021 C1027 1.390 . S
C1022 H1013 0.930 . S
C1022 C1020 1.384 . S
C1022 C1023 1.372 . S
C1023 C1022 1.372 . S
C1023 C1024 1.400 . S
C1023 C1028 1.490 . S
C1024 H1014 0.930 . S
C1024 C1023 1.400 . S
C1024 C1027 1.386 . S
H1025 C1041 0.930 . S
H1026 C1042 0.931 . S
C1027 H1015 0.929 . S
C1027 C1021 1.390 . S
C1027 C1024 1.386 . S
C1028 C1023 1.490 . S
C1028 C1030 1.395 . S
C1028 C1031 1.403 . S
H1029 C1035 0.930 . S
C1030 H1016 0.930 . S
C1030 C1028 1.395 . S
C1030 C1033 1.403 . S
C1031 C1028 1.403 . S
C1031 C1032 1.524 . S
C1031 C1035 1.400 . S
C1032 H1017 0.960 . S
C1032 H1018 0.960 1_556 S
C1032 H1019 0.960 . S
C1032 C1031 1.524 . S
C1033 C1030 1.403 . S
C1033 C1034 1.392 . S
C1033 C1037 1.495 . S
C1034 C1033 1.392 . S
C1034 C1035 1.385 . S
C1034 C1036 1.478 . S
C1035 H1029 0.930 . S
C1035 C1031 1.400 . S
C1035 C1034 1.385 . S
C1036 C1034 1.478 . S
C1036 C1038 1.381 . S
C1036 C1042 1.383 . S
C1037 C1033 1.495 . S
C1037 H1043 0.959 . S
C1037 H1044 0.961 . S
C1037 H1045 0.960 . S
C1038 C1036 1.381 . S
C1038 C1039 1.394 . S
C1038 H1046 0.930 . S
C1039 C1038 1.394 . S
C1039 C1040 1.383 . S
C1039 H1047 0.929 . S
C1040 C1039 1.383 . S
C1040 C1041 1.377 . S
C1041 H1025 0.930 . S
C1041 C1040 1.377 . S
C1041 C1042 1.379 . S
C1042 H1026 0.931 . S
C1042 C1036 1.383 . S
C1042 C1041 1.379 . S
H1043 C1037 0.959 . S
H1044 C1037 0.961 . S
H1045 C1037 0.960 . S
H1046 C1038 0.930 . S
H1047 C1039 0.929 . S
H1048 C1056 0.929 . S
H1049 C1058 0.930 . S
H1050 C1060 0.930 . S
H1051 C1063 0.929 . S
H1052 C1066 0.930 . S
H1053 C1068 0.960 . S
H1054 C1068 0.960 . S
H1055 C1068 0.960 . S
C1056 H1048 0.929 . S
C1056 C1057 1.377 . S
C1056 C1058 1.384 . S
C1057 C1056 1.377 . S
C1057 C1063 1.390 . S
C1058 H1049 0.930 . S
C1058 C1056 1.384 . S
C1058 C1059 1.372 . S
C1059 C1058 1.372 . S
C1059 C1060 1.400 . S
C1059 C1064 1.490 . S
C1060 H1050 0.930 . S
C1060 C1059 1.400 . S
C1060 C1063 1.386 . S
H1061 C1077 0.930 . S
H1062 C1078 0.931 . S
C1063 H1051 0.929 . S
C1063 C1057 1.390 . S
C1063 C1060 1.386 . S
C1064 C1059 1.490 . S
C1064 C1066 1.395 . S
C1064 C1067 1.403 . S
H1065 C1071 0.930 . S
C1066 H1052 0.930 . S
C1066 C1064 1.395 . S
C1066 C1069 1.403 . S
C1067 C1064 1.403 . S
C1067 C1068 1.524 . S
C1067 C1071 1.400 . S
C1068 H1053 0.960 . S
C1068 H1054 0.960 . S
C1068 H1055 0.960 . S
C1068 C1067 1.524 . S
C1069 C1066 1.403 . S
C1069 C1070 1.392 . S
C1069 C1073 1.495 . S
C1070 C1069 1.392 . S
C1070 C1071 1.385 . S
C1070 C1072 1.478 . S
C1071 H1065 0.930 . S
C1071 C1067 1.400 . S
C1071 C1070 1.385 . S
C1072 C1070 1.478 . S
C1072 C1074 1.381 . S
C1072 C1078 1.383 . S
C1073 C1069 1.495 . S
C1073 H1079 0.959 . S
C1073 H1080 0.961 . S
C1073 H1081 0.960 . S
C1074 C1072 1.381 . S
C1074 C1075 1.394 . S
C1074 H1082 0.930 . S
C1075 C1074 1.394 . S
C1075 C1076 1.383 . S
C1075 H1083 0.929 . S
C1076 C1075 1.383 . S
C1076 C1077 1.377 . S
C1077 H1061 0.930 . S
C1077 C1076 1.377 . S
C1077 C1078 1.379 . S
C1078 H1062 0.931 . S
C1078 C1072 1.383 . S
C1078 C1077 1.379 . S
H1079 C1073 0.959 . S
H1080 C1073 0.961 . S
H1081 C1073 0.960 . S
H1082 C1074 0.930 . S
H1083 C1075 0.929 . S
H1084 C1092 0.929 . S
H1085 C1094 0.930 . S
H1086 C1096 0.930 . S
H1087 C1099 0.929 . S
H1088 C1102 0.930 . S
H1089 C1104 0.960 . S
H1090 C1104 0.960 . S
H1091 C1104 0.960 . S
C1092 H1084 0.929 . S
C1092 C1093 1.377 . S
C1092 C1094 1.384 . S
C1093 C1092 1.377 . S
C1093 C1099 1.390 . S
C1094 H1085 0.930 . S
C1094 C1092 1.384 . S
C1094 C1095 1.372 . S
C1095 C1094 1.372 . S
C1095 C1096 1.400 . S
C1095 C1100 1.490 . S
C1096 H1086 0.930 . S
C1096 C1095 1.400 . S
C1096 C1099 1.386 . S
H1097 C1113 0.930 . S
H1098 C1114 0.931 . S
C1099 H1087 0.929 . S
C1099 C1093 1.390 . S
C1099 C1096 1.386 . S
C1100 C1095 1.490 . S
C1100 C1102 1.395 . S
C1100 C1103 1.403 . S
H1101 C1107 0.930 . S
C1102 H1088 0.930 . S
C1102 C1100 1.395 . S
C1102 C1105 1.403 . S
C1103 C1100 1.403 . S
C1103 C1104 1.524 . S
C1103 C1107 1.400 . S
C1104 H1089 0.960 . S
C1104 H1090 0.960 . S
C1104 H1091 0.960 . S
C1104 C1103 1.524 . S
C1105 C1102 1.403 . S
C1105 C1106 1.392 . S
C1105 C1109 1.495 . S
C1106 C1105 1.392 . S
C1106 C1107 1.385 . S
C1106 C1108 1.478 . S
C1107 H1101 0.930 . S
C1107 C1103 1.400 . S
C1107 C1106 1.385 . S
C1108 C1106 1.478 . S
C1108 C1110 1.381 . S
C1108 C1114 1.383 . S
C1109 C1105 1.495 . S
C1109 H1115 0.959 . S
C1109 H1116 0.961 . S
C1109 H1117 0.960 . S
C1110 C1108 1.381 . S
C1110 C1111 1.394 . S
C1110 H1118 0.930 . S
C1111 C1110 1.394 . S
C1111 C1112 1.383 . S
C1111 H1119 0.929 . S
C1112 C1111 1.383 . S
C1112 C1113 1.377 . S
C1113 H1097 0.930 . S
C1113 C1112 1.377 . S
C1113 C1114 1.379 . S
C1114 H1098 0.931 . S
C1114 C1108 1.383 . S
C1114 C1113 1.379 . S
H1115 C1109 0.959 . S
H1116 C1109 0.961 . S
H1117 C1109 0.960 . S
H1118 C1110 0.930 . S
H1119 C1111 0.929 . S
H1120 C1128 0.929 . S
H1121 C1130 0.930 . S
H1122 C1132 0.930 . S
H1123 C1135 0.929 . S
H1124 C1138 0.930 . S
H1125 C1140 0.960 . S
H1126 C1140 0.960 . S
H1127 C1140 0.960 . S
C1128 H1120 0.929 . S
C1128 C1129 1.377 . S
C1128 C1130 1.384 . S
C1129 C1128 1.377 . S
C1129 C1135 1.390 . S
C1130 H1121 0.930 . S
C1130 C1128 1.384 . S
C1130 C1131 1.372 . S
C1131 C1130 1.372 . S
C1131 C1132 1.400 . S
C1131 C1136 1.490 . S
C1132 H1122 0.930 . S
C1132 C1131 1.400 . S
C1132 C1135 1.386 . S
H1133 C1149 0.930 . S
H1134 C1150 0.931 . S
C1135 H1123 0.929 . S
C1135 C1129 1.390 . S
C1135 C1132 1.386 . S
C1136 C1131 1.490 . S
C1136 C1138 1.395 1_545 S
C1136 C1139 1.403 1_554 S
H1137 C1143 0.929 1_545 S
C1138 H1124 0.930 . S
C1138 C1136 1.395 1_565 S
C1138 C1141 1.403 . S
C1139 C1136 1.403 1_556 S
C1139 C1140 1.524 . S
C1139 C1143 1.371 1_545 S
C1140 H1125 0.960 . S
C1140 H1126 0.960 . S
C1140 H1127 0.960 . S
C1140 C1139 1.524 . S
C1141 C1138 1.403 . S
C1141 C1142 1.392 1_554 S
C1141 C1145 1.495 . S
C1142 C1141 1.392 1_556 S
C1142 C1143 1.416 . S
C1142 C1144 1.478 . S
C1143 H1137 0.929 1_565 S
C1143 C1139 1.371 1_565 S
C1143 C1142 1.416 . S
C1144 C1142 1.478 . S
C1144 C1146 1.381 . S
C1144 C1150 1.383 . S
C1145 C1141 1.495 . S
C1145 H1151 0.959 . S
C1145 H1152 0.961 . S
C1145 H1153 0.960 . S
C1146 C1144 1.381 . S
C1146 C1147 1.394 . S
C1146 H1154 0.930 . S
C1147 C1146 1.394 . S
C1147 C1148 1.383 . S
C1147 H1155 0.929 . S
C1148 C1147 1.383 . S
C1148 C1149 1.377 . S
C1149 H1133 0.930 . S
C1149 C1148 1.377 . S
C1149 C1150 1.379 . S
C1150 H1134 0.931 . S
C1150 C1144 1.383 . S
C1150 C1149 1.379 . S
H1151 C1145 0.959 . S
H1152 C1145 0.961 . S
H1153 C1145 0.960 . S
H1154 C1146 0.930 . S
H1155 C1147 0.929 . S
H1156 C1164 0.929 . S
H1157 C1166 0.930 . S
H1158 C1168 0.930 . S
H1159 C1171 0.929 . S
H1160 C1174 0.930 . S
H1161 C1176 0.960 . S
H1162 C1176 0.960 . S
H1163 C1176 0.960 . S
C1164 H1156 0.929 . S
C1164 C1165 1.377 . S
C1164 C1166 1.384 . S
C1165 C1164 1.377 . S
C1165 C1171 1.390 . S
C1166 H1157 0.930 . S
C1166 C1164 1.384 . S
C1166 C1167 1.372 . S
C1167 C1166 1.372 . S
C1167 C1168 1.400 . S
C1167 C1172 1.490 . S
C1168 H1158 0.930 . S
C1168 C1167 1.400 . S
C1168 C1171 1.386 . S
H1169 C1185 0.930 . S
H1170 C1186 0.931 . S
C1171 H1159 0.929 . S
C1171 C1165 1.390 . S
C1171 C1168 1.386 . S
C1172 C1167 1.490 . S
C1172 C1174 1.395 . S
C1172 C1175 1.403 . S
H1173 C1179 0.930 . S
C1174 H1160 0.930 . S
C1174 C1172 1.395 . S
C1174 C1177 1.403 . S
C1175 C1172 1.403 . S
C1175 C1176 1.524 . S
C1175 C1179 1.400 . S
C1176 H1161 0.960 . S
C1176 H1162 0.960 . S
C1176 H1163 0.960 . S
C1176 C1175 1.524 . S
C1177 C1174 1.403 . S
C1177 C1178 1.392 . S
C1177 C1181 1.495 . S
C1178 C1177 1.392 . S
C1178 C1179 1.385 . S
C1178 C1180 1.478 . S
C1179 H1173 0.930 . S
C1179 C1175 1.400 . S
C1179 C1178 1.385 . S
C1180 C1178 1.478 . S
C1180 C1182 1.381 . S
C1180 C1186 1.383 . S
C1181 C1177 1.495 . S
C1181 H1187 0.959 . S
C1181 H1188 0.961 . S
C1181 H1189 0.960 . S
C1182 C1180 1.381 . S
C1182 C1183 1.394 . S
C1182 H1190 0.930 . S
C1183 C1182 1.394 . S
C1183 C1184 1.383 . S
C1183 H1191 0.929 . S
C1184 C1183 1.383 . S
C1184 C1185 1.377 . S
C1185 H1169 0.930 . S
C1185 C1184 1.377 . S
C1185 C1186 1.379 . S
C1186 H1170 0.931 . S
C1186 C1180 1.383 . S
C1186 C1185 1.379 . S
H1187 C1181 0.959 . S
H1188 C1181 0.961 . S
H1189 C1181 0.960 . S
H1190 C1182 0.930 . S
H1191 C1183 0.929 . S
H1192 C1200 0.929 . S
H1193 C1202 0.930 . S
H1194 C1204 0.930 . S
H1195 C1207 0.929 . S
H1196 C1210 0.930 . S
H1197 C1212 0.960 . S
H1198 C1212 0.960 . S
H1199 C1212 0.960 . S
C1200 H1192 0.929 . S
C1200 C1201 1.377 . S
C1200 C1202 1.384 . S
C1201 C1200 1.377 . S
C1201 C1207 1.390 . S
C1202 H1193 0.930 . S
C1202 C1200 1.384 . S
C1202 C1203 1.372 . S
C1203 C1202 1.372 . S
C1203 C1204 1.400 . S
C1203 C1208 1.490 . S
C1204 H1194 0.930 . S
C1204 C1203 1.400 . S
C1204 C1207 1.386 . S
H1205 C1221 0.930 . S
H1206 C1222 0.931 . S
C1207 H1195 0.929 . S
C1207 C1201 1.390 . S
C1207 C1204 1.386 . S
C1208 C1203 1.490 . S
C1208 C1210 1.395 . S
C1208 C1211 1.403 . S
H1209 C1215 0.930 . S
C1210 H1196 0.930 . S
C1210 C1208 1.395 . S
C1210 C1213 1.403 1_545 S
C1211 C1208 1.403 . S
C1211 C1212 1.524 . S
C1211 C1215 1.400 1_545 S
C1212 H1197 0.960 . S
C1212 H1198 0.960 . S
C1212 H1199 0.960 . S
C1212 C1211 1.524 . S
C1213 C1210 1.403 1_565 S
C1213 C1214 1.392 . S
C1213 C1217 1.495 . S
C1214 C1213 1.392 . S
C1214 C1215 1.385 . S
C1214 C1216 1.478 . S
C1215 H1209 0.930 . S
C1215 C1211 1.400 1_565 S
C1215 C1214 1.385 . S
C1216 C1214 1.478 . S
C1216 C1218 1.381 . S
C1216 C1222 1.383 . S
C1217 C1213 1.495 . S
C1217 H1223 0.959 . S
C1217 H1224 0.961 . S
C1217 H1225 0.960 . S
C1218 C1216 1.381 . S
C1218 C1219 1.394 . S
C1218 H1226 0.930 . S
C1219 C1218 1.394 . S
C1219 C1220 1.383 . S
C1219 H1227 0.929 . S
C1220 C1219 1.383 . S
C1220 C1221 1.377 . S
C1221 H1205 0.930 . S
C1221 C1220 1.377 . S
C1221 C1222 1.379 . S
C1222 H1206 0.931 . S
C1222 C1216 1.383 . S
C1222 C1221 1.379 . S
H1223 C1217 0.959 . S
H1224 C1217 0.961 . S
H1225 C1217 0.960 . S
H1226 C1218 0.930 . S
H1227 C1219 0.929 . S
H1228 C1236 0.929 . S
H1229 C1238 0.930 . S
H1230 C1240 0.930 . S
H1231 C1243 0.929 . S
H1232 C1246 0.930 . S
H1233 C1248 0.960 . S
H1234 C1248 0.960 . S
H1235 C1248 0.960 . S
C1236 H1228 0.929 . S
C1236 C1237 1.377 . S
C1236 C1238 1.384 . S
C1237 C1236 1.377 . S
C1237 C1243 1.390 . S
C1238 H1229 0.930 . S
C1238 C1236 1.384 . S
C1238 C1239 1.372 . S
C1239 C1238 1.372 . S
C1239 C1240 1.400 . S
C1239 C1244 1.490 . S
C1240 H1230 0.930 . S
C1240 C1239 1.400 . S
C1240 C1243 1.386 . S
H1241 C1257 0.930 . S
H1242 C1258 0.931 . S
C1243 H1231 0.929 . S
C1243 C1237 1.390 . S
C1243 C1240 1.386 . S
C1244 C1239 1.490 . S
C1244 C1246 1.395 . S
C1244 C1247 1.403 . S
H1245 C1251 0.930 . S
C1246 H1232 0.930 . S
C1246 C1244 1.395 . S
C1246 C1249 1.403 . S
C1247 C1244 1.403 . S
C1247 C1248 1.524 . S
C1247 C1251 1.400 . S
C1248 H1233 0.960 . S
C1248 H1234 0.960 . S
C1248 H1235 0.960 . S
C1248 C1247 1.524 . S
C1249 C1246 1.403 . S
C1249 C1250 1.392 . S
C1249 C1253 1.495 . S
C1250 C1249 1.392 . S
C1250 C1251 1.385 . S
C1250 C1252 1.478 . S
C1251 H1245 0.930 . S
C1251 C1247 1.400 . S
C1251 C1250 1.385 . S
C1252 C1250 1.478 . S
C1252 C1254 1.381 . S
C1252 C1258 1.383 . S
C1253 C1249 1.495 . S
C1253 H1259 0.959 . S
C1253 H1260 0.961 . S
C1253 H1261 0.960 . S
C1254 C1252 1.381 . S
C1254 C1255 1.394 . S
C1254 H1262 0.930 . S
C1255 C1254 1.394 . S
C1255 C1256 1.383 . S
C1255 H1263 0.929 . S
C1256 C1255 1.383 . S
C1256 C1257 1.377 . S
C1257 H1241 0.930 . S
C1257 C1256 1.377 . S
C1257 C1258 1.379 . S
C1258 H1242 0.931 . S
C1258 C1252 1.383 . S
C1258 C1257 1.379 . S
H1259 C1253 0.959 . S
H1260 C1253 0.961 . S
H1261 C1253 0.960 . S
H1262 C1254 0.930 . S
H1263 C1255 0.929 . S
H1264 C1272 0.929 . S
H1265 C1274 0.930 . S
H1266 C1276 0.930 . S
H1267 C1279 0.929 . S
H1268 C1282 0.930 . S
H1269 C1284 0.960 . S
H1270 C1284 0.960 . S
H1271 C1284 0.960 . S
C1272 H1264 0.929 . S
C1272 C1273 1.377 . S
C1272 C1274 1.384 . S
C1273 C1272 1.377 . S
C1273 C1279 1.390 . S
C1274 H1265 0.930 . S
C1274 C1272 1.384 . S
C1274 C1275 1.372 . S
C1275 C1274 1.372 . S
C1275 C1276 1.400 . S
C1275 C1280 1.490 . S
C1276 H1266 0.930 . S
C1276 C1275 1.400 . S
C1276 C1279 1.386 . S
H1277 C1293 0.930 . S
H1278 C1294 0.931 . S
C1279 H1267 0.929 . S
C1279 C1273 1.390 . S
C1279 C1276 1.386 . S
C1280 C1275 1.490 . S
C1280 C1282 1.395 . S
C1280 C1283 1.403 . S
H1281 C1287 0.930 . S
C1282 H1268 0.930 . S
C1282 C1280 1.395 . S
C1282 C1285 1.403 . S
C1283 C1280 1.403 . S
C1283 C1284 1.524 . S
C1283 C1287 1.400 . S
C1284 H1269 0.960 . S
C1284 H1270 0.960 . S
C1284 H1271 0.960 . S
C1284 C1283 1.524 . S
C1285 C1282 1.403 . S
C1285 C1286 1.392 . S
C1285 C1289 1.495 . S
C1286 C1285 1.392 . S
C1286 C1287 1.385 . S
C1286 C1288 1.478 . S
C1287 H1281 0.930 . S
C1287 C1283 1.400 . S
C1287 C1286 1.385 . S
C1288 C1286 1.478 . S
C1288 C1290 1.381 . S
C1288 C1294 1.383 . S
C1289 C1285 1.495 . S
C1289 H1295 0.959 . S
C1289 H1296 0.961 . S
C1289 H1297 0.960 . S
C1290 C1288 1.381 . S
C1290 C1291 1.394 . S
C1290 H1298 0.930 . S
C1291 C1290 1.394 . S
C1291 C1292 1.383 . S
C1291 H1299 0.929 . S
C1292 C1291 1.383 . S
C1292 C1293 1.377 . S
C1293 H1277 0.930 . S
C1293 C1292 1.377 . S
C1293 C1294 1.379 . S
C1294 H1278 0.931 . S
C1294 C1288 1.383 . S
C1294 C1293 1.379 . S
H1295 C1289 0.959 . S
H1296 C1289 0.961 . S
H1297 C1289 0.960 . S
H1298 C1290 0.930 . S
H1299 C1291 0.929 . S
H1300 C1308 0.929 . S
H1301 C1310 0.930 . S
H1302 C1312 0.930 . S
H1303 C1315 0.929 . S
H1304 C1318 0.930 . S
H1305 C1320 0.960 . S
H1306 C1320 0.960 . S
H1307 C1320 0.960 . S
C1308 H1300 0.929 . S
C1308 C1309 1.377 . S
C1308 C1310 1.384 . S
C1309 C1308 1.377 . S
C1309 C1315 1.390 . S
C1310 H1301 0.930 . S
C1310 C1308 1.384 . S
C1310 C1311 1.372 . S
C1311 C1310 1.372 . S
C1311 C1312 1.400 . S
C1311 C1316 1.490 . S
C1312 H1302 0.930 . S
C1312 C1311 1.400 . S
C1312 C1315 1.386 . S
H1313 C1329 0.930 . S
H1314 C1330 0.931 . S
C1315 H1303 0.929 . S
C1315 C1309 1.390 . S
C1315 C1312 1.386 . S
C1316 C1311 1.490 . S
C1316 C1318 1.395 . S
C1316 C1319 1.403 . S
H1317 C1323 0.930 . S
C1318 H1304 0.930 . S
C1318 C1316 1.395 . S
C1318 C1321 1.403 . S
C1319 C1316 1.403 . S
C1319 C1320 1.524 . S
C1319 C1323 1.400 . S
C1320 H1305 0.960 . S
C1320 H1306 0.960 . S
C1320 H1307 0.960 . S
C1320 C1319 1.524 . S
C1321 C1318 1.403 . S
C1321 C1322 1.392 . S
C1321 C1325 1.495 . S
C1322 C1321 1.392 . S
C1322 C1323 1.385 . S
C1322 C1324 1.478 . S
C1323 H1317 0.930 . S
C1323 C1319 1.400 . S
C1323 C1322 1.385 . S
C1324 C1322 1.478 . S
C1324 C1326 1.381 . S
C1324 C1330 1.383 . S
C1325 C1321 1.495 . S
C1325 H1331 0.959 . S
C1325 H1332 0.961 . S
C1325 H1333 0.960 . S
C1326 C1324 1.381 . S
C1326 C1327 1.394 . S
C1326 H1334 0.930 . S
C1327 C1326 1.394 . S
C1327 C1328 1.383 . S
C1327 H1335 0.929 . S
C1328 C1327 1.383 . S
C1328 C1329 1.377 . S
C1329 H1313 0.930 . S
C1329 C1328 1.377 . S
C1329 C1330 1.379 . S
C1330 H1314 0.931 . S
C1330 C1324 1.383 . S
C1330 C1329 1.379 . S
H1331 C1325 0.959 . S
H1332 C1325 0.961 . S
H1333 C1325 0.960 . S
H1334 C1326 0.930 . S
H1335 C1327 0.929 . S
H1336 C1344 0.929 . S
H1337 C1346 0.930 . S
H1338 C1348 0.930 . S
H1339 C1351 0.929 . S
H1340 C1354 0.930 . S
H1341 C1356 0.960 . S
H1342 C1356 0.960 . S
H1343 C1356 0.960 . S
C1344 H1336 0.929 . S
C1344 C1345 1.377 . S
C1344 C1346 1.384 . S
C1345 C1344 1.377 . S
C1345 C1351 1.390 . S
C1346 H1337 0.930 . S
C1346 C1344 1.384 . S
C1346 C1347 1.372 . S
C1347 C1346 1.372 . S
C1347 C1348 1.400 . S
C1347 C1352 1.490 . S
C1348 H1338 0.930 . S
C1348 C1347 1.400 . S
C1348 C1351 1.386 . S
H1349 C1365 0.930 . S
H1350 C1366 0.931 . S
C1351 H1339 0.929 . S
C1351 C1345 1.390 . S
C1351 C1348 1.386 . S
C1352 C1347 1.490 . S
C1352 C1354 1.395 . S
C1352 C1355 1.403 . S
H1353 C1359 0.930 . S
C1354 H1340 0.930 . S
C1354 C1352 1.395 . S
C1354 C1357 1.403 . S
C1355 C1352 1.403 . S
C1355 C1356 1.524 . S
C1355 C1359 1.400 . S
C1356 H1341 0.960 . S
C1356 H1342 0.960 . S
C1356 H1343 0.960 . S
C1356 C1355 1.524 . S
C1357 C1354 1.403 . S
C1357 C1358 1.392 . S
C1357 C1361 1.495 . S
C1358 C1357 1.392 . S
C1358 C1359 1.385 . S
C1358 C1360 1.478 . S
C1359 H1353 0.930 . S
C1359 C1355 1.400 . S
C1359 C1358 1.385 . S
C1360 C1358 1.478 . S
C1360 C1362 1.381 . S
C1360 C1366 1.383 . S
C1361 C1357 1.495 . S
C1361 H1367 0.959 . S
C1361 H1368 0.961 . S
C1361 H1369 0.960 . S
C1362 C1360 1.381 . S
C1362 C1363 1.394 . S
C1362 H1370 0.930 . S
C1363 C1362 1.394 . S
C1363 C1364 1.383 . S
C1363 H1371 0.929 . S
C1364 C1363 1.383 . S
C1364 C1365 1.377 . S
C1365 H1349 0.930 . S
C1365 C1364 1.377 . S
C1365 C1366 1.379 . S
C1366 H1350 0.931 . S
C1366 C1360 1.383 . S
C1366 C1365 1.379 . S
H1367 C1361 0.959 . S
H1368 C1361 0.961 . S
H1369 C1361 0.960 . S
H1370 C1362 0.930 . S
H1371 C1363 0.929 . S
H1372 C1380 0.929 . S
H1373 C1382 0.930 . S
H1374 C1384 0.930 . S
H1375 C1387 0.929 . S
H1376 C1390 0.982 . S
H1377 C1392 0.960 . S
H1378 C1392 0.960 . S
H1379 C1392 0.960 . S
C1380 H1372 0.929 . S
C1380 C1381 1.377 . S
C1380 C1382 1.384 . S
C1381 C1380 1.377 . S
C1381 C1387 1.390 . S
C1382 H1373 0.930 . S
C1382 C1380 1.384 . S
C1382 C1383 1.372 . S
C1383 C1382 1.372 . S
C1383 C1384 1.400 . S
C1383 C1388 1.490 . S
C1384 H1374 0.930 . S
C1384 C1383 1.400 . S
C1384 C1387 1.386 . S
H1385 C1401 0.930 . S
H1386 C1402 0.931 . S
C1387 H1375 0.929 . S
C1387 C1381 1.390 . S
C1387 C1384 1.386 . S
C1388 C1383 1.490 . S
C1388 C1390 1.340 1_455 S
C1388 C1391 1.403 . S
H1389 C1395 0.930 . S
C1390 H1376 0.982 . S
C1390 C1388 1.340 1_655 S
C1390 C1393 1.410 1_556 S
C1391 C1388 1.403 . S
C1391 C1392 1.524 . S
C1391 C1395 1.400 1_556 S
C1392 H1377 0.960 . S
C1392 H1378 0.960 . S
C1392 H1379 0.960 . S
C1392 C1391 1.524 . S
C1393 C1390 1.410 1_554 S
C1393 C1394 1.392 1_655 S
C1393 C1397 1.495 . S
C1394 C1393 1.392 1_455 S
C1394 C1395 1.385 . S
C1394 C1396 1.478 . S
C1395 H1389 0.930 . S
C1395 C1391 1.400 1_554 S
C1395 C1394 1.385 . S
C1396 C1394 1.478 . S
C1396 C1398 1.381 . S
C1396 C1402 1.383 . S
C1397 C1393 1.495 . S
C1397 H1403 0.959 . S
C1397 H1404 0.961 . S
C1397 H1405 0.960 . S
C1398 C1396 1.381 . S
C1398 C1399 1.394 . S
C1398 H1406 0.930 . S
C1399 C1398 1.394 . S
C1399 C1400 1.383 . S
C1399 H1407 0.929 . S
C1400 C1399 1.383 . S
C1400 C1401 1.377 . S
C1401 H1385 0.930 . S
C1401 C1400 1.377 . S
C1401 C1402 1.379 . S
C1402 H1386 0.931 . S
C1402 C1396 1.383 . S
C1402 C1401 1.379 . S
H1403 C1397 0.959 . S
H1404 C1397 0.961 . S
H1405 C1397 0.960 . S
H1406 C1398 0.930 . S
H1407 C1399 0.929 . S
H1408 C1416 0.929 . S
H1409 C1418 0.930 . S
H1410 C1420 0.930 . S
H1411 C1423 0.929 . S
H1412 C1426 0.930 . S
H1413 C1428 0.960 . S
H1414 C1428 0.960 . S
H1415 C1428 0.960 . S
C1416 H1408 0.929 . S
C1416 C1417 1.377 . S
C1416 C1418 1.384 . S
C1417 C1416 1.377 . S
C1417 C1423 1.390 . S
C1418 H1409 0.930 . S
C1418 C1416 1.384 . S
C1418 C1419 1.372 . S
C1419 C1418 1.372 . S
C1419 C1420 1.400 . S
C1419 C1424 1.490 . S
C1420 H1410 0.930 . S
C1420 C1419 1.400 . S
C1420 C1423 1.386 . S
H1421 C1437 0.930 . S
H1422 C1438 0.931 . S
C1423 H1411 0.929 . S
C1423 C1417 1.390 . S
C1423 C1420 1.386 . S
C1424 C1419 1.490 . S
C1424 C1426 1.395 . S
C1424 C1427 1.403 . S
H1425 C1431 0.993 . S
C1426 H1412 0.930 . S
C1426 C1424 1.395 . S
C1426 C1429 1.403 . S
C1427 C1424 1.403 . S
C1427 C1428 1.524 1_455 S
C1427 C1431 1.400 . S
C1428 H1413 0.960 . S
C1428 H1414 0.960 . S
C1428 H1415 0.960 . S
C1428 C1427 1.524 1_655 S
C1429 C1426 1.403 . S
C1429 C1430 1.392 . S
C1429 C1433 1.495 . S
C1430 C1429 1.392 . S
C1430 C1431 1.385 . S
C1430 C1432 1.478 . S
C1431 H1425 0.993 . S
C1431 C1427 1.400 . S
C1431 C1430 1.385 . S
C1432 C1430 1.478 . S
C1432 C1434 1.381 . S
C1432 C1438 1.383 . S
C1433 C1429 1.495 . S
C1433 H1439 0.959 . S
C1433 H1440 0.961 . S
C1433 H1441 0.960 . S
C1434 C1432 1.381 . S
C1434 C1435 1.394 . S
C1434 H1442 0.930 . S
C1435 C1434 1.394 . S
C1435 C1436 1.383 . S
C1435 H1443 0.929 . S
C1436 C1435 1.383 . S
C1436 C1437 1.377 . S
C1437 H1421 0.930 . S
C1437 C1436 1.377 . S
C1437 C1438 1.379 . S
C1438 H1422 0.931 . S
C1438 C1432 1.383 . S
C1438 C1437 1.379 . S
H1439 C1433 0.959 . S
H1440 C1433 0.961 . S
H1441 C1433 0.960 . S
H1442 C1434 0.930 . S
H1443 C1435 0.929 . S
H1444 C1452 0.929 . S
H1445 C1454 0.930 . S
H1446 C1456 0.930 . S
H1447 C1459 0.929 . S
H1448 C1462 0.930 . S
H1449 C1464 0.959 . S
H1450 C1464 0.960 . S
H1451 C1464 0.960 . S
C1452 H1444 0.929 . S
C1452 C1453 1.377 . S
C1452 C1454 1.384 . S
C1453 C1452 1.377 . S
C1453 C1459 1.390 . S
C1454 H1445 0.930 . S
C1454 C1452 1.384 . S
C1454 C1455 1.372 . S
C1455 C1454 1.372 . S
C1455 C1456 1.400 . S
C1455 C1460 1.490 . S
C1456 H1446 0.930 . S
C1456 C1455 1.400 . S
C1456 C1459 1.386 . S
H1457 C1473 0.930 . S
H1458 C1474 0.931 . S
C1459 H1447 0.929 . S
C1459 C1453 1.390 . S
C1459 C1456 1.386 . S
C1460 C1455 1.490 . S
C1460 C1462 1.395 1_554 S
C1460 C1463 1.403 1_554 S
H1461 C1467 0.930 . S
C1462 H1448 0.930 . S
C1462 C1460 1.395 1_556 S
C1462 C1465 1.403 . S
C1463 C1460 1.403 1_556 S
C1463 C1464 1.524 1_556 S
C1463 C1467 1.400 . S
C1464 H1449 0.959 . S
C1464 H1450 0.960 . S
C1464 H1451 0.960 . S
C1464 C1463 1.524 1_554 S
C1465 C1462 1.403 . S
C1465 C1466 1.392 . S
C1465 C1469 1.495 . S
C1466 C1465 1.392 . S
C1466 C1467 1.385 . S
C1466 C1468 1.478 . S
C1467 H1461 0.930 . S
C1467 C1463 1.400 . S
C1467 C1466 1.385 . S
C1468 C1466 1.478 . S
C1468 C1470 1.381 . S
C1468 C1474 1.383 . S
C1469 C1465 1.495 . S
C1469 H1475 0.959 . S
C1469 H1476 0.961 . S
C1469 H1477 0.960 . S
C1470 C1468 1.381 . S
C1470 C1471 1.394 . S
C1470 H1478 0.930 . S
C1471 C1470 1.394 . S
C1471 C1472 1.383 . S
C1471 H1479 0.929 . S
C1472 C1471 1.383 . S
C1472 C1473 1.377 . S
C1473 H1457 0.930 . S
C1473 C1472 1.377 . S
C1473 C1474 1.379 . S
C1474 H1458 0.931 . S
C1474 C1468 1.383 . S
C1474 C1473 1.379 . S
H1475 C1469 0.959 . S
H1476 C1469 0.961 . S
H1477 C1469 0.960 . S
H1478 C1470 0.930 . S
H1479 C1471 0.929 . S
H1480 C1488 0.929 . S
H1481 C1490 0.930 . S
H1482 C1492 0.930 . S
H1483 C1495 0.929 . S
H1484 C1498 0.930 . S
H1485 C1500 0.960 . S
H1486 C1500 0.960 . S
H1487 C1500 0.960 . S
C1488 H1480 0.929 . S
C1488 C1489 1.377 . S
C1488 C1490 1.384 1_556 S
C1489 C1488 1.377 . S
C1489 C1495 1.390 . S
C1490 H1481 0.930 . S
C1490 C1488 1.384 1_554 S
C1490 C1491 1.372 . S
C1491 C1490 1.372 . S
C1491 C1492 1.400 . S
C1491 C1496 1.490 . S
C1492 H1482 0.930 . S
C1492 C1491 1.400 . S
C1492 C1495 1.386 1_554 S
H1493 C1509 0.930 . S
H1494 C1510 0.931 . S
C1495 H1483 0.929 . S
C1495 C1489 1.390 . S
C1495 C1492 1.386 1_556 S
C1496 C1491 1.490 . S
C1496 C1498 1.395 . S
C1496 C1499 1.403 . S
H1497 C1503 0.930 . S
C1498 H1484 0.930 . S
C1498 C1496 1.395 . S
C1498 C1501 1.403 . S
C1499 C1496 1.403 . S
C1499 C1500 1.524 . S
C1499 C1503 1.400 . S
C1500 H1485 0.960 . S
C1500 H1486 0.960 . S
C1500 H1487 0.960 . S
C1500 C1499 1.524 . S
C1501 C1498 1.403 . S
C1501 C1502 1.392 . S
C1501 C1505 1.495 . S
C1502 C1501 1.392 . S
C1502 C1503 1.385 . S
C1502 C1504 1.478 . S
C1503 H1497 0.930 . S
C1503 C1499 1.400 . S
C1503 C1502 1.385 . S
C1504 C1502 1.478 . S
C1504 C1506 1.381 . S
C1504 C1510 1.383 . S
C1505 C1501 1.495 . S
C1505 H1511 0.959 . S
C1505 H1512 0.961 . S
C1505 H1513 0.960 . S
C1506 C1504 1.381 . S
C1506 C1507 1.394 . S
C1506 H1514 0.930 . S
C1507 C1506 1.394 . S
C1507 C1508 1.383 . S
C1507 H1515 0.929 . S
C1508 C1507 1.383 . S
C1508 C1509 1.377 . S
C1509 H1493 0.930 . S
C1509 C1508 1.377 . S
C1509 C1510 1.379 . S
C1510 H1494 0.931 . S
C1510 C1504 1.383 . S
C1510 C1509 1.379 . S
H1511 C1505 0.959 . S
H1512 C1505 0.961 . S
H1513 C1505 0.960 . S
H1514 C1506 0.930 . S
H1515 C1507 0.929 . S
H1516 C1524 0.929 . S
H1517 C1526 0.930 . S
H1518 C1528 0.930 . S
H1519 C1531 0.929 . S
H1520 C1534 0.930 . S
H1521 C1536 0.960 . S
H1522 C1536 0.960 . S
H1523 C1536 0.960 . S
C1524 H1516 0.929 . S
C1524 C1525 1.377 . S
C1524 C1526 1.384 . S
C1525 C1524 1.377 . S
C1525 C1531 1.390 . S
C1526 H1517 0.930 . S
C1526 C1524 1.384 . S
C1526 C1527 1.372 . S
C1527 C1526 1.372 . S
C1527 C1528 1.400 . S
C1527 C1532 1.490 . S
C1528 H1518 0.930 . S
C1528 C1527 1.400 . S
C1528 C1531 1.386 . S
H1529 C1545 0.930 . S
H1530 C1546 0.931 . S
C1531 H1519 0.929 . S
C1531 C1525 1.390 . S
C1531 C1528 1.386 . S
C1532 C1527 1.490 . S
C1532 C1534 1.395 . S
C1532 C1535 1.403 . S
H1533 C1539 0.930 . S
C1534 H1520 0.930 . S
C1534 C1532 1.395 . S
C1534 C1537 1.403 . S
C1535 C1532 1.403 . S
C1535 C1536 1.524 . S
C1535 C1539 1.400 . S
C1536 H1521 0.960 . S
C1536 H1522 0.960 . S
C1536 H1523 0.960 . S
C1536 C1535 1.524 . S
C1537 C1534 1.403 . S
C1537 C1538 1.392 . S
C1537 C1541 1.495 . S
C1538 C1537 1.392 . S
C1538 C1539 1.385 . S
C1538 C1540 1.478 . S
C1539 H1533 0.930 . S
C1539 C1535 1.400 . S
C1539 C1538 1.385 . S
C1540 C1538 1.478 . S
C1540 C1542 1.381 . S
C1540 C1546 1.383 . S
C1541 C1537 1.495 . S
C1541 H1547 0.959 . S
C1541 H1548 0.961 . S
C1541 H1549 0.960 . S
C1542 C1540 1.381 . S
C1542 C1543 1.394 . S
C1542 H1550 0.930 . S
C1543 C1542 1.394 . S
C1543 C1544 1.383 . S
C1543 H1551 0.929 . S
C1544 C1543 1.383 . S
C1544 C1545 1.377 . S
C1545 H1529 0.930 . S
C1545 C1544 1.377 . S
C1545 C1546 1.379 . S
C1546 H1530 0.931 . S
C1546 C1540 1.383 . S
C1546 C1545 1.379 . S
H1547 C1541 0.959 . S
H1548 C1541 0.961 . S
H1549 C1541 0.960 . S
H1550 C1542 0.930 . S
H1551 C1543 0.929 . S
H1552 C1560 0.865 1_655 S
H1553 C1562 0.930 1_655 S
H1554 C1564 0.930 . S
H1555 C1567 0.929 . S
H1556 C1570 0.930 . S
H1557 C1572 0.960 . S
H1558 C1572 0.960 . S
H1559 C1572 0.960 . S
C1560 H1552 0.865 1_455 S
C1560 C1561 1.377 . S
C1560 C1562 1.384 . S
C1561 C1560 1.377 . S
C1561 C1567 1.390 . S
C1562 H1553 0.930 1_455 S
C1562 C1560 1.384 . S
C1562 C1563 1.372 . S
C1563 C1562 1.372 . S
C1563 C1564 1.400 . S
C1563 C1568 1.490 . S
C1564 H1554 0.930 . S
C1564 C1563 1.400 . S
C1564 C1567 1.386 . S
H1565 C1581 0.930 . S
H1566 C1582 0.931 . S
C1567 H1555 0.929 . S
C1567 C1561 1.390 . S
C1567 C1564 1.386 . S
C1568 C1563 1.490 . S
C1568 C1570 1.395 . S
C1568 C1571 1.403 . S
H1569 C1575 0.930 . S
C1570 H1556 0.930 . S
C1570 C1568 1.395 . S
C1570 C1573 1.403 . S
C1571 C1568 1.403 . S
C1571 C1572 1.524 . S
C1571 C1575 1.400 . S
C1572 H1557 0.960 . S
C1572 H1558 0.960 . S
C1572 H1559 0.960 . S
C1572 C1571 1.524 . S
C1573 C1570 1.403 . S
C1573 C1574 1.392 . S
C1573 C1577 1.495 . S
C1574 C1573 1.392 . S
C1574 C1575 1.385 . S
C1574 C1576 1.478 . S
C1575 H1569 0.930 . S
C1575 C1571 1.400 . S
C1575 C1574 1.385 . S
C1576 C1574 1.478 . S
C1576 C1578 1.381 . S
C1576 C1582 1.383 . S
C1577 C1573 1.495 . S
C1577 H1583 0.959 . S
C1577 H1584 0.961 . S
C1577 H1585 0.960 1_455 S
C1578 C1576 1.381 . S
C1578 C1579 1.394 . S
C1578 H1586 0.930 1_455 S
C1579 C1578 1.394 . S
C1579 C1580 1.383 . S
C1579 H1587 0.929 1_455 S
C1580 C1579 1.383 . S
C1580 C1581 1.377 . S
C1581 H1565 0.930 . S
C1581 C1580 1.377 . S
C1581 C1582 1.379 . S
C1582 H1566 0.931 . S
C1582 C1576 1.383 . S
C1582 C1581 1.379 . S
H1583 C1577 0.959 . S
H1584 C1577 0.961 . S
H1585 C1577 0.960 1_655 S
H1586 C1578 0.930 1_655 S
H1587 C1579 0.929 1_655 S
H1588 C1596 0.929 . S
H1589 C1598 0.930 . S
H1590 C1600 0.930 . S
H1591 C1603 0.929 . S
H1592 C1606 0.930 . S
H1593 C1608 0.960 . S
H1594 C1608 0.960 . S
H1595 C1608 0.960 . S
C1596 H1588 0.929 . S
C1596 C1597 1.377 . S
C1596 C1598 1.384 . S
C1597 C1596 1.377 . S
C1597 C1603 1.390 . S
C1598 H1589 0.930 . S
C1598 C1596 1.384 . S
C1598 C1599 1.372 . S
C1599 C1598 1.372 . S
C1599 C1600 1.400 . S
C1599 C1604 1.490 . S
C1600 H1590 0.930 . S
C1600 C1599 1.400 . S
C1600 C1603 1.386 . S
H1601 C1617 0.930 . S
H1602 C1618 0.931 . S
C1603 H1591 0.929 . S
C1603 C1597 1.390 . S
C1603 C1600 1.386 . S
C1604 C1599 1.490 . S
C1604 C1606 1.395 . S
C1604 C1607 1.403 . S
H1605 C1611 0.930 . S
C1606 H1592 0.930 . S
C1606 C1604 1.395 . S
C1606 C1609 1.403 . S
C1607 C1604 1.403 . S
C1607 C1608 1.524 . S
C1607 C1611 1.400 . S
C1608 H1593 0.960 . S
C1608 H1594 0.960 . S
C1608 H1595 0.960 . S
C1608 C1607 1.524 . S
C1609 C1606 1.403 . S
C1609 C1610 1.392 . S
C1609 C1613 1.495 . S
C1610 C1609 1.392 . S
C1610 C1611 1.385 . S
C1610 C1612 1.478 . S
C1611 H1605 0.930 . S
C1611 C1607 1.400 . S
C1611 C1610 1.385 . S
C1612 C1610 1.478 . S
C1612 C1614 1.381 . S
C1612 C1618 1.383 . S
C1613 C1609 1.495 . S
C1613 H1619 0.959 . S
C1613 H1620 0.961 . S
C1613 H1621 0.960 . S
C1614 C1612 1.381 . S
C1614 C1615 1.394 . S
C1614 H1622 0.930 . S
C1615 C1614 1.394 . S
C1615 C1616 1.383 . S
C1615 H1623 0.929 . S
C1616 C1615 1.383 . S
C1616 C1617 1.377 . S
C1617 H1601 0.930 . S
C1617 C1616 1.377 . S
C1617 C1618 1.379 . S
C1618 H1602 0.931 . S
C1618 C1612 1.383 . S
C1618 C1617 1.379 . S
H1619 C1613 0.959 . S
H1620 C1613 0.961 . S
H1621 C1613 0.960 . S
H1622 C1614 0.930 . S
H1623 C1615 0.929 . S
H1624 C1632 0.929 . S
H1625 C1634 0.930 . S
H1626 C1636 0.930 . S
H1627 C1639 0.929 . S
H1628 C1642 0.930 . S
H1629 C1644 0.960 . S
H1630 C1644 0.960 . S
H1631 C1644 0.960 . S
C1632 H1624 0.929 . S
C1632 C1633 1.377 . S
C1632 C1634 1.384 . S
C1633 C1632 1.377 . S
C1633 C1639 1.390 . S
C1634 H1625 0.930 . S
C1634 C1632 1.384 . S
C1634 C1635 1.372 . S
C1635 C1634 1.372 . S
C1635 C1636 1.400 . S
C1635 C1640 1.490 . S
C1636 H1626 0.930 . S
C1636 C1635 1.400 . S
C1636 C1639 1.386 . S
H1637 C1653 0.930 . S
H1638 C1654 0.931 . S
C1639 H1627 0.929 . S
C1639 C1633 1.390 . S
C1639 C1636 1.386 . S
C1640 C1635 1.490 . S
C1640 C1642 1.395 . S
C1640 C1643 1.403 . S
H1641 C1647 0.930 . S
C1642 H1628 0.930 . S
C1642 C1640 1.395 . S
C1642 C1645 1.403 . S
C1643 C1640 1.403 . S
C1643 C1644 1.524 . S
C1643 C1647 1.400 . S
C1644 H1629 0.960 . S
C1644 H1630 0.960 . S
C1644 H1631 0.960 . S
C1644 C1643 1.524 . S
C1645 C1642 1.403 . S
C1645 C1646 1.392 . S
C1645 C1649 1.495 . S
C1646 C1645 1.392 . S
C1646 C1647 1.385 . S
C1646 C1648 1.478 . S
C1647 H1641 0.930 . S
C1647 C1643 1.400 . S
C1647 C1646 1.385 . S
C1648 C1646 1.478 . S
C1648 C1650 1.381 . S
C1648 C1654 1.383 . S
C1649 C1645 1.495 . S
C1649 H1655 0.959 . S
C1649 H1656 0.961 . S
C1649 H1657 0.960 . S
C1650 C1648 1.381 . S
C1650 C1651 1.394 1_556 S
C1650 H1658 0.930 . S
C1651 C1650 1.394 1_554 S
C1651 C1652 1.383 . S
C1651 H1659 0.929 . S
C1652 C1651 1.383 . S
C1652 C1653 1.377 . S
C1653 H1637 0.930 . S
C1653 C1652 1.377 . S
C1653 C1654 1.379 1_554 S
C1654 H1638 0.931 . S
C1654 C1648 1.383 . S
C1654 C1653 1.379 1_556 S
H1655 C1649 0.959 . S
H1656 C1649 0.961 . S
H1657 C1649 0.960 . S
H1658 C1650 0.930 . S
H1659 C1651 0.929 . S
H1660 C1668 0.929 . S
H1661 C1670 0.930 . S
H1662 C1672 0.930 . S
H1663 C1675 0.929 . S
H1664 C1678 0.918 1_556 S
H1665 C1680 0.960 . S
H1666 C1680 0.960 1_556 S
H1667 C1680 0.960 1_556 S
C1668 H1660 0.929 . S
C1668 C1669 1.377 . S
C1668 C1670 1.384 . S
C1669 C1668 1.377 . S
C1669 C1675 1.390 . S
C1670 H1661 0.930 . S
C1670 C1668 1.384 . S
C1670 C1671 1.372 . S
C1671 C1670 1.372 . S
C1671 C1672 1.400 . S
C1671 C1676 1.490 . S
C1672 H1662 0.930 . S
C1672 C1671 1.400 . S
C1672 C1675 1.386 . S
H1673 C1689 0.930 . S
H1674 C1690 0.931 . S
C1675 H1663 0.929 . S
C1675 C1669 1.390 . S
C1675 C1672 1.386 . S
C1676 C1671 1.490 . S
C1676 C1678 1.390 1_556 S
C1676 C1679 1.403 1_556 S
H1677 C1683 0.930 . S
C1678 H1664 0.918 1_554 S
C1678 C1676 1.390 1_554 S
C1678 C1681 1.419 . S
C1679 C1676 1.403 1_554 S
C1679 C1680 1.524 . S
C1679 C1683 1.400 . S
C1680 H1665 0.960 . S
C1680 H1666 0.960 1_554 S
C1680 H1667 0.960 1_554 S
C1680 C1679 1.524 . S
C1681 C1678 1.419 . S
C1681 C1682 1.392 . S
C1681 C1685 1.495 . S
C1682 C1681 1.392 . S
C1682 C1683 1.385 . S
C1682 C1684 1.478 . S
C1683 H1677 0.930 . S
C1683 C1679 1.400 . S
C1683 C1682 1.385 . S
C1684 C1682 1.478 . S
C1684 C1686 1.381 . S
C1684 C1690 1.383 . S
C1685 C1681 1.495 . S
C1685 H1691 0.959 . S
C1685 H1692 0.961 . S
C1685 H1693 0.960 . S
C1686 C1684 1.381 . S
C1686 C1687 1.394 . S
C1686 H1694 0.930 . S
C1687 C1686 1.394 . S
C1687 C1688 1.383 . S
C1687 H1695 0.929 . S
C1688 C1687 1.383 . S
C1688 C1689 1.377 . S
C1689 H1673 0.930 . S
C1689 C1688 1.377 . S
C1689 C1690 1.379 . S
C1690 H1674 0.931 . S
C1690 C1684 1.383 . S
C1690 C1689 1.379 . S
H1691 C1685 0.959 . S
H1692 C1685 0.961 . S
H1693 C1685 0.960 . S
H1694 C1686 0.930 . S
H1695 C1687 0.929 . S
H1696 C1704 0.929 . S
H1697 C1706 0.930 . S
H1698 C1708 0.930 . S
H1699 C1711 0.929 . S
H1700 C1714 0.930 . S
H1701 C1716 0.960 . S
H1702 C1716 0.960 . S
H1703 C1716 0.960 . S
C1704 H1696 0.929 . S
C1704 C1705 1.377 . S
C1704 C1706 1.384 . S
C1705 C1704 1.377 . S
C1705 C1711 1.390 . S
C1706 H1697 0.930 . S
C1706 C1704 1.384 . S
C1706 C1707 1.372 . S
C1707 C1706 1.372 . S
C1707 C1708 1.400 . S
C1707 C1712 1.490 . S
C1708 H1698 0.930 . S
C1708 C1707 1.400 . S
C1708 C1711 1.386 . S
H1709 C1725 0.930 . S
H1710 C1726 0.931 . S
C1711 H1699 0.929 . S
C1711 C1705 1.390 . S
C1711 C1708 1.386 . S
C1712 C1707 1.490 . S
C1712 C1714 1.395 . S
C1712 C1715 1.403 . S
H1713 C1719 0.927 1_556 S
C1714 H1700 0.930 . S
C1714 C1712 1.395 . S
C1714 C1717 1.403 . S
C1715 C1712 1.403 . S
C1715 C1716 1.524 . S
C1715 C1719 1.400 . S
C1716 H1701 0.960 . S
C1716 H1702 0.960 . S
C1716 H1703 0.960 . S
C1716 C1715 1.524 . S
C1717 C1714 1.403 . S
C1717 C1718 1.392 1_554 S
C1717 C1721 1.495 1_554 S
C1718 C1717 1.392 1_556 S
C1718 C1719 1.385 1_556 S
C1718 C1720 1.478 . S
C1719 H1713 0.927 1_554 S
C1719 C1715 1.400 . S
C1719 C1718 1.385 1_554 S
C1720 C1718 1.478 . S
C1720 C1722 1.381 . S
C1720 C1726 1.383 . S
C1721 C1717 1.495 1_556 S
C1721 H1727 0.959 . S
C1721 H1728 0.961 . S
C1721 H1729 0.960 . S
C1722 C1720 1.381 . S
C1722 C1723 1.394 . S
C1722 H1730 0.930 . S
C1723 C1722 1.394 . S
C1723 C1724 1.383 . S
C1723 H1731 0.929 . S
C1724 C1723 1.383 . S
C1724 C1725 1.377 . S
C1725 H1709 0.930 . S
C1725 C1724 1.377 . S
C1725 C1726 1.379 . S
C1726 H1710 0.931 . S
C1726 C1720 1.383 . S
C1726 C1725 1.379 . S
H1727 C1721 0.959 . S
H1728 C1721 0.961 . S
H1729 C1721 0.960 . S
H1730 C1722 0.930 . S
H1731 C1723 0.929 . S
H1732 C1740 0.929 . S
H1733 C1742 0.930 . S
H1734 C1744 0.930 . S
H1735 C1747 0.929 . S
H1736 C1750 0.930 . S
H1737 C1752 0.960 . S
H1738 C1752 0.960 . S
H1739 C1752 0.960 . S
C1740 H1732 0.929 . S
C1740 C1741 1.377 . S
C1740 C1742 1.384 . S
C1741 C1740 1.377 . S
C1741 C1747 1.390 . S
C1742 H1733 0.930 . S
C1742 C1740 1.384 . S
C1742 C1743 1.372 . S
C1743 C1742 1.372 . S
C1743 C1744 1.400 . S
C1743 C1748 1.490 . S
C1744 H1734 0.930 . S
C1744 C1743 1.400 . S
C1744 C1747 1.386 . S
H1745 C1761 0.930 . S
H1746 C1762 0.931 . S
C1747 H1735 0.929 . S
C1747 C1741 1.390 . S
C1747 C1744 1.386 . S
C1748 C1743 1.490 . S
C1748 C1750 1.395 . S
C1748 C1751 1.403 . S
H1749 C1755 0.930 . S
C1750 H1736 0.930 . S
C1750 C1748 1.395 . S
C1750 C1753 1.403 . S
C1751 C1748 1.403 . S
C1751 C1752 1.524 . S
C1751 C1755 1.400 . S
C1752 H1737 0.960 . S
C1752 H1738 0.960 . S
C1752 H1739 0.960 . S
C1752 C1751 1.524 . S
C1753 C1750 1.403 . S
C1753 C1754 1.392 . S
C1753 C1757 1.495 . S
C1754 C1753 1.392 . S
C1754 C1755 1.385 . S
C1754 C1756 1.478 . S
C1755 H1749 0.930 . S
C1755 C1751 1.400 . S
C1755 C1754 1.385 . S
C1756 C1754 1.478 . S
C1756 C1758 1.381 . S
C1756 C1762 1.383 . S
C1757 C1753 1.495 . S
C1757 H1763 0.959 . S
C1757 H1764 0.961 . S
C1757 H1765 0.960 . S
C1758 C1756 1.381 . S
C1758 C1759 1.394 . S
C1758 H1766 0.930 . S
C1759 C1758 1.394 . S
C1759 C1760 1.383 . S
C1759 H1767 0.929 . S
C1760 C1759 1.383 . S
C1760 C1761 1.377 . S
C1761 H1745 0.930 . S
C1761 C1760 1.377 . S
C1761 C1762 1.379 . S
C1762 H1746 0.931 . S
C1762 C1756 1.383 . S
C1762 C1761 1.379 . S
H1763 C1757 0.959 . S
H1764 C1757 0.961 . S
H1765 C1757 0.960 . S
H1766 C1758 0.930 . S
H1767 C1759 0.929 . S
H1768 C1776 0.929 . S
H1769 C1778 0.930 . S
H1770 C1780 0.930 . S
H1771 C1783 0.929 . S
H1772 C1786 0.930 . S
H1773 C1788 0.960 . S
H1774 C1788 0.960 . S
H1775 C1788 0.960 . S
C1776 H1768 0.929 . S
C1776 C1777 1.377 . S
C1776 C1778 1.384 . S
C1777 C1776 1.377 . S
C1777 C1783 1.390 . S
C1778 H1769 0.930 . S
C1778 C1776 1.384 . S
C1778 C1779 1.372 . S
C1779 C1778 1.372 . S
C1779 C1780 1.400 . S
C1779 C1784 1.490 . S
C1780 H1770 0.930 . S
C1780 C1779 1.400 . S
C1780 C1783 1.386 . S
H1781 C1797 0.930 . S
H1782 C1798 0.931 . S
C1783 H1771 0.929 . S
C1783 C1777 1.390 . S
C1783 C1780 1.386 . S
C1784 C1779 1.490 . S
C1784 C1786 1.395 . S
C1784 C1787 1.403 . S
H1785 C1791 0.930 . S
C1786 H1772 0.930 . S
C1786 C1784 1.395 . S
C1786 C1789 1.403 . S
C1787 C1784 1.403 . S
C1787 C1788 1.524 . S
C1787 C1791 1.400 . S
C1788 H1773 0.960 . S
C1788 H1774 0.960 . S
C1788 H1775 0.960 . S
C1788 C1787 1.524 . S
C1789 C1786 1.403 . S
C1789 C1790 1.392 . S
C1789 C1793 1.495 . S
C1790 C1789 1.392 . S
C1790 C1791 1.385 . S
C1790 C1792 1.478 . S
C1791 H1785 0.930 . S
C1791 C1787 1.400 . S
C1791 C1790 1.385 . S
C1792 C1790 1.478 . S
C1792 C1794 1.381 . S
C1792 C1798 1.383 . S
C1793 C1789 1.495 . S
C1793 H1799 0.959 . S
C1793 H1800 0.961 . S
C1793 H1801 0.960 . S
C1794 C1792 1.381 . S
C1794 C1795 1.394 . S
C1794 H1802 0.930 . S
C1795 C1794 1.394 . S
C1795 C1796 1.383 . S
C1795 H1803 0.929 . S
C1796 C1795 1.383 . S
C1796 C1797 1.377 . S
C1797 H1781 0.930 . S
C1797 C1796 1.377 . S
C1797 C1798 1.379 . S
C1798 H1782 0.931 . S
C1798 C1792 1.383 . S
C1798 C1797 1.379 . S
H1799 C1793 0.959 . S
H1800 C1793 0.961 . S
H1801 C1793 0.960 . S
H1802 C1794 0.930 . S
H1803 C1795 0.929 . S
H1804 C1812 0.929 . S
H1805 C1814 0.930 . S
H1806 C1816 0.930 . S
H1807 C1819 0.929 . S
H1808 C1822 0.930 1_554 S
H1809 C1824 0.960 . S
H1810 C1824 0.960 1_554 S
H1811 C1824 0.960 1_554 S
C1812 H1804 0.929 . S
C1812 C1813 1.377 . S
C1812 C1814 1.384 . S
C1813 C1812 1.377 . S
C1813 C1819 1.390 . S
C1814 H1805 0.930 . S
C1814 C1812 1.384 . S
C1814 C1815 1.372 . S
C1815 C1814 1.372 . S
C1815 C1816 1.400 . S
C1815 C1820 1.490 . S
C1816 H1806 0.930 . S
C1816 C1815 1.400 . S
C1816 C1819 1.386 . S
H1817 C1833 0.930 . S
H1818 C1834 0.931 . S
C1819 H1807 0.929 . S
C1819 C1813 1.390 . S
C1819 C1816 1.386 . S
C1820 C1815 1.490 . S
C1820 C1822 1.395 1_554 S
C1820 C1823 1.403 1_554 S
H1821 C1827 0.930 . S
C1822 H1808 0.930 1_556 S
C1822 C1820 1.395 1_556 S
C1822 C1825 1.403 . S
C1823 C1820 1.403 1_556 S
C1823 C1824 1.524 . S
C1823 C1827 1.400 . S
C1824 H1809 0.960 . S
C1824 H1810 0.960 1_556 S
C1824 H1811 0.960 1_556 S
C1824 C1823 1.524 . S
C1825 C1822 1.403 . S
C1825 C1826 1.392 . S
C1825 C1829 1.495 . S
C1826 C1825 1.392 . S
C1826 C1827 1.385 . S
C1826 C1828 1.478 . S
C1827 H1821 0.930 . S
C1827 C1823 1.400 . S
C1827 C1826 1.385 . S
C1828 C1826 1.478 . S
C1828 C1830 1.381 . S
C1828 C1834 1.383 . S
C1829 C1825 1.495 . S
C1829 H1835 0.959 . S
C1829 H1836 0.961 . S
C1829 H1837 0.960 . S
C1830 C1828 1.381 . S
C1830 C1831 1.394 . S
C1830 H1838 0.930 . S
C1831 C1830 1.394 . S
C1831 C1832 1.383 . S
C1831 H1839 0.929 . S
C1832 C1831 1.383 . S
C1832 C1833 1.377 . S
C1833 H1817 0.930 . S
C1833 C1832 1.377 . S
C1833 C1834 1.379 . S
C1834 H1818 0.931 . S
C1834 C1828 1.383 . S
C1834 C1833 1.379 . S
H1835 C1829 0.959 . S
H1836 C1829 0.961 . S
H1837 C1829 0.960 . S
H1838 C1830 0.930 . S
H1839 C1831 0.929 . S
H1840 C1848 0.929 . S
H1841 C1850 0.930 . S
H1842 C1852 0.930 . S
H1843 C1855 0.929 . S
H1844 C1858 0.930 . S
H1845 C1860 0.960 . S
H1846 C1860 0.960 . S
H1847 C1860 0.960 . S
C1848 H1840 0.929 . S
C1848 C1849 1.377 . S
C1848 C1850 1.384 . S
C1849 C1848 1.377 . S
C1849 C1855 1.390 . S
C1850 H1841 0.930 . S
C1850 C1848 1.384 . S
C1850 C1851 1.372 . S
C1851 C1850 1.372 . S
C1851 C1852 1.400 . S
C1851 C1856 1.490 . S
C1852 H1842 0.930 . S
C1852 C1851 1.400 . S
C1852 C1855 1.386 . S
H1853 C1869 0.930 . S
H1854 C1870 0.931 . S
C1855 H1843 0.929 . S
C1855 C1849 1.390 . S
C1855 C1852 1.386 . S
C1856 C1851 1.490 . S
C1856 C1858 1.395 . S
C1856 C1859 1.403 . S
H1857 C1863 0.930 . S
C1858 H1844 0.930 . S
C1858 C1856 1.395 . S
C1858 C1861 1.403 . S
C1859 C1856 1.403 . S
C1859 C1860 1.524 . S
C1859 C1863 1.400 . S
C1860 H1845 0.960 . S
C1860 H1846 0.960 . S
C1860 H1847 0.960 . S
C1860 C1859 1.524 . S
C1861 C1858 1.403 . S
C1861 C1862 1.392 . S
C1861 C1865 1.495 . S
C1862 C1861 1.392 . S
C1862 C1863 1.385 . S
C1862 C1864 1.478 . S
C1863 H1857 0.930 . S
C1863 C1859 1.400 . S
C1863 C1862 1.385 . S
C1864 C1862 1.478 . S
C1864 C1866 1.381 . S
C1864 C1870 1.383 . S
C1865 C1861 1.495 . S
C1865 H1871 0.959 . S
C1865 H1872 0.961 . S
C1865 H1873 0.960 . S
C1866 C1864 1.381 . S
C1866 C1867 1.394 1_554 S
C1866 H1874 0.930 . S
C1867 C1866 1.394 1_556 S
C1867 C1868 1.383 . S
C1867 H1875 0.929 . S
C1868 C1867 1.383 . S
C1868 C1869 1.377 . S
C1869 H1853 0.930 . S
C1869 C1868 1.377 . S
C1869 C1870 1.379 1_556 S
C1870 H1854 0.931 . S
C1870 C1864 1.383 . S
C1870 C1869 1.379 1_554 S
H1871 C1865 0.959 . S
H1872 C1865 0.961 . S
H1873 C1865 0.960 . S
H1874 C1866 0.930 . S
H1875 C1867 0.929 . S
H1876 C1884 0.929 . S
H1877 C1886 0.930 . S
H1878 C1888 0.930 . S
H1879 C1891 0.929 . S
H1880 C1894 0.930 . S
H1881 C1896 0.960 . S
H1882 C1896 0.960 . S
H1883 C1896 0.960 . S
C1884 H1876 0.929 . S
C1884 C1885 1.377 . S
C1884 C1886 1.384 . S
C1885 C1884 1.377 . S
C1885 C1891 1.390 . S
C1886 H1877 0.930 . S
C1886 C1884 1.384 . S
C1886 C1887 1.372 . S
C1887 C1886 1.372 . S
C1887 C1888 1.400 . S
C1887 C1892 1.490 . S
C1888 H1878 0.930 . S
C1888 C1887 1.400 . S
C1888 C1891 1.386 . S
H1889 C1905 0.930 . S
H1890 C1906 0.931 . S
C1891 H1879 0.929 . S
C1891 C1885 1.390 . S
C1891 C1888 1.386 . S
C1892 C1887 1.490 . S
C1892 C1894 1.395 . S
C1892 C1895 1.403 . S
H1893 C1899 0.930 . S
C1894 H1880 0.930 . S
C1894 C1892 1.395 . S
C1894 C1897 1.403 . S
C1895 C1892 1.403 . S
C1895 C1896 1.524 . S
C1895 C1899 1.400 . S
C1896 H1881 0.960 . S
C1896 H1882 0.960 . S
C1896 H1883 0.960 . S
C1896 C1895 1.524 . S
C1897 C1894 1.403 . S
C1897 C1898 1.392 . S
C1897 C1901 1.495 . S
C1898 C1897 1.392 . S
C1898 C1899 1.385 . S
C1898 C1900 1.478 . S
C1899 H1893 0.930 . S
C1899 C1895 1.400 . S
C1899 C1898 1.385 . S
C1900 C1898 1.478 . S
C1900 C1902 1.381 . S
C1900 C1906 1.383 . S
C1901 C1897 1.495 . S
C1901 H1907 0.959 . S
C1901 H1908 0.961 . S
C1901 H1909 0.960 . S
C1902 C1900 1.381 . S
C1902 C1903 1.394 . S
C1902 H1910 0.930 . S
C1903 C1902 1.394 . S
C1903 C1904 1.383 . S
C1903 H1911 0.929 . S
C1904 C1903 1.383 . S
C1904 C1905 1.377 . S
C1905 H1889 0.930 . S
C1905 C1904 1.377 . S
C1905 C1906 1.379 . S
C1906 H1890 0.931 . S
C1906 C1900 1.383 . S
C1906 C1905 1.379 . S
H1907 C1901 0.959 . S
H1908 C1901 0.961 . S
H1909 C1901 0.960 . S
H1910 C1902 0.930 . S
H1911 C1903 0.929 . S
H1912 C1920 0.929 . S
H1913 C1922 0.930 . S
H1914 C1924 0.930 . S
H1915 C1927 0.929 . S
H1916 C1930 0.930 . S
H1917 C1932 0.960 . S
H1918 C1932 0.960 . S
H1919 C1932 0.960 . S
C1920 H1912 0.929 . S
C1920 C1921 1.377 . S
C1920 C1922 1.384 . S
C1921 C1920 1.377 . S
C1921 C1927 1.390 . S
C1922 H1913 0.930 . S
C1922 C1920 1.384 . S
C1922 C1923 1.372 . S
C1923 C1922 1.372 . S
C1923 C1924 1.400 . S
C1923 C1928 1.490 . S
C1924 H1914 0.930 . S
C1924 C1923 1.400 . S
C1924 C1927 1.386 . S
H1925 C1941 0.930 . S
H1926 C1942 0.931 . S
C1927 H1915 0.929 . S
C1927 C1921 1.390 . S
C1927 C1924 1.386 . S
C1928 C1923 1.490 . S
C1928 C1930 1.395 . S
C1928 C1931 1.403 . S
H1929 C1935 0.930 . S
C1930 H1916 0.930 . S
C1930 C1928 1.395 . S
C1930 C1933 1.403 . S
C1931 C1928 1.403 . S
C1931 C1932 1.524 . S
C1931 C1935 1.400 . S
C1932 H1917 0.960 . S
C1932 H1918 0.960 . S
C1932 H1919 0.960 . S
C1932 C1931 1.524 . S
C1933 C1930 1.403 . S
C1933 C1934 1.392 . S
C1933 C1937 1.495 . S
C1934 C1933 1.392 . S
C1934 C1935 1.385 . S
C1934 C1936 1.478 . S
C1935 H1929 0.930 . S
C1935 C1931 1.400 . S
C1935 C1934 1.385 . S
C1936 C1934 1.478 . S
C1936 C1938 1.381 . S
C1936 C1942 1.383 . S
C1937 C1933 1.495 . S
C1937 H1943 0.959 . S
C1937 H1944 0.961 . S
C1937 H1945 0.960 . S
C1938 C1936 1.381 . S
C1938 C1939 1.394 1_556 S
C1938 H1946 0.930 . S
C1939 C1938 1.394 1_554 S
C1939 C1940 1.383 . S
C1939 H1947 0.929 . S
C1940 C1939 1.383 . S
C1940 C1941 1.377 . S
C1941 H1925 0.930 . S
C1941 C1940 1.377 . S
C1941 C1942 1.379 1_554 S
C1942 H1926 0.931 . S
C1942 C1936 1.383 . S
C1942 C1941 1.379 1_556 S
H1943 C1937 0.959 . S
H1944 C1937 0.961 . S
H1945 C1937 0.960 . S
H1946 C1938 0.930 . S
H1947 C1939 0.929 . S
H1948 C1956 0.929 . S
H1949 C1958 0.930 . S
H1950 C1960 0.930 . S
H1951 C1963 0.929 . S
H1952 C1966 0.930 . S
H1953 C1968 0.960 . S
H1954 C1968 0.960 . S
H1955 C1968 0.960 . S
C1956 H1948 0.929 . S
C1956 C1957 1.377 . S
C1956 C1958 1.384 . S
C1957 C1956 1.377 . S
C1957 C1963 1.390 . S
C1958 H1949 0.930 . S
C1958 C1956 1.384 . S
C1958 C1959 1.372 . S
C1959 C1958 1.372 . S
C1959 C1960 1.400 . S
C1959 C1964 1.490 . S
C1960 H1950 0.930 . S
C1960 C1959 1.400 . S
C1960 C1963 1.386 . S
H1961 C1977 0.930 . S
H1962 C1978 0.931 . S
C1963 H1951 0.929 . S
C1963 C1957 1.390 . S
C1963 C1960 1.386 . S
C1964 C1959 1.490 . S
C1964 C1966 1.395 . S
C1964 C1967 1.403 . S
H1965 C1971 0.930 . S
C1966 H1952 0.930 . S
C1966 C1964 1.395 . S
C1966 C1969 1.403 . S
C1967 C1964 1.403 . S
C1967 C1968 1.524 . S
C1967 C1971 1.400 . S
C1968 H1953 0.960 . S
C1968 H1954 0.960 . S
C1968 H1955 0.960 . S
C1968 C1967 1.524 . S
C1969 C1966 1.403 . S
C1969 C1970 1.392 . S
C1969 C1973 1.495 . S
C1970 C1969 1.392 . S
C1970 C1971 1.385 . S
C1970 C1972 1.478 . S
C1971 H1965 0.930 . S
C1971 C1967 1.400 . S
C1971 C1970 1.385 . S
C1972 C1970 1.478 . S
C1972 C1974 1.381 . S
C1972 C1978 1.383 . S
C1973 C1969 1.495 . S
C1973 H1979 0.959 . S
C1973 H1980 0.961 . S
C1973 H1981 0.960 . S
C1974 C1972 1.381 . S
C1974 C1975 1.394 . S
C1974 H1982 0.930 . S
C1975 C1974 1.394 . S
C1975 C1976 1.383 . S
C1975 H1983 0.929 . S
C1976 C1975 1.383 . S
C1976 C1977 1.377 . S
C1977 H1961 0.930 . S
C1977 C1976 1.377 . S
C1977 C1978 1.379 . S
C1978 H1962 0.931 . S
C1978 C1972 1.383 . S
C1978 C1977 1.379 . S
H1979 C1973 0.959 . S
H1980 C1973 0.961 . S
H1981 C1973 0.960 . S
H1982 C1974 0.930 . S
H1983 C1975 0.929 . S
C553 C271 1.121 . S
C572 C33 1.138 . S
C589 C67 1.125 . S
C608 C169 1.123 . S
C625 C101 1.123 . S
C644 C203 1.128 . S
C661 C237 1.123 . S
C680 C135 1.126 . S
C697 C376 1.696 . S
C716 C138 1.681 1_655 S
C733 C274 1.697 . S
C752 C2 1.682 1_655 S
C769 C206 1.697 . S
C788 C342 1.681 . S
C805 C70 1.700 . S
C824 C308 1.693 . S
C841 C339 1.127 . S
C860 C441 1.110 . S
C877 C509 1.127 . S
C896 C373 1.108 . S
C913 C475 1.128 . S
C932 C305 1.108 . S
C949 C407 1.126 . S
C968 C543 1.115 . S
C985 C104 1.700 . S
C1004 C478 1.703 . S
C1021 C172 1.700 . S
C1040 C410 1.705 . S
C1057 C36 1.696 . S
C1076 C512 1.696 . S
C1093 C240 1.700 . S
C1112 C444 1.703 . S
C1129 C20 1.586 . S
C1148 C156 1.562 . S
C1165 C190 1.582 . S
C1184 C54 1.588 . S
C1201 C224 1.589 . S
C1220 C88 1.568 . S
C1237 C122 1.588 . S
C1256 C258 1.592 . S
C1273 C360 1.586 . S
C1292 C292 1.600 . S
C1309 C326 1.589 . S
C1328 C394 1.583 . S
C1345 C428 1.582 . S
C1364 C496 1.602 . S
C1381 C530 1.581 . S
C1400 C462 1.591 . S
C1417 C9 0.634 . S
C1436 C5 0.630 . S
C1453 C43 0.644 . S
C1472 C39 0.561 . S
C1489 C73 0.591 . S
C1508 C77 0.543 . S
C1525 C107 0.586 . S
C1544 C111 0.548 . S
C1561 C141 0.575 . S
C1580 C145 0.635 . S
C1597 C175 0.594 . S
C1616 C179 0.676 . S
C1633 C213 0.617 . S
C1652 C209 0.639 . S
C1669 C247 0.614 . S
C1688 C243 0.635 . S
C1705 C277 0.587 . S
C1724 C281 0.546 . S
C1741 C311 0.598 . S
C1760 C315 0.627 . S
C1777 C349 0.643 . S
C1796 C345 0.590 . S
C1813 C383 0.621 . S
C1832 C379 0.642 . S
C1849 C417 0.610 . S
C1868 C413 0.615 . S
C1885 C451 0.644 . S
C1904 C447 0.564 . S
C1921 C485 0.643 . S
C1940 C481 0.556 . S
C1957 C515 0.595 . S
C1976 C519 0.663 . S
