# Generated by pormake.
# Topology uki, (4)-cn, num edge types: 1
# Building blocks:
#     Node 0, Type 0, BuildingBlock: ICAMEG_clean_sbu_1, # of connection points: 4
#     Node 1, Type 0, BuildingBlock: ICAMEG_clean_sbu_1, # of connection points: 4
#     Node 2, Type 0, BuildingBlock: ICAMEG_clean_sbu_1, # of connection points: 4
#     Node 3, Type 0, BuildingBlock: ICAMEG_clean_sbu_1, # of connection points: 4
#     Node 4, Type 0, BuildingBlock: ICAMEG_clean_sbu_1, # of connection points: 4
#     Node 5, Type 0, BuildingBlock: ICAMEG_clean_sbu_1, # of connection points: 4
#     Node 6, Type 0, BuildingBlock: ICAMEG_clean_sbu_1, # of connection points: 4
#     Node 7, Type 0, BuildingBlock: ICAMEG_clean_sbu_1, # of connection points: 4
#     Node 8, Type 0, BuildingBlock: ICAMEG_clean_sbu_1, # of connection points: 4
#     Node 9, Type 0, BuildingBlock: ICAMEG_clean_sbu_1, # of connection points: 4
#     Node 10, Type 0, BuildingBlock: ICAMEG_clean_sbu_1, # of connection points: 4
#     Node 11, Type 0, BuildingBlock: ICAMEG_clean_sbu_1, # of connection points: 4
#     Node 12, Type 0, BuildingBlock: ICAMEG_clean_sbu_1, # of connection points: 4
#     Node 13, Type 0, BuildingBlock: ICAMEG_clean_sbu_1, # of connection points: 4
#     Node 14, Type 0, BuildingBlock: ICAMEG_clean_sbu_1, # of connection points: 4
#     Node 15, Type 0, BuildingBlock: ICAMEG_clean_sbu_1, # of connection points: 4
#     Edge 16, Type (0, 0), BuildingBlock: CIFDUS_clean_linker_0, # of connection points: 2
#     Edge 17, Type (0, 0), BuildingBlock: CIFDUS_clean_linker_0, # of connection points: 2
#     Edge 18, Type (0, 0), BuildingBlock: CIFDUS_clean_linker_0, # of connection points: 2
#     Edge 19, Type (0, 0), BuildingBlock: CIFDUS_clean_linker_0, # of connection points: 2
#     Edge 20, Type (0, 0), BuildingBlock: CIFDUS_clean_linker_0, # of connection points: 2
#     Edge 21, Type (0, 0), BuildingBlock: CIFDUS_clean_linker_0, # of connection points: 2
#     Edge 22, Type (0, 0), BuildingBlock: CIFDUS_clean_linker_0, # of connection points: 2
#     Edge 23, Type (0, 0), BuildingBlock: CIFDUS_clean_linker_0, # of connection points: 2
#     Edge 24, Type (0, 0), BuildingBlock: CIFDUS_clean_linker_0, # of connection points: 2
#     Edge 25, Type (0, 0), BuildingBlock: CIFDUS_clean_linker_0, # of connection points: 2
#     Edge 26, Type (0, 0), BuildingBlock: CIFDUS_clean_linker_0, # of connection points: 2
#     Edge 27, Type (0, 0), BuildingBlock: CIFDUS_clean_linker_0, # of connection points: 2
#     Edge 28, Type (0, 0), BuildingBlock: CIFDUS_clean_linker_0, # of connection points: 2
#     Edge 29, Type (0, 0), BuildingBlock: CIFDUS_clean_linker_0, # of connection points: 2
#     Edge 30, Type (0, 0), BuildingBlock: CIFDUS_clean_linker_0, # of connection points: 2
#     Edge 31, Type (0, 0), BuildingBlock: CIFDUS_clean_linker_0, # of connection points: 2
#     Edge 32, Type (0, 0), BuildingBlock: CIFDUS_clean_linker_0, # of connection points: 2
#     Edge 33, Type (0, 0), BuildingBlock: CIFDUS_clean_linker_0, # of connection points: 2
#     Edge 34, Type (0, 0), BuildingBlock: CIFDUS_clean_linker_0, # of connection points: 2
#     Edge 35, Type (0, 0), BuildingBlock: CIFDUS_clean_linker_0, # of connection points: 2
#     Edge 36, Type (0, 0), BuildingBlock: CIFDUS_clean_linker_0, # of connection points: 2
#     Edge 37, Type (0, 0), BuildingBlock: CIFDUS_clean_linker_0, # of connection points: 2
#     Edge 38, Type (0, 0), BuildingBlock: CIFDUS_clean_linker_0, # of connection points: 2
#     Edge 39, Type (0, 0), BuildingBlock: CIFDUS_clean_linker_0, # of connection points: 2
#     Edge 40, Type (0, 0), BuildingBlock: CIFDUS_clean_linker_0, # of connection points: 2
#     Edge 41, Type (0, 0), BuildingBlock: CIFDUS_clean_linker_0, # of connection points: 2
#     Edge 42, Type (0, 0), BuildingBlock: CIFDUS_clean_linker_0, # of connection points: 2
#     Edge 43, Type (0, 0), BuildingBlock: CIFDUS_clean_linker_0, # of connection points: 2
#     Edge 44, Type (0, 0), BuildingBlock: CIFDUS_clean_linker_0, # of connection points: 2
#     Edge 45, Type (0, 0), BuildingBlock: CIFDUS_clean_linker_0, # of connection points: 2
#     Edge 46, Type (0, 0), BuildingBlock: CIFDUS_clean_linker_0, # of connection points: 2
#     Edge 47, Type (0, 0), BuildingBlock: CIFDUS_clean_linker_0, # of connection points: 2
# Relax obj value: 0.015
# Max RMSD: 0.105
# Mean RMSD: 0.105
data_MOF--net-uki--node1-ICAMEG_clean_sbu_1--edge1-CIFDUS_clean_linker_0
_symmetry_space_group_name_H-M    P1
_symmetry_Int_Tables_number       1
_symmetry_cell_setting            triclinic
loop_
_symmetry_equiv_pos_as_xyz
'x, y, z'
_cell_length_a     29.298803
_cell_length_b     29.272269
_cell_length_c     69.252254
_cell_angle_alpha  89.993243
_cell_angle_beta   90.003892
_cell_angle_gamma 89.984946
loop_
_atom_site_label
_atom_site_type_symbol
_atom_site_fract_x
_atom_site_fract_y
_atom_site_fract_z
_atom_type_partial_charge
Co0 Co 0.10653 0.21215 0.27643 0.0
Co1 Co 0.09247 0.28122 0.31628 0.0
O2 O 0.10912 0.22332 0.3042 0.0
C3 C 0.04786 0.13548 0.29003 0.0
O4 O 0.01971 0.16562 0.29746 0.0
C5 C 0.18614 0.26571 0.33138 0.0
O6 O 0.19993 0.26029 0.31349 0.0
O7 O 0.13263 0.31601 0.29813 0.0
O8 O 0.12893 0.27521 0.27068 0.0
H9 H 0.04315 0.44562 0.31697 0.0
H10 H 0.15664 0.14787 0.30185 0.0
O11 O 0.08428 0.14832 0.28156 0.0
H12 H 0.27102 0.2053 0.2556 0.0
H13 H 0.12726 0.11661 0.21662 0.0
H14 H 0.0743 0.26445 0.24236 0.0
H15 H 0.19095 0.23096 0.25371 0.0
H16 H 0.13173 0.133 0.25151 0.0
O17 O 0.14436 0.27428 0.33493 0.0
H18 H 0.06315 0.37196 0.30187 0.0
H19 H 0.08827 0.31387 0.35706 0.0
H20 H 0.06948 0.24963 0.20736 0.0
H21 H 0.23628 0.12103 0.30416 0.0
H22 H 0.0961 0.17524 0.19428 0.0
H23 H 0.2941 0.14987 0.28094 0.0
O24 O 0.04263 0.23523 0.27507 0.0
H25 H 0.05439 0.15297 0.36172 0.0
H26 H 0.9967 0.29253 0.33021 0.0
H27 H 0.94597 0.24883 0.35179 0.0
H28 H 0.97481 0.17853 0.36776 0.0
H29 H 0.1038 0.19752 0.33989 0.0
H30 H 0.06893 0.38702 0.37275 0.0
H31 H 0.04599 0.45348 0.35266 0.0
O32 O 0.03973 0.28906 0.29819 0.0
C33 C 0.14011 0.31098 0.28008 0.0
C34 C 0.05295 0.41687 0.32588 0.0
C35 C 0.06748 0.38399 0.35719 0.0
N36 N 0.07653 0.33858 0.32858 0.0
C37 C 0.06419 0.37504 0.31741 0.0
C38 C 0.07851 0.3427 0.34822 0.0
C39 C 0.0546 0.42127 0.34591 0.0
C40 C 0.18154 0.16026 0.2916 0.0
N41 N 0.16911 0.19071 0.2776 0.0
C42 C 0.22661 0.14508 0.29302 0.0
C43 C 0.25905 0.16132 0.28 0.0
C44 C 0.24612 0.19244 0.26578 0.0
C45 C 0.20075 0.20692 0.26481 0.0
C46 C 0.11569 0.14921 0.22214 0.0
C47 C 0.08631 0.23216 0.23676 0.0
C48 C 0.1181 0.15866 0.24188 0.0
N49 N 0.10376 0.19985 0.24893 0.0
C50 C 0.08333 0.22389 0.21694 0.0
C51 C 0.09821 0.18212 0.20961 0.0
C52 C 0.02264 0.26817 0.28371 0.0
C53 C 0.04144 0.18357 0.35486 0.0
C54 C 0.00938 0.26184 0.337 0.0
C55 C 0.98056 0.23731 0.34926 0.0
C56 C 0.99678 0.1979 0.35823 0.0
N57 N 0.05315 0.24761 0.33378 0.0
C58 C 0.06929 0.20899 0.34252 0.0
Co59 Co 0.21459 0.909 0.72561 0.0
Co60 Co 0.27536 0.92637 0.68337 0.0
O61 O 0.22046 0.90867 0.69748 0.0
C62 C 0.14112 0.96858 0.71115 0.0
O63 O 0.17134 0.98536 0.69912 0.0
C64 C 0.25786 0.83197 0.66991 0.0
O65 O 0.25336 0.82047 0.68814 0.0
O66 O 0.31404 0.88728 0.70024 0.0
O67 O 0.27659 0.88096 0.72852 0.0
H68 H 0.43782 0.97899 0.67678 0.0
H69 H 0.14186 0.8673 0.70161 0.0
O70 O 0.15241 0.93762 0.72319 0.0
H71 H 0.19849 0.743 0.7433 0.0
H72 H 0.12906 0.889 0.78809 0.0
H73 H 0.27598 0.93133 0.75833 0.0
H74 H 0.23072 0.8206 0.74587 0.0
H75 H 0.13834 0.8879 0.75267 0.0
O76 O 0.26631 0.87332 0.66536 0.0
H77 H 0.36787 0.95781 0.69448 0.0
H78 H 0.29982 0.93021 0.6416 0.0
H79 H 0.26834 0.93256 0.79379 0.0
H80 H 0.10842 0.79027 0.69865 0.0
H81 H 0.19442 0.9113 0.80889 0.0
H82 H 0.13683 0.72747 0.71957 0.0
O83 O 0.24214 0.97083 0.72754 0.0
H84 H 0.13963 0.9598 0.64133 0.0
H85 H 0.28092 0.02268 0.66943 0.0
H86 H 0.23233 0.07188 0.64909 0.0
H87 H 0.16113 0.04043 0.63486 0.0
H88 H 0.18898 0.91197 0.66194 0.0
H89 H 0.36913 0.95073 0.62333 0.0
H90 H 0.43873 0.97549 0.64094 0.0
O91 O 0.28565 0.97971 0.70106 0.0
C92 C 0.31115 0.87366 0.7177 0.0
C93 C 0.40766 0.96841 0.66894 0.0
C94 C 0.36913 0.95249 0.63894 0.0
N95 N 0.32971 0.94321 0.66907 0.0
C96 C 0.36792 0.95653 0.67888 0.0
C97 C 0.33002 0.94084 0.64936 0.0
C98 C 0.40816 0.9664 0.64883 0.0
C99 C 0.1541 0.84023 0.71088 0.0
N100 N 0.18797 0.84849 0.72398 0.0
C101 C 0.13517 0.79665 0.70909 0.0
C102 C 0.15117 0.76141 0.72081 0.0
C103 C 0.18578 0.7701 0.73412 0.0
C104 C 0.20395 0.81409 0.73549 0.0
C105 C 0.16146 0.89823 0.78168 0.0
C106 C 0.24383 0.92169 0.7648 0.0
C107 C 0.16689 0.89775 0.76164 0.0
N108 N 0.20779 0.90917 0.75347 0.0
C109 C 0.23965 0.92261 0.78489 0.0
C110 C 0.19816 0.91073 0.79335 0.0
C111 C 0.27066 0.99334 0.71741 0.0
C112 C 0.17063 0.97386 0.64741 0.0
C113 C 0.24988 0.00884 0.66338 0.0
C114 C 0.22258 0.0368 0.65181 0.0
C115 C 0.18267 0.01912 0.64382 0.0
N116 N 0.23782 0.9645 0.66685 0.0
C117 C 0.1988 0.94688 0.65902 0.0
Co118 Co 0.88378 0.80791 0.27123 0.0
Co119 Co 0.9199 0.74183 0.30975 0.0
O120 O 0.89426 0.79736 0.29864 0.0
C121 C 0.94644 0.88282 0.28254 0.0
O122 O 0.97365 0.85157 0.28977 0.0
C123 C 0.82871 0.7502 0.32724 0.0
O124 O 0.81391 0.75704 0.30959 0.0
O125 O 0.88081 0.70207 0.29315 0.0
O126 O 0.85768 0.74528 0.26804 0.0
H127 H 0.98948 0.58493 0.30818 0.0
H128 H 0.84805 0.87341 0.30025 0.0
O129 O 0.90937 0.87123 0.27423 0.0
H130 H 0.71285 0.8174 0.26508 0.0
H131 H 0.83728 0.90313 0.21399 0.0
H132 H 0.89594 0.75359 0.23546 0.0
H133 H 0.78993 0.79075 0.25626 0.0
H134 H 0.84985 0.88759 0.2486 0.0
O135 O 0.87105 0.74284 0.3302 0.0
H136 H 0.95753 0.65538 0.29405 0.0
H137 H 0.93592 0.71018 0.35009 0.0
H138 H 0.88362 0.76756 0.20071 0.0
H139 H 0.77163 0.90127 0.30943 0.0
H140 H 0.85409 0.8428 0.18979 0.0
H141 H 0.70334 0.87309 0.29184 0.0
O142 O 0.94557 0.78368 0.26439 0.0
H143 H 0.95249 0.87364 0.35415 0.0
H144 H 0.019 0.74252 0.31942 0.0
H145 H 0.06894 0.79215 0.33896 0.0
H146 H 0.03568 0.85823 0.35652 0.0
H147 H 0.9039 0.82334 0.33431 0.0
H148 H 0.96731 0.64016 0.36485 0.0
H149 H 0.99451 0.577 0.34383 0.0
O150 O 0.96843 0.74032 0.2895 0.0
C151 C 0.8593 0.70765 0.2773 0.0
C152 C 0.97786 0.61227 0.31749 0.0
C153 C 0.96535 0.64324 0.3493 0.0
N154 N 0.94515 0.68694 0.32123 0.0
C155 C 0.95984 0.65228 0.30957 0.0
C156 C 0.94751 0.68274 0.34086 0.0
C157 C 0.98063 0.60782 0.3375 0.0
C158 C 0.81855 0.86137 0.29239 0.0
N159 N 0.82349 0.83071 0.27766 0.0
C160 C 0.77535 0.87711 0.29771 0.0
C161 C 0.73704 0.86124 0.28785 0.0
C162 C 0.74234 0.82998 0.27284 0.0
C163 C 0.78607 0.81496 0.26792 0.0
C164 C 0.85012 0.87019 0.21857 0.0
C165 C 0.88286 0.78633 0.23081 0.0
C166 C 0.85739 0.86124 0.23814 0.0
N167 N 0.87337 0.81964 0.24403 0.0
C168 C 0.87606 0.79408 0.21112 0.0
C169 C 0.85953 0.83632 0.205 0.0
C170 C 0.97423 0.75714 0.27265 0.0
C171 C 0.96737 0.8449 0.3466 0.0
C172 C 0.00434 0.77131 0.32696 0.0
C173 C 0.03275 0.79922 0.33804 0.0
C174 C 0.01406 0.83627 0.3479 0.0
N175 N 0.95859 0.77996 0.32577 0.0
C176 C 0.94 0.81621 0.33539 0.0
Co177 Co 0.80644 0.11319 0.73217 0.0
Co178 Co 0.74723 0.07858 0.69139 0.0
O179 O 0.80077 0.10416 0.70429 0.0
C180 C 0.88413 0.05432 0.72134 0.0
O181 O 0.85603 0.03278 0.70976 0.0
C182 C 0.75821 0.16967 0.6738 0.0
O183 O 0.76281 0.18482 0.69154 0.0
O184 O 0.7053 0.11879 0.70639 0.0
O185 O 0.74285 0.13781 0.73358 0.0
H186 H 0.58966 0.01132 0.6881 0.0
H187 H 0.87689 0.15118 0.70599 0.0
O188 O 0.87021 0.08789 0.73148 0.0
H189 H 0.81164 0.28407 0.73995 0.0
H190 H 0.88947 0.15905 0.79278 0.0
H191 H 0.7464 0.09709 0.76597 0.0
H192 H 0.78443 0.20614 0.74711 0.0
H193 H 0.88068 0.14798 0.75766 0.0
O194 O 0.75201 0.12712 0.67083 0.0
H195 H 0.65763 0.04288 0.70436 0.0
H196 H 0.72306 0.06149 0.6502 0.0
H197 H 0.75352 0.10801 0.80115 0.0
H198 H 0.90537 0.22849 0.69849 0.0
H199 H 0.8255 0.13918 0.81478 0.0
H200 H 0.87257 0.2956 0.7155 0.0
O201 O 0.78281 0.05097 0.73757 0.0
H202 H 0.88524 0.04434 0.65083 0.0
H203 H 0.74942 0.97891 0.6825 0.0
H204 H 0.80184 0.92827 0.66465 0.0
H205 H 0.87032 0.96098 0.64865 0.0
H206 H 0.8321 0.09367 0.66897 0.0
H207 H 0.65564 0.0305 0.63334 0.0
H208 H 0.58839 0.005 0.65234 0.0
O209 O 0.74128 0.02993 0.71173 0.0
C210 C 0.70742 0.1383 0.72285 0.0
C211 C 0.61881 0.02218 0.67967 0.0
C212 C 0.65582 0.033 0.64893 0.0
N213 N 0.69438 0.05363 0.67825 0.0
C214 C 0.65744 0.03994 0.6888 0.0
C215 C 0.69385 0.0506 0.65856 0.0
C216 C 0.61811 0.01868 0.6596 0.0
C217 C 0.8628 0.18019 0.71358 0.0
N218 N 0.82928 0.17416 0.72705 0.0
C219 C 0.87891 0.22389 0.70922 0.0
C220 C 0.86045 0.26154 0.71875 0.0
C221 C 0.82624 0.25509 0.73247 0.0
C222 C 0.81093 0.2109 0.73643 0.0
C223 C 0.85789 0.14556 0.78702 0.0
C224 C 0.77766 0.11105 0.77177 0.0
C225 C 0.85275 0.13915 0.76715 0.0
N226 N 0.81288 0.12235 0.75977 0.0
C227 C 0.78157 0.11698 0.79171 0.0
C228 C 0.82198 0.13442 0.79935 0.0
C229 C 0.75667 0.02307 0.72877 0.0
C230 C 0.85545 0.02971 0.65769 0.0
C231 C 0.77921 0.99336 0.67563 0.0
C232 C 0.80871 0.96454 0.6655 0.0
C233 C 0.8471 0.98293 0.6565 0.0
N234 N 0.78765 0.0392 0.67673 0.0
C235 C 0.82514 0.0575 0.66791 0.0
Co236 Co 0.10076 0.28617 0.97788 0.0
Co237 Co 0.08113 0.22923 0.93504 0.0
O238 O 0.10056 0.28261 0.94976 0.0
C239 C 0.04284 0.3656 0.96725 0.0
O240 O 0.01639 0.33716 0.9578 0.0
C241 C 0.17507 0.24552 0.92123 0.0
O242 O 0.18709 0.24763 0.93947 0.0
O243 O 0.11996 0.18794 0.95105 0.0
O244 O 0.12381 0.22195 0.98011 0.0
H245 H 0.024 0.06869 0.92646 0.0
H246 H 0.14844 0.35706 0.95486 0.0
O247 O 0.07806 0.35093 0.97613 0.0
H248 H 0.26725 0.28755 0.99588 0.0
H249 H 0.12754 0.36502 0.04148 0.0
H250 H 0.07267 0.22459 0.00974 0.0
H251 H 0.18735 0.26155 0.99801 0.0
H252 H 0.12808 0.35835 0.00596 0.0
O253 O 0.13345 0.23865 0.91674 0.0
H254 H 0.04775 0.1366 0.94502 0.0
H255 H 0.07494 0.20837 0.89298 0.0
H256 H 0.07184 0.22966 0.04529 0.0
H257 H 0.22786 0.38437 0.95238 0.0
H258 H 0.09943 0.30028 0.06139 0.0
H259 H 0.28792 0.34944 0.97295 0.0
O260 O 0.03687 0.263 0.97931 0.0
H261 H 0.04848 0.37037 0.89613 0.0
H262 H 0.98444 0.22668 0.92153 0.0
H263 H 0.93539 0.27837 0.90255 0.0
H264 H 0.96741 0.35079 0.88968 0.0
H265 H 0.0962 0.31782 0.91532 0.0
H266 H 0.05186 0.14112 0.87385 0.0
H267 H 0.02598 0.0707 0.89062 0.0
O268 O 0.02847 0.2189 0.95295 0.0
C269 C 0.13157 0.18835 0.96882 0.0
C270 C 0.03506 0.09922 0.91899 0.0
C271 C 0.05076 0.13985 0.88946 0.0
N272 N 0.06235 0.17649 0.92008 0.0
C273 C 0.04842 0.13781 0.92942 0.0
C274 C 0.06388 0.17778 0.90037 0.0
C275 C 0.03623 0.10036 0.89888 0.0
C276 C 0.17431 0.34201 0.96399 0.0
N277 N 0.16322 0.30795 0.97664 0.0
C278 C 0.21925 0.35748 0.96247 0.0
C279 C 0.25295 0.33782 0.974 0.0
C280 C 0.24137 0.30308 0.98686 0.0
C281 C 0.19608 0.28843 0.98797 0.0
C282 C 0.11554 0.33403 0.03464 0.0
C283 C 0.08503 0.25531 0.01665 0.0
C284 C 0.11569 0.33009 0.01454 0.0
N285 N 0.10082 0.29096 0.00581 0.0
C286 C 0.08434 0.25803 0.03678 0.0
C287 C 0.09977 0.29769 0.0458 0.0
C288 C 0.0142 0.23473 0.96905 0.0
C289 C 0.03415 0.33887 0.90163 0.0
C290 C 0.99856 0.2582 0.91605 0.0
C291 C 0.97066 0.28728 0.90527 0.0
C292 C 0.98866 0.32789 0.89803 0.0
N293 N 0.04316 0.26917 0.91949 0.0
C294 C 0.06105 0.30892 0.91246 0.0
Co295 Co 0.28861 0.89251 0.02303 0.0
Co296 Co 0.21941 0.91044 0.06263 0.0
O297 O 0.27732 0.89315 0.0508 0.0
C298 C 0.36523 0.95453 0.03457 0.0
O299 O 0.33538 0.98543 0.03998 0.0
C300 C 0.23518 0.81775 0.07891 0.0
O301 O 0.24077 0.80284 0.06118 0.0
O302 O 0.18459 0.86891 0.04503 0.0
O303 O 0.22624 0.86811 0.0178 0.0
H304 H 0.05521 0.95999 0.0626 0.0
H305 H 0.35327 0.84676 0.04975 0.0
O306 O 0.35207 0.91625 0.02779 0.0
H307 H 0.29885 0.72565 0.00594 0.0
H308 H 0.38521 0.86647 0.96391 0.0
H309 H 0.23559 0.91806 0.98815 0.0
H310 H 0.27186 0.80496 0.00217 0.0
H311 H 0.36866 0.86633 0.99884 0.0
O312 O 0.22641 0.85977 0.08196 0.0
H313 H 0.12888 0.93895 0.04781 0.0
H314 H 0.1865 0.91709 0.10333 0.0
H315 H 0.25057 0.9185 0.95311 0.0
H316 H 0.38141 0.76796 0.05394 0.0
H317 H 0.32587 0.89257 0.94078 0.0
H318 H 0.35409 0.70674 0.03196 0.0
O319 O 0.26399 0.95581 0.0201 0.0
H320 H 0.34787 0.95205 0.10737 0.0
H321 H 0.20723 0.00669 0.07586 0.0
H322 H 0.25076 0.05904 0.09682 0.0
H323 H 0.32162 0.03172 0.11278 0.0
H324 H 0.30349 0.90107 0.08612 0.0
H325 H 0.11335 0.93749 0.11872 0.0
H326 H 0.04712 0.95934 0.0983 0.0
O327 O 0.21173 0.9619 0.04382 0.0
C328 C 0.19019 0.85843 0.02728 0.0
C329 C 0.08387 0.95068 0.07165 0.0
C330 C 0.11647 0.93798 0.10315 0.0
N331 N 0.16203 0.92716 0.0747 0.0
C332 C 0.1257 0.93887 0.06336 0.0
C333 C 0.15777 0.92635 0.09435 0.0
C334 C 0.07933 0.95026 0.09169 0.0
C335 C 0.34155 0.82039 0.04002 0.0
N336 N 0.31121 0.83052 0.02565 0.0
C337 C 0.35747 0.7758 0.04251 0.0
C338 C 0.34207 0.74146 0.03019 0.0
C339 C 0.31106 0.75204 0.01559 0.0
C340 C 0.29584 0.797 0.01355 0.0
C341 C 0.35225 0.87779 0.96911 0.0
C342 C 0.26834 0.9065 0.98289 0.0
C343 C 0.34271 0.87788 0.98887 0.0
N344 N 0.30108 0.89192 0.99552 0.0
C345 C 0.27667 0.90693 0.96304 0.0
C346 C 0.31893 0.89242 0.95613 0.0
C347 C 0.23156 0.97691 0.02865 0.0
C348 C 0.31708 0.96437 0.10048 0.0
C349 C 0.23824 0.99476 0.08259 0.0
C350 C 0.26263 0.02445 0.09453 0.0
C351 C 0.30235 0.00908 0.1035 0.0
N352 N 0.25291 0.95099 0.07967 0.0
C353 C 0.29177 0.93565 0.08845 0.0
Co354 Co 0.87567 0.69308 0.98209 0.0
Co355 Co 0.91426 0.76219 0.94465 0.0
O356 O 0.88874 0.70513 0.9548 0.0
C357 C 0.94191 0.61922 0.9724 0.0
O358 O 0.97045 0.65068 0.96636 0.0
C359 C 0.83456 0.7381 0.91871 0.0
O360 O 0.82571 0.70161 0.92897 0.0
O361 O 0.87192 0.79949 0.9607 0.0
O362 O 0.84754 0.75492 0.98514 0.0
H363 H 0.97975 0.92027 0.95055 0.0
H364 H 0.84483 0.62401 0.95342 0.0
O365 O 0.9032 0.63045 0.97935 0.0
H366 H 0.70458 0.67874 0.98525 0.0
H367 H 0.82581 0.59493 0.03794 0.0
H368 H 0.88285 0.74649 0.01835 0.0
H369 H 0.77969 0.70931 0.9947 0.0
H370 H 0.8414 0.61185 0.00368 0.0
O371 O 0.86792 0.76429 0.92295 0.0
H372 H 0.94774 0.84781 0.96265 0.0
H373 H 0.93512 0.79814 0.90527 0.0
H374 H 0.86745 0.73111 0.05276 0.0
H375 H 0.77049 0.59179 0.94385 0.0
H376 H 0.83872 0.65485 0.06274 0.0
H377 H 0.69963 0.61939 0.95971 0.0
O378 O 0.93599 0.71853 0.99032 0.0
H379 H 0.95953 0.63259 0.90063 0.0
H380 H 0.01378 0.76727 0.93662 0.0
H381 H 0.06859 0.72164 0.91778 0.0
H382 H 0.04154 0.65382 0.89952 0.0
H383 H 0.90614 0.67875 0.91979 0.0
H384 H 0.96664 0.87025 0.89253 0.0
H385 H 0.98936 0.93186 0.91525 0.0
O386 O 0.96023 0.76301 0.9659 0.0
C387 C 0.84879 0.79277 0.97603 0.0
C388 C 0.97006 0.89365 0.94051 0.0
C389 C 0.96263 0.8656 0.90795 0.0
N390 N 0.93974 0.81871 0.9347 0.0
C391 C 0.952 0.8525 0.94728 0.0
C392 C 0.94466 0.82491 0.91524 0.0
C393 C 0.9754 0.90014 0.9207 0.0
C394 C 0.81425 0.6358 0.96058 0.0
N395 N 0.81668 0.66865 0.97456 0.0
C396 C 0.7722 0.61761 0.95501 0.0
C397 C 0.73245 0.63317 0.96389 0.0
C398 C 0.73519 0.66654 0.97819 0.0
C399 C 0.77784 0.68395 0.98339 0.0
C400 C 0.83825 0.62831 0.03377 0.0
C401 C 0.8701 0.71331 0.02257 0.0
C402 C 0.84723 0.63807 0.01439 0.0
N403 N 0.86276 0.68021 0.00901 0.0
C404 C 0.86156 0.70476 0.04208 0.0
C405 C 0.84549 0.66195 0.04768 0.0
C406 C 0.96482 0.74589 0.98273 0.0
C407 C 0.97168 0.66229 0.90839 0.0
C408 C 1.00163 0.73789 0.9287 0.0
C409 C 0.03289 0.71217 0.91805 0.0
C410 C 0.0177 0.67414 0.90781 0.0
N411 N 0.9564 0.72639 0.92906 0.0
C412 C 0.94141 0.68887 0.91919 0.0
Co413 Co 0.70059 0.10326 0.01798 0.0
Co414 Co 0.76295 0.08775 0.05937 0.0
O415 O 0.70607 0.10245 0.04606 0.0
C416 C 0.62265 0.0446 0.02991 0.0
O417 O 0.65196 0.0179 0.03877 0.0
C418 C 0.7326 0.17478 0.07642 0.0
O419 O 0.72303 0.18796 0.05878 0.0
O420 O 0.79602 0.13463 0.04426 0.0
O421 O 0.76458 0.12779 0.01484 0.0
H422 H 0.93064 0.05306 0.06361 0.0
H423 H 0.62932 0.14936 0.04142 0.0
O424 O 0.63653 0.07951 0.02059 0.0
H425 H 0.69439 0.26983 0.99997 0.0
H426 H 0.61695 0.12877 0.95539 0.0
H427 H 0.76051 0.07664 0.98536 0.0
H428 H 0.72259 0.19063 0.99782 0.0
H429 H 0.62595 0.12911 0.99082 0.0
O430 O 0.74888 0.13508 0.07954 0.0
H431 H 0.85826 0.07032 0.04694 0.0
H432 H 0.78885 0.07633 0.10072 0.0
H433 H 0.75312 0.07611 0.94988 0.0
H434 H 0.59966 0.22797 0.04383 0.0
H435 H 0.68092 0.10231 0.93467 0.0
H436 H 0.6324 0.28891 0.02307 0.0
O437 O 0.72469 0.03979 0.01641 0.0
H438 H 0.63254 0.0285 0.09921 0.0
H439 H 0.7799 0.98982 0.06892 0.0
H440 H 0.73761 0.93052 0.08682 0.0
H441 H 0.6634 0.94976 0.10214 0.0
H442 H 0.67584 0.08666 0.08105 0.0
H443 H 0.86057 0.05949 0.118 0.0
H444 H 0.93208 0.04753 0.0994 0.0
O445 O 0.77897 0.04057 0.03939 0.0
C446 C 0.79591 0.14227 0.02616 0.0
C447 C 0.89966 0.05802 0.07187 0.0
C448 C 0.86035 0.06169 0.1024 0.0
N449 N 0.8193 0.07386 0.07284 0.0
C450 C 0.85855 0.06765 0.06251 0.0
C451 C 0.81987 0.07128 0.09254 0.0
C452 C 0.90046 0.05497 0.09196 0.0
C453 C 0.64333 0.17553 0.03215 0.0
N454 N 0.67756 0.16534 0.01945 0.0
C455 C 0.62658 0.22006 0.03366 0.0
C456 C 0.64503 0.25425 0.02204 0.0
C457 C 0.67986 0.24358 0.0091 0.0
C458 C 0.69581 0.19869 0.008 0.0
C459 C 0.64861 0.11737 0.96185 0.0
C460 C 0.72909 0.08838 0.97884 0.0
C461 C 0.65387 0.1174 0.98189 0.0
N462 N 0.69386 0.10329 0.99013 0.0
C463 C 0.72506 0.08787 0.95875 0.0
C464 C 0.68452 0.10253 0.95023 0.0
C465 C 0.75974 0.02282 0.02463 0.0
C466 C 0.66491 0.01974 0.09265 0.0
C467 C 0.74759 0.99842 0.07552 0.0
C468 C 0.72384 0.96473 0.08567 0.0
C469 C 0.68221 0.97555 0.09427 0.0
N470 N 0.73044 0.04171 0.07406 0.0
C471 C 0.68964 0.05257 0.08242 0.0
Co472 Co 0.59895 0.70291 0.76988 0.0
Co473 Co 0.59008 0.77532 0.80922 0.0
O474 O 0.60132 0.71548 0.7976 0.0
C475 C 0.53104 0.63584 0.78455 0.0
O476 O 0.50827 0.67 0.79216 0.0
C477 C 0.68103 0.74754 0.82379 0.0
O478 O 0.69013 0.73226 0.80641 0.0
O479 O 0.63173 0.8058 0.79044 0.0
O480 O 0.62963 0.76217 0.76375 0.0
H481 H 0.55308 0.94291 0.80829 0.0
H482 H 0.63818 0.63324 0.79621 0.0
O483 O 0.56811 0.643 0.77541 0.0
H484 H 0.76246 0.67344 0.75131 0.0
H485 H 0.61044 0.60144 0.71139 0.0
H486 H 0.57667 0.75685 0.73485 0.0
H487 H 0.68675 0.70958 0.74827 0.0
H488 H 0.61467 0.6194 0.74615 0.0
O489 O 0.64271 0.7662 0.82741 0.0
H490 H 0.5667 0.86697 0.79395 0.0
H491 H 0.59078 0.81094 0.84961 0.0
H492 H 0.57229 0.74047 0.69997 0.0
H493 H 0.71323 0.59592 0.79964 0.0
H494 H 0.58926 0.66226 0.68803 0.0
H495 H 0.77605 0.6161 0.77712 0.0
O496 O 0.53869 0.73392 0.76747 0.0
H497 H 0.54503 0.65295 0.85638 0.0
H498 H 0.49653 0.79498 0.82408 0.0
H499 H 0.44386 0.75655 0.84661 0.0
H500 H 0.46809 0.68502 0.86298 0.0
H501 H 0.59639 0.69233 0.83358 0.0
H502 H 0.57781 0.88635 0.86454 0.0
H503 H 0.55861 0.95295 0.84383 0.0
O504 O 0.53709 0.78575 0.79149 0.0
C505 C 0.64155 0.79826 0.77276 0.0
C506 C 0.56126 0.91412 0.81747 0.0
C507 C 0.57521 0.88239 0.84904 0.0
N508 N 0.57915 0.83451 0.82094 0.0
C509 C 0.56887 0.87102 0.80944 0.0
C510 C 0.58263 0.8398 0.8405 0.0
C511 C 0.56442 0.91974 0.83741 0.0
C512 C 0.66519 0.64181 0.78622 0.0
N513 N 0.65803 0.6734 0.77201 0.0
C514 C 0.70768 0.62073 0.78829 0.0
C515 C 0.74294 0.63214 0.77568 0.0
C516 C 0.73535 0.66434 0.7612 0.0
C517 C 0.69244 0.68479 0.75958 0.0
C518 C 0.60308 0.63567 0.71641 0.0
C519 C 0.5844 0.72282 0.72975 0.0
C520 C 0.60535 0.64603 0.73607 0.0
N521 N 0.59631 0.68924 0.7425 0.0
C522 C 0.58173 0.71371 0.70999 0.0
C523 C 0.5912 0.66982 0.70331 0.0
C524 C 0.52015 0.76727 0.77639 0.0
C525 C 0.53409 0.68411 0.84935 0.0
C526 C 0.50715 0.76373 0.83103 0.0
C527 C 0.47727 0.7422 0.84384 0.0
C528 C 0.49091 0.70209 0.85303 0.0
N529 N 0.54944 0.74591 0.8275 0.0
C530 C 0.56306 0.70662 0.83647 0.0
Co531 Co 0.71101 0.39924 0.23187 0.0
Co532 Co 0.77945 0.41519 0.19223 0.0
O533 O 0.72011 0.40164 0.20385 0.0
C534 C 0.63541 0.46144 0.22005 0.0
O535 O 0.66597 0.48922 0.21267 0.0
C536 C 0.73642 0.3419 0.16718 0.0
O537 O 0.69874 0.34215 0.17736 0.0
O538 O 0.80775 0.36545 0.20736 0.0
O539 O 0.77409 0.37358 0.23623 0.0
H540 H 0.94863 0.44317 0.19403 0.0
H541 H 0.64045 0.35584 0.20712 0.0
O542 O 0.64772 0.42436 0.22819 0.0
H543 H 0.70074 0.23176 0.24797 0.0
H544 H 0.61924 0.3715 0.2922 0.0
H545 H 0.76705 0.42316 0.26608 0.0
H546 H 0.73009 0.31025 0.25131 0.0
H547 H 0.63275 0.37291 0.25704 0.0
O548 O 0.76906 0.36936 0.17091 0.0
H549 H 0.87278 0.42752 0.20798 0.0
H550 H 0.8134 0.42918 0.15203 0.0
H551 H 0.75513 0.42194 0.30133 0.0
H552 H 0.60971 0.27794 0.20348 0.0
H553 H 0.68076 0.39596 0.3146 0.0
H554 H 0.64002 0.21518 0.22394 0.0
O555 O 0.7359 0.46206 0.23464 0.0
H556 H 0.65767 0.48748 0.1508 0.0
H557 H 0.80421 0.51185 0.18421 0.0
H558 H 0.76906 0.57538 0.16623 0.0
H559 H 0.69533 0.56338 0.14928 0.0
H560 H 0.69369 0.42519 0.16907 0.0
H561 H 0.88872 0.44448 0.13745 0.0
H562 H 0.95695 0.45179 0.15852 0.0
O563 O 0.79367 0.46023 0.21332 0.0
C564 C 0.80567 0.3577 0.22541 0.0
C565 C 0.91913 0.44025 0.18471 0.0
C566 C 0.88551 0.44092 0.15295 0.0
N567 N 0.83864 0.42792 0.18085 0.0
C568 C 0.87606 0.43154 0.19253 0.0
C569 C 0.84298 0.43217 0.16128 0.0
C570 C 0.92378 0.44502 0.16478 0.0
C571 C 0.6537 0.32879 0.21614 0.0
N572 N 0.68731 0.3376 0.22929 0.0
C573 C 0.63621 0.28471 0.21398 0.0
C574 C 0.65326 0.24951 0.22545 0.0
C575 C 0.68738 0.25877 0.23891 0.0
C576 C 0.70407 0.30327 0.24065 0.0
C577 C 0.65182 0.38278 0.28659 0.0
C578 C 0.73471 0.41152 0.27175 0.0
C579 C 0.65965 0.38373 0.2667 0.0
N580 N 0.7008 0.39771 0.25953 0.0
C581 C 0.72811 0.41103 0.29172 0.0
C582 C 0.68636 0.3965 0.29915 0.0
C583 C 0.77273 0.47811 0.22762 0.0
C584 C 0.69002 0.49302 0.15798 0.0
C585 C 0.77221 0.50619 0.17682 0.0
C586 C 0.75245 0.54237 0.16667 0.0
C587 C 0.7111 0.53563 0.15717 0.0
N588 N 0.75162 0.46427 0.17738 0.0
C589 C 0.71083 0.45762 0.16826 0.0
Co590 Co 0.40868 0.29795 0.77162 0.0
Co591 Co 0.42658 0.23501 0.8132 0.0
O592 O 0.40911 0.29062 0.79964 0.0
C593 C 0.47277 0.36942 0.78467 0.0
O594 O 0.49471 0.33693 0.79385 0.0
C595 C 0.33246 0.25191 0.82693 0.0
O596 O 0.32085 0.25747 0.80877 0.0
O597 O 0.38759 0.19705 0.79591 0.0
O598 O 0.38061 0.23614 0.76805 0.0
H599 H 0.47946 0.07214 0.81818 0.0
H600 H 0.36772 0.36946 0.79658 0.0
O601 O 0.43707 0.36012 0.77488 0.0
H602 H 0.24242 0.31547 0.75487 0.0
H603 H 0.38709 0.38786 0.71034 0.0
H604 H 0.43012 0.23876 0.73804 0.0
H605 H 0.31982 0.28319 0.75162 0.0
H606 H 0.38707 0.37613 0.74562 0.0
O607 O 0.37377 0.24312 0.83133 0.0
H608 H 0.45825 0.14313 0.80119 0.0
H609 H 0.43027 0.20811 0.85473 0.0
H610 H 0.43028 0.24885 0.70269 0.0
H611 H 0.29093 0.40293 0.8002 0.0
H612 H 0.40865 0.32386 0.68862 0.0
H613 H 0.22761 0.37584 0.77928 0.0
O614 O 0.47037 0.26978 0.76906 0.0
H615 H 0.46084 0.37025 0.85543 0.0
H616 H 0.52208 0.22761 0.82782 0.0
H617 H 0.57147 0.27549 0.84837 0.0
H618 H 0.54084 0.34738 0.86235 0.0
H619 H 0.41283 0.32151 0.83464 0.0
H620 H 0.45077 0.13771 0.87229 0.0
H621 H 0.47577 0.06915 0.85399 0.0
O622 O 0.47974 0.22594 0.79548 0.0
C623 C 0.37381 0.20079 0.77848 0.0
C624 C 0.46878 0.10184 0.82632 0.0
C625 C 0.45261 0.13863 0.85669 0.0
N626 N 0.44343 0.17981 0.82696 0.0
C627 C 0.45687 0.14217 0.81678 0.0
C628 C 0.44094 0.17835 0.84666 0.0
C629 C 0.46665 0.10017 0.84641 0.0
C630 C 0.34044 0.35779 0.7873 0.0
N631 N 0.3483 0.32462 0.77382 0.0
C632 C 0.29699 0.37674 0.78947 0.0
C633 C 0.26146 0.36148 0.77775 0.0
C634 C 0.26974 0.32759 0.76405 0.0
C635 C 0.31362 0.30939 0.7623 0.0
C636 C 0.39648 0.35499 0.71629 0.0
C637 C 0.42036 0.27139 0.73202 0.0
C638 C 0.39662 0.34817 0.73626 0.0
N639 N 0.40821 0.30668 0.74386 0.0
C640 C 0.42065 0.27695 0.712 0.0
C641 C 0.40857 0.31906 0.70411 0.0
C642 C 0.49306 0.24119 0.77915 0.0
C643 C 0.47458 0.33899 0.84943 0.0
C644 C 0.50865 0.25897 0.83375 0.0
C645 C 0.5367 0.28587 0.84543 0.0
C646 C 0.51947 0.32617 0.85329 0.0
N647 N 0.46468 0.2718 0.83001 0.0
C648 C 0.44752 0.31121 0.83769 0.0
Co649 Co 0.30684 0.6235 0.2356 0.0
Co650 Co 0.23523 0.59219 0.19828 0.0
O651 O 0.29297 0.61532 0.20829 0.0
C652 C 0.38214 0.5628 0.22277 0.0
O653 O 0.35097 0.53422 0.21648 0.0
C654 C 0.245 0.68191 0.17927 0.0
O655 O 0.25277 0.69838 0.1966 0.0
O656 O 0.19951 0.63503 0.21488 0.0
O657 O 0.24393 0.64693 0.24088 0.0
H658 H 0.07476 0.5327 0.20309 0.0
H659 H 0.36764 0.66402 0.20593 0.0
O660 O 0.37039 0.60021 0.23078 0.0
H661 H 0.31176 0.79409 0.24453 0.0
H662 H 0.4079 0.66828 0.29125 0.0
H663 H 0.25848 0.6049 0.27241 0.0
H664 H 0.28837 0.71536 0.25248 0.0
H665 H 0.388 0.65862 0.25688 0.0
O666 O 0.23722 0.63935 0.17713 0.0
H667 H 0.14801 0.56155 0.21573 0.0
H668 H 0.19941 0.57482 0.15866 0.0
H669 H 0.2768 0.61428 0.30694 0.0
H670 H 0.39219 0.74216 0.19758 0.0
H671 H 0.35201 0.64618 0.31655 0.0
H672 H 0.36408 0.80787 0.21691 0.0
O673 O 0.28532 0.56058 0.24183 0.0
H674 H 0.36075 0.54874 0.15239 0.0
H675 H 0.22933 0.49242 0.18993 0.0
H676 H 0.27411 0.4383 0.17028 0.0
H677 H 0.34032 0.46643 0.15129 0.0
H678 H 0.31524 0.60158 0.17238 0.0
H679 H 0.12656 0.5465 0.14539 0.0
H680 H 0.06369 0.52503 0.16767 0.0
O681 O 0.23239 0.54487 0.21921 0.0
C682 C 0.20626 0.65111 0.23178 0.0
C683 C 0.10195 0.54181 0.19323 0.0
C684 C 0.131 0.54962 0.16084 0.0
N685 N 0.17805 0.5695 0.18795 0.0
C686 C 0.14354 0.55803 0.20031 0.0
C687 C 0.17213 0.56573 0.16844 0.0
C688 C 0.09575 0.53756 0.17336 0.0
C689 C 0.35564 0.6924 0.21453 0.0
N690 N 0.32684 0.68512 0.22974 0.0
C691 C 0.3695 0.73658 0.20969 0.0
C692 C 0.35366 0.77344 0.22052 0.0
C693 C 0.32428 0.76573 0.23601 0.0
C694 C 0.31109 0.72109 0.24042 0.0
C695 C 0.37498 0.65444 0.28725 0.0
C696 C 0.29113 0.61912 0.27648 0.0
C697 C 0.36355 0.64883 0.26781 0.0
N698 N 0.32194 0.63161 0.26265 0.0
C699 C 0.30137 0.62421 0.29606 0.0
C700 C 0.34359 0.64205 0.30144 0.0
C701 C 0.25378 0.53544 0.23481 0.0
C702 C 0.33193 0.53609 0.16057 0.0
C703 C 0.25821 0.50485 0.18179 0.0
C704 C 0.28336 0.47409 0.17064 0.0
C705 C 0.32048 0.4899 0.15998 0.0
N706 N 0.26961 0.5501 0.18227 0.0
C707 C 0.30596 0.56586 0.17187 0.0
Co708 Co 0.60636 0.7905 0.48207 0.0
Co709 Co 0.58736 0.73514 0.43856 0.0
O710 O 0.60671 0.78805 0.45378 0.0
C711 C 0.54879 0.86833 0.4699 0.0
O712 O 0.53243 0.842 0.45623 0.0
C713 C 0.68231 0.74972 0.42477 0.0
O714 O 0.69546 0.75171 0.44287 0.0
O715 O 0.62508 0.69312 0.45471 0.0
O716 O 0.6326 0.72768 0.48356 0.0
H717 H 0.52918 0.57529 0.42902 0.0
H718 H 0.64981 0.86518 0.45982 0.0
O719 O 0.57933 0.8535 0.4814 0.0
H720 H 0.77268 0.79985 0.49991 0.0
H721 H 0.62934 0.86684 0.54649 0.0
H722 H 0.58154 0.72575 0.51328 0.0
H723 H 0.69434 0.76932 0.50182 0.0
H724 H 0.63021 0.86227 0.51092 0.0
O725 O 0.64032 0.74405 0.42065 0.0
H726 H 0.55276 0.64266 0.44796 0.0
H727 H 0.58257 0.71512 0.39634 0.0
H728 H 0.5805 0.72867 0.54887 0.0
H729 H 0.72761 0.897 0.45754 0.0
H730 H 0.60451 0.79964 0.56571 0.0
H731 H 0.78969 0.86421 0.47767 0.0
O732 O 0.54374 0.76461 0.48337 0.0
H733 H 0.55893 0.87693 0.39948 0.0
H734 H 0.49138 0.73408 0.42408 0.0
H735 H 0.44411 0.78667 0.40472 0.0
H736 H 0.47792 0.85869 0.39226 0.0
H737 H 0.60478 0.82356 0.41908 0.0
H738 H 0.55971 0.64842 0.37685 0.0
H739 H 0.5326 0.57793 0.3932 0.0
O740 O 0.53366 0.72506 0.45589 0.0
C741 C 0.63876 0.69391 0.47222 0.0
C742 C 0.54078 0.60587 0.42173 0.0
C743 C 0.55798 0.64689 0.39245 0.0
N744 N 0.56866 0.68289 0.42327 0.0
C745 C 0.55404 0.64415 0.43238 0.0
C746 C 0.57098 0.68451 0.40357 0.0
C747 C 0.54276 0.60735 0.40163 0.0
C748 C 0.67658 0.85102 0.46873 0.0
N749 N 0.66751 0.81566 0.48102 0.0
C750 C 0.72059 0.86905 0.46733 0.0
C751 C 0.75542 0.85059 0.47861 0.0
C752 C 0.7459 0.81447 0.49109 0.0
C753 C 0.70151 0.79727 0.49208 0.0
C754 C 0.61892 0.83569 0.53932 0.0
C755 C 0.5924 0.7566 0.52051 0.0
C756 C 0.61928 0.83292 0.51919 0.0
N757 N 0.60637 0.79361 0.51005 0.0
C758 C 0.59158 0.75812 0.54066 0.0
C759 C 0.605 0.79796 0.5501 0.0
C760 C 0.52029 0.73856 0.47247 0.0
C761 C 0.54383 0.84564 0.40481 0.0
C762 C 0.5062 0.76549 0.41883 0.0
C763 C 0.47935 0.79505 0.4078 0.0
C764 C 0.49835 0.83542 0.40079 0.0
N765 N 0.55073 0.7758 0.42276 0.0
C766 C 0.56967 0.81521 0.41586 0.0
Co767 Co 0.80314 0.40082 0.52224 0.0
Co768 Co 0.73336 0.4109 0.56234 0.0
O769 O 0.7917 0.39674 0.55005 0.0
C770 C 0.87344 0.45938 0.54008 0.0
O771 O 0.84171 0.4741 0.5519 0.0
C772 C 0.75135 0.31621 0.57618 0.0
O773 O 0.75791 0.3038 0.55817 0.0
O774 O 0.69991 0.37154 0.54355 0.0
O775 O 0.74243 0.373 0.51648 0.0
H776 H 0.56788 0.45589 0.56348 0.0
H777 H 0.87144 0.35674 0.54773 0.0
O778 O 0.86415 0.42957 0.52728 0.0
H779 H 0.82458 0.23736 0.50157 0.0
H780 H 0.90089 0.38915 0.46265 0.0
H781 H 0.74836 0.42742 0.48801 0.0
H782 H 0.79204 0.31495 0.49956 0.0
H783 H 0.88457 0.38326 0.49751 0.0
O784 O 0.74133 0.35749 0.58018 0.0
H785 H 0.64208 0.43904 0.54822 0.0
H786 H 0.70028 0.41074 0.60312 0.0
H787 H 0.76304 0.43349 0.45304 0.0
H788 H 0.9051 0.27968 0.55018 0.0
H789 H 0.83981 0.41428 0.44015 0.0
H790 H 0.88159 0.21935 0.52701 0.0
O791 O 0.77518 0.46262 0.52077 0.0
H792 H 0.85889 0.44719 0.60934 0.0
H793 H 0.71994 0.50532 0.57758 0.0
H794 H 0.76189 0.55501 0.60021 0.0
H795 H 0.83189 0.52593 0.6163 0.0
H796 H 0.81619 0.39892 0.58642 0.0
H797 H 0.62662 0.42692 0.61895 0.0
H798 H 0.55982 0.44986 0.5991 0.0
O799 O 0.72427 0.46504 0.54505 0.0
C800 C 0.70633 0.36223 0.52573 0.0
C801 C 0.59678 0.44608 0.57229 0.0
C802 C 0.62973 0.42975 0.60342 0.0
N803 N 0.67556 0.4243 0.57478 0.0
C804 C 0.63891 0.43663 0.56374 0.0
C805 C 0.67133 0.42054 0.59437 0.0
C806 C 0.59226 0.44264 0.59228 0.0
C807 C 0.86136 0.33076 0.5375 0.0
N808 N 0.83006 0.34038 0.52345 0.0
C809 C 0.88039 0.28715 0.539 0.0
C810 C 0.86714 0.2533 0.52601 0.0
C811 C 0.83514 0.26338 0.51174 0.0
C812 C 0.81678 0.30734 0.51069 0.0
C813 C 0.86727 0.3975 0.46808 0.0
C814 C 0.78172 0.41866 0.48249 0.0
C815 C 0.85785 0.39429 0.48781 0.0
N816 N 0.81541 0.40461 0.49476 0.0
C817 C 0.78989 0.42231 0.46268 0.0
C818 C 0.83298 0.41159 0.45546 0.0
C819 C 0.74289 0.482 0.52999 0.0
C820 C 0.82842 0.46024 0.60244 0.0
C821 C 0.75057 0.49262 0.58438 0.0
C822 C 0.77406 0.5208 0.59726 0.0
C823 C 0.81329 0.50444 0.60631 0.0
N824 N 0.76567 0.44935 0.58062 0.0
C825 C 0.80399 0.433 0.5895 0.0
Co826 Co 0.39422 0.19297 0.48451 0.0
Co827 Co 0.41981 0.26783 0.44734 0.0
O828 O 0.3987 0.20906 0.45717 0.0
C829 C 0.45423 0.12343 0.46715 0.0
O830 O 0.47335 0.15691 0.45753 0.0
C831 C 0.32803 0.2575 0.43012 0.0
O832 O 0.31337 0.24797 0.44758 0.0
O833 O 0.37889 0.30132 0.46547 0.0
O834 O 0.36779 0.25433 0.4908 0.0
H835 H 0.4769 0.42913 0.45297 0.0
H836 H 0.35472 0.13138 0.45492 0.0
O837 O 0.42156 0.1314 0.47884 0.0
H838 H 0.22533 0.17754 0.49607 0.0
H839 H 0.36111 0.0862 0.53973 0.0
H840 H 0.41295 0.24053 0.5215 0.0
H841 H 0.30317 0.20515 0.50301 0.0
H842 H 0.36632 0.10856 0.50545 0.0
O843 O 0.37004 0.26669 0.42737 0.0
H844 H 0.45119 0.35431 0.46524 0.0
H845 H 0.43127 0.30699 0.40788 0.0
H846 H 0.4079 0.21978 0.55596 0.0
H847 H 0.2775 0.1027 0.44753 0.0
H848 H 0.38183 0.14208 0.56526 0.0
H849 H 0.21213 0.1259 0.46816 0.0
O850 O 0.4562 0.21717 0.48993 0.0
H851 H 0.45798 0.14767 0.3981 0.0
H852 H 0.51818 0.27563 0.43675 0.0
H853 H 0.56987 0.2335 0.41501 0.0
H854 H 0.53978 0.16904 0.39546 0.0
H855 H 0.40764 0.1904 0.42021 0.0
H856 H 0.45642 0.38142 0.39499 0.0
H857 H 0.47963 0.44305 0.4176 0.0
O858 O 0.46996 0.26994 0.46704 0.0
C859 C 0.36319 0.2928 0.4823 0.0
C860 C 0.46703 0.40249 0.44297 0.0
C861 C 0.45546 0.37574 0.41042 0.0
N862 N 0.44013 0.32622 0.43728 0.0
C863 C 0.45257 0.36002 0.44983 0.0
C864 C 0.44117 0.3337 0.41781 0.0
C865 C 0.4685 0.4103 0.42312 0.0
C866 C 0.32651 0.14125 0.46407 0.0
N867 N 0.33346 0.16964 0.47944 0.0
C868 C 0.28284 0.12506 0.45977 0.0
C869 C 0.24617 0.13815 0.47134 0.0
C870 C 0.25354 0.16714 0.48699 0.0
C871 C 0.29767 0.18272 0.49083 0.0
C872 C 0.37241 0.12019 0.53586 0.0
C873 C 0.40123 0.2068 0.52545 0.0
C874 C 0.37549 0.13302 0.51648 0.0
N875 N 0.38953 0.17596 0.5115 0.0
C876 C 0.39859 0.19518 0.54497 0.0
C877 C 0.38402 0.15157 0.55018 0.0
C878 C 0.48066 0.24858 0.48248 0.0
C879 C 0.47147 0.17575 0.40651 0.0
C880 C 0.50492 0.24746 0.42839 0.0
C881 C 0.5343 0.22384 0.41604 0.0
C882 C 0.51738 0.18771 0.40506 0.0
N883 N 0.45995 0.2355 0.42975 0.0
C884 C 0.44308 0.20021 0.41898 0.0
Co885 Co 0.20394 0.61338 0.51844 0.0
Co886 Co 0.26241 0.58162 0.5598 0.0
O887 O 0.20926 0.60641 0.54641 0.0
C888 C 0.12689 0.55465 0.53006 0.0
O889 O 0.15517 0.53452 0.54202 0.0
C890 C 0.25191 0.67465 0.57543 0.0
O891 O 0.24727 0.68766 0.5574 0.0
O892 O 0.30477 0.6197 0.54411 0.0
O893 O 0.26733 0.63854 0.51686 0.0
H894 H 0.41921 0.51296 0.56455 0.0
H895 H 0.13272 0.65249 0.54396 0.0
O896 O 0.14048 0.58738 0.51936 0.0
H897 H 0.19703 0.78357 0.50847 0.0
H898 H 0.12101 0.65376 0.45711 0.0
H899 H 0.26468 0.59587 0.48498 0.0
H900 H 0.22512 0.70544 0.50236 0.0
H901 H 0.12954 0.64528 0.49237 0.0
O902 O 0.25802 0.63247 0.57933 0.0
H903 H 0.35167 0.54351 0.54762 0.0
H904 H 0.28624 0.56884 0.60129 0.0
H905 H 0.25783 0.60421 0.44966 0.0
H906 H 0.10338 0.73 0.55043 0.0
H907 H 0.18554 0.63332 0.4355 0.0
H908 H 0.1357 0.79621 0.53265 0.0
O909 O 0.22833 0.5511 0.5139 0.0
H910 H 0.12394 0.55321 0.60088 0.0
H911 H 0.25914 0.48304 0.57056 0.0
H912 H 0.20614 0.43489 0.58931 0.0
H913 H 0.13797 0.46999 0.60463 0.0
H914 H 0.17764 0.6 0.58187 0.0
H915 H 0.35323 0.53893 0.61881 0.0
H916 H 0.42026 0.51055 0.6004 0.0
O917 O 0.26791 0.5308 0.5404 0.0
C918 C 0.3028 0.63881 0.52757 0.0
C919 C 0.39015 0.52507 0.57273 0.0
C920 C 0.35314 0.53971 0.60319 0.0
N921 N 0.31493 0.55754 0.57346 0.0
C922 C 0.35176 0.54226 0.56323 0.0
C923 C 0.31535 0.55668 0.59319 0.0
C924 C 0.39073 0.52378 0.59285 0.0
C925 C 0.1466 0.68108 0.53603 0.0
N926 N 0.18035 0.67444 0.52271 0.0
C927 C 0.13001 0.72491 0.53981 0.0
C928 C 0.1482 0.76206 0.52985 0.0
C929 C 0.18263 0.75499 0.51629 0.0
C930 C 0.19844 0.71069 0.51291 0.0
C931 C 0.15272 0.64115 0.4631 0.0
C932 C 0.23328 0.60893 0.47894 0.0
C933 C 0.15771 0.6362 0.48305 0.0
N934 N 0.19774 0.62051 0.49072 0.0
C935 C 0.22953 0.61341 0.45892 0.0
C936 C 0.18894 0.62969 0.45099 0.0
C937 C 0.25346 0.52328 0.52326 0.0
C938 C 0.15359 0.53755 0.59432 0.0
C939 C 0.22949 0.49852 0.57714 0.0
C940 C 0.19966 0.47112 0.58778 0.0
C941 C 0.16144 0.49084 0.59639 0.0
N942 N 0.22154 0.54429 0.57517 0.0
C943 C 0.18422 0.5639 0.58361 0.0
H944 H 0.19383 0.38073 0.29357 0.0
H945 H 0.13303 0.32693 0.24153 0.0
H946 H 0.16352 0.39054 0.22301 0.0
H947 H 0.20516 0.46274 0.22156 0.0
H948 H 0.26988 0.51549 0.2729 0.0
H949 H 0.24051 0.45106 0.29157 0.0
C950 C 0.18738 0.38294 0.27818 0.0
C951 C 0.16087 0.34914 0.26903 0.0
C952 C 0.20576 0.41945 0.26742 0.0
C953 C 0.15331 0.35227 0.249 0.0
C954 C 0.17068 0.38877 0.23835 0.0
C955 C 0.2132 0.46009 0.2368 0.0
C956 C 0.23951 0.49421 0.24577 0.0
C957 C 0.19666 0.42271 0.24741 0.0
C958 C 0.24976 0.48981 0.26555 0.0
C959 C 0.2328 0.453 0.27629 0.0
H960 H 0.48927 0.76361 0.73936 0.0
H961 H 0.45471 0.81511 0.79589 0.0
H962 H 0.38564 0.84998 0.78294 0.0
H963 H 0.33652 0.86855 0.75534 0.0
H964 H 0.37408 0.82244 0.69834 0.0
H965 H 0.44044 0.78279 0.71167 0.0
C966 C 0.46646 0.78213 0.74888 0.0
C967 C 0.47715 0.7865 0.76861 0.0
C968 C 0.4274 0.80331 0.74122 0.0
C969 C 0.44742 0.81116 0.78067 0.0
C970 C 0.40786 0.83117 0.77327 0.0
C971 C 0.35903 0.84955 0.74586 0.0
C972 C 0.35034 0.84839 0.7259 0.0
C973 C 0.39773 0.82784 0.75354 0.0
C974 C 0.38015 0.82405 0.71376 0.0
C975 C 0.41805 0.80131 0.72137 0.0
H976 H 0.7333 0.55788 0.23892 0.0
H977 H 0.86123 0.48518 0.23801 0.0
H978 H 0.89879 0.54864 0.2546 0.0
H979 H 0.89561 0.62556 0.26886 0.0
H980 H 0.77027 0.70222 0.26655 0.0
H981 H 0.73109 0.63681 0.25181 0.0
C982 C 0.76935 0.55613 0.24243 0.0
C983 C 0.79456 0.5171 0.23739 0.0
C984 C 0.79105 0.59344 0.25139 0.0
C985 C 0.84134 0.51514 0.24172 0.0
C986 C 0.86275 0.55129 0.25124 0.0
C987 C 0.85964 0.62761 0.26523 0.0
C988 C 0.83551 0.66807 0.26893 0.0
C989 C 0.83801 0.59065 0.2561 0.0
C990 C 0.78925 0.6711 0.26384 0.0
C991 C 0.76695 0.6338 0.25543 0.0
H992 H 0.51862 0.23311 0.74151 0.0
H993 H 0.56631 0.21066 0.7997 0.0
H994 H 0.63781 0.17965 0.78736 0.0
H995 H 0.68562 0.1562 0.76016 0.0
H996 H 0.63615 0.17284 0.70189 0.0
H997 H 0.56661 0.20895 0.71413 0.0
C998 C 0.54483 0.22178 0.75148 0.0
C999 C 0.53714 0.22435 0.77151 0.0
C1000 C 0.58548 0.20277 0.74427 0.0
C1001 C 0.57122 0.20897 0.78423 0.0
C1002 C 0.61218 0.19124 0.77719 0.0
C1003 C 0.65983 0.168 0.75011 0.0
C1004 C 0.66616 0.16189 0.73014 0.0
C1005 C 0.6195 0.18758 0.75725 0.0
C1006 C 0.63207 0.17698 0.71734 0.0
C1007 C 0.59232 0.19767 0.72432 0.0
H1008 H 0.23368 0.00477 0.99095 0.0
H1009 H 0.19031 0.04699 0.04776 0.0
H1010 H 0.15785 0.11667 0.03441 0.0
H1011 H 0.13883 0.16436 0.00659 0.0
H1012 H 0.17657 0.12039 0.94929 0.0
H1013 H 0.21387 0.05275 0.96281 0.0
C1014 C 0.21751 0.02941 1.00042 0.0
C1015 C 0.21472 0.02058 0.02039 0.0
C1016 C 0.1975 0.06902 0.99253 0.0
C1017 C 0.19306 0.05272 0.03239 0.0
C1018 C 0.17436 0.09267 0.02474 0.0
C1019 C 0.1554 0.14017 0.99702 0.0
C1020 C 0.15489 0.14759 0.97694 0.0
C1021 C 0.17592 0.10094 0.00483 0.0
C1022 C 0.17623 0.11551 0.96479 0.0
C1023 C 0.19768 0.07684 0.97252 0.0
H1024 H 0.11367 0.81649 0.04195 0.0
H1025 H 0.18216 0.84849 0.98835 0.0
H1026 H 0.11975 0.81515 0.97017 0.0
H1027 H 0.04458 0.77982 0.96911 0.0
H1028 H 0.97574 0.7446 0.02211 0.0
H1029 H 0.03956 0.77568 0.04079 0.0
C1030 C 0.115 0.816 0.0263 0.0
C1031 C 0.1526 0.83547 0.01663 0.0
C1032 C 0.07894 0.7961 0.01576 0.0
C1033 C 0.15383 0.83401 0.9963 0.0
C1034 C 0.11803 0.81493 0.98581 0.0
C1035 C 0.04352 0.77864 0.98475 0.0
C1036 C 0.00521 0.76019 0.99416 0.0
C1037 C 0.08027 0.79632 0.99535 0.0
C1038 C 0.00483 0.7585 0.01446 0.0
C1039 C 0.04124 0.7765 0.02517 0.0
H1040 H 0.88466 0.8743 0.98535 0.0
H1041 H 0.75906 0.79798 0.98614 0.0
H1042 H 0.71921 0.86341 1.00062 0.0
H1043 H 0.72077 0.94268 0.01335 0.0
H1044 H 0.8489 0.01477 0.01571 0.0
H1045 H 0.88731 0.95093 0.99975 0.0
C1046 C 0.84849 0.87228 0.98859 0.0
C1047 C 0.82447 0.83199 0.98447 0.0
C1048 C 0.82646 0.90922 0.99755 0.0
C1049 C 0.77796 0.829 0.98912 0.0
C1050 C 0.75528 0.86632 0.99739 0.0
C1051 C 0.75707 0.94414 0.01034 0.0
C1052 C 0.7821 0.98318 0.01557 0.0
C1053 C 0.77922 0.90662 0.00171 0.0
C1054 C 0.82917 0.98481 0.01186 0.0
C1055 C 0.85106 0.94846 0.00269 0.0
H1056 H 0.82472 0.14241 0.98872 0.0
H1057 H 0.85705 0.19656 0.04507 0.0
H1058 H 0.92588 0.2321 0.03215 0.0
H1059 H 0.97898 0.24467 0.00529 0.0
H1060 H 0.94879 0.18688 0.94934 0.0
H1061 H 0.87717 0.15626 0.96168 0.0
C1062 C 0.84652 0.16242 0.99814 0.0
C1063 C 0.83562 0.16676 0.01785 0.0
C1064 C 0.88668 0.18202 0.99071 0.0
C1065 C 0.86462 0.19247 0.02986 0.0
C1066 C 0.90406 0.21284 0.02248 0.0
C1067 C 0.95661 0.22574 0.99571 0.0
C1068 C 0.96945 0.21831 0.97637 0.0
C1069 C 0.91576 0.20734 0.00299 0.0
C1070 C 0.93999 0.19328 0.96428 0.0
C1071 C 0.89892 0.17565 0.97133 0.0
H1072 H 0.68868 0.87137 0.78692 0.0
H1073 H 0.64803 0.80693 0.73354 0.0
H1074 H 0.68073 0.86995 0.71519 0.0
H1075 H 0.71756 0.94546 0.71426 0.0
H1076 H 0.76123 0.00801 0.76763 0.0
H1077 H 0.7309 0.94374 0.78584 0.0
C1078 C 0.68722 0.87091 0.77127 0.0
C1079 C 0.66546 0.83453 0.7617 0.0
C1080 C 0.70654 0.90712 0.76072 0.0
C1081 C 0.66442 0.8344 0.74137 0.0
C1082 C 0.68303 0.87058 0.73081 0.0
C1083 C 0.72074 0.94492 0.72986 0.0
C1084 C 0.74139 0.98186 0.73949 0.0
C1085 C 0.70364 0.90745 0.74033 0.0
C1086 C 0.74552 0.98022 0.75974 0.0
C1087 C 0.72805 0.94344 0.77024 0.0
H1088 H 0.98379 0.25001 0.24871 0.0
H1089 H 0.9611 0.32367 0.30189 0.0
H1090 H 0.88986 0.35415 0.2892 0.0
H1091 H 0.83622 0.36398 0.26233 0.0
H1092 H 0.86171 0.29532 0.20827 0.0
H1093 H 0.92932 0.25876 0.222 0.0
C1094 C 0.96309 0.27236 0.25762 0.0
C1095 C 0.97792 0.28427 0.27628 0.0
C1096 C 0.9226 0.2909 0.25003 0.0
C1097 C 0.95069 0.3137 0.2875 0.0
C1098 C 0.90985 0.33129 0.28025 0.0
C1099 C 0.85618 0.34049 0.25365 0.0
C1100 C 0.84388 0.33229 0.23434 0.0
C1101 C 0.89577 0.32063 0.26145 0.0
C1102 C 0.87052 0.30229 0.22318 0.0
C1103 C 0.90922 0.2814 0.23101 0.0
H1104 H 0.26943 0.02065 0.75493 0.0
H1105 H 0.31396 0.06292 0.69826 0.0
H1106 H 0.34728 0.13217 0.71202 0.0
H1107 H 0.3664 0.17923 0.74033 0.0
H1108 H 0.32653 0.13378 0.79718 0.0
H1109 H 0.2887 0.06729 0.78313 0.0
C1110 C 0.28607 0.04512 0.74552 0.0
C1111 C 0.28892 0.03656 0.72554 0.0
C1112 C 0.3062 0.08425 0.75359 0.0
C1113 C 0.31116 0.06855 0.71366 0.0
C1114 C 0.33028 0.10818 0.72153 0.0
C1115 C 0.34915 0.15498 0.74964 0.0
C1116 C 0.34928 0.16156 0.76979 0.0
C1117 C 0.32838 0.11618 0.7415 0.0
C1118 C 0.32714 0.12948 0.78164 0.0
C1119 C 0.30544 0.09145 0.77362 0.0
H1120 H 0.05506 0.72892 0.28764 0.0
H1121 H 0.98681 0.75443 0.2335 0.0
H1122 H 0.05284 0.72469 0.21591 0.0
H1123 H 0.12868 0.6877 0.21603 0.0
H1124 H 0.19745 0.66598 0.27044 0.0
H1125 H 0.13263 0.69802 0.2877 0.0
C1126 C 0.05468 0.72826 0.27199 0.0
C1127 C 0.01587 0.74354 0.26193 0.0
C1128 C 0.09286 0.71156 0.26198 0.0
C1129 C 0.01626 0.74297 0.24162 0.0
C1130 C 0.05394 0.72575 0.23154 0.0
C1131 C 0.12956 0.69019 0.23166 0.0
C1132 C 0.16784 0.67396 0.24188 0.0
C1133 C 0.09222 0.70935 0.24158 0.0
C1134 C 0.16856 0.67804 0.26213 0.0
C1135 C 0.13139 0.69631 0.27207 0.0
H1136 H 0.7448 0.51234 0.49284 0.0
H1137 H 0.69837 0.54906 0.54991 0.0
H1138 H 0.66421 0.61879 0.53715 0.0
H1139 H 0.64514 0.66792 0.50971 0.0
H1140 H 0.68577 0.62848 0.45218 0.0
H1141 H 0.72444 0.56103 0.46519 0.0
C1142 C 0.72753 0.53574 0.50252 0.0
C1143 C 0.72444 0.52552 0.52235 0.0
C1144 C 0.70664 0.57512 0.49497 0.0
C1145 C 0.70137 0.55602 0.53462 0.0
C1146 C 0.68174 0.59592 0.52732 0.0
C1147 C 0.66263 0.64474 0.5 0.0
C1148 C 0.66265 0.65331 0.48 0.0
C1149 C 0.6838 0.60558 0.50751 0.0
C1150 C 0.68507 0.62258 0.46762 0.0
C1151 C 0.70728 0.58408 0.47506 0.0
H1152 H 0.63679 0.30989 0.53981 0.0
H1153 H 0.69204 0.36472 0.48687 0.0
H1154 H 0.6279 0.33373 0.46879 0.0
H1155 H 0.55425 0.29408 0.46811 0.0
H1156 H 0.50086 0.23515 0.52059 0.0
H1157 H 0.56609 0.26441 0.53862 0.0
C1158 C 0.63487 0.31484 0.52431 0.0
C1159 C 0.66901 0.34001 0.51478 0.0
C1160 C 0.59813 0.29625 0.51387 0.0
C1161 C 0.66631 0.34557 0.49463 0.0
C1162 C 0.62952 0.32795 0.48424 0.0
C1163 C 0.557 0.28734 0.48346 0.0
C1164 C 0.52242 0.26279 0.49296 0.0
C1165 C 0.59496 0.30369 0.49373 0.0
C1166 C 0.52688 0.25398 0.51285 0.0
C1167 C 0.56416 0.27084 0.52323 0.0
H1168 H 0.28775 0.44447 0.53891 0.0
H1169 H 0.25337 0.50775 0.48447 0.0
H1170 H 0.28314 0.44198 0.46712 0.0
H1171 H 0.32193 0.36784 0.46714 0.0
H1172 H 0.35288 0.30211 0.52135 0.0
H1173 H 0.3212 0.36709 0.53893 0.0
C1174 C 0.28654 0.44375 0.52327 0.0
C1175 C 0.26862 0.48132 0.51308 0.0
C1176 C 0.30318 0.40533 0.51327 0.0
C1177 C 0.26693 0.47949 0.49277 0.0
C1178 C 0.28408 0.44186 0.48277 0.0
C1179 C 0.32154 0.3676 0.4828 0.0
C1180 C 0.34018 0.33032 0.49288 0.0
C1181 C 0.30274 0.40482 0.49284 0.0
C1182 C 0.3388 0.33033 0.51319 0.0
C1183 C 0.32082 0.3676 0.52329 0.0
H1184 H 0.49208 0.73262 0.5098 0.0
H1185 H 0.44848 0.70608 0.45133 0.0
H1186 H 0.37621 0.67577 0.46321 0.0
H1187 H 0.32654 0.65409 0.4902 0.0
H1188 H 0.37249 0.67509 0.54874 0.0
H1189 H 0.44263 0.71041 0.53682 0.0
C1190 C 0.46666 0.72055 0.49963 0.0
C1191 C 0.4757 0.72188 0.47968 0.0
C1192 C 0.42562 0.702 0.50658 0.0
C1193 C 0.44252 0.70552 0.46674 0.0
C1194 C 0.40112 0.68815 0.47353 0.0
C1195 C 0.35172 0.6667 0.50036 0.0
C1196 C 0.34425 0.66202 0.52033 0.0
C1197 C 0.39247 0.68585 0.49342 0.0
C1198 C 0.3775 0.67811 0.53329 0.0
C1199 C 0.41758 0.69834 0.52649 0.0
H1200 H 0.34837 0.2597 0.39168 0.0
H1201 H 0.23499 0.25555 0.43147 0.0
H1202 H 0.18144 0.25743 0.40448 0.0
H1203 H 0.1666 0.26129 0.3697 0.0
H1204 H 0.27954 0.26319 0.32968 0.0
H1205 H 0.33339 0.26095 0.35666 0.0
C1206 C 0.31194 0.25926 0.39446 0.0
C1207 C 0.29577 0.25778 0.41362 0.0
C1208 C 0.28123 0.25989 0.37884 0.0
C1209 C 0.24844 0.25672 0.41691 0.0
C1210 C 0.21774 0.25785 0.40147 0.0
C1211 C 0.203 0.26122 0.36683 0.0
C1212 C 0.21896 0.26272 0.34766 0.0
C1213 C 0.23374 0.2596 0.38239 0.0
C1214 C 0.26627 0.26211 0.34427 0.0
C1215 C 0.29711 0.26091 0.35971 0.0
H1216 H 0.25132 0.66028 0.61444 0.0
H1217 H 0.25085 0.76725 0.57149 0.0
H1218 H 0.25205 0.82497 0.59682 0.0
H1219 H 0.25476 0.84545 0.63109 0.0
H1220 H 0.25356 0.73913 0.67428 0.0
H1221 H 0.25129 0.68101 0.64896 0.0
C1222 C 0.25143 0.69622 0.61062 0.0
C1223 C 0.25126 0.70929 0.59105 0.0
C1224 C 0.25183 0.72946 0.62531 0.0
C1225 C 0.25105 0.75607 0.5864 0.0
C1226 C 0.25178 0.78922 0.60089 0.0
C1227 C 0.25394 0.80957 0.635 0.0
C1228 C 0.2546 0.79674 0.65458 0.0
C1229 C 0.25242 0.77633 0.62038 0.0
C1230 C 0.25313 0.75005 0.65934 0.0
C1231 C 0.25191 0.71674 0.64485 0.0
H1232 H 0.66502 0.75484 0.38634 0.0
H1233 H 0.77577 0.74933 0.42739 0.0
H1234 H 0.83101 0.74892 0.40088 0.0
H1235 H 0.84769 0.74846 0.36592 0.0
H1236 H 0.73605 0.75518 0.32527 0.0
H1237 H 0.68148 0.75663 0.35179 0.0
C1238 C 0.70124 0.75364 0.38955 0.0
C1239 C 0.71616 0.75189 0.40886 0.0
C1240 C 0.73273 0.75343 0.37429 0.0
C1241 C 0.76328 0.75069 0.41268 0.0
C1242 C 0.79491 0.75034 0.39752 0.0
C1243 C 0.81142 0.75019 0.36287 0.0
C1244 C 0.79607 0.7514 0.34359 0.0
C1245 C 0.78001 0.75136 0.37825 0.0
C1246 C 0.74893 0.75406 0.33993 0.0
C1247 C 0.7176 0.75492 0.3551 0.0
H1248 H 0.7588 0.15069 0.63508 0.0
H1249 H 0.75904 0.26258 0.67573 0.0
H1250 H 0.75747 0.31722 0.64921 0.0
H1251 H 0.75452 0.33366 0.61464 0.0
H1252 H 0.75607 0.22278 0.57357 0.0
H1253 H 0.75868 0.16749 0.60008 0.0
C1254 C 0.75858 0.18703 0.63813 0.0
C1255 C 0.75878 0.20239 0.65742 0.0
C1256 C 0.75798 0.21853 0.62274 0.0
C1257 C 0.75883 0.24965 0.66107 0.0
C1258 C 0.75789 0.28103 0.6459 0.0
C1259 C 0.75544 0.29739 0.61143 0.0
C1260 C 0.75477 0.28244 0.59211 0.0
C1261 C 0.75719 0.26588 0.6267 0.0
C1262 C 0.7565 0.23529 0.58829 0.0
C1263 C 0.7579 0.20363 0.60346 0.0
H1264 H 0.16122 0.25171 0.88241 0.0
H1265 H 0.26773 0.24801 0.92548 0.0
H1266 H 0.32562 0.25066 0.90016 0.0
H1267 H 0.34613 0.25167 0.8658 0.0
H1268 H 0.23978 0.25673 0.82269 0.0
H1269 H 0.18181 0.25611 0.84804 0.0
C1270 C 0.1971 0.2516 0.88628 0.0
C1271 C 0.21004 0.24933 0.90584 0.0
C1272 C 0.23029 0.25331 0.87164 0.0
C1273 C 0.25672 0.24962 0.91056 0.0
C1274 C 0.2899 0.25108 0.89608 0.0
C1275 C 0.31028 0.25276 0.86192 0.0
C1276 C 0.29738 0.25392 0.84234 0.0
C1277 C 0.27709 0.25254 0.87657 0.0
C1278 C 0.25074 0.25573 0.83763 0.0
C1279 C 0.21752 0.2553 0.85212 0.0
H1280 H 0.24282 0.659 0.141 0.0
H1281 H 0.24627 0.77503 0.17947 0.0
H1282 H 0.24373 0.82687 0.15193 0.0
H1283 H 0.23951 0.8396 0.11702 0.0
H1284 H 0.23828 0.72419 0.07824 0.0
H1285 H 0.24115 0.67193 0.10578 0.0
C1286 C 0.24302 0.69563 0.14336 0.0
C1287 C 0.24448 0.71301 0.16233 0.0
C1288 C 0.24196 0.72543 0.1274 0.0
C1289 C 0.24512 0.76061 0.16508 0.0
C1290 C 0.24362 0.79036 0.14932 0.0
C1291 C 0.23986 0.80301 0.11455 0.0
C1292 C 0.23838 0.7859 0.09555 0.0
C1293 C 0.24186 0.77318 0.13043 0.0
C1294 C 0.23934 0.73836 0.09268 0.0
C1295 C 0.24091 0.70842 0.10844 0.0
H1296 H 0.81527 0.68078 0.88927 0.0
H1297 H 0.79176 0.81761 0.90986 0.0
H1298 H 0.74133 0.83281 0.8823 0.0
H1299 H 0.70224 0.80601 0.85277 0.0
H1300 H 0.73264 0.67207 0.83034 0.0
H1301 H 0.78231 0.65672 0.85805 0.0
C1302 C 0.79912 0.7139 0.88761 0.0
C1303 C 0.80651 0.74793 0.90156 0.0
C1304 C 0.77155 0.72279 0.87142 0.0
C1305 C 0.78628 0.79101 0.89923 0.0
C1306 C 0.75745 0.79961 0.88353 0.0
C1307 C 0.72005 0.77362 0.85396 0.0
C1308 C 0.7137 0.74004 0.8397 0.0
C1309 C 0.74958 0.76563 0.86961 0.0
C1310 C 0.73724 0.69841 0.84116 0.0
C1311 C 0.76543 0.68958 0.85702 0.0
H1312 H 0.79075 0.19235 0.10575 0.0
H1313 H 0.65898 0.22891 0.08286 0.0
H1314 H 0.64706 0.2824 0.10964 0.0
H1315 H 0.675 0.31965 0.13942 0.0
H1316 H 0.81076 0.28993 0.15981 0.0
H1317 H 0.82058 0.23302 0.13423 0.0
C1318 C 0.7594 0.21196 0.10675 0.0
C1319 C 0.7255 0.20655 0.09261 0.0
C1320 C 0.7537 0.24393 0.12169 0.0
C1321 C 0.68538 0.23262 0.09371 0.0
C1322 C 0.6786 0.26311 0.10898 0.0
C1323 C 0.7066 0.30054 0.13821 0.0
C1324 C 0.742 0.30846 0.15146 0.0
C1325 C 0.7126 0.26918 0.12303 0.0
C1326 C 0.78314 0.28425 0.14968 0.0
C1327 C 0.7887 0.25171 0.13511 0.0
H1328 H 0.03065 0.92046 0.28707 0.0
H1329 H 0.88799 0.95517 0.2823 0.0
H1330 H 0.90644 0.03621 0.28561 0.0
H1331 H 0.96335 0.09757 0.28905 0.0
H1332 H 0.10643 0.06337 0.29097 0.0
H1333 H 0.08772 0.98195 0.28972 0.0
C1334 C 0.00364 0.94579 0.28683 0.0
C1335 C 0.95804 0.93183 0.28448 0.0
C1336 C 0.0146 0.99246 0.28826 0.0
C1337 C 0.9234 0.96506 0.28399 0.0
C1338 C 0.93391 0.01141 0.28594 0.0
C1339 C 0.99035 0.07221 0.28939 0.0
C1340 C 0.03615 0.08635 0.29028 0.0
C1341 C 0.97939 0.02554 0.288 0.0
C1342 C 0.07089 0.05324 0.29033 0.0
C1343 C 0.06022 0.00672 0.28959 0.0
H1344 H 0.93917 0.02806 0.69206 0.0
H1345 H 0.93613 0.04793 0.7537 0.0
H1346 H 0.01507 0.02083 0.75623 0.0
H1347 H 0.0851 0.99126 0.74075 0.0
H1348 H 0.09084 0.98043 0.67875 0.0
H1349 H 0.01084 0.00413 0.67638 0.0
C1350 C 0.95594 0.02637 0.70601 0.0
C1351 C 0.93205 0.03941 0.7227 0.0
C1352 C 1.00173 0.01239 0.70724 0.0
C1353 C 0.95409 0.03796 0.74069 0.0
C1354 C 0.99909 0.0224 0.74213 0.0
C1355 C 0.06863 0.99414 0.72677 0.0
C1356 C 0.09333 0.98384 0.70995 0.0
C1357 C 0.02324 0.00946 0.7255 0.0
C1358 C 0.07222 0.98828 0.69186 0.0
C1359 C 0.02657 1.00172 0.69051 0.0
H1360 H 0.95899 0.40471 0.96469 0.0
H1361 H 0.10168 0.43698 0.9715 0.0
H1362 H 0.08348 0.51852 0.97282 0.0
H1363 H 0.02664 0.58081 0.97255 0.0
H1364 H 0.88352 0.54759 0.96855 0.0
H1365 H 0.90213 0.46654 0.96562 0.0
C1366 C 0.98608 0.42965 0.96636 0.0
C1367 C 0.03161 0.4149 0.96787 0.0
C1368 C 0.97523 0.47637 0.96767 0.0
C1369 C 0.06633 0.44752 0.97033 0.0
C1370 C 0.05595 0.49414 0.97107 0.0
C1371 C 0.99961 0.55578 0.97097 0.0
C1372 C 0.95381 0.57021 0.97068 0.0
C1373 C 0.01049 0.509 0.96983 0.0
C1374 C 0.91906 0.53736 0.96888 0.0
C1375 C 0.92966 0.49099 0.96716 0.0
H1376 H 0.40692 0.03714 0.03131 0.0
H1377 H 0.43457 0.89374 0.03945 0.0
H1378 H 0.51664 0.90901 0.03967 0.0
H1379 H 0.58084 0.96295 0.03659 0.0
H1380 H 0.55301 0.10538 0.02572 0.0
H1381 H 0.47105 0.09076 0.02748 0.0
C1382 C 0.43096 0.00935 0.0333 0.0
C1383 C 0.41473 0.96446 0.0355 0.0
C1384 C 0.47816 0.01819 0.03279 0.0
C1385 C 0.44625 0.92862 0.03773 0.0
C1386 C 0.49318 0.93732 0.03785 0.0
C1387 C 0.5568 0.99077 0.03469 0.0
C1388 C 0.57303 0.03518 0.03107 0.0
C1389 C 0.50958 0.98192 0.03524 0.0
C1390 C 0.54143 0.07082 0.02843 0.0
C1391 C 0.49452 0.06252 0.02948 0.0
H1392 H 0.42393 0.44839 0.78444 0.0
H1393 H 0.56139 0.39595 0.78641 0.0
H1394 H 0.5917 0.47379 0.78643 0.0
H1395 H 0.57917 0.55683 0.78531 0.0
H1396 H 0.44182 0.60971 0.78622 0.0
H1397 H 0.41133 0.53183 0.78581 0.0
C1398 C 0.46049 0.45416 0.78486 0.0
C1399 C 0.49046 0.41664 0.78522 0.0
C1400 C 0.47764 0.49905 0.78545 0.0
C1401 C 0.53771 0.42438 0.78612 0.0
C1402 C 0.55505 0.46884 0.78609 0.0
C1403 C 0.54257 0.55122 0.78548 0.0
C1404 C 0.51275 0.58885 0.78565 0.0
C1405 C 0.52535 0.50642 0.78568 0.0
C1406 C 0.46543 0.58122 0.78614 0.0
C1407 C 0.44799 0.53672 0.78582 0.0
H1408 H 0.59715 0.54614 0.2185 0.0
H1409 H 0.56342 0.40277 0.22026 0.0
H1410 H 0.48209 0.42132 0.22007 0.0
H1411 H 0.42036 0.47833 0.22047 0.0
H1412 H 0.45404 0.62174 0.22143 0.0
H1413 H 0.53531 0.60325 0.21946 0.0
C1414 C 0.57194 0.51901 0.21869 0.0
C1415 C 0.58628 0.47317 0.2193 0.0
C1416 C 0.52516 0.52996 0.21915 0.0
C1417 C 0.55325 0.43835 0.21983 0.0
C1418 C 0.50673 0.44892 0.21971 0.0
C1419 C 0.44551 0.5055 0.22011 0.0
C1420 C 0.4312 0.55132 0.22101 0.0
C1421 C 0.49226 0.4946 0.21952 0.0
C1422 C 0.4642 0.58617 0.2208 0.0
C1423 C 0.51068 0.57564 0.21965 0.0
H1424 H 0.47042 0.06029 0.49479 0.0
H1425 H 0.47582 0.08214 0.43331 0.0
H1426 H 0.50347 0.00391 0.4285 0.0
H1427 H 0.52701 0.9294 0.44196 0.0
H1428 H 0.53048 0.91118 0.50371 0.0
H1429 H 0.49865 0.98773 0.50836 0.0
C1430 C 0.47754 0.04767 0.48037 0.0
C1431 C 0.47076 0.07639 0.4644 0.0
C1432 C 0.49514 0.00343 0.47782 0.0
C1433 C 0.48081 0.06033 0.44578 0.0
C1434 C 0.49655 0.01571 0.44304 0.0
C1435 C 0.52066 0.94234 0.4564 0.0
C1436 C 0.5306 0.91484 0.47248 0.0
C1437 C 0.50397 0.98697 0.45896 0.0
C1438 C 0.52305 0.93196 0.49115 0.0
C1439 C 0.50478 0.9756 0.4938 0.0
H1440 H 0.92884 0.48384 0.51071 0.0
H1441 H 0.92202 0.47562 0.57277 0.0
H1442 H 1.00089 0.50309 0.57522 0.0
H1443 H 0.07207 0.52878 0.55952 0.0
H1444 H 0.07553 0.54535 0.49769 0.0
H1445 H 0.99763 0.51551 0.49522 0.0
C1446 C 0.94479 0.48815 0.52474 0.0
C1447 C 0.9202 0.47739 0.54154 0.0
C1448 C 0.98938 0.50546 0.52602 0.0
C1449 C 0.94058 0.48374 0.55968 0.0
C1450 C 0.98558 0.49931 0.56107 0.0
C1451 C 0.05558 0.52583 0.54554 0.0
C1452 C 0.07934 0.53868 0.52878 0.0
C1453 C 0.01035 0.51016 0.54433 0.0
C1454 C 0.05767 0.53557 0.51075 0.0
C1455 C 0.01329 0.51844 0.50935 0.0
loop_
_geom_bond_atom_site_label_1
_geom_bond_atom_site_label_2
_geom_bond_distance
_geom_bond_site_symmetry_2
_ccdc_geom_bond_type
Co0 O2 2.143 . S
Co0 O8 2.074 . S
Co0 O11 2.093 . S
Co0 O24 2.097 . S
Co0 N41 2.151 . S
Co0 N49 2.214 . S
Co1 O2 2.160 . S
Co1 O7 2.058 . S
Co1 O17 2.057 . S
Co1 O32 2.037 . S
Co1 N36 2.145 . S
Co1 N57 2.257 . S
O2 Co0 2.143 . S
O2 Co1 2.160 . S
C3 O4 1.278 . S
C3 O11 1.224 . S
O4 C3 1.278 . S
C5 O6 1.245 . S
C5 O17 1.232 . S
O6 C5 1.245 . S
O7 Co1 2.058 . S
O7 C33 1.269 . S
O8 Co0 2.074 . S
O8 C33 1.257 . S
H9 C34 0.930 . S
H10 C40 0.930 . S
O11 Co0 2.093 . S
O11 C3 1.224 . S
H12 C44 0.929 . S
H13 C46 0.930 . S
H14 C47 0.930 . S
H15 C45 0.929 . S
H16 C48 0.928 . S
O17 Co1 2.057 . S
O17 C5 1.232 . S
H18 C37 0.929 . S
H19 C38 0.929 . S
H20 C50 0.931 . S
H21 C42 0.929 . S
H22 C51 0.930 . S
H23 C43 0.931 . S
O24 Co0 2.097 . S
O24 C52 1.214 . S
H25 C53 0.929 . S
H26 C54 0.929 . S
H27 C55 0.930 . S
H28 C56 0.929 . S
H29 C58 0.930 . S
H30 C35 0.930 . S
H31 C39 0.930 . S
O32 Co1 2.037 . S
O32 C52 1.234 . S
C33 O7 1.269 . S
C33 O8 1.257 . S
C34 H9 0.930 . S
C34 C37 1.388 . S
C34 C39 1.418 . S
C35 H30 0.930 . S
C35 C38 1.404 . S
C35 C39 1.353 . S
N36 Co1 2.145 . S
N36 C37 1.397 . S
N36 C38 1.334 . S
C37 H18 0.929 . S
C37 C34 1.388 . S
C37 N36 1.397 . S
C38 H19 0.929 . S
C38 C35 1.404 . S
C38 N36 1.334 . S
C39 H31 0.930 . S
C39 C34 1.418 . S
C39 C35 1.353 . S
C40 H10 0.930 . S
C40 N41 1.330 . S
C40 C42 1.446 . S
N41 Co0 2.151 . S
N41 C40 1.330 . S
N41 C45 1.418 . S
C42 H21 0.929 . S
C42 C40 1.446 . S
C42 C43 1.332 . S
C43 H23 0.931 . S
C43 C42 1.332 . S
C43 C44 1.267 . S
C44 H12 0.929 . S
C44 C43 1.267 . S
C44 C45 1.251 . S
C45 H15 0.929 . S
C45 N41 1.418 . S
C45 C44 1.251 . S
C46 H13 0.930 . S
C46 C48 1.406 . S
C46 C51 1.261 . S
C47 H14 0.930 . S
C47 N49 1.325 . S
C47 C50 1.357 . S
C48 H16 0.928 . S
C48 C46 1.406 . S
C48 N49 1.261 . S
N49 Co0 2.214 . S
N49 C47 1.325 . S
N49 C48 1.261 . S
C50 H20 0.931 . S
C50 C47 1.357 . S
C50 C51 1.312 . S
C51 H22 0.930 . S
C51 C46 1.261 . S
C51 C50 1.312 . S
C52 O24 1.214 . S
C52 O32 1.234 . S
C53 H25 0.929 . S
C53 C56 1.391 1_455 S
C53 C58 1.391 . S
C54 H26 0.929 . S
C54 C55 1.390 . S
C54 N57 1.391 1_655 S
C55 H27 0.930 . S
C55 C54 1.390 . S
C55 C56 1.392 . S
C56 H28 0.929 . S
C56 C53 1.391 1_655 S
C56 C55 1.392 . S
N57 Co1 2.257 . S
N57 C54 1.391 1_455 S
N57 C58 1.388 . S
C58 H29 0.930 . S
C58 C53 1.391 . S
C58 N57 1.388 . S
Co59 O61 2.143 . S
Co59 O67 2.074 . S
Co59 O70 2.093 . S
Co59 O83 2.097 . S
Co59 N100 2.151 . S
Co59 N108 2.214 . S
Co60 O61 2.160 . S
Co60 O66 2.058 . S
Co60 O76 2.057 . S
Co60 O91 2.037 . S
Co60 N95 2.145 . S
Co60 N116 2.257 . S
O61 Co59 2.143 . S
O61 Co60 2.160 . S
C62 O63 1.278 . S
C62 O70 1.224 . S
O63 C62 1.278 . S
C64 O65 1.245 . S
C64 O76 1.232 . S
O65 C64 1.245 . S
O66 Co60 2.058 . S
O66 C92 1.269 . S
O67 Co59 2.074 . S
O67 C92 1.257 . S
H68 C93 0.930 . S
H69 C99 0.930 . S
O70 Co59 2.093 . S
O70 C62 1.224 . S
H71 C103 0.929 . S
H72 C105 0.930 . S
H73 C106 0.930 . S
H74 C104 0.929 . S
H75 C107 0.928 . S
O76 Co60 2.057 . S
O76 C64 1.232 . S
H77 C96 0.929 . S
H78 C97 0.929 . S
H79 C109 0.931 . S
H80 C101 0.929 . S
H81 C110 0.930 . S
H82 C102 0.931 . S
O83 Co59 2.097 . S
O83 C111 1.214 . S
H84 C112 0.929 . S
H85 C113 0.929 . S
H86 C114 0.930 . S
H87 C115 0.929 . S
H88 C117 0.930 . S
H89 C94 0.930 . S
H90 C98 0.930 . S
O91 Co60 2.037 . S
O91 C111 1.234 . S
C92 O66 1.269 . S
C92 O67 1.257 . S
C93 H68 0.930 . S
C93 C96 1.388 . S
C93 C98 1.418 . S
C94 H89 0.930 . S
C94 C97 1.404 . S
C94 C98 1.353 . S
N95 Co60 2.145 . S
N95 C96 1.397 . S
N95 C97 1.334 . S
C96 H77 0.929 . S
C96 C93 1.388 . S
C96 N95 1.397 . S
C97 H78 0.929 . S
C97 C94 1.404 . S
C97 N95 1.334 . S
C98 H90 0.930 . S
C98 C93 1.418 . S
C98 C94 1.353 . S
C99 H69 0.930 . S
C99 N100 1.330 . S
C99 C101 1.446 . S
N100 Co59 2.151 . S
N100 C99 1.330 . S
N100 C104 1.418 . S
C101 H80 0.929 . S
C101 C99 1.446 . S
C101 C102 1.332 . S
C102 H82 0.931 . S
C102 C101 1.332 . S
C102 C103 1.267 . S
C103 H71 0.929 . S
C103 C102 1.267 . S
C103 C104 1.251 . S
C104 H74 0.929 . S
C104 N100 1.418 . S
C104 C103 1.251 . S
C105 H72 0.930 . S
C105 C107 1.406 . S
C105 C110 1.261 . S
C106 H73 0.930 . S
C106 N108 1.325 . S
C106 C109 1.357 . S
C107 H75 0.928 . S
C107 C105 1.406 . S
C107 N108 1.261 . S
N108 Co59 2.214 . S
N108 C106 1.325 . S
N108 C107 1.261 . S
C109 H79 0.931 . S
C109 C106 1.357 . S
C109 C110 1.312 . S
C110 H81 0.930 . S
C110 C105 1.261 . S
C110 C109 1.312 . S
C111 O83 1.214 . S
C111 O91 1.234 . S
C112 H84 0.929 . S
C112 C115 1.391 1_565 S
C112 C117 1.391 . S
C113 H85 0.929 . S
C113 C114 1.390 . S
C113 N116 1.391 1_545 S
C114 H86 0.930 . S
C114 C113 1.390 . S
C114 C115 1.392 . S
C115 H87 0.929 . S
C115 C112 1.391 1_545 S
C115 C114 1.392 . S
N116 Co60 2.257 . S
N116 C113 1.391 1_565 S
N116 C117 1.388 . S
C117 H88 0.930 . S
C117 C112 1.391 . S
C117 N116 1.388 . S
Co118 O120 2.143 . S
Co118 O126 2.074 . S
Co118 O129 2.093 . S
Co118 O142 2.097 . S
Co118 N159 2.151 . S
Co118 N167 2.214 . S
Co119 O120 2.160 . S
Co119 O125 2.058 . S
Co119 O135 2.057 . S
Co119 O150 2.037 . S
Co119 N154 2.145 . S
Co119 N175 2.257 . S
O120 Co118 2.143 . S
O120 Co119 2.160 . S
C121 O122 1.278 . S
C121 O129 1.224 . S
O122 C121 1.278 . S
C123 O124 1.245 . S
C123 O135 1.232 . S
O124 C123 1.245 . S
O125 Co119 2.058 . S
O125 C151 1.269 . S
O126 Co118 2.074 . S
O126 C151 1.257 . S
H127 C152 0.930 . S
H128 C158 0.930 . S
O129 Co118 2.093 . S
O129 C121 1.224 . S
H130 C162 0.929 . S
H131 C164 0.930 . S
H132 C165 0.930 . S
H133 C163 0.929 . S
H134 C166 0.928 . S
O135 Co119 2.057 . S
O135 C123 1.232 . S
H136 C155 0.929 . S
H137 C156 0.929 . S
H138 C168 0.931 . S
H139 C160 0.929 . S
H140 C169 0.930 . S
H141 C161 0.931 . S
O142 Co118 2.097 . S
O142 C170 1.214 . S
H143 C171 0.929 . S
H144 C172 0.929 . S
H145 C173 0.930 . S
H146 C174 0.929 . S
H147 C176 0.930 . S
H148 C153 0.930 . S
H149 C157 0.930 . S
O150 Co119 2.037 . S
O150 C170 1.234 . S
C151 O125 1.269 . S
C151 O126 1.257 . S
C152 H127 0.930 . S
C152 C155 1.388 . S
C152 C157 1.418 . S
C153 H148 0.930 . S
C153 C156 1.404 . S
C153 C157 1.353 . S
N154 Co119 2.145 . S
N154 C155 1.397 . S
N154 C156 1.334 . S
C155 H136 0.929 . S
C155 C152 1.388 . S
C155 N154 1.397 . S
C156 H137 0.929 . S
C156 C153 1.404 . S
C156 N154 1.334 . S
C157 H149 0.930 . S
C157 C152 1.418 . S
C157 C153 1.353 . S
C158 H128 0.930 . S
C158 N159 1.330 . S
C158 C160 1.446 . S
N159 Co118 2.151 . S
N159 C158 1.330 . S
N159 C163 1.418 . S
C160 H139 0.929 . S
C160 C158 1.446 . S
C160 C161 1.332 . S
C161 H141 0.931 . S
C161 C160 1.332 . S
C161 C162 1.267 . S
C162 H130 0.929 . S
C162 C161 1.267 . S
C162 C163 1.251 . S
C163 H133 0.929 . S
C163 N159 1.418 . S
C163 C162 1.251 . S
C164 H131 0.930 . S
C164 C166 1.406 . S
C164 C169 1.261 . S
C165 H132 0.930 . S
C165 N167 1.325 . S
C165 C168 1.357 . S
C166 H134 0.928 . S
C166 C164 1.406 . S
C166 N167 1.261 . S
N167 Co118 2.214 . S
N167 C165 1.325 . S
N167 C166 1.261 . S
C168 H138 0.931 . S
C168 C165 1.357 . S
C168 C169 1.312 . S
C169 H140 0.930 . S
C169 C164 1.261 . S
C169 C168 1.312 . S
C170 O142 1.214 . S
C170 O150 1.234 . S
C171 H143 0.929 . S
C171 C174 1.391 1_655 S
C171 C176 1.391 . S
C172 H144 0.929 . S
C172 C173 1.390 . S
C172 N175 1.391 1_455 S
C173 H145 0.930 . S
C173 C172 1.390 . S
C173 C174 1.392 . S
C174 H146 0.929 . S
C174 C171 1.391 1_455 S
C174 C173 1.392 . S
N175 Co119 2.257 . S
N175 C172 1.391 1_655 S
N175 C176 1.388 . S
C176 H147 0.930 . S
C176 C171 1.391 . S
C176 N175 1.388 . S
Co177 O179 2.143 . S
Co177 O185 2.074 . S
Co177 O188 2.093 . S
Co177 O201 2.097 . S
Co177 N218 2.151 . S
Co177 N226 2.214 . S
Co178 O179 2.160 . S
Co178 O184 2.058 . S
Co178 O194 2.057 . S
Co178 O209 2.037 . S
Co178 N213 2.145 . S
Co178 N234 2.257 . S
O179 Co177 2.143 . S
O179 Co178 2.160 . S
C180 O181 1.278 . S
C180 O188 1.224 . S
O181 C180 1.278 . S
C182 O183 1.245 . S
C182 O194 1.232 . S
O183 C182 1.245 . S
O184 Co178 2.058 . S
O184 C210 1.269 . S
O185 Co177 2.074 . S
O185 C210 1.257 . S
H186 C211 0.930 . S
H187 C217 0.930 . S
O188 Co177 2.093 . S
O188 C180 1.224 . S
H189 C221 0.929 . S
H190 C223 0.930 . S
H191 C224 0.930 . S
H192 C222 0.929 . S
H193 C225 0.928 . S
O194 Co178 2.057 . S
O194 C182 1.232 . S
H195 C214 0.929 . S
H196 C215 0.929 . S
H197 C227 0.931 . S
H198 C219 0.929 . S
H199 C228 0.930 . S
H200 C220 0.931 . S
O201 Co177 2.097 . S
O201 C229 1.214 . S
H202 C230 0.929 . S
H203 C231 0.929 . S
H204 C232 0.930 . S
H205 C233 0.929 . S
H206 C235 0.930 . S
H207 C212 0.930 . S
H208 C216 0.930 . S
O209 Co178 2.037 . S
O209 C229 1.234 . S
C210 O184 1.269 . S
C210 O185 1.257 . S
C211 H186 0.930 . S
C211 C214 1.388 . S
C211 C216 1.418 . S
C212 H207 0.930 . S
C212 C215 1.404 . S
C212 C216 1.353 . S
N213 Co178 2.145 . S
N213 C214 1.397 . S
N213 C215 1.334 . S
C214 H195 0.929 . S
C214 C211 1.388 . S
C214 N213 1.397 . S
C215 H196 0.929 . S
C215 C212 1.404 . S
C215 N213 1.334 . S
C216 H208 0.930 . S
C216 C211 1.418 . S
C216 C212 1.353 . S
C217 H187 0.930 . S
C217 N218 1.330 . S
C217 C219 1.446 . S
N218 Co177 2.151 . S
N218 C217 1.330 . S
N218 C222 1.418 . S
C219 H198 0.929 . S
C219 C217 1.446 . S
C219 C220 1.332 . S
C220 H200 0.931 . S
C220 C219 1.332 . S
C220 C221 1.267 . S
C221 H189 0.929 . S
C221 C220 1.267 . S
C221 C222 1.251 . S
C222 H192 0.929 . S
C222 N218 1.418 . S
C222 C221 1.251 . S
C223 H190 0.930 . S
C223 C225 1.406 . S
C223 C228 1.261 . S
C224 H191 0.930 . S
C224 N226 1.325 . S
C224 C227 1.357 . S
C225 H193 0.928 . S
C225 C223 1.406 . S
C225 N226 1.261 . S
N226 Co177 2.214 . S
N226 C224 1.325 . S
N226 C225 1.261 . S
C227 H197 0.931 . S
C227 C224 1.357 . S
C227 C228 1.312 . S
C228 H199 0.930 . S
C228 C223 1.261 . S
C228 C227 1.312 . S
C229 O201 1.214 . S
C229 O209 1.234 . S
C230 H202 0.929 . S
C230 C233 1.391 1_545 S
C230 C235 1.391 . S
C231 H203 0.929 . S
C231 C232 1.390 . S
C231 N234 1.391 1_565 S
C232 H204 0.930 . S
C232 C231 1.390 . S
C232 C233 1.392 . S
C233 H205 0.929 . S
C233 C230 1.391 1_565 S
C233 C232 1.392 . S
N234 Co178 2.257 . S
N234 C231 1.391 1_545 S
N234 C235 1.388 . S
C235 H206 0.930 . S
C235 C230 1.391 . S
C235 N234 1.388 . S
Co236 O238 2.143 . S
Co236 O244 2.074 . S
Co236 O247 2.093 . S
Co236 O260 2.097 . S
Co236 N277 2.151 . S
Co236 N285 2.214 1_556 S
Co237 O238 2.160 . S
Co237 O243 2.058 . S
Co237 O253 2.057 . S
Co237 O268 2.037 . S
Co237 N272 2.145 . S
Co237 N293 2.257 . S
O238 Co236 2.143 . S
O238 Co237 2.160 . S
C239 O240 1.278 . S
C239 O247 1.224 . S
O240 C239 1.278 . S
C241 O242 1.245 . S
C241 O253 1.232 . S
O242 C241 1.245 . S
O243 Co237 2.058 . S
O243 C269 1.269 . S
O244 Co236 2.074 . S
O244 C269 1.257 . S
H245 C270 0.930 . S
H246 C276 0.930 . S
O247 Co236 2.093 . S
O247 C239 1.224 . S
H248 C280 0.929 . S
H249 C282 0.930 . S
H250 C283 0.930 . S
H251 C281 0.929 . S
H252 C284 0.928 . S
O253 Co237 2.057 . S
O253 C241 1.232 . S
H254 C273 0.929 . S
H255 C274 0.929 . S
H256 C286 0.931 . S
H257 C278 0.929 . S
H258 C287 0.930 . S
H259 C279 0.930 . S
O260 Co236 2.097 . S
O260 C288 1.214 . S
H261 C289 0.929 . S
H262 C290 0.929 . S
H263 C291 0.930 . S
H264 C292 0.929 . S
H265 C294 0.930 . S
H266 C271 0.930 . S
H267 C275 0.930 . S
O268 Co237 2.037 . S
O268 C288 1.234 . S
C269 O243 1.269 . S
C269 O244 1.257 . S
C270 H245 0.930 . S
C270 C273 1.388 . S
C270 C275 1.418 . S
C271 H266 0.930 . S
C271 C274 1.404 . S
C271 C275 1.353 . S
N272 Co237 2.145 . S
N272 C273 1.397 . S
N272 C274 1.334 . S
C273 H254 0.929 . S
C273 C270 1.388 . S
C273 N272 1.397 . S
C274 H255 0.929 . S
C274 C271 1.404 . S
C274 N272 1.334 . S
C275 H267 0.930 . S
C275 C270 1.418 . S
C275 C271 1.353 . S
C276 H246 0.930 . S
C276 N277 1.330 . S
C276 C278 1.446 . S
N277 Co236 2.151 . S
N277 C276 1.330 . S
N277 C281 1.418 1_556 S
C278 H257 0.929 . S
C278 C276 1.446 . S
C278 C279 1.333 1_556 S
C279 H259 0.930 . S
C279 C278 1.333 1_554 S
C279 C280 1.266 . S
C280 H248 0.929 . S
C280 C279 1.266 . S
C280 C281 1.251 . S
C281 H251 0.929 . S
C281 N277 1.418 1_554 S
C281 C280 1.251 . S
C282 H249 0.930 . S
C282 C284 1.406 . S
C282 C287 1.261 . S
C283 H250 0.930 . S
C283 N285 1.325 . S
C283 C286 1.357 . S
C284 H252 0.928 . S
C284 C282 1.406 . S
C284 N285 1.261 . S
N285 Co236 2.214 1_554 S
N285 C283 1.325 . S
N285 C284 1.261 . S
C286 H256 0.931 . S
C286 C283 1.357 . S
C286 C287 1.312 . S
C287 H258 0.930 . S
C287 C282 1.261 . S
C287 C286 1.312 . S
C288 O260 1.214 . S
C288 O268 1.234 . S
C289 H261 0.929 . S
C289 C292 1.391 1_455 S
C289 C294 1.391 . S
C290 H262 0.929 . S
C290 C291 1.390 . S
C290 N293 1.391 1_655 S
C291 H263 0.930 . S
C291 C290 1.390 . S
C291 C292 1.392 . S
C292 H264 0.929 . S
C292 C289 1.391 1_655 S
C292 C291 1.392 . S
N293 Co237 2.257 . S
N293 C290 1.391 1_455 S
N293 C294 1.388 . S
C294 H265 0.930 . S
C294 C289 1.391 . S
C294 N293 1.388 . S
Co295 O297 2.143 . S
Co295 O303 2.074 . S
Co295 O306 2.093 . S
Co295 O319 2.097 . S
Co295 N336 2.151 . S
Co295 N344 2.214 1_554 S
Co296 O297 2.160 . S
Co296 O302 2.058 . S
Co296 O312 2.057 . S
Co296 O327 2.037 . S
Co296 N331 2.145 . S
Co296 N352 2.257 . S
O297 Co295 2.143 . S
O297 Co296 2.160 . S
C298 O299 1.278 . S
C298 O306 1.224 . S
O299 C298 1.278 . S
C300 O301 1.245 . S
C300 O312 1.232 . S
O301 C300 1.245 . S
O302 Co296 2.058 . S
O302 C328 1.269 . S
O303 Co295 2.074 . S
O303 C328 1.257 . S
H304 C329 0.930 . S
H305 C335 0.930 . S
O306 Co295 2.093 . S
O306 C298 1.224 . S
H307 C339 0.929 . S
H308 C341 0.930 . S
H309 C342 0.930 . S
H310 C340 0.929 . S
H311 C343 0.928 . S
O312 Co296 2.057 . S
O312 C300 1.232 . S
H313 C332 0.929 . S
H314 C333 0.929 . S
H315 C345 0.931 . S
H316 C337 0.929 . S
H317 C346 0.930 . S
H318 C338 0.930 . S
O319 Co295 2.097 . S
O319 C347 1.214 . S
H320 C348 0.929 . S
H321 C349 0.929 . S
H322 C350 0.930 . S
H323 C351 0.929 . S
H324 C353 0.930 . S
H325 C330 0.930 . S
H326 C334 0.930 . S
O327 Co296 2.037 . S
O327 C347 1.234 . S
C328 O302 1.269 . S
C328 O303 1.257 . S
C329 H304 0.930 . S
C329 C332 1.388 . S
C329 C334 1.418 . S
C330 H325 0.930 . S
C330 C333 1.404 . S
C330 C334 1.353 . S
N331 Co296 2.145 . S
N331 C332 1.397 . S
N331 C333 1.334 . S
C332 H313 0.929 . S
C332 C329 1.388 . S
C332 N331 1.397 . S
C333 H314 0.929 . S
C333 C330 1.404 . S
C333 N331 1.334 . S
C334 H326 0.930 . S
C334 C329 1.418 . S
C334 C330 1.353 . S
C335 H305 0.930 . S
C335 N336 1.330 . S
C335 C337 1.446 . S
N336 Co295 2.151 . S
N336 C335 1.330 . S
N336 C340 1.418 1_554 S
C337 H316 0.929 . S
C337 C335 1.446 . S
C337 C338 1.333 1_554 S
C338 H318 0.930 . S
C338 C337 1.333 1_556 S
C338 C339 1.266 . S
C339 H307 0.929 . S
C339 C338 1.266 . S
C339 C340 1.251 . S
C340 H310 0.929 . S
C340 N336 1.418 1_556 S
C340 C339 1.251 . S
C341 H308 0.930 . S
C341 C343 1.406 . S
C341 C346 1.261 . S
C342 H309 0.930 . S
C342 N344 1.325 . S
C342 C345 1.357 . S
C343 H311 0.928 . S
C343 C341 1.406 . S
C343 N344 1.261 . S
N344 Co295 2.214 1_556 S
N344 C342 1.325 . S
N344 C343 1.261 . S
C345 H315 0.931 . S
C345 C342 1.357 . S
C345 C346 1.312 . S
C346 H317 0.930 . S
C346 C341 1.261 . S
C346 C345 1.312 . S
C347 O319 1.214 . S
C347 O327 1.234 . S
C348 H320 0.929 . S
C348 C351 1.391 1_565 S
C348 C353 1.391 . S
C349 H321 0.929 . S
C349 C350 1.390 . S
C349 N352 1.391 1_545 S
C350 H322 0.930 . S
C350 C349 1.390 . S
C350 C351 1.392 . S
C351 H323 0.929 . S
C351 C348 1.391 1_545 S
C351 C350 1.392 . S
N352 Co296 2.257 . S
N352 C349 1.391 1_565 S
N352 C353 1.388 . S
C353 H324 0.930 . S
C353 C348 1.391 . S
C353 N352 1.388 . S
Co354 O356 2.143 . S
Co354 O362 2.074 . S
Co354 O365 2.093 . S
Co354 O378 2.097 . S
Co354 N395 2.151 . S
Co354 N403 2.214 1_556 S
Co355 O356 2.160 . S
Co355 O361 2.058 . S
Co355 O371 2.057 . S
Co355 O386 2.037 . S
Co355 N390 2.145 . S
Co355 N411 2.257 . S
O356 Co354 2.143 . S
O356 Co355 2.160 . S
C357 O358 1.278 . S
C357 O365 1.224 . S
O358 C357 1.278 . S
C359 O360 1.245 . S
C359 O371 1.232 . S
O360 C359 1.245 . S
O361 Co355 2.058 . S
O361 C387 1.269 . S
O362 Co354 2.074 . S
O362 C387 1.257 . S
H363 C388 0.930 . S
H364 C394 0.930 . S
O365 Co354 2.093 . S
O365 C357 1.224 . S
H366 C398 0.929 . S
H367 C400 0.930 . S
H368 C401 0.930 . S
H369 C399 0.929 . S
H370 C402 0.928 . S
O371 Co355 2.057 . S
O371 C359 1.232 . S
H372 C391 0.929 . S
H373 C392 0.929 . S
H374 C404 0.931 . S
H375 C396 0.929 . S
H376 C405 0.930 . S
H377 C397 0.930 . S
O378 Co354 2.097 . S
O378 C406 1.214 . S
H379 C407 0.929 . S
H380 C408 0.929 . S
H381 C409 0.930 . S
H382 C410 0.929 . S
H383 C412 0.930 . S
H384 C389 0.930 . S
H385 C393 0.930 . S
O386 Co355 2.037 . S
O386 C406 1.234 . S
C387 O361 1.269 . S
C387 O362 1.257 . S
C388 H363 0.930 . S
C388 C391 1.388 . S
C388 C393 1.418 . S
C389 H384 0.930 . S
C389 C392 1.404 . S
C389 C393 1.353 . S
N390 Co355 2.145 . S
N390 C391 1.397 . S
N390 C392 1.334 . S
C391 H372 0.929 . S
C391 C388 1.388 . S
C391 N390 1.397 . S
C392 H373 0.929 . S
C392 C389 1.404 . S
C392 N390 1.334 . S
C393 H385 0.930 . S
C393 C388 1.418 . S
C393 C389 1.353 . S
C394 H364 0.930 . S
C394 N395 1.330 . S
C394 C396 1.446 . S
N395 Co354 2.151 . S
N395 C394 1.330 . S
N395 C399 1.418 1_556 S
C396 H375 0.929 . S
C396 C394 1.446 . S
C396 C397 1.333 1_556 S
C397 H377 0.930 . S
C397 C396 1.333 1_554 S
C397 C398 1.266 . S
C398 H366 0.929 . S
C398 C397 1.266 . S
C398 C399 1.251 . S
C399 H369 0.929 . S
C399 N395 1.418 1_554 S
C399 C398 1.251 . S
C400 H367 0.930 . S
C400 C402 1.406 . S
C400 C405 1.261 . S
C401 H368 0.930 . S
C401 N403 1.325 . S
C401 C404 1.357 . S
C402 H370 0.928 . S
C402 C400 1.406 . S
C402 N403 1.261 . S
N403 Co354 2.214 1_554 S
N403 C401 1.325 . S
N403 C402 1.261 . S
C404 H374 0.931 . S
C404 C401 1.357 . S
C404 C405 1.312 . S
C405 H376 0.930 . S
C405 C400 1.261 . S
C405 C404 1.312 . S
C406 O378 1.214 . S
C406 O386 1.234 . S
C407 H379 0.929 . S
C407 C410 1.391 1_655 S
C407 C412 1.391 . S
C408 H380 0.929 . S
C408 C409 1.390 . S
C408 N411 1.391 1_455 S
C409 H381 0.930 . S
C409 C408 1.390 . S
C409 C410 1.392 . S
C410 H382 0.929 . S
C410 C407 1.391 1_455 S
C410 C409 1.392 . S
N411 Co355 2.257 . S
N411 C408 1.391 1_655 S
N411 C412 1.388 . S
C412 H383 0.930 . S
C412 C407 1.391 . S
C412 N411 1.388 . S
Co413 O415 2.143 . S
Co413 O421 2.074 . S
Co413 O424 2.093 . S
Co413 O437 2.097 . S
Co413 N454 2.151 . S
Co413 N462 2.214 1_554 S
Co414 O415 2.160 . S
Co414 O420 2.058 . S
Co414 O430 2.057 . S
Co414 O445 2.037 . S
Co414 N449 2.145 . S
Co414 N470 2.257 . S
O415 Co413 2.143 . S
O415 Co414 2.160 . S
C416 O417 1.278 . S
C416 O424 1.224 . S
O417 C416 1.278 . S
C418 O419 1.245 . S
C418 O430 1.232 . S
O419 C418 1.245 . S
O420 Co414 2.058 . S
O420 C446 1.269 . S
O421 Co413 2.074 . S
O421 C446 1.257 . S
H422 C447 0.930 . S
H423 C453 0.930 . S
O424 Co413 2.093 . S
O424 C416 1.224 . S
H425 C457 0.929 . S
H426 C459 0.930 . S
H427 C460 0.930 . S
H428 C458 0.929 . S
H429 C461 0.928 . S
O430 Co414 2.057 . S
O430 C418 1.232 . S
H431 C450 0.929 . S
H432 C451 0.929 . S
H433 C463 0.931 . S
H434 C455 0.929 . S
H435 C464 0.930 . S
H436 C456 0.930 . S
O437 Co413 2.097 . S
O437 C465 1.214 . S
H438 C466 0.929 . S
H439 C467 0.929 . S
H440 C468 0.930 . S
H441 C469 0.929 . S
H442 C471 0.930 . S
H443 C448 0.930 . S
H444 C452 0.930 . S
O445 Co414 2.037 . S
O445 C465 1.234 . S
C446 O420 1.269 . S
C446 O421 1.257 . S
C447 H422 0.930 . S
C447 C450 1.388 . S
C447 C452 1.418 . S
C448 H443 0.930 . S
C448 C451 1.404 . S
C448 C452 1.353 . S
N449 Co414 2.145 . S
N449 C450 1.397 . S
N449 C451 1.334 . S
C450 H431 0.929 . S
C450 C447 1.388 . S
C450 N449 1.397 . S
C451 H432 0.929 . S
C451 C448 1.404 . S
C451 N449 1.334 . S
C452 H444 0.930 . S
C452 C447 1.418 . S
C452 C448 1.353 . S
C453 H423 0.930 . S
C453 N454 1.330 . S
C453 C455 1.446 . S
N454 Co413 2.151 . S
N454 C453 1.330 . S
N454 C458 1.418 1_554 S
C455 H434 0.929 . S
C455 C453 1.446 . S
C455 C456 1.333 1_554 S
C456 H436 0.930 . S
C456 C455 1.333 1_556 S
C456 C457 1.266 . S
C457 H425 0.929 . S
C457 C456 1.266 . S
C457 C458 1.251 . S
C458 H428 0.929 . S
C458 N454 1.418 1_556 S
C458 C457 1.251 . S
C459 H426 0.930 . S
C459 C461 1.406 . S
C459 C464 1.261 . S
C460 H427 0.930 . S
C460 N462 1.325 . S
C460 C463 1.357 . S
C461 H429 0.928 . S
C461 C459 1.406 . S
C461 N462 1.261 . S
N462 Co413 2.214 1_556 S
N462 C460 1.325 . S
N462 C461 1.261 . S
C463 H433 0.931 . S
C463 C460 1.357 . S
C463 C464 1.312 . S
C464 H435 0.930 . S
C464 C459 1.261 . S
C464 C463 1.312 . S
C465 O437 1.214 . S
C465 O445 1.234 . S
C466 H438 0.929 . S
C466 C469 1.391 1_545 S
C466 C471 1.391 . S
C467 H439 0.929 . S
C467 C468 1.390 . S
C467 N470 1.391 1_565 S
C468 H440 0.930 . S
C468 C467 1.390 . S
C468 C469 1.392 . S
C469 H441 0.929 . S
C469 C466 1.391 1_565 S
C469 C468 1.392 . S
N470 Co414 2.257 . S
N470 C467 1.391 1_545 S
N470 C471 1.388 . S
C471 H442 0.930 . S
C471 C466 1.391 . S
C471 N470 1.388 . S
Co472 O474 2.143 . S
Co472 O480 2.074 . S
Co472 O483 2.093 . S
Co472 O496 2.097 . S
Co472 N513 2.151 . S
Co472 N521 2.214 . S
Co473 O474 2.160 . S
Co473 O479 2.058 . S
Co473 O489 2.057 . S
Co473 O504 2.037 . S
Co473 N508 2.145 . S
Co473 N529 2.257 . S
O474 Co472 2.143 . S
O474 Co473 2.160 . S
C475 O476 1.278 . S
C475 O483 1.224 . S
O476 C475 1.278 . S
C477 O478 1.245 . S
C477 O489 1.232 . S
O478 C477 1.245 . S
O479 Co473 2.058 . S
O479 C505 1.269 . S
O480 Co472 2.074 . S
O480 C505 1.257 . S
H481 C506 0.930 . S
H482 C512 0.930 . S
O483 Co472 2.093 . S
O483 C475 1.224 . S
H484 C516 0.929 . S
H485 C518 0.930 . S
H486 C519 0.930 . S
H487 C517 0.929 . S
H488 C520 0.928 . S
O489 Co473 2.057 . S
O489 C477 1.232 . S
H490 C509 0.929 . S
H491 C510 0.929 . S
H492 C522 0.931 . S
H493 C514 0.929 . S
H494 C523 0.930 . S
H495 C515 0.931 . S
O496 Co472 2.097 . S
O496 C524 1.214 . S
H497 C525 0.929 . S
H498 C526 0.929 . S
H499 C527 0.930 . S
H500 C528 0.929 . S
H501 C530 0.930 . S
H502 C507 0.930 . S
H503 C511 0.930 . S
O504 Co473 2.037 . S
O504 C524 1.234 . S
C505 O479 1.269 . S
C505 O480 1.257 . S
C506 H481 0.930 . S
C506 C509 1.388 . S
C506 C511 1.418 . S
C507 H502 0.930 . S
C507 C510 1.404 . S
C507 C511 1.353 . S
N508 Co473 2.145 . S
N508 C509 1.397 . S
N508 C510 1.334 . S
C509 H490 0.929 . S
C509 C506 1.388 . S
C509 N508 1.397 . S
C510 H491 0.929 . S
C510 C507 1.404 . S
C510 N508 1.334 . S
C511 H503 0.930 . S
C511 C506 1.418 . S
C511 C507 1.353 . S
C512 H482 0.930 . S
C512 N513 1.330 . S
C512 C514 1.446 . S
N513 Co472 2.151 . S
N513 C512 1.330 . S
N513 C517 1.418 . S
C514 H493 0.929 . S
C514 C512 1.446 . S
C514 C515 1.332 . S
C515 H495 0.931 . S
C515 C514 1.332 . S
C515 C516 1.267 . S
C516 H484 0.929 . S
C516 C515 1.267 . S
C516 C517 1.251 . S
C517 H487 0.929 . S
C517 N513 1.418 . S
C517 C516 1.251 . S
C518 H485 0.930 . S
C518 C520 1.406 . S
C518 C523 1.261 . S
C519 H486 0.930 . S
C519 N521 1.325 . S
C519 C522 1.357 . S
C520 H488 0.928 . S
C520 C518 1.406 . S
C520 N521 1.261 . S
N521 Co472 2.214 . S
N521 C519 1.325 . S
N521 C520 1.261 . S
C522 H492 0.931 . S
C522 C519 1.357 . S
C522 C523 1.312 . S
C523 H494 0.930 . S
C523 C518 1.261 . S
C523 C522 1.312 . S
C524 O496 1.214 . S
C524 O504 1.234 . S
C525 H497 0.929 . S
C525 C528 1.391 . S
C525 C530 1.391 . S
C526 H498 0.929 . S
C526 C527 1.390 . S
C526 N529 1.391 . S
C527 H499 0.930 . S
C527 C526 1.390 . S
C527 C528 1.392 . S
C528 H500 0.929 . S
C528 C525 1.391 . S
C528 C527 1.392 . S
N529 Co473 2.257 . S
N529 C526 1.391 . S
N529 C530 1.388 . S
C530 H501 0.930 . S
C530 C525 1.391 . S
C530 N529 1.388 . S
Co531 O533 2.143 . S
Co531 O539 2.074 . S
Co531 O542 2.093 . S
Co531 O555 2.097 . S
Co531 N572 2.151 . S
Co531 N580 2.214 . S
Co532 O533 2.160 . S
Co532 O538 2.058 . S
Co532 O548 2.057 . S
Co532 O563 2.037 . S
Co532 N567 2.145 . S
Co532 N588 2.257 . S
O533 Co531 2.143 . S
O533 Co532 2.160 . S
C534 O535 1.278 . S
C534 O542 1.224 . S
O535 C534 1.278 . S
C536 O537 1.245 . S
C536 O548 1.232 . S
O537 C536 1.245 . S
O538 Co532 2.058 . S
O538 C564 1.269 . S
O539 Co531 2.074 . S
O539 C564 1.257 . S
H540 C565 0.930 . S
H541 C571 0.930 . S
O542 Co531 2.093 . S
O542 C534 1.224 . S
H543 C575 0.929 . S
H544 C577 0.930 . S
H545 C578 0.930 . S
H546 C576 0.929 . S
H547 C579 0.928 . S
O548 Co532 2.057 . S
O548 C536 1.232 . S
H549 C568 0.929 . S
H550 C569 0.929 . S
H551 C581 0.931 . S
H552 C573 0.929 . S
H553 C582 0.930 . S
H554 C574 0.931 . S
O555 Co531 2.097 . S
O555 C583 1.214 . S
H556 C584 0.929 . S
H557 C585 0.929 . S
H558 C586 0.930 . S
H559 C587 0.929 . S
H560 C589 0.930 . S
H561 C566 0.930 . S
H562 C570 0.930 . S
O563 Co532 2.037 . S
O563 C583 1.234 . S
C564 O538 1.269 . S
C564 O539 1.257 . S
C565 H540 0.930 . S
C565 C568 1.388 . S
C565 C570 1.418 . S
C566 H561 0.930 . S
C566 C569 1.404 . S
C566 C570 1.353 . S
N567 Co532 2.145 . S
N567 C568 1.397 . S
N567 C569 1.334 . S
C568 H549 0.929 . S
C568 C565 1.388 . S
C568 N567 1.397 . S
C569 H550 0.929 . S
C569 C566 1.404 . S
C569 N567 1.334 . S
C570 H562 0.930 . S
C570 C565 1.418 . S
C570 C566 1.353 . S
C571 H541 0.930 . S
C571 N572 1.330 . S
C571 C573 1.446 . S
N572 Co531 2.151 . S
N572 C571 1.330 . S
N572 C576 1.418 . S
C573 H552 0.929 . S
C573 C571 1.446 . S
C573 C574 1.332 . S
C574 H554 0.931 . S
C574 C573 1.332 . S
C574 C575 1.267 . S
C575 H543 0.929 . S
C575 C574 1.267 . S
C575 C576 1.251 . S
C576 H546 0.929 . S
C576 N572 1.418 . S
C576 C575 1.251 . S
C577 H544 0.930 . S
C577 C579 1.406 . S
C577 C582 1.261 . S
C578 H545 0.930 . S
C578 N580 1.325 . S
C578 C581 1.357 . S
C579 H547 0.928 . S
C579 C577 1.406 . S
C579 N580 1.261 . S
N580 Co531 2.214 . S
N580 C578 1.325 . S
N580 C579 1.261 . S
C581 H551 0.931 . S
C581 C578 1.357 . S
C581 C582 1.312 . S
C582 H553 0.930 . S
C582 C577 1.261 . S
C582 C581 1.312 . S
C583 O555 1.214 . S
C583 O563 1.234 . S
C584 H556 0.929 . S
C584 C587 1.391 . S
C584 C589 1.391 . S
C585 H557 0.929 . S
C585 C586 1.390 . S
C585 N588 1.391 . S
C586 H558 0.930 . S
C586 C585 1.390 . S
C586 C587 1.392 . S
C587 H559 0.929 . S
C587 C584 1.391 . S
C587 C586 1.392 . S
N588 Co532 2.257 . S
N588 C585 1.391 . S
N588 C589 1.388 . S
C589 H560 0.930 . S
C589 C584 1.391 . S
C589 N588 1.388 . S
Co590 O592 2.143 . S
Co590 O598 2.074 . S
Co590 O601 2.093 . S
Co590 O614 2.097 . S
Co590 N631 2.151 . S
Co590 N639 2.214 . S
Co591 O592 2.160 . S
Co591 O597 2.058 . S
Co591 O607 2.057 . S
Co591 O622 2.037 . S
Co591 N626 2.145 . S
Co591 N647 2.257 . S
O592 Co590 2.143 . S
O592 Co591 2.160 . S
C593 O594 1.278 . S
C593 O601 1.224 . S
O594 C593 1.278 . S
C595 O596 1.245 . S
C595 O607 1.232 . S
O596 C595 1.245 . S
O597 Co591 2.058 . S
O597 C623 1.269 . S
O598 Co590 2.074 . S
O598 C623 1.257 . S
H599 C624 0.930 . S
H600 C630 0.930 . S
O601 Co590 2.093 . S
O601 C593 1.224 . S
H602 C634 0.929 . S
H603 C636 0.930 . S
H604 C637 0.930 . S
H605 C635 0.929 . S
H606 C638 0.928 . S
O607 Co591 2.057 . S
O607 C595 1.232 . S
H608 C627 0.929 . S
H609 C628 0.929 . S
H610 C640 0.931 . S
H611 C632 0.929 . S
H612 C641 0.930 . S
H613 C633 0.931 . S
O614 Co590 2.097 . S
O614 C642 1.214 . S
H615 C643 0.929 . S
H616 C644 0.929 . S
H617 C645 0.930 . S
H618 C646 0.929 . S
H619 C648 0.930 . S
H620 C625 0.930 . S
H621 C629 0.930 . S
O622 Co591 2.037 . S
O622 C642 1.234 . S
C623 O597 1.269 . S
C623 O598 1.257 . S
C624 H599 0.930 . S
C624 C627 1.388 . S
C624 C629 1.418 . S
C625 H620 0.930 . S
C625 C628 1.404 . S
C625 C629 1.353 . S
N626 Co591 2.145 . S
N626 C627 1.397 . S
N626 C628 1.334 . S
C627 H608 0.929 . S
C627 C624 1.388 . S
C627 N626 1.397 . S
C628 H609 0.929 . S
C628 C625 1.404 . S
C628 N626 1.334 . S
C629 H621 0.930 . S
C629 C624 1.418 . S
C629 C625 1.353 . S
C630 H600 0.930 . S
C630 N631 1.330 . S
C630 C632 1.446 . S
N631 Co590 2.151 . S
N631 C630 1.330 . S
N631 C635 1.418 . S
C632 H611 0.929 . S
C632 C630 1.446 . S
C632 C633 1.332 . S
C633 H613 0.931 . S
C633 C632 1.332 . S
C633 C634 1.267 . S
C634 H602 0.929 . S
C634 C633 1.267 . S
C634 C635 1.251 . S
C635 H605 0.929 . S
C635 N631 1.418 . S
C635 C634 1.251 . S
C636 H603 0.930 . S
C636 C638 1.406 . S
C636 C641 1.261 . S
C637 H604 0.930 . S
C637 N639 1.325 . S
C637 C640 1.357 . S
C638 H606 0.928 . S
C638 C636 1.406 . S
C638 N639 1.261 . S
N639 Co590 2.214 . S
N639 C637 1.325 . S
N639 C638 1.261 . S
C640 H610 0.931 . S
C640 C637 1.357 . S
C640 C641 1.312 . S
C641 H612 0.930 . S
C641 C636 1.261 . S
C641 C640 1.312 . S
C642 O614 1.214 . S
C642 O622 1.234 . S
C643 H615 0.929 . S
C643 C646 1.391 . S
C643 C648 1.391 . S
C644 H616 0.929 . S
C644 C645 1.390 . S
C644 N647 1.391 . S
C645 H617 0.930 . S
C645 C644 1.390 . S
C645 C646 1.392 . S
C646 H618 0.929 . S
C646 C643 1.391 . S
C646 C645 1.392 . S
N647 Co591 2.257 . S
N647 C644 1.391 . S
N647 C648 1.388 . S
C648 H619 0.930 . S
C648 C643 1.391 . S
C648 N647 1.388 . S
Co649 O651 2.143 . S
Co649 O657 2.074 . S
Co649 O660 2.093 . S
Co649 O673 2.097 . S
Co649 N690 2.151 . S
Co649 N698 2.214 . S
Co650 O651 2.160 . S
Co650 O656 2.058 . S
Co650 O666 2.057 . S
Co650 O681 2.037 . S
Co650 N685 2.145 . S
Co650 N706 2.257 . S
O651 Co649 2.143 . S
O651 Co650 2.160 . S
C652 O653 1.278 . S
C652 O660 1.224 . S
O653 C652 1.278 . S
C654 O655 1.245 . S
C654 O666 1.232 . S
O655 C654 1.245 . S
O656 Co650 2.058 . S
O656 C682 1.269 . S
O657 Co649 2.074 . S
O657 C682 1.257 . S
H658 C683 0.930 . S
H659 C689 0.930 . S
O660 Co649 2.093 . S
O660 C652 1.224 . S
H661 C693 0.929 . S
H662 C695 0.930 . S
H663 C696 0.930 . S
H664 C694 0.929 . S
H665 C697 0.928 . S
O666 Co650 2.057 . S
O666 C654 1.232 . S
H667 C686 0.929 . S
H668 C687 0.929 . S
H669 C699 0.931 . S
H670 C691 0.929 . S
H671 C700 0.930 . S
H672 C692 0.931 . S
O673 Co649 2.097 . S
O673 C701 1.214 . S
H674 C702 0.929 . S
H675 C703 0.929 . S
H676 C704 0.930 . S
H677 C705 0.929 . S
H678 C707 0.930 . S
H679 C684 0.930 . S
H680 C688 0.930 . S
O681 Co650 2.037 . S
O681 C701 1.234 . S
C682 O656 1.269 . S
C682 O657 1.257 . S
C683 H658 0.930 . S
C683 C686 1.388 . S
C683 C688 1.418 . S
C684 H679 0.930 . S
C684 C687 1.404 . S
C684 C688 1.353 . S
N685 Co650 2.145 . S
N685 C686 1.397 . S
N685 C687 1.334 . S
C686 H667 0.929 . S
C686 C683 1.388 . S
C686 N685 1.397 . S
C687 H668 0.929 . S
C687 C684 1.404 . S
C687 N685 1.334 . S
C688 H680 0.930 . S
C688 C683 1.418 . S
C688 C684 1.353 . S
C689 H659 0.930 . S
C689 N690 1.330 . S
C689 C691 1.446 . S
N690 Co649 2.151 . S
N690 C689 1.330 . S
N690 C694 1.418 . S
C691 H670 0.929 . S
C691 C689 1.446 . S
C691 C692 1.332 . S
C692 H672 0.931 . S
C692 C691 1.332 . S
C692 C693 1.267 . S
C693 H661 0.929 . S
C693 C692 1.267 . S
C693 C694 1.251 . S
C694 H664 0.929 . S
C694 N690 1.418 . S
C694 C693 1.251 . S
C695 H662 0.930 . S
C695 C697 1.406 . S
C695 C700 1.261 . S
C696 H663 0.930 . S
C696 N698 1.325 . S
C696 C699 1.357 . S
C697 H665 0.928 . S
C697 C695 1.406 . S
C697 N698 1.261 . S
N698 Co649 2.214 . S
N698 C696 1.325 . S
N698 C697 1.261 . S
C699 H669 0.931 . S
C699 C696 1.357 . S
C699 C700 1.312 . S
C700 H671 0.930 . S
C700 C695 1.261 . S
C700 C699 1.312 . S
C701 O673 1.214 . S
C701 O681 1.234 . S
C702 H674 0.929 . S
C702 C705 1.391 . S
C702 C707 1.391 . S
C703 H675 0.929 . S
C703 C704 1.390 . S
C703 N706 1.391 . S
C704 H676 0.930 . S
C704 C703 1.390 . S
C704 C705 1.392 . S
C705 H677 0.929 . S
C705 C702 1.391 . S
C705 C704 1.392 . S
N706 Co650 2.257 . S
N706 C703 1.391 . S
N706 C707 1.388 . S
C707 H678 0.930 . S
C707 C702 1.391 . S
C707 N706 1.388 . S
Co708 O710 2.143 . S
Co708 O716 2.074 . S
Co708 O719 2.093 . S
Co708 O732 2.097 . S
Co708 N749 2.151 . S
Co708 N757 2.214 . S
Co709 O710 2.160 . S
Co709 O715 2.058 . S
Co709 O725 2.057 . S
Co709 O740 2.037 . S
Co709 N744 2.145 . S
Co709 N765 2.257 . S
O710 Co708 2.143 . S
O710 Co709 2.160 . S
C711 O712 1.278 . S
C711 O719 1.224 . S
O712 C711 1.278 . S
C713 O714 1.245 . S
C713 O725 1.232 . S
O714 C713 1.245 . S
O715 Co709 2.058 . S
O715 C741 1.269 . S
O716 Co708 2.074 . S
O716 C741 1.257 . S
H717 C742 0.930 . S
H718 C748 0.930 . S
O719 Co708 2.093 . S
O719 C711 1.224 . S
H720 C752 0.929 . S
H721 C754 0.930 . S
H722 C755 0.930 . S
H723 C753 0.929 . S
H724 C756 0.928 . S
O725 Co709 2.057 . S
O725 C713 1.232 . S
H726 C745 0.929 . S
H727 C746 0.929 . S
H728 C758 0.931 . S
H729 C750 0.929 . S
H730 C759 0.930 . S
H731 C751 0.931 . S
O732 Co708 2.097 . S
O732 C760 1.214 . S
H733 C761 0.929 . S
H734 C762 0.929 . S
H735 C763 0.930 . S
H736 C764 0.929 . S
H737 C766 0.930 . S
H738 C743 0.930 . S
H739 C747 0.930 . S
O740 Co709 2.037 . S
O740 C760 1.234 . S
C741 O715 1.269 . S
C741 O716 1.257 . S
C742 H717 0.930 . S
C742 C745 1.388 . S
C742 C747 1.418 . S
C743 H738 0.930 . S
C743 C746 1.404 . S
C743 C747 1.353 . S
N744 Co709 2.145 . S
N744 C745 1.397 . S
N744 C746 1.334 . S
C745 H726 0.929 . S
C745 C742 1.388 . S
C745 N744 1.397 . S
C746 H727 0.929 . S
C746 C743 1.404 . S
C746 N744 1.334 . S
C747 H739 0.930 . S
C747 C742 1.418 . S
C747 C743 1.353 . S
C748 H718 0.930 . S
C748 N749 1.330 . S
C748 C750 1.446 . S
N749 Co708 2.151 . S
N749 C748 1.330 . S
N749 C753 1.418 . S
C750 H729 0.929 . S
C750 C748 1.446 . S
C750 C751 1.332 . S
C751 H731 0.931 . S
C751 C750 1.332 . S
C751 C752 1.267 . S
C752 H720 0.929 . S
C752 C751 1.267 . S
C752 C753 1.251 . S
C753 H723 0.929 . S
C753 N749 1.418 . S
C753 C752 1.251 . S
C754 H721 0.930 . S
C754 C756 1.406 . S
C754 C759 1.261 . S
C755 H722 0.930 . S
C755 N757 1.325 . S
C755 C758 1.357 . S
C756 H724 0.928 . S
C756 C754 1.406 . S
C756 N757 1.261 . S
N757 Co708 2.214 . S
N757 C755 1.325 . S
N757 C756 1.261 . S
C758 H728 0.931 . S
C758 C755 1.357 . S
C758 C759 1.312 . S
C759 H730 0.930 . S
C759 C754 1.261 . S
C759 C758 1.312 . S
C760 O732 1.214 . S
C760 O740 1.234 . S
C761 H733 0.929 . S
C761 C764 1.391 . S
C761 C766 1.391 . S
C762 H734 0.929 . S
C762 C763 1.390 . S
C762 N765 1.391 . S
C763 H735 0.930 . S
C763 C762 1.390 . S
C763 C764 1.392 . S
C764 H736 0.929 . S
C764 C761 1.391 . S
C764 C763 1.392 . S
N765 Co709 2.257 . S
N765 C762 1.391 . S
N765 C766 1.388 . S
C766 H737 0.930 . S
C766 C761 1.391 . S
C766 N765 1.388 . S
Co767 O769 2.143 . S
Co767 O775 2.074 . S
Co767 O778 2.093 . S
Co767 O791 2.097 . S
Co767 N808 2.151 . S
Co767 N816 2.214 . S
Co768 O769 2.160 . S
Co768 O774 2.058 . S
Co768 O784 2.057 . S
Co768 O799 2.037 . S
Co768 N803 2.145 . S
Co768 N824 2.257 . S
O769 Co767 2.143 . S
O769 Co768 2.160 . S
C770 O771 1.278 . S
C770 O778 1.224 . S
O771 C770 1.278 . S
C772 O773 1.245 . S
C772 O784 1.232 . S
O773 C772 1.245 . S
O774 Co768 2.058 . S
O774 C800 1.269 . S
O775 Co767 2.074 . S
O775 C800 1.257 . S
H776 C801 0.930 . S
H777 C807 0.930 . S
O778 Co767 2.093 . S
O778 C770 1.224 . S
H779 C811 0.929 . S
H780 C813 0.930 . S
H781 C814 0.930 . S
H782 C812 0.929 . S
H783 C815 0.928 . S
O784 Co768 2.057 . S
O784 C772 1.232 . S
H785 C804 0.929 . S
H786 C805 0.929 . S
H787 C817 0.931 . S
H788 C809 0.929 . S
H789 C818 0.930 . S
H790 C810 0.931 . S
O791 Co767 2.097 . S
O791 C819 1.214 . S
H792 C820 0.929 . S
H793 C821 0.929 . S
H794 C822 0.930 . S
H795 C823 0.929 . S
H796 C825 0.930 . S
H797 C802 0.930 . S
H798 C806 0.930 . S
O799 Co768 2.037 . S
O799 C819 1.234 . S
C800 O774 1.269 . S
C800 O775 1.257 . S
C801 H776 0.930 . S
C801 C804 1.388 . S
C801 C806 1.418 . S
C802 H797 0.930 . S
C802 C805 1.404 . S
C802 C806 1.353 . S
N803 Co768 2.145 . S
N803 C804 1.397 . S
N803 C805 1.334 . S
C804 H785 0.929 . S
C804 C801 1.388 . S
C804 N803 1.397 . S
C805 H786 0.929 . S
C805 C802 1.404 . S
C805 N803 1.334 . S
C806 H798 0.930 . S
C806 C801 1.418 . S
C806 C802 1.353 . S
C807 H777 0.930 . S
C807 N808 1.330 . S
C807 C809 1.446 . S
N808 Co767 2.151 . S
N808 C807 1.330 . S
N808 C812 1.418 . S
C809 H788 0.929 . S
C809 C807 1.446 . S
C809 C810 1.332 . S
C810 H790 0.931 . S
C810 C809 1.332 . S
C810 C811 1.267 . S
C811 H779 0.929 . S
C811 C810 1.267 . S
C811 C812 1.251 . S
C812 H782 0.929 . S
C812 N808 1.418 . S
C812 C811 1.251 . S
C813 H780 0.930 . S
C813 C815 1.406 . S
C813 C818 1.261 . S
C814 H781 0.930 . S
C814 N816 1.325 . S
C814 C817 1.357 . S
C815 H783 0.928 . S
C815 C813 1.406 . S
C815 N816 1.261 . S
N816 Co767 2.214 . S
N816 C814 1.325 . S
N816 C815 1.261 . S
C817 H787 0.931 . S
C817 C814 1.357 . S
C817 C818 1.312 . S
C818 H789 0.930 . S
C818 C813 1.261 . S
C818 C817 1.312 . S
C819 O791 1.214 . S
C819 O799 1.234 . S
C820 H792 0.929 . S
C820 C823 1.391 . S
C820 C825 1.391 . S
C821 H793 0.929 . S
C821 C822 1.390 . S
C821 N824 1.391 . S
C822 H794 0.930 . S
C822 C821 1.390 . S
C822 C823 1.392 . S
C823 H795 0.929 . S
C823 C820 1.391 . S
C823 C822 1.392 . S
N824 Co768 2.257 . S
N824 C821 1.391 . S
N824 C825 1.388 . S
C825 H796 0.930 . S
C825 C820 1.391 . S
C825 N824 1.388 . S
Co826 O828 2.143 . S
Co826 O834 2.074 . S
Co826 O837 2.093 . S
Co826 O850 2.097 . S
Co826 N867 2.151 . S
Co826 N875 2.214 . S
Co827 O828 2.160 . S
Co827 O833 2.058 . S
Co827 O843 2.057 . S
Co827 O858 2.037 . S
Co827 N862 2.145 . S
Co827 N883 2.257 . S
O828 Co826 2.143 . S
O828 Co827 2.160 . S
C829 O830 1.278 . S
C829 O837 1.224 . S
O830 C829 1.278 . S
C831 O832 1.245 . S
C831 O843 1.232 . S
O832 C831 1.245 . S
O833 Co827 2.058 . S
O833 C859 1.269 . S
O834 Co826 2.074 . S
O834 C859 1.257 . S
H835 C860 0.930 . S
H836 C866 0.930 . S
O837 Co826 2.093 . S
O837 C829 1.224 . S
H838 C870 0.929 . S
H839 C872 0.930 . S
H840 C873 0.930 . S
H841 C871 0.929 . S
H842 C874 0.928 . S
O843 Co827 2.057 . S
O843 C831 1.232 . S
H844 C863 0.929 . S
H845 C864 0.929 . S
H846 C876 0.931 . S
H847 C868 0.929 . S
H848 C877 0.930 . S
H849 C869 0.931 . S
O850 Co826 2.097 . S
O850 C878 1.214 . S
H851 C879 0.929 . S
H852 C880 0.929 . S
H853 C881 0.930 . S
H854 C882 0.929 . S
H855 C884 0.930 . S
H856 C861 0.930 . S
H857 C865 0.930 . S
O858 Co827 2.037 . S
O858 C878 1.234 . S
C859 O833 1.269 . S
C859 O834 1.257 . S
C860 H835 0.930 . S
C860 C863 1.388 . S
C860 C865 1.418 . S
C861 H856 0.930 . S
C861 C864 1.404 . S
C861 C865 1.353 . S
N862 Co827 2.145 . S
N862 C863 1.397 . S
N862 C864 1.334 . S
C863 H844 0.929 . S
C863 C860 1.388 . S
C863 N862 1.397 . S
C864 H845 0.929 . S
C864 C861 1.404 . S
C864 N862 1.334 . S
C865 H857 0.930 . S
C865 C860 1.418 . S
C865 C861 1.353 . S
C866 H836 0.930 . S
C866 N867 1.330 . S
C866 C868 1.446 . S
N867 Co826 2.151 . S
N867 C866 1.330 . S
N867 C871 1.418 . S
C868 H847 0.929 . S
C868 C866 1.446 . S
C868 C869 1.332 . S
C869 H849 0.931 . S
C869 C868 1.332 . S
C869 C870 1.267 . S
C870 H838 0.929 . S
C870 C869 1.267 . S
C870 C871 1.251 . S
C871 H841 0.929 . S
C871 N867 1.418 . S
C871 C870 1.251 . S
C872 H839 0.930 . S
C872 C874 1.406 . S
C872 C877 1.261 . S
C873 H840 0.930 . S
C873 N875 1.325 . S
C873 C876 1.357 . S
C874 H842 0.928 . S
C874 C872 1.406 . S
C874 N875 1.261 . S
N875 Co826 2.214 . S
N875 C873 1.325 . S
N875 C874 1.261 . S
C876 H846 0.931 . S
C876 C873 1.357 . S
C876 C877 1.312 . S
C877 H848 0.930 . S
C877 C872 1.261 . S
C877 C876 1.312 . S
C878 O850 1.214 . S
C878 O858 1.234 . S
C879 H851 0.929 . S
C879 C882 1.391 . S
C879 C884 1.391 . S
C880 H852 0.929 . S
C880 C881 1.390 . S
C880 N883 1.391 . S
C881 H853 0.930 . S
C881 C880 1.390 . S
C881 C882 1.392 . S
C882 H854 0.929 . S
C882 C879 1.391 . S
C882 C881 1.392 . S
N883 Co827 2.257 . S
N883 C880 1.391 . S
N883 C884 1.388 . S
C884 H855 0.930 . S
C884 C879 1.391 . S
C884 N883 1.388 . S
Co885 O887 2.143 . S
Co885 O893 2.074 . S
Co885 O896 2.093 . S
Co885 O909 2.097 . S
Co885 N926 2.151 . S
Co885 N934 2.214 . S
Co886 O887 2.160 . S
Co886 O892 2.058 . S
Co886 O902 2.057 . S
Co886 O917 2.037 . S
Co886 N921 2.145 . S
Co886 N942 2.257 . S
O887 Co885 2.143 . S
O887 Co886 2.160 . S
C888 O889 1.278 . S
C888 O896 1.224 . S
O889 C888 1.278 . S
C890 O891 1.245 . S
C890 O902 1.232 . S
O891 C890 1.245 . S
O892 Co886 2.058 . S
O892 C918 1.269 . S
O893 Co885 2.074 . S
O893 C918 1.257 . S
H894 C919 0.930 . S
H895 C925 0.930 . S
O896 Co885 2.093 . S
O896 C888 1.224 . S
H897 C929 0.929 . S
H898 C931 0.930 . S
H899 C932 0.930 . S
H900 C930 0.929 . S
H901 C933 0.928 . S
O902 Co886 2.057 . S
O902 C890 1.232 . S
H903 C922 0.929 . S
H904 C923 0.929 . S
H905 C935 0.931 . S
H906 C927 0.929 . S
H907 C936 0.930 . S
H908 C928 0.931 . S
O909 Co885 2.097 . S
O909 C937 1.214 . S
H910 C938 0.929 . S
H911 C939 0.929 . S
H912 C940 0.930 . S
H913 C941 0.929 . S
H914 C943 0.930 . S
H915 C920 0.930 . S
H916 C924 0.930 . S
O917 Co886 2.037 . S
O917 C937 1.234 . S
C918 O892 1.269 . S
C918 O893 1.257 . S
C919 H894 0.930 . S
C919 C922 1.388 . S
C919 C924 1.418 . S
C920 H915 0.930 . S
C920 C923 1.404 . S
C920 C924 1.353 . S
N921 Co886 2.145 . S
N921 C922 1.397 . S
N921 C923 1.334 . S
C922 H903 0.929 . S
C922 C919 1.388 . S
C922 N921 1.397 . S
C923 H904 0.929 . S
C923 C920 1.404 . S
C923 N921 1.334 . S
C924 H916 0.930 . S
C924 C919 1.418 . S
C924 C920 1.353 . S
C925 H895 0.930 . S
C925 N926 1.330 . S
C925 C927 1.446 . S
N926 Co885 2.151 . S
N926 C925 1.330 . S
N926 C930 1.418 . S
C927 H906 0.929 . S
C927 C925 1.446 . S
C927 C928 1.332 . S
C928 H908 0.931 . S
C928 C927 1.332 . S
C928 C929 1.267 . S
C929 H897 0.929 . S
C929 C928 1.267 . S
C929 C930 1.251 . S
C930 H900 0.929 . S
C930 N926 1.418 . S
C930 C929 1.251 . S
C931 H898 0.930 . S
C931 C933 1.406 . S
C931 C936 1.261 . S
C932 H899 0.930 . S
C932 N934 1.325 . S
C932 C935 1.357 . S
C933 H901 0.928 . S
C933 C931 1.406 . S
C933 N934 1.261 . S
N934 Co885 2.214 . S
N934 C932 1.325 . S
N934 C933 1.261 . S
C935 H905 0.931 . S
C935 C932 1.357 . S
C935 C936 1.312 . S
C936 H907 0.930 . S
C936 C931 1.261 . S
C936 C935 1.312 . S
C937 O909 1.214 . S
C937 O917 1.234 . S
C938 H910 0.929 . S
C938 C941 1.391 . S
C938 C943 1.391 . S
C939 H911 0.929 . S
C939 C940 1.390 . S
C939 N942 1.391 . S
C940 H912 0.930 . S
C940 C939 1.390 . S
C940 C941 1.392 . S
C941 H913 0.929 . S
C941 C938 1.391 . S
C941 C940 1.392 . S
N942 Co886 2.257 . S
N942 C939 1.391 . S
N942 C943 1.388 . S
C943 H914 0.930 . S
C943 C938 1.391 . S
C943 N942 1.388 . S
H944 C950 0.930 . S
H945 C953 0.930 . S
H946 C954 0.930 . S
H947 C955 0.930 . S
H948 C958 0.930 . S
H949 C959 0.930 . S
C950 H944 0.930 . S
C950 C951 1.355 . S
C950 C952 1.415 . S
C951 C950 1.355 . S
C951 C953 1.419 . S
C952 C950 1.415 . S
C952 C957 1.425 . S
C952 C959 1.409 . S
C953 H945 0.930 . S
C953 C951 1.419 . S
C953 C954 1.362 . S
C954 H946 0.930 . S
C954 C953 1.362 . S
C954 C957 1.409 . S
C955 H947 0.930 . S
C955 C956 1.355 . S
C955 C957 1.415 . S
C956 C955 1.355 . S
C956 C958 1.419 . S
C957 C952 1.425 . S
C957 C954 1.409 . S
C957 C955 1.415 . S
C958 H948 0.930 . S
C958 C956 1.419 . S
C958 C959 1.362 . S
C959 H949 0.930 . S
C959 C952 1.409 . S
C959 C958 1.362 . S
H960 C966 0.930 . S
H961 C969 0.930 . S
H962 C970 0.930 . S
H963 C971 0.930 . S
H964 C974 0.930 . S
H965 C975 0.930 . S
C966 H960 0.930 . S
C966 C967 1.355 . S
C966 C968 1.415 . S
C967 C966 1.355 . S
C967 C969 1.419 . S
C968 C966 1.415 . S
C968 C973 1.425 . S
C968 C975 1.409 . S
C969 H961 0.930 . S
C969 C967 1.419 . S
C969 C970 1.362 . S
C970 H962 0.930 . S
C970 C969 1.362 . S
C970 C973 1.409 . S
C971 H963 0.930 . S
C971 C972 1.355 . S
C971 C973 1.415 . S
C972 C971 1.355 . S
C972 C974 1.419 . S
C973 C968 1.425 . S
C973 C970 1.409 . S
C973 C971 1.415 . S
C974 H964 0.930 . S
C974 C972 1.419 . S
C974 C975 1.362 . S
C975 H965 0.930 . S
C975 C968 1.409 . S
C975 C974 1.362 . S
H976 C982 0.930 . S
H977 C985 0.930 . S
H978 C986 0.930 . S
H979 C987 0.930 . S
H980 C990 0.930 . S
H981 C991 0.930 . S
C982 H976 0.930 . S
C982 C983 1.355 . S
C982 C984 1.415 . S
C983 C982 1.355 . S
C983 C985 1.419 . S
C984 C982 1.415 . S
C984 C989 1.425 . S
C984 C991 1.409 . S
C985 H977 0.930 . S
C985 C983 1.419 . S
C985 C986 1.362 . S
C986 H978 0.930 . S
C986 C985 1.362 . S
C986 C989 1.409 . S
C987 H979 0.930 . S
C987 C988 1.355 . S
C987 C989 1.415 . S
C988 C987 1.355 . S
C988 C990 1.419 . S
C989 C984 1.425 . S
C989 C986 1.409 . S
C989 C987 1.415 . S
C990 H980 0.930 . S
C990 C988 1.419 . S
C990 C991 1.362 . S
C991 H981 0.930 . S
C991 C984 1.409 . S
C991 C990 1.362 . S
H992 C998 0.930 . S
H993 C1001 0.930 . S
H994 C1002 0.930 . S
H995 C1003 0.930 . S
H996 C1006 0.930 . S
H997 C1007 0.930 . S
C998 H992 0.930 . S
C998 C999 1.355 . S
C998 C1000 1.415 . S
C999 C998 1.355 . S
C999 C1001 1.419 . S
C1000 C998 1.415 . S
C1000 C1005 1.425 . S
C1000 C1007 1.409 . S
C1001 H993 0.930 . S
C1001 C999 1.419 . S
C1001 C1002 1.362 . S
C1002 H994 0.930 . S
C1002 C1001 1.362 . S
C1002 C1005 1.409 . S
C1003 H995 0.930 . S
C1003 C1004 1.355 . S
C1003 C1005 1.415 . S
C1004 C1003 1.355 . S
C1004 C1006 1.419 . S
C1005 C1000 1.425 . S
C1005 C1002 1.409 . S
C1005 C1003 1.415 . S
C1006 H996 0.930 . S
C1006 C1004 1.419 . S
C1006 C1007 1.362 . S
C1007 H997 0.930 . S
C1007 C1000 1.409 . S
C1007 C1006 1.362 . S
H1008 C1014 0.930 1_556 S
H1009 C1017 0.930 . S
H1010 C1018 0.930 . S
H1011 C1019 0.930 . S
H1012 C1022 0.930 . S
H1013 C1023 0.930 . S
C1014 H1008 0.930 1_554 S
C1014 C1015 1.355 . S
C1014 C1016 1.415 1_554 S
C1015 C1014 1.355 . S
C1015 C1017 1.419 . S
C1016 C1014 1.415 1_556 S
C1016 C1021 1.425 1_556 S
C1016 C1023 1.409 . S
C1017 H1009 0.930 . S
C1017 C1015 1.419 . S
C1017 C1018 1.362 . S
C1018 H1010 0.930 . S
C1018 C1017 1.362 . S
C1018 C1021 1.409 . S
C1019 H1011 0.930 . S
C1019 C1020 1.355 1_554 S
C1019 C1021 1.415 . S
C1020 C1019 1.355 1_556 S
C1020 C1022 1.419 . S
C1021 C1016 1.425 1_554 S
C1021 C1018 1.409 . S
C1021 C1019 1.415 . S
C1022 H1012 0.930 . S
C1022 C1020 1.419 . S
C1022 C1023 1.362 . S
C1023 H1013 0.930 . S
C1023 C1016 1.409 . S
C1023 C1022 1.362 . S
H1024 C1030 0.930 . S
H1025 C1033 0.930 . S
H1026 C1034 0.930 . S
H1027 C1035 0.930 . S
H1028 C1038 0.930 1_655 S
H1029 C1039 0.930 . S
C1030 H1024 0.930 . S
C1030 C1031 1.355 . S
C1030 C1032 1.415 . S
C1031 C1030 1.355 . S
C1031 C1033 1.419 1_554 S
C1032 C1030 1.415 . S
C1032 C1037 1.425 1_554 S
C1032 C1039 1.409 . S
C1033 H1025 0.930 . S
C1033 C1031 1.419 1_556 S
C1033 C1034 1.362 . S
C1034 H1026 0.930 . S
C1034 C1033 1.362 . S
C1034 C1037 1.409 . S
C1035 H1027 0.930 . S
C1035 C1036 1.355 . S
C1035 C1037 1.415 . S
C1036 C1035 1.355 . S
C1036 C1038 1.419 . S
C1037 C1032 1.425 1_556 S
C1037 C1034 1.409 . S
C1037 C1035 1.415 . S
C1038 H1028 0.930 1_455 S
C1038 C1036 1.419 . S
C1038 C1039 1.362 1_556 S
C1039 H1029 0.930 . S
C1039 C1032 1.409 . S
C1039 C1038 1.362 1_554 S
H1040 C1046 0.930 . S
H1041 C1049 0.930 . S
H1042 C1050 0.930 . S
H1043 C1051 0.930 . S
H1044 C1054 0.933 1_545 S
H1045 C1055 0.930 . S
C1046 H1040 0.930 . S
C1046 C1047 1.355 . S
C1046 C1048 1.415 . S
C1047 C1046 1.355 . S
C1047 C1049 1.419 1_556 S
C1048 C1046 1.415 . S
C1048 C1053 1.425 1_556 S
C1048 C1055 1.409 . S
C1049 H1041 0.930 . S
C1049 C1047 1.419 1_554 S
C1049 C1050 1.362 . S
C1050 H1042 0.930 . S
C1050 C1049 1.362 . S
C1050 C1053 1.409 . S
C1051 H1043 0.930 . S
C1051 C1052 1.355 . S
C1051 C1053 1.415 . S
C1052 C1051 1.355 . S
C1052 C1054 1.419 . S
C1053 C1048 1.425 1_554 S
C1053 C1050 1.409 . S
C1053 C1051 1.415 . S
C1054 H1044 0.933 1_565 S
C1054 C1052 1.419 . S
C1054 C1055 1.362 1_554 S
C1055 H1045 0.930 . S
C1055 C1048 1.409 . S
C1055 C1054 1.362 1_556 S
H1056 C1062 0.930 . S
H1057 C1065 0.930 . S
H1058 C1066 0.941 . S
H1059 C1067 0.930 . S
H1060 C1070 0.930 1_455 S
H1061 C1071 0.930 . S
C1062 H1056 0.930 . S
C1062 C1063 1.355 . S
C1062 C1064 1.415 1_554 S
C1063 C1062 1.355 . S
C1063 C1065 1.419 . S
C1064 C1062 1.415 1_556 S
C1064 C1069 1.425 . S
C1064 C1071 1.409 . S
C1065 H1057 0.930 . S
C1065 C1063 1.419 . S
C1065 C1066 1.339 1_554 S
C1066 H1058 0.941 . S
C1066 C1065 1.339 1_556 S
C1066 C1069 1.425 . S
C1067 H1059 0.930 . S
C1067 C1068 1.355 . S
C1067 C1069 1.415 . S
C1068 C1067 1.355 . S
C1068 C1070 1.419 . S
C1069 C1064 1.425 . S
C1069 C1066 1.425 . S
C1069 C1067 1.415 . S
C1070 H1060 0.930 1_655 S
C1070 C1068 1.419 . S
C1070 C1071 1.362 . S
C1071 H1061 0.930 . S
C1071 C1064 1.409 . S
C1071 C1070 1.362 . S
H1072 C1078 0.930 . S
H1073 C1081 0.930 . S
H1074 C1082 0.930 . S
H1075 C1083 0.930 . S
H1076 C1086 0.930 1_545 S
H1077 C1087 0.930 . S
C1078 H1072 0.930 . S
C1078 C1079 1.355 . S
C1078 C1080 1.415 . S
C1079 C1078 1.355 . S
C1079 C1081 1.419 . S
C1080 C1078 1.415 . S
C1080 C1085 1.425 . S
C1080 C1087 1.409 . S
C1081 H1073 0.930 . S
C1081 C1079 1.419 . S
C1081 C1082 1.362 . S
C1082 H1074 0.930 . S
C1082 C1081 1.362 . S
C1082 C1085 1.409 . S
C1083 H1075 0.930 . S
C1083 C1084 1.355 . S
C1083 C1085 1.415 . S
C1084 C1083 1.355 . S
C1084 C1086 1.419 . S
C1085 C1080 1.425 . S
C1085 C1082 1.409 . S
C1085 C1083 1.415 . S
C1086 H1076 0.930 1_565 S
C1086 C1084 1.419 . S
C1086 C1087 1.362 . S
C1087 H1077 0.930 . S
C1087 C1080 1.409 . S
C1087 C1086 1.362 . S
H1088 C1094 0.930 . S
H1089 C1097 0.930 . S
H1090 C1098 0.930 . S
H1091 C1099 0.930 . S
H1092 C1102 0.930 . S
H1093 C1103 0.930 . S
C1094 H1088 0.930 . S
C1094 C1095 1.355 . S
C1094 C1096 1.415 . S
C1095 C1094 1.355 . S
C1095 C1097 1.419 . S
C1096 C1094 1.415 . S
C1096 C1101 1.425 . S
C1096 C1103 1.409 . S
C1097 H1089 0.930 . S
C1097 C1095 1.419 . S
C1097 C1098 1.362 . S
C1098 H1090 0.930 . S
C1098 C1097 1.362 . S
C1098 C1101 1.409 . S
C1099 H1091 0.930 . S
C1099 C1100 1.355 . S
C1099 C1101 1.415 . S
C1100 C1099 1.355 . S
C1100 C1102 1.419 . S
C1101 C1096 1.425 . S
C1101 C1098 1.409 . S
C1101 C1099 1.415 . S
C1102 H1092 0.930 . S
C1102 C1100 1.419 . S
C1102 C1103 1.362 . S
C1103 H1093 0.930 . S
C1103 C1096 1.409 . S
C1103 C1102 1.362 . S
H1104 C1110 0.930 . S
H1105 C1113 0.930 1_565 S
H1106 C1114 0.930 . S
H1107 C1115 0.930 . S
H1108 C1118 0.930 . S
H1109 C1119 0.930 . S
C1110 H1104 0.930 . S
C1110 C1111 1.355 . S
C1110 C1112 1.415 . S
C1111 C1110 1.355 . S
C1111 C1113 1.419 . S
C1112 C1110 1.415 . S
C1112 C1117 1.425 . S
C1112 C1119 1.409 . S
C1113 H1105 0.930 1_545 S
C1113 C1111 1.419 . S
C1113 C1114 1.362 . S
C1114 H1106 0.930 . S
C1114 C1113 1.362 . S
C1114 C1117 1.409 . S
C1115 H1107 0.930 . S
C1115 C1116 1.355 . S
C1115 C1117 1.415 . S
C1116 C1115 1.355 . S
C1116 C1118 1.419 . S
C1117 C1112 1.425 . S
C1117 C1114 1.409 . S
C1117 C1115 1.415 . S
C1118 H1108 0.930 . S
C1118 C1116 1.419 . S
C1118 C1119 1.362 . S
C1119 H1109 0.930 . S
C1119 C1112 1.409 . S
C1119 C1118 1.362 . S
H1120 C1126 0.930 . S
H1121 C1129 0.930 1_655 S
H1122 C1130 0.930 . S
H1123 C1131 0.930 . S
H1124 C1134 0.930 . S
H1125 C1135 0.930 . S
C1126 H1120 0.930 . S
C1126 C1127 1.355 . S
C1126 C1128 1.415 . S
C1127 C1126 1.355 . S
C1127 C1129 1.419 . S
C1128 C1126 1.415 . S
C1128 C1133 1.425 . S
C1128 C1135 1.409 . S
C1129 H1121 0.930 1_455 S
C1129 C1127 1.419 . S
C1129 C1130 1.362 . S
C1130 H1122 0.930 . S
C1130 C1129 1.362 . S
C1130 C1133 1.409 . S
C1131 H1123 0.930 . S
C1131 C1132 1.355 . S
C1131 C1133 1.415 . S
C1132 C1131 1.355 . S
C1132 C1134 1.419 . S
C1133 C1128 1.425 . S
C1133 C1130 1.409 . S
C1133 C1131 1.415 . S
C1134 H1124 0.930 . S
C1134 C1132 1.419 . S
C1134 C1135 1.362 . S
C1135 H1125 0.930 . S
C1135 C1128 1.409 . S
C1135 C1134 1.362 . S
H1136 C1142 0.930 . S
H1137 C1145 0.930 . S
H1138 C1146 0.930 . S
H1139 C1147 0.930 . S
H1140 C1150 0.930 . S
H1141 C1151 0.930 . S
C1142 H1136 0.930 . S
C1142 C1143 1.355 . S
C1142 C1144 1.415 . S
C1143 C1142 1.355 . S
C1143 C1145 1.419 . S
C1144 C1142 1.415 . S
C1144 C1149 1.425 . S
C1144 C1151 1.409 . S
C1145 H1137 0.930 . S
C1145 C1143 1.419 . S
C1145 C1146 1.362 . S
C1146 H1138 0.930 . S
C1146 C1145 1.362 . S
C1146 C1149 1.409 . S
C1147 H1139 0.930 . S
C1147 C1148 1.355 . S
C1147 C1149 1.415 . S
C1148 C1147 1.355 . S
C1148 C1150 1.419 . S
C1149 C1144 1.425 . S
C1149 C1146 1.409 . S
C1149 C1147 1.415 . S
C1150 H1140 0.930 . S
C1150 C1148 1.419 . S
C1150 C1151 1.362 . S
C1151 H1141 0.930 . S
C1151 C1144 1.409 . S
C1151 C1150 1.362 . S
H1152 C1158 0.930 . S
H1153 C1161 0.930 . S
H1154 C1162 0.930 . S
H1155 C1163 0.930 . S
H1156 C1166 0.930 . S
H1157 C1167 0.930 . S
C1158 H1152 0.930 . S
C1158 C1159 1.355 . S
C1158 C1160 1.415 . S
C1159 C1158 1.355 . S
C1159 C1161 1.419 . S
C1160 C1158 1.415 . S
C1160 C1165 1.425 . S
C1160 C1167 1.409 . S
C1161 H1153 0.930 . S
C1161 C1159 1.419 . S
C1161 C1162 1.362 . S
C1162 H1154 0.930 . S
C1162 C1161 1.362 . S
C1162 C1165 1.409 . S
C1163 H1155 0.930 . S
C1163 C1164 1.355 . S
C1163 C1165 1.415 . S
C1164 C1163 1.355 . S
C1164 C1166 1.419 . S
C1165 C1160 1.425 . S
C1165 C1162 1.409 . S
C1165 C1163 1.415 . S
C1166 H1156 0.930 . S
C1166 C1164 1.419 . S
C1166 C1167 1.362 . S
C1167 H1157 0.930 . S
C1167 C1160 1.409 . S
C1167 C1166 1.362 . S
H1168 C1174 0.930 . S
H1169 C1177 0.930 . S
H1170 C1178 0.930 . S
H1171 C1179 0.930 . S
H1172 C1182 0.930 . S
H1173 C1183 0.930 . S
C1174 H1168 0.930 . S
C1174 C1175 1.355 . S
C1174 C1176 1.415 . S
C1175 C1174 1.355 . S
C1175 C1177 1.419 . S
C1176 C1174 1.415 . S
C1176 C1181 1.425 . S
C1176 C1183 1.409 . S
C1177 H1169 0.930 . S
C1177 C1175 1.419 . S
C1177 C1178 1.362 . S
C1178 H1170 0.930 . S
C1178 C1177 1.362 . S
C1178 C1181 1.409 . S
C1179 H1171 0.930 . S
C1179 C1180 1.355 . S
C1179 C1181 1.415 . S
C1180 C1179 1.355 . S
C1180 C1182 1.419 . S
C1181 C1176 1.425 . S
C1181 C1178 1.409 . S
C1181 C1179 1.415 . S
C1182 H1172 0.930 . S
C1182 C1180 1.419 . S
C1182 C1183 1.362 . S
C1183 H1173 0.930 . S
C1183 C1176 1.409 . S
C1183 C1182 1.362 . S
H1184 C1190 0.930 . S
H1185 C1193 0.930 . S
H1186 C1194 0.930 . S
H1187 C1195 0.930 . S
H1188 C1198 0.930 . S
H1189 C1199 0.930 . S
C1190 H1184 0.930 . S
C1190 C1191 1.355 . S
C1190 C1192 1.415 . S
C1191 C1190 1.355 . S
C1191 C1193 1.419 . S
C1192 C1190 1.415 . S
C1192 C1197 1.425 . S
C1192 C1199 1.409 . S
C1193 H1185 0.930 . S
C1193 C1191 1.419 . S
C1193 C1194 1.362 . S
C1194 H1186 0.930 . S
C1194 C1193 1.362 . S
C1194 C1197 1.409 . S
C1195 H1187 0.930 . S
C1195 C1196 1.355 . S
C1195 C1197 1.415 . S
C1196 C1195 1.355 . S
C1196 C1198 1.419 . S
C1197 C1192 1.425 . S
C1197 C1194 1.409 . S
C1197 C1195 1.415 . S
C1198 H1188 0.930 . S
C1198 C1196 1.419 . S
C1198 C1199 1.362 . S
C1199 H1189 0.930 . S
C1199 C1192 1.409 . S
C1199 C1198 1.362 . S
H1200 C1206 0.930 . S
H1201 C1209 0.930 . S
H1202 C1210 0.930 . S
H1203 C1211 0.930 . S
H1204 C1214 0.930 . S
H1205 C1215 0.930 . S
C1206 H1200 0.930 . S
C1206 C1207 1.355 . S
C1206 C1208 1.415 . S
C1207 C1206 1.355 . S
C1207 C1209 1.419 . S
C1208 C1206 1.415 . S
C1208 C1213 1.425 . S
C1208 C1215 1.409 . S
C1209 H1201 0.930 . S
C1209 C1207 1.419 . S
C1209 C1210 1.362 . S
C1210 H1202 0.930 . S
C1210 C1209 1.362 . S
C1210 C1213 1.409 . S
C1211 H1203 0.930 . S
C1211 C1212 1.355 . S
C1211 C1213 1.415 . S
C1212 C1211 1.355 . S
C1212 C1214 1.419 . S
C1213 C1208 1.425 . S
C1213 C1210 1.409 . S
C1213 C1211 1.415 . S
C1214 H1204 0.930 . S
C1214 C1212 1.419 . S
C1214 C1215 1.362 . S
C1215 H1205 0.930 . S
C1215 C1208 1.409 . S
C1215 C1214 1.362 . S
H1216 C1222 0.930 . S
H1217 C1225 0.930 . S
H1218 C1226 0.930 . S
H1219 C1227 0.930 . S
H1220 C1230 0.930 . S
H1221 C1231 0.930 . S
C1222 H1216 0.930 . S
C1222 C1223 1.355 . S
C1222 C1224 1.415 . S
C1223 C1222 1.355 . S
C1223 C1225 1.419 . S
C1224 C1222 1.415 . S
C1224 C1229 1.425 . S
C1224 C1231 1.409 . S
C1225 H1217 0.930 . S
C1225 C1223 1.419 . S
C1225 C1226 1.362 . S
C1226 H1218 0.930 . S
C1226 C1225 1.362 . S
C1226 C1229 1.409 . S
C1227 H1219 0.930 . S
C1227 C1228 1.355 . S
C1227 C1229 1.415 . S
C1228 C1227 1.355 . S
C1228 C1230 1.419 . S
C1229 C1224 1.425 . S
C1229 C1226 1.409 . S
C1229 C1227 1.415 . S
C1230 H1220 0.930 . S
C1230 C1228 1.419 . S
C1230 C1231 1.362 . S
C1231 H1221 0.930 . S
C1231 C1224 1.409 . S
C1231 C1230 1.362 . S
H1232 C1238 0.930 . S
H1233 C1241 0.930 . S
H1234 C1242 0.930 . S
H1235 C1243 0.930 . S
H1236 C1246 0.930 . S
H1237 C1247 0.930 . S
C1238 H1232 0.930 . S
C1238 C1239 1.355 . S
C1238 C1240 1.415 . S
C1239 C1238 1.355 . S
C1239 C1241 1.419 . S
C1240 C1238 1.415 . S
C1240 C1245 1.425 . S
C1240 C1247 1.409 . S
C1241 H1233 0.930 . S
C1241 C1239 1.419 . S
C1241 C1242 1.362 . S
C1242 H1234 0.930 . S
C1242 C1241 1.362 . S
C1242 C1245 1.409 . S
C1243 H1235 0.930 . S
C1243 C1244 1.355 . S
C1243 C1245 1.415 . S
C1244 C1243 1.355 . S
C1244 C1246 1.419 . S
C1245 C1240 1.425 . S
C1245 C1242 1.409 . S
C1245 C1243 1.415 . S
C1246 H1236 0.930 . S
C1246 C1244 1.419 . S
C1246 C1247 1.362 . S
C1247 H1237 0.930 . S
C1247 C1240 1.409 . S
C1247 C1246 1.362 . S
H1248 C1254 0.930 . S
H1249 C1257 0.930 . S
H1250 C1258 0.930 . S
H1251 C1259 0.930 . S
H1252 C1262 0.930 . S
H1253 C1263 0.930 . S
C1254 H1248 0.930 . S
C1254 C1255 1.355 . S
C1254 C1256 1.415 . S
C1255 C1254 1.355 . S
C1255 C1257 1.419 . S
C1256 C1254 1.415 . S
C1256 C1261 1.425 . S
C1256 C1263 1.409 . S
C1257 H1249 0.930 . S
C1257 C1255 1.419 . S
C1257 C1258 1.362 . S
C1258 H1250 0.930 . S
C1258 C1257 1.362 . S
C1258 C1261 1.409 . S
C1259 H1251 0.930 . S
C1259 C1260 1.355 . S
C1259 C1261 1.415 . S
C1260 C1259 1.355 . S
C1260 C1262 1.419 . S
C1261 C1256 1.425 . S
C1261 C1258 1.409 . S
C1261 C1259 1.415 . S
C1262 H1252 0.930 . S
C1262 C1260 1.419 . S
C1262 C1263 1.362 . S
C1263 H1253 0.930 . S
C1263 C1256 1.409 . S
C1263 C1262 1.362 . S
H1264 C1270 0.930 . S
H1265 C1273 0.930 . S
H1266 C1274 0.930 . S
H1267 C1275 0.930 . S
H1268 C1278 0.930 . S
H1269 C1279 0.930 . S
C1270 H1264 0.930 . S
C1270 C1271 1.355 . S
C1270 C1272 1.415 . S
C1271 C1270 1.355 . S
C1271 C1273 1.419 . S
C1272 C1270 1.415 . S
C1272 C1277 1.425 . S
C1272 C1279 1.409 . S
C1273 H1265 0.930 . S
C1273 C1271 1.419 . S
C1273 C1274 1.362 . S
C1274 H1266 0.930 . S
C1274 C1273 1.362 . S
C1274 C1277 1.409 . S
C1275 H1267 0.930 . S
C1275 C1276 1.355 . S
C1275 C1277 1.415 . S
C1276 C1275 1.355 . S
C1276 C1278 1.419 . S
C1277 C1272 1.425 . S
C1277 C1274 1.409 . S
C1277 C1275 1.415 . S
C1278 H1268 0.930 . S
C1278 C1276 1.419 . S
C1278 C1279 1.362 . S
C1279 H1269 0.930 . S
C1279 C1272 1.409 . S
C1279 C1278 1.362 . S
H1280 C1286 0.930 . S
H1281 C1289 0.930 . S
H1282 C1290 0.930 . S
H1283 C1291 0.930 . S
H1284 C1294 0.930 . S
H1285 C1295 0.930 . S
C1286 H1280 0.930 . S
C1286 C1287 1.355 . S
C1286 C1288 1.415 . S
C1287 C1286 1.355 . S
C1287 C1289 1.419 . S
C1288 C1286 1.415 . S
C1288 C1293 1.425 . S
C1288 C1295 1.409 . S
C1289 H1281 0.930 . S
C1289 C1287 1.419 . S
C1289 C1290 1.362 . S
C1290 H1282 0.930 . S
C1290 C1289 1.362 . S
C1290 C1293 1.409 . S
C1291 H1283 0.930 . S
C1291 C1292 1.355 . S
C1291 C1293 1.415 . S
C1292 C1291 1.355 . S
C1292 C1294 1.419 . S
C1293 C1288 1.425 . S
C1293 C1290 1.409 . S
C1293 C1291 1.415 . S
C1294 H1284 0.930 . S
C1294 C1292 1.419 . S
C1294 C1295 1.362 . S
C1295 H1285 0.930 . S
C1295 C1288 1.409 . S
C1295 C1294 1.362 . S
H1296 C1302 0.930 . S
H1297 C1305 0.930 . S
H1298 C1306 0.930 . S
H1299 C1307 0.930 . S
H1300 C1310 0.930 . S
H1301 C1311 0.930 . S
C1302 H1296 0.930 . S
C1302 C1303 1.355 . S
C1302 C1304 1.415 . S
C1303 C1302 1.355 . S
C1303 C1305 1.419 . S
C1304 C1302 1.415 . S
C1304 C1309 1.425 . S
C1304 C1311 1.409 . S
C1305 H1297 0.930 . S
C1305 C1303 1.419 . S
C1305 C1306 1.362 . S
C1306 H1298 0.930 . S
C1306 C1305 1.362 . S
C1306 C1309 1.409 . S
C1307 H1299 0.930 . S
C1307 C1308 1.355 . S
C1307 C1309 1.415 . S
C1308 C1307 1.355 . S
C1308 C1310 1.419 . S
C1309 C1304 1.425 . S
C1309 C1306 1.409 . S
C1309 C1307 1.415 . S
C1310 H1300 0.930 . S
C1310 C1308 1.419 . S
C1310 C1311 1.362 . S
C1311 H1301 0.930 . S
C1311 C1304 1.409 . S
C1311 C1310 1.362 . S
H1312 C1318 0.930 . S
H1313 C1321 0.930 . S
H1314 C1322 0.930 . S
H1315 C1323 0.930 . S
H1316 C1326 0.930 . S
H1317 C1327 0.930 . S
C1318 H1312 0.930 . S
C1318 C1319 1.355 . S
C1318 C1320 1.415 . S
C1319 C1318 1.355 . S
C1319 C1321 1.419 . S
C1320 C1318 1.415 . S
C1320 C1325 1.425 . S
C1320 C1327 1.409 . S
C1321 H1313 0.930 . S
C1321 C1319 1.419 . S
C1321 C1322 1.362 . S
C1322 H1314 0.930 . S
C1322 C1321 1.362 . S
C1322 C1325 1.409 . S
C1323 H1315 0.930 . S
C1323 C1324 1.355 . S
C1323 C1325 1.415 . S
C1324 C1323 1.355 . S
C1324 C1326 1.419 . S
C1325 C1320 1.425 . S
C1325 C1322 1.409 . S
C1325 C1323 1.415 . S
C1326 H1316 0.930 . S
C1326 C1324 1.419 . S
C1326 C1327 1.362 . S
C1327 H1317 0.930 . S
C1327 C1320 1.409 . S
C1327 C1326 1.362 . S
H1328 C1334 0.930 . S
H1329 C1337 0.930 . S
H1330 C1338 0.930 . S
H1331 C1339 0.930 . S
H1332 C1342 0.930 . S
H1333 C1343 0.930 . S
C1334 H1328 0.930 . S
C1334 C1335 1.355 1_455 S
C1334 C1336 1.415 . S
C1335 C1334 1.355 1_655 S
C1335 C1337 1.419 . S
C1336 C1334 1.415 . S
C1336 C1341 1.425 1_465 S
C1336 C1343 1.409 . S
C1337 H1329 0.930 . S
C1337 C1335 1.419 . S
C1337 C1338 1.362 1_565 S
C1338 H1330 0.930 . S
C1338 C1337 1.362 1_545 S
C1338 C1341 1.409 . S
C1339 H1331 0.930 . S
C1339 C1340 1.355 1_655 S
C1339 C1341 1.415 . S
C1340 C1339 1.355 1_455 S
C1340 C1342 1.419 . S
C1341 C1336 1.425 1_645 S
C1341 C1338 1.409 . S
C1341 C1339 1.415 . S
C1342 H1332 0.930 . S
C1342 C1340 1.419 . S
C1342 C1343 1.362 1_545 S
C1343 H1333 0.930 . S
C1343 C1336 1.409 . S
C1343 C1342 1.362 1_565 S
H1344 C1350 0.930 . S
H1345 C1353 0.930 . S
H1346 C1354 0.930 1_455 S
H1347 C1355 0.930 . S
H1348 C1358 0.930 . S
H1349 C1359 0.930 1_655 S
C1350 H1344 0.930 . S
C1350 C1351 1.355 . S
C1350 C1352 1.415 1_545 S
C1351 C1350 1.355 . S
C1351 C1353 1.419 . S
C1352 C1350 1.415 1_565 S
C1352 C1357 1.425 1_665 S
C1352 C1359 1.409 1_655 S
C1353 H1345 0.930 . S
C1353 C1351 1.419 . S
C1353 C1354 1.362 . S
C1354 H1346 0.930 1_655 S
C1354 C1353 1.362 . S
C1354 C1357 1.409 1_655 S
C1355 H1347 0.930 . S
C1355 C1356 1.355 . S
C1355 C1357 1.415 1_565 S
C1356 C1355 1.355 . S
C1356 C1358 1.419 . S
C1357 C1352 1.425 1_445 S
C1357 C1354 1.409 1_455 S
C1357 C1355 1.415 1_545 S
C1358 H1348 0.930 . S
C1358 C1356 1.419 . S
C1358 C1359 1.362 . S
C1359 H1349 0.930 1_455 S
C1359 C1352 1.409 1_455 S
C1359 C1358 1.362 . S
H1360 C1366 0.930 . S
H1361 C1369 0.930 . S
H1362 C1370 0.930 . S
H1363 C1371 0.930 . S
H1364 C1374 0.930 . S
H1365 C1375 0.930 . S
C1366 H1360 0.930 . S
C1366 C1367 1.355 1_655 S
C1366 C1368 1.415 . S
C1367 C1366 1.355 1_455 S
C1367 C1369 1.419 . S
C1368 C1366 1.415 . S
C1368 C1373 1.425 1_655 S
C1368 C1375 1.409 . S
C1369 H1361 0.930 . S
C1369 C1367 1.419 . S
C1369 C1370 1.362 . S
C1370 H1362 0.930 . S
C1370 C1369 1.362 . S
C1370 C1373 1.409 . S
C1371 H1363 0.930 . S
C1371 C1372 1.355 1_455 S
C1371 C1373 1.415 . S
C1372 C1371 1.355 1_655 S
C1372 C1374 1.419 . S
C1373 C1368 1.425 1_455 S
C1373 C1370 1.409 . S
C1373 C1371 1.415 . S
C1374 H1364 0.930 . S
C1374 C1372 1.419 . S
C1374 C1375 1.362 . S
C1375 H1365 0.930 . S
C1375 C1368 1.409 . S
C1375 C1374 1.362 . S
H1376 C1382 0.930 . S
H1377 C1385 0.930 . S
H1378 C1386 0.930 . S
H1379 C1387 0.930 . S
H1380 C1390 0.930 . S
H1381 C1391 0.930 . S
C1382 H1376 0.930 . S
C1382 C1383 1.355 1_545 S
C1382 C1384 1.415 . S
C1383 C1382 1.355 1_565 S
C1383 C1385 1.419 . S
C1384 C1382 1.415 . S
C1384 C1389 1.425 1_545 S
C1384 C1391 1.409 . S
C1385 H1377 0.930 . S
C1385 C1383 1.419 . S
C1385 C1386 1.362 . S
C1386 H1378 0.930 . S
C1386 C1385 1.362 . S
C1386 C1389 1.409 . S
C1387 H1379 0.930 . S
C1387 C1388 1.355 1_565 S
C1387 C1389 1.415 . S
C1388 C1387 1.355 1_545 S
C1388 C1390 1.419 . S
C1389 C1384 1.425 1_565 S
C1389 C1386 1.409 . S
C1389 C1387 1.415 . S
C1390 H1380 0.930 . S
C1390 C1388 1.419 . S
C1390 C1391 1.362 . S
C1391 H1381 0.930 . S
C1391 C1384 1.409 . S
C1391 C1390 1.362 . S
H1392 C1398 0.930 . S
H1393 C1401 0.930 . S
H1394 C1402 0.930 . S
H1395 C1403 0.930 . S
H1396 C1406 0.930 . S
H1397 C1407 0.930 . S
C1398 H1392 0.930 . S
C1398 C1399 1.355 . S
C1398 C1400 1.415 . S
C1399 C1398 1.355 . S
C1399 C1401 1.419 . S
C1400 C1398 1.415 . S
C1400 C1405 1.425 . S
C1400 C1407 1.409 . S
C1401 H1393 0.930 . S
C1401 C1399 1.419 . S
C1401 C1402 1.362 . S
C1402 H1394 0.930 . S
C1402 C1401 1.362 . S
C1402 C1405 1.409 . S
C1403 H1395 0.930 . S
C1403 C1404 1.355 . S
C1403 C1405 1.415 . S
C1404 C1403 1.355 . S
C1404 C1406 1.419 . S
C1405 C1400 1.425 . S
C1405 C1402 1.409 . S
C1405 C1403 1.415 . S
C1406 H1396 0.930 . S
C1406 C1404 1.419 . S
C1406 C1407 1.362 . S
C1407 H1397 0.930 . S
C1407 C1400 1.409 . S
C1407 C1406 1.362 . S
H1408 C1414 0.930 . S
H1409 C1417 0.930 . S
H1410 C1418 0.930 . S
H1411 C1419 0.930 . S
H1412 C1422 0.930 . S
H1413 C1423 0.930 . S
C1414 H1408 0.930 . S
C1414 C1415 1.355 . S
C1414 C1416 1.415 . S
C1415 C1414 1.355 . S
C1415 C1417 1.419 . S
C1416 C1414 1.415 . S
C1416 C1421 1.425 . S
C1416 C1423 1.409 . S
C1417 H1409 0.930 . S
C1417 C1415 1.419 . S
C1417 C1418 1.362 . S
C1418 H1410 0.930 . S
C1418 C1417 1.362 . S
C1418 C1421 1.409 . S
C1419 H1411 0.930 . S
C1419 C1420 1.355 . S
C1419 C1421 1.415 . S
C1420 C1419 1.355 . S
C1420 C1422 1.419 . S
C1421 C1416 1.425 . S
C1421 C1418 1.409 . S
C1421 C1419 1.415 . S
C1422 H1412 0.930 . S
C1422 C1420 1.419 . S
C1422 C1423 1.362 . S
C1423 H1413 0.930 . S
C1423 C1416 1.409 . S
C1423 C1422 1.362 . S
H1424 C1430 0.930 . S
H1425 C1433 0.930 . S
H1426 C1434 0.930 . S
H1427 C1435 0.930 . S
H1428 C1438 0.930 . S
H1429 C1439 0.930 . S
C1430 H1424 0.930 . S
C1430 C1431 1.355 . S
C1430 C1432 1.415 . S
C1431 C1430 1.355 . S
C1431 C1433 1.419 . S
C1432 C1430 1.415 . S
C1432 C1437 1.425 1_545 S
C1432 C1439 1.409 1_545 S
C1433 H1425 0.930 . S
C1433 C1431 1.419 . S
C1433 C1434 1.362 . S
C1434 H1426 0.930 . S
C1434 C1433 1.362 . S
C1434 C1437 1.409 1_545 S
C1435 H1427 0.930 . S
C1435 C1436 1.355 . S
C1435 C1437 1.415 . S
C1436 C1435 1.355 . S
C1436 C1438 1.419 . S
C1437 C1432 1.425 1_565 S
C1437 C1434 1.409 1_565 S
C1437 C1435 1.415 . S
C1438 H1428 0.930 . S
C1438 C1436 1.419 . S
C1438 C1439 1.362 . S
C1439 H1429 0.930 . S
C1439 C1432 1.409 1_565 S
C1439 C1438 1.362 . S
H1440 C1446 0.930 . S
H1441 C1449 0.930 . S
H1442 C1450 0.930 . S
H1443 C1451 0.930 . S
H1444 C1454 0.930 . S
H1445 C1455 0.930 . S
C1446 H1440 0.930 . S
C1446 C1447 1.355 . S
C1446 C1448 1.415 . S
C1447 C1446 1.355 . S
C1447 C1449 1.419 . S
C1448 C1446 1.415 . S
C1448 C1453 1.425 1_655 S
C1448 C1455 1.409 1_655 S
C1449 H1441 0.930 . S
C1449 C1447 1.419 . S
C1449 C1450 1.362 . S
C1450 H1442 0.930 . S
C1450 C1449 1.362 . S
C1450 C1453 1.409 1_655 S
C1451 H1443 0.930 . S
C1451 C1452 1.355 . S
C1451 C1453 1.415 . S
C1452 C1451 1.355 . S
C1452 C1454 1.419 . S
C1453 C1448 1.425 1_455 S
C1453 C1450 1.409 1_455 S
C1453 C1451 1.415 . S
C1454 H1444 0.930 . S
C1454 C1452 1.419 . S
C1454 C1455 1.362 . S
C1455 H1445 0.930 . S
C1455 C1448 1.409 1_455 S
C1455 C1454 1.362 . S
C951 C33 1.311 . S
C956 C701 1.336 . S
C967 C524 1.349 . S
C972 C92 1.336 . S
C983 C583 1.343 . S
C988 C151 1.350 . S
C999 C642 1.347 . S
C1004 C210 1.345 . S
C1015 C347 1.346 1_545 S
C1020 C269 1.323 . S
C1031 C328 1.350 . S
C1036 C406 1.341 1_455 S
C1047 C387 1.345 . S
C1052 C465 1.334 1_565 S
C1063 C446 1.344 . S
C1068 C288 1.347 1_655 S
C1079 C505 1.340 . S
C1084 C229 1.331 1_565 S
C1095 C52 1.345 1_655 S
C1100 C564 1.348 . S
C1111 C111 1.342 1_545 S
C1116 C623 1.350 . S
C1127 C170 1.330 1_455 S
C1132 C682 1.338 . S
C1143 C819 1.340 . S
C1148 C741 1.313 . S
C1159 C800 1.329 . S
C1164 C878 1.327 . S
C1175 C937 1.329 . S
C1180 C859 1.337 . S
C1191 C760 1.349 . S
C1196 C918 1.335 . S
C1207 C831 1.512 . S
C1212 C5 1.516 . S
C1223 C890 1.489 . S
C1228 C64 1.490 . S
C1239 C713 1.509 . S
C1244 C123 1.513 . S
C1255 C182 1.489 . S
C1260 C772 1.489 . S
C1271 C241 1.515 . S
C1276 C595 1.518 . S
C1287 C654 1.489 . S
C1292 C300 1.489 . S
C1303 C359 1.495 . S
C1308 C477 1.499 . S
C1319 C418 1.502 . S
C1324 C536 1.497 . S
C1335 C121 1.413 . S
C1340 C3 1.410 . S
C1351 C180 1.386 . S
C1356 C62 1.394 . S
C1367 C239 1.413 . S
C1372 C357 1.410 . S
C1383 C298 1.412 . S
C1388 C416 1.414 . S
C1399 C593 1.356 . S
C1404 C475 1.357 . S
C1415 C534 1.413 . S
C1420 C652 1.410 . S
C1431 C829 1.384 . S
C1436 C711 1.377 . S
C1447 C770 1.397 . S
C1452 C888 1.390 . S
