# Generated by pormake.
# Topology yft, (5)-cn, num edge types: 1
# Building blocks:
#     Node 0, Type 0, BuildingBlock: XOMCOT_clean_sbu_1, # of connection points: 5
#     Node 1, Type 0, BuildingBlock: XOMCOT_clean_sbu_1, # of connection points: 5
#     Node 2, Type 0, BuildingBlock: XOMCOT_clean_sbu_1, # of connection points: 5
#     Node 3, Type 0, BuildingBlock: XOMCOT_clean_sbu_1, # of connection points: 5
#     Node 4, Type 0, BuildingBlock: XOMCOT_clean_sbu_1, # of connection points: 5
#     Node 5, Type 0, BuildingBlock: XOMCOT_clean_sbu_1, # of connection points: 5
#     Node 6, Type 0, BuildingBlock: XOMCOT_clean_sbu_1, # of connection points: 5
#     Node 7, Type 0, BuildingBlock: XOMCOT_clean_sbu_1, # of connection points: 5
#     Node 8, Type 0, BuildingBlock: XOMCOT_clean_sbu_1, # of connection points: 5
#     Node 9, Type 0, BuildingBlock: XOMCOT_clean_sbu_1, # of connection points: 5
#     Node 10, Type 0, BuildingBlock: XOMCOT_clean_sbu_1, # of connection points: 5
#     Node 11, Type 0, BuildingBlock: XOMCOT_clean_sbu_1, # of connection points: 5
#     Node 12, Type 0, BuildingBlock: XOMCOT_clean_sbu_1, # of connection points: 5
#     Node 13, Type 0, BuildingBlock: XOMCOT_clean_sbu_1, # of connection points: 5
#     Node 14, Type 0, BuildingBlock: XOMCOT_clean_sbu_1, # of connection points: 5
#     Node 15, Type 0, BuildingBlock: XOMCOT_clean_sbu_1, # of connection points: 5
#     Node 16, Type 0, BuildingBlock: XOMCOT_clean_sbu_1, # of connection points: 5
#     Node 17, Type 0, BuildingBlock: XOMCOT_clean_sbu_1, # of connection points: 5
#     Node 18, Type 0, BuildingBlock: XOMCOT_clean_sbu_1, # of connection points: 5
#     Node 19, Type 0, BuildingBlock: XOMCOT_clean_sbu_1, # of connection points: 5
#     Node 20, Type 0, BuildingBlock: XOMCOT_clean_sbu_1, # of connection points: 5
#     Node 21, Type 0, BuildingBlock: XOMCOT_clean_sbu_1, # of connection points: 5
#     Node 22, Type 0, BuildingBlock: XOMCOT_clean_sbu_1, # of connection points: 5
#     Node 23, Type 0, BuildingBlock: XOMCOT_clean_sbu_1, # of connection points: 5
#     Node 24, Type 0, BuildingBlock: XOMCOT_clean_sbu_1, # of connection points: 5
#     Node 25, Type 0, BuildingBlock: XOMCOT_clean_sbu_1, # of connection points: 5
#     Node 26, Type 0, BuildingBlock: XOMCOT_clean_sbu_1, # of connection points: 5
#     Node 27, Type 0, BuildingBlock: XOMCOT_clean_sbu_1, # of connection points: 5
#     Node 28, Type 0, BuildingBlock: XOMCOT_clean_sbu_1, # of connection points: 5
#     Node 29, Type 0, BuildingBlock: XOMCOT_clean_sbu_1, # of connection points: 5
#     Node 30, Type 0, BuildingBlock: XOMCOT_clean_sbu_1, # of connection points: 5
#     Node 31, Type 0, BuildingBlock: XOMCOT_clean_sbu_1, # of connection points: 5
#     Edge 32, Type (0, 0), BuildingBlock: XIVTED_clean_linker_0, # of connection points: 2
#     Edge 33, Type (0, 0), BuildingBlock: XIVTED_clean_linker_0, # of connection points: 2
#     Edge 34, Type (0, 0), BuildingBlock: XIVTED_clean_linker_0, # of connection points: 2
#     Edge 35, Type (0, 0), BuildingBlock: XIVTED_clean_linker_0, # of connection points: 2
#     Edge 36, Type (0, 0), BuildingBlock: XIVTED_clean_linker_0, # of connection points: 2
#     Edge 37, Type (0, 0), BuildingBlock: XIVTED_clean_linker_0, # of connection points: 2
#     Edge 38, Type (0, 0), BuildingBlock: XIVTED_clean_linker_0, # of connection points: 2
#     Edge 39, Type (0, 0), BuildingBlock: XIVTED_clean_linker_0, # of connection points: 2
#     Edge 40, Type (0, 0), BuildingBlock: XIVTED_clean_linker_0, # of connection points: 2
#     Edge 41, Type (0, 0), BuildingBlock: XIVTED_clean_linker_0, # of connection points: 2
#     Edge 42, Type (0, 0), BuildingBlock: XIVTED_clean_linker_0, # of connection points: 2
#     Edge 43, Type (0, 0), BuildingBlock: XIVTED_clean_linker_0, # of connection points: 2
#     Edge 44, Type (0, 0), BuildingBlock: XIVTED_clean_linker_0, # of connection points: 2
#     Edge 45, Type (0, 0), BuildingBlock: XIVTED_clean_linker_0, # of connection points: 2
#     Edge 46, Type (0, 0), BuildingBlock: XIVTED_clean_linker_0, # of connection points: 2
#     Edge 47, Type (0, 0), BuildingBlock: XIVTED_clean_linker_0, # of connection points: 2
#     Edge 48, Type (0, 0), BuildingBlock: XIVTED_clean_linker_0, # of connection points: 2
#     Edge 49, Type (0, 0), BuildingBlock: XIVTED_clean_linker_0, # of connection points: 2
#     Edge 50, Type (0, 0), BuildingBlock: XIVTED_clean_linker_0, # of connection points: 2
#     Edge 51, Type (0, 0), BuildingBlock: XIVTED_clean_linker_0, # of connection points: 2
#     Edge 52, Type (0, 0), BuildingBlock: XIVTED_clean_linker_0, # of connection points: 2
#     Edge 53, Type (0, 0), BuildingBlock: XIVTED_clean_linker_0, # of connection points: 2
#     Edge 54, Type (0, 0), BuildingBlock: XIVTED_clean_linker_0, # of connection points: 2
#     Edge 55, Type (0, 0), BuildingBlock: XIVTED_clean_linker_0, # of connection points: 2
#     Edge 56, Type (0, 0), BuildingBlock: XIVTED_clean_linker_0, # of connection points: 2
#     Edge 57, Type (0, 0), BuildingBlock: XIVTED_clean_linker_0, # of connection points: 2
#     Edge 58, Type (0, 0), BuildingBlock: XIVTED_clean_linker_0, # of connection points: 2
#     Edge 59, Type (0, 0), BuildingBlock: XIVTED_clean_linker_0, # of connection points: 2
#     Edge 60, Type (0, 0), BuildingBlock: XIVTED_clean_linker_0, # of connection points: 2
#     Edge 61, Type (0, 0), BuildingBlock: XIVTED_clean_linker_0, # of connection points: 2
#     Edge 62, Type (0, 0), BuildingBlock: XIVTED_clean_linker_0, # of connection points: 2
#     Edge 63, Type (0, 0), BuildingBlock: XIVTED_clean_linker_0, # of connection points: 2
#     Edge 64, Type (0, 0), BuildingBlock: XIVTED_clean_linker_0, # of connection points: 2
#     Edge 65, Type (0, 0), BuildingBlock: XIVTED_clean_linker_0, # of connection points: 2
#     Edge 66, Type (0, 0), BuildingBlock: XIVTED_clean_linker_0, # of connection points: 2
#     Edge 67, Type (0, 0), BuildingBlock: XIVTED_clean_linker_0, # of connection points: 2
#     Edge 68, Type (0, 0), BuildingBlock: XIVTED_clean_linker_0, # of connection points: 2
#     Edge 69, Type (0, 0), BuildingBlock: XIVTED_clean_linker_0, # of connection points: 2
#     Edge 70, Type (0, 0), BuildingBlock: XIVTED_clean_linker_0, # of connection points: 2
#     Edge 71, Type (0, 0), BuildingBlock: XIVTED_clean_linker_0, # of connection points: 2
#     Edge 72, Type (0, 0), BuildingBlock: XIVTED_clean_linker_0, # of connection points: 2
#     Edge 73, Type (0, 0), BuildingBlock: XIVTED_clean_linker_0, # of connection points: 2
#     Edge 74, Type (0, 0), BuildingBlock: XIVTED_clean_linker_0, # of connection points: 2
#     Edge 75, Type (0, 0), BuildingBlock: XIVTED_clean_linker_0, # of connection points: 2
#     Edge 76, Type (0, 0), BuildingBlock: XIVTED_clean_linker_0, # of connection points: 2
#     Edge 77, Type (0, 0), BuildingBlock: XIVTED_clean_linker_0, # of connection points: 2
#     Edge 78, Type (0, 0), BuildingBlock: XIVTED_clean_linker_0, # of connection points: 2
#     Edge 79, Type (0, 0), BuildingBlock: XIVTED_clean_linker_0, # of connection points: 2
#     Edge 80, Type (0, 0), BuildingBlock: XIVTED_clean_linker_0, # of connection points: 2
#     Edge 81, Type (0, 0), BuildingBlock: XIVTED_clean_linker_0, # of connection points: 2
#     Edge 82, Type (0, 0), BuildingBlock: XIVTED_clean_linker_0, # of connection points: 2
#     Edge 83, Type (0, 0), BuildingBlock: XIVTED_clean_linker_0, # of connection points: 2
#     Edge 84, Type (0, 0), BuildingBlock: XIVTED_clean_linker_0, # of connection points: 2
#     Edge 85, Type (0, 0), BuildingBlock: XIVTED_clean_linker_0, # of connection points: 2
#     Edge 86, Type (0, 0), BuildingBlock: XIVTED_clean_linker_0, # of connection points: 2
#     Edge 87, Type (0, 0), BuildingBlock: XIVTED_clean_linker_0, # of connection points: 2
#     Edge 88, Type (0, 0), BuildingBlock: XIVTED_clean_linker_0, # of connection points: 2
#     Edge 89, Type (0, 0), BuildingBlock: XIVTED_clean_linker_0, # of connection points: 2
#     Edge 90, Type (0, 0), BuildingBlock: XIVTED_clean_linker_0, # of connection points: 2
#     Edge 91, Type (0, 0), BuildingBlock: XIVTED_clean_linker_0, # of connection points: 2
#     Edge 92, Type (0, 0), BuildingBlock: XIVTED_clean_linker_0, # of connection points: 2
#     Edge 93, Type (0, 0), BuildingBlock: XIVTED_clean_linker_0, # of connection points: 2
#     Edge 94, Type (0, 0), BuildingBlock: XIVTED_clean_linker_0, # of connection points: 2
#     Edge 95, Type (0, 0), BuildingBlock: XIVTED_clean_linker_0, # of connection points: 2
#     Edge 96, Type (0, 0), BuildingBlock: XIVTED_clean_linker_0, # of connection points: 2
#     Edge 97, Type (0, 0), BuildingBlock: XIVTED_clean_linker_0, # of connection points: 2
#     Edge 98, Type (0, 0), BuildingBlock: XIVTED_clean_linker_0, # of connection points: 2
#     Edge 99, Type (0, 0), BuildingBlock: XIVTED_clean_linker_0, # of connection points: 2
#     Edge 100, Type (0, 0), BuildingBlock: XIVTED_clean_linker_0, # of connection points: 2
#     Edge 101, Type (0, 0), BuildingBlock: XIVTED_clean_linker_0, # of connection points: 2
#     Edge 102, Type (0, 0), BuildingBlock: XIVTED_clean_linker_0, # of connection points: 2
#     Edge 103, Type (0, 0), BuildingBlock: XIVTED_clean_linker_0, # of connection points: 2
#     Edge 104, Type (0, 0), BuildingBlock: XIVTED_clean_linker_0, # of connection points: 2
#     Edge 105, Type (0, 0), BuildingBlock: XIVTED_clean_linker_0, # of connection points: 2
#     Edge 106, Type (0, 0), BuildingBlock: XIVTED_clean_linker_0, # of connection points: 2
#     Edge 107, Type (0, 0), BuildingBlock: XIVTED_clean_linker_0, # of connection points: 2
#     Edge 108, Type (0, 0), BuildingBlock: XIVTED_clean_linker_0, # of connection points: 2
#     Edge 109, Type (0, 0), BuildingBlock: XIVTED_clean_linker_0, # of connection points: 2
#     Edge 110, Type (0, 0), BuildingBlock: XIVTED_clean_linker_0, # of connection points: 2
#     Edge 111, Type (0, 0), BuildingBlock: XIVTED_clean_linker_0, # of connection points: 2
# Relax obj value: 0.664
# Max RMSD: 0.298
# Mean RMSD: 0.298
data_MOF--net-yft--node1-XOMCOT_clean_sbu_1--edge1-XIVTED_clean_linker_0
_symmetry_space_group_name_H-M    P1
_symmetry_Int_Tables_number       1
_symmetry_cell_setting            triclinic
loop_
_symmetry_equiv_pos_as_xyz
'x, y, z'
_cell_length_a     40.634265
_cell_length_b     40.628728
_cell_length_c     92.431833
_cell_angle_alpha  89.985151
_cell_angle_beta   89.984267
_cell_angle_gamma 90.006997
loop_
_atom_site_label
_atom_site_type_symbol
_atom_site_fract_x
_atom_site_fract_y
_atom_site_fract_z
_atom_type_partial_charge
C0 C 0.21704 0.21945 0.16879 0.0
C1 C 0.19284 0.19939 0.16314 0.0
N2 N 0.20678 0.1792 0.15334 0.0
N3 N 0.24617 0.21177 0.16267 0.0
C4 C 0.23908 0.18699 0.15339 0.0
H5 H 0.21335 0.23924 0.17643 0.0
Co6 Co 0.28613 0.23412 0.16498 0.0
C7 C 0.33609 0.18653 0.15488 0.0
O8 O 0.3518 0.20965 0.14774 0.0
N9 N 0.32695 0.25719 0.16754 0.0
C10 C 0.36708 0.29458 0.16628 0.0
C11 C 0.33444 0.28825 0.16346 0.0
C12 C 0.35531 0.24599 0.17358 0.0
N13 N 0.38049 0.26774 0.17245 0.0
O14 O 0.28525 0.22521 0.18515 0.0
H15 H 0.31773 0.30542 0.15847 0.0
H16 H 0.35777 0.22171 0.17825 0.0
O17 O 0.30959 0.19292 0.1617 0.0
C18 C 0.27517 0.25047 0.192 0.0
O19 O 0.26848 0.27729 0.18461 0.0
N20 N 0.28435 0.24569 0.14536 0.0
C21 C 0.2799 0.27648 0.11844 0.0
C22 C 0.28901 0.24313 0.11951 0.0
C23 C 0.29096 0.22809 0.13311 0.0
C24 C 0.27076 0.27614 0.14429 0.0
C25 C 0.26913 0.29237 0.13108 0.0
H26 H 0.29793 0.20255 0.1336 0.0
H27 H 0.26287 0.28873 0.154 0.0
H28 H 0.25712 0.17524 0.14653 0.0
H29 H 0.16678 0.20075 0.1655 0.0
H30 H 0.38022 0.31675 0.16331 0.0
H31 H 0.29559 0.22895 0.11004 0.0
H32 H 0.26148 0.31784 0.13114 0.0
C33 C 0.00732 0.98013 0.40615 0.0
C34 C 0.01813 0.94931 0.40215 0.0
N35 N 0.05128 0.9484 0.40325 0.0
N36 N 0.03344 0.99892 0.40964 0.0
C37 C 0.05951 0.97845 0.40844 0.0
H38 H 0.98242 0.98921 0.40512 0.0
Co39 Co 0.03405 0.04519 0.40995 0.0
C40 C 0.10963 0.04405 0.40041 0.0
O41 O 0.11957 0.01869 0.39275 0.0
N42 N 0.03536 0.09184 0.40967 0.0
C43 C 0.04867 0.14126 0.40102 0.0
C44 C 0.04861 0.10822 0.39832 0.0
C45 C 0.02683 0.11601 0.41912 0.0
N46 N 0.03507 0.14626 0.41407 0.0
O47 O 0.04586 0.04415 0.42981 0.0
H48 H 0.05882 0.09677 0.38877 0.0
H49 H 0.01586 0.11159 0.42961 0.0
O50 O 0.07969 0.04555 0.40442 0.0
C51 C 0.01918 0.04168 0.43699 0.0
O52 O 0.99119 0.04363 0.42991 0.0
N53 N 0.01894 0.04527 0.39109 0.0
C54 C 0.98216 0.04362 0.36584 0.0
C55 C 0.01579 0.03557 0.36553 0.0
C56 C 0.03386 0.03592 0.3785 0.0
C57 C 0.98657 0.05346 0.39143 0.0
C58 C 0.96774 0.05273 0.37899 0.0
H59 H 0.05941 0.02859 0.37846 0.0
H60 H 0.97525 0.06021 0.4016 0.0
H61 H 0.08437 0.98619 0.41049 0.0
H62 H 1.00277 0.9303 0.39753 0.0
H63 H 0.05835 0.16029 0.39401 0.0
H64 H 0.02769 0.02879 0.35548 0.0
H65 H 0.94208 0.05988 0.37963 0.0
C66 C 0.29127 0.78384 0.66722 0.0
C67 C 0.31642 0.80289 0.66186 0.0
N68 N 0.30352 0.8257 0.65292 0.0
N69 N 0.26243 0.79449 0.66179 0.0
C70 C 0.27062 0.82046 0.65331 0.0
H71 H 0.29409 0.76236 0.67401 0.0
Co72 Co 0.22329 0.77066 0.66377 0.0
C73 C 0.16982 0.81312 0.6538 0.0
O74 O 0.15815 0.78787 0.64654 0.0
N75 N 0.18355 0.74547 0.66628 0.0
C76 C 0.14422 0.70737 0.66488 0.0
C77 C 0.17624 0.71496 0.66146 0.0
C78 C 0.15575 0.75491 0.67337 0.0
N79 N 0.1309 0.73274 0.67222 0.0
O80 O 0.22357 0.77881 0.68398 0.0
H81 H 0.19257 0.69891 0.6556 0.0
H82 H 0.15349 0.77843 0.67875 0.0
O83 O 0.19705 0.81067 0.66067 0.0
C84 C 0.23378 0.75389 0.69103 0.0
O85 O 0.24147 0.72705 0.68384 0.0
N86 N 0.22564 0.76051 0.64395 0.0
C87 C 0.22659 0.73461 0.61607 0.0
C88 C 0.22089 0.76837 0.61834 0.0
C89 C 0.22035 0.78083 0.63241 0.0
C90 C 0.23795 0.72984 0.64168 0.0
C91 C 0.23761 0.71591 0.62792 0.0
H92 H 0.21461 0.80649 0.63387 0.0
H93 H 0.24584 0.71521 0.65083 0.0
H94 H 0.25315 0.83396 0.6468 0.0
H95 H 0.34236 0.79923 0.66395 0.0
H96 H 0.13152 0.68523 0.66157 0.0
H97 H 0.21496 0.78477 0.6095 0.0
H98 H 0.24349 0.69005 0.627 0.0
C99 C 0.47651 0.0345 0.91791 0.0
C100 C 0.45754 0.06003 0.91285 0.0
N101 N 0.43515 0.04783 0.90352 0.0
N102 N 0.46623 0.00612 0.91188 0.0
C103 C 0.44063 0.01497 0.90331 0.0
H104 H 0.49765 0.03681 0.92492 0.0
Co105 Co 0.48956 0.96654 0.91333 0.0
C106 C 0.44622 0.91495 0.90244 0.0
O107 O 0.47112 0.90403 0.89472 0.0
N108 N 0.51398 0.92607 0.9152 0.0
C109 C 0.55146 0.8863 0.91306 0.0
C110 C 0.54433 0.91872 0.91019 0.0
C111 C 0.50407 0.89775 0.92176 0.0
N112 N 0.52592 0.87274 0.9202 0.0
O113 O 0.48168 0.96568 0.93361 0.0
H114 H 0.5605 0.93532 0.90453 0.0
H115 H 0.48052 0.89526 0.92711 0.0
O116 O 0.44923 0.94128 0.9099 0.0
C117 C 0.50755 0.97542 0.94013 0.0
O118 O 0.53375 0.98234 0.93235 0.0
N119 N 0.50015 0.97048 0.89365 0.0
C120 C 0.52884 0.97763 0.86643 0.0
C121 C 0.49539 0.96914 0.86779 0.0
C122 C 0.48135 0.96601 0.88155 0.0
C123 C 0.53057 0.98406 0.89242 0.0
C124 C 0.54578 0.987 0.87903 0.0
H125 H 0.45574 0.95934 0.88234 0.0
H126 H 0.54398 0.99075 0.9021 0.0
H127 H 0.42767 0.99806 0.89632 0.0
H128 H 0.4609 0.0858 0.91541 0.0
H129 H 0.57335 0.87349 0.90951 0.0
H130 H 0.48046 0.96369 0.8584 0.0
H131 H 0.57136 0.99431 0.87886 0.0
C132 C 0.20994 0.76428 0.32729 0.0
C133 C 0.18267 0.78039 0.33255 0.0
N134 N 0.19273 0.8041 0.34175 0.0
N135 N 0.23724 0.77777 0.33303 0.0
C136 C 0.226 0.80227 0.34163 0.0
H137 H 0.20972 0.74292 0.32032 0.0
Co138 Co 0.27919 0.75932 0.3316 0.0
C139 C 0.32504 0.81343 0.33898 0.0
O140 O 0.34242 0.79355 0.34717 0.0
N141 N 0.32169 0.73923 0.32989 0.0
C142 C 0.36311 0.70343 0.33181 0.0
C143 C 0.33039 0.70901 0.33466 0.0
C144 C 0.34951 0.75063 0.32343 0.0
N145 N 0.37538 0.72985 0.32489 0.0
O146 O 0.27774 0.7638 0.31122 0.0
H147 H 0.31428 0.69168 0.33993 0.0
H148 H 0.35091 0.77399 0.31789 0.0
O149 O 0.29903 0.80324 0.33267 0.0
C150 C 0.27102 0.73767 0.30424 0.0
O151 O 0.26665 0.71012 0.31144 0.0
N152 N 0.2787 0.75264 0.35171 0.0
C153 C 0.28397 0.72854 0.37977 0.0
C154 C 0.2875 0.76239 0.37698 0.0
C155 C 0.2846 0.77404 0.36281 0.0
C156 C 0.26855 0.7215 0.35471 0.0
C157 C 0.27174 0.70859 0.36857 0.0
H158 H 0.28817 0.79994 0.36088 0.0
H159 H 0.26049 0.70572 0.34598 0.0
H160 H 0.24178 0.81716 0.34837 0.0
H161 H 0.15737 0.77423 0.33011 0.0
H162 H 0.37701 0.68194 0.33505 0.0
H163 H 0.29456 0.77942 0.38544 0.0
H164 H 0.26753 0.68251 0.36998 0.0
C165 C 0.47438 0.97709 0.56858 0.0
C166 C 0.45723 0.95053 0.57392 0.0
N167 N 0.43432 0.96157 0.5833 0.0
N168 N 0.46236 0.00491 0.57447 0.0
C169 C 0.43768 0.9947 0.58326 0.0
H170 H 0.49538 0.97598 0.56142 0.0
Co171 Co 0.48193 0.04637 0.57278 0.0
C172 C 0.4292 0.09283 0.58095 0.0
O173 O 0.44975 0.11003 0.5889 0.0
N174 N 0.50279 0.08859 0.57085 0.0
C175 C 0.53961 0.1292 0.57254 0.0
C176 C 0.53356 0.09646 0.5752 0.0
C177 C 0.49145 0.11699 0.56484 0.0
N178 N 0.51289 0.14237 0.56619 0.0
O179 O 0.47615 0.04489 0.55246 0.0
H180 H 0.55087 0.07975 0.58011 0.0
H181 H 0.46761 0.11921 0.55977 0.0
O182 O 0.43871 0.06685 0.57447 0.0
C183 C 0.50225 0.03714 0.54564 0.0
O184 O 0.5296 0.03301 0.55301 0.0
N185 N 0.49022 0.04547 0.59273 0.0
C186 C 0.51706 0.04532 0.62045 0.0
C187 C 0.48345 0.0521 0.61833 0.0
C188 C 0.47034 0.0517 0.60434 0.0
C189 C 0.52108 0.03356 0.59489 0.0
C190 C 0.53532 0.03395 0.60856 0.0
H191 H 0.44454 0.05687 0.60299 0.0
H192 H 0.53554 0.02564 0.5857 0.0
H193 H 0.4238 0.01102 0.59018 0.0
H194 H 0.46213 0.92497 0.57144 0.0
H195 H 0.56161 0.14253 0.57557 0.0
H196 H 0.46774 0.05909 0.62728 0.0
H197 H 0.56115 0.02783 0.60942 0.0
C198 C 0.28862 0.22087 0.81864 0.0
C199 C 0.31335 0.20136 0.82406 0.0
N200 N 0.30123 0.18366 0.83519 0.0
N201 N 0.26083 0.21555 0.82624 0.0
C202 C 0.2692 0.19251 0.83619 0.0
H203 H 0.29123 0.23893 0.81013 0.0
Co204 Co 0.22238 0.24058 0.82461 0.0
C205 C 0.16804 0.19842 0.83481 0.0
O206 O 0.15488 0.22361 0.84162 0.0
N207 N 0.18315 0.26643 0.82273 0.0
C208 C 0.14362 0.30349 0.82631 0.0
C209 C 0.17591 0.29543 0.82908 0.0
C210 C 0.15509 0.2583 0.81555 0.0
N211 N 0.13015 0.27981 0.81796 0.0
O212 O 0.22056 0.23124 0.80451 0.0
H213 H 0.19237 0.30937 0.83589 0.0
H214 H 0.15251 0.23574 0.80944 0.0
O215 O 0.19591 0.20134 0.82853 0.0
C216 C 0.23052 0.25634 0.7975 0.0
O217 O 0.23845 0.28298 0.80479 0.0
N218 N 0.22726 0.25267 0.84399 0.0
C219 C 0.23451 0.28708 0.8698 0.0
C220 C 0.21838 0.25635 0.8695 0.0
C221 C 0.21593 0.23896 0.8565 0.0
C222 C 0.24717 0.27958 0.8445 0.0
C223 C 0.25153 0.29696 0.85732 0.0
H224 H 0.20411 0.21527 0.85659 0.0
H225 H 0.25811 0.28876 0.83462 0.0
H226 H 0.25272 0.18392 0.84458 0.0
H227 H 0.33862 0.20104 0.82036 0.0
H228 H 0.13064 0.32424 0.8309 0.0
H229 H 0.20575 0.24661 0.87886 0.0
H230 H 0.26616 0.31921 0.8571 0.0
C231 C 0.04342 0.03206 0.06598 0.0
C232 C 0.06387 0.05544 0.07197 0.0
N233 N 0.07727 0.04281 0.08408 0.0
N234 N 0.04414 0.00462 0.0742 0.0
C235 C 0.06506 0.01197 0.08513 0.0
H236 H 0.02831 0.03534 0.05647 0.0
Co237 Co 0.01909 0.96623 0.07177 0.0
C238 C 0.06269 0.91114 0.08095 0.0
O239 O 0.03772 0.89454 0.08628 0.0
N240 N 0.99361 0.92719 0.06913 0.0
C241 C 0.95782 0.88635 0.07231 0.0
C242 C 0.96518 0.91856 0.07565 0.0
C243 C 1.00197 0.90023 0.06126 0.0
N244 N 0.98138 0.87445 0.06346 0.0
O245 O 0.02915 0.96594 0.05171 0.0
H246 H 0.95149 0.93386 0.08307 0.0
H247 H 0.02441 0.89882 0.05499 0.0
O248 O 0.05859 0.94005 0.07579 0.0
C249 C 0.00419 0.97679 0.04485 0.0
O250 O 0.97783 0.98497 0.05228 0.0
N251 N 0.00617 0.96945 0.09109 0.0
C252 C 0.97263 0.97822 0.11707 0.0
C253 C 1.00149 0.95906 0.11647 0.0
C254 C 0.01835 0.95553 0.10339 0.0
C255 C 0.9804 0.9908 0.09178 0.0
C256 C 0.96345 0.99582 0.10467 0.0
H257 H 0.04064 0.94132 0.10333 0.0
H258 H 0.97209 1.00296 0.08204 0.0
H259 H 0.07094 0.99518 0.09383 0.0
H260 H 0.06752 0.08028 0.06804 0.0
H261 H 0.93795 0.87217 0.07699 0.0
H262 H 0.01011 0.94529 0.12574 0.0
H263 H 0.94229 0.01201 0.10466 0.0
C264 C 0.78328 0.77843 0.82124 0.0
C265 C 0.81021 0.7956 0.82617 0.0
N266 N 0.79975 0.81935 0.83527 0.0
N267 N 0.7558 0.79129 0.8271 0.0
C268 C 0.76659 0.81645 0.83546 0.0
H269 H 0.78387 0.75693 0.81436 0.0
Co270 Co 0.71404 0.77238 0.8258 0.0
C271 C 0.66849 0.82671 0.83311 0.0
O272 O 0.65064 0.80717 0.84128 0.0
N273 N 0.67152 0.75212 0.82426 0.0
C274 C 0.63032 0.7161 0.82639 0.0
C275 C 0.66307 0.72189 0.82911 0.0
C276 C 0.64348 0.76336 0.81792 0.0
N277 N 0.61776 0.74241 0.8195 0.0
O278 O 0.71536 0.77662 0.80541 0.0
H279 H 0.67939 0.70476 0.83438 0.0
H280 H 0.64179 0.78676 0.81242 0.0
O281 O 0.69437 0.8161 0.82687 0.0
C282 C 0.7224 0.7501 0.79878 0.0
O283 O 0.72627 0.72296 0.80633 0.0
N284 N 0.71492 0.7657 0.84588 0.0
C285 C 0.71419 0.74121 0.87403 0.0
C286 C 0.70833 0.77481 0.87134 0.0
C287 C 0.70902 0.78667 0.85713 0.0
C288 C 0.72625 0.73484 0.84857 0.0
C289 C 0.72538 0.72177 0.86246 0.0
H290 H 0.7043 0.81243 0.85534 0.0
H291 H 0.73393 0.71945 0.83964 0.0
H292 H 0.75064 0.8311 0.84224 0.0
H293 H 0.83561 0.79019 0.82359 0.0
H294 H 0.61657 0.69457 0.82972 0.0
H295 H 0.70173 0.7915 0.87999 0.0
H296 H 0.73094 0.6959 0.86371 0.0
C297 C 0.96811 0.02741 0.56146 0.0
C298 C 0.94986 0.0528 0.56718 0.0
N299 N 0.93166 0.04099 0.57822 0.0
N300 N 0.96146 0.99953 0.56879 0.0
C301 C 0.93893 0.00852 0.57886 0.0
H302 H 0.9862 0.02957 0.55294 0.0
Co303 Co 0.984 0.95949 0.56707 0.0
C304 C 0.93356 0.90777 0.57329 0.0
O305 O 0.95529 0.88793 0.57916 0.0
N306 N 0.00755 0.91894 0.56524 0.0
C307 C 0.04354 0.87863 0.56933 0.0
C308 C 0.03564 0.91091 0.57219 0.0
C309 C 0.99998 0.89144 0.55755 0.0
N310 N 0.0207 0.86604 0.56033 0.0
O311 O 0.97857 0.96073 0.5466 0.0
H312 H 0.04898 0.92694 0.57943 0.0
H313 H 0.9782 0.88939 0.55087 0.0
O314 O 0.94172 0.93649 0.56898 0.0
C315 C 0.00535 0.96928 0.54046 0.0
O316 O 0.03148 0.97416 0.54856 0.0
N317 N 0.99258 0.96097 0.58694 0.0
C318 C 0.02372 0.96322 0.61374 0.0
C319 C 0.99456 0.94498 0.61183 0.0
C320 C 0.97887 0.94478 0.59837 0.0
C321 C 0.01827 0.98193 0.58907 0.0
C322 C 0.03391 0.98385 0.60243 0.0
H323 H 0.95662 0.9308 0.59724 0.0
H324 H 0.02795 0.99578 0.58003 0.0
H325 H 0.92967 0.99201 0.5871 0.0
H326 H 0.95075 0.07824 0.56372 0.0
H327 H 0.06331 0.86489 0.57433 0.0
H328 H 0.98501 0.92915 0.62026 0.0
H329 H 0.05519 0.99969 0.6035 0.0
C330 C 0.7137 0.22699 0.32164 0.0
C331 C 0.68781 0.20925 0.3272 0.0
N332 N 0.69971 0.18728 0.3368 0.0
N333 N 0.74197 0.21627 0.3276 0.0
C334 C 0.7327 0.19185 0.33673 0.0
H335 H 0.71182 0.24736 0.31417 0.0
Co336 Co 0.7828 0.2366 0.3252 0.0
C337 C 0.83116 0.18552 0.33385 0.0
O338 O 0.84851 0.20713 0.34116 0.0
N339 N 0.82424 0.25817 0.32251 0.0
C340 C 0.86471 0.29526 0.32317 0.0
C341 C 0.83225 0.28922 0.32641 0.0
C342 C 0.85209 0.24665 0.31616 0.0
N343 N 0.87743 0.26824 0.3169 0.0
O344 O 0.78065 0.229 0.30497 0.0
H345 H 0.81588 0.3067 0.33143 0.0
H346 H 0.854 0.22251 0.31134 0.0
O347 O 0.80457 0.19397 0.32754 0.0
C348 C 0.77205 0.25477 0.29811 0.0
O349 O 0.76694 0.28201 0.30544 0.0
N350 N 0.78265 0.24698 0.34493 0.0
C351 C 0.78527 0.2786 0.37164 0.0
C352 C 0.79271 0.24483 0.37046 0.0
C353 C 0.79087 0.22928 0.35695 0.0
C354 C 0.77003 0.27777 0.34638 0.0
C355 C 0.77181 0.29437 0.35948 0.0
H356 H 0.79671 0.20346 0.35626 0.0
H357 H 0.76088 0.2905 0.33692 0.0
H358 H 0.74958 0.17895 0.34377 0.0
H359 H 0.66209 0.21292 0.32464 0.0
H360 H 0.87823 0.31741 0.32582 0.0
H361 H 0.8012 0.23085 0.3797 0.0
H362 H 0.76508 0.32011 0.35958 0.0
C363 C 0.55591 0.97687 0.06633 0.0
C364 C 0.57604 0.95313 0.07215 0.0
N365 N 0.59161 0.96598 0.08371 0.0
N366 N 0.55869 0.00478 0.07412 0.0
C367 C 0.58094 0.99747 0.08458 0.0
H368 H 0.53893 0.97326 0.05749 0.0
Co369 Co 0.53109 0.04161 0.07242 0.0
C370 C 0.57288 0.1002 0.0788 0.0
O371 O 0.54803 0.11601 0.08466 0.0
N372 N 0.50239 0.07865 0.07052 0.0
C373 C 0.46324 0.11555 0.07495 0.0
C374 C 0.47457 0.08446 0.07805 0.0
C375 C 0.50619 0.10603 0.06223 0.0
N376 N 0.48351 0.12967 0.06518 0.0
O377 O 0.53698 0.04147 0.05199 0.0
H378 H 0.46389 0.06794 0.08591 0.0
H379 H 0.52696 0.10941 0.05507 0.0
O380 O 0.5697 0.07046 0.0745 0.0
C381 C 0.51153 0.02959 0.04584 0.0
O382 O 0.48653 0.02061 0.05398 0.0
N383 N 0.52232 0.03876 0.09225 0.0
C384 C 0.48727 0.03528 0.118 0.0
C385 C 0.51431 0.05678 0.11661 0.0
C386 C 0.53218 0.05752 0.10368 0.0
C387 C 0.49973 0.01442 0.0942 0.0
C388 C 0.48239 0.01174 0.10711 0.0
H389 H 0.55253 0.07424 0.10283 0.0
H390 H 0.49326 0.99864 0.08522 0.0
H391 H 0.58729 0.0141 0.09329 0.0
H392 H 0.57801 0.92789 0.06851 0.0
H393 H 0.44283 0.12743 0.08034 0.0
H394 H 0.52009 0.07479 0.12484 0.0
H395 H 0.46327 0.99329 0.10795 0.0
C396 C 0.7967 0.2214 0.66377 0.0
C397 C 0.82147 0.20254 0.65799 0.0
N398 N 0.80798 0.1798 0.64919 0.0
N399 N 0.76748 0.21074 0.65874 0.0
C400 C 0.7751 0.18492 0.65005 0.0
H401 H 0.79998 0.24274 0.67059 0.0
Co402 Co 0.72854 0.23451 0.66163 0.0
C403 C 0.67456 0.19329 0.65138 0.0
O404 O 0.66392 0.21901 0.64412 0.0
N405 N 0.68894 0.25954 0.6651 0.0
C406 C 0.64993 0.29813 0.66543 0.0
C407 C 0.68185 0.29104 0.66161 0.0
C408 C 0.66119 0.24896 0.67191 0.0
N409 N 0.63643 0.27137 0.67169 0.0
O410 O 0.73025 0.22493 0.68175 0.0
H411 H 0.69839 0.30825 0.65654 0.0
H412 H 0.65885 0.22448 0.67636 0.0
O413 O 0.70172 0.19487 0.65835 0.0
C414 C 0.74098 0.24978 0.68871 0.0
O415 O 0.74838 0.27659 0.68143 0.0
N416 N 0.72953 0.24639 0.64194 0.0
C417 C 0.72639 0.27536 0.61469 0.0
C418 C 0.72241 0.24115 0.61631 0.0
C419 C 0.72416 0.22707 0.63008 0.0
C420 C 0.74049 0.27771 0.6401 0.0
C421 C 0.73809 0.29314 0.62669 0.0
H422 H 0.71952 0.20107 0.63114 0.0
H423 H 0.74897 0.29157 0.64936 0.0
H424 H 0.75719 0.17143 0.64378 0.0
H425 H 0.84756 0.20622 0.65971 0.0
H426 H 0.63768 0.3213 0.66342 0.0
H427 H 0.71597 0.2256 0.60724 0.0
H428 H 0.7429 0.31928 0.62621 0.0
C429 C 0.5263 0.0312 0.41828 0.0
C430 C 0.54361 0.05764 0.41293 0.0
N431 N 0.56596 0.0465 0.40332 0.0
N432 N 0.53767 1.00337 0.41215 0.0
C433 C 0.56201 0.01344 0.40316 0.0
H434 H 0.5058 0.03238 0.42571 0.0
Co435 Co 0.51849 0.96185 0.4141 0.0
C436 C 0.57171 0.91583 0.40556 0.0
O437 O 0.5513 0.89767 0.39798 0.0
N438 N 0.49817 0.91957 0.41625 0.0
C439 C 0.46238 0.87809 0.4146 0.0
C440 C 0.46766 0.91092 0.41184 0.0
C441 C 0.51012 0.89162 0.42238 0.0
N442 N 0.48933 0.86571 0.42107 0.0
O443 O 0.52547 0.96344 0.43435 0.0
H444 H 0.45012 0.92709 0.40674 0.0
H445 H 0.53399 0.8901 0.42746 0.0
O446 O 0.56174 0.94178 0.41193 0.0
C447 C 0.49951 0.97103 0.4413 0.0
O448 O 0.47193 0.97486 0.43406 0.0
N449 N 0.50878 0.96264 0.39432 0.0
C450 C 0.47783 0.96284 0.36743 0.0
C451 C 0.51137 0.95452 0.36865 0.0
C452 C 0.52663 0.95504 0.38225 0.0
C453 C 0.4781 0.97555 0.39295 0.0
C454 C 0.46189 0.97529 0.37975 0.0
H455 H 0.55237 0.94892 0.38295 0.0
H456 H 0.4652 0.98393 0.40251 0.0
H457 H 0.5753 0.99705 0.39603 0.0
H458 H 0.53941 0.0832 0.41565 0.0
H459 H 0.44081 0.86413 0.41151 0.0
H460 H 0.52537 0.94649 0.35933 0.0
H461 H 0.43625 0.98241 0.37963 0.0
C462 C 0.72736 0.79623 0.17315 0.0
C463 C 0.70305 0.81527 0.16706 0.0
N464 N 0.7164 0.83332 0.15632 0.0
N465 N 0.75608 0.80219 0.16634 0.0
C466 C 0.74867 0.82512 0.15619 0.0
H467 H 0.72388 0.77801 0.18153 0.0
Co468 Co 0.79496 0.77807 0.16877 0.0
C469 C 0.84969 0.82587 0.1632 0.0
O470 O 0.87005 0.80299 0.15867 0.0
N471 N 0.83418 0.7529 0.17141 0.0
C472 C 0.87404 0.71606 0.1681 0.0
C473 C 0.84253 0.72506 0.16434 0.0
C474 C 0.86051 0.75913 0.18005 0.0
N475 N 0.88574 0.7379 0.17779 0.0
O476 O 0.79315 0.78552 0.18898 0.0
H477 H 0.82739 0.71277 0.1564 0.0
H478 H 0.86204 0.78047 0.18703 0.0
O479 O 0.81991 0.81893 0.16641 0.0
C480 C 0.78263 0.75997 0.19549 0.0
O481 O 0.77624 0.7335 0.1878 0.0
N482 N 0.79409 0.76806 0.14908 0.0
C483 C 0.79155 0.73585 0.12253 0.0
C484 C 0.81251 0.76308 0.12462 0.0
C485 C 0.81298 0.77928 0.13794 0.0
C486 C 0.77113 0.74422 0.14677 0.0
C487 C 0.76901 0.72817 0.13351 0.0
H488 H 0.8295 0.79964 0.13928 0.0
H489 H 0.75558 0.73631 0.15561 0.0
H490 H 0.76611 0.83394 0.14822 0.0
H491 H 0.67726 0.815 0.17 0.0
H492 H 0.88802 0.69628 0.16323 0.0
H493 H 0.8302 0.7705 0.1165 0.0
H494 H 0.75136 0.70841 0.13229 0.0
C495 C 0.98231 0.96775 0.91518 0.0
C496 C 0.96354 0.94204 0.91019 0.0
N497 N 0.9394 0.95425 0.90174 0.0
N498 N 0.97016 0.99625 0.91002 0.0
C499 C 0.9436 0.9873 0.90208 0.0
H500 H 0.00449 0.96562 0.92156 0.0
Co501 Co 0.9926 0.03617 0.91186 0.0
C502 C 0.95004 0.08759 0.9006 0.0
O503 O 0.97548 0.09734 0.89292 0.0
N504 N 0.01611 0.07705 0.91429 0.0
C505 C 0.05149 0.11893 0.9131 0.0
C506 C 0.04611 0.0865 0.90954 0.0
C507 C 0.00469 0.10409 0.92139 0.0
N508 N 0.02519 0.13034 0.92043 0.0
O509 O 0.98388 0.03612 0.93201 0.0
H510 H 0.0632 0.07145 0.90358 0.0
H511 H 0.98098 0.10474 0.92669 0.0
O512 O 0.95205 0.06139 0.90825 0.0
C513 C 0.00942 0.02665 0.93883 0.0
O514 O 0.03628 0.02026 0.93141 0.0
N515 N 1.00373 0.03318 0.89215 0.0
C516 C 0.0307 0.0309 0.86447 0.0
C517 C 0.99654 0.03444 0.86642 0.0
C518 C 0.9835 0.03546 0.88039 0.0
C519 C 0.0353 0.02294 0.89034 0.0
C520 C 0.04967 0.02266 0.87668 0.0
H521 H 0.95744 0.03953 0.88162 0.0
H522 H 0.05007 0.01707 0.89973 0.0
H523 H 0.92882 0.00442 0.89593 0.0
H524 H 0.96821 0.91622 0.9122 0.0
H525 H 0.0727 0.13327 0.90989 0.0
H526 H 0.98016 0.03832 0.85735 0.0
H527 H 0.07591 0.01852 0.87604 0.0
C528 C 0.72259 0.73089 0.66931 0.0
C529 C 0.69648 0.71344 0.66374 0.0
N530 N 0.70833 0.68932 0.65518 0.0
N531 N 0.75092 0.7179 0.66435 0.0
C532 C 0.74144 0.69236 0.65589 0.0
H533 H 0.72095 0.75268 0.67598 0.0
Co534 Co 0.79241 0.73709 0.66665 0.0
C535 C 0.83902 0.68524 0.6576 0.0
O536 O 0.85697 0.70664 0.65043 0.0
N537 N 0.83468 0.75749 0.66922 0.0
C538 C 0.87566 0.79405 0.66859 0.0
C539 C 0.84303 0.78858 0.66552 0.0
C540 C 0.86265 0.74531 0.67529 0.0
N541 N 0.88828 0.76664 0.67457 0.0
O542 O 0.79038 0.72923 0.68683 0.0
H543 H 0.82678 0.80653 0.66077 0.0
H544 H 0.86444 0.72086 0.67986 0.0
O545 O 0.81264 0.69408 0.66395 0.0
C546 C 0.78205 0.75509 0.69368 0.0
O547 O 0.77777 0.7825 0.68635 0.0
N548 N 0.79197 0.74744 0.64691 0.0
C549 C 0.78851 0.77511 0.61929 0.0
C550 C 0.79536 0.74139 0.62114 0.0
C551 C 0.79686 0.72796 0.63506 0.0
C552 C 0.78075 0.77871 0.64519 0.0
C553 C 0.77978 0.79337 0.63162 0.0
H554 H 0.80173 0.70202 0.63614 0.0
H555 H 0.77371 0.79286 0.6546 0.0
H556 H 0.75836 0.67755 0.64964 0.0
H557 H 0.67071 0.71886 0.66549 0.0
H558 H 0.88932 0.81618 0.66604 0.0
H559 H 0.80024 0.72552 0.61199 0.0
H560 H 0.77386 0.81928 0.63109 0.0
C561 C 0.52684 0.46846 0.91536 0.0
C562 C 0.54517 0.44254 0.91024 0.0
N563 N 0.56832 0.45434 0.90116 0.0
N564 N 0.53828 0.49674 0.90966 0.0
C565 C 0.56399 0.48741 0.90124 0.0
H566 H 0.50535 0.46657 0.9222 0.0
Co567 Co 0.5157 0.53676 0.91139 0.0
C568 C 0.55949 0.58845 0.9011 0.0
O569 O 0.53486 0.59891 0.8931 0.0
N570 N 0.49204 0.57767 0.91361 0.0
C571 C 0.45705 0.61967 0.91148 0.0
C572 C 0.46254 0.58706 0.90828 0.0
C573 C 0.5029 0.6049 0.92073 0.0
N574 N 0.48276 0.63132 0.91914 0.0
O575 O 0.5232 0.5365 0.93172 0.0
H576 H 0.44596 0.57187 0.90213 0.0
H577 H 0.52618 0.60558 0.92637 0.0
O578 O 0.55656 0.56184 0.90841 0.0
C579 C 0.49726 0.52755 0.93839 0.0
O580 O 0.47065 0.52129 0.93079 0.0
N581 N 0.50566 0.53414 0.89156 0.0
C582 C 0.47884 0.5329 0.86384 0.0
C583 C 0.51285 0.53752 0.86586 0.0
C584 C 0.52585 0.53795 0.87985 0.0
C585 C 0.47444 0.52302 0.88958 0.0
C586 C 0.46013 0.52315 0.87591 0.0
H587 H 0.55176 0.54278 0.88115 0.0
H588 H 0.45972 0.51639 0.89889 0.0
H589 H 0.57801 0.50421 0.89461 0.0
H590 H 0.54084 0.41683 0.91262 0.0
H591 H 0.43618 0.63384 0.90777 0.0
H592 H 0.52906 0.54271 0.85685 0.0
H593 H 0.43404 0.51825 0.87519 0.0
C594 C 0.78649 0.28693 0.1694 0.0
C595 C 0.81253 0.30545 0.16449 0.0
N596 N 0.80093 0.32857 0.15535 0.0
N597 N 0.75842 0.29824 0.16346 0.0
C598 C 0.76796 0.32394 0.1551 0.0
H599 H 0.78818 0.26542 0.17625 0.0
Co600 Co 0.71805 0.27635 0.16455 0.0
C601 C 0.66904 0.32567 0.15524 0.0
O602 O 0.65425 0.30362 0.14713 0.0
N603 N 0.67705 0.25306 0.16594 0.0
C604 C 0.63891 0.21361 0.16458 0.0
C605 C 0.6712 0.22162 0.16188 0.0
C606 C 0.64791 0.26291 0.17175 0.0
N607 N 0.62406 0.23976 0.17063 0.0
O608 O 0.71747 0.28232 0.18488 0.0
H609 H 0.68907 0.20503 0.15731 0.0
H610 H 0.64413 0.28673 0.17667 0.0
O611 O 0.69497 0.31828 0.1623 0.0
C612 C 0.72608 0.25645 0.19167 0.0
O613 O 0.73286 0.22978 0.18419 0.0
N614 N 0.72105 0.26788 0.14465 0.0
C615 C 0.72476 0.2417 0.11682 0.0
C616 C 0.71741 0.27522 0.11897 0.0
C617 C 0.71578 0.28792 0.13301 0.0
C618 C 0.73379 0.23731 0.1426 0.0
C619 C 0.73498 0.22332 0.12889 0.0
H620 H 0.70985 0.31357 0.13437 0.0
H621 H 0.7413 0.2229 0.15187 0.0
H622 H 0.75139 0.33764 0.14822 0.0
H623 H 0.83819 0.30131 0.16704 0.0
H624 H 0.62705 0.19054 0.1619 0.0
H625 H 0.71161 0.29129 0.10998 0.0
H626 H 0.74165 0.19763 0.1281 0.0
C627 C 0.97822 0.54634 0.41733 0.0
C628 C 0.95983 0.57206 0.41206 0.0
N629 N 0.93788 0.56005 0.40248 0.0
N630 N 0.96794 0.51808 0.4112 0.0
C631 C 0.94303 0.52716 0.40233 0.0
H632 H 0.99895 0.54842 0.4246 0.0
Co633 Co 0.99006 0.47802 0.41277 0.0
C634 C 0.94105 0.42766 0.40432 0.0
O635 O 0.96332 0.41185 0.39673 0.0
N636 N 0.01367 0.43755 0.41469 0.0
C637 C 0.05374 0.40006 0.41398 0.0
C638 C 0.04508 0.43182 0.41058 0.0
C639 C 0.00445 0.40899 0.42121 0.0
N640 N 0.02803 0.3855 0.42053 0.0
O641 O 0.98399 0.47854 0.43305 0.0
H642 H 0.06121 0.44944 0.40552 0.0
H643 H 0.98075 0.40536 0.42628 0.0
O644 O 0.94823 0.45452 0.41074 0.0
C645 C 0.00974 0.48782 0.43974 0.0
O646 O 0.03623 0.49496 0.43221 0.0
N647 N 0.99866 0.47981 0.39288 0.0
C648 C 0.02617 0.48179 0.36526 0.0
C649 C 0.9929 0.47306 0.36725 0.0
C650 C 0.97952 0.47233 0.3812 0.0
C651 C 0.02874 0.49367 0.39087 0.0
C652 C 0.04337 0.4941 0.37729 0.0
H653 H 0.9541 0.46537 0.38245 0.0
H654 H 0.04242 0.50245 0.40014 0.0
H655 H 0.93035 0.51035 0.39519 0.0
H656 H 0.96325 0.59779 0.41469 0.0
H657 H 0.07691 0.3883 0.4114 0.0
H658 H 0.97763 0.46556 0.35825 0.0
H659 H 0.06878 0.50181 0.37666 0.0
C660 C 0.72138 0.27872 0.81939 0.0
C661 C 0.695 0.29607 0.82479 0.0
N662 N 0.7064 0.31991 0.83362 0.0
N663 N 0.74946 0.29152 0.82469 0.0
C664 C 0.73955 0.31685 0.83319 0.0
H665 H 0.72004 0.25714 0.81258 0.0
Co666 Co 0.79113 0.27236 0.82276 0.0
C667 C 0.83739 0.32568 0.8305 0.0
O668 O 0.85563 0.30535 0.8381 0.0
N669 N 0.83361 0.2519 0.82058 0.0
C670 C 0.87438 0.21516 0.82199 0.0
C671 C 0.84162 0.22101 0.82472 0.0
C672 C 0.86194 0.26351 0.81457 0.0
N673 N 0.88743 0.24212 0.8158 0.0
O674 O 0.78921 0.27809 0.80242 0.0
H675 H 0.82501 0.20349 0.82954 0.0
H676 H 0.86413 0.28759 0.80968 0.0
O677 O 0.81098 0.31584 0.82447 0.0
C678 C 0.78115 0.25198 0.79569 0.0
O679 O 0.77608 0.22492 0.80316 0.0
N680 N 0.7909 0.26416 0.84272 0.0
C681 C 0.79225 0.23836 0.87063 0.0
C682 C 0.79784 0.27212 0.86823 0.0
C683 C 0.79692 0.28462 0.85413 0.0
C684 C 0.77982 0.23309 0.84517 0.0
C685 C 0.78104 0.21936 0.85893 0.0
H686 H 0.80153 0.31047 0.85257 0.0
H687 H 0.77189 0.21814 0.83614 0.0
H688 H 0.75618 0.33152 0.83964 0.0
H689 H 0.66935 0.29074 0.8227 0.0
H690 H 0.88781 0.19314 0.82491 0.0
H691 H 0.80445 0.28846 0.877 0.0
H692 H 0.77567 0.19341 0.85999 0.0
C693 C 0.97254 0.47305 0.06927 0.0
C694 C 0.95407 0.44822 0.07528 0.0
N695 N 0.93597 0.46091 0.08615 0.0
N696 N 0.96614 0.50146 0.07623 0.0
C697 C 0.94352 0.49335 0.0864 0.0
H698 H 0.99062 0.47016 0.06079 0.0
Co699 Co 0.98958 0.5406 0.07358 0.0
C700 C 0.94676 0.59436 0.08386 0.0
O701 O 0.97233 0.60891 0.08978 0.0
N702 N 0.01377 0.58043 0.07062 0.0
C703 C 0.04911 0.62201 0.07281 0.0
C704 C 0.04287 0.58967 0.07636 0.0
C705 C 1.00375 0.60723 0.06301 0.0
N706 N 0.02415 0.63338 0.06459 0.0
O707 O 0.97851 0.5404 0.05366 0.0
H708 H 0.05799 0.57464 0.08333 0.0
H709 H 0.98058 0.60815 0.05726 0.0
O710 O 0.9498 0.5661 0.07792 0.0
C711 C 1.00353 0.53028 0.04664 0.0
O712 O 0.0306 0.52359 0.05385 0.0
N713 N 1.00345 0.53769 0.09278 0.0
C714 C 0.03832 0.53058 0.11852 0.0
C715 C 0.0074 0.5463 0.11831 0.0
C716 C 0.98982 0.54868 0.10537 0.0
C717 C 0.03114 0.51887 0.09311 0.0
C718 C 0.04877 0.51463 0.10587 0.0
H719 H 0.96582 0.55983 0.1056 0.0
H720 H 0.04036 0.50823 0.08318 0.0
H721 H 0.93429 0.51045 0.09441 0.0
H722 H 0.9547 0.42256 0.07214 0.0
H723 H 0.06942 0.63658 0.07684 0.0
H724 H 0.99744 0.55832 0.12779 0.0
H725 H 0.07131 0.50048 0.10554 0.0
C726 C 0.78217 0.73347 0.32122 0.0
C727 C 0.80902 0.71573 0.32587 0.0
N728 N 0.79852 0.69217 0.33506 0.0
N729 N 0.75478 0.72115 0.32739 0.0
C730 C 0.76549 0.69579 0.33563 0.0
H731 H 0.78282 0.75502 0.31437 0.0
Co732 Co 0.71321 0.74045 0.32692 0.0
C733 C 0.66794 0.68599 0.33463 0.0
O734 O 0.65002 0.70523 0.34289 0.0
N735 N 0.67087 0.76099 0.32629 0.0
C736 C 0.63006 0.79679 0.32982 0.0
C737 C 0.66298 0.79065 0.3319 0.0
C738 C 0.64232 0.75045 0.32019 0.0
N739 N 0.61683 0.77127 0.32259 0.0
O740 O 0.71252 0.73651 0.30657 0.0
H741 H 0.67977 0.80705 0.33734 0.0
H742 H 0.64009 0.72749 0.31436 0.0
O743 O 0.69352 0.69693 0.32828 0.0
C744 C 0.71956 0.7632 0.30007 0.0
O745 O 0.72424 0.78996 0.30779 0.0
N746 N 0.71623 0.74694 0.34689 0.0
C747 C 0.72148 0.77226 0.3748 0.0
C748 C 0.71221 0.73926 0.37254 0.0
C749 C 0.71 0.7269 0.35843 0.0
C750 C 0.72993 0.77705 0.34901 0.0
C751 C 0.7322 0.79048 0.36277 0.0
H752 H 0.70313 0.70153 0.35697 0.0
H753 H 0.73716 0.79165 0.33975 0.0
H754 H 0.74963 0.68166 0.34268 0.0
H755 H 0.83443 0.72065 0.3231 0.0
H756 H 0.6167 0.81792 0.33385 0.0
H757 H 0.70547 0.72348 0.38151 0.0
H758 H 0.73989 0.81588 0.36363 0.0
C759 C 0.54078 0.54242 0.56834 0.0
C760 C 0.56005 0.56714 0.57393 0.0
N761 N 0.57701 0.55507 0.58528 0.0
N762 N 0.54553 0.51466 0.57604 0.0
C763 C 0.56807 0.52305 0.58621 0.0
H764 H 0.52312 0.54509 0.55968 0.0
Co765 Co 0.51968 0.47673 0.57431 0.0
C766 C 0.55948 0.42138 0.58515 0.0
O767 O 0.53345 0.40985 0.59192 0.0
N768 N 0.49289 0.43819 0.57226 0.0
C769 C 0.45467 0.39953 0.57536 0.0
C770 C 0.46327 0.43167 0.57821 0.0
C771 C 0.50085 0.4099 0.56522 0.0
N772 N 0.47862 0.38547 0.56737 0.0
O773 O 0.52976 0.47438 0.55427 0.0
H774 H 0.44917 0.44849 0.58477 0.0
H775 H 0.52372 0.40677 0.55939 0.0
O776 O 0.5581 0.44906 0.57858 0.0
C777 C 0.50549 0.4848 0.54685 0.0
O778 O 0.47876 0.4942 0.55372 0.0
N779 N 0.50713 0.48199 0.59365 0.0
C780 C 0.47388 0.48966 0.61976 0.0
C781 C 0.50496 0.47429 0.61928 0.0
C782 C 0.52169 0.47164 0.60614 0.0
C783 C 0.47981 0.50132 0.59426 0.0
C784 C 0.4629 0.50576 0.60722 0.0
H785 H 0.54569 0.46043 0.60612 0.0
H786 H 0.46999 0.51172 0.58439 0.0
H787 H 0.57613 0.50665 0.59472 0.0
H788 H 0.56057 0.5924 0.57022 0.0
H789 H 0.43329 0.38707 0.57968 0.0
H790 H 0.51557 0.46237 0.62864 0.0
H791 H 0.44029 0.51982 0.6071 0.0
C792 C 0.28124 0.28644 0.3192 0.0
C793 C 0.30756 0.30393 0.3245 0.0
N794 N 0.29684 0.3236 0.33526 0.0
N795 N 0.25384 0.29506 0.32648 0.0
C796 C 0.26407 0.318 0.33613 0.0
H797 H 0.28243 0.26747 0.31103 0.0
Co798 Co 0.21328 0.27363 0.32503 0.0
C799 C 0.1632 0.32515 0.33111 0.0
O800 O 0.1441 0.30421 0.33794 0.0
N801 N 0.1724 0.25079 0.32337 0.0
C802 C 0.13261 0.21385 0.32674 0.0
C803 C 0.16468 0.22195 0.32979 0.0
C804 C 0.14483 0.25871 0.31581 0.0
N805 N 0.11978 0.23723 0.31809 0.0
O806 O 0.21447 0.27822 0.30457 0.0
H807 H 0.18091 0.20769 0.33656 0.0
H808 H 0.14281 0.28068 0.30926 0.0
O809 O 0.1912 0.31627 0.32625 0.0
C810 C 0.22243 0.25195 0.29793 0.0
O811 O 0.22766 0.22508 0.30551 0.0
N812 N 0.21419 0.2665 0.34504 0.0
C813 C 0.2142 0.23779 0.37236 0.0
C814 C 0.20035 0.26912 0.37023 0.0
C815 C 0.20113 0.28344 0.35644 0.0
C816 C 0.23155 0.23841 0.34738 0.0
C817 C 0.23164 0.22342 0.36088 0.0
H818 H 0.19069 0.30755 0.35506 0.0
H819 H 0.24311 0.2261 0.33833 0.0
H820 H 0.24822 0.32878 0.34425 0.0
H821 H 0.33286 0.30148 0.321 0.0
H822 H 0.11939 0.1931 0.33121 0.0
H823 H 0.18782 0.28177 0.37895 0.0
H824 H 0.24284 0.19934 0.36183 0.0
C825 C 0.46839 0.53833 0.06879 0.0
C826 C 0.45123 0.56419 0.07475 0.0
N827 N 0.42888 0.55206 0.08413 0.0
N828 N 0.45697 0.50985 0.0743 0.0
C829 C 0.43264 0.51899 0.0835 0.0
H830 H 0.489 0.54035 0.06145 0.0
Co831 Co 0.47688 0.46868 0.07172 0.0
C832 C 0.42548 0.42131 0.08064 0.0
O833 O 0.44709 0.40396 0.08796 0.0
N834 N 0.49793 0.42679 0.06891 0.0
C835 C 0.53517 0.38636 0.06921 0.0
C836 C 0.52929 0.41893 0.07237 0.0
C837 C 0.48596 0.39862 0.06294 0.0
N838 N 0.5077 0.37337 0.06347 0.0
O839 O 0.46941 0.47129 0.05145 0.0
H840 H 0.54711 0.4355 0.07701 0.0
H841 H 0.46146 0.39642 0.05851 0.0
O842 O 0.43405 0.44758 0.07411 0.0
C843 C 0.49551 0.48002 0.04483 0.0
O844 O 0.52241 0.48482 0.05244 0.0
N845 N 0.48734 0.46858 0.09145 0.0
C846 C 0.51791 0.46978 0.11844 0.0
C847 C 0.48434 0.4617 0.11719 0.0
C848 C 0.4693 0.4617 0.10355 0.0
C849 C 0.51826 0.48092 0.09278 0.0
C850 C 0.53431 0.48103 0.10602 0.0
H851 H 0.44345 0.45598 0.10288 0.0
H852 H 0.53125 0.48916 0.08322 0.0
H853 H 0.41933 0.50191 0.0903 0.0
H854 H 0.45569 0.59003 0.07267 0.0
H855 H 0.55759 0.37296 0.07153 0.0
H856 H 0.47003 0.45456 0.12656 0.0
H857 H 0.56003 0.48789 0.10617 0.0
C858 C 0.21308 0.72734 0.82163 0.0
C859 C 0.18782 0.70781 0.82655 0.0
N860 N 0.20064 0.68381 0.83491 0.0
N861 N 0.24185 0.71583 0.82678 0.0
C862 C 0.23354 0.6889 0.83464 0.0
H863 H 0.21042 0.74965 0.81537 0.0
Co864 Co 0.28124 0.73926 0.82535 0.0
C865 C 0.3332 0.69558 0.83578 0.0
O866 O 0.34409 0.72013 0.84372 0.0
N867 N 0.3215 0.76397 0.82344 0.0
C868 C 0.36108 0.80173 0.82536 0.0
C869 C 0.32866 0.79457 0.82821 0.0
C870 C 0.34987 0.75405 0.81693 0.0
N871 N 0.37481 0.77601 0.81843 0.0
O872 O 0.28196 0.73171 0.80512 0.0
H873 H 0.31193 0.811 0.83362 0.0
H874 H 0.35242 0.73045 0.81166 0.0
O875 O 0.3068 0.6989 0.82839 0.0
C876 C 0.27217 0.7568 0.79808 0.0
O877 O 0.2643 0.78355 0.80529 0.0
N878 N 0.27787 0.7489 0.84521 0.0
C879 C 0.27732 0.77479 0.87307 0.0
C880 C 0.28179 0.74082 0.87083 0.0
C881 C 0.28196 0.72832 0.85676 0.0
C882 C 0.26631 0.77987 0.84745 0.0
C883 C 0.26684 0.79378 0.86121 0.0
H884 H 0.28686 0.70248 0.85527 0.0
H885 H 0.25903 0.79475 0.83828 0.0
H886 H 0.25095 0.67458 0.84083 0.0
H887 H 0.16187 0.71189 0.82463 0.0
H888 H 0.37373 0.82383 0.82877 0.0
H889 H 0.28728 0.72433 0.8797 0.0
H890 H 0.26177 0.81981 0.86212 0.0
C891 C 0.05262 0.47078 0.56885 0.0
C892 C 0.07464 0.44902 0.57489 0.0
N893 N 0.08748 0.46294 0.58684 0.0
N894 N 0.05177 0.49854 0.57684 0.0
C895 C 0.0733 0.49296 0.58775 0.0
H896 H 0.03762 0.46618 0.55941 0.0
Co897 Co 0.02443 0.53503 0.5738 0.0
C898 C 0.06187 0.59315 0.58362 0.0
O899 O 0.03506 0.6055 0.58945 0.0
N900 N 0.99667 0.57231 0.57044 0.0
C901 C 0.95883 0.61163 0.57252 0.0
C902 C 0.96727 0.57994 0.57634 0.0
C903 C 0.00461 0.59929 0.56248 0.0
N904 N 0.98268 0.62419 0.56399 0.0
O905 O 0.03578 0.53533 0.55389 0.0
H906 H 0.95355 0.56443 0.58366 0.0
H907 H 0.02752 0.60139 0.55659 0.0
O908 O 0.0615 0.56443 0.57797 0.0
C909 C 0.01195 0.5226 0.5469 0.0
O910 O 0.98619 0.5122 0.5542 0.0
N911 N 0.01034 0.53169 0.593 0.0
C912 C 0.97271 0.52615 0.61802 0.0
C913 C 1.00246 0.544 0.61806 0.0
C914 C 0.02152 0.54562 0.60549 0.0
C915 C 0.98445 0.51046 0.59337 0.0
C916 C 0.96552 0.50694 0.60581 0.0
H917 H 0.04443 0.55888 0.60585 0.0
H918 H 0.97726 0.4977 0.5836 0.0
H919 H 0.07831 0.51045 0.59629 0.0
H920 H 0.07983 0.42435 0.5711 0.0
H921 H 0.93783 0.62505 0.57665 0.0
H922 H 0.01008 0.55844 0.62729 0.0
H923 H 0.94414 0.49108 0.60544 0.0
C924 C 0.28662 0.71555 0.17393 0.0
C925 C 0.31101 0.69723 0.16748 0.0
N926 N 0.29771 0.68002 0.15647 0.0
N927 N 0.25787 0.70995 0.16711 0.0
C928 C 0.26536 0.68797 0.15657 0.0
H929 H 0.29003 0.733 0.18262 0.0
Co930 Co 0.21888 0.73358 0.17013 0.0
C931 C 0.16445 0.68741 0.16261 0.0
O932 O 0.14585 0.71126 0.15759 0.0
N933 N 0.1795 0.75826 0.17337 0.0
C934 C 0.13986 0.79578 0.17123 0.0
C935 C 0.17158 0.78762 0.16749 0.0
C936 C 0.15258 0.7501 0.18133 0.0
N937 N 0.1275 0.77184 0.17974 0.0
O938 O 0.22053 0.7237 0.19019 0.0
H939 H 0.18719 0.80179 0.16038 0.0
H940 H 0.15065 0.72733 0.18735 0.0
O941 O 0.1938 0.69316 0.16687 0.0
C942 C 0.23089 0.74831 0.1974 0.0
O943 O 0.23814 0.77554 0.1904 0.0
N944 N 0.21973 0.7459 0.15066 0.0
C945 C 0.22148 0.77957 0.12444 0.0
C946 C 0.20412 0.74972 0.12577 0.0
C947 C 0.20416 0.73283 0.13893 0.0
C948 C 0.2399 0.77243 0.14907 0.0
C949 C 0.24136 0.78954 0.13604 0.0
H950 H 0.19101 0.70995 0.13957 0.0
H951 H 0.25347 0.78148 0.15832 0.0
H952 H 0.24784 0.67955 0.14857 0.0
H953 H 0.33678 0.69735 0.17043 0.0
H954 H 0.12627 0.8167 0.16713 0.0
H955 H 0.18886 0.74036 0.11711 0.0
H956 H 0.25641 0.81147 0.1354 0.0
C957 C 0.038 0.53011 0.92125 0.0
C958 C 0.05657 0.55548 0.91574 0.0
N959 N 0.07333 0.54429 0.90415 0.0
N960 N 0.04301 0.50286 0.91324 0.0
C961 C 0.06491 0.5122 0.90296 0.0
H962 H 0.02076 0.53197 0.93011 0.0
Co963 Co 0.01926 0.46349 0.91464 0.0
C964 C 0.06694 0.41019 0.907 0.0
O965 O 0.04387 0.39112 0.90164 0.0
N966 N 0.99475 0.42366 0.91626 0.0
C967 C 0.95993 0.38255 0.91192 0.0
C968 C 0.9676 0.41481 0.90882 0.0
C969 C 1.00193 0.3968 0.92442 0.0
N970 N 0.98196 0.37087 0.92155 0.0
O971 O 0.02696 0.46246 0.93483 0.0
H972 H 0.95504 0.43014 0.90102 0.0
H973 H 0.02316 0.39558 0.93145 0.0
O974 O 0.06023 0.43919 0.91145 0.0
C975 C 1.00127 0.47173 0.9416 0.0
O976 O 0.97471 0.47878 0.93409 0.0
N977 N 0.00872 0.46729 0.89509 0.0
C978 C 0.97521 0.47509 0.86907 0.0
C979 C 1.00253 0.45384 0.87005 0.0
C980 C 0.01946 0.45077 0.88315 0.0
C981 C 0.98473 0.49052 0.8939 0.0
C982 C 0.96817 0.49538 0.88093 0.0
H983 H 0.04002 0.43424 0.88365 0.0
H984 H 0.97726 0.50424 0.90338 0.0
H985 H 0.07282 0.49634 0.89422 0.0
H986 H 0.05685 0.58055 0.9197 0.0
H987 H 0.94101 0.3682 0.90662 0.0
H988 H 0.00946 0.4379 0.86118 0.0
H989 H 0.94843 0.51325 0.88058 0.0
C990 C 0.23345 0.28962 0.67002 0.0
C991 C 0.2094 0.31034 0.66475 0.0
N992 N 0.22332 0.33091 0.6551 0.0
N993 N 0.2625 0.29724 0.66381 0.0
C994 C 0.25552 0.32267 0.65486 0.0
H995 H 0.22966 0.26937 0.67742 0.0
Co996 Co 0.30189 0.27372 0.6657 0.0
C997 C 0.35427 0.3211 0.65799 0.0
O998 O 0.37051 0.29824 0.6509 0.0
N999 N 0.34188 0.24921 0.6679 0.0
C1000 C 0.38099 0.21106 0.66569 0.0
C1001 C 0.34899 0.2192 0.66244 0.0
C1002 C 0.36974 0.25784 0.67512 0.0
N1003 N 0.39438 0.23563 0.6735 0.0
O1004 O 0.30055 0.27986 0.68598 0.0
H1005 H 0.33247 0.2041 0.65619 0.0
H1006 H 0.37235 0.28081 0.68092 0.0
O1007 O 0.32639 0.31471 0.66369 0.0
C1008 C 0.29005 0.25431 0.69248 0.0
O1009 O 0.2834 0.2279 0.68481 0.0
N1010 N 0.30057 0.26529 0.64582 0.0
C1011 C 0.29376 0.24035 0.61785 0.0
C1012 C 0.30574 0.27244 0.62016 0.0
C1013 C 0.30894 0.28451 0.63426 0.0
C1014 C 0.28495 0.23613 0.64367 0.0
C1015 C 0.282 0.2228 0.6299 0.0
H1016 H 0.3179 0.30923 0.63569 0.0
H1017 H 0.27622 0.22229 0.6529 0.0
H1018 H 0.27351 0.33446 0.64798 0.0
H1019 H 0.18338 0.3091 0.66722 0.0
H1020 H 0.39384 0.1894 0.66189 0.0
H1021 H 0.31345 0.28785 0.61124 0.0
H1022 H 0.27239 0.19808 0.62901 0.0
C1023 C 0.48359 0.46308 0.41634 0.0
C1024 C 0.4637 0.43814 0.4114 0.0
N1025 N 0.44049 0.45124 0.40271 0.0
N1026 N 0.47307 0.49194 0.41087 0.0
C1027 C 0.44643 0.48401 0.40277 0.0
H1028 H 0.50539 0.46013 0.42291 0.0
Co1029 Co 0.49682 0.53109 0.41245 0.0
C1030 C 0.45389 0.58353 0.40188 0.0
O1031 O 0.4786 0.59422 0.39397 0.0
N1032 N 0.52163 0.57113 0.41449 0.0
C1033 C 0.55857 0.61142 0.41241 0.0
C1034 C 0.5518 0.57897 0.40941 0.0
C1035 C 0.51156 0.59909 0.42127 0.0
N1036 N 0.53299 0.62442 0.41971 0.0
O1037 O 0.48858 0.53184 0.43262 0.0
H1038 H 0.56804 0.56278 0.40357 0.0
H1039 H 0.4881 0.60111 0.42672 0.0
O1040 O 0.45686 0.55696 0.40918 0.0
C1041 C 0.51335 0.52179 0.4398 0.0
O1042 O 0.54029 0.51379 0.43275 0.0
N1043 N 0.50722 0.52756 0.39273 0.0
C1044 C 0.53482 0.52349 0.3652 0.0
C1045 C 0.50108 0.53028 0.36697 0.0
C1046 C 0.48767 0.53205 0.38087 0.0
C1047 C 0.53789 0.51483 0.39107 0.0
C1048 C 0.5526 0.51351 0.3775 0.0
H1049 H 0.46195 0.53802 0.38198 0.0
H1050 H 0.55192 0.50785 0.40053 0.0
H1051 H 0.4329 0.50157 0.39632 0.0
H1052 H 0.46691 0.41219 0.41363 0.0
H1053 H 0.58016 0.62467 0.4088 0.0
H1054 H 0.48544 0.53578 0.35781 0.0
H1055 H 0.57839 0.50711 0.37703 0.0
H1056 H 0.58217 0.19205 0.17971 0.0
H1057 H 0.41257 0.20898 0.17246 0.0
H1058 H 0.58606 0.29446 0.16789 0.0
H1059 H 0.42871 0.31323 0.17724 0.0
H1060 H 0.47149 0.19989 0.17382 0.0
H1061 H 0.5226 0.19637 0.18241 0.0
C1062 C 0.57042 0.21551 0.17769 0.0
C1063 C 0.58923 0.24296 0.17359 0.0
C1064 C 0.46238 0.22475 0.17498 0.0
C1065 C 0.52041 0.24808 0.17619 0.0
C1066 C 0.42839 0.22993 0.1742 0.0
C1067 C 0.41529 0.26187 0.17484 0.0
C1068 C 0.48381 0.25177 0.17644 0.0
C1069 C 0.43751 0.28816 0.17659 0.0
C1070 C 0.53622 0.21796 0.1791 0.0
C1071 C 0.57269 0.27287 0.17133 0.0
N1072 N 0.47055 0.28254 0.17722 0.0
N1073 N 0.5393 0.27459 0.17259 0.0
H1074 H 0.97952 0.17548 0.42408 0.0
H1075 H 0.97381 0.34667 0.41895 0.0
H1076 H 0.08358 0.18987 0.41836 0.0
H1077 H 0.0769 0.34492 0.42957 0.0
H1078 H 0.97166 0.28703 0.42166 0.0
H1079 H 0.97357 0.23443 0.42965 0.0
C1080 C 1.00116 0.19102 0.42437 0.0
C1081 C 0.03203 0.17808 0.42074 0.0
C1082 C 0.99458 0.29957 0.42387 0.0
C1083 C 0.02555 0.24553 0.42644 0.0
C1084 C 0.99571 0.33385 0.42237 0.0
C1085 C 0.02545 0.35096 0.42413 0.0
C1086 C 0.02358 0.28212 0.42711 0.0
C1087 C 0.05349 0.33277 0.42798 0.0
C1088 C 0.99777 0.22478 0.42726 0.0
C1089 C 0.05936 0.19913 0.42106 0.0
N1090 N 0.05194 0.29942 0.42916 0.0
N1091 N 0.05547 0.23176 0.42373 0.0
H1092 H 0.09908 0.78938 0.68046 0.0
H1093 H 0.9202 0.70783 0.67369 0.0
H1094 H 0.08238 0.68592 0.67255 0.0
H1095 H 0.93598 0.81123 0.68133 0.0
H1096 H 0.97944 0.69857 0.67561 0.0
H1097 H 0.0399 0.79706 0.68313 0.0
C1098 C 0.08328 0.76816 0.67933 0.0
C1099 C 0.09629 0.73704 0.67582 0.0
C1100 C 0.96997 0.72328 0.67702 0.0
C1101 C 0.0278 0.74583 0.67902 0.0
C1102 C 0.93598 0.7285 0.67605 0.0
C1103 C 0.92284 0.76033 0.67733 0.0
C1104 C 0.99125 0.75011 0.67926 0.0
C1105 C 0.94489 0.78631 0.68008 0.0
C1106 C 0.04925 0.77265 0.68086 0.0
C1107 C 0.07394 0.71059 0.6748 0.0
N1108 N 0.9779 0.78067 0.68086 0.0
N1109 N 0.04099 0.71565 0.67627 0.0
H1110 H 0.5401 0.65829 0.92959 0.0
H1111 H 0.57305 0.82488 0.92163 0.0
H1112 H 0.44095 0.68424 0.91712 0.0
H1113 H 0.46839 0.83996 0.92605 0.0
H1114 H 0.56444 0.76599 0.92337 0.0
H1115 H 0.55263 0.71627 0.93247 0.0
C1116 C 0.52084 0.67591 0.92738 0.0
C1117 C 0.48955 0.66566 0.92262 0.0
C1118 C 0.5433 0.78201 0.92427 0.0
C1119 C 0.5042 0.73327 0.9257 0.0
C1120 C 0.54819 0.81599 0.92306 0.0
C1121 C 0.52138 0.83793 0.92334 0.0
C1122 C 0.51125 0.76942 0.92585 0.0
C1123 C 0.48988 0.82438 0.92557 0.0
C1124 C 0.52823 0.70942 0.9289 0.0
C1125 C 0.46572 0.69039 0.92036 0.0
N1126 N 0.48569 0.79112 0.92652 0.0
N1127 N 0.4736 0.72282 0.92183 0.0
H1128 H 0.42287 0.68447 0.31916 0.0
H1129 H 0.56883 0.81747 0.31934 0.0
H1130 H 0.40708 0.78886 0.32368 0.0
H1131 H 0.58473 0.71263 0.3204 0.0
H1132 H 0.50952 0.80778 0.31795 0.0
H1133 H 0.48191 0.69458 0.31661 0.0
C1134 C 0.43173 0.70958 0.31951 0.0
C1135 C 0.40976 0.73586 0.32166 0.0
C1136 C 0.52599 0.78685 0.31835 0.0
C1137 C 0.47768 0.74768 0.3187 0.0
C1138 C 0.55994 0.79237 0.31918 0.0
C1139 C 0.58205 0.7658 0.32003 0.0
C1140 C 0.51381 0.75449 0.31837 0.0
C1141 C 0.56888 0.73384 0.31956 0.0
C1142 C 0.46551 0.71534 0.31802 0.0
C1143 C 0.42283 0.7679 0.32182 0.0
N1144 N 0.53573 0.72909 0.31886 0.0
N1145 N 0.45586 0.77287 0.32047 0.0
H1146 H 0.43061 0.33837 0.56708 0.0
H1147 H 0.55852 0.18899 0.55957 0.0
H1148 H 0.535 0.35172 0.56065 0.0
H1149 H 0.45474 0.17565 0.56714 0.0
H1150 H 0.54967 0.24845 0.55788 0.0
H1151 H 0.43819 0.279 0.56497 0.0
C1152 C 0.45515 0.32901 0.5652 0.0
C1153 C 0.48224 0.35054 0.56431 0.0
C1154 C 0.52873 0.23253 0.55976 0.0
C1155 C 0.49107 0.2819 0.56176 0.0
C1156 C 0.53378 0.1985 0.56076 0.0
C1157 C 0.50732 0.17708 0.56349 0.0
C1158 C 0.49694 0.24552 0.56158 0.0
C1159 C 0.47577 0.19098 0.56478 0.0
C1160 C 0.45943 0.29493 0.56395 0.0
C1161 C 0.51328 0.3365 0.5615 0.0
N1162 N 0.47151 0.22422 0.56393 0.0
N1163 N 0.51684 0.30321 0.56046 0.0
H1164 H 0.08216 0.32688 0.81816 0.0
H1165 H 0.93473 0.19715 0.80907 0.0
H1166 H 0.09752 0.22322 0.81048 0.0
H1167 H 0.92015 0.30039 0.81737 0.0
H1168 H 0.99417 0.20674 0.80766 0.0
H1169 H 0.023 0.31833 0.81586 0.0
C1170 C 0.07329 0.30228 0.81598 0.0
C1171 C 0.09532 0.27568 0.81481 0.0
C1172 C 0.97796 0.22742 0.80963 0.0
C1173 C 0.02686 0.26572 0.81204 0.0
C1174 C 0.94395 0.22194 0.81046 0.0
C1175 C 0.92218 0.24808 0.81328 0.0
C1176 C 0.99056 0.2593 0.81172 0.0
C1177 C 0.93573 0.27968 0.81488 0.0
C1178 C 0.03931 0.29745 0.81462 0.0
C1179 C 0.08188 0.24456 0.81159 0.0
N1180 N 0.96892 0.28435 0.81418 0.0
N1181 N 0.04865 0.24043 0.81046 0.0
H1182 H 0.0397 0.84481 0.0564 0.0
H1183 H 0.96461 0.66237 0.05929 0.0
H1184 H 0.93654 0.82437 0.06295 0.0
H1185 H 0.06852 0.68342 0.06192 0.0
H1186 H 0.95369 0.72117 0.05667 0.0
H1187 H 0.05008 0.78585 0.05441 0.0
C1188 C 0.01909 0.82813 0.05728 0.0
C1189 C 0.9872 0.83996 0.06015 0.0
C1190 C 0.97891 0.7129 0.05772 0.0
C1191 C 0.99909 0.77181 0.05779 0.0
C1192 C 0.98524 0.67916 0.05916 0.0
C1193 C 0.01759 0.66761 0.06109 0.0
C1194 C 0.00509 0.7355 0.05802 0.0
C1195 C 0.04315 0.691 0.06077 0.0
C1196 C 0.02513 0.79428 0.05619 0.0
C1197 C 0.96163 0.81664 0.06105 0.0
N1198 N 0.03635 0.72369 0.05934 0.0
N1199 N 0.96815 0.78382 0.05996 0.0
H1200 H 0.58565 0.80113 0.819 0.0
H1201 H 0.40717 0.71845 0.81221 0.0
H1202 H 0.57041 0.69691 0.8136 0.0
H1203 H 0.42324 0.82278 0.81765 0.0
H1204 H 0.46655 0.71054 0.81049 0.0
H1205 H 0.52647 0.80998 0.81631 0.0
C1206 C 0.57 0.78017 0.81694 0.0
C1207 C 0.58325 0.74826 0.81646 0.0
C1208 C 0.45704 0.73519 0.81201 0.0
C1209 C 0.51492 0.75805 0.81372 0.0
C1210 C 0.42292 0.7398 0.81297 0.0
C1211 C 0.40966 0.77131 0.81547 0.0
C1212 C 0.47835 0.76227 0.81343 0.0
C1213 C 0.4319 0.79789 0.81614 0.0
C1214 C 0.53605 0.78517 0.81556 0.0
C1215 C 0.56137 0.72191 0.81418 0.0
N1216 N 0.46495 0.79272 0.81525 0.0
N1217 N 0.52839 0.72736 0.81297 0.0
H1218 H 0.9358 0.67232 0.5627 0.0
H1219 H 0.06734 0.81817 0.55819 0.0
H1220 H 0.03979 0.65584 0.55646 0.0
H1221 H 0.96267 0.83396 0.55627 0.0
H1222 H 0.05786 0.7587 0.55678 0.0
H1223 H 0.94493 0.73129 0.55955 0.0
C1224 C 0.96056 0.6809 0.56064 0.0
C1225 C 0.98709 0.65865 0.56017 0.0
C1226 C 0.03693 0.77518 0.55649 0.0
C1227 C 0.99775 0.72676 0.55649 0.0
C1228 C 0.04234 0.8092 0.55732 0.0
C1229 C 0.01572 0.83131 0.5574 0.0
C1230 C 0.00459 0.76293 0.5559 0.0
C1231 C 0.98389 0.81807 0.55613 0.0
C1232 C 0.96573 0.71473 0.55877 0.0
C1233 C 0.01848 0.67164 0.55708 0.0
N1234 N 0.9792 0.78487 0.55561 0.0
N1235 N 0.02295 0.70472 0.55557 0.0
H1236 H 0.90999 0.20991 0.31811 0.0
H1237 H 0.08719 0.29359 0.31092 0.0
H1238 H 0.92421 0.31317 0.30953 0.0
H1239 H 0.07258 0.18946 0.31706 0.0
H1240 H 0.02794 0.30059 0.30821 0.0
H1241 H 0.96916 0.20116 0.31563 0.0
C1242 C 0.92541 0.23062 0.31536 0.0
C1243 C 0.9119 0.26226 0.31393 0.0
C1244 C 0.03769 0.27614 0.31004 0.0
C1245 C 0.98021 0.25267 0.3115 0.0
C1246 C 0.07172 0.27211 0.31151 0.0
C1247 C 0.08525 0.24101 0.31446 0.0
C1248 C 0.01674 0.24883 0.31151 0.0
C1249 C 0.06349 0.21408 0.31513 0.0
C1250 C 0.95936 0.2257 0.31411 0.0
C1251 C 0.93348 0.2884 0.31085 0.0
N1252 N 0.03043 0.21865 0.3138 0.0
N1253 N 0.96649 0.28307 0.30983 0.0
H1254 H 0.53354 0.16387 0.05195 0.0
H1255 H 0.45079 0.33957 0.06748 0.0
H1256 H 0.43588 0.17641 0.06955 0.0
H1257 H 0.5515 0.32759 0.05398 0.0
H1258 H 0.44267 0.28011 0.06528 0.0
H1259 H 0.5382 0.22344 0.0496 0.0
C1260 C 0.51298 0.17884 0.05533 0.0
C1261 C 0.4847 0.16451 0.06149 0.0
C1262 C 0.46647 0.29046 0.06262 0.0
C1263 C 0.48983 0.23349 0.05857 0.0
C1264 C 0.47096 0.32455 0.0637 0.0
C1265 C 0.50174 0.33876 0.06076 0.0
C1266 C 0.49299 0.27018 0.05858 0.0
C1267 C 0.52739 0.31774 0.05641 0.0
C1268 C 0.51572 0.2131 0.05395 0.0
C1269 C 0.45867 0.18586 0.0652 0.0
N1270 N 0.52249 0.2846 0.0555 0.0
N1271 N 0.46199 0.21907 0.0638 0.0
H1272 H 0.608 0.21846 0.68543 0.0
H1273 H 0.44031 0.18739 0.67693 0.0
H1274 H 0.58431 0.31252 0.6662 0.0
H1275 H 0.42843 0.29282 0.67744 0.0
H1276 H 0.49971 0.19457 0.67873 0.0
H1277 H 0.54947 0.20795 0.68854 0.0
C1278 C 0.5908 0.23699 0.6818 0.0
C1279 C 0.60184 0.26623 0.67519 0.0
C1280 C 0.4842 0.21621 0.67879 0.0
C1281 C 0.5339 0.25407 0.67874 0.0
C1282 C 0.4501 0.2121 0.67759 0.0
C1283 C 0.42906 0.23955 0.67682 0.0
C1284 C 0.49766 0.24809 0.6792 0.0
C1285 C 0.44344 0.27093 0.67793 0.0
C1286 C 0.55708 0.23079 0.68353 0.0
C1287 C 0.57768 0.28945 0.67119 0.0
N1288 N 0.47676 0.27433 0.67882 0.0
N1289 N 0.54509 0.2828 0.67298 0.0
H1290 H 0.57903 0.67337 0.42105 0.0
H1291 H 0.44505 0.81749 0.4273 0.0
H1292 H 0.4748 0.65567 0.42574 0.0
H1293 H 0.54856 0.83449 0.42048 0.0
H1294 H 0.45595 0.75837 0.42903 0.0
H1295 H 0.5689 0.73224 0.42326 0.0
C1296 C 0.55398 0.68165 0.42254 0.0
C1297 C 0.52771 0.65907 0.42288 0.0
C1298 C 0.47637 0.77505 0.42731 0.0
C1299 C 0.51594 0.72716 0.42557 0.0
C1300 C 0.47014 0.80887 0.4263 0.0
C1301 C 0.49595 0.83121 0.42378 0.0
C1302 C 0.50868 0.76324 0.42574 0.0
C1303 C 0.528 0.81845 0.4227 0.0
C1304 C 0.54824 0.71547 0.42386 0.0
C1305 C 0.49592 0.67176 0.42527 0.0
N1306 N 0.53341 0.78542 0.42359 0.0
N1307 N 0.49094 0.70485 0.42638 0.0
H1308 H 0.08052 0.81921 0.18273 0.0
H1309 H 0.93243 0.69009 0.17991 0.0
H1310 H 0.09486 0.71417 0.18482 0.0
H1311 H 0.91808 0.79465 0.18469 0.0
H1312 H 0.99168 0.6981 0.18307 0.0
H1313 H 0.02118 0.8107 0.18487 0.0
C1314 C 0.07129 0.79432 0.18372 0.0
C1315 C 0.09298 0.76735 0.18331 0.0
C1316 C 0.97556 0.71929 0.18358 0.0
C1317 C 0.02456 0.75737 0.18576 0.0
C1318 C 0.94165 0.71473 0.18174 0.0
C1319 C 0.92002 0.74176 0.18186 0.0
C1320 C 0.98825 0.7512 0.18543 0.0
C1321 C 0.93357 0.77305 0.1845 0.0
C1322 C 0.0373 0.78948 0.18499 0.0
C1323 C 0.07934 0.73573 0.18496 0.0
N1324 N 0.96672 0.77694 0.18599 0.0
N1325 N 0.0461 0.73161 0.1859 0.0
H1326 H 0.03933 0.34156 0.93001 0.0
H1327 H 0.96585 0.15866 0.92722 0.0
H1328 H 0.9372 0.32074 0.92115 0.0
H1329 H 0.06921 0.18103 0.9227 0.0
H1330 H 0.95446 0.21736 0.92978 0.0
H1331 H 0.04973 0.28262 0.93224 0.0
C1332 C 0.01895 0.32478 0.92868 0.0
C1333 C 0.98741 0.33646 0.92507 0.0
C1334 C 0.97965 0.20934 0.92828 0.0
C1335 C 0.99924 0.26841 0.92774 0.0
C1336 C 0.98626 0.17565 0.9268 0.0
C1337 C 0.01852 0.16446 0.92419 0.0
C1338 C 0.00553 0.2322 0.92753 0.0
C1339 C 0.04383 0.18817 0.92421 0.0
C1340 C 0.02498 0.29097 0.9299 0.0
C1341 C 0.96205 0.31306 0.92363 0.0
N1342 N 0.03678 0.22075 0.92576 0.0
N1343 N 0.96853 0.28027 0.92489 0.0
H1344 H 0.42075 0.02522 0.11489 0.0
H1345 H 0.38133 0.16092 0.17326 0.0
H1346 H 0.4922 0.06153 0.1457 0.0
H1347 H 0.32188 0.13755 0.13613 0.0
H1348 H 0.41427 0.11125 0.1689 0.0
H1349 H 0.3775 0.0504 0.12883 0.0
C1350 C 0.4276 0.03751 0.12482 0.0
C1351 C 0.46077 0.04196 0.12878 0.0
C1352 C 0.3935 0.11651 0.16194 0.0
C1353 C 0.41057 0.07237 0.14452 0.0
C1354 C 0.37487 0.14481 0.16439 0.0
C1355 C 0.34955 0.15326 0.15483 0.0
C1356 C 0.38652 0.09683 0.14983 0.0
C1357 C 0.34147 0.13168 0.14364 0.0
C1358 C 0.40257 0.05233 0.13272 0.0
C1359 C 0.46726 0.05855 0.14182 0.0
N1360 N 0.36025 0.10459 0.14131 0.0
N1361 N 0.44246 0.07393 0.14903 0.0
H1362 H 0.1556 0.23538 0.38707 0.0
H1363 H 0.17146 0.05322 0.38949 0.0
H1364 H 0.25277 0.19235 0.38666 0.0
H1365 H 0.10004 0.09821 0.41781 0.0
H1366 H 0.20362 0.10384 0.39012 0.0
H1367 H 0.1358 0.1884 0.40088 0.0
C1368 C 0.17318 0.21679 0.39035 0.0
C1369 C 0.20569 0.21725 0.38516 0.0
C1370 C 0.18114 0.10247 0.39639 0.0
C1371 C 0.18273 0.16292 0.40055 0.0
C1372 C 0.16263 0.07362 0.39596 0.0
C1373 C 0.13207 0.07211 0.40297 0.0
C1374 C 0.16865 0.13017 0.40361 0.0
C1375 C 0.12241 0.09905 0.41151 0.0
C1376 C 0.16171 0.18978 0.39819 0.0
C1377 C 0.22715 0.1923 0.38986 0.0
N1378 N 0.14007 0.12747 0.41121 0.0
N1379 N 0.21503 0.16548 0.39682 0.0
H1380 H 0.10411 0.8155 0.65687 0.0
H1381 H 0.00832 0.94487 0.64187 0.0
H1382 H 0.18934 0.87777 0.65238 0.0
H1383 H 0.09141 0.96484 0.61395 0.0
H1384 H 0.04547 0.91636 0.6585 0.0
H1385 H 0.06873 0.86325 0.65433 0.0
C1386 C 0.11533 0.83954 0.65578 0.0
C1387 C 0.14953 0.84287 0.65477 0.0
C1388 C 0.05547 0.92773 0.64885 0.0
C1389 C 0.10922 0.89774 0.65154 0.0
C1390 C 0.03429 0.94388 0.6393 0.0
C1391 C 0.04627 0.95606 0.62607 0.0
C1392 C 0.08873 0.9238 0.6451 0.0
C1393 C 0.08055 0.95548 0.6238 0.0
C1394 C 0.09512 0.86692 0.65447 0.0
C1395 C 0.16297 0.87439 0.65318 0.0
N1396 N 0.10043 0.93892 0.63305 0.0
N1397 N 0.14266 0.90063 0.65111 0.0
H1398 H 0.26024 0.83532 0.88533 0.0
H1399 H 0.44577 0.84884 0.90173 0.0
H1400 H 0.32566 0.75256 0.89162 0.0
H1401 H 0.38145 0.93233 0.90722 0.0
H1402 H 0.39885 0.81244 0.90294 0.0
H1403 H 0.29878 0.86981 0.89871 0.0
C1404 C 0.28221 0.82405 0.88971 0.0
C1405 C 0.29066 0.79132 0.88628 0.0
C1406 C 0.39469 0.83864 0.90409 0.0
C1407 C 0.33424 0.83055 0.90199 0.0
C1408 C 0.42159 0.85949 0.9033 0.0
C1409 C 0.41734 0.89358 0.90417 0.0
C1410 C 0.36288 0.85194 0.9051 0.0
C1411 C 0.38555 0.90607 0.90634 0.0
C1412 C 0.30409 0.84384 0.89749 0.0
C1413 C 0.31823 0.7778 0.89329 0.0
N1414 N 0.35925 0.88523 0.90635 0.0
N1415 N 0.33943 0.79768 0.90044 0.0
H1416 H 0.4878 0.91086 0.34883 0.0
H1417 H 0.31429 0.87012 0.35375 0.0
H1418 H 0.42148 0.99224 0.35643 0.0
H1419 H 0.36766 0.8298 0.31763 0.0
H1420 H 0.35055 0.9184 0.35329 0.0
H1421 H 0.44541 0.88408 0.33467 0.0
C1422 C 0.46485 0.92384 0.34717 0.0
C1423 C 0.45785 0.95326 0.35456 0.0
C1424 C 0.35357 0.89955 0.34511 0.0
C1425 C 0.40869 0.92175 0.33873 0.0
C1426 C 0.33291 0.8721 0.3454 0.0
C1427 C 0.33848 0.84606 0.33584 0.0
C1428 C 0.38053 0.90002 0.33558 0.0
C1429 C 0.36313 0.84928 0.32534 0.0
C1430 C 0.44046 0.90828 0.33908 0.0
C1431 C 0.42743 0.96861 0.35172 0.0
N1432 N 0.38404 0.87533 0.32576 0.0
N1433 N 0.4034 0.95201 0.34457 0.0
H1434 H 0.37298 0.07929 0.59561 0.0
H1435 H 0.34067 0.25226 0.59688 0.0
H1436 H 0.41195 0.13784 0.56077 0.0
H1437 H 0.258 0.18846 0.60603 0.0
H1438 H 0.36076 0.21241 0.57973 0.0
H1439 H 0.32484 0.11551 0.5966 0.0
C1440 C 0.37066 0.09906 0.5878 0.0
C1441 C 0.39643 0.10626 0.57831 0.0
C1442 C 0.33766 0.20748 0.58518 0.0
C1443 C 0.34258 0.14815 0.57965 0.0
C1444 C 0.32592 0.23049 0.59505 0.0
C1445 C 0.2985 0.22307 0.60375 0.0
C1446 C 0.32262 0.17647 0.58436 0.0
C1447 C 0.28061 0.19433 0.60043 0.0
C1448 C 0.34324 0.11969 0.58832 0.0
C1449 C 0.39274 0.13216 0.56847 0.0
N1450 N 0.2938 0.17129 0.5915 0.0
N1451 N 0.36675 0.15294 0.56968 0.0
H1452 H 0.00745 0.07546 0.84433 0.0
H1453 H 0.18926 0.13466 0.83074 0.0
H1454 H 0.09204 0.01388 0.85303 0.0
H1455 H 0.10185 0.19432 0.83449 0.0
H1456 H 0.15418 0.08512 0.82994 0.0
H1457 H 0.04148 0.11042 0.82962 0.0
C1458 C 0.0329 0.0684 0.84294 0.0
C1459 C 0.04717 0.04265 0.85096 0.0
C1460 C 0.14283 0.10919 0.8306 0.0
C1461 C 0.08672 0.08423 0.83449 0.0
C1462 C 0.16275 0.13731 0.83116 0.0
C1463 C 0.14833 0.16838 0.83304 0.0
C1464 C 0.10848 0.1126 0.83163 0.0
C1465 C 0.11399 0.17075 0.83335 0.0
C1466 C 0.05254 0.08891 0.83456 0.0
C1467 C 0.08033 0.03492 0.84805 0.0
N1468 N 0.0953 0.14326 0.83274 0.0
N1469 N 0.09941 0.05647 0.84054 0.0
H1470 H 0.20562 0.76498 0.09601 0.0
H1471 H 0.12206 0.94063 0.08649 0.0
H1472 H 0.22038 0.84727 0.12496 0.0
H1473 H 0.07726 0.84714 0.07653 0.0
H1474 H 0.17423 0.91185 0.09151 0.0
H1475 H 0.17601 0.80158 0.07956 0.0
C1476 C 0.2034 0.79075 0.0988 0.0
C1477 C 0.21427 0.80253 0.11228 0.0
C1478 C 0.15316 0.89793 0.08775 0.0
C1479 C 0.18141 0.84454 0.09328 0.0
C1480 C 0.12354 0.91424 0.08494 0.0
C1481 C 0.09543 0.896 0.08136 0.0
C1482 C 0.15449 0.86345 0.08663 0.0
C1483 C 0.09836 0.86194 0.07946 0.0
C1484 C 0.18677 0.81165 0.08932 0.0
C1485 C 0.21207 0.83662 0.11488 0.0
N1486 N 0.12731 0.8467 0.08223 0.0
N1487 N 0.19521 0.85628 0.10563 0.0
H1488 H 0.58611 0.00735 0.85627 0.0
H1489 H 0.62275 0.84337 0.8132 0.0
H1490 H 0.51501 0.93237 0.84502 0.0
H1491 H 0.68528 0.88419 0.84622 0.0
H1492 H 0.58945 0.89362 0.81361 0.0
H1493 H 0.62652 0.97953 0.84101 0.0
C1494 C 0.57855 0.9856 0.8504 0.0
C1495 C 0.5476 0.97097 0.85285 0.0
C1496 C 0.61122 0.89207 0.82035 0.0
C1497 C 0.59318 0.94051 0.83471 0.0
C1498 C 0.62999 0.8634 0.82021 0.0
C1499 C 0.65603 0.85966 0.82996 0.0
C1500 C 0.61876 0.91693 0.83032 0.0
C1501 C 0.66504 0.88631 0.83866 0.0
C1502 C 0.60162 0.97006 0.84154 0.0
C1503 C 0.53871 0.94423 0.84401 0.0
N1504 N 0.64597 0.91379 0.83885 0.0
N1505 N 0.56168 0.92938 0.83561 0.0
H1506 H 0.87943 0.93133 0.58729 0.0
H1507 H 0.83131 0.75713 0.5975 0.0
H1508 H 0.91136 0.85707 0.55721 0.0
H1509 H 0.76065 0.83278 0.6085 0.0
H1510 H 0.85374 0.79279 0.57919 0.0
H1511 H 0.8295 0.89906 0.59199 0.0
C1512 C 0.87519 0.90887 0.58125 0.0
C1513 C 0.89961 0.89615 0.57217 0.0
C1514 C 0.83281 0.80141 0.58538 0.0
C1515 C 0.84362 0.85896 0.57768 0.0
C1516 C 0.81967 0.78079 0.59592 0.0
C1517 C 0.79491 0.79228 0.60527 0.0
C1518 C 0.82199 0.83414 0.58447 0.0
C1519 C 0.78117 0.82343 0.6023 0.0
C1520 C 0.84679 0.8904 0.58393 0.0
C1521 C 0.89336 0.86697 0.56463 0.0
N1522 N 0.79576 0.84382 0.59256 0.0
N1523 N 0.86633 0.84884 0.56783 0.0
H1524 H 0.87396 0.16695 0.31288 0.0
H1525 H 0.92362 0.01339 0.36069 0.0
H1526 H 0.82089 0.13045 0.34987 0.0
H1527 H 0.99299 0.08114 0.34183 0.0
H1528 H 0.87983 0.03792 0.3461 0.0
H1529 H 0.91001 0.11856 0.31387 0.0
C1530 C 0.86939 0.14824 0.32096 0.0
C1531 C 0.84515 0.15276 0.33154 0.0
C1532 C 0.90489 0.04643 0.34469 0.0
C1533 C 0.88534 0.09738 0.33247 0.0
C1534 C 0.92991 0.03231 0.3529 0.0
C1535 C 0.96163 0.04601 0.35271 0.0
C1536 C 0.91189 0.07417 0.33622 0.0
C1537 C 0.96869 0.07027 0.34241 0.0
C1538 C 0.88975 0.12062 0.32143 0.0
C1539 C 0.83957 0.12772 0.3416 0.0
N1540 N 0.94371 0.08434 0.33483 0.0
N1541 N 0.85989 0.10117 0.34196 0.0
H1542 H 0.75089 0.18412 0.10503 0.0
H1543 H 0.57868 0.16113 0.06787 0.0
H1544 H 0.67831 0.25959 0.09657 0.0
H1545 H 0.63632 0.08092 0.08476 0.0
H1546 H 0.62678 0.1966 0.06883 0.0
H1547 H 0.72106 0.14733 0.08878 0.0
C1548 C 0.72915 0.19336 0.09963 0.0
C1549 C 0.71607 0.22456 0.10304 0.0
C1550 C 0.62928 0.17108 0.07205 0.0
C1551 C 0.68283 0.18291 0.08394 0.0
C1552 C 0.6018 0.15085 0.07148 0.0
C1553 C 0.60357 0.11842 0.0765 0.0
C1554 C 0.65843 0.15918 0.07828 0.0
C1555 C 0.63408 0.10605 0.08097 0.0
C1556 C 0.71237 0.17232 0.09022 0.0
C1557 C 0.68919 0.23567 0.09481 0.0
N1558 N 0.66027 0.1268 0.08218 0.0
N1559 N 0.6731 0.21461 0.08593 0.0
H1560 H 0.61024 0.19961 0.65718 0.0
H1561 H 0.57308 0.01908 0.63329 0.0
H1562 H 0.68584 0.12635 0.65161 0.0
H1563 H 0.50161 0.09701 0.63832 0.0
H1564 H 0.61187 0.05094 0.64781 0.0
H1565 H 0.56906 0.15653 0.65837 0.0
C1566 C 0.61814 0.17422 0.65639 0.0
C1567 C 0.65123 0.1664 0.65402 0.0
C1568 C 0.58733 0.06054 0.64606 0.0
C1569 C 0.60401 0.11676 0.65471 0.0
C1570 C 0.56514 0.04245 0.6377 0.0
C1571 C 0.53458 0.05617 0.63378 0.0
C1572 C 0.57863 0.09227 0.65065 0.0
C1573 C 0.52508 0.08557 0.64058 0.0
C1574 C 0.59462 0.14955 0.65709 0.0
C1575 C 0.66036 0.13322 0.65324 0.0
N1576 N 0.54733 0.10299 0.64834 0.0
N1577 N 0.63665 0.10948 0.65316 0.0
H1578 H 0.67286 0.75834 0.39467 0.0
H1579 H 0.62797 0.92854 0.39073 0.0
H1580 H 0.75247 0.82671 0.3869 0.0
H1581 H 0.58951 0.8734 0.42674 0.0
H1582 H 0.67795 0.89471 0.39143 0.0
H1583 H 0.64688 0.79868 0.41008 0.0
C1584 C 0.68571 0.78127 0.39653 0.0
C1585 C 0.71404 0.78971 0.38861 0.0
C1586 C 0.65909 0.89079 0.39954 0.0
C1587 C 0.68329 0.8366 0.40589 0.0
C1588 C 0.63062 0.90998 0.39907 0.0
C1589 C 0.60464 0.90302 0.40848 0.0
C1590 C 0.66069 0.86395 0.40913 0.0
C1591 C 0.60885 0.87874 0.41907 0.0
C1592 C 0.67058 0.80453 0.40536 0.0
C1593 C 0.72939 0.81989 0.39191 0.0
N1594 N 0.63597 0.85927 0.41884 0.0
N1595 N 0.71301 0.84297 0.39972 0.0
H1596 H 0.90851 0.8472 0.17296 0.0
H1597 H 0.90497 0.98029 0.11666 0.0
H1598 H 0.81771 0.88148 0.1542 0.0
H1599 H 0.98682 0.96877 0.14609 0.0
H1600 H 0.86878 0.95718 0.13466 0.0
H1601 H 0.93336 0.90061 0.16833 0.0
C1602 C 0.89362 0.86638 0.16813 0.0
C1603 C 0.86144 0.85992 0.16358 0.0
C1604 C 0.89448 0.9605 0.13739 0.0
C1605 C 0.88988 0.92074 0.15779 0.0
C1606 C 0.91541 0.97401 0.12707 0.0
C1607 C 0.94958 0.97512 0.12952 0.0
C1608 C 0.90788 0.94708 0.15006 0.0
C1609 C 0.96101 0.96668 0.14337 0.0
C1610 C 0.90772 0.89699 0.16555 0.0
C1611 C 0.84286 0.88556 0.15764 0.0
N1612 N 0.9404 0.95196 0.15295 0.0
N1613 N 0.85771 0.91469 0.15448 0.0
H1614 H 0.95442 0.15343 0.90038 0.0
H1615 H 0.77043 0.18041 0.88366 0.0
H1616 H 0.88397 0.07484 0.90529 0.0
H1617 H 0.84268 0.25771 0.88859 0.0
H1618 H 0.80604 0.14373 0.89751 0.0
H1619 H 0.91048 0.19321 0.90176 0.0
C1620 C 0.9295 0.14456 0.90183 0.0
C1621 C 0.92269 0.11084 0.90251 0.0
C1622 C 0.81353 0.16905 0.89591 0.0
C1623 C 0.87156 0.1565 0.90349 0.0
C1624 C 0.79332 0.19006 0.88788 0.0
C1625 C 0.80449 0.22168 0.88398 0.0
C1626 C 0.84477 0.18005 0.90018 0.0
C1627 C 0.83321 0.23332 0.89071 0.0
C1628 C 0.90428 0.16737 0.90271 0.0
C1629 C 0.89004 0.10074 0.90457 0.0
N1630 N 0.85272 0.21224 0.89812 0.0
N1631 N 0.8654 0.12353 0.90457 0.0
H1632 H 0.90535 0.52413 0.61473 0.0
H1633 H 0.88939 0.65973 0.67306 0.0
H1634 H 0.98011 0.54317 0.64697 0.0
H1635 H 0.81309 0.63362 0.6429 0.0
H1636 H 0.91603 0.60669 0.66874 0.0
H1637 H 0.86523 0.55035 0.62999 0.0
C1638 C 0.91349 0.53283 0.62519 0.0
C1639 C 0.94693 0.53247 0.62918 0.0
C1640 C 0.89303 0.61206 0.66332 0.0
C1641 C 0.90053 0.56433 0.64653 0.0
C1642 C 0.878 0.64238 0.66574 0.0
C1643 C 0.84969 0.65096 0.65803 0.0
C1644 C 0.8799 0.59073 0.65284 0.0
C1645 C 0.83521 0.62773 0.6489 0.0
C1646 C 0.89026 0.54827 0.6339 0.0
C1647 C 0.95511 0.54435 0.643 0.0
N1648 N 0.85091 0.59883 0.6463 0.0
N1649 N 0.93229 0.56074 0.65098 0.0
H1650 H 0.62463 0.57461 0.90726 0.0
H1651 H 0.66403 0.76101 0.89213 0.0
H1652 H 0.55596 0.65445 0.9014 0.0
H1653 H 0.73657 0.6839 0.88741 0.0
H1654 H 0.63107 0.72452 0.9067 0.0
H1655 H 0.66963 0.61531 0.90904 0.0
C1656 C 0.61903 0.60063 0.90662 0.0
C1657 C 0.58685 0.6113 0.9038 0.0
C1658 C 0.65451 0.71568 0.90269 0.0
C1659 C 0.63734 0.6575 0.9063 0.0
C1660 C 0.6738 0.73681 0.89442 0.0
C1661 C 0.70233 0.72499 0.88757 0.0
C1662 C 0.66328 0.68235 0.90376 0.0
C1663 C 0.71353 0.69341 0.89152 0.0
C1664 C 0.64454 0.62376 0.90772 0.0
C1665 C 0.58059 0.64516 0.90322 0.0
N1666 N 0.6933 0.67261 0.89884 0.0
N1667 N 0.60556 0.66695 0.90437 0.0
H1668 H 0.61898 0.33952 0.1735 0.0
H1669 H 0.57374 0.50051 0.12922 0.0
H1670 H 0.68185 0.38324 0.14131 0.0
H1671 H 0.50688 0.42025 0.13818 0.0
H1672 H 0.61496 0.4738 0.14449 0.0
H1673 H 0.58099 0.38604 0.17114 0.0
C1674 C 0.62519 0.35945 0.16625 0.0
C1675 C 0.65294 0.35749 0.15733 0.0
C1676 C 0.5908 0.4628 0.14343 0.0
C1677 C 0.61036 0.41067 0.15482 0.0
C1678 C 0.56729 0.47775 0.13461 0.0
C1679 C 0.53727 0.46173 0.13169 0.0
C1680 C 0.58374 0.4323 0.14974 0.0
C1681 C 0.52977 0.43335 0.13974 0.0
C1682 C 0.6037 0.38599 0.165 0.0
C1683 C 0.66046 0.38403 0.14829 0.0
N1684 N 0.55314 0.41917 0.14816 0.0
N1685 N 0.6389 0.40947 0.14707 0.0
H1686 H 0.75922 0.33685 0.38253 0.0
H1687 H 0.92756 0.37727 0.42242 0.0
H1688 H 0.83781 0.26696 0.38977 0.0
H1689 H 0.88264 0.44177 0.39121 0.0
H1690 H 0.87987 0.34052 0.42081 0.0
H1691 H 0.79036 0.37781 0.39623 0.0
C1692 C 0.78258 0.32971 0.38719 0.0
C1693 C 0.7966 0.2987 0.38422 0.0
C1694 C 0.88002 0.36324 0.41467 0.0
C1695 C 0.83116 0.34501 0.40058 0.0
C1696 C 0.90724 0.38398 0.41549 0.0
C1697 C 0.90911 0.41187 0.40664 0.0
C1698 C 0.85453 0.37078 0.40502 0.0
C1699 C 0.88195 0.42023 0.39811 0.0
C1700 C 0.80009 0.35311 0.39512 0.0
C1701 C 0.826 0.29051 0.3914 0.0
N1702 N 0.8558 0.39939 0.39732 0.0
N1703 N 0.84258 0.31375 0.39901 0.0
H1704 H 0.80989 0.3805 0.8422 0.0
H1705 H 0.98558 0.45854 0.84031 0.0
H1706 H 0.88972 0.34757 0.81526 0.0
H1707 H 0.90808 0.48252 0.87059 0.0
H1708 H 0.94433 0.4344 0.82431 0.0
H1709 H 0.83807 0.43338 0.84537 0.0
C1710 C 0.83292 0.38491 0.83661 0.0
C1711 C 0.8483 0.3597 0.82888 0.0
C1712 C 0.93636 0.44588 0.83428 0.0
C1713 C 0.8809 0.41915 0.83266 0.0
C1714 C 0.95996 0.45947 0.84349 0.0
C1715 C 0.95073 0.47127 0.85719 0.0
C1716 C 0.90343 0.44398 0.83887 0.0
C1717 C 0.91688 0.47324 0.86034 0.0
C1718 C 0.84907 0.41495 0.83843 0.0
C1719 C 0.87791 0.36627 0.82175 0.0
N1720 N 0.89463 0.45894 0.85143 0.0
N1721 N 0.89371 0.39517 0.82406 0.0
H1722 H 0.88406 0.56872 0.08378 0.0
H1723 H 0.78356 0.66854 0.12267 0.0
H1724 H 0.93805 0.66015 0.08327 0.0
H1725 H 0.81432 0.74831 0.09478 0.0
H1726 H 0.81068 0.63005 0.10685 0.0
H1727 H 0.83266 0.60022 0.08683 0.0
C1728 C 0.88497 0.59536 0.08404 0.0
C1729 C 0.91521 0.61196 0.08366 0.0
C1730 C 0.81041 0.65579 0.10382 0.0
C1731 C 0.85724 0.64774 0.08689 0.0
C1732 C 0.79478 0.67814 0.11293 0.0
C1733 C 0.79766 0.71224 0.11048 0.0
C1734 C 0.82968 0.66762 0.09238 0.0
C1735 C 0.81282 0.7225 0.09758 0.0
C1736 C 0.85579 0.61323 0.08577 0.0
C1737 C 0.91526 0.64642 0.08384 0.0
N1738 N 0.82937 0.70039 0.08931 0.0
N1739 N 0.88675 0.66315 0.08554 0.0
H1740 H 0.51684 0.56945 0.34461 0.0
H1741 H 0.68862 0.62842 0.34655 0.0
H1742 H 0.59431 0.49979 0.35427 0.0
H1743 H 0.62017 0.66884 0.31579 0.0
H1744 H 0.65828 0.57622 0.34595 0.0
H1745 H 0.55434 0.59932 0.32938 0.0
C1746 C 0.54135 0.55954 0.3433 0.0
C1747 C 0.55273 0.53297 0.35169 0.0
C1748 C 0.65048 0.59612 0.33894 0.0
C1749 C 0.5965 0.56859 0.33453 0.0
C1750 C 0.66772 0.62584 0.33936 0.0
C1751 C 0.65607 0.65282 0.33151 0.0
C1752 C 0.62111 0.59407 0.33092 0.0
C1753 C 0.62908 0.64865 0.32232 0.0
C1754 C 0.56304 0.57703 0.33455 0.0
C1755 C 0.5849 0.52157 0.34898 0.0
N1756 N 0.61192 0.62003 0.32253 0.0
N1757 N 0.60616 0.5403 0.34117 0.0
H1758 H 0.6764 0.25499 0.5966 0.0
H1759 H 0.62445 0.43924 0.58133 0.0
H1760 H 0.74275 0.33692 0.60329 0.0
H1761 H 0.56048 0.35511 0.58593 0.0
H1762 H 0.67225 0.40175 0.58148 0.0
H1763 H 0.64081 0.29042 0.58287 0.0
C1764 C 0.6843 0.28012 0.59496 0.0
C1765 C 0.71208 0.29314 0.60201 0.0
C1766 C 0.64764 0.39165 0.58216 0.0
C1767 C 0.66978 0.33449 0.58668 0.0
C1768 C 0.6205 0.41294 0.58215 0.0
C1769 C 0.58867 0.40019 0.58395 0.0
C1770 C 0.64252 0.35758 0.58368 0.0
C1771 C 0.58466 0.36602 0.58483 0.0
C1772 C 0.66342 0.3006 0.58717 0.0
C1773 C 0.72052 0.32609 0.59897 0.0
N1774 N 0.61122 0.346 0.58475 0.0
N1775 N 0.69882 0.34602 0.59198 0.0
H1776 H 0.08362 0.50903 0.35384 0.0
H1777 H 0.11491 0.34141 0.3125 0.0
H1778 H 0.01127 0.43325 0.34538 0.0
H1779 H 0.18222 0.38324 0.34334 0.0
H1780 H 0.08194 0.39179 0.31337 0.0
H1781 H 0.12279 0.47891 0.33881 0.0
C1782 C 0.07552 0.48654 0.34868 0.0
C1783 C 0.04452 0.47265 0.35183 0.0
C1784 C 0.10455 0.39039 0.31955 0.0
C1785 C 0.08869 0.43957 0.33384 0.0
C1786 C 0.1231 0.36163 0.31916 0.0
C1787 C 0.15048 0.35814 0.32818 0.0
C1788 C 0.11357 0.4156 0.32909 0.0
C1789 C 0.16092 0.38515 0.33635 0.0
C1790 C 0.0979 0.4697 0.33994 0.0
C1791 C 0.03496 0.4448 0.34382 0.0
N1792 N 0.14195 0.41271 0.33687 0.0
N1793 N 0.05722 0.42882 0.33546 0.0
H1794 H 0.40697 0.37432 0.06162 0.0
H1795 H 0.24926 0.33365 0.1087 0.0
H1796 H 0.36989 0.43673 0.09554 0.0
H1797 H 0.32613 0.26478 0.09717 0.0
H1798 H 0.27523 0.37464 0.0931 0.0
H1799 H 0.35827 0.33921 0.06405 0.0
C1800 C 0.38802 0.38112 0.06927 0.0
C1801 C 0.3925 0.40772 0.07867 0.0
C1802 C 0.28554 0.35008 0.09369 0.0
C1803 C 0.33693 0.36842 0.08129 0.0
C1804 C 0.2711 0.32669 0.10274 0.0
C1805 C 0.2866 0.29612 0.10509 0.0
C1806 C 0.31487 0.34234 0.08653 0.0
C1807 C 0.31348 0.28806 0.09618 0.0
C1808 C 0.36022 0.3613 0.07056 0.0
C1809 C 0.36716 0.41612 0.08821 0.0
N1810 N 0.32715 0.31129 0.08753 0.0
N1811 N 0.34053 0.39608 0.08949 0.0
H1812 H 0.31589 0.63139 0.82964 0.0
H1813 H 0.50007 0.58037 0.84461 0.0
H1814 H 0.39934 0.69482 0.83707 0.0
H1815 H 0.41848 0.51402 0.85199 0.0
H1816 H 0.46457 0.61483 0.83033 0.0
H1817 H 0.35373 0.58384 0.82855 0.0
C1818 C 0.34213 0.63531 0.83078 0.0
C1819 C 0.35459 0.6668 0.83375 0.0
C1820 C 0.45454 0.59238 0.83486 0.0
C1821 C 0.39756 0.61342 0.83199 0.0
C1822 C 0.47503 0.57217 0.84298 0.0
C1823 C 0.46194 0.54506 0.85051 0.0
C1824 C 0.42064 0.58597 0.83453 0.0
C1825 C 0.42922 0.53599 0.84737 0.0
C1826 C 0.36361 0.60836 0.83007 0.0
C1827 C 0.38867 0.67085 0.83503 0.0
N1828 N 0.40923 0.55715 0.84011 0.0
N1829 N 0.40887 0.64451 0.83419 0.0
H1830 H 0.24579 0.67458 0.60391 0.0
H1831 H 0.06217 0.65926 0.58161 0.0
H1832 H 0.17876 0.75582 0.597 0.0
H1833 H 0.1273 0.57547 0.58234 0.0
H1834 H 0.10924 0.69562 0.58111 0.0
H1835 H 0.20929 0.63953 0.58975 0.0
C1836 C 0.22387 0.68541 0.59928 0.0
C1837 C 0.21435 0.71784 0.60271 0.0
C1838 C 0.11357 0.66932 0.5812 0.0
C1839 C 0.17315 0.678 0.58607 0.0
C1840 C 0.08656 0.64851 0.58157 0.0
C1841 C 0.09094 0.6144 0.58228 0.0
C1842 C 0.1454 0.65607 0.58223 0.0
C1843 C 0.12304 0.60176 0.582 0.0
C1844 C 0.20318 0.66531 0.59104 0.0
C1845 C 0.187 0.73084 0.59534 0.0
N1846 N 0.14922 0.6227 0.58239 0.0
N1847 N 0.16699 0.71066 0.58772 0.0
H1848 H 0.19672 0.63008 0.15618 0.0
H1849 H 0.02459 0.54038 0.14765 0.0
H1850 H 0.10228 0.66882 0.1689 0.0
H1851 H 0.10614 0.53272 0.11772 0.0
H1852 H 0.06108 0.56816 0.16472 0.0
H1853 H 0.17046 0.57655 0.15141 0.0
C1854 C 0.17072 0.62697 0.1584 0.0
C1855 C 0.15132 0.65382 0.16259 0.0
C1856 C 0.07102 0.55926 0.15457 0.0
C1857 C 0.12166 0.59321 0.15757 0.0
C1858 C 0.05015 0.54376 0.14472 0.0
C1859 C 0.06159 0.53571 0.1308 0.0
C1860 C 0.10356 0.56626 0.15054 0.0
C1861 C 0.09556 0.53899 0.12809 0.0
C1862 C 0.15585 0.59655 0.15574 0.0
C1863 C 0.11785 0.64876 0.1654 0.0
N1864 N 0.11514 0.55474 0.13772 0.0
N1865 N 0.10396 0.61912 0.16268 0.0
H1866 H 0.08427 0.34803 0.91387 0.0
H1867 H 0.23303 0.35496 0.86825 0.0
H1868 H 0.12545 0.44245 0.90272 0.0
H1869 H 0.22048 0.27525 0.89881 0.0
H1870 H 0.20315 0.39078 0.88424 0.0
H1871 H 0.13862 0.32351 0.91214 0.0
C1872 C 0.105 0.36371 0.91132 0.0
C1873 C 0.10046 0.39708 0.90815 0.0
C1874 C 0.20775 0.36571 0.88769 0.0
C1875 C 0.1627 0.36908 0.90575 0.0
C1876 C 0.22515 0.3449 0.87851 0.0
C1877 C 0.22795 0.31108 0.88169 0.0
C1878 C 0.19217 0.35249 0.89988 0.0
C1879 C 0.21717 0.30047 0.89537 0.0
C1880 C 0.13614 0.34977 0.91045 0.0
C1881 C 0.12808 0.41646 0.90504 0.0
N1882 N 0.19862 0.32077 0.90372 0.0
N1883 N 0.15804 0.40193 0.90345 0.0
H1884 H 0.40594 0.48693 0.61919 0.0
H1885 H 0.41853 0.33662 0.6611 0.0
H1886 H 0.48796 0.47696 0.64871 0.0
H1887 H 0.32231 0.3804 0.65721 0.0
H1888 H 0.44327 0.39101 0.6594 0.0
H1889 H 0.37208 0.45617 0.63573 0.0
C1890 C 0.41689 0.47947 0.62933 0.0
C1891 C 0.45083 0.48313 0.63202 0.0
C1892 C 0.41669 0.38897 0.65935 0.0
C1893 C 0.41173 0.44647 0.65083 0.0
C1894 C 0.4026 0.35787 0.66019 0.0
C1895 C 0.36847 0.35417 0.6591 0.0
C1896 C 0.39656 0.41638 0.65674 0.0
C1897 C 0.34883 0.38241 0.65795 0.0
C1898 C 0.39721 0.46161 0.63883 0.0
C1899 C 0.46263 0.47289 0.6456 0.0
N1900 N 0.36324 0.41241 0.65632 0.0
N1901 N 0.4435 0.45376 0.65424 0.0
H1902 H 0.33707 0.75114 0.39539 0.0
H1903 H 0.39097 0.56762 0.41064 0.0
H1904 H 0.26851 0.6698 0.39383 0.0
H1905 H 0.45307 0.64962 0.39895 0.0
H1906 H 0.34434 0.60608 0.41325 0.0
H1907 H 0.37586 0.7164 0.40784 0.0
C1908 C 0.32942 0.72634 0.398 0.0
C1909 C 0.29998 0.71294 0.39258 0.0
C1910 C 0.3684 0.61552 0.41038 0.0
C1911 C 0.34555 0.67251 0.40636 0.0
C1912 C 0.39482 0.59366 0.40878 0.0
C1913 C 0.42559 0.60545 0.40422 0.0
C1914 C 0.37328 0.64923 0.40771 0.0
C1915 C 0.42956 0.63935 0.40212 0.0
C1916 C 0.35205 0.70627 0.40501 0.0
C1917 C 0.29183 0.68065 0.39684 0.0
N1918 N 0.40373 0.65995 0.40384 0.0
N1919 N 0.31506 0.66101 0.40296 0.0
H1920 H 0.0774 0.03614 0.11332 0.0
H1921 H 0.22296 0.16583 0.12547 0.0
H1922 H 0.12378 0.08881 0.07834 0.0
H1923 H 0.1522 0.14259 0.1587 0.0
H1924 H 0.19279 0.13046 0.10862 0.0
H1925 H 0.11051 0.06778 0.13064 0.0
C1926 C 0.09482 0.05409 0.10928 0.0
C1927 C 0.09784 0.0599 0.09436 0.0
C1928 C 0.18394 0.13299 0.11962 0.0
C1929 C 0.13577 0.09611 0.1141 0.0
C1930 C 0.20129 0.15296 0.12928 0.0
C1931 C 0.19008 0.15713 0.14353 0.0
C1932 C 0.15538 0.11662 0.12427 0.0
C1933 C 0.16152 0.14023 0.14779 0.0
C1934 C 0.1135 0.0723 0.11917 0.0
C1935 C 0.1205 0.08378 0.08974 0.0
N1936 N 0.14521 0.12062 0.13822 0.0
N1937 N 0.13867 0.10091 0.09955 0.0
H1938 H 0.12946 0.79205 0.35013 0.0
H1939 H 0.11836 0.95297 0.39956 0.0
H1940 H 0.20907 0.86147 0.3553 0.0
H1941 H 0.03582 0.88825 0.39156 0.0
H1942 H 0.15291 0.9171 0.38525 0.0
H1943 H 0.0959 0.82511 0.3664 0.0
C1944 C 0.13993 0.81435 0.35455 0.0
C1945 C 0.17231 0.82394 0.35117 0.0
C1946 C 0.12722 0.91074 0.38665 0.0
C1947 C 0.13381 0.8618 0.37019 0.0
C1948 C 0.10718 0.93133 0.39493 0.0
C1949 C 0.07335 0.92458 0.39662 0.0
C1950 C 0.11371 0.88283 0.38 0.0
C1951 C 0.0613 0.89532 0.39039 0.0
C1952 C 0.12072 0.83312 0.36399 0.0
C1953 C 0.18446 0.85284 0.35761 0.0
N1954 N 0.08134 0.87578 0.38228 0.0
N1955 N 0.16522 0.87071 0.36677 0.0
H1956 H 0.28345 0.88378 0.64092 0.0
H1957 H 0.44696 0.89965 0.59289 0.0
H1958 H 0.36483 0.81563 0.64211 0.0
H1959 H 0.37612 0.97842 0.59612 0.0
H1960 H 0.41433 0.86731 0.60971 0.0
H1961 H 0.31437 0.91779 0.62358 0.0
C1962 C 0.30776 0.87598 0.63758 0.0
C1963 C 0.32157 0.84685 0.64312 0.0
C1964 C 0.40577 0.89165 0.60675 0.0
C1965 C 0.35697 0.88549 0.62323 0.0
C1966 C 0.42433 0.9101 0.59699 0.0
C1967 C 0.4143 0.94188 0.59296 0.0
C1968 C 0.37669 0.90479 0.61259 0.0
C1969 C 0.38495 0.95416 0.59898 0.0
C1970 C 0.32543 0.89545 0.62772 0.0
C1971 C 0.35328 0.83807 0.63842 0.0
N1972 N 0.36713 0.93558 0.60847 0.0
N1973 N 0.36971 0.85717 0.62876 0.0
H1974 H 0.36518 0.19117 0.84272 0.0
H1975 H 0.37606 0.02964 0.89197 0.0
H1976 H 0.28014 0.13015 0.85046 0.0
H1977 H 0.44643 0.10907 0.893 0.0
H1978 H 0.34184 0.06226 0.87526 0.0
H1979 H 0.3968 0.15734 0.85941 0.0
C1980 C 0.35318 0.17043 0.84784 0.0
C1981 C 0.31995 0.16341 0.84509 0.0
C1982 C 0.3647 0.07251 0.87925 0.0
C1983 C 0.35621 0.12443 0.86446 0.0
C1984 C 0.38428 0.05388 0.88872 0.0
C1985 C 0.41408 0.06669 0.89401 0.0
C1986 C 0.37533 0.1039 0.87485 0.0
C1987 C 0.42347 0.09832 0.88945 0.0
C1988 C 0.37123 0.15123 0.85749 0.0
C1989 C 0.30565 0.13651 0.85232 0.0
N1990 N 0.40433 0.11564 0.88012 0.0
N1991 N 0.3239 0.11785 0.86163 0.0
H1992 H 0.87978 0.97284 0.8908 0.0
H1993 H 0.8621 0.80712 0.8444 0.0
H1994 H 0.94973 0.89294 0.89098 0.0
H1995 H 0.7837 0.87841 0.84751 0.0
H1996 H 0.89533 0.84069 0.86046 0.0
H1997 H 0.84485 0.94089 0.87422 0.0
C1998 C 0.88779 0.94865 0.8874 0.0
C1999 C 0.91772 0.93557 0.89242 0.0
C2000 C 0.87089 0.84914 0.85764 0.0
C2001 C 0.87798 0.89896 0.87343 0.0
C2002 C 0.85191 0.83003 0.84831 0.0
C2003 C 0.81997 0.83991 0.84447 0.0
C2004 C 0.8581 0.87861 0.86326 0.0
C2005 C 0.80806 0.86966 0.85024 0.0
C2006 C 0.8678 0.93039 0.87798 0.0
C2007 C 0.92671 0.90396 0.88768 0.0
N2008 N 0.82713 0.888 0.85933 0.0
N2009 N 0.90706 0.88692 0.87847 0.0
H2010 H 0.87866 0.02072 0.59404 0.0
H2011 H 0.8674 0.1915 0.6369 0.0
H2012 H 0.94073 0.10481 0.58586 0.0
H2013 H 0.78861 0.12042 0.6382 0.0
H2014 H 0.8967 0.15688 0.61978 0.0
H2015 H 0.84727 0.05376 0.61161 0.0
C2016 C 0.88569 0.04606 0.59592 0.0
C2017 C 0.91231 0.06001 0.58837 0.0
C2018 C 0.87303 0.1487 0.62379 0.0
C2019 C 0.87669 0.09782 0.60848 0.0
C2020 C 0.85634 0.16839 0.63372 0.0
C2021 C 0.82551 0.15881 0.63915 0.0
C2022 C 0.85909 0.11885 0.6192 0.0
C2023 C 0.81224 0.12882 0.63427 0.0
C2024 C 0.86768 0.06492 0.60589 0.0
C2025 C 0.92017 0.09305 0.5912 0.0
N2026 N 0.82916 0.1098 0.62462 0.0
N2027 N 0.90262 0.11065 0.60102 0.0
H2028 H 0.62438 0.02912 0.39093 0.0
H2029 H 0.6377 0.19804 0.3466 0.0
H2030 H 0.55463 0.10885 0.394 0.0
H2031 H 0.71817 0.12902 0.34907 0.0
H2032 H 0.60581 0.1632 0.36276 0.0
H2033 H 0.65805 0.06291 0.37456 0.0
C2034 C 0.61612 0.05366 0.38818 0.0
C2035 C 0.58663 0.06615 0.39394 0.0
C2036 C 0.63044 0.15555 0.3598 0.0
C2037 C 0.62498 0.10489 0.37521 0.0
C2038 C 0.64863 0.17538 0.35043 0.0
C2039 C 0.68069 0.16642 0.34635 0.0
C2040 C 0.64414 0.12626 0.36516 0.0
C2041 C 0.69365 0.13699 0.35198 0.0
C2042 C 0.63543 0.07298 0.37889 0.0
C2043 C 0.57732 0.09826 0.39006 0.0
N2044 N 0.67529 0.11788 0.36105 0.0
N2045 N 0.59629 0.11635 0.38093 0.0
H2046 H 0.65478 0.82315 0.14621 0.0
H2047 H 0.64331 0.98839 0.0997 0.0
H2048 H 0.73776 0.88875 0.1426 0.0
H2049 H 0.5836 0.90253 0.09187 0.0
H2050 H 0.67524 0.95666 0.11763 0.0
H2051 H 0.625 0.85651 0.12862 0.0
C2052 C 0.66666 0.84478 0.1418 0.0
C2053 C 0.69878 0.85325 0.14594 0.0
C2054 C 0.65522 0.94484 0.11191 0.0
C2055 C 0.6647 0.89171 0.12566 0.0
C2056 C 0.63695 0.96294 0.10176 0.0
C2057 C 0.61092 0.94801 0.0942 0.0
C2058 C 0.64688 0.91186 0.11471 0.0
C2059 C 0.60373 0.91492 0.09725 0.0
C2060 C 0.64972 0.8637 0.13165 0.0
C2061 C 0.7131 0.8813 0.13964 0.0
N2062 N 0.6214 0.89811 0.1073 0.0
N2063 N 0.69588 0.89971 0.12987 0.0
H2064 H 0.56916 0.61925 0.59247 0.0
H2065 H 0.72524 0.62857 0.64504 0.0
H2066 H 0.62881 0.53397 0.60163 0.0
H2067 H 0.6487 0.702 0.64319 0.0
H2068 H 0.69353 0.59443 0.62805 0.0
H2069 H 0.60145 0.65094 0.6097 0.0
C2070 C 0.58929 0.6072 0.59801 0.0
C2071 C 0.59639 0.57388 0.59548 0.0
C2072 C 0.68367 0.61795 0.63146 0.0
C2073 C 0.63356 0.61023 0.61549 0.0
C2074 C 0.70181 0.6375 0.6411 0.0
C2075 C 0.68961 0.6682 0.64564 0.0
C2076 C 0.65334 0.6294 0.62615 0.0
C2077 C 0.65895 0.67839 0.64022 0.0
C2078 C 0.60759 0.6253 0.60798 0.0
C2079 C 0.62241 0.55954 0.60328 0.0
N2080 N 0.64208 0.6592 0.63075 0.0
N2081 N 0.6402 0.57784 0.61289 0.0
H2082 H 0.72377 0.37934 0.84517 0.0
H2083 H 0.5573 0.39229 0.89135 0.0
H2084 H 0.64491 0.30826 0.84401 0.0
H2085 H 0.62679 0.47241 0.88881 0.0
H2086 H 0.59147 0.36048 0.875 0.0
H2087 H 0.69092 0.41312 0.86186 0.0
C2088 C 0.69962 0.37081 0.84839 0.0
C2089 C 0.68713 0.34086 0.84306 0.0
C2090 C 0.59942 0.38499 0.878 0.0
C2091 C 0.64945 0.3794 0.86219 0.0
C2092 C 0.57996 0.40318 0.88751 0.0
C2093 C 0.58918 0.43515 0.89164 0.0
C2094 C 0.62861 0.39858 0.87248 0.0
C2095 C 0.61859 0.44796 0.8859 0.0
C2096 C 0.68084 0.39018 0.85787 0.0
C2097 C 0.65551 0.33127 0.84756 0.0
N2098 N 0.63731 0.42962 0.87665 0.0
N2099 N 0.63796 0.35034 0.85686 0.0
H2100 H 0.94557 0.39813 0.09502 0.0
H2101 H 0.78315 0.38769 0.14371 0.0
H2102 H 0.88167 0.4818 0.10089 0.0
H2103 H 0.86266 0.31744 0.14528 0.0
H2104 H 0.81588 0.42155 0.12696 0.0
H2105 H 0.91238 0.36705 0.11216 0.0
C2106 C 0.92435 0.40993 0.09983 0.0
C2107 C 0.91629 0.44261 0.0964 0.0
C2108 C 0.82615 0.39881 0.13107 0.0
C2109 C 0.87804 0.40699 0.11628 0.0
C2110 C 0.80745 0.37942 0.14058 0.0
C2111 C 0.82017 0.34969 0.146 0.0
C2112 C 0.8576 0.38814 0.1268 0.0
C2113 C 0.85192 0.34031 0.14162 0.0
C2114 C 0.90551 0.39221 0.10974 0.0
C2115 C 0.88883 0.45673 0.10327 0.0
N2116 N 0.86934 0.3593 0.13225 0.0
N2117 N 0.87053 0.43878 0.11283 0.0
H2118 H 0.78195 0.63297 0.34685 0.0
H2119 H 0.94858 0.62211 0.39272 0.0
H2120 H 0.86087 0.70379 0.34433 0.0
H2121 H 0.88027 0.54107 0.38988 0.0
H2122 H 0.91447 0.65336 0.37604 0.0
H2123 H 0.81553 0.59969 0.36338 0.0
C2124 C 0.80631 0.6415 0.34973 0.0
C2125 C 0.81857 0.67126 0.34413 0.0
C2126 C 0.90683 0.62876 0.37904 0.0
C2127 C 0.85705 0.63337 0.36308 0.0
C2128 C 0.9262 0.61095 0.38872 0.0
C2129 C 0.91722 0.57891 0.39283 0.0
C2130 C 0.87799 0.61466 0.37342 0.0
C2131 C 0.88822 0.5656 0.38695 0.0
C2132 C 0.8255 0.62243 0.35912 0.0
C2133 C 0.85046 0.68091 0.34816 0.0
N2134 N 0.86955 0.58357 0.37758 0.0
N2135 N 0.86843 0.66216 0.35742 0.0
H2136 H 0.35992 0.3112 0.34301 0.0
H2137 H 0.38135 0.472 0.3921 0.0
H2138 H 0.28002 0.3792 0.35007 0.0
H2139 H 0.44846 0.38973 0.39186 0.0
H2140 H 0.34492 0.44143 0.37561 0.0
H2141 H 0.39392 0.34287 0.35957 0.0
C2142 C 0.34957 0.33302 0.34794 0.0
C2143 C 0.31706 0.34264 0.34503 0.0
C2144 C 0.36756 0.43009 0.37927 0.0
C2145 C 0.35606 0.37912 0.36429 0.0
C2146 C 0.3884 0.44756 0.38862 0.0
C2147 C 0.41798 0.4334 0.39348 0.0
C2148 C 0.37661 0.39844 0.37458 0.0
C2149 C 0.42576 0.40154 0.38866 0.0
C2150 C 0.36897 0.35099 0.35753 0.0
C2151 C 0.30488 0.37083 0.35205 0.0
N2152 N 0.40537 0.38533 0.37947 0.0
N2153 N 0.32444 0.38821 0.36131 0.0
H2154 H 0.44212 0.6124 0.09529 0.0
H2155 H 0.27521 0.62743 0.14101 0.0
H2156 H 0.3701 0.53442 0.09618 0.0
H2157 H 0.36055 0.68882 0.14739 0.0
H2158 H 0.30625 0.59544 0.12294 0.0
H2159 H 0.40912 0.64328 0.11257 0.0
C2160 C 0.41917 0.60184 0.099 0.0
C2161 C 0.40887 0.57073 0.09417 0.0
C2162 C 0.31813 0.61587 0.12835 0.0
C2163 C 0.37081 0.60613 0.11424 0.0
C2164 C 0.30039 0.63421 0.1386 0.0
C2165 C 0.31534 0.66073 0.14583 0.0
C2166 C 0.35086 0.62446 0.12514 0.0
C2167 C 0.34812 0.66831 0.14232 0.0
C2168 C 0.40041 0.61944 0.109 0.0
C2169 C 0.3791 0.5582 0.09966 0.0
N2170 N 0.36462 0.65043 0.13223 0.0
N2171 N 0.36104 0.57597 0.10936 0.0
H2172 H 0.21967 0.62346 0.8448 0.0
H2173 H 0.06434 0.60859 0.89753 0.0
H2174 H 0.14047 0.69401 0.84678 0.0
H2175 H 0.12524 0.5247 0.88754 0.0
H2176 H 0.09582 0.64148 0.88043 0.0
H2177 H 0.18902 0.58789 0.86166 0.0
C2178 C 0.19586 0.63142 0.84872 0.0
C2179 C 0.18258 0.66172 0.84427 0.0
C2180 C 0.1024 0.61588 0.88194 0.0
C2181 C 0.14762 0.6214 0.86361 0.0
C2182 C 0.08457 0.59712 0.89183 0.0
C2183 C 0.09225 0.56383 0.89407 0.0
C2184 C 0.12848 0.60153 0.87422 0.0
C2185 C 0.11839 0.55022 0.88609 0.0
C2186 C 0.17836 0.61108 0.85829 0.0
C2187 C 0.15155 0.67072 0.84967 0.0
N2188 N 0.13572 0.56916 0.87656 0.0
N2189 N 0.13533 0.65082 0.85907 0.0
H2190 H 0.23898 0.34569 0.6273 0.0
H2191 H 0.0883 0.4702 0.61605 0.0
H2192 H 0.16876 0.3671 0.66098 0.0
H2193 H 0.13675 0.42017 0.58088 0.0
H2194 H 0.12359 0.44048 0.63324 0.0
H2195 H 0.2078 0.38093 0.61075 0.0
C2196 C 0.21726 0.35818 0.63128 0.0
C2197 C 0.20644 0.35344 0.64556 0.0
C2198 C 0.12658 0.43617 0.62175 0.0
C2199 C 0.17053 0.39373 0.62663 0.0
C2200 C 0.10665 0.45329 0.61195 0.0
C2201 C 0.10956 0.44754 0.59702 0.0
C2202 C 0.14995 0.41355 0.61657 0.0
C2203 C 0.13349 0.42505 0.5923 0.0
C2204 C 0.19932 0.37807 0.62179 0.0
C2205 C 0.17778 0.36988 0.65004 0.0
N2206 N 0.15279 0.40895 0.60202 0.0
N2207 N 0.16085 0.38933 0.64063 0.0
H2208 H 0.2797 0.19805 0.21077 0.0
H2209 H 0.21849 0.30374 0.27897 0.0
H2210 H 0.25595 0.30157 0.20903 0.0
H2211 H 0.24097 0.19998 0.28108 0.0
H2212 H 0.23193 0.30319 0.25319 0.0
H2213 H 0.26621 0.19806 0.23663 0.0
C2214 C 0.27182 0.22077 0.21583 0.0
C2215 C 0.26889 0.24981 0.20773 0.0
C2216 C 0.23385 0.28051 0.25929 0.0
C2217 C 0.25327 0.25001 0.2372 0.0
C2218 C 0.22608 0.28082 0.274 0.0
C2219 C 0.22865 0.2519 0.28219 0.0
C2220 C 0.24428 0.25107 0.25273 0.0
C2221 C 0.23868 0.22289 0.27519 0.0
C2222 C 0.26402 0.22077 0.23056 0.0
C2223 C 0.25849 0.27855 0.21482 0.0
N2224 N 0.2462 0.22323 0.26088 0.0
N2225 N 0.25103 0.2779 0.22912 0.0
H2226 H 0.95438 0.9756 0.52112 0.0
H2227 H 0.07144 0.02799 0.45504 0.0
H2228 H 0.06019 0.98143 0.52439 0.0
H2229 H 0.9654 0.03464 0.45421 0.0
H2230 H 0.06829 0.00872 0.48017 0.0
H2231 H 0.95825 0.9937 0.4959 0.0
C2232 C 0.97841 0.98038 0.5165 0.0
C2233 C 0.00696 0.97713 0.52487 0.0
C2234 C 0.04575 0.01455 0.47447 0.0
C2235 C 0.01163 0.9981 0.49612 0.0
C2236 C 0.04758 0.02568 0.46017 0.0
C2237 C 0.01868 0.0329 0.45251 0.0
C2238 C 0.01481 0.0105 0.48109 0.0
C2239 C 0.98837 0.0293 0.45966 0.0
C2240 C 0.98063 0.99091 0.50214 0.0
C2241 C 0.0375 0.98379 0.51835 0.0
N2242 N 0.98724 0.01824 0.47349 0.0
N2243 N 0.03902 0.99402 0.50438 0.0
H2244 H 0.2825 0.70501 0.77954 0.0
H2245 H 0.22381 0.80584 0.70953 0.0
H2246 H 0.25188 0.80676 0.78055 0.0
H2247 H 0.25478 0.7042 0.70852 0.0
H2248 H 0.23381 0.8067 0.73564 0.0
H2249 H 0.27291 0.70431 0.7534 0.0
C2250 C 0.27389 0.72721 0.77426 0.0
C2251 C 0.26793 0.75595 0.78223 0.0
C2252 C 0.23838 0.78421 0.72969 0.0
C2253 C 0.25677 0.75533 0.7524 0.0
C2254 C 0.2326 0.78371 0.7148 0.0
C2255 C 0.2385 0.75494 0.70685 0.0
C2256 C 0.25011 0.75573 0.73664 0.0
C2257 C 0.24993 0.72696 0.71422 0.0
C2258 C 0.26835 0.7268 0.75935 0.0
C2259 C 0.25675 0.78402 0.77484 0.0
N2260 N 0.25539 0.72807 0.72869 0.0
N2261 N 0.25149 0.78298 0.76036 0.0
H2262 H 0.56022 0.994 0.95632 0.0
H2263 H 0.45897 0.00864 0.03008 0.0
H2264 H 0.45661 0.97167 0.95973 0.0
H2265 H 0.56128 0.03568 0.02586 0.0
H2266 H 0.45764 0.99468 0.00446 0.0
H2267 H 0.56115 0.00806 0.98188 0.0
C2268 C 0.53761 0.99191 0.96247 0.0
C2269 C 0.50822 0.9817 0.95586 0.0
C2270 C 0.48037 1.00375 0.00911 0.0
C2271 C 0.50917 0.998 0.98523 0.0
C2272 C 0.48118 0.01178 0.02375 0.0
C2273 C 0.51036 0.02328 0.03013 0.0
C2274 C 0.50897 0.0071 0.00075 0.0
C2275 C 0.53828 0.02694 0.02138 0.0
C2276 C 0.53819 1.00005 0.97708 0.0
C2277 C 0.4798 0.97939 0.9644 0.0
N2278 N 0.53692 0.01875 0.00713 0.0
N2279 N 0.48096 0.98757 0.97866 0.0
H2280 H 0.25407 0.68657 0.28651 0.0
H2281 H 0.25013 0.79794 0.21524 0.0
H2282 H 0.27653 0.79044 0.28595 0.0
H2283 H 0.22375 0.69499 0.21548 0.0
H2284 H 0.26045 0.79515 0.24112 0.0
H2285 H 0.24393 0.68863 0.2605 0.0
C2286 C 0.25699 0.70981 0.28091 0.0
C2287 C 0.26613 0.73842 0.28842 0.0
C2288 C 0.25237 0.77314 0.23555 0.0
C2289 C 0.25444 0.74091 0.25865 0.0
C2290 C 0.24644 0.77469 0.22075 0.0
C2291 C 0.23609 0.74661 0.21318 0.0
C2292 C 0.24801 0.74325 0.24291 0.0
C2293 C 0.23168 0.71722 0.22091 0.0
C2294 C 0.25112 0.71095 0.26606 0.0
C2295 C 0.26951 0.7678 0.28061 0.0
N2296 N 0.23773 0.71629 0.23537 0.0
N2297 N 0.26362 0.76829 0.26615 0.0
H2298 H 0.44898 0.03645 0.52742 0.0
H2299 H 0.55315 0.97236 0.45935 0.0
H2300 H 0.55388 0.01962 0.52843 0.0
H2301 H 0.44806 0.98808 0.45865 0.0
H2302 H 0.55402 0.98935 0.48475 0.0
H2303 H 0.44831 0.01957 0.50203 0.0
C2304 C 0.47189 0.02943 0.52228 0.0
C2305 C 0.50151 0.02938 0.53006 0.0
C2306 C 0.53076 0.98898 0.47904 0.0
C2307 C 0.50092 0.00979 0.50108 0.0
C2308 C 0.53025 0.97916 0.46456 0.0
C2309 C 0.50051 0.97886 0.45687 0.0
C2310 C 0.50133 0.99856 0.48584 0.0
C2311 C 0.47158 0.98801 0.46414 0.0
C2312 C 0.47149 0.01966 0.5078 0.0
C2313 C 0.53046 0.01996 0.52286 0.0
N2314 N 0.47273 0.99756 0.4782 0.0
N2315 N 0.52942 0.01047 0.5088 0.0
H2316 H 0.29391 0.30634 0.71127 0.0
H2317 H 0.22646 0.20332 0.77908 0.0
H2318 H 0.26841 0.20327 0.70913 0.0
H2319 H 0.24847 0.30727 0.78018 0.0
H2320 H 0.24113 0.20252 0.75335 0.0
H2321 H 0.27786 0.30678 0.73675 0.0
C2322 C 0.28512 0.28377 0.71618 0.0
C2323 C 0.28246 0.25476 0.70808 0.0
C2324 C 0.2426 0.2255 0.75924 0.0
C2325 C 0.26383 0.25507 0.73716 0.0
C2326 C 0.2341 0.22597 0.77389 0.0
C2327 C 0.2364 0.25535 0.78177 0.0
C2328 C 0.25345 0.25461 0.75251 0.0
C2329 C 0.24651 0.284 0.77454 0.0
C2330 C 0.27582 0.28404 0.73071 0.0
C2331 C 0.27081 0.22623 0.71497 0.0
N2332 N 0.25477 0.28288 0.76035 0.0
N2333 N 0.26188 0.22711 0.72911 0.0
H2334 H 0.95303 0.9956 0.02782 0.0
H2335 H 0.06086 0.00806 0.95582 0.0
H2336 H 0.05642 0.97135 0.02606 0.0
H2337 H 0.95719 0.03106 0.95762 0.0
H2338 H 0.05983 0.99502 0.98152 0.0
H2339 H 0.95417 0.0083 0.00212 0.0
C2340 C 0.97602 0.99283 0.02201 0.0
C2341 C 0.00475 0.98248 0.02911 0.0
C2342 C 0.0373 1.00296 0.97632 0.0
C2343 C 0.00618 0.99719 -0.00039 0.0
C2344 C 0.03785 0.0105 0.96164 0.0
C2345 C 0.009 0.02061 0.95456 0.0
C2346 C 0.0077 0.00552 0.98403 0.0
C2347 C 0.97998 0.02337 0.96266 0.0
C2348 C 0.97661 1.00015 0.00731 0.0
C2349 C 0.03372 0.97922 0.021 0.0
N2350 N 0.98005 0.01578 0.97698 0.0
N2351 N 0.03372 0.98668 0.00666 0.0
H2352 H 0.76557 0.80691 0.71087 0.0
H2353 H 0.73867 0.6976 0.78179 0.0
H2354 H 0.78132 0.70184 0.71203 0.0
H2355 H 0.72259 0.80258 0.78014 0.0
H2356 H 0.75384 0.6984 0.75625 0.0
H2357 H 0.75017 0.80559 0.7363 0.0
C2358 C 0.76592 0.78352 0.71649 0.0
C2359 C 0.77469 0.7544 0.7093 0.0
C2360 C 0.74691 0.72124 0.76146 0.0
C2361 C 0.75685 0.75273 0.73848 0.0
C2362 C 0.73815 0.72082 0.77604 0.0
C2363 C 0.7294 0.75011 0.78312 0.0
C2364 C 0.74696 0.75118 0.75389 0.0
C2365 C 0.72916 0.77943 0.77512 0.0
C2366 C 0.75704 0.7828 0.73103 0.0
C2367 C 0.77475 0.72487 0.71716 0.0
N2368 N 0.73792 0.77923 0.76094 0.0
N2369 N 0.76586 0.72477 0.73135 0.0
H2370 H 0.71958 0.30815 0.21056 0.0
H2371 H 0.77648 0.20239 0.27942 0.0
H2372 H 0.74373 0.20473 0.20876 0.0
H2373 H 0.75335 0.30606 0.28101 0.0
H2374 H 0.76413 0.20251 0.2535 0.0
H2375 H 0.73071 0.3076 0.23657 0.0
C2376 C 0.72705 0.28531 0.21565 0.0
C2377 C 0.73082 0.25648 0.20749 0.0
C2378 C 0.7618 0.22523 0.25954 0.0
C2379 C 0.74376 0.25566 0.23717 0.0
C2380 C 0.76892 0.22517 0.27432 0.0
C2381 C 0.76593 0.25423 0.28238 0.0
C2382 C 0.75163 0.25457 0.25281 0.0
C2383 C 0.75597 0.28305 0.27522 0.0
C2384 C 0.73349 0.28501 0.23048 0.0
C2385 C 0.74059 0.22757 0.21462 0.0
N2386 N 0.74916 0.28248 0.26086 0.0
N2387 N 0.7468 0.22792 0.22904 0.0
H2388 H 0.73201 0.19807 0.70756 0.0
H2389 H 0.78805 0.3034 0.77671 0.0
H2390 H 0.76131 0.30017 0.70587 0.0
H2391 H 0.76221 0.20041 0.7787 0.0
H2392 H 0.77777 0.30263 0.75066 0.0
H2393 H 0.74197 0.19833 0.73373 0.0
C2394 C 0.74045 0.22051 0.71269 0.0
C2395 C 0.7459 0.24909 0.70453 0.0
C2396 C 0.77439 0.28018 0.75679 0.0
C2397 C 0.75737 0.2496 0.73435 0.0
C2398 C 0.7803 0.28063 0.77166 0.0
C2399 C 0.77599 0.25196 0.77988 0.0
C2400 C 0.76405 0.25086 0.7501 0.0
C2401 C 0.76586 0.22311 0.77278 0.0
C2402 C 0.74618 0.22065 0.7276 0.0
C2403 C 0.75685 0.27751 0.71171 0.0
N2404 N 0.7602 0.22331 0.7583 0.0
N2405 N 0.76223 0.27702 0.72618 0.0
H2406 H 0.76311 0.70823 0.21207 0.0
H2407 H 0.73673 0.81596 0.28342 0.0
H2408 H 0.78372 0.81238 0.21425 0.0
H2409 H 0.71865 0.71135 0.28114 0.0
H2410 H 0.75265 0.81557 0.25798 0.0
H2411 H 0.74646 0.70922 0.23734 0.0
C2412 C 0.76427 0.73134 0.21789 0.0
C2413 C 0.77476 0.76032 0.21104 0.0
C2414 C 0.7451 0.79272 0.26303 0.0
C2415 C 0.75548 0.76162 0.24002 0.0
C2416 C 0.73589 0.79292 0.27754 0.0
C2417 C 0.72644 0.7636 0.28442 0.0
C2418 C 0.74488 0.76298 0.25532 0.0
C2419 C 0.72578 0.73451 0.27627 0.0
C2420 C 0.75467 0.73187 0.23234 0.0
C2421 C 0.77583 0.78948 0.21914 0.0
N2422 N 0.73501 0.73493 0.26215 0.0
N2423 N 0.76619 0.78941 0.23322 0.0
H2424 H 0.5481 0.49773 0.02829 0.0
H2425 H 0.44453 0.51119 0.95508 0.0
H2426 H 0.444 0.47732 0.02556 0.0
H2427 H 0.54865 0.53155 0.95771 0.0
H2428 H 0.44382 0.49956 0.9809 0.0
H2429 H 0.5487 0.51036 0.00255 0.0
C2430 C 0.52532 0.49582 0.02227 0.0
C2431 C 0.4959 0.48646 0.02911 0.0
C2432 C 0.46683 0.50663 0.97587 0.0
C2433 C 0.49648 0.50106 -0.00046 0.0
C2434 C 0.46729 0.51333 0.9611 0.0
C2435 C 0.49676 0.52228 0.9542 0.0
C2436 C 0.49607 0.50881 0.98387 0.0
C2437 C 0.5254 0.52474 0.96259 0.0
C2438 C 0.52572 0.50311 0.00755 0.0
C2439 C 0.46722 0.4844 0.02073 0.0
N2440 N 0.52435 0.51794 0.97699 0.0
N2441 N 0.46823 0.49169 0.00637 0.0
H2442 H 0.06236 0.53656 0.52797 0.0
H2443 H 0.95942 0.47652 0.45884 0.0
H2444 H 0.96292 0.49923 0.52981 0.0
H2445 H 0.06042 0.50924 0.45663 0.0
H2446 H 0.96023 0.48552 0.48497 0.0
H2447 H 0.06215 0.52792 0.5017 0.0
C2448 C 0.04053 0.52663 0.52286 0.0
C2449 C 0.01268 0.51853 0.53107 0.0
C2450 C 0.98225 0.49069 0.47877 0.0
C2451 C 0.01223 0.50858 0.50118 0.0
C2452 C 0.98177 0.48552 0.46386 0.0
C2453 C 0.00986 0.49215 0.45557 0.0
C2454 C 0.011 0.50262 0.48541 0.0
C2455 C 0.03818 0.5038 0.46262 0.0
C2456 C 0.04041 0.52165 0.5079 0.0
C2457 C 0.98501 0.50574 0.52392 0.0
N2458 N 0.03802 0.50871 0.47713 0.0
N2459 N 0.98551 0.50116 0.50941 0.0
H2460 H 0.05357 0.46771 0.96026 0.0
H2461 H 0.95014 0.53279 0.02838 0.0
H2462 H 0.94983 0.49048 0.95858 0.0
H2463 H 0.05424 0.51152 0.02939 0.0
H2464 H 0.94916 0.51731 0.00275 0.0
H2465 H 0.05387 0.4825 0.98589 0.0
C2466 C 0.03084 0.47558 0.96531 0.0
C2467 C 1.00169 0.47798 0.95729 0.0
C2468 C 0.97221 0.51613 0.00861 0.0
C2469 C 1.00183 0.49519 0.98651 0.0
C2470 C 0.97277 0.52509 0.02319 0.0
C2471 C 1.00226 0.52336 0.03101 0.0
C2472 C 1.00135 0.50542 0.00187 0.0
C2473 C 0.03089 0.51311 0.0238 0.0
C2474 C 0.03102 0.48416 0.97992 0.0
C2475 C 0.97292 0.48839 0.96435 0.0
N2476 N 0.02969 0.50447 0.00966 0.0
N2477 N 0.97374 0.49671 0.97856 0.0
H2478 H 0.46093 0.53228 0.45793 0.0
H2479 H 0.55824 0.47356 0.52887 0.0
H2480 H 0.56243 0.5008 0.45766 0.0
H2481 H 0.45665 0.50474 0.52876 0.0
H2482 H 0.56035 0.48277 0.50269 0.0
H2483 H 0.45902 0.5224 0.48402 0.0
C2484 C 0.48282 0.52341 0.46336 0.0
C2485 C 0.51184 0.51732 0.45562 0.0
C2486 C 0.5376 0.48752 0.50841 0.0
C2487 C 0.50986 0.50582 0.48541 0.0
C2488 C 0.53638 0.48218 0.52334 0.0
C2489 C 0.50728 0.48847 0.531 0.0
C2490 C 0.5095 0.49921 0.50116 0.0
C2491 C 0.47967 0.49966 0.52331 0.0
C2492 C 0.48173 0.51769 0.47824 0.0
C2493 C 0.53949 0.50579 0.4632 0.0
N2494 N 0.48149 0.50473 0.50883 0.0
N2495 N 0.53781 0.50038 0.47766 0.0
loop_
_geom_bond_atom_site_label_1
_geom_bond_atom_site_label_2
_geom_bond_distance
_geom_bond_site_symmetry_2
_ccdc_geom_bond_type
C0 C1 1.351 . S
C0 N3 1.368 . S
C0 H5 0.931 . S
C1 C0 1.351 . S
C1 N2 1.373 . S
C1 H29 0.930 . S
N2 C1 1.373 . S
N2 C4 1.340 . S
N3 C0 1.368 . S
N3 C4 1.321 . S
N3 Co6 2.135 . S
C4 N2 1.340 . S
C4 N3 1.321 . S
C4 H28 0.930 . S
H5 C0 0.931 . S
Co6 N3 2.135 . S
Co6 N9 2.121 . S
Co6 O14 2.055 . S
Co6 O17 2.039 . S
Co6 N20 2.140 . S
C7 O8 1.227 . S
C7 O17 1.265 . S
O8 C7 1.227 . S
N9 Co6 2.121 . S
N9 C11 1.375 . S
N9 C12 1.313 . S
C10 C11 1.338 . S
C10 N13 1.377 . S
C10 H30 0.930 . S
C11 N9 1.375 . S
C11 C10 1.338 . S
C11 H15 0.931 . S
C12 N9 1.313 . S
C12 N13 1.344 . S
C12 H16 0.930 . S
N13 C10 1.377 . S
N13 C12 1.344 . S
O14 Co6 2.055 . S
O14 C18 1.253 . S
H15 C11 0.931 . S
H16 C12 0.930 . S
O17 Co6 2.039 . S
O17 C7 1.265 . S
C18 O14 1.253 . S
C18 O19 1.227 . S
O19 C18 1.227 . S
N20 Co6 2.140 . S
N20 C23 1.346 . S
N20 C24 1.345 . S
C21 C22 1.387 . S
C21 C25 1.391 . S
C22 C21 1.387 . S
C22 C23 1.369 . S
C22 H31 0.929 . S
C23 N20 1.346 . S
C23 C22 1.369 . S
C23 H26 0.928 . S
C24 N20 1.345 . S
C24 C25 1.371 . S
C24 H27 0.931 . S
C25 C21 1.391 . S
C25 C24 1.371 . S
C25 H32 0.930 . S
H26 C23 0.928 . S
H27 C24 0.931 . S
H28 C4 0.930 . S
H29 C1 0.930 . S
H30 C10 0.930 . S
H31 C22 0.929 . S
H32 C25 0.930 . S
C33 C34 1.351 . S
C33 N36 1.368 1_565 S
C33 H38 0.931 . S
C34 C33 1.351 . S
C34 N35 1.373 . S
C34 H62 0.930 . S
N35 C34 1.373 . S
N35 C37 1.340 . S
N36 C33 1.368 1_545 S
N36 C37 1.321 1_545 S
N36 Co39 2.135 . S
C37 N35 1.340 . S
C37 N36 1.321 1_565 S
C37 H61 0.930 1_565 S
H38 C33 0.931 . S
Co39 N36 2.135 . S
Co39 N42 2.121 . S
Co39 O47 2.055 . S
Co39 O50 2.039 . S
Co39 N53 2.140 1_455 S
C40 O41 1.227 . S
C40 O50 1.265 . S
O41 C40 1.227 . S
N42 Co39 2.121 . S
N42 C44 1.375 . S
N42 C45 1.313 . S
C43 C44 1.338 . S
C43 N46 1.377 . S
C43 H63 0.930 . S
C44 N42 1.375 . S
C44 C43 1.338 . S
C44 H48 0.931 . S
C45 N42 1.313 . S
C45 N46 1.344 . S
C45 H49 0.930 . S
N46 C43 1.377 . S
N46 C45 1.344 . S
O47 Co39 2.055 . S
O47 C51 1.253 . S
H48 C44 0.931 . S
H49 C45 0.930 . S
O50 Co39 2.039 . S
O50 C40 1.265 . S
C51 O47 1.253 . S
C51 O52 1.210 1_455 S
O52 C51 1.210 1_655 S
N53 Co39 2.140 1_655 S
N53 C56 1.346 . S
N53 C57 1.345 . S
C54 C55 1.387 . S
C54 C58 1.391 . S
C55 C54 1.387 . S
C55 C56 1.369 . S
C55 H64 0.929 . S
C56 N53 1.346 . S
C56 C55 1.369 . S
C56 H59 0.928 1_655 S
C57 N53 1.345 . S
C57 C58 1.371 . S
C57 H60 0.931 . S
C58 C54 1.391 . S
C58 C57 1.371 . S
C58 H65 0.930 . S
H59 C56 0.928 1_455 S
H60 C57 0.931 . S
H61 C37 0.930 1_545 S
H62 C34 0.930 . S
H63 C43 0.930 . S
H64 C55 0.929 . S
H65 C58 0.930 . S
C66 C67 1.351 . S
C66 N69 1.368 . S
C66 H71 0.931 . S
C67 C66 1.351 . S
C67 N68 1.373 . S
C67 H95 0.930 . S
N68 C67 1.373 . S
N68 C70 1.340 . S
N69 C66 1.368 . S
N69 C70 1.321 . S
N69 Co72 2.135 . S
C70 N68 1.340 . S
C70 N69 1.321 . S
C70 H94 0.930 . S
H71 C66 0.931 . S
Co72 N69 2.135 . S
Co72 N75 2.121 . S
Co72 O80 2.055 . S
Co72 O83 2.039 . S
Co72 N86 2.140 . S
C73 O74 1.227 . S
C73 O83 1.265 . S
O74 C73 1.227 . S
N75 Co72 2.121 . S
N75 C77 1.375 . S
N75 C78 1.313 . S
C76 C77 1.338 . S
C76 N79 1.377 . S
C76 H96 0.930 . S
C77 N75 1.375 . S
C77 C76 1.338 . S
C77 H81 0.931 . S
C78 N75 1.313 . S
C78 N79 1.344 . S
C78 H82 0.930 . S
N79 C76 1.377 . S
N79 C78 1.344 . S
O80 Co72 2.055 . S
O80 C84 1.253 . S
H81 C77 0.931 . S
H82 C78 0.930 . S
O83 Co72 2.039 . S
O83 C73 1.265 . S
C84 O80 1.253 . S
C84 O85 1.227 . S
O85 C84 1.227 . S
N86 Co72 2.140 . S
N86 C89 1.346 . S
N86 C90 1.345 . S
C87 C88 1.387 . S
C87 C91 1.391 . S
C88 C87 1.387 . S
C88 C89 1.369 . S
C88 H97 0.929 . S
C89 N86 1.346 . S
C89 C88 1.369 . S
C89 H92 0.928 . S
C90 N86 1.345 . S
C90 C91 1.371 . S
C90 H93 0.931 . S
C91 C87 1.391 . S
C91 C90 1.371 . S
C91 H98 0.930 . S
H92 C89 0.928 . S
H93 C90 0.931 . S
H94 C70 0.930 . S
H95 C67 0.930 . S
H96 C76 0.930 . S
H97 C88 0.929 . S
H98 C91 0.930 . S
C99 C100 1.351 . S
C99 N102 1.368 1_545 S
C99 H104 0.931 . S
C100 C99 1.351 . S
C100 N101 1.373 . S
C100 H128 0.930 . S
N101 C100 1.373 . S
N101 C103 1.340 . S
N102 C99 1.368 1_565 S
N102 C103 1.321 1_565 S
N102 Co105 2.135 . S
C103 N101 1.340 . S
C103 N102 1.321 1_545 S
C103 H127 0.930 1_545 S
H104 C99 0.931 . S
Co105 N102 2.135 . S
Co105 N108 2.121 . S
Co105 O113 2.055 . S
Co105 O116 2.039 . S
Co105 N119 2.140 . S
C106 O107 1.227 . S
C106 O116 1.265 . S
O107 C106 1.227 . S
N108 Co105 2.121 . S
N108 C110 1.375 . S
N108 C111 1.313 . S
C109 C110 1.338 . S
C109 N112 1.377 . S
C109 H129 0.930 . S
C110 N108 1.375 . S
C110 C109 1.338 . S
C110 H114 0.931 . S
C111 N108 1.313 . S
C111 N112 1.344 . S
C111 H115 0.930 . S
N112 C109 1.377 . S
N112 C111 1.344 . S
O113 Co105 2.055 . S
O113 C117 1.253 . S
H114 C110 0.931 . S
H115 C111 0.930 . S
O116 Co105 2.039 . S
O116 C106 1.265 . S
C117 O113 1.253 . S
C117 O118 1.227 . S
O118 C117 1.227 . S
N119 Co105 2.140 . S
N119 C122 1.346 . S
N119 C123 1.345 . S
C120 C121 1.387 . S
C120 C124 1.391 . S
C121 C120 1.387 . S
C121 C122 1.369 . S
C121 H130 0.929 . S
C122 N119 1.346 . S
C122 C121 1.369 . S
C122 H125 0.928 . S
C123 N119 1.345 . S
C123 C124 1.371 . S
C123 H126 0.931 . S
C124 C120 1.391 . S
C124 C123 1.371 . S
C124 H131 0.930 . S
H125 C122 0.928 . S
H126 C123 0.931 . S
H127 C103 0.930 1_565 S
H128 C100 0.930 . S
H129 C109 0.930 . S
H130 C121 0.929 . S
H131 C124 0.930 . S
C132 C133 1.351 . S
C132 N135 1.368 . S
C132 H137 0.931 . S
C133 C132 1.351 . S
C133 N134 1.373 . S
C133 H161 0.930 . S
N134 C133 1.373 . S
N134 C136 1.340 . S
N135 C132 1.368 . S
N135 C136 1.321 . S
N135 Co138 2.135 . S
C136 N134 1.340 . S
C136 N135 1.321 . S
C136 H160 0.930 . S
H137 C132 0.931 . S
Co138 N135 2.135 . S
Co138 N141 2.121 . S
Co138 O146 2.055 . S
Co138 O149 2.039 . S
Co138 N152 2.140 . S
C139 O140 1.227 . S
C139 O149 1.265 . S
O140 C139 1.227 . S
N141 Co138 2.121 . S
N141 C143 1.375 . S
N141 C144 1.313 . S
C142 C143 1.338 . S
C142 N145 1.377 . S
C142 H162 0.930 . S
C143 N141 1.375 . S
C143 C142 1.338 . S
C143 H147 0.931 . S
C144 N141 1.313 . S
C144 N145 1.344 . S
C144 H148 0.930 . S
N145 C142 1.377 . S
N145 C144 1.344 . S
O146 Co138 2.055 . S
O146 C150 1.253 . S
H147 C143 0.931 . S
H148 C144 0.930 . S
O149 Co138 2.039 . S
O149 C139 1.265 . S
C150 O146 1.253 . S
C150 O151 1.227 . S
O151 C150 1.227 . S
N152 Co138 2.140 . S
N152 C155 1.346 . S
N152 C156 1.345 . S
C153 C154 1.387 . S
C153 C157 1.391 . S
C154 C153 1.387 . S
C154 C155 1.369 . S
C154 H163 0.929 . S
C155 N152 1.346 . S
C155 C154 1.369 . S
C155 H158 0.928 . S
C156 N152 1.345 . S
C156 C157 1.371 . S
C156 H159 0.931 . S
C157 C153 1.391 . S
C157 C156 1.371 . S
C157 H164 0.930 . S
H158 C155 0.928 . S
H159 C156 0.931 . S
H160 C136 0.930 . S
H161 C133 0.930 . S
H162 C142 0.930 . S
H163 C154 0.929 . S
H164 C157 0.930 . S
C165 C166 1.351 . S
C165 N168 1.368 1_565 S
C165 H170 0.931 . S
C166 C165 1.351 . S
C166 N167 1.373 . S
C166 H194 0.930 . S
N167 C166 1.373 . S
N167 C169 1.340 . S
N168 C165 1.368 1_545 S
N168 C169 1.321 1_545 S
N168 Co171 2.135 . S
C169 N167 1.340 . S
C169 N168 1.321 1_565 S
C169 H193 0.930 1_565 S
H170 C165 0.931 . S
Co171 N168 2.135 . S
Co171 N174 2.121 . S
Co171 O179 2.055 . S
Co171 O182 2.039 . S
Co171 N185 2.140 . S
C172 O173 1.227 . S
C172 O182 1.265 . S
O173 C172 1.227 . S
N174 Co171 2.121 . S
N174 C176 1.375 . S
N174 C177 1.313 . S
C175 C176 1.338 . S
C175 N178 1.377 . S
C175 H195 0.930 . S
C176 N174 1.375 . S
C176 C175 1.338 . S
C176 H180 0.931 . S
C177 N174 1.313 . S
C177 N178 1.344 . S
C177 H181 0.930 . S
N178 C175 1.377 . S
N178 C177 1.344 . S
O179 Co171 2.055 . S
O179 C183 1.253 . S
H180 C176 0.931 . S
H181 C177 0.930 . S
O182 Co171 2.039 . S
O182 C172 1.265 . S
C183 O179 1.253 . S
C183 O184 1.227 . S
O184 C183 1.227 . S
N185 Co171 2.140 . S
N185 C188 1.346 . S
N185 C189 1.345 . S
C186 C187 1.387 . S
C186 C190 1.391 . S
C187 C186 1.387 . S
C187 C188 1.369 . S
C187 H196 0.929 . S
C188 N185 1.346 . S
C188 C187 1.369 . S
C188 H191 0.928 . S
C189 N185 1.345 . S
C189 C190 1.371 . S
C189 H192 0.931 . S
C190 C186 1.391 . S
C190 C189 1.371 . S
C190 H197 0.930 . S
H191 C188 0.928 . S
H192 C189 0.931 . S
H193 C169 0.930 1_545 S
H194 C166 0.930 . S
H195 C175 0.930 . S
H196 C187 0.929 . S
H197 C190 0.930 . S
C198 C199 1.351 . S
C198 N201 1.368 . S
C198 H203 0.931 . S
C199 C198 1.351 . S
C199 N200 1.373 . S
C199 H227 0.930 . S
N200 C199 1.373 . S
N200 C202 1.340 . S
N201 C198 1.368 . S
N201 C202 1.321 . S
N201 Co204 2.135 . S
C202 N200 1.340 . S
C202 N201 1.321 . S
C202 H226 0.930 . S
H203 C198 0.931 . S
Co204 N201 2.135 . S
Co204 N207 2.121 . S
Co204 O212 2.055 . S
Co204 O215 2.039 . S
Co204 N218 2.140 . S
C205 O206 1.227 . S
C205 O215 1.265 . S
O206 C205 1.227 . S
N207 Co204 2.121 . S
N207 C209 1.375 . S
N207 C210 1.313 . S
C208 C209 1.338 . S
C208 N211 1.377 . S
C208 H228 0.930 . S
C209 N207 1.375 . S
C209 C208 1.338 . S
C209 H213 0.931 . S
C210 N207 1.313 . S
C210 N211 1.344 . S
C210 H214 0.930 . S
N211 C208 1.377 . S
N211 C210 1.344 . S
O212 Co204 2.055 . S
O212 C216 1.253 . S
H213 C209 0.931 . S
H214 C210 0.930 . S
O215 Co204 2.039 . S
O215 C205 1.265 . S
C216 O212 1.253 . S
C216 O217 1.227 . S
O217 C216 1.227 . S
N218 Co204 2.140 . S
N218 C221 1.346 . S
N218 C222 1.345 . S
C219 C220 1.387 . S
C219 C223 1.391 . S
C220 C219 1.387 . S
C220 C221 1.369 . S
C220 H229 0.929 . S
C221 N218 1.346 . S
C221 C220 1.369 . S
C221 H224 0.928 . S
C222 N218 1.345 . S
C222 C223 1.371 . S
C222 H225 0.931 . S
C223 C219 1.391 . S
C223 C222 1.371 . S
C223 H230 0.930 . S
H224 C221 0.928 . S
H225 C222 0.931 . S
H226 C202 0.930 . S
H227 C199 0.930 . S
H228 C208 0.930 . S
H229 C220 0.929 . S
H230 C223 0.930 . S
C231 C232 1.351 . S
C231 N234 1.368 1_545 S
C231 H236 0.931 . S
C232 C231 1.351 . S
C232 N233 1.373 . S
C232 H260 0.930 . S
N233 C232 1.373 . S
N233 C235 1.340 . S
N234 C231 1.368 1_565 S
N234 C235 1.321 1_565 S
N234 Co237 2.135 . S
C235 N233 1.340 . S
C235 N234 1.321 1_545 S
C235 H259 0.930 1_545 S
H236 C231 0.931 . S
Co237 N234 2.135 . S
Co237 N240 2.121 . S
Co237 O245 2.055 . S
Co237 O248 2.039 . S
Co237 N251 2.140 1_455 S
C238 O239 1.227 . S
C238 O248 1.265 . S
O239 C238 1.227 . S
N240 Co237 2.121 . S
N240 C242 1.375 . S
N240 C243 1.313 . S
C241 C242 1.338 . S
C241 N244 1.377 . S
C241 H261 0.930 . S
C242 N240 1.375 . S
C242 C241 1.338 . S
C242 H246 0.931 . S
C243 N240 1.313 . S
C243 N244 1.344 . S
C243 H247 0.930 . S
N244 C241 1.377 . S
N244 C243 1.344 . S
O245 Co237 2.055 . S
O245 C249 1.253 . S
H246 C242 0.931 . S
H247 C243 0.930 . S
O248 Co237 2.039 . S
O248 C238 1.265 . S
C249 O245 1.253 . S
C249 O250 1.210 1_455 S
O250 C249 1.210 1_655 S
N251 Co237 2.140 1_655 S
N251 C254 1.346 . S
N251 C255 1.345 . S
C252 C253 1.387 . S
C252 C256 1.391 . S
C253 C252 1.387 . S
C253 C254 1.369 . S
C253 H262 0.929 . S
C254 N251 1.346 . S
C254 C253 1.369 . S
C254 H257 0.928 1_655 S
C255 N251 1.345 . S
C255 C256 1.371 . S
C255 H258 0.931 . S
C256 C252 1.391 . S
C256 C255 1.371 . S
C256 H263 0.930 . S
H257 C254 0.928 1_455 S
H258 C255 0.931 . S
H259 C235 0.930 1_565 S
H260 C232 0.930 . S
H261 C241 0.930 . S
H262 C253 0.929 . S
H263 C256 0.930 . S
C264 C265 1.351 . S
C264 N267 1.368 . S
C264 H269 0.931 . S
C265 C264 1.351 . S
C265 N266 1.373 . S
C265 H293 0.930 . S
N266 C265 1.373 . S
N266 C268 1.340 . S
N267 C264 1.368 . S
N267 C268 1.321 . S
N267 Co270 2.135 . S
C268 N266 1.340 . S
C268 N267 1.321 . S
C268 H292 0.930 . S
H269 C264 0.931 . S
Co270 N267 2.135 . S
Co270 N273 2.121 . S
Co270 O278 2.055 . S
Co270 O281 2.039 . S
Co270 N284 2.140 . S
C271 O272 1.227 . S
C271 O281 1.265 . S
O272 C271 1.227 . S
N273 Co270 2.121 . S
N273 C275 1.375 . S
N273 C276 1.313 . S
C274 C275 1.338 . S
C274 N277 1.377 . S
C274 H294 0.930 . S
C275 N273 1.375 . S
C275 C274 1.338 . S
C275 H279 0.931 . S
C276 N273 1.313 . S
C276 N277 1.344 . S
C276 H280 0.930 . S
N277 C274 1.377 . S
N277 C276 1.344 . S
O278 Co270 2.055 . S
O278 C282 1.253 . S
H279 C275 0.931 . S
H280 C276 0.930 . S
O281 Co270 2.039 . S
O281 C271 1.265 . S
C282 O278 1.253 . S
C282 O283 1.227 . S
O283 C282 1.227 . S
N284 Co270 2.140 . S
N284 C287 1.346 . S
N284 C288 1.345 . S
C285 C286 1.387 . S
C285 C289 1.391 . S
C286 C285 1.387 . S
C286 C287 1.369 . S
C286 H295 0.929 . S
C287 N284 1.346 . S
C287 C286 1.369 . S
C287 H290 0.928 . S
C288 N284 1.345 . S
C288 C289 1.371 . S
C288 H291 0.931 . S
C289 C285 1.391 . S
C289 C288 1.371 . S
C289 H296 0.930 . S
H290 C287 0.928 . S
H291 C288 0.931 . S
H292 C268 0.930 . S
H293 C265 0.930 . S
H294 C274 0.930 . S
H295 C286 0.929 . S
H296 C289 0.930 . S
C297 C298 1.351 . S
C297 N300 1.368 1_545 S
C297 H302 0.931 . S
C298 C297 1.351 . S
C298 N299 1.373 . S
C298 H326 0.930 . S
N299 C298 1.373 . S
N299 C301 1.340 . S
N300 C297 1.368 1_565 S
N300 C301 1.321 1_565 S
N300 Co303 2.135 . S
C301 N299 1.340 . S
C301 N300 1.321 1_545 S
C301 H325 0.930 1_545 S
H302 C297 0.931 . S
Co303 N300 2.135 . S
Co303 N306 2.121 . S
Co303 O311 2.055 . S
Co303 O314 2.039 . S
Co303 N317 2.140 1_655 S
C304 O305 1.227 . S
C304 O314 1.265 . S
O305 C304 1.227 . S
N306 Co303 2.121 . S
N306 C308 1.375 . S
N306 C309 1.313 . S
C307 C308 1.338 . S
C307 N310 1.377 . S
C307 H327 0.930 . S
C308 N306 1.375 . S
C308 C307 1.338 . S
C308 H312 0.931 . S
C309 N306 1.313 . S
C309 N310 1.344 . S
C309 H313 0.930 . S
N310 C307 1.377 . S
N310 C309 1.344 . S
O311 Co303 2.055 . S
O311 C315 1.253 . S
H312 C308 0.931 . S
H313 C309 0.930 . S
O314 Co303 2.039 . S
O314 C304 1.265 . S
C315 O311 1.253 . S
C315 O316 1.210 1_655 S
O316 C315 1.210 1_455 S
N317 Co303 2.140 1_455 S
N317 C320 1.346 . S
N317 C321 1.345 . S
C318 C319 1.387 . S
C318 C322 1.391 . S
C319 C318 1.387 . S
C319 C320 1.369 . S
C319 H328 0.929 . S
C320 N317 1.346 . S
C320 C319 1.369 . S
C320 H323 0.928 1_455 S
C321 N317 1.345 . S
C321 C322 1.371 . S
C321 H324 0.931 . S
C322 C318 1.391 . S
C322 C321 1.371 . S
C322 H329 0.930 . S
H323 C320 0.928 1_655 S
H324 C321 0.931 . S
H325 C301 0.930 1_565 S
H326 C298 0.930 . S
H327 C307 0.930 . S
H328 C319 0.929 . S
H329 C322 0.930 . S
C330 C331 1.351 . S
C330 N333 1.368 . S
C330 H335 0.931 . S
C331 C330 1.351 . S
C331 N332 1.373 . S
C331 H359 0.930 . S
N332 C331 1.373 . S
N332 C334 1.340 . S
N333 C330 1.368 . S
N333 C334 1.321 . S
N333 Co336 2.135 . S
C334 N332 1.340 . S
C334 N333 1.321 . S
C334 H358 0.930 . S
H335 C330 0.931 . S
Co336 N333 2.135 . S
Co336 N339 2.121 . S
Co336 O344 2.055 . S
Co336 O347 2.039 . S
Co336 N350 2.140 . S
C337 O338 1.227 . S
C337 O347 1.265 . S
O338 C337 1.227 . S
N339 Co336 2.121 . S
N339 C341 1.375 . S
N339 C342 1.313 . S
C340 C341 1.338 . S
C340 N343 1.377 . S
C340 H360 0.930 . S
C341 N339 1.375 . S
C341 C340 1.338 . S
C341 H345 0.931 . S
C342 N339 1.313 . S
C342 N343 1.344 . S
C342 H346 0.930 . S
N343 C340 1.377 . S
N343 C342 1.344 . S
O344 Co336 2.055 . S
O344 C348 1.253 . S
H345 C341 0.931 . S
H346 C342 0.930 . S
O347 Co336 2.039 . S
O347 C337 1.265 . S
C348 O344 1.253 . S
C348 O349 1.227 . S
O349 C348 1.227 . S
N350 Co336 2.140 . S
N350 C353 1.346 . S
N350 C354 1.345 . S
C351 C352 1.387 . S
C351 C355 1.391 . S
C352 C351 1.387 . S
C352 C353 1.369 . S
C352 H361 0.929 . S
C353 N350 1.346 . S
C353 C352 1.369 . S
C353 H356 0.928 . S
C354 N350 1.345 . S
C354 C355 1.371 . S
C354 H357 0.931 . S
C355 C351 1.391 . S
C355 C354 1.371 . S
C355 H362 0.930 . S
H356 C353 0.928 . S
H357 C354 0.931 . S
H358 C334 0.930 . S
H359 C331 0.930 . S
H360 C340 0.930 . S
H361 C352 0.929 . S
H362 C355 0.930 . S
C363 C364 1.351 . S
C363 N366 1.368 1_565 S
C363 H368 0.931 . S
C364 C363 1.351 . S
C364 N365 1.373 . S
C364 H392 0.930 . S
N365 C364 1.373 . S
N365 C367 1.340 . S
N366 C363 1.368 1_545 S
N366 C367 1.321 1_545 S
N366 Co369 2.135 . S
C367 N365 1.340 . S
C367 N366 1.321 1_565 S
C367 H391 0.930 1_565 S
H368 C363 0.931 . S
Co369 N366 2.135 . S
Co369 N372 2.121 . S
Co369 O377 2.055 . S
Co369 O380 2.039 . S
Co369 N383 2.140 . S
C370 O371 1.227 . S
C370 O380 1.265 . S
O371 C370 1.227 . S
N372 Co369 2.121 . S
N372 C374 1.375 . S
N372 C375 1.313 . S
C373 C374 1.338 . S
C373 N376 1.377 . S
C373 H393 0.930 . S
C374 N372 1.375 . S
C374 C373 1.338 . S
C374 H378 0.931 . S
C375 N372 1.313 . S
C375 N376 1.344 . S
C375 H379 0.930 . S
N376 C373 1.377 . S
N376 C375 1.344 . S
O377 Co369 2.055 . S
O377 C381 1.253 . S
H378 C374 0.931 . S
H379 C375 0.930 . S
O380 Co369 2.039 . S
O380 C370 1.265 . S
C381 O377 1.253 . S
C381 O382 1.227 . S
O382 C381 1.227 . S
N383 Co369 2.140 . S
N383 C386 1.346 . S
N383 C387 1.345 . S
C384 C385 1.387 . S
C384 C388 1.391 . S
C385 C384 1.387 . S
C385 C386 1.369 . S
C385 H394 0.929 . S
C386 N383 1.346 . S
C386 C385 1.369 . S
C386 H389 0.928 . S
C387 N383 1.345 . S
C387 C388 1.371 . S
C387 H390 0.931 . S
C388 C384 1.391 . S
C388 C387 1.371 . S
C388 H395 0.930 . S
H389 C386 0.928 . S
H390 C387 0.931 . S
H391 C367 0.930 1_545 S
H392 C364 0.930 . S
H393 C373 0.930 . S
H394 C385 0.929 . S
H395 C388 0.930 . S
C396 C397 1.351 . S
C396 N399 1.368 . S
C396 H401 0.931 . S
C397 C396 1.351 . S
C397 N398 1.373 . S
C397 H425 0.930 . S
N398 C397 1.373 . S
N398 C400 1.340 . S
N399 C396 1.368 . S
N399 C400 1.321 . S
N399 Co402 2.135 . S
C400 N398 1.340 . S
C400 N399 1.321 . S
C400 H424 0.930 . S
H401 C396 0.931 . S
Co402 N399 2.135 . S
Co402 N405 2.121 . S
Co402 O410 2.055 . S
Co402 O413 2.039 . S
Co402 N416 2.140 . S
C403 O404 1.227 . S
C403 O413 1.265 . S
O404 C403 1.227 . S
N405 Co402 2.121 . S
N405 C407 1.375 . S
N405 C408 1.313 . S
C406 C407 1.338 . S
C406 N409 1.377 . S
C406 H426 0.930 . S
C407 N405 1.375 . S
C407 C406 1.338 . S
C407 H411 0.931 . S
C408 N405 1.313 . S
C408 N409 1.344 . S
C408 H412 0.930 . S
N409 C406 1.377 . S
N409 C408 1.344 . S
O410 Co402 2.055 . S
O410 C414 1.253 . S
H411 C407 0.931 . S
H412 C408 0.930 . S
O413 Co402 2.039 . S
O413 C403 1.265 . S
C414 O410 1.253 . S
C414 O415 1.227 . S
O415 C414 1.227 . S
N416 Co402 2.140 . S
N416 C419 1.346 . S
N416 C420 1.345 . S
C417 C418 1.387 . S
C417 C421 1.391 . S
C418 C417 1.387 . S
C418 C419 1.369 . S
C418 H427 0.929 . S
C419 N416 1.346 . S
C419 C418 1.369 . S
C419 H422 0.928 . S
C420 N416 1.345 . S
C420 C421 1.371 . S
C420 H423 0.931 . S
C421 C417 1.391 . S
C421 C420 1.371 . S
C421 H428 0.930 . S
H422 C419 0.928 . S
H423 C420 0.931 . S
H424 C400 0.930 . S
H425 C397 0.930 . S
H426 C406 0.930 . S
H427 C418 0.929 . S
H428 C421 0.930 . S
C429 C430 1.351 . S
C429 N432 1.368 1_545 S
C429 H434 0.931 . S
C430 C429 1.351 . S
C430 N431 1.373 . S
C430 H458 0.930 . S
N431 C430 1.373 . S
N431 C433 1.340 . S
N432 C429 1.368 1_565 S
N432 C433 1.321 1_565 S
N432 Co435 2.135 . S
C433 N431 1.340 . S
C433 N432 1.321 1_545 S
C433 H457 0.930 1_545 S
H434 C429 0.931 . S
Co435 N432 2.135 . S
Co435 N438 2.121 . S
Co435 O443 2.055 . S
Co435 O446 2.039 . S
Co435 N449 2.140 . S
C436 O437 1.227 . S
C436 O446 1.265 . S
O437 C436 1.227 . S
N438 Co435 2.121 . S
N438 C440 1.375 . S
N438 C441 1.313 . S
C439 C440 1.338 . S
C439 N442 1.377 . S
C439 H459 0.930 . S
C440 N438 1.375 . S
C440 C439 1.338 . S
C440 H444 0.931 . S
C441 N438 1.313 . S
C441 N442 1.344 . S
C441 H445 0.930 . S
N442 C439 1.377 . S
N442 C441 1.344 . S
O443 Co435 2.055 . S
O443 C447 1.253 . S
H444 C440 0.931 . S
H445 C441 0.930 . S
O446 Co435 2.039 . S
O446 C436 1.265 . S
C447 O443 1.253 . S
C447 O448 1.227 . S
O448 C447 1.227 . S
N449 Co435 2.140 . S
N449 C452 1.346 . S
N449 C453 1.345 . S
C450 C451 1.387 . S
C450 C454 1.391 . S
C451 C450 1.387 . S
C451 C452 1.369 . S
C451 H460 0.929 . S
C452 N449 1.346 . S
C452 C451 1.369 . S
C452 H455 0.928 . S
C453 N449 1.345 . S
C453 C454 1.371 . S
C453 H456 0.931 . S
C454 C450 1.391 . S
C454 C453 1.371 . S
C454 H461 0.930 . S
H455 C452 0.928 . S
H456 C453 0.931 . S
H457 C433 0.930 1_565 S
H458 C430 0.930 . S
H459 C439 0.930 . S
H460 C451 0.929 . S
H461 C454 0.930 . S
C462 C463 1.351 . S
C462 N465 1.368 . S
C462 H467 0.931 . S
C463 C462 1.351 . S
C463 N464 1.373 . S
C463 H491 0.930 . S
N464 C463 1.373 . S
N464 C466 1.340 . S
N465 C462 1.368 . S
N465 C466 1.321 . S
N465 Co468 2.135 . S
C466 N464 1.340 . S
C466 N465 1.321 . S
C466 H490 0.930 . S
H467 C462 0.931 . S
Co468 N465 2.135 . S
Co468 N471 2.121 . S
Co468 O476 2.055 . S
Co468 O479 2.039 . S
Co468 N482 2.140 . S
C469 O470 1.227 . S
C469 O479 1.265 . S
O470 C469 1.227 . S
N471 Co468 2.121 . S
N471 C473 1.375 . S
N471 C474 1.313 . S
C472 C473 1.338 . S
C472 N475 1.377 . S
C472 H492 0.930 . S
C473 N471 1.375 . S
C473 C472 1.338 . S
C473 H477 0.931 . S
C474 N471 1.313 . S
C474 N475 1.344 . S
C474 H478 0.930 . S
N475 C472 1.377 . S
N475 C474 1.344 . S
O476 Co468 2.055 . S
O476 C480 1.253 . S
H477 C473 0.931 . S
H478 C474 0.930 . S
O479 Co468 2.039 . S
O479 C469 1.265 . S
C480 O476 1.253 . S
C480 O481 1.227 . S
O481 C480 1.227 . S
N482 Co468 2.140 . S
N482 C485 1.346 . S
N482 C486 1.345 . S
C483 C484 1.387 . S
C483 C487 1.391 . S
C484 C483 1.387 . S
C484 C485 1.369 . S
C484 H493 0.929 . S
C485 N482 1.346 . S
C485 C484 1.369 . S
C485 H488 0.928 . S
C486 N482 1.345 . S
C486 C487 1.371 . S
C486 H489 0.931 . S
C487 C483 1.391 . S
C487 C486 1.371 . S
C487 H494 0.930 . S
H488 C485 0.928 . S
H489 C486 0.931 . S
H490 C466 0.930 . S
H491 C463 0.930 . S
H492 C472 0.930 . S
H493 C484 0.929 . S
H494 C487 0.930 . S
C495 C496 1.351 . S
C495 N498 1.368 1_565 S
C495 H500 0.931 . S
C496 C495 1.351 . S
C496 N497 1.373 . S
C496 H524 0.930 . S
N497 C496 1.373 . S
N497 C499 1.340 . S
N498 C495 1.368 1_545 S
N498 C499 1.321 1_545 S
N498 Co501 2.135 . S
C499 N497 1.340 . S
C499 N498 1.321 1_565 S
C499 H523 0.930 1_565 S
H500 C495 0.931 . S
Co501 N498 2.135 . S
Co501 N504 2.121 . S
Co501 O509 2.055 . S
Co501 O512 2.039 . S
Co501 N515 2.140 1_655 S
C502 O503 1.227 . S
C502 O512 1.265 . S
O503 C502 1.227 . S
N504 Co501 2.121 . S
N504 C506 1.375 . S
N504 C507 1.313 . S
C505 C506 1.338 . S
C505 N508 1.377 . S
C505 H525 0.930 . S
C506 N504 1.375 . S
C506 C505 1.338 . S
C506 H510 0.931 . S
C507 N504 1.313 . S
C507 N508 1.344 . S
C507 H511 0.930 . S
N508 C505 1.377 . S
N508 C507 1.344 . S
O509 Co501 2.055 . S
O509 C513 1.253 . S
H510 C506 0.931 . S
H511 C507 0.930 . S
O512 Co501 2.039 . S
O512 C502 1.265 . S
C513 O509 1.253 . S
C513 O514 1.210 1_655 S
O514 C513 1.210 1_455 S
N515 Co501 2.140 1_455 S
N515 C518 1.346 . S
N515 C519 1.345 . S
C516 C517 1.387 . S
C516 C520 1.391 . S
C517 C516 1.387 . S
C517 C518 1.369 . S
C517 H526 0.929 . S
C518 N515 1.346 . S
C518 C517 1.369 . S
C518 H521 0.928 1_455 S
C519 N515 1.345 . S
C519 C520 1.371 . S
C519 H522 0.931 . S
C520 C516 1.391 . S
C520 C519 1.371 . S
C520 H527 0.930 . S
H521 C518 0.928 1_655 S
H522 C519 0.931 . S
H523 C499 0.930 1_545 S
H524 C496 0.930 . S
H525 C505 0.930 . S
H526 C517 0.929 . S
H527 C520 0.930 . S
C528 C529 1.351 . S
C528 N531 1.368 . S
C528 H533 0.931 . S
C529 C528 1.351 . S
C529 N530 1.373 . S
C529 H557 0.930 . S
N530 C529 1.373 . S
N530 C532 1.340 . S
N531 C528 1.368 . S
N531 C532 1.321 . S
N531 Co534 2.135 . S
C532 N530 1.340 . S
C532 N531 1.321 . S
C532 H556 0.930 . S
H533 C528 0.931 . S
Co534 N531 2.135 . S
Co534 N537 2.121 . S
Co534 O542 2.055 . S
Co534 O545 2.039 . S
Co534 N548 2.140 . S
C535 O536 1.227 . S
C535 O545 1.265 . S
O536 C535 1.227 . S
N537 Co534 2.121 . S
N537 C539 1.375 . S
N537 C540 1.313 . S
C538 C539 1.338 . S
C538 N541 1.377 . S
C538 H558 0.930 . S
C539 N537 1.375 . S
C539 C538 1.338 . S
C539 H543 0.931 . S
C540 N537 1.313 . S
C540 N541 1.344 . S
C540 H544 0.930 . S
N541 C538 1.377 . S
N541 C540 1.344 . S
O542 Co534 2.055 . S
O542 C546 1.253 . S
H543 C539 0.931 . S
H544 C540 0.930 . S
O545 Co534 2.039 . S
O545 C535 1.265 . S
C546 O542 1.253 . S
C546 O547 1.227 . S
O547 C546 1.227 . S
N548 Co534 2.140 . S
N548 C551 1.346 . S
N548 C552 1.345 . S
C549 C550 1.387 . S
C549 C553 1.391 . S
C550 C549 1.387 . S
C550 C551 1.369 . S
C550 H559 0.929 . S
C551 N548 1.346 . S
C551 C550 1.369 . S
C551 H554 0.928 . S
C552 N548 1.345 . S
C552 C553 1.371 . S
C552 H555 0.931 . S
C553 C549 1.391 . S
C553 C552 1.371 . S
C553 H560 0.930 . S
H554 C551 0.928 . S
H555 C552 0.931 . S
H556 C532 0.930 . S
H557 C529 0.930 . S
H558 C538 0.930 . S
H559 C550 0.929 . S
H560 C553 0.930 . S
C561 C562 1.351 . S
C561 N564 1.368 . S
C561 H566 0.931 . S
C562 C561 1.351 . S
C562 N563 1.373 . S
C562 H590 0.930 . S
N563 C562 1.373 . S
N563 C565 1.340 . S
N564 C561 1.368 . S
N564 C565 1.321 . S
N564 Co567 2.135 . S
C565 N563 1.340 . S
C565 N564 1.321 . S
C565 H589 0.930 . S
H566 C561 0.931 . S
Co567 N564 2.135 . S
Co567 N570 2.121 . S
Co567 O575 2.055 . S
Co567 O578 2.039 . S
Co567 N581 2.140 . S
C568 O569 1.227 . S
C568 O578 1.265 . S
O569 C568 1.227 . S
N570 Co567 2.121 . S
N570 C572 1.375 . S
N570 C573 1.313 . S
C571 C572 1.338 . S
C571 N574 1.377 . S
C571 H591 0.930 . S
C572 N570 1.375 . S
C572 C571 1.338 . S
C572 H576 0.931 . S
C573 N570 1.313 . S
C573 N574 1.344 . S
C573 H577 0.930 . S
N574 C571 1.377 . S
N574 C573 1.344 . S
O575 Co567 2.055 . S
O575 C579 1.253 . S
H576 C572 0.931 . S
H577 C573 0.930 . S
O578 Co567 2.039 . S
O578 C568 1.265 . S
C579 O575 1.253 . S
C579 O580 1.227 . S
O580 C579 1.227 . S
N581 Co567 2.140 . S
N581 C584 1.346 . S
N581 C585 1.345 . S
C582 C583 1.387 . S
C582 C586 1.391 . S
C583 C582 1.387 . S
C583 C584 1.369 . S
C583 H592 0.929 . S
C584 N581 1.346 . S
C584 C583 1.369 . S
C584 H587 0.928 . S
C585 N581 1.345 . S
C585 C586 1.371 . S
C585 H588 0.931 . S
C586 C582 1.391 . S
C586 C585 1.371 . S
C586 H593 0.930 . S
H587 C584 0.928 . S
H588 C585 0.931 . S
H589 C565 0.930 . S
H590 C562 0.930 . S
H591 C571 0.930 . S
H592 C583 0.929 . S
H593 C586 0.930 . S
C594 C595 1.351 . S
C594 N597 1.368 . S
C594 H599 0.931 . S
C595 C594 1.351 . S
C595 N596 1.373 . S
C595 H623 0.930 . S
N596 C595 1.373 . S
N596 C598 1.340 . S
N597 C594 1.368 . S
N597 C598 1.321 . S
N597 Co600 2.135 . S
C598 N596 1.340 . S
C598 N597 1.321 . S
C598 H622 0.930 . S
H599 C594 0.931 . S
Co600 N597 2.135 . S
Co600 N603 2.121 . S
Co600 O608 2.055 . S
Co600 O611 2.039 . S
Co600 N614 2.140 . S
C601 O602 1.227 . S
C601 O611 1.265 . S
O602 C601 1.227 . S
N603 Co600 2.121 . S
N603 C605 1.375 . S
N603 C606 1.313 . S
C604 C605 1.338 . S
C604 N607 1.377 . S
C604 H624 0.930 . S
C605 N603 1.375 . S
C605 C604 1.338 . S
C605 H609 0.931 . S
C606 N603 1.313 . S
C606 N607 1.344 . S
C606 H610 0.930 . S
N607 C604 1.377 . S
N607 C606 1.344 . S
O608 Co600 2.055 . S
O608 C612 1.253 . S
H609 C605 0.931 . S
H610 C606 0.930 . S
O611 Co600 2.039 . S
O611 C601 1.265 . S
C612 O608 1.253 . S
C612 O613 1.227 . S
O613 C612 1.227 . S
N614 Co600 2.140 . S
N614 C617 1.346 . S
N614 C618 1.345 . S
C615 C616 1.387 . S
C615 C619 1.391 . S
C616 C615 1.387 . S
C616 C617 1.369 . S
C616 H625 0.929 . S
C617 N614 1.346 . S
C617 C616 1.369 . S
C617 H620 0.928 . S
C618 N614 1.345 . S
C618 C619 1.371 . S
C618 H621 0.931 . S
C619 C615 1.391 . S
C619 C618 1.371 . S
C619 H626 0.930 . S
H620 C617 0.928 . S
H621 C618 0.931 . S
H622 C598 0.930 . S
H623 C595 0.930 . S
H624 C604 0.930 . S
H625 C616 0.929 . S
H626 C619 0.930 . S
C627 C628 1.351 . S
C627 N630 1.368 . S
C627 H632 0.931 . S
C628 C627 1.351 . S
C628 N629 1.373 . S
C628 H656 0.930 . S
N629 C628 1.373 . S
N629 C631 1.340 . S
N630 C627 1.368 . S
N630 C631 1.321 . S
N630 Co633 2.135 . S
C631 N629 1.340 . S
C631 N630 1.321 . S
C631 H655 0.930 . S
H632 C627 0.931 . S
Co633 N630 2.135 . S
Co633 N636 2.121 . S
Co633 O641 2.055 . S
Co633 O644 2.039 . S
Co633 N647 2.140 1_655 S
C634 O635 1.227 . S
C634 O644 1.265 . S
O635 C634 1.227 . S
N636 Co633 2.121 . S
N636 C638 1.375 . S
N636 C639 1.313 . S
C637 C638 1.338 . S
C637 N640 1.377 . S
C637 H657 0.930 . S
C638 N636 1.375 . S
C638 C637 1.338 . S
C638 H642 0.931 . S
C639 N636 1.313 . S
C639 N640 1.344 . S
C639 H643 0.930 . S
N640 C637 1.377 . S
N640 C639 1.344 . S
O641 Co633 2.055 . S
O641 C645 1.253 . S
H642 C638 0.931 . S
H643 C639 0.930 . S
O644 Co633 2.039 . S
O644 C634 1.265 . S
C645 O641 1.253 . S
C645 O646 1.210 1_655 S
O646 C645 1.210 1_455 S
N647 Co633 2.140 1_455 S
N647 C650 1.346 . S
N647 C651 1.345 . S
C648 C649 1.387 . S
C648 C652 1.391 . S
C649 C648 1.387 . S
C649 C650 1.369 . S
C649 H658 0.929 . S
C650 N647 1.346 . S
C650 C649 1.369 . S
C650 H653 0.928 1_455 S
C651 N647 1.345 . S
C651 C652 1.371 . S
C651 H654 0.931 . S
C652 C648 1.391 . S
C652 C651 1.371 . S
C652 H659 0.930 . S
H653 C650 0.928 1_655 S
H654 C651 0.931 . S
H655 C631 0.930 . S
H656 C628 0.930 . S
H657 C637 0.930 . S
H658 C649 0.929 . S
H659 C652 0.930 . S
C660 C661 1.351 . S
C660 N663 1.368 . S
C660 H665 0.931 . S
C661 C660 1.351 . S
C661 N662 1.373 . S
C661 H689 0.930 . S
N662 C661 1.373 . S
N662 C664 1.340 . S
N663 C660 1.368 . S
N663 C664 1.321 . S
N663 Co666 2.135 . S
C664 N662 1.340 . S
C664 N663 1.321 . S
C664 H688 0.930 . S
H665 C660 0.931 . S
Co666 N663 2.135 . S
Co666 N669 2.121 . S
Co666 O674 2.055 . S
Co666 O677 2.039 . S
Co666 N680 2.140 . S
C667 O668 1.227 . S
C667 O677 1.265 . S
O668 C667 1.227 . S
N669 Co666 2.121 . S
N669 C671 1.375 . S
N669 C672 1.313 . S
C670 C671 1.338 . S
C670 N673 1.377 . S
C670 H690 0.930 . S
C671 N669 1.375 . S
C671 C670 1.338 . S
C671 H675 0.931 . S
C672 N669 1.313 . S
C672 N673 1.344 . S
C672 H676 0.930 . S
N673 C670 1.377 . S
N673 C672 1.344 . S
O674 Co666 2.055 . S
O674 C678 1.253 . S
H675 C671 0.931 . S
H676 C672 0.930 . S
O677 Co666 2.039 . S
O677 C667 1.265 . S
C678 O674 1.253 . S
C678 O679 1.227 . S
O679 C678 1.227 . S
N680 Co666 2.140 . S
N680 C683 1.346 . S
N680 C684 1.345 . S
C681 C682 1.387 . S
C681 C685 1.391 . S
C682 C681 1.387 . S
C682 C683 1.369 . S
C682 H691 0.929 . S
C683 N680 1.346 . S
C683 C682 1.369 . S
C683 H686 0.928 . S
C684 N680 1.345 . S
C684 C685 1.371 . S
C684 H687 0.931 . S
C685 C681 1.391 . S
C685 C684 1.371 . S
C685 H692 0.930 . S
H686 C683 0.928 . S
H687 C684 0.931 . S
H688 C664 0.930 . S
H689 C661 0.930 . S
H690 C670 0.930 . S
H691 C682 0.929 . S
H692 C685 0.930 . S
C693 C694 1.351 . S
C693 N696 1.368 . S
C693 H698 0.931 . S
C694 C693 1.351 . S
C694 N695 1.373 . S
C694 H722 0.930 . S
N695 C694 1.373 . S
N695 C697 1.340 . S
N696 C693 1.368 . S
N696 C697 1.321 . S
N696 Co699 2.135 . S
C697 N695 1.340 . S
C697 N696 1.321 . S
C697 H721 0.930 . S
H698 C693 0.931 . S
Co699 N696 2.135 . S
Co699 N702 2.121 . S
Co699 O707 2.055 . S
Co699 O710 2.039 . S
Co699 N713 2.140 1_655 S
C700 O701 1.227 . S
C700 O710 1.265 . S
O701 C700 1.227 . S
N702 Co699 2.121 . S
N702 C704 1.375 . S
N702 C705 1.313 . S
C703 C704 1.338 . S
C703 N706 1.377 . S
C703 H723 0.930 . S
C704 N702 1.375 . S
C704 C703 1.338 . S
C704 H708 0.931 . S
C705 N702 1.313 . S
C705 N706 1.344 . S
C705 H709 0.930 . S
N706 C703 1.377 . S
N706 C705 1.344 . S
O707 Co699 2.055 . S
O707 C711 1.253 . S
H708 C704 0.931 . S
H709 C705 0.930 . S
O710 Co699 2.039 . S
O710 C700 1.265 . S
C711 O707 1.253 . S
C711 O712 1.210 1_655 S
O712 C711 1.210 1_455 S
N713 Co699 2.140 1_455 S
N713 C716 1.346 . S
N713 C717 1.345 . S
C714 C715 1.387 . S
C714 C718 1.391 . S
C715 C714 1.387 . S
C715 C716 1.369 . S
C715 H724 0.929 . S
C716 N713 1.346 . S
C716 C715 1.369 . S
C716 H719 0.928 1_455 S
C717 N713 1.345 . S
C717 C718 1.371 . S
C717 H720 0.931 . S
C718 C714 1.391 . S
C718 C717 1.371 . S
C718 H725 0.930 . S
H719 C716 0.928 1_655 S
H720 C717 0.931 . S
H721 C697 0.930 . S
H722 C694 0.930 . S
H723 C703 0.930 . S
H724 C715 0.929 . S
H725 C718 0.930 . S
C726 C727 1.351 . S
C726 N729 1.368 . S
C726 H731 0.931 . S
C727 C726 1.351 . S
C727 N728 1.373 . S
C727 H755 0.930 . S
N728 C727 1.373 . S
N728 C730 1.340 . S
N729 C726 1.368 . S
N729 C730 1.321 . S
N729 Co732 2.135 . S
C730 N728 1.340 . S
C730 N729 1.321 . S
C730 H754 0.930 . S
H731 C726 0.931 . S
Co732 N729 2.135 . S
Co732 N735 2.121 . S
Co732 O740 2.055 . S
Co732 O743 2.039 . S
Co732 N746 2.140 . S
C733 O734 1.227 . S
C733 O743 1.265 . S
O734 C733 1.227 . S
N735 Co732 2.121 . S
N735 C737 1.375 . S
N735 C738 1.313 . S
C736 C737 1.338 . S
C736 N739 1.377 . S
C736 H756 0.930 . S
C737 N735 1.375 . S
C737 C736 1.338 . S
C737 H741 0.931 . S
C738 N735 1.313 . S
C738 N739 1.344 . S
C738 H742 0.930 . S
N739 C736 1.377 . S
N739 C738 1.344 . S
O740 Co732 2.055 . S
O740 C744 1.253 . S
H741 C737 0.931 . S
H742 C738 0.930 . S
O743 Co732 2.039 . S
O743 C733 1.265 . S
C744 O740 1.253 . S
C744 O745 1.227 . S
O745 C744 1.227 . S
N746 Co732 2.140 . S
N746 C749 1.346 . S
N746 C750 1.345 . S
C747 C748 1.387 . S
C747 C751 1.391 . S
C748 C747 1.387 . S
C748 C749 1.369 . S
C748 H757 0.929 . S
C749 N746 1.346 . S
C749 C748 1.369 . S
C749 H752 0.928 . S
C750 N746 1.345 . S
C750 C751 1.371 . S
C750 H753 0.931 . S
C751 C747 1.391 . S
C751 C750 1.371 . S
C751 H758 0.930 . S
H752 C749 0.928 . S
H753 C750 0.931 . S
H754 C730 0.930 . S
H755 C727 0.930 . S
H756 C736 0.930 . S
H757 C748 0.929 . S
H758 C751 0.930 . S
C759 C760 1.351 . S
C759 N762 1.368 . S
C759 H764 0.931 . S
C760 C759 1.351 . S
C760 N761 1.373 . S
C760 H788 0.930 . S
N761 C760 1.373 . S
N761 C763 1.340 . S
N762 C759 1.368 . S
N762 C763 1.321 . S
N762 Co765 2.135 . S
C763 N761 1.340 . S
C763 N762 1.321 . S
C763 H787 0.930 . S
H764 C759 0.931 . S
Co765 N762 2.135 . S
Co765 N768 2.121 . S
Co765 O773 2.055 . S
Co765 O776 2.039 . S
Co765 N779 2.140 . S
C766 O767 1.227 . S
C766 O776 1.265 . S
O767 C766 1.227 . S
N768 Co765 2.121 . S
N768 C770 1.375 . S
N768 C771 1.313 . S
C769 C770 1.338 . S
C769 N772 1.377 . S
C769 H789 0.930 . S
C770 N768 1.375 . S
C770 C769 1.338 . S
C770 H774 0.931 . S
C771 N768 1.313 . S
C771 N772 1.344 . S
C771 H775 0.930 . S
N772 C769 1.377 . S
N772 C771 1.344 . S
O773 Co765 2.055 . S
O773 C777 1.253 . S
H774 C770 0.931 . S
H775 C771 0.930 . S
O776 Co765 2.039 . S
O776 C766 1.265 . S
C777 O773 1.253 . S
C777 O778 1.227 . S
O778 C777 1.227 . S
N779 Co765 2.140 . S
N779 C782 1.346 . S
N779 C783 1.345 . S
C780 C781 1.387 . S
C780 C784 1.391 . S
C781 C780 1.387 . S
C781 C782 1.369 . S
C781 H790 0.929 . S
C782 N779 1.346 . S
C782 C781 1.369 . S
C782 H785 0.928 . S
C783 N779 1.345 . S
C783 C784 1.371 . S
C783 H786 0.931 . S
C784 C780 1.391 . S
C784 C783 1.371 . S
C784 H791 0.930 . S
H785 C782 0.928 . S
H786 C783 0.931 . S
H787 C763 0.930 . S
H788 C760 0.930 . S
H789 C769 0.930 . S
H790 C781 0.929 . S
H791 C784 0.930 . S
C792 C793 1.351 . S
C792 N795 1.368 . S
C792 H797 0.931 . S
C793 C792 1.351 . S
C793 N794 1.373 . S
C793 H821 0.930 . S
N794 C793 1.373 . S
N794 C796 1.340 . S
N795 C792 1.368 . S
N795 C796 1.321 . S
N795 Co798 2.135 . S
C796 N794 1.340 . S
C796 N795 1.321 . S
C796 H820 0.930 . S
H797 C792 0.931 . S
Co798 N795 2.135 . S
Co798 N801 2.121 . S
Co798 O806 2.055 . S
Co798 O809 2.039 . S
Co798 N812 2.140 . S
C799 O800 1.227 . S
C799 O809 1.265 . S
O800 C799 1.227 . S
N801 Co798 2.121 . S
N801 C803 1.375 . S
N801 C804 1.313 . S
C802 C803 1.338 . S
C802 N805 1.377 . S
C802 H822 0.930 . S
C803 N801 1.375 . S
C803 C802 1.338 . S
C803 H807 0.931 . S
C804 N801 1.313 . S
C804 N805 1.344 . S
C804 H808 0.930 . S
N805 C802 1.377 . S
N805 C804 1.344 . S
O806 Co798 2.055 . S
O806 C810 1.253 . S
H807 C803 0.931 . S
H808 C804 0.930 . S
O809 Co798 2.039 . S
O809 C799 1.265 . S
C810 O806 1.253 . S
C810 O811 1.227 . S
O811 C810 1.227 . S
N812 Co798 2.140 . S
N812 C815 1.346 . S
N812 C816 1.345 . S
C813 C814 1.387 . S
C813 C817 1.391 . S
C814 C813 1.387 . S
C814 C815 1.369 . S
C814 H823 0.929 . S
C815 N812 1.346 . S
C815 C814 1.369 . S
C815 H818 0.928 . S
C816 N812 1.345 . S
C816 C817 1.371 . S
C816 H819 0.931 . S
C817 C813 1.391 . S
C817 C816 1.371 . S
C817 H824 0.930 . S
H818 C815 0.928 . S
H819 C816 0.931 . S
H820 C796 0.930 . S
H821 C793 0.930 . S
H822 C802 0.930 . S
H823 C814 0.929 . S
H824 C817 0.930 . S
C825 C826 1.351 . S
C825 N828 1.368 . S
C825 H830 0.931 . S
C826 C825 1.351 . S
C826 N827 1.373 . S
C826 H854 0.930 . S
N827 C826 1.373 . S
N827 C829 1.340 . S
N828 C825 1.368 . S
N828 C829 1.321 . S
N828 Co831 2.135 . S
C829 N827 1.340 . S
C829 N828 1.321 . S
C829 H853 0.930 . S
H830 C825 0.931 . S
Co831 N828 2.135 . S
Co831 N834 2.121 . S
Co831 O839 2.055 . S
Co831 O842 2.039 . S
Co831 N845 2.140 . S
C832 O833 1.227 . S
C832 O842 1.265 . S
O833 C832 1.227 . S
N834 Co831 2.121 . S
N834 C836 1.375 . S
N834 C837 1.313 . S
C835 C836 1.338 . S
C835 N838 1.377 . S
C835 H855 0.930 . S
C836 N834 1.375 . S
C836 C835 1.338 . S
C836 H840 0.931 . S
C837 N834 1.313 . S
C837 N838 1.344 . S
C837 H841 0.930 . S
N838 C835 1.377 . S
N838 C837 1.344 . S
O839 Co831 2.055 . S
O839 C843 1.253 . S
H840 C836 0.931 . S
H841 C837 0.930 . S
O842 Co831 2.039 . S
O842 C832 1.265 . S
C843 O839 1.253 . S
C843 O844 1.227 . S
O844 C843 1.227 . S
N845 Co831 2.140 . S
N845 C848 1.346 . S
N845 C849 1.345 . S
C846 C847 1.387 . S
C846 C850 1.391 . S
C847 C846 1.387 . S
C847 C848 1.369 . S
C847 H856 0.929 . S
C848 N845 1.346 . S
C848 C847 1.369 . S
C848 H851 0.928 . S
C849 N845 1.345 . S
C849 C850 1.371 . S
C849 H852 0.931 . S
C850 C846 1.391 . S
C850 C849 1.371 . S
C850 H857 0.930 . S
H851 C848 0.928 . S
H852 C849 0.931 . S
H853 C829 0.930 . S
H854 C826 0.930 . S
H855 C835 0.930 . S
H856 C847 0.929 . S
H857 C850 0.930 . S
C858 C859 1.351 . S
C858 N861 1.368 . S
C858 H863 0.931 . S
C859 C858 1.351 . S
C859 N860 1.373 . S
C859 H887 0.930 . S
N860 C859 1.373 . S
N860 C862 1.340 . S
N861 C858 1.368 . S
N861 C862 1.321 . S
N861 Co864 2.135 . S
C862 N860 1.340 . S
C862 N861 1.321 . S
C862 H886 0.930 . S
H863 C858 0.931 . S
Co864 N861 2.135 . S
Co864 N867 2.121 . S
Co864 O872 2.055 . S
Co864 O875 2.039 . S
Co864 N878 2.140 . S
C865 O866 1.227 . S
C865 O875 1.265 . S
O866 C865 1.227 . S
N867 Co864 2.121 . S
N867 C869 1.375 . S
N867 C870 1.313 . S
C868 C869 1.338 . S
C868 N871 1.377 . S
C868 H888 0.930 . S
C869 N867 1.375 . S
C869 C868 1.338 . S
C869 H873 0.931 . S
C870 N867 1.313 . S
C870 N871 1.344 . S
C870 H874 0.930 . S
N871 C868 1.377 . S
N871 C870 1.344 . S
O872 Co864 2.055 . S
O872 C876 1.253 . S
H873 C869 0.931 . S
H874 C870 0.930 . S
O875 Co864 2.039 . S
O875 C865 1.265 . S
C876 O872 1.253 . S
C876 O877 1.227 . S
O877 C876 1.227 . S
N878 Co864 2.140 . S
N878 C881 1.346 . S
N878 C882 1.345 . S
C879 C880 1.387 . S
C879 C883 1.391 . S
C880 C879 1.387 . S
C880 C881 1.369 . S
C880 H889 0.929 . S
C881 N878 1.346 . S
C881 C880 1.369 . S
C881 H884 0.928 . S
C882 N878 1.345 . S
C882 C883 1.371 . S
C882 H885 0.931 . S
C883 C879 1.391 . S
C883 C882 1.371 . S
C883 H890 0.930 . S
H884 C881 0.928 . S
H885 C882 0.931 . S
H886 C862 0.930 . S
H887 C859 0.930 . S
H888 C868 0.930 . S
H889 C880 0.929 . S
H890 C883 0.930 . S
C891 C892 1.351 . S
C891 N894 1.368 . S
C891 H896 0.931 . S
C892 C891 1.351 . S
C892 N893 1.373 . S
C892 H920 0.930 . S
N893 C892 1.373 . S
N893 C895 1.340 . S
N894 C891 1.368 . S
N894 C895 1.321 . S
N894 Co897 2.135 . S
C895 N893 1.340 . S
C895 N894 1.321 . S
C895 H919 0.930 . S
H896 C891 0.931 . S
Co897 N894 2.135 . S
Co897 N900 2.121 . S
Co897 O905 2.055 . S
Co897 O908 2.039 . S
Co897 N911 2.140 1_455 S
C898 O899 1.227 . S
C898 O908 1.265 . S
O899 C898 1.227 . S
N900 Co897 2.121 . S
N900 C902 1.375 . S
N900 C903 1.313 . S
C901 C902 1.338 . S
C901 N904 1.377 . S
C901 H921 0.930 . S
C902 N900 1.375 . S
C902 C901 1.338 . S
C902 H906 0.931 . S
C903 N900 1.313 . S
C903 N904 1.344 . S
C903 H907 0.930 . S
N904 C901 1.377 . S
N904 C903 1.344 . S
O905 Co897 2.055 . S
O905 C909 1.253 . S
H906 C902 0.931 . S
H907 C903 0.930 . S
O908 Co897 2.039 . S
O908 C898 1.265 . S
C909 O905 1.253 . S
C909 O910 1.210 1_455 S
O910 C909 1.210 1_655 S
N911 Co897 2.140 1_655 S
N911 C914 1.346 . S
N911 C915 1.345 . S
C912 C913 1.387 . S
C912 C916 1.391 . S
C913 C912 1.387 . S
C913 C914 1.369 . S
C913 H922 0.929 . S
C914 N911 1.346 . S
C914 C913 1.369 . S
C914 H917 0.928 1_655 S
C915 N911 1.345 . S
C915 C916 1.371 . S
C915 H918 0.931 . S
C916 C912 1.391 . S
C916 C915 1.371 . S
C916 H923 0.930 . S
H917 C914 0.928 1_455 S
H918 C915 0.931 . S
H919 C895 0.930 . S
H920 C892 0.930 . S
H921 C901 0.930 . S
H922 C913 0.929 . S
H923 C916 0.930 . S
C924 C925 1.351 . S
C924 N927 1.368 . S
C924 H929 0.931 . S
C925 C924 1.351 . S
C925 N926 1.373 . S
C925 H953 0.930 . S
N926 C925 1.373 . S
N926 C928 1.340 . S
N927 C924 1.368 . S
N927 C928 1.321 . S
N927 Co930 2.135 . S
C928 N926 1.340 . S
C928 N927 1.321 . S
C928 H952 0.930 . S
H929 C924 0.931 . S
Co930 N927 2.135 . S
Co930 N933 2.121 . S
Co930 O938 2.055 . S
Co930 O941 2.039 . S
Co930 N944 2.140 . S
C931 O932 1.227 . S
C931 O941 1.265 . S
O932 C931 1.227 . S
N933 Co930 2.121 . S
N933 C935 1.375 . S
N933 C936 1.313 . S
C934 C935 1.338 . S
C934 N937 1.377 . S
C934 H954 0.930 . S
C935 N933 1.375 . S
C935 C934 1.338 . S
C935 H939 0.931 . S
C936 N933 1.313 . S
C936 N937 1.344 . S
C936 H940 0.930 . S
N937 C934 1.377 . S
N937 C936 1.344 . S
O938 Co930 2.055 . S
O938 C942 1.253 . S
H939 C935 0.931 . S
H940 C936 0.930 . S
O941 Co930 2.039 . S
O941 C931 1.265 . S
C942 O938 1.253 . S
C942 O943 1.227 . S
O943 C942 1.227 . S
N944 Co930 2.140 . S
N944 C947 1.346 . S
N944 C948 1.345 . S
C945 C946 1.387 . S
C945 C949 1.391 . S
C946 C945 1.387 . S
C946 C947 1.369 . S
C946 H955 0.929 . S
C947 N944 1.346 . S
C947 C946 1.369 . S
C947 H950 0.928 . S
C948 N944 1.345 . S
C948 C949 1.371 . S
C948 H951 0.931 . S
C949 C945 1.391 . S
C949 C948 1.371 . S
C949 H956 0.930 . S
H950 C947 0.928 . S
H951 C948 0.931 . S
H952 C928 0.930 . S
H953 C925 0.930 . S
H954 C934 0.930 . S
H955 C946 0.929 . S
H956 C949 0.930 . S
C957 C958 1.351 . S
C957 N960 1.368 . S
C957 H962 0.931 . S
C958 C957 1.351 . S
C958 N959 1.373 . S
C958 H986 0.930 . S
N959 C958 1.373 . S
N959 C961 1.340 . S
N960 C957 1.368 . S
N960 C961 1.321 . S
N960 Co963 2.135 . S
C961 N959 1.340 . S
C961 N960 1.321 . S
C961 H985 0.930 . S
H962 C957 0.931 . S
Co963 N960 2.135 . S
Co963 N966 2.121 . S
Co963 O971 2.055 . S
Co963 O974 2.039 . S
Co963 N977 2.140 1_455 S
C964 O965 1.227 . S
C964 O974 1.265 . S
O965 C964 1.227 . S
N966 Co963 2.121 . S
N966 C968 1.375 . S
N966 C969 1.313 . S
C967 C968 1.338 . S
C967 N970 1.377 . S
C967 H987 0.930 . S
C968 N966 1.375 . S
C968 C967 1.338 . S
C968 H972 0.931 . S
C969 N966 1.313 . S
C969 N970 1.344 . S
C969 H973 0.930 . S
N970 C967 1.377 . S
N970 C969 1.344 . S
O971 Co963 2.055 . S
O971 C975 1.253 . S
H972 C968 0.931 . S
H973 C969 0.930 . S
O974 Co963 2.039 . S
O974 C964 1.265 . S
C975 O971 1.253 . S
C975 O976 1.210 1_455 S
O976 C975 1.210 1_655 S
N977 Co963 2.140 1_655 S
N977 C980 1.346 . S
N977 C981 1.345 . S
C978 C979 1.387 . S
C978 C982 1.391 . S
C979 C978 1.387 . S
C979 C980 1.369 . S
C979 H988 0.929 . S
C980 N977 1.346 . S
C980 C979 1.369 . S
C980 H983 0.928 1_655 S
C981 N977 1.345 . S
C981 C982 1.371 . S
C981 H984 0.931 . S
C982 C978 1.391 . S
C982 C981 1.371 . S
C982 H989 0.930 . S
H983 C980 0.928 1_455 S
H984 C981 0.931 . S
H985 C961 0.930 . S
H986 C958 0.930 . S
H987 C967 0.930 . S
H988 C979 0.929 . S
H989 C982 0.930 . S
C990 C991 1.351 . S
C990 N993 1.368 . S
C990 H995 0.931 . S
C991 C990 1.351 . S
C991 N992 1.373 . S
C991 H1019 0.930 . S
N992 C991 1.373 . S
N992 C994 1.340 . S
N993 C990 1.368 . S
N993 C994 1.321 . S
N993 Co996 2.135 . S
C994 N992 1.340 . S
C994 N993 1.321 . S
C994 H1018 0.930 . S
H995 C990 0.931 . S
Co996 N993 2.135 . S
Co996 N999 2.121 . S
Co996 O1004 2.055 . S
Co996 O1007 2.039 . S
Co996 N1010 2.140 . S
C997 O998 1.227 . S
C997 O1007 1.265 . S
O998 C997 1.227 . S
N999 Co996 2.121 . S
N999 C1001 1.375 . S
N999 C1002 1.313 . S
C1000 C1001 1.338 . S
C1000 N1003 1.377 . S
C1000 H1020 0.930 . S
C1001 N999 1.375 . S
C1001 C1000 1.338 . S
C1001 H1005 0.931 . S
C1002 N999 1.313 . S
C1002 N1003 1.344 . S
C1002 H1006 0.930 . S
N1003 C1000 1.377 . S
N1003 C1002 1.344 . S
O1004 Co996 2.055 . S
O1004 C1008 1.253 . S
H1005 C1001 0.931 . S
H1006 C1002 0.930 . S
O1007 Co996 2.039 . S
O1007 C997 1.265 . S
C1008 O1004 1.253 . S
C1008 O1009 1.227 . S
O1009 C1008 1.227 . S
N1010 Co996 2.140 . S
N1010 C1013 1.346 . S
N1010 C1014 1.345 . S
C1011 C1012 1.387 . S
C1011 C1015 1.391 . S
C1012 C1011 1.387 . S
C1012 C1013 1.369 . S
C1012 H1021 0.929 . S
C1013 N1010 1.346 . S
C1013 C1012 1.369 . S
C1013 H1016 0.928 . S
C1014 N1010 1.345 . S
C1014 C1015 1.371 . S
C1014 H1017 0.931 . S
C1015 C1011 1.391 . S
C1015 C1014 1.371 . S
C1015 H1022 0.930 . S
H1016 C1013 0.928 . S
H1017 C1014 0.931 . S
H1018 C994 0.930 . S
H1019 C991 0.930 . S
H1020 C1000 0.930 . S
H1021 C1012 0.929 . S
H1022 C1015 0.930 . S
C1023 C1024 1.351 . S
C1023 N1026 1.368 . S
C1023 H1028 0.931 . S
C1024 C1023 1.351 . S
C1024 N1025 1.373 . S
C1024 H1052 0.930 . S
N1025 C1024 1.373 . S
N1025 C1027 1.340 . S
N1026 C1023 1.368 . S
N1026 C1027 1.321 . S
N1026 Co1029 2.135 . S
C1027 N1025 1.340 . S
C1027 N1026 1.321 . S
C1027 H1051 0.930 . S
H1028 C1023 0.931 . S
Co1029 N1026 2.135 . S
Co1029 N1032 2.121 . S
Co1029 O1037 2.055 . S
Co1029 O1040 2.039 . S
Co1029 N1043 2.140 . S
C1030 O1031 1.227 . S
C1030 O1040 1.265 . S
O1031 C1030 1.227 . S
N1032 Co1029 2.121 . S
N1032 C1034 1.375 . S
N1032 C1035 1.313 . S
C1033 C1034 1.338 . S
C1033 N1036 1.377 . S
C1033 H1053 0.930 . S
C1034 N1032 1.375 . S
C1034 C1033 1.338 . S
C1034 H1038 0.931 . S
C1035 N1032 1.313 . S
C1035 N1036 1.344 . S
C1035 H1039 0.930 . S
N1036 C1033 1.377 . S
N1036 C1035 1.344 . S
O1037 Co1029 2.055 . S
O1037 C1041 1.253 . S
H1038 C1034 0.931 . S
H1039 C1035 0.930 . S
O1040 Co1029 2.039 . S
O1040 C1030 1.265 . S
C1041 O1037 1.253 . S
C1041 O1042 1.227 . S
O1042 C1041 1.227 . S
N1043 Co1029 2.140 . S
N1043 C1046 1.346 . S
N1043 C1047 1.345 . S
C1044 C1045 1.387 . S
C1044 C1048 1.391 . S
C1045 C1044 1.387 . S
C1045 C1046 1.369 . S
C1045 H1054 0.929 . S
C1046 N1043 1.346 . S
C1046 C1045 1.369 . S
C1046 H1049 0.928 . S
C1047 N1043 1.345 . S
C1047 C1048 1.371 . S
C1047 H1050 0.931 . S
C1048 C1044 1.391 . S
C1048 C1047 1.371 . S
C1048 H1055 0.930 . S
H1049 C1046 0.928 . S
H1050 C1047 0.931 . S
H1051 C1027 0.930 . S
H1052 C1024 0.930 . S
H1053 C1033 0.930 . S
H1054 C1045 0.929 . S
H1055 C1048 0.930 . S
H1056 C1062 0.930 . S
H1057 C1066 0.930 . S
H1058 C1071 0.929 . S
H1059 C1069 0.929 . S
H1060 C1064 0.929 . S
H1061 C1070 0.929 . S
C1062 H1056 0.930 . S
C1062 C1063 1.367 . S
C1062 C1070 1.378 . S
C1063 C1062 1.367 . S
C1063 C1071 1.433 . S
C1064 H1060 0.929 . S
C1064 C1066 1.378 . S
C1064 C1068 1.350 . S
C1065 C1068 1.463 . S
C1065 C1070 1.350 . S
C1065 N1073 1.427 . S
C1066 H1057 0.930 . S
C1066 C1064 1.378 . S
C1066 C1067 1.367 . S
C1067 C1066 1.367 . S
C1067 C1069 1.433 . S
C1068 C1064 1.350 . S
C1068 C1065 1.463 . S
C1068 N1072 1.427 . S
C1069 H1059 0.929 . S
C1069 C1067 1.433 . S
C1069 N1072 1.384 . S
C1070 H1061 0.929 . S
C1070 C1062 1.378 . S
C1070 C1065 1.350 . S
C1071 H1058 0.929 . S
C1071 C1063 1.433 . S
C1071 N1073 1.384 . S
N1072 C1068 1.427 . S
N1072 C1069 1.384 . S
N1073 C1065 1.427 . S
N1073 C1071 1.384 . S
H1074 C1080 0.932 . S
H1075 C1084 0.932 . S
H1076 C1089 0.929 . S
H1077 C1087 0.929 . S
H1078 C1082 0.929 . S
H1079 C1088 0.929 . S
C1080 H1074 0.932 . S
C1080 C1081 1.365 1_455 S
C1080 C1088 1.378 . S
C1081 C1080 1.365 1_655 S
C1081 C1089 1.435 . S
C1082 H1078 0.929 . S
C1082 C1084 1.378 . S
C1082 C1086 1.350 1_655 S
C1083 C1086 1.462 1_655 S
C1083 C1088 1.350 1_655 S
C1083 N1091 1.427 . S
C1084 H1075 0.932 . S
C1084 C1082 1.378 . S
C1084 C1085 1.365 1_655 S
C1085 C1084 1.365 1_455 S
C1085 C1087 1.435 . S
C1086 C1082 1.350 1_455 S
C1086 C1083 1.462 1_455 S
C1086 N1090 1.427 . S
C1087 H1077 0.929 . S
C1087 C1085 1.435 . S
C1087 N1090 1.384 . S
C1088 H1079 0.929 . S
C1088 C1080 1.378 . S
C1088 C1083 1.350 1_455 S
C1089 H1076 0.929 . S
C1089 C1081 1.435 . S
C1089 N1091 1.384 . S
N1090 C1086 1.427 . S
N1090 C1087 1.384 . S
N1091 C1083 1.427 . S
N1091 C1089 1.384 . S
H1092 C1098 0.930 . S
H1093 C1102 0.930 . S
H1094 C1107 0.929 . S
H1095 C1105 0.929 . S
H1096 C1100 0.929 . S
H1097 C1106 0.929 . S
C1098 H1092 0.930 . S
C1098 C1099 1.367 . S
C1098 C1106 1.378 . S
C1099 C1098 1.367 . S
C1099 C1107 1.433 . S
C1100 H1096 0.929 . S
C1100 C1102 1.378 . S
C1100 C1104 1.350 . S
C1101 C1104 1.463 1_455 S
C1101 C1106 1.350 . S
C1101 N1109 1.427 . S
C1102 H1093 0.930 . S
C1102 C1100 1.378 . S
C1102 C1103 1.367 . S
C1103 C1102 1.367 . S
C1103 C1105 1.433 . S
C1104 C1100 1.350 . S
C1104 C1101 1.463 1_655 S
C1104 N1108 1.427 . S
C1105 H1095 0.929 . S
C1105 C1103 1.433 . S
C1105 N1108 1.384 . S
C1106 H1097 0.929 . S
C1106 C1098 1.378 . S
C1106 C1101 1.350 . S
C1107 H1094 0.929 . S
C1107 C1099 1.433 . S
C1107 N1109 1.384 . S
N1108 C1104 1.427 . S
N1108 C1105 1.384 . S
N1109 C1101 1.427 . S
N1109 C1107 1.384 . S
H1110 C1116 0.930 . S
H1111 C1120 0.930 . S
H1112 C1125 0.929 . S
H1113 C1123 0.929 . S
H1114 C1118 0.929 . S
H1115 C1124 0.929 . S
C1116 H1110 0.930 . S
C1116 C1117 1.367 . S
C1116 C1124 1.378 . S
C1117 C1116 1.367 . S
C1117 C1125 1.433 . S
C1118 H1114 0.929 . S
C1118 C1120 1.378 . S
C1118 C1122 1.350 . S
C1119 C1122 1.463 . S
C1119 C1124 1.350 . S
C1119 N1127 1.427 . S
C1120 H1111 0.930 . S
C1120 C1118 1.378 . S
C1120 C1121 1.367 . S
C1121 C1120 1.367 . S
C1121 C1123 1.433 . S
C1122 C1118 1.350 . S
C1122 C1119 1.463 . S
C1122 N1126 1.427 . S
C1123 H1113 0.929 . S
C1123 C1121 1.433 . S
C1123 N1126 1.384 . S
C1124 H1115 0.929 . S
C1124 C1116 1.378 . S
C1124 C1119 1.350 . S
C1125 H1112 0.929 . S
C1125 C1117 1.433 . S
C1125 N1127 1.384 . S
N1126 C1122 1.427 . S
N1126 C1123 1.384 . S
N1127 C1119 1.427 . S
N1127 C1125 1.384 . S
H1128 C1134 0.930 . S
H1129 C1138 0.930 . S
H1130 C1143 0.929 . S
H1131 C1141 0.929 . S
H1132 C1136 0.929 . S
H1133 C1142 0.929 . S
C1134 H1128 0.930 . S
C1134 C1135 1.367 . S
C1134 C1142 1.378 . S
C1135 C1134 1.367 . S
C1135 C1143 1.433 . S
C1136 H1132 0.929 . S
C1136 C1138 1.378 . S
C1136 C1140 1.350 . S
C1137 C1140 1.463 . S
C1137 C1142 1.350 . S
C1137 N1145 1.427 . S
C1138 H1129 0.930 . S
C1138 C1136 1.378 . S
C1138 C1139 1.367 . S
C1139 C1138 1.367 . S
C1139 C1141 1.433 . S
C1140 C1136 1.350 . S
C1140 C1137 1.463 . S
C1140 N1144 1.427 . S
C1141 H1131 0.929 . S
C1141 C1139 1.433 . S
C1141 N1144 1.384 . S
C1142 H1133 0.929 . S
C1142 C1134 1.378 . S
C1142 C1137 1.350 . S
C1143 H1130 0.929 . S
C1143 C1135 1.433 . S
C1143 N1145 1.384 . S
N1144 C1140 1.427 . S
N1144 C1141 1.384 . S
N1145 C1137 1.427 . S
N1145 C1143 1.384 . S
H1146 C1152 0.930 . S
H1147 C1156 0.930 . S
H1148 C1161 0.929 . S
H1149 C1159 0.929 . S
H1150 C1154 0.929 . S
H1151 C1160 0.929 . S
C1152 H1146 0.930 . S
C1152 C1153 1.367 . S
C1152 C1160 1.378 . S
C1153 C1152 1.367 . S
C1153 C1161 1.433 . S
C1154 H1150 0.929 . S
C1154 C1156 1.378 . S
C1154 C1158 1.350 . S
C1155 C1158 1.463 . S
C1155 C1160 1.350 . S
C1155 N1163 1.427 . S
C1156 H1147 0.930 . S
C1156 C1154 1.378 . S
C1156 C1157 1.367 . S
C1157 C1156 1.367 . S
C1157 C1159 1.433 . S
C1158 C1154 1.350 . S
C1158 C1155 1.463 . S
C1158 N1162 1.427 . S
C1159 H1149 0.929 . S
C1159 C1157 1.433 . S
C1159 N1162 1.384 . S
C1160 H1151 0.929 . S
C1160 C1152 1.378 . S
C1160 C1155 1.350 . S
C1161 H1148 0.929 . S
C1161 C1153 1.433 . S
C1161 N1163 1.384 . S
N1162 C1158 1.427 . S
N1162 C1159 1.384 . S
N1163 C1155 1.427 . S
N1163 C1161 1.384 . S
H1164 C1170 0.930 . S
H1165 C1174 0.930 . S
H1166 C1179 0.929 . S
H1167 C1177 0.929 . S
H1168 C1172 0.929 . S
H1169 C1178 0.929 . S
C1170 H1164 0.930 . S
C1170 C1171 1.367 . S
C1170 C1178 1.378 . S
C1171 C1170 1.367 . S
C1171 C1179 1.433 . S
C1172 H1168 0.929 . S
C1172 C1174 1.378 . S
C1172 C1176 1.350 . S
C1173 C1176 1.463 1_455 S
C1173 C1178 1.350 . S
C1173 N1181 1.427 . S
C1174 H1165 0.930 . S
C1174 C1172 1.378 . S
C1174 C1175 1.367 . S
C1175 C1174 1.367 . S
C1175 C1177 1.433 . S
C1176 C1172 1.350 . S
C1176 C1173 1.463 1_655 S
C1176 N1180 1.427 . S
C1177 H1167 0.929 . S
C1177 C1175 1.433 . S
C1177 N1180 1.384 . S
C1178 H1169 0.929 . S
C1178 C1170 1.378 . S
C1178 C1173 1.350 . S
C1179 H1166 0.929 . S
C1179 C1171 1.433 . S
C1179 N1181 1.384 . S
N1180 C1176 1.427 . S
N1180 C1177 1.384 . S
N1181 C1173 1.427 . S
N1181 C1179 1.384 . S
H1182 C1188 0.930 . S
H1183 C1192 0.930 . S
H1184 C1197 0.929 . S
H1185 C1195 0.929 . S
H1186 C1190 0.929 . S
H1187 C1196 0.929 . S
C1188 H1182 0.930 . S
C1188 C1189 1.359 1_455 S
C1188 C1196 1.378 . S
C1189 C1188 1.359 1_655 S
C1189 C1197 1.441 . S
C1190 H1186 0.929 . S
C1190 C1192 1.378 . S
C1190 C1194 1.363 . S
C1191 C1194 1.462 1_455 S
C1191 C1196 1.362 . S
C1191 N1199 1.415 1_455 S
C1192 H1183 0.930 . S
C1192 C1190 1.378 . S
C1192 C1193 1.359 1_655 S
C1193 C1192 1.359 1_455 S
C1193 C1195 1.441 . S
C1194 C1190 1.363 . S
C1194 C1191 1.462 1_655 S
C1194 N1198 1.414 1_655 S
C1195 H1185 0.929 . S
C1195 C1193 1.441 . S
C1195 N1198 1.384 . S
C1196 H1187 0.929 . S
C1196 C1188 1.378 . S
C1196 C1191 1.362 . S
C1197 H1184 0.929 . S
C1197 C1189 1.441 . S
C1197 N1199 1.384 . S
N1198 C1194 1.414 1_455 S
N1198 C1195 1.384 . S
N1199 C1191 1.415 1_655 S
N1199 C1197 1.384 . S
H1200 C1206 0.930 . S
H1201 C1210 0.930 . S
H1202 C1215 0.929 . S
H1203 C1213 0.929 . S
H1204 C1208 0.929 . S
H1205 C1214 0.929 . S
C1206 H1200 0.930 . S
C1206 C1207 1.367 . S
C1206 C1214 1.378 . S
C1207 C1206 1.367 . S
C1207 C1215 1.433 . S
C1208 H1204 0.929 . S
C1208 C1210 1.378 . S
C1208 C1212 1.350 . S
C1209 C1212 1.463 . S
C1209 C1214 1.350 . S
C1209 N1217 1.427 . S
C1210 H1201 0.930 . S
C1210 C1208 1.378 . S
C1210 C1211 1.367 . S
C1211 C1210 1.367 . S
C1211 C1213 1.433 . S
C1212 C1208 1.350 . S
C1212 C1209 1.463 . S
C1212 N1216 1.427 . S
C1213 H1203 0.929 . S
C1213 C1211 1.433 . S
C1213 N1216 1.384 . S
C1214 H1205 0.929 . S
C1214 C1206 1.378 . S
C1214 C1209 1.350 . S
C1215 H1202 0.929 . S
C1215 C1207 1.433 . S
C1215 N1217 1.384 . S
N1216 C1212 1.427 . S
N1216 C1213 1.384 . S
N1217 C1209 1.427 . S
N1217 C1215 1.384 . S
H1218 C1224 0.930 . S
H1219 C1228 0.930 . S
H1220 C1233 0.929 . S
H1221 C1231 0.929 . S
H1222 C1226 0.929 . S
H1223 C1232 0.929 . S
C1224 H1218 0.930 . S
C1224 C1225 1.367 . S
C1224 C1232 1.378 . S
C1225 C1224 1.367 . S
C1225 C1233 1.433 1_655 S
C1226 H1222 0.929 . S
C1226 C1228 1.378 . S
C1226 C1230 1.357 . S
C1227 C1230 1.462 1_655 S
C1227 C1232 1.357 . S
C1227 N1235 1.421 1_655 S
C1228 H1219 0.930 . S
C1228 C1226 1.378 . S
C1228 C1229 1.367 . S
C1229 C1228 1.367 . S
C1229 C1231 1.433 1_455 S
C1230 C1226 1.357 . S
C1230 C1227 1.462 1_455 S
C1230 N1234 1.421 1_455 S
C1231 H1221 0.929 . S
C1231 C1229 1.433 1_655 S
C1231 N1234 1.384 . S
C1232 H1223 0.929 . S
C1232 C1224 1.378 . S
C1232 C1227 1.357 . S
C1233 H1220 0.929 . S
C1233 C1225 1.433 1_455 S
C1233 N1235 1.384 . S
N1234 C1230 1.421 1_655 S
N1234 C1231 1.384 . S
N1235 C1227 1.421 1_455 S
N1235 C1233 1.384 . S
H1236 C1242 0.930 . S
H1237 C1246 0.930 . S
H1238 C1251 0.929 . S
H1239 C1249 0.929 . S
H1240 C1244 0.929 . S
H1241 C1250 0.929 . S
C1242 H1236 0.930 . S
C1242 C1243 1.367 . S
C1242 C1250 1.378 . S
C1243 C1242 1.367 . S
C1243 C1251 1.433 . S
C1244 H1240 0.929 . S
C1244 C1246 1.378 . S
C1244 C1248 1.350 . S
C1245 C1248 1.463 1_655 S
C1245 C1250 1.350 . S
C1245 N1253 1.427 . S
C1246 H1237 0.930 . S
C1246 C1244 1.378 . S
C1246 C1247 1.367 . S
C1247 C1246 1.367 . S
C1247 C1249 1.433 . S
C1248 C1244 1.350 . S
C1248 C1245 1.463 1_455 S
C1248 N1252 1.427 . S
C1249 H1239 0.929 . S
C1249 C1247 1.433 . S
C1249 N1252 1.384 . S
C1250 H1241 0.929 . S
C1250 C1242 1.378 . S
C1250 C1245 1.350 . S
C1251 H1238 0.929 . S
C1251 C1243 1.433 . S
C1251 N1253 1.384 . S
N1252 C1248 1.427 . S
N1252 C1249 1.384 . S
N1253 C1245 1.427 . S
N1253 C1251 1.384 . S
H1254 C1260 0.930 . S
H1255 C1264 0.930 . S
H1256 C1269 0.929 . S
H1257 C1267 0.929 . S
H1258 C1262 0.929 . S
H1259 C1268 0.929 . S
C1260 H1254 0.930 . S
C1260 C1261 1.367 . S
C1260 C1268 1.378 . S
C1261 C1260 1.367 . S
C1261 C1269 1.433 . S
C1262 H1258 0.929 . S
C1262 C1264 1.378 . S
C1262 C1266 1.350 . S
C1263 C1266 1.463 . S
C1263 C1268 1.350 . S
C1263 N1271 1.427 . S
C1264 H1255 0.930 . S
C1264 C1262 1.378 . S
C1264 C1265 1.367 . S
C1265 C1264 1.367 . S
C1265 C1267 1.433 . S
C1266 C1262 1.350 . S
C1266 C1263 1.463 . S
C1266 N1270 1.427 . S
C1267 H1257 0.929 . S
C1267 C1265 1.433 . S
C1267 N1270 1.384 . S
C1268 H1259 0.929 . S
C1268 C1260 1.378 . S
C1268 C1263 1.350 . S
C1269 H1256 0.929 . S
C1269 C1261 1.433 . S
C1269 N1271 1.384 . S
N1270 C1266 1.427 . S
N1270 C1267 1.384 . S
N1271 C1263 1.427 . S
N1271 C1269 1.384 . S
H1272 C1278 0.930 . S
H1273 C1282 0.930 . S
H1274 C1287 0.929 . S
H1275 C1285 0.929 . S
H1276 C1280 0.929 . S
H1277 C1286 0.929 . S
C1278 H1272 0.930 . S
C1278 C1279 1.367 . S
C1278 C1286 1.378 . S
C1279 C1278 1.367 . S
C1279 C1287 1.433 . S
C1280 H1276 0.929 . S
C1280 C1282 1.378 . S
C1280 C1284 1.350 . S
C1281 C1284 1.463 . S
C1281 C1286 1.350 . S
C1281 N1289 1.427 . S
C1282 H1273 0.930 . S
C1282 C1280 1.378 . S
C1282 C1283 1.367 . S
C1283 C1282 1.367 . S
C1283 C1285 1.433 . S
C1284 C1280 1.350 . S
C1284 C1281 1.463 . S
C1284 N1288 1.427 . S
C1285 H1275 0.929 . S
C1285 C1283 1.433 . S
C1285 N1288 1.384 . S
C1286 H1277 0.929 . S
C1286 C1278 1.378 . S
C1286 C1281 1.350 . S
C1287 H1274 0.929 . S
C1287 C1279 1.433 . S
C1287 N1289 1.384 . S
N1288 C1284 1.427 . S
N1288 C1285 1.384 . S
N1289 C1281 1.427 . S
N1289 C1287 1.384 . S
H1290 C1296 0.930 . S
H1291 C1300 0.930 . S
H1292 C1305 0.929 . S
H1293 C1303 0.929 . S
H1294 C1298 0.929 . S
H1295 C1304 0.929 . S
C1296 H1290 0.930 . S
C1296 C1297 1.367 . S
C1296 C1304 1.378 . S
C1297 C1296 1.367 . S
C1297 C1305 1.433 . S
C1298 H1294 0.929 . S
C1298 C1300 1.378 . S
C1298 C1302 1.350 . S
C1299 C1302 1.463 . S
C1299 C1304 1.350 . S
C1299 N1307 1.427 . S
C1300 H1291 0.930 . S
C1300 C1298 1.378 . S
C1300 C1301 1.367 . S
C1301 C1300 1.367 . S
C1301 C1303 1.433 . S
C1302 C1298 1.350 . S
C1302 C1299 1.463 . S
C1302 N1306 1.427 . S
C1303 H1293 0.929 . S
C1303 C1301 1.433 . S
C1303 N1306 1.384 . S
C1304 H1295 0.929 . S
C1304 C1296 1.378 . S
C1304 C1299 1.350 . S
C1305 H1292 0.929 . S
C1305 C1297 1.433 . S
C1305 N1307 1.384 . S
N1306 C1302 1.427 . S
N1306 C1303 1.384 . S
N1307 C1299 1.427 . S
N1307 C1305 1.384 . S
H1308 C1314 0.930 . S
H1309 C1318 0.930 . S
H1310 C1323 0.929 . S
H1311 C1321 0.929 . S
H1312 C1316 0.929 . S
H1313 C1322 0.929 . S
C1314 H1308 0.930 . S
C1314 C1315 1.367 . S
C1314 C1322 1.378 . S
C1315 C1314 1.367 . S
C1315 C1323 1.433 . S
C1316 H1312 0.929 . S
C1316 C1318 1.378 . S
C1316 C1320 1.350 . S
C1317 C1320 1.463 1_455 S
C1317 C1322 1.350 . S
C1317 N1325 1.427 . S
C1318 H1309 0.930 . S
C1318 C1316 1.378 . S
C1318 C1319 1.367 . S
C1319 C1318 1.367 . S
C1319 C1321 1.433 . S
C1320 C1316 1.350 . S
C1320 C1317 1.463 1_655 S
C1320 N1324 1.427 . S
C1321 H1311 0.929 . S
C1321 C1319 1.433 . S
C1321 N1324 1.384 . S
C1322 H1313 0.929 . S
C1322 C1314 1.378 . S
C1322 C1317 1.350 . S
C1323 H1310 0.929 . S
C1323 C1315 1.433 . S
C1323 N1325 1.384 . S
N1324 C1320 1.427 . S
N1324 C1321 1.384 . S
N1325 C1317 1.427 . S
N1325 C1323 1.384 . S
H1326 C1332 0.930 . S
H1327 C1336 0.930 . S
H1328 C1341 0.929 . S
H1329 C1339 0.929 . S
H1330 C1334 0.929 . S
H1331 C1340 0.929 . S
C1332 H1326 0.930 . S
C1332 C1333 1.359 1_455 S
C1332 C1340 1.378 . S
C1333 C1332 1.359 1_655 S
C1333 C1341 1.441 . S
C1334 H1330 0.929 . S
C1334 C1336 1.378 . S
C1334 C1338 1.352 . S
C1335 C1338 1.462 1_455 S
C1335 C1340 1.352 . S
C1335 N1343 1.426 1_455 S
C1336 H1327 0.930 . S
C1336 C1334 1.378 . S
C1336 C1337 1.359 1_655 S
C1337 C1336 1.359 1_455 S
C1337 C1339 1.441 . S
C1338 C1334 1.352 . S
C1338 C1335 1.462 1_655 S
C1338 N1342 1.426 1_655 S
C1339 H1329 0.929 . S
C1339 C1337 1.441 . S
C1339 N1342 1.384 . S
C1340 H1331 0.929 . S
C1340 C1332 1.378 . S
C1340 C1335 1.352 . S
C1341 H1328 0.929 . S
C1341 C1333 1.441 . S
C1341 N1343 1.384 . S
N1342 C1338 1.426 1_455 S
N1342 C1339 1.384 . S
N1343 C1335 1.426 1_655 S
N1343 C1341 1.384 . S
H1344 C1350 0.930 . S
H1345 C1354 0.930 . S
H1346 C1359 0.929 . S
H1347 C1357 0.929 . S
H1348 C1352 0.929 . S
H1349 C1358 0.929 . S
C1350 H1344 0.930 . S
C1350 C1351 1.367 . S
C1350 C1358 1.378 . S
C1351 C1350 1.367 . S
C1351 C1359 1.433 . S
C1352 H1348 0.929 . S
C1352 C1354 1.378 . S
C1352 C1356 1.350 . S
C1353 C1356 1.463 . S
C1353 C1358 1.350 . S
C1353 N1361 1.427 . S
C1354 H1345 0.930 . S
C1354 C1352 1.378 . S
C1354 C1355 1.367 . S
C1355 C1354 1.367 . S
C1355 C1357 1.433 . S
C1356 C1352 1.350 . S
C1356 C1353 1.463 . S
C1356 N1360 1.427 . S
C1357 H1347 0.929 . S
C1357 C1355 1.433 . S
C1357 N1360 1.384 . S
C1358 H1349 0.929 . S
C1358 C1350 1.378 . S
C1358 C1353 1.350 . S
C1359 H1346 0.929 . S
C1359 C1351 1.433 . S
C1359 N1361 1.384 . S
N1360 C1356 1.427 . S
N1360 C1357 1.384 . S
N1361 C1353 1.427 . S
N1361 C1359 1.384 . S
H1362 C1368 0.930 . S
H1363 C1372 0.930 . S
H1364 C1377 0.929 . S
H1365 C1375 0.929 . S
H1366 C1370 0.929 . S
H1367 C1376 0.929 . S
C1368 H1362 0.930 . S
C1368 C1369 1.367 . S
C1368 C1376 1.378 . S
C1369 C1368 1.367 . S
C1369 C1377 1.433 . S
C1370 H1366 0.929 . S
C1370 C1372 1.378 . S
C1370 C1374 1.350 . S
C1371 C1374 1.463 . S
C1371 C1376 1.350 . S
C1371 N1379 1.427 . S
C1372 H1363 0.930 . S
C1372 C1370 1.378 . S
C1372 C1373 1.367 . S
C1373 C1372 1.367 . S
C1373 C1375 1.433 . S
C1374 C1370 1.350 . S
C1374 C1371 1.463 . S
C1374 N1378 1.427 . S
C1375 H1365 0.929 . S
C1375 C1373 1.433 . S
C1375 N1378 1.384 . S
C1376 H1367 0.929 . S
C1376 C1368 1.378 . S
C1376 C1371 1.350 . S
C1377 H1364 0.929 . S
C1377 C1369 1.433 . S
C1377 N1379 1.384 . S
N1378 C1374 1.427 . S
N1378 C1375 1.384 . S
N1379 C1371 1.427 . S
N1379 C1377 1.384 . S
H1380 C1386 0.930 . S
H1381 C1390 0.930 . S
H1382 C1395 0.929 . S
H1383 C1393 0.929 . S
H1384 C1388 0.929 . S
H1385 C1394 0.929 . S
C1386 H1380 0.930 . S
C1386 C1387 1.367 . S
C1386 C1394 1.378 . S
C1387 C1386 1.367 . S
C1387 C1395 1.433 . S
C1388 H1384 0.929 . S
C1388 C1390 1.378 . S
C1388 C1392 1.350 . S
C1389 C1392 1.463 . S
C1389 C1394 1.350 . S
C1389 N1397 1.427 . S
C1390 H1381 0.930 . S
C1390 C1388 1.378 . S
C1390 C1391 1.367 . S
C1391 C1390 1.367 . S
C1391 C1393 1.433 . S
C1392 C1388 1.350 . S
C1392 C1389 1.463 . S
C1392 N1396 1.427 . S
C1393 H1383 0.929 . S
C1393 C1391 1.433 . S
C1393 N1396 1.384 . S
C1394 H1385 0.929 . S
C1394 C1386 1.378 . S
C1394 C1389 1.350 . S
C1395 H1382 0.929 . S
C1395 C1387 1.433 . S
C1395 N1397 1.384 . S
N1396 C1392 1.427 . S
N1396 C1393 1.384 . S
N1397 C1389 1.427 . S
N1397 C1395 1.384 . S
H1398 C1404 0.930 . S
H1399 C1408 0.930 . S
H1400 C1413 0.929 . S
H1401 C1411 0.929 . S
H1402 C1406 0.929 . S
H1403 C1412 0.929 . S
C1404 H1398 0.930 . S
C1404 C1405 1.367 . S
C1404 C1412 1.378 . S
C1405 C1404 1.367 . S
C1405 C1413 1.433 . S
C1406 H1402 0.929 . S
C1406 C1408 1.378 . S
C1406 C1410 1.350 . S
C1407 C1410 1.463 . S
C1407 C1412 1.350 . S
C1407 N1415 1.427 . S
C1408 H1399 0.930 . S
C1408 C1406 1.378 . S
C1408 C1409 1.367 . S
C1409 C1408 1.367 . S
C1409 C1411 1.433 . S
C1410 C1406 1.350 . S
C1410 C1407 1.463 . S
C1410 N1414 1.427 . S
C1411 H1401 0.929 . S
C1411 C1409 1.433 . S
C1411 N1414 1.384 . S
C1412 H1403 0.929 . S
C1412 C1404 1.378 . S
C1412 C1407 1.350 . S
C1413 H1400 0.929 . S
C1413 C1405 1.433 . S
C1413 N1415 1.384 . S
N1414 C1410 1.427 . S
N1414 C1411 1.384 . S
N1415 C1407 1.427 . S
N1415 C1413 1.384 . S
H1416 C1422 0.930 . S
H1417 C1426 0.930 . S
H1418 C1431 0.929 . S
H1419 C1429 0.929 . S
H1420 C1424 0.929 . S
H1421 C1430 0.929 . S
C1422 H1416 0.930 . S
C1422 C1423 1.367 . S
C1422 C1430 1.378 . S
C1423 C1422 1.367 . S
C1423 C1431 1.433 . S
C1424 H1420 0.929 . S
C1424 C1426 1.378 . S
C1424 C1428 1.350 . S
C1425 C1428 1.463 . S
C1425 C1430 1.350 . S
C1425 N1433 1.427 . S
C1426 H1417 0.930 . S
C1426 C1424 1.378 . S
C1426 C1427 1.367 . S
C1427 C1426 1.367 . S
C1427 C1429 1.433 . S
C1428 C1424 1.350 . S
C1428 C1425 1.463 . S
C1428 N1432 1.427 . S
C1429 H1419 0.929 . S
C1429 C1427 1.433 . S
C1429 N1432 1.384 . S
C1430 H1421 0.929 . S
C1430 C1422 1.378 . S
C1430 C1425 1.350 . S
C1431 H1418 0.929 . S
C1431 C1423 1.433 . S
C1431 N1433 1.384 . S
N1432 C1428 1.427 . S
N1432 C1429 1.384 . S
N1433 C1425 1.427 . S
N1433 C1431 1.384 . S
H1434 C1440 0.930 . S
H1435 C1444 0.930 . S
H1436 C1449 0.929 . S
H1437 C1447 0.929 . S
H1438 C1442 0.929 . S
H1439 C1448 0.929 . S
C1440 H1434 0.930 . S
C1440 C1441 1.367 . S
C1440 C1448 1.378 . S
C1441 C1440 1.367 . S
C1441 C1449 1.433 . S
C1442 H1438 0.929 . S
C1442 C1444 1.378 . S
C1442 C1446 1.350 . S
C1443 C1446 1.463 . S
C1443 C1448 1.350 . S
C1443 N1451 1.427 . S
C1444 H1435 0.930 . S
C1444 C1442 1.378 . S
C1444 C1445 1.367 . S
C1445 C1444 1.367 . S
C1445 C1447 1.433 . S
C1446 C1442 1.350 . S
C1446 C1443 1.463 . S
C1446 N1450 1.427 . S
C1447 H1437 0.929 . S
C1447 C1445 1.433 . S
C1447 N1450 1.384 . S
C1448 H1439 0.929 . S
C1448 C1440 1.378 . S
C1448 C1443 1.350 . S
C1449 H1436 0.929 . S
C1449 C1441 1.433 . S
C1449 N1451 1.384 . S
N1450 C1446 1.427 . S
N1450 C1447 1.384 . S
N1451 C1443 1.427 . S
N1451 C1449 1.384 . S
H1452 C1458 0.930 . S
H1453 C1462 0.930 . S
H1454 C1467 0.929 . S
H1455 C1465 0.929 . S
H1456 C1460 0.929 . S
H1457 C1466 0.929 . S
C1458 H1452 0.930 . S
C1458 C1459 1.367 . S
C1458 C1466 1.378 . S
C1459 C1458 1.367 . S
C1459 C1467 1.433 . S
C1460 H1456 0.929 . S
C1460 C1462 1.378 . S
C1460 C1464 1.350 . S
C1461 C1464 1.463 . S
C1461 C1466 1.350 . S
C1461 N1469 1.427 . S
C1462 H1453 0.930 . S
C1462 C1460 1.378 . S
C1462 C1463 1.367 . S
C1463 C1462 1.367 . S
C1463 C1465 1.433 . S
C1464 C1460 1.350 . S
C1464 C1461 1.463 . S
C1464 N1468 1.427 . S
C1465 H1455 0.929 . S
C1465 C1463 1.433 . S
C1465 N1468 1.384 . S
C1466 H1457 0.929 . S
C1466 C1458 1.378 . S
C1466 C1461 1.350 . S
C1467 H1454 0.929 . S
C1467 C1459 1.433 . S
C1467 N1469 1.384 . S
N1468 C1464 1.427 . S
N1468 C1465 1.384 . S
N1469 C1461 1.427 . S
N1469 C1467 1.384 . S
H1470 C1476 0.930 . S
H1471 C1480 0.930 . S
H1472 C1485 0.929 . S
H1473 C1483 0.929 . S
H1474 C1478 0.929 . S
H1475 C1484 0.929 . S
C1476 H1470 0.930 . S
C1476 C1477 1.367 . S
C1476 C1484 1.378 . S
C1477 C1476 1.367 . S
C1477 C1485 1.433 . S
C1478 H1474 0.929 . S
C1478 C1480 1.378 . S
C1478 C1482 1.350 . S
C1479 C1482 1.463 . S
C1479 C1484 1.350 . S
C1479 N1487 1.427 . S
C1480 H1471 0.930 . S
C1480 C1478 1.378 . S
C1480 C1481 1.367 . S
C1481 C1480 1.367 . S
C1481 C1483 1.433 . S
C1482 C1478 1.350 . S
C1482 C1479 1.463 . S
C1482 N1486 1.427 . S
C1483 H1473 0.929 . S
C1483 C1481 1.433 . S
C1483 N1486 1.384 . S
C1484 H1475 0.929 . S
C1484 C1476 1.378 . S
C1484 C1479 1.350 . S
C1485 H1472 0.929 . S
C1485 C1477 1.433 . S
C1485 N1487 1.384 . S
N1486 C1482 1.427 . S
N1486 C1483 1.384 . S
N1487 C1479 1.427 . S
N1487 C1485 1.384 . S
H1488 C1494 0.930 . S
H1489 C1498 0.930 . S
H1490 C1503 0.929 . S
H1491 C1501 0.929 . S
H1492 C1496 0.929 . S
H1493 C1502 0.929 . S
C1494 H1488 0.930 . S
C1494 C1495 1.367 . S
C1494 C1502 1.378 . S
C1495 C1494 1.367 . S
C1495 C1503 1.433 . S
C1496 H1492 0.929 . S
C1496 C1498 1.378 . S
C1496 C1500 1.350 . S
C1497 C1500 1.463 . S
C1497 C1502 1.350 . S
C1497 N1505 1.427 . S
C1498 H1489 0.930 . S
C1498 C1496 1.378 . S
C1498 C1499 1.367 . S
C1499 C1498 1.367 . S
C1499 C1501 1.433 . S
C1500 C1496 1.350 . S
C1500 C1497 1.463 . S
C1500 N1504 1.427 . S
C1501 H1491 0.929 . S
C1501 C1499 1.433 . S
C1501 N1504 1.384 . S
C1502 H1493 0.929 . S
C1502 C1494 1.378 . S
C1502 C1497 1.350 . S
C1503 H1490 0.929 . S
C1503 C1495 1.433 . S
C1503 N1505 1.384 . S
N1504 C1500 1.427 . S
N1504 C1501 1.384 . S
N1505 C1497 1.427 . S
N1505 C1503 1.384 . S
H1506 C1512 0.930 . S
H1507 C1516 0.930 . S
H1508 C1521 0.929 . S
H1509 C1519 0.929 . S
H1510 C1514 0.929 . S
H1511 C1520 0.929 . S
C1512 H1506 0.930 . S
C1512 C1513 1.367 . S
C1512 C1520 1.378 . S
C1513 C1512 1.367 . S
C1513 C1521 1.433 . S
C1514 H1510 0.929 . S
C1514 C1516 1.378 . S
C1514 C1518 1.350 . S
C1515 C1518 1.463 . S
C1515 C1520 1.350 . S
C1515 N1523 1.427 . S
C1516 H1507 0.930 . S
C1516 C1514 1.378 . S
C1516 C1517 1.367 . S
C1517 C1516 1.367 . S
C1517 C1519 1.433 . S
C1518 C1514 1.350 . S
C1518 C1515 1.463 . S
C1518 N1522 1.427 . S
C1519 H1509 0.929 . S
C1519 C1517 1.433 . S
C1519 N1522 1.384 . S
C1520 H1511 0.929 . S
C1520 C1512 1.378 . S
C1520 C1515 1.350 . S
C1521 H1508 0.929 . S
C1521 C1513 1.433 . S
C1521 N1523 1.384 . S
N1522 C1518 1.427 . S
N1522 C1519 1.384 . S
N1523 C1515 1.427 . S
N1523 C1521 1.384 . S
H1524 C1530 0.930 . S
H1525 C1534 0.930 . S
H1526 C1539 0.929 . S
H1527 C1537 0.929 . S
H1528 C1532 0.929 . S
H1529 C1538 0.929 . S
C1530 H1524 0.930 . S
C1530 C1531 1.367 . S
C1530 C1538 1.378 . S
C1531 C1530 1.367 . S
C1531 C1539 1.433 . S
C1532 H1528 0.929 . S
C1532 C1534 1.378 . S
C1532 C1536 1.350 . S
C1533 C1536 1.463 . S
C1533 C1538 1.350 . S
C1533 N1541 1.427 . S
C1534 H1525 0.930 . S
C1534 C1532 1.378 . S
C1534 C1535 1.367 . S
C1535 C1534 1.367 . S
C1535 C1537 1.433 . S
C1536 C1532 1.350 . S
C1536 C1533 1.463 . S
C1536 N1540 1.427 . S
C1537 H1527 0.929 . S
C1537 C1535 1.433 . S
C1537 N1540 1.384 . S
C1538 H1529 0.929 . S
C1538 C1530 1.378 . S
C1538 C1533 1.350 . S
C1539 H1526 0.929 . S
C1539 C1531 1.433 . S
C1539 N1541 1.384 . S
N1540 C1536 1.427 . S
N1540 C1537 1.384 . S
N1541 C1533 1.427 . S
N1541 C1539 1.384 . S
H1542 C1548 0.930 . S
H1543 C1552 0.930 . S
H1544 C1557 0.929 . S
H1545 C1555 0.929 . S
H1546 C1550 0.929 . S
H1547 C1556 0.929 . S
C1548 H1542 0.930 . S
C1548 C1549 1.367 . S
C1548 C1556 1.378 . S
C1549 C1548 1.367 . S
C1549 C1557 1.433 . S
C1550 H1546 0.929 . S
C1550 C1552 1.378 . S
C1550 C1554 1.350 . S
C1551 C1554 1.463 . S
C1551 C1556 1.350 . S
C1551 N1559 1.427 . S
C1552 H1543 0.930 . S
C1552 C1550 1.378 . S
C1552 C1553 1.367 . S
C1553 C1552 1.367 . S
C1553 C1555 1.433 . S
C1554 C1550 1.350 . S
C1554 C1551 1.463 . S
C1554 N1558 1.427 . S
C1555 H1545 0.929 . S
C1555 C1553 1.433 . S
C1555 N1558 1.384 . S
C1556 H1547 0.929 . S
C1556 C1548 1.378 . S
C1556 C1551 1.350 . S
C1557 H1544 0.929 . S
C1557 C1549 1.433 . S
C1557 N1559 1.384 . S
N1558 C1554 1.427 . S
N1558 C1555 1.384 . S
N1559 C1551 1.427 . S
N1559 C1557 1.384 . S
H1560 C1566 0.930 . S
H1561 C1570 0.930 . S
H1562 C1575 0.929 . S
H1563 C1573 0.929 . S
H1564 C1568 0.929 . S
H1565 C1574 0.929 . S
C1566 H1560 0.930 . S
C1566 C1567 1.367 . S
C1566 C1574 1.378 . S
C1567 C1566 1.367 . S
C1567 C1575 1.433 . S
C1568 H1564 0.929 . S
C1568 C1570 1.378 . S
C1568 C1572 1.350 . S
C1569 C1572 1.463 . S
C1569 C1574 1.350 . S
C1569 N1577 1.427 . S
C1570 H1561 0.930 . S
C1570 C1568 1.378 . S
C1570 C1571 1.367 . S
C1571 C1570 1.367 . S
C1571 C1573 1.433 . S
C1572 C1568 1.350 . S
C1572 C1569 1.463 . S
C1572 N1576 1.427 . S
C1573 H1563 0.929 . S
C1573 C1571 1.433 . S
C1573 N1576 1.384 . S
C1574 H1565 0.929 . S
C1574 C1566 1.378 . S
C1574 C1569 1.350 . S
C1575 H1562 0.929 . S
C1575 C1567 1.433 . S
C1575 N1577 1.384 . S
N1576 C1572 1.427 . S
N1576 C1573 1.384 . S
N1577 C1569 1.427 . S
N1577 C1575 1.384 . S
H1578 C1584 0.930 . S
H1579 C1588 0.930 . S
H1580 C1593 0.929 . S
H1581 C1591 0.929 . S
H1582 C1586 0.929 . S
H1583 C1592 0.929 . S
C1584 H1578 0.930 . S
C1584 C1585 1.367 . S
C1584 C1592 1.378 . S
C1585 C1584 1.367 . S
C1585 C1593 1.433 . S
C1586 H1582 0.929 . S
C1586 C1588 1.378 . S
C1586 C1590 1.350 . S
C1587 C1590 1.463 . S
C1587 C1592 1.350 . S
C1587 N1595 1.427 . S
C1588 H1579 0.930 . S
C1588 C1586 1.378 . S
C1588 C1589 1.367 . S
C1589 C1588 1.367 . S
C1589 C1591 1.433 . S
C1590 C1586 1.350 . S
C1590 C1587 1.463 . S
C1590 N1594 1.427 . S
C1591 H1581 0.929 . S
C1591 C1589 1.433 . S
C1591 N1594 1.384 . S
C1592 H1583 0.929 . S
C1592 C1584 1.378 . S
C1592 C1587 1.350 . S
C1593 H1580 0.929 . S
C1593 C1585 1.433 . S
C1593 N1595 1.384 . S
N1594 C1590 1.427 . S
N1594 C1591 1.384 . S
N1595 C1587 1.427 . S
N1595 C1593 1.384 . S
H1596 C1602 0.930 . S
H1597 C1606 0.930 . S
H1598 C1611 0.929 . S
H1599 C1609 0.929 . S
H1600 C1604 0.929 . S
H1601 C1610 0.929 . S
C1602 H1596 0.930 . S
C1602 C1603 1.367 . S
C1602 C1610 1.378 . S
C1603 C1602 1.367 . S
C1603 C1611 1.433 . S
C1604 H1600 0.929 . S
C1604 C1606 1.378 . S
C1604 C1608 1.350 . S
C1605 C1608 1.463 . S
C1605 C1610 1.350 . S
C1605 N1613 1.427 . S
C1606 H1597 0.930 . S
C1606 C1604 1.378 . S
C1606 C1607 1.367 . S
C1607 C1606 1.367 . S
C1607 C1609 1.433 . S
C1608 C1604 1.350 . S
C1608 C1605 1.463 . S
C1608 N1612 1.427 . S
C1609 H1599 0.929 . S
C1609 C1607 1.433 . S
C1609 N1612 1.384 . S
C1610 H1601 0.929 . S
C1610 C1602 1.378 . S
C1610 C1605 1.350 . S
C1611 H1598 0.929 . S
C1611 C1603 1.433 . S
C1611 N1613 1.384 . S
N1612 C1608 1.427 . S
N1612 C1609 1.384 . S
N1613 C1605 1.427 . S
N1613 C1611 1.384 . S
H1614 C1620 0.930 . S
H1615 C1624 0.930 . S
H1616 C1629 0.929 . S
H1617 C1627 0.929 . S
H1618 C1622 0.929 . S
H1619 C1628 0.929 . S
C1620 H1614 0.930 . S
C1620 C1621 1.367 . S
C1620 C1628 1.378 . S
C1621 C1620 1.367 . S
C1621 C1629 1.433 . S
C1622 H1618 0.929 . S
C1622 C1624 1.378 . S
C1622 C1626 1.350 . S
C1623 C1626 1.463 . S
C1623 C1628 1.350 . S
C1623 N1631 1.427 . S
C1624 H1615 0.930 . S
C1624 C1622 1.378 . S
C1624 C1625 1.367 . S
C1625 C1624 1.367 . S
C1625 C1627 1.433 . S
C1626 C1622 1.350 . S
C1626 C1623 1.463 . S
C1626 N1630 1.427 . S
C1627 H1617 0.929 . S
C1627 C1625 1.433 . S
C1627 N1630 1.384 . S
C1628 H1619 0.929 . S
C1628 C1620 1.378 . S
C1628 C1623 1.350 . S
C1629 H1616 0.929 . S
C1629 C1621 1.433 . S
C1629 N1631 1.384 . S
N1630 C1626 1.427 . S
N1630 C1627 1.384 . S
N1631 C1623 1.427 . S
N1631 C1629 1.384 . S
H1632 C1638 0.930 . S
H1633 C1642 0.930 . S
H1634 C1647 0.929 . S
H1635 C1645 0.929 . S
H1636 C1640 0.929 . S
H1637 C1646 0.929 . S
C1638 H1632 0.930 . S
C1638 C1639 1.367 . S
C1638 C1646 1.378 . S
C1639 C1638 1.367 . S
C1639 C1647 1.433 . S
C1640 H1636 0.929 . S
C1640 C1642 1.378 . S
C1640 C1644 1.350 . S
C1641 C1644 1.463 . S
C1641 C1646 1.350 . S
C1641 N1649 1.427 . S
C1642 H1633 0.930 . S
C1642 C1640 1.378 . S
C1642 C1643 1.367 . S
C1643 C1642 1.367 . S
C1643 C1645 1.433 . S
C1644 C1640 1.350 . S
C1644 C1641 1.463 . S
C1644 N1648 1.427 . S
C1645 H1635 0.929 . S
C1645 C1643 1.433 . S
C1645 N1648 1.384 . S
C1646 H1637 0.929 . S
C1646 C1638 1.378 . S
C1646 C1641 1.350 . S
C1647 H1634 0.929 . S
C1647 C1639 1.433 . S
C1647 N1649 1.384 . S
N1648 C1644 1.427 . S
N1648 C1645 1.384 . S
N1649 C1641 1.427 . S
N1649 C1647 1.384 . S
H1650 C1656 0.930 . S
H1651 C1660 0.930 . S
H1652 C1665 0.929 . S
H1653 C1663 0.929 . S
H1654 C1658 0.929 . S
H1655 C1664 0.929 . S
C1656 H1650 0.930 . S
C1656 C1657 1.367 . S
C1656 C1664 1.378 . S
C1657 C1656 1.367 . S
C1657 C1665 1.433 . S
C1658 H1654 0.929 . S
C1658 C1660 1.378 . S
C1658 C1662 1.350 . S
C1659 C1662 1.463 . S
C1659 C1664 1.350 . S
C1659 N1667 1.427 . S
C1660 H1651 0.930 . S
C1660 C1658 1.378 . S
C1660 C1661 1.367 . S
C1661 C1660 1.367 . S
C1661 C1663 1.433 . S
C1662 C1658 1.350 . S
C1662 C1659 1.463 . S
C1662 N1666 1.427 . S
C1663 H1653 0.929 . S
C1663 C1661 1.433 . S
C1663 N1666 1.384 . S
C1664 H1655 0.929 . S
C1664 C1656 1.378 . S
C1664 C1659 1.350 . S
C1665 H1652 0.929 . S
C1665 C1657 1.433 . S
C1665 N1667 1.384 . S
N1666 C1662 1.427 . S
N1666 C1663 1.384 . S
N1667 C1659 1.427 . S
N1667 C1665 1.384 . S
H1668 C1674 0.930 . S
H1669 C1678 0.930 . S
H1670 C1683 0.929 . S
H1671 C1681 0.929 . S
H1672 C1676 0.929 . S
H1673 C1682 0.929 . S
C1674 H1668 0.930 . S
C1674 C1675 1.367 . S
C1674 C1682 1.378 . S
C1675 C1674 1.367 . S
C1675 C1683 1.433 . S
C1676 H1672 0.929 . S
C1676 C1678 1.378 . S
C1676 C1680 1.350 . S
C1677 C1680 1.463 . S
C1677 C1682 1.350 . S
C1677 N1685 1.427 . S
C1678 H1669 0.930 . S
C1678 C1676 1.378 . S
C1678 C1679 1.367 . S
C1679 C1678 1.367 . S
C1679 C1681 1.433 . S
C1680 C1676 1.350 . S
C1680 C1677 1.463 . S
C1680 N1684 1.427 . S
C1681 H1671 0.929 . S
C1681 C1679 1.433 . S
C1681 N1684 1.384 . S
C1682 H1673 0.929 . S
C1682 C1674 1.378 . S
C1682 C1677 1.350 . S
C1683 H1670 0.929 . S
C1683 C1675 1.433 . S
C1683 N1685 1.384 . S
N1684 C1680 1.427 . S
N1684 C1681 1.384 . S
N1685 C1677 1.427 . S
N1685 C1683 1.384 . S
H1686 C1692 0.930 . S
H1687 C1696 0.930 . S
H1688 C1701 0.929 . S
H1689 C1699 0.929 . S
H1690 C1694 0.929 . S
H1691 C1700 0.929 . S
C1692 H1686 0.930 . S
C1692 C1693 1.367 . S
C1692 C1700 1.378 . S
C1693 C1692 1.367 . S
C1693 C1701 1.433 . S
C1694 H1690 0.929 . S
C1694 C1696 1.378 . S
C1694 C1698 1.350 . S
C1695 C1698 1.463 . S
C1695 C1700 1.350 . S
C1695 N1703 1.427 . S
C1696 H1687 0.930 . S
C1696 C1694 1.378 . S
C1696 C1697 1.367 . S
C1697 C1696 1.367 . S
C1697 C1699 1.433 . S
C1698 C1694 1.350 . S
C1698 C1695 1.463 . S
C1698 N1702 1.427 . S
C1699 H1689 0.929 . S
C1699 C1697 1.433 . S
C1699 N1702 1.384 . S
C1700 H1691 0.929 . S
C1700 C1692 1.378 . S
C1700 C1695 1.350 . S
C1701 H1688 0.929 . S
C1701 C1693 1.433 . S
C1701 N1703 1.384 . S
N1702 C1698 1.427 . S
N1702 C1699 1.384 . S
N1703 C1695 1.427 . S
N1703 C1701 1.384 . S
H1704 C1710 0.930 . S
H1705 C1714 0.930 . S
H1706 C1719 0.929 . S
H1707 C1717 0.929 . S
H1708 C1712 0.929 . S
H1709 C1718 0.929 . S
C1710 H1704 0.930 . S
C1710 C1711 1.367 . S
C1710 C1718 1.378 . S
C1711 C1710 1.367 . S
C1711 C1719 1.433 . S
C1712 H1708 0.929 . S
C1712 C1714 1.378 . S
C1712 C1716 1.350 . S
C1713 C1716 1.463 . S
C1713 C1718 1.350 . S
C1713 N1721 1.427 . S
C1714 H1705 0.930 . S
C1714 C1712 1.378 . S
C1714 C1715 1.367 . S
C1715 C1714 1.367 . S
C1715 C1717 1.433 . S
C1716 C1712 1.350 . S
C1716 C1713 1.463 . S
C1716 N1720 1.427 . S
C1717 H1707 0.929 . S
C1717 C1715 1.433 . S
C1717 N1720 1.384 . S
C1718 H1709 0.929 . S
C1718 C1710 1.378 . S
C1718 C1713 1.350 . S
C1719 H1706 0.929 . S
C1719 C1711 1.433 . S
C1719 N1721 1.384 . S
N1720 C1716 1.427 . S
N1720 C1717 1.384 . S
N1721 C1713 1.427 . S
N1721 C1719 1.384 . S
H1722 C1728 0.930 . S
H1723 C1732 0.930 . S
H1724 C1737 0.929 . S
H1725 C1735 0.929 . S
H1726 C1730 0.929 . S
H1727 C1736 0.929 . S
C1728 H1722 0.930 . S
C1728 C1729 1.367 . S
C1728 C1736 1.378 . S
C1729 C1728 1.367 . S
C1729 C1737 1.433 . S
C1730 H1726 0.929 . S
C1730 C1732 1.378 . S
C1730 C1734 1.350 . S
C1731 C1734 1.463 . S
C1731 C1736 1.350 . S
C1731 N1739 1.427 . S
C1732 H1723 0.930 . S
C1732 C1730 1.378 . S
C1732 C1733 1.367 . S
C1733 C1732 1.367 . S
C1733 C1735 1.433 . S
C1734 C1730 1.350 . S
C1734 C1731 1.463 . S
C1734 N1738 1.427 . S
C1735 H1725 0.929 . S
C1735 C1733 1.433 . S
C1735 N1738 1.384 . S
C1736 H1727 0.929 . S
C1736 C1728 1.378 . S
C1736 C1731 1.350 . S
C1737 H1724 0.929 . S
C1737 C1729 1.433 . S
C1737 N1739 1.384 . S
N1738 C1734 1.427 . S
N1738 C1735 1.384 . S
N1739 C1731 1.427 . S
N1739 C1737 1.384 . S
H1740 C1746 0.930 . S
H1741 C1750 0.930 . S
H1742 C1755 0.929 . S
H1743 C1753 0.929 . S
H1744 C1748 0.929 . S
H1745 C1754 0.929 . S
C1746 H1740 0.930 . S
C1746 C1747 1.367 . S
C1746 C1754 1.378 . S
C1747 C1746 1.367 . S
C1747 C1755 1.433 . S
C1748 H1744 0.929 . S
C1748 C1750 1.378 . S
C1748 C1752 1.350 . S
C1749 C1752 1.463 . S
C1749 C1754 1.350 . S
C1749 N1757 1.427 . S
C1750 H1741 0.930 . S
C1750 C1748 1.378 . S
C1750 C1751 1.367 . S
C1751 C1750 1.367 . S
C1751 C1753 1.433 . S
C1752 C1748 1.350 . S
C1752 C1749 1.463 . S
C1752 N1756 1.427 . S
C1753 H1743 0.929 . S
C1753 C1751 1.433 . S
C1753 N1756 1.384 . S
C1754 H1745 0.929 . S
C1754 C1746 1.378 . S
C1754 C1749 1.350 . S
C1755 H1742 0.929 . S
C1755 C1747 1.433 . S
C1755 N1757 1.384 . S
N1756 C1752 1.427 . S
N1756 C1753 1.384 . S
N1757 C1749 1.427 . S
N1757 C1755 1.384 . S
H1758 C1764 0.930 . S
H1759 C1768 0.930 . S
H1760 C1773 0.929 . S
H1761 C1771 0.929 . S
H1762 C1766 0.929 . S
H1763 C1772 0.929 . S
C1764 H1758 0.930 . S
C1764 C1765 1.367 . S
C1764 C1772 1.378 . S
C1765 C1764 1.367 . S
C1765 C1773 1.433 . S
C1766 H1762 0.929 . S
C1766 C1768 1.378 . S
C1766 C1770 1.350 . S
C1767 C1770 1.463 . S
C1767 C1772 1.350 . S
C1767 N1775 1.427 . S
C1768 H1759 0.930 . S
C1768 C1766 1.378 . S
C1768 C1769 1.367 . S
C1769 C1768 1.367 . S
C1769 C1771 1.433 . S
C1770 C1766 1.350 . S
C1770 C1767 1.463 . S
C1770 N1774 1.427 . S
C1771 H1761 0.929 . S
C1771 C1769 1.433 . S
C1771 N1774 1.384 . S
C1772 H1763 0.929 . S
C1772 C1764 1.378 . S
C1772 C1767 1.350 . S
C1773 H1760 0.929 . S
C1773 C1765 1.433 . S
C1773 N1775 1.384 . S
N1774 C1770 1.427 . S
N1774 C1771 1.384 . S
N1775 C1767 1.427 . S
N1775 C1773 1.384 . S
H1776 C1782 0.930 . S
H1777 C1786 0.930 . S
H1778 C1791 0.929 . S
H1779 C1789 0.929 . S
H1780 C1784 0.929 . S
H1781 C1790 0.929 . S
C1782 H1776 0.930 . S
C1782 C1783 1.367 . S
C1782 C1790 1.378 . S
C1783 C1782 1.367 . S
C1783 C1791 1.433 . S
C1784 H1780 0.929 . S
C1784 C1786 1.378 . S
C1784 C1788 1.350 . S
C1785 C1788 1.463 . S
C1785 C1790 1.350 . S
C1785 N1793 1.427 . S
C1786 H1777 0.930 . S
C1786 C1784 1.378 . S
C1786 C1787 1.367 . S
C1787 C1786 1.367 . S
C1787 C1789 1.433 . S
C1788 C1784 1.350 . S
C1788 C1785 1.463 . S
C1788 N1792 1.427 . S
C1789 H1779 0.929 . S
C1789 C1787 1.433 . S
C1789 N1792 1.384 . S
C1790 H1781 0.929 . S
C1790 C1782 1.378 . S
C1790 C1785 1.350 . S
C1791 H1778 0.929 . S
C1791 C1783 1.433 . S
C1791 N1793 1.384 . S
N1792 C1788 1.427 . S
N1792 C1789 1.384 . S
N1793 C1785 1.427 . S
N1793 C1791 1.384 . S
H1794 C1800 0.930 . S
H1795 C1804 0.930 . S
H1796 C1809 0.929 . S
H1797 C1807 0.929 . S
H1798 C1802 0.929 . S
H1799 C1808 0.929 . S
C1800 H1794 0.930 . S
C1800 C1801 1.367 . S
C1800 C1808 1.378 . S
C1801 C1800 1.367 . S
C1801 C1809 1.433 . S
C1802 H1798 0.929 . S
C1802 C1804 1.378 . S
C1802 C1806 1.350 . S
C1803 C1806 1.463 . S
C1803 C1808 1.350 . S
C1803 N1811 1.427 . S
C1804 H1795 0.930 . S
C1804 C1802 1.378 . S
C1804 C1805 1.367 . S
C1805 C1804 1.367 . S
C1805 C1807 1.433 . S
C1806 C1802 1.350 . S
C1806 C1803 1.463 . S
C1806 N1810 1.427 . S
C1807 H1797 0.929 . S
C1807 C1805 1.433 . S
C1807 N1810 1.384 . S
C1808 H1799 0.929 . S
C1808 C1800 1.378 . S
C1808 C1803 1.350 . S
C1809 H1796 0.929 . S
C1809 C1801 1.433 . S
C1809 N1811 1.384 . S
N1810 C1806 1.427 . S
N1810 C1807 1.384 . S
N1811 C1803 1.427 . S
N1811 C1809 1.384 . S
H1812 C1818 0.930 . S
H1813 C1822 0.930 . S
H1814 C1827 0.929 . S
H1815 C1825 0.929 . S
H1816 C1820 0.929 . S
H1817 C1826 0.929 . S
C1818 H1812 0.930 . S
C1818 C1819 1.367 . S
C1818 C1826 1.378 . S
C1819 C1818 1.367 . S
C1819 C1827 1.433 . S
C1820 H1816 0.929 . S
C1820 C1822 1.378 . S
C1820 C1824 1.350 . S
C1821 C1824 1.463 . S
C1821 C1826 1.350 . S
C1821 N1829 1.427 . S
C1822 H1813 0.930 . S
C1822 C1820 1.378 . S
C1822 C1823 1.367 . S
C1823 C1822 1.367 . S
C1823 C1825 1.433 . S
C1824 C1820 1.350 . S
C1824 C1821 1.463 . S
C1824 N1828 1.427 . S
C1825 H1815 0.929 . S
C1825 C1823 1.433 . S
C1825 N1828 1.384 . S
C1826 H1817 0.929 . S
C1826 C1818 1.378 . S
C1826 C1821 1.350 . S
C1827 H1814 0.929 . S
C1827 C1819 1.433 . S
C1827 N1829 1.384 . S
N1828 C1824 1.427 . S
N1828 C1825 1.384 . S
N1829 C1821 1.427 . S
N1829 C1827 1.384 . S
H1830 C1836 0.930 . S
H1831 C1840 0.930 . S
H1832 C1845 0.929 . S
H1833 C1843 0.929 . S
H1834 C1838 0.929 . S
H1835 C1844 0.929 . S
C1836 H1830 0.930 . S
C1836 C1837 1.367 . S
C1836 C1844 1.378 . S
C1837 C1836 1.367 . S
C1837 C1845 1.433 . S
C1838 H1834 0.929 . S
C1838 C1840 1.378 . S
C1838 C1842 1.350 . S
C1839 C1842 1.463 . S
C1839 C1844 1.350 . S
C1839 N1847 1.427 . S
C1840 H1831 0.930 . S
C1840 C1838 1.378 . S
C1840 C1841 1.367 . S
C1841 C1840 1.367 . S
C1841 C1843 1.433 . S
C1842 C1838 1.350 . S
C1842 C1839 1.463 . S
C1842 N1846 1.427 . S
C1843 H1833 0.929 . S
C1843 C1841 1.433 . S
C1843 N1846 1.384 . S
C1844 H1835 0.929 . S
C1844 C1836 1.378 . S
C1844 C1839 1.350 . S
C1845 H1832 0.929 . S
C1845 C1837 1.433 . S
C1845 N1847 1.384 . S
N1846 C1842 1.427 . S
N1846 C1843 1.384 . S
N1847 C1839 1.427 . S
N1847 C1845 1.384 . S
H1848 C1854 0.930 . S
H1849 C1858 0.930 . S
H1850 C1863 0.929 . S
H1851 C1861 0.929 . S
H1852 C1856 0.929 . S
H1853 C1862 0.929 . S
C1854 H1848 0.930 . S
C1854 C1855 1.367 . S
C1854 C1862 1.378 . S
C1855 C1854 1.367 . S
C1855 C1863 1.433 . S
C1856 H1852 0.929 . S
C1856 C1858 1.378 . S
C1856 C1860 1.350 . S
C1857 C1860 1.463 . S
C1857 C1862 1.350 . S
C1857 N1865 1.427 . S
C1858 H1849 0.930 . S
C1858 C1856 1.378 . S
C1858 C1859 1.367 . S
C1859 C1858 1.367 . S
C1859 C1861 1.433 . S
C1860 C1856 1.350 . S
C1860 C1857 1.463 . S
C1860 N1864 1.427 . S
C1861 H1851 0.929 . S
C1861 C1859 1.433 . S
C1861 N1864 1.384 . S
C1862 H1853 0.929 . S
C1862 C1854 1.378 . S
C1862 C1857 1.350 . S
C1863 H1850 0.929 . S
C1863 C1855 1.433 . S
C1863 N1865 1.384 . S
N1864 C1860 1.427 . S
N1864 C1861 1.384 . S
N1865 C1857 1.427 . S
N1865 C1863 1.384 . S
H1866 C1872 0.930 . S
H1867 C1876 0.930 . S
H1868 C1881 0.929 . S
H1869 C1879 0.929 . S
H1870 C1874 0.929 . S
H1871 C1880 0.929 . S
C1872 H1866 0.930 . S
C1872 C1873 1.367 . S
C1872 C1880 1.378 . S
C1873 C1872 1.367 . S
C1873 C1881 1.433 . S
C1874 H1870 0.929 . S
C1874 C1876 1.378 . S
C1874 C1878 1.350 . S
C1875 C1878 1.463 . S
C1875 C1880 1.350 . S
C1875 N1883 1.427 . S
C1876 H1867 0.930 . S
C1876 C1874 1.378 . S
C1876 C1877 1.367 . S
C1877 C1876 1.367 . S
C1877 C1879 1.433 . S
C1878 C1874 1.350 . S
C1878 C1875 1.463 . S
C1878 N1882 1.427 . S
C1879 H1869 0.929 . S
C1879 C1877 1.433 . S
C1879 N1882 1.384 . S
C1880 H1871 0.929 . S
C1880 C1872 1.378 . S
C1880 C1875 1.350 . S
C1881 H1868 0.929 . S
C1881 C1873 1.433 . S
C1881 N1883 1.384 . S
N1882 C1878 1.427 . S
N1882 C1879 1.384 . S
N1883 C1875 1.427 . S
N1883 C1881 1.384 . S
H1884 C1890 0.930 . S
H1885 C1894 0.930 . S
H1886 C1899 0.929 . S
H1887 C1897 0.929 . S
H1888 C1892 0.929 . S
H1889 C1898 0.929 . S
C1890 H1884 0.930 . S
C1890 C1891 1.367 . S
C1890 C1898 1.378 . S
C1891 C1890 1.367 . S
C1891 C1899 1.433 . S
C1892 H1888 0.929 . S
C1892 C1894 1.378 . S
C1892 C1896 1.350 . S
C1893 C1896 1.463 . S
C1893 C1898 1.350 . S
C1893 N1901 1.427 . S
C1894 H1885 0.930 . S
C1894 C1892 1.378 . S
C1894 C1895 1.367 . S
C1895 C1894 1.367 . S
C1895 C1897 1.433 . S
C1896 C1892 1.350 . S
C1896 C1893 1.463 . S
C1896 N1900 1.427 . S
C1897 H1887 0.929 . S
C1897 C1895 1.433 . S
C1897 N1900 1.384 . S
C1898 H1889 0.929 . S
C1898 C1890 1.378 . S
C1898 C1893 1.350 . S
C1899 H1886 0.929 . S
C1899 C1891 1.433 . S
C1899 N1901 1.384 . S
N1900 C1896 1.427 . S
N1900 C1897 1.384 . S
N1901 C1893 1.427 . S
N1901 C1899 1.384 . S
H1902 C1908 0.930 . S
H1903 C1912 0.930 . S
H1904 C1917 0.929 . S
H1905 C1915 0.929 . S
H1906 C1910 0.929 . S
H1907 C1916 0.929 . S
C1908 H1902 0.930 . S
C1908 C1909 1.367 . S
C1908 C1916 1.378 . S
C1909 C1908 1.367 . S
C1909 C1917 1.433 . S
C1910 H1906 0.929 . S
C1910 C1912 1.378 . S
C1910 C1914 1.350 . S
C1911 C1914 1.463 . S
C1911 C1916 1.350 . S
C1911 N1919 1.427 . S
C1912 H1903 0.930 . S
C1912 C1910 1.378 . S
C1912 C1913 1.367 . S
C1913 C1912 1.367 . S
C1913 C1915 1.433 . S
C1914 C1910 1.350 . S
C1914 C1911 1.463 . S
C1914 N1918 1.427 . S
C1915 H1905 0.929 . S
C1915 C1913 1.433 . S
C1915 N1918 1.384 . S
C1916 H1907 0.929 . S
C1916 C1908 1.378 . S
C1916 C1911 1.350 . S
C1917 H1904 0.929 . S
C1917 C1909 1.433 . S
C1917 N1919 1.384 . S
N1918 C1914 1.427 . S
N1918 C1915 1.384 . S
N1919 C1911 1.427 . S
N1919 C1917 1.384 . S
H1920 C1926 0.930 . S
H1921 C1930 0.930 . S
H1922 C1935 0.929 . S
H1923 C1933 0.929 . S
H1924 C1928 0.929 . S
H1925 C1934 0.929 . S
C1926 H1920 0.930 . S
C1926 C1927 1.367 . S
C1926 C1934 1.378 . S
C1927 C1926 1.367 . S
C1927 C1935 1.433 . S
C1928 H1924 0.929 . S
C1928 C1930 1.378 . S
C1928 C1932 1.350 . S
C1929 C1932 1.463 . S
C1929 C1934 1.350 . S
C1929 N1937 1.427 . S
C1930 H1921 0.930 . S
C1930 C1928 1.378 . S
C1930 C1931 1.367 . S
C1931 C1930 1.367 . S
C1931 C1933 1.433 . S
C1932 C1928 1.350 . S
C1932 C1929 1.463 . S
C1932 N1936 1.427 . S
C1933 H1923 0.929 . S
C1933 C1931 1.433 . S
C1933 N1936 1.384 . S
C1934 H1925 0.929 . S
C1934 C1926 1.378 . S
C1934 C1929 1.350 . S
C1935 H1922 0.929 . S
C1935 C1927 1.433 . S
C1935 N1937 1.384 . S
N1936 C1932 1.427 . S
N1936 C1933 1.384 . S
N1937 C1929 1.427 . S
N1937 C1935 1.384 . S
H1938 C1944 0.930 . S
H1939 C1948 0.930 . S
H1940 C1953 0.929 . S
H1941 C1951 0.929 . S
H1942 C1946 0.929 . S
H1943 C1952 0.929 . S
C1944 H1938 0.930 . S
C1944 C1945 1.367 . S
C1944 C1952 1.378 . S
C1945 C1944 1.367 . S
C1945 C1953 1.433 . S
C1946 H1942 0.929 . S
C1946 C1948 1.378 . S
C1946 C1950 1.350 . S
C1947 C1950 1.463 . S
C1947 C1952 1.350 . S
C1947 N1955 1.427 . S
C1948 H1939 0.930 . S
C1948 C1946 1.378 . S
C1948 C1949 1.367 . S
C1949 C1948 1.367 . S
C1949 C1951 1.433 . S
C1950 C1946 1.350 . S
C1950 C1947 1.463 . S
C1950 N1954 1.427 . S
C1951 H1941 0.929 . S
C1951 C1949 1.433 . S
C1951 N1954 1.384 . S
C1952 H1943 0.929 . S
C1952 C1944 1.378 . S
C1952 C1947 1.350 . S
C1953 H1940 0.929 . S
C1953 C1945 1.433 . S
C1953 N1955 1.384 . S
N1954 C1950 1.427 . S
N1954 C1951 1.384 . S
N1955 C1947 1.427 . S
N1955 C1953 1.384 . S
H1956 C1962 0.930 . S
H1957 C1966 0.930 . S
H1958 C1971 0.929 . S
H1959 C1969 0.929 . S
H1960 C1964 0.929 . S
H1961 C1970 0.929 . S
C1962 H1956 0.930 . S
C1962 C1963 1.367 . S
C1962 C1970 1.378 . S
C1963 C1962 1.367 . S
C1963 C1971 1.433 . S
C1964 H1960 0.929 . S
C1964 C1966 1.378 . S
C1964 C1968 1.350 . S
C1965 C1968 1.463 . S
C1965 C1970 1.350 . S
C1965 N1973 1.427 . S
C1966 H1957 0.930 . S
C1966 C1964 1.378 . S
C1966 C1967 1.367 . S
C1967 C1966 1.367 . S
C1967 C1969 1.433 . S
C1968 C1964 1.350 . S
C1968 C1965 1.463 . S
C1968 N1972 1.427 . S
C1969 H1959 0.929 . S
C1969 C1967 1.433 . S
C1969 N1972 1.384 . S
C1970 H1961 0.929 . S
C1970 C1962 1.378 . S
C1970 C1965 1.350 . S
C1971 H1958 0.929 . S
C1971 C1963 1.433 . S
C1971 N1973 1.384 . S
N1972 C1968 1.427 . S
N1972 C1969 1.384 . S
N1973 C1965 1.427 . S
N1973 C1971 1.384 . S
H1974 C1980 0.930 . S
H1975 C1984 0.930 . S
H1976 C1989 0.929 . S
H1977 C1987 0.929 . S
H1978 C1982 0.929 . S
H1979 C1988 0.929 . S
C1980 H1974 0.930 . S
C1980 C1981 1.367 . S
C1980 C1988 1.378 . S
C1981 C1980 1.367 . S
C1981 C1989 1.433 . S
C1982 H1978 0.929 . S
C1982 C1984 1.378 . S
C1982 C1986 1.350 . S
C1983 C1986 1.463 . S
C1983 C1988 1.350 . S
C1983 N1991 1.427 . S
C1984 H1975 0.930 . S
C1984 C1982 1.378 . S
C1984 C1985 1.367 . S
C1985 C1984 1.367 . S
C1985 C1987 1.433 . S
C1986 C1982 1.350 . S
C1986 C1983 1.463 . S
C1986 N1990 1.427 . S
C1987 H1977 0.929 . S
C1987 C1985 1.433 . S
C1987 N1990 1.384 . S
C1988 H1979 0.929 . S
C1988 C1980 1.378 . S
C1988 C1983 1.350 . S
C1989 H1976 0.929 . S
C1989 C1981 1.433 . S
C1989 N1991 1.384 . S
N1990 C1986 1.427 . S
N1990 C1987 1.384 . S
N1991 C1983 1.427 . S
N1991 C1989 1.384 . S
H1992 C1998 0.930 . S
H1993 C2002 0.930 . S
H1994 C2007 0.929 . S
H1995 C2005 0.929 . S
H1996 C2000 0.929 . S
H1997 C2006 0.929 . S
C1998 H1992 0.930 . S
C1998 C1999 1.367 . S
C1998 C2006 1.378 . S
C1999 C1998 1.367 . S
C1999 C2007 1.433 . S
C2000 H1996 0.929 . S
C2000 C2002 1.378 . S
C2000 C2004 1.350 . S
C2001 C2004 1.463 . S
C2001 C2006 1.350 . S
C2001 N2009 1.427 . S
C2002 H1993 0.930 . S
C2002 C2000 1.378 . S
C2002 C2003 1.367 . S
C2003 C2002 1.367 . S
C2003 C2005 1.433 . S
C2004 C2000 1.350 . S
C2004 C2001 1.463 . S
C2004 N2008 1.427 . S
C2005 H1995 0.929 . S
C2005 C2003 1.433 . S
C2005 N2008 1.384 . S
C2006 H1997 0.929 . S
C2006 C1998 1.378 . S
C2006 C2001 1.350 . S
C2007 H1994 0.929 . S
C2007 C1999 1.433 . S
C2007 N2009 1.384 . S
N2008 C2004 1.427 . S
N2008 C2005 1.384 . S
N2009 C2001 1.427 . S
N2009 C2007 1.384 . S
H2010 C2016 0.930 . S
H2011 C2020 0.930 . S
H2012 C2025 0.929 . S
H2013 C2023 0.929 . S
H2014 C2018 0.929 . S
H2015 C2024 0.929 . S
C2016 H2010 0.930 . S
C2016 C2017 1.367 . S
C2016 C2024 1.378 . S
C2017 C2016 1.367 . S
C2017 C2025 1.433 . S
C2018 H2014 0.929 . S
C2018 C2020 1.378 . S
C2018 C2022 1.350 . S
C2019 C2022 1.463 . S
C2019 C2024 1.350 . S
C2019 N2027 1.427 . S
C2020 H2011 0.930 . S
C2020 C2018 1.378 . S
C2020 C2021 1.367 . S
C2021 C2020 1.367 . S
C2021 C2023 1.433 . S
C2022 C2018 1.350 . S
C2022 C2019 1.463 . S
C2022 N2026 1.427 . S
C2023 H2013 0.929 . S
C2023 C2021 1.433 . S
C2023 N2026 1.384 . S
C2024 H2015 0.929 . S
C2024 C2016 1.378 . S
C2024 C2019 1.350 . S
C2025 H2012 0.929 . S
C2025 C2017 1.433 . S
C2025 N2027 1.384 . S
N2026 C2022 1.427 . S
N2026 C2023 1.384 . S
N2027 C2019 1.427 . S
N2027 C2025 1.384 . S
H2028 C2034 0.930 . S
H2029 C2038 0.930 . S
H2030 C2043 0.929 . S
H2031 C2041 0.929 . S
H2032 C2036 0.929 . S
H2033 C2042 0.929 . S
C2034 H2028 0.930 . S
C2034 C2035 1.367 . S
C2034 C2042 1.378 . S
C2035 C2034 1.367 . S
C2035 C2043 1.433 . S
C2036 H2032 0.929 . S
C2036 C2038 1.378 . S
C2036 C2040 1.350 . S
C2037 C2040 1.463 . S
C2037 C2042 1.350 . S
C2037 N2045 1.427 . S
C2038 H2029 0.930 . S
C2038 C2036 1.378 . S
C2038 C2039 1.367 . S
C2039 C2038 1.367 . S
C2039 C2041 1.433 . S
C2040 C2036 1.350 . S
C2040 C2037 1.463 . S
C2040 N2044 1.427 . S
C2041 H2031 0.929 . S
C2041 C2039 1.433 . S
C2041 N2044 1.384 . S
C2042 H2033 0.929 . S
C2042 C2034 1.378 . S
C2042 C2037 1.350 . S
C2043 H2030 0.929 . S
C2043 C2035 1.433 . S
C2043 N2045 1.384 . S
N2044 C2040 1.427 . S
N2044 C2041 1.384 . S
N2045 C2037 1.427 . S
N2045 C2043 1.384 . S
H2046 C2052 0.930 . S
H2047 C2056 0.930 . S
H2048 C2061 0.929 . S
H2049 C2059 0.929 . S
H2050 C2054 0.929 . S
H2051 C2060 0.929 . S
C2052 H2046 0.930 . S
C2052 C2053 1.367 . S
C2052 C2060 1.378 . S
C2053 C2052 1.367 . S
C2053 C2061 1.433 . S
C2054 H2050 0.929 . S
C2054 C2056 1.378 . S
C2054 C2058 1.350 . S
C2055 C2058 1.463 . S
C2055 C2060 1.350 . S
C2055 N2063 1.427 . S
C2056 H2047 0.930 . S
C2056 C2054 1.378 . S
C2056 C2057 1.367 . S
C2057 C2056 1.367 . S
C2057 C2059 1.433 . S
C2058 C2054 1.350 . S
C2058 C2055 1.463 . S
C2058 N2062 1.427 . S
C2059 H2049 0.929 . S
C2059 C2057 1.433 . S
C2059 N2062 1.384 . S
C2060 H2051 0.929 . S
C2060 C2052 1.378 . S
C2060 C2055 1.350 . S
C2061 H2048 0.929 . S
C2061 C2053 1.433 . S
C2061 N2063 1.384 . S
N2062 C2058 1.427 . S
N2062 C2059 1.384 . S
N2063 C2055 1.427 . S
N2063 C2061 1.384 . S
H2064 C2070 0.930 . S
H2065 C2074 0.930 . S
H2066 C2079 0.929 . S
H2067 C2077 0.929 . S
H2068 C2072 0.929 . S
H2069 C2078 0.929 . S
C2070 H2064 0.930 . S
C2070 C2071 1.367 . S
C2070 C2078 1.378 . S
C2071 C2070 1.367 . S
C2071 C2079 1.433 . S
C2072 H2068 0.929 . S
C2072 C2074 1.378 . S
C2072 C2076 1.350 . S
C2073 C2076 1.463 . S
C2073 C2078 1.350 . S
C2073 N2081 1.427 . S
C2074 H2065 0.930 . S
C2074 C2072 1.378 . S
C2074 C2075 1.367 . S
C2075 C2074 1.367 . S
C2075 C2077 1.433 . S
C2076 C2072 1.350 . S
C2076 C2073 1.463 . S
C2076 N2080 1.427 . S
C2077 H2067 0.929 . S
C2077 C2075 1.433 . S
C2077 N2080 1.384 . S
C2078 H2069 0.929 . S
C2078 C2070 1.378 . S
C2078 C2073 1.350 . S
C2079 H2066 0.929 . S
C2079 C2071 1.433 . S
C2079 N2081 1.384 . S
N2080 C2076 1.427 . S
N2080 C2077 1.384 . S
N2081 C2073 1.427 . S
N2081 C2079 1.384 . S
H2082 C2088 0.930 . S
H2083 C2092 0.930 . S
H2084 C2097 0.929 . S
H2085 C2095 0.929 . S
H2086 C2090 0.929 . S
H2087 C2096 0.929 . S
C2088 H2082 0.930 . S
C2088 C2089 1.367 . S
C2088 C2096 1.378 . S
C2089 C2088 1.367 . S
C2089 C2097 1.433 . S
C2090 H2086 0.929 . S
C2090 C2092 1.378 . S
C2090 C2094 1.350 . S
C2091 C2094 1.463 . S
C2091 C2096 1.350 . S
C2091 N2099 1.427 . S
C2092 H2083 0.930 . S
C2092 C2090 1.378 . S
C2092 C2093 1.367 . S
C2093 C2092 1.367 . S
C2093 C2095 1.433 . S
C2094 C2090 1.350 . S
C2094 C2091 1.463 . S
C2094 N2098 1.427 . S
C2095 H2085 0.929 . S
C2095 C2093 1.433 . S
C2095 N2098 1.384 . S
C2096 H2087 0.929 . S
C2096 C2088 1.378 . S
C2096 C2091 1.350 . S
C2097 H2084 0.929 . S
C2097 C2089 1.433 . S
C2097 N2099 1.384 . S
N2098 C2094 1.427 . S
N2098 C2095 1.384 . S
N2099 C2091 1.427 . S
N2099 C2097 1.384 . S
H2100 C2106 0.930 . S
H2101 C2110 0.930 . S
H2102 C2115 0.929 . S
H2103 C2113 0.929 . S
H2104 C2108 0.929 . S
H2105 C2114 0.929 . S
C2106 H2100 0.930 . S
C2106 C2107 1.367 . S
C2106 C2114 1.378 . S
C2107 C2106 1.367 . S
C2107 C2115 1.433 . S
C2108 H2104 0.929 . S
C2108 C2110 1.378 . S
C2108 C2112 1.350 . S
C2109 C2112 1.463 . S
C2109 C2114 1.350 . S
C2109 N2117 1.427 . S
C2110 H2101 0.930 . S
C2110 C2108 1.378 . S
C2110 C2111 1.367 . S
C2111 C2110 1.367 . S
C2111 C2113 1.433 . S
C2112 C2108 1.350 . S
C2112 C2109 1.463 . S
C2112 N2116 1.427 . S
C2113 H2103 0.929 . S
C2113 C2111 1.433 . S
C2113 N2116 1.384 . S
C2114 H2105 0.929 . S
C2114 C2106 1.378 . S
C2114 C2109 1.350 . S
C2115 H2102 0.929 . S
C2115 C2107 1.433 . S
C2115 N2117 1.384 . S
N2116 C2112 1.427 . S
N2116 C2113 1.384 . S
N2117 C2109 1.427 . S
N2117 C2115 1.384 . S
H2118 C2124 0.930 . S
H2119 C2128 0.930 . S
H2120 C2133 0.929 . S
H2121 C2131 0.929 . S
H2122 C2126 0.929 . S
H2123 C2132 0.929 . S
C2124 H2118 0.930 . S
C2124 C2125 1.367 . S
C2124 C2132 1.378 . S
C2125 C2124 1.367 . S
C2125 C2133 1.433 . S
C2126 H2122 0.929 . S
C2126 C2128 1.378 . S
C2126 C2130 1.350 . S
C2127 C2130 1.463 . S
C2127 C2132 1.350 . S
C2127 N2135 1.427 . S
C2128 H2119 0.930 . S
C2128 C2126 1.378 . S
C2128 C2129 1.367 . S
C2129 C2128 1.367 . S
C2129 C2131 1.433 . S
C2130 C2126 1.350 . S
C2130 C2127 1.463 . S
C2130 N2134 1.427 . S
C2131 H2121 0.929 . S
C2131 C2129 1.433 . S
C2131 N2134 1.384 . S
C2132 H2123 0.929 . S
C2132 C2124 1.378 . S
C2132 C2127 1.350 . S
C2133 H2120 0.929 . S
C2133 C2125 1.433 . S
C2133 N2135 1.384 . S
N2134 C2130 1.427 . S
N2134 C2131 1.384 . S
N2135 C2127 1.427 . S
N2135 C2133 1.384 . S
H2136 C2142 0.930 . S
H2137 C2146 0.930 . S
H2138 C2151 0.929 . S
H2139 C2149 0.929 . S
H2140 C2144 0.929 . S
H2141 C2150 0.929 . S
C2142 H2136 0.930 . S
C2142 C2143 1.367 . S
C2142 C2150 1.378 . S
C2143 C2142 1.367 . S
C2143 C2151 1.433 . S
C2144 H2140 0.929 . S
C2144 C2146 1.378 . S
C2144 C2148 1.350 . S
C2145 C2148 1.463 . S
C2145 C2150 1.350 . S
C2145 N2153 1.427 . S
C2146 H2137 0.930 . S
C2146 C2144 1.378 . S
C2146 C2147 1.367 . S
C2147 C2146 1.367 . S
C2147 C2149 1.433 . S
C2148 C2144 1.350 . S
C2148 C2145 1.463 . S
C2148 N2152 1.427 . S
C2149 H2139 0.929 . S
C2149 C2147 1.433 . S
C2149 N2152 1.384 . S
C2150 H2141 0.929 . S
C2150 C2142 1.378 . S
C2150 C2145 1.350 . S
C2151 H2138 0.929 . S
C2151 C2143 1.433 . S
C2151 N2153 1.384 . S
N2152 C2148 1.427 . S
N2152 C2149 1.384 . S
N2153 C2145 1.427 . S
N2153 C2151 1.384 . S
H2154 C2160 0.930 . S
H2155 C2164 0.930 . S
H2156 C2169 0.929 . S
H2157 C2167 0.929 . S
H2158 C2162 0.929 . S
H2159 C2168 0.929 . S
C2160 H2154 0.930 . S
C2160 C2161 1.367 . S
C2160 C2168 1.378 . S
C2161 C2160 1.367 . S
C2161 C2169 1.433 . S
C2162 H2158 0.929 . S
C2162 C2164 1.378 . S
C2162 C2166 1.350 . S
C2163 C2166 1.463 . S
C2163 C2168 1.350 . S
C2163 N2171 1.427 . S
C2164 H2155 0.930 . S
C2164 C2162 1.378 . S
C2164 C2165 1.367 . S
C2165 C2164 1.367 . S
C2165 C2167 1.433 . S
C2166 C2162 1.350 . S
C2166 C2163 1.463 . S
C2166 N2170 1.427 . S
C2167 H2157 0.929 . S
C2167 C2165 1.433 . S
C2167 N2170 1.384 . S
C2168 H2159 0.929 . S
C2168 C2160 1.378 . S
C2168 C2163 1.350 . S
C2169 H2156 0.929 . S
C2169 C2161 1.433 . S
C2169 N2171 1.384 . S
N2170 C2166 1.427 . S
N2170 C2167 1.384 . S
N2171 C2163 1.427 . S
N2171 C2169 1.384 . S
H2172 C2178 0.930 . S
H2173 C2182 0.930 . S
H2174 C2187 0.929 . S
H2175 C2185 0.929 . S
H2176 C2180 0.929 . S
H2177 C2186 0.929 . S
C2178 H2172 0.930 . S
C2178 C2179 1.367 . S
C2178 C2186 1.378 . S
C2179 C2178 1.367 . S
C2179 C2187 1.433 . S
C2180 H2176 0.929 . S
C2180 C2182 1.378 . S
C2180 C2184 1.350 . S
C2181 C2184 1.463 . S
C2181 C2186 1.350 . S
C2181 N2189 1.427 . S
C2182 H2173 0.930 . S
C2182 C2180 1.378 . S
C2182 C2183 1.367 . S
C2183 C2182 1.367 . S
C2183 C2185 1.433 . S
C2184 C2180 1.350 . S
C2184 C2181 1.463 . S
C2184 N2188 1.427 . S
C2185 H2175 0.929 . S
C2185 C2183 1.433 . S
C2185 N2188 1.384 . S
C2186 H2177 0.929 . S
C2186 C2178 1.378 . S
C2186 C2181 1.350 . S
C2187 H2174 0.929 . S
C2187 C2179 1.433 . S
C2187 N2189 1.384 . S
N2188 C2184 1.427 . S
N2188 C2185 1.384 . S
N2189 C2181 1.427 . S
N2189 C2187 1.384 . S
H2190 C2196 0.930 . S
H2191 C2200 0.930 . S
H2192 C2205 0.929 . S
H2193 C2203 0.929 . S
H2194 C2198 0.929 . S
H2195 C2204 0.929 . S
C2196 H2190 0.930 . S
C2196 C2197 1.367 . S
C2196 C2204 1.378 . S
C2197 C2196 1.367 . S
C2197 C2205 1.433 . S
C2198 H2194 0.929 . S
C2198 C2200 1.378 . S
C2198 C2202 1.350 . S
C2199 C2202 1.463 . S
C2199 C2204 1.350 . S
C2199 N2207 1.427 . S
C2200 H2191 0.930 . S
C2200 C2198 1.378 . S
C2200 C2201 1.367 . S
C2201 C2200 1.367 . S
C2201 C2203 1.433 . S
C2202 C2198 1.350 . S
C2202 C2199 1.463 . S
C2202 N2206 1.427 . S
C2203 H2193 0.929 . S
C2203 C2201 1.433 . S
C2203 N2206 1.384 . S
C2204 H2195 0.929 . S
C2204 C2196 1.378 . S
C2204 C2199 1.350 . S
C2205 H2192 0.929 . S
C2205 C2197 1.433 . S
C2205 N2207 1.384 . S
N2206 C2202 1.427 . S
N2206 C2203 1.384 . S
N2207 C2199 1.427 . S
N2207 C2205 1.384 . S
H2208 C2214 0.930 . S
H2209 C2218 0.930 . S
H2210 C2223 0.929 . S
H2211 C2221 0.929 . S
H2212 C2216 0.929 . S
H2213 C2222 0.929 . S
C2214 H2208 0.930 . S
C2214 C2215 1.367 . S
C2214 C2222 1.378 . S
C2215 C2214 1.367 . S
C2215 C2223 1.433 . S
C2216 H2212 0.929 . S
C2216 C2218 1.378 . S
C2216 C2220 1.350 . S
C2217 C2220 1.463 . S
C2217 C2222 1.350 . S
C2217 N2225 1.427 . S
C2218 H2209 0.930 . S
C2218 C2216 1.378 . S
C2218 C2219 1.367 . S
C2219 C2218 1.367 . S
C2219 C2221 1.433 . S
C2220 C2216 1.350 . S
C2220 C2217 1.463 . S
C2220 N2224 1.427 . S
C2221 H2211 0.929 . S
C2221 C2219 1.433 . S
C2221 N2224 1.384 . S
C2222 H2213 0.929 . S
C2222 C2214 1.378 . S
C2222 C2217 1.350 . S
C2223 H2210 0.929 . S
C2223 C2215 1.433 . S
C2223 N2225 1.384 . S
N2224 C2220 1.427 . S
N2224 C2221 1.384 . S
N2225 C2217 1.427 . S
N2225 C2223 1.384 . S
H2226 C2232 0.930 1_455 S
H2227 C2236 0.930 1_655 S
H2228 C2241 0.929 . S
H2229 C2239 0.929 . S
H2230 C2234 0.929 . S
H2231 C2240 0.929 . S
C2232 H2226 0.930 1_655 S
C2232 C2233 1.367 1_545 S
C2232 C2240 1.378 1_655 S
C2233 C2232 1.367 1_565 S
C2233 C2241 1.433 . S
C2234 H2230 0.929 . S
C2234 C2236 1.378 1_655 S
C2234 C2238 1.350 1_665 S
C2235 C2238 1.463 1_665 S
C2235 C2240 1.350 1_665 S
C2235 N2243 1.427 . S
C2236 H2227 0.930 1_455 S
C2236 C2234 1.378 1_455 S
C2236 C2237 1.367 1_565 S
C2237 C2236 1.367 1_545 S
C2237 C2239 1.433 . S
C2238 C2234 1.350 1_445 S
C2238 C2235 1.463 1_445 S
C2238 N2242 1.427 . S
C2239 H2229 0.929 . S
C2239 C2237 1.433 . S
C2239 N2242 1.384 . S
C2240 H2231 0.929 . S
C2240 C2232 1.378 1_455 S
C2240 C2235 1.350 1_445 S
C2241 H2228 0.929 . S
C2241 C2233 1.433 . S
C2241 N2243 1.384 . S
N2242 C2238 1.427 . S
N2242 C2239 1.384 . S
N2243 C2235 1.427 . S
N2243 C2241 1.384 . S
H2244 C2250 0.930 . S
H2245 C2254 0.930 . S
H2246 C2259 0.929 . S
H2247 C2257 0.929 . S
H2248 C2252 0.929 . S
H2249 C2258 0.929 . S
C2250 H2244 0.930 . S
C2250 C2251 1.367 . S
C2250 C2258 1.378 . S
C2251 C2250 1.367 . S
C2251 C2259 1.433 . S
C2252 H2248 0.929 . S
C2252 C2254 1.378 . S
C2252 C2256 1.350 . S
C2253 C2256 1.463 . S
C2253 C2258 1.350 . S
C2253 N2261 1.427 . S
C2254 H2245 0.930 . S
C2254 C2252 1.378 . S
C2254 C2255 1.367 . S
C2255 C2254 1.367 . S
C2255 C2257 1.433 . S
C2256 C2252 1.350 . S
C2256 C2253 1.463 . S
C2256 N2260 1.427 . S
C2257 H2247 0.929 . S
C2257 C2255 1.433 . S
C2257 N2260 1.384 . S
C2258 H2249 0.929 . S
C2258 C2250 1.378 . S
C2258 C2253 1.350 . S
C2259 H2246 0.929 . S
C2259 C2251 1.433 . S
C2259 N2261 1.384 . S
N2260 C2256 1.427 . S
N2260 C2257 1.384 . S
N2261 C2253 1.427 . S
N2261 C2259 1.384 . S
H2262 C2268 0.930 . S
H2263 C2272 0.930 . S
H2264 C2277 0.928 1_545 S
H2265 C2275 0.928 1_565 S
H2266 C2270 0.929 . S
H2267 C2276 0.929 . S
C2268 H2262 0.930 . S
C2268 C2269 1.367 . S
C2268 C2276 1.378 . S
C2269 C2268 1.367 . S
C2269 C2277 1.436 . S
C2270 H2266 0.929 . S
C2270 C2272 1.378 . S
C2270 C2274 1.350 . S
C2271 C2274 1.463 1_566 S
C2271 C2276 1.350 . S
C2271 N2279 1.427 1_565 S
C2272 H2263 0.930 . S
C2272 C2270 1.378 . S
C2272 C2273 1.367 . S
C2273 C2272 1.367 . S
C2273 C2275 1.436 . S
C2274 C2270 1.350 . S
C2274 C2271 1.463 1_544 S
C2274 N2278 1.427 1_545 S
C2275 H2265 0.928 1_545 S
C2275 C2273 1.436 . S
C2275 N2278 1.383 1_545 S
C2276 H2267 0.929 . S
C2276 C2268 1.378 . S
C2276 C2271 1.350 . S
C2277 H2264 0.928 1_565 S
C2277 C2269 1.436 . S
C2277 N2279 1.383 1_565 S
N2278 C2274 1.427 1_565 S
N2278 C2275 1.383 1_565 S
N2279 C2271 1.427 1_545 S
N2279 C2277 1.383 1_545 S
H2280 C2286 0.930 . S
H2281 C2290 0.930 . S
H2282 C2295 0.929 . S
H2283 C2293 0.929 . S
H2284 C2288 0.929 . S
H2285 C2294 0.929 . S
C2286 H2280 0.930 . S
C2286 C2287 1.367 . S
C2286 C2294 1.378 . S
C2287 C2286 1.367 . S
C2287 C2295 1.433 . S
C2288 H2284 0.929 . S
C2288 C2290 1.378 . S
C2288 C2292 1.350 . S
C2289 C2292 1.463 . S
C2289 C2294 1.350 . S
C2289 N2297 1.427 . S
C2290 H2281 0.930 . S
C2290 C2288 1.378 . S
C2290 C2291 1.367 . S
C2291 C2290 1.367 . S
C2291 C2293 1.433 . S
C2292 C2288 1.350 . S
C2292 C2289 1.463 . S
C2292 N2296 1.427 . S
C2293 H2283 0.929 . S
C2293 C2291 1.433 . S
C2293 N2296 1.384 . S
C2294 H2285 0.929 . S
C2294 C2286 1.378 . S
C2294 C2289 1.350 . S
C2295 H2282 0.929 . S
C2295 C2287 1.433 . S
C2295 N2297 1.384 . S
N2296 C2292 1.427 . S
N2296 C2293 1.384 . S
N2297 C2289 1.427 . S
N2297 C2295 1.384 . S
H2298 C2304 0.930 . S
H2299 C2308 0.930 . S
H2300 C2313 0.929 . S
H2301 C2311 0.929 . S
H2302 C2306 0.929 . S
H2303 C2312 0.929 . S
C2304 H2298 0.930 . S
C2304 C2305 1.367 1_565 S
C2304 C2312 1.378 . S
C2305 C2304 1.367 1_545 S
C2305 C2313 1.433 . S
C2306 H2302 0.929 . S
C2306 C2308 1.378 . S
C2306 C2310 1.350 1_545 S
C2307 C2310 1.463 1_545 S
C2307 C2312 1.350 1_545 S
C2307 N2315 1.427 . S
C2308 H2299 0.930 . S
C2308 C2306 1.378 . S
C2308 C2309 1.367 1_545 S
C2309 C2308 1.367 1_565 S
C2309 C2311 1.433 . S
C2310 C2306 1.350 1_565 S
C2310 C2307 1.463 1_565 S
C2310 N2314 1.427 . S
C2311 H2301 0.929 . S
C2311 C2309 1.433 . S
C2311 N2314 1.384 . S
C2312 H2303 0.929 . S
C2312 C2304 1.378 . S
C2312 C2307 1.350 1_565 S
C2313 H2300 0.929 . S
C2313 C2305 1.433 . S
C2313 N2315 1.384 . S
N2314 C2310 1.427 . S
N2314 C2311 1.384 . S
N2315 C2307 1.427 . S
N2315 C2313 1.384 . S
H2316 C2322 0.930 . S
H2317 C2326 0.930 . S
H2318 C2331 0.929 . S
H2319 C2329 0.929 . S
H2320 C2324 0.929 . S
H2321 C2330 0.929 . S
C2322 H2316 0.930 . S
C2322 C2323 1.367 . S
C2322 C2330 1.378 . S
C2323 C2322 1.367 . S
C2323 C2331 1.433 . S
C2324 H2320 0.929 . S
C2324 C2326 1.378 . S
C2324 C2328 1.350 . S
C2325 C2328 1.463 . S
C2325 C2330 1.350 . S
C2325 N2333 1.427 . S
C2326 H2317 0.930 . S
C2326 C2324 1.378 . S
C2326 C2327 1.367 . S
C2327 C2326 1.367 . S
C2327 C2329 1.433 . S
C2328 C2324 1.350 . S
C2328 C2325 1.463 . S
C2328 N2332 1.427 . S
C2329 H2319 0.929 . S
C2329 C2327 1.433 . S
C2329 N2332 1.384 . S
C2330 H2321 0.929 . S
C2330 C2322 1.378 . S
C2330 C2325 1.350 . S
C2331 H2318 0.929 . S
C2331 C2323 1.433 . S
C2331 N2333 1.384 . S
N2332 C2328 1.427 . S
N2332 C2329 1.384 . S
N2333 C2325 1.427 . S
N2333 C2331 1.384 . S
H2334 C2340 0.930 . S
H2335 C2344 0.930 . S
H2336 C2349 0.929 . S
H2337 C2347 0.929 . S
H2338 C2342 0.929 . S
H2339 C2348 0.929 . S
C2340 H2334 0.930 . S
C2340 C2341 1.367 1_655 S
C2340 C2348 1.378 . S
C2341 C2340 1.367 1_455 S
C2341 C2349 1.433 1_565 S
C2342 H2338 0.929 . S
C2342 C2344 1.378 . S
C2342 C2346 1.350 1_455 S
C2343 C2346 1.463 1_464 S
C2343 C2348 1.350 1_455 S
C2343 N2351 1.427 1_565 S
C2344 H2335 0.930 . S
C2344 C2342 1.378 . S
C2344 C2345 1.367 1_455 S
C2345 C2344 1.367 1_655 S
C2345 C2347 1.433 1_545 S
C2346 C2342 1.350 1_655 S
C2346 C2343 1.463 1_646 S
C2346 N2350 1.427 1_545 S
C2347 H2337 0.929 . S
C2347 C2345 1.433 1_565 S
C2347 N2350 1.384 . S
C2348 H2339 0.929 . S
C2348 C2340 1.378 . S
C2348 C2343 1.350 1_655 S
C2349 H2336 0.929 . S
C2349 C2341 1.433 1_545 S
C2349 N2351 1.384 . S
N2350 C2346 1.427 1_565 S
N2350 C2347 1.384 . S
N2351 C2343 1.427 1_545 S
N2351 C2349 1.384 . S
H2352 C2358 0.930 . S
H2353 C2362 0.930 . S
H2354 C2367 0.929 . S
H2355 C2365 0.929 . S
H2356 C2360 0.929 . S
H2357 C2366 0.929 . S
C2358 H2352 0.930 . S
C2358 C2359 1.367 . S
C2358 C2366 1.378 . S
C2359 C2358 1.367 . S
C2359 C2367 1.433 . S
C2360 H2356 0.929 . S
C2360 C2362 1.378 . S
C2360 C2364 1.350 . S
C2361 C2364 1.463 . S
C2361 C2366 1.350 . S
C2361 N2369 1.427 . S
C2362 H2353 0.930 . S
C2362 C2360 1.378 . S
C2362 C2363 1.367 . S
C2363 C2362 1.367 . S
C2363 C2365 1.433 . S
C2364 C2360 1.350 . S
C2364 C2361 1.463 . S
C2364 N2368 1.427 . S
C2365 H2355 0.929 . S
C2365 C2363 1.433 . S
C2365 N2368 1.384 . S
C2366 H2357 0.929 . S
C2366 C2358 1.378 . S
C2366 C2361 1.350 . S
C2367 H2354 0.929 . S
C2367 C2359 1.433 . S
C2367 N2369 1.384 . S
N2368 C2364 1.427 . S
N2368 C2365 1.384 . S
N2369 C2361 1.427 . S
N2369 C2367 1.384 . S
H2370 C2376 0.930 . S
H2371 C2380 0.930 . S
H2372 C2385 0.929 . S
H2373 C2383 0.929 . S
H2374 C2378 0.929 . S
H2375 C2384 0.929 . S
C2376 H2370 0.930 . S
C2376 C2377 1.367 . S
C2376 C2384 1.378 . S
C2377 C2376 1.367 . S
C2377 C2385 1.433 . S
C2378 H2374 0.929 . S
C2378 C2380 1.378 . S
C2378 C2382 1.350 . S
C2379 C2382 1.463 . S
C2379 C2384 1.350 . S
C2379 N2387 1.427 . S
C2380 H2371 0.930 . S
C2380 C2378 1.378 . S
C2380 C2381 1.367 . S
C2381 C2380 1.367 . S
C2381 C2383 1.433 . S
C2382 C2378 1.350 . S
C2382 C2379 1.463 . S
C2382 N2386 1.427 . S
C2383 H2373 0.929 . S
C2383 C2381 1.433 . S
C2383 N2386 1.384 . S
C2384 H2375 0.929 . S
C2384 C2376 1.378 . S
C2384 C2379 1.350 . S
C2385 H2372 0.929 . S
C2385 C2377 1.433 . S
C2385 N2387 1.384 . S
N2386 C2382 1.427 . S
N2386 C2383 1.384 . S
N2387 C2379 1.427 . S
N2387 C2385 1.384 . S
H2388 C2394 0.930 . S
H2389 C2398 0.930 . S
H2390 C2403 0.929 . S
H2391 C2401 0.929 . S
H2392 C2396 0.929 . S
H2393 C2402 0.929 . S
C2394 H2388 0.930 . S
C2394 C2395 1.367 . S
C2394 C2402 1.378 . S
C2395 C2394 1.367 . S
C2395 C2403 1.433 . S
C2396 H2392 0.929 . S
C2396 C2398 1.378 . S
C2396 C2400 1.350 . S
C2397 C2400 1.463 . S
C2397 C2402 1.350 . S
C2397 N2405 1.427 . S
C2398 H2389 0.930 . S
C2398 C2396 1.378 . S
C2398 C2399 1.367 . S
C2399 C2398 1.367 . S
C2399 C2401 1.433 . S
C2400 C2396 1.350 . S
C2400 C2397 1.463 . S
C2400 N2404 1.427 . S
C2401 H2391 0.929 . S
C2401 C2399 1.433 . S
C2401 N2404 1.384 . S
C2402 H2393 0.929 . S
C2402 C2394 1.378 . S
C2402 C2397 1.350 . S
C2403 H2390 0.929 . S
C2403 C2395 1.433 . S
C2403 N2405 1.384 . S
N2404 C2400 1.427 . S
N2404 C2401 1.384 . S
N2405 C2397 1.427 . S
N2405 C2403 1.384 . S
H2406 C2412 0.930 . S
H2407 C2416 0.930 . S
H2408 C2421 0.929 . S
H2409 C2419 0.929 . S
H2410 C2414 0.929 . S
H2411 C2420 0.929 . S
C2412 H2406 0.930 . S
C2412 C2413 1.367 . S
C2412 C2420 1.378 . S
C2413 C2412 1.367 . S
C2413 C2421 1.433 . S
C2414 H2410 0.929 . S
C2414 C2416 1.378 . S
C2414 C2418 1.350 . S
C2415 C2418 1.463 . S
C2415 C2420 1.350 . S
C2415 N2423 1.427 . S
C2416 H2407 0.930 . S
C2416 C2414 1.378 . S
C2416 C2417 1.367 . S
C2417 C2416 1.367 . S
C2417 C2419 1.433 . S
C2418 C2414 1.350 . S
C2418 C2415 1.463 . S
C2418 N2422 1.427 . S
C2419 H2409 0.929 . S
C2419 C2417 1.433 . S
C2419 N2422 1.384 . S
C2420 H2411 0.929 . S
C2420 C2412 1.378 . S
C2420 C2415 1.350 . S
C2421 H2408 0.929 . S
C2421 C2413 1.433 . S
C2421 N2423 1.384 . S
N2422 C2418 1.427 . S
N2422 C2419 1.384 . S
N2423 C2415 1.427 . S
N2423 C2421 1.384 . S
H2424 C2430 0.930 . S
H2425 C2434 0.930 . S
H2426 C2439 0.929 . S
H2427 C2437 0.929 . S
H2428 C2432 0.929 . S
H2429 C2438 0.929 . S
C2430 H2424 0.930 . S
C2430 C2431 1.367 . S
C2430 C2438 1.378 . S
C2431 C2430 1.367 . S
C2431 C2439 1.433 . S
C2432 H2428 0.929 . S
C2432 C2434 1.378 . S
C2432 C2436 1.350 . S
C2433 C2436 1.463 1_554 S
C2433 C2438 1.350 . S
C2433 N2441 1.427 . S
C2434 H2425 0.930 . S
C2434 C2432 1.378 . S
C2434 C2435 1.367 . S
C2435 C2434 1.367 . S
C2435 C2437 1.433 . S
C2436 C2432 1.350 . S
C2436 C2433 1.463 1_556 S
C2436 N2440 1.427 . S
C2437 H2427 0.929 . S
C2437 C2435 1.433 . S
C2437 N2440 1.384 . S
C2438 H2429 0.929 . S
C2438 C2430 1.378 . S
C2438 C2433 1.350 . S
C2439 H2426 0.929 . S
C2439 C2431 1.433 . S
C2439 N2441 1.384 . S
N2440 C2436 1.427 . S
N2440 C2437 1.384 . S
N2441 C2433 1.427 . S
N2441 C2439 1.384 . S
H2442 C2448 0.930 1_655 S
H2443 C2452 0.930 1_455 S
H2444 C2457 0.929 . S
H2445 C2455 0.929 . S
H2446 C2450 0.929 . S
H2447 C2456 0.929 . S
C2448 H2442 0.930 1_455 S
C2448 C2449 1.367 . S
C2448 C2456 1.378 1_455 S
C2449 C2448 1.367 . S
C2449 C2457 1.433 . S
C2450 H2446 0.929 . S
C2450 C2452 1.378 1_455 S
C2450 C2454 1.350 1_455 S
C2451 C2454 1.463 1_455 S
C2451 C2456 1.350 1_455 S
C2451 N2459 1.427 . S
C2452 H2443 0.930 1_655 S
C2452 C2450 1.378 1_655 S
C2452 C2453 1.367 . S
C2453 C2452 1.367 . S
C2453 C2455 1.433 . S
C2454 C2450 1.350 1_655 S
C2454 C2451 1.463 1_655 S
C2454 N2458 1.427 . S
C2455 H2445 0.929 . S
C2455 C2453 1.433 . S
C2455 N2458 1.384 . S
C2456 H2447 0.929 . S
C2456 C2448 1.378 1_655 S
C2456 C2451 1.350 1_655 S
C2457 H2444 0.929 . S
C2457 C2449 1.433 . S
C2457 N2459 1.384 . S
N2458 C2454 1.427 . S
N2458 C2455 1.384 . S
N2459 C2451 1.427 . S
N2459 C2457 1.384 . S
H2460 C2466 0.930 . S
H2461 C2470 0.930 . S
H2462 C2475 0.929 . S
H2463 C2473 0.929 . S
H2464 C2468 0.929 . S
H2465 C2474 0.929 . S
C2466 H2460 0.930 . S
C2466 C2467 1.367 1_655 S
C2466 C2474 1.378 . S
C2467 C2466 1.367 1_455 S
C2467 C2475 1.433 . S
C2468 H2464 0.929 . S
C2468 C2470 1.378 . S
C2468 C2472 1.350 1_455 S
C2469 C2472 1.463 1_456 S
C2469 C2474 1.350 1_455 S
C2469 N2477 1.427 . S
C2470 H2461 0.930 . S
C2470 C2468 1.378 . S
C2470 C2471 1.367 1_455 S
C2471 C2470 1.367 1_655 S
C2471 C2473 1.433 . S
C2472 C2468 1.350 1_655 S
C2472 C2469 1.463 1_654 S
C2472 N2476 1.427 . S
C2473 H2463 0.929 . S
C2473 C2471 1.433 . S
C2473 N2476 1.384 . S
C2474 H2465 0.929 . S
C2474 C2466 1.378 . S
C2474 C2469 1.350 1_655 S
C2475 H2462 0.929 . S
C2475 C2467 1.433 . S
C2475 N2477 1.384 . S
N2476 C2472 1.427 . S
N2476 C2473 1.384 . S
N2477 C2469 1.427 . S
N2477 C2475 1.384 . S
H2478 C2484 0.930 . S
H2479 C2488 0.930 . S
H2480 C2493 0.929 . S
H2481 C2491 0.929 . S
H2482 C2486 0.929 . S
H2483 C2492 0.929 . S
C2484 H2478 0.930 . S
C2484 C2485 1.367 . S
C2484 C2492 1.378 . S
C2485 C2484 1.367 . S
C2485 C2493 1.433 . S
C2486 H2482 0.929 . S
C2486 C2488 1.378 . S
C2486 C2490 1.350 . S
C2487 C2490 1.463 . S
C2487 C2492 1.350 . S
C2487 N2495 1.427 . S
C2488 H2479 0.930 . S
C2488 C2486 1.378 . S
C2488 C2489 1.367 . S
C2489 C2488 1.367 . S
C2489 C2491 1.433 . S
C2490 C2486 1.350 . S
C2490 C2487 1.463 . S
C2490 N2494 1.427 . S
C2491 H2481 0.929 . S
C2491 C2489 1.433 . S
C2491 N2494 1.384 . S
C2492 H2483 0.929 . S
C2492 C2484 1.378 . S
C2492 C2487 1.350 . S
C2493 H2480 0.929 . S
C2493 C2485 1.433 . S
C2493 N2495 1.384 . S
N2494 C2490 1.427 . S
N2494 C2491 1.384 . S
N2495 C2487 1.427 . S
N2495 C2493 1.384 . S
C1063 N607 1.079 . S
C1067 N13 1.107 . S
C1081 N46 1.069 1_655 S
C1085 N640 1.097 1_455 S
C1099 N79 1.096 . S
C1103 N541 1.076 . S
C1117 N574 1.104 . S
C1121 N112 1.077 . S
C1135 N145 1.107 . S
C1139 N739 1.091 . S
C1153 N772 1.085 . S
C1157 N178 1.108 . S
C1171 N211 1.103 . S
C1175 N673 1.097 . S
C1189 N244 1.092 1_655 S
C1193 N706 1.074 1_455 S
C1207 N277 1.076 . S
C1211 N871 1.098 . S
C1225 N904 1.108 1_655 S
C1229 N310 1.082 1_455 S
C1243 N343 1.076 . S
C1247 N805 1.100 . S
C1261 N376 1.076 . S
C1265 N838 1.099 . S
C1279 N409 1.107 . S
C1283 N1003 1.079 . S
C1297 N1036 1.108 . S
C1301 N442 1.083 . S
C1315 N937 1.104 . S
C1319 N475 1.096 . S
C1333 N970 1.070 1_655 S
C1337 N508 1.096 1_455 S
C1351 C384 0.760 . S
C1355 C7 0.782 . S
C1369 C813 0.765 . S
C1373 C40 0.769 . S
C1387 C73 0.765 . S
C1391 C318 0.784 . S
C1405 C879 0.787 . S
C1409 C106 0.768 . S
C1423 C450 0.764 . S
C1427 C139 0.769 . S
C1441 C172 0.765 . S
C1445 C1011 0.778 . S
C1459 C516 0.750 . S
C1463 C205 0.781 . S
C1477 C945 0.781 . S
C1481 C238 0.765 . S
C1495 C120 0.763 . S
C1499 C271 0.781 . S
C1513 C304 0.773 . S
C1517 C549 0.756 . S
C1531 C337 0.780 . S
C1535 C54 0.766 . S
C1549 C615 0.765 . S
C1553 C370 0.781 . S
C1567 C403 0.767 . S
C1571 C186 0.787 . S
C1585 C747 0.756 . S
C1589 C436 0.772 . S
C1603 C469 0.769 . S
C1607 C252 0.787 . S
C1621 C502 0.768 . S
C1625 C681 0.787 . S
C1639 C912 0.756 . S
C1643 C535 0.782 . S
C1657 C568 0.780 . S
C1661 C285 0.750 . S
C1675 C601 0.774 . S
C1679 C846 0.782 . S
C1693 C351 0.762 . S
C1697 C634 0.781 . S
C1711 C667 0.766 . S
C1715 C978 0.777 . S
C1729 C700 0.781 . S
C1733 C483 0.751 . S
C1747 C1044 0.761 . S
C1751 C733 0.770 . S
C1765 C417 0.750 . S
C1769 C766 0.781 . S
C1783 C648 0.757 . S
C1787 C799 0.782 . S
C1801 C832 0.774 . S
C1805 C21 0.782 . S
C1819 C865 0.777 . S
C1823 C582 0.750 . S
C1837 C87 0.787 . S
C1841 C898 0.769 . S
C1855 C931 0.765 . S
C1859 C714 0.780 . S
C1873 C964 0.776 . S
C1877 C219 0.779 . S
C1891 C780 0.755 . S
C1895 C997 0.782 . S
C1909 C153 0.752 . S
C1913 C1030 0.775 . S
C1927 N233 1.642 . S
C1931 N2 1.642 . S
C1945 N134 1.641 . S
C1949 N35 1.640 . S
C1963 N68 1.640 . S
C1967 N167 1.642 . S
C1981 N200 1.642 . S
C1985 N101 1.640 . S
C1999 N497 1.640 . S
C2003 N266 1.642 . S
C2017 N299 1.641 . S
C2021 N398 1.642 . S
C2035 N431 1.636 . S
C2039 N332 1.637 . S
C2053 N464 1.641 . S
C2057 N365 1.639 . S
C2071 N761 1.639 . S
C2075 N530 1.637 . S
C2089 N662 1.641 . S
C2093 N563 1.642 . S
C2107 N695 1.638 . S
C2111 N596 1.636 . S
C2125 N728 1.640 . S
C2129 N629 1.641 . S
C2143 N794 1.642 . S
C2147 N1025 1.641 . S
C2161 N827 1.642 . S
C2165 N926 1.641 . S
C2179 N860 1.636 . S
C2183 N959 1.638 . S
C2197 N992 1.642 . S
C2201 N893 1.641 . S
C2215 C18 1.139 . S
C2219 C810 1.139 . S
C2233 C315 1.141 . S
C2237 C51 1.141 . S
C2251 C876 1.148 . S
C2255 C84 1.148 . S
C2269 C117 1.138 . S
C2273 C381 1.138 . S
C2287 C150 1.145 . S
C2291 C942 1.145 . S
C2305 C183 1.146 . S
C2309 C447 1.146 . S
C2323 C1008 1.148 . S
C2327 C216 1.148 . S
C2341 C249 1.139 . S
C2345 C513 1.139 . S
C2359 C546 1.139 . S
C2363 C282 1.139 . S
C2377 C612 1.147 . S
C2381 C348 1.147 . S
C2395 C414 1.146 . S
C2399 C678 1.146 . S
C2413 C480 1.138 . S
C2417 C744 1.138 . S
C2431 C843 1.143 . S
C2435 C579 1.143 . S
C2449 C909 1.142 . S
C2453 C645 1.142 . S
C2467 C975 1.140 . S
C2471 C711 1.140 . S
C2485 C1041 1.142 . S
C2489 C777 1.142 . S
