# Generated by pormake.
# Topology unl, (4)-cn, num edge types: 1
# Building blocks:
#     Node 0, Type 0, BuildingBlock: QUQFOY_clean_sbu_3, # of connection points: 4
#     Node 1, Type 0, BuildingBlock: QUQFOY_clean_sbu_3, # of connection points: 4
#     Node 2, Type 0, BuildingBlock: QUQFOY_clean_sbu_3, # of connection points: 4
#     Node 3, Type 0, BuildingBlock: QUQFOY_clean_sbu_3, # of connection points: 4
#     Node 4, Type 0, BuildingBlock: QUQFOY_clean_sbu_3, # of connection points: 4
#     Node 5, Type 0, BuildingBlock: QUQFOY_clean_sbu_3, # of connection points: 4
#     Node 6, Type 0, BuildingBlock: QUQFOY_clean_sbu_3, # of connection points: 4
#     Node 7, Type 0, BuildingBlock: QUQFOY_clean_sbu_3, # of connection points: 4
#     Node 8, Type 0, BuildingBlock: QUQFOY_clean_sbu_3, # of connection points: 4
#     Node 9, Type 0, BuildingBlock: QUQFOY_clean_sbu_3, # of connection points: 4
#     Node 10, Type 0, BuildingBlock: QUQFOY_clean_sbu_3, # of connection points: 4
#     Node 11, Type 0, BuildingBlock: QUQFOY_clean_sbu_3, # of connection points: 4
#     Node 12, Type 0, BuildingBlock: QUQFOY_clean_sbu_3, # of connection points: 4
#     Node 13, Type 0, BuildingBlock: QUQFOY_clean_sbu_3, # of connection points: 4
#     Node 14, Type 0, BuildingBlock: QUQFOY_clean_sbu_3, # of connection points: 4
#     Node 15, Type 0, BuildingBlock: QUQFOY_clean_sbu_3, # of connection points: 4
#     Node 16, Type 0, BuildingBlock: QUQFOY_clean_sbu_3, # of connection points: 4
#     Node 17, Type 0, BuildingBlock: QUQFOY_clean_sbu_3, # of connection points: 4
#     Node 18, Type 0, BuildingBlock: QUQFOY_clean_sbu_3, # of connection points: 4
#     Node 19, Type 0, BuildingBlock: QUQFOY_clean_sbu_3, # of connection points: 4
#     Node 20, Type 0, BuildingBlock: QUQFOY_clean_sbu_3, # of connection points: 4
#     Node 21, Type 0, BuildingBlock: QUQFOY_clean_sbu_3, # of connection points: 4
#     Node 22, Type 0, BuildingBlock: QUQFOY_clean_sbu_3, # of connection points: 4
#     Node 23, Type 0, BuildingBlock: QUQFOY_clean_sbu_3, # of connection points: 4
#     Node 24, Type 0, BuildingBlock: QUQFOY_clean_sbu_3, # of connection points: 4
#     Node 25, Type 0, BuildingBlock: QUQFOY_clean_sbu_3, # of connection points: 4
#     Node 26, Type 0, BuildingBlock: QUQFOY_clean_sbu_3, # of connection points: 4
#     Node 27, Type 0, BuildingBlock: QUQFOY_clean_sbu_3, # of connection points: 4
#     Node 28, Type 0, BuildingBlock: QUQFOY_clean_sbu_3, # of connection points: 4
#     Node 29, Type 0, BuildingBlock: QUQFOY_clean_sbu_3, # of connection points: 4
#     Node 30, Type 0, BuildingBlock: QUQFOY_clean_sbu_3, # of connection points: 4
#     Node 31, Type 0, BuildingBlock: QUQFOY_clean_sbu_3, # of connection points: 4
#     Node 32, Type 0, BuildingBlock: QUQFOY_clean_sbu_3, # of connection points: 4
#     Node 33, Type 0, BuildingBlock: QUQFOY_clean_sbu_3, # of connection points: 4
#     Node 34, Type 0, BuildingBlock: QUQFOY_clean_sbu_3, # of connection points: 4
#     Node 35, Type 0, BuildingBlock: QUQFOY_clean_sbu_3, # of connection points: 4
#     Edge 36, Type (0, 0), BuildingBlock: AJUNOK_clean_linker_0, # of connection points: 2
#     Edge 37, Type (0, 0), BuildingBlock: AJUNOK_clean_linker_0, # of connection points: 2
#     Edge 38, Type (0, 0), BuildingBlock: AJUNOK_clean_linker_0, # of connection points: 2
#     Edge 39, Type (0, 0), BuildingBlock: AJUNOK_clean_linker_0, # of connection points: 2
#     Edge 40, Type (0, 0), BuildingBlock: AJUNOK_clean_linker_0, # of connection points: 2
#     Edge 41, Type (0, 0), BuildingBlock: AJUNOK_clean_linker_0, # of connection points: 2
#     Edge 42, Type (0, 0), BuildingBlock: AJUNOK_clean_linker_0, # of connection points: 2
#     Edge 43, Type (0, 0), BuildingBlock: AJUNOK_clean_linker_0, # of connection points: 2
#     Edge 44, Type (0, 0), BuildingBlock: AJUNOK_clean_linker_0, # of connection points: 2
#     Edge 45, Type (0, 0), BuildingBlock: AJUNOK_clean_linker_0, # of connection points: 2
#     Edge 46, Type (0, 0), BuildingBlock: AJUNOK_clean_linker_0, # of connection points: 2
#     Edge 47, Type (0, 0), BuildingBlock: AJUNOK_clean_linker_0, # of connection points: 2
#     Edge 48, Type (0, 0), BuildingBlock: AJUNOK_clean_linker_0, # of connection points: 2
#     Edge 49, Type (0, 0), BuildingBlock: AJUNOK_clean_linker_0, # of connection points: 2
#     Edge 50, Type (0, 0), BuildingBlock: AJUNOK_clean_linker_0, # of connection points: 2
#     Edge 51, Type (0, 0), BuildingBlock: AJUNOK_clean_linker_0, # of connection points: 2
#     Edge 52, Type (0, 0), BuildingBlock: AJUNOK_clean_linker_0, # of connection points: 2
#     Edge 53, Type (0, 0), BuildingBlock: AJUNOK_clean_linker_0, # of connection points: 2
#     Edge 54, Type (0, 0), BuildingBlock: AJUNOK_clean_linker_0, # of connection points: 2
#     Edge 55, Type (0, 0), BuildingBlock: AJUNOK_clean_linker_0, # of connection points: 2
#     Edge 56, Type (0, 0), BuildingBlock: AJUNOK_clean_linker_0, # of connection points: 2
#     Edge 57, Type (0, 0), BuildingBlock: AJUNOK_clean_linker_0, # of connection points: 2
#     Edge 58, Type (0, 0), BuildingBlock: AJUNOK_clean_linker_0, # of connection points: 2
#     Edge 59, Type (0, 0), BuildingBlock: AJUNOK_clean_linker_0, # of connection points: 2
#     Edge 60, Type (0, 0), BuildingBlock: AJUNOK_clean_linker_0, # of connection points: 2
#     Edge 61, Type (0, 0), BuildingBlock: AJUNOK_clean_linker_0, # of connection points: 2
#     Edge 62, Type (0, 0), BuildingBlock: AJUNOK_clean_linker_0, # of connection points: 2
#     Edge 63, Type (0, 0), BuildingBlock: AJUNOK_clean_linker_0, # of connection points: 2
#     Edge 64, Type (0, 0), BuildingBlock: AJUNOK_clean_linker_0, # of connection points: 2
#     Edge 65, Type (0, 0), BuildingBlock: AJUNOK_clean_linker_0, # of connection points: 2
#     Edge 66, Type (0, 0), BuildingBlock: AJUNOK_clean_linker_0, # of connection points: 2
#     Edge 67, Type (0, 0), BuildingBlock: AJUNOK_clean_linker_0, # of connection points: 2
#     Edge 68, Type (0, 0), BuildingBlock: AJUNOK_clean_linker_0, # of connection points: 2
#     Edge 69, Type (0, 0), BuildingBlock: AJUNOK_clean_linker_0, # of connection points: 2
#     Edge 70, Type (0, 0), BuildingBlock: AJUNOK_clean_linker_0, # of connection points: 2
#     Edge 71, Type (0, 0), BuildingBlock: AJUNOK_clean_linker_0, # of connection points: 2
#     Edge 72, Type (0, 0), BuildingBlock: AJUNOK_clean_linker_0, # of connection points: 2
#     Edge 73, Type (0, 0), BuildingBlock: AJUNOK_clean_linker_0, # of connection points: 2
#     Edge 74, Type (0, 0), BuildingBlock: AJUNOK_clean_linker_0, # of connection points: 2
#     Edge 75, Type (0, 0), BuildingBlock: AJUNOK_clean_linker_0, # of connection points: 2
#     Edge 76, Type (0, 0), BuildingBlock: AJUNOK_clean_linker_0, # of connection points: 2
#     Edge 77, Type (0, 0), BuildingBlock: AJUNOK_clean_linker_0, # of connection points: 2
#     Edge 78, Type (0, 0), BuildingBlock: AJUNOK_clean_linker_0, # of connection points: 2
#     Edge 79, Type (0, 0), BuildingBlock: AJUNOK_clean_linker_0, # of connection points: 2
#     Edge 80, Type (0, 0), BuildingBlock: AJUNOK_clean_linker_0, # of connection points: 2
#     Edge 81, Type (0, 0), BuildingBlock: AJUNOK_clean_linker_0, # of connection points: 2
#     Edge 82, Type (0, 0), BuildingBlock: AJUNOK_clean_linker_0, # of connection points: 2
#     Edge 83, Type (0, 0), BuildingBlock: AJUNOK_clean_linker_0, # of connection points: 2
#     Edge 84, Type (0, 0), BuildingBlock: AJUNOK_clean_linker_0, # of connection points: 2
#     Edge 85, Type (0, 0), BuildingBlock: AJUNOK_clean_linker_0, # of connection points: 2
#     Edge 86, Type (0, 0), BuildingBlock: AJUNOK_clean_linker_0, # of connection points: 2
#     Edge 87, Type (0, 0), BuildingBlock: AJUNOK_clean_linker_0, # of connection points: 2
#     Edge 88, Type (0, 0), BuildingBlock: AJUNOK_clean_linker_0, # of connection points: 2
#     Edge 89, Type (0, 0), BuildingBlock: AJUNOK_clean_linker_0, # of connection points: 2
#     Edge 90, Type (0, 0), BuildingBlock: AJUNOK_clean_linker_0, # of connection points: 2
#     Edge 91, Type (0, 0), BuildingBlock: AJUNOK_clean_linker_0, # of connection points: 2
#     Edge 92, Type (0, 0), BuildingBlock: AJUNOK_clean_linker_0, # of connection points: 2
#     Edge 93, Type (0, 0), BuildingBlock: AJUNOK_clean_linker_0, # of connection points: 2
#     Edge 94, Type (0, 0), BuildingBlock: AJUNOK_clean_linker_0, # of connection points: 2
#     Edge 95, Type (0, 0), BuildingBlock: AJUNOK_clean_linker_0, # of connection points: 2
#     Edge 96, Type (0, 0), BuildingBlock: AJUNOK_clean_linker_0, # of connection points: 2
#     Edge 97, Type (0, 0), BuildingBlock: AJUNOK_clean_linker_0, # of connection points: 2
#     Edge 98, Type (0, 0), BuildingBlock: AJUNOK_clean_linker_0, # of connection points: 2
#     Edge 99, Type (0, 0), BuildingBlock: AJUNOK_clean_linker_0, # of connection points: 2
#     Edge 100, Type (0, 0), BuildingBlock: AJUNOK_clean_linker_0, # of connection points: 2
#     Edge 101, Type (0, 0), BuildingBlock: AJUNOK_clean_linker_0, # of connection points: 2
#     Edge 102, Type (0, 0), BuildingBlock: AJUNOK_clean_linker_0, # of connection points: 2
#     Edge 103, Type (0, 0), BuildingBlock: AJUNOK_clean_linker_0, # of connection points: 2
#     Edge 104, Type (0, 0), BuildingBlock: AJUNOK_clean_linker_0, # of connection points: 2
#     Edge 105, Type (0, 0), BuildingBlock: AJUNOK_clean_linker_0, # of connection points: 2
#     Edge 106, Type (0, 0), BuildingBlock: AJUNOK_clean_linker_0, # of connection points: 2
#     Edge 107, Type (0, 0), BuildingBlock: AJUNOK_clean_linker_0, # of connection points: 2
# Relax obj value: 0.039
# Max RMSD: 0.118
# Mean RMSD: 0.118
data_MOF--net-unl--node1-QUQFOY_clean_sbu_3--edge1-AJUNOK_clean_linker_0
_symmetry_space_group_name_H-M    P1
_symmetry_Int_Tables_number       1
_symmetry_cell_setting            triclinic
loop_
_symmetry_equiv_pos_as_xyz
'x, y, z'
_cell_length_a     51.400795
_cell_length_b     51.224738
_cell_length_c     31.700714
_cell_angle_alpha  90.088295
_cell_angle_beta   90.001399
_cell_angle_gamma 120.05109
loop_
_atom_site_label
_atom_site_type_symbol
_atom_site_fract_x
_atom_site_fract_y
_atom_site_fract_z
_atom_type_partial_charge
C0 C 0.14542 0.05214 0.04637 0.0
O1 O 0.12354 0.04424 0.07181 0.0
Cd2 Cd 0.11722 0.08138 0.11159 0.0
O3 O 0.16777 0.07885 0.0466 0.0
Cd4 Cd 0.19178 0.12643 0.08608 0.0
C5 C 0.1485 0.14025 0.0316 0.0
O6 O 0.16104 0.10979 0.14996 0.0
O7 O 0.18987 0.1576 0.14081 0.0
O8 O 0.22587 0.11033 0.10602 0.0
C9 C 0.16864 0.13644 0.16125 0.0
O10 O 0.13155 0.11892 0.05646 0.0
C11 C 0.24938 0.13559 0.0999 0.0
O12 O 0.17686 0.15105 0.03244 0.0
O13 O 0.24619 0.15642 0.08321 0.0
C14 C 0.90268 0.08809 0.04762 0.0
O15 O 0.90644 0.0685 0.06698 0.0
Cd16 Cd 0.86713 0.02534 0.1038 0.0
O17 O 0.87763 0.0873 0.04915 0.0
Cd18 Cd 0.83027 0.05973 0.08606 0.0
C19 C 0.8103 0.00119 0.02683 0.0
O20 O 0.84455 0.04327 0.15074 0.0
O21 O 0.79772 0.0208 0.13242 0.0
O22 O 0.84017 0.10611 0.11508 0.0
C23 C 0.81747 0.02392 0.15905 0.0
O24 O 0.82796 -0.00231 0.05136 0.0
C25 C 0.81538 0.10376 0.10434 0.0
O26 O 0.80829 0.02493 0.02785 0.0
O27 O 0.79716 0.081 0.08256 0.0
C28 C 0.86647 0.80726 0.04913 0.0
O29 O 0.88282 0.82843 0.07456 0.0
Cd30 Cd 0.92503 0.83302 0.11158 0.0
O31 O 0.86909 0.7838 0.04614 0.0
Cd32 Cd 0.89453 0.75976 0.08377 0.0
C33 C 0.94886 0.79918 0.03034 0.0
O34 O 0.90592 0.78906 0.15027 0.0
O35 O 0.93404 0.7703 0.13509 0.0
O36 O 0.84494 0.72409 0.10578 0.0
C37 C 0.9274 0.78509 0.16065 0.0
O38 O 0.94236 0.81296 0.0577 0.0
C39 C 0.84788 0.70107 0.10263 0.0
O40 O 0.93157 0.77088 0.02648 0.0
O41 O 0.8723 0.70495 0.08673 0.0
C42 C 0.04015 0.15831 0.40726 0.0
O43 O 0.03192 0.13632 0.38193 0.0
Cd44 Cd 0.06968 0.12842 0.34968 0.0
O45 O 0.06757 0.17885 0.41038 0.0
Cd46 Cd 0.11431 0.1993 0.36918 0.0
C47 C 0.12871 0.15924 0.42886 0.0
O48 O 0.09464 0.16914 0.30452 0.0
O49 O 0.1423 0.18924 0.31723 0.0
O50 O 0.09798 0.23294 0.34743 0.0
C51 C 0.12023 0.17417 0.29279 0.0
O52 O 0.10686 0.14091 0.40568 0.0
C53 C 0.12337 0.25672 0.3495 0.0
O54 O 0.13963 0.18757 0.42513 0.0
O55 O 0.14512 0.25432 0.36438 0.0
C56 C 0.79529 0.87502 0.40976 0.0
O57 O 0.81806 0.89181 0.38724 0.0
Cd58 Cd 0.82303 0.93516 0.3509 0.0
O59 O 0.77212 0.87782 0.40972 0.0
Cd60 Cd 0.75172 0.90379 0.36883 0.0
C61 C 0.79056 0.96079 0.42886 0.0
O62 O 0.78281 0.91891 0.30439 0.0
O63 O 0.76003 0.94326 0.32213 0.0
O64 O 0.71761 0.85608 0.33996 0.0
C65 C 0.7761 0.93899 0.29585 0.0
O66 O 0.81091 0.96061 0.40609 0.0
C67 C 0.69408 0.85751 0.34668 0.0
O68 O 0.76316 0.94019 0.4254 0.0
O69 O 0.69685 0.88013 0.3673 0.0
C70 C 0.07864 0.91147 0.40616 0.0
O71 O 0.06103 0.91631 0.3836 0.0
Cd72 Cd 0.01787 0.87804 0.34704 0.0
O73 O 0.07618 0.88556 0.4069 0.0
Cd74 Cd 0.04782 0.83799 0.36793 0.0
C75 C -0.00937 0.82269 0.42751 0.0
O76 O 0.03555 0.85457 0.30148 0.0
O77 O 0.00761 0.80795 0.31897 0.0
O78 O 0.09741 0.84982 0.35102 0.0
C79 C 0.01392 0.82868 0.29229 0.0
O80 O -0.01131 0.84085 0.40193 0.0
C81 C 0.09258 0.82315 0.35423 0.0
O82 O 0.01283 0.81817 0.42654 0.0
O83 O 0.06653 0.80264 0.36561 0.0
C84 C 0.79433 0.91187 0.90919 0.0
O85 O 0.81657 0.91885 0.88496 0.0
Cd86 Cd 0.82278 0.88062 0.84993 0.0
O87 O 0.77227 0.88506 0.9106 0.0
Cd88 Cd 0.75119 0.83807 0.87048 0.0
C89 C 0.79152 0.823 0.92968 0.0
O90 O 0.78184 0.85551 0.80483 0.0
O91 O 0.7604 0.80841 0.82242 0.0
O92 O 0.71395 0.85114 0.85161 0.0
C93 C 0.77601 0.82896 0.79614 0.0
O94 O 0.81054 0.84376 0.90575 0.0
C95 C 0.69173 0.82462 0.8541 0.0
O96 O 0.76365 0.81437 0.92725 0.0
O97 O 0.69674 0.80386 0.86605 0.0
C98 C 0.03798 0.87493 0.90817 0.0
O99 O 0.03287 0.89339 0.88824 0.0
Cd100 Cd 0.07074 0.93503 0.84875 0.0
O101 O 0.0633 0.87632 0.90609 0.0
Cd102 Cd 0.11075 0.90345 0.86798 0.0
C103 C 0.12813 0.96225 0.92632 0.0
O104 O 0.09312 0.91579 0.8036 0.0
O105 O 0.14048 0.94317 0.81819 0.0
O106 O 0.10009 0.85657 0.83927 0.0
C107 C 0.11905 0.93623 0.79254 0.0
O108 O 0.10927 0.96368 0.9017 0.0
C109 C 0.12451 0.85805 0.84987 0.0
O110 O 0.13243 0.93983 0.92564 0.0
O111 O 0.14322 0.88077 0.8714 0.0
C112 C 0.07874 0.15902 0.90439 0.0
O113 O 0.06049 0.13615 0.8828 0.0
Cd114 Cd 0.0169 0.13074 0.84709 0.0
O115 O 0.07679 0.18277 0.90488 0.0
Cd116 Cd 0.04809 0.20164 0.86657 0.0
C117 C -0.00818 0.16068 0.92776 0.0
O118 O 0.03329 0.17176 0.80198 0.0
O119 O 0.00659 0.19166 0.82069 0.0
O120 O 0.09417 0.23647 0.83739 0.0
C121 C 0.01166 0.17617 0.79421 0.0
O122 O -0.01029 0.13985 0.90344 0.0
C123 C 0.09238 0.2596 0.84629 0.0
O124 O 0.01358 0.18763 0.925 0.0
O125 O 0.07011 0.2563 0.86805 0.0
C126 C 0.90158 0.80708 0.54685 0.0
O127 O 0.90855 0.83001 0.57002 0.0
Cd128 Cd 0.87086 0.83651 0.60625 0.0
O129 O 0.87502 0.78447 0.54649 0.0
Cd130 Cd 0.82625 0.76086 0.58289 0.0
C131 C 0.81115 0.79899 0.52868 0.0
O132 O 0.84413 0.79342 0.64845 0.0
O133 O 0.79684 0.76873 0.63295 0.0
O134 O 0.84112 0.72534 0.60389 0.0
C135 C 0.81741 0.78627 0.65802 0.0
O136 O 0.83186 0.81196 0.5556 0.0
C137 C 0.81517 0.70224 0.60201 0.0
O138 O 0.79953 0.77067 0.52455 0.0
O139 O 0.79393 0.70596 0.58857 0.0
C140 C 0.14797 0.08719 0.55132 0.0
O141 O 0.12629 0.07102 0.5761 0.0
Cd142 Cd 0.11988 0.02791 0.61506 0.0
O143 O 0.17099 0.08403 0.54954 0.0
Cd144 Cd 0.19269 0.05763 0.58893 0.0
C145 C 0.14787 -0.00069 0.53391 0.0
O146 O 0.16347 0.04499 0.65379 0.0
O147 O 0.18869 0.02247 0.64246 0.0
O148 O 0.22872 0.10782 0.60543 0.0
C149 C 0.16948 0.02483 0.66465 0.0
O150 O 0.1294 0.00151 0.5585 0.0
C151 C 0.25121 0.1043 0.60063 0.0
O152 O 0.17591 0.01832 0.5354 0.0
O153 O 0.24675 0.07883 0.58777 0.0
C154 C 0.86179 0.05193 0.54968 0.0
O155 O 0.87703 0.04609 0.57562 0.0
Cd156 Cd 0.92042 0.084 0.61091 0.0
O157 O 0.86658 0.07871 0.54584 0.0
Cd158 Cd 0.89376 0.12679 0.58509 0.0
C159 C 0.9502 0.14083 0.52917 0.0
O160 O 0.90301 0.10901 0.653 0.0
O161 O 0.9335 0.15516 0.63581 0.0
O162 O 0.8431 0.11249 0.59994 0.0
C163 C 0.92526 0.13428 0.66283 0.0
O164 O 0.94744 0.12063 0.5552 0.0
C165 C 0.84704 0.13892 0.60011 0.0
O166 O 0.93065 0.14914 0.52809 0.0
O167 O 0.87303 0.16049 0.59038 0.0
C168 C 0.80991 0.38214 0.38064 0.0
O169 O 0.78792 0.37695 0.40442 0.0
Cd170 Cd 0.78446 0.41719 0.43957 0.0
O171 O 0.83297 0.40827 0.37913 0.0
Cd172 Cd 0.85526 0.45574 0.41739 0.0
C173 C 0.81577 0.4742 0.36004 0.0
O174 O 0.82604 0.44391 0.48387 0.0
O175 O 0.85061 0.49015 0.46277 0.0
O176 O 0.88837 0.43971 0.44286 0.0
C177 C 0.83371 0.47136 0.49021 0.0
O178 O 0.79611 0.45519 0.38531 0.0
C179 C 0.91231 0.46469 0.43758 0.0
O180 O 0.8425 0.4787 0.35955 0.0
O181 O 0.91006 0.48542 0.41869 0.0
C182 C 0.56556 0.42086 0.38286 0.0
O183 O 0.57383 0.40684 0.40757 0.0
Cd184 Cd 0.53659 0.36263 0.44355 0.0
O185 O 0.53841 0.41503 0.38147 0.0
Cd186 Cd 0.48995 0.38921 0.41894 0.0
C187 C 0.4773 0.3357 0.3635 0.0
O188 O 0.50983 0.3791 0.48393 0.0
O189 O 0.46235 0.35098 0.47191 0.0
O190 O 0.50659 0.4397 0.43889 0.0
C191 C 0.48461 0.35788 0.4959 0.0
O192 O 0.49822 0.34279 0.39005 0.0
C193 C 0.48121 0.438 0.43731 0.0
O194 O 0.46536 0.3522 0.3609 0.0
O195 O 0.45924 0.4134 0.42362 0.0
C196 C 0.53046 0.13902 0.38229 0.0
O197 O 0.54548 0.16071 0.40768 0.0
Cd198 Cd 0.58709 0.16461 0.4473 0.0
O199 O 0.53421 0.11625 0.38084 0.0
Cd200 Cd 0.56016 0.09392 0.42052 0.0
C201 C 0.61627 0.13756 0.3648 0.0
O202 O 0.56997 0.12119 0.48744 0.0
O203 O 0.59951 0.1042 0.47128 0.0
O204 O 0.51144 0.05864 0.44335 0.0
C205 C 0.59184 0.11776 0.49761 0.0
O206 O 0.61269 0.1546 0.39057 0.0
C207 C 0.51353 0.03533 0.43733 0.0
O208 O 0.59839 0.10916 0.36517 0.0
O209 O 0.5374 0.03878 0.41993 0.0
C210 C 0.70519 0.48928 0.74104 0.0
O211 O 0.70005 0.46871 0.71442 0.0
Cd212 Cd 0.73854 0.46359 0.68132 0.0
O213 O 0.73157 0.51184 0.74544 0.0
Cd214 Cd 0.7795 0.53357 0.7057 0.0
C215 C 0.79575 0.49415 0.76265 0.0
O216 O 0.76309 0.50508 0.63794 0.0
O217 O 0.80907 0.52232 0.65808 0.0
O218 O 0.76728 0.5709 0.68428 0.0
C219 C 0.78914 0.50963 0.62989 0.0
O220 O 0.77557 0.4765 0.73683 0.0
C221 C 0.79387 0.59306 0.68564 0.0
O222 O 0.80368 0.52199 0.7636 0.0
O223 O 0.81413 0.58816 0.70004 0.0
C224 C 0.46114 0.20942 0.74049 0.0
O225 O 0.48406 0.22715 0.71882 0.0
Cd226 Cd 0.48786 0.2689 0.67946 0.0
O227 O 0.43719 0.21092 0.73932 0.0
Cd228 Cd 0.41587 0.23763 0.70073 0.0
C229 C 0.45858 0.29569 0.75964 0.0
O230 O 0.44541 0.25038 0.63632 0.0
O231 O 0.42447 0.27675 0.65103 0.0
O232 O 0.37877 0.1886 0.67992 0.0
C233 C 0.44065 0.27151 0.62625 0.0
O234 O 0.47881 0.29637 0.73558 0.0
C235 C 0.35676 0.19291 0.68451 0.0
O236 O 0.43131 0.27457 0.75719 0.0
O237 O 0.36176 0.21804 0.69956 0.0
C238 C 0.74123 0.24431 0.74115 0.0
O239 O 0.72222 0.24861 0.72127 0.0
Cd240 Cd 0.67957 0.20965 0.68391 0.0
O241 O 0.74004 0.21893 0.73956 0.0
Cd242 Cd 0.7131 0.17079 0.7016 0.0
C243 C 0.65451 0.15198 0.7608 0.0
O244 O 0.69955 0.18844 0.63806 0.0
O245 O 0.67423 0.14078 0.65104 0.0
O246 O 0.76283 0.18316 0.68274 0.0
C247 C 0.67901 0.16249 0.62706 0.0
O248 O 0.65184 0.17053 0.73692 0.0
C249 C 0.75828 0.15651 0.68495 0.0
O250 O 0.67752 0.1488 0.75916 0.0
O251 O 0.73269 0.13603 0.69788 0.0
C252 C 0.4641 0.24577 0.24153 0.0
O253 O 0.48739 0.25167 0.2201 0.0
Cd254 Cd 0.49255 0.21387 0.18136 0.0
O255 O 0.44057 0.21979 0.24075 0.0
Cd256 Cd 0.41554 0.16994 0.20584 0.0
C257 C 0.45505 0.15564 0.26118 0.0
O258 O 0.44845 0.18739 0.142 0.0
O259 O 0.42042 0.13964 0.1517 0.0
O260 O 0.38233 0.18697 0.18393 0.0
C261 C 0.44077 0.16086 0.13011 0.0
O262 O 0.46787 0.17578 0.23345 0.0
C263 C 0.35861 0.1615 0.18631 0.0
O264 O 0.42671 0.14366 0.26451 0.0
O265 O 0.36081 0.14001 0.20267 0.0
C266 C 0.70634 0.20765 0.23895 0.0
O267 O 0.70225 0.2248 0.21424 0.0
Cd268 Cd 0.7406 0.2678 0.1778 0.0
O269 O 0.73172 0.20904 0.24085 0.0
Cd270 Cd 0.77921 0.23516 0.20106 0.0
C271 C 0.79446 0.29304 0.26007 0.0
O272 O 0.76521 0.24985 0.13615 0.0
O273 O 0.81203 0.27514 0.15373 0.0
O274 O 0.76679 0.18768 0.1746 0.0
C275 C 0.79143 0.27106 0.12803 0.0
O276 O 0.77628 0.29518 0.23485 0.0
C277 C 0.79192 0.18996 0.18292 0.0
O278 O 0.79944 0.27109 0.25823 0.0
O279 O 0.81142 0.2131 0.20299 0.0
C280 C 0.74408 0.49253 0.24092 0.0
O281 O 0.73111 0.47123 0.21437 0.0
Cd282 Cd 0.68569 0.46418 0.18199 0.0
O283 O 0.73701 0.5129 0.24438 0.0
Cd284 Cd 0.71154 0.53404 0.20383 0.0
C285 C 0.65576 0.49254 0.26195 0.0
O286 O 0.70095 0.5054 0.13758 0.0
O287 O 0.67203 0.52323 0.1536 0.0
O288 O 0.76158 0.56797 0.18409 0.0
C289 C 0.67911 0.50895 0.12765 0.0
O290 O 0.65777 0.47389 0.23727 0.0
C291 C 0.76004 0.5918 0.1867 0.0
O292 O 0.67545 0.52046 0.26117 0.0
O293 O 0.73557 0.58918 0.20065 0.0
C294 C 0.56547 0.13839 0.87723 0.0
O295 O 0.5729 0.16276 0.8972 0.0
Cd296 Cd 0.5372 0.17172 0.93415 0.0
O297 O 0.53892 0.11579 0.87973 0.0
Cd298 Cd 0.48974 0.09437 0.91635 0.0
C299 C 0.47611 0.13255 0.85999 0.0
O300 O 0.51217 0.12958 -0.02138 0.0
O301 O 0.46384 0.10434 0.97183 0.0
O302 O 0.50374 0.05736 0.93393 0.0
C303 C 0.48659 0.12314 -0.00729 0.0
O304 O 0.49716 0.14501 0.8864 0.0
C305 C 0.47727 0.03508 0.93498 0.0
O306 O 0.46271 0.10399 0.85766 0.0
O307 O 0.45594 0.0398 0.92557 0.0
C308 C 0.81342 0.42245 0.88529 0.0
O309 O 0.79007 0.40568 0.9068 0.0
Cd310 Cd 0.78467 0.36158 0.94175 0.0
O311 O 0.83578 0.41834 0.88496 0.0
Cd312 Cd 0.85529 0.39059 0.92279 0.0
C313 C 0.81343 0.33441 0.86145 0.0
O314 O 0.82597 0.37934 -0.01236 0.0
O315 O 0.84473 0.35097 0.97247 0.0
O316 O 0.89246 0.43945 0.94437 0.0
C317 C 0.83077 0.35837 -0.00159 0.0
O318 O 0.79293 0.3334 0.88523 0.0
C319 C 0.91472 0.4356 0.93892 0.0
O320 O 0.84067 0.35531 0.86484 0.0
O321 O 0.90954 0.41067 0.92279 0.0
C322 C 0.5293 0.38572 0.88271 0.0
O323 O 0.54469 0.37951 0.90792 0.0
Cd324 Cd 0.58799 0.41675 0.94516 0.0
O325 O 0.53366 0.41245 0.88061 0.0
Cd326 Cd 0.56072 0.46028 0.9211 0.0
C327 C 0.61635 0.47321 0.86394 0.0
O328 O 0.57108 0.44227 -0.01303 0.0
O329 O 0.60068 0.48894 0.97104 0.0
O330 O 0.51082 0.44744 0.93763 0.0
C331 C 0.59353 0.46743 -0.00339 0.0
O332 O 0.61422 0.45259 0.8886 0.0
C333 C 0.51548 0.47414 0.93706 0.0
O334 O 0.59759 0.4825 0.86559 0.0
O335 O 0.54134 0.49506 0.92568 0.0
C336 C 0.47933 0.7173 0.71569 0.0
O337 O 0.456 0.71125 0.73689 0.0
Cd338 Cd 0.4514 0.74885 0.77626 0.0
O339 O 0.50287 0.7431 0.71747 0.0
Cd340 Cd 0.52418 0.79081 0.75611 0.0
C341 C 0.48155 0.80568 0.6967 0.0
O342 O 0.49332 0.77451 0.82022 0.0
O343 O 0.5152 0.82181 0.80455 0.0
O344 O 0.56163 0.77854 0.77591 0.0
C345 C 0.49798 0.80064 0.82908 0.0
O346 O 0.46166 0.78665 0.72176 0.0
C347 C 0.58366 0.80514 0.77291 0.0
O348 O 0.50863 0.81111 0.69767 0.0
O349 O 0.57853 0.82553 0.75947 0.0
C350 C 0.23493 0.75639 0.7162 0.0
O351 O 0.24102 0.73826 0.7351 0.0
Cd352 Cd 0.20331 0.69367 0.77022 0.0
O353 O 0.2089 0.7533 0.71768 0.0
Cd354 Cd 0.16228 0.72485 0.7559 0.0
C355 C 0.14416 0.66777 0.69526 0.0
O356 O 0.1801 0.71006 0.81808 0.0
O357 O 0.1324 0.68474 0.80366 0.0
O358 O 0.17244 0.77046 0.78797 0.0
C359 C 0.15386 0.68973 0.82823 0.0
O360 O 0.16379 0.66614 0.7179 0.0
C361 C 0.14786 0.76891 0.77808 0.0
O362 O 0.13969 0.69 0.69785 0.0
O363 O 0.12955 0.74702 0.75498 0.0
C364 C 0.19501 0.47047 0.71584 0.0
O365 O 0.20883 0.49229 0.74138 0.0
Cd366 Cd 0.25372 0.49866 0.77442 0.0
O367 O 0.20113 0.44937 0.7135 0.0
Cd368 Cd 0.22711 0.42885 0.75398 0.0
C369 C 0.28207 0.46807 0.69556 0.0
O370 O 0.23901 0.45804 0.8197 0.0
O371 O 0.26861 0.44139 0.80128 0.0
O372 O 0.17984 0.39404 0.78137 0.0
C373 C 0.26144 0.45508 0.82811 0.0
O374 O 0.28049 0.48712 0.7199 0.0
C375 C 0.18114 0.37065 0.77246 0.0
O376 O 0.26195 0.44036 0.69638 0.0
O377 O 0.20411 0.37384 0.75268 0.0
C378 C 0.37528 0.82485 0.07903 0.0
O379 O 0.36847 0.80118 0.05763 0.0
Cd380 Cd 0.40501 0.79472 0.01918 0.0
O381 O 0.40159 0.84796 0.07705 0.0
Cd382 Cd 0.45057 0.87041 0.03839 0.0
C383 C 0.46628 0.83379 0.09384 0.0
O384 O 0.42819 0.8371 0.97503 0.0
O385 O 0.47611 0.85811 -0.01617 0.0
O386 O 0.43653 0.9073 0.02143 0.0
C387 C 0.4533 0.84208 0.96104 0.0
O388 O 0.44508 0.82069 0.06771 0.0
C389 C 0.46311 0.92913 0.01786 0.0
O390 O 0.47858 0.86224 0.09683 0.0
O391 O 0.48448 0.92435 0.02664 0.0
C392 C 0.12955 0.54301 0.07354 0.0
O393 O 0.15178 0.56224 0.05196 0.0
Cd394 Cd 0.15553 0.60486 0.01418 0.0
O395 O 0.105 0.54335 0.07385 0.0
Cd396 Cd 0.08279 0.56923 0.03655 0.0
C397 C 0.12404 0.63013 0.09226 0.0
O398 O 0.11284 0.58457 0.97216 0.0
O399 O 0.08561 0.60477 -0.01556 0.0
O400 O 0.04846 0.51979 0.01468 0.0
C401 C 0.10488 0.60328 0.96115 0.0
O402 O 0.14461 0.63261 0.06729 0.0
C403 C 0.02496 0.52131 0.02124 0.0
O404 O 0.09795 0.60673 0.09241 0.0
O405 O 0.02815 0.54527 0.03839 0.0
C406 C 0.40945 0.57488 0.07219 0.0
O407 O 0.3961 0.58061 0.04303 0.0
Cd408 Cd 0.35258 0.54321 0.00784 0.0
O409 O 0.40419 0.54806 0.07811 0.0
Cd410 Cd 0.3786 0.49988 0.03727 0.0
C411 C 0.32241 0.48745 0.09176 0.0
O412 O 0.36973 0.51718 0.96876 0.0
O413 O 0.33997 0.47084 -0.0149 0.0
O414 O 0.4296 0.51504 0.02436 0.0
C415 C 0.34735 0.49206 0.95887 0.0
O416 O 0.32664 0.50788 0.06519 0.0
C417 C 0.42602 0.48874 0.02448 0.0
O418 O 0.34027 0.47701 0.09266 0.0
O419 O 0.40007 0.4669 0.0337 0.0
C420 C 0.12626 0.5776 0.5778 0.0
O421 O 0.14911 0.58475 0.55471 0.0
Cd422 Cd 0.1551 0.54725 0.51637 0.0
O423 O 0.10348 0.55132 0.57653 0.0
Cd424 Cd 0.08248 0.50507 0.5364 0.0
C425 C 0.12487 0.48918 0.59414 0.0
O426 O 0.11322 0.52207 0.47225 0.0
O427 O 0.08876 0.4743 0.48525 0.0
O428 O 0.04661 0.51852 0.51441 0.0
C429 C 0.10696 0.49569 0.4617 0.0
O430 O 0.14492 0.50889 0.56995 0.0
C431 C 0.02376 0.4927 0.52028 0.0
O432 O 0.0977 0.48332 0.5928 0.0
O433 O 0.02809 0.47266 0.53722 0.0
C434 C 0.37151 0.53984 0.57564 0.0
O435 O 0.36337 0.55458 0.55221 0.0
Cd436 Cd 0.40056 0.59985 0.51826 0.0
O437 O 0.39857 0.54557 0.57679 0.0
Cd438 Cd 0.44633 0.57236 0.53949 0.0
C439 C 0.4611 0.62549 0.59567 0.0
O440 O 0.42791 0.5859 0.47419 0.0
O441 O 0.47502 0.61168 0.49137 0.0
O442 O 0.43387 0.52377 0.5145 0.0
C443 C 0.45429 0.60681 0.4655 0.0
O444 O 0.43985 0.61922 0.57007 0.0
C445 C 0.45979 0.5269 0.51856 0.0
O446 O 0.47174 0.60787 0.59803 0.0
O447 O 0.47988 0.55121 0.53558 0.0
C448 C 0.41199 0.82618 0.57558 0.0
O449 O 0.39926 0.80507 0.54871 0.0
Cd450 Cd 0.35387 0.79745 0.51615 0.0
O451 O 0.40478 0.84648 0.57912 0.0
Cd452 Cd 0.37899 0.86698 0.53721 0.0
C453 C 0.32479 0.82777 0.59517 0.0
O454 O 0.36791 0.838 0.47134 0.0
O455 O 0.33737 0.85349 0.48963 0.0
O456 O 0.42761 0.90091 0.51266 0.0
C457 C 0.34519 0.84041 0.46274 0.0
O458 O 0.32785 0.80969 0.57069 0.0
C459 C 0.42533 0.92432 0.51529 0.0
O460 O 0.34386 0.85584 0.59468 0.0
O461 O 0.40166 0.92177 0.53217 0.0
C462 C 0.23396 0.4702 0.21841 0.0
O463 O 0.24004 0.49325 0.24061 0.0
Cd464 Cd 0.20234 0.49953 0.27553 0.0
O465 O 0.20754 0.44748 0.21733 0.0
Cd466 Cd 0.15959 0.42821 0.2557 0.0
C467 C 0.14621 0.46971 0.19453 0.0
O468 O 0.17765 0.45824 0.32003 0.0
O469 O 0.13072 0.44009 0.30458 0.0
O470 O 0.17159 0.39195 0.2796 0.0
C471 C 0.15227 0.45457 0.33005 0.0
O472 O 0.16665 0.48936 0.21834 0.0
C473 C 0.14582 0.36905 0.27431 0.0
O474 O 0.13765 0.44182 0.19806 0.0
O475 O 0.12575 0.37333 0.25752 0.0
C476 C 0.47759 0.7548 0.21285 0.0
O477 O 0.45477 0.73824 0.23551 0.0
Cd478 Cd 0.44983 0.69549 0.27498 0.0
O479 O 0.50074 0.75192 0.21345 0.0
Cd480 Cd 0.52133 0.72523 0.25304 0.0
C481 C 0.47858 0.66672 0.19606 0.0
O482 O 0.4914 0.71032 0.31863 0.0
O483 O 0.51362 0.68581 0.29931 0.0
O484 O 0.55723 0.77216 0.2828 0.0
C485 C 0.49749 0.68963 0.32606 0.0
O486 O 0.45956 0.66801 0.2205 0.0
C487 C 0.5803 0.77064 0.27281 0.0
O488 O 0.50627 0.68703 0.19713 0.0
O489 O 0.57632 0.7482 0.25056 0.0
C490 C 0.19674 0.71905 0.21218 0.0
O491 O 0.21248 0.71152 0.23452 0.0
Cd492 Cd 0.25597 0.74882 0.27326 0.0
O493 O 0.20043 0.74544 0.21442 0.0
Cd494 Cd 0.22664 0.79151 0.25619 0.0
C495 C 0.28481 0.80775 0.19732 0.0
O496 O 0.23868 0.77242 0.31988 0.0
O497 O 0.26419 0.82032 0.3078 0.0
O498 O 0.17673 0.77877 0.274 0.0
C499 C 0.25922 0.79835 0.33138 0.0
O500 O 0.28543 0.78754 0.22009 0.0
C501 C 0.18147 0.80549 0.2722 0.0
O502 O 0.26353 0.81359 0.20013 0.0
O503 O 0.20725 0.82619 0.26024 0.0
C504 C 0.13524 0.0001 0.02967 0.0
C505 C 0.14591 0.03006 0.01682 0.0
C506 C 0.13347 0.9783 0.00106 0.0
C507 C 0.1418 -0.01417 0.95867 0.0
H508 H 0.12728 -0.00676 0.06163 0.0
H509 H 0.12302 0.95501 0.01119 0.0
S510 S 0.1752 0.0617 0.91049 0.0
N511 N 0.16821 0.0667 0.95985 0.0
N512 N 0.16458 0.02557 0.90638 0.0
C513 C 0.15493 0.01612 0.9464 0.0
C514 C 0.15693 0.03832 0.97538 0.0
C515 C 0.91998 0.12516 -0.01167 0.0
C516 C 0.92707 0.11163 0.02179 0.0
C517 C 0.94205 0.14428 0.95961 0.0
C518 C -0.02809 0.15106 0.96431 0.0
H519 H 0.89693 0.11941 -0.01743 0.0
H520 H 0.93537 0.15207 0.93211 0.0
S521 S 0.00322 0.12589 0.04985 0.0
N522 N 0.96689 0.10935 0.06029 0.0
N523 N 0.00835 0.14608 0.00686 0.0
C524 C -0.02019 0.1401 -0.00041 0.0
C525 C 0.95736 0.1201 0.02824 0.0
C526 C 0.80195 0.78801 0.97245 0.0
C527 C 0.80422 0.81624 0.96662 0.0
C528 C 0.82161 0.78494 0.00032 0.0
C529 C 0.84419 0.81008 0.02257 0.0
H530 H 0.78628 0.76879 0.95372 0.0
H531 H 0.81979 0.76302 0.0033 0.0
S532 S 0.85757 0.88848 0.01805 0.0
N533 N 0.82866 0.86891 -0.01341 0.0
N534 N 0.86648 0.86395 0.03689 0.0
C535 C 0.84548 0.83806 0.01787 0.0
C536 C 0.82517 0.84086 -0.0095 0.0
C537 C -0.00096 0.14632 0.50909 0.0
C538 C -0.02451 0.1518 0.49889 0.0
C539 C 0.02008 0.14913 0.47915 0.0
C540 C 0.01871 0.1579 0.43792 0.0
H541 H 0.00056 0.13838 0.54016 0.0
H542 H 0.03701 0.14344 0.48802 0.0
S543 S 0.96686 0.18245 0.39684 0.0
N544 N 0.95545 0.1717 0.44587 0.0
N545 N -0.00429 0.17712 0.38932 0.0
C546 C -0.00274 0.16626 0.42776 0.0
C547 C -0.02445 0.1634 0.45848 0.0
C548 C 0.78093 0.82373 0.43674 0.0
C549 C 0.79739 0.85527 0.4411 0.0
C550 C 0.78424 0.8051 0.46623 0.0
C551 C 0.80374 0.81766 0.50103 0.0
H552 H 0.76624 0.81355 0.40982 0.0
H553 H 0.77228 0.78094 0.46101 0.0
S554 S 0.8465 0.89903 0.53025 0.0
N555 N 0.83047 0.8981 0.48473 0.0
N556 N 0.83572 0.86358 0.54122 0.0
C557 C 0.81814 0.84919 0.50722 0.0
C558 C 0.81528 0.86792 0.47685 0.0
C559 C 0.09345 0.95793 0.44706 0.0
C560 C 0.09983 0.93535 0.43512 0.0
C561 C 0.11035 0.97903 0.47777 0.0
C562 C 0.13458 0.9788 0.49782 0.0
H563 H 0.07441 0.9587 0.43386 0.0
H564 H 0.10381 -0.00461 0.48672 0.0
S565 S 0.16304 0.92646 0.47513 0.0
N566 N 0.13369 0.91518 0.44355 0.0
N567 N 0.16601 0.95571 0.50161 0.0
C568 C 0.1426 0.95751 0.48489 0.0
C569 C 0.12496 0.93547 0.45355 0.0
C570 C 0.78086 0.9485 0.00359 0.0
C571 C 0.79662 0.97918 -0.00722 0.0
C572 C 0.77899 0.92662 0.97537 0.0
C573 C 0.79334 0.93493 0.93586 0.0
H574 H 0.77222 0.94167 0.0353 0.0
H575 H 0.76807 0.90336 -0.01424 0.0
S576 S 0.8317 0.01177 0.88971 0.0
N577 N 0.82206 0.01635 0.93771 0.0
N578 N 0.81951 0.97531 0.88485 0.0
C579 C 0.80658 0.96523 0.92324 0.0
C580 C 0.80775 -0.01263 0.95163 0.0
C581 C -0.02001 0.80492 0.9656 0.0
C582 C -0.02586 0.81751 0.0014 0.0
C583 C 0.00118 0.82358 0.93531 0.0
C584 C 0.01641 0.85515 0.93975 0.0
H585 H 0.96762 0.78078 0.96035 0.0
H586 H 0.00504 0.8134 0.90779 0.0
S587 S 0.01334 0.89897 0.03067 0.0
N588 N -0.01089 0.86353 0.04209 0.0
N589 N 0.0272 0.89799 -0.01587 0.0
C590 C 0.01205 0.8678 0.97622 0.0
C591 C -0.00862 0.84908 0.00741 0.0
C592 C 0.08728 0.12864 0.95623 0.0
C593 C 0.09881 0.15594 0.93453 0.0
C594 C 0.10396 0.12456 -0.01282 0.0
C595 C 0.13326 0.14742 -0.00222 0.0
H596 H 0.06472 0.11029 0.94998 0.0
H597 H 0.09351 0.10282 0.00274 0.0
S598 S 0.17417 0.22369 0.9495 0.0
N599 N 0.14124 0.20678 0.92521 0.0
N600 N 0.17348 0.19883 -0.01652 0.0
C601 C 0.14555 0.17507 0.97597 0.0
C602 C 0.12804 0.17942 0.94447 0.0
C603 C 0.91598 0.79347 0.47893 0.0
C604 C 0.92432 0.80623 0.51947 0.0
C605 C 0.93765 0.79579 0.45012 0.0
C606 C 0.96818 0.81022 0.46132 0.0
H607 H 0.89287 0.78346 0.46842 0.0
H608 H 0.9308 0.78818 0.41798 0.0
S609 S 0.00047 0.84059 0.56676 0.0
N610 N 0.96435 0.82937 0.57159 0.0
N611 N 0.00504 0.83269 0.51767 0.0
C612 C -0.02367 0.81985 0.50321 0.0
C613 C 0.95437 0.81826 0.53225 0.0
C614 C 0.11234 0.12236 0.48589 0.0
C615 C 0.13654 0.14586 0.46423 0.0
C616 C 0.11661 0.10426 0.51444 0.0
C617 C 0.14538 0.10872 0.52274 0.0
H618 H 0.0895 0.11721 0.47966 0.0
H619 H 0.09688 0.08593 0.52909 0.0
S620 S 0.21708 0.16896 0.4766 0.0
N621 N 0.19086 0.17419 0.45453 0.0
N622 N 0.19916 0.13977 0.50857 0.0
C623 C 0.17026 0.13299 0.50244 0.0
C624 C 0.16582 0.1518 0.47326 0.0
C625 C 0.83934 8e-05 0.52067 0.0
C626 C 0.83913 0.02739 0.52276 0.0
C627 C 0.8208 0.97739 0.49268 0.0
C628 C 0.80128 0.98092 0.4655 0.0
H629 H 0.85496 -0.00342 0.5394 0.0
H630 H 0.82314 0.95753 0.49039 0.0
S631 S 0.78836 0.04594 0.46243 0.0
N632 N 0.81489 0.05528 0.49842 0.0
N633 N 0.78008 0.01218 0.44495 0.0
C634 C 0.79898 0.00704 0.46895 0.0
C635 C 0.81801 0.03044 0.49776 0.0
C636 C 0.82595 0.34404 0.28987 0.0
C637 C 0.80478 0.31354 0.29616 0.0
C638 C 0.82845 0.36594 0.31867 0.0
C639 C 0.80923 0.35804 0.354 0.0
H640 H 0.83921 0.35119 0.2612 0.0
H641 H 0.84428 0.38937 0.31171 0.0
S642 S 0.75293 0.28022 0.38665 0.0
N643 N 0.76691 0.27582 0.34204 0.0
N644 N 0.77079 0.31692 0.39585 0.0
C645 C 0.78945 0.32724 0.36196 0.0
C646 C 0.78749 0.30497 0.33308 0.0
C647 C 0.58267 0.43517 0.30969 0.0
C648 C 0.58695 0.44256 0.3526 0.0
C649 C 0.60409 0.45349 0.28006 0.0
C650 C 0.63054 0.47989 0.29227 0.0
H651 H 0.56336 0.41429 0.29919 0.0
H652 H 0.60071 0.44595 0.24751 0.0
S653 S 0.64763 0.51307 0.40003 0.0
N654 N 0.6161 0.48048 0.40552 0.0
N655 N 0.65666 0.51561 0.34946 0.0
C656 C 0.63337 0.48937 0.33464 0.0
C657 C 0.61153 0.47033 0.36505 0.0
C658 C 0.4797 0.1226 0.35064 0.0
C659 C 0.51108 0.14195 0.35069 0.0
C660 C 0.46131 0.12652 0.32127 0.0
C661 C 0.47395 0.14951 0.2906 0.0
H662 H 0.46932 0.10489 0.37403 0.0
H663 H 0.43718 0.11176 0.32289 0.0
S664 S 0.5556 0.20317 0.27463 0.0
N665 N 0.55413 0.1831 0.31617 0.0
N666 N 0.5204 0.18978 0.26008 0.0
C667 C 0.50559 0.16776 0.28927 0.0
C668 C 0.52396 0.1642 0.3196 0.0
C669 C 0.66082 0.50799 0.81964 0.0
C670 C 0.6358 0.47941 0.82723 0.0
C671 C 0.68294 0.51132 0.7905 0.0
C672 C 0.6805 0.48618 0.76844 0.0
H673 H 0.6641 0.52735 0.8378 0.0
H674 H 0.70245 0.53349 0.78621 0.0
S675 S 0.61772 0.40697 0.77692 0.0
N676 N 0.60855 0.42628 0.80925 0.0
N677 N 0.6501 0.432 0.75589 0.0
C678 C 0.65468 0.45783 0.7748 0.0
C679 C 0.6323 0.45464 0.80384 0.0
C680 C 0.44458 0.1582 0.77048 0.0
C681 C 0.4637 0.18968 0.77169 0.0
C682 C 0.44796 0.13944 0.79972 0.0
C683 C 0.47014 0.15183 0.83143 0.0
H684 H 0.42755 0.14805 0.74616 0.0
H685 H 0.43356 0.11523 0.79702 0.0
S686 S 0.52175 0.23367 0.85211 0.0
N687 N 0.50297 0.23264 0.80931 0.0
N688 N 0.50866 0.19813 0.86523 0.0
C689 C 0.48785 0.18358 0.8344 0.0
C690 C 0.48485 0.20235 0.80421 0.0
C691 C 0.7958 0.28363 0.83111 0.0
C692 C 0.80357 0.31383 0.82535 0.0
C693 C 0.77692 0.2614 0.8022 0.0
C694 C 0.76463 0.26868 0.76741 0.0
H695 H 0.80269 0.27689 0.85945 0.0
H696 H 0.77037 0.23814 0.80873 0.0
S697 S 0.78214 0.34562 0.73601 0.0
N698 N 0.80107 0.35068 0.78026 0.0
N699 N 0.76478 0.30898 0.72649 0.0
C700 C 0.77416 0.29925 0.75994 0.0
C701 C 0.79391 0.32183 0.78882 0.0
C702 C 0.45237 0.30461 0.29805 0.0
C703 C 0.47016 0.3102 0.33449 0.0
C704 C 0.45001 0.28331 0.26779 0.0
C705 C 0.46581 0.26764 0.27294 0.0
H706 H 0.44107 0.31731 0.29224 0.0
H707 H 0.4365 0.27967 0.23979 0.0
S708 S 0.51051 0.2698 0.36582 0.0
N709 N 0.49965 0.29437 0.37657 0.0
N710 N 0.4965 0.25621 0.31876 0.0
C711 C 0.48205 0.27173 0.31007 0.0
C712 C 0.4838 0.2925 0.34118 0.0
C713 C 0.68018 0.16163 0.28562 0.0
C714 C 0.68217 0.1881 0.26871 0.0
C715 C 0.65791 0.14399 0.31555 0.0
C716 C 0.63749 0.15277 0.32981 0.0
H717 H 0.69601 0.15467 0.2759 0.0
H718 H 0.65735 0.12418 0.32859 0.0
S719 S 0.634 0.22047 0.29687 0.0
N720 N 0.66218 0.22224 0.26971 0.0
N721 N 0.62052 0.18922 0.32466 0.0
C722 C 0.63921 0.1789 0.31273 0.0
C723 C 0.66153 0.19659 0.28258 0.0
C724 C 0.7817 0.49321 0.34259 0.0
C725 C 0.80508 0.48833 0.32944 0.0
C726 C 0.76276 0.49564 0.31339 0.0
C727 C 0.76655 0.49325 0.27007 0.0
H728 H 0.77657 0.49284 0.37584 0.0
H729 H 0.74396 0.49762 0.3249 0.0
S730 S 0.82974 0.48999 0.21898 0.0
N731 N 0.83517 0.48819 0.2701 0.0
N732 N 0.79888 0.4923 0.21479 0.0
C733 C 0.79185 0.49195 0.25619 0.0
C734 C 0.81155 0.48991 0.2861 0.0
C735 C 0.61891 0.15449 0.86072 0.0
C736 C 0.58818 0.13601 0.8513 0.0
C737 C 0.64107 0.15599 0.83355 0.0
C738 C 0.63322 0.13947 0.79579 0.0
H739 H 0.62593 0.16902 0.88824 0.0
H740 H 0.66438 0.17242 0.84006 0.0
S741 S 0.55649 0.08351 0.76008 0.0
N742 N 0.55127 0.09725 0.80446 0.0
N743 N 0.59327 0.10087 0.753 0.0
C744 C 0.60285 0.11871 0.78792 0.0
C745 C 0.58018 0.11682 0.81581 0.0
C746 C 0.80281 0.4322 0.81377 0.0
C747 C 0.81276 0.44316 0.85441 0.0
C748 C 0.80033 0.45035 0.78341 0.0
C749 C 0.80697 0.48001 0.79278 0.0
H750 H 0.79617 0.40911 0.80567 0.0
H751 H 0.79158 0.44031 0.75281 0.0
S752 S 0.84149 0.52129 0.8925 0.0
N753 N 0.83498 0.48668 0.90107 0.0
N754 N 0.8296 0.5213 0.84394 0.0
C755 C 0.81989 0.49229 0.83239 0.0
C756 C 0.82274 0.47359 0.8634 0.0
C757 C 0.50467 0.33317 0.85482 0.0
C758 C 0.50668 0.36161 0.8549 0.0
C759 C 0.48639 0.31085 0.82601 0.0
C760 C 0.46926 0.31589 0.79622 0.0
H761 H 0.51836 0.32841 0.87588 0.0
H762 H 0.48708 0.29003 0.82535 0.0
S763 S 0.46221 0.38417 0.78676 0.0
N764 N 0.48677 0.39215 0.82531 0.0
N765 N 0.45237 0.34967 0.77088 0.0
C766 C 0.46902 0.34314 0.79758 0.0
C767 C 0.4878 0.36617 0.82701 0.0
C768 C 0.48727 0.65603 0.66054 0.0
C769 C 0.47082 0.65207 0.62322 0.0
C770 C 0.49081 0.67793 0.69038 0.0
C771 C 0.47767 0.69595 0.68368 0.0
H772 H 0.49616 0.6413 0.66762 0.0
H773 H 0.50281 0.68001 0.71944 0.0
S774 S 0.43857 0.69912 0.58731 0.0
N775 N 0.44653 0.67222 0.57802 0.0
N776 N 0.45165 0.71168 0.63512 0.0
C777 C 0.46338 0.69386 0.64526 0.0
C778 C 0.46048 0.67238 0.61463 0.0
C779 C 0.27515 0.78554 0.61421 0.0
C780 C 0.29929 0.81422 0.62486 0.0
C781 C 0.25415 0.76738 0.64416 0.0
C782 C 0.25613 0.77746 0.68561 0.0
H783 H 0.27333 0.77622 0.5829 0.0
H784 H 0.23678 0.74487 0.63516 0.0
S785 S 0.30935 0.85343 0.72749 0.0
N786 N 0.32044 0.85406 0.67827 0.0
N787 N 0.2799 0.81946 0.73473 0.0
C788 C 0.27787 0.80717 0.696 0.0
C789 C 0.29968 0.82586 0.66537 0.0
C790 C 0.15723 0.46848 0.61359 0.0
C791 C 0.13525 0.47561 0.62597 0.0
C792 C 0.1756 0.46555 0.64335 0.0
C793 C 0.17284 0.47007 0.68639 0.0
H794 H 0.16164 0.46722 0.58042 0.0
H795 H 0.19328 0.46155 0.63236 0.0
S796 S 0.1142 0.48182 0.73598 0.0
N797 N 0.10801 0.4815 0.6847 0.0
N798 N 0.1434 0.47676 0.74089 0.0
C799 C 0.14916 0.47432 0.69967 0.0
C800 C 0.12992 0.47668 0.6693 0.0
C801 C 0.32144 0.80563 0.09746 0.0
C802 C 0.35206 0.82561 0.10601 0.0
C803 C 0.29902 0.80291 0.12517 0.0
C804 C 0.30643 0.81982 0.16255 0.0
H805 H 0.31475 0.791 0.07007 0.0
H806 H 0.27593 0.78565 0.11905 0.0
S807 S 0.38241 0.87882 0.19667 0.0
N808 N 0.38815 0.86555 0.15221 0.0
N809 N 0.34569 0.85982 0.20455 0.0
C810 C 0.33653 0.8417 0.16989 0.0
C811 C 0.35948 0.84475 0.14149 0.0
C812 C 0.10777 0.49922 0.12413 0.0
C813 C 0.1323 0.52036 0.09951 0.0
C814 C 0.11106 0.48011 0.15278 0.0
C815 C 0.13884 0.48141 0.15707 0.0
H816 H 0.0863 0.49837 0.12279 0.0
H817 H 0.09251 0.46581 0.1734 0.0
S818 S 0.20876 0.52947 0.0976 0.0
N819 N 0.18459 0.53915 0.07978 0.0
N820 N 0.19005 0.50264 0.13247 0.0
C821 C 0.1626 0.5005 0.13059 0.0
C822 C 0.15956 0.5202 0.10211 0.0
C823 C 0.47107 0.62203 0.15246 0.0
C824 C 0.46565 0.64598 0.15999 0.0
C825 C 0.45312 0.599 0.12342 0.0
C826 C 0.42951 0.59952 0.10125 0.0
H827 H 0.48815 0.62037 0.17034 0.0
H828 H 0.45738 0.5805 0.11882 0.0
S829 S 0.40602 0.65693 0.11234 0.0
N830 N 0.43546 0.66881 0.14353 0.0
N831 N 0.40145 0.62564 0.09066 0.0
C832 C 0.4245 0.62371 0.1085 0.0
C833 C 0.44272 0.64693 0.13736 0.0
C834 C 0.13914 0.63038 0.59341 0.0
C835 C 0.12539 0.60002 0.6059 0.0
C836 C 0.1411 0.65254 0.62122 0.0
C837 C 0.12987 0.64494 0.66243 0.0
H838 H 0.1495 0.6372 0.5626 0.0
H839 H 0.15403 0.676 0.61185 0.0
S840 S 0.08766 0.56835 0.70847 0.0
N841 N 0.09687 0.56305 0.66054 0.0
N842 N 0.1011 0.60506 0.71281 0.0
C843 C 0.11361 0.61446 0.67399 0.0
C844 C 0.11134 0.59183 0.6457 0.0
C845 C 0.33398 0.50595 0.6781 0.0
C846 C 0.30723 0.48007 0.66552 0.0
C847 C 0.35515 0.52457 0.64855 0.0
C848 C 0.35031 0.51785 0.60549 0.0
H849 H 0.33765 0.51301 0.71087 0.0
H850 H 0.37467 0.5452 0.65927 0.0
S851 S 0.28902 0.44829 0.55706 0.0
N852 N 0.28038 0.44513 0.60782 0.0
N853 N 0.32068 0.4808 0.55186 0.0
C854 C 0.32559 0.49037 0.59262 0.0
C855 C 0.30395 0.47106 0.62291 0.0
C856 C 0.44915 0.82649 0.67775 0.0
C857 C 0.47115 0.81945 0.66506 0.0
C858 C 0.43109 0.83014 0.64821 0.0
C859 C 0.43421 0.8265 0.60499 0.0
H860 H 0.4445 0.8272 0.71097 0.0
H861 H 0.41333 0.83393 0.65944 0.0
S862 S 0.49339 0.81592 0.5547 0.0
N863 N 0.49898 0.81491 0.60594 0.0
N864 N 0.46427 0.82113 0.55014 0.0
C865 C 0.45803 0.82252 0.59147 0.0
C866 C 0.47691 0.81936 0.62167 0.0
C867 C 0.26643 0.49604 0.15824 0.0
C868 C 0.2561 0.47249 0.18728 0.0
C869 C 0.28699 0.49954 0.12724 0.0
C870 C 0.29885 0.48001 0.1242 0.0
H871 H 0.2583 0.51191 0.15924 0.0
H872 H 0.29404 0.51844 0.106 0.0
S873 S 0.27731 0.4132 0.19253 0.0
N874 N 0.25736 0.42796 0.21083 0.0
N875 N 0.29737 0.43496 0.15282 0.0
C876 C 0.28827 0.45572 0.15294 0.0
C877 C 0.26652 0.45184 0.18438 0.0
C878 C 0.49155 0.80674 0.18886 0.0
C879 C 0.47626 0.77538 0.1819 0.0
C880 C 0.48985 0.82634 0.15931 0.0
C881 C 0.4732 0.81495 0.12181 0.0
H882 H 0.50416 0.81601 0.21774 0.0
H883 H 0.50065 0.85019 0.16653 0.0
S884 S 0.43475 0.73516 0.08543 0.0
N885 N 0.4473 0.73436 0.13309 0.0
N886 N 0.44554 0.77084 0.07657 0.0
C887 C 0.46015 0.78385 0.11322 0.0
C888 C 0.4612 0.76408 0.14361 0.0
C889 C 0.15606 0.66669 0.19529 0.0
C890 C 0.17361 0.69709 0.18331 0.0
C891 C 0.13593 0.64499 0.16682 0.0
C892 C 0.13337 0.65305 0.12535 0.0
H893 H 0.15871 0.65946 0.22631 0.0
H894 H 0.12454 0.62146 0.17602 0.0
S895 S 0.17096 0.73002 0.0801 0.0
N896 N 0.18441 0.73461 0.1286 0.0
N897 N 0.14683 0.69357 0.07512 0.0
C898 C 0.14875 0.68364 0.11415 0.0
C899 C 0.16898 0.70578 0.14312 0.0
C900 C 0.12046 0.13211 0.25438 0.0
C901 C 0.12435 0.1613 0.25416 0.0
C902 C 0.13319 0.12303 0.22244 0.0
C903 C 0.15031 0.1432 0.19016 0.0
H904 H 0.10956 0.1172 0.28085 0.0
H905 H 0.13144 0.1011 0.2247 0.0
S906 S 0.16004 0.21919 0.1712 0.0
N907 N 0.14139 0.20802 0.2161 0.0
N908 N 0.16498 0.19119 0.15571 0.0
C909 C 0.15114 0.17107 0.18746 0.0
C910 C 0.13823 0.18012 0.21975 0.0
C911 C 0.7683 0.96611 0.23855 0.0
C912 C 0.78773 0.95848 0.25888 0.0
C913 C 0.77862 -0.01231 0.20691 0.0
C914 C 0.80889 0.0027 0.19444 0.0
H915 H 0.74485 0.95555 0.24764 0.0
H916 H 0.76263 -0.00718 0.19234 0.0
S917 S 0.86919 -0.00945 0.23785 0.0
N918 N 0.83867 0.96685 0.26436 0.0
N919 N 0.85855 0.00835 0.2047 0.0
C920 C 0.82885 -0.00475 0.21434 0.0
C921 C 0.81808 0.97268 0.24646 0.0
C922 C 0.9396 0.79662 0.23632 0.0
C923 C 0.9485 0.80306 0.19409 0.0
C924 C 0.96115 0.80694 0.26847 0.0
C925 C -0.00797 0.82438 0.2592 0.0
H926 H 0.91623 0.78152 0.24424 0.0
H927 H 0.95372 0.79981 0.30055 0.0
S928 S 0.02533 0.8549 0.1543 0.0
N929 N -0.011 0.83303 0.14504 0.0
N930 N 0.02969 0.85318 0.20577 0.0
C931 C 0.00072 0.83448 0.21763 0.0
C932 C -0.02121 0.82352 0.18482 0.0
C933 C 0.77978 0.78226 0.7089 0.0
C934 C 0.80947 0.79887 0.69426 0.0
C935 C 0.76926 0.7933 0.74047 0.0
C936 C 0.78792 0.82144 0.75903 0.0
H937 H 0.76427 0.76026 0.69585 0.0
H938 H 0.74621 0.77936 0.75088 0.0
S939 S 0.86804 0.87425 0.73303 0.0
N940 N 0.85803 0.84515 0.70107 0.0
N941 N 0.83782 0.86626 0.76114 0.0
C942 C 0.81783 0.83881 0.7449 0.0
C943 C 0.82882 0.82729 0.71254 0.0
C944 C 0.13926 0.00617 0.73087 0.0
C945 C 0.14983 0.0002 0.69325 0.0
C946 C 0.12645 -0.01599 0.76229 0.0
C947 C 0.12341 0.95542 0.75617 0.0
H948 H 0.14311 0.0286 0.7374 0.0
H949 H 0.12088 -0.01011 0.7925 0.0
S950 S 0.13915 0.92622 0.65845 0.0
N951 N 0.15016 0.96185 0.64804 0.0
N952 N 0.12617 0.92041 0.70727 0.0
C953 C 0.13017 0.94808 0.71676 0.0
C954 C 0.14336 0.97053 0.68505 0.0
C955 C -0.02339 0.14956 0.68759 0.0
C956 C 0.94587 0.13714 0.69689 0.0
C957 C -0.00191 0.15984 0.71985 0.0
C958 C -0.01075 0.15851 0.76198 0.0
H959 H -0.01579 0.15302 0.65511 0.0
H960 H 0.02171 0.17111 0.71158 0.0
S961 S 0.91134 0.11974 0.80328 0.0
N962 N 0.90733 0.11758 0.75137 0.0
N963 N 0.94794 0.13784 0.81216 0.0
C964 C 0.95849 0.14266 0.77192 0.0
C965 C 0.9366 0.13161 0.73915 0.0
C966 C 0.78523 0.46863 0.58297 0.0
C967 C 0.79626 0.49944 0.59078 0.0
C968 C 0.79724 0.45945 0.55007 0.0
C969 C 0.82049 0.48089 0.52425 0.0
H970 H 0.76836 0.45174 0.60351 0.0
H971 H 0.7887 0.43556 0.54541 0.0
S972 S 0.85422 0.56422 0.53062 0.0
N973 N 0.8293 0.55096 0.56908 0.0
N974 N 0.85226 0.53434 0.50769 0.0
C975 C 0.83044 0.51171 0.53103 0.0
C976 C 0.81816 0.52082 0.56422 0.0
C977 C 0.45923 0.28512 0.55281 0.0
C978 C 0.45919 0.29396 0.59467 0.0
C979 C 0.47026 0.30669 0.52061 0.0
C980 C 0.48207 0.33746 0.52987 0.0
H981 H 0.44837 0.26143 0.54452 0.0
H982 H 0.46765 0.29912 0.48812 0.0
S983 S 0.495 0.37217 0.63599 0.0
N984 N 0.47738 0.33546 0.64485 0.0
N985 N 0.49898 0.37613 0.58422 0.0
C986 C 0.48604 0.34677 0.5721 0.0
C987 C 0.47427 0.32484 0.60473 0.0
C988 C 0.64318 0.15479 0.52152 0.0
C989 C 0.61261 0.1358 0.53128 0.0
C990 C 0.66491 0.16634 0.55346 0.0
C991 C 0.65645 0.15848 0.59563 0.0
H992 H 0.65047 0.15913 0.48891 0.0
H993 H 0.68845 0.17908 0.54485 0.0
S994 S 0.57887 0.1168 0.63801 0.0
N995 N 0.57449 0.1153 0.5862 0.0
N996 N 0.61551 0.13636 0.64639 0.0
C997 C 0.62575 0.1428 0.60604 0.0
C998 C 0.60364 0.13156 0.57364 0.0
C999 C 0.46354 0.11512 0.06246 0.0
C1000 C 0.48235 0.13565 0.03204 0.0
C1001 C 0.45152 0.12414 0.09488 0.0
C1002 C 0.45755 0.15409 0.09802 0.0
H1003 H 0.4567 0.09143 0.05981 0.0
H1004 H 0.43628 0.10699 0.11663 0.0
S1005 S 0.50999 0.21784 0.02957 0.0
N1006 N 0.50999 0.18803 0.0094 0.0
N1007 N 0.48711 0.20539 0.07068 0.0
C1008 C 0.47854 0.17561 0.06972 0.0
C1009 C 0.49105 0.16627 0.03657 0.0
C1010 C 0.79304 0.3084 0.02535 0.0
C1011 C 0.81483 0.33854 0.0337 0.0
C1012 C 0.78354 0.28663 0.05718 0.0
C1013 C 0.79631 0.29457 0.09761 0.0
H1014 H 0.78483 0.30132 -0.00652 0.0
H1015 H 0.76805 0.26326 0.04929 0.0
S1016 S 0.84772 0.37183 0.13759 0.0
N1017 N 0.84403 0.37634 0.08672 0.0
N1018 N 0.8266 0.3353 0.14665 0.0
C1019 C 0.81532 0.32521 0.1074 0.0
C1020 C 0.82454 0.34737 0.07522 0.0
C1021 C 0.60577 0.46384 0.07111 0.0
C1022 C 0.61493 0.46985 0.02892 0.0
C1023 C 0.62718 0.47463 0.10342 0.0
C1024 C 0.65808 0.49101 0.09411 0.0
H1025 H 0.58216 0.45337 0.07923 0.0
H1026 H 0.61952 0.47193 0.13583 0.0
S1027 S 0.69274 0.5031 -0.01186 0.0
N1028 N 0.6562 0.48644 -0.02097 0.0
N1029 N 0.69664 0.50615 0.04003 0.0
C1030 C 0.66736 0.49288 0.05206 0.0
C1031 C 0.64558 0.48239 0.01919 0.0
C1032 C 0.46322 0.80276 0.93287 0.0
C1033 C 0.45575 0.82527 0.92529 0.0
C1034 C 0.47459 0.79265 0.90042 0.0
C1035 C 0.47942 0.80546 0.86 0.0
H1036 H 0.46222 0.79449 0.96463 0.0
H1037 H 0.48191 0.7767 0.90784 0.0
S1038 S 0.45655 0.85956 0.82217 0.0
N1039 N 0.44863 0.85583 0.87313 0.0
N1040 N 0.47038 0.83723 0.81215 0.0
C1041 C 0.46885 0.82544 0.85111 0.0
C1042 C 0.45689 0.83533 0.88391 0.0
C1043 C 0.13071 0.67407 0.89764 0.0
C1044 C 0.14805 0.67141 0.86586 0.0
C1045 C 0.11789 0.65234 0.92909 0.0
C1046 C 0.12172 0.62698 0.92956 0.0
H1047 H 0.12576 0.6923 0.89697 0.0
H1048 H 0.10394 0.65501 0.95233 0.0
S1049 S 0.16961 0.61262 0.85606 0.0
N1050 N 0.17183 0.64407 0.83858 0.0
N1051 N 0.14757 0.60262 0.89805 0.0
C1052 C 0.14119 0.62536 0.8996 0.0
C1053 C 0.15442 0.64779 0.86752 0.0
C1054 C 0.29462 0.47215 0.93606 0.0
C1055 C 0.32551 0.48979 0.92695 0.0
C1056 C 0.27308 0.4635 0.90414 0.0
C1057 C 0.28206 0.47201 0.86236 0.0
H1058 H 0.28715 0.4634 0.96757 0.0
H1059 H 0.24972 0.44791 0.91154 0.0
S1060 S 0.35866 0.52632 0.82449 0.0
N1061 N 0.3631 0.52187 0.87519 0.0
N1062 N 0.32236 0.50474 0.81478 0.0
C1063 C 0.31225 0.4931 0.85382 0.0
C1064 C 0.33419 0.50235 0.88644 0.0
C1065 C 0.12851 0.46497 0.4364 0.0
C1066 C 0.12475 0.49011 0.43041 0.0
C1067 C 0.1403 0.45514 0.40463 0.0
C1068 C 0.14865 0.47016 0.36599 0.0
H1069 H 0.1209 0.4518 0.46513 0.0
H1070 H 0.14092 0.4345 0.40925 0.0
S1071 S 0.15041 0.54122 0.3377 0.0
N1072 N 0.13563 0.53312 0.38559 0.0
N1073 N 0.15756 0.51408 0.32521 0.0
C1074 C 0.1482 0.49717 0.36092 0.0
C1075 C 0.13636 0.50742 0.39353 0.0
C1076 C 0.48891 0.63303 0.40761 0.0
C1077 C 0.46166 0.62533 0.42744 0.0
C1078 C 0.50004 0.65406 0.37528 0.0
C1079 C 0.4845 0.6685 0.36152 0.0
H1080 H 0.50215 0.62306 0.41777 0.0
H1081 H 0.52139 0.65938 0.36134 0.0
S1082 S 0.41072 0.65485 0.40148 0.0
N1083 N 0.4181 0.6323 0.43001 0.0
N1084 N 0.43946 0.67274 0.36887 0.0
C1085 C 0.45666 0.66063 0.38037 0.0
C1086 C 0.44499 0.6386 0.41329 0.0
C1087 C 0.3336 0.83273 0.38676 0.0
C1088 C 0.32495 0.82324 0.42833 0.0
C1089 C 0.31209 0.82256 0.35468 0.0
C1090 C 0.28156 0.80238 0.36337 0.0
H1091 H 0.35651 0.8499 0.37963 0.0
H1092 H 0.31911 0.83193 0.32334 0.0
S1093 S 0.24976 0.76464 0.46558 0.0
N1094 N 0.28565 0.78835 0.47559 0.0
N1095 N 0.24499 0.76855 0.41482 0.0
C1096 C 0.27345 0.78966 0.40382 0.0
C1097 C 0.29533 0.80041 0.43663 0.0
C1098 C 0.27738 0.12365 0.1527 0.0
C1099 C 0.278 0.14174 0.11883 0.0
C1100 C 0.30339 0.13073 0.17536 0.0
C1101 C 0.33096 0.15615 0.16495 0.0
H1102 H 0.25648 0.1042 0.1626 0.0
H1103 H 0.30188 0.11619 0.20118 0.0
S1104 S 0.34511 0.20952 0.07677 0.0
N1105 N 0.30866 0.18526 0.07454 0.0
N1106 N 0.3578 0.19873 0.11706 0.0
C1107 C 0.33204 0.17427 0.13072 0.0
C1108 C 0.3055 0.16697 0.10756 0.0
C1109 C 0.79798 0.14517 0.1864 0.0
C1110 C 0.79933 0.16901 0.16319 0.0
C1111 C 0.80191 0.12317 0.16618 0.0
C1112 C 0.80692 0.12445 0.12243 0.0
H1113 H 0.79362 0.14343 0.22003 0.0
H1114 H 0.80142 0.10521 0.18487 0.0
S1115 S 0.81244 0.18275 0.04829 0.0
N1116 N 0.80606 0.19308 0.0948 0.0
N1117 N 0.81318 0.15126 0.05663 0.0
C1118 C 0.80799 0.14802 0.09887 0.0
C1119 C 0.80426 0.17053 0.11946 0.0
C1120 C 0.77974 0.64504 0.16443 0.0
C1121 C 0.78403 0.62016 0.16827 0.0
C1122 C 0.80001 0.67058 0.14174 0.0
C1123 C 0.82546 0.67235 0.12214 0.0
H1124 H 0.76025 0.64461 0.17824 0.0
H1125 H 0.79569 0.6892 0.13988 0.0
S1126 S 0.84767 0.61365 0.12409 0.0
N1127 N 0.81631 0.59919 0.15179 0.0
N1128 N 0.85413 0.64714 0.10869 0.0
C1129 C 0.83024 0.64775 0.12606 0.0
C1130 C 0.8097 0.62176 0.14945 0.0
C1131 C 0.16034 0.33884 0.31927 0.0
C1132 C 0.13937 0.33968 0.29146 0.0
C1133 C 0.15464 0.3121 0.33879 0.0
C1134 C 0.12776 0.2851 0.33124 0.0
H1135 H 0.18133 0.35913 0.3266 0.0
H1136 H 0.17152 0.31261 0.35982 0.0
S1137 S 0.06589 0.27468 0.2595 0.0
N1138 N 0.091 0.31095 0.25625 0.0
N1139 N 0.08002 0.26046 0.29311 0.0
C1140 C 0.1065 0.28547 0.30334 0.0
C1141 C 0.11241 0.3128 0.28329 0.0
C1142 C 0.61082 0.80649 0.3293 0.0
C1143 C 0.60978 0.7927 0.29032 0.0
C1144 C 0.63818 0.82739 0.34769 0.0
C1145 C 0.66541 0.83505 0.32776 0.0
H1146 H 0.59028 0.80088 0.34604 0.0
H1147 H 0.63802 0.8374 0.37776 0.0
S1148 S 0.67507 0.80723 0.2239 0.0
N1149 N 0.63833 0.78917 0.23159 0.0
N1150 N 0.68993 0.82872 0.26597 0.0
C1151 C 0.66477 0.82168 0.28859 0.0
C1152 C 0.63688 0.80036 0.26989 0.0
C1153 C 0.13043 0.79878 0.27568 0.0
C1154 C 0.15984 0.81227 0.29152 0.0
C1155 C 0.10807 0.8009 0.29792 0.0
C1156 C 0.11453 0.81614 0.33674 0.0
H1157 H 0.12472 0.78644 0.24615 0.0
H1158 H 0.08583 0.79129 0.28417 0.0
S1159 S 0.18741 0.85273 0.39327 0.0
N1160 N 0.19398 0.83977 0.34915 0.0
N1161 N 0.15172 0.84369 0.39111 0.0
C1162 C 0.14369 0.82926 0.35325 0.0
C1163 C 0.16649 0.82732 0.3305 0.0
C1164 C 0.65358 0.80198 0.79787 0.0
C1165 C 0.66286 0.81798 0.83612 0.0
C1166 C 0.62851 0.79902 0.77616 0.0
C1167 C 0.61238 0.81235 0.79193 0.0
H1168 H 0.66616 0.79225 0.78425 0.0
H1169 H 0.62158 0.78613 0.74709 0.0
S1170 S 0.62596 0.85402 0.89274 0.0
N1171 N 0.65314 0.84571 0.89016 0.0
N1172 N 0.60594 0.84023 0.84919 0.0
C1173 C 0.62121 0.82805 0.83041 0.0
C1174 C 0.64656 0.83087 0.85262 0.0
C1175 C 0.13385 0.80857 0.77097 0.0
C1176 C 0.14037 0.79037 0.79665 0.0
C1177 C 0.1295 0.83104 0.78892 0.0
C1178 C 0.13163 0.83586 0.83284 0.0
H1179 H 0.13273 0.80583 0.73699 0.0
H1180 H 0.1245 0.84484 0.76833 0.0
S1181 S 0.14546 0.79189 0.9134 0.0
N1182 N 0.14691 0.77696 0.86783 0.0
N1183 N 0.13895 0.81956 0.90163 0.0
C1184 C 0.13774 0.8175 0.85884 0.0
C1185 C 0.14199 0.79453 0.8406 0.0
C1186 C 0.15273 0.34042 0.83355 0.0
C1187 C 0.15865 0.34187 0.79001 0.0
C1188 C 0.13046 0.31382 0.85199 0.0
C1189 C 0.11366 0.28817 0.8271 0.0
H1190 H 0.16562 0.35997 0.85351 0.0
H1191 H 0.12685 0.31311 0.88575 0.0
S1192 S 0.11824 0.28123 0.71123 0.0
N1193 N 0.14478 0.31616 0.72218 0.0
N1194 N 0.1025 0.26595 0.75686 0.0
C1195 C 0.11882 0.2895 0.78342 0.0
C1196 C 0.14157 0.31649 0.76472 0.0
C1197 C 0.78231 0.65481 0.64095 0.0
C1198 C 0.80966 0.67354 0.62038 0.0
C1199 C 0.77795 0.62948 0.66355 0.0
C1200 C 0.80076 0.62199 0.66635 0.0
H1201 H 0.7644 0.66015 0.64052 0.0
H1202 H 0.75646 0.61558 0.67883 0.0
S1203 S 0.87561 0.66246 0.61483 0.0
N1204 N 0.85931 0.68214 0.60213 0.0
N1205 N 0.85113 0.63445 0.64462 0.0
C1206 C 0.82813 0.64035 0.64545 0.0
C1207 C 0.83252 0.66611 0.62232 0.0
C1208 C 0.28589 0.12096 0.66051 0.0
C1209 C 0.27954 0.12632 0.61938 0.0
C1210 C 0.31021 0.14344 0.68292 0.0
C1211 C 0.32834 0.17188 0.66484 0.0
H1212 H 0.27164 0.09942 0.67563 0.0
H1213 H 0.31513 0.1385 0.71418 0.0
S1214 S 0.32151 0.19651 0.5575 0.0
N1215 N 0.29321 0.16149 0.56109 0.0
N1216 N 0.3393 0.20404 0.60326 0.0
C1217 C 0.32219 0.17748 0.62373 0.0
C1218 C 0.29755 0.15455 0.60088 0.0
C1219 C 0.83261 0.16776 0.64782 0.0
C1220 C 0.82396 0.14414 0.61869 0.0
C1221 C 0.81109 0.17052 0.6713 0.0
C1222 C 0.7803 0.14968 0.66647 0.0
H1223 H 0.85618 0.18377 0.65327 0.0
H1224 H 0.81853 0.18931 0.69298 0.0
S1225 S 0.74604 0.0849 0.59231 0.0
N1226 N 0.78265 0.10019 0.585 0.0
N1227 N 0.74207 0.10535 0.62939 0.0
C1228 C 0.77133 0.1259 0.63751 0.0
C1229 C 0.79323 0.12322 0.61338 0.0
C1230 C -0.00629 0.50498 0.4714 0.0
C1231 C -0.00545 0.48548 0.50198 0.0
C1232 C 0.96728 0.49759 0.44961 0.0
C1233 C 0.9406 0.47046 0.45769 0.0
H1234 H 0.0138 0.52597 0.46346 0.0
H1235 H 0.96776 0.51337 0.42647 0.0
S1236 S 0.93037 0.41225 0.5365 0.0
N1237 N 0.96618 0.43836 0.54041 0.0
N1238 N 0.91632 0.42426 0.49948 0.0
C1239 C 0.941 0.45077 0.4885 0.0
C1240 C 0.96799 0.45838 0.51077 0.0
C1241 C 0.44278 0.4788 0.48001 0.0
C1242 C 0.46631 0.50437 0.49987 0.0
C1243 C 0.44803 0.45814 0.45839 0.0
C1244 C 0.47703 0.46209 0.45589 0.0
H1245 H 0.41995 0.47468 0.48079 0.0
H1246 H 0.42906 0.43869 0.44411 0.0
S1247 S 0.54672 0.52528 0.50257 0.0
N1248 N 0.51988 0.53251 0.5158 0.0
N1249 N 0.52993 0.49371 0.47495 0.0
C1250 C 0.50096 0.48766 0.47546 0.0
C1251 C 0.49554 0.50871 0.49769 0.0
C1252 C 0.47571 0.00698 0.49237 0.0
C1253 C 0.49072 0.00652 0.45538 0.0
C1254 C 0.4546 0.98029 0.51196 0.0
C1255 C 0.44796 0.95231 0.49523 0.0
H1256 H 0.48066 0.02819 0.50675 0.0
H1257 H 0.44368 -0.01844 0.54051 0.0
S1258 S 0.47885 0.93872 0.39694 0.0
N1259 N 0.49625 0.97583 0.4015 0.0
N1260 N 0.45635 0.92538 0.43821 0.0
C1261 C 0.46243 0.95145 0.4579 0.0
C1262 C 0.48393 0.97866 0.43796 0.0
C1263 C 0.45799 -0.0017 -0.00666 0.0
C1264 C 0.47179 0.00665 0.95354 0.0
C1265 C 0.45614 0.97361 0.01498 0.0
C1266 C 0.4684 0.95694 -0.00244 0.0
H1267 H 0.44919 0.01134 0.00819 0.0
H1268 H 0.44511 0.96752 0.04544 0.0
S1269 S 0.50416 0.96795 0.89254 0.0
N1270 N 0.49628 -0.00455 0.89646 0.0
N1271 N 0.49272 0.94886 0.93717 0.0
C1272 C 0.4818 0.96475 0.9575 0.0
C1273 C 0.48356 -0.01024 0.93542 0.0
C1274 C 0.94894 0.48609 0.96931 0.0
C1275 C 0.94416 0.45766 0.95656 0.0
C1276 C -0.02555 0.506 -0.0077 0.0
C1277 C -0.00378 0.49827 0.0031 0.0
H1278 H 0.93263 0.49294 0.96197 0.0
H1279 H -0.02255 0.52785 0.00071 0.0
S1280 S -0.00563 0.42653 0.97777 0.0
N1281 N 0.96339 0.42281 0.95639 0.0
N1282 N 0.01132 0.46019 0.0001 0.0
C1283 C -0.0082 0.46995 -0.00944 0.0
C1284 C 0.96588 0.44973 0.96688 0.0
C1285 C 0.46259 0.45959 0.95063 0.0
C1286 C 0.49331 0.48031 0.95642 0.0
C1287 C 0.44086 0.46141 0.97487 0.0
C1288 C 0.44925 0.48393 0.00572 0.0
H1289 H 0.45537 0.44163 0.92756 0.0
H1290 H 0.41735 0.44564 0.9686 0.0
S1291 S 0.52685 0.54206 0.03538 0.0
N1292 N 0.5312 0.52303 -0.00346 0.0
N1293 N 0.49017 0.52657 0.04214 0.0
C1294 C 0.47989 0.50464 0.01211 0.0
C1295 C 0.50202 0.50287 -0.01271 0.0
loop_
_geom_bond_atom_site_label_1
_geom_bond_atom_site_label_2
_geom_bond_distance
_geom_bond_site_symmetry_2
_ccdc_geom_bond_type
C0 O1 1.306 . S
C0 O3 1.160 . S
O1 C0 1.306 . S
O1 Cd2 2.228 . S
Cd2 O1 2.228 . S
Cd2 O6 2.273 . S
Cd2 O10 2.277 . S
O3 C0 1.160 . S
O3 Cd4 2.203 . S
Cd4 O3 2.203 . S
Cd4 O6 2.411 . S
Cd4 O7 2.333 . S
Cd4 O8 2.352 . S
Cd4 O12 2.277 . S
Cd4 O13 2.356 . S
C5 O10 1.209 . S
C5 O12 1.226 . S
O6 Cd2 2.273 . S
O6 Cd4 2.411 . S
O6 C9 1.320 . S
O7 Cd4 2.333 . S
O7 C9 1.214 . S
O8 Cd4 2.352 . S
O8 C11 1.258 . S
C9 O6 1.320 . S
C9 O7 1.214 . S
O10 Cd2 2.277 . S
O10 C5 1.209 . S
C11 O8 1.258 . S
C11 O13 1.282 . S
O12 Cd4 2.277 . S
O12 C5 1.226 . S
O13 Cd4 2.356 . S
O13 C11 1.282 . S
C14 O15 1.306 . S
C14 O17 1.160 . S
O15 C14 1.306 . S
O15 Cd16 2.228 . S
Cd16 O15 2.228 . S
Cd16 O20 2.273 . S
Cd16 O24 2.277 . S
O17 C14 1.160 . S
O17 Cd18 2.203 . S
Cd18 O17 2.203 . S
Cd18 O20 2.411 . S
Cd18 O21 2.333 . S
Cd18 O22 2.352 . S
Cd18 O26 2.277 . S
Cd18 O27 2.356 . S
C19 O24 1.209 . S
C19 O26 1.226 . S
O20 Cd16 2.273 . S
O20 Cd18 2.411 . S
O20 C23 1.320 . S
O21 Cd18 2.333 . S
O21 C23 1.214 . S
O22 Cd18 2.352 . S
O22 C25 1.258 . S
C23 O20 1.320 . S
C23 O21 1.214 . S
O24 Cd16 2.277 . S
O24 C19 1.209 . S
C25 O22 1.258 . S
C25 O27 1.282 . S
O26 Cd18 2.277 . S
O26 C19 1.226 . S
O27 Cd18 2.356 . S
O27 C25 1.282 . S
C28 O29 1.306 . S
C28 O31 1.160 . S
O29 C28 1.306 . S
O29 Cd30 2.228 . S
Cd30 O29 2.228 . S
Cd30 O34 2.273 . S
Cd30 O38 2.277 . S
O31 C28 1.160 . S
O31 Cd32 2.203 . S
Cd32 O31 2.203 . S
Cd32 O34 2.411 . S
Cd32 O35 2.333 . S
Cd32 O36 2.352 . S
Cd32 O40 2.277 . S
Cd32 O41 2.356 . S
C33 O38 1.209 . S
C33 O40 1.226 . S
O34 Cd30 2.273 . S
O34 Cd32 2.411 . S
O34 C37 1.320 . S
O35 Cd32 2.333 . S
O35 C37 1.214 . S
O36 Cd32 2.352 . S
O36 C39 1.258 . S
C37 O34 1.320 . S
C37 O35 1.214 . S
O38 Cd30 2.277 . S
O38 C33 1.209 . S
C39 O36 1.258 . S
C39 O41 1.282 . S
O40 Cd32 2.277 . S
O40 C33 1.226 . S
O41 Cd32 2.356 . S
O41 C39 1.282 . S
C42 O43 1.306 . S
C42 O45 1.160 . S
O43 C42 1.306 . S
O43 Cd44 2.228 . S
Cd44 O43 2.228 . S
Cd44 O48 2.273 . S
Cd44 O52 2.277 . S
O45 C42 1.160 . S
O45 Cd46 2.203 . S
Cd46 O45 2.203 . S
Cd46 O48 2.411 . S
Cd46 O49 2.333 . S
Cd46 O50 2.352 . S
Cd46 O54 2.277 . S
Cd46 O55 2.356 . S
C47 O52 1.209 . S
C47 O54 1.226 . S
O48 Cd44 2.273 . S
O48 Cd46 2.411 . S
O48 C51 1.320 . S
O49 Cd46 2.333 . S
O49 C51 1.214 . S
O50 Cd46 2.352 . S
O50 C53 1.258 . S
C51 O48 1.320 . S
C51 O49 1.214 . S
O52 Cd44 2.277 . S
O52 C47 1.209 . S
C53 O50 1.258 . S
C53 O55 1.282 . S
O54 Cd46 2.277 . S
O54 C47 1.226 . S
O55 Cd46 2.356 . S
O55 C53 1.282 . S
C56 O57 1.306 . S
C56 O59 1.160 . S
O57 C56 1.306 . S
O57 Cd58 2.228 . S
Cd58 O57 2.228 . S
Cd58 O62 2.273 . S
Cd58 O66 2.277 . S
O59 C56 1.160 . S
O59 Cd60 2.203 . S
Cd60 O59 2.203 . S
Cd60 O62 2.411 . S
Cd60 O63 2.333 . S
Cd60 O64 2.352 . S
Cd60 O68 2.277 . S
Cd60 O69 2.356 . S
C61 O66 1.209 . S
C61 O68 1.226 . S
O62 Cd58 2.273 . S
O62 Cd60 2.411 . S
O62 C65 1.320 . S
O63 Cd60 2.333 . S
O63 C65 1.214 . S
O64 Cd60 2.352 . S
O64 C67 1.258 . S
C65 O62 1.320 . S
C65 O63 1.214 . S
O66 Cd58 2.277 . S
O66 C61 1.209 . S
C67 O64 1.258 . S
C67 O69 1.282 . S
O68 Cd60 2.277 . S
O68 C61 1.226 . S
O69 Cd60 2.356 . S
O69 C67 1.282 . S
C70 O71 1.306 . S
C70 O73 1.160 . S
O71 C70 1.306 . S
O71 Cd72 2.228 . S
Cd72 O71 2.228 . S
Cd72 O76 2.273 . S
Cd72 O80 2.277 . S
O73 C70 1.160 . S
O73 Cd74 2.203 . S
Cd74 O73 2.203 . S
Cd74 O76 2.411 . S
Cd74 O77 2.333 . S
Cd74 O78 2.352 . S
Cd74 O82 2.277 . S
Cd74 O83 2.356 . S
C75 O80 1.209 . S
C75 O82 1.226 . S
O76 Cd72 2.273 . S
O76 Cd74 2.411 . S
O76 C79 1.320 . S
O77 Cd74 2.333 . S
O77 C79 1.214 . S
O78 Cd74 2.352 . S
O78 C81 1.258 . S
C79 O76 1.320 . S
C79 O77 1.214 . S
O80 Cd72 2.277 . S
O80 C75 1.209 . S
C81 O78 1.258 . S
C81 O83 1.282 . S
O82 Cd74 2.277 . S
O82 C75 1.226 . S
O83 Cd74 2.356 . S
O83 C81 1.282 . S
C84 O85 1.306 . S
C84 O87 1.160 . S
O85 C84 1.306 . S
O85 Cd86 2.228 . S
Cd86 O85 2.228 . S
Cd86 O90 2.273 . S
Cd86 O94 2.277 . S
O87 C84 1.160 . S
O87 Cd88 2.203 . S
Cd88 O87 2.203 . S
Cd88 O90 2.411 . S
Cd88 O91 2.333 . S
Cd88 O92 2.352 . S
Cd88 O96 2.277 . S
Cd88 O97 2.356 . S
C89 O94 1.209 . S
C89 O96 1.226 . S
O90 Cd86 2.273 . S
O90 Cd88 2.411 . S
O90 C93 1.320 . S
O91 Cd88 2.333 . S
O91 C93 1.214 . S
O92 Cd88 2.352 . S
O92 C95 1.258 . S
C93 O90 1.320 . S
C93 O91 1.214 . S
O94 Cd86 2.277 . S
O94 C89 1.209 . S
C95 O92 1.258 . S
C95 O97 1.282 . S
O96 Cd88 2.277 . S
O96 C89 1.226 . S
O97 Cd88 2.356 . S
O97 C95 1.282 . S
C98 O99 1.306 . S
C98 O101 1.160 . S
O99 C98 1.306 . S
O99 Cd100 2.228 . S
Cd100 O99 2.228 . S
Cd100 O104 2.273 . S
Cd100 O108 2.277 . S
O101 C98 1.160 . S
O101 Cd102 2.203 . S
Cd102 O101 2.203 . S
Cd102 O104 2.411 . S
Cd102 O105 2.333 . S
Cd102 O106 2.352 . S
Cd102 O110 2.277 . S
Cd102 O111 2.356 . S
C103 O108 1.209 . S
C103 O110 1.226 . S
O104 Cd100 2.273 . S
O104 Cd102 2.411 . S
O104 C107 1.320 . S
O105 Cd102 2.333 . S
O105 C107 1.214 . S
O106 Cd102 2.352 . S
O106 C109 1.258 . S
C107 O104 1.320 . S
C107 O105 1.214 . S
O108 Cd100 2.277 . S
O108 C103 1.209 . S
C109 O106 1.258 . S
C109 O111 1.282 . S
O110 Cd102 2.277 . S
O110 C103 1.226 . S
O111 Cd102 2.356 . S
O111 C109 1.282 . S
C112 O113 1.306 . S
C112 O115 1.160 . S
O113 C112 1.306 . S
O113 Cd114 2.228 . S
Cd114 O113 2.228 . S
Cd114 O118 2.273 . S
Cd114 O122 2.277 . S
O115 C112 1.160 . S
O115 Cd116 2.203 . S
Cd116 O115 2.203 . S
Cd116 O118 2.411 . S
Cd116 O119 2.333 . S
Cd116 O120 2.352 . S
Cd116 O124 2.277 . S
Cd116 O125 2.356 . S
C117 O122 1.209 . S
C117 O124 1.226 . S
O118 Cd114 2.273 . S
O118 Cd116 2.411 . S
O118 C121 1.320 . S
O119 Cd116 2.333 . S
O119 C121 1.214 . S
O120 Cd116 2.352 . S
O120 C123 1.258 . S
C121 O118 1.320 . S
C121 O119 1.214 . S
O122 Cd114 2.277 . S
O122 C117 1.209 . S
C123 O120 1.258 . S
C123 O125 1.282 . S
O124 Cd116 2.277 . S
O124 C117 1.226 . S
O125 Cd116 2.356 . S
O125 C123 1.282 . S
C126 O127 1.306 . S
C126 O129 1.160 . S
O127 C126 1.306 . S
O127 Cd128 2.228 . S
Cd128 O127 2.228 . S
Cd128 O132 2.273 . S
Cd128 O136 2.277 . S
O129 C126 1.160 . S
O129 Cd130 2.203 . S
Cd130 O129 2.203 . S
Cd130 O132 2.411 . S
Cd130 O133 2.333 . S
Cd130 O134 2.352 . S
Cd130 O138 2.277 . S
Cd130 O139 2.356 . S
C131 O136 1.209 . S
C131 O138 1.226 . S
O132 Cd128 2.273 . S
O132 Cd130 2.411 . S
O132 C135 1.320 . S
O133 Cd130 2.333 . S
O133 C135 1.214 . S
O134 Cd130 2.352 . S
O134 C137 1.258 . S
C135 O132 1.320 . S
C135 O133 1.214 . S
O136 Cd128 2.277 . S
O136 C131 1.209 . S
C137 O134 1.258 . S
C137 O139 1.282 . S
O138 Cd130 2.277 . S
O138 C131 1.226 . S
O139 Cd130 2.356 . S
O139 C137 1.282 . S
C140 O141 1.306 . S
C140 O143 1.160 . S
O141 C140 1.306 . S
O141 Cd142 2.228 . S
Cd142 O141 2.228 . S
Cd142 O146 2.273 . S
Cd142 O150 2.277 . S
O143 C140 1.160 . S
O143 Cd144 2.203 . S
Cd144 O143 2.203 . S
Cd144 O146 2.411 . S
Cd144 O147 2.333 . S
Cd144 O148 2.352 . S
Cd144 O152 2.277 . S
Cd144 O153 2.356 . S
C145 O150 1.209 . S
C145 O152 1.226 . S
O146 Cd142 2.273 . S
O146 Cd144 2.411 . S
O146 C149 1.320 . S
O147 Cd144 2.333 . S
O147 C149 1.214 . S
O148 Cd144 2.352 . S
O148 C151 1.258 . S
C149 O146 1.320 . S
C149 O147 1.214 . S
O150 Cd142 2.277 . S
O150 C145 1.209 . S
C151 O148 1.258 . S
C151 O153 1.282 . S
O152 Cd144 2.277 . S
O152 C145 1.226 . S
O153 Cd144 2.356 . S
O153 C151 1.282 . S
C154 O155 1.306 . S
C154 O157 1.160 . S
O155 C154 1.306 . S
O155 Cd156 2.228 . S
Cd156 O155 2.228 . S
Cd156 O160 2.273 . S
Cd156 O164 2.277 . S
O157 C154 1.160 . S
O157 Cd158 2.203 . S
Cd158 O157 2.203 . S
Cd158 O160 2.411 . S
Cd158 O161 2.333 . S
Cd158 O162 2.352 . S
Cd158 O166 2.277 . S
Cd158 O167 2.356 . S
C159 O164 1.209 . S
C159 O166 1.226 . S
O160 Cd156 2.273 . S
O160 Cd158 2.411 . S
O160 C163 1.320 . S
O161 Cd158 2.333 . S
O161 C163 1.214 . S
O162 Cd158 2.352 . S
O162 C165 1.258 . S
C163 O160 1.320 . S
C163 O161 1.214 . S
O164 Cd156 2.277 . S
O164 C159 1.209 . S
C165 O162 1.258 . S
C165 O167 1.282 . S
O166 Cd158 2.277 . S
O166 C159 1.226 . S
O167 Cd158 2.356 . S
O167 C165 1.282 . S
C168 O169 1.306 . S
C168 O171 1.160 . S
O169 C168 1.306 . S
O169 Cd170 2.228 . S
Cd170 O169 2.228 . S
Cd170 O174 2.273 . S
Cd170 O178 2.277 . S
O171 C168 1.160 . S
O171 Cd172 2.203 . S
Cd172 O171 2.203 . S
Cd172 O174 2.411 . S
Cd172 O175 2.333 . S
Cd172 O176 2.352 . S
Cd172 O180 2.277 . S
Cd172 O181 2.356 . S
C173 O178 1.209 . S
C173 O180 1.226 . S
O174 Cd170 2.273 . S
O174 Cd172 2.411 . S
O174 C177 1.320 . S
O175 Cd172 2.333 . S
O175 C177 1.214 . S
O176 Cd172 2.352 . S
O176 C179 1.258 . S
C177 O174 1.320 . S
C177 O175 1.214 . S
O178 Cd170 2.277 . S
O178 C173 1.209 . S
C179 O176 1.258 . S
C179 O181 1.282 . S
O180 Cd172 2.277 . S
O180 C173 1.226 . S
O181 Cd172 2.356 . S
O181 C179 1.282 . S
C182 O183 1.306 . S
C182 O185 1.160 . S
O183 C182 1.306 . S
O183 Cd184 2.228 . S
Cd184 O183 2.228 . S
Cd184 O188 2.273 . S
Cd184 O192 2.277 . S
O185 C182 1.160 . S
O185 Cd186 2.203 . S
Cd186 O185 2.203 . S
Cd186 O188 2.411 . S
Cd186 O189 2.333 . S
Cd186 O190 2.352 . S
Cd186 O194 2.277 . S
Cd186 O195 2.356 . S
C187 O192 1.209 . S
C187 O194 1.226 . S
O188 Cd184 2.273 . S
O188 Cd186 2.411 . S
O188 C191 1.320 . S
O189 Cd186 2.333 . S
O189 C191 1.214 . S
O190 Cd186 2.352 . S
O190 C193 1.258 . S
C191 O188 1.320 . S
C191 O189 1.214 . S
O192 Cd184 2.277 . S
O192 C187 1.209 . S
C193 O190 1.258 . S
C193 O195 1.282 . S
O194 Cd186 2.277 . S
O194 C187 1.226 . S
O195 Cd186 2.356 . S
O195 C193 1.282 . S
C196 O197 1.306 . S
C196 O199 1.160 . S
O197 C196 1.306 . S
O197 Cd198 2.228 . S
Cd198 O197 2.228 . S
Cd198 O202 2.273 . S
Cd198 O206 2.277 . S
O199 C196 1.160 . S
O199 Cd200 2.203 . S
Cd200 O199 2.203 . S
Cd200 O202 2.411 . S
Cd200 O203 2.333 . S
Cd200 O204 2.352 . S
Cd200 O208 2.277 . S
Cd200 O209 2.356 . S
C201 O206 1.209 . S
C201 O208 1.226 . S
O202 Cd198 2.273 . S
O202 Cd200 2.411 . S
O202 C205 1.320 . S
O203 Cd200 2.333 . S
O203 C205 1.214 . S
O204 Cd200 2.352 . S
O204 C207 1.258 . S
C205 O202 1.320 . S
C205 O203 1.214 . S
O206 Cd198 2.277 . S
O206 C201 1.209 . S
C207 O204 1.258 . S
C207 O209 1.282 . S
O208 Cd200 2.277 . S
O208 C201 1.226 . S
O209 Cd200 2.356 . S
O209 C207 1.282 . S
C210 O211 1.306 . S
C210 O213 1.160 . S
O211 C210 1.306 . S
O211 Cd212 2.228 . S
Cd212 O211 2.228 . S
Cd212 O216 2.273 . S
Cd212 O220 2.277 . S
O213 C210 1.160 . S
O213 Cd214 2.203 . S
Cd214 O213 2.203 . S
Cd214 O216 2.411 . S
Cd214 O217 2.333 . S
Cd214 O218 2.352 . S
Cd214 O222 2.277 . S
Cd214 O223 2.356 . S
C215 O220 1.209 . S
C215 O222 1.226 . S
O216 Cd212 2.273 . S
O216 Cd214 2.411 . S
O216 C219 1.320 . S
O217 Cd214 2.333 . S
O217 C219 1.214 . S
O218 Cd214 2.352 . S
O218 C221 1.258 . S
C219 O216 1.320 . S
C219 O217 1.214 . S
O220 Cd212 2.277 . S
O220 C215 1.209 . S
C221 O218 1.258 . S
C221 O223 1.282 . S
O222 Cd214 2.277 . S
O222 C215 1.226 . S
O223 Cd214 2.356 . S
O223 C221 1.282 . S
C224 O225 1.306 . S
C224 O227 1.160 . S
O225 C224 1.306 . S
O225 Cd226 2.228 . S
Cd226 O225 2.228 . S
Cd226 O230 2.273 . S
Cd226 O234 2.277 . S
O227 C224 1.160 . S
O227 Cd228 2.203 . S
Cd228 O227 2.203 . S
Cd228 O230 2.411 . S
Cd228 O231 2.333 . S
Cd228 O232 2.352 . S
Cd228 O236 2.277 . S
Cd228 O237 2.356 . S
C229 O234 1.209 . S
C229 O236 1.226 . S
O230 Cd226 2.273 . S
O230 Cd228 2.411 . S
O230 C233 1.320 . S
O231 Cd228 2.333 . S
O231 C233 1.214 . S
O232 Cd228 2.352 . S
O232 C235 1.258 . S
C233 O230 1.320 . S
C233 O231 1.214 . S
O234 Cd226 2.277 . S
O234 C229 1.209 . S
C235 O232 1.258 . S
C235 O237 1.282 . S
O236 Cd228 2.277 . S
O236 C229 1.226 . S
O237 Cd228 2.356 . S
O237 C235 1.282 . S
C238 O239 1.306 . S
C238 O241 1.160 . S
O239 C238 1.306 . S
O239 Cd240 2.228 . S
Cd240 O239 2.228 . S
Cd240 O244 2.273 . S
Cd240 O248 2.277 . S
O241 C238 1.160 . S
O241 Cd242 2.203 . S
Cd242 O241 2.203 . S
Cd242 O244 2.411 . S
Cd242 O245 2.333 . S
Cd242 O246 2.352 . S
Cd242 O250 2.277 . S
Cd242 O251 2.356 . S
C243 O248 1.209 . S
C243 O250 1.226 . S
O244 Cd240 2.273 . S
O244 Cd242 2.411 . S
O244 C247 1.320 . S
O245 Cd242 2.333 . S
O245 C247 1.214 . S
O246 Cd242 2.352 . S
O246 C249 1.258 . S
C247 O244 1.320 . S
C247 O245 1.214 . S
O248 Cd240 2.277 . S
O248 C243 1.209 . S
C249 O246 1.258 . S
C249 O251 1.282 . S
O250 Cd242 2.277 . S
O250 C243 1.226 . S
O251 Cd242 2.356 . S
O251 C249 1.282 . S
C252 O253 1.306 . S
C252 O255 1.160 . S
O253 C252 1.306 . S
O253 Cd254 2.228 . S
Cd254 O253 2.228 . S
Cd254 O258 2.273 . S
Cd254 O262 2.277 . S
O255 C252 1.160 . S
O255 Cd256 2.203 . S
Cd256 O255 2.203 . S
Cd256 O258 2.411 . S
Cd256 O259 2.333 . S
Cd256 O260 2.352 . S
Cd256 O264 2.277 . S
Cd256 O265 2.356 . S
C257 O262 1.209 . S
C257 O264 1.226 . S
O258 Cd254 2.273 . S
O258 Cd256 2.411 . S
O258 C261 1.320 . S
O259 Cd256 2.333 . S
O259 C261 1.214 . S
O260 Cd256 2.352 . S
O260 C263 1.258 . S
C261 O258 1.320 . S
C261 O259 1.214 . S
O262 Cd254 2.277 . S
O262 C257 1.209 . S
C263 O260 1.258 . S
C263 O265 1.282 . S
O264 Cd256 2.277 . S
O264 C257 1.226 . S
O265 Cd256 2.356 . S
O265 C263 1.282 . S
C266 O267 1.306 . S
C266 O269 1.160 . S
O267 C266 1.306 . S
O267 Cd268 2.228 . S
Cd268 O267 2.228 . S
Cd268 O272 2.273 . S
Cd268 O276 2.277 . S
O269 C266 1.160 . S
O269 Cd270 2.203 . S
Cd270 O269 2.203 . S
Cd270 O272 2.411 . S
Cd270 O273 2.333 . S
Cd270 O274 2.352 . S
Cd270 O278 2.277 . S
Cd270 O279 2.356 . S
C271 O276 1.209 . S
C271 O278 1.226 . S
O272 Cd268 2.273 . S
O272 Cd270 2.411 . S
O272 C275 1.320 . S
O273 Cd270 2.333 . S
O273 C275 1.214 . S
O274 Cd270 2.352 . S
O274 C277 1.258 . S
C275 O272 1.320 . S
C275 O273 1.214 . S
O276 Cd268 2.277 . S
O276 C271 1.209 . S
C277 O274 1.258 . S
C277 O279 1.282 . S
O278 Cd270 2.277 . S
O278 C271 1.226 . S
O279 Cd270 2.356 . S
O279 C277 1.282 . S
C280 O281 1.306 . S
C280 O283 1.160 . S
O281 C280 1.306 . S
O281 Cd282 2.228 . S
Cd282 O281 2.228 . S
Cd282 O286 2.273 . S
Cd282 O290 2.277 . S
O283 C280 1.160 . S
O283 Cd284 2.203 . S
Cd284 O283 2.203 . S
Cd284 O286 2.411 . S
Cd284 O287 2.333 . S
Cd284 O288 2.352 . S
Cd284 O292 2.277 . S
Cd284 O293 2.356 . S
C285 O290 1.209 . S
C285 O292 1.226 . S
O286 Cd282 2.273 . S
O286 Cd284 2.411 . S
O286 C289 1.320 . S
O287 Cd284 2.333 . S
O287 C289 1.214 . S
O288 Cd284 2.352 . S
O288 C291 1.258 . S
C289 O286 1.320 . S
C289 O287 1.214 . S
O290 Cd282 2.277 . S
O290 C285 1.209 . S
C291 O288 1.258 . S
C291 O293 1.282 . S
O292 Cd284 2.277 . S
O292 C285 1.226 . S
O293 Cd284 2.356 . S
O293 C291 1.282 . S
C294 O295 1.306 . S
C294 O297 1.160 . S
O295 C294 1.306 . S
O295 Cd296 2.228 . S
Cd296 O295 2.228 . S
Cd296 O300 2.273 . S
Cd296 O304 2.277 . S
O297 C294 1.160 . S
O297 Cd298 2.203 . S
Cd298 O297 2.203 . S
Cd298 O300 2.411 . S
Cd298 O301 2.333 . S
Cd298 O302 2.352 . S
Cd298 O306 2.277 . S
Cd298 O307 2.356 . S
C299 O304 1.209 . S
C299 O306 1.226 . S
O300 Cd296 2.273 . S
O300 Cd298 2.411 . S
O300 C303 1.320 1_556 S
O301 Cd298 2.333 . S
O301 C303 1.214 1_556 S
O302 Cd298 2.352 . S
O302 C305 1.258 . S
C303 O300 1.320 1_554 S
C303 O301 1.214 1_554 S
O304 Cd296 2.277 . S
O304 C299 1.209 . S
C305 O302 1.258 . S
C305 O307 1.282 . S
O306 Cd298 2.277 . S
O306 C299 1.226 . S
O307 Cd298 2.356 . S
O307 C305 1.282 . S
C308 O309 1.306 . S
C308 O311 1.160 . S
O309 C308 1.306 . S
O309 Cd310 2.228 . S
Cd310 O309 2.228 . S
Cd310 O314 2.273 . S
Cd310 O318 2.277 . S
O311 C308 1.160 . S
O311 Cd312 2.203 . S
Cd312 O311 2.203 . S
Cd312 O314 2.411 . S
Cd312 O315 2.333 . S
Cd312 O316 2.352 . S
Cd312 O320 2.277 . S
Cd312 O321 2.356 . S
C313 O318 1.209 . S
C313 O320 1.226 . S
O314 Cd310 2.273 . S
O314 Cd312 2.411 . S
O314 C317 1.320 1_556 S
O315 Cd312 2.333 . S
O315 C317 1.214 1_556 S
O316 Cd312 2.352 . S
O316 C319 1.258 . S
C317 O314 1.320 1_554 S
C317 O315 1.214 1_554 S
O318 Cd310 2.277 . S
O318 C313 1.209 . S
C319 O316 1.258 . S
C319 O321 1.282 . S
O320 Cd312 2.277 . S
O320 C313 1.226 . S
O321 Cd312 2.356 . S
O321 C319 1.282 . S
C322 O323 1.306 . S
C322 O325 1.160 . S
O323 C322 1.306 . S
O323 Cd324 2.228 . S
Cd324 O323 2.228 . S
Cd324 O328 2.273 . S
Cd324 O332 2.277 . S
O325 C322 1.160 . S
O325 Cd326 2.203 . S
Cd326 O325 2.203 . S
Cd326 O328 2.411 . S
Cd326 O329 2.333 . S
Cd326 O330 2.352 . S
Cd326 O334 2.277 . S
Cd326 O335 2.356 . S
C327 O332 1.209 . S
C327 O334 1.226 . S
O328 Cd324 2.273 . S
O328 Cd326 2.411 . S
O328 C331 1.320 1_556 S
O329 Cd326 2.333 . S
O329 C331 1.214 1_556 S
O330 Cd326 2.352 . S
O330 C333 1.258 . S
C331 O328 1.320 1_554 S
C331 O329 1.214 1_554 S
O332 Cd324 2.277 . S
O332 C327 1.209 . S
C333 O330 1.258 . S
C333 O335 1.282 . S
O334 Cd326 2.277 . S
O334 C327 1.226 . S
O335 Cd326 2.356 . S
O335 C333 1.282 . S
C336 O337 1.306 . S
C336 O339 1.160 . S
O337 C336 1.306 . S
O337 Cd338 2.228 . S
Cd338 O337 2.228 . S
Cd338 O342 2.273 . S
Cd338 O346 2.277 . S
O339 C336 1.160 . S
O339 Cd340 2.203 . S
Cd340 O339 2.203 . S
Cd340 O342 2.411 . S
Cd340 O343 2.333 . S
Cd340 O344 2.352 . S
Cd340 O348 2.277 . S
Cd340 O349 2.356 . S
C341 O346 1.209 . S
C341 O348 1.226 . S
O342 Cd338 2.273 . S
O342 Cd340 2.411 . S
O342 C345 1.320 . S
O343 Cd340 2.333 . S
O343 C345 1.214 . S
O344 Cd340 2.352 . S
O344 C347 1.258 . S
C345 O342 1.320 . S
C345 O343 1.214 . S
O346 Cd338 2.277 . S
O346 C341 1.209 . S
C347 O344 1.258 . S
C347 O349 1.282 . S
O348 Cd340 2.277 . S
O348 C341 1.226 . S
O349 Cd340 2.356 . S
O349 C347 1.282 . S
C350 O351 1.306 . S
C350 O353 1.160 . S
O351 C350 1.306 . S
O351 Cd352 2.228 . S
Cd352 O351 2.228 . S
Cd352 O356 2.273 . S
Cd352 O360 2.277 . S
O353 C350 1.160 . S
O353 Cd354 2.203 . S
Cd354 O353 2.203 . S
Cd354 O356 2.411 . S
Cd354 O357 2.333 . S
Cd354 O358 2.352 . S
Cd354 O362 2.277 . S
Cd354 O363 2.356 . S
C355 O360 1.209 . S
C355 O362 1.226 . S
O356 Cd352 2.273 . S
O356 Cd354 2.411 . S
O356 C359 1.320 . S
O357 Cd354 2.333 . S
O357 C359 1.214 . S
O358 Cd354 2.352 . S
O358 C361 1.258 . S
C359 O356 1.320 . S
C359 O357 1.214 . S
O360 Cd352 2.277 . S
O360 C355 1.209 . S
C361 O358 1.258 . S
C361 O363 1.282 . S
O362 Cd354 2.277 . S
O362 C355 1.226 . S
O363 Cd354 2.356 . S
O363 C361 1.282 . S
C364 O365 1.306 . S
C364 O367 1.160 . S
O365 C364 1.306 . S
O365 Cd366 2.228 . S
Cd366 O365 2.228 . S
Cd366 O370 2.273 . S
Cd366 O374 2.277 . S
O367 C364 1.160 . S
O367 Cd368 2.203 . S
Cd368 O367 2.203 . S
Cd368 O370 2.411 . S
Cd368 O371 2.333 . S
Cd368 O372 2.352 . S
Cd368 O376 2.277 . S
Cd368 O377 2.356 . S
C369 O374 1.209 . S
C369 O376 1.226 . S
O370 Cd366 2.273 . S
O370 Cd368 2.411 . S
O370 C373 1.320 . S
O371 Cd368 2.333 . S
O371 C373 1.214 . S
O372 Cd368 2.352 . S
O372 C375 1.258 . S
C373 O370 1.320 . S
C373 O371 1.214 . S
O374 Cd366 2.277 . S
O374 C369 1.209 . S
C375 O372 1.258 . S
C375 O377 1.282 . S
O376 Cd368 2.277 . S
O376 C369 1.226 . S
O377 Cd368 2.356 . S
O377 C375 1.282 . S
C378 O379 1.306 . S
C378 O381 1.160 . S
O379 C378 1.306 . S
O379 Cd380 2.228 . S
Cd380 O379 2.228 . S
Cd380 O384 2.273 . S
Cd380 O388 2.277 . S
O381 C378 1.160 . S
O381 Cd382 2.203 . S
Cd382 O381 2.203 . S
Cd382 O384 2.411 . S
Cd382 O385 2.333 . S
Cd382 O386 2.352 . S
Cd382 O390 2.277 . S
Cd382 O391 2.356 . S
C383 O388 1.209 . S
C383 O390 1.226 . S
O384 Cd380 2.273 . S
O384 Cd382 2.411 . S
O384 C387 1.320 1_554 S
O385 Cd382 2.333 . S
O385 C387 1.214 1_554 S
O386 Cd382 2.352 . S
O386 C389 1.258 . S
C387 O384 1.320 1_556 S
C387 O385 1.214 1_556 S
O388 Cd380 2.277 . S
O388 C383 1.209 . S
C389 O386 1.258 . S
C389 O391 1.282 . S
O390 Cd382 2.277 . S
O390 C383 1.226 . S
O391 Cd382 2.356 . S
O391 C389 1.282 . S
C392 O393 1.306 . S
C392 O395 1.160 . S
O393 C392 1.306 . S
O393 Cd394 2.228 . S
Cd394 O393 2.228 . S
Cd394 O398 2.273 . S
Cd394 O402 2.277 . S
O395 C392 1.160 . S
O395 Cd396 2.203 . S
Cd396 O395 2.203 . S
Cd396 O398 2.411 . S
Cd396 O399 2.333 . S
Cd396 O400 2.352 . S
Cd396 O404 2.277 . S
Cd396 O405 2.356 . S
C397 O402 1.209 . S
C397 O404 1.226 . S
O398 Cd394 2.273 . S
O398 Cd396 2.411 . S
O398 C401 1.320 1_554 S
O399 Cd396 2.333 . S
O399 C401 1.214 1_554 S
O400 Cd396 2.352 . S
O400 C403 1.258 . S
C401 O398 1.320 1_556 S
C401 O399 1.214 1_556 S
O402 Cd394 2.277 . S
O402 C397 1.209 . S
C403 O400 1.258 . S
C403 O405 1.282 . S
O404 Cd396 2.277 . S
O404 C397 1.226 . S
O405 Cd396 2.356 . S
O405 C403 1.282 . S
C406 O407 1.306 . S
C406 O409 1.160 . S
O407 C406 1.306 . S
O407 Cd408 2.228 . S
Cd408 O407 2.228 . S
Cd408 O412 2.273 . S
Cd408 O416 2.277 . S
O409 C406 1.160 . S
O409 Cd410 2.203 . S
Cd410 O409 2.203 . S
Cd410 O412 2.411 . S
Cd410 O413 2.333 . S
Cd410 O414 2.352 . S
Cd410 O418 2.277 . S
Cd410 O419 2.356 . S
C411 O416 1.209 . S
C411 O418 1.226 . S
O412 Cd408 2.273 . S
O412 Cd410 2.411 . S
O412 C415 1.320 1_554 S
O413 Cd410 2.333 . S
O413 C415 1.214 1_554 S
O414 Cd410 2.352 . S
O414 C417 1.258 . S
C415 O412 1.320 1_556 S
C415 O413 1.214 1_556 S
O416 Cd408 2.277 . S
O416 C411 1.209 . S
C417 O414 1.258 . S
C417 O419 1.282 . S
O418 Cd410 2.277 . S
O418 C411 1.226 . S
O419 Cd410 2.356 . S
O419 C417 1.282 . S
C420 O421 1.306 . S
C420 O423 1.160 . S
O421 C420 1.306 . S
O421 Cd422 2.228 . S
Cd422 O421 2.228 . S
Cd422 O426 2.273 . S
Cd422 O430 2.277 . S
O423 C420 1.160 . S
O423 Cd424 2.203 . S
Cd424 O423 2.203 . S
Cd424 O426 2.411 . S
Cd424 O427 2.333 . S
Cd424 O428 2.352 . S
Cd424 O432 2.277 . S
Cd424 O433 2.356 . S
C425 O430 1.209 . S
C425 O432 1.226 . S
O426 Cd422 2.273 . S
O426 Cd424 2.411 . S
O426 C429 1.320 . S
O427 Cd424 2.333 . S
O427 C429 1.214 . S
O428 Cd424 2.352 . S
O428 C431 1.258 . S
C429 O426 1.320 . S
C429 O427 1.214 . S
O430 Cd422 2.277 . S
O430 C425 1.209 . S
C431 O428 1.258 . S
C431 O433 1.282 . S
O432 Cd424 2.277 . S
O432 C425 1.226 . S
O433 Cd424 2.356 . S
O433 C431 1.282 . S
C434 O435 1.306 . S
C434 O437 1.160 . S
O435 C434 1.306 . S
O435 Cd436 2.228 . S
Cd436 O435 2.228 . S
Cd436 O440 2.273 . S
Cd436 O444 2.277 . S
O437 C434 1.160 . S
O437 Cd438 2.203 . S
Cd438 O437 2.203 . S
Cd438 O440 2.411 . S
Cd438 O441 2.333 . S
Cd438 O442 2.352 . S
Cd438 O446 2.277 . S
Cd438 O447 2.356 . S
C439 O444 1.209 . S
C439 O446 1.226 . S
O440 Cd436 2.273 . S
O440 Cd438 2.411 . S
O440 C443 1.320 . S
O441 Cd438 2.333 . S
O441 C443 1.214 . S
O442 Cd438 2.352 . S
O442 C445 1.258 . S
C443 O440 1.320 . S
C443 O441 1.214 . S
O444 Cd436 2.277 . S
O444 C439 1.209 . S
C445 O442 1.258 . S
C445 O447 1.282 . S
O446 Cd438 2.277 . S
O446 C439 1.226 . S
O447 Cd438 2.356 . S
O447 C445 1.282 . S
C448 O449 1.306 . S
C448 O451 1.160 . S
O449 C448 1.306 . S
O449 Cd450 2.228 . S
Cd450 O449 2.228 . S
Cd450 O454 2.273 . S
Cd450 O458 2.277 . S
O451 C448 1.160 . S
O451 Cd452 2.203 . S
Cd452 O451 2.203 . S
Cd452 O454 2.411 . S
Cd452 O455 2.333 . S
Cd452 O456 2.352 . S
Cd452 O460 2.277 . S
Cd452 O461 2.356 . S
C453 O458 1.209 . S
C453 O460 1.226 . S
O454 Cd450 2.273 . S
O454 Cd452 2.411 . S
O454 C457 1.320 . S
O455 Cd452 2.333 . S
O455 C457 1.214 . S
O456 Cd452 2.352 . S
O456 C459 1.258 . S
C457 O454 1.320 . S
C457 O455 1.214 . S
O458 Cd450 2.277 . S
O458 C453 1.209 . S
C459 O456 1.258 . S
C459 O461 1.282 . S
O460 Cd452 2.277 . S
O460 C453 1.226 . S
O461 Cd452 2.356 . S
O461 C459 1.282 . S
C462 O463 1.306 . S
C462 O465 1.160 . S
O463 C462 1.306 . S
O463 Cd464 2.228 . S
Cd464 O463 2.228 . S
Cd464 O468 2.273 . S
Cd464 O472 2.277 . S
O465 C462 1.160 . S
O465 Cd466 2.203 . S
Cd466 O465 2.203 . S
Cd466 O468 2.411 . S
Cd466 O469 2.333 . S
Cd466 O470 2.352 . S
Cd466 O474 2.277 . S
Cd466 O475 2.356 . S
C467 O472 1.209 . S
C467 O474 1.226 . S
O468 Cd464 2.273 . S
O468 Cd466 2.411 . S
O468 C471 1.320 . S
O469 Cd466 2.333 . S
O469 C471 1.214 . S
O470 Cd466 2.352 . S
O470 C473 1.258 . S
C471 O468 1.320 . S
C471 O469 1.214 . S
O472 Cd464 2.277 . S
O472 C467 1.209 . S
C473 O470 1.258 . S
C473 O475 1.282 . S
O474 Cd466 2.277 . S
O474 C467 1.226 . S
O475 Cd466 2.356 . S
O475 C473 1.282 . S
C476 O477 1.306 . S
C476 O479 1.160 . S
O477 C476 1.306 . S
O477 Cd478 2.228 . S
Cd478 O477 2.228 . S
Cd478 O482 2.273 . S
Cd478 O486 2.277 . S
O479 C476 1.160 . S
O479 Cd480 2.203 . S
Cd480 O479 2.203 . S
Cd480 O482 2.411 . S
Cd480 O483 2.333 . S
Cd480 O484 2.352 . S
Cd480 O488 2.277 . S
Cd480 O489 2.356 . S
C481 O486 1.209 . S
C481 O488 1.226 . S
O482 Cd478 2.273 . S
O482 Cd480 2.411 . S
O482 C485 1.320 . S
O483 Cd480 2.333 . S
O483 C485 1.214 . S
O484 Cd480 2.352 . S
O484 C487 1.258 . S
C485 O482 1.320 . S
C485 O483 1.214 . S
O486 Cd478 2.277 . S
O486 C481 1.209 . S
C487 O484 1.258 . S
C487 O489 1.282 . S
O488 Cd480 2.277 . S
O488 C481 1.226 . S
O489 Cd480 2.356 . S
O489 C487 1.282 . S
C490 O491 1.306 . S
C490 O493 1.160 . S
O491 C490 1.306 . S
O491 Cd492 2.228 . S
Cd492 O491 2.228 . S
Cd492 O496 2.273 . S
Cd492 O500 2.277 . S
O493 C490 1.160 . S
O493 Cd494 2.203 . S
Cd494 O493 2.203 . S
Cd494 O496 2.411 . S
Cd494 O497 2.333 . S
Cd494 O498 2.352 . S
Cd494 O502 2.277 . S
Cd494 O503 2.356 . S
C495 O500 1.209 . S
C495 O502 1.226 . S
O496 Cd492 2.273 . S
O496 Cd494 2.411 . S
O496 C499 1.320 . S
O497 Cd494 2.333 . S
O497 C499 1.214 . S
O498 Cd494 2.352 . S
O498 C501 1.258 . S
C499 O496 1.320 . S
C499 O497 1.214 . S
O500 Cd492 2.277 . S
O500 C495 1.209 . S
C501 O498 1.258 . S
C501 O503 1.282 . S
O502 Cd494 2.277 . S
O502 C495 1.226 . S
O503 Cd494 2.356 . S
O503 C501 1.282 . S
C504 C505 1.369 . S
C504 C506 1.419 1_545 S
C504 H508 0.930 . S
C505 C504 1.369 . S
C505 C514 1.429 1_554 S
C506 C504 1.419 1_565 S
C506 C507 1.363 1_564 S
C506 H509 0.929 . S
C507 C506 1.363 1_546 S
C507 C513 1.428 . S
H508 C504 0.930 . S
H509 C506 0.929 . S
S510 N511 1.613 . S
S510 N512 1.610 . S
N511 S510 1.613 . S
N511 C514 1.350 . S
N512 S510 1.610 . S
N512 C513 1.351 . S
C513 C507 1.428 . S
C513 N512 1.351 . S
C513 C514 1.434 . S
C514 C505 1.429 1_556 S
C514 N511 1.350 . S
C514 C513 1.434 . S
C515 C516 1.369 . S
C515 C517 1.419 1_554 S
C515 H519 0.930 1_554 S
C516 C515 1.369 . S
C516 C525 1.429 . S
C517 C515 1.419 1_556 S
C517 C518 1.363 . S
C517 H520 0.929 . S
C518 C517 1.363 . S
C518 C524 1.428 1_656 S
H519 C515 0.930 1_556 S
H520 C517 0.929 . S
S521 N522 1.613 1_455 S
S521 N523 1.610 . S
N522 S521 1.613 1_655 S
N522 C525 1.350 . S
N523 S521 1.610 . S
N523 C524 1.351 . S
C524 C518 1.428 1_454 S
C524 N523 1.351 . S
C524 C525 1.434 1_455 S
C525 C516 1.429 . S
C525 N522 1.350 . S
C525 C524 1.434 1_655 S
C526 C527 1.369 . S
C526 C528 1.419 1_556 S
C526 H530 0.930 . S
C527 C526 1.369 . S
C527 C536 1.429 1_556 S
C528 C526 1.419 1_554 S
C528 C529 1.363 . S
C528 H531 0.929 . S
C529 C528 1.363 . S
C529 C535 1.428 . S
H530 C526 0.930 . S
H531 C528 0.929 . S
S532 N533 1.613 . S
S532 N534 1.610 . S
N533 S532 1.613 . S
N533 C536 1.350 . S
N534 S532 1.610 . S
N534 C535 1.351 . S
C535 C529 1.428 . S
C535 N534 1.351 . S
C535 C536 1.434 . S
C536 C527 1.429 1_554 S
C536 N533 1.350 . S
C536 C535 1.434 . S
C537 C538 1.369 . S
C537 C539 1.419 . S
C537 H541 0.930 . S
C538 C537 1.369 . S
C538 C547 1.429 . S
C539 C537 1.419 . S
C539 C540 1.363 . S
C539 H542 0.929 . S
C540 C539 1.363 . S
C540 C546 1.428 . S
H541 C537 0.930 . S
H542 C539 0.929 . S
S543 N544 1.613 . S
S543 N545 1.610 1_655 S
N544 S543 1.613 . S
N544 C547 1.350 1_655 S
N545 S543 1.610 1_455 S
N545 C546 1.351 . S
C546 C540 1.428 . S
C546 N545 1.351 . S
C546 C547 1.434 . S
C547 C538 1.429 . S
C547 N544 1.350 1_455 S
C547 C546 1.434 . S
C548 C549 1.369 . S
C548 C550 1.419 . S
C548 H552 0.930 . S
C549 C548 1.369 . S
C549 C558 1.429 . S
C550 C548 1.419 . S
C550 C551 1.363 . S
C550 H553 0.929 . S
C551 C550 1.363 . S
C551 C557 1.428 . S
H552 C548 0.930 . S
H553 C550 0.929 . S
S554 N555 1.613 . S
S554 N556 1.610 . S
N555 S554 1.613 . S
N555 C558 1.350 . S
N556 S554 1.610 . S
N556 C557 1.351 . S
C557 C551 1.428 . S
C557 N556 1.351 . S
C557 C558 1.434 . S
C558 C549 1.429 . S
C558 N555 1.350 . S
C558 C557 1.434 . S
C559 C560 1.369 . S
C559 C561 1.419 . S
C559 H563 0.930 . S
C560 C559 1.369 . S
C560 C569 1.429 . S
C561 C559 1.419 . S
C561 C562 1.363 . S
C561 H564 0.929 1_565 S
C562 C561 1.363 . S
C562 C568 1.428 . S
H563 C559 0.930 . S
H564 C561 0.929 1_545 S
S565 N566 1.613 . S
S565 N567 1.610 . S
N566 S565 1.613 . S
N566 C569 1.350 . S
N567 S565 1.610 . S
N567 C568 1.351 . S
C568 C562 1.428 . S
C568 N567 1.351 . S
C568 C569 1.434 . S
C569 C560 1.429 . S
C569 N566 1.350 . S
C569 C568 1.434 . S
C570 C571 1.369 . S
C570 C572 1.419 . S
C570 H574 0.930 . S
C571 C570 1.369 . S
C571 C580 1.429 1_564 S
C572 C570 1.419 . S
C572 C573 1.363 1_554 S
C572 H575 0.929 . S
C573 C572 1.363 1_556 S
C573 C579 1.428 . S
H574 C570 0.930 . S
H575 C572 0.929 . S
S576 N577 1.613 . S
S576 N578 1.610 1_545 S
N577 S576 1.613 . S
N577 C580 1.350 . S
N578 S576 1.610 1_565 S
N578 C579 1.351 . S
C579 C573 1.428 . S
C579 N578 1.351 . S
C579 C580 1.434 1_565 S
C580 C571 1.429 1_546 S
C580 N577 1.350 . S
C580 C579 1.434 1_545 S
C581 C582 1.369 1_556 S
C581 C583 1.419 . S
C581 H585 0.930 1_455 S
C582 C581 1.369 1_554 S
C582 C591 1.429 . S
C583 C581 1.419 . S
C583 C584 1.363 . S
C583 H586 0.929 . S
C584 C583 1.363 . S
C584 C590 1.428 . S
H585 C581 0.930 1_655 S
H586 C583 0.929 . S
S587 N588 1.613 . S
S587 N589 1.610 . S
N588 S587 1.613 . S
N588 C591 1.350 . S
N589 S587 1.610 . S
N589 C590 1.351 1_554 S
C590 C584 1.428 . S
C590 N589 1.351 1_556 S
C590 C591 1.434 1_556 S
C591 C582 1.429 . S
C591 N588 1.350 . S
C591 C590 1.434 1_554 S
C592 C593 1.369 . S
C592 C594 1.419 1_556 S
C592 H596 0.930 . S
C593 C592 1.369 . S
C593 C602 1.429 . S
C594 C592 1.419 1_554 S
C594 C595 1.363 . S
C594 H597 0.929 . S
C595 C594 1.363 . S
C595 C601 1.428 1_554 S
H596 C592 0.930 . S
H597 C594 0.929 . S
S598 N599 1.613 . S
S598 N600 1.623 . S
N599 S598 1.613 . S
N599 C602 1.350 . S
N600 S598 1.623 . S
N600 C601 1.352 . S
C601 C595 1.428 1_556 S
C601 N600 1.352 . S
C601 C602 1.434 . S
C602 C593 1.429 . S
C602 N599 1.350 . S
C602 C601 1.434 . S
C603 C604 1.369 . S
C603 C605 1.419 . S
C603 H607 0.930 . S
C604 C603 1.369 . S
C604 C613 1.429 . S
C605 C603 1.419 . S
C605 C606 1.363 . S
C605 H608 0.929 . S
C606 C605 1.363 . S
C606 C612 1.428 1_655 S
H607 C603 0.930 . S
H608 C605 0.929 . S
S609 N610 1.613 1_455 S
S609 N611 1.610 . S
N610 S609 1.613 1_655 S
N610 C613 1.350 . S
N611 S609 1.610 . S
N611 C612 1.351 . S
C612 C606 1.428 1_455 S
C612 N611 1.351 . S
C612 C613 1.434 1_455 S
C613 C604 1.429 . S
C613 N610 1.350 . S
C613 C612 1.434 1_655 S
C614 C615 1.369 . S
C614 C616 1.419 . S
C614 H618 0.930 . S
C615 C614 1.369 . S
C615 C624 1.429 . S
C616 C614 1.419 . S
C616 C617 1.363 . S
C616 H619 0.929 . S
C617 C616 1.363 . S
C617 C623 1.428 . S
H618 C614 0.930 . S
H619 C616 0.929 . S
S620 N621 1.613 . S
S620 N622 1.610 . S
N621 S620 1.613 . S
N621 C624 1.350 . S
N622 S620 1.610 . S
N622 C623 1.351 . S
C623 C617 1.428 . S
C623 N622 1.351 . S
C623 C624 1.434 . S
C624 C615 1.429 . S
C624 N621 1.350 . S
C624 C623 1.434 . S
C625 C626 1.369 . S
C625 C627 1.419 . S
C625 H629 0.930 . S
C626 C625 1.369 . S
C626 C635 1.429 . S
C627 C625 1.419 . S
C627 C628 1.363 . S
C627 H630 0.929 1_545 S
C628 C627 1.363 . S
C628 C634 1.428 . S
H629 C625 0.930 . S
H630 C627 0.929 1_565 S
S631 N632 1.613 . S
S631 N633 1.610 . S
N632 S631 1.613 . S
N632 C635 1.350 . S
N633 S631 1.610 . S
N633 C634 1.351 . S
C634 C628 1.428 . S
C634 N633 1.351 . S
C634 C635 1.434 . S
C635 C626 1.429 . S
C635 N632 1.350 . S
C635 C634 1.434 . S
C636 C637 1.369 . S
C636 C638 1.419 . S
C636 H640 0.930 . S
C637 C636 1.369 . S
C637 C646 1.429 . S
C638 C636 1.419 . S
C638 C639 1.363 . S
C638 H641 0.929 . S
C639 C638 1.363 . S
C639 C645 1.428 . S
H640 C636 0.930 . S
H641 C638 0.929 . S
S642 N643 1.613 . S
S642 N644 1.610 . S
N643 S642 1.613 . S
N643 C646 1.350 . S
N644 S642 1.610 . S
N644 C645 1.351 . S
C645 C639 1.428 . S
C645 N644 1.351 . S
C645 C646 1.434 . S
C646 C637 1.429 . S
C646 N643 1.350 . S
C646 C645 1.434 . S
C647 C648 1.369 . S
C647 C649 1.419 . S
C647 H651 0.930 . S
C648 C647 1.369 . S
C648 C657 1.429 . S
C649 C647 1.419 . S
C649 C650 1.363 . S
C649 H652 0.929 . S
C650 C649 1.363 . S
C650 C656 1.428 . S
H651 C647 0.930 . S
H652 C649 0.929 . S
S653 N654 1.613 . S
S653 N655 1.610 . S
N654 S653 1.613 . S
N654 C657 1.350 . S
N655 S653 1.610 . S
N655 C656 1.351 . S
C656 C650 1.428 . S
C656 N655 1.351 . S
C656 C657 1.434 . S
C657 C648 1.429 . S
C657 N654 1.350 . S
C657 C656 1.434 . S
C658 C659 1.369 . S
C658 C660 1.419 . S
C658 H662 0.930 . S
C659 C658 1.369 . S
C659 C668 1.429 . S
C660 C658 1.419 . S
C660 C661 1.363 . S
C660 H663 0.929 . S
C661 C660 1.363 . S
C661 C667 1.428 . S
H662 C658 0.930 . S
H663 C660 0.929 . S
S664 N665 1.613 . S
S664 N666 1.610 . S
N665 S664 1.613 . S
N665 C668 1.350 . S
N666 S664 1.610 . S
N666 C667 1.351 . S
C667 C661 1.428 . S
C667 N666 1.351 . S
C667 C668 1.434 . S
C668 C659 1.429 . S
C668 N665 1.350 . S
C668 C667 1.434 . S
C669 C670 1.369 . S
C669 C671 1.419 . S
C669 H673 0.930 . S
C670 C669 1.369 . S
C670 C679 1.429 . S
C671 C669 1.419 . S
C671 C672 1.363 . S
C671 H674 0.929 . S
C672 C671 1.363 . S
C672 C678 1.428 . S
H673 C669 0.930 . S
H674 C671 0.929 . S
S675 N676 1.613 . S
S675 N677 1.610 . S
N676 S675 1.613 . S
N676 C679 1.350 . S
N677 S675 1.610 . S
N677 C678 1.351 . S
C678 C672 1.428 . S
C678 N677 1.351 . S
C678 C679 1.434 . S
C679 C670 1.429 . S
C679 N676 1.350 . S
C679 C678 1.434 . S
C680 C681 1.369 . S
C680 C682 1.419 . S
C680 H684 0.930 . S
C681 C680 1.369 . S
C681 C690 1.429 . S
C682 C680 1.419 . S
C682 C683 1.363 . S
C682 H685 0.929 . S
C683 C682 1.363 . S
C683 C689 1.428 . S
H684 C680 0.930 . S
H685 C682 0.929 . S
S686 N687 1.613 . S
S686 N688 1.610 . S
N687 S686 1.613 . S
N687 C690 1.350 . S
N688 S686 1.610 . S
N688 C689 1.351 . S
C689 C683 1.428 . S
C689 N688 1.351 . S
C689 C690 1.434 . S
C690 C681 1.429 . S
C690 N687 1.350 . S
C690 C689 1.434 . S
C691 C692 1.369 . S
C691 C693 1.419 . S
C691 H695 0.930 . S
C692 C691 1.369 . S
C692 C701 1.429 . S
C693 C691 1.419 . S
C693 C694 1.363 . S
C693 H696 0.929 . S
C694 C693 1.363 . S
C694 C700 1.428 . S
H695 C691 0.930 . S
H696 C693 0.929 . S
S697 N698 1.613 . S
S697 N699 1.610 . S
N698 S697 1.613 . S
N698 C701 1.350 . S
N699 S697 1.610 . S
N699 C700 1.351 . S
C700 C694 1.428 . S
C700 N699 1.351 . S
C700 C701 1.434 . S
C701 C692 1.429 . S
C701 N698 1.350 . S
C701 C700 1.434 . S
C702 C703 1.369 . S
C702 C704 1.419 . S
C702 H706 0.930 . S
C703 C702 1.369 . S
C703 C712 1.429 . S
C704 C702 1.419 . S
C704 C705 1.363 . S
C704 H707 0.929 . S
C705 C704 1.363 . S
C705 C711 1.428 . S
H706 C702 0.930 . S
H707 C704 0.929 . S
S708 N709 1.613 . S
S708 N710 1.610 . S
N709 S708 1.613 . S
N709 C712 1.350 . S
N710 S708 1.610 . S
N710 C711 1.351 . S
C711 C705 1.428 . S
C711 N710 1.351 . S
C711 C712 1.434 . S
C712 C703 1.429 . S
C712 N709 1.350 . S
C712 C711 1.434 . S
C713 C714 1.369 . S
C713 C715 1.419 . S
C713 H717 0.930 . S
C714 C713 1.369 . S
C714 C723 1.429 . S
C715 C713 1.419 . S
C715 C716 1.363 . S
C715 H718 0.929 . S
C716 C715 1.363 . S
C716 C722 1.428 . S
H717 C713 0.930 . S
H718 C715 0.929 . S
S719 N720 1.613 . S
S719 N721 1.610 . S
N720 S719 1.613 . S
N720 C723 1.350 . S
N721 S719 1.610 . S
N721 C722 1.351 . S
C722 C716 1.428 . S
C722 N721 1.351 . S
C722 C723 1.434 . S
C723 C714 1.429 . S
C723 N720 1.350 . S
C723 C722 1.434 . S
C724 C725 1.369 . S
C724 C726 1.419 . S
C724 H728 0.930 . S
C725 C724 1.369 . S
C725 C734 1.429 . S
C726 C724 1.419 . S
C726 C727 1.363 . S
C726 H729 0.929 . S
C727 C726 1.363 . S
C727 C733 1.428 . S
H728 C724 0.930 . S
H729 C726 0.929 . S
S730 N731 1.613 . S
S730 N732 1.610 . S
N731 S730 1.613 . S
N731 C734 1.350 . S
N732 S730 1.610 . S
N732 C733 1.351 . S
C733 C727 1.428 . S
C733 N732 1.351 . S
C733 C734 1.434 . S
C734 C725 1.429 . S
C734 N731 1.350 . S
C734 C733 1.434 . S
C735 C736 1.369 . S
C735 C737 1.419 . S
C735 H739 0.930 . S
C736 C735 1.369 . S
C736 C745 1.429 . S
C737 C735 1.419 . S
C737 C738 1.363 . S
C737 H740 0.929 . S
C738 C737 1.363 . S
C738 C744 1.428 . S
H739 C735 0.930 . S
H740 C737 0.929 . S
S741 N742 1.613 . S
S741 N743 1.610 . S
N742 S741 1.613 . S
N742 C745 1.350 . S
N743 S741 1.610 . S
N743 C744 1.351 . S
C744 C738 1.428 . S
C744 N743 1.351 . S
C744 C745 1.434 . S
C745 C736 1.429 . S
C745 N742 1.350 . S
C745 C744 1.434 . S
C746 C747 1.369 . S
C746 C748 1.419 . S
C746 H750 0.930 . S
C747 C746 1.369 . S
C747 C756 1.429 . S
C748 C746 1.419 . S
C748 C749 1.363 . S
C748 H751 0.929 . S
C749 C748 1.363 . S
C749 C755 1.428 . S
H750 C746 0.930 . S
H751 C748 0.929 . S
S752 N753 1.613 . S
S752 N754 1.610 . S
N753 S752 1.613 . S
N753 C756 1.350 . S
N754 S752 1.610 . S
N754 C755 1.351 . S
C755 C749 1.428 . S
C755 N754 1.351 . S
C755 C756 1.434 . S
C756 C747 1.429 . S
C756 N753 1.350 . S
C756 C755 1.434 . S
C757 C758 1.369 . S
C757 C759 1.419 . S
C757 H761 0.930 . S
C758 C757 1.369 . S
C758 C767 1.429 . S
C759 C757 1.419 . S
C759 C760 1.363 . S
C759 H762 0.929 . S
C760 C759 1.363 . S
C760 C766 1.428 . S
H761 C757 0.930 . S
H762 C759 0.929 . S
S763 N764 1.613 . S
S763 N765 1.610 . S
N764 S763 1.613 . S
N764 C767 1.350 . S
N765 S763 1.610 . S
N765 C766 1.351 . S
C766 C760 1.428 . S
C766 N765 1.351 . S
C766 C767 1.434 . S
C767 C758 1.429 . S
C767 N764 1.350 . S
C767 C766 1.434 . S
C768 C769 1.369 . S
C768 C770 1.419 . S
C768 H772 0.930 . S
C769 C768 1.369 . S
C769 C778 1.429 . S
C770 C768 1.419 . S
C770 C771 1.363 . S
C770 H773 0.929 . S
C771 C770 1.363 . S
C771 C777 1.428 . S
H772 C768 0.930 . S
H773 C770 0.929 . S
S774 N775 1.613 . S
S774 N776 1.610 . S
N775 S774 1.613 . S
N775 C778 1.350 . S
N776 S774 1.610 . S
N776 C777 1.351 . S
C777 C771 1.428 . S
C777 N776 1.351 . S
C777 C778 1.434 . S
C778 C769 1.429 . S
C778 N775 1.350 . S
C778 C777 1.434 . S
C779 C780 1.369 . S
C779 C781 1.419 . S
C779 H783 0.930 . S
C780 C779 1.369 . S
C780 C789 1.429 . S
C781 C779 1.419 . S
C781 C782 1.363 . S
C781 H784 0.929 . S
C782 C781 1.363 . S
C782 C788 1.428 . S
H783 C779 0.930 . S
H784 C781 0.929 . S
S785 N786 1.613 . S
S785 N787 1.610 . S
N786 S785 1.613 . S
N786 C789 1.350 . S
N787 S785 1.610 . S
N787 C788 1.351 . S
C788 C782 1.428 . S
C788 N787 1.351 . S
C788 C789 1.434 . S
C789 C780 1.429 . S
C789 N786 1.350 . S
C789 C788 1.434 . S
C790 C791 1.369 . S
C790 C792 1.419 . S
C790 H794 0.930 . S
C791 C790 1.369 . S
C791 C800 1.429 . S
C792 C790 1.419 . S
C792 C793 1.363 . S
C792 H795 0.929 . S
C793 C792 1.363 . S
C793 C799 1.428 . S
H794 C790 0.930 . S
H795 C792 0.929 . S
S796 N797 1.613 . S
S796 N798 1.610 . S
N797 S796 1.613 . S
N797 C800 1.350 . S
N798 S796 1.610 . S
N798 C799 1.351 . S
C799 C793 1.428 . S
C799 N798 1.351 . S
C799 C800 1.434 . S
C800 C791 1.429 . S
C800 N797 1.350 . S
C800 C799 1.434 . S
C801 C802 1.369 . S
C801 C803 1.419 . S
C801 H805 0.930 . S
C802 C801 1.369 . S
C802 C811 1.429 . S
C803 C801 1.419 . S
C803 C804 1.363 . S
C803 H806 0.929 . S
C804 C803 1.363 . S
C804 C810 1.428 . S
H805 C801 0.930 . S
H806 C803 0.929 . S
S807 N808 1.613 . S
S807 N809 1.610 . S
N808 S807 1.613 . S
N808 C811 1.350 . S
N809 S807 1.610 . S
N809 C810 1.351 . S
C810 C804 1.428 . S
C810 N809 1.351 . S
C810 C811 1.434 . S
C811 C802 1.429 . S
C811 N808 1.350 . S
C811 C810 1.434 . S
C812 C813 1.369 . S
C812 C814 1.419 . S
C812 H816 0.930 . S
C813 C812 1.369 . S
C813 C822 1.429 . S
C814 C812 1.419 . S
C814 C815 1.363 . S
C814 H817 0.929 . S
C815 C814 1.363 . S
C815 C821 1.428 . S
H816 C812 0.930 . S
H817 C814 0.929 . S
S818 N819 1.613 . S
S818 N820 1.610 . S
N819 S818 1.613 . S
N819 C822 1.350 . S
N820 S818 1.610 . S
N820 C821 1.351 . S
C821 C815 1.428 . S
C821 N820 1.351 . S
C821 C822 1.434 . S
C822 C813 1.429 . S
C822 N819 1.350 . S
C822 C821 1.434 . S
C823 C824 1.369 . S
C823 C825 1.419 . S
C823 H827 0.930 . S
C824 C823 1.369 . S
C824 C833 1.429 . S
C825 C823 1.419 . S
C825 C826 1.363 . S
C825 H828 0.929 . S
C826 C825 1.363 . S
C826 C832 1.428 . S
H827 C823 0.930 . S
H828 C825 0.929 . S
S829 N830 1.613 . S
S829 N831 1.610 . S
N830 S829 1.613 . S
N830 C833 1.350 . S
N831 S829 1.610 . S
N831 C832 1.351 . S
C832 C826 1.428 . S
C832 N831 1.351 . S
C832 C833 1.434 . S
C833 C824 1.429 . S
C833 N830 1.350 . S
C833 C832 1.434 . S
C834 C835 1.369 . S
C834 C836 1.419 . S
C834 H838 0.930 . S
C835 C834 1.369 . S
C835 C844 1.429 . S
C836 C834 1.419 . S
C836 C837 1.363 . S
C836 H839 0.929 . S
C837 C836 1.363 . S
C837 C843 1.428 . S
H838 C834 0.930 . S
H839 C836 0.929 . S
S840 N841 1.613 . S
S840 N842 1.610 . S
N841 S840 1.613 . S
N841 C844 1.350 . S
N842 S840 1.610 . S
N842 C843 1.351 . S
C843 C837 1.428 . S
C843 N842 1.351 . S
C843 C844 1.434 . S
C844 C835 1.429 . S
C844 N841 1.350 . S
C844 C843 1.434 . S
C845 C846 1.369 . S
C845 C847 1.419 . S
C845 H849 0.930 . S
C846 C845 1.369 . S
C846 C855 1.429 . S
C847 C845 1.419 . S
C847 C848 1.363 . S
C847 H850 0.929 . S
C848 C847 1.363 . S
C848 C854 1.428 . S
H849 C845 0.930 . S
H850 C847 0.929 . S
S851 N852 1.613 . S
S851 N853 1.610 . S
N852 S851 1.613 . S
N852 C855 1.350 . S
N853 S851 1.610 . S
N853 C854 1.351 . S
C854 C848 1.428 . S
C854 N853 1.351 . S
C854 C855 1.434 . S
C855 C846 1.429 . S
C855 N852 1.350 . S
C855 C854 1.434 . S
C856 C857 1.369 . S
C856 C858 1.419 . S
C856 H860 0.930 . S
C857 C856 1.369 . S
C857 C866 1.429 . S
C858 C856 1.419 . S
C858 C859 1.363 . S
C858 H861 0.929 . S
C859 C858 1.363 . S
C859 C865 1.428 . S
H860 C856 0.930 . S
H861 C858 0.929 . S
S862 N863 1.613 . S
S862 N864 1.610 . S
N863 S862 1.613 . S
N863 C866 1.350 . S
N864 S862 1.610 . S
N864 C865 1.351 . S
C865 C859 1.428 . S
C865 N864 1.351 . S
C865 C866 1.434 . S
C866 C857 1.429 . S
C866 N863 1.350 . S
C866 C865 1.434 . S
C867 C868 1.369 . S
C867 C869 1.419 . S
C867 H871 0.930 . S
C868 C867 1.369 . S
C868 C877 1.429 . S
C869 C867 1.419 . S
C869 C870 1.363 . S
C869 H872 0.929 . S
C870 C869 1.363 . S
C870 C876 1.428 . S
H871 C867 0.930 . S
H872 C869 0.929 . S
S873 N874 1.613 . S
S873 N875 1.610 . S
N874 S873 1.613 . S
N874 C877 1.350 . S
N875 S873 1.610 . S
N875 C876 1.351 . S
C876 C870 1.428 . S
C876 N875 1.351 . S
C876 C877 1.434 . S
C877 C868 1.429 . S
C877 N874 1.350 . S
C877 C876 1.434 . S
C878 C879 1.369 . S
C878 C880 1.419 . S
C878 H882 0.930 . S
C879 C878 1.369 . S
C879 C888 1.429 . S
C880 C878 1.419 . S
C880 C881 1.363 . S
C880 H883 0.929 . S
C881 C880 1.363 . S
C881 C887 1.428 . S
H882 C878 0.930 . S
H883 C880 0.929 . S
S884 N885 1.613 . S
S884 N886 1.610 . S
N885 S884 1.613 . S
N885 C888 1.350 . S
N886 S884 1.610 . S
N886 C887 1.351 . S
C887 C881 1.428 . S
C887 N886 1.351 . S
C887 C888 1.434 . S
C888 C879 1.429 . S
C888 N885 1.350 . S
C888 C887 1.434 . S
C889 C890 1.369 . S
C889 C891 1.419 . S
C889 H893 0.930 . S
C890 C889 1.369 . S
C890 C899 1.429 . S
C891 C889 1.419 . S
C891 C892 1.363 . S
C891 H894 0.929 . S
C892 C891 1.363 . S
C892 C898 1.428 . S
H893 C889 0.930 . S
H894 C891 0.929 . S
S895 N896 1.613 . S
S895 N897 1.610 . S
N896 S895 1.613 . S
N896 C899 1.350 . S
N897 S895 1.610 . S
N897 C898 1.351 . S
C898 C892 1.428 . S
C898 N897 1.351 . S
C898 C899 1.434 . S
C899 C890 1.429 . S
C899 N896 1.350 . S
C899 C898 1.434 . S
C900 C901 1.369 . S
C900 C902 1.419 . S
C900 H904 0.930 . S
C901 C900 1.369 . S
C901 C910 1.429 . S
C902 C900 1.419 . S
C902 C903 1.363 . S
C902 H905 0.929 . S
C903 C902 1.363 . S
C903 C909 1.428 . S
H904 C900 0.930 . S
H905 C902 0.929 . S
S906 N907 1.613 . S
S906 N908 1.610 . S
N907 S906 1.613 . S
N907 C910 1.350 . S
N908 S906 1.610 . S
N908 C909 1.351 . S
C909 C903 1.428 . S
C909 N908 1.351 . S
C909 C910 1.434 . S
C910 C901 1.429 . S
C910 N907 1.350 . S
C910 C909 1.434 . S
C911 C912 1.369 . S
C911 C913 1.419 1_565 S
C911 H915 0.930 . S
C912 C911 1.369 . S
C912 C921 1.429 . S
C913 C911 1.419 1_545 S
C913 C914 1.363 . S
C913 H916 0.929 . S
C914 C913 1.363 . S
C914 C920 1.428 . S
H915 C911 0.930 . S
H916 C913 0.929 . S
S917 N918 1.613 1_545 S
S917 N919 1.610 . S
N918 S917 1.613 1_565 S
N918 C921 1.350 . S
N919 S917 1.610 . S
N919 C920 1.351 . S
C920 C914 1.428 . S
C920 N919 1.351 . S
C920 C921 1.434 1_545 S
C921 C912 1.429 . S
C921 N918 1.350 . S
C921 C920 1.434 1_565 S
C922 C923 1.369 . S
C922 C924 1.419 . S
C922 H926 0.930 . S
C923 C922 1.369 . S
C923 C932 1.429 1_655 S
C924 C922 1.419 . S
C924 C925 1.363 1_655 S
C924 H927 0.929 . S
C925 C924 1.363 1_455 S
C925 C931 1.428 . S
H926 C922 0.930 . S
H927 C924 0.929 . S
S928 N929 1.613 . S
S928 N930 1.610 . S
N929 S928 1.613 . S
N929 C932 1.350 . S
N930 S928 1.610 . S
N930 C931 1.351 . S
C931 C925 1.428 . S
C931 N930 1.351 . S
C931 C932 1.434 . S
C932 C923 1.429 1_455 S
C932 N929 1.350 . S
C932 C931 1.434 . S
C933 C934 1.369 . S
C933 C935 1.419 . S
C933 H937 0.930 . S
C934 C933 1.369 . S
C934 C943 1.429 . S
C935 C933 1.419 . S
C935 C936 1.363 . S
C935 H938 0.929 . S
C936 C935 1.363 . S
C936 C942 1.428 . S
H937 C933 0.930 . S
H938 C935 0.929 . S
S939 N940 1.613 . S
S939 N941 1.610 . S
N940 S939 1.613 . S
N940 C943 1.350 . S
N941 S939 1.610 . S
N941 C942 1.351 . S
C942 C936 1.428 . S
C942 N941 1.351 . S
C942 C943 1.434 . S
C943 C934 1.429 . S
C943 N940 1.350 . S
C943 C942 1.434 . S
C944 C945 1.369 . S
C944 C946 1.419 . S
C944 H948 0.930 . S
C945 C944 1.369 . S
C945 C954 1.429 1_545 S
C946 C944 1.419 . S
C946 C947 1.363 1_545 S
C946 H949 0.929 . S
C947 C946 1.363 1_565 S
C947 C953 1.428 . S
H948 C944 0.930 . S
H949 C946 0.929 . S
S950 N951 1.613 . S
S950 N952 1.610 . S
N951 S950 1.613 . S
N951 C954 1.350 . S
N952 S950 1.610 . S
N952 C953 1.351 . S
C953 C947 1.428 . S
C953 N952 1.351 . S
C953 C954 1.434 . S
C954 C945 1.429 1_565 S
C954 N951 1.350 . S
C954 C953 1.434 . S
C955 C956 1.369 1_455 S
C955 C957 1.419 . S
C955 H959 0.930 . S
C956 C955 1.369 1_655 S
C956 C965 1.429 . S
C957 C955 1.419 . S
C957 C958 1.363 . S
C957 H960 0.929 . S
C958 C957 1.363 . S
C958 C964 1.428 1_455 S
H959 C955 0.930 . S
H960 C957 0.929 . S
S961 N962 1.613 . S
S961 N963 1.610 . S
N962 S961 1.613 . S
N962 C965 1.350 . S
N963 S961 1.610 . S
N963 C964 1.351 . S
C964 C958 1.428 1_655 S
C964 N963 1.351 . S
C964 C965 1.434 . S
C965 C956 1.429 . S
C965 N962 1.350 . S
C965 C964 1.434 . S
C966 C967 1.369 . S
C966 C968 1.419 . S
C966 H970 0.930 . S
C967 C966 1.369 . S
C967 C976 1.429 . S
C968 C966 1.419 . S
C968 C969 1.363 . S
C968 H971 0.929 . S
C969 C968 1.363 . S
C969 C975 1.428 . S
H970 C966 0.930 . S
H971 C968 0.929 . S
S972 N973 1.613 . S
S972 N974 1.610 . S
N973 S972 1.613 . S
N973 C976 1.350 . S
N974 S972 1.610 . S
N974 C975 1.351 . S
C975 C969 1.428 . S
C975 N974 1.351 . S
C975 C976 1.434 . S
C976 C967 1.429 . S
C976 N973 1.350 . S
C976 C975 1.434 . S
C977 C978 1.369 . S
C977 C979 1.419 . S
C977 H981 0.930 . S
C978 C977 1.369 . S
C978 C987 1.429 . S
C979 C977 1.419 . S
C979 C980 1.363 . S
C979 H982 0.929 . S
C980 C979 1.363 . S
C980 C986 1.428 . S
H981 C977 0.930 . S
H982 C979 0.929 . S
S983 N984 1.613 . S
S983 N985 1.610 . S
N984 S983 1.613 . S
N984 C987 1.350 . S
N985 S983 1.610 . S
N985 C986 1.351 . S
C986 C980 1.428 . S
C986 N985 1.351 . S
C986 C987 1.434 . S
C987 C978 1.429 . S
C987 N984 1.350 . S
C987 C986 1.434 . S
C988 C989 1.369 . S
C988 C990 1.419 . S
C988 H992 0.930 . S
C989 C988 1.369 . S
C989 C998 1.429 . S
C990 C988 1.419 . S
C990 C991 1.363 . S
C990 H993 0.929 . S
C991 C990 1.363 . S
C991 C997 1.428 . S
H992 C988 0.930 . S
H993 C990 0.929 . S
S994 N995 1.613 . S
S994 N996 1.610 . S
N995 S994 1.613 . S
N995 C998 1.350 . S
N996 S994 1.610 . S
N996 C997 1.351 . S
C997 C991 1.428 . S
C997 N996 1.351 . S
C997 C998 1.434 . S
C998 C989 1.429 . S
C998 N995 1.350 . S
C998 C997 1.434 . S
C999 C1000 1.369 . S
C999 C1001 1.419 . S
C999 H1003 0.930 . S
C1000 C999 1.369 . S
C1000 C1009 1.429 . S
C1001 C999 1.419 . S
C1001 C1002 1.363 . S
C1001 H1004 0.929 . S
C1002 C1001 1.363 . S
C1002 C1008 1.428 . S
H1003 C999 0.930 . S
H1004 C1001 0.929 . S
S1005 N1006 1.613 . S
S1005 N1007 1.610 . S
N1006 S1005 1.613 . S
N1006 C1009 1.350 . S
N1007 S1005 1.610 . S
N1007 C1008 1.351 . S
C1008 C1002 1.428 . S
C1008 N1007 1.351 . S
C1008 C1009 1.434 . S
C1009 C1000 1.429 . S
C1009 N1006 1.350 . S
C1009 C1008 1.434 . S
C1010 C1011 1.369 . S
C1010 C1012 1.419 . S
C1010 H1014 0.930 . S
C1011 C1010 1.369 . S
C1011 C1020 1.429 . S
C1012 C1010 1.419 . S
C1012 C1013 1.363 . S
C1012 H1015 0.929 . S
C1013 C1012 1.363 . S
C1013 C1019 1.428 . S
H1014 C1010 0.930 . S
H1015 C1012 0.929 . S
S1016 N1017 1.613 . S
S1016 N1018 1.610 . S
N1017 S1016 1.613 . S
N1017 C1020 1.350 . S
N1018 S1016 1.610 . S
N1018 C1019 1.351 . S
C1019 C1013 1.428 . S
C1019 N1018 1.351 . S
C1019 C1020 1.434 . S
C1020 C1011 1.429 . S
C1020 N1017 1.350 . S
C1020 C1019 1.434 . S
C1021 C1022 1.369 . S
C1021 C1023 1.419 . S
C1021 H1025 0.930 . S
C1022 C1021 1.369 . S
C1022 C1031 1.429 . S
C1023 C1021 1.419 . S
C1023 C1024 1.363 . S
C1023 H1026 0.929 . S
C1024 C1023 1.363 . S
C1024 C1030 1.428 . S
H1025 C1021 0.930 . S
H1026 C1023 0.929 . S
S1027 N1028 1.613 1_554 S
S1027 N1029 1.610 . S
N1028 S1027 1.613 1_556 S
N1028 C1031 1.350 1_556 S
N1029 S1027 1.610 . S
N1029 C1030 1.351 . S
C1030 C1024 1.428 . S
C1030 N1029 1.351 . S
C1030 C1031 1.434 . S
C1031 C1022 1.429 . S
C1031 N1028 1.350 1_554 S
C1031 C1030 1.434 . S
C1032 C1033 1.369 . S
C1032 C1034 1.419 . S
C1032 H1036 0.930 . S
C1033 C1032 1.369 . S
C1033 C1042 1.429 . S
C1034 C1032 1.419 . S
C1034 C1035 1.363 . S
C1034 H1037 0.929 . S
C1035 C1034 1.363 . S
C1035 C1041 1.428 . S
H1036 C1032 0.930 . S
H1037 C1034 0.929 . S
S1038 N1039 1.613 . S
S1038 N1040 1.610 . S
N1039 S1038 1.613 . S
N1039 C1042 1.350 . S
N1040 S1038 1.610 . S
N1040 C1041 1.351 . S
C1041 C1035 1.428 . S
C1041 N1040 1.351 . S
C1041 C1042 1.434 . S
C1042 C1033 1.429 . S
C1042 N1039 1.350 . S
C1042 C1041 1.434 . S
C1043 C1044 1.369 . S
C1043 C1045 1.419 . S
C1043 H1047 0.930 . S
C1044 C1043 1.369 . S
C1044 C1053 1.429 . S
C1045 C1043 1.419 . S
C1045 C1046 1.363 . S
C1045 H1048 0.929 . S
C1046 C1045 1.363 . S
C1046 C1052 1.428 . S
H1047 C1043 0.930 . S
H1048 C1045 0.929 . S
S1049 N1050 1.613 . S
S1049 N1051 1.610 . S
N1050 S1049 1.613 . S
N1050 C1053 1.350 . S
N1051 S1049 1.610 . S
N1051 C1052 1.351 . S
C1052 C1046 1.428 . S
C1052 N1051 1.351 . S
C1052 C1053 1.434 . S
C1053 C1044 1.429 . S
C1053 N1050 1.350 . S
C1053 C1052 1.434 . S
C1054 C1055 1.369 . S
C1054 C1056 1.419 . S
C1054 H1058 0.930 . S
C1055 C1054 1.369 . S
C1055 C1064 1.429 . S
C1056 C1054 1.419 . S
C1056 C1057 1.363 . S
C1056 H1059 0.929 . S
C1057 C1056 1.363 . S
C1057 C1063 1.428 . S
H1058 C1054 0.930 . S
H1059 C1056 0.929 . S
S1060 N1061 1.613 . S
S1060 N1062 1.610 . S
N1061 S1060 1.613 . S
N1061 C1064 1.350 . S
N1062 S1060 1.610 . S
N1062 C1063 1.351 . S
C1063 C1057 1.428 . S
C1063 N1062 1.351 . S
C1063 C1064 1.434 . S
C1064 C1055 1.429 . S
C1064 N1061 1.350 . S
C1064 C1063 1.434 . S
C1065 C1066 1.369 . S
C1065 C1067 1.419 . S
C1065 H1069 0.930 . S
C1066 C1065 1.369 . S
C1066 C1075 1.429 . S
C1067 C1065 1.419 . S
C1067 C1068 1.363 . S
C1067 H1070 0.929 . S
C1068 C1067 1.363 . S
C1068 C1074 1.428 . S
H1069 C1065 0.930 . S
H1070 C1067 0.929 . S
S1071 N1072 1.613 . S
S1071 N1073 1.610 . S
N1072 S1071 1.613 . S
N1072 C1075 1.350 . S
N1073 S1071 1.610 . S
N1073 C1074 1.351 . S
C1074 C1068 1.428 . S
C1074 N1073 1.351 . S
C1074 C1075 1.434 . S
C1075 C1066 1.429 . S
C1075 N1072 1.350 . S
C1075 C1074 1.434 . S
C1076 C1077 1.369 . S
C1076 C1078 1.419 . S
C1076 H1080 0.930 . S
C1077 C1076 1.369 . S
C1077 C1086 1.429 . S
C1078 C1076 1.419 . S
C1078 C1079 1.363 . S
C1078 H1081 0.929 . S
C1079 C1078 1.363 . S
C1079 C1085 1.428 . S
H1080 C1076 0.930 . S
H1081 C1078 0.929 . S
S1082 N1083 1.613 . S
S1082 N1084 1.610 . S
N1083 S1082 1.613 . S
N1083 C1086 1.350 . S
N1084 S1082 1.610 . S
N1084 C1085 1.351 . S
C1085 C1079 1.428 . S
C1085 N1084 1.351 . S
C1085 C1086 1.434 . S
C1086 C1077 1.429 . S
C1086 N1083 1.350 . S
C1086 C1085 1.434 . S
C1087 C1088 1.369 . S
C1087 C1089 1.419 . S
C1087 H1091 0.930 . S
C1088 C1087 1.369 . S
C1088 C1097 1.429 . S
C1089 C1087 1.419 . S
C1089 C1090 1.363 . S
C1089 H1092 0.929 . S
C1090 C1089 1.363 . S
C1090 C1096 1.428 . S
H1091 C1087 0.930 . S
H1092 C1089 0.929 . S
S1093 N1094 1.613 . S
S1093 N1095 1.610 . S
N1094 S1093 1.613 . S
N1094 C1097 1.350 . S
N1095 S1093 1.610 . S
N1095 C1096 1.351 . S
C1096 C1090 1.428 . S
C1096 N1095 1.351 . S
C1096 C1097 1.434 . S
C1097 C1088 1.429 . S
C1097 N1094 1.350 . S
C1097 C1096 1.434 . S
C1098 C1099 1.369 . S
C1098 C1100 1.419 . S
C1098 H1102 0.930 . S
C1099 C1098 1.369 . S
C1099 C1108 1.429 . S
C1100 C1098 1.419 . S
C1100 C1101 1.363 . S
C1100 H1103 0.929 . S
C1101 C1100 1.363 . S
C1101 C1107 1.428 . S
H1102 C1098 0.930 . S
H1103 C1100 0.929 . S
S1104 N1105 1.613 . S
S1104 N1106 1.610 . S
N1105 S1104 1.613 . S
N1105 C1108 1.350 . S
N1106 S1104 1.610 . S
N1106 C1107 1.351 . S
C1107 C1101 1.428 . S
C1107 N1106 1.351 . S
C1107 C1108 1.434 . S
C1108 C1099 1.429 . S
C1108 N1105 1.350 . S
C1108 C1107 1.434 . S
C1109 C1110 1.369 . S
C1109 C1111 1.419 . S
C1109 H1113 0.930 . S
C1110 C1109 1.369 . S
C1110 C1119 1.429 . S
C1111 C1109 1.419 . S
C1111 C1112 1.363 . S
C1111 H1114 0.929 . S
C1112 C1111 1.363 . S
C1112 C1118 1.428 . S
H1113 C1109 0.930 . S
H1114 C1111 0.929 . S
S1115 N1116 1.613 . S
S1115 N1117 1.610 . S
N1116 S1115 1.613 . S
N1116 C1119 1.350 . S
N1117 S1115 1.610 . S
N1117 C1118 1.351 . S
C1118 C1112 1.428 . S
C1118 N1117 1.351 . S
C1118 C1119 1.434 . S
C1119 C1110 1.429 . S
C1119 N1116 1.350 . S
C1119 C1118 1.434 . S
C1120 C1121 1.369 . S
C1120 C1122 1.419 . S
C1120 H1124 0.930 . S
C1121 C1120 1.369 . S
C1121 C1130 1.429 . S
C1122 C1120 1.419 . S
C1122 C1123 1.363 . S
C1122 H1125 0.929 . S
C1123 C1122 1.363 . S
C1123 C1129 1.428 . S
H1124 C1120 0.930 . S
H1125 C1122 0.929 . S
S1126 N1127 1.613 . S
S1126 N1128 1.610 . S
N1127 S1126 1.613 . S
N1127 C1130 1.350 . S
N1128 S1126 1.610 . S
N1128 C1129 1.351 . S
C1129 C1123 1.428 . S
C1129 N1128 1.351 . S
C1129 C1130 1.434 . S
C1130 C1121 1.429 . S
C1130 N1127 1.350 . S
C1130 C1129 1.434 . S
C1131 C1132 1.369 . S
C1131 C1133 1.419 . S
C1131 H1135 0.930 . S
C1132 C1131 1.369 . S
C1132 C1141 1.429 . S
C1133 C1131 1.419 . S
C1133 C1134 1.363 . S
C1133 H1136 0.929 . S
C1134 C1133 1.363 . S
C1134 C1140 1.428 . S
H1135 C1131 0.930 . S
H1136 C1133 0.929 . S
S1137 N1138 1.613 . S
S1137 N1139 1.610 . S
N1138 S1137 1.613 . S
N1138 C1141 1.350 . S
N1139 S1137 1.610 . S
N1139 C1140 1.351 . S
C1140 C1134 1.428 . S
C1140 N1139 1.351 . S
C1140 C1141 1.434 . S
C1141 C1132 1.429 . S
C1141 N1138 1.350 . S
C1141 C1140 1.434 . S
C1142 C1143 1.369 . S
C1142 C1144 1.419 . S
C1142 H1146 0.930 . S
C1143 C1142 1.369 . S
C1143 C1152 1.429 . S
C1144 C1142 1.419 . S
C1144 C1145 1.363 . S
C1144 H1147 0.929 . S
C1145 C1144 1.363 . S
C1145 C1151 1.428 . S
H1146 C1142 0.930 . S
H1147 C1144 0.929 . S
S1148 N1149 1.613 . S
S1148 N1150 1.610 . S
N1149 S1148 1.613 . S
N1149 C1152 1.350 . S
N1150 S1148 1.610 . S
N1150 C1151 1.351 . S
C1151 C1145 1.428 . S
C1151 N1150 1.351 . S
C1151 C1152 1.434 . S
C1152 C1143 1.429 . S
C1152 N1149 1.350 . S
C1152 C1151 1.434 . S
C1153 C1154 1.369 . S
C1153 C1155 1.419 . S
C1153 H1157 0.930 . S
C1154 C1153 1.369 . S
C1154 C1163 1.429 . S
C1155 C1153 1.419 . S
C1155 C1156 1.363 . S
C1155 H1158 0.929 . S
C1156 C1155 1.363 . S
C1156 C1162 1.428 . S
H1157 C1153 0.930 . S
H1158 C1155 0.929 . S
S1159 N1160 1.613 . S
S1159 N1161 1.610 . S
N1160 S1159 1.613 . S
N1160 C1163 1.350 . S
N1161 S1159 1.610 . S
N1161 C1162 1.351 . S
C1162 C1156 1.428 . S
C1162 N1161 1.351 . S
C1162 C1163 1.434 . S
C1163 C1154 1.429 . S
C1163 N1160 1.350 . S
C1163 C1162 1.434 . S
C1164 C1165 1.369 . S
C1164 C1166 1.419 . S
C1164 H1168 0.930 . S
C1165 C1164 1.369 . S
C1165 C1174 1.429 . S
C1166 C1164 1.419 . S
C1166 C1167 1.363 . S
C1166 H1169 0.929 . S
C1167 C1166 1.363 . S
C1167 C1173 1.428 . S
H1168 C1164 0.930 . S
H1169 C1166 0.929 . S
S1170 N1171 1.613 . S
S1170 N1172 1.610 . S
N1171 S1170 1.613 . S
N1171 C1174 1.350 . S
N1172 S1170 1.610 . S
N1172 C1173 1.351 . S
C1173 C1167 1.428 . S
C1173 N1172 1.351 . S
C1173 C1174 1.434 . S
C1174 C1165 1.429 . S
C1174 N1171 1.350 . S
C1174 C1173 1.434 . S
C1175 C1176 1.369 . S
C1175 C1177 1.419 . S
C1175 H1179 0.930 . S
C1176 C1175 1.369 . S
C1176 C1185 1.429 . S
C1177 C1175 1.419 . S
C1177 C1178 1.363 . S
C1177 H1180 0.929 . S
C1178 C1177 1.363 . S
C1178 C1184 1.428 . S
H1179 C1175 0.930 . S
H1180 C1177 0.929 . S
S1181 N1182 1.613 . S
S1181 N1183 1.610 . S
N1182 S1181 1.613 . S
N1182 C1185 1.350 . S
N1183 S1181 1.610 . S
N1183 C1184 1.351 . S
C1184 C1178 1.428 . S
C1184 N1183 1.351 . S
C1184 C1185 1.434 . S
C1185 C1176 1.429 . S
C1185 N1182 1.350 . S
C1185 C1184 1.434 . S
C1186 C1187 1.369 . S
C1186 C1188 1.419 . S
C1186 H1190 0.930 . S
C1187 C1186 1.369 . S
C1187 C1196 1.429 . S
C1188 C1186 1.419 . S
C1188 C1189 1.363 . S
C1188 H1191 0.929 . S
C1189 C1188 1.363 . S
C1189 C1195 1.428 . S
H1190 C1186 0.930 . S
H1191 C1188 0.929 . S
S1192 N1193 1.613 . S
S1192 N1194 1.610 . S
N1193 S1192 1.613 . S
N1193 C1196 1.350 . S
N1194 S1192 1.610 . S
N1194 C1195 1.351 . S
C1195 C1189 1.428 . S
C1195 N1194 1.351 . S
C1195 C1196 1.434 . S
C1196 C1187 1.429 . S
C1196 N1193 1.350 . S
C1196 C1195 1.434 . S
C1197 C1198 1.369 . S
C1197 C1199 1.419 . S
C1197 H1201 0.930 . S
C1198 C1197 1.369 . S
C1198 C1207 1.429 . S
C1199 C1197 1.419 . S
C1199 C1200 1.363 . S
C1199 H1202 0.929 . S
C1200 C1199 1.363 . S
C1200 C1206 1.428 . S
H1201 C1197 0.930 . S
H1202 C1199 0.929 . S
S1203 N1204 1.613 . S
S1203 N1205 1.610 . S
N1204 S1203 1.613 . S
N1204 C1207 1.350 . S
N1205 S1203 1.610 . S
N1205 C1206 1.351 . S
C1206 C1200 1.428 . S
C1206 N1205 1.351 . S
C1206 C1207 1.434 . S
C1207 C1198 1.429 . S
C1207 N1204 1.350 . S
C1207 C1206 1.434 . S
C1208 C1209 1.369 . S
C1208 C1210 1.419 . S
C1208 H1212 0.930 . S
C1209 C1208 1.369 . S
C1209 C1218 1.429 . S
C1210 C1208 1.419 . S
C1210 C1211 1.363 . S
C1210 H1213 0.929 . S
C1211 C1210 1.363 . S
C1211 C1217 1.428 . S
H1212 C1208 0.930 . S
H1213 C1210 0.929 . S
S1214 N1215 1.613 . S
S1214 N1216 1.610 . S
N1215 S1214 1.613 . S
N1215 C1218 1.350 . S
N1216 S1214 1.610 . S
N1216 C1217 1.351 . S
C1217 C1211 1.428 . S
C1217 N1216 1.351 . S
C1217 C1218 1.434 . S
C1218 C1209 1.429 . S
C1218 N1215 1.350 . S
C1218 C1217 1.434 . S
C1219 C1220 1.369 . S
C1219 C1221 1.419 . S
C1219 H1223 0.930 . S
C1220 C1219 1.369 . S
C1220 C1229 1.429 . S
C1221 C1219 1.419 . S
C1221 C1222 1.363 . S
C1221 H1224 0.929 . S
C1222 C1221 1.363 . S
C1222 C1228 1.428 . S
H1223 C1219 0.930 . S
H1224 C1221 0.929 . S
S1225 N1226 1.613 . S
S1225 N1227 1.610 . S
N1226 S1225 1.613 . S
N1226 C1229 1.350 . S
N1227 S1225 1.610 . S
N1227 C1228 1.351 . S
C1228 C1222 1.428 . S
C1228 N1227 1.351 . S
C1228 C1229 1.434 . S
C1229 C1220 1.429 . S
C1229 N1226 1.350 . S
C1229 C1228 1.434 . S
C1230 C1231 1.369 . S
C1230 C1232 1.434 . S
C1230 H1234 0.930 . S
C1231 C1230 1.369 . S
C1231 C1240 1.429 1_455 S
C1232 C1230 1.434 . S
C1232 C1233 1.353 1_455 S
C1232 H1235 0.924 . S
C1233 C1232 1.353 1_655 S
C1233 C1239 1.428 . S
H1234 C1230 0.930 . S
H1235 C1232 0.924 . S
S1236 N1237 1.613 . S
S1236 N1238 1.610 . S
N1237 S1236 1.613 . S
N1237 C1240 1.350 . S
N1238 S1236 1.610 . S
N1238 C1239 1.351 . S
C1239 C1233 1.428 . S
C1239 N1238 1.351 . S
C1239 C1240 1.434 . S
C1240 C1231 1.429 1_655 S
C1240 N1237 1.350 . S
C1240 C1239 1.434 . S
C1241 C1242 1.369 . S
C1241 C1243 1.419 . S
C1241 H1245 0.930 . S
C1242 C1241 1.369 . S
C1242 C1251 1.429 . S
C1243 C1241 1.419 . S
C1243 C1244 1.363 . S
C1243 H1246 0.929 . S
C1244 C1243 1.363 . S
C1244 C1250 1.428 . S
H1245 C1241 0.930 . S
H1246 C1243 0.929 . S
S1247 N1248 1.613 . S
S1247 N1249 1.610 . S
N1248 S1247 1.613 . S
N1248 C1251 1.350 . S
N1249 S1247 1.610 . S
N1249 C1250 1.351 . S
C1250 C1244 1.428 . S
C1250 N1249 1.351 . S
C1250 C1251 1.434 . S
C1251 C1242 1.429 . S
C1251 N1248 1.350 . S
C1251 C1250 1.434 . S
C1252 C1253 1.369 . S
C1252 C1254 1.439 . S
C1252 H1256 0.930 . S
C1253 C1252 1.369 . S
C1253 C1262 1.429 1_545 S
C1254 C1252 1.439 . S
C1254 C1255 1.331 1_545 S
C1254 H1257 0.943 . S
C1255 C1254 1.331 1_565 S
C1255 C1261 1.428 . S
H1256 C1252 0.930 . S
H1257 C1254 0.943 . S
S1258 N1259 1.613 . S
S1258 N1260 1.610 . S
N1259 S1258 1.613 . S
N1259 C1262 1.350 . S
N1260 S1258 1.610 . S
N1260 C1261 1.351 . S
C1261 C1255 1.428 . S
C1261 N1260 1.351 . S
C1261 C1262 1.434 . S
C1262 C1253 1.429 1_565 S
C1262 N1259 1.350 . S
C1262 C1261 1.434 . S
C1263 C1264 1.369 1_554 S
C1263 C1265 1.419 1_545 S
C1263 H1267 0.930 . S
C1264 C1263 1.369 1_556 S
C1264 C1273 1.429 . S
C1265 C1263 1.419 1_565 S
C1265 C1266 1.363 . S
C1265 H1268 0.929 . S
C1266 C1265 1.363 . S
C1266 C1272 1.428 1_554 S
H1267 C1263 0.930 . S
H1268 C1265 0.929 . S
S1269 N1270 1.613 1_565 S
S1269 N1271 1.610 . S
N1270 S1269 1.613 1_545 S
N1270 C1273 1.350 . S
N1271 S1269 1.610 . S
N1271 C1272 1.351 . S
C1272 C1266 1.428 1_556 S
C1272 N1271 1.351 . S
C1272 C1273 1.434 1_565 S
C1273 C1264 1.429 . S
C1273 N1270 1.350 . S
C1273 C1272 1.434 1_545 S
C1274 C1275 1.369 . S
C1274 C1276 1.419 1_656 S
C1274 H1278 0.930 . S
C1275 C1274 1.369 . S
C1275 C1284 1.429 . S
C1276 C1274 1.419 1_454 S
C1276 C1277 1.363 . S
C1276 H1279 0.929 . S
C1277 C1276 1.363 . S
C1277 C1283 1.428 . S
H1278 C1274 0.930 . S
H1279 C1276 0.929 . S
S1280 N1281 1.613 1_454 S
S1280 N1282 1.610 . S
N1281 S1280 1.613 1_656 S
N1281 C1284 1.350 . S
N1282 S1280 1.610 . S
N1282 C1283 1.351 . S
C1283 C1277 1.428 . S
C1283 N1282 1.351 . S
C1283 C1284 1.434 1_454 S
C1284 C1275 1.429 . S
C1284 N1281 1.350 . S
C1284 C1283 1.434 1_656 S
C1285 C1286 1.369 . S
C1285 C1287 1.419 . S
C1285 H1289 0.930 . S
C1286 C1285 1.369 . S
C1286 C1295 1.429 1_556 S
C1287 C1285 1.419 . S
C1287 C1288 1.363 1_556 S
C1287 H1290 0.929 . S
C1288 C1287 1.363 1_554 S
C1288 C1294 1.428 . S
H1289 C1285 0.930 . S
H1290 C1287 0.929 . S
S1291 N1292 1.613 . S
S1291 N1293 1.610 . S
N1292 S1291 1.613 . S
N1292 C1295 1.350 . S
N1293 S1291 1.610 . S
N1293 C1294 1.351 . S
C1294 C1288 1.428 . S
C1294 N1293 1.351 . S
C1294 C1295 1.434 . S
C1295 C1286 1.429 1_554 S
C1295 N1292 1.350 . S
C1295 C1294 1.434 . S
C505 C0 1.371 . S
C507 C103 1.366 1_545 S
C516 C14 1.374 . S
C518 C117 1.366 1_655 S
C527 C89 1.364 . S
C529 C28 1.373 . S
C538 C159 1.368 1_455 S
C540 C42 1.374 . S
C549 C56 1.372 . S
C551 C131 1.365 . S
C560 C70 1.373 . S
C562 C145 1.368 1_565 S
C571 C19 1.367 1_565 S
C573 C84 1.374 . S
C582 C33 1.364 1_455 S
C584 C98 1.372 . S
C593 C112 1.375 . S
C595 C5 1.369 . S
C604 C126 1.374 . S
C606 C75 1.366 1_655 S
C615 C47 1.368 . S
C617 C140 1.373 . S
C626 C154 1.374 . S
C628 C61 1.369 1_545 S
C637 C271 1.365 . S
C639 C168 1.373 . S
C648 C182 1.375 . S
C650 C285 1.368 . S
C659 C196 1.372 . S
C661 C257 1.365 . S
C670 C327 1.364 . S
C672 C210 1.372 . S
C681 C224 1.372 . S
C683 C299 1.365 . S
C692 C313 1.365 . S
C694 C238 1.373 . S
C703 C187 1.364 . S
C705 C252 1.372 . S
C714 C266 1.372 . S
C716 C201 1.365 . S
C725 C173 1.369 . S
C727 C280 1.375 . S
C736 C294 1.373 . S
C738 C243 1.368 . S
C747 C308 1.375 . S
C749 C215 1.368 . S
C758 C322 1.374 . S
C760 C229 1.368 . S
C769 C439 1.365 . S
C771 C336 1.372 . S
C780 C453 1.368 . S
C782 C350 1.374 . S
C791 C425 1.367 . S
C793 C364 1.374 . S
C802 C378 1.372 . S
C804 C495 1.367 . S
C813 C392 1.374 . S
C815 C467 1.366 . S
C824 C481 1.364 . S
C826 C406 1.373 . S
C835 C420 1.372 . S
C837 C355 1.368 . S
C846 C369 1.369 . S
C848 C434 1.374 . S
C857 C341 1.368 . S
C859 C448 1.374 . S
C868 C462 1.375 . S
C870 C411 1.368 . S
C879 C476 1.371 . S
C881 C383 1.365 . S
C890 C490 1.372 . S
C892 C397 1.367 . S
C901 C51 1.409 . S
C903 C9 1.406 . S
C912 C65 1.409 . S
C914 C23 1.411 . S
C923 C37 1.406 . S
C925 C79 1.410 . S
C934 C135 1.411 . S
C936 C93 1.410 . S
C945 C149 1.406 . S
C947 C107 1.410 . S
C956 C163 1.409 . S
C958 C121 1.407 . S
C967 C219 1.408 . S
C969 C177 1.406 . S
C978 C233 1.406 . S
C980 C191 1.409 . S
C989 C205 1.411 . S
C991 C247 1.408 . S
C1000 C303 1.410 . S
C1002 C261 1.410 . S
C1011 C317 1.409 . S
C1013 C275 1.406 . S
C1022 C331 1.408 . S
C1024 C289 1.410 . S
C1033 C387 1.410 . S
C1035 C345 1.407 . S
C1044 C359 1.408 . S
C1046 C401 1.411 . S
C1055 C415 1.411 . S
C1057 C373 1.408 . S
C1066 C429 1.411 . S
C1068 C471 1.408 . S
C1077 C443 1.411 . S
C1079 C485 1.410 . S
C1088 C457 1.409 . S
C1090 C499 1.411 . S
C1099 C11 1.472 . S
C1101 C263 1.469 . S
C1110 C277 1.468 . S
C1112 C25 1.471 . S
C1121 C291 1.470 . S
C1123 C39 1.470 . S
C1132 C473 1.470 . S
C1134 C53 1.469 . S
C1143 C487 1.471 . S
C1145 C67 1.469 . S
C1154 C501 1.468 . S
C1156 C81 1.471 . S
C1165 C95 1.472 . S
C1167 C347 1.469 . S
C1176 C361 1.468 . S
C1178 C109 1.471 . S
C1187 C375 1.472 . S
C1189 C123 1.469 . S
C1198 C137 1.471 . S
C1200 C221 1.469 . S
C1209 C151 1.472 . S
C1211 C235 1.469 . S
C1220 C165 1.471 . S
C1222 C249 1.469 . S
C1231 C431 1.470 . S
C1233 C179 1.469 . S
C1242 C445 1.470 . S
C1244 C193 1.470 . S
C1253 C207 1.472 . S
C1255 C459 1.468 . S
C1264 C305 1.472 . S
C1266 C389 1.469 . S
C1275 C319 1.469 . S
C1277 C403 1.470 . S
C1286 C333 1.469 . S
C1288 C417 1.471 . S
