# Generated by pormake.
# Topology fna, (5)-cn, num edge types: 1
# Building blocks:
#     Node 0, Type 0, BuildingBlock: BEQFEK_clean_sbu_0, # of connection points: 5
#     Node 1, Type 0, BuildingBlock: BEQFEK_clean_sbu_0, # of connection points: 5
#     Node 2, Type 0, BuildingBlock: BEQFEK_clean_sbu_0, # of connection points: 5
#     Node 3, Type 0, BuildingBlock: BEQFEK_clean_sbu_0, # of connection points: 5
#     Node 4, Type 0, BuildingBlock: BEQFEK_clean_sbu_0, # of connection points: 5
#     Node 5, Type 0, BuildingBlock: BEQFEK_clean_sbu_0, # of connection points: 5
#     Node 6, Type 0, BuildingBlock: BEQFEK_clean_sbu_0, # of connection points: 5
#     Node 7, Type 0, BuildingBlock: BEQFEK_clean_sbu_0, # of connection points: 5
#     Node 8, Type 0, BuildingBlock: BEQFEK_clean_sbu_0, # of connection points: 5
#     Node 9, Type 0, BuildingBlock: BEQFEK_clean_sbu_0, # of connection points: 5
#     Node 10, Type 0, BuildingBlock: BEQFEK_clean_sbu_0, # of connection points: 5
#     Node 11, Type 0, BuildingBlock: BEQFEK_clean_sbu_0, # of connection points: 5
#     Edge 12, Type (0, 0), BuildingBlock: AJUNOK_clean_linker_0, # of connection points: 2
#     Edge 13, Type (0, 0), BuildingBlock: AJUNOK_clean_linker_0, # of connection points: 2
#     Edge 14, Type (0, 0), BuildingBlock: AJUNOK_clean_linker_0, # of connection points: 2
#     Edge 15, Type (0, 0), BuildingBlock: AJUNOK_clean_linker_0, # of connection points: 2
#     Edge 16, Type (0, 0), BuildingBlock: AJUNOK_clean_linker_0, # of connection points: 2
#     Edge 17, Type (0, 0), BuildingBlock: AJUNOK_clean_linker_0, # of connection points: 2
#     Edge 18, Type (0, 0), BuildingBlock: AJUNOK_clean_linker_0, # of connection points: 2
#     Edge 19, Type (0, 0), BuildingBlock: AJUNOK_clean_linker_0, # of connection points: 2
#     Edge 20, Type (0, 0), BuildingBlock: AJUNOK_clean_linker_0, # of connection points: 2
#     Edge 21, Type (0, 0), BuildingBlock: AJUNOK_clean_linker_0, # of connection points: 2
#     Edge 22, Type (0, 0), BuildingBlock: AJUNOK_clean_linker_0, # of connection points: 2
#     Edge 23, Type (0, 0), BuildingBlock: AJUNOK_clean_linker_0, # of connection points: 2
#     Edge 24, Type (0, 0), BuildingBlock: AJUNOK_clean_linker_0, # of connection points: 2
#     Edge 25, Type (0, 0), BuildingBlock: AJUNOK_clean_linker_0, # of connection points: 2
#     Edge 26, Type (0, 0), BuildingBlock: AJUNOK_clean_linker_0, # of connection points: 2
#     Edge 27, Type (0, 0), BuildingBlock: AJUNOK_clean_linker_0, # of connection points: 2
#     Edge 28, Type (0, 0), BuildingBlock: AJUNOK_clean_linker_0, # of connection points: 2
#     Edge 29, Type (0, 0), BuildingBlock: AJUNOK_clean_linker_0, # of connection points: 2
#     Edge 30, Type (0, 0), BuildingBlock: AJUNOK_clean_linker_0, # of connection points: 2
#     Edge 31, Type (0, 0), BuildingBlock: AJUNOK_clean_linker_0, # of connection points: 2
#     Edge 32, Type (0, 0), BuildingBlock: AJUNOK_clean_linker_0, # of connection points: 2
#     Edge 33, Type (0, 0), BuildingBlock: AJUNOK_clean_linker_0, # of connection points: 2
#     Edge 34, Type (0, 0), BuildingBlock: AJUNOK_clean_linker_0, # of connection points: 2
#     Edge 35, Type (0, 0), BuildingBlock: AJUNOK_clean_linker_0, # of connection points: 2
#     Edge 36, Type (0, 0), BuildingBlock: AJUNOK_clean_linker_0, # of connection points: 2
#     Edge 37, Type (0, 0), BuildingBlock: AJUNOK_clean_linker_0, # of connection points: 2
#     Edge 38, Type (0, 0), BuildingBlock: AJUNOK_clean_linker_0, # of connection points: 2
#     Edge 39, Type (0, 0), BuildingBlock: AJUNOK_clean_linker_0, # of connection points: 2
#     Edge 40, Type (0, 0), BuildingBlock: AJUNOK_clean_linker_0, # of connection points: 2
#     Edge 41, Type (0, 0), BuildingBlock: AJUNOK_clean_linker_0, # of connection points: 2
# Relax obj value: 0.686
# Max RMSD: 0.274
# Mean RMSD: 0.274
data_MOF--net-fna--node1-BEQFEK_clean_sbu_0--edge1-AJUNOK_clean_linker_0
_symmetry_space_group_name_H-M    P1
_symmetry_Int_Tables_number       1
_symmetry_cell_setting            triclinic
loop_
_symmetry_equiv_pos_as_xyz
'x, y, z'
_cell_length_a     33.46361
_cell_length_b     33.612947
_cell_length_c     32.638373
_cell_angle_alpha  90.151587
_cell_angle_beta   89.83142
_cell_angle_gamma 120.11077
loop_
_atom_site_label
_atom_site_type_symbol
_atom_site_fract_x
_atom_site_fract_y
_atom_site_fract_z
_atom_type_partial_charge
Co0 Co 0.38366 0.37732 0.49369 0.0
Co1 Co 0.36105 0.32357 0.41141 0.0
C2 C 0.44683 0.41543 0.42281 0.0
O3 O 0.43575 0.41678 0.45957 0.0
O4 O 0.42075 0.38206 0.39923 0.0
C5 C 0.44249 0.41886 0.55968 0.0
O6 O 0.46998 0.41012 0.53744 0.0
C7 C 0.37344 0.27167 0.34456 0.0
C8 C 0.30122 0.21935 0.33111 0.0
C9 C 0.3465 0.23134 0.32237 0.0
N10 N 0.34533 0.28158 0.36634 0.0
N11 N 0.30218 0.25096 0.3571 0.0
C12 C 0.42505 0.30031 0.34585 0.0
H13 H 0.43559 0.33712 0.34272 0.0
H14 H 0.43775 0.296 0.37593 0.0
H15 H 0.44127 0.29096 0.32075 0.0
C16 C 0.37156 0.29051 0.52652 0.0
N17 N 0.37373 0.31721 0.49499 0.0
N18 N 0.366 0.29427 0.46041 0.0
C19 C 0.35959 0.25208 0.46908 0.0
C20 C 0.3633 0.24859 0.51124 0.0
C21 C 0.37262 0.30315 0.5707 0.0
H22 H 0.35543 0.32378 0.57481 0.0
H23 H 0.40902 0.32402 0.58075 0.0
H24 H 0.35516 0.27208 0.59033 0.0
O25 O 0.32734 0.37634 0.47663 0.0
O26 O 0.30858 0.33627 0.41878 0.0
H27 H 0.31785 0.20614 0.42164 0.0
H28 H 0.34865 0.18499 0.4516 0.0
C29 C 0.35066 0.21602 0.43773 0.0
H30 H 0.379 0.23015 0.41497 0.0
H31 H 0.27337 0.24982 0.3707 0.0
O32 O 0.40193 0.40609 0.54716 0.0
C33 C 0.30012 0.35797 0.44648 0.0
Co34 Co 1.00044 0.35783 0.64627 0.0
Co35 Co 0.03447 0.33802 0.56539 0.0
C36 C 0.02557 0.42298 0.57942 0.0
O37 O 1.01253 0.41109 0.61591 0.0
O38 O 0.03334 0.3975 0.55532 0.0
C39 C 0.98323 0.40037 0.71623 0.0
O40 O 0.98909 0.43487 0.69317 0.0
C41 C 0.10415 0.35642 0.50201 0.0
C42 C 0.08367 0.28619 0.48144 0.0
C43 C 0.11856 0.33169 0.47778 0.0
N44 N 0.0638 0.32671 0.51996 0.0
N45 N 0.0511 0.28491 0.50657 0.0
C46 C 0.12799 0.4074 0.50842 0.0
H47 H 0.10255 0.41919 0.50553 0.0
H48 H 0.14229 0.416 0.53988 0.0
H49 H 0.15598 0.426 0.48565 0.0
C50 C 0.08054 0.35521 0.67978 0.0
N51 N 0.05344 0.35209 0.64815 0.0
N52 N 0.06911 0.34363 0.6142 0.0
C53 C 0.10671 0.34023 0.6236 0.0
C54 C 0.11543 0.34818 0.66539 0.0
C55 C 0.07134 0.362 0.72341 0.0
H56 H 0.03615 0.33445 0.73184 0.0
H57 H 0.07283 0.39559 0.72659 0.0
H58 H 0.09625 0.36066 0.74487 0.0
O59 O 0.94625 0.30139 0.62771 0.0
O60 O 0.97088 0.28192 0.57218 0.0
H61 H 0.11033 0.3012 0.57319 0.0
H62 H 0.15785 0.32087 0.6088 0.0
C63 C 0.134 0.32992 0.5934 0.0
H64 H 0.15491 0.3607 0.57431 0.0
H65 H 0.02175 0.25517 0.51671 0.0
O66 O 0.98641 0.36749 0.70077 0.0
C67 C 0.93953 0.27357 0.59871 0.0
Co68 Co 0.63078 1.00147 0.82905 0.0
Co69 Co 0.69254 0.03477 0.75068 0.0
C70 C 0.60527 0.03908 0.75808 0.0
O71 O 0.59923 0.02239 0.79367 0.0
O72 O 0.63939 0.04493 0.73608 0.0
C73 C 0.59072 0.02216 0.89405 0.0
O74 O 0.60629 0.06019 0.87273 0.0
C75 C 0.75639 0.10152 0.68934 0.0
C76 C 0.78442 0.06175 0.65934 0.0
C77 C 0.78735 0.10443 0.65892 0.0
N78 N 0.73668 0.05941 0.70644 0.0
N79 N 0.75319 0.03567 0.68793 0.0
C80 C 0.74756 0.13847 0.70452 0.0
H81 H 0.7325 0.13024 0.7358 0.0
H82 H 0.7799 0.17236 0.70449 0.0
H83 H 0.72188 0.1402 0.68435 0.0
C84 C 0.71773 0.06558 0.86957 0.0
N85 N 0.69336 0.04601 0.83539 0.0
N86 N 0.72035 0.06282 0.80299 0.0
C87 C 0.76303 0.09487 0.81615 0.0
C88 C 0.76229 0.09771 0.85878 0.0
C89 C 0.69977 0.05228 0.91238 0.0
H90 H 0.67418 0.01505 0.91405 0.0
H91 H 0.68331 0.07233 0.92198 0.0
H92 H 0.72833 0.06018 0.93406 0.0
O93 O 0.62625 0.94481 0.80957 0.0
O94 O 0.67123 0.96658 0.75453 0.0
H95 H 0.80355 0.10229 0.76254 0.0
H96 H 0.83649 0.13739 0.80549 0.0
C97 C 0.80338 0.12321 0.78873 0.0
H98 H 0.80072 0.15266 0.77691 0.0
H99 H 0.74384 1.00194 0.6954 0.0
O100 O 0.59787 0.99063 0.881 0.0
C101 C 0.64482 0.9354 0.77993 0.0
Co102 Co 0.65024 0.65211 -0.02003 0.0
Co103 Co 0.66978 0.69496 0.89342 0.0
C104 C 0.58695 0.5993 0.91466 0.0
O105 O 0.59941 0.60319 0.9517 0.0
O106 O 0.61036 0.63149 0.88877 0.0
C107 C 0.61884 0.60137 0.0562 0.0
O108 O 0.59511 0.56339 0.035 0.0
C109 C 0.64569 0.738 0.82815 0.0
C110 C 0.71438 0.79182 0.80709 0.0
C111 C 0.66779 0.77821 0.8048 0.0
N112 N 0.67785 0.73029 0.84488 0.0
N113 N 0.71876 0.76164 0.83093 0.0
C114 C 0.59498 0.70589 0.83383 0.0
H115 H 0.58722 0.67009 0.82859 0.0
H116 H 0.58514 0.70784 0.86597 0.0
H117 H 0.5743 0.71352 0.81205 0.0
C118 C 0.64287 0.73395 -0.00026 0.0
N119 N 0.64961 0.70736 0.97292 0.0
N120 N 0.66505 0.72965 0.9382 0.0
C121 C 0.67245 0.77288 0.9434 0.0
C122 C 0.65819 0.77649 -0.01749 0.0
C123 C 0.61909 0.71888 0.04023 0.0
H124 H 0.60249 0.68125 0.04433 0.0
H125 H 0.59206 0.72872 0.04252 0.0
H126 H 0.6443 0.73782 0.06482 0.0
O127 O 0.70953 0.65734 0.96371 0.0
O128 O 0.72632 0.68963 0.9021 0.0
H129 H 0.72593 0.80983 0.89931 0.0
H130 H 0.70926 0.84518 0.92844 0.0
C131 C 0.69653 0.81126 0.91343 0.0
H132 H 0.67207 0.80762 0.88909 0.0
H133 H 0.74996 0.76496 0.8407 0.0
O134 O 0.64383 0.63905 0.03784 0.0
C135 C 0.73627 0.67293 0.93288 0.0
Co136 Co 0.01868 0.65056 0.15094 0.0
Co137 Co 0.98917 0.67621 0.07102 0.0
C138 C 0.99471 0.58782 0.08356 0.0
O139 O 1.00844 0.59922 0.11992 0.0
O140 O 0.98657 0.61397 0.06067 0.0
C141 C 0.04898 0.61932 0.22147 0.0
O142 O 0.05902 0.59311 0.19887 0.0
C143 C 0.91701 0.66587 0.0125 0.0
C144 C 0.95522 0.72797 0.97449 0.0
C145 C 0.91126 0.6905 -0.01935 0.0
N146 N 0.96149 0.6886 0.02465 0.0
N147 N 0.98424 0.72524 0.00123 0.0
C148 C 0.88117 0.62277 0.03299 0.0
H149 H 0.89498 0.61624 0.06144 0.0
H150 H 0.84996 0.62501 0.04023 0.0
H151 H 0.87117 0.59319 0.01207 0.0
C152 C 0.93855 0.65183 0.18416 0.0
N153 N 0.96619 0.65638 0.15247 0.0
N154 N 0.95539 0.67264 0.12041 0.0
C155 C 0.92193 0.6819 0.132 0.0
C156 C 0.91005 0.66833 0.17258 0.0
C157 C 0.94049 0.63345 0.22538 0.0
H158 H 0.94671 0.60416 0.22195 0.0
H159 H 0.90816 0.622 0.243 0.0
H160 H 0.96922 0.66108 0.24303 0.0
O161 O 0.07273 0.70684 0.13413 0.0
O162 O 0.05467 0.73039 0.07768 0.0
H163 H 0.89911 0.7308 0.12475 0.0
H164 H 0.8685 0.67972 0.09479 0.0
C165 C 0.90326 0.70544 0.1061 0.0
H166 H 0.9265 0.72321 0.07987 0.0
H167 H 0.01929 0.74928 0.00446 0.0
O168 O 0.03222 0.64192 0.20543 0.0
C169 C 0.08348 0.73632 0.10596 0.0
Co170 Co 0.39676 0.01823 0.33522 0.0
Co171 Co 0.33162 0.97851 0.2592 0.0
C172 C 0.42319 0.98237 0.26272 0.0
O173 O 0.42983 0.99987 0.29816 0.0
O174 O 0.3872 0.97336 0.24213 0.0
C175 C 0.44087 1.00312 0.40018 0.0
O176 O 0.4293 0.96593 0.37855 0.0
C177 C 0.27227 0.91525 0.19246 0.0
C178 C 0.21878 0.93509 0.18804 0.0
C179 C 0.23121 0.90445 0.17234 0.0
N180 N 0.28284 0.95 0.21897 0.0
N181 N 0.25101 0.96205 0.21556 0.0
C182 C 0.3018 0.89396 0.18604 0.0
H183 H 0.33865 0.92113 0.18508 0.0
H184 H 0.29699 0.87088 0.21215 0.0
H185 H 0.2932 0.87427 0.15693 0.0
C186 C 0.31321 0.95003 0.37856 0.0
N187 N 0.33602 0.97005 0.34375 0.0
N188 N 0.30891 0.95023 0.31205 0.0
C189 C 0.26819 0.91542 0.32597 0.0
C190 C 0.26987 0.91404 0.36865 0.0
C191 C 0.33037 0.96828 0.42071 0.0
H192 H 0.35268 1.00622 0.41997 0.0
H193 H 0.35065 0.95303 0.43253 0.0
H194 H 0.30114 0.95903 0.44209 0.0
O195 O 0.39546 0.07218 0.31619 0.0
O196 O 0.34734 0.04509 0.26347 0.0
H197 H 0.21149 0.90213 0.28731 0.0
H198 H 0.20343 0.85251 0.31565 0.0
C199 C 0.22894 0.88376 0.29892 0.0
H200 H 0.24233 0.87354 0.27221 0.0
H201 H 0.25052 0.98792 0.233 0.0
O202 O 0.43097 0.03247 0.38652 0.0
C203 C 0.3731 0.078 0.2877 0.0
Co204 Co 0.6487 0.65145 0.30418 0.0
Co205 Co 0.70226 0.67197 0.38591 0.0
C206 C 0.60693 0.5874 0.37225 0.0
O207 O 0.60703 0.60035 0.33602 0.0
O208 O 0.64103 0.61142 0.39624 0.0
C209 C 0.59841 0.60389 0.23157 0.0
O210 O 0.58303 0.56515 0.25173 0.0
C211 C 0.75658 0.65623 0.44847 0.0
C212 C 0.80191 0.7266 0.47167 0.0
C213 C 0.79433 0.68214 0.47407 0.0
N214 N 0.74366 0.68437 0.43121 0.0
N215 N 0.77026 0.72619 0.44602 0.0
C216 C 0.73267 0.60553 0.44047 0.0
H217 H 0.69477 0.59132 0.43989 0.0
H218 H 0.7429 0.59901 0.40996 0.0
H219 H 0.74114 0.58749 0.46434 0.0
C220 C 0.73224 0.65619 0.2709 0.0
N221 N 0.70734 0.65736 0.30277 0.0
N222 N 0.73195 0.66746 0.33655 0.0
C223 C 0.77427 0.67412 0.32658 0.0
C224 C 0.77528 0.66666 0.2847 0.0
C225 C 0.7164 0.64879 0.22733 0.0
H226 H 0.70675 0.67475 0.21925 0.0
H227 H 0.68579 0.61398 0.22398 0.0
H228 H 0.74358 0.65233 0.20567 0.0
O229 O 0.65234 0.70768 0.32235 0.0
O230 O 0.69336 0.72746 0.37955 0.0
H231 H 0.81582 0.71603 0.37637 0.0
H232 H 0.84665 0.70078 0.33968 0.0
C233 C 0.81336 0.68847 0.35598 0.0
H234 H 0.80695 0.65867 0.37507 0.0
H235 H 0.76852 0.75501 0.43687 0.0
O236 O 0.62419 0.64167 0.2496 0.0
C237 C 0.67163 0.73558 0.35167 0.0
Co238 Co 0.02102 0.64735 0.47174 0.0
Co239 Co 0.03883 0.68587 0.55997 0.0
C240 C 0.0305 0.59326 0.53609 0.0
O241 O 0.02349 0.59895 0.4992 0.0
O242 O 0.03747 0.6238 0.56315 0.0
C243 C 0.02712 0.60728 0.39639 0.0
O244 O 0.04208 0.58474 0.4183 0.0
C245 C 0.10713 0.73727 0.62376 0.0
C246 C 0.06986 0.76125 0.66327 0.0
C247 C 0.1132 0.76613 0.65695 0.0
N248 N 0.063 0.71763 0.61098 0.0
N249 N 0.04061 0.73114 0.63549 0.0
C250 C 0.1432 0.73161 0.60147 0.0
H251 H 0.13058 0.71556 0.57105 0.0
H252 H 0.17557 0.76511 0.59798 0.0
H253 H 0.15088 0.70816 0.61922 0.0
C254 C 0.10709 0.73422 0.45511 0.0
N255 N 0.07446 0.70439 0.48095 0.0
N256 N 0.0784 0.7247 0.51641 0.0
C257 C 0.11166 0.76956 0.51278 0.0
C258 C 0.13079 0.77645 0.47385 0.0
C259 C 0.11751 0.72314 0.41349 0.0
H260 H 0.1039 0.73707 0.39018 0.0
H261 H 0.10314 0.68583 0.40963 0.0
H262 H 0.15544 0.74047 0.40872 0.0
O263 O 0.96549 0.64954 0.48702 0.0
O264 O 0.97495 0.67645 0.55046 0.0
H265 H 0.0938 0.79504 0.56632 0.0
H266 H 0.129 0.83831 0.52885 0.0
C267 C 0.12256 0.80613 0.54411 0.0
H268 H 0.15466 0.81397 0.5605 0.0
H269 H 1.00615 0.72224 0.63152 0.0
O270 O 1.01542 0.63358 0.41394 0.0
C271 C 0.95065 0.66139 0.51794 0.0
Co272 Co 0.36877 0.99148 0.63519 0.0
Co273 Co 0.34758 0.02925 0.7146 0.0
C274 C 0.43566 0.02745 0.70423 0.0
O275 O 0.42138 1.00821 0.66989 0.0
O276 O 0.41073 0.03788 0.72625 0.0
C277 C 0.43076 1.0089 0.57212 0.0
O278 O 0.45564 0.04516 0.59518 0.0
C279 C 0.35754 0.10051 0.77324 0.0
C280 C 0.29206 0.06452 0.80766 0.0
C281 C 0.33199 0.10712 0.80386 0.0
N282 N 0.33308 0.05695 0.75945 0.0
N283 N 0.29438 0.03539 0.78076 0.0
C284 C 0.40319 0.13487 0.75518 0.0
H285 H 0.40968 0.12156 0.72627 0.0
H286 H 0.40444 0.16792 0.74911 0.0
H287 H 0.43106 0.14122 0.77711 0.0
C288 C 0.35466 0.06347 0.59691 0.0
N289 N 0.35641 0.04055 0.63007 0.0
N290 N 0.34753 0.05731 0.66324 0.0
C291 C 0.33961 0.09139 0.65171 0.0
C292 C 0.34451 0.09663 0.60959 0.0
C293 C 0.36358 0.05476 0.55379 0.0
H294 H 0.40137 0.07248 0.54851 0.0
H295 H 0.34848 0.06838 0.53147 0.0
H296 H 0.34873 0.01739 0.54851 0.0
O297 O 0.31374 0.93583 0.65517 0.0
O298 O 0.29718 0.96257 0.71135 0.0
H299 H 0.30345 0.12827 0.66246 0.0
H300 H 0.35596 0.14875 0.69051 0.0
C301 C 0.32497 0.11726 0.67943 0.0
H302 H 0.30493 0.09569 0.70572 0.0
H303 H 0.26891 1.00118 0.77605 0.0
O304 O 0.38966 0.97992 0.58285 0.0
C305 C 0.28832 0.92991 0.68626 0.0
Co306 Co 0.38435 0.36897 0.79586 0.0
Co307 Co 0.3245 0.3497 0.87473 0.0
C308 C 0.41899 0.43313 0.86634 0.0
O309 O 0.42256 0.42061 0.83068 0.0
O310 O 0.38354 0.4087 0.88859 0.0
C311 C 0.43493 0.42678 0.73141 0.0
O312 O 0.43146 0.45718 0.75416 0.0
C313 C 0.26694 0.36362 0.93601 0.0
C314 C 0.22042 0.29238 0.9566 0.0
C315 C 0.22864 0.33692 0.96078 0.0
N316 N 0.27985 0.33588 0.91762 0.0
N317 N 0.2524 0.2935 0.93078 0.0
C318 C 0.29177 0.41473 0.93047 0.0
H319 H 0.32959 0.42851 0.93106 0.0
H320 H 0.28318 0.42324 0.90017 0.0
H321 H 0.28244 0.43164 0.95492 0.0
C322 C 0.3009 0.3606 0.75678 0.0
N323 N 0.32489 0.36162 0.79023 0.0
N324 N 0.29938 0.35461 0.82322 0.0
C325 C 0.25812 0.349 0.81142 0.0
C326 C 0.2581 0.3529 0.76909 0.0
C327 C 0.31832 0.36637 0.7137 0.0
H328 H 0.33665 0.3469 0.70909 0.0
H329 H 0.3429 0.40329 0.70806 0.0
H330 H 0.28975 0.35447 0.69121 0.0
O331 O 0.37977 0.31172 0.81543 0.0
O332 O 0.33451 0.29553 0.87019 0.0
H333 H 0.21312 0.30915 0.86039 0.0
H334 H 0.18593 0.32616 0.82187 0.0
C335 C 0.21821 0.33716 0.8394 0.0
H336 H 0.22552 0.3677 0.85793 0.0
H337 H 0.25423 0.26493 0.92076 0.0
O338 O 0.41658 0.38538 0.74348 0.0
C339 C 0.35744 0.2854 0.84511 0.0
Co340 Co 1.00138 0.37 0.96761 0.0
Co341 Co 0.98502 0.32704 0.05341 0.0
C342 C 0.98555 0.41739 0.03303 0.0
O343 O 0.99436 0.41557 -0.00434 0.0
O344 O 0.98207 0.38675 0.05849 0.0
C345 C 1.00856 0.41653 0.89112 0.0
O346 O 1.01159 0.45159 0.91166 0.0
C347 C 0.91752 0.27235 0.1165 0.0
C348 C 0.95557 0.24758 0.15369 0.0
C349 C 0.91214 0.24271 0.14861 0.0
N350 N 0.96155 0.29287 0.10327 0.0
N351 N 0.9844 0.27876 0.12632 0.0
C352 C 0.88075 0.27763 0.09534 0.0
H353 H 0.89271 0.29391 0.06493 0.0
H354 H 0.84859 0.2439 0.09202 0.0
H355 H 0.87296 0.30065 0.1138 0.0
C356 C 0.91556 0.28367 0.94971 0.0
N357 N 0.94906 0.31195 0.97558 0.0
N358 N 0.94701 0.28945 0.00907 0.0
C359 C 0.9148 0.24458 0.00359 0.0
C360 C 0.89369 0.23996 0.96588 0.0
C361 C 0.90168 0.2981 0.91152 0.0
H362 H 0.90375 0.27852 0.88505 0.0
H363 H 0.92246 0.33556 0.90652 0.0
H364 H 0.86499 0.28897 0.91417 0.0
O365 O 0.05857 0.37026 -0.01809 0.0
O366 O 0.04958 0.33957 0.04353 0.0
H367 H 0.93417 0.21732 0.05458 0.0
H368 H 0.89884 0.17544 0.01608 0.0
C369 C 0.90501 0.2067 0.033 0.0
H370 H 0.87308 0.19767 0.05043 0.0
H371 H 0.01891 0.28817 0.12164 0.0
O372 O 1.00653 0.38278 0.91006 0.0
C373 C 0.07401 0.35737 0.01148 0.0
Co374 Co 0.65223 0.02664 0.12743 0.0
Co375 Co 0.67319 0.98044 0.20096 0.0
C376 C 0.58837 0.98895 0.19961 0.0
O377 O 0.60168 1.00949 0.16558 0.0
O378 O 0.61273 0.97545 0.21868 0.0
C379 C 0.59016 0.01597 0.06632 0.0
O380 O 0.5631 0.98056 0.08942 0.0
C381 C 0.66952 0.9178 0.26786 0.0
C382 C 0.74095 0.9307 0.26571 0.0
C383 C 0.69898 0.90449 0.28546 0.0
N384 N 0.69302 0.94986 0.23899 0.0
N385 N 0.73586 0.95777 0.23842 0.0
C386 C 0.62055 0.90212 0.2793 0.0
H387 H 0.61623 0.93251 0.28243 0.0
H388 H 0.59729 0.88005 0.25452 0.0
H389 H 0.6108 0.88313 0.30875 0.0
C390 C 0.66044 0.95535 0.08107 0.0
N391 N 0.66076 0.9761 0.11653 0.0
N392 N 0.66614 0.95405 0.14734 0.0
C393 C 0.66782 0.91741 0.13235 0.0
C394 C 0.66405 0.91691 0.08976 0.0
C395 C 0.66107 0.97443 0.0395 0.0
H396 H 0.67991 0.01255 0.04052 0.0
H397 H 0.62515 0.96223 0.02952 0.0
H398 H 0.6777 0.96284 0.01663 0.0
O399 O 0.70921 0.07924 0.14748 0.0
O400 O 0.72587 0.04632 0.19856 0.0
H401 H 0.70772 0.89654 0.16764 0.0
H402 H 0.65924 0.84986 0.14168 0.0
C403 C 0.6712 0.88268 0.15843 0.0
H404 H 0.65015 0.87605 0.18657 0.0
H405 H 0.76148 0.98094 0.21853 0.0
O406 O 0.63167 0.04264 0.07739 0.0
C407 C 0.73545 0.08132 0.17646 0.0
C408 C 0.3146 0.12898 0.55677 0.0
C409 C 0.3489 0.13539 0.58504 0.0
C410 C 0.31957 0.16563 0.53242 0.0
C411 C 0.35926 0.20945 0.53535 0.0
H412 H 0.28376 0.09557 0.55366 0.0
H413 H 0.29201 0.15983 0.51159 0.0
S414 S 0.45989 0.24256 0.60318 0.0
N415 N 0.42401 0.18791 0.61399 0.0
N416 N 0.43413 0.2564 0.56749 0.0
C417 C 0.394 0.21582 0.56312 0.0
C418 C 0.38864 0.17882 0.58815 0.0
C419 C 0.15867 0.3115 0.69401 0.0
C420 C 0.15373 0.35043 0.68981 0.0
C421 C 0.19251 0.31231 0.71998 0.0
C422 C 0.22187 0.35188 0.74275 0.0
H423 H 0.13573 0.28006 0.67775 0.0
H424 H 0.19554 0.2818 0.72254 0.0
S425 S 0.2241 0.46302 0.74132 0.0
N426 N 0.18216 0.42998 0.70936 0.0
N427 N 0.24497 0.431 0.75874 0.0
C428 C 0.21758 0.391 0.73851 0.0
C429 C 0.18364 0.39039 0.71186 0.0
C430 C 0.78446 0.16087 0.90909 0.0
C431 C 0.79667 0.13258 0.88691 0.0
C432 C 0.815 0.19339 0.93715 0.0
C433 C 0.8587 0.1986 0.94418 0.0
H434 H 0.75125 0.15833 0.90416 0.0
H435 H 0.80504 0.2158 0.95239 0.0
S436 S 0.90621 0.13115 0.89604 0.0
N437 N 0.85417 0.10976 0.87583 0.0
N438 N 0.91248 0.17232 0.92775 0.0
C439 C 0.87094 0.16977 0.92313 0.0
C440 C 0.83969 0.13641 0.8946 0.0
C441 C 0.69796 0.83854 0.03432 0.0
C442 C 0.66314 0.81709 0.00463 0.0
C443 C 0.69843 0.87129 0.06141 0.0
C444 C 0.66374 0.88319 0.06002 0.0
H445 H 0.72419 0.82886 0.03738 0.0
H446 H 0.72579 0.88695 0.08392 0.0
S447 S 0.56396 0.83502 -0.01123 0.0
N448 N 0.59313 0.80933 0.97547 0.0
N449 N 0.593 0.86994 0.02694 0.0
C450 C 0.62894 0.86212 0.03014 0.0
C451 C 0.62885 0.8292 0.00232 0.0
C452 C 0.83516 0.6286 0.20938 0.0
C453 C 0.8751 0.66995 0.19898 0.0
C454 C 0.8042 0.62771 0.23878 0.0
C455 C 0.81227 0.66811 0.25887 0.0
H456 H 0.82821 0.59663 0.19506 0.0
H457 H 0.77326 0.59529 0.24545 0.0
S458 S 0.91203 0.78505 0.24261 0.0
N459 N 0.92176 0.75206 0.21131 0.0
N460 N 0.86261 0.75063 0.26598 0.0
C461 C 0.8521 0.70969 0.24879 0.0
C462 C 0.88376 0.71055 0.21887 0.0
C463 C 0.18951 0.87321 0.39789 0.0
C464 C 0.23495 0.88117 0.39791 0.0
C465 C 0.15635 0.84185 0.42544 0.0
C466 C 0.16787 0.81817 0.45422 0.0
H467 H 0.17938 0.89072 0.37605 0.0
H468 H 0.12102 0.83456 0.42307 0.0
S469 S 0.28116 0.8254 0.4658 0.0
N470 N 0.28914 0.86167 0.42839 0.0
N471 N 0.22703 0.80396 0.48072 0.0
C472 C 0.21326 0.82662 0.45516 0.0
C473 C 0.24679 0.85786 0.42685 0.0
C474 C 0.39491 0.19385 0.32436 0.0
C475 C 0.35996 0.19864 0.30526 0.0
C476 C 0.4015 0.1569 0.31533 0.0
C477 C 0.37256 0.12204 0.28767 0.0
H478 H 0.41529 0.21655 0.3489 0.0
H479 H 0.42766 0.15417 0.33253 0.0
S480 S 0.27929 0.12114 0.22564 0.0
N481 N 0.29915 0.16803 0.25402 0.0
N482 N 0.3105 0.0974 0.23789 0.0
C483 C 0.33945 0.12791 0.26618 0.0
C484 C 0.33319 0.16621 0.27502 0.0
C485 C 0.24835 0.38312 0.47793 0.0
C486 C 0.25556 0.35783 0.44722 0.0
C487 C 0.20452 0.37694 0.48577 0.0
C488 C 0.16585 0.34583 0.46275 0.0
H489 H 0.27629 0.40609 0.49795 0.0
H490 H 0.20087 0.39442 0.51208 0.0
S491 S 0.16669 0.27599 0.37486 0.0
N492 N 0.22082 0.30375 0.39075 0.0
N493 N 0.13833 0.29284 0.40512 0.0
C494 C 0.17302 0.32284 0.42993 0.0
C495 C 0.21784 0.32885 0.42208 0.0
C496 C 0.86725 0.15013 0.63014 0.0
C497 C 0.82319 0.14525 0.63595 0.0
C498 C 0.90404 0.19043 0.61356 0.0
C499 C 0.89826 0.22749 0.60228 0.0
H500 H 0.87423 0.12367 0.64062 0.0
H501 H 0.93804 0.19394 0.61256 0.0
S502 S 0.7883 0.2288 0.60201 0.0
N503 N 0.77429 0.17788 0.62093 0.0
N504 N 0.84441 0.25498 0.59286 0.0
C505 C 0.85389 0.22194 0.6049 0.0
C506 C 0.81607 0.18045 0.62089 0.0
C507 C 0.66946 0.88029 0.75387 0.0
C508 C 0.64091 0.88916 0.7795 0.0
C509 C 0.67449 0.84165 0.76008 0.0
C510 C 0.65139 0.81032 0.7922 0.0
H511 H 0.69037 0.90481 0.73047 0.0
H512 H 0.69897 0.83783 0.74109 0.0
S513 S 0.56852 0.81553 0.8654 0.0
N514 N 0.58466 0.86017 0.83511 0.0
N515 N 0.59664 0.79019 0.84857 0.0
C516 C 0.62028 0.81722 0.81625 0.0
C517 C 0.61438 0.85591 0.80937 0.0
C518 C 0.78427 0.63757 0.9498 0.0
C519 C 0.78169 0.67575 0.93598 0.0
C520 C 0.82657 0.64167 0.96134 0.0
C521 C 0.86778 0.68463 0.96159 0.0
H522 H 0.75307 0.60439 0.95265 0.0
H523 H 0.82625 0.61079 0.97071 0.0
S524 S 0.87945 0.79456 0.92398 0.0
N525 N 0.82393 0.75678 0.919 0.0
N526 N 0.90315 0.76561 0.94258 0.0
C527 C 0.86579 0.7226 0.94528 0.0
C528 C 0.82281 0.71795 0.93232 0.0
C529 C 0.1964 0.82077 0.15512 0.0
C530 C 0.20048 0.86362 0.14665 0.0
C531 C 0.16131 0.78024 0.1376 0.0
C532 C 0.12769 0.78031 0.11168 0.0
H533 H 0.21796 0.81758 0.17795 0.0
H534 H 0.15843 0.74804 0.14714 0.0
S535 S 0.12592 0.88393 0.07573 0.0
N536 N 0.17087 0.90429 0.10677 0.0
N537 N 0.1036 0.82755 0.07505 0.0
C538 C 0.1332 0.82312 0.10046 0.0
C539 C 0.16957 0.86476 0.11796 0.0
C540 C 0.87734 0.63655 0.47972 0.0
C541 C 0.906 0.66065 0.51316 0.0
C542 C 0.83968 0.64149 0.46877 0.0
C543 C 0.82824 0.6702 0.49112 0.0
H544 H 0.88534 0.61525 0.46031 0.0
H545 H 0.82152 0.62488 0.44091 0.0
S546 S 0.88872 0.73728 0.58398 0.0
N547 N 0.91805 0.71181 0.5705 0.0
N548 N 0.84651 0.72048 0.55027 0.0
C549 C 0.85482 0.69244 0.5261 0.0
C550 C 0.89359 0.68759 0.53721 0.0
C551 C 0.20263 0.88823 0.6864 0.0
C552 C 0.24365 0.88661 0.68857 0.0
C553 C 0.16024 0.84841 0.67847 0.0
C554 C 0.15718 0.80532 0.67287 0.0
H555 H 0.20373 0.92098 0.68795 0.0
H556 H 0.13014 0.85207 0.67435 0.0
S557 S 0.25354 0.78175 0.68598 0.0
N558 N 0.27824 0.83821 0.69027 0.0
N559 N 0.19796 0.76264 0.67877 0.0
C560 C 0.19742 0.80274 0.67926 0.0
C561 C 0.24084 0.84359 0.68615 0.0
C562 C 0.38995 0.23343 0.8357 0.0
C563 C 0.35212 0.23901 0.84537 0.0
C564 C 0.38382 0.19007 0.82573 0.0
C565 C 0.33937 0.15095 0.82289 0.0
H566 H 0.42445 0.26312 0.83449 0.0
H567 H 0.41429 0.18791 0.81921 0.0
S568 S 0.22943 0.14694 0.85089 0.0
N569 N 0.26945 0.20139 0.85685 0.0
N570 N 0.2572 0.12035 0.8361 0.0
C571 C 0.30159 0.15573 0.83577 0.0
C572 C 0.30812 0.19969 0.8472 0.0
C573 C 0.14666 0.3833 0.97139 0.0
C574 C 0.11881 0.35873 0.00514 0.0
C575 C 0.1839 0.37829 0.95873 0.0
C576 C 0.19553 0.34899 -0.02042 0.0
H577 H 0.13822 0.40488 0.95303 0.0
H578 H 0.20156 0.39524 0.93074 0.0
S579 S 0.13754 0.28087 0.07262 0.0
N580 N 0.10812 0.30678 0.06127 0.0
N581 N 0.17873 0.29792 0.03771 0.0
C582 C 0.16993 0.3264 0.01488 0.0
C583 C 0.1317 0.33136 0.02777 0.0
C584 C 0.82111 0.1203 0.17488 0.0
C585 C 0.78104 0.12336 0.1797 0.0
C586 C 0.86399 0.15971 0.16729 0.0
C587 C 0.86837 0.2036 0.16467 0.0
H588 H 0.81877 0.08696 0.17395 0.0
H589 H 0.89331 0.15527 0.16094 0.0
S590 S 0.77533 0.23044 0.18534 0.0
N591 N 0.74908 0.17372 0.18723 0.0
N592 N 0.83032 0.24821 0.17603 0.0
C593 C 0.82929 0.20738 0.17378 0.0
C594 C 0.78541 0.16711 0.18043 0.0
C595 C 0.64595 0.82306 0.30725 0.0
C596 C 0.68781 0.86453 0.31244 0.0
C597 C 0.63887 0.78216 0.32497 0.0
C598 C 0.67373 0.78057 0.34779 0.0
H599 H 0.6198 0.82093 0.28652 0.0
H600 H 0.60722 0.75068 0.31761 0.0
S601 S 0.78724 0.88066 0.37524 0.0
N602 N 0.7625 0.90259 0.34648 0.0
N603 N 0.74965 0.82505 0.37861 0.0
C604 C 0.7142 0.82231 0.35623 0.0
C605 C 0.72127 0.86432 0.33848 0.0
C606 C 0.52773 0.47942 0.43344 0.0
C607 C 0.48908 0.45594 0.4075 0.0
C608 C 0.56589 0.52185 0.42212 0.0
C609 C 0.56629 0.54277 0.38479 0.0
H610 H 0.5282 0.46508 0.46301 0.0
H611 H 0.59495 0.53844 0.44287 0.0
S612 S 0.47137 0.49596 0.30742 0.0
N613 N 0.45286 0.45655 0.34365 0.0
N614 N 0.52274 0.53679 0.32266 0.0
C615 C 0.52726 0.51939 0.35879 0.0
C616 C 0.48919 0.47582 0.37 0.0
C617 C 0.04438 0.50324 0.59491 0.0
C618 C 0.03079 0.4673 0.56612 0.0
C619 C 0.0445 0.54392 0.58516 0.0
C620 C 0.03046 0.55004 0.54634 0.0
H621 H 0.05462 0.49969 0.62553 0.0
H622 H 0.05533 0.5705 0.6083 0.0
S623 S 0.98979 0.46489 0.46062 0.0
N624 N 1.00284 0.44006 0.49763 0.0
N625 N 1.00105 0.51517 0.47916 0.0
C626 C 0.01674 0.51402 0.51724 0.0
C627 C 0.01754 0.47309 0.5271 0.0
C628 C 0.55163 0.03223 0.70222 0.0
C629 C 0.5684 0.0466 0.74194 0.0
C630 C 0.50937 0.02763 0.69015 0.0
C631 C 0.48231 0.0374 0.7173 0.0
H632 H 0.56964 0.02158 0.68121 0.0
H633 H 0.49717 0.01464 0.65959 0.0
S634 S 0.51574 0.08421 0.82249 0.0
N635 N 0.55829 0.07649 0.80671 0.0
N636 N 0.47883 0.06779 0.78405 0.0
C637 C 0.50064 0.05526 0.75606 0.0
C638 C 0.54367 0.05987 0.76834 0.0
C639 C 0.52161 0.55417 0.86547 0.0
C640 C 0.54342 0.5568 0.90291 0.0
C641 C 0.48004 0.5146 0.85475 0.0
C642 C 0.45834 0.47648 0.88129 0.0
H643 H 0.53674 0.5827 0.84419 0.0
H644 H 0.46496 0.51359 0.82517 0.0
S645 S 0.50161 0.46419 -0.01827 0.0
N646 N 0.54037 0.51605 0.96583 0.0
N647 N 0.46178 0.44291 0.94568 0.0
C648 C 0.47917 0.4786 0.91882 0.0
C649 C 0.52186 0.51839 0.92956 0.0
C650 C 0.99373 0.47426 0.0864 0.0
C651 C 0.98193 0.45764 0.04635 0.0
C652 C 0.99697 0.51591 0.09778 0.0
C653 C 0.98835 0.5428 0.06967 0.0
H654 H 1.00232 0.45597 0.10875 0.0
H655 H 1.00726 0.52735 0.12901 0.0
S656 S 0.94998 0.51096 0.96221 0.0
N657 N 0.9569 0.46861 -0.02071 0.0
N658 N 0.9634 0.54721 0.00089 0.0
C659 C 0.97423 0.52536 0.03001 0.0
C660 C 0.97091 0.48277 0.01834 0.0
C661 C 0.47311 0.98567 0.20427 0.0
C662 C 0.4602 0.97549 0.24544 0.0
C663 C 0.51394 0.98854 0.18974 0.0
C664 C 0.54331 0.981 0.21572 0.0
H665 H 0.45298 0.99395 0.18369 0.0
H666 H 0.52307 0.99808 0.15798 0.0
S667 S 0.52068 0.94635 0.32487 0.0
N668 N 0.47674 0.95257 0.31098 0.0
N669 N 0.55353 0.95834 0.28373 0.0
C670 C 0.529 0.96778 0.2563 0.0
C671 C 0.48747 0.96497 0.27111 0.0
C672 C 0.46919 0.41305 0.6696 0.0
C673 C 0.44969 0.4369 0.68862 0.0
C674 C 0.4717 0.41161 0.62696 0.0
C675 C 0.45352 0.43291 0.60242 0.0
H676 H 0.47973 0.39291 0.68771 0.0
H677 H 0.48388 0.39019 0.61331 0.0
S678 S 0.40611 0.50588 0.63727 0.0
N679 N 0.41847 0.48799 0.67992 0.0
N680 N 0.42139 0.48352 0.59945 0.0
C681 C 0.43796 0.46033 0.62099 0.0
C682 C 0.43654 0.46284 0.66436 0.0
C683 C 0.9964 0.4449 0.78115 0.0
C684 C 0.98249 0.40286 0.76115 0.0
C685 C 1.00464 0.44928 0.82346 0.0
C686 C 1.00046 0.41213 0.8466 0.0
H687 H 1.0025 0.47495 0.76394 0.0
H688 H 1.01545 0.48222 0.83784 0.0
S689 S 0.96163 0.29366 0.80855 0.0
N690 N 0.95916 0.32192 0.76844 0.0
N691 N 0.98103 0.33168 0.84598 0.0
C692 C 0.98588 0.36974 0.82676 0.0
C693 C 0.97496 0.36466 0.78456 0.0
C694 C 0.60015 0.06204 0.96021 0.0
C695 C 0.57782 0.02128 0.93713 0.0
C696 C 0.60049 0.06045 0.00294 0.0
C697 C 0.57749 0.01822 0.02371 0.0
H698 H 0.62122 0.09493 0.94532 0.0
H699 H 0.62157 0.09214 0.01964 0.0
S700 S 0.50444 0.90318 0.97696 0.0
N701 N 0.52573 0.93865 0.93765 0.0
N702 N 0.52484 0.93561 0.0183 0.0
C703 C 0.54998 0.97791 0.00106 0.0
C704 C 0.55057 0.97946 0.95752 0.0
C705 C 0.58285 0.56159 0.1222 0.0
C706 C 0.61266 0.6022 0.10086 0.0
C707 C 0.57601 0.5624 0.16448 0.0
C708 C 0.59758 0.60405 0.18644 0.0
H709 H 0.5654 0.52883 0.10638 0.0
H710 H 0.55468 0.5301 0.18016 0.0
S711 S 0.67634 0.72054 0.14429 0.0
N712 N 0.66477 0.68509 0.10541 0.0
N713 N 0.64574 0.68758 0.18268 0.0
C714 C 0.62483 0.64524 0.16478 0.0
C715 C 0.63425 0.64404 0.12262 0.0
C716 C 0.0471 0.58142 0.28776 0.0
C717 C 0.05064 0.61921 0.26631 0.0
C718 C 0.03944 0.57757 0.33017 0.0
C719 C 0.0337 0.61065 0.35179 0.0
H720 H 0.04863 0.55401 0.27161 0.0
H721 H 0.03682 0.548 0.34588 0.0
S722 S 0.04458 0.71837 0.30966 0.0
N723 N 0.0546 0.69351 0.27057 0.0
N724 N 0.03328 0.68296 0.34841 0.0
C725 C 0.0379 0.64889 0.33049 0.0
C726 C 0.04849 0.65415 0.28823 0.0
C727 C 0.46737 0.04851 0.50734 0.0
C728 C 0.44554 1.00766 0.53015 0.0
C729 C 0.47014 0.0471 0.46474 0.0
C730 C 0.45198 1.00489 0.44393 0.0
H731 H 0.4786 0.08142 0.52196 0.0
H732 H 0.48339 0.07899 0.44784 0.0
S733 S 0.40324 0.88959 0.49156 0.0
N734 N 0.41347 0.92495 0.53043 0.0
N735 N 0.42016 0.92211 0.45013 0.0
C736 C 0.43591 0.96438 0.46703 0.0
C737 C 0.4321 0.9658 0.51035 0.0
loop_
_geom_bond_atom_site_label_1
_geom_bond_atom_site_label_2
_geom_bond_distance
_geom_bond_site_symmetry_2
_ccdc_geom_bond_type
Co0 O3 1.970 . S
Co0 N17 1.989 . S
Co0 O25 1.967 . S
Co0 O32 1.920 . S
Co1 O4 1.966 . S
Co1 N10 2.022 . S
Co1 N18 1.993 . S
Co1 O26 1.941 . S
C2 O3 1.258 . S
C2 O4 1.263 . S
O3 Co0 1.970 . S
O3 C2 1.258 . S
O4 Co1 1.966 . S
O4 C2 1.263 . S
C5 O6 1.235 . S
C5 O32 1.289 . S
O6 C5 1.235 . S
C7 C9 1.400 . S
C7 N10 1.351 . S
C7 C12 1.501 . S
C8 C9 1.387 . S
C8 N11 1.341 . S
C9 C7 1.400 . S
C9 C8 1.387 . S
N10 Co1 2.022 . S
N10 C7 1.351 . S
N10 N11 1.365 . S
N11 C8 1.341 . S
N11 N10 1.365 . S
N11 H31 0.862 . S
C12 C7 1.501 . S
C12 H13 0.961 . S
C12 H14 0.961 . S
C12 H15 0.960 . S
H13 C12 0.961 . S
H14 C12 0.961 . S
H15 C12 0.960 . S
C16 N17 1.342 . S
C16 C20 1.401 . S
C16 C21 1.499 . S
N17 Co0 1.989 . S
N17 C16 1.342 . S
N17 N18 1.388 . S
N18 Co1 1.993 . S
N18 N17 1.388 . S
N18 C19 1.346 . S
C19 N18 1.346 . S
C19 C20 1.396 . S
C19 C29 1.510 . S
C20 C16 1.401 . S
C20 C19 1.396 . S
C21 C16 1.499 . S
C21 H22 0.959 . S
C21 H23 0.960 . S
C21 H24 0.961 . S
H22 C21 0.959 . S
H23 C21 0.960 . S
H24 C21 0.961 . S
O25 Co0 1.967 . S
O25 C33 1.258 . S
O26 Co1 1.941 . S
O26 C33 1.266 . S
H27 C29 0.959 . S
H28 C29 0.961 . S
C29 C19 1.510 . S
C29 H27 0.959 . S
C29 H28 0.961 . S
C29 H30 0.960 . S
H30 C29 0.960 . S
H31 N11 0.862 . S
O32 Co0 1.920 . S
O32 C5 1.289 . S
C33 O25 1.258 . S
C33 O26 1.266 . S
Co34 O37 1.970 . S
Co34 N51 1.989 . S
Co34 O59 1.967 1_455 S
Co34 O66 1.928 . S
Co35 O38 1.966 . S
Co35 N44 2.022 . S
Co35 N52 1.993 . S
Co35 O60 1.941 1_455 S
C36 O37 1.258 . S
C36 O38 1.263 . S
O37 Co34 1.970 . S
O37 C36 1.258 . S
O38 Co35 1.966 . S
O38 C36 1.263 . S
C39 O40 1.235 . S
C39 O66 1.289 . S
O40 C39 1.235 . S
C41 C43 1.400 . S
C41 N44 1.351 . S
C41 C46 1.501 . S
C42 C43 1.387 . S
C42 N45 1.341 . S
C43 C41 1.400 . S
C43 C42 1.387 . S
N44 Co35 2.022 . S
N44 C41 1.351 . S
N44 N45 1.365 . S
N45 C42 1.341 . S
N45 N44 1.365 . S
N45 H65 0.862 . S
C46 C41 1.501 . S
C46 H47 0.961 . S
C46 H48 0.961 . S
C46 H49 0.960 . S
H47 C46 0.961 . S
H48 C46 0.961 . S
H49 C46 0.960 . S
C50 N51 1.342 . S
C50 C54 1.401 . S
C50 C55 1.499 . S
N51 Co34 1.989 . S
N51 C50 1.342 . S
N51 N52 1.388 . S
N52 Co35 1.993 . S
N52 N51 1.388 . S
N52 C53 1.346 . S
C53 N52 1.346 . S
C53 C54 1.396 . S
C53 C63 1.510 . S
C54 C50 1.401 . S
C54 C53 1.396 . S
C55 C50 1.499 . S
C55 H56 0.959 . S
C55 H57 0.960 . S
C55 H58 0.961 . S
H56 C55 0.959 . S
H57 C55 0.960 . S
H58 C55 0.961 . S
O59 Co34 1.967 1_655 S
O59 C67 1.258 . S
O60 Co35 1.941 1_655 S
O60 C67 1.266 . S
H61 C63 0.959 . S
H62 C63 0.961 . S
C63 C53 1.510 . S
C63 H61 0.959 . S
C63 H62 0.961 . S
C63 H64 0.960 . S
H64 C63 0.960 . S
H65 N45 0.862 . S
O66 Co34 1.928 . S
O66 C39 1.289 . S
C67 O59 1.258 . S
C67 O60 1.266 . S
Co68 O71 1.970 . S
Co68 N85 1.989 . S
Co68 O93 1.967 1_545 S
Co68 O100 1.920 . S
Co69 O72 1.966 . S
Co69 N78 2.022 . S
Co69 N86 1.993 . S
Co69 O94 1.941 . S
C70 O71 1.258 . S
C70 O72 1.263 . S
O71 Co68 1.970 . S
O71 C70 1.258 . S
O72 Co69 1.966 . S
O72 C70 1.263 . S
C73 O74 1.235 . S
C73 O100 1.289 . S
O74 C73 1.235 . S
C75 C77 1.400 . S
C75 N78 1.351 . S
C75 C80 1.501 . S
C76 C77 1.387 . S
C76 N79 1.341 . S
C77 C75 1.400 . S
C77 C76 1.387 . S
N78 Co69 2.022 . S
N78 C75 1.351 . S
N78 N79 1.365 . S
N79 C76 1.341 . S
N79 N78 1.365 . S
N79 H99 0.862 . S
C80 C75 1.501 . S
C80 H81 0.961 . S
C80 H82 0.961 . S
C80 H83 0.960 . S
H81 C80 0.961 . S
H82 C80 0.961 . S
H83 C80 0.960 . S
C84 N85 1.342 . S
C84 C88 1.401 . S
C84 C89 1.499 . S
N85 Co68 1.989 . S
N85 C84 1.342 . S
N85 N86 1.388 . S
N86 Co69 1.993 . S
N86 N85 1.388 . S
N86 C87 1.346 . S
C87 N86 1.346 . S
C87 C88 1.396 . S
C87 C97 1.510 . S
C88 C84 1.401 . S
C88 C87 1.396 . S
C89 C84 1.499 . S
C89 H90 0.959 . S
C89 H91 0.960 . S
C89 H92 0.961 . S
H90 C89 0.959 . S
H91 C89 0.960 . S
H92 C89 0.961 . S
O93 Co68 1.967 1_565 S
O93 C101 1.258 . S
O94 Co69 1.941 . S
O94 C101 1.266 1_545 S
H95 C97 0.959 . S
H96 C97 0.961 . S
C97 C87 1.510 . S
C97 H95 0.959 . S
C97 H96 0.961 . S
C97 H98 0.960 . S
H98 C97 0.960 . S
H99 N79 0.862 . S
O100 Co68 1.920 . S
O100 C73 1.289 . S
C101 O93 1.258 . S
C101 O94 1.266 1_565 S
Co102 O105 1.970 1_554 S
Co102 N119 1.989 . S
Co102 O127 1.967 1_554 S
Co102 O134 1.920 . S
Co103 O106 1.966 . S
Co103 N112 2.022 . S
Co103 N120 1.993 . S
Co103 O128 1.941 . S
C104 O105 1.258 . S
C104 O106 1.263 . S
O105 Co102 1.970 1_556 S
O105 C104 1.258 . S
O106 Co103 1.966 . S
O106 C104 1.263 . S
C107 O108 1.235 . S
C107 O134 1.289 . S
O108 C107 1.235 . S
C109 C111 1.400 . S
C109 N112 1.351 . S
C109 C114 1.501 . S
C110 C111 1.387 . S
C110 N113 1.341 . S
C111 C109 1.400 . S
C111 C110 1.387 . S
N112 Co103 2.022 . S
N112 C109 1.351 . S
N112 N113 1.365 . S
N113 C110 1.341 . S
N113 N112 1.365 . S
N113 H133 0.862 . S
C114 C109 1.501 . S
C114 H115 0.961 . S
C114 H116 0.961 . S
C114 H117 0.960 . S
H115 C114 0.961 . S
H116 C114 0.961 . S
H117 C114 0.960 . S
C118 N119 1.342 . S
C118 C122 1.401 . S
C118 C123 1.499 . S
N119 Co102 1.989 . S
N119 C118 1.342 . S
N119 N120 1.388 1_554 S
N120 Co103 1.993 . S
N120 N119 1.388 1_556 S
N120 C121 1.346 . S
C121 N120 1.346 . S
C121 C122 1.396 1_556 S
C121 C131 1.510 . S
C122 C118 1.401 . S
C122 C121 1.396 1_554 S
C123 C118 1.499 . S
C123 H124 0.959 . S
C123 H125 0.960 . S
C123 H126 0.961 . S
H124 C123 0.959 . S
H125 C123 0.960 . S
H126 C123 0.961 . S
O127 Co102 1.967 1_556 S
O127 C135 1.258 . S
O128 Co103 1.941 . S
O128 C135 1.266 . S
H129 C131 0.959 . S
H130 C131 0.961 . S
C131 C121 1.510 . S
C131 H129 0.959 . S
C131 H130 0.961 . S
C131 H132 0.960 . S
H132 C131 0.960 . S
H133 N113 0.862 . S
O134 Co102 1.920 . S
O134 C107 1.289 . S
C135 O127 1.258 . S
C135 O128 1.266 . S
Co136 O139 1.970 . S
Co136 N153 1.989 . S
Co136 O161 1.967 1_655 S
Co136 O168 1.920 . S
Co137 O140 1.966 . S
Co137 N146 2.022 . S
Co137 N154 1.993 . S
Co137 O162 1.941 . S
C138 O139 1.258 . S
C138 O140 1.263 . S
O139 Co136 1.970 . S
O139 C138 1.258 . S
O140 Co137 1.966 . S
O140 C138 1.263 . S
C141 O142 1.235 . S
C141 O168 1.289 . S
O142 C141 1.235 . S
C143 C145 1.400 1_554 S
C143 N146 1.351 . S
C143 C148 1.501 1_554 S
C144 C145 1.389 . S
C144 N147 1.337 1_556 S
C145 C143 1.400 1_556 S
C145 C144 1.389 . S
N146 Co137 2.022 . S
N146 C143 1.351 . S
N146 N147 1.365 . S
N147 C144 1.337 1_554 S
N147 N146 1.365 . S
N147 H167 0.862 . S
C148 C143 1.501 1_556 S
C148 H149 0.961 1_556 S
C148 H150 0.961 1_556 S
C148 H151 0.960 . S
H149 C148 0.961 1_554 S
H150 C148 0.961 1_554 S
H151 C148 0.960 . S
C152 N153 1.342 . S
C152 C156 1.401 . S
C152 C157 1.499 . S
N153 Co136 1.989 . S
N153 C152 1.342 . S
N153 N154 1.388 . S
N154 Co137 1.993 . S
N154 N153 1.388 . S
N154 C155 1.346 . S
C155 N154 1.346 . S
C155 C156 1.396 . S
C155 C165 1.510 . S
C156 C152 1.401 . S
C156 C155 1.396 . S
C157 C152 1.499 . S
C157 H158 0.959 . S
C157 H159 0.960 . S
C157 H160 0.961 . S
H158 C157 0.959 . S
H159 C157 0.960 . S
H160 C157 0.961 . S
O161 Co136 1.967 1_455 S
O161 C169 1.258 . S
O162 Co137 1.941 . S
O162 C169 1.266 1_655 S
H163 C165 0.959 . S
H164 C165 0.961 . S
C165 C155 1.510 . S
C165 H163 0.959 . S
C165 H164 0.961 . S
C165 H166 0.960 . S
H166 C165 0.960 . S
H167 N147 0.862 . S
O168 Co136 1.920 . S
O168 C141 1.289 . S
C169 O161 1.258 . S
C169 O162 1.266 1_455 S
Co170 O173 1.970 . S
Co170 N187 1.989 . S
Co170 O195 1.967 1_565 S
Co170 O202 1.920 . S
Co171 O174 1.966 . S
Co171 N180 2.022 . S
Co171 N188 1.993 . S
Co171 O196 1.941 . S
C172 O173 1.258 . S
C172 O174 1.263 . S
O173 Co170 1.970 . S
O173 C172 1.258 . S
O174 Co171 1.966 . S
O174 C172 1.263 . S
C175 O176 1.235 . S
C175 O202 1.289 . S
O176 C175 1.235 . S
C177 C179 1.400 . S
C177 N180 1.351 . S
C177 C182 1.501 . S
C178 C179 1.387 . S
C178 N181 1.341 . S
C179 C177 1.400 . S
C179 C178 1.387 . S
N180 Co171 2.022 . S
N180 C177 1.351 . S
N180 N181 1.365 . S
N181 C178 1.341 . S
N181 N180 1.365 . S
N181 H201 0.862 . S
C182 C177 1.501 . S
C182 H183 0.961 . S
C182 H184 0.961 . S
C182 H185 0.960 . S
H183 C182 0.961 . S
H184 C182 0.961 . S
H185 C182 0.960 . S
C186 N187 1.342 . S
C186 C190 1.401 . S
C186 C191 1.499 . S
N187 Co170 1.989 . S
N187 C186 1.342 . S
N187 N188 1.388 . S
N188 Co171 1.993 . S
N188 N187 1.388 . S
N188 C189 1.346 . S
C189 N188 1.346 . S
C189 C190 1.396 . S
C189 C199 1.510 . S
C190 C186 1.401 . S
C190 C189 1.396 . S
C191 C186 1.499 . S
C191 H192 0.959 . S
C191 H193 0.960 . S
C191 H194 0.961 . S
H192 C191 0.959 . S
H193 C191 0.960 . S
H194 C191 0.961 . S
O195 Co170 1.967 1_545 S
O195 C203 1.258 . S
O196 Co171 1.941 . S
O196 C203 1.266 1_565 S
H197 C199 0.959 . S
H198 C199 0.961 . S
C199 C189 1.510 . S
C199 H197 0.959 . S
C199 H198 0.961 . S
C199 H200 0.960 . S
H200 C199 0.960 . S
H201 N181 0.862 . S
O202 Co170 1.920 . S
O202 C175 1.289 . S
C203 O195 1.258 . S
C203 O196 1.266 1_545 S
Co204 O207 1.970 . S
Co204 N221 1.989 . S
Co204 O229 1.967 . S
Co204 O236 1.920 . S
Co205 O208 1.966 . S
Co205 N214 2.022 . S
Co205 N222 1.993 . S
Co205 O230 1.941 . S
C206 O207 1.258 . S
C206 O208 1.263 . S
O207 Co204 1.970 . S
O207 C206 1.258 . S
O208 Co205 1.966 . S
O208 C206 1.263 . S
C209 O210 1.235 . S
C209 O236 1.289 . S
O210 C209 1.235 . S
C211 C213 1.400 . S
C211 N214 1.351 . S
C211 C216 1.501 . S
C212 C213 1.387 . S
C212 N215 1.341 . S
C213 C211 1.400 . S
C213 C212 1.387 . S
N214 Co205 2.022 . S
N214 C211 1.351 . S
N214 N215 1.365 . S
N215 C212 1.341 . S
N215 N214 1.365 . S
N215 H235 0.862 . S
C216 C211 1.501 . S
C216 H217 0.961 . S
C216 H218 0.961 . S
C216 H219 0.960 . S
H217 C216 0.961 . S
H218 C216 0.961 . S
H219 C216 0.960 . S
C220 N221 1.342 . S
C220 C224 1.401 . S
C220 C225 1.499 . S
N221 Co204 1.989 . S
N221 C220 1.342 . S
N221 N222 1.388 . S
N222 Co205 1.993 . S
N222 N221 1.388 . S
N222 C223 1.346 . S
C223 N222 1.346 . S
C223 C224 1.396 . S
C223 C233 1.510 . S
C224 C220 1.401 . S
C224 C223 1.396 . S
C225 C220 1.499 . S
C225 H226 0.959 . S
C225 H227 0.960 . S
C225 H228 0.961 . S
H226 C225 0.959 . S
H227 C225 0.960 . S
H228 C225 0.961 . S
O229 Co204 1.967 . S
O229 C237 1.258 . S
O230 Co205 1.941 . S
O230 C237 1.266 . S
H231 C233 0.959 . S
H232 C233 0.961 . S
C233 C223 1.510 . S
C233 H231 0.959 . S
C233 H232 0.961 . S
C233 H234 0.960 . S
H234 C233 0.960 . S
H235 N215 0.862 . S
O236 Co204 1.920 . S
O236 C209 1.289 . S
C237 O229 1.258 . S
C237 O230 1.266 . S
Co238 O241 1.970 . S
Co238 N255 1.989 . S
Co238 O263 1.967 1_455 S
Co238 O270 1.924 . S
Co239 O242 1.966 . S
Co239 N248 2.022 . S
Co239 N256 1.993 . S
Co239 O264 1.941 1_455 S
C240 O241 1.258 . S
C240 O242 1.263 . S
O241 Co238 1.970 . S
O241 C240 1.258 . S
O242 Co239 1.966 . S
O242 C240 1.263 . S
C243 O244 1.235 . S
C243 O270 1.300 . S
O244 C243 1.235 . S
C245 C247 1.400 . S
C245 N248 1.351 . S
C245 C250 1.501 . S
C246 C247 1.387 . S
C246 N249 1.341 . S
C247 C245 1.400 . S
C247 C246 1.387 . S
N248 Co239 2.022 . S
N248 C245 1.351 . S
N248 N249 1.365 . S
N249 C246 1.341 . S
N249 N248 1.365 . S
N249 H269 0.862 . S
C250 C245 1.501 . S
C250 H251 0.961 . S
C250 H252 0.961 . S
C250 H253 0.960 . S
H251 C250 0.961 . S
H252 C250 0.961 . S
H253 C250 0.960 . S
C254 N255 1.342 . S
C254 C258 1.401 . S
C254 C259 1.499 . S
N255 Co238 1.989 . S
N255 C254 1.342 . S
N255 N256 1.388 . S
N256 Co239 1.993 . S
N256 N255 1.388 . S
N256 C257 1.346 . S
C257 N256 1.346 . S
C257 C258 1.396 . S
C257 C267 1.510 . S
C258 C254 1.401 . S
C258 C257 1.396 . S
C259 C254 1.499 . S
C259 H260 0.959 . S
C259 H261 0.960 . S
C259 H262 0.961 . S
H260 C259 0.959 . S
H261 C259 0.960 . S
H262 C259 0.961 . S
O263 Co238 1.967 1_655 S
O263 C271 1.258 . S
O264 Co239 1.941 1_655 S
O264 C271 1.266 . S
H265 C267 0.959 . S
H266 C267 0.961 . S
C267 C257 1.510 . S
C267 H265 0.959 . S
C267 H266 0.961 . S
C267 H268 0.960 . S
H268 C267 0.960 . S
H269 N249 0.862 . S
O270 Co238 1.924 . S
O270 C243 1.300 . S
C271 O263 1.258 . S
C271 O264 1.266 . S
Co272 O275 1.970 . S
Co272 N289 1.989 . S
Co272 O297 1.967 1_545 S
Co272 O304 1.920 . S
Co273 O276 1.966 . S
Co273 N282 2.022 . S
Co273 N290 1.993 . S
Co273 O298 1.941 . S
C274 O275 1.258 . S
C274 O276 1.263 . S
O275 Co272 1.970 . S
O275 C274 1.258 . S
O276 Co273 1.966 . S
O276 C274 1.263 . S
C277 O278 1.235 . S
C277 O304 1.289 . S
O278 C277 1.235 . S
C279 C281 1.400 . S
C279 N282 1.351 . S
C279 C284 1.501 . S
C280 C281 1.387 . S
C280 N283 1.341 . S
C281 C279 1.400 . S
C281 C280 1.387 . S
N282 Co273 2.022 . S
N282 C279 1.351 . S
N282 N283 1.365 . S
N283 C280 1.341 . S
N283 N282 1.365 . S
N283 H303 0.862 . S
C284 C279 1.501 . S
C284 H285 0.961 . S
C284 H286 0.961 . S
C284 H287 0.960 . S
H285 C284 0.961 . S
H286 C284 0.961 . S
H287 C284 0.960 . S
C288 N289 1.342 . S
C288 C292 1.401 . S
C288 C293 1.499 . S
N289 Co272 1.989 . S
N289 C288 1.342 . S
N289 N290 1.388 . S
N290 Co273 1.993 . S
N290 N289 1.388 . S
N290 C291 1.346 . S
C291 N290 1.346 . S
C291 C292 1.396 . S
C291 C301 1.510 . S
C292 C288 1.401 . S
C292 C291 1.396 . S
C293 C288 1.499 . S
C293 H294 0.959 . S
C293 H295 0.960 . S
C293 H296 0.961 . S
H294 C293 0.959 . S
H295 C293 0.960 . S
H296 C293 0.961 . S
O297 Co272 1.967 1_565 S
O297 C305 1.258 . S
O298 Co273 1.941 . S
O298 C305 1.266 1_545 S
H299 C301 0.959 . S
H300 C301 0.961 . S
C301 C291 1.510 . S
C301 H299 0.959 . S
C301 H300 0.961 . S
C301 H302 0.960 . S
H302 C301 0.960 . S
H303 N283 0.862 . S
O304 Co272 1.920 . S
O304 C277 1.289 . S
C305 O297 1.258 . S
C305 O298 1.266 1_565 S
Co306 O309 1.970 . S
Co306 N323 1.989 . S
Co306 O331 1.967 . S
Co306 O338 1.920 . S
Co307 O310 1.966 . S
Co307 N316 2.022 . S
Co307 N324 1.993 . S
Co307 O332 1.941 . S
C308 O309 1.258 . S
C308 O310 1.263 . S
O309 Co306 1.970 . S
O309 C308 1.258 . S
O310 Co307 1.966 . S
O310 C308 1.263 . S
C311 O312 1.235 . S
C311 O338 1.289 . S
O312 C311 1.235 . S
C313 C315 1.400 1_556 S
C313 N316 1.351 . S
C313 C318 1.501 1_556 S
C314 C315 1.389 . S
C314 N317 1.337 1_554 S
C315 C313 1.400 1_554 S
C315 C314 1.389 . S
N316 Co307 2.022 . S
N316 C313 1.351 . S
N316 N317 1.365 . S
N317 C314 1.337 1_556 S
N317 N316 1.365 . S
N317 H337 0.862 . S
C318 C313 1.501 1_554 S
C318 H319 0.961 1_554 S
C318 H320 0.961 1_554 S
C318 H321 0.960 . S
H319 C318 0.961 1_556 S
H320 C318 0.961 1_556 S
H321 C318 0.960 . S
C322 N323 1.342 . S
C322 C326 1.401 . S
C322 C327 1.499 . S
N323 Co306 1.989 . S
N323 C322 1.342 . S
N323 N324 1.388 . S
N324 Co307 1.993 . S
N324 N323 1.388 . S
N324 C325 1.346 . S
C325 N324 1.346 . S
C325 C326 1.396 . S
C325 C335 1.510 . S
C326 C322 1.401 . S
C326 C325 1.396 . S
C327 C322 1.499 . S
C327 H328 0.959 . S
C327 H329 0.960 . S
C327 H330 0.961 . S
H328 C327 0.959 . S
H329 C327 0.960 . S
H330 C327 0.961 . S
O331 Co306 1.967 . S
O331 C339 1.258 . S
O332 Co307 1.941 . S
O332 C339 1.266 . S
H333 C335 0.959 . S
H334 C335 0.961 . S
C335 C325 1.510 . S
C335 H333 0.959 . S
C335 H334 0.961 . S
C335 H336 0.960 . S
H336 C335 0.960 . S
H337 N317 0.862 . S
O338 Co306 1.920 . S
O338 C311 1.289 . S
C339 O331 1.258 . S
C339 O332 1.266 . S
Co340 O343 1.970 1_556 S
Co340 N357 1.989 . S
Co340 O365 1.967 1_656 S
Co340 O372 1.920 . S
Co341 O344 1.966 . S
Co341 N350 2.022 . S
Co341 N358 1.993 . S
Co341 O366 1.941 . S
C342 O343 1.258 . S
C342 O344 1.263 . S
O343 Co340 1.970 1_554 S
O343 C342 1.258 . S
O344 Co341 1.966 . S
O344 C342 1.263 . S
C345 O346 1.235 . S
C345 O372 1.289 . S
O346 C345 1.235 . S
C347 C349 1.400 . S
C347 N350 1.351 . S
C347 C352 1.501 . S
C348 C349 1.387 . S
C348 N351 1.341 . S
C349 C347 1.400 . S
C349 C348 1.387 . S
N350 Co341 2.022 . S
N350 C347 1.351 . S
N350 N351 1.365 . S
N351 C348 1.341 . S
N351 N350 1.365 . S
N351 H371 0.862 . S
C352 C347 1.501 . S
C352 H353 0.961 . S
C352 H354 0.961 . S
C352 H355 0.960 . S
H353 C352 0.961 . S
H354 C352 0.961 . S
H355 C352 0.960 . S
C356 N357 1.342 . S
C356 C360 1.401 . S
C356 C361 1.499 . S
N357 Co340 1.989 . S
N357 C356 1.342 . S
N357 N358 1.388 1_556 S
N358 Co341 1.993 . S
N358 N357 1.388 1_554 S
N358 C359 1.346 . S
C359 N358 1.346 . S
C359 C360 1.396 1_554 S
C359 C369 1.510 . S
C360 C356 1.401 . S
C360 C359 1.396 1_556 S
C361 C356 1.499 . S
C361 H362 0.959 . S
C361 H363 0.960 . S
C361 H364 0.961 . S
H362 C361 0.959 . S
H363 C361 0.960 . S
H364 C361 0.961 . S
O365 Co340 1.967 1_454 S
O365 C373 1.258 . S
O366 Co341 1.941 . S
O366 C373 1.266 1_655 S
H367 C369 0.959 . S
H368 C369 0.961 . S
C369 C359 1.510 . S
C369 H367 0.959 . S
C369 H368 0.961 . S
C369 H370 0.960 . S
H370 C369 0.960 . S
H371 N351 0.862 . S
O372 Co340 1.920 . S
O372 C345 1.289 . S
C373 O365 1.258 . S
C373 O366 1.266 1_455 S
Co374 O377 1.970 . S
Co374 N391 1.989 . S
Co374 O399 1.967 1_565 S
Co374 O406 1.920 . S
Co375 O378 1.966 . S
Co375 N384 2.022 . S
Co375 N392 1.993 . S
Co375 O400 1.941 . S
C376 O377 1.258 . S
C376 O378 1.263 . S
O377 Co374 1.970 . S
O377 C376 1.258 . S
O378 Co375 1.966 . S
O378 C376 1.263 . S
C379 O380 1.235 . S
C379 O406 1.289 . S
O380 C379 1.235 . S
C381 C383 1.400 . S
C381 N384 1.351 . S
C381 C386 1.501 . S
C382 C383 1.387 . S
C382 N385 1.341 . S
C383 C381 1.400 . S
C383 C382 1.387 . S
N384 Co375 2.022 . S
N384 C381 1.351 . S
N384 N385 1.365 . S
N385 C382 1.341 . S
N385 N384 1.365 . S
N385 H405 0.862 . S
C386 C381 1.501 . S
C386 H387 0.961 . S
C386 H388 0.961 . S
C386 H389 0.960 . S
H387 C386 0.961 . S
H388 C386 0.961 . S
H389 C386 0.960 . S
C390 N391 1.342 . S
C390 C394 1.401 . S
C390 C395 1.499 . S
N391 Co374 1.989 . S
N391 C390 1.342 . S
N391 N392 1.388 . S
N392 Co375 1.993 . S
N392 N391 1.388 . S
N392 C393 1.346 . S
C393 N392 1.346 . S
C393 C394 1.396 . S
C393 C403 1.510 . S
C394 C390 1.401 . S
C394 C393 1.396 . S
C395 C390 1.499 . S
C395 H396 0.959 . S
C395 H397 0.960 . S
C395 H398 0.961 . S
H396 C395 0.959 . S
H397 C395 0.960 . S
H398 C395 0.961 . S
O399 Co374 1.967 1_545 S
O399 C407 1.258 . S
O400 Co375 1.941 . S
O400 C407 1.266 1_565 S
H401 C403 0.959 . S
H402 C403 0.961 . S
C403 C393 1.510 . S
C403 H401 0.959 . S
C403 H402 0.961 . S
C403 H404 0.960 . S
H404 C403 0.960 . S
H405 N385 0.862 . S
O406 Co374 1.920 . S
O406 C379 1.289 . S
C407 O399 1.258 . S
C407 O400 1.266 1_545 S
C408 C409 1.369 . S
C408 C410 1.419 . S
C408 H412 0.930 . S
C409 C408 1.369 . S
C409 C418 1.429 . S
C410 C408 1.419 . S
C410 C411 1.363 . S
C410 H413 0.929 . S
C411 C410 1.363 . S
C411 C417 1.428 . S
H412 C408 0.930 . S
H413 C410 0.929 . S
S414 N415 1.613 . S
S414 N416 1.610 . S
N415 S414 1.613 . S
N415 C418 1.350 . S
N416 S414 1.610 . S
N416 C417 1.351 . S
C417 C411 1.428 . S
C417 N416 1.351 . S
C417 C418 1.434 . S
C418 C409 1.429 . S
C418 N415 1.350 . S
C418 C417 1.434 . S
C419 C420 1.369 . S
C419 C421 1.419 . S
C419 H423 0.930 . S
C420 C419 1.369 . S
C420 C429 1.429 . S
C421 C419 1.419 . S
C421 C422 1.363 . S
C421 H424 0.929 . S
C422 C421 1.363 . S
C422 C428 1.428 . S
H423 C419 0.930 . S
H424 C421 0.929 . S
S425 N426 1.613 . S
S425 N427 1.610 . S
N426 S425 1.613 . S
N426 C429 1.350 . S
N427 S425 1.610 . S
N427 C428 1.351 . S
C428 C422 1.428 . S
C428 N427 1.351 . S
C428 C429 1.434 . S
C429 C420 1.429 . S
C429 N426 1.350 . S
C429 C428 1.434 . S
C430 C431 1.369 . S
C430 C432 1.419 . S
C430 H434 0.930 . S
C431 C430 1.369 . S
C431 C440 1.429 . S
C432 C430 1.419 . S
C432 C433 1.363 . S
C432 H435 0.929 . S
C433 C432 1.363 . S
C433 C439 1.428 . S
H434 C430 0.930 . S
H435 C432 0.929 . S
S436 N437 1.613 . S
S436 N438 1.610 . S
N437 S436 1.613 . S
N437 C440 1.350 . S
N438 S436 1.610 . S
N438 C439 1.351 . S
C439 C433 1.428 . S
C439 N438 1.351 . S
C439 C440 1.434 . S
C440 C431 1.429 . S
C440 N437 1.350 . S
C440 C439 1.434 . S
C441 C442 1.369 . S
C441 C443 1.419 . S
C441 H445 0.930 . S
C442 C441 1.369 . S
C442 C451 1.429 . S
C443 C441 1.419 . S
C443 C444 1.363 . S
C443 H446 0.929 . S
C444 C443 1.363 . S
C444 C450 1.428 . S
H445 C441 0.930 . S
H446 C443 0.929 . S
S447 N448 1.613 . S
S447 N449 1.610 . S
N448 S447 1.613 . S
N448 C451 1.350 . S
N449 S447 1.610 . S
N449 C450 1.351 . S
C450 C444 1.428 . S
C450 N449 1.351 . S
C450 C451 1.434 . S
C451 C442 1.429 . S
C451 N448 1.350 . S
C451 C450 1.434 . S
C452 C453 1.369 . S
C452 C454 1.419 . S
C452 H456 0.930 . S
C453 C452 1.369 . S
C453 C462 1.429 . S
C454 C452 1.419 . S
C454 C455 1.363 . S
C454 H457 0.929 . S
C455 C454 1.363 . S
C455 C461 1.428 . S
H456 C452 0.930 . S
H457 C454 0.929 . S
S458 N459 1.613 . S
S458 N460 1.610 . S
N459 S458 1.613 . S
N459 C462 1.350 . S
N460 S458 1.610 . S
N460 C461 1.351 . S
C461 C455 1.428 . S
C461 N460 1.351 . S
C461 C462 1.434 . S
C462 C453 1.429 . S
C462 N459 1.350 . S
C462 C461 1.434 . S
C463 C464 1.369 . S
C463 C465 1.419 . S
C463 H467 0.930 . S
C464 C463 1.369 . S
C464 C473 1.429 . S
C465 C463 1.419 . S
C465 C466 1.363 . S
C465 H468 0.929 . S
C466 C465 1.363 . S
C466 C472 1.428 . S
H467 C463 0.930 . S
H468 C465 0.929 . S
S469 N470 1.613 . S
S469 N471 1.610 . S
N470 S469 1.613 . S
N470 C473 1.350 . S
N471 S469 1.610 . S
N471 C472 1.351 . S
C472 C466 1.428 . S
C472 N471 1.351 . S
C472 C473 1.434 . S
C473 C464 1.429 . S
C473 N470 1.350 . S
C473 C472 1.434 . S
C474 C475 1.369 . S
C474 C476 1.419 . S
C474 H478 0.930 . S
C475 C474 1.369 . S
C475 C484 1.429 . S
C476 C474 1.419 . S
C476 C477 1.363 . S
C476 H479 0.929 . S
C477 C476 1.363 . S
C477 C483 1.428 . S
H478 C474 0.930 . S
H479 C476 0.929 . S
S480 N481 1.613 . S
S480 N482 1.610 . S
N481 S480 1.613 . S
N481 C484 1.350 . S
N482 S480 1.610 . S
N482 C483 1.351 . S
C483 C477 1.428 . S
C483 N482 1.351 . S
C483 C484 1.434 . S
C484 C475 1.429 . S
C484 N481 1.350 . S
C484 C483 1.434 . S
C485 C486 1.369 . S
C485 C487 1.419 . S
C485 H489 0.930 . S
C486 C485 1.369 . S
C486 C495 1.429 . S
C487 C485 1.419 . S
C487 C488 1.363 . S
C487 H490 0.929 . S
C488 C487 1.363 . S
C488 C494 1.428 . S
H489 C485 0.930 . S
H490 C487 0.929 . S
S491 N492 1.613 . S
S491 N493 1.610 . S
N492 S491 1.613 . S
N492 C495 1.350 . S
N493 S491 1.610 . S
N493 C494 1.351 . S
C494 C488 1.428 . S
C494 N493 1.351 . S
C494 C495 1.434 . S
C495 C486 1.429 . S
C495 N492 1.350 . S
C495 C494 1.434 . S
C496 C497 1.369 . S
C496 C498 1.419 . S
C496 H500 0.930 . S
C497 C496 1.369 . S
C497 C506 1.429 . S
C498 C496 1.419 . S
C498 C499 1.363 . S
C498 H501 0.929 . S
C499 C498 1.363 . S
C499 C505 1.428 . S
H500 C496 0.930 . S
H501 C498 0.929 . S
S502 N503 1.613 . S
S502 N504 1.610 . S
N503 S502 1.613 . S
N503 C506 1.350 . S
N504 S502 1.610 . S
N504 C505 1.351 . S
C505 C499 1.428 . S
C505 N504 1.351 . S
C505 C506 1.434 . S
C506 C497 1.429 . S
C506 N503 1.350 . S
C506 C505 1.434 . S
C507 C508 1.369 . S
C507 C509 1.419 . S
C507 H511 0.930 . S
C508 C507 1.369 . S
C508 C517 1.429 . S
C509 C507 1.419 . S
C509 C510 1.363 . S
C509 H512 0.929 . S
C510 C509 1.363 . S
C510 C516 1.428 . S
H511 C507 0.930 . S
H512 C509 0.929 . S
S513 N514 1.613 . S
S513 N515 1.610 . S
N514 S513 1.613 . S
N514 C517 1.350 . S
N515 S513 1.610 . S
N515 C516 1.351 . S
C516 C510 1.428 . S
C516 N515 1.351 . S
C516 C517 1.434 . S
C517 C508 1.429 . S
C517 N514 1.350 . S
C517 C516 1.434 . S
C518 C519 1.369 . S
C518 C520 1.419 . S
C518 H522 0.930 . S
C519 C518 1.369 . S
C519 C528 1.429 . S
C520 C518 1.419 . S
C520 C521 1.363 . S
C520 H523 0.929 . S
C521 C520 1.363 . S
C521 C527 1.428 . S
H522 C518 0.930 . S
H523 C520 0.929 . S
S524 N525 1.609 1_554 S
S524 N526 1.610 . S
N525 S524 1.609 1_556 S
N525 C528 1.354 . S
N526 S524 1.610 . S
N526 C527 1.351 1_554 S
C527 C521 1.428 . S
C527 N526 1.351 1_556 S
C527 C528 1.434 . S
C528 C519 1.429 . S
C528 N525 1.354 . S
C528 C527 1.434 . S
C529 C530 1.369 . S
C529 C531 1.419 . S
C529 H533 0.930 . S
C530 C529 1.369 . S
C530 C539 1.429 . S
C531 C529 1.419 . S
C531 C532 1.363 . S
C531 H534 0.929 . S
C532 C531 1.363 . S
C532 C538 1.428 . S
H533 C529 0.930 . S
H534 C531 0.929 . S
S535 N536 1.613 . S
S535 N537 1.610 . S
N536 S535 1.613 . S
N536 C539 1.350 . S
N537 S535 1.610 . S
N537 C538 1.351 . S
C538 C532 1.428 . S
C538 N537 1.351 . S
C538 C539 1.434 . S
C539 C530 1.429 . S
C539 N536 1.350 . S
C539 C538 1.434 . S
C540 C541 1.369 . S
C540 C542 1.419 . S
C540 H544 0.930 . S
C541 C540 1.369 . S
C541 C550 1.429 . S
C542 C540 1.419 . S
C542 C543 1.363 . S
C542 H545 0.929 . S
C543 C542 1.363 . S
C543 C549 1.428 . S
H544 C540 0.930 . S
H545 C542 0.929 . S
S546 N547 1.613 . S
S546 N548 1.610 . S
N547 S546 1.613 . S
N547 C550 1.350 . S
N548 S546 1.610 . S
N548 C549 1.351 . S
C549 C543 1.428 . S
C549 N548 1.351 . S
C549 C550 1.434 . S
C550 C541 1.429 . S
C550 N547 1.350 . S
C550 C549 1.434 . S
C551 C552 1.369 . S
C551 C553 1.419 . S
C551 H555 0.930 . S
C552 C551 1.369 . S
C552 C561 1.429 . S
C553 C551 1.419 . S
C553 C554 1.363 . S
C553 H556 0.929 . S
C554 C553 1.363 . S
C554 C560 1.428 . S
H555 C551 0.930 . S
H556 C553 0.929 . S
S557 N558 1.613 . S
S557 N559 1.610 . S
N558 S557 1.613 . S
N558 C561 1.350 . S
N559 S557 1.610 . S
N559 C560 1.351 . S
C560 C554 1.428 . S
C560 N559 1.351 . S
C560 C561 1.434 . S
C561 C552 1.429 . S
C561 N558 1.350 . S
C561 C560 1.434 . S
C562 C563 1.369 . S
C562 C564 1.419 . S
C562 H566 0.930 . S
C563 C562 1.369 . S
C563 C572 1.429 . S
C564 C562 1.419 . S
C564 C565 1.363 . S
C564 H567 0.929 . S
C565 C564 1.363 . S
C565 C571 1.428 . S
H566 C562 0.930 . S
H567 C564 0.929 . S
S568 N569 1.613 . S
S568 N570 1.610 . S
N569 S568 1.613 . S
N569 C572 1.350 . S
N570 S568 1.610 . S
N570 C571 1.351 . S
C571 C565 1.428 . S
C571 N570 1.351 . S
C571 C572 1.434 . S
C572 C563 1.429 . S
C572 N569 1.350 . S
C572 C571 1.434 . S
C573 C574 1.369 . S
C573 C575 1.419 . S
C573 H577 0.930 . S
C574 C573 1.369 . S
C574 C583 1.429 . S
C575 C573 1.419 . S
C575 C576 1.363 . S
C575 H578 0.929 . S
C576 C575 1.363 . S
C576 C582 1.428 . S
H577 C573 0.930 . S
H578 C575 0.929 . S
S579 N580 1.613 . S
S579 N581 1.610 . S
N580 S579 1.613 . S
N580 C583 1.350 . S
N581 S579 1.610 . S
N581 C582 1.351 . S
C582 C576 1.428 . S
C582 N581 1.351 . S
C582 C583 1.434 . S
C583 C574 1.429 . S
C583 N580 1.350 . S
C583 C582 1.434 . S
C584 C585 1.369 . S
C584 C586 1.419 . S
C584 H588 0.930 . S
C585 C584 1.369 . S
C585 C594 1.429 . S
C586 C584 1.419 . S
C586 C587 1.363 . S
C586 H589 0.929 . S
C587 C586 1.363 . S
C587 C593 1.428 . S
H588 C584 0.930 . S
H589 C586 0.929 . S
S590 N591 1.613 . S
S590 N592 1.610 . S
N591 S590 1.613 . S
N591 C594 1.350 . S
N592 S590 1.610 . S
N592 C593 1.351 . S
C593 C587 1.428 . S
C593 N592 1.351 . S
C593 C594 1.434 . S
C594 C585 1.429 . S
C594 N591 1.350 . S
C594 C593 1.434 . S
C595 C596 1.369 . S
C595 C597 1.419 . S
C595 H599 0.930 . S
C596 C595 1.369 . S
C596 C605 1.429 . S
C597 C595 1.419 . S
C597 C598 1.363 . S
C597 H600 0.929 . S
C598 C597 1.363 . S
C598 C604 1.428 . S
H599 C595 0.930 . S
H600 C597 0.929 . S
S601 N602 1.613 . S
S601 N603 1.610 . S
N602 S601 1.613 . S
N602 C605 1.350 . S
N603 S601 1.610 . S
N603 C604 1.351 . S
C604 C598 1.428 . S
C604 N603 1.351 . S
C604 C605 1.434 . S
C605 C596 1.429 . S
C605 N602 1.350 . S
C605 C604 1.434 . S
C606 C607 1.369 . S
C606 C608 1.419 . S
C606 H610 0.930 . S
C607 C606 1.369 . S
C607 C616 1.429 . S
C608 C606 1.419 . S
C608 C609 1.363 . S
C608 H611 0.929 . S
C609 C608 1.363 . S
C609 C615 1.428 . S
H610 C606 0.930 . S
H611 C608 0.929 . S
S612 N613 1.613 . S
S612 N614 1.610 . S
N613 S612 1.613 . S
N613 C616 1.350 . S
N614 S612 1.610 . S
N614 C615 1.351 . S
C615 C609 1.428 . S
C615 N614 1.351 . S
C615 C616 1.434 . S
C616 C607 1.429 . S
C616 N613 1.350 . S
C616 C615 1.434 . S
C617 C618 1.369 . S
C617 C619 1.419 . S
C617 H621 0.930 . S
C618 C617 1.369 . S
C618 C627 1.429 . S
C619 C617 1.419 . S
C619 C620 1.363 . S
C619 H622 0.929 . S
C620 C619 1.363 . S
C620 C626 1.428 . S
H621 C617 0.930 . S
H622 C619 0.929 . S
S623 N624 1.613 . S
S623 N625 1.610 . S
N624 S623 1.613 . S
N624 C627 1.350 . S
N625 S623 1.610 . S
N625 C626 1.351 . S
C626 C620 1.428 . S
C626 N625 1.351 . S
C626 C627 1.434 . S
C627 C618 1.429 . S
C627 N624 1.350 . S
C627 C626 1.434 . S
C628 C629 1.369 . S
C628 C630 1.419 . S
C628 H632 0.930 . S
C629 C628 1.369 . S
C629 C638 1.429 1_545 S
C630 C628 1.419 . S
C630 C631 1.363 . S
C630 H633 0.929 . S
C631 C630 1.363 . S
C631 C637 1.428 1_545 S
H632 C628 0.930 . S
H633 C630 0.929 . S
S634 N635 1.613 . S
S634 N636 1.610 . S
N635 S634 1.613 . S
N635 C638 1.350 . S
N636 S634 1.610 . S
N636 C637 1.351 . S
C637 C631 1.428 1_565 S
C637 N636 1.351 . S
C637 C638 1.434 . S
C638 C629 1.429 1_565 S
C638 N635 1.350 . S
C638 C637 1.434 . S
C639 C640 1.369 . S
C639 C641 1.419 . S
C639 H643 0.930 . S
C640 C639 1.369 . S
C640 C649 1.429 . S
C641 C639 1.419 . S
C641 C642 1.363 . S
C641 H644 0.929 . S
C642 C641 1.363 . S
C642 C648 1.428 . S
H643 C639 0.930 . S
H644 C641 0.929 . S
S645 N646 1.613 . S
S645 N647 1.610 . S
N646 S645 1.613 . S
N646 C649 1.350 . S
N647 S645 1.610 . S
N647 C648 1.351 . S
C648 C642 1.428 . S
C648 N647 1.351 . S
C648 C649 1.434 . S
C649 C640 1.429 . S
C649 N646 1.350 . S
C649 C648 1.434 . S
C650 C651 1.369 . S
C650 C652 1.419 . S
C650 H654 0.930 1_655 S
C651 C650 1.369 . S
C651 C660 1.429 . S
C652 C650 1.419 . S
C652 C653 1.363 . S
C652 H655 0.929 1_655 S
C653 C652 1.363 . S
C653 C659 1.428 . S
H654 C650 0.930 1_455 S
H655 C652 0.929 1_455 S
S656 N657 1.613 . S
S656 N658 1.610 . S
N657 S656 1.613 . S
N657 C660 1.350 . S
N658 S656 1.610 . S
N658 C659 1.351 . S
C659 C653 1.428 . S
C659 N658 1.351 . S
C659 C660 1.434 . S
C660 C651 1.429 . S
C660 N657 1.350 . S
C660 C659 1.434 . S
C661 C662 1.371 . S
C661 C663 1.419 . S
C661 H665 0.927 1_565 S
C662 C661 1.371 . S
C662 C671 1.429 . S
C663 C661 1.419 . S
C663 C664 1.366 . S
C663 H666 0.928 1_565 S
C664 C663 1.366 . S
C664 C670 1.428 . S
H665 C661 0.927 1_545 S
H666 C663 0.928 1_545 S
S667 N668 1.613 . S
S667 N669 1.610 . S
N668 S667 1.613 . S
N668 C671 1.350 . S
N669 S667 1.610 . S
N669 C670 1.351 . S
C670 C664 1.428 . S
C670 N669 1.351 . S
C670 C671 1.434 . S
C671 C662 1.429 . S
C671 N668 1.350 . S
C671 C670 1.434 . S
C672 C673 1.369 . S
C672 C674 1.419 . S
C672 H676 0.930 . S
C673 C672 1.369 . S
C673 C682 1.429 . S
C674 C672 1.419 . S
C674 C675 1.363 . S
C674 H677 0.929 . S
C675 C674 1.363 . S
C675 C681 1.428 . S
H676 C672 0.930 . S
H677 C674 0.929 . S
S678 N679 1.613 . S
S678 N680 1.610 . S
N679 S678 1.613 . S
N679 C682 1.350 . S
N680 S678 1.610 . S
N680 C681 1.351 . S
C681 C675 1.428 . S
C681 N680 1.351 . S
C681 C682 1.434 . S
C682 C673 1.429 . S
C682 N679 1.350 . S
C682 C681 1.434 . S
C683 C684 1.369 1_655 S
C683 C685 1.419 . S
C683 H687 0.930 . S
C684 C683 1.369 1_455 S
C684 C693 1.429 . S
C685 C683 1.419 . S
C685 C686 1.363 . S
C685 H688 0.929 . S
C686 C685 1.363 . S
C686 C692 1.428 1_655 S
H687 C683 0.930 . S
H688 C685 0.929 . S
S689 N690 1.613 . S
S689 N691 1.610 . S
N690 S689 1.613 . S
N690 C693 1.350 . S
N691 S689 1.610 . S
N691 C692 1.351 . S
C692 C686 1.428 1_455 S
C692 N691 1.351 . S
C692 C693 1.434 . S
C693 C684 1.429 . S
C693 N690 1.350 . S
C693 C692 1.434 . S
C694 C695 1.369 . S
C694 C696 1.419 1_556 S
C694 H698 0.930 . S
C695 C694 1.369 . S
C695 C704 1.429 1_545 S
C696 C694 1.419 1_554 S
C696 C697 1.363 1_545 S
C696 H699 0.929 . S
C697 C696 1.363 1_565 S
C697 C703 1.428 . S
H698 C694 0.930 . S
H699 C696 0.929 . S
S700 N701 1.613 . S
S700 N702 1.610 1_556 S
N701 S700 1.613 . S
N701 C704 1.350 . S
N702 S700 1.610 1_554 S
N702 C703 1.351 . S
C703 C697 1.428 . S
C703 N702 1.351 . S
C703 C704 1.434 1_554 S
C704 C695 1.429 1_565 S
C704 N701 1.350 . S
C704 C703 1.434 1_556 S
C705 C706 1.369 . S
C705 C707 1.419 . S
C705 H709 0.930 . S
C706 C705 1.369 . S
C706 C715 1.429 . S
C707 C705 1.419 . S
C707 C708 1.363 . S
C707 H710 0.929 . S
C708 C707 1.363 . S
C708 C714 1.428 . S
H709 C705 0.930 . S
H710 C707 0.929 . S
S711 N712 1.613 . S
S711 N713 1.610 . S
N712 S711 1.613 . S
N712 C715 1.350 . S
N713 S711 1.610 . S
N713 C714 1.351 . S
C714 C708 1.428 . S
C714 N713 1.351 . S
C714 C715 1.434 . S
C715 C706 1.429 . S
C715 N712 1.350 . S
C715 C714 1.434 . S
C716 C717 1.369 1_455 S
C716 C718 1.419 . S
C716 H720 0.930 . S
C717 C716 1.369 1_655 S
C717 C726 1.429 . S
C718 C716 1.419 . S
C718 C719 1.363 . S
C718 H721 0.929 . S
C719 C718 1.363 . S
C719 C725 1.428 1_455 S
H720 C716 0.930 . S
H721 C718 0.929 . S
S722 N723 1.613 . S
S722 N724 1.610 . S
N723 S722 1.613 . S
N723 C726 1.350 . S
N724 S722 1.610 . S
N724 C725 1.351 . S
C725 C719 1.428 1_655 S
C725 N724 1.351 . S
C725 C726 1.434 . S
C726 C717 1.429 . S
C726 N723 1.350 . S
C726 C725 1.434 . S
C727 C728 1.369 . S
C727 C729 1.419 . S
C727 H731 0.930 . S
C728 C727 1.369 . S
C728 C737 1.429 1_545 S
C729 C727 1.419 . S
C729 C730 1.363 1_545 S
C729 H732 0.929 . S
C730 C729 1.363 1_565 S
C730 C736 1.428 . S
H731 C727 0.930 . S
H732 C729 0.929 . S
S733 N734 1.613 . S
S733 N735 1.610 . S
N734 S733 1.613 . S
N734 C737 1.350 . S
N735 S733 1.610 . S
N735 C736 1.351 . S
C736 C730 1.428 . S
C736 N735 1.351 . S
C736 C737 1.434 . S
C737 C728 1.429 1_565 S
C737 N734 1.350 . S
C737 C736 1.434 . S
C409 C292 1.114 . S
C411 C20 1.106 . S
C420 C54 1.105 . S
C422 C326 1.111 . S
C431 C88 1.113 . S
C433 C360 1.110 . S
C442 C122 1.111 . S
C444 C394 1.106 . S
C453 C156 1.108 . S
C455 C224 1.113 . S
C464 C190 1.112 . S
C466 C258 1.106 . S
C475 C9 1.688 . S
C477 C203 1.930 . S
C486 C33 1.931 . S
C488 C43 1.692 . S
C497 C77 1.700 . S
C499 C67 1.929 . S
C508 C101 1.927 . S
C510 C111 1.693 . S
C519 C135 1.930 . S
C521 C145 1.689 . S
C530 C179 1.687 . S
C532 C169 1.929 . S
C541 C271 1.931 . S
C543 C213 1.696 . S
C552 C305 1.928 . S
C554 C247 1.697 . S
C563 C339 1.929 . S
C565 C281 1.689 . S
C574 C373 1.931 . S
C576 C315 1.692 . S
C585 C407 1.929 . S
C587 C349 1.699 . S
C596 C383 1.690 . S
C598 C237 1.930 . S
C607 C2 1.226 . S
C609 C206 1.215 . S
C618 C36 1.225 . S
C620 C240 1.213 . S
C629 C70 1.221 . S
C631 C274 1.220 . S
C640 C104 1.218 . S
C642 C308 1.222 . S
C651 C342 1.212 . S
C653 C138 1.222 . S
C662 C172 1.213 . S
C664 C376 1.221 . S
C673 C311 1.442 . S
C675 C5 1.448 . S
C684 C39 1.443 . S
C686 C345 1.445 . S
C695 C73 1.450 . S
C697 C379 1.444 . S
C706 C107 1.444 . S
C708 C209 1.444 . S
C717 C141 1.444 . S
C719 C243 1.444 . S
C728 C277 1.450 . S
C730 C175 1.444 . S
