# Generated by pormake.
# Topology tsi, (8)-cn, num edge types: 1
# Building blocks:
#     Node 0, Type 0, BuildingBlock: TAGTUT_clean_sbu_1, # of connection points: 8
#     Node 1, Type 0, BuildingBlock: TAGTUT_clean_sbu_1, # of connection points: 8
#     Node 2, Type 0, BuildingBlock: TAGTUT_clean_sbu_1, # of connection points: 8
#     Node 3, Type 0, BuildingBlock: TAGTUT_clean_sbu_1, # of connection points: 8
#     Edge 4, Type (0, 0), BuildingBlock: KIFKEQ_clean_linker_1, # of connection points: 2
#     Edge 5, Type (0, 0), BuildingBlock: KIFKEQ_clean_linker_1, # of connection points: 2
#     Edge 6, Type (0, 0), BuildingBlock: KIFKEQ_clean_linker_1, # of connection points: 2
#     Edge 7, Type (0, 0), BuildingBlock: KIFKEQ_clean_linker_1, # of connection points: 2
#     Edge 8, Type (0, 0), BuildingBlock: KIFKEQ_clean_linker_1, # of connection points: 2
#     Edge 9, Type (0, 0), BuildingBlock: KIFKEQ_clean_linker_1, # of connection points: 2
#     Edge 10, Type (0, 0), BuildingBlock: KIFKEQ_clean_linker_1, # of connection points: 2
#     Edge 11, Type (0, 0), BuildingBlock: KIFKEQ_clean_linker_1, # of connection points: 2
#     Edge 12, Type (0, 0), BuildingBlock: KIFKEQ_clean_linker_1, # of connection points: 2
#     Edge 13, Type (0, 0), BuildingBlock: KIFKEQ_clean_linker_1, # of connection points: 2
#     Edge 14, Type (0, 0), BuildingBlock: KIFKEQ_clean_linker_1, # of connection points: 2
#     Edge 15, Type (0, 0), BuildingBlock: KIFKEQ_clean_linker_1, # of connection points: 2
#     Edge 16, Type (0, 0), BuildingBlock: KIFKEQ_clean_linker_1, # of connection points: 2
#     Edge 17, Type (0, 0), BuildingBlock: KIFKEQ_clean_linker_1, # of connection points: 2
#     Edge 18, Type (0, 0), BuildingBlock: KIFKEQ_clean_linker_1, # of connection points: 2
#     Edge 19, Type (0, 0), BuildingBlock: KIFKEQ_clean_linker_1, # of connection points: 2
# Relax obj value: 0.135
# Max RMSD: 0.248
# Mean RMSD: 0.248
data_MOF--net-tsi--node1-TAGTUT_clean_sbu_1--edge1-KIFKEQ_clean_linker_1
_symmetry_space_group_name_H-M    P1
_symmetry_Int_Tables_number       1
_symmetry_cell_setting            triclinic
loop_
_symmetry_equiv_pos_as_xyz
'x, y, z'
_cell_length_a     15.641918
_cell_length_b     16.105012
_cell_length_c     68.310519
_cell_angle_alpha  93.172217
_cell_angle_beta   92.04802
_cell_angle_gamma 111.4956
loop_
_atom_site_label
_atom_site_type_symbol
_atom_site_fract_x
_atom_site_fract_y
_atom_site_fract_z
_atom_type_partial_charge
C0 C 0.04647 0.184 0.43018 0.0
C1 C 0.00963 0.41091 0.41326 0.0
C2 C 0.8205 0.18142 0.34749 0.0
Mg3 Mg 0.14746 0.32594 0.40155 0.0
O4 O 0.05698 0.24826 0.38395 0.0
Mg5 Mg 0.92528 0.20136 0.39023 0.0
Mg6 Mg 0.04097 0.27264 0.35634 0.0
O7 O 0.02422 0.29157 0.32853 0.0
Mg8 Mg 0.95699 0.18354 0.31398 0.0
Mg9 Mg 0.15331 0.35655 0.3217 0.0
C10 C 0.26782 0.34163 0.36417 0.0
C11 C 0.09773 0.48697 0.35248 0.0
O12 O 0.97249 0.1665 0.4194 0.0
O13 O 0.12466 0.23991 0.42576 0.0
O14 O 0.94267 0.33832 0.40706 0.0
O15 O 0.09263 0.4254 0.40906 0.0
O16 O 0.26422 0.34942 0.38294 0.0
O17 O 0.19502 0.3182 0.35261 0.0
C18 C 0.97071 0.05844 0.36093 0.0
O19 O 0.01866 0.12266 0.35084 0.0
O20 O 0.92581 0.07203 0.37529 0.0
O21 O 0.07958 0.37702 0.2923 0.0
O22 O 0.94913 0.25278 0.28938 0.0
O23 O 0.1655 0.2357 0.30555 0.0
C24 C 0.00205 0.32676 0.28333 0.0
O25 O 0.04112 0.11092 0.30355 0.0
O26 O 0.83344 0.14709 0.33089 0.0
C27 C 0.12455 0.15374 0.29965 0.0
O28 O 0.88809 0.2328 0.35906 0.0
O29 O 0.05846 0.4203 0.36262 0.0
O30 O 0.13875 0.47872 0.33709 0.0
C31 C 0.01341 0.6202 0.68824 0.0
C32 C 0.89423 0.79773 0.67591 0.0
C33 C 0.75338 0.62493 0.60785 0.0
Mg34 Mg 0.06101 0.77128 0.65959 0.0
O35 O -0.00743 0.66758 0.64408 0.0
Mg36 Mg 0.86279 0.60195 0.65037 0.0
Mg37 Mg 0.97916 0.69292 0.61666 0.0
O38 O 0.96637 0.72315 0.58942 0.0
Mg39 Mg 0.87769 0.65202 0.57051 0.0
Mg40 Mg 0.0987 0.77645 0.58391 0.0
C41 C 0.19976 0.78181 0.62626 0.0
C42 C 0.05102 0.90959 0.61511 0.0
O43 O 0.93374 0.57433 0.67954 0.0
O44 O 0.06827 0.69415 0.68257 0.0
O45 O 0.84954 0.71917 0.66817 0.0
O46 O 0.97821 0.84 0.6723 0.0
O47 O 0.18556 0.81249 0.64314 0.0
O48 O 0.13311 0.73332 0.61412 0.0
C49 C 0.92066 0.47742 0.61861 0.0
O50 O 0.96215 0.54589 0.60911 0.0
O51 O 0.87767 0.48315 0.63383 0.0
O52 O 0.05277 0.82446 0.55625 0.0
O53 O 0.90145 0.75041 0.54883 0.0
O54 O 0.08451 0.64827 0.5644 0.0
C55 C 0.9791 0.811 0.54567 0.0
O56 O 0.93561 0.55889 0.55932 0.0
O57 O 0.75922 0.62114 0.58907 0.0
C58 C 0.02039 0.57917 0.55581 0.0
O59 O 0.82486 0.64655 0.61975 0.0
O60 O -0.00018 0.84235 0.62398 0.0
O61 O 0.09851 0.89954 0.60099 0.0
C62 C 0.5176 0.7052 0.928 0.0
C63 C 0.48242 0.9407 0.91405 0.0
C64 C 0.29558 0.71964 0.84652 0.0
Mg65 Mg 0.62069 0.85664 0.90156 0.0
O66 O 0.52996 0.78625 0.88312 0.0
Mg67 Mg 0.39826 0.73495 0.88912 0.0
Mg68 Mg 0.51638 0.81099 0.85545 0.0
O69 O 0.5012 0.82883 0.82745 0.0
Mg70 Mg 0.43307 0.72013 0.81338 0.0
Mg71 Mg 0.63155 0.89006 0.82099 0.0
C72 C 0.74217 0.87646 0.86429 0.0
C73 C 0.57239 0.02379 0.85026 0.0
O74 O 0.44393 0.69223 0.91748 0.0
O75 O 0.59595 0.76303 0.92429 0.0
O76 O 0.41523 0.86969 0.90707 0.0
O77 O 0.56613 0.95442 0.91056 0.0
O78 O 0.73779 0.88105 0.88307 0.0
O79 O 0.6704 0.85794 0.85261 0.0
C80 C 0.44637 0.59592 0.85939 0.0
O81 O 0.49598 0.66151 0.84989 0.0
O82 O 0.39905 0.60764 0.87343 0.0
O83 O 0.56611 0.90118 0.78962 0.0
O84 O 0.42761 0.78668 0.78834 0.0
O85 O 0.64523 0.76727 0.80697 0.0
C86 C 0.48675 0.8536 0.78099 0.0
O87 O 0.51728 0.64606 0.803 0.0
O88 O 0.30855 0.68552 0.8299 0.0
C89 C 0.60319 0.6861 0.80067 0.0
O90 O 0.36306 0.77069 0.85814 0.0
O91 O 0.53412 0.95876 0.86097 0.0
O92 O 0.61331 0.01388 0.83492 0.0
C93 C 0.50678 0.19385 0.18921 0.0
C94 C 0.3884 0.34856 0.17483 0.0
C95 C 0.23674 0.1644 0.1066 0.0
Mg96 Mg 0.55432 0.3294 0.15849 0.0
O97 O 0.48062 0.22224 0.14382 0.0
Mg98 Mg 0.35115 0.1664 0.1506 0.0
Mg99 Mg 0.46299 0.23471 0.11587 0.0
O100 O 0.44777 0.25363 0.08783 0.0
Mg101 Mg 0.35914 0.17711 0.06961 0.0
Mg102 Mg 0.57936 0.30883 0.0819 0.0
C103 C 0.68613 0.32969 0.12435 0.0
C104 C 0.52729 0.44826 0.11074 0.0
O105 O 0.42217 0.15894 0.18213 0.0
O106 O 0.56996 0.25417 0.18104 0.0
O107 O 0.35306 0.30499 0.15872 0.0
O108 O 0.47502 0.39292 0.17574 0.0
O109 O 0.67561 0.36569 0.14097 0.0
O110 O 0.61719 0.27778 0.11317 0.0
C111 C 0.40643 0.02359 0.12353 0.0
O112 O 0.44499 0.08645 0.11224 0.0
O113 O 0.36505 0.03628 0.13867 0.0
O114 O 0.5316 0.34266 0.05264 0.0
O115 O 0.38011 0.26622 0.0461 0.0
O116 O 0.56877 0.1757 0.06497 0.0
C117 C 0.45751 0.32386 0.04183 0.0
O118 O 0.42048 0.08315 0.06079 0.0
O119 O 0.24093 0.15434 0.08788 0.0
C120 C 0.50497 0.10505 0.05682 0.0
O121 O 0.30878 0.18597 0.11836 0.0
O122 O 0.48043 0.38305 0.12059 0.0
O123 O 0.57381 0.43674 0.09652 0.0
H124 H 0.85964 0.37326 0.43599 0.0
H125 H 0.13823 0.56018 0.43236 0.0
H126 H 0.86786 0.41531 0.47093 0.0
H127 H 0.15014 0.59525 0.46718 0.0
H128 H 0.14037 0.67706 0.53071 0.0
H129 H 0.12728 0.65294 0.49557 0.0
H130 H 0.92431 0.38692 0.49988 0.0
H131 H 0.93133 0.41598 0.53543 0.0
C132 C 0.92195 0.42492 0.44249 0.0
C133 C -0.00092 0.4614 0.43133 0.0
C134 C 0.9278 0.44725 0.46276 0.0
C135 C 0.01126 0.50562 0.47241 0.0
C136 C 0.0845 0.54957 0.46072 0.0
C137 C 0.07765 0.52934 0.44046 0.0
C138 C 0.09496 0.61209 0.52429 0.0
C139 C 0.03726 0.54816 0.53601 0.0
C140 C 0.08678 0.59824 0.50385 0.0
C141 C 0.02318 0.51837 0.49442 0.0
C142 C 0.97152 0.45091 0.50633 0.0
C143 C 0.97738 0.46622 0.52683 0.0
H144 H 0.78514 0.71909 0.79844 0.0
H145 H 0.52459 0.59827 0.76529 0.0
H146 H 0.86165 0.76374 0.76876 0.0
H147 H 0.602 0.63392 0.73494 0.0
H148 H 0.72426 0.7945 0.68512 0.0
H149 H 0.65634 0.74929 0.71618 0.0
H150 H 0.92264 0.76688 0.74052 0.0
H151 H -0.00998 0.82096 0.71043 0.0
C152 C 0.74491 0.69672 0.78458 0.0
C153 C 0.64835 0.65753 0.78436 0.0
C154 C 0.78894 0.72365 0.7673 0.0
C155 C 0.73814 0.70746 0.74908 0.0
C156 C 0.64354 0.65328 0.74863 0.0
C157 C 0.59903 0.62909 0.76609 0.0
C158 C 0.76873 0.79386 0.69761 0.0
C159 C 0.86283 0.81326 0.6954 0.0
C160 C 0.72931 0.76427 0.71529 0.0
C161 C 0.7823 0.74986 0.73101 0.0
C162 C 0.87805 0.77654 0.72916 0.0
C163 C 0.91778 0.80943 0.71179 0.0
H164 H 0.37823 0.54879 0.93329 0.0
H165 H 0.64023 0.73116 0.95954 0.0
H166 H 0.36324 0.45272 0.96005 0.0
H167 H 0.62368 0.6356 -0.01318 0.0
H168 H 0.60915 0.40005 0.02158 0.0
H169 H 0.62418 0.49041 -0.00635 0.0
H170 H 0.33548 0.45052 -0.0056 0.0
H171 H 0.3199 0.35752 0.0221 0.0
C172 C 0.43237 0.56887 0.9449 0.0
C173 C 0.51036 0.64787 0.94439 0.0
C174 C 0.42343 0.51383 0.96027 0.0
C175 C 0.4919 0.5368 0.97558 0.0
C176 C 0.57024 0.61563 0.97507 0.0
C177 C 0.57963 0.67054 0.95954 0.0
C178 C 0.54878 0.41039 0.01573 0.0
C179 C 0.46342 0.37254 0.02406 0.0
C180 C 0.5576 0.46257 -0.00018 0.0
C181 C 0.4814 0.47853 -0.008 0.0
C182 C 0.39536 0.43879 3e-05 0.0
C183 C 0.38632 0.3857 0.01588 0.0
H184 H 0.89129 0.41832 0.28654 0.0
H185 H 0.00649 0.28714 0.24434 0.0
H186 H 0.74692 0.36466 0.26739 0.0
H187 H 0.86509 0.241 0.22357 0.0
H188 H 0.58979 0.07881 0.19875 0.0
H189 H 0.72433 0.13155 0.2217 0.0
H190 H 0.64029 0.34513 0.24403 0.0
H191 H 0.50408 0.28602 0.22265 0.0
C192 C 0.8879 0.38388 0.27226 0.0
C193 C 0.95958 0.35591 0.26706 0.0
C194 C 0.80362 0.35089 0.26133 0.0
C195 C 0.79114 0.29358 0.24422 0.0
C196 C 0.86921 0.27987 0.23725 0.0
C197 C 0.95234 0.31002 0.24867 0.0
C198 C 0.59706 0.13282 0.20966 0.0
C199 C 0.53632 0.17865 0.20881 0.0
C200 C 0.67668 0.1661 0.22226 0.0
C201 C 0.69766 0.2468 0.23402 0.0
C202 C 0.62911 0.28383 0.23521 0.0
C203 C 0.54838 0.24832 0.22315 0.0
H204 H 0.43435 0.41786 0.21321 0.0
H205 H 0.24069 0.19313 0.17757 0.0
H206 H 0.371 0.34538 0.24282 0.0
H207 H 0.18198 0.11903 0.20682 0.0
H208 H 0.03033 0.07794 0.26516 0.0
H209 H 0.09389 0.12147 0.23381 0.0
H210 H 0.36843 0.22243 0.2617 0.0
H211 H 0.30371 0.1814 0.29333 0.0
C212 C 0.37848 0.35322 0.21167 0.0
C213 C 0.34425 0.31093 0.19298 0.0
C214 C 0.34288 0.31089 0.22863 0.0
C215 C 0.27298 0.22485 0.22727 0.0
C216 C 0.23604 0.18474 0.20854 0.0
C217 C 0.27015 0.22765 0.19168 0.0
C218 C 0.10453 0.10448 0.26448 0.0
C219 C 0.16182 0.12728 0.28182 0.0
C220 C 0.14123 0.13116 0.24644 0.0
C221 C 0.23624 0.17912 0.24533 0.0
C222 C 0.2946 0.18899 0.26216 0.0
C223 C 0.25776 0.16297 0.28022 0.0
H224 H 0.9887 0.64753 0.72692 0.0
H225 H 0.13483 0.53776 0.68752 0.0
H226 H 0.12988 0.72413 0.74712 0.0
H227 H 0.2777 0.62033 0.70616 0.0
H228 H 0.52503 0.77039 0.7494 0.0
H229 H 0.39199 0.67573 0.72906 0.0
H230 H 0.2513 0.8543 0.74491 0.0
H231 H 0.38236 0.94272 0.76694 0.0
C232 C 0.05029 0.63597 0.72312 0.0
C233 C 0.05197 0.59077 0.7051 0.0
C234 C 0.13268 0.68363 0.73416 0.0
C235 C 0.21767 0.68536 0.72745 0.0
C236 C 0.21525 0.62414 0.71169 0.0
C237 C 0.13207 0.57416 0.70117 0.0
C238 C 0.46748 0.79215 0.74767 0.0
C239 C 0.46212 0.86108 0.76051 0.0
C240 C 0.38931 0.73604 0.73631 0.0
C241 C 0.30696 0.75282 0.73635 0.0
C242 C 0.3104 0.83462 0.74563 0.0
C243 C 0.38759 0.88845 0.75757 0.0
H244 H 0.33394 0.89645 0.93723 0.0
H245 H 0.60541 0.09525 0.93233 0.0
H246 H 0.34363 0.93885 0.97219 0.0
H247 H 0.61916 0.13149 0.96716 0.0
H248 H 0.61315 0.20995 0.0309 0.0
H249 H 0.59423 0.18675 -0.00422 0.0
H250 H 0.40836 0.91379 0.00067 0.0
H251 H 0.42073 0.94129 0.03634 0.0
C252 C 0.39472 0.95096 0.94346 0.0
C253 C 0.46988 0.99071 0.93196 0.0
C254 C 0.40158 0.97357 0.96373 0.0
C255 C 0.48405 0.03567 0.97299 0.0
C256 C 0.55445 0.08284 0.96097 0.0
C257 C 0.54653 0.06204 0.94073 0.0
C258 C 0.57044 0.14378 0.0246 0.0
C259 C 0.51924 0.077 0.03657 0.0
C260 C 0.55887 0.13048 0.00418 0.0
C261 C 0.49845 0.04857 -0.00504 0.0
C262 C 0.453 0.97906 0.00701 0.0
C263 C 0.46208 0.99362 0.02754 0.0
H264 H 0.89188 0.10448 0.44934 0.0
H265 H 0.18356 0.15564 0.45156 0.0
H266 H 0.87481 0.01732 0.47778 0.0
H267 H 0.16586 0.06576 0.47989 0.0
H268 H 0.11403 0.97172 0.54134 0.0
H269 H 0.13098 0.06582 0.51409 0.0
H270 H 0.87897 0.87458 0.48564 0.0
H271 H 0.86054 0.78103 0.51331 0.0
C272 C 0.95243 0.09677 0.45588 0.0
C273 C 0.03908 0.13625 0.44816 0.0
C274 C 0.9424 0.04638 0.47211 0.0
C275 C 0.01866 0.03381 0.48091 0.0
C276 C 0.10589 0.07494 0.47348 0.0
C277 C 0.11611 0.12619 0.45727 0.0
C278 C 0.06205 0.94966 0.52929 0.0
C279 C 0.98598 0.86879 0.52939 0.0
C280 C 0.07217 0.00345 0.51363 0.0
C281 C 0.00676 0.97733 0.49769 0.0
C282 C 0.93001 0.89692 0.49787 0.0
C283 C 0.91946 0.84327 0.51365 0.0
H284 H 0.91152 0.92214 0.38508 0.0
H285 H 0.05048 0.99378 0.33145 0.0
H286 H 0.94588 0.78773 0.38452 0.0
H287 H 0.07998 0.85508 0.33014 0.0
H288 H 0.20758 0.65318 0.34305 0.0
H289 H 0.17285 0.78875 0.34476 0.0
H290 H 0.91691 0.64598 0.37092 0.0
H291 H 0.95499 0.51246 0.37026 0.0
C292 C 0.94738 0.90811 0.37281 0.0
C293 C 0.97828 0.96929 0.35828 0.0
C294 C 0.96697 0.83025 0.37247 0.0
C295 C 0.01655 0.81002 0.35739 0.0
C296 C 0.04374 0.86918 0.34231 0.0
C297 C 0.02558 0.94827 0.34285 0.0
C298 C 0.14485 0.65156 0.34955 0.0
C299 C 0.08426 0.57233 0.35661 0.0
C300 C 0.12404 0.72895 0.35024 0.0
C301 C 0.04108 0.72863 0.35764 0.0
C302 C 0.98195 0.64977 0.3653 0.0
C303 C 0.00378 0.57289 0.36498 0.0
H304 H 0.26885 0.73973 0.59244 0.0
H305 H 0.33583 0.8075 0.65465 0.0
H306 H 0.40171 0.69583 0.5901 0.0
H307 H 0.46414 0.75854 0.65262 0.0
H308 H 0.73761 0.73313 0.63814 0.0
H309 H 0.60906 0.78048 0.64268 0.0
H310 H 0.44626 0.57785 0.59793 0.0
H311 H 0.57786 0.5343 0.59269 0.0
C312 C 0.31268 0.74653 0.60554 0.0
C313 C 0.29142 0.777 0.6237 0.0
C314 C 0.38787 0.71963 0.60432 0.0
C315 C 0.44254 0.72099 0.62129 0.0
C316 C 0.42428 0.75659 0.6392 0.0
C317 C 0.35039 0.78516 0.64035 0.0
C318 C 0.67328 0.69638 0.62981 0.0
C319 C 0.66765 0.62976 0.61511 0.0
C320 C 0.59941 0.72422 0.63226 0.0
C321 C 0.51754 0.68479 0.6203 0.0
C322 C 0.50927 0.61223 0.60689 0.0
C323 C 0.58389 0.5857 0.60417 0.0
H324 H 0.5281 0.53366 0.8299 0.0
H325 H 0.38703 0.45831 0.88314 0.0
H326 H 0.55702 0.39474 0.8281 0.0
H327 H 0.42125 0.32393 0.8822 0.0
H328 H 0.42926 0.0497 0.86762 0.0
H329 H 0.39175 0.18335 0.86829 0.0
H330 H 0.6479 0.32548 0.84211 0.0
H331 H 0.68178 0.18936 0.84029 0.0
C332 C 0.50259 0.48728 0.84111 0.0
C333 C 0.45456 0.50716 0.85653 0.0
C334 C 0.52047 0.40806 0.84029 0.0
C335 C 0.49249 0.34774 0.85513 0.0
C336 C 0.44272 0.36717 0.87028 0.0
C337 C 0.42321 0.44505 0.87085 0.0
C338 C 0.47813 0.10996 0.86229 0.0
C339 C 0.55851 0.10913 0.85393 0.0
C340 C 0.45669 0.18699 0.86265 0.0
C341 C 0.51624 0.26587 0.85508 0.0
C342 C 0.59883 0.26574 0.84755 0.0
C343 C 0.61915 0.18806 0.84678 0.0
H344 H 0.22849 0.29067 0.13323 0.0
H345 H 0.05806 0.06849 0.09388 0.0
H346 H 0.10102 0.33953 0.1373 0.0
H347 H 0.92749 0.11488 0.09848 0.0
H348 H 0.74505 0.2719 0.09077 0.0
H349 H 0.87738 0.22719 0.08837 0.0
H350 H 0.95982 0.32086 0.14921 0.0
H351 H 0.8315 0.36989 0.15121 0.0
C352 C 0.16214 0.24918 0.12635 0.0
C353 C 0.15285 0.17451 0.11363 0.0
C354 C 0.08883 0.27804 0.12842 0.0
C355 C 0.00377 0.23223 0.11797 0.0
C356 C -0.00737 0.15354 0.10632 0.0
C357 C 0.06673 0.12561 0.104 0.0
C358 C 0.79303 0.28524 0.10344 0.0
C359 C 0.77725 0.32432 0.12118 0.0
C360 C 0.86802 0.25795 0.10221 0.0
C361 C 0.92832 0.26798 0.11876 0.0
C362 C 0.91549 0.31208 0.13611 0.0
C363 C 0.8416 0.34073 0.13723 0.0
H364 H 0.94595 0.96328 0.64095 0.0
H365 H 0.13805 0.05781 0.59578 0.0
H366 H 0.91603 0.10195 0.64118 0.0
H367 H 0.1034 0.19104 0.5949 0.0
H368 H 0.07701 0.45887 0.60684 0.0
H369 H 0.11648 0.32691 0.60847 0.0
H370 H 0.83849 0.17322 0.62318 0.0
H371 H 0.80191 0.30777 0.62291 0.0
C372 C 0.9825 0.01379 0.63125 0.0
C373 C 0.04414 0.99883 0.61834 0.0
C374 C 0.96418 0.09281 0.63108 0.0
C375 C 0.00591 0.15785 0.61778 0.0
C376 C 0.07045 0.14398 0.60555 0.0
C377 C 0.09009 0.06648 0.60601 0.0
C378 C 0.02386 0.39628 0.60995 0.0
C379 C 0.93623 0.39331 0.61458 0.0
C380 C 0.04645 0.32024 0.61099 0.0
C381 C 0.98112 0.23865 0.61621 0.0
C382 C 0.8917 0.23498 0.61972 0.0
C383 C 0.86994 0.31165 0.61917 0.0
H384 H 0.75147 0.75544 0.8364 0.0
H385 H 0.91988 0.97338 0.87704 0.0
H386 H 0.88007 0.70779 0.83205 0.0
H387 H 0.05112 0.92867 0.87209 0.0
H388 H 0.23155 0.7713 0.88002 0.0
H389 H 0.09788 0.81398 0.88211 0.0
H390 H 0.02365 0.72874 0.82065 0.0
H391 H 0.15353 0.68166 0.81889 0.0
C392 C 0.81764 0.79624 0.84354 0.0
C393 C 0.82619 0.86902 0.85679 0.0
C394 C 0.89142 0.76814 0.84128 0.0
C395 C 0.97582 0.81305 0.85205 0.0
C396 C 0.98634 0.89057 0.86405 0.0
C397 C 0.91192 0.91762 0.86657 0.0
C398 C 0.18513 0.75939 0.86712 0.0
C399 C 0.20368 0.72347 0.8493 0.0
C400 C 0.1094 0.78549 0.86819 0.0
C401 C 0.05125 0.77748 0.85138 0.0
C402 C 0.06654 0.73606 0.83391 0.0
C403 C 0.14125 0.70857 0.83294 0.0
H404 H 0.46235 0.51442 0.14252 0.0
H405 H 0.56691 0.57956 0.08538 0.0
H406 H 0.43373 0.65372 0.14557 0.0
H407 H 0.5334 0.71451 0.08778 0.0
H408 H 0.53992 0.99176 0.10347 0.0
H409 H 0.57505 0.85707 0.10181 0.0
H410 H 0.33678 0.72427 0.13447 0.0
H411 H 0.3053 0.86181 0.13714 0.0
C412 C 0.47956 0.5586 0.13067 0.0
C413 C 0.51774 0.53619 0.11381 0.0
C414 C 0.46206 0.63802 0.13227 0.0
C415 C 0.48072 0.69593 0.11688 0.0
C416 C 0.5198 0.67333 0.10015 0.0
C417 C 0.53889 0.59526 0.09874 0.0
C418 C 0.49439 0.93352 0.11012 0.0
C419 C 0.41958 0.93745 0.12038 0.0
C420 C 0.51444 0.85579 0.10915 0.0
C421 C 0.459 0.77898 0.11803 0.0
C422 C 0.38245 0.78233 0.12782 0.0
C423 C 0.36352 0.86088 0.12914 0.0
H424 H 0.68068 0.14653 0.31947 0.0
H425 H 0.75508 0.2332 0.38083 0.0
H426 H 0.55204 0.19534 0.32086 0.0
H427 H 0.62211 0.27716 0.38259 0.0
H428 H 0.44481 0.43657 0.37774 0.0
H429 H 0.57601 0.3919 0.37297 0.0
H430 H 0.40828 0.17656 0.33128 0.0
H431 H 0.27985 0.22471 0.33533 0.0
C432 C 0.66776 0.17308 0.33349 0.0
C433 C 0.72889 0.1865 0.35003 0.0
C434 C 0.59367 0.20157 0.33426 0.0
C435 C 0.57744 0.24244 0.35171 0.0
C436 C 0.6343 0.24916 0.36867 0.0
C437 C 0.70961 0.22224 0.3678 0.0
C438 C 0.43751 0.38196 0.367 0.0
C439 C 0.35246 0.33467 0.35679 0.0
C440 C 0.51196 0.35489 0.36457 0.0
C441 C 0.50229 0.27863 0.35221 0.0
C442 C 0.41898 0.23565 0.34089 0.0
C443 C 0.34518 0.26392 0.34304 0.0
loop_
_geom_bond_atom_site_label_1
_geom_bond_atom_site_label_2
_geom_bond_distance
_geom_bond_site_symmetry_2
_ccdc_geom_bond_type
C0 O12 1.241 1_455 S
C0 O13 1.280 . S
C1 O14 1.277 . S
C1 O15 1.245 1_655 S
C2 O26 1.247 . S
C2 O28 1.289 . S
Mg3 O4 1.926 . S
Mg3 O13 1.984 . S
Mg3 O15 1.988 . S
Mg3 O16 2.061 . S
O4 Mg3 1.926 . S
O4 Mg5 1.986 1_455 S
O4 Mg6 1.917 . S
Mg5 O4 1.986 1_655 S
Mg5 O12 2.042 . S
Mg5 O14 2.041 . S
Mg5 O20 2.038 . S
Mg5 O28 2.238 . S
Mg6 O4 1.917 . S
Mg6 O7 1.917 1_455 S
Mg6 O17 2.106 . S
Mg6 O19 2.079 . S
Mg6 O28 2.106 1_455 S
Mg6 O29 2.079 . S
O7 Mg6 1.917 1_655 S
O7 Mg8 1.926 . S
O7 Mg9 1.986 1_655 S
Mg8 O7 1.926 . S
Mg8 O22 1.984 . S
Mg8 O25 1.988 . S
Mg8 O26 2.061 . S
Mg9 O7 1.986 1_455 S
Mg9 O17 2.238 . S
Mg9 O21 2.042 . S
Mg9 O23 2.041 . S
Mg9 O30 2.038 . S
C10 O16 1.247 . S
C10 O17 1.289 . S
C11 O29 1.245 . S
C11 O30 1.274 . S
O12 C0 1.241 1_655 S
O12 Mg5 2.042 . S
O13 C0 1.280 . S
O13 Mg3 1.984 . S
O14 C1 1.277 . S
O14 Mg5 2.041 . S
O15 C1 1.245 1_455 S
O15 Mg3 1.988 . S
O16 Mg3 2.061 . S
O16 C10 1.247 . S
O17 Mg6 2.106 . S
O17 Mg9 2.238 . S
O17 C10 1.289 . S
C18 O19 1.245 1_655 S
C18 O20 1.274 . S
O19 Mg6 2.079 . S
O19 C18 1.245 1_455 S
O20 Mg5 2.038 . S
O20 C18 1.274 . S
O21 Mg9 2.042 . S
O21 C24 1.241 1_455 S
O22 Mg8 1.984 . S
O22 C24 1.280 . S
O23 Mg9 2.041 . S
O23 C27 1.277 . S
C24 O21 1.241 1_655 S
C24 O22 1.280 . S
O25 Mg8 1.988 . S
O25 C27 1.245 1_655 S
O26 C2 1.247 . S
O26 Mg8 2.061 . S
C27 O23 1.277 . S
C27 O25 1.245 1_455 S
O28 C2 1.289 . S
O28 Mg5 2.238 . S
O28 Mg6 2.106 1_655 S
O29 Mg6 2.079 . S
O29 C11 1.245 . S
O30 Mg9 2.038 . S
O30 C11 1.274 . S
C31 O43 1.241 1_455 S
C31 O44 1.280 . S
C32 O45 1.277 . S
C32 O46 1.245 1_655 S
C33 O57 1.247 . S
C33 O59 1.289 . S
Mg34 O35 1.926 . S
Mg34 O44 1.984 . S
Mg34 O46 1.988 . S
Mg34 O47 2.061 . S
O35 Mg34 1.926 . S
O35 Mg36 1.986 1_455 S
O35 Mg37 1.917 . S
Mg36 O35 1.986 1_655 S
Mg36 O43 2.042 . S
Mg36 O45 2.041 . S
Mg36 O51 2.038 . S
Mg36 O59 2.238 . S
Mg37 O35 1.917 . S
Mg37 O38 1.917 1_455 S
Mg37 O48 2.106 . S
Mg37 O50 2.079 1_455 S
Mg37 O59 2.106 1_455 S
Mg37 O60 2.079 . S
O38 Mg37 1.917 1_655 S
O38 Mg39 1.926 . S
O38 Mg40 1.986 1_655 S
Mg39 O38 1.926 . S
Mg39 O53 1.984 . S
Mg39 O56 1.988 . S
Mg39 O57 2.061 . S
Mg40 O38 1.986 1_455 S
Mg40 O48 2.238 . S
Mg40 O52 2.042 . S
Mg40 O54 2.041 . S
Mg40 O61 2.038 . S
C41 O47 1.247 . S
C41 O48 1.289 . S
C42 O60 1.245 . S
C42 O61 1.274 . S
O43 C31 1.241 1_655 S
O43 Mg36 2.042 . S
O44 C31 1.280 . S
O44 Mg34 1.984 . S
O45 C32 1.277 . S
O45 Mg36 2.041 . S
O46 C32 1.245 1_455 S
O46 Mg34 1.988 . S
O47 Mg34 2.061 . S
O47 C41 1.247 . S
O48 Mg37 2.106 . S
O48 Mg40 2.238 . S
O48 C41 1.289 . S
C49 O50 1.245 . S
C49 O51 1.274 . S
O50 Mg37 2.079 1_655 S
O50 C49 1.245 . S
O51 Mg36 2.038 . S
O51 C49 1.274 . S
O52 Mg40 2.042 . S
O52 C55 1.241 1_455 S
O53 Mg39 1.984 . S
O53 C55 1.280 . S
O54 Mg40 2.041 . S
O54 C58 1.277 . S
C55 O52 1.241 1_655 S
C55 O53 1.280 . S
O56 Mg39 1.988 . S
O56 C58 1.245 1_655 S
O57 C33 1.247 . S
O57 Mg39 2.061 . S
C58 O54 1.277 . S
C58 O56 1.245 1_455 S
O59 C33 1.289 . S
O59 Mg36 2.238 . S
O59 Mg37 2.106 1_655 S
O60 Mg37 2.079 . S
O60 C42 1.245 . S
O61 Mg40 2.038 . S
O61 C42 1.274 . S
C62 O74 1.241 . S
C62 O75 1.280 . S
C63 O76 1.277 . S
C63 O77 1.245 . S
C64 O88 1.247 . S
C64 O90 1.289 . S
Mg65 O66 1.926 . S
Mg65 O75 1.984 . S
Mg65 O77 1.988 . S
Mg65 O78 2.061 . S
O66 Mg65 1.926 . S
O66 Mg67 1.986 . S
O66 Mg68 1.917 . S
Mg67 O66 1.986 . S
Mg67 O74 2.042 . S
Mg67 O76 2.041 . S
Mg67 O82 2.038 . S
Mg67 O90 2.238 . S
Mg68 O66 1.917 . S
Mg68 O69 1.917 . S
Mg68 O79 2.106 . S
Mg68 O81 2.079 . S
Mg68 O90 2.106 . S
Mg68 O91 2.079 . S
O69 Mg68 1.917 . S
O69 Mg70 1.926 . S
O69 Mg71 1.986 . S
Mg70 O69 1.926 . S
Mg70 O84 1.984 . S
Mg70 O87 1.988 . S
Mg70 O88 2.061 . S
Mg71 O69 1.986 . S
Mg71 O79 2.238 . S
Mg71 O83 2.042 . S
Mg71 O85 2.041 . S
Mg71 O92 2.038 . S
C72 O78 1.247 . S
C72 O79 1.289 . S
C73 O91 1.245 . S
C73 O92 1.274 . S
O74 C62 1.241 . S
O74 Mg67 2.042 . S
O75 C62 1.280 . S
O75 Mg65 1.984 . S
O76 C63 1.277 . S
O76 Mg67 2.041 . S
O77 C63 1.245 . S
O77 Mg65 1.988 . S
O78 Mg65 2.061 . S
O78 C72 1.247 . S
O79 Mg68 2.106 . S
O79 Mg71 2.238 . S
O79 C72 1.289 . S
C80 O81 1.245 . S
C80 O82 1.274 . S
O81 Mg68 2.079 . S
O81 C80 1.245 . S
O82 Mg67 2.038 . S
O82 C80 1.274 . S
O83 Mg71 2.042 . S
O83 C86 1.241 . S
O84 Mg70 1.984 . S
O84 C86 1.280 . S
O85 Mg71 2.041 . S
O85 C89 1.277 . S
C86 O83 1.241 . S
C86 O84 1.280 . S
O87 Mg70 1.988 . S
O87 C89 1.245 . S
O88 C64 1.247 . S
O88 Mg70 2.061 . S
C89 O85 1.277 . S
C89 O87 1.245 . S
O90 C64 1.289 . S
O90 Mg67 2.238 . S
O90 Mg68 2.106 . S
O91 Mg68 2.079 . S
O91 C73 1.245 . S
O92 Mg71 2.038 . S
O92 C73 1.274 . S
C93 O105 1.241 . S
C93 O106 1.280 . S
C94 O107 1.277 . S
C94 O108 1.245 . S
C95 O119 1.247 . S
C95 O121 1.289 . S
Mg96 O97 1.926 . S
Mg96 O106 1.984 . S
Mg96 O108 1.988 . S
Mg96 O109 2.061 . S
O97 Mg96 1.926 . S
O97 Mg98 1.986 . S
O97 Mg99 1.917 . S
Mg98 O97 1.986 . S
Mg98 O105 2.042 . S
Mg98 O107 2.041 . S
Mg98 O113 2.038 . S
Mg98 O121 2.238 . S
Mg99 O97 1.917 . S
Mg99 O100 1.917 . S
Mg99 O110 2.106 . S
Mg99 O112 2.079 . S
Mg99 O121 2.106 . S
Mg99 O122 2.079 . S
O100 Mg99 1.917 . S
O100 Mg101 1.926 . S
O100 Mg102 1.986 . S
Mg101 O100 1.926 . S
Mg101 O115 1.984 . S
Mg101 O118 1.988 . S
Mg101 O119 2.061 . S
Mg102 O100 1.986 . S
Mg102 O110 2.238 . S
Mg102 O114 2.042 . S
Mg102 O116 2.041 . S
Mg102 O123 2.038 . S
C103 O109 1.247 . S
C103 O110 1.289 . S
C104 O122 1.245 . S
C104 O123 1.274 . S
O105 C93 1.241 . S
O105 Mg98 2.042 . S
O106 C93 1.280 . S
O106 Mg96 1.984 . S
O107 C94 1.277 . S
O107 Mg98 2.041 . S
O108 C94 1.245 . S
O108 Mg96 1.988 . S
O109 Mg96 2.061 . S
O109 C103 1.247 . S
O110 Mg99 2.106 . S
O110 Mg102 2.238 . S
O110 C103 1.289 . S
C111 O112 1.245 . S
C111 O113 1.274 . S
O112 Mg99 2.079 . S
O112 C111 1.245 . S
O113 Mg98 2.038 . S
O113 C111 1.274 . S
O114 Mg102 2.042 . S
O114 C117 1.241 . S
O115 Mg101 1.984 . S
O115 C117 1.280 . S
O116 Mg102 2.041 . S
O116 C120 1.277 . S
C117 O114 1.241 . S
C117 O115 1.280 . S
O118 Mg101 1.988 . S
O118 C120 1.245 . S
O119 C95 1.247 . S
O119 Mg101 2.061 . S
C120 O116 1.277 . S
C120 O118 1.245 . S
O121 C95 1.289 . S
O121 Mg98 2.238 . S
O121 Mg99 2.106 . S
O122 Mg99 2.079 . S
O122 C104 1.245 . S
O123 Mg102 2.038 . S
O123 C104 1.274 . S
H124 C132 0.950 . S
H125 C137 0.950 . S
H126 C134 0.950 . S
H127 C136 0.950 . S
H128 C138 0.950 . S
H129 C140 0.950 . S
H130 C142 0.950 . S
H131 C143 0.950 . S
C132 H124 0.950 . S
C132 C133 1.386 . S
C132 C134 1.391 . S
C133 C132 1.386 . S
C133 C137 1.393 1_655 S
C134 H126 0.950 . S
C134 C132 1.391 . S
C134 C135 1.400 1_655 S
C135 C134 1.400 1_455 S
C135 C136 1.398 . S
C135 C141 1.491 . S
C136 H127 0.950 . S
C136 C135 1.398 . S
C136 C137 1.391 . S
C137 H125 0.950 . S
C137 C133 1.393 1_455 S
C137 C136 1.391 . S
C138 H128 0.950 . S
C138 C139 1.386 . S
C138 C140 1.391 . S
C139 C138 1.386 . S
C139 C143 1.393 1_455 S
C140 H129 0.950 . S
C140 C138 1.391 . S
C140 C141 1.400 . S
C141 C135 1.491 . S
C141 C140 1.400 . S
C141 C142 1.398 1_455 S
C142 H130 0.950 . S
C142 C141 1.398 1_655 S
C142 C143 1.391 . S
C143 H131 0.950 . S
C143 C139 1.393 1_655 S
C143 C142 1.391 . S
H144 C152 0.950 . S
H145 C157 0.950 . S
H146 C154 0.950 . S
H147 C156 0.950 . S
H148 C158 0.950 . S
H149 C160 0.950 . S
H150 C162 0.950 . S
H151 C163 0.950 . S
C152 H144 0.950 . S
C152 C153 1.386 . S
C152 C154 1.391 . S
C153 C152 1.386 . S
C153 C157 1.393 . S
C154 H146 0.950 . S
C154 C152 1.391 . S
C154 C155 1.400 . S
C155 C154 1.400 . S
C155 C156 1.398 . S
C155 C161 1.491 . S
C156 H147 0.950 . S
C156 C155 1.398 . S
C156 C157 1.391 . S
C157 H145 0.950 . S
C157 C153 1.393 . S
C157 C156 1.391 . S
C158 H148 0.950 . S
C158 C159 1.386 . S
C158 C160 1.391 . S
C159 C158 1.386 . S
C159 C163 1.393 . S
C160 H149 0.950 . S
C160 C158 1.391 . S
C160 C161 1.400 . S
C161 C155 1.491 . S
C161 C160 1.400 . S
C161 C162 1.398 . S
C162 H150 0.950 . S
C162 C161 1.398 . S
C162 C163 1.391 . S
C163 H151 0.950 . S
C163 C159 1.393 . S
C163 C162 1.391 . S
H164 C172 0.950 . S
H165 C177 0.950 . S
H166 C174 0.950 . S
H167 C176 0.950 . S
H168 C178 0.950 . S
H169 C180 0.950 . S
H170 C182 0.950 . S
H171 C183 0.950 . S
C172 H164 0.950 . S
C172 C173 1.386 . S
C172 C174 1.391 . S
C173 C172 1.386 . S
C173 C177 1.393 . S
C174 H166 0.950 . S
C174 C172 1.391 . S
C174 C175 1.400 . S
C175 C174 1.400 . S
C175 C176 1.398 . S
C175 C181 1.491 1_556 S
C176 H167 0.950 . S
C176 C175 1.398 . S
C176 C177 1.391 . S
C177 H165 0.950 . S
C177 C173 1.393 . S
C177 C176 1.391 . S
C178 H168 0.950 . S
C178 C179 1.386 . S
C178 C180 1.391 . S
C179 C178 1.386 . S
C179 C183 1.393 . S
C180 H169 0.950 . S
C180 C178 1.391 . S
C180 C181 1.400 . S
C181 C175 1.491 1_554 S
C181 C180 1.400 . S
C181 C182 1.398 . S
C182 H170 0.950 . S
C182 C181 1.398 . S
C182 C183 1.391 . S
C183 H171 0.950 . S
C183 C179 1.393 . S
C183 C182 1.391 . S
H184 C192 0.950 . S
H185 C197 0.950 . S
H186 C194 0.950 . S
H187 C196 0.950 . S
H188 C198 0.950 . S
H189 C200 0.950 . S
H190 C202 0.950 . S
H191 C203 0.950 . S
C192 H184 0.950 . S
C192 C193 1.386 . S
C192 C194 1.391 . S
C193 C192 1.386 . S
C193 C197 1.393 . S
C194 H186 0.950 . S
C194 C192 1.391 . S
C194 C195 1.400 . S
C195 C194 1.400 . S
C195 C196 1.398 . S
C195 C201 1.491 . S
C196 H187 0.950 . S
C196 C195 1.398 . S
C196 C197 1.391 . S
C197 H185 0.950 . S
C197 C193 1.393 . S
C197 C196 1.391 . S
C198 H188 0.950 . S
C198 C199 1.386 . S
C198 C200 1.391 . S
C199 C198 1.386 . S
C199 C203 1.393 . S
C200 H189 0.950 . S
C200 C198 1.391 . S
C200 C201 1.400 . S
C201 C195 1.491 . S
C201 C200 1.400 . S
C201 C202 1.398 . S
C202 H190 0.950 . S
C202 C201 1.398 . S
C202 C203 1.391 . S
C203 H191 0.950 . S
C203 C199 1.393 . S
C203 C202 1.391 . S
H204 C212 0.950 . S
H205 C217 0.950 . S
H206 C214 0.950 . S
H207 C216 0.950 . S
H208 C218 0.950 . S
H209 C220 0.950 . S
H210 C222 0.950 . S
H211 C223 0.950 . S
C212 H204 0.950 . S
C212 C213 1.386 . S
C212 C214 1.391 . S
C213 C212 1.386 . S
C213 C217 1.393 . S
C214 H206 0.950 . S
C214 C212 1.391 . S
C214 C215 1.400 . S
C215 C214 1.400 . S
C215 C216 1.398 . S
C215 C221 1.491 . S
C216 H207 0.950 . S
C216 C215 1.398 . S
C216 C217 1.391 . S
C217 H205 0.950 . S
C217 C213 1.393 . S
C217 C216 1.391 . S
C218 H208 0.950 . S
C218 C219 1.386 . S
C218 C220 1.391 . S
C219 C218 1.386 . S
C219 C223 1.393 . S
C220 H209 0.950 . S
C220 C218 1.391 . S
C220 C221 1.400 . S
C221 C215 1.491 . S
C221 C220 1.400 . S
C221 C222 1.398 . S
C222 H210 0.950 . S
C222 C221 1.398 . S
C222 C223 1.391 . S
C223 H211 0.950 . S
C223 C219 1.393 . S
C223 C222 1.391 . S
H224 C232 0.950 . S
H225 C237 0.950 . S
H226 C234 0.950 . S
H227 C236 0.950 . S
H228 C238 0.950 . S
H229 C240 0.950 . S
H230 C242 0.950 . S
H231 C243 0.950 . S
C232 H224 0.950 . S
C232 C233 1.386 . S
C232 C234 1.391 . S
C233 C232 1.386 . S
C233 C237 1.393 . S
C234 H226 0.950 . S
C234 C232 1.391 . S
C234 C235 1.400 . S
C235 C234 1.400 . S
C235 C236 1.398 . S
C235 C241 1.491 . S
C236 H227 0.950 . S
C236 C235 1.398 . S
C236 C237 1.391 . S
C237 H225 0.950 . S
C237 C233 1.393 . S
C237 C236 1.391 . S
C238 H228 0.950 . S
C238 C239 1.386 . S
C238 C240 1.391 . S
C239 C238 1.386 . S
C239 C243 1.393 . S
C240 H229 0.950 . S
C240 C238 1.391 . S
C240 C241 1.400 . S
C241 C235 1.491 . S
C241 C240 1.400 . S
C241 C242 1.398 . S
C242 H230 0.950 . S
C242 C241 1.398 . S
C242 C243 1.391 . S
C243 H231 0.950 . S
C243 C239 1.393 . S
C243 C242 1.391 . S
H244 C252 0.950 . S
H245 C257 0.951 . S
H246 C254 0.950 . S
H247 C256 0.950 . S
H248 C258 0.950 . S
H249 C260 0.950 . S
H250 C262 0.950 . S
H251 C263 0.951 . S
C252 H244 0.950 . S
C252 C253 1.386 . S
C252 C254 1.391 . S
C253 C252 1.386 . S
C253 C257 1.393 . S
C254 H246 0.950 . S
C254 C252 1.391 . S
C254 C255 1.400 . S
C255 C254 1.400 . S
C255 C256 1.398 1_565 S
C255 C261 1.491 1_566 S
C256 H247 0.950 . S
C256 C255 1.398 1_545 S
C256 C257 1.391 1_545 S
C257 H245 0.951 . S
C257 C253 1.393 . S
C257 C256 1.391 1_565 S
C258 H248 0.950 . S
C258 C259 1.386 . S
C258 C260 1.391 . S
C259 C258 1.386 . S
C259 C263 1.393 . S
C260 H249 0.950 . S
C260 C258 1.391 . S
C260 C261 1.400 . S
C261 C255 1.491 1_544 S
C261 C260 1.400 . S
C261 C262 1.398 1_545 S
C262 H250 0.950 . S
C262 C261 1.398 1_565 S
C262 C263 1.391 1_565 S
C263 H251 0.951 . S
C263 C259 1.393 . S
C263 C262 1.391 1_545 S
H264 C272 0.950 . S
H265 C277 0.950 . S
H266 C274 0.950 . S
H267 C276 0.950 . S
H268 C278 0.950 . S
H269 C280 0.950 . S
H270 C282 0.950 . S
H271 C283 0.950 . S
C272 H264 0.950 . S
C272 C273 1.386 1_655 S
C272 C274 1.391 . S
C273 C272 1.386 1_455 S
C273 C277 1.393 . S
C274 H266 0.950 . S
C274 C272 1.391 . S
C274 C275 1.400 1_655 S
C275 C274 1.400 1_455 S
C275 C276 1.398 . S
C275 C281 1.491 1_445 S
C276 H267 0.950 . S
C276 C275 1.398 . S
C276 C277 1.391 . S
C277 H265 0.950 . S
C277 C273 1.393 . S
C277 C276 1.391 . S
C278 H268 0.950 . S
C278 C279 1.386 1_455 S
C278 C280 1.391 . S
C279 C278 1.386 1_655 S
C279 C283 1.393 . S
C280 H269 0.950 . S
C280 C278 1.391 . S
C280 C281 1.400 1_455 S
C281 C275 1.491 1_665 S
C281 C280 1.400 1_655 S
C281 C282 1.398 . S
C282 H270 0.950 . S
C282 C281 1.398 . S
C282 C283 1.391 . S
C283 H271 0.950 . S
C283 C279 1.393 . S
C283 C282 1.391 . S
H284 C292 0.950 . S
H285 C297 0.950 1_545 S
H286 C294 0.950 . S
H287 C296 0.950 . S
H288 C298 0.950 . S
H289 C300 0.950 . S
H290 C302 0.950 . S
H291 C303 0.950 . S
C292 H284 0.950 . S
C292 C293 1.386 . S
C292 C294 1.391 . S
C293 C292 1.386 . S
C293 C297 1.393 1_655 S
C294 H286 0.950 . S
C294 C292 1.391 . S
C294 C295 1.400 1_655 S
C295 C294 1.400 1_455 S
C295 C296 1.398 . S
C295 C301 1.491 . S
C296 H287 0.950 . S
C296 C295 1.398 . S
C296 C297 1.391 . S
C297 H285 0.950 1_565 S
C297 C293 1.393 1_455 S
C297 C296 1.391 . S
C298 H288 0.950 . S
C298 C299 1.386 . S
C298 C300 1.391 . S
C299 C298 1.386 . S
C299 C303 1.393 1_455 S
C300 H289 0.950 . S
C300 C298 1.391 . S
C300 C301 1.400 . S
C301 C295 1.491 . S
C301 C300 1.400 . S
C301 C302 1.398 1_455 S
C302 H290 0.950 . S
C302 C301 1.398 1_655 S
C302 C303 1.391 . S
C303 H291 0.950 . S
C303 C299 1.393 1_655 S
C303 C302 1.391 . S
H304 C312 0.950 . S
H305 C317 0.950 . S
H306 C314 0.950 . S
H307 C316 0.950 . S
H308 C318 0.950 . S
H309 C320 0.950 . S
H310 C322 0.950 . S
H311 C323 0.950 . S
C312 H304 0.950 . S
C312 C313 1.386 . S
C312 C314 1.391 . S
C313 C312 1.386 . S
C313 C317 1.393 . S
C314 H306 0.950 . S
C314 C312 1.391 . S
C314 C315 1.400 . S
C315 C314 1.400 . S
C315 C316 1.398 . S
C315 C321 1.491 . S
C316 H307 0.950 . S
C316 C315 1.398 . S
C316 C317 1.391 . S
C317 H305 0.950 . S
C317 C313 1.393 . S
C317 C316 1.391 . S
C318 H308 0.950 . S
C318 C319 1.386 . S
C318 C320 1.391 . S
C319 C318 1.386 . S
C319 C323 1.393 . S
C320 H309 0.950 . S
C320 C318 1.391 . S
C320 C321 1.400 . S
C321 C315 1.491 . S
C321 C320 1.400 . S
C321 C322 1.398 . S
C322 H310 0.950 . S
C322 C321 1.398 . S
C322 C323 1.391 . S
C323 H311 0.950 . S
C323 C319 1.393 . S
C323 C322 1.391 . S
H324 C332 0.950 . S
H325 C337 0.950 . S
H326 C334 0.950 . S
H327 C336 0.950 . S
H328 C338 0.950 1_565 S
H329 C340 0.950 . S
H330 C342 0.950 . S
H331 C343 0.950 . S
C332 H324 0.950 . S
C332 C333 1.386 . S
C332 C334 1.391 . S
C333 C332 1.386 . S
C333 C337 1.393 . S
C334 H326 0.950 . S
C334 C332 1.391 . S
C334 C335 1.400 . S
C335 C334 1.400 . S
C335 C336 1.398 . S
C335 C341 1.491 . S
C336 H327 0.950 . S
C336 C335 1.398 . S
C336 C337 1.391 . S
C337 H325 0.950 . S
C337 C333 1.393 . S
C337 C336 1.391 . S
C338 H328 0.950 1_545 S
C338 C339 1.386 . S
C338 C340 1.391 . S
C339 C338 1.386 . S
C339 C343 1.393 . S
C340 H329 0.950 . S
C340 C338 1.391 . S
C340 C341 1.400 . S
C341 C335 1.491 . S
C341 C340 1.400 . S
C341 C342 1.398 . S
C342 H330 0.950 . S
C342 C341 1.398 . S
C342 C343 1.391 . S
C343 H331 0.950 . S
C343 C339 1.393 . S
C343 C342 1.391 . S
H344 C352 0.950 . S
H345 C357 0.950 . S
H346 C354 0.950 . S
H347 C356 0.950 . S
H348 C358 0.950 . S
H349 C360 0.950 . S
H350 C362 0.950 . S
H351 C363 0.950 . S
C352 H344 0.950 . S
C352 C353 1.386 . S
C352 C354 1.391 . S
C353 C352 1.386 . S
C353 C357 1.393 . S
C354 H346 0.950 . S
C354 C352 1.391 . S
C354 C355 1.400 . S
C355 C354 1.400 . S
C355 C356 1.398 . S
C355 C361 1.491 1_455 S
C356 H347 0.950 . S
C356 C355 1.398 . S
C356 C357 1.391 . S
C357 H345 0.950 . S
C357 C353 1.393 . S
C357 C356 1.391 . S
C358 H348 0.950 . S
C358 C359 1.386 . S
C358 C360 1.391 . S
C359 C358 1.386 . S
C359 C363 1.393 . S
C360 H349 0.950 . S
C360 C358 1.391 . S
C360 C361 1.400 . S
C361 C355 1.491 1_655 S
C361 C360 1.400 . S
C361 C362 1.398 . S
C362 H350 0.950 . S
C362 C361 1.398 . S
C362 C363 1.391 . S
C363 H351 0.950 . S
C363 C359 1.393 . S
C363 C362 1.391 . S
H364 C372 0.950 . S
H365 C377 0.950 . S
H366 C374 0.950 . S
H367 C376 0.950 . S
H368 C378 0.950 . S
H369 C380 0.950 . S
H370 C382 0.950 . S
H371 C383 0.950 . S
C372 H364 0.950 . S
C372 C373 1.386 1_655 S
C372 C374 1.391 . S
C373 C372 1.386 1_455 S
C373 C377 1.393 . S
C374 H366 0.950 . S
C374 C372 1.391 . S
C374 C375 1.400 1_655 S
C375 C374 1.400 1_455 S
C375 C376 1.398 . S
C375 C381 1.491 1_455 S
C376 H367 0.950 . S
C376 C375 1.398 . S
C376 C377 1.391 . S
C377 H365 0.950 . S
C377 C373 1.393 . S
C377 C376 1.391 . S
C378 H368 0.950 . S
C378 C379 1.386 1_455 S
C378 C380 1.391 . S
C379 C378 1.386 1_655 S
C379 C383 1.393 . S
C380 H369 0.950 . S
C380 C378 1.391 . S
C380 C381 1.400 1_455 S
C381 C375 1.491 1_655 S
C381 C380 1.400 1_655 S
C381 C382 1.398 . S
C382 H370 0.950 . S
C382 C381 1.398 . S
C382 C383 1.391 . S
C383 H371 0.950 . S
C383 C379 1.393 . S
C383 C382 1.391 . S
H384 C392 0.950 . S
H385 C397 0.950 . S
H386 C394 0.950 . S
H387 C396 0.950 1_455 S
H388 C398 0.950 . S
H389 C400 0.950 . S
H390 C402 0.950 . S
H391 C403 0.950 . S
C392 H384 0.950 . S
C392 C393 1.386 . S
C392 C394 1.391 . S
C393 C392 1.386 . S
C393 C397 1.393 . S
C394 H386 0.950 . S
C394 C392 1.391 . S
C394 C395 1.400 . S
C395 C394 1.400 . S
C395 C396 1.398 . S
C395 C401 1.491 1_655 S
C396 H387 0.950 1_655 S
C396 C395 1.398 . S
C396 C397 1.391 . S
C397 H385 0.950 . S
C397 C393 1.393 . S
C397 C396 1.391 . S
C398 H388 0.950 . S
C398 C399 1.386 . S
C398 C400 1.391 . S
C399 C398 1.386 . S
C399 C403 1.393 . S
C400 H389 0.950 . S
C400 C398 1.391 . S
C400 C401 1.400 . S
C401 C395 1.491 1_455 S
C401 C400 1.400 . S
C401 C402 1.398 . S
C402 H390 0.950 . S
C402 C401 1.398 . S
C402 C403 1.391 . S
C403 H391 0.950 . S
C403 C399 1.393 . S
C403 C402 1.391 . S
H404 C412 0.950 . S
H405 C417 0.950 . S
H406 C414 0.950 . S
H407 C416 0.950 . S
H408 C418 0.950 . S
H409 C420 0.950 . S
H410 C422 0.950 . S
H411 C423 0.950 . S
C412 H404 0.950 . S
C412 C413 1.386 . S
C412 C414 1.391 . S
C413 C412 1.386 . S
C413 C417 1.393 . S
C414 H406 0.950 . S
C414 C412 1.391 . S
C414 C415 1.400 . S
C415 C414 1.400 . S
C415 C416 1.398 . S
C415 C421 1.491 . S
C416 H407 0.950 . S
C416 C415 1.398 . S
C416 C417 1.391 . S
C417 H405 0.950 . S
C417 C413 1.393 . S
C417 C416 1.391 . S
C418 H408 0.950 . S
C418 C419 1.386 . S
C418 C420 1.391 . S
C419 C418 1.386 . S
C419 C423 1.393 . S
C420 H409 0.950 . S
C420 C418 1.391 . S
C420 C421 1.400 . S
C421 C415 1.491 . S
C421 C420 1.400 . S
C421 C422 1.398 . S
C422 H410 0.950 . S
C422 C421 1.398 . S
C422 C423 1.391 . S
C423 H411 0.950 . S
C423 C419 1.393 . S
C423 C422 1.391 . S
H424 C432 0.950 . S
H425 C437 0.950 . S
H426 C434 0.950 . S
H427 C436 0.950 . S
H428 C438 0.950 . S
H429 C440 0.950 . S
H430 C442 0.950 . S
H431 C443 0.950 . S
C432 H424 0.950 . S
C432 C433 1.386 . S
C432 C434 1.391 . S
C433 C432 1.386 . S
C433 C437 1.393 . S
C434 H426 0.950 . S
C434 C432 1.391 . S
C434 C435 1.400 . S
C435 C434 1.400 . S
C435 C436 1.398 . S
C435 C441 1.491 . S
C436 H427 0.950 . S
C436 C435 1.398 . S
C436 C437 1.391 . S
C437 H425 0.950 . S
C437 C433 1.393 . S
C437 C436 1.391 . S
C438 H428 0.950 . S
C438 C439 1.386 . S
C438 C440 1.391 . S
C439 C438 1.386 . S
C439 C443 1.393 . S
C440 H429 0.950 . S
C440 C438 1.391 . S
C440 C441 1.400 . S
C441 C435 1.491 . S
C441 C440 1.400 . S
C441 C442 1.398 . S
C442 H430 0.950 . S
C442 C441 1.398 . S
C442 C443 1.391 . S
C443 H431 0.950 . S
C443 C439 1.393 . S
C443 C442 1.391 . S
C133 C1 1.252 . S
C139 C58 1.252 . S
C153 C89 1.883 . S
C159 C32 1.883 . S
C173 C62 1.313 . S
C179 C117 1.313 . S
C193 C24 1.374 . S
C199 C93 1.374 . S
C213 C94 1.884 . S
C219 C27 1.884 . S
C233 C31 1.416 . S
C239 C86 1.416 . S
C253 C63 1.251 . S
C259 C120 1.251 . S
C273 C0 1.317 . S
C279 C55 1.317 . S
C293 C18 1.673 1_565 S
C299 C11 1.673 . S
C313 C41 1.358 . S
C319 C33 1.358 . S
C333 C80 1.660 . S
C339 C73 1.660 1_545 S
C353 C95 1.347 . S
C359 C103 1.347 . S
C373 C42 1.673 1_545 S
C379 C49 1.673 . S
C393 C72 1.363 . S
C399 C64 1.363 . S
C413 C104 1.672 . S
C419 C111 1.672 1_565 S
C433 C2 1.362 . S
C439 C10 1.362 . S
