# Generated by pormake.
# Topology pcu-i, (5)-cn, num edge types: 1
# Building blocks:
#     Node 0, Type 0, BuildingBlock: XOMCOT_clean_sbu_0, # of connection points: 5
#     Node 1, Type 0, BuildingBlock: XOMCOT_clean_sbu_0, # of connection points: 5
#     Node 2, Type 0, BuildingBlock: XOMCOT_clean_sbu_0, # of connection points: 5
#     Node 3, Type 0, BuildingBlock: XOMCOT_clean_sbu_0, # of connection points: 5
#     Node 4, Type 0, BuildingBlock: XOMCOT_clean_sbu_0, # of connection points: 5
#     Node 5, Type 0, BuildingBlock: XOMCOT_clean_sbu_0, # of connection points: 5
#     Node 6, Type 0, BuildingBlock: XOMCOT_clean_sbu_0, # of connection points: 5
#     Node 7, Type 0, BuildingBlock: XOMCOT_clean_sbu_0, # of connection points: 5
#     Node 8, Type 0, BuildingBlock: XOMCOT_clean_sbu_0, # of connection points: 5
#     Node 9, Type 0, BuildingBlock: XOMCOT_clean_sbu_0, # of connection points: 5
#     Node 10, Type 0, BuildingBlock: XOMCOT_clean_sbu_0, # of connection points: 5
#     Node 11, Type 0, BuildingBlock: XOMCOT_clean_sbu_0, # of connection points: 5
#     Node 12, Type 0, BuildingBlock: XOMCOT_clean_sbu_0, # of connection points: 5
#     Node 13, Type 0, BuildingBlock: XOMCOT_clean_sbu_0, # of connection points: 5
#     Node 14, Type 0, BuildingBlock: XOMCOT_clean_sbu_0, # of connection points: 5
#     Node 15, Type 0, BuildingBlock: XOMCOT_clean_sbu_0, # of connection points: 5
#     Node 16, Type 0, BuildingBlock: XOMCOT_clean_sbu_0, # of connection points: 5
#     Node 17, Type 0, BuildingBlock: XOMCOT_clean_sbu_0, # of connection points: 5
#     Node 18, Type 0, BuildingBlock: XOMCOT_clean_sbu_0, # of connection points: 5
#     Node 19, Type 0, BuildingBlock: XOMCOT_clean_sbu_0, # of connection points: 5
#     Node 20, Type 0, BuildingBlock: XOMCOT_clean_sbu_0, # of connection points: 5
#     Node 21, Type 0, BuildingBlock: XOMCOT_clean_sbu_0, # of connection points: 5
#     Node 22, Type 0, BuildingBlock: XOMCOT_clean_sbu_0, # of connection points: 5
#     Node 23, Type 0, BuildingBlock: XOMCOT_clean_sbu_0, # of connection points: 5
#     Edge 24, Type (0, 0), BuildingBlock: CIFDUS_clean_linker_0, # of connection points: 2
#     Edge 25, Type (0, 0), BuildingBlock: CIFDUS_clean_linker_0, # of connection points: 2
#     Edge 26, Type (0, 0), BuildingBlock: CIFDUS_clean_linker_0, # of connection points: 2
#     Edge 27, Type (0, 0), BuildingBlock: CIFDUS_clean_linker_0, # of connection points: 2
#     Edge 28, Type (0, 0), BuildingBlock: CIFDUS_clean_linker_0, # of connection points: 2
#     Edge 29, Type (0, 0), BuildingBlock: CIFDUS_clean_linker_0, # of connection points: 2
#     Edge 30, Type (0, 0), BuildingBlock: CIFDUS_clean_linker_0, # of connection points: 2
#     Edge 31, Type (0, 0), BuildingBlock: CIFDUS_clean_linker_0, # of connection points: 2
#     Edge 32, Type (0, 0), BuildingBlock: CIFDUS_clean_linker_0, # of connection points: 2
#     Edge 33, Type (0, 0), BuildingBlock: CIFDUS_clean_linker_0, # of connection points: 2
#     Edge 34, Type (0, 0), BuildingBlock: CIFDUS_clean_linker_0, # of connection points: 2
#     Edge 35, Type (0, 0), BuildingBlock: CIFDUS_clean_linker_0, # of connection points: 2
#     Edge 36, Type (0, 0), BuildingBlock: CIFDUS_clean_linker_0, # of connection points: 2
#     Edge 37, Type (0, 0), BuildingBlock: CIFDUS_clean_linker_0, # of connection points: 2
#     Edge 38, Type (0, 0), BuildingBlock: CIFDUS_clean_linker_0, # of connection points: 2
#     Edge 39, Type (0, 0), BuildingBlock: CIFDUS_clean_linker_0, # of connection points: 2
#     Edge 40, Type (0, 0), BuildingBlock: CIFDUS_clean_linker_0, # of connection points: 2
#     Edge 41, Type (0, 0), BuildingBlock: CIFDUS_clean_linker_0, # of connection points: 2
#     Edge 42, Type (0, 0), BuildingBlock: CIFDUS_clean_linker_0, # of connection points: 2
#     Edge 43, Type (0, 0), BuildingBlock: CIFDUS_clean_linker_0, # of connection points: 2
#     Edge 44, Type (0, 0), BuildingBlock: CIFDUS_clean_linker_0, # of connection points: 2
#     Edge 45, Type (0, 0), BuildingBlock: CIFDUS_clean_linker_0, # of connection points: 2
#     Edge 46, Type (0, 0), BuildingBlock: CIFDUS_clean_linker_0, # of connection points: 2
#     Edge 47, Type (0, 0), BuildingBlock: CIFDUS_clean_linker_0, # of connection points: 2
#     Edge 48, Type (0, 0), BuildingBlock: CIFDUS_clean_linker_0, # of connection points: 2
#     Edge 49, Type (0, 0), BuildingBlock: CIFDUS_clean_linker_0, # of connection points: 2
#     Edge 50, Type (0, 0), BuildingBlock: CIFDUS_clean_linker_0, # of connection points: 2
#     Edge 51, Type (0, 0), BuildingBlock: CIFDUS_clean_linker_0, # of connection points: 2
#     Edge 52, Type (0, 0), BuildingBlock: CIFDUS_clean_linker_0, # of connection points: 2
#     Edge 53, Type (0, 0), BuildingBlock: CIFDUS_clean_linker_0, # of connection points: 2
#     Edge 54, Type (0, 0), BuildingBlock: CIFDUS_clean_linker_0, # of connection points: 2
#     Edge 55, Type (0, 0), BuildingBlock: CIFDUS_clean_linker_0, # of connection points: 2
#     Edge 56, Type (0, 0), BuildingBlock: CIFDUS_clean_linker_0, # of connection points: 2
#     Edge 57, Type (0, 0), BuildingBlock: CIFDUS_clean_linker_0, # of connection points: 2
#     Edge 58, Type (0, 0), BuildingBlock: CIFDUS_clean_linker_0, # of connection points: 2
#     Edge 59, Type (0, 0), BuildingBlock: CIFDUS_clean_linker_0, # of connection points: 2
#     Edge 60, Type (0, 0), BuildingBlock: CIFDUS_clean_linker_0, # of connection points: 2
#     Edge 61, Type (0, 0), BuildingBlock: CIFDUS_clean_linker_0, # of connection points: 2
#     Edge 62, Type (0, 0), BuildingBlock: CIFDUS_clean_linker_0, # of connection points: 2
#     Edge 63, Type (0, 0), BuildingBlock: CIFDUS_clean_linker_0, # of connection points: 2
#     Edge 64, Type (0, 0), BuildingBlock: CIFDUS_clean_linker_0, # of connection points: 2
#     Edge 65, Type (0, 0), BuildingBlock: CIFDUS_clean_linker_0, # of connection points: 2
#     Edge 66, Type (0, 0), BuildingBlock: CIFDUS_clean_linker_0, # of connection points: 2
#     Edge 67, Type (0, 0), BuildingBlock: CIFDUS_clean_linker_0, # of connection points: 2
#     Edge 68, Type (0, 0), BuildingBlock: CIFDUS_clean_linker_0, # of connection points: 2
#     Edge 69, Type (0, 0), BuildingBlock: CIFDUS_clean_linker_0, # of connection points: 2
#     Edge 70, Type (0, 0), BuildingBlock: CIFDUS_clean_linker_0, # of connection points: 2
#     Edge 71, Type (0, 0), BuildingBlock: CIFDUS_clean_linker_0, # of connection points: 2
#     Edge 72, Type (0, 0), BuildingBlock: CIFDUS_clean_linker_0, # of connection points: 2
#     Edge 73, Type (0, 0), BuildingBlock: CIFDUS_clean_linker_0, # of connection points: 2
#     Edge 74, Type (0, 0), BuildingBlock: CIFDUS_clean_linker_0, # of connection points: 2
#     Edge 75, Type (0, 0), BuildingBlock: CIFDUS_clean_linker_0, # of connection points: 2
#     Edge 76, Type (0, 0), BuildingBlock: CIFDUS_clean_linker_0, # of connection points: 2
#     Edge 77, Type (0, 0), BuildingBlock: CIFDUS_clean_linker_0, # of connection points: 2
#     Edge 78, Type (0, 0), BuildingBlock: CIFDUS_clean_linker_0, # of connection points: 2
#     Edge 79, Type (0, 0), BuildingBlock: CIFDUS_clean_linker_0, # of connection points: 2
#     Edge 80, Type (0, 0), BuildingBlock: CIFDUS_clean_linker_0, # of connection points: 2
#     Edge 81, Type (0, 0), BuildingBlock: CIFDUS_clean_linker_0, # of connection points: 2
#     Edge 82, Type (0, 0), BuildingBlock: CIFDUS_clean_linker_0, # of connection points: 2
#     Edge 83, Type (0, 0), BuildingBlock: CIFDUS_clean_linker_0, # of connection points: 2
# Relax obj value: 0.308
# Max RMSD: 0.282
# Mean RMSD: 0.282
data_MOF--net-pcu-i--node1-XOMCOT_clean_sbu_0--edge1-CIFDUS_clean_linker_0
_symmetry_space_group_name_H-M    P1
_symmetry_Int_Tables_number       1
_symmetry_cell_setting            triclinic
loop_
_symmetry_equiv_pos_as_xyz
'x, y, z'
_cell_length_a     50.294889
_cell_length_b     50.135219
_cell_length_c     50.40529
_cell_angle_alpha  89.844391
_cell_angle_beta   90.195705
_cell_angle_gamma 89.914947
loop_
_atom_site_label
_atom_site_type_symbol
_atom_site_fract_x
_atom_site_fract_y
_atom_site_fract_z
_atom_type_partial_charge
Co0 Co 0.13518 0.15024 0.33904 0.0
C1 C 0.07653 0.14064 0.34333 0.0
C2 C 0.08553 0.18062 0.33123 0.0
C3 C 0.05865 0.1771 0.32935 0.0
N4 N 0.09707 0.15777 0.33989 0.0
N5 N 0.05304 0.15198 0.33667 0.0
H6 H 0.07864 0.11997 0.34917 0.0
H7 H 0.09564 0.19877 0.3258 0.0
C8 C 0.15172 0.20749 0.32707 0.0
O9 O 0.165 0.20932 0.34946 0.0
N10 N 0.17337 0.14289 0.33619 0.0
C11 C 0.18654 0.12018 0.34273 0.0
C12 C 0.21178 0.12096 0.33231 0.0
C13 C 0.19086 0.15657 0.32109 0.0
N14 N 0.21437 0.14395 0.31878 0.0
C15 C 0.15387 0.14878 0.39191 0.0
C16 C 0.12745 0.1925 0.41186 0.0
C17 C 0.14255 0.17643 0.42914 0.0
C18 C 0.15606 0.15461 0.41866 0.0
C19 C 0.1264 0.1863 0.38462 0.0
N20 N 0.13969 0.16457 0.37487 0.0
H21 H 0.16238 0.13034 0.38545 0.0
H22 H 0.11457 0.19871 0.37166 0.0
H23 H 0.17807 0.10325 0.35296 0.0
H24 H 0.18597 0.17398 0.30952 0.0
O25 O 0.12877 0.11413 0.34987 0.0
O26 O 0.13005 0.12778 0.30797 0.0
O27 O 0.14043 0.18564 0.32053 0.0
C28 C 0.12753 0.10817 0.32488 0.0
H29 H 0.04428 0.1918 0.3227 0.0
H30 H 0.22653 0.10525 0.33341 0.0
H31 H 0.11631 0.20936 0.41937 0.0
H32 H 0.16699 0.14099 0.4314 0.0
Co33 Co 0.85651 0.13873 0.34311 0.0
C34 C 0.86731 0.08012 0.33865 0.0
C35 C 0.82673 0.08893 0.34835 0.0
C36 C 0.82896 0.06194 0.34407 0.0
N37 N 0.85067 0.10046 0.34466 0.0
N38 N 0.85443 0.05655 0.33796 0.0
H39 H 0.88815 0.08231 0.334 0.0
H40 H 0.80866 0.09956 0.35316 0.0
C41 C 0.80572 0.15954 0.3159 0.0
O42 O 0.8105 0.18464 0.32139 0.0
N43 N 0.86243 0.17689 0.34085 0.0
C44 C 0.86848 0.19391 0.36063 0.0
C45 C 0.87257 0.2189 0.3499 0.0
C46 C 0.86417 0.19145 0.31836 0.0
N47 N 0.86956 0.21733 0.32334 0.0
C48 C 0.8522 0.12912 0.39794 0.0
C49 C 0.81435 0.16744 0.40938 0.0
C50 C 0.82858 0.15543 0.4301 0.0
C51 C 0.84698 0.13543 0.42427 0.0
C52 C 0.82035 0.16063 0.38311 0.0
N53 N 0.83993 0.1425 0.37771 0.0
H54 H 0.86745 0.11455 0.39373 0.0
H55 H 0.81064 0.17144 0.36747 0.0
H56 H 0.87002 0.18856 0.38137 0.0
H57 H 0.86118 0.18323 0.29874 0.0
O58 O 0.89232 0.13476 0.35561 0.0
O59 O 0.88037 0.13425 0.31316 0.0
O60 O 0.82147 0.14099 0.32348 0.0
C61 C 0.89931 0.13325 0.33092 0.0
H62 H 0.81317 0.04735 0.34536 0.0
H63 H 0.87699 0.23689 0.36088 0.0
H64 H 0.79989 0.18294 0.41337 0.0
H65 H 0.85808 0.12556 0.43994 0.0
Co66 Co 0.86818 0.8614 0.33287 0.0
C67 C 0.92697 0.87205 0.33177 0.0
C68 C 0.91761 0.83088 0.33878 0.0
C69 C 0.94475 0.83324 0.33654 0.0
N70 N 0.90633 0.85511 0.33546 0.0
N71 N 0.9505 0.85905 0.33212 0.0
H72 H 0.92505 0.89326 0.32838 0.0
H73 H 0.90682 0.8126 0.34239 0.0
C74 C 0.84743 0.80869 0.30895 0.0
O75 O 0.82272 0.81295 0.31596 0.0
N76 N 0.83031 0.86776 0.3289 0.0
C77 C 0.81313 0.87858 0.34635 0.0
C78 C 0.78886 0.8822 0.33381 0.0
C79 C 0.81669 0.86611 0.30586 0.0
N80 N 0.79123 0.87399 0.30848 0.0
C81 C 0.87912 0.85749 0.38765 0.0
C82 C 0.83523 0.82792 0.40232 0.0
C83 C 0.85001 0.84105 0.42188 0.0
C84 C 0.87277 0.85504 0.41441 0.0
C85 C 0.84236 0.83081 0.37556 0.0
N86 N 0.86345 0.84643 0.3684 0.0
H87 H 0.89543 0.8704 0.38232 0.0
H88 H 0.82934 0.82259 0.36089 0.0
H89 H 0.81796 0.88376 0.36662 0.0
H90 H 0.82525 0.85906 0.28748 0.0
O91 O 0.87225 0.89757 0.34419 0.0
O92 O 0.87342 0.88451 0.30213 0.0
O93 O 0.86583 0.82541 0.31451 0.0
C94 C 0.87402 0.90396 0.31934 0.0
H95 H 0.95921 0.81732 0.33834 0.0
H96 H 0.77081 0.88982 0.34267 0.0
H97 H 0.81725 0.81724 0.40746 0.0
H98 H 0.8845 0.86565 0.42903 0.0
Co99 Co 0.14746 0.87251 0.33663 0.0
C100 C 0.13571 0.93108 0.33757 0.0
C101 C 0.17653 0.92205 0.34639 0.0
C102 C 0.17387 0.94929 0.34425 0.0
N103 N 0.15269 0.91053 0.34193 0.0
N104 N 0.14827 0.9548 0.33869 0.0
H105 H 0.1149 0.92897 0.3326 0.0
H106 H 0.19486 0.91132 0.35002 0.0
C107 C 0.19975 0.85448 0.31055 0.0
O108 O 0.19487 0.82911 0.31465 0.0
N109 N 0.14217 0.83485 0.32996 0.0
C110 C 0.13504 0.81507 0.34658 0.0
C111 C 0.13166 0.79202 0.33193 0.0
C112 C 0.14173 0.82398 0.30556 0.0
N113 N 0.13608 0.79766 0.30605 0.0
C114 C 0.15187 0.87837 0.39225 0.0
C115 C 0.18683 0.8369 0.40209 0.0
C116 C 0.1738 0.84897 0.42336 0.0
C117 C 0.15686 0.87051 0.41835 0.0
C118 C 0.18145 0.84557 0.37617 0.0
N119 N 0.16331 0.86539 0.3714 0.0
H120 H 0.1373 0.89385 0.38869 0.0
H121 H 0.19027 0.83471 0.36025 0.0
H122 H 0.13216 0.81724 0.36772 0.0
H123 H 0.14648 0.83527 0.28791 0.0
O124 O 0.11126 0.8747 0.34851 0.0
O125 O 0.12384 0.87967 0.30664 0.0
O126 O 0.18323 0.87248 0.31785 0.0
C127 C 0.10457 0.8783 0.3239 0.0
H128 H 0.18952 0.96394 0.34636 0.0
H129 H 0.12605 0.77277 0.33983 0.0
H130 H 0.19976 0.81989 0.40534 0.0
H131 H 0.14621 0.88007 0.43439 0.0
Co132 Co 0.13628 0.8579 0.65992 0.0
C133 C 0.07722 0.85893 0.66613 0.0
C134 C 0.09034 0.82345 0.64653 0.0
C135 C 0.06368 0.82101 0.65161 0.0
N136 N 0.0991 0.84725 0.65559 0.0
N137 N 0.05552 0.84324 0.664 0.0
H138 H 0.07719 0.87784 0.67638 0.0
H139 H 0.1024 0.80843 0.63716 0.0
C140 C 0.14326 0.80151 0.68107 0.0
O141 O 0.14334 0.79199 0.65688 0.0
N142 N 0.17301 0.86805 0.66636 0.0
C143 C 0.18837 0.88583 0.65334 0.0
C144 C 0.21264 0.88765 0.66633 0.0
C145 C 0.18801 0.85949 0.68692 0.0
N146 N 0.21223 0.87083 0.68723 0.0
C147 C 0.13151 0.84345 0.60603 0.0
C148 C 0.18165 0.82191 0.59963 0.0
C149 C 0.16595 0.8271 0.57714 0.0
C150 C 0.14032 0.83721 0.58072 0.0
C151 C 0.17164 0.8277 0.62497 0.0
N152 N 0.14686 0.83867 0.62796 0.0
H153 H 0.11289 0.85406 0.60774 0.0
H154 H 0.18436 0.82456 0.64202 0.0
H155 H 0.18237 0.89681 0.63582 0.0
H156 H 0.18133 0.8456 0.70191 0.0
O157 O 0.12984 0.89081 0.64168 0.0
O158 O 0.12597 0.88559 0.68513 0.0
O159 O 0.14079 0.82658 0.68511 0.0
C160 C 0.12495 0.90147 0.66449 0.0
H161 H 0.05124 0.80407 0.64683 0.0
H162 H 0.22932 0.90003 0.66071 0.0
H163 H 0.20174 0.81442 0.59759 0.0
H164 H 0.12789 0.84238 0.56387 0.0
Co165 Co 0.14981 0.13481 0.67235 0.0
C166 C 0.14571 0.07499 0.67058 0.0
C167 C 0.17737 0.08898 0.69526 0.0
C168 C 0.17439 0.06233 0.69974 0.0
N169 N 0.15993 0.09729 0.67648 0.0
N170 N 0.15419 0.05349 0.68469 0.0
H171 H 0.12796 0.07494 0.6584 0.0
H172 H 0.18943 0.1016 0.70767 0.0
C173 C 0.20867 0.13935 0.67903 0.0
O174 O 0.21128 0.12419 0.65796 0.0
N175 N 0.13965 0.17195 0.67081 0.0
C176 C 0.12362 0.1845 0.65333 0.0
C177 C 0.11909 0.21009 0.66238 0.0
C178 C 0.1444 0.18974 0.6902 0.0
N179 N 0.13207 0.21327 0.68569 0.0
C180 C 0.1512 0.12107 0.61735 0.0
C181 C 0.17975 0.16542 0.60132 0.0
C182 C 0.16693 0.14991 0.58215 0.0
C183 C 0.153 0.12716 0.59032 0.0
C184 C 0.1769 0.15903 0.62814 0.0
N185 N 0.1625 0.13725 0.63596 0.0
H186 H 0.13902 0.10446 0.62337 0.0
H187 H 0.18481 0.1727 0.6427 0.0
H188 H 0.11512 0.1754 0.63581 0.0
H189 H 0.15614 0.18515 0.70765 0.0
O190 O 0.11414 0.12477 0.66402 0.0
O191 O 0.12925 0.13182 0.70486 0.0
O192 O 0.18547 0.14586 0.68723 0.0
C193 C 0.10934 0.12593 0.68923 0.0
H194 H 0.18513 0.05072 0.71442 0.0
H195 H 0.10626 0.22476 0.65308 0.0
H196 H 0.19046 0.18329 0.59573 0.0
H197 H 0.14288 0.11469 0.57598 0.0
Co198 Co 0.87693 0.14798 0.66892 0.0
C199 C 0.93464 0.13373 0.6694 0.0
C200 C 0.92799 0.1754 0.66251 0.0
C201 C 0.9547 0.17147 0.66642 0.0
N202 N 0.91516 0.15182 0.66455 0.0
N203 N 0.95876 0.14536 0.67091 0.0
H204 H 0.93138 0.11282 0.67341 0.0
H205 H 0.91869 0.19464 0.66023 0.0
C206 C 0.85988 0.20369 0.6852 0.0
O207 O 0.83808 0.20191 0.67088 0.0
N208 N 0.83898 0.14456 0.67464 0.0
C209 C 0.82018 0.13187 0.66024 0.0
C210 C 0.79636 0.13308 0.67372 0.0
C211 C 0.82654 0.15236 0.69694 0.0
N212 N 0.80052 0.14627 0.69659 0.0
C213 C 0.86375 0.14304 0.61428 0.0
C214 C 0.86836 0.19562 0.5988 0.0
C215 C 0.85937 0.17672 0.58041 0.0
C216 C 0.85749 0.15017 0.5884 0.0
C217 C 0.87402 0.18764 0.62498 0.0
N218 N 0.87095 0.1616 0.63277 0.0
H219 H 0.8623 0.12223 0.61919 0.0
H220 H 0.8809 0.20262 0.63855 0.0
H221 H 0.82331 0.12175 0.64168 0.0
H222 H 0.83646 0.16201 0.71341 0.0
O223 O 0.87895 0.11075 0.66019 0.0
O224 O 0.88217 0.12649 0.70103 0.0
O225 O 0.87664 0.18451 0.68583 0.0
C226 C 0.88112 0.10591 0.6853 0.0
H227 H 0.9699 0.18674 0.66683 0.0
H228 H 0.77749 0.125 0.66723 0.0
H229 H 0.87077 0.21631 0.59307 0.0
H230 H 0.85163 0.13475 0.57454 0.0
Co231 Co 0.86152 0.87135 0.66421 0.0
C232 C 0.87079 0.92967 0.67246 0.0
C233 C 0.83214 0.92237 0.65613 0.0
C234 C 0.83442 0.94922 0.66119 0.0
N235 N 0.85489 0.90986 0.66335 0.0
N236 N 0.85869 0.95366 0.67146 0.0
H237 H 0.89067 0.92691 0.68013 0.0
H238 H 0.81513 0.91301 0.64716 0.0
C239 C 0.80356 0.86761 0.68136 0.0
O240 O 0.79494 0.87101 0.65701 0.0
N241 N 0.86815 0.83336 0.66672 0.0
C242 C 0.88157 0.81779 0.64963 0.0
C243 C 0.88299 0.79237 0.66006 0.0
C244 C 0.862 0.81744 0.68743 0.0
N245 N 0.87069 0.79219 0.68387 0.0
C246 C 0.85069 0.88286 0.61008 0.0
C247 C 0.82402 0.83614 0.59839 0.0
C248 C 0.8323 0.85263 0.57747 0.0
C249 C 0.84503 0.87666 0.58372 0.0
C250 C 0.82973 0.8433 0.62466 0.0
N251 N 0.84338 0.86623 0.63027 0.0
H252 H 0.86281 0.90017 0.61408 0.0
H253 H 0.82438 0.82967 0.6404 0.0
H254 H 0.88994 0.82453 0.63104 0.0
H255 H 0.85147 0.82429 0.7048 0.0
O256 O 0.89626 0.87644 0.64943 0.0
O257 O 0.88738 0.87598 0.69263 0.0
O258 O 0.82848 0.86685 0.68655 0.0
C259 C 0.90494 0.87755 0.67366 0.0
H260 H 0.81972 0.96445 0.65693 0.0
H261 H 0.89293 0.77553 0.65108 0.0
H262 H 0.81412 0.81738 0.59445 0.0
H263 H 0.85241 0.88972 0.56826 0.0
Co264 Co 0.3457 0.14229 0.15172 0.0
C265 C 0.3423 0.08323 0.14339 0.0
C266 C 0.35064 0.09369 0.1838 0.0
C267 C 0.34659 0.06659 0.18256 0.0
N268 N 0.34775 0.10425 0.15929 0.0
N269 N 0.34132 0.06014 0.15718 0.0
H270 H 0.33808 0.08463 0.12239 0.0
H271 H 0.35459 0.10507 0.20158 0.0
C272 C 0.31603 0.16331 0.20092 0.0
O273 O 0.32123 0.18857 0.19656 0.0
N274 N 0.3426 0.18012 0.14402 0.0
C275 C 0.36188 0.19672 0.13571 0.0
C276 C 0.35073 0.22127 0.13034 0.0
C277 C 0.31987 0.19437 0.14226 0.0
N278 N 0.32425 0.21992 0.13472 0.0
C279 C 0.40008 0.13227 0.16255 0.0
C280 C 0.40944 0.17634 0.19408 0.0
C281 C 0.43102 0.1613 0.18505 0.0
C282 C 0.42606 0.13843 0.16998 0.0
C283 C 0.38359 0.16902 0.18679 0.0
N284 N 0.37925 0.14785 0.1703 0.0
H285 H 0.39685 0.11587 0.14905 0.0
H286 H 0.36759 0.18187 0.19252 0.0
H287 H 0.38256 0.19127 0.13338 0.0
H288 H 0.30063 0.18612 0.14707 0.0
O289 O 0.36025 0.13741 0.11696 0.0
O290 O 0.3172 0.13604 0.12659 0.0
O291 O 0.32426 0.14512 0.18529 0.0
C292 C 0.33589 0.13508 0.10867 0.0
H293 H 0.34733 0.05268 0.19902 0.0
H294 H 0.36145 0.2386 0.12339 0.0
H295 H 0.41259 0.19428 0.20561 0.0
H296 H 0.44227 0.12652 0.16228 0.0
Co297 Co 0.86321 0.33747 0.14692 0.0
C298 C 0.92279 0.34187 0.14122 0.0
C299 C 0.91053 0.31 0.16658 0.0
C300 C 0.93738 0.30799 0.16309 0.0
N301 N 0.90112 0.3318 0.15373 0.0
N302 N 0.94516 0.32789 0.14701 0.0
H303 H 0.9221 0.35752 0.12645 0.0
H304 H 0.89859 0.29494 0.17612 0.0
C305 C 0.86331 0.32122 0.20386 0.0
O306 O 0.87952 0.3413 0.20819 0.0
N307 N 0.82559 0.34021 0.13974 0.0
C308 C 0.81134 0.36002 0.12852 0.0
C309 C 0.78565 0.35094 0.12453 0.0
C310 C 0.80876 0.31953 0.1421 0.0
N311 N 0.78412 0.32538 0.13308 0.0
C312 C 0.87959 0.39104 0.15758 0.0
C313 C 0.83731 0.40469 0.18976 0.0
C314 C 0.85491 0.42468 0.18147 0.0
C315 C 0.87659 0.41739 0.16573 0.0
C316 C 0.84149 0.37821 0.18171 0.0
N317 N 0.86225 0.3717 0.1654 0.0
H318 H 0.89487 0.38676 0.14344 0.0
H319 H 0.82717 0.3632 0.18737 0.0
H320 H 0.81921 0.37931 0.12298 0.0
H321 H 0.81507 0.30006 0.14895 0.0
O322 O 0.8707 0.35125 0.11219 0.0
O323 O 0.86483 0.30842 0.12158 0.0
O324 O 0.85446 0.31699 0.18041 0.0
C325 C 0.86929 0.32686 0.10378 0.0
H326 H 0.95005 0.29243 0.17106 0.0
H327 H 0.76959 0.3622 0.11556 0.0
H328 H 0.82018 0.40958 0.20177 0.0
H329 H 0.89027 0.43231 0.1583 0.0
Co330 Co 0.66379 0.86471 0.14362 0.0
C331 C 0.66717 0.92376 0.13406 0.0
C332 C 0.66701 0.91371 0.17546 0.0
C333 C 0.67028 0.94084 0.17306 0.0
N334 N 0.66542 0.90283 0.15103 0.0
N335 N 0.67038 0.94704 0.14708 0.0
H336 H 0.66635 0.92222 0.11268 0.0
H337 H 0.66577 0.90273 0.19389 0.0
C338 C 0.68944 0.83866 0.19274 0.0
O339 O 0.67967 0.81507 0.18728 0.0
N340 N 0.66354 0.82674 0.13586 0.0
C341 C 0.64314 0.81108 0.12826 0.0
C342 C 0.65294 0.78597 0.12256 0.0
C343 C 0.68545 0.81138 0.13334 0.0
N344 N 0.67959 0.78616 0.126 0.0
C345 C 0.61091 0.88144 0.1512 0.0
C346 C 0.59315 0.8398 0.18241 0.0
C347 C 0.57464 0.85824 0.17235 0.0
C348 C 0.58402 0.87961 0.1572 0.0
C349 C 0.62033 0.84281 0.1765 0.0
N350 N 0.62881 0.86305 0.16036 0.0
H351 H 0.61711 0.897 0.13775 0.0
H352 H 0.63395 0.82781 0.18342 0.0
H353 H 0.62266 0.81748 0.12659 0.0
H354 H 0.70537 0.81869 0.13692 0.0
O355 O 0.65103 0.87108 0.10827 0.0
O356 O 0.69363 0.86829 0.11945 0.0
O357 O 0.6841 0.85895 0.17818 0.0
C358 C 0.6757 0.87111 0.10083 0.0
H359 H 0.67187 0.95503 0.18914 0.0
H360 H 0.64125 0.76891 0.11654 0.0
H361 H 0.58663 0.82293 0.19415 0.0
H362 H 0.57041 0.89408 0.14865 0.0
Co363 Co 0.13683 0.67199 0.1399 0.0
C364 C 0.07719 0.66631 0.13435 0.0
C365 C 0.0893 0.69756 0.1605 0.0
C366 C 0.06231 0.69895 0.1576 0.0
N367 N 0.0989 0.67661 0.14668 0.0
N368 N 0.05463 0.67944 0.14105 0.0
H369 H 0.07786 0.65111 0.11923 0.0
H370 H 0.10116 0.7123 0.17063 0.0
C371 C 0.13588 0.68218 0.19805 0.0
O372 O 0.12053 0.66111 0.20018 0.0
N373 N 0.17451 0.66999 0.13306 0.0
C374 C 0.1884 0.65129 0.11989 0.0
C375 C 0.21416 0.66033 0.11681 0.0
C376 C 0.19168 0.69004 0.13758 0.0
N377 N 0.21613 0.68477 0.12794 0.0
C378 C 0.12325 0.61672 0.1432 0.0
C379 C 0.1656 0.60187 0.17518 0.0
C380 C 0.15147 0.58217 0.1615 0.0
C381 C 0.12945 0.58977 0.14625 0.0
C382 C 0.15872 0.62877 0.17157 0.0
N383 N 0.13821 0.63603 0.15504 0.0
H384 H 0.10818 0.62191 0.12899 0.0
H385 H 0.17149 0.64382 0.1801 0.0
H386 H 0.1802 0.63286 0.11236 0.0
H387 H 0.18582 0.7088 0.14638 0.0
O388 O 0.12954 0.66165 0.10397 0.0
O389 O 0.13554 0.70341 0.1171 0.0
O390 O 0.14482 0.68925 0.17533 0.0
C391 C 0.13122 0.68669 0.09774 0.0
H392 H 0.04941 0.71373 0.16647 0.0
H393 H 0.22998 0.64993 0.10664 0.0
H394 H 0.1831 0.59672 0.1867 0.0
H395 H 0.11839 0.57507 0.13501 0.0
Co396 Co 0.34088 0.88053 0.85847 0.0
C397 C 0.34047 0.93919 0.86946 0.0
C398 C 0.34876 0.93018 0.82872 0.0
C399 C 0.34593 0.95737 0.83114 0.0
N400 N 0.34506 0.91867 0.85267 0.0
N401 N 0.34071 0.96288 0.85671 0.0
H402 H 0.33599 0.93708 0.89031 0.0
H403 H 0.35238 0.91945 0.8105 0.0
C404 C 0.31524 0.86115 0.80657 0.0
O405 O 0.32167 0.83621 0.81117 0.0
N406 N 0.335 0.84276 0.86435 0.0
C407 C 0.35219 0.82375 0.87245 0.0
C408 C 0.33833 0.80024 0.87594 0.0
C409 C 0.31087 0.83097 0.86449 0.0
N410 N 0.31234 0.80486 0.87081 0.0
C411 C 0.39598 0.88884 0.85491 0.0
C412 C 0.40926 0.84446 0.82542 0.0
C413 C 0.4292 0.85777 0.83965 0.0
C414 C 0.42247 0.88096 0.85335 0.0
C415 C 0.38271 0.85316 0.82743 0.0
N416 N 0.37617 0.87427 0.84331 0.0
H417 H 0.39121 0.90534 0.86778 0.0
H418 H 0.36759 0.8412 0.81837 0.0
H419 H 0.37319 0.82679 0.87597 0.0
H420 H 0.29268 0.84128 0.85921 0.0
O421 O 0.35305 0.88326 0.89436 0.0
O422 O 0.31091 0.88736 0.88209 0.0
O423 O 0.32173 0.87959 0.82287 0.0
C424 C 0.32849 0.88652 0.90127 0.0
H425 H 0.34738 0.97199 0.81536 0.0
H426 H 0.3467 0.78133 0.8822 0.0
H427 H 0.41378 0.82634 0.81468 0.0
H428 H 0.43735 0.89184 0.86452 0.0
Co429 Co 0.12496 0.34235 0.85722 0.0
C430 C 0.06646 0.33363 0.85485 0.0
C431 C 0.07874 0.36165 0.82518 0.0
C432 C 0.05216 0.35651 0.82162 0.0
N433 N 0.08797 0.34727 0.84602 0.0
N434 N 0.04453 0.3389 0.84023 0.0
H435 H 0.06683 0.31932 0.87092 0.0
H436 H 0.09034 0.37472 0.81277 0.0
C437 C 0.12886 0.32217 0.80068 0.0
O438 O 0.12365 0.34603 0.79129 0.0
N439 N 0.1613 0.33608 0.86811 0.0
C440 C 0.17775 0.352 0.88201 0.0
C441 C 0.20174 0.33891 0.88532 0.0
C442 C 0.17518 0.31363 0.86346 0.0
N443 N 0.20001 0.31474 0.87361 0.0
C444 C 0.12405 0.3978 0.84651 0.0
C445 C 0.17235 0.40026 0.82058 0.0
C446 C 0.16024 0.42391 0.82907 0.0
C447 C 0.13538 0.42256 0.84124 0.0
C448 C 0.15985 0.37574 0.82548 0.0
N449 N 0.1363 0.3747 0.839 0.0
H450 H 0.10613 0.39708 0.85826 0.0
H451 H 0.17017 0.35753 0.82043 0.0
H452 H 0.17268 0.37168 0.88917 0.0
H453 H 0.1672 0.29686 0.85263 0.0
O454 O 0.1176 0.35891 0.89077 0.0
O455 O 0.11445 0.31547 0.88309 0.0
O456 O 0.13064 0.3182 0.82569 0.0
C457 C 0.11284 0.33519 0.89987 0.0
H458 H 0.0394 0.36501 0.80645 0.0
H459 H 0.21889 0.34648 0.89587 0.0
H460 H 0.19187 0.40065 0.81157 0.0
H461 H 0.12578 0.44043 0.84858 0.0
Co462 Co 0.66132 0.13544 0.85674 0.0
C463 C 0.66544 0.0762 0.86373 0.0
C464 C 0.65861 0.08777 0.82328 0.0
C465 C 0.66247 0.06059 0.82412 0.0
N466 N 0.66073 0.09767 0.84806 0.0
N467 N 0.66676 0.05348 0.84954 0.0
H468 H 0.66861 0.07695 0.88492 0.0
H469 H 0.65488 0.09959 0.80568 0.0
C470 C 0.69213 0.15956 0.80953 0.0
O471 O 0.68617 0.18441 0.81496 0.0
N472 N 0.66264 0.17301 0.86563 0.0
C473 C 0.64234 0.1892 0.87241 0.0
C474 C 0.6524 0.21418 0.8779 0.0
C475 C 0.68476 0.18786 0.8686 0.0
N476 N 0.67905 0.21332 0.87509 0.0
C477 C 0.60727 0.12509 0.84567 0.0
C478 C 0.59768 0.16922 0.81405 0.0
C479 C 0.57604 0.15493 0.82426 0.0
C480 C 0.58117 0.13186 0.83918 0.0
C481 C 0.62363 0.16143 0.82066 0.0
N482 N 0.62805 0.14047 0.8375 0.0
H483 H 0.61066 0.10857 0.85909 0.0
H484 H 0.63971 0.17387 0.81426 0.0
H485 H 0.62166 0.18336 0.8731 0.0
H486 H 0.70464 0.18028 0.86529 0.0
O487 O 0.64603 0.12868 0.89082 0.0
O488 O 0.68945 0.12931 0.88269 0.0
O489 O 0.6836 0.14025 0.82373 0.0
C490 C 0.67017 0.12673 0.89978 0.0
H491 H 0.66198 0.04706 0.80742 0.0
H492 H 0.64092 0.23177 0.88275 0.0
H493 H 0.59455 0.18707 0.80229 0.0
H494 H 0.56512 0.12031 0.84769 0.0
Co495 Co 0.87251 0.66382 0.85633 0.0
C496 C 0.93192 0.67056 0.85802 0.0
C497 C 0.91842 0.65481 0.82088 0.0
C498 C 0.94544 0.6579 0.81973 0.0
N499 N 0.90967 0.6626 0.84491 0.0
N500 N 0.95408 0.66767 0.84311 0.0
H501 H 0.93214 0.67794 0.87813 0.0
H502 H 0.90631 0.64665 0.80526 0.0
C503 C 0.86222 0.68477 0.8004 0.0
O504 O 0.86306 0.66058 0.79062 0.0
N505 N 0.83586 0.66636 0.86773 0.0
C506 C 0.82192 0.64834 0.88181 0.0
C507 C 0.79679 0.65839 0.88611 0.0
C508 C 0.8193 0.68722 0.86402 0.0
N509 N 0.79514 0.68287 0.8749 0.0
C510 C 0.88077 0.60962 0.84219 0.0
C511 C 0.83003 0.60014 0.82327 0.0
C512 C 0.84646 0.57839 0.82954 0.0
C513 C 0.87251 0.58342 0.83789 0.0
C514 C 0.8394 0.62621 0.82702 0.0
N515 N 0.86419 0.63075 0.83741 0.0
H516 H 0.89977 0.6127 0.85175 0.0
H517 H 0.82587 0.64265 0.82361 0.0
H518 H 0.82945 0.62917 0.8883 0.0
H519 H 0.8251 0.70545 0.8541 0.0
O520 O 0.88161 0.64669 0.88913 0.0
O521 O 0.88111 0.69057 0.88298 0.0
O522 O 0.86459 0.68864 0.82539 0.0
C523 C 0.88434 0.67034 0.89908 0.0
H524 H 0.95776 0.65321 0.80281 0.0
H525 H 0.78095 0.64826 0.89651 0.0
H526 H 0.8097 0.59702 0.81685 0.0
H527 H 0.88564 0.56717 0.84344 0.0
Co528 Co 0.14413 0.33954 0.13223 0.0
C529 C 0.13557 0.33226 0.07378 0.0
C530 C 0.17102 0.35447 0.08198 0.0
C531 C 0.16963 0.35009 0.05513 0.0
N532 N 0.14971 0.3433 0.09393 0.0
N533 N 0.1474 0.33619 0.05011 0.0
H534 H 0.11754 0.32082 0.07619 0.0
H535 H 0.18669 0.36524 0.09185 0.0
C536 C 0.20231 0.32218 0.13253 0.0
O537 O 0.21061 0.34674 0.12928 0.0
N538 N 0.13898 0.33403 0.1699 0.0
C539 C 0.12901 0.35065 0.18837 0.0
C540 C 0.12819 0.33725 0.2124 0.0
C541 C 0.14343 0.31078 0.18265 0.0
N542 N 0.13713 0.31216 0.20861 0.0
C543 C 0.15209 0.39457 0.12438 0.0
C544 C 0.18302 0.40482 0.16857 0.0
C545 C 0.17315 0.42635 0.15356 0.0
C546 C 0.158 0.42078 0.13093 0.0
C547 C 0.17708 0.37851 0.16089 0.0
N548 N 0.16158 0.37366 0.13904 0.0
H549 H 0.13844 0.39113 0.10816 0.0
H550 H 0.18381 0.36214 0.17323 0.0
H551 H 0.1226 0.37092 0.18459 0.0
H552 H 0.15091 0.29305 0.17299 0.0
O553 O 0.10894 0.35414 0.1293 0.0
O554 O 0.11859 0.31112 0.12604 0.0
O555 O 0.1775 0.31703 0.13434 0.0
C556 C 0.10054 0.32989 0.12637 0.0
H557 H 0.18385 0.35654 0.04038 0.0
H558 H 0.1208 0.34505 0.23098 0.0
H559 H 0.19455 0.40829 0.18641 0.0
H560 H 0.1492 0.43667 0.11921 0.0
Co561 Co 0.15577 0.66175 0.86448 0.0
C562 C 0.14257 0.67058 0.92167 0.0
C563 C 0.18135 0.65349 0.91721 0.0
C564 C 0.17751 0.65904 0.94357 0.0
N565 N 0.15957 0.66088 0.90318 0.0
N566 N 0.15323 0.66982 0.94629 0.0
H567 H 0.12302 0.67851 0.9174 0.0
H568 H 0.19875 0.64397 0.90931 0.0
C569 C 0.21252 0.68169 0.86524 0.0
O570 O 0.22049 0.65729 0.87013 0.0
N571 N 0.15169 0.66425 0.82629 0.0
C572 C 0.1417 0.6457 0.80975 0.0
C573 C 0.13996 0.65651 0.78468 0.0
C574 C 0.15549 0.68618 0.81121 0.0
N575 N 0.1486 0.682 0.78559 0.0
C576 C 0.16955 0.60789 0.87586 0.0
C577 C 0.19728 0.5986 0.82952 0.0
C578 C 0.18854 0.57685 0.84462 0.0
C579 C 0.17573 0.58177 0.86869 0.0
C580 C 0.19147 0.62459 0.83788 0.0
N581 N 0.17672 0.62904 0.86027 0.0
H582 H 0.15666 0.61083 0.8927 0.0
H583 H 0.19699 0.64105 0.82514 0.0
H584 H 0.13573 0.62582 0.81562 0.0
H585 H 0.16285 0.70487 0.81895 0.0
O586 O 0.12258 0.64346 0.86641 0.0
O587 O 0.12624 0.68742 0.8671 0.0
O588 O 0.18767 0.68696 0.86259 0.0
C589 C 0.11082 0.66642 0.86611 0.0
H590 H 0.19122 0.65485 0.95968 0.0
H591 H 0.13213 0.64658 0.7673 0.0
H592 H 0.20708 0.59552 0.81068 0.0
H593 H 0.16817 0.56544 0.88059 0.0
Co594 Co 0.33594 0.15826 0.87307 0.0
C595 C 0.34441 0.15037 0.93162 0.0
C596 C 0.31578 0.18062 0.92239 0.0
C597 C 0.31525 0.17628 0.94911 0.0
N598 N 0.33457 0.16503 0.91113 0.0
N599 N 0.33303 0.15713 0.95493 0.0
H600 H 0.3578 0.13363 0.92943 0.0
H601 H 0.30127 0.19257 0.91199 0.0
C602 C 0.3247 0.21703 0.87297 0.0
O603 O 0.34735 0.22083 0.88545 0.0
N604 N 0.33443 0.15154 0.83546 0.0
C605 C 0.34926 0.13555 0.81996 0.0
C606 C 0.33652 0.13306 0.79566 0.0
C607 C 0.31323 0.15839 0.8207 0.0
N608 N 0.31369 0.1473 0.79644 0.0
C609 C 0.39124 0.16347 0.88404 0.0
C610 C 0.40324 0.19056 0.83772 0.0
C611 C 0.42357 0.17763 0.85175 0.0
C612 C 0.41758 0.16518 0.87581 0.0
C613 C 0.37702 0.18856 0.84681 0.0
N614 N 0.37114 0.17389 0.869 0.0
H615 H 0.38699 0.15113 0.90093 0.0
H616 H 0.36121 0.19648 0.83451 0.0
H617 H 0.36712 0.12529 0.82632 0.0
H618 H 0.29698 0.17022 0.82826 0.0
O619 O 0.34765 0.1224 0.87927 0.0
O620 O 0.30532 0.13482 0.87681 0.0
O621 O 0.31755 0.19347 0.86642 0.0
C622 C 0.32278 0.11567 0.87953 0.0
H623 H 0.30186 0.18563 0.96307 0.0
H624 H 0.34272 0.12045 0.77942 0.0
H625 H 0.40724 0.2001 0.81885 0.0
H626 H 0.43286 0.15473 0.88695 0.0
Co627 Co 0.85287 0.33391 0.86644 0.0
C628 C 0.85741 0.33878 0.92599 0.0
C629 C 0.83167 0.3074 0.91325 0.0
C630 C 0.83445 0.30556 0.94014 0.0
N631 N 0.84523 0.32877 0.90409 0.0
N632 N 0.85082 0.32509 0.94824 0.0
H633 H 0.87248 0.35411 0.92557 0.0
H634 H 0.82208 0.29249 0.90117 0.0
C635 C 0.79511 0.32016 0.86581 0.0
O636 O 0.79108 0.34049 0.88171 0.0
N637 N 0.86069 0.33641 0.8289 0.0
C638 C 0.87936 0.35106 0.81638 0.0
C639 C 0.88087 0.34268 0.79027 0.0
C640 C 0.85109 0.31965 0.81036 0.0
N641 N 0.86279 0.32319 0.7867 0.0
C642 C 0.84562 0.38882 0.88067 0.0
C643 C 0.81682 0.40226 0.83574 0.0
C644 C 0.8281 0.42258 0.85104 0.0
C645 C 0.84159 0.4157 0.87437 0.0
C646 C 0.82074 0.37557 0.84311 0.0
N647 N 0.83606 0.36905 0.8647 0.0
H648 H 0.85871 0.3842 0.8969 0.0
H649 H 0.81359 0.36017 0.82996 0.0
H650 H 0.89187 0.3658 0.82581 0.0
H651 H 0.83707 0.30383 0.81435 0.0
O652 O 0.88808 0.34583 0.87492 0.0
O653 O 0.87684 0.30349 0.86833 0.0
O654 O 0.81854 0.31515 0.8574 0.0
C655 C 0.89527 0.32103 0.87357 0.0
H656 H 0.82579 0.29029 0.95262 0.0
H657 H 0.89462 0.34972 0.77535 0.0
H658 H 0.80659 0.4069 0.81735 0.0
H659 H 0.85105 0.43091 0.88635 0.0
Co660 Co 0.6725 0.85629 0.86338 0.0
C661 C 0.66843 0.8617 0.92295 0.0
C662 C 0.70078 0.83726 0.91019 0.0
C663 C 0.70269 0.84017 0.93707 0.0
N664 N 0.67877 0.84986 0.90111 0.0
N665 N 0.68247 0.85567 0.94518 0.0
H666 H 0.65247 0.87611 0.92257 0.0
H667 H 0.71577 0.828 0.898 0.0
C668 C 0.68726 0.79867 0.86471 0.0
O669 O 0.66783 0.79522 0.88174 0.0
N670 N 0.66911 0.86289 0.82586 0.0
C671 C 0.65074 0.87683 0.81211 0.0
C672 C 0.65985 0.88008 0.7864 0.0
C673 C 0.68889 0.85803 0.8087 0.0
N674 N 0.68402 0.86841 0.78449 0.0
C675 C 0.6183 0.84953 0.87896 0.0
C676 C 0.60395 0.81692 0.83721 0.0
C677 C 0.58385 0.82875 0.85246 0.0
C678 C 0.59146 0.84439 0.87418 0.0
C679 C 0.63075 0.82224 0.84298 0.0
N680 N 0.63767 0.83906 0.86322 0.0
H681 H 0.62308 0.86409 0.89375 0.0
H682 H 0.6458 0.81461 0.82975 0.0
H683 H 0.63274 0.88508 0.82045 0.0
H684 H 0.70707 0.84794 0.81433 0.0
O685 O 0.66029 0.89174 0.87073 0.0
O686 O 0.70244 0.88082 0.86357 0.0
O687 O 0.69152 0.8218 0.85489 0.0
C688 C 0.68479 0.89934 0.86822 0.0
H689 H 0.71826 0.832 0.94954 0.0
H690 H 0.65009 0.89135 0.77082 0.0
H691 H 0.59902 0.80471 0.8202 0.0
H692 H 0.57676 0.85454 0.88614 0.0
Co693 Co 0.85535 0.6618 0.13139 0.0
C694 C 0.86063 0.67245 0.07353 0.0
C695 C 0.83506 0.63898 0.08034 0.0
C696 C 0.83691 0.64308 0.05344 0.0
N697 N 0.85018 0.65722 0.09315 0.0
N698 N 0.85285 0.66412 0.04936 0.0
H699 H 0.87378 0.6892 0.07658 0.0
H700 H 0.82306 0.62375 0.08956 0.0
C701 C 0.79767 0.67944 0.12468 0.0
O702 O 0.79136 0.65726 0.11246 0.0
N703 N 0.86034 0.66746 0.16898 0.0
C704 C 0.87494 0.65321 0.1865 0.0
C705 C 0.87428 0.66606 0.21078 0.0
C706 C 0.85113 0.68854 0.18264 0.0
N707 N 0.85907 0.68808 0.20814 0.0
C708 C 0.81926 0.62445 0.15774 0.0
C709 C 0.846 0.58028 0.1384 0.0
C710 C 0.82679 0.57655 0.15796 0.0
C711 C 0.81272 0.59884 0.16729 0.0
C712 C 0.85178 0.60581 0.12946 0.0
N713 N 0.83873 0.62761 0.13911 0.0
H714 H 0.80979 0.64173 0.16637 0.0
H715 H 0.86753 0.60818 0.11514 0.0
H716 H 0.88559 0.63506 0.18188 0.0
H717 H 0.83963 0.70456 0.17397 0.0
O718 O 0.89113 0.64853 0.12864 0.0
O719 O 0.87994 0.69108 0.12499 0.0
O720 O 0.82128 0.6831 0.13335 0.0
C721 C 0.89864 0.67299 0.12522 0.0
H722 H 0.82733 0.63153 0.03801 0.0
H723 H 0.88406 0.65974 0.2289 0.0
H724 H 0.85721 0.56353 0.1307 0.0
H725 H 0.7979 0.59663 0.18267 0.0
Co726 Co 0.3328 0.86344 0.13828 0.0
C727 C 0.33614 0.8711 0.07872 0.0
C728 C 0.30161 0.85006 0.0918 0.0
C729 C 0.29935 0.85407 0.06505 0.0
N730 N 0.32501 0.85993 0.10053 0.0
N731 N 0.32095 0.86745 0.05673 0.0
H732 H 0.35385 0.88317 0.07895 0.0
H733 H 0.28635 0.84159 0.10428 0.0
C734 C 0.31739 0.80624 0.13229 0.0
O735 O 0.33536 0.80452 0.11349 0.0
N736 N 0.33796 0.86712 0.17617 0.0
C737 C 0.35229 0.88549 0.18955 0.0
C738 C 0.3443 0.88533 0.21583 0.0
C739 C 0.32191 0.85597 0.19439 0.0
N740 N 0.32543 0.86651 0.21861 0.0
C741 C 0.38713 0.85947 0.12249 0.0
C742 C 0.40123 0.81973 0.15802 0.0
C743 C 0.42127 0.83426 0.14533 0.0
C744 C 0.41394 0.85374 0.12681 0.0
C745 C 0.37448 0.82631 0.15333 0.0
N746 N 0.36763 0.84628 0.13597 0.0
H747 H 0.38243 0.87641 0.11028 0.0
H748 H 0.35948 0.81684 0.16539 0.0
H749 H 0.36607 0.89935 0.18058 0.0
H750 H 0.30609 0.84216 0.18977 0.0
O751 O 0.34463 0.89936 0.13271 0.0
O752 O 0.30287 0.88806 0.14102 0.0
O753 O 0.3141 0.82828 0.14461 0.0
C754 C 0.32029 0.90682 0.13656 0.0
H755 H 0.28277 0.84789 0.05281 0.0
H756 H 0.35083 0.89878 0.2313 0.0
H757 H 0.4062 0.80486 0.17286 0.0
H758 H 0.42893 0.86564 0.11692 0.0
Co759 Co 0.66752 0.14495 0.13261 0.0
C760 C 0.67877 0.14239 0.07481 0.0
C761 C 0.64474 0.16702 0.08226 0.0
C762 C 0.64932 0.16682 0.05545 0.0
N763 N 0.66311 0.15156 0.09462 0.0
N764 N 0.67071 0.15151 0.05096 0.0
H765 H 0.6956 0.12921 0.07752 0.0
H766 H 0.62908 0.17817 0.09173 0.0
C767 C 0.68312 0.20321 0.12862 0.0
O768 O 0.66053 0.20898 0.11686 0.0
N769 N 0.67276 0.13858 0.17001 0.0
C770 C 0.65775 0.12425 0.18697 0.0
C771 C 0.66909 0.12577 0.21197 0.0
C772 C 0.69285 0.14839 0.18463 0.0
N773 N 0.69091 0.14125 0.21025 0.0
C774 C 0.61165 0.14882 0.13085 0.0
C775 C 0.60605 0.18404 0.17264 0.0
C776 C 0.58382 0.17014 0.16324 0.0
C777 C 0.58662 0.15318 0.14153 0.0
C778 C 0.63096 0.17931 0.16108 0.0
N779 N 0.63355 0.16139 0.14081 0.0
H780 H 0.6137 0.13407 0.1154 0.0
H781 H 0.64839 0.18827 0.16992 0.0
H782 H 0.63975 0.11375 0.18162 0.0
H783 H 0.70889 0.16025 0.17672 0.0
O784 O 0.6545 0.10914 0.12836 0.0
O785 O 0.69696 0.12057 0.12599 0.0
O786 O 0.68822 0.17934 0.13604 0.0
C787 C 0.67903 0.10177 0.12554 0.0
H788 H 0.63773 0.17693 0.04031 0.0
H789 H 0.66166 0.11675 0.23001 0.0
H790 H 0.60449 0.19695 0.18976 0.0
H791 H 0.56981 0.14198 0.13398 0.0
H792 H 0.12402 0.16007 0.55098 0.0
H793 H 0.2097 0.15928 0.55062 0.0
H794 H 0.20975 0.17158 0.50355 0.0
H795 H 0.18531 0.17864 0.46178 0.0
H796 H 0.09964 0.17963 0.46191 0.0
H797 H 0.09956 0.17215 0.50998 0.0
C798 C 0.14264 0.16266 0.54051 0.0
C799 C 0.16684 0.15831 0.55396 0.0
C800 C 0.14247 0.17011 0.51358 0.0
C801 C 0.19089 0.16229 0.5405 0.0
C802 C 0.1909 0.16938 0.51367 0.0
C803 C 0.16665 0.17787 0.47251 0.0
C804 C 0.14251 0.17962 0.45839 0.0
C805 C 0.16681 0.17291 0.49993 0.0
C806 C 0.11845 0.17865 0.4724 0.0
C807 C 0.11842 0.17396 0.49981 0.0
H808 H 0.86402 0.18497 0.45699 0.0
H809 H 0.7884 0.14561 0.4647 0.0
H810 H 0.78923 0.15304 0.51281 0.0
H811 H 0.81486 0.16464 0.55281 0.0
H812 H 0.89124 0.20269 0.54517 0.0
H813 H 0.88653 0.20273 0.49677 0.0
C814 C 0.84748 0.17869 0.46926 0.0
C815 C 0.82622 0.16471 0.45768 0.0
C816 C 0.84836 0.18273 0.49678 0.0
C817 C 0.80484 0.15648 0.47342 0.0
C818 C 0.80543 0.16061 0.50084 0.0
C819 C 0.83013 0.17354 0.54049 0.0
C820 C 0.85348 0.18339 0.55237 0.0
C821 C 0.82754 0.17283 0.51279 0.0
C822 C 0.87308 0.19509 0.5364 0.0
C823 C 0.8705 0.19483 0.50876 0.0
H824 H 0.85152 0.80549 0.46308 0.0
H825 H 0.82645 0.88481 0.4414 0.0
H826 H 0.81548 0.89454 0.48758 0.0
H827 H 0.81755 0.88218 0.53457 0.0
H828 H 0.84421 0.80352 0.5571 0.0
H829 H 0.84937 0.79156 0.51038 0.0
C830 C 0.84313 0.82463 0.46855 0.0
C831 C 0.83976 0.84447 0.44909 0.0
C832 C 0.83728 0.83023 0.49531 0.0
C833 C 0.82913 0.86933 0.45622 0.0
C834 C 0.82296 0.8749 0.48258 0.0
C835 C 0.82418 0.86231 0.52923 0.0
C836 C 0.83068 0.84388 0.54931 0.0
C837 C 0.82765 0.85578 0.50239 0.0
C838 C 0.83888 0.81806 0.54206 0.0
C839 C 0.84209 0.81128 0.51532 0.0
H840 H 0.1438 0.80286 0.53459 0.0
H841 H 0.21134 0.84993 0.55836 0.0
H842 H 0.22206 0.85871 0.51177 0.0
H843 H 0.20769 0.85877 0.46455 0.0
H844 H 0.13934 0.81253 0.44155 0.0
H845 H 0.13336 0.79759 0.48738 0.0
C846 C 0.16129 0.81442 0.52948 0.0
C847 C 0.17667 0.82586 0.54979 0.0
C848 C 0.16685 0.81991 0.50277 0.0
C849 C 0.19933 0.84074 0.54304 0.0
C850 C 0.20525 0.84605 0.5164 0.0
C851 C 0.19196 0.84491 0.46964 0.0
C852 C 0.17391 0.8367 0.44998 0.0
C853 C 0.1885 0.83664 0.49614 0.0
C854 C 0.15342 0.81894 0.45655 0.0
C855 C 0.14997 0.8105 0.4827 0.0
H856 H 0.47342 0.13444 0.20484 0.0
H857 H 0.45033 0.20959 0.17007 0.0
H858 H 0.49707 0.22157 0.16394 0.0
H859 H 0.54407 0.20692 0.16147 0.0
H860 H 0.5666 0.13136 0.19567 0.0
H861 H 0.52077 0.12338 0.20951 0.0
C862 C 0.47874 0.15372 0.19661 0.0
C863 C 0.45864 0.17103 0.18773 0.0
C864 C 0.50558 0.16026 0.19284 0.0
C865 C 0.46558 0.19603 0.17717 0.0
C866 C 0.49228 0.20277 0.17344 0.0
C867 C 0.53896 0.18924 0.17279 0.0
C868 C 0.55841 0.16972 0.17764 0.0
C869 C 0.51242 0.18457 0.18021 0.0
C870 C 0.55176 0.14664 0.19195 0.0
C871 C 0.52558 0.14199 0.19965 0.0
H872 H 0.86305 0.54905 0.18602 0.0
H873 H 0.78409 0.54308 0.15344 0.0
H874 H 0.78413 0.49475 0.16179 0.0
H875 H 0.80983 0.45355 0.17175 0.0
H876 H 0.88974 0.46033 0.2022 0.0
H877 H 0.88613 0.5089 0.20172 0.0
C878 C 0.84557 0.5372 0.18152 0.0
C879 C 0.82358 0.54942 0.1692 0.0
C880 C 0.84612 0.50951 0.18569 0.0
C881 C 0.80109 0.53403 0.16318 0.0
C882 C 0.80127 0.5064 0.16772 0.0
C883 C 0.8261 0.46572 0.17903 0.0
C884 C 0.85011 0.45342 0.18685 0.0
C885 C 0.8241 0.49377 0.17802 0.0
C886 C 0.87117 0.46938 0.19594 0.0
C887 C 0.86914 0.49714 0.19558 0.0
H888 H 0.54446 0.81437 0.16101 0.0
H889 H 0.53932 0.89521 0.18957 0.0
H890 H 0.49097 0.89406 0.18544 0.0
H891 H 0.45073 0.87207 0.1689 0.0
H892 H 0.4548 0.79142 0.1401 0.0
H893 H 0.50288 0.79028 0.1492 0.0
C894 C 0.53264 0.83141 0.16702 0.0
C895 C 0.54544 0.85491 0.17547 0.0
C896 C 0.50473 0.83077 0.16409 0.0
C897 C 0.52992 0.87698 0.18289 0.0
C898 C 0.50229 0.87638 0.18041 0.0
C899 C 0.46217 0.85416 0.16493 0.0
C900 C 0.4495 0.83197 0.15358 0.0
C901 C 0.48959 0.85374 0.17021 0.0
C902 C 0.46429 0.80873 0.14876 0.0
C903 C 0.49173 0.80815 0.15391 0.0
H904 H 0.18667 0.4687 0.12314 0.0
H905 H 0.16453 0.44749 0.20294 0.0
H906 H 0.15847 0.49476 0.21382 0.0
H907 H 0.15345 0.54186 0.19846 0.0
H908 H 0.17316 0.56151 0.11761 0.0
H909 H 0.18602 0.51533 0.10922 0.0
C910 C 0.18096 0.47447 0.14306 0.0
C911 C 0.17582 0.45462 0.16211 0.0
C912 C 0.17662 0.50148 0.14882 0.0
C913 C 0.16877 0.46238 0.18794 0.0
C914 C 0.16498 0.48941 0.19407 0.0
C915 C 0.161 0.53596 0.17923 0.0
C916 C 0.1622 0.55484 0.15857 0.0
C917 C 0.16791 0.5091 0.17438 0.0
C918 C 0.17194 0.54714 0.13367 0.0
C919 C 0.17928 0.52079 0.12888 0.0
H920 H 0.46958 0.84977 0.80393 0.0
H921 H 0.44844 0.83974 0.88612 0.0
H922 H 0.4939 0.82639 0.89692 0.0
H923 H 0.54056 0.82228 0.88406 0.0
H924 H 0.56296 0.83422 0.80241 0.0
H925 H 0.51636 0.84133 0.79022 0.0
C926 C 0.47495 0.84413 0.82403 0.0
C927 C 0.45584 0.84586 0.84426 0.0
C928 C 0.50142 0.83691 0.83023 0.0
C929 C 0.46294 0.83867 0.8703 0.0
C930 C 0.48892 0.83109 0.87649 0.0
C931 C 0.53522 0.82613 0.86353 0.0
C932 C 0.55531 0.82792 0.84427 0.0
C933 C 0.50849 0.83088 0.85679 0.0
C934 C 0.54795 0.83251 0.81767 0.0
C935 C 0.52127 0.83687 0.81071 0.0
H936 H 0.15258 0.46723 0.79749 0.0
H937 H 0.19886 0.43794 0.86344 0.0
H938 H 0.21469 0.48313 0.87277 0.0
H939 H 0.20991 0.53172 0.86597 0.0
H940 H 0.16475 0.56091 0.79915 0.0
H941 H 0.15429 0.51519 0.78595 0.0
C942 C 0.16683 0.47076 0.8133 0.0
C943 C 0.17471 0.44949 0.82972 0.0
C944 C 0.17578 0.49681 0.81854 0.0
C945 C 0.19286 0.45411 0.85041 0.0
C946 C 0.20169 0.47994 0.85588 0.0
C947 C 0.19844 0.52793 0.84811 0.0
C948 C 0.18806 0.54952 0.83355 0.0
C949 C 0.19253 0.50157 0.84065 0.0
C950 C 0.17314 0.54453 0.81049 0.0
C951 C 0.16696 0.5184 0.80308 0.0
H952 H 0.46649 0.21067 0.84755 0.0
H953 H 0.43843 0.13174 0.82905 0.0
H954 H 0.48297 0.11852 0.81494 0.0
H955 H 0.5307 0.12775 0.81316 0.0
H956 H 0.55965 0.20604 0.83329 0.0
H957 H 0.51414 0.22145 0.84069 0.0
C958 C 0.47019 0.19083 0.83986 0.0
C959 C 0.4495 0.1721 0.83935 0.0
C960 C 0.49602 0.18325 0.83218 0.0
C961 C 0.45427 0.14636 0.82957 0.0
C962 C 0.47969 0.1388 0.82159 0.0
C963 C 0.52698 0.1483 0.81873 0.0
C964 C 0.54851 0.16562 0.82287 0.0
C965 C 0.50086 0.15681 0.8236 0.0
C966 C 0.54341 0.19232 0.82977 0.0
C967 C 0.51739 0.20108 0.8343 0.0
H968 H 0.86572 0.53345 0.80627 0.0
H969 H 0.80393 0.56167 0.85813 0.0
H970 H 0.79125 0.51568 0.86845 0.0
H971 H 0.80094 0.46719 0.86619 0.0
H972 H 0.86152 0.43918 0.81287 0.0
H973 H 0.87143 0.48508 0.7995 0.0
C974 C 0.84913 0.52944 0.81938 0.0
C975 C 0.83578 0.55085 0.83143 0.0
C976 C 0.84192 0.50294 0.82515 0.0
C977 C 0.81431 0.54549 0.84841 0.0
C978 C 0.80722 0.51919 0.8545 0.0
C979 C 0.81589 0.47125 0.85127 0.0
C980 C 0.83052 0.45003 0.84047 0.0
C981 C 0.82131 0.49773 0.84351 0.0
C982 C 0.84997 0.45534 0.82126 0.0
C983 C 0.8557 0.48154 0.81372 0.0
H984 H 0.16557 0.99186 0.30454 0.0
H985 H 0.106 0.97572 0.36346 0.0
H986 H 0.09092 0.02228 0.36136 0.0
H987 H 0.09916 0.06855 0.34707 0.0
H988 H 0.15771 0.08459 0.28694 0.0
H989 H 0.16838 0.03695 0.28444 0.0
C990 C 0.14901 0.99862 0.31652 0.0
C991 C 0.13707 0.98081 0.33445 0.0
C992 C 0.14033 0.02523 0.31485 0.0
C993 C 0.1154 0.98932 0.34966 0.0
C994 C 0.1069 0.01586 0.34848 0.0
C995 C 0.11361 0.06142 0.33279 0.0
C996 C 0.12767 0.07987 0.3172 0.0
C997 C 0.11976 0.03413 0.33172 0.0
C998 C 0.1464 0.07062 0.29882 0.0
C999 C 0.15277 0.04346 0.29771 0.0
H1000 H 0.93861 0.11268 0.36107 0.0
H1001 H 0.92345 0.15114 0.28588 0.0
H1002 H 0.9713 0.15749 0.27945 0.0
H1003 H 0.01648 0.15777 0.29846 0.0
H1004 H 0.03153 0.1199 0.37381 0.0
H1005 H 0.98456 0.10711 0.37692 0.0
C1006 C 0.94586 0.12201 0.34304 0.0
C1007 C 0.92769 0.13183 0.32411 0.0
C1008 C 0.97323 0.12584 0.33973 0.0
C1009 C 0.93716 0.14347 0.30067 0.0
C1010 C 0.96445 0.14727 0.29712 0.0
C1011 C 0.00943 0.14638 0.31534 0.0
C1012 C 0.02708 0.14016 0.33616 0.0
C1013 C 0.98252 0.13944 0.317 0.0
C1014 C 0.01813 0.1249 0.35768 0.0
C1015 C 0.99133 0.1178 0.35949 0.0
H1016 H 0.90382 0.94267 0.34085 0.0
H1017 H 0.84213 0.92851 0.28314 0.0
H1018 H 0.83147 0.97627 0.28227 0.0
H1019 H 0.83538 0.02068 0.30346 0.0
H1020 H 0.89796 0.0348 0.36011 0.0
H1021 H 0.91291 0.98842 0.35592 0.0
C1022 C 0.8887 0.95028 0.32738 0.0
C1023 C 0.87378 0.93234 0.31202 0.0
C1024 C 0.88256 0.97758 0.3273 0.0
C1025 C 0.85411 0.94214 0.29477 0.0
C1026 C 0.84777 0.96934 0.29462 0.0
C1027 C 0.85254 0.01355 0.31448 0.0
C1028 C 0.86539 0.03073 0.3324 0.0
C1029 C 0.86113 0.98702 0.31165 0.0
C1030 C 0.88785 0.02172 0.34633 0.0
C1031 C 0.89628 0.99527 0.34397 0.0
H1032 H 0.98795 0.84417 0.29753 0.0
H1033 H 0.97159 0.89829 0.36152 0.0
H1034 H 0.01844 0.91192 0.36262 0.0
H1035 H 0.06481 0.9039 0.34892 0.0
H1036 H 0.08105 0.85146 0.28338 0.0
H1037 H 0.03342 0.84198 0.27872 0.0
C1038 C 0.99473 0.85931 0.31129 0.0
C1039 C 0.9767 0.8701 0.32963 0.0
C1040 C 0.02154 0.86722 0.31147 0.0
C1041 C 0.9853 0.88986 0.34729 0.0
C1042 C 0.01203 0.8975 0.34796 0.0
C1043 C 0.05775 0.891 0.33315 0.0
C1044 C 0.07622 0.87832 0.31652 0.0
C1045 C 0.03044 0.88574 0.33065 0.0
C1046 C 0.06707 0.86165 0.29615 0.0
C1047 C 0.0399 0.856 0.29372 0.0
H1048 H 0.1322 0.02472 0.6452 0.0
H1049 H 0.15023 0.02306 0.72881 0.0
H1050 H 0.13916 0.97585 0.73103 0.0
H1051 H 0.13034 0.93356 0.70792 0.0
H1052 H 0.11241 0.93512 0.62419 0.0
H1053 H 0.11674 0.98349 0.62346 0.0
C1054 C 0.13308 0.0141 0.66395 0.0
C1055 C 0.14276 0.02719 0.68656 0.0
C1056 C 0.12684 0.98674 0.66508 0.0
C1057 C 0.14368 0.01323 0.71086 0.0
C1058 C 0.13721 0.98622 0.71222 0.0
C1059 C 0.12668 0.94457 0.68972 0.0
C1060 C 0.12146 0.93072 0.66613 0.0
C1061 C 0.12972 0.97249 0.68926 0.0
C1062 C 0.1168 0.94529 0.64263 0.0
C1063 C 0.11936 0.973 0.64212 0.0
H1064 H 0.07092 0.09398 0.67044 0.0
H1065 H 0.08566 0.15732 0.72618 0.0
H1066 H 0.03799 0.16719 0.7279 0.0
H1067 H 0.99387 0.16324 0.70663 0.0
H1068 H 0.97929 0.10036 0.6505 0.0
H1069 H 0.02519 0.08451 0.65584 0.0
C1070 C 0.06349 0.10927 0.68371 0.0
C1071 C 0.08157 0.12507 0.69803 0.0
C1072 C 0.03627 0.11524 0.68396 0.0
C1073 C 0.07198 0.14478 0.71521 0.0
C1074 C 0.0448 0.15069 0.71584 0.0
C1075 C 1.00075 0.14578 0.69601 0.0
C1076 C 0.9837 0.13323 0.67777 0.0
C1077 C 0.02704 0.13696 0.69921 0.0
C1078 C 0.99232 0.11031 0.66446 0.0
C1079 C 0.0185 0.10138 0.66746 0.0
H1080 H 0.83746 0.99164 0.70226 0.0
H1081 H 0.90522 0.97272 0.65388 0.0
H1082 H 0.92134 0.01866 0.65786 0.0
H1083 H 0.91218 0.0654 0.66955 0.0
H1084 H 0.84538 0.0844 0.71926 0.0
H1085 H 0.83307 0.03711 0.72114 0.0
C1086 C 0.856 0.99763 0.69309 0.0
C1087 C 0.87003 0.9792 0.67748 0.0
C1088 C 0.86525 0.02394 0.69583 0.0
C1089 C 0.89419 0.98676 0.6659 0.0
C1090 C 0.90331 0.01297 0.66812 0.0
C1091 C 0.8956 0.05896 0.68169 0.0
C1092 C 0.87978 0.07812 0.69444 0.0
C1093 C 0.88855 0.0319 0.68234 0.0
C1094 C 0.85809 0.06982 0.70978 0.0
C1095 C 0.85083 0.04287 0.71046 0.0
H1096 H 0.02746 0.88847 0.65851 0.0
H1097 H 0.02442 0.80888 0.69055 0.0
H1098 H 0.97742 0.81468 0.70154 0.0
H1099 H 0.93587 0.84015 0.69625 0.0
H1100 H 0.93782 0.91762 0.65934 0.0
H1101 H 0.98639 0.91546 0.65653 0.0
C1102 C 0.01652 0.87273 0.66843 0.0
C1103 C 0.02913 0.84827 0.67361 0.0
C1104 C 0.98927 0.87592 0.67376 0.0
C1105 C 0.01487 0.82776 0.68616 0.0
C1106 C 0.98807 0.8311 0.69246 0.0
C1107 C 0.94715 0.85688 0.68852 0.0
C1108 C 0.93363 0.87923 0.67853 0.0
C1109 C 0.97485 0.85477 0.6856 0.0
C1110 C 0.94808 0.90047 0.66759 0.0
C1111 C 0.97577 0.89909 0.66574 0.0
H1112 H 0.29574 0.14786 0.9916 0.0
H1113 H 0.37967 0.14094 0.97626 0.0
H1114 H 0.38771 0.12985 0.02305 0.0
H1115 H 0.37134 0.1284 0.06893 0.0
H1116 H 0.28741 0.13751 0.08426 0.0
H1117 H 0.27876 0.14147 0.03666 0.0
C1118 C 0.31576 0.14371 0.99851 0.0
C1119 C 0.33721 0.14575 0.98079 0.0
C1120 C 0.32017 0.13805 0.02537 0.0
C1121 C 0.36295 0.13954 0.98966 0.0
C1122 C 0.36751 0.13345 0.01639 0.0
C1123 C 0.3511 0.13089 0.06184 0.0
C1124 C 0.33006 0.13309 0.08007 0.0
C1125 C 0.34637 0.13361 0.03454 0.0
C1126 C 0.30393 0.13594 0.07062 0.0
C1127 C 0.299 0.13829 0.04344 0.0
H1128 H 0.87587 0.36252 0.06386 0.0
H1129 H 0.8647 0.27851 0.07914 0.0
H1130 H 0.86084 0.27027 0.03147 0.0
H1131 H 0.85686 0.28749 0.98613 0.0
H1132 H 0.86532 0.37176 0.97098 0.0
H1133 H 0.87478 0.37932 0.01805 0.0
C1134 C 0.87289 0.34233 0.05679 0.0
C1135 C 0.87033 0.32115 0.07504 0.0
C1136 C 0.87017 0.33786 0.02944 0.0
C1137 C 0.86662 0.29514 0.06552 0.0
C1138 C 0.86435 0.29045 0.03828 0.0
C1139 C 0.86069 0.30755 0.99308 0.0
C1140 C 0.85985 0.32914 0.97512 0.0
C1141 C 0.86542 0.31176 0.02017 0.0
C1142 C 0.86582 0.35484 0.98436 0.0
C1143 C 0.87103 0.35916 0.0113 0.0
H1144 H 0.71882 0.86138 0.98431 0.0
H1145 H 0.63506 0.86872 0.9669 0.0
H1146 H 0.62603 0.8771 0.01376 0.0
H1147 H 0.64138 0.87769 0.05993 0.0
H1148 H 0.72481 0.86766 0.07774 0.0
H1149 H 0.73457 0.86476 0.03027 0.0
C1150 C 0.69856 0.86473 0.99071 0.0
C1151 C 0.67756 0.86393 0.97212 0.0
C1152 C 0.69348 0.86884 0.01774 0.0
C1153 C 0.65156 0.86924 0.98072 0.0
C1154 C 0.64638 0.87383 0.00755 0.0
C1155 C 0.66177 0.87514 0.05347 0.0
C1156 C 0.68235 0.87264 0.07234 0.0
C1157 C 0.66711 0.87299 0.02628 0.0
C1158 C 0.70864 0.86955 0.06361 0.0
C1159 C 0.71419 0.86781 0.0365 0.0
H1160 H 0.10123 0.66722 0.05782 0.0
H1161 H 0.16521 0.72175 0.0746 0.0
H1162 H 0.17635 0.72364 0.02734 0.0
H1163 H 0.17225 0.70371 0.98257 0.0
H1164 H 0.10748 0.65044 0.96561 0.0
H1165 H 0.0919 0.65419 0.01155 0.0
C1166 C 0.11704 0.6802 0.05093 0.0
C1167 C 0.13247 0.69428 0.06951 0.0
C1168 C 0.12336 0.68101 0.02382 0.0
C1169 C 0.15291 0.71101 0.06055 0.0
C1170 C 0.15948 0.7118 0.03359 0.0
C1171 C 0.15434 0.69357 0.98892 0.0
C1172 C 0.14104 0.67667 0.97107 0.0
C1173 C 0.14553 0.69601 0.01525 0.0
C1174 C 0.11782 0.66359 0.97916 0.0
C1175 C 0.10909 0.66562 0.0054 0.0
H1176 H 0.28481 0.87656 0.01774 0.0
H1177 H 0.36902 0.87725 0.03472 0.0
H1178 H 0.37832 0.88632 0.98809 0.0
H1179 H 0.36292 0.88959 0.94223 0.0
H1180 H 0.27902 0.88606 0.92432 0.0
H1181 H 0.26915 0.8824 0.97182 0.0
C1182 C 0.30523 0.87856 0.01132 0.0
C1183 C 0.32623 0.87575 0.0298 0.0
C1184 C 0.31045 0.88311 0.98433 0.0
C1185 C 0.35248 0.87935 0.02108 0.0
C1186 C 0.35782 0.88435 0.99435 0.0
C1187 C 0.3424 0.88826 0.94865 0.0
C1188 C 0.3217 0.88784 0.92975 0.0
C1189 C 0.337 0.88561 0.97577 0.0
C1190 C 0.29528 0.88639 0.93847 0.0
C1191 C 0.28968 0.88417 0.96559 0.0
H1192 H 0.14066 0.30193 0.93166 0.0
H1193 H 0.07909 0.36167 0.93213 0.0
H1194 H 0.08141 0.36407 0.9806 0.0
H1195 H 0.10605 0.35435 0.02201 0.0
H1196 H 0.17131 0.29898 0.0206 0.0
H1197 H 0.16262 0.28931 0.97365 0.0
C1198 C 0.12713 0.3147 0.94256 0.0
C1199 C 0.10944 0.3313 0.92859 0.0
C1200 C 0.12968 0.31703 0.97027 0.0
C1201 C 0.0926 0.3485 0.94267 0.0
C1202 C 0.0941 0.35004 0.97032 0.0
C1203 C 0.11773 0.33964 0.01144 0.0
C1204 C 0.13905 0.32711 0.02446 0.0
C1205 C 0.11328 0.33517 0.98423 0.0
C1206 C 0.15467 0.30856 0.01073 0.0
C1207 C 0.14977 0.30319 0.98396 0.0
H1208 H 0.6525 0.11239 0.02094 0.0
H1209 H 0.70935 0.17612 0.0237 0.0
H1210 H 0.71853 0.17065 0.97612 0.0
H1211 H 0.70445 0.15239 0.93264 0.0
H1212 H 0.6443 0.09131 0.93029 0.0
H1213 H 0.64263 0.09033 0.97866 0.0
C1214 C 0.66748 0.12436 0.01109 0.0
C1215 C 0.68047 0.14439 0.02536 0.0
C1216 C 0.67181 0.12163 0.98379 0.0
C1217 C 0.69948 0.16039 0.01279 0.0
C1218 C 0.70451 0.15736 0.98567 0.0
C1219 C 0.69172 0.1383 0.94288 0.0
C1220 C 0.67454 0.12192 0.92819 0.0
C1221 C 0.69002 0.13871 0.97074 0.0
C1222 C 0.65765 0.10407 0.9414 0.0
C1223 C 0.65658 0.10361 0.969 0.0
H1224 H 0.85968 0.70456 0.93269 0.0
H1225 H 0.91701 0.6407 0.92961 0.0
H1226 H 0.9149 0.63546 0.97772 0.0
H1227 H 0.89112 0.64392 0.01941 0.0
H1228 H 0.83189 0.70559 0.02272 0.0
H1229 H 0.84017 0.71711 0.97599 0.0
C1230 C 0.8724 0.69025 0.94277 0.0
C1231 C 0.88854 0.67308 0.92783 0.0
C1232 C 0.87024 0.68663 0.9704 0.0
C1233 C 0.90451 0.65414 0.94088 0.0
C1234 C 0.90315 0.65099 0.96832 0.0
C1235 C 0.88066 0.66031 0.00989 0.0
C1236 C 0.86107 0.67403 0.02404 0.0
C1237 C 0.88523 0.6663 0.98309 0.0
C1238 C 0.84719 0.69504 0.0119 0.0
C1239 C 0.85185 0.70146 0.98527 0.0
H1240 H 0.98256 0.29042 0.13821 0.0
H1241 H 0.96796 0.37513 0.13478 0.0
H1242 H 0.01499 0.383 0.12517 0.0
H1243 H 0.06071 0.36607 0.12258 0.0
H1244 H 0.0756 0.28141 0.12786 0.0
H1245 H 0.02783 0.27317 0.13202 0.0
C1246 C 0.98965 0.31062 0.13535 0.0
C1247 C 0.97188 0.33224 0.1377 0.0
C1248 C 0.01673 0.31495 0.13037 0.0
C1249 C 0.98122 0.3582 0.13308 0.0
C1250 C 0.00813 0.36269 0.12779 0.0
C1251 C 0.05351 0.34576 0.12435 0.0
C1252 C 0.07169 0.32436 0.12522 0.0
C1253 C 0.02614 0.34126 0.12711 0.0
C1254 C 0.06203 0.2982 0.12723 0.0
C1255 C 0.03474 0.29351 0.12971 0.0
H1256 H 0.99655 0.64251 0.82342 0.0
H1257 H 0.97374 0.7024 0.88011 0.0
H1258 H 0.02073 0.70925 0.89191 0.0
H1259 H 0.06906 0.6971 0.88615 0.0
H1260 H 0.08875 0.63627 0.82897 0.0
H1261 H 0.04254 0.63169 0.81676 0.0
C1262 C 1.00169 0.65746 0.83802 0.0
C1263 C 0.98154 0.67206 0.85058 0.0
C1264 C 0.02846 0.6613 0.84452 0.0
C1265 C 0.9888 0.69072 0.87016 0.0
C1266 C 0.01572 0.69476 0.8768 0.0
C1267 C 0.0631 0.68319 0.87083 0.0
C1268 C 0.08241 0.66709 0.85845 0.0
C1269 C 0.03586 0.68008 0.8641 0.0
C1270 C 0.07439 0.64888 0.83885 0.0
C1271 C 0.04788 0.64613 0.83184 0.0
H1272 H 0.34558 0.076 0.90753 0.0
H1273 H 0.28618 0.09178 0.84773 0.0
H1274 H 0.28524 0.04435 0.83604 0.0
H1275 H 0.30634 0.99969 0.83873 0.0
H1276 H 0.36454 0.98382 0.89954 0.0
H1277 H 0.36105 0.02999 0.91519 0.0
C1278 C 0.33181 0.06883 0.89255 0.0
C1279 C 0.31595 0.08717 0.87849 0.0
C1280 C 0.33165 0.04169 0.88582 0.0
C1281 C 0.29824 0.07788 0.85905 0.0
C1282 C 0.29803 0.05085 0.85212 0.0
C1283 C 0.31791 0.00642 0.85562 0.0
C1284 C 0.336 0.98879 0.8678 0.0
C1285 C 0.31543 0.0328 0.86466 0.0
C1286 C 0.35063 0.99727 0.88993 0.0
C1287 C 0.34865 0.02359 0.89878 0.0
H1288 H 0.92491 0.30737 0.83187 0.0
H1289 H 0.92887 0.32372 0.91553 0.0
H1290 H 0.97746 0.327 0.91321 0.0
H1291 H 0.01777 0.3324 0.8858 0.0
H1292 H 0.01242 0.32152 0.80127 0.0
H1293 H 0.96564 0.30885 0.8052 0.0
C1294 C 0.93663 0.31055 0.8497 0.0
C1295 C 0.92369 0.31462 0.87394 0.0
C1296 C 0.96426 0.31406 0.84782 0.0
C1297 C 0.93871 0.31987 0.89683 0.0
C1298 C 0.96639 0.3221 0.8954 0.0
C1299 C 0.0064 0.32665 0.86843 0.0
C1300 C 0.01829 0.32801 0.84328 0.0
C1301 C 0.97926 0.32032 0.8708 0.0
C1302 C 0.00345 0.32087 0.82076 0.0
C1303 C 0.97677 0.31359 0.82302 0.0
H1304 H 0.69999 0.01685 0.82947 0.0
H1305 H 0.64341 0.03086 0.8918 0.0
H1306 H 0.64672 0.9841 0.90575 0.0
H1307 H 0.66193 0.93838 0.89672 0.0
H1308 H 0.71978 0.92434 0.83544 0.0
H1309 H 0.72041 0.9721 0.82484 0.0
C1310 C 0.68867 0.00958 0.84626 0.0
C1311 C 0.67115 0.02693 0.8594 0.0
C1312 C 0.69103 0.98282 0.85433 0.0
C1313 C 0.6569 0.01768 0.88144 0.0
C1314 C 0.65877 0.99101 0.88933 0.0
C1315 C 0.6752 0.94595 0.88153 0.0
C1316 C 0.69073 0.92804 0.8668 0.0
C1317 C 0.67527 0.97328 0.8755 0.0
C1318 C 0.70789 0.93789 0.84721 0.0
C1319 C 0.70798 0.96511 0.84093 0.0
H1320 H 0.01578 0.71591 0.13421 0.0
H1321 H 0.03284 0.63181 0.12857 0.0
H1322 H 0.9857 0.62267 0.12042 0.0
H1323 H 0.9394 0.63819 0.1197 0.0
H1324 H 0.92213 0.72221 0.12691 0.0
H1325 H 0.96976 0.73186 0.12976 0.0
C1326 C 0.0092 0.69558 0.13116 0.0
C1327 C 0.02772 0.67447 0.13247 0.0
C1328 C 0.98208 0.6905 0.127 0.0
C1329 C 0.019 0.64835 0.12765 0.0
C1330 C 0.99204 0.64313 0.12321 0.0
C1331 C 0.94604 0.65867 0.12163 0.0
C1332 C 0.92725 0.67946 0.12342 0.0
C1333 C 0.97335 0.66399 0.12357 0.0
C1334 C 0.93618 0.70587 0.12559 0.0
C1335 C 0.96339 0.71137 0.12731 0.0
H1336 H 0.30926 0.02332 0.17898 0.0
H1337 H 0.36091 0.03838 0.11267 0.0
H1338 H 0.35582 0.99213 0.09795 0.0
H1339 H 0.34083 0.9464 0.10712 0.0
H1340 H 0.28818 0.93116 0.17265 0.0
H1341 H 0.28885 0.97864 0.18431 0.0
C1342 C 0.31913 0.01641 0.16119 0.0
C1343 C 0.33579 0.03392 0.1471 0.0
C1344 C 0.3158 0.98991 0.15274 0.0
C1345 C 0.3481 0.02512 0.12378 0.0
C1346 C 0.34522 0.99872 0.11545 0.0
C1347 C 0.32892 0.95368 0.1235 0.0
C1348 C 0.31449 0.93549 0.13905 0.0
C1349 C 0.32966 0.98081 0.13015 0.0
C1350 C 0.29913 0.94494 0.16023 0.0
C1351 C 0.29983 0.97199 0.16708 0.0
H1352 H 0.65065 0.06196 0.10335 0.0
H1353 H 0.72151 0.07751 0.14902 0.0
H1354 H 0.7262 0.02978 0.15863 0.0
H1355 H 0.70665 0.98442 0.15855 0.0
H1356 H 0.63708 0.96873 0.11122 0.0
H1357 H 0.63529 0.01568 0.09748 0.0
C1358 C 0.66749 0.05475 0.11484 0.0
C1359 C 0.68566 0.0731 0.1256 0.0
C1360 C 0.67 0.02736 0.12024 0.0
C1361 C 0.70744 0.06367 0.14036 0.0
C1362 C 0.70994 0.03643 0.14609 0.0
C1363 C 0.69143 0.99136 0.14489 0.0
C1364 C 0.67182 0.97346 0.13607 0.0
C1365 C 0.69082 0.01824 0.13686 0.0
C1366 C 0.65231 0.9823 0.11815 0.0
C1367 C 0.65125 0.0091 0.11044 0.0
H1368 H 0.13732 0.20635 0.27516 0.0
H1369 H 0.16399 0.25997 0.33651 0.0
H1370 H 0.16108 0.29752 0.30541 0.0
H1371 H 0.15084 0.31512 0.2604 0.0
H1372 H 0.12586 0.26058 0.19929 0.0
H1373 H 0.12818 0.22344 0.23062 0.0
C1374 C 0.1425 0.22624 0.28182 0.0
C1375 C 0.15078 0.2303 0.30821 0.0
C1376 C 0.14104 0.24761 0.2638 0.0
C1377 C 0.15762 0.25622 0.31631 0.0
C1378 C 0.15588 0.27773 0.29854 0.0
C1379 C 0.14578 0.2951 0.2541 0.0
C1380 C 0.13819 0.29059 0.22757 0.0
C1381 C 0.14755 0.27368 0.27222 0.0
C1382 C 0.13201 0.26451 0.21951 0.0
C1383 C 0.13324 0.24328 0.23744 0.0
H1384 H 0.71248 0.11002 0.24788 0.0
H1385 H 0.70958 0.1906 0.2183 0.0
H1386 H 0.74371 0.2041 0.25021 0.0
H1387 H 0.77658 0.19219 0.28417 0.0
H1388 H 0.782 0.11075 0.31163 0.0
H1389 H 0.74473 0.09833 0.28313 0.0
C1390 C 0.7191 0.13056 0.24889 0.0
C1391 C 0.70869 0.14935 0.231 0.0
C1392 C 0.73932 0.13794 0.26671 0.0
C1393 C 0.71755 0.17588 0.23196 0.0
C1394 C 0.73702 0.18356 0.25013 0.0
C1395 C 0.76941 0.1718 0.28416 0.0
C1396 C 0.78206 0.15245 0.29998 0.0
C1397 C 0.74841 0.16464 0.26725 0.0
C1398 C 0.77269 0.12603 0.29954 0.0
C1399 C 0.75135 0.11889 0.28326 0.0
H1400 H 0.81339 0.77892 0.27961 0.0
H1401 H 0.89603 0.78505 0.30201 0.0
H1402 H 0.90669 0.74647 0.27443 0.0
H1403 H 0.89272 0.71205 0.24208 0.0
H1404 H 0.8108 0.70864 0.21733 0.0
H1405 H 0.79953 0.74485 0.24775 0.0
C1406 C 0.83371 0.77167 0.27868 0.0
C1407 C 0.85385 0.78478 0.29298 0.0
C1408 C 0.83979 0.74991 0.2623 0.0
C1409 C 0.88013 0.77535 0.2912 0.0
C1410 C 0.88625 0.75326 0.27545 0.0
C1411 C 0.8724 0.71908 0.24378 0.0
C1412 C 0.85253 0.70771 0.22778 0.0
C1413 C 0.86628 0.7405 0.26071 0.0
C1414 C 0.82632 0.71719 0.22958 0.0
C1415 C 0.81991 0.73787 0.2469 0.0
H1416 H 0.29467 0.90229 0.2435 0.0
H1417 H 0.31626 0.81929 0.24124 0.0
H1418 H 0.28 0.80834 0.27164 0.0
H1419 H 0.23961 0.82173 0.29475 0.0
H1420 H 0.21594 0.90454 0.29539 0.0
H1421 H 0.25548 0.91634 0.26982 0.0
C1422 C 0.29179 0.88202 0.25044 0.0
C1423 C 0.30815 0.86158 0.24064 0.0
C1424 C 0.27024 0.87582 0.26711 0.0
C1425 C 0.30397 0.83522 0.24897 0.0
C1426 C 0.28315 0.82899 0.26608 0.0
C1427 C 0.24311 0.84242 0.2895 0.0
C1428 C 0.2246 0.86214 0.29673 0.0
C1429 C 0.26569 0.84901 0.27461 0.0
C1430 C 0.22971 0.88888 0.28991 0.0
C1431 C 0.25236 0.89567 0.2753 0.0
H1432 H 0.14872 0.74759 0.67936 0.0
H1433 H 0.14228 0.81324 0.73421 0.0
H1434 H 0.144 0.78206 0.77156 0.0
H1435 H 0.14588 0.73594 0.78856 0.0
H1436 H 0.15287 0.67069 0.73333 0.0
H1437 H 0.15211 0.70195 0.69627 0.0
C1438 C 0.14775 0.75517 0.69946 0.0
C1439 C 0.14524 0.78278 0.70388 0.0
C1440 C 0.14869 0.73715 0.72083 0.0
C1441 C 0.14413 0.79212 0.73015 0.0
C1442 C 0.14511 0.77428 0.75155 0.0
C1443 C 0.14757 0.72854 0.76847 0.0
C1444 C 0.14926 0.70086 0.76386 0.0
C1445 C 0.14722 0.74672 0.74713 0.0
C1446 C 0.15108 0.69176 0.73755 0.0
C1447 C 0.15081 0.70966 0.7163 0.0
H1448 H 0.20802 0.15297 0.7308 0.0
H1449 H 0.26147 0.13429 0.66671 0.0
H1450 H 0.29931 0.13573 0.6974 0.0
H1451 H 0.31679 0.14015 0.74324 0.0
H1452 H 0.26145 0.15518 0.80687 0.0
H1453 H 0.22504 0.15742 0.77559 0.0
C1454 C 0.22797 0.14959 0.72339 0.0
C1455 C 0.23192 0.14359 0.69652 0.0
C1456 C 0.24939 0.14962 0.74118 0.0
C1457 C 0.2579 0.13896 0.68736 0.0
C1458 C 0.27953 0.13966 0.70491 0.0
C1459 C 0.29676 0.14382 0.7502 0.0
C1460 C 0.29217 0.14793 0.77742 0.0
C1461 C 0.27545 0.14449 0.73201 0.0
C1462 C 0.26598 0.15272 0.78608 0.0
C1463 C 0.24493 0.15379 0.76818 0.0
H1464 H 0.90014 0.29552 0.76082 0.0
H1465 H 0.81626 0.312 0.76338 0.0
H1466 H 0.80788 0.27767 0.72984 0.0
H1467 H 0.82414 0.2402 0.70297 0.0
H1468 H 0.90782 0.22115 0.70349 0.0
H1469 H 0.91669 0.25908 0.73244 0.0
C1470 C 0.8802 0.29194 0.75341 0.0
C1471 C 0.85884 0.30633 0.76407 0.0
C1472 C 0.87551 0.27143 0.73499 0.0
C1473 C 0.83291 0.30118 0.75508 0.0
C1474 C 0.82816 0.2815 0.73609 0.0
C1475 C 0.84434 0.24459 0.70913 0.0
C1476 C 0.86525 0.22787 0.7011 0.0
C1477 C 0.84923 0.26605 0.72637 0.0
C1478 C 0.89132 0.23363 0.7095 0.0
C1479 C 0.89644 0.25535 0.72604 0.0
H1480 H 0.73751 0.86499 0.78708 0.0
H1481 H 0.67207 0.87349 0.73209 0.0
H1482 H 0.70338 0.87372 0.69497 0.0
H1483 H 0.74941 0.87116 0.67835 0.0
H1484 H 0.81415 0.86128 0.73412 0.0
H1485 H 0.78274 0.86116 0.77078 0.0
C1486 C 0.72987 0.86641 0.76703 0.0
C1487 C 0.70232 0.86892 0.76247 0.0
C1488 C 0.74787 0.86615 0.7459 0.0
C1489 C 0.69312 0.87167 0.73623 0.0
C1490 C 0.71102 0.87164 0.715 0.0
C1491 C 0.75667 0.86885 0.6985 0.0
C1492 C 0.78417 0.86628 0.7034 0.0
C1493 C 0.73845 0.86883 0.71961 0.0
C1494 C 0.79315 0.86333 0.72969 0.0
C1495 C 0.7752 0.86331 0.75072 0.0
H1496 H 0.24438 0.11121 0.28918 0.0
H1497 H 0.23091 0.19389 0.30808 0.0
H1498 H 0.26251 0.20748 0.27385 0.0
H1499 H 0.29163 0.19579 0.23665 0.0
H1500 H 0.30387 0.11282 0.21714 0.0
H1501 H 0.27532 0.09943 0.25366 0.0
C1502 C 0.24882 0.13215 0.28618 0.0
C1503 C 0.23538 0.15154 0.30105 0.0
C1504 C 0.26659 0.13977 0.26619 0.0
C1505 C 0.24093 0.17865 0.29666 0.0
C1506 C 0.25895 0.18641 0.27712 0.0
C1507 C 0.28822 0.17478 0.24049 0.0
C1508 C 0.29979 0.15541 0.22403 0.0
C1509 C 0.2715 0.16714 0.2614 0.0
C1510 C 0.29515 0.12824 0.22936 0.0
C1511 C 0.27881 0.1205 0.25028 0.0
H1512 H 0.88702 0.31889 0.25243 0.0
H1513 H 0.83113 0.27726 0.20229 0.0
H1514 H 0.82802 0.2414 0.23505 0.0
H1515 H 0.8423 0.22117 0.27729 0.0
H1516 H 0.89878 0.26246 0.32689 0.0
H1517 H 0.90042 0.29921 0.29503 0.0
C1518 C 0.87395 0.30212 0.24872 0.0
C1519 C 0.85939 0.3008 0.22484 0.0
C1520 C 0.87251 0.2814 0.26748 0.0
C1521 C 0.84261 0.27882 0.22044 0.0
C1522 C 0.84089 0.25824 0.23914 0.0
C1523 C 0.85516 0.23808 0.28101 0.0
C1524 C 0.87056 0.23894 0.30439 0.0
C1525 C 0.85603 0.25914 0.26256 0.0
C1526 C 0.88663 0.26134 0.30917 0.0
C1527 C 0.88763 0.28233 0.2909 0.0
H1528 H 0.69892 0.8819 0.22434 0.0
H1529 H 0.72414 0.80094 0.20997 0.0
H1530 H 0.75829 0.80496 0.24426 0.0
H1531 H 0.78153 0.83164 0.27793 0.0
H1532 H 0.75464 0.91122 0.29515 0.0
H1533 H 0.72051 0.90773 0.26029 0.0
C1534 C 0.71186 0.86516 0.2288 0.0
C1535 C 0.70905 0.84119 0.21457 0.0
C1536 C 0.73113 0.86741 0.24902 0.0
C1537 C 0.72577 0.81954 0.22075 0.0
C1538 C 0.74539 0.82185 0.24028 0.0
C1539 C 0.76817 0.84817 0.27394 0.0
C1540 C 0.77063 0.87175 0.28874 0.0
C1541 C 0.74833 0.8457 0.25444 0.0
C1542 C 0.75298 0.89293 0.2839 0.0
C1543 C 0.73359 0.89092 0.26398 0.0
H1544 H 0.13977 0.73604 0.19755 0.0
H1545 H 0.13723 0.66828 0.25029 0.0
H1546 H 0.13748 0.69806 0.28873 0.0
H1547 H 0.13712 0.74341 0.30714 0.0
H1548 H 0.1351 0.81087 0.25352 0.0
H1549 H 0.13799 0.78117 0.2159 0.0
C1550 C 0.13964 0.7278 0.21748 0.0
C1551 C 0.13876 0.70004 0.22114 0.0
C1552 C 0.13875 0.74502 0.2394 0.0
C1553 C 0.13803 0.68963 0.24703 0.0
C1554 C 0.13806 0.70664 0.26899 0.0
C1555 C 0.13706 0.75174 0.28732 0.0
C1556 C 0.13622 0.77963 0.28362 0.0
C1557 C 0.13806 0.73442 0.2654 0.0
C1558 C 0.13632 0.78971 0.25746 0.0
C1559 C 0.13784 0.77267 0.23569 0.0
H1560 H 0.28928 0.82654 0.77437 0.0
H1561 H 0.30385 0.91055 0.78571 0.0
H1562 H 0.27484 0.92106 0.748 0.0
H1563 H 0.24315 0.90628 0.71308 0.0
H1564 H 0.22715 0.82243 0.7042 0.0
H1565 H 0.259 0.81189 0.73943 0.0
C1566 C 0.28635 0.84717 0.76851 0.0
C1567 C 0.29877 0.8677 0.78292 0.0
C1568 C 0.2693 0.85308 0.74718 0.0
C1569 C 0.2945 0.89432 0.77506 0.0
C1570 C 0.27791 0.90036 0.75347 0.0
C1571 C 0.24707 0.88576 0.71869 0.0
C1572 C 0.23297 0.86511 0.70614 0.0
C1573 C 0.26494 0.87991 0.73954 0.0
C1574 C 0.23777 0.83857 0.71374 0.0
C1575 C 0.25593 0.83257 0.73386 0.0
H1576 H 0.12295 0.32221 0.74677 0.0
H1577 H 0.14111 0.27049 0.81309 0.0
H1578 H 0.14392 0.23239 0.78329 0.0
H1579 H 0.13986 0.21345 0.73883 0.0
H1580 H 0.12235 0.26484 0.67218 0.0
H1581 H 0.12025 0.30326 0.70181 0.0
C1582 C 0.12766 0.30264 0.75473 0.0
C1583 C 0.13175 0.29932 0.78222 0.0
C1584 C 0.12915 0.28068 0.73746 0.0
C1585 C 0.1378 0.27373 0.79208 0.0
C1586 C 0.1394 0.25187 0.77504 0.0
C1587 C 0.13597 0.23304 0.7306 0.0
C1588 C 0.13133 0.2361 0.70317 0.0
C1589 C 0.13495 0.25508 0.74773 0.0
C1590 C 0.12572 0.26174 0.69318 0.0
C1591 C 0.12466 0.28379 0.71012 0.0
H1592 H 0.72884 0.19203 0.7871 0.0
H1593 H 0.69473 0.11335 0.78128 0.0
H1594 H 0.72441 0.10271 0.7446 0.0
H1595 H 0.76124 0.11529 0.71501 0.0
H1596 H 0.79731 0.19273 0.72286 0.0
H1597 H 0.7658 0.20443 0.75785 0.0
C1598 C 0.72776 0.17266 0.77763 0.0
C1599 C 0.70953 0.15357 0.78678 0.0
C1600 C 0.74535 0.16643 0.75698 0.0
C1601 C 0.70862 0.12838 0.77462 0.0
C1602 C 0.72558 0.12228 0.75362 0.0
C1603 C 0.76192 0.13476 0.72429 0.0
C1604 C 0.78138 0.15316 0.71649 0.0
C1605 C 0.74415 0.14107 0.74476 0.0
C1606 C 0.78252 0.17823 0.72881 0.0
C1607 C 0.7645 0.18493 0.74871 0.0
H1608 H 0.86393 0.68391 0.74645 0.0
H1609 H 0.85827 0.73787 0.81281 0.0
H1610 H 0.85975 0.77597 0.78248 0.0
H1611 H 0.86473 0.79396 0.73727 0.0
H1612 H 0.87041 0.73974 0.67116 0.0
H1613 H 0.8672 0.70182 0.70133 0.0
C1614 C 0.8628 0.70398 0.75435 0.0
C1615 C 0.86106 0.70793 0.78195 0.0
C1616 C 0.86396 0.72581 0.73684 0.0
C1617 C 0.85969 0.73416 0.7917 0.0
C1618 C 0.86058 0.75599 0.77435 0.0
C1619 C 0.86494 0.77389 0.72937 0.0
C1620 C 0.86796 0.76984 0.70187 0.0
C1621 C 0.86302 0.75207 0.7469 0.0
C1622 C 0.86856 0.74356 0.69219 0.0
C1623 C 0.86654 0.72181 0.70944 0.0
H1624 H 0.27024 0.21608 0.13453 0.0
H1625 H 0.33445 0.27324 0.13179 0.0
H1626 H 0.30253 0.30956 0.13054 0.0
H1627 H 0.25642 0.32555 0.13108 0.0
H1628 H 0.19224 0.26862 0.13561 0.0
H1629 H 0.22423 0.23198 0.13587 0.0
C1630 C 0.27747 0.23638 0.13386 0.0
C1631 C 0.30505 0.24151 0.13321 0.0
C1632 C 0.25893 0.25743 0.13365 0.0
C1633 C 0.31356 0.26826 0.13194 0.0
C1634 C 0.29524 0.28924 0.13143 0.0
C1635 C 0.24937 0.30514 0.13215 0.0
C1636 C 0.22189 0.29996 0.1333 0.0
C1637 C 0.26789 0.28409 0.13238 0.0
C1638 C 0.21324 0.27331 0.13473 0.0
C1639 C 0.23154 0.25228 0.13483 0.0
H1640 H 0.20746 0.73589 0.87256 0.0
H1641 H 0.26443 0.67437 0.85365 0.0
H1642 H 0.30019 0.70687 0.85391 0.0
H1643 H 0.31589 0.7524 0.8605 0.0
H1644 H 0.26002 0.81448 0.88014 0.0
H1645 H 0.22347 0.78237 0.87849 0.0
C1646 C 0.22766 0.72973 0.86824 0.0
C1647 C 0.23319 0.70267 0.86324 0.0
C1648 C 0.24847 0.74861 0.86873 0.0
C1649 C 0.25955 0.69499 0.85782 0.0
C1650 C 0.28011 0.71357 0.85796 0.0
C1651 C 0.29578 0.75888 0.8647 0.0
C1652 C 0.29082 0.7858 0.87057 0.0
C1653 C 0.2749 0.74034 0.86373 0.0
C1654 C 0.26445 0.79391 0.87539 0.0
C1655 C 0.24351 0.77553 0.87451 0.0
H1656 H 0.27175 0.21285 0.86391 0.0
H1657 H 0.33352 0.27059 0.87882 0.0
H1658 H 0.3003 0.3063 0.87994 0.0
H1659 H 0.25343 0.32077 0.87803 0.0
H1660 H 0.19204 0.26181 0.86596 0.0
H1661 H 0.22544 0.22709 0.86222 0.0
C1662 C 0.27805 0.23327 0.86712 0.0
C1663 C 0.30511 0.23904 0.87121 0.0
C1664 C 0.25886 0.25353 0.86839 0.0
C1665 C 0.31282 0.2656 0.87562 0.0
C1666 C 0.29382 0.28602 0.87634 0.0
C1667 C 0.24731 0.30033 0.8748 0.0
C1668 C 0.2201 0.29416 0.87211 0.0
C1669 C 0.26671 0.28015 0.87311 0.0
C1670 C 0.21271 0.26746 0.86762 0.0
C1671 C 0.23184 0.24743 0.86562 0.0
H1672 H 0.72306 0.21948 0.84558 0.0
H1673 H 0.67566 0.25732 0.90586 0.0
H1674 H 0.70645 0.29509 0.90687 0.0
H1675 H 0.74781 0.31638 0.89181 0.0
H1676 H 0.79532 0.27791 0.83179 0.0
H1677 H 0.76339 0.24142 0.82937 0.0
C1678 C 0.7196 0.23586 0.85913 0.0
C1679 C 0.69728 0.23545 0.87587 0.0
C1680 C 0.73731 0.25746 0.85951 0.0
C1681 C 0.69269 0.25719 0.89279 0.0
C1682 C 0.71031 0.27875 0.89338 0.0
C1683 C 0.75103 0.3002 0.87795 0.0
C1684 C 0.77402 0.29989 0.86208 0.0
C1685 C 0.73277 0.27903 0.87692 0.0
C1686 C 0.77788 0.27866 0.84432 0.0
C1687 C 0.75967 0.2577 0.84298 0.0
H1688 H 0.69378 0.75355 0.89408 0.0
H1689 H 0.72618 0.7961 0.82705 0.0
H1690 H 0.76201 0.7633 0.82363 0.0
H1691 H 0.78518 0.7237 0.84092 0.0
H1692 H 0.75388 0.6828 0.90953 0.0
H1693 H 0.71646 0.71357 0.91077 0.0
C1694 C 0.70846 0.75549 0.87849 0.0
C1695 C 0.70725 0.77727 0.86084 0.0
C1696 C 0.72933 0.7369 0.87698 0.0
C1697 C 0.72663 0.77956 0.84092 0.0
C1698 C 0.74718 0.76084 0.839 0.0
C1699 C 0.77034 0.72156 0.85629 0.0
C1700 C 0.77261 0.70085 0.87515 0.0
C1701 C 0.74898 0.73967 0.8572 0.0
C1702 C 0.7527 0.69824 0.89455 0.0
C1703 C 0.73127 0.71597 0.89539 0.0
H1704 H 0.72742 0.78073 0.14993 0.0
H1705 H 0.67332 0.74135 0.09627 0.0
H1706 H 0.70452 0.7042 0.09188 0.0
H1707 H 0.74789 0.68331 0.1025 0.0
H1708 H 0.80213 0.72431 0.15493 0.0
H1709 H 0.77031 0.76035 0.16028 0.0
C1710 C 0.72248 0.76426 0.13697 0.0
C1711 C 0.698 0.7641 0.12331 0.0
C1712 C 0.74063 0.7431 0.13431 0.0
C1713 C 0.69186 0.74205 0.10719 0.0
C1714 C 0.70979 0.7208 0.10457 0.0
C1715 C 0.75271 0.70006 0.11519 0.0
C1716 C 0.7775 0.70088 0.12832 0.0
C1717 C 0.73431 0.72113 0.11797 0.0
C1718 C 0.78334 0.72292 0.14456 0.0
C1719 C 0.7651 0.74368 0.14764 0.0
H1720 H 0.22596 0.72544 0.16158 0.0
H1721 H 0.25678 0.68535 0.09252 0.0
H1722 H 0.29221 0.71833 0.08908 0.0
H1723 H 0.31254 0.76041 0.10369 0.0
H1724 H 0.28034 0.80153 0.17157 0.0
H1725 H 0.24725 0.76645 0.17724 0.0
C1726 C 0.24033 0.72392 0.14569 0.0
C1727 C 0.23841 0.70297 0.12719 0.0
C1728 C 0.26037 0.74328 0.1435 0.0
C1729 C 0.25773 0.70105 0.10716 0.0
C1730 C 0.27794 0.72007 0.10505 0.0
C1731 C 0.29847 0.7616 0.1199 0.0
C1732 C 0.29889 0.78372 0.13708 0.0
C1733 C 0.27919 0.74152 0.12284 0.0
C1734 C 0.28044 0.78487 0.15794 0.0
C1735 C 0.26146 0.7648 0.1612 0.0
H1736 H 0.68589 0.25254 0.10558 0.0
H1737 H 0.725 0.20191 0.16314 0.0
H1738 H 0.75841 0.23606 0.17087 0.0
H1739 H 0.7773 0.27954 0.1606 0.0
H1740 H 0.74056 0.32946 0.1009 0.0
H1741 H 0.70511 0.29673 0.09533 0.0
C1742 C 0.70164 0.24905 0.11991 0.0
C1743 C 0.70289 0.22457 0.13369 0.0
C1744 C 0.72121 0.26871 0.12399 0.0
C1745 C 0.72355 0.22038 0.1521 0.0
C1746 C 0.7427 0.23997 0.1566 0.0
C1747 C 0.7618 0.28331 0.14612 0.0
C1748 C 0.76203 0.30699 0.13098 0.0
C1749 C 0.74189 0.26407 0.14246 0.0
C1750 C 0.74105 0.31161 0.11297 0.0
C1751 C 0.72079 0.29274 0.10961 0.0
loop_
_geom_bond_atom_site_label_1
_geom_bond_atom_site_label_2
_geom_bond_distance
_geom_bond_site_symmetry_2
_ccdc_geom_bond_type
Co0 N4 2.148 . S
Co0 N10 2.128 . S
Co0 N20 2.194 . S
Co0 O25 2.351 . S
Co0 O26 2.155 . S
Co0 O27 2.096 . S
C1 N4 1.301 . S
C1 N5 1.328 . S
C1 H6 0.930 . S
C2 C3 1.333 . S
C2 N4 1.317 . S
C2 H7 0.930 . S
C3 C2 1.333 . S
C3 N5 1.350 . S
C3 H29 0.931 . S
N4 Co0 2.148 . S
N4 C1 1.301 . S
N4 C2 1.317 . S
N5 C1 1.328 . S
N5 C3 1.350 . S
H6 C1 0.930 . S
H7 C2 0.930 . S
C8 O9 1.224 . S
C8 O27 1.247 . S
O9 C8 1.224 . S
N10 Co0 2.128 . S
N10 C11 1.355 . S
N10 C13 1.311 . S
C11 N10 1.355 . S
C11 C12 1.363 . S
C11 H23 0.929 . S
C12 C11 1.363 . S
C12 N14 1.375 . S
C12 H30 0.931 . S
C13 N10 1.311 . S
C13 N14 1.347 . S
C13 H24 0.929 . S
N14 C12 1.375 . S
N14 C13 1.347 . S
C15 C18 1.365 . S
C15 N20 1.328 . S
C15 H21 0.929 . S
C16 C17 1.362 . S
C16 C19 1.378 . S
C16 H31 0.929 . S
C17 C16 1.362 . S
C17 C18 1.366 . S
C18 C15 1.365 . S
C18 C17 1.366 . S
C18 H32 0.930 . S
C19 C16 1.378 . S
C19 N20 1.315 . S
C19 H22 0.930 . S
N20 Co0 2.194 . S
N20 C15 1.328 . S
N20 C19 1.315 . S
H21 C15 0.929 . S
H22 C19 0.930 . S
H23 C11 0.929 . S
H24 C13 0.929 . S
O25 Co0 2.351 . S
O25 C28 1.244 . S
O26 Co0 2.155 . S
O26 C28 1.240 . S
O27 Co0 2.096 . S
O27 C8 1.247 . S
C28 O25 1.244 . S
C28 O26 1.240 . S
H29 C3 0.931 . S
H30 C12 0.931 . S
H31 C16 0.929 . S
H32 C18 0.930 . S
Co33 N37 2.148 . S
Co33 N43 2.128 . S
Co33 N53 2.194 . S
Co33 O58 2.351 . S
Co33 O59 2.155 . S
Co33 O60 2.096 . S
C34 N37 1.301 . S
C34 N38 1.328 . S
C34 H39 0.930 . S
C35 C36 1.333 . S
C35 N37 1.317 . S
C35 H40 0.930 . S
C36 C35 1.333 . S
C36 N38 1.350 . S
C36 H62 0.931 . S
N37 Co33 2.148 . S
N37 C34 1.301 . S
N37 C35 1.317 . S
N38 C34 1.328 . S
N38 C36 1.350 . S
H39 C34 0.930 . S
H40 C35 0.930 . S
C41 O42 1.224 . S
C41 O60 1.247 . S
O42 C41 1.224 . S
N43 Co33 2.128 . S
N43 C44 1.355 . S
N43 C46 1.311 . S
C44 N43 1.355 . S
C44 C45 1.363 . S
C44 H56 0.929 . S
C45 C44 1.363 . S
C45 N47 1.375 . S
C45 H63 0.931 . S
C46 N43 1.311 . S
C46 N47 1.347 . S
C46 H57 0.929 . S
N47 C45 1.375 . S
N47 C46 1.347 . S
C48 C51 1.365 . S
C48 N53 1.328 . S
C48 H54 0.929 . S
C49 C50 1.362 . S
C49 C52 1.378 . S
C49 H64 0.929 . S
C50 C49 1.362 . S
C50 C51 1.366 . S
C51 C48 1.365 . S
C51 C50 1.366 . S
C51 H65 0.930 . S
C52 C49 1.378 . S
C52 N53 1.315 . S
C52 H55 0.930 . S
N53 Co33 2.194 . S
N53 C48 1.328 . S
N53 C52 1.315 . S
H54 C48 0.929 . S
H55 C52 0.930 . S
H56 C44 0.929 . S
H57 C46 0.929 . S
O58 Co33 2.351 . S
O58 C61 1.244 . S
O59 Co33 2.155 . S
O59 C61 1.240 . S
O60 Co33 2.096 . S
O60 C41 1.247 . S
C61 O58 1.244 . S
C61 O59 1.240 . S
H62 C36 0.931 . S
H63 C45 0.931 . S
H64 C49 0.929 . S
H65 C51 0.930 . S
Co66 N70 2.148 . S
Co66 N76 2.128 . S
Co66 N86 2.194 . S
Co66 O91 2.351 . S
Co66 O92 2.155 . S
Co66 O93 2.096 . S
C67 N70 1.301 . S
C67 N71 1.328 . S
C67 H72 0.930 . S
C68 C69 1.333 . S
C68 N70 1.317 . S
C68 H73 0.930 . S
C69 C68 1.333 . S
C69 N71 1.350 . S
C69 H95 0.931 . S
N70 Co66 2.148 . S
N70 C67 1.301 . S
N70 C68 1.317 . S
N71 C67 1.328 . S
N71 C69 1.350 . S
H72 C67 0.930 . S
H73 C68 0.930 . S
C74 O75 1.224 . S
C74 O93 1.247 . S
O75 C74 1.224 . S
N76 Co66 2.128 . S
N76 C77 1.355 . S
N76 C79 1.311 . S
C77 N76 1.355 . S
C77 C78 1.363 . S
C77 H89 0.929 . S
C78 C77 1.363 . S
C78 N80 1.375 . S
C78 H96 0.931 . S
C79 N76 1.311 . S
C79 N80 1.347 . S
C79 H90 0.929 . S
N80 C78 1.375 . S
N80 C79 1.347 . S
C81 C84 1.365 . S
C81 N86 1.328 . S
C81 H87 0.929 . S
C82 C83 1.362 . S
C82 C85 1.378 . S
C82 H97 0.929 . S
C83 C82 1.362 . S
C83 C84 1.366 . S
C84 C81 1.365 . S
C84 C83 1.366 . S
C84 H98 0.930 . S
C85 C82 1.378 . S
C85 N86 1.315 . S
C85 H88 0.930 . S
N86 Co66 2.194 . S
N86 C81 1.328 . S
N86 C85 1.315 . S
H87 C81 0.929 . S
H88 C85 0.930 . S
H89 C77 0.929 . S
H90 C79 0.929 . S
O91 Co66 2.351 . S
O91 C94 1.244 . S
O92 Co66 2.155 . S
O92 C94 1.240 . S
O93 Co66 2.096 . S
O93 C74 1.247 . S
C94 O91 1.244 . S
C94 O92 1.240 . S
H95 C69 0.931 . S
H96 C78 0.931 . S
H97 C82 0.929 . S
H98 C84 0.930 . S
Co99 N103 2.148 . S
Co99 N109 2.128 . S
Co99 N119 2.194 . S
Co99 O124 2.351 . S
Co99 O125 2.155 . S
Co99 O126 2.096 . S
C100 N103 1.301 . S
C100 N104 1.328 . S
C100 H105 0.930 . S
C101 C102 1.333 . S
C101 N103 1.317 . S
C101 H106 0.930 . S
C102 C101 1.333 . S
C102 N104 1.350 . S
C102 H128 0.931 . S
N103 Co99 2.148 . S
N103 C100 1.301 . S
N103 C101 1.317 . S
N104 C100 1.328 . S
N104 C102 1.350 . S
H105 C100 0.930 . S
H106 C101 0.930 . S
C107 O108 1.224 . S
C107 O126 1.247 . S
O108 C107 1.224 . S
N109 Co99 2.128 . S
N109 C110 1.355 . S
N109 C112 1.311 . S
C110 N109 1.355 . S
C110 C111 1.363 . S
C110 H122 0.929 . S
C111 C110 1.363 . S
C111 N113 1.375 . S
C111 H129 0.931 . S
C112 N109 1.311 . S
C112 N113 1.347 . S
C112 H123 0.929 . S
N113 C111 1.375 . S
N113 C112 1.347 . S
C114 C117 1.365 . S
C114 N119 1.328 . S
C114 H120 0.929 . S
C115 C116 1.362 . S
C115 C118 1.378 . S
C115 H130 0.929 . S
C116 C115 1.362 . S
C116 C117 1.366 . S
C117 C114 1.365 . S
C117 C116 1.366 . S
C117 H131 0.930 . S
C118 C115 1.378 . S
C118 N119 1.315 . S
C118 H121 0.930 . S
N119 Co99 2.194 . S
N119 C114 1.328 . S
N119 C118 1.315 . S
H120 C114 0.929 . S
H121 C118 0.930 . S
H122 C110 0.929 . S
H123 C112 0.929 . S
O124 Co99 2.351 . S
O124 C127 1.244 . S
O125 Co99 2.155 . S
O125 C127 1.240 . S
O126 Co99 2.096 . S
O126 C107 1.247 . S
C127 O124 1.244 . S
C127 O125 1.240 . S
H128 C102 0.931 . S
H129 C111 0.931 . S
H130 C115 0.929 . S
H131 C117 0.930 . S
Co132 N136 2.148 . S
Co132 N142 2.128 . S
Co132 N152 2.194 . S
Co132 O157 2.351 . S
Co132 O158 2.155 . S
Co132 O159 2.096 . S
C133 N136 1.301 . S
C133 N137 1.328 . S
C133 H138 0.930 . S
C134 C135 1.333 . S
C134 N136 1.317 . S
C134 H139 0.930 . S
C135 C134 1.333 . S
C135 N137 1.350 . S
C135 H161 0.931 . S
N136 Co132 2.148 . S
N136 C133 1.301 . S
N136 C134 1.317 . S
N137 C133 1.328 . S
N137 C135 1.350 . S
H138 C133 0.930 . S
H139 C134 0.930 . S
C140 O141 1.224 . S
C140 O159 1.247 . S
O141 C140 1.224 . S
N142 Co132 2.128 . S
N142 C143 1.355 . S
N142 C145 1.311 . S
C143 N142 1.355 . S
C143 C144 1.363 . S
C143 H155 0.929 . S
C144 C143 1.363 . S
C144 N146 1.375 . S
C144 H162 0.931 . S
C145 N142 1.311 . S
C145 N146 1.347 . S
C145 H156 0.929 . S
N146 C144 1.375 . S
N146 C145 1.347 . S
C147 C150 1.365 . S
C147 N152 1.328 . S
C147 H153 0.929 . S
C148 C149 1.362 . S
C148 C151 1.378 . S
C148 H163 0.929 . S
C149 C148 1.362 . S
C149 C150 1.366 . S
C150 C147 1.365 . S
C150 C149 1.366 . S
C150 H164 0.930 . S
C151 C148 1.378 . S
C151 N152 1.315 . S
C151 H154 0.930 . S
N152 Co132 2.194 . S
N152 C147 1.328 . S
N152 C151 1.315 . S
H153 C147 0.929 . S
H154 C151 0.930 . S
H155 C143 0.929 . S
H156 C145 0.929 . S
O157 Co132 2.351 . S
O157 C160 1.244 . S
O158 Co132 2.155 . S
O158 C160 1.240 . S
O159 Co132 2.096 . S
O159 C140 1.247 . S
C160 O157 1.244 . S
C160 O158 1.240 . S
H161 C135 0.931 . S
H162 C144 0.931 . S
H163 C148 0.929 . S
H164 C150 0.930 . S
Co165 N169 2.148 . S
Co165 N175 2.128 . S
Co165 N185 2.194 . S
Co165 O190 2.351 . S
Co165 O191 2.155 . S
Co165 O192 2.096 . S
C166 N169 1.301 . S
C166 N170 1.328 . S
C166 H171 0.930 . S
C167 C168 1.333 . S
C167 N169 1.317 . S
C167 H172 0.930 . S
C168 C167 1.333 . S
C168 N170 1.350 . S
C168 H194 0.931 . S
N169 Co165 2.148 . S
N169 C166 1.301 . S
N169 C167 1.317 . S
N170 C166 1.328 . S
N170 C168 1.350 . S
H171 C166 0.930 . S
H172 C167 0.930 . S
C173 O174 1.224 . S
C173 O192 1.247 . S
O174 C173 1.224 . S
N175 Co165 2.128 . S
N175 C176 1.355 . S
N175 C178 1.311 . S
C176 N175 1.355 . S
C176 C177 1.363 . S
C176 H188 0.929 . S
C177 C176 1.363 . S
C177 N179 1.375 . S
C177 H195 0.931 . S
C178 N175 1.311 . S
C178 N179 1.347 . S
C178 H189 0.929 . S
N179 C177 1.375 . S
N179 C178 1.347 . S
C180 C183 1.365 . S
C180 N185 1.328 . S
C180 H186 0.929 . S
C181 C182 1.362 . S
C181 C184 1.378 . S
C181 H196 0.929 . S
C182 C181 1.362 . S
C182 C183 1.366 . S
C183 C180 1.365 . S
C183 C182 1.366 . S
C183 H197 0.930 . S
C184 C181 1.378 . S
C184 N185 1.315 . S
C184 H187 0.930 . S
N185 Co165 2.194 . S
N185 C180 1.328 . S
N185 C184 1.315 . S
H186 C180 0.929 . S
H187 C184 0.930 . S
H188 C176 0.929 . S
H189 C178 0.929 . S
O190 Co165 2.351 . S
O190 C193 1.244 . S
O191 Co165 2.155 . S
O191 C193 1.240 . S
O192 Co165 2.096 . S
O192 C173 1.247 . S
C193 O190 1.244 . S
C193 O191 1.240 . S
H194 C168 0.931 . S
H195 C177 0.931 . S
H196 C181 0.929 . S
H197 C183 0.930 . S
Co198 N202 2.148 . S
Co198 N208 2.128 . S
Co198 N218 2.194 . S
Co198 O223 2.351 . S
Co198 O224 2.155 . S
Co198 O225 2.096 . S
C199 N202 1.301 . S
C199 N203 1.328 . S
C199 H204 0.930 . S
C200 C201 1.333 . S
C200 N202 1.317 . S
C200 H205 0.930 . S
C201 C200 1.333 . S
C201 N203 1.350 . S
C201 H227 0.931 . S
N202 Co198 2.148 . S
N202 C199 1.301 . S
N202 C200 1.317 . S
N203 C199 1.328 . S
N203 C201 1.350 . S
H204 C199 0.930 . S
H205 C200 0.930 . S
C206 O207 1.224 . S
C206 O225 1.247 . S
O207 C206 1.224 . S
N208 Co198 2.128 . S
N208 C209 1.355 . S
N208 C211 1.311 . S
C209 N208 1.355 . S
C209 C210 1.363 . S
C209 H221 0.929 . S
C210 C209 1.363 . S
C210 N212 1.375 . S
C210 H228 0.931 . S
C211 N208 1.311 . S
C211 N212 1.347 . S
C211 H222 0.929 . S
N212 C210 1.375 . S
N212 C211 1.347 . S
C213 C216 1.365 . S
C213 N218 1.328 . S
C213 H219 0.929 . S
C214 C215 1.362 . S
C214 C217 1.378 . S
C214 H229 0.929 . S
C215 C214 1.362 . S
C215 C216 1.366 . S
C216 C213 1.365 . S
C216 C215 1.366 . S
C216 H230 0.930 . S
C217 C214 1.378 . S
C217 N218 1.315 . S
C217 H220 0.930 . S
N218 Co198 2.194 . S
N218 C213 1.328 . S
N218 C217 1.315 . S
H219 C213 0.929 . S
H220 C217 0.930 . S
H221 C209 0.929 . S
H222 C211 0.929 . S
O223 Co198 2.351 . S
O223 C226 1.244 . S
O224 Co198 2.155 . S
O224 C226 1.240 . S
O225 Co198 2.096 . S
O225 C206 1.247 . S
C226 O223 1.244 . S
C226 O224 1.240 . S
H227 C201 0.931 . S
H228 C210 0.931 . S
H229 C214 0.929 . S
H230 C216 0.930 . S
Co231 N235 2.148 . S
Co231 N241 2.128 . S
Co231 N251 2.194 . S
Co231 O256 2.351 . S
Co231 O257 2.155 . S
Co231 O258 2.096 . S
C232 N235 1.301 . S
C232 N236 1.328 . S
C232 H237 0.930 . S
C233 C234 1.333 . S
C233 N235 1.317 . S
C233 H238 0.930 . S
C234 C233 1.333 . S
C234 N236 1.350 . S
C234 H260 0.931 . S
N235 Co231 2.148 . S
N235 C232 1.301 . S
N235 C233 1.317 . S
N236 C232 1.328 . S
N236 C234 1.350 . S
H237 C232 0.930 . S
H238 C233 0.930 . S
C239 O240 1.224 . S
C239 O258 1.247 . S
O240 C239 1.224 . S
N241 Co231 2.128 . S
N241 C242 1.355 . S
N241 C244 1.311 . S
C242 N241 1.355 . S
C242 C243 1.363 . S
C242 H254 0.929 . S
C243 C242 1.363 . S
C243 N245 1.375 . S
C243 H261 0.931 . S
C244 N241 1.311 . S
C244 N245 1.347 . S
C244 H255 0.929 . S
N245 C243 1.375 . S
N245 C244 1.347 . S
C246 C249 1.365 . S
C246 N251 1.328 . S
C246 H252 0.929 . S
C247 C248 1.362 . S
C247 C250 1.378 . S
C247 H262 0.929 . S
C248 C247 1.362 . S
C248 C249 1.366 . S
C249 C246 1.365 . S
C249 C248 1.366 . S
C249 H263 0.930 . S
C250 C247 1.378 . S
C250 N251 1.315 . S
C250 H253 0.930 . S
N251 Co231 2.194 . S
N251 C246 1.328 . S
N251 C250 1.315 . S
H252 C246 0.929 . S
H253 C250 0.930 . S
H254 C242 0.929 . S
H255 C244 0.929 . S
O256 Co231 2.351 . S
O256 C259 1.244 . S
O257 Co231 2.155 . S
O257 C259 1.240 . S
O258 Co231 2.096 . S
O258 C239 1.247 . S
C259 O256 1.244 . S
C259 O257 1.240 . S
H260 C234 0.931 . S
H261 C243 0.931 . S
H262 C247 0.929 . S
H263 C249 0.930 . S
Co264 N268 2.148 . S
Co264 N274 2.128 . S
Co264 N284 2.194 . S
Co264 O289 2.351 . S
Co264 O290 2.155 . S
Co264 O291 2.096 . S
C265 N268 1.301 . S
C265 N269 1.328 . S
C265 H270 0.930 . S
C266 C267 1.333 . S
C266 N268 1.317 . S
C266 H271 0.930 . S
C267 C266 1.333 . S
C267 N269 1.350 . S
C267 H293 0.931 . S
N268 Co264 2.148 . S
N268 C265 1.301 . S
N268 C266 1.317 . S
N269 C265 1.328 . S
N269 C267 1.350 . S
H270 C265 0.930 . S
H271 C266 0.930 . S
C272 O273 1.224 . S
C272 O291 1.247 . S
O273 C272 1.224 . S
N274 Co264 2.128 . S
N274 C275 1.355 . S
N274 C277 1.311 . S
C275 N274 1.355 . S
C275 C276 1.363 . S
C275 H287 0.929 . S
C276 C275 1.363 . S
C276 N278 1.375 . S
C276 H294 0.931 . S
C277 N274 1.311 . S
C277 N278 1.347 . S
C277 H288 0.929 . S
N278 C276 1.375 . S
N278 C277 1.347 . S
C279 C282 1.365 . S
C279 N284 1.328 . S
C279 H285 0.929 . S
C280 C281 1.362 . S
C280 C283 1.378 . S
C280 H295 0.929 . S
C281 C280 1.362 . S
C281 C282 1.366 . S
C282 C279 1.365 . S
C282 C281 1.366 . S
C282 H296 0.930 . S
C283 C280 1.378 . S
C283 N284 1.315 . S
C283 H286 0.930 . S
N284 Co264 2.194 . S
N284 C279 1.328 . S
N284 C283 1.315 . S
H285 C279 0.929 . S
H286 C283 0.930 . S
H287 C275 0.929 . S
H288 C277 0.929 . S
O289 Co264 2.351 . S
O289 C292 1.244 . S
O290 Co264 2.155 . S
O290 C292 1.240 . S
O291 Co264 2.096 . S
O291 C272 1.247 . S
C292 O289 1.244 . S
C292 O290 1.240 . S
H293 C267 0.931 . S
H294 C276 0.931 . S
H295 C280 0.929 . S
H296 C282 0.930 . S
Co297 N301 2.148 . S
Co297 N307 2.128 . S
Co297 N317 2.194 . S
Co297 O322 2.351 . S
Co297 O323 2.155 . S
Co297 O324 2.096 . S
C298 N301 1.301 . S
C298 N302 1.328 . S
C298 H303 0.930 . S
C299 C300 1.333 . S
C299 N301 1.317 . S
C299 H304 0.930 . S
C300 C299 1.333 . S
C300 N302 1.350 . S
C300 H326 0.931 . S
N301 Co297 2.148 . S
N301 C298 1.301 . S
N301 C299 1.317 . S
N302 C298 1.328 . S
N302 C300 1.350 . S
H303 C298 0.930 . S
H304 C299 0.930 . S
C305 O306 1.224 . S
C305 O324 1.247 . S
O306 C305 1.224 . S
N307 Co297 2.128 . S
N307 C308 1.355 . S
N307 C310 1.311 . S
C308 N307 1.355 . S
C308 C309 1.363 . S
C308 H320 0.929 . S
C309 C308 1.363 . S
C309 N311 1.375 . S
C309 H327 0.931 . S
C310 N307 1.311 . S
C310 N311 1.347 . S
C310 H321 0.929 . S
N311 C309 1.375 . S
N311 C310 1.347 . S
C312 C315 1.365 . S
C312 N317 1.328 . S
C312 H318 0.929 . S
C313 C314 1.362 . S
C313 C316 1.378 . S
C313 H328 0.929 . S
C314 C313 1.362 . S
C314 C315 1.366 . S
C315 C312 1.365 . S
C315 C314 1.366 . S
C315 H329 0.930 . S
C316 C313 1.378 . S
C316 N317 1.315 . S
C316 H319 0.930 . S
N317 Co297 2.194 . S
N317 C312 1.328 . S
N317 C316 1.315 . S
H318 C312 0.929 . S
H319 C316 0.930 . S
H320 C308 0.929 . S
H321 C310 0.929 . S
O322 Co297 2.351 . S
O322 C325 1.244 . S
O323 Co297 2.155 . S
O323 C325 1.240 . S
O324 Co297 2.096 . S
O324 C305 1.247 . S
C325 O322 1.244 . S
C325 O323 1.240 . S
H326 C300 0.931 . S
H327 C309 0.931 . S
H328 C313 0.929 . S
H329 C315 0.930 . S
Co330 N334 2.148 . S
Co330 N340 2.128 . S
Co330 N350 2.194 . S
Co330 O355 2.351 . S
Co330 O356 2.155 . S
Co330 O357 2.096 . S
C331 N334 1.301 . S
C331 N335 1.328 . S
C331 H336 0.930 . S
C332 C333 1.333 . S
C332 N334 1.317 . S
C332 H337 0.930 . S
C333 C332 1.333 . S
C333 N335 1.350 . S
C333 H359 0.931 . S
N334 Co330 2.148 . S
N334 C331 1.301 . S
N334 C332 1.317 . S
N335 C331 1.328 . S
N335 C333 1.350 . S
H336 C331 0.930 . S
H337 C332 0.930 . S
C338 O339 1.224 . S
C338 O357 1.247 . S
O339 C338 1.224 . S
N340 Co330 2.128 . S
N340 C341 1.355 . S
N340 C343 1.311 . S
C341 N340 1.355 . S
C341 C342 1.363 . S
C341 H353 0.929 . S
C342 C341 1.363 . S
C342 N344 1.375 . S
C342 H360 0.931 . S
C343 N340 1.311 . S
C343 N344 1.347 . S
C343 H354 0.929 . S
N344 C342 1.375 . S
N344 C343 1.347 . S
C345 C348 1.365 . S
C345 N350 1.328 . S
C345 H351 0.929 . S
C346 C347 1.362 . S
C346 C349 1.378 . S
C346 H361 0.929 . S
C347 C346 1.362 . S
C347 C348 1.366 . S
C348 C345 1.365 . S
C348 C347 1.366 . S
C348 H362 0.930 . S
C349 C346 1.378 . S
C349 N350 1.315 . S
C349 H352 0.930 . S
N350 Co330 2.194 . S
N350 C345 1.328 . S
N350 C349 1.315 . S
H351 C345 0.929 . S
H352 C349 0.930 . S
H353 C341 0.929 . S
H354 C343 0.929 . S
O355 Co330 2.351 . S
O355 C358 1.244 . S
O356 Co330 2.155 . S
O356 C358 1.240 . S
O357 Co330 2.096 . S
O357 C338 1.247 . S
C358 O355 1.244 . S
C358 O356 1.240 . S
H359 C333 0.931 . S
H360 C342 0.931 . S
H361 C346 0.929 . S
H362 C348 0.930 . S
Co363 N367 2.148 . S
Co363 N373 2.128 . S
Co363 N383 2.194 . S
Co363 O388 2.351 . S
Co363 O389 2.155 . S
Co363 O390 2.096 . S
C364 N367 1.301 . S
C364 N368 1.328 . S
C364 H369 0.930 . S
C365 C366 1.333 . S
C365 N367 1.317 . S
C365 H370 0.930 . S
C366 C365 1.333 . S
C366 N368 1.350 . S
C366 H392 0.931 . S
N367 Co363 2.148 . S
N367 C364 1.301 . S
N367 C365 1.317 . S
N368 C364 1.328 . S
N368 C366 1.350 . S
H369 C364 0.930 . S
H370 C365 0.930 . S
C371 O372 1.224 . S
C371 O390 1.247 . S
O372 C371 1.224 . S
N373 Co363 2.128 . S
N373 C374 1.355 . S
N373 C376 1.311 . S
C374 N373 1.355 . S
C374 C375 1.363 . S
C374 H386 0.929 . S
C375 C374 1.363 . S
C375 N377 1.375 . S
C375 H393 0.931 . S
C376 N373 1.311 . S
C376 N377 1.347 . S
C376 H387 0.929 . S
N377 C375 1.375 . S
N377 C376 1.347 . S
C378 C381 1.365 . S
C378 N383 1.328 . S
C378 H384 0.929 . S
C379 C380 1.362 . S
C379 C382 1.378 . S
C379 H394 0.929 . S
C380 C379 1.362 . S
C380 C381 1.366 . S
C381 C378 1.365 . S
C381 C380 1.366 . S
C381 H395 0.930 . S
C382 C379 1.378 . S
C382 N383 1.315 . S
C382 H385 0.930 . S
N383 Co363 2.194 . S
N383 C378 1.328 . S
N383 C382 1.315 . S
H384 C378 0.929 . S
H385 C382 0.930 . S
H386 C374 0.929 . S
H387 C376 0.929 . S
O388 Co363 2.351 . S
O388 C391 1.244 . S
O389 Co363 2.155 . S
O389 C391 1.240 . S
O390 Co363 2.096 . S
O390 C371 1.247 . S
C391 O388 1.244 . S
C391 O389 1.240 . S
H392 C366 0.931 . S
H393 C375 0.931 . S
H394 C379 0.929 . S
H395 C381 0.930 . S
Co396 N400 2.148 . S
Co396 N406 2.128 . S
Co396 N416 2.194 . S
Co396 O421 2.351 . S
Co396 O422 2.155 . S
Co396 O423 2.096 . S
C397 N400 1.301 . S
C397 N401 1.328 . S
C397 H402 0.930 . S
C398 C399 1.333 . S
C398 N400 1.317 . S
C398 H403 0.930 . S
C399 C398 1.333 . S
C399 N401 1.350 . S
C399 H425 0.931 . S
N400 Co396 2.148 . S
N400 C397 1.301 . S
N400 C398 1.317 . S
N401 C397 1.328 . S
N401 C399 1.350 . S
H402 C397 0.930 . S
H403 C398 0.930 . S
C404 O405 1.224 . S
C404 O423 1.247 . S
O405 C404 1.224 . S
N406 Co396 2.128 . S
N406 C407 1.355 . S
N406 C409 1.311 . S
C407 N406 1.355 . S
C407 C408 1.363 . S
C407 H419 0.929 . S
C408 C407 1.363 . S
C408 N410 1.375 . S
C408 H426 0.931 . S
C409 N406 1.311 . S
C409 N410 1.347 . S
C409 H420 0.929 . S
N410 C408 1.375 . S
N410 C409 1.347 . S
C411 C414 1.365 . S
C411 N416 1.328 . S
C411 H417 0.929 . S
C412 C413 1.362 . S
C412 C415 1.378 . S
C412 H427 0.929 . S
C413 C412 1.362 . S
C413 C414 1.366 . S
C414 C411 1.365 . S
C414 C413 1.366 . S
C414 H428 0.930 . S
C415 C412 1.378 . S
C415 N416 1.315 . S
C415 H418 0.930 . S
N416 Co396 2.194 . S
N416 C411 1.328 . S
N416 C415 1.315 . S
H417 C411 0.929 . S
H418 C415 0.930 . S
H419 C407 0.929 . S
H420 C409 0.929 . S
O421 Co396 2.351 . S
O421 C424 1.244 . S
O422 Co396 2.155 . S
O422 C424 1.240 . S
O423 Co396 2.096 . S
O423 C404 1.247 . S
C424 O421 1.244 . S
C424 O422 1.240 . S
H425 C399 0.931 . S
H426 C408 0.931 . S
H427 C412 0.929 . S
H428 C414 0.930 . S
Co429 N433 2.148 . S
Co429 N439 2.128 . S
Co429 N449 2.194 . S
Co429 O454 2.351 . S
Co429 O455 2.155 . S
Co429 O456 2.096 . S
C430 N433 1.301 . S
C430 N434 1.328 . S
C430 H435 0.930 . S
C431 C432 1.333 . S
C431 N433 1.317 . S
C431 H436 0.930 . S
C432 C431 1.333 . S
C432 N434 1.350 . S
C432 H458 0.931 . S
N433 Co429 2.148 . S
N433 C430 1.301 . S
N433 C431 1.317 . S
N434 C430 1.328 . S
N434 C432 1.350 . S
H435 C430 0.930 . S
H436 C431 0.930 . S
C437 O438 1.224 . S
C437 O456 1.247 . S
O438 C437 1.224 . S
N439 Co429 2.128 . S
N439 C440 1.355 . S
N439 C442 1.311 . S
C440 N439 1.355 . S
C440 C441 1.363 . S
C440 H452 0.929 . S
C441 C440 1.363 . S
C441 N443 1.375 . S
C441 H459 0.931 . S
C442 N439 1.311 . S
C442 N443 1.347 . S
C442 H453 0.929 . S
N443 C441 1.375 . S
N443 C442 1.347 . S
C444 C447 1.365 . S
C444 N449 1.328 . S
C444 H450 0.929 . S
C445 C446 1.362 . S
C445 C448 1.378 . S
C445 H460 0.929 . S
C446 C445 1.362 . S
C446 C447 1.366 . S
C447 C444 1.365 . S
C447 C446 1.366 . S
C447 H461 0.930 . S
C448 C445 1.378 . S
C448 N449 1.315 . S
C448 H451 0.930 . S
N449 Co429 2.194 . S
N449 C444 1.328 . S
N449 C448 1.315 . S
H450 C444 0.929 . S
H451 C448 0.930 . S
H452 C440 0.929 . S
H453 C442 0.929 . S
O454 Co429 2.351 . S
O454 C457 1.244 . S
O455 Co429 2.155 . S
O455 C457 1.240 . S
O456 Co429 2.096 . S
O456 C437 1.247 . S
C457 O454 1.244 . S
C457 O455 1.240 . S
H458 C432 0.931 . S
H459 C441 0.931 . S
H460 C445 0.929 . S
H461 C447 0.930 . S
Co462 N466 2.148 . S
Co462 N472 2.128 . S
Co462 N482 2.194 . S
Co462 O487 2.351 . S
Co462 O488 2.155 . S
Co462 O489 2.096 . S
C463 N466 1.301 . S
C463 N467 1.328 . S
C463 H468 0.930 . S
C464 C465 1.333 . S
C464 N466 1.317 . S
C464 H469 0.930 . S
C465 C464 1.333 . S
C465 N467 1.350 . S
C465 H491 0.931 . S
N466 Co462 2.148 . S
N466 C463 1.301 . S
N466 C464 1.317 . S
N467 C463 1.328 . S
N467 C465 1.350 . S
H468 C463 0.930 . S
H469 C464 0.930 . S
C470 O471 1.224 . S
C470 O489 1.247 . S
O471 C470 1.224 . S
N472 Co462 2.128 . S
N472 C473 1.355 . S
N472 C475 1.311 . S
C473 N472 1.355 . S
C473 C474 1.363 . S
C473 H485 0.929 . S
C474 C473 1.363 . S
C474 N476 1.375 . S
C474 H492 0.931 . S
C475 N472 1.311 . S
C475 N476 1.347 . S
C475 H486 0.929 . S
N476 C474 1.375 . S
N476 C475 1.347 . S
C477 C480 1.365 . S
C477 N482 1.328 . S
C477 H483 0.929 . S
C478 C479 1.362 . S
C478 C481 1.378 . S
C478 H493 0.929 . S
C479 C478 1.362 . S
C479 C480 1.366 . S
C480 C477 1.365 . S
C480 C479 1.366 . S
C480 H494 0.930 . S
C481 C478 1.378 . S
C481 N482 1.315 . S
C481 H484 0.930 . S
N482 Co462 2.194 . S
N482 C477 1.328 . S
N482 C481 1.315 . S
H483 C477 0.929 . S
H484 C481 0.930 . S
H485 C473 0.929 . S
H486 C475 0.929 . S
O487 Co462 2.351 . S
O487 C490 1.244 . S
O488 Co462 2.155 . S
O488 C490 1.240 . S
O489 Co462 2.096 . S
O489 C470 1.247 . S
C490 O487 1.244 . S
C490 O488 1.240 . S
H491 C465 0.931 . S
H492 C474 0.931 . S
H493 C478 0.929 . S
H494 C480 0.930 . S
Co495 N499 2.148 . S
Co495 N505 2.128 . S
Co495 N515 2.194 . S
Co495 O520 2.351 . S
Co495 O521 2.155 . S
Co495 O522 2.096 . S
C496 N499 1.301 . S
C496 N500 1.328 . S
C496 H501 0.930 . S
C497 C498 1.333 . S
C497 N499 1.317 . S
C497 H502 0.930 . S
C498 C497 1.333 . S
C498 N500 1.350 . S
C498 H524 0.931 . S
N499 Co495 2.148 . S
N499 C496 1.301 . S
N499 C497 1.317 . S
N500 C496 1.328 . S
N500 C498 1.350 . S
H501 C496 0.930 . S
H502 C497 0.930 . S
C503 O504 1.224 . S
C503 O522 1.247 . S
O504 C503 1.224 . S
N505 Co495 2.128 . S
N505 C506 1.355 . S
N505 C508 1.311 . S
C506 N505 1.355 . S
C506 C507 1.363 . S
C506 H518 0.929 . S
C507 C506 1.363 . S
C507 N509 1.375 . S
C507 H525 0.931 . S
C508 N505 1.311 . S
C508 N509 1.347 . S
C508 H519 0.929 . S
N509 C507 1.375 . S
N509 C508 1.347 . S
C510 C513 1.365 . S
C510 N515 1.328 . S
C510 H516 0.929 . S
C511 C512 1.362 . S
C511 C514 1.378 . S
C511 H526 0.929 . S
C512 C511 1.362 . S
C512 C513 1.366 . S
C513 C510 1.365 . S
C513 C512 1.366 . S
C513 H527 0.930 . S
C514 C511 1.378 . S
C514 N515 1.315 . S
C514 H517 0.930 . S
N515 Co495 2.194 . S
N515 C510 1.328 . S
N515 C514 1.315 . S
H516 C510 0.929 . S
H517 C514 0.930 . S
H518 C506 0.929 . S
H519 C508 0.929 . S
O520 Co495 2.351 . S
O520 C523 1.244 . S
O521 Co495 2.155 . S
O521 C523 1.240 . S
O522 Co495 2.096 . S
O522 C503 1.247 . S
C523 O520 1.244 . S
C523 O521 1.240 . S
H524 C498 0.931 . S
H525 C507 0.931 . S
H526 C511 0.929 . S
H527 C513 0.930 . S
Co528 N532 2.148 . S
Co528 N538 2.128 . S
Co528 N548 2.194 . S
Co528 O553 2.351 . S
Co528 O554 2.155 . S
Co528 O555 2.096 . S
C529 N532 1.301 . S
C529 N533 1.328 . S
C529 H534 0.930 . S
C530 C531 1.333 . S
C530 N532 1.317 . S
C530 H535 0.930 . S
C531 C530 1.333 . S
C531 N533 1.350 . S
C531 H557 0.931 . S
N532 Co528 2.148 . S
N532 C529 1.301 . S
N532 C530 1.317 . S
N533 C529 1.328 . S
N533 C531 1.350 . S
H534 C529 0.930 . S
H535 C530 0.930 . S
C536 O537 1.224 . S
C536 O555 1.247 . S
O537 C536 1.224 . S
N538 Co528 2.128 . S
N538 C539 1.355 . S
N538 C541 1.311 . S
C539 N538 1.355 . S
C539 C540 1.363 . S
C539 H551 0.929 . S
C540 C539 1.363 . S
C540 N542 1.375 . S
C540 H558 0.931 . S
C541 N538 1.311 . S
C541 N542 1.347 . S
C541 H552 0.929 . S
N542 C540 1.375 . S
N542 C541 1.347 . S
C543 C546 1.365 . S
C543 N548 1.328 . S
C543 H549 0.929 . S
C544 C545 1.362 . S
C544 C547 1.378 . S
C544 H559 0.929 . S
C545 C544 1.362 . S
C545 C546 1.366 . S
C546 C543 1.365 . S
C546 C545 1.366 . S
C546 H560 0.930 . S
C547 C544 1.378 . S
C547 N548 1.315 . S
C547 H550 0.930 . S
N548 Co528 2.194 . S
N548 C543 1.328 . S
N548 C547 1.315 . S
H549 C543 0.929 . S
H550 C547 0.930 . S
H551 C539 0.929 . S
H552 C541 0.929 . S
O553 Co528 2.351 . S
O553 C556 1.244 . S
O554 Co528 2.155 . S
O554 C556 1.240 . S
O555 Co528 2.096 . S
O555 C536 1.247 . S
C556 O553 1.244 . S
C556 O554 1.240 . S
H557 C531 0.931 . S
H558 C540 0.931 . S
H559 C544 0.929 . S
H560 C546 0.930 . S
Co561 N565 2.148 . S
Co561 N571 2.128 . S
Co561 N581 2.194 . S
Co561 O586 2.351 . S
Co561 O587 2.155 . S
Co561 O588 2.096 . S
C562 N565 1.301 . S
C562 N566 1.328 . S
C562 H567 0.930 . S
C563 C564 1.333 . S
C563 N565 1.317 . S
C563 H568 0.930 . S
C564 C563 1.333 . S
C564 N566 1.350 . S
C564 H590 0.931 . S
N565 Co561 2.148 . S
N565 C562 1.301 . S
N565 C563 1.317 . S
N566 C562 1.328 . S
N566 C564 1.350 . S
H567 C562 0.930 . S
H568 C563 0.930 . S
C569 O570 1.224 . S
C569 O588 1.247 . S
O570 C569 1.224 . S
N571 Co561 2.128 . S
N571 C572 1.355 . S
N571 C574 1.311 . S
C572 N571 1.355 . S
C572 C573 1.363 . S
C572 H584 0.929 . S
C573 C572 1.363 . S
C573 N575 1.375 . S
C573 H591 0.931 . S
C574 N571 1.311 . S
C574 N575 1.347 . S
C574 H585 0.929 . S
N575 C573 1.375 . S
N575 C574 1.347 . S
C576 C579 1.365 . S
C576 N581 1.328 . S
C576 H582 0.929 . S
C577 C578 1.362 . S
C577 C580 1.378 . S
C577 H592 0.929 . S
C578 C577 1.362 . S
C578 C579 1.366 . S
C579 C576 1.365 . S
C579 C578 1.366 . S
C579 H593 0.930 . S
C580 C577 1.378 . S
C580 N581 1.315 . S
C580 H583 0.930 . S
N581 Co561 2.194 . S
N581 C576 1.328 . S
N581 C580 1.315 . S
H582 C576 0.929 . S
H583 C580 0.930 . S
H584 C572 0.929 . S
H585 C574 0.929 . S
O586 Co561 2.351 . S
O586 C589 1.244 . S
O587 Co561 2.155 . S
O587 C589 1.240 . S
O588 Co561 2.096 . S
O588 C569 1.247 . S
C589 O586 1.244 . S
C589 O587 1.240 . S
H590 C564 0.931 . S
H591 C573 0.931 . S
H592 C577 0.929 . S
H593 C579 0.930 . S
Co594 N598 2.148 . S
Co594 N604 2.128 . S
Co594 N614 2.194 . S
Co594 O619 2.351 . S
Co594 O620 2.155 . S
Co594 O621 2.096 . S
C595 N598 1.301 . S
C595 N599 1.328 . S
C595 H600 0.930 . S
C596 C597 1.333 . S
C596 N598 1.317 . S
C596 H601 0.930 . S
C597 C596 1.333 . S
C597 N599 1.350 . S
C597 H623 0.931 . S
N598 Co594 2.148 . S
N598 C595 1.301 . S
N598 C596 1.317 . S
N599 C595 1.328 . S
N599 C597 1.350 . S
H600 C595 0.930 . S
H601 C596 0.930 . S
C602 O603 1.224 . S
C602 O621 1.247 . S
O603 C602 1.224 . S
N604 Co594 2.128 . S
N604 C605 1.355 . S
N604 C607 1.311 . S
C605 N604 1.355 . S
C605 C606 1.363 . S
C605 H617 0.929 . S
C606 C605 1.363 . S
C606 N608 1.375 . S
C606 H624 0.931 . S
C607 N604 1.311 . S
C607 N608 1.347 . S
C607 H618 0.929 . S
N608 C606 1.375 . S
N608 C607 1.347 . S
C609 C612 1.365 . S
C609 N614 1.328 . S
C609 H615 0.929 . S
C610 C611 1.362 . S
C610 C613 1.378 . S
C610 H625 0.929 . S
C611 C610 1.362 . S
C611 C612 1.366 . S
C612 C609 1.365 . S
C612 C611 1.366 . S
C612 H626 0.930 . S
C613 C610 1.378 . S
C613 N614 1.315 . S
C613 H616 0.930 . S
N614 Co594 2.194 . S
N614 C609 1.328 . S
N614 C613 1.315 . S
H615 C609 0.929 . S
H616 C613 0.930 . S
H617 C605 0.929 . S
H618 C607 0.929 . S
O619 Co594 2.351 . S
O619 C622 1.244 . S
O620 Co594 2.155 . S
O620 C622 1.240 . S
O621 Co594 2.096 . S
O621 C602 1.247 . S
C622 O619 1.244 . S
C622 O620 1.240 . S
H623 C597 0.931 . S
H624 C606 0.931 . S
H625 C610 0.929 . S
H626 C612 0.930 . S
Co627 N631 2.148 . S
Co627 N637 2.128 . S
Co627 N647 2.194 . S
Co627 O652 2.351 . S
Co627 O653 2.155 . S
Co627 O654 2.096 . S
C628 N631 1.301 . S
C628 N632 1.328 . S
C628 H633 0.930 . S
C629 C630 1.333 . S
C629 N631 1.317 . S
C629 H634 0.930 . S
C630 C629 1.333 . S
C630 N632 1.350 . S
C630 H656 0.931 . S
N631 Co627 2.148 . S
N631 C628 1.301 . S
N631 C629 1.317 . S
N632 C628 1.328 . S
N632 C630 1.350 . S
H633 C628 0.930 . S
H634 C629 0.930 . S
C635 O636 1.224 . S
C635 O654 1.247 . S
O636 C635 1.224 . S
N637 Co627 2.128 . S
N637 C638 1.355 . S
N637 C640 1.311 . S
C638 N637 1.355 . S
C638 C639 1.363 . S
C638 H650 0.929 . S
C639 C638 1.363 . S
C639 N641 1.375 . S
C639 H657 0.931 . S
C640 N637 1.311 . S
C640 N641 1.347 . S
C640 H651 0.929 . S
N641 C639 1.375 . S
N641 C640 1.347 . S
C642 C645 1.365 . S
C642 N647 1.328 . S
C642 H648 0.929 . S
C643 C644 1.362 . S
C643 C646 1.378 . S
C643 H658 0.929 . S
C644 C643 1.362 . S
C644 C645 1.366 . S
C645 C642 1.365 . S
C645 C644 1.366 . S
C645 H659 0.930 . S
C646 C643 1.378 . S
C646 N647 1.315 . S
C646 H649 0.930 . S
N647 Co627 2.194 . S
N647 C642 1.328 . S
N647 C646 1.315 . S
H648 C642 0.929 . S
H649 C646 0.930 . S
H650 C638 0.929 . S
H651 C640 0.929 . S
O652 Co627 2.351 . S
O652 C655 1.244 . S
O653 Co627 2.155 . S
O653 C655 1.240 . S
O654 Co627 2.096 . S
O654 C635 1.247 . S
C655 O652 1.244 . S
C655 O653 1.240 . S
H656 C630 0.931 . S
H657 C639 0.931 . S
H658 C643 0.929 . S
H659 C645 0.930 . S
Co660 N664 2.148 . S
Co660 N670 2.128 . S
Co660 N680 2.194 . S
Co660 O685 2.351 . S
Co660 O686 2.155 . S
Co660 O687 2.096 . S
C661 N664 1.301 . S
C661 N665 1.328 . S
C661 H666 0.930 . S
C662 C663 1.333 . S
C662 N664 1.317 . S
C662 H667 0.930 . S
C663 C662 1.333 . S
C663 N665 1.350 . S
C663 H689 0.931 . S
N664 Co660 2.148 . S
N664 C661 1.301 . S
N664 C662 1.317 . S
N665 C661 1.328 . S
N665 C663 1.350 . S
H666 C661 0.930 . S
H667 C662 0.930 . S
C668 O669 1.224 . S
C668 O687 1.247 . S
O669 C668 1.224 . S
N670 Co660 2.128 . S
N670 C671 1.355 . S
N670 C673 1.311 . S
C671 N670 1.355 . S
C671 C672 1.363 . S
C671 H683 0.929 . S
C672 C671 1.363 . S
C672 N674 1.375 . S
C672 H690 0.931 . S
C673 N670 1.311 . S
C673 N674 1.347 . S
C673 H684 0.929 . S
N674 C672 1.375 . S
N674 C673 1.347 . S
C675 C678 1.365 . S
C675 N680 1.328 . S
C675 H681 0.929 . S
C676 C677 1.362 . S
C676 C679 1.378 . S
C676 H691 0.929 . S
C677 C676 1.362 . S
C677 C678 1.366 . S
C678 C675 1.365 . S
C678 C677 1.366 . S
C678 H692 0.930 . S
C679 C676 1.378 . S
C679 N680 1.315 . S
C679 H682 0.930 . S
N680 Co660 2.194 . S
N680 C675 1.328 . S
N680 C679 1.315 . S
H681 C675 0.929 . S
H682 C679 0.930 . S
H683 C671 0.929 . S
H684 C673 0.929 . S
O685 Co660 2.351 . S
O685 C688 1.244 . S
O686 Co660 2.155 . S
O686 C688 1.240 . S
O687 Co660 2.096 . S
O687 C668 1.247 . S
C688 O685 1.244 . S
C688 O686 1.240 . S
H689 C663 0.931 . S
H690 C672 0.931 . S
H691 C676 0.929 . S
H692 C678 0.930 . S
Co693 N697 2.148 . S
Co693 N703 2.128 . S
Co693 N713 2.194 . S
Co693 O718 2.351 . S
Co693 O719 2.155 . S
Co693 O720 2.096 . S
C694 N697 1.301 . S
C694 N698 1.328 . S
C694 H699 0.930 . S
C695 C696 1.333 . S
C695 N697 1.317 . S
C695 H700 0.930 . S
C696 C695 1.333 . S
C696 N698 1.350 . S
C696 H722 0.931 . S
N697 Co693 2.148 . S
N697 C694 1.301 . S
N697 C695 1.317 . S
N698 C694 1.328 . S
N698 C696 1.350 . S
H699 C694 0.930 . S
H700 C695 0.930 . S
C701 O702 1.224 . S
C701 O720 1.247 . S
O702 C701 1.224 . S
N703 Co693 2.128 . S
N703 C704 1.355 . S
N703 C706 1.311 . S
C704 N703 1.355 . S
C704 C705 1.363 . S
C704 H716 0.929 . S
C705 C704 1.363 . S
C705 N707 1.375 . S
C705 H723 0.931 . S
C706 N703 1.311 . S
C706 N707 1.347 . S
C706 H717 0.929 . S
N707 C705 1.375 . S
N707 C706 1.347 . S
C708 C711 1.365 . S
C708 N713 1.328 . S
C708 H714 0.929 . S
C709 C710 1.362 . S
C709 C712 1.378 . S
C709 H724 0.929 . S
C710 C709 1.362 . S
C710 C711 1.366 . S
C711 C708 1.365 . S
C711 C710 1.366 . S
C711 H725 0.930 . S
C712 C709 1.378 . S
C712 N713 1.315 . S
C712 H715 0.930 . S
N713 Co693 2.194 . S
N713 C708 1.328 . S
N713 C712 1.315 . S
H714 C708 0.929 . S
H715 C712 0.930 . S
H716 C704 0.929 . S
H717 C706 0.929 . S
O718 Co693 2.351 . S
O718 C721 1.244 . S
O719 Co693 2.155 . S
O719 C721 1.240 . S
O720 Co693 2.096 . S
O720 C701 1.247 . S
C721 O718 1.244 . S
C721 O719 1.240 . S
H722 C696 0.931 . S
H723 C705 0.931 . S
H724 C709 0.929 . S
H725 C711 0.930 . S
Co726 N730 2.148 . S
Co726 N736 2.128 . S
Co726 N746 2.194 . S
Co726 O751 2.351 . S
Co726 O752 2.155 . S
Co726 O753 2.096 . S
C727 N730 1.301 . S
C727 N731 1.328 . S
C727 H732 0.930 . S
C728 C729 1.333 . S
C728 N730 1.317 . S
C728 H733 0.930 . S
C729 C728 1.333 . S
C729 N731 1.350 . S
C729 H755 0.931 . S
N730 Co726 2.148 . S
N730 C727 1.301 . S
N730 C728 1.317 . S
N731 C727 1.328 . S
N731 C729 1.350 . S
H732 C727 0.930 . S
H733 C728 0.930 . S
C734 O735 1.224 . S
C734 O753 1.247 . S
O735 C734 1.224 . S
N736 Co726 2.128 . S
N736 C737 1.355 . S
N736 C739 1.311 . S
C737 N736 1.355 . S
C737 C738 1.363 . S
C737 H749 0.929 . S
C738 C737 1.363 . S
C738 N740 1.375 . S
C738 H756 0.931 . S
C739 N736 1.311 . S
C739 N740 1.347 . S
C739 H750 0.929 . S
N740 C738 1.375 . S
N740 C739 1.347 . S
C741 C744 1.365 . S
C741 N746 1.328 . S
C741 H747 0.929 . S
C742 C743 1.362 . S
C742 C745 1.378 . S
C742 H757 0.929 . S
C743 C742 1.362 . S
C743 C744 1.366 . S
C744 C741 1.365 . S
C744 C743 1.366 . S
C744 H758 0.930 . S
C745 C742 1.378 . S
C745 N746 1.315 . S
C745 H748 0.930 . S
N746 Co726 2.194 . S
N746 C741 1.328 . S
N746 C745 1.315 . S
H747 C741 0.929 . S
H748 C745 0.930 . S
H749 C737 0.929 . S
H750 C739 0.929 . S
O751 Co726 2.351 . S
O751 C754 1.244 . S
O752 Co726 2.155 . S
O752 C754 1.240 . S
O753 Co726 2.096 . S
O753 C734 1.247 . S
C754 O751 1.244 . S
C754 O752 1.240 . S
H755 C729 0.931 . S
H756 C738 0.931 . S
H757 C742 0.929 . S
H758 C744 0.930 . S
Co759 N763 2.148 . S
Co759 N769 2.128 . S
Co759 N779 2.194 . S
Co759 O784 2.351 . S
Co759 O785 2.155 . S
Co759 O786 2.096 . S
C760 N763 1.301 . S
C760 N764 1.328 . S
C760 H765 0.930 . S
C761 C762 1.333 . S
C761 N763 1.317 . S
C761 H766 0.930 . S
C762 C761 1.333 . S
C762 N764 1.350 . S
C762 H788 0.931 . S
N763 Co759 2.148 . S
N763 C760 1.301 . S
N763 C761 1.317 . S
N764 C760 1.328 . S
N764 C762 1.350 . S
H765 C760 0.930 . S
H766 C761 0.930 . S
C767 O768 1.224 . S
C767 O786 1.247 . S
O768 C767 1.224 . S
N769 Co759 2.128 . S
N769 C770 1.355 . S
N769 C772 1.311 . S
C770 N769 1.355 . S
C770 C771 1.363 . S
C770 H782 0.929 . S
C771 C770 1.363 . S
C771 N773 1.375 . S
C771 H789 0.931 . S
C772 N769 1.311 . S
C772 N773 1.347 . S
C772 H783 0.929 . S
N773 C771 1.375 . S
N773 C772 1.347 . S
C774 C777 1.365 . S
C774 N779 1.328 . S
C774 H780 0.929 . S
C775 C776 1.362 . S
C775 C778 1.378 . S
C775 H790 0.929 . S
C776 C775 1.362 . S
C776 C777 1.366 . S
C777 C774 1.365 . S
C777 C776 1.366 . S
C777 H791 0.930 . S
C778 C775 1.378 . S
C778 N779 1.315 . S
C778 H781 0.930 . S
N779 Co759 2.194 . S
N779 C774 1.328 . S
N779 C778 1.315 . S
H780 C774 0.929 . S
H781 C778 0.930 . S
H782 C770 0.929 . S
H783 C772 0.929 . S
O784 Co759 2.351 . S
O784 C787 1.244 . S
O785 Co759 2.155 . S
O785 C787 1.240 . S
O786 Co759 2.096 . S
O786 C767 1.247 . S
C787 O784 1.244 . S
C787 O785 1.240 . S
H788 C762 0.931 . S
H789 C771 0.931 . S
H790 C775 0.929 . S
H791 C777 0.930 . S
H792 C798 0.930 . S
H793 C801 0.930 . S
H794 C802 0.930 . S
H795 C803 0.930 . S
H796 C806 0.930 . S
H797 C807 0.930 . S
C798 H792 0.930 . S
C798 C799 1.355 . S
C798 C800 1.415 . S
C799 C798 1.355 . S
C799 C801 1.419 . S
C800 C798 1.415 . S
C800 C805 1.425 . S
C800 C807 1.409 . S
C801 H793 0.930 . S
C801 C799 1.419 . S
C801 C802 1.362 . S
C802 H794 0.930 . S
C802 C801 1.362 . S
C802 C805 1.409 . S
C803 H795 0.930 . S
C803 C804 1.355 . S
C803 C805 1.415 . S
C804 C803 1.355 . S
C804 C806 1.419 . S
C805 C800 1.425 . S
C805 C802 1.409 . S
C805 C803 1.415 . S
C806 H796 0.930 . S
C806 C804 1.419 . S
C806 C807 1.362 . S
C807 H797 0.930 . S
C807 C800 1.409 . S
C807 C806 1.362 . S
H808 C814 0.930 . S
H809 C817 0.930 . S
H810 C818 0.930 . S
H811 C819 0.930 . S
H812 C822 0.930 . S
H813 C823 0.930 . S
C814 H808 0.930 . S
C814 C815 1.355 . S
C814 C816 1.415 . S
C815 C814 1.355 . S
C815 C817 1.419 . S
C816 C814 1.415 . S
C816 C821 1.425 . S
C816 C823 1.409 . S
C817 H809 0.930 . S
C817 C815 1.419 . S
C817 C818 1.362 . S
C818 H810 0.930 . S
C818 C817 1.362 . S
C818 C821 1.409 . S
C819 H811 0.930 . S
C819 C820 1.355 . S
C819 C821 1.415 . S
C820 C819 1.355 . S
C820 C822 1.419 . S
C821 C816 1.425 . S
C821 C818 1.409 . S
C821 C819 1.415 . S
C822 H812 0.930 . S
C822 C820 1.419 . S
C822 C823 1.362 . S
C823 H813 0.930 . S
C823 C816 1.409 . S
C823 C822 1.362 . S
H824 C830 0.930 . S
H825 C833 0.930 . S
H826 C834 0.930 . S
H827 C835 0.930 . S
H828 C838 0.930 . S
H829 C839 0.930 . S
C830 H824 0.930 . S
C830 C831 1.355 . S
C830 C832 1.415 . S
C831 C830 1.355 . S
C831 C833 1.419 . S
C832 C830 1.415 . S
C832 C837 1.425 . S
C832 C839 1.409 . S
C833 H825 0.930 . S
C833 C831 1.419 . S
C833 C834 1.362 . S
C834 H826 0.930 . S
C834 C833 1.362 . S
C834 C837 1.409 . S
C835 H827 0.930 . S
C835 C836 1.355 . S
C835 C837 1.415 . S
C836 C835 1.355 . S
C836 C838 1.419 . S
C837 C832 1.425 . S
C837 C834 1.409 . S
C837 C835 1.415 . S
C838 H828 0.930 . S
C838 C836 1.419 . S
C838 C839 1.362 . S
C839 H829 0.930 . S
C839 C832 1.409 . S
C839 C838 1.362 . S
H840 C846 0.930 . S
H841 C849 0.930 . S
H842 C850 0.930 . S
H843 C851 0.930 . S
H844 C854 0.930 . S
H845 C855 0.930 . S
C846 H840 0.930 . S
C846 C847 1.355 . S
C846 C848 1.415 . S
C847 C846 1.355 . S
C847 C849 1.419 . S
C848 C846 1.415 . S
C848 C853 1.425 . S
C848 C855 1.409 . S
C849 H841 0.930 . S
C849 C847 1.419 . S
C849 C850 1.362 . S
C850 H842 0.930 . S
C850 C849 1.362 . S
C850 C853 1.409 . S
C851 H843 0.930 . S
C851 C852 1.355 . S
C851 C853 1.415 . S
C852 C851 1.355 . S
C852 C854 1.419 . S
C853 C848 1.425 . S
C853 C850 1.409 . S
C853 C851 1.415 . S
C854 H844 0.930 . S
C854 C852 1.419 . S
C854 C855 1.362 . S
C855 H845 0.930 . S
C855 C848 1.409 . S
C855 C854 1.362 . S
H856 C862 0.930 . S
H857 C865 0.930 . S
H858 C866 0.930 . S
H859 C867 0.930 . S
H860 C870 0.930 . S
H861 C871 0.930 . S
C862 H856 0.930 . S
C862 C863 1.355 . S
C862 C864 1.415 . S
C863 C862 1.355 . S
C863 C865 1.419 . S
C864 C862 1.415 . S
C864 C869 1.425 . S
C864 C871 1.409 . S
C865 H857 0.930 . S
C865 C863 1.419 . S
C865 C866 1.362 . S
C866 H858 0.930 . S
C866 C865 1.362 . S
C866 C869 1.409 . S
C867 H859 0.930 . S
C867 C868 1.355 . S
C867 C869 1.415 . S
C868 C867 1.355 . S
C868 C870 1.419 . S
C869 C864 1.425 . S
C869 C866 1.409 . S
C869 C867 1.415 . S
C870 H860 0.930 . S
C870 C868 1.419 . S
C870 C871 1.362 . S
C871 H861 0.930 . S
C871 C864 1.409 . S
C871 C870 1.362 . S
H872 C878 0.930 . S
H873 C881 0.930 . S
H874 C882 0.930 . S
H875 C883 0.930 . S
H876 C886 0.930 . S
H877 C887 0.930 . S
C878 H872 0.930 . S
C878 C879 1.355 . S
C878 C880 1.415 . S
C879 C878 1.355 . S
C879 C881 1.419 . S
C880 C878 1.415 . S
C880 C885 1.425 . S
C880 C887 1.409 . S
C881 H873 0.930 . S
C881 C879 1.419 . S
C881 C882 1.362 . S
C882 H874 0.930 . S
C882 C881 1.362 . S
C882 C885 1.409 . S
C883 H875 0.930 . S
C883 C884 1.355 . S
C883 C885 1.415 . S
C884 C883 1.355 . S
C884 C886 1.419 . S
C885 C880 1.425 . S
C885 C882 1.409 . S
C885 C883 1.415 . S
C886 H876 0.930 . S
C886 C884 1.419 . S
C886 C887 1.362 . S
C887 H877 0.930 . S
C887 C880 1.409 . S
C887 C886 1.362 . S
H888 C894 0.930 . S
H889 C897 0.930 . S
H890 C898 0.930 . S
H891 C899 0.930 . S
H892 C902 0.930 . S
H893 C903 0.930 . S
C894 H888 0.930 . S
C894 C895 1.355 . S
C894 C896 1.415 . S
C895 C894 1.355 . S
C895 C897 1.419 . S
C896 C894 1.415 . S
C896 C901 1.425 . S
C896 C903 1.409 . S
C897 H889 0.930 . S
C897 C895 1.419 . S
C897 C898 1.362 . S
C898 H890 0.930 . S
C898 C897 1.362 . S
C898 C901 1.409 . S
C899 H891 0.930 . S
C899 C900 1.355 . S
C899 C901 1.415 . S
C900 C899 1.355 . S
C900 C902 1.419 . S
C901 C896 1.425 . S
C901 C898 1.409 . S
C901 C899 1.415 . S
C902 H892 0.930 . S
C902 C900 1.419 . S
C902 C903 1.362 . S
C903 H893 0.930 . S
C903 C896 1.409 . S
C903 C902 1.362 . S
H904 C910 0.930 . S
H905 C913 0.930 . S
H906 C914 0.930 . S
H907 C915 0.930 . S
H908 C918 0.930 . S
H909 C919 0.930 . S
C910 H904 0.930 . S
C910 C911 1.355 . S
C910 C912 1.415 . S
C911 C910 1.355 . S
C911 C913 1.419 . S
C912 C910 1.415 . S
C912 C917 1.425 . S
C912 C919 1.409 . S
C913 H905 0.930 . S
C913 C911 1.419 . S
C913 C914 1.362 . S
C914 H906 0.930 . S
C914 C913 1.362 . S
C914 C917 1.409 . S
C915 H907 0.930 . S
C915 C916 1.355 . S
C915 C917 1.415 . S
C916 C915 1.355 . S
C916 C918 1.419 . S
C917 C912 1.425 . S
C917 C914 1.409 . S
C917 C915 1.415 . S
C918 H908 0.930 . S
C918 C916 1.419 . S
C918 C919 1.362 . S
C919 H909 0.930 . S
C919 C912 1.409 . S
C919 C918 1.362 . S
H920 C926 0.930 . S
H921 C929 0.930 . S
H922 C930 0.930 . S
H923 C931 0.930 . S
H924 C934 0.930 . S
H925 C935 0.930 . S
C926 H920 0.930 . S
C926 C927 1.355 . S
C926 C928 1.415 . S
C927 C926 1.355 . S
C927 C929 1.419 . S
C928 C926 1.415 . S
C928 C933 1.425 . S
C928 C935 1.409 . S
C929 H921 0.930 . S
C929 C927 1.419 . S
C929 C930 1.362 . S
C930 H922 0.930 . S
C930 C929 1.362 . S
C930 C933 1.409 . S
C931 H923 0.930 . S
C931 C932 1.355 . S
C931 C933 1.415 . S
C932 C931 1.355 . S
C932 C934 1.419 . S
C933 C928 1.425 . S
C933 C930 1.409 . S
C933 C931 1.415 . S
C934 H924 0.930 . S
C934 C932 1.419 . S
C934 C935 1.362 . S
C935 H925 0.930 . S
C935 C928 1.409 . S
C935 C934 1.362 . S
H936 C942 0.930 . S
H937 C945 0.930 . S
H938 C946 0.930 . S
H939 C947 0.930 . S
H940 C950 0.930 . S
H941 C951 0.930 . S
C942 H936 0.930 . S
C942 C943 1.355 . S
C942 C944 1.415 . S
C943 C942 1.355 . S
C943 C945 1.419 . S
C944 C942 1.415 . S
C944 C949 1.425 . S
C944 C951 1.409 . S
C945 H937 0.930 . S
C945 C943 1.419 . S
C945 C946 1.362 . S
C946 H938 0.930 . S
C946 C945 1.362 . S
C946 C949 1.409 . S
C947 H939 0.930 . S
C947 C948 1.355 . S
C947 C949 1.415 . S
C948 C947 1.355 . S
C948 C950 1.419 . S
C949 C944 1.425 . S
C949 C946 1.409 . S
C949 C947 1.415 . S
C950 H940 0.930 . S
C950 C948 1.419 . S
C950 C951 1.362 . S
C951 H941 0.930 . S
C951 C944 1.409 . S
C951 C950 1.362 . S
H952 C958 0.930 . S
H953 C961 0.930 . S
H954 C962 0.930 . S
H955 C963 0.930 . S
H956 C966 0.930 . S
H957 C967 0.930 . S
C958 H952 0.930 . S
C958 C959 1.355 . S
C958 C960 1.415 . S
C959 C958 1.355 . S
C959 C961 1.419 . S
C960 C958 1.415 . S
C960 C965 1.425 . S
C960 C967 1.409 . S
C961 H953 0.930 . S
C961 C959 1.419 . S
C961 C962 1.362 . S
C962 H954 0.930 . S
C962 C961 1.362 . S
C962 C965 1.409 . S
C963 H955 0.930 . S
C963 C964 1.355 . S
C963 C965 1.415 . S
C964 C963 1.355 . S
C964 C966 1.419 . S
C965 C960 1.425 . S
C965 C962 1.409 . S
C965 C963 1.415 . S
C966 H956 0.930 . S
C966 C964 1.419 . S
C966 C967 1.362 . S
C967 H957 0.930 . S
C967 C960 1.409 . S
C967 C966 1.362 . S
H968 C974 0.930 . S
H969 C977 0.930 . S
H970 C978 0.930 . S
H971 C979 0.930 . S
H972 C982 0.930 . S
H973 C983 0.930 . S
C974 H968 0.930 . S
C974 C975 1.355 . S
C974 C976 1.415 . S
C975 C974 1.355 . S
C975 C977 1.419 . S
C976 C974 1.415 . S
C976 C981 1.425 . S
C976 C983 1.409 . S
C977 H969 0.930 . S
C977 C975 1.419 . S
C977 C978 1.362 . S
C978 H970 0.930 . S
C978 C977 1.362 . S
C978 C981 1.409 . S
C979 H971 0.930 . S
C979 C980 1.355 . S
C979 C981 1.415 . S
C980 C979 1.355 . S
C980 C982 1.419 . S
C981 C976 1.425 . S
C981 C978 1.409 . S
C981 C979 1.415 . S
C982 H972 0.930 . S
C982 C980 1.419 . S
C982 C983 1.362 . S
C983 H973 0.930 . S
C983 C976 1.409 . S
C983 C982 1.362 . S
H984 C990 0.930 . S
H985 C993 0.930 . S
H986 C994 0.930 1_545 S
H987 C995 0.930 . S
H988 C998 0.930 . S
H989 C999 0.930 . S
C990 H984 0.930 . S
C990 C991 1.355 . S
C990 C992 1.415 1_565 S
C991 C990 1.355 . S
C991 C993 1.419 . S
C992 C990 1.415 1_545 S
C992 C997 1.425 . S
C992 C999 1.409 . S
C993 H985 0.930 . S
C993 C991 1.419 . S
C993 C994 1.364 . S
C994 H986 0.930 1_565 S
C994 C993 1.364 . S
C994 C997 1.408 1_565 S
C995 H987 0.930 . S
C995 C996 1.355 . S
C995 C997 1.415 . S
C996 C995 1.355 . S
C996 C998 1.419 . S
C997 C992 1.425 . S
C997 C994 1.408 1_545 S
C997 C995 1.415 . S
C998 H988 0.930 . S
C998 C996 1.419 . S
C998 C999 1.362 . S
C999 H989 0.930 . S
C999 C992 1.409 . S
C999 C998 1.362 . S
H1000 C1006 0.930 . S
H1001 C1009 0.930 . S
H1002 C1010 0.930 . S
H1003 C1011 0.930 . S
H1004 C1014 0.930 . S
H1005 C1015 0.930 . S
C1006 H1000 0.930 . S
C1006 C1007 1.355 . S
C1006 C1008 1.415 . S
C1007 C1006 1.355 . S
C1007 C1009 1.419 . S
C1008 C1006 1.415 . S
C1008 C1013 1.425 . S
C1008 C1015 1.409 1_655 S
C1009 H1001 0.930 . S
C1009 C1007 1.419 . S
C1009 C1010 1.362 . S
C1010 H1002 0.930 . S
C1010 C1009 1.362 . S
C1010 C1013 1.409 . S
C1011 H1003 0.930 . S
C1011 C1012 1.355 . S
C1011 C1013 1.415 1_455 S
C1012 C1011 1.355 . S
C1012 C1014 1.419 . S
C1013 C1008 1.425 . S
C1013 C1010 1.409 . S
C1013 C1011 1.415 1_655 S
C1014 H1004 0.930 . S
C1014 C1012 1.419 . S
C1014 C1015 1.362 . S
C1015 H1005 0.930 . S
C1015 C1008 1.409 1_455 S
C1015 C1014 1.362 . S
H1016 C1022 0.930 . S
H1017 C1025 0.930 . S
H1018 C1026 0.930 . S
H1019 C1027 0.930 . S
H1020 C1030 0.930 . S
H1021 C1031 0.930 . S
C1022 H1016 0.930 . S
C1022 C1023 1.355 . S
C1022 C1024 1.415 . S
C1023 C1022 1.355 . S
C1023 C1025 1.419 . S
C1024 C1022 1.415 . S
C1024 C1029 1.425 . S
C1024 C1031 1.409 . S
C1025 H1017 0.930 . S
C1025 C1023 1.419 . S
C1025 C1026 1.362 . S
C1026 H1018 0.930 . S
C1026 C1025 1.362 . S
C1026 C1029 1.409 . S
C1027 H1019 0.930 . S
C1027 C1028 1.355 . S
C1027 C1029 1.415 1_545 S
C1028 C1027 1.355 . S
C1028 C1030 1.419 . S
C1029 C1024 1.425 . S
C1029 C1026 1.409 . S
C1029 C1027 1.415 1_565 S
C1030 H1020 0.930 . S
C1030 C1028 1.419 . S
C1030 C1031 1.362 1_545 S
C1031 H1021 0.930 . S
C1031 C1024 1.409 . S
C1031 C1030 1.362 1_565 S
H1032 C1038 0.930 . S
H1033 C1041 0.930 . S
H1034 C1042 0.930 . S
H1035 C1043 0.930 . S
H1036 C1046 0.930 . S
H1037 C1047 0.930 . S
C1038 H1032 0.930 . S
C1038 C1039 1.355 . S
C1038 C1040 1.415 1_655 S
C1039 C1038 1.355 . S
C1039 C1041 1.419 . S
C1040 C1038 1.415 1_455 S
C1040 C1045 1.425 . S
C1040 C1047 1.409 . S
C1041 H1033 0.930 . S
C1041 C1039 1.419 . S
C1041 C1042 1.362 . S
C1042 H1034 0.930 . S
C1042 C1041 1.362 . S
C1042 C1045 1.409 1_655 S
C1043 H1035 0.930 . S
C1043 C1044 1.355 . S
C1043 C1045 1.415 . S
C1044 C1043 1.355 . S
C1044 C1046 1.419 . S
C1045 C1040 1.425 . S
C1045 C1042 1.409 1_455 S
C1045 C1043 1.415 . S
C1046 H1036 0.930 . S
C1046 C1044 1.419 . S
C1046 C1047 1.362 . S
C1047 H1037 0.930 . S
C1047 C1040 1.409 . S
C1047 C1046 1.362 . S
H1048 C1054 0.930 . S
H1049 C1057 0.930 . S
H1050 C1058 0.930 . S
H1051 C1059 0.930 . S
H1052 C1062 0.930 . S
H1053 C1063 0.930 . S
C1054 H1048 0.930 . S
C1054 C1055 1.355 . S
C1054 C1056 1.415 1_545 S
C1055 C1054 1.355 . S
C1055 C1057 1.419 . S
C1056 C1054 1.415 1_565 S
C1056 C1061 1.425 . S
C1056 C1063 1.409 . S
C1057 H1049 0.930 . S
C1057 C1055 1.419 . S
C1057 C1058 1.362 . S
C1058 H1050 0.930 . S
C1058 C1057 1.362 . S
C1058 C1061 1.409 1_545 S
C1059 H1051 0.930 . S
C1059 C1060 1.355 . S
C1059 C1061 1.415 . S
C1060 C1059 1.355 . S
C1060 C1062 1.419 . S
C1061 C1056 1.425 . S
C1061 C1058 1.409 1_565 S
C1061 C1059 1.415 . S
C1062 H1052 0.930 . S
C1062 C1060 1.419 . S
C1062 C1063 1.362 . S
C1063 H1053 0.930 . S
C1063 C1056 1.409 . S
C1063 C1062 1.362 . S
H1064 C1070 0.930 . S
H1065 C1073 0.930 . S
H1066 C1074 0.930 . S
H1067 C1075 0.930 . S
H1068 C1078 0.930 . S
H1069 C1079 0.930 . S
C1070 H1064 0.930 . S
C1070 C1071 1.355 . S
C1070 C1072 1.415 . S
C1071 C1070 1.355 . S
C1071 C1073 1.419 . S
C1072 C1070 1.415 . S
C1072 C1077 1.425 . S
C1072 C1079 1.409 . S
C1073 H1065 0.930 . S
C1073 C1071 1.419 . S
C1073 C1074 1.362 . S
C1074 H1066 0.930 . S
C1074 C1073 1.362 . S
C1074 C1077 1.409 . S
C1075 H1067 0.930 . S
C1075 C1076 1.355 . S
C1075 C1077 1.415 1_655 S
C1076 C1075 1.355 . S
C1076 C1078 1.419 . S
C1077 C1072 1.425 . S
C1077 C1074 1.409 . S
C1077 C1075 1.415 1_455 S
C1078 H1068 0.930 . S
C1078 C1076 1.419 . S
C1078 C1079 1.362 1_655 S
C1079 H1069 0.930 . S
C1079 C1072 1.409 . S
C1079 C1078 1.362 1_455 S
H1080 C1086 0.930 . S
H1081 C1089 0.930 . S
H1082 C1090 0.930 . S
H1083 C1091 0.930 . S
H1084 C1094 0.930 . S
H1085 C1095 0.930 . S
C1086 H1080 0.930 . S
C1086 C1087 1.355 . S
C1086 C1088 1.415 1_565 S
C1087 C1086 1.355 . S
C1087 C1089 1.419 . S
C1088 C1086 1.415 1_545 S
C1088 C1093 1.425 . S
C1088 C1095 1.409 . S
C1089 H1081 0.930 . S
C1089 C1087 1.419 . S
C1089 C1090 1.362 1_565 S
C1090 H1082 0.930 . S
C1090 C1089 1.362 1_545 S
C1090 C1093 1.409 . S
C1091 H1083 0.930 . S
C1091 C1092 1.355 . S
C1091 C1093 1.415 . S
C1092 C1091 1.355 . S
C1092 C1094 1.419 . S
C1093 C1088 1.425 . S
C1093 C1090 1.409 . S
C1093 C1091 1.415 . S
C1094 H1084 0.930 . S
C1094 C1092 1.419 . S
C1094 C1095 1.362 . S
C1095 H1085 0.930 . S
C1095 C1088 1.409 . S
C1095 C1094 1.362 . S
H1096 C1102 0.930 . S
H1097 C1105 0.930 . S
H1098 C1106 0.930 . S
H1099 C1107 0.930 . S
H1100 C1110 0.930 . S
H1101 C1111 0.930 . S
C1102 H1096 0.930 . S
C1102 C1103 1.355 . S
C1102 C1104 1.415 1_455 S
C1103 C1102 1.355 . S
C1103 C1105 1.419 . S
C1104 C1102 1.415 1_655 S
C1104 C1109 1.425 . S
C1104 C1111 1.409 . S
C1105 H1097 0.930 . S
C1105 C1103 1.419 . S
C1105 C1106 1.362 . S
C1106 H1098 0.930 . S
C1106 C1105 1.362 . S
C1106 C1109 1.409 1_455 S
C1107 H1099 0.930 . S
C1107 C1108 1.355 . S
C1107 C1109 1.415 . S
C1108 C1107 1.355 . S
C1108 C1110 1.419 . S
C1109 C1104 1.425 . S
C1109 C1106 1.409 1_655 S
C1109 C1107 1.415 . S
C1110 H1100 0.930 . S
C1110 C1108 1.419 . S
C1110 C1111 1.362 . S
C1111 H1101 0.930 . S
C1111 C1104 1.409 . S
C1111 C1110 1.362 . S
H1112 C1118 0.930 . S
H1113 C1121 0.930 . S
H1114 C1122 0.930 . S
H1115 C1123 0.930 . S
H1116 C1126 0.930 . S
H1117 C1127 0.930 . S
C1118 H1112 0.930 . S
C1118 C1119 1.355 . S
C1118 C1120 1.415 1_556 S
C1119 C1118 1.355 . S
C1119 C1121 1.419 . S
C1120 C1118 1.415 1_554 S
C1120 C1125 1.425 . S
C1120 C1127 1.409 . S
C1121 H1113 0.930 . S
C1121 C1119 1.419 . S
C1121 C1122 1.362 1_556 S
C1122 H1114 0.930 . S
C1122 C1121 1.362 1_554 S
C1122 C1125 1.409 . S
C1123 H1115 0.930 . S
C1123 C1124 1.355 . S
C1123 C1125 1.415 . S
C1124 C1123 1.355 . S
C1124 C1126 1.419 . S
C1125 C1120 1.425 . S
C1125 C1122 1.409 . S
C1125 C1123 1.415 . S
C1126 H1116 0.930 . S
C1126 C1124 1.419 . S
C1126 C1127 1.362 . S
C1127 H1117 0.930 . S
C1127 C1120 1.409 . S
C1127 C1126 1.362 . S
H1128 C1134 0.930 . S
H1129 C1137 0.930 . S
H1130 C1138 0.930 . S
H1131 C1139 0.930 . S
H1132 C1142 0.930 . S
H1133 C1143 0.930 . S
C1134 H1128 0.930 . S
C1134 C1135 1.355 . S
C1134 C1136 1.415 . S
C1135 C1134 1.355 . S
C1135 C1137 1.419 . S
C1136 C1134 1.415 . S
C1136 C1141 1.425 . S
C1136 C1143 1.409 . S
C1137 H1129 0.930 . S
C1137 C1135 1.419 . S
C1137 C1138 1.362 . S
C1138 H1130 0.930 . S
C1138 C1137 1.362 . S
C1138 C1141 1.409 . S
C1139 H1131 0.930 . S
C1139 C1140 1.355 . S
C1139 C1141 1.415 1_556 S
C1140 C1139 1.355 . S
C1140 C1142 1.419 . S
C1141 C1136 1.425 . S
C1141 C1138 1.409 . S
C1141 C1139 1.415 1_554 S
C1142 H1132 0.930 . S
C1142 C1140 1.419 . S
C1142 C1143 1.362 1_556 S
C1143 H1133 0.930 . S
C1143 C1136 1.409 . S
C1143 C1142 1.362 1_554 S
H1144 C1150 0.930 . S
H1145 C1153 0.930 . S
H1146 C1154 0.930 . S
H1147 C1155 0.930 . S
H1148 C1158 0.930 . S
H1149 C1159 0.930 . S
C1150 H1144 0.930 . S
C1150 C1151 1.355 . S
C1150 C1152 1.415 1_556 S
C1151 C1150 1.355 . S
C1151 C1153 1.419 . S
C1152 C1150 1.415 1_554 S
C1152 C1157 1.425 . S
C1152 C1159 1.409 . S
C1153 H1145 0.930 . S
C1153 C1151 1.419 . S
C1153 C1154 1.362 1_556 S
C1154 H1146 0.930 . S
C1154 C1153 1.362 1_554 S
C1154 C1157 1.409 . S
C1155 H1147 0.930 . S
C1155 C1156 1.355 . S
C1155 C1157 1.415 . S
C1156 C1155 1.355 . S
C1156 C1158 1.419 . S
C1157 C1152 1.425 . S
C1157 C1154 1.409 . S
C1157 C1155 1.415 . S
C1158 H1148 0.930 . S
C1158 C1156 1.419 . S
C1158 C1159 1.362 . S
C1159 H1149 0.930 . S
C1159 C1152 1.409 . S
C1159 C1158 1.362 . S
H1160 C1166 0.930 . S
H1161 C1169 0.930 . S
H1162 C1170 0.930 . S
H1163 C1171 0.930 . S
H1164 C1174 0.930 . S
H1165 C1175 0.930 . S
C1166 H1160 0.930 . S
C1166 C1167 1.355 . S
C1166 C1168 1.415 . S
C1167 C1166 1.355 . S
C1167 C1169 1.419 . S
C1168 C1166 1.415 . S
C1168 C1173 1.425 . S
C1168 C1175 1.409 . S
C1169 H1161 0.930 . S
C1169 C1167 1.419 . S
C1169 C1170 1.362 . S
C1170 H1162 0.930 . S
C1170 C1169 1.362 . S
C1170 C1173 1.409 . S
C1171 H1163 0.930 . S
C1171 C1172 1.355 . S
C1171 C1173 1.415 1_556 S
C1172 C1171 1.355 . S
C1172 C1174 1.419 . S
C1173 C1168 1.425 . S
C1173 C1170 1.409 . S
C1173 C1171 1.415 1_554 S
C1174 H1164 0.930 . S
C1174 C1172 1.419 . S
C1174 C1175 1.362 1_556 S
C1175 H1165 0.930 . S
C1175 C1168 1.409 . S
C1175 C1174 1.362 1_554 S
H1176 C1182 0.930 . S
H1177 C1185 0.930 . S
H1178 C1186 0.930 . S
H1179 C1187 0.930 . S
H1180 C1190 0.930 . S
H1181 C1191 0.930 . S
C1182 H1176 0.930 . S
C1182 C1183 1.355 . S
C1182 C1184 1.415 1_554 S
C1183 C1182 1.355 . S
C1183 C1185 1.419 . S
C1184 C1182 1.415 1_556 S
C1184 C1189 1.425 . S
C1184 C1191 1.409 . S
C1185 H1177 0.930 . S
C1185 C1183 1.419 . S
C1185 C1186 1.362 1_554 S
C1186 H1178 0.930 . S
C1186 C1185 1.362 1_556 S
C1186 C1189 1.409 . S
C1187 H1179 0.930 . S
C1187 C1188 1.355 . S
C1187 C1189 1.415 . S
C1188 C1187 1.355 . S
C1188 C1190 1.419 . S
C1189 C1184 1.425 . S
C1189 C1186 1.409 . S
C1189 C1187 1.415 . S
C1190 H1180 0.930 . S
C1190 C1188 1.419 . S
C1190 C1191 1.362 . S
C1191 H1181 0.930 . S
C1191 C1184 1.409 . S
C1191 C1190 1.362 . S
H1192 C1198 0.930 . S
H1193 C1201 0.930 . S
H1194 C1202 0.930 . S
H1195 C1203 0.930 . S
H1196 C1206 0.930 . S
H1197 C1207 0.930 . S
C1198 H1192 0.930 . S
C1198 C1199 1.355 . S
C1198 C1200 1.415 . S
C1199 C1198 1.355 . S
C1199 C1201 1.419 . S
C1200 C1198 1.415 . S
C1200 C1205 1.425 . S
C1200 C1207 1.409 1_556 S
C1201 H1193 0.930 . S
C1201 C1199 1.419 . S
C1201 C1202 1.362 . S
C1202 H1194 0.930 . S
C1202 C1201 1.362 . S
C1202 C1205 1.409 . S
C1203 H1195 0.930 . S
C1203 C1204 1.355 . S
C1203 C1205 1.415 1_554 S
C1204 C1203 1.355 . S
C1204 C1206 1.419 . S
C1205 C1200 1.425 . S
C1205 C1202 1.409 . S
C1205 C1203 1.415 1_556 S
C1206 H1196 0.930 . S
C1206 C1204 1.419 . S
C1206 C1207 1.362 . S
C1207 H1197 0.930 . S
C1207 C1200 1.409 1_554 S
C1207 C1206 1.362 . S
H1208 C1214 0.930 . S
H1209 C1217 0.930 . S
H1210 C1218 0.930 . S
H1211 C1219 0.930 . S
H1212 C1222 0.930 . S
H1213 C1223 0.930 . S
C1214 H1208 0.930 . S
C1214 C1215 1.355 . S
C1214 C1216 1.415 1_554 S
C1215 C1214 1.355 . S
C1215 C1217 1.419 . S
C1216 C1214 1.415 1_556 S
C1216 C1221 1.425 . S
C1216 C1223 1.409 . S
C1217 H1209 0.930 . S
C1217 C1215 1.419 . S
C1217 C1218 1.362 . S
C1218 H1210 0.930 . S
C1218 C1217 1.362 . S
C1218 C1221 1.409 1_554 S
C1219 H1211 0.930 . S
C1219 C1220 1.355 . S
C1219 C1221 1.415 . S
C1220 C1219 1.355 . S
C1220 C1222 1.419 . S
C1221 C1216 1.425 . S
C1221 C1218 1.409 1_556 S
C1221 C1219 1.415 . S
C1222 H1212 0.930 . S
C1222 C1220 1.419 . S
C1222 C1223 1.362 . S
C1223 H1213 0.930 . S
C1223 C1216 1.409 . S
C1223 C1222 1.362 . S
H1224 C1230 0.930 . S
H1225 C1233 0.930 . S
H1226 C1234 0.930 . S
H1227 C1235 0.930 . S
H1228 C1238 0.930 . S
H1229 C1239 0.930 . S
C1230 H1224 0.930 . S
C1230 C1231 1.355 . S
C1230 C1232 1.415 . S
C1231 C1230 1.355 . S
C1231 C1233 1.419 . S
C1232 C1230 1.415 . S
C1232 C1237 1.425 . S
C1232 C1239 1.409 1_556 S
C1233 H1225 0.930 . S
C1233 C1231 1.419 . S
C1233 C1234 1.362 . S
C1234 H1226 0.930 . S
C1234 C1233 1.362 . S
C1234 C1237 1.409 . S
C1235 H1227 0.930 . S
C1235 C1236 1.355 . S
C1235 C1237 1.415 1_554 S
C1236 C1235 1.355 . S
C1236 C1238 1.419 . S
C1237 C1232 1.425 . S
C1237 C1234 1.409 . S
C1237 C1235 1.415 1_556 S
C1238 H1228 0.930 . S
C1238 C1236 1.419 . S
C1238 C1239 1.362 . S
C1239 H1229 0.930 . S
C1239 C1232 1.409 1_554 S
C1239 C1238 1.362 . S
H1240 C1246 0.930 . S
H1241 C1249 0.930 . S
H1242 C1250 0.930 . S
H1243 C1251 0.930 . S
H1244 C1254 0.930 . S
H1245 C1255 0.930 . S
C1246 H1240 0.930 . S
C1246 C1247 1.355 . S
C1246 C1248 1.415 1_655 S
C1247 C1246 1.355 . S
C1247 C1249 1.419 . S
C1248 C1246 1.415 1_455 S
C1248 C1253 1.425 . S
C1248 C1255 1.409 . S
C1249 H1241 0.930 . S
C1249 C1247 1.419 . S
C1249 C1250 1.362 1_655 S
C1250 H1242 0.930 . S
C1250 C1249 1.362 1_455 S
C1250 C1253 1.409 . S
C1251 H1243 0.930 . S
C1251 C1252 1.355 . S
C1251 C1253 1.415 . S
C1252 C1251 1.355 . S
C1252 C1254 1.419 . S
C1253 C1248 1.425 . S
C1253 C1250 1.409 . S
C1253 C1251 1.415 . S
C1254 H1244 0.930 . S
C1254 C1252 1.419 . S
C1254 C1255 1.362 . S
C1255 H1245 0.930 . S
C1255 C1248 1.409 . S
C1255 C1254 1.362 . S
H1256 C1262 0.930 . S
H1257 C1265 0.930 . S
H1258 C1266 0.930 . S
H1259 C1267 0.930 . S
H1260 C1270 0.930 . S
H1261 C1271 0.930 . S
C1262 H1256 0.930 . S
C1262 C1263 1.355 . S
C1262 C1264 1.415 1_655 S
C1263 C1262 1.355 . S
C1263 C1265 1.419 . S
C1264 C1262 1.415 1_455 S
C1264 C1269 1.425 . S
C1264 C1271 1.409 . S
C1265 H1257 0.930 . S
C1265 C1263 1.419 . S
C1265 C1266 1.362 . S
C1266 H1258 0.930 . S
C1266 C1265 1.362 . S
C1266 C1269 1.409 1_655 S
C1267 H1259 0.930 . S
C1267 C1268 1.355 . S
C1267 C1269 1.415 . S
C1268 C1267 1.355 . S
C1268 C1270 1.419 . S
C1269 C1264 1.425 . S
C1269 C1266 1.409 1_455 S
C1269 C1267 1.415 . S
C1270 H1260 0.930 . S
C1270 C1268 1.419 . S
C1270 C1271 1.362 . S
C1271 H1261 0.930 . S
C1271 C1264 1.409 . S
C1271 C1270 1.362 . S
H1272 C1278 0.930 . S
H1273 C1281 0.930 . S
H1274 C1282 0.930 . S
H1275 C1283 0.930 . S
H1276 C1286 0.930 . S
H1277 C1287 0.930 . S
C1278 H1272 0.930 . S
C1278 C1279 1.355 . S
C1278 C1280 1.415 . S
C1279 C1278 1.355 . S
C1279 C1281 1.419 . S
C1280 C1278 1.415 . S
C1280 C1285 1.425 . S
C1280 C1287 1.409 . S
C1281 H1273 0.930 . S
C1281 C1279 1.419 . S
C1281 C1282 1.362 . S
C1282 H1274 0.930 . S
C1282 C1281 1.362 . S
C1282 C1285 1.409 . S
C1283 H1275 0.930 . S
C1283 C1284 1.355 . S
C1283 C1285 1.415 1_565 S
C1284 C1283 1.355 . S
C1284 C1286 1.419 . S
C1285 C1280 1.425 . S
C1285 C1282 1.409 . S
C1285 C1283 1.415 1_545 S
C1286 H1276 0.930 . S
C1286 C1284 1.419 . S
C1286 C1287 1.362 1_565 S
C1287 H1277 0.930 . S
C1287 C1280 1.409 . S
C1287 C1286 1.362 1_545 S
H1288 C1294 0.930 . S
H1289 C1297 0.930 . S
H1290 C1298 0.930 . S
H1291 C1299 0.930 . S
H1292 C1302 0.930 . S
H1293 C1303 0.930 . S
C1294 H1288 0.930 . S
C1294 C1295 1.355 . S
C1294 C1296 1.415 . S
C1295 C1294 1.355 . S
C1295 C1297 1.419 . S
C1296 C1294 1.415 . S
C1296 C1301 1.425 . S
C1296 C1303 1.409 1_655 S
C1297 H1289 0.930 . S
C1297 C1295 1.419 . S
C1297 C1298 1.362 . S
C1298 H1290 0.930 . S
C1298 C1297 1.362 . S
C1298 C1301 1.409 . S
C1299 H1291 0.930 . S
C1299 C1300 1.355 . S
C1299 C1301 1.415 1_455 S
C1300 C1299 1.355 . S
C1300 C1302 1.419 . S
C1301 C1296 1.425 . S
C1301 C1298 1.409 . S
C1301 C1299 1.415 1_655 S
C1302 H1292 0.930 . S
C1302 C1300 1.419 . S
C1302 C1303 1.362 . S
C1303 H1293 0.930 . S
C1303 C1296 1.409 1_455 S
C1303 C1302 1.362 . S
H1304 C1310 0.930 . S
H1305 C1313 0.930 . S
H1306 C1314 0.930 . S
H1307 C1315 0.930 . S
H1308 C1318 0.930 . S
H1309 C1319 0.930 . S
C1310 H1304 0.930 . S
C1310 C1311 1.355 . S
C1310 C1312 1.415 1_545 S
C1311 C1310 1.355 . S
C1311 C1313 1.419 . S
C1312 C1310 1.415 1_565 S
C1312 C1317 1.425 . S
C1312 C1319 1.409 . S
C1313 H1305 0.930 . S
C1313 C1311 1.419 . S
C1313 C1314 1.362 1_545 S
C1314 H1306 0.930 . S
C1314 C1313 1.362 1_565 S
C1314 C1317 1.409 . S
C1315 H1307 0.930 . S
C1315 C1316 1.355 . S
C1315 C1317 1.415 . S
C1316 C1315 1.355 . S
C1316 C1318 1.419 . S
C1317 C1312 1.425 . S
C1317 C1314 1.409 . S
C1317 C1315 1.415 . S
C1318 H1308 0.930 . S
C1318 C1316 1.419 . S
C1318 C1319 1.362 . S
C1319 H1309 0.930 . S
C1319 C1312 1.409 . S
C1319 C1318 1.362 . S
H1320 C1326 0.930 . S
H1321 C1329 0.930 . S
H1322 C1330 0.930 . S
H1323 C1331 0.930 . S
H1324 C1334 0.930 . S
H1325 C1335 0.930 . S
C1326 H1320 0.930 . S
C1326 C1327 1.355 . S
C1326 C1328 1.415 1_455 S
C1327 C1326 1.355 . S
C1327 C1329 1.419 . S
C1328 C1326 1.415 1_655 S
C1328 C1333 1.425 . S
C1328 C1335 1.409 . S
C1329 H1321 0.930 . S
C1329 C1327 1.419 . S
C1329 C1330 1.362 1_455 S
C1330 H1322 0.930 . S
C1330 C1329 1.362 1_655 S
C1330 C1333 1.409 . S
C1331 H1323 0.930 . S
C1331 C1332 1.355 . S
C1331 C1333 1.415 . S
C1332 C1331 1.355 . S
C1332 C1334 1.419 . S
C1333 C1328 1.425 . S
C1333 C1330 1.409 . S
C1333 C1331 1.415 . S
C1334 H1324 0.930 . S
C1334 C1332 1.419 . S
C1334 C1335 1.362 . S
C1335 H1325 0.930 . S
C1335 C1328 1.409 . S
C1335 C1334 1.362 . S
H1336 C1342 0.930 . S
H1337 C1345 0.930 . S
H1338 C1346 0.930 . S
H1339 C1347 0.930 . S
H1340 C1350 0.930 . S
H1341 C1351 0.930 . S
C1342 H1336 0.930 . S
C1342 C1343 1.355 . S
C1342 C1344 1.415 1_545 S
C1343 C1342 1.355 . S
C1343 C1345 1.419 . S
C1344 C1342 1.415 1_565 S
C1344 C1349 1.425 . S
C1344 C1351 1.409 . S
C1345 H1337 0.930 . S
C1345 C1343 1.419 . S
C1345 C1346 1.362 1_545 S
C1346 H1338 0.930 . S
C1346 C1345 1.362 1_565 S
C1346 C1349 1.409 . S
C1347 H1339 0.930 . S
C1347 C1348 1.355 . S
C1347 C1349 1.415 . S
C1348 C1347 1.355 . S
C1348 C1350 1.419 . S
C1349 C1344 1.425 . S
C1349 C1346 1.409 . S
C1349 C1347 1.415 . S
C1350 H1340 0.930 . S
C1350 C1348 1.419 . S
C1350 C1351 1.362 . S
C1351 H1341 0.930 . S
C1351 C1344 1.409 . S
C1351 C1350 1.362 . S
H1352 C1358 0.930 . S
H1353 C1361 0.930 . S
H1354 C1362 0.930 . S
H1355 C1363 0.930 . S
H1356 C1366 0.930 . S
H1357 C1367 0.930 . S
C1358 H1352 0.930 . S
C1358 C1359 1.355 . S
C1358 C1360 1.415 . S
C1359 C1358 1.355 . S
C1359 C1361 1.419 . S
C1360 C1358 1.415 . S
C1360 C1365 1.425 . S
C1360 C1367 1.409 . S
C1361 H1353 0.930 . S
C1361 C1359 1.419 . S
C1361 C1362 1.362 . S
C1362 H1354 0.930 . S
C1362 C1361 1.362 . S
C1362 C1365 1.409 . S
C1363 H1355 0.930 . S
C1363 C1364 1.355 . S
C1363 C1365 1.415 1_565 S
C1364 C1363 1.355 . S
C1364 C1366 1.419 . S
C1365 C1360 1.425 . S
C1365 C1362 1.409 . S
C1365 C1363 1.415 1_545 S
C1366 H1356 0.930 . S
C1366 C1364 1.419 . S
C1366 C1367 1.362 1_565 S
C1367 H1357 0.930 . S
C1367 C1360 1.409 . S
C1367 C1366 1.362 1_545 S
H1368 C1374 0.930 . S
H1369 C1377 0.930 . S
H1370 C1378 0.930 . S
H1371 C1379 0.930 . S
H1372 C1382 0.930 . S
H1373 C1383 0.930 . S
C1374 H1368 0.930 . S
C1374 C1375 1.355 . S
C1374 C1376 1.415 . S
C1375 C1374 1.355 . S
C1375 C1377 1.419 . S
C1376 C1374 1.415 . S
C1376 C1381 1.425 . S
C1376 C1383 1.409 . S
C1377 H1369 0.930 . S
C1377 C1375 1.419 . S
C1377 C1378 1.362 . S
C1378 H1370 0.930 . S
C1378 C1377 1.362 . S
C1378 C1381 1.409 . S
C1379 H1371 0.930 . S
C1379 C1380 1.355 . S
C1379 C1381 1.415 . S
C1380 C1379 1.355 . S
C1380 C1382 1.419 . S
C1381 C1376 1.425 . S
C1381 C1378 1.409 . S
C1381 C1379 1.415 . S
C1382 H1372 0.930 . S
C1382 C1380 1.419 . S
C1382 C1383 1.362 . S
C1383 H1373 0.930 . S
C1383 C1376 1.409 . S
C1383 C1382 1.362 . S
H1384 C1390 0.930 . S
H1385 C1393 0.930 . S
H1386 C1394 0.930 . S
H1387 C1395 0.930 . S
H1388 C1398 0.930 . S
H1389 C1399 0.930 . S
C1390 H1384 0.930 . S
C1390 C1391 1.355 . S
C1390 C1392 1.415 . S
C1391 C1390 1.355 . S
C1391 C1393 1.419 . S
C1392 C1390 1.415 . S
C1392 C1397 1.425 . S
C1392 C1399 1.409 . S
C1393 H1385 0.930 . S
C1393 C1391 1.419 . S
C1393 C1394 1.362 . S
C1394 H1386 0.930 . S
C1394 C1393 1.362 . S
C1394 C1397 1.409 . S
C1395 H1387 0.930 . S
C1395 C1396 1.355 . S
C1395 C1397 1.415 . S
C1396 C1395 1.355 . S
C1396 C1398 1.419 . S
C1397 C1392 1.425 . S
C1397 C1394 1.409 . S
C1397 C1395 1.415 . S
C1398 H1388 0.930 . S
C1398 C1396 1.419 . S
C1398 C1399 1.362 . S
C1399 H1389 0.930 . S
C1399 C1392 1.409 . S
C1399 C1398 1.362 . S
H1400 C1406 0.930 . S
H1401 C1409 0.930 . S
H1402 C1410 0.930 . S
H1403 C1411 0.930 . S
H1404 C1414 0.930 . S
H1405 C1415 0.930 . S
C1406 H1400 0.930 . S
C1406 C1407 1.355 . S
C1406 C1408 1.415 . S
C1407 C1406 1.355 . S
C1407 C1409 1.419 . S
C1408 C1406 1.415 . S
C1408 C1413 1.425 . S
C1408 C1415 1.409 . S
C1409 H1401 0.930 . S
C1409 C1407 1.419 . S
C1409 C1410 1.362 . S
C1410 H1402 0.930 . S
C1410 C1409 1.362 . S
C1410 C1413 1.409 . S
C1411 H1403 0.930 . S
C1411 C1412 1.355 . S
C1411 C1413 1.415 . S
C1412 C1411 1.355 . S
C1412 C1414 1.419 . S
C1413 C1408 1.425 . S
C1413 C1410 1.409 . S
C1413 C1411 1.415 . S
C1414 H1404 0.930 . S
C1414 C1412 1.419 . S
C1414 C1415 1.362 . S
C1415 H1405 0.930 . S
C1415 C1408 1.409 . S
C1415 C1414 1.362 . S
H1416 C1422 0.930 . S
H1417 C1425 0.930 . S
H1418 C1426 0.930 . S
H1419 C1427 0.930 . S
H1420 C1430 0.930 . S
H1421 C1431 0.930 . S
C1422 H1416 0.930 . S
C1422 C1423 1.355 . S
C1422 C1424 1.415 . S
C1423 C1422 1.355 . S
C1423 C1425 1.419 . S
C1424 C1422 1.415 . S
C1424 C1429 1.425 . S
C1424 C1431 1.409 . S
C1425 H1417 0.930 . S
C1425 C1423 1.419 . S
C1425 C1426 1.362 . S
C1426 H1418 0.930 . S
C1426 C1425 1.362 . S
C1426 C1429 1.409 . S
C1427 H1419 0.930 . S
C1427 C1428 1.355 . S
C1427 C1429 1.415 . S
C1428 C1427 1.355 . S
C1428 C1430 1.419 . S
C1429 C1424 1.425 . S
C1429 C1426 1.409 . S
C1429 C1427 1.415 . S
C1430 H1420 0.930 . S
C1430 C1428 1.419 . S
C1430 C1431 1.362 . S
C1431 H1421 0.930 . S
C1431 C1424 1.409 . S
C1431 C1430 1.362 . S
H1432 C1438 0.930 . S
H1433 C1441 0.930 . S
H1434 C1442 0.930 . S
H1435 C1443 0.930 . S
H1436 C1446 0.930 . S
H1437 C1447 0.930 . S
C1438 H1432 0.930 . S
C1438 C1439 1.355 . S
C1438 C1440 1.415 . S
C1439 C1438 1.355 . S
C1439 C1441 1.419 . S
C1440 C1438 1.415 . S
C1440 C1445 1.425 . S
C1440 C1447 1.409 . S
C1441 H1433 0.930 . S
C1441 C1439 1.419 . S
C1441 C1442 1.362 . S
C1442 H1434 0.930 . S
C1442 C1441 1.362 . S
C1442 C1445 1.409 . S
C1443 H1435 0.930 . S
C1443 C1444 1.355 . S
C1443 C1445 1.415 . S
C1444 C1443 1.355 . S
C1444 C1446 1.419 . S
C1445 C1440 1.425 . S
C1445 C1442 1.409 . S
C1445 C1443 1.415 . S
C1446 H1436 0.930 . S
C1446 C1444 1.419 . S
C1446 C1447 1.362 . S
C1447 H1437 0.930 . S
C1447 C1440 1.409 . S
C1447 C1446 1.362 . S
H1448 C1454 0.930 . S
H1449 C1457 0.930 . S
H1450 C1458 0.930 . S
H1451 C1459 0.930 . S
H1452 C1462 0.930 . S
H1453 C1463 0.930 . S
C1454 H1448 0.930 . S
C1454 C1455 1.355 . S
C1454 C1456 1.415 . S
C1455 C1454 1.355 . S
C1455 C1457 1.419 . S
C1456 C1454 1.415 . S
C1456 C1461 1.425 . S
C1456 C1463 1.409 . S
C1457 H1449 0.930 . S
C1457 C1455 1.419 . S
C1457 C1458 1.362 . S
C1458 H1450 0.930 . S
C1458 C1457 1.362 . S
C1458 C1461 1.409 . S
C1459 H1451 0.930 . S
C1459 C1460 1.355 . S
C1459 C1461 1.415 . S
C1460 C1459 1.355 . S
C1460 C1462 1.419 . S
C1461 C1456 1.425 . S
C1461 C1458 1.409 . S
C1461 C1459 1.415 . S
C1462 H1452 0.930 . S
C1462 C1460 1.419 . S
C1462 C1463 1.362 . S
C1463 H1453 0.930 . S
C1463 C1456 1.409 . S
C1463 C1462 1.362 . S
H1464 C1470 0.930 . S
H1465 C1473 0.930 . S
H1466 C1474 0.930 . S
H1467 C1475 0.930 . S
H1468 C1478 0.930 . S
H1469 C1479 0.930 . S
C1470 H1464 0.930 . S
C1470 C1471 1.355 . S
C1470 C1472 1.415 . S
C1471 C1470 1.355 . S
C1471 C1473 1.419 . S
C1472 C1470 1.415 . S
C1472 C1477 1.425 . S
C1472 C1479 1.409 . S
C1473 H1465 0.930 . S
C1473 C1471 1.419 . S
C1473 C1474 1.362 . S
C1474 H1466 0.930 . S
C1474 C1473 1.362 . S
C1474 C1477 1.409 . S
C1475 H1467 0.930 . S
C1475 C1476 1.355 . S
C1475 C1477 1.415 . S
C1476 C1475 1.355 . S
C1476 C1478 1.419 . S
C1477 C1472 1.425 . S
C1477 C1474 1.409 . S
C1477 C1475 1.415 . S
C1478 H1468 0.930 . S
C1478 C1476 1.419 . S
C1478 C1479 1.362 . S
C1479 H1469 0.930 . S
C1479 C1472 1.409 . S
C1479 C1478 1.362 . S
H1480 C1486 0.930 . S
H1481 C1489 0.930 . S
H1482 C1490 0.930 . S
H1483 C1491 0.930 . S
H1484 C1494 0.930 . S
H1485 C1495 0.930 . S
C1486 H1480 0.930 . S
C1486 C1487 1.355 . S
C1486 C1488 1.415 . S
C1487 C1486 1.355 . S
C1487 C1489 1.419 . S
C1488 C1486 1.415 . S
C1488 C1493 1.425 . S
C1488 C1495 1.409 . S
C1489 H1481 0.930 . S
C1489 C1487 1.419 . S
C1489 C1490 1.362 . S
C1490 H1482 0.930 . S
C1490 C1489 1.362 . S
C1490 C1493 1.409 . S
C1491 H1483 0.930 . S
C1491 C1492 1.355 . S
C1491 C1493 1.415 . S
C1492 C1491 1.355 . S
C1492 C1494 1.419 . S
C1493 C1488 1.425 . S
C1493 C1490 1.409 . S
C1493 C1491 1.415 . S
C1494 H1484 0.930 . S
C1494 C1492 1.419 . S
C1494 C1495 1.362 . S
C1495 H1485 0.930 . S
C1495 C1488 1.409 . S
C1495 C1494 1.362 . S
H1496 C1502 0.930 . S
H1497 C1505 0.930 . S
H1498 C1506 0.930 . S
H1499 C1507 0.930 . S
H1500 C1510 0.930 . S
H1501 C1511 0.930 . S
C1502 H1496 0.930 . S
C1502 C1503 1.355 . S
C1502 C1504 1.415 . S
C1503 C1502 1.355 . S
C1503 C1505 1.419 . S
C1504 C1502 1.415 . S
C1504 C1509 1.425 . S
C1504 C1511 1.409 . S
C1505 H1497 0.930 . S
C1505 C1503 1.419 . S
C1505 C1506 1.362 . S
C1506 H1498 0.930 . S
C1506 C1505 1.362 . S
C1506 C1509 1.409 . S
C1507 H1499 0.930 . S
C1507 C1508 1.355 . S
C1507 C1509 1.415 . S
C1508 C1507 1.355 . S
C1508 C1510 1.419 . S
C1509 C1504 1.425 . S
C1509 C1506 1.409 . S
C1509 C1507 1.415 . S
C1510 H1500 0.930 . S
C1510 C1508 1.419 . S
C1510 C1511 1.362 . S
C1511 H1501 0.930 . S
C1511 C1504 1.409 . S
C1511 C1510 1.362 . S
H1512 C1518 0.930 . S
H1513 C1521 0.930 . S
H1514 C1522 0.930 . S
H1515 C1523 0.930 . S
H1516 C1526 0.930 . S
H1517 C1527 0.930 . S
C1518 H1512 0.930 . S
C1518 C1519 1.355 . S
C1518 C1520 1.415 . S
C1519 C1518 1.355 . S
C1519 C1521 1.419 . S
C1520 C1518 1.415 . S
C1520 C1525 1.425 . S
C1520 C1527 1.409 . S
C1521 H1513 0.930 . S
C1521 C1519 1.419 . S
C1521 C1522 1.362 . S
C1522 H1514 0.930 . S
C1522 C1521 1.362 . S
C1522 C1525 1.409 . S
C1523 H1515 0.930 . S
C1523 C1524 1.355 . S
C1523 C1525 1.415 . S
C1524 C1523 1.355 . S
C1524 C1526 1.419 . S
C1525 C1520 1.425 . S
C1525 C1522 1.409 . S
C1525 C1523 1.415 . S
C1526 H1516 0.930 . S
C1526 C1524 1.419 . S
C1526 C1527 1.362 . S
C1527 H1517 0.930 . S
C1527 C1520 1.409 . S
C1527 C1526 1.362 . S
H1528 C1534 0.930 . S
H1529 C1537 0.930 . S
H1530 C1538 0.930 . S
H1531 C1539 0.930 . S
H1532 C1542 0.930 . S
H1533 C1543 0.930 . S
C1534 H1528 0.930 . S
C1534 C1535 1.355 . S
C1534 C1536 1.415 . S
C1535 C1534 1.355 . S
C1535 C1537 1.419 . S
C1536 C1534 1.415 . S
C1536 C1541 1.425 . S
C1536 C1543 1.409 . S
C1537 H1529 0.930 . S
C1537 C1535 1.419 . S
C1537 C1538 1.362 . S
C1538 H1530 0.930 . S
C1538 C1537 1.362 . S
C1538 C1541 1.409 . S
C1539 H1531 0.930 . S
C1539 C1540 1.355 . S
C1539 C1541 1.415 . S
C1540 C1539 1.355 . S
C1540 C1542 1.419 . S
C1541 C1536 1.425 . S
C1541 C1538 1.409 . S
C1541 C1539 1.415 . S
C1542 H1532 0.930 . S
C1542 C1540 1.419 . S
C1542 C1543 1.362 . S
C1543 H1533 0.930 . S
C1543 C1536 1.409 . S
C1543 C1542 1.362 . S
H1544 C1550 0.930 . S
H1545 C1553 0.930 . S
H1546 C1554 0.930 . S
H1547 C1555 0.930 . S
H1548 C1558 0.930 . S
H1549 C1559 0.930 . S
C1550 H1544 0.930 . S
C1550 C1551 1.355 . S
C1550 C1552 1.415 . S
C1551 C1550 1.355 . S
C1551 C1553 1.419 . S
C1552 C1550 1.415 . S
C1552 C1557 1.425 . S
C1552 C1559 1.409 . S
C1553 H1545 0.930 . S
C1553 C1551 1.419 . S
C1553 C1554 1.362 . S
C1554 H1546 0.930 . S
C1554 C1553 1.362 . S
C1554 C1557 1.409 . S
C1555 H1547 0.930 . S
C1555 C1556 1.355 . S
C1555 C1557 1.415 . S
C1556 C1555 1.355 . S
C1556 C1558 1.419 . S
C1557 C1552 1.425 . S
C1557 C1554 1.409 . S
C1557 C1555 1.415 . S
C1558 H1548 0.930 . S
C1558 C1556 1.419 . S
C1558 C1559 1.362 . S
C1559 H1549 0.930 . S
C1559 C1552 1.409 . S
C1559 C1558 1.362 . S
H1560 C1566 0.930 . S
H1561 C1569 0.930 . S
H1562 C1570 0.930 . S
H1563 C1571 0.930 . S
H1564 C1574 0.930 . S
H1565 C1575 0.930 . S
C1566 H1560 0.930 . S
C1566 C1567 1.355 . S
C1566 C1568 1.415 . S
C1567 C1566 1.355 . S
C1567 C1569 1.419 . S
C1568 C1566 1.415 . S
C1568 C1573 1.425 . S
C1568 C1575 1.409 . S
C1569 H1561 0.930 . S
C1569 C1567 1.419 . S
C1569 C1570 1.362 . S
C1570 H1562 0.930 . S
C1570 C1569 1.362 . S
C1570 C1573 1.409 . S
C1571 H1563 0.930 . S
C1571 C1572 1.355 . S
C1571 C1573 1.415 . S
C1572 C1571 1.355 . S
C1572 C1574 1.419 . S
C1573 C1568 1.425 . S
C1573 C1570 1.409 . S
C1573 C1571 1.415 . S
C1574 H1564 0.930 . S
C1574 C1572 1.419 . S
C1574 C1575 1.362 . S
C1575 H1565 0.930 . S
C1575 C1568 1.409 . S
C1575 C1574 1.362 . S
H1576 C1582 0.930 . S
H1577 C1585 0.930 . S
H1578 C1586 0.930 . S
H1579 C1587 0.930 . S
H1580 C1590 0.930 . S
H1581 C1591 0.930 . S
C1582 H1576 0.930 . S
C1582 C1583 1.355 . S
C1582 C1584 1.415 . S
C1583 C1582 1.355 . S
C1583 C1585 1.419 . S
C1584 C1582 1.415 . S
C1584 C1589 1.425 . S
C1584 C1591 1.409 . S
C1585 H1577 0.930 . S
C1585 C1583 1.419 . S
C1585 C1586 1.362 . S
C1586 H1578 0.930 . S
C1586 C1585 1.362 . S
C1586 C1589 1.409 . S
C1587 H1579 0.930 . S
C1587 C1588 1.355 . S
C1587 C1589 1.415 . S
C1588 C1587 1.355 . S
C1588 C1590 1.419 . S
C1589 C1584 1.425 . S
C1589 C1586 1.409 . S
C1589 C1587 1.415 . S
C1590 H1580 0.930 . S
C1590 C1588 1.419 . S
C1590 C1591 1.362 . S
C1591 H1581 0.930 . S
C1591 C1584 1.409 . S
C1591 C1590 1.362 . S
H1592 C1598 0.930 . S
H1593 C1601 0.930 . S
H1594 C1602 0.930 . S
H1595 C1603 0.930 . S
H1596 C1606 0.930 . S
H1597 C1607 0.930 . S
C1598 H1592 0.930 . S
C1598 C1599 1.355 . S
C1598 C1600 1.415 . S
C1599 C1598 1.355 . S
C1599 C1601 1.419 . S
C1600 C1598 1.415 . S
C1600 C1605 1.425 . S
C1600 C1607 1.409 . S
C1601 H1593 0.930 . S
C1601 C1599 1.419 . S
C1601 C1602 1.362 . S
C1602 H1594 0.930 . S
C1602 C1601 1.362 . S
C1602 C1605 1.409 . S
C1603 H1595 0.930 . S
C1603 C1604 1.355 . S
C1603 C1605 1.415 . S
C1604 C1603 1.355 . S
C1604 C1606 1.419 . S
C1605 C1600 1.425 . S
C1605 C1602 1.409 . S
C1605 C1603 1.415 . S
C1606 H1596 0.930 . S
C1606 C1604 1.419 . S
C1606 C1607 1.362 . S
C1607 H1597 0.930 . S
C1607 C1600 1.409 . S
C1607 C1606 1.362 . S
H1608 C1614 0.930 . S
H1609 C1617 0.930 . S
H1610 C1618 0.930 . S
H1611 C1619 0.930 . S
H1612 C1622 0.930 . S
H1613 C1623 0.930 . S
C1614 H1608 0.930 . S
C1614 C1615 1.355 . S
C1614 C1616 1.415 . S
C1615 C1614 1.355 . S
C1615 C1617 1.419 . S
C1616 C1614 1.415 . S
C1616 C1621 1.425 . S
C1616 C1623 1.409 . S
C1617 H1609 0.930 . S
C1617 C1615 1.419 . S
C1617 C1618 1.362 . S
C1618 H1610 0.930 . S
C1618 C1617 1.362 . S
C1618 C1621 1.409 . S
C1619 H1611 0.930 . S
C1619 C1620 1.355 . S
C1619 C1621 1.415 . S
C1620 C1619 1.355 . S
C1620 C1622 1.419 . S
C1621 C1616 1.425 . S
C1621 C1618 1.409 . S
C1621 C1619 1.415 . S
C1622 H1612 0.930 . S
C1622 C1620 1.419 . S
C1622 C1623 1.362 . S
C1623 H1613 0.930 . S
C1623 C1616 1.409 . S
C1623 C1622 1.362 . S
H1624 C1630 0.930 . S
H1625 C1633 0.930 . S
H1626 C1634 0.930 . S
H1627 C1635 0.930 . S
H1628 C1638 0.930 . S
H1629 C1639 0.930 . S
C1630 H1624 0.930 . S
C1630 C1631 1.355 . S
C1630 C1632 1.415 . S
C1631 C1630 1.355 . S
C1631 C1633 1.419 . S
C1632 C1630 1.415 . S
C1632 C1637 1.425 . S
C1632 C1639 1.409 . S
C1633 H1625 0.930 . S
C1633 C1631 1.419 . S
C1633 C1634 1.362 . S
C1634 H1626 0.930 . S
C1634 C1633 1.362 . S
C1634 C1637 1.409 . S
C1635 H1627 0.930 . S
C1635 C1636 1.355 . S
C1635 C1637 1.415 . S
C1636 C1635 1.355 . S
C1636 C1638 1.419 . S
C1637 C1632 1.425 . S
C1637 C1634 1.409 . S
C1637 C1635 1.415 . S
C1638 H1628 0.930 . S
C1638 C1636 1.419 . S
C1638 C1639 1.362 . S
C1639 H1629 0.930 . S
C1639 C1632 1.409 . S
C1639 C1638 1.362 . S
H1640 C1646 0.930 . S
H1641 C1649 0.930 . S
H1642 C1650 0.930 . S
H1643 C1651 0.930 . S
H1644 C1654 0.930 . S
H1645 C1655 0.930 . S
C1646 H1640 0.930 . S
C1646 C1647 1.355 . S
C1646 C1648 1.415 . S
C1647 C1646 1.355 . S
C1647 C1649 1.419 . S
C1648 C1646 1.415 . S
C1648 C1653 1.425 . S
C1648 C1655 1.409 . S
C1649 H1641 0.930 . S
C1649 C1647 1.419 . S
C1649 C1650 1.362 . S
C1650 H1642 0.930 . S
C1650 C1649 1.362 . S
C1650 C1653 1.409 . S
C1651 H1643 0.930 . S
C1651 C1652 1.355 . S
C1651 C1653 1.415 . S
C1652 C1651 1.355 . S
C1652 C1654 1.419 . S
C1653 C1648 1.425 . S
C1653 C1650 1.409 . S
C1653 C1651 1.415 . S
C1654 H1644 0.930 . S
C1654 C1652 1.419 . S
C1654 C1655 1.362 . S
C1655 H1645 0.930 . S
C1655 C1648 1.409 . S
C1655 C1654 1.362 . S
H1656 C1662 0.930 . S
H1657 C1665 0.930 . S
H1658 C1666 0.930 . S
H1659 C1667 0.930 . S
H1660 C1670 0.930 . S
H1661 C1671 0.930 . S
C1662 H1656 0.930 . S
C1662 C1663 1.355 . S
C1662 C1664 1.415 . S
C1663 C1662 1.355 . S
C1663 C1665 1.419 . S
C1664 C1662 1.415 . S
C1664 C1669 1.425 . S
C1664 C1671 1.409 . S
C1665 H1657 0.930 . S
C1665 C1663 1.419 . S
C1665 C1666 1.362 . S
C1666 H1658 0.930 . S
C1666 C1665 1.362 . S
C1666 C1669 1.409 . S
C1667 H1659 0.930 . S
C1667 C1668 1.355 . S
C1667 C1669 1.415 . S
C1668 C1667 1.355 . S
C1668 C1670 1.419 . S
C1669 C1664 1.425 . S
C1669 C1666 1.409 . S
C1669 C1667 1.415 . S
C1670 H1660 0.930 . S
C1670 C1668 1.419 . S
C1670 C1671 1.362 . S
C1671 H1661 0.930 . S
C1671 C1664 1.409 . S
C1671 C1670 1.362 . S
H1672 C1678 0.930 . S
H1673 C1681 0.930 . S
H1674 C1682 0.930 . S
H1675 C1683 0.930 . S
H1676 C1686 0.930 . S
H1677 C1687 0.930 . S
C1678 H1672 0.930 . S
C1678 C1679 1.355 . S
C1678 C1680 1.415 . S
C1679 C1678 1.355 . S
C1679 C1681 1.419 . S
C1680 C1678 1.415 . S
C1680 C1685 1.425 . S
C1680 C1687 1.409 . S
C1681 H1673 0.930 . S
C1681 C1679 1.419 . S
C1681 C1682 1.362 . S
C1682 H1674 0.930 . S
C1682 C1681 1.362 . S
C1682 C1685 1.409 . S
C1683 H1675 0.930 . S
C1683 C1684 1.355 . S
C1683 C1685 1.415 . S
C1684 C1683 1.355 . S
C1684 C1686 1.419 . S
C1685 C1680 1.425 . S
C1685 C1682 1.409 . S
C1685 C1683 1.415 . S
C1686 H1676 0.930 . S
C1686 C1684 1.419 . S
C1686 C1687 1.362 . S
C1687 H1677 0.930 . S
C1687 C1680 1.409 . S
C1687 C1686 1.362 . S
H1688 C1694 0.930 . S
H1689 C1697 0.930 . S
H1690 C1698 0.930 . S
H1691 C1699 0.930 . S
H1692 C1702 0.930 . S
H1693 C1703 0.930 . S
C1694 H1688 0.930 . S
C1694 C1695 1.355 . S
C1694 C1696 1.415 . S
C1695 C1694 1.355 . S
C1695 C1697 1.419 . S
C1696 C1694 1.415 . S
C1696 C1701 1.425 . S
C1696 C1703 1.409 . S
C1697 H1689 0.930 . S
C1697 C1695 1.419 . S
C1697 C1698 1.362 . S
C1698 H1690 0.930 . S
C1698 C1697 1.362 . S
C1698 C1701 1.409 . S
C1699 H1691 0.930 . S
C1699 C1700 1.355 . S
C1699 C1701 1.415 . S
C1700 C1699 1.355 . S
C1700 C1702 1.419 . S
C1701 C1696 1.425 . S
C1701 C1698 1.409 . S
C1701 C1699 1.415 . S
C1702 H1692 0.930 . S
C1702 C1700 1.419 . S
C1702 C1703 1.362 . S
C1703 H1693 0.930 . S
C1703 C1696 1.409 . S
C1703 C1702 1.362 . S
H1704 C1710 0.930 . S
H1705 C1713 0.930 . S
H1706 C1714 0.930 . S
H1707 C1715 0.930 . S
H1708 C1718 0.930 . S
H1709 C1719 0.930 . S
C1710 H1704 0.930 . S
C1710 C1711 1.355 . S
C1710 C1712 1.415 . S
C1711 C1710 1.355 . S
C1711 C1713 1.419 . S
C1712 C1710 1.415 . S
C1712 C1717 1.425 . S
C1712 C1719 1.409 . S
C1713 H1705 0.930 . S
C1713 C1711 1.419 . S
C1713 C1714 1.362 . S
C1714 H1706 0.930 . S
C1714 C1713 1.362 . S
C1714 C1717 1.409 . S
C1715 H1707 0.930 . S
C1715 C1716 1.355 . S
C1715 C1717 1.415 . S
C1716 C1715 1.355 . S
C1716 C1718 1.419 . S
C1717 C1712 1.425 . S
C1717 C1714 1.409 . S
C1717 C1715 1.415 . S
C1718 H1708 0.930 . S
C1718 C1716 1.419 . S
C1718 C1719 1.362 . S
C1719 H1709 0.930 . S
C1719 C1712 1.409 . S
C1719 C1718 1.362 . S
H1720 C1726 0.930 . S
H1721 C1729 0.930 . S
H1722 C1730 0.930 . S
H1723 C1731 0.930 . S
H1724 C1734 0.930 . S
H1725 C1735 0.930 . S
C1726 H1720 0.930 . S
C1726 C1727 1.355 . S
C1726 C1728 1.415 . S
C1727 C1726 1.355 . S
C1727 C1729 1.419 . S
C1728 C1726 1.415 . S
C1728 C1733 1.425 . S
C1728 C1735 1.409 . S
C1729 H1721 0.930 . S
C1729 C1727 1.419 . S
C1729 C1730 1.362 . S
C1730 H1722 0.930 . S
C1730 C1729 1.362 . S
C1730 C1733 1.409 . S
C1731 H1723 0.930 . S
C1731 C1732 1.355 . S
C1731 C1733 1.415 . S
C1732 C1731 1.355 . S
C1732 C1734 1.419 . S
C1733 C1728 1.425 . S
C1733 C1730 1.409 . S
C1733 C1731 1.415 . S
C1734 H1724 0.930 . S
C1734 C1732 1.419 . S
C1734 C1735 1.362 . S
C1735 H1725 0.930 . S
C1735 C1728 1.409 . S
C1735 C1734 1.362 . S
H1736 C1742 0.930 . S
H1737 C1745 0.930 . S
H1738 C1746 0.930 . S
H1739 C1747 0.930 . S
H1740 C1750 0.930 . S
H1741 C1751 0.930 . S
C1742 H1736 0.930 . S
C1742 C1743 1.355 . S
C1742 C1744 1.415 . S
C1743 C1742 1.355 . S
C1743 C1745 1.419 . S
C1744 C1742 1.415 . S
C1744 C1749 1.425 . S
C1744 C1751 1.409 . S
C1745 H1737 0.930 . S
C1745 C1743 1.419 . S
C1745 C1746 1.362 . S
C1746 H1738 0.930 . S
C1746 C1745 1.362 . S
C1746 C1749 1.409 . S
C1747 H1739 0.930 . S
C1747 C1748 1.355 . S
C1747 C1749 1.415 . S
C1748 C1747 1.355 . S
C1748 C1750 1.419 . S
C1749 C1744 1.425 . S
C1749 C1746 1.409 . S
C1749 C1747 1.415 . S
C1750 H1740 0.930 . S
C1750 C1748 1.419 . S
C1750 C1751 1.362 . S
C1751 H1741 0.930 . S
C1751 C1744 1.409 . S
C1751 C1750 1.362 . S
C799 C182 1.155 . S
C804 C17 1.081 . S
C815 C50 1.159 . S
C820 C215 1.109 . S
C831 C83 1.096 . S
C836 C248 1.114 . S
C847 C149 1.121 . S
C852 C116 1.091 . S
C863 C281 1.136 . S
C868 C776 1.082 . S
C879 C710 1.162 . S
C884 C314 1.101 . S
C895 C347 1.093 . S
C900 C743 1.162 . S
C911 C545 1.153 . S
C916 C380 1.080 . S
C927 C413 1.086 . S
C932 C677 1.129 . S
C943 C446 1.154 . S
C948 C578 1.080 . S
C959 C611 1.101 . S
C964 C479 1.108 . S
C975 C512 1.086 . S
C980 C644 1.129 . S
C991 N104 1.671 . S
C996 C28 1.723 . S
C1007 C61 1.712 . S
C1012 N5 1.622 . S
C1023 C94 1.743 . S
C1028 N38 1.693 . S
C1039 N71 1.647 . S
C1044 C127 1.713 . S
C1055 N170 1.633 . S
C1060 C160 1.711 . S
C1071 C193 1.745 . S
C1076 N203 1.694 . S
C1087 N236 1.696 . S
C1092 C226 1.756 . S
C1103 N137 1.635 . S
C1108 C259 1.711 . S
C1119 N599 1.646 . S
C1124 C292 1.760 . S
C1135 C325 1.753 . S
C1140 N632 1.632 . S
C1151 N665 1.676 . S
C1156 C358 1.766 . S
C1167 C391 1.749 . S
C1172 N566 1.696 . S
C1183 N731 1.615 . S
C1188 C424 1.741 . S
C1199 C457 1.721 . S
C1204 N533 1.608 . S
C1215 N764 1.615 . S
C1220 C490 1.714 . S
C1231 C523 1.714 . S
C1236 N698 1.614 . S
C1247 N302 1.637 . S
C1252 C556 1.756 . S
C1263 N500 1.642 . S
C1268 C589 1.712 . S
C1279 C622 1.720 . S
C1284 N401 1.666 . S
C1295 C655 1.721 . S
C1300 N434 1.608 . S
C1311 N467 1.678 . S
C1316 C688 1.766 . S
C1327 N368 1.670 . S
C1332 C721 1.766 . S
C1343 N269 1.690 . S
C1348 C754 1.763 . S
C1359 C787 1.726 . S
C1364 N335 1.675 . S
C1375 C8 1.298 . S
C1380 N542 1.228 . S
C1391 N773 1.324 . S
C1396 C41 1.354 . S
C1407 C74 1.324 . S
C1412 N707 1.282 . S
C1423 N740 1.297 . S
C1428 C107 1.333 . S
C1439 C140 1.330 . S
C1444 N575 1.263 . S
C1455 C173 1.298 . S
C1460 N608 1.222 . S
C1471 N641 1.293 . S
C1476 C206 1.331 . S
C1487 N674 1.231 . S
C1492 C239 1.309 . S
C1503 N14 1.288 . S
C1508 C272 1.328 . S
C1519 C305 1.329 . S
C1524 N47 1.261 . S
C1535 C338 1.353 . S
C1540 N80 1.308 . S
C1551 C371 1.300 . S
C1556 N113 1.222 . S
C1567 C404 1.326 . S
C1572 N146 1.285 . S
C1583 C437 1.318 . S
C1588 N179 1.245 . S
C1599 C470 1.316 . S
C1604 N212 1.268 . S
C1615 C503 1.343 . S
C1620 N245 1.311 . S
C1631 N278 1.311 . S
C1636 C536 1.354 . S
C1647 C569 1.302 . S
C1652 N410 1.224 . S
C1663 C602 1.299 . S
C1668 N443 1.222 . S
C1679 N476 1.243 . S
C1684 C635 1.317 . S
C1695 C668 1.306 . S
C1700 N509 1.228 . S
C1711 N344 1.259 . S
C1716 C701 1.327 . S
C1727 N377 1.222 . S
C1732 C734 1.300 . S
C1743 C767 1.326 . S
C1748 N311 1.256 . S
