# Generated by pormake.
# Topology zfj, (5)-cn, num edge types: 1
# Building blocks:
#     Node 0, Type 0, BuildingBlock: XOMCOT_clean_sbu_1, # of connection points: 5
#     Node 1, Type 0, BuildingBlock: XOMCOT_clean_sbu_1, # of connection points: 5
#     Node 2, Type 0, BuildingBlock: XOMCOT_clean_sbu_1, # of connection points: 5
#     Node 3, Type 0, BuildingBlock: XOMCOT_clean_sbu_1, # of connection points: 5
#     Node 4, Type 0, BuildingBlock: XOMCOT_clean_sbu_1, # of connection points: 5
#     Node 5, Type 0, BuildingBlock: XOMCOT_clean_sbu_1, # of connection points: 5
#     Node 6, Type 0, BuildingBlock: XOMCOT_clean_sbu_1, # of connection points: 5
#     Node 7, Type 0, BuildingBlock: XOMCOT_clean_sbu_1, # of connection points: 5
#     Node 8, Type 0, BuildingBlock: XOMCOT_clean_sbu_1, # of connection points: 5
#     Node 9, Type 0, BuildingBlock: XOMCOT_clean_sbu_1, # of connection points: 5
#     Node 10, Type 0, BuildingBlock: XOMCOT_clean_sbu_1, # of connection points: 5
#     Node 11, Type 0, BuildingBlock: XOMCOT_clean_sbu_1, # of connection points: 5
#     Node 12, Type 0, BuildingBlock: XOMCOT_clean_sbu_1, # of connection points: 5
#     Node 13, Type 0, BuildingBlock: XOMCOT_clean_sbu_1, # of connection points: 5
#     Node 14, Type 0, BuildingBlock: XOMCOT_clean_sbu_1, # of connection points: 5
#     Node 15, Type 0, BuildingBlock: XOMCOT_clean_sbu_1, # of connection points: 5
#     Edge 16, Type (0, 0), BuildingBlock: XIVTED_clean_linker_0, # of connection points: 2
#     Edge 17, Type (0, 0), BuildingBlock: XIVTED_clean_linker_0, # of connection points: 2
#     Edge 18, Type (0, 0), BuildingBlock: XIVTED_clean_linker_0, # of connection points: 2
#     Edge 19, Type (0, 0), BuildingBlock: XIVTED_clean_linker_0, # of connection points: 2
#     Edge 20, Type (0, 0), BuildingBlock: XIVTED_clean_linker_0, # of connection points: 2
#     Edge 21, Type (0, 0), BuildingBlock: XIVTED_clean_linker_0, # of connection points: 2
#     Edge 22, Type (0, 0), BuildingBlock: XIVTED_clean_linker_0, # of connection points: 2
#     Edge 23, Type (0, 0), BuildingBlock: XIVTED_clean_linker_0, # of connection points: 2
#     Edge 24, Type (0, 0), BuildingBlock: XIVTED_clean_linker_0, # of connection points: 2
#     Edge 25, Type (0, 0), BuildingBlock: XIVTED_clean_linker_0, # of connection points: 2
#     Edge 26, Type (0, 0), BuildingBlock: XIVTED_clean_linker_0, # of connection points: 2
#     Edge 27, Type (0, 0), BuildingBlock: XIVTED_clean_linker_0, # of connection points: 2
#     Edge 28, Type (0, 0), BuildingBlock: XIVTED_clean_linker_0, # of connection points: 2
#     Edge 29, Type (0, 0), BuildingBlock: XIVTED_clean_linker_0, # of connection points: 2
#     Edge 30, Type (0, 0), BuildingBlock: XIVTED_clean_linker_0, # of connection points: 2
#     Edge 31, Type (0, 0), BuildingBlock: XIVTED_clean_linker_0, # of connection points: 2
#     Edge 32, Type (0, 0), BuildingBlock: XIVTED_clean_linker_0, # of connection points: 2
#     Edge 33, Type (0, 0), BuildingBlock: XIVTED_clean_linker_0, # of connection points: 2
#     Edge 34, Type (0, 0), BuildingBlock: XIVTED_clean_linker_0, # of connection points: 2
#     Edge 35, Type (0, 0), BuildingBlock: XIVTED_clean_linker_0, # of connection points: 2
#     Edge 36, Type (0, 0), BuildingBlock: XIVTED_clean_linker_0, # of connection points: 2
#     Edge 37, Type (0, 0), BuildingBlock: XIVTED_clean_linker_0, # of connection points: 2
#     Edge 38, Type (0, 0), BuildingBlock: XIVTED_clean_linker_0, # of connection points: 2
#     Edge 39, Type (0, 0), BuildingBlock: XIVTED_clean_linker_0, # of connection points: 2
#     Edge 40, Type (0, 0), BuildingBlock: XIVTED_clean_linker_0, # of connection points: 2
#     Edge 41, Type (0, 0), BuildingBlock: XIVTED_clean_linker_0, # of connection points: 2
#     Edge 42, Type (0, 0), BuildingBlock: XIVTED_clean_linker_0, # of connection points: 2
#     Edge 43, Type (0, 0), BuildingBlock: XIVTED_clean_linker_0, # of connection points: 2
#     Edge 44, Type (0, 0), BuildingBlock: XIVTED_clean_linker_0, # of connection points: 2
#     Edge 45, Type (0, 0), BuildingBlock: XIVTED_clean_linker_0, # of connection points: 2
#     Edge 46, Type (0, 0), BuildingBlock: XIVTED_clean_linker_0, # of connection points: 2
#     Edge 47, Type (0, 0), BuildingBlock: XIVTED_clean_linker_0, # of connection points: 2
#     Edge 48, Type (0, 0), BuildingBlock: XIVTED_clean_linker_0, # of connection points: 2
#     Edge 49, Type (0, 0), BuildingBlock: XIVTED_clean_linker_0, # of connection points: 2
#     Edge 50, Type (0, 0), BuildingBlock: XIVTED_clean_linker_0, # of connection points: 2
#     Edge 51, Type (0, 0), BuildingBlock: XIVTED_clean_linker_0, # of connection points: 2
#     Edge 52, Type (0, 0), BuildingBlock: XIVTED_clean_linker_0, # of connection points: 2
#     Edge 53, Type (0, 0), BuildingBlock: XIVTED_clean_linker_0, # of connection points: 2
#     Edge 54, Type (0, 0), BuildingBlock: XIVTED_clean_linker_0, # of connection points: 2
#     Edge 55, Type (0, 0), BuildingBlock: XIVTED_clean_linker_0, # of connection points: 2
# Relax obj value: 0.172
# Max RMSD: 0.146
# Mean RMSD: 0.146
data_MOF--net-zfj--node1-XOMCOT_clean_sbu_1--edge1-XIVTED_clean_linker_0
_symmetry_space_group_name_H-M    P1
_symmetry_Int_Tables_number       1
_symmetry_cell_setting            triclinic
loop_
_symmetry_equiv_pos_as_xyz
'x, y, z'
_cell_length_a     35.368047
_cell_length_b     35.480551
_cell_length_c     50.59666
_cell_angle_alpha  90.069819
_cell_angle_beta   90.014828
_cell_angle_gamma 90.080898
loop_
_atom_site_label
_atom_site_type_symbol
_atom_site_fract_x
_atom_site_fract_y
_atom_site_fract_z
_atom_type_partial_charge
C0 C 0.52231 0.26252 0.17746 0.0
C1 C 0.52285 0.30098 0.1801 0.0
N2 N 0.50247 0.31581 0.16024 0.0
N3 N 0.50128 0.25306 0.15624 0.0
C4 C 0.48979 0.28625 0.14591 0.0
H5 H 0.53691 0.24265 0.19001 0.0
Co6 Co 0.49338 0.20331 0.14644 0.0
C7 C 0.46568 0.20312 0.09161 0.0
O8 O 0.48736 0.17367 0.08741 0.0
N9 N 0.48485 0.15209 0.1379 0.0
C10 C 0.45244 0.10021 0.12747 0.0
C11 C 0.45041 0.13844 0.13114 0.0
C12 C 0.507 0.121 0.13927 0.0
N13 N 0.48802 0.08932 0.13264 0.0
O14 O 0.44787 0.20247 0.16672 0.0
H15 H 0.42513 0.15534 0.12918 0.0
H16 H 0.53618 0.121 0.14543 0.0
O17 O 0.46537 0.21905 0.11438 0.0
C18 C 0.45462 0.19435 0.19078 0.0
O19 O 0.48979 0.18839 0.19797 0.0
N20 N 0.54001 0.20482 0.12864 0.0
C21 C 0.61473 0.2186 0.11362 0.0
C22 C 0.58471 0.23512 0.09983 0.0
C23 C 0.54761 0.22844 0.10793 0.0
C24 C 0.56899 0.18896 0.14243 0.0
C25 C 0.6065 0.19472 0.13491 0.0
H26 H 0.52559 0.24475 0.09872 0.0
H27 H 0.56314 0.17401 0.16057 0.0
H28 H 0.47257 0.28884 0.12834 0.0
H29 H 0.53802 0.31694 0.19497 0.0
H30 H 0.42922 0.08161 0.12247 0.0
H31 H 0.58991 0.2545 0.0837 0.0
H32 H 0.62891 0.18272 0.14681 0.0
C33 C 0.24991 0.50302 0.68973 0.0
C34 C 0.2115 0.50056 0.69318 0.0
N35 N 0.19568 0.49136 0.66987 0.0
N36 N 0.25876 0.49479 0.66442 0.0
C37 C 0.22491 0.48813 0.65275 0.0
H38 H 0.26961 0.51234 0.70464 0.0
Co39 Co 0.30723 0.49929 0.64931 0.0
C40 C 0.3054 0.44644 0.60389 0.0
O41 O 0.33837 0.43223 0.61047 0.0
N42 N 0.35585 0.50506 0.63436 0.0
C43 C 0.40201 0.51936 0.60621 0.0
C44 C 0.36357 0.5159 0.60937 0.0
C45 C 0.39022 0.50242 0.64603 0.0
N46 N 0.41892 0.5109 0.62933 0.0
O47 O 0.3223 0.45369 0.6664 0.0
H48 H 0.34253 0.52147 0.59438 0.0
H49 H 0.39422 0.49456 0.66642 0.0
O50 O 0.29039 0.47203 0.61817 0.0
C51 C 0.33282 0.46208 0.68977 0.0
O52 O 0.33533 0.49781 0.6964 0.0
N53 N 0.29289 0.54503 0.63509 0.0
C54 C 0.26851 0.61764 0.62463 0.0
C55 C 0.25938 0.58818 0.60727 0.0
C56 C 0.2716 0.55163 0.61304 0.0
C57 C 0.30321 0.57362 0.65146 0.0
C58 C 0.29122 0.61021 0.64666 0.0
H59 H 0.26297 0.52881 0.60024 0.0
H60 H 0.31979 0.56755 0.66891 0.0
H61 H 0.22159 0.48234 0.63192 0.0
H62 H 0.19627 0.50725 0.71113 0.0
H63 H 0.41617 0.52838 0.58836 0.0
H64 H 0.24166 0.59311 0.59016 0.0
H65 H 0.29896 0.63242 0.66036 0.0
C66 C 0.96831 0.23402 0.17067 0.0
C67 C 0.9664 0.19548 0.17201 0.0
N68 N 0.99332 0.18106 0.15616 0.0
N69 N 0.99636 0.24414 0.15411 0.0
C70 C 0.0111 0.21119 0.14539 0.0
H71 H 0.95038 0.25361 0.18121 0.0
Co72 Co 0.0083 0.29458 0.14802 0.0
C73 C 0.03648 0.30024 0.09341 0.0
O74 O 0.01779 0.33213 0.09174 0.0
N75 N 0.02082 0.34616 0.14315 0.0
C76 C 0.05769 0.39634 0.13663 0.0
C77 C 0.05676 0.35786 0.13898 0.0
C78 C 1.00056 0.37861 0.14396 0.0
N79 N 0.02232 0.4094 0.13976 0.0
O80 O 0.05344 0.28926 0.16875 0.0
H81 H 0.08097 0.33939 0.13744 0.0
H82 H 0.97052 0.38011 0.14736 0.0
O83 O 0.03564 0.28135 0.11505 0.0
C84 C 0.0473 0.29005 0.19357 0.0
O85 O 0.01217 0.29176 0.2019 0.0
N86 N 0.96204 0.29905 0.12977 0.0
C87 C 0.88683 0.29073 0.11383 0.0
C88 C 0.91617 0.27436 0.09924 0.0
C89 C 0.95343 0.27812 0.10784 0.0
C90 C 0.93379 0.31544 0.14404 0.0
C91 C 0.89607 0.3123 0.13616 0.0
H92 H 0.97452 0.26127 0.09803 0.0
H93 H 0.9402 0.32841 0.16287 0.0
H94 H 0.0347 0.2093 0.13185 0.0
H95 H 0.94637 0.17928 0.18353 0.0
H96 H 0.08261 0.41346 0.13339 0.0
H97 H 0.91022 0.25685 0.08218 0.0
H98 H 0.8742 0.32417 0.14861 0.0
C99 C 0.24607 0.99743 0.67931 0.0
C100 C 0.28441 0.99823 0.6839 0.0
N101 N 0.30101 0.01748 0.66414 0.0
N102 N 0.23837 0.01633 0.65683 0.0
C103 C 0.27247 0.02866 0.64823 0.0
H104 H 0.22539 0.98209 0.69079 0.0
Co105 Co 0.19043 0.01819 0.64073 0.0
C106 C 0.22282 0.03011 0.58592 0.0
O107 O 0.21712 0.99503 0.57882 0.0
N108 N 0.14163 0.02071 0.62499 0.0
C109 C 0.09395 0.01775 0.59634 0.0
C110 C 0.1324 0.01855 0.59913 0.0
C111 C 0.1077 0.02142 0.63752 0.0
N112 N 0.07812 0.01936 0.62049 0.0
O113 O 0.18282 0.06716 0.65583 0.0
H114 H 0.1517 0.01581 0.58293 0.0
H115 H 0.10491 0.02199 0.6588 0.0
O116 O 0.21251 0.04189 0.60873 0.0
C117 C 0.17368 0.06354 0.68007 0.0
O118 O 0.16884 0.02942 0.68955 0.0
N119 N 0.19694 0.96766 0.6287 0.0
C120 C 0.20402 0.89014 0.6198 0.0
C121 C 0.23484 0.91431 0.61595 0.0
C122 C 0.23096 0.95277 0.62106 0.0
C123 C 0.16714 0.94404 0.63333 0.0
C124 C 0.16978 0.9055 0.62847 0.0
H125 H 0.25546 0.97051 0.61853 0.0
H126 H 0.14134 0.95448 0.64195 0.0
H127 H 0.27674 0.04352 0.62982 0.0
H128 H 0.29917 0.98337 0.69946 0.0
H129 H 0.07903 0.01417 0.57785 0.0
H130 H 0.26219 0.90345 0.61007 0.0
H131 H 0.14542 0.88776 0.63219 0.0
C132 C 0.4887 0.25052 0.83361 0.0
C133 C 0.4837 0.21227 0.8319 0.0
N134 N 0.48719 0.19762 0.85625 0.0
N135 N 0.4948 0.26049 0.85905 0.0
C136 C 0.49401 0.22731 0.87233 0.0
H137 H 0.48931 0.26919 0.81685 0.0
Co138 Co 0.5065 0.30925 0.87197 0.0
C139 C 0.44633 0.28728 0.90972 0.0
O140 O 0.42354 0.27551 0.89093 0.0
N141 N 0.51858 0.35767 0.88519 0.0
C142 C 0.53544 0.40312 0.91318 0.0
C143 C 0.53028 0.36504 0.91006 0.0
C144 C 0.51684 0.39205 0.87362 0.0
N145 N 0.52681 0.42038 0.89025 0.0
O146 O 0.46254 0.32891 0.8548 0.0
H147 H 0.53434 0.34412 0.92529 0.0
H148 H 0.50762 0.39639 0.85355 0.0
O149 O 0.47889 0.30019 0.90401 0.0
C150 C 0.47195 0.3381 0.83135 0.0
O151 O 0.50786 0.33609 0.82472 0.0
N152 N 0.55085 0.2902 0.88625 0.0
C153 C 0.61981 0.25594 0.89626 0.0
C154 C 0.59129 0.25555 0.9155 0.0
C155 C 0.55655 0.27276 0.91001 0.0
C156 C 0.57891 0.29232 0.86801 0.0
C157 C 0.61361 0.27532 0.87256 0.0
H158 H 0.53413 0.27093 0.92444 0.0
H159 H 0.57366 0.30619 0.84934 0.0
H160 H 0.49886 0.22481 0.89336 0.0
H161 H 0.47981 0.19624 0.81387 0.0
H162 H 0.5447 0.41675 0.93117 0.0
H163 H 0.59527 0.24082 0.93403 0.0
H164 H 0.63523 0.27668 0.85742 0.0
C165 C 0.25829 0.48895 0.33038 0.0
C166 C 0.29685 0.48975 0.32778 0.0
N167 N 0.31219 0.47817 0.35069 0.0
N168 N 0.24913 0.47641 0.35469 0.0
C169 C 0.28272 0.47038 0.3668 0.0
H170 H 0.23819 0.49793 0.3156 0.0
Co171 Co 0.19905 0.47191 0.36562 0.0
C172 C 0.1995 0.45883 0.42289 0.0
O173 O 0.1713 0.48288 0.42395 0.0
N174 N 0.14748 0.46653 0.37542 0.0
C175 C 0.09499 0.43814 0.38967 0.0
C176 C 0.13328 0.43453 0.38605 0.0
C177 C 0.11667 0.48869 0.37194 0.0
N178 N 0.08459 0.47223 0.38073 0.0
O179 O 0.19671 0.42254 0.35016 0.0
H180 H 0.1498 0.40977 0.39069 0.0
H181 H 0.11709 0.51609 0.36282 0.0
O182 O 0.21488 0.45124 0.40051 0.0
C183 C 0.18593 0.42607 0.32624 0.0
O184 O 0.17796 0.45993 0.31739 0.0
N185 N 0.20174 0.52187 0.37801 0.0
C186 C 0.21222 0.59882 0.38635 0.0
C187 C 0.23131 0.57248 0.40197 0.0
C188 C 0.22605 0.53406 0.39728 0.0
C189 C 0.18468 0.54734 0.3618 0.0
C190 C 0.18847 0.58598 0.36615 0.0
H191 H 0.24335 0.51448 0.40817 0.0
H192 H 0.16964 0.53766 0.34447 0.0
H193 H 0.28563 0.46088 0.38701 0.0
H194 H 0.31249 0.49951 0.31071 0.0
H195 H 0.07606 0.41679 0.39732 0.0
H196 H 0.25112 0.58155 0.41703 0.0
H197 H 0.17486 0.60562 0.35283 0.0
C198 C 0.96852 0.2585 0.83852 0.0
C199 C 0.96587 0.29704 0.8376 0.0
N200 N 0.99354 0.31171 0.85274 0.0
N201 N 0.99778 0.24868 0.85413 0.0
C202 C 0.01248 0.28176 0.86266 0.0
H203 H 0.95054 0.23875 0.82813 0.0
Co204 Co 0.01266 0.19873 0.85921 0.0
C205 C 0.03607 0.19254 0.91478 0.0
O206 O 0.01868 0.15979 0.9152 0.0
N207 N 0.02852 0.14784 0.86334 0.0
C208 C 0.06786 0.09978 0.87062 0.0
C209 C 0.06451 0.13831 0.86949 0.0
C210 C 0.01091 0.11415 0.86007 0.0
N211 N 0.03408 0.08467 0.86463 0.0
O212 O 0.05862 0.20811 0.84028 0.0
H213 H 0.08706 0.15828 0.87313 0.0
H214 H 0.98174 0.11059 0.85458 0.0
O215 O 0.03628 0.21205 0.89343 0.0
C216 C 0.05293 0.20878 0.81539 0.0
O217 O 0.01794 0.2071 0.80675 0.0
N218 N 0.96563 0.18968 0.87528 0.0
C219 C 0.88893 0.18538 0.88845 0.0
C220 C 0.9143 0.20597 0.90425 0.0
C221 C 0.95246 0.20813 0.89716 0.0
C222 C 0.94117 0.17061 0.8594 0.0
C223 C 0.90329 0.16659 0.86618 0.0
H224 H 0.9705 0.22704 0.90817 0.0
H225 H 0.95068 0.16021 0.84045 0.0
H226 H 0.03712 0.2839 0.87527 0.0
H227 H 0.94504 0.31306 0.8267 0.0
H228 H 0.09334 0.08408 0.87497 0.0
H229 H 0.90452 0.22242 0.92092 0.0
H230 H 0.8852 0.15036 0.8532 0.0
C231 C 0.23731 0.9857 0.31783 0.0
C232 C 0.19949 0.99136 0.31294 0.0
N233 N 0.18549 0.01351 0.33221 0.0
N234 N 0.24722 0.00434 0.34002 0.0
C235 C 0.2151 0.02143 0.34815 0.0
H236 H 0.25596 0.96749 0.30671 0.0
Co237 Co 0.2948 0.00153 0.35619 0.0
C238 C 0.26317 0.01635 0.41091 0.0
O239 O 0.26194 0.98071 0.41755 0.0
N240 N 0.34304 0.99968 0.37209 0.0
C241 C 0.39023 0.99075 0.40043 0.0
C242 C 0.35173 0.99077 0.39731 0.0
C243 C 0.37698 0.00494 0.36029 0.0
N244 N 0.4063 0.99967 0.37713 0.0
O245 O 0.30683 0.04993 0.34186 0.0
H246 H 0.33175 0.98299 0.41238 0.0
H247 H 0.38 0.01203 0.33963 0.0
O248 O 0.27558 0.02655 0.38829 0.0
C249 C 0.31438 0.04744 0.31731 0.0
O250 O 0.31489 0.01394 0.30623 0.0
N251 N 0.28358 0.95143 0.36773 0.0
C252 C 0.26953 0.87445 0.37622 0.0
C253 C 0.24049 0.90114 0.37869 0.0
C254 C 0.248 0.93926 0.37419 0.0
C255 C 0.31162 0.92549 0.3641 0.0
C256 C 0.30562 0.88735 0.36911 0.0
H257 H 0.2249 0.9589 0.37603 0.0
H258 H 0.3389 0.93388 0.35656 0.0
H259 H 0.21283 0.03771 0.36616 0.0
H260 H 0.183 0.97801 0.29751 0.0
H261 H 0.40508 0.98323 0.41835 0.0
H262 H 0.21181 0.89276 0.38329 0.0
H263 H 0.3292 0.86821 0.3669 0.0
C264 C 0.47313 0.74847 0.843 0.0
C265 C 0.47138 0.70987 0.84188 0.0
N266 N 0.50011 0.69582 0.85627 0.0
N267 N 0.50288 0.75893 0.85799 0.0
C268 C 0.5188 0.72618 0.86592 0.0
H269 H 0.45418 0.76782 0.83319 0.0
Co270 Co 0.51671 0.80915 0.86319 0.0
C271 C 0.54804 0.81457 0.91719 0.0
O272 O 0.53256 0.84809 0.91912 0.0
N273 N 0.53121 0.86036 0.86736 0.0
C274 C 0.56964 0.90971 0.87255 0.0
C275 C 0.5677 0.87128 0.8699 0.0
C276 C 0.51158 0.89319 0.86798 0.0
N277 N 0.5343 0.9235 0.87138 0.0
O278 O 0.56102 0.80151 0.84205 0.0
H279 H 0.59162 0.85233 0.8703 0.0
H280 H 0.48127 0.89526 0.8664 0.0
O281 O 0.54434 0.79557 0.89575 0.0
C282 C 0.55454 0.80007 0.81729 0.0
O283 O 0.5193 0.80087 0.80911 0.0
N284 N 0.47121 0.81601 0.88192 0.0
C285 C 0.39614 0.81204 0.89891 0.0
C286 C 0.42522 0.79583 0.91386 0.0
C287 C 0.46239 0.79733 0.90474 0.0
C288 C 0.44331 0.83243 0.86736 0.0
C289 C 0.4057 0.83139 0.87569 0.0
H290 H 0.48307 0.78058 0.915 0.0
H291 H 0.4499 0.84405 0.84815 0.0
H292 H 0.54407 0.72459 0.87791 0.0
H293 H 0.45038 0.69338 0.83141 0.0
H294 H 0.59517 0.92626 0.8748 0.0
H295 H 0.41905 0.78006 0.93167 0.0
H296 H 0.38406 0.8431 0.86299 0.0
C297 C 0.76039 0.49565 0.33249 0.0
C298 C 0.79908 0.49403 0.33148 0.0
N299 N 0.81292 0.51382 0.352 0.0
N300 N 0.74973 0.51672 0.35338 0.0
C301 C 0.78247 0.52718 0.36515 0.0
H302 H 0.74113 0.48197 0.31892 0.0
Co303 Co 0.69907 0.52618 0.36079 0.0
C304 C 0.69334 0.54422 0.41735 0.0
O305 O 0.6624 0.52368 0.41778 0.0
N306 N 0.64717 0.53633 0.36714 0.0
C307 C 0.59562 0.56941 0.37743 0.0
C308 C 0.63415 0.57072 0.37426 0.0
C309 C 0.61552 0.51482 0.36553 0.0
N310 N 0.58395 0.5342 0.37192 0.0
O311 O 0.70351 0.57467 0.34447 0.0
H312 H 0.65173 0.59531 0.37734 0.0
H313 H 0.61512 0.48543 0.36016 0.0
O314 O 0.71218 0.54739 0.3958 0.0
C315 C 0.70045 0.57141 0.31947 0.0
O316 O 0.69516 0.53768 0.30941 0.0
N317 N 0.69559 0.47698 0.37411 0.0
C318 C 0.70612 0.39938 0.37964 0.0
C319 C 0.72112 0.42457 0.39831 0.0
C320 C 0.71608 0.46337 0.39495 0.0
C321 C 0.68042 0.45276 0.3561 0.0
C322 C 0.68439 0.41395 0.35886 0.0
H323 H 0.73167 0.48212 0.40774 0.0
H324 H 0.66743 0.46377 0.33836 0.0
H325 H 0.78408 0.54437 0.38279 0.0
H326 H 0.8158 0.47871 0.31713 0.0
H327 H 0.57752 0.59272 0.3829 0.0
H328 H 0.73919 0.41469 0.41413 0.0
H329 H 0.67238 0.39566 0.34389 0.0
C330 C 0.01602 0.75514 0.82358 0.0
C331 C 0.01296 0.79333 0.81969 0.0
N332 N 1.00072 0.80909 0.84229 0.0
N333 N 0.00517 0.74658 0.84844 0.0
C334 C 0.9961 0.78022 0.85937 0.0
H335 H 0.02757 0.7354 0.80952 0.0
Co336 Co 0.00913 0.69885 0.86403 0.0
C337 C 0.95387 0.70056 0.9077 0.0
O338 O 0.9398 0.66805 0.90004 0.0
N339 N 0.01407 0.65082 0.87961 0.0
C340 C 0.02699 0.60568 0.90868 0.0
C341 C 0.02485 0.6439 0.90473 0.0
C342 C 0.01001 0.61621 0.86869 0.0
N343 N 0.01761 0.58804 0.88598 0.0
O344 O 0.96399 0.68323 0.84578 0.0
H345 H 0.03113 0.66538 0.91927 0.0
H346 H 0.00167 0.61178 0.84842 0.0
O347 O 0.98037 0.71592 0.89444 0.0
C348 C 0.97196 0.67214 0.82245 0.0
O349 O 0.0077 0.66965 0.81561 0.0
N350 N 0.05444 0.71379 0.87966 0.0
C351 C 0.1266 0.73493 0.89576 0.0
C352 C 0.09463 0.75151 0.90726 0.0
C353 C 0.05859 0.74037 0.89902 0.0
C354 C 0.08518 0.69743 0.86831 0.0
C355 C 0.12157 0.70729 0.87625 0.0
H356 H 0.03429 0.75377 0.90784 0.0
H357 H 0.08128 0.67694 0.85268 0.0
H358 H 0.98769 0.78385 0.87975 0.0
H359 H 0.02152 0.80859 0.80216 0.0
H360 H 0.0355 0.59223 0.92689 0.0
H361 H 0.09749 0.77298 0.92237 0.0
H362 H 0.14558 0.6943 0.86658 0.0
C363 C 0.73531 0.03696 0.32193 0.0
C364 C 0.69665 0.03801 0.32001 0.0
N365 N 0.68215 0.01419 0.33805 0.0
N366 N 0.74536 0.01242 0.34099 0.0
C367 C 0.7123 0.99905 0.35063 0.0
H368 H 0.75498 0.0534 0.31032 0.0
Co369 Co 0.79575 0.00312 0.34944 0.0
C370 C 0.79782 0.98228 0.40576 0.0
O371 O 0.82777 0.00409 0.40772 0.0
N372 N 0.84729 0.99306 0.35678 0.0
C373 C 0.89812 0.95921 0.36748 0.0
C374 C 0.85947 0.95903 0.3653 0.0
C375 C 0.87959 0.01295 0.35291 0.0
N376 N 0.9107 0.99311 0.3596 0.0
O377 O 0.7936 0.95601 0.33086 0.0
H378 H 0.84127 0.93525 0.36946 0.0
H379 H 0.8809 0.04111 0.34502 0.0
O380 O 0.78094 0.979 0.38339 0.0
C381 C 0.79812 0.96149 0.30614 0.0
O382 O 0.80104 0.99633 0.29762 0.0
N383 N 0.7976 0.05125 0.36501 0.0
C384 C 0.78729 0.12811 0.37481 0.0
C385 C 0.76997 0.10099 0.39092 0.0
C386 C 0.77489 0.06269 0.38539 0.0
C387 C 0.81466 0.07734 0.34929 0.0
C388 C 0.81081 0.11575 0.35425 0.0
H389 H 0.75768 0.04276 0.39607 0.0
H390 H 0.82863 0.06847 0.33135 0.0
H391 H 0.7103 0.97855 0.36638 0.0
H392 H 0.68042 0.05568 0.30679 0.0
H393 H 0.91575 0.93579 0.37344 0.0
H394 H 0.75037 0.10919 0.40633 0.0
H395 H 0.82439 0.13559 0.34105 0.0
C396 C 0.48674 0.76538 0.17624 0.0
C397 C 0.4865 0.80402 0.17741 0.0
N398 N 0.50978 0.81712 0.15851 0.0
N399 N 0.51033 0.75415 0.15685 0.0
C400 C 0.5238 0.7864 0.14619 0.0
H401 H 0.47102 0.74654 0.18895 0.0
Co402 Co 0.52139 0.7039 0.14993 0.0
C403 C 0.53706 0.69844 0.09296 0.0
O404 O 0.5173 0.66704 0.09278 0.0
N405 N 0.53352 0.65265 0.14375 0.0
C406 C 0.56837 0.60282 0.13242 0.0
C407 C 0.56795 0.6413 0.13522 0.0
C408 C 0.5139 0.62009 0.1467 0.0
N409 N 0.53433 0.58959 0.13969 0.0
O410 O 0.5704 0.71038 0.16545 0.0
H411 H 0.59133 0.66 0.13094 0.0
H412 H 0.48515 0.61816 0.15359 0.0
O413 O 0.54081 0.71705 0.11455 0.0
C414 C 0.56818 0.71021 0.1906 0.0
O415 O 0.53464 0.70741 0.20157 0.0
N416 N 0.47172 0.69804 0.13742 0.0
C417 C 0.39325 0.69914 0.13071 0.0
C418 C 0.41713 0.71724 0.11253 0.0
C419 C 0.45629 0.71692 0.11649 0.0
C420 C 0.44884 0.68108 0.15547 0.0
C421 C 0.40981 0.68015 0.15208 0.0
H422 H 0.47363 0.73417 0.10378 0.0
H423 H 0.46089 0.66976 0.17342 0.0
H424 H 0.54407 0.78744 0.13019 0.0
H425 H 0.47017 0.82124 0.1909 0.0
H426 H 0.59206 0.58582 0.12603 0.0
H427 H 0.40564 0.73362 0.09638 0.0
H428 H 0.39273 0.66596 0.16678 0.0
C429 C 0.74705 0.47369 0.6828 0.0
C430 C 0.70893 0.4777 0.68719 0.0
N431 N 0.69507 0.5022 0.66934 0.0
N432 N 0.7575 0.49568 0.66235 0.0
C433 C 0.72523 0.51316 0.65476 0.0
H434 H 0.76558 0.45419 0.69286 0.0
Co435 Co 0.80608 0.49455 0.64713 0.0
C436 C 0.78018 0.51343 0.59177 0.0
O437 O 0.78397 0.47853 0.58371 0.0
N438 N 0.85579 0.49408 0.63259 0.0
C439 C 0.90537 0.49037 0.60555 0.0
C440 C 0.8668 0.48922 0.60722 0.0
C441 C 0.88887 0.49773 0.646 0.0
N442 N 0.91944 0.49581 0.62992 0.0
O443 O 0.8179 0.54104 0.66485 0.0
H444 H 0.8488 0.48375 0.59067 0.0
H445 H 0.89052 0.50162 0.66716 0.0
O446 O 0.78773 0.52287 0.61568 0.0
C447 C 0.82465 0.53486 0.68925 0.0
O448 O 0.82382 0.49994 0.69782 0.0
N449 N 0.79499 0.44632 0.63234 0.0
C450 C 0.77846 0.37125 0.61925 0.0
C451 C 0.75074 0.39931 0.61737 0.0
C452 C 0.75948 0.4364 0.62403 0.0
C453 C 0.82202 0.41912 0.63494 0.0
C454 C 0.81474 0.38183 0.62778 0.0
H455 H 0.73742 0.45717 0.62224 0.0
H456 H 0.84926 0.4258 0.64336 0.0
H457 H 0.7234 0.53181 0.63792 0.0
H458 H 0.69226 0.46174 0.70121 0.0
H459 H 0.92182 0.4862 0.58775 0.0
H460 H 0.72199 0.39274 0.61164 0.0
H461 H 0.83732 0.36144 0.62955 0.0
C462 C 0.98284 0.73712 0.18228 0.0
C463 C 0.97851 0.69885 0.18498 0.0
N464 N 0.97744 0.68339 0.16071 0.0
N465 N 0.98395 0.74613 0.15637 0.0
C466 C 0.98082 0.71259 0.14373 0.0
H467 H 0.9866 0.75662 0.19843 0.0
Co468 Co 0.99315 0.79414 0.14203 0.0
C469 C 0.94717 0.79447 0.09358 0.0
O470 O 0.93253 0.82702 0.10055 0.0
N471 N 0.00327 0.84221 0.12758 0.0
C472 C 0.02352 0.8869 0.10017 0.0
C473 C 0.01889 0.8488 0.10367 0.0
C474 C 0.99892 0.87694 0.13827 0.0
N475 N 0.01094 0.90476 0.12197 0.0
O476 O 0.94506 0.81107 0.15531 0.0
H477 H 0.02669 0.82719 0.08962 0.0
H478 H 0.98705 0.88184 0.1576 0.0
O479 O 0.97092 0.77821 0.10871 0.0
C480 C 0.94937 0.82232 0.17908 0.0
O481 O 0.98379 0.824 0.18881 0.0
N482 N 0.04098 0.77821 0.13183 0.0
C483 C 0.11579 0.75529 0.12648 0.0
C484 C 0.08849 0.74417 0.10786 0.0
C485 C 0.05092 0.75586 0.11095 0.0
C486 C 0.06726 0.78998 0.14961 0.0
C487 C 0.10481 0.77904 0.14727 0.0
H488 H 0.02996 0.74632 0.09692 0.0
H489 H 0.05868 0.8076 0.16601 0.0
H490 H 0.98204 0.70942 0.1225 0.0
H491 H 0.97831 0.6834 0.20342 0.0
H492 H 0.03593 0.90019 0.083 0.0
H493 H 0.09584 0.72573 0.09159 0.0
H494 H 0.12505 0.78891 0.1618 0.0
C495 C 0.74664 0.00986 0.66844 0.0
C496 C 0.78505 0.01281 0.67111 0.0
N497 N 0.80137 0.9925 0.65178 0.0
N498 N 0.73839 0.98746 0.64769 0.0
C499 C 0.77245 0.97747 0.63767 0.0
H500 H 0.72584 0.02396 0.68058 0.0
Co501 Co 0.68805 0.97824 0.63863 0.0
C502 C 0.6859 0.95712 0.58228 0.0
O503 O 0.65499 0.97752 0.58069 0.0
N504 N 0.63628 0.96873 0.63127 0.0
C505 C 0.58415 0.93603 0.62154 0.0
C506 C 0.62292 0.93499 0.62293 0.0
C507 C 0.60461 0.98925 0.63588 0.0
N508 N 0.57269 0.97016 0.62978 0.0
O509 O 0.68987 0.93094 0.65681 0.0
H510 H 0.64038 0.9108 0.61845 0.0
H511 H 0.60435 0.0173 0.64402 0.0
O512 O 0.70306 0.95415 0.6046 0.0
C513 C 0.68448 0.93549 0.6815 0.0
O514 O 0.67894 0.96976 0.69053 0.0
N515 N 0.68709 0.0263 0.62283 0.0
C516 C 0.69977 0.10181 0.61058 0.0
C517 C 0.71698 0.07334 0.59581 0.0
C518 C 0.71081 0.03582 0.60251 0.0
C519 C 0.67045 0.05391 0.63753 0.0
C520 C 0.67553 0.09191 0.63129 0.0
H521 H 0.72815 0.01506 0.59281 0.0
H522 H 0.65609 0.04674 0.65567 0.0
H523 H 0.77603 0.95982 0.6204 0.0
H524 H 0.79989 0.02974 0.68561 0.0
H525 H 0.56573 0.91299 0.61589 0.0
H526 H 0.73707 0.08012 0.58036 0.0
H527 H 0.66334 0.11333 0.64395 0.0
H528 H 0.42928 0.16672 0.05212 0.0
H529 H 0.47241 0.32743 0.95182 0.0
H530 H 0.46199 0.2778 0.07808 0.0
H531 H 0.39925 0.23437 0.93169 0.0
H532 H 0.46482 0.3122 0.99857 0.0
H533 H 0.41285 0.19249 0.00886 0.0
C534 C 0.43203 0.19678 0.04885 0.0
C535 C 0.44708 0.22022 0.06854 0.0
C536 C 0.4498 0.29552 0.984 0.0
C537 C 0.42957 0.2497 0.0189 0.0
C538 C 0.45429 0.30408 0.9573 0.0
C539 C 0.43678 0.28182 0.93787 0.0
C540 C 0.42836 0.26392 0.99134 0.0
C541 C 0.41332 0.25216 0.94605 0.0
C542 C 0.4227 0.21148 0.02416 0.0
C543 C 0.45028 0.25888 0.0634 0.0
N544 N 0.41039 0.24358 0.97218 0.0
N545 N 0.44244 0.27234 0.03881 0.0
H546 H 0.27231 0.43556 0.4347 0.0
H547 H 0.23183 0.45471 0.58903 0.0
H548 H 0.16187 0.45147 0.46905 0.0
H549 H 0.34041 0.41959 0.55911 0.0
H550 H 0.20555 0.44878 0.54481 0.0
H551 H 0.2979 0.42417 0.47929 0.0
C552 C 0.25336 0.43586 0.4515 0.0
C553 C 0.21502 0.44494 0.44824 0.0
C554 C 0.23506 0.44191 0.54783 0.0
C555 C 0.24396 0.43242 0.49906 0.0
C556 C 0.25009 0.44535 0.57317 0.0
C557 C 0.2884 0.43784 0.5778 0.0
C558 C 0.25858 0.43149 0.52665 0.0
C559 C 0.31065 0.42558 0.55643 0.0
C560 C 0.26796 0.42956 0.47694 0.0
C561 C 0.19173 0.44516 0.47068 0.0
N562 N 0.29556 0.4233 0.53167 0.0
N563 N 0.20659 0.43943 0.49504 0.0
H564 H 0.05366 0.2663 0.92674 0.0
H565 H 0.05099 0.22568 0.08204 0.0
H566 H 0.04836 0.15502 0.96089 0.0
H567 H 0.0539 0.33703 0.0479 0.0
H568 H 0.06195 0.19891 0.03803 0.0
H569 H 0.06536 0.29235 0.97088 0.0
C570 C 0.05564 0.24729 0.94341 0.0
C571 C 0.04947 0.20851 0.94017 0.0
C572 C 0.06081 0.22925 0.04025 0.0
C573 C 0.06245 0.23805 0.99074 0.0
C574 C 0.05482 0.24452 0.06542 0.0
C575 C 0.051 0.2836 0.06858 0.0
C576 C 0.06294 0.25326 0.01815 0.0
C577 C 0.05606 0.30667 0.0463 0.0
C578 C 0.06217 0.26216 0.96865 0.0
C579 C 0.05235 0.18519 0.96252 0.0
N580 N 0.06127 0.29118 0.02203 0.0
N581 N 0.05818 0.20033 0.98684 0.0
H582 H 0.19646 0.03857 0.43198 0.0
H583 H 0.29258 0.04216 0.56574 0.0
H584 H 0.31687 0.05329 0.43893 0.0
H585 H 0.17576 0.07338 0.55674 0.0
H586 H 0.30434 0.06091 0.52002 0.0
H587 H 0.18851 0.06533 0.4762 0.0
C588 C 0.22106 0.04899 0.44249 0.0
C589 C 0.25728 0.04398 0.43202 0.0
C590 C 0.27641 0.06519 0.52824 0.0
C591 C 0.24884 0.07271 0.48298 0.0
C592 C 0.26985 0.05481 0.55445 0.0
C593 C 0.23323 0.05634 0.56483 0.0
C594 C 0.24572 0.07568 0.51218 0.0
C595 C 0.20445 0.07199 0.54934 0.0
C596 C 0.21663 0.0641 0.46778 0.0
C597 C 0.28845 0.05705 0.44645 0.0
N598 N 0.21101 0.08002 0.52348 0.0
N599 N 0.28364 0.06992 0.47155 0.0
H600 H 0.56991 0.84887 0.96287 0.0
H601 H 0.54421 0.66089 0.04628 0.0
H602 H 0.5547 0.73888 0.92794 0.0
H603 H 0.56066 0.77058 0.08143 0.0
H604 H 0.55834 0.68749 1.00301 0.0
H605 H 0.57764 0.81941 0.00606 0.0
C606 C 0.5689 0.81841 0.96421 0.0
C607 C 0.56112 0.79633 0.94181 0.0
C608 C 0.55932 0.70572 0.02018 0.0
C609 C 0.5694 0.76241 0.99135 0.0
C610 C 0.55117 0.69057 0.04494 0.0
C611 C 0.55069 0.71369 0.06748 0.0
C612 C 0.56674 0.74442 0.0178 0.0
C613 C 0.56046 0.75178 0.06457 0.0
C614 C 0.57324 0.80161 0.98892 0.0
C615 C 0.56052 0.75702 0.94468 0.0
N616 N 0.56758 0.76608 0.04011 0.0
N617 N 0.56394 0.74134 0.96909 0.0
H618 H 0.76697 0.56035 0.43116 0.0
H619 H 0.71279 0.54804 0.58304 0.0
H620 H 0.65308 0.56009 0.46162 0.0
H621 H 0.82622 0.53807 0.55306 0.0
H622 H 0.69243 0.57245 0.54002 0.0
H623 H 0.79063 0.57102 0.47614 0.0
C624 C 0.74693 0.56346 0.44719 0.0
C625 C 0.7081 0.55854 0.44278 0.0
C626 C 0.72206 0.56614 0.54306 0.0
C627 C 0.7348 0.57047 0.49419 0.0
C628 C 0.73369 0.55275 0.56774 0.0
C629 C 0.77117 0.54139 0.57145 0.0
C630 C 0.74807 0.5674 0.52198 0.0
C631 C 0.79708 0.54689 0.55086 0.0
C632 C 0.76041 0.56942 0.47288 0.0
C633 C 0.68334 0.5629 0.46426 0.0
N634 N 0.78494 0.55884 0.52682 0.0
N635 N 0.69711 0.56805 0.48904 0.0
H636 H 0.9552 0.7218 0.07621 0.0
H637 H 0.95997 0.77342 0.92503 0.0
H638 H 0.926 0.83338 0.04933 0.0
H639 H 0.92853 0.66195 0.95102 0.0
H640 H 0.95247 0.79633 0.97045 0.0
H641 H 0.95057 0.699 0.03055 0.0
C642 C 0.94747 0.74141 0.06075 0.0
C643 C 0.94091 0.77953 0.06658 0.0
C644 C 0.94672 0.76698 0.96611 0.0
C645 C 0.93634 0.7538 0.01432 0.0
C646 C 0.95103 0.75388 0.94022 0.0
C647 C 0.94476 0.71575 0.93422 0.0
C648 C 0.93705 0.74157 0.98627 0.0
C649 C 0.93335 0.69163 0.95473 0.0
C650 C 0.94474 0.72836 0.03474 0.0
C651 C 0.93104 0.80372 0.04574 0.0
N652 N 0.93045 0.7048 0.97992 0.0
N653 N 0.92961 0.79058 0.02048 0.0
H654 H 0.72553 0.95634 0.41538 0.0
H655 H 0.76149 0.94609 0.57155 0.0
H656 H 0.8345 0.97112 0.45234 0.0
H657 H 0.65104 0.94315 0.53545 0.0
H658 H 0.79005 0.94159 0.52749 0.0
H659 H 0.69915 0.93845 0.45846 0.0
C660 C 0.74402 0.95518 0.43242 0.0
C661 C 0.78213 0.96576 0.43033 0.0
C662 C 0.75954 0.94125 0.52925 0.0
C663 C 0.75222 0.94554 0.47965 0.0
C664 C 0.74326 0.94348 0.55444 0.0
C665 C 0.70385 0.94545 0.55714 0.0
C666 C 0.73621 0.94094 0.50667 0.0
C667 C 0.68159 0.94223 0.53423 0.0
C668 C 0.72896 0.94512 0.45705 0.0
C669 C 0.8048 0.96377 0.45311 0.0
N670 N 0.69803 0.94061 0.50999 0.0
N671 N 0.78947 0.95428 0.4768 0.0
H672 H 0.51309 0.84968 0.11025 0.0
H673 H 0.53336 0.05798 0.16965 0.0
H674 H 0.52182 0.87303 0.19358 0.0
H675 H 0.47184 0.03358 0.09813 0.0
H676 H 0.54777 0.99055 0.1742 0.0
H677 H 0.51627 0.91784 0.10131 0.0
C678 C 0.51646 0.8692 0.12655 0.0
C679 C 0.51683 0.85608 0.15266 0.0
C680 C 0.53161 0.00011 0.15731 0.0
C681 C 0.5208 0.93334 0.14273 0.0
C682 C 0.52363 0.03847 0.15464 0.0
C683 C 0.50116 0.05105 0.13362 0.0
C684 C 0.51753 0.97444 0.13857 0.0
C685 C 0.48888 0.02472 0.11477 0.0
C686 C 0.51806 0.9079 0.12151 0.0
C687 C 0.52097 0.88229 0.17322 0.0
N688 N 0.4971 0.98757 0.11772 0.0
N689 N 0.52271 0.91974 0.16784 0.0
H690 H 0.63798 0.50364 0.70501 0.0
H691 H 0.4772 0.50909 0.59401 0.0
H692 H 0.66153 0.51528 0.62181 0.0
H693 H 0.45342 0.5146 0.67766 0.0
H694 H 0.54455 0.51119 0.60383 0.0
H695 H 0.57029 0.5078 0.69548 0.0
C696 C 0.62889 0.50735 0.68475 0.0
C697 C 0.65551 0.50903 0.66419 0.0
C698 C 0.52458 0.51207 0.62003 0.0
C699 C 0.57792 0.51356 0.65306 0.0
C700 C 0.48591 0.511 0.61445 0.0
C701 C 0.4591 0.51172 0.63498 0.0
C702 C 0.53689 0.51364 0.64639 0.0
C703 C 0.47268 0.51349 0.6611 0.0
C704 C 0.59024 0.50977 0.67931 0.0
C705 C 0.64213 0.51422 0.63831 0.0
N706 N 0.51051 0.5143 0.66602 0.0
N707 N 0.6043 0.51596 0.63347 0.0
H708 H 0.05241 0.46552 0.11032 0.0
H709 H 0.9439 0.62746 0.18857 0.0
H710 H 0.96662 0.44242 0.16861 0.0
H711 H 0.01208 0.64845 0.1195 0.0
H712 H 0.95037 0.55964 0.18103 0.0
H713 H 0.03688 0.53251 0.11273 0.0
C714 C 0.0302 0.4746 0.12358 0.0
C715 C 0.01101 0.44842 0.13947 0.0
C716 C 0.96359 0.57905 0.16734 0.0
C717 C 0.99303 0.52517 0.14239 0.0
C718 C 0.96003 0.61775 0.17171 0.0
C719 C 0.97768 0.64364 0.15474 0.0
C720 C 0.98538 0.56604 0.14602 0.0
C721 C 0.99782 0.62954 0.13298 0.0
C722 C 0.02118 0.51282 0.12485 0.0
C723 C 0.98201 0.46163 0.15597 0.0
N724 N 0.00149 0.59171 0.12942 0.0
N725 N 0.97419 0.49915 0.15724 0.0
H726 H 0.83672 0.99124 0.60416 0.0
H727 H 0.04489 0.9976 0.66689 0.0
H728 H 0.85731 0.99041 0.68811 0.0
H729 H 0.01921 0.03212 0.58704 0.0
H730 H 0.97729 0.98747 0.67455 0.0
H731 H 0.90514 0.9965 0.59661 0.0
C732 C 0.85571 0.99155 0.62095 0.0
C733 C 0.84142 0.99065 0.64677 0.0
C734 C 0.98662 0.99722 0.65535 0.0
C735 C 0.91946 0.99699 0.63842 0.0
C736 C 0.02525 0.0033 0.65101 0.0
C737 C 0.03818 0.0155 0.62618 0.0
C738 C 0.96069 0.00308 0.63469 0.0
C739 C 0.01103 0.02196 0.60633 0.0
C740 C 0.89466 0.99493 0.61669 0.0
C741 C 0.86722 0.99152 0.6679 0.0
N742 N 0.97376 0.0155 0.61098 0.0
N743 N 0.90494 0.99471 0.66328 0.0
H744 H 0.4892 0.63908 0.82133 0.0
H745 H 0.5336 0.47791 0.92615 0.0
H746 H 0.52983 0.66264 0.89997 0.0
H747 H 0.5193 0.4563 0.8426 0.0
H748 H 0.5312 0.54508 0.91732 0.0
H749 H 0.4987 0.57184 0.82912 0.0
C750 C 0.50018 0.63005 0.84026 0.0
C751 C 0.50847 0.65646 0.86012 0.0
C752 C 0.52879 0.52558 0.90093 0.0
C753 C 0.5194 0.57937 0.86923 0.0
C754 C 0.53023 0.4869 0.9059 0.0
C755 C 0.52651 0.46063 0.88515 0.0
C756 C 0.52322 0.53847 0.87504 0.0
C757 C 0.52178 0.4749 0.85942 0.0
C758 C 0.50579 0.59166 0.84465 0.0
C759 C 0.52324 0.64322 0.88411 0.0
N760 N 0.52006 0.51272 0.85516 0.0
N761 N 0.52788 0.60555 0.88811 0.0
H762 H 0.8448 0.50903 0.40061 0.0
H763 H 0.05528 0.51641 0.34213 0.0
H764 H 0.87048 0.52605 0.31827 0.0
H765 H 0.02696 0.45991 0.4149 0.0
H766 H 0.98894 0.53484 0.33718 0.0
H767 H 0.91303 0.50573 0.41008 0.0
C768 C 0.86488 0.51284 0.38468 0.0
C769 C 0.85227 0.51749 0.35862 0.0
C770 C 0.99735 0.51873 0.35437 0.0
C771 C 0.92975 0.5138 0.36916 0.0
C772 C 0.03521 0.50841 0.35727 0.0
C773 C 0.04651 0.48631 0.37883 0.0
C774 C 0.97069 0.50722 0.3733 0.0
C775 C 0.01923 0.47644 0.39778 0.0
C776 C 0.90365 0.51069 0.39001 0.0
C777 C 0.87925 0.52198 0.33856 0.0
N778 N 0.98253 0.48684 0.39454 0.0
N779 N 0.9167 0.5199 0.34421 0.0
H780 H 0.98523 0.05121 0.83056 0.0
H781 H 0.02035 0.84406 0.88797 0.0
H782 H 0.06209 0.02808 0.89465 0.0
H783 H 0.97897 0.86472 0.80918 0.0
H784 H 0.02471 0.9123 0.8952 0.0
H785 H 0.97203 0.98356 0.82682 0.0
C786 C 0.99902 0.03191 0.844 0.0
C787 C 0.02494 0.04518 0.86285 0.0
C788 C 0.01437 0.90186 0.87642 0.0
C789 C 0.00994 0.96794 0.85876 0.0
C790 C 0.01154 0.86299 0.87238 0.0
C791 C 0.99937 0.84884 0.84791 0.0
C792 C 0.00449 0.92669 0.85595 0.0
C793 C 0.98881 0.87459 0.82822 0.0
C794 C 0.99166 0.99335 0.84177 0.0
C795 C 0.04232 0.01891 0.87963 0.0
N796 N 0.99164 0.91228 0.83265 0.0
N797 N 0.03447 0.98154 0.87722 0.0
H798 H 0.4641 0.0067 0.41247 0.0
H799 H 0.62514 0.01562 0.30245 0.0
H800 H 0.44103 0.99625 0.32892 0.0
H801 H 0.64871 0.99939 0.38526 0.0
H802 H 0.5575 0.01095 0.31175 0.0
H803 H 0.53147 0.00683 0.40292 0.0
C804 C 0.47298 0.00417 0.3921 0.0
C805 C 0.44639 0.00119 0.37151 0.0
C806 C 0.57742 0.00817 0.32789 0.0
C807 C 0.52414 0.00195 0.36044 0.0
C808 C 0.61601 0.01098 0.32261 0.0
C809 C 0.64254 0.00812 0.34315 0.0
C810 C 0.5651 0.00288 0.35399 0.0
C811 C 0.62921 0.00153 0.36885 0.0
C812 C 0.51165 0.00436 0.38668 0.0
C813 C 0.46013 0.99893 0.34548 0.0
N814 N 0.59138 0.99949 0.37358 0.0
N815 N 0.49799 0.99942 0.34072 0.0
H816 H 0.44658 0.14206 0.83311 0.0
H817 H 0.56981 0.97906 0.89862 0.0
H818 H 0.53032 0.16278 0.89333 0.0
H819 H 0.4744 0.9575 0.84769 0.0
H820 H 0.55422 0.04613 0.8984 0.0
H821 H 0.45422 0.07428 0.83978 0.0
C822 C 0.46637 0.13226 0.8479 0.0
C823 C 0.48806 0.15804 0.86254 0.0
C824 C 0.53648 0.02673 0.88743 0.0
C825 C 0.49721 0.08044 0.87021 0.0
C826 C 0.54553 0.98845 0.88741 0.0
C827 C 0.5236 0.96266 0.87292 0.0
C828 C 0.50545 0.03951 0.87265 0.0
C829 C 0.492 0.97633 0.85919 0.0
C830 C 0.47066 0.09358 0.85177 0.0
C831 C 0.51292 0.14389 0.88172 0.0
N832 N 0.48411 0.01386 0.85917 0.0
N833 N 0.51717 0.10602 0.88477 0.0
H834 H 0.36864 0.45607 0.31853 0.0
H835 H 0.5271 0.55645 0.40423 0.0
H836 H 0.34611 0.50087 0.39609 0.0
H837 H 0.553 0.48132 0.33972 0.0
H838 H 0.46082 0.53664 0.40191 0.0
H839 H 0.43643 0.46442 0.32617 0.0
C840 C 0.37816 0.46726 0.33732 0.0
C841 C 0.35193 0.47796 0.35668 0.0
C842 C 0.48108 0.52418 0.38845 0.0
C843 C 0.4293 0.48821 0.36547 0.0
C844 C 0.51881 0.53568 0.38964 0.0
C845 C 0.5455 0.52071 0.37199 0.0
C846 C 0.4698 0.49793 0.36921 0.0
C847 C 0.5334 0.49344 0.35375 0.0
C848 C 0.41679 0.47196 0.34171 0.0
C849 C 0.36554 0.49211 0.38076 0.0
N850 N 0.49635 0.48327 0.35261 0.0
N851 N 0.40335 0.4974 0.38434 0.0
H852 H 0.98347 0.36801 0.81749 0.0
H853 H 0.02059 0.53132 0.9226 0.0
H854 H 0.02016 0.34579 0.8972 0.0
H855 H 0.01166 0.55118 0.83853 0.0
H856 H 0.01829 0.46387 0.91425 0.0
H857 H 0.99136 0.43546 0.82537 0.0
C858 C 0.99322 0.37739 0.83668 0.0
C859 C 1.00091 0.35128 0.85679 0.0
C860 C 0.01701 0.48307 0.89765 0.0
C861 C 0.00998 0.42865 0.86602 0.0
C862 C 0.0184 0.52186 0.90235 0.0
C863 C 0.01634 0.5477 0.88128 0.0
C864 C 0.01313 0.46967 0.87171 0.0
C865 C 0.01293 0.53293 0.85556 0.0
C866 C 0.99791 0.41591 0.84113 0.0
C867 C 0.01409 0.36497 0.88115 0.0
N868 N 0.01127 0.49504 0.85156 0.0
N869 N 0.01787 0.40277 0.88518 0.0
H870 H 0.94261 0.03351 0.31999 0.0
H871 H 0.1511 0.01487 0.38005 0.0
H872 H 0.96745 0.97742 0.39343 0.0
H873 H 0.12984 0.02572 0.2965 0.0
H874 H 0.08291 0.01709 0.3882 0.0
H875 H 0.0105 0.0462 0.31413 0.0
C876 C 0.96234 0.02447 0.33505 0.0
C877 C 0.94966 0.0042 0.35713 0.0
C878 C 0.09323 0.01947 0.36811 0.0
C879 C 0.02681 0.01867 0.3507 0.0
C880 C 0.13211 0.01855 0.36347 0.0
C881 C 0.14605 0.01997 0.33753 0.0
C882 C 0.06813 0.02226 0.34669 0.0
C883 C 0.12011 0.02417 0.31674 0.0
C884 C 1.00096 0.03147 0.33165 0.0
C885 C 0.97628 0.99274 0.37601 0.0
N886 N 0.08234 0.02504 0.32174 0.0
N887 N 0.01361 0.00011 0.37237 0.0
H888 H 0.50749 0.3506 0.1128 0.0
H889 H 0.48871 0.55669 0.1759 0.0
H890 H 0.48849 0.3706 0.19572 0.0
H891 H 0.55375 0.53406 0.10562 0.0
H892 H 0.47324 0.48944 0.17893 0.0
H893 H 0.50913 0.41918 0.10546 0.0
C894 C 0.5029 0.36952 0.1293 0.0
C895 C 0.49812 0.35527 0.15491 0.0
C896 C 0.49062 0.49931 0.16273 0.0
C897 C 0.49984 0.43302 0.14678 0.0
C898 C 0.49928 0.5376 0.16093 0.0
C899 C 0.5228 0.55074 0.14063 0.0
C900 C 0.50515 0.47414 0.14386 0.0
C901 C 0.53601 0.52485 0.1218 0.0
C902 C 0.50411 0.40845 0.12518 0.0
C903 C 0.49263 0.38072 0.17576 0.0
N904 N 0.52705 0.48771 0.12387 0.0
N905 N 0.49372 0.4184 0.17127 0.0
H906 H 0.13906 0.47304 0.70375 0.0
H907 H 0.97676 0.51954 0.59859 0.0
H908 H 0.16056 0.5069 0.62328 0.0
H909 H 0.95309 0.47609 0.67644 0.0
H910 H 0.04408 0.51724 0.60825 0.0
H911 H 0.07112 0.47534 0.69491 0.0
C912 C 0.12952 0.48095 0.68421 0.0
C913 C 0.15567 0.48992 0.66426 0.0
C914 C 0.02427 0.50819 0.62328 0.0
C915 C 0.07777 0.49259 0.65399 0.0
C916 C 0.98571 0.50939 0.61775 0.0
C917 C 0.9591 0.49754 0.63661 0.0
C918 C 0.03667 0.49512 0.64795 0.0
C919 C 0.97252 0.48561 0.66135 0.0
C920 C 0.09069 0.48215 0.67917 0.0
C921 C 0.1416 0.4994 0.6392 0.0
N922 N 0.0104 0.48453 0.66627 0.0
N923 N 0.10367 0.50066 0.63484 0.0
H924 H 0.01643 0.96129 0.08555 0.0
H925 H 0.98556 0.12487 0.19175 0.0
H926 H 0.00512 0.94122 0.16938 0.0
H927 H 0.01716 0.14691 0.11096 0.0
H928 H 0.99207 0.05742 0.18361 0.0
H929 H 0.01619 0.02889 0.09407 0.0
C930 C 0.01416 0.97086 0.10578 0.0
C931 C 0.01077 0.94503 0.12676 0.0
C932 C 0.99782 0.0769 0.16765 0.0
C933 C 0.00997 0.023 0.13655 0.0
C934 C 0.99395 0.11545 0.17227 0.0
C935 C 1.00053 0.14152 0.15193 0.0
C936 C 0.00801 0.06408 0.14239 0.0
C937 C 0.01198 0.12775 0.12719 0.0
C938 C 0.01391 0.00965 0.11059 0.0
C939 C 0.00727 0.95967 0.15247 0.0
N940 N 0.01501 0.08992 0.12302 0.0
N941 N 0.00685 0.99756 0.1566 0.0
H942 H 0.35833 0.02494 0.69921 0.0
H943 H 0.51354 0.95445 0.59784 0.0
H944 H 0.33467 0.01027 0.61628 0.0
H945 H 0.5439 0.01306 0.66941 0.0
H946 H 0.44726 0.97161 0.60513 0.0
H947 H 0.42613 0.01829 0.68985 0.0
C948 C 0.36752 0.02075 0.67901 0.0
C949 C 0.34094 0.01823 0.6585 0.0
C950 C 0.46845 0.98104 0.61912 0.0
C951 C 0.41814 0.00991 0.64768 0.0
C952 C 0.50617 0.97107 0.61503 0.0
C953 C 0.53412 0.9823 0.63307 0.0
C954 C 0.45843 0.00175 0.64172 0.0
C955 C 0.5232 0.00409 0.65495 0.0
C956 C 0.40612 0.01705 0.67367 0.0
C957 C 0.35424 0.01281 0.63263 0.0
N958 N 0.48611 0.01271 0.65886 0.0
N959 N 0.39185 0.00831 0.62801 0.0
H960 H 0.8579 0.22165 0.1011 0.0
H961 H 0.64256 0.28939 0.10475 0.0
H962 H 0.82469 0.33718 0.11426 0.0
H963 H 0.67705 0.17307 0.11035 0.0
H964 H 0.70883 0.30788 0.10003 0.0
H965 H 0.79155 0.20434 0.09614 0.0
C966 C 0.83668 0.24355 0.10245 0.0
C967 C 0.84687 0.28098 0.10808 0.0
C968 C 0.70186 0.27829 0.10204 0.0
C969 C 0.77071 0.26111 0.10288 0.0
C970 C 0.66404 0.26767 0.10452 0.0
C971 C 0.65434 0.2296 0.10799 0.0
C972 C 0.73016 0.25064 0.10292 0.0
C973 C 0.68337 0.20273 0.10797 0.0
C974 C 0.79877 0.23354 0.09986 0.0
C975 C 0.81804 0.30796 0.11015 0.0
N976 N 0.72 0.21378 0.10557 0.0
N977 N 0.78122 0.29747 0.10765 0.0
H978 H 0.22793 0.65752 0.66019 0.0
H979 H 0.2414 0.85063 0.58105 0.0
H980 H 0.2737 0.66383 0.58137 0.0
H981 H 0.17735 0.83568 0.65291 0.0
H982 H 0.25229 0.78241 0.57951 0.0
H983 H 0.20724 0.72278 0.65662 0.0
C984 C 0.23335 0.67278 0.64204 0.0
C985 C 0.25277 0.65569 0.62112 0.0
C986 C 0.23546 0.7941 0.5954 0.0
C987 C 0.22956 0.73042 0.61689 0.0
C988 C 0.22945 0.83298 0.59638 0.0
C989 C 0.2085 0.84883 0.61716 0.0
C990 C 0.22075 0.77111 0.61551 0.0
C991 C 0.1933 0.82469 0.63636 0.0
C992 C 0.22148 0.70996 0.63994 0.0
C993 C 0.2588 0.67628 0.59789 0.0
N994 N 0.19999 0.78714 0.63516 0.0
N995 N 0.24764 0.71291 0.59648 0.0
H996 H 0.84993 0.1918 0.93584 0.0
H997 H 0.65054 0.20533 0.86257 0.0
H998 H 0.83233 0.18497 0.85136 0.0
H999 H 0.67011 0.25947 0.93769 0.0
H1000 H 0.71439 0.17964 0.86393 0.0
H1001 H 0.78166 0.20143 0.94152 0.0
C1002 C 0.83196 0.19194 0.91853 0.0
C1003 C 0.84734 0.1874 0.89305 0.0
C1004 C 0.70465 0.19678 0.88029 0.0
C1005 C 0.76935 0.19729 0.89963 0.0
C1006 C 0.66828 0.21139 0.87952 0.0
C1007 C 0.65557 0.23515 0.89977 0.0
C1008 C 0.72865 0.20614 0.90138 0.0
C1009 C 0.67921 0.2415 0.9216 0.0
C1010 C 0.79302 0.19719 0.92187 0.0
C1011 C 0.82228 0.18727 0.87147 0.0
N1012 N 0.71507 0.22753 0.92168 0.0
N1013 N 0.78475 0.19216 0.87529 0.0
H1014 H 0.30344 0.81466 0.3508 0.0
H1015 H 0.16247 0.65649 0.39472 0.0
H1016 H 0.21774 0.83976 0.40921 0.0
H1017 H 0.28074 0.63287 0.38263 0.0
H1018 H 0.17702 0.7244 0.39479 0.0
H1019 H 0.29077 0.74788 0.35668 0.0
C1020 C 0.28232 0.8064 0.36514 0.0
C1021 C 0.26196 0.83338 0.37972 0.0
C1022 C 0.19974 0.70423 0.39244 0.0
C1023 C 0.24637 0.75651 0.38558 0.0
C1024 C 0.19148 0.66572 0.39234 0.0
C1025 C 0.22055 0.63939 0.38881 0.0
C1026 C 0.23708 0.71617 0.38818 0.0
C1027 C 0.25768 0.65245 0.38565 0.0
C1028 C 0.27497 0.76813 0.36829 0.0
C1029 C 0.23387 0.82033 0.3972 0.0
N1030 N 0.26486 0.69003 0.38504 0.0
N1031 N 0.22664 0.78281 0.39947 0.0
H1032 H 0.18752 0.69101 0.90749 0.0
H1033 H 0.33499 0.85976 0.89579 0.0
H1034 H 0.15339 0.80712 0.8998 0.0
H1035 H 0.36556 0.74544 0.91549 0.0
H1036 H 0.26817 0.8426 0.90038 0.0
H1037 H 0.25277 0.71162 0.91385 0.0
C1038 C 0.19382 0.7209 0.90738 0.0
C1039 C 0.1652 0.7474 0.90291 0.0
C1040 C 0.28957 0.82147 0.9041 0.0
C1041 C 0.23981 0.7713 0.90993 0.0
C1042 C 0.32767 0.83122 0.9014 0.0
C1043 C 0.35594 0.804 0.90519 0.0
C1044 C 0.27971 0.78414 0.91035 0.0
C1045 C 0.34487 0.76751 0.91266 0.0
C1046 C 0.23102 0.7327 0.91109 0.0
C1047 C 0.1747 0.78582 0.90326 0.0
N1048 N 0.30768 0.75859 0.9147 0.0
N1049 N 0.21134 0.79664 0.90634 0.0
H1050 H 0.77588 0.17074 0.41984 0.0
H1051 H 0.72517 0.35602 0.33717 0.0
H1052 H 0.77348 0.17747 0.33464 0.0
H1053 H 0.71387 0.35096 0.42207 0.0
H1054 H 0.745 0.29071 0.33682 0.0
H1055 H 0.75549 0.23683 0.42205 0.0
C1056 C 0.77124 0.18608 0.40164 0.0
C1057 C 0.7769 0.16857 0.37702 0.0
C1058 C 0.73801 0.30365 0.35558 0.0
C1059 C 0.75363 0.24393 0.37942 0.0
C1060 C 0.72627 0.341 0.35578 0.0
C1061 C 0.71716 0.35897 0.37967 0.0
C1062 C 0.74105 0.2838 0.37945 0.0
C1063 C 0.72059 0.33823 0.4032 0.0
C1064 C 0.75966 0.22376 0.40292 0.0
C1065 C 0.77051 0.18986 0.35408 0.0
N1066 N 0.73224 0.30166 0.40252 0.0
N1067 N 0.75927 0.22626 0.35588 0.0
H1068 H 0.34362 0.70843 0.17165 0.0
H1069 H 0.16221 0.74907 0.08289 0.0
H1070 H 0.34733 0.70096 0.08645 0.0
H1071 H 0.15942 0.73012 0.1671 0.0
H1072 H 0.22946 0.73156 0.08269 0.0
H1073 H 0.27585 0.71704 0.16948 0.0
C1074 C 0.33019 0.70793 0.15242 0.0
C1075 C 0.35144 0.7034 0.1292 0.0
C1076 C 0.21395 0.73103 0.10113 0.0
C1077 C 0.27316 0.71454 0.12656 0.0
C1078 C 0.17561 0.74086 0.10125 0.0
C1079 C 0.15538 0.74167 0.12513 0.0
C1080 C 0.23197 0.72202 0.12507 0.0
C1081 C 0.17412 0.73085 0.14834 0.0
C1082 C 0.2913 0.71319 0.1512 0.0
C1083 C 0.3322 0.70453 0.10487 0.0
N1084 N 0.2113 0.72179 0.14774 0.0
N1085 N 0.29411 0.71014 0.10416 0.0
H1086 H 0.77153 0.12784 0.61365 0.0
H1087 H 0.72649 0.34208 0.58385 0.0
H1088 H 0.6567 0.16462 0.60138 0.0
H1089 H 0.8079 0.30796 0.643 0.0
H1090 H 0.70724 0.27619 0.57907 0.0
H1091 H 0.79247 0.19365 0.61256 0.0
C1092 C 0.75087 0.14985 0.61028 0.0
C1093 C 0.71241 0.14112 0.60753 0.0
C1094 C 0.72949 0.28344 0.59289 0.0
C1095 C 0.7361 0.21587 0.60615 0.0
C1096 C 0.74042 0.32101 0.59583 0.0
C1097 C 0.76878 0.33103 0.61408 0.0
C1098 C 0.7477 0.25562 0.60776 0.0
C1099 C 0.78645 0.30198 0.62835 0.0
C1100 C 0.76277 0.18721 0.60982 0.0
C1101 C 0.68658 0.17049 0.60359 0.0
N1102 N 0.77567 0.26562 0.62482 0.0
N1103 N 0.69893 0.2068 0.60292 0.0
H1104 H 0.35168 0.11214 0.33203 0.0
H1105 H 0.38198 0.17095 0.18095 0.0
H1106 H 0.29893 0.05719 0.26548 0.0
H1107 H 0.45859 0.19978 0.24418 0.0
H1108 H 0.33765 0.14548 0.21372 0.0
H1109 H 0.37728 0.16014 0.30184 0.0
C1110 C 0.34475 0.11078 0.3112 0.0
C1111 C 0.32383 0.08049 0.30105 0.0
C1112 C 0.36384 0.15813 0.22042 0.0
C1113 C 0.35264 0.13483 0.26666 0.0
C1114 C 0.38898 0.17282 0.20176 0.0
C1115 C 0.42417 0.18678 0.20992 0.0
C1116 C 0.37402 0.15773 0.24731 0.0
C1117 C 0.43197 0.18856 0.23709 0.0
C1118 C 0.35943 0.13797 0.29399 0.0
C1119 C 0.31559 0.07982 0.27394 0.0
N1120 N 0.40731 0.17374 0.25482 0.0
N1121 N 0.33031 0.10634 0.25763 0.0
H1122 H 0.47933 0.32674 0.77879 0.0
H1123 H 0.31528 0.46462 0.74152 0.0
H1124 H 0.40109 0.36931 0.83696 0.0
H1125 H 0.37214 0.39596 0.68357 0.0
H1126 H 0.3413 0.42537 0.77662 0.0
H1127 H 0.43684 0.34705 0.74381 0.0
C1128 C 0.45298 0.34025 0.78419 0.0
C1129 C 0.44395 0.34709 0.81077 0.0
C1130 C 0.34754 0.41829 0.75626 0.0
C1131 C 0.39518 0.37059 0.77071 0.0
C1132 C 0.33277 0.44071 0.73623 0.0
C1133 C 0.34208 0.43362 0.70976 0.0
C1134 C 0.37259 0.38914 0.74978 0.0
C1135 C 0.36445 0.40227 0.70381 0.0
C1136 C 0.42858 0.35155 0.76418 0.0
C1137 C 0.40918 0.3639 0.81668 0.0
N1138 N 0.37969 0.38156 0.72377 0.0
N1139 N 0.38628 0.37577 0.79672 0.0
H1140 H 0.20609 0.42137 0.27497 0.0
H1141 H 0.046 0.27391 0.24609 0.0
H1142 H 0.15022 0.35896 0.33665 0.0
H1143 H 0.11811 0.31976 0.18536 0.0
H1144 H 0.09043 0.29609 0.2796 0.0
H1145 H 0.18212 0.37657 0.2424 0.0
C1146 C 0.18951 0.39751 0.28168 0.0
C1147 C 0.17989 0.39381 0.30842 0.0
C1148 C 0.09705 0.30064 0.25896 0.0
C1149 C 0.15121 0.34308 0.27117 0.0
C1150 C 0.07166 0.28799 0.23979 0.0
C1151 C 0.07813 0.29552 0.21293 0.0
C1152 C 0.12885 0.32165 0.25127 0.0
C1153 C 0.11194 0.31352 0.20585 0.0
C1154 C 0.17573 0.37198 0.26307 0.0
C1155 C 0.15834 0.36259 0.31618 0.0
N1156 N 0.13566 0.32669 0.22495 0.0
N1157 N 0.14395 0.33882 0.29752 0.0
H1158 H 0.1221 0.17584 0.82368 0.0
H1159 H 0.14446 0.13383 0.66931 0.0
H1160 H 0.053 0.22649 0.76315 0.0
H1161 H 0.19142 0.06613 0.7319 0.0
H1162 H 0.1259 0.18134 0.70238 0.0
H1163 H 0.16329 0.15008 0.7892 0.0
C1164 C 0.11631 0.18257 0.8032 0.0
C1165 C 0.08377 0.20272 0.79619 0.0
C1166 C 0.141 0.15642 0.70874 0.0
C1167 C 0.13021 0.1729 0.75671 0.0
C1168 C 0.15167 0.12948 0.68989 0.0
C1169 C 0.16882 0.09588 0.69805 0.0
C1170 C 0.14799 0.14965 0.73574 0.0
C1171 C 0.17755 0.09142 0.72491 0.0
C1172 C 0.13961 0.1676 0.78349 0.0
C1173 C 0.07751 0.2105 0.76933 0.0
N1174 N 0.16673 0.11776 0.74281 0.0
N1175 N 0.10012 0.19506 0.75053 0.0
H1176 H 0.70644 0.93294 0.73264 0.0
H1177 H 0.55292 0.78096 0.76522 0.0
H1178 H 0.65117 0.86676 0.67248 0.0
H1179 H 0.62497 0.83109 0.82442 0.0
H1180 H 0.59611 0.80291 0.73092 0.0
H1181 H 0.68563 0.88787 0.76597 0.0
C1182 C 0.69061 0.90831 0.72642 0.0
C1183 C 0.6801 0.90366 0.6999 0.0
C1184 C 0.60303 0.80843 0.75141 0.0
C1185 C 0.65519 0.85246 0.73801 0.0
C1186 C 0.57835 0.79589 0.77103 0.0
C1187 C 0.58506 0.80482 0.79765 0.0
C1188 C 0.63429 0.83072 0.75843 0.0
C1189 C 0.61858 0.82385 0.80411 0.0
C1190 C 0.67869 0.88257 0.74545 0.0
C1191 C 0.65979 0.87128 0.69277 0.0
N1192 N 0.64153 0.83691 0.78457 0.0
N1193 N 0.64719 0.8473 0.71185 0.0
H1194 H 0.57606 0.73518 0.24091 0.0
H1195 H 0.72303 0.57509 0.26845 0.0
H1196 H 0.63543 0.6751 0.17959 0.0
H1197 H 0.67082 0.64139 0.3298 0.0
H1198 H 0.70395 0.62197 0.23591 0.0
H1199 H 0.62226 0.71304 0.27312 0.0
C1200 C 0.59953 0.71811 0.23413 0.0
C1201 C 0.60167 0.70638 0.20769 0.0
C1202 C 0.69735 0.62686 0.25653 0.0
C1203 C 0.65407 0.68003 0.24455 0.0
C1204 C 0.70827 0.60009 0.27513 0.0
C1205 C 0.69786 0.60417 0.30172 0.0
C1206 C 0.67505 0.65753 0.26449 0.0
C1207 C 0.67917 0.63717 0.30943 0.0
C1208 C 0.62587 0.70538 0.25255 0.0
C1209 C 0.63271 0.6846 0.19984 0.0
N1210 N 0.66753 0.66221 0.29076 0.0
N1211 N 0.65723 0.67132 0.21835 0.0
H1212 H 0.81004 0.53757 0.74168 0.0
H1213 H 0.97703 0.67875 0.76935 0.0
H1214 H 0.86592 0.59918 0.67952 0.0
H1215 H 0.90108 0.64187 0.83077 0.0
H1216 H 0.93353 0.65418 0.73615 0.0
H1217 H 0.83876 0.57943 0.77433 0.0
C1218 C 0.82789 0.56045 0.7349 0.0
C1219 C 0.83595 0.5648 0.70791 0.0
C1220 C 0.92597 0.65189 0.75683 0.0
C1221 C 0.86955 0.61239 0.74525 0.0
C1222 C 0.95089 0.66575 0.77582 0.0
C1223 C 0.9428 0.66185 0.80284 0.0
C1224 C 0.89296 0.6332 0.76485 0.0
C1225 C 0.90837 0.64529 0.81013 0.0
C1226 C 0.84424 0.58436 0.75356 0.0
C1227 C 0.859 0.59494 0.70015 0.0
N1228 N 0.88497 0.63091 0.79122 0.0
N1229 N 0.87563 0.61719 0.7188 0.0
H1230 H 0.94429 0.80884 0.23138 0.0
H1231 H 0.78554 0.96062 0.25325 0.0
H1232 H 0.88249 0.85822 0.16671 0.0
H1233 H 0.83149 0.89318 0.31634 0.0
H1234 H 0.81356 0.91767 0.22103 0.0
H1235 H 0.89742 0.83319 0.26221 0.0
C1236 C 0.92044 0.8245 0.22366 0.0
C1237 C 0.91743 0.83201 0.19653 0.0
C1238 C 0.81687 0.91169 0.24188 0.0
C1239 C 0.86381 0.8606 0.23184 0.0
C1240 C 0.80083 0.93618 0.26031 0.0
C1241 C 0.80659 0.93062 0.28748 0.0
C1242 C 0.83949 0.88178 0.25068 0.0
C1243 C 0.8264 0.89848 0.29557 0.0
C1244 C 0.89359 0.83829 0.24129 0.0
C1245 C 0.88581 0.85196 0.18751 0.0
N1246 N 0.84283 0.87568 0.27722 0.0
N1247 N 0.86054 0.86626 0.20523 0.0
loop_
_geom_bond_atom_site_label_1
_geom_bond_atom_site_label_2
_geom_bond_distance
_geom_bond_site_symmetry_2
_ccdc_geom_bond_type
C0 C1 1.351 . S
C0 N3 1.368 . S
C0 H5 0.931 . S
C1 C0 1.351 . S
C1 N2 1.373 . S
C1 H29 0.930 . S
N2 C1 1.373 . S
N2 C4 1.340 . S
N3 C0 1.368 . S
N3 C4 1.321 . S
N3 Co6 2.135 . S
C4 N2 1.340 . S
C4 N3 1.321 . S
C4 H28 0.930 . S
H5 C0 0.931 . S
Co6 N3 2.135 . S
Co6 N9 2.121 . S
Co6 O14 2.055 . S
Co6 O17 2.039 . S
Co6 N20 2.140 . S
C7 O8 1.227 . S
C7 O17 1.265 . S
O8 C7 1.227 . S
N9 Co6 2.121 . S
N9 C11 1.375 . S
N9 C12 1.313 . S
C10 C11 1.338 . S
C10 N13 1.377 . S
C10 H30 0.930 . S
C11 N9 1.375 . S
C11 C10 1.338 . S
C11 H15 0.931 . S
C12 N9 1.313 . S
C12 N13 1.344 . S
C12 H16 0.930 . S
N13 C10 1.377 . S
N13 C12 1.344 . S
O14 Co6 2.055 . S
O14 C18 1.253 . S
H15 C11 0.931 . S
H16 C12 0.930 . S
O17 Co6 2.039 . S
O17 C7 1.265 . S
C18 O14 1.253 . S
C18 O19 1.227 . S
O19 C18 1.227 . S
N20 Co6 2.140 . S
N20 C23 1.346 . S
N20 C24 1.345 . S
C21 C22 1.387 . S
C21 C25 1.391 . S
C22 C21 1.387 . S
C22 C23 1.369 . S
C22 H31 0.929 . S
C23 N20 1.346 . S
C23 C22 1.369 . S
C23 H26 0.928 . S
C24 N20 1.345 . S
C24 C25 1.371 . S
C24 H27 0.931 . S
C25 C21 1.391 . S
C25 C24 1.371 . S
C25 H32 0.930 . S
H26 C23 0.928 . S
H27 C24 0.931 . S
H28 C4 0.930 . S
H29 C1 0.930 . S
H30 C10 0.930 . S
H31 C22 0.929 . S
H32 C25 0.930 . S
C33 C34 1.351 . S
C33 N36 1.368 . S
C33 H38 0.931 . S
C34 C33 1.351 . S
C34 N35 1.373 . S
C34 H62 0.930 . S
N35 C34 1.373 . S
N35 C37 1.340 . S
N36 C33 1.368 . S
N36 C37 1.321 . S
N36 Co39 2.135 . S
C37 N35 1.340 . S
C37 N36 1.321 . S
C37 H61 0.930 . S
H38 C33 0.931 . S
Co39 N36 2.135 . S
Co39 N42 2.121 . S
Co39 O47 2.055 . S
Co39 O50 2.039 . S
Co39 N53 2.140 . S
C40 O41 1.227 . S
C40 O50 1.265 . S
O41 C40 1.227 . S
N42 Co39 2.121 . S
N42 C44 1.375 . S
N42 C45 1.313 . S
C43 C44 1.338 . S
C43 N46 1.377 . S
C43 H63 0.930 . S
C44 N42 1.375 . S
C44 C43 1.338 . S
C44 H48 0.931 . S
C45 N42 1.313 . S
C45 N46 1.344 . S
C45 H49 0.930 . S
N46 C43 1.377 . S
N46 C45 1.344 . S
O47 Co39 2.055 . S
O47 C51 1.253 . S
H48 C44 0.931 . S
H49 C45 0.930 . S
O50 Co39 2.039 . S
O50 C40 1.265 . S
C51 O47 1.253 . S
C51 O52 1.227 . S
O52 C51 1.227 . S
N53 Co39 2.140 . S
N53 C56 1.346 . S
N53 C57 1.345 . S
C54 C55 1.387 . S
C54 C58 1.391 . S
C55 C54 1.387 . S
C55 C56 1.369 . S
C55 H64 0.929 . S
C56 N53 1.346 . S
C56 C55 1.369 . S
C56 H59 0.928 . S
C57 N53 1.345 . S
C57 C58 1.371 . S
C57 H60 0.931 . S
C58 C54 1.391 . S
C58 C57 1.371 . S
C58 H65 0.930 . S
H59 C56 0.928 . S
H60 C57 0.931 . S
H61 C37 0.930 . S
H62 C34 0.930 . S
H63 C43 0.930 . S
H64 C55 0.929 . S
H65 C58 0.930 . S
C66 C67 1.351 . S
C66 N69 1.368 . S
C66 H71 0.931 . S
C67 C66 1.351 . S
C67 N68 1.373 . S
C67 H95 0.930 . S
N68 C67 1.373 . S
N68 C70 1.340 . S
N69 C66 1.368 . S
N69 C70 1.321 . S
N69 Co72 2.135 . S
C70 N68 1.340 . S
C70 N69 1.321 . S
C70 H94 0.930 . S
H71 C66 0.931 . S
Co72 N69 2.135 . S
Co72 N75 2.121 . S
Co72 O80 2.055 . S
Co72 O83 2.039 . S
Co72 N86 2.140 1_455 S
C73 O74 1.227 1_455 S
C73 O83 1.265 . S
O74 C73 1.227 1_655 S
N75 Co72 2.121 . S
N75 C77 1.375 1_455 S
N75 C78 1.313 . S
C76 C77 1.338 . S
C76 N79 1.377 1_655 S
C76 H96 0.930 . S
C77 N75 1.375 1_655 S
C77 C76 1.338 . S
C77 H81 0.931 . S
C78 N75 1.313 . S
C78 N79 1.344 . S
C78 H82 0.930 . S
N79 C76 1.377 1_455 S
N79 C78 1.344 . S
O80 Co72 2.055 . S
O80 C84 1.253 . S
H81 C77 0.931 . S
H82 C78 0.930 . S
O83 Co72 2.039 . S
O83 C73 1.265 . S
C84 O80 1.253 . S
C84 O85 1.227 . S
O85 C84 1.227 . S
N86 Co72 2.140 1_655 S
N86 C89 1.346 . S
N86 C90 1.345 . S
C87 C88 1.387 . S
C87 C91 1.391 . S
C88 C87 1.387 . S
C88 C89 1.369 . S
C88 H97 0.929 . S
C89 N86 1.346 . S
C89 C88 1.369 . S
C89 H92 0.928 . S
C90 N86 1.345 . S
C90 C91 1.371 . S
C90 H93 0.931 . S
C91 C87 1.391 . S
C91 C90 1.371 . S
C91 H98 0.930 . S
H92 C89 0.928 . S
H93 C90 0.931 . S
H94 C70 0.930 . S
H95 C67 0.930 . S
H96 C76 0.930 . S
H97 C88 0.929 . S
H98 C91 0.930 . S
C99 C100 1.351 . S
C99 N102 1.368 . S
C99 H104 0.931 . S
C100 C99 1.351 . S
C100 N101 1.373 . S
C100 H128 0.930 . S
N101 C100 1.373 . S
N101 C103 1.340 . S
N102 C99 1.368 . S
N102 C103 1.321 . S
N102 Co105 2.135 . S
C103 N101 1.340 . S
C103 N102 1.321 . S
C103 H127 0.930 . S
H104 C99 0.931 . S
Co105 N102 2.135 . S
Co105 N108 2.121 . S
Co105 O113 2.055 . S
Co105 O116 2.039 . S
Co105 N119 2.140 1_545 S
C106 O107 1.227 1_545 S
C106 O116 1.265 . S
O107 C106 1.227 1_565 S
N108 Co105 2.121 . S
N108 C110 1.375 1_545 S
N108 C111 1.313 . S
C109 C110 1.338 . S
C109 N112 1.377 1_565 S
C109 H129 0.930 . S
C110 N108 1.375 1_565 S
C110 C109 1.338 . S
C110 H114 0.931 . S
C111 N108 1.313 . S
C111 N112 1.344 . S
C111 H115 0.930 . S
N112 C109 1.377 1_545 S
N112 C111 1.344 . S
O113 Co105 2.055 . S
O113 C117 1.253 . S
H114 C110 0.931 . S
H115 C111 0.930 . S
O116 Co105 2.039 . S
O116 C106 1.265 . S
C117 O113 1.253 . S
C117 O118 1.227 . S
O118 C117 1.227 . S
N119 Co105 2.140 1_565 S
N119 C122 1.346 . S
N119 C123 1.345 . S
C120 C121 1.387 . S
C120 C124 1.391 . S
C121 C120 1.387 . S
C121 C122 1.369 . S
C121 H130 0.929 . S
C122 N119 1.346 . S
C122 C121 1.369 . S
C122 H125 0.928 . S
C123 N119 1.345 . S
C123 C124 1.371 . S
C123 H126 0.931 . S
C124 C120 1.391 . S
C124 C123 1.371 . S
C124 H131 0.930 . S
H125 C122 0.928 . S
H126 C123 0.931 . S
H127 C103 0.930 . S
H128 C100 0.930 . S
H129 C109 0.930 . S
H130 C121 0.929 . S
H131 C124 0.930 . S
C132 C133 1.351 . S
C132 N135 1.368 . S
C132 H137 0.931 . S
C133 C132 1.351 . S
C133 N134 1.373 . S
C133 H161 0.930 . S
N134 C133 1.373 . S
N134 C136 1.340 . S
N135 C132 1.368 . S
N135 C136 1.321 . S
N135 Co138 2.135 . S
C136 N134 1.340 . S
C136 N135 1.321 . S
C136 H160 0.930 . S
H137 C132 0.931 . S
Co138 N135 2.135 . S
Co138 N141 2.121 . S
Co138 O146 2.055 . S
Co138 O149 2.039 . S
Co138 N152 2.140 . S
C139 O140 1.227 . S
C139 O149 1.265 . S
O140 C139 1.227 . S
N141 Co138 2.121 . S
N141 C143 1.375 . S
N141 C144 1.313 . S
C142 C143 1.338 . S
C142 N145 1.377 . S
C142 H162 0.930 . S
C143 N141 1.375 . S
C143 C142 1.338 . S
C143 H147 0.931 . S
C144 N141 1.313 . S
C144 N145 1.344 . S
C144 H148 0.930 . S
N145 C142 1.377 . S
N145 C144 1.344 . S
O146 Co138 2.055 . S
O146 C150 1.253 . S
H147 C143 0.931 . S
H148 C144 0.930 . S
O149 Co138 2.039 . S
O149 C139 1.265 . S
C150 O146 1.253 . S
C150 O151 1.227 . S
O151 C150 1.227 . S
N152 Co138 2.140 . S
N152 C155 1.346 . S
N152 C156 1.345 . S
C153 C154 1.387 . S
C153 C157 1.391 . S
C154 C153 1.387 . S
C154 C155 1.369 . S
C154 H163 0.929 . S
C155 N152 1.346 . S
C155 C154 1.369 . S
C155 H158 0.928 . S
C156 N152 1.345 . S
C156 C157 1.371 . S
C156 H159 0.931 . S
C157 C153 1.391 . S
C157 C156 1.371 . S
C157 H164 0.930 . S
H158 C155 0.928 . S
H159 C156 0.931 . S
H160 C136 0.930 . S
H161 C133 0.930 . S
H162 C142 0.930 . S
H163 C154 0.929 . S
H164 C157 0.930 . S
C165 C166 1.351 . S
C165 N168 1.368 . S
C165 H170 0.931 . S
C166 C165 1.351 . S
C166 N167 1.373 . S
C166 H194 0.930 . S
N167 C166 1.373 . S
N167 C169 1.340 . S
N168 C165 1.368 . S
N168 C169 1.321 . S
N168 Co171 2.135 . S
C169 N167 1.340 . S
C169 N168 1.321 . S
C169 H193 0.930 . S
H170 C165 0.931 . S
Co171 N168 2.135 . S
Co171 N174 2.121 . S
Co171 O179 2.055 . S
Co171 O182 2.039 . S
Co171 N185 2.140 . S
C172 O173 1.227 . S
C172 O182 1.265 . S
O173 C172 1.227 . S
N174 Co171 2.121 . S
N174 C176 1.375 . S
N174 C177 1.313 . S
C175 C176 1.338 . S
C175 N178 1.377 . S
C175 H195 0.930 . S
C176 N174 1.375 . S
C176 C175 1.338 . S
C176 H180 0.931 . S
C177 N174 1.313 . S
C177 N178 1.344 . S
C177 H181 0.930 . S
N178 C175 1.377 . S
N178 C177 1.344 . S
O179 Co171 2.055 . S
O179 C183 1.253 . S
H180 C176 0.931 . S
H181 C177 0.930 . S
O182 Co171 2.039 . S
O182 C172 1.265 . S
C183 O179 1.253 . S
C183 O184 1.227 . S
O184 C183 1.227 . S
N185 Co171 2.140 . S
N185 C188 1.346 . S
N185 C189 1.345 . S
C186 C187 1.387 . S
C186 C190 1.391 . S
C187 C186 1.387 . S
C187 C188 1.369 . S
C187 H196 0.929 . S
C188 N185 1.346 . S
C188 C187 1.369 . S
C188 H191 0.928 . S
C189 N185 1.345 . S
C189 C190 1.371 . S
C189 H192 0.931 . S
C190 C186 1.391 . S
C190 C189 1.371 . S
C190 H197 0.930 . S
H191 C188 0.928 . S
H192 C189 0.931 . S
H193 C169 0.930 . S
H194 C166 0.930 . S
H195 C175 0.930 . S
H196 C187 0.929 . S
H197 C190 0.930 . S
C198 C199 1.351 . S
C198 N201 1.368 . S
C198 H203 0.931 . S
C199 C198 1.351 . S
C199 N200 1.373 . S
C199 H227 0.930 . S
N200 C199 1.373 . S
N200 C202 1.340 . S
N201 C198 1.368 . S
N201 C202 1.321 . S
N201 Co204 2.135 . S
C202 N200 1.340 . S
C202 N201 1.321 . S
C202 H226 0.930 . S
H203 C198 0.931 . S
Co204 N201 2.135 . S
Co204 N207 2.121 . S
Co204 O212 2.055 . S
Co204 O215 2.039 . S
Co204 N218 2.140 1_455 S
C205 O206 1.227 1_455 S
C205 O215 1.265 . S
O206 C205 1.227 1_655 S
N207 Co204 2.121 . S
N207 C209 1.375 1_455 S
N207 C210 1.313 . S
C208 C209 1.338 . S
C208 N211 1.377 1_655 S
C208 H228 0.930 . S
C209 N207 1.375 1_655 S
C209 C208 1.338 . S
C209 H213 0.931 . S
C210 N207 1.313 . S
C210 N211 1.344 . S
C210 H214 0.930 . S
N211 C208 1.377 1_455 S
N211 C210 1.344 . S
O212 Co204 2.055 . S
O212 C216 1.253 . S
H213 C209 0.931 . S
H214 C210 0.930 . S
O215 Co204 2.039 . S
O215 C205 1.265 . S
C216 O212 1.253 . S
C216 O217 1.227 . S
O217 C216 1.227 . S
N218 Co204 2.140 1_655 S
N218 C221 1.346 . S
N218 C222 1.345 . S
C219 C220 1.387 . S
C219 C223 1.391 . S
C220 C219 1.387 . S
C220 C221 1.369 . S
C220 H229 0.929 . S
C221 N218 1.346 . S
C221 C220 1.369 . S
C221 H224 0.928 . S
C222 N218 1.345 . S
C222 C223 1.371 . S
C222 H225 0.931 . S
C223 C219 1.391 . S
C223 C222 1.371 . S
C223 H230 0.930 . S
H224 C221 0.928 . S
H225 C222 0.931 . S
H226 C202 0.930 . S
H227 C199 0.930 . S
H228 C208 0.930 . S
H229 C220 0.929 . S
H230 C223 0.930 . S
C231 C232 1.351 . S
C231 N234 1.368 . S
C231 H236 0.931 . S
C232 C231 1.351 . S
C232 N233 1.373 . S
C232 H260 0.930 . S
N233 C232 1.373 . S
N233 C235 1.340 . S
N234 C231 1.368 . S
N234 C235 1.321 . S
N234 Co237 2.135 . S
C235 N233 1.340 . S
C235 N234 1.321 . S
C235 H259 0.930 . S
H236 C231 0.931 . S
Co237 N234 2.135 . S
Co237 N240 2.121 . S
Co237 O245 2.055 . S
Co237 O248 2.039 . S
Co237 N251 2.140 1_545 S
C238 O239 1.227 1_545 S
C238 O248 1.265 . S
O239 C238 1.227 1_565 S
N240 Co237 2.121 . S
N240 C242 1.375 1_545 S
N240 C243 1.313 . S
C241 C242 1.338 . S
C241 N244 1.377 1_565 S
C241 H261 0.930 . S
C242 N240 1.375 1_565 S
C242 C241 1.338 . S
C242 H246 0.931 . S
C243 N240 1.313 . S
C243 N244 1.344 . S
C243 H247 0.930 . S
N244 C241 1.377 1_545 S
N244 C243 1.344 . S
O245 Co237 2.055 . S
O245 C249 1.253 . S
H246 C242 0.931 . S
H247 C243 0.930 . S
O248 Co237 2.039 . S
O248 C238 1.265 . S
C249 O245 1.253 . S
C249 O250 1.227 . S
O250 C249 1.227 . S
N251 Co237 2.140 1_565 S
N251 C254 1.346 . S
N251 C255 1.345 . S
C252 C253 1.387 . S
C252 C256 1.391 . S
C253 C252 1.387 . S
C253 C254 1.369 . S
C253 H262 0.929 . S
C254 N251 1.346 . S
C254 C253 1.369 . S
C254 H257 0.928 . S
C255 N251 1.345 . S
C255 C256 1.371 . S
C255 H258 0.931 . S
C256 C252 1.391 . S
C256 C255 1.371 . S
C256 H263 0.930 . S
H257 C254 0.928 . S
H258 C255 0.931 . S
H259 C235 0.930 . S
H260 C232 0.930 . S
H261 C241 0.930 . S
H262 C253 0.929 . S
H263 C256 0.930 . S
C264 C265 1.351 . S
C264 N267 1.368 . S
C264 H269 0.931 . S
C265 C264 1.351 . S
C265 N266 1.373 . S
C265 H293 0.930 . S
N266 C265 1.373 . S
N266 C268 1.340 . S
N267 C264 1.368 . S
N267 C268 1.321 . S
N267 Co270 2.135 . S
C268 N266 1.340 . S
C268 N267 1.321 . S
C268 H292 0.930 . S
H269 C264 0.931 . S
Co270 N267 2.135 . S
Co270 N273 2.121 . S
Co270 O278 2.055 . S
Co270 O281 2.039 . S
Co270 N284 2.140 . S
C271 O272 1.227 . S
C271 O281 1.265 . S
O272 C271 1.227 . S
N273 Co270 2.121 . S
N273 C275 1.375 . S
N273 C276 1.313 . S
C274 C275 1.338 . S
C274 N277 1.377 . S
C274 H294 0.930 . S
C275 N273 1.375 . S
C275 C274 1.338 . S
C275 H279 0.931 . S
C276 N273 1.313 . S
C276 N277 1.344 . S
C276 H280 0.930 . S
N277 C274 1.377 . S
N277 C276 1.344 . S
O278 Co270 2.055 . S
O278 C282 1.253 . S
H279 C275 0.931 . S
H280 C276 0.930 . S
O281 Co270 2.039 . S
O281 C271 1.265 . S
C282 O278 1.253 . S
C282 O283 1.227 . S
O283 C282 1.227 . S
N284 Co270 2.140 . S
N284 C287 1.346 . S
N284 C288 1.345 . S
C285 C286 1.387 . S
C285 C289 1.391 . S
C286 C285 1.387 . S
C286 C287 1.369 . S
C286 H295 0.929 . S
C287 N284 1.346 . S
C287 C286 1.369 . S
C287 H290 0.928 . S
C288 N284 1.345 . S
C288 C289 1.371 . S
C288 H291 0.931 . S
C289 C285 1.391 . S
C289 C288 1.371 . S
C289 H296 0.930 . S
H290 C287 0.928 . S
H291 C288 0.931 . S
H292 C268 0.930 . S
H293 C265 0.930 . S
H294 C274 0.930 . S
H295 C286 0.929 . S
H296 C289 0.930 . S
C297 C298 1.351 . S
C297 N300 1.368 . S
C297 H302 0.931 . S
C298 C297 1.351 . S
C298 N299 1.373 . S
C298 H326 0.930 . S
N299 C298 1.373 . S
N299 C301 1.340 . S
N300 C297 1.368 . S
N300 C301 1.321 . S
N300 Co303 2.135 . S
C301 N299 1.340 . S
C301 N300 1.321 . S
C301 H325 0.930 . S
H302 C297 0.931 . S
Co303 N300 2.135 . S
Co303 N306 2.121 . S
Co303 O311 2.055 . S
Co303 O314 2.039 . S
Co303 N317 2.140 . S
C304 O305 1.227 . S
C304 O314 1.265 . S
O305 C304 1.227 . S
N306 Co303 2.121 . S
N306 C308 1.375 . S
N306 C309 1.313 . S
C307 C308 1.338 . S
C307 N310 1.377 . S
C307 H327 0.930 . S
C308 N306 1.375 . S
C308 C307 1.338 . S
C308 H312 0.931 . S
C309 N306 1.313 . S
C309 N310 1.344 . S
C309 H313 0.930 . S
N310 C307 1.377 . S
N310 C309 1.344 . S
O311 Co303 2.055 . S
O311 C315 1.253 . S
H312 C308 0.931 . S
H313 C309 0.930 . S
O314 Co303 2.039 . S
O314 C304 1.265 . S
C315 O311 1.253 . S
C315 O316 1.227 . S
O316 C315 1.227 . S
N317 Co303 2.140 . S
N317 C320 1.346 . S
N317 C321 1.345 . S
C318 C319 1.387 . S
C318 C322 1.391 . S
C319 C318 1.387 . S
C319 C320 1.369 . S
C319 H328 0.929 . S
C320 N317 1.346 . S
C320 C319 1.369 . S
C320 H323 0.928 . S
C321 N317 1.345 . S
C321 C322 1.371 . S
C321 H324 0.931 . S
C322 C318 1.391 . S
C322 C321 1.371 . S
C322 H329 0.930 . S
H323 C320 0.928 . S
H324 C321 0.931 . S
H325 C301 0.930 . S
H326 C298 0.930 . S
H327 C307 0.930 . S
H328 C319 0.929 . S
H329 C322 0.930 . S
C330 C331 1.351 . S
C330 N333 1.368 . S
C330 H335 0.931 . S
C331 C330 1.351 . S
C331 N332 1.373 . S
C331 H359 0.930 . S
N332 C331 1.373 . S
N332 C334 1.340 . S
N333 C330 1.368 . S
N333 C334 1.321 . S
N333 Co336 2.135 . S
C334 N332 1.340 . S
C334 N333 1.321 . S
C334 H358 0.930 . S
H335 C330 0.931 . S
Co336 N333 2.135 . S
Co336 N339 2.121 . S
Co336 O344 2.055 . S
Co336 O347 2.039 . S
Co336 N350 2.140 1_655 S
C337 O338 1.227 1_655 S
C337 O347 1.265 . S
O338 C337 1.227 1_455 S
N339 Co336 2.121 . S
N339 C341 1.375 1_655 S
N339 C342 1.313 . S
C340 C341 1.338 . S
C340 N343 1.377 1_455 S
C340 H360 0.930 . S
C341 N339 1.375 1_455 S
C341 C340 1.338 . S
C341 H345 0.931 . S
C342 N339 1.313 . S
C342 N343 1.344 . S
C342 H346 0.930 . S
N343 C340 1.377 1_655 S
N343 C342 1.344 . S
O344 Co336 2.055 . S
O344 C348 1.253 . S
H345 C341 0.931 . S
H346 C342 0.930 . S
O347 Co336 2.039 . S
O347 C337 1.265 . S
C348 O344 1.253 . S
C348 O349 1.227 . S
O349 C348 1.227 . S
N350 Co336 2.140 1_455 S
N350 C353 1.346 . S
N350 C354 1.345 . S
C351 C352 1.387 . S
C351 C355 1.391 . S
C352 C351 1.387 . S
C352 C353 1.369 . S
C352 H361 0.929 . S
C353 N350 1.346 . S
C353 C352 1.369 . S
C353 H356 0.928 . S
C354 N350 1.345 . S
C354 C355 1.371 . S
C354 H357 0.931 . S
C355 C351 1.391 . S
C355 C354 1.371 . S
C355 H362 0.930 . S
H356 C353 0.928 . S
H357 C354 0.931 . S
H358 C334 0.930 . S
H359 C331 0.930 . S
H360 C340 0.930 . S
H361 C352 0.929 . S
H362 C355 0.930 . S
C363 C364 1.351 . S
C363 N366 1.368 . S
C363 H368 0.931 . S
C364 C363 1.351 . S
C364 N365 1.373 . S
C364 H392 0.930 . S
N365 C364 1.373 . S
N365 C367 1.340 . S
N366 C363 1.368 . S
N366 C367 1.321 . S
N366 Co369 2.135 . S
C367 N365 1.340 . S
C367 N366 1.321 . S
C367 H391 0.930 . S
H368 C363 0.931 . S
Co369 N366 2.135 . S
Co369 N372 2.121 . S
Co369 O377 2.055 . S
Co369 O380 2.039 . S
Co369 N383 2.140 1_565 S
C370 O371 1.227 1_565 S
C370 O380 1.265 . S
O371 C370 1.227 1_545 S
N372 Co369 2.121 . S
N372 C374 1.375 1_565 S
N372 C375 1.313 . S
C373 C374 1.338 . S
C373 N376 1.377 1_545 S
C373 H393 0.930 . S
C374 N372 1.375 1_545 S
C374 C373 1.338 . S
C374 H378 0.931 . S
C375 N372 1.313 . S
C375 N376 1.344 . S
C375 H379 0.930 . S
N376 C373 1.377 1_565 S
N376 C375 1.344 . S
O377 Co369 2.055 . S
O377 C381 1.253 . S
H378 C374 0.931 . S
H379 C375 0.930 . S
O380 Co369 2.039 . S
O380 C370 1.265 . S
C381 O377 1.253 . S
C381 O382 1.227 . S
O382 C381 1.227 . S
N383 Co369 2.140 1_545 S
N383 C386 1.346 . S
N383 C387 1.345 . S
C384 C385 1.387 . S
C384 C388 1.391 . S
C385 C384 1.387 . S
C385 C386 1.369 . S
C385 H394 0.929 . S
C386 N383 1.346 . S
C386 C385 1.369 . S
C386 H389 0.928 . S
C387 N383 1.345 . S
C387 C388 1.371 . S
C387 H390 0.931 . S
C388 C384 1.391 . S
C388 C387 1.371 . S
C388 H395 0.930 . S
H389 C386 0.928 . S
H390 C387 0.931 . S
H391 C367 0.930 . S
H392 C364 0.930 . S
H393 C373 0.930 . S
H394 C385 0.929 . S
H395 C388 0.930 . S
C396 C397 1.351 . S
C396 N399 1.368 . S
C396 H401 0.931 . S
C397 C396 1.351 . S
C397 N398 1.373 . S
C397 H425 0.930 . S
N398 C397 1.373 . S
N398 C400 1.340 . S
N399 C396 1.368 . S
N399 C400 1.321 . S
N399 Co402 2.135 . S
C400 N398 1.340 . S
C400 N399 1.321 . S
C400 H424 0.930 . S
H401 C396 0.931 . S
Co402 N399 2.135 . S
Co402 N405 2.121 . S
Co402 O410 2.055 . S
Co402 O413 2.039 . S
Co402 N416 2.140 . S
C403 O404 1.227 . S
C403 O413 1.265 . S
O404 C403 1.227 . S
N405 Co402 2.121 . S
N405 C407 1.375 . S
N405 C408 1.313 . S
C406 C407 1.338 . S
C406 N409 1.377 . S
C406 H426 0.930 . S
C407 N405 1.375 . S
C407 C406 1.338 . S
C407 H411 0.931 . S
C408 N405 1.313 . S
C408 N409 1.344 . S
C408 H412 0.930 . S
N409 C406 1.377 . S
N409 C408 1.344 . S
O410 Co402 2.055 . S
O410 C414 1.253 . S
H411 C407 0.931 . S
H412 C408 0.930 . S
O413 Co402 2.039 . S
O413 C403 1.265 . S
C414 O410 1.253 . S
C414 O415 1.227 . S
O415 C414 1.227 . S
N416 Co402 2.140 . S
N416 C419 1.346 . S
N416 C420 1.345 . S
C417 C418 1.387 . S
C417 C421 1.391 . S
C418 C417 1.387 . S
C418 C419 1.369 . S
C418 H427 0.929 . S
C419 N416 1.346 . S
C419 C418 1.369 . S
C419 H422 0.928 . S
C420 N416 1.345 . S
C420 C421 1.371 . S
C420 H423 0.931 . S
C421 C417 1.391 . S
C421 C420 1.371 . S
C421 H428 0.930 . S
H422 C419 0.928 . S
H423 C420 0.931 . S
H424 C400 0.930 . S
H425 C397 0.930 . S
H426 C406 0.930 . S
H427 C418 0.929 . S
H428 C421 0.930 . S
C429 C430 1.351 . S
C429 N432 1.368 . S
C429 H434 0.931 . S
C430 C429 1.351 . S
C430 N431 1.373 . S
C430 H458 0.930 . S
N431 C430 1.373 . S
N431 C433 1.340 . S
N432 C429 1.368 . S
N432 C433 1.321 . S
N432 Co435 2.135 . S
C433 N431 1.340 . S
C433 N432 1.321 . S
C433 H457 0.930 . S
H434 C429 0.931 . S
Co435 N432 2.135 . S
Co435 N438 2.121 . S
Co435 O443 2.055 . S
Co435 O446 2.039 . S
Co435 N449 2.140 . S
C436 O437 1.227 . S
C436 O446 1.265 . S
O437 C436 1.227 . S
N438 Co435 2.121 . S
N438 C440 1.375 . S
N438 C441 1.313 . S
C439 C440 1.338 . S
C439 N442 1.377 . S
C439 H459 0.930 . S
C440 N438 1.375 . S
C440 C439 1.338 . S
C440 H444 0.931 . S
C441 N438 1.313 . S
C441 N442 1.344 . S
C441 H445 0.930 . S
N442 C439 1.377 . S
N442 C441 1.344 . S
O443 Co435 2.055 . S
O443 C447 1.253 . S
H444 C440 0.931 . S
H445 C441 0.930 . S
O446 Co435 2.039 . S
O446 C436 1.265 . S
C447 O443 1.253 . S
C447 O448 1.227 . S
O448 C447 1.227 . S
N449 Co435 2.140 . S
N449 C452 1.346 . S
N449 C453 1.345 . S
C450 C451 1.387 . S
C450 C454 1.391 . S
C451 C450 1.387 . S
C451 C452 1.369 . S
C451 H460 0.929 . S
C452 N449 1.346 . S
C452 C451 1.369 . S
C452 H455 0.928 . S
C453 N449 1.345 . S
C453 C454 1.371 . S
C453 H456 0.931 . S
C454 C450 1.391 . S
C454 C453 1.371 . S
C454 H461 0.930 . S
H455 C452 0.928 . S
H456 C453 0.931 . S
H457 C433 0.930 . S
H458 C430 0.930 . S
H459 C439 0.930 . S
H460 C451 0.929 . S
H461 C454 0.930 . S
C462 C463 1.351 . S
C462 N465 1.368 . S
C462 H467 0.931 . S
C463 C462 1.351 . S
C463 N464 1.373 . S
C463 H491 0.930 . S
N464 C463 1.373 . S
N464 C466 1.340 . S
N465 C462 1.368 . S
N465 C466 1.321 . S
N465 Co468 2.135 . S
C466 N464 1.340 . S
C466 N465 1.321 . S
C466 H490 0.930 . S
H467 C462 0.931 . S
Co468 N465 2.135 . S
Co468 N471 2.121 . S
Co468 O476 2.055 . S
Co468 O479 2.039 . S
Co468 N482 2.140 1_655 S
C469 O470 1.227 1_655 S
C469 O479 1.265 . S
O470 C469 1.227 1_455 S
N471 Co468 2.121 . S
N471 C473 1.375 1_655 S
N471 C474 1.313 . S
C472 C473 1.338 . S
C472 N475 1.377 1_455 S
C472 H492 0.930 . S
C473 N471 1.375 1_455 S
C473 C472 1.338 . S
C473 H477 0.931 . S
C474 N471 1.313 . S
C474 N475 1.344 . S
C474 H478 0.930 . S
N475 C472 1.377 1_655 S
N475 C474 1.344 . S
O476 Co468 2.055 . S
O476 C480 1.253 . S
H477 C473 0.931 . S
H478 C474 0.930 . S
O479 Co468 2.039 . S
O479 C469 1.265 . S
C480 O476 1.253 . S
C480 O481 1.227 . S
O481 C480 1.227 . S
N482 Co468 2.140 1_455 S
N482 C485 1.346 . S
N482 C486 1.345 . S
C483 C484 1.387 . S
C483 C487 1.391 . S
C484 C483 1.387 . S
C484 C485 1.369 . S
C484 H493 0.929 . S
C485 N482 1.346 . S
C485 C484 1.369 . S
C485 H488 0.928 . S
C486 N482 1.345 . S
C486 C487 1.371 . S
C486 H489 0.931 . S
C487 C483 1.391 . S
C487 C486 1.371 . S
C487 H494 0.930 . S
H488 C485 0.928 . S
H489 C486 0.931 . S
H490 C466 0.930 . S
H491 C463 0.930 . S
H492 C472 0.930 . S
H493 C484 0.929 . S
H494 C487 0.930 . S
C495 C496 1.351 . S
C495 N498 1.368 . S
C495 H500 0.931 . S
C496 C495 1.351 . S
C496 N497 1.373 . S
C496 H524 0.930 . S
N497 C496 1.373 . S
N497 C499 1.340 . S
N498 C495 1.368 . S
N498 C499 1.321 . S
N498 Co501 2.135 . S
C499 N497 1.340 . S
C499 N498 1.321 . S
C499 H523 0.930 . S
H500 C495 0.931 . S
Co501 N498 2.135 . S
Co501 N504 2.121 . S
Co501 O509 2.055 . S
Co501 O512 2.039 . S
Co501 N515 2.140 1_565 S
C502 O503 1.227 1_565 S
C502 O512 1.265 . S
O503 C502 1.227 1_545 S
N504 Co501 2.121 . S
N504 C506 1.375 1_565 S
N504 C507 1.313 . S
C505 C506 1.338 . S
C505 N508 1.377 1_545 S
C505 H525 0.930 . S
C506 N504 1.375 1_545 S
C506 C505 1.338 . S
C506 H510 0.931 . S
C507 N504 1.313 . S
C507 N508 1.344 . S
C507 H511 0.930 . S
N508 C505 1.377 1_565 S
N508 C507 1.344 . S
O509 Co501 2.055 . S
O509 C513 1.253 . S
H510 C506 0.931 . S
H511 C507 0.930 . S
O512 Co501 2.039 . S
O512 C502 1.265 . S
C513 O509 1.253 . S
C513 O514 1.227 . S
O514 C513 1.227 . S
N515 Co501 2.140 1_545 S
N515 C518 1.346 . S
N515 C519 1.345 . S
C516 C517 1.387 . S
C516 C520 1.391 . S
C517 C516 1.387 . S
C517 C518 1.369 . S
C517 H526 0.929 . S
C518 N515 1.346 . S
C518 C517 1.369 . S
C518 H521 0.928 . S
C519 N515 1.345 . S
C519 C520 1.371 . S
C519 H522 0.931 . S
C520 C516 1.391 . S
C520 C519 1.371 . S
C520 H527 0.930 . S
H521 C518 0.928 . S
H522 C519 0.931 . S
H523 C499 0.930 . S
H524 C496 0.930 . S
H525 C505 0.930 . S
H526 C517 0.929 . S
H527 C520 0.930 . S
H528 C534 0.930 . S
H529 C538 0.930 . S
H530 C543 0.929 . S
H531 C541 0.929 . S
H532 C536 0.929 . S
H533 C542 0.929 . S
C534 H528 0.930 . S
C534 C535 1.367 . S
C534 C542 1.378 . S
C535 C534 1.367 . S
C535 C543 1.433 . S
C536 H532 0.929 . S
C536 C538 1.378 . S
C536 C540 1.350 . S
C537 C540 1.463 1_554 S
C537 C542 1.350 . S
C537 N545 1.427 . S
C538 H529 0.930 . S
C538 C536 1.378 . S
C538 C539 1.367 . S
C539 C538 1.367 . S
C539 C541 1.433 . S
C540 C536 1.350 . S
C540 C537 1.463 1_556 S
C540 N544 1.427 . S
C541 H531 0.929 . S
C541 C539 1.433 . S
C541 N544 1.384 . S
C542 H533 0.929 . S
C542 C534 1.378 . S
C542 C537 1.350 . S
C543 H530 0.929 . S
C543 C535 1.433 . S
C543 N545 1.384 . S
N544 C540 1.427 . S
N544 C541 1.384 . S
N545 C537 1.427 . S
N545 C543 1.384 . S
H546 C552 0.930 . S
H547 C556 0.930 . S
H548 C561 0.929 . S
H549 C559 0.929 . S
H550 C554 0.929 . S
H551 C560 0.929 . S
C552 H546 0.930 . S
C552 C553 1.367 . S
C552 C560 1.378 . S
C553 C552 1.367 . S
C553 C561 1.433 . S
C554 H550 0.929 . S
C554 C556 1.378 . S
C554 C558 1.350 . S
C555 C558 1.463 . S
C555 C560 1.350 . S
C555 N563 1.427 . S
C556 H547 0.930 . S
C556 C554 1.378 . S
C556 C557 1.367 . S
C557 C556 1.367 . S
C557 C559 1.433 . S
C558 C554 1.350 . S
C558 C555 1.463 . S
C558 N562 1.427 . S
C559 H549 0.929 . S
C559 C557 1.433 . S
C559 N562 1.384 . S
C560 H551 0.929 . S
C560 C552 1.378 . S
C560 C555 1.350 . S
C561 H548 0.929 . S
C561 C553 1.433 . S
C561 N563 1.384 . S
N562 C558 1.427 . S
N562 C559 1.384 . S
N563 C555 1.427 . S
N563 C561 1.384 . S
H564 C570 0.930 1_655 S
H565 C574 0.930 . S
H566 C579 0.929 . S
H567 C577 0.913 1_655 S
H568 C572 0.929 . S
H569 C578 0.929 1_655 S
C570 H564 0.930 1_455 S
C570 C571 1.367 . S
C570 C578 1.378 . S
C571 C570 1.367 . S
C571 C579 1.433 . S
C572 H568 0.929 . S
C572 C574 1.378 . S
C572 C576 1.350 . S
C573 C576 1.463 1_556 S
C573 C578 1.350 . S
C573 N581 1.427 . S
C574 H565 0.930 . S
C574 C572 1.378 . S
C574 C575 1.367 . S
C575 C574 1.367 . S
C575 C577 1.450 . S
C576 C572 1.350 . S
C576 C573 1.463 1_554 S
C576 N580 1.427 . S
C577 H567 0.913 1_455 S
C577 C575 1.450 . S
C577 N580 1.384 . S
C578 H569 0.929 1_455 S
C578 C570 1.378 . S
C578 C573 1.350 . S
C579 H566 0.929 . S
C579 C571 1.433 . S
C579 N581 1.384 . S
N580 C576 1.427 . S
N580 C577 1.384 . S
N581 C573 1.427 . S
N581 C579 1.384 . S
H582 C588 0.930 . S
H583 C592 0.930 . S
H584 C597 0.929 . S
H585 C595 0.929 . S
H586 C590 0.929 . S
H587 C596 0.929 . S
C588 H582 0.930 . S
C588 C589 1.367 . S
C588 C596 1.378 . S
C589 C588 1.367 . S
C589 C597 1.433 . S
C590 H586 0.929 . S
C590 C592 1.378 . S
C590 C594 1.350 . S
C591 C594 1.463 . S
C591 C596 1.350 . S
C591 N599 1.427 . S
C592 H583 0.930 . S
C592 C590 1.378 . S
C592 C593 1.367 . S
C593 C592 1.367 . S
C593 C595 1.433 . S
C594 C590 1.350 . S
C594 C591 1.463 . S
C594 N598 1.427 . S
C595 H585 0.929 . S
C595 C593 1.433 . S
C595 N598 1.384 . S
C596 H587 0.929 . S
C596 C588 1.378 . S
C596 C591 1.350 . S
C597 H584 0.929 . S
C597 C589 1.433 . S
C597 N599 1.384 . S
N598 C594 1.427 . S
N598 C595 1.384 . S
N599 C591 1.427 . S
N599 C597 1.384 . S
H600 C606 0.930 . S
H601 C610 0.930 . S
H602 C615 0.929 . S
H603 C613 0.929 . S
H604 C608 0.929 . S
H605 C614 0.929 . S
C606 H600 0.930 . S
C606 C607 1.367 . S
C606 C614 1.378 . S
C607 C606 1.367 . S
C607 C615 1.433 . S
C608 H604 0.929 . S
C608 C610 1.378 . S
C608 C612 1.350 . S
C609 C612 1.463 1_556 S
C609 C614 1.350 . S
C609 N617 1.427 . S
C610 H601 0.930 . S
C610 C608 1.378 . S
C610 C611 1.367 . S
C611 C610 1.367 . S
C611 C613 1.433 . S
C612 C608 1.350 . S
C612 C609 1.463 1_554 S
C612 N616 1.427 . S
C613 H603 0.929 . S
C613 C611 1.433 . S
C613 N616 1.384 . S
C614 H605 0.929 . S
C614 C606 1.378 . S
C614 C609 1.350 . S
C615 H602 0.929 . S
C615 C607 1.433 . S
C615 N617 1.384 . S
N616 C612 1.427 . S
N616 C613 1.384 . S
N617 C609 1.427 . S
N617 C615 1.384 . S
H618 C624 0.930 . S
H619 C628 0.930 . S
H620 C633 0.929 . S
H621 C631 0.929 . S
H622 C626 0.929 . S
H623 C632 0.929 . S
C624 H618 0.930 . S
C624 C625 1.367 . S
C624 C632 1.378 . S
C625 C624 1.367 . S
C625 C633 1.433 . S
C626 H622 0.929 . S
C626 C628 1.378 . S
C626 C630 1.350 . S
C627 C630 1.463 . S
C627 C632 1.350 . S
C627 N635 1.427 . S
C628 H619 0.930 . S
C628 C626 1.378 . S
C628 C629 1.367 . S
C629 C628 1.367 . S
C629 C631 1.433 . S
C630 C626 1.350 . S
C630 C627 1.463 . S
C630 N634 1.427 . S
C631 H621 0.929 . S
C631 C629 1.433 . S
C631 N634 1.384 . S
C632 H623 0.929 . S
C632 C624 1.378 . S
C632 C627 1.350 . S
C633 H620 0.929 . S
C633 C625 1.433 . S
C633 N635 1.384 . S
N634 C630 1.427 . S
N634 C631 1.384 . S
N635 C627 1.427 . S
N635 C633 1.384 . S
H636 C642 0.930 . S
H637 C646 0.930 . S
H638 C651 0.940 . S
H639 C649 0.929 . S
H640 C644 0.929 . S
H641 C650 0.929 . S
C642 H636 0.930 . S
C642 C643 1.367 . S
C642 C650 1.378 . S
C643 C642 1.367 . S
C643 C651 1.433 . S
C644 H640 0.929 . S
C644 C646 1.378 . S
C644 C648 1.350 . S
C645 C648 1.463 1_554 S
C645 C650 1.350 . S
C645 N653 1.427 . S
C646 H637 0.930 . S
C646 C644 1.378 . S
C646 C647 1.367 . S
C647 C646 1.367 . S
C647 C649 1.433 . S
C648 C644 1.350 . S
C648 C645 1.463 1_556 S
C648 N652 1.427 . S
C649 H639 0.929 . S
C649 C647 1.433 . S
C649 N652 1.384 . S
C650 H641 0.929 . S
C650 C642 1.378 . S
C650 C645 1.350 . S
C651 H638 0.940 . S
C651 C643 1.433 . S
C651 N653 1.384 . S
N652 C648 1.427 . S
N652 C649 1.384 . S
N653 C645 1.427 . S
N653 C651 1.384 . S
H654 C660 0.930 1_545 S
H655 C664 0.930 . S
H656 C669 0.929 . S
H657 C667 0.929 1_545 S
H658 C662 0.929 . S
H659 C668 0.929 1_545 S
C660 H654 0.930 1_565 S
C660 C661 1.367 . S
C660 C668 1.378 . S
C661 C660 1.367 . S
C661 C669 1.433 . S
C662 H658 0.929 . S
C662 C664 1.378 . S
C662 C666 1.350 . S
C663 C666 1.463 . S
C663 C668 1.350 . S
C663 N671 1.427 . S
C664 H655 0.930 . S
C664 C662 1.378 . S
C664 C665 1.367 . S
C665 C664 1.367 . S
C665 C667 1.433 . S
C666 C662 1.350 . S
C666 C663 1.463 . S
C666 N670 1.427 . S
C667 H657 0.929 1_565 S
C667 C665 1.433 . S
C667 N670 1.384 . S
C668 H659 0.929 1_565 S
C668 C660 1.378 . S
C668 C663 1.350 . S
C669 H656 0.929 . S
C669 C661 1.433 . S
C669 N671 1.384 . S
N670 C666 1.427 . S
N670 C667 1.384 . S
N671 C663 1.427 . S
N671 C669 1.384 . S
H672 C678 0.930 . S
H673 C682 0.930 . S
H674 C687 0.929 . S
H675 C685 0.929 . S
H676 C680 0.929 . S
H677 C686 0.929 . S
C678 H672 0.930 . S
C678 C679 1.367 . S
C678 C686 1.378 . S
C679 C678 1.367 . S
C679 C687 1.433 . S
C680 H676 0.929 . S
C680 C682 1.378 . S
C680 C684 1.350 1_545 S
C681 C684 1.463 . S
C681 C686 1.350 . S
C681 N689 1.427 . S
C682 H673 0.930 . S
C682 C680 1.378 . S
C682 C683 1.367 . S
C683 C682 1.367 . S
C683 C685 1.433 . S
C684 C680 1.350 1_565 S
C684 C681 1.463 . S
C684 N688 1.427 1_565 S
C685 H675 0.929 . S
C685 C683 1.433 . S
C685 N688 1.384 . S
C686 H677 0.929 . S
C686 C678 1.378 . S
C686 C681 1.350 . S
C687 H674 0.929 . S
C687 C679 1.433 . S
C687 N689 1.384 . S
N688 C684 1.427 1_545 S
N688 C685 1.384 . S
N689 C681 1.427 . S
N689 C687 1.384 . S
H690 C696 0.930 . S
H691 C700 0.930 . S
H692 C705 0.929 . S
H693 C703 0.929 . S
H694 C698 0.929 . S
H695 C704 0.929 . S
C696 H690 0.930 . S
C696 C697 1.367 . S
C696 C704 1.378 . S
C697 C696 1.367 . S
C697 C705 1.433 . S
C698 H694 0.929 . S
C698 C700 1.378 . S
C698 C702 1.350 . S
C699 C702 1.463 . S
C699 C704 1.350 . S
C699 N707 1.427 . S
C700 H691 0.930 . S
C700 C698 1.378 . S
C700 C701 1.367 . S
C701 C700 1.367 . S
C701 C703 1.433 . S
C702 C698 1.350 . S
C702 C699 1.463 . S
C702 N706 1.427 . S
C703 H693 0.929 . S
C703 C701 1.433 . S
C703 N706 1.384 . S
C704 H695 0.929 . S
C704 C696 1.378 . S
C704 C699 1.350 . S
C705 H692 0.929 . S
C705 C697 1.433 . S
C705 N707 1.384 . S
N706 C702 1.427 . S
N706 C703 1.384 . S
N707 C699 1.427 . S
N707 C705 1.384 . S
H708 C714 0.930 . S
H709 C718 0.930 . S
H710 C723 0.929 . S
H711 C721 0.929 . S
H712 C716 0.929 . S
H713 C722 0.929 . S
C714 H708 0.930 . S
C714 C715 1.367 1_655 S
C714 C722 1.378 . S
C715 C714 1.367 1_455 S
C715 C723 1.433 . S
C716 H712 0.929 . S
C716 C718 1.378 . S
C716 C720 1.350 1_455 S
C717 C720 1.463 . S
C717 C722 1.350 . S
C717 N725 1.427 1_655 S
C718 H709 0.930 . S
C718 C716 1.378 . S
C718 C719 1.367 1_455 S
C719 C718 1.367 1_655 S
C719 C721 1.433 . S
C720 C716 1.350 1_655 S
C720 C717 1.463 . S
C720 N724 1.427 . S
C721 H711 0.929 . S
C721 C719 1.433 . S
C721 N724 1.384 . S
C722 H713 0.929 . S
C722 C714 1.378 . S
C722 C717 1.350 . S
C723 H710 0.929 . S
C723 C715 1.433 . S
C723 N725 1.384 . S
N724 C720 1.427 . S
N724 C721 1.384 . S
N725 C717 1.427 1_455 S
N725 C723 1.384 . S
H726 C732 0.930 . S
H727 C736 0.930 . S
H728 C741 0.929 1_545 S
H729 C739 0.929 . S
H730 C734 0.929 1_655 S
H731 C740 0.929 . S
C732 H726 0.930 . S
C732 C733 1.367 . S
C732 C740 1.378 . S
C733 C732 1.367 . S
C733 C741 1.433 . S
C734 H730 0.929 1_455 S
C734 C736 1.378 . S
C734 C738 1.350 1_445 S
C735 C738 1.463 . S
C735 C740 1.350 . S
C735 N743 1.422 1_565 S
C736 H727 0.930 . S
C736 C734 1.378 . S
C736 C737 1.367 . S
C737 C736 1.367 . S
C737 C739 1.433 1_545 S
C738 C734 1.350 1_665 S
C738 C735 1.463 . S
C738 N742 1.427 1_655 S
C739 H729 0.929 . S
C739 C737 1.433 1_565 S
C739 N742 1.384 . S
C740 H731 0.929 . S
C740 C732 1.378 . S
C740 C735 1.350 . S
C741 H728 0.929 1_565 S
C741 C733 1.433 . S
C741 N743 1.382 1_565 S
N742 C738 1.427 1_455 S
N742 C739 1.384 . S
N743 C735 1.422 1_545 S
N743 C741 1.382 1_545 S
H744 C750 0.930 . S
H745 C754 0.930 . S
H746 C759 0.929 . S
H747 C757 0.929 . S
H748 C752 0.929 . S
H749 C758 0.929 . S
C750 H744 0.930 . S
C750 C751 1.367 . S
C750 C758 1.378 . S
C751 C750 1.367 . S
C751 C759 1.433 . S
C752 H748 0.929 . S
C752 C754 1.378 . S
C752 C756 1.350 . S
C753 C756 1.463 . S
C753 C758 1.350 . S
C753 N761 1.427 . S
C754 H745 0.930 . S
C754 C752 1.378 . S
C754 C755 1.367 . S
C755 C754 1.367 . S
C755 C757 1.433 . S
C756 C752 1.350 . S
C756 C753 1.463 . S
C756 N760 1.427 . S
C757 H747 0.929 . S
C757 C755 1.433 . S
C757 N760 1.384 . S
C758 H749 0.929 . S
C758 C750 1.378 . S
C758 C753 1.350 . S
C759 H746 0.929 . S
C759 C751 1.433 . S
C759 N761 1.384 . S
N760 C756 1.427 . S
N760 C757 1.384 . S
N761 C753 1.427 . S
N761 C759 1.384 . S
H762 C768 0.930 . S
H763 C772 0.930 . S
H764 C777 0.929 . S
H765 C775 0.929 . S
H766 C770 0.929 . S
H767 C776 0.929 . S
C768 H762 0.930 . S
C768 C769 1.367 . S
C768 C776 1.378 . S
C769 C768 1.367 . S
C769 C777 1.433 . S
C770 H766 0.929 . S
C770 C772 1.378 . S
C770 C774 1.350 1_455 S
C771 C774 1.463 . S
C771 C776 1.350 . S
C771 N779 1.427 . S
C772 H763 0.930 . S
C772 C770 1.378 . S
C772 C773 1.367 . S
C773 C772 1.367 . S
C773 C775 1.433 . S
C774 C770 1.350 1_655 S
C774 C771 1.463 . S
C774 N778 1.427 1_655 S
C775 H765 0.929 . S
C775 C773 1.433 . S
C775 N778 1.384 . S
C776 H767 0.929 . S
C776 C768 1.378 . S
C776 C771 1.350 . S
C777 H764 0.929 . S
C777 C769 1.433 . S
C777 N779 1.384 . S
N778 C774 1.427 1_455 S
N778 C775 1.384 . S
N779 C771 1.427 . S
N779 C777 1.384 . S
H780 C786 0.930 . S
H781 C790 0.930 . S
H782 C795 0.929 . S
H783 C793 0.929 1_455 S
H784 C788 0.929 . S
H785 C794 0.929 1_565 S
C786 H780 0.930 . S
C786 C787 1.367 . S
C786 C794 1.378 . S
C787 C786 1.367 . S
C787 C795 1.433 1_455 S
C788 H784 0.929 . S
C788 C790 1.378 . S
C788 C792 1.350 . S
C789 C792 1.463 . S
C789 C794 1.350 1_665 S
C789 N797 1.427 1_565 S
C790 H781 0.930 . S
C790 C788 1.378 . S
C790 C791 1.367 . S
C791 C790 1.367 . S
C791 C793 1.433 . S
C792 C788 1.350 . S
C792 C789 1.463 . S
C792 N796 1.427 1_655 S
C793 H783 0.929 1_655 S
C793 C791 1.433 . S
C793 N796 1.384 1_655 S
C794 H785 0.929 1_545 S
C794 C786 1.378 . S
C794 C789 1.350 1_445 S
C795 H782 0.929 . S
C795 C787 1.433 1_655 S
C795 N797 1.384 . S
N796 C792 1.427 1_455 S
N796 C793 1.384 1_455 S
N797 C789 1.427 1_545 S
N797 C795 1.384 . S
H798 C804 0.930 . S
H799 C808 0.930 . S
H800 C813 0.929 . S
H801 C811 0.929 . S
H802 C806 0.929 . S
H803 C812 0.929 . S
C804 H798 0.930 . S
C804 C805 1.367 . S
C804 C812 1.378 . S
C805 C804 1.367 . S
C805 C813 1.433 1_545 S
C806 H802 0.929 . S
C806 C808 1.378 . S
C806 C810 1.350 . S
C807 C810 1.463 . S
C807 C812 1.350 1_565 S
C807 N815 1.427 . S
C808 H799 0.930 . S
C808 C806 1.378 . S
C808 C809 1.367 . S
C809 C808 1.367 . S
C809 C811 1.433 1_565 S
C810 C806 1.350 . S
C810 C807 1.463 . S
C810 N814 1.427 1_565 S
C811 H801 0.929 . S
C811 C809 1.433 1_545 S
C811 N814 1.384 . S
C812 H803 0.929 . S
C812 C804 1.378 . S
C812 C807 1.350 1_545 S
C813 H800 0.929 . S
C813 C805 1.433 1_565 S
C813 N815 1.384 . S
N814 C810 1.427 1_545 S
N814 C811 1.384 . S
N815 C807 1.427 . S
N815 C813 1.384 . S
H816 C822 0.930 . S
H817 C826 0.930 . S
H818 C831 0.929 . S
H819 C829 0.929 . S
H820 C824 0.929 1_545 S
H821 C830 0.929 . S
C822 H816 0.930 . S
C822 C823 1.367 . S
C822 C830 1.378 . S
C823 C822 1.367 . S
C823 C831 1.433 . S
C824 H820 0.929 1_565 S
C824 C826 1.378 . S
C824 C828 1.350 1_565 S
C825 C828 1.463 . S
C825 C830 1.350 . S
C825 N833 1.427 . S
C826 H817 0.930 . S
C826 C824 1.378 . S
C826 C827 1.367 . S
C827 C826 1.367 . S
C827 C829 1.433 . S
C828 C824 1.350 1_545 S
C828 C825 1.463 . S
C828 N832 1.427 1_545 S
C829 H819 0.929 . S
C829 C827 1.433 . S
C829 N832 1.384 . S
C830 H821 0.929 . S
C830 C822 1.378 . S
C830 C825 1.350 . S
C831 H818 0.929 . S
C831 C823 1.433 . S
C831 N833 1.384 . S
N832 C828 1.427 1_565 S
N832 C829 1.384 . S
N833 C825 1.427 . S
N833 C831 1.384 . S
H834 C840 0.930 . S
H835 C844 0.930 . S
H836 C849 0.929 . S
H837 C847 0.929 . S
H838 C842 0.929 . S
H839 C848 0.929 . S
C840 H834 0.930 . S
C840 C841 1.367 . S
C840 C848 1.378 . S
C841 C840 1.367 . S
C841 C849 1.433 . S
C842 H838 0.929 . S
C842 C844 1.378 . S
C842 C846 1.350 . S
C843 C846 1.463 . S
C843 C848 1.350 . S
C843 N851 1.427 . S
C844 H835 0.930 . S
C844 C842 1.378 . S
C844 C845 1.367 . S
C845 C844 1.367 . S
C845 C847 1.433 . S
C846 C842 1.350 . S
C846 C843 1.463 . S
C846 N850 1.427 . S
C847 H837 0.929 . S
C847 C845 1.433 . S
C847 N850 1.384 . S
C848 H839 0.929 . S
C848 C840 1.378 . S
C848 C843 1.350 . S
C849 H836 0.929 . S
C849 C841 1.433 . S
C849 N851 1.384 . S
N850 C846 1.427 . S
N850 C847 1.384 . S
N851 C843 1.427 . S
N851 C849 1.384 . S
H852 C858 0.930 . S
H853 C862 0.930 . S
H854 C867 0.929 . S
H855 C865 0.929 . S
H856 C860 0.929 . S
H857 C866 0.929 . S
C858 H852 0.930 . S
C858 C859 1.367 . S
C858 C866 1.378 . S
C859 C858 1.367 . S
C859 C867 1.433 . S
C860 H856 0.929 . S
C860 C862 1.378 . S
C860 C864 1.350 1_655 S
C861 C864 1.463 . S
C861 C866 1.350 . S
C861 N869 1.427 . S
C862 H853 0.930 . S
C862 C860 1.378 . S
C862 C863 1.367 . S
C863 C862 1.367 . S
C863 C865 1.433 1_655 S
C864 C860 1.350 1_455 S
C864 C861 1.463 . S
C864 N868 1.427 . S
C865 H855 0.929 . S
C865 C863 1.433 1_455 S
C865 N868 1.384 . S
C866 H857 0.929 . S
C866 C858 1.378 . S
C866 C861 1.350 . S
C867 H854 0.929 . S
C867 C859 1.433 . S
C867 N869 1.384 . S
N868 C864 1.427 . S
N868 C865 1.384 . S
N869 C861 1.427 . S
N869 C867 1.384 . S
H870 C876 0.930 . S
H871 C880 0.930 . S
H872 C885 0.929 . S
H873 C883 0.929 . S
H874 C878 0.929 . S
H875 C884 0.929 . S
C876 H870 0.930 . S
C876 C877 1.367 1_545 S
C876 C884 1.378 . S
C877 C876 1.367 1_565 S
C877 C885 1.433 . S
C878 H874 0.929 . S
C878 C880 1.378 . S
C878 C882 1.350 . S
C879 C882 1.463 . S
C879 C884 1.350 1_455 S
C879 N887 1.427 1_445 S
C880 H871 0.930 . S
C880 C878 1.378 . S
C880 C881 1.367 . S
C881 C880 1.367 . S
C881 C883 1.433 . S
C882 C878 1.350 . S
C882 C879 1.463 . S
C882 N886 1.427 . S
C883 H873 0.929 . S
C883 C881 1.433 . S
C883 N886 1.384 . S
C884 H875 0.929 . S
C884 C876 1.378 . S
C884 C879 1.350 1_655 S
C885 H872 0.929 . S
C885 C877 1.433 . S
C885 N887 1.384 . S
N886 C882 1.427 . S
N886 C883 1.384 . S
N887 C879 1.427 1_665 S
N887 C885 1.384 . S
H888 C894 0.930 . S
H889 C898 0.930 . S
H890 C903 0.929 . S
H891 C901 0.929 . S
H892 C896 0.929 . S
H893 C902 0.929 . S
C894 H888 0.930 . S
C894 C895 1.367 . S
C894 C902 1.378 . S
C895 C894 1.367 . S
C895 C903 1.433 . S
C896 H892 0.929 . S
C896 C898 1.378 . S
C896 C900 1.350 . S
C897 C900 1.463 . S
C897 C902 1.350 . S
C897 N905 1.427 . S
C898 H889 0.930 . S
C898 C896 1.378 . S
C898 C899 1.367 . S
C899 C898 1.367 . S
C899 C901 1.433 . S
C900 C896 1.350 . S
C900 C897 1.463 . S
C900 N904 1.427 . S
C901 H891 0.929 . S
C901 C899 1.433 . S
C901 N904 1.384 . S
C902 H893 0.929 . S
C902 C894 1.378 . S
C902 C897 1.350 . S
C903 H890 0.929 . S
C903 C895 1.433 . S
C903 N905 1.384 . S
N904 C900 1.427 . S
N904 C901 1.384 . S
N905 C897 1.427 . S
N905 C903 1.384 . S
H906 C912 0.930 . S
H907 C916 0.930 . S
H908 C921 0.929 . S
H909 C919 0.929 . S
H910 C914 0.929 1_455 S
H911 C920 0.929 . S
C912 H906 0.930 . S
C912 C913 1.367 . S
C912 C920 1.378 . S
C913 C912 1.367 . S
C913 C921 1.433 . S
C914 H910 0.929 1_655 S
C914 C916 1.378 . S
C914 C918 1.350 1_655 S
C915 C918 1.463 . S
C915 C920 1.350 . S
C915 N923 1.427 . S
C916 H907 0.930 . S
C916 C914 1.378 . S
C916 C917 1.367 . S
C917 C916 1.367 . S
C917 C919 1.433 . S
C918 C914 1.350 1_455 S
C918 C915 1.463 . S
C918 N922 1.427 1_455 S
C919 H909 0.929 . S
C919 C917 1.433 . S
C919 N922 1.384 . S
C920 H911 0.929 . S
C920 C912 1.378 . S
C920 C915 1.350 . S
C921 H908 0.929 . S
C921 C913 1.433 . S
C921 N923 1.384 . S
N922 C918 1.427 1_655 S
N922 C919 1.384 . S
N923 C915 1.427 . S
N923 C921 1.384 . S
H924 C930 0.930 . S
H925 C934 0.930 . S
H926 C939 0.929 . S
H927 C937 0.929 1_655 S
H928 C932 0.929 . S
H929 C938 0.929 1_545 S
C930 H924 0.930 . S
C930 C931 1.367 . S
C930 C938 1.378 . S
C931 C930 1.367 . S
C931 C939 1.433 1_655 S
C932 H928 0.929 . S
C932 C934 1.378 . S
C932 C936 1.350 . S
C933 C936 1.463 . S
C933 C938 1.350 1_445 S
C933 N941 1.427 1_545 S
C934 H925 0.930 . S
C934 C932 1.378 . S
C934 C935 1.367 . S
C935 C934 1.367 . S
C935 C937 1.433 . S
C936 C932 1.350 . S
C936 C933 1.463 . S
C936 N940 1.427 1_455 S
C937 H927 0.929 1_455 S
C937 C935 1.433 . S
C937 N940 1.384 1_455 S
C938 H929 0.929 1_565 S
C938 C930 1.378 . S
C938 C933 1.350 1_665 S
C939 H926 0.929 . S
C939 C931 1.433 1_455 S
C939 N941 1.384 . S
N940 C936 1.427 1_655 S
N940 C937 1.384 1_655 S
N941 C933 1.427 1_565 S
N941 C939 1.384 . S
H942 C948 0.930 . S
H943 C952 0.930 . S
H944 C957 0.929 . S
H945 C955 0.929 . S
H946 C950 0.929 . S
H947 C956 0.929 . S
C948 H942 0.930 . S
C948 C949 1.367 1_565 S
C948 C956 1.378 . S
C949 C948 1.367 1_545 S
C949 C957 1.433 . S
C950 H946 0.929 . S
C950 C952 1.378 . S
C950 C954 1.350 . S
C951 C954 1.463 . S
C951 C956 1.350 1_545 S
C951 N959 1.427 . S
C952 H943 0.930 . S
C952 C950 1.378 . S
C952 C953 1.367 1_545 S
C953 C952 1.367 1_565 S
C953 C955 1.433 . S
C954 C950 1.350 . S
C954 C951 1.463 . S
C954 N958 1.427 1_545 S
C955 H945 0.929 . S
C955 C953 1.433 . S
C955 N958 1.384 . S
C956 H947 0.929 . S
C956 C948 1.378 . S
C956 C951 1.350 1_565 S
C957 H944 0.929 . S
C957 C949 1.433 . S
C957 N959 1.384 . S
N958 C954 1.427 1_565 S
N958 C955 1.384 . S
N959 C951 1.427 . S
N959 C957 1.384 . S
H960 C966 0.930 . S
H961 C970 0.930 . S
H962 C975 0.929 . S
H963 C973 0.929 . S
H964 C968 0.929 . S
H965 C974 0.929 . S
C966 H960 0.930 . S
C966 C967 1.367 . S
C966 C974 1.378 . S
C967 C966 1.367 . S
C967 C975 1.433 . S
C968 H964 0.929 . S
C968 C970 1.378 . S
C968 C972 1.350 . S
C969 C972 1.463 . S
C969 C974 1.350 . S
C969 N977 1.427 . S
C970 H961 0.930 . S
C970 C968 1.378 . S
C970 C971 1.367 . S
C971 C970 1.367 . S
C971 C973 1.433 . S
C972 C968 1.350 . S
C972 C969 1.463 . S
C972 N976 1.427 . S
C973 H963 0.929 . S
C973 C971 1.433 . S
C973 N976 1.384 . S
C974 H965 0.929 . S
C974 C966 1.378 . S
C974 C969 1.350 . S
C975 H962 0.929 . S
C975 C967 1.433 . S
C975 N977 1.384 . S
N976 C972 1.427 . S
N976 C973 1.384 . S
N977 C969 1.427 . S
N977 C975 1.384 . S
H978 C984 0.930 . S
H979 C988 0.930 . S
H980 C993 0.929 . S
H981 C991 0.929 . S
H982 C986 0.929 . S
H983 C992 0.929 . S
C984 H978 0.930 . S
C984 C985 1.367 . S
C984 C992 1.378 . S
C985 C984 1.367 . S
C985 C993 1.433 . S
C986 H982 0.929 . S
C986 C988 1.378 . S
C986 C990 1.350 . S
C987 C990 1.463 . S
C987 C992 1.350 . S
C987 N995 1.427 . S
C988 H979 0.930 . S
C988 C986 1.378 . S
C988 C989 1.367 . S
C989 C988 1.367 . S
C989 C991 1.433 . S
C990 C986 1.350 . S
C990 C987 1.463 . S
C990 N994 1.427 . S
C991 H981 0.929 . S
C991 C989 1.433 . S
C991 N994 1.384 . S
C992 H983 0.929 . S
C992 C984 1.378 . S
C992 C987 1.350 . S
C993 H980 0.929 . S
C993 C985 1.433 . S
C993 N995 1.384 . S
N994 C990 1.427 . S
N994 C991 1.384 . S
N995 C987 1.427 . S
N995 C993 1.384 . S
H996 C1002 0.930 . S
H997 C1006 0.930 . S
H998 C1011 0.929 . S
H999 C1009 0.929 . S
H1000 C1004 0.929 . S
H1001 C1010 0.929 . S
C1002 H996 0.930 . S
C1002 C1003 1.367 . S
C1002 C1010 1.378 . S
C1003 C1002 1.367 . S
C1003 C1011 1.433 . S
C1004 H1000 0.929 . S
C1004 C1006 1.378 . S
C1004 C1008 1.350 . S
C1005 C1008 1.463 . S
C1005 C1010 1.350 . S
C1005 N1013 1.427 . S
C1006 H997 0.930 . S
C1006 C1004 1.378 . S
C1006 C1007 1.367 . S
C1007 C1006 1.367 . S
C1007 C1009 1.433 . S
C1008 C1004 1.350 . S
C1008 C1005 1.463 . S
C1008 N1012 1.427 . S
C1009 H999 0.929 . S
C1009 C1007 1.433 . S
C1009 N1012 1.384 . S
C1010 H1001 0.929 . S
C1010 C1002 1.378 . S
C1010 C1005 1.350 . S
C1011 H998 0.929 . S
C1011 C1003 1.433 . S
C1011 N1013 1.384 . S
N1012 C1008 1.427 . S
N1012 C1009 1.384 . S
N1013 C1005 1.427 . S
N1013 C1011 1.384 . S
H1014 C1020 0.930 . S
H1015 C1024 0.930 . S
H1016 C1029 0.929 . S
H1017 C1027 0.929 . S
H1018 C1022 0.929 . S
H1019 C1028 0.929 . S
C1020 H1014 0.930 . S
C1020 C1021 1.367 . S
C1020 C1028 1.378 . S
C1021 C1020 1.367 . S
C1021 C1029 1.433 . S
C1022 H1018 0.929 . S
C1022 C1024 1.378 . S
C1022 C1026 1.350 . S
C1023 C1026 1.463 . S
C1023 C1028 1.350 . S
C1023 N1031 1.427 . S
C1024 H1015 0.930 . S
C1024 C1022 1.378 . S
C1024 C1025 1.367 . S
C1025 C1024 1.367 . S
C1025 C1027 1.433 . S
C1026 C1022 1.350 . S
C1026 C1023 1.463 . S
C1026 N1030 1.427 . S
C1027 H1017 0.929 . S
C1027 C1025 1.433 . S
C1027 N1030 1.384 . S
C1028 H1019 0.929 . S
C1028 C1020 1.378 . S
C1028 C1023 1.350 . S
C1029 H1016 0.929 . S
C1029 C1021 1.433 . S
C1029 N1031 1.384 . S
N1030 C1026 1.427 . S
N1030 C1027 1.384 . S
N1031 C1023 1.427 . S
N1031 C1029 1.384 . S
H1032 C1038 0.930 . S
H1033 C1042 0.930 . S
H1034 C1047 0.929 . S
H1035 C1045 0.929 . S
H1036 C1040 0.929 . S
H1037 C1046 0.929 . S
C1038 H1032 0.930 . S
C1038 C1039 1.367 . S
C1038 C1046 1.378 . S
C1039 C1038 1.367 . S
C1039 C1047 1.433 . S
C1040 H1036 0.929 . S
C1040 C1042 1.378 . S
C1040 C1044 1.350 . S
C1041 C1044 1.463 . S
C1041 C1046 1.350 . S
C1041 N1049 1.427 . S
C1042 H1033 0.930 . S
C1042 C1040 1.378 . S
C1042 C1043 1.367 . S
C1043 C1042 1.367 . S
C1043 C1045 1.433 . S
C1044 C1040 1.350 . S
C1044 C1041 1.463 . S
C1044 N1048 1.427 . S
C1045 H1035 0.929 . S
C1045 C1043 1.433 . S
C1045 N1048 1.384 . S
C1046 H1037 0.929 . S
C1046 C1038 1.378 . S
C1046 C1041 1.350 . S
C1047 H1034 0.929 . S
C1047 C1039 1.433 . S
C1047 N1049 1.384 . S
N1048 C1044 1.427 . S
N1048 C1045 1.384 . S
N1049 C1041 1.427 . S
N1049 C1047 1.384 . S
H1050 C1056 0.930 . S
H1051 C1060 0.930 . S
H1052 C1065 0.929 . S
H1053 C1063 0.929 . S
H1054 C1058 0.929 . S
H1055 C1064 0.929 . S
C1056 H1050 0.930 . S
C1056 C1057 1.367 . S
C1056 C1064 1.378 . S
C1057 C1056 1.367 . S
C1057 C1065 1.433 . S
C1058 H1054 0.929 . S
C1058 C1060 1.378 . S
C1058 C1062 1.350 . S
C1059 C1062 1.463 . S
C1059 C1064 1.350 . S
C1059 N1067 1.427 . S
C1060 H1051 0.930 . S
C1060 C1058 1.378 . S
C1060 C1061 1.367 . S
C1061 C1060 1.367 . S
C1061 C1063 1.433 . S
C1062 C1058 1.350 . S
C1062 C1059 1.463 . S
C1062 N1066 1.427 . S
C1063 H1053 0.929 . S
C1063 C1061 1.433 . S
C1063 N1066 1.384 . S
C1064 H1055 0.929 . S
C1064 C1056 1.378 . S
C1064 C1059 1.350 . S
C1065 H1052 0.929 . S
C1065 C1057 1.433 . S
C1065 N1067 1.384 . S
N1066 C1062 1.427 . S
N1066 C1063 1.384 . S
N1067 C1059 1.427 . S
N1067 C1065 1.384 . S
H1068 C1074 0.930 . S
H1069 C1078 0.930 . S
H1070 C1083 0.929 . S
H1071 C1081 0.929 . S
H1072 C1076 0.929 . S
H1073 C1082 0.929 . S
C1074 H1068 0.930 . S
C1074 C1075 1.367 . S
C1074 C1082 1.378 . S
C1075 C1074 1.367 . S
C1075 C1083 1.433 . S
C1076 H1072 0.929 . S
C1076 C1078 1.378 . S
C1076 C1080 1.350 . S
C1077 C1080 1.463 . S
C1077 C1082 1.350 . S
C1077 N1085 1.427 . S
C1078 H1069 0.930 . S
C1078 C1076 1.378 . S
C1078 C1079 1.367 . S
C1079 C1078 1.367 . S
C1079 C1081 1.433 . S
C1080 C1076 1.350 . S
C1080 C1077 1.463 . S
C1080 N1084 1.427 . S
C1081 H1071 0.929 . S
C1081 C1079 1.433 . S
C1081 N1084 1.384 . S
C1082 H1073 0.929 . S
C1082 C1074 1.378 . S
C1082 C1077 1.350 . S
C1083 H1070 0.929 . S
C1083 C1075 1.433 . S
C1083 N1085 1.384 . S
N1084 C1080 1.427 . S
N1084 C1081 1.384 . S
N1085 C1077 1.427 . S
N1085 C1083 1.384 . S
H1086 C1092 0.930 . S
H1087 C1096 0.930 . S
H1088 C1101 0.929 . S
H1089 C1099 0.929 . S
H1090 C1094 0.929 . S
H1091 C1100 0.929 . S
C1092 H1086 0.930 . S
C1092 C1093 1.367 . S
C1092 C1100 1.378 . S
C1093 C1092 1.367 . S
C1093 C1101 1.433 . S
C1094 H1090 0.929 . S
C1094 C1096 1.378 . S
C1094 C1098 1.350 . S
C1095 C1098 1.463 . S
C1095 C1100 1.350 . S
C1095 N1103 1.427 . S
C1096 H1087 0.930 . S
C1096 C1094 1.378 . S
C1096 C1097 1.367 . S
C1097 C1096 1.367 . S
C1097 C1099 1.433 . S
C1098 C1094 1.350 . S
C1098 C1095 1.463 . S
C1098 N1102 1.427 . S
C1099 H1089 0.929 . S
C1099 C1097 1.433 . S
C1099 N1102 1.384 . S
C1100 H1091 0.929 . S
C1100 C1092 1.378 . S
C1100 C1095 1.350 . S
C1101 H1088 0.929 . S
C1101 C1093 1.433 . S
C1101 N1103 1.384 . S
N1102 C1098 1.427 . S
N1102 C1099 1.384 . S
N1103 C1095 1.427 . S
N1103 C1101 1.384 . S
H1104 C1110 0.930 . S
H1105 C1114 0.930 . S
H1106 C1119 0.929 . S
H1107 C1117 0.929 . S
H1108 C1112 0.929 . S
H1109 C1118 0.929 . S
C1110 H1104 0.930 . S
C1110 C1111 1.367 . S
C1110 C1118 1.378 . S
C1111 C1110 1.367 . S
C1111 C1119 1.433 . S
C1112 H1108 0.929 . S
C1112 C1114 1.378 . S
C1112 C1116 1.350 . S
C1113 C1116 1.463 . S
C1113 C1118 1.350 . S
C1113 N1121 1.427 . S
C1114 H1105 0.930 . S
C1114 C1112 1.378 . S
C1114 C1115 1.367 . S
C1115 C1114 1.367 . S
C1115 C1117 1.433 . S
C1116 C1112 1.350 . S
C1116 C1113 1.463 . S
C1116 N1120 1.427 . S
C1117 H1107 0.929 . S
C1117 C1115 1.433 . S
C1117 N1120 1.384 . S
C1118 H1109 0.929 . S
C1118 C1110 1.378 . S
C1118 C1113 1.350 . S
C1119 H1106 0.929 . S
C1119 C1111 1.433 . S
C1119 N1121 1.384 . S
N1120 C1116 1.427 . S
N1120 C1117 1.384 . S
N1121 C1113 1.427 . S
N1121 C1119 1.384 . S
H1122 C1128 0.930 . S
H1123 C1132 0.930 . S
H1124 C1137 0.929 . S
H1125 C1135 0.929 . S
H1126 C1130 0.929 . S
H1127 C1136 0.929 . S
C1128 H1122 0.930 . S
C1128 C1129 1.367 . S
C1128 C1136 1.378 . S
C1129 C1128 1.367 . S
C1129 C1137 1.433 . S
C1130 H1126 0.929 . S
C1130 C1132 1.378 . S
C1130 C1134 1.350 . S
C1131 C1134 1.463 . S
C1131 C1136 1.350 . S
C1131 N1139 1.427 . S
C1132 H1123 0.930 . S
C1132 C1130 1.378 . S
C1132 C1133 1.367 . S
C1133 C1132 1.367 . S
C1133 C1135 1.433 . S
C1134 C1130 1.350 . S
C1134 C1131 1.463 . S
C1134 N1138 1.427 . S
C1135 H1125 0.929 . S
C1135 C1133 1.433 . S
C1135 N1138 1.384 . S
C1136 H1127 0.929 . S
C1136 C1128 1.378 . S
C1136 C1131 1.350 . S
C1137 H1124 0.929 . S
C1137 C1129 1.433 . S
C1137 N1139 1.384 . S
N1138 C1134 1.427 . S
N1138 C1135 1.384 . S
N1139 C1131 1.427 . S
N1139 C1137 1.384 . S
H1140 C1146 0.930 . S
H1141 C1150 0.930 . S
H1142 C1155 0.929 . S
H1143 C1153 0.929 . S
H1144 C1148 0.929 . S
H1145 C1154 0.929 . S
C1146 H1140 0.930 . S
C1146 C1147 1.367 . S
C1146 C1154 1.378 . S
C1147 C1146 1.367 . S
C1147 C1155 1.433 . S
C1148 H1144 0.929 . S
C1148 C1150 1.378 . S
C1148 C1152 1.350 . S
C1149 C1152 1.463 . S
C1149 C1154 1.350 . S
C1149 N1157 1.427 . S
C1150 H1141 0.930 . S
C1150 C1148 1.378 . S
C1150 C1151 1.367 . S
C1151 C1150 1.367 . S
C1151 C1153 1.433 . S
C1152 C1148 1.350 . S
C1152 C1149 1.463 . S
C1152 N1156 1.427 . S
C1153 H1143 0.929 . S
C1153 C1151 1.433 . S
C1153 N1156 1.384 . S
C1154 H1145 0.929 . S
C1154 C1146 1.378 . S
C1154 C1149 1.350 . S
C1155 H1142 0.929 . S
C1155 C1147 1.433 . S
C1155 N1157 1.384 . S
N1156 C1152 1.427 . S
N1156 C1153 1.384 . S
N1157 C1149 1.427 . S
N1157 C1155 1.384 . S
H1158 C1164 0.930 . S
H1159 C1168 0.930 . S
H1160 C1173 0.929 . S
H1161 C1171 0.929 . S
H1162 C1166 0.929 . S
H1163 C1172 0.929 . S
C1164 H1158 0.930 . S
C1164 C1165 1.367 . S
C1164 C1172 1.378 . S
C1165 C1164 1.367 . S
C1165 C1173 1.433 . S
C1166 H1162 0.929 . S
C1166 C1168 1.378 . S
C1166 C1170 1.350 . S
C1167 C1170 1.463 . S
C1167 C1172 1.350 . S
C1167 N1175 1.427 . S
C1168 H1159 0.930 . S
C1168 C1166 1.378 . S
C1168 C1169 1.367 . S
C1169 C1168 1.367 . S
C1169 C1171 1.433 . S
C1170 C1166 1.350 . S
C1170 C1167 1.463 . S
C1170 N1174 1.427 . S
C1171 H1161 0.929 . S
C1171 C1169 1.433 . S
C1171 N1174 1.384 . S
C1172 H1163 0.929 . S
C1172 C1164 1.378 . S
C1172 C1167 1.350 . S
C1173 H1160 0.929 . S
C1173 C1165 1.433 . S
C1173 N1175 1.384 . S
N1174 C1170 1.427 . S
N1174 C1171 1.384 . S
N1175 C1167 1.427 . S
N1175 C1173 1.384 . S
H1176 C1182 0.930 . S
H1177 C1186 0.930 . S
H1178 C1191 0.929 . S
H1179 C1189 0.929 . S
H1180 C1184 0.929 . S
H1181 C1190 0.929 . S
C1182 H1176 0.930 . S
C1182 C1183 1.367 . S
C1182 C1190 1.378 . S
C1183 C1182 1.367 . S
C1183 C1191 1.433 . S
C1184 H1180 0.929 . S
C1184 C1186 1.378 . S
C1184 C1188 1.350 . S
C1185 C1188 1.463 . S
C1185 C1190 1.350 . S
C1185 N1193 1.427 . S
C1186 H1177 0.930 . S
C1186 C1184 1.378 . S
C1186 C1187 1.367 . S
C1187 C1186 1.367 . S
C1187 C1189 1.433 . S
C1188 C1184 1.350 . S
C1188 C1185 1.463 . S
C1188 N1192 1.427 . S
C1189 H1179 0.929 . S
C1189 C1187 1.433 . S
C1189 N1192 1.384 . S
C1190 H1181 0.929 . S
C1190 C1182 1.378 . S
C1190 C1185 1.350 . S
C1191 H1178 0.929 . S
C1191 C1183 1.433 . S
C1191 N1193 1.384 . S
N1192 C1188 1.427 . S
N1192 C1189 1.384 . S
N1193 C1185 1.427 . S
N1193 C1191 1.384 . S
H1194 C1200 0.930 . S
H1195 C1204 0.930 . S
H1196 C1209 0.929 . S
H1197 C1207 0.929 . S
H1198 C1202 0.929 . S
H1199 C1208 0.929 . S
C1200 H1194 0.930 . S
C1200 C1201 1.367 . S
C1200 C1208 1.378 . S
C1201 C1200 1.367 . S
C1201 C1209 1.433 . S
C1202 H1198 0.929 . S
C1202 C1204 1.378 . S
C1202 C1206 1.350 . S
C1203 C1206 1.463 . S
C1203 C1208 1.350 . S
C1203 N1211 1.427 . S
C1204 H1195 0.930 . S
C1204 C1202 1.378 . S
C1204 C1205 1.367 . S
C1205 C1204 1.367 . S
C1205 C1207 1.433 . S
C1206 C1202 1.350 . S
C1206 C1203 1.463 . S
C1206 N1210 1.427 . S
C1207 H1197 0.929 . S
C1207 C1205 1.433 . S
C1207 N1210 1.384 . S
C1208 H1199 0.929 . S
C1208 C1200 1.378 . S
C1208 C1203 1.350 . S
C1209 H1196 0.929 . S
C1209 C1201 1.433 . S
C1209 N1211 1.384 . S
N1210 C1206 1.427 . S
N1210 C1207 1.384 . S
N1211 C1203 1.427 . S
N1211 C1209 1.384 . S
H1212 C1218 0.930 . S
H1213 C1222 0.930 . S
H1214 C1227 0.929 . S
H1215 C1225 0.929 . S
H1216 C1220 0.929 . S
H1217 C1226 0.929 . S
C1218 H1212 0.930 . S
C1218 C1219 1.367 . S
C1218 C1226 1.378 . S
C1219 C1218 1.367 . S
C1219 C1227 1.433 . S
C1220 H1216 0.929 . S
C1220 C1222 1.378 . S
C1220 C1224 1.350 . S
C1221 C1224 1.463 . S
C1221 C1226 1.350 . S
C1221 N1229 1.427 . S
C1222 H1213 0.930 . S
C1222 C1220 1.378 . S
C1222 C1223 1.367 . S
C1223 C1222 1.367 . S
C1223 C1225 1.433 . S
C1224 C1220 1.350 . S
C1224 C1221 1.463 . S
C1224 N1228 1.427 . S
C1225 H1215 0.929 . S
C1225 C1223 1.433 . S
C1225 N1228 1.384 . S
C1226 H1217 0.929 . S
C1226 C1218 1.378 . S
C1226 C1221 1.350 . S
C1227 H1214 0.929 . S
C1227 C1219 1.433 . S
C1227 N1229 1.384 . S
N1228 C1224 1.427 . S
N1228 C1225 1.384 . S
N1229 C1221 1.427 . S
N1229 C1227 1.384 . S
H1230 C1236 0.930 . S
H1231 C1240 0.930 . S
H1232 C1245 0.929 . S
H1233 C1243 0.929 . S
H1234 C1238 0.929 . S
H1235 C1244 0.929 . S
C1236 H1230 0.930 . S
C1236 C1237 1.367 . S
C1236 C1244 1.378 . S
C1237 C1236 1.367 . S
C1237 C1245 1.433 . S
C1238 H1234 0.929 . S
C1238 C1240 1.378 . S
C1238 C1242 1.350 . S
C1239 C1242 1.463 . S
C1239 C1244 1.350 . S
C1239 N1247 1.427 . S
C1240 H1231 0.930 . S
C1240 C1238 1.378 . S
C1240 C1241 1.367 . S
C1241 C1240 1.367 . S
C1241 C1243 1.433 . S
C1242 C1238 1.350 . S
C1242 C1239 1.463 . S
C1242 N1246 1.427 . S
C1243 H1233 0.929 . S
C1243 C1241 1.433 . S
C1243 N1246 1.384 . S
C1244 H1235 0.929 . S
C1244 C1236 1.378 . S
C1244 C1239 1.350 . S
C1245 H1232 0.929 . S
C1245 C1237 1.433 . S
C1245 N1247 1.384 . S
N1246 C1242 1.427 . S
N1246 C1243 1.384 . S
N1247 C1239 1.427 . S
N1247 C1245 1.384 . S
C535 C7 1.455 . S
C539 C139 1.450 . S
C553 C172 1.456 . S
C557 C40 1.447 . S
C571 C205 1.447 . S
C575 C73 1.455 . S
C589 C238 1.452 . S
C593 C106 1.450 . S
C607 C271 1.456 . S
C611 C403 1.449 . S
C625 C304 1.449 . S
C629 C436 1.453 . S
C643 C469 1.453 . S
C647 C337 1.449 . S
C661 C370 1.447 . S
C665 C502 1.455 . S
C679 N398 1.283 . S
C683 N13 1.275 . S
C697 N431 1.276 . S
C701 N46 1.269 . S
C715 N79 1.271 . S
C719 N464 1.280 . S
C733 N497 1.285 . S
C737 N112 1.280 . S
C751 N266 1.278 . S
C755 N145 1.274 . S
C769 N299 1.282 . S
C773 N178 1.274 . S
C787 N211 1.280 . S
C791 N332 1.285 . S
C805 N244 1.277 . S
C809 N365 1.280 . S
C823 N134 1.276 . S
C827 N277 1.269 . S
C841 N167 1.276 . S
C845 N310 1.269 . S
C859 N200 1.277 . S
C863 N343 1.271 . S
C877 N376 1.278 . S
C881 N233 1.285 . S
C895 N2 1.285 . S
C899 N409 1.280 . S
C913 N35 1.276 . S
C917 N442 1.271 . S
C931 N475 1.272 . S
C935 N68 1.277 . S
C949 N101 1.277 . S
C953 N508 1.269 . S
C967 C87 1.325 . S
C971 C21 1.327 . S
C985 C54 1.329 . S
C989 C120 1.323 . S
C1003 C219 1.324 . S
C1007 C153 1.328 . S
C1021 C252 1.329 . S
C1025 C186 1.324 . S
C1039 C351 1.327 . S
C1043 C285 1.326 . S
C1057 C384 1.324 . S
C1061 C318 1.329 . S
C1075 C417 1.329 . S
C1079 C483 1.323 . S
C1093 C516 1.328 . S
C1097 C450 1.324 . S
C1111 C249 1.235 . S
C1115 C18 1.240 . S
C1129 C150 1.237 . S
C1133 C51 1.246 . S
C1147 C183 1.245 . S
C1151 C84 1.243 . S
C1165 C216 1.234 . S
C1169 C117 1.242 . S
C1183 C513 1.246 . S
C1187 C282 1.236 . S
C1201 C414 1.245 . S
C1205 C315 1.241 . S
C1219 C447 1.246 . S
C1223 C348 1.240 . S
C1237 C480 1.241 . S
C1241 C381 1.246 . S
