# Generated by pormake.
# Topology qtz-e, (6)-cn, num edge types: 1
# Building blocks:
#     Node 0, Type 0, BuildingBlock: BETDAH_clean_sbu_0, # of connection points: 6
#     Node 1, Type 0, BuildingBlock: BETDAH_clean_sbu_0, # of connection points: 6
#     Node 2, Type 0, BuildingBlock: BETDAH_clean_sbu_0, # of connection points: 6
#     Node 3, Type 0, BuildingBlock: BETDAH_clean_sbu_0, # of connection points: 6
#     Node 4, Type 0, BuildingBlock: BETDAH_clean_sbu_0, # of connection points: 6
#     Node 5, Type 0, BuildingBlock: BETDAH_clean_sbu_0, # of connection points: 6
#     Edge 6, Type (0, 0), BuildingBlock: OJICUG_clean_linker_0, # of connection points: 2
#     Edge 7, Type (0, 0), BuildingBlock: OJICUG_clean_linker_0, # of connection points: 2
#     Edge 8, Type (0, 0), BuildingBlock: OJICUG_clean_linker_0, # of connection points: 2
#     Edge 9, Type (0, 0), BuildingBlock: OJICUG_clean_linker_0, # of connection points: 2
#     Edge 10, Type (0, 0), BuildingBlock: OJICUG_clean_linker_0, # of connection points: 2
#     Edge 11, Type (0, 0), BuildingBlock: OJICUG_clean_linker_0, # of connection points: 2
#     Edge 12, Type (0, 0), BuildingBlock: OJICUG_clean_linker_0, # of connection points: 2
#     Edge 13, Type (0, 0), BuildingBlock: OJICUG_clean_linker_0, # of connection points: 2
#     Edge 14, Type (0, 0), BuildingBlock: OJICUG_clean_linker_0, # of connection points: 2
#     Edge 15, Type (0, 0), BuildingBlock: OJICUG_clean_linker_0, # of connection points: 2
#     Edge 16, Type (0, 0), BuildingBlock: OJICUG_clean_linker_0, # of connection points: 2
#     Edge 17, Type (0, 0), BuildingBlock: OJICUG_clean_linker_0, # of connection points: 2
#     Edge 18, Type (0, 0), BuildingBlock: OJICUG_clean_linker_0, # of connection points: 2
#     Edge 19, Type (0, 0), BuildingBlock: OJICUG_clean_linker_0, # of connection points: 2
#     Edge 20, Type (0, 0), BuildingBlock: OJICUG_clean_linker_0, # of connection points: 2
#     Edge 21, Type (0, 0), BuildingBlock: OJICUG_clean_linker_0, # of connection points: 2
#     Edge 22, Type (0, 0), BuildingBlock: OJICUG_clean_linker_0, # of connection points: 2
#     Edge 23, Type (0, 0), BuildingBlock: OJICUG_clean_linker_0, # of connection points: 2
# Relax obj value: 0.088
# Max RMSD: 0.183
# Mean RMSD: 0.183
data_MOF--net-qtz-e--node1-BETDAH_clean_sbu_0--edge1-OJICUG_clean_linker_0
_symmetry_space_group_name_H-M    P1
_symmetry_Int_Tables_number       1
_symmetry_cell_setting            triclinic
loop_
_symmetry_equiv_pos_as_xyz
'x, y, z'
_cell_length_a     19.176947
_cell_length_b     19.19618
_cell_length_c     41.597565
_cell_angle_alpha  89.989177
_cell_angle_beta   90.198887
_cell_angle_gamma 119.55593
loop_
_atom_site_label
_atom_site_type_symbol
_atom_site_fract_x
_atom_site_fract_y
_atom_site_fract_z
_atom_type_partial_charge
Ho0 Ho 0.18451 0.5008 0.09819 0.0
Ho1 Ho 0.16087 0.34291 0.06157 0.0
C2 C 0.13551 0.33976 0.13989 0.0
C3 C 0.16102 0.60752 0.12544 0.0
C4 C 0.19318 0.64982 0.15589 0.0
C5 C 0.14091 0.65589 0.17763 0.0
C6 C 0.16399 0.67591 0.2096 0.0
C7 C 0.23964 0.6901 0.22018 0.0
C8 C 0.29442 0.69063 0.19789 0.0
C9 C 0.27114 0.6701 0.1659 0.0
C10 C 0.32428 0.49862 0.09647 0.0
C11 C 0.23624 0.50879 1.02556 0.0
C12 C 0.16703 0.23002 0.02961 0.0
C13 C 0.19087 0.22264 0.99596 0.0
C14 C 0.27189 0.25271 0.98775 0.0
C15 C 0.29416 0.24603 0.95625 0.0
C16 C 0.23632 0.20921 0.93167 0.0
C17 C 0.15509 0.17824 0.94002 0.0
C18 C 0.13277 0.18465 0.97164 0.0
C19 C 0.04685 0.38757 0.05526 0.0
O20 O 0.15647 0.41679 0.13943 0.0
O21 O 0.13072 0.29772 0.11344 0.0
O22 O 0.21261 0.62428 0.10212 0.0
O23 O 0.11233 0.53058 0.12872 0.0
O24 O 0.31588 0.55399 0.11079 0.0
O25 O 0.25665 0.44659 0.08611 0.0
O26 O 0.24329 0.44486 0.03098 0.0
O27 O 0.19763 0.53194 0.04538 0.0
O28 O 0.10106 0.23378 0.03312 0.0
O29 O 0.22395 0.27895 0.04919 0.0
O30 O 0.06957 0.35947 0.03162 0.0
O31 O 0.08529 0.38947 0.07985 0.0
H32 H 0.08048 0.63996 0.1704 0.0
H33 H 0.12125 0.67643 0.22645 0.0
H34 H 0.35297 0.70151 0.20561 0.0
H35 H 0.31238 0.66531 0.14957 0.0
H36 H 0.31859 0.28155 1.00572 0.0
H37 H 0.35718 0.26917 0.95135 0.0
H38 H 0.10845 0.15008 0.92201 0.0
H39 H 0.06973 0.16013 0.97699 0.0
Ho40 Ho 0.71401 0.22585 0.41734 0.0
Ho41 Ho 0.82066 0.16259 0.3917 0.0
C42 C 0.78335 0.14247 0.46783 0.0
C43 C 0.61365 0.2578 0.44549 0.0
C44 C 0.57833 0.24156 0.47744 0.0
C45 C 0.57585 0.17936 0.4959 0.0
C46 C 0.55942 0.17499 0.52864 0.0
C47 C 0.54501 0.23268 0.5433 0.0
C48 C 0.54397 0.29274 0.52435 0.0
C49 C 0.5608 0.29724 0.4916 0.0
C50 C 0.86191 0.34207 0.40187 0.0
C51 C 0.74543 0.23375 0.34309 0.0
C52 C 0.9325 0.14472 0.36517 0.0
C53 C 0.96619 0.16845 0.33212 0.0
C54 C 0.98348 0.24333 0.31957 0.0
C55 C 0.0127 0.26556 0.2883 0.0
C56 C 0.02574 0.21379 0.26836 0.0
C57 C 0.00711 0.1381 0.28063 0.0
C58 C 0.97784 0.11579 0.3122 0.0
C59 C 0.65915 0.06418 0.38722 0.0
O60 O 0.74305 0.18145 0.46305 0.0
O61 O 0.81915 0.12648 0.44382 0.0
O62 O 0.69115 0.30561 0.44581 0.0
O63 O 0.59122 0.19643 0.42613 0.0
O64 O 0.79675 0.34415 0.39624 0.0
O65 O 0.846 0.27677 0.41548 0.0
O66 O 0.81149 0.23333 0.3513 0.0
O67 O 0.68786 0.21692 0.3642 0.0
O68 O 0.85832 0.08645 0.36713 0.0
O69 O 0.94688 0.20349 0.38493 0.0
O70 O 0.7081 0.07184 0.36433 0.0
O71 O 0.69865 0.10758 0.41022 0.0
H72 H 0.59044 0.13656 0.48536 0.0
H73 H 0.56121 0.12835 0.54267 0.0
H74 H 0.53144 0.33695 0.53492 0.0
H75 H 0.56356 0.34619 0.47763 0.0
H76 H 0.974 0.28505 0.33389 0.0
H77 H 0.02437 0.32351 0.2796 0.0
H78 H 0.01638 0.09668 0.26605 0.0
H79 H 0.96421 0.05736 0.32105 0.0
Ho80 Ho 0.47409 0.67469 0.76377 0.0
Ho81 Ho 0.62113 0.80661 0.72761 0.0
C82 C 0.63812 0.77972 0.80427 0.0
C83 C 0.37549 0.55272 0.79711 0.0
C84 C 0.34577 0.55014 0.82967 0.0
C85 C 0.34198 0.49259 0.8513 0.0
C86 C 0.32631 0.49742 0.88365 0.0
C87 C 0.31408 0.55982 0.89472 0.0
C88 C 0.31453 0.61544 0.87283 0.0
C89 C 0.33105 0.61111 0.84052 0.0
C90 C 0.47407 0.81409 0.76037 0.0
C91 C 0.45416 0.71484 0.6927 0.0
C92 C 0.73112 0.92695 0.69589 0.0
C93 C 0.73946 0.95246 0.6615 0.0
C94 C 0.67387 0.94767 0.64427 0.0
C95 C 0.68308 0.97651 0.61267 0.0
C96 C 0.75794 0.01041 0.59713 0.0
C97 C 0.82291 0.01259 0.61397 0.0
C98 C 0.81383 0.98434 0.64581 0.0
C99 C 0.58052 0.65024 0.71714 0.0
O100 O 0.56021 0.72801 0.8047 0.0
O101 O 0.67663 0.81846 0.77764 0.0
O102 O 0.35234 0.58601 0.77533 0.0
O103 O 0.45193 0.5766 0.79546 0.0
O104 O 0.40998 0.74521 0.76299 0.0
O105 O 0.53589 0.80687 0.76342 0.0
O106 O 0.5151 0.78645 0.6988 0.0
O107 O 0.43722 0.65313 0.71162 0.0
O108 O 0.73569 0.86252 0.70244 0.0
O109 O 0.67423 0.92975 0.71214 0.0
O110 O 0.60148 0.70239 0.69421 0.0
O111 O 0.58174 0.68429 0.74274 0.0
H112 H 0.35403 0.44576 0.84339 0.0
H113 H 0.32507 0.45315 0.90017 0.0
H114 H 0.3054 0.66398 0.88094 0.0
H115 H 0.33512 0.6571 0.82428 0.0
H116 H 0.61539 0.92261 0.65537 0.0
H117 H 0.63129 0.97243 0.60038 0.0
H118 H 0.88146 0.03844 0.6029 0.0
H119 H 0.86538 -0.01135 0.65838 0.0
Ho120 Ho 0.74273 0.49036 0.08457 0.0
Ho121 Ho 0.81073 0.66011 0.05983 0.0
C122 C 0.82782 0.64037 0.13587 0.0
C123 C 0.70472 0.35682 0.11272 0.0
C124 C 0.71846 0.33552 0.14481 0.0
C125 C 0.78004 0.39273 0.16416 0.0
C126 C 0.78415 0.37697 0.19658 0.0
C127 C 0.72661 0.30385 0.21003 0.0
C128 C 0.66622 0.24596 0.19033 0.0
C129 C 0.66218 0.26183 0.15788 0.0
C130 C 0.62975 0.52802 0.06797 0.0
C131 C 0.73994 0.51678 1.01028 0.0
C132 C 0.83005 0.78967 0.03297 0.0
C133 C 0.80659 0.79913 0.99955 0.0
C134 C 0.72719 0.75099 0.98878 0.0
C135 C 0.706 0.7534 0.95674 0.0
C136 C 0.76343 0.80334 0.93406 0.0
C137 C 0.84252 0.85363 0.94499 0.0
C138 C 0.86384 0.85135 0.97733 0.0
C139 C 0.90703 0.59318 0.05601 0.0
O140 O 0.78643 0.56179 0.1308 0.0
O141 O 0.8468 0.69281 0.11199 0.0
O142 O 0.65914 0.38965 0.1125 0.0
O143 O 0.76731 0.39357 0.09395 0.0
O144 O 0.62715 0.46109 0.06133 0.0
O145 O 0.69452 0.57409 0.08265 0.0
O146 O 0.74132 0.58349 1.0186 0.0
O147 O 0.75416 0.47407 0.03157 0.0
O148 O 0.88822 0.77287 0.03554 0.0
O149 O 0.77122 0.74702 0.05278 0.0
O150 O 0.90165 0.63648 0.03328 0.0
O151 O 0.86285 0.58959 0.07866 0.0
H152 H 0.82316 0.45054 0.15451 0.0
H153 H 0.83091 0.42291 0.21131 0.0
H154 H 0.62192 0.18873 0.20005 0.0
H155 H 0.61361 0.21767 0.14324 0.0
H156 H 0.68112 0.70966 1.00492 0.0
H157 H 0.64408 0.71506 0.94971 0.0
H158 H 0.88855 0.89278 0.92836 0.0
H159 H 0.92557 0.88896 0.98478 0.0
Ho160 Ho 0.29286 0.776 0.42701 0.0
Ho161 Ho 0.16047 0.79919 0.39459 0.0
C162 C 0.18353 0.82178 0.47226 0.0
C163 C 0.41038 0.78951 0.46162 0.0
C164 C 0.41008 0.76639 0.49521 0.0
C165 C 0.46896 0.82013 0.51634 0.0
C166 C 0.46324 0.80333 0.54912 0.0
C167 C 0.39869 0.73235 0.56114 0.0
C168 C 0.34109 0.67737 0.53989 0.0
C169 C 0.34626 0.69462 0.50714 0.0
C170 C 0.1553 0.63916 0.4176 0.0
C171 C 0.2605 0.74035 0.35375 0.0
C172 C 0.03528 0.78851 0.36573 0.0
C173 C 0.00669 0.77618 0.33172 0.0
C174 C 0.92411 0.73242 0.32521 0.0
C175 C 0.89545 0.71417 0.29348 0.0
C176 C 0.94858 0.73937 0.26721 0.0
C177 C 0.03149 0.78455 0.27375 0.0
C178 C 0.06022 0.80226 0.30562 0.0
C179 C 0.31525 0.91819 0.38723 0.0
O180 O 0.23265 0.79186 0.47029 0.0
O181 O 0.14967 0.83372 0.44625 0.0
O182 O 0.37134 0.73076 0.4414 0.0
O183 O 0.3956 0.84835 0.45732 0.0
O184 O 0.22522 0.64463 0.41719 0.0
O185 O 0.16075 0.70536 0.42549 0.0
O186 O 0.1878 0.7273 0.3602 0.0
O187 O 0.32043 0.77734 0.37436 0.0
O188 O 0.09838 0.85703 0.37331 0.0
O189 O 0.0371 0.72767 0.37899 0.0
O190 O 0.26322 0.89368 0.36399 0.0
O191 O 0.28177 0.8783 0.4117 0.0
H192 H 0.518 0.87606 0.50762 0.0
H193 H 0.50892 0.84614 0.56518 0.0
H194 H 0.29085 0.62253 0.54875 0.0
H195 H 0.29914 0.65284 0.49132 0.0
H196 H 0.88151 0.71103 0.34481 0.0
H197 H 0.83131 0.67997 0.28951 0.0
H198 H 0.07433 0.80413 0.25427 0.0
H199 H 0.12431 0.83502 0.30987 0.0
Ho200 Ho 0.49663 0.25566 0.7518 0.0
Ho201 Ho 0.32798 0.14509 0.7259 0.0
C202 C 0.34356 0.19066 0.80138 0.0
C203 C 0.62867 0.35641 0.77963 0.0
C204 C 0.65039 0.39598 0.81086 0.0
C205 C 0.59426 0.4061 0.82872 0.0
C206 C 0.60839 0.4265 0.86117 0.0
C207 C 0.67899 0.43716 0.87608 0.0
C208 C 0.73675 0.43079 0.8576 0.0
C209 C 0.72238 0.41014 0.82519 0.0
C210 C 0.46728 0.10629 0.739 0.0
C211 C 0.47414 0.21879 0.67795 0.0
C212 C 0.20165 0.03054 0.69893 0.0
C213 C 0.19215 -0.0027 0.66566 0.0
C214 C 0.2509 0.98191 0.65268 0.0
C215 C 0.24372 0.9523 0.62135 0.0
C216 C 0.1774 0.93668 0.60179 0.0
C217 C 0.11905 0.95329 0.61455 0.0
C218 C 0.12631 0.9831 0.64612 0.0
C219 C 0.38731 0.30604 0.71928 0.0
O220 O 0.42212 0.23471 0.7966 0.0
O221 O 0.29295 0.14817 0.77784 0.0
O222 O 0.59746 0.27878 0.7815 0.0
O223 O 0.59047 0.37833 0.75943 0.0
O224 O 0.53329 0.17085 0.73264 0.0
O225 O 0.41767 0.12357 0.75164 0.0
O226 O 0.40948 0.15267 0.6866 0.0
O227 O 0.51338 0.27819 0.69852 0.0
O228 O 0.21336 0.10354 0.70145 0.0
O229 O 0.24853 0.0183 0.71829 0.0
O230 O 0.34636 0.25488 0.69694 0.0
O231 O 0.39255 0.26874 0.74288 0.0
H232 H 0.53809 0.39462 0.81797 0.0
H233 H 0.56264 0.43071 0.87485 0.0
H234 H 0.79234 0.44034 0.86834 0.0
H235 H 0.76584 0.40163 0.81168 0.0
H236 H 0.30305 -0.007 0.66673 0.0
H237 H 0.29101 0.94231 0.61235 0.0
H238 H 0.06706 0.94195 0.60035 0.0
H239 H 0.08038 -0.00506 0.6553 0.0
C240 C 0.33297 0.77179 0.30149 0.0
C241 C 0.27173 0.71705 0.32154 0.0
H242 H 0.37014 0.80669 0.25264 0.0
C243 C 0.20825 0.64728 0.30831 0.0
H244 H 0.3825 0.82578 0.31131 0.0
C245 C 0.20086 0.63677 0.27524 0.0
C246 C 0.25696 0.69578 0.25486 0.0
H247 H 0.16071 0.6039 0.32345 0.0
H248 H 0.1488 0.58456 0.26551 0.0
C249 C 0.32554 0.76121 0.26808 0.0
C250 C 0.55006 0.29763 0.62976 0.0
C251 C 0.49984 0.22383 0.64442 0.0
H252 H 0.60425 0.35835 0.58586 0.0
C253 C 0.46787 0.15325 0.62599 0.0
H254 H 0.57521 0.35282 0.64345 0.0
C255 C 0.48311 0.15637 0.5933 0.0
C256 C 0.53131 0.2301 0.57827 0.0
H257 H 0.4295 0.09523 0.63665 0.0
H258 H 0.45532 0.10103 0.57966 0.0
C259 C 0.56567 0.30075 0.59683 0.0
C260 C 0.219 0.56243 0.9736 0.0
C261 C 0.26775 0.54863 0.99486 0.0
H262 H 0.19553 0.57616 0.92417 0.0
C263 C 0.33894 0.55341 0.98374 0.0
H264 H 0.16358 0.55839 0.98179 0.0
C265 C 0.35667 0.56267 0.95118 0.0
C266 C 0.30347 0.5674 0.9293 0.0
H267 H 0.37753 0.5433 0.99991 0.0
H268 H 0.40945 0.56121 0.94287 0.0
C269 C 0.23688 0.57181 0.94076 0.0
C270 C 0.80861 0.29129 0.29073 0.0
C271 C 0.73912 0.25525 0.30974 0.0
H272 H 0.85869 0.33358 0.24436 0.0
C273 C 0.66513 0.23704 0.29602 0.0
H274 H 0.86676 0.30659 0.30062 0.0
C275 C 0.66073 0.25306 0.2635 0.0
C276 C 0.73035 0.28792 0.24449 0.0
H277 H 0.61074 0.20902 0.31015 0.0
H278 H 0.60307 0.23834 0.25324 0.0
C279 C 0.80426 0.30736 0.25849 0.0
C280 C 0.41013 0.77191 0.6496 0.0
C281 C 0.41384 0.70563 0.6618 0.0
H282 H 0.40198 0.83186 0.6077 0.0
C283 C 0.39714 0.64087 0.64152 0.0
H284 H 0.42205 0.82222 0.66498 0.0
C285 C 0.38619 0.64675 0.60855 0.0
C286 C 0.39185 0.71731 0.59596 0.0
H287 H 0.39996 0.58937 0.65051 0.0
H288 H 0.37969 0.59913 0.5927 0.0
C289 C 0.39941 0.77781 0.61689 0.0
C290 C 0.73769 0.43473 0.96304 0.0
C291 C 0.72011 0.49105 0.97664 0.0
H292 H 0.73814 0.37314 0.92015 0.0
C293 C 0.68666 0.52722 0.95726 0.0
H294 H 0.76363 0.4062 0.97745 0.0
C295 C 0.67275 0.509 0.92477 0.0
C296 C 0.69202 0.45429 0.91084 0.0
H297 H 0.67187 0.57059 0.96706 0.0
H298 H 0.64843 0.53906 0.9104 0.0
C299 C 0.72392 0.4166 0.93027 0.0
C300 C 0.4725 0.56931 0.10245 0.0
C301 C 0.40257 0.50707 0.08843 0.0
H302 H 0.60057 0.62636 0.10643 0.0
C303 C 0.40918 0.45773 0.06533 0.0
H304 H 0.46893 0.60911 0.12001 0.0
C305 C 0.48432 0.46857 0.05719 0.0
C306 C 0.55405 0.5286 0.07218 0.0
H307 H 0.35662 0.41094 0.05356 0.0
H308 H 0.48762 0.42821 0.03983 0.0
C309 C 0.54782 0.58004 0.0944 0.0
C310 C 0.00662 0.56083 0.41506 0.0
C311 C 0.08047 0.56309 0.41358 0.0
H312 H 0.87962 0.48891 0.41187 0.0
C313 C 0.08263 0.49168 0.40836 0.0
H314 H 0.00331 0.61454 0.41979 0.0
C315 C 0.01153 0.41885 0.40478 0.0
C316 C 0.93781 0.41715 0.40564 0.0
H317 H 0.13921 0.492 0.40725 0.0
H318 H 0.01419 0.36442 0.40097 0.0
C319 C 0.93595 0.48871 0.41067 0.0
C320 C 0.39602 0.95824 0.74777 0.0
C321 C 0.46745 0.03067 0.74403 0.0
H322 H 0.34248 0.83196 0.75546 0.0
C323 C 0.54126 0.03172 0.7462 0.0
H324 H 0.33862 0.95613 0.74636 0.0
C325 C 0.5437 0.96166 0.75231 0.0
C326 C 0.47245 0.88896 0.75537 0.0
H327 H 0.59755 0.08711 0.74386 0.0
H328 H 0.60122 0.96452 0.75477 0.0
C329 C 0.3985 0.8876 0.75308 0.0
C330 C 0.49878 0.51978 0.68641 0.0
C331 C 0.53707 0.56194 0.71465 0.0
H332 H 0.41978 0.40387 0.66544 0.0
C333 C 0.52648 0.51909 0.74318 0.0
H334 H 0.5059 0.5516 0.6641 0.0
C335 C 0.47563 0.43702 0.74425 0.0
C336 C 0.43656 0.39407 0.71646 0.0
H337 H 0.55623 0.54958 0.7652 0.0
H338 H 0.46724 0.40701 0.76715 0.0
C339 C 0.44883 0.43581 0.68729 0.0
C340 C 0.00147 0.47215 1.02456 0.0
C341 C 0.00465 0.43419 0.05302 0.0
H342 H 0.96856 0.5542 1.00302 0.0
C343 C 0.97437 0.44788 0.08146 0.0
H344 H 0.0247 0.46257 1.00232 0.0
C345 C 0.94501 0.50109 0.08209 0.0
C346 C 0.94267 0.54041 0.05403 0.0
H347 H 0.97504 0.41854 0.10363 0.0
H348 H 0.92399 0.51143 0.10478 0.0
C349 C 0.97055 0.52521 1.02507 0.0
C350 C 0.4473 -0.00862 0.41332 0.0
C351 C 0.40343 0.96389 0.38468 0.0
H352 H 0.56082 0.03994 0.43654 0.0
C353 C 0.44452 0.97198 0.35575 0.0
H354 H 0.41742 0.98739 0.43588 0.0
C355 C 0.5283 0.00374 0.35602 0.0
C356 C 0.57114 0.02784 0.38521 0.0
H357 H 0.41187 0.95191 0.3333 0.0
H358 H 0.5593 0.00933 0.33363 0.0
C359 C 0.52959 0.02152 0.41369 0.0
C360 C 0.23898 0.13406 0.84588 0.0
C361 C 0.313 0.19454 0.83412 0.0
H362 H 0.15751 0.08959 0.88574 0.0
C363 C 0.35957 0.26049 0.85429 0.0
H364 H 0.20141 0.08238 0.83111 0.0
C365 C 0.33404 0.26557 0.88529 0.0
C366 C 0.26123 0.20422 0.89767 0.0
H367 H 0.416 0.30927 0.84603 0.0
H368 H 0.37162 0.31846 0.89944 0.0
C369 C 0.21368 0.13856 0.87728 0.0
C370 C 0.02998 0.19026 0.20812 0.0
C371 C 0.05988 0.24077 0.23531 0.0
H372 H 0.03041 0.18117 0.15639 0.0
C373 C 0.12086 0.32024 0.23059 0.0
H374 H 0.98302 0.12865 0.21081 0.0
C375 C 0.14765 0.34993 0.19974 0.0
C376 C 0.11484 0.3013 0.17233 0.0
H377 H 0.1471 0.36049 0.25084 0.0
H378 H 0.19304 0.41233 0.19736 0.0
C379 C 0.05723 0.22025 0.17691 0.0
C380 C 0.73282 0.09314 0.55652 0.0
C381 C 0.76812 0.04605 0.5641 0.0
H382 H 0.71182 0.16153 0.5213 0.0
C383 C 0.81223 0.0336 0.5399 0.0
H384 H 0.6997 0.1055 0.57454 0.0
C385 C 0.8187 0.06553 0.50876 0.0
C386 C 0.78215 0.11168 0.50116 0.0
H387 H 0.84016 -0.00246 0.5448 0.0
H388 H 0.85148 0.0532 0.4906 0.0
C389 C 0.74013 0.12571 0.52577 0.0
C390 C 0.65535 0.71984 0.85453 0.0
C391 C 0.681 0.78841 0.83531 0.0
H392 H 0.66235 0.67045 0.89951 0.0
C393 C 0.74007 0.86252 0.84773 0.0
H394 H 0.61089 0.66149 0.84561 0.0
C395 C 0.76918 0.86795 0.87947 0.0
C396 C 0.73997 0.79931 0.89923 0.0
H397 H 0.76082 0.91649 0.83359 0.0
H398 H 0.81201 0.92623 0.88891 0.0
C399 C 0.68457 0.72507 0.88573 0.0
C400 C 0.85536 0.6375 0.22673 0.0
C401 C 0.91729 0.71572 0.23343 0.0
H402 H 0.77909 0.55296 0.1914 0.0
C403 C 0.94858 0.77015 0.20761 0.0
H404 H 0.83034 0.59344 0.24574 0.0
C405 C 0.91846 0.74696 0.17611 0.0
C406 C 0.85701 0.66834 0.16947 0.0
H407 H -0.00401 0.831 0.2118 0.0
H408 H 0.94437 0.79026 0.15688 0.0
C409 C 0.82606 0.61415 0.19534 0.0
C410 C 0.19321 0.84416 0.56324 0.0
C411 C 0.16987 0.90208 0.56863 0.0
H412 H 0.21419 0.77302 0.52945 0.0
C413 C 0.14296 0.92804 0.54194 0.0
H414 H 0.21232 0.82087 0.58306 0.0
C415 C 0.14337 0.89966 0.51063 0.0
C416 C 0.17058 0.84457 0.50529 0.0
H417 H 0.12457 0.97264 0.54505 0.0
H418 H 0.12551 0.92327 0.49054 0.0
C419 C 0.19369 0.81612 0.53226 0.0
loop_
_geom_bond_atom_site_label_1
_geom_bond_atom_site_label_2
_geom_bond_distance
_geom_bond_site_symmetry_2
_ccdc_geom_bond_type
Ho0 C3 2.811 . S
Ho0 O20 2.322 . S
Ho0 O22 2.378 . S
Ho0 O23 2.524 . S
Ho0 O24 2.381 . S
Ho0 O25 2.669 . S
Ho0 O27 2.346 . S
Ho0 O31 2.305 . S
Ho1 C12 2.811 1_554 S
Ho1 O21 2.346 . S
Ho1 O25 2.305 . S
Ho1 O26 2.322 1_554 S
Ho1 O28 2.378 1_554 S
Ho1 O29 2.524 1_554 S
Ho1 O30 2.381 . S
Ho1 O31 2.669 . S
C2 O20 1.259 . S
C2 O21 1.268 . S
C3 Ho0 2.811 . S
C3 C4 1.488 . S
C3 O22 1.215 . S
C3 O23 1.289 . S
C4 C3 1.488 . S
C4 C5 1.348 . S
C4 C9 1.413 . S
C5 C4 1.348 . S
C5 C6 1.442 . S
C5 H32 0.930 . S
C6 C5 1.442 . S
C6 C7 1.381 . S
C6 H33 0.931 . S
C7 C6 1.381 . S
C7 C8 1.321 . S
C8 C7 1.321 . S
C8 C9 1.403 . S
C8 H34 0.934 . S
C9 C4 1.413 . S
C9 C8 1.403 . S
C9 H35 0.930 . S
C10 O24 1.275 . S
C10 O25 1.256 . S
C11 O26 1.259 . S
C11 O27 1.268 1_556 S
C12 Ho1 2.811 1_556 S
C12 C13 1.488 . S
C12 O28 1.215 . S
C12 O29 1.289 . S
C13 C12 1.488 . S
C13 C14 1.348 . S
C13 C18 1.413 . S
C14 C13 1.348 . S
C14 C15 1.442 . S
C14 H36 0.930 . S
C15 C14 1.442 . S
C15 C16 1.381 . S
C15 H37 0.931 . S
C16 C15 1.381 . S
C16 C17 1.321 . S
C17 C16 1.321 . S
C17 C18 1.403 . S
C17 H38 0.934 . S
C18 C13 1.413 . S
C18 C17 1.403 . S
C18 H39 0.930 . S
C19 O30 1.275 . S
C19 O31 1.256 . S
O20 Ho0 2.322 . S
O20 C2 1.259 . S
O21 Ho1 2.346 . S
O21 C2 1.268 . S
O22 Ho0 2.378 . S
O22 C3 1.215 . S
O23 Ho0 2.524 . S
O23 C3 1.289 . S
O24 Ho0 2.381 . S
O24 C10 1.275 . S
O25 Ho0 2.669 . S
O25 Ho1 2.305 . S
O25 C10 1.256 . S
O26 Ho1 2.322 1_556 S
O26 C11 1.259 . S
O27 Ho0 2.346 . S
O27 C11 1.268 1_554 S
O28 Ho1 2.378 1_556 S
O28 C12 1.215 . S
O29 Ho1 2.524 1_556 S
O29 C12 1.289 . S
O30 Ho1 2.381 . S
O30 C19 1.275 . S
O31 Ho0 2.305 . S
O31 Ho1 2.669 . S
O31 C19 1.256 . S
H32 C5 0.930 . S
H33 C6 0.931 . S
H34 C8 0.934 . S
H35 C9 0.930 . S
H36 C14 0.930 . S
H37 C15 0.931 . S
H38 C17 0.934 . S
H39 C18 0.930 . S
Ho40 C43 2.811 . S
Ho40 O60 2.322 . S
Ho40 O62 2.378 . S
Ho40 O63 2.524 . S
Ho40 O64 2.381 . S
Ho40 O65 2.669 . S
Ho40 O67 2.346 . S
Ho40 O71 2.305 . S
Ho41 C52 2.811 . S
Ho41 O61 2.346 . S
Ho41 O65 2.305 . S
Ho41 O66 2.322 . S
Ho41 O68 2.378 . S
Ho41 O69 2.524 . S
Ho41 O70 2.381 . S
Ho41 O71 2.669 . S
C42 O60 1.259 . S
C42 O61 1.268 . S
C43 Ho40 2.811 . S
C43 C44 1.488 . S
C43 O62 1.215 . S
C43 O63 1.289 . S
C44 C43 1.488 . S
C44 C45 1.348 . S
C44 C49 1.413 . S
C45 C44 1.348 . S
C45 C46 1.442 . S
C45 H72 0.930 . S
C46 C45 1.442 . S
C46 C47 1.381 . S
C46 H73 0.931 . S
C47 C46 1.381 . S
C47 C48 1.321 . S
C48 C47 1.321 . S
C48 C49 1.403 . S
C48 H74 0.934 . S
C49 C44 1.413 . S
C49 C48 1.403 . S
C49 H75 0.930 . S
C50 O64 1.275 . S
C50 O65 1.256 . S
C51 O66 1.259 . S
C51 O67 1.268 . S
C52 Ho41 2.811 . S
C52 C53 1.488 . S
C52 O68 1.215 . S
C52 O69 1.289 . S
C53 C52 1.488 . S
C53 C54 1.348 1_655 S
C53 C58 1.413 . S
C54 C53 1.348 1_455 S
C54 C55 1.442 . S
C54 H76 0.930 . S
C55 C54 1.442 . S
C55 C56 1.381 . S
C55 H77 0.931 . S
C56 C55 1.381 . S
C56 C57 1.321 1_455 S
C57 C56 1.321 1_655 S
C57 C58 1.403 . S
C57 H78 0.934 . S
C58 C53 1.413 . S
C58 C57 1.403 . S
C58 H79 0.930 . S
C59 O70 1.275 . S
C59 O71 1.256 . S
O60 Ho40 2.322 . S
O60 C42 1.259 . S
O61 Ho41 2.346 . S
O61 C42 1.268 . S
O62 Ho40 2.378 . S
O62 C43 1.215 . S
O63 Ho40 2.524 . S
O63 C43 1.289 . S
O64 Ho40 2.381 . S
O64 C50 1.275 . S
O65 Ho40 2.669 . S
O65 Ho41 2.305 . S
O65 C50 1.256 . S
O66 Ho41 2.322 . S
O66 C51 1.259 . S
O67 Ho40 2.346 . S
O67 C51 1.268 . S
O68 Ho41 2.378 . S
O68 C52 1.215 . S
O69 Ho41 2.524 . S
O69 C52 1.289 . S
O70 Ho41 2.381 . S
O70 C59 1.275 . S
O71 Ho40 2.305 . S
O71 Ho41 2.669 . S
O71 C59 1.256 . S
H72 C45 0.930 . S
H73 C46 0.931 . S
H74 C48 0.934 . S
H75 C49 0.930 . S
H76 C54 0.930 . S
H77 C55 0.931 . S
H78 C57 0.934 . S
H79 C58 0.930 . S
Ho80 C83 2.811 . S
Ho80 O100 2.322 . S
Ho80 O102 2.378 . S
Ho80 O103 2.524 . S
Ho80 O104 2.381 . S
Ho80 O105 2.669 . S
Ho80 O107 2.346 . S
Ho80 O111 2.305 . S
Ho81 C92 2.811 . S
Ho81 O101 2.346 . S
Ho81 O105 2.305 . S
Ho81 O106 2.322 . S
Ho81 O108 2.378 . S
Ho81 O109 2.524 . S
Ho81 O110 2.381 . S
Ho81 O111 2.669 . S
C82 O100 1.259 . S
C82 O101 1.268 . S
C83 Ho80 2.811 . S
C83 C84 1.488 . S
C83 O102 1.215 . S
C83 O103 1.289 . S
C84 C83 1.488 . S
C84 C85 1.348 . S
C84 C89 1.413 . S
C85 C84 1.348 . S
C85 C86 1.442 . S
C85 H112 0.930 . S
C86 C85 1.442 . S
C86 C87 1.381 . S
C86 H113 0.931 . S
C87 C86 1.381 . S
C87 C88 1.321 . S
C88 C87 1.321 . S
C88 C89 1.403 . S
C88 H114 0.934 . S
C89 C84 1.413 . S
C89 C88 1.403 . S
C89 H115 0.930 . S
C90 O104 1.275 . S
C90 O105 1.256 . S
C91 O106 1.259 . S
C91 O107 1.268 . S
C92 Ho81 2.811 . S
C92 C93 1.488 . S
C92 O108 1.215 . S
C92 O109 1.289 . S
C93 C92 1.488 . S
C93 C94 1.348 1_565 S
C93 C98 1.413 . S
C94 C93 1.348 1_545 S
C94 C95 1.442 . S
C94 H116 0.930 . S
C95 C94 1.442 . S
C95 C96 1.381 . S
C95 H117 0.931 . S
C96 C95 1.381 . S
C96 C97 1.321 1_545 S
C97 C96 1.321 1_565 S
C97 C98 1.403 . S
C97 H118 0.934 . S
C98 C93 1.413 . S
C98 C97 1.403 . S
C98 H119 0.930 . S
C99 O110 1.275 . S
C99 O111 1.256 . S
O100 Ho80 2.322 . S
O100 C82 1.259 . S
O101 Ho81 2.346 . S
O101 C82 1.268 . S
O102 Ho80 2.378 . S
O102 C83 1.215 . S
O103 Ho80 2.524 . S
O103 C83 1.289 . S
O104 Ho80 2.381 . S
O104 C90 1.275 . S
O105 Ho80 2.669 . S
O105 Ho81 2.305 . S
O105 C90 1.256 . S
O106 Ho81 2.322 . S
O106 C91 1.259 . S
O107 Ho80 2.346 . S
O107 C91 1.268 . S
O108 Ho81 2.378 . S
O108 C92 1.215 . S
O109 Ho81 2.524 . S
O109 C92 1.289 . S
O110 Ho81 2.381 . S
O110 C99 1.275 . S
O111 Ho80 2.305 . S
O111 Ho81 2.669 . S
O111 C99 1.256 . S
H112 C85 0.930 . S
H113 C86 0.931 . S
H114 C88 0.934 . S
H115 C89 0.930 . S
H116 C94 0.930 . S
H117 C95 0.931 . S
H118 C97 0.934 . S
H119 C98 0.930 . S
Ho120 C123 2.811 . S
Ho120 O140 2.322 . S
Ho120 O142 2.378 . S
Ho120 O143 2.524 . S
Ho120 O144 2.381 . S
Ho120 O145 2.669 . S
Ho120 O147 2.346 . S
Ho120 O151 2.305 . S
Ho121 C132 2.811 1_554 S
Ho121 O141 2.346 . S
Ho121 O145 2.305 . S
Ho121 O146 2.322 1_554 S
Ho121 O148 2.378 1_554 S
Ho121 O149 2.524 1_554 S
Ho121 O150 2.381 . S
Ho121 O151 2.669 . S
C122 O140 1.259 . S
C122 O141 1.268 . S
C123 Ho120 2.811 . S
C123 C124 1.488 . S
C123 O142 1.215 . S
C123 O143 1.289 . S
C124 C123 1.488 . S
C124 C125 1.348 . S
C124 C129 1.413 . S
C125 C124 1.348 . S
C125 C126 1.442 . S
C125 H152 0.930 . S
C126 C125 1.442 . S
C126 C127 1.381 . S
C126 H153 0.931 . S
C127 C126 1.381 . S
C127 C128 1.321 . S
C128 C127 1.321 . S
C128 C129 1.403 . S
C128 H154 0.934 . S
C129 C124 1.413 . S
C129 C128 1.403 . S
C129 H155 0.930 . S
C130 O144 1.275 . S
C130 O145 1.256 . S
C131 O146 1.259 . S
C131 O147 1.268 1_556 S
C132 Ho121 2.811 1_556 S
C132 C133 1.488 . S
C132 O148 1.215 . S
C132 O149 1.289 . S
C133 C132 1.488 . S
C133 C134 1.348 . S
C133 C138 1.413 . S
C134 C133 1.348 . S
C134 C135 1.442 . S
C134 H156 0.930 . S
C135 C134 1.442 . S
C135 C136 1.381 . S
C135 H157 0.931 . S
C136 C135 1.381 . S
C136 C137 1.321 . S
C137 C136 1.321 . S
C137 C138 1.403 . S
C137 H158 0.934 . S
C138 C133 1.413 . S
C138 C137 1.403 . S
C138 H159 0.930 . S
C139 O150 1.275 . S
C139 O151 1.256 . S
O140 Ho120 2.322 . S
O140 C122 1.259 . S
O141 Ho121 2.346 . S
O141 C122 1.268 . S
O142 Ho120 2.378 . S
O142 C123 1.215 . S
O143 Ho120 2.524 . S
O143 C123 1.289 . S
O144 Ho120 2.381 . S
O144 C130 1.275 . S
O145 Ho120 2.669 . S
O145 Ho121 2.305 . S
O145 C130 1.256 . S
O146 Ho121 2.322 1_556 S
O146 C131 1.259 . S
O147 Ho120 2.346 . S
O147 C131 1.268 1_554 S
O148 Ho121 2.378 1_556 S
O148 C132 1.215 . S
O149 Ho121 2.524 1_556 S
O149 C132 1.289 . S
O150 Ho121 2.381 . S
O150 C139 1.275 . S
O151 Ho120 2.305 . S
O151 Ho121 2.669 . S
O151 C139 1.256 . S
H152 C125 0.930 . S
H153 C126 0.931 . S
H154 C128 0.934 . S
H155 C129 0.930 . S
H156 C134 0.930 . S
H157 C135 0.931 . S
H158 C137 0.934 . S
H159 C138 0.930 . S
Ho160 C163 2.811 . S
Ho160 O180 2.322 . S
Ho160 O182 2.378 . S
Ho160 O183 2.524 . S
Ho160 O184 2.381 . S
Ho160 O185 2.669 . S
Ho160 O187 2.346 . S
Ho160 O191 2.305 . S
Ho161 C172 2.811 . S
Ho161 O181 2.346 . S
Ho161 O185 2.305 . S
Ho161 O186 2.322 . S
Ho161 O188 2.378 . S
Ho161 O189 2.524 . S
Ho161 O190 2.381 . S
Ho161 O191 2.669 . S
C162 O180 1.259 . S
C162 O181 1.268 . S
C163 Ho160 2.811 . S
C163 C164 1.488 . S
C163 O182 1.215 . S
C163 O183 1.289 . S
C164 C163 1.488 . S
C164 C165 1.348 . S
C164 C169 1.413 . S
C165 C164 1.348 . S
C165 C166 1.442 . S
C165 H192 0.930 . S
C166 C165 1.442 . S
C166 C167 1.381 . S
C166 H193 0.931 . S
C167 C166 1.381 . S
C167 C168 1.321 . S
C168 C167 1.321 . S
C168 C169 1.403 . S
C168 H194 0.934 . S
C169 C164 1.413 . S
C169 C168 1.403 . S
C169 H195 0.930 . S
C170 O184 1.275 . S
C170 O185 1.256 . S
C171 O186 1.259 . S
C171 O187 1.268 . S
C172 Ho161 2.811 . S
C172 C173 1.488 . S
C172 O188 1.215 . S
C172 O189 1.289 . S
C173 C172 1.488 . S
C173 C174 1.348 1_455 S
C173 C178 1.413 . S
C174 C173 1.348 1_655 S
C174 C175 1.442 . S
C174 H196 0.930 . S
C175 C174 1.442 . S
C175 C176 1.381 . S
C175 H197 0.931 . S
C176 C175 1.381 . S
C176 C177 1.321 1_655 S
C177 C176 1.321 1_455 S
C177 C178 1.403 . S
C177 H198 0.934 . S
C178 C173 1.413 . S
C178 C177 1.403 . S
C178 H199 0.930 . S
C179 O190 1.275 . S
C179 O191 1.256 . S
O180 Ho160 2.322 . S
O180 C162 1.259 . S
O181 Ho161 2.346 . S
O181 C162 1.268 . S
O182 Ho160 2.378 . S
O182 C163 1.215 . S
O183 Ho160 2.524 . S
O183 C163 1.289 . S
O184 Ho160 2.381 . S
O184 C170 1.275 . S
O185 Ho160 2.669 . S
O185 Ho161 2.305 . S
O185 C170 1.256 . S
O186 Ho161 2.322 . S
O186 C171 1.259 . S
O187 Ho160 2.346 . S
O187 C171 1.268 . S
O188 Ho161 2.378 . S
O188 C172 1.215 . S
O189 Ho161 2.524 . S
O189 C172 1.289 . S
O190 Ho161 2.381 . S
O190 C179 1.275 . S
O191 Ho160 2.305 . S
O191 Ho161 2.669 . S
O191 C179 1.256 . S
H192 C165 0.930 . S
H193 C166 0.931 . S
H194 C168 0.934 . S
H195 C169 0.930 . S
H196 C174 0.930 . S
H197 C175 0.931 . S
H198 C177 0.934 . S
H199 C178 0.930 . S
Ho200 C203 2.811 . S
Ho200 O220 2.322 . S
Ho200 O222 2.378 . S
Ho200 O223 2.524 . S
Ho200 O224 2.381 . S
Ho200 O225 2.669 . S
Ho200 O227 2.346 . S
Ho200 O231 2.305 . S
Ho201 C212 2.811 . S
Ho201 O221 2.346 . S
Ho201 O225 2.305 . S
Ho201 O226 2.322 . S
Ho201 O228 2.378 . S
Ho201 O229 2.524 . S
Ho201 O230 2.381 . S
Ho201 O231 2.669 . S
C202 O220 1.259 . S
C202 O221 1.268 . S
C203 Ho200 2.811 . S
C203 C204 1.488 . S
C203 O222 1.215 . S
C203 O223 1.289 . S
C204 C203 1.488 . S
C204 C205 1.348 . S
C204 C209 1.413 . S
C205 C204 1.348 . S
C205 C206 1.442 . S
C205 H232 0.930 . S
C206 C205 1.442 . S
C206 C207 1.381 . S
C206 H233 0.931 . S
C207 C206 1.381 . S
C207 C208 1.321 . S
C208 C207 1.321 . S
C208 C209 1.403 . S
C208 H234 0.934 . S
C209 C204 1.413 . S
C209 C208 1.403 . S
C209 H235 0.930 . S
C210 O224 1.275 . S
C210 O225 1.256 . S
C211 O226 1.259 . S
C211 O227 1.268 . S
C212 Ho201 2.811 . S
C212 C213 1.488 . S
C212 O228 1.215 . S
C212 O229 1.289 . S
C213 C212 1.488 . S
C213 C214 1.348 1_545 S
C213 C218 1.413 . S
C214 C213 1.348 1_565 S
C214 C215 1.442 . S
C214 H236 0.930 . S
C215 C214 1.442 . S
C215 C216 1.381 . S
C215 H237 0.931 . S
C216 C215 1.381 . S
C216 C217 1.321 1_565 S
C217 C216 1.321 1_545 S
C217 C218 1.403 . S
C217 H238 0.934 . S
C218 C213 1.413 . S
C218 C217 1.403 . S
C218 H239 0.930 . S
C219 O230 1.275 . S
C219 O231 1.256 . S
O220 Ho200 2.322 . S
O220 C202 1.259 . S
O221 Ho201 2.346 . S
O221 C202 1.268 . S
O222 Ho200 2.378 . S
O222 C203 1.215 . S
O223 Ho200 2.524 . S
O223 C203 1.289 . S
O224 Ho200 2.381 . S
O224 C210 1.275 . S
O225 Ho200 2.669 . S
O225 Ho201 2.305 . S
O225 C210 1.256 . S
O226 Ho201 2.322 . S
O226 C211 1.259 . S
O227 Ho200 2.346 . S
O227 C211 1.268 . S
O228 Ho201 2.378 . S
O228 C212 1.215 . S
O229 Ho201 2.524 . S
O229 C212 1.289 . S
O230 Ho201 2.381 . S
O230 C219 1.275 . S
O231 Ho200 2.305 . S
O231 Ho201 2.669 . S
O231 C219 1.256 . S
H232 C205 0.930 . S
H233 C206 0.931 . S
H234 C208 0.934 . S
H235 C209 0.930 . S
H236 C214 0.930 . S
H237 C215 0.931 . S
H238 C217 0.934 . S
H239 C218 0.930 . S
C240 C241 1.387 . S
C240 H244 0.950 . S
C240 C249 1.390 . S
C241 C240 1.387 . S
C241 C243 1.387 . S
H242 C249 0.950 . S
C243 C241 1.387 . S
C243 C245 1.390 . S
C243 H247 0.950 . S
H244 C240 0.950 . S
C245 C243 1.390 . S
C245 C246 1.387 . S
C245 H248 0.950 . S
C246 C245 1.387 . S
C246 C249 1.387 . S
H247 C243 0.950 . S
H248 C245 0.950 . S
C249 C240 1.390 . S
C249 H242 0.950 . S
C249 C246 1.387 . S
C250 C251 1.387 . S
C250 H254 0.950 . S
C250 C259 1.390 . S
C251 C250 1.387 . S
C251 C253 1.387 . S
H252 C259 0.950 . S
C253 C251 1.387 . S
C253 C255 1.390 . S
C253 H257 0.950 . S
H254 C250 0.950 . S
C255 C253 1.390 . S
C255 C256 1.387 . S
C255 H258 0.950 . S
C256 C255 1.387 . S
C256 C259 1.387 . S
H257 C253 0.950 . S
H258 C255 0.950 . S
C259 C250 1.390 . S
C259 H252 0.950 . S
C259 C256 1.387 . S
C260 C261 1.387 . S
C260 H264 0.950 . S
C260 C269 1.390 . S
C261 C260 1.387 . S
C261 C263 1.387 . S
H262 C269 0.950 . S
C263 C261 1.387 . S
C263 C265 1.390 . S
C263 H267 0.950 . S
H264 C260 0.950 . S
C265 C263 1.390 . S
C265 C266 1.387 . S
C265 H268 0.950 . S
C266 C265 1.387 . S
C266 C269 1.387 . S
H267 C263 0.950 . S
H268 C265 0.950 . S
C269 C260 1.390 . S
C269 H262 0.950 . S
C269 C266 1.387 . S
C270 C271 1.387 . S
C270 H274 0.950 . S
C270 C279 1.390 . S
C271 C270 1.387 . S
C271 C273 1.387 . S
H272 C279 0.950 . S
C273 C271 1.387 . S
C273 C275 1.390 . S
C273 H277 0.950 . S
H274 C270 0.950 . S
C275 C273 1.390 . S
C275 C276 1.387 . S
C275 H278 0.950 . S
C276 C275 1.387 . S
C276 C279 1.387 . S
H277 C273 0.950 . S
H278 C275 0.950 . S
C279 C270 1.390 . S
C279 H272 0.950 . S
C279 C276 1.387 . S
C280 C281 1.387 . S
C280 H284 0.950 . S
C280 C289 1.390 . S
C281 C280 1.387 . S
C281 C283 1.387 . S
H282 C289 0.950 . S
C283 C281 1.387 . S
C283 C285 1.390 . S
C283 H287 0.950 . S
H284 C280 0.950 . S
C285 C283 1.390 . S
C285 C286 1.387 . S
C285 H288 0.950 . S
C286 C285 1.387 . S
C286 C289 1.387 . S
H287 C283 0.950 . S
H288 C285 0.950 . S
C289 C280 1.390 . S
C289 H282 0.950 . S
C289 C286 1.387 . S
C290 C291 1.387 . S
C290 H294 0.950 . S
C290 C299 1.390 . S
C291 C290 1.387 . S
C291 C293 1.387 . S
H292 C299 0.950 . S
C293 C291 1.387 . S
C293 C295 1.390 . S
C293 H297 0.950 . S
H294 C290 0.950 . S
C295 C293 1.390 . S
C295 C296 1.387 . S
C295 H298 0.950 . S
C296 C295 1.387 . S
C296 C299 1.387 . S
H297 C293 0.950 . S
H298 C295 0.950 . S
C299 C290 1.390 . S
C299 H292 0.950 . S
C299 C296 1.387 . S
C300 C301 1.387 . S
C300 H304 0.950 . S
C300 C309 1.390 . S
C301 C300 1.387 . S
C301 C303 1.387 . S
H302 C309 0.950 . S
C303 C301 1.387 . S
C303 C305 1.390 . S
C303 H307 0.950 . S
H304 C300 0.950 . S
C305 C303 1.390 . S
C305 C306 1.387 . S
C305 H308 0.950 . S
C306 C305 1.387 . S
C306 C309 1.387 . S
H307 C303 0.950 . S
H308 C305 0.950 . S
C309 C300 1.390 . S
C309 H302 0.950 . S
C309 C306 1.387 . S
C310 C311 1.387 . S
C310 H314 0.950 . S
C310 C319 1.390 1_455 S
C311 C310 1.387 . S
C311 C313 1.387 . S
H312 C319 0.950 . S
C313 C311 1.387 . S
C313 C315 1.390 1_455 S
C313 H317 0.950 . S
H314 C310 0.950 . S
C315 C313 1.390 1_655 S
C315 C316 1.387 . S
C315 H318 0.950 . S
C316 C315 1.387 . S
C316 C319 1.387 . S
H317 C313 0.950 . S
H318 C315 0.950 . S
C319 C310 1.390 1_655 S
C319 H312 0.950 . S
C319 C316 1.387 . S
C320 C321 1.387 . S
C320 H324 0.950 . S
C320 C329 1.390 1_545 S
C321 C320 1.387 . S
C321 C323 1.387 . S
H322 C329 0.950 . S
C323 C321 1.387 . S
C323 C325 1.390 1_545 S
C323 H327 0.950 . S
H324 C320 0.950 . S
C325 C323 1.390 1_565 S
C325 C326 1.387 . S
C325 H328 0.950 . S
C326 C325 1.387 . S
C326 C329 1.387 . S
H327 C323 0.950 . S
H328 C325 0.950 . S
C329 C320 1.390 1_565 S
C329 H322 0.950 . S
C329 C326 1.387 . S
C330 C331 1.387 . S
C330 H334 0.950 . S
C330 C339 1.390 . S
C331 C330 1.387 . S
C331 C333 1.387 . S
H332 C339 0.950 . S
C333 C331 1.387 . S
C333 C335 1.390 . S
C333 H337 0.950 . S
H334 C330 0.950 . S
C335 C333 1.390 . S
C335 C336 1.387 . S
C335 H338 0.950 . S
C336 C335 1.387 . S
C336 C339 1.387 . S
H337 C333 0.950 . S
H338 C335 0.950 . S
C339 C330 1.390 . S
C339 H332 0.950 . S
C339 C336 1.387 . S
C340 C341 1.387 . S
C340 H344 0.950 1_554 S
C340 C349 1.390 1_455 S
C341 C340 1.387 . S
C341 C343 1.387 . S
H342 C349 0.950 1_556 S
C343 C341 1.387 . S
C343 C345 1.390 1_455 S
C343 H347 0.950 . S
H344 C340 0.950 1_556 S
C345 C343 1.390 1_655 S
C345 C346 1.387 . S
C345 H348 0.950 . S
C346 C345 1.387 . S
C346 C349 1.387 . S
H347 C343 0.950 . S
H348 C345 0.950 . S
C349 C340 1.390 1_655 S
C349 H342 0.950 1_554 S
C349 C346 1.387 . S
C350 C351 1.387 . S
C350 H354 0.950 . S
C350 C359 1.390 1_565 S
C351 C350 1.387 . S
C351 C353 1.387 . S
H352 C359 0.950 . S
C353 C351 1.387 . S
C353 C355 1.390 1_565 S
C353 H357 0.950 . S
H354 C350 0.950 . S
C355 C353 1.390 1_545 S
C355 C356 1.387 . S
C355 H358 0.950 . S
C356 C355 1.387 . S
C356 C359 1.387 . S
H357 C353 0.950 . S
H358 C355 0.950 . S
C359 C350 1.390 1_545 S
C359 H352 0.950 . S
C359 C356 1.387 . S
C360 C361 1.387 . S
C360 H364 0.950 . S
C360 C369 1.390 . S
C361 C360 1.387 . S
C361 C363 1.387 . S
H362 C369 0.950 . S
C363 C361 1.387 . S
C363 C365 1.390 . S
C363 H367 0.950 . S
H364 C360 0.950 . S
C365 C363 1.390 . S
C365 C366 1.387 . S
C365 H368 0.950 . S
C366 C365 1.387 . S
C366 C369 1.387 . S
H367 C363 0.950 . S
H368 C365 0.950 . S
C369 C360 1.390 . S
C369 H362 0.950 . S
C369 C366 1.387 . S
C370 C371 1.387 1_655 S
C370 H374 0.950 . S
C370 C379 1.390 1_655 S
C371 C370 1.387 1_455 S
C371 C373 1.387 . S
H372 C379 0.950 1_655 S
C373 C371 1.387 . S
C373 C375 1.390 . S
C373 H377 0.950 . S
H374 C370 0.950 . S
C375 C373 1.390 . S
C375 C376 1.387 . S
C375 H378 0.950 . S
C376 C375 1.387 . S
C376 C379 1.387 . S
H377 C373 0.950 . S
H378 C375 0.950 . S
C379 C370 1.390 1_455 S
C379 H372 0.950 1_455 S
C379 C376 1.387 . S
C380 C381 1.387 . S
C380 H384 0.950 . S
C380 C389 1.390 . S
C381 C380 1.387 . S
C381 C383 1.387 1_545 S
H382 C389 0.950 . S
C383 C381 1.387 1_565 S
C383 C385 1.390 1_565 S
C383 H387 0.950 . S
H384 C380 0.950 . S
C385 C383 1.390 1_545 S
C385 C386 1.387 . S
C385 H388 0.950 1_545 S
C386 C385 1.387 . S
C386 C389 1.387 . S
H387 C383 0.950 . S
H388 C385 0.950 1_565 S
C389 C380 1.390 . S
C389 H382 0.950 . S
C389 C386 1.387 . S
C390 C391 1.387 . S
C390 H394 0.950 . S
C390 C399 1.390 . S
C391 C390 1.387 . S
C391 C393 1.387 . S
H392 C399 0.950 . S
C393 C391 1.387 . S
C393 C395 1.390 . S
C393 H397 0.950 . S
H394 C390 0.950 . S
C395 C393 1.390 . S
C395 C396 1.387 . S
C395 H398 0.950 . S
C396 C395 1.387 . S
C396 C399 1.387 . S
H397 C393 0.950 . S
H398 C395 0.950 . S
C399 C390 1.390 . S
C399 H392 0.950 . S
C399 C396 1.387 . S
C400 C401 1.387 . S
C400 H404 0.950 1_655 S
C400 C409 1.390 . S
C401 C400 1.387 . S
C401 C403 1.387 . S
H402 C409 0.950 . S
C403 C401 1.387 . S
C403 C405 1.390 . S
C403 H407 0.950 . S
H404 C400 0.950 1_455 S
C405 C403 1.390 . S
C405 C406 1.387 . S
C405 H408 0.950 . S
C406 C405 1.387 . S
C406 C409 1.387 . S
H407 C403 0.950 . S
H408 C405 0.950 . S
C409 C400 1.390 . S
C409 H402 0.950 . S
C409 C406 1.387 . S
C410 C411 1.387 . S
C410 H414 0.950 . S
C410 C419 1.390 . S
C411 C410 1.387 . S
C411 C413 1.387 1_565 S
H412 C419 0.950 . S
C413 C411 1.387 1_545 S
C413 C415 1.390 1_545 S
C413 H417 0.950 . S
H414 C410 0.950 . S
C415 C413 1.390 1_565 S
C415 C416 1.387 . S
C415 H418 0.950 1_565 S
C416 C415 1.387 . S
C416 C419 1.387 . S
H417 C413 0.950 . S
H418 C415 0.950 1_545 S
C419 C410 1.390 . S
C419 H412 0.950 . S
C419 C416 1.387 . S
C241 C171 1.235 . S
C246 C7 1.244 . S
C251 C211 1.233 . S
C256 C47 1.243 . S
C261 C11 1.233 . S
C266 C87 1.243 . S
C271 C51 1.235 . S
C276 C127 1.244 . S
C281 C91 1.235 . S
C286 C167 1.244 . S
C291 C131 1.233 . S
C296 C207 1.243 . S
C301 C10 1.268 . S
C306 C130 1.268 . S
C311 C170 1.274 . S
C316 C50 1.274 . S
C321 C210 1.268 . S
C326 C90 1.268 . S
C331 C99 1.509 . S
C336 C219 1.509 . S
C341 C19 1.508 . S
C346 C139 1.508 . S
C351 C179 1.511 . S
C356 C59 1.511 . S
C361 C202 1.439 . S
C366 C16 1.388 . S
C371 C56 1.389 . S
C376 C2 1.439 . S
C381 C96 1.386 . S
C386 C42 1.438 . S
C391 C82 1.439 . S
C396 C136 1.389 . S
C401 C176 1.388 . S
C406 C122 1.438 . S
C411 C216 1.386 . S
C416 C162 1.437 . S
